Mass spectrum: FK-506; LC-ESI-QFT; MS2; CE: 45; R=35000; [M+H]+
Name: FK-506
Name: Tacrolimus
Name: (1R,9S,12S,13R,14S,17R,21S,23S,24R,25S,27R)-17-Allyl-1,14-dihydroxy-12-{(1E)-1-[(1R,3R,4R)-4-hydroxy-3-methoxycyclohexyl]-1-propen-2-yl}-23,25-dimethoxy-13,19,21,27-tetramethyl-11,28-dioxa-4-azatricyc lo[22.3.1.0 4,9]octacos-18-ene-2,3,10,16-tetrone
Formula: C44H69NO12
Exact mass: 803.48198
SMILES: CC1CC(C2C(CC(C(O2)(C(=O)C(=O)N3CCCCC3C(=O)OC(C(C(CC(=O)C(C=C(C1)C)CC=C)O)C)C(=CC4CCC(C(C4)OC)O)C)O)C)OC)OC
InChI: InChI=1S/C44H69NO12/c1-10-13-31-19-25(2)18-26(3)20-37(54-8)40-38(55-9)22-28(5)44(52,57-40)41(49)42(50)45-17-12-11-14-32(45)43(51)56-39(29(6)34(47)24-35(31)48)27(4)21-30-15-16-33(46)36(23-30)53-7/h10,19,21,26,28-34,36-40,46-47,52H,1,11-18,20,22-24H2,2-9H3/b25-19-,27-21+/t26-,28+,29+,30-,31+,32-,33+,34-,36+,37-,38-,39+,40+,44+/m0/s1
Instrument: Q Exactive Plus Orbitrap Thermo Scientific
Instrument type: LC-ESI-QFT
Ms type: MS2
Ion mode: POSITIVE
Ionization: ESI
Fragmentation mode: HCD
Collision energy: 45 (nominal)
Resolution: 35000
Column name: XBridge C18 3.5um, 2.1x50mm, Waters
Retention time: 15.3 min
Base peak: 279.159
Precursor m/z: 804.4893
Precursor type: [M+H]+
m/z	relative intensity	assigned
56.0495	26	C3H6N+
57.0335	9	C3H5O+
57.0699	4	C4H9+
59.0491	12	C3H7O+
65.0386	19	C5H5+
67.0542	144	C5H7+
69.0335	203	C4H5O+
69.0699	59	C5H9+
70.0652	2	C4H8N+
71.0127	16	C3H3O2+
71.0491	50	C4H7O+
73.0283	3	C3H5O2+
75.044	3	C3H7O2+
77.0384	4	C6H5+
79.0542	195	C6H7+
80.0494	1	C5H6N+
81.0335	11	C5H5O+
81.0699	185	C6H9+
82.0651	22	C5H8N+
83.0491	59	C5H7O+
83.0855	11	C6H11+
84.0808	999	C5H10N+
85.0284	8	C4H5O2+
85.0648	128	C5H9O+
91.0543	208	C7H7+
93.07	319	C7H9+
95.0492	156	C6H7O+
95.0856	209	C7H11+
97.0649	77	C6H9O+
97.1013	4	C7H13+
99.0441	12	C5H7O2+
99.0805	19	C6H11O+
101.0597	7	C5H9O2+
103.0541	4	C8H7+
105.0448	13	C6H5N2+
105.0699	264	C8H9+
107.0491	36	C7H7O+
107.0856	372	C8H11+
109.0285	607	C6H5O2+
109.0649	149	C7H9O+
109.1012	81	C8H13+
110.0601	74	C6H8NO+
111.0442	27	C6H7O2+
111.0805	138	C7H11O+
112.0758	4	C6H10NO+
113.0598	18	C6H9O2+
115.0542	21	C9H7+
116.0621	2	C9H8+
117.07	75	C9H9+
119.049	15	C8H7O+
119.0856	307	C9H11+
121.0649	113	C8H9O+
121.1012	111	C9H13+
123.0441	68	C7H7O2+
123.0805	84	C8H11O+
123.1169	9	C9H15+
125.0597	47	C7H9O2+
125.0964	21	C8H13O+
127.039	10	C6H7O3+
127.0755	8	C7H11O2+
128.0622	28	C10H8+
128.0707	358	C6H10NO2+
129.0699	106	C10H9+
130.0864	324	C6H12NO2+
131.0856	186	C10H11+
133.0648	37	C9H9O+
133.1013	199	C10H13+
135.0442	34	C8H7O2+
135.0805	109	C9H11O+
135.1169	106	C10H15+
136.1122	24	C9H14N+
137.0598	55	C8H9O2+
137.0963	39	C9H13O+
137.1324	12	C10H17+
138.0551	2	C7H8NO2+
139.039	26	C7H7O3+
139.0754	18	C8H11O2+
139.1117	4	C9H15O+
140.0704	4	C7H10NO2+
141.0547	8	C7H9O3+
141.0698	26	C11H9+
141.0909	7	C8H13O2+
142.0778	33	C11H10+
143.0856	288	C11H11+
144.0934	18	C11H12+
145.0651	24	C10H9O+
145.1013	270	C11H13+
146.0727	2	C10H10O+
147.0805	124	C10H11O+
147.1169	105	C11H15+
148.0882	4	C10H12O+
148.1121	2	C10H14N+
149.0598	51	C9H9O2+
149.0962	79	C10H13O+
149.1325	12	C11H17+
150.0914	7	C9H12NO+
151.0391	15	C8H7O3+
151.0754	29	C9H11O2+
151.1118	26	C10H15O+
152.1071	165	C9H14NO+
153.0547	52	C8H9O3+
153.0698	13	C12H9+
153.0913	8	C9H13O2+
154.0778	4	C12H10+
155.0339	8	C7H7O4+
155.0856	56	C12H11+
156.0656	7	C7H10NO3+
156.0935	79	C12H12+
157.0648	21	C11H9O+
157.1013	198	C12H13+
158.0728	2	C11H10O+
158.1093	14	C12H14+
159.0805	52	C11H11O+
159.1169	171	C12H15+
160.0883	8	C11H12O+
160.1248	4	C12H16+
161.0962	117	C11H13O+
161.1325	166	C12H17+
163.0755	31	C10H11O2+
163.1118	88	C11H15O+
163.1481	10	C12H19+
164.107	13	C10H14NO+
165.0548	24	C9H9O3+
165.0699	15	C13H9+
165.0913	16	C10H13O2+
165.1273	4	C11H17O+
166.0779	3	C13H10+
167.0703	12	C9H11O3+
167.0855	18	C13H11+
168.0933	23	C13H12+
168.1013	6	C9H14NO2+
168.1382	4	C10H18NO+
169.0493	9	C8H9O4+
169.1012	91	C13H13+
170.1091	23	C13H14+
171.0805	41	C12H11O+
171.1169	362	C13H15+
172.0881	9	C12H12O+
172.1249	8	C13H16+
173.0962	71	C12H13O+
173.1326	100	C13H17+
174.1038	4	C12H14O+
175.0755	77	C11H11O2+
175.1119	58	C12H15O+
175.1481	28	C13H19+
176.107	3	C11H14NO+
177.0546	3	C10H9O3+
177.0912	30	C11H13O2+
177.1275	23	C12H17O+
178.0781	2	C14H10+
178.0865	4	C10H12NO2+
179.0701	9	C10H11O3+
179.0856	16	C14H11+
179.1067	15	C11H15O2+
179.1429	3	C12H19O+
180.0935	15	C14H12+
180.1018	109	C10H14NO2+
181.0857	3	C10H13O3+
181.1013	42	C14H13+
181.1217	2	C11H17O2+
182.109	17	C14H14+
182.1172	3	C10H16NO2+
183.0651	9	C9H11O4+
183.0805	15	C13H11O+
183.1169	122	C14H15+
184.0886	4	C13H12O+
184.125	10	C14H16+
185.0962	43	C13H13O+
185.1326	163	C14H17+
186.1037	10	C13H14O+
186.1401	4	C14H18+
187.06	8	C8H11O5+
187.0753	13	C12H11O2+
187.1119	65	C13H15O+
187.1483	55	C14H19+
188.1194	4	C13H16O+
189.091	54	C12H13O2+
189.1275	139	C13H17O+
190.1225	3	C12H16NO+
191.0703	8	C11H11O3+
191.1068	12	C12H15O2+
191.1433	7	C13H19O+
192.094	13	C15H12+
192.1019	230	C11H14NO2+
193.0859	8	C11H13O3+
193.1013	38	C15H13+
194.1088	13	C15H14+
195.0658	6	C10H11O4+
195.117	108	C15H15+
196.088	8	C14H12O+
196.0967	2	C10H14NO3+
196.1246	15	C15H16+
196.1333	22	C11H18NO2+
197.0807	8	C10H13O4+
197.0961	23	C14H13O+
197.1326	76	C15H17+
198.1041	13	C14H14O+
199.0755	8	C13H11O2+
199.112	50	C14H15O+
199.1482	55	C15H19+
200.1195	4	C14H16O+
201.0912	17	C13H13O2+
201.1275	72	C14H17O+
201.1638	10	C15H21+
203.1067	16	C13H15O2+
203.1433	98	C14H19O+
204.102	3	C12H14NO2+
205.0858	8	C12H13O3+
205.1011	11	C16H13+
205.1223	10	C13H17O2+
205.1587	4	C14H21O+
206.1089	10	C16H14+
206.1177	26	C12H16NO2+
207.1013	4	C12H15O3+
207.1169	48	C16H15+
207.138	12	C13H19O2+
208.0886	4	C15H12O+
208.0971	63	C11H14NO3+
208.125	23	C16H16+
209.0962	18	C15H13O+
209.1326	50	C16H17+
210.1039	7	C15H14O+
210.1126	34	C11H16NO3+
210.1405	7	C16H18+
211.112	61	C15H15O+
211.1482	39	C16H19+
212.1196	13	C15H16O+
213.091	13	C14H13O2+
213.1276	93	C15H17O+
213.1636	15	C16H21+
214.1356	9	C15H18O+
215.1069	21	C14H15O2+
215.1432	41	C15H19O+
217.0859	3	C13H13O3+
217.101	3	C17H13+
217.1225	11	C14H17O2+
217.1588	21	C15H21O+
218.1087	8	C17H14+
218.1177	8	C13H16NO2+
218.1667	7	C15H22O+
219.1015	3	C13H15O3+
219.1173	20	C17H15+
219.1378	4	C14H19O2+
220.097	93	C12H14NO3+
220.1249	7	C17H16+
221.0963	4	C16H13O+
221.1325	34	C17H17+
221.1539	23	C14H21O2+
222.1033	3	C16H14O+
222.1125	8	C12H16NO3+
222.1406	17	C17H18+
223.1119	33	C16H15O+
223.148	31	C17H19+
224.1191	7	C16H16O+
224.1283	10	C12H18NO3+
225.0906	4	C15H13O2+
225.1275	34	C16H17O+
225.1641	15	C17H21+
226.1082	2	C11H16NO4+
226.1354	10	C16H18O+
227.107	15	C15H15O2+
227.1432	27	C16H19O+
227.1795	26	C17H23+
228.1502	2	C16H20O+
229.1224	29	C15H17O2+
229.1589	13	C16H21O+
231.1166	3	C18H15+
231.138	18	C15H19O2+
232.1244	11	C18H16+
232.1341	7	C14H18NO2+
233.1166	2	C14H17O3+
233.1324	11	C18H17+
233.1534	2	C15H21O2+
234.1128	67	C13H16NO3+
234.1401	17	C18H18+
235.1116	10	C17H15O+
235.1484	15	C18H19+
236.092	7	C12H14NO4+
236.1284	8	C13H18NO3+
237.0912	3	C16H13O2+
237.1274	15	C17H17O+
237.1638	41	C18H21+
238.1075	9	C12H16NO4+
239.1069	17	C16H15O2+
239.1435	26	C17H19O+
239.1793	10	C18H23+
240.1508	4	C17H20O+
241.1225	18	C16H17O2+
241.1591	22	C17H21O+
243.1378	14	C16H19O2+
243.1741	4	C17H23O+
245.097	2	C18H13O+
245.1321	8	C19H17+
245.1537	4	C16H21O2+
246.1124	2	C14H16NO3+
247.1481	22	C19H19+
248.1282	8	C14H18NO3+
249.1273	13	C18H17O+
249.1639	25	C19H21+
250.1069	2	C13H16NO4+
250.1349	8	C18H18O+
251.1067	8	C17H15O2+
251.1433	20	C18H19O+
251.179	8	C19H23+
252.1139	3	C17H16O2+
253.1219	3	C17H17O2+
253.1585	9	C18H21O+
254.1021	4	C12H16NO5+
255.1379	3	C17H19O2+
255.1744	38	C18H23O+
257.117	11	C16H17O3+
257.1313	3	C20H17+
257.1531	2	C17H21O2+
257.1901	2	C18H25O+
259.1478	3	C20H19+
259.1698	3	C17H23O2+
261.1643	12	C20H21+
262.1072	4	C14H16NO4+
263.1432	4	C19H19O+
263.1796	10	C20H23+
265.159	49	C19H21O+
265.1948	3	C20H25+
266.1028	17	C13H16NO5+
267.1381	7	C18H19O2+
267.1746	24	C19H23O+
269.1532	7	C18H21O2+
269.1895	2	C19H25O+
273.1635	4	C21H21+
275.1422	4	C20H19O+
277.1227	2	C19H17O2+
277.1584	2	C20H21O+
278.102	3	C14H16NO5+
279.1739	3	C20H23O+
281.1899	11	C20H25O+
283.1698	39	C19H23O2+
285.1846	8	C19H25O2+
286.1436	2	C17H20NO3+
289.1573	2	C21H21O+
289.1947	4	C22H25+
291.1737	8	C21H23O+
293.1542	25	C20H21O2+
293.1894	4	C21H25O+
295.168	3	C20H23O2+
297.1846	4	C20H25O2+
299.2001	11	C20H27O2+
304.1189	4	C16H18NO5+
304.1544	2	C17H22NO4+
306.1326	2	C16H20NO5+
307.2054	3	C22H27O+
309.1843	9	C21H25O2+
311.1641	25	C20H23O3+
313.2153	2	C21H29O2+
315.1948	3	C20H27O3+
319.1686	3	C22H23O2+
327.1958	9	C21H27O3+
329.1749	4	C20H25O4+
332.1491	4	C18H22NO5+
337.1795	4	C22H25O3+
355.1904	2	C22H27O4+
