Mass spectrum: Mefenpyr-diethyl; LC-ESI-QFT; MS2; CE: 75; R=35000; [M+H]+
Name: Mefenpyr-diethyl
Name: 1-(2,4-Dichlorophenyl)-4,5-dihydro-5-methyl-1H-pyrazole-3,5-dicarboxylic acid diethyl ester
Name: 1-(2,4-dichlorophenyl)-5-methyl-2-pyrazoline-3,5-dicarboxylic acid diethyl ester
Formula: C16H18Cl2N2O4
Exact mass: 372.06436
SMILES: Clc1cc(Cl)c(cc1)N2/N=C(/C(=O)OCC)CC2(C(=O)OCC)C
InChI: InChI=1S/C16H18Cl2N2O4/c1-4-23-14(21)12-9-16(3,15(22)24-5-2)20(19-12)13-7-6-10(17)8-11(13)18/h6-8H,4-5,9H2,1-3H3
Instrument: Q Exactive Orbitrap Thermo Scientific
Instrument type: LC-ESI-QFT
Ms type: MS2
Ion mode: POSITIVE
Ionization: ESI
Fragmentation mode: HCD
Collision energy: 75 (nominal)
Resolution: 35000
Column name: XBridge C18 3.5um, 2.1x50mm, Waters
Retention time: 13.5 min
Base peak: 373.0724
Precursor m/z: 373.0716
Precursor type: [M+H]+
m/z	relative intensity	assigned
62.9635	3	CClO+
63.023	1	C5H3+
66.034	1	C4H4N+
69.0336	5	C4H5O+
72.9839	11	C3H2Cl+
74.0151	11	C6H2+
82.9449	6	CHCl2+
84.984	29	C4H2Cl+
86.9633	46	C3ClO+
90.034	1	C6H4N+
94.0289	1	C2H7ClN2+
96.984	1	C5H2Cl+
98.0365	1	C5H6O2+
98.9998	54	C5H4Cl+
106.9451	3	C3HCl2+
108.9841	113	C6H2Cl+
112.979	4	C5H2ClO+
113.9869	1	C5H3ClO+
120.9608	12	C4H3Cl2+
122.9997	1	C7H4Cl+
123.995	43	C6H3ClN+
125.0028	55	C6H4ClN+
126.0107	1	C6H5ClN+
126.9947	22	C6H4ClO+
127.0418	3	C9H5N+
128.0025	29	C6H5ClO+
128.0496	1	C9H6N+
130.0655	5	C9H8N+
132.9608	999	C5H3Cl2+
136.0076	5	C8H5Cl+
138.0104	1	C7H5ClN+
139.0057	1	C6H4ClN2+
142.0057	9	C3H8Cl2N2+
144.9608	78	C6H3Cl2+
145.0053	6	C3H9Cl2NO+
147.9952	4	C8H3ClN+
149.0028	1	C8H4ClN+
151.0185	24	C8H6ClN+
152.0137	5	C7H5ClN2+
155.0007	1	C6H4ClN2O+
155.0605	27	C10H7N2+
156.0683	4	C10H8N2+
156.9607	5	C7H3Cl2+
158.9764	10	C7H5Cl2+
159.9717	489	C6H4Cl2N+
160.9795	57	C6H5Cl2N+
162.0106	5	C9H5ClN+
162.0232	3	C10H7Cl+
162.9713	48	C6H5Cl2O+
163.0185	40	C9H6ClN+
164.0263	38	C9H7ClN+
165.0219	3	C8H6ClN2+
165.0341	26	C9H8ClN+
166.0295	3	C8H7ClN2+
171.0552	1	C10H7N2O+
171.9717	9	C7H4Cl2N+
172.967	621	C6H3Cl2N2+
173.9873	16	C7H6Cl2N+
177.9823	10	C6H6Cl2NO+
179.0372	3	C9H8ClN2+
180.0218	1	C6H10Cl2N2+
183.9718	22	C8H4Cl2N+
184.9669	8	C7H3Cl2N2+
184.9798	4	C8H5Cl2N+
185.9875	552	C11H3ClO+
186.983	4	C7H5Cl2N2+
189.0216	115	C10H6ClN2+
190.0295	100	C10H7ClN2+
191.0371	6	C10H8ClN2+
192.0451	9	C10H9ClN2+
195.0083	1	C9H6ClNO2+
197.9873	11	C9H6Cl2N+
199.9904	1	C8H6Cl2N2+
200.9981	3	C8H7Cl2N2+
209.975	4	C9H4Cl2N2+
210.9823	1	C9H5Cl2N2+
217.0169	2	C11H6ClN2O+
218.0243	10	C11H7ClN2O+
223.9907	2	C10H6Cl2N2+
224.9984	12	C10H7Cl2N2+
225.9823	1	C10H6Cl2NO+
227.0141	4	C10H9Cl2N2+
252.9932	14	C11H7Cl2N2O+
271.004	47	C11H9Cl2N2O2+
298.9989	2	C12H9Cl2N2O3+
