Mass spectrum: Rifaximin; LC-ESI-QFT; MS2; CE: 30; R=35000; [M-H]-
Name: Rifaximin
Name: (7S,9E,11S,12R,13S,14R,15R,16R,17S,18S,19E,21Z)-2,15,17,36-Tetrahydroxy-11-methoxy-3,7,12,14,16,18,22,30-octamethyl-6,23-dioxo-8,37-dioxa-24,27,33-triazahexacyclo[23.10.1.14,7.05,35.026,34.027, 32]heptatriaconta-1(35),2,4,9,19,21,25(36),26(34),28,30,32-undecaen-13-yl acetate
Formula: C43H51N3O11
Exact mass: 785.35236
SMILES: CC1C=CC=C(C(=O)NC2=C(C3=C(C4=C(C(=C3O)C)OC(C4=O)(OC=CC(C(C(C(C(C(C1O)C)O)C)OC(=O)C)C)OC)C)C5=C2N6C=CC(=CC6=N5)C)O)C
InChI: InChI=1S/C43H51N3O11/c1-19-14-16-46-28(18-19)44-32-29-30-37(50)25(7)40-31(29)41(52)43(9,57-40)55-17-15-27(54-10)22(4)39(56-26(8)47)24(6)36(49)23(5)35(48)20(2)12-11-13-21(3)42(53)45-33(34(32)46)38(30)51/h11-18,20,22-24,27,35-36,39,48-51H,1-10H3,(H,45,53)
Instrument: Q Exactive Plus Orbitrap Thermo Scientific
Instrument type: LC-ESI-QFT
Ms type: MS2
Ion mode: NEGATIVE
Ionization: ESI
Fragmentation mode: HCD
Collision energy: 30 (nominal)
Resolution: 35000
Column name: XBridge C18 3.5um, 2.1x50mm, Waters
Retention time: 10.9 min
Base peak: 784.3448
Precursor m/z: 784.3451
Precursor type: [M-H]-
m/z	relative intensity	assigned
59.0138	114	C2H3O2-
83.0503	9	C5H7O-
85.0295	7	C4H5O2-
111.0453	2	C6H7O2-
121.0658	5	C8H9O-
123.0816	81	C8H11O-
125.0607	33	C7H9O2-
136.0766	19	C8H10NO-
151.0764	31	C9H11O2-
164.0717	36	C9H10NO2-
293.0944	1	C17H13N2O3-
306.0885	12	C17H12N3O3-
307.0959	1	C17H13N3O3-
308.1041	30	C17H14N3O3-
320.1035	1	C18H14N3O3-
332.1036	1	C19H14N3O3-
333.0754	10	C18H11N3O4-
333.1125	1	C19H15N3O3-
334.083	6	C18H12N3O4-
345.0876	5	C20H13N2O4-
346.0964	31	C20H14N2O4-
347.1037	472	C20H15N2O4-
348.0996	4	C19H14N3O4-
358.0833	2	C20H12N3O4-
359.0903	30	C20H13N3O4-
360.099	999	C20H14N3O4-
361.1067	186	C20H15N3O4-
362.1146	91	C20H16N3O4-
370.1206	2	C22H16N3O3-
373.1052	9	C18H17N2O7-
374.1139	4	C21H16N3O4-
386.0778	59	C21H12N3O5-
387.0857	142	C21H13N3O5-
388.0937	60	C21H14N3O5-
389.1016	2	C21H15N3O5-
393.0967	13	C20H15N3O6-
402.109	17	C22H16N3O5-
403.1164	9	C22H17N3O5-
404.1249	9	C22H18N3O5-
410.1497	2	C25H20N3O3-
419.0751	1	C21H13N3O7-
429.0972	6	C23H15N3O6-
438.1811	1	C27H24N3O3-
439.1665	6	C27H23N2O4-
440.1975	11	C27H26N3O3-
441.133	12	C25H19N3O5-
442.1418	1	C27H22O6-
452.1253	1	C26H18N3O5-
454.1409	138	C26H20N3O5-
458.1727	2	C26H24N3O5-
464.1604	4	C28H22N3O4-
468.1922	14	C28H26N3O4-
482.172	761	C28H24N3O5-
483.179	17	C28H25N3O5-
484.1884	24	C28H26N3O5-
510.1668	38	C29H24N3O6-
512.1823	51	C29H26N3O6-
515.1704	11	C28H25N3O7-
692.2976	216	C37H44N2O11-
724.3237	312	C41H46N3O9-
784.3448	559	C43H50N3O11-
