Mass spectrum: Kresoxim-methyl acid; LC-ESI-QFT; MS2; CE: 180; R=35000; [M+H]+
Name: Kresoxim-methyl acid
Name: (2E)-2-methoxyimino-2-[2-[(2-methylphenoxy)methyl]phenyl]acetic acid
Formula: C17H17NO4
Exact mass: 299.11576
SMILES: O=C(O)\C(=N\OC)c2ccccc2COc1ccccc1C
InChI: InChI=1S/C17H17NO4/c1-12-7-3-6-10-15(12)22-11-13-8-4-5-9-14(13)16(17(19)20)18-21-2/h3-10H,11H2,1-2H3,(H,19,20)/b18-16+
Instrument: Q Exactive Plus Orbitrap Thermo Scientific
Instrument type: LC-ESI-QFT
Ms type: MS2
Ion mode: POSITIVE
Ionization: ESI
Fragmentation mode: HCD
Collision energy: 180 (nominal)
Resolution: 35000
Column name: XBridge C18 3.5um, 2.1x50mm, Waters
Retention time: 10.9 min
Base peak: 300.1227
Precursor m/z: 300.123
Precursor type: [M+H]+
m/z	relative intensity	assigned
50.0151	90	C4H2+
51.0229	127	C4H3+
52.0182	2	C3H2N+
52.0307	2	C4H4+
53.0022	50	C3HO+
53.0386	32	C4H5+
53.9974	8	C2NO+
55.0179	11	C3H3O+
61.0073	79	C5H+
62.0151	253	C5H2+
63.0229	999	C5H3+
64.0182	136	C4H2N+
64.0307	15	C5H4+
65.0386	129	C5H5+
66.0339	1	C4H4N+
66.0464	5	C5H6+
67.0541	1	C5H7+
67.9893	3	C3O2+
74.015	41	C6H2+
75.0229	64	C6H3+
76.0182	11	C5H2N+
76.0307	31	C6H4+
77.0385	52	C6H5+
78.0464	29	C6H6+
79.0179	10	C5H3O+
79.054	1	C6H7+
81.0335	7	C5H5O+
86.0151	12	C7H2+
87.0229	32	C7H3+
88.0182	25	C6H2N+
88.0307	16	C7H4+
89.0386	510	C7H5+
90.0338	30	C6H4N+
90.0464	22	C7H6+
91.0542	36	C7H7+
95.0491	89	C6H7O+
98.0151	21	C8H2+
99.0229	26	C8H3+
101.0386	6	C8H5+
102.0464	52	C8H6+
103.0416	1	C7H5N+
103.0543	4	C8H7+
104.0495	5	C7H6N+
105.0447	53	C6H5N2+
107.049	1	C7H7O+
113.0386	35	C9H5+
114.0339	21	C8H4N+
114.0466	2	C9H6+
115.0542	111	C9H7+
116.0496	10	C8H6N+
119.0491	5	C8H7O+
125.0386	28	C10H5+
126.0464	81	C10H6+
127.0415	5	C9H5N+
127.0541	19	C10H7+
128.062	27	C10H8+
129.0445	10	C8H5N2+
130.0402	1	C7H4N3+
132.0443	1	C8H6NO+
137.0386	12	C11H5+
138.0464	7	C11H6+
139.0542	106	C11H7+
140.0494	25	C10H6N+
140.062	5	C11H8+
141.0699	2	C11H9+
143.0491	7	C10H7O+
145.0646	11	C10H9O+
149.0384	18	C12H5+
150.0464	249	C12H6+
151.0543	29	C12H7+
152.0621	198	C12H8+
153.0575	2	C11H7N+
153.0699	2	C12H9+
154.065	1	C11H8N+
155.0603	20	C10H7N2+
161.0387	9	C13H5+
162.0463	11	C13H6+
163.0542	129	C13H7+
164.0498	16	C12H6N+
164.062	38	C13H8+
165.0699	85	C13H9+
166.065	9	C12H8N+
167.049	7	C12H7O+
167.0728	1	C12H9N+
168.0568	19	C12H8O+
169.0648	132	C12H9O+
170.0599	1	C11H8NO+
174.0464	18	C14H6+
175.0418	6	C13H5N+
175.054	2	C14H7+
176.062	92	C14H8+
177.0574	42	C13H7N+
177.0695	15	C14H9+
178.0652	10	C13H8N+
178.0777	20	C14H10+
179.0604	42	C12H7N2+
180.0807	1	C13H10N+
183.0808	1	C13H11O+
185.0598	5	C12H9O2+
187.0543	8	C15H7+
188.0495	16	C14H6N+
188.0621	2	C15H8+
189.0698	5	C15H9+
190.0649	22	C14H8N+
191.0729	11	C14H9N+
193.0651	5	C14H9O+
194.0361	1	C13H6O2+
194.0601	5	C13H8NO+
196.0518	5	C13H8O2+
201.0574	7	C15H7N+
202.0657	1	C15H8N+
204.0556	5	C13H6N3+
220.0747	1	C15H10NO+
