Mass spectrum: Reserpine; LC-ESI-ITFT; MS2; CE: 90%; R=7500; [M+H]+
Name: Reserpine
Name: (1S,2R,3R,4aS,13bR,14aS)-2,11-dimethoxy-3-(3,4,5-trimethoxybenzoyl)oxy-1,2,3,4,4a,5,7,8,13,13b,14,14a-dodecahydroisoquinolino[3,2-a]$b-carboline-1-carboxylic acid methyl ester
Formula: C33H40N2O9
Exact mass: 608.2734
SMILES: CO[C@H]1[C@@H](C[C@@H]2CN3CCC4=C([C@H]3C[C@@H]2[C@@H]1C(=O)OC)NC5=C4C=CC(=C5)OC)OC(=O)C6=CC(=C(C(=C6)OC)OC)OC
InChI: InChI=1S/C33H40N2O9/c1-38-19-7-8-20-21-9-10-35-16-18-13-27(44-32(36)17-11-25(39-2)30(41-4)26(12-17)40-3)31(42-5)28(33(37)43-6)22(18)15-24(35)29(21)34-23(20)14-19/h7-8,11-12,14,18,22,24,27-28,31,34H,9-10,13,15-16H2,1-6H3/t18-,22+,24-,27-,28+,31+/m1/s1
Instrument: LTQ Orbitrap XL Thermo Scientific
Instrument type: LC-ESI-ITFT
Ms type: MS2
Ion mode: POSITIVE
Ionization: ESI
Fragmentation mode: HCD
Collision energy: 90 % (nominal)
Resolution: 7500
Column name: XBridge C18 3.5um, 2.1x50mm, Waters
Retention time: 8.3 min
Base peak: 609.2812
Precursor m/z: 609.2807
Precursor type: [M+H]+
m/z	relative intensity	assigned
53.0385	90	C4H5+
65.0385	31	C5H5+
66.0464	24	C5H6+
67.0542	30	C5H7+
77.0385	163	C6H5+
78.0462	28	C6H6+
79.0542	113	C6H7+
80.0494	21	C5H6N+
81.0334	196	C5H5O+
81.0699	35	C6H9+
91.0541	136	C7H7+
92.0259	31	C6H4O+
92.0496	12	C6H6N+
93.0333	12	C6H5O+
93.0573	20	C6H7N+
94.0413	50	C6H6O+
94.065	35	C6H8N+
95.0491	62	C6H7O+
96.0568	88	C6H8O+
97.0651	8	C6H9O+
99.0442	10	C5H7O2+
103.0542	47	C8H7+
104.0617	16	C8H8+
105.0333	22	C7H5O+
105.0447	61	C6H5N2+
105.0575	16	C7H7N+
105.0696	33	C8H9+
106.0414	18	C7H6O+
106.0648	21	C7H8N+
107.0126	43	C6H3O2+
107.0491	22	C7H7O+
107.0727	10	C7H9N+
108.057	40	C7H8O+
109.0283	90	C6H5O2+
109.0647	70	C7H9O+
111.044	16	C6H7O2+
111.0808	13	C7H11O+
113.0598	25	C6H9O2+
115.0541	138	C9H7+
116.0494	18	C8H6N+
116.0619	38	C9H8+
117.0572	103	C8H7N+
117.0697	41	C9H9+
118.065	50	C8H8N+
119.0491	13	C8H7O+
120.0808	20	C8H10N+
121.0282	72	C7H5O2+
121.065	35	C8H9O+
122.0361	162	C7H6O2+
123.044	20	C7H7O2+
124.0518	91	C7H8O2+
128.0623	19	C10H8+
129.0695	26	C10H9+
130.065	411	C9H8N+
131.0729	999	C9H9N+
132.0443	38	C8H6NO+
132.0568	22	C9H8O+
132.0809	54	C9H10N+
133.0519	17	C8H7NO+
133.0651	8	C9H9O+
134.0363	15	C8H6O2+
135.0436	11	C8H7O2+
135.0807	7	C9H11O+
137.0232	223	C7H5O3+
139.0752	122	C8H11O2+
142.065	80	C10H8N+
143.0729	480	C10H9N+
144.0568	24	C10H8O+
144.0809	100	C10H10N+
145.0521	47	C9H7NO+
145.0647	11	C10H9O+
145.0886	36	C10H11N+
146.0599	117	C9H8NO+
146.0964	16	C10H12N+
147.0679	42	C9H9NO+
147.0802	37	C10H11O+
148.0756	21	C9H10NO+
151.0389	169	C8H7O3+
152.0467	277	C8H8O3+
154.0652	42	C11H8N+
155.0598	22	C10H7N2+
155.0729	45	C11H9N+
156.0805	37	C11H10N+
157.0883	37	C11H11N+
158.06	127	C10H8NO+
159.0677	760	C10H9NO+
160.076	95	C10H10NO+
161.0838	25	C10H11NO+
162.0915	10	C10H12NO+
167.0727	42	C12H9N+
168.0808	44	C12H10N+
169.0526	7	C11H7NO+
169.0886	12	C12H11N+
170.0601	93	C11H8NO+
171.0681	26	C11H9NO+
172.0757	73	C11H10NO+
173.0835	92	C11H11NO+
174.0912	477	C11H12NO+
175.0953	9	C6H13N3O3+
180.0808	39	C13H10N+
181.0893	34	C13H11N+
182.0601	26	C12H8NO+
182.0957	12	C13H12N+
183.0674	25	C12H9NO+
184.0361	13	C8H8O5+
184.0753	72	C12H10NO+
184.0992	11	C12H12N2+
185.0835	31	C12H11NO+
186.0913	43	C12H12NO+
187.1001	8	C12H13NO+
191.0735	19	C14H9N+
192.081	40	C14H10N+
193.0882	28	C14H11N+
194.0955	32	C14H12N+
195.066	82	C10H11O4+
195.9636	8	C7O7+
196.0758	33	C13H10NO+
197.0829	23	C13H11NO+
198.0909	34	C13H12NO+
199.0868	49	C12H11N2O+
200.1073	8	C13H14NO+
204.0803	45	C15H10N+
205.0878	30	C15H11N+
208.0759	36	C14H10NO+
208.0994	14	C14H12N2+
209.0834	20	C14H11NO+
210.0908	48	C14H12NO+
211.0959	8	C11H15O4+
217.0884	44	C16H11N+
218.0965	50	C16H12N+
219.1036	20	C16H13N+
220.0753	37	C15H10NO+
220.1111	12	C16H14N+
221.0828	30	C15H11NO+
222.0904	42	C15H12NO+
222.1156	13	C15H14N2+
230.096	22	C17H12N+
231.1046	22	C17H13N+
232.0763	21	C16H10NO+
232.1103	16	C14H16O3+
233.0828	22	C16H11NO+
233.1199	11	C17H15N+
234.091	47	C16H12NO+
235.0958	18	C13H15O4+
237.103	22	C15H13N2O+
239.1172	10	C15H15N2O+
242.0957	8	C18H12N+
244.1122	13	C18H14N+
245.0837	13	C17H11NO+
246.091	52	C17H12NO+
247.0987	33	C17H13NO+
248.1061	23	C17H14NO+
249.1021	28	C16H13N2O+
250.0861	8	C16H12NO2+
250.1109	19	C16H14N2O+
251.1176	58	C16H15N2O+
258.0921	17	C18H12NO+
260.1072	42	C18H14NO+
262.1228	28	C18H16NO+
272.1094	10	C9H20O9+
275.1157	5	C15H17NO4+
397.2247	8	C24H31NO4+
448.207	13	C24H32O8+
