Mass spectrum: Chlorothalonil TP SYN548581; LC-ESI-QFT; MS2; CE: 180%; R=15000; [M+H]+
Name: Chlorothalonil TP SYN548581
Name: 4-carbamoyl-2,3,5-trichloro-6-cyanobenzenesulfonic acid
Formula: C8H3Cl3N2O4S
Exact mass: 327.8879
SMILES: NC(=O)C1=C(Cl)C(Cl)=C(C(C#N)=C1Cl)S(O)(=O)=O
InChI: InChI=1S/C8H3Cl3N2O4S/c9-4-2(1-12)7(18(15,16)17)6(11)5(10)3(4)8(13)14/h(H2,13,14)(H,15,16,17)
Instrument: Orbitrap Exploris 240 Thermo Scientific
Instrument type: LC-ESI-QFT
Ms type: MS2
Ion mode: POSITIVE
Ionization: ESI
Fragmentation mode: HCD
Collision energy: 180 % (nominal)
Resolution: 15000
Column name: Atlantis C18 3um, 3.0x150mm, Waters
Retention time: 10.461 min
Base peak: 132.9582
Precursor m/z: 328.8952
Precursor type: [M+H]+
Precursor intensity: 4062616.5
m/z	relative intensity	assigned
52.0183	70	C3H2N+
61.0073	328	C5H+
61.9793	160	CHClN+
62.0151	56	C5H2+
62.9633	234	CClO+
70.9684	83	C3Cl+
71.9762	272	C3HCl+
72.9839	543	C3H2Cl+
73.9793	82	C2HClN+
75.0103	463	C5HN+
76.0183	232	C5H2N+
82.9451	688	CHCl2+
83.9762	240	C4HCl+
85.9793	124	C3HClN+
86.0024	179	C6N+
86.9632	93	C3ClO+
87.0105	303	C6HN+
88.0182	438	C6H2N+
94.9685	287	C5Cl+
95.9762	999	C5HCl+
96.9715	143	C4ClN+
96.9836	236	C5H2Cl+
97.9794	217	C4HClN+
99.0103	87	C7HN+
106.9451	872	C3HCl2+
107.9405	229	C2Cl2N+
107.9762	131	C6HCl+
109.9795	190	C5HClN+
117.9376	101	C4Cl2+
120.9713	280	C6ClN+
121.9792	294	C6HClN+
122.9868	69	C6H2ClN+
123.9952	86	C6H3ClN+
129.9373	317	C5Cl2+
130.9451	125	C5HCl2+
131.9405	73	C4Cl2N+
132.9714	391	C7ClN+
141.9371	322	C6Cl2+
