Mass spectrum: S-Methoprene; LC-ESI-QFT; MS2; CE: 30%; R=17500; [M+H]+
Name: S-Methoprene
Name: (+)-Methoprene;(7S)-Methoprene;ZR 2458
Name: propan-2-yl 11-methoxy-3,7,11-trimethyldodeca-2,4-dienoate
Formula: C19H34O3
Exact mass: 310.2508
SMILES: CC(C)OC(=O)C=C(C)C=CCC(C)CCCC(C)(C)OC
InChI: InChI=1S/C19H34O3/c1-15(2)22-18(20)14-17(4)11-8-10-16(3)12-9-13-19(5,6)21-7/h8,11,14-16H,9-10,12-13H2,1-7H3
Instrument: Exploris 240 Orbitrap Thermo Scientific
Instrument type: LC-ESI-QFT
Ms type: MS2
Ion mode: POSITIVE
Ionization: ESI
Fragmentation mode: HCD
Collision energy: 30 % (nominal)
Resolution: 17500
Column name: XBridge C18 3.5um, 2.1x50mm, Waters
Retention time: 16.124 min
Base peak: 279.2317
Precursor m/z: 311.2581
Precursor type: [M+H]+
m/z	relative intensity	assigned
57.07	30	C4H9+
69.0699	133	C5H9+
79.0543	21	C6H7+
81.0699	241	C6H9+
83.0854	96	C6H11+
85.0648	20	C5H9O+
93.0699	48	C7H9+
95.0489	26	C6H7O+
95.0855	239	C7H11+
97.0652	16	C6H9O+
97.101	98	C7H13+
107.0853	107	C8H11+
109.1011	212	C8H13+
111.0808	18	C7H11O+
121.1011	166	C9H13+
123.1168	104	C9H15+
125.0596	83	C7H9O2+
127.0757	68	C7H11O2+
135.0804	24	C9H11O+
135.1168	276	C10H15+
137.0962	24	C9H13O+
137.1324	397	C10H17+
139.0753	96	C8H11O2+
145.1011	16	C11H13+
149.1327	54	C11H17+
155.1069	29	C9H15O2+
163.1115	116	C11H15O+
167.1065	57	C10H15O2+
177.1635	162	C13H21+
181.1225	114	C11H17O2+
191.1794	999	C14H23+
201.1642	89	C15H21+
219.1742	228	C15H23O+
237.1845	100	C15H25O2+
