Mass spectrum: Nitrazepam; LC-ESI-QFT; MS2; CE: 120; R=35000; [M+H]+
Name: Nitrazepam
Name: 7-nitro-5-phenyl-1,3-dihydro-1,4-benzodiazepin-2-one
Formula: C15H11N3O3
Exact mass: 281.08004
SMILES: C1C(=O)NC2=C(C=C(C=C2)[N+](=O)[O-])C(=N1)C3=CC=CC=C3
InChI: InChI=1S/C15H11N3O3/c19-14-9-16-15(10-4-2-1-3-5-10)12-8-11(18(20)21)6-7-13(12)17-14/h1-8H,9H2,(H,17,19)
Instrument: Q Exactive Plus Orbitrap Thermo Scientific
Instrument type: LC-ESI-QFT
Ms type: MS2
Ion mode: POSITIVE
Ionization: ESI
Fragmentation mode: HCD
Collision energy: 120 (nominal)
Resolution: 35000
Column name: XBridge C18 3.5um, 2.1x50mm, Waters
Retention time: 7.7 min
Base peak: 282.0866
Precursor m/z: 282.0873
Precursor type: [M+H]+
m/z	relative intensity	assigned
50.0151	25	C4H2+
51.0229	17	C4H3+
52.0182	5	C3H2N+
52.0307	5	C4H4+
53.0386	58	C4H5+
54.0338	2	C3H4N+
55.0178	4	C3H3O+
62.0151	14	C5H2+
63.0228	13	C5H3+
64.0307	5	C5H4+
65.0386	52	C5H5+
66.01	1	C4H2O+
66.0464	27	C5H6+
67.0416	1	C4H5N+
74.0149	1	C6H2+
75.0229	14	C6H3+
76.0181	3	C5H2N+
76.0307	64	C6H4+
77.0385	133	C6H5+
78.0338	23	C5H4N+
78.0464	58	C6H6+
79.0178	1	C5H3O+
79.0416	30	C5H5N+
79.0542	4	C6H7+
80.0132	2	C4H2NO+
80.0495	3	C5H6N+
81.0335	9	C5H5O+
89.0258	7	C6H3N+
89.0385	58	C7H5+
90.0339	10	C6H4N+
90.0465	13	C7H6+
91.0417	7	C6H5N+
91.0542	145	C7H7+
92.0256	1	C6H4O+
92.0369	4	C5H4N2+
92.0494	7	C6H6N+
93.0573	11	C6H7N+
94.0413	5	C6H6O+
95.0491	187	C6H7O+
96.0444	37	C5H6NO+
102.0338	25	C7H4N+
102.0463	6	C8H6+
103.0416	127	C7H5N+
103.0542	12	C8H7+
104.0494	333	C7H6N+
105.0447	133	C6H5N2+
105.0571	7	C7H7N+
106.065	2	C7H8N+
113.0384	3	C9H5+
114.0339	1	C8H4N+
114.0464	5	C9H6+
115.0542	56	C9H7+
116.0495	46	C8H6N+
116.062	5	C9H8+
117.0573	33	C8H7N+
118.0525	4	C7H6N2+
120.0445	12	C7H6NO+
121.0395	6	C6H5N2O+
125.0386	5	C10H5+
126.0465	14	C10H6+
127.0542	25	C10H7+
128.0494	7	C9H6N+
128.062	56	C10H8+
129.0447	201	C8H5N2+
130.04	62	C7H4N3+
130.0526	33	C8H6N2+
130.0652	6	C9H8N+
131.0605	10	C8H7N2+
132.0571	1	C9H8O+
133.0395	1	C7H5N2O+
134.06	1	C8H8NO+
135.0315	6	C7H5NO2+
138.0464	3	C11H6+
139.0542	61	C11H7+
140.0495	95	C10H6N+
140.0619	25	C11H8+
141.0574	11	C10H7N+
141.0698	19	C11H9+
142.0652	1	C10H8N+
143.0729	7	C10H9N+
145.0648	24	C10H9O+
146.0602	3	C9H8NO+
147.0554	3	C8H7N2O+
150.0465	11	C12H6+
151.0542	71	C12H7+
152.0621	999	C12H8+
153.0573	39	C11H7N+
153.0699	472	C12H9+
154.0651	87	C11H8N+
155.0603	79	C10H7N2+
155.0729	9	C11H9N+
156.0808	7	C11H10N+
157.0398	5	C9H5N2O+
163.0542	195	C13H7+
164.0499	24	C12H6N+
164.062	74	C13H8+
165.0577	15	C12H7N+
165.0699	230	C13H9+
166.0651	69	C12H8N+
166.0777	4	C13H10+
167.0729	117	C12H9N+
168.057	28	C12H8O+
168.0681	16	C11H8N2+
168.0807	16	C12H10N+
169.0648	143	C12H9O+
170.06	15	C11H8NO+
176.0623	4	C14H8+
177.0573	43	C13H7N+
178.0651	178	C13H8N+
179.0607	84	C12H7N2+
179.0729	240	C13H9N+
180.0807	832	C13H10N+
181.0758	10	C12H9N2+
182.06	9	C12H8NO+
183.068	12	C12H9NO+
183.0801	1	C13H11O+
184.0755	1	C12H10NO+
185.0468	1	C11H7NO2+
188.0494	5	C14H6N+
189.0573	20	C14H7N+
190.0651	658	C14H8N+
191.0609	6	C13H7N2+
191.0729	120	C14H9N+
192.0681	80	C13H8N2+
192.0808	28	C14H10N+
193.0522	5	C13H7NO+
193.0762	12	C13H9N2+
193.0887	14	C14H11N+
194.0601	13	C13H8NO+
194.0839	4	C13H10N2+
195.092	7	C13H11N2+
196.0517	5	C13H8O2+
196.0756	13	C13H10NO+
204.0555	3	C13H6N3+
205.0761	358	C14H9N2+
206.0839	236	C14H10N2+
207.0917	98	C14H11N2+
208.0758	2	C14H10NO+
211.0629	17	C13H9NO2+
215.0596	1	C15H7N2+
216.0683	5	C15H8N2+
217.0762	1	C15H9N2+
221.0466	1	C14H7NO2+
221.0709	3	C14H9N2O+
