Mass spectrum: Dimethyl-phthalate; LC-ESI-QFT; MS2; CE: 150; R=35000; [M+H]+
Name: Dimethyl-phthalate
Name: Dimethyl phthalate
Name: Dimethyl benzene-1,2-dicarboxylate
Formula: C10H10O4
Exact mass: 194.05791
SMILES: COC(=O)C1=CC=CC=C1C(=O)OC
InChI: InChI=1S/C10H10O4/c1-13-9(11)7-5-3-4-6-8(7)10(12)14-2/h3-6H,1-2H3
Instrument: Q Exactive Plus Orbitrap Thermo Scientific
Instrument type: LC-ESI-QFT
Ms type: MS2
Ion mode: POSITIVE
Ionization: ESI
Fragmentation mode: HCD
Collision energy: 150 (nominal)
Resolution: 35000
Column name: XBridge C18 3.5um, 2.1x50mm, Waters
Retention time: 6.5 min
Base peak: 163.0386
Precursor m/z: 195.0652
Precursor type: [M+H]+
m/z	relative intensity	assigned
50.0151	279	C4H2+
51.023	497	C4H3+
52.0308	1	C4H4+
53.0022	7	C3HO+
53.0386	130	C4H5+
54.0464	51	C4H6+
55.0179	8	C3H3O+
61.0073	4	C5H+
62.0151	24	C5H2+
63.023	626	C5H3+
64.0308	469	C5H4+
65.0022	13	C4HO+
65.0386	20	C5H5+
66.0101	1	C4H2O+
66.0464	2	C5H6+
67.0543	5	C5H7+
67.9892	1	C3O2+
68.9971	2	C3HO2+
74.0152	1	C6H2+
75.0229	6	C6H3+
76.0308	1	C6H4+
77.0385	566	C6H5+
79.0542	5	C6H7+
80.0257	6	C5H4O+
81.0335	38	C5H5O+
91.0542	6	C7H7+
92.0257	999	C6H4O+
92.0369	75	C5H4N2+
94.0413	8	C6H6O+
95.0492	426	C6H7O+
105.0336	17	C7H5O+
105.0448	292	C6H5N2+
106.0418	2	C7H6O+
119.0126	2	C7H3O2+
120.0206	5	C7H4O2+
133.0286	1	C8H5O2+
