Mass spectrum: Thiamethoxam; LC-ESI-ITFT; MS2; CE: 60%; R=15000; [M+H]+
Name: Thiamethoxam
Name: 3-((2-Chloro-5-thiazolyl)methyl)tetrahydro-5-methyl-N-nitro-4H-1,3,5-oxadiazin-4-imine
Formula: C8H10ClN5O3S
Exact mass: 291.0193
SMILES: Clc1ncc(s1)CN2\C(=N\[N+]([O-])=O)N(C)COC2
InChI: InChI=1S/C8H10ClN5O3S/c1-12-4-17-5-13(8(12)11-14(15)16)3-6-2-10-7(9)18-6/h2H,3-5H2,1H3/b11-8+
Instrument: LTQ Orbitrap XL Thermo Scientific
Instrument type: LC-ESI-ITFT
Ms type: MS2
Ion mode: POSITIVE
Ionization: ESI
Fragmentation mode: HCD
Collision energy: 60 % (nominal)
Resolution: 15000
Column name: XBridge C18 3.5um, 2.1x50mm, Waters
Retention time: 4.1 min
Base peak: 292.0274
Precursor m/z: 292.0266
Precursor type: [M+H]+
m/z	relative intensity	assigned
57.0448	3	C2H5N2+
67.0417	22	C4H5N+
69.0447	163	C3H5N2+
70.995	15	C3H3S+
81.0447	5	C4H5N2+
81.057	1	C5H7N+
82.9822	1	C3HNS+
87.9948	2	C3H3ClN+
94.0525	1	C5H6N2+
95.0603	3	C5H7N2+
96.0555	1	C4H6N3+
98.0059	18	C4H4NS+
99.0011	70	C3H3N2S+
100.0636	2	C4H8N2O+
108.0556	116	C5H6N3+
110.0712	3	C5H8N3+
112.0089	2	C4H4N2S+
112.0215	15	C5H6NS+
113.0168	14	C4H5N2S+
116.0707	1	C5H10NO2+
118.9588	1	C3H2ClNS+
121.0633	1	C6H7N3+
122.0712	241	C6H8N3+
123.079	28	C6H9N3+
124.0089	1	C5H4N2S+
124.0871	1	C6H10N3+
125.0167	97	C5H5N2S+
126.0245	4	C5H6N2S+
127.0321	1	C5H7N2S+
131.9668	999	C4H3ClNS+
132.9746	5	C4H4ClNS+
137.0822	2	C6H9N4+
138.012	40	C5H4N3S+
139.0199	1	C5H5N3S+
139.0324	16	C6H7N2S+
140.0274	3	C5H6N3S+
144.9747	6	C5H4ClNS+
145.9699	6	C4H3ClN2S+
146.9778	6	C4H4ClN2S+
147.0665	11	C7H7N4+
148.0743	2	C7H8N4+
151.0198	97	C6H5N3S+
152.0277	357	C6H6N3S+
154.0433	17	C6H8N3S+
155.0517	1	C6H9N3S+
160.9935	7	C5H6ClN2S+
165.023	12	C6H5N4S+
165.0769	4	C7H9N4O+
166.0308	2	C6H6N4S+
171.9729	4	C8N2OS+
172.9808	6	C8HN2OS+
174.9727	30	C5H4ClN2OS+
179.0386	13	C7H7N4S+
180.0464	36	C7H8N4S+
181.0542	586	C7H9N4S+
185.9885	3	C6H5ClN3S+
186.9968	2	C6H6ClN3S+
199.0647	4	C7H11N4OS+
210.0576	4	C8H10N4OS+
211.0647	94	C8H11N4OS+
215.0152	12	C7H8ClN4S+
