Mass spectrum: Aspirin; LC-ESI-QFT; MS2; CE: 30; R=35000; [M+H]+
Name: Aspirin
Name: Acetyl salicilic acid
Name: 2-acetyloxybenzoic acid
Formula: C9H8O4
Exact mass: 180.04226
SMILES: CC(=O)OC1=CC=CC=C1C(=O)O
InChI: InChI=1S/C9H8O4/c1-6(10)13-8-5-3-2-4-7(8)9(11)12/h2-5H,1H3,(H,11,12)
Instrument: Q Exactive Plus Orbitrap Thermo Scientific
Instrument type: LC-ESI-QFT
Ms type: MS2
Ion mode: POSITIVE
Ionization: ESI
Fragmentation mode: HCD
Collision energy: 30 (nominal)
Resolution: 35000
Column name: XBridge C18 3.5um, 2.1x50mm, Waters
Retention time: 20.3 min
Base peak: 391.2827
Precursor m/z: 181.0495
Precursor type: [M+H]+
m/z	relative intensity	assigned
65.0385	1	C5H5+
76.0305	1	C6H4+
77.0384	1	C6H5+
121.0281	1	C7H5O2+
133.0282	3	C8H5O2+
135.0436	1	C8H7O2+
149.0231	999	C8H5O3+
163.0386	632	C9H7O3+
167.0336	2	C8H7O4+
181.0493	4	C9H9O4+
