Mass spectrum: Ethiprole; LC-ESI-QFT; MS2; CE: 30%; R=17500; [M-H]-
Name: Ethiprole
Name: 5-amino-1-[2,6-dichloro-4-(trifluoromethyl)phenyl]-4-ethylsulfinylpyrazole-3-carbonitrile
Formula: C13H9Cl2F3N4OS
Exact mass: 395.9826
SMILES: CCS(=O)C1=C(N(N=C1C#N)C2=C(C=C(C=C2Cl)C(F)(F)F)Cl)N
InChI: InChI=1S/C13H9Cl2F3N4OS/c1-2-24(23)11-9(5-19)21-22(12(11)20)10-7(14)3-6(4-8(10)15)13(16,17)18/h3-4H,2,20H2,1H3
Instrument: Exploris 240 Orbitrap Thermo Scientific
Instrument type: LC-ESI-QFT
Ms type: MS2
Ion mode: NEGATIVE
Ionization: ESI
Fragmentation mode: HCD
Collision energy: 30 % (nominal)
Resolution: 17500
Column name: XBridge C18 3.5um, 2.1x50mm, Waters
Retention time: 8.805 min
Base peak: 394.9752
Precursor m/z: 394.9753
Precursor type: [M-H]-
m/z	relative intensity	assigned
57.9757	6	CNS-
170.0094	9	C7HF3N2-
217.9866	55	C8H2ClF3N2-
218.9942	17	C8H3ClF3N2-
233.9812	6	C11HClF2N2-
243.9898	27	C9H2ClF3N3-
245.9812	17	C9H2ClF3N2O-
249.9584	335	C8H2ClF3N2S-
261.9589	61	C9H2ClF3N2S-
277.9534	147	C9H2ClF3N2OS-
281.993	15	C11H2ClF3N4-
283.0009	9	C11H3ClF3N4-
287.9624	15	C10H2ClF3N3S-
303.9565	16	C10H2ClF3N3OS-
313.9646	248	C11H2ClF3N4S-
317.9688	173	C11H3Cl2F3N4-
329.9596	999	C11H2ClF3N4OS-
330.9672	520	C11H3ClF3N4OS-
365.9363	17	C11H3Cl2F3N4OS-
