Mass spectrum: Dimethenamid OXA; LC-ESI-ITFT; MS2; CE: 75%; R=15000; [M+H]+
Name: Dimethenamid OXA
Name: [(2,4-dimethylthiophen-3-yl)(1-methoxypropan-2-yl)amino](oxo)acetic acid
Formula: C12H17NO4S
Exact mass: 271.0878
SMILES: S(C=C1C)C(C)=C1N(C(=O)C(=O)O)C(COC)C
InChI: InChI=1S/C12H17NO4S/c1-7-6-18-9(3)10(7)13(8(2)5-17-4)11(14)12(15)16/h6,8H,5H2,1-4H3,(H,15,16)
Instrument: LTQ Orbitrap XL Thermo Scientific
Instrument type: LC-ESI-ITFT
Ms type: MS2
Ion mode: POSITIVE
Ionization: ESI
Fragmentation mode: HCD
Collision energy: 75 % (nominal)
Resolution: 15000
Column name: XBridge C18 3.5um, 2.1x50mm, Waters
Retention time: 7.5 min
Base peak: 272.0948
Precursor m/z: 272.0951
Precursor type: [M+H]+
m/z	relative intensity	assigned
65.0387	4	C5H5+
67.0542	14	C5H7+
70.995	3	C3H3S+
73.0648	71	C4H9O+
77.0386	28	C6H5+
79.0542	32	C6H7+
80.0493	4	C5H6N+
82.0651	9	C5H8N+
85.0106	14	C4H5S+
91.0541	10	C7H7+
92.0494	14	C6H6N+
93.0572	26	C6H7N+
93.0699	10	C7H9+
94.0651	101	C6H8N+
95.0492	3	C6H7O+
95.0729	50	C6H9N+
97.0106	30	C5H5S+
98.0182	4	C5H6S+
99.0262	38	C5H7S+
101.0418	5	C5H9S+
104.0495	36	C7H6N+
105.0447	10	C6H5N2+
105.0573	82	C7H7N+
106.0653	7	C7H8N+
107.0727	2	C7H9N+
107.0855	3	C8H11+
108.0807	14	C7H10N+
109.0105	9	C6H5S+
110.0602	13	C6H8NO+
111.0263	520	C6H7S+
112.0217	7	C5H6NS+
112.0341	71	C6H8S+
113.0295	17	C5H7NS+
113.042	60	C6H9S+
114.0371	3	C5H8NS+
115.0545	4	C9H7+
117.0574	5	C8H7N+
117.0699	4	C9H9+
118.065	9	C8H8N+
119.0728	9	C8H9N+
120.0443	36	C7H6NO+
120.0808	55	C8H10N+
121.0103	5	C7H5S+
121.0522	18	C7H7NO+
122.0962	6	C8H12N+
123.0137	25	C6H5NS+
124.0216	6	C6H6NS+
124.0341	13	C7H8S+
125.0297	5	C6H7NS+
125.0419	47	C7H9S+
126.0372	999	C6H8NS+
127.0211	31	C6H7OS+
127.0451	28	C6H9NS+
128.0528	21	C6H10NS+
129.0367	17	C6H9OS+
132.0807	33	C9H10N+
133.0886	48	C9H11N+
134.0964	38	C9H12N+
135.1043	45	C9H13N+
136.0216	33	C7H6NS+
136.0336	4	C8H8S+
137.0293	9	C7H7NS+
138.0372	371	C7H8NS+
139.0088	14	C6H5NOS+
139.0212	10	C7H7OS+
139.0446	4	C7H9NS+
139.0578	4	C8H11S+
140.0529	12	C7H10NS+
149.042	6	C9H9S+
150.037	14	C8H8NS+
151.045	20	C8H9NS+
151.0574	12	C9H11S+
152.0164	37	C7H6NOS+
152.0528	110	C8H10NS+
153.0242	27	C7H7NOS+
153.0607	40	C8H11NS+
154.032	160	C7H8NOS+
155.0395	5	C7H9NOS+
160.0755	3	C10H10NO+
161.0835	4	C10H11NO+
166.0685	30	C9H12NS+
167.0763	18	C9H13NS+
168.084	67	C9H14NS+
194.0637	5	C10H12NOS+
196.0789	5	C10H14NOS+
240.0684	14	C11H14NO3S+
