Mass spectrum: Ethoprop; LC-ESI-QFT; MS2; CE: 60; R=35000; [M+H]+
Name: Ethoprop
Name: 1-[ethoxy(propylsulfanyl)phosphoryl]sulfanylpropane
Formula: C8H19O2PS2
Exact mass: 242.05641
SMILES: CCCSP(=O)(OCC)SCCC
InChI: InChI=1S/C8H19O2PS2/c1-4-7-12-11(9,10-6-3)13-8-5-2/h4-8H2,1-3H3
Instrument: Q Exactive Plus Orbitrap Thermo Scientific
Instrument type: LC-ESI-QFT
Ms type: MS2
Ion mode: POSITIVE
Ionization: ESI
Fragmentation mode: HCD
Collision energy: 60 (nominal)
Resolution: 35000
Column name: XBridge C18 3.5um, 2.1x50mm, Waters
Retention time: 11.5 min
Base peak: 243.0634
Precursor m/z: 243.0637
Precursor type: [M+H]+
m/z	relative intensity	assigned
53.0022	10	C3HO+
53.9975	2	C2NO+
63.0264	7	C2H7S+
64.9786	7	H2O2P+
67.9893	4	C3O2+
77.0419	70	C3H9S+
78.9402	2	OPS+
94.9174	1	PS2+
96.9509	342	H2O2PS+
102.9768	4	C3H4PS+
110.9666	7	CH4O2PS+
112.928	41	H2OPS2+
114.9614	799	H4O3PS+
120.9872	5	C3H6OPS+
123.0204	3	C3H8O3P+
124.9823	3	C2H6O2PS+
128.977	8	CH6O3PS+
130.9386	999	H4O2PS2+
132.9718	2	C6NOP+
138.9978	17	C3H8O2PS+
148.9493	2	H6O3PS2+
154.975	3	C3H8OPS2+
158.9698	5	C2H8O2PS2+
172.9856	37	C3H10O2PS2+
