Mass spectrum: Clobazam; LC-ESI-QFT; MS2; CE: 45; R=35000; [M+H]+
Name: Clobazam
Name: 7-chloro-1-methyl-5-phenyl-1,5-benzodiazepine-2,4-dione
Formula: C16H13ClN2O2
Exact mass: 300.06656
SMILES: CN1C(=O)CC(=O)N(C2=C1C=CC(=C2)Cl)C3=CC=CC=C3
InChI: InChI=1S/C16H13ClN2O2/c1-18-13-8-7-11(17)9-14(13)19(16(21)10-15(18)20)12-5-3-2-4-6-12/h2-9H,10H2,1H3
Instrument: Q Exactive Plus Orbitrap Thermo Scientific
Instrument type: LC-ESI-QFT
Ms type: MS2
Ion mode: POSITIVE
Ionization: ESI
Fragmentation mode: HCD
Collision energy: 45 (nominal)
Resolution: 35000
Column name: XBridge C18 3.5um, 2.1x50mm, Waters
Retention time: 8.4 min
Base peak: 301.073
Precursor m/z: 301.0738
Precursor type: [M+H]+
m/z	relative intensity	assigned
68.9971	1	C3HO2+
77.0384	1	C6H5+
105.0334	10	C7H5O+
153.0212	3	C7H6ClN2+
181.0162	8	C8H6ClN2O+
182.0841	1	C12H10N2+
216.0449	4	C15H6NO+
217.0525	3	C12H10ClN2+
218.0605	4	C12H11ClN2+
223.0868	2	C14H11N2O+
224.0943	82	C14H12N2O+
228.0216	1	C13H7ClNO+
233.0839	5	C13H14ClN2+
244.0396	8	C13H9ClN2O+
259.063	999	C14H12ClN2O+
301.0737	9	C16H14ClN2O2+
