Mass spectrum: Prothioconazole-desethio; LC-ESI-QFT; MS2; CE: 60; R=35000; [M+H]+
Name: Prothioconazole-desethio
Name: 1H-1,2,4-Triazole-1-ethanol, alpha-(1-chlorocyclopropyl)-alpha-((2-chlorophenyl)methyl)-
Name: 2-(1-chloranylcyclopropyl)-1-(2-chlorophenyl)-3-(1,2,4-triazol-1-yl)propan-2-ol
Formula: C14H15Cl2N3O
Exact mass: 311.05922
SMILES: Clc1ccccc1CC(O)(C2(Cl)CC2)Cn3ncnc3
InChI: InChI=1S/C14H15Cl2N3O/c15-12-4-2-1-3-11(12)7-14(20,13(16)5-6-13)8-19-10-17-9-18-19/h1-4,9-10,20H,5-8H2
Instrument: Q Exactive Orbitrap Thermo Scientific
Instrument type: LC-ESI-QFT
Ms type: MS2
Ion mode: POSITIVE
Ionization: ESI
Fragmentation mode: HCD
Collision energy: 60 (nominal)
Resolution: 35000
Column name: XBridge C18 3.5um, 2.1x50mm, Waters
Retention time: 12.1 min
Base peak: 312.0669
Precursor m/z: 312.0665
Precursor type: [M+H]+
m/z	relative intensity	assigned
57.0337	1	C3H5O+
65.0387	8	C5H5+
67.0543	2	C5H7+
70.04	999	C2H4N3+
74.9996	3	C3H4Cl+
83.0492	1	C5H7O+
89.0152	2	C4H6Cl+
89.0385	11	C7H5+
90.0464	1	C7H6+
91.0542	2	C7H7+
95.0492	2	C6H7O+
98.9995	3	C5H4Cl+
101.0154	1	C5H6Cl+
103.0542	18	C8H7+
113.0152	1	C6H6Cl+
115.0543	13	C9H7+
116.0621	15	C9H8+
119.0492	2	C8H7O+
125.0153	537	C7H6Cl+
128.062	6	C10H8+
129.0699	7	C10H9+
130.0778	4	C10H10+
137.0153	5	C8H6Cl+
138.9946	1	C7H4ClO+
139.0309	23	C8H8Cl+
141.0699	6	C11H9+
142.0778	17	C11H10+
143.0604	1	C9H7N2+
143.0857	2	C11H11+
144.0934	5	C11H12+
149.0153	7	C9H6Cl+
151.0309	16	C9H8Cl+
152.0621	5	C12H8+
153.0699	20	C12H9+
154.0777	32	C12H10+
155.0605	2	C10H7N2+
155.0856	1	C12H11+
158.9763	3	C7H5Cl2+
162.023	5	C10H7Cl+
163.0309	5	C10H8Cl+
165.0467	1	C10H10Cl+
169.0761	1	C11H9N2+
177.0467	3	C11H10Cl+
189.0468	5	C12H10Cl+
