Mass spectrum: Sulfanilic acid; LC-ESI-ITFT; MS2; CE: 75%; R=7500; [M+H]+
Name: Sulfanilic acid
Name: 4-aminobenzenesulfonic acid
Formula: C6H7NO3S
Exact mass: 173.0147
SMILES: S(c1ccc(N)cc1)(O)(=O)=O
InChI: InChI=1S/C6H7NO3S/c7-5-1-3-6(4-2-5)11(8,9)10/h1-4H,7H2,(H,8,9,10)
Instrument: LTQ Orbitrap XL Thermo Scientific
Instrument type: LC-ESI-ITFT
Ms type: MS2
Ion mode: POSITIVE
Ionization: ESI
Fragmentation mode: HCD
Collision energy: 75 % (nominal)
Resolution: 7500
Column name: XBridge C18 3.5um, 2.1x50mm, Waters
Retention time: 0.9 min
Base peak: 174.0217
Precursor m/z: 174.0219
Precursor type: [M+H]+
m/z	relative intensity	assigned
65.0386	56	C5H5+
66.0465	4	C5H6+
68.0495	10	C4H6N+
79.0177	1	C5H3O+
80.0493	5	C5H6N+
92.0494	127	C6H6N+
93.0573	999	C6H7N+
94.0649	3	C6H8N+
108.0443	92	C6H6NO+
109.0281	6	C6H5O2+
109.0528	2	C6H7NO+
110.0601	25	C6H8NO+
125.0471	40	C6H7NO2+
174.022	50	C6H8NO3S+
