Mass spectrum: Aminocarb; LC-ESI-QFT; MS2; CE: 60%; R=17500; [M+H]+
Name: Aminocarb
Name: [4-(dimethylamino)-3-methylphenyl] N-methylcarbamate
Formula: C11H16N2O2
Exact mass: 208.1212
SMILES: CC1=C(C=CC(=C1)OC(=O)NC)N(C)C
InChI: InChI=1S/C11H16N2O2/c1-8-7-9(15-11(14)12-2)5-6-10(8)13(3)4/h5-7H,1-4H3,(H,12,14)
Instrument: Exploris 240 Orbitrap Thermo Scientific
Instrument type: LC-ESI-QFT
Ms type: MS2
Ion mode: POSITIVE
Ionization: ESI
Fragmentation mode: HCD
Collision energy: 60 % (nominal)
Resolution: 17500
Column name: XBridge C18 3.5um, 2.1x50mm, Waters
Retention time: 1.684 min
Base peak: 209.1283
Precursor m/z: 209.1285
Precursor type: [M+H]+
m/z	relative intensity	assigned
122.0603	10	C7H8NO+
137.0835	999	C8H11NO+
152.1069	277	C9H14NO+
