Mass spectrum: Metolachlor ESA; LC-ESI-ITFT; MS2; CE: 60%; R=7500; [M+H]+
Name: Metolachlor ESA
Name: 2-[(2-Ethyl-6-methylphenyl)(1-methoxy-2-propanyl)amino]-2-oxoethanesulfonic acid
Formula: C15H23NO5S
Exact mass: 329.1297
SMILES: O=S(O)(CC(N(C(C)COC)C1=C(CC)C=CC=C1C)=O)=O
InChI: InChI=1S/C15H23NO5S/c1-5-13-8-6-7-11(2)15(13)16(12(3)9-21-4)14(17)10-22(18,19)20/h6-8,12H,5,9-10H2,1-4H3,(H,18,19,20)
Instrument: LTQ Orbitrap XL Thermo Scientific
Instrument type: LC-ESI-ITFT
Ms type: MS2
Ion mode: POSITIVE
Ionization: ESI
Fragmentation mode: HCD
Collision energy: 60 % (nominal)
Resolution: 7500
Column name: XBridge C18 3.5um, 2.1x50mm, Waters
Retention time: 7.8 min
Base peak: 374.1017
Precursor m/z: 330.137
Precursor type: [M+H]+
m/z	relative intensity	assigned
73.0649	78	C4H9O+
132.0804	51	C9H10N+
134.0965	69	C9H12N+
136.1124	51	C9H14N+
144.0801	26	C10H10N+
146.0963	125	C10H12N+
158.0961	34	C11H12N+
159.1041	31	C11H13N+
160.112	625	C11H14N+
174.1276	363	C12H16N+
175.1354	39	C12H17N+
176.1433	231	C12H18N+
188.1071	45	C12H14NO+
202.1225	999	C13H16NO+
298.1105	70	C14H20NO4S+
