Mass spectrum: Alachlor; LC-ESI-ITFT; MS2; CE: 90%; R=7500; [M+H]+
Name: Alachlor
Name: 2-chloranyl-N-(2,6-diethylphenyl)-N-(methoxymethyl)ethanamide
Formula: C14H20ClNO2
Exact mass: 269.1177
SMILES: CCC1=CC=CC(CC)=C1N(COC)C(=O)CCl
InChI: InChI=1S/C14H20ClNO2/c1-4-11-7-6-8-12(5-2)14(11)16(10-18-3)13(17)9-15/h6-8H,4-5,9-10H2,1-3H3
Instrument: LTQ Orbitrap XL Thermo Scientific
Instrument type: LC-ESI-ITFT
Ms type: MS2
Ion mode: POSITIVE
Ionization: ESI
Fragmentation mode: HCD
Collision energy: 90 % (nominal)
Resolution: 7500
Column name: XBridge C18 3.5um, 2.1x50mm, Waters
Retention time: 11.7 min
Base peak: 292.1079
Precursor m/z: 270.1255
Precursor type: [M+H]+
m/z	relative intensity	assigned
90.0105	111	C3H5ClN+
91.0545	65	C7H7+
105.0699	90	C8H9+
117.0573	79	C8H7N+
118.0652	103	C8H8N+
119.073	83	C8H9N+
120.0811	59	C8H10N+
130.0648	58	C9H8N+
131.0729	55	C9H9N+
132.0807	926	C9H10N+
133.0889	73	C9H11N+
134.0969	48	C9H12N+
144.0809	112	C10H10N+
146.0966	312	C10H12N+
147.1042	999	C10H13N+
158.0961	53	C11H12N+
162.1277	342	C11H16N+
163.1116	45	C11H15O+
