Mass spectrum: Difenoconazole; LC-ESI-ITFT; MS2; CE: 35%; R=30000; [M+H]+
Name: Difenoconazole
Name: 1-[[2-[2-chloranyl-4-(4-chloranylphenoxy)phenyl]-4-methyl-1,3-dioxolan-2-yl]methyl]-1,2,4-triazole
Formula: C19H17Cl2N3O3
Exact mass: 405.0647
SMILES: Clc4ccc(Oc1ccc(c(Cl)c1)C2(OCC(O2)C)Cn3ncnc3)cc4
InChI: InChI=1S/C19H17Cl2N3O3/c1-13-9-25-19(27-13,10-24-12-22-11-23-24)17-7-6-16(8-18(17)21)26-15-4-2-14(20)3-5-15/h2-8,11-13H,9-10H2,1H3
Instrument: LTQ Orbitrap XL Thermo Scientific
Instrument type: LC-ESI-ITFT
Ms type: MS2
Ion mode: POSITIVE
Ionization: ESI
Fragmentation mode: CID
Collision energy: 35 % (nominal)
Resolution: 30000
Column name: XBridge C18 3.5um, 2.1x50mm, Waters
Retention time: 14.1 min
Base peak: 406.0724
Precursor m/z: 406.072
Precursor type: [M+H]+
m/z	relative intensity	assigned
139.0308	1	C8H8Cl+
164.0387	1	C10H9Cl+
199.0156	1	C9H8ClO3+
251.0024	744	C13H9Cl2O+
256.0649	1	C16H13ClO+
263.0023	1	C14H9Cl2O+
273.0312	1	C15H10ClO3+
291.0337	75	C16H13Cl2O+
301.0626	1	C17H14ClO3+
309.0078	2	C15H11Cl2O3+
309.0443	3	C16H15Cl2O2+
323.0233	2	C16H13Cl2O3+
337.039	999	C15H13Cl2N3O2+
348.029	1	C19H9ClN2O3+
