Mass spectrum: Benzophenone-3; LC-ESI-ITFT; MS2; CE: 90%; R=15000; [M+H]+
Name: Benzophenone-3
Name: 2-Hydroxy-4-methoxybenzophenone
Name: (2-hydroxy-4-methoxy-phenyl)-phenyl-methanone
Formula: C14H12O3
Exact mass: 228.0786
SMILES: c1(C(c2ccccc2)=O)c(cc(OC)cc1)O
InChI: InChI=1S/C14H12O3/c1-17-11-7-8-12(13(15)9-11)14(16)10-5-3-2-4-6-10/h2-9,15H,1H3
Instrument: LTQ Orbitrap XL Thermo Scientific
Instrument type: LC-ESI-ITFT
Ms type: MS2
Ion mode: POSITIVE
Ionization: ESI
Fragmentation mode: HCD
Collision energy: 90 % (nominal)
Resolution: 15000
Column name: XBridge C18 3.5um, 2.1x50mm, Waters
Retention time: 12.1 min
Base peak: 229.0859
Precursor m/z: 229.0859
Precursor type: [M+H]+
m/z	relative intensity	assigned
51.0229	4	C4H3+
52.0307	3	C4H4+
53.0385	66	C4H5+
55.0178	9	C3H3O+
65.0386	55	C5H5+
67.0542	33	C5H7+
68.9971	12	C3HO2+
77.0386	154	C6H5+
79.0177	2	C5H3O+
80.0256	16	C5H4O+
81.0334	13	C5H5O+
93.0334	7	C6H5O+
95.0491	733	C6H7O+
98.0362	5	C5H6O2+
105.0335	446	C7H5O+
105.0446	135	C6H5N2+
108.0205	224	C6H4O2+
111.044	5	C6H7O2+
121.0396	14	C6H5N2O+
123.0441	75	C7H7O2+
136.0153	14	C7H4O3+
139.0542	5	C11H7+
140.062	14	C11H8+
141.0546	6	C7H9O3+
151.0389	999	C8H7O3+
152.0623	5	C12H8+
168.057	17	C12H8O+
