Mass spectrum: Pantoprazole; LC-ESI-ITFT; MS2; CE: 60%; R=7500; [M+H]+
Name: Pantoprazole
Name: 6-(difluoromethoxy)-2-[(3,4-dimethoxy-2-pyridinyl)methylsulfinyl]-1H-benzimidazole
Formula: C16H15F2N3O4S
Exact mass: 383.0751
SMILES: COC1=C(C(=NC=C1)CS(=O)C2=NC3=C(N2)C=C(C=C3)OC(F)F)OC
InChI: InChI=1S/C16H15F2N3O4S/c1-23-13-5-6-19-12(14(13)24-2)8-26(22)16-20-10-4-3-9(25-15(17)18)7-11(10)21-16/h3-7,15H,8H2,1-2H3,(H,20,21)
Instrument: LTQ Orbitrap XL Thermo Scientific
Instrument type: LC-ESI-ITFT
Ms type: MS2
Ion mode: POSITIVE
Ionization: ESI
Fragmentation mode: HCD
Collision energy: 60 % (nominal)
Resolution: 7500
Column name: XBridge C18 3.5um, 2.1x50mm, Waters
Retention time: 6.6 min
Base peak: 384.0836
Precursor m/z: 384.0824
Precursor type: [M+H]+
m/z	relative intensity	assigned
92.0493	11	C6H6N+
93.0573	13	C6H7N+
94.0652	6	C6H8N+
107.0729	58	C7H9N+
108.0444	12	C6H6NO+
110.06	15	C6H8NO+
122.0601	55	C7H8NO+
123.0678	5	C7H9NO+
125.047	3	C6H7NO2+
136.0393	42	C7H6NO2+
138.055	999	C7H8NO2+
152.0706	67	C8H10NO2+
153.9958	11	C6H4NO2S+
154.0495	8	C5H10F2NS+
156.0117	4	C6H6NO2S+
165.012	11	C7H5N2OS+
167.0034	32	C7H5NO2S+
168.0655	8	C6H12F2NS+
182.0273	16	C8H8NO2S+
200.0377	90	C8H10NO3S+
