Mass spectrum: Ranitidine-S-oxide; LC-ESI-ITFT; MS2; CE: 15%; R=15000; [M+H]+
Name: Ranitidine-S-oxide
Name: 1,1-Ethenediamine, N-(2-(((5-((dimethylamino)methyl)-2-furanyl)methyl)sulfinyl)ethyl)-N'-methyl-2-nitro-
Formula: C13H22N4O4S
Exact mass: 330.1362
SMILES: [O-][N+](=O)\C=C(/NC)NCCS(=O)Cc1oc(cc1)CN(C)C
InChI: InChI=1S/C13H22N4O4S/c1-14-13(9-17(18)19)15-6-7-22(20)10-12-5-4-11(21-12)8-16(2)3/h4-5,9,14-15H,6-8,10H2,1-3H3/b13-9+
Instrument: LTQ Orbitrap XL Thermo Scientific
Instrument type: LC-ESI-ITFT
Ms type: MS2
Ion mode: POSITIVE
Ionization: ESI
Fragmentation mode: HCD
Collision energy: 15 % (nominal)
Resolution: 15000
Column name: XBridge C18 3.5um, 2.1x50mm, Waters
Retention time: 0.8 min
Base peak: 331.1445
Precursor m/z: 331.1435
Precursor type: [M+H]+
m/z	relative intensity	assigned
58.0651	5	C3H8N+
68.0496	3	C4H6N+
82.0652	3	C5H8N+
94.0412	16	C6H6O+
95.0491	10	C6H7O+
108.0807	2	C7H10N+
110.0964	68	C7H12N+
116.9813	1	C3HO5+
130.0558	18	C5H10N2S+
138.0913	172	C8H12NO+
139.0988	4	C8H13NO+
140.1067	2	C8H14NO+
143.0161	38	C6H7O2S+
156.1019	34	C8H14NO2+
176.0488	25	C13H6N+
188.0739	43	C8H14NO2S+
192.0438	9	C11H4N4+
222.082	4	C11H14N2OS+
268.075	5	C11H14N3O3S+
286.0856	7	C11H16N3O4S+
313.1334	1	C13H21N4O3S+
331.1437	999	C13H23N4O4S+
