Mass spectrum: Carbaryl; LC-ESI-QFT; MS2; CE: 90; R=35000; [M+H]+
Name: Carbaryl
Name: Carbaril
Name: N-methylcarbamic acid 1-naphthalenyl ester
Formula: C12H11NO2
Exact mass: 201.07898
SMILES: c12c(OC(NC)=O)cccc1cccc2
InChI: InChI=1S/C12H11NO2/c1-13-12(14)15-11-8-4-6-9-5-2-3-7-10(9)11/h2-8H,1H3,(H,13,14)
Instrument: Q Exactive Orbitrap Thermo Scientific
Instrument type: LC-ESI-QFT
Ms type: MS2
Ion mode: POSITIVE
Ionization: ESI
Fragmentation mode: HCD
Collision energy: 90 (nominal)
Resolution: 35000
Column name: XBridge C18 3.5um, 2.1x50mm, Waters
Retention time: 7.6 min
Base peak: 145.0649
Precursor m/z: 202.0863
Precursor type: [M+H]+
m/z	relative intensity	assigned
58.0287	30	C2H4NO+
65.0385	2	C5H5+
91.0542	145	C7H7+
95.0491	18	C6H7O+
103.0542	38	C8H7+
115.0541	330	C9H7+
116.0619	18	C9H8+
117.0697	610	C9H9+
126.0464	11	C10H6+
127.0541	140	C10H7+
128.0619	4	C10H8+
131.0489	1	C9H7O+
144.057	16	C10H8O+
145.0648	999	C10H9O+
155.0602	521	C10H7N2+
156.0568	3	C11H8O+
