Mass spectrum: Lansoprazole; LC-ESI-QFT; MS2; CE: 75; R=35000; [M+H]+
Name: Lansoprazole
Name: 2-[[3-methyl-4-(2,2,2-trifluoroethoxy)pyridin-2-yl]methylsulfinyl]-1H-benzimidazole
Formula: C16H14F3N3O2S
Exact mass: 369.07588
SMILES: Cc1c(ccnc1CS(=O)c2[nH]c3ccccc3n2)OCC(F)(F)F
InChI: InChI=1S/C16H14F3N3O2S/c1-10-13(20-7-6-14(10)24-9-16(17,18)19)8-25(23)15-21-11-4-2-3-5-12(11)22-15/h2-7H,8-9H2,1H3,(H,21,22)
Instrument: Q Exactive Plus Orbitrap Thermo Scientific
Instrument type: LC-ESI-QFT
Ms type: MS2
Ion mode: POSITIVE
Ionization: ESI
Fragmentation mode: HCD
Collision energy: 75 (nominal)
Resolution: 35000
Column name: XBridge C18 3.5um, 2.1x50mm, Waters
Retention time: 7.4 min
Base peak: 370.0829
Precursor m/z: 370.0832
Precursor type: [M+H]+
m/z	relative intensity	assigned
53.0385	3	C4H5+
65.0385	31	C5H5+
66.0464	22	C5H6+
67.0416	2	C4H5N+
67.0542	6	C5H7+
77.0383	1	CH4FN3+
78.0337	1	C5H4N+
79.0415	13	C5H5N+
79.0542	47	C6H7+
80.0494	27	C5H6N+
80.062	2	C6H8+
81.0573	16	C5H7N+
90.0339	4	C6H4N+
92.0494	73	C6H6N+
93.0573	22	C6H7N+
94.0651	28	C6H8N+
95.0365	2	C5H5NO+
95.0491	5	C6H7O+
96.0027	8	C5H4S+
96.0443	4	C5H6NO+
99.0138	1	C4H5NS+
105.0446	7	C6H5N2+
106.0651	273	C7H8N+
107.0729	838	C7H9N+
108.0807	238	C7H10N+
109.0522	24	C6H7NO+
110.0058	3	C5H4NS+
110.0401	1	C6H5FN+
110.06	9	C6H8NO+
111.0314	1	C5H5NO2+
118.0523	2	C7H6N2+
118.0651	14	C8H8N+
119.0603	845	C7H7N2+
120.0444	13	C7H6NO+
121.0521	31	C7H7NO+
122.0058	60	C6H4NS+
122.06	308	C7H8NO+
123.0136	43	C6H5NS+
124.0215	4	C6H6NS+
124.0392	10	C6H6NO2+
124.0759	1	C7H10NO+
125.0472	4	C6H7NO2+
134.0059	14	C7H4NS+
134.0474	2	C7H6N2O+
134.0601	2	C8H8NO+
135.0678	3	C8H9NO+
136.0757	999	C8H10NO+
137.0635	7	C8H8FN+
140.0506	1	C7H7FNO+
142.0463	1	C7H6F2N+
149.0168	41	C7H5N2S+
150.0003	1	C7H4NOS+
151.0086	536	C7H5NOS+
152.0164	239	C7H6NOS+
165.0586	2	C9H8FNO+
166.0193	1	C7H6N2OS+
170.0411	18	C8H6F2NO+
183.0918	3	C12H11N2+
184.0568	3	C9H8F2NO+
185.0646	5	C9H9F2NO+
190.0473	44	C8H7F3NO+
192.0631	4	C8H9F3NO+
194.0073	1	C9H5FNOS+
194.0422	5	C7H7F3NO2+
204.0631	236	C9H9F3NO+
205.0709	3	C9H10F3NO+
207.0795	1	C13H9N3+
208.058	26	C8H9F3NO2+
210.0195	3	C7H7F3NOS+
214.0133	3	C9H6F2NOS+
220.0579	25	C9H9F3NO2+
222.0734	2	C9H11F3NO2+
234.0195	534	C9H7F3NOS+
235.0273	105	C9H8F3NOS+
236.0816	4	C14H10N3O+
252.0298	1	C9H9F3NO2S+
268.0537	1	C14H10N3OS+
