Mass spectrum: Dexamethasone acetate; LC-ESI-QFT; MS2; CE: 60; R=35000; [M-H]-
Name: Dexamethasone acetate
Name: Dexamethason-21-acetate
Name: [2-(9-fluoro-11,17-dihydroxy-10,13,16-trimethyl-3-oxo-6,7,8,11,12,14,15,16-octahydrocyclopenta[a]phenanthren-17-yl)-2-oxoethyl] acetate
Formula: C24H31FO6
Exact mass: 434.21047
SMILES: CC1CC2C3CCC4=CC(=O)C=CC4(C3(C(CC2(C1(C(=O)COC(=O)C)O)C)O)F)C
InChI: InChI=1S/C24H31FO6/c1-13-9-18-17-6-5-15-10-16(27)7-8-21(15,3)23(17,25)19(28)11-22(18,4)24(13,30)20(29)12-31-14(2)26/h7-8,10,13,17-19,28,30H,5-6,9,11-12H2,1-4H3
Instrument: Q Exactive Plus Orbitrap Thermo Scientific
Instrument type: LC-ESI-QFT
Ms type: MS2
Ion mode: NEGATIVE
Ionization: ESI
Fragmentation mode: HCD
Collision energy: 60 (nominal)
Resolution: 35000
Column name: XBridge C18 3.5um, 2.1x50mm, Waters
Retention time: 10.3 min
Base peak: 479.2081
Precursor m/z: 433.2032
Precursor type: [M-H]-
m/z	relative intensity	assigned
59.0138	999	C2H3O2-
71.0139	2	C3H3O2-
71.0503	1	C4H7O-
73.0296	8	C3H5O2-
83.0502	2	C5H7O-
95.0501	1	C6H7O-
99.0451	4	C5H7O2-
101.0244	3	C4H5O3-
107.0502	3	C7H7O-
109.0658	1	C7H9O-
111.0451	1	C6H7O2-
119.0502	2	C8H7O-
121.0295	1	C7H5O2-
121.0658	16	C8H9O-
122.0372	1	C7H6O2-
123.0451	3	C7H7O2-
123.0815	1	C8H11O-
131.0501	2	C9H7O-
133.0658	12	C9H9O-
135.0451	2	C8H7O2-
135.0815	1	C9H11O-
137.0607	2	C8H9O2-
143.05	1	C10H7O-
144.0578	1	C10H8O-
145.0658	3	C10H9O-
147.0815	7	C10H11O-
149.0607	7	C9H9O2-
151.0763	2	C9H11O2-
157.0658	3	C11H9O-
159.0452	1	C10H7O2-
159.0815	3	C11H11O-
160.053	1	C10H8O2-
161.0607	4	C10H9O2-
163.0765	1	C10H11O2-
165.0556	2	C9H9O3-
169.0658	1	C12H9O-
171.0452	1	C11H7O2-
171.0815	3	C12H11O-
172.053	4	C11H8O2-
173.0606	6	C11H9O2-
173.097	2	C12H13O-
174.0685	1	C11H10O2-
175.04	6	C10H7O3-
175.0763	2	C11H11O2-
176.0478	3	C10H8O3-
177.0921	1	C11H13O2-
183.0813	1	C13H11O-
185.0607	5	C12H9O2-
186.0685	5	C12H10O2-
187.0764	3	C12H11O2-
189.0557	6	C11H9O3-
189.0922	2	C12H13O2-
190.0634	3	C11H10O3-
191.0713	3	C11H11O3-
195.0812	1	C14H11O-
197.0605	2	C13H9O2-
199.0762	1	C13H11O2-
201.0921	2	C13H13O2-
203.0713	4	C12H11O3-
204.079	2	C12H12O3-
207.0814	1	C15H11O-
208.0891	2	C15H12O-
209.0972	1	C15H13O-
210.0685	2	C14H10O2-
221.0971	1	C16H13O-
223.0765	2	C15H11O2-
224.0844	1	C15H12O2-
225.0921	1	C15H13O2-
227.1079	1	C15H15O2-
235.1127	1	C17H15O-
237.0921	1	C16H13O2-
239.1075	1	C16H15O2-
241.1234	2	C16H17O2-
247.1128	3	C18H15O-
249.1286	1	C18H17O-
253.1234	1	C17H17O2-
255.1385	1	C17H19O2-
261.0918	1	C18H13O2-
261.128	1	C19H17O-
263.1076	3	C18H15O2-
264.1152	1	C18H16O2-
265.1231	9	C18H17O2-
269.1547	1	C18H21O2-
274.1002	1	C19H14O2-
275.1078	2	C19H15O2-
277.0869	18	C18H13O3-
277.123	3	C19H17O2-
279.1024	3	C18H15O3-
279.1389	2	C19H19O2-
281.1182	1	C18H17O3-
289.1234	3	C20H17O2-
291.1026	14	C19H15O3-
291.1379	1	C20H19O2-
292.1105	32	C19H16O3-
293.1183	7	C19H17O3-
295.1338	4	C19H19O3-
296.1416	6	C19H20O3-
305.1182	4	C20H17O3-
307.1338	17	C20H19O3-
308.1418	2	C20H20O3-
309.113	1	C19H17O4-
309.1496	2	C20H21O3-
310.1211	7	C19H18O4-
311.1289	2	C19H19O4-
311.1652	5	C20H23O3-
319.1336	1	C21H19O3-
323.1287	8	C20H19O4-
325.1445	15	C20H21O4-
337.1445	9	C21H21O4-
338.1525	1	C21H22O4-
353.1757	7	C22H25O4-
