Mass spectrum: Difenoconazole; LC-ESI-ITFT; MS2; CE: 35%; R=7500; [M+H]+
Name: Difenoconazole
Name: 1-[[2-[2-chloranyl-4-(4-chloranylphenoxy)phenyl]-4-methyl-1,3-dioxolan-2-yl]methyl]-1,2,4-triazole
Formula: C19H17Cl2N3O3
Exact mass: 405.0647
SMILES: Clc4ccc(Oc1ccc(c(Cl)c1)C2(OCC(O2)C)Cn3ncnc3)cc4
InChI: InChI=1S/C19H17Cl2N3O3/c1-13-9-25-19(27-13,10-24-12-22-11-23-24)17-7-6-16(8-18(17)21)26-15-4-2-14(20)3-5-15/h2-8,11-13H,9-10H2,1H3
Instrument: LTQ Orbitrap XL Thermo Scientific
Instrument type: LC-ESI-ITFT
Ms type: MS2
Ion mode: POSITIVE
Ionization: ESI
Fragmentation mode: CID
Collision energy: 35 % (nominal)
Resolution: 7500
Column name: XBridge C18 3.5um, 2.1x50mm, Waters
Retention time: 14.1 min
Base peak: 406.0724
Precursor m/z: 406.072
Precursor type: [M+H]+
m/z	relative intensity	assigned
139.0306	1	C8H8Cl+
163.0309	1	C10H8Cl+
164.0395	1	C10H9Cl+
188.0417	1	C4H6N5O4+
199.0162	2	C9H8ClO3+
251.0025	730	C13H9Cl2O+
263.0033	1	C14H9Cl2O+
273.0299	1	C15H10ClO3+
291.0334	73	C16H13Cl2O+
301.0626	1	C17H14ClO3+
309.0083	3	C15H11Cl2O3+
309.0447	3	C16H15Cl2O2+
323.0233	2	C16H13Cl2O3+
337.039	999	C15H13Cl2N3O2+
