Mass spectrum: 2,6-Dichlorobenzamide; LC-ESI-ITFT; MS2; CE: 35%; R=7500; [M+H]+
Name: 2,6-Dichlorobenzamide
Name: 2,6-bis(chloranyl)benzamide
Formula: C7H5Cl2NO
Exact mass: 188.9748
SMILES: ClC1=C(C(N)=O)C(Cl)=CC=C1
InChI: InChI=1S/C7H5Cl2NO/c8-4-2-1-3-5(9)6(4)7(10)11/h1-3H,(H2,10,11)
Instrument: LTQ Orbitrap XL Thermo Scientific
Instrument type: LC-ESI-ITFT
Ms type: MS2
Ion mode: POSITIVE
Ionization: ESI
Fragmentation mode: CID
Collision energy: 35 % (nominal)
Resolution: 7500
Column name: XBridge C18 3.5um, 2.1x50mm, Waters
Retention time: 4.0 min
Base peak: 189.9823
Precursor m/z: 189.9821
Precursor type: [M+H]+
m/z	relative intensity	assigned
84.9606	1	CH3Cl2+
146.9762	21	C6H5Cl2+
171.9716	14	C7H4Cl2N+
172.9555	999	C7H3Cl2O+
189.982	7	C7H6Cl2NO+
