Mass spectrum: Celiprolol; LC-ESI-QFT; MS2; CE: 60; R=35000; [M+H]+
Name: Celiprolol
Name: 3-[3-acetyl-4-[3-(tert-butylamino)-2-hydroxy-propoxy]phenyl]-1,1-diethyl-urea
Formula: C20H33N3O4
Exact mass: 379.24711
SMILES: CCN(CC)C(=O)NC1=CC(=C(C=C1)OCC(CNC(C)(C)C)O)C(=O)C
InChI: InChI=1S/C20H33N3O4/c1-7-23(8-2)19(26)22-15-9-10-18(17(11-15)14(3)24)27-13-16(25)12-21-20(4,5)6/h9-11,16,21,25H,7-8,12-13H2,1-6H3,(H,22,26)
Instrument: Q Exactive Orbitrap Thermo Scientific
Instrument type: LC-ESI-QFT
Ms type: MS2
Ion mode: POSITIVE
Ionization: ESI
Fragmentation mode: HCD
Collision energy: 60 (nominal)
Resolution: 35000
Column name: XBridge C18 3.5um, 2.1x50mm, Waters
Retention time: 5.6 min
Base peak: 380.2546
Precursor m/z: 380.2544
Precursor type: [M+H]+
m/z	relative intensity	assigned
56.0496	243	C3H6N+
57.07	32	C4H9+
72.0444	107	C3H6NO+
72.0807	6	C4H10N+
74.0601	999	C3H8NO+
74.0964	603	C4H12N+
100.0757	294	C5H10NO+
130.1227	7	C7H16NO+
132.0445	5	C8H6NO+
134.0598	1	C8H8NO+
142.0652	1	C10H8N+
146.0603	3	C9H8NO+
148.0393	72	C8H6NO2+
150.0552	13	C8H8NO2+
158.06	2	C10H8NO+
160.0394	2	C9H6NO2+
160.0758	2	C10H10NO+
162.0186	1	C8H4NO3+
162.055	2	C9H8NO2+
170.0599	5	C11H8NO+
172.0394	5	C10H6NO2+
174.0551	15	C10H8NO2+
176.0707	72	C10H10NO2+
178.0499	25	C9H8NO3+
186.0551	60	C11H8NO2+
188.0706	8	C11H10NO2+
189.0661	2	C10H9N2O2+
190.0497	7	C10H8NO3+
198.0547	2	C12H8NO2+
204.0656	153	C11H10NO3+
209.1284	5	C11H17N2O2+
216.0656	164	C12H10NO3+
233.0922	80	C12H13N2O3+
247.1442	1	C14H19N2O2+
251.1028	71	C12H15N2O4+
251.1391	62	C13H19N2O3+
263.1393	1	C14H19N2O3+
277.155	7	C15H21N2O3+
282.1811	1	C14H24N3O3+
306.1815	1	C16H24N3O3+
