Mass spectrum: Afidopyropen; LC-ESI-QFT; MS2; CE: 75%; R=17500; [M+H]+
Name: Afidopyropen
Name: [5-(cyclopropanecarbonyloxy)-9,18-dihydroxy-2,6,10-trimethyl-16-oxo-14-pyridin-3-yl-11,15-dioxatetracyclo[8.8.0.02,7.012,17]octadeca-12(17),13-dien-6-yl]methyl cyclopropanecarboxylate
Formula: C33H39NO9
Exact mass: 593.2625
SMILES: CC12CCC(C(C1CC(C3(C2C(C4=C(O3)C=C(OC4=O)C5=CN=CC=C5)O)C)O)(C)COC(=O)C6CC6)OC(=O)C7CC7
InChI: InChI=1S/C33H39NO9/c1-31-11-10-24(42-29(38)18-8-9-18)32(2,16-40-28(37)17-6-7-17)22(31)14-23(35)33(3)27(31)26(36)25-21(43-33)13-20(41-30(25)39)19-5-4-12-34-15-19/h4-5,12-13,15,17-18,22-24,26-27,35-36H,6-11,14,16H2,1-3H3
Instrument: Exploris 240 Orbitrap Thermo Scientific
Instrument type: LC-ESI-QFT
Ms type: MS2
Ion mode: POSITIVE
Ionization: ESI
Fragmentation mode: HCD
Collision energy: 75 % (nominal)
Resolution: 17500
Column name: XBridge C18 3.5um, 2.1x50mm, Waters
Retention time: 8.509 min
Base peak: 594.2694
Precursor m/z: 594.2698
Precursor type: [M+H]+
m/z	relative intensity	assigned
65.0385	22	C5H5+
67.0541	19	C5H7+
68.997	19	C3HO2+
69.0335	196	C4H5O+
77.0384	10	C6H5+
78.0338	152	C5H4N+
79.0418	11	C5H5N+
79.0542	35	C6H7+
80.0494	98	C5H6N+
81.0699	27	C6H9+
91.0542	57	C7H7+
92.0495	69	C6H6N+
93.0699	24	C7H9+
95.049	12	C6H7O+
95.0857	11	C7H11+
96.0439	10	C5H6NO+
103.0542	9	C8H7+
104.0494	91	C7H6N+
105.0698	56	C8H9+
106.0287	397	C6H4NO+
107.0856	27	C8H11+
110.0603	7	C6H8NO+
115.0547	15	C9H7+
117.0702	12	C9H9+
118.0653	7	C8H8N+
119.0856	45	C9H11+
120.0444	86	C7H6NO+
121.0283	16	C7H5O2+
121.0649	14	C8H9O+
122.06	98	C7H8NO+
128.0625	28	C10H8+
129.0699	20	C10H9+
130.0287	37	C8H4NO+
131.0851	19	C10H11+
133.1006	14	C10H13+
134.0603	11	C8H8NO+
135.0802	10	C9H11O+
141.0698	20	C11H9+
142.0778	15	C11H10+
143.0855	34	C11H11+
145.0644	7	C10H9O+
145.1009	21	C11H13+
147.0803	9	C10H11O+
148.0393	999	C8H6NO2+
154.0773	12	C12H10+
155.086	25	C12H11+
156.0932	10	C12H12+
157.1017	18	C12H13+
159.0805	15	C11H11O+
159.1166	9	C12H15+
160.0396	41	C9H6NO2+
161.0959	12	C11H13O+
167.0861	15	C13H11+
169.064	12	C12H9O+
169.1016	20	C13H13+
171.0804	17	C12H11O+
174.0546	12	C10H8NO2+
179.085	18	C14H11+
181.1005	11	C14H13+
187.1117	16	C13H15O+
190.0502	11	C10H8NO3+
194.1094	7	C15H14+
195.0805	14	C14H11O+
197.059	12	C13H9O2+
202.0498	41	C11H8NO3+
208.0879	10	C15H12O+
