Mass spectrum: 4,5-dihydro-5,5-diphenyl-1,2-oxazole-3-carboxylic acid, ethyl ester; LC-ESI-QFT; MS2; CE: 75; R=35000; [M+H]+
Name: 4,5-dihydro-5,5-diphenyl-1,2-oxazole-3-carboxylic acid, ethyl ester
Name: 5,5-diphenyl-2-isoxazoline-3-carboxylic acid ethyl ester
Formula: C18H17NO3
Exact mass: 295.12084
SMILES: C1(C(OCC)=O)=NOC(C1)(c1ccccc1)c1ccccc1
InChI: InChI=1S/C18H17NO3/c1-2-21-17(20)16-13-18(22-19-16,14-9-5-3-6-10-14)15-11-7-4-8-12-15/h3-12H,2,13H2,1H3
Instrument: Q Exactive Orbitrap Thermo Scientific
Instrument type: LC-ESI-QFT
Ms type: MS2
Ion mode: POSITIVE
Ionization: ESI
Fragmentation mode: HCD
Collision energy: 75 (nominal)
Resolution: 35000
Column name: XBridge C18 3.5um, 2.1x50mm, Waters
Retention time: 12.7 min
Base peak: 296.1281
Precursor m/z: 296.1281
Precursor type: [M+H]+
m/z	relative intensity	assigned
51.023	3	C4H3+
53.0388	7	C4H5+
65.0387	1	C5H5+
75.0228	13	C6H3+
77.0385	76	C6H5+
79.0542	1	C6H7+
81.0335	5	C5H5O+
89.0384	4	C7H5+
91.0542	13	C7H7+
95.0491	147	C6H7O+
101.0385	9	C8H5+
103.0542	11	C8H7+
104.0494	26	C7H6N+
105.0334	277	C7H5O+
105.0446	103	C6H5N2+
115.0541	4	C9H7+
116.0494	10	C8H6N+
117.0573	6	C8H7N+
119.0492	12	C8H7O+
126.0338	1	C9H4N+
127.0538	1	C10H7+
128.0493	40	C9H6N+
128.062	2	C10H8+
129.0446	27	C8H5N2+
130.0288	4	C8H4NO+
130.0402	7	C7H4N3+
139.0539	1	C11H7+
145.065	1	C10H9O+
146.0599	15	C9H8NO+
150.0465	1	C12H6+
151.0541	59	C12H7+
152.062	27	C12H8+
153.07	10	C12H9+
155.0601	1	C10H7N2+
164.0618	4	C13H8+
165.0698	75	C13H9+
166.0776	7	C13H10+
167.073	5	C12H9N+
167.0854	5	C13H11+
169.0647	116	C12H9O+
175.0542	11	C14H7+
176.062	650	C14H8+
177.0572	16	C13H7N+
177.0697	314	C14H9+
178.0776	292	C14H10+
179.0603	35	C12H7N2+
179.073	8	C13H9N+
179.0853	42	C14H11+
181.0649	6	C13H9O+
189.0698	16	C15H9+
190.065	10	C14H8N+
190.0775	20	C15H10+
191.0854	83	C15H11+
192.0803	11	C14H10N+
192.0939	1	C15H12+
193.0648	9	C14H9O+
193.0885	29	C14H11N+
194.06	1	C13H8NO+
194.0727	1	C14H10O+
194.0962	3	C14H12N+
195.0805	9	C14H11O+
196.0759	8	C13H10NO+
201.057	24	C15H7N+
202.0651	49	C15H8N+
203.0728	999	C15H9N+
204.0807	658	C15H10N+
205.0648	4	C15H9O+
205.076	19	C14H9N2+
205.0883	9	C15H11N+
205.0966	1	C11H13N2O2+
206.0961	7	C15H12N+
207.0804	145	C15H11O+
217.0885	1	C16H11N+
218.0964	1	C16H12N+
219.1037	1	C16H13N+
220.0756	44	C15H10NO+
222.0917	1	C15H12NO+
232.0757	36	C16H10NO+
