Mass spectrum: Pyribencarb; LC-ESI-QFT; MS2; CE: 90%; R=17500; [M+H]+
Name: Pyribencarb
Name: methyl {2-chloro-5-[(1E)-1-(6-methyl-2-pyridylmethoxyimino)ethyl]benzyl}carbamate
Name: methyl N-[[2-chloro-5-[C-methyl-N-[(6-methylpyridin-2-yl)methoxy]carbonimidoyl]phenyl]methyl]carbamate
Formula: C18H20ClN3O3
Exact mass: 361.1193
SMILES: CC1=NC(=CC=C1)CON=C(C)C2=CC(=C(C=C2)Cl)CNC(=O)OC
InChI: InChI=1S/C18H20ClN3O3/c1-12-5-4-6-16(21-12)11-25-22-13(2)14-7-8-17(19)15(9-14)10-20-18(23)24-3/h4-9H,10-11H2,1-3H3,(H,20,23)
Instrument: Exploris 240 Orbitrap Thermo Scientific
Instrument type: LC-ESI-QFT
Ms type: MS2
Ion mode: POSITIVE
Ionization: ESI
Fragmentation mode: HCD
Collision energy: 90 % (nominal)
Resolution: 17500
Column name: XBridge C18 3.5um, 2.1x50mm, Waters
Retention time: 5.920 min
Base peak: 362.1261
Precursor m/z: 362.1266
Precursor type: [M+H]+
m/z	relative intensity	assigned
51.0228	18	C4H3+
53.0385	21	C4H5+
58.0286	18	C2H4NO+
59.0125	6	C2H3O2+
63.0229	22	C5H3+
65.0384	33	C5H5+
72.984	37	C3H2Cl+
75.023	11	C6H3+
77.0385	129	C6H5+
78.0339	12	C5H4N+
78.046	9	C6H6+
79.0541	14	C6H7+
88.039	32	C3H6NO2+
89.0385	74	C7H5+
91.0542	104	C7H7+
92.0495	45	C6H6N+
94.0651	44	C6H8N+
95.049	19	C6H7O+
96.984	38	C5H2Cl+
102.0338	7	C7H4N+
102.0463	23	C8H6+
104.0496	26	C7H6N+
105.0445	34	C6H5N2+
106.0409	7	C7H6O+
106.065	17	C7H8N+
110.06	28	C6H8NO+
110.9993	12	C6H4Cl+
112.0077	6	C6H5Cl+
113.015	27	C6H6Cl+
117.0574	29	C8H7N+
118.0651	50	C8H8N+
120.0445	9	C7H6NO+
122.0599	107	C7H8NO+
122.9995	999	C7H4Cl+
124.0074	125	C7H5Cl+
128.0493	18	C9H6N+
129.0447	16	C8H5N2+
129.0569	11	C9H7N+
130.0398	18	C7H4N3+
137.0153	13	C8H6Cl+
138.0107	36	C7H5ClN+
139.0056	23	C6H4ClN2+
141.0103	96	C7H6ClO+
146.0602	39	C9H8NO+
148.0395	16	C8H6NO2+
150.0101	15	C8H5ClN+
163.0632	26	C6H12ClN2O+
164.026	76	C9H7ClN+
165.0338	9	C9H8ClN+
169.0154	14	C10H3NO2+
