Mass spectrum: 3,4-Methylenedioxy-N-methylamphetamine (MDMA); LC-ESI-QFT; MS2; CE: 120; R=35000; [M+H]+
Name: 3,4-Methylenedioxy-N-methylamphetamine (MDMA)
Name: N-Methyl-3,4-methylenedioxyamphetamine
Name: 1-(1,3-benzodioxol-5-yl)-N-methylpropan-2-amine
Formula: C11H15NO2
Exact mass: 193.11028
SMILES: CC(CC1=CC2=C(C=C1)OCO2)NC
InChI: InChI=1S/C11H15NO2/c1-8(12-2)5-9-3-4-10-11(6-9)14-7-13-10/h3-4,6,8,12H,5,7H2,1-2H3
Instrument: Q Exactive Plus Orbitrap Thermo Scientific
Instrument type: LC-ESI-QFT
Ms type: MS2
Ion mode: POSITIVE
Ionization: ESI
Fragmentation mode: HCD
Collision energy: 120 (nominal)
Resolution: 35000
Column name: XBridge C18 3.5um, 2.1x50mm, Waters
Retention time: 3.6 min
Base peak: 194.117
Precursor m/z: 194.1176
Precursor type: [M+H]+
m/z	relative intensity	assigned
50.0151	57	C4H2+
51.0229	59	C4H3+
53.0386	199	C4H5+
55.0178	77	C3H3O+
56.0495	7	C3H6N+
58.0651	127	C3H8N+
63.0228	1	C5H3+
65.0385	181	C5H5+
66.0463	4	C5H6+
67.0542	10	C5H7+
68.997	1	C3HO2+
77.0385	594	C6H5+
78.0463	8	C6H6+
79.0541	999	C6H7+
81.0334	23	C5H5O+
89.0385	12	C7H5+
90.0463	4	C7H6+
91.0542	36	C7H7+
93.0335	20	C6H5O+
94.0413	6	C6H6O+
95.0491	689	C6H7O+
102.0463	14	C8H6+
103.0542	582	C8H7+
104.0618	7	C8H8+
105.0334	102	C7H5O+
105.0447	454	C6H5N2+
105.0698	407	C8H9+
106.0417	4	C7H6O+
107.049	4	C7H7O+
109.0648	1	C7H9O+
111.0439	9	C6H7O2+
115.0541	27	C9H7+
118.0412	3	C8H6O+
121.0283	60	C7H5O2+
122.0362	17	C7H6O2+
131.049	3	C9H7O+
133.0647	15	C9H9O+
135.0439	243	C8H7O2+
147.044	74	C9H7O2+
148.0517	9	C9H8O2+
