Mass spectrum: Flutriafol; LC-ESI-QFT; MS2; CE: 75; R=35000; [M+H]+
Name: Flutriafol
Name: 1-(2-fluorophenyl)-1-(4-fluorophenyl)-2-(1,2,4-triazol-1-yl)ethanol
Formula: C16H13F2N3O
Exact mass: 301.10267
SMILES: C1=CC=C(C(=C1)C(CN2C=NC=N2)(C3=CC=C(C=C3)F)O)F
InChI: InChI=1S/C16H13F2N3O/c17-13-7-5-12(6-8-13)16(22,9-21-11-19-10-20-21)14-3-1-2-4-15(14)18/h1-8,10-11,22H,9H2
Instrument: Q Exactive Plus Orbitrap Thermo Scientific
Instrument type: LC-ESI-QFT
Ms type: MS2
Ion mode: POSITIVE
Ionization: ESI
Fragmentation mode: HCD
Collision energy: 75 (nominal)
Resolution: 35000
Column name: XBridge C18 3.5um, 2.1x50mm, Waters
Retention time: 8.6 min
Base peak: 302.1094
Precursor m/z: 302.1099
Precursor type: [M+H]+
m/z	relative intensity	assigned
50.0151	1	C4H2+
70.04	999	C2H4N3+
71.0291	6	C4H4F+
75.0228	4	CH2FN3+
79.0178	1	C5H3O+
83.0291	6	C5H4F+
89.0386	1	C7H5+
91.0543	2	C7H7+
93.0336	1	C6H5O+
95.0291	6	C6H4F+
99.0241	1	C5H4FO+
109.0449	208	C7H6F+
113.0397	39	C6H6FO+
123.0241	403	C2H3F2N3O+
123.0353	118	C6H4FN2+
124.0324	1	C7H5FO+
165.07	8	C13H9+
175.0545	3	C14H7+
183.0607	2	C13H8F+
187.0555	1	C12H8FO+
193.0649	3	C14H9O+
194.0527	9	C14H7F+
195.0606	8	C14H8F+
203.0603	3	C14H7N2+
214.059	12	C14H8F2+
215.0669	1	C14H9F2+
