Mass spectrum: Ethiprole; LC-ESI-QFT; MS2; CE: 150%; R=17500; [M+H]+
Name: Ethiprole
Name: 5-amino-1-[2,6-dichloro-4-(trifluoromethyl)phenyl]-4-ethylsulfinylpyrazole-3-carbonitrile
Formula: C13H9Cl2F3N4OS
Exact mass: 395.9826
SMILES: CCS(=O)C1=C(N(N=C1C#N)C2=C(C=C(C=C2Cl)C(F)(F)F)Cl)N
InChI: InChI=1S/C13H9Cl2F3N4OS/c1-2-24(23)11-9(5-19)21-22(12(11)20)10-7(14)3-6(4-8(10)15)13(16,17)18/h3-4H,2,20H2,1H3
Instrument: Exploris 240 Orbitrap Thermo Scientific
Instrument type: LC-ESI-QFT
Ms type: MS2
Ion mode: POSITIVE
Ionization: ESI
Fragmentation mode: HCD
Collision energy: 150 % (nominal)
Resolution: 17500
Column name: XBridge C18 3.5um, 2.1x50mm, Waters
Retention time: 8.795 min
Base peak: 396.9896
Precursor m/z: 396.9899
Precursor type: [M+H]+
m/z	relative intensity	assigned
61.9793	44	CHClN+
62.987	77	CH2ClN+
66.9745	30	CHClF+
68.9946	198	CF3+
69.9745	18	C2NS+
72.9838	13	C3H2Cl+
75.0041	51	C3HF2+
81.0138	19	C5H2F+
84.965	59	CClF2+
90.9743	71	C3HClF+
92.0058	15	ClH9OS+
92.9947	30	C3F3+
107.9762	55	C6HCl+
108.9651	38	C3ClF2+
108.984	19	C6H2Cl+
114.9745	34	C5HClF+
116.9944	39	C5F3+
121.9792	115	C6HClN+
123.9951	81	C6H3ClN+
127.9826	54	Cl2H10OS+
130.0024	29	C6HF3+
131.0103	24	ClF2H10OS+
132.0184	42	C6H3F3+
137.0067	95	C2F3N4+
143.0101	653	C7H2F3+
157.0132	999	C7H2F3N+
158.9638	33	C6H3Cl2N+
159.0163	26	C6H2F3N2+
165.979	680	C6H2ClF3+
172.9836	120	C2HClF3N4+
176.9714	54	C7HClF3+
177.979	90	C7H2ClF3+
192.9904	47	C7H3ClF3N+
199.9821	23	C7HClF2N3+
212.9482	24	C7H2Cl2F3+
