Mass spectrum: Fluxapyroxad (BAS 700 F)-TP CSAA798670; LC-ESI-QFT; MS2; CE: 90%; R=17500; [M+H]+
Name: Fluxapyroxad (BAS 700 F)-TP CSAA798670
Name: 3-(Difluoromethyl)-1-methyl-1H-pyrazole-4-carboxylic acid
Name: 3-(difluoromethyl)-1-methylpyrazole-4-carboxylic acid
Formula: C6H6F2N2O2
Exact mass: 176.0397
SMILES: CN1C=C(C(O)=O)C(=N1)C(F)F
InChI: InChI=1S/C6H6F2N2O2/c1-10-2-3(6(11)12)4(9-10)5(7)8/h2,5H,1H3,(H,11,12)
Instrument: Q Exactive Plus Orbitrap Thermo Scientific
Instrument type: LC-ESI-QFT
Ms type: MS2
Ion mode: POSITIVE
Ionization: ESI
Fragmentation mode: HCD
Collision energy: 90 % (nominal)
Resolution: 17500
Column name: XBridge C18 3.5um, 2.1x50mm, Waters
Retention time: 2.916 min
Base peak: 177.047
Precursor m/z: 177.047
Precursor type: [M+H]+
m/z	relative intensity	assigned
51.0229	23	C4H3+
52.0182	42	C3H2N+
53.0022	24	C3HO+
53.0386	254	C4H5+
54.0339	85	C3H4N+
55.018	26	C3H3O+
58.0286	9	C2H4NO+
59.0291	6	C3H4F+
66.0213	17	C3H2N2+
66.0338	21	C4H4N+
67.0178	29	C4H3O+
68.0131	338	C3H2NO+
68.882	16	
81.0448	27	C4H5N2+
82.0287	300	C4H4NO+
109.0396	999	C5H5N2O+
109.0503	76	
113.0509	81	C5H6FN2+
116.0304	5	C5H4F2N+
137.0346	842	C6H5N2O2+
155.0452	149	
