Mass spectrum: 2,4-Dichlorophenol; LC-ESI-QFT; MS2; CE: 45%; R=15000; [M-H]-
Name: 2,4-Dichlorophenol
Formula: C6H4Cl2O
Exact mass: 161.9639201
SMILES: OC1=C(Cl)C=C(Cl)C=C1
InChI: InChI=1S/C6H4Cl2O/c7-4-1-2-6(9)5(8)3-4/h1-3,9H
Instrument: Q Exactive Plus
Instrument type: LC-ESI-QFT
Ms type: MS2
Ion mode: NEGATIVE
Ionization: ESI
Fragmentation mode: HCD
Collision energy: 45 % (nominal)
Resolution: 15000
Column name: XBridge C18 3.5um, 2.1x50mm, Waters
Retention time: 8.466 min
Base peak: 160.9566
Precursor m/z: 160.9566
Precursor type: [M-H]-
Precursor intensity: 12901266.91
m/z	relative intensity	assigned
89.0033	26	C6HO-
124.98	392	C6H2ClO-
160.9566	999	C6H3Cl2O-
