Mass spectrum: MCLF; LC-ESI-QFT; MS2; CE: 60%; R=17500; [M+H]+
Name: MCLF
Name: Microcystin LF
Name: 15-benzyl-18-[(1E,3E)-6-methoxy-3,5-dimethyl-7-phenylhepta-1,3-dienyl]-1,5,12,19-tetramethyl-2-methylidene-8-(2-methylpropyl)-3,6,9,13,16,20,25-heptaoxo-1,4,7,10,14,17,21-heptazacyclopentacosane-11,22-dicarboxylic acid
Class: NA
Formula: C52H71N7O12
Exact mass: 985.5161
SMILES: COC(Cc1ccccc1)C(C)/C=C(C)/C=C/C2NC(=O)C(Cc3ccccc3)NC(=O)C(C)C(NC(=O)C(CC(C)C)NC(=O)C(C)NC(=O)C(=C)N(C)C(=O)CCC(NC(=O)C2C)C(O)=O)C(O)=O
InChI: InChI=1S/C52H71N7O12/c1-29(2)25-40-50(66)58-44(52(69)70)33(6)46(62)56-41(27-36-17-13-11-14-18-36)49(65)54-38(22-21-30(3)26-31(4)42(71-10)28-37-19-15-12-16-20-37)32(5)45(61)55-39(51(67)68)23-24-43(60)59(9)35(8)48(64)53-34(7)47(63)57-40/h11-22,26,29,31-34,38-42,44H,8,23-25,27-28H2,1-7,9-10H3,(H,53,64)(H,54,65)(H,55,61)(H,56,62)(H,57,63)(H,58,66)(H,67,68)(H,69,70)/b22-21+,30-26+
Instrument: Q Exactive Plus Orbitrap Thermo Scientific
Instrument type: LC-ESI-QFT
Ms type: MS2
Ion mode: POSITIVE
Ionization: ESI
Fragmentation mode: HCD
Collision energy: 60 % (nominal)
Resolution: 17500
Column name: XBridge C18 3.5um, 2.1x50mm, Waters
Retention time: 12.318 min
Base peak: 164.9846
Precursor m/z: 986.5233
Precursor type: [M+H]+
m/z	relative intensity	assigned
69.0335	47	C4H5O+
69.0699	18	C5H9+
74.0237	16	C2H4NO2+
77.0384	18	C6H5+
79.0542	153	C6H7+
80.0495	20	C5H6N+
81.0699	14	C6H9+
82.0287	15	C4H4NO+
82.0651	107	C5H8N+
84.0444	206	C4H6NO+
84.0807	8	
85.0284	12	C4H5O2+
86.06	10	
86.0964	414	C5H12N+
91.0543	407	C7H7+
93.07	224	C7H9+
94.0651	24	C6H8N+
95.0491	106	C6H7O+
95.0857	20	C7H11+
96.0807	15	C6H10N+
99.0916	85	C5H11N2+
102.0549	30	C4H8NO2+
103.0542	512	C8H7+
105.0449	37	C6H5N2+
105.0699	414	C8H9+
107.0855	999	C8H11+
108.068	3	C6H8N2+
108.0806	12	C7H10N+
109.0648	38	C7H9O+
110.06	66	C6H8NO+
110.0965	11	C7H12N+
112.0396	10	C5H6NO2+
112.0756	8	C6H10NO+
113.0233	39	C5H5O3+
113.0709	7	C5H9N2O+
115.0543	76	C9H7+
117.0699	153	C9H9+
118.065	6	C8H8N+
119.0604	26	C7H7N2+
119.0856	50	C9H11+
120.0808	790	C8H10N+
121.0649	13	C8H9O+
121.076	37	C7H9N2+
121.1009	18	C9H13+
122.06	14	C7H8NO+
122.0965	24	C8H12N+
123.0915	19	C7H11N2+
124.0759	29	C7H10NO+
124.1122	32	C8H14N+
125.0708	9	C6H9N2O+
127.0866	842	C6H11N2O+
128.062	25	C10H8+
128.0707	15	C6H10NO2+
129.0699	43	C10H9+
130.0502	34	C5H8NO3+
130.0651	52	C9H8N+
131.0855	76	C10H11+
132.0809	14	C9H10N+
133.1012	38	C10H13+
135.0804	386	C9H11O+
135.1168	365	C10H15+
136.076	8	C8H10NO+
138.055	82	C7H8NO2+
139.0868	12	C7H11N2O+
140.0703	10	C7H10NO2+
143.0854	37	C11H11+
145.1012	60	C11H13+
146.06	9	C9H8NO+
146.0964	61	C10H12N+
146.1089	14	C11H14+
149.0711	72	C8H9N2O+
150.0542	5	C6H6N4O+
151.0866	10	C8H11N2O+
152.1074	6	C9H14NO+
155.0815	123	C7H11N2O2+
158.0965	15	C11H12N+
159.0802	12	C11H11O+
159.1172	16	C12H15+
160.1121	31	C11H14N+
162.1276	17	C11H16N+
163.1118	98	C11H15O+
165.0695	12	C13H9+
167.0816	276	C8H11N2O2+
168.0659	20	C8H10NO3+
173.0964	17	C12H13O+
176.0704	17	C10H10NO2+
179.0856	7	C14H11+
180.0937	12	H14N5O6+
181.1009	19	C14H13+
181.1334	22	C10H17N2O+
186.0915	17	C12H12NO+
188.1437	21	C13H18N+
193.0992	13	C15H13+
194.1648	10	C11H20N3+
195.0767	101	C9H11N2O3+
195.1161	22	H21NO10+
196.0606	27	C9H10NO4+
209.1314	14	CH23NO10+
213.0873	158	C9H13N2O4+
218.1547	15	H22N6O7+
232.0972	27	C13H14NO3+
246.1492	5	CH22N6O8+
249.1235	20	C13H17N2O3+
