Mass spectrum: Chlorothalonil TP SYN548581; LC-ESI-QFT; MS2; CE: 90%; R=15000; [M-H]-
Name: Chlorothalonil TP SYN548581
Name: 4-carbamoyl-2,3,5-trichloro-6-cyanobenzenesulfonic acid
Formula: C8H3Cl3N2O4S
Exact mass: 327.8879
SMILES: NC(=O)C1=C(Cl)C(Cl)=C(C(C#N)=C1Cl)S(O)(=O)=O
InChI: InChI=1S/C8H3Cl3N2O4S/c9-4-2(1-12)7(18(15,16)17)6(11)5(10)3(4)8(13)14/h(H2,13,14)(H,15,16,17)
Instrument: Orbitrap Exploris 240 Thermo Scientific
Instrument type: LC-ESI-QFT
Ms type: MS2
Ion mode: NEGATIVE
Ionization: ESI
Fragmentation mode: HCD
Collision energy: 90 % (nominal)
Resolution: 15000
Column name: Atlantis C18 3um, 3.0x150mm, Waters
Retention time: 10.493 min
Base peak: 326.8808
Precursor m/z: 326.8806
Precursor type: [M-H]-
Precursor intensity: 53505816
m/z	relative intensity	assigned
112.0069	339	C7N2-
113.9986	129	C7NO-
114.9263	407	ClO3S-
146.9751	999	C7ClN2-
167.9411	296	C7Cl2N-
183.936	325	C7Cl2NO-
219.9129	312	C7HCl3NO-
