Mass spectrum: Genistein; LC-ESI-QFT; MS2; CE: 180; R=35000; [M+H]+
Name: Genistein
Name: 5,7-dihydroxy-3-(4-hydroxyphenyl)chromen-4-one
Formula: C15H10O5
Exact mass: 270.05282
SMILES: C1=CC(=CC=C1C2=COC3=CC(=CC(=C3C2=O)O)O)O
InChI: InChI=1S/C15H10O5/c16-9-3-1-8(2-4-9)11-7-20-13-6-10(17)5-12(18)14(13)15(11)19/h1-7,16-18H
Instrument: Q Exactive Plus Orbitrap Thermo Scientific
Instrument type: LC-ESI-QFT
Ms type: MS2
Ion mode: POSITIVE
Ionization: ESI
Fragmentation mode: HCD
Collision energy: 180 (nominal)
Resolution: 35000
Column name: XBridge C18 3.5um, 2.1x50mm, Waters
Retention time: 7.6 min
Base peak: 271.0599
Precursor m/z: 271.0601
Precursor type: [M+H]+
m/z	relative intensity	assigned
50.0151	128	C4H2+
51.023	148	C4H3+
52.0308	5	C4H4+
53.0022	128	C3HO+
53.0386	39	C4H5+
53.9975	18	C2NO+
55.0179	32	C3H3O+
61.0073	40	C5H+
62.0151	163	C5H2+
63.023	340	C5H3+
64.0308	10	C5H4+
65.0386	999	C5H5+
66.0101	4	C4H2O+
66.0464	6	C5H6+
67.0178	35	C4H3O+
67.9893	11	C3O2+
68.0258	1	C4H4O+
68.9971	391	C3HO2+
74.0151	80	C6H2+
75.0229	164	C6H3+
76.0307	22	C6H4+
77.0386	59	C6H5+
78.0464	23	C6H6+
79.0179	21	C5H3O+
79.0542	5	C6H7+
81.0335	14	C5H5O+
87.023	22	C7H3+
88.0308	8	C7H4+
89.0386	282	C7H5+
90.01	14	C6H2O+
90.0465	12	C7H6+
91.018	10	C6H3O+
91.0543	119	C7H7+
92.0257	2	C6H4O+
94.0414	2	C6H6O+
95.0492	117	C6H7O+
98.0152	13	C8H2+
99.0229	13	C8H3+
101.0386	4	C8H5+
102.0465	42	C8H6+
103.0543	11	C8H7+
105.0335	6	C7H5O+
105.0448	58	C6H5N2+
107.0491	4	C7H7O+
113.0386	32	C9H5+
114.0464	9	C9H6+
115.0543	289	C9H7+
118.0413	6	C8H6O+
119.049	1	C8H7O+
121.0286	1	C7H5O2+
125.0389	2	C10H5+
126.0465	34	C10H6+
127.0541	7	C10H7+
128.0621	22	C10H8+
129.0446	8	C8H5N2+
131.0494	5	C9H7O+
132.0573	2	C9H8O+
138.0464	4	C11H6+
139.0543	165	C11H7+
140.0619	1	C11H8+
141.0702	1	C11H9+
145.065	1	C10H9O+
150.0465	35	C12H6+
151.0544	1	C12H7+
152.0624	8	C12H8+
155.0604	7	C10H7N2+
168.0568	1	C12H8O+
169.0647	8	C12H9O+
179.0606	2	C12H7N2+
