Mass spectrum: Azinphos-ethyl; LC-ESI-QFT; MS2; CE: 30; R=35000; [M+H]+
Name: Azinphos-ethyl
Name: Azinphos ethyl
Name: 3-(diethoxyphosphinothioylsulfanylmethyl)-1,2,3-benzotriazin-4-one
Formula: C12H16N3O3PS2
Exact mass: 345.03707
SMILES: CCOP(=S)(OCC)SCN1C(=O)C2=CC=CC=C2N=N1
InChI: InChI=1S/C12H16N3O3PS2/c1-3-17-19(20,18-4-2)21-9-15-12(16)10-7-5-6-8-11(10)13-14-15/h5-8H,3-4,9H2,1-2H3
Instrument: Q Exactive Plus Orbitrap Thermo Scientific
Instrument type: LC-ESI-QFT
Ms type: MS2
Ion mode: POSITIVE
Ionization: ESI
Fragmentation mode: HCD
Collision energy: 30 (nominal)
Resolution: 35000
Column name: XBridge C18 3.5um, 2.1x50mm, Waters
Retention time: 11.4 min
Base peak: 346.0438
Precursor m/z: 346.0443
Precursor type: [M+H]+
m/z	relative intensity	assigned
50.015	1	C4H2+
51.0229	1	C4H3+
53.0386	12	C4H5+
64.9787	5	H2O2P+
75.0262	2	C3H7S+
77.0385	15	C6H5+
81.0335	1	C5H5O+
95.0492	50	C6H7O+
96.9508	80	H2O2PS+
98.9842	7	H4O4P+
104.0495	203	C7H6N+
105.0336	130	C7H5O+
105.0448	29	C6H5N2+
109.0048	1	C2H6O3P+
109.0108	5	C6H5S+
109.9826	4	CH5NOPS+
110.9665	1	CH4O2PS+
114.9614	938	H4O3PS+
120.0443	8	C7H6NO+
121.065	2	C4H12NOP+
123.0262	2	C7H7S+
124.9822	43	C2H6O2PS+
126.9437	10	CH4OPS2+
128.9771	15	CH6O3PS+
130.0401	6	C7H4N3+
131.0494	1	C5H10NOP+
132.0445	999	C8H6NO+
132.972	5	H6O4PS+
136.0217	19	C3H9N2PS+
137.0057	624	C7H5OS+
138.014	2	C3H9NOPS+
142.9386	494	CH4O2PS2+
148.0216	58	C8H6NS+
150.0551	114	C4H11N2O2P+
152.9829	13	C3H8NPS2+
153.0007	26	C3H8NO2PS+
153.0135	39	C4H10O2PS+
160.0507	22	C8H6N3O+
166.0323	47	C4H11N2OPS+
168.9778	7	C3H8NOPS2+
170.9699	87	C3H8O2PS2+
171.024	78	C4H12O3PS+
172.9819	3	C6H6O2PS+
182.0095	12	C4H11N2PS2+
197.0087	3	C9H9OS2+
214.9386	27	C7H4O2PS2+
216.9721	40	C4H3N5O2S2+
232.9493	438	C7H6O3PS2+
260.9804	37	C9H10O3PS2+
261.9764	4	C8H9NO3PS2+
