Mass spectrum: N4-Acetylsulfamethoxazole; LC-ESI-ITFT; MS2; CE: 30%; R=7500; [M+H]+
Name: N4-Acetylsulfamethoxazole
Name: N-[4-[(5-methyl-1,2-oxazol-3-yl)sulfamoyl]phenyl]acetamide
Formula: C12H13N3O4S
Exact mass: 295.0627
SMILES: c1(ccc(cc1)NC(C)=O)S(Nc1cc(C)on1)(=O)=O
InChI: InChI=1S/C12H13N3O4S/c1-8-7-12(14-19-8)15-20(17,18)11-5-3-10(4-6-11)13-9(2)16/h3-7H,1-2H3,(H,13,16)(H,14,15)
Instrument: LTQ Orbitrap XL Thermo Scientific
Instrument type: LC-ESI-ITFT
Ms type: MS2
Ion mode: POSITIVE
Ionization: ESI
Fragmentation mode: HCD
Collision energy: 30 % (nominal)
Resolution: 7500
Column name: XBridge C18 3.5um, 2.1x50mm, Waters
Retention time: 5.5 min
Base peak: 318.0528
Precursor m/z: 296.07
Precursor type: [M+H]+
m/z	relative intensity	assigned
65.0385	12	C5H5+
92.0494	10	C6H6N+
93.0338	11	C6H5O+
93.0575	28	C6H7N+
94.0648	7	C6H8N+
99.0552	45	C4H7N2O+
108.0445	119	C6H6NO+
134.0601	168	C8H8NO+
135.0678	10	C8H9NO+
136.0757	234	C8H10NO+
146.0716	18	C8H8N3+
147.0786	11	C8H9N3+
150.0552	38	C8H8NO2+
156.0115	29	C6H6NO2S+
160.087	66	C9H10N3+
162.0662	63	C8H8N3O+
176.0281	6	C8H6N3S+
188.0819	190	C10H10N3O+
189.0901	32	C10H11N3O+
190.0976	93	C10H12N3O+
194.0382	99	C8H8N3OS+
198.022	361	C8H8NO3S+
202.0973	17	C11H12N3O+
214.0979	9	C12H12N3O+
218.0388	8	C10H8N3OS+
230.0928	14	C12H12N3O2+
232.1084	30	C12H14N3O2+
236.0488	88	C10H10N3O2S+
254.0588	13	C10H12N3O3S+
296.07	999	C12H14N3O4S+
