Mass spectrum: Mianserin; LC-ESI-QFT; MS2; CE: 45; R=35000; [M+H]+
Name: Mianserin
Name: 2-Methyl-1,2,3,4,10,14b-hexahydrodibenzo[c,f]pyrazino[1,2-a]azepine
Formula: C18H20N2
Exact mass: 264.16265
SMILES: CN1CCN2C(C1)C3=CC=CC=C3CC4=CC=CC=C42
InChI: InChI=1S/C18H20N2/c1-19-10-11-20-17-9-5-3-7-15(17)12-14-6-2-4-8-16(14)18(20)13-19/h2-9,18H,10-13H2,1H3
Instrument: Q Exactive Plus Orbitrap Thermo Scientific
Instrument type: LC-ESI-QFT
Ms type: MS2
Ion mode: POSITIVE
Ionization: ESI
Fragmentation mode: HCD
Collision energy: 45 (nominal)
Resolution: 35000
Column name: XBridge C18 3.5um, 2.1x50mm, Waters
Retention time: 6.5 min
Base peak: 265.1696
Precursor m/z: 265.1699
Precursor type: [M+H]+
m/z	relative intensity	assigned
56.0495	17	C3H6N+
58.0651	999	C3H8N+
70.0651	253	C4H8N+
72.0807	15	C4H10N+
82.0651	2	C5H8N+
85.076	38	C4H9N2+
91.0542	57	C7H7+
97.0761	2	C5H9N2+
98.0838	3	C5H10N2+
103.0541	2	C8H7+
105.0698	18	C8H9+
106.0651	28	C7H8N+
107.0727	1	C7H9N+
115.0541	7	C9H7+
117.0571	6	C8H7N+
117.0698	32	C9H9+
118.065	148	C8H8N+
119.0729	2	C8H9N+
119.0854	4	C9H11+
120.0807	79	C8H10N+
129.0698	14	C10H9+
130.0651	20	C9H8N+
131.073	7	C9H9N+
131.0854	5	C10H11+
132.0807	34	C9H10N+
134.0962	4	C9H12N+
141.07	1	C11H9+
144.0807	33	C10H10N+
145.0886	3	C10H11N+
146.0964	104	C10H12N+
147.1042	4	C10H13N+
148.112	28	C10H14N+
156.0809	2	C11H10N+
157.0886	4	C11H11N+
158.0964	53	C11H12N+
159.1042	12	C11H13N+
160.112	12	C11H14N+
161.1072	80	C10H13N2+
172.112	33	C12H14N+
173.1073	4	C11H13N2+
174.115	37	C11H14N2+
178.0772	3	C14H10+
179.0855	18	C14H11+
181.1011	3	C14H13+
191.0856	3	C15H11+
192.0807	2	C14H10N+
193.0885	19	C14H11N+
194.0964	20	C14H12N+
204.081	4	C15H10N+
205.0884	10	C15H11N+
206.0963	17	C15H12N+
207.1043	13	C15H13N+
208.112	953	C15H14N+
218.0958	5	C16H12N+
219.1043	10	C16H13N+
220.112	33	C16H14N+
222.1277	169	C16H16N+
232.1119	7	C17H14N+
233.1193	1	C17H15N+
234.1277	80	C17H16N+
235.1227	2	C16H15N2+
236.1434	8	C17H18N+
237.1385	6	C16H17N2+
248.1308	17	C17H16N2+
248.1431	1	C18H18N+
249.1382	1	C17H17N2+
250.1464	115	C17H18N2+
261.1383	1	C18H17N2+
263.1542	336	C18H19N2+
264.1621	1	C18H20N2+
265.1698	843	C18H21N2+
