Mass spectrum: Moclobemide; LC-ESI-ITFT; MS2; CE: 75%; R=15000; [M+H]+
Name: Moclobemide
Name: 4-chloranyl-N-(2-morpholin-4-ylethyl)benzamide
Formula: C13H17ClN2O2
Exact mass: 268.0979
SMILES: Cl-c(ccc1C(=O)NCCN(CCO2)CC2)cc1
InChI: InChI=1S/C13H17ClN2O2/c14-12-3-1-11(2-4-12)13(17)15-5-6-16-7-9-18-10-8-16/h1-4H,5-10H2,(H,15,17)
Instrument: LTQ Orbitrap XL Thermo Scientific
Instrument type: LC-ESI-ITFT
Ms type: MS2
Ion mode: POSITIVE
Ionization: ESI
Fragmentation mode: HCD
Collision energy: 75 % (nominal)
Resolution: 15000
Column name: XBridge C18 3.5um, 2.1x50mm, Waters
Retention time: 4.5 min
Base peak: 269.1062
Precursor m/z: 269.1051
Precursor type: [M+H]+
m/z	relative intensity	assigned
70.0652	6	C4H8N+
84.081	1	C5H10N+
86.9997	5	C4H4Cl+
88.0757	4	C4H10NO+
110.9995	7	C6H4Cl+
114.0915	23	C6H12NO+
129.0104	3	C6H6ClO+
138.9947	999	C7H4ClO+
139.0057	61	C6H4ClN2+
182.037	452	C9H9ClNO+
