Mass spectrum: Minocycline; LC-ESI-QFT; MS2; CE: 150; R=35000; [M-H]-
Name: Minocycline
Name: Minocin
Name: (4S,4aS,5aR,12aS)-4,7-Bis(dimethylamino)-3,10,12,12a-tetrahydroxy-1,11-dioxo-1,4,4a,5,5a,6,11,12a-octahydro-2-tetracenecarboxamide
Formula: C23H27N3O7
Exact mass: 457.18490
SMILES: [H][C@@]12CC3=C(C(O)=CC=C3N(C)C)C(=O)C1=C(O)[C@]1(O)C(=O)C(C(N)=O)=C(O)[C@@H](N(C)C)[C@]1([H])C2
InChI: InChI=1S/C23H27N3O7/c1-25(2)12-5-6-13(27)15-10(12)7-9-8-11-17(26(3)4)19(29)16(22(24)32)21(31)23(11,33)20(30)14(9)18(15)28/h5-6,9,11,17,27,29-30,33H,7-8H2,1-4H3,(H2,24,32)/t9-,11-,17-,23-/m0/s1
Instrument: Q Exactive Plus Orbitrap Thermo Scientific
Instrument type: LC-ESI-QFT
Ms type: MS2
Ion mode: NEGATIVE
Ionization: ESI
Fragmentation mode: HCD
Collision energy: 150 (nominal)
Resolution: 35000
Column name: XBridge C18 3.5um, 2.1x50mm, Waters
Retention time: 3.6 min
Base peak: 456.1772
Precursor m/z: 456.1776
Precursor type: [M-H]-
m/z	relative intensity	assigned
50.0035	185	C3N-
55.0188	32	C3H3O-
63.024	117	C5H3-
64.0192	17	C4H2N-
65.0033	196	C4HO-
65.0396	84	C5H5-
65.9985	999	C3NO-
67.0189	17	C4H3O-
68.0142	66	C3H2NO-
68.9982	161	C3HO2-
71.0138	15	C3H3O2-
76.0193	71	C5H2N-
78.0349	9	C5H4N-
79.0188	27	C5H3O-
84.009	51	C3H2NO2-
89.0396	31	C7H5-
90.0348	33	C6H4N-
91.0189	34	C6H3O-
93.0345	52	C6H5O-
96.0091	102	C4H2NO2-
107.0501	8	C7H7O-
108.0216	14	C6H4O2-
109.0294	65	C6H5O2-
114.0349	84	C8H4N-
116.0505	92	C8H6N-
117.0346	110	C8H5O-
118.0298	68	C7H4NO-
120.0454	29	C7H6NO-
128.0505	12	C9H6N-
130.0423	45	C9H6O-
131.0375	40	C8H5NO-
131.0503	15	C9H7O-
132.0453	15	C8H6NO-
134.0246	44	C7H4NO2-
134.0611	59	C8H8NO-
139.0147	7	C5H3N2O3-
140.0508	15	C10H6N-
142.0297	30	C9H4NO-
143.0503	9	C10H7O-
144.0454	649	C9H6NO-
145.0294	113	C9H5O2-
155.0376	55	C10H5NO-
156.0454	49	C10H6NO-
157.053	10	C10H7NO-
158.0371	64	C10H6O2-
158.0612	12	C10H8NO-
159.045	61	C10H7O2-
164.0507	15	C12H6N-
166.0663	12	C12H8N-
167.0501	42	C12H7O-
168.0453	47	C11H6NO-
170.0609	41	C11H8NO-
171.0452	29	C11H7O2-
172.0404	627	C10H6NO2-
173.0481	54	C10H7NO2-
180.0577	7	C13H8O-
181.0537	65	C12H7NO-
181.0659	6	C13H9O-
182.0371	15	C12H6O2-
182.0607	14	C12H8NO-
183.0323	13	C11H5NO2-
183.0452	9	C12H7O2-
184.0402	191	C11H6NO2-
186.056	135	C11H8NO2-
192.0454	45	C13H6NO-
194.0607	40	C13H8NO-
195.0448	56	C13H7O2-
196.0399	24	C12H6NO2-
197.0476	17	C12H7NO2-
198.0557	72	C12H8NO2-
204.0583	7	C15H8O-
205.0529	46	C14H7NO-
206.0609	30	C14H8NO-
208.0402	42	C13H6NO2-
209.0481	37	C13H7NO2-
210.0559	74	C13H8NO2-
211.0398	11	C13H7O3-
212.0344	9	C12H6NO3-
214.0504	38	C12H8NO3-
218.0614	11	C15H8NO-
220.0403	43	C14H6NO2-
221.0484	57	C14H7NO2-
222.056	54	C14H8NO2-
223.0646	7	C14H9NO2-
225.043	46	C13H7NO3-
226.0504	14	C13H8NO3-
233.0477	8	C15H7NO2-
234.0558	42	C15H8NO2-
236.0346	34	C14H6NO3-
237.0432	13	C14H7NO3-
238.0507	28	C14H8NO3-
249.0427	33	C15H7NO3-
250.0508	62	C15H8NO3-
254.0453	43	C14H8NO4-
