Mass spectrum: Thiazopyr; LC-ESI-QFT; MS2; CE: 30; R=35000; [M+H]+
Name: Thiazopyr
Name: 2-(difluoromethyl)-4-isobutyl-5-(2-thiazolin-2-yl)-6-(trifluoromethyl)nicotinic acid methyl ester
Formula: C16H17F5N2O2S
Exact mass: 396.09309
SMILES: FC(F)c2nc(c(C/1=N/CCS\1)c(c2C(=O)OC)CC(C)C)C(F)(F)F
InChI: InChI=1S/C16H17F5N2O2S/c1-7(2)6-8-9(15(24)25-3)11(13(17)18)23-12(16(19,20)21)10(8)14-22-4-5-26-14/h7,13H,4-6H2,1-3H3
Instrument: Q Exactive Orbitrap Thermo Scientific
Instrument type: LC-ESI-QFT
Ms type: MS2
Ion mode: POSITIVE
Ionization: ESI
Fragmentation mode: HCD
Collision energy: 30 (nominal)
Resolution: 35000
Column name: XBridge C18 3.5um, 2.1x50mm, Waters
Retention time: 12.9 min
Base peak: 397.0997
Precursor m/z: 397.1004
Precursor type: [M+H]+
m/z	relative intensity	assigned
61.0106	20	C2H5S+
75.0262	8	C3H7S+
222.0723	5	C12H10F2NO+
249.0829	3	C13H11F2N2O+
250.0669	13	C13H10F2NO2+
257.0711	3	C9H10F5N2O+
265.058	5	C13H8F3N2O+
269.0891	3	C13H12F3N2O+
272.069	2	C13H10F4NO+
276.0327	3	C16H5FN2O2+
277.0779	12	C14H11F2N2O2+
285.0638	19	C16H8F3N2+
297.0671	2	C14H12F3N2S+
297.0838	33	C14H12F3N2O2+
300.0168	2	C15H6F2N2OS+
300.0636	12	C14H10F4NO2+
303.0206	4	C12H7F4N2OS+
309.0858	1	C15H15F2N2OS+
315.0394	4	C16H9F2N2OS+
315.095	1	C12H16F5N2S+
317.0902	53	C14H13F4N2O2+
319.0147	1	C15H6F3N2OS+
320.0694	1	C14H11F5NO2+
322.0582	1	C15H12F2N2O2S+
325.0614	18	C15H12F3N2OS+
327.0587	1	C15H11F4N2S+
334.0387	4	C16H9F3N2OS+
335.0465	52	C16H10F3N2OS+
337.0801	16	C16H15F2N2O2S+
345.0673	3	C15H13F4N2OS+
357.0874	26	C16H16F3N2O2S+
377.0935	429	C16H17F4N2O2S+
397.0997	999	C16H18F5N2O2S+
