Mass spectrum: Pregabalin; LC-ESI-QFT; MS2; CE: 30; R=35000; [M+H]+
Name: Pregabalin
Name: (3S)-3-(aminomethyl)-5-methyl-hexanoic acid
Formula: C8H17NO2
Exact mass: 159.12593
SMILES: CC(C)C[C@H](CN)CC(O)=O
InChI: InChI=1S/C8H17NO2/c1-6(2)3-7(5-9)4-8(10)11/h6-7H,3-5,9H2,1-2H3,(H,10,11)/t7-/m0/s1
Instrument: Q Exactive Orbitrap Thermo Scientific
Instrument type: LC-ESI-QFT
Ms type: MS2
Ion mode: POSITIVE
Ionization: ESI
Fragmentation mode: HCD
Collision energy: 30 (nominal)
Resolution: 35000
Column name: XBridge C18 3.5um, 2.1x50mm, Waters
Retention time: 3.4 min
Base peak: 160.1332
Precursor m/z: 160.1332
Precursor type: [M+H]+
m/z	relative intensity	assigned
55.0179	163	C3H3O+
55.0543	404	C4H7+
57.0699	25	C4H9+
59.0492	50	C3H7O+
68.0494	65	C4H6N+
69.0335	64	C4H5O+
69.0698	62	C5H9+
79.0541	19	C6H7+
81.0697	17	C6H9+
83.0855	562	C6H11+
97.1012	532	C7H13+
107.0855	68	C8H11+
124.1121	156	C8H14N+
125.0961	190	C8H13O+
142.1228	999	C8H16NO+
143.1068	178	C8H15O2+
160.1332	302	C8H18NO2+
