Mass spectrum: Nuarimol; LC-ESI-QFT; MS2; CE: 75%; R=17500; [M+H]+
Name: Nuarimol
Name: (2-chlorophenyl)-(4-fluorophenyl)-pyrimidin-5-ylmethanol
Formula: C17H12ClFN2O
Exact mass: 314.0622
SMILES: C1=CC=C(C(=C1)C(C2=CC=C(C=C2)F)(C3=CN=CN=C3)O)Cl
InChI: InChI=1S/C17H12ClFN2O/c18-16-4-2-1-3-15(16)17(22,13-9-20-11-21-10-13)12-5-7-14(19)8-6-12/h1-11,22H
Instrument: Exploris 240 Orbitrap Thermo Scientific
Instrument type: LC-ESI-QFT
Ms type: MS2
Ion mode: POSITIVE
Ionization: ESI
Fragmentation mode: HCD
Collision energy: 75 % (nominal)
Resolution: 17500
Column name: XBridge C18 3.5um, 2.1x50mm, Waters
Retention time: 8.405 min
Base peak: 315.0692
Precursor m/z: 315.0695
Precursor type: [M+H]+
m/z	relative intensity	assigned
54.0338	219	C3H4N+
81.0447	999	C4H5N2+
123.0242	288	C7H4FO+
123.0351	37	C6H4FN2+
128.0495	13	C9H6N+
138.9944	538	C7H4ClO+
148.0552	13	C9H7FN+
177.0699	14	C14H9+
183.0599	32	C13H8F+
184.0674	22	C13H9F+
196.0685	40	C14H9F+
197.0757	24	C14H10F+
207.0604	303	C15H8F+
208.0681	151	C15H9F+
217.0206	43	C13H7ClF+
222.0713	85	C15H9FN+
224.087	87	C15H11FN+
225.0704	61	C15H10FO+
235.0317	15	C13H9ClFO+
235.0785	48	C16H10FN+
236.0628	91	C16H9FO+
243.0371	136	C15H9ClF+
252.0816	112	C16H11FNO+
262.0905	13	C17H11FN2+
