Mass spectrum: Dimethyl-phthalate; LC-ESI-QFT; MS2; CE: 120; R=35000; [M+H]+
Name: Dimethyl-phthalate
Name: Dimethyl phthalate
Name: Dimethyl benzene-1,2-dicarboxylate
Formula: C10H10O4
Exact mass: 194.05791
SMILES: COC(=O)C1=CC=CC=C1C(=O)OC
InChI: InChI=1S/C10H10O4/c1-13-9(11)7-5-3-4-6-8(7)10(12)14-2/h3-6H,1-2H3
Instrument: Q Exactive Plus Orbitrap Thermo Scientific
Instrument type: LC-ESI-QFT
Ms type: MS2
Ion mode: POSITIVE
Ionization: ESI
Fragmentation mode: HCD
Collision energy: 120 (nominal)
Resolution: 35000
Column name: XBridge C18 3.5um, 2.1x50mm, Waters
Retention time: 6.5 min
Base peak: 163.0386
Precursor m/z: 195.0652
Precursor type: [M+H]+
m/z	relative intensity	assigned
50.0151	87	C4H2+
51.023	143	C4H3+
53.0386	199	C4H5+
54.0464	15	C4H6+
55.0179	12	C3H3O+
62.015	5	C5H2+
63.0229	91	C5H3+
64.0308	113	C5H4+
65.0022	3	C4HO+
65.0386	9	C5H5+
66.0101	1	C4H2O+
66.0464	1	C5H6+
67.0542	3	C5H7+
77.0385	673	C6H5+
79.0542	36	C6H7+
80.0256	3	C5H4O+
81.0335	35	C5H5O+
91.0543	10	C7H7+
92.0257	999	C6H4O+
94.0413	12	C6H6O+
95.0492	646	C6H7O+
98.0363	1	C5H6O2+
105.0336	83	C7H5O+
105.0448	464	C6H5N2+
106.0417	1	C7H6O+
107.0492	1	C7H7O+
109.0648	3	C7H9O+
119.0127	1	C7H3O2+
120.0207	25	C7H4O2+
133.0284	29	C8H5O2+
135.044	28	C8H7O2+
138.0312	9	C7H6O3+
163.0391	5	C9H7O3+
