Mass spectrum: Benzenesulfonamide; LC-ESI-QFT; MS2; CE: 150; R=35000; [M-H]-
Name: Benzenesulfonamide
Name: Benzenesulfonimidic acid
Formula: C6H7NO2S
Exact mass: 157.01975
SMILES: c1ccc(cc1)S(=N)(=O)O
InChI: InChI=1S/C6H7NO2S/c7-10(8,9)6-4-2-1-3-5-6/h1-5H,(H2,7,8,9)
Instrument: Q Exactive Plus Orbitrap Thermo Scientific
Instrument type: LC-ESI-QFT
Ms type: MS2
Ion mode: NEGATIVE
Ionization: ESI
Fragmentation mode: HCD
Collision energy: 150 (nominal)
Resolution: 35000
Column name: XBridge C18 3.5um, 2.1x50mm, Waters
Retention time: 3.0 min
Base peak: 190.9282
Precursor m/z: 156.0125
Precursor type: [M-H]-
m/z	relative intensity	assigned
61.9706	616	NOS-
63.9625	999	O2S-
65.0396	27	C5H5-
77.9655	76	NO2S-
78.9734	171	HNO2S-
79.9574	24	O3S-
79.9812	36	H2NO2S-
80.9652	15	HO3S-
92.0506	35	C6H6N-
93.0346	7	C6H5O-
93.9604	132	NO3S-
