Mass spectrum: Ranitidine-S-oxide; LC-ESI-ITFT; MS2; CE: 35%; R=7500; [M+H]+
Name: Ranitidine-S-oxide
Name: 1,1-Ethenediamine, N-(2-(((5-((dimethylamino)methyl)-2-furanyl)methyl)sulfinyl)ethyl)-N'-methyl-2-nitro-
Formula: C13H22N4O4S
Exact mass: 330.1362
SMILES: [O-][N+](=O)\C=C(/NC)NCCS(=O)Cc1oc(cc1)CN(C)C
InChI: InChI=1S/C13H22N4O4S/c1-14-13(9-17(18)19)15-6-7-22(20)10-12-5-4-11(21-12)8-16(2)3/h4-5,9,14-15H,6-8,10H2,1-3H3/b13-9+
Instrument: LTQ Orbitrap XL Thermo Scientific
Instrument type: LC-ESI-ITFT
Ms type: MS2
Ion mode: POSITIVE
Ionization: ESI
Fragmentation mode: CID
Collision energy: 35 % (nominal)
Resolution: 7500
Column name: XBridge C18 3.5um, 2.1x50mm, Waters
Retention time: 0.8 min
Base peak: 331.1445
Precursor m/z: 331.1435
Precursor type: [M+H]+
m/z	relative intensity	assigned
94.0409	6	C6H6O+
95.0492	15	C6H7O+
102.0372	14	C4H8NS+
108.0807	25	C7H10N+
110.0965	215	C7H12N+
125.0055	40	C6H5OS+
130.0559	107	C5H10N2S+
138.0915	999	C8H12NO+
139.0988	5	C8H13NO+
140.107	21	C8H14NO+
143.0162	319	C6H7O2S+
144.0766	4	C5H10N3O2+
156.1019	382	C8H14NO2+
162.9942	4	C5HN5S+
170.0633	7	C8H12NOS+
176.0488	274	C13H6N+
188.0741	941	C8H14NO2S+
192.0437	25	C11H4N4+
222.0823	47	C11H14N2OS+
231.1161	9	C10H19N2O2S+
267.139	5	C13H21N3OS+
268.075	80	C11H14N3O3S+
286.0857	64	C11H16N3O4S+
313.1327	32	C13H21N4O3S+
