Mass spectrum: Fexofenadine; LC-ESI-QFT; MS2; CE: 45; R=35000; [M+H]+
Name: Fexofenadine
Name: 2-[4-[1-hydroxy-4-[4-[hydroxy(diphenyl)methyl]-1-piperidinyl]butyl]phenyl]-2-methylpropanoic acid
Formula: C32H39NO4
Exact mass: 501.28791
SMILES: CC(C)(C1=CC=C(C=C1)C(CCCN2CCC(CC2)C(C3=CC=CC=C3)(C4=CC=CC=C4)O)O)C(=O)O
InChI: InChI=1S/C32H39NO4/c1-31(2,30(35)36)25-17-15-24(16-18-25)29(34)14-9-21-33-22-19-28(20-23-33)32(37,26-10-5-3-6-11-26)27-12-7-4-8-13-27/h3-8,10-13,15-18,28-29,34,37H,9,14,19-23H2,1-2H3,(H,35,36)
Instrument: Q Exactive Orbitrap Thermo Scientific
Instrument type: LC-ESI-QFT
Ms type: MS2
Ion mode: POSITIVE
Ionization: ESI
Fragmentation mode: HCD
Collision energy: 45 (nominal)
Resolution: 35000
Column name: XBridge C18 3.5um, 2.1x50mm, Waters
Retention time: 8.2 min
Base peak: 502.2954
Precursor m/z: 502.2952
Precursor type: [M+H]+
m/z	relative intensity	assigned
59.0492	18	
68.0494	10	
70.0651	5	C4H8N+
80.0495	8	C5H6N+
82.0651	34	C5H8N+
83.073	7	C5H9N+
84.0809	2	C5H10N+
87.044	36	C4H7O2+
91.0542	110	C7H7+
94.0651	7	C6H8N+
95.0729	2	C6H9N+
96.0807	19	C6H10N+
98.0963	12	C6H12N+
103.0542	2	C8H7+
105.0698	18	C8H9+
107.0491	8	C7H7O+
109.0884	1	C7H11N+
110.0964	1	C7H12N+
111.1042	11	C7H13N+
115.0538	8	C9H7+
116.0619	2	C9H8+
117.0697	22	C9H9+
119.0855	1	C9H11+
120.0808	4	C8H10N+
121.0882	1	C8H11N+
122.0962	17	C8H12N+
124.112	20	C8H14N+
128.0619	9	C10H8+
129.0697	100	C10H9+
130.0777	6	C10H10+
131.0855	331	C10H11+
132.0807	6	C9H10N+
133.1012	5	C10H13+
134.0963	1	C9H12N+
141.07	6	C11H9+
142.0777	1	C11H10+
143.0855	78	C11H11+
145.1011	14	C11H13+
147.0804	4	C10H11O+
155.0853	10	C12H11+
156.0935	2	C12H12+
157.1013	6	C12H13+
159.1166	1	C12H15+
167.0857	17	C13H11+
169.1012	11	C13H13+
170.0965	5	C12H12N+
171.1167	999	C13H15+
172.1121	2	C12H14N+
173.1324	18	C13H17+
174.1277	1	C12H16N+
177.0909	30	C11H13O2+
178.0773	1	C14H10+
181.1012	10	C14H13+
183.1168	6	C14H15+
184.1122	2	C13H14N+
189.1274	25	C13H17O+
191.0702	34	C11H11O3+
191.0856	6	C15H11+
199.1119	8	C14H15O+
200.1432	6	C14H18N+
202.1587	1	C14H20N+
203.0857	1	C16H11+
204.0931	8	C16H12+
205.1012	14	C16H13+
212.143	1	C15H18N+
215.0856	1	C17H11+
216.0933	8	C17H12+
217.1221	8	C14H17O2+
218.109	4	C17H14+
219.1166	10	C17H15+
229.1011	1	C18H13+
231.1167	8	C18H15+
233.1172	73	C14H17O3+
246.1486	10	C15H20NO2+
247.136	1	C18H17N+
248.1434	4	C18H18N+
250.1591	36	C18H20N+
252.175	2	C18H22N+
258.1494	4	C16H20NO2+
260.1432	3	C19H18N+
260.1644	28	C16H22NO2+
262.159	138	C19H20N+
272.1645	16	C17H22NO2+
276.1604	1	C16H22NO3+
276.1742	3	C20H22N+
280.1696	8	C19H22NO+
288.1747	23	C21H22N+
298.1801	51	C19H24NO2+
300.1952	2	C19H26NO2+
450.2415	1	C31H32NO2+
466.2738	520	C32H36NO2+
484.2843	67	C32H38NO3+
502.2953	1	C32H40NO4+
