Mass spectrum: Nitrazepam; LC-ESI-QFT; MS2; CE: 60; R=35000; [M-H]-
Name: Nitrazepam
Name: 7-nitro-5-phenyl-1,3-dihydro-1,4-benzodiazepin-2-one
Formula: C15H11N3O3
Exact mass: 281.08004
SMILES: C1C(=O)NC2=C(C=C(C=C2)[N+](=O)[O-])C(=N1)C3=CC=CC=C3
InChI: InChI=1S/C15H11N3O3/c19-14-9-16-15(10-4-2-1-3-5-10)12-8-11(18(20)21)6-7-13(12)17-14/h1-8H,9H2,(H,17,19)
Instrument: Q Exactive Plus Orbitrap Thermo Scientific
Instrument type: LC-ESI-QFT
Ms type: MS2
Ion mode: NEGATIVE
Ionization: ESI
Fragmentation mode: HCD
Collision energy: 60 (nominal)
Resolution: 35000
Column name: XBridge C18 3.5um, 2.1x50mm, Waters
Retention time: 7.7 min
Base peak: 280.0723
Precursor m/z: 280.0728
Precursor type: [M-H]-
m/z	relative intensity	assigned
65.9986	1	C3NO-
68.0143	2	C3H2NO-
140.0506	1	C10H6N-
146.0246	1	C8H4NO2-
155.0251	1	C9H3N2O-
166.0662	31	C12H8N-
181.0536	2	C12H7NO-
182.0612	2	C12H8NO-
194.0611	304	C13H8NO-
195.0563	22	C12H7N2O-
196.0644	1	C12H8N2O-
205.0525	2	C14H7NO-
206.0612	22	C14H8NO-
207.0565	5	C13H7N2O-
207.069	5	C14H9NO-
208.0642	1	C13H8N2O-
209.0482	5	C13H7NO2-
210.0559	6	C13H8NO2-
221.048	1	C14H7NO2-
222.0561	908	C14H8NO2-
223.0518	3	C13H7N2O2-
223.0638	27	C14H9NO2-
224.0718	15	C14H10NO2-
232.0638	2	C15H8N2O-
235.0509	7	C14H7N2O2-
236.0588	6	C14H8N2O2-
251.0463	17	C14H7N2O3-
252.0541	999	C14H8N2O3-
253.0618	43	C14H9N2O3-
278.057	9	C15H8N3O3-
