Mass spectrum: Pyraclostrobin; LC-ESI-ITFT; MS2; CE: 60%; R=15000; [M+H]+
Name: Pyraclostrobin
Name: methyl [2-({[1-(4-chlorophenyl)-1H-pyrazol-3-yl]oxy}methyl)phenyl]methoxycarbamate
Formula: C19H18ClN3O4
Exact mass: 387.0986
SMILES: c1(ccc(n2ccc(OCc3c(cccc3)N(OC)C(OC)=O)n2)cc1)Cl
InChI: InChI=1S/C19H18ClN3O4/c1-25-19(24)23(26-2)17-6-4-3-5-14(17)13-27-18-11-12-22(21-18)16-9-7-15(20)8-10-16/h3-12H,13H2,1-2H3
Instrument: LTQ Orbitrap XL Thermo Scientific
Instrument type: LC-ESI-ITFT
Ms type: MS2
Ion mode: POSITIVE
Ionization: ESI
Fragmentation mode: HCD
Collision energy: 60 % (nominal)
Resolution: 15000
Column name: XBridge C18 3.5um, 2.1x50mm, Waters
Retention time: 13.4 min
Base peak: 388.1064
Precursor m/z: 388.1059
Precursor type: [M+H]+
m/z	relative intensity	assigned
75.044	6	C3H7O2+
77.0386	10	C6H5+
78.0464	9	C6H6+
79.0543	15	C6H7+
91.0542	58	C7H7+
104.0495	159	C7H6N+
105.0573	361	C7H7N+
106.0651	62	C7H8N+
107.0729	24	C7H9N+
116.05	15	C8H6N+
117.0574	17	C8H7N+
118.0652	53	C8H8N+
119.0366	183	C7H5NO+
120.0444	195	C7H6NO+
121.0648	71	C8H9O+
123.0678	22	C7H9NO+
128.0495	25	C9H6N+
130.0285	31	C8H4NO+
132.0444	320	C8H6NO+
133.0522	898	C8H7NO+
134.0239	12	C7H4NO2+
134.0601	89	C8H8NO+
138.0103	12	C7H5ClN+
146.0601	29	C6H11ClN2+
148.0393	24	C8H6NO2+
149.0472	612	C8H7NO2+
151.0623	11	C8H9NO2+
162.055	214	C9H8NO2+
163.0628	999	C9H9NO2+
164.0706	34	C9H10NO2+
204.0814	7	C15H10N+
218.0839	32	C15H10N2+
243.079	18	C12H16ClO3+
253.0521	26	C18H7NO+
296.0582	13	C19H8N2O2+
