Mass spectrum: Diazinon; LC-ESI-ITFT; MS2; CE: 30%; R=7500; [M+H]+
Name: Diazinon
Name: diethoxy-(2-isopropyl-6-methyl-pyrimidin-4-yl)oxy-thioxo-phosphorane
Formula: C12H21N2O3PS
Exact mass: 304.1011
SMILES: O(c1nc(nc(c1)C)C(C)C)P(OCC)(OCC)=S
InChI: InChI=1S/C12H21N2O3PS/c1-6-15-18(19,16-7-2)17-11-8-10(5)13-12(14-11)9(3)4/h8-9H,6-7H2,1-5H3
Instrument: LTQ Orbitrap XL Thermo Scientific
Instrument type: LC-ESI-ITFT
Ms type: MS2
Ion mode: POSITIVE
Ionization: ESI
Fragmentation mode: HCD
Collision energy: 30 % (nominal)
Resolution: 7500
Column name: XBridge C18 3.5um, 2.1x50mm, Waters
Retention time: 13.0 min
Base peak: 305.1095
Precursor m/z: 305.1083
Precursor type: [M+H]+
m/z	relative intensity	assigned
96.9507	35	H2O2PS+
114.9613	22	H4O3PS+
124.9824	14	C2H6O2PS+
153.1023	537	C8H13N2O+
169.0795	959	C8H13N2S+
181.1335	35	C10H17N2O+
197.1087	5	C11H18OP+
206.0938	6	C12H14O3+
305.1082	999	C12H22N2O3PS+
