Mass spectrum: Octocrylene; LC-ESI-QFT; MS2; CE: 120; R=35000; [M+H]+
Name: Octocrylene
Name: [(2R)-2-ethylhexyl] 2-cyano-3,3-diphenylprop-2-enoate
Formula: C24H27NO2
Exact mass: 361.20418
SMILES: C(\c1ccccc1)(c1ccccc1)=C(/C(OC[C@@H](CCCC)CC)=O)C#N
InChI: InChI=1S/C24H27NO2/c1-3-5-12-19(4-2)18-27-24(26)22(17-25)23(20-13-8-6-9-14-20)21-15-10-7-11-16-21/h6-11,13-16,19H,3-5,12,18H2,1-2H3/t19-/m1/s1
Instrument: Q Exactive Plus Orbitrap Thermo Scientific
Instrument type: LC-ESI-QFT
Ms type: MS2
Ion mode: POSITIVE
Ionization: ESI
Fragmentation mode: HCD
Collision energy: 120 (nominal)
Resolution: 35000
Column name: XBridge C18 3.5um, 2.1x50mm, Waters
Retention time: 17.2 min
Base peak: 250.086
Precursor m/z: 362.2115
Precursor type: [M+H]+
m/z	relative intensity	assigned
50.0151	42	C4H2+
51.023	134	C4H3+
53.0022	12	C3HO+
53.0386	107	C4H5+
55.0178	6	C3H3O+
55.0543	5	C4H7+
57.0699	21	C4H9+
63.0228	1	C5H3+
65.0022	1	C4HO+
67.9893	1	C3O2+
68.9971	12	C3HO2+
74.0151	5	C6H2+
75.0229	103	C6H3+
77.0385	174	C6H5+
81.0335	12	C5H5O+
89.0386	6	C7H5+
91.0542	2	C7H7+
94.0414	7	C6H6O+
95.0492	389	C6H7O+
99.023	5	C8H3+
100.0181	7	C7H2N+
101.0387	14	C8H5+
102.0465	7	C8H6+
103.0543	4	C8H7+
104.0495	70	C7H6N+
105.0335	41	C7H5O+
105.0448	226	C6H5N2+
113.0387	1	C9H5+
115.0541	6	C9H7+
119.0492	9	C8H7O+
125.0387	14	C10H5+
126.034	4	C9H4N+
126.0462	12	C10H6+
127.0543	13	C10H7+
128.0495	9	C9H6N+
128.0621	14	C10H8+
129.0335	31	C9H5O+
129.0447	29	C8H5N2+
130.0402	1	C7H4N3+
139.0542	9	C11H7+
140.0496	1	C10H6N+
143.0493	1	C10H7O+
145.0649	8	C10H9O+
149.0387	12	C12H5+
150.0465	166	C12H6+
151.0543	116	C12H7+
152.0621	156	C12H8+
153.0573	9	C11H7N+
154.04	4	C9H4N3+
155.0603	12	C10H7N2+
163.0543	21	C13H7+
164.0492	2	C12H6N+
164.0618	2	C13H8+
165.0697	16	C13H9+
167.0492	1	C12H7O+
168.057	2	C12H8O+
169.0649	354	C12H9O+
170.0603	1	C11H8NO+
174.0464	22	C14H6+
175.0417	2	C13H5N+
175.0542	44	C14H7+
176.0621	999	C14H8+
177.0574	152	C13H7N+
177.0696	63	C14H9+
178.0777	113	C14H10+
179.0604	120	C12H7N2+
183.0808	1	C13H11O+
185.0593	2	C12H9O2+
188.0497	1	C14H6N+
193.0649	55	C14H9O+
194.0601	16	C13H8NO+
201.0574	125	C15H7N+
202.0652	135	C15H8N+
203.0609	20	C14H7N2+
203.073	351	C15H9N+
204.0557	14	C13H6N3+
204.081	6	C15H10N+
220.0758	107	C15H10NO+
