Mass spectrum: Metribuzin-desamino; LC-ESI-QFT; MS2; CE: 90; R=35000; [M-H]-
Name: Metribuzin-desamino
Name: Deaminometribuzin
Name: 6-tert-butyl-3-(methylthio)-2H-1,2,4-triazin-5-one
Formula: C8H13N3OS
Exact mass: 199.27332
SMILES: CC(C)(C)C1=NNC(=NC1=O)SC
InChI: InChI=1S/C8H13N3OS/c1-8(2,3)5-6(12)9-7(13-4)11-10-5/h1-4H3,(H,9,11,12)
Instrument: Q Exactive Plus Orbitrap Thermo Scientific
Instrument type: LC-ESI-QFT
Ms type: MS2
Ion mode: NEGATIVE
Ionization: ESI
Fragmentation mode: HCD
Collision energy: 90 (nominal)
Resolution: 35000
Column name: XBridge C18 3.5um, 2.1x50mm, Waters
Retention time: 7.3 min
Base peak: 198.0703
Precursor m/z: 198.0707
Precursor type: [M-H]-
m/z	relative intensity	assigned
56.0016	17	CN2O-
57.9757	999	CNS-
59.9914	13	CH2NS-
68.0016	173	C2N2O-
69.0095	3	C2HN2O-
70.9836	13	C2HNS-
71.9788	146	CN2S-
81.0346	19	C5H5O-
87.0022	15	C2H3N2S-
94.0047	150	C3N3O-
97.0658	99	C6H9O-
125.9768	1	C3N3OS-
136.0515	77	C6H6N3O-
152.0832	1	C7H10N3O-
168.0237	36	C6H6N3OS-
182.0392	21	C7H8N3OS-
183.0472	10	C7H9N3OS-
198.0706	59	C8H12N3OS-
