Mass spectrum: Bifenazate-Diazene; LC-ESI-QFT; MS2; CE: 15%; R=17500; [M+H]+
Name: Bifenazate-Diazene
Name: propan-2-yl N-(2-methoxy-5-phenylphenyl)iminocarbamate
Formula: C17H18N2O3
Exact mass: 298.1317
SMILES: CC(C)OC(=O)N=NC1=C(C=CC(=C1)C2=CC=CC=C2)OC
InChI: InChI=1S/C17H18N2O3/c1-12(2)22-17(20)19-18-15-11-14(9-10-16(15)21-3)13-7-5-4-6-8-13/h4-12H,1-3H3
Instrument: Exploris 240 Orbitrap Thermo Scientific
Instrument type: LC-ESI-QFT
Ms type: MS2
Ion mode: POSITIVE
Ionization: ESI
Fragmentation mode: HCD
Collision energy: 15 % (nominal)
Resolution: 17500
Column name: XBridge C18 3.5um, 2.1x50mm, Waters
Retention time: 12.068 min
Base peak: 299.1387
Precursor m/z: 299.139
Precursor type: [M+H]+
m/z	relative intensity	assigned
170.0967	4	C12H12N+
183.0803	31	C13H11O+
184.0759	11	C12H10NO+
197.0832	9	C13H11NO+
198.0907	7	C13H12NO+
211.0865	56	C13H11N2O+
213.1021	999	C13H13N2O+
255.1491	199	C16H19N2O+
