Mass spectrum: Fluometuron; LC-ESI-QFT; MS2; CE: 30%; R=15000; [M-H]-
Name: Fluometuron
Name: 1,1-dimethyl-3-[3-(trifluoromethyl)phenyl]urea
Formula: C10H11F3N2O
Exact mass: 232.0823476
SMILES: CN(C)C(=O)NC1=CC=CC(=C1)C(F)(F)F
InChI: InChI=1S/C10H11F3N2O/c1-15(2)9(16)14-8-5-3-4-7(6-8)10(11,12)13/h3-6H,1-2H3,(H,14,16)
Instrument: Q Exactive Plus
Instrument type: LC-ESI-QFT
Ms type: MS2
Ion mode: NEGATIVE
Ionization: ESI
Fragmentation mode: HCD
Collision energy: 30 % (nominal)
Resolution: 15000
Column name: XBridge C18 3.5um, 2.1x50mm, Waters
Retention time: 7.120 min
Base peak: 231.075
Precursor m/z: 231.0751
Precursor type: [M-H]-
Precursor intensity: 94598997.04
m/z	relative intensity	assigned
160.0379	34	C7H5F3N-
186.0172	335	C8H3F3NO-
231.075	999	C10H10F3N2O-
