Mass spectrum: Flonicamid; LC-ESI-ITFT; MS2; CE: 90%; R=7500; [M+H]+
Name: Flonicamid
Name: N-(cyanomethyl)-4-(trifluoromethyl)-3-pyridinecarboxamide
Formula: C9H6F3N3O
Exact mass: 229.0463
SMILES: O=C(NCC#N)c1cnccc1C(F)(F)F
InChI: InChI=1S/C9H6F3N3O/c10-9(11,12)7-1-3-14-5-6(7)8(16)15-4-2-13/h1,3,5H,4H2,(H,15,16)
Instrument: LTQ Orbitrap XL Thermo Scientific
Instrument type: LC-ESI-ITFT
Ms type: MS2
Ion mode: POSITIVE
Ionization: ESI
Fragmentation mode: HCD
Collision energy: 90 % (nominal)
Resolution: 7500
Column name: XBridge C18 3.5um, 2.1x50mm, Waters
Retention time: 3.9 min
Base peak: 230.0537
Precursor m/z: 230.0536
Precursor type: [M+H]+
m/z	relative intensity	assigned
75.0041	11	C3HF2+
77.0199	2	C3H3F2+
78.0339	15	C5H4N+
79.0417	97	C5H5N+
83.0242	3	C3H3N2O+
96.0244	3	C5H3FN+
97.0323	2	C5H4FN+
98.0401	559	C5H5FN+
101.0197	100	C5H3F2+
103.0292	3	C6H3N2+
104.0132	9	C6H2NO+
105.0449	8	C6H5N2+
108.0244	13	C6H3FN+
110.0397	4	C6H5FN+
111.0314	37	C5H5NO2+
115.0229	7	C5H3F2N+
119.0102	20	C5H2F3+
121.026	11	C5H4F3+
124.0194	5	C6H3FNO+
126.0151	28	C6H2F2N+
126.035	49	C6H5FNO+
128.0306	245	C6H4F2N+
129.0385	145	C6H5F2N+
131.0236	5	C7H3N2O+
133.0264	2	C6H4F3+
134.0475	30	C7H6N2O+
135.0352	30	C7H4FN2+
136.0431	16	C7H5FN2+
140.0308	13	C7H4F2N+
142.0399	2	C8H4N3+
144.0255	66	C6H4F2NO+
146.0212	491	C6H3F3N+
147.029	152	C6H4F3N+
148.0368	999	C6H5F3N+
153.0457	14	C7H6FN2O+
155.0416	66	C7H5F2N2+
156.0254	11	C7H4F2NO+
161.0448	11	C7H6F3N+
162.0461	3	C8H5FN3+
163.0301	7	C8H4FN2O+
164.0317	46	C6H5F3NO+
173.0324	11	C7H4F3N2+
174.0157	76	C7H3F3NO+
175.0477	13	C7H6F3N2+
176.0316	108	C7H5F3NO+
179.0188	96	C6H4F3NO2+
183.0362	54	C8H5F2N2O+
185.0323	12	C8H4F3N2+
203.0433	29	C8H6F3N2O+
