Mass spectrum: Climbazol; LC-ESI-ITFT; MS2; CE: 90%; R=7500; [M+H]+
Name: Climbazol
Name: Climbazole
Name: 1-(4-chloranylphenoxy)-1-imidazol-1-yl-3,3-dimethyl-butan-2-one
Formula: C15H17ClN2O2
Exact mass: 292.0979
SMILES: CC(C)(C)C(=O)C(N1C=CN=C1)OC2=CC=C(C=C2)Cl
InChI: InChI=1S/C15H17ClN2O2/c1-15(2,3)13(19)14(18-9-8-17-10-18)20-12-6-4-11(16)5-7-12/h4-10,14H,1-3H3
Instrument: LTQ Orbitrap XL Thermo Scientific
Instrument type: LC-ESI-ITFT
Ms type: MS2
Ion mode: POSITIVE
Ionization: ESI
Fragmentation mode: HCD
Collision energy: 90 % (nominal)
Resolution: 7500
Column name: XBridge C18 3.5um, 2.1x50mm, Waters
Retention time: 8.1 min
Base peak: 293.1064
Precursor m/z: 293.1051
Precursor type: [M+H]+
m/z	relative intensity	assigned
55.0542	99	C4H7+
57.0698	342	C4H9+
65.0385	37	C5H5+
69.0699	301	C5H9+
70.0777	141	C5H10+
72.9837	44	C3H2Cl+
75.023	57	C6H3+
77.0387	124	C6H5+
81.0449	68	C4H5N2+
82.0523	53	C4H6N2+
91.0541	84	C7H7+
93.0336	35	C6H5O+
94.0411	71	C6H6O+
98.9996	999	C5H4Cl+
105.045	38	C6H5N2+
109.0395	117	C5H5N2O+
110.9995	146	C6H4Cl+
113.0152	94	C6H6Cl+
121.0402	38	C6H5N2O+
126.9945	347	C6H4ClO+
129.0102	142	C6H6ClO+
139.0057	737	C6H4ClN2+
141.01	161	C7H6ClO+
155.0262	40	C8H8ClO+
