Mass spectrum: 2-Hydroxybenzothiazole; LC-ESI-QFT; MS2; CE: 120; R=35000; [M+H]+
Name: 2-Hydroxybenzothiazole
Name: 2-Benzothiazolol
Name: 3H-1,3-benzothiazol-2-one
Formula: C7H5NOS
Exact mass: 151.00918
SMILES: C1=CC=C2C(=C1)NC(=O)S2
InChI: InChI=1S/C7H5NOS/c9-7-8-5-3-1-2-4-6(5)10-7/h1-4H,(H,8,9)
Instrument: Q Exactive Plus Orbitrap Thermo Scientific
Instrument type: LC-ESI-QFT
Ms type: MS2
Ion mode: POSITIVE
Ionization: ESI
Fragmentation mode: HCD
Collision energy: 120 (nominal)
Resolution: 35000
Column name: XBridge C18 3.5um, 2.1x50mm, Waters
Retention time: 6.4 min
Base peak: 152.0164
Precursor m/z: 152.0165
Precursor type: [M+H]+
m/z	relative intensity	assigned
50.015	1	C4H2+
51.0229	1	C4H3+
52.0181	1	C3H2N+
53.0022	6	C3HO+
53.0386	78	C4H5+
54.0464	7	C4H6+
56.0495	2	C3H6N+
62.0151	3	C5H2+
63.0229	122	C5H3+
64.0182	25	C4H2N+
64.0307	35	C5H4+
65.0386	754	C5H5+
67.0417	7	C4H5N+
67.9892	1	C3O2+
68.9793	79	C3HS+
70.995	1	C3H3S+
77.0385	2	C6H5+
78.0338	2	C5H4N+
78.0464	2	C6H6+
80.0494	999	C5H6N+
81.0335	15	C5H5O+
81.9872	1	C4H2S+
82.9949	6	C4H3S+
90.0339	305	C6H4N+
91.0417	346	C6H5N+
92.0495	138	C6H6N+
92.9793	6	C5HS+
96.0028	7	C5H4S+
96.0443	6	C5H6NO+
97.0107	144	C5H5S+
105.0448	1	C6H5N2+
106.0286	1	C6H4NO+
106.995	33	C6H3S+
108.0028	24	C6H4S+
108.0443	7	C6H6NO+
109.0107	284	C6H5S+
110.0186	1	C6H6S+
119.0366	270	C7H5NO+
122.006	1	C6H4NS+
123.0137	3	C6H5NS+
124.0216	150	C6H6NS+
132.998	7	C7H3NS+
134.0059	60	C7H4NS+
135.0011	2	C6H3N2S+
146.0347	2	C7H4N3O+
150.0008	1	C7H4NOS+
152.0165	58	C7H6NOS+
