Mass spectrum: Ritalinic acid; LC-ESI-ITFT; MS2; CE: 75%; R=15000; [M+H]+
Name: Ritalinic acid
Name: 2-phenyl-2-(2-piperidinyl)acetic acid
Formula: C13H17NO2
Exact mass: 219.1259
SMILES: c(ccc1C(C(=O)O)C(NCC2)CC2)cc1
InChI: InChI=1S/C13H17NO2/c15-13(16)12(10-6-2-1-3-7-10)11-8-4-5-9-14-11/h1-3,6-7,11-12,14H,4-5,8-9H2,(H,15,16)
Instrument: LTQ Orbitrap XL Thermo Scientific
Instrument type: LC-ESI-ITFT
Ms type: MS2
Ion mode: POSITIVE
Ionization: ESI
Fragmentation mode: HCD
Collision energy: 75 % (nominal)
Resolution: 15000
Column name: XBridge C18 3.5um, 2.1x50mm, Waters
Retention time: 4.7 min
Base peak: 220.1341
Precursor m/z: 220.1332
Precursor type: [M+H]+
m/z	relative intensity	assigned
56.0495	10	C3H6N+
67.0544	1	C5H7+
70.0652	4	C4H8N+
82.0652	1	C5H8N+
83.073	2	C5H9N+
84.0809	999	C5H10N+
91.0543	26	C7H7+
96.081	2	C6H10N+
115.0542	5	C9H7+
117.0697	2	C9H9+
129.0699	19	C10H9+
131.0855	2	C10H11+
146.0964	9	C10H12N+
174.1278	47	C12H16N+
