Mass spectrum: Zopiclone; LC-ESI-QFT; MS2; CE: 60; R=35000; [M+H]+
Name: Zopiclone
Name: [6-(5-chloropyridin-2-yl)-5-oxo-7H-pyrrolo[3,4-b]pyrazin-7-yl] 4-methylpiperazine-1-carboxylate
Formula: C17H17ClN6O3
Exact mass: 388.10507
SMILES: CN1CCN(CC1)C(=O)OC2C3=NC=CN=C3C(=O)N2C4=NC=C(C=C4)Cl
InChI: InChI=1S/C17H17ClN6O3/c1-22-6-8-23(9-7-22)17(26)27-16-14-13(19-4-5-20-14)15(25)24(16)12-3-2-11(18)10-21-12/h2-5,10,16H,6-9H2,1H3
Instrument: Q Exactive Plus Orbitrap Thermo Scientific
Instrument type: LC-ESI-QFT
Ms type: MS2
Ion mode: POSITIVE
Ionization: ESI
Fragmentation mode: HCD
Collision energy: 60 (nominal)
Resolution: 35000
Column name: XBridge C18 3.5um, 2.1x50mm, Waters
Retention time: 4.6 min
Base peak: 389.1117
Precursor m/z: 389.1123
Precursor type: [M+H]+
m/z	relative intensity	assigned
56.0495	3	C3H6N+
58.0651	1	C3H8N+
70.0651	5	C4H8N+
76.018	5	C5H2N+
79.0291	1	C4H3N2+
83.0603	1	C4H7N2+
84.0682	2	C4H8N2+
94.0288	1	C5H4NO+
97.0396	1	C4H5N2O+
97.0761	6	C5H9N2+
98.0839	10	C5H10N2+
99.0917	10	C5H11N2+
111.9948	40	C5H3ClN+
130.0055	333	C5H5ClNO+
139.0058	301	C6H4ClN2+
143.0816	2	C6H11N2O2+
144.0211	1	C6H7ClNO+
152.0137	2	C7H5ClN2+
154.0403	3	C9H4N3+
156.0557	1	C9H6N3+
157.0164	87	C6H6ClN2O+
163.0059	8	C8H4ClN2+
171.032	3	C7H8ClN2O+
172.0505	4	C9H6N3O+
174.0661	1	C9H8N3O+
181.0509	26	C10H5N4+
182.0588	16	C10H6N4+
190.0167	64	C9H5ClN3+
199.0613	3	C10H7N4O+
202.0848	1	C10H10N4O+
210.0539	1	C8H9ClN5+
214.0495	1	C7H9ClN5O+
217.0277	999	C10H6ClN4+
219.0433	1	C10H8ClN4+
245.0226	93	C11H6ClN4O+
247.0384	2	C11H8ClN4O+
263.0332	7	C11H8ClN4O2+
277.0485	1	C12H10ClN4O2+
