Mass spectrum: Minocycline; LC-ESI-QFT; MS2; CE: 30; R=35000; [M+H]+
Name: Minocycline
Name: Minocin
Name: (4S,4aS,5aR,12aS)-4,7-Bis(dimethylamino)-3,10,12,12a-tetrahydroxy-1,11-dioxo-1,4,4a,5,5a,6,11,12a-octahydro-2-tetracenecarboxamide
Formula: C23H27N3O7
Exact mass: 457.18490
SMILES: [H][C@@]12CC3=C(C(O)=CC=C3N(C)C)C(=O)C1=C(O)[C@]1(O)C(=O)C(C(N)=O)=C(O)[C@@H](N(C)C)[C@]1([H])C2
InChI: InChI=1S/C23H27N3O7/c1-25(2)12-5-6-13(27)15-10(12)7-9-8-11-17(26(3)4)19(29)16(22(24)32)21(31)23(11,33)20(30)14(9)18(15)28/h5-6,9,11,17,27,29-30,33H,7-8H2,1-4H3,(H2,24,32)/t9-,11-,17-,23-/m0/s1
Instrument: Q Exactive Plus Orbitrap Thermo Scientific
Instrument type: LC-ESI-QFT
Ms type: MS2
Ion mode: POSITIVE
Ionization: ESI
Fragmentation mode: HCD
Collision energy: 30 (nominal)
Resolution: 35000
Column name: XBridge C18 3.5um, 2.1x50mm, Waters
Retention time: 3.7 min
Base peak: 229.5995
Precursor m/z: 458.1922
Precursor type: [M+H]+
m/z	relative intensity	assigned
58.065	2	C3H8N+
84.0807	2	C5H10N+
98.0599	3	C5H8NO+
126.0548	4	C6H8NO2+
154.0497	33	C7H8NO3+
194.0812	1	C10H12NO3+
210.0758	1	C10H12NO4+
215.0572	1	C12H9NO3+
220.0603	1	C11H10NO4+
230.081	3	C13H12NO3+
283.083	3	C16H13NO4+
288.1226	2	C16H18NO4+
298.1073	6	C17H16NO4+
300.1225	5	C17H18NO4+
312.1222	1	C18H18NO4+
316.119	1	C17H18NO5+
324.1228	6	C19H18NO4+
328.1167	1	C18H18NO5+
337.094	9	C19H15NO5+
340.1173	3	C19H18NO5+
345.1816	1	C19H25N2O4+
350.1015	2	C20H16NO5+
352.1178	88	C20H18NO5+
353.0891	5	C19H15NO6+
367.1652	6	C21H23N2O4+
368.113	7	C20H18NO6+
369.1794	1	C21H25N2O4+
378.0971	2	C21H16NO6+
380.1124	3	C21H18NO6+
380.1365	5	C21H20N2O5+
381.084	1	C20H15NO7+
395.16	27	C22H23N2O5+
396.1076	20	C21H18NO7+
408.1311	10	C22H20N2O6+
413.1705	11	C22H25N2O6+
414.1187	2	C21H20NO8+
423.155	86	C23H23N2O6+
441.1652	999	C23H25N2O7+
458.1912	3	C23H28N3O7+
473.1905	2	C22H27N5O7+
