Mass spectrum: Cortisone; LC-ESI-QFT; MS2; CE: 150; R=35000; [M+H]+
Name: Cortisone
Name: 17,21-Dihydroxypregn-4-ene-3,11,20-trione
Name: (8S,9S,10R,13S,14S,17R)-17-hydroxy-17-(2-hydroxyacetyl)-10,13-dimethyl-1,2,6,7,8,9,12,14,15,16-decahydrocyclopenta[a]phenanthrene-3,11-dione
Formula: C21H28O5
Exact mass: 360.19367
SMILES: O=C(CO)[C@@]3(O)CC[C@H]2[C@@H]4CC\C1=C\C(=O)CC[C@]1(C)[C@H]4C(=O)C[C@@]23C
InChI: InChI=1S/C21H28O5/c1-19-7-5-13(23)9-12(19)3-4-14-15-6-8-21(26,17(25)11-22)20(15,2)10-16(24)18(14)19/h9,14-15,18,22,26H,3-8,10-11H2,1-2H3/t14-,15-,18+,19-,20-,21-/m0/s1
Instrument: Q Exactive Plus Orbitrap Thermo Scientific
Instrument type: LC-ESI-QFT
Ms type: MS2
Ion mode: POSITIVE
Ionization: ESI
Fragmentation mode: HCD
Collision energy: 150 (nominal)
Resolution: 35000
Column name: XBridge C18 3.5um, 2.1x50mm, Waters
Retention time: 7.3 min
Base peak: 361.2008
Precursor m/z: 361.201
Precursor type: [M+H]+
m/z	relative intensity	assigned
50.0151	78	C4H2+
51.023	84	C4H3+
53.0022	34	C3HO+
53.0386	206	C4H5+
53.9975	7	C2NO+
55.0179	100	C3H3O+
55.0543	102	C4H7+
57.0335	10	C3H5O+
62.0151	1	C5H2+
63.0229	24	C5H3+
65.0386	407	C5H5+
66.0464	19	C5H6+
67.0542	109	C5H7+
67.9893	3	C3O2+
69.0335	11	C4H5O+
69.0698	8	C5H9+
75.0228	6	C6H3+
76.0307	1	C6H4+
77.0386	224	C6H5+
78.0464	100	C6H6+
79.0542	403	C6H7+
80.0621	5	C6H8+
81.0335	42	C5H5O+
81.0699	41	C6H9+
82.0413	6	C5H6O+
83.0491	64	C5H7O+
89.0386	36	C7H5+
90.0463	3	C7H6+
91.0543	999	C7H7+
92.0621	11	C7H8+
93.07	27	C7H9+
94.0414	30	C6H6O+
95.0492	579	C6H7O+
97.0649	23	C6H9O+
102.0465	44	C8H6+
103.0543	174	C8H7+
104.0621	33	C8H8+
105.0448	316	C6H5N2+
105.0699	197	C8H9+
107.0492	76	C7H7O+
108.0569	2	C7H8O+
109.0649	11	C7H9O+
115.0543	599	C9H7+
116.0621	54	C9H8+
117.0699	89	C9H9+
118.0418	1	C8H6O+
119.0492	13	C8H7O+
119.0605	2	C7H7N2+
119.0856	19	C9H11+
120.0571	2	C8H8O+
121.0648	20	C8H9O+
126.0464	12	C10H6+
127.0543	42	C10H7+
128.0621	444	C10H8+
129.0699	157	C10H9+
130.0776	17	C10H10+
131.0492	45	C9H7O+
131.0855	10	C10H11+
132.057	19	C9H8O+
133.0649	49	C9H9O+
139.0542	19	C11H7+
140.0623	1	C11H8+
141.0699	167	C11H9+
142.0779	18	C11H10+
143.0857	8	C11H11+
144.0568	12	C10H8O+
145.0649	50	C10H9O+
146.0726	2	C10H10O+
147.0805	97	C10H11O+
148.0882	8	C10H12O+
150.0466	4	C12H6+
151.0549	2	C12H7+
152.0621	156	C12H8+
153.0699	105	C12H9+
154.0777	17	C12H10+
155.0604	76	C10H7N2+
155.0856	20	C12H11+
157.0649	8	C11H9O+
158.0729	1	C11H10O+
159.0807	1	C11H11O+
163.0543	6	C13H7+
164.0617	8	C13H8+
165.07	198	C13H9+
166.0777	18	C13H10+
167.0855	22	C13H11+
168.0571	8	C12H8O+
168.0928	1	C13H12+
169.0648	20	C12H9O+
171.0805	1	C12H11O+
176.0621	15	C14H8+
177.0698	14	C14H9+
178.0778	89	C14H10+
179.0605	5	C12H7N2+
179.0857	18	C14H11+
181.0648	10	C13H9O+
181.1011	2	C14H13+
184.0876	1	C13H12O+
189.07	51	C15H9+
190.0777	15	C15H10+
191.0857	21	C15H11+
192.0932	2	C15H12+
196.0519	1	C13H8O2+
200.062	1	C16H8+
201.0701	1	C16H9+
202.0777	22	C16H10+
203.0856	7	C16H11+
205.0652	1	C15H9O+
215.0858	8	C17H11+
