Mass spectrum: Lincomycin; LC-ESI-QFT; MS2; CE: 45; R=35000; [M-H]-
Name: Lincomycin
Name: N-[2-hydroxy-1-(3,4,5-trihydroxy-6-methylsulfanyloxan-2-yl)propyl]-1-methyl-4-propylpyrrolidine-2-carboxamide
Formula: C18H34N2O6S
Exact mass: 406.21376
SMILES: CCCC1CC(N(C1)C)C(=O)NC(C2C(C(C(C(O2)SC)O)O)O)C(C)O
InChI: InChI=1S/C18H34N2O6S/c1-5-6-10-7-11(20(3)8-10)17(25)19-12(9(2)21)16-14(23)13(22)15(24)18(26-16)27-4/h9-16,18,21-24H,5-8H2,1-4H3,(H,19,25)
Instrument: Q Exactive Plus Orbitrap Thermo Scientific
Instrument type: LC-ESI-QFT
Ms type: MS2
Ion mode: NEGATIVE
Ionization: ESI
Fragmentation mode: HCD
Collision energy: 45 (nominal)
Resolution: 35000
Column name: XBridge C18 3.5um, 2.1x50mm, Waters
Retention time: 3.7 min
Base peak: 451.2115
Precursor m/z: 405.2065
Precursor type: [M-H]-
m/z	relative intensity	assigned
55.0189	8	C3H3O-
57.0346	14	C3H5O-
58.006	1	C2H2O2-
58.0298	2	C2H4NO-
59.0138	65	C2H3O2-
65.0397	3	C5H5-
66.0349	1	C4H4N-
67.0189	2	C4H3O-
68.0142	1	C3H2NO-
68.9982	19	C3HO2-
69.0346	34	C4H5O-
70.0299	4	C3H4NO-
71.0139	450	C3H3O2-
72.9932	7	C2HO3-
73.0296	17	C3H5O2-
73.9832	2	C2H2OS-
75.0088	3	C2H3O3-
79.019	4	C5H3O-
80.0506	21	C5H6N-
81.022	13	C4H3NO-
81.0345	117	C5H5O-
82.0298	6	C4H4NO-
83.0138	18	C4H3O2-
83.0502	100	C5H7O-
84.0216	5	C4H4O2-
84.0455	3	C4H6NO-
85.0295	301	C4H5O2-
86.0247	1	C3H4NO2-
87.0087	33	C3H3O3-
88.9703	2	C2HO2S-
89.0067	4	C3H5OS-
89.0244	15	C3H5O3-
93.0345	3	C6H5O-
94.0298	7	C5H4NO-
95.0138	17	C5H3O2-
95.0502	3	C6H7O-
96.0217	4	C5H4O2-
96.0454	5	C5H6NO-
97.0294	97	C5H5O2-
98.0247	2	C4H4NO2-
98.0612	1	C5H8NO-
99.0451	91	C5H7O2-
99.9988	2	C4H4OS-
100.0404	3	C4H6NO2-
101.0244	5	C4H5O3-
101.978	13	C3H2O2S-
105.0219	15	C6H3NO-
106.0298	4	C6H4NO-
107.0139	2	C6H3O2-
107.0377	5	C6H5NO-
107.0502	3	C7H7O-
108.0217	21	C6H4O2-
108.0455	6	C6H6NO-
109.0169	28	C5H3NO2-
109.0294	101	C6H5O2-
110.0247	9	C5H4NO2-
110.0611	1	C6H8NO-
111.0087	2	C5H3O3-
111.0451	34	C6H7O2-
112.0166	1	C5H4O3-
112.0405	2	C5H6NO2-
113.0244	15	C5H5O3-
115.04	46	C5H7O3-
117.0016	17	C4H5O2S-
120.0455	1	C7H6NO-
122.0247	4	C6H4NO2-
123.0325	4	C6H5NO2-
123.0451	4	C7H7O2-
124.0403	57	C6H6NO2-
125.0243	15	C6H5O3-
126.056	8	C6H8NO2-
126.0924	5	C7H12NO-
126.9859	9	C5H3O2S-
127.04	94	C6H7O3-
129.0558	3	C6H9O3-
133.0167	2	C7H3NO2-
134.0246	5	C7H4NO2-
135.0325	1	C7H5NO2-
137.0066	1	C7H5OS-
138.0018	5	C6H4NOS-
138.0196	3	C6H4NO3-
139.0096	1	C6H5NOS-
139.9937	1	C6H4O2S-
147.0326	1	C8H5NO2-
150.0198	1	C7H4NO3-
151.0274	9	C7H5NO3-
151.0402	3	C8H7O3-
152.1084	1	C9H14NO-
153.0431	3	C7H7NO3-
154.0331	1	C7H8NOS-
165.9968	11	C7H4NO2S-
166.124	2	C10H16NO-
168.1395	4	C10H18NO-
169.1346	999	C9H17N2O-
170.1186	192	C9H16NO2-
182.1548	5	C11H20NO-
184.1343	2	C10H18NO2-
191.1554	1	C12H19N2-
193.1347	2	C11H17N2O-
195.1501	24	C11H19N2O-
197.1295	29	C10H17N2O2-
207.1502	11	C12H19N2O-
209.1294	5	C11H17N2O2-
209.1659	104	C12H21N2O-
211.1452	24	C11H19N2O2-
212.1293	4	C11H18NO3-
217.1339	1	C13H17N2O-
219.1504	1	C13H19N2O-
221.1656	2	C13H21N2O-
223.1452	49	C12H19N2O2-
223.1815	5	C13H23N2O-
224.1531	1	C12H20N2O2-
225.1246	4	C11H17N2O3-
225.1608	42	C12H21N2O2-
231.15	4	C14H19N2O-
233.1659	26	C14H21N2O-
235.1451	35	C13H19N2O2-
237.1608	70	C13H21N2O2-
239.1402	1	C12H19N2O3-
239.1765	14	C13H23N2O2-
241.1558	1	C12H21N2O3-
247.1452	1	C14H19N2O2-
249.1608	16	C14H21N2O2-
251.1764	3	C14H23N2O2-
253.1557	75	C13H21N2O3-
259.1451	73	C15H19N2O2-
260.1533	1	C15H20N2O2-
261.1608	4	C15H21N2O2-
263.1764	7	C15H23N2O2-
265.1558	9	C14H21N2O3-
267.1712	1	C14H23N2O3-
277.1556	39	C15H21N2O3-
279.1711	2	C15H23N2O3-
292.1251	9	C15H20N2O2S-
310.1357	6	C15H22N2O3S-
325.1591	4	C16H25N2O3S-
