Mass spectrum: Bexarotene; LC-ESI-QFT; MS2; CE: 75; R=35000; [M+H]+
Name: Bexarotene
Name: 4-[1-(3,5,5,8,8-pentamethyl-6,7-dihydronaphthalen-2-yl)ethenyl]benzoic acid
Formula: C24H28O2
Exact mass: 348.20893
SMILES: CC1=CC2=C(C=C1C(=C)C3=CC=C(C=C3)C(=O)O)C(CCC2(C)C)(C)C
InChI: InChI=1S/C24H28O2/c1-15-13-20-21(24(5,6)12-11-23(20,3)4)14-19(15)16(2)17-7-9-18(10-8-17)22(25)26/h7-10,13-14H,2,11-12H2,1,3-6H3,(H,25,26)
Instrument: Q Exactive Orbitrap Thermo Scientific
Instrument type: LC-ESI-QFT
Ms type: MS2
Ion mode: POSITIVE
Ionization: ESI
Fragmentation mode: HCD
Collision energy: 75 (nominal)
Resolution: 35000
Column name: XBridge C18 3.5um, 2.1x50mm, Waters
Retention time: 19.0 min
Base peak: 349.2162
Precursor m/z: 349.2162
Precursor type: [M+H]+
m/z	relative intensity	assigned
53.0022	3	C3HO+
53.0386	2	C4H5+
55.0543	2	C4H7+
57.0699	13	C4H9+
65.0386	15	C5H5+
67.0542	22	C5H7+
69.0698	323	C5H9+
71.0853	2	C5H11+
77.0385	35	C6H5+
79.0542	60	C6H7+
81.0334	1	C5H5O+
81.0698	9	C6H9+
83.0855	16	C6H11+
91.0542	225	C7H7+
93.0698	9	C7H9+
95.0491	122	C6H7O+
102.0464	34	C8H6+
103.0542	651	C8H7+
105.0447	53	C6H5N2+
105.0698	215	C8H9+
107.0491	108	C7H7O+
111.1166	3	C8H15+
115.0541	120	C9H7+
116.0619	12	C9H8+
117.0698	131	C9H9+
119.0491	56	C8H7O+
119.0855	31	C9H11+
127.054	3	C10H7+
128.062	179	C10H8+
129.0334	62	C9H5O+
129.0698	259	C10H9+
130.0778	11	C10H10+
131.0491	32	C9H7O+
131.0855	34	C10H11+
133.0285	12	C8H5O2+
133.1012	16	C10H13+
135.0439	223	C8H7O2+
141.0698	88	C11H9+
142.0778	112	C11H10+
143.0856	101	C11H11+
144.0934	9	C11H12+
145.0649	14	C10H9O+
145.1012	25	C11H13+
147.044	999	C9H7O2+
149.0237	2	C8H5O3+
149.0598	37	C9H9O2+
152.0617	5	C12H8+
153.0695	17	C12H9+
154.0777	13	C12H10+
155.0604	17	C10H7N2+
155.0854	79	C12H11+
156.0933	54	C12H12+
157.1012	85	C12H13+
158.109	7	C12H14+
159.0441	7	C10H7O2+
159.117	12	C12H15+
165.0698	58	C13H9+
166.0775	19	C13H10+
167.0854	21	C13H11+
168.0933	24	C13H12+
169.1012	58	C13H13+
170.1089	35	C13H14+
171.1167	41	C13H15+
173.0595	3	C11H9O2+
173.1325	7	C13H17+
176.0615	1	C14H8+
177.07	2	C14H9+
178.0776	187	C14H10+
179.0855	87	C14H11+
180.0933	15	C14H12+
181.1012	9	C14H13+
182.1088	15	C14H14+
183.1168	65	C14H15+
184.1247	13	C14H16+
185.0599	2	C12H9O2+
185.1324	12	C14H17+
189.0695	14	C15H9+
190.0777	46	C15H10+
191.0855	326	C15H11+
192.0933	328	C15H12+
193.1011	53	C15H13+
194.0732	2	C14H10O+
194.1088	2	C15H14+
195.0805	2	C14H11O+
195.1167	8	C15H15+
197.1324	111	C15H17+
199.1483	8	C15H19+
202.0775	21	C16H10+
203.0854	63	C16H11+
204.0934	89	C16H12+
205.1012	168	C16H13+
206.109	77	C16H14+
207.0807	3	C15H11O+
207.117	22	C16H15+
209.0599	2	C14H9O2+
211.1478	10	C16H19+
212.156	17	C16H20+
215.0856	20	C17H11+
216.0936	17	C17H12+
217.1012	58	C17H13+
218.0732	11	C16H10O+
218.109	75	C17H14+
219.0806	13	C16H11O+
219.1168	106	C17H15+
220.0877	2	C16H12O+
220.1246	15	C17H16+
221.0958	9	C16H13O+
221.1322	2	C17H17+
222.0674	9	C15H10O2+
223.0753	9	C15H11O2+
223.1114	1	C16H15O+
228.0926	6	C18H12+
229.1007	14	C18H13+
230.1091	24	C18H14+
231.0801	13	C17H11O+
231.1168	75	C18H15+
232.0881	5	C17H12O+
232.1247	38	C18H16+
233.0961	13	C17H13O+
233.1325	34	C18H17+
234.1405	7	C18H18+
235.0753	32	C16H11O2+
236.0831	50	C16H12O2+
237.0906	5	C16H13O2+
243.1168	7	C19H15+
244.1245	13	C19H16+
245.0964	13	C18H13O+
245.1325	62	C19H17+
246.1038	9	C18H14O+
246.1403	24	C19H18+
247.112	9	C18H15O+
247.1483	12	C19H19+
249.0909	39	C17H13O2+
250.099	18	C17H14O2+
251.1066	88	C17H15O2+
257.0962	6	C19H13O+
258.1038	3	C19H14O+
258.1407	1	C20H18+
259.112	8	C19H15O+
259.1483	27	C20H19+
260.1194	2	C19H16O+
260.1558	6	C20H20+
261.091	8	C18H13O2+
261.1273	11	C19H17O+
261.1643	2	C20H21+
262.0987	6	C18H14O2+
263.1066	45	C18H15O2+
264.1142	11	C18H16O2+
265.1224	10	C18H17O2+
272.1193	3	C20H16O+
273.1271	3	C20H17O+
273.1638	8	C21H21+
274.1716	2	C21H22+
275.1067	34	C19H15O2+
275.1797	2	C21H23+
276.1146	18	C19H16O2+
277.1221	19	C19H17O2+
278.13	3	C19H18O2+
279.1379	20	C19H19O2+
287.1425	2	C21H19O+
289.1221	22	C20H17O2+
289.1958	2	C22H25+
290.13	55	C20H18O2+
291.1381	17	C20H19O2+
301.1591	3	C22H21O+
304.146	15	C21H20O2+
305.1535	36	C21H21O2+
319.1691	62	C22H23O2+
333.1858	1	C23H25O2+
