Mass spectrum: Benalaxyl; LC-ESI-QFT; MS2; CE: 75; R=35000; [M+H]+
Name: Benalaxyl
Name: 2-(2,6-dimethyl-N-(1-oxo-2-phenylethyl)anilino)propanoic acid methyl ester
Formula: C20H23NO3
Exact mass: 325.16779
SMILES: O=C(N(c1c(cccc1C)C)C(C(=O)OC)C)Cc2ccccc2
InChI: InChI=1S/C20H23NO3/c1-14-9-8-10-15(2)19(14)21(16(3)20(23)24-4)18(22)13-17-11-6-5-7-12-17/h5-12,16H,13H2,1-4H3
Instrument: Q Exactive Orbitrap Thermo Scientific
Instrument type: LC-ESI-QFT
Ms type: MS2
Ion mode: POSITIVE
Ionization: ESI
Fragmentation mode: HCD
Collision energy: 75 (nominal)
Resolution: 35000
Column name: XBridge C18 3.5um, 2.1x50mm, Waters
Retention time: 13.0 min
Base peak: 326.1754
Precursor m/z: 326.1751
Precursor type: [M+H]+
m/z	relative intensity	assigned
63.0229	1	C5H3+
65.0386	31	C5H5+
77.0383	1	C6H5+
79.0543	6	C6H7+
91.0543	999	C7H7+
95.0492	1	C6H7O+
103.0543	4	C8H7+
105.0699	38	C8H9+
106.0652	59	C7H8N+
106.0777	3	C8H10+
107.073	12	C7H9N+
107.0854	4	C8H11+
116.0621	2	C9H8+
118.0651	16	C8H8N+
119.0857	11	C9H11+
120.0809	31	C8H10N+
121.0886	518	C8H11N+
122.0964	18	C8H12N+
123.0803	1	C8H11O+
129.0698	2	C10H9+
131.0857	13	C10H11+
132.081	7	C9H10N+
133.0887	45	C9H11N+
134.0962	1	C9H12N+
146.0965	5	C10H12N+
148.1122	740	C10H14N+
196.1121	3	C14H14N+
