Mass spectrum: Thiamphenicol; LC-ESI-QFT; MS2; CE: 30; R=35000; [M-H]-
Name: Thiamphenicol
Name: 2,2-dichloro-N-[1,3-dihydroxy-1-(4-methylsulfonylphenyl)propan-2-yl]acetamide
Formula: C12H15Cl2NO5S
Exact mass: 355.00480
SMILES: CS(=O)(=O)C1=CC=C(C=C1)C(C(CO)NC(=O)C(Cl)Cl)O
InChI: InChI=1S/C12H15Cl2NO5S/c1-21(19,20)8-4-2-7(3-5-8)10(17)9(6-16)15-12(18)11(13)14/h2-5,9-11,16-17H,6H2,1H3,(H,15,18)
Instrument: Q Exactive Plus Orbitrap Thermo Scientific
Instrument type: LC-ESI-QFT
Ms type: MS2
Ion mode: NEGATIVE
Ionization: ESI
Fragmentation mode: HCD
Collision energy: 30 (nominal)
Resolution: 35000
Column name: XBridge C18 3.5um, 2.1x50mm, Waters
Retention time: 3.5 min
Base peak: 353.9974
Precursor m/z: 353.9975
Precursor type: [M-H]-
m/z	relative intensity	assigned
63.9624	27	O2S-
70.0299	7	C3H4NO-
70.9462	9	Cl2H-
71.0139	4	C3H3O2-
78.9859	170	CH3O2S-
82.9461	28	CHCl2-
84.0091	52	C3H2NO2-
86.0248	74	C3H4NO2-
98.0248	20	C4H4NO2-
114.0197	10	C4H4NO3-
117.071	9	C9H9-
119.0503	269	C8H7O-
121.0296	3	C7H5O2-
121.066	1	C8H9O-
125.9519	14	C2H2Cl2NO-
126.936	76	C2HCl2O2-
134.0014	1	C4H5ClNO2-
145.066	154	C10H9O-
155.0173	14	C7H7O2S-
156.082	3	C11H10N-
168.9965	25	C7H5O3S-
181.033	81	C9H9O2S-
183.0122	188	C8H7O3S-
184.02	49	C8H8O3S-
185.0279	999	C8H9O3S-
194.0042	9	C9H6O3S-
194.0284	4	C9H8NO2S-
195.0121	7	C9H7O3S-
196.0439	1	C9H10NO2S-
197.0274	6	C9H9O3S-
199.007	7	C8H7O4S-
208.0438	8	C10H10NO2S-
209.0279	206	C10H9O3S-
212.0388	121	C9H10NO3S-
213.0227	1	C9H9O4S-
224.0388	1	C10H10NO3S-
227.0385	131	
240.0338	203	C10H10NO4S-
252.0337	35	C11H10NO4S-
254.0496	1	C11H12NO4S-
270.0443	38	C11H12NO5S-
282.0443	77	C12H12NO5S-
290.0262	112	C11H13ClNO4S-
353.9977	56	C12H14Cl2NO5S-
