Mass spectrum: Pinoxaden; LC-ESI-ITFT; MS2; CE: 60%; R=7500; [M+H]+
Name: Pinoxaden
Name: 8-(2,6-diethyl-4-methylphenyl)-1,2,4,5-tetrahydro-7-oxo-7H-pyrazolo(1,2-d)(1,4,5)oxadiazepin-9-yl 2,2-dimethylpropanoate
Formula: C23H32N2O4
Exact mass: 400.2368
SMILES: CC(C)(C)C(=O)O/C2=C(/C(=O)N1CCOCCN12)c3c(CC)cc(C)cc3CC
InChI: InChI=1S/C23H32N2O4/c1-7-16-13-15(3)14-17(8-2)18(16)19-20(26)24-9-11-28-12-10-25(24)21(19)29-22(27)23(4,5)6/h13-14H,7-12H2,1-6H3
Instrument: LTQ Orbitrap XL Thermo Scientific
Instrument type: LC-ESI-ITFT
Ms type: MS2
Ion mode: POSITIVE
Ionization: ESI
Fragmentation mode: HCD
Collision energy: 60 % (nominal)
Resolution: 7500
Column name: XBridge C18 3.5um, 2.1x50mm, Waters
Retention time: 13.7 min
Base peak: 401.2442
Precursor m/z: 401.2435
Precursor type: [M+H]+
m/z	relative intensity	assigned
57.0699	200	C4H9+
71.0605	27	C3H7N2+
101.071	61	C4H9N2O+
102.0789	10	C4H10N2O+
105.07	13	C8H9+
119.0854	20	C9H11+
131.0858	39	C10H11+
133.1014	38	C10H13+
145.0885	9	C10H11N+
146.0965	12	C10H12N+
147.1163	15	C11H15+
156.0809	10	C11H10N+
158.0724	7	C11H10O+
159.0804	12	C11H11O+
159.1169	63	C12H15+
160.0887	20	C11H12O+
160.1116	9	C11H14N+
161.0961	15	C11H13O+
161.1329	22	C12H17+
171.0772	7	C7H11N2O3+
173.1329	10	C13H17+
174.0913	85	C11H12NO+
174.1278	26	C12H16N+
175.1122	17	C12H15O+
183.0772	10	C8H11N2O3+
187.0751	13	C12H11O2+
187.1116	24	C13H15O+
188.1074	29	C12H14NO+
188.1552	9	C14H20+
189.1387	28	C12H17N2+
200.1436	8	C14H18N+
202.1224	49	C13H16NO+
215.1064	16	C14H15O2+
216.0903	21	C12H12N2O2+
217.1327	8	C13H17N2O+
217.1701	20	C14H21N2+
229.0974	17	C13H13N2O2+
233.1652	32	C14H21N2O+
244.1206	79	C14H16N2O2+
244.1433	7	C14H18N3O+
261.1967	27	C16H25N2O+
271.1433	34	C16H19N2O2+
288.1468	95	C16H20N2O3+
289.1546	392	C16H21N2O3+
317.1858	999	C18H25N2O3+
