Mass spectrum: Propachlor ESA; LC-ESI-ITFT; MS2; CE: 60%; R=7500; [M+H]+
Name: Propachlor ESA
Name: 2-[Isopropyl(phenyl)amino]-2-oxoethanesulfonic acid
Formula: C11H15NO4S
Exact mass: 257.0722
SMILES: O=S(=O)(O)CC(=O)N(c1ccccc1)C(C)C
InChI: InChI=1S/C11H15NO4S/c1-9(2)12(10-6-4-3-5-7-10)11(13)8-17(14,15)16/h3-7,9H,8H2,1-2H3,(H,14,15,16)
Instrument: LTQ Orbitrap XL Thermo Scientific
Instrument type: LC-ESI-ITFT
Ms type: MS2
Ion mode: POSITIVE
Ionization: ESI
Fragmentation mode: HCD
Collision energy: 60 % (nominal)
Resolution: 7500
Column name: XBridge C18 3.5um, 2.1x50mm, Waters
Retention time: 5.9 min
Base peak: 258.0802
Precursor m/z: 258.0795
Precursor type: [M+H]+
m/z	relative intensity	assigned
59.0127	16	C2H3O2+
77.0386	10	C6H5+
79.0542	8	C6H7+
91.0542	17	C7H7+
92.0496	5	C6H6N+
93.0578	5	C6H7N+
94.0652	999	C6H8N+
104.0496	11	C7H6N+
106.0651	291	C7H8N+
117.0573	181	C8H7N+
118.0651	63	C8H8N+
120.0444	70	C7H6NO+
122.9746	11	C2H3O4S+
134.06	110	C8H8NO+
135.0679	8	C8H9NO+
136.0757	74	C8H10NO+
144.0802	3	C10H10N+
159.1044	8	C11H13N+
198.0219	151	C8H8NO3S+
216.0328	30	C8H10NO4S+
