Mass spectrum: Nitenpyram; LC-ESI-QFT; MS2; CE: 120%; R=17500; [M+H]+
Name: Nitenpyram
Name: N-((6-chloropyridin-3-yl)methyl)-N-ethyl-N`-methyl-2-nitroethene-1,1-diamine
Name: 1-N`-[(6-chloropyridin-3-yl)methyl]-1-N`-ethyl-1-N-methyl-2-nitroethene-1,1-diamine
Formula: C11H15ClN4O2
Exact mass: 270.0884
SMILES: CCN(CC1=CN=C(C=C1)Cl)C(=C[N+](=O)[O-])NC
InChI: InChI=1S/C11H15ClN4O2/c1-3-15(11(13-2)8-16(17)18)7-9-4-5-10(12)14-6-9/h4-6,8,13H,3,7H2,1-2H3
Instrument: Exploris 240 Orbitrap Thermo Scientific
Instrument type: LC-ESI-QFT
Ms type: MS2
Ion mode: POSITIVE
Ionization: ESI
Fragmentation mode: HCD
Collision energy: 120 % (nominal)
Resolution: 17500
Column name: XBridge C18 3.5um, 2.1x50mm, Waters
Retention time: 2.582 min
Base peak: 271.0955
Precursor m/z: 271.0956
Precursor type: [M+H]+
m/z	relative intensity	assigned
55.0291	10	C2H3N2+
56.0495	999	C3H6N+
57.0448	20	C2H5N2+
58.0286	7	C2H4NO+
58.0652	40	C3H8N+
63.0229	22	C5H3+
71.0601	8	C3H7N2+
72.984	44	C3H2Cl+
78.0338	6	C5H4N+
90.0338	65	C6H4N+
91.0419	21	C6H5N+
98.9997	75	C5H4Cl+
102.0335	8	C7H4N+
104.0493	8	C7H6N+
126.0104	86	C6H5ClN+
138.0108	18	C7H5ClN+
139.0056	10	C6H4ClN2+
