Mass spectrum: MCLY; LC-ESI-QFT; MS2; CE: 90%; R=17500; [M+H]+
Name: MCLY
Name: Microcystin LY
Name: (5R,8S,11R,12S,15S,18S,19S,22R)-15-[(4-hydroxyphenyl)methyl]-18-[(1E,3E,5S,6S)-6-methoxy-3,5-dimethyl-7-phenylhepta-1,3-dienyl]-1,5,12,19-tetramethyl-2-methylidene-8-(2-methylpropyl)-3,6,9,13,16,20,25-heptaoxo-1,4,7,10,14,17,21-heptazacyclopentacosane-11,22-dicarboxylic acid
Class: NA
Formula: C52H71N7O13
Exact mass: 1001.5110
SMILES: COC(Cc1ccccc1)C(C)\C=C(C)\C=C/C2NC(=O)C(Cc3ccc(O)cc3)NC(=O)C(C)C(NC(=O)C(CC(C)C)NC(=O)C(C)NC(=O)C(=C)N(C)C(=O)CCC(NC(=O)C2C)C(O)=O)C(O)=O
InChI: InChI=1S/C52H71N7O13/c1-28(2)24-40-50(67)58-44(52(70)71)32(6)46(63)56-41(26-36-17-19-37(60)20-18-36)49(66)54-38(21-16-29(3)25-30(4)42(72-10)27-35-14-12-11-13-15-35)31(5)45(62)55-39(51(68)69)22-23-43(61)59(9)34(8)48(65)53-33(7)47(64)57-40/h11-21,25,28,30-33,38-42,44,60H,8,22-24,26-27H2,1-7,9-10H3,(H,53,65)(H,54,66)(H,55,62)(H,56,63)(H,57,64)(H,58,67)(H,68,69)(H,70,71)/b21-16-,29-25+
Instrument: Q Exactive Plus Orbitrap Thermo Scientific
Instrument type: LC-ESI-QFT
Ms type: MS2
Ion mode: POSITIVE
Ionization: ESI
Fragmentation mode: HCD
Collision energy: 90 % (nominal)
Resolution: 17500
Column name: XBridge C18 3.5um, 2.1x50mm, Waters
Retention time: 10.738 min
Base peak: 164.9846
Precursor m/z: 1002.5183
Precursor type: [M+H]+
m/z	relative intensity	assigned
74.0236	12	C2H4NO2+
77.0385	34	C6H5+
78.0465	6	C6H6+
79.0542	227	C6H7+
80.0495	53	C5H6N+
81.0335	6	C5H5O+
81.0699	18	C6H9+
82.0288	13	C4H4NO+
82.0651	108	C5H8N+
84.0444	108	C4H6NO+
84.0806	3	
85.0285	14	C4H5O2+
86.06	12	C4H8NO+
86.0964	71	C5H12N+
91.0543	999	C7H7+
92.0622	13	C7H8+
93.0577	4	
93.0699	124	C7H9+
94.0651	39	C6H8N+
95.0492	289	C6H7O+
95.0856	10	
96.0444	7	C5H6NO+
96.0683	6	C5H8N2+
96.0808	10	C6H10N+
99.0917	58	C5H11N2+
102.0464	23	C8H6+
103.0542	725	C8H7+
104.0619	6	C8H8+
105.0448	94	C6H5N2+
105.0699	350	C8H9+
106.0526	8	C6H6N2+
106.0653	8	C7H8N+
107.0493	44	C7H7O+
107.0855	349	C8H11+
108.0683	11	C6H8N2+
108.0808	10	C7H10N+
109.0648	70	C7H9O+
110.0601	21	C6H8NO+
113.0232	28	C5H5O3+
115.0542	95	C9H7+
116.0619	16	C9H8+
117.0573	9	C8H7N+
117.0699	59	C9H9+
118.0651	18	C8H8N+
119.0492	106	C8H7O+
119.0604	35	C7H7N2+
119.0856	34	C9H11+
120.0572	12	C8H8O+
120.0809	14	C8H10N+
120.0935	5	C9H12+
121.076	78	C7H9N2+
122.06	7	C7H8NO+
122.084	8	C7H10N2+
123.0918	9	C7H11N2+
124.0756	4	C7H10NO+
127.0866	185	C6H11N2O+
128.0621	38	C10H8+
129.0699	33	C10H9+
130.0655	15	C9H8N+
130.0778	10	C10H10+
131.0855	28	C10H11+
132.0806	4	C9H10N+
133.1012	8	C10H13+
135.0804	23	C9H11O+
135.1165	17	C10H15+
136.0757	99	C8H10NO+
138.055	4	C7H8NO2+
139.0869	4	C7H11N2O+
141.0699	8	C11H9+
143.0856	6	C11H11+
145.1015	11	C11H13+
146.0603	17	C9H8NO+
146.0964	8	C10H12N+
149.0711	27	C8H9N2O+
155.0608	7	C10H7N2+
155.0857	3	C12H11+
159.0806	8	C11H11O+
162.0549	6	C9H8NO2+
165.0699	23	C13H9+
166.0777	8	C13H10+
167.0818	39	C8H11N2O2+
178.0778	7	C14H10+
179.0857	11	C14H11+
180.0936	5	C14H12+
