Mass spectrum: Valsartan acid; LC-ESI-QFT; MS2; CE: 90; R=35000; [M+H]+
Name: Valsartan acid
Name: 4-[2-(2H-1,2,3,4-tetrazol-5-yl)phenyl]benzoic acid
Formula: C14H10N4O2
Exact mass: 266.08038
SMILES: C1=CC=C(C(=C1)C2=CC=C(C=C2)C(=O)O)C3=NNN=N3
InChI: InChI=1S/C14H10N4O2/c19-14(20)10-7-5-9(6-8-10)11-3-1-2-4-12(11)13-15-17-18-16-13/h1-8H,(H,19,20)(H,15,16,17,18)
Instrument: Q Exactive Plus Orbitrap Thermo Scientific
Instrument type: LC-ESI-QFT
Ms type: MS2
Ion mode: POSITIVE
Ionization: ESI
Fragmentation mode: HCD
Collision energy: 90 (nominal)
Resolution: 35000
Column name: XBridge C18 3.5um, 2.1x50mm, Waters
Retention time: 6.8 min
Base peak: 267.0873
Precursor m/z: 267.0877
Precursor type: [M+H]+
m/z	relative intensity	assigned
50.015	2	C4H2+
51.0228	4	C4H3+
53.0386	8	C4H5+
63.0227	1	C5H3+
75.0228	1	C6H3+
77.0385	27	C6H5+
81.0334	1	C5H5O+
95.0491	40	C6H7O+
103.0541	2	C8H7+
105.0447	22	C6H5N2+
115.0541	6	C9H7+
116.0495	1	C8H6N+
125.0384	3	C10H5+
127.0542	13	C10H7+
130.04	1	C7H4N3+
139.0542	48	C11H7+
140.0494	33	C10H6N+
141.0694	3	C11H9+
145.0648	16	C10H9O+
149.0383	2	C12H5+
150.0464	30	C12H6+
151.0542	445	C12H7+
152.0493	6	C11H6N+
152.062	45	C12H8+
153.0698	15	C12H9+
154.0651	2	C11H8N+
155.0493	12	C11H7O+
155.0602	30	C10H7N2+
163.054	1	C13H7+
164.0495	4	C12H6N+
164.0623	1	C13H8+
165.0574	7	C12H7N+
165.0699	6	C13H9+
166.0651	18	C12H8N+
167.0491	1	C12H7O+
167.073	3	C12H9N+
168.057	3	C12H8O+
169.0647	999	C12H9O+
170.06	24	C11H8NO+
175.042	1	C13H5N+
176.0492	7	C13H6N+
177.0573	526	C13H7N+
178.065	429	C13H8N+
179.0603	458	C12H7N2+
180.0559	6	C11H6N3+
180.0806	61	C13H10N+
183.0678	2	C12H9NO+
183.0804	9	C13H11O+
191.0602	11	C13H7N2+
192.068	40	C13H8N2+
193.0758	2	C13H9N2+
194.06	26	C13H8NO+
196.0756	74	C13H10NO+
204.0557	23	C13H6N3+
206.06	26	C14H8NO+
206.0711	11	C13H8N3+
