Mass spectrum: Chlorthiazide; LC-ESI-QFT; MS2; CE: 45; R=35000; [M+H]+
Name: Chlorthiazide
Name: 6-chloro-1,1-dioxo-4H-1$l^{6},2,4-benzothiadiazine-7-sulfonamide
Formula: C7H6ClN3O4S2
Exact mass: 294.94883
SMILES: C1=C2C(=CC(=C1Cl)S(=O)(=O)N)S(=O)(=O)NC=N2
InChI: InChI=1S/C7H6ClN3O4S2/c8-4-1-5-7(2-6(4)16(9,12)13)17(14,15)11-3-10-5/h1-3H,(H,10,11)(H2,9,12,13)
Instrument: Q Exactive Plus Orbitrap Thermo Scientific
Instrument type: LC-ESI-QFT
Ms type: MS2
Ion mode: POSITIVE
Ionization: ESI
Fragmentation mode: HCD
Collision energy: 45 (nominal)
Resolution: 35000
Column name: XBridge C18 3.5um, 2.1x50mm, Waters
Retention time: 1.9 min
Base peak: 295.956
Precursor m/z: 295.9561
Precursor type: [M+H]+
m/z	relative intensity	assigned
52.0182	3	C3H2N+
63.9851	2	H2NOS+
72.9837	3	C3H2Cl+
78.0337	1	C5H4N+
78.9403	3	CClS+
79.98	1	H2NO2S+
86.9995	1	C4H4Cl+
87.9947	1	C3H3ClN+
89.0258	1	C6H3N+
93.0448	2	C5H5N2+
95.9902	5	C4H2NS+
96.9839	3	C5H2Cl+
97.9792	3	C4HClN+
99.9947	4	C4H3ClN+
102.9404	2	C3ClS+
104.956	32	C3H2ClS+
105.0447	11	C6H5N2+
106.0285	1	C6H4NO+
106.0525	8	C6H6N2+
106.9824	2	C5HNS+
107.9902	16	C5H2NS+
108.9981	4	C5H3NS+
111.9948	2	C5H3ClN+
113.9742	2	C4HClNO+
114.0105	33	C5H5ClN+
114.9945	1	C5H4ClO+
115.9899	5	C4H3ClNO+
116.9559	2	C4H2ClS+
119.9669	3	C3H3ClNS+
121.0396	9	C6H5N2O+
122.0474	4	C6H6N2O+
123.0011	32	C5H3N2S+
123.9947	14	C6H3ClN+
124.009	26	C5H4N2S+
124.0393	4	C6H6NO2+
124.9929	3	C5H3NOS+
125.0026	5	C6H4ClN+
126.0106	3	C6H5ClN+
127.9897	4	C5H3ClNO+
128.9974	6	C5H4ClNO+
129.0214	19	C5H6ClN2+
130.0054	11	C5H5ClNO+
131.9669	178	C4H3ClNS+
132.9509	29	C4H2ClOS+
133.0396	6	C7H5N2O+
134.0475	15	C7H6N2O+
139.0058	3	C6H4ClN2+
139.9897	84	C6H3ClNO+
140.9977	3	C6H4ClNO+
141.0119	12	C5H5N2OS+
141.0213	31	C6H6ClN2+
141.9513	147	C5HClNS+
142.0055	43	C6H5ClNO+
143.9669	17	C5H3ClNS+
143.9846	1	C5H3ClNO2+
144.9509	5	C5H2ClOS+
150.9962	6	C6H3N2OS+
151.0057	8	C7H4ClN2+
152.0136	13	C7H5ClN2+
153.0215	4	C7H6ClN2+
153.969	4	C6HClNO2+
155.0007	6	C6H4ClN2O+
155.9846	72	C6H3ClNO2+
157.0163	158	C6H6ClN2O+
158.0003	144	C6H5ClNO2+
158.978	4	C2H7O4S2+
159.9618	82	C5H3ClNOS+
160.9459	8	C5H2ClO2S+
167.0008	3	C7H4ClN2O+
168.9925	2	C7H4ClNO2+
169.0068	3	C6H5N2O2S+
169.0163	21	C7H6ClN2O+
169.9462	147	C6HClNOS+
171.9795	7	C6H3ClNO3+
173.0113	24	C6H6ClN2O2+
173.9952	20	C6H5ClNO3+
177.9724	23	C5H5ClNO2S+
179.0117	4	C4H7N2O4S+
184.0032	3	C7H5ClN2O2+
185.0015	8	C6H5N2O3S+
186.9727	1	C6H4ClN2OS+
187.9567	197	C6H3ClNO2S+
192.983	1	C5H6ClN2O2S+
203.9518	476	C6H3ClNO3S+
204.9834	999	C6H6ClN2O2S+
205.9671	9	C6H5ClNO3S+
207.9832	3	C6H7ClNO3S+
214.9677	404	C7H4ClN2O2S+
215.9752	8	C7H5ClN2O2S+
216.9833	3	C7H6ClN2O2S+
220.9783	513	C6H6ClN2O3S+
223.9779	7	C6H7ClNO4S+
230.9626	546	C7H4ClN2O3S+
232.9782	65	C7H6ClN2O3S+
242.9738	304	C7H4ClN4O2S+
243.9712	2	C6H4N4O3S2+
247.9652	7	C7H5ClN2O4S+
268.9455	2	C6H6ClN2O4S2+
278.9296	632	C7H4ClN2O4S2+
286.9558	62	C4H6ClN5O4S2+
295.9562	197	C7H7ClN3O4S2+
