Mass spectrum: Sarafloxacin; LC-ESI-QFT; MS2; CE: 45; R=35000; [M+H]+
Name: Sarafloxacin
Name: 6-fluoro-1-(4-fluorophenyl)-4-oxo-7-piperazin-1-ylquinoline-3-carboxylic acid
Formula: C20H17F2N3O3
Exact mass: 385.12380
SMILES: C1CN(CCN1)C2=C(C=C3C(=C2)N(C=C(C3=O)C(=O)O)C4=CC=C(C=C4)F)F
InChI: InChI=1S/C20H17F2N3O3/c21-12-1-3-13(4-2-12)25-11-15(20(27)28)19(26)14-9-16(22)18(10-17(14)25)24-7-5-23-6-8-24/h1-4,9-11,23H,5-8H2,(H,27,28)
Instrument: Q Exactive Plus Orbitrap Thermo Scientific
Instrument type: LC-ESI-QFT
Ms type: MS2
Ion mode: POSITIVE
Ionization: ESI
Fragmentation mode: HCD
Collision energy: 45 (nominal)
Resolution: 35000
Column name: XBridge C18 3.5um, 2.1x50mm, Waters
Retention time: 4.7 min
Base peak: 386.1304
Precursor m/z: 386.1311
Precursor type: [M+H]+
m/z	relative intensity	assigned
56.0495	8	C3H6N+
58.0651	7	C3H8N+
68.0494	1	C4H6N+
70.0651	33	C4H8N+
71.0728	1	C4H9N+
85.0758	1	C4H9N2+
136.0558	2	C8H7FN+
148.0556	1	C9H7FN+
155.0603	1	C10H7N2+
159.0918	1	C10H11N2+
164.0504	1	C9H7FNO+
171.0919	2	C11H11N2+
175.0667	1	C10H8FN2+
189.0823	4	C11H10FN2+
201.0662	2	C11H9N2O2+
203.0614	4	C11H8FN2O+
210.0714	1	C14H9FN+
221.0721	2	C11H10FN2O2+
224.0873	1	C15H11FN+
229.0696	1	C14H9F2N+
237.0826	1	C15H10FN2+
238.0661	6	C15H9FNO+
239.074	1	C15H10FNO+
242.0777	2	C15H10F2N+
243.073	3	C14H9F2N2+
244.0812	1	C14H10F2N2+
250.0901	1	C16H11FN2+
251.0979	3	C16H12FN2+
252.0817	1	C16H11FNO+
255.0728	1	C15H9F2N2+
256.0565	7	C15H8F2NO+
257.0647	13	C15H9F2NO+
258.0724	10	C15H10F2NO+
261.0824	1	C17H10FN2+
263.0977	1	C17H12FN2+
264.093	1	C16H11FN3+
265.0771	1	C16H10FN2O+
265.1011	1	C16H12FN3+
265.1137	1	C17H14FN2+
267.0931	15	C16H12FN2O+
268.0812	1	C16H10F2N2+
269.0649	1	C16H9F2NO+
269.0878	2	C16H11F2N2+
270.0964	7	C16H12F2N2+
271.068	1	C15H9F2N2O+
271.0804	14	C16H11F2NO+
271.1032	3	C16H13F2N2+
272.0755	22	C15H10F2N2O+
272.0887	3	C16H12F2NO+
273.0833	24	C15H11F2N2O+
278.085	1	C17H11FN2O+
278.1086	1	C17H13FN3+
279.0929	38	C17H12FN2O+
280.0881	8	C16H11FN3O+
281.0885	31	C17H11F2N2+
282.0724	2	C17H10F2NO+
283.0676	6	C16H9F2N2O+
284.0758	4	C16H10F2N2O+
285.0835	135	C16H11F2N2O+
286.0914	8	C16H12F2N2O+
289.0549	5	C15H9F2NO3+
291.0933	1	C18H12FN2O+
291.117	1	C18H14FN3+
292.0883	15	C14H12F2N3O2+
292.1244	16	C18H15FN3+
293.0955	28	C17H12FN3O+
293.1084	3	C18H14FN2O+
294.1038	31	C17H13FN3O+
297.0834	16	C17H11F2N2O+
298.091	1	C17H12F2N2O+
299.099	999	C20H12FN2+
304.125	1	C16H16F2N3O+
305.1092	2	C16H15F2N2O2+
306.1033	4	C18H13FN3O+
307.1114	7	C18H14FN3O+
311.062	1	C20H8FN2O+
311.0989	8	C18H13F2N2O+
312.0948	2	C17H12F2N3O+
312.1306	6	C18H16F2N3+
313.102	1	C17H13F2N3O+
320.0831	9	C18H11FN3O2+
320.1192	17	C19H15FN3O+
321.128	2	C16H17F2N3O2+
322.1351	129	C19H17FN3O+
324.1305	3	C19H16F2N3+
325.079	6	C18H11F2N2O2+
325.1151	7	C19H15F2N2O+
338.0933	8	C18H13FN3O3+
340.0907	1	C20H14F2O3+
340.1257	20	C19H16F2N3O+
342.1413	127	C19H18F2N3O+
343.089	9	C18H13F2N2O3+
348.1143	69	C20H15FN3O2+
366.125	80	C20H17FN3O3+
368.1206	366	C20H16F2N3O2+
386.1311	609	C20H18F2N3O3+
