Mass spectrum: Olopatadine; LC-ESI-QFT; MS2; CE: 75; R=35000; [M-H]-
Name: Olopatadine
Name: 2-[(11Z)-11-[3-(dimethylazaniumyl)propylidene]-6H-benzo[c][1]benzoxepin-2-yl]acetate
Formula: C21H23NO3
Exact mass: 337.16779
SMILES: CN(C)CC/C=C\1/C2=CC=CC=C2COC3=C1C=C(C=C3)CC(=O)O
InChI: InChI=1S/C21H23NO3/c1-22(2)11-5-8-18-17-7-4-3-6-16(17)14-25-20-10-9-15(12-19(18)20)13-21(23)24/h3-4,6-10,12H,5,11,13-14H2,1-2H3,(H,23,24)/b18-8-
Instrument: Q Exactive Orbitrap Thermo Scientific
Instrument type: LC-ESI-QFT
Ms type: MS2
Ion mode: NEGATIVE
Ionization: ESI
Fragmentation mode: HCD
Collision energy: 75 (nominal)
Resolution: 35000
Column name: XBridge C18 3.5um, 2.1x50mm, Waters
Retention time: 7.0 min
Base peak: 336.1606
Precursor m/z: 336.1605
Precursor type: [M-H]-
m/z	relative intensity	assigned
93.0346	196	C6H5O-
95.0503	17	C6H7O-
106.0425	13	C7H6O-
107.0503	184	C7H7O-
115.0554	70	C9H7-
119.0503	14	C8H7O-
141.071	45	C11H9-
143.0501	13	C10H7O-
153.0712	12	C12H9-
165.0708	373	C13H9-
177.0703	14	C14H9-
178.0788	28	C14H10-
179.0865	62	C14H11-
191.0867	999	C15H11-
193.066	103	C14H9O-
203.0871	86	C16H11-
205.0658	20	C15H9O-
205.1021	150	C16H13-
206.0739	80	C15H10O-
207.0814	274	C15H11O-
215.0867	65	C17H11-
217.0657	243	C16H9O-
218.0735	182	C16H10O-
219.0814	756	C16H11O-
220.0891	15	C16H12O-
221.0968	79	C16H13O-
229.102	156	C18H13-
230.0731	59	C17H10O-
231.0817	170	C17H11O-
232.0893	15	C17H12O-
233.0969	164	C17H13O-
245.097	47	C18H13O-
247.1126	50	C18H15O-
