Mass spectrum: Nordiazepam; LC-ESI-QFT; MS2; CE: 90; R=35000; [M+H]+
Name: Nordiazepam
Name: Nordazepam (1-Demethyldiazepam)
Name: 7-chloro-5-phenyl-1,3-dihydro-1,4-benzodiazepin-2-one
Formula: C15H11ClN2O
Exact mass: 270.05599
SMILES: C1C(=O)NC2=C(C=C(C=C2)Cl)C(=N1)C3=CC=CC=C3
InChI: InChI=1S/C15H11ClN2O/c16-11-6-7-13-12(8-11)15(17-9-14(19)18-13)10-4-2-1-3-5-10/h1-8H,9H2,(H,18,19)
Instrument: Q Exactive Plus Orbitrap Thermo Scientific
Instrument type: LC-ESI-QFT
Ms type: MS2
Ion mode: POSITIVE
Ionization: ESI
Fragmentation mode: HCD
Collision energy: 90 (nominal)
Resolution: 35000
Column name: XBridge C18 3.5um, 2.1x50mm, Waters
Retention time: 9.3 min
Base peak: 271.0623
Precursor m/z: 271.0633
Precursor type: [M+H]+
m/z	relative intensity	assigned
50.0149	5	C4H2+
51.0227	7	C4H3+
53.0385	37	C4H5+
55.0177	1	C3H3O+
61.9791	3	CHClN+
63.0227	6	C5H3+
64.0306	5	C5H4+
65.0385	84	C5H5+
66.0463	1	C5H6+
72.9837	2	C3H2Cl+
75.0227	10	C6H3+
76.0305	3	C6H4+
77.0384	85	C6H5+
78.0336	8	C5H4N+
78.0463	34	C6H6+
79.0415	20	C5H5N+
79.0542	10	C6H7+
80.0493	7	C5H6N+
81.0334	5	C5H5O+
86.9995	7	C4H4Cl+
89.0384	77	C7H5+
90.0337	3	C6H4N+
90.0463	23	C7H6+
91.0541	616	C7H7+
92.0255	1	C6H4O+
92.0494	7	C6H6N+
93.0333	3	C6H5O+
94.0411	5	C6H6O+
95.049	125	C6H7O+
96.0442	9	C5H6NO+
98.9994	7	C5H4Cl+
100.0073	5	C5H5Cl+
101.0026	1	C4H4ClN+
102.0337	13	C7H4N+
103.0415	73	C7H5N+
104.0493	444	C7H6N+
105.0446	79	C6H5N2+
105.0572	251	C7H7N+
106.0649	6	C7H8N+
110.9996	6	C6H4Cl+
111.9948	4	C5H3ClN+
112.0073	5	C6H5Cl+
113.0151	160	C6H6Cl+
114.0104	14	C5H5ClN+
114.0336	5	C8H4N+
115.0416	1	C8H5N+
116.0493	161	C8H6N+
117.0571	40	C8H7N+
118.0648	5	C8H8N+
120.0442	16	C7H6NO+
122.9994	36	C7H4Cl+
123.9948	23	C6H3ClN+
124.0072	3	C7H5Cl+
125.0026	1	C6H4ClN+
125.015	1	C7H6Cl+
126.0102	3	C9H2O+
127.0182	102	C6H6ClN+
129.0099	22	C6H6ClO+
129.0445	81	C8H5N2+
130.0053	17	C5H5ClNO+
130.0398	70	C7H4N3+
130.0524	128	C8H6N2+
131.0602	28	C8H7N2+
132.0443	1	C8H6NO+
132.0679	1	C8H8N2+
133.052	17	C8H7NO+
134.0598	3	C8H8NO+
137.0027	6	C7H4ClN+
138.0104	321	C7H5ClN+
139.0056	64	C6H4ClN2+
140.0259	999	C7H7ClN+
144.044	1	C9H6NO+
147.0548	3	C8H7N2O+
148.0628	3	C8H8N2O+
150.0103	46	C8H5ClN+
151.0182	5	C8H6ClN+
151.054	8	C12H7+
152.0619	36	C12H8+
153.0696	13	C12H9+
154.0645	1	C11H8N+
155.0729	1	C11H9N+
156.0806	7	C11H10N+
157.0395	1	C9H5N2O+
157.0508	5	C8H5N4+
158.0473	66	C9H6N2O+
162.0422	1	C8H6N2O2+
163.0056	29	C8H4ClN2+
163.054	10	C13H7+
164.0011	6	C10N2O+
164.0618	40	C13H8+
165.0212	456	C8H6ClN2+
165.0697	59	C13H9+
166.0052	46	C8H5ClNO+
166.029	4	C8H7ClN2+
166.0648	5	C12H8N+
166.0775	4	C13H10+
167.0727	9	C12H9N+
168.0568	14	C12H8O+
168.0806	1	C12H10N+
169.0645	10	C12H9O+
177.0571	7	C13H7N+
177.9927	8	C8H3ClN2O+
178.0649	22	C13H8N+
179.0609	8	C12H7N2+
179.0727	64	C13H9N+
180.0805	293	C13H10N+
181.0762	2	C12H9N2+
181.0883	31	C13H11N+
182.0838	7	C12H10N2+
189.0569	1	C14H7N+
190.0649	257	C14H8N+
191.0727	172	C14H9N+
192.0684	5	C13H8N2+
192.0805	43	C14H10N+
193.0161	4	C9H6ClN2O+
193.0758	28	C13H9N2+
193.0883	39	C14H11N+
194.0838	1	C13H10N2+
196.0756	2	C13H10NO+
199.0306	56	C13H8Cl+
205.0759	15	C14H9N2+
206.0602	8	C14H8NO+
206.0837	100	C14H10N2+
207.0685	18	
207.0915	314	C14H11N2+
208.0993	313	C14H12N2+
209.083	3	C14H11NO+
213.0341	1	C13H8ClN+
214.0416	80	C13H9ClN+
216.0573	5	C13H11ClN+
216.0672	1	C15H8N2+
217.0758	26	C15H9N2+
218.0836	29	C15H10N2+
219.0676	14	C15H9NO+
224.0256	5	C14H7ClN+
225.0331	5	C14H8ClN+
226.0414	35	C14H9ClN+
227.0493	25	C14H10ClN+
228.0442	1	C13H9ClN2+
235.0862	15	C15H11N2O+
240.0445	1	C14H9ClN2+
241.0524	101	C14H10ClN2+
242.0365	1	C14H9ClNO+
242.0602	9	C14H11ClN2+
243.0677	1	C14H12ClN2+
252.0446	4	C15H9ClN2+
271.0625	1	C15H12ClN2O+
