Mass spectrum: Oxacillin; LC-ESI-QFT; MS2; CE: 180; R=35000; [M+H]+
Name: Oxacillin
Name: (2S,5R,6R)-3,3-dimethyl-6-[(5-methyl-3-phenyl-1,2-oxazole-4-carbonyl)amino]-7-oxo-4-thia-1-azabicyclo[3.2.0]heptane-2-carboxylic acid
Formula: C19H19N3O5S
Exact mass: 401.10454
SMILES: CC1=C(C(=O)N[C@H]2[C@H]3SC(C)(C)[C@@H](N3C2=O)C(O)=O)C(=NO1)C1=CC=CC=C1
InChI: InChI=1S/C19H19N3O5S/c1-9-11(12(21-27-9)10-7-5-4-6-8-10)15(23)20-13-16(24)22-14(18(25)26)19(2,3)28-17(13)22/h4-8,13-14,17H,1-3H3,(H,20,23)(H,25,26)/t13-,14+,17-/m1/s1
Instrument: Q Exactive Plus Orbitrap Thermo Scientific
Instrument type: LC-ESI-QFT
Ms type: MS2
Ion mode: POSITIVE
Ionization: ESI
Fragmentation mode: HCD
Collision energy: 180 (nominal)
Resolution: 35000
Column name: XBridge C18 3.5um, 2.1x50mm, Waters
Retention time: 8.5 min
Base peak: 402.1116
Precursor m/z: 402.1118
Precursor type: [M+H]+
m/z	relative intensity	assigned
50.0151	427	C4H2+
51.023	999	C4H3+
52.0182	24	C3H2N+
52.0308	5	C4H4+
53.0022	22	C3HO+
53.0386	117	C4H5+
53.9975	1	C2NO+
54.0339	14	C3H4N+
55.0178	4	C3H3O+
55.0543	1	C4H7+
56.0495	1	C3H6N+
57.9872	23	C2H2S+
58.995	150	C2H3S+
59.9664	19	COS+
59.9904	2	CH2NS+
62.0059	5	CH4NS+
62.0151	6	C5H2+
63.0229	56	C5H3+
65.0022	30	C4HO+
65.0386	36	C5H5+
66.01	5	C4H2O+
66.0338	1	C4H4N+
67.0417	5	C4H5N+
67.0542	1	C5H7+
68.013	5	C3H2NO+
68.0495	1	C4H6N+
69.0447	2	C3H5N2+
70.0651	12	C4H8N+
70.995	12	C3H3S+
73.0106	9	C3H5S+
74.015	10	C6H2+
75.0229	13	C6H3+
76.0307	2	C6H4+
77.0385	191	C6H5+
78.0339	1	C5H4N+
78.0464	4	C6H6+
79.0291	1	C4H3N2+
79.0542	1	C6H7+
80.0494	11	C5H6N+
81.0335	7	C5H5O+
81.0448	4	C4H5N2+
85.0106	2	C4H5S+
87.0263	2	C4H7S+
89.0386	50	C7H5+
90.0339	1	C6H4N+
90.0465	4	C7H6+
91.0543	6	C7H7+
92.0497	1	C6H6N+
93.0447	1	C5H5N2+
95.0492	230	C6H7O+
100.0215	5	C4H6NS+
102.0463	2	C8H6+
103.0544	2	C8H7+
104.0494	2	C7H6N+
105.0448	131	C6H5N2+
112.0214	1	C5H6NS+
117.0571	1	C8H7N+
129.0447	2	C8H5N2+
140.0495	1	C10H6N+
