Mass spectrum: Iopamidol; LC-ESI-ITFT; MS2; CE: 75%; R=7500; [M+H]+
Name: Iopamidol
Name: 1,3-Benzenedicarboxamide, N,N'-bis(2-hydroxy-1-(hydroxymethyl)ethyl)-5-((2-hydroxy-1-oxopropyl)amino)-2,4,6-triiodo-
Name: 1-N,3-N-bis(1,3-dihydroxypropan-2-yl)-5-(2-hydroxypropanoylamino)-2,4,6-triiodobenzene-1,3-dicarboxamide
Formula: C17H22I3N3O8
Exact mass: 776.8541
SMILES: CC(O)C(=O)NC1=C(I)C(C(=O)NC(CO)CO)=C(I)C(C(=O)NC(CO)CO)=C1I
InChI: InChI=1S/C17H22I3N3O8/c1-6(28)15(29)23-14-12(19)9(16(30)21-7(2-24)3-25)11(18)10(13(14)20)17(31)22-8(4-26)5-27/h6-8,24-28H,2-5H2,1H3,(H,21,30)(H,22,31)(H,23,29)
Instrument: LTQ Orbitrap XL Thermo Scientific
Instrument type: LC-ESI-ITFT
Ms type: MS2
Ion mode: POSITIVE
Ionization: ESI
Fragmentation mode: HCD
Collision energy: 75 % (nominal)
Resolution: 7500
Column name: XBridge C18 3.5um, 2.1x50mm, Waters
Retention time: 1.2 min
Base peak: 132.9578
Precursor m/z: 777.8614
Precursor type: [M+H]+
m/z	relative intensity	assigned
91.0419	103	C6H5N+
102.0339	201	C7H4N+
103.0416	500	C7H5N+
113.0135	293	C7HN2+
113.9976	269	C7NO+
115.0415	289	C8H5N+
115.9892	259	C7O2+
116.0134	91	C7H2NO+
130.0286	206	C8H4NO+
131.0366	478	C8H5NO+
132.0441	128	C8H6NO+
134.0243	173	C7H4NO2+
141.0082	392	C8HN2O+
141.0214	184	C9H3NO+
141.992	464	C8NO2+
143.0373	110	C9H5NO+
144.008	298	C8H2NO2+
154.899	124	CIO+
158.0237	172	C9H4NO2+
159.0317	554	C9H5NO2+
160.039	115	C9H6NO2+
162.0187	131	C8H4NO3+
185.0344	382	C10H5N2O2+
187.0501	97	C10H7N2O2+
200.9068	229	C5IN+
204.9143	242	C5H2IO+
212.9073	190	C6IN+
257.941	959	C8H5INO+
259.9191	190	C7H3INO2+
269.9408	736	C9H5INO+
285.9361	999	C9H5INO2+
293.9488	299	C7H7IN2O3+
295.9215	252	C10H3INO2+
339.8063	135	CI2N3O2+
341.8255	149	C6H2I2N+
