Mass spectrum: Fenthion Oxon; LC-ESI-QFT; MS2; CE: 30%; R=17500; [M+H]+
Name: Fenthion Oxon
Name: dimethyl (3-methyl-4-methylsulfanylphenyl) phosphate
Formula: C10H15O4PS
Exact mass: 262.0429
SMILES: CC1=C(C=CC(=C1)OP(=O)(OC)OC)SC
InChI: InChI=1S/C10H15O4PS/c1-8-7-9(5-6-10(8)16-4)14-15(11,12-2)13-3/h5-7H,1-4H3
Instrument: Exploris 240 Orbitrap Thermo Scientific
Instrument type: LC-ESI-QFT
Ms type: MS2
Ion mode: POSITIVE
Ionization: ESI
Fragmentation mode: HCD
Collision energy: 30 % (nominal)
Resolution: 17500
Column name: XBridge C18 3.5um, 2.1x50mm, Waters
Retention time: 7.813 min
Base peak: 263.0501
Precursor m/z: 263.0501
Precursor type: [M+H]+
m/z	relative intensity	assigned
93.0698	4	C7H9+
137.0419	37	C8H9S+
169.0682	4	C9H13OS+
216.0006	31	C8H9O3PS+
231.024	999	C9H12O3PS+
248.0271	9	C9H13O4PS+
249.0338	5	C9H14O4PS+
263.0502	570	C10H16O4PS+
