Mass spectrum: Risperidone; LC-ESI-QFT; MS2; CE: 75; R=35000; [M+H]+
Name: Risperidone
Name: Pargyline N-oxide
Name: N-benzyl-N-methylprop-2-yn-1-amine oxide
Formula: C11H13NO
Exact mass: 175.09971
SMILES: C[N+](CC#C)(CC1=CC=CC=C1)[O-]
InChI: InChI=1S/C11H13NO/c1-3-9-12(2,13)10-11-7-5-4-6-8-11/h1,4-8H,9-10H2,2H3
Instrument: Q Exactive Plus Orbitrap Thermo Scientific
Instrument type: LC-ESI-QFT
Ms type: MS2
Ion mode: POSITIVE
Ionization: ESI
Fragmentation mode: HCD
Collision energy: 75 (nominal)
Resolution: 35000
Column name: XBridge C18 3.5um, 2.1x50mm, Waters
Retention time: 5.7 min
Base peak: 164.9844
Precursor m/z: 176.107
Precursor type: [M+H]+
m/z	relative intensity	assigned
65.0385	26	C5H5+
70.065	2	C4H8N+
84.0444	12	C4H6NO+
91.0541	999	C7H7+
136.1121	1	C9H14N+
