Mass spectrum: Prometon; LC-ESI-ITFT; MS2; CE: 45%; R=15000; [M+H]+
Name: Prometon
Name: 6-methoxy-2-N,4-N-di(propan-2-yl)-1,3,5-triazine-2,4-diamine
Formula: C10H19N5O
Exact mass: 225.1584
SMILES: c1(nc(NC(C)C)nc(n1)OC)NC(C)C
InChI: InChI=1S/C10H19N5O/c1-6(2)11-8-13-9(12-7(3)4)15-10(14-8)16-5/h6-7H,1-5H3,(H2,11,12,13,14,15)
Instrument: LTQ Orbitrap XL Thermo Scientific
Instrument type: LC-ESI-ITFT
Ms type: MS2
Ion mode: POSITIVE
Ionization: ESI
Fragmentation mode: HCD
Collision energy: 45 % (nominal)
Resolution: 15000
Column name: XBridge C18 3.5um, 2.1x50mm, Waters
Retention time: 6.7 min
Base peak: 226.1662
Precursor m/z: 226.1662
Precursor type: [M+H]+
m/z	relative intensity	assigned
57.0447	2	C2H5N2+
68.0243	16	C2H2N3+
75.0553	2	C2H7N2O+
86.0349	8	C2H4N3O+
100.0505	22	C3H6N3O+
110.0713	9	C5H8N3+
142.0724	304	C4H8N5O+
152.0932	1	C6H10N5+
152.1183	6	C8H14N3+
184.1193	728	C7H14N5O+
226.1662	999	C10H20N5O+
