Mass spectrum: 3,4-Methylenedioxy-N-methylamphetamine (MDMA); LC-ESI-QFT; MS2; CE: 180; R=35000; [M+H]+
Name: 3,4-Methylenedioxy-N-methylamphetamine (MDMA)
Name: N-Methyl-3,4-methylenedioxyamphetamine
Name: 1-(1,3-benzodioxol-5-yl)-N-methylpropan-2-amine
Formula: C11H15NO2
Exact mass: 193.11028
SMILES: CC(CC1=CC2=C(C=C1)OCO2)NC
InChI: InChI=1S/C11H15NO2/c1-8(12-2)5-9-3-4-10-11(6-9)14-7-13-10/h3-4,6,8,12H,5,7H2,1-2H3
Instrument: Q Exactive Plus Orbitrap Thermo Scientific
Instrument type: LC-ESI-QFT
Ms type: MS2
Ion mode: POSITIVE
Ionization: ESI
Fragmentation mode: HCD
Collision energy: 180 (nominal)
Resolution: 35000
Column name: XBridge C18 3.5um, 2.1x50mm, Waters
Retention time: 3.6 min
Base peak: 194.117
Precursor m/z: 194.1176
Precursor type: [M+H]+
m/z	relative intensity	assigned
50.0151	500	C4H2+
51.0229	999	C4H3+
53.0022	34	C3HO+
53.0386	260	C4H5+
53.9974	2	C2NO+
55.0178	29	C3H3O+
56.0494	11	C3H6N+
58.0651	45	C3H8N+
63.0229	65	C5H3+
64.0307	12	C5H4+
65.0022	31	
65.0385	280	C5H5+
66.01	2	C4H2O+
66.0463	17	C5H6+
67.0542	7	C5H7+
67.9892	2	C3O2+
68.9971	1	C3HO2+
75.0228	13	C6H3+
77.0385	706	C6H5+
78.0463	32	C6H6+
79.0542	230	C6H7+
81.0334	28	C5H5O+
89.0385	136	C7H5+
90.0464	6	C7H6+
91.0542	57	C7H7+
92.0257	2	C6H4O+
94.0413	5	C6H6O+
95.0491	761	C6H7O+
102.0464	21	C8H6+
103.0542	103	C8H7+
104.0621	3	C8H8+
105.0447	477	C6H5N2+
109.0648	1	C7H9O+
115.0541	8	C9H7+
118.0413	2	C8H6O+
121.0284	31	C7H5O2+
135.044	2	C8H7O2+
147.0441	16	C9H7O2+
