Mass spectrum: Albendazole sulfone; LC-ESI-QFT; MS2; CE: 150; R=35000; [M-H]-
Name: Albendazole sulfone
Name: methyl N-(6-propylsulfonyl-1H-benzimidazol-2-yl)carbamate
Formula: C12H15N3O4S
Exact mass: 297.07833
SMILES: CCCS(=O)(=O)C1=CC2=C(C=C1)N=C(N2)NC(=O)OC
InChI: InChI=1S/C12H15N3O4S/c1-3-6-20(17,18)8-4-5-9-10(7-8)14-11(13-9)15-12(16)19-2/h4-5,7H,3,6H2,1-2H3,(H2,13,14,15,16)
Instrument: Q Exactive Plus Orbitrap Thermo Scientific
Instrument type: LC-ESI-QFT
Ms type: MS2
Ion mode: NEGATIVE
Ionization: ESI
Fragmentation mode: HCD
Collision energy: 150 (nominal)
Resolution: 35000
Column name: XBridge C18 3.5um, 2.1x50mm, Waters
Retention time: 5.7 min
Base peak: 264.0444
Precursor m/z: 296.0711
Precursor type: [M-H]-
m/z	relative intensity	assigned
50.0036	41	C3N-
64.0193	422	C4H2N-
65.0145	43	C3HN2-
65.9985	19	C3NO-
74.0038	30	C5N-
77.0147	4	C4HN2-
86.0036	4	C6N-
87.0115	36	C6HN-
88.0066	16	C5N2-
88.0192	242	C6H2N-
89.0145	8	C5HN2-
90.0224	6	C5H2N2-
101.0145	8	C6HN2-
102.0223	56	C6H2N2-
103.0175	15	C5HN3-
106.0173	4	C5H2N2O-
113.0146	32	C7HN2-
114.0222	3	C7H2N2-
115.0302	999	C7H3N2-
119.0251	3	C6H3N2O-
129.0333	462	C7H3N3-
133.0281	43	C6H3N3O-
149.0231	5	C6H3N3O2-
156.0204	246	C8H2N3O-
157.0281	58	C8H3N3O-
160.0151	8	C7H2N3O2-
