Mass spectrum: Pheniramine-N-oxide; LC-ESI-QFT; MS2; CE: 75; R=35000; [M+H]+
Name: Pheniramine-N-oxide
Name: N,N-dimethyl-3-phenyl-3-pyridin-2-ylpropan-1-amine oxide
Formula: C16H20N2O
Exact mass: 256.15756
SMILES: C[N+](C)(CCC(c1ccccc1)c2ccccn2)[O-]
InChI: InChI=1S/C16H20N2O/c1-18(2,19)13-11-15(14-8-4-3-5-9-14)16-10-6-7-12-17-16/h3-10,12,15H,11,13H2,1-2H3
Instrument: Q Exactive Plus Orbitrap Thermo Scientific
Instrument type: LC-ESI-QFT
Ms type: MS2
Ion mode: POSITIVE
Ionization: ESI
Fragmentation mode: HCD
Collision energy: 75 (nominal)
Resolution: 35000
Column name: XBridge C18 3.5um, 2.1x50mm, Waters
Retention time: 4.2 min
Base peak: 257.1646
Precursor m/z: 257.1648
Precursor type: [M+H]+
m/z	relative intensity	assigned
65.0385	2	C5H5+
80.0494	2	C5H6N+
91.0543	161	C7H7+
92.0494	5	C6H6N+
93.0573	2	C6H7N+
94.0651	2	C6H8N+
103.0543	3	C8H7+
110.06	13	C6H8NO+
115.0541	1	C9H7+
117.0573	33	C8H7N+
118.0651	120	C8H8N+
119.073	31	C8H9N+
129.0699	2	C10H9+
141.07	2	C11H9+
166.065	1	C12H8N+
167.073	637	C12H9N+
168.0808	999	C12H10N+
180.0808	17	C13H10N+
181.0886	15	C13H11N+
193.0886	2	C14H11N+
194.0966	47	C14H12N+
195.1044	16	C14H13N+
196.1121	963	C14H14N+
