Mass spectrum: 1H-1,2,3-triazole-5-OH; LC-ESI-QFT; MS2; CE: 90; R=35000; [M-H]-
Name: 1H-1,2,3-triazole-5-OH
Name: 1H-1,2,3-Triazol-4-ol
Formula: C2H3N3O
Exact mass: 85.02761
SMILES: Oc1cnn[nH]1
InChI: InChI=1S/C2H3N3O/c6-2-1-3-5-4-2/h1H,(H2,3,4,5,6)
Instrument: Q Exactive Orbitrap Thermo Scientific
Instrument type: LC-ESI-QFT
Ms type: MS2
Ion mode: NEGATIVE
Ionization: ESI
Fragmentation mode: HCD
Collision energy: 90 (nominal)
Resolution: 35000
Column name: XBridge C18 3.5um, 2.1x50mm, Waters
Retention time: 1.0 min
Base peak: 84.0199
Precursor m/z: 84.0203
Precursor type: [M-H]-
m/z	relative intensity	assigned
66.0097	418	C2N3-
84.0203	999	C2H2N3O-
