Mass spectrum: Spirotetramat Metabolite BYI08330 Enol-Glucoside; LC-ESI-QFT; MS2; CE: 60%; R=17500; [M+H]+
Name: Spirotetramat Metabolite BYI08330 Enol-Glucoside
Name: 3-(2,5-dimethylphenyl)-8-methoxy-4-[3,4,5-trihydroxy-6-(hydroxymethyl)oxan-2-yl]oxy-1-azaspiro[4.5]dec-3-en-2-one
Formula: C24H33NO8
Exact mass: 463.2206
SMILES: CC1=CC(=C(C=C1)C)C2=C(C3(CCC(CC3)OC)NC2=O)OC4C(C(C(C(O4)CO)O)O)O
InChI: InChI=1S/C24H33NO8/c1-12-4-5-13(2)15(10-12)17-21(24(25-22(17)30)8-6-14(31-3)7-9-24)33-23-20(29)19(28)18(27)16(11-26)32-23/h4-5,10,14,16,18-20,23,26-29H,6-9,11H2,1-3H3,(H,25,30)
Instrument: Exploris 240 Orbitrap Thermo Scientific
Instrument type: LC-ESI-QFT
Ms type: MS2
Ion mode: POSITIVE
Ionization: ESI
Fragmentation mode: HCD
Collision energy: 60 % (nominal)
Resolution: 17500
Column name: XBridge C18 3.5um, 2.1x50mm, Waters
Retention time: 3.587 min
Base peak: 464.2275
Precursor m/z: 464.2279
Precursor type: [M+H]+
m/z	relative intensity	assigned
67.0542	9	C5H7+
91.0544	12	C7H7+
96.0808	17	C6H10N+
117.0697	88	C9H9+
119.0855	44	C9H11+
131.0856	11	C10H11+
136.0758	9	C8H10NO+
143.0854	32	C11H11+
145.0646	22	C10H9O+
145.1007	20	C11H13+
147.0807	10	C10H11O+
155.0854	48	C12H11+
169.1009	6	C13H13+
173.0598	95	C11H9O2+
181.1017	11	C14H13+
182.1083	10	C14H14+
183.1167	16	C14H15+
188.1073	8	C12H14NO+
197.1325	40	C15H17+
207.1171	20	C16H15+
216.1018	999	C13H14NO2+
242.1537	10	C16H20NO+
253.1228	39	C17H17O2+
270.1489	399	C17H20NO2+
302.1749	130	C18H24NO3+
