Mass spectrum: Chlorophacinone; LC-ESI-QFT; MS2; CE: 60%; R=17500; [M+H]+
Name: Chlorophacinone
Name: 2-[2-(4-chlorophenyl)-2-phenylacetyl]indene-1,3-dione
Formula: C23H15ClO3
Exact mass: 374.0710
SMILES: C1=CC=C(C=C1)C(C2=CC=C(C=C2)Cl)C(=O)C3C(=O)C4=CC=CC=C4C3=O
InChI: InChI=1S/C23H15ClO3/c24-16-12-10-15(11-13-16)19(14-6-2-1-3-7-14)23(27)20-21(25)17-8-4-5-9-18(17)22(20)26/h1-13,19-20H
Instrument: Exploris 240 Orbitrap Thermo Scientific
Instrument type: LC-ESI-QFT
Ms type: MS2
Ion mode: POSITIVE
Ionization: ESI
Fragmentation mode: HCD
Collision energy: 60 % (nominal)
Resolution: 17500
Column name: XBridge C18 3.5um, 2.1x50mm, Waters
Retention time: 14.480 min
Base peak: 375.0783
Precursor m/z: 375.0782
Precursor type: [M+H]+
m/z	relative intensity	assigned
105.0336	259	C7H5O+
129.0337	84	C9H5O+
133.0287	40	C8H5O2+
138.9943	123	C7H4ClO+
157.0283	84	C10H5O2+
165.0695	87	C13H9+
166.0779	165	C13H10+
177.0701	20	C14H9+
178.0777	405	C14H10+
179.0856	623	C14H11+
189.0698	89	C15H9+
190.0773	31	C15H10+
191.085	60	C15H11+
193.0648	34	C14H9O+
201.0469	85	C13H10Cl+
205.0645	57	C15H9O+
206.0724	145	C15H10O+
207.0804	887	C15H11O+
213.0464	81	C14H10Cl+
217.0648	722	C16H9O+
218.0723	34	C16H10O+
223.0309	25	C15H8Cl+
233.0597	572	C16H9O2+
234.0673	276	C16H10O2+
235.0753	999	C16H11O2+
241.0413	299	C15H10ClO+
245.0606	18	C17H9O2+
251.0258	205	C16H8ClO+
262.0622	94	C17H10O3+
263.0714	20	C17H11O3+
265.1013	136	C21H13+
266.1087	35	C21H14+
269.0366	256	C16H10ClO2+
276.0939	72	C22H12+
277.101	101	C22H13+
278.1092	122	C22H14+
293.0964	139	C22H13O+
294.1032	181	C22H14O+
304.0879	170	C23H12O+
305.0961	37	C23H13O+
321.091	353	C23H13O2+
322.0982	137	C23H14O2+
