Mass spectrum: Gabapentin Related Compound E; LC-ESI-QFT; MS2; CE: 30; R=35000; [M+H]+
Name: Gabapentin Related Compound E
Name: 1-(carboxymethyl)cyclohexanecarboxylic acid
Name: 1-(carboxymethyl)cyclohexane-1-carboxylic acid
Formula: C9H14O4
Exact mass: 186.08921
SMILES: C1CC[C@@](CC1)(C(=O)O)CC(=O)O
InChI: InChI=1S/C9H14O4/c10-7(11)6-9(8(12)13)4-2-1-3-5-9/h1-6H2,(H,10,11)(H,12,13)
Instrument: Q Exactive Plus Orbitrap Thermo Scientific
Instrument type: LC-ESI-QFT
Ms type: MS2
Ion mode: POSITIVE
Ionization: ESI
Fragmentation mode: HCD
Collision energy: 30 (nominal)
Resolution: 35000
Column name: XBridge C18 3.5um, 2.1x50mm, Waters
Retention time: 6.8 min
Base peak: 141.091
Precursor m/z: 187.0965
Precursor type: [M+H]+
m/z	relative intensity	assigned
53.0384	1	C4H5+
55.0542	1	C4H7+
67.0542	4	C5H7+
79.0542	23	C6H7+
81.0699	423	C6H9+
95.0856	75	C7H11+
99.0804	9	C6H11O+
101.0598	2	C5H9O2+
105.0699	14	C8H9+
109.1012	9	C8H13+
111.0441	3	C6H7O2+
123.0805	488	C8H11O+
141.091	999	C8H13O2+
155.1067	4	C9H15O2+
159.1019	1	C8H15O3+
169.086	88	C9H13O3+
187.0966	4	C9H15O4+
