Mass spectrum: Verapamil; LC-ESI-ITFT; MS2; CE: 35%; R=30000; [M+H]+
Name: Verapamil
Name: 2-(3,4-dimethoxyphenyl)-5-[2-(3,4-dimethoxyphenyl)ethyl-methyl-amino]-2-propan-2-yl-pentanenitrile
Formula: C27H38N2O4
Exact mass: 454.2832
SMILES: COC1=C(OC)C=CC(C(C(C)C)(C#N)CCCN(CCC2=CC(OC)=C(OC)C=C2)C)=C1
InChI: InChI=1S/C27H38N2O4/c1-20(2)27(19-28,22-10-12-24(31-5)26(18-22)33-7)14-8-15-29(3)16-13-21-9-11-23(30-4)25(17-21)32-6/h9-12,17-18,20H,8,13-16H2,1-7H3
Instrument: LTQ Orbitrap XL Thermo Scientific
Instrument type: LC-ESI-ITFT
Ms type: MS2
Ion mode: POSITIVE
Ionization: ESI
Fragmentation mode: CID
Collision energy: 35 % (nominal)
Resolution: 30000
Column name: XBridge C18 3.5um, 2.1x50mm, Waters
Retention time: 7.3 min
Base peak: 455.292
Precursor m/z: 455.2904
Precursor type: [M+H]+
m/z	relative intensity	assigned
131.0492	3	C9H7O+
133.0648	11	C9H9O+
134.0727	2	C9H10O+
135.0441	21	C8H7O2+
135.0804	4	C9H11O+
149.0597	7	C9H9O2+
150.0676	130	C9H10O2+
165.0911	918	C10H13O2+
177.0909	3	C11H13O2+
233.1536	5	C15H21O2+
243.1382	5	C16H19O2+
260.1645	109	C16H22NO2+
261.1597	5	C15H21N2O2+
264.1956	7	C16H26NO2+
303.2071	999	C18H27N2O2+
386.2323	18	C23H32NO4+
