Mass spectrum: Metamitron-desamino; LC-ESI-ITFT; MS2; CE: 75%; R=15000; [M+H]+
Name: Metamitron-desamino
Name: 3-Methyl-6-phenyl-1,2,4-triazin-5-ol
Formula: C10H9N3O
Exact mass: 187.0746
SMILES: c(ccc1C(=NN=C2C)C(=O)N2)cc1
InChI: InChI=1S/C10H9N3O/c1-7-11-10(14)9(13-12-7)8-5-3-2-4-6-8/h2-6H,1H3,(H,11,12,14)
Instrument: LTQ Orbitrap XL Thermo Scientific
Instrument type: LC-ESI-ITFT
Ms type: MS2
Ion mode: POSITIVE
Ionization: ESI
Fragmentation mode: HCD
Collision energy: 75 % (nominal)
Resolution: 15000
Column name: XBridge C18 3.5um, 2.1x50mm, Waters
Retention time: 5.1 min
Base peak: 188.0824
Precursor m/z: 188.0818
Precursor type: [M+H]+
m/z	relative intensity	assigned
53.0385	11	C4H5+
57.0447	28	C2H5N2+
65.0386	19	C5H5+
77.0386	205	C6H5+
85.0397	7	C3H5N2O+
91.0542	61	C7H7+
92.0495	126	C6H6N+
95.0492	32	C6H7O+
103.0417	2	C7H5N+
104.0495	426	C7H6N+
105.0447	63	C6H5N2+
105.0699	8	C8H9+
110.06	2	C6H8NO+
119.0604	370	C7H7N2+
130.0653	10	C9H8N+
131.073	13	C9H9N+
160.0871	999	C9H10N3+
188.0818	78	C10H10N3O+
