Mass spectrum: Azithromycin; LC-ESI-ITFT; MS2; CE: 45%; R=15000; [M+H]+
Name: Azithromycin
Name: (2R,3S,4R,5R,8R,10R,11R,13S,14R)-11-[(2S,3R,4S,6R)-4-(dimethylamino)-3-hydroxy-6-methyloxan-2-yl]oxy-2-ethyl-3,4,10-trihydroxy-13-[(2R,4R,5S,6S)-5-hydroxy-4-methoxy-4,6-dimethyloxan-2-yl]oxy-3,5,6,8,10,12,14-heptamethyl-1-oxa-6-azacyclopentadecan-15-one
Formula: C38H72N2O12
Exact mass: 748.5085
SMILES: CC[C@H]1OC(=O)[C@H](C)[C@@H](O[C@H]2C[C@@](C)(OC)[C@@H](O)[C@H](C)O2)C(C)[C@@H](O[C@@H]3O[C@H](C)C[C@@H]([C@H]3O)N(C)C)[C@](C)(O)C[C@@H](C)CN(C)[C@H](C)[C@@H](O)[C@]1(C)O
InChI: InChI=1S/C38H72N2O12/c1-15-27-38(10,46)31(42)24(6)40(13)19-20(2)17-36(8,45)33(52-35-29(41)26(39(11)12)16-21(3)48-35)22(4)30(23(5)34(44)50-27)51-28-18-37(9,47-14)32(43)25(7)49-28/h20-33,35,41-43,45-46H,15-19H2,1-14H3/t20-,21-,22?,23-,24-,25+,26+,27-,28+,29-,30+,31-,32+,33-,35+,36-,37-,38-/m1/s1
Instrument: LTQ Orbitrap XL Thermo Scientific
Instrument type: LC-ESI-ITFT
Ms type: MS2
Ion mode: POSITIVE
Ionization: ESI
Fragmentation mode: HCD
Collision energy: 45 % (nominal)
Resolution: 15000
Column name: XBridge C18 3.5um, 2.1x50mm, Waters
Retention time: 5.9 min
Base peak: 375.2626
Precursor m/z: 749.5158
Precursor type: [M+H]+
m/z	relative intensity	assigned
55.0542	24	C4H7+
72.0807	291	C4H10N+
81.0698	30	C6H9+
83.0491	999	C5H7O+
85.0282	14	C4H5O2+
88.0756	105	C4H10NO+
98.0963	281	C6H12N+
99.0802	19	C6H11O+
100.0756	28	C5H10NO+
113.0596	87	C6H9O2+
114.0914	23	C6H12NO+
116.0705	308	C5H10NO2+
116.1069	723	C6H14NO+
158.1174	874	C8H16NO2+
186.1486	33	C10H20NO2+
375.2719	18	C15H39N2O8+
631.0176	22	C36H9NO11+
