Mass spectrum: Iodosulfuron-methyl; LC-ESI-QFT; MS2; CE: 180; R=35000; [M+H]+
Name: Iodosulfuron-methyl
Name: Methyl 4-iodo-2-(N-(4-methoxy-6-methyl-1,3,5-triazin-2-ylcarbamoyl)sulfamoyl)benzoate
Name: Methyl 4-iodo-2-[(4-methoxy-6-methyl-1,3,5-triazin-2-yl)carbamoylsulfamoyl]benzoate
Formula: C14H14IN5O6S
Exact mass: 506.97095
SMILES: Cc2nc(NC(=O)NS(=O)(=O)c1cc(I)ccc1C(=O)OC)nc(OC)n2
InChI: InChI=1S/C14H14IN5O6S/c1-7-16-12(19-14(17-7)26-3)18-13(22)20-27(23,24)10-6-8(15)4-5-9(10)11(21)25-2/h4-6H,1-3H3,(H2,16,17,18,19,20,22)
Instrument: Q Exactive Plus Orbitrap Thermo Scientific
Instrument type: LC-ESI-QFT
Ms type: MS2
Ion mode: POSITIVE
Ionization: ESI
Fragmentation mode: HCD
Collision energy: 180 (nominal)
Resolution: 35000
Column name: XBridge C18 3.5um, 2.1x50mm, Waters
Retention time: 9.3 min
Base peak: 507.9772
Precursor m/z: 507.9782
Precursor type: [M+H]+
m/z	relative intensity	assigned
50.0152	190	C4H2+
51.023	27	C4H3+
52.0182	11	C3H2N+
52.0308	8	C4H4+
53.0022	50	C3HO+
53.0386	3	C4H5+
53.9975	4	C2NO+
55.0291	4	C2H3N2+
56.0131	10	C2H2NO+
56.0495	92	C3H6N+
57.0448	19	C2H5N2+
58.0288	75	C2H4NO+
61.0073	118	C5H+
62.0151	349	C5H2+
63.023	295	C5H3+
64.0183	1	C4H2N+
64.0308	5	C5H4+
65.0022	25	C4HO+
65.0261	1	C4H3N+
65.0387	6	C5H5+
66.0086	7	C2N3+
66.0101	5	C4H2O+
67.0291	10	C3H3N2+
68.0243	23	C2H2N3+
69.0083	999	C2HN2O+
69.9923	4	C2NO2+
74.0151	52	C6H2+
75.0103	53	C5HN+
75.0229	28	C6H3+
76.0307	69	C6H4+
77.0022	3	C5HO+
77.0135	2	C4HN2+
77.0385	5	C6H5+
78.0101	7	C5H2O+
78.0463	5	C6H6+
79.0178	14	C5H3O+
81.0334	1	C5H5O+
83.024	14	C3H3N2O+
87.0103	6	C6HN+
88.0182	46	C6H2N+
89.026	12	C6H3N+
89.0387	1	C7H5+
90.034	1	C6H4N+
91.0179	9	C6H3O+
91.0416	2	C6H5N+
94.0036	5	C3N3O+
95.0491	5	C6H7O+
99.0102	1	C7HN+
101.0262	2	C7H3N+
105.0336	1	C7H5O+
105.0448	1	C6H5N2+
126.9039	4	I+
140.9195	3	CH2I+
164.9196	3	C3H2I+
