Mass spectrum: Spirotetramat BYI08330-monohydroxy; LC-ESI-QFT; MS2; CE: 75%; R=17500; [M+H]+
Name: Spirotetramat BYI08330-monohydroxy
Name: 1-Azaspiro(4.5)decan-2-one, 3-(2,5-dimethylphenyl)-4-hydroxy-8-methoxy-
Name: 3-(2,5-dimethylphenyl)-4-hydroxy-8-methoxy-1-azaspiro[4.5]decan-2-one
Formula: C18H25NO3
Exact mass: 303.1834
SMILES: CC1=CC(=C(C=C1)C)C2C(C3(CCC(CC3)OC)NC2=O)O
InChI: InChI=1S/C18H25NO3/c1-11-4-5-12(2)14(10-11)15-16(20)18(19-17(15)21)8-6-13(22-3)7-9-18/h4-5,10,13,15-16,20H,6-9H2,1-3H3,(H,19,21)
Instrument: Exploris 240 Orbitrap Thermo Scientific
Instrument type: LC-ESI-QFT
Ms type: MS2
Ion mode: POSITIVE
Ionization: ESI
Fragmentation mode: HCD
Collision energy: 75 % (nominal)
Resolution: 17500
Column name: XBridge C18 3.5um, 2.1x50mm, Waters
Retention time: 5.434 min
Base peak: 304.1905
Precursor m/z: 304.1907
Precursor type: [M+H]+
m/z	relative intensity	assigned
55.0543	28	C4H7+
67.0542	294	C5H7+
77.0386	68	C6H5+
79.0542	285	C6H7+
80.0496	22	C5H6N+
81.0699	593	C6H9+
91.0542	524	C7H7+
93.0699	201	C7H9+
96.0808	23	C6H10N+
98.0963	63	C6H12N+
103.0543	69	C8H7+
105.0698	251	C8H9+
107.0854	96	C8H11+
108.081	44	C7H10N+
116.0618	78	C9H8+
117.0699	100	C9H9+
119.0855	999	C9H11+
120.081	60	C8H10N+
128.0625	37	C10H8+
129.0694	86	C10H9+
130.0652	26	C9H8N+
130.0775	49	C10H10+
131.0855	611	C10H11+
133.1013	38	C10H13+
134.0966	168	C9H12N+
141.0702	28	C11H9+
142.0777	97	C11H10+
143.0856	185	C11H11+
145.101	264	C11H13+
147.0806	46	C10H11O+
148.0756	116	C9H10NO+
153.0702	26	C12H9+
154.0775	48	C12H10+
155.0853	151	C12H11+
157.1015	197	C12H13+
165.0694	29	C13H9+
167.0856	59	C13H11+
169.1011	404	C13H13+
170.1089	39	C13H14+
172.1119	23	C12H14N+
179.0855	94	C14H11+
181.1012	117	C14H13+
183.117	60	C14H15+
196.1245	61	C15H16+
200.1067	105	C13H14NO+
209.1333	22	C16H17+
226.1595	46	C16H20N+
