Mass spectrum: Pinoxaden-TP NOA 407854; LC-ESI-QFT; MS2; CE: 150%; R=17500; [M-H]-
Name: Pinoxaden-TP NOA 407854
Name: 8-(2,6-Diethyl-4-methylphenyl)tetrahydropyrazolo(1,2-d)(1,4,5)oxadiazepine-7,9-dione
Formula: C18H24N2O3
Exact mass: 316.1787
SMILES: CCC1=CC(C)=CC(CC)=C1C1C(=O)N2CCOCCN2C1=O
InChI: InChI=1S/C18H24N2O3/c1-4-13-10-12(3)11-14(5-2)15(13)16-17(21)19-6-8-23-9-7-20(19)18(16)22/h10-11,16H,4-9H2,1-3H3
Instrument: Q Exactive Plus Orbitrap Thermo Scientific
Instrument type: LC-ESI-QFT
Ms type: MS2
Ion mode: NEGATIVE
Ionization: ESI
Fragmentation mode: HCD
Collision energy: 150 % (nominal)
Resolution: 17500
Column name: XBridge C18 3.5um, 2.1x50mm, Waters
Retention time: 7.157 min
Base peak: 315.1715
Precursor m/z: 315.1714
Precursor type: [M-H]-
m/z	relative intensity	assigned
143.0865	366	C11H11-
157.0659	999	C11H9O-
171.0814	496	C12H11O-
