Mass spectrum: Propetamphos; LC-ESI-QFT; MS2; CE: 45%; R=17500; [M+H]+
Name: Propetamphos
Name: 1-Methylethyl 3-[[(ethylamino)methoxyphosphinothioyl]oxy]-2-butenoate
Name: propan-2-yl 3-[ethylamino(methoxy)phosphinothioyl]oxybut-2-enoate
Formula: C10H20NO4PS
Exact mass: 281.0851
SMILES: CCNP(=S)(OC)OC(=CC(=O)OC(C)C)C
InChI: InChI=1S/C10H20NO4PS/c1-6-11-16(17,13-5)15-9(4)7-10(12)14-8(2)3/h7-8H,6H2,1-5H3,(H,11,17)
Instrument: Exploris 240 Orbitrap Thermo Scientific
Instrument type: LC-ESI-QFT
Ms type: MS2
Ion mode: POSITIVE
Ionization: ESI
Fragmentation mode: HCD
Collision energy: 45 % (nominal)
Resolution: 17500
Column name: XBridge C18 3.5um, 2.1x50mm, Waters
Retention time: 9.418 min
Base peak: 341.072
Precursor m/z: 282.0923
Precursor type: [M+H]+
m/z	relative intensity	assigned
63.9948	8	H3NOP+
67.0179	53	H6NOP+
82.9951	8	C4H3S+
85.0284	99	C4H5O2+
94.0053	7	CH5NO2P+
109.9825	127	CH5NOPS+
112.0161	16	CH7NO3P+
112.0755	6	C6H10NO+
122.0368	47	C3H9NO2P+
123.9981	105	C2H7NOPS+
127.9932	10	CH7NO2PS+
128.9768	17	CH6O3PS+
130.0864	8	C6H12NO2+
138.0137	999	C3H9NOPS+
140.0472	77	C3H11NO3P+
156.0243	309	C3H11NO2PS+
170.04	23	C4H13NO2PS+
194.9877	31	C5H8O4PS+
222.0352	13	C7H13NO3PS+
