Mass spectrum: MCLR; LC-ESI-QFT; MS2; CE: 60%; R=17500; [M-H]-
Name: MCLR
Name: Microcystin LR
Name: (5R,8S,11R,12S,15S,18S,19S,22R)-15-[3-(diaminomethylideneamino)propyl]-18-[(1E,3E,5S,6S)-6-methoxy-3,5-dimethyl-7-phenylhepta-1,3-dienyl]-1,5,12,19-tetramethyl-2-methylidene-8-(2-methylpropyl)-3,6,9,13,16,20,25-heptaoxo-1,4,7,10,14,17,21-heptazacyclopentacosane-11,22-dicarboxylic acid
Class: NA
Formula: C49H74N10O12
Exact mass: 994.5488
SMILES: CO[C@@H](Cc1ccccc1)[C@@H](C)/C=C(C)/C=C/[C@@H]2NC(=O)[C@H](CCCNC(N)=N)NC(=O)[C@@H](C)[C@@H](NC(=O)[C@H](CC(C)C)NC(=O)[C@@H](C)NC(=O)C(=C)N(C)C(=O)CC[C@@H](NC(=O)[C@H]2C)C(O)=O)C(O)=O
InChI: InChI=1S/C49H74N10O12/c1-26(2)23-37-46(66)58-40(48(69)70)30(6)42(62)55-35(17-14-22-52-49(50)51)45(65)54-34(19-18-27(3)24-28(4)38(71-10)25-33-15-12-11-13-16-33)29(5)41(61)56-36(47(67)68)20-21-39(60)59(9)32(8)44(64)53-31(7)43(63)57-37/h11-13,15-16,18-19,24,26,28-31,34-38,40H,8,14,17,20-23,25H2,1-7,9-10H3,(H,53,64)(H,54,65)(H,55,62)(H,56,61)(H,57,63)(H,58,66)(H,67,68)(H,69,70)(H4,50,51,52)/b19-18+,27-24+/t28-,29-,30-,31+,34-,35-,36+,37-,38-,40+/m0/s1
Instrument: Q Exactive Plus Orbitrap Thermo Scientific
Instrument type: LC-ESI-QFT
Ms type: MS2
Ion mode: NEGATIVE
Ionization: ESI
Fragmentation mode: HCD
Collision energy: 60 % (nominal)
Resolution: 17500
Column name: XBridge C18 3.5um, 2.1x50mm, Waters
Retention time: 8.567 min
Base peak: 190.9277
Precursor m/z: 993.5415
Precursor type: [M-H]-
m/z	relative intensity	assigned
72.0455	56	C3H6NO-
73.0295	42	C3H5O2-
74.0249	83	C2H4NO2-
82.0297	51	C4H4NO-
82.0663	40	C5H8N-
84.0455	92	C4H6NO-
87.0565	81	C3H7N2O-
99.0565	183	C4H7N2O-
109.0408	50	C5H5N2O-
110.0248	355	C5H4NO2-
111.0199	28	C4H3N2O2-
112.0405	116	C5H6NO2-
112.0767	49	C6H10NO-
113.0356	62	C4H5N2O2-
122.0974	24	C8H12N-
123.0562	38	C6H7N2O-
124.0405	168	C6H6NO2-
125.0594	29	C5H7N3O-
127.0512	67	C5H7N2O2-
128.0353	999	C5H6NO3-
129.1034	342	C6H13N2O-
130.0877	31	C6H12NO2-
130.0978	32	C3H10N6-
138.0434	84	C6H6N2O2-
138.0553	37	C5H6N4O-
139.0877	220	C7H11N2O-
150.0558	99	C8H8NO2-
153.0665	159	C7H9N2O2-
153.1032	56	C8H13N2O-
155.0828	92	C7H11N2O2-
155.1188	28	C8H15N2O-
163.0882	26	C9H11N2O-
165.1027	319	C9H13N2O-
167.0822	47	C8H11N2O2-
168.1144	28	C8H14N3O-
180.1134	276	C7H12N6-
181.0977	109	C9H13N2O2-
182.1291	554	C7H14N6-
183.1132	71	C7H13N5O-
198.1243	79	C9H16N3O2-
200.1396	181	C7H16N6O-
206.0923	39	C8H10N6O-
208.1087	55	C10H14N3O2-
265.1661	146	C12H25O6-
