Mass spectrum: Metoprolol; LC-ESI-ITFT; MS2; CE: 15%; R=15000; [M+H]+
Name: Metoprolol
Name: 1-(isopropylamino)-3-[4-(2-methoxyethyl)phenoxy]propan-2-ol
Formula: C15H25NO3
Exact mass: 267.1834
SMILES: COCCC1=CC=C(OCC(O)CNC(C)C)C=C1
InChI: InChI=1S/C15H25NO3/c1-12(2)16-10-14(17)11-19-15-6-4-13(5-7-15)8-9-18-3/h4-7,12,14,16-17H,8-11H2,1-3H3
Instrument: LTQ Orbitrap XL Thermo Scientific
Instrument type: LC-ESI-ITFT
Ms type: MS2
Ion mode: POSITIVE
Ionization: ESI
Fragmentation mode: HCD
Collision energy: 15 % (nominal)
Resolution: 15000
Column name: XBridge C18 3.5um, 2.1x50mm, Waters
Retention time: 5.1 min
Base peak: 268.1916
Precursor m/z: 268.1907
Precursor type: [M+H]+
m/z	relative intensity	assigned
268.1909	999	C15H26NO3+
