Mass spectrum: Ifosfamide; LC-ESI-ITFT; MS2; CE: 30%; R=7500; [M+H]+
Name: Ifosfamide
Name: Isophosphamide
Name: N,3-Bis(2-chloroethyl)-1,3,2-oxazaphosphinan-2-amine 2-oxide
Formula: C7H15Cl2N2O2P
Exact mass: 260.0248
SMILES: ClCCN(P(OC1)(=O)NCCCl)CC1
InChI: InChI=1S/C7H15Cl2N2O2P/c8-2-4-10-14(12)11(6-3-9)5-1-7-13-14/h1-7H2,(H,10,12)
Instrument: LTQ Orbitrap XL Thermo Scientific
Instrument type: LC-ESI-ITFT
Ms type: MS2
Ion mode: POSITIVE
Ionization: ESI
Fragmentation mode: HCD
Collision energy: 30 % (nominal)
Resolution: 7500
Column name: XBridge C18 3.5um, 2.1x50mm, Waters
Retention time: 6.3 min
Base peak: 261.0321
Precursor m/z: 261.0321
Precursor type: [M+H]+
m/z	relative intensity	assigned
62.9997	1	C2H4Cl+
78.0106	19	C2H5ClN+
92.0261	31	C3H7ClN+
120.0574	10	C5H11ClN+
127.9667	1	C2H4Cl2NO+
146.0366	3	C5H9NO2P+
153.9819	30	C3H6ClNO2P+
182.0132	61	C5H10ClNO2P+
200.0237	21	C6H12Cl2NO2+
217.9894	1	C5H11Cl2NO2P+
233.0007	134	C5H12Cl2N2O2P+
261.0321	999	C7H16Cl2N2O2P+
