Mass spectrum: Oxyfluorfen; LC-ESI-QFT; MS2; CE: 75; R=35000; [M+H]+
Name: Oxyfluorfen
Name: 2-chloranyl-1-(3-ethoxy-4-nitro-phenoxy)-4-(trifluoromethyl)benzene
Formula: C15H11ClF3NO4
Exact mass: 361.03287
SMILES: Clc2cc(ccc2Oc1ccc([N+]([O-])=O)c(OCC)c1)C(F)(F)F
InChI: InChI=1S/C15H11ClF3NO4/c1-2-23-14-8-10(4-5-12(14)20(21)22)24-13-6-3-9(7-11(13)16)15(17,18)19/h3-8H,2H2,1H3
Instrument: Q Exactive Orbitrap Thermo Scientific
Instrument type: LC-ESI-QFT
Ms type: MS2
Ion mode: POSITIVE
Ionization: ESI
Fragmentation mode: HCD
Collision energy: 75 (nominal)
Resolution: 35000
Column name: XBridge C18 3.5um, 2.1x50mm, Waters
Retention time: 15.5 min
Base peak: 362.0402
Precursor m/z: 362.0401
Precursor type: [M+H]+
m/z	relative intensity	assigned
53.0024	26	C3HO+
57.0137	2	C3H2F+
63.023	6	C5H3+
64.0183	14	C4H2N+
65.0261	85	C4H3N+
65.0387	17	C5H5+
67.0179	3	C4H3O+
67.0417	5	C4H5N+
68.0132	6	C3H2NO+
68.9947	21	CF3+
68.9971	25	C3HO2+
72.9839	3	C3H2Cl+
76.0182	176	C5H2N+
77.026	3	C5H3N+
77.0385	11	C6H5+
78.0339	11	C5H4N+
78.0464	57	C6H6+
79.0178	48	C5H3O+
80.0133	3	C4H2NO+
81.0135	22	C5H2F+
84.9651	3	CClF2+
89.0386	6	C7H5+
91.0542	3	C7H7+
93.0209	118	C5H3NO+
93.9924	3	C4NO2+
94.0288	4	C5H4NO+
95.0366	14	C5H5NO+
95.0492	4	C6H7O+
96.008	12	C4H2NO2+
96.0444	13	C5H6NO+
96.9841	5	C5H2Cl+
99.0042	3	C5HF2+
104.0131	11	C6H2NO+
105.0448	4	C6H5N2+
107.0128	35	C6H3O2+
108.0369	11	C7H5F+
108.9839	4	C6H2Cl+
113.0197	4	C6H3F2+
113.0386	72	C9H5+
116.9901	4	C5H3ClF+
120.0371	5	C8H5F+
124.0074	11	C7H5Cl+
124.0394	19	C6H6NO2+
126.0465	3	C10H6+
127.0416	6	C9H5N+
128.0496	30	C9H6N+
128.0621	16	C10H8+
131.0104	12	C6H2F3+
131.0292	3	C9H4F+
132.0181	253	C6H3F3+
132.0369	28	C9H5F+
133.0448	5	C9H6F+
136.0074	11	C8H5Cl+
136.0319	21	C8H5FO+
138.0277	14	C8H4F2+
138.0338	18	C10H4N+
139.0416	16	C10H5N+
139.0547	4	C11H7+
140.0494	999	C10H6N+
141.0143	13	C7H3F2O+
141.057	12	C10H7N+
141.0698	15	C11H9+
143.0057	9	C7H5ClF+
143.0368	3	C9H5NO+
144.0182	59	C7H3F3+
144.0368	26	C10H5F+
145.0258	4	C7H4F3+
146.9808	13	C6H2ClF2+
146.9998	10	C9H4Cl+
147.0477	11	C9H6FN+
148.0075	43	C9H5Cl+
148.0181	13	C11H2N+
149.015	8	C9H6Cl+
151.0354	28	C9H5F2+
152.0023	33	C8H5ClO+
156.0182	65	C8H3F3+
156.0243	6	C10H3FN+
156.0443	19	C10H6NO+
156.9963	18	C9FNO+
157.0259	5	C8H4F3+
157.0322	4	C10H4FN+
157.0522	24	C10H7NO+
158.0336	35	C8H5F3+
158.04	154	C10H5FN+
158.9808	18	C7H2ClF2+
159.0165	22	C6H2F3N2+
159.0477	11	C10H6FN+
160.0319	35	C10H5FO+
161.0198	30	C10H3F2+
161.0267	5	C9H4FNO+
162.0276	147	C10H4F2+
162.9949	6	C9H4ClO+
163.0232	26	C9H3F2N+
164.043	2	C10H6F2+
164.9909	24	C6H4ClF2O+
166.987	152	C6H3ClF3+
167.0058	49	C9H5ClF+
168.0013	20	C8H4ClFN+
168.0245	27	C11H3FN+
168.0444	58	C11H6NO+
168.0567	4	C12H8O+
169.0258	71	C9H4F3+
169.0323	54	C11H4FN+
169.0519	21	C11H7NO+
170.0337	70	C9H5F3+
170.0409	4	C11H5FN+
172.0315	33	C11H5FO+
173.0511	4	C10H6FN2+
174.0103	58	C10H5ClN+
174.9754	6	C7H2ClF2O+
174.9868	80	C6F3NO2+
175.0187	19	C10H6ClN+
175.0351	12	C11H5F2+
175.0423	4	C10H6FNO+
176.002	171	C10H5ClO+
176.0306	32	C10H4F2N+
176.9913	74	C7H4ClF2O+
176.9988	4	C6H5ClFNO2+
177.0388	6	C10H5F2N+
177.0511	44	C11H7F2+
178.9869	377	C7H3ClF3+
180.013	14	C10H6ClF+
181.0258	26	C10H4F3+
182.0221	42	C5H9ClNO4+
182.0337	576	C10H5F3+
183.0292	34	C5H10ClNO4+
183.0416	43	C10H6F3+
184.0519	183	C12H8O2+
184.9965	29	C9H4ClF2+
185.0203	3	C9H4F3O+
186.0158	7	C8H3F3NO+
186.0285	79	C9H5F3O+
186.0546	26	C11H8NO2+
187.0428	283	C11H6FNO+
188.0305	23	C11H4F2N+
188.0507	18	C11H7FNO+
189.0384	531	C11H5F2N+
190.0463	44	C11H6F2N+
190.987	32	C8H3ClF3+
191.0126	3	C13H3O2+
191.0411	20	C10H5F2N2+
192.0012	52	C10H4ClFN+
193.0028	13	C8H5ClF3+
193.9741	14	C7H2ClF3O+
194.0337	3	C11H5F3+
194.9823	19	C7H3ClF3O+
195.0416	102	C11H6F3+
195.9896	10	C7H4ClF3O+
196.0375	36	C6H11ClNO4+
196.0496	11	C11H7F3+
197.0208	12	C10H4F3O+
197.0451	28	C6H12ClNO4+
197.0591	15	C13H9O2+
197.9919	4	C9H3ClF2N+
198.0045	3	C10H5ClF2+
198.0352	59	C12H5FNO+
200.0445	17	C10H7F3O+
200.9982	32	C11H2FO3+
201.986	3	C11F2O2+
202.0056	15	C11H5ClNO+
203.0132	147	C11H6ClNO+
203.9829	13	C8H2ClF3N+
203.9949	57	C9H4ClF3+
204.0214	30	
205.0019	4	C9H5ClF3+
205.0336	14	C11H5F2NO+
205.046	5	C12H7F2O+
206.0207	16	C11H3F3N+
206.0413	31	C11H6F2NO+
207.0292	162	C7H10ClNO4+
207.0414	25	C12H6F3+
208.037	69	
209.021	17	C11H4F3O+
209.0447	35	C11H6F3N+
209.0574	12	C12H8F3+
210.0287	532	C11H5F3O+
211.0119	12	C11H6ClF2+
211.0235	6	C10H4F3NO+
211.0603	24	C11H8F3N+
212.0324	3	C10H5F3NO+
212.9923	3	C7H5ClF3O2+
214.9872	12	C10H3ClF3+
215.9947	4	C10H4ClF3+
216.0256	58	C12H4F2NO+
217.0026	54	C10H5ClF3+
217.0334	12	C12H5F2NO+
217.0457	5	C13H7F2O+
218.0413	394	C12H6F2NO+
219.0329	5	C11H6FNO3+
220.9812	17	C8H4ClF2O3+
221.993	4	C8H4ClF3NO+
222.9769	177	C8H3ClF3O2+
223.0366	113	C12H6F3O+
223.0473	11	C10H9NO5+
224.0314	11	C11H5F3NO+
224.9913	83	C11H4ClF2O+
225.0287	6	C9H9ClF3O+
225.0396	25	C11H6F3NO+
225.0521	37	C12H8F3O+
225.9864	11	C10H3ClF2NO+
229.0029	16	C11H5ClF3+
230.01	18	C11H6ClF3+
231.9962	5	C12H4ClFNO+
232.9979	11	C10H5ClF3O+
233.0409	103	C13H7F2O2+
234.0157	4	C12H3F3NO+
235.0241	48	C12H4F3NO+
236.0319	138	C12H5F3NO+
237.0398	185	C12H6F3NO+
238.0473	43	C12H7F3NO+
238.06	22	C13H9F3O+
239.0551	5	C12H8F3NO+
239.9791	15	C8H4ClF3O3+
241.9978	17	C11H4ClF3N+
243.9896	15	C11H4ClF3O+
245.9928	24	C10H4ClF3NO+
249.0238	5	C12H5F2NO3+
249.0521	19	C14H8F3O+
249.9865	24	C12H3ClF2NO+
252.0022	37	C12H5ClF2NO+
254.0426	4	C12H7F3NO2+
256.9984	20	C12H5ClF3O+
263.043	10	C15H10ClF2+
265.0471	48	C14H8F3O2+
272.9927	5	C12H5ClF3O2+
274.0244	10	C12H8ClF3NO+
282.0374	16	C13H7F3NO3+
284.9921	10	C13H5ClF3O2+
300.0036	39	C13H6ClF3NO2+
301.0235	27	C14H9ClF3O2+
