Mass spectrum: Corticosterone; LC-ESI-QFT; MS2; CE: 45; R=35000; [M+H]+
Name: Corticosterone
Name: 11b,21-Dihydroxyprogesterone
Name: (8S,9S,10R,11S,13S,14S,17S)-11-hydroxy-17-(2-hydroxyacetyl)-10,13-dimethyl-1,2,6,7,8,9,11,12,14,15,16,17-dodecahydrocyclopenta[a]phenanthren-3-one
Formula: C21H30O4
Exact mass: 346.21441
SMILES: O=C4\C=C2/[C@]([C@H]1[C@@H](O)C[C@@]3([C@@H](C(=O)CO)CC[C@H]3[C@@H]1CC2)C)(C)CC4
InChI: InChI=1S/C21H30O4/c1-20-8-7-13(23)9-12(20)3-4-14-15-5-6-16(18(25)11-22)21(15,2)10-17(24)19(14)20/h9,14-17,19,22,24H,3-8,10-11H2,1-2H3/t14-,15-,16+,17-,19+,20-,21-/m0/s1
Instrument: Q Exactive Plus Orbitrap Thermo Scientific
Instrument type: LC-ESI-QFT
Ms type: MS2
Ion mode: POSITIVE
Ionization: ESI
Fragmentation mode: HCD
Collision energy: 45 (nominal)
Resolution: 35000
Column name: XBridge C18 3.5um, 2.1x50mm, Waters
Retention time: 8.9 min
Base peak: 347.2214
Precursor m/z: 347.2217
Precursor type: [M+H]+
m/z	relative intensity	assigned
51.0228	1	C4H3+
53.0022	1	C3HO+
53.0384	8	C4H5+
55.0178	23	C3H3O+
55.0542	46	C4H7+
57.0335	7	C3H5O+
57.0699	2	C4H9+
59.0491	2	C3H7O+
61.0284	11	C2H5O2+
65.0385	2	C5H5+
67.0542	72	C5H7+
69.0334	35	C4H5O+
69.0699	38	C5H9+
71.0491	15	C4H7O+
73.0648	2	C4H9O+
77.0385	8	C6H5+
79.0542	132	C6H7+
81.0699	176	C6H9+
83.0491	187	C5H7O+
83.0854	12	C6H11+
85.0648	19	C5H9O+
87.0441	73	C4H7O2+
91.0542	109	C7H7+
93.0699	241	C7H9+
95.0492	30	C6H7O+
95.0855	219	C7H11+
97.0648	603	C6H9O+
99.0441	23	C5H7O2+
99.0804	5	C6H11O+
101.0597	86	C5H9O2+
103.0541	5	C8H7+
105.0699	244	C8H9+
107.0491	45	C7H7O+
107.0855	305	C8H11+
109.0648	298	C7H9O+
109.1012	61	C8H13+
111.0441	28	C6H7O2+
111.0804	24	C7H11O+
113.0597	2	C6H9O2+
115.0541	10	C9H7+
115.0751	1	C6H11O2+
117.0699	85	C9H9+
119.0856	264	C9H11+
121.0648	999	C8H9O+
121.1012	105	C9H13+
123.0804	515	C8H11O+
125.0596	5	C7H9O2+
125.0962	3	C8H13O+
127.054	1	C10H7+
127.0753	6	C7H11O2+
128.0618	11	C10H8+
129.0699	60	C10H9+
130.0776	2	C10H10+
131.0855	229	C10H11+
132.0938	1	C10H12+
133.0648	37	C9H9O+
133.1012	275	C10H13+
135.0804	252	C9H11O+
135.1168	84	C10H15+
137.0597	5	C8H9O2+
137.0961	49	C9H13O+
139.0752	8	C8H11O2+
139.1119	1	C9H15O+
141.0697	21	C11H9+
142.0777	19	C11H10+
143.0856	189	C11H11+
144.0934	6	C11H12+
145.1012	301	C11H13+
146.0726	4	C10H10O+
146.1096	1	C11H14+
147.0804	151	C10H11O+
147.1168	190	C11H15+
148.0884	2	C10H12O+
149.0961	96	C10H13O+
149.1325	35	C11H17+
151.0753	6	C9H11O2+
151.1115	9	C10H15O+
153.091	33	C9H13O2+
154.0776	5	C12H10+
155.0855	82	C12H11+
156.0934	46	C12H12+
157.1012	271	C12H13+
158.0727	2	C11H10O+
158.109	6	C12H14+
159.0804	64	C11H11O+
159.1168	232	C12H15+
160.0882	1	C11H12O+
160.1246	2	C12H16+
161.0961	143	C11H13O+
161.1325	65	C12H17+
162.1035	1	C11H14O+
163.1117	258	C11H15O+
165.0693	2	C13H9+
165.091	7	C10H13O2+
165.1276	4	C11H17O+
166.0777	1	C13H10+
167.0855	18	C13H11+
167.1067	5	C10H15O2+
168.0934	13	C13H12+
169.1012	167	C13H13+
170.1091	6	C13H14+
171.0804	25	C12H11O+
171.1168	284	C13H15+
172.1245	2	C13H16+
173.0961	87	C12H13O+
173.1325	90	C13H17+
174.1038	2	C12H14O+
175.1118	198	C12H15O+
175.1481	16	C13H19+
176.1195	7	C12H16O+
177.0911	2	C11H13O2+
177.1274	49	C12H17O+
179.0855	9	C14H11+
179.1067	10	C11H15O2+
180.0933	6	C14H12+
181.1012	56	C14H13+
182.1091	19	C14H14+
183.1169	139	C14H15+
184.1244	5	C14H16+
185.0961	35	C13H13O+
185.1325	115	C14H17+
186.1041	1	C13H14O+
186.1402	4	C14H18+
187.1117	101	C13H15O+
187.1481	51	C14H19+
188.1195	1	C13H16O+
189.1274	123	C13H17O+
191.1067	2	C12H15O2+
191.1427	7	C13H19O+
192.094	1	C15H12+
193.1013	25	C15H13+
193.1224	29	C12H17O2+
194.1089	10	C15H14+
195.1169	87	C15H15+
196.1249	10	C15H16+
197.096	20	C14H13O+
197.1325	110	C15H17+
198.104	1	C14H14O+
198.1405	1	C15H18+
199.1117	41	C14H15O+
199.1481	43	C15H19+
201.1274	80	C14H17O+
201.1637	18	C15H21+
202.1358	1	C14H18O+
203.1063	11	C13H15O2+
203.1432	16	C14H19O+
205.101	10	C16H13+
205.1223	9	C13H17O2+
206.1092	2	C16H14+
207.1168	37	C16H15+
207.138	7	C13H19O2+
208.1242	9	C16H16+
209.096	7	C15H13O+
209.1325	104	C16H17+
210.1037	1	C15H14O+
210.1402	11	C16H18+
211.1117	38	C15H15O+
211.1482	105	C16H19+
212.1198	2	C15H16O+
212.1558	1	C16H20+
213.1274	44	C15H17O+
213.1638	25	C16H21+
214.1352	4	C15H18O+
215.1431	47	C15H19O+
217.1223	6	C14H17O2+
217.1587	2	C15H21O+
218.1092	4	C17H14+
219.1167	19	C17H15+
219.138	10	C14H19O2+
220.1247	14	C17H16+
221.1325	29	C17H17+
222.1039	2	C16H14O+
222.1402	6	C17H18+
223.1121	13	C16H15O+
223.1482	91	C17H19+
224.1197	2	C16H16O+
224.1562	1	C17H20+
225.1275	31	C16H17O+
225.1638	50	C17H21+
226.1352	2	C16H18O+
227.1431	53	C16H19O+
227.1792	13	C17H23+
228.151	7	C16H20O+
229.1228	8	C15H17O2+
229.1588	80	C16H21O+
231.1166	2	C18H15+
231.1377	5	C15H19O2+
232.1245	5	C18H16+
233.1326	22	C18H17+
233.1531	9	C15H21O2+
234.1403	7	C18H18+
235.1481	58	C18H19+
236.1199	1	C17H16O+
236.1561	9	C18H20+
237.1274	27	C17H17O+
237.1637	35	C18H21+
238.1353	3	C17H18O+
239.1431	50	C17H19O+
239.1796	10	C18H23+
241.1587	60	C17H21O+
241.1949	8	C18H25+
242.1665	2	C17H22O+
243.1378	5	C16H19O2+
243.1744	30	C17H23O+
245.1324	6	C19H17+
245.1536	14	C16H21O2+
246.1402	8	C19H18+
247.1485	19	C19H19+
247.1691	6	C16H23O2+
249.1638	27	C19H21+
250.1347	2	C18H18O+
250.1717	4	C19H22+
251.1431	25	C18H19O+
251.1795	68	C19H23+
252.1503	5	C18H20O+
252.187	8	C19H24+
253.1586	72	C18H21O+
253.1948	26	C19H25+
254.1664	8	C18H22O+
255.1378	10	C17H19O2+
255.1744	36	C18H23O+
257.1534	6	C17H21O2+
259.1693	11	C17H23O2+
260.1562	10	C20H20+
263.1422	1	C19H19O+
263.1793	18	C20H23+
265.1587	34	C19H21O+
265.1952	38	C20H25+
267.1745	47	C19H23O+
268.1815	6	C19H24O+
269.1537	8	C18H21O2+
269.19	76	C19H25O+
271.1691	37	C18H23O2+
271.2059	14	C19H27O+
275.1794	34	C21H23+
278.166	8	C20H22O+
281.19	35	C20H25O+
283.1703	11	C19H23O2+
283.2056	13	C20H27O+
285.1847	13	C19H25O2+
287.1999	6	C19H27O2+
293.19	82	C21H25O+
296.1772	10	C20H24O2+
298.1928	2	C20H26O2+
299.1637	7	C19H23O3+
299.2003	2	C20H27O2+
301.1792	7	C19H25O3+
303.1962	2	C19H27O3+
311.2005	78	C21H27O2+
314.1878	16	C20H26O3+
329.2112	94	C21H29O3+
347.2215	10	C21H31O4+
