Mass spectrum: Fenthion-sulfone; LC-ESI-QFT; MS2; CE: 75; R=35000; [M+H]+
Name: Fenthion-sulfone
Name: Fenthione sulphone
Name: O,O-Dimethyl O-[3-methyl-4-(methylsulfonyl)phenyl] phosphorothioate
Formula: C10H15O5PS2
Exact mass: 310.00985
SMILES: CC1=C(C=CC(=C1)OP(=S)(OC)OC)S(=O)(=O)C
InChI: InChI=1S/C10H15O5PS2/c1-8-7-9(15-16(17,13-2)14-3)5-6-10(8)18(4,11)12/h5-7H,1-4H3
Instrument: Q Exactive Plus Orbitrap Thermo Scientific
Instrument type: LC-ESI-QFT
Ms type: MS2
Ion mode: POSITIVE
Ionization: ESI
Fragmentation mode: HCD
Collision energy: 75 (nominal)
Resolution: 35000
Column name: XBridge C18 3.5um, 2.1x50mm, Waters
Retention time: 7.8 min
Base peak: 311.0163
Precursor m/z: 311.0171
Precursor type: [M+H]+
m/z	relative intensity	assigned
50.0151	3	C4H2+
51.0228	5	C4H3+
53.0022	1	C3HO+
53.0386	19	C4H5+
55.0178	7	C3H3O+
55.0542	1	C4H7+
58.995	7	C2H3S+
59.9664	10	COS+
61.0106	4	C2H5S+
62.0184	88	C2H6S+
62.9452	36	PS+
62.9899	18	CH3OS+
62.9994	4	CH4OP+
63.0228	3	C5H3+
65.0386	174	C5H5+
66.0464	43	C5H6+
67.0542	71	C5H7+
68.9792	1	C3HS+
70.995	6	C3H3S+
73.0105	1	C3H5S+
74.9897	1	C2H3OS+
77.0385	52	C6H5+
78.0134	12	C2H6OS+
78.0464	109	C6H6+
78.9943	999	CH4O2P+
79.0542	105	C6H7+
80.0619	2	C6H8+
81.0099	1	CH6O2P+
81.0334	4	C5H5O+
84.0028	6	C4H4S+
85.0105	7	C4H5S+
89.0385	16	C7H5+
90.0464	11	C7H6+
91.0542	216	C7H7+
92.062	44	C7H8+
93.01	39	C2H6O2P+
93.0335	43	C6H5O+
93.0699	29	C7H9+
94.0413	100	C6H6O+
94.9714	7	CH4OPS+
95.0491	128	C6H7O+
97.0049	26	CH6O3P+
97.0106	42	C5H5S+
98.0185	10	C5H6S+
98.9841	4	H4O4P+
99.0263	6	C5H7S+
103.0542	67	C8H7+
104.062	54	C8H8+
105.0334	29	C7H5O+
105.0447	45	C6H5N2+
105.0699	202	C8H9+
106.0412	11	C7H6O+
107.0044	3	C6H4P+
107.0491	54	C7H7O+
108.0027	14	C6H4S+
108.0568	13	C7H8O+
109.005	14	C2H6O3P+
109.0106	37	C6H5S+
109.0647	8	C7H9O+
110.0184	25	C6H6S+
111.0262	111	C6H7S+
112.9996	4	CH6O4P+
113.0149	1	C5H6OP+
119.0492	8	C8H7O+
119.0603	7	C7H7N2+
120.0568	3	C8H8O+
121.0106	87	C7H5S+
121.0283	11	C7H5O2+
121.0647	36	C8H9O+
122.0184	55	C7H6S+
122.0362	12	C7H6O2+
122.0726	6	C8H10O+
123.0262	111	C7H7S+
123.044	25	C7H7O2+
124.0341	22	C7H8S+
124.9821	343	C2H6O2PS+
126.0134	8	C6H6OS+
127.0154	833	C2H8O4P+
128.9769	7	CH6O3PS+
134.0183	3	C8H6S+
135.0262	40	C8H7S+
135.9978	9	C7H4OS+
136.0072	3	C7H5OP+
136.0341	12	C8H8S+
137.0055	45	C7H5OS+
137.0147	12	C7H6OP+
137.0419	57	C8H9S+
138.0134	24	C7H6OS+
138.0497	11	C8H10S+
139.0212	428	C7H7OS+
139.9843	35	C6H5PS+
141.0314	2	C3H10O4P+
141.0368	3	C7H9OS+
142.9926	505	C2H8O3PS+
151.0209	1	C8H7OS+
151.9844	24	C7H5PS+
152.0019	1	C7H5O2P+
152.029	4	C8H8OS+
152.9828	5	C7H5S2+
152.9922	4	C7H6PS+
153.0004	1	C7H5O2S+
153.01	5	C7H6O2P+
153.0368	4	C8H9OS+
154.008	10	C7H6O2S+
154.9714	27	C6H4OPS+
155.0253	1	C7H8O2P+
157.0083	11	C3H10O3PS+
159.0206	1	C6H8O3P+
166.9715	1	C7H4OPS+
166.9983	1	C8H7S2+
167.0256	4	C8H8O2P+
167.9793	168	C7H5OPS+
168.9871	363	C7H6OPS+
169.9949	87	C7H7OPS+
170.9486	1	C6H4PS2+
170.9932	1	C7H7OS2+
172.9819	1	C6H6O2PS+
173.0361	4	C7H10O3P+
181.9949	3	C8H7OPS+
182.9664	28	C7H4O2PS+
183.9741	7	C7H5O2PS+
184.9819	16	C7H6O2PS+
185.0268	4	C8H9O3S+
185.0355	2	C8H10O3P+
185.9899	7	C7H7O2PS+
186.9974	10	C7H8O2PS+
197.0381	1	C8H9N2O2S+
198.9435	6	C7H4OPS2+
199.0514	1	C9H12O3P+
200.0054	20	C8H9O2PS+
200.9769	3	C7H6O3PS+
201.0038	4	C8H9O2S2+
201.9848	1	C7H7O3PS+
202.9926	15	C7H8O3PS+
216.0272	8	C9H12O2S2+
217.0079	2	C8H10O3PS+
217.0347	1	C9H13O2S2+
218.0157	1	C8H11O3PS+
219.0237	3	C8H12O3PS+
246.9647	19	C8H8O3PS2+
247.0188	1	C9H12O4PS+
