Mass spectrum: Pioglitazone; LC-ESI-QFT; MS2; CE: 75; R=35000; [M+H]+
Name: Pioglitazone
Name: 5-[[4-[2-(5-ethylpyridin-2-yl)ethoxy]phenyl]methyl]-1,3-thiazolidine-2,4-dione
Formula: C19H20N2O3S
Exact mass: 356.11946
SMILES: CCC1=CN=C(C=C1)CCOC2=CC=C(C=C2)CC3C(=O)NC(=O)S3
InChI: InChI=1S/C19H20N2O3S/c1-2-13-3-6-15(20-12-13)9-10-24-16-7-4-14(5-8-16)11-17-18(22)21-19(23)25-17/h3-8,12,17H,2,9-11H2,1H3,(H,21,22,23)
Instrument: Q Exactive Orbitrap Thermo Scientific
Instrument type: LC-ESI-QFT
Ms type: MS2
Ion mode: POSITIVE
Ionization: ESI
Fragmentation mode: HCD
Collision energy: 75 (nominal)
Resolution: 35000
Column name: XBridge C18 3.5um, 2.1x50mm, Waters
Retention time: 6.0 min
Base peak: 357.1277
Precursor m/z: 357.1267
Precursor type: [M+H]+
m/z	relative intensity	assigned
65.0387	3	C5H5+
66.0466	2	C5H6+
77.0387	2	C6H5+
78.0339	1	C5H4N+
79.0544	43	C6H7+
80.0496	2	C5H6N+
81.0336	2	C5H5O+
91.0418	1	C6H5N+
91.0544	17	C7H7+
92.0496	5	C6H6N+
93.0574	13	C6H7N+
93.07	2	C7H9+
95.0493	15	C6H7O+
96.0446	16	C5H6NO+
104.0497	12	C7H6N+
105.045	4	C6H5N2+
105.0574	1	C7H7N+
106.0653	73	C7H8N+
107.0731	13	C7H9N+
108.081	4	C7H10N+
109.0523	4	C6H7NO+
110.0602	3	C6H8NO+
117.0574	2	C8H7N+
118.0653	58	C8H8N+
119.0732	924	C8H9N+
120.0809	68	C8H10N+
121.0887	18	C8H11N+
122.0603	5	C7H8NO+
123.068	2	C7H9NO+
124.0759	22	C7H10NO+
132.0813	2	C9H10N+
134.0967	999	C9H12N+
135.1044	46	C9H13N+
139.063	5	C7H9NO2+
