Mass spectrum: Thiamethoxam; LC-ESI-ITFT; MS2; CE: 45%; R=7500; [M+H]+
Name: Thiamethoxam
Name: 3-((2-Chloro-5-thiazolyl)methyl)tetrahydro-5-methyl-N-nitro-4H-1,3,5-oxadiazin-4-imine
Formula: C8H10ClN5O3S
Exact mass: 291.0193
SMILES: Clc1ncc(s1)CN2\C(=N\[N+]([O-])=O)N(C)COC2
InChI: InChI=1S/C8H10ClN5O3S/c1-12-4-17-5-13(8(12)11-14(15)16)3-6-2-10-7(9)18-6/h2H,3-5H2,1H3/b11-8+
Instrument: LTQ Orbitrap XL Thermo Scientific
Instrument type: LC-ESI-ITFT
Ms type: MS2
Ion mode: POSITIVE
Ionization: ESI
Fragmentation mode: HCD
Collision energy: 45 % (nominal)
Resolution: 7500
Column name: XBridge C18 3.5um, 2.1x50mm, Waters
Retention time: 4.1 min
Base peak: 292.0274
Precursor m/z: 292.0266
Precursor type: [M+H]+
m/z	relative intensity	assigned
57.0447	2	C2H5N2+
67.0415	2	C4H5N+
69.0448	126	C3H5N2+
70.9951	2	C3H3S+
81.0444	2	C4H5N2+
98.0061	2	C4H4NS+
99.0012	60	C3H3N2S+
99.0554	4	C4H7N2O+
100.0633	3	C4H8N2O+
108.0557	21	C5H6N3+
112.0216	8	C5H6NS+
113.017	4	C4H5N2S+
122.0714	219	C6H8N3+
123.0793	4	C6H9N3+
125.0169	31	C5H5N2S+
126.0246	3	C5H6N2S+
131.9671	999	C4H3ClNS+
138.0122	25	C5H4N3S+
139.0325	21	C6H7N2S+
140.0272	2	C5H6N3S+
144.9749	5	C5H4ClNS+
145.9707	2	C4H3ClN2S+
146.9779	4	C4H4ClN2S+
147.0667	12	C7H7N4+
151.0199	56	C6H5N3S+
152.0277	104	C6H6N3S+
154.0432	8	C6H8N3S+
155.051	6	C6H9N3S+
160.9935	12	C5H6ClN2S+
165.0222	2	C6H5N4S+
171.9718	1	C8N2OS+
172.9811	10	C8HN2OS+
174.9729	41	C5H4ClN2OS+
179.0387	10	C7H7N4S+
180.0465	115	C7H8N4S+
181.0544	832	C7H9N4S+
185.0609	2	C7H11N3OS+
186.9966	9	C6H6ClN3S+
199.0647	6	C7H11N4OS+
210.0571	46	C8H10N4OS+
211.0651	737	C8H11N4OS+
215.0151	15	C7H8ClN4S+
245.0252	2	C8H10ClN4OS+
