Mass spectrum: Fuberidazole; LC-ESI-QFT; MS2; CE: 15%; R=15000; [M-H]-
Name: Fuberidazole
Name: 2-(furan-2-yl)-1H-benzimidazole
Formula: C11H8N2O
Exact mass: 184.0636629
SMILES: C1=CC=C2C(=C1)NC(=N2)C3=CC=CO3
InChI: InChI=1S/C11H8N2O/c1-2-5-9-8(4-1)12-11(13-9)10-6-3-7-14-10/h1-7H,(H,12,13)
Instrument: Exploris 240 Thermo Scientific
Instrument type: LC-ESI-QFT
Ms type: MS2
Ion mode: NEGATIVE
Ionization: ESI
Fragmentation mode: HCD
Collision energy: 15 % (nominal)
Resolution: 15000
Column name: XBridge C18 3.5um, 2.1x50mm, Waters
Retention time: 3.507 min
Base peak: 183.0564
Precursor m/z: 183.0564
Precursor type: [M-H]-
m/z	relative intensity	assigned
183.0565	999	C11H7N2O-
