Mass spectrum: Indapamide; LC-ESI-QFT; MS2; CE: 45; R=35000; [M+H]+
Name: Indapamide
Name: 4-chloro-N-(2-methyl-2,3-dihydroindol-1-yl)-3-sulfamoylbenzamide
Formula: C16H16ClN3O3S
Exact mass: 365.06009
SMILES: CC1CC2=CC=CC=C2N1NC(=O)C3=CC(=C(C=C3)Cl)S(=O)(=O)N
InChI: InChI=1S/C16H16ClN3O3S/c1-10-8-11-4-2-3-5-14(11)20(10)19-16(21)12-6-7-13(17)15(9-12)24(18,22)23/h2-7,9-10H,8H2,1H3,(H,19,21)(H2,18,22,23)
Instrument: Q Exactive Plus Orbitrap Thermo Scientific
Instrument type: LC-ESI-QFT
Ms type: MS2
Ion mode: POSITIVE
Ionization: ESI
Fragmentation mode: HCD
Collision energy: 45 (nominal)
Resolution: 35000
Column name: XBridge C18 3.5um, 2.1x50mm, Waters
Retention time: 6.7 min
Base peak: 366.0667
Precursor m/z: 366.0674
Precursor type: [M+H]+
m/z	relative intensity	assigned
65.0386	9	C5H5+
67.0541	1	C5H7+
91.0542	237	C7H7+
105.0699	19	C8H9+
106.0414	7	C7H6O+
107.0491	6	C7H7O+
109.0648	32	C7H9O+
115.0543	7	C9H7+
117.0573	223	C8H7N+
118.0651	19	C8H8N+
119.0604	33	C7H7N2+
126.0106	1	C6H5ClN+
130.0652	9	C9H8N+
131.0731	5	C9H9N+
132.0808	999	C9H10N+
133.0886	20	C9H11N+
138.9945	1	C7H4ClO+
148.0996	1	C9H12N2+
154.0053	6	C7H5ClNO+
172.0161	2	C7H7ClNO2+
200.9407	3	C7H2ClO3S+
217.9675	10	C7H5ClNO3S+
