Mass spectrum: Acemetacin; LC-ESI-QFT; MS2; CE: 15; R=35000; [M+H]+
Name: Acemetacin
Name: Rantudil
Name: 2-[2-[1-(4-chlorobenzoyl)-5-methoxy-2-methyl-indol-3-yl]acetyl]oxyacetic acid
Formula: C21H18ClNO6
Exact mass: 415.08227
SMILES: Clc1ccc(cc1)C(=O)n3c2ccc(OC)cc2c(c3C)CC(=O)OCC(=O)O
InChI: InChI=1S/C21H18ClNO6/c1-12-16(10-20(26)29-11-19(24)25)17-9-15(28-2)7-8-18(17)23(12)21(27)13-3-5-14(22)6-4-13/h3-9H,10-11H2,1-2H3,(H,24,25)
Instrument: Q Exactive Orbitrap Thermo Scientific
Instrument type: LC-ESI-QFT
Ms type: MS2
Ion mode: POSITIVE
Ionization: ESI
Fragmentation mode: HCD
Collision energy: 15 (nominal)
Resolution: 35000
Column name: XBridge C18 3.5um, 2.1x50mm, Waters
Retention time: 12.9 min
Base peak: 416.0897
Precursor m/z: 416.0895
Precursor type: [M+H]+
m/z	relative intensity	assigned
138.9945	999	C7H4ClO+
174.0913	90	C11H12NO+
260.0919	125	
312.0785	146	
