Mass spectrum: Flubendazole; LC-ESI-QFT; MS2; CE: 60; R=35000; [M-H]-
Name: Flubendazole
Name: Methyl N-[6-(4-fluorobenzoyl)-1H-benzimidazol-2-yl]carbamate
Formula: C16H12FN3O3
Exact mass: 313.08627
SMILES: COC(=O)NC1=NC2=C(N1)C=C(C=C2)C(=O)C3=CC=C(C=C3)F
InChI: InChI=1S/C16H12FN3O3/c1-23-16(22)20-15-18-12-7-4-10(8-13(12)19-15)14(21)9-2-5-11(17)6-3-9/h2-8H,1H3,(H2,18,19,20,22)
Instrument: Q Exactive Plus Orbitrap Thermo Scientific
Instrument type: LC-ESI-QFT
Ms type: MS2
Ion mode: NEGATIVE
Ionization: ESI
Fragmentation mode: HCD
Collision energy: 60 (nominal)
Resolution: 35000
Column name: XBridge C18 3.5um, 2.1x50mm, Waters
Retention time: 8.1 min
Base peak: 280.0527
Precursor m/z: 312.079
Precursor type: [M-H]-
m/z	relative intensity	assigned
65.0146	1	C3HN2-
65.9986	1	C3NO-
92.0256	1	C4H2N3-
95.0251	1	C4H3N2O-
106.0174	7	C5H2N2O-
129.0334	20	C7H3N3-
133.0283	18	C6H3N3O-
149.0234	2	C6H3N3O2-
156.0206	4	C8H2N3O-
157.0283	68	C8H3N3O-
158.0361	2	C8H4N3O-
160.0154	9	C7H2N3O2-
173.0233	3	C8H3N3O2-
209.0522	1	C13H6FN2-
210.0362	2	C13H5FNO-
232.0515	1	C14H6N3O-
237.0474	11	C14H6FN2O-
251.0504	3	C14H6FN3O-
252.0588	2	C16H9FO2-
253.0422	8	C14H6FN2O2-
260.0471	6	C15H6N3O2-
262.0425	3	C15H5FN3O-
263.0505	1	C15H6FN3O-
278.0374	8	C15H5FN3O2-
279.044	1	C15H6FN3O2-
280.0531	999	C15H7FN3O2-
