Mass spectrum: Nitrazepam; LC-ESI-QFT; MS2; CE: 45; R=35000; [M-H]-
Name: Nitrazepam
Name: 7-nitro-5-phenyl-1,3-dihydro-1,4-benzodiazepin-2-one
Formula: C15H11N3O3
Exact mass: 281.08004
SMILES: C1C(=O)NC2=C(C=C(C=C2)[N+](=O)[O-])C(=N1)C3=CC=CC=C3
InChI: InChI=1S/C15H11N3O3/c19-14-9-16-15(10-4-2-1-3-5-10)12-8-11(18(20)21)6-7-13(12)17-14/h1-8H,9H2,(H,17,19)
Instrument: Q Exactive Plus Orbitrap Thermo Scientific
Instrument type: LC-ESI-QFT
Ms type: MS2
Ion mode: NEGATIVE
Ionization: ESI
Fragmentation mode: HCD
Collision energy: 45 (nominal)
Resolution: 35000
Column name: XBridge C18 3.5um, 2.1x50mm, Waters
Retention time: 7.7 min
Base peak: 280.0723
Precursor m/z: 280.0728
Precursor type: [M-H]-
m/z	relative intensity	assigned
194.061	7	C13H8NO-
195.0558	1	C12H7N2O-
206.0617	1	C14H8NO-
222.0561	87	C14H8NO2-
223.064	10	C14H9NO2-
232.0633	1	C15H8N2O-
236.0586	2	C14H8N2O2-
237.066	1	C14H9N2O2-
251.047	1	C14H7N2O3-
252.054	999	C14H8N2O3-
253.0618	73	C14H9N2O3-
262.0616	1	C15H8N3O2-
278.0571	3	C15H8N3O3-
279.0636	1	C15H9N3O3-
280.0727	3	C15H10N3O3-
