Mass spectrum: Bromacil; LC-ESI-ITFT; MS2; CE: 90%; R=30000; [M+H]+
Name: Bromacil
Name: Bromazil
Name: 5-bromanyl-3-butan-2-yl-6-methyl-1H-pyrimidine-2,4-dione
Formula: C9H13BrN2O2
Exact mass: 260.0155
SMILES: O=C1C(\Br)=C(/NC(=O)N1C(CC)C)C
InChI: InChI=1S/C9H13BrN2O2/c1-4-5(2)12-8(13)7(10)6(3)11-9(12)14/h5H,4H2,1-3H3,(H,11,14)
Instrument: LTQ Orbitrap XL Thermo Scientific
Instrument type: LC-ESI-ITFT
Ms type: MS2
Ion mode: POSITIVE
Ionization: ESI
Fragmentation mode: HCD
Collision energy: 90 % (nominal)
Resolution: 30000
Column name: XBridge C18 3.5um, 2.1x50mm, Waters
Retention time: 7.0 min
Base peak: 283.0057
Precursor m/z: 261.0233
Precursor type: [M+H]+
m/z	relative intensity	assigned
54.0337	98	C3H4N+
69.0083	45	C2HN2O+
69.9924	18	C2NO2+
83.0365	27	C4H5NO+
92.9335	28	CH2Br+
98.0474	35	C4H6N2O+
104.9335	46	C2H2Br+
105.9287	34	CHBrN+
106.9126	26	CBrO+
106.9491	121	C2H4Br+
118.949	38	C3H4Br+
131.9444	999	C3H3BrN+
133.96	150	C3H5BrN+
143.9443	45	C4H3BrN+
159.9392	17	C4H3BrNO+
161.9549	617	C4H5BrNO+
186.9501	163	C5H4BrN2O+
187.9342	708	C5H3BrNO2+
204.9607	430	C5H6BrN2O2+
206.9526	8	C5H6BrNO3+
