Mass spectrum: 2-Naphthoxyacetic acid; LC-ESI-QFT; MS2; CE: 150; R=35000; [M+H]+
Name: 2-Naphthoxyacetic acid
Name: beta-Naphthoxyacetic acid
Name: (2-Naphthyloxy)acetic acid
Formula: C12H10O3
Exact mass: 202.06299
SMILES: C1=CC=C2C=C(C=CC2=C1)OCC(=O)O
InChI: InChI=1S/C12H10O3/c13-12(14)8-15-11-6-5-9-3-1-2-4-10(9)7-11/h1-7H,8H2,(H,13,14)
Instrument: Q Exactive Plus Orbitrap Thermo Scientific
Instrument type: LC-ESI-QFT
Ms type: MS2
Ion mode: POSITIVE
Ionization: ESI
Fragmentation mode: HCD
Collision energy: 150 (nominal)
Resolution: 35000
Column name: XBridge C18 3.5um, 2.1x50mm, Waters
Retention time: 8.5 min
Base peak: 230.1747
Precursor m/z: 203.0703
Precursor type: [M+H]+
m/z	relative intensity	assigned
50.0151	104	C4H2+
51.023	124	C4H3+
52.0307	2	C4H4+
53.0386	239	C4H5+
53.9975	1	C2NO+
55.0179	21	C3H3O+
55.0543	45	C4H7+
59.0491	4	C3H7O+
62.0151	4	C5H2+
63.0229	25	C5H3+
65.0022	6	C4HO+
65.0386	73	C5H5+
66.0465	1	C5H6+
67.0542	17	C5H7+
68.9971	4	C3HO2+
74.015	29	C6H2+
75.0229	379	C6H3+
76.0307	17	C6H4+
77.0385	336	C6H5+
78.0464	79	C6H6+
79.0179	1	C5H3O+
79.0542	11	C6H7+
81.0335	34	C5H5O+
86.0151	5	C7H2+
87.0229	18	C7H3+
87.0442	1	C4H7O2+
89.0386	80	C7H5+
91.0543	102	C7H7+
94.0414	14	C6H6O+
95.0492	999	C6H7O+
97.0076	11	C8H+
98.0151	7	C8H2+
99.0229	21	C8H3+
100.0307	6	C8H4+
101.0386	89	C8H5+
102.0464	151	C8H6+
103.0542	46	C8H7+
105.0448	607	C6H5N2+
106.0417	4	C7H6O+
109.0648	2	C7H9O+
111.0233	2	C9H3+
115.0543	601	C9H7+
116.0576	6	C4H8N2O2+
116.062	21	C9H8+
117.0699	12	C9H9+
119.0492	70	C8H7O+
125.0387	15	C10H5+
126.0465	648	C10H6+
127.0543	427	C10H7+
128.0621	642	C10H8+
129.0447	225	C8H5N2+
131.0493	5	C9H7O+
132.0569	1	C9H8O+
141.0701	8	C11H9+
143.0492	4	C10H7O+
144.0573	7	C10H8O+
145.0649	168	C10H9O+
155.0604	350	C10H7N2+
156.0573	1	C11H8O+
161.06	1	C10H9O2+
