Mass spectrum: Zopiclone; LC-ESI-QFT; MS2; CE: 75; R=35000; [M+H]+
Name: Zopiclone
Name: [6-(5-chloropyridin-2-yl)-5-oxo-7H-pyrrolo[3,4-b]pyrazin-7-yl] 4-methylpiperazine-1-carboxylate
Formula: C17H17ClN6O3
Exact mass: 388.10507
SMILES: CN1CCN(CC1)C(=O)OC2C3=NC=CN=C3C(=O)N2C4=NC=C(C=C4)Cl
InChI: InChI=1S/C17H17ClN6O3/c1-22-6-8-23(9-7-22)17(26)27-16-14-13(19-4-5-20-14)15(25)24(16)12-3-2-11(18)10-21-12/h2-5,10,16H,6-9H2,1H3
Instrument: Q Exactive Plus Orbitrap Thermo Scientific
Instrument type: LC-ESI-QFT
Ms type: MS2
Ion mode: POSITIVE
Ionization: ESI
Fragmentation mode: HCD
Collision energy: 75 (nominal)
Resolution: 35000
Column name: XBridge C18 3.5um, 2.1x50mm, Waters
Retention time: 4.6 min
Base peak: 389.1117
Precursor m/z: 389.1123
Precursor type: [M+H]+
m/z	relative intensity	assigned
52.0181	3	C3H2N+
56.0495	5	C3H6N+
58.0651	1	C3H8N+
61.9792	2	CHClN+
66.0338	3	C4H4N+
70.0651	8	C4H8N+
76.0181	41	C5H2N+
79.029	3	C4H3N2+
83.0603	2	C4H7N2+
84.0682	2	C4H8N2+
84.9839	6	C4H2Cl+
94.0288	7	C5H4NO+
97.0397	5	C4H5N2O+
97.0761	7	C5H9N2+
98.0839	7	C5H10N2+
99.0917	4	C5H11N2+
103.029	1	C6H3N2+
111.9949	134	C5H3ClN+
121.0397	5	C6H5N2O+
126.0106	2	C6H5ClN+
127.0291	5	C8H3N2+
129.0446	1	C8H5N2+
130.0055	999	C5H5ClNO+
131.0478	1	C7H5N3+
136.0395	1	C7H6NO2+
139.0058	355	C6H4ClN2+
144.021	4	C6H7ClNO+
144.0558	2	C8H6N3+
145.0397	2	C8H5N2O+
152.0137	6	C7H5ClN2+
154.0401	17	C9H4N3+
155.035	2	C8H3N4+
155.0478	8	C9H5N3+
156.0556	6	C9H6N3+
157.0164	93	C6H6ClN2O+
163.0058	38	C8H4ClN2+
164.001	2	C7H3ClN3+
167.0008	1	C7H4ClN2O+
171.0321	3	C7H8ClN2O+
172.0506	22	C9H6N3O+
177.0089	4	C8H4ClN3+
181.0163	5	C8H6ClN2O+
181.0509	59	C10H5N4+
182.0588	47	C10H6N4+
187.0377	1	C9H5N3O2+
190.0167	132	C9H5ClN3+
199.0615	2	C10H7N4O+
208.0273	1	C9H7ClN3O+
214.0488	4	C7H9ClN5O+
215.012	1	C10H4ClN4+
216.02	1	C10H5ClN4+
217.0277	545	C10H6ClN4+
245.0227	5	C11H6ClN4O+
