Mass spectrum: N,N-Didesmethylvenlafaxine; LC-ESI-ITFT; MS2; CE: 75%; R=7500; [M+H]+
Name: N,N-Didesmethylvenlafaxine
Name: 1-[2-Amino-1-(4-methoxyphenyl)ethyl]cyclohexanol
Formula: C15H23NO2
Exact mass: 249.1729
SMILES: OC2(C(c1ccc(OC)cc1)CN)CCCCC2
InChI: InChI=1S/C15H23NO2/c1-18-13-7-5-12(6-8-13)14(11-16)15(17)9-3-2-4-10-15/h5-8,14,17H,2-4,9-11,16H2,1H3
Instrument: LTQ Orbitrap XL Thermo Scientific
Instrument type: LC-ESI-ITFT
Ms type: MS2
Ion mode: POSITIVE
Ionization: ESI
Fragmentation mode: HCD
Collision energy: 75 % (nominal)
Resolution: 7500
Column name: XBridge C18 3.5um, 2.1x50mm, Waters
Retention time: 6.3 min
Base peak: 250.1814
Precursor m/z: 250.1802
Precursor type: [M+H]+
m/z	relative intensity	assigned
67.0545	7	C5H7+
69.0702	8	C5H9+
77.0385	17	C6H5+
79.0542	67	C6H7+
81.0699	88	C6H9+
91.0542	255	C7H7+
93.07	31	C7H9+
105.0695	13	C8H9+
107.0491	25	C7H7O+
107.0855	20	C8H11+
115.0542	12	C9H7+
117.07	36	C9H9+
119.0606	10	C7H7N2+
119.0856	19	C9H11+
121.0649	999	C8H9O+
129.0701	10	C10H9+
132.057	55	C9H8O+
133.0645	15	C9H9O+
135.0804	49	C9H11O+
141.0696	16	C11H9+
144.0569	26	C10H8O+
145.0644	15	C10H9O+
146.0732	5	C10H10O+
147.0805	389	C10H11O+
158.0727	70	C11H10O+
159.0805	93	C11H11O+
160.088	14	C11H12O+
161.0961	11	C11H13O+
173.0964	115	C12H13O+
187.1118	7	C13H15O+
232.1775	11	C11H24N2O3+
