Mass spectrum: Oxadiazon; LC-ESI-QFT; MS2; CE: 60; R=35000; [M+H]+
Name: Oxadiazon
Name: 5-tert-butyl-3-(2,4-dichloro-5-propan-2-yloxyphenyl)-1,3,4-oxadiazol-2-one
Formula: C15H18Cl2N2O3
Exact mass: 344.06945
SMILES: CC(C)OC1=C(C=C(C(=C1)N2C(=O)OC(=N2)C(C)(C)C)Cl)Cl
InChI: InChI=1S/C15H18Cl2N2O3/c1-8(2)21-12-7-11(9(16)6-10(12)17)19-14(20)22-13(18-19)15(3,4)5/h6-8H,1-5H3
Instrument: Q Exactive Plus Orbitrap Thermo Scientific
Instrument type: LC-ESI-QFT
Ms type: MS2
Ion mode: POSITIVE
Ionization: ESI
Fragmentation mode: HCD
Collision energy: 60 (nominal)
Resolution: 35000
Column name: XBridge C18 3.5um, 2.1x50mm, Waters
Retention time: 15.4 min
Base peak: 273.2055
Precursor m/z: 345.0767
Precursor type: [M+H]+
m/z	relative intensity	assigned
53.0021	12	C3HO+
57.0699	53	C4H9+
62.9632	2	CClO+
69.9923	2	C2NO2+
72.9839	8	C3H2Cl+
76.0181	3	C5H2N+
81.0698	1	C6H9+
82.0287	1	C4H4NO+
84.0808	2	C5H10N+
84.9838	6	C4H2Cl+
90.0105	3	C3H5ClN+
91.0542	1	C7H7+
94.0286	7	C5H4NO+
98.9995	1	C5H4Cl+
99.9948	4	C4H3ClN+
101.0027	1	C4H4ClN+
101.9867	1	C4H3ClO+
104.0131	3	C6H2NO+
109.9791	2	C5HClN+
111.9948	10	C5H3ClN+
112.0393	3	C5H6NO2+
112.9789	50	C5H2ClO+
120.008	5	C6H2NO2+
120.9607	12	C4H3Cl2+
122.0237	13	C6H4NO2+
127.9898	24	C5H3ClNO+
128.9976	86	C5H4ClNO+
129.9817	12	C5H3ClO2+
130.0055	14	C5H5ClNO+
139.0057	2	C6H4ClN2+
139.9898	13	C6H3ClNO+
140.9738	110	C6H2ClO2+
145.9559	5	C5H2Cl2N+
147.9716	42	C5H4Cl2N+
148.003	24	C7H2NO3+
148.9556	291	C5H3Cl2O+
155.0005	2	C6H4ClN2O+
155.9847	78	C6H3ClNO2+
156.9925	12	C6H4ClNO2+
158.0004	1	C6H5ClNO2+
163.9665	18	C5H4Cl2NO+
166.9663	2	C5H5Cl2O2+
173.9509	122	C6H2Cl2NO+
174.971	1	C7H5Cl2O+
175.9666	23	C6H4Cl2NO+
176.9505	951	C6H3Cl2O2+
180.9819	1	C6H7Cl2O2+
182.9955	4	C7H4ClN2O2+
183.9797	132	C7H3ClNO3+
184.9874	999	C7H4ClNO3+
190.9769	2	C9H2ClNO2+
191.9614	11	C6H4Cl2NO2+
201.9458	53	C7H2Cl2NO2+
202.9533	8	C10ClO3+
202.9773	2	C7H5Cl2N2O+
208.9769	3	C7H7Cl2O3+
219.9564	75	C7H4Cl2NO3+
