Mass spectrum: Flocoumafen; LC-ESI-QFT; MS2; CE: 75%; R=17500; [M+H]+
Name: Flocoumafen
Name: 4-hydroxy-3-[3-[4-[[4-(trifluoromethyl)phenyl]methoxy]phenyl]-1,2,3,4-tetrahydronaphthalen-1-yl]chromen-2-one
Formula: C33H25F3O4
Exact mass: 542.1705
SMILES: C1C(CC2=CC=CC=C2C1C3=C(C4=CC=CC=C4OC3=O)O)C5=CC=C(C=C5)OCC6=CC=C(C=C6)C(F)(F)F
InChI: InChI=1S/C33H25F3O4/c34-33(35,36)24-13-9-20(10-14-24)19-39-25-15-11-21(12-16-25)23-17-22-5-1-2-6-26(22)28(18-23)30-31(37)27-7-3-4-8-29(27)40-32(30)38/h1-16,23,28,37H,17-19H2
Instrument: Exploris 240 Orbitrap Thermo Scientific
Instrument type: LC-ESI-QFT
Ms type: MS2
Ion mode: POSITIVE
Ionization: ESI
Fragmentation mode: HCD
Collision energy: 75 % (nominal)
Resolution: 17500
Column name: XBridge C18 3.5um, 2.1x50mm, Waters
Retention time: 15.796 min
Base peak: 543.1776
Precursor m/z: 543.1778
Precursor type: [M+H]+
m/z	relative intensity	assigned
65.0386	4	C5H5+
77.0385	13	C6H5+
79.0542	43	C6H7+
91.0542	91	C7H7+
95.0492	14	C6H7O+
103.0542	4	C8H7+
107.0492	100	C7H7O+
109.0448	171	C7H6F+
115.0541	11	C9H7+
117.0702	9	C9H9+
121.0284	50	C7H5O2+
128.0623	22	C10H8+
129.0699	23	C10H9+
139.0355	18	C8H5F2+
141.0697	7	C11H9+
143.0852	6	C11H11+
153.0699	7	C12H9+
159.0416	999	C8H6F3+
163.0391	6	C9H7O3+
165.0695	9	C13H9+
167.0853	16	C13H11+
171.0803	6	C12H11O+
175.0391	64	C10H7O3+
178.0777	6	C14H10+
202.0776	2	C16H10+
