Mass spectrum: Tebutam; LC-ESI-ITFT; MS2; CE: 45%; R=15000; [M+H]+
Name: Tebutam
Name: 2,2-dimethyl-N-(phenylmethyl)-N-propan-2-yl-propanamide
Name: N-Benzyl-N-isopropylpivalamide
Formula: C15H23NO
Exact mass: 233.1774
SMILES: c1ccccc1CN(C(=O)C(C)(C)C)C(C)C
InChI: InChI=1S/C15H23NO/c1-12(2)16(14(17)15(3,4)5)11-13-9-7-6-8-10-13/h6-10,12H,11H2,1-5H3
Instrument: LTQ Orbitrap XL Thermo Scientific
Instrument type: LC-ESI-ITFT
Ms type: MS2
Ion mode: POSITIVE
Ionization: ESI
Fragmentation mode: HCD
Collision energy: 45 % (nominal)
Resolution: 15000
Column name: XBridge C18 3.5um, 2.1x50mm, Waters
Retention time: 11.7 min
Base peak: 234.1857
Precursor m/z: 234.1852
Precursor type: [M+H]+
m/z	relative intensity	assigned
57.0698	26	C4H9+
58.0651	2	C3H8N+
65.0386	3	C5H5+
84.0808	16	C5H10N+
91.0543	999	C7H7+
105.0699	5	C8H9+
114.0913	5	C6H12NO+
133.1011	21	C10H13+
142.1226	44	C8H16NO+
192.1383	107	C12H18NO+
234.1851	208	C15H24NO+
