Mass spectrum: Danofloxacin; LC-ESI-QFT; MS2; CE: 90; R=35000; [M+H]+
Name: Danofloxacin
Name: 1-cyclopropyl-6-fluoro-7-(5-methyl-2-aza-5-azoniabicyclo[2.2.1]heptan-2-yl)-4-oxoquinoline-3-carboxylate
Formula: C19H20FN3O3
Exact mass: 357.14887
SMILES: CN1C[C@@H]2C[C@H]1CN2C3=C(C=C4C(=C3)N(C=C(C4=O)C(=O)O)C5CC5)F
InChI: InChI=1S/C19H20FN3O3/c1-21-7-12-4-11(21)8-22(12)17-6-16-13(5-15(17)20)18(24)14(19(25)26)9-23(16)10-2-3-10/h5-6,9-12H,2-4,7-8H2,1H3,(H,25,26)/t11-,12-/m0/s1
Instrument: Q Exactive Plus Orbitrap Thermo Scientific
Instrument type: LC-ESI-QFT
Ms type: MS2
Ion mode: POSITIVE
Ionization: ESI
Fragmentation mode: HCD
Collision energy: 90 (nominal)
Resolution: 35000
Column name: XBridge C18 3.5um, 2.1x50mm, Waters
Retention time: 4.4 min
Base peak: 164.9843
Precursor m/z: 358.1561
Precursor type: [M+H]+
m/z	relative intensity	assigned
53.0022	18	C3HO+
53.0386	6	C4H5+
54.0339	4	C3H4N+
55.0417	2	C3H5N+
55.0543	19	C4H7+
56.0495	6	C3H6N+
57.0573	3	C3H7N+
58.0651	2	C3H8N+
60.0245	1	C2H3FN+
65.0386	19	C5H5+
66.0464	3	C5H6+
67.0417	119	C4H5N+
67.0543	13	C5H7+
68.0495	36	C4H6N+
69.0573	1	C4H7N+
69.0698	2	C5H9+
70.0652	103	C4H8N+
74.0964	1	C4H12N+
75.0479	1	C3H6FN+
79.0417	1	C5H5N+
79.0543	10	C6H7+
80.0495	67	C5H6N+
81.0574	51	C5H7N+
82.0651	999	C5H8N+
83.0729	78	C5H9N+
84.0808	34	C5H10N+
93.0573	1	C6H7N+
94.0652	61	C6H8N+
95.0492	5	C6H7O+
95.0606	1	C5H7N2+
96.0445	7	C5H6NO+
96.0808	40	C6H10N+
97.0761	8	C5H9N2+
105.0449	3	C6H5N2+
107.0293	1	C7H4F+
109.0449	2	C7H6F+
115.0417	1	C8H5N+
115.0542	5	C9H7+
116.0495	4	C8H6N+
117.0574	3	C8H7N+
122.0401	4	C7H5FN+
126.0466	1	C10H6+
127.0545	5	C10H7+
128.0496	5	C9H6N+
128.0621	3	C10H8+
129.0449	3	C8H5N2+
129.0702	1	C10H9+
130.0653	2	C9H8N+
132.0243	2	C8H3FN+
133.0449	15	C9H6F+
134.0401	3	C8H5FN+
134.0603	1	C8H8NO+
135.0479	12	C8H6FN+
136.0559	9	C8H7FN+
140.0495	8	C10H6N+
141.0575	5	C10H7N+
142.0653	1	C10H8N+
143.0608	1	C9H7N2+
144.0444	2	C9H6NO+
145.0323	1	C9H4FN+
145.0648	5	C10H9O+
146.0401	8	C9H5FN+
146.047	1	C8H6N2O+
146.0527	17	C10H7F+
146.0593	1	C9H8NO+
147.048	3	C9H6FN+
147.0606	5	C10H8F+
148.0558	16	C9H7FN+
149.0512	7	C8H6FN2+
150.035	4	C8H5FNO+
151.0429	5	C8H6FNO+
152.0498	6	C11H6N+
153.0577	1	C11H7N+
154.0652	27	C11H8N+
155.0605	13	C10H7N2+
155.0729	4	C11H9N+
156.0683	3	C10H8N2+
156.081	1	C11H10N+
158.0402	3	C10H5FN+
158.0601	1	C10H8NO+
159.0482	9	C10H6FN+
159.0607	1	C11H8F+
160.0437	5	C9H5FN2+
160.0558	25	C10H7FN+
161.0274	3	C9H4FNO+
161.0513	11	C9H6FN2+
161.0636	9	C10H8FN+
162.0353	6	C9H5FNO+
162.0591	12	C9H7FN2+
162.0714	3	C10H9FN+
163.0429	3	C9H6FNO+
163.0669	3	C9H8FN2+
164.0506	10	C9H7FNO+
165.0702	4	C13H9+
166.0529	1	C11H6N2+
166.0655	3	C12H8N+
167.0604	15	C11H7N2+
167.0729	3	C12H9N+
168.0684	24	C11H8N2+
168.0807	2	C12H10N+
169.0761	6	C11H9N2+
170.0602	6	C11H8NO+
171.0478	2	C11H6FN+
171.0555	2	C10H7N2O+
172.0558	96	C11H7FN+
173.0516	13	C10H6FN2+
173.0636	21	C11H8FN+
174.0351	9	C10H5FNO+
174.0591	9	C10H7FN2+
174.0713	15	C11H9FN+
175.0429	2	C10H6FNO+
175.0669	7	C10H8FN2+
176.0507	3	C10H7FNO+
176.0746	1	C10H9FN2+
177.0821	1	C10H10FN2+
178.0427	5	C10H7FO2+
178.0542	10	C9H7FN2O+
178.0663	26	C10H9FNO+
179.0378	6	C9H6FNO2+
179.0606	22	C12H7N2+
180.0448	5	C9H7FNO2+
180.0684	3	C12H8N2+
180.081	3	C13H10N+
181.0761	7	C12H9N2+
182.0398	1	C12H5FN+
182.0597	4	C12H8NO+
182.0843	3	C12H10N2+
183.055	1	C11H7N2O+
183.068	1	C12H9NO+
183.0919	1	C12H11N2+
184.0558	3	C12H7FN+
184.0634	4	C11H8N2O+
184.0756	2	C12H10NO+
185.051	1	C11H6FN2+
185.0637	10	C12H8FN+
185.0714	3	C11H9N2O+
186.059	13	C11H7FN2+
186.0715	8	C12H9FN+
187.0303	19	C10H4FN2O+
187.043	7	C11H6FNO+
187.0668	86	C11H8FN2+
188.0143	18	C10H3FNO2+
188.038	1	C10H5FN2O+
188.051	5	C11H7FNO+
188.0744	4	C11H9FN2+
189.046	13	C10H6FN2O+
189.0824	3	C11H10FN2+
190.0539	4	C10H7FN2O+
190.0665	1	C11H9FNO+
191.0619	5	C10H8FN2O+
191.0731	4	C14H9N+
192.0457	2	C10H7FNO2+
192.0686	3	C13H8N2+
192.0804	4	C14H10N+
193.0538	2	C10H8FNO2+
193.0763	11	C13H9N2+
194.0838	3	C13H10N2+
195.0192	3	C11H3N2O2+
195.0318	1	C9H6FNO3+
195.0554	5	C12H7N2O+
195.092	2	C13H11N2+
196.0628	4	C12H8N2O+
197.0508	3	C12H6FN2+
197.0706	5	C12H9N2O+
197.1077	1	C13H13N2+
198.0587	6	C12H7FN2+
198.0716	5	C13H9FN+
199.0667	39	C12H8FN2+
200.0507	17	C12H7FNO+
200.0746	11	C12H9FN2+
201.0586	17	C12H8FNO+
201.0823	8	C12H10FN2+
202.0301	2	C11H5FNO2+
202.0541	3	C11H7FN2O+
202.0664	26	C12H9FNO+
202.0903	7	C12H11FN2+
203.0617	38	C11H8FN2O+
204.033	3	C10H5FN2O2+
205.0536	6	C11H8FNO2+
205.0765	4	C11H10FN2O+
206.025	1	C10H5FNO3+
206.0839	3	C14H10N2+
207.0559	3	C13H7N2O+
207.0917	2	C14H11N2+
208.0862	2	C13H10N3+
211.0668	10	C13H8FN2+
212.0749	7	C13H9FN2+
212.0871	17	C14H11FN+
213.0462	1	C12H6FN2O+
213.0824	15	C13H10FN2+
214.0546	1	C12H7FN2O+
214.0666	4	C13H9FNO+
214.0904	7	C13H11FN2+
215.0253	59	C11H4FN2O2+
215.0618	57	C12H8FN2O+
216.0696	4	C12H9FN2O+
217.041	24	C11H6FN2O2+
217.0772	5	C12H10FN2O+
218.0488	13	C11H7FN2O2+
218.0838	1	C15H10N2+
219.0919	6	C12H12FN2O+
220.0408	3	C11H7FNO3+
221.0482	1	C11H8FNO3+
221.071	6	C14H9N2O+
221.1075	1	C15H13N2+
222.0441	1	C10H7FN2O3+
222.0709	1	C15H9FN+
223.0506	1	C13H7N2O2+
223.0666	1	C14H8FN2+
223.0868	2	C14H11N2O+
224.0749	4	C14H9FN2+
225.0823	4	C14H10FN2+
226.0533	6	C13H7FN2O+
227.0617	25	C13H8FN2O+
227.0979	4	C14H12FN2+
228.0533	2	C12H8N2O3+
228.0692	2	C13H9FN2O+
229.0772	10	C13H10FN2O+
230.085	1	C13H11FN2O+
231.0927	5	C13H12FN2O+
233.036	26	C11H6FN2O3+
233.0481	2	C12H8FNO3+
234.0562	1	C12H9FNO3+
235.0516	13	C11H8FN2O3+
235.0867	2	C15H11N2O+
236.0593	4	C11H9FN2O3+
236.0825	1	C11H11FN3O2+
237.1025	3	C15H13N2O+
238.0976	3	C14H12N3O+
239.0615	3	C14H8FN2O+
239.0982	11	C15H12FN2+
240.0701	2	C14H9FN2O+
241.0771	9	C14H10FN2O+
243.0566	3	C13H8FN2O2+
244.0644	1	C13H9FN2O2+
247.0519	5	C12H8FN2O3+
253.0773	4	C15H10FN2O+
254.049	1	C14H7FN2O2+
255.0566	153	C14H8FN2O2+
256.0646	1	C14H9FN2O2+
259.0514	1	C13H8FN2O3+
273.0672	44	C14H10FN2O3+
275.0824	1	C14H12FN2O3+
278.0928	2	C16H12N3O2+
298.0983	1	C16H13FN3O2+
