Mass spectrum: Triclabendazole; LC-ESI-QFT; MS2; CE: 150; R=35000; [M-H]-
Name: Triclabendazole
Name: Triclabendazol
Name: 6-chloro-5-(2,3-dichlorophenoxy)-2-methylsulfanyl-1H-benzimidazole
Formula: C14H9Cl3N2OS
Exact mass: 357.95012
SMILES: CSc1[nH]c2cc(c(cc2n1)Oc3cccc(c3Cl)Cl)Cl
InChI: InChI=1S/C14H9Cl3N2OS/c1-21-14-18-9-5-8(16)12(6-10(9)19-14)20-11-4-2-3-7(15)13(11)17/h2-6H,1H3,(H,18,19)
Instrument: Q Exactive Plus Orbitrap Thermo Scientific
Instrument type: LC-ESI-QFT
Ms type: MS2
Ion mode: NEGATIVE
Ionization: ESI
Fragmentation mode: HCD
Collision energy: 150 (nominal)
Resolution: 35000
Column name: XBridge C18 3.5um, 2.1x50mm, Waters
Retention time: 14.2 min
Base peak: 358.9395
Precursor m/z: 356.9428
Precursor type: [M-H]-
m/z	relative intensity	assigned
50.0036	161	C3N-
57.9757	636	CNS-
62.0037	2	C4N-
65.9986	999	C3NO-
74.0038	6	C5N-
81.9757	3	C3NS-
85.9803	44	C3HClN-
86.0037	5	C6N-
89.0146	11	C5HN2-
113.0144	1	C7HN2-
152.9862	2	C6H2ClN2O-
