Mass spectrum: Bensulfuron-Methyl; LC-ESI-QFT; MS2; CE: 45%; R=17500; [M+H]+
Name: Bensulfuron-Methyl
Name: methyl 2-[(4,6-dimethoxypyrimidin-2-yl)carbamoylsulfamoylmethyl]benzoate
Formula: C16H18N4O7S
Exact mass: 410.0896
SMILES: COC1=CC(=NC(=N1)NC(=O)NS(=O)(=O)CC2=CC=CC=C2C(=O)OC)OC
InChI: InChI=1S/C16H18N4O7S/c1-25-12-8-13(26-2)18-15(17-12)19-16(22)20-28(23,24)9-10-6-4-5-7-11(10)14(21)27-3/h4-8H,9H2,1-3H3,(H2,17,18,19,20,22)
Instrument: Exploris 240 Orbitrap Thermo Scientific
Instrument type: LC-ESI-QFT
Ms type: MS2
Ion mode: POSITIVE
Ionization: ESI
Fragmentation mode: HCD
Collision energy: 45 % (nominal)
Resolution: 17500
Column name: XBridge C18 3.5um, 2.1x50mm, Waters
Retention time: 7.850 min
Base peak: 411.0967
Precursor m/z: 411.0969
Precursor type: [M+H]+
m/z	relative intensity	assigned
83.0241	13	C3H3N2O+
91.0541	14	C7H7+
100.0391	12	C4H6NO2+
119.0491	124	C8H7O+
134.0598	7	C8H8NO+
139.05	12	C6H7N2O2+
149.0596	999	C9H9O2+
156.0767	105	C6H10N3O2+
157.0606	5	C6H9N2O3+
182.056	436	C7H8N3O3+
272.1021	8	C14H14N3O3+
