Mass spectrum: Iohexol; LC-ESI-ITFT; MS2; CE: 75%; R=7500; [M+H]+
Name: Iohexol
Name: 5-[acetyl(2,3-dihydroxypropyl)amino]-1-N,3-N-bis(2,3-dihydroxypropyl)-2,4,6-triiodobenzene-1,3-dicarboxamide
Formula: C19H26I3N3O9
Exact mass: 820.8803
SMILES: OCC(O)CNC(=O)c1c(I)c(N(CC(O)CO)C(C)=O)c(I)c(c1I)C(=O)NCC(O)CO
InChI: InChI=1S/C19H26I3N3O9/c1-8(29)25(4-11(32)7-28)17-15(21)12(18(33)23-2-9(30)5-26)14(20)13(16(17)22)19(34)24-3-10(31)6-27/h9-11,26-28,30-32H,2-7H2,1H3,(H,23,33)(H,24,34)
Instrument: LTQ Orbitrap XL Thermo Scientific
Instrument type: LC-ESI-ITFT
Ms type: MS2
Ion mode: POSITIVE
Ionization: ESI
Fragmentation mode: HCD
Collision energy: 75 % (nominal)
Resolution: 7500
Column name: XBridge C18 3.5um, 2.1x50mm, Waters
Retention time: 1.6 min
Base peak: 132.9578
Precursor m/z: 821.8876
Precursor type: [M+H]+
m/z	relative intensity	assigned
114.0334	169	C8H4N+
132.0449	162	C8H6NO+
142.0289	253	C9H4NO+
145.0395	389	C8H5N2O+
175.0262	162	C9H5NO3+
193.036	168	C9H7NO4+
228.9382	191	C7H4IN+
257.9413	851	C8H5INO+
273.9357	999	C8H5INO2+
293.9296	422	C10H3IN2O+
301.931	454	C9H5INO3+
325.9477	162	C3H9IN3O7+
