Mass spectrum: Metobromuron; LC-ESI-QFT; MS2; CE: 120%; R=17500; [M+H]+
Name: Metobromuron
Name: 3-(4-bromophenyl)-1-methoxy-1-methylurea
Formula: C9H11BrN2O2
Exact mass: 258.0004
SMILES: CN(C(=O)NC1=CC=C(C=C1)Br)OC
InChI: InChI=1S/C9H11BrN2O2/c1-12(14-2)9(13)11-8-5-3-7(10)4-6-8/h3-6H,1-2H3,(H,11,13)
Instrument: Exploris 240 Orbitrap Thermo Scientific
Instrument type: LC-ESI-QFT
Ms type: MS2
Ion mode: POSITIVE
Ionization: ESI
Fragmentation mode: HCD
Collision energy: 120 % (nominal)
Resolution: 17500
Column name: XBridge C18 3.5um, 2.1x50mm, Waters
Retention time: 6.748 min
Base peak: 259.0077
Precursor m/z: 259.0077
Precursor type: [M+H]+
m/z	relative intensity	assigned
52.0182	34	C3H2N+
58.0286	24	C2H4NO+
60.0445	12	C2H6NO+
63.0229	137	C5H3+
64.0308	221	C5H4+
65.0261	37	C4H3N+
65.0386	491	C5H5+
78.0339	13	C5H4N+
90.0339	30	C6H4N+
91.0417	999	C6H5N+
92.0496	266	C6H6N+
92.9336	17	CH2Br+
93.0569	12	C6H7N+
105.0447	20	C6H5N2+
116.9334	121	C3H2Br+
119.0604	299	C7H7N2+
129.0446	16	C8H5N2+
142.9491	345	C5H4Br+
147.0556	26	C8H7N2O+
169.9594	66	C6H5BrN+
170.9677	119	C6H6BrN+
