Mass spectrum: Atorvastatin; LC-ESI-ITFT; MS2; CE: 60%; R=7500; [M+H]+
Name: Atorvastatin
Name: (3R,5R)-7-[3-(anilinocarbonyl)-5-(4-fluorophenyl)-2-isopropyl-4-phenyl-1H-pyrrol-1-yl]-3,5-dihydroxyheptanoic acid
Name: (3R,5R)-7-[2-(4-fluorophenyl)-3-phenyl-4-(phenylcarbamoyl)-5-propan-2-yl-pyrrol-1-yl]-3,5-bis(oxidanyl)heptanoic acid
Formula: C33H35FN2O5
Exact mass: 558.2530
SMILES: c1(c(n(CC[C@H](C[C@H](CC(=O)O)O)O)c(c1C(Nc1ccccc1)=O)C(C)C)c1ccc(F)cc1)c1ccccc1
InChI: InChI=1S/C33H35FN2O5/c1-21(2)31-30(33(41)35-25-11-7-4-8-12-25)29(22-9-5-3-6-10-22)32(23-13-15-24(34)16-14-23)36(31)18-17-26(37)19-27(38)20-28(39)40/h3-16,21,26-27,37-38H,17-20H2,1-2H3,(H,35,41)(H,39,40)/t26-,27-/m1/s1
Instrument: LTQ Orbitrap XL Thermo Scientific
Instrument type: LC-ESI-ITFT
Ms type: MS2
Ion mode: POSITIVE
Ionization: ESI
Fragmentation mode: HCD
Collision energy: 60 % (nominal)
Resolution: 7500
Column name: XBridge C18 3.5um, 2.1x50mm, Waters
Retention time: 12.4 min
Base peak: 559.2616
Precursor m/z: 559.2603
Precursor type: [M+H]+
m/z	relative intensity	assigned
77.0388	16	C6H5+
79.0543	19	C6H7+
83.0492	9	C5H7O+
92.0496	29	C6H6N+
120.0448	21	C7H6NO+
122.0398	8	C7H5FN+
133.0446	11	C9H6F+
147.0599	5	C10H8F+
209.0756	20	C15H10F+
222.0844	5	C16H11F+
223.092	10	C16H12F+
230.0963	23	C17H12N+
233.0761	41	C17H10F+
234.0835	6	C17H11F+
235.0789	33	C16H10FN+
236.0878	12	C16H11FN+
237.0945	28	C16H12FN+
238.1029	101	C16H13FN+
248.0868	59	C17H11FN+
249.0949	128	C17H12FN+
250.1029	999	C17H13FN+
252.119	20	C17H15FN+
262.1028	66	C18H13FN+
263.1102	8	C18H14FN+
264.0827	49	C17H11FNO+
264.1183	33	C18H15FN+
274.1019	17	C19H13FN+
275.1111	15	C19H14FN+
276.083	35	C18H11FNO+
276.1186	345	C19H15FN+
277.1256	24	C19H16FN+
278.1348	16	C19H17FN+
288.1177	18	C20H15FN+
290.1342	34	C20H17FN+
292.1502	45	C20H19FN+
302.098	18	C20H13FNO+
302.1343	53	C21H17FN+
303.1409	7	C21H18FN+
306.1294	41	C20H17FNO+
316.1503	13	C22H19FN+
320.1063	10	C23H14NO+
362.1557	37	C26H20NO+
