Mass spectrum: Iohexol; LC-ESI-ITFT; MS2; CE: 60%; R=15000; [M+H]+
Name: Iohexol
Name: 5-[acetyl(2,3-dihydroxypropyl)amino]-1-N,3-N-bis(2,3-dihydroxypropyl)-2,4,6-triiodobenzene-1,3-dicarboxamide
Formula: C19H26I3N3O9
Exact mass: 820.8803
SMILES: OCC(O)CNC(=O)c1c(I)c(N(CC(O)CO)C(C)=O)c(I)c(c1I)C(=O)NCC(O)CO
InChI: InChI=1S/C19H26I3N3O9/c1-8(29)25(4-11(32)7-28)17-15(21)12(18(33)23-2-9(30)5-26)14(20)13(16(17)22)19(34)24-3-10(31)6-27/h9-11,26-28,30-32H,2-7H2,1H3,(H,23,33)(H,24,34)
Instrument: LTQ Orbitrap XL Thermo Scientific
Instrument type: LC-ESI-ITFT
Ms type: MS2
Ion mode: POSITIVE
Ionization: ESI
Fragmentation mode: HCD
Collision energy: 60 % (nominal)
Resolution: 15000
Column name: XBridge C18 3.5um, 2.1x50mm, Waters
Retention time: 1.6 min
Base peak: 132.9578
Precursor m/z: 821.8876
Precursor type: [M+H]+
m/z	relative intensity	assigned
114.0342	114	C8H4N+
142.0286	152	C9H4NO+
158.0235	167	C9H4NO2+
175.0263	189	C9H5NO3+
176.034	158	C9H6NO3+
257.9407	636	C8H5INO+
270.9373	154	C8H4IN2O+
273.9355	999	C8H5INO2+
293.9287	536	C10H3IN2O+
301.9307	978	C9H5INO3+
325.9558	165	C14NO9+
374.9832	211	C12H12IN2O4+
398.8492	173	C8H5I2N2O+
492.9903	103	C19H14IN2O6+
