Mass spectrum: Methadone; LC-ESI-ITFT; MS2; CE: 75%; R=15000; [M+H]+
Name: Methadone
Name: 6-(dimethylamino)-4,4-diphenyl-3-heptanone
Formula: C21H27NO
Exact mass: 309.2093
SMILES: CCC(=O)C(CC(C)N(C)C)(c1ccccc1)c2ccccc2
InChI: InChI=1S/C21H27NO/c1-5-20(23)21(16-17(2)22(3)4,18-12-8-6-9-13-18)19-14-10-7-11-15-19/h6-15,17H,5,16H2,1-4H3
Instrument: LTQ Orbitrap XL Thermo Scientific
Instrument type: LC-ESI-ITFT
Ms type: MS2
Ion mode: POSITIVE
Ionization: ESI
Fragmentation mode: HCD
Collision energy: 75 % (nominal)
Resolution: 15000
Column name: XBridge C18 3.5um, 2.1x50mm, Waters
Retention time: 8.4 min
Base peak: 310.2177
Precursor m/z: 310.2165
Precursor type: [M+H]+
m/z	relative intensity	assigned
53.0386	5	C4H5+
57.0334	18	C3H5O+
77.0386	136	C6H5+
79.0542	7	C6H7+
91.0542	298	C7H7+
95.0492	12	C6H7O+
103.0544	8	C8H7+
105.0335	999	C7H5O+
105.0699	106	C8H9+
107.0491	7	C7H7O+
115.0543	28	C9H7+
117.0699	196	C9H9+
128.062	17	C10H8+
129.0698	61	C10H9+
131.0855	19	C10H11+
141.0698	13	C11H9+
143.0852	6	C11H11+
145.0649	26	C10H9O+
145.1015	7	C11H13+
155.0603	12	C10H7N2+
165.0697	11	C13H9+
166.0776	10	C13H10+
167.0855	80	C13H11+
178.0776	15	C14H10+
179.0857	12	C14H11+
190.0777	8	C15H10+
191.0856	14	C15H11+
194.0726	39	C14H10O+
195.117	13	C15H15+
202.078	6	C16H10+
203.0854	53	C16H11+
204.0934	155	C16H12+
205.1014	30	C16H13+
217.1012	55	C17H13+
218.1088	61	C17H14+
219.1167	29	C17H15+
221.0967	8	C16H13O+
232.1253	9	C18H16+
236.1194	6	C17H16O+
