Mass spectrum: Methacrifos; LC-ESI-QFT; MS2; CE: 75%; R=17500; [M+H]+
Name: Methacrifos
Name: Methyl 3-((dimethoxyphosphinothioyl)oxy)methacrylate
Name: methyl 3-dimethoxyphosphinothioyloxy-2-methylprop-2-enoate
Formula: C7H13O5PS
Exact mass: 240.0221
SMILES: CC(=COP(=S)(OC)OC)C(=O)OC
InChI: InChI=1S/C7H13O5PS/c1-6(7(8)9-2)5-12-13(14,10-3)11-4/h5H,1-4H3
Instrument: Exploris 240 Orbitrap Thermo Scientific
Instrument type: LC-ESI-QFT
Ms type: MS2
Ion mode: POSITIVE
Ionization: ESI
Fragmentation mode: HCD
Collision energy: 75 % (nominal)
Resolution: 17500
Column name: XBridge C18 3.5um, 2.1x50mm, Waters
Retention time: 7.717 min
Base peak: 209.0029
Precursor m/z: 241.0294
Precursor type: [M+H]+
m/z	relative intensity	assigned
53.0386	4	C4H5+
56.0255	3	C3H4O+
59.0127	2	C2H3O2+
59.0491	11	C3H7O+
62.0184	69	C2H6S+
62.9994	5	CH4OP+
67.0178	44	C4H3O+
70.995	38	C3H3S+
78.9943	497	CH4O2P+
93.01	50	C2H6O2P+
94.9712	4	CH4OPS+
97.005	4	CH6O3P+
98.9899	74	C4H3OS+
99.044	9	C5H7O2+
103.0211	8	C4H7OS+
109.0049	115	C2H6O3P+
110.9661	19	CH4O2PS+
124.982	999	C2H6O2PS+
127.0154	218	C2H8O4P+
128.9768	6	CH6O3PS+
131.0162	15	C5H7O2S+
141.0308	8	C3H10O4P+
142.9926	255	C2H8O3PS+
148.9819	8	C4H6O2PS+
157.0084	44	C3H10O3PS+
