Mass spectrum: Topiramate; LC-ESI-QFT; MS2; CE: 150; R=35000; [M+H]+
Name: Topiramate
Name: Topamax
Name: (2,2,7,7-tetramethyl-5,5a,8a,8b-tetrahydrodi[1,3]dioxolo[4,5-a:5`,3`-d]pyran-3a-yl)methyl sulfamate
Formula: C12H21NO8S
Exact mass: 339.09879
SMILES: CC1(OC2COC3(C(C2O1)OC(O3)(C)C)COS(=O)(=O)N)C
InChI: InChI=1S/C12H21NO8S/c1-10(2)18-7-5-16-12(6-17-22(13,14)15)9(8(7)19-10)20-11(3,4)21-12/h7-9H,5-6H2,1-4H3,(H2,13,14,15)
Instrument: Q Exactive Plus Orbitrap Thermo Scientific
Instrument type: LC-ESI-QFT
Ms type: MS2
Ion mode: POSITIVE
Ionization: ESI
Fragmentation mode: HCD
Collision energy: 150 (nominal)
Resolution: 35000
Column name: XBridge C18 3.5um, 2.1x50mm, Waters
Retention time: 6.1 min
Base peak: 357.132
Precursor m/z: 340.1061
Precursor type: [M+H]+
m/z	relative intensity	assigned
50.0151	12	C4H2+
51.023	97	C4H3+
53.0022	100	C3HO+
53.0386	290	C4H5+
53.9975	33	C2NO+
54.0339	13	C3H4N+
55.0179	145	C3H3O+
56.0496	58	C3H6N+
57.0335	66	C3H5O+
59.0492	666	C3H7O+
65.0386	30	C5H5+
67.0542	15	C5H7+
67.9893	13	C3O2+
68.0494	27	C4H6N+
69.0335	115	C4H5O+
71.0128	47	C3H3O2+
77.0385	12	C6H5+
79.9801	999	H2NO2S+
81.0335	74	C5H5O+
85.0285	26	C4H5O2+
91.0543	8	C7H7+
95.0492	42	C6H7O+
97.9905	6	H4NO3S+
105.0449	13	C6H5N2+
