Mass spectrum: Doxepine; LC-ESI-QFT; MS2; CE: 90; R=35000; [M+H]+
Name: Doxepine
Name: Doxepin
Name: 3-(6H-benzo[c][1]benzoxepin-11-ylidene)-N,N-dimethylpropan-1-amine
Formula: C19H21NO
Exact mass: 279.16231
SMILES: CN(C)CCC=C1C2=CC=CC=C2COC3=CC=CC=C31
InChI: InChI=1S/C19H21NO/c1-20(2)13-7-11-17-16-9-4-3-8-15(16)14-21-19-12-6-5-10-18(17)19/h3-6,8-12H,7,13-14H2,1-2H3
Instrument: Q Exactive Plus Orbitrap Thermo Scientific
Instrument type: LC-ESI-QFT
Ms type: MS2
Ion mode: POSITIVE
Ionization: ESI
Fragmentation mode: HCD
Collision energy: 90 (nominal)
Resolution: 35000
Column name: XBridge C18 3.5um, 2.1x50mm, Waters
Retention time: 6.8 min
Base peak: 280.1689
Precursor m/z: 280.1696
Precursor type: [M+H]+
m/z	relative intensity	assigned
50.015	8	C4H2+
51.0228	7	C4H3+
53.0386	124	C4H5+
55.0179	33	C3H3O+
55.0542	4	C4H7+
56.0495	16	C3H6N+
58.0651	354	C3H8N+
62.0148	1	C5H2+
63.0228	7	C5H3+
65.0386	65	C5H5+
67.0541	1	C5H7+
68.0495	6	C4H6N+
69.0334	2	C4H5O+
69.0572	5	C4H7N+
70.0651	184	C4H8N+
71.0729	7	C4H9N+
72.0807	19	C4H10N+
77.0385	232	C6H5+
78.0463	2	C6H6+
79.0542	661	C6H7+
81.0335	17	C5H5O+
82.0651	20	C5H8N+
84.0808	332	C5H10N+
85.0886	12	C5H11N+
89.0387	8	C7H5+
91.0542	751	C7H7+
94.0414	2	C6H6O+
95.0491	335	C6H7O+
102.0465	2	C8H6+
103.0542	67	C8H7+
104.062	8	C8H8+
105.0448	250	C6H5N2+
105.0699	33	C8H9+
106.0416	1	C7H6O+
107.0491	999	C7H7O+
109.0648	1	C7H9O+
115.0542	880	C9H7+
116.062	16	C9H8+
117.0699	264	C9H9+
119.0492	12	C8H7O+
127.0542	14	C10H7+
128.062	241	C10H8+
129.0699	154	C10H9+
131.0492	115	C9H7O+
133.0647	5	C9H9O+
139.0541	6	C11H7+
141.0699	406	C11H9+
142.0777	64	C11H10+
143.0728	2	C10H9N+
143.0856	1	C11H11+
144.0568	4	C10H8O+
145.0649	22	C10H9O+
150.0457	1	C12H6+
151.0542	4	C12H7+
152.0621	149	C12H8+
153.0699	22	C12H9+
155.0604	48	C10H7N2+
157.0648	7	C11H9O+
157.0886	4	C11H11N+
158.0967	2	C11H12N+
163.054	1	C13H7+
164.0619	2	C13H8+
165.07	633	C13H9+
166.0777	181	C13H10+
167.0855	117	C13H11+
168.057	25	C12H8O+
169.0648	5	C12H9O+
170.0966	6	C12H12N+
172.112	1	C12H14N+
176.062	29	C14H8+
177.0699	47	C14H9+
178.0777	526	C14H10+
179.0855	112	C14H11+
181.0647	20	C13H9O+
181.1008	1	C14H13+
189.0698	71	C15H9+
190.0778	59	C15H10+
191.0855	378	C15H11+
192.0934	99	C15H12+
193.0649	26	C14H9O+
194.0727	194	C14H10O+
195.0803	6	C14H11O+
200.0618	8	C16H8+
201.0699	29	C16H9+
202.0777	618	C16H10+
203.0855	77	C16H11+
204.0934	5	C16H12+
205.0649	53	C15H9O+
205.1015	9	C16H13+
206.0727	2	C15H10O+
206.1087	1	C16H14+
207.0806	48	C15H11O+
208.0887	2	C15H12O+
213.0696	4	C17H9+
214.0774	4	C17H10+
215.0856	191	C17H11+
216.0933	23	C17H12+
217.1015	9	C17H13+
218.0727	41	C16H10O+
219.0805	231	C16H11O+
220.0883	129	C16H12O+
229.0761	22	C16H9N2+
231.0803	1	C17H11O+
233.0961	6	C17H13O+
234.1044	1	C17H14O+
