Mass spectrum: Cefaclor; LC-ESI-QFT; MS2; CE: 30; R=35000; [M-H]-
Name: Cefaclor
Name: CEFACLOR
Name: (6R,7R)-7-[[(2R)-2-amino-1-oxo-2-phenylethyl]amino]-3-chloro-8-oxo-5-thia-1-azabicyclo[4.2.0]oct-2-ene-2-carboxylic acid
Formula: C15H14ClN3O4S
Exact mass: 367.03935
SMILES: O=C2N1/C(=C(/Cl)CS[C@@H]1[C@@H]2NC(=O)[C@@H](c3ccccc3)N)C(=O)O
InChI: InChI=1S/C15H14ClN3O4S/c16-8-6-24-14-10(13(21)19(14)11(8)15(22)23)18-12(20)9(17)7-4-2-1-3-5-7/h1-5,9-10,14H,6,17H2,(H,18,20)(H,22,23)/t9-,10-,14-/m1/s1
Instrument: Q Exactive Orbitrap Thermo Scientific
Instrument type: LC-ESI-QFT
Ms type: MS2
Ion mode: NEGATIVE
Ionization: ESI
Fragmentation mode: HCD
Collision energy: 30 (nominal)
Resolution: 35000
Column name: XBridge C18 3.5um, 2.1x50mm, Waters
Retention time: 4.1 min
Base peak: 286.0657
Precursor m/z: 366.0321
Precursor type: [M-H]-
m/z	relative intensity	assigned
56.9805	14	C2HS-
57.9756	143	CNS-
58.9962	3	C2H3S-
65.9985	7	C3NO-
67.0302	3	C3H3N2-
72.0092	16	C2H2NO2-
74.007	4	C2H4NS-
81.9755	3	C3NS-
83.9914	59	C3H2NS-
84.0091	3	C3H2NO2-
86.007	59	C3H4NS-
86.9911	6	C3H3OS-
91.0302	56	C5H3N2-
93.0458	296	C5H5N2-
96.9992	22	C4H3NS-
98.007	35	C4H4NS-
105.0459	52	C6H5N2-
107.0128	3	C4HN3O-
108.999	4	C5H3NS-
110.0071	156	C5H4NS-
111.9865	6	C4H2NOS-
116.0507	24	C8H6N-
119.0252	32	C6H3N2O-
120.0567	39	C6H6N3-
121.0408	9	C6H5N2O-
123.0024	27	C5H3N2S-
124.0101	139	C5H4N2S-
124.994	15	C5H3NOS-
125.0179	139	C5H5N2S-
126.002	50	C5H4NOS-
127.0335	12	C5H7N2S-
128.0175	6	C5H6NOS-
131.9679	14	C4H3ClNS-
131.9858	14	C4H3ClNO2-
135.0023	14	C6H3N2S-
135.0198	6	C6H3N2O2-
135.9862	33	C6H2NOS-
136.994	86	C6H3NOS-
137.0178	18	C6H5N2S-
137.0354	5	C6H5N2O2-
138.0018	9	C6H4NOS-
139.0335	115	C6H7N2S-
141.9968	3	C5H4NO2S-
143.0016	16	C5H4ClN2O-
146.0121	35	C7H2N2O2-
147.0201	6	C7H3N2O2-
149.0356	37	C7H5N2O2-
150.9971	126	C6H3N2OS-
152.0049	210	C6H4N2OS-
153.0128	192	C6H5N2OS-
153.9968	36	C6H4NO2S-
154.0206	6	C6H6N2OS-
155.0019	5	C6H4ClN2O-
159.0564	14	C9H7N2O-
166.0334	28	C8H8NOS-
171.0565	27	C10H7N2O-
172.0404	3	C10H6NO2-
173.0482	33	C10H7NO2-
174.9559	51	C4ClN2O4-
175.0511	25	C9H7N2O2-
178.9923	6	C7H3N2O2S-
179.9999	999	C7H4N2O2S-
181.0075	9	C7H5N2O2S-
181.0769	22	C12H9N2-
185.0717	14	C11H9N2O-
187.0513	204	C10H7N2O2-
189.0492	39	C10H9N2S-
189.067	185	C10H9N2O2-
196.0878	25	C12H10N3-
198.0673	23	C11H8N3O-
200.0593	38	C11H8N2O2-
207.0594	6	C10H11N2OS-
208.088	150	C13H10N3-
209.0722	23	C13H9N2O-
211.9895	15	C7H4N2O4S-
214.0623	60	C11H8N3O2-
215.0648	76	C12H11N2S-
216.0777	523	C11H10N3O2-
224.0596	5	C10H11ClN3O-
224.0828	55	C13H10N3O-
225.0493	14	C13H9N2S-
225.0669	39	C13H9N2O2-
226.0995	4	C13H12N3O-
233.0389	304	C11H9N2O2S-
240.0777	54	C13H10N3O2-
242.0761	14	C13H12N3S-
243.0596	35	C13H11N2OS-
252.0778	127	C14H10N3O2-
258.0706	311	C13H12N3OS-
259.055	6	C13H11N2O2S-
270.0471	74	C14H10N2O2S-
276.0549	20	C13H11ClN3O2-
284.0499	13	C14H10N3O2S-
286.0657	170	C14H12N3O2S-
302.0606	43	C14H12N3O3S-
