Mass spectrum: Valsartan; LC-ESI-ITFT; MS2; CE: 60%; R=15000; [M+H]+
Name: Valsartan
Name: (2S)-3-methyl-2-[1-oxopentyl-[[4-[2-(2H-tetrazol-5-yl)phenyl]phenyl]methyl]amino]butanoic acid
Formula: C24H29N5O3
Exact mass: 435.2270
SMILES: CCCCC(=O)N(CC1=CC=C(C=C1)C2=C(C=CC=C2)C3=NN=NN3)[C@@H](C(C)C)C(O)=O
InChI: InChI=1S/C24H29N5O3/c1-4-5-10-21(30)29(22(16(2)3)24(31)32)15-17-11-13-18(14-12-17)19-8-6-7-9-20(19)23-25-27-28-26-23/h6-9,11-14,16,22H,4-5,10,15H2,1-3H3,(H,31,32)(H,25,26,27,28)/t22-/m0/s1
Instrument: LTQ Orbitrap XL Thermo Scientific
Instrument type: LC-ESI-ITFT
Ms type: MS2
Ion mode: POSITIVE
Ionization: ESI
Fragmentation mode: HCD
Collision energy: 60 % (nominal)
Resolution: 15000
Column name: XBridge C18 3.5um, 2.1x50mm, Waters
Retention time: 11.2 min
Base peak: 436.2337
Precursor m/z: 436.2343
Precursor type: [M+H]+
m/z	relative intensity	assigned
77.0386	4	C6H5+
79.0541	7	C6H7+
80.0494	11	C5H6N+
84.0808	3	C5H10N+
105.0449	6	C6H5N2+
115.0542	13	C9H7+
117.057	3	C8H7N+
129.0446	11	C8H5N2+
129.0696	6	C10H9+
140.0495	47	C10H6N+
141.07	8	C11H9+
151.0541	6	C12H7+
152.0621	20	C12H8+
153.0699	233	C12H9+
154.0648	2	C11H8N+
163.0542	42	C13H7+
165.0581	3	C12H7N+
165.0699	54	C13H9+
166.065	23	C12H8N+
166.0774	7	C13H10+
167.0729	31	C12H9N+
167.0854	5	C13H11+
168.0682	5	C11H8N2+
177.0575	4	C13H7N+
178.0655	41	C13H8N+
178.0778	286	C14H10+
179.0607	11	C12H7N2+
179.0728	52	C13H9N+
179.0855	23	C14H11+
180.0808	907	C13H10N+
181.0648	23	C13H9O+
181.0762	11	C12H9N2+
190.0652	571	C14H8N+
191.073	105	C14H9N+
192.0682	225	C13H8N2+
192.0807	66	C14H10N+
193.0887	34	C14H11N+
194.0595	5	C13H8NO+
194.0964	42	C14H12N+
195.0803	15	C14H11O+
196.0757	28	C13H10NO+
205.0761	153	C14H9N2+
206.0839	470	C14H10N2+
207.0917	999	C14H11N2+
208.0757	187	C14H10NO+
209.1071	40	C14H13N2+
210.0913	52	C14H12NO+
221.1071	4	C15H13N2+
235.0864	36	C15H11N2O+
235.0983	11	C14H11N4+
247.0859	5	C14H9N5+
290.1407	4	C17H16N5+
291.1494	24	C19H19N2O+
