Mass spectrum: Albendazole; LC-ESI-QFT; MS2; CE: 180; R=35000; [M-H]-
Name: Albendazole
Name: Methyl N-(6-propylsulfanyl-1H-benzimidazol-2-yl)carbamate
Formula: C12H15N3O2S
Exact mass: 265.08850
SMILES: CCCSC1=CC2=C(C=C1)N=C(N2)NC(=O)OC
InChI: InChI=1S/C12H15N3O2S/c1-3-6-18-8-4-5-9-10(7-8)14-11(13-9)15-12(16)17-2/h4-5,7H,3,6H2,1-2H3,(H2,13,14,15,16)
Instrument: Q Exactive Plus Orbitrap Thermo Scientific
Instrument type: LC-ESI-QFT
Ms type: MS2
Ion mode: NEGATIVE
Ionization: ESI
Fragmentation mode: HCD
Collision energy: 180 (nominal)
Resolution: 35000
Column name: XBridge C18 3.5um, 2.1x50mm, Waters
Retention time: 7.8 min
Base peak: 232.0549
Precursor m/z: 264.0812
Precursor type: [M-H]-
m/z	relative intensity	assigned
50.0036	34	C3N-
56.9805	39	C2HS-
57.9758	999	CNS-
64.0068	7	C3N2-
64.0193	11	C4H2N-
65.0146	139	C3HN2-
74.0038	90	C5N-
76.0194	18	C5H2N-
79.9728	11	C4S-
80.9806	9	C4HS-
81.9758	233	C3NS-
83.9915	2	C3H2NS-
89.0147	37	C5HN2-
90.0099	16	C4N3-
101.0147	9	C6HN2-
105.9758	50	C5NS-
107.9916	6	C5H2NS-
108.9867	11	C4HN2S-
132.9867	11	C6HN2S-
135.0021	2	C6H3N2S-
156.0206	7	C8H2N3O-
159.9977	33	C7H2N3S-
