Mass spectrum: Diazepam; LC-ESI-ITFT; MS2; CE: 45%; R=15000; [M+H]+
Name: Diazepam
Name: 7-chloranyl-1-methyl-5-phenyl-3H-1,4-benzodiazepin-2-one
Formula: C16H13ClN2O
Exact mass: 284.0716
SMILES: CN1C2=C(C=C(Cl)C=C2)C(=NCC1=O)C3=CC=CC=C3
InChI: InChI=1S/C16H13ClN2O/c1-19-14-8-7-12(17)9-13(14)16(18-10-15(19)20)11-5-3-2-4-6-11/h2-9H,10H2,1H3
Instrument: LTQ Orbitrap XL Thermo Scientific
Instrument type: LC-ESI-ITFT
Ms type: MS2
Ion mode: POSITIVE
Ionization: ESI
Fragmentation mode: HCD
Collision energy: 45 % (nominal)
Resolution: 15000
Column name: XBridge C18 3.5um, 2.1x50mm, Waters
Retention time: 10.1 min
Base peak: 285.0798
Precursor m/z: 285.0789
Precursor type: [M+H]+
m/z	relative intensity	assigned
58.0287	1	C2H4NO+
91.0542	12	C7H7+
105.0335	20	C7H5O+
116.0495	2	C8H6N+
141.034	3	C7H8ClN+
147.0677	5	C9H9NO+
154.0418	147	C8H9ClN+
167.0135	8	C8H6ClNO+
172.0632	11	C10H8N2O+
179.0369	11	C9H8ClN2+
180.0212	14	C9H7ClNO+
182.0368	46	C9H9ClNO+
193.0886	59	C14H11N+
207.0318	4	C10H8ClN2O+
216.0574	4	C13H11ClN+
221.1071	10	C15H13N2+
222.1151	95	C15H14N2+
226.0413	3	C14H9ClN+
227.0493	6	C14H10ClN+
228.0574	101	C14H11ClN+
230.0735	3	C14H13ClN+
241.0526	13	C14H10ClN2+
243.0681	2	C14H12ClN2+
255.0683	12	C15H12ClN2+
256.0764	1	C15H13ClN2+
257.0839	206	C15H14ClN2+
285.0791	999	C16H14ClN2O+
