Mass spectrum: Tritosulfuron; LC-ESI-ITFT; MS2; CE: 75%; R=15000; [M+H]+
Name: Tritosulfuron
Name: N-{[4-methoxy-6-(trifluoromethyl)-1,3,5-triazin-2-yl]carbamoyl}-2-(trifluoromethyl)benzenesulfonamide
Formula: C13H9F6N5O4S
Exact mass: 445.0279
SMILES: c1c(S(=O)(=O)NC(Nc2nc(nc(n2)C(F)(F)F)OC)=O)c(C(F)(F)F)ccc1
InChI: InChI=1S/C13H9F6N5O4S/c1-28-11-21-8(13(17,18)19)20-9(23-11)22-10(25)24-29(26,27)7-5-3-2-4-6(7)12(14,15)16/h2-5H,1H3,(H2,20,21,22,23,24,25)
Instrument: LTQ Orbitrap XL Thermo Scientific
Instrument type: LC-ESI-ITFT
Ms type: MS2
Ion mode: POSITIVE
Ionization: ESI
Fragmentation mode: HCD
Collision energy: 75 % (nominal)
Resolution: 15000
Column name: XBridge C18 3.5um, 2.1x50mm, Waters
Retention time: 10.8 min
Base peak: 446.0345
Precursor m/z: 446.0352
Precursor type: [M+H]+
m/z	relative intensity	assigned
68.9947	13	CF3+
69.0083	27	C2HN2O+
75.9994	3	C2F2N+
83.024	33	C3H3N2O+
91.0103	6	C2HF2N2+
91.9942	17	C2F2NO+
95.0293	3	C6H4F+
102.034	2	C7H4N+
110.0212	688	C3H3F3N+
113.0398	2	C6H6FO+
114.0276	9	C6H4F2+
123.0354	38	C6H4FN2+
125.0197	13	C7H3F2+
125.0457	3	C4H5N4O+
127.0478	118	C3H6F3N2+
130.04	69	C7H4N3+
133.0209	8	C4H3F2N2O+
137.0269	3	C4H9O3S+
138.0275	10	C8H4F2+
139.0107	2	C3H2F3N2O+
140.0308	8	C7H4F2N+
142.0221	2	C2H3F3N3O+
144.0006	17	C9HFO+
145.026	999	C7H4F3+
148.0197	5	C8H3FNO+
148.0307	6	CH9FN2O3S+
152.0436	1	C9H6F2+
153.0272	1	C4H4F3N2O+
165.022	2	C8H4FNO2+
168.0256	38	C8H4F2NO+
173.0462	2	C5H6FN4O2+
175.0418	2	C2H10FN3O3S+
193.0528	5	C5H7F2N4O2+
195.0488	52	C5H6F3N4O+
219.0319	2	C4H7F4N4S+
221.028	19	C6H4F3N4O2+
325.9663	2	C9HF5N3O3S+
