Mass spectrum: Cotinine; LC-ESI-QFT; MS2; CE: 120; R=35000; [M+H]+
Name: Cotinine
Name: (5S)-1-methyl-5-pyridin-3-ylpyrrolidin-2-one
Formula: C10H12N2O
Exact mass: 176.09496
SMILES: CN1[C@@H](CCC1=O)c2cccnc2
InChI: InChI=1S/C10H12N2O/c1-12-9(4-5-10(12)13)8-3-2-6-11-7-8/h2-3,6-7,9H,4-5H2,1H3/t9-/m0/s1
Instrument: Q Exactive Plus Orbitrap Thermo Scientific
Instrument type: LC-ESI-QFT
Ms type: MS2
Ion mode: POSITIVE
Ionization: ESI
Fragmentation mode: HCD
Collision energy: 120 (nominal)
Resolution: 35000
Column name: XBridge C18 3.5um, 2.1x50mm, Waters
Retention time: 1.1 min
Base peak: 177.1022
Precursor m/z: 177.1022
Precursor type: [M+H]+
m/z	relative intensity	assigned
51.023	2	C4H3+
53.0386	67	C4H5+
55.0417	1	C3H5N+
58.0288	1	C2H4NO+
65.0386	6	C5H5+
68.0495	12	C4H6N+
69.0334	2	C4H5O+
70.0652	100	C4H8N+
78.0339	7	C5H4N+
79.0416	3	C5H5N+
79.0543	1	C6H7+
80.0495	999	C5H6N+
90.0464	1	C7H6+
91.0543	19	C7H7+
92.0496	3	C6H6N+
93.0573	3	C6H7N+
94.0651	1	C6H8N+
95.0491	1	C6H7O+
96.0444	23	C5H6NO+
98.0601	106	C5H8NO+
103.0543	1	C8H7+
105.0447	1	C6H5N2+
106.0652	4	C7H8N+
110.0602	2	C6H8NO+
117.0574	14	C8H7N+
118.0652	15	C8H8N+
120.0809	5	C8H10N+
146.06	2	C9H8NO+
