Mass spectrum: Profoxydim; LC-ESI-QFT; MS2; CE: 45; R=35000; [M-H]-
Name: Profoxydim
Name: 2-[1-[2-(4-chlorophenoxy)propoxyamino]butylidene]-5-(thian-3-yl)cyclohexane-1,3-dione
Formula: C24H32ClNO4S
Exact mass: 465.17406
SMILES: CCCC(=C1C(=O)CC(CC1=O)C2CCCSC2)NOCC(C)OC3=CC=C(C=C3)Cl
InChI: InChI=1S/C24H32ClNO4S/c1-3-5-21(26-29-14-16(2)30-20-9-7-19(25)8-10-20)24-22(27)12-18(13-23(24)28)17-6-4-11-31-15-17/h7-10,16-18,26H,3-6,11-15H2,1-2H3
Instrument: Q Exactive Plus Orbitrap Thermo Scientific
Instrument type: LC-ESI-QFT
Ms type: MS2
Ion mode: NEGATIVE
Ionization: ESI
Fragmentation mode: HCD
Collision energy: 45 (nominal)
Resolution: 35000
Column name: XBridge C18 3.5um, 2.1x50mm, Waters
Retention time: 14.4 min
Base peak: 464.1659
Precursor m/z: 464.1668
Precursor type: [M-H]-
m/z	relative intensity	assigned
57.0345	2	C3H5O-
58.9961	3	C2H3S-
69.0346	13	C4H5O-
95.0139	4	C5H3O2-
101.0429	11	C5H9S-
107.0502	1	C7H7O-
109.0294	6	C6H5O2-
110.061	2	C6H8NO-
123.0815	1	C8H11O-
126.0923	3	C7H12NO-
126.9955	422	C6H4ClO-
134.0246	18	C7H4NO2-
136.0402	1	C7H6NO2-
140.0541	1	C7H10NS-
162.056	1	C9H8NO2-
165.0795	1	C9H11NO2-
167.0534	8	C9H11OS-
169.0692	58	C9H13OS-
176.0719	1	C10H10NO2-
178.0873	5	C10H12NO2-
192.0487	7	C10H10NOS-
194.0642	5	C10H12NOS-
194.082	1	C10H12NO3-
208.0802	1	C11H14NOS-
211.0797	10	C11H15O2S-
236.0749	999	C12H14NO2S-
238.1265	4	C13H20NOS-
252.1061	11	C13H18NO2S-
264.1057	4	C14H18NO2S-
278.122	5	C15H20NO2S-
280.1375	123	C15H22NO2S-
