Mass spectrum: Flutriafol; LC-ESI-QFT; MS2; CE: 180; R=35000; [M+H]+
Name: Flutriafol
Name: 1-(2-fluorophenyl)-1-(4-fluorophenyl)-2-(1,2,4-triazol-1-yl)ethanol
Formula: C16H13F2N3O
Exact mass: 301.10267
SMILES: C1=CC=C(C(=C1)C(CN2C=NC=N2)(C3=CC=C(C=C3)F)O)F
InChI: InChI=1S/C16H13F2N3O/c17-13-7-5-12(6-8-13)16(22,9-21-11-19-10-20-21)14-3-1-2-4-15(14)18/h1-8,10-11,22H,9H2
Instrument: Q Exactive Plus Orbitrap Thermo Scientific
Instrument type: LC-ESI-QFT
Ms type: MS2
Ion mode: POSITIVE
Ionization: ESI
Fragmentation mode: HCD
Collision energy: 180 (nominal)
Resolution: 35000
Column name: XBridge C18 3.5um, 2.1x50mm, Waters
Retention time: 8.6 min
Base peak: 302.1094
Precursor m/z: 302.1099
Precursor type: [M+H]+
m/z	relative intensity	assigned
50.0151	11	C4H2+
51.023	7	C4H3+
53.0022	17	C3HO+
57.0135	128	C3H2F+
59.0292	23	C3H4F+
62.0151	13	C5H2+
63.023	50	C5H3+
65.0022	3	C4HO+
65.0386	6	C5H5+
69.0135	46	C4H2F+
70.04	458	C2H4N3+
71.0292	4	C4H4F+
74.0151	547	C6H2+
75.0229	999	CH2FN3+
79.0179	2	C5H3O+
81.0135	6	C5H2F+
83.0292	153	C5H4F+
89.0386	10	C7H5+
93.0336	1	C6H5O+
95.0292	47	C6H4F+
98.0151	11	C8H2+
99.0229	11	C8H3+
107.0291	5	C7H4F+
109.0448	18	C7H6F+
113.0397	40	C6H6FO+
115.0543	2	C9H7+
120.0371	5	C8H5F+
122.0151	9	C10H2+
123.023	13	
123.0353	80	C6H4FN2+
133.0449	5	C9H6F+
139.0543	3	C11H7+
144.0372	5	C10H5F+
149.0387	2	C12H5+
157.045	3	C11H6F+
163.0543	10	C13H7+
168.0371	18	C12H5F+
174.0465	4	C14H6+
181.0448	5	C13H6F+
183.0606	3	C13H8F+
192.0372	5	C14H5F+
194.0527	2	C14H7F+
212.043	2	C14H6F2+
