Mass spectrum: Oseltamivir; LC-ESI-ITFT; MS2; CE: 45%; R=15000; [M+H]+
Name: Oseltamivir
Name: (3R,4R,5S)-4-acetamido-5-amino-3-(1-ethylpropoxy)cyclohexene-1-carboxylic acid ethyl ester
Formula: C16H28N2O4
Exact mass: 312.2049
SMILES: CCC(CC)OC1C=C(CC(C1NC(=O)C)N)C(=O)OCC
InChI: InChI=1S/C16H28N2O4/c1-5-12(6-2)22-14-9-11(16(20)21-7-3)8-13(17)15(14)18-10(4)19/h9,12-15H,5-8,17H2,1-4H3,(H,18,19)/t13-,14+,15+/m0/s1
Instrument: LTQ Orbitrap XL Thermo Scientific
Instrument type: LC-ESI-ITFT
Ms type: MS2
Ion mode: POSITIVE
Ionization: ESI
Fragmentation mode: HCD
Collision energy: 45 % (nominal)
Resolution: 15000
Column name: XBridge C18 3.5um, 2.1x50mm, Waters
Retention time: 7.0 min
Base peak: 313.2132
Precursor m/z: 313.2122
Precursor type: [M+H]+
m/z	relative intensity	assigned
60.0444	4	C2H6NO+
65.0386	7	C5H5+
67.0542	12	C5H7+
68.0495	7	C4H6N+
80.0494	2	C5H6N+
82.0649	2	C5H8N+
83.0491	4	C5H7O+
87.0553	2	C3H7N2O+
92.0495	21	C6H6N+
93.0335	30	C6H5O+
93.0572	13	C6H7N+
94.0652	166	C6H8N+
95.0492	12	C6H7O+
95.0854	2	C7H11+
109.0761	37	C6H9N2+
110.0601	9	C6H8NO+
111.0441	25	C6H7O2+
112.0394	6	C5H6NO2+
119.0606	8	C7H7N2+
120.0445	418	C7H6NO+
121.0281	3	C7H5O2+
122.0964	27	C8H12N+
123.0804	8	C8H11O+
133.0762	7	C8H9N2+
134.0598	3	C8H8NO+
136.0757	108	C8H10NO+
137.071	202	C7H9N2O+
138.055	91	C7H8NO2+
139.0388	8	C7H7O3+
139.0754	10	C8H11O2+
140.0709	7	C7H10NO2+
151.0865	7	C8H11N2O+
154.0863	7	C8H12NO2+
155.0816	3	C7H11N2O2+
161.071	16	C9H9N2O+
162.055	52	C9H8NO2+
166.0864	999	C9H12NO2+
167.0702	11	C9H11O3+
179.0815	26	C9H11N2O2+
180.0656	27	C9H10NO3+
183.1129	24	C9H15N2O2+
184.0966	7	C9H14NO3+
207.113	3	C11H15N2O2+
208.0967	40	C11H14NO3+
225.126	9	C14H15N3+
226.1073	22	C11H16NO4+
