Mass spectrum: Iopromide; LC-ESI-ITFT; MS2; CE: 15%; R=7500; [M+H]+
Name: Iopromide
Name: 1-N,3-N-bis(2,3-dihydroxypropyl)-2,4,6-triiodo-5-[(2-methoxyacetyl)amino]-3-N-methylbenzene-1,3-dicarboxamide
Formula: C18H24I3N3O8
Exact mass: 790.8698
SMILES: CN(CC(CO)O)C(=O)C1=C(C(=C(C(=C1I)C(=O)NCC(CO)O)I)NC(=O)COC)I
InChI: InChI=1S/C18H24I3N3O8/c1-24(4-9(28)6-26)18(31)12-13(19)11(17(30)22-3-8(27)5-25)14(20)16(15(12)21)23-10(29)7-32-2/h8-9,25-28H,3-7H2,1-2H3,(H,22,30)(H,23,29)
Instrument: LTQ Orbitrap XL Thermo Scientific
Instrument type: LC-ESI-ITFT
Ms type: MS2
Ion mode: POSITIVE
Ionization: ESI
Fragmentation mode: HCD
Collision energy: 15 % (nominal)
Resolution: 7500
Column name: XBridge C18 3.5um, 2.1x50mm, Waters
Retention time: 2.7 min
Base peak: 132.9579
Precursor m/z: 791.877
Precursor type: [M+H]+
m/z	relative intensity	assigned
293.8858	179	CHIN3O7+
478.0463	111	C16H21IN3O6+
558.8866	377	C14H13I2N2O6+
572.9015	853	C15H15I2N2O6+
686.7991	161	C14H14I3N2O6+
700.8129	181	C15H16I3N2O6+
773.8638	186	C18H23I3N3O7+
791.8767	999	C18H25I3N3O8+
