Mass spectrum: Simeton; LC-ESI-ITFT; MS2; CE: 90%; R=30000; [M+H]+
Name: Simeton
Name: 2-N,4-N-diethyl-6-methoxy-1,3,5-triazine-2,4-diamine
Formula: C8H15N5O
Exact mass: 197.1271
SMILES: c1(nc(nc(n1)OC)NCC)NCC
InChI: InChI=1S/C8H15N5O/c1-4-9-6-11-7(10-5-2)13-8(12-6)14-3/h4-5H2,1-3H3,(H2,9,10,11,12,13)
Instrument: LTQ Orbitrap XL Thermo Scientific
Instrument type: LC-ESI-ITFT
Ms type: MS2
Ion mode: POSITIVE
Ionization: ESI
Fragmentation mode: HCD
Collision energy: 90 % (nominal)
Resolution: 30000
Column name: XBridge C18 3.5um, 2.1x50mm, Waters
Retention time: 4.9 min
Base peak: 198.1352
Precursor m/z: 198.1349
Precursor type: [M+H]+
m/z	relative intensity	assigned
57.0447	194	C2H5N2+
58.0287	47	C2H4NO+
68.0243	877	C2H2N3+
69.0083	278	C2HN2O+
71.0604	297	C3H7N2+
75.0553	26	C2H7N2O+
82.04	15	C3H4N3+
83.024	38	C3H3N2O+
85.076	57	C4H9N2+
86.0349	27	C2H4N3O+
96.0556	382	C4H6N3+
97.0396	41	C4H5N2O+
100.0506	999	C3H6N3O+
113.0822	7	C4H9N4+
114.0662	75	C4H8N3O+
124.0869	145	C6H10N3+
128.0818	200	C5H10N3O+
138.0774	6	C5H8N5+
142.0723	23	C4H8N5O+
170.1036	36	C6H12N5O+
198.1347	16	C8H16N5O+
