Mass spectrum: Microcystin-RR; LC-ESI-QFT; MS2; CE: 90; R=35000; [M+H]+
Name: Microcystin-RR
Name: (5R,8R,11R,12S,15S,18S,19S,22R)-8,15-bis[3-(diaminomethylideneamino)propyl]-18-[(1E,3E,5S,6S)-6-methoxy-3,5-dimethyl-7-phenylhepta-1,3-dienyl]-1,5,12,19-tetramethyl-2-methylidene-3,6,9,13,16,20,25-heptaoxo-1,4,7,10,14,17,21-heptazacyclopentacosane-11,22-dicarboxylic acid
Formula: C49H75N13O12
Exact mass: 1037.56581
SMILES: O=C2N[C@@H](\C=C\C(=C\[C@H](C)[C@@H](OC)Cc1ccccc1)C)[C@@H](C(=O)N[C@@H](C(=O)O)CCC(=O)N(/C(=C)C(=O)N[C@@H](C(=O)N[C@@H](C(=O)N[C@@H](C(=O)O)[C@@H](C(=O)N[C@H]2CCC/N=C(\N)N)C)CCC/N=C(\N)N)C)C)C
InChI: InChI=1S/C49H75N13O12/c1-26(24-27(2)37(74-8)25-32-14-10-9-11-15-32)18-19-33-28(3)40(64)60-36(46(70)71)20-21-38(63)62(7)31(6)43(67)56-30(5)42(66)59-35(17-13-23-55-49(52)53)45(69)61-39(47(72)73)29(4)41(65)58-34(44(68)57-33)16-12-22-54-48(50)51/h9-11,14-15,18-19,24,27-30,33-37,39H,6,12-13,16-17,20-23,25H2,1-5,7-8H3,(H,56,67)(H,57,68)(H,58,65)(H,59,66)(H,60,64)(H,61,69)(H,70,71)(H,72,73)(H4,50,51,54)(H4,52,53,55)/b19-18+,26-24+/t27-,28-,29-,30+,33-,34-,35+,36+,37-,39+/m0/s1
Instrument: Q Exactive Orbitrap Thermo Scientific
Instrument type: LC-ESI-QFT
Ms type: MS2
Ion mode: POSITIVE
Ionization: ESI
Fragmentation mode: HCD
Collision energy: 90 (nominal)
Resolution: 35000
Column name: XBridge C18 3.5um, 2.1x50mm, Waters
Retention time: 9.1 min
Base peak: 519.7909
Precursor m/z: 1038.5731
Precursor type: [M+H]+
m/z	relative intensity	assigned
72.0808	11	C4H10N+
74.0601	2	C3H8NO+
77.0386	65	C6H5+
79.0543	124	C6H7+
80.0496	50	C5H6N+
81.0336	10	C5H5O+
81.0699	9	C6H9+
82.0289	29	C4H4NO+
82.0653	54	C5H8N+
83.0604	3	C4H7N2+
84.0445	107	C4H6NO+
85.0285	23	C4H5O2+
85.0761	17	C4H9N2+
86.0602	14	C4H8NO+
86.0715	3	C3H8N3+
91.0543	425	C7H7+
92.0621	8	C7H8+
93.07	66	C7H9+
94.0652	26	C6H8N+
95.0492	433	C6H7O+
95.0604	59	C5H7N2+
96.0446	27	C5H6NO+
96.0808	14	C6H10N+
97.0761	58	C5H9N2+
98.0601	62	C5H8NO+
99.0191	14	C3H3N2O2+
99.0918	44	C5H11N2+
100.0757	8	C5H10NO+
102.0465	34	C8H6+
102.0552	3	C4H8NO2+
103.0543	999	C8H7+
104.0576	15	C3H8N2O2+
105.0448	66	C6H5N2+
105.07	269	C8H9+
106.0524	3	C6H6N2+
106.0652	2	C7H8N+
107.0856	124	C8H11+
108.0446	2	C6H6NO+
108.0683	3	C6H8N2+
108.0809	15	C7H10N+
109.065	29	C7H9O+
109.0763	4	C6H9N2+
110.0238	3	C5H4NO2+
110.0601	14	C6H8NO+
110.0714	3	C5H8N3+
110.0966	8	C7H12N+
111.0553	2	C5H7N2O+
111.0919	2	C6H11N2+
112.0395	4	C5H6NO2+
112.087	71	C5H10N3+
113.0235	27	C5H5O3+
113.071	9	C5H9N2O+
114.0551	5	C5H8NO2+
114.1027	8	C5H12N3+
115.0543	147	C9H7+
115.0867	22	C5H11N2O+
116.0622	13	C9H8+
116.0709	8	C5H10NO2+
117.07	66	C9H9+
118.0653	5	C8H8N+
119.0494	2	C8H7O+
119.0605	10	C7H7N2+
119.0856	13	C9H11+
120.057	14	C8H8O+
120.0808	14	C8H10N+
121.0761	38	C7H9N2+
122.0602	9	C7H8NO+
122.0965	3	C8H12N+
123.0556	2	C6H7N2O+
123.0918	14	C7H11N2+
124.0759	4	C7H10NO+
124.0871	3	C6H10N3+
125.071	15	C6H9N2O+
127.0867	171	C6H11N2O+
128.0623	16	C10H8+
129.0699	14	C10H9+
130.0503	3	C5H8NO3+
130.0654	3	C9H8N+
130.0976	9	C5H12N3O+
131.0858	8	C10H11+
132.0808	4	C9H10N+
133.1015	2	C10H13+
135.0806	34	C9H11O+
135.1171	2	C10H15+
137.1071	2	C8H13N2+
138.0549	2	C7H8NO2+
138.0662	2	C6H8N3O+
138.0914	2	C8H12NO+
139.0867	5	C7H11N2O+
141.0657	15	C6H9N2O2+
146.0966	3	C10H12N+
149.0712	23	C8H9N2O+
149.1078	2	C9H13N2+
151.0868	8	C8H11N2O+
152.0711	3	C8H10NO2+
162.1025	2	C9H12N3+
163.0867	9	C9H11N2O+
164.0822	2	C8H10N3O+
165.0703	9	C13H9+
165.1025	9	C9H13N2O+
166.0974	2	C8H12N3O+
167.0813	24	C8H11N2O2+
170.0966	8	C12H12N+
178.0978	3	C9H12N3O+
195.0766	4	C9H11N2O3+
