Mass spectrum: Dimethachlor OXA; LC-ESI-ITFT; MS2; CE: 45%; R=15000; [M+H]+
Name: Dimethachlor OXA
Name: 2-[(2,6-dimethylphenyl)(2-methoxyethyl)amino]-2-oxo-acetic acid
Formula: C13H17NO4
Exact mass: 251.1158
SMILES: Cc1cccc(C)c1N(CCOC)C(=O)C(O)=O
InChI: InChI=1S/C13H17NO4/c1-9-5-4-6-10(2)11(9)14(7-8-18-3)12(15)13(16)17/h4-6H,7-8H2,1-3H3,(H,16,17)
Instrument: LTQ Orbitrap XL Thermo Scientific
Instrument type: LC-ESI-ITFT
Ms type: MS2
Ion mode: POSITIVE
Ionization: ESI
Fragmentation mode: HCD
Collision energy: 45 % (nominal)
Resolution: 15000
Column name: XBridge C18 3.5um, 2.1x50mm, Waters
Retention time: 6.6 min
Base peak: 252.1226
Precursor m/z: 252.123
Precursor type: [M+H]+
m/z	relative intensity	assigned
79.054	1	C6H7+
91.0542	2	C7H7+
103.0543	1	C8H7+
105.0699	26	C8H9+
106.0777	4	C8H10+
107.0855	33	C8H11+
117.0574	4	C8H7N+
118.0651	10	C8H8N+
119.0856	1	C9H11+
120.0807	8	C8H10N+
121.0648	1	C8H9O+
130.0654	1	C9H8N+
131.073	19	C9H9N+
131.0854	4	C10H11+
132.0808	195	C9H10N+
133.0759	1	C8H9N2+
133.0886	26	C9H11N+
134.0964	1	C9H12N+
146.0965	88	C10H12N+
147.1042	2	C10H13N+
148.0757	17	C9H10NO+
148.1121	212	C10H14N+
158.0967	4	C11H12N+
164.1072	1	C10H14NO+
174.0912	5	C11H12NO+
176.107	55	C11H14NO+
178.1227	33	C11H16NO+
192.1019	8	C11H14NO2+
206.1176	9	C12H16NO2+
220.0968	999	C12H14NO3+
