Mass spectrum: Niflumic acid; LC-ESI-QFT; MS2; CE: 120; R=35000; [M+H]+
Name: Niflumic acid
Name: 2-[3-(trifluoromethyl)anilino]pyridine-3-carboxylic acid
Formula: C13H9F3N2O2
Exact mass: 282.06161
SMILES: C1=CC(=CC(=C1)NC2=C(C=CC=N2)C(=O)O)C(F)(F)F
InChI: InChI=1S/C13H9F3N2O2/c14-13(15,16)8-3-1-4-9(7-8)18-11-10(12(19)20)5-2-6-17-11/h1-7H,(H,17,18)(H,19,20)
Instrument: Q Exactive Plus Orbitrap Thermo Scientific
Instrument type: LC-ESI-QFT
Ms type: MS2
Ion mode: POSITIVE
Ionization: ESI
Fragmentation mode: HCD
Collision energy: 120 (nominal)
Resolution: 35000
Column name: XBridge C18 3.5um, 2.1x50mm, Waters
Retention time: 12.7 min
Base peak: 283.0682
Precursor m/z: 283.0689
Precursor type: [M+H]+
m/z	relative intensity	assigned
50.0151	49	C4H2+
51.0041	15	CHF2+
51.0229	29	C4H3+
52.0181	7	C3H2N+
52.0307	4	C4H4+
53.0022	27	C3HO+
53.0386	7	C4H5+
53.9975	1	C2NO+
54.0338	2	C3H4N+
55.0178	2	C3H3O+
55.0416	2	C3H5N+
56.0494	4	C3H6N+
57.0135	38	C3H2F+
61.0072	2	C5H+
62.015	1	C5H2+
63.0228	11	C5H3+
64.0181	2	C4H2N+
64.0307	1	C5H4+
65.0021	2	C4HO+
65.026	1	C4H3N+
65.0386	11	C5H5+
66.0338	15	C4H4N+
66.0463	2	C5H6+
67.0178	4	C4H3O+
67.0417	1	C4H5N+
68.0055	1	C4HF+
68.0494	2	C4H6N+
68.9946	38	CF3+
69.0134	4	C4H2F+
71.0291	54	C4H4F+
74.0151	59	C6H2+
75.0041	155	C3HF2+
75.0229	563	C6H3+
76.0181	25	C5H2N+
76.0307	5	C6H4+
77.0021	4	C5HO+
77.0197	1	C3H3F2+
77.0385	15	C6H5+
78.0338	195	C5H4N+
79.0178	21	C5H3O+
79.0416	53	C5H5N+
81.0135	29	C5H2F+
83.0292	1	C5H4F+
87.0228	1	C7H3+
88.0182	1	C6H2N+
88.0308	16	C7H4+
89.0385	29	C7H5+
90.0464	84	C7H6+
91.0417	2	C6H5N+
92.0257	5	C6H4O+
92.0369	6	C5H4N2+
92.0495	1	C6H6N+
93.0336	11	C6H5O+
93.0448	59	C5H5N2+
94.0288	5	C5H4NO+
95.0103	57	C3H2F3+
95.0292	179	C6H4F+
95.0364	13	C5H5NO+
95.0491	24	C6H7O+
96.0444	107	C5H6NO+
99.0041	55	C5HF2+
99.0232	15	C8H3+
100.0182	12	C7H2N+
101.0023	5	C7HO+
101.0197	10	C5H3F2+
102.0338	7	C7H4N+
103.029	22	C6H3N2+
104.0494	4	C7H6N+
105.0135	6	C7H2F+
105.0447	17	C6H5N2+
107.0292	4	C7H4F+
109.045	2	C7H6F+
111.0442	2	C6H7O2+
111.0478	9	C6H6FN+
112.0392	1	C5H6NO2+
113.0397	317	C6H6FO+
114.0276	11	C6H4F2+
114.0338	13	C8H4N+
114.0464	155	C9H6+
115.0357	7	C6H5F2+
115.0416	19	C8H5N+
115.0542	39	C9H7+
116.0495	10	C8H6N+
116.062	5	C9H8+
117.0136	5	C8H2F+
117.0573	92	C8H7N+
118.0413	28	C8H6O+
118.0526	4	C7H6N2+
119.0104	68	C5H2F3+
120.0243	1	C7H3FN+
120.0445	4	C7H6NO+
121.0397	33	C6H5N2O+
122.0148	1	C10H2+
123.0231	56	C10H3+
123.0353	733	C6H4FN2+
124.0182	32	C9H2N+
124.0324	5	C7H5FO+
125.0198	429	C7H3F2+
126.0276	9	C7H4F2+
126.0337	7	C9H4N+
126.0463	1	C10H6+
127.0417	2	C9H5N+
128.0494	24	C9H6N+
129.0446	13	C8H5N2+
130.04	13	C7H4N3+
131.0491	4	C9H7O+
132.057	65	C9H8O+
133.0448	65	C9H6F+
134.04	10	C8H5FN+
134.0601	2	C8H8NO+
137.0197	1	C8H3F2+
138.0274	1	C8H4F2+
138.034	1	C10H4N+
139.0358	2	C8H5F2+
139.0417	2	C10H5N+
140.0495	740	C10H6N+
141.0573	275	C10H7N+
142.0465	11	C7H6F2N+
142.0525	85	C9H6N2+
143.0103	6	C7H2F3+
143.0293	103	C10H4F+
144.0188	1	C7H3F3+
144.0245	11	C9H3FN+
144.0372	2	C10H5F+
144.0445	4	C9H6NO+
145.026	999	C7H4F3+
146.04	4	C9H5FN+
146.06	4	C9H8NO+
147.0353	7	C8H4FN2+
148.0309	5	C12H4+
149.0197	1	C9H3F2+
150.0338	78	C11H4N+
151.0293	1	C10H3N2+
151.0352	3	C9H5F2+
151.0417	2	C11H5N+
152.0498	8	C11H6N+
153.0447	5	C10H5N2+
153.0574	1	C11H7N+
154.0402	6	C9H4N3+
157.0257	1	C8H4F3+
157.0463	1	C8H7F2O+
157.0523	6	C10H7NO+
158.0401	11	C10H5FN+
158.0602	7	C10H8NO+
159.048	4	C10H6FN+
159.0554	12	C9H7N2O+
159.0679	5	C10H9NO+
160.0372	3	C7H5F3N+
161.0197	1	C10H3F2+
161.0391	17	C10H6FO+
161.045	5	C7H6F3N+
162.0276	8	C10H4F2+
162.035	4	C9H5FNO+
163.0354	39	C10H5F2+
164.0306	42	C9H4F2N+
164.0434	8	C10H6F2+
165.026	1	C8H3F2N2+
165.0452	6	C11H5N2+
166.0526	72	C11H6N2+
167.0604	269	C11H7N2+
168.0445	71	C11H6NO+
168.0682	452	C11H8N2+
169.0256	4	C9H4F3+
169.0325	7	C11H4FN+
169.0395	2	C10H5N2O+
169.0524	8	C11H7NO+
170.0213	24	C8H3F3N+
170.0401	86	C11H5FN+
170.06	13	C11H8NO+
171.0358	22	C10H4FN2+
171.048	19	C11H6FN+
171.0552	1	C10H7N2O+
172.0306	23	C9H3FN3+
172.0371	2	C8H5F3N+
172.0556	1	C11H7FN+
173.051	5	C10H6FN2+
176.0305	4	C10H4F2N+
177.0446	19	C12H5N2+
178.0399	27	C11H4N3+
178.0525	5	C12H6N2+
179.0604	5	C12H7N2+
181.046	11	C10H7F2O+
182.0336	24	C10H5F3+
182.0412	32	C9H6F2NO+
183.0417	16	C10H6F3+
184.0368	5	C9H5F3N+
185.0443	1	C9H6F3N+
185.0711	22	C11H9N2O+
186.059	38	C11H7FN2+
187.0664	3	C11H8FN2+
188.0506	71	C11H7FNO+
189.0385	62	C11H5F2N+
189.046	6	C10H6FN2O+
190.0463	113	C11H6F2N+
191.0415	67	C10H5F2N2+
195.0554	33	C12H7N2O+
196.0436	12	C12H5FN2+
196.0633	16	C12H8N2O+
197.051	156	C12H6FN2+
198.0164	2	C9H3F3NO+
198.0462	20	C11H5FN3+
198.0592	9	C12H7FN2+
200.0308	5	C12H4F2N+
200.0579	5	C11H8N2O2+
202.0469	5	C12H6F2N+
206.0413	6	C11H6F2NO+
208.0368	5	C11H5F3N+
209.0452	8	C11H6F3N+
210.0368	1	C10H6F2NO2+
213.0658	2	C12H9N2O2+
215.0415	24	C12H5F2N2+
215.0619	2	C12H8FN2O+
216.0494	24	C12H6F2N2+
217.0573	182	C12H7F2N2+
218.0406	8	C12H6F2NO+
225.046	15	C13H6FN2O+
227.0413	1	C13H5F2N2+
235.0479	21	C12H6F3N2+
236.0556	33	C12H7F3N2+
237.064	1	C12H8F3N2+
238.0472	1	C12H7F3NO+
245.052	9	C13H7F2N2O+
263.0424	1	C13H6F3N2O+
264.0505	1	C13H7F3N2O+
