Mass spectrum: Triflusulfuron-methyl; LC-ESI-QFT; MS2; CE: 15; R=35000; [M-H]-
Name: Triflusulfuron-methyl
Name: 2-[[4-(dimethylamino)-6-(2,2,2-trifluoroethoxy)-s-triazin-2-yl]carbamoylsulfamoyl]-3-methyl-benzoic acid methyl ester
Formula: C17H19F3N6O6S
Exact mass: 492.10389
SMILES: O=C(OC)c1cccc(c1S(=O)(=O)NC(=O)Nc2nc(nc(OCC(F)(F)F)n2)N(C)C)C
InChI: InChI=1S/C17H19F3N6O6S/c1-9-6-5-7-10(12(27)31-4)11(9)33(29,30)25-15(28)22-13-21-14(26(2)3)24-16(23-13)32-8-17(18,19)20/h5-7H,8H2,1-4H3,(H2,21,22,23,24,25,28)
Instrument: Q Exactive Orbitrap Thermo Scientific
Instrument type: LC-ESI-QFT
Ms type: MS2
Ion mode: NEGATIVE
Ionization: ESI
Fragmentation mode: HCD
Collision energy: 15 (nominal)
Resolution: 35000
Column name: XBridge C18 3.5um, 2.1x50mm, Waters
Retention time: 10.8 min
Base peak: 491.0971
Precursor m/z: 491.0966
Precursor type: [M-H]-
m/z	relative intensity	assigned
68.9955	1	CF3-
166.0733	1	C6H8N5O-
176.0575	1	C3H11FNO6-
196.0074	193	C8H6NO3S-
196.064	10	C7H7FN5O-
216.0703	11	C7H8F2N5O-
228.0337	12	
236.0764	999	C7H9F3N5O-
