Mass spectrum: Fenoxycarb; LC-ESI-ITFT; MS2; CE: 90%; R=30000; [M+H]+
Name: Fenoxycarb
Name: N-[2-(4-phenoxyphenoxy)ethyl]carbamic acid ethyl ester
Formula: C17H19NO4
Exact mass: 301.1314
SMILES: O=C(OCC)NCCOc2ccc(Oc1ccccc1)cc2
InChI: InChI=1S/C17H19NO4/c1-2-20-17(19)18-12-13-21-14-8-10-16(11-9-14)22-15-6-4-3-5-7-15/h3-11H,2,12-13H2,1H3,(H,18,19)
Instrument: LTQ Orbitrap XL Thermo Scientific
Instrument type: LC-ESI-ITFT
Ms type: MS2
Ion mode: POSITIVE
Ionization: ESI
Fragmentation mode: HCD
Collision energy: 90 % (nominal)
Resolution: 30000
Column name: XBridge C18 3.5um, 2.1x50mm, Waters
Retention time: 12.6 min
Base peak: 302.1394
Precursor m/z: 302.1387
Precursor type: [M+H]+
m/z	relative intensity	assigned
53.0386	2	C4H5+
65.0385	5	C5H5+
66.0464	9	C5H6+
70.0287	39	C3H4NO+
72.0807	2	C4H10N+
77.0386	26	C6H5+
79.0541	7	C6H7+
81.0334	3	C5H5O+
88.0393	999	C3H6NO2+
91.0542	25	C7H7+
92.0623	3	C7H8+
94.0413	28	C6H6O+
95.0489	3	C6H7O+
105.0335	14	C7H5O+
105.0446	13	C6H5N2+
107.0491	12	C7H7O+
109.0283	12	C6H5O2+
115.0542	43	C9H7+
116.0708	1	C5H10NO2+
118.0413	11	C8H6O+
119.0489	4	C8H7O+
120.0569	12	C8H8O+
128.062	19	C10H8+
129.0698	29	C10H9+
131.049	2	C9H7O+
134.0361	3	C8H6O2+
139.0542	2	C11H7+
141.0698	38	C11H9+
152.0621	8	C12H8+
155.0601	8	C10H7N2+
157.0647	17	C11H9O+
158.0725	7	C11H10O+
165.0698	11	C13H9+
166.0774	1	C13H10+
168.0569	6	C12H8O+
169.0644	3	C12H9O+
176.062	4	C14H8+
181.065	2	C13H9O+
185.0594	3	C12H9O2+
186.0673	18	C12H10O2+
197.0595	1	C13H9O2+
213.0548	2	C13H9O3+
