Mass spectrum: Propaquizafop; LC-ESI-ITFT; MS2; CE: 30%; R=15000; [M+H]+
Name: Propaquizafop
Name: 2-(propan-2-ylideneamino)oxyethyl 2-[4-(6-chloranylquinoxalin-2-yl)oxyphenoxy]propanoate
Formula: C22H22ClN3O5
Exact mass: 443.1242
SMILES: CC(C(=O)OCCON=C(C)C)OC1=CC=C(C=C1)OC2=CN=C3C=C(C=CC3=N2)Cl
InChI: InChI=1S/C22H22ClN3O5/c1-14(2)26-29-11-10-28-22(27)15(3)30-17-5-7-18(8-6-17)31-21-13-24-20-12-16(23)4-9-19(20)25-21/h4-9,12-13,15H,10-11H2,1-3H3
Instrument: LTQ Orbitrap XL Thermo Scientific
Instrument type: LC-ESI-ITFT
Ms type: MS2
Ion mode: POSITIVE
Ionization: ESI
Fragmentation mode: HCD
Collision energy: 30 % (nominal)
Resolution: 15000
Column name: XBridge C18 3.5um, 2.1x50mm, Waters
Retention time: 15.0 min
Base peak: 466.114
Precursor m/z: 444.1321
Precursor type: [M+H]+
m/z	relative intensity	assigned
56.0494	194	C3H6N+
70.0651	131	C4H8N+
91.0542	9	C7H7+
99.044	23	C5H7O2+
100.0518	52	C5H8O2+
100.0757	999	C5H10NO+
118.0863	18	C5H12NO2+
119.0492	6	C8H7O+
144.1015	16	C7H14NO2+
191.0704	25	C11H11O3+
192.0781	15	C11H12O3+
243.0317	12	C16H5NO2+
243.0684	7	C14H12ClN2+
271.063	43	C15H12ClN2O+
283.0633	10	C16H12ClN2O+
299.0579	634	C19H9NO3+
327.0527	157	C20H9NO4+
371.0788	162	C22H13NO5+
