Mass spectrum: Thifensulfuron-methyl; LC-ESI-ITFT; MS2; CE: 15%; R=7500; [M-H]-
Name: Thifensulfuron-methyl
Name: 3-[(4-methoxy-6-methyl-s-triazin-2-yl)carbamoylsulfamoyl]thiophene-2-carboxylic acid methyl ester
Formula: C12H13N5O6S2
Exact mass: 387.0307
SMILES: COC(=O)C1=C(C=CS1)S(=O)(=O)NC(=O)NC1=NC(C)=NC(OC)=N1
InChI: InChI=1S/C12H13N5O6S2/c1-6-13-10(16-12(14-6)23-3)15-11(19)17-25(20,21)7-4-5-24-8(7)9(18)22-2/h4-5H,1-3H3,(H2,13,14,15,16,17,19)
Instrument: LTQ Orbitrap XL Thermo Scientific
Instrument type: LC-ESI-ITFT
Ms type: MS2
Ion mode: NEGATIVE
Ionization: ESI
Fragmentation mode: HCD
Collision energy: 15 % (nominal)
Resolution: 7500
Column name: XBridge C18 3.5um, 2.1x50mm, Waters
Retention time: 6.9 min
Base peak: 386.0229
Precursor m/z: 386.0234
Precursor type: [M-H]-
m/z	relative intensity	assigned
139.0628	999	C5H7N4O-
187.9486	24	C5H2NO3S2-
219.9746	56	C6H6NO4S2-
245.9536	25	C7H4NO5S2-
386.024	170	C12H12N5O6S2-
