Mass spectrum: Dimefuron; LC-ESI-QFT; MS2; CE: 60; R=35000; [M+H]+
Name: Dimefuron
Name: 3-[4-(5-tert-butyl-2-keto-1,3,4-oxadiazol-3-yl)-3-chloro-phenyl]-1,1-dimethyl-urea
Formula: C15H19ClN4O3
Exact mass: 338.11457
SMILES: O=C2O\C(=N/N2c1c(Cl)cc(NC(=O)N(C)C)cc1)C(C)(C)C
InChI: InChI=1S/C15H19ClN4O3/c1-15(2,3)12-18-20(14(22)23-12)11-7-6-9(8-10(11)16)17-13(21)19(4)5/h6-8H,1-5H3,(H,17,21)
Instrument: Q Exactive Orbitrap Thermo Scientific
Instrument type: LC-ESI-QFT
Ms type: MS2
Ion mode: POSITIVE
Ionization: ESI
Fragmentation mode: HCD
Collision energy: 60 (nominal)
Resolution: 35000
Column name: XBridge C18 3.5um, 2.1x50mm, Waters
Retention time: 9.8 min
Base peak: 339.122
Precursor m/z: 339.1218
Precursor type: [M+H]+
m/z	relative intensity	assigned
56.0132	1	C2H2NO+
71.0604	5	C3H7N2+
72.0443	999	C3H6NO+
76.018	1	C5H2N+
105.0447	3	C6H5N2+
111.9948	4	C5H3ClN+
114.0104	2	C5H5ClN+
123.9947	2	C6H3ClN+
130.0054	1	C5H5ClNO+
131.0239	2	C7H3N2O+
132.0318	3	C7H4N2O+
139.0057	16	C6H4ClN2+
139.9896	91	C6H3ClNO+
142.0054	1	C6H5ClNO+
166.0167	5	C7H5ClN3+
167.0006	228	C7H4ClN2O+
176.0215	5	C8H4N2O3+
176.0817	6	C9H10N3O+
177.0896	1	C9H11N3O+
194.0923	1	C9H12N3O2+
