Mass spectrum: N-Nitrosomethylaniline; LC-ESI-QFT; MS2; CE: 45; R=70000; [M+H]+
Name: N-Nitrosomethylaniline
Name: N-methyl-N-phenylnitrous amide
Formula: C7H8N2O
Exact mass: 136.06366
SMILES: O=NN(c1ccccc1)C
InChI: InChI=1S/C7H8N2O/c1-9(8-10)7-5-3-2-4-6-7/h2-6H,1H3
Instrument: Q Exactive Plus Orbitrap Thermo Scientific
Instrument type: LC-ESI-QFT
Ms type: MS2
Ion mode: POSITIVE
Ionization: ESI
Fragmentation mode: HCD
Collision energy: 45 (nominal)
Resolution: 70000
Column name: XBridge C18 3.5um, 2.1x50mm, Waters
Retention time: 6.4 min
Base peak: 137.071
Precursor m/z: 137.0709
Precursor type: [M+H]+
m/z	relative intensity	assigned
53.0386	3	C4H5+
59.024	8	CH3N2O+
65.0387	3	C5H5+
66.0464	980	C5H6+
77.0384	4	C6H5+
80.062	20	C6H8+
92.0494	1	C6H6N+
93.0699	1	C7H9+
95.0492	28	C6H7O+
105.0447	9	C6H5N2+
106.0651	11	C7H8N+
107.0729	999	C7H9N+
137.071	503	C7H9N2O+
