Mass spectrum: Cyanazine; LC-ESI-ITFT; MS2; CE: 90%; R=30000; [M+H]+
Name: Cyanazine
Name: 2-[[4-chloranyl-6-(ethylamino)-1,3,5-triazin-2-yl]amino]-2-methyl-propanenitrile
Formula: C9H13ClN6
Exact mass: 240.0890
SMILES: CCNC1=NC(=NC(=N1)Cl)NC(C)(C)C#N
InChI: InChI=1S/C9H13ClN6/c1-4-12-7-13-6(10)14-8(15-7)16-9(2,3)5-11/h4H2,1-3H3,(H2,12,13,14,15,16)
Instrument: LTQ Orbitrap XL Thermo Scientific
Instrument type: LC-ESI-ITFT
Ms type: MS2
Ion mode: POSITIVE
Ionization: ESI
Fragmentation mode: HCD
Collision energy: 90 % (nominal)
Resolution: 30000
Column name: XBridge C18 3.5um, 2.1x50mm, Waters
Retention time: 6.6 min
Base peak: 241.0971
Precursor m/z: 241.0963
Precursor type: [M+H]+
m/z	relative intensity	assigned
58.0651	24	C3H8N+
61.9792	98	CHClN+
67.0291	15	C3H3N2+
68.0243	900	C2H2N3+
71.0604	331	C3H7N2+
79.0058	168	CH4ClN2+
83.0604	278	C4H7N2+
85.076	8	C4H9N2+
90.0105	21	C3H5ClN+
95.0604	5	C5H7N2+
96.0556	268	C4H6N3+
104.001	999	C2H3ClN3+
108.0556	35	C5H6N3+
110.0461	25	C3H4N5+
110.0712	32	C5H8N3+
111.0789	7	C5H9N3+
119.037	40	C4H8ClN2+
132.0323	162	C4H7ClN3+
136.0868	46	C7H10N3+
138.0774	21	C5H8N5+
144.032	9	C5H7ClN3+
146.0227	78	C3H5ClN5+
150.0774	9	C6H8N5+
173.0587	9	C6H10ClN4+
174.054	45	C5H9ClN5+
177.0885	4	C7H9N6+
186.0541	9	C6H9ClN5+
214.0851	49	C8H13ClN5+
