Mass spectrum: Propetamphos; LC-ESI-QFT; MS2; CE: 150%; R=17500; [M+H]+
Name: Propetamphos
Name: 1-Methylethyl 3-[[(ethylamino)methoxyphosphinothioyl]oxy]-2-butenoate
Name: propan-2-yl 3-[ethylamino(methoxy)phosphinothioyl]oxybut-2-enoate
Formula: C10H20NO4PS
Exact mass: 281.0851
SMILES: CCNP(=S)(OC)OC(=CC(=O)OC(C)C)C
InChI: InChI=1S/C10H20NO4PS/c1-6-11-16(17,13-5)15-9(4)7-10(12)14-8(2)3/h7-8H,6H2,1-5H3,(H,11,17)
Instrument: Exploris 240 Orbitrap Thermo Scientific
Instrument type: LC-ESI-QFT
Ms type: MS2
Ion mode: POSITIVE
Ionization: ESI
Fragmentation mode: HCD
Collision energy: 150 % (nominal)
Resolution: 17500
Column name: XBridge C18 3.5um, 2.1x50mm, Waters
Retention time: 9.418 min
Base peak: 341.072
Precursor m/z: 282.0923
Precursor type: [M+H]+
m/z	relative intensity	assigned
62.9453	33	PS+
63.0137	33	CH5NS+
63.9947	999	H3NOP+
64.9788	41	H2O2P+
67.0182	85	H6NOP+
78.0105	37	CH5NOP+
78.9405	39	OPS+
91.9717	36	CH3NPS+
94.0055	47	CH5NO2P+
95.9669	96	H3NOPS+
109.9828	47	CH5NOPS+
112.0162	30	CH7NO3P+
