Mass spectrum: Demeton-S-Methyl Sulfone; LC-ESI-QFT; MS2; CE: 45%; R=17500; [M+H]+
Name: Demeton-S-Methyl Sulfone
Name: Demeton-S-methylsulphon
Name: 1-dimethoxyphosphorylsulfanyl-2-ethylsulfonylethane
Formula: C6H15O5PS2
Exact mass: 262.0099
SMILES: CCS(=O)(=O)CCSP(=O)(OC)OC
InChI: InChI=1S/C6H15O5PS2/c1-4-14(8,9)6-5-13-12(7,10-2)11-3/h4-6H2,1-3H3
Instrument: Exploris 240 Orbitrap Thermo Scientific
Instrument type: LC-ESI-QFT
Ms type: MS2
Ion mode: POSITIVE
Ionization: ESI
Fragmentation mode: HCD
Collision energy: 45 % (nominal)
Resolution: 17500
Column name: XBridge C18 3.5um, 2.1x50mm, Waters
Retention time: 2.945 min
Base peak: 263.0169
Precursor m/z: 263.0171
Precursor type: [M+H]+
m/z	relative intensity	assigned
61.0104	7	C2H5S+
77.0056	12	C2H5OS+
93.0002	41	C2H5O2S+
108.9778	20	C2H5OS2+
109.0048	195	C2H6O3P+
110.9659	24	CH4O2PS+
121.0318	321	C4H9O2S+
124.982	405	C2H6O2PS+
127.0154	389	C2H8O4P+
128.9765	11	CH6O3PS+
137.0093	25	C4H9OS2+
142.9926	184	C2H8O3PS+
152.9768	26	C3H6O3PS+
154.9925	17	C3H8O3PS+
169.0082	999	C4H10O3PS+
170.9871	10	C3H8O4PS+
184.949	21	C3H6O3PS2+
230.9912	41	C5H12O4PS2+
263.0179	21	C6H16O5PS2+
