Mass spectrum: Trinexapac; LC-ESI-ITFT; MS2; CE: 90%; R=7500; [M+H]+
Name: Trinexapac
Name: 4-[Cyclopropyl(hydroxy)methylene]-3,5-dioxocyclohexanecarboxylic acid
Formula: C11H12O5
Exact mass: 224.0685
SMILES: C(C1)C1C(O)=C(C(=O)CC2C(=O)O)C(=O)C2
InChI: InChI=1S/C11H12O5/c12-7-3-6(11(15)16)4-8(13)9(7)10(14)5-1-2-5/h5-6,14H,1-4H2,(H,15,16)/b10-9-
Instrument: LTQ Orbitrap XL Thermo Scientific
Instrument type: LC-ESI-ITFT
Ms type: MS2
Ion mode: POSITIVE
Ionization: ESI
Fragmentation mode: HCD
Collision energy: 90 % (nominal)
Resolution: 7500
Column name: XBridge C18 3.5um, 2.1x50mm, Waters
Retention time: 6.9 min
Base peak: 225.0758
Precursor m/z: 225.0757
Precursor type: [M+H]+
m/z	relative intensity	assigned
53.0022	17	C3HO+
53.0385	14	C4H5+
55.018	7	C3H3O+
65.0386	46	C5H5+
67.0179	20	C4H3O+
67.0543	10	C5H7+
68.9971	643	C3HO2+
69.0335	723	C4H5O+
71.0127	281	C3H3O2+
77.0387	18	C6H5+
79.0543	34	C6H7+
81.0335	150	C5H5O+
81.0699	10	C6H9+
83.0491	75	C5H7O+
85.0284	999	C4H5O2+
91.0541	35	C7H7+
93.0334	32	C6H5O+
95.0128	373	C5H3O2+
95.0492	23	C6H7O+
97.0285	46	C5H5O2+
99.0076	664	C4H3O3+
103.054	16	C8H7+
105.045	8	C6H5N2+
105.0699	48	C8H9+
107.0491	140	C7H7O+
109.0283	69	C6H5O2+
111.044	602	C6H7O2+
113.0233	185	C5H5O3+
115.0547	16	C9H7+
119.0491	8	C8H7O+
121.0281	8	C7H5O2+
121.0396	17	C6H5N2O+
123.0077	342	C6H3O3+
123.044	17	C7H7O2+
133.065	25	C9H9O+
137.0234	133	C7H5O3+
155.0341	25	C7H7O4+
161.0593	12	C10H9O2+
