Mass spectrum: Chlorthal-dimethyl; LC-ESI-QFT; MS2; CE: 120; R=35000; [M+H]+
Name: Chlorthal-dimethyl
Name: Dimethyl 2,3,5,6-tetrachloroterephthalate
Name: Dimethyl 2,3,5,6-tetrachlorobenzene-1,4-dicarboxylate
Formula: C10H6Cl4O4
Exact mass: 329.90202
SMILES: COC(=O)C1=C(C(=C(C(=C1Cl)Cl)C(=O)OC)Cl)Cl
InChI: InChI=1S/C10H6Cl4O4/c1-17-9(15)3-5(11)7(13)4(10(16)18-2)8(14)6(3)12/h1-2H3
Instrument: Q Exactive Plus Orbitrap Thermo Scientific
Instrument type: LC-ESI-QFT
Ms type: MS2
Ion mode: POSITIVE
Ionization: ESI
Fragmentation mode: HCD
Collision energy: 120 (nominal)
Resolution: 35000
Column name: XBridge C18 3.5um, 2.1x50mm, Waters
Retention time: 13.4 min
Base peak: 245.1745
Precursor m/z: 330.9093
Precursor type: [M+H]+
m/z	relative intensity	assigned
53.0022	2	C3HO+
53.0387	1	C4H5+
55.0543	5	C4H7+
62.9631	3	CClO+
65.0386	3	C5H5+
67.0543	3	C5H7+
72.9839	1	C3H2Cl+
74.0152	1	C6H2+
79.0543	4	C6H7+
80.9736	3	CH2ClO2+
82.945	2	CHCl2+
86.9633	3	C3ClO+
91.0543	8	C7H7+
94.9684	1	C5Cl+
95.0492	3	C6H7O+
96.9842	1	C5H2Cl+
98.9843	999	CH4ClO3+
105.0448	3	C6H5N2+
106.9451	4	C3HCl2+
107.9762	3	C6HCl+
108.9839	6	C6H2Cl+
110.9633	2	C5ClO+
115.0545	2	C9H7+
117.9374	2	C4Cl2+
129.9373	42	C5Cl2+
130.9452	7	C5HCl2+
140.906	4	C3Cl3+
141.9373	31	C6Cl2+
142.9451	9	C6HCl2+
152.906	5	C4Cl3+
156.9608	9	C7H3Cl2+
164.9062	217	C5Cl3+
166.9217	2	C5H2Cl3+
172.9669	3	C6H3Cl2N2+
174.9351	2	C6HCl2O2+
176.9061	8	C6Cl3+
177.9139	10	C6HCl3+
179.9296	1	C6H3Cl3+
220.8958	6	C7Cl3O2+
227.8696	1	C6Cl4O+
240.8891	1	C6HCl4N2+
