Mass spectrum: 8phiC8SPC; LC-ESI-QFT; MS2; CE: 150; R=35000; [M+H]+
Name: 8phiC8SPC
Name: Octacarboxy sulfophenyl carboxylic acid
Name: 8-(4-sulfophenyl)octanoic acid
Formula: C14H20O5S
Exact mass: 300.10314
SMILES: OS(=O)(=O)c1ccc(CCCCCCCC(=O)O)cc1
InChI: InChI=1S/C14H20O5S/c15-14(16)7-5-3-1-2-4-6-12-8-10-13(11-9-12)20(17,18)19/h8-11H,1-7H2,(H,15,16)(H,17,18,19)
Instrument: Q Exactive Plus Orbitrap Thermo Scientific
Instrument type: LC-ESI-QFT
Ms type: MS2
Ion mode: POSITIVE
Ionization: ESI
Fragmentation mode: HCD
Collision energy: 150 (nominal)
Resolution: 35000
Column name: XBridge C18 3.5um, 2.1x50mm, Waters
Retention time: 7.9 min
Base peak: 315.1259
Precursor m/z: 301.1104
Precursor type: [M+H]+
m/z	relative intensity	assigned
50.0151	187	C4H2+
51.023	571	C4H3+
52.0308	14	C4H4+
53.0022	25	C3HO+
53.0386	311	C4H5+
55.0179	102	C3H3O+
55.0543	12	C4H7+
62.0151	8	C5H2+
63.0229	105	C5H3+
64.0307	17	C5H4+
65.0022	15	C4HO+
65.0386	237	C5H5+
66.0465	10	C5H6+
67.0179	2	C4H3O+
67.0543	8	C5H7+
68.9794	8	C3HS+
74.015	4	C6H2+
75.0229	11	C6H3+
76.0307	17	C6H4+
77.0385	421	C6H5+
78.0464	550	C6H6+
79.0178	3	C5H3O+
79.0542	75	C6H7+
81.0335	64	C5H5O+
89.0386	320	C7H5+
90.0464	52	C7H6+
91.0542	540	C7H7+
94.0413	16	C6H6O+
95.0492	999	C6H7O+
102.0464	46	C8H6+
103.0542	366	C8H7+
104.062	45	C8H8+
105.0448	511	C6H5N2+
107.0491	87	C7H7O+
109.0107	4	C6H5S+
115.0542	463	C9H7+
116.0619	24	C9H8+
117.0699	65	C9H9+
121.0106	5	C7H5S+
127.0541	8	C10H7+
128.062	73	C10H8+
129.07	11	C10H9+
131.049	4	C9H7O+
134.0185	15	C8H6S+
141.0699	8	C11H9+
145.0648	4	C10H9O+
147.0263	9	C9H7S+
152.0621	4	C12H8+
155.0606	15	C10H7N2+
165.0699	3	C13H9+
184.0339	3	C12H8S+
