Mass spectrum: Sulfadiazine; LC-ESI-ITFT; MS2; CE: 35%; R=30000; [M+H]+
Name: Sulfadiazine
Name: 4-amino-N-(2-pyrimidinyl)benzenesulfonamide
Formula: C10H10N4O2S
Exact mass: 250.0524
SMILES: NC1=CC=C(C=C1)S(=O)(=O)NC2=NC=CC=N2
InChI: InChI=1S/C10H10N4O2S/c11-8-2-4-9(5-3-8)17(15,16)14-10-12-6-1-7-13-10/h1-7H,11H2,(H,12,13,14)
Instrument: LTQ Orbitrap XL Thermo Scientific
Instrument type: LC-ESI-ITFT
Ms type: MS2
Ion mode: POSITIVE
Ionization: ESI
Fragmentation mode: CID
Collision energy: 35 % (nominal)
Resolution: 30000
Column name: XBridge C18 3.5um, 2.1x50mm, Waters
Retention time: 2.2 min
Base peak: 251.0602
Precursor m/z: 251.0597
Precursor type: [M+H]+
m/z	relative intensity	assigned
92.0494	109	C6H6N+
94.0651	62	C6H8N+
96.0556	20	C4H6N3+
108.0444	120	C6H6NO+
156.0114	999	C6H6NO2S+
158.0018	80	C4H4N3O2S+
174.0218	25	C6H8NO3S+
185.082	19	C10H9N4+
233.049	43	C10H9N4OS+
251.0597	11	C10H11N4O2S+
