Mass spectrum: Cefazolin; LC-ESI-QFT; MS2; CE: 15; R=35000; [M-H]-
Name: Cefazolin
Name: 3-[(5-methyl-1,3,4-thiadiazol-2-yl)sulfanylmethyl]-8-oxo-7-[[2-(tetrazol-1-yl)acetyl]amino]-5-thia-1-azabicyclo[4.2.0]oct-2-ene-2-carboxylic acid
Formula: C14H14N8O4S3
Exact mass: 454.03001
SMILES: CC1=NN=C(S1)SCC2=C(N3C(C(C3=O)NC(=O)CN4C=NN=N4)SC2)C(=O)O
InChI: InChI=1S/C14H14N8O4S3/c1-6-17-18-14(29-6)28-4-7-3-27-12-9(11(24)22(12)10(7)13(25)26)16-8(23)2-21-5-15-19-20-21/h5,9,12H,2-4H2,1H3,(H,16,23)(H,25,26)
Instrument: Q Exactive Plus Orbitrap Thermo Scientific
Instrument type: LC-ESI-QFT
Ms type: MS2
Ion mode: NEGATIVE
Ionization: ESI
Fragmentation mode: HCD
Collision energy: 15 (nominal)
Resolution: 35000
Column name: XBridge C18 3.5um, 2.1x50mm, Waters
Retention time: 4.4 min
Base peak: 321.0411
Precursor m/z: 453.0227
Precursor type: [M-H]-
m/z	relative intensity	assigned
57.9757	29	CNS-
69.0208	846	CHN4-
98.036	16	C3H4N3O-
108.0318	13	C3H2N5-
109.0158	14	C3HN4O-
126.0425	20	C3H4N5O-
127.0086	114	C3H3N4S-
127.0263	38	C3H3N4O2-
130.9745	166	C3H3N2S2-
137.0181	4	C6H5N2S-
143.0034	165	C3H3N4OS-
144.057	4	C8H6N3-
150.0021	4	C7H4NOS-
151.0338	11	C7H7N2S-
156.0128	25	C6H6NO2S-
163.034	23	C2H13NO3S2-
165.0128	12	C7H5N2OS-
167.0287	999	C7H7N2OS-
168.0126	48	C7H6NO2S-
174.0432	7	C9H6N2O2-
178.0448	31	C8H8N3S-
179.0285	5	C8H7N2OS-
184.03	93	C5H6N5OS-
207.0236	300	C9H7N2O2S-
234.046	33	C9H8N5OS-
243.0636	31	C10H7N6O2-
251.0135	480	C10H7N2O4S-
277.0515	127	
