Mass spectrum: Dexamethasone; LC-ESI-ITFT; MS2; CE: 15%; R=7500; [M+H]+
Name: Dexamethasone
Name: (8S,9R,10S,11S,13S,14S,16R,17R)-9-fluoranyl-10,13,16-trimethyl-11,17-bis(oxidanyl)-17-(2-oxidanylethanoyl)-6,7,8,11,12,14,15,16-octahydrocyclopenta[a]phenanthren-3-one
Formula: C22H29FO5
Exact mass: 392.1999
SMILES: [H][C@@]12C[C@@H](C)[C@](O)(C(=O)CO)[C@@]1(C)C[C@H](O)[C@@]3(F)[C@@]2([H])CCC4=CC(=O)C=C[C@]34C
InChI: InChI=1S/C22H29FO5/c1-12-8-16-15-5-4-13-9-14(25)6-7-19(13,2)21(15,23)17(26)10-20(16,3)22(12,28)18(27)11-24/h6-7,9,12,15-17,24,26,28H,4-5,8,10-11H2,1-3H3/t12-,15+,16+,17+,19+,20+,21+,22+/m1/s1
Instrument: LTQ Orbitrap XL Thermo Scientific
Instrument type: LC-ESI-ITFT
Ms type: MS2
Ion mode: POSITIVE
Ionization: ESI
Fragmentation mode: HCD
Collision energy: 15 % (nominal)
Resolution: 7500
Column name: XBridge C18 3.5um, 2.1x50mm, Waters
Retention time: 9.5 min
Base peak: 393.2068
Precursor m/z: 393.2072
Precursor type: [M+H]+
m/z	relative intensity	assigned
107.0852	12	C8H11+
135.0798	7	C9H11O+
147.0805	39	C10H11O+
149.0956	9	C10H13O+
171.081	8	C12H11O+
173.0959	10	C12H13O+
177.0909	22	C11H13O2+
185.0962	21	C13H13O+
235.111	9	C17H15O+
237.1275	86	C17H17O+
239.1427	15	C17H19O+
253.1224	16	C17H17O2+
255.1381	9	C17H19O2+
261.1256	8	C11H18FN2O4+
263.1428	8	C19H19O+
267.1393	14	C18H19O2+
267.175	19	C19H23O+
275.1438	23	C20H19O+
277.1582	39	C20H21O+
279.1745	70	C20H23O+
289.1594	16	C21H21O+
291.1742	77	C21H23O+
295.1699	19	C20H23O2+
297.1845	26	C20H25O2+
301.1586	34	C22H21O+
307.169	47	C21H23O2+
309.1854	106	C21H25O2+
319.1693	164	C22H23O2+
325.1791	58	C21H25O3+
327.1959	39	C21H27O3+
337.1802	256	C22H25O3+
343.1898	14	C21H27O4+
355.1904	608	C22H27O4+
373.2009	999	C22H29O5+
393.209	158	C22H30FO5+
