Mass spectrum: Carbaryl; LC-ESI-QFT; MS2; CE: 75; R=35000; [M-H]-
Name: Carbaryl
Name: Carbaril
Name: N-methylcarbamic acid 1-naphthalenyl ester
Formula: C12H11NO2
Exact mass: 201.07898
SMILES: c12c(OC(NC)=O)cccc1cccc2
InChI: InChI=1S/C12H11NO2/c1-13-12(14)15-11-8-4-6-9-5-2-3-7-10(9)11/h2-8H,1H3,(H,13,14)
Instrument: Q Exactive Orbitrap Thermo Scientific
Instrument type: LC-ESI-QFT
Ms type: MS2
Ion mode: NEGATIVE
Ionization: ESI
Fragmentation mode: HCD
Collision energy: 75 (nominal)
Resolution: 35000
Column name: XBridge C18 3.5um, 2.1x50mm, Waters
Retention time: 5.4 min
Base peak: 218.0311
Precursor m/z: 200.0717
Precursor type: [M-H]-
m/z	relative intensity	assigned
115.0553	16	C9H7-
143.0502	999	C10H7O-
145.0291	2	C9H5O2-
168.0455	25	C11H6NO-
182.0613	4	C12H8NO-
