Mass spectrum: Dinoterb; LC-ESI-QFT; MS2; CE: 60; R=35000; [M-H]-
Name: Dinoterb
Name: 2-tert-butyl-4,6-dinitro-phenol
Name: Phenol, 2-(1,1-dimethylethyl)-4,6-dinitro-
Formula: C10H12N2O5
Exact mass: 240.07462
SMILES: [O-][N+](=O)c1cc(cc(c1O)C(C)(C)C)[N+]([O-])=O
InChI: InChI=1S/C10H12N2O5/c1-10(2,3)7-4-6(11(14)15)5-8(9(7)13)12(16)17/h4-5,13H,1-3H3
Instrument: Q Exactive Orbitrap Thermo Scientific
Instrument type: LC-ESI-QFT
Ms type: MS2
Ion mode: NEGATIVE
Ionization: ESI
Fragmentation mode: HCD
Collision energy: 60 (nominal)
Resolution: 35000
Column name: XBridge C18 3.5um, 2.1x50mm, Waters
Retention time: 13.3 min
Base peak: 239.0675
Precursor m/z: 239.0673
Precursor type: [M-H]-
m/z	relative intensity	assigned
91.0555	3	C7H7-
95.014	1	C5H3O2-
107.0867	31	C8H11-
109.0295	1	C6H5O2-
123.009	4	C6H3O3-
123.0327	38	C6H5NO2-
135.0817	3	C9H11O-
136.053	9	C8H8O2-
148.0403	5	C8H6NO2-
149.0482	9	C8H7NO2-
150.056	41	C8H8NO2-
151.0275	25	C7H5NO3-
151.0764	113	C9H11O2-
153.0068	4	C6H3NO4-
162.0197	4	C8H4NO3-
164.0356	3	C8H6NO3-
164.0483	1	C9H8O3-
164.0718	33	C9H10NO2-
165.0794	1	C9H11NO2-
166.0145	6	C7H4NO4-
166.051	14	C8H8NO3-
167.0225	1	C7H5NO4-
176.0351	36	C9H6NO3-
177.0431	45	C9H7NO3-
178.051	49	C9H8NO3-
179.0714	100	C10H11O3-
181.0746	1	C9H11NO3-
192.0667	6	C10H10NO3-
193.0743	28	C10H11NO3-
194.0458	69	C9H8NO4-
206.0334	3	C9H6N2O4-
207.0411	999	C9H7N2O4-
208.0615	42	C10H10NO4-
209.0693	83	C10H11NO4-
223.036	7	C9H7N2O5-
224.0439	46	C9H8N2O5-
239.0674	813	C10H11N2O5-
