Mass spectrum: 2-(3-Hydroxycyclohexyl)-5-(2-methyl-2-octanyl)phenol; LC-ESI-QFT; MS2; CE: 120; R=35000; [M-H]-
Name: 2-(3-Hydroxycyclohexyl)-5-(2-methyl-2-octanyl)phenol
Name: CP47.497
Name: 2-(3-hydroxycyclohexyl)-5-(2-methyloctan-2-yl)phenol
Formula: C21H34O2
Exact mass: 318.25588
SMILES: CCCCCCC(C)(C)C1=CC(=C(C=C1)C2CCCC(C2)O)O
InChI: InChI=1S/C21H34O2/c1-4-5-6-7-13-21(2,3)17-11-12-19(20(23)15-17)16-9-8-10-18(22)14-16/h11-12,15-16,18,22-23H,4-10,13-14H2,1-3H3
Instrument: Q Exactive Plus Orbitrap Thermo Scientific
Instrument type: LC-ESI-QFT
Ms type: MS2
Ion mode: NEGATIVE
Ionization: ESI
Fragmentation mode: HCD
Collision energy: 120 (nominal)
Resolution: 35000
Column name: XBridge C18 3.5um, 2.1x50mm, Waters
Retention time: 17.0 min
Base peak: 363.2538
Precursor m/z: 317.2486
Precursor type: [M-H]-
m/z	relative intensity	assigned
57.0346	17	C3H5O-
65.0396	11	C5H5-
67.019	1	C4H3O-
69.0346	1	C4H5O-
83.0503	7	C5H7O-
91.0554	1	C7H7-
106.0423	2	C7H6O-
115.0552	1	C9H7-
117.0345	2	C8H5O-
119.0502	2	C8H7O-
121.0294	3	C7H5O2-
131.0865	4	C10H11-
133.0659	62	C9H9O-
134.0375	1	C8H6O2-
143.0502	32	C10H7O-
144.0584	1	C10H8O-
145.0658	19	C10H9O-
146.0737	37	C10H10O-
147.0813	4	C10H11O-
155.0865	2	C12H11-
157.0658	18	C11H9O-
158.0737	2	C11H10O-
159.0815	999	C11H11O-
161.0975	2	C11H13O-
169.0657	3	C12H9O-
170.0736	21	C12H10O-
171.0816	8	C12H11O-
173.097	8	C12H13O-
175.1129	5	C12H15O-
177.0557	2	C10H9O3-
178.0637	5	C10H10O3-
183.0815	65	C13H11O-
184.0892	2	C13H12O-
185.0971	240	C13H13O-
187.113	3	C13H15O-
199.1129	1	C14H15O-
209.0972	19	C15H13O-
213.1285	9	C15H17O-
227.1077	1	C15H15O2-
229.16	1	C16H21O-
245.1911	1	C17H25O-
