Mass spectrum: Cortisone; LC-ESI-QFT; MS2; CE: 45; R=35000; [M+H]+
Name: Cortisone
Name: 17,21-Dihydroxypregn-4-ene-3,11,20-trione
Name: (8S,9S,10R,13S,14S,17R)-17-hydroxy-17-(2-hydroxyacetyl)-10,13-dimethyl-1,2,6,7,8,9,12,14,15,16-decahydrocyclopenta[a]phenanthrene-3,11-dione
Formula: C21H28O5
Exact mass: 360.19367
SMILES: O=C(CO)[C@@]3(O)CC[C@H]2[C@@H]4CC\C1=C\C(=O)CC[C@]1(C)[C@H]4C(=O)C[C@@]23C
InChI: InChI=1S/C21H28O5/c1-19-7-5-13(23)9-12(19)3-4-14-15-6-8-21(26,17(25)11-22)20(15,2)10-16(24)18(14)19/h9,14-15,18,22,26H,3-8,10-11H2,1-2H3/t14-,15-,18+,19-,20-,21-/m0/s1
Instrument: Q Exactive Plus Orbitrap Thermo Scientific
Instrument type: LC-ESI-QFT
Ms type: MS2
Ion mode: POSITIVE
Ionization: ESI
Fragmentation mode: HCD
Collision energy: 45 (nominal)
Resolution: 35000
Column name: XBridge C18 3.5um, 2.1x50mm, Waters
Retention time: 7.3 min
Base peak: 361.2008
Precursor m/z: 361.201
Precursor type: [M+H]+
m/z	relative intensity	assigned
53.0385	3	C4H5+
55.0178	12	C3H3O+
55.0542	11	C4H7+
57.0335	2	C3H5O+
57.0698	1	C4H9+
67.0542	16	C5H7+
69.0335	9	C4H5O+
69.0699	15	C5H9+
71.0491	7	C4H7O+
77.0384	3	C6H5+
79.0542	31	C6H7+
81.0335	12	C5H5O+
81.0699	62	C6H9+
83.0491	33	C5H7O+
85.0646	4	C5H9O+
91.0542	24	C7H7+
93.0699	112	C7H9+
95.0492	12	C6H7O+
95.0855	47	C7H11+
97.0648	90	C6H9O+
99.0441	4	C5H7O2+
99.0805	1	C6H11O+
101.0596	2	C5H9O2+
105.0699	151	C8H9+
107.0491	13	C7H7O+
107.0855	131	C8H11+
109.0648	23	C7H9O+
109.1012	8	C8H13+
111.044	3	C6H7O2+
111.0805	8	C7H11O+
115.0539	1	C9H7+
117.0699	23	C9H9+
119.0491	4	C8H7O+
119.0856	85	C9H11+
121.0648	269	C8H9O+
121.1012	68	C9H13+
123.0804	54	C8H11O+
125.0597	5	C7H9O2+
125.0961	2	C8H13O+
128.062	2	C10H8+
129.0699	12	C10H9+
130.0777	3	C10H10+
131.0856	48	C10H11+
133.0648	22	C9H9O+
133.1012	42	C10H13+
135.0805	85	C9H11O+
135.1168	76	C10H15+
137.0598	6	C8H9O2+
137.0961	12	C9H13O+
139.0754	47	C8H11O2+
141.0698	4	C11H9+
142.0774	2	C11H10+
143.0856	46	C11H11+
145.0649	16	C10H9O+
145.1012	162	C11H13+
147.0804	89	C10H11O+
147.1168	20	C11H15+
148.0883	8	C10H12O+
149.0598	3	C9H9O2+
149.0961	33	C10H13O+
151.0755	10	C9H11O2+
151.1117	2	C10H15O+
153.091	8	C9H13O2+
155.0856	21	C12H11+
156.0933	1	C12H12+
157.065	6	C11H9O+
157.1013	37	C12H13+
159.0805	45	C11H11O+
159.1169	26	C12H15+
161.0599	6	C10H9O2+
161.0961	74	C11H13O+
161.1326	6	C12H17+
162.1038	5	C11H14O+
163.1117	999	C11H15O+
165.0697	1	C13H9+
165.0909	8	C10H13O2+
165.1273	2	C11H17O+
167.0855	7	C13H11+
168.0934	2	C13H12+
169.1012	30	C13H13+
170.109	3	C13H14+
171.0805	27	C12H11O+
171.1168	40	C13H15+
173.0962	49	C12H13O+
173.1325	8	C13H17+
174.1042	1	C12H14O+
175.0754	5	C11H11O2+
175.1118	29	C12H15O+
177.0909	11	C11H13O2+
177.1272	2	C12H17O+
179.0702	1	C10H11O3+
179.0855	5	C14H11+
179.1065	9	C11H15O2+
180.0933	2	C14H12+
181.1011	27	C14H13+
182.1092	3	C14H14+
183.0806	7	C13H11O+
183.1169	44	C14H15+
184.0881	1	C13H12O+
184.1246	2	C14H16+
185.0961	28	C13H13O+
185.1324	17	C14H17+
187.0752	6	C12H11O2+
187.1118	29	C13H15O+
187.148	2	C14H19+
189.091	32	C12H13O2+
189.1274	28	C13H17O+
191.1065	10	C12H15O2+
193.1011	9	C15H13+
194.1086	1	C15H14+
195.0804	3	C14H11O+
195.1168	36	C15H15+
196.088	2	C14H12O+
196.1248	2	C15H16+
197.0961	15	C14H13O+
197.1325	35	C15H17+
198.1038	1	C14H14O+
199.1118	34	C14H15O+
199.1481	11	C15H19+
200.1197	1	C14H16O+
201.091	7	C13H13O2+
201.1273	18	C14H17O+
202.1351	2	C14H18O+
203.1066	10	C13H15O2+
203.1431	6	C14H19O+
205.1015	6	C16H13+
205.122	4	C13H17O2+
206.1088	5	C16H14+
207.102	6	C12H15O3+
207.1168	19	C16H15+
208.125	2	C16H16+
209.0962	10	C15H13O+
209.1325	28	C16H17+
210.104	2	C15H14O+
210.1404	1	C16H18+
211.1118	21	C15H15O+
211.1483	15	C16H19+
212.1194	1	C15H16O+
213.0912	2	C14H13O2+
213.1274	20	C15H17O+
213.1639	6	C16H21+
215.107	6	C14H15O2+
215.143	8	C15H19O+
217.1017	1	C17H13+
217.1224	7	C14H17O2+
218.1088	2	C17H14+
219.117	9	C17H15+
220.1247	1	C17H16+
221.0964	2	C16H13O+
221.1325	23	C17H17+
222.1039	2	C16H14O+
222.1402	3	C17H18+
223.1119	26	C16H15O+
223.1482	27	C17H19+
224.1197	2	C16H16O+
224.156	2	C17H20+
225.1274	36	C16H17O+
225.1638	19	C17H21+
226.1352	6	C16H18O+
227.1067	4	C15H15O2+
227.143	23	C16H19O+
229.1226	8	C15H17O2+
229.1587	4	C16H21O+
231.1166	2	C18H15+
231.1381	3	C15H19O2+
232.1249	5	C18H16+
233.1325	6	C18H17+
234.1038	1	C17H14O+
234.1403	2	C18H18+
235.1118	3	C17H15O+
235.1482	13	C18H19+
236.1196	2	C17H16O+
236.1559	1	C18H20+
237.1275	17	C17H17O+
237.1637	19	C18H21+
238.1353	2	C17H18O+
238.1717	2	C18H22+
239.1431	54	C17H19O+
239.1793	10	C18H23+
240.151	4	C17H20O+
241.1225	15	C16H17O2+
241.1587	63	C17H21O+
242.1666	21	C17H22O+
243.1379	13	C16H19O2+
243.1743	17	C17H23O+
245.1182	1	C15H17O3+
245.1323	2	C19H17+
245.1534	1	C16H21O2+
246.1404	1	C19H18+
247.148	15	C19H19+
248.1197	1	C18H16O+
249.1274	11	C18H17O+
249.1637	11	C19H21+
250.1352	1	C18H18O+
251.143	11	C18H19O+
251.1797	4	C19H23+
252.1506	3	C18H20O+
253.1224	2	C17H17O2+
253.1588	16	C18H21O+
254.1667	1	C18H22O+
255.1379	12	C17H19O2+
255.1744	25	C18H23O+
256.1821	18	C18H24O+
257.1536	20	C17H21O2+
257.1901	7	C18H25O+
258.1615	60	C17H22O2+
259.1339	1	C16H19O3+
261.1487	3	C16H21O3+
261.1637	5	C20H21+
263.1427	7	C19H19O+
264.1515	1	C19H20O+
265.1588	48	C19H21O+
266.1667	8	C19H22O+
267.1379	12	C18H19O2+
267.1744	43	C19H23O+
268.1456	2	C18H20O2+
269.1537	21	C18H21O2+
269.1899	4	C19H25O+
270.1611	1	C18H22O2+
271.1692	7	C18H23O2+
273.1495	1	C17H21O3+
274.1352	2	C20H18O+
277.159	7	C20H21O+
279.1375	2	C19H19O2+
279.1743	17	C20H23O+
281.1537	12	C19H21O2+
282.1618	1	C19H22O2+
283.1693	43	C19H23O2+
284.1772	51	C19H24O2+
285.1491	8	C18H21O3+
285.1849	16	C19H25O2+
287.1643	2	C18H23O3+
289.1589	7	C21H21O+
295.1694	11	C20H23O2+
297.1849	10	C20H25O2+
299.1643	56	C19H23O3+
300.1722	14	C19H24O3+
301.1799	32	C19H25O3+
303.1594	3	C18H23O4+
307.1694	12	C21H23O2+
313.18	11	C20H25O3+
315.1955	3	C20H27O3+
317.1743	4	C19H25O4+
325.1799	14	C21H25O3+
343.1902	12	C21H27O4+
361.2012	27	C21H29O5+
