Mass spectrum: Cefadroxil; LC-ESI-QFT; MS2; CE: 30; R=35000; [M-H]-
Name: Cefadroxil
Name: 7-[[2-azaniumyl-2-(4-hydroxyphenyl)acetyl]amino]-3-methyl-8-oxo-5-thia-1-azabicyclo[4.2.0]oct-2-ene-2-carboxylate
Formula: C16H17N3O5S
Exact mass: 363.08889
SMILES: CC1=C(N2C(C(C2=O)NC(=O)C(C3=CC=C(C=C3)O)N)SC1)C(=O)O
InChI: InChI=1S/C16H17N3O5S/c1-7-6-25-15-11(14(22)19(15)12(7)16(23)24)18-13(21)10(17)8-2-4-9(20)5-3-8/h2-5,10-11,15,20H,6,17H2,1H3,(H,18,21)(H,23,24)
Instrument: Q Exactive Plus Orbitrap Thermo Scientific
Instrument type: LC-ESI-QFT
Ms type: MS2
Ion mode: NEGATIVE
Ionization: ESI
Fragmentation mode: HCD
Collision energy: 30 (nominal)
Resolution: 35000
Column name: XBridge C18 3.5um, 2.1x50mm, Waters
Retention time: 2.3 min
Base peak: 362.0818
Precursor m/z: 362.0816
Precursor type: [M-H]-
m/z	relative intensity	assigned
57.9758	30	CNS-
60.9755	18	CHOS-
66.035	2	C4H4N-
67.0303	22	C3H3N2-
72.0093	27	C2H2NO2-
73.0119	7	C3H5S-
83.025	15	C3H3N2O-
84.0092	366	C3H2NO2-
86.0071	2	C3H4NS-
87.9862	3	C2H2NOS-
92.0507	11	C6H6N-
93.0347	204	C6H5O-
95.0252	22	C4H3N2O-
96.0457	7	C5H6NO-
96.9993	35	C4H3NS-
99.9863	24	C3H2NOS-
100.0228	10	C4H6NS-
100.0405	3	C4H6NO2-
102.0019	8	C3H4NOS-
105.046	12	C6H5N2-
107.0616	130	C6H7N2-
108.0457	2	C6H6NO-
109.041	3	C5H5N2O-
109.0772	39	C6H9N2-
111.0024	11	C4H3N2S-
111.0202	123	C4H3N2O2-
112.0228	233	C5H6NS-
112.0406	13	C5H6NO2-
117.0347	16	C8H5O-
117.046	79	C7H5N2-
118.0301	126	C7H4NO-
119.0504	114	C8H7O-
119.0616	268	C7H7N2-
120.0457	659	C7H6NO-
121.0299	2	C7H5O2-
123.0453	8	C7H7O2-
123.0564	2	C6H7N2O-
124.0228	27	C6H6NS-
124.0404	3	C6H6NO2-
126.0197	12	C5H4NO3-
126.0384	17	C6H8NS-
126.997	4	C4H3N2OS-
127.9813	10	C4H2NO2S-
128.0044	2	C4H4N2OS-
129.013	228	C4H5N2OS-
131.0377	24	C8H5NO-
132.0219	3	C8H4O2-
132.0456	52	C8H6NO-
132.0569	25	C7H6N3-
133.0297	50	C8H5O2-
134.0613	12	C8H8NO-
134.0726	21	C7H8N3-
135.0566	429	C7H7N2O-
136.0401	2	C7H6NO2-
137.0068	29	C7H5OS-
137.0721	12	C7H9N2O-
138.0311	53	C5H4N3O2-
139.0277	7	C6H5NO3-
140.0177	3	C6H6NOS-
140.0354	12	C6H6NO3-
142.0333	41	C6H8NOS-
144.0457	46	C9H6NO-
145.0411	3	C8H5N2O-
146.025	3	C8H4NO2-
146.0614	33	C9H8NO-
146.0727	8	C8H8N3-
147.0458	4	C9H7O2-
147.0566	20	C8H7N2O-
148.0407	56	C8H6NO2-
150.0562	16	C8H8NO2-
150.0675	31	C7H8N3O-
151.0226	3	C8H7OS-
151.0515	39	C7H7N2O2-
152.0178	22	C7H6NOS-
154.9924	132	C5H3N2O2S-
156.0128	64	C6H6NO2S-
158.0487	14	C9H6N2O-
159.0567	7	C9H7N2O-
160.0404	2	C9H6NO2-
160.0766	2	C10H10NO-
162.0147	20	C9H6OS-
162.0439	15	C2H12NO5S-
162.0566	2	C9H8NO2-
162.0677	20	C2H14N2O4S-
163.0516	181	C8H7N2O2-
164.0832	8	C8H10N3O-
165.0671	23	C8H9N2O2-
167.0288	10	C7H7N2OS-
168.0365	7	C7H8N2OS-
169.0443	72	C7H9N2OS-
170.0283	3	C7H8NO2S-
171.0567	44	C10H7N2O-
172.0406	25	C10H6NO2-
172.0644	2	C10H8N2O-
174.0436	2	C9H6N2O2-
175.0516	29	C9H7N2O2-
178.0625	21	C8H8N3O2-
181.0446	15	C8H9N2OS-
182.0282	34	C8H8NO2S-
185.0597	42	C10H7N3O-
187.0515	12	C10H7N2O2-
188.018	28	C10H6NOS-
188.0356	136	C10H6NO3-
189.0436	62	C10H7NO3-
189.0672	316	C10H9N2O2-
190.0625	41	C9H8N3O2-
191.0468	2	C9H7N2O3-
191.0705	4	C9H9N3O2-
196.0077	9	C8H6NO3S-
196.0319	2	C8H8N2O2S-
196.0551	3	C8H10N3OS-
197.0393	74	C8H9N2O2S-
197.0595	30	C11H7N3O-
198.0927	17	C13H12NO-
203.0464	11	C10H7N2O3-
204.0127	8	C10H6NO2S-
205.0621	999	C10H9N2O3-
206.0284	252	C10H8NO2S-
211.0879	4	C13H11N2O-
213.1037	54	C13H13N2O-
214.0879	10	C13H12NO2-
215.0465	119	C11H7N2O3-
216.054	19	C11H8N2O3-
217.0624	18	C11H9N2O3-
221.04	7	C10H9N2O2S-
223.055	90	C10H11N2O2S-
223.088	77	C14H11N2O-
224.0503	76	C9H10N3O2S-
224.0959	30	C14H12N2O-
227.0827	25	C13H11N2O2-
229.0983	8	C13H13N2O2-
232.0077	78	C11H6NO3S-
232.0731	75	C11H10N3O3-
239.083	38	C14H11N2O2-
240.1146	159	C14H14N3O-
241.0987	53	C14H13N2O2-
242.0826	12	C14H12NO3-
249.0343	208	C11H9N2O3S-
255.0776	18	C14H11N2O3-
256.1097	19	C14H14N3O2-
257.0937	9	C14H13N2O3-
258.0598	49	C14H12NO2S-
266.0948	2	C15H12N3O2-
267.0778	23	C15H11N2O3-
268.0857	177	C15H12N2O3-
272.1041	10	C14H14N3O3-
274.0546	62	C14H12NO3S-
275.0864	2	C14H15N2O2S-
284.1045	114	C15H14N3O3-
291.0813	49	C14H15N2O3S-
301.0656	21	C15H13N2O3S-
318.0916	2	C15H16N3O3S-
