Mass spectrum: Atrazine-desethyl; LC-ESI-ITFT; MS2; CE: 15%; R=7500; [M+H]+
Name: Atrazine-desethyl
Name: Deethylatrazine
Name: (4-amino-6-chloro-s-triazin-2-yl)-isopropyl-amine
Formula: C6H10ClN5
Exact mass: 187.0625
SMILES: c1(nc(nc(n1)Cl)N)NC(C)C
InChI: InChI=1S/C6H10ClN5/c1-3(2)9-6-11-4(7)10-5(8)12-6/h3H,1-2H3,(H3,8,9,10,11,12)
Instrument: LTQ Orbitrap XL Thermo Scientific
Instrument type: LC-ESI-ITFT
Ms type: MS2
Ion mode: POSITIVE
Ionization: ESI
Fragmentation mode: HCD
Collision energy: 15 % (nominal)
Resolution: 7500
Column name: XBridge C18 3.5um, 2.1x50mm, Waters
Retention time: 5.6 min
Base peak: 188.07
Precursor m/z: 188.0697
Precursor type: [M+H]+
m/z	relative intensity	assigned
188.0698	999	C6H11ClN5+
