Mass spectrum: Dimethenamide ESA; LC-ESI-ITFT; MS2; CE: 90%; R=30000; [M+H]+
Name: Dimethenamide ESA
Name: 2-[(2,4-Dimethyl-3-thienyl)(1-methoxy-2-propanyl)amino]-2-oxoethanesulfonic acid
Formula: C12H19NO5S2
Exact mass: 321.0705
SMILES: S(C=C1C)C(C)=C1N(C(=O)CS(=O)(=O)O)C(COC)C
InChI: InChI=1S/C12H19NO5S2/c1-8-6-19-10(3)12(8)13(9(2)5-18-4)11(14)7-20(15,16)17/h6,9H,5,7H2,1-4H3,(H,15,16,17)
Instrument: LTQ Orbitrap XL Thermo Scientific
Instrument type: LC-ESI-ITFT
Ms type: MS2
Ion mode: POSITIVE
Ionization: ESI
Fragmentation mode: HCD
Collision energy: 90 % (nominal)
Resolution: 30000
Column name: XBridge C18 3.5um, 2.1x50mm, Waters
Retention time: 6.7 min
Base peak: 322.0788
Precursor m/z: 322.0777
Precursor type: [M+H]+
m/z	relative intensity	assigned
58.995	14	C2H3S+
65.0387	12	C5H5+
67.0543	19	C5H7+
70.9949	10	C3H3S+
73.0648	54	C4H9O+
77.0386	22	C6H5+
79.0543	25	C6H7+
80.0494	11	C5H6N+
82.0652	15	C5H8N+
83.0492	9	C5H7O+
85.0107	19	C4H5S+
91.0543	49	C7H7+
93.0572	18	C6H7N+
93.0699	34	C7H9+
94.0651	95	C6H8N+
95.073	115	C6H9N+
97.0106	75	C5H5S+
98.0183	13	C5H6S+
99.0263	46	C5H7S+
104.0495	11	C7H6N+
105.045	6	C6H5N2+
105.0574	31	C7H7N+
105.07	25	C8H9+
106.0652	22	C7H8N+
107.073	14	C7H9N+
107.0856	13	C8H11+
108.0808	66	C7H10N+
110.0186	7	C6H6S+
111.0264	427	C6H7S+
112.0215	25	C5H6NS+
112.0341	89	C6H8S+
113.0294	28	C5H7NS+
113.0419	33	C6H9S+
114.0374	15	C5H8NS+
115.054	18	C9H7+
117.0576	13	C8H7N+
117.0699	41	C9H9+
118.0652	70	C8H8N+
119.073	208	C8H9N+
120.0808	75	C8H10N+
121.0885	8	C8H11N+
122.0965	24	C8H12N+
123.0263	24	C7H7S+
124.0215	51	C6H6NS+
124.034	33	C7H8S+
124.0758	10	C7H10NO+
125.0295	120	C6H7NS+
125.042	229	C7H9S+
126.0372	679	C6H8NS+
127.0212	23	C6H7OS+
127.045	69	C6H9NS+
127.0575	8	C7H11S+
128.0528	67	C6H10NS+
132.0809	61	C9H10N+
133.0886	128	C9H11N+
134.0965	406	C9H12N+
135.0263	97	C8H7S+
135.1042	35	C9H13N+
136.0214	14	C7H6NS+
137.0294	86	C7H7NS+
137.0422	12	C8H9S+
138.0373	406	C7H8NS+
139.0451	30	C7H9NS+
139.0578	15	C8H11S+
140.0529	47	C7H10NS+
148.1121	13	C10H14N+
149.042	103	C9H9S+
150.0373	153	C8H8NS+
150.0497	17	C9H10S+
151.045	216	C8H9NS+
151.0573	14	C9H11S+
152.0165	502	C7H6NOS+
152.0529	999	C8H10NS+
153.0366	6	C8H9OS+
153.0607	36	C8H11NS+
154.0688	9	C8H12NS+
162.0915	9	C10H12NO+
164.0534	21	C3H16O3S2+
166.0322	128	C8H8NOS+
166.0685	465	C9H12NS+
167.0403	8	C8H9NOS+
167.0762	19	C9H13NS+
168.048	12	C8H10NOS+
168.0841	45	C9H14NS+
176.107	20	C11H14NO+
194.0636	34	C10H12NOS+
208.0788	12	C11H14NOS+
