Mass spectrum: Procymidone; LC-ESI-QFT; MS2; CE: 30; R=35000; [M+H]+
Name: Procymidone
Name: 3-(3,5-dichlorophenyl)-1,5-dimethyl-3-azabicyclo[3.1.0]hexane-2,4-dione
Formula: C13H11Cl2NO2
Exact mass: 283.01668
SMILES: Clc1cc(cc(Cl)c1)N2C(=O)C3(CC3(C2=O)C)C
InChI: InChI=1S/C13H11Cl2NO2/c1-12-6-13(12,2)11(18)16(10(12)17)9-4-7(14)3-8(15)5-9/h3-5H,6H2,1-2H3
Instrument: Q Exactive Orbitrap Thermo Scientific
Instrument type: LC-ESI-QFT
Ms type: MS2
Ion mode: POSITIVE
Ionization: ESI
Fragmentation mode: HCD
Collision energy: 30 (nominal)
Resolution: 35000
Column name: XBridge C18 3.5um, 2.1x50mm, Waters
Retention time: 11.5 min
Base peak: 284.0241
Precursor m/z: 284.024
Precursor type: [M+H]+
m/z	relative intensity	assigned
67.0542	36	C5H7+
69.0698	19	C5H9+
85.0648	2	C5H9O+
95.0491	95	C6H7O+
113.0597	75	C6H9O2+
123.044	8	C7H7O2+
161.9871	11	C6H6Cl2N+
171.9714	12	C7H4Cl2N+
173.9873	1	C7H6Cl2N+
178.0419	4	C10H9ClN+
185.9872	17	C8H6Cl2N+
187.9662	3	C7H4Cl2NO+
192.0575	4	C11H11ClN+
193.0654	3	C11H12ClN+
197.9871	10	C9H6Cl2N+
199.9666	5	C8H4Cl2NO+
202.0416	1	C12H9ClN+
203.0495	5	C12H10ClN+
212.0029	18	C10H8Cl2N+
213.9819	13	C9H6Cl2NO+
214.0185	14	C10H10Cl2N+
220.0526	5	C12H11ClNO+
221.0603	12	C12H12ClNO+
227.9977	11	C10H8Cl2NO+
228.0341	65	C11H12Cl2N+
238.0185	25	C12H10Cl2N+
239.0264	2	C12H11Cl2N+
240.0341	2	C12H12Cl2N+
241.0057	3	C11H9Cl2NO+
256.0291	999	C12H12Cl2NO+
266.0132	3	C13H10Cl2NO+
284.0239	970	C13H12Cl2NO2+
