Mass spectrum: 2-Imidazolidinethione; LC-ESI-QFT; MS2; CE: 120; R=35000; [M+H]+
Name: 2-Imidazolidinethione
Name: Ethylenethiourea
Formula: C3H6N2S
Exact mass: 102.02517
SMILES: S=C1NCCN1
InChI: InChI=1S/C3H6N2S/c6-3-4-1-2-5-3/h1-2H2,(H2,4,5,6)
Instrument: Q Exactive Plus Orbitrap Thermo Scientific
Instrument type: LC-ESI-QFT
Ms type: MS2
Ion mode: POSITIVE
Ionization: ESI
Fragmentation mode: HCD
Collision energy: 120 (nominal)
Resolution: 35000
Column name: XBridge C18 3.5um, 2.1x50mm, Waters
Retention time: 1.0 min
Base peak: 103.0324
Precursor m/z: 103.0324
Precursor type: [M+H]+
m/z	relative intensity	assigned
55.0291	2	C2H3N2+
56.9794	1	C2HS+
57.9872	7	C2H2S+
58.0526	4	C2H6N2+
58.995	335	C2H3S+
59.9903	700	CH2NS+
69.0447	48	C3H5N2+
70.0525	91	C3H6N2+
74.006	12	C2H4NS+
76.0215	40	C2H6NS+
83.9903	44	C3H2NS+
85.0397	21	C3H5N2O+
86.0059	930	C3H4NS+
103.0325	999	C3H7N2S+
