Mass spectrum: Pheniramine; LC-ESI-QFT; MS2; CE: 150; R=35000; [M+H]+
Name: Pheniramine
Name: N,N-dimethyl-3-phenyl-3-pyridin-2-ylpropan-1-amine
Formula: C16H20N2
Exact mass: 240.16265
SMILES: CN(C)CCC(C1=CC=CC=C1)C2=CC=CC=N2
InChI: InChI=1S/C16H20N2/c1-18(2)13-11-15(14-8-4-3-5-9-14)16-10-6-7-12-17-16/h3-10,12,15H,11,13H2,1-2H3
Instrument: Q Exactive Plus Orbitrap Thermo Scientific
Instrument type: LC-ESI-QFT
Ms type: MS2
Ion mode: POSITIVE
Ionization: ESI
Fragmentation mode: HCD
Collision energy: 150 (nominal)
Resolution: 35000
Column name: XBridge C18 3.5um, 2.1x50mm, Waters
Retention time: 3.7 min
Base peak: 241.1697
Precursor m/z: 241.1699
Precursor type: [M+H]+
m/z	relative intensity	assigned
50.0151	8	C4H2+
51.0229	10	C4H3+
53.0022	3	C3HO+
53.0386	4	C4H5+
62.015	1	C5H2+
63.0229	10	C5H3+
65.0386	166	C5H5+
66.0464	10	C5H6+
67.0416	1	C4H5N+
75.0228	4	C6H3+
77.0385	8	C6H5+
78.0338	30	C5H4N+
79.0416	6	C5H5N+
80.0494	3	C5H6N+
88.0307	2	C7H4+
89.0386	46	C7H5+
90.0465	49	C7H6+
91.0543	258	C7H7+
92.0495	11	C6H6N+
93.0574	32	C6H7N+
94.0651	2	C6H8N+
95.0492	16	C6H7O+
96.0444	33	C5H6NO+
101.0385	1	C8H5+
102.0464	4	C8H6+
103.0542	5	C8H7+
104.0495	15	C7H6N+
105.0447	7	C6H5N2+
110.0601	5	C6H8NO+
113.0386	4	C9H5+
114.0464	8	C9H6+
115.0543	98	C9H7+
116.0495	9	C8H6N+
116.062	4	C9H8+
117.0573	211	C8H7N+
118.0651	400	C8H8N+
119.073	3	C8H9N+
126.0463	2	C10H6+
127.0416	1	C9H5N+
127.0541	2	C10H7+
128.0495	22	C9H6N+
128.0621	6	C10H8+
129.0446	5	C8H5N2+
130.0651	3	C9H8N+
132.057	2	C9H8O+
134.06	2	C8H8NO+
138.0463	2	C11H6+
139.0543	320	C11H7+
140.0495	88	C10H6N+
140.062	86	C11H8+
141.0575	10	C10H7N+
141.0699	13	C11H9+
146.0601	5	C9H8NO+
152.0621	19	C12H8+
153.0572	1	C11H7N+
153.0701	4	C12H9+
154.0654	4	C11H8N+
155.0604	2	C10H7N2+
164.0493	3	C12H6N+
165.0574	8	C12H7N+
165.07	6	C13H9+
166.0652	547	C12H8N+
167.073	999	C12H9N+
168.0808	18	C12H10N+
169.0648	3	C12H9O+
178.0653	4	C13H8N+
179.0731	4	C13H9N+
180.0809	22	C13H10N+
183.0677	1	C12H9NO+
184.0757	6	C12H10NO+
191.0729	7	C14H9N+
192.0808	11	C14H10N+
193.0887	19	C14H11N+
194.0966	15	C14H12N+
