Mass spectrum: Mebendazole; LC-ESI-QFT; MS2; CE: 90; R=35000; [M-H]-
Name: Mebendazole
Name: methyl N-(6-benzoyl-1H-benzimidazol-2-yl)carbamate
Formula: C16H13N3O3
Exact mass: 295.09569
SMILES: COC(=O)NC1=NC2=C(N1)C=C(C=C2)C(=O)C3=CC=CC=C3
InChI: InChI=1S/C16H13N3O3/c1-22-16(21)19-15-17-12-8-7-11(9-13(12)18-15)14(20)10-5-3-2-4-6-10/h2-9H,1H3,(H2,17,18,19,21)
Instrument: Q Exactive Plus Orbitrap Thermo Scientific
Instrument type: LC-ESI-QFT
Ms type: MS2
Ion mode: NEGATIVE
Ionization: ESI
Fragmentation mode: HCD
Collision energy: 90 (nominal)
Resolution: 35000
Column name: XBridge C18 3.5um, 2.1x50mm, Waters
Retention time: 7.5 min
Base peak: 262.0621
Precursor m/z: 294.0884
Precursor type: [M-H]-
m/z	relative intensity	assigned
50.0035	1	C3N-
64.0067	2	C3N2-
65.0146	25	C3HN2-
65.9987	27	C3NO-
68.0017	5	C2N2O-
68.0142	1	C3H2NO-
78.0225	1	C4H2N2-
87.0114	8	C6HN-
89.0146	9	C5HN2-
90.0225	21	C5H2N2-
91.0065	7	C5HNO-
92.0255	21	C4H2N3-
93.0095	7	C4HN2O-
95.0252	39	C4H3N2O-
101.0146	1	C6HN2-
102.0224	17	C6H2N2-
103.0066	1	C6HNO-
103.0178	1	C5HN3-
105.0332	12	C5H3N3-
106.0174	145	C5H2N2O-
108.0206	1	C4H2N3O-
113.0149	1	C7HN2-
114.0226	14	C7H2N2-
115.0304	49	C7H3N2-
116.0257	1	C6H2N3-
117.0096	1	C6HN2O-
118.0174	5	C6H2N2O-
120.0093	10	C6H2NO2-
129.0335	332	C7H3N3-
130.0174	8	C7H2N2O-
132.0205	18	C6H2N3O-
133.0284	400	C6H3N3O-
134.0124	10	C6H2N2O2-
136.0154	14	C5H2N3O2-
144.0207	2	C7H2N3O-
145.0284	15	C7H3N3O-
147.0203	20	C7H3N2O2-
149.0233	60	C6H3N3O2-
156.0207	39	C8H2N3O-
157.0284	999	C8H3N3O-
158.0362	12	C8H4N3O-
160.0155	220	C7H2N3O2-
161.0233	1	C7H3N3O2-
173.0233	83	C8H3N3O2-
186.0314	1	C9H4N3O2-
188.0103	5	C8H2N3O3-
191.0617	5	C13H7N2-
192.0455	5	C13H6NO-
194.0617	1	C13H8NO-
205.0649	4	C13H7N3-
206.0488	9	C13H6N2O-
216.0568	1	C14H6N3-
217.0415	3	C14H5N2O-
219.0567	21	C14H7N2O-
232.0517	5	C14H6N3O-
233.0598	12	C14H7N3O-
234.0432	1	C14H6N2O2-
235.0515	6	C14H7N2O2-
244.0518	1	C15H6N3O-
245.0601	1	C15H7N3O-
260.0469	34	C15H6N3O2-
261.0544	1	C15H7N3O2-
262.0626	290	C15H8N3O2-
