Mass spectrum: Pyridate; LC-ESI-QFT; MS2; CE: 60; R=35000; [M+H]+
Name: Pyridate
Name: Pyridat
Name: (6-chloro-3-phenylpyridazin-4-yl) octylsulfanylformate
Formula: C19H23ClN2O2S
Exact mass: 378.11688
SMILES: O=C(SCCCCCCCC)Oc2cc(Cl)nnc2c1ccccc1
InChI: InChI=1S/C19H23ClN2O2S/c1-2-3-4-5-6-10-13-25-19(23)24-16-14-17(20)21-22-18(16)15-11-8-7-9-12-15/h7-9,11-12,14H,2-6,10,13H2,1H3
Instrument: Q Exactive Plus Orbitrap Thermo Scientific
Instrument type: LC-ESI-QFT
Ms type: MS2
Ion mode: POSITIVE
Ionization: ESI
Fragmentation mode: HCD
Collision energy: 60 (nominal)
Resolution: 35000
Column name: XBridge C18 3.5um, 2.1x50mm, Waters
Retention time: 18.1 min
Base peak: 379.1241
Precursor m/z: 379.1242
Precursor type: [M+H]+
m/z	relative intensity	assigned
51.0229	1	C4H3+
53.0022	5	C3HO+
53.0386	13	C4H5+
53.9975	1	C2NO+
55.0543	11	C4H7+
57.0699	143	C4H9+
61.9792	7	CHClN+
68.0131	113	C3H2NO+
69.0699	38	C5H9+
71.0855	62	C5H11+
77.0385	24	C6H5+
81.0335	1	C5H5O+
95.0492	50	C6H7O+
103.9898	37	C3H3ClNO+
104.0495	356	C7H6N+
105.0448	33	C6H5N2+
115.0543	3	C9H7+
116.0496	4	C8H6N+
116.0621	1	C9H8+
118.0651	2	C8H8N+
126.0464	15	C10H6+
138.0105	6	C7H5ClN+
140.0262	4	C7H7ClN+
143.0605	7	C9H7N2+
144.0444	2	C9H6NO+
144.0681	2	C9H8N2+
161.0153	17	C10H6Cl+
171.0553	6	C10H7N2O+
179.0372	50	C9H8ClN2+
205.0168	2	C10H6ClN2O+
207.0321	999	C10H8ClN2O+
