Mass spectrum: MCLA; LC-ESI-QFT; MS2; CE: 15%; R=17500; [M+H]+
Name: MCLA
Name: Microcystin LA
Name: (5R,8S,11R,12S,15S,18S,19S,22R)-18-[(1E,3E,5S,6S)-6-methoxy-3,5-dimethyl-7-phenylhepta-1,3-dienyl]-1,5,12,15,19-pentamethyl-2-methylidene-8-(2-methylpropyl)-3,6,9,13,16,20,25-heptaoxo-1,4,7,10,14,17,21-heptazacyclopentacosane-11,22-dicarboxylic acid
Class: NA
Formula: C46H67N7O12
Exact mass: 909.4848
SMILES: CO[C@@H](Cc1ccccc1)[C@@H](C)\C=C(C)\C=C\[C@@H]2NC(=O)[C@H](C)NC(=O)[C@@H](C)[C@@H](NC(=O)[C@H](CC(C)C)NC(=O)[C@@H](C)NC(=O)C(=C)N(C)C(=O)CC[C@@H](NC(=O)[C@H]2C)C(O)=O)C(O)=O
InChI: InChI=1S/C46H67N7O12/c1-24(2)21-35-44(60)52-38(46(63)64)28(6)40(56)47-29(7)41(57)49-33(18-17-25(3)22-26(4)36(65-11)23-32-15-13-12-14-16-32)27(5)39(55)50-34(45(61)62)19-20-37(54)53(10)31(9)43(59)48-30(8)42(58)51-35/h12-18,22,24,26-30,33-36,38H,9,19-21,23H2,1-8,10-11H3,(H,47,56)(H,48,59)(H,49,57)(H,50,55)(H,51,58)(H,52,60)(H,61,62)(H,63,64)/b18-17+,25-22+/t26-,27-,28-,29-,30+,33-,34+,35-,36-,38+/m0/s1
Instrument: Q Exactive Plus Orbitrap Thermo Scientific
Instrument type: LC-ESI-QFT
Ms type: MS2
Ion mode: POSITIVE
Ionization: ESI
Fragmentation mode: HCD
Collision energy: 15 % (nominal)
Resolution: 17500
Column name: XBridge C18 3.5um, 2.1x50mm, Waters
Retention time: 10.516 min
Base peak: 164.9846
Precursor m/z: 910.492
Precursor type: [M+H]+
m/z	relative intensity	assigned
86.0967	4	C5H12N+
124.1117	4	C8H14N+
135.0799	20	C9H11O+
155.0818	3	C7H11N2O2+
163.1117	61	C11H15O+
173.0925	11	C7H13N2O3+
195.0768	40	C9H11N2O3+
213.0873	43	C9H13N2O4+
218.114	65	C8H16N3O4+
218.1541	8	C14H20NO+
226.1592	7	C16H20N+
237.1636	6	C18H21+
246.149	10	C15H20NO2+
258.1856	116	C3H26N6O7+
265.1591	29	C5H23N5O7+
268.1662	23	C13H22N3O3+
292.1552	17	C2H24N6O10+
297.1855	54	C6H27N5O8+
331.1977	141	C14H27N4O5+
352.2277	5	C9H32N6O8+
357.1784	5	C17H27NO7+
375.1914	396	C20H27N2O5+
384.2244	27	C17H30N5O5+
385.2081	71	C17H29N4O6+
397.2094	19	C20H31NO7+
402.2346	662	C17H32N5O6+
446.2284	189	C23H32N3O6+
449.2429	5	C27H33N2O4+
454.231	9	C22H34N2O8+
463.2594	4	C28H35N2O4+
467.2619	68	C21H35N6O6+
468.2453	272	C21H34N5O7+
477.2387	78	C14H35N7O11+
485.2716	346	C21H37N6O7+
504.2812	16	C39H36+
508.2406	10	C23H34N5O8+
509.2643	319	C29H37N2O6+
541.3007	6	C28H45O10+
548.2741	36	C29H36N6O5+
551.284	14	C27H41N3O9+
559.3122	317	C29H43N4O7+
564.3403	9	C30H48N2O8+
579.2758	21	C38H35N4O2+
580.3012	159	C32H42N3O7+
591.349	22	C28H51N2O11+
596.3047	38	C28H44N4O10+
597.2877	61	C26H41N6O10+
614.3113	14	C37H44NO7+
635.3044	13	C44H37N5+
642.3871	22	C36H54N2O8+
647.3804	10	C37H51N4O6+
661.3594	33	C37H49N4O7+
675.3721	46	C35H53N3O10+
680.3249	44	C30H46N7O11+
688.3544	36	C34H50N5O10+
693.3859	178	C38H53N4O8+
725.4232	83	C38H57N6O8+
730.4131	22	C36H56N7O9+
731.4004	30	C40H59O12+
740.3985	10	C39H56N4O10+
741.3801	32	C37H53N6O10+
758.4076	259	C37H56N7O10+
759.3919	503	C37H55N6O11+
776.4187	999	C37H58N7O11+
777.4171	6	C41H57N6O9+
781.4494	7	C41H61N6O9+
822.4267	16	C43H60N5O11+
860.4554	30	C45H62N7O10+
861.4397	30	C45H61N6O11+
864.4859	17	C45H66N7O10+
865.4723	15	C45H65N6O11+
875.4529	28	C46H63N6O11+
878.4662	86	C45H64N7O11+
882.4975	11	C45H68N7O11+
892.4814	254	C46H66N7O11+
893.4649	173	C46H65N6O12+
910.4919	680	C46H68N7O12+
