Mass spectrum: Verapamil; LC-ESI-ITFT; MS2; CE: 60%; R=7500; [M+H]+
Name: Verapamil
Name: 2-(3,4-dimethoxyphenyl)-5-[2-(3,4-dimethoxyphenyl)ethyl-methyl-amino]-2-propan-2-yl-pentanenitrile
Formula: C27H38N2O4
Exact mass: 454.2832
SMILES: COC1=C(OC)C=CC(C(C(C)C)(C#N)CCCN(CCC2=CC(OC)=C(OC)C=C2)C)=C1
InChI: InChI=1S/C27H38N2O4/c1-20(2)27(19-28,22-10-12-24(31-5)26(18-22)33-7)14-8-15-29(3)16-13-21-9-11-23(30-4)25(17-21)32-6/h9-12,17-18,20H,8,13-16H2,1-7H3
Instrument: LTQ Orbitrap XL Thermo Scientific
Instrument type: LC-ESI-ITFT
Ms type: MS2
Ion mode: POSITIVE
Ionization: ESI
Fragmentation mode: HCD
Collision energy: 60 % (nominal)
Resolution: 7500
Column name: XBridge C18 3.5um, 2.1x50mm, Waters
Retention time: 7.3 min
Base peak: 455.292
Precursor m/z: 455.2904
Precursor type: [M+H]+
m/z	relative intensity	assigned
58.0652	38	C3H8N+
77.0384	6	C6H5+
79.0542	30	C6H7+
84.0806	11	C5H10N+
86.0963	5	C5H12N+
91.0544	10	C7H7+
95.0856	4	C7H11+
96.0807	7	C6H10N+
103.0542	29	C8H7+
104.0623	5	C8H8+
105.0699	157	C8H9+
107.0493	15	C7H7O+
118.0414	17	C8H6O+
119.0492	17	C8H7O+
120.057	23	C8H8O+
121.0649	34	C8H9O+
122.0728	13	C8H10O+
122.0966	17	C8H12N+
124.0524	7	C7H8O2+
131.0488	5	C9H7O+
133.0649	109	C9H9O+
134.0727	97	C9H10O+
135.0441	54	C8H7O2+
135.0805	63	C9H11O+
136.0516	14	C8H8O2+
137.0601	10	C8H9O2+
138.0681	15	C8H10O2+
139.0751	10	C8H11O2+
146.0723	5	C10H10O+
149.0601	10	C9H9O2+
150.0676	535	C9H10O2+
151.0753	80	C9H11O2+
152.0833	12	C9H12O2+
165.0911	999	C10H13O2+
177.0909	53	C11H13O2+
179.1065	3	C11H15O2+
187.099	12	C12H13NO+
191.1068	10	C12H15O2+
194.1179	4	C11H16NO2+
202.0867	11	C12H12NO2+
203.0934	7	C12H13NO2+
217.1101	13	C13H15NO2+
218.1176	26	C13H16NO2+
243.139	5	C16H19O2+
260.1646	34	C16H22NO2+
261.1599	19	C15H21N2O2+
303.2072	17	C18H27N2O2+
