Mass spectrum: Iohexol; LC-ESI-ITFT; MS2; CE: 30%; R=7500; [M+H]+
Name: Iohexol
Name: 5-[acetyl(2,3-dihydroxypropyl)amino]-1-N,3-N-bis(2,3-dihydroxypropyl)-2,4,6-triiodobenzene-1,3-dicarboxamide
Formula: C19H26I3N3O9
Exact mass: 820.8803
SMILES: OCC(O)CNC(=O)c1c(I)c(N(CC(O)CO)C(C)=O)c(I)c(c1I)C(=O)NCC(O)CO
InChI: InChI=1S/C19H26I3N3O9/c1-8(29)25(4-11(32)7-28)17-15(21)12(18(33)23-2-9(30)5-26)14(20)13(16(17)22)19(34)24-3-10(31)6-27/h9-11,26-28,30-32H,2-7H2,1H3,(H,23,33)(H,24,34)
Instrument: LTQ Orbitrap XL Thermo Scientific
Instrument type: LC-ESI-ITFT
Ms type: MS2
Ion mode: POSITIVE
Ionization: ESI
Fragmentation mode: HCD
Collision energy: 30 % (nominal)
Resolution: 7500
Column name: XBridge C18 3.5um, 2.1x50mm, Waters
Retention time: 1.6 min
Base peak: 132.9578
Precursor m/z: 821.8876
Precursor type: [M+H]+
m/z	relative intensity	assigned
293.9767	37	C12H9IN+
321.1085	232	C15H17N2O6+
357.9582	140	C12H9INO4+
362.9827	76	C11H12IN2O4+
374.9835	999	C12H12IN2O4+
431.0095	272	C15H16IN2O5+
435.0036	135	C13H25I2+
449.0202	793	C15H18IN2O6+
451.8274	202	C11H4I2NO3+
500.8825	252	C12H11I2N2O4+
528.8743	322	C13H11I2N2O5+
542.8901	170	C14H13I2N2O5+
591.9461	88	C17H22I2O7+
626.7758	78	C12H10I3N2O4+
