Mass spectrum: Hydrocodone; LC-ESI-QFT; MS2; CE: 45; R=35000; [M+H]+
Name: Hydrocodone
Name: (4R,4aR,7aR,12bS)-9-methoxy-3-methyl-1,2,4,4a,5,6,7a,13-octahydro-4,12-methanobenzofuro[3,2-e]isoquinoline-7-one
Formula: C18H21NO3
Exact mass: 299.15214
SMILES: CN1CC[C@]23[C@@H]4[C@H]1CC5=C2C(=C(C=C5)OC)O[C@H]3C(=O)CC4
InChI: InChI=1S/C18H21NO3/c1-19-8-7-18-11-4-5-13(20)17(18)22-16-14(21-2)6-3-10(15(16)18)9-12(11)19/h3,6,11-12,17H,4-5,7-9H2,1-2H3/t11-,12+,17-,18-/m0/s1
Instrument: Q Exactive Orbitrap Thermo Scientific
Instrument type: LC-ESI-QFT
Ms type: MS2
Ion mode: POSITIVE
Ionization: ESI
Fragmentation mode: HCD
Collision energy: 45 (nominal)
Resolution: 35000
Column name: XBridge C18 3.5um, 2.1x50mm, Waters
Retention time: 3.2 min
Base peak: 300.1595
Precursor m/z: 300.1594
Precursor type: [M+H]+
m/z	relative intensity	assigned
58.0652	11	C3H8N+
84.0808	2	C5H10N+
86.06	1	C4H8NO+
100.0756	3	C5H10NO+
110.0599	3	C6H8NO+
128.0615	1	C10H8+
137.0597	6	C8H9O2+
141.0698	1	C11H9+
150.0914	3	C9H12NO+
153.0697	3	C12H9+
159.0802	1	C11H11O+
161.0596	2	C10H9O2+
162.0911	2	C10H12NO+
163.0752	1	C10H11O2+
165.0697	5	C13H9+
169.0645	1	C12H9O+
170.0722	1	C12H10O+
171.0804	15	C12H11O+
175.0754	3	C11H11O2+
181.0648	24	C13H9O+
183.0805	73	C13H11O+
185.0596	14	C12H9O2+
185.0962	3	C13H13O+
186.0674	2	C12H10O2+
187.0754	12	C12H11O2+
189.0909	4	C12H13O2+
193.0646	5	C14H9O+
195.0803	2	C14H11O+
197.0962	7	C14H13O+
198.0673	3	C13H10O2+
199.0752	486	C13H11O2+
200.083	1	C13H12O2+
201.0908	9	C13H13O2+
203.0944	1	C12H13NO2+
203.1063	2	C13H15O2+
207.08	1	C15H11O+
209.0962	2	C15H13O+
211.0753	20	C14H11O2+
212.0833	2	C14H12O2+
213.091	67	C14H13O2+
215.1067	8	C14H15O2+
217.0857	2	C13H13O3+
225.091	36	C15H13O2+
227.1066	2	C15H15O2+
229.1218	3	C15H17O2+
239.1064	5	C16H15O2+
241.0859	137	C15H13O3+
242.0937	1	C15H14O3+
243.1016	98	C15H15O3+
251.1073	3	C17H15O2+
255.1016	2	C16H15O3+
257.1172	28	C16H17O3+
257.1398	1	C16H19NO2+
267.1254	1	C17H17NO2+
269.1177	5	C17H17O3+
269.1402	1	C17H19NO2+
271.1321	2	C17H19O3+
272.1278	2	C16H18NO3+
272.1646	1	C17H22NO2+
282.1486	6	C18H20NO2+
285.1358	20	C17H19NO3+
300.1593	999	C18H22NO3+
