Mass spectrum: Telmisartan; LC-ESI-ITFT; MS2; CE: 60%; R=15000; [M+H]+
Name: Telmisartan
Name: 4'-[(1,7'-dimethyl-2'-propyl-1H,3'H-2,5'-bibenzimidazol-3'-yl)methyl]biphenyl-2-carboxylic acid
Name: 2-[4-[[4-methyl-6-(1-methyl-2-benzimidazolyl)-2-propyl-1-benzimidazolyl]methyl]phenyl]benzoic acid
Formula: C33H30N4O2
Exact mass: 514.2369
SMILES: n1(c(nc2c1cccc2)c1cc(c2c(n(c(CCC)n2)Cc2ccc(cc2)c2c(cccc2)C(O)=O)c1)C)C
InChI: InChI=1S/C33H30N4O2/c1-4-9-30-35-31-21(2)18-24(32-34-27-12-7-8-13-28(27)36(32)3)19-29(31)37(30)20-22-14-16-23(17-15-22)25-10-5-6-11-26(25)33(38)39/h5-8,10-19H,4,9,20H2,1-3H3,(H,38,39)
Instrument: LTQ Orbitrap XL Thermo Scientific
Instrument type: LC-ESI-ITFT
Ms type: MS2
Ion mode: POSITIVE
Ionization: ESI
Fragmentation mode: HCD
Collision energy: 60 % (nominal)
Resolution: 15000
Column name: XBridge C18 3.5um, 2.1x50mm, Waters
Retention time: 9.2 min
Base peak: 515.2452
Precursor m/z: 515.2442
Precursor type: [M+H]+
m/z	relative intensity	assigned
106.0653	2	C7H8N+
133.0285	2	C8H5O2+
152.0621	6	C12H8+
153.0702	1	C12H9+
155.0857	6	C12H11+
165.0701	10	C13H9+
166.0778	2	C13H10+
167.0858	5	C13H11+
183.0805	6	C13H11O+
193.0651	85	C14H9O+
194.0681	3	C9H10N2O3+
211.0757	132	C14H11O2+
212.0789	2	C7H10N5O3+
254.1055	1	C15H14N2O2+
260.1057	3	C16H12N4+
261.1137	30	C18H15NO+
262.1218	17	C16H14N4+
263.1297	1	C16H15N4+
273.1141	2	C17H13N4+
274.1218	8	C17H14N4+
275.1293	51	C17H15N4+
276.137	999	C17H16N4+
277.1407	42	C12H17N6O2+
287.1292	6	C18H15N4+
288.1371	9	C18H16N4+
289.145	230	C18H17N4+
290.1484	10	C13H18N6O2+
301.1452	2	C19H17N4+
302.1526	7	C19H18N4+
303.1606	115	C19H19N4+
304.1637	5	C14H20N6O2+
305.1762	71	C19H21N4+
306.1801	3	C14H22N6O2+
308.1269	1	C17H16N4O2+
317.1761	34	C20H21N4+
318.1796	1	C15H22N6O2+
439.1878	1	C25H23N6O2+
453.1713	5	C30H21N4O+
455.1865	7	C30H23N4O+
467.1869	29	C31H23N4O+
468.191	3	C26H24N6O3+
471.1822	4	C30H23N4O2+
473.1983	1	C30H25N4O2+
485.1975	20	C31H25N4O2+
497.2344	52	C33H29N4O+
498.2384	4	C28H30N6O3+
