Mass spectrum: Fenamiphos; LC-ESI-QFT; MS2; CE: 15%; R=17500; [M+H]+
Name: Fenamiphos
Name: N-[ethoxy-(3-methyl-4-methylsulfanylphenoxy)phosphoryl]propan-2-amine
Formula: C13H22NO3PS
Exact mass: 303.1058
SMILES: CCOP(=O)(NC(C)C)OC1=CC(=C(C=C1)SC)C
InChI: InChI=1S/C13H22NO3PS/c1-6-16-18(15,14-10(2)3)17-12-7-8-13(19-5)11(4)9-12/h7-10H,6H2,1-5H3,(H,14,15)
Instrument: Exploris 240 Orbitrap Thermo Scientific
Instrument type: LC-ESI-QFT
Ms type: MS2
Ion mode: POSITIVE
Ionization: ESI
Fragmentation mode: HCD
Collision energy: 15 % (nominal)
Resolution: 17500
Column name: XBridge C18 3.5um, 2.1x50mm, Waters
Retention time: 10.489 min
Base peak: 304.1128
Precursor m/z: 304.1131
Precursor type: [M+H]+
m/z	relative intensity	assigned
60.0807	4	C3H10N+
245.0401	6	C10H14O3PS+
262.0661	64	C10H17NO3PS+
276.0819	81	C11H19NO3PS+
304.113	999	C13H23NO3PS+
