Mass spectrum: Etaconazole; LC-ESI-QFT; MS2; CE: 15%; R=17500; [M+H]+
Name: Etaconazole
Name: 1-[[2-(2,4-dichlorophenyl)-4-ethyl-1,3-dioxolan-2-yl]methyl]-1,2,4-triazole
Formula: C14H15Cl2N3O2
Exact mass: 327.0541
SMILES: CCC1COC(O1)(CN2C=NC=N2)C3=C(C=C(C=C3)Cl)Cl
InChI: InChI=1S/C14H15Cl2N3O2/c1-2-11-6-20-14(21-11,7-19-9-17-8-18-19)12-4-3-10(15)5-13(12)16/h3-5,8-9,11H,2,6-7H2,1H3
Instrument: Exploris 240 Orbitrap Thermo Scientific
Instrument type: LC-ESI-QFT
Ms type: MS2
Ion mode: POSITIVE
Ionization: ESI
Fragmentation mode: HCD
Collision energy: 15 % (nominal)
Resolution: 17500
Column name: XBridge C18 3.5um, 2.1x50mm, Waters
Retention time: 9.806 min
Base peak: 328.0612
Precursor m/z: 328.0614
Precursor type: [M+H]+
m/z	relative intensity	assigned
55.0541	6	C4H7+
204.9819	5	C8H7Cl2O2+
259.0284	4	C12H13Cl2O2+
328.0614	999	C14H16Cl2N3O2+
