Mass spectrum: Furathiocarb; LC-ESI-QFT; MS2; CE: 15%; R=17500; [M+H]+
Name: Furathiocarb
Name: (2,2-dimethyl-3H-1-benzofuran-7-yl) N-[butoxycarbonyl(methyl)amino]sulfanyl-N-methylcarbamate
Formula: C18H26N2O5S
Exact mass: 382.1562
SMILES: CCCCOC(=O)N(C)SN(C)C(=O)OC1=CC=CC2=C1OC(C2)(C)C
InChI: InChI=1S/C18H26N2O5S/c1-6-7-11-23-16(21)19(4)26-20(5)17(22)24-14-10-8-9-13-12-18(2,3)25-15(13)14/h8-10H,6-7,11-12H2,1-5H3
Instrument: Exploris 240 Orbitrap Thermo Scientific
Instrument type: LC-ESI-QFT
Ms type: MS2
Ion mode: POSITIVE
Ionization: ESI
Fragmentation mode: HCD
Collision energy: 15 % (nominal)
Resolution: 17500
Column name: XBridge C18 3.5um, 2.1x50mm, Waters
Retention time: 13.069 min
Base peak: 383.1633
Precursor m/z: 383.1635
Precursor type: [M+H]+
m/z	relative intensity	assigned
62.0059	7	CH4NS+
87.0264	9	C4H7S+
90.0373	7	C3H8NS+
105.0368	48	C4H9OS+
164.0833	51	C10H12O2+
167.0528	23	C9H11OS+
177.0368	15	C10H9OS+
180.0689	20	C6H14NO3S+
195.0474	582	C10H11O2S+
252.0689	999	C12H14NO3S+
270.0803	31	C12H16NO4S+
326.142	206	C16H24NO4S+
