Mass spectrum: Tetraconazole; LC-ESI-QFT; MS2; CE: 45; R=35000; [M+H]+
Name: Tetraconazole
Name: 1-[2-(2,4-dichlorophenyl)-3-(1,1,2,2-tetrafluoroethoxy)propyl]-1,2,4-triazole
Formula: C13H11Cl2F4N3O
Exact mass: 371.02153
SMILES: C1=CC(=C(C=C1Cl)Cl)C(CN2C=NC=N2)COC(C(F)F)(F)F
InChI: InChI=1S/C13H11Cl2F4N3O/c14-9-1-2-10(11(15)3-9)8(4-22-7-20-6-21-22)5-23-13(18,19)12(16)17/h1-3,6-8,12H,4-5H2
Instrument: Q Exactive Plus Orbitrap Thermo Scientific
Instrument type: LC-ESI-QFT
Ms type: MS2
Ion mode: POSITIVE
Ionization: ESI
Fragmentation mode: HCD
Collision energy: 45 (nominal)
Resolution: 35000
Column name: XBridge C18 3.5um, 2.1x50mm, Waters
Retention time: 11.8 min
Base peak: 372.0281
Precursor m/z: 372.0288
Precursor type: [M+H]+
m/z	relative intensity	assigned
59.0291	1	C3H4F+
70.0399	516	C2H4N3+
89.0381	1	C2H4FN3+
149.0153	29	C9H6Cl+
150.0231	61	C9H7Cl+
158.9762	999	C2H4Cl2FN3+
176.9669	16	C7H4Cl2F+
184.992	42	C9H7Cl2+
204.9982	9	C9H8Cl2F+
372.0288	4	C13H12Cl2F4N3O+
