Mass spectrum: Hydrocodone; LC-ESI-QFT; MS2; CE: 30; R=35000; [M+H]+
Name: Hydrocodone
Name: (4R,4aR,7aR,12bS)-9-methoxy-3-methyl-1,2,4,4a,5,6,7a,13-octahydro-4,12-methanobenzofuro[3,2-e]isoquinoline-7-one
Formula: C18H21NO3
Exact mass: 299.15214
SMILES: CN1CC[C@]23[C@@H]4[C@H]1CC5=C2C(=C(C=C5)OC)O[C@H]3C(=O)CC4
InChI: InChI=1S/C18H21NO3/c1-19-8-7-18-11-4-5-13(20)17(18)22-16-14(21-2)6-3-10(15(16)18)9-12(11)19/h3,6,11-12,17H,4-5,7-9H2,1-2H3/t11-,12+,17-,18-/m0/s1
Instrument: Q Exactive Orbitrap Thermo Scientific
Instrument type: LC-ESI-QFT
Ms type: MS2
Ion mode: POSITIVE
Ionization: ESI
Fragmentation mode: HCD
Collision energy: 30 (nominal)
Resolution: 35000
Column name: XBridge C18 3.5um, 2.1x50mm, Waters
Retention time: 3.2 min
Base peak: 300.1595
Precursor m/z: 300.1594
Precursor type: [M+H]+
m/z	relative intensity	assigned
58.0652	1	C3H8N+
183.0805	4	C13H11O+
185.0593	1	C12H9O2+
199.0752	29	C13H11O2+
211.0751	1	C14H11O2+
213.0909	3	C14H13O2+
225.0914	2	C15H13O2+
241.0858	9	C15H13O3+
243.1015	15	C15H15O3+
257.1174	5	C16H17O3+
269.1176	1	C17H17O3+
285.1356	1	C17H19NO3+
300.1593	999	C18H22NO3+
