Mass spectrum: Antipyrine; LC-ESI-ITFT; MS2; CE: 35%; R=7500; [M+H]+
Name: Antipyrine
Name: Phenazone
Name: 1,5-dimethyl-2-phenyl-3-pyrazolone
Formula: C11H12N2O
Exact mass: 188.0950
SMILES: CN1N(C(=O)C=C1C)C2=CC=CC=C2
InChI: InChI=1S/C11H12N2O/c1-9-8-11(14)13(12(9)2)10-6-4-3-5-7-10/h3-8H,1-2H3
Instrument: LTQ Orbitrap XL Thermo Scientific
Instrument type: LC-ESI-ITFT
Ms type: MS2
Ion mode: POSITIVE
Ionization: ESI
Fragmentation mode: CID
Collision energy: 35 % (nominal)
Resolution: 7500
Column name: XBridge C18 3.5um, 2.1x50mm, Waters
Retention time: 4.6 min
Base peak: 189.1027
Precursor m/z: 189.1022
Precursor type: [M+H]+
m/z	relative intensity	assigned
58.065	10	C3H8N+
96.0443	10	C5H6NO+
104.0494	22	C7H6N+
111.0552	20	C5H7N2O+
117.0575	11	C8H7N+
117.0696	15	C9H9+
118.065	102	C8H8N+
120.0807	95	C8H10N+
129.0696	14	C10H9+
130.0651	145	C9H8N+
131.0729	423	C9H9N+
132.0807	94	C9H10N+
133.076	44	C8H9N2+
144.0807	350	C10H10N+
145.0652	30	C10H9O+
145.0886	10	C10H11N+
146.0839	240	C9H10N2+
146.0963	245	C10H12N+
147.0917	239	C9H11N2+
148.0755	54	C9H10NO+
158.0598	19	C10H8NO+
161.1073	371	C10H13N2+
162.0916	15	C10H12NO+
172.0756	150	C11H10NO+
174.0787	133	C10H10N2O+
189.1022	999	C11H13N2O+
