Mass spectrum: Nicosulfuron-TP UCSN; LC-ESI-QFT; MS2; CE: 30%; R=17500; [M-H]-
Name: Nicosulfuron-TP UCSN
Name: 2-[(Carbamoylcarbamoyl)sulfamoyl]-N,N-dimethylnicotinamide
Formula: C10H13N5O5S
Exact mass: 315.0637
SMILES: CN(C)C(=O)C1=CC=CN=C1S(=O)(=O)NC(=O)NC(N)=O
InChI: InChI=1S/C10H13N5O5S/c1-15(2)8(16)6-4-3-5-12-7(6)21(19,20)14-10(18)13-9(11)17/h3-5H,1-2H3,(H4,11,13,14,17,18)
Instrument: Q Exactive Plus Orbitrap Thermo Scientific
Instrument type: LC-ESI-QFT
Ms type: MS2
Ion mode: NEGATIVE
Ionization: ESI
Fragmentation mode: HCD
Collision energy: 30 % (nominal)
Resolution: 17500
Column name: XBridge C18 3.5um, 2.1x50mm, Waters
Retention time: 1.525 min
Base peak: 314.0565
Precursor m/z: 314.0565
Precursor type: [M-H]-
m/z	relative intensity	assigned
59.025	5	CH3N2O-
61.9706	24	NOS-
78.9735	4	HNO2S-
84.0203	16	C2H2N3O-
93.0456	2	C5H5N2-
94.0298	39	C5H4NO-
105.9604	12	CNO3S-
119.0248	10	C6H3N2O-
146.072	6	H12N5O2S-
149.0592	16	C7H7N3O-
162.0672	17	C8H8N3O-
164.083	161	C8H10N3O-
165.0669	425	C8H9N2O2-
181.0074	8	C7H5N2O2S-
182.9867	65	C6H3N2O3S-
207.0891	11	C9H11N4O2-
210.0342	288	C8H8N3O2S-
228.0449	999	C8H10N3O3S-
254.0243	3	C9H8N3O4S-
271.0506	301	C9H11N4O4S-
314.0569	17	C10H12N5O5S-
