Mass spectrum: Nitrazepam; LC-ESI-QFT; MS2; CE: 90; R=35000; [M-H]-
Name: Nitrazepam
Name: 7-nitro-5-phenyl-1,3-dihydro-1,4-benzodiazepin-2-one
Formula: C15H11N3O3
Exact mass: 281.08004
SMILES: C1C(=O)NC2=C(C=C(C=C2)[N+](=O)[O-])C(=N1)C3=CC=CC=C3
InChI: InChI=1S/C15H11N3O3/c19-14-9-16-15(10-4-2-1-3-5-10)12-8-11(18(20)21)6-7-13(12)17-14/h1-8H,9H2,(H,17,19)
Instrument: Q Exactive Plus Orbitrap Thermo Scientific
Instrument type: LC-ESI-QFT
Ms type: MS2
Ion mode: NEGATIVE
Ionization: ESI
Fragmentation mode: HCD
Collision energy: 90 (nominal)
Resolution: 35000
Column name: XBridge C18 3.5um, 2.1x50mm, Waters
Retention time: 7.7 min
Base peak: 280.0723
Precursor m/z: 280.0728
Precursor type: [M-H]-
m/z	relative intensity	assigned
50.0036	5	C3N-
64.0193	8	C4H2N-
65.0145	4	C3HN2-
65.9985	9	C3NO-
68.0143	3	C3H2NO-
76.0193	4	C5H2N-
90.0349	18	C6H4N-
92.0143	4	C5H2NO-
101.0396	41	C8H5-
113.0398	1	C9H5-
115.0553	30	C9H7-
117.0346	8	C8H5O-
118.03	3	C7H4NO-
125.0397	3	C10H5-
139.0555	1	C11H7-
140.0505	5	C10H6N-
141.0346	27	C10H5O-
146.0249	3	C8H4NO2-
152.0507	4	C11H6N-
155.0254	6	C9H3N2O-
164.0507	7	C12H6N-
165.0586	8	C12H7N-
166.0662	999	C12H8N-
167.0501	4	C12H7O-
177.0584	3	C13H7N-
178.0662	3	C13H8N-
181.0534	7	C12H7NO-
182.061	3	C12H8NO-
191.0614	1	C13H7N2-
192.0456	4	C13H6NO-
193.0531	3	C13H7NO-
194.0612	894	C13H8NO-
195.0562	23	C12H7N2O-
205.0533	33	C14H7NO-
206.0611	34	C14H8NO-
207.0692	1	C14H9NO-
209.0484	3	C13H7NO2-
210.056	9	C13H8NO2-
219.0564	1	C14H7N2O-
221.0482	9	C14H7NO2-
222.0561	314	C14H8NO2-
223.0638	1	C14H9NO2-
224.0718	23	C14H10NO2-
232.0641	1	C15H8N2O-
235.0514	1	C14H7N2O2-
251.046	12	C14H7N2O3-
252.054	22	C14H8N2O3-
