Mass spectrum: Furathiocarb; LC-ESI-QFT; MS2; CE: 120%; R=17500; [M+H]+
Name: Furathiocarb
Name: (2,2-dimethyl-3H-1-benzofuran-7-yl) N-[butoxycarbonyl(methyl)amino]sulfanyl-N-methylcarbamate
Formula: C18H26N2O5S
Exact mass: 382.1562
SMILES: CCCCOC(=O)N(C)SN(C)C(=O)OC1=CC=CC2=C1OC(C2)(C)C
InChI: InChI=1S/C18H26N2O5S/c1-6-7-11-23-16(21)19(4)26-20(5)17(22)24-14-10-8-9-13-12-18(2,3)25-15(13)14/h8-10H,6-7,11-12H2,1-5H3
Instrument: Exploris 240 Orbitrap Thermo Scientific
Instrument type: LC-ESI-QFT
Ms type: MS2
Ion mode: POSITIVE
Ionization: ESI
Fragmentation mode: HCD
Collision energy: 120 % (nominal)
Resolution: 17500
Column name: XBridge C18 3.5um, 2.1x50mm, Waters
Retention time: 13.069 min
Base peak: 383.1633
Precursor m/z: 383.1635
Precursor type: [M+H]+
m/z	relative intensity	assigned
51.0231	26	C4H3+
53.0386	373	C4H5+
55.0179	82	C3H3O+
55.0544	53	C4H7+
58.0288	69	C2H4NO+
58.9951	96	C2H3S+
62.006	78	CH4NS+
65.0385	161	C5H5+
66.0466	118	C5H6+
67.0543	56	C5H7+
68.9796	59	C3HS+
77.0386	332	C6H5+
78.0463	49	C6H6+
79.0543	245	C6H7+
81.0335	147	C5H5O+
81.0699	41	C6H9+
84.9743	138	C3HOS+
91.0542	531	C7H7+
93.0699	77	C7H9+
94.0415	103	C6H6O+
95.049	106	C6H7O+
97.0106	999	C5H5S+
103.0542	679	C8H7+
105.0448	100	C6H5N2+
105.0698	201	C8H9+
109.0284	211	C6H5O2+
115.0543	497	C9H7+
116.0621	235	C9H8+
117.0699	129	C9H9+
119.0494	29	C8H7O+
121.0651	120	C8H9O+
122.0362	45	C7H6O2+
123.0441	132	C7H7O2+
125.0058	184	C6H5OS+
131.0492	199	C9H7O+
134.0183	162	C8H6S+
144.0569	49	C10H8O+
145.0643	27	C10H9O+
147.0441	208	C9H7O2+
149.0604	63	C9H9O2+
161.0599	63	C10H9O2+
