Mass spectrum: N,N-Dimethyl-N'-phenylsulfamide; LC-ESI-ITFT; MS2; CE: 90%; R=30000; [M+H]+
Name: N,N-Dimethyl-N'-phenylsulfamide
Name: DMSA
Formula: C8H12N2O2S
Exact mass: 200.0619
SMILES: S(Nc1ccccc1)(N(C)C)(=O)=O
InChI: InChI=1S/C8H12N2O2S/c1-10(2)13(11,12)9-8-6-4-3-5-7-8/h3-7,9H,1-2H3
Instrument: LTQ Orbitrap XL Thermo Scientific
Instrument type: LC-ESI-ITFT
Ms type: MS2
Ion mode: POSITIVE
Ionization: ESI
Fragmentation mode: HCD
Collision energy: 90 % (nominal)
Resolution: 30000
Column name: XBridge C18 3.5um, 2.1x50mm, Waters
Retention time: 6.3 min
Base peak: 223.0517
Precursor m/z: 201.0692
Precursor type: [M+H]+
m/z	relative intensity	assigned
64.0307	2	C5H4+
65.0386	803	C5H5+
66.0464	4	C5H6+
77.0386	9	C6H5+
79.0542	2	C6H7+
92.0495	999	C6H6N+
93.0573	351	C6H7N+
94.0651	32	C6H8N+
107.0604	5	C6H7N2+
108.0809	4	C7H10N+
120.0807	12	C8H10N+
121.076	9	C7H9N2+
121.0887	3	C8H11N+
122.0839	12	C7H10N2+
135.0916	5	C8H11N2+
136.0996	2	C8H12N2+
