Mass spectrum: Verapamil; LC-ESI-ITFT; MS2; CE: 75%; R=15000; [M+H]+
Name: Verapamil
Name: 2-(3,4-dimethoxyphenyl)-5-[2-(3,4-dimethoxyphenyl)ethyl-methyl-amino]-2-propan-2-yl-pentanenitrile
Formula: C27H38N2O4
Exact mass: 454.2832
SMILES: COC1=C(OC)C=CC(C(C(C)C)(C#N)CCCN(CCC2=CC(OC)=C(OC)C=C2)C)=C1
InChI: InChI=1S/C27H38N2O4/c1-20(2)27(19-28,22-10-12-24(31-5)26(18-22)33-7)14-8-15-29(3)16-13-21-9-11-23(30-4)25(17-21)32-6/h9-12,17-18,20H,8,13-16H2,1-7H3
Instrument: LTQ Orbitrap XL Thermo Scientific
Instrument type: LC-ESI-ITFT
Ms type: MS2
Ion mode: POSITIVE
Ionization: ESI
Fragmentation mode: HCD
Collision energy: 75 % (nominal)
Resolution: 15000
Column name: XBridge C18 3.5um, 2.1x50mm, Waters
Retention time: 7.3 min
Base peak: 455.292
Precursor m/z: 455.2904
Precursor type: [M+H]+
m/z	relative intensity	assigned
58.0652	86	C3H8N+
77.0386	37	C6H5+
79.0543	192	C6H7+
84.0808	31	C5H10N+
86.0965	16	C5H12N+
90.0464	11	C7H6+
91.0543	109	C7H7+
92.0621	17	C7H8+
93.0699	16	C7H9+
94.0653	8	C6H8N+
95.0495	8	C6H7O+
103.0543	210	C8H7+
104.0621	52	C8H8+
105.0699	424	C8H9+
107.0492	148	C7H7O+
108.057	15	C7H8O+
109.0648	26	C7H9O+
115.0543	6	C9H7+
118.0413	112	C8H6O+
119.0492	100	C8H7O+
120.057	81	C8H8O+
121.0649	234	C8H9O+
122.0727	60	C8H10O+
122.0962	10	C8H12N+
123.0443	9	C7H7O2+
124.0521	13	C7H8O2+
131.0493	46	C9H7O+
132.0572	21	C9H8O+
133.0649	234	C9H9O+
133.076	21	C8H9N2+
134.0727	419	C9H10O+
135.0442	358	C8H7O2+
135.0805	92	C9H11O+
136.0519	24	C8H8O2+
137.0597	47	C8H9O2+
138.0676	52	C8H10O2+
139.0756	8	C8H11O2+
146.0727	24	C10H10O+
149.0598	56	C9H9O2+
150.0677	999	C9H10O2+
151.0754	149	C9H11O2+
152.0832	28	C9H12O2+
159.0805	14	C11H11O+
160.0881	8	C11H12O+
164.0832	15	C10H12O2+
165.0911	683	C10H13O2+
172.0755	9	C11H10NO+
174.0917	17	C11H12NO+
176.0708	20	C10H10NO2+
177.0912	47	C11H13O2+
187.0994	24	C12H13NO+
188.0705	10	C11H10NO2+
191.107	20	C12H15O2+
202.0861	25	C12H12NO2+
203.0941	17	C12H13NO2+
218.1174	17	C13H16NO2+
