Mass spectrum: Dodecylguanidine; LC-ESI-QFT; MS2; CE: 75%; R=17500; [M+H]+
Name: Dodecylguanidine
Name: 2-dodecylguanidine
Formula: C13H29N3
Exact mass: 227.2361
SMILES: CCCCCCCCCCCCN=C(N)N
InChI: InChI=1S/C13H29N3/c1-2-3-4-5-6-7-8-9-10-11-12-16-13(14)15/h2-12H2,1H3,(H4,14,15,16)
Instrument: Exploris 240 Orbitrap Thermo Scientific
Instrument type: LC-ESI-QFT
Ms type: MS2
Ion mode: POSITIVE
Ionization: ESI
Fragmentation mode: HCD
Collision energy: 75 % (nominal)
Resolution: 17500
Column name: XBridge C18 3.5um, 2.1x50mm, Waters
Retention time: 11.607 min
Base peak: 228.2432
Precursor m/z: 228.2434
Precursor type: [M+H]+
m/z	relative intensity	assigned
55.0543	32	C4H7+
57.0699	999	C4H9+
60.0556	930	CH6N3+
71.0855	281	C5H11+
85.1012	63	C6H13+
228.2428	193	C13H30N3+
