Mass spectrum: Mefenamic acid; LC-ESI-ITFT; MS2; CE: 90%; R=7500; [M+H]+
Name: Mefenamic acid
Name: 2-(2,3-dimethylanilino)benzoic acid
Formula: C15H15NO2
Exact mass: 241.1103
SMILES: c1(c(cccc1)C(O)=O)Nc1c(c(ccc1)C)C
InChI: InChI=1S/C15H15NO2/c1-10-6-5-9-13(11(10)2)16-14-8-4-3-7-12(14)15(17)18/h3-9,16H,1-2H3,(H,17,18)
Instrument: LTQ Orbitrap XL Thermo Scientific
Instrument type: LC-ESI-ITFT
Ms type: MS2
Ion mode: POSITIVE
Ionization: ESI
Fragmentation mode: HCD
Collision energy: 90 % (nominal)
Resolution: 7500
Column name: XBridge C18 3.5um, 2.1x50mm, Waters
Retention time: 14.5 min
Base peak: 242.1182
Precursor m/z: 242.1176
Precursor type: [M+H]+
m/z	relative intensity	assigned
154.0647	5	C11H8N+
155.0725	6	C11H9N+
166.0648	8	C12H8N+
167.0731	9	C12H9N+
179.073	28	C13H9N+
180.0807	684	C13H10N+
181.0886	167	C13H11N+
183.0678	35	C12H9NO+
192.0801	4	C14H10N+
193.0892	8	C14H11N+
194.0596	8	C13H8NO+
194.0965	38	C14H12N+
195.0685	5	C13H9NO+
196.0753	13	C13H10NO+
204.0807	8	C15H10N+
206.0955	4	C15H12N+
207.0684	11	C14H9NO+
208.0757	525	C14H10NO+
209.0834	999	C14H11NO+
211.0623	5	C13H9NO2+
222.0913	60	C15H12NO+
223.0994	33	C15H13NO+
224.1066	153	C15H14NO+
