Mass spectrum: Dimethomorph; LC-ESI-ITFT; MS2; CE: 75%; R=15000; [M+H]+
Name: Dimethomorph
Name: (Z)-3-(4-chlorophenyl)-3-(3,4-dimethoxyphenyl)-1-(4-morpholinyl)-2-propen-1-one
Formula: C21H22ClNO4
Exact mass: 387.1237
SMILES: COC1=C(C=C(C=C1)/C(=C/C(=O)N2CCOCC2)/C3=CC=C(C=C3)Cl)OC
InChI: InChI=1S/C21H22ClNO4/c1-25-19-8-5-16(13-20(19)26-2)18(15-3-6-17(22)7-4-15)14-21(24)23-9-11-27-12-10-23/h3-8,13-14H,9-12H2,1-2H3/b18-14+
Instrument: LTQ Orbitrap XL Thermo Scientific
Instrument type: LC-ESI-ITFT
Ms type: MS2
Ion mode: POSITIVE
Ionization: ESI
Fragmentation mode: HCD
Collision energy: 75 % (nominal)
Resolution: 15000
Column name: XBridge C18 3.5um, 2.1x50mm, Waters
Retention time: 10.8 min
Base peak: 388.1318
Precursor m/z: 388.131
Precursor type: [M+H]+
m/z	relative intensity	assigned
51.023	2	C4H3+
53.0385	3	C4H5+
65.0385	2	C5H5+
66.0464	16	C5H6+
69.0334	2	C4H5O+
70.0288	150	C3H4NO+
77.0386	37	C6H5+
79.0542	47	C6H7+
81.0699	13	C6H9+
86.9997	4	C4H4Cl+
89.0385	4	C7H5+
91.0546	2	C7H7+
92.0255	3	C6H4O+
94.0414	24	C6H6O+
95.049	2	C6H7O+
102.0463	3	C8H6+
105.0336	11	C7H5O+
105.0447	15	C6H5N2+
107.0126	2	C6H3O2+
107.0492	8	C4H10ClN+
109.0284	11	C6H5O2+
109.0648	54	C7H9O+
110.9995	19	C6H4Cl+
114.0549	25	C5H8NO2+
118.0414	4	C8H6O+
121.0284	17	C7H5O2+
122.0362	100	C7H6O2+
125.0153	268	C7H6Cl+
126.0309	5	C6H6O3+
129.0103	4	C6H6ClO+
131.0492	8	C9H7O+
133.0283	3	C8H5O2+
135.0443	4	C8H7O2+
137.0152	16	C8H6Cl+
137.0597	129	C8H9O2+
138.9945	410	C7H4ClO+
139.0057	91	C9HNO+
146.036	5	C9H6O2+
148.0518	3	C9H8O2+
149.0152	5	C9H6Cl+
150.0312	11	C8H6O3+
151.0537	2	C12H7+
152.062	59	C12H8+
153.07	4	C12H9+
154.0264	3	C4H9ClNO3+
155.0703	11	C8H11O3+
162.9946	13	C9H4ClO+
165.0547	999	C9H9O3+
166.0777	32	C13H10+
167.0855	128	C13H11+
176.0617	11	C14H8+
177.0699	44	C14H9+
178.0776	58	C14H10+
179.0854	20	C14H11+
180.0569	18	C13H8O+
180.0938	2	C14H12+
181.0648	7	C13H9O+
187.0309	55	C12H8Cl+
192.0568	6	C14H8O+
193.0646	18	C11H12ClN+
193.0765	3	C13H9N2+
194.0727	31	C14H10O+
195.0804	157	C14H11O+
199.0309	82	C13H8Cl+
200.0387	7	C13H9Cl+
201.0465	29	C13H10Cl+
202.055	3	C13H11Cl+
205.0648	17	C15H9O+
205.0759	11	C14H9N2+
206.0726	5	C15H10O+
207.0805	16	C15H11O+
208.0517	10	C11H11ClNO+
208.0882	11	C15H12O+
209.0959	3	C15H13O+
212.0387	49	C14H9Cl+
213.0466	18	C14H10Cl+
215.0258	230	C13H8ClO+
220.0528	4	C15H8O2+
221.0597	5	C15H9O2+
222.0676	6	C15H10O2+
223.0753	191	C15H11O2+
226.0182	14	C14H7ClO+
227.0258	256	C14H8ClO+
228.0336	54	C14H9ClO+
229.0414	69	C14H10ClO+
230.0492	19	C14H11ClO+
235.0753	64	C16H11O2+
238.0988	134	C16H14O2+
239.0259	14	C15H8ClO+
240.0337	12	C15H9ClO+
241.0414	46	C15H10ClO+
242.0493	485	C15H11ClO+
243.0207	292	C14H8ClO2+
251.0699	12	C16H11O3+
255.021	6	C15H8ClO2+
256.0284	9	C15H9ClO2+
257.0363	79	C15H10ClO2+
258.0442	208	C15H11ClO2+
266.0935	7	C17H14O3+
269.036	4	C16H10ClO2+
270.0446	18	C16H11ClO2+
271.0152	3	C15H8ClO3+
273.0675	50	C16H14ClO2+
285.0308	13	C16H10ClO3+
286.0393	4	C16H11ClO3+
301.0639	20	C17H14ClO3+
