Mass spectrum: Atenolol; LC-ESI-ITFT; MS2; CE: 90%; R=7500; [M+H]+
Name: Atenolol
Name: 2-[4-[2-hydroxy-3-(isopropylamino)propoxy]phenyl]acetamide
Formula: C14H22N2O3
Exact mass: 266.1630
SMILES: CC(C)NCC(O)COc1ccc(cc1)CC(N)=O
InChI: InChI=1S/C14H22N2O3/c1-10(2)16-8-12(17)9-19-13-5-3-11(4-6-13)7-14(15)18/h3-6,10,12,16-17H,7-9H2,1-2H3,(H2,15,18)
Instrument: LTQ Orbitrap XL Thermo Scientific
Instrument type: LC-ESI-ITFT
Ms type: MS2
Ion mode: POSITIVE
Ionization: ESI
Fragmentation mode: HCD
Collision energy: 90 % (nominal)
Resolution: 7500
Column name: XBridge C18 3.5um, 2.1x50mm, Waters
Retention time: 2.0 min
Base peak: 267.171
Precursor m/z: 267.1703
Precursor type: [M+H]+
m/z	relative intensity	assigned
56.0494	249	C3H6N+
58.0651	57	C3H8N+
72.0808	87	C4H10N+
74.06	296	C3H8NO+
77.0387	71	C6H5+
79.0543	115	C6H7+
84.0812	19	C5H10N+
89.0385	237	C7H5+
91.0542	363	C7H7+
93.0698	127	C7H9+
98.0967	24	C6H12N+
103.0542	41	C8H7+
105.0443	14	C6H5N2+
105.0698	191	C8H9+
106.0651	211	C7H8N+
107.0491	388	C7H7O+
115.0543	172	C9H7+
116.0492	69	C8H6N+
116.1068	22	C6H14NO+
117.0334	58	C8H5O+
117.0697	213	C9H9+
119.0491	140	C8H7O+
121.0645	104	C8H9O+
131.0485	22	C9H7O+
133.0648	560	C9H9O+
134.0601	175	C8H8NO+
145.0647	999	C10H9O+
147.0445	35	C9H7O2+
155.0599	41	C10H7N2+
162.0663	60	C8H8N3O+
164.0703	17	C9H10NO2+
267.1714	18	C14H23N2O3+
