Mass spectrum: Zidovudine; LC-ESI-QFT; MS2; CE: 45; R=35000; [M-H]-
Name: Zidovudine
Name: 1-[(2R,4S,5S)-4-azido-5-(hydroxymethyl)oxolan-2-yl]-5-methylpyrimidine-2,4-dione
Formula: C10H13N5O4
Exact mass: 267.09675
SMILES: CC1=CN(C(=O)NC1=O)[C@H]2C[C@@H]([C@H](O2)CO)N=[N+]=[N-]
InChI: InChI=1S/C10H13N5O4/c1-5-3-15(10(18)12-9(5)17)8-2-6(13-14-11)7(4-16)19-8/h3,6-8,16H,2,4H2,1H3,(H,12,17,18)/t6-,7+,8+/m0/s1
Instrument: Q Exactive Orbitrap Thermo Scientific
Instrument type: LC-ESI-QFT
Ms type: MS2
Ion mode: NEGATIVE
Ionization: ESI
Fragmentation mode: HCD
Collision energy: 45 (nominal)
Resolution: 35000
Column name: XBridge C18 3.5um, 2.1x50mm, Waters
Retention time: 4.3 min
Base peak: 266.0895
Precursor m/z: 266.0895
Precursor type: [M-H]-
m/z	relative intensity	assigned
97.0296	31	C5H5O2-
107.0377	22	C6H5NO-
122.0611	999	C7H8NO-
124.041	27	C6H6NO2-
125.0356	377	C5H5N2O2-
134.0611	98	C8H8NO-
147.0325	93	C8H5NO2-
150.056	584	C8H8NO2-
162.0561	270	C9H8NO2-
180.0665	40	C9H10NO3-
193.0616	147	C9H9N2O3-
223.0724	156	C10H11N2O4-
