Mass spectrum: Napropamid; LC-ESI-ITFT; MS2; CE: 90%; R=7500; [M+H]+
Name: Napropamid
Name: N,N-diethyl-2-(1-naphthalenyloxy)propanamide
Formula: C17H21NO2
Exact mass: 271.1567
SMILES: CCN(CC)C(=O)C(C)OC1=CC=CC2=CC=CC=C21
InChI: InChI=1S/C17H21NO2/c1-4-18(5-2)17(19)13(3)20-16-12-8-10-14-9-6-7-11-15(14)16/h6-13H,4-5H2,1-3H3
Instrument: LTQ Orbitrap XL Thermo Scientific
Instrument type: LC-ESI-ITFT
Ms type: MS2
Ion mode: POSITIVE
Ionization: ESI
Fragmentation mode: HCD
Collision energy: 90 % (nominal)
Resolution: 7500
Column name: XBridge C18 3.5um, 2.1x50mm, Waters
Retention time: 11.7 min
Base peak: 272.1651
Precursor m/z: 272.1645
Precursor type: [M+H]+
m/z	relative intensity	assigned
55.0177	35	C3H3O+
57.0334	92	C3H5O+
58.0651	999	C3H8N+
72.0443	131	C3H6NO+
72.0807	742	C4H10N+
74.0964	181	C4H12N+
86.0601	27	C4H8NO+
100.0757	115	C5H10NO+
100.1121	316	C6H14N+
101.0836	70	C5H11NO+
114.0913	60	C6H12NO+
115.0541	147	C9H7+
116.0621	54	C9H8+
127.0542	22	C10H7+
128.062	937	C10H8+
129.0694	54	C10H9+
141.0699	43	C11H9+
142.0778	24	C11H10+
143.0854	244	C11H11+
144.0568	77	C10H8O+
145.0653	18	C10H9O+
151.054	34	C12H7+
152.0619	355	C12H8+
153.0697	337	C12H9+
155.0603	392	C10H7N2+
171.0803	165	C12H11O+
181.0759	63	C12H9N2+
