Mass spectrum: D617; LC-ESI-ITFT; MS2; CE: 35%; R=7500; [M+H]+
Name: D617
Name: Verapamil metabolite D617
Name: 2-(3,4-dimethoxyphenyl)-2-isopropyl-5-(methylamino)valeronitrile
Formula: C17H26N2O2
Exact mass: 290.1994
SMILES: CC(C)C(CCCNC)(C#N)C1=CC(=C(C=C1)OC)OC
InChI: InChI=1S/C17H26N2O2/c1-13(2)17(12-18,9-6-10-19-3)14-7-8-15(20-4)16(11-14)21-5/h7-8,11,13,19H,6,9-10H2,1-5H3
Instrument: LTQ Orbitrap XL Thermo Scientific
Instrument type: LC-ESI-ITFT
Ms type: MS2
Ion mode: POSITIVE
Ionization: ESI
Fragmentation mode: CID
Collision energy: 35 % (nominal)
Resolution: 7500
Column name: XBridge C18 3.5um, 2.1x50mm, Waters
Retention time: 6.3 min
Base peak: 291.2077
Precursor m/z: 291.2067
Precursor type: [M+H]+
m/z	relative intensity	assigned
96.0804	2	C6H10N+
122.0966	13	C8H12N+
136.052	5	C8H8O2+
151.0755	40	C9H11O2+
153.1387	4	C9H17N2+
163.0757	6	C10H11O2+
165.091	9	C10H13O2+
175.0755	8	C11H11O2+
177.0912	48	C11H13O2+
203.1059	2	C13H15O2+
215.1062	4	C14H15O2+
218.1177	18	C13H16NO2+
219.1384	5	C14H19O2+
231.1382	4	C15H19O2+
232.1339	5	C14H18NO2+
233.1286	14	C13H17N2O2+
233.1536	35	C15H21O2+
243.1382	50	C16H19O2+
245.1416	9	C15H19NO2+
247.1449	16	C14H19N2O2+
248.1523	999	C14H20N2O2+
249.1599	24	C14H21N2O2+
260.1649	906	C16H22NO2+
264.1959	19	C16H26NO2+
