Mass spectrum: 2-Chlorobenzenesulfonamide; LC-ESI-QFT; MS2; CE: 45; R=35000; [M+H]+
Name: 2-Chlorobenzenesulfonamide
Name: 2-chlorobenzenesulfonamide
Formula: C6H6ClNO2S
Exact mass: 190.98078
SMILES: C1=CC=C(C(=C1)S(=O)(=O)N)Cl
InChI: InChI=1S/C6H6ClNO2S/c7-5-3-1-2-4-6(5)11(8,9)10/h1-4H,(H2,8,9,10)
Instrument: Q Exactive Orbitrap Thermo Scientific
Instrument type: LC-ESI-QFT
Ms type: MS2
Ion mode: POSITIVE
Ionization: ESI
Fragmentation mode: HCD
Collision energy: 45 (nominal)
Resolution: 35000
Column name: XBridge C18 3.5um, 2.1x50mm, Waters
Retention time: 4.4 min
Base peak: 191.988
Precursor m/z: 191.9881
Precursor type: [M+H]+
m/z	relative intensity	assigned
50.0152	2	C4H2+
65.0385	10	C5H5+
74.015	2	C6H2+
75.0228	24	C6H3+
79.0178	4	C5H3O+
84.9838	2	C4H2Cl+
86.9996	38	C4H4Cl+
93.0334	55	C6H5O+
94.0413	67	C6H6O+
98.0361	2	C5H6O2+
101.0153	4	C5H6Cl+
110.9994	34	C6H4Cl+
111.044	220	C6H7O2+
114.9944	2	C5H4ClO+
121.0396	53	C6H5N2O+
126.9945	10	C6H4ClO+
128.0021	1	C6H5ClO+
129.0101	341	C6H6ClO+
130.9716	3	C5H4ClS+
132.9589	1	ClH4NO3S+
139.0058	999	C6H4ClN2+
174.9613	198	C6H4ClO2S+
