Mass spectrum: 8-Hydroxy Mirtazapine; LC-ESI-QFT; MS2; CE: 60; R=35000; [M+H]+
Name: 8-Hydroxy Mirtazapine
Name: 2-Methyl-1,2,3,4,10,14b-hexahydropyrazino[2,1-a]pyrido[2,3-c][2]benzazepin-8-ol
Formula: C17H19N3O
Exact mass: 281.15281
SMILES: CN1CCN2C(C1)C3=CC=CC=C3CC4=CC(=CN=C42)O
InChI: InChI=1S/C17H19N3O/c1-19-6-7-20-16(11-19)15-5-3-2-4-12(15)8-13-9-14(21)10-18-17(13)20/h2-5,9-10,16,21H,6-8,11H2,1H3
Instrument: Q Exactive Plus Orbitrap Thermo Scientific
Instrument type: LC-ESI-QFT
Ms type: MS2
Ion mode: POSITIVE
Ionization: ESI
Fragmentation mode: HCD
Collision energy: 60 (nominal)
Resolution: 35000
Column name: XBridge C18 3.5um, 2.1x50mm, Waters
Retention time: 4.2 min
Base peak: 282.1591
Precursor m/z: 282.1601
Precursor type: [M+H]+
m/z	relative intensity	assigned
53.0385	1	C4H5+
56.0494	2	C3H6N+
57.0573	1	C3H7N+
58.0651	26	C3H8N+
68.013	6	C3H2NO+
70.065	32	C4H8N+
72.0807	314	C4H10N+
80.0493	2	C5H6N+
82.065	1	C5H8N+
85.076	2	C4H9N2+
91.0541	7	C7H7+
94.065	1	C6H8N+
98.0838	1	C5H10N2+
103.0541	1	C8H7+
105.0446	4	C6H5N2+
105.0697	5	C8H9+
108.0443	4	C6H6NO+
109.0395	2	C5H5N2O+
110.0473	1	C5H6N2O+
115.0541	18	C9H7+
116.0493	2	C8H6N+
117.0698	5	C9H9+
121.076	1	C7H9N2+
123.0551	7	C6H7N2O+
126.0548	46	C6H8NO2+
129.0697	4	C10H9+
130.0651	2	C9H8N+
131.0728	5	C9H9N+
133.0884	2	C9H11N+
135.0553	2	C7H7N2O+
137.0709	1	C7H9N2O+
141.0697	2	C11H9+
144.0806	12	C10H10N+
146.0964	3	C10H12N+
147.0551	4	C8H7N2O+
149.0709	10	C8H9N2O+
151.05	1	C7H7N2O2+
151.0861	1	C8H11N2O+
153.0698	1	C12H9+
156.0806	2	C11H10N+
157.0884	1	C11H11N+
158.0964	3	C11H12N+
166.065	36	C12H8N+
167.0727	3	C12H9N+
168.0806	2	C12H10N+
169.0758	2	C11H9N2+
170.0961	4	C12H12N+
179.085	1	C14H11+
180.0806	2	C13H10N+
181.0752	1	C12H9N2+
182.0836	5	C12H10N2+
183.0679	3	C12H9NO+
183.0915	6	C12H11N2+
184.0752	2	C12H10NO+
194.0835	3	C13H10N2+
195.0674	2	C13H9NO+
195.0915	1	C13H11N2+
196.0755	16	C13H10NO+
197.0705	1	C12H9N2O+
197.0835	1	C13H11NO+
197.107	1	C13H13N2+
198.0912	14	C13H12NO+
207.0916	1	C14H11N2+
208.0758	3	C14H10NO+
209.0706	1	C13H9N2O+
210.0786	48	C13H10N2O+
211.0864	999	C13H11N2O+
221.0707	1	C14H9N2O+
222.0786	4	C14H10N2O+
222.0912	1	C15H12NO+
223.0864	13	C14H11N2O+
224.0945	4	C14H12N2O+
225.102	124	C14H13N2O+
233.0834	1	C16H11NO+
234.0913	4	C16H12NO+
235.0864	14	C15H11N2O+
236.0942	10	C15H12N2O+
237.1021	5	C15H13N2O+
239.1177	26	C15H15N2O+
249.1021	6	C16H13N2O+
250.0971	1	C15H12N3O+
251.1176	42	C16H15N2O+
253.1332	3	C16H17N2O+
265.1204	2	C16H15N3O+
280.144	11	C17H18N3O+
282.1598	6	C17H20N3O+
