Mass spectrum: Cefalexin; LC-ESI-QFT; MS2; CE: 45; R=35000; [M-H]-
Name: Cefalexin
Name: 7-[(2-amino-1-oxo-2-phenylethyl)amino]-3-methyl-8-oxo-5-thia-1-azabicyclo[4.2.0]oct-2-ene-2-carboxylic acid
Formula: C16H17N3O4S
Exact mass: 347.09398
SMILES: CC1=C(N2C(C(C2=O)NC(=O)C(C3=CC=CC=C3)N)SC1)C(=O)O
InChI: InChI=1S/C16H17N3O4S/c1-8-7-24-15-11(14(21)19(15)12(8)16(22)23)18-13(20)10(17)9-5-3-2-4-6-9/h2-6,10-11,15H,7,17H2,1H3,(H,18,20)(H,22,23)
Instrument: Q Exactive Orbitrap Thermo Scientific
Instrument type: LC-ESI-QFT
Ms type: MS2
Ion mode: NEGATIVE
Ionization: ESI
Fragmentation mode: HCD
Collision energy: 45 (nominal)
Resolution: 35000
Column name: XBridge C18 3.5um, 2.1x50mm, Waters
Retention time: 4.4 min
Base peak: 346.0868
Precursor m/z: 346.0867
Precursor type: [M-H]-
m/z	relative intensity	assigned
56.9804	25	C2HS-
57.9756	27	CNS-
58.9961	18	C2H3S-
59.9914	1	CH2NS-
60.9754	16	CHOS-
63.9626	1	O2S-
65.0146	8	C3HN2-
65.9986	11	C3NO-
66.035	3	C4H4N-
67.0302	8	C3H3N2-
68.0142	25	C3H2NO-
70.9835	16	C2HNS-
71.9913	26	C2H2NS-
72.0092	20	C2H2NO2-
72.9992	7	C2H3NS-
73.0118	38	C3H5S-
74.007	161	C2H4NS-
80.0506	13	C5H6N-
81.9758	3	C3NS-
82.0299	1	C4H4NO-
83.9914	15	C3H2NS-
84.0092	7	C3H2NO2-
84.9991	2	C3H3NS-
85.0295	9	C4H5O2-
86.0071	2	C3H4NS-
92.0506	21	C6H6N-
93.0459	34	C5H5N2-
94.0664	2	C6H8N-
96.0456	20	C5H6NO-
96.9994	4	C4H3NS-
99.9863	36	C3H2NOS-
100.0227	26	C4H6NS-
100.0405	2	C4H6NO2-
101.0397	3	C8H5-
102.0019	1	C3H4NOS-
102.0351	27	C7H4N-
104.0509	2	C7H6N-
105.0459	34	C6H5N2-
106.0537	3	C6H6N2-
107.0615	422	C6H7N2-
108.0455	63	C6H6NO-
109.0772	262	C6H9N2-
110.0614	9	C6H8NO-
111.0201	9	C4H3N2O2-
112.0405	139	C5H6NO2-
114.0384	27	C5H8NS-
115.0226	14	C5H7OS-
116.0507	61	C8H6N-
117.0347	3	C8H5O-
118.0301	4	C7H4NO-
118.0539	2	C7H6N2-
118.0663	7	C8H8N-
119.0615	11	C7H7N2-
120.0458	2	C7H6NO-
121.0772	109	C7H9N2-
122.0486	21	C6H6N2O-
122.0611	3	C7H8NO-
123.0565	44	C6H7N2O-
124.0227	40	C6H6NS-
124.0404	55	C6H6NO2-
125.0065	2	C6H5OS-
126.0196	2	C5H4NO3-
126.0383	23	C6H8NS-
127.9815	2	C4H2NO2S-
128.0507	3	C9H6N-
131.0617	1	C8H7N2-
132.0456	1	C8H6NO-
132.0569	7	C7H6N3-
133.0406	2	C7H5N2O-
134.0487	3	C7H6N2O-
134.0612	33	C8H8NO-
134.0722	3	C7H8N3-
135.0565	186	C7H7N2O-
136.0405	3	C7H6NO2-
137.072	27	C7H9N2O-
139.0877	2	C7H11N2O-
140.0355	3	C6H6NO3-
140.0504	1	C10H6N-
141.0253	3	C6H7NOS-
141.0495	2	C6H9N2S-
142.0332	189	C6H8NOS-
143.0616	3	C9H7N2-
144.0457	2	C9H6NO-
145.0774	2	C9H9N2-
147.0564	10	C8H7N2O-
151.0513	15	C7H7N2O2-
152.0177	20	C7H6NOS-
155.0614	2	C10H7N2-
156.0695	28	C10H8N2-
157.0771	8	C10H9N2-
158.0281	34	C6H8NO2S-
158.0613	2	C10H8NO-
159.0565	15	C9H7N2O-
161.0357	3	C8H5N2O2-
161.0721	7	C9H9N2O-
162.0437	41	C8H6N2O2-
163.0515	3	C8H7N2O2-
164.0351	3	C8H6NO3-
165.0669	10	C8H9N2O2-
166.0331	6	C8H8NOS-
168.0567	10	C10H6N3-
169.0442	25	C7H9N2OS-
171.0563	14	C10H7N2O-
172.0404	21	C10H6NO2-
172.088	3	C10H10N3-
173.0482	121	C10H7NO2-
173.0719	999	C10H9N2O-
175.0513	8	C9H7N2O2-
181.0646	30	C11H7N3-
183.0927	12	C12H11N2-
187.0513	20	C10H7N2O2-
189.0493	58	C10H9N2S-
189.0671	73	C10H9N2O2-
190.0337	10	C10H8NOS-
192.0489	4	C10H10NOS-
197.1087	10	C13H13N2-
198.0929	2	C13H12NO-
199.0512	21	C11H7N2O2-
200.0592	97	C11H8N2O2-
201.0673	2	C11H9N2O2-
207.0602	23	C10H11N2OS-
207.0928	170	C14H11N2-
208.0884	14	C13H10N3-
213.0543	3	C11H7N3O2-
213.1031	2	C13H13N2O-
214.062	2	C11H8N3O2-
215.0699	6	C11H9N3O2-
216.078	51	C11H10N3O2-
217.0209	2	C11H7NO2S-
222.1041	3	C14H12N3-
223.1118	3	C14H13N3-
224.1198	15	C14H14N3-
225.1034	16	C14H13N2O-
229.0983	2	C13H13N2O2-
233.0391	190	C11H9N2O2S-
240.1143	15	C14H14N3O-
251.0827	18	C15H11N2O2-
252.0903	6	C15H12N2O2-
256.1094	18	C14H14N3O2-
268.1093	9	C15H14N3O2-
284.0789	2	C15H12N2O4-
