Mass spectrum: Triethylene Glycol Monododecyl Ether; LC-ESI-QFT; MS2; CE: 60%; R=17500; [M+H]+
Name: Triethylene Glycol Monododecyl Ether
Name: 2-[2-(2-dodecoxyethoxy)ethoxy]ethanol
Formula: C18H38O4
Exact mass: 318.2770
SMILES: CCCCCCCCCCCCOCCOCCOCCO
InChI: InChI=1S/C18H38O4/c1-2-3-4-5-6-7-8-9-10-11-13-20-15-17-22-18-16-21-14-12-19/h19H,2-18H2,1H3
Instrument: Exploris 240 Orbitrap Thermo Scientific
Instrument type: LC-ESI-QFT
Ms type: MS2
Ion mode: POSITIVE
Ionization: ESI
Fragmentation mode: HCD
Collision energy: 60 % (nominal)
Resolution: 17500
Column name: XBridge C18 3.5um, 2.1x50mm, Waters
Retention time: 16.060 min
Base peak: 319.284
Precursor m/z: 319.2843
Precursor type: [M+H]+
m/z	relative intensity	assigned
57.0699	999	C4H9+
69.07	29	C5H9+
71.0855	343	C5H11+
85.1011	125	C6H13+
89.0597	435	C4H9O2+
