Mass spectrum: D617; LC-ESI-ITFT; MS2; CE: 60%; R=15000; [M+H]+
Name: D617
Name: Verapamil metabolite D617
Name: 2-(3,4-dimethoxyphenyl)-2-isopropyl-5-(methylamino)valeronitrile
Formula: C17H26N2O2
Exact mass: 290.1994
SMILES: CC(C)C(CCCNC)(C#N)C1=CC(=C(C=C1)OC)OC
InChI: InChI=1S/C17H26N2O2/c1-13(2)17(12-18,9-6-10-19-3)14-7-8-15(20-4)16(11-14)21-5/h7-8,11,13,19H,6,9-10H2,1-5H3
Instrument: LTQ Orbitrap XL Thermo Scientific
Instrument type: LC-ESI-ITFT
Ms type: MS2
Ion mode: POSITIVE
Ionization: ESI
Fragmentation mode: HCD
Collision energy: 60 % (nominal)
Resolution: 15000
Column name: XBridge C18 3.5um, 2.1x50mm, Waters
Retention time: 6.3 min
Base peak: 291.2077
Precursor m/z: 291.2067
Precursor type: [M+H]+
m/z	relative intensity	assigned
67.0542	18	C5H7+
70.0652	157	C4H8N+
72.0808	19	C4H10N+
79.0542	18	C6H7+
80.0495	24	C5H6N+
81.0574	8	C5H7N+
81.0698	12	C6H9+
91.0543	16	C7H7+
93.0698	11	C7H9+
94.0651	48	C6H8N+
95.0492	14	C6H7O+
95.0856	69	C7H11+
96.0808	111	C6H10N+
103.0542	18	C8H7+
105.0699	73	C8H9+
106.0416	12	C7H6O+
107.0491	13	C7H7O+
107.073	21	C7H9N+
108.0807	16	C7H10N+
110.0965	27	C7H12N+
117.0701	18	C9H9+
121.0649	54	C8H9O+
122.0965	116	C8H12N+
123.0441	25	C7H7O2+
124.0519	54	C7H8O2+
126.1277	18	C8H16N+
131.0489	14	C9H7O+
133.0647	19	C9H9O+
134.0725	9	C9H10O+
135.0439	10	C8H7O2+
135.0805	17	C9H11O+
136.0519	135	C8H8O2+
137.0598	132	C8H9O2+
138.0675	248	C8H10O2+
139.0754	84	C8H11O2+
144.0566	8	C10H8O+
145.0649	14	C10H9O+
146.0726	99	C10H10O+
147.0802	21	C10H11O+
150.0676	110	C9H10O2+
151.0755	999	C9H11O2+
153.1386	17	C9H17N2+
159.0805	23	C11H11O+
160.0763	19	C10H10NO+
160.0882	39	C11H12O+
161.0599	8	C10H9O2+
161.0963	10	C11H13O+
162.0677	25	C10H10O2+
163.0752	29	C10H11O2+
164.0833	57	C10H12O2+
165.0911	575	C10H13O2+
172.0757	20	C11H10NO+
173.0965	12	C12H13O+
174.0914	46	C11H12NO+
175.075	10	C11H11O2+
176.0707	32	C10H10NO2+
176.0832	33	C11H12O2+
177.091	546	C11H13O2+
178.0991	13	C11H14O2+
179.1065	38	C11H15O2+
186.0914	43	C12H12NO+
187.0993	93	C12H13NO+
188.0708	26	C11H10NO2+
189.0785	12	C11H11NO2+
189.0909	13	C12H13O2+
190.0864	45	C11H12NO2+
191.1067	89	C12H15O2+
192.1144	53	C12H16O2+
197.0958	19	C14H13O+
201.0914	12	C13H13O2+
202.0863	202	C12H12NO2+
203.0941	99	C12H13NO2+
204.1017	18	C12H14NO2+
212.1194	18	C15H16O+
214.1224	57	C14H16NO+
216.103	18	C13H14NO2+
217.1098	87	C13H15NO2+
218.1176	113	C13H16NO2+
220.133	17	C13H18NO2+
228.1139	10	C15H16O2+
230.1176	40	C14H16NO2+
233.1285	212	C13H17N2O2+
233.1547	18	C15H21O2+
243.1387	20	C16H19O2+
244.1337	41	C15H18NO2+
245.1407	17	C15H19NO2+
247.1441	85	C14H19N2O2+
248.1517	98	C14H20N2O2+
260.1649	75	C16H22NO2+
