Mass spectrum: Tritosulfuron; LC-ESI-ITFT; MS2; CE: 60%; R=7500; [M-H]-
Name: Tritosulfuron
Name: N-{[4-methoxy-6-(trifluoromethyl)-1,3,5-triazin-2-yl]carbamoyl}-2-(trifluoromethyl)benzenesulfonamide
Formula: C13H9F6N5O4S
Exact mass: 445.0279
SMILES: c1c(S(=O)(=O)NC(Nc2nc(nc(n2)C(F)(F)F)OC)=O)c(C(F)(F)F)ccc1
InChI: InChI=1S/C13H9F6N5O4S/c1-28-11-21-8(13(17,18)19)20-9(23-11)22-10(25)24-29(26,27)7-5-3-2-4-6(7)12(14,15)16/h2-5H,1H3,(H2,20,21,22,23,24,25)
Instrument: LTQ Orbitrap XL Thermo Scientific
Instrument type: LC-ESI-ITFT
Ms type: MS2
Ion mode: NEGATIVE
Ionization: ESI
Fragmentation mode: HCD
Collision energy: 60 % (nominal)
Resolution: 7500
Column name: XBridge C18 3.5um, 2.1x50mm, Waters
Retention time: 10.5 min
Base peak: 444.0204
Precursor m/z: 444.0207
Precursor type: [M-H]-
m/z	relative intensity	assigned
66.0099	121	C2N3-
123.0316	35	C4H3N4O-
136.013	70	C8H2F2-
161.0084	107	C9HF2N-
163.0243	5	C9H3F2N-
178.0111	11	C6H7FO3S-
193.0348	999	C10H5F2NO-
