Mass spectrum: Doxazosin; LC-ESI-QFT; MS2; CE: 60; R=35000; [M-H]-
Name: Doxazosin
Name: [4-(4-amino-6,7-dimethoxyquinazolin-2-yl)piperazin-1-yl]-(2,3-dihydro-1,4-benzodioxin-3-yl)methanone
Formula: C23H25N5O5
Exact mass: 451.18557
SMILES: COC1=C(C=C2C(=C1)C(=NC(=N2)N3CCN(CC3)C(=O)C4COC5=CC=CC=C5O4)N)OC
InChI: InChI=1S/C23H25N5O5/c1-30-18-11-14-15(12-19(18)31-2)25-23(26-21(14)24)28-9-7-27(8-10-28)22(29)20-13-32-16-5-3-4-6-17(16)33-20/h3-6,11-12,20H,7-10,13H2,1-2H3,(H2,24,25,26)
Instrument: Q Exactive Orbitrap Thermo Scientific
Instrument type: LC-ESI-QFT
Ms type: MS2
Ion mode: NEGATIVE
Ionization: ESI
Fragmentation mode: HCD
Collision energy: 60 (nominal)
Resolution: 35000
Column name: XBridge C18 3.5um, 2.1x50mm, Waters
Retention time: 7.2 min
Base peak: 496.1842
Precursor m/z: 450.1783
Precursor type: [M-H]-
m/z	relative intensity	assigned
59.0139	5	C2H3O2-
65.9985	6	C3NO-
67.0302	58	C3H3N2-
70.0299	1	C3H4NO-
81.0347	5	C5H5O-
81.0459	17	C4H5N2-
85.0295	1	C4H5O2-
90.0349	6	C6H4N-
91.019	2	C6H3O-
92.0506	59	C6H6N-
93.0346	15	C6H5O-
106.0284	2	C4H2N4-
107.0378	14	C6H5NO-
108.0218	54	C6H4O2-
108.0456	361	C6H6NO-
109.0295	999	C6H5O2-
110.0725	6	C5H8N3-
118.03	149	C7H4NO-
119.025	31	C6H3N2O-
120.0455	66	C7H6NO-
121.0296	9	C7H5O2-
132.0454	9	C8H6NO-
133.041	1	C7H5N2O-
134.0248	63	C7H4NO2-
134.0611	56	C8H8NO-
135.0452	183	C8H7O2-
144.0202	25	C7H2N3O-
145.0282	9	C7H3N3O-
145.0405	6	C8H5N2O-
146.036	4	C7H4N3O-
147.02	65	C7H3N2O2-
148.0277	6	C7H4N2O2-
148.0404	14	C8H6NO2-
148.0771	1	C9H10NO-
150.056	14	C8H8NO2-
158.0122	1	C8H2N2O2-
158.0361	1	C8H4N3O-
160.0404	4	C9H6NO2-
160.0517	2	C8H6N3O-
160.0767	1	C10H10NO-
161.0358	1	C8H5N2O2-
161.0468	2	C7H5N4O-
162.0311	2	C7H4N3O2-
162.0434	15	C8H6N2O2-
171.0434	1	C9H5N3O-
171.0677	5	C9H7N4-
172.0153	72	C8H2N3O2-
172.0516	40	C9H6N3O-
173.0231	7	C8H3N3O2-
173.0355	4	C9H5N2O2-
173.0598	3	C9H7N3O-
174.0308	1	C8H4N3O2-
174.0545	5	C8H6N4O-
174.0673	3	C9H8N3O-
175.0626	1	C8H7N4O-
177.1033	4	C10H13N2O-
178.0508	14	C9H8NO3-
185.0471	4	C9H5N4O-
185.0832	1	C10H9N4-
186.0308	3	C9H4N3O2-
186.0548	35	C9H6N4O-
186.0672	13	C10H8N3O-
187.0389	56	C9H5N3O2-
187.0625	76	C9H7N4O-
188.0341	3	C8H4N4O2-
188.0466	15	C9H6N3O2-
188.0703	18	C9H8N4O-
189.0419	62	C8H5N4O2-
199.0383	1	C10H5N3O2-
199.0627	10	C10H7N4O-
200.0341	1	C9H4N4O2-
200.0701	2	C10H8N4O-
201.0415	1	C9H5N4O2-
201.0546	12	C10H7N3O2-
201.0782	36	C10H9N4O-
202.0498	16	C9H6N4O2-
202.0622	14	C10H8N3O2-
203.0577	1	C9H7N4O2-
203.07	5	C10H9N3O2-
204.0653	38	C9H8N4O2-
213.0419	14	C10H5N4O2-
213.0547	6	C11H7N3O2-
213.0783	41	C11H9N4O-
214.0497	247	C10H6N4O2-
215.0575	429	C10H7N4O2-
216.0653	42	C10H8N4O2-
216.0777	15	C11H10N3O2-
217.073	17	C10H9N4O2-
220.0609	1	C9H8N4O3-
227.0579	3	C11H7N4O2-
227.0941	2	C12H11N4O-
228.0653	10	C11H8N4O2-
228.0771	2	C12H10N3O2-
229.073	168	C11H9N4O2-
229.0964	14	C11H11N5O-
230.0809	84	C11H10N4O2-
230.1046	47	C11H12N5O-
231.0886	16	C11H11N4O2-
233.0677	14	C10H9N4O3-
240.065	1	C12H8N4O2-
241.0731	74	C12H9N4O2-
242.0812	14	C12H10N4O2-
243.0885	6	C12H11N4O2-
244.0968	3	C12H12N4O2-
244.12	1	C12H14N5O-
245.1039	1	C12H13N4O2-
247.0836	2	C11H11N4O3-
255.089	3	C13H11N4O2-
256.0841	1	C12H10N5O2-
256.0965	4	C13H12N4O2-
257.092	21	C12H11N5O2-
257.1045	3	C13H13N4O2-
258.0995	153	C12H12N5O2-
259.0834	1	C12H11N4O3-
261.0873	4	C11H11N5O3-
272.1157	7	C13H14N5O2-
273.1231	13	C13H15N5O2-
276.1104	8	C12H14N5O3-
284.1152	2	C14H14N5O2-
308.0919	1	C16H12N4O3-
312.1101	5	C15H14N5O3-
420.1323	4	C21H18N5O5-
