Mass spectrum: Fluazifop; LC-ESI-ITFT; MS2; CE: 60%; R=15000; [M-H]-
Name: Fluazifop
Name: 2-[4-[5-(trifluoromethyl)pyridin-2-yl]oxyphenoxy]propanoic acid
Formula: C15H12F3NO4
Exact mass: 327.0724
SMILES: CC(C(=O)O)OC1=CC=C(C=C1)OC2=NC=C(C=C2)C(F)(F)F
InChI: InChI=1S/C15H12F3NO4/c1-9(14(20)21)22-11-3-5-12(6-4-11)23-13-7-2-10(8-19-13)15(16,17)18/h2-9H,1H3,(H,20,21)
Instrument: LTQ Orbitrap XL Thermo Scientific
Instrument type: LC-ESI-ITFT
Ms type: MS2
Ion mode: NEGATIVE
Ionization: ESI
Fragmentation mode: HCD
Collision energy: 60 % (nominal)
Resolution: 15000
Column name: XBridge C18 3.5um, 2.1x50mm, Waters
Retention time: 10.8 min
Base peak: 326.0639
Precursor m/z: 326.0646
Precursor type: [M-H]-
m/z	relative intensity	assigned
108.0215	785	C6H4O2-
150.0347	74	C11H4N-
160.0374	40	C7H5F3N-
162.0172	135	C6H3F3NO-
170.0416	42	C11H5FN-
178.0474	81	C10H6F2N-
184.0377	77	C9H5F3N-
190.0474	65	C11H6F2N-
198.0535	296	C10H7F3N-
199.025	187	C9H4F3NO-
200.032	45	C9H5F3NO-
206.0421	779	C11H6F2NO-
210.0536	165	C11H7F3N-
212.0328	184	C10H5F3NO-
226.0484	999	C11H7F3NO-
234.0368	114	C12H6F2NO2-
253.0352	328	C12H6F3NO2-
254.0433	863	C12H7F3NO2-
