Mass spectrum: Dimethyl-phthalate; LC-ESI-QFT; MS2; CE: 90; R=35000; [M+H]+
Name: Dimethyl-phthalate
Name: Dimethyl phthalate
Name: Dimethyl benzene-1,2-dicarboxylate
Formula: C10H10O4
Exact mass: 194.05791
SMILES: COC(=O)C1=CC=CC=C1C(=O)OC
InChI: InChI=1S/C10H10O4/c1-13-9(11)7-5-3-4-6-8(7)10(12)14-2/h3-6H,1-2H3
Instrument: Q Exactive Plus Orbitrap Thermo Scientific
Instrument type: LC-ESI-QFT
Ms type: MS2
Ion mode: POSITIVE
Ionization: ESI
Fragmentation mode: HCD
Collision energy: 90 (nominal)
Resolution: 35000
Column name: XBridge C18 3.5um, 2.1x50mm, Waters
Retention time: 6.5 min
Base peak: 163.0386
Precursor m/z: 195.0652
Precursor type: [M+H]+
m/z	relative intensity	assigned
50.0151	29	C4H2+
51.023	39	C4H3+
53.0386	295	C4H5+
54.0464	1	C4H6+
55.0179	19	C3H3O+
63.023	10	C5H3+
64.0307	8	C5H4+
65.0386	6	C5H5+
67.0542	4	C5H7+
68.9971	1	C3HO2+
77.0386	811	C6H5+
79.0542	236	C6H7+
80.0257	1	C5H4O+
81.0335	42	C5H5O+
91.0543	18	C7H7+
92.0257	649	C6H4O+
94.0413	22	C6H6O+
95.0492	999	C6H7O+
105.0336	332	C7H5O+
105.0448	719	C6H5N2+
106.0418	6	C7H6O+
107.0492	28	C7H7O+
109.0649	4	C7H9O+
119.0492	1	C8H7O+
120.0207	98	C7H4O2+
133.0285	455	C8H5O2+
135.0441	532	C8H7O2+
138.0312	33	C7H6O3+
163.0391	299	C9H7O3+
