Mass spectrum: Sulisobenzone; LC-ESI-QFT; MS2; CE: 120%; R=15000; [M+H]+
Name: Sulisobenzone
Name: 5-benzoyl-4-hydroxy-2-methoxybenzenesulfonic acid
Formula: C14H12O6S
Exact mass: 308.0355
SMILES: COC1=C(C=C(C(=C1)O)C(=O)C2=CC=CC=C2)S(=O)(=O)O
InChI: InChI=1S/C14H12O6S/c1-20-12-8-11(15)10(7-13(12)21(17,18)19)14(16)9-5-3-2-4-6-9/h2-8,15H,1H3,(H,17,18,19)
Instrument: Orbitrap Exploris 240 Thermo Scientific
Instrument type: LC-ESI-QFT
Ms type: MS2
Ion mode: POSITIVE
Ionization: ESI
Fragmentation mode: HCD
Collision energy: 120 % (nominal)
Resolution: 15000
Column name: Atlantis C18 3um, 3.0x150mm, Waters
Retention time: 21.459 min
Base peak: 301.141
Precursor m/z: 309.0427
Precursor type: [M+H]+
Precursor intensity: 2643682.25
m/z	relative intensity	assigned
50.0152	105	C4H2+
51.0229	670	C4H3+
53.0022	673	C3HO+
53.0387	133	C4H5+
55.0179	123	C3H3O+
63.0229	119	C5H3+
64.0308	95	C5H4+
65.0386	436	C5H5+
66.0465	56	C5H6+
68.997	171	C3HO2+
77.0386	365	C6H5+
79.0179	999	C5H3O+
91.018	47	C6H3O+
92.0257	151	C6H4O+
93.0333	56	C6H5O+
94.0416	103	C6H6O+
95.0492	284	C6H7O+
97.0286	103	C5H5O2+
105.0336	47	C7H5O+
105.0447	325	
107.0129	86	C6H3O2+
120.0206	185	C7H4O2+
121.0282	250	C7H5O2+
128.0621	67	C10H8+
