Mass spectrum: MCLF; LC-ESI-QFT; MS2; CE: 75%; R=17500; [M-H]-
Name: MCLF
Name: Microcystin LF
Name: 15-benzyl-18-[(1E,3E)-6-methoxy-3,5-dimethyl-7-phenylhepta-1,3-dienyl]-1,5,12,19-tetramethyl-2-methylidene-8-(2-methylpropyl)-3,6,9,13,16,20,25-heptaoxo-1,4,7,10,14,17,21-heptazacyclopentacosane-11,22-dicarboxylic acid
Class: NA
Formula: C52H71N7O12
Exact mass: 985.5161
SMILES: COC(Cc1ccccc1)C(C)/C=C(C)/C=C/C2NC(=O)C(Cc3ccccc3)NC(=O)C(C)C(NC(=O)C(CC(C)C)NC(=O)C(C)NC(=O)C(=C)N(C)C(=O)CCC(NC(=O)C2C)C(O)=O)C(O)=O
InChI: InChI=1S/C52H71N7O12/c1-29(2)25-40-50(66)58-44(52(69)70)33(6)46(62)56-41(27-36-17-13-11-14-18-36)49(65)54-38(22-21-30(3)26-31(4)42(71-10)28-37-19-15-12-16-20-37)32(5)45(61)55-39(51(67)68)23-24-43(60)59(9)35(8)48(64)53-34(7)47(63)57-40/h11-22,26,29,31-34,38-42,44H,8,23-25,27-28H2,1-7,9-10H3,(H,53,64)(H,54,65)(H,55,61)(H,56,62)(H,57,63)(H,58,66)(H,67,68)(H,69,70)/b22-21+,30-26+
Instrument: Q Exactive Plus Orbitrap Thermo Scientific
Instrument type: LC-ESI-QFT
Ms type: MS2
Ion mode: NEGATIVE
Ionization: ESI
Fragmentation mode: HCD
Collision energy: 75 % (nominal)
Resolution: 17500
Column name: XBridge C18 3.5um, 2.1x50mm, Waters
Retention time: 12.295 min
Base peak: 190.9277
Precursor m/z: 984.5088
Precursor type: [M-H]-
m/z	relative intensity	assigned
70.0298	35	C3H4NO-
72.0456	108	C3H6NO-
73.0296	28	C3H5O2-
74.0251	111	C2H4NO2-
80.0507	36	C5H6N-
82.0301	106	C4H4NO-
82.0664	102	C5H8N-
84.0456	195	C4H6NO-
87.0565	150	C3H7N2O-
95.0251	58	C4H3N2O-
96.0453	43	C5H6NO-
96.082	72	C6H10N-
96.7662	31	
97.0408	79	C4H5N2O-
98.0124	24	C3H2N2O2-
99.0565	124	C4H7N2O-
108.033	70	C5H4N2O-
109.0171	27	C5H3NO2-
109.0409	145	C5H5N2O-
110.0248	999	C5H4NO2-
111.0203	59	C4H3N2O2-
112.0405	151	C5H6NO2-
112.0768	81	C6H10NO-
113.0358	80	C4H5N2O2-
116.0509	49	C8H6N-
118.0662	90	C8H8N-
122.0485	57	C6H6N2O-
123.0439	24	C5H5N3O-
123.0565	60	C6H7N2O-
124.0407	188	C6H6NO2-
125.0592	131	C5H7N3O-
127.0513	211	C5H7N2O2-
128.0353	568	C5H6NO3-
129.1034	311	C6H13N2O-
138.0436	66	C6H6N2O2-
139.0875	156	C7H11N2O-
150.0561	71	C8H8NO2-
153.103	54	C8H13N2O-
155.0827	42	C7H11N2O2-
155.1189	42	C8H15N2O-
165.1029	201	C9H13N2O-
180.1134	116	C7H12N6-
182.1293	426	C9H16N3O-
