Mass spectrum: Triphenylphosphine oxide; LC-ESI-QFT; MS2; CE: 30; R=35000; [M+H]+
Name: Triphenylphosphine oxide
Name: Triphenylphosphineoxide
Name: (diphenylphosphoroso)benzene
Formula: C18H15OP
Exact mass: 278.08605
SMILES: C1=CC=C(C=C1)P(=O)(C2=CC=CC=C2)C3=CC=CC=C3
InChI: InChI=1S/C18H15OP/c19-20(16-10-4-1-5-11-16,17-12-6-2-7-13-17)18-14-8-3-9-15-18/h1-15H
Instrument: Q Exactive Plus Orbitrap Thermo Scientific
Instrument type: LC-ESI-QFT
Ms type: MS2
Ion mode: POSITIVE
Ionization: ESI
Fragmentation mode: HCD
Collision energy: 30 (nominal)
Resolution: 35000
Column name: XBridge C18 3.5um, 2.1x50mm, Waters
Retention time: 9.4 min
Base peak: 391.2839
Precursor m/z: 279.0933
Precursor type: [M+H]+
m/z	relative intensity	assigned
50.0149	3	C4H2+
51.0228	3	C4H3+
53.0021	3	C3HO+
57.0699	656	C4H9+
59.0491	40	C3H7O+
65.0385	22	C5H5+
69.0699	2	C5H9+
71.0855	64	C5H11+
74.0964	2	C4H12N+
76.0305	7	C6H4+
79.0543	7	C6H7+
81.0697	2	C6H9+
87.0441	42	C4H7O2+
89.0709	2	C3H9N2O+
95.0858	1	C7H11+
97.0649	1	C6H9O+
101.0597	37	C5H9O2+
107.0857	2	C8H11+
109.0648	2	C7H9O+
117.0909	2	C6H13O2+
119.0857	1	C9H11+
121.0282	2	C7H5O2+
123.0438	2	C7H7O2+
123.0803	2	C8H11O+
123.1168	2	C9H15+
159.1171	2	C12H15+
161.0962	2	C11H13O+
201.0458	2	C12H10OP+
219.0569	42	C12H12O2P+
279.0934	999	C18H16OP+
