Mass spectrum: Neotame; LC-ESI-ITFT; MS2; CE: 45%; R=7500; [M-H]-
Name: Neotame
Name: (3S)-3-(3,3-dimethylbutylamino)-4-[[(2S)-1-methoxy-1-oxidanylidene-3-phenyl-propan-2-yl]amino]-4-oxidanylidene-butanoic acid
Formula: C20H30N2O5
Exact mass: 378.2155
SMILES: CC(C)(C)CCN[C@@H](CC(=O)O)C(=O)N[C@@H](CC1=CC=CC=C1)C(=O)OC
InChI: InChI=1S/C20H30N2O5/c1-20(2,3)10-11-21-15(13-17(23)24)18(25)22-16(19(26)27-4)12-14-8-6-5-7-9-14/h5-9,15-16,21H,10-13H2,1-4H3,(H,22,25)(H,23,24)/t15-,16-/m0/s1
Instrument: LTQ Orbitrap XL Thermo Scientific
Instrument type: LC-ESI-ITFT
Ms type: MS2
Ion mode: NEGATIVE
Ionization: ESI
Fragmentation mode: HCD
Collision energy: 45 % (nominal)
Resolution: 7500
Column name: XBridge C18 3.5um, 2.1x50mm, Waters
Retention time: 9.0 min
Base peak: 377.2074
Precursor m/z: 377.2082
Precursor type: [M-H]-
m/z	relative intensity	assigned
81.0221	55	C4H3NO-
96.0095	35	C4H2NO2-
109.0173	38	C5H3NO2-
111.0202	132	C4H3N2O2-
116.0507	68	C8H6N-
118.0665	178	C8H8N-
126.1287	193	C8H16N-
156.0819	76	C11H10N-
172.077	54	C11H10NO-
174.0567	89	C10H8NO2-
182.1185	95	C10H16NO2-
197.1299	67	C10H17N2O2-
200.0719	999	C12H10NO2-
227.1393	67	C11H19N2O3-
230.155	141	C15H20NO-
257.2025	34	C17H25N2-
273.1973	157	C17H25N2O-
285.1609	300	C17H21N2O2-
301.1918	167	C18H25N2O2-
327.17	69	C19H23N2O3-
