Mass spectrum: 2-Aminobenzothiazole; LC-ESI-QFT; MS2; CE: 120; R=35000; [M+H]+
Name: 2-Aminobenzothiazole
Name: benzo(d)thiazol-2-amine
Name: 1,3-benzothiazol-2-amine
Formula: C7H6N2S
Exact mass: 150.02517
SMILES: c1ccc2c(c1)nc(s2)N
InChI: InChI=1S/C7H6N2S/c8-7-9-5-3-1-2-4-6(5)10-7/h1-4H,(H2,8,9)
Instrument: Q Exactive Plus Orbitrap Thermo Scientific
Instrument type: LC-ESI-QFT
Ms type: MS2
Ion mode: POSITIVE
Ionization: ESI
Fragmentation mode: HCD
Collision energy: 120 (nominal)
Resolution: 35000
Column name: XBridge C18 3.5um, 2.1x50mm, Waters
Retention time: 3.1 min
Base peak: 151.0325
Precursor m/z: 151.0324
Precursor type: [M+H]+
m/z	relative intensity	assigned
50.0151	2	C4H2+
51.0228	1	C4H3+
53.0022	4	C3HO+
53.0386	16	C4H5+
59.9903	4	CH2NS+
63.023	16	C5H3+
64.0182	2	C4H2N+
64.0308	2	C5H4+
65.0386	798	C5H5+
66.0464	5	C5H6+
67.0417	1	C4H5N+
68.9794	95	C3HS+
77.0386	10	C6H5+
80.0495	380	C5H6N+
81.0336	2	C5H5O+
82.995	9	C4H3S+
90.0339	45	C6H4N+
91.0417	53	C6H5N+
92.0496	120	C6H6N+
93.0574	14	C6H7N+
95.0492	21	C6H7O+
96.0029	3	C5H4S+
96.0445	1	C5H6NO+
97.0108	41	C5H5S+
105.0449	11	C6H5N2+
106.995	6	C6H3S+
108.0029	36	C6H4S+
109.0108	999	C6H5S+
110.0186	3	C6H6S+
118.0526	135	C7H6N2+
119.0605	5	C7H7N2+
123.0138	3	C6H5NS+
124.0217	237	C6H6NS+
132.9981	1	C7H3NS+
134.006	11	C7H4NS+
135.0139	2	C7H5NS+
150.0248	7	C7H6N2S+
151.0326	119	C7H7N2S+
