Mass spectrum: 2-Imidazolidinethione; LC-ESI-QFT; MS2; CE: 90; R=35000; [M+H]+
Name: 2-Imidazolidinethione
Name: Ethylenethiourea
Formula: C3H6N2S
Exact mass: 102.02517
SMILES: S=C1NCCN1
InChI: InChI=1S/C3H6N2S/c6-3-4-1-2-5-3/h1-2H2,(H2,4,5,6)
Instrument: Q Exactive Plus Orbitrap Thermo Scientific
Instrument type: LC-ESI-QFT
Ms type: MS2
Ion mode: POSITIVE
Ionization: ESI
Fragmentation mode: HCD
Collision energy: 90 (nominal)
Resolution: 35000
Column name: XBridge C18 3.5um, 2.1x50mm, Waters
Retention time: 1.0 min
Base peak: 103.0324
Precursor m/z: 103.0324
Precursor type: [M+H]+
m/z	relative intensity	assigned
58.0526	1	C2H6N2+
58.995	41	C2H3S+
59.0604	3	C2H7N2+
59.9903	55	CH2NS+
69.0447	18	C3H5N2+
70.0525	10	C3H6N2+
74.0059	1	C2H4NS+
76.0215	21	C2H6NS+
83.9903	2	C3H2NS+
85.0397	1	C3H5N2O+
86.0059	244	C3H4NS+
103.0324	999	C3H7N2S+
