Mass spectrum: 3,4-Methylenedioxy-N-methylamphetamine (MDMA); LC-ESI-QFT; MS2; CE: 60; R=35000; [M+H]+
Name: 3,4-Methylenedioxy-N-methylamphetamine (MDMA)
Name: N-Methyl-3,4-methylenedioxyamphetamine
Name: 1-(1,3-benzodioxol-5-yl)-N-methylpropan-2-amine
Formula: C11H15NO2
Exact mass: 193.11028
SMILES: CC(CC1=CC2=C(C=C1)OCO2)NC
InChI: InChI=1S/C11H15NO2/c1-8(12-2)5-9-3-4-10-11(6-9)14-7-13-10/h3-4,6,8,12H,5,7H2,1-2H3
Instrument: Q Exactive Plus Orbitrap Thermo Scientific
Instrument type: LC-ESI-QFT
Ms type: MS2
Ion mode: POSITIVE
Ionization: ESI
Fragmentation mode: HCD
Collision energy: 60 (nominal)
Resolution: 35000
Column name: XBridge C18 3.5um, 2.1x50mm, Waters
Retention time: 3.6 min
Base peak: 194.117
Precursor m/z: 194.1176
Precursor type: [M+H]+
m/z	relative intensity	assigned
51.0228	3	C4H3+
53.0386	2	C4H5+
55.0178	22	C3H3O+
58.0651	121	C3H8N+
65.0385	2	C5H5+
77.0383	9	C6H5+
79.0541	71	C6H7+
91.0541	5	C7H7+
93.0334	6	C6H5O+
95.0491	5	C6H7O+
103.0542	44	C8H7+
105.0698	999	C8H9+
107.0489	3	C7H7O+
111.044	1	C6H7O2+
115.0542	9	C9H7+
121.0282	6	C7H5O2+
122.0362	20	C7H6O2+
131.0489	1	C9H7O+
133.0647	760	C9H9O+
135.0439	801	C8H7O2+
145.0646	2	C10H9O+
148.0517	4	C9H8O2+
151.0752	14	C9H11O2+
163.0752	349	C10H11O2+
