Mass spectrum: Anabaenopeptin A; LC-ESI-QFT; MS2; CE: 30%; R=17500; [M-H]-
Name: Anabaenopeptin A
Name: 2-[[3-benzyl-9-[2-(4-hydroxyphenyl)ethyl]-6,7-dimethyl-2,5,8,11,14-pentaoxo-12-propan-2-yl-1,4,7,10,13-pentazacyclononadec-15-yl]carbamoylamino]-3-(4-hydroxyphenyl)propanoic acid
Formula: C44H57N7O10
Exact mass: 843.4167
SMILES: CC1C(=O)NC(C(=O)NCCCCC(C(=O)NC(C(=O)NC(C(=O)N1C)CCC2=CC=C(C=C2)O)C(C)C)NC(=O)NC(CC3=CC=C(C=C3)O)C(=O)O)CC4=CC=CC=C4
InChI: InChI=1S/C44H57N7O10/c1-26(2)37-41(57)46-34(22-17-28-13-18-31(52)19-14-28)42(58)51(4)27(3)38(54)47-35(24-29-10-6-5-7-11-29)39(55)45-23-9-8-12-33(40(56)50-37)48-44(61)49-36(43(59)60)25-30-15-20-32(53)21-16-30/h5-7,10-11,13-16,18-21,26-27,33-37,52-53H,8-9,12,17,22-25H2,1-4H3,(H,45,55)(H,46,57)(H,47,54)(H,50,56)(H,59,60)(H2,48,49,61)
Instrument: Q Exactive Plus Orbitrap Thermo Scientific
Instrument type: LC-ESI-QFT
Ms type: MS2
Ion mode: NEGATIVE
Ionization: ESI
Fragmentation mode: HCD
Collision energy: 30 % (nominal)
Resolution: 17500
Column name: XBridge C18 3.5um, 2.1x50mm, Waters
Retention time: 7.272 min
Base peak: 190.9278
Precursor m/z: 842.4094
Precursor type: [M-H]-
m/z	relative intensity	assigned
119.0499	50	C8H7O-
163.0396	67	C9H7O3-
180.066	522	C9H10NO3-
189.0653	33	C8H7N5O-
204.0657	35	C9H8N4O2-
229.135	28	H19N7O7-
261.1241	49	C14H17N2O3-
300.1359	89	C16H18N3O3-
306.1822	19	C16H24N3O3-
331.2155	234	C20H29NO3-
332.1635	33	C19H24O5-
354.2167	33	C19H26N6O-
356.2009	97	C23H24N4-
358.2274	28	C9H34N4O10-
399.2043	80	C21H27N4O4-
402.2178	999	C23H26N6O-
416.2318	45	C23H32N2O5-
429.2158	107	C24H31NO6-
459.236	113	C22H31N6O5-
460.2552	69	C22H38NO9-
515.2644	26	C28H33N7O3-
600.3135	15	C41H38N5-
617.3468	35	C36H47N3O6-
618.333	69	C37H42N6O3-
661.3349	915	C35H45N6O7-
718.3572	216	C37H48N7O8-
