Mass spectrum: Darunavir; LC-ESI-QFT; MS2; CE: 15; R=35000; [M-H]-
Name: Darunavir
Name: N-[(1S,2R)-1-benzyl-2-hydroxy-3-[isobutyl(sulfanilyl)amino]propyl]carbamic acid [(3aS,4R,6aR)-2,3,3a,4,5,6a-hexahydrofuro[2,3-b]furan-4-yl] ester
Formula: C27H37N3O7S
Exact mass: 547.23522
SMILES: CC(C)CN(CC(C(CC1=CC=CC=C1)NC(=O)OC2COC3C2CCO3)O)S(=O)(=O)C4=CC=C(C=C4)N
InChI: InChI=1S/C27H37N3O7S/c1-18(2)15-30(38(33,34)21-10-8-20(28)9-11-21)16-24(31)23(14-19-6-4-3-5-7-19)29-27(32)37-25-17-36-26-22(25)12-13-35-26/h3-11,18,22-26,31H,12-17,28H2,1-2H3,(H,29,32)/t22-,23-,24+,25-,26+/m0/s1
Instrument: Q Exactive Orbitrap Thermo Scientific
Instrument type: LC-ESI-QFT
Ms type: MS2
Ion mode: NEGATIVE
Ionization: ESI
Fragmentation mode: HCD
Collision energy: 15 (nominal)
Resolution: 35000
Column name: XBridge C18 3.5um, 2.1x50mm, Waters
Retention time: 8.8 min
Base peak: 592.2338
Precursor m/z: 546.2279
Precursor type: [M-H]-
m/z	relative intensity	assigned
63.9622	3	O2S-
156.0126	999	C6H6NO2S-
171.9565	3	CH2NO7S-
227.0862	2	C10H15N2O2S-
373.1592	110	C20H25N2O3S-
416.165	992	
