Mass spectrum: Chloridazon; LC-ESI-ITFT; MS2; CE: 90%; R=7500; [M+H]+
Name: Chloridazon
Name: 5-amino-4-chloro-2-phenyl-3-pyridazinone
Formula: C10H8ClN3O
Exact mass: 221.0350
SMILES: ClC(=C(N)C=N1)C(=O)N1-c(ccc2)cc2
InChI: InChI=1S/C10H8ClN3O/c11-9-8(12)6-13-14(10(9)15)7-4-2-1-3-5-7/h1-6H,12H2
Instrument: LTQ Orbitrap XL Thermo Scientific
Instrument type: LC-ESI-ITFT
Ms type: MS2
Ion mode: POSITIVE
Ionization: ESI
Fragmentation mode: HCD
Collision energy: 90 % (nominal)
Resolution: 7500
Column name: XBridge C18 3.5um, 2.1x50mm, Waters
Retention time: 5.2 min
Base peak: 222.0432
Precursor m/z: 222.0429
Precursor type: [M+H]+
m/z	relative intensity	assigned
53.0385	33	C4H5+
55.029	57	C2H3N2+
63.9949	42	CH3ClN+
65.0386	578	C5H5+
66.0212	43	C3H2N2+
67.0291	12	C3H3N2+
73.9793	13	C2HClN+
75.9949	39	C2H3ClN+
77.0386	797	C6H5+
81.0334	8	C5H5O+
83.0241	12	C3H3N2O+
87.9949	184	C3H3ClN+
92.0495	999	C6H6N+
93.0574	161	C6H7N+
94.0652	247	C6H8N+
95.0491	118	C6H7O+
100.9901	253	C3H2ClN2+
101.9741	30	C3HClNO+
104.0495	560	C7H6N+
105.0447	219	C6H5N2+
114.0337	14	C8H4N+
116.9977	34	C4H4ClNO+
117.0576	11	C8H7N+
119.0603	28	C7H7N2+
122.9994	18	C7H4Cl+
128.9851	258	C4H2ClN2O+
130.0652	104	C9H8N+
131.0606	47	C8H7N2+
132.0443	51	C8H6NO+
132.0685	17	C8H8N2+
140.0264	10	C7H7ClN+
142.0531	20	C9H6N2+
146.0117	348	C4H5ClN3O+
149.0152	30	C9H6Cl+
150.0105	68	C8H5ClN+
158.06	16	C10H8NO+
159.0552	10	C9H7N2O+
159.0795	8	C9H9N3+
186.0658	18	C10H8N3O+
193.0293	56	C10H8ClNO+
