Mass spectrum: Ethoprop; LC-ESI-QFT; MS2; CE: 45; R=35000; [M+H]+
Name: Ethoprop
Name: 1-[ethoxy(propylsulfanyl)phosphoryl]sulfanylpropane
Formula: C8H19O2PS2
Exact mass: 242.05641
SMILES: CCCSP(=O)(OCC)SCCC
InChI: InChI=1S/C8H19O2PS2/c1-4-7-12-11(9,10-6-3)13-8-5-2/h4-8H2,1-3H3
Instrument: Q Exactive Plus Orbitrap Thermo Scientific
Instrument type: LC-ESI-QFT
Ms type: MS2
Ion mode: POSITIVE
Ionization: ESI
Fragmentation mode: HCD
Collision energy: 45 (nominal)
Resolution: 35000
Column name: XBridge C18 3.5um, 2.1x50mm, Waters
Retention time: 11.5 min
Base peak: 243.0634
Precursor m/z: 243.0637
Precursor type: [M+H]+
m/z	relative intensity	assigned
53.0023	5	C3HO+
63.0264	5	C2H7S+
64.9784	3	H2O2P+
67.9893	1	C3O2+
77.042	131	C3H9S+
96.9509	145	H2O2PS+
97.9586	1	H3O2PS+
102.9767	1	C3H4PS+
105.0733	2	C5H13S+
110.9666	3	CH4O2PS+
112.9281	18	H2OPS2+
114.9614	351	H4O3PS+
119.0891	1	C6H15S+
120.9873	7	C3H6OPS+
123.0206	4	C3H8O3P+
124.9822	15	C2H6O2PS+
128.9772	3	CH6O3PS+
130.9386	999	H4O2PS2+
138.9978	64	C3H8O2PS+
148.9493	3	H6O3PS2+
154.9751	10	C3H8OPS2+
158.97	26	C2H8O2PS2+
172.9857	269	C3H10O2PS2+
201.017	12	C5H14O2PS2+
215.0326	11	C6H16O2PS2+
