Mass spectrum: Tetraconazole; LC-ESI-QFT; MS2; CE: 75; R=35000; [M+H]+
Name: Tetraconazole
Name: 1-[2-(2,4-dichlorophenyl)-3-(1,1,2,2-tetrafluoroethoxy)propyl]-1,2,4-triazole
Formula: C13H11Cl2F4N3O
Exact mass: 371.02153
SMILES: C1=CC(=C(C=C1Cl)Cl)C(CN2C=NC=N2)COC(C(F)F)(F)F
InChI: InChI=1S/C13H11Cl2F4N3O/c14-9-1-2-10(11(15)3-9)8(4-22-7-20-6-21-22)5-23-13(18,19)12(16)17/h1-3,6-8,12H,4-5H2
Instrument: Q Exactive Plus Orbitrap Thermo Scientific
Instrument type: LC-ESI-QFT
Ms type: MS2
Ion mode: POSITIVE
Ionization: ESI
Fragmentation mode: HCD
Collision energy: 75 (nominal)
Resolution: 35000
Column name: XBridge C18 3.5um, 2.1x50mm, Waters
Retention time: 11.8 min
Base peak: 372.0281
Precursor m/z: 372.0288
Precursor type: [M+H]+
m/z	relative intensity	assigned
51.0041	1	CHF2+
59.0291	2	C3H4F+
63.0229	1	C5H3+
70.04	366	C2H4N3+
72.9837	2	C3H2Cl+
89.0385	9	C2H4FN3+
98.9996	13	C5H4Cl+
115.0543	71	C9H7+
122.9996	89	C7H4Cl+
124.0075	23	C7H5Cl+
125.0152	1	C7H6Cl+
132.9606	9	C5H3Cl2+
134.0524	1	C4H6F2N3+
149.0154	30	C9H6Cl+
150.0231	39	C9H7Cl+
158.9763	999	C2H4Cl2FN3+
176.9669	17	C7H4Cl2F+
