Mass spectrum: Fipronil-sulfide; LC-ESI-ITFT; MS2; CE: 35%; R=15000; [M+H]+
Name: Fipronil-sulfide
Name: 5-Amino-1-[2,6-dichloro-4-(trifluoromethyl)phenyl]-4-[(trifluoromethyl)sulfanyl]-1H-pyrazole-3-carbonitrile
Formula: C12H4Cl2F6N4S
Exact mass: 419.9438
SMILES: FC(F)(F)c2cc(Cl)c(n1nc(C#N)c(SC(F)(F)F)c1N)c(Cl)c2
InChI: InChI=1S/C12H4Cl2F6N4S/c13-5-1-4(11(15,16)17)2-6(14)8(5)24-10(22)9(7(3-21)23-24)25-12(18,19)20/h1-2H,22H2
Instrument: LTQ Orbitrap XL Thermo Scientific
Instrument type: LC-ESI-ITFT
Ms type: MS2
Ion mode: POSITIVE
Ionization: ESI
Fragmentation mode: CID
Collision energy: 35 % (nominal)
Resolution: 15000
Column name: XBridge C18 3.5um, 2.1x50mm, Waters
Retention time: 13.0 min
Base peak: 442.9332
Precursor m/z: 420.9511
Precursor type: [M+H]+
m/z	relative intensity	assigned
181.9997	5	C9H4F2S+
226.9876	3	C9H2F3N2S+
227.9588	4	C7H3Cl2F3N+
239.9589	11	C8H3Cl2F3N+
246.0039	29	C9H4ClF3N3+
259.0116	29	C10H5ClF3N3+
264.9802	28	C9H5ClF3N2S+
267.9776	16	C10H2F6S+
284.0067	29	C11H4ClF3N4+
285.0146	56	C11H5ClF3N4+
292.9728	9	C11HF6NS+
298.9408	5	C9H4Cl2F3N2S+
315.9791	27	C11H4ClF3N4S+
316.9867	999	C11H5ClF3N4S+
318.9748	11	C12HF6N2S+
319.9835	418	C12H2F6N2S+
331.9489	5	C11H4Cl2F2N4S+
333.9761	6	C10H5ClF6N2S+
335.9367	194	C11H3Cl2F3N3S+
337.9579	4	C11H2ClF5N3S+
343.96	19	C11H3ClF6N2S+
345.9685	14	C12H3ClF4N4S+
350.9478	18	C11H4Cl2F3N4S+
351.9555	185	C11H5Cl2F3N4S+
357.9623	9	C11H3ClF6N3S+
364.9665	10	C12H3ClF5N4S+
365.9757	79	C12H4ClF5N4S+
380.9385	8	C12H3Cl2F4N4S+
384.9746	6	C12H4ClF6N4S+
385.982	87	C12H5ClF6N4S+
400.9432	5	C12H4Cl2F5N4S+
420.952	23	C12H5Cl2F6N4S+
