Mass spectrum: Phenobarbital; LC-ESI-QFT; MS2; CE: 45; R=35000; [M+H]+
Name: Phenobarbital
Name: 5-ethyl-5-phenyl-1,3-diazinane-2,4,6-trione
Formula: C12H12N2O3
Exact mass: 232.08479
SMILES: CCC1(C(=O)NC(=O)NC1=O)C2=CC=CC=C2
InChI: InChI=1S/C12H12N2O3/c1-2-12(8-6-4-3-5-7-8)9(15)13-11(17)14-10(12)16/h3-7H,2H2,1H3,(H2,13,14,15,16,17)
Instrument: Q Exactive Plus Orbitrap Thermo Scientific
Instrument type: LC-ESI-QFT
Ms type: MS2
Ion mode: POSITIVE
Ionization: ESI
Fragmentation mode: HCD
Collision energy: 45 (nominal)
Resolution: 35000
Column name: XBridge C18 3.5um, 2.1x50mm, Waters
Retention time: 6.0 min
Base peak: 251.1845
Precursor m/z: 233.0921
Precursor type: [M+H]+
m/z	relative intensity	assigned
50.015	2	C4H2+
55.0177	15	C3H3O+
55.0542	42	C4H7+
56.0494	37	C3H6N+
57.0334	46	C3H5O+
57.0698	28	C4H9+
59.0491	135	C3H7O+
67.0541	6	C5H7+
69.0333	13	C4H5O+
69.0697	39	C5H9+
69.9923	2	C2NO2+
71.049	19	C4H7O+
73.0282	6	C3H5O2+
73.0645	5	C4H9O+
76.0391	5	C2H6NO2+
79.0541	13	C6H7+
81.0698	37	C6H9+
83.0488	4	C5H7O+
83.0854	49	C6H11+
84.0807	37	C5H10N+
87.0442	2	C4H7O2+
88.0392	26	C3H6NO2+
91.0541	228	C7H7+
93.0697	10	C7H9+
95.0491	15	C6H7O+
95.0854	12	C7H11+
97.0075	5	C8H+
97.0646	4	C6H9O+
98.0964	31	C6H12N+
99.0186	15	C3H3N2O2+
99.0439	23	C5H7O2+
99.0804	25	C6H11O+
101.0596	13	C5H9O2+
104.0491	3	C7H6N+
105.0334	336	C7H5O+
105.0699	22	C8H9+
106.065	180	C7H8N+
107.0491	4	C7H7O+
107.0854	4	C8H11+
109.0648	3	C7H9O+
109.1009	9	C8H13+
111.023	3	C9H3+
111.044	3	C6H7O2+
111.0803	6	C7H11O+
115.0136	16	C3H3N2O3+
115.0539	4	C9H7+
117.0697	232	C9H9+
118.0649	14	C8H8N+
119.0854	146	C9H11+
121.0646	3	C8H9O+
121.1011	4	C9H13+
123.0234	3	C10H3+
123.0803	2	C8H11O+
126.0912	94	C7H12NO+
127.075	5	C7H11O2+
129.0697	34	C10H9+
131.0854	14	C10H11+
132.0441	3	C8H6NO+
133.0521	158	C8H7NO+
134.0599	112	C8H8NO+
134.0963	139	C9H12N+
135.0801	10	C9H11O+
139.0179	4	C10H3O+
144.0806	267	C10H10N+
145.0282	45	C9H5O2+
145.0645	44	C10H9O+
145.1007	4	C11H13+
147.0802	29	C10H11O+
154.0649	3	C11H8N+
157.1011	3	C12H13+
159.0801	6	C11H11O+
162.0912	999	C10H12NO+
172.0754	61	C11H10NO+
173.0964	10	C12H13O+
177.0657	392	C9H9N2O2+
189.0654	4	C10H9N2O2+
190.0858	14	C11H12NO2+
205.0606	103	C10H9N2O3+
215.0817	12	C12H11N2O2+
233.0921	18	C12H13N2O3+
