Mass spectrum: Corticosterone; LC-ESI-QFT; MS2; CE: 75; R=35000; [M+H]+
Name: Corticosterone
Name: 11b,21-Dihydroxyprogesterone
Name: (8S,9S,10R,11S,13S,14S,17S)-11-hydroxy-17-(2-hydroxyacetyl)-10,13-dimethyl-1,2,6,7,8,9,11,12,14,15,16,17-dodecahydrocyclopenta[a]phenanthren-3-one
Formula: C21H30O4
Exact mass: 346.21441
SMILES: O=C4\C=C2/[C@]([C@H]1[C@@H](O)C[C@@]3([C@@H](C(=O)CO)CC[C@H]3[C@@H]1CC2)C)(C)CC4
InChI: InChI=1S/C21H30O4/c1-20-8-7-13(23)9-12(20)3-4-14-15-5-6-16(18(25)11-22)21(15,2)10-17(24)19(14)20/h9,14-17,19,22,24H,3-8,10-11H2,1-2H3/t14-,15-,16+,17-,19+,20-,21-/m0/s1
Instrument: Q Exactive Plus Orbitrap Thermo Scientific
Instrument type: LC-ESI-QFT
Ms type: MS2
Ion mode: POSITIVE
Ionization: ESI
Fragmentation mode: HCD
Collision energy: 75 (nominal)
Resolution: 35000
Column name: XBridge C18 3.5um, 2.1x50mm, Waters
Retention time: 8.9 min
Base peak: 347.2214
Precursor m/z: 347.2217
Precursor type: [M+H]+
m/z	relative intensity	assigned
50.0149	5	C4H2+
51.0229	10	C4H3+
53.0022	17	C3HO+
53.0386	58	C4H5+
53.9975	2	C2NO+
55.0178	103	C3H3O+
55.0542	215	C4H7+
57.0335	19	C3H5O+
57.0699	3	C4H9+
59.0491	2	C3H7O+
61.0284	14	C2H5O2+
63.0228	2	C5H3+
65.0385	50	C5H5+
66.0463	3	C5H6+
67.0542	395	C5H7+
67.9892	2	C3O2+
69.0335	91	C4H5O+
69.0699	95	C5H9+
71.0491	22	C4H7O+
77.0384	77	C6H5+
78.0463	7	C6H6+
79.0542	708	C6H7+
80.062	3	C6H8+
81.0335	32	C5H5O+
81.0699	411	C6H9+
83.0491	272	C5H7O+
85.065	3	C5H9O+
87.0441	32	C4H7O2+
91.0542	954	C7H7+
92.0621	4	C7H8+
93.0699	564	C7H9+
94.0413	8	C6H6O+
95.0491	197	C6H7O+
95.0855	395	C7H11+
97.0648	707	C6H9O+
99.0441	24	C5H7O2+
101.0597	10	C5H9O2+
103.0542	75	C8H7+
104.0621	7	C8H8+
105.0448	75	C6H5N2+
105.0699	990	C8H9+
106.0412	4	C7H6O+
106.0777	8	C8H10+
107.0491	106	C7H7O+
107.0855	353	C8H11+
108.0569	11	C7H8O+
109.0648	425	C7H9O+
109.1012	28	C8H13+
111.044	32	C6H7O2+
111.0804	10	C7H11O+
115.0542	115	C9H7+
116.062	46	C9H8+
117.0699	323	C9H9+
118.0776	7	C9H10+
119.0605	35	C7H7N2+
119.0855	523	C9H11+
121.0648	999	C8H9O+
121.1011	58	C9H13+
122.0726	2	C8H10O+
123.0804	416	C8H11O+
125.0599	2	C7H9O2+
128.062	201	C10H8+
129.0698	258	C10H9+
130.0777	106	C10H10+
131.0855	410	C10H11+
132.057	17	C9H8O+
132.0935	12	C10H12+
133.0648	63	C9H9O+
133.1011	193	C10H13+
134.0727	7	C9H10O+
135.0804	84	C9H11O+
135.1167	25	C10H15+
137.0961	17	C9H13O+
141.0698	150	C11H9+
142.0777	226	C11H10+
143.0856	296	C11H11+
144.057	9	C10H8O+
144.0934	61	C11H12+
145.0648	42	C10H9O+
145.1012	306	C11H13+
146.0727	31	C10H10O+
146.109	3	C11H14+
147.0804	105	C10H11O+
147.1168	81	C11H15+
148.0882	58	C10H12O+
149.0961	40	C10H13O+
149.1326	7	C11H17+
152.0619	10	C12H8+
153.0699	53	C12H9+
154.0777	65	C12H10+
155.0602	23	C10H7N2+
155.0855	162	C12H11+
156.0934	165	C12H12+
157.0647	11	C11H9O+
157.1012	172	C12H13+
158.0727	24	C11H10O+
158.109	13	C12H14+
159.0804	53	C11H11O+
159.1168	120	C12H15+
160.0883	20	C11H12O+
160.1246	2	C12H16+
161.0961	66	C11H13O+
161.1324	12	C12H17+
162.104	3	C11H14O+
163.1117	149	C11H15O+
165.0698	56	C13H9+
166.0778	34	C13H10+
167.0855	88	C13H11+
168.0933	65	C13H12+
169.1012	138	C13H13+
170.1089	27	C13H14+
171.0803	22	C12H11O+
171.1168	84	C13H15+
172.0884	8	C12H12O+
172.1247	3	C13H16+
173.096	36	C12H13O+
173.1325	27	C13H17+
174.1039	25	C12H14O+
175.1117	33	C12H15O+
177.1277	3	C12H17O+
178.0776	15	C14H10+
179.0855	59	C14H11+
180.0934	33	C14H12+
181.1011	86	C14H13+
182.109	44	C14H14+
183.0802	8	C13H11O+
183.1168	66	C14H15+
184.0882	7	C13H12O+
184.1244	9	C14H16+
185.0962	19	C13H13O+
185.1325	39	C14H17+
186.1037	8	C13H14O+
186.1403	8	C14H18+
187.1117	18	C13H15O+
187.148	7	C14H19+
188.1195	8	C13H16O+
189.1276	15	C13H17O+
191.0857	16	C15H11+
192.0935	17	C15H12+
193.1013	49	C15H13+
194.109	33	C15H14+
195.1168	61	C15H15+
196.0883	6	C14H12O+
196.1246	17	C15H16+
197.0962	11	C14H13O+
197.1322	35	C15H17+
198.1036	4	C14H14O+
199.112	18	C14H15O+
199.1484	13	C15H19+
200.1198	3	C14H16O+
201.1274	16	C14H17O+
202.0774	3	C16H10+
202.1348	2	C14H18O+
203.0856	9	C16H11+
204.0932	7	C16H12+
205.1013	35	C16H13+
206.1092	13	C16H14+
207.1171	26	C16H15+
208.088	2	C15H12O+
208.1245	14	C16H16+
209.0959	4	C15H13O+
209.1324	31	C16H17+
210.104	2	C15H14O+
210.1405	3	C16H18+
211.1117	13	C15H15O+
211.148	13	C16H19+
212.1193	7	C15H16O+
213.1272	20	C15H17O+
214.1351	8	C15H18O+
215.1428	3	C15H19O+
216.0932	2	C17H12+
217.101	11	C17H13+
218.1089	3	C17H14+
219.1169	12	C17H15+
220.1244	4	C17H16+
221.1321	14	C17H17+
222.1042	1	C16H14O+
222.1404	3	C17H18+
223.148	14	C17H19+
224.1194	3	C16H16O+
225.1274	7	C16H17O+
226.1355	3	C16H18O+
226.1723	2	C17H22+
227.143	16	C16H19O+
228.1508	13	C16H20O+
231.1165	9	C18H15+
233.1323	8	C18H17+
234.1397	1	C18H18+
235.1116	4	C17H15O+
235.1483	7	C18H19+
237.1272	3	C17H17O+
237.1639	7	C18H21+
239.1428	9	C17H19O+
240.1514	2	C17H20O+
241.1586	3	C17H21O+
245.1321	4	C19H17+
250.1356	2	C18H18O+
251.1792	2	C19H23+
253.1584	4	C18H21O+
254.1666	1	C18H22O+
255.1739	2	C18H23O+
263.1428	2	C19H19O+
265.1584	2	C19H21O+
268.1454	9	C18H20O2+
283.1691	7	C19H23O2+
299.1634	7	C19H23O3+
