Mass spectrum: Trichloronat; LC-ESI-QFT; MS2; CE: 15%; R=17500; [M+H]+
Name: Trichloronat
Name: ethoxy-ethyl-sulfanylidene-(2,4,5-trichlorophenoxy)-lambda5-phosphane
Formula: C10H12Cl3O2PS
Exact mass: 331.9361
SMILES: CCOP(=S)(CC)OC1=CC(=C(C=C1Cl)Cl)Cl
InChI: InChI=1S/C10H12Cl3O2PS/c1-3-14-16(17,4-2)15-10-6-8(12)7(11)5-9(10)13/h5-6H,3-4H2,1-2H3
Instrument: Exploris 240 Orbitrap Thermo Scientific
Instrument type: LC-ESI-QFT
Ms type: MS2
Ion mode: POSITIVE
Ionization: ESI
Fragmentation mode: HCD
Collision energy: 15 % (nominal)
Resolution: 17500
Column name: XBridge C18 3.5um, 2.1x50mm, Waters
Retention time: 15.307 min
Base peak: 134.9588
Precursor m/z: 332.9434
Precursor type: [M+H]+
m/z	relative intensity	assigned
126.9975	3	C2H8O2PS+
137.0185	15	C4H10OPS+
304.912	606	C8H9Cl3O2PS+
332.9434	999	C10H13Cl3O2PS+
