Mass spectrum: Flecainide; LC-ESI-QFT; MS2; CE: 60; R=35000; [M+H]+
Name: Flecainide
Name: N-(2-piperidinylmethyl)-2,5-bis(2,2,2-trifluoroethoxy)benzamide
Formula: C17H20F6N2O3
Exact mass: 414.13781
SMILES: C1CCNC(C1)CNC(=O)C2=C(C=CC(=C2)OCC(F)(F)F)OCC(F)(F)F
InChI: InChI=1S/C17H20F6N2O3/c18-16(19,20)9-27-12-4-5-14(28-10-17(21,22)23)13(7-12)15(26)25-8-11-3-1-2-6-24-11/h4-5,7,11,24H,1-3,6,8-10H2,(H,25,26)
Instrument: Q Exactive Orbitrap Thermo Scientific
Instrument type: LC-ESI-QFT
Ms type: MS2
Ion mode: POSITIVE
Ionization: ESI
Fragmentation mode: HCD
Collision energy: 60 (nominal)
Resolution: 35000
Column name: XBridge C18 3.5um, 2.1x50mm, Waters
Retention time: 6.7 min
Base peak: 415.1452
Precursor m/z: 415.1451
Precursor type: [M+H]+
m/z	relative intensity	assigned
65.0386	1	C5H5+
66.0465	1	C5H6+
68.0494	1	C4H6N+
69.0573	1	C4H7N+
69.0698	11	C5H9+
70.0651	15	C4H8N+
79.0542	116	C6H7+
80.0494	1	C5H6N+
81.0699	356	C6H9+
82.0651	103	C5H8N+
83.01	1	C2H2F3+
84.0808	75	C5H10N+
95.0491	4	C6H7O+
96.0808	8	C6H10N+
97.0886	28	C6H11N+
98.0964	451	C6H12N+
107.0125	6	C6H3O2+
135.0073	1	C7H3O3+
152.0345	1	C7H6NO3+
153.0181	17	C7H5O4+
188.1071	6	C12H14NO+
189.0522	11	C9H8F3O+
190.0241	7	C8H5F3O2+
203.0315	3	C9H6F3O2+
204.1021	4	C12H14NO2+
207.0432	7	C9H7F4O+
209.0221	76	C8H5F4O2+
215.0311	3	C10H6F3O2+
216.1022	10	C13H14NO2+
217.0343	1	C9H6F3NO2+
218.0184	6	C9H5F3O3+
219.0266	13	C9H6F3O3+
225.0335	20	
232.0969	285	C13H14NO3+
236.0291	113	
237.017	97	C9H5F4O3+
246.037	9	C10H7F3NO3+
249.0371	4	C10H8F3O4+
253.0283	64	C10H6F5O2+
254.0363	7	C10H7F5O2+
274.0684	1	C12H11F3NO3+
279.0277	4	C14H6F3O3+
281.0231	41	C11H6F5O3+
287.0502	16	C11H9F6O2+
298.1053	38	C15H15F3NO2+
301.0295	999	C14H6F5O2+
314.1001	12	C15H15F3NO3+
315.1078	41	C15H16F3NO3+
318.056	4	C11H10F6NO3+
398.1186	193	C17H18F6NO3+
