Mass spectrum: Dihydrocodeine; LC-ESI-QFT; MS2; CE: 60; R=35000; [M+H]+
Name: Dihydrocodeine
Name: (4R,4aR,7S,7aR,12bS)-9-methoxy-3-methyl-2,4,4a,5,6,7,7a,13-octahydro-1H-4,12-methanobenzofuro[3,2-e]isoquinoline-7-ol
Formula: C18H23NO3
Exact mass: 301.16779
SMILES: CN1CC[C@]23[C@@H]4[C@H]1CC5=C2C(=C(C=C5)OC)O[C@H]3[C@H](CC4)O
InChI: InChI=1S/C18H23NO3/c1-19-8-7-18-11-4-5-13(20)17(18)22-16-14(21-2)6-3-10(15(16)18)9-12(11)19/h3,6,11-13,17,20H,4-5,7-9H2,1-2H3/t11-,12+,13-,17-,18-/m0/s1
Instrument: Q Exactive Orbitrap Thermo Scientific
Instrument type: LC-ESI-QFT
Ms type: MS2
Ion mode: POSITIVE
Ionization: ESI
Fragmentation mode: HCD
Collision energy: 60 (nominal)
Resolution: 35000
Column name: XBridge C18 3.5um, 2.1x50mm, Waters
Retention time: 2.6 min
Base peak: 302.1753
Precursor m/z: 302.1751
Precursor type: [M+H]+
m/z	relative intensity	assigned
57.0336	2	C3H5O+
58.0652	13	C3H8N+
67.0543	11	C5H7+
69.0335	1	C4H5O+
70.0652	2	C4H8N+
71.0492	8	C4H7O+
79.0543	8	C6H7+
81.0699	2	C6H9+
82.065	1	C5H8N+
83.0492	6	C5H7O+
84.0808	1	C5H10N+
91.0543	3	C7H7+
93.07	1	C7H9+
95.049	1	C6H7O+
95.0855	2	C7H11+
96.0809	1	C6H10N+
97.0649	1	C6H9O+
103.0543	5	C8H7+
105.0699	4	C8H9+
107.0491	1	C7H7O+
115.0541	12	C9H7+
117.07	1	C9H9+
121.0648	11	C8H9O+
128.0619	13	C10H8+
129.0699	20	C10H9+
131.0491	12	C9H7O+
131.0858	1	C10H11+
133.0644	1	C9H9O+
137.0598	64	C8H9O2+
141.0699	29	C11H9+
142.0776	4	C11H10+
143.0492	27	C10H7O+
143.0857	8	C11H11+
144.0572	5	C10H8O+
145.0649	9	C10H9O+
145.1011	1	C11H13+
146.0723	1	C10H10O+
147.0806	7	C10H11O+
151.0755	7	C9H11O2+
152.0619	9	C12H8+
153.0699	19	C12H9+
155.0493	2	C11H7O+
155.0856	17	C12H11+
156.057	5	C11H8O+
157.0649	48	C11H9O+
157.1012	16	C12H13+
158.0727	63	C11H10O+
159.0804	23	C11H11O+
161.0598	77	C10H9O2+
161.0962	16	C11H13O+
162.0675	2	C10H10O2+
163.0754	31	C10H11O2+
165.0699	43	C13H9+
166.0778	5	C13H10+
167.0856	109	C13H11+
168.0569	6	C12H8O+
168.093	2	C13H12+
169.0649	33	C12H9O+
169.0759	2	C11H9N2+
169.1016	9	C13H13+
170.0728	5	C12H10O+
171.0805	193	C12H11O+
172.0521	6	C11H8O2+
173.0962	119	C12H13O+
174.0674	2	C11H10O2+
175.0755	37	C11H11O2+
176.0832	4	C11H12O2+
177.0699	34	C14H9+
177.0907	9	C11H13O2+
178.0777	5	C14H10+
179.0701	5	C10H11O3+
181.0649	43	C13H9O+
181.1012	9	C14H13+
182.0724	7	C13H10O+
183.0806	185	C13H11O+
184.0519	2	C12H8O2+
184.0883	34	C13H12O+
185.06	20	C12H9O2+
185.0962	89	C13H13O+
186.0677	34	C12H10O2+
187.0754	75	C12H11O2+
188.083	1	C12H12O2+
189.0911	105	C12H13O2+
191.0856	1	C15H11+
192.1019	2	C11H14NO2+
193.065	22	C14H9O+
193.0737	1	C10H11NO3+
193.1012	12	C15H13+
194.0727	18	C14H10O+
195.0805	210	C14H11O+
196.0885	51	C14H12O+
197.0596	12	C13H9O2+
197.0965	22	C14H13O+
198.0677	30	C13H10O2+
199.0754	999	C13H11O2+
199.1116	84	C14H15O+
200.0829	2	C13H12O2+
201.0909	497	C13H13O2+
202.0986	5	C13H14O2+
203.07	2	C12H11O3+
203.1063	11	C13H15O2+
204.1021	4	C12H14NO2+
205.0764	1	C14H9N2+
209.0587	1	C14H9O2+
209.0962	25	C15H13O+
210.104	2	C15H14O+
211.0754	43	C14H11O2+
211.1122	2	C15H15O+
212.0831	39	C14H12O2+
213.091	76	C14H13O2+
214.0624	8	C13H10O3+
214.099	6	C14H14O2+
215.1069	23	C14H15O2+
217.11	9	C13H15NO2+
217.1223	49	C14H17O2+
219.1019	1	C13H15O3+
221.0965	11	C16H13O+
222.1038	6	C16H14O+
223.0756	1	C15H11O2+
223.1122	2	C16H15O+
224.0836	1	C15H12O2+
225.0911	61	C15H13O2+
226.0986	2	C15H14O2+
227.1067	283	C15H15O2+
228.1022	2	C14H14NO2+
229.0862	7	C14H13O3+
229.1221	2	C15H17O2+
238.0992	5	C16H14O2+
241.1224	7	C16H17O2+
243.1018	87	C15H15O3+
245.1174	171	C15H17O3+
252.1386	2	C17H18NO+
253.1224	14	C17H17O2+
256.1093	5	C16H16O3+
256.1334	1	C16H18NO2+
268.1327	6	C17H18NO2+
269.1412	22	C17H19NO2+
271.133	4	C17H19O3+
274.1438	9	C16H20NO3+
284.1647	23	C18H22NO2+
287.1516	5	C17H21NO3+
302.1752	442	C18H24NO3+
