Mass spectrum: N,N-Dimethyl-N'-phenylsulfamide; LC-ESI-ITFT; MS2; CE: 45%; R=7500; [M+H]+
Name: N,N-Dimethyl-N'-phenylsulfamide
Name: DMSA
Formula: C8H12N2O2S
Exact mass: 200.0619
SMILES: S(Nc1ccccc1)(N(C)C)(=O)=O
InChI: InChI=1S/C8H12N2O2S/c1-10(2)13(11,12)9-8-6-4-3-5-7-8/h3-7,9H,1-2H3
Instrument: LTQ Orbitrap XL Thermo Scientific
Instrument type: LC-ESI-ITFT
Ms type: MS2
Ion mode: POSITIVE
Ionization: ESI
Fragmentation mode: HCD
Collision energy: 45 % (nominal)
Resolution: 7500
Column name: XBridge C18 3.5um, 2.1x50mm, Waters
Retention time: 6.3 min
Base peak: 223.0517
Precursor m/z: 201.0692
Precursor type: [M+H]+
m/z	relative intensity	assigned
65.0386	100	C5H5+
92.0495	999	C6H6N+
93.0573	315	C6H7N+
94.0651	64	C6H8N+
108.0115	11	C2H6NO2S+
108.0807	18	C7H10N+
120.0808	4	C8H10N+
121.0888	10	C8H11N+
122.0839	29	C7H10N2+
135.0911	5	C8H11N2+
136.1	3	C8H12N2+
137.1075	140	C8H13N2+
