Mass spectrum: Chlorpyrifos; LC-ESI-ITFT; MS2; CE: 75%; R=15000; [M+H]+
Name: Chlorpyrifos
Name: diethoxy-sulfanylidene-(3,5,6-trichloropyridin-2-yl)oxy-{5}-phosphane
Formula: C9H11Cl3NO3PS
Exact mass: 348.9263
SMILES: Clc1c(OP(=S)(OCC)OCC)nc(Cl)c(Cl)c1
InChI: InChI=1S/C9H11Cl3NO3PS/c1-3-14-17(18,15-4-2)16-9-7(11)5-6(10)8(12)13-9/h5H,3-4H2,1-2H3
Instrument: LTQ Orbitrap XL Thermo Scientific
Instrument type: LC-ESI-ITFT
Ms type: MS2
Ion mode: POSITIVE
Ionization: ESI
Fragmentation mode: HCD
Collision energy: 75 % (nominal)
Resolution: 15000
Column name: XBridge C18 3.5um, 2.1x50mm, Waters
Retention time: 16.0 min
Base peak: 349.9337
Precursor m/z: 349.9336
Precursor type: [M+H]+
m/z	relative intensity	assigned
64.9786	4	H2O2P+
78.9402	9	OPS+
96.9507	577	H2O2PS+
98.984	5	CH4ClO3+
106.9449	216	C3HCl2+
110.9663	2	CH4O2PS+
114.9613	999	H4O3PS+
116.9659	1	C4H3ClP+
122.94	2	C3HCl2O+
124.982	2	C2H6O2PS+
133.9558	192	C4H2Cl2N+
134.9399	2	C4HCl2O+
134.9635	2	C3H3ClNOP+
141.9511	2	C4HNOPS+
149.9511	3	C4H2Cl2NO+
150.917	42	C3HClOPS+
161.9508	21	C5H2Cl2NO+
176.9196	2	C4HClNOPS+
177.9279	46	C5H2Cl2NS+
178.9358	3	C5H3Cl2NS+
179.917	37	C5HCl3N+
179.9613	209	C5H4Cl2NO2+
195.939	5	C5H4Cl2NOS+
196.9194	4	C4H2Cl2NO2P+
197.9274	613	C5H3Cl3NO+
211.8891	13	C5HCl3NS+
212.8969	13	C5H2Cl3NS+
213.9046	93	C5H3Cl3NS+
229.8995	9	C5H3Cl3NOS+
275.8603	10	C5H2Cl3NO2PS+
293.8853	1	C9H4Cl3NPS+
321.9012	1	C7H8Cl3NO3PS+
325.9183	1	C9H6Cl3N2O3P+
