Mass spectrum: Diniconazole; LC-ESI-QFT; MS2; CE: 30%; R=17500; [M+H]+
Name: Diniconazole
Name: 1-(2,4-dichlorophenyl)-4,4-dimethyl-2-(1,2,4-triazol-1-yl)pent-1-en-3-ol
Formula: C15H17Cl2N3O
Exact mass: 325.0749
SMILES: CC(C)(C)C(C(=CC1=C(C=C(C=C1)Cl)Cl)N2C=NC=N2)O
InChI: InChI=1S/C15H17Cl2N3O/c1-15(2,3)14(21)13(20-9-18-8-19-20)6-10-4-5-11(16)7-12(10)17/h4-9,14,21H,1-3H3
Instrument: Exploris 240 Orbitrap Thermo Scientific
Instrument type: LC-ESI-QFT
Ms type: MS2
Ion mode: POSITIVE
Ionization: ESI
Fragmentation mode: HCD
Collision energy: 30 % (nominal)
Resolution: 17500
Column name: XBridge C18 3.5um, 2.1x50mm, Waters
Retention time: 12.153 min
Base peak: 326.0822
Precursor m/z: 326.0821
Precursor type: [M+H]+
m/z	relative intensity	assigned
57.07	3	C4H9+
70.04	245	C2H4N3+
158.9764	7	C7H5Cl2+
252.0087	7	C11H8Cl2N3+
269.0113	6	C11H9Cl2N3O+
308.0716	4	C15H16Cl2N3+
326.0823	999	C15H18Cl2N3O+
