Mass spectrum: N,N-Didesmethylvenlafaxine; LC-ESI-ITFT; MS2; CE: 15%; R=15000; [M+H]+
Name: N,N-Didesmethylvenlafaxine
Name: 1-[2-Amino-1-(4-methoxyphenyl)ethyl]cyclohexanol
Formula: C15H23NO2
Exact mass: 249.1729
SMILES: OC2(C(c1ccc(OC)cc1)CN)CCCCC2
InChI: InChI=1S/C15H23NO2/c1-18-13-7-5-12(6-8-13)14(11-16)15(17)9-3-2-4-10-15/h5-8,14,17H,2-4,9-11,16H2,1H3
Instrument: LTQ Orbitrap XL Thermo Scientific
Instrument type: LC-ESI-ITFT
Ms type: MS2
Ion mode: POSITIVE
Ionization: ESI
Fragmentation mode: HCD
Collision energy: 15 % (nominal)
Resolution: 15000
Column name: XBridge C18 3.5um, 2.1x50mm, Waters
Retention time: 6.3 min
Base peak: 250.1814
Precursor m/z: 250.1802
Precursor type: [M+H]+
m/z	relative intensity	assigned
81.0699	1	C6H9+
121.0648	95	C8H9O+
124.1121	6	C8H14N+
147.0804	38	C10H11O+
159.0804	10	C11H11O+
173.0962	12	C12H13O+
201.1275	8	C14H17O+
203.1431	61	C14H19O+
215.1432	999	C15H19O+
232.1698	651	C15H22NO+
250.1802	331	C15H24NO2+
