Mass spectrum: Sulfapyridine; LC-ESI-ITFT; MS2; CE: 30%; R=7500; [M+H]+
Name: Sulfapyridine
Name: 2-Sulfapyridine
Name: 4-amino-N-(2-pyridinyl)benzenesulfonamide
Formula: C11H11N3O2S
Exact mass: 249.0572
SMILES: c1(S(Nc2ccccn2)(=O)=O)ccc(N)cc1
InChI: InChI=1S/C11H11N3O2S/c12-9-4-6-10(7-5-9)17(15,16)14-11-3-1-2-8-13-11/h1-8H,12H2,(H,13,14)
Instrument: LTQ Orbitrap XL Thermo Scientific
Instrument type: LC-ESI-ITFT
Ms type: MS2
Ion mode: POSITIVE
Ionization: ESI
Fragmentation mode: HCD
Collision energy: 30 % (nominal)
Resolution: 7500
Column name: XBridge C18 3.5um, 2.1x50mm, Waters
Retention time: 2.9 min
Base peak: 250.0651
Precursor m/z: 250.0645
Precursor type: [M+H]+
m/z	relative intensity	assigned
65.0384	5	C5H5+
68.0494	2	C4H6N+
78.0336	1	C5H4N+
92.0494	63	C6H6N+
93.0449	2	C5H5N2+
93.0573	4	C6H7N+
94.0523	4	C5H6N2+
95.0603	75	C5H7N2+
108.0443	122	C6H6NO+
156.0113	340	C6H6NO2S+
157.0066	37	C5H5N2O2S+
184.0868	192	C11H10N3+
186.1028	5	C11H12N3+
232.0528	2	C11H10N3OS+
250.0645	999	C11H12N3O2S+
