Mass spectrum: Trimethoprim; LC-ESI-ITFT; MS2; CE: 60%; R=7500; [M+H]+
Name: Trimethoprim
Name: 2,4-Diamino-5-(3,4,5-trimethoxybenzyl)pyrimidine
Name: 5-[(3,4,5-trimethoxyphenyl)methyl]pyrimidine-2,4-diamine
Formula: C14H18N4O3
Exact mass: 290.1379
SMILES: c1(Cc2c(nc(N)nc2)N)cc(c(OC)c(c1)OC)OC
InChI: InChI=1S/C14H18N4O3/c1-19-10-5-8(6-11(20-2)12(10)21-3)4-9-7-17-14(16)18-13(9)15/h5-7H,4H2,1-3H3,(H4,15,16,17,18)
Instrument: LTQ Orbitrap XL Thermo Scientific
Instrument type: LC-ESI-ITFT
Ms type: MS2
Ion mode: POSITIVE
Ionization: ESI
Fragmentation mode: HCD
Collision energy: 60 % (nominal)
Resolution: 7500
Column name: XBridge C18 3.5um, 2.1x50mm, Waters
Retention time: 3.8 min
Base peak: 291.1463
Precursor m/z: 291.1452
Precursor type: [M+H]+
m/z	relative intensity	assigned
81.0448	46	C4H5N2+
110.0588	66	C4H6N4+
111.0665	42	C4H7N4+
123.0666	549	C5H7N4+
124.0744	33	C5H8N4+
151.0394	20	C8H7O3+
161.0821	10	C8H9N4+
174.0662	22	C9H8N3O+
181.0861	33	C10H13O3+
187.098	50	C10H11N4+
201.0787	19	C12H11NO2+
201.1135	118	C11H13N4+
202.1212	55	C11H14N4+
215.0933	15	C11H11N4O+
217.1083	34	C11H13N4O+
229.1087	215	C12H13N4O+
230.1164	575	C12H14N4O+
231.0874	16	C11H11N4O2+
232.0963	45	C11H12N4O2+
233.1034	216	C11H13N4O2+
245.1034	414	C12H13N4O2+
246.1112	49	C12H14N4O2+
247.0836	17	C11H11N4O3+
247.119	111	C12H15N4O2+
257.1035	427	C13H13N4O2+
258.1109	30	C13H14N4O2+
259.0819	27	C12H11N4O3+
261.0984	999	C12H13N4O3+
275.1139	671	C13H15N4O3+
276.1218	9	C13H16N4O3+
291.1456	118	C14H19N4O3+
