Mass spectrum: Tolnaftate; LC-ESI-QFT; MS2; CE: 60; R=35000; [M+H]+
Name: Tolnaftate
Name: Carbamothioic acid, methyl(3-methylphenyl)-, O-2-naphthalenyl ester
Name: N-methyl-N-(3-methylphenyl)carbamothioic acid O-(2-naphthalenyl) ester
Formula: C19H17NOS
Exact mass: 307.10309
SMILES: S=C(Oc2ccc1c(cccc1)c2)N(c3cc(ccc3)C)C
InChI: InChI=1S/C19H17NOS/c1-14-6-5-9-17(12-14)20(2)19(22)21-18-11-10-15-7-3-4-8-16(15)13-18/h3-13H,1-2H3
Instrument: Q Exactive Orbitrap Thermo Scientific
Instrument type: LC-ESI-QFT
Ms type: MS2
Ion mode: POSITIVE
Ionization: ESI
Fragmentation mode: HCD
Collision energy: 60 (nominal)
Resolution: 35000
Column name: XBridge C18 3.5um, 2.1x50mm, Waters
Retention time: 15.0 min
Base peak: 308.1106
Precursor m/z: 308.1104
Precursor type: [M+H]+
m/z	relative intensity	assigned
65.0387	170	C5H5+
79.0543	39	C6H7+
91.0543	497	C7H7+
93.07	38	C7H9+
107.0491	30	
109.0649	190	C7H9O+
119.0603	46	C7H7N2+
120.0808	999	C8H10N+
123.0262	282	C7H7S+
148.0756	234	C9H10NO+
149.0295	45	C8H7NS+
164.0531	291	C9H10NS+
