Mass spectrum: Ethofumesate-2-keto; LC-ESI-ITFT; MS2; CE: 60%; R=15000; [M+H]+
Name: Ethofumesate-2-keto
Name: 3,3-Dimethyl-2-oxo-2,3-dihydrobenzofurane-5-yl methane sulfonate
Formula: C11H12O5S
Exact mass: 256.0405
SMILES: CS(=O)(=O)Oc1cc2c(cc1)OC(=O)C2(C)C
InChI: InChI=1S/C11H12O5S/c1-11(2)8-6-7(16-17(3,13)14)4-5-9(8)15-10(11)12/h4-6H,1-3H3
Instrument: LTQ Orbitrap XL Thermo Scientific
Instrument type: LC-ESI-ITFT
Ms type: MS2
Ion mode: POSITIVE
Ionization: ESI
Fragmentation mode: HCD
Collision energy: 60 % (nominal)
Resolution: 15000
Column name: XBridge C18 3.5um, 2.1x50mm, Waters
Retention time: 6.0 min
Base peak: 297.0411
Precursor m/z: 257.0478
Precursor type: [M+H]+
m/z	relative intensity	assigned
79.0543	86	C6H7+
91.0545	60	C7H7+
93.0699	66	C7H9+
94.0414	59	C6H6O+
103.0541	102	C8H7+
105.0698	207	C8H9+
107.0493	39	C7H7O+
121.0648	251	C8H9O+
122.0726	138	C8H10O+
123.0441	250	C7H7O2+
132.0569	107	C9H8O+
133.0647	75	C9H9O+
135.0436	59	C8H7O2+
149.0596	707	C9H9O2+
150.0674	320	C9H10O2+
159.0443	60	C10H7O2+
160.0519	409	C10H8O2+
161.0595	174	C10H9O2+
163.0388	120	C9H7O3+
177.0544	999	C10H9O3+
178.0622	176	C10H10O3+
201.0215	597	C8H9O4S+
229.0523	46	C10H13O4S+
