Mass spectrum: Climbazol; LC-ESI-ITFT; MS2; CE: 90%; R=30000; [M+H]+
Name: Climbazol
Name: Climbazole
Name: 1-(4-chloranylphenoxy)-1-imidazol-1-yl-3,3-dimethyl-butan-2-one
Formula: C15H17ClN2O2
Exact mass: 292.0979
SMILES: CC(C)(C)C(=O)C(N1C=CN=C1)OC2=CC=C(C=C2)Cl
InChI: InChI=1S/C15H17ClN2O2/c1-15(2,3)13(19)14(18-9-8-17-10-18)20-12-6-4-11(16)5-7-12/h4-10,14H,1-3H3
Instrument: LTQ Orbitrap XL Thermo Scientific
Instrument type: LC-ESI-ITFT
Ms type: MS2
Ion mode: POSITIVE
Ionization: ESI
Fragmentation mode: HCD
Collision energy: 90 % (nominal)
Resolution: 30000
Column name: XBridge C18 3.5um, 2.1x50mm, Waters
Retention time: 8.1 min
Base peak: 293.1064
Precursor m/z: 293.1051
Precursor type: [M+H]+
m/z	relative intensity	assigned
55.0542	71	C4H7+
57.0698	359	C4H9+
65.0385	22	C5H5+
67.0543	20	C5H7+
69.0699	248	C5H9+
70.0777	125	C5H10+
72.984	25	C3H2Cl+
75.0229	69	C6H3+
77.0385	127	C6H5+
81.0447	58	C4H5N2+
82.0525	52	C4H6N2+
91.0542	76	C7H7+
93.0334	31	C6H5O+
94.0413	52	C6H6O+
98.9996	999	C5H4Cl+
105.0446	34	C6H5N2+
109.0396	121	C5H5N2O+
110.9995	123	C6H4Cl+
113.0152	104	C6H6Cl+
121.0395	27	C6H5N2O+
126.9944	311	C6H4ClO+
129.01	142	C6H6ClO+
139.0057	716	C6H4ClN2+
141.0101	167	C7H6ClO+
155.0257	41	C8H8ClO+
175.0756	11	C11H11O2+
