Mass spectrum: Sulfanilic acid; LC-ESI-ITFT; MS2; CE: 35%; R=7500; [M+H]+
Name: Sulfanilic acid
Name: 4-aminobenzenesulfonic acid
Formula: C6H7NO3S
Exact mass: 173.0147
SMILES: S(c1ccc(N)cc1)(O)(=O)=O
InChI: InChI=1S/C6H7NO3S/c7-5-1-3-6(4-2-5)11(8,9)10/h1-4H,7H2,(H,8,9,10)
Instrument: LTQ Orbitrap XL Thermo Scientific
Instrument type: LC-ESI-ITFT
Ms type: MS2
Ion mode: POSITIVE
Ionization: ESI
Fragmentation mode: CID
Collision energy: 35 % (nominal)
Resolution: 7500
Column name: XBridge C18 3.5um, 2.1x50mm, Waters
Retention time: 0.9 min
Base peak: 174.0217
Precursor m/z: 174.0219
Precursor type: [M+H]+
m/z	relative intensity	assigned
92.0495	16	C6H6N+
93.0573	865	C6H7N+
94.0651	135	C6H8N+
108.0444	47	C6H6NO+
109.0521	13	C6H7NO+
110.06	13	C6H8NO+
127.9562	2	C4O3S+
156.0113	999	C6H6NO2S+
