Mass spectrum: Ethyl 3-(N-butylacetamido)propanoate; LC-ESI-QFT; MS2; CE: 60%; R=17500; [M+H]+
Name: Ethyl 3-(N-butylacetamido)propanoate
Name: Ethyl butylacetylaminopropionate
Name: ethyl 3-[acetyl(butyl)amino]propanoate
Formula: C11H21NO3
Exact mass: 215.1521
SMILES: CCCCN(CCC(=O)OCC)C(=O)C
InChI: InChI=1S/C11H21NO3/c1-4-6-8-12(10(3)13)9-7-11(14)15-5-2/h4-9H2,1-3H3
Instrument: Exploris 240 Orbitrap Thermo Scientific
Instrument type: LC-ESI-QFT
Ms type: MS2
Ion mode: POSITIVE
Ionization: ESI
Fragmentation mode: HCD
Collision energy: 60 % (nominal)
Resolution: 17500
Column name: XBridge C18 3.5um, 2.1x50mm, Waters
Retention time: 6.563 min
Base peak: 216.1592
Precursor m/z: 216.1594
Precursor type: [M+H]+
m/z	relative intensity	assigned
55.0178	6	C3H3O+
57.07	8	C4H9+
61.0285	4	C2H5O2+
73.0284	8	C3H5O2+
86.0964	999	C5H12N+
116.1068	5	C6H14NO+
128.1069	123	C7H14NO+
170.1176	17	C9H16NO2+
174.1487	16	C9H20NO2+
