Mass spectrum: Difenoconazole; LC-ESI-ITFT; MS2; CE: 45%; R=15000; [M+H]+
Name: Difenoconazole
Name: 1-[[2-[2-chloranyl-4-(4-chloranylphenoxy)phenyl]-4-methyl-1,3-dioxolan-2-yl]methyl]-1,2,4-triazole
Formula: C19H17Cl2N3O3
Exact mass: 405.0647
SMILES: Clc4ccc(Oc1ccc(c(Cl)c1)C2(OCC(O2)C)Cn3ncnc3)cc4
InChI: InChI=1S/C19H17Cl2N3O3/c1-13-9-25-19(27-13,10-24-12-22-11-23-24)17-7-6-16(8-18(17)21)26-15-4-2-14(20)3-5-15/h2-8,11-13H,9-10H2,1H3
Instrument: LTQ Orbitrap XL Thermo Scientific
Instrument type: LC-ESI-ITFT
Ms type: MS2
Ion mode: POSITIVE
Ionization: ESI
Fragmentation mode: HCD
Collision energy: 45 % (nominal)
Resolution: 15000
Column name: XBridge C18 3.5um, 2.1x50mm, Waters
Retention time: 14.1 min
Base peak: 406.0724
Precursor m/z: 406.072
Precursor type: [M+H]+
m/z	relative intensity	assigned
126.9943	1	C6H4ClO+
129.0698	2	C10H9+
139.0308	1	C8H8Cl+
141.0103	1	C7H6ClO+
152.0618	1	C12H8+
164.0386	10	C10H9Cl+
181.0645	1	C13H9O+
187.0308	4	C12H8Cl+
188.0386	9	C12H9Cl+
215.0253	2	C13H8ClO+
223.0073	8	C12H9Cl2+
251.0022	999	C13H9Cl2O+
256.0644	2	C16H13ClO+
261.9942	2	C14H8Cl2O+
263.002	1	C14H9Cl2O+
264.9815	34	C13H7Cl2O2+
273.0305	1	C15H10ClO3+
279.0333	1	C15H13Cl2O+
291.0333	15	C16H13Cl2O+
295.9995	1	C12H8Cl2N3O2+
323.0232	12	C16H13Cl2O3+
