Mass spectrum: Chlorthiazide; LC-ESI-QFT; MS2; CE: 60; R=35000; [M+H]+
Name: Chlorthiazide
Name: 6-chloro-1,1-dioxo-4H-1$l^{6},2,4-benzothiadiazine-7-sulfonamide
Formula: C7H6ClN3O4S2
Exact mass: 294.94883
SMILES: C1=C2C(=CC(=C1Cl)S(=O)(=O)N)S(=O)(=O)NC=N2
InChI: InChI=1S/C7H6ClN3O4S2/c8-4-1-5-7(2-6(4)16(9,12)13)17(14,15)11-3-10-5/h1-3H,(H,10,11)(H2,9,12,13)
Instrument: Q Exactive Plus Orbitrap Thermo Scientific
Instrument type: LC-ESI-QFT
Ms type: MS2
Ion mode: POSITIVE
Ionization: ESI
Fragmentation mode: HCD
Collision energy: 60 (nominal)
Resolution: 35000
Column name: XBridge C18 3.5um, 2.1x50mm, Waters
Retention time: 1.9 min
Base peak: 295.956
Precursor m/z: 295.9561
Precursor type: [M+H]+
m/z	relative intensity	assigned
52.0182	14	C3H2N+
54.0338	2	C3H4N+
58.995	1	C2H3S+
59.9902	6	CH2NS+
61.9791	5	CHClN+
62.0149	1	C5H2+
62.9632	2	CClO+
63.0228	1	C5H3+
63.9851	35	H2NOS+
64.0181	12	C4H2N+
65.0259	2	C4H3N+
66.0338	8	C4H4N+
67.0416	4	C4H5N+
68.0131	5	C3H2NO+
68.0494	1	C4H6N+
68.9793	13	C3HS+
69.0447	5	C3H5N2+
69.9745	5	C2NS+
70.0525	9	C3H6N2+
70.995	5	C3H3S+
71.9901	13	C2H2NS+
72.9839	28	C3H2Cl+
76.0181	7	C5H2N+
78.0338	40	C5H4N+
78.9403	40	CClS+
79.0417	5	C5H5N+
79.98	10	H2NO2S+
80.013	13	C4H2NO+
80.0493	1	C5H6N+
80.9792	1	C4HS+
82.0287	5	C4H4NO+
82.0525	2	C4H6N2+
83.9901	1	C3H2NS+
84.9838	2	C4H2Cl+
85.9793	2	C3HClN+
86.0059	10	C3H4NS+
86.9631	14	C3ClO+
86.9996	31	C4H4Cl+
87.9948	23	C3H3ClN+
88.0182	1	C6H2N+
89.0259	24	C6H3N+
90.0105	5	C3H5ClN+
90.0338	2	C6H4N+
92.013	3	C5H2NO+
93.0447	76	C5H5N2+
94.0286	10	C5H4NO+
94.0526	17	C5H6N2+
94.9948	2	C5H3S+
95.9902	90	C4H2NS+
96.0444	13	C5H6NO+
96.9743	7	C4HOS+
96.9839	39	C5H2Cl+
96.998	9	C4H3NS+
97.9792	198	C4HClN+
98.9995	1	C5H4Cl+
99.9948	20	C4H3ClN+
100.9789	2	C4H2ClO+
101.0027	29	C4H4ClN+
102.0105	23	C4H5ClN+
102.9403	50	C3ClS+
104.956	273	C3H2ClS+
105.0447	66	C6H5N2+
106.0287	22	C6H4NO+
106.0525	55	C6H6N2+
106.9823	47	C5HNS+
107.9902	62	C5H2NS+
108.9744	2	C5HOS+
108.998	25	C5H3NS+
109.0158	5	C5H3NO2+
109.0395	5	C5H5N2O+
110.0475	12	C5H6N2O+
111.0552	6	C5H7N2O+
111.9948	63	C5H3ClN+
112.9789	2	C5H2ClO+
113.0026	6	C5H4ClN+
113.9741	38	C4HClNO+
114.0105	223	C5H5ClN+
114.9945	19	C5H4ClO+
115.0054	1	C4H4ClN2+
115.0291	3	C7H3N2+
115.9898	56	C4H3ClNO+
116.037	7	C7H4N2+
116.956	19	C4H2ClS+
117.0447	62	C7H5N2+
118.0528	1	C7H6N2+
119.9669	12	C3H3ClNS+
121.0396	84	C6H5N2O+
122.0474	56	C6H6N2O+
123.0011	117	C5H3N2S+
123.9948	187	C6H3ClN+
124.009	103	C5H4N2S+
124.0393	66	C6H6NO2+
124.993	13	C5H3NOS+
125.0027	116	C6H4ClN+
125.9978	1	C5H3ClN2+
126.0105	22	C6H5ClN+
126.982	12	C5H2ClNO+
127.0057	2	C5H4ClN2+
127.9897	18	C5H3ClNO+
128.9976	35	C5H4ClNO+
129.0214	285	C5H6ClN2+
130.0054	205	C5H5ClNO+
130.9719	3	C5H4ClS+
131.9669	559	C4H3ClNS+
132.9509	86	C4H2ClOS+
133.0395	6	C7H5N2O+
133.0632	5	C7H7N3+
134.0474	8	C7H6N2O+
139.0057	35	C6H4ClN2+
139.9897	964	C6H3ClNO+
140.9975	28	C6H4ClNO+
141.012	31	C5H5N2OS+
141.0213	70	C6H6ClN2+
141.9513	999	C5HClNS+
142.0054	396	C6H5ClNO+
142.9591	2	C5H2ClNS+
143.9669	29	C5H3ClNS+
143.9845	10	C5H3ClNO2+
144.9509	7	C5H2ClOS+
144.9926	10	C5H4ClNO2+
145.0163	10	C5H6ClN2O+
145.0506	1	C7H5N4+
150.9965	13	C6H3N2OS+
151.0057	74	C7H4ClN2+
152.0136	98	C7H5ClN2+
152.9976	6	C7H4ClNO+
153.0215	15	C7H6ClN2+
153.9689	13	C6HClNO2+
153.993	3	C6H3ClN2O+
155.0006	60	C6H4ClN2O+
155.9846	669	C6H3ClNO2+
157.0163	707	C6H6ClN2O+
158.0003	477	C6H5ClNO2+
158.9779	12	C5H4ClN2S+
159.9618	135	C5H3ClNOS+
160.0159	30	C6H7ClNO2+
160.9454	9	C5H2ClO2S+
167.0008	2	C7H4ClN2O+
168.0086	6	C7H5ClN2O+
168.9927	9	C7H4ClNO2+
169.0065	2	C6H5N2O2S+
169.0164	12	C7H6ClN2O+
169.9462	423	C6HClNOS+
170.9777	2	C6H4ClN2S+
171.9616	1	C6H3ClNOS+
171.9794	15	C6H3ClNO3+
173.0112	309	C6H6ClN2O2+
173.9952	182	C6H5ClNO3+
177.9724	27	C5H5ClNO2S+
179.0116	16	C4H7N2O4S+
184.0033	33	C7H5ClN2O2+
184.9875	2	C7H4ClNO3+
185.0016	34	C6H5N2O3S+
186.9729	8	C6H4ClN2OS+
187.9567	398	C6H3ClNO2S+
188.9643	10	C6H4ClNO2S+
192.9831	12	C5H6ClN2O2S+
203.9518	696	C6H3ClNO3S+
204.9834	704	C6H6ClN2O2S+
205.9673	9	C6H5ClNO3S+
206.9753	1	C6H6ClNO3S+
214.9676	411	C7H4ClN2O2S+
215.9755	48	C7H5ClN2O2S+
220.9782	580	C6H6ClN2O3S+
223.9779	6	C6H7ClNO4S+
230.9625	160	C7H4ClN2O3S+
232.9783	46	C7H6ClN2O3S+
242.9738	81	C7H4ClN4O2S+
247.9653	46	C7H5ClN2O4S+
278.9295	57	C7H4ClN2O4S2+
286.9555	7	C4H6ClN5O4S2+
295.9561	6	C7H7ClN3O4S2+
