Mass spectrum: 4-Hydroxyamphetamine; LC-ESI-QFT; MS2; CE: 40%; R=15000; [M+H]+
Name: 4-Hydroxyamphetamine
Name: 4-(2-aminopropyl)phenol
Formula: C9H13NO
Exact mass: 151.099714
SMILES: CC(CC1=CC=C(C=C1)O)N
InChI: InChI=1S/C9H13NO/c1-7(10)6-8-2-4-9(11)5-3-8/h2-5,7,11H,6,10H2,1H3
Instrument: Exploris 240 Thermo Scientific
Instrument type: LC-ESI-QFT
Ms type: MS2
Ion mode: POSITIVE
Ionization: ESI
Fragmentation mode: HCD
Collision energy: 40 % (nominal)
Resolution: 15000
Column name: XBridge C18 3.5um, 2.1x50mm, Waters
Retention time: 1.579 min
Base peak: 135.0802
Precursor m/z: 152.107
Precursor type: [M+H]+
m/z	relative intensity	assigned
79.0542	12	C6H7+
95.049	12	C6H7O+
107.0491	999	C7H7O+
135.0804	39	C9H11O+
