Mass spectrum: Fluvastatin; LC-ESI-QFT; MS2; CE: 15; R=35000; [M-H]-
Name: Fluvastatin
Name: (3R,5S)-7-[3-(4-fluorophenyl)-1-isopropyl-2-indolyl]-3,5-dihydroxy-6-heptenoic acid
Formula: C24H26FNO4
Exact mass: 411.18459
SMILES: O=C(O)C[C@H](O)C[C@H](O)/C=C/c2c(c1ccccc1n2C(C)C)c3ccc(F)cc3
InChI: InChI=1S/C24H26FNO4/c1-15(2)26-21-6-4-3-5-20(21)24(16-7-9-17(25)10-8-16)22(26)12-11-18(27)13-19(28)14-23(29)30/h3-12,15,18-19,27-28H,13-14H2,1-2H3,(H,29,30)/b12-11+/t18-,19-/m1/s1
Instrument: Q Exactive Orbitrap Thermo Scientific
Instrument type: LC-ESI-QFT
Ms type: MS2
Ion mode: NEGATIVE
Ionization: ESI
Fragmentation mode: HCD
Collision energy: 15 (nominal)
Resolution: 35000
Column name: XBridge C18 3.5um, 2.1x50mm, Waters
Retention time: 13.5 min
Base peak: 410.1777
Precursor m/z: 410.1773
Precursor type: [M-H]-
m/z	relative intensity	assigned
59.0138	96	C2H3O2-
85.0295	115	C4H5O2-
87.0088	212	C3H3O3-
99.0452	3	C5H7O2-
210.0721	40	C14H9FN-
252.1193	5	C17H15FN-
264.0826	4	C17H11FNO-
266.1349	1	C18H17FN-
280.1141	2	C18H15FNO-
290.0982	3	C19H13FNO-
306.13	14	C20H17FNO-
307.1378	5	C20H18FNO-
308.1456	2	C20H19FNO-
322.1611	100	C21H21FNO-
330.1671	3	C23H21FN-
332.1457	30	C22H19FNO-
348.1767	999	C23H23FNO-
350.1561	14	C22H21FNO2-
410.1771	662	C24H25FNO4-
