Mass spectrum: 4-Aminoantipyrine; LC-ESI-ITFT; MS2; CE: 75%; R=15000; [M+H]+
Name: 4-Aminoantipyrine
Name: 4-amino-1,5-dimethyl-2-phenyl-3-pyrazolin-3-one
Formula: C11H13N3O
Exact mass: 203.1059
SMILES: c(ccc1N(N(C=2C)C)C(=O)C2N)cc1
InChI: InChI=1S/C11H13N3O/c1-8-10(12)11(15)14(13(8)2)9-6-4-3-5-7-9/h3-7H,12H2,1-2H3
Instrument: LTQ Orbitrap XL Thermo Scientific
Instrument type: LC-ESI-ITFT
Ms type: MS2
Ion mode: POSITIVE
Ionization: ESI
Fragmentation mode: HCD
Collision energy: 75 % (nominal)
Resolution: 15000
Column name: XBridge C18 3.5um, 2.1x50mm, Waters
Retention time: 2.6 min
Base peak: 204.1138
Precursor m/z: 204.1131
Precursor type: [M+H]+
m/z	relative intensity	assigned
56.0495	999	C3H6N+
58.0651	47	C3H8N+
68.0495	21	C4H6N+
77.0386	45	C6H5+
83.0604	140	C4H7N2+
85.076	22	C4H9N2+
92.0497	7	C6H6N+
94.0652	368	C6H8N+
95.0495	5	C6H7O+
104.0495	84	C7H6N+
105.0447	13	C6H5N2+
106.0652	5	C7H8N+
118.0653	25	C8H8N+
122.0601	4	C7H8NO+
128.0495	33	C9H6N+
130.0651	29	C9H8N+
132.0442	9	C8H6NO+
132.0806	35	C9H10N+
142.0649	5	C10H8N+
145.076	19	C9H9N2+
146.06	50	C9H8NO+
159.0917	60	C10H11N2+
160.0869	15	C9H10N3+
185.0709	4	C11H9N2O+
189.0895	6	C10H11N3O+
