Mass spectrum: Celiprolol; LC-ESI-QFT; MS2; CE: 45; R=35000; [M+H]+
Name: Celiprolol
Name: 3-[3-acetyl-4-[3-(tert-butylamino)-2-hydroxy-propoxy]phenyl]-1,1-diethyl-urea
Formula: C20H33N3O4
Exact mass: 379.24711
SMILES: CCN(CC)C(=O)NC1=CC(=C(C=C1)OCC(CNC(C)(C)C)O)C(=O)C
InChI: InChI=1S/C20H33N3O4/c1-7-23(8-2)19(26)22-15-9-10-18(17(11-15)14(3)24)27-13-16(25)12-21-20(4,5)6/h9-11,16,21,25H,7-8,12-13H2,1-6H3,(H,22,26)
Instrument: Q Exactive Orbitrap Thermo Scientific
Instrument type: LC-ESI-QFT
Ms type: MS2
Ion mode: POSITIVE
Ionization: ESI
Fragmentation mode: HCD
Collision energy: 45 (nominal)
Resolution: 35000
Column name: XBridge C18 3.5um, 2.1x50mm, Waters
Retention time: 5.6 min
Base peak: 380.2546
Precursor m/z: 380.2544
Precursor type: [M+H]+
m/z	relative intensity	assigned
56.0496	213	C3H6N+
57.0699	27	C4H9+
72.0444	49	C3H6NO+
72.0808	10	C4H10N+
74.0601	999	C3H8NO+
74.0964	575	C4H12N+
86.0965	1	C5H12N+
100.0757	265	C5H10NO+
112.1123	2	C7H14N+
130.1227	18	C7H16NO+
132.0444	1	C8H6NO+
146.0599	1	C9H8NO+
148.0393	16	C8H6NO2+
150.0553	5	C8H8NO2+
160.0393	2	C9H6NO2+
160.0753	3	C10H10NO+
172.0395	1	C10H6NO2+
174.0549	11	C10H8NO2+
176.0706	36	C10H10NO2+
178.0498	20	C9H8NO3+
186.0552	32	C11H8NO2+
188.0706	3	C11H10NO2+
189.0663	10	C10H9N2O2+
190.05	4	C10H8NO3+
198.0548	2	C12H8NO2+
204.0657	224	C11H10NO3+
209.1286	7	C11H17N2O2+
216.0657	240	C12H10NO3+
233.0923	271	C12H13N2O3+
234.0765	5	C12H12NO4+
247.1446	8	C14H19N2O2+
251.1028	340	C12H15N2O4+
251.1391	286	C13H19N2O3+
263.1393	14	C14H19N2O3+
264.1707	1	C14H22N3O2+
277.1548	35	C15H21N2O3+
282.1815	8	C14H24N3O3+
289.1546	29	C16H21N2O3+
306.1814	32	C16H24N3O3+
307.1654	40	C16H23N2O4+
324.1917	12	C16H26N3O4+
380.255	1	C20H34N3O4+
