Mass spectrum: Nicosulfuron-TP UCSN; LC-ESI-QFT; MS2; CE: 15%; R=17500; [M-H]-
Name: Nicosulfuron-TP UCSN
Name: 2-[(Carbamoylcarbamoyl)sulfamoyl]-N,N-dimethylnicotinamide
Formula: C10H13N5O5S
Exact mass: 315.0637
SMILES: CN(C)C(=O)C1=CC=CN=C1S(=O)(=O)NC(=O)NC(N)=O
InChI: InChI=1S/C10H13N5O5S/c1-15(2)8(16)6-4-3-5-12-7(6)21(19,20)14-10(18)13-9(11)17/h3-5H,1-2H3,(H4,11,13,14,17,18)
Instrument: Q Exactive Plus Orbitrap Thermo Scientific
Instrument type: LC-ESI-QFT
Ms type: MS2
Ion mode: NEGATIVE
Ionization: ESI
Fragmentation mode: HCD
Collision energy: 15 % (nominal)
Resolution: 17500
Column name: XBridge C18 3.5um, 2.1x50mm, Waters
Retention time: 1.525 min
Base peak: 314.0565
Precursor m/z: 314.0565
Precursor type: [M-H]-
m/z	relative intensity	assigned
84.0205	19	C2H2N3O-
85.0042	8	C2HN2O2-
165.0669	59	C8H9N2O2-
182.9866	13	C6H3N2O3S-
207.0886	19	C9H11N4O2-
210.034	23	C8H8N3O2S-
228.0449	603	C8H10N3O3S-
271.0507	833	C9H11N4O4S-
314.0565	999	C10H12N5O5S-
