Mass spectrum: Chlorfluazuron; LC-ESI-QFT; MS2; CE: 180%; R=17500; [M+H]+
Name: Chlorfluazuron
Name: N-[[3,5-dichloro-4-[3-chloro-5-(trifluoromethyl)pyridin-2-yl]oxyphenyl]carbamoyl]-2,6-difluorobenzamide
Formula: C20H9Cl3F5N3O3
Exact mass: 538.9630
SMILES: C1=CC(=C(C(=C1)F)C(=O)NC(=O)NC2=CC(=C(C(=C2)Cl)OC3=C(C=C(C=N3)C(F)(F)F)Cl)Cl)F
InChI: InChI=1S/C20H9Cl3F5N3O3/c21-10-5-9(30-19(33)31-17(32)15-13(24)2-1-3-14(15)25)6-11(22)16(10)34-18-12(23)4-8(7-29-18)20(26,27)28/h1-7H,(H2,30,31,32,33)
Instrument: Exploris 240 Orbitrap Thermo Scientific
Instrument type: LC-ESI-QFT
Ms type: MS2
Ion mode: POSITIVE
Ionization: ESI
Fragmentation mode: HCD
Collision energy: 180 % (nominal)
Resolution: 17500
Column name: XBridge C18 3.5um, 2.1x50mm, Waters
Retention time: 15.243 min
Base peak: 539.9705
Precursor m/z: 539.9702
Precursor type: [M+H]+
m/z	relative intensity	assigned
61.0072	89	C5H+
61.9793	49	CHClN+
62.0151	204	C5H2+
63.0229	999	C5H3+
64.0181	101	C4H2N+
66.9745	63	CHClF+
66.9991	24	CHF2O+
68.9947	430	CF3+
72.984	602	C3H2Cl+
73.9795	62	C2HClN+
74.0151	161	C6H2+
75.0043	157	C3HF2+
75.0105	334	C5HN+
75.023	29	C6H3+
76.0182	411	C5H2N+
82.945	57	CHCl2+
83.9761	83	C4HCl+
84.9652	142	CClF2+
84.9841	43	C4H2Cl+
87.0104	30	C6HN+
88.0182	186	C6H2N+
90.9744	94	C3HClF+
92.9946	28	C3F3+
93.0136	115	C6H2F+
95.9765	15	C5HCl+
96.984	297	C5H2Cl+
97.9792	124	C4HClN+
99.0039	28	F3N3+
100.0182	110	C7H2N+
106.945	79	C3HCl2+
108.9652	144	C3ClF2+
109.9793	213	C5HClN+
110.9873	12	C5H2ClN+
111.9947	19	C5H3ClN+
113.0201	17	C6H3F2+
123.9947	262	C6H3ClN+
132.9653	27	C5ClF2+
141.0258	50	C6H3F2N2+
