Mass spectrum: Diazinon; LC-ESI-ITFT; MS2; CE: 75%; R=7500; [M+H]+
Name: Diazinon
Name: diethoxy-(2-isopropyl-6-methyl-pyrimidin-4-yl)oxy-thioxo-phosphorane
Formula: C12H21N2O3PS
Exact mass: 304.1011
SMILES: O(c1nc(nc(c1)C)C(C)C)P(OCC)(OCC)=S
InChI: InChI=1S/C12H21N2O3PS/c1-6-15-18(19,16-7-2)17-11-8-10(5)13-12(14-11)9(3)4/h8-9H,6-7H2,1-5H3
Instrument: LTQ Orbitrap XL Thermo Scientific
Instrument type: LC-ESI-ITFT
Ms type: MS2
Ion mode: POSITIVE
Ionization: ESI
Fragmentation mode: HCD
Collision energy: 75 % (nominal)
Resolution: 7500
Column name: XBridge C18 3.5um, 2.1x50mm, Waters
Retention time: 13.0 min
Base peak: 305.1095
Precursor m/z: 305.1083
Precursor type: [M+H]+
m/z	relative intensity	assigned
58.995	14	C2H3S+
64.9788	11	H2O2P+
67.0417	11	C4H5N+
70.0652	110	C4H8N+
78.9401	11	OPS+
80.9737	34	H2O3P+
84.0444	354	C4H6NO+
90.9942	8	C2H4O2P+
96.9509	611	H2O2PS+
98.9843	84	H4O4P+
100.0216	656	C4H6NS+
109.005	69	C2H6O3P+
114.9614	468	H4O3PS+
153.1023	459	C8H13N2O+
154.0561	31	C7H10N2S+
167.0631	8	C8H11N2S+
169.0795	999	C8H13N2S+
