Mass spectrum: Metobromuron; LC-ESI-QFT; MS2; CE: 180%; R=17500; [M+H]+
Name: Metobromuron
Name: 3-(4-bromophenyl)-1-methoxy-1-methylurea
Formula: C9H11BrN2O2
Exact mass: 258.0004
SMILES: CN(C(=O)NC1=CC=C(C=C1)Br)OC
InChI: InChI=1S/C9H11BrN2O2/c1-12(14-2)9(13)11-8-5-3-7(10)4-6-8/h3-6H,1-2H3,(H,11,13)
Instrument: Exploris 240 Orbitrap Thermo Scientific
Instrument type: LC-ESI-QFT
Ms type: MS2
Ion mode: POSITIVE
Ionization: ESI
Fragmentation mode: HCD
Collision energy: 180 % (nominal)
Resolution: 17500
Column name: XBridge C18 3.5um, 2.1x50mm, Waters
Retention time: 6.748 min
Base peak: 259.0077
Precursor m/z: 259.0077
Precursor type: [M+H]+
m/z	relative intensity	assigned
50.0152	34	C4H2+
51.0229	63	C4H3+
52.0182	198	C3H2N+
58.0288	75	C2H4NO+
62.0151	58	C5H2+
63.0229	999	C5H3+
64.0183	25	C4H2N+
64.0308	433	C5H4+
65.026	88	C4H3N+
65.0386	880	C5H5+
77.0388	30	C6H5+
78.0338	30	C5H4N+
91.0417	311	C6H5N+
92.0495	140	C6H6N+
92.9338	85	CH2Br+
116.9334	234	C3H2Br+
119.0604	74	C7H7N2+
142.9495	60	C5H4Br+
