Mass spectrum: Imidaclothiz; LC-ESI-QFT; MS2; CE: 120%; R=17500; [M+H]+
Name: Imidaclothiz
Name: N-[1-[(2-chloro-1,3-thiazol-5-yl)methyl]-4,5-dihydroimidazol-2-yl]nitramide
Formula: C7H8ClN5O2S
Exact mass: 261.0087
SMILES: C1CN(C(=N1)N[N+](=O)[O-])CC2=CN=C(S2)Cl
InChI: InChI=1S/C7H8ClN5O2S/c8-6-10-3-5(16-6)4-12-2-1-9-7(12)11-13(14)15/h3H,1-2,4H2,(H,9,11)
Instrument: Exploris 240 Orbitrap Thermo Scientific
Instrument type: LC-ESI-QFT
Ms type: MS2
Ion mode: POSITIVE
Ionization: ESI
Fragmentation mode: HCD
Collision energy: 120 % (nominal)
Resolution: 17500
Column name: XBridge C18 3.5um, 2.1x50mm, Waters
Retention time: 3.937 min
Base peak: 239.15
Precursor m/z: 262.016
Precursor type: [M+H]+
m/z	relative intensity	assigned
54.0338	73	C3H4N+
55.0292	21	C2H3N2+
55.0416	40	C3H5N+
56.0496	38	C3H6N+
65.0261	32	C4H3N+
66.0214	30	C3H2N2+
67.0292	25	C3H3N2+
68.0369	267	C3H4N2+
68.0495	56	C4H6N+
69.0447	39	C3H5N2+
70.9951	279	C3H3S+
71.9904	48	C2H2NS+
78.9406	21	CClS+
79.0291	33	C4H3N2+
80.0494	108	C5H6N+
81.0447	41	C4H5N2+
81.0573	18	C5H7N+
82.0526	23	C4H6N2+
82.9824	22	C3HNS+
82.9953	26	C4H3S+
83.0478	64	C3H5N3+
83.99	22	C3H2NS+
86.0058	26	C3H4NS+
87.9952	20	C3H3ClN+
92.037	27	C5H4N2+
93.0444	40	C5H5N2+
94.0403	46	C4H4N3+
95.0479	999	C4H5N3+
95.9906	22	C4H2NS+
96.0557	42	C4H6N3+
97.0399	31	C4H5N2O+
97.9935	21	C3H2N2S+
99.0014	58	C3H3N2S+
108.0558	40	C5H6N3+
110.0061	55	C5H4NS+
110.0713	70	C5H8N3+
111.0014	27	C4H3N2S+
120.0559	58	C6H6N3+
122.0713	406	C6H8N3+
123.0791	424	C6H9N3+
125.0046	29	C4H3N3S+
126.0118	48	C4H4N3S+
131.9673	151	C4H3ClNS+
154.0438	44	C6H8N3S+
