Mass spectrum: Clarithromycin N-Oxide; LC-ESI-QFT; MS2; CE: 120; R=35000; [M+H]+
Name: Clarithromycin N-Oxide
Name: (2S,3R,4S,6R)-2-[[(3R,4S,5S,6R,7R,9R,11R,12R,13S,14R)-14-ethyl-12,13-dihydroxy-4-[(2R,4R,5S,6S)-5-hydroxy-4-methoxy-4,6-dimethyloxan-2-yl]oxy-7-methoxy-3,5,7,9,11,13-hexamethyl-2,10-dioxo-oxacyclotetradec-6-yl]oxy]-3-hydroxy-N,N,6-trimethyloxan-4-amine oxide
Formula: C38H69NO14
Exact mass: 763.47181
SMILES: [O-][N+](C)(C)[C@H]3C[C@@H](C)O[C@@H](O[C@@H]2[C@@H](C)[C@H](O[C@H]1C[C@@](C)(OC)[C@@H](O)[C@H](C)O1)[C@@H](C)C(=O)O[C@H](CC)[C@@](C)(O)[C@H](O)[C@@H](C)C(=O)[C@H](C)C[C@@]2(C)OC)[C@@H]3O
InChI: InChI=1S/C38H69NO14/c1-15-26-38(10,45)31(42)21(4)28(40)19(2)17-37(9,48-14)33(53-35-29(41)25(39(11,12)46)16-20(3)49-35)22(5)30(23(6)34(44)51-26)52-27-18-36(8,47-13)32(43)24(7)50-27/h19-27,29-33,35,41-43,45H,15-18H2,1-14H3/t19-,20-,21+,22+,23-,24+,25+,26-,27+,29-,30+,31-,32+,33-,35+,36-,37-,38-/m1/s1
Instrument: Q Exactive Plus Orbitrap Thermo Scientific
Instrument type: LC-ESI-QFT
Ms type: MS2
Ion mode: POSITIVE
Ionization: ESI
Fragmentation mode: HCD
Collision energy: 120 (nominal)
Resolution: 35000
Column name: XBridge C18 3.5um, 2.1x50mm, Waters
Retention time: 9.7 min
Base peak: 764.4783
Precursor m/z: 764.4791
Precursor type: [M+H]+
m/z	relative intensity	assigned
53.9975	16	C2NO+
54.0339	2	C3H4N+
55.0179	75	C3H3O+
55.0543	999	C4H7+
56.0495	79	C3H6N+
57.0335	97	C3H5O+
57.0573	22	C3H7N+
57.0699	34	C4H9+
58.0651	123	C3H8N+
59.0491	44	C3H7O+
60.0444	14	C2H6NO+
62.0601	12	C2H8NO+
63.0229	6	C5H3+
65.0386	320	C5H5+
66.0464	20	C5H6+
67.0542	877	C5H7+
67.9894	6	C3O2+
68.0495	38	C4H6N+
69.0335	81	C4H5O+
69.0699	145	C5H9+
70.0651	90	C4H8N+
71.0128	2	C3H3O2+
71.0491	24	C4H7O+
71.073	44	C4H9N+
72.0444	39	C3H6NO+
72.0808	61	C4H10N+
73.0522	10	C3H7NO+
73.0648	11	C4H9O+
74.0362	2	C3H6O2+
74.0601	3	C3H8NO+
74.0964	1	C4H12N+
75.044	2	C3H7O2+
77.0385	55	C6H5+
78.0086	2	C3N3+
78.0463	13	C6H6+
79.0542	641	C6H7+
80.0621	32	C6H8+
81.0335	22	C5H5O+
81.0699	231	C6H9+
82.0413	3	C5H6O+
82.0652	19	C5H8N+
83.0127	54	C4H3O2+
83.0491	501	C5H7O+
84.0808	140	C5H10N+
85.0284	43	C4H5O2+
85.0648	15	C5H9O+
86.0601	13	C4H8NO+
87.0678	9	C4H9NO+
88.0756	7	C4H10NO+
90.0465	2	C7H6+
91.0543	640	C7H7+
92.062	11	C7H8+
93.0699	138	C7H9+
94.0413	9	C6H6O+
94.0652	3	C6H8N+
94.0778	7	C7H10+
95.0492	341	C6H7O+
95.0855	100	C7H11+
96.057	5	C6H8O+
96.0807	1	C6H10N+
97.0649	23	C6H9O+
98.0601	3	C5H8NO+
98.0965	41	C6H12N+
100.0757	2	C5H10NO+
100.1121	9	C6H14N+
102.0465	3	C8H6+
103.0542	157	C8H7+
104.0621	32	C8H8+
105.0448	168	C6H5N2+
105.0699	348	C8H9+
106.0777	15	C8H10+
107.0492	70	C7H7O+
107.0856	41	C8H11+
108.057	61	C7H8O+
109.0648	131	C7H9O+
109.1013	21	C8H13+
111.0804	7	C7H11O+
115.0543	73	C9H7+
116.0621	15	C9H8+
117.0699	80	C9H9+
118.0778	6	C9H10+
119.0604	13	C7H7N2+
119.0856	119	C9H11+
120.0934	2	C9H12+
121.0648	48	C8H9O+
121.1012	18	C9H13+
122.0726	41	C8H10O+
123.0805	288	C8H11O+
125.0597	6	C7H9O2+
125.0963	2	C8H13O+
128.0621	59	C10H8+
129.0699	73	C10H9+
130.0779	16	C10H10+
131.0498	1	C9H7O+
131.0856	13	C10H11+
132.0932	2	C10H12+
133.0648	6	C9H9O+
133.076	3	C8H9N2+
133.1011	10	C10H13+
135.0805	20	C9H11O+
136.0883	8	C9H12O+
137.0962	10	C9H13O+
138.0676	1	C8H10O2+
140.1066	2	C8H14NO+
141.0699	46	C11H9+
142.0778	40	C11H10+
143.0856	22	C11H11+
144.0934	6	C11H12+
145.0649	15	C10H9O+
145.1012	3	C11H13+
147.0804	7	C10H11O+
147.1168	2	C11H15+
149.0962	3	C10H13O+
152.0623	3	C12H8+
153.0698	8	C12H9+
154.0776	6	C12H10+
155.0604	9	C10H7N2+
155.0854	17	C12H11+
156.0933	6	C12H12+
157.0648	1	C11H9O+
157.1013	9	C12H13+
159.0803	15	C11H11O+
160.0885	2	C11H12O+
161.0964	2	C11H13O+
163.1116	9	C11H15O+
165.0702	12	C13H9+
166.0779	3	C13H10+
167.0856	3	C13H11+
171.0809	1	C12H11O+
175.112	1	C12H15O+
