Mass spectrum: Dimethenamid OXA; LC-ESI-ITFT; MS2; CE: 45%; R=7500; [M+H]+
Name: Dimethenamid OXA
Name: [(2,4-dimethylthiophen-3-yl)(1-methoxypropan-2-yl)amino](oxo)acetic acid
Formula: C12H17NO4S
Exact mass: 271.0878
SMILES: S(C=C1C)C(C)=C1N(C(=O)C(=O)O)C(COC)C
InChI: InChI=1S/C12H17NO4S/c1-7-6-18-9(3)10(7)13(8(2)5-17-4)11(14)12(15)16/h6,8H,5H2,1-4H3,(H,15,16)
Instrument: LTQ Orbitrap XL Thermo Scientific
Instrument type: LC-ESI-ITFT
Ms type: MS2
Ion mode: POSITIVE
Ionization: ESI
Fragmentation mode: HCD
Collision energy: 45 % (nominal)
Resolution: 7500
Column name: XBridge C18 3.5um, 2.1x50mm, Waters
Retention time: 7.5 min
Base peak: 272.0948
Precursor m/z: 272.0951
Precursor type: [M+H]+
m/z	relative intensity	assigned
73.0648	59	C4H9O+
79.0542	4	C6H7+
93.07	2	C7H9+
94.0652	3	C6H8N+
95.073	3	C6H9N+
99.0267	1	C5H7S+
101.0422	1	C5H9S+
104.0493	5	C7H6N+
105.0574	5	C7H7N+
108.081	3	C7H10N+
111.0263	126	C6H7S+
112.0341	7	C6H8S+
113.0291	5	C5H7NS+
113.042	29	C6H9S+
114.0372	4	C5H8NS+
117.0703	2	C9H9+
120.0443	2	C7H6NO+
120.0806	4	C8H10N+
125.0421	13	C7H9S+
126.0372	136	C6H8NS+
127.0213	7	C6H7OS+
127.0453	7	C6H9NS+
127.0575	4	C7H11S+
128.0529	19	C6H10NS+
129.0368	14	C6H9OS+
132.0808	8	C9H10N+
133.0885	9	C9H11N+
134.096	4	C9H12N+
135.1044	28	C9H13N+
138.0372	143	C7H8NS+
139.0213	5	C7H7OS+
139.058	1	C8H11S+
140.0526	6	C7H10NS+
142.0325	2	C6H8NOS+
149.0419	3	C9H9S+
151.0449	2	C8H9NS+
151.0575	16	C9H11S+
152.0162	6	C7H6NOS+
152.0527	25	C8H10NS+
153.0241	5	C7H7NOS+
153.0604	10	C8H11NS+
154.0321	156	C7H8NOS+
155.0404	5	C7H9NOS+
156.0478	7	C7H10NOS+
161.084	2	C10H11NO+
166.0685	87	C9H12NS+
167.0763	21	C9H13NS+
168.0841	237	C9H14NS+
178.0683	6	C10H12NS+
179.0408	1	C9H9NOS+
194.0634	27	C10H12NOS+
196.079	80	C10H14NOS+
198.0948	9	C10H16NOS+
200.1106	5	C10H18NOS+
212.074	21	C10H14NO2S+
240.0688	999	C11H14NO3S+
