Mass spectrum: Haloxyfop; LC-ESI-QFT; MS2; CE: 90; R=35000; [M+H]+
Name: Haloxyfop
Name: 2-[4-[3-chloro-5-(trifluoromethyl)pyridin-2-yl]oxyphenoxy]propanoic acid
Formula: C15H11ClF3NO4
Exact mass: 361.03287
SMILES: CC(C(=O)O)OC1=CC=C(C=C1)OC2=C(C=C(C=N2)C(F)(F)F)Cl
InChI: InChI=1S/C15H11ClF3NO4/c1-8(14(21)22)23-10-2-4-11(5-3-10)24-13-12(16)6-9(7-20-13)15(17,18)19/h2-8H,1H3,(H,21,22)
Instrument: Q Exactive Plus Orbitrap Thermo Scientific
Instrument type: LC-ESI-QFT
Ms type: MS2
Ion mode: POSITIVE
Ionization: ESI
Fragmentation mode: HCD
Collision energy: 90 (nominal)
Resolution: 35000
Column name: XBridge C18 3.5um, 2.1x50mm, Waters
Retention time: 13.6 min
Base peak: 391.2839
Precursor m/z: 362.0401
Precursor type: [M+H]+
m/z	relative intensity	assigned
50.0152	6	C4H2+
51.023	7	C4H3+
53.0022	12	C3HO+
53.0386	25	C4H5+
53.9974	1	C2NO+
54.0465	15	C4H6+
55.0179	32	C3H3O+
55.0543	10	C4H7+
57.0136	1	C3H2F+
61.0073	1	C5H+
62.0152	10	C5H2+
63.023	197	C5H3+
64.0308	51	C5H4+
65.0387	999	C5H5+
66.0465	12	C5H6+
66.9746	7	CHClF+
67.0543	7	C5H7+
68.9947	2	CF3+
68.9972	3	C3HO2+
69.0337	1	C4H5O+
72.984	24	C3H2Cl+
73.0285	5	C3H5O2+
74.0151	36	C6H2+
75.023	203	C6H3+
76.0308	1	C6H4+
77.0386	11	C6H5+
79.0179	7	C5H3O+
79.0543	13	C6H7+
81.0336	107	C5H5O+
83.0493	2	C5H7O+
84.9652	8	CClF2+
89.0386	6	C7H5+
90.034	17	C6H4N+
91.0543	911	C7H7+
92.0258	135	C6H4O+
92.037	12	C5H4N2+
92.0622	9	C7H8+
93.0337	2	C6H5O+
93.0699	15	C7H9+
94.0415	61	C6H6O+
95.0493	40	C6H7O+
98.9842	13	CH4ClO3+
102.0465	8	C8H6+
103.0544	8	C8H7+
105.0338	5	C4H8ClN+
105.0448	23	C6H5N2+
107.0105	7	C4H2F3+
107.0493	3	C7H7O+
108.021	1	C3H7ClNO+
108.0444	5	C6H6NO+
108.9654	8	C3ClF2+
109.0285	78	C6H5O2+
109.9792	2	C5HClN+
111.0441	15	C6H7O2+
111.9949	1	C5H3ClN+
113.9912	1	C5F2O+
114.0153	1	C5H2F2N+
114.9993	1	C2H4ClF2N+
115.0419	1	C8H5N+
119.0107	4	C5H2F3+
119.0366	14	C7H5NO+
119.0494	11	C8H7O+
120.0445	25	C7H6NO+
120.0571	2	C8H8O+
121.0286	31	C7H5O2+
121.0398	18	C6H5N2O+
126.0152	2	C6H2F2N+
128.0496	9	C9H6N+
129.0577	5	C9H7N+
130.0403	9	C7H4N3+
132.0258	7	C5H4F2NO+
133.0451	1	C9H6F+
137.9746	9	C6HClNO+
139.042	1	C10H5N+
139.0545	2	C11H7+
140.0496	62	C10H6N+
140.9717	5	C4HClF3+
141.0575	3	C10H7N+
141.9794	12	C4H2ClF3+
142.0101	5	C6H2F2NO+
144.0447	2	C9H6NO+
145.0133	1	C6H2F3N+
146.0215	9	C2H9ClNO4+
146.0604	1	C9H8NO+
147.9963	5	C5H4ClFNO+
148.0181	1	C11H2N+
148.0559	2	C9H7FN+
149.0086	1	C5H2F3NO+
149.0151	1	C9H6Cl+
149.0401	2	C6H9ClFN+
149.992	8	C5HF3O2+
150.0163	3	C5H3F3NO+
151.0356	48	C9H5F2+
152.9717	2	C5HClF3+
154.0654	7	C11H8N+
155.0735	1	C11H9N+
156.0183	1	C4H9ClO4+
156.0445	27	C10H6NO+
157.0459	2	C8H7F2O+
157.0524	38	C10H7NO+
157.9806	23	C6H2ClFNO+
158.0403	50	C10H5FN+
158.0604	6	C10H8NO+
159.0482	26	C10H6FN+
159.9761	16	C6HClF2N+
161.0199	2	C10H3F2+
162.0167	1	C6H3F3NO+
162.0277	9	C10H4F2+
163.0242	2	C6H4F3NO+
164.0259	2	C12H4O+
164.032	8	C6H5F3NO+
164.0434	1	C10H6F2+
165.0104	10	C9H6ClO+
166.0652	9	C12H8N+
167.0064	2	C9H5ClF+
167.0369	5	C11H5NO+
168.0446	61	C11H6NO+
168.9901	3	C5H3ClF3N+
169.026	1	C9H4F3+
169.0325	6	C11H4FN+
174.0107	5	C10H5ClN+
175.0186	59	C10H6ClN+
176.0315	2	C10H4F2N+
176.051	3	C10H7FNO+
177.0387	5	C10H5F2N+
177.9868	9	C6H3ClF2NO+
178.0466	49	C10H6F2N+
179.0308	9	C7H8ClF2N+
179.9824	58	C6H2ClF3N+
180.9904	6	C6H3ClF3N+
181.0256	2	C10H4F3+
181.9983	6	C6H4ClF3N+
182.034	33	C6H11ClO4+
182.0413	3	C9H6F2NO+
183.0295	7	C5H10ClNO4+
183.0685	2	C12H9NO+
184.0561	3	C12H7FN+
184.0758	1	C12H10NO+
185.0456	17	C5H12ClNO4+
186.0354	13	C11H5FNO+
187.0431	17	C11H6FNO+
188.0309	40	C8H5F3NO+
189.0387	77	C11H5F2N+
190.0466	60	C11H6F2N+
191.0421	2	C10H5F2N2+
192.0213	28	C10H7ClNO+
195.0063	2	C7H5ClF3N+
196.0373	5	C6H11ClNO4+
197.0447	2	C10H6F3N+
197.9931	208	C6H4ClF3NO+
198.0527	36	C10H7F3N+
199.0367	83	C10H6F3O+
201.0405	2	C9H6F3NO+
202.0058	5	C11H3FO3+
203.0135	18	C11H6ClNO+
204.046	3	C11H7FNO2+
204.0627	1	C9H9F3NO+
205.9984	8	C8H4ClF3N+
206.0416	104	C11H6F2NO+
208.0372	63	C7H11ClNO4+
209.045	242	C7H12ClNO4+
210.0527	5	C11H7F3N+
212.0083	13	C7H6ClF3NO+
213.9995	6	C10H5ClF2O+
214.0467	2	C13H6F2N+
215.0544	3	C13H7F2N+
216.0259	159	C12H4F2NO+
217.0338	18	C12H5F2NO+
218.0416	36	C12H6F2NO+
219.0063	21	C9H5ClF3N+
220.0152	2	C14H4O3+
222.0119	17	C11H6ClFNO+
224.0686	5	C12H9F3N+
225.0402	5	C11H6F3NO+
226.0477	51	C11H7F3NO+
232.0144	30	C10H6ClF3N+
234.0366	5	C12H6F2NO2+
234.0533	2	C13H7F3N+
235.003	11	C11H6ClNO3+
235.0607	10	C13H8F3N+
236.032	10	C12H5F3NO+
237.0398	42	C12H6F3NO+
238.0479	2	C12H7F3NO+
243.0062	17	C11H5ClF3N+
244.0139	14	C11H6ClF3N+
245.0222	6	C11H7ClF3N+
246.0324	7	C13H9ClNO2+
252.0026	24	C12H3F3O3+
252.0631	2	C13H9F3NO+
253.0346	15	C12H6F3NO2+
254.0427	10	C12H7F3NO2+
256.0143	1	C12H6ClF3N+
259.0009	2	C11H5ClF3NO+
260.0089	61	C11H6ClF3NO+
261.0168	5	C11H7ClF3NO+
269.993	30	C12H4ClF3NO+
272.0088	130	C15H3F3O2+
288.0037	437	C12H6ClF3NO2+
302.0202	1	C13H8ClF3NO2+
