Mass spectrum: Flubendazole; LC-ESI-QFT; MS2; CE: 30; R=35000; [M-H]-
Name: Flubendazole
Name: Methyl N-[6-(4-fluorobenzoyl)-1H-benzimidazol-2-yl]carbamate
Formula: C16H12FN3O3
Exact mass: 313.08627
SMILES: COC(=O)NC1=NC2=C(N1)C=C(C=C2)C(=O)C3=CC=C(C=C3)F
InChI: InChI=1S/C16H12FN3O3/c1-23-16(22)20-15-18-12-7-4-10(8-13(12)19-15)14(21)9-2-5-11(17)6-3-9/h2-8H,1H3,(H2,18,19,20,22)
Instrument: Q Exactive Plus Orbitrap Thermo Scientific
Instrument type: LC-ESI-QFT
Ms type: MS2
Ion mode: NEGATIVE
Ionization: ESI
Fragmentation mode: HCD
Collision energy: 30 (nominal)
Resolution: 35000
Column name: XBridge C18 3.5um, 2.1x50mm, Waters
Retention time: 8.1 min
Base peak: 280.0527
Precursor m/z: 312.079
Precursor type: [M-H]-
m/z	relative intensity	assigned
280.0531	999	C15H7FN3O2-
312.0795	83	C16H11FN3O3-
