Mass spectrum: MCLA; LC-ESI-QFT; MS2; CE: 30%; R=17500; [M+H]+
Name: MCLA
Name: Microcystin LA
Name: (5R,8S,11R,12S,15S,18S,19S,22R)-18-[(1E,3E,5S,6S)-6-methoxy-3,5-dimethyl-7-phenylhepta-1,3-dienyl]-1,5,12,15,19-pentamethyl-2-methylidene-8-(2-methylpropyl)-3,6,9,13,16,20,25-heptaoxo-1,4,7,10,14,17,21-heptazacyclopentacosane-11,22-dicarboxylic acid
Class: NA
Formula: C46H67N7O12
Exact mass: 909.4848
SMILES: CO[C@@H](Cc1ccccc1)[C@@H](C)\C=C(C)\C=C\[C@@H]2NC(=O)[C@H](C)NC(=O)[C@@H](C)[C@@H](NC(=O)[C@H](CC(C)C)NC(=O)[C@@H](C)NC(=O)C(=C)N(C)C(=O)CC[C@@H](NC(=O)[C@H]2C)C(O)=O)C(O)=O
InChI: InChI=1S/C46H67N7O12/c1-24(2)21-35-44(60)52-38(46(63)64)28(6)40(56)47-29(7)41(57)49-33(18-17-25(3)22-26(4)36(65-11)23-32-15-13-12-14-16-32)27(5)39(55)50-34(45(61)62)19-20-37(54)53(10)31(9)43(59)48-30(8)42(58)51-35/h12-18,22,24,26-30,33-36,38H,9,19-21,23H2,1-8,10-11H3,(H,47,56)(H,48,59)(H,49,57)(H,50,55)(H,51,58)(H,52,60)(H,61,62)(H,63,64)/b18-17+,25-22+/t26-,27-,28-,29-,30+,33-,34+,35-,36-,38+/m0/s1
Instrument: Q Exactive Plus Orbitrap Thermo Scientific
Instrument type: LC-ESI-QFT
Ms type: MS2
Ion mode: POSITIVE
Ionization: ESI
Fragmentation mode: HCD
Collision energy: 30 % (nominal)
Resolution: 17500
Column name: XBridge C18 3.5um, 2.1x50mm, Waters
Retention time: 10.516 min
Base peak: 164.9846
Precursor m/z: 910.492
Precursor type: [M+H]+
m/z	relative intensity	assigned
79.0542	10	C6H7+
84.0444	45	C4H6NO+
86.0964	689	C5H12N+
89.0708	26	C3H9N2O+
91.0541	94	C7H7+
93.0701	18	C7H9+
95.0854	30	C7H11+
102.0549	26	C4H8NO2+
103.054	38	C8H7+
105.0698	73	C8H9+
107.0855	446	C8H11+
110.0596	5	C6H8NO+
117.0698	23	C9H9+
119.0854	20	C9H11+
121.1014	8	C9H13+
124.0758	20	C7H10NO+
124.1121	131	C8H14N+
127.0865	267	C6H11N2O+
128.0705	10	C6H10NO2+
129.0696	6	C10H9+
130.0497	32	C5H8NO3+
131.0856	46	C10H11+
131.1181	9	C6H15N2O+
133.1009	20	C10H13+
135.0803	999	C9H11O+
135.1167	392	C10H15+
138.0549	122	C7H8NO2+
140.0704	10	C7H10NO2+
143.0856	65	C11H11+
145.1008	29	C11H13+
149.0706	6	C8H9N2O+
150.128	8	C10H16N+
152.0705	9	C8H10NO2+
155.0814	569	C7H11N2O2+
156.0655	6	C7H10NO3+
157.1013	11	C12H13+
157.1336	91	C8H17N2O+
159.1167	17	C12H15+
161.0961	72	C11H13O+
162.1277	24	C11H16N+
163.1117	902	C11H15O+
165.0907	7	C10H13O2+
167.0816	64	C8H11N2O2+
168.0655	14	C8H10NO3+
171.0804	19	C12H11O+
171.1167	20	C13H15+
172.1081	31	C7H14N3O2+
173.0922	394	C7H13N2O3+
175.1117	11	C12H15O+
178.1222	11	C11H16NO+
180.1381	19	C11H18NO+
181.1	19	C14H13+
183.0765	7	C8H11N2O3+
185.0923	17	C8H13N2O3+
185.1287	108	C9H17N2O2+
187.1111	24	C13H15O+
190.1232	23	C12H16NO+
195.0767	169	C9H11N2O3+
195.1161	23	H21NO10+
196.0606	18	C9H10NO4+
197.1287	17	C10H17N2O2+
198.0764	13	C9H12NO4+
200.1031	37	C8H14N3O3+
201.0872	371	C8H13N2O4+
204.1384	10	C13H18NO+
209.1308	71	CH23NO10+
211.1448	14	C11H19N2O2+
213.0872	983	C9H13N2O4+
214.0716	15	C9H12NO5+
218.1139	371	C8H16N3O4+
218.154	130	C14H20NO+
221.092	7	C11H13N2O3+
222.1608	11	C14H22O2+
223.1086	36	C11H15N2O3+
225.126	18	C14H15N3+
226.1593	96	C2H22N6O6+
228.1387	14	CH20N6O7+
237.1253	83	H21N4O10+
237.164	224	C18H21+
239.0664	76	C10H11N2O5+
239.1037	10	C12H11N6+
243.1343	86	C11H19N2O4+
246.1492	244	CH22N6O8+
247.1482	24	C19H19+
250.1559	34	C15H22O3+
251.1026	21	C12H15N2O4+
251.1756	16	C14H23N2O2+
258.1854	202	C17H24NO+
259.181	22	C3H31O12+
265.1589	162	C19H21O+
266.113	26	C12H16N3O4+
268.1658	293	C13H22N3O3+
269.1135	39	C12H17N2O5+
269.1899	16	C19H25O+
272.1242	22	C11H18N3O5+
274.1446	35	C2H22N6O9+
282.1854	91	C19H24NO+
284.1242	36	C12H18N3O5+
286.176	45	C13H24N3O4+
287.1757	9	C3H25N7O8+
290.14	8	C17H16N5+
292.1537	84	C16H22NO4+
293.1137	49	H19N7O11+
294.1801	7	C13H22N6O2+
297.1452	22	H23N7O11+
297.1852	37	C6H27N5O8+
306.1823	10	C18H26O4+
309.1814	12	C2H27N7O10+
310.104	23	C13H16N3O6+
313.1878	47	C16H27NO5+
314.172	120	C15H20N7O+
314.2104	22	C5H34N2O12+
320.1602	24	C16H22N3O4+
320.2009	28	C22H26NO+
322.1394	11	C15H20N3O5+
324.1935	10	C4H30N5O11+
329.1858	85	C19H25N2O3+
331.198	109	C14H27N4O5+
347.1966	200	C19H27N2O4+
348.1954	17	C8H32N2O12+
351.2014	41	C16H31O8+
357.2138	19	C16H29N4O5+
375.1914	688	C20H27N2O5+
379.198	16	C18H27N4O5+
380.2206	47	C22H28N4O2+
385.2085	27	C17H29N4O6+
397.2084	221	C18H29N4O6+
402.2346	22	C17H32N5O6+
422.2415	6	C8H36N7O12+
431.2327	18	C27H31N2O3+
446.2292	132	C23H32N3O6+
449.2425	8	C25H31N5O3+
463.2558	18	C25H37NO7+
467.261	13	C21H35N6O6+
468.2448	64	C35H32O+
477.2396	46	C29H29N6O+
508.2386	10	C35H30N3O+
509.2638	35	C27H35N5O5+
518.3013	21	C31H40N3O4+
670.3445	27	C34H48N5O9+
758.4047	15	C46H54N4O6+
