Mass spectrum: MCLR; LC-ESI-QFT; MS2; CE: 60%; R=17500; [M+H]+
Name: MCLR
Name: Microcystin LR
Name: (5R,8S,11R,12S,15S,18S,19S,22R)-15-[3-(diaminomethylideneamino)propyl]-18-[(1E,3E,5S,6S)-6-methoxy-3,5-dimethyl-7-phenylhepta-1,3-dienyl]-1,5,12,19-tetramethyl-2-methylidene-8-(2-methylpropyl)-3,6,9,13,16,20,25-heptaoxo-1,4,7,10,14,17,21-heptazacyclopentacosane-11,22-dicarboxylic acid
Class: NA
Formula: C49H74N10O12
Exact mass: 994.5488
SMILES: CO[C@@H](Cc1ccccc1)[C@@H](C)/C=C(C)/C=C/[C@@H]2NC(=O)[C@H](CCCNC(N)=N)NC(=O)[C@@H](C)[C@@H](NC(=O)[C@H](CC(C)C)NC(=O)[C@@H](C)NC(=O)C(=C)N(C)C(=O)CC[C@@H](NC(=O)[C@H]2C)C(O)=O)C(O)=O
InChI: InChI=1S/C49H74N10O12/c1-26(2)23-37-46(66)58-40(48(69)70)30(6)42(62)55-35(17-14-22-52-49(50)51)45(65)54-34(19-18-27(3)24-28(4)38(71-10)25-33-15-12-11-13-16-33)29(5)41(61)56-36(47(67)68)20-21-39(60)59(9)32(8)44(64)53-31(7)43(63)57-37/h11-13,15-16,18-19,24,26,28-31,34-38,40H,8,14,17,20-23,25H2,1-7,9-10H3,(H,53,64)(H,54,65)(H,55,62)(H,56,61)(H,57,63)(H,58,66)(H,67,68)(H,69,70)(H4,50,51,52)/b19-18+,27-24+/t28-,29-,30-,31+,34-,35-,36+,37-,38-,40+/m0/s1
Instrument: Q Exactive Plus Orbitrap Thermo Scientific
Instrument type: LC-ESI-QFT
Ms type: MS2
Ion mode: POSITIVE
Ionization: ESI
Fragmentation mode: HCD
Collision energy: 60 % (nominal)
Resolution: 17500
Column name: XBridge C18 3.5um, 2.1x50mm, Waters
Retention time: 8.590 min
Base peak: 498.282
Precursor m/z: 995.556
Precursor type: [M+H]+
m/z	relative intensity	assigned
69.0333	27	C4H5O+
70.0651	999	C4H8N+
71.0491	15	C4H7O+
72.0808	23	C4H10N+
74.0601	7	C3H8NO+
77.0386	20	C6H5+
79.0542	153	C6H7+
82.0288	27	C4H4NO+
82.0651	73	C5H8N+
84.0444	294	C4H6NO+
84.0807	6	
85.0285	6	C4H5O2+
85.076	16	C4H9N2+
86.06	9	
86.0964	297	C5H12N+
87.079	15	C3H9N3+
91.0542	331	C7H7+
93.0699	203	C7H9+
94.0651	19	C6H8N+
95.0491	197	C6H7O+
95.06	41	C5H7N2+
95.0857	13	C7H11+
96.0442	9	C5H6NO+
96.0809	14	C6H10N+
97.0761	104	C5H9N2+
98.06	110	C5H8NO+
99.019	25	C3H3N2O2+
99.0918	80	C5H11N2+
102.0462	19	C8H6+
102.0548	19	C4H8NO2+
103.0542	980	C8H7+
105.0447	70	C6H5N2+
105.0699	653	C8H9+
107.0855	698	C8H11+
109.0647	43	C7H9O+
110.0601	36	C6H8NO+
112.0392	19	C5H6NO2+
112.0869	306	C5H10N3+
113.0232	22	C5H5O3+
113.071	55	C5H9N2O+
114.0548	17	C5H8NO2+
114.1027	48	C5H12N3+
115.0544	136	C9H7+
115.0866	171	C5H11N2O+
117.0698	241	C9H9+
119.0604	21	C7H7N2+
119.0855	30	C9H11+
120.0569	22	C8H8O+
120.0808	44	C8H10N+
121.0761	19	C7H9N2+
121.101	11	C9H13+
122.06	12	C7H8NO+
123.0915	17	C7H11N2+
124.0757	25	C7H10NO+
124.1121	22	C8H14N+
125.0708	8	C6H9N2O+
127.0866	801	C6H11N2O+
128.0619	12	C10H8+
128.0702	12	C6H10NO2+
129.0696	13	C10H9+
130.0498	27	C5H8NO3+
130.0975	30	C5H12N3O+
131.0856	43	C10H11+
133.101	24	C10H13+
135.0804	713	C9H11O+
135.1167	237	C10H15+
138.055	67	C7H8NO2+
138.0656	9	C6H8N3O+
139.0977	26	C6H11N4+
140.0715	11	C7H10NO2+
140.0817	77	C6H10N3O+
141.0657	163	C6H9N2O2+
143.0856	18	C11H11+
146.0968	10	C10H12N+
149.0709	59	C8H9N2O+
151.0862	11	C8H11N2O+
153.102	28	C8H13N2O+
155.0815	137	C7H11N2O2+
157.1085	69	C6H13N4O+
158.0923	37	C6H12N3O2+
162.1024	5	C9H12N3+
163.1116	63	C11H15O+
167.0815	185	C8H11N2O2+
168.066	19	C8H10NO3+
169.0985	8	C8H13N2O2+
172.1119	26	C12H14N+
175.1193	13	C6H15N4O2+
178.0977	15	C9H12N3O+
181.1336	12	C10H17N2O+
182.104	35	C7H12N5O+
183.0878	34	C7H11N4O2+
183.1139	13	C9H15N2O2+
195.0766	84	C9H11N2O3+
196.0606	18	C9H10NO4+
200.1146	62	C7H14N5O2+
201.0986	42	C7H13N4O3+
211.0715	12	C9H11N2O4+
213.0871	151	C9H13N2O4+
223.1189	9	C10H15N4O2+
226.1192	22	C10H16N3O3+
226.1587	11	C16H20N+
239.0664	30	C10H11N2O5+
