Mass spectrum: Chloramphenicol; LC-ESI-QFT; MS2; CE: 30; R=35000; [M+H]+
Name: Chloramphenicol
Name: CLM
Name: 2,2-bis(chloranyl)-N-[(1R,2R)-1-(4-nitrophenyl)-1,3-bis(oxidanyl)propan-2-yl]ethanamide
Formula: C11H12Cl2N2O5
Exact mass: 322.01233
SMILES: c1cc(ccc1[C@H]([C@@H](CO)NC(=O)C(Cl)Cl)O)[N+](=O)[O-]
InChI: InChI=1S/C11H12Cl2N2O5/c12-10(13)11(18)14-8(5-16)9(17)6-1-3-7(4-2-6)15(19)20/h1-4,8-10,16-17H,5H2,(H,14,18)/t8-,9-/m1/s1
Instrument: Q Exactive Orbitrap Thermo Scientific
Instrument type: LC-ESI-QFT
Ms type: MS2
Ion mode: POSITIVE
Ionization: ESI
Fragmentation mode: HCD
Collision energy: 30 (nominal)
Resolution: 35000
Column name: XBridge C18 3.5um, 2.1x50mm, Waters
Retention time: 5.8 min
Base peak: 305.0091
Precursor m/z: 323.0196
Precursor type: [M+H]+
m/z	relative intensity	assigned
82.9448	19	CHCl2+
91.0542	1	C7H7+
117.0571	2	C8H7N+
118.0651	2	C8H8N+
119.0729	4	C8H9N+
120.0569	1	C8H8O+
127.9664	15	C2H4Cl2NO+
131.0729	1	C9H9N+
132.0569	19	C9H8O+
136.0393	8	C7H6NO2+
139.9665	4	C3H4Cl2NO+
146.06	6	C9H8NO+
148.0391	1	C8H6NO2+
148.0631	10	C8H8N2O+
150.0231	5	C9H7Cl+
161.0471	1	C9H7NO2+
162.0549	1	C9H8NO2+
164.058	8	C8H8N2O2+
165.0659	349	C8H9N2O2+
166.0499	6	C8H8NO3+
170.06	7	C11H8NO+
175.05	2	C9H7N2O2+
177.0658	7	C9H9N2O2+
178.0498	6	C9H8NO3+
184.0163	3	C5H10Cl2N2O+
196.0159	3	C9H7ClNO2+
206.0367	28	C11H9ClNO+
211.0272	2	C9H8ClN2O2+
229.0055	54	C10H9Cl2NO+
241.0055	107	C11H9Cl2NO+
256.9874	1	C10H7Cl2N2O2+
257.9957	105	C10H8Cl2N2O2+
269.9959	22	C11H8Cl2N2O2+
274.9983	999	C10H9Cl2N2O3+
286.9985	9	C11H9Cl2N2O3+
305.0091	8	C11H11Cl2N2O4+
