Mass spectrum: Dimethyl-phthalate; LC-ESI-QFT; MS2; CE: 180; R=35000; [M+H]+
Name: Dimethyl-phthalate
Name: Dimethyl phthalate
Name: Dimethyl benzene-1,2-dicarboxylate
Formula: C10H10O4
Exact mass: 194.05791
SMILES: COC(=O)C1=CC=CC=C1C(=O)OC
InChI: InChI=1S/C10H10O4/c1-13-9(11)7-5-3-4-6-8(7)10(12)14-2/h3-6H,1-2H3
Instrument: Q Exactive Plus Orbitrap Thermo Scientific
Instrument type: LC-ESI-QFT
Ms type: MS2
Ion mode: POSITIVE
Ionization: ESI
Fragmentation mode: HCD
Collision energy: 180 (nominal)
Resolution: 35000
Column name: XBridge C18 3.5um, 2.1x50mm, Waters
Retention time: 6.5 min
Base peak: 163.0386
Precursor m/z: 195.0652
Precursor type: [M+H]+
m/z	relative intensity	assigned
50.0152	275	C4H2+
51.023	514	C4H3+
52.0308	1	C4H4+
53.0022	12	C3HO+
53.0386	38	C4H5+
54.0464	38	C4H6+
55.0179	1	C3H3O+
61.0073	10	C5H+
62.0151	57	C5H2+
63.0229	999	C5H3+
64.0308	385	C5H4+
65.0022	18	C4HO+
65.0386	8	C5H5+
66.01	6	C4H2O+
66.0464	1	C5H6+
74.0151	3	C6H2+
75.0229	8	C6H3+
76.0308	3	C6H4+
77.0386	170	C6H5+
80.0257	3	C5H4O+
81.0335	14	C5H5O+
91.0543	1	C7H7+
92.0257	309	C6H4O+
92.0369	36	C5H4N2+
95.0492	107	C6H7O+
98.0365	1	C5H6O2+
105.0448	68	C6H5N2+
119.0129	1	C7H3O2+
