Mass spectrum: Flurtamone; LC-ESI-QFT; MS2; CE: 90; R=35000; [M-H]-
Name: Flurtamone
Name: 5-(methylamino)-2-phenyl-4-[3-(trifluoromethyl)phenyl]furan-3-one
Formula: C18H14F3NO2
Exact mass: 333.09766
SMILES: CNC1=C(C(=O)C(O1)C2=CC=CC=C2)C3=CC(=CC=C3)C(F)(F)F
InChI: InChI=1S/C18H14F3NO2/c1-22-17-14(12-8-5-9-13(10-12)18(19,20)21)15(23)16(24-17)11-6-3-2-4-7-11/h2-10,16,22H,1H3
Instrument: Q Exactive Plus Orbitrap Thermo Scientific
Instrument type: LC-ESI-QFT
Ms type: MS2
Ion mode: NEGATIVE
Ionization: ESI
Fragmentation mode: HCD
Collision energy: 90 (nominal)
Resolution: 35000
Column name: XBridge C18 3.5um, 2.1x50mm, Waters
Retention time: 10.1 min
Base peak: 332.0898
Precursor m/z: 332.0904
Precursor type: [M-H]-
m/z	relative intensity	assigned
50.0035	16	C3N-
65.9985	1	C3NO-
68.9958	11	CF3-
97.0083	58	C8H-
99.0113	1	C7HN-
99.0239	3	C8H3-
101.0396	125	C8H5-
102.0349	2	C7H4N-
105.0144	2	C7H2F-
111.0114	1	C8HN-
116.0506	3	C8H6N-
117.0146	29	C8H2F-
117.0346	1	C8H5O-
119.0176	1	C7H2FN-
126.035	2	C9H4N-
129.0146	14	C9H2F-
131.0376	3	C8H5NO-
134.0611	3	C8H8NO-
136.0129	7	C8H2F2-
137.0207	18	C8H3F2-
138.0349	3	C10H4N-
142.0097	2	C9HFN-
143.0176	18	C9H2FN-
145.0095	144	C9H2FO-
145.027	157	C7H4F3-
146.0251	1	C8H4NO2-
149.0207	32	C9H3F2-
151.024	2	C8H3F2N-
156.0193	250	C8H3F3-
158.0412	6	C10H5FN-
159.0422	1	C8H6F3-
160.014	6	C7H3F3O-
161.022	46	C7H4F3O-
162.0159	10	C9H2F2N-
163.0242	36	C9H3F2N-
165.0157	243	C9H3F2O-
169.027	239	C9H4F3-
170.0226	2	C8H3F3N-
171.0429	2	C9H6F3-
182.0222	235	C9H3F3N-
183.0301	384	C9H4F3N-
184.0379	15	C9H5F3N-
185.0219	999	C9H4F3O-
187.0553	7	C15H7-
189.0164	14	C8H4F3O2-
207.0618	7	C15H8F-
208.0384	7	C11H5F3N-
210.0537	2	C11H7F3N-
212.0329	6	C10H5F3NO-
214.0123	8	C9H3F3NO2-
226.0678	1	C14H9FNO-
227.0208	5	C10H4F3NO2-
228.0822	1	C17H10N-
240.0277	73	C11H5F3NO2-
286.0861	2	C17H11F3N-
288.0643	32	C16H9F3NO-
316.0588	16	C17H9F3NO2-
