Mass spectrum: N4-Acetylsulfadiazine; LC-ESI-ITFT; MS2; CE: 35%; R=7500; [M+H]+
Name: N4-Acetylsulfadiazine
Name: N-[4-(2-pyrimidinylsulfamoyl)phenyl]acetamide
Formula: C12H12N4O3S
Exact mass: 292.0630
SMILES: c1nc(NS(c2ccc(cc2)NC(C)=O)(=O)=O)ncc1
InChI: InChI=1S/C12H12N4O3S/c1-9(17)15-10-3-5-11(6-4-10)20(18,19)16-12-13-7-2-8-14-12/h2-8H,1H3,(H,15,17)(H,13,14,16)
Instrument: LTQ Orbitrap XL Thermo Scientific
Instrument type: LC-ESI-ITFT
Ms type: MS2
Ion mode: POSITIVE
Ionization: ESI
Fragmentation mode: CID
Collision energy: 35 % (nominal)
Resolution: 7500
Column name: XBridge C18 3.5um, 2.1x50mm, Waters
Retention time: 3.6 min
Base peak: 293.0713
Precursor m/z: 293.0703
Precursor type: [M+H]+
m/z	relative intensity	assigned
93.0336	11	C6H5O+
94.0652	56	C6H8N+
96.0559	17	C4H6N3+
108.0444	75	C6H6NO+
118.0653	77	C8H8N+
134.0601	109	C8H8NO+
136.0758	999	C8H10NO+
150.0547	24	C8H8NO2+
156.0115	29	C6H6NO2S+
158.0019	148	C4H4N3O2S+
162.0663	23	C8H8N3O+
198.022	882	C8H8NO3S+
227.0929	217	C12H11N4O+
251.0598	36	C10H11N4O2S+
275.0598	199	C12H11N4O2S+
293.0709	64	C12H13N4O3S+
