Mass spectrum: 10phiC10SPC; LC-ESI-QFT; MS2; CE: 45; R=35000; [M+H]+
Name: 10phiC10SPC
Name: Decacarboxy sulfophenyl carboxylic acid
Name: 10-(4-sulfophenyl)octanoic acid
Formula: C16H24O5S
Exact mass: 328.13444
SMILES: OS(=O)(=O)c1ccc(CCCCCCCCCC(=O)O)cc1
InChI: InChI=1S/C16H24O5S/c17-16(18)9-7-5-3-1-2-4-6-8-14-10-12-15(13-11-14)22(19,20)21/h10-13H,1-9H2,(H,17,18)(H,19,20,21)
Instrument: Q Exactive Plus Orbitrap Thermo Scientific
Instrument type: LC-ESI-QFT
Ms type: MS2
Ion mode: POSITIVE
Ionization: ESI
Fragmentation mode: HCD
Collision energy: 45 (nominal)
Resolution: 35000
Column name: XBridge C18 3.5um, 2.1x50mm, Waters
Retention time: 10.8 min
Base peak: 343.1573
Precursor m/z: 329.1417
Precursor type: [M+H]+
m/z	relative intensity	assigned
53.0022	5	C3HO+
55.0178	1	C3H3O+
55.0542	22	C4H7+
57.0699	387	C4H9+
58.995	2	C2H3S+
67.0542	25	C5H7+
69.0335	2	C4H5O+
69.0699	22	C5H9+
71.0855	92	C5H11+
77.0386	6	C6H5+
78.0464	1	C6H6+
79.0542	14	C6H7+
81.0699	21	C6H9+
83.0492	2	C5H7O+
83.0855	7	C6H11+
85.1012	35	C6H13+
89.0384	1	C7H5+
90.0464	2	C7H6+
91.0542	52	C7H7+
93.0699	9	C7H9+
95.0494	1	C6H7O+
95.0856	28	C7H11+
97.1015	5	C7H13+
103.0542	41	C8H7+
104.062	117	C8H8+
105.0699	34	C8H9+
107.0491	101	C7H7O+
109.0107	27	C6H5S+
109.1012	16	C8H13+
111.0264	21	C6H7S+
115.0544	6	C9H7+
116.062	24	C9H8+
117.0699	125	C9H9+
118.0777	46	C9H10+
119.0857	5	C9H11+
121.0648	30	C8H9O+
121.1014	1	C9H13+
123.0263	14	C7H7S+
125.0058	5	C6H5OS+
128.0621	6	C10H8+
129.0699	32	C10H9+
130.0778	65	C10H10+
131.0606	11	C8H7N2+
131.0856	149	C10H11+
132.0573	2	C9H8O+
132.0934	26	C10H12+
133.0648	9	C9H9O+
134.0186	11	C8H6S+
135.0263	64	C8H7S+
137.0057	26	C7H5OS+
139.0213	35	C7H7OS+
141.0696	1	C11H9+
142.0779	6	C11H10+
143.0856	18	C11H11+
144.0935	66	C11H12+
145.1012	145	C11H13+
146.0727	7	C10H10O+
146.1093	9	C11H14+
147.0264	13	C9H7S+
147.0806	14	C10H11O+
148.0341	9	C9H8S+
149.0057	7	C8H5OS+
149.042	77	C9H9S+
149.0962	12	C10H13O+
150.0141	1	C8H6OS+
151.0212	92	C8H7OS+
153.0005	73	C7H5O2S+
154.078	1	C12H10+
155.0163	2	C7H7O2S+
155.0854	1	C12H11+
156.0934	9	C12H12+
157.1012	2	C12H13+
158.1089	14	C12H14+
159.0917	36	C10H11N2+
159.1168	28	C12H15+
160.1248	1	C12H16+
161.0421	12	C10H9S+
161.0964	1	C11H13O+
163.0214	9	C9H7OS+
163.0575	30	C10H11S+
163.112	4	C11H15O+
165.0369	52	C9H9OS+
167.0162	114	C8H7O2S+
169.032	10	C8H9O2S+
169.1013	1	C13H13+
171.0111	986	C7H7O3S+
172.0343	7	C11H8S+
173.042	17	C11H9S+
173.1073	14	C11H13N2+
177.0367	11	C10H9OS+
179.0523	10	C10H11OS+
181.0318	27	C9H9O2S+
183.048	2	C9H11O2S+
185.0268	999	C8H9O3S+
187.0575	11	C12H11S+
187.1232	2	C12H15N2+
191.0525	25	C11H11OS+
195.0475	54	C10H11O2S+
196.1246	1	C15H16+
197.027	6	C9H9O3S+
199.0424	137	C9H11O3S+
203.0375	13	C8H11O4S+
205.0683	11	C12H13OS+
209.0631	25	C11H13O2S+
211.0415	1	C10H11O3S+
213.0581	71	C10H13O3S+
217.0531	8	C9H13O4S+
223.0785	2	C12H15O2S+
227.0738	20	C11H15O3S+
231.0683	9	C10H15O4S+
241.0894	5	C12H17O3S+
245.0846	5	C11H17O4S+
247.1152	2	C15H19OS+
