Mass spectrum: Methiocarb-sulfoxide; LC-ESI-ITFT; MS2; CE: 75%; R=7500; [M+H]+
Name: Methiocarb-sulfoxide
Name: Mesurol sulfoxide
Name: (3,5-dimethyl-4-methylsulfinyl-phenyl) N-methylcarbamate
Formula: C11H15NO3S
Exact mass: 241.0773
SMILES: O=C(Oc1cc(c(c(c1)C)S(=O)C)C)NC
InChI: InChI=1S/C11H15NO3S/c1-7-5-9(15-11(13)12-3)6-8(2)10(7)16(4)14/h5-6H,1-4H3,(H,12,13)
Instrument: LTQ Orbitrap XL Thermo Scientific
Instrument type: LC-ESI-ITFT
Ms type: MS2
Ion mode: POSITIVE
Ionization: ESI
Fragmentation mode: HCD
Collision energy: 75 % (nominal)
Resolution: 7500
Column name: XBridge C18 3.5um, 2.1x50mm, Waters
Retention time: 4.9 min
Base peak: 242.0846
Precursor m/z: 242.0845
Precursor type: [M+H]+
m/z	relative intensity	assigned
53.0386	1	C4H5+
77.0385	6	C6H5+
79.0542	9	C6H7+
91.0542	18	C7H7+
93.0699	3	C7H9+
94.0778	4	C7H10+
95.0494	5	C6H7O+
103.0543	11	C8H7+
104.062	1	C8H8+
105.0448	3	C6H5N2+
107.0491	131	C7H7O+
108.057	5	C7H8O+
109.0648	63	C7H9O+
121.0649	85	C8H9O+
122.0726	999	C8H10O+
123.0442	3	C7H7O2+
123.0808	2	C8H11O+
125.0424	3	C7H9S+
135.0802	1	C9H11O+
136.0883	6	C9H12O+
137.0597	5	C8H9O2+
138.0675	17	C8H10O2+
151.0207	5	C8H7OS+
152.0291	62	C8H8OS+
153.0368	470	C8H9OS+
168.0603	444	C9H12OS+
170.0396	609	C8H10O2S+
185.0638	88	C9H13O2S+
