Mass spectrum: Pethoxamide; LC-ESI-ITFT; MS2; CE: 60%; R=7500; [M+H]+
Name: Pethoxamide
Name: 2-chloro-N-(2-ethoxyethyl)-N-(2-methyl-1-phenylprop-1-enyl)acetamide
Formula: C16H22ClNO2
Exact mass: 295.1334
SMILES: ClCC(=O)N(CCOCC)\C(=C(\C)C)c1ccccc1
InChI: InChI=1S/C16H22ClNO2/c1-4-20-11-10-18(15(19)12-17)16(13(2)3)14-8-6-5-7-9-14/h5-9H,4,10-12H2,1-3H3
Instrument: LTQ Orbitrap XL Thermo Scientific
Instrument type: LC-ESI-ITFT
Ms type: MS2
Ion mode: POSITIVE
Ionization: ESI
Fragmentation mode: HCD
Collision energy: 60 % (nominal)
Resolution: 7500
Column name: XBridge C18 3.5um, 2.1x50mm, Waters
Retention time: 11.5 min
Base peak: 296.1418
Precursor m/z: 296.1412
Precursor type: [M+H]+
m/z	relative intensity	assigned
65.0387	2	C5H5+
73.0648	10	C4H9O+
77.0388	2	C6H5+
91.0543	402	C7H7+
103.0543	10	C8H7+
104.0497	5	C7H6N+
105.0699	31	C8H9+
115.0541	14	C9H7+
116.0621	71	C9H8+
129.0698	117	C10H9+
131.0856	999	C10H11+
143.061	4	C9H7N2+
145.0884	2	C10H11N+
146.096	6	C10H12N+
147.1045	6	C10H13N+
148.1124	6	C10H14N+
159.1038	4	C11H13N+
160.1121	69	C11H14N+
172.1119	2	C12H14N+
174.1278	19	C12H16N+
190.1225	5	C12H16NO+
220.1697	39	C14H22NO+
250.0992	5	C14H17ClNO+
