Mass spectrum: Terbinafine; LC-ESI-QFT; MS2; CE: 15; R=35000; [M+H]+
Name: Terbinafine
Name: Terbinex
Name: N,6,6-trimethyl-N-(naphthalen-1-ylmethyl)hept-2-en-4-yn-1-amine
Formula: C21H25N
Exact mass: 291.19870
SMILES: CC(C)(C)C#CC=CCN(C)CC1=CC=CC2=CC=CC=C21
InChI: InChI=1S/C21H25N/c1-21(2,3)15-8-5-9-16-22(4)17-19-13-10-12-18-11-6-7-14-20(18)19/h5-7,9-14H,16-17H2,1-4H3
Instrument: Q Exactive Plus Orbitrap Thermo Scientific
Instrument type: LC-ESI-QFT
Ms type: MS2
Ion mode: POSITIVE
Ionization: ESI
Fragmentation mode: HCD
Collision energy: 15 (nominal)
Resolution: 35000
Column name: XBridge C18 3.5um, 2.1x50mm, Waters
Retention time: 8.8 min
Base peak: 292.2054
Precursor m/z: 292.206
Precursor type: [M+H]+
m/z	relative intensity	assigned
57.0699	7	C4H9+
58.0651	1	C3H8N+
70.0651	2	C4H8N+
79.0541	4	C6H7+
91.0538	1	C7H7+
93.0699	43	C7H9+
105.0699	2	C8H9+
106.0778	1	C8H10+
119.0856	1	C9H11+
121.1012	14	C9H13+
123.0804	1	C8H11O+
141.0698	440	C11H9+
150.1277	16	C10H16N+
165.0699	3	C13H9+
170.0964	29	C12H12N+
179.0854	5	C14H11+
191.0854	3	C15H11+
193.1012	2	C15H13+
205.1012	21	C16H13+
207.1167	1	C16H15+
219.117	3	C17H15+
235.148	1	C18H19+
236.1434	5	C17H18N+
249.1637	5	C19H21+
261.1638	12	C20H21+
292.2059	999	C21H26N+
