Mass spectrum: Capecitabine; LC-ESI-QFT; MS2; CE: 90; R=35000; [M+H]+
Name: Capecitabine
Name: (1-(5-Deoxy-beta-D-ribofuranosyl)-5-fluoro-1,2-dihydro-2-oxo-4-pyrimidinyl)-carbamic acid pentyl ester
Name: N-[1-[(2R,3R,4S,5R)-3,4-dihydroxy-5-methyl-2-oxolanyl]-5-fluoro-2-oxo-4-pyrimidinyl]carbamic acid pentyl ester
Formula: C15H22FN3O6
Exact mass: 359.14926
SMILES: FC=1\C(=N/C(=O)N(C=1)[C@@H]2O[C@@H]([C@@H](O)[C@H]2O)C)\NC(=O)OCCCCC
InChI: InChI=1S/C15H22FN3O6/c1-3-4-5-6-24-15(23)18-12-9(16)7-19(14(22)17-12)13-11(21)10(20)8(2)25-13/h7-8,10-11,13,20-21H,3-6H2,1-2H3,(H,17,18,22,23)/t8-,10-,11-,13-/m1/s1
Instrument: Q Exactive Orbitrap Thermo Scientific
Instrument type: LC-ESI-QFT
Ms type: MS2
Ion mode: POSITIVE
Ionization: ESI
Fragmentation mode: HCD
Collision energy: 90 (nominal)
Resolution: 35000
Column name: XBridge C18 3.5um, 2.1x50mm, Waters
Retention time: 7.8 min
Base peak: 360.1562
Precursor m/z: 360.1565
Precursor type: [M+H]+
m/z	relative intensity	assigned
53.0023	8	C3HO+
58.0087	8	C2HFN+
59.0492	1	C3H7O+
60.0244	10	C2H3FN+
67.029	6	C3H3N2+
69.0083	1	C2HN2O+
71.0855	6	C5H11+
73.0283	16	C3H5O2+
85.0196	36	C3H2FN2+
87.0352	145	C3H4FN2+
103.0301	1	C3H4FN2O+
112.0305	86	C4H3FN3+
113.0145	325	C4H2FN2O+
130.0411	999	C4H5FN3O+
131.025	15	C4H4FN2O2+
156.0202	26	C5H3FN3O2+
174.0307	8	C5H5FN3O3+
