Mass spectrum: Kresoxim-methyl acid; LC-ESI-QFT; MS2; CE: 30; R=35000; [M+H]+
Name: Kresoxim-methyl acid
Name: (2E)-2-methoxyimino-2-[2-[(2-methylphenoxy)methyl]phenyl]acetic acid
Formula: C17H17NO4
Exact mass: 299.11576
SMILES: O=C(O)\C(=N\OC)c2ccccc2COc1ccccc1C
InChI: InChI=1S/C17H17NO4/c1-12-7-3-6-10-15(12)22-11-13-8-4-5-9-14(13)16(17(19)20)18-21-2/h3-10H,11H2,1-2H3,(H,19,20)/b18-16+
Instrument: Q Exactive Plus Orbitrap Thermo Scientific
Instrument type: LC-ESI-QFT
Ms type: MS2
Ion mode: POSITIVE
Ionization: ESI
Fragmentation mode: HCD
Collision energy: 30 (nominal)
Resolution: 35000
Column name: XBridge C18 3.5um, 2.1x50mm, Waters
Retention time: 10.9 min
Base peak: 300.1227
Precursor m/z: 300.123
Precursor type: [M+H]+
m/z	relative intensity	assigned
59.0492	5	C3H7O+
89.0385	2	C7H5+
91.0542	24	C7H7+
104.0495	2	C7H6N+
107.0491	17	C7H7O+
109.0652	1	C7H9O+
116.0495	596	C8H6N+
117.0572	48	C8H7N+
118.0652	3	C8H8N+
119.0494	1	C8H7O+
121.0648	44	C8H9O+
130.0653	1	C9H8N+
132.0444	22	C8H6NO+
134.06	32	C8H8NO+
135.044	36	C8H7O2+
146.06	74	C9H8NO+
147.0679	2	C9H9NO+
148.0757	5	C9H10NO+
165.0693	3	C13H9+
166.0651	1	C12H8N+
166.0773	1	C13H10+
167.0733	6	C12H9N+
167.0855	7	C13H11+
168.0806	6	C12H10N+
178.0777	3	C14H10+
179.0855	50	C14H11+
180.0807	10	C13H10N+
181.0887	21	C13H11N+
181.1011	30	C14H13+
182.0965	9	C13H12N+
191.0722	1	C14H9N+
191.0855	10	C15H11+
192.0655	57	C10H10NO3+
193.0888	1	C14H11N+
194.0727	35	C14H10O+
194.0964	68	C14H12N+
195.0805	11	C14H11O+
195.1041	3	C14H13N+
196.1121	55	C14H14N+
197.0961	5	C14H13O+
204.0808	17	C15H10N+
205.0882	1	C15H11N+
206.0601	1	C14H8NO+
206.0965	16	C15H12N+
207.0678	13	C14H9NO+
207.0804	17	C15H11O+
207.1041	11	C15H13N+
208.0884	16	C15H12O+
209.0836	126	C14H11NO+
209.0961	162	C15H13O+
221.083	2	C15H11NO+
222.0914	999	C15H12NO+
223.0992	44	C15H13NO+
224.107	258	C15H14NO+
225.0908	10	C15H13O2+
232.0759	2	C16H10NO+
232.0866	1	C15H10N3+
234.0916	2	C16H12NO+
235.0754	328	C16H11O2+
236.0714	1	C15H10NO2+
236.083	6	C16H12O2+
238.1227	10	C16H16NO+
240.1019	5	C15H14NO2+
250.0864	17	C16H12NO2+
251.0945	4	C16H13NO2+
253.086	34	C16H13O3+
254.1175	81	C16H16NO2+
268.0966	6	C16H14NO3+
282.1125	32	C17H16NO3+
286.082	1	C14H12N3O4+
