Mass spectrum: 3,4,5-Trimethacarb; LC-ESI-QFT; MS2; CE: 180%; R=17500; [M+H]+
Name: 3,4,5-Trimethacarb
Name: 3,4,5-Trimethylphenyl methylcarbamate
Name: (3,4,5-trimethylphenyl) N-methylcarbamate
Formula: C11H15NO2
Exact mass: 193.1103
SMILES: CC1=CC(=CC(=C1C)C)OC(=O)NC
InChI: InChI=1S/C11H15NO2/c1-7-5-10(14-11(13)12-4)6-8(2)9(7)3/h5-6H,1-4H3,(H,12,13)
Instrument: Exploris 240 Orbitrap Thermo Scientific
Instrument type: LC-ESI-QFT
Ms type: MS2
Ion mode: POSITIVE
Ionization: ESI
Fragmentation mode: HCD
Collision energy: 180 % (nominal)
Resolution: 17500
Column name: XBridge C18 3.5um, 2.1x50mm, Waters
Retention time: 7.147 min
Base peak: 137.096
Precursor m/z: 194.1176
Precursor type: [M+H]+
m/z	relative intensity	assigned
51.0229	521	C4H3+
53.0386	259	C4H5+
55.0178	83	C3H3O+
55.0543	32	C4H7+
58.0288	63	C2H4NO+
65.0386	241	C5H5+
67.0542	43	C5H7+
77.0386	999	C6H5+
78.0464	192	C6H6+
79.0542	501	C6H7+
91.0543	256	C7H7+
93.0701	24	C7H9+
95.0491	373	C6H7O+
103.0543	155	C8H7+
107.0492	912	C7H7O+
121.0646	199	C8H9O+
