Mass spectrum: Sulfallate; LC-ESI-QFT; MS2; CE: 45%; R=17500; [M+H]+
Name: Sulfallate
Name: 2-chloroprop-2-enyl N,N-diethylcarbamodithioate
Formula: C8H14ClNS2
Exact mass: 223.0256
SMILES: CCN(CC)C(=S)SCC(=C)Cl
InChI: InChI=1S/C8H14ClNS2/c1-4-10(5-2)8(11)12-6-7(3)9/h3-6H2,1-2H3
Instrument: Exploris 240 Orbitrap Thermo Scientific
Instrument type: LC-ESI-QFT
Ms type: MS2
Ion mode: POSITIVE
Ionization: ESI
Fragmentation mode: HCD
Collision energy: 45 % (nominal)
Resolution: 17500
Column name: XBridge C18 3.5um, 2.1x50mm, Waters
Retention time: 10.804 min
Base peak: 306.1032
Precursor m/z: 224.0329
Precursor type: [M+H]+
m/z	relative intensity	assigned
59.9902	175	CH2NS+
72.0807	4	C4H10N+
74.9996	13	C3H4Cl+
88.0215	999	C3H6NS+
116.0528	850	C5H10NS+
150.9433	10	C4H4ClS2+
152.0293	7	C5H11ClNS+
188.0563	83	C8H14NS2+
224.033	77	C8H15ClNS2+
