Mass spectrum: Oxyfluorfen; LC-ESI-QFT; MS2; CE: 15; R=35000; [M+H]+
Name: Oxyfluorfen
Name: 2-chloranyl-1-(3-ethoxy-4-nitro-phenoxy)-4-(trifluoromethyl)benzene
Formula: C15H11ClF3NO4
Exact mass: 361.03287
SMILES: Clc2cc(ccc2Oc1ccc([N+]([O-])=O)c(OCC)c1)C(F)(F)F
InChI: InChI=1S/C15H11ClF3NO4/c1-2-23-14-8-10(4-5-12(14)20(21)22)24-13-6-3-9(7-11(13)16)15(17,18)19/h3-8H,2H2,1H3
Instrument: Q Exactive Orbitrap Thermo Scientific
Instrument type: LC-ESI-QFT
Ms type: MS2
Ion mode: POSITIVE
Ionization: ESI
Fragmentation mode: HCD
Collision energy: 15 (nominal)
Resolution: 35000
Column name: XBridge C18 3.5um, 2.1x50mm, Waters
Retention time: 15.5 min
Base peak: 362.0402
Precursor m/z: 362.0401
Precursor type: [M+H]+
m/z	relative intensity	assigned
194.982	2	C7H3ClF3O+
217.0027	1	C10H5ClF3+
224.0073	1	C11H5ClF2N+
230.0003	2	C12H5ClNO2+
237.0396	18	C12H6F3NO+
245.9932	1	C10H4ClF3NO+
252.002	3	C15H2F2O2+
252.0268	1	C12H5F3NO2+
253.0352	5	C12H6F3NO2+
254.0422	5	C12H7F3NO2+
267.9973	1	C12H5ClF2NO2+
272.0085	3	C12H6ClF3NO+
273.0167	1	C12H7ClF3NO+
273.9877	44	C11H4ClF3NO2+
281.0291	1	C13H6F3NO3+
281.0786	4	C15H12F3O2+
286.0003	14	C13H6ClF3O2+
288.0027	2	C15H3F3O3+
288.0164	11	C13H8ClF3O2+
290.019	33	C12H8ClF3NO2+
297.9872	15	C13H4ClF3NO2+
300.003	9	C13H6ClF3NO2+
301.0234	6	C14H9ClF3O2+
314.0022	2	C13H7ClF2NO4+
315.9983	486	C13H6ClF3NO3+
316.047	53	C15H12ClF3O2+
317.0056	5	C13H7ClF3NO3+
318.0138	58	C13H8ClF3NO3+
334.0088	175	C13H8ClF3NO4+
345.0374	8	C15H11ClF3NO3+
362.0401	999	C15H12ClF3NO4+
