Mass spectrum: Hexanamide; LC-ESI-QFT; MS2; CE: 15%; R=15000; [M+H]+
Name: Hexanamide
Formula: C6H13NO
Exact mass: 115.099714
SMILES: CCCCCC(=O)N
InChI: InChI=1S/C6H13NO/c1-2-3-4-5-6(7)8/h2-5H2,1H3,(H2,7,8)
Instrument: Exploris 240 Thermo Scientific
Instrument type: LC-ESI-QFT
Ms type: MS2
Ion mode: POSITIVE
Ionization: ESI
Fragmentation mode: HCD
Collision energy: 15 % (nominal)
Resolution: 15000
Column name: XBridge C18 3.5um, 2.1x50mm, Waters
Retention time: 4.340 min
Base peak: 116.1069
Precursor m/z: 116.107
Precursor type: [M+H]+
m/z	relative intensity	assigned
116.107	999	C6H14NO+
