Mass spectrum: Trimipramine N-Oxide; LC-ESI-QFT; MS2; CE: 75; R=35000; [M+H]+
Name: Trimipramine N-Oxide
Name: Trimipramine N-oxide, (+/-)-
Name: 3-(5,6-dihydrobenzo[b][1]benzazepin-11-yl)-N,N,2-trimethylpropan-1-amine oxide
Formula: C20H26N2O
Exact mass: 310.20451
SMILES: CC(CN1C2=CC=CC=C2CCC3=CC=CC=C31)C[N+](C)(C)[O-]
InChI: InChI=1S/C20H26N2O/c1-16(15-22(2,3)23)14-21-19-10-6-4-8-17(19)12-13-18-9-5-7-11-20(18)21/h4-11,16H,12-15H2,1-3H3
Instrument: Q Exactive Plus Orbitrap Thermo Scientific
Instrument type: LC-ESI-QFT
Ms type: MS2
Ion mode: POSITIVE
Ionization: ESI
Fragmentation mode: HCD
Collision energy: 75 (nominal)
Resolution: 35000
Column name: XBridge C18 3.5um, 2.1x50mm, Waters
Retention time: 8.9 min
Base peak: 311.2114
Precursor m/z: 311.2118
Precursor type: [M+H]+
m/z	relative intensity	assigned
55.0542	15	C4H7+
56.0495	36	C3H6N+
58.0651	114	C3H8N+
60.0444	14	C2H6NO+
70.0651	15	C4H8N+
71.0729	217	C4H9N+
79.0542	2	C6H7+
84.0807	41	C5H10N+
85.0886	13	C5H11N+
86.0964	358	C5H12N+
91.0542	24	C7H7+
98.0964	7	C6H12N+
99.1043	2	C6H13N+
100.1121	1	C6H14N+
103.0542	2	C8H7+
105.0699	8	C8H9+
106.0651	5	C7H8N+
115.0542	4	C9H7+
116.107	46	C6H14NO+
117.0573	3	C8H7N+
117.0699	1	C9H9+
118.0651	4	C8H8N+
120.0808	1	C8H10N+
129.0698	2	C10H9+
130.0651	11	C9H8N+
131.0731	1	C9H9N+
131.0855	1	C10H11+
132.0809	1	C9H10N+
143.073	2	C10H9N+
144.0809	6	C10H10N+
157.0887	1	C11H11N+
158.0962	3	C11H12N+
165.0696	5	C13H9+
166.0777	7	C13H10+
167.0729	10	C12H9N+
172.1122	1	C12H14N+
178.0775	7	C14H10+
179.0729	1	C13H9N+
179.0858	3	C14H11+
180.0808	32	C13H10N+
181.1009	1	C14H13+
190.0777	1	C15H10+
191.0727	1	C14H9N+
191.0858	2	C15H11+
192.0807	28	C14H10N+
193.0886	999	C14H11N+
194.0964	32	C14H12N+
195.1042	29	C14H13N+
204.0806	3	C15H10N+
205.0883	3	C15H11N+
206.0964	25	C15H12N+
207.1042	17	C15H13N+
208.1121	382	C15H14N+
218.0962	4	C16H12N+
219.1043	6	C16H13N+
220.1122	15	C16H14N+
221.1198	1	C16H15N+
232.1123	2	C17H14N+
233.1199	1	C17H15N+
234.1277	48	C17H16N+
235.1355	1	C17H17N+
248.1434	12	C18H18N+
250.1592	2	C18H20N+
