Mass spectrum: Ofurace; LC-ESI-QFT; MS2; CE: 45%; R=17500; [M+H]+
Name: Ofurace
Name: 2-chloro-N-(2,6-dimethylphenyl)-N-(2-oxooxolan-3-yl)acetamide
Formula: C14H16ClNO3
Exact mass: 281.0819
SMILES: CC1=C(C(=CC=C1)C)N(C2CCOC2=O)C(=O)CCl
InChI: InChI=1S/C14H16ClNO3/c1-9-4-3-5-10(2)13(9)16(12(17)8-15)11-6-7-19-14(11)18/h3-5,11H,6-8H2,1-2H3
Instrument: Exploris 240 Orbitrap Thermo Scientific
Instrument type: LC-ESI-QFT
Ms type: MS2
Ion mode: POSITIVE
Ionization: ESI
Fragmentation mode: HCD
Collision energy: 45 % (nominal)
Resolution: 17500
Column name: XBridge C18 3.5um, 2.1x50mm, Waters
Retention time: 5.728 min
Base peak: 312.1342
Precursor m/z: 282.0891
Precursor type: [M+H]+
m/z	relative intensity	assigned
76.979	49	C2H2ClO+
121.0885	93	C8H11N+
132.0807	29	C9H10N+
148.1121	674	C10H14N+
160.1121	999	C11H14N+
178.1227	828	C11H16NO+
206.1176	24	C12H16NO2+
224.0838	271	C12H15ClNO+
236.0838	296	C13H15ClNO+
254.0943	95	C13H17ClNO2+
