Mass spectrum: Flufenamic acid; LC-ESI-QFT; MS2; CE: 60; R=35000; [M-H]-
Name: Flufenamic acid
Name: Arlef
Name: 2-[3-(trifluoromethyl)anilino]benzoic acid
Formula: C14H10F3NO2
Exact mass: 281.06636
SMILES: C1=CC=C(C(=C1)C(=O)O)NC2=CC=CC(=C2)C(F)(F)F
InChI: InChI=1S/C14H10F3NO2/c15-14(16,17)9-4-3-5-10(8-9)18-12-7-2-1-6-11(12)13(19)20/h1-8,18H,(H,19,20)
Instrument: Q Exactive Orbitrap Thermo Scientific
Instrument type: LC-ESI-QFT
Ms type: MS2
Ion mode: NEGATIVE
Ionization: ESI
Fragmentation mode: HCD
Collision energy: 60 (nominal)
Resolution: 35000
Column name: XBridge C18 3.5um, 2.1x50mm, Waters
Retention time: 14.5 min
Base peak: 280.0593
Precursor m/z: 280.0591
Precursor type: [M-H]-
m/z	relative intensity	assigned
62.9888	13	CFO2-
68.9958	19	CF3-
73.0084	1	C6H-
92.0507	6	C6H6N-
160.038	37	C7H5F3N-
166.0662	47	C12H8N-
168.0453	1	C11H6NO-
174.0352	1	C13H4N-
176.0506	659	C13H6N-
179.0377	24	C12H5NO-
181.0535	46	C12H7NO-
183.0327	1	C11H5NO2-
183.0488	4	C12H6FN-
194.0412	13	C13H5FN-
194.0614	4	C13H8NO-
196.0568	120	C13H7FN-
199.044	55	C12H6FNO-
200.0519	12	C12H7FNO-
207.0326	37	C13H5NO2-
214.0474	8	C13H6F2N-
214.0678	5	C13H9FNO-
215.0553	211	C13H7F2N-
216.0631	133	C13H8F2N-
217.0544	3	C12H8FNO2-
227.0389	115	C13H6FNO2-
234.0538	418	C13H7F3N-
236.0693	999	C13H9F3N-
248.0531	4	C13H8F2NO2-
