Mass spectrum: Pantoprazole; LC-ESI-ITFT; MS2; CE: 30%; R=7500; [M+H]+
Name: Pantoprazole
Name: 6-(difluoromethoxy)-2-[(3,4-dimethoxy-2-pyridinyl)methylsulfinyl]-1H-benzimidazole
Formula: C16H15F2N3O4S
Exact mass: 383.0751
SMILES: COC1=C(C(=NC=C1)CS(=O)C2=NC3=C(N2)C=C(C=C3)OC(F)F)OC
InChI: InChI=1S/C16H15F2N3O4S/c1-23-13-5-6-19-12(14(13)24-2)8-26(22)16-20-10-4-3-9(25-15(17)18)7-11(10)21-16/h3-7,15H,8H2,1-2H3,(H,20,21)
Instrument: LTQ Orbitrap XL Thermo Scientific
Instrument type: LC-ESI-ITFT
Ms type: MS2
Ion mode: POSITIVE
Ionization: ESI
Fragmentation mode: HCD
Collision energy: 30 % (nominal)
Resolution: 7500
Column name: XBridge C18 3.5um, 2.1x50mm, Waters
Retention time: 6.6 min
Base peak: 384.0836
Precursor m/z: 384.0824
Precursor type: [M+H]+
m/z	relative intensity	assigned
107.073	68	C7H9N+
122.06	43	C7H8NO+
138.055	999	C7H8NO2+
152.0704	17	C8H10NO2+
153.0784	255	C8H11NO2+
168.0654	26	C6H12F2NS+
170.0809	34	C6H14F2NS+
185.0523	21	C8H7F2N2O+
200.0376	705	C8H10NO3S+
215.0082	14	C8H5F2N2OS+
366.0736	5	C16H14F2N3O3S+
