Mass spectrum: Enrofloxacin; LC-ESI-QFT; MS2; CE: 150; R=35000; [M+H]+
Name: Enrofloxacin
Name: 1-cyclopropyl-7-(4-ethylpiperazin-4-ium-1-yl)-6-fluoro-4-oxoquinoline-3-carboxylate
Formula: C19H22FN3O3
Exact mass: 359.16452
SMILES: CCN1CCN(CC1)C2=C(C=C3C(=C2)N(C=C(C3=O)C(=O)O)C4CC4)F
InChI: InChI=1S/C19H22FN3O3/c1-2-21-5-7-22(8-6-21)17-10-16-13(9-15(17)20)18(24)14(19(25)26)11-23(16)12-3-4-12/h9-12H,2-8H2,1H3,(H,25,26)
Instrument: Q Exactive Plus Orbitrap Thermo Scientific
Instrument type: LC-ESI-QFT
Ms type: MS2
Ion mode: POSITIVE
Ionization: ESI
Fragmentation mode: HCD
Collision energy: 150 (nominal)
Resolution: 35000
Column name: XBridge C18 3.5um, 2.1x50mm, Waters
Retention time: 4.4 min
Base peak: 360.1712
Precursor m/z: 360.1718
Precursor type: [M+H]+
m/z	relative intensity	assigned
50.0151	42	C4H2+
51.023	72	C4H3+
52.0183	28	C3H2N+
53.0023	370	C3HO+
53.0387	54	C4H5+
54.0339	7	C3H4N+
55.0178	11	C3H3O+
55.0416	5	C3H5N+
56.0495	194	C3H6N+
57.0136	150	C3H2F+
57.0573	18	C3H7N+
58.0652	52	C3H8N+
59.0292	11	C3H4F+
61.0073	13	C5H+
62.0151	51	C5H2+
63.023	213	C5H3+
64.0182	5	C4H2N+
64.0308	4	C5H4+
65.0386	48	C5H5+
66.0464	3	C5H6+
67.0417	13	C4H5N+
68.0057	5	C4HF+
68.0495	28	C4H6N+
69.0448	4	C3H5N2+
70.0213	20	C4H3F+
70.0652	111	C4H8N+
71.0292	14	C4H4F+
72.0808	13	C4H10N+
74.0151	60	C6H2+
75.023	414	C6H3+
76.0182	26	C5H2N+
76.0307	27	C6H4+
77.0022	21	C5HO+
77.0386	92	C6H5+
78.0339	41	C5H4N+
78.0464	43	C6H6+
79.0417	6	C5H5N+
80.0496	16	C5H6N+
81.0136	78	C5H2F+
81.0335	6	C5H5O+
82.0089	22	C4HFN+
82.0214	15	C5H3F+
82.0651	12	C5H8N+
83.0292	246	C5H4F+
84.0372	38	C5H5F+
84.0809	6	C5H10N+
86.0151	22	C7H2+
87.0104	16	C6HN+
87.023	70	C7H3+
88.0182	44	C6H2N+
88.0309	49	C7H4+
89.0386	473	C7H5+
90.0339	32	C6H4N+
90.0465	49	C7H6+
91.0179	12	C6H3O+
91.0417	6	C6H5N+
91.0543	43	C7H7+
92.0257	4	C6H4O+
92.0495	13	C6H6N+
93.0136	31	C6H2F+
94.0214	95	C6H3F+
95.0292	28	C6H4F+
95.0492	124	C6H7O+
96.0244	5	C5H3FN+
96.037	64	C6H5F+
96.0444	43	C5H6NO+
97.0323	12	C5H4FN+
97.0449	14	C6H6F+
98.0152	16	C8H2+
99.023	104	C8H3+
100.0183	76	C7H2N+
100.0308	16	C8H4+
101.026	14	C7H3N+
101.0387	81	C8H5+
102.0338	44	C7H4N+
102.0465	147	C8H6+
103.0415	22	C7H5N+
103.0543	52	C8H7+
104.0495	38	C7H6N+
105.0136	40	C7H2F+
105.0449	84	C6H5N2+
105.0573	5	C7H7N+
106.0087	6	C6HFN+
106.0214	57	C7H3F+
107.0293	999	C7H4F+
108.0245	175	C6H3FN+
108.037	184	C7H5F+
109.0323	16	C6H4FN+
109.0449	147	C7H6F+
110.0402	14	C6H5FN+
112.0185	14	C8H2N+
112.0319	20	C6H5FO+
113.0261	22	C8H3N+
113.0387	94	C9H5+
114.034	211	C8H4N+
114.0464	23	C9H6+
115.0418	85	C8H5N+
115.0544	181	C9H7+
116.0496	88	C8H6N+
117.0574	47	C8H7N+
118.0287	19	C7H4NO+
118.0416	4	C8H6O+
119.0293	15	C8H4F+
119.0493	76	C8H7O+
120.0246	15	C7H3FN+
120.0371	166	C8H5F+
120.0443	11	C7H6NO+
121.0323	137	C7H4FN+
121.045	35	C8H6F+
122.0402	102	C7H5FN+
123.0354	84	C6H4FN2+
123.048	19	C7H6FN+
124.0184	19	C9H2N+
124.0559	4	C7H7FN+
125.0388	59	C10H5+
126.0341	98	C9H4N+
126.0465	72	C10H6+
127.0289	4	C8H3N2+
127.0418	57	C9H5N+
127.0543	81	C10H7+
128.0496	306	C9H6N+
128.0622	65	C10H8+
129.0448	294	C8H5N2+
129.0574	64	C9H7N+
130.0402	35	C7H4N3+
130.0653	46	C9H8N+
131.0293	46	C9H4F+
131.0367	15	C8H5NO+
131.0605	5	C8H7N2+
132.0246	265	C8H3FN+
132.0373	23	C9H5F+
132.0444	23	C8H6NO+
133.0324	103	C8H4FN+
133.0449	206	C9H6F+
133.0526	16	C8H7NO+
134.0402	299	C8H5FN+
134.0602	34	C8H8NO+
135.048	214	C8H6FN+
136.0195	13	C7H3FNO+
136.0323	3	C8H5FO+
136.056	23	C8H7FN+
138.0111	6	C7H3FO2+
138.0343	22	C7H5FNO+
139.0292	22	C9H3N2+
139.042	4	C10H5N+
139.0543	22	C11H7+
140.0496	165	C10H6N+
141.045	23	C9H5N2+
141.0574	79	C10H7N+
142.0291	13	C9H4NO+
142.0528	20	C9H6N2+
142.0652	25	C10H8N+
143.0494	6	C10H7O+
143.0609	4	C9H7N2+
143.073	4	C10H9N+
144.0246	4	C9H3FN+
144.0372	7	C10H5F+
144.0446	29	C9H6NO+
144.0557	24	C8H6N3+
144.0806	4	C10H10N+
145.0324	17	C9H4FN+
145.0451	18	C10H6F+
145.065	45	C10H9O+
146.0402	192	C9H5FN+
146.0528	151	C10H7F+
146.0601	34	C9H8NO+
147.0356	51	C8H4FN2+
147.048	123	C9H6FN+
147.0608	16	C10H8F+
148.0559	454	C9H7FN+
149.0513	18	C8H6FN2+
150.0353	42	C8H5FNO+
150.0588	6	C8H7FN2+
151.0429	30	C8H6FNO+
152.0504	73	C8H7FNO+
152.0622	5	C12H8+
153.045	43	C10H5N2+
153.0573	30	C11H7N+
154.0402	91	C9H4N3+
154.0653	213	C11H8N+
155.0605	209	C10H7N2+
156.0446	12	C10H6NO+
156.0683	32	C10H8N2+
157.0395	6	C9H5N2O+
157.0451	26	C11H6F+
157.0523	13	C10H7NO+
158.0402	115	C10H5FN+
159.0355	6	C9H4FN2+
159.0482	55	C10H6FN+
159.0549	9	C9H7N2O+
160.0434	60	C9H5FN2+
160.0558	50	C10H7FN+
161.0274	12	C9H4FNO+
161.0514	152	C9H6FN2+
161.0631	26	C10H8FN+
162.0352	38	C9H5FNO+
162.0462	39	C8H5FN3+
162.0586	6	C9H7FN2+
163.0432	5	C9H6FNO+
163.0555	5	C10H8FO+
164.0507	57	C9H7FNO+
165.0451	6	C11H5N2+
166.0529	37	C11H6N2+
166.0653	12	C12H8N+
167.0607	35	C11H7N2+
167.0729	25	C12H9N+
168.0085	3	C10H2NO2+
168.0441	3	C11H6NO+
168.056	6	C10H6N3+
168.0684	22	C11H8N2+
168.0811	4	C12H10N+
169.0517	5	C11H7NO+
169.0762	11	C11H9N2+
170.0603	18	C11H8NO+
171.0482	17	C11H6FN+
171.0551	4	C10H7N2O+
172.0559	311	C11H7FN+
173.0512	115	C10H6FN2+
173.0634	44	C11H8FN+
174.0353	47	C10H5FNO+
174.0591	80	C10H7FN2+
174.0718	20	C11H9FN+
175.0432	3	C10H6FNO+
175.0668	32	C10H8FN2+
176.0511	24	C10H7FNO+
176.0746	6	C10H9FN2+
177.0584	7	C10H8FNO+
178.0301	3	C9H5FNO2+
178.0661	4	C10H9FNO+
179.0382	26	C9H6FNO2+
179.0607	23	C9H8FN2O+
180.0459	5	C9H7FNO2+
180.0685	6	C12H8N2+
181.0763	26	C12H9N2+
182.0605	4	C12H8NO+
184.0558	22	C12H7FN+
185.0512	14	C11H6FN2+
185.0637	28	C12H8FN+
186.0591	27	C11H7FN2+
186.0718	5	C12H9FN+
187.0306	4	C10H4FN2O+
187.0431	6	C11H6FNO+
187.0669	39	C11H8FN2+
188.0151	3	C10H3FNO2+
188.0261	4	C9H3FN3O+
188.0509	14	C11H7FNO+
189.0464	15	C10H6FN2O+
193.0765	12	C13H9N2+
195.056	4	C12H7N2O+
199.0668	6	C12H8FN2+
200.0511	33	C12H7FNO+
200.0749	4	C12H9FN2+
201.0587	16	C12H8FNO+
201.0826	6	C12H10FN2+
202.0669	5	C12H9FNO+
203.0619	14	C11H8FN2O+
215.0621	4	C12H8FN2O+
