Mass spectrum: Nitrazepam; LC-ESI-QFT; MS2; CE: 45; R=35000; [M+H]+
Name: Nitrazepam
Name: 7-nitro-5-phenyl-1,3-dihydro-1,4-benzodiazepin-2-one
Formula: C15H11N3O3
Exact mass: 281.08004
SMILES: C1C(=O)NC2=C(C=C(C=C2)[N+](=O)[O-])C(=N1)C3=CC=CC=C3
InChI: InChI=1S/C15H11N3O3/c19-14-9-16-15(10-4-2-1-3-5-10)12-8-11(18(20)21)6-7-13(12)17-14/h1-8H,9H2,(H,17,19)
Instrument: Q Exactive Plus Orbitrap Thermo Scientific
Instrument type: LC-ESI-QFT
Ms type: MS2
Ion mode: POSITIVE
Ionization: ESI
Fragmentation mode: HCD
Collision energy: 45 (nominal)
Resolution: 35000
Column name: XBridge C18 3.5um, 2.1x50mm, Waters
Retention time: 7.7 min
Base peak: 282.0866
Precursor m/z: 282.0873
Precursor type: [M+H]+
m/z	relative intensity	assigned
80.0494	1	C5H6N+
91.0542	26	C7H7+
93.0572	1	C6H7N+
104.0494	1	C7H6N+
105.0334	2	C7H5O+
105.0446	1	C6H5N2+
106.065	1	C7H8N+
116.0494	1	C8H6N+
118.0651	2	C8H8N+
130.0526	4	C8H6N2+
133.0523	2	C8H7NO+
144.0444	1	C9H6NO+
146.0474	1	C8H6N2O+
151.0501	6	C7H7N2O2+
158.0474	21	C9H6N2O+
176.0455	39	C8H6N3O2+
177.0295	2	C8H5N2O3+
179.0456	1	C8H7N2O3+
179.0731	3	C13H9N+
180.0807	34	C13H10N+
181.0883	1	C13H11N+
187.0376	7	C9H5N3O2+
191.0731	2	C14H9N+
192.0806	2	C14H10N+
193.0887	3	C14H11N+
194.0842	1	C13H10N2+
195.068	3	C13H9NO+
195.0916	2	C13H11N2+
196.0757	24	C13H10NO+
196.0997	3	C13H12N2+
204.0404	12	C9H6N3O3+
206.084	1	C14H10N2+
207.0918	31	C14H11N2+
208.0995	48	C14H12N2+
209.0839	3	C14H11NO+
211.0865	3	C13H11N2O+
218.0839	2	C15H10N2+
223.0868	4	C14H11N2O+
224.0946	5	C14H12N2O+
225.0659	2	C13H9N2O2+
235.0867	53	C15H11N2O+
236.0944	999	C15H12N2O+
237.0659	9	C14H9N2O2+
237.0893	3	C14H11N3O+
238.0735	1	C14H10N2O2+
239.0815	6	C14H11N2O2+
240.0891	9	C14H12N2O2+
251.0814	33	C15H11N2O2+
253.0845	5	C14H11N3O2+
254.0924	41	C14H12N3O2+
265.0841	2	C15H11N3O2+
268.0843	356	C15H12N2O3+
270.0883	1	C14H12N3O3+
282.0872	710	C15H12N3O3+
