Mass spectrum: Aspirin; LC-ESI-QFT; MS2; CE: 75; R=35000; [M+H]+
Name: Aspirin
Name: Acetyl salicilic acid
Name: 2-acetyloxybenzoic acid
Formula: C9H8O4
Exact mass: 180.04226
SMILES: CC(=O)OC1=CC=CC=C1C(=O)O
InChI: InChI=1S/C9H8O4/c1-6(10)13-8-5-3-2-4-7(8)9(11)12/h2-5H,1H3,(H,11,12)
Instrument: Q Exactive Plus Orbitrap Thermo Scientific
Instrument type: LC-ESI-QFT
Ms type: MS2
Ion mode: POSITIVE
Ionization: ESI
Fragmentation mode: HCD
Collision energy: 75 (nominal)
Resolution: 35000
Column name: XBridge C18 3.5um, 2.1x50mm, Waters
Retention time: 20.3 min
Base peak: 391.2827
Precursor m/z: 181.0495
Precursor type: [M+H]+
m/z	relative intensity	assigned
50.0149	5	C4H2+
51.0227	6	C4H3+
53.0385	102	C4H5+
55.0178	9	C3H3O+
63.0227	2	C5H3+
65.0384	580	C5H5+
67.0541	1	C5H7+
68.9969	2	C3HO2+
77.0384	150	C6H5+
79.0541	120	C6H7+
80.0255	12	C5H4O+
81.0333	11	C5H5O+
83.0126	1	C4H3O2+
91.054	6	C7H7+
92.0255	119	C6H4O+
93.0334	158	C6H5O+
94.0411	7	C6H6O+
95.049	307	C6H7O+
98.0361	8	C5H6O2+
105.0333	109	C7H5O+
105.0445	203	C6H5N2+
106.0415	1	C7H6O+
107.049	17	C7H7O+
109.0646	3	C7H9O+
111.0439	117	C6H7O2+
119.0494	1	C8H7O+
120.0204	25	C7H4O2+
121.0282	762	C7H5O2+
121.0394	377	C6H5N2O+
122.0363	1	C7H6O2+
133.0282	312	C8H5O2+
135.0438	376	C8H7O2+
138.0308	13	C7H6O3+
149.0231	999	C8H5O3+
163.0387	370	C9H7O3+
167.0336	3	C8H7O4+
181.0491	2	C9H9O4+
