Mass spectrum: Nuarimol; LC-ESI-QFT; MS2; CE: 45%; R=17500; [M+H]+
Name: Nuarimol
Name: (2-chlorophenyl)-(4-fluorophenyl)-pyrimidin-5-ylmethanol
Formula: C17H12ClFN2O
Exact mass: 314.0622
SMILES: C1=CC=C(C(=C1)C(C2=CC=C(C=C2)F)(C3=CN=CN=C3)O)Cl
InChI: InChI=1S/C17H12ClFN2O/c18-16-4-2-1-3-15(16)17(22,13-9-20-11-21-10-13)12-5-7-14(19)8-6-12/h1-11,22H
Instrument: Exploris 240 Orbitrap Thermo Scientific
Instrument type: LC-ESI-QFT
Ms type: MS2
Ion mode: POSITIVE
Ionization: ESI
Fragmentation mode: HCD
Collision energy: 45 % (nominal)
Resolution: 17500
Column name: XBridge C18 3.5um, 2.1x50mm, Waters
Retention time: 8.405 min
Base peak: 315.0692
Precursor m/z: 315.0695
Precursor type: [M+H]+
m/z	relative intensity	assigned
54.0337	18	C3H4N+
81.0447	727	C4H5N2+
123.0241	70	C7H4FO+
138.9946	110	C7H4ClO+
156.0678	27	C10H8N2+
175.0669	7	C10H8FN2+
192.0445	16	C13H6NO+
207.061	13	C15H8F+
208.0686	13	C15H9F+
222.0715	24	C15H9FN+
224.0876	35	C15H11FN+
234.0707	18	C16H9FN+
235.032	147	C13H9ClFO+
236.0628	98	C16H9FO+
243.0371	411	C15H9ClF+
250.0654	14	C16H9FNO+
252.0819	999	C16H11FNO+
260.0642	56	C15H12ClFN+
262.09	33	C17H11FN2+
270.0486	19	C16H10ClFN+
271.032	35	C16H9ClFO+
279.092	22	C17H12FN2O+
288.0589	125	C16H12ClFNO+
297.0589	40	C17H11ClFN2+
315.0698	428	C17H13ClFN2O+
