Mass spectrum: Hexaconazole; LC-ESI-QFT; MS2; CE: 60%; R=17500; [M+H]+
Name: Hexaconazole
Name: 2-(2,4-dichlorophenyl)-1-(1,2,4-triazol-1-yl)hexan-2-ol
Formula: C14H17Cl2N3O
Exact mass: 313.0749
SMILES: CCCCC(CN1C=NC=N1)(C2=C(C=C(C=C2)Cl)Cl)O
InChI: InChI=1S/C14H17Cl2N3O/c1-2-3-6-14(20,8-19-10-17-9-18-19)12-5-4-11(15)7-13(12)16/h4-5,7,9-10,20H,2-3,6,8H2,1H3
Instrument: Exploris 240 Orbitrap Thermo Scientific
Instrument type: LC-ESI-QFT
Ms type: MS2
Ion mode: POSITIVE
Ionization: ESI
Fragmentation mode: HCD
Collision energy: 60 % (nominal)
Resolution: 17500
Column name: XBridge C18 3.5um, 2.1x50mm, Waters
Retention time: 11.635 min
Base peak: 320.1519
Precursor m/z: 314.0821
Precursor type: [M+H]+
m/z	relative intensity	assigned
55.0542	8	C4H7+
57.0699	21	C4H9+
70.0399	999	C2H4N3+
85.0648	4	C5H9O+
125.0151	35	C7H6Cl+
146.9764	7	C6H5Cl2+
149.0152	6	C9H6Cl+
150.0227	13	C9H7Cl+
153.0104	9	C8H6ClO+
158.9761	142	C7H5Cl2+
170.9763	8	C8H5Cl2+
174.9711	20	C7H5Cl2O+
184.9915	18	C9H7Cl2+
