Mass spectrum: Methyl toluene-4-sulfonate; LC-ESI-QFT; MS2; CE: 150%; R=15000; [M+H]+
Name: Methyl toluene-4-sulfonate
Name: Methyl p-toluenesulfonate
Name: methyl 4-methylbenzenesulfonate
Formula: C8H10O3S
Exact mass: 186.0350652
SMILES: COS(=O)(=O)C1=CC=C(C)C=C1
InChI: InChI=1S/C8H10O3S/c1-7-3-5-8(6-4-7)12(9,10)11-2/h3-6H,1-2H3
Instrument: Exploris 240 Thermo Scientific
Instrument type: LC-ESI-QFT
Ms type: MS2
Ion mode: POSITIVE
Ionization: ESI
Fragmentation mode: HCD
Collision energy: 150 % (nominal)
Resolution: 15000
Column name: XBridge C18 3.5um, 2.1x50mm, Waters
Retention time: 5.707 min
Base peak: 187.0421
Precursor m/z: 187.0423
Precursor type: [M+H]+
m/z	relative intensity	assigned
51.0229	37	C4H3+
63.023	72	C5H3+
65.0386	999	C5H5+
91.0542	313	C7H7+
107.0492	20	C7H7O+
