Mass spectrum: Norephedrine; LC-ESI-QFT; MS2; CE: 180; R=35000; [M+H]+
Name: Norephedrine
Name: Phenylpropanolamine
Name: 2-amino-1-phenylpropan-1-ol
Formula: C9H13NO
Exact mass: 151.09971
SMILES: CC(C(C1=CC=CC=C1)O)N
InChI: InChI=1S/C9H13NO/c1-7(10)9(11)8-5-3-2-4-6-8/h2-7,9,11H,10H2,1H3
Instrument: Q Exactive Plus Orbitrap Thermo Scientific
Instrument type: LC-ESI-QFT
Ms type: MS2
Ion mode: POSITIVE
Ionization: ESI
Fragmentation mode: HCD
Collision energy: 180 (nominal)
Resolution: 35000
Column name: XBridge C18 3.5um, 2.1x50mm, Waters
Retention time: 2.4 min
Base peak: 152.1067
Precursor m/z: 152.107
Precursor type: [M+H]+
m/z	relative intensity	assigned
50.0152	53	C4H2+
51.023	154	C4H3+
52.0308	8	C4H4+
53.0022	27	C3HO+
53.0386	25	C4H5+
53.9975	5	C2NO+
56.0495	11	C3H6N+
57.0573	7	C3H7N+
62.0151	17	C5H2+
63.023	176	C5H3+
65.0386	999	C5H5+
66.0464	2	C5H6+
67.9893	7	C3O2+
74.0151	8	C6H2+
75.023	15	C6H3+
76.0307	12	C6H4+
77.0386	64	C6H5+
78.0465	20	C6H6+
79.0542	7	C6H7+
80.0495	2	C5H6N+
81.0335	6	C5H5O+
87.023	9	C7H3+
89.0386	237	C7H5+
90.0465	11	C7H6+
91.0543	965	C7H7+
92.0495	2	C6H6N+
92.0621	1	C7H8+
93.0573	6	C6H7N+
95.0492	64	C6H7O+
102.0464	23	C8H6+
104.0495	52	C7H6N+
105.0448	57	C6H5N2+
114.0466	6	C9H6+
115.0543	471	C9H7+
116.0621	11	C9H8+
117.0574	51	C8H7N+
118.0651	66	C8H8N+
