Mass spectrum: D617; LC-ESI-ITFT; MS2; CE: 60%; R=7500; [M+H]+
Name: D617
Name: Verapamil metabolite D617
Name: 2-(3,4-dimethoxyphenyl)-2-isopropyl-5-(methylamino)valeronitrile
Formula: C17H26N2O2
Exact mass: 290.1994
SMILES: CC(C)C(CCCNC)(C#N)C1=CC(=C(C=C1)OC)OC
InChI: InChI=1S/C17H26N2O2/c1-13(2)17(12-18,9-6-10-19-3)14-7-8-15(20-4)16(11-14)21-5/h7-8,11,13,19H,6,9-10H2,1-5H3
Instrument: LTQ Orbitrap XL Thermo Scientific
Instrument type: LC-ESI-ITFT
Ms type: MS2
Ion mode: POSITIVE
Ionization: ESI
Fragmentation mode: HCD
Collision energy: 60 % (nominal)
Resolution: 7500
Column name: XBridge C18 3.5um, 2.1x50mm, Waters
Retention time: 6.3 min
Base peak: 291.2077
Precursor m/z: 291.2067
Precursor type: [M+H]+
m/z	relative intensity	assigned
67.0542	16	C5H7+
70.0652	141	C4H8N+
72.0805	11	C4H10N+
79.054	20	C6H7+
80.0494	18	C5H6N+
91.0546	14	C7H7+
93.0695	13	C7H9+
94.0651	43	C6H8N+
95.0855	82	C7H11+
96.0808	89	C6H10N+
105.07	62	C8H9+
106.041	10	C7H6O+
107.0491	14	C7H7O+
107.0734	16	C7H9N+
108.0807	13	C7H10N+
110.0963	18	C7H12N+
117.0694	16	C9H9+
121.0646	55	C8H9O+
122.0965	104	C8H12N+
123.044	17	C7H7O2+
124.0521	51	C7H8O2+
126.128	15	C8H16N+
131.0493	19	C9H7O+
133.0643	22	C9H9O+
134.0731	12	C9H10O+
136.052	166	C8H8O2+
137.0598	124	C8H9O2+
138.0676	249	C8H10O2+
139.0753	65	C8H11O2+
145.0644	17	C10H9O+
146.0727	121	C10H10O+
147.0807	20	C10H11O+
149.0598	11	C9H9O2+
149.0965	11	C10H13O+
150.0675	108	C9H10O2+
151.0754	999	C9H11O2+
153.1382	13	C9H17N2+
159.0806	26	C11H11O+
160.0752	14	C10H10NO+
160.0882	37	C11H12O+
162.0678	30	C10H10O2+
163.0757	16	C10H11O2+
164.083	53	C10H12O2+
165.0911	552	C10H13O2+
174.0912	33	C11H12NO+
176.0705	27	C10H10NO2+
176.0838	21	C11H12O2+
177.0911	493	C11H13O2+
179.1066	30	C11H15O2+
186.0909	40	C12H12NO+
187.0993	84	C12H13NO+
188.0706	30	C11H10NO2+
190.0871	36	C11H12NO2+
191.1064	96	C12H15O2+
192.1145	65	C12H16O2+
201.091	22	C13H13O2+
202.0863	196	C12H12NO2+
203.0942	85	C12H13NO2+
212.1191	22	C15H16O+
214.1231	25	C14H16NO+
216.1028	17	C13H14NO2+
217.1095	75	C13H15NO2+
218.1176	124	C13H16NO2+
220.1325	21	C13H18NO2+
230.1165	33	C14H16NO2+
233.1285	224	C13H17N2O2+
233.1547	16	C15H21O2+
244.1338	30	C15H18NO2+
245.1413	27	C15H19NO2+
247.144	65	C14H19N2O2+
248.1517	71	C14H20N2O2+
