Mass spectrum: Boscalid; LC-ESI-ITFT; MS2; CE: 90%; R=30000; [M+H]+
Name: Boscalid
Name: 2-chloranyl-N-[2-(4-chlorophenyl)phenyl]pyridine-3-carboxamide
Formula: C18H12Cl2N2O
Exact mass: 342.0327
SMILES: c1ccc(c(c1)c2ccc(cc2)Cl)NC(=O)c3cccnc3Cl
InChI: InChI=1S/C18H12Cl2N2O/c19-13-9-7-12(8-10-13)14-4-1-2-6-16(14)22-18(23)15-5-3-11-21-17(15)20/h1-11H,(H,22,23)
Instrument: LTQ Orbitrap XL Thermo Scientific
Instrument type: LC-ESI-ITFT
Ms type: MS2
Ion mode: POSITIVE
Ionization: ESI
Fragmentation mode: HCD
Collision energy: 90 % (nominal)
Resolution: 30000
Column name: XBridge C18 3.5um, 2.1x50mm, Waters
Retention time: 10.5 min
Base peak: 343.0412
Precursor m/z: 343.0399
Precursor type: [M+H]+
m/z	relative intensity	assigned
76.0182	54	C5H2N+
78.0339	388	C5H4N+
84.984	6	C4H2Cl+
94.0288	33	C5H4NO+
96.0445	224	C5H6NO+
111.9949	393	C5H3ClN+
113.0027	30	C5H4ClN+
114.0106	48	C5H5ClN+
130.0055	93	C5H5ClNO+
139.9898	67	C6H3ClNO+
140.0011	7	C8N2O+
140.0495	48	C10H6N+
141.0448	4	C9H5N2+
144.9926	12	C2H7Cl2N2O+
151.0543	6	C12H7+
152.0621	119	C12H8+
166.0527	12	C11H6N2+
167.0604	23	C11H7N2+
167.0728	14	C12H9N+
168.0683	21	C11H8N2+
175.0544	2	C14H7+
176.062	7	C14H8+
177.0574	92	C13H7N+
179.0599	2	C12H7N2+
179.0728	3	C13H9N+
186.0233	5	C12H7Cl+
189.0699	27	C15H9+
190.0651	18	C14H8N+
191.0726	4	C14H9N+
195.0552	6	C12H7N2O+
196.0633	18	C12H8N2O+
199.0543	9	C16H7+
200.0622	19	C16H8+
201.0344	2	C12H8ClN+
201.0698	8	C16H9+
202.0651	9	C15H8N+
202.0778	43	C16H10+
203.073	42	C15H9N+
204.0808	29	C15H10N+
212.0263	8	C13H7ClN+
214.0421	3	C13H9ClN+
214.0653	21	C16H8N+
215.073	34	C16H9N+
216.0808	125	C16H10N+
217.0887	65	C16H11N+
218.0839	30	C15H10N2+
218.0965	5	C16H12N+
220.0761	4	C15H10NO+
225.0576	21	C17H7N+
226.0653	45	C17H8N+
227.073	168	C17H9N+
228.0685	21	C16H8N2+
228.0808	113	C17H10N+
229.0291	2	C10H11Cl2N2+
229.0762	32	C16H9N2+
229.0886	29	C17H11N+
230.0369	8	C13H9ClNO+
230.0595	5	C16H8NO+
238.0417	18	C15H9ClN+
241.076	39	C17H9N2+
242.084	393	C17H10N2+
243.0918	572	C17H11N2+
244.0762	32	C17H10NO+
244.0995	118	C17H12N2+
245.0711	24	C16H9N2O+
246.0786	7	C16H10N2O+
251.0498	3	C16H10ClN+
252.0682	49	C18H8N2+
253.0761	284	C18H9N2+
254.0839	124	C18H10N2+
255.0925	7	C18H11N2+
257.0705	4	C17H9N2O+
258.0794	2	C17H10N2O+
261.034	3	C17H8ClN+
262.0419	15	C17H9ClN+
263.0373	12	C16H8ClN2+
264.0573	8	C17H11ClN+
265.0527	2	C16H10ClN2+
269.0709	23	C18H9N2O+
270.0789	133	C18H10N2O+
271.0867	999	C18H11N2O+
272.0944	195	C18H12N2O+
277.0522	9	C17H10ClN2+
278.0605	12	C17H11ClN2+
286.0737	2	C18H10N2O2+
287.0375	5	C18H8ClN2+
288.0437	4	C18H9ClN2+
289.0527	30	C18H10ClN2+
305.0478	14	C18H10ClN2O+
306.0558	8	C18H11ClN2O+
345.0414	3	C17H13Cl2N3O+
