Mass spectrum: Crotetamide; LC-ESI-QFT; MS2; CE: 90; R=35000; [M+H]+
Name: Crotetamide
Name: 2-[[(E)-but-2-enoyl]-ethyl-amino]-N,N-dimethyl-butanamide
Formula: C12H22N2O2
Exact mass: 226.16813
SMILES: O=C(N(CC)C(C(=O)N(C)C)CC)/C=C/C
InChI: InChI=1S/C12H22N2O2/c1-6-9-11(15)14(8-3)10(7-2)12(16)13(4)5/h6,9-10H,7-8H2,1-5H3/b9-6+
Instrument: Q Exactive Orbitrap Thermo Scientific
Instrument type: LC-ESI-QFT
Ms type: MS2
Ion mode: POSITIVE
Ionization: ESI
Fragmentation mode: HCD
Collision energy: 90 (nominal)
Resolution: 35000
Column name: XBridge C18 3.5um, 2.1x50mm, Waters
Retention time: 6.4 min
Base peak: 182.1176
Precursor m/z: 227.1754
Precursor type: [M+H]+
m/z	relative intensity	assigned
58.0653	81	C3H8N+
69.0335	759	C4H5O+
84.0809	1	C5H10N+
86.0964	999	C5H12N+
91.0541	1	C7H7+
