Mass spectrum: Fipronil-TP RPA 200761; LC-ESI-QFT; MS2; CE: 15%; R=17500; [M-H]-
Name: Fipronil-TP RPA 200761
Name: 5-amino-1-[2,6-dichloro-4-(trifluoromethyl)phenyl]-4-(trifluoromethylsulfinyl)pyrazole-3-carboxylic acid
Formula: C12H5Cl2F6N3O3S
Exact mass: 454.9333
SMILES: NC1=C(C(=NN1C1=C(Cl)C=C(C=C1Cl)C(F)(F)F)C(O)=O)S(=O)C(F)(F)F
InChI: InChI=1S/C12H5Cl2F6N3O3S/c13-4-1-3(11(15,16)17)2-5(14)7(4)23-9(21)8(6(22-23)10(24)25)27(26)12(18,19)20/h1-2H,21H2,(H,24,25)
Instrument: Q Exactive Plus Orbitrap Thermo Scientific
Instrument type: LC-ESI-QFT
Ms type: MS2
Ion mode: NEGATIVE
Ionization: ESI
Fragmentation mode: HCD
Collision energy: 15 % (nominal)
Resolution: 17500
Column name: XBridge C18 3.5um, 2.1x50mm, Waters
Retention time: 8.064 min
Base peak: 453.926
Precursor m/z: 453.926
Precursor type: [M-H]-
m/z	relative intensity	assigned
67.0394	11	
85.9706	51	C2NOS-
111.9733	4	C2H2ClFO2-
155.9736	27	C3HF3NOS-
180.9689	39	C4F3N2OS-
252.9552	999	C8H2Cl2F3N2-
256.9974	67	C10H3ClF3N3-
287.9612	14	C9H4Cl2F4NO-
303.9563	204	C10H2ClF3N3OS-
304.9642	88	C10H3ClF3N3OS-
336.9647	4	C9H4ClF6N2OS-
339.933	94	C10H3Cl2F3N3OS-
340.9408	8	C10H4Cl2F3N3OS-
409.9362	84	C11H4Cl2F6N3OS-
453.926	48	C12H4Cl2F6N3O3S-
