Mass spectrum: Thiophanate; LC-ESI-QFT; MS2; CE: 180%; R=17500; [M+H]+
Name: Thiophanate
Name: CID 31991
Name: N`-ethoxycarbonyl-N-[2-[(N-ethoxycarbonyl-C-sulfanylcarbonimidoyl)amino]phenyl]carbamimidothioic acid
Formula: C14H18N4O4S2
Exact mass: 370.0769
SMILES: CCOC(=O)NC(=S)NC1=CC=CC=C1NC(=S)NC(=O)OCC
InChI: InChI=1S/C14H18N4O4S2/c1-3-21-13(19)17-11(23)15-9-7-5-6-8-10(9)16-12(24)18-14(20)22-4-2/h5-8H,3-4H2,1-2H3,(H2,15,17,19,23)(H2,16,18,20,24)
Instrument: Exploris 240 Orbitrap Thermo Scientific
Instrument type: LC-ESI-QFT
Ms type: MS2
Ion mode: POSITIVE
Ionization: ESI
Fragmentation mode: HCD
Collision energy: 180 % (nominal)
Resolution: 17500
Column name: XBridge C18 3.5um, 2.1x50mm, Waters
Retention time: 7.280 min
Base peak: 295.0398
Precursor m/z: 371.0842
Precursor type: [M+H]+
m/z	relative intensity	assigned
57.9746	160	CNS+
59.9902	731	CH2NS+
62.0238	27	CH4NO2+
63.023	184	C5H3+
64.0183	54	C4H2N+
64.0308	85	C5H4+
65.0386	999	C5H5+
66.0463	222	C5H6+
78.0339	78	C5H4N+
80.0494	102	C5H6N+
85.9695	334	C2NOS+
90.0337	92	C6H4N+
91.0417	309	C6H5N+
92.0495	148	C6H6N+
93.0573	291	C6H7N+
105.0446	34	C6H5N2+
118.0526	182	C7H6N2+
122.0058	53	C6H4NS+
