Mass spectrum: Glycyrrhetinic Acid; LC-ESI-QFT; MS2; CE: 150; R=35000; [M+H]+
Name: Glycyrrhetinic Acid
Name: 18-beta-Glycyrrhetin acid
Name: (2S,4aS,6aR,6aS,6bR,8aR,10S,12aS,14bR)-10-hydroxy-2,4a,6a,6b,9,9,12a-heptamethyl-13-oxo-3,4,5,6,6a,7,8,8a,10,11,12,14b-dodecahydro-1H-picene-2-carboxylic acid
Formula: C30H46O4
Exact mass: 470.33961
SMILES: C[C@]1([C@H](CC[C@]2([C@H]1CC[C@@]3([C@@H]2C(=O)C=C4[C@]3(CC[C@@]5([C@H]4C[C@](CC5)(C(=O)O)C)C)C)C)C)O)C
InChI: InChI=1S/C30H46O4/c1-25(2)21-8-11-30(7)23(28(21,5)10-9-22(25)32)20(31)16-18-19-17-27(4,24(33)34)13-12-26(19,3)14-15-29(18,30)6/h16,19,21-23,32H,8-15,17H2,1-7H3,(H,33,34)/t19-,21-,22-,23+,26+,27-,28-,29+,30+/m0/s1
Instrument: Q Exactive Plus Orbitrap Thermo Scientific
Instrument type: LC-ESI-QFT
Ms type: MS2
Ion mode: POSITIVE
Ionization: ESI
Fragmentation mode: HCD
Collision energy: 150 (nominal)
Resolution: 35000
Column name: XBridge C18 3.5um, 2.1x50mm, Waters
Retention time: 16.9 min
Base peak: 471.3465
Precursor m/z: 471.3469
Precursor type: [M+H]+
m/z	relative intensity	assigned
50.0151	50	C4H2+
51.023	59	C4H3+
52.0307	1	C4H4+
53.0022	43	C3HO+
53.0386	190	C4H5+
53.9975	9	C2NO+
55.0179	25	C3H3O+
55.0543	191	C4H7+
57.0335	4	C3H5O+
57.0699	2	C4H9+
59.0491	6	C3H7O+
62.0151	1	C5H2+
63.0229	15	C5H3+
65.0386	426	C5H5+
66.0464	16	C5H6+
67.0543	205	C5H7+
67.9893	5	C3O2+
68.9971	1	C3HO2+
69.0335	11	C4H5O+
69.0699	11	C5H9+
75.023	2	C6H3+
76.0306	1	C6H4+
77.0386	147	C6H5+
78.0464	59	C6H6+
79.0542	430	C6H7+
80.0621	9	C6H8+
81.0335	18	C5H5O+
81.0699	74	C6H9+
83.0492	1	C5H7O+
89.0386	14	C7H5+
90.0464	1	C7H6+
91.0543	999	C7H7+
92.0621	16	C7H8+
93.07	52	C7H9+
94.0413	16	C6H6O+
94.0778	1	C7H10+
95.0492	479	C6H7O+
97.0647	1	C6H9O+
102.0465	18	C8H6+
103.0543	148	C8H7+
104.0621	33	C8H8+
105.0448	244	C6H5N2+
105.07	203	C8H9+
106.0778	5	C8H10+
107.0491	17	C7H7O+
107.0856	8	C8H11+
108.0572	1	C7H8O+
109.0649	14	C7H9O+
115.0543	304	C9H7+
116.0621	39	C9H8+
117.07	74	C9H9+
118.0777	2	C9H10+
119.0493	6	C8H7O+
119.0604	5	C7H7N2+
119.0857	30	C9H11+
120.0573	1	C8H8O+
121.0649	7	C8H9O+
126.0465	3	C10H6+
127.0543	19	C10H7+
128.0621	248	C10H8+
129.0699	98	C10H9+
130.0778	14	C10H10+
131.0491	10	C9H7O+
131.0855	14	C10H11+
132.0571	1	C9H8O+
133.0649	2	C9H9O+
133.1011	2	C10H13+
135.0806	2	C9H11O+
139.0543	1	C11H7+
141.0699	127	C11H9+
142.0778	31	C11H10+
143.0858	16	C11H11+
144.0571	4	C10H8O+
145.0649	20	C10H9O+
145.1013	5	C11H13+
147.0803	1	C10H11O+
152.0622	43	C12H8+
153.07	50	C12H9+
154.0777	12	C12H10+
155.0604	34	C10H7N2+
155.0856	19	C12H11+
157.0649	5	C11H9O+
165.07	59	C13H9+
166.0777	12	C13H10+
167.0857	15	C13H11+
168.0933	1	C13H12+
169.0646	4	C12H9O+
169.1011	1	C13H13+
178.0778	22	C14H10+
179.086	11	C14H11+
180.0933	1	C14H12+
189.0699	2	C15H9+
191.0859	2	C15H11+
193.1017	1	C15H13+
