Mass spectrum: Spiramycin; LC-ESI-QFT; MS2; CE: 30; R=35000; [M+H]+
Name: Spiramycin
Name: 2-[(4R,5S,6S,7R,9R,10R,16R)-6-[4-(dimethylamino)-5-[4,6-dimethyl-4,5-bis(oxidanyl)oxan-2-yl]oxy-6-methyl-3-oxidanyl-oxan-2-yl]oxy-10-[5-(dimethylamino)-6-methyl-oxan-2-yl]oxy-5-methoxy-9,16-dimethyl-4-oxidanyl-2-oxidanylidene-1-oxacyclohexadeca-11,13-dien-7-yl]ethanal
Formula: C43H74N2O14
Exact mass: 842.51400
SMILES: O=CC[C@@H]4[C@H](OC2OC(C(OC1OC(C)C(O)C(O)(C)C1)C(N(C)C)C2O)C)[C@@H](OC)[C@H](O)CC(=O)O[C@H](C)C\C=C\C=C\[C@H](OC3OC(C)C(N(C)C)CC3)[C@H](C)C4
InChI: InChI=1S/C43H74N2O14/c1-24-21-29(19-20-46)39(59-42-37(49)36(45(9)10)38(27(4)56-42)58-35-23-43(6,51)41(50)28(5)55-35)40(52-11)31(47)22-33(48)53-25(2)15-13-12-14-16-32(24)57-34-18-17-30(44(7)8)26(3)54-34/h12-14,16,20,24-32,34-42,47,49-51H,15,17-19,21-23H2,1-11H3/b13-12+,16-14+/t24-,25-,26?,27?,28?,29+,30?,31-,32+,34?,35?,36?,37?,38?,39+,40+,41?,42?,43?/m1/s1
Instrument: Q Exactive Orbitrap Thermo Scientific
Instrument type: LC-ESI-QFT
Ms type: MS2
Ion mode: POSITIVE
Ionization: ESI
Fragmentation mode: HCD
Collision energy: 30 (nominal)
Resolution: 35000
Column name: XBridge C18 3.5um, 2.1x50mm, Waters
Retention time: 5.7 min
Base peak: 438.2777
Precursor m/z: 843.5213
Precursor type: [M+H]+
m/z	relative intensity	assigned
59.0491	3	C3H7O+
69.0335	1	C4H5O+
71.0491	1	C4H7O+
72.0807	2	C4H10N+
73.0522	4	C3H7NO+
73.0648	4	C4H9O+
81.0698	5	C6H9+
83.0491	198	C5H7O+
84.0807	17	C5H10N+
85.0284	7	C4H5O2+
85.0648	2	C5H9O+
86.06	2	C4H8NO+
87.044	7	C4H7O2+
88.0756	66	C4H10NO+
97.0648	8	C6H9O+
98.0964	64	C6H12N+
99.0804	6	C6H11O+
100.0756	24	C5H10NO+
101.0597	284	C5H9O2+
102.0913	1	C5H12NO+
109.0648	4	C7H9O+
112.0757	5	C6H10NO+
113.0597	1	C6H9O2+
114.0913	19	C6H12NO+
115.0991	13	C6H13NO+
116.0705	46	C5H10NO2+
116.107	4	C6H14NO+
126.0913	5	C7H12NO+
127.0753	89	C7H11O2+
128.1069	2	C7H14NO+
130.0863	6	C6H12NO2+
132.1019	60	C6H14NO2+
142.1227	231	C8H16NO+
144.1017	2	C7H14NO2+
145.0859	129	C7H13O3+
156.102	86	C8H14NO2+
158.1176	11	C8H16NO2+
160.1332	5	C8H18NO2+
172.0968	6	C8H14NO3+
174.1124	999	C8H16NO3+
185.1324	1	C14H17+
192.123	3	C8H18NO4+
214.1437	2	C11H20NO3+
217.1589	1	C15H21O+
232.1544	16	C11H22NO4+
276.1808	7	C13H26NO5+
318.1913	9	C15H28NO6+
331.1906	2	C20H27O4+
522.3062	5	C28H44NO8+
540.3159	18	C28H46NO9+
699.4436	2	C36H63N2O11+
843.5207	2	C43H75N2O14+
