Mass spectrum: Propyzamide; LC-ESI-QFT; MS2; CE: 15; R=35000; [M+H]+
Name: Propyzamide
Name: 3,5-bis(chloranyl)-N-(2-methylbut-3-yn-2-yl)benzamide
Name: Promamide
Formula: C12H11Cl2NO
Exact mass: 255.02177
SMILES: Clc1cc(C(=O)NC(C#C)(C)C)cc(Cl)c1
InChI: InChI=1S/C12H11Cl2NO/c1-4-12(2,3)15-11(16)8-5-9(13)7-10(14)6-8/h1,5-7H,2-3H3,(H,15,16)
Instrument: Q Exactive Orbitrap Thermo Scientific
Instrument type: LC-ESI-QFT
Ms type: MS2
Ion mode: POSITIVE
Ionization: ESI
Fragmentation mode: HCD
Collision energy: 15 (nominal)
Resolution: 35000
Column name: XBridge C18 3.5um, 2.1x50mm, Waters
Retention time: 11.0 min
Base peak: 256.0295
Precursor m/z: 256.029
Precursor type: [M+H]+
m/z	relative intensity	assigned
65.0387	7	C5H5+
67.0543	42	C5H7+
85.0648	5	C5H9O+
144.96	2	C6H3Cl2+
146.9763	1	C6H5Cl2+
171.9714	1	C7H4Cl2N+
172.9556	156	C7H3Cl2O+
189.9822	999	C7H6Cl2NO+
201.982	4	C8H6Cl2NO+
256.0292	568	C12H12Cl2NO+
