Mass spectrum: Ofurace; LC-ESI-QFT; MS2; CE: 75%; R=17500; [M+H]+
Name: Ofurace
Name: 2-chloro-N-(2,6-dimethylphenyl)-N-(2-oxooxolan-3-yl)acetamide
Formula: C14H16ClNO3
Exact mass: 281.0819
SMILES: CC1=C(C(=CC=C1)C)N(C2CCOC2=O)C(=O)CCl
InChI: InChI=1S/C14H16ClNO3/c1-9-4-3-5-10(2)13(9)16(12(17)8-15)11-6-7-19-14(11)18/h3-5,11H,6-8H2,1-2H3
Instrument: Exploris 240 Orbitrap Thermo Scientific
Instrument type: LC-ESI-QFT
Ms type: MS2
Ion mode: POSITIVE
Ionization: ESI
Fragmentation mode: HCD
Collision energy: 75 % (nominal)
Resolution: 17500
Column name: XBridge C18 3.5um, 2.1x50mm, Waters
Retention time: 5.728 min
Base peak: 312.1342
Precursor m/z: 282.0891
Precursor type: [M+H]+
m/z	relative intensity	assigned
76.9789	145	C2H2ClO+
105.07	77	C8H9+
106.0652	18	C7H8N+
117.0577	30	C8H7N+
118.0655	16	C8H8N+
119.0855	21	C9H11+
120.0808	12	C8H10N+
121.0887	243	C8H11N+
128.0621	12	C10H8+
130.0651	59	C9H8N+
131.0731	147	C9H9N+
132.0807	318	C9H10N+
134.0966	78	C9H12N+
143.0858	21	C11H11+
144.0808	235	C10H10N+
145.0887	514	C10H11N+
148.1121	734	C10H14N+
158.0965	24	C11H12N+
160.1121	999	C11H14N+
178.1225	204	C11H16NO+
