Mass spectrum: Imazaquin; LC-ESI-QFT; MS2; CE: 120; R=35000; [M+H]+
Name: Imazaquin
Name: 2-(4-methyl-5-oxo-4-propan-2-yl-1H-imidazol-2-yl)quinoline-3-carboxylic acid
Formula: C17H17N3O3
Exact mass: 311.12699
SMILES: CC(C)C1(C(=O)NC(=N1)C2=NC3=CC=CC=C3C=C2C(=O)O)C
InChI: InChI=1S/C17H17N3O3/c1-9(2)17(3)16(23)19-14(20-17)13-11(15(21)22)8-10-6-4-5-7-12(10)18-13/h4-9H,1-3H3,(H,21,22)(H,19,20,23)
Instrument: Q Exactive Plus Orbitrap Thermo Scientific
Instrument type: LC-ESI-QFT
Ms type: MS2
Ion mode: POSITIVE
Ionization: ESI
Fragmentation mode: HCD
Collision energy: 120 (nominal)
Resolution: 35000
Column name: XBridge C18 3.5um, 2.1x50mm, Waters
Retention time: 7.0 min
Base peak: 312.1336
Precursor m/z: 312.1343
Precursor type: [M+H]+
m/z	relative intensity	assigned
50.0151	19	C4H2+
51.0229	26	C4H3+
52.0182	2	C3H2N+
53.0022	75	C3HO+
53.0386	29	C4H5+
53.9975	15	C2NO+
54.0101	5	C3H2O+
55.0179	6	C3H3O+
56.0495	127	C3H6N+
58.0652	16	C3H8N+
63.023	6	C5H3+
65.0385	7	C5H5+
66.0464	1	C5H6+
67.0543	21	C5H7+
67.9893	15	C3O2+
69.0699	239	C5H9+
70.0651	184	C4H8N+
71.073	212	C4H9N+
74.015	11	C6H2+
75.0229	246	C6H3+
76.018	2	C5H2N+
76.0307	5	C6H4+
77.0385	84	C6H5+
78.0087	1	C3N3+
78.0338	1	C5H4N+
78.0464	8	C6H6+
79.0179	1	C5H3O+
79.0416	1	C5H5N+
81.0335	2	C5H5O+
86.0964	69	C5H12N+
89.0386	55	C7H5+
90.0464	5	C7H6+
91.0543	129	C7H7+
95.0492	97	C6H7O+
99.023	7	C8H3+
100.0182	11	C7H2N+
100.0307	5	C8H4+
101.0386	201	C8H5+
102.0338	21	C7H4N+
102.0465	38	C8H6+
103.0416	14	C7H5N+
103.0542	20	C8H7+
104.0256	1	C7H4O+
104.0494	1	C7H6N+
105.0335	6	C7H5O+
105.0448	56	C6H5N2+
115.0417	5	C8H5N+
115.0543	71	C9H7+
116.0495	136	C8H6N+
117.0574	12	C8H7N+
118.0414	1	C8H6O+
119.0492	238	C8H7O+
120.0446	6	C7H6NO+
125.0385	2	C10H5+
126.0339	59	C9H4N+
127.0417	357	C9H5N+
128.0495	902	C9H6N+
129.0447	971	C8H5N2+
129.0573	104	C9H7N+
130.029	6	C8H4NO+
130.04	33	C7H4N3+
130.0526	6	C8H6N2+
130.0652	43	C9H8N+
133.0522	2	C8H7NO+
134.0603	5	C8H8NO+
139.0545	1	C11H7+
140.0496	17	C10H6N+
141.0453	1	C9H5N2+
141.0575	2	C10H7N+
142.0525	11	C9H6N2+
142.0652	27	C10H8N+
143.0368	5	C9H5NO+
143.0604	9	C9H7N2+
144.0445	55	C9H6NO+
145.0522	8	C9H7NO+
145.0646	2	C10H9O+
146.0601	999	C9H8NO+
152.0496	9	C11H6N+
152.0622	7	C12H8+
153.0448	928	C10H5N2+
154.04	213	C9H4N3+
154.0526	105	C10H6N2+
154.0651	33	C11H8N+
155.0604	124	C10H7N2+
156.0443	1	C10H6NO+
158.0475	5	C9H6N2O+
160.0757	13	C10H10NO+
161.0472	32	C9H7NO2+
166.0653	2	C12H8N+
167.0603	1	C11H7N2+
167.0731	12	C12H9N+
168.0684	16	C11H8N2+
169.0397	8	C10H5N2O+
169.0647	1	C12H9O+
169.0761	12	C11H9N2+
170.0599	9	C11H8NO+
171.0553	195	C10H7N2O+
174.055	2	C10H8NO2+
178.0652	12	C13H8N+
179.0606	13	C12H7N2+
179.0731	5	C13H9N+
180.0558	1	C11H6N3+
180.0809	13	C13H10N+
181.0397	77	C11H5N2O+
181.051	35	C10H5N4+
181.0759	25	C12H9N2+
182.084	2	C12H10N2+
183.0552	9	C11H7N2O+
185.0711	9	C11H9N2O+
192.0682	2	C13H8N2+
197.0711	52	C12H9N2O+
199.05	2	C11H7N2O2+
204.0814	1	C15H10N+
205.0762	18	C14H9N2+
206.0836	1	C14H10N2+
207.0921	1	C14H11N2+
222.0659	2	C13H8N3O+
233.0706	2	C15H9N2O+
