Mass spectrum: Triclabendazole; LC-ESI-QFT; MS2; CE: 75; R=35000; [M+H]+
Name: Triclabendazole
Name: Triclabendazol
Name: 6-chloro-5-(2,3-dichlorophenoxy)-2-methylsulfanyl-1H-benzimidazole
Formula: C14H9Cl3N2OS
Exact mass: 357.95012
SMILES: CSc1[nH]c2cc(c(cc2n1)Oc3cccc(c3Cl)Cl)Cl
InChI: InChI=1S/C14H9Cl3N2OS/c1-21-14-18-9-5-8(16)12(6-10(9)19-14)20-11-4-2-3-7(15)13(11)17/h2-6H,1H3,(H,18,19)
Instrument: Q Exactive Plus Orbitrap Thermo Scientific
Instrument type: LC-ESI-QFT
Ms type: MS2
Ion mode: POSITIVE
Ionization: ESI
Fragmentation mode: HCD
Collision energy: 75 (nominal)
Resolution: 35000
Column name: XBridge C18 3.5um, 2.1x50mm, Waters
Retention time: 14.2 min
Base peak: 360.954
Precursor m/z: 358.9574
Precursor type: [M+H]+
m/z	relative intensity	assigned
92.0369	1	C5H4N2+
118.0524	1	C7H6N2+
123.9948	1	C6H3ClN+
127.0057	8	C5H4ClN2+
128.956	1	C5H2ClS+
130.0526	1	C8H6N2+
135.0012	2	C6H3N2S+
138.0104	8	C7H5ClN+
139.0057	16	C6H4ClN2+
143.0006	2	C5H4ClN2O+
143.9669	2	C5H3ClNS+
147.0009	1	C7H3N2S+
148.0089	10	C7H4N2S+
152.0136	4	C7H5ClN2+
153.0214	7	C7H6ClN2+
155.9668	11	C6H3ClNS+
157.0508	1	C8H5N4+
163.0324	99	C8H7N2S+
165.0214	106	C8H6ClN2+
166.0291	1	C8H7ClN2+
167.0008	5	C7H4ClN2O+
170.9777	298	C9HNOS+
182.9779	26	C7H4ClN2S+
186.9727	1	C6H4ClN2OS+
188.0259	4	C11H7ClN+
189.01	1	C11H6ClO+
196.9935	26	C8H6ClN2S+
198.0013	32	C8H7ClN2S+
198.9727	337	C7H4ClN2OS+
211.0324	18	C12H7N2S+
213.0215	3	C12H6ClN2+
214.0292	1	C12H7ClN2+
216.0211	7	C12H7ClNO+
218.991	2	C11H6ClNS+
221.0712	2	C14H9N2O+
221.9869	3	C11H6Cl2N+
222.9944	3	C14H4ClO+
229.0165	1	C12H6ClN2O+
229.9912	10	C8H7ClN2O2S+
238.0196	3	C13H6N2OS+
239.0273	55	C13H7N2OS+
241.0162	6	C13H6ClN2O+
242.0241	163	C13H7ClN2O+
244.9935	8	C12H6ClN2S+
245.9773	10	C12H5ClNOS+
246.0012	11	C12H7ClN2S+
248.9973	2	C12H7Cl2N2+
249.982	8	C12H6Cl2NO+
250.9899	155	C12H7Cl2NO+
255.0318	2	C14H8ClN2O+
256.0396	1	C14H9ClN2O+
257.9643	2	C11H7Cl3N+
272.9884	30	C13H6ClN2OS+
273.996	999	C13H7ClN2OS+
274.9775	1	C13H5Cl2N2O+
275.9851	76	C13H6Cl2N2O+
276.9928	22	C13H7Cl2N2O+
280.97	27	C12H7Cl2N2S+
291.0091	3	C14H9Cl2N2O+
307.9571	17	C13H6Cl2N2OS+
308.965	30	C13H7Cl2N2OS+
343.9338	20	C13H7Cl3N2OS+
