Mass spectrum: Ethambutol; LC-ESI-ITFT; MS2; CE: 45%; R=15000; [M+H]+
Name: Ethambutol
Name: (2S)-2-[2-[[(1S)-1-methylolpropyl]amino]ethylamino]butan-1-ol
Formula: C10H24N2O2
Exact mass: 204.1838
SMILES: N([C@@H](CC)CO)CCN[C@@H](CC)CO
InChI: InChI=1S/C10H24N2O2/c1-3-9(7-13)11-5-6-12-10(4-2)8-14/h9-14H,3-8H2,1-2H3/t9-,10-/m0/s1
Instrument: LTQ Orbitrap XL Thermo Scientific
Instrument type: LC-ESI-ITFT
Ms type: MS2
Ion mode: POSITIVE
Ionization: ESI
Fragmentation mode: HCD
Collision energy: 45 % (nominal)
Resolution: 15000
Column name: XBridge C18 3.5um, 2.1x50mm, Waters
Retention time: 9.6 min
Base peak: 149.012
Precursor m/z: 205.1911
Precursor type: [M+H]+
m/z	relative intensity	assigned
116.1069	999	C6H14NO+
