Mass spectrum: Mycophenolic acid; LC-ESI-ITFT; MS2; CE: 35%; R=7500; [M-H]-
Name: Mycophenolic acid
Name: (E)-6-(4-hydroxy-3-keto-6-methoxy-7-methyl-phthalan-5-yl)-4-methyl-hex-4-enoic acid
Formula: C17H20O6
Exact mass: 320.1260
SMILES: c12c(c(c(C\C=C(\CCC(O)=O)C)c(c1C)OC)O)C(=O)OC2
InChI: InChI=1S/C17H20O6/c1-9(5-7-13(18)19)4-6-11-15(20)14-12(8-23-17(14)21)10(2)16(11)22-3/h4,20H,5-8H2,1-3H3,(H,18,19)/b9-4+
Instrument: LTQ Orbitrap XL Thermo Scientific
Instrument type: LC-ESI-ITFT
Ms type: MS2
Ion mode: NEGATIVE
Ionization: ESI
Fragmentation mode: CID
Collision energy: 35 % (nominal)
Resolution: 7500
Column name: XBridge C18 3.5um, 2.1x50mm, Waters
Retention time: 9.6 min
Base peak: 319.1183
Precursor m/z: 319.1187
Precursor type: [M-H]-
m/z	relative intensity	assigned
135.0454	7	C8H7O2-
179.0349	471	C9H7O4-
191.0349	387	C10H7O4-
192.0425	20	C10H8O4-
199.113	11	C14H15O-
207.0659	6	C11H11O4-
215.107	4	C14H15O2-
225.0911	4	C15H13O2-
228.0791	2	C14H12O3-
229.0502	2	C13H9O4-
233.0815	11	C13H13O4-
243.0673	11	C14H11O4-
243.1026	94	C15H15O3-
245.0818	12	C14H13O4-
259.0985	5	C15H15O4-
269.0819	61	C16H13O4-
275.1287	394	C16H19O4-
285.0775	17	C16H13O5-
287.0923	999	C16H15O5-
301.109	12	C17H17O5-
