Mass spectrum: Medazepam; LC-ESI-QFT; MS2; CE: 60; R=35000; [M+H]+
Name: Medazepam
Name: 7-chloranyl-1-methyl-5-phenyl-2,3-dihydro-1,4-benzodiazepine
Formula: C16H15ClN2
Exact mass: 270.09238
SMILES: CN1CCN=C(C2=C1C=CC(=C2)Cl)C3=CC=CC=C3
InChI: InChI=1S/C16H15ClN2/c1-19-10-9-18-16(12-5-3-2-4-6-12)14-11-13(17)7-8-15(14)19/h2-8,11H,9-10H2,1H3
Instrument: Q Exactive Orbitrap Thermo Scientific
Instrument type: LC-ESI-QFT
Ms type: MS2
Ion mode: POSITIVE
Ionization: ESI
Fragmentation mode: HCD
Collision energy: 60 (nominal)
Resolution: 35000
Column name: XBridge C18 3.5um, 2.1x50mm, Waters
Retention time: 6.5 min
Base peak: 271.0999
Precursor m/z: 271.0997
Precursor type: [M+H]+
m/z	relative intensity	assigned
63.0227	1	C5H3+
65.0386	15	C5H5+
79.0542	9	C6H7+
91.0542	999	C7H7+
103.0543	5	C8H7+
105.07	7	C8H9+
106.0651	28	C7H8N+
117.0572	51	C8H7N+
118.0649	9	C8H8N+
120.0806	5	C8H10N+
125.0152	17	C7H6Cl+
130.0651	15	C9H8N+
131.073	40	C9H9N+
132.0807	5	C9H10N+
134.0602	1	C5H11ClN2+
138.0107	1	C7H5ClN+
140.0261	9	C7H7ClN+
145.0761	2	C9H9N2+
150.0103	1	C8H5ClN+
151.0182	2	C8H6ClN+
152.0261	48	C8H7ClN+
153.0339	5	C8H8ClN+
154.0418	11	C8H9ClN+
164.0262	27	C9H7ClN+
165.0214	259	C8H6ClN2+
166.0418	32	C9H9ClN+
166.0777	5	C13H10+
168.0571	2	C9H11ClN+
176.0256	2	C10H7ClN+
178.0775	13	C14H10+
179.037	40	C9H8ClN2+
179.0857	9	C14H11+
180.0448	347	C9H9ClN2+
181.0883	5	C13H11N+
192.0809	7	C14H10N+
193.0526	11	C10H10ClN2+
193.0886	91	C14H11N+
194.0966	16	C14H12N+
195.1041	14	C14H13N+
201.0466	5	C13H10Cl+
204.0806	10	C15H10N+
205.0891	7	C15H11N+
206.0966	57	C15H12N+
207.1043	744	C15H13N+
208.1122	2	C15H14N+
213.0465	7	C14H10Cl+
214.0419	20	C13H9ClN+
216.0574	4	C13H11ClN+
217.0885	1	C16H11N+
218.0965	51	C16H12N+
219.1043	64	C16H13N+
220.0992	1	C15H12N2+
220.1113	1	C16H14N+
221.1072	13	C15H13N2+
226.0421	2	C14H9ClN+
227.0496	57	C14H10ClN+
228.0574	223	C14H11ClN+
230.0732	136	C14H13ClN+
235.123	14	C16H15N2+
236.1315	8	C16H16N2+
239.0503	1	C15H10ClN+
240.0574	6	C15H11ClN+
241.0523	8	C14H10ClN2+
242.073	280	C15H13ClN+
243.0812	13	C15H14ClN+
244.0888	15	C15H15ClN+
252.0573	1	C16H11ClN+
254.0731	130	C16H13ClN+
255.0682	13	C15H12ClN2+
256.0758	7	C15H13ClN2+
269.084	6	C16H14ClN2+
271.0996	384	C16H16ClN2+
