Mass spectrum: Pramoxine; LC-ESI-QFT; MS2; CE: 150; R=35000; [M+H]+
Name: Pramoxine
Name: 4-[3-(4-butoxyphenoxy)propyl]morpholine
Formula: C17H27NO3
Exact mass: 293.19909
SMILES: CCCCOC1=CC=C(C=C1)OCCCN2CCOCC2
InChI: InChI=1S/C17H27NO3/c1-2-3-12-20-16-5-7-17(8-6-16)21-13-4-9-18-10-14-19-15-11-18/h5-8H,2-4,9-15H2,1H3
Instrument: Q Exactive Plus Orbitrap Thermo Scientific
Instrument type: LC-ESI-QFT
Ms type: MS2
Ion mode: POSITIVE
Ionization: ESI
Fragmentation mode: HCD
Collision energy: 150 (nominal)
Resolution: 35000
Column name: XBridge C18 3.5um, 2.1x50mm, Waters
Retention time: 7.3 min
Base peak: 294.206
Precursor m/z: 294.2064
Precursor type: [M+H]+
m/z	relative intensity	assigned
50.0151	11	C4H2+
51.023	46	C4H3+
53.0022	46	C3HO+
53.0386	40	C4H5+
53.9975	15	C2NO+
54.0339	27	C3H4N+
55.0179	78	C3H3O+
55.0416	11	C3H5N+
55.0542	9	C4H7+
56.0495	999	C3H6N+
57.0573	32	C3H7N+
58.0651	85	C3H8N+
65.0386	463	C5H5+
67.0417	8	C4H5N+
67.0542	69	C5H7+
67.9893	9	C3O2+
68.0494	26	C4H6N+
68.9971	32	C3HO2+
69.0335	2	C4H5O+
69.0573	3	C4H7N+
69.0699	7	C5H9+
70.0651	520	C4H8N+
71.0729	8	C4H9N+
72.0444	11	C3H6NO+
72.0808	157	C4H10N+
77.0386	33	C6H5+
79.0542	14	C6H7+
81.0335	64	C5H5O+
82.0413	8	C5H6O+
82.0651	16	C5H8N+
84.0808	12	C5H10N+
85.0522	10	C4H7NO+
86.06	74	C4H8NO+
91.0544	2	C7H7+
94.0413	3	C6H6O+
95.0492	72	C6H7O+
100.0757	405	C5H10NO+
103.0542	7	C8H7+
105.0448	29	C6H5N2+
107.0492	1	C7H7O+
109.0284	2	C6H5O2+
110.0363	12	C6H6O2+
111.0441	12	C6H7O2+
115.0542	2	C9H7+
121.0397	12	C6H5N2O+
123.044	6	C7H7O2+
