Mass spectrum: Levofloxacin; LC-ESI-QFT; MS2; CE: 90; R=35000; [M+H]+
Name: Levofloxacin
Name: (3S)-9-Fluoro-3-methyl-10-(4-methyl-1-piperazinyl)-7-oxo-2,3-dihydro-7H-[1,4]oxazino[2,3,4-ij]quinoline-6-carboxylic acid
Formula: C18H20FN3O4
Exact mass: 361.14378
SMILES: C[C@H]1COc2c3n1cc(c(=O)c3cc(c2N4CCN(CC4)C)F)C(=O)O
InChI: InChI=1S/C18H20FN3O4/c1-10-9-26-17-14-11(16(23)12(18(24)25)8-22(10)14)7-13(19)15(17)21-5-3-20(2)4-6-21/h7-8,10H,3-6,9H2,1-2H3,(H,24,25)/t10-/m0/s1
Instrument: Q Exactive Orbitrap Thermo Scientific
Instrument type: LC-ESI-QFT
Ms type: MS2
Ion mode: POSITIVE
Ionization: ESI
Fragmentation mode: HCD
Collision energy: 90 (nominal)
Resolution: 35000
Column name: XBridge C18 3.5um, 2.1x50mm, Waters
Retention time: 4.3 min
Base peak: 362.1511
Precursor m/z: 362.1511
Precursor type: [M+H]+
m/z	relative intensity	assigned
56.0496	29	C3H6N+
58.0652	568	C3H8N+
70.0651	371	C4H8N+
72.0807	206	C4H10N+
82.0652	46	C5H8N+
102.034	51	C7H4N+
104.0494	153	C7H6N+
115.0541	34	C9H7+
116.0495	91	C8H6N+
120.0446	43	C7H6NO+
122.04	909	C7H5FN+
123.0355	32	C6H4FN2+
123.0478	95	C7H6FN+
128.0498	32	C9H6N+
129.0449	96	C8H5N2+
130.0289	48	C8H4NO+
130.0652	40	C9H8N+
132.0446	54	C8H6NO+
133.0449	32	C9H6F+
134.0599	22	C8H8NO+
136.0557	88	C8H7FN+
137.0507	33	C7H6FN2+
138.035	129	C7H5FNO+
142.0654	28	C10H8N+
143.0606	88	C9H7N2+
144.0446	29	C9H6NO+
145.0395	34	C8H5N2O+
146.0599	89	C9H8NO+
148.0557	137	C9H7FN+
149.0512	53	C8H6FN2+
150.035	722	C8H5FNO+
151.0428	385	C8H6FNO+
152.038	28	C7H5FN2O+
152.0507	39	C8H7FNO+
155.0604	39	C10H7N2+
156.0682	35	C10H8N2+
157.0396	190	C9H5N2O+
157.0761	25	C10H9N2+
158.0236	269	C9H4NO2+
160.039	27	C9H6NO2+
160.0558	259	C10H7FN+
161.0511	44	C9H6FN2+
162.0348	40	C9H5FNO+
162.0585	43	C9H7FN2+
163.0303	44	C8H4FN2O+
163.0428	46	C9H6FNO+
163.0663	24	C9H8FN2+
164.0507	84	C9H7FNO+
165.0458	299	C8H6FN2O+
166.0301	46	C8H5FNO2+
168.0452	25	C8H7FNO2+
171.0551	221	C10H7N2O+
172.0633	30	C10H8N2O+
175.0301	24	C9H4FN2O+
176.0505	50	C10H7FNO+
177.0461	36	C9H6FN2O+
178.0298	407	C9H5FNO2+
178.0537	41	C9H7FN2O+
179.0376	661	C9H6FNO2+
179.0614	137	C9H8FN2O+
180.0451	216	C9H7FNO2+
184.0634	31	C11H8N2O+
185.0346	51	C10H5N2O2+
187.0667	24	C11H8FN2+
188.0504	269	C11H7FNO+
189.0458	53	C10H6FN2O+
190.0538	85	C10H7FN2O+
191.038	106	C10H6FNO2+
191.0616	34	C10H8FN2O+
192.0457	268	C10H7FNO2+
193.0406	421	C9H6FN2O2+
194.0248	126	C9H5FNO3+
194.0485	547	C9H7FN2O2+
194.0611	98	C10H9FNO2+
195.0562	30	C9H8FN2O2+
199.0499	53	C11H7N2O2+
200.0579	44	C11H8N2O2+
201.0578	31	C15H7N+
203.0251	31	C10H4FN2O2+
203.0375	101	C11H6FNO2+
203.061	239	C11H8FN2O+
204.0331	35	C10H5FN2O2+
204.0455	272	C11H7FNO2+
205.0408	999	C10H6FN2O2+
205.0768	100	C11H10FN2O+
206.0487	44	C10H7FN2O2+
207.0562	42	C10H8FN2O2+
217.0406	25	C11H6FN2O2+
218.049	51	C11H7FN2O2+
219.0563	450	C11H8FN2O2+
221.0719	390	C11H10FN2O2+
229.0773	24	C13H10FN2O+
231.0562	160	C12H8FN2O2+
245.0729	34	C13H10FN2O2+
261.1031	96	C14H14FN2O2+
