Mass spectrum: Pendimethalin; LC-ESI-QFT; MS2; CE: 75; R=35000; [M+H]+
Name: Pendimethalin
Name: (3,4-dimethyl-2,6-dinitro-phenyl)-(1-ethylpropyl)amine
Formula: C13H19N3O4
Exact mass: 281.13756
SMILES: [O-][N+](=O)c1c(c(cc([N+]([O-])=O)c1NC(CC)CC)C)C
InChI: InChI=1S/C13H19N3O4/c1-5-10(6-2)14-12-11(15(17)18)7-8(3)9(4)13(12)16(19)20/h7,10,14H,5-6H2,1-4H3
Instrument: Q Exactive Orbitrap Thermo Scientific
Instrument type: LC-ESI-QFT
Ms type: MS2
Ion mode: POSITIVE
Ionization: ESI
Fragmentation mode: HCD
Collision energy: 75 (nominal)
Resolution: 35000
Column name: XBridge C18 3.5um, 2.1x50mm, Waters
Retention time: 16.0 min
Base peak: 212.0667
Precursor m/z: 282.1448
Precursor type: [M+H]+
m/z	relative intensity	assigned
50.0153	18	C4H2+
51.023	8	C4H3+
52.0183	24	C3H2N+
53.0023	32	C3HO+
53.0387	32	C4H5+
53.9976	5	C2NO+
54.0339	6	C3H4N+
56.0496	6	C3H6N+
63.023	64	C5H3+
64.0182	20	C4H2N+
64.0308	65	C5H4+
65.0261	28	C4H3N+
65.0386	450	C5H5+
66.0213	19	C3H2N2+
66.0339	178	C4H4N+
66.0464	183	C5H6+
67.0179	17	C4H3O+
67.0291	25	C3H3N2+
67.0417	122	C4H5N+
67.0543	27	C5H7+
68.0132	24	C3H2NO+
68.0495	60	C4H6N+
69.0083	6	C2HN2O+
69.0335	6	C4H5O+
69.9924	26	C2NO2+
70.0652	4	C4H8N+
71.0855	61	C5H11+
76.0182	38	C5H2N+
76.0307	16	C6H4+
77.026	99	C5H3N+
77.0387	21	C6H5+
78.0339	369	C5H4N+
78.0464	42	C6H6+
79.0291	42	C4H3N2+
79.0417	57	C5H5N+
79.0543	108	C6H7+
80.0495	381	C5H6N+
81.0335	57	C5H5O+
81.0448	6	C4H5N2+
81.0574	60	C5H7N+
82.0289	5	C4H4NO+
82.0413	17	C5H6O+
82.0653	7	C5H8N+
83.0366	4	C4H5NO+
83.0492	7	C5H7O+
84.0446	5	C4H6NO+
89.0385	40	C7H5+
90.0339	115	C6H4N+
90.0464	34	C7H6+
91.0417	923	C6H5N+
91.0543	86	C7H7+
92.0369	63	C5H4N2+
92.0495	780	C6H6N+
93.0085	30	C4HN2O+
93.0334	9	C6H5O+
93.0447	96	C5H5N2+
93.0573	114	C6H7N+
94.0288	69	C5H4NO+
94.0413	26	C6H6O+
94.0525	36	C5H6N2+
94.0651	49	C6H8N+
95.0364	9	C5H5NO+
95.0492	141	C6H7O+
95.0604	27	C5H7N2+
96.0444	141	C5H6NO+
96.057	65	C6H8O+
98.0601	17	C5H8NO+
102.0339	9	C7H4N+
103.0292	38	C6H3N2+
103.0417	369	C7H5N+
104.0369	81	C6H4N2+
104.0495	215	C7H6N+
105.0448	386	C6H5N2+
106.0288	69	C6H4NO+
106.0414	6	C7H6O+
106.0525	56	C6H6N2+
106.0652	81	C7H8N+
107.024	5	C5H3N2O+
107.0366	24	C6H5NO+
107.0605	79	C6H7N2+
108.0444	88	C6H6NO+
108.0681	8	C6H8N2+
109.0396	46	C5H5N2O+
109.0522	79	C6H7NO+
110.0601	144	C6H8NO+
116.0495	37	C8H6N+
117.0448	179	C7H5N2+
117.0574	53	C8H7N+
118.0525	245	C7H6N2+
118.065	116	C8H8N+
119.0604	999	C7H7N2+
120.0194	60	C5H2N3O+
120.0444	211	C7H6NO+
120.0557	33	C6H6N3+
120.0682	143	C7H8N2+
121.0033	9	C5HN2O2+
121.0396	97	C6H5N2O+
121.0521	26	C7H7NO+
121.0638	5	C6H7N3+
121.076	6	C7H9N2+
122.0474	95	C6H6N2O+
122.0601	26	C7H8NO+
123.0552	10	C6H7N2O+
124.0391	7	C6H6NO2+
126.055	59	C6H8NO2+
129.0448	200	C8H5N2+
130.0401	89	C7H4N3+
130.0526	145	C8H6N2+
131.0478	46	C7H5N3+
131.0604	346	C8H7N2+
132.0317	12	C7H4N2O+
132.0556	141	C7H6N3+
133.0396	97	C7H5N2O+
133.0634	33	C7H7N3+
134.0351	5	C6H4N3O+
134.0475	7	C7H6N2O+
134.0602	28	C8H8NO+
134.0713	7	C7H8N3+
135.0553	150	C7H7N2O+
136.0268	9	C6H4N2O2+
136.0394	48	C7H6NO2+
136.0632	18	C7H8N2O+
137.0711	21	C7H9N2O+
138.0299	77	C5H4N3O2+
138.0552	5	C7H8NO2+
145.0396	31	C8H5N2O+
146.0471	7	C8H6N2O+
147.0554	379	C8H7N2O+
148.0509	36	C7H6N3O+
148.0631	727	C8H8N2O+
149.0585	176	C7H7N3O+
149.071	52	C8H9N2O+
150.0427	31	C7H6N2O2+
150.0662	43	C7H8N3O+
151.0502	59	C7H7N2O2+
160.0506	146	C8H6N3O+
162.0299	21	C7H4N3O2+
163.0503	313	C8H7N2O2+
164.0579	38	C8H8N2O2+
165.066	42	C8H9N2O2+
166.061	9	C7H8N3O2+
166.0737	4	C8H10N2O2+
176.0456	74	C8H6N3O2+
177.0534	204	C8H7N3O2+
178.0612	317	C8H8N3O2+
179.0453	37	C8H7N2O3+
194.0561	135	C8H8N3O3+
195.0641	112	C8H9N3O3+
212.0667	7	C8H10N3O4+
