Mass spectrum: Diltiazem; LC-ESI-QFT; MS2; CE: 60; R=35000; [M+H]+
Name: Diltiazem
Name: 1,5-Benzothiazepin-4(5H)-one, 3-(acetyloxy)-5-[2-(dimethylamino)ethyl]-2,3-dihydro-2-(4-methoxyphenyl)-, (2S-cis)-
Name: [5-(2-dimethylaminoethyl)-2-(4-methoxyphenyl)-4-oxidanylidene-2,3-dihydro-1,5-benzothiazepin-3-yl] ethanoate
Formula: C22H26N2O4S
Exact mass: 414.16133
SMILES: CC(=O)OC1C(SC2=CC=CC=C2N(C1=O)CCN(C)C)C3=CC=C(C=C3)OC
InChI: InChI=1S/C22H26N2O4S/c1-15(25)28-20-21(16-9-11-17(27-4)12-10-16)29-19-8-6-5-7-18(19)24(22(20)26)14-13-23(2)3/h5-12,20-21H,13-14H2,1-4H3
Instrument: Q Exactive Orbitrap Thermo Scientific
Instrument type: LC-ESI-QFT
Ms type: MS2
Ion mode: POSITIVE
Ionization: ESI
Fragmentation mode: HCD
Collision energy: 60 (nominal)
Resolution: 35000
Column name: XBridge C18 3.5um, 2.1x50mm, Waters
Retention time: 7.3 min
Base peak: 415.1692
Precursor m/z: 415.1686
Precursor type: [M+H]+
m/z	relative intensity	assigned
58.0652	15	C3H8N+
65.0386	3	C5H5+
70.0652	4	C4H8N+
72.0808	73	C4H10N+
91.0543	2	C7H7+
94.0414	1	C6H6O+
109.0108	122	C6H5S+
109.0649	9	C7H9O+
117.0573	4	C8H7N+
118.0652	7	C8H8N+
121.065	20	C8H9O+
133.0648	1	C9H9O+
136.0217	2	C7H6NS+
137.0599	60	C8H9O2+
146.06	1	C9H8NO+
148.0216	1	C8H6NS+
149.06	4	C9H9O2+
150.0374	652	C8H8NS+
152.0533	1	C8H10NS+
162.0374	2	C9H8NS+
163.0454	1	C9H9NS+
163.076	1	C10H11O2+
164.0165	1	C8H6NOS+
174.0374	10	C10H8NS+
177.0549	1	C10H9O3+
178.0323	999	C9H8NOS+
191.0401	32	C10H9NOS+
192.0481	5	C10H10NOS+
267.0716	1	C16H13NOS+
295.0666	5	C17H13NO2S+
310.0897	17	C18H16NO2S+
328.1003	3	C18H18NO3S+
