Mass spectrum: Efavirenz; LC-ESI-QFT; MS2; CE: 75; R=35000; [M+H]+
Name: Efavirenz
Name: (4S)-6-chloro-4-(2-cyclopropylethynyl)-4-(trifluoromethyl)-1H-3,1-benzoxazin-2-one
Formula: C14H9ClF3NO2
Exact mass: 315.02739
SMILES: C1CC1C#C[C@]2(C3=C(C=CC(=C3)Cl)NC(=O)O2)C(F)(F)F
InChI: InChI=1S/C14H9ClF3NO2/c15-9-3-4-11-10(7-9)13(14(16,17)18,21-12(20)19-11)6-5-8-1-2-8/h3-4,7-8H,1-2H2,(H,19,20)/t13-/m0/s1
Instrument: Q Exactive Orbitrap Thermo Scientific
Instrument type: LC-ESI-QFT
Ms type: MS2
Ion mode: POSITIVE
Ionization: ESI
Fragmentation mode: HCD
Collision energy: 75 (nominal)
Resolution: 35000
Column name: XBridge C18 3.5um, 2.1x50mm, Waters
Retention time: 13.0 min
Base peak: 316.0348
Precursor m/z: 316.0347
Precursor type: [M+H]+
m/z	relative intensity	assigned
50.0153	10	C4H2+
51.0231	10	C4H3+
53.0387	131	C4H5+
77.0197	1	C3H3F2+
89.0383	2	C7H5+
115.0542	19	C9H7+
116.0494	1	C8H6N+
126.0461	2	C10H6+
127.0417	16	C9H5N+
128.0493	15	C9H6N+
129.0574	2	C9H7N+
135.0478	2	C8H6FN+
138.0275	177	C8H4F2+
139.0541	28	C11H7+
140.0494	70	C10H6N+
140.0619	11	C11H8+
141.0698	70	C11H9+
142.0655	2	C10H8N+
144.0371	4	C10H5F+
145.0647	2	C10H9O+
146.04	2	C9H5FN+
146.0596	2	C9H8NO+
146.9999	2	C9H4Cl+
147.0479	3	C9H6FN+
148.0181	3	C11H2N+
149.0384	2	C12H5+
150.0465	3	C12H6+
151.0183	75	C8H6ClN+
151.0353	9	C9H5F2+
152.0492	2	C11H6N+
152.99	15	C8H3ClF+
153.0574	18	C11H7N+
154.0401	2	C9H4N3+
154.0651	10	C11H8N+
157.0258	2	C8H4F3+
157.0522	3	C10H7NO+
158.0343	2	C8H5F3+
158.0398	15	C10H5FN+
159.0475	4	C10H6FN+
159.0804	3	C6H10FN3O+
162.0105	105	C9H5ClN+
162.0274	42	C10H4F2+
163.0229	12	C9H3F2N+
164.026	121	C9H7ClN+
164.0494	18	C12H6N+
165.0385	22	C9H5F2N+
165.0574	21	C12H7N+
166.0652	236	C12H8N+
167.073	999	C12H9N+
168.0807	610	C12H10N+
169.0322	68	C11H4FN+
169.0445	9	C12H6F+
169.076	11	C11H9N2+
170.0525	65	C12H7F+
170.0598	7	C11H8NO+
171.0477	9	C11H6FN+
172.0556	43	C11H7FN+
172.9963	48	C8H4ClF2+
173.0152	10	C11H6Cl+
173.0505	3	C10H6FN2+
174.0105	111	C10H5ClN+
175.0183	83	C10H6ClN+
175.0352	12	C11H5F2+
176.031	31	C10H4F2N+
177.0388	37	C10H5F2N+
177.0573	41	C13H7N+
178.0463	3	C10H6F2N+
178.065	3	C13H8N+
179.0303	2	C10H5F2O+
180.0214	19	C9H7ClNO+
180.9964	8	C11FNO+
182.0167	46	C9H6ClFN+
182.0337	11	C10H5F3+
182.0406	3	C12H5FN+
183.0679	10	C12H9NO+
183.9961	60	C8H4ClFNO+
184.0558	22	C12H7FN+
184.0759	9	C12H10NO+
184.9965	40	C9H4ClF2+
185.0449	59	C9H6F3N+
185.0635	63	C12H8FN+
185.9917	33	C8H3ClF2N+
186.0348	19	C11H5FNO+
187.0556	16	C12H8FO+
188.0259	258	C14H4O+
188.0431	40	C12H6F2+
189.0385	480	C11H5F2N+
190.0054	12	C10H5ClNO+
190.0462	38	C11H6F2N+
192.001	152	C10H4ClFN+
193.0527	3	C13H7NO+
194.06	10	C13H8NO+
195.0479	108	C13H6FN+
196.0557	110	C13H7FN+
197.044	10	C10H6F3N+
197.0634	159	C13H8FN+
198.0116	7	C9H6ClFNO+
198.0525	18	C10H7F3N+
198.0712	19	C13H9FN+
198.9988	2	C9H4ClF2N+
200.0072	36	C9H5ClF2N+
200.0254	18	C12H7ClN+
200.0501	6	C12H7FNO+
201.0338	139	C12H8ClN+
202.042	107	C12H9ClN+
203.054	9	C12H7F2N+
204.0015	46	C11H2F2O2+
204.0216	3	C11H7ClNO+
205.046	2	C12H7F2O+
206.0169	17	C11H6ClFN+
206.0412	53	C11H6F2NO+
208.0369	14	C11H5F3N+
209.0449	50	C11H6F3N+
210.0117	20	C10H6ClFNO+
212.0074	140	C10H5ClF2N+
213.0383	11	C13H5F2N+
214.0463	62	C13H6F2N+
214.0663	3	C13H9FNO+
215.0541	143	C13H7F2N+
216.002	13	C9H5ClF2NO+
216.0371	26	C13H6F2O+
216.062	189	C13H8F2N+
217.0699	19	C13H9F2N+
218.0366	3	C12H9ClNO+
219.0246	17	C12H7ClFN+
220.0323	4	C12H8ClFN+
220.0568	23	C12H8F2NO+
221.0442	2	C12H6F3N+
222.0119	34	C11H6ClFNO+
222.0528	124	C12H7F3N+
222.9993	8	C11H4ClF2N+
224.0073	466	C11H5ClF2N+
225.0028	2	C10H2F3NO2+
228.0206	2	C13H7ClNO+
230.0171	33	
231.0243	4	C13H7ClFN+
232.0139	53	C10H6ClF3N+
232.0325	54	C13H8ClFN+
234.0526	12	C13H7F3N+
234.0722	4	C13H10F2NO+
235.0606	22	C13H8F3N+
236.0683	41	C13H9F3N+
237.0152	85	C12H6ClF2N+
238.0227	4	C12H7ClF2N+
243.0053	2	C14H2F3O+
244.0134	15	C11H6ClF3N+
247.044	12	C13H7F2NO2+
249.0157	3	C13H4F3O2+
250.0229	68	C13H7ClF2N+
256.0134	3	C12H6ClF3N+
