Mass spectrum: Flufenamic acid; LC-ESI-QFT; MS2; CE: 75; R=35000; [M-H]-
Name: Flufenamic acid
Name: Arlef
Name: 2-[3-(trifluoromethyl)anilino]benzoic acid
Formula: C14H10F3NO2
Exact mass: 281.06636
SMILES: C1=CC=C(C(=C1)C(=O)O)NC2=CC=CC(=C2)C(F)(F)F
InChI: InChI=1S/C14H10F3NO2/c15-14(16,17)9-4-3-5-10(8-9)18-12-7-2-1-6-11(12)13(19)20/h1-8,18H,(H,19,20)
Instrument: Q Exactive Orbitrap Thermo Scientific
Instrument type: LC-ESI-QFT
Ms type: MS2
Ion mode: NEGATIVE
Ionization: ESI
Fragmentation mode: HCD
Collision energy: 75 (nominal)
Resolution: 35000
Column name: XBridge C18 3.5um, 2.1x50mm, Waters
Retention time: 14.5 min
Base peak: 280.0593
Precursor m/z: 280.0591
Precursor type: [M-H]-
m/z	relative intensity	assigned
62.9888	20	CFO2-
68.9958	28	CF3-
73.0084	13	C6H-
90.0352	1	C6H4N-
92.0506	35	C6H6N-
102.035	1	C7H4N-
119.018	1	C7H2FN-
120.0255	4	C7H3FN-
133.0271	1	C6H4F3-
140.0315	1	C7H4F2N-
152.0499	1	C11H6N-
160.038	152	C7H5F3N-
166.0662	82	C12H8N-
168.0457	1	C11H6NO-
171.0492	2	C11H6FN-
174.035	9	C13H4N-
176.0505	999	C13H6N-
179.0376	35	C12H5NO-
181.0535	53	C12H7NO-
183.0491	6	C12H6FN-
194.0412	92	C13H5FN-
194.061	7	C13H8NO-
195.0494	3	C13H6FN-
196.0569	69	C13H7FN-
199.044	61	C12H6FNO-
200.0518	17	C12H7FNO-
207.0326	41	C13H5NO2-
214.0475	31	C13H6F2N-
214.0671	4	C13H9FNO-
215.0553	226	C13H7F2N-
216.0631	58	C13H8F2N-
217.0543	5	C12H8FNO2-
227.0389	128	C13H6FNO2-
234.0537	533	C13H7F3N-
236.0693	230	C13H9F3N-
