Mass spectrum: Genistein; LC-ESI-QFT; MS2; CE: 60; R=35000; [M-H]-
Name: Genistein
Name: 5,7-dihydroxy-3-(4-hydroxyphenyl)chromen-4-one
Formula: C15H10O5
Exact mass: 270.05282
SMILES: C1=CC(=CC=C1C2=COC3=CC(=CC(=C3C2=O)O)O)O
InChI: InChI=1S/C15H10O5/c16-9-3-1-8(2-4-9)11-7-20-13-6-10(17)5-12(18)14(13)15(11)19/h1-7,16-18H
Instrument: Q Exactive Plus Orbitrap Thermo Scientific
Instrument type: LC-ESI-QFT
Ms type: MS2
Ion mode: NEGATIVE
Ionization: ESI
Fragmentation mode: HCD
Collision energy: 60 (nominal)
Resolution: 35000
Column name: XBridge C18 3.5um, 2.1x50mm, Waters
Retention time: 7.7 min
Base peak: 269.0453
Precursor m/z: 269.0455
Precursor type: [M-H]-
m/z	relative intensity	assigned
63.0241	221	C5H3-
65.0033	127	C4HO-
67.019	6	C4H3O-
68.9982	5	C3HO2-
75.0241	3	C6H3-
83.0139	22	C4H3O2-
89.0033	30	C6HO-
89.0396	5	C7H5-
91.0189	100	C6H3O-
93.0346	3	C6H5O-
95.0502	2	C6H7O-
105.0346	3	C7H5O-
107.0139	178	C6H3O2-
109.0294	6	C6H5O2-
117.0346	21	C8H5O-
119.0504	4	C8H7O-
123.0452	31	C7H7O2-
127.0553	1	C10H7-
129.0347	4	C9H5O-
130.0423	6	C9H6O-
131.0502	20	C9H7O-
132.0217	42	C8H4O2-
133.0296	535	C8H5O2-
134.0373	5	C8H6O2-
135.0088	58	C7H3O3-
135.0452	118	C8H7O2-
141.0347	8	C10H5O-
141.0708	1	C11H9-
143.0502	14	C10H7O-
145.0295	4	C9H5O2-
145.0659	5	C10H9O-
148.0168	4	C8H4O3-
151.0037	39	C7H3O4-
152.0631	7	C12H8-
153.0192	3	C7H5O4-
153.0711	2	C12H9-
154.0426	6	C11H6O-
155.0503	57	C11H7O-
156.058	19	C11H8O-
157.0295	83	C10H5O2-
157.0659	27	C11H9O-
158.0373	9	C10H6O2-
159.0452	218	C10H7O2-
161.0244	19	C9H5O3-
167.0503	16	C12H7O-
168.0582	14	C12H8O-
169.0659	76	C12H9O-
171.0452	31	C11H7O2-
172.0529	2	C11H8O2-
173.0607	28	C11H9O2-
176.0115	11	C9H4O4-
179.0501	4	C13H7O-
180.0582	124	C13H8O-
181.066	161	C13H9O-
182.0373	31	C12H6O2-
183.0451	155	C12H7O2-
185.0609	10	C12H9O2-
195.0451	23	C13H7O2-
196.053	74	C13H8O2-
197.0608	72	C13H9O2-
198.0323	6	C12H6O3-
199.0401	57	C12H7O3-
200.0481	2	C12H8O3-
201.0558	131	C12H9O3-
207.0454	2	C14H7O2-
208.0532	5	C14H8O2-
210.0323	4	C13H6O3-
211.0402	7	C13H7O3-
212.0478	4	C13H8O3-
213.0558	56	C13H9O3-
223.0401	32	C14H7O3-
224.048	152	C14H8O3-
225.0558	85	C14H9O3-
226.0272	3	C13H6O4-
227.0351	37	C13H7O4-
239.0352	13	C14H7O4-
240.0429	35	C14H8O4-
241.0507	37	C14H9O4-
267.0298	3	C15H7O5-
268.0377	18	C15H8O5-
269.0457	999	C15H9O5-
