Mass spectrum: Phenylbutazone; LC-ESI-QFT; MS2; CE: 60; R=35000; [M-H]-
Name: Phenylbutazone
Name: 4-butyl-1,2-diphenylpyrazolidine-3,5-dione
Formula: C19H20N2O2
Exact mass: 308.15248
SMILES: CCCCC1C(=O)N(N(C1=O)C2=CC=CC=C2)C3=CC=CC=C3
InChI: InChI=1S/C19H20N2O2/c1-2-3-14-17-18(22)20(15-10-6-4-7-11-15)21(19(17)23)16-12-8-5-9-13-16/h4-13,17H,2-3,14H2,1H3
Instrument: Q Exactive Plus Orbitrap Thermo Scientific
Instrument type: LC-ESI-QFT
Ms type: MS2
Ion mode: NEGATIVE
Ionization: ESI
Fragmentation mode: HCD
Collision energy: 60 (nominal)
Resolution: 35000
Column name: XBridge C18 3.5um, 2.1x50mm, Waters
Retention time: 11.2 min
Base peak: 307.1448
Precursor m/z: 307.1452
Precursor type: [M-H]-
m/z	relative intensity	assigned
52.0191	3	C3H2N-
67.0553	1	C5H7-
77.0397	4	C6H5-
80.0268	5	C5H4O-
80.0506	40	C5H6N-
82.0662	72	C5H8N-
83.0499	2	C5H7O-
92.0506	999	C6H6N-
93.0344	3	C6H5O-
94.0661	4	C6H8N-
95.0502	113	C6H7O-
102.0349	5	C7H4N-
116.0506	7	C8H6N-
118.03	3	C7H4NO-
118.0663	18	C8H8N-
120.0453	3	C7H6NO-
121.0293	5	C7H5O2-
131.0377	820	C8H5NO-
132.0455	23	C8H6NO-
132.0818	29	C9H10N-
142.0662	6	C10H8N-
144.0455	42	C9H6NO-
155.0742	96	C11H9N-
156.0818	8	C11H10N-
157.0533	97	C10H7NO-
158.0975	88	C11H12N-
160.1132	72	C11H14N-
161.0969	1	C11H13O-
166.0662	4	C12H8N-
168.0819	107	C12H10N-
170.0975	172	C12H12N-
171.0687	3	C11H9NO-
176.1081	7	C11H14NO-
186.0562	1	C11H8NO2-
186.0922	10	C12H12NO-
187.0513	32	C10H7N2O2-
188.1081	44	C12H14NO-
193.0769	1	C13H9N2-
204.103	4	C12H14NO2-
206.0847	10	C14H10N2-
209.0719	1	C13H9N2O-
279.1503	16	C18H19N2O-
307.1445	1	C19H19N2O2-
