Mass spectrum: Fluazifop; LC-ESI-ITFT; MS2; CE: 45%; R=15000; [M+H]+
Name: Fluazifop
Name: 2-[4-[5-(trifluoromethyl)pyridin-2-yl]oxyphenoxy]propanoic acid
Formula: C15H12F3NO4
Exact mass: 327.0724
SMILES: CC(C(=O)O)OC1=CC=C(C=C1)OC2=NC=C(C=C2)C(F)(F)F
InChI: InChI=1S/C15H12F3NO4/c1-9(14(20)21)22-11-3-5-12(6-4-11)23-13-7-2-10(8-19-13)15(16,17)18/h2-9H,1H3,(H,20,21)
Instrument: LTQ Orbitrap XL Thermo Scientific
Instrument type: LC-ESI-ITFT
Ms type: MS2
Ion mode: POSITIVE
Ionization: ESI
Fragmentation mode: HCD
Collision energy: 45 % (nominal)
Resolution: 15000
Column name: XBridge C18 3.5um, 2.1x50mm, Waters
Retention time: 10.9 min
Base peak: 328.0794
Precursor m/z: 328.0791
Precursor type: [M+H]+
m/z	relative intensity	assigned
65.0385	22	C5H5+
91.0542	403	C7H7+
93.0336	10	C6H5O+
119.0491	80	C8H7O+
121.0284	29	C7H5O2+
147.0288	6	C6H4F3N+
163.0247	5	C6H4F3NO+
164.0317	22	C6H5F3NO+
179.0187	15	C6H4F3NO2+
213.0784	12	C13H11NO2+
226.0469	5	C11H7F3NO+
226.0839	21	C12H11F3N+
227.0551	116	C11H8F3NO+
236.068	9	C13H9F3N+
238.0473	226	C12H7F3NO+
240.0619	7	C15H8F2N+
254.0424	226	C12H7F3NO2+
254.0786	432	C13H11F3NO+
255.05	432	C12H8F3NO2+
256.0578	335	C12H9F3NO2+
264.0624	10	C14H9F3NO+
282.0736	999	C14H11F3NO2+
328.0789	105	C15H13F3NO4+
