Mass spectrum: Metribuzin-desamino; LC-ESI-QFT; MS2; CE: 180; R=35000; [M+H]+
Name: Metribuzin-desamino
Name: Deaminometribuzin
Name: 6-tert-butyl-3-(methylthio)-2H-1,2,4-triazin-5-one
Formula: C8H13N3OS
Exact mass: 199.27332
SMILES: CC(C)(C)C1=NNC(=NC1=O)SC
InChI: InChI=1S/C8H13N3OS/c1-8(2,3)5-6(12)9-7(13-4)11-10-5/h1-4H3,(H,9,11,12)
Instrument: Q Exactive Plus Orbitrap Thermo Scientific
Instrument type: LC-ESI-QFT
Ms type: MS2
Ion mode: POSITIVE
Ionization: ESI
Fragmentation mode: HCD
Collision energy: 180 (nominal)
Resolution: 35000
Column name: XBridge C18 3.5um, 2.1x50mm, Waters
Retention time: 7.3 min
Base peak: 200.085
Precursor m/z: 200.0852
Precursor type: [M+H]+
m/z	relative intensity	assigned
52.0181	16	C3H2N+
53.0022	267	C3HO+
53.0386	116	C4H5+
53.9975	119	C2NO+
54.0338	276	C3H4N+
55.029	32	C2H3N2+
55.0541	36	C4H7+
56.0495	122	C3H6N+
57.0573	12	
57.0699	228	C4H9+
57.9746	17	CNS+
58.9824	236	CHNS+
59.9664	78	COS+
59.9903	422	CH2NS+
61.0106	12	C2H5S+
62.0059	392	CH4NS+
66.0338	54	C4H4N+
67.029	38	C3H3N2+
67.0417	130	C4H5N+
67.9893	53	C3O2+
68.0243	110	C2H2N3+
68.0369	72	
68.0495	510	C4H6N+
69.0083	155	C2HN2O+
69.0447	110	C3H5N2+
69.0572	34	C4H7N+
70.0399	44	C2H4N3+
70.9949	10	
71.9903	125	C2H2NS+
73.9933	741	CH2N2S+
74.0059	999	C2H4NS+
75.0011	15	CH3N2S+
78.0086	10	C3N3+
80.0493	15	C5H6N+
81.0447	14	C4H5N2+
82.0525	57	C4H6N2+
83.0603	272	C4H7N2+
84.0682	38	C4H8N2+
84.9855	67	C2HN2S+
85.9696	51	C2NOS+
87.001	6	C2H3N2S+
89.0168	97	C2H5N2S+
98.0058	9	C4H4NS+
101.0042	566	C2H3N3S+
108.0555	31	C5H6N3+
110.0713	9	C5H8N3+
112.0214	27	C5H6NS+
115.0199	33	C3H5N3S+
116.0276	8	C3H6N3S+
126.0121	15	C4H4N3S+
127.0199	71	C4H5N3S+
140.0277	73	C5H6N3S+
141.0356	130	C5H7N3S+
142.0435	33	C5H8N3S+
156.059	23	C6H10N3S+
