Mass spectrum: 7-amino-flunitrazepam; LC-ESI-QFT; MS2; CE: 180; R=35000; [M+H]+
Name: 7-amino-flunitrazepam
Name: 7-aminoflunitrazepam
Name: 7-amino-5-(2-fluorophenyl)-1-methyl-3H-1,4-benzodiazepin-2-one
Formula: C16H14FN3O
Exact mass: 283.11209
SMILES: CN1C(=O)CN=C(C2=C1C=CC(=C2)N)C3=CC=CC=C3F
InChI: InChI=1S/C16H14FN3O/c1-20-14-7-6-10(18)8-12(14)16(19-9-15(20)21)11-4-2-3-5-13(11)17/h2-8H,9,18H2,1H3
Instrument: Q Exactive Plus Orbitrap Thermo Scientific
Instrument type: LC-ESI-QFT
Ms type: MS2
Ion mode: POSITIVE
Ionization: ESI
Fragmentation mode: HCD
Collision energy: 180 (nominal)
Resolution: 35000
Column name: XBridge C18 3.5um, 2.1x50mm, Waters
Retention time: 4.9 min
Base peak: 284.1182
Precursor m/z: 284.1194
Precursor type: [M+H]+
m/z	relative intensity	assigned
50.015	350	C4H2+
51.0228	365	C4H3+
52.0181	80	C3H2N+
52.0307	22	C4H4+
53.0021	41	C3HO+
53.0385	259	C4H5+
54.0337	132	C3H4N+
55.0178	16	C3H3O+
56.0494	11	C3H6N+
57.0134	161	C3H2F+
58.0286	14	C2H4NO+
59.0291	19	C3H4F+
61.0072	26	FN3+
62.015	116	FHN3+
63.0228	973	FH2N3+
64.018	84	C4H2N+
64.0306	38	FH3N3+
65.0385	999	FH4N3+
66.0337	32	C4H4N+
66.0463	572	FH5N3+
67.0415	133	C4H5N+
67.0542	25	C5H7+
68.0494	37	C4H6N+
74.0149	232	CHFN3+
75.0227	644	CH2FN3+
76.018	173	C5H2N+
76.0306	48	CH3FN3+
77.0384	457	CH4FN3+
78.0337	183	C5H4N+
78.0462	126	CH5FN3+
79.0289	21	C4H3N2+
79.0415	29	C5H5N+
79.054	125	CH6FN3+
80.0493	152	C5H6N+
81.0133	52	C5H2F+
81.0334	21	FH4N3O+
81.0446	53	C4H5N2+
81.057	4	C5H7N+
82.0524	5	C4H6N2+
83.029	282	C5H4F+
86.015	32	C2HFN3+
87.0227	85	C2H2FN3+
88.018	43	C6H2N+
88.0305	34	C2H3FN3+
89.0384	525	C2H4FN3+
90.0337	248	C6H4N+
90.0463	55	C2H5FN3+
91.0415	105	C6H5N+
91.0541	77	C2H6FN3+
92.0493	382	C6H6N+
93.0572	605	C6H7N+
94.0649	24	C6H8N+
95.049	660	CH6FN3O+
96.0368	17	C6H5F+
96.0442	98	C5H6NO+
98.0149	54	
99.0227	155	C3H2FN3+
100.0179	30	C7H2N+
100.0306	15	
101.0385	23	C3H4FN3+
102.0336	102	C7H4N+
102.0463	38	C3H5FN3+
103.054	6	C3H6FN3+
104.0493	451	C7H6N+
105.0446	538	C6H5N2+
106.0649	297	C7H8N+
107.0289	196	C7H4F+
108.0368	18	C7H5F+
108.0441	23	C6H6NO+
109.0447	50	C7H6F+
110.0148	15	
110.0599	22	C6H8NO+
111.0227	20	C4H2FN3+
113.0384	160	C4H4FN3+
114.0337	53	C8H4N+
114.0461	25	C4H5FN3+
115.0415	15	C8H5N+
115.054	143	C4H6FN3+
116.0367	4	C7H4N2+
116.0493	42	C8H6N+
117.0445	43	C7H5N2+
117.0571	41	C8H7N+
118.0523	40	C7H6N2+
119.0602	123	C7H7N2+
120.0369	46	C8H5F+
120.0439	26	C7H6NO+
122.0149	21	
122.0399	8	C7H5FN+
123.0226	86	C5H2FN3+
123.0351	27	C6H4FN2+
124.018	19	
125.0384	121	C5H4FN3+
126.0337	8	C9H4N+
126.0462	119	C5H5FN3+
127.0415	13	C9H5N+
127.054	40	C5H6FN3+
128.0493	24	C9H6N+
128.0619	8	C5H7FN3+
129.0444	51	C8H5N2+
130.0398	94	C7H4N3+
131.029	56	C9H4F+
131.0602	63	C8H7N2+
132.0367	16	
132.0681	19	C8H8N2+
133.0445	264	C9H6F+
134.0399	7	C8H5FN+
135.0476	4	C8H6FN+
135.0551	13	C7H7N2O+
137.0383	110	C6H4FN3+
138.0337	37	C10H4N+
138.0461	54	C6H5FN3+
139.054	357	C6H6FN3+
140.0492	245	C10H6N+
140.0616	14	C6H7FN3+
141.0569	4	C10H7N+
143.049	16	C5H6FN3O+
144.0368	60	C10H5F+
144.0554	13	C8H6N3+
145.0446	20	C10H6F+
145.0647	13	C5H8FN3O+
146.0524	53	C10H7F+
146.0583	4	C7H6N4+
146.0603	4	C9H8NO+
147.0549	3	C8H7N2O+
148.0306	4	C7H3FN3+
149.0384	116	C7H4FN3+
150.0462	392	C7H5FN3+
151.0417	24	C11H5N+
151.054	77	C7H6FN3+
152.0494	30	C11H6N+
152.0618	234	C7H7FN3+
153.0446	22	C10H5N2+
153.0571	18	C11H7N+
154.0396	7	C9H4N3+
154.0648	6	C11H8N+
155.06	41	C10H7N2+
156.0369	8	C11H5F+
156.0564	3	C6H7FN3O+
157.0446	230	C11H6F+
158.0399	57	C10H5FN+
159.0604	6	C11H8F+
161.0384	46	
162.046	51	C8H5FN3+
163.0417	16	C12H5N+
163.054	216	C8H6FN3+
164.0492	300	C12H6N+
164.062	18	
165.0446	23	C11H5N2+
165.0573	29	C12H7N+
165.0697	17	C8H8FN3+
166.0649	86	C12H8N+
167.0489	19	C7H6FN3O+
167.0729	35	C12H9N+
168.0367	98	C12H5F+
168.0438	7	C11H6NO+
169.0445	20	C12H6F+
169.0645	199	C7H8FN3O+
170.0524	306	C12H7F+
170.0595	22	C11H8NO+
171.0476	6	C11H6FN+
171.0603	12	C12H8F+
172.0554	7	C11H7FN+
173.0507	32	C10H6FN2+
174.0462	12	C9H5FN3+
175.0413	93	C13H5N+
176.0494	19	C13H6N+
177.045	12	C12H5N2+
177.0569	126	C13H7N+
178.0649	54	C13H8N+
179.0601	79	C12H7N2+
179.0724	4	C13H9N+
180.0364	24	
180.0558	7	C11H6N3+
180.0805	5	C13H10N+
181.0445	292	C13H6F+
182.0399	21	C12H5FN+
182.0522	34	C13H7F+
183.0602	77	C13H8F+
184.0554	66	C12H7FN+
185.0631	23	C12H8FN+
186.0472	6	C12H7FO+
187.0551	69	C12H8FO+
188.0492	62	C14H6N+
189.0446	16	C13H5N2+
189.057	19	C14H7N+
190.0647	36	C14H8N+
191.0601	50	C13H7N2+
192.0678	67	C13H8N2+
194.0598	42	C13H8NO+
195.0476	60	C13H6FN+
196.0557	31	C13H7FN+
196.0759	4	C13H10NO+
197.0505	42	C12H6FN2+
197.0634	4	C13H8FN+
198.0713	17	C13H9FN+
201.0577	3	C15H7N+
202.0523	16	C14H6N2+
203.0602	21	C14H7N2+
204.0558	26	C13H6N3+
204.0676	7	C14H8N2+
205.0757	21	C14H9N2+
207.0482	13	C14H6FN+
208.0555	30	C14H7FN+
209.0633	6	C14H8FN+
210.0585	14	C13H7FN2+
212.0505	5	C13H7FNO+
217.0632	5	C14H7N3+
218.0717	3	C14H8N3+
222.0463	4	C13H5FN3+
223.0666	17	C14H8FN2+
