Mass spectrum: Bensulfuron-Methyl; LC-ESI-QFT; MS2; CE: 60%; R=17500; [M+H]+
Name: Bensulfuron-Methyl
Name: methyl 2-[(4,6-dimethoxypyrimidin-2-yl)carbamoylsulfamoylmethyl]benzoate
Formula: C16H18N4O7S
Exact mass: 410.0896
SMILES: COC1=CC(=NC(=N1)NC(=O)NS(=O)(=O)CC2=CC=CC=C2C(=O)OC)OC
InChI: InChI=1S/C16H18N4O7S/c1-25-12-8-13(26-2)18-15(17-12)19-16(22)20-28(23,24)9-10-6-4-5-7-11(10)14(21)27-3/h4-8H,9H2,1-3H3,(H2,17,18,19,20,22)
Instrument: Exploris 240 Orbitrap Thermo Scientific
Instrument type: LC-ESI-QFT
Ms type: MS2
Ion mode: POSITIVE
Ionization: ESI
Fragmentation mode: HCD
Collision energy: 60 % (nominal)
Resolution: 17500
Column name: XBridge C18 3.5um, 2.1x50mm, Waters
Retention time: 7.850 min
Base peak: 411.0967
Precursor m/z: 411.0969
Precursor type: [M+H]+
m/z	relative intensity	assigned
83.024	131	C3H3N2O+
91.0542	238	C7H7+
100.0392	50	C4H6NO2+
106.0415	6	C7H6O+
109.0648	17	C7H9O+
119.0492	600	C8H7O+
119.0601	40	C7H7N2+
134.0598	19	C8H8NO+
139.05	82	C6H7N2O2+
149.0597	999	C9H9O2+
156.0765	105	C6H10N3O2+
157.0609	54	C6H9N2O3+
182.0561	381	C7H8N3O3+
