Mass spectrum: Phenobarbital; LC-ESI-QFT; MS2; CE: 15; R=35000; [M+H]+
Name: Phenobarbital
Name: 5-ethyl-5-phenyl-1,3-diazinane-2,4,6-trione
Formula: C12H12N2O3
Exact mass: 232.08479
SMILES: CCC1(C(=O)NC(=O)NC1=O)C2=CC=CC=C2
InChI: InChI=1S/C12H12N2O3/c1-2-12(8-6-4-3-5-7-8)9(15)13-11(17)14-10(12)16/h3-7H,2H2,1H3,(H2,13,14,15,16,17)
Instrument: Q Exactive Plus Orbitrap Thermo Scientific
Instrument type: LC-ESI-QFT
Ms type: MS2
Ion mode: POSITIVE
Ionization: ESI
Fragmentation mode: HCD
Collision energy: 15 (nominal)
Resolution: 35000
Column name: XBridge C18 3.5um, 2.1x50mm, Waters
Retention time: 6.0 min
Base peak: 251.1845
Precursor m/z: 233.0921
Precursor type: [M+H]+
m/z	relative intensity	assigned
55.0541	2	C4H7+
57.0334	17	C3H5O+
57.0697	8	C4H9+
59.0491	62	C3H7O+
61.0396	1	CH5N2O+
69.0697	6	C5H9+
71.0489	1	C4H7O+
71.0854	1	C5H11+
73.0646	1	C4H9O+
81.0698	2	C6H9+
83.0854	5	C6H11+
84.0807	9	C5H10N+
87.0553	8	C3H7N2O+
91.0541	12	C7H7+
93.0699	1	C7H9+
95.0854	2	C7H11+
99.0439	10	C5H7O2+
99.0803	12	C6H11O+
101.0597	14	C5H9O2+
105.0334	94	C7H5O+
109.1012	2	C8H13+
111.0442	2	C6H7O2+
111.0802	2	C7H11O+
115.0137	1	C3H3N2O3+
115.0752	7	C6H11O2+
117.0696	11	C9H9+
117.0908	14	C6H13O2+
119.0854	50	C9H11+
121.1013	1	C9H13+
126.0911	5	C7H12NO+
131.0856	2	C10H11+
133.0522	1	C8H7NO+
134.0962	8	C9H12N+
135.08	1	C9H11O+
137.0959	1	C9H13O+
139.0179	1	C10H3O+
144.0805	2	C10H10N+
145.0647	45	C10H9O+
147.0802	8	C10H11O+
159.0805	1	C11H11O+
162.0912	423	C10H12NO+
169.0966	10	C8H13N2O2+
172.0754	28	C11H10NO+
173.0959	2	C12H13O+
177.0657	246	C9H9N2O2+
187.0751	1	C12H11O2+
188.07	1	C11H10NO2+
189.066	2	C10H9N2O2+
190.086	26	C11H12NO2+
205.0607	61	C10H9N2O3+
205.097	33	C11H13N2O2+
215.0814	41	C12H11N2O2+
233.0919	999	C12H13N2O3+
