Mass spectrum: Chloridazon; LC-ESI-ITFT; MS2; CE: 35%; R=30000; [M-H]-
Name: Chloridazon
Name: 5-amino-4-chloro-2-phenyl-3-pyridazinone
Formula: C10H8ClN3O
Exact mass: 221.0350
SMILES: ClC(=C(N)C=N1)C(=O)N1-c(ccc2)cc2
InChI: InChI=1S/C10H8ClN3O/c11-9-8(12)6-13-14(10(9)15)7-4-2-1-3-5-7/h1-6H,12H2
Instrument: LTQ Orbitrap XL Thermo Scientific
Instrument type: LC-ESI-ITFT
Ms type: MS2
Ion mode: NEGATIVE
Ionization: ESI
Fragmentation mode: CID
Collision energy: 35 % (nominal)
Resolution: 30000
Column name: XBridge C18 3.5um, 2.1x50mm, Waters
Retention time: 5.2 min
Base peak: 220.0281
Precursor m/z: 220.0283
Precursor type: [M-H]-
m/z	relative intensity	assigned
65.0145	448	C3HN2-
73.9802	999	C2HClN-
74.9643	68	C2ClO-
100.9673	575	C3ClNO-
100.9912	645	C3H2ClN2-
117.0457	190	C7H5N2-
126.9701	294	C4ClN2O-
144.0568	367	C8H6N3-
150.0114	832	C8H5ClN-
177.0222	62	C9H6ClN2-
184.0516	916	C10H6N3O-
193.0171	157	C9H6ClN2O-
