Mass spectrum: Flocoumafen; LC-ESI-QFT; MS2; CE: 120%; R=17500; [M-H]-
Name: Flocoumafen
Name: 4-hydroxy-3-[3-[4-[[4-(trifluoromethyl)phenyl]methoxy]phenyl]-1,2,3,4-tetrahydronaphthalen-1-yl]chromen-2-one
Formula: C33H25F3O4
Exact mass: 542.1705
SMILES: C1C(CC2=CC=CC=C2C1C3=C(C4=CC=CC=C4OC3=O)O)C5=CC=C(C=C5)OCC6=CC=C(C=C6)C(F)(F)F
InChI: InChI=1S/C33H25F3O4/c34-33(35,36)24-13-9-20(10-14-24)19-39-25-15-11-21(12-16-25)23-17-22-5-1-2-6-26(22)28(18-23)30-31(37)27-7-3-4-8-29(27)40-32(30)38/h1-16,23,28,37H,17-19H2
Instrument: Exploris 240 Orbitrap Thermo Scientific
Instrument type: LC-ESI-QFT
Ms type: MS2
Ion mode: NEGATIVE
Ionization: ESI
Fragmentation mode: HCD
Collision energy: 120 % (nominal)
Resolution: 17500
Column name: XBridge C18 3.5um, 2.1x50mm, Waters
Retention time: 15.818 min
Base peak: 541.1631
Precursor m/z: 541.1632
Precursor type: [M-H]-
m/z	relative intensity	assigned
65.0396	22	C5H5-
92.0268	23	C6H4O-
93.0346	414	C6H5O-
115.0553	189	C9H7-
117.0346	999	C8H5O-
119.0501	58	C8H7O-
143.0502	164	C10H7O-
161.0246	24	C9H5O3-
167.0501	25	C12H7O-
171.0453	11	C11H7O2-
206.0735	21	C15H10O-
219.0816	79	C16H11O-
230.0738	14	C17H10O-
