Mass spectrum: Alanycarb; LC-ESI-QFT; MS2; CE: 15; R=35000; [M+H]+
Name: Alanycarb
Name: 5-Oxa-2,8-dithia-4,7,9-triazadodec-3-en-12-oic acid, 3,7-dimethyl-6-oxo-9-(phenylmethyl)-, ethyl ester, (Z)-
Name: 3-[[[methyl-[[(Z)-1-(methylthio)ethylideneamino]oxy-oxomethyl]amino]thio]-(phenylmethyl)amino]propanoic acid ethyl ester
Formula: C17H25N3O4S2
Exact mass: 399.12865
SMILES: O=C(OCC)CCN(SN(C(=O)O\N=C(/SC)C)C)Cc1ccccc1
InChI: InChI=1S/C17H25N3O4S2/c1-5-23-16(21)11-12-20(13-15-9-7-6-8-10-15)26-19(3)17(22)24-18-14(2)25-4/h6-10H,5,11-13H2,1-4H3/b18-14-
Instrument: Q Exactive Orbitrap Thermo Scientific
Instrument type: LC-ESI-QFT
Ms type: MS2
Ion mode: POSITIVE
Ionization: ESI
Fragmentation mode: HCD
Collision energy: 15 (nominal)
Resolution: 35000
Column name: XBridge C18 3.5um, 2.1x50mm, Waters
Retention time: 12.8 min
Base peak: 238.0897
Precursor m/z: 400.1359
Precursor type: [M+H]+
m/z	relative intensity	assigned
65.0056	1	CH5OS+
73.0282	10	C3H5O2+
88.0215	5	C3H6NS+
91.0542	191	C7H7+
94.962	1	CH3OS2+
101.0597	30	C5H9O2+
106.0321	2	C3H8NOS+
106.0651	3	C7H8N+
107.9937	3	C2H6NS2+
115.0542	1	C9H7+
116.0706	10	C5H10NO2+
117.0699	2	C9H9+
123.0262	30	C7H7S+
135.9886	10	C3H6NOS2+
136.0209	1	C7H6NS+
138.0372	198	C7H8NS+
145.1012	2	C11H13+
150.0373	116	C8H8NS+
164.0527	3	C9H10NS+
189.0912	8	C12H13O2+
192.0477	48	C10H10NOS+
206.1176	45	C12H16NO2+
208.1332	60	C12H18NO2+
209.063	3	C11H13O2S+
210.0584	3	C10H12NO2S+
238.0896	999	C12H16NO2S+
