Mass spectrum: Maprotiline; LC-ESI-QFT; MS2; CE: 75; R=35000; [M+H]+
Name: Maprotiline
Formula: C20H23N
Exact mass: 277.18305
SMILES: CNCCCC12CCC(C3=CC=CC=C31)C4=CC=CC=C24
InChI: InChI=1S/C20H23N/c1-21-14-6-12-20-13-11-15(16-7-2-4-9-18(16)20)17-8-3-5-10-19(17)20/h2-5,7-10,15,21H,6,11-14H2,1H3
Instrument: Q Exactive Orbitrap Thermo Scientific
Instrument type: LC-ESI-QFT
Ms type: MS2
Ion mode: POSITIVE
Ionization: ESI
Fragmentation mode: HCD
Collision energy: 75 (nominal)
Resolution: 35000
Column name: XBridge C18 3.5um, 2.1x50mm, Waters
Retention time: 8.5 min
Base peak: 278.1906
Precursor m/z: 278.1903
Precursor type: [M+H]+
m/z	relative intensity	assigned
58.0652	1	C3H8N+
65.0386	9	C5H5+
69.0698	1	C5H9+
70.0651	27	C4H8N+
72.0807	13	C4H10N+
79.0543	5	C6H7+
91.0542	418	C7H7+
95.0492	1	C6H7O+
103.0542	5	C8H7+
105.0699	27	C8H9+
115.0542	112	C9H7+
116.062	9	C9H8+
117.0699	378	C9H9+
119.0854	5	C9H11+
127.0542	1	C10H7+
128.062	46	C10H8+
129.0698	46	C10H9+
131.0856	106	C10H11+
141.0698	201	C11H9+
143.0856	24	C11H11+
145.0649	4	C10H9O+
152.0618	1	C12H8+
153.0699	4	C12H9+
154.0777	19	C12H10+
155.0603	7	C10H7N2+
155.0855	13	C12H11+
165.07	15	C13H9+
167.0854	3	C13H11+
169.1012	26	C13H13+
176.0615	2	C14H8+
177.0695	1	C14H9+
178.0777	579	C14H10+
179.0855	51	C14H11+
189.0699	21	C15H9+
190.0778	55	C15H10+
191.0855	999	C15H11+
192.0931	3	C15H12+
193.1012	45	C15H13+
202.0776	18	C16H10+
203.0854	86	C16H11+
204.0935	249	C16H12+
205.1012	40	C16H13+
206.1097	1	C16H14+
216.0938	1	C17H12+
217.1012	28	C17H13+
218.1091	24	C17H14+
219.1169	185	C17H15+
232.125	1	C18H16+
250.159	12	C18H20N+
