Mass spectrum: 4-Chlorobenzophenone; LC-ESI-QFT; MS2; CE: 180; R=35000; [M+H]+
Name: 4-Chlorobenzophenone
Name: 4-Chlorobenzophenon
Name: (4-chlorophenyl)-phenylmethanone
Formula: C13H9ClO
Exact mass: 216.03419
SMILES: C1=CC=C(C=C1)C(=O)C2=CC=C(C=C2)Cl
InChI: InChI=1S/C13H9ClO/c14-12-8-6-11(7-9-12)13(15)10-4-2-1-3-5-10/h1-9H
Instrument: Q Exactive Plus Orbitrap Thermo Scientific
Instrument type: LC-ESI-QFT
Ms type: MS2
Ion mode: POSITIVE
Ionization: ESI
Fragmentation mode: HCD
Collision energy: 180 (nominal)
Resolution: 35000
Column name: XBridge C18 3.5um, 2.1x50mm, Waters
Retention time: 12.2 min
Base peak: 217.0415
Precursor m/z: 217.0415
Precursor type: [M+H]+
m/z	relative intensity	assigned
50.0151	155	C4H2+
51.023	81	C4H3+
53.0022	21	C3HO+
53.0386	19	C4H5+
55.0179	1	C3H3O+
60.984	12	C2H2Cl+
61.0072	3	C5H+
63.0229	2	C5H3+
65.0022	13	C4HO+
65.0386	5	C5H5+
66.01	3	C4H2O+
73.0072	1	C6H+
74.0151	618	C6H2+
75.0229	999	C6H3+
76.0307	36	C6H4+
77.0385	69	C6H5+
81.0336	2	C5H5O+
84.984	145	C4H2Cl+
86.9997	4	C4H4Cl+
89.0022	5	C6HO+
94.0413	1	C6H6O+
95.0492	77	C6H7O+
105.0448	43	C6H5N2+
110.9996	26	C6H4Cl+
111.0441	2	C6H7O2+
129.0102	23	C6H6ClO+
139.0058	45	C6H4ClN2+
