Mass spectrum: Florfenicol; LC-ESI-QFT; MS2; CE: 150; R=35000; [M+H]+
Name: Florfenicol
Name: 2,2-dichloro-N-{3-fluoro-1-hydroxy-1-[4-(methylsulfonyl)phenyl]propan-2-yl}acetamide
Name: 2,2-dichloro-N-[3-fluoro-1-hydroxy-1-(4-methylsulfonylphenyl)propan-2-yl]acetamide
Formula: C12H14Cl2FNO4S
Exact mass: 357.00046
SMILES: CS(=O)(=O)C1=CC=C(C=C1)C(C(CF)NC(=O)C(Cl)Cl)O
InChI: InChI=1S/C12H14Cl2FNO4S/c1-21(19,20)8-4-2-7(3-5-8)10(17)9(6-15)16-12(18)11(13)14/h2-5,9-11,17H,6H2,1H3,(H,16,18)
Instrument: Q Exactive Plus Orbitrap Thermo Scientific
Instrument type: LC-ESI-QFT
Ms type: MS2
Ion mode: POSITIVE
Ionization: ESI
Fragmentation mode: HCD
Collision energy: 150 (nominal)
Resolution: 35000
Column name: XBridge C18 3.5um, 2.1x50mm, Waters
Retention time: 4.6 min
Base peak: 390.0331
Precursor m/z: 358.0077
Precursor type: [M+H]+
m/z	relative intensity	assigned
50.0151	41	C4H2+
51.0229	23	C4H3+
52.0182	3	C3H2N+
53.0386	183	C4H5+
54.0339	1	C3H4N+
55.0179	13	C3H3O+
57.0135	4	C3H2F+
60.0244	6	C2H3FN+
61.0073	3	C5H+
62.0151	9	C5H2+
63.0229	50	C5H3+
64.0307	1	C5H4+
65.0386	87	C5H5+
66.0464	5	C5H6+
66.9745	2	CHClF+
67.0543	2	C5H7+
68.9972	1	C3HO2+
74.015	11	C6H2+
75.0229	38	C6H3+
75.971	3	C2HClO+
76.0307	21	C6H4+
77.0385	199	C6H5+
78.0464	90	C6H6+
79.0542	13	C6H7+
80.0495	5	C5H6N+
81.0136	1	C5H2F+
81.0335	24	C5H5O+
81.9372	1	CCl2+
82.945	911	CHCl2+
86.0151	1	C7H2+
87.023	8	C7H3+
88.0307	13	C7H4+
89.0386	173	C7H5+
90.034	2	C6H4N+
90.0464	20	C7H6+
91.0542	103	C7H7+
94.0413	6	C6H6O+
95.0491	636	C6H7O+
96.0443	1	C5H6NO+
98.0149	1	C8H2+
99.023	7	C8H3+
100.0308	1	C8H4+
101.0385	8	C8H5+
102.0464	150	C8H6+
103.0542	999	C8H7+
104.0494	24	C7H6N+
104.0619	6	C8H8+
105.0447	455	C6H5N2+
106.0418	3	C4H9ClN+
106.0652	1	C7H8N+
107.0291	13	C7H4F+
107.0491	6	C7H7O+
109.0449	1	C7H6F+
109.0649	1	C7H9O+
113.0385	28	C9H5+
114.0338	3	C8H4N+
114.0464	13	C9H6+
115.0542	366	C9H7+
116.0495	25	C8H6N+
116.062	3	C9H8+
117.0572	31	C8H7N+
118.0412	3	C8H6O+
118.0651	5	C8H8N+
119.0492	4	C8H7O+
120.0206	3	C7H4O2+
125.0386	10	C10H5+
126.0464	57	C10H6+
127.0542	31	C10H7+
128.0495	18	C9H6N+
128.062	168	C10H8+
129.0447	19	C8H5N2+
129.0572	3	C9H7N+
130.0652	403	C9H8N+
131.0492	45	C9H7O+
132.0568	5	C9H8O+
133.0448	87	C9H6F+
134.0603	3	C8H8NO+
140.0495	28	C10H6N+
141.0574	2	C10H7N+
142.0652	3	C10H8N+
145.0648	11	C10H9O+
146.0599	4	C9H8NO+
152.0495	3	C11H6N+
153.0573	4	C11H7N+
155.0604	28	C4H13NO3S+
170.0601	11	C11H8NO+
