Mass spectrum: Acetazolamide; LC-ESI-QFT; MS2; CE: 15; R=35000; [M+H]+
Name: Acetazolamide
Name: AZM
Name: N-(5-sulfamoyl-1,3,4-thiadiazol-2-yl)acetamide
Formula: C4H6N4O3S2
Exact mass: 221.98813
SMILES: O=S(=O)(c1nnc(s1)NC(=O)C)N
InChI: InChI=1S/C4H6N4O3S2/c1-2(9)6-3-7-8-4(12-3)13(5,10)11/h1H3,(H2,5,10,11)(H,6,7,9)
Instrument: Q Exactive Orbitrap Thermo Scientific
Instrument type: LC-ESI-QFT
Ms type: MS2
Ion mode: POSITIVE
Ionization: ESI
Fragmentation mode: HCD
Collision energy: 15 (nominal)
Resolution: 35000
Column name: XBridge C18 3.5um, 2.1x50mm, Waters
Retention time: 2.5 min
Base peak: 222.9955
Precursor m/z: 222.9954
Precursor type: [M+H]+
m/z	relative intensity	assigned
58.9824	1	CHNS+
71.9903	1	C2H2NS+
72.9852	2	CHN2S+
79.98	2	H2NO2S+
101.004	1	C2H3N3S+
149.0233	4	CH5N6OS+
163.9571	5	N6OS2+
180.9848	867	C2H5N4O2S2+
181.9687	41	C2H4N3O3S2+
205.9689	3	C4H4N3O3S2+
222.9954	999	C4H7N4O3S2+
