Mass spectrum: 4-Chlorobenzophenone; LC-ESI-QFT; MS2; CE: 15; R=35000; [M+H]+
Name: 4-Chlorobenzophenone
Name: 4-Chlorobenzophenon
Name: (4-chlorophenyl)-phenylmethanone
Formula: C13H9ClO
Exact mass: 216.03419
SMILES: C1=CC=C(C=C1)C(=O)C2=CC=C(C=C2)Cl
InChI: InChI=1S/C13H9ClO/c14-12-8-6-11(7-9-12)13(15)10-4-2-1-3-5-10/h1-9H
Instrument: Q Exactive Plus Orbitrap Thermo Scientific
Instrument type: LC-ESI-QFT
Ms type: MS2
Ion mode: POSITIVE
Ionization: ESI
Fragmentation mode: HCD
Collision energy: 15 (nominal)
Resolution: 35000
Column name: XBridge C18 3.5um, 2.1x50mm, Waters
Retention time: 12.2 min
Base peak: 217.0415
Precursor m/z: 217.0415
Precursor type: [M+H]+
m/z	relative intensity	assigned
75.0228	1	C6H3+
77.0384	3	C6H5+
89.0597	1	C4H9O2+
105.0335	178	C7H5O+
110.9991	4	C6H4Cl+
111.0442	1	C6H7O2+
138.9945	537	C7H4ClO+
217.0415	999	C13H10ClO+
