Mass spectrum: Nilotinib; LC-ESI-QFT; MS2; CE: 75; R=35000; [M+H]+
Name: Nilotinib
Name: 4-methyl-N-(3-(4-methylimidazol-1-yl)-5-(trifluoromethyl)phenyl)-3-((4-pyridin-3-ylpyrimidin-2-yl)amino)benzamide
Formula: C28H22F3N7O
Exact mass: 529.18379
SMILES: CC1=C(C=C(C=C1)C(=O)NC2=CC(=CC(=C2)N3C=C(N=C3)C)C(F)(F)F)NC4=NC=CC(=N4)C5=CN=CC=C5
InChI: InChI=1S/C28H22F3N7O/c1-17-5-6-19(10-25(17)37-27-33-9-7-24(36-27)20-4-3-8-32-14-20)26(39)35-22-11-21(28(29,30)31)12-23(13-22)38-15-18(2)34-16-38/h3-16H,1-2H3,(H,35,39)(H,33,36,37)
Instrument: Q Exactive Plus Orbitrap Thermo Scientific
Instrument type: LC-ESI-QFT
Ms type: MS2
Ion mode: POSITIVE
Ionization: ESI
Fragmentation mode: HCD
Collision energy: 75 (nominal)
Resolution: 35000
Column name: XBridge C18 3.5um, 2.1x50mm, Waters
Retention time: 8.2 min
Base peak: 530.1902
Precursor m/z: 530.1911
Precursor type: [M+H]+
m/z	relative intensity	assigned
53.0384	1	C4H5+
56.0495	6	C3H6N+
65.0386	3	C5H5+
77.0382	1	CH4FN3+
79.0542	4	C6H7+
80.0494	2	C5H6N+
81.0445	1	C4H5N2+
83.0603	3	C4H7N2+
89.0385	6	C7H5+
91.0542	12	C7H7+
95.0491	4	C6H7O+
103.0542	2	C8H7+
104.0494	44	C2H5FN4+
105.0446	9	C6H5N2+
106.0651	9	C7H8N+
107.0729	4	C2H8FN4+
110.0599	1	CH7FN4O+
114.0337	2	C3H3FN4+
116.0494	15	C8H6N+
118.0524	2	C2H5FN5+
118.0649	1	C3H7FN4+
119.0488	1	C3H6FN3O+
119.0603	3	C7H7N2+
128.0495	3	C9H6N+
129.0446	6	C8H5N2+
129.057	1	C4H6FN4+
130.04	1	C7H4N3+
130.0526	2	C8H6N2+
130.065	10	C9H8N+
131.0603	45	C3H6FN5+
132.0681	10	C8H8N2+
133.0759	3	C3H8FN5+
134.0599	3	C3H7FN4O+
142.0525	13	C9H6N2+
143.0476	1	C8H5N3+
144.0442	1	C4H5FN4O+
144.0555	1	C3H5FN6+
144.0682	4	C9H8N2+
145.0757	1	C4H8FN5+
146.06	2	C9H8NO+
147.0551	3	C3H6FN5O+
147.0677	2	C4H8FN4O+
148.0557	2	C9H7FN+
149.0709	2	C8H9N2O+
151.0353	4	C9H5F2+
155.0603	10	C10H7N2+
156.0555	23	C4H5FN6+
156.0681	8	C5H7FN5+
157.0636	2	C9H7N3+
157.0759	14	C10H9N2+
158.04	1	C10H5FN+
158.0712	21	C9H8N3+
159.0551	2	C4H6FN5O+
162.0422	1	C3H5FN5O2+
166.0651	1	C12H8N+
168.0682	1	C11H8N2+
169.0633	2	C5H6FN6+
170.0708	1	C5H7FN6+
171.0551	1	C5H6FN5O+
171.079	19	C5H8FN6+
172.0367	2	C8H5F3N+
172.0627	2	C5H7FN5O+
174.0661	18	C9H8N3O+
175.0666	1	C10H8FN2+
176.0819	2	C9H10N3O+
178.0459	2	C5H5F3N4+
180.0806	1	C8H9FN4+
181.0629	1	C11H7N3+
181.0757	1	C7H8FN5+
182.0712	8	C11H8N3+
183.0791	8	C11H9N3+
184.0867	1	C6H9FN6+
185.0704	1	C6H8FN5O+
188.0318	2	C8H5F3NO+
190.0651	1	C14H8N+
192.068	3	C8H7FN5+
193.0567	2	C5H6F3N5+
194.0644	14	C5H7F3N5+
194.0715	2	C12H8N3+
194.0838	2	C13H10N2+
196.0569	2	C10H8F2NO+
198.0524	16	C10H7F3N+
199.0477	2	C9H6F3N2+
200.0553	4	C9H7F3N2+
201.0396	1	C9H6F3NO+
205.0577	2	C11H7F2N2+
206.0713	3	C13H8N3+
206.083	2	C9H9FN5+
207.0791	3	C13H9N3+
207.0915	8	C9H10FN5+
208.0869	13	C13H10N3+
209.0823	1	C12H9N4+
213.0266	1	C9H4F3N2O+
213.0632	7	C10H8F3N2+
214.0711	22	C10H9F3N2+
216.0686	1	C15H8N2+
217.0761	5	C15H9N2+
218.0711	5	C9H7FN6+
218.0837	5	C10H9FN5+
219.079	21	C14H9N3+
219.0915	7	C10H10FN5+
220.0869	17	C14H10N3+
221.0517	2	C6H6F3N5O+
221.0821	3	C13H9N4+
221.0945	9	C9H10FN6+
223.0476	1	C11H6F3N2+
224.0553	1	C11H7F3N2+
225.0519	1	C10H5N6O+
225.0631	7	C11H8F3N2+
226.0716	2	C11H9F3N2+
230.0712	1	C15H8N3+
232.0868	11	C10H9FN6+
233.0821	4	C14H9N4+
233.0946	17	C10H10FN6+
234.1025	79	C10H11FN6+
235.0978	7	C14H11N4+
240.0741	2	C11H9F3N3+
241.0822	11	C11H10F3N3+
242.0898	3	C11H11F3N3+
244.0739	5	C10H7FN7+
244.0868	23	C11H9FN6+
245.0824	93	C15H9N4+
245.0946	17	C11H10FN6+
246.09	236	C10H9FN7+
247.0977	15	C10H10FN7+
249.0706	1	C20H9+
257.0816	2	C11H8FN7+
258.0897	3	C11H9FN7+
259.0977	999	C11H10FN7+
260.1055	135	C11H11FN7+
261.1133	224	C11H12FN7+
272.0932	1	C16H10N5+
278.0801	3	C15H11F3NO+
286.1084	1	C17H12N5+
289.1078	1	C12H12FN7O+
