Mass spectrum: Iopromide; LC-ESI-ITFT; MS2; CE: 35%; R=15000; [M+H]+
Name: Iopromide
Name: 1-N,3-N-bis(2,3-dihydroxypropyl)-2,4,6-triiodo-5-[(2-methoxyacetyl)amino]-3-N-methylbenzene-1,3-dicarboxamide
Formula: C18H24I3N3O8
Exact mass: 790.8698
SMILES: CN(CC(CO)O)C(=O)C1=C(C(=C(C(=C1I)C(=O)NCC(CO)O)I)NC(=O)COC)I
InChI: InChI=1S/C18H24I3N3O8/c1-24(4-9(28)6-26)18(31)12-13(19)11(17(30)22-3-8(27)5-25)14(20)16(15(12)21)23-10(29)7-32-2/h8-9,25-28H,3-7H2,1-2H3,(H,22,30)(H,23,29)
Instrument: LTQ Orbitrap XL Thermo Scientific
Instrument type: LC-ESI-ITFT
Ms type: MS2
Ion mode: POSITIVE
Ionization: ESI
Fragmentation mode: CID
Collision energy: 35 % (nominal)
Resolution: 15000
Column name: XBridge C18 3.5um, 2.1x50mm, Waters
Retention time: 2.7 min
Base peak: 132.9579
Precursor m/z: 791.877
Precursor type: [M+H]+
m/z	relative intensity	assigned
325.9517	5	C8H9INO5+
386.9838	9	C13H12IN2O4+
392.1437	4	C18H22N3O7+
399.9557	9	C13H9IN2O5+
413.9696	14	C14H11IN2O5+
430.9725	18	C13H21I2+
444.9885	43	C14H23I2+
456.8521	5	C10H7I2N2O3+
460.0356	9	C16H19IN3O5+
478.0458	20	C16H21IN3O6+
527.8647	7	C10H12I2NO8+
540.8711	6	C11H13I2NO8+
558.8848	270	C13H22I3+
572.9005	383	C14H24I3+
632.9238	5	C17H19I2N2O8+
645.9541	25	C18H22I2N3O7+
663.9639	17	C18H24I2N3O8+
686.7974	117	C14H14I3N2O6+
700.8125	150	C15H16I3N2O6+
704.8111	4	C14H16I3N2O7+
718.8232	46	C15H18I3N2O7+
755.8551	9	C18H21I3N3O6+
773.8657	999	C18H23I3N3O7+
