Mass spectrum: Didanosine; LC-ESI-QFT; MS2; CE: 45; R=35000; [M-H]-
Name: Didanosine
Name: 9-[(2R,5S)-5-(hydroxymethyl)-2-oxolanyl]-3H-purin-6-one
Formula: C10H12N4O3
Exact mass: 236.09094
SMILES: O=C3/N=C\Nc1c3ncn1[C@@H]2O[C@@H](CC2)CO
InChI: InChI=1S/C10H12N4O3/c15-3-6-1-2-7(17-6)14-5-13-8-9(14)11-4-12-10(8)16/h4-7,15H,1-3H2,(H,11,12,16)/t6-,7+/m0/s1
Instrument: Q Exactive Orbitrap Thermo Scientific
Instrument type: LC-ESI-QFT
Ms type: MS2
Ion mode: NEGATIVE
Ionization: ESI
Fragmentation mode: HCD
Collision energy: 45 (nominal)
Resolution: 35000
Column name: XBridge C18 3.5um, 2.1x50mm, Waters
Retention time: 2.3 min
Base peak: 235.0838
Precursor m/z: 235.0837
Precursor type: [M-H]-
m/z	relative intensity	assigned
65.0146	1	C3HN2-
65.9985	1	C3NO-
92.0254	23	C4H2N3-
105.0459	2	C6H5N2-
108.0203	8	C4H2N3O-
126.0309	11	C4H4N3O2-
132.0568	21	C7H6N3-
134.0236	80	C5H2N4O-
135.0313	999	C5H3N4O-
148.0515	2	C7H6N3O-
161.047	1	C7H5N4O-
175.0624	61	C8H7N4O-
187.0627	1	C9H7N4O-
192.0781	6	C9H10N3O2-
217.0727	2	C10H9N4O2-
233.068	12	C10H9N4O3-
235.0836	304	C10H11N4O3-
