Mass spectrum: N,N-Dimethyl-N'-phenylsulfamide; LC-ESI-ITFT; MS2; CE: 75%; R=15000; [M+H]+
Name: N,N-Dimethyl-N'-phenylsulfamide
Name: DMSA
Formula: C8H12N2O2S
Exact mass: 200.0619
SMILES: S(Nc1ccccc1)(N(C)C)(=O)=O
InChI: InChI=1S/C8H12N2O2S/c1-10(2)13(11,12)9-8-6-4-3-5-7-8/h3-7,9H,1-2H3
Instrument: LTQ Orbitrap XL Thermo Scientific
Instrument type: LC-ESI-ITFT
Ms type: MS2
Ion mode: POSITIVE
Ionization: ESI
Fragmentation mode: HCD
Collision energy: 75 % (nominal)
Resolution: 15000
Column name: XBridge C18 3.5um, 2.1x50mm, Waters
Retention time: 6.3 min
Base peak: 223.0517
Precursor m/z: 201.0692
Precursor type: [M+H]+
m/z	relative intensity	assigned
64.031	1	C5H4+
65.0386	319	C5H5+
77.0388	2	C6H5+
79.0543	2	C6H7+
92.0495	999	C6H6N+
93.0573	253	C6H7N+
94.0651	37	C6H8N+
107.0602	3	C6H7N2+
108.0809	6	C7H10N+
120.0809	7	C8H10N+
121.0761	3	C7H9N2+
121.0886	6	C8H11N+
122.0838	21	C7H10N2+
135.0921	2	C8H11N2+
136.0998	2	C8H12N2+
137.1067	4	C8H13N2+
