Mass spectrum: Theophyline; LC-ESI-QFT; MS2; CE: 90; R=35000; [M-H]-
Name: Theophyline
Name: Theophylline
Name: 1,3-dimethyl-7H-purine-2,6-dione
Formula: C7H8N4O2
Exact mass: 180.06473
SMILES: CN1C2=C(C(=O)N(C1=O)C)NC=N2
InChI: InChI=1S/C7H8N4O2/c1-10-5-4(8-3-9-5)6(12)11(2)7(10)13/h3H,1-2H3,(H,8,9)
Instrument: Q Exactive Plus Orbitrap Thermo Scientific
Instrument type: LC-ESI-QFT
Ms type: MS2
Ion mode: NEGATIVE
Ionization: ESI
Fragmentation mode: HCD
Collision energy: 90 (nominal)
Resolution: 35000
Column name: XBridge C18 3.5um, 2.1x50mm, Waters
Retention time: 3.1 min
Base peak: 179.0573
Precursor m/z: 179.0574
Precursor type: [M-H]-
m/z	relative intensity	assigned
55.0301	9	C2H3N2-
65.0145	12	C3HN2-
65.9986	484	C3NO-
66.0098	60	C2N3-
67.0176	5	C2HN3-
67.0302	109	C3H3N2-
68.0143	8	C3H2NO-
69.0095	57	C2HN2O-
79.0177	610	C3HN3-
80.0255	10	C3H2N3-
82.0173	1	C3H2N2O-
85.0408	1	C3H5N2O-
92.0255	91	C4H2N3-
94.0411	731	C4H4N3-
95.025	11	C4H3N2O-
107.0126	120	C4HN3O-
108.0204	1	C4H2N3O-
109.0282	31	C4H3N3O-
112.0515	1	C4H6N3O-
120.0204	51	C5H2N3O-
121.0282	34	C5H3N3O-
122.0361	999	C5H4N3O-
123.0075	30	C4HN3O2-
123.0395	1	H5N5O3-
124.0152	15	C4H2N3O2-
135.0076	579	C5HN3O2-
135.0314	467	C5H3N4O-
136.0391	75	C5H4N4O-
140.0466	5	C5H6N3O2-
163.0264	1	C6H3N4O2-
164.0342	980	C6H4N4O2-
179.0576	87	C7H7N4O2-
