Mass spectrum: Chlorthalidone; LC-ESI-QFT; MS2; CE: 45; R=35000; [M+H]+
Name: Chlorthalidone
Name: Chlortalidone
Name: 2-chloranyl-5-(1-oxidanyl-3-oxidanylidene-2H-isoindol-1-yl)benzenesulfonamide
Formula: C14H11ClN2O4S
Exact mass: 338.01281
SMILES: O=S(=O)(N)c1c(Cl)ccc(c1)C2(O)c3ccccc3C(=O)N2
InChI: InChI=1S/C14H11ClN2O4S/c15-11-6-5-8(7-12(11)22(16,20)21)14(19)10-4-2-1-3-9(10)13(18)17-14/h1-7,19H,(H,17,18)(H2,16,20,21)
Instrument: Q Exactive Orbitrap Thermo Scientific
Instrument type: LC-ESI-QFT
Ms type: MS2
Ion mode: POSITIVE
Ionization: ESI
Fragmentation mode: HCD
Collision energy: 45 (nominal)
Resolution: 35000
Column name: XBridge C18 3.5um, 2.1x50mm, Waters
Retention time: 5.6 min
Base peak: 321.9937
Precursor m/z: 339.0201
Precursor type: [M+H]+
m/z	relative intensity	assigned
63.9852	1	H2NOS+
79.9801	172	H2NO2S+
105.0334	17	C7H5O+
126.0463	9	C10H6+
130.0288	3	C8H4NO+
139.0541	3	C11H7+
144.008	5	C8H2NO2+
148.0393	31	C8H6NO2+
150.0457	9	C4H10N2O2S+
151.0542	3	C12H7+
152.062	23	C12H8+
153.0335	8	C11H5O+
161.0153	33	C10H6Cl+
166.0652	1	C12H8N+
167.0493	11	C12H7O+
167.0727	3	C12H9N+
168.057	4	C12H8O+
177.0572	3	C13H7N+
179.0258	8	C10H8ClO+
179.0489	3	C13H7O+
180.0569	1	C13H8O+
182.0361	8	C12H6O2+
185.0153	129	C12H6Cl+
186.023	5	C12H7Cl+
187.031	2	C12H8Cl+
189.0102	21	C11H6ClO+
189.0213	21	C10H6ClN2+
194.0602	5	C13H8NO+
195.044	9	C13H7O2+
196.0518	5	C13H8O2+
197.0596	3	C13H9O2+
203.0259	16	C12H8ClO+
207.0443	10	C14H7O2+
207.0546	1	C13H7N2O+
213.0102	83	C13H6ClO+
214.0178	7	C13H7ClO+
215.0256	3	C13H8ClO+
217.0052	2	C12H6ClO2+
222.0549	19	C14H8NO2+
223.0628	53	C14H9NO2+
224.0466	7	C14H8O3+
226.0498	2	C13H8NO3+
229.0058	1	C13H6ClO2+
230.0364	3	C13H9ClNO+
231.0208	176	C13H8ClO2+
238.0502	4	C11H11ClN2O2+
240.0114	2	C13H6NO2S+
240.0216	3	C14H7ClNO+
241.0053	833	C14H6ClO2+
241.0161	133	C13H6ClN2O+
242.0128	11	C6H11ClN2O4S+
243.0208	999	C14H8ClO2+
258.0318	68	C14H9ClNO2+
259.0158	209	C14H8ClO3+
269.0109	11	C14H6ClN2O2+
274.0025	5	C14H7ClO4+
286.0166	3	C14H8NO4S+
303.9835	7	C14H7ClNO3S+
304.9671	142	C14H6ClO4S+
321.9936	482	C14H9ClNO4S+
