Mass spectrum: EPN; LC-ESI-QFT; MS2; CE: 90%; R=17500; [M+H]+
Name: EPN
Name: O-Ethyl O-(4-nitrophenyl) phenylphosphonothioate
Name: ethoxy-(4-nitrophenoxy)-phenyl-sulfanylidene-lambda5-phosphane
Formula: C14H14NO4PS
Exact mass: 323.0381
SMILES: CCOP(=S)(C1=CC=CC=C1)OC2=CC=C(C=C2)[N+](=O)[O-]
InChI: InChI=1S/C14H14NO4PS/c1-2-18-20(21,14-6-4-3-5-7-14)19-13-10-8-12(9-11-13)15(16)17/h3-11H,2H2,1H3
Instrument: Exploris 240 Orbitrap Thermo Scientific
Instrument type: LC-ESI-QFT
Ms type: MS2
Ion mode: POSITIVE
Ionization: ESI
Fragmentation mode: HCD
Collision energy: 90 % (nominal)
Resolution: 17500
Column name: XBridge C18 3.5um, 2.1x50mm, Waters
Retention time: 12.283 min
Base peak: 334.1681
Precursor m/z: 324.0454
Precursor type: [M+H]+
m/z	relative intensity	assigned
51.0231	53	C4H3+
53.0386	152	C4H5+
62.9453	960	PS+
64.0306	69	C5H4+
65.0387	87	C5H5+
66.0465	97	CH9NP+
75.023	194	C6H3+
76.031	63	C6H4+
77.0386	355	C6H5+
78.0464	412	C6H6+
79.0544	47	C6H7+
81.0338	15	CH8NOP+
92.0259	116	C2H7NOP+
94.0414	813	C6H6O+
95.0491	163	C6H7O+
107.0046	22	C6H4P+
108.0028	19	C6H4S+
110.0186	999	C6H6S+
123.0316	193	C6H5NO2+
138.9767	253	C6H4PS+
139.9845	40	C6H5PS+
141.0698	31	C11H9+
153.9639	24	C6H3OPS+
154.9718	121	C6H4OPS+
156.9873	584	C6H6OPS+
159.0209	28	C6H8O3P+
170.0283	21	C11H7P+
171.9748	39	C6H5O2PS+
189.014	38	C7H10O2PS+
