Mass spectrum: Imidaclothiz; LC-ESI-QFT; MS2; CE: 60%; R=17500; [M+H]+
Name: Imidaclothiz
Name: N-[1-[(2-chloro-1,3-thiazol-5-yl)methyl]-4,5-dihydroimidazol-2-yl]nitramide
Formula: C7H8ClN5O2S
Exact mass: 261.0087
SMILES: C1CN(C(=N1)N[N+](=O)[O-])CC2=CN=C(S2)Cl
InChI: InChI=1S/C7H8ClN5O2S/c8-6-10-3-5(16-6)4-12-2-1-9-7(12)11-13(14)15/h3H,1-2,4H2,(H,9,11)
Instrument: Exploris 240 Orbitrap Thermo Scientific
Instrument type: LC-ESI-QFT
Ms type: MS2
Ion mode: POSITIVE
Ionization: ESI
Fragmentation mode: HCD
Collision energy: 60 % (nominal)
Resolution: 17500
Column name: XBridge C18 3.5um, 2.1x50mm, Waters
Retention time: 3.937 min
Base peak: 239.15
Precursor m/z: 262.016
Precursor type: [M+H]+
m/z	relative intensity	assigned
56.0495	32	C3H6N+
70.995	8	C3H3S+
99.0552	14	C4H7N2O+
121.0634	35	C6H7N3+
122.0712	524	C6H8N3+
123.0791	185	C6H9N3+
127.0197	14	C4H5N3S+
131.9669	299	C4H3ClNS+
139.0324	82	C6H7N2S+
140.0272	13	C5H6N3S+
152.0151	46	C5H4N4S+
153.0226	16	C5H5N4S+
154.0433	43	C6H8N3S+
155.051	40	C6H9N3S+
156.0321	6	C6H7ClN3+
179.0389	33	C7H7N4S+
180.0465	71	C7H8N4S+
181.0542	999	C7H9N4S+
215.0149	11	C7H8ClN4S+
