Mass spectrum: Lauroyl Lysine; LC-ESI-QFT; MS2; CE: 60%; R=17500; [M-H]-
Name: Lauroyl Lysine
Name: N6-Dodecanoyllysine
Name: 2-amino-6-(dodecanoylamino)hexanoic acid
Formula: C18H36N2O3
Exact mass: 328.2726
SMILES: CCCCCCCCCCCC(=O)NCCCCC(C(=O)O)N
InChI: InChI=1S/C18H36N2O3/c1-2-3-4-5-6-7-8-9-10-14-17(21)20-15-12-11-13-16(19)18(22)23/h16H,2-15,19H2,1H3,(H,20,21)(H,22,23)
Instrument: Exploris 240 Orbitrap Thermo Scientific
Instrument type: LC-ESI-QFT
Ms type: MS2
Ion mode: NEGATIVE
Ionization: ESI
Fragmentation mode: HCD
Collision energy: 60 % (nominal)
Resolution: 17500
Column name: XBridge C18 3.5um, 2.1x50mm, Waters
Retention time: 12.151 min
Base peak: 327.2653
Precursor m/z: 327.2653
Precursor type: [M-H]-
m/z	relative intensity	assigned
58.0299	11	C2H4NO-
97.0772	21	C5H9N2-
99.0929	7	C5H11N2-
128.0718	31	C6H10NO2-
145.0982	999	C6H13N2O2-
198.1864	101	C12H24NO-
254.2491	12	C16H32NO-
279.2441	22	C17H31N2O-
281.2607	13	C17H33N2O-
283.2757	47	C17H35N2O-
327.2654	88	C18H35N2O3-
