Mass spectrum: Acemetacin; LC-ESI-QFT; MS2; CE: 90; R=35000; [M-H]-
Name: Acemetacin
Name: Rantudil
Name: 2-[2-[1-(4-chlorobenzoyl)-5-methoxy-2-methyl-indol-3-yl]acetyl]oxyacetic acid
Formula: C21H18ClNO6
Exact mass: 415.08227
SMILES: Clc1ccc(cc1)C(=O)n3c2ccc(OC)cc2c(c3C)CC(=O)OCC(=O)O
InChI: InChI=1S/C21H18ClNO6/c1-12-16(10-20(26)29-11-19(24)25)17-9-15(28-2)7-8-18(17)23(12)21(27)13-3-5-14(22)6-4-13/h3-9H,10-11H2,1-2H3,(H,24,25)
Instrument: Q Exactive Orbitrap Thermo Scientific
Instrument type: LC-ESI-QFT
Ms type: MS2
Ion mode: NEGATIVE
Ionization: ESI
Fragmentation mode: HCD
Collision energy: 90 (nominal)
Resolution: 35000
Column name: XBridge C18 3.5um, 2.1x50mm, Waters
Retention time: 12.8 min
Base peak: 414.0755
Precursor m/z: 414.075
Precursor type: [M-H]-
m/z	relative intensity	assigned
72.9932	32	C2HO3-
75.0088	999	C2H3O3-
111.0008	7	C6H4Cl-
156.0455	3	C10H6NO-
157.0533	13	C10H7NO-
158.0611	109	C10H8NO-
184.0403	4	C11H6NO2-
218.0611	4	C15H8NO-
252.0221	5	C15H7ClNO-
253.0301	31	C15H8ClNO-
254.0381	12	C15H9ClNO-
255.0457	3	C15H10ClNO-
266.038	1	C16H9ClNO-
268.0536	3	C16H11ClNO-
269.0618	3	C16H12ClNO-
280.0169	8	C16H7ClNO2-
281.025	14	C16H8ClNO2-
282.0327	49	C16H9ClNO2-
