Mass spectrum: Bromadiolone; LC-ESI-QFT; MS2; CE: 60; R=35000; [M-H]-
Name: Bromadiolone
Name: 3-[3-[4-(4-bromophenyl)phenyl]-3-hydroxy-1-phenylpropyl]-4-hydroxychromen-2-one
Formula: C30H23BrO4
Exact mass: 526.07797
SMILES: C1=CC=C(C=C1)C(CC(C2=CC=C(C=C2)C3=CC=C(C=C3)Br)O)C4=C(C5=CC=CC=C5OC4=O)O
InChI: InChI=1S/C30H23BrO4/c31-23-16-14-20(15-17-23)19-10-12-22(13-11-19)26(32)18-25(21-6-2-1-3-7-21)28-29(33)24-8-4-5-9-27(24)35-30(28)34/h1-17,25-26,32-33H,18H2
Instrument: Q Exactive Plus Orbitrap Thermo Scientific
Instrument type: LC-ESI-QFT
Ms type: MS2
Ion mode: NEGATIVE
Ionization: ESI
Fragmentation mode: HCD
Collision energy: 60 (nominal)
Resolution: 35000
Column name: XBridge C18 3.5um, 2.1x50mm, Waters
Retention time: 15.3 min
Base peak: 525.0704
Precursor m/z: 525.0707
Precursor type: [M-H]-
m/z	relative intensity	assigned
59.0138	1	C2H3O2-
60.9931	1	CHO3-
65.0397	3	C5H5-
78.9189	999	Br-
92.0267	1	C6H4O-
93.0346	379	C6H5O-
95.0139	2	C5H3O2-
101.0397	12	C8H5-
108.0217	4	C6H4O2-
115.0554	8	C9H7-
117.0346	100	C8H5O-
119.0503	5	C8H7O-
121.0297	4	C7H5O2-
130.0424	14	C9H6O-
131.0502	3	C9H7O-
133.0296	4	C8H5O2-
135.0452	22	C8H7O2-
137.0244	34	C7H5O3-
141.071	26	C11H9-
143.0503	35	C10H7O-
145.0296	2	C9H5O2-
145.0658	5	C10H9O-
147.0455	2	C9H7O2-
159.0451	3	C10H7O2-
161.0245	42	C9H5O3-
173.0607	1	C11H9O2-
178.0788	7	C14H10-
179.0866	9	C14H11-
181.066	3	C13H9O-
187.0401	31	C11H7O3-
191.0867	4	C15H11-
193.0657	7	C14H9O-
193.1022	1	C15H13-
195.0815	29	C14H11O-
197.0608	4	C13H9O2-
199.0765	4	C13H11O2-
205.066	8	C15H9O-
206.0737	64	C15H10O-
207.0815	33	C15H11O-
209.0974	3	C15H13O-
217.0658	2	C16H9O-
219.0815	97	C16H11O-
221.0612	5	C15H9O2-
221.0973	26	C16H13O-
222.0687	9	C15H10O2-
223.0765	13	C15H11O2-
235.0767	1	C16H11O2-
237.0923	9	C16H13O2-
247.0763	5	C17H11O2-
249.0557	5	C16H9O3-
250.0636	177	C16H10O3-
251.0713	2	C16H11O3-
263.0713	81	C17H11O3-
265.0869	1	C17H13O3-
270.9769	1	C14H8BrO-
272.9922	28	C14H10BrO-
387.0394	3	C23H16BrO-
