Mass spectrum: Telmisartan; LC-ESI-ITFT; MS2; CE: 35%; R=30000; [M+H]+
Name: Telmisartan
Name: 4'-[(1,7'-dimethyl-2'-propyl-1H,3'H-2,5'-bibenzimidazol-3'-yl)methyl]biphenyl-2-carboxylic acid
Name: 2-[4-[[4-methyl-6-(1-methyl-2-benzimidazolyl)-2-propyl-1-benzimidazolyl]methyl]phenyl]benzoic acid
Formula: C33H30N4O2
Exact mass: 514.2369
SMILES: n1(c(nc2c1cccc2)c1cc(c2c(n(c(CCC)n2)Cc2ccc(cc2)c2c(cccc2)C(O)=O)c1)C)C
InChI: InChI=1S/C33H30N4O2/c1-4-9-30-35-31-21(2)18-24(32-34-27-12-7-8-13-28(27)36(32)3)19-29(31)37(30)20-22-14-16-23(17-15-22)25-10-5-6-11-26(25)33(38)39/h5-8,10-19H,4,9,20H2,1-3H3,(H,38,39)
Instrument: LTQ Orbitrap XL Thermo Scientific
Instrument type: LC-ESI-ITFT
Ms type: MS2
Ion mode: POSITIVE
Ionization: ESI
Fragmentation mode: CID
Collision energy: 35 % (nominal)
Resolution: 30000
Column name: XBridge C18 3.5um, 2.1x50mm, Waters
Retention time: 9.2 min
Base peak: 515.2452
Precursor m/z: 515.2442
Precursor type: [M+H]+
m/z	relative intensity	assigned
193.065	2	C14H9O+
211.0759	1	C14H11O2+
305.1764	30	C19H21N4+
306.1796	1	C14H22N6O2+
317.1762	1	C20H21N4+
483.2182	2	C32H27N4O+
497.234	999	C33H29N4O+
498.2376	117	C28H30N6O3+
