Mass spectrum: Benserazide; LC-ESI-QFT; MS2; CE: 90; R=35000; [M+H]+
Name: Benserazide
Name: 2-amino-3-hydroxy-N`-(2,3,4-trihydroxybenzyl)propionohydrazide
Formula: C10H15N3O5
Exact mass: 257.10117
SMILES: O=C(NNCc1c(O)c(O)c(O)cc1)C(N)CO
InChI: InChI=1S/C10H15N3O5/c11-6(4-14)10(18)13-12-3-5-1-2-7(15)9(17)8(5)16/h1-2,6,12,14-17H,3-4,11H2,(H,13,18)
Instrument: Q Exactive Orbitrap Thermo Scientific
Instrument type: LC-ESI-QFT
Ms type: MS2
Ion mode: POSITIVE
Ionization: ESI
Fragmentation mode: HCD
Collision energy: 90 (nominal)
Resolution: 35000
Column name: XBridge C18 3.5um, 2.1x50mm, Waters
Retention time: 0.8 min
Base peak: 182.9024
Precursor m/z: 258.1084
Precursor type: [M+H]+
m/z	relative intensity	assigned
53.0023	9	C3HO+
55.0179	2	C3H3O+
57.0448	35	C2H5N2+
58.0288	5	C2H4NO+
59.024	88	CH3N2O+
60.0444	403	C2H6NO+
61.0397	60	CH5N2O+
65.0386	889	C5H5+
68.0131	29	C3H2NO+
70.0288	9	C3H4NO+
71.0127	12	C3H3O2+
74.0964	2	C4H12N+
83.0491	17	C5H7O+
85.0396	841	C3H5N2O+
93.0335	98	C6H5O+
95.0491	5	C6H7O+
103.0502	27	C3H7N2O2+
111.044	305	C6H7O2+
121.0283	488	C7H5O2+
139.0389	999	C7H7O3+
