Mass spectrum: Lorazepam; LC-ESI-QFT; MS2; CE: 60; R=35000; [M-H]-
Name: Lorazepam
Name: 2H-1,4-Benzodiazepin-2-one, 7-chloro-5-(2-chlorophenyl)-1,3-dihydro-3-hydroxy-
Name: 7-chloranyl-5-(2-chlorophenyl)-3-oxidanyl-1,3-dihydro-1,4-benzodiazepin-2-one
Formula: C15H10Cl2N2O2
Exact mass: 320.01193
SMILES: Clc3ccccc3C/2=N/C(O)C(=O)Nc1c\2cc(Cl)cc1
InChI: InChI=1S/C15H10Cl2N2O2/c16-8-5-6-12-10(7-8)13(19-15(21)14(20)18-12)9-3-1-2-4-11(9)17/h1-7,15,21H,(H,18,20)
Instrument: Q Exactive Orbitrap Thermo Scientific
Instrument type: LC-ESI-QFT
Ms type: MS2
Ion mode: NEGATIVE
Ionization: ESI
Fragmentation mode: HCD
Collision energy: 60 (nominal)
Resolution: 35000
Column name: XBridge C18 3.5um, 2.1x50mm, Waters
Retention time: 9.0 min
Base peak: 319.005
Precursor m/z: 319.0047
Precursor type: [M-H]-
m/z	relative intensity	assigned
65.0034	1	C4HO-
65.9986	9	C3NO-
102.035	999	C7H4N-
116.0143	84	C7H2NO-
126.0116	2	C6H5ClN-
143.0252	1	C8H3N2O-
144.0094	12	
145.0408	3	C8H5N2O-
151.0068	56	C7H4ClN2-
151.9909	243	C7H3ClNO-
154.0062	1	C10H2O2-
160.9914	3	C8H2ClN2-
173.0355	15	C9H5N2O2-
176.9859	3	C8H2ClN2O-
179.0018	162	C8H4ClN2O-
179.9859	46	C8H3ClNO2-
191.0619	10	C13H7N2-
192.0455	8	C13H6NO-
200.0272	27	C12H7ClN-
206.9969	1	C9H4ClN2O2-
218.0485	15	C14H6N2O-
219.0564	31	C14H7N2O-
227.0383	41	C13H8ClN2-
228.0223	65	C13H7ClNO-
246.0438	4	C15H6N2O2-
247.0516	12	C15H7N2O2-
253.0173	31	C14H6ClN2O-
254.0256	7	C14H7ClN2O-
255.0334	38	C14H8ClN2O-
266.0254	9	C15H7ClN2O-
283.028	20	C15H8ClN2O2-
