Mass spectrum: Cetirizine; LC-ESI-ITFT; MS2; CE: 90%; R=30000; [M+H]+
Name: Cetirizine
Name: 2-[2-[4-[(4-chlorophenyl)-phenyl-methyl]piperazin-1-yl]ethoxy]ethanoic acid
Formula: C21H25ClN2O3
Exact mass: 388.1554
SMILES: C1CN(CCN1CCOCC(=O)O)C(C2=CC=CC=C2)C3=CC=C(C=C3)Cl
InChI: InChI=1S/C21H25ClN2O3/c22-19-8-6-18(7-9-19)21(17-4-2-1-3-5-17)24-12-10-23(11-13-24)14-15-27-16-20(25)26/h1-9,21H,10-16H2,(H,25,26)
Instrument: LTQ Orbitrap XL Thermo Scientific
Instrument type: LC-ESI-ITFT
Ms type: MS2
Ion mode: POSITIVE
Ionization: ESI
Fragmentation mode: HCD
Collision energy: 90 % (nominal)
Resolution: 30000
Column name: XBridge C18 3.5um, 2.1x50mm, Waters
Retention time: 9.3 min
Base peak: 389.1636
Precursor m/z: 389.1626
Precursor type: [M+H]+
m/z	relative intensity	assigned
164.0621	16	C13H8+
165.0697	999	C13H9+
166.0775	765	C13H10+
193.0759	10	C13H9N2+
199.0306	21	C13H8Cl+
201.0465	27	C13H10Cl+
353.1134	15	C16H20ClN3O4+
