Mass spectrum: 3,5-Dichloroaniline; LC-ESI-QFT; MS2; CE: 150%; R=17500; [M+H]+
Name: 3,5-Dichloroaniline
Formula: C6H5Cl2N
Exact mass: 160.9799
SMILES: C1=C(C=C(C=C1Cl)Cl)N
InChI: InChI=1S/C6H5Cl2N/c7-4-1-5(8)3-6(9)2-4/h1-3H,9H2
Instrument: Exploris 240 Orbitrap Thermo Scientific
Instrument type: LC-ESI-QFT
Ms type: MS2
Ion mode: POSITIVE
Ionization: ESI
Fragmentation mode: HCD
Collision energy: 150 % (nominal)
Resolution: 17500
Column name: XBridge C18 3.5um, 2.1x50mm, Waters
Retention time: 7.585 min
Base peak: 240.0785
Precursor m/z: 161.9872
Precursor type: [M+H]+
m/z	relative intensity	assigned
63.023	76	C5H3+
64.0309	86	C5H4+
65.0386	999	C5H5+
72.9839	104	C3H2Cl+
74.0151	972	C6H2+
75.023	144	C6H3+
91.0415	140	C6H5N+
92.0495	472	C6H6N+
98.9998	89	C5H4Cl+
100.0075	291	C5H5Cl+
108.984	805	C6H2Cl+
109.9919	79	C6H3Cl+
127.0184	589	C6H6ClN+
