Mass spectrum: Pyrimethanil; LC-ESI-ITFT; MS2; CE: 90%; R=30000; [M+H]+
Name: Pyrimethanil
Name: (4,6-dimethylpyrimidin-2-yl)-phenyl-amine
Formula: C12H13N3
Exact mass: 199.1109
SMILES: c(ccc1N-c(nc(c2)C)nc2C)cc1
InChI: InChI=1S/C12H13N3/c1-9-8-10(2)14-12(13-9)15-11-6-4-3-5-7-11/h3-8H,1-2H3,(H,13,14,15)
Instrument: LTQ Orbitrap XL Thermo Scientific
Instrument type: LC-ESI-ITFT
Ms type: MS2
Ion mode: POSITIVE
Ionization: ESI
Fragmentation mode: HCD
Collision energy: 90 % (nominal)
Resolution: 30000
Column name: XBridge C18 3.5um, 2.1x50mm, Waters
Retention time: 7.6 min
Base peak: 200.1185
Precursor m/z: 200.1182
Precursor type: [M+H]+
m/z	relative intensity	assigned
53.0385	28	C4H5+
58.065	12	C3H8N+
65.0385	67	C5H5+
66.0338	101	C4H4N+
67.029	101	C3H3N2+
67.0416	59	C4H5N+
77.0385	145	C6H5+
80.0495	340	C5H6N+
82.0651	835	C5H8N+
83.0603	99	C4H7N2+
91.0542	32	C7H7+
92.0494	153	C6H6N+
93.0572	118	C6H7N+
94.0651	13	C6H8N+
95.049	20	C6H7O+
95.0603	8	C5H7N2+
98.06	8	C5H8NO+
105.0447	42	C6H5N2+
107.0603	824	C6H7N2+
115.0542	76	C9H7+
116.0495	25	C8H6N+
117.0572	24	C8H7N+
118.0525	39	C7H6N2+
118.0651	95	C8H8N+
119.0603	216	C7H7N2+
123.079	10	C6H9N3+
125.0709	198	C6H9N2O+
129.0698	39	C10H9+
131.0603	56	C8H7N2+
132.0807	8	C9H10N+
139.0543	11	C11H7+
140.0495	28	C10H6N+
141.0572	34	C10H7N+
142.065	163	C10H8N+
143.0603	229	C9H7N2+
143.0729	38	C10H9N+
146.0602	5	C9H8NO+
154.0651	12	C11H8N+
155.0602	13	C10H7N2+
156.0681	43	C10H8N2+
156.0807	73	C11H10N+
157.0761	15	C10H9N2+
158.0838	17	C10H10N2+
158.0962	16	C11H12N+
159.0916	78	C10H11N2+
166.0651	66	C12H8N+
167.0728	73	C12H9N+
168.0682	708	C11H8N2+
173.1072	22	C11H13N2+
181.076	164	C12H9N2+
182.0838	654	C12H10N2+
183.0916	720	C12H11N2+
184.0866	22	C11H10N3+
185.0946	40	C11H11N3+
198.1025	43	C12H12N3+
199.1108	11	C12H13N3+
200.1182	999	C12H14N3+
