Mass spectrum: Bicalutamide; LC-ESI-ITFT; MS2; CE: 90%; R=30000; [M+H]+
Name: Bicalutamide
Name: (2R)-N-[4-cyano-3-(trifluoromethyl)phenyl]-3-[(4-fluorophenyl)sulfonyl]-2-hydroxy-2-methylpropanamide
Formula: C18H14F4N2O4S
Exact mass: 430.0610
SMILES: c1(c(ccc(c1)NC([C@@](CS(c1ccc(F)cc1)(=O)=O)(C)O)=O)C#N)C(F)(F)F
InChI: InChI=1S/C18H14F4N2O4S/c1-17(26,10-29(27,28)14-6-3-12(19)4-7-14)16(25)24-13-5-2-11(9-23)15(8-13)18(20,21)22/h2-8,26H,10H2,1H3,(H,24,25)/t17-/m0/s1
Instrument: LTQ Orbitrap XL Thermo Scientific
Instrument type: LC-ESI-ITFT
Ms type: MS2
Ion mode: POSITIVE
Ionization: ESI
Fragmentation mode: HCD
Collision energy: 90 % (nominal)
Resolution: 30000
Column name: XBridge C18 3.5um, 2.1x50mm, Waters
Retention time: 9.9 min
Base peak: 163.1325
Precursor m/z: 431.0683
Precursor type: [M+H]+
m/z	relative intensity	assigned
71.0291	13	C4H4F+
75.0229	26	C6H3+
93.0333	5	C6H5O+
95.0291	83	C6H4F+
113.0397	49	C6H6FO+
115.0012	39	C5H4FS+
118.0525	23	C7H6N2+
123.0353	999	C6H4FN2+
140.0308	15	C7H4F2N+
142.9961	52	C6H4FOS+
158.9909	10	C6H4FO2S+
165.0458	38	C8H6FN2O+
167.0416	101	C8H5F2N2+
185.0521	59	C8H7F2N2O+
187.0475	8	C5H11F2NO2S+
