Mass spectrum: MCLA; LC-ESI-QFT; MS2; CE: 180%; R=17500; [M+H]+
Name: MCLA
Name: Microcystin LA
Name: (5R,8S,11R,12S,15S,18S,19S,22R)-18-[(1E,3E,5S,6S)-6-methoxy-3,5-dimethyl-7-phenylhepta-1,3-dienyl]-1,5,12,15,19-pentamethyl-2-methylidene-8-(2-methylpropyl)-3,6,9,13,16,20,25-heptaoxo-1,4,7,10,14,17,21-heptazacyclopentacosane-11,22-dicarboxylic acid
Class: NA
Formula: C46H67N7O12
Exact mass: 909.4848
SMILES: CO[C@@H](Cc1ccccc1)[C@@H](C)\C=C(C)\C=C\[C@@H]2NC(=O)[C@H](C)NC(=O)[C@@H](C)[C@@H](NC(=O)[C@H](CC(C)C)NC(=O)[C@@H](C)NC(=O)C(=C)N(C)C(=O)CC[C@@H](NC(=O)[C@H]2C)C(O)=O)C(O)=O
InChI: InChI=1S/C46H67N7O12/c1-24(2)21-35-44(60)52-38(46(63)64)28(6)40(56)47-29(7)41(57)49-33(18-17-25(3)22-26(4)36(65-11)23-32-15-13-12-14-16-32)27(5)39(55)50-34(45(61)62)19-20-37(54)53(10)31(9)43(59)48-30(8)42(58)51-35/h12-18,22,24,26-30,33-36,38H,9,19-21,23H2,1-8,10-11H3,(H,47,56)(H,48,59)(H,49,57)(H,50,55)(H,51,58)(H,52,60)(H,61,62)(H,63,64)/b18-17+,25-22+/t26-,27-,28-,29-,30+,33-,34+,35-,36-,38+/m0/s1
Instrument: Q Exactive Plus Orbitrap Thermo Scientific
Instrument type: LC-ESI-QFT
Ms type: MS2
Ion mode: POSITIVE
Ionization: ESI
Fragmentation mode: HCD
Collision energy: 180 % (nominal)
Resolution: 17500
Column name: XBridge C18 3.5um, 2.1x50mm, Waters
Retention time: 10.516 min
Base peak: 164.9846
Precursor m/z: 910.492
Precursor type: [M+H]+
m/z	relative intensity	assigned
65.0386	178	C5H5+
67.0416	20	C4H5N+
67.0543	53	C5H7+
68.0495	11	C4H6N+
69.0335	19	C4H5O+
69.0699	11	C5H9+
70.065	12	C4H8N+
74.0237	16	C2H4NO2+
77.0385	72	C6H5+
78.0464	10	C6H6+
79.0542	268	C6H7+
80.0495	73	C5H6N+
81.0334	12	C5H5O+
81.0448	7	C4H5N2+
81.07	16	C6H9+
82.0286	25	C4H4NO+
82.0651	84	C5H8N+
84.0444	101	C4H6NO+
84.0808	8	C5H10N+
85.0284	14	C4H5O2+
86.0964	32	C5H12N+
91.0542	999	C7H7+
92.0621	27	C7H8+
93.0571	4	C6H7N+
93.0699	60	C7H9+
94.0652	48	C6H8N+
95.0491	570	C6H7O+
95.0856	11	
96.0809	7	C6H10N+
99.0916	16	C5H11N2+
102.0464	40	C8H6+
103.0542	792	C8H7+
104.0619	8	C8H8+
105.0447	227	C6H5N2+
105.0699	316	C8H9+
106.0526	14	C6H6N2+
107.0855	161	C8H11+
108.068	12	C6H8N2+
109.0648	68	C7H9O+
110.06	13	C6H8NO+
113.0234	18	C5H5O3+
115.0542	126	C9H7+
116.0622	21	C9H8+
117.0699	29	C9H9+
119.0604	40	C7H7N2+
119.0856	16	C9H11+
120.057	7	C8H8O+
120.0809	13	C8H10N+
120.0933	5	C9H12+
121.076	64	C7H9N2+
122.0837	7	C7H10N2+
127.0867	53	C6H11N2O+
128.062	62	C10H8+
129.0697	33	C10H9+
130.0654	15	C9H8N+
131.0854	20	C10H11+
141.07	15	C11H9+
153.07	7	C12H9+
155.0608	5	C10H7N2+
165.0701	34	C13H9+
178.0773	15	C14H10+
179.0859	15	H13N5O6+
