Mass spectrum: Doxazosin; LC-ESI-QFT; MS2; CE: 60; R=35000; [M+H]+
Name: Doxazosin
Name: [4-(4-amino-6,7-dimethoxyquinazolin-2-yl)piperazin-1-yl]-(2,3-dihydro-1,4-benzodioxin-3-yl)methanone
Formula: C23H25N5O5
Exact mass: 451.18557
SMILES: COC1=C(C=C2C(=C1)C(=NC(=N2)N3CCN(CC3)C(=O)C4COC5=CC=CC=C5O4)N)OC
InChI: InChI=1S/C23H25N5O5/c1-30-18-11-14-15(12-19(18)31-2)25-23(26-21(14)24)28-9-7-27(8-10-28)22(29)20-13-32-16-5-3-4-6-17(16)33-20/h3-6,11-12,20H,7-10,13H2,1-2H3,(H2,24,25,26)
Instrument: Q Exactive Orbitrap Thermo Scientific
Instrument type: LC-ESI-QFT
Ms type: MS2
Ion mode: POSITIVE
Ionization: ESI
Fragmentation mode: HCD
Collision energy: 60 (nominal)
Resolution: 35000
Column name: XBridge C18 3.5um, 2.1x50mm, Waters
Retention time: 7.2 min
Base peak: 452.1933
Precursor m/z: 452.1928
Precursor type: [M+H]+
m/z	relative intensity	assigned
55.0179	19	C3H3O+
56.0496	2	C3H6N+
65.0387	1	C5H5+
68.0495	1	C4H6N+
69.0336	8	C4H5O+
70.0652	45	C4H8N+
71.0604	1	C3H7N2+
79.0543	22	C6H7+
80.0496	8	C5H6N+
81.0336	1	C5H5O+
81.0575	2	C5H7N+
82.0652	27	C5H8N+
85.076	1	C4H9N2+
87.0918	5	C4H11N2+
94.0652	1	C6H8N+
95.0492	11	C6H7O+
96.0444	2	C5H6NO+
96.0808	12	C6H10N+
98.0601	284	C5H8NO+
105.0448	1	C6H5N2+
106.0655	1	C7H8N+
107.0493	33	C7H7O+
109.0285	1	C6H5O2+
121.0284	2	C7H5O2+
123.0918	1	C7H11N2+
124.0758	65	C7H10NO+
135.0442	103	C8H7O2+
141.102	1	C7H13N2O+
163.0394	12	C9H7O3+
174.0904	1	C9H10N4+
177.0658	6	C9H9N2O2+
177.0771	8	C8H9N4O+
186.0661	1	C10H8N3O+
186.0902	6	C10H10N4+
189.0662	1	C10H9N2O2+
189.077	4	C9H9N4O+
191.0817	6	C10H11N2O2+
201.0772	5	C10H9N4O+
202.085	13	C10H10N4O+
203.0929	94	C10H11N4O+
204.0771	35	C10H10N3O2+
205.0723	68	C9H9N4O2+
205.0974	6	C11H13N2O2+
206.0803	31	C9H10N4O2+
206.092	2	C10H12N3O2+
214.0615	1	C11H8N3O2+
214.0857	1	C11H10N4O+
215.0931	1	C11H11N4O+
217.0725	19	C10H9N4O2+
218.0804	7	C10H10N4O2+
219.0887	9	C10H11N4O2+
220.0959	40	C10H12N4O2+
221.1036	294	C10H13N4O2+
222.0874	14	C10H12N3O3+
229.0722	15	C11H9N4O2+
229.1086	5	C12H13N4O+
230.0804	6	C11H10N4O2+
230.0924	4	C12H12N3O2+
231.088	361	C11H11N4O2+
232.0958	204	C11H12N4O2+
233.1036	166	C11H13N4O2+
234.1115	5	C11H14N4O2+
243.0881	9	C12H11N4O2+
244.096	4	C12H12N4O2+
244.1192	2	C12H14N5O+
245.1037	84	C12H13N4O2+
246.1119	1	C12H14N4O2+
246.1352	10	C12H16N5O+
247.1193	999	C12H15N4O2+
253.1325	7	C14H15N5+
255.0878	2	C13H11N4O2+
256.0944	1	C13H12N4O2+
257.1036	24	C13H13N4O2+
258.0993	1	C12H12N5O2+
258.1115	7	C13H14N4O2+
259.1194	35	C13H15N4O2+
260.1145	9	C12H14N5O2+
261.1223	1	C12H15N5O2+
271.119	10	C14H15N4O2+
272.1144	12	C13H14N5O2+
273.122	4	C13H15N5O2+
273.1349	23	C14H17N4O2+
274.1302	48	C13H16N5O2+
275.1142	4	C13H15N4O3+
275.1378	8	C13H17N5O2+
281.1278	10	C15H15N5O+
282.1353	22	C15H16N5O+
283.1423	1	C15H17N5O+
284.1147	1	C16H16N2O3+
285.098	8	C14H13N4O3+
286.1079	1	C16H16NO4+
286.1294	1	C14H16N5O2+
287.1381	5	C14H17N5O2+
288.1459	55	C14H18N5O2+
290.1615	243	C14H20N5O2+
296.1142	10	C15H14N5O2+
299.1378	7	C15H17N5O2+
300.1457	22	C15H18N5O2+
301.13	29	C15H17N4O3+
302.1622	2	C15H20N5O2+
308.1141	1	C16H14N5O2+
310.1302	169	C18H18N2O3+
311.1381	12	C16H17N5O2+
314.1251	1	C15H16N5O3+
324.1449	2	C17H18N5O2+
326.1616	62	C17H20N5O2+
328.1408	138	C16H18N5O3+
329.1488	21	C16H19N5O3+
342.1562	1	C17H20N5O3+
344.1721	194	C17H22N5O3+
436.1634	12	C22H22N5O5+
