Mass spectrum: Dropropizine; LC-ESI-QFT; MS2; CE: 75; R=35000; [M+H]+
Name: Dropropizine
Name: 3-(4-phenylpiperazin-1-yl)propane-1,2-diol
Formula: C13H20N2O2
Exact mass: 236.15248
SMILES: C1CN(CCN1CC(CO)O)C2=CC=CC=C2
InChI: InChI=1S/C13H20N2O2/c16-11-13(17)10-14-6-8-15(9-7-14)12-4-2-1-3-5-12/h1-5,13,16-17H,6-11H2
Instrument: Q Exactive Orbitrap Thermo Scientific
Instrument type: LC-ESI-QFT
Ms type: MS2
Ion mode: POSITIVE
Ionization: ESI
Fragmentation mode: HCD
Collision energy: 75 (nominal)
Resolution: 35000
Column name: XBridge C18 3.5um, 2.1x50mm, Waters
Retention time: 2.9 min
Base peak: 237.1598
Precursor m/z: 237.1598
Precursor type: [M+H]+
m/z	relative intensity	assigned
51.0229	1	C4H3+
53.0387	1	C4H5+
54.0339	1	C3H4N+
56.0495	69	C3H6N+
57.0335	17	C3H5O+
57.0573	2	C3H7N+
58.0652	30	C3H8N+
65.0386	3	C5H5+
67.0417	2	C4H5N+
67.0542	1	C5H7+
68.0495	27	C4H6N+
70.0651	484	C4H8N+
71.0492	1	C4H7O+
72.0807	30	C4H10N+
74.06	45	C3H8NO+
75.044	7	C3H7O2+
77.0385	31	C6H5+
78.0463	3	C6H6+
79.0542	19	C6H7+
80.0495	9	C5H6N+
81.0571	1	C5H7N+
82.0651	44	C5H8N+
83.0603	2	C4H7N2+
84.0807	138	C5H10N+
86.0601	2	C4H8NO+
88.0756	9	C4H10NO+
91.0542	60	C7H7+
92.0495	19	C6H6N+
93.0573	34	C6H7N+
93.0698	33	C7H9+
94.0651	26	C6H8N+
95.0491	81	C6H7O+
96.0807	16	C6H10N+
97.076	2	C5H9N2+
100.0757	109	C5H10NO+
103.0542	84	C8H7+
104.0494	435	C7H6N+
105.0447	30	C6H5N2+
105.0573	11	C7H7N+
105.0698	6	C8H9+
106.0651	75	C7H8N+
114.0912	6	C6H12NO+
115.0543	2	C9H7+
116.0492	2	C8H6N+
116.0617	2	C9H8+
117.0572	37	C8H7N+
117.0698	2	C9H9+
118.065	259	C8H8N+
118.0862	169	C5H12NO2+
119.0729	36	C8H9N+
120.0807	999	C8H10N+
130.065	22	C9H8N+
130.0862	6	C6H12NO2+
131.0606	12	C8H7N2+
131.073	26	C9H9N+
132.0807	418	C9H10N+
133.0759	2	C8H9N2+
133.0885	2	C9H11N+
134.0964	19	C9H12N+
143.0731	3	C10H9N+
144.0807	36	C10H10N+
145.076	62	C9H9N2+
146.0965	30	C10H12N+
147.0918	10	C9H11N2+
158.0969	1	C11H12N+
159.0917	78	C10H11N2+
160.0995	488	C10H12N2+
161.1074	6	C10H13N2+
162.115	2	C10H14N2+
163.123	21	C10H15N2+
173.1074	22	C11H13N2+
174.115	20	C11H14N2+
175.1228	29	C11H15N2+
186.115	17	C12H14N2+
188.1307	6	C12H16N2+
189.1387	6	C12H17N2+
201.1384	7	C13H17N2+
219.1498	2	C13H19N2O+
237.1599	22	C13H21N2O2+
