Mass spectrum: Letrozole; LC-ESI-QFT; MS2; CE: 60; R=35000; [M+H]+
Name: Letrozole
Name: 4-[(4-cyanophenyl)-(1,2,4-triazol-1-yl)methyl]benzonitrile
Formula: C17H11N5
Exact mass: 285.10145
SMILES: C1=CC(=CC=C1C#N)C(C2=CC=C(C=C2)C#N)N3C=NC=N3
InChI: InChI=1S/C17H11N5/c18-9-13-1-5-15(6-2-13)17(22-12-20-11-21-22)16-7-3-14(10-19)4-8-16/h1-8,11-12,17H
Instrument: Q Exactive Plus Orbitrap Thermo Scientific
Instrument type: LC-ESI-QFT
Ms type: MS2
Ion mode: POSITIVE
Ionization: ESI
Fragmentation mode: HCD
Collision energy: 60 (nominal)
Resolution: 35000
Column name: XBridge C18 3.5um, 2.1x50mm, Waters
Retention time: 6.6 min
Base peak: 286.1083
Precursor m/z: 286.1087
Precursor type: [M+H]+
m/z	relative intensity	assigned
163.0539	2	C13H7+
166.0652	1	C12H8N+
177.0573	42	C13H7N+
189.0571	4	C14H7N+
190.0651	999	C14H8N+
191.0602	1	C13H7N2+
193.0523	1	C13H7NO+
202.0525	4	C14H6N2+
208.0758	71	C14H10NO+
215.0604	205	C15H7N2+
216.0683	72	C15H8N2+
217.0761	264	C15H9N2+
218.0712	10	C14H8N3+
235.0865	6	C15H11N2O+
