Mass spectrum: Atenolol-desisopropyl; LC-ESI-QFT; MS2; CE: 15; R=35000; [M+H]+
Name: Atenolol-desisopropyl
Name: 4-(3-Amino-2-hydroxypropoxy)phenylacetamide
Formula: C11H16N2O3
Exact mass: 224.11609
SMILES: c1cc(ccc1CC(=O)N)OCC(CN)O
InChI: InChI=1S/C11H16N2O3/c12-6-9(14)7-16-10-3-1-8(2-4-10)5-11(13)15/h1-4,9,14H,5-7,12H2,(H2,13,15)
Instrument: Q Exactive Plus Orbitrap Thermo Scientific
Instrument type: LC-ESI-QFT
Ms type: MS2
Ion mode: POSITIVE
Ionization: ESI
Fragmentation mode: HCD
Collision energy: 15 (nominal)
Resolution: 35000
Column name: XBridge C18 3.5um, 2.1x50mm, Waters
Retention time: 1.0 min
Base peak: 225.1233
Precursor m/z: 225.1234
Precursor type: [M+H]+
m/z	relative intensity	assigned
56.0494	11	C3H6N+
74.06	71	C3H8NO+
145.0648	10	C10H9O+
152.0707	1	C8H10NO2+
162.0914	15	C10H12NO+
163.0755	1	C10H11O2+
164.0707	3	C9H10NO2+
173.06	3	C11H9O2+
178.0863	25	C10H12NO2+
180.1019	71	C10H14NO2+
190.0863	120	C11H12NO2+
207.1131	3	C11H15N2O2+
208.0969	122	C11H14NO3+
225.1234	999	C11H17N2O3+
