Mass spectrum: MCLW; LC-ESI-QFT; MS2; CE: 180%; R=17500; [M-H]-
Name: MCLW
Name: Microcystin LW
Name: (5R,8S,11R,12S,15S,18S,19S,22R)-15-(1H-indol-3-ylmethyl)-18-[(1E,3E,5S,6S)-6-methoxy-3,5-dimethyl-7-phenylhepta-1,3-dienyl]-1,5,12,19-tetramethyl-2-methylidene-8-(2-methylpropyl)-3,6,9,13,16,20,25-heptaoxo-1,4,7,10,14,17,21-heptazacyclopentacosane-11,22-dicarboxylic acid
Class: NA
Formula: C54H72N8O12
Exact mass: 1024.5270
SMILES: CO[C@@H](Cc1ccccc1)[C@@H](C)/C=C(C)/C=C/[C@@H]2NC(=O)[C@H](Cc3c[nH]c4ccccc34)NC(=O)[C@@H](C)[C@@H](NC(=O)[C@H](CC(C)C)NC(=O)[C@@H](C)NC(=O)C(=C)N(C)C(=O)CC[C@@H](NC(=O)[C@H]2C)C(O)=O)C(O)=O
InChI: InChI=1S/C54H72N8O12/c1-29(2)24-42-52(69)61-46(54(72)73)33(6)48(65)59-43(27-37-28-55-40-19-15-14-18-38(37)40)51(68)57-39(21-20-30(3)25-31(4)44(74-10)26-36-16-12-11-13-17-36)32(5)47(64)58-41(53(70)71)22-23-45(63)62(9)35(8)50(67)56-34(7)49(66)60-42/h11-21,25,28-29,31-34,39,41-44,46,55H,8,22-24,26-27H2,1-7,9-10H3,(H,56,67)(H,57,68)(H,58,64)(H,59,65)(H,60,66)(H,61,69)(H,70,71)(H,72,73)/b21-20+,30-25+/t31-,32-,33-,34+,39-,41+,42-,43-,44-,46+/m0/s1
Instrument: Q Exactive Plus Orbitrap Thermo Scientific
Instrument type: LC-ESI-QFT
Ms type: MS2
Ion mode: NEGATIVE
Ionization: ESI
Fragmentation mode: HCD
Collision energy: 180 % (nominal)
Resolution: 17500
Column name: XBridge C18 3.5um, 2.1x50mm, Waters
Retention time: 11.783 min
Base peak: 1023.5204
Precursor m/z: 1023.5197
Precursor type: [M-H]-
m/z	relative intensity	assigned
72.0457	253	C3H6NO-
73.0406	146	C2H5N2O-
74.0249	348	C2H4NO2-
80.0505	189	C5H6N-
81.022	126	C4H3NO-
81.0459	68	C4H5N2-
82.0172	120	C3H2N2O-
82.0298	249	C4H4NO-
82.0663	262	C5H8N-
83.0251	275	C3H3N2O-
84.0455	517	C4H6NO-
84.082	71	C5H10N-
87.0565	260	C3H7N2O-
95.025	250	C4H3N2O-
96.0332	88	C4H4N2O-
96.0455	249	C5H6NO-
96.0818	79	C6H10N-
97.0407	174	C4H5N2O-
99.0564	130	C4H7N2O-
108.0212	152	C6H4O2-
108.0329	291	C5H4N2O-
108.0455	56	C6H6NO-
109.017	446	C5H3NO2-
109.0409	924	C5H5N2O-
110.0249	999	C5H4NO2-
110.0358	127	C4H4N3O-
111.0201	137	C4H3N2O2-
112.0405	278	C5H6NO2-
112.0769	121	C6H10NO-
113.0355	114	C4H5N2O2-
116.0507	606	C8H6N-
122.025	93	C6H4NO2-
123.0201	130	C5H3N2O2-
123.0327	170	C6H5NO2-
123.0565	158	C6H7N2O-
124.0402	504	C6H6NO2-
125.0594	285	C5H7N3O-
127.0512	305	C5H7N2O2-
128.0355	321	C5H6NO3-
129.1035	197	C6H13N2O-
130.0663	175	C9H8N-
135.0327	120	C7H5NO2-
138.0437	164	C6H6N2O2-
139.088	130	C7H11N2O-
140.0504	255	C10H6N-
142.0659	535	C10H8N-
150.0561	74	C8H8NO2-
165.1034	124	C9H13N2O-
168.0457	76	C11H6NO-
182.1293	186	C9H16N3O-
234.0538	92	C12H10O5-
