Mass spectrum: Flocoumafen; LC-ESI-QFT; MS2; CE: 90%; R=17500; [M+H]+
Name: Flocoumafen
Name: 4-hydroxy-3-[3-[4-[[4-(trifluoromethyl)phenyl]methoxy]phenyl]-1,2,3,4-tetrahydronaphthalen-1-yl]chromen-2-one
Formula: C33H25F3O4
Exact mass: 542.1705
SMILES: C1C(CC2=CC=CC=C2C1C3=C(C4=CC=CC=C4OC3=O)O)C5=CC=C(C=C5)OCC6=CC=C(C=C6)C(F)(F)F
InChI: InChI=1S/C33H25F3O4/c34-33(35,36)24-13-9-20(10-14-24)19-39-25-15-11-21(12-16-25)23-17-22-5-1-2-6-26(22)28(18-23)30-31(37)27-7-3-4-8-29(27)40-32(30)38/h1-16,23,28,37H,17-19H2
Instrument: Exploris 240 Orbitrap Thermo Scientific
Instrument type: LC-ESI-QFT
Ms type: MS2
Ion mode: POSITIVE
Ionization: ESI
Fragmentation mode: HCD
Collision energy: 90 % (nominal)
Resolution: 17500
Column name: XBridge C18 3.5um, 2.1x50mm, Waters
Retention time: 15.796 min
Base peak: 543.1776
Precursor m/z: 543.1778
Precursor type: [M+H]+
m/z	relative intensity	assigned
65.0385	25	C5H5+
77.0385	40	C6H5+
79.0543	90	C6H7+
83.0291	7	C5H4F+
91.0542	139	C7H7+
93.0333	6	C6H5O+
95.0491	35	C6H7O+
103.0541	12	C8H7+
107.0491	96	C7H7O+
109.0448	675	C7H6F+
115.0543	25	C9H7+
121.0285	81	C7H5O2+
127.0542	4	C10H7+
128.062	47	C10H8+
129.0698	24	C10H9+
139.0354	64	C8H5F2+
141.07	12	C11H9+
145.0646	4	C10H9O+
152.0621	8	C12H8+
153.07	9	C12H9+
159.0416	999	C8H6F3+
165.0702	21	C13H9+
167.0856	16	C13H11+
175.0395	18	C10H7O3+
178.0778	8	C14H10+
202.0774	4	C16H10+
215.0853	3	C17H11+
