Mass spectrum: Butocarboxim; LC-ESI-QFT; MS2; CE: 15%; R=17500; [M+H]+
Name: Butocarboxim
Name: (3-methylsulfanylbutan-2-ylideneamino) N-methylcarbamate
Formula: C7H14N2O2S
Exact mass: 190.0776
SMILES: CC(C(=NOC(=O)NC)C)SC
InChI: InChI=1S/C7H14N2O2S/c1-5(6(2)12-4)9-11-7(10)8-3/h6H,1-4H3,(H,8,10)
Instrument: Exploris 240 Orbitrap Thermo Scientific
Instrument type: LC-ESI-QFT
Ms type: MS2
Ion mode: POSITIVE
Ionization: ESI
Fragmentation mode: HCD
Collision energy: 15 % (nominal)
Resolution: 17500
Column name: XBridge C18 3.5um, 2.1x50mm, Waters
Retention time: 4.818 min
Base peak: 213.0669
Precursor m/z: 191.0849
Precursor type: [M+H]+
m/z	relative intensity	assigned
75.0263	999	C3H7S+
