Mass spectrum: Dinoseb; LC-ESI-ITFT; MS2; CE: 45%; R=7500; [M-H]-
Name: Dinoseb
Name: 2,4-dinitro-6-sec-butyl-phenol
Formula: C10H12N2O5
Exact mass: 240.0746
SMILES: OC1=C([N+]([O-])=O)C=C([N+]([O-])=O)C=C1C(C)CC
InChI: InChI=1S/C10H12N2O5/c1-3-6(2)8-4-7(11(14)15)5-9(10(8)13)12(16)17/h4-6,13H,3H2,1-2H3
Instrument: LTQ Orbitrap XL Thermo Scientific
Instrument type: LC-ESI-ITFT
Ms type: MS2
Ion mode: NEGATIVE
Ionization: ESI
Fragmentation mode: HCD
Collision energy: 45 % (nominal)
Resolution: 7500
Column name: XBridge C18 3.5um, 2.1x50mm, Waters
Retention time: 13.0 min
Base peak: 239.0673
Precursor m/z: 239.0673
Precursor type: [M-H]-
m/z	relative intensity	assigned
151.0761	9	C9H11O2-
176.0356	8	C9H6NO3-
179.0718	23	C10H11O3-
180.0296	11	C8H6NO4-
190.051	6	C10H8NO3-
192.0667	42	C10H10NO3-
193.0255	151	C8H5N2O4-
194.0458	234	C9H8NO4-
207.0413	29	C9H7N2O4-
208.0606	9	C10H10NO4-
209.0211	16	C8H5N2O5-
209.0692	27	C10H11NO4-
210.0278	34	C8H6N2O5-
221.0575	21	C10H9N2O4-
222.0645	62	C10H10N2O4-
239.0673	999	C10H11N2O5-
