Mass spectrum: Pyridaphenthion; LC-ESI-QFT; MS2; CE: 150%; R=17500; [M+H]+
Name: Pyridaphenthion
Name: 6-diethoxyphosphinothioyloxy-2-phenylpyridazin-3-one
Formula: C14H17N2O4PS
Exact mass: 340.0647
SMILES: CCOP(=S)(OCC)OC1=NN(C(=O)C=C1)C2=CC=CC=C2
InChI: InChI=1S/C14H17N2O4PS/c1-3-18-21(22,19-4-2)20-13-10-11-14(17)16(15-13)12-8-6-5-7-9-12/h5-11H,3-4H2,1-2H3
Instrument: Exploris 240 Orbitrap Thermo Scientific
Instrument type: LC-ESI-QFT
Ms type: MS2
Ion mode: POSITIVE
Ionization: ESI
Fragmentation mode: HCD
Collision energy: 150 % (nominal)
Resolution: 17500
Column name: XBridge C18 3.5um, 2.1x50mm, Waters
Retention time: 9.373 min
Base peak: 341.0719
Precursor m/z: 341.0719
Precursor type: [M+H]+
m/z	relative intensity	assigned
50.0152	9	C4H2+
51.0229	135	C4H3+
52.0183	19	C3H2N+
53.0022	16	C3HO+
53.0386	34	C4H5+
64.9787	188	H2O2P+
65.0386	999	C5H5+
75.0228	15	C6H3+
77.0386	160	C6H5+
78.9402	147	OPS+
80.0133	18	H5N2OP+
80.0496	32	C5H6N+
89.0386	72	C7H5+
91.0419	13	C2H8N2P+
91.0545	28	C7H7+
92.0495	87	C6H6N+
93.0573	44	C6H7N+
95.0491	28	C6H7O+
96.9508	176	H2O2PS+
98.9844	16	H4O4P+
103.0419	14	C3H8N2P+
105.0449	49	C6H5N2+
114.9616	46	H4O3PS+
116.0496	17	C4H9N2P+
143.0611	15	C3H13NO3S+
