Mass spectrum: Amoxicillin; LC-ESI-QFT; MS2; CE: 15; R=35000; [M-H]-
Name: Amoxicillin
Name: Amoxicillin anhydrous
Name: (2S,5R,6R)-6-[[(2R)-2-amino-2-(4-hydroxyphenyl)-1-oxoethyl]amino]-3,3-dimethyl-7-oxo-4-thia-1-azabicyclo[3.2.0]heptane-2-carboxylic acid
Formula: C16H19N3O5S
Exact mass: 365.10454
SMILES: CC1(C)S[C@@H]2[C@H](NC(=O)[C@H](N)C3=CC=C(O)C=C3)C(=O)N2[C@H]1C(O)=O
InChI: InChI=1S/C16H19N3O5S/c1-16(2)11(15(23)24)19-13(22)10(14(19)25-16)18-12(21)9(17)7-3-5-8(20)6-4-7/h3-6,9-11,14,20H,17H2,1-2H3,(H,18,21)(H,23,24)/t9-,10-,11+,14-/m1/s1
Instrument: Q Exactive Orbitrap Thermo Scientific
Instrument type: LC-ESI-QFT
Ms type: MS2
Ion mode: NEGATIVE
Ionization: ESI
Fragmentation mode: HCD
Collision energy: 15 (nominal)
Resolution: 35000
Column name: XBridge C18 3.5um, 2.1x50mm, Waters
Retention time: 2.2 min
Base peak: 364.0974
Precursor m/z: 364.0973
Precursor type: [M-H]-
m/z	relative intensity	assigned
72.9991	2	C2H3NS-
74.0068	2	C2H4NS-
83.025	3	C3H3N2O-
86.0071	1	C3H4NS-
89.0179	3	C2H5N2S-
93.0346	35	C6H5O-
99.9862	5	C3H2NOS-
120.0455	3	C7H6NO-
129.0129	199	C4H5N2OS-
132.0215	1	C8H4O2-
133.0294	8	C8H5O2-
137.0066	1	C7H5OS-
146.0613	4	C9H8NO-
162.0558	2	C9H8NO2-
163.0224	4	C9H7OS-
171.0598	6	C7H11N2OS-
172.0404	7	C10H6NO2-
189.067	19	C10H9N2O2-
206.028	389	C10H8NO2S-
223.0546	999	C10H11N2O2S-
226.0655	8	C9H12N3O2S-
254.0696	1	C14H10N2O3-
269.0932	1	C15H13N2O3-
303.0809	36	C15H15N2O3S-
320.1074	59	
