Mass spectrum: Phenytoin; LC-ESI-QFT; MS2; CE: 75; R=35000; [M-H]-
Name: Phenytoin
Name: 5,5-diphenylimidazolidine-2,4-dione
Formula: C15H12N2O2
Exact mass: 252.08988
SMILES: C1=CC=C(C=C1)C2(C(=O)NC(=O)N2)C3=CC=CC=C3
InChI: InChI=1S/C15H12N2O2/c18-13-15(17-14(19)16-13,11-7-3-1-4-8-11)12-9-5-2-6-10-12/h1-10H,(H2,16,17,18,19)
Instrument: Q Exactive Orbitrap Thermo Scientific
Instrument type: LC-ESI-QFT
Ms type: MS2
Ion mode: NEGATIVE
Ionization: ESI
Fragmentation mode: HCD
Collision energy: 75 (nominal)
Resolution: 35000
Column name: XBridge C18 3.5um, 2.1x50mm, Waters
Retention time: 7.6 min
Base peak: 251.0827
Precursor m/z: 251.0826
Precursor type: [M-H]-
m/z	relative intensity	assigned
93.0345	1	C6H5O-
102.0349	999	C7H4N-
105.0346	2	C7H5O-
118.0298	1	C7H4NO-
120.0457	2	C7H6NO-
121.0297	2	C7H5O2-
131.0377	2	C8H5NO-
146.0248	17	C8H4NO2-
207.0693	1	C14H9NO-
208.076	7	C14H10NO-
