Mass spectrum: Ranitidine; LC-ESI-ITFT; MS2; CE: 60%; R=7500; [M+H]+
Name: Ranitidine
Name: 1,1-Ethenediamine, N-(2-(((5-((dimethylamino)methyl)-2-furanyl)methyl)thio)ethyl)-N'-methyl-2-nitro-
Name: 1-N'-[2-[[5-(dimethylaminomethyl)furan-2-yl]methylsulfanyl]ethyl]-1-N-methyl-2-nitroethene-1,1-diamine
Formula: C13H22N4O3S
Exact mass: 314.1413
SMILES: CN\C(NCCSCC1=CC=C(CN(C)C)O1)=C/[N+]([O-])=O
InChI: InChI=1S/C13H22N4O3S/c1-14-13(9-17(18)19)15-6-7-21-10-12-5-4-11(20-12)8-16(2)3/h4-5,9,14-15H,6-8,10H2,1-3H3/b13-9+
Instrument: LTQ Orbitrap XL Thermo Scientific
Instrument type: LC-ESI-ITFT
Ms type: MS2
Ion mode: POSITIVE
Ionization: ESI
Fragmentation mode: HCD
Collision energy: 60 % (nominal)
Resolution: 7500
Column name: XBridge C18 3.5um, 2.1x50mm, Waters
Retention time: 1.9 min
Base peak: 315.1494
Precursor m/z: 315.1485
Precursor type: [M+H]+
m/z	relative intensity	assigned
55.0415	11	C3H5N+
56.0496	16	C3H6N+
61.0107	11	C2H5S+
71.0601	14	C3H7N2+
81.0335	203	C5H5O+
83.0604	29	C4H7N2+
84.0683	29	C4H8N2+
88.0219	14	C3H6NS+
94.0652	10	C6H8N+
95.049	38	C6H7O+
97.076	222	C5H9N2+
98.0838	277	C5H10N2+
101.0291	14	C4H7NS+
102.0372	999	C4H8NS+
107.0492	59	C7H7O+
108.0807	13	C7H10N+
110.0599	18	C6H8NO+
110.0965	86	C7H12N+
117.0484	24	C4H9N2S+
118.0323	11	C4H8NOS+
121.0759	45	C7H9N2+
124.0757	52	C7H10NO+
125.0056	797	C6H5OS+
129.0481	30	C5H9N2S+
130.0558	345	C5H10N2S+
132.0443	12	C8H6NO+
133.0522	21	C8H7NO+
135.0267	15	C8H7S+
135.0916	87	C8H11N2+
138.0913	18	C8H12NO+
147.0682	17	C9H9NO+
148.0756	144	C9H10NO+
149.0708	37	C8H9N2O+
151.0214	17	C8H7OS+
163.0867	56	C9H11N2O+
164.0943	48	C9H12N2O+
165.1021	107	C9H13N2O+
167.0641	30	C8H11N2S+
176.0487	90	C5H10N3O2S+
177.1022	128	C10H13N2O+
178.0321	33	C9H8NOS+
178.1101	10	C10H14N2O+
181.0797	61	C9H13N2S+
191.118	108	C11H15N2O+
192.0474	34	C10H10NOS+
193.0552	20	C10H11NOS+
223.0885	17	C9H13N5S+
224.0972	7	C11H16N2OS+
