Mass spectrum: Prothioconazole-desethio; LC-ESI-QFT; MS2; CE: 45; R=35000; [M+H]+
Name: Prothioconazole-desethio
Name: 1H-1,2,4-Triazole-1-ethanol, alpha-(1-chlorocyclopropyl)-alpha-((2-chlorophenyl)methyl)-
Name: 2-(1-chloranylcyclopropyl)-1-(2-chlorophenyl)-3-(1,2,4-triazol-1-yl)propan-2-ol
Formula: C14H15Cl2N3O
Exact mass: 311.05922
SMILES: Clc1ccccc1CC(O)(C2(Cl)CC2)Cn3ncnc3
InChI: InChI=1S/C14H15Cl2N3O/c15-12-4-2-1-3-11(12)7-14(20,13(16)5-6-13)8-19-10-17-9-18-19/h1-4,9-10,20H,5-8H2
Instrument: Q Exactive Orbitrap Thermo Scientific
Instrument type: LC-ESI-QFT
Ms type: MS2
Ion mode: POSITIVE
Ionization: ESI
Fragmentation mode: HCD
Collision energy: 45 (nominal)
Resolution: 35000
Column name: XBridge C18 3.5um, 2.1x50mm, Waters
Retention time: 12.1 min
Base peak: 312.0669
Precursor m/z: 312.0665
Precursor type: [M+H]+
m/z	relative intensity	assigned
65.0386	5	C5H5+
67.0544	3	C5H7+
70.04	999	C2H4N3+
74.9997	2	C3H4Cl+
83.0492	4	C5H7O+
89.0153	1	C4H6Cl+
89.0386	1	C7H5+
101.0153	3	C5H6Cl+
103.0542	4	C8H7+
113.0153	3	C6H6Cl+
115.0543	4	C9H7+
116.0621	4	C9H8+
119.0491	1	C8H7O+
125.0153	375	C7H6Cl+
128.0619	3	C10H8+
129.07	4	C10H9+
130.0778	1	C10H10+
137.0153	1	C8H6Cl+
139.0309	30	C8H8Cl+
141.0698	2	C11H9+
142.0779	11	C11H10+
143.0858	3	C11H11+
144.0934	5	C11H12+
149.0153	4	C9H6Cl+
151.031	31	C9H8Cl+
153.0699	16	C12H9+
154.0777	26	C12H10+
155.0259	4	C8H8ClO+
158.9762	6	C7H5Cl2+
162.023	2	C10H7Cl+
163.0307	5	C10H8Cl+
165.0466	4	C10H10Cl+
177.0466	9	C11H10Cl+
179.0621	3	C11H12Cl+
189.0467	22	C12H10Cl+
190.0546	2	C12H11Cl+
196.9921	1	C10H7Cl2+
312.0666	39	C14H16Cl2N3O+
