Mass spectrum: Fenpiclonil; LC-ESI-QFT; MS2; CE: 90%; R=17500; [M+H]+
Name: Fenpiclonil
Name: 4-(2,3-dichlorophenyl)-1H-pyrrole-3-carbonitrile
Formula: C11H6Cl2N2
Exact mass: 235.9908
SMILES: C1=CC(=C(C(=C1)Cl)Cl)C2=CNC=C2C#N
InChI: InChI=1S/C11H6Cl2N2/c12-10-3-1-2-8(11(10)13)9-6-15-5-7(9)4-14/h1-3,5-6,15H
Instrument: Exploris 240 Orbitrap Thermo Scientific
Instrument type: LC-ESI-QFT
Ms type: MS2
Ion mode: POSITIVE
Ionization: ESI
Fragmentation mode: HCD
Collision energy: 90 % (nominal)
Resolution: 17500
Column name: XBridge C18 3.5um, 2.1x50mm, Waters
Retention time: 8.123 min
Base peak: 236.998
Precursor m/z: 236.9981
Precursor type: [M+H]+
m/z	relative intensity	assigned
89.0386	13	C7H5+
115.0417	22	C8H5N+
115.0545	57	C9H7+
124.0077	11	C7H5Cl+
138.0341	38	C10H4N+
139.0417	134	C10H5N+
140.0493	999	C10H6N+
147	23	C9H4Cl+
148.0075	36	C9H5Cl+
149.0148	18	C9H6Cl+
151.0182	81	C8H6ClN+
165.0446	67	C11H5N2+
166.0524	605	C11H6N2+
167.0603	387	C11H7N2+
174.0102	390	C10H5ClN+
175.0185	114	C10H6ClN+
182.9763	72	C9H5Cl2+
201.0211	19	C11H6ClN2+
202.029	726	C11H7ClN2+
