Mass spectrum: 4-Chlorophenoxyacetic Acid; LC-ESI-QFT; MS2; CE: 15%; R=17500; [M-H]-
Name: 4-Chlorophenoxyacetic Acid
Name: 2-(4-chlorophenoxy)acetic acid
Formula: C8H7ClO3
Exact mass: 186.0084
SMILES: C1=CC(=CC=C1OCC(=O)O)Cl
InChI: InChI=1S/C8H7ClO3/c9-6-1-3-7(4-2-6)12-5-8(10)11/h1-4H,5H2,(H,10,11)
Instrument: Exploris 240 Orbitrap Thermo Scientific
Instrument type: LC-ESI-QFT
Ms type: MS2
Ion mode: NEGATIVE
Ionization: ESI
Fragmentation mode: HCD
Collision energy: 15 % (nominal)
Resolution: 17500
Column name: XBridge C18 3.5um, 2.1x50mm, Waters
Retention time: 6.023 min
Base peak: 239.0497
Precursor m/z: 185.0011
Precursor type: [M-H]-
m/z	relative intensity	assigned
126.9957	999	C6H4ClO-
141.0113	48	C7H6ClO-
185.0011	909	C8H6ClO3-
