Mass spectrum: MCLY; LC-ESI-QFT; MS2; CE: 60%; R=17500; [M-H]-
Name: MCLY
Name: Microcystin LY
Name: (5R,8S,11R,12S,15S,18S,19S,22R)-15-[(4-hydroxyphenyl)methyl]-18-[(1E,3E,5S,6S)-6-methoxy-3,5-dimethyl-7-phenylhepta-1,3-dienyl]-1,5,12,19-tetramethyl-2-methylidene-8-(2-methylpropyl)-3,6,9,13,16,20,25-heptaoxo-1,4,7,10,14,17,21-heptazacyclopentacosane-11,22-dicarboxylic acid
Class: NA
Formula: C52H71N7O13
Exact mass: 1001.5110
SMILES: COC(Cc1ccccc1)C(C)\C=C(C)\C=C/C2NC(=O)C(Cc3ccc(O)cc3)NC(=O)C(C)C(NC(=O)C(CC(C)C)NC(=O)C(C)NC(=O)C(=C)N(C)C(=O)CCC(NC(=O)C2C)C(O)=O)C(O)=O
InChI: InChI=1S/C52H71N7O13/c1-28(2)24-40-50(67)58-44(52(70)71)32(6)46(63)56-41(26-36-17-19-37(60)20-18-36)49(66)54-38(21-16-29(3)25-30(4)42(72-10)27-35-14-12-11-13-15-35)31(5)45(62)55-39(51(68)69)22-23-43(61)59(9)34(8)48(65)53-33(7)47(64)57-40/h11-21,25,28,30-33,38-42,44,60H,8,22-24,26-27H2,1-7,9-10H3,(H,53,65)(H,54,66)(H,55,62)(H,56,63)(H,57,64)(H,58,67)(H,68,69)(H,70,71)/b21-16-,29-25+
Instrument: Q Exactive Plus Orbitrap Thermo Scientific
Instrument type: LC-ESI-QFT
Ms type: MS2
Ion mode: NEGATIVE
Ionization: ESI
Fragmentation mode: HCD
Collision energy: 60 % (nominal)
Resolution: 17500
Column name: XBridge C18 3.5um, 2.1x50mm, Waters
Retention time: 10.715 min
Base peak: 190.9277
Precursor m/z: 1000.5037
Precursor type: [M-H]-
m/z	relative intensity	assigned
71.0249	15	C2H3N2O-
72.0455	74	C3H6NO-
73.0296	19	C3H5O2-
74.0249	89	C2H4NO2-
82.0299	75	C4H4NO-
82.0663	44	C5H8N-
84.0455	80	C4H6NO-
87.0565	93	C3H7N2O-
88.0406	34	C3H6NO2-
93.0346	29	C6H5O-
96.0455	42	C5H6NO-
96.0818	14	C6H10N-
97.0408	39	C4H5N2O-
98.0247	25	C4H4NO2-
98.0609	17	C5H8NO-
99.0199	14	C3H3N2O2-
99.0564	210	C4H7N2O-
108.0328	22	C5H4N2O-
109.0169	34	C5H3NO2-
109.0407	35	C5H5N2O-
110.0248	500	C5H4NO2-
110.0488	15	
111.0201	56	C4H3N2O2-
111.0564	31	C5H7N2O-
112.0403	107	C5H6NO2-
112.0765	64	C6H10NO-
113.0357	67	C4H5N2O2-
117.0347	25	C8H5O-
119.0502	283	C8H7O-
123.0565	97	C6H7N2O-
124.0403	363	C6H6NO2-
125.0357	21	C5H5N2O2-
125.0595	34	C5H7N3O-
125.0715	24	C6H9N2O-
127.0511	111	C5H7N2O2-
127.0875	18	C6H11N2O-
128.0353	999	C5H6NO3-
129.1033	316	C6H13N2O-
130.0873	32	C6H12NO2-
131.0864	30	C10H11-
134.0608	32	C8H8NO-
138.0433	93	C6H6N2O2-
138.055	24	C5H6N4O-
139.0877	168	C7H11N2O-
141.0668	26	C6H9N2O2-
145.0292	72	C9H5O2-
149.0354	20	C7H5N2O2-
149.0718	20	C8H9N2O-
150.056	78	C8H8NO2-
153.0668	146	C7H9N2O2-
153.1036	46	C8H13N2O-
155.0823	110	C7H11N2O2-
155.1186	53	C8H15N2O-
162.0557	96	C9H8NO2-
165.0663	14	
165.1028	357	C9H13N2O-
167.0822	47	C8H11N2O2-
169.1338	18	C7H15N5-
180.1135	239	C7H12N6-
181.0973	25	C7H11N5O-
182.1291	512	C7H14N6-
200.1395	168	C7H16N6O-
208.1093	58	C10H14N3O2-
265.1657	130	C12H25O6-
