Mass spectrum: Triethylene Glycol Monododecyl Ether; LC-ESI-QFT; MS2; CE: 15%; R=17500; [M+H]+
Name: Triethylene Glycol Monododecyl Ether
Name: 2-[2-(2-dodecoxyethoxy)ethoxy]ethanol
Formula: C18H38O4
Exact mass: 318.2770
SMILES: CCCCCCCCCCCCOCCOCCOCCO
InChI: InChI=1S/C18H38O4/c1-2-3-4-5-6-7-8-9-10-11-13-20-15-17-22-18-16-21-14-12-19/h19H,2-18H2,1H3
Instrument: Exploris 240 Orbitrap Thermo Scientific
Instrument type: LC-ESI-QFT
Ms type: MS2
Ion mode: POSITIVE
Ionization: ESI
Fragmentation mode: HCD
Collision energy: 15 % (nominal)
Resolution: 17500
Column name: XBridge C18 3.5um, 2.1x50mm, Waters
Retention time: 16.060 min
Base peak: 319.284
Precursor m/z: 319.2843
Precursor type: [M+H]+
m/z	relative intensity	assigned
57.0699	56	C4H9+
71.0855	78	C5H11+
73.0647	12	C4H9O+
85.1012	69	C6H13+
89.0597	430	C4H9O2+
97.1009	14	C7H13+
99.117	18	C7H15+
107.0703	28	C4H11O3+
111.1169	8	C8H15+
113.1324	17	C8H17+
133.0859	280	C6H13O3+
151.0964	999	C6H15O4+
