Mass spectrum: Bicalutamide; LC-ESI-ITFT; MS2; CE: 35%; R=30000; [M-H]-
Name: Bicalutamide
Name: (2R)-N-[4-cyano-3-(trifluoromethyl)phenyl]-3-[(4-fluorophenyl)sulfonyl]-2-hydroxy-2-methylpropanamide
Formula: C18H14F4N2O4S
Exact mass: 430.0610
SMILES: c1(c(ccc(c1)NC([C@@](CS(c1ccc(F)cc1)(=O)=O)(C)O)=O)C#N)C(F)(F)F
InChI: InChI=1S/C18H14F4N2O4S/c1-17(26,10-29(27,28)14-6-3-12(19)4-7-14)16(25)24-13-5-2-11(9-23)15(8-13)18(20,21)22/h2-8,26H,10H2,1H3,(H,24,25)/t17-/m0/s1
Instrument: LTQ Orbitrap XL Thermo Scientific
Instrument type: LC-ESI-ITFT
Ms type: MS2
Ion mode: NEGATIVE
Ionization: ESI
Fragmentation mode: CID
Collision energy: 35 % (nominal)
Resolution: 30000
Column name: XBridge C18 3.5um, 2.1x50mm, Waters
Retention time: 9.7 min
Base peak: 429.0535
Precursor m/z: 429.0538
Precursor type: [M-H]-
m/z	relative intensity	assigned
184.0378	48	C9H5F3N-
185.0331	20	C8H4F3N2-
243.0132	18	C10H8FO4S-
255.0387	999	C11H6F3N2O2-
411.0435	7	C18H11F4N2O3S-
