Mass spectrum: MCLA; LC-ESI-QFT; MS2; CE: 60%; R=17500; [M-H]-
Name: MCLA
Name: Microcystin LA
Name: (5R,8S,11R,12S,15S,18S,19S,22R)-18-[(1E,3E,5S,6S)-6-methoxy-3,5-dimethyl-7-phenylhepta-1,3-dienyl]-1,5,12,15,19-pentamethyl-2-methylidene-8-(2-methylpropyl)-3,6,9,13,16,20,25-heptaoxo-1,4,7,10,14,17,21-heptazacyclopentacosane-11,22-dicarboxylic acid
Class: NA
Formula: C46H67N7O12
Exact mass: 909.4848
SMILES: CO[C@@H](Cc1ccccc1)[C@@H](C)\C=C(C)\C=C\[C@@H]2NC(=O)[C@H](C)NC(=O)[C@@H](C)[C@@H](NC(=O)[C@H](CC(C)C)NC(=O)[C@@H](C)NC(=O)C(=C)N(C)C(=O)CC[C@@H](NC(=O)[C@H]2C)C(O)=O)C(O)=O
InChI: InChI=1S/C46H67N7O12/c1-24(2)21-35-44(60)52-38(46(63)64)28(6)40(56)47-29(7)41(57)49-33(18-17-25(3)22-26(4)36(65-11)23-32-15-13-12-14-16-32)27(5)39(55)50-34(45(61)62)19-20-37(54)53(10)31(9)43(59)48-30(8)42(58)51-35/h12-18,22,24,26-30,33-36,38H,9,19-21,23H2,1-8,10-11H3,(H,47,56)(H,48,59)(H,49,57)(H,50,55)(H,51,58)(H,52,60)(H,61,62)(H,63,64)/b18-17+,25-22+/t26-,27-,28-,29-,30+,33-,34+,35-,36-,38+/m0/s1
Instrument: Q Exactive Plus Orbitrap Thermo Scientific
Instrument type: LC-ESI-QFT
Ms type: MS2
Ion mode: NEGATIVE
Ionization: ESI
Fragmentation mode: HCD
Collision energy: 60 % (nominal)
Resolution: 17500
Column name: XBridge C18 3.5um, 2.1x50mm, Waters
Retention time: 10.539 min
Base peak: 190.9277
Precursor m/z: 908.4775
Precursor type: [M-H]-
m/z	relative intensity	assigned
72.0454	68	C3H6NO-
73.0295	29	C3H5O2-
74.0248	93	C2H4NO2-
82.0298	65	C4H4NO-
82.0661	56	C5H8N-
84.0455	138	C4H6NO-
87.0566	123	C3H7N2O-
88.0403	16	C3H6NO2-
96.0455	28	C5H6NO-
96.082	32	C6H10N-
97.0408	62	C4H5N2O-
98.0613	24	C5H8NO-
99.0564	226	C4H7N2O-
108.0455	17	C6H6NO-
109.0172	22	C5H3NO2-
109.0404	47	C5H5N2O-
110.0248	258	C5H4NO2-
110.0611	37	C6H8NO-
111.0201	34	C4H3N2O2-
111.0566	103	C5H7N2O-
112.0409	81	C5H6NO2-
112.0768	53	C6H10NO-
113.0357	108	C4H5N2O2-
122.0975	35	C8H12N-
123.0327	48	C6H5NO2-
123.0563	77	C6H7N2O-
124.0404	190	C6H6NO2-
125.0356	26	C5H5N2O2-
125.0597	36	C5H7N3O-
125.0718	82	C6H9N2O-
127.0512	56	C5H7N2O2-
128.0353	999	C5H6NO3-
129.1033	367	C6H13N2O-
130.0875	26	C6H12NO2-
135.0565	33	C7H7N2O-
137.0719	92	C7H9N2O-
138.0432	49	C6H6N2O2-
139.0518	20	C6H7N2O2-
139.0875	200	C7H11N2O-
150.056	84	C8H8NO2-
152.0825	19	C7H10N3O-
153.0668	130	C7H9N2O2-
153.103	32	C8H13N2O-
155.0821	112	C7H11N2O2-
155.1187	39	C8H15N2O-
163.0512	43	C8H7N2O2-
165.0662	16	C6H7N5O-
165.103	318	C9H13N2O-
167.0822	54	C8H11N2O2-
169.1339	21	C7H15N5-
170.0921	26	C5H10N6O-
180.1135	189	C7H12N6-
182.1292	557	C7H14N6-
183.1133	52	C9H15N2O2-
198.1236	43	C7H14N6O-
200.1395	131	C7H16N6O-
208.1078	43	C8H12N6O-
265.1658	111	C12H25O6-
