Mass spectrum: Clothianidin; LC-ESI-ITFT; MS2; CE: 75%; R=7500; [M+H]+
Name: Clothianidin
Name: 1-[(2-chloranyl-1,3-thiazol-5-yl)methyl]-2-methyl-3-nitro-guanidine
Name: 1-[(2-chloro-1,3-thiazol-5-yl)methyl]-2-methyl-3-nitroguanidine
Formula: C6H8ClN5O2S
Exact mass: 249.0087
SMILES: Clc1ncc(s1)CN/C(=N/C)N[N+]([O-])=O
InChI: InChI=1S/C6H8ClN5O2S/c1-8-6(11-12(13)14)10-3-4-2-9-5(7)15-4/h2H,3H2,1H3,(H2,8,10,11)
Instrument: LTQ Orbitrap XL Thermo Scientific
Instrument type: LC-ESI-ITFT
Ms type: MS2
Ion mode: POSITIVE
Ionization: ESI
Fragmentation mode: HCD
Collision energy: 75 % (nominal)
Resolution: 7500
Column name: XBridge C18 3.5um, 2.1x50mm, Waters
Retention time: 4.9 min
Base peak: 250.0165
Precursor m/z: 250.016
Precursor type: [M+H]+
m/z	relative intensity	assigned
54.0338	14	C3H4N+
57.0447	17	C2H5N2+
58.9951	2	C2H3S+
59.9902	3	CH2NS+
61.9793	1	CHClN+
63.995	1	CH3ClN+
68.0371	2	C3H4N2+
69.0447	11	C3H5N2+
70.995	84	C3H3S+
78.0106	3	C2H5ClN+
78.9403	6	CClS+
79.0292	2	C4H3N2+
81.0446	4	C4H5N2+
82.0528	2	C4H6N2+
83.0605	6	C4H7N2+
86.0059	56	C3H4NS+
87.0138	4	C3H5NS+
87.9948	11	C3H3ClN+
90.0105	3	C3H5ClN+
95.9905	1	C4H2NS+
96.0556	15	C4H6N3+
97.04	2	C4H5N2O+
97.0635	2	C4H7N3+
98.0059	2	C4H4NS+
98.0711	4	C4H8N3+
99.0011	5	C3H3N2S+
100.0093	2	C3H4N2S+
101.0167	3	C3H5N2S+
108.0557	8	C5H6N3+
109.0636	8	C5H7N3+
110.0713	303	C5H8N3+
111.0791	197	C5H9N3+
112.009	8	C4H4N2S+
113.0168	645	C4H5N2S+
115.0323	3	C4H7N2S+
118.959	4	C3H2ClNS+
119.9669	32	C3H3ClNS+
121.9823	3	C6H2OS+
123.0668	1	C5H7N4+
125.0823	9	C5H9N4+
126.0121	14	C4H4N3S+
127.02	11	C4H5N3S+
128.0274	1	C4H6N3S+
128.0405	1	C5H8N2S+
131.9671	999	C4H3ClNS+
132.9747	43	C4H4ClNS+
134.9545	3	C3H2ClNOS+
135.066	2	C6H7N4+
138.0119	6	C5H4N3S+
142.0433	26	C5H8N3S+
143.0518	1	C5H9N3S+
146.9778	45	C4H4ClN2S+
147.9619	1	C4H3ClNOS+
147.9857	28	C4H5ClN2S+
152.028	2	C6H6N3S+
153.0229	26	C5H5N4S+
154.031	5	C5H6N4S+
167.0386	22	C6H7N4S+
168.0469	13	C6H8N4S+
169.0544	105	C6H9N4S+
171.9731	10	C5H3ClN3S+
172.9806	6	C5H4ClN3S+
174.9727	33	C5H4ClN2OS+
