Mass spectrum: Cortisone; LC-ESI-QFT; MS2; CE: 30; R=35000; [M+H]+
Name: Cortisone
Name: 17,21-Dihydroxypregn-4-ene-3,11,20-trione
Name: (8S,9S,10R,13S,14S,17R)-17-hydroxy-17-(2-hydroxyacetyl)-10,13-dimethyl-1,2,6,7,8,9,12,14,15,16-decahydrocyclopenta[a]phenanthrene-3,11-dione
Formula: C21H28O5
Exact mass: 360.19367
SMILES: O=C(CO)[C@@]3(O)CC[C@H]2[C@@H]4CC\C1=C\C(=O)CC[C@]1(C)[C@H]4C(=O)C[C@@]23C
InChI: InChI=1S/C21H28O5/c1-19-7-5-13(23)9-12(19)3-4-14-15-6-8-21(26,17(25)11-22)20(15,2)10-16(24)18(14)19/h9,14-15,18,22,26H,3-8,10-11H2,1-2H3/t14-,15-,18+,19-,20-,21-/m0/s1
Instrument: Q Exactive Plus Orbitrap Thermo Scientific
Instrument type: LC-ESI-QFT
Ms type: MS2
Ion mode: POSITIVE
Ionization: ESI
Fragmentation mode: HCD
Collision energy: 30 (nominal)
Resolution: 35000
Column name: XBridge C18 3.5um, 2.1x50mm, Waters
Retention time: 7.3 min
Base peak: 361.2008
Precursor m/z: 361.201
Precursor type: [M+H]+
m/z	relative intensity	assigned
55.0178	1	C3H3O+
55.0541	1	C4H7+
67.0542	3	C5H7+
69.0334	1	C4H5O+
69.0697	2	C5H9+
71.049	2	C4H7O+
79.054	2	C6H7+
81.0335	8	C5H5O+
81.0699	10	C6H9+
83.0491	5	C5H7O+
85.0648	2	C5H9O+
91.054	3	C7H7+
93.0699	14	C7H9+
95.0491	2	C6H7O+
95.0855	10	C7H11+
97.0648	17	C6H9O+
101.0595	1	C5H9O2+
105.0699	27	C8H9+
107.0491	1	C7H7O+
107.0855	20	C8H11+
109.0649	4	C7H9O+
109.1012	2	C8H13+
111.0803	3	C7H11O+
115.0754	1	C6H11O2+
117.0699	1	C9H9+
119.0855	14	C9H11+
121.0648	99	C8H9O+
121.1013	11	C9H13+
123.0804	15	C8H11O+
125.0598	2	C7H9O2+
129.0697	1	C10H9+
131.0856	10	C10H11+
133.0648	5	C9H9O+
133.1012	9	C10H13+
135.0804	36	C9H11O+
135.1168	19	C10H15+
137.0598	1	C8H9O2+
137.0961	10	C9H13O+
139.0753	31	C8H11O2+
143.0856	8	C11H11+
145.0649	4	C10H9O+
145.1012	37	C11H13+
147.0805	35	C10H11O+
147.1168	6	C11H15+
149.0961	12	C10H13O+
151.0755	7	C9H11O2+
151.1119	3	C10H15O+
153.0909	7	C9H13O2+
155.0856	6	C12H11+
157.065	2	C11H9O+
157.1012	9	C12H13+
159.0805	11	C11H11O+
159.1169	5	C12H15+
161.0597	2	C10H9O2+
161.0961	24	C11H13O+
161.1325	1	C12H17+
163.1117	594	C11H15O+
165.0909	7	C10H13O2+
165.1274	3	C11H17O+
169.1011	6	C13H13+
171.0803	10	C12H11O+
171.1169	14	C13H15+
173.0961	20	C12H13O+
173.1326	1	C13H17+
175.075	1	C11H11O2+
175.1118	10	C12H15O+
177.091	11	C11H13O2+
177.1274	1	C12H17O+
179.0704	1	C10H11O3+
179.0855	1	C14H11+
179.1066	7	C11H15O2+
181.1011	7	C14H13+
183.0804	2	C13H11O+
183.1168	10	C14H15+
185.0961	8	C13H13O+
185.1326	4	C14H17+
187.0753	3	C12H11O2+
187.1118	11	C13H15O+
189.091	17	C12H13O2+
189.1273	9	C13H17O+
191.1066	12	C12H15O2+
193.1007	2	C15H13+
195.1168	7	C15H15+
197.096	4	C14H13O+
197.1325	7	C15H17+
199.1118	15	C14H15O+
199.1483	1	C15H19+
201.0907	2	C13H13O2+
201.1276	8	C14H17O+
203.1068	4	C13H15O2+
203.1433	2	C14H19O+
205.0858	1	C12H13O3+
205.1012	1	C16H13+
205.1224	5	C13H17O2+
207.1018	7	C12H15O3+
207.1166	6	C16H15+
209.0967	3	C15H13O+
209.1327	7	C16H17+
211.1118	7	C15H15O+
211.1484	4	C16H19+
213.091	1	C14H13O2+
213.1276	8	C15H17O+
213.1643	1	C16H21+
215.1068	2	C14H15O2+
215.143	4	C15H19O+
217.1224	7	C14H17O2+
219.1016	1	C13H15O3+
219.1169	1	C17H15+
221.1326	10	C17H17+
223.1118	11	C16H15O+
223.1481	10	C17H19+
225.1275	15	C16H17O+
225.1637	9	C17H21+
227.1072	2	C15H15O2+
227.1431	10	C16H19O+
229.1224	7	C15H17O2+
229.1585	1	C16H21O+
231.138	1	C15H19O2+
233.1323	2	C18H17+
235.1118	1	C17H15O+
235.148	7	C18H19+
237.1276	10	C17H17O+
237.1639	10	C18H21+
239.1431	32	C17H19O+
239.1794	6	C18H23+
241.1223	18	C16H17O2+
241.1587	18	C17H21O+
242.1663	2	C17H22O+
243.138	10	C16H19O2+
243.1745	11	C17H23O+
245.1324	2	C19H17+
245.1539	1	C16H21O2+
247.1483	10	C19H19+
249.1276	7	C18H17O+
249.1638	8	C19H21+
251.1429	6	C18H19O+
251.1794	3	C19H23+
253.1222	1	C17H17O2+
253.159	8	C18H21O+
255.1381	9	C17H19O2+
255.1743	16	C18H23O+
256.1818	2	C18H24O+
257.1537	21	C17H21O2+
257.19	11	C18H25O+
258.1617	6	C17H22O2+
261.1486	6	C16H21O3+
261.1639	6	C20H21+
263.1432	7	C19H19O+
264.1511	2	C19H20O+
265.1587	59	C19H21O+
266.1658	2	C19H22O+
267.1381	15	C18H19O2+
267.1744	61	C19H23O+
269.1538	4	C18H21O2+
269.1897	4	C19H25O+
271.1692	4	C18H23O2+
273.1491	2	C17H21O3+
277.1591	6	C20H21O+
279.1379	1	C19H19O2+
279.1744	27	C20H23O+
281.1536	6	C19H21O2+
283.1693	82	C19H23O2+
284.1771	13	C19H24O2+
285.1491	12	C18H21O3+
285.1849	49	C19H25O2+
289.1587	12	C21H21O+
295.1693	29	C20H23O2+
297.1488	1	C19H21O3+
297.185	27	C20H25O2+
299.1643	79	C19H23O3+
300.1721	9	C19H24O3+
301.1799	95	C19H25O3+
303.1592	5	C18H23O4+
307.1694	50	C21H23O2+
313.1799	53	C20H25O3+
315.1954	13	C20H27O3+
317.1749	10	C19H25O4+
325.1799	76	C21H25O3+
343.1906	144	C21H27O4+
361.201	999	C21H29O5+
