Mass spectrum: Torsemide; LC-ESI-QFT; MS2; CE: 60; R=35000; [M-H]-
Name: Torsemide
Name: SMR000466313
Name: 1-[4-(3-methylanilino)pyridin-3-yl]sulfonyl-3-propan-2-ylurea
Formula: C16H20N4O3S
Exact mass: 348.12561
SMILES: O=S(=O)(c2c(Nc1cc(ccc1)C)ccnc2)NC(=O)NC(C)C
InChI: InChI=1S/C16H20N4O3S/c1-11(2)18-16(21)20-24(22,23)15-10-17-8-7-14(15)19-13-6-4-5-12(3)9-13/h4-11H,1-3H3,(H,17,19)(H2,18,20,21)
Instrument: Q Exactive Orbitrap Thermo Scientific
Instrument type: LC-ESI-QFT
Ms type: MS2
Ion mode: NEGATIVE
Ionization: ESI
Fragmentation mode: HCD
Collision energy: 60 (nominal)
Resolution: 35000
Column name: XBridge C18 3.5um, 2.1x50mm, Waters
Retention time: 6.8 min
Base peak: 347.1184
Precursor m/z: 347.1183
Precursor type: [M-H]-
m/z	relative intensity	assigned
57.9757	15	CNS-
60.9753	64	CHOS-
61.9707	4	NOS-
63.9624	11	O2S-
65.0146	1	C3HN2-
67.0301	1	C3H3N2-
77.9655	145	NO2S-
78.9734	6	HNO2S-
79.9574	6	O3S-
79.9811	5	H2NO2S-
91.0302	17	C5H3N2-
92.038	148	C5H4N2-
93.0458	72	C5H5N2-
94.0298	5	C5H4NO-
95.0252	7	C4H3N2O-
105.0584	41	C7H7N-
106.0664	2	C7H8N-
107.0492	6	C5H5N3-
108.0329	302	C5H4N2O-
109.0408	5	C5H5N2O-
120.9992	5	C6H3NS-
123.0022	10	C5H3N2S-
124.0101	2	C5H4N2S-
124.994	1	C5H3NOS-
125.0179	4	C5H5N2S-
131.0488	1	C7H5N3-
131.0615	2	C8H7N2-
132.0566	2	C7H6N3-
135.0023	14	C6H3N2S-
149.0052	4	C6H3N3S-
149.0179	6	C7H5N2S-
150.013	8	C6H4N3S-
150.9972	56	C6H3N2OS-
152.9999	3	C5H3N3OS-
154.0662	1	C11H8N-
154.9921	12	C5H3N2O2S-
155.0615	5	C10H7N2-
156	131	C5H4N2O2S-
165.0003	2	C6H3N3OS-
167.0616	1	C11H7N2-
169.0203	9	C7H7NO2S-
169.0649	2	C10H7N3-
169.0771	4	C11H9N2-
170.0725	2	C10H8N3-
175.0337	1	C9H7N2S-
180.069	1	C12H8N2-
181.0647	85	C11H7N3-
181.0771	79	C4H13N4O2S-
182.0724	29	C11H8N3-
183.0926	93	C4H15N4O2S-
184.0878	2	C11H10N3-
189.0491	1	C10H9N2S-
192.0571	5	C6H12N2O3S-
194.0724	55	C12H8N3-
195.0802	493	C12H9N3-
196.088	481	C12H10N3-
198.1036	167	C12H12N3-
199.0334	12	C11H7N2S-
199.0877	13	C12H11N2O-
200.029	5	C10H6N3S-
200.0417	1	C11H8N2S-
210.0672	38	C12H8N3O-
211.021	2	C11H5N3S-
216.0598	5	C11H10N3S-
224.0285	10	C12H6N3S-
225.0366	6	C12H7N3S-
226.0444	84	C12H8N3S-
227.0523	22	C12H9N3S-
228.0776	4	C12H10N3O2-
242.0394	1	C12H8N3OS-
243.047	22	C12H9N3OS-
244.0549	65	C12H10N3OS-
262.0655	999	C12H12N3O2S-
