Mass spectrum: Dimethachlor ESA; LC-ESI-ITFT; MS2; CE: 60%; R=7500; [M+H]+
Name: Dimethachlor ESA
Name: 2-[(2,6-dimethylphenyl)(2-methoxyethyl)amino]-2-oxoethanesulfonic acid
Formula: C13H19NO5S
Exact mass: 301.0984
SMILES: CC1=C(N(C(CS(O)(=O)=O)=O)CCOC)C(C)=CC=C1
InChI: InChI=1S/C13H19NO5S/c1-10-5-4-6-11(2)13(10)14(7-8-19-3)12(15)9-20(16,17)18/h4-6H,7-9H2,1-3H3,(H,16,17,18)
Instrument: LTQ Orbitrap XL Thermo Scientific
Instrument type: LC-ESI-ITFT
Ms type: MS2
Ion mode: POSITIVE
Ionization: ESI
Fragmentation mode: HCD
Collision energy: 60 % (nominal)
Resolution: 7500
Column name: XBridge C18 3.5um, 2.1x50mm, Waters
Retention time: 5.9 min
Base peak: 302.1064
Precursor m/z: 302.1057
Precursor type: [M+H]+
m/z	relative intensity	assigned
59.0491	1	C3H7O+
68.0495	29	C4H6N+
91.0538	1	C7H7+
105.0699	9	C8H9+
107.0857	2	C8H11+
118.0646	2	C8H8N+
119.0853	3	C9H11+
120.0808	2	C8H10N+
121.0889	2	C8H11N+
122.0966	1	C8H12N+
129.0692	1	C10H9+
130.078	5	C10H10+
131.0729	10	C9H9N+
131.0857	6	C10H11+
132.0809	819	C9H10N+
133.0885	6	C9H11N+
134.0964	4	C9H12N+
144.081	8	C10H10N+
145.0887	18	C10H11N+
146.0965	195	C10H12N+
147.1043	409	C10H13N+
148.1121	134	C10H14N+
158.0964	10	C11H12N+
159.1043	37	C11H13N+
160.1122	7	C11H14N+
174.0915	999	C11H12NO+
176.1067	1	C11H14NO+
188.1067	3	C12H14NO+
189.1148	16	C12H15NO+
190.1228	4	C12H16NO+
204.102	15	C12H14NO2+
206.1176	21	C12H16NO2+
252.0691	5	C12H14NO3S+
270.0804	118	C12H16NO4S+
