Mass spectrum: N-Nitrosopiperidine (NPIP); LC-ESI-QFT; MS2; CE: 90; R=70000; [M+H]+
Name: N-Nitrosopiperidine (NPIP)
Name: 1-nitrosopiperidine
Formula: C5H10N2O
Exact mass: 114.07931
SMILES: O=NN1CCCCC1
InChI: InChI=1S/C5H10N2O/c8-6-7-4-2-1-3-5-7/h1-5H2
Instrument: Q Exactive Plus Orbitrap Thermo Scientific
Instrument type: LC-ESI-QFT
Ms type: MS2
Ion mode: POSITIVE
Ionization: ESI
Fragmentation mode: HCD
Collision energy: 90 (nominal)
Resolution: 70000
Column name: XBridge C18 3.5um, 2.1x50mm, Waters
Retention time: 4.1 min
Base peak: 115.0866
Precursor m/z: 115.0866
Precursor type: [M+H]+
m/z	relative intensity	assigned
52.0182	2	C3H2N+
53.0022	126	C3HO+
53.9974	14	C2NO+
54.01	4	C3H2O+
55.0178	3	C3H3O+
55.0542	43	C4H7+
56.0495	2	C3H6N+
59.024	15	CH3N2O+
59.0491	2	C3H7O+
67.0542	51	C5H7+
67.9893	19	C3O2+
69.0699	999	C5H9+
70.0651	32	C4H8N+
70.0777	4	C5H10+
78.0086	4	C3N3+
84.0807	5	C5H10N+
115.0866	387	C5H11N2O+
