Mass spectrum: Procymidone; LC-ESI-QFT; MS2; CE: 75; R=35000; [M+H]+
Name: Procymidone
Name: 3-(3,5-dichlorophenyl)-1,5-dimethyl-3-azabicyclo[3.1.0]hexane-2,4-dione
Formula: C13H11Cl2NO2
Exact mass: 283.01668
SMILES: Clc1cc(cc(Cl)c1)N2C(=O)C3(CC3(C2=O)C)C
InChI: InChI=1S/C13H11Cl2NO2/c1-12-6-13(12,2)11(18)16(10(12)17)9-4-7(14)3-8(15)5-9/h3-5H,6H2,1-2H3
Instrument: Q Exactive Orbitrap Thermo Scientific
Instrument type: LC-ESI-QFT
Ms type: MS2
Ion mode: POSITIVE
Ionization: ESI
Fragmentation mode: HCD
Collision energy: 75 (nominal)
Resolution: 35000
Column name: XBridge C18 3.5um, 2.1x50mm, Waters
Retention time: 11.5 min
Base peak: 284.0241
Precursor m/z: 284.024
Precursor type: [M+H]+
m/z	relative intensity	assigned
53.0023	9	C3HO+
55.0178	1	C3H3O+
57.0335	2	C3H5O+
57.07	2	C4H9+
62.9631	1	CClO+
65.0386	158	C5H5+
67.0542	999	C5H7+
68.062	5	C5H8+
69.0335	6	C4H5O+
69.0699	50	C5H9+
71.0491	5	C4H7O+
79.0543	2	C6H7+
81.0335	6	C5H5O+
84.9839	9	C4H2Cl+
85.0648	47	C5H9O+
86.9632	2	C3ClO+
94.0652	1	C6H8N+
95.0491	230	C6H7O+
96.057	30	C6H8O+
98.0363	1	C5H6O2+
98.9995	1	C5H4Cl+
108.9838	11	C6H2Cl+
110.06	6	C6H8NO+
113.0597	42	C6H9O2+
120.9608	2	C4H3Cl2+
123.044	1	C7H7O2+
123.9947	2	C6H3ClN+
126.9945	27	C6H4ClO+
127.0183	25	C6H6ClN+
128.0024	21	C6H5ClO+
130.0651	5	C9H8N+
132.9607	9	C5H3Cl2+
138.0103	1	C7H5ClN+
141.0572	1	C10H7N+
141.0696	1	C11H9+
143.0729	13	C10H9N+
144.0808	2	C10H10N+
144.9605	12	C6H3Cl2+
145.0052	5	C6H6ClO2+
145.9685	10	C6H4Cl2+
151.0184	65	C8H6ClN+
152.0262	2	C8H7ClN+
152.9976	10	C7H4ClNO+
153.034	1	C8H8ClN+
154.0652	2	C11H8N+
157.0888	11	C11H11N+
158.0965	30	C11H12N+
158.9762	3	C7H5Cl2+
159.9716	56	C6H4Cl2N+
160.9795	20	C9H2ClO+
161.987	11	C6H6Cl2N+
162.023	1	C10H7Cl+
162.9712	73	C6H5Cl2O+
164.0262	59	C9H7ClN+
165.034	46	C9H8ClN+
167.0729	18	C12H9N+
168.0808	29	C12H10N+
171.068	1	C11H9NO+
171.9715	169	C7H4Cl2N+
172.9668	152	C9ClNO+
173.9872	37	C7H6Cl2N+
175.0183	6	C10H6ClN+
176.0387	7	C11H9Cl+
177.0343	12	C10H8ClN+
178.0418	172	C10H9ClN+
179.0132	6	C9H6ClNO+
179.0496	16	C10H10ClN+
184.9796	6	C8H5Cl2N+
185.9872	233	C8H6Cl2N+
187.9664	18	C7H4Cl2NO+
188.0027	8	C8H8Cl2N+
188.0263	16	C11H7ClN+
189.0337	2	C11H8ClN+
192.0575	63	C11H11ClN+
193.0654	30	C11H12ClN+
195.9714	10	C9H4Cl2N+
197.9872	114	C9H6Cl2N+
198.995	34	C9H7Cl2N+
199.9666	10	C8H4Cl2NO+
200.0027	24	C9H8Cl2N+
201.034	1	C12H8ClN+
202.0418	51	C12H9ClN+
203.0495	40	C12H10ClN+
204.0577	2	C12H11ClN+
206.0369	24	C11H9ClNO+
210.9949	2	C10H7Cl2N+
212.0028	146	C10H8Cl2N+
213.0107	10	C10H9Cl2N+
213.9822	18	C9H6Cl2NO+
214.0186	6	C10H10Cl2N+
220.0524	11	C12H11ClNO+
221.0601	9	C12H12ClNO+
222.9951	2	C11H7Cl2N+
224.0028	13	C11H8Cl2N+
225.9824	5	C10H6Cl2NO+
227.9977	40	C10H8Cl2NO+
228.0341	30	C11H12Cl2N+
236.0026	2	C12H8Cl2N+
238.0185	321	C12H10Cl2N+
239.0266	7	C12H11Cl2N+
239.9977	18	C11H8Cl2NO+
241.0056	21	C11H9Cl2NO+
256.0293	17	C12H12Cl2NO+
266.0129	1	C13H10Cl2NO+
284.0248	1	C13H12Cl2NO2+
