Mass spectrum: Noscapine; LC-ESI-QFT; MS2; CE: 30; R=35000; [M+H]+
Name: Noscapine
Name: (-)-Noscapine
Name: 6,7-dimethoxy-3-(4-methoxy-6-methyl-7,8-dihydro-5H-[1,3]dioxol[4,5-g]isoquinolin-5-yl)phthalide
Formula: C22H23NO7
Exact mass: 413.14745
SMILES: CN1CCC2=CC3=C(C(=C2[C@@H]1[C@@H]4C5=C(C(=C(C=C5)OC)OC)C(=O)O4)OC)OCO3
InChI: InChI=1S/C22H23NO7/c1-23-8-7-11-9-14-20(29-10-28-14)21(27-4)15(11)17(23)18-12-5-6-13(25-2)19(26-3)16(12)22(24)30-18/h5-6,9,17-18H,7-8,10H2,1-4H3/t17-,18+/m1/s1
Instrument: Q Exactive Orbitrap Thermo Scientific
Instrument type: LC-ESI-QFT
Ms type: MS2
Ion mode: POSITIVE
Ionization: ESI
Fragmentation mode: HCD
Collision energy: 30 (nominal)
Resolution: 35000
Column name: XBridge C18 3.5um, 2.1x50mm, Waters
Retention time: 5.4 min
Base peak: 414.1545
Precursor m/z: 414.1547
Precursor type: [M+H]+
m/z	relative intensity	assigned
165.0547	3	C9H9O3+
179.0701	66	C10H11O3+
191.0699	1	C11H11O3+
193.0492	1	C10H9O4+
204.0654	1	C11H10NO3+
205.073	6	C11H11NO3+
206.0811	34	C11H12NO3+
218.0811	7	C12H12NO3+
219.0891	9	C12H13NO3+
220.0967	999	C12H14NO3+
248.0915	11	
280.073	2	C17H12O4+
292.0728	2	C18H12O4+
295.0969	4	C18H15O4+
306.0511	1	C18H10O5+
307.0963	7	C19H15O4+
308.1037	3	C19H16O4+
312.0991	2	C18H16O5+
313.1068	1	C18H17O5+
320.0672	2	C19H12O5+
321.0748	2	C19H13O5+
322.0836	7	C19H14O5+
323.0911	30	C19H15O5+
324.099	15	C19H16O5+
325.1068	12	C19H17O5+
327.1223	3	C19H19O5+
332.0678	2	C20H12O5+
334.0833	12	C20H14O5+
335.0911	9	C20H15O5+
337.1071	4	C20H17O5+
338.0789	4	C19H14O6+
349.1072	1	C21H17O5+
350.0784	33	C20H14O6+
352.0944	15	C20H16O6+
353.1017	311	C20H17O6+
355.1177	7	C20H19O6+
363.1094	2	C21H17NO5+
365.1019	87	C21H17O6+
366.0975	2	C20H16NO6+
371.112	3	C20H19O7+
378.1335	7	C22H20NO5+
381.1205	20	C21H19NO6+
383.1122	8	C21H19O7+
396.1439	23	C22H22NO6+
414.1544	188	C22H24NO7+
