Mass spectrum: Iomeprol; LC-ESI-ITFT; MS2; CE: 75%; R=15000; [M+H]+
Name: Iomeprol
Name: 1-N,3-N-bis(2,3-dihydroxypropyl)-5-[(2-hydroxyacetyl)-methylamino]-2,4,6-triiodobenzene-1,3-dicarboxamide
Formula: C17H22I3N3O8
Exact mass: 776.8541
SMILES: Ic1c(c(I)c(c(I)c1N(C)C(=O)CO)C(=O)NCC(O)CO)C(=O)NCC(O)CO
InChI: InChI=1S/C17H22I3N3O8/c1-23(9(29)6-26)15-13(19)10(16(30)21-2-7(27)4-24)12(18)11(14(15)20)17(31)22-3-8(28)5-25/h7-8,24-28H,2-6H2,1H3,(H,21,30)(H,22,31)
Instrument: LTQ Orbitrap XL Thermo Scientific
Instrument type: LC-ESI-ITFT
Ms type: MS2
Ion mode: POSITIVE
Ionization: ESI
Fragmentation mode: HCD
Collision energy: 75 % (nominal)
Resolution: 15000
Column name: XBridge C18 3.5um, 2.1x50mm, Waters
Retention time: 1.6 min
Base peak: 132.9578
Precursor m/z: 777.8614
Precursor type: [M+H]+
m/z	relative intensity	assigned
72.0443	17	C3H6NO+
79.0417	24	C5H5N+
90.0334	21	C6H4N+
91.0416	32	C6H5N+
92.0492	28	C6H6N+
103.0418	23	C7H5N+
104.0495	31	C7H6N+
106.029	18	C6H4NO+
108.0443	30	C6H6NO+
118.0286	33	C7H4NO+
119.0366	68	C7H5NO+
120.0442	22	C7H6NO+
131.0364	27	C8H5NO+
132.0442	69	C8H6NO+
136.0387	14	C7H6NO2+
146.0233	71	C8H4NO2+
147.0316	22	C8H5NO2+
148.0394	31	C8H6NO2+
149.0473	14	C8H7NO2+
160.0391	25	C9H6NO2+
161.047	116	C9H7NO2+
162.0551	52	C9H8NO2+
164.0342	26	C8H6NO3+
176.0345	27	C9H6NO3+
177.042	111	C9H7NO3+
178.0498	22	C9H8NO3+
188.92	20	C5H2I+
193.0368	66	C9H7NO4+
195.0522	32	C9H9NO4+
217.0605	15	C11H9N2O3+
217.9461	36	C6H5IN+
231.9253	26	C6H3INO+
245.9412	41	C7H5INO+
257.9409	168	C8H5INO+
273.9356	77	C8H5INO2+
287.9514	999	C9H7INO2+
293.9125	40	C6H3IN2O4+
303.9471	15	C9H7INO3+
305.9616	13	C9H9INO3+
331.9413	30	C10H7INO4+
