Mass spectrum: Cloethocarb; LC-ESI-QFT; MS2; CE: 120%; R=17500; [M+H]+
Name: Cloethocarb
Name: [2-(2-chloro-1-methoxyethoxy)phenyl] N-methylcarbamate
Formula: C11H14ClNO4
Exact mass: 259.0611
SMILES: CNC(=O)OC1=CC=CC=C1OC(CCl)OC
InChI: InChI=1S/C11H14ClNO4/c1-13-11(14)17-9-6-4-3-5-8(9)16-10(7-12)15-2/h3-6,10H,7H2,1-2H3,(H,13,14)
Instrument: Exploris 240 Orbitrap Thermo Scientific
Instrument type: LC-ESI-QFT
Ms type: MS2
Ion mode: POSITIVE
Ionization: ESI
Fragmentation mode: HCD
Collision energy: 120 % (nominal)
Resolution: 17500
Column name: XBridge C18 3.5um, 2.1x50mm, Waters
Retention time: 4.885 min
Base peak: 116.0528
Precursor m/z: 260.0684
Precursor type: [M+H]+
m/z	relative intensity	assigned
51.023	53	C4H3+
52.0182	309	C3H2N+
52.0307	16	C4H4+
53.0021	51	C3HO+
53.0386	36	C4H5+
60.9841	11	C2H2Cl+
63.0229	88	C5H3+
64.0183	21	C4H2N+
65.0386	131	C5H5+
66.0101	31	C4H2O+
66.034	30	C4H4N+
72.984	220	C3H2Cl+
75.023	19	C6H3+
76.0182	142	C5H2N+
77.0386	64	C6H5+
78.034	40	C5H4N+
78.0465	18	C6H6+
79.0178	25	C5H3O+
79.0415	11	C5H5N+
80.0495	205	C5H6N+
84.9844	53	C4H2Cl+
86.9997	19	C4H4Cl+
90.0339	21	C6H4N+
93.0573	25	C6H7N+
97.9914	23	C5H3Cl+
98.9996	86	C5H4Cl+
104.0495	24	C7H6N+
106.0291	39	C6H4NO+
107.013	17	C6H3O2+
108.0444	57	C6H6NO+
111.9949	431	C5H3ClN+
112.9789	505	C5H2ClO+
114.0108	65	C5H5ClN+
114.9947	66	C5H4ClO+
124.0156	20	C3H7ClNO2+
124.9791	19	C6H2ClO+
125.987	73	C6H3ClO+
127.9903	21	C5H3ClNO+
140.9739	999	C6H2ClO2+
142.0057	31	C6H5ClNO+
143.0134	13	C6H6ClNO+
154.9896	25	C7H4ClO2+
155.9979	42	C7H5ClO2+
170.0004	170	C7H5ClNO2+
