Mass spectrum: Glycyrrhetinic Acid; LC-ESI-QFT; MS2; CE: 90; R=35000; [M+H]+
Name: Glycyrrhetinic Acid
Name: 18-beta-Glycyrrhetin acid
Name: (2S,4aS,6aR,6aS,6bR,8aR,10S,12aS,14bR)-10-hydroxy-2,4a,6a,6b,9,9,12a-heptamethyl-13-oxo-3,4,5,6,6a,7,8,8a,10,11,12,14b-dodecahydro-1H-picene-2-carboxylic acid
Formula: C30H46O4
Exact mass: 470.33961
SMILES: C[C@]1([C@H](CC[C@]2([C@H]1CC[C@@]3([C@@H]2C(=O)C=C4[C@]3(CC[C@@]5([C@H]4C[C@](CC5)(C(=O)O)C)C)C)C)C)O)C
InChI: InChI=1S/C30H46O4/c1-25(2)21-8-11-30(7)23(28(21,5)10-9-22(25)32)20(31)16-18-19-17-27(4,24(33)34)13-12-26(19,3)14-15-29(18,30)6/h16,19,21-23,32H,8-15,17H2,1-7H3,(H,33,34)/t19-,21-,22-,23+,26+,27-,28-,29+,30+/m0/s1
Instrument: Q Exactive Plus Orbitrap Thermo Scientific
Instrument type: LC-ESI-QFT
Ms type: MS2
Ion mode: POSITIVE
Ionization: ESI
Fragmentation mode: HCD
Collision energy: 90 (nominal)
Resolution: 35000
Column name: XBridge C18 3.5um, 2.1x50mm, Waters
Retention time: 16.9 min
Base peak: 471.3465
Precursor m/z: 471.3469
Precursor type: [M+H]+
m/z	relative intensity	assigned
50.0151	6	C4H2+
51.0228	8	C4H3+
53.0022	22	C3HO+
53.0386	81	C4H5+
53.9974	1	C2NO+
55.0179	30	C3H3O+
55.0543	379	C4H7+
57.0335	27	C3H5O+
57.0699	39	C4H9+
59.0492	26	C3H7O+
63.0228	1	C5H3+
65.0386	100	C5H5+
66.0464	7	C5H6+
67.0542	561	C5H7+
67.9893	5	C3O2+
69.0335	87	C4H5O+
69.0699	166	C5H9+
71.0492	11	C4H7O+
71.0855	1	C5H11+
73.0649	3	C4H9O+
77.0385	59	C6H5+
78.0464	6	C6H6+
79.0542	659	C6H7+
80.0621	9	C6H8+
81.0699	616	C6H9+
83.0491	125	C5H7O+
83.0855	31	C6H11+
85.0647	11	C5H9O+
91.0542	999	C7H7+
92.0621	11	C7H8+
93.0699	704	C7H9+
94.0414	5	C6H6O+
94.0778	8	C7H10+
95.0492	229	C6H7O+
95.0855	551	C7H11+
97.0648	50	C6H9O+
102.0465	1	C8H6+
103.0542	84	C8H7+
104.0621	18	C8H8+
105.0448	104	C6H5N2+
105.0699	994	C8H9+
106.0414	2	C7H6O+
106.0777	23	C8H10+
107.0491	33	C7H7O+
107.0855	524	C8H11+
108.057	7	C7H8O+
108.0932	5	C8H12+
109.0648	123	C7H9O+
109.1012	117	C8H13+
111.0805	28	C7H11O+
115.0543	72	C9H7+
116.0621	42	C9H8+
117.0699	161	C9H9+
118.0777	13	C9H10+
119.0605	52	C7H7N2+
119.0856	672	C9H11+
120.0569	2	C8H8O+
120.0933	16	C9H12+
121.0648	105	C8H9O+
121.1012	307	C9H13+
122.0724	8	C8H10O+
123.0805	59	C8H11O+
123.1168	22	C9H15+
125.0599	1	C7H9O2+
125.0962	8	C8H13O+
128.0621	69	C10H8+
129.0699	118	C10H9+
130.0778	50	C10H10+
131.0856	245	C10H11+
132.0571	2	C9H8O+
132.0934	11	C10H12+
133.0648	23	C9H9O+
133.076	19	C8H9N2+
133.1012	225	C10H13+
134.0725	10	C9H10O+
134.109	2	C10H14+
135.0804	266	C9H11O+
135.1168	39	C10H15+
137.0961	11	C9H13O+
137.1325	2	C10H17+
139.1119	8	C9H15O+
141.0699	59	C11H9+
142.0778	105	C11H10+
143.0856	137	C11H11+
144.0933	53	C11H12+
145.0648	19	C10H9O+
145.1012	185	C11H13+
146.0725	12	C10H10O+
146.1093	8	C11H14+
147.0804	21	C10H11O+
147.1168	76	C11H15+
148.0883	2	C10H12O+
149.0961	180	C10H13O+
151.112	2	C10H15O+
152.0616	1	C12H8+
153.07	20	C12H9+
154.0778	10	C12H10+
155.0604	8	C10H7N2+
155.0855	64	C12H11+
156.0934	74	C12H12+
157.1012	85	C12H13+
158.0724	9	C11H10O+
158.109	42	C12H14+
159.0806	25	C11H11O+
159.1168	73	C12H15+
160.0885	10	C11H12O+
160.1247	8	C12H16+
161.0961	26	C11H13O+
161.1325	18	C12H17+
163.1117	9	C11H15O+
163.1476	1	C12H19+
165.0699	8	C13H9+
166.0777	1	C13H10+
167.0856	35	C13H11+
168.0933	15	C13H12+
169.1012	57	C13H13+
170.1091	18	C13H14+
171.0805	4	C12H11O+
171.1169	38	C13H15+
172.0879	4	C12H12O+
172.1246	5	C13H16+
173.0961	13	C12H13O+
173.1326	48	C13H17+
174.1044	4	C12H14O+
175.1117	9	C12H15O+
175.1481	14	C13H19+
178.077	1	C14H10+
179.0855	8	C14H11+
180.0934	5	C14H12+
181.1011	37	C14H13+
182.1091	25	C14H14+
183.1169	36	C14H15+
184.1247	9	C14H16+
185.0959	8	C13H13O+
185.1323	13	C14H17+
186.1036	2	C13H14O+
186.1401	1	C14H18+
187.112	8	C13H15O+
187.1481	6	C14H19+
189.1273	2	C13H17O+
189.1634	2	C14H21+
192.0931	2	C15H12+
193.1014	6	C15H13+
194.1092	6	C15H14+
195.1168	21	C15H15+
196.1249	12	C15H16+
197.1325	24	C15H17+
198.1408	4	C15H18+
199.1116	7	C14H15O+
199.1483	10	C15H19+
200.1193	2	C14H16O+
201.1272	7	C14H17O+
209.1327	8	C16H17+
210.1403	2	C16H18+
211.1486	9	C16H19+
213.1272	2	C15H17O+
213.1641	1	C16H21+
215.143	7	C15H19O+
223.1481	9	C17H19+
225.1638	1	C17H21+
227.1429	2	C16H19O+
227.1797	1	C17H23+
235.1481	2	C18H19+
237.1637	1	C18H21+
