Mass spectrum: Amisulpride N-Oxide; LC-ESI-QFT; MS2; CE: 15; R=35000; [M-H]-
Name: Amisulpride N-Oxide
Name: 4-amino-N-[(1-ethyl-1-oxidopyrrolidin-1-ium-2-yl)methyl]-5-ethylsulfonyl-2-methoxybenzamide
Formula: C17H27N3O5S
Exact mass: 385.16714
SMILES: CC[N+]1(CCCC1CNC(=O)C2=CC(=C(C=C2OC)N)S(=O)(=O)CC)[O-]
InChI: InChI=1S/C17H27N3O5S/c1-4-20(22)8-6-7-12(20)11-19-17(21)13-9-16(26(23,24)5-2)14(18)10-15(13)25-3/h9-10,12H,4-8,11,18H2,1-3H3,(H,19,21)
Instrument: Q Exactive Plus Orbitrap Thermo Scientific
Instrument type: LC-ESI-QFT
Ms type: MS2
Ion mode: NEGATIVE
Ionization: ESI
Fragmentation mode: HCD
Collision energy: 15 (nominal)
Resolution: 35000
Column name: XBridge C18 3.5um, 2.1x50mm, Waters
Retention time: 4.2 min
Base peak: 430.1652
Precursor m/z: 384.1599
Precursor type: [M-H]-
m/z	relative intensity	assigned
93.0013	1	C2H5O2S-
156.0124	1	C6H6NO2S-
184.0434	14	C8H10NO2S-
186.0229	4	C7H8NO3S-
214.0544	39	C9H12NO3S-
243.0446	1	C9H11N2O4S-
255.0447	3	C10H11N2O4S-
257.0601	4	C10H13N2O4S-
282.0685	1	C12H14N2O4S-
295.0761	2	C13H15N2O4S-
296.0827	1	C13H16N2O4S-
334.1227	1	C16H20N3O3S-
338.1183	3	C17H22O5S-
352.1337	34	C16H22N3O4S-
355.12	3	C15H21N3O5S-
356.1289	265	C15H22N3O5S-
366.1492	17	C17H24N3O4S-
369.1359	5	C16H23N3O5S-
384.1598	999	C17H26N3O5S-
