Mass spectrum: Bensulfuron-Methyl; LC-ESI-QFT; MS2; CE: 120%; R=17500; [M+H]+
Name: Bensulfuron-Methyl
Name: methyl 2-[(4,6-dimethoxypyrimidin-2-yl)carbamoylsulfamoylmethyl]benzoate
Formula: C16H18N4O7S
Exact mass: 410.0896
SMILES: COC1=CC(=NC(=N1)NC(=O)NS(=O)(=O)CC2=CC=CC=C2C(=O)OC)OC
InChI: InChI=1S/C16H18N4O7S/c1-25-12-8-13(26-2)18-15(17-12)19-16(22)20-28(23,24)9-10-6-4-5-7-11(10)14(21)27-3/h4-8H,9H2,1-3H3,(H2,17,18,19,20,22)
Instrument: Exploris 240 Orbitrap Thermo Scientific
Instrument type: LC-ESI-QFT
Ms type: MS2
Ion mode: POSITIVE
Ionization: ESI
Fragmentation mode: HCD
Collision energy: 120 % (nominal)
Resolution: 17500
Column name: XBridge C18 3.5um, 2.1x50mm, Waters
Retention time: 7.850 min
Base peak: 411.0967
Precursor m/z: 411.0969
Precursor type: [M+H]+
m/z	relative intensity	assigned
56.0131	15	C2H2NO+
57.0447	17	C2H5N2+
63.0229	7	C5H3+
65.0386	384	C5H5+
68.013	18	C3H2NO+
68.9971	19	C3HO2+
69.0082	7	C2HN2O+
71.0604	9	C3H7N2+
77.0384	11	C6H5+
82.0288	14	C4H4NO+
83.024	149	C3H3N2O+
89.0386	11	C7H5+
91.0542	999	C7H7+
93.0083	37	C4HN2O+
100.0394	5	C4H6NO2+
109.0652	10	C7H9O+
116.0493	9	C8H6N+
119.0492	44	C8H7O+
119.0598	11	C7H7N2+
139.0502	10	C6H7N2O2+
