Mass spectrum: Thiacloprid; LC-ESI-QFT; MS2; CE: 120%; R=15000; [M+H]+
Name: Thiacloprid
Name: [3-[(6-chloropyridin-3-yl)methyl]-1,3-thiazolidin-2-ylidene]cyanamide
Formula: C10H9ClN4S
Exact mass: 252.023645
SMILES: ClC1=CC=C(CN2CCS\C2=N/C#N)C=N1
InChI: InChI=1S/C10H9ClN4S/c11-9-2-1-8(5-13-9)6-15-3-4-16-10(15)14-7-12/h1-2,5H,3-4,6H2/b14-10-
Instrument: Q Exactive Plus
Instrument type: LC-ESI-QFT
Ms type: MS2
Ion mode: POSITIVE
Ionization: ESI
Fragmentation mode: HCD
Collision energy: 120 % (nominal)
Resolution: 15000
Column name: XBridge C18 3.5um, 2.1x50mm, Waters
Retention time: 4.954 min
Base peak: 253.031
Precursor m/z: 253.0309
Precursor type: [M+H]+
Precursor intensity: 307976946.91
m/z	relative intensity	assigned
62.0152	22	C5H2+
63.0229	382	C5H3+
64.0181	78	C4H2N+
64.0307	24	C5H4+
65.0386	38	C5H5+
72.9839	999	C3H2Cl+
80.0494	10	C5H6N+
90.0338	542	C6H4N+
91.0417	241	C6H5N+
98.9996	878	C5H4Cl+
126.0105	235	C6H5ClN+
