Mass spectrum: Atorvastatin; LC-ESI-ITFT; MS2; CE: 90%; R=30000; [M+H]+
Name: Atorvastatin
Name: (3R,5R)-7-[3-(anilinocarbonyl)-5-(4-fluorophenyl)-2-isopropyl-4-phenyl-1H-pyrrol-1-yl]-3,5-dihydroxyheptanoic acid
Name: (3R,5R)-7-[2-(4-fluorophenyl)-3-phenyl-4-(phenylcarbamoyl)-5-propan-2-yl-pyrrol-1-yl]-3,5-bis(oxidanyl)heptanoic acid
Formula: C33H35FN2O5
Exact mass: 558.2530
SMILES: c1(c(n(CC[C@H](C[C@H](CC(=O)O)O)O)c(c1C(Nc1ccccc1)=O)C(C)C)c1ccc(F)cc1)c1ccccc1
InChI: InChI=1S/C33H35FN2O5/c1-21(2)31-30(33(41)35-25-11-7-4-8-12-25)29(22-9-5-3-6-10-22)32(23-13-15-24(34)16-14-23)36(31)18-17-26(37)19-27(38)20-28(39)40/h3-16,21,26-27,37-38H,17-20H2,1-2H3,(H,35,41)(H,39,40)/t26-,27-/m1/s1
Instrument: LTQ Orbitrap XL Thermo Scientific
Instrument type: LC-ESI-ITFT
Ms type: MS2
Ion mode: POSITIVE
Ionization: ESI
Fragmentation mode: HCD
Collision energy: 90 % (nominal)
Resolution: 30000
Column name: XBridge C18 3.5um, 2.1x50mm, Waters
Retention time: 12.4 min
Base peak: 559.2616
Precursor m/z: 559.2603
Precursor type: [M+H]+
m/z	relative intensity	assigned
77.0386	221	C6H5+
79.0543	51	C6H7+
83.0492	50	C5H7O+
92.0495	195	C6H6N+
95.0493	78	C6H7O+
103.0542	53	C8H7+
104.0495	61	C7H6N+
105.0447	43	C6H5N2+
109.0448	82	C7H6F+
115.0542	196	C9H7+
121.0447	64	C8H6F+
122.0401	124	C7H5FN+
128.0621	114	C10H8+
133.045	176	C9H6F+
143.062	45	C6H8FN2O+
147.0606	53	C10H8F+
154.0652	156	C11H8N+
155.0603	162	C10H7N2+
159.0608	47	C11H8F+
167.0731	67	C12H9N+
172.0558	143	C11H7FN+
173.0511	67	C10H6FN2+
202.0775	242	C16H10+
203.0855	118	C16H11+
209.0761	252	C15H10F+
220.0686	74	C16H9F+
221.076	153	C16H10F+
222.0711	67	C15H9FN+
222.0839	71	C16H11F+
223.092	84	C16H12F+
230.0965	115	C17H12N+
233.076	621	C17H10F+
235.0791	724	C16H10FN+
236.0868	89	C16H11FN+
237.0948	50	C16H12FN+
238.1023	52	C16H13FN+
248.087	999	C17H11FN+
249.0948	324	C17H12FN+
250.1026	721	C17H13FN+
260.0868	108	C18H11FN+
261.0949	264	C18H12FN+
262.1027	256	C18H13FN+
263.1108	86	C18H14FN+
264.0813	50	C17H11FNO+
274.103	124	C19H13FN+
275.1106	65	C19H14FN+
276.1184	332	C19H15FN+
353.2719	65	C21H36FNO2+
