Mass spectrum: Morphine; LC-ESI-ITFT; MS2; CE: 35%; R=7500; [M+H]+
Name: Morphine
Name: (4R,4aR,7S,7aR,12bS)-3-methyl-2,4,4a,7,7a,13-hexahydro-1H-4,12-methanobenzofuro[3,2-e]isoquinoline-7,9-diol
Formula: C17H19NO3
Exact mass: 285.1364935
SMILES: CN1CC[C@]23[C@@H]4[C@H]1CC5=C2C(=C(C=C5)O)O[C@H]3[C@H](C=C4)O
InChI: InChI=1S/C17H19NO3/c1-18-7-6-17-10-3-5-13(20)16(17)21-15-12(19)4-2-9(14(15)17)8-11(10)18/h2-5,10-11,13,16,19-20H,6-8H2,1H3/t10-,11+,13-,16-,17-/m0/s1
Instrument: LTQ Orbitrap XL Thermo Scientific
Instrument type: LC-ESI-ITFT
Ms type: MS2
Ion mode: POSITIVE
Ionization: ESI
Fragmentation mode: CID
Collision energy: 35 % (nominal)
Resolution: 7500
Column name: XBridge C18 3.5um, 2.1x50mm, Waters
Retention time: 1.1 min
Base peak: 286.1448
Precursor m/z: 286.1438
Precursor type: [M+H]+
m/z	relative intensity	assigned
121.0648	21	C8H9O+
123.0441	16	C7H7O2+
141.0698	4	C11H9+
145.0648	20	C10H9O+
146.0965	5	C10H12N+
147.044	59	C9H7O2+
153.0704	9	C12H9+
155.0856	72	C12H11+
157.0641	7	C11H9O+
158.0969	5	C11H12N+
161.0597	18	C10H9O2+
162.0914	25	C10H12NO+
164.1065	6	C10H14NO+
165.0707	47	C13H9+
166.0864	34	C9H12NO2+
171.0442	5	C11H7O2+
173.0598	125	C11H9O2+
173.0962	32	C12H13O+
178.0863	46	C10H12NO2+
179.086	5	C14H11+
181.0648	25	C13H9O+
181.1012	8	C14H13+
183.0805	201	C13H11O+
185.0598	112	C12H9O2+
187.0753	18	C12H11O2+
191.0855	42	C15H11+
193.0648	84	C14H9O+
193.1009	18	C15H13+
195.0805	9	C14H11O+
199.0753	33	C13H11O2+
201.0912	999	C13H13O2+
203.0846	10	C16H11+
205.1003	7	C16H13+
207.0809	19	C15H11O+
208.0888	7	C15H12O+
209.0599	55	C14H9O2+
209.0958	34	C15H13O+
211.0754	321	C14H11O2+
219.0805	80	C16H11O+
221.0961	62	C16H13O+
223.112	13	C16H15O+
225.0909	22	C15H13O2+
227.0704	31	C14H11O3+
227.1066	14	C15H15O2+
229.0861	520	C14H13O3+
237.0909	73	C16H13O2+
239.1066	83	C16H15O2+
240.1394	8	C16H18NO+
243.1007	7	C15H15O3+
250.1218	8	C17H16NO+
255.1013	14	C16H15O3+
268.1332	323	C17H18NO2+
