Mass spectrum: Cloethocarb; LC-ESI-QFT; MS2; CE: 75%; R=17500; [M+H]+
Name: Cloethocarb
Name: [2-(2-chloro-1-methoxyethoxy)phenyl] N-methylcarbamate
Formula: C11H14ClNO4
Exact mass: 259.0611
SMILES: CNC(=O)OC1=CC=CC=C1OC(CCl)OC
InChI: InChI=1S/C11H14ClNO4/c1-13-11(14)17-9-6-4-3-5-8(9)16-10(7-12)15-2/h3-6,10H,7H2,1-2H3,(H,13,14)
Instrument: Exploris 240 Orbitrap Thermo Scientific
Instrument type: LC-ESI-QFT
Ms type: MS2
Ion mode: POSITIVE
Ionization: ESI
Fragmentation mode: HCD
Collision energy: 75 % (nominal)
Resolution: 17500
Column name: XBridge C18 3.5um, 2.1x50mm, Waters
Retention time: 4.885 min
Base peak: 116.0528
Precursor m/z: 260.0684
Precursor type: [M+H]+
m/z	relative intensity	assigned
65.0384	67	C5H5+
77.0389	21	C6H5+
80.0495	71	C5H6N+
90.0341	22	C6H4N+
92.0496	27	C6H6N+
93.0572	34	C6H7N+
95.0492	32	C3H10ClN+
98.9998	51	C5H4Cl+
104.0493	26	C7H6N+
105.0573	18	C7H7N+
108.0445	239	C6H6NO+
111.9949	292	C5H3ClN+
113.0153	28	C6H6Cl+
123.0678	134	C7H9NO+
125.9871	34	C6H3ClO+
126.0104	29	C6H5ClN+
127.0181	17	C6H6ClN+
127.9901	33	C5H3ClNO+
128.9978	55	C5H4ClNO+
133.0524	24	C8H7NO+
136.0395	36	C7H6NO2+
139.9899	405	C6H3ClNO+
140.9738	433	C6H2ClO2+
142.0053	23	C6H5ClNO+
143.0133	201	C6H6ClNO+
143.0262	27	C7H8ClO+
149.0233	50	C8H5O3+
154.9893	70	C7H4ClO2+
155.9842	69	C9O3+
155.9976	247	C7H5ClO2+
158.0004	48	C6H5ClNO2+
164.0342	12	C8H6NO3+
170.0003	999	C7H5ClNO2+
171.0074	61	C10H3O3+
197.0241	45	C9H8ClNO2+
202.0028	155	C8H7ClO4+
