Mass spectrum: Corticosterone; LC-ESI-QFT; MS2; CE: 90; R=35000; [M+H]+
Name: Corticosterone
Name: 11b,21-Dihydroxyprogesterone
Name: (8S,9S,10R,11S,13S,14S,17S)-11-hydroxy-17-(2-hydroxyacetyl)-10,13-dimethyl-1,2,6,7,8,9,11,12,14,15,16,17-dodecahydrocyclopenta[a]phenanthren-3-one
Formula: C21H30O4
Exact mass: 346.21441
SMILES: O=C4\C=C2/[C@]([C@H]1[C@@H](O)C[C@@]3([C@@H](C(=O)CO)CC[C@H]3[C@@H]1CC2)C)(C)CC4
InChI: InChI=1S/C21H30O4/c1-20-8-7-13(23)9-12(20)3-4-14-15-5-6-16(18(25)11-22)21(15,2)10-17(24)19(14)20/h9,14-17,19,22,24H,3-8,10-11H2,1-2H3/t14-,15-,16+,17-,19+,20-,21-/m0/s1
Instrument: Q Exactive Plus Orbitrap Thermo Scientific
Instrument type: LC-ESI-QFT
Ms type: MS2
Ion mode: POSITIVE
Ionization: ESI
Fragmentation mode: HCD
Collision energy: 90 (nominal)
Resolution: 35000
Column name: XBridge C18 3.5um, 2.1x50mm, Waters
Retention time: 8.9 min
Base peak: 347.2214
Precursor m/z: 347.2217
Precursor type: [M+H]+
m/z	relative intensity	assigned
50.0151	9	C4H2+
51.0228	9	C4H3+
53.0022	15	C3HO+
53.0386	90	C4H5+
53.9974	1	C2NO+
55.0178	93	C3H3O+
55.0542	182	C4H7+
57.0335	15	C3H5O+
57.0699	4	C4H9+
59.0491	1	C3H7O+
61.0283	9	C2H5O2+
63.0227	1	C5H3+
65.0385	81	C5H5+
66.0464	5	C5H6+
67.0542	351	C5H7+
67.9892	2	C3O2+
69.0335	55	C4H5O+
69.0698	49	C5H9+
71.0491	11	C4H7O+
77.0385	93	C6H5+
78.0464	10	C6H6+
79.0542	595	C6H7+
80.062	6	C6H8+
81.0335	28	C5H5O+
81.0699	285	C6H9+
82.0413	2	C5H6O+
83.0491	146	C5H7O+
87.0441	6	C4H7O2+
91.0542	999	C7H7+
92.062	8	C7H8+
93.0699	328	C7H9+
94.0413	13	C6H6O+
95.0491	250	C6H7O+
95.0855	195	C7H11+
97.0648	342	C6H9O+
99.0439	12	C5H7O2+
101.0598	1	C5H9O2+
103.0542	112	C8H7+
104.062	18	C8H8+
105.0447	110	C6H5N2+
105.0699	707	C8H9+
106.0413	1	C7H6O+
106.0776	5	C8H10+
107.0491	84	C7H7O+
107.0855	116	C8H11+
108.057	14	C7H8O+
109.0648	190	C7H9O+
111.0441	10	C6H7O2+
111.0805	2	C7H11O+
115.0542	168	C9H7+
116.062	58	C9H8+
117.0698	227	C9H9+
118.0777	11	C9H10+
119.0604	21	C7H7N2+
119.0855	258	C9H11+
120.057	2	C8H8O+
121.0648	450	C8H9O+
123.0804	148	C8H11O+
127.0542	9	C10H7+
128.062	227	C10H8+
129.0698	226	C10H9+
130.0777	93	C10H10+
131.049	12	C9H7O+
131.0855	181	C10H11+
132.0569	16	C9H8O+
132.0933	6	C10H12+
133.0647	38	C9H9O+
133.1011	58	C10H13+
134.0726	6	C9H10O+
135.0803	23	C9H11O+
135.1167	5	C10H15+
137.096	2	C9H13O+
140.0625	1	C11H8+
141.0698	202	C11H9+
142.0777	157	C11H10+
143.0855	122	C11H11+
144.057	9	C10H8O+
144.0933	32	C11H12+
145.0647	43	C10H9O+
145.1011	98	C11H13+
146.0725	21	C10H10O+
146.1087	3	C11H14+
147.0804	43	C10H11O+
147.1169	13	C11H15+
148.0882	53	C10H12O+
149.096	8	C10H13O+
152.0621	18	C12H8+
153.0698	72	C12H9+
154.0777	50	C12H10+
155.0604	32	C10H7N2+
155.0855	102	C12H11+
156.0933	79	C12H12+
157.0648	10	C11H9O+
157.1012	55	C12H13+
158.0726	18	C11H10O+
158.1091	5	C12H14+
159.0804	26	C11H11O+
159.1167	25	C12H15+
160.0881	5	C11H12O+
161.0959	21	C11H13O+
162.1042	1	C11H14O+
163.1116	29	C11H15O+
165.0699	74	C13H9+
166.0778	28	C13H10+
167.0855	70	C13H11+
168.0933	31	C13H12+
169.1011	48	C13H13+
170.0725	1	C12H10O+
170.1088	7	C13H14+
171.0805	8	C12H11O+
171.1168	21	C13H15+
172.0883	2	C12H12O+
173.096	10	C12H13O+
173.1326	4	C13H17+
174.104	17	C12H14O+
175.1113	3	C12H15O+
176.12	1	C12H16O+
178.0776	24	C14H10+
179.0854	53	C14H11+
180.0932	17	C14H12+
181.0646	5	C13H9O+
181.1011	42	C14H13+
182.0728	1	C13H10O+
182.1089	15	C14H14+
183.0802	2	C13H11O+
183.1168	15	C14H15+
185.0958	8	C13H13O+
185.1322	6	C14H17+
186.1038	1	C13H14O+
187.1115	5	C13H15O+
188.1199	1	C13H16O+
189.0699	4	C15H9+
190.0774	5	C15H10+
191.0854	18	C15H11+
192.0932	13	C15H12+
193.1011	28	C15H13+
194.1089	11	C15H14+
195.0806	2	C14H11O+
195.1167	19	C15H15+
196.1247	4	C15H16+
197.0956	4	C14H13O+
197.1324	6	C15H17+
198.1039	2	C14H14O+
199.1115	5	C14H15O+
199.1479	2	C15H19+
200.1198	2	C14H16O+
202.0774	4	C16H10+
202.1349	1	C14H18O+
203.0856	10	C16H11+
204.0934	2	C16H12+
205.1014	16	C16H13+
206.1089	7	C16H14+
207.117	9	C16H15+
208.0883	2	C15H12O+
208.1249	1	C16H16+
209.1324	7	C16H17+
210.1401	1	C16H18+
211.1113	2	C15H15O+
211.1484	4	C16H19+
212.1194	2	C15H16O+
213.1271	9	C15H17O+
214.1348	1	C15H18O+
215.0852	1	C17H11+
217.101	6	C17H13+
218.1088	1	C17H14+
219.1169	7	C17H15+
220.1243	1	C17H16+
221.0955	2	C16H13O+
221.1322	2	C17H17+
223.1122	1	C16H15O+
225.1273	2	C16H17O+
227.1427	4	C16H19O+
232.1244	1	C18H16+
235.1114	1	C17H15O+
239.1432	4	C17H19O+
268.1452	4	C18H20O2+
