Mass spectrum: Losartan; LC-ESI-QFT; MS2; CE: 120; R=35000; [M-H]-
Name: Losartan
Name: [2-butyl-5-chloranyl-3-[[4-[2-(2H-1,2,3,4-tetrazol-5-yl)phenyl]phenyl]methyl]imidazol-4-yl]methanol
Formula: C22H23ClN6O
Exact mass: 421.15436
SMILES: Clc1nc(n(c1CO)Cc4ccc(c2ccccc2c3[nH]nnn3)cc4)CCCC
InChI: InChI=1S/C22H23ClN6O/c1-2-3-8-20-24-21(23)19(14-30)29(20)13-15-9-11-16(12-10-15)17-6-4-5-7-18(17)22-25-27-28-26-22/h4-7,9-12,30H,2-3,8,13-14H2,1H3,(H,25,26,27,28)
Instrument: Q Exactive Plus Orbitrap Thermo Scientific
Instrument type: LC-ESI-QFT
Ms type: MS2
Ion mode: NEGATIVE
Ionization: ESI
Fragmentation mode: HCD
Collision energy: 120 (nominal)
Resolution: 35000
Column name: XBridge C18 3.5um, 2.1x50mm, Waters
Retention time: 9.0 min
Base peak: 421.1545
Precursor m/z: 421.1549
Precursor type: [M-H]-
m/z	relative intensity	assigned
50.0035	20	C3N-
64.0192	5	C4H2N-
65.0145	14	C3HN2-
65.9985	6	C3NO-
91.0301	16	C5H3N2-
93.0345	20	C6H5O-
113.999	248	C4H3ClN2-
127.0068	999	C5H4ClN2-
141.9936	4	C5H3ClN2O-
145.9891	4	C4H3ClN2O2-
155.0019	6	C6H4ClN2O-
157.0538	23	C7H10ClN2-
165.0705	25	C13H9-
190.0668	4	C14H8N-
215.0614	23	C15H7N2-
228.0692	8	C16H8N2-
