Mass spectrum: Fenpropidin; LC-ESI-ITFT; MS2; CE: 75%; R=7500; [M+H]+
Name: Fenpropidin
Name: 1-[3-(4-tert-butylphenyl)-2-methyl-propyl]piperidine
Formula: C19H31N
Exact mass: 273.2457
SMILES: c1cc(ccc1CC(CN2CCCCC2)C)C(C)(C)C
InChI: InChI=1S/C19H31N/c1-16(15-20-12-6-5-7-13-20)14-17-8-10-18(11-9-17)19(2,3)4/h8-11,16H,5-7,12-15H2,1-4H3
Instrument: LTQ Orbitrap XL Thermo Scientific
Instrument type: LC-ESI-ITFT
Ms type: MS2
Ion mode: POSITIVE
Ionization: ESI
Fragmentation mode: HCD
Collision energy: 75 % (nominal)
Resolution: 7500
Column name: XBridge C18 3.5um, 2.1x50mm, Waters
Retention time: 9.5 min
Base peak: 274.253
Precursor m/z: 274.2529
Precursor type: [M+H]+
m/z	relative intensity	assigned
57.0699	38	C4H9+
69.07	8	C5H9+
79.0545	1	C6H7+
84.0809	17	C5H10N+
85.0888	3	C5H11N+
86.0965	330	C5H12N+
91.0543	32	C7H7+
93.0699	4	C7H9+
98.0966	4	C6H12N+
104.0618	2	C8H8+
105.0699	160	C8H9+
107.0855	25	C8H11+
117.0699	30	C9H9+
119.0856	203	C9H11+
131.0853	7	C10H11+
132.0934	216	C10H12+
133.1008	2	C10H13+
145.1013	10	C11H13+
146.1086	5	C11H14+
147.1169	999	C11H15+
159.1171	4	C12H15+
161.1326	23	C12H17+
174.1398	1	C13H18+
189.1638	6	C14H21+
218.1904	1	C15H24N+
274.2533	75	C19H32N+
