Mass spectrum: Noscapine; LC-ESI-QFT; MS2; CE: 15; R=35000; [M+H]+
Name: Noscapine
Name: (-)-Noscapine
Name: 6,7-dimethoxy-3-(4-methoxy-6-methyl-7,8-dihydro-5H-[1,3]dioxol[4,5-g]isoquinolin-5-yl)phthalide
Formula: C22H23NO7
Exact mass: 413.14745
SMILES: CN1CCC2=CC3=C(C(=C2[C@@H]1[C@@H]4C5=C(C(=C(C=C5)OC)OC)C(=O)O4)OC)OCO3
InChI: InChI=1S/C22H23NO7/c1-23-8-7-11-9-14-20(29-10-28-14)21(27-4)15(11)17(23)18-12-5-6-13(25-2)19(26-3)16(12)22(24)30-18/h5-6,9,17-18H,7-8,10H2,1-4H3/t17-,18+/m1/s1
Instrument: Q Exactive Orbitrap Thermo Scientific
Instrument type: LC-ESI-QFT
Ms type: MS2
Ion mode: POSITIVE
Ionization: ESI
Fragmentation mode: HCD
Collision energy: 15 (nominal)
Resolution: 35000
Column name: XBridge C18 3.5um, 2.1x50mm, Waters
Retention time: 5.4 min
Base peak: 414.1545
Precursor m/z: 414.1547
Precursor type: [M+H]+
m/z	relative intensity	assigned
179.07	2	C10H11O3+
220.0966	131	C12H14NO3+
353.1021	9	C20H17O6+
365.1019	3	C21H17O6+
396.1445	1	C22H22NO6+
414.1543	999	C22H24NO7+
