Mass spectrum: Orphenadrine; LC-ESI-QFT; MS2; CE: 75; R=35000; [M+H]+
Name: Orphenadrine
Name: N,N-dimethyl-2-[(2-methylphenyl)-phenylmethoxy]ethanamine
Formula: C18H23NO
Exact mass: 269.17796
SMILES: CC1=CC=CC=C1C(C2=CC=CC=C2)OCCN(C)C
InChI: InChI=1S/C18H23NO/c1-15-9-7-8-12-17(15)18(20-14-13-19(2)3)16-10-5-4-6-11-16/h4-12,18H,13-14H2,1-3H3
Instrument: Q Exactive Plus Orbitrap Thermo Scientific
Instrument type: LC-ESI-QFT
Ms type: MS2
Ion mode: POSITIVE
Ionization: ESI
Fragmentation mode: HCD
Collision energy: 75 (nominal)
Resolution: 35000
Column name: XBridge C18 3.5um, 2.1x50mm, Waters
Retention time: 7.4 min
Base peak: 270.1849
Precursor m/z: 270.1852
Precursor type: [M+H]+
m/z	relative intensity	assigned
53.0386	2	C4H5+
77.0385	1	C6H5+
79.0542	1	C6H7+
95.0492	1	C6H7O+
103.0542	29	C8H7+
105.0448	1	C6H5N2+
115.0542	22	C9H7+
116.062	2	C9H8+
141.0699	130	C11H9+
152.062	16	C12H8+
153.0699	69	C12H9+
164.0618	2	C13H8+
165.0699	628	C13H9+
166.0777	999	C13H10+
178.0777	37	C14H10+
179.0855	126	C14H11+
180.0934	15	C14H12+
181.1011	101	C14H13+
183.08	3	C13H11O+
193.076	4	C13H9N2+
