Mass spectrum: Atropine; LC-ESI-QFT; MS2; CE: 60; R=35000; [M+H]+
Name: Atropine
Name: (1R,5S)-8-Methyl-8-azabicyclo[3.2.1]oct-3-yl tropate
Formula: C17H23NO3
Exact mass: 289.16779
SMILES: CN1[C@@H]2CC[C@H]1C[C@H](C2)OC(=O)C(CO)C3=CC=CC=C3
InChI: InChI=1S/C17H23NO3/c1-18-13-7-8-14(18)10-15(9-13)21-17(20)16(11-19)12-5-3-2-4-6-12/h2-6,13-16,19H,7-11H2,1H3/t13-,14+,15+,16?
Instrument: Q Exactive Orbitrap Thermo Scientific
Instrument type: LC-ESI-QFT
Ms type: MS2
Ion mode: POSITIVE
Ionization: ESI
Fragmentation mode: HCD
Collision energy: 60 (nominal)
Resolution: 35000
Column name: XBridge C18 3.5um, 2.1x50mm, Waters
Retention time: 4.3 min
Base peak: 290.1752
Precursor m/z: 290.1751
Precursor type: [M+H]+
m/z	relative intensity	assigned
56.0495	1	C3H6N+
57.0574	4	C3H7N+
58.0652	6	C3H8N+
65.0386	7	C5H5+
67.0542	100	C5H7+
68.0494	18	C4H6N+
69.0699	1	C5H9+
70.0651	27	C4H8N+
77.0385	19	C6H5+
79.0542	11	C6H7+
81.0699	1	C6H9+
82.0651	55	C5H8N+
83.073	28	C5H9N+
91.0542	190	C7H7+
93.0698	810	C7H9+
94.0651	4	C6H8N+
95.0491	51	C6H7O+
95.073	14	C6H9N+
95.0855	53	C7H11+
96.0807	34	C6H10N+
97.0885	3	C6H11N+
98.0964	16	C6H12N+
103.0542	40	C8H7+
105.0448	22	C6H5N2+
107.0856	1	C8H11+
108.0807	3	C7H10N+
109.0886	6	C7H11N+
121.0648	54	C8H9O+
122.0964	6	C8H12N+
124.1121	999	C8H14N+
125.1198	20	C8H15N+
140.1069	14	C8H14NO+
142.1227	52	C8H16NO+
214.1586	5	C15H20N+
260.1647	4	C16H22NO2+
290.1751	62	C17H24NO3+
