Mass spectrum: Imatinib; LC-ESI-QFT; MS2; CE: 60; R=35000; [M+H]+
Name: Imatinib
Name: 4-[(4-methylpiperazin-1-yl)methyl]-N-[4-methyl-3-[(4-pyridin-3-ylpyrimidin-2-yl)amino]phenyl]benzamide
Formula: C29H31N7O
Exact mass: 493.25901
SMILES: CC1=C(C=C(C=C1)NC(=O)C2=CC=C(C=C2)CN3CCN(CC3)C)NC4=NC=CC(=N4)C5=CN=CC=C5
InChI: InChI=1S/C29H31N7O/c1-21-5-10-25(18-27(21)34-29-31-13-11-26(33-29)24-4-3-12-30-19-24)32-28(37)23-8-6-22(7-9-23)20-36-16-14-35(2)15-17-36/h3-13,18-19H,14-17,20H2,1-2H3,(H,32,37)(H,31,33,34)
Instrument: Q Exactive Plus Orbitrap Thermo Scientific
Instrument type: LC-ESI-QFT
Ms type: MS2
Ion mode: POSITIVE
Ionization: ESI
Fragmentation mode: HCD
Collision energy: 60 (nominal)
Resolution: 35000
Column name: XBridge C18 3.5um, 2.1x50mm, Waters
Retention time: 5.8 min
Base peak: 247.6364
Precursor m/z: 494.2663
Precursor type: [M+H]+
m/z	relative intensity	assigned
50.015	1	C4H2+
52.0182	5	C3H2N+
53.0386	1	C4H5+
55.0416	1	C3H5N+
56.0495	120	C3H6N+
57.0573	5	C3H7N+
58.0651	277	C3H8N+
63.0226	1	C5H3+
65.0385	4	C5H5+
66.0464	16	C5H6+
68.0255	1	C4H4O+
68.0495	7	C4H6N+
69.0448	1	C3H5N2+
69.0572	3	C4H7N+
70.0651	266	C4H8N+
71.0603	5	C3H7N2+
71.0731	1	C4H9N+
72.0807	34	C4H10N+
77.0385	2	C6H5+
78.0337	10	C5H4N+
79.0543	1	C6H7+
80.0494	17	C5H6N+
82.0525	1	C4H6N2+
82.065	8	C5H8N+
83.0603	18	C4H7N2+
84.0682	43	C4H8N2+
85.076	3	C4H9N2+
89.0386	6	C7H5+
90.0464	35	C7H6+
91.0542	63	C7H7+
93.0572	1	C6H7N+
94.065	8	C6H8N+
95.0491	5	C6H7O+
96.0443	7	C5H6NO+
96.0679	2	C5H8N2+
97.076	74	C5H9N2+
98.0838	125	C5H10N2+
99.0916	188	C5H11N2+
100.0994	16	C5H12N2+
101.1074	5	C5H13N2+
103.0542	7	C8H7+
104.0494	66	C7H6N+
105.0335	69	C7H5O+
105.0447	64	C6H5N2+
105.0698	6	C8H9+
106.0653	1	C7H8N+
107.0492	2	C7H7O+
109.0648	7	C7H9O+
109.076	11	C6H9N2+
111.0916	52	C6H11N2+
112.0995	20	C6H12N2+
115.0542	2	C9H7+
116.0494	1	C8H6N+
117.0572	5	C8H7N+
118.0413	79	C8H6O+
118.0651	8	C8H8N+
119.0491	183	C8H7O+
119.0603	21	C7H7N2+
121.0649	4	C8H9O+
121.076	62	C7H9N2+
122.0363	11	C7H6O2+
129.0447	1	C8H5N2+
129.0572	1	C9H7N+
129.0697	1	C10H9+
130.0651	14	C9H8N+
131.0495	34	C9H7O+
131.0603	316	C8H7N2+
132.0444	20	C8H6NO+
132.0682	57	C8H8N2+
132.0807	9	C9H10N+
133.076	1	C8H9N2+
135.0916	9	C8H11N2+
143.0731	1	C10H9N+
144.0808	1	C10H10N+
146.0599	8	C9H8NO+
146.0711	13	C8H8N3+
146.0962	7	C10H12N+
147.0555	4	C8H7N2O+
148.0993	1	C9H12N2+
152.062	5	C12H8+
154.0648	1	C11H8N+
156.0556	9	C9H6N3+
158.06	37	C10H8NO+
158.0709	14	C9H8N3+
158.0966	2	C11H12N+
160.0756	11	C10H10NO+
162.0913	2	C10H12NO+
163.0635	1	C9H9NO2+
165.0697	12	C13H9+
166.0651	1	C12H8N+
167.0734	1	C12H9N+
167.0855	24	C13H11+
168.0804	1	C12H10N+
169.0885	1	C12H11N+
171.0666	7	C9H7N4+
171.0791	2	C10H9N3+
172.0751	1	C9H8N4+
173.0822	42	C9H9N4+
174.0662	24	C9H8N3O+
174.0915	13	C11H12NO+
174.1153	5	C11H14N2+
177.0697	5	C14H9+
178.0649	4	C13H8N+
178.0775	16	C14H10+
179.0731	14	C13H9N+
179.0854	23	C14H11+
180.0807	6	C13H10N+
180.0934	1	C14H12+
181.0647	1	C13H9O+
181.0883	2	C13H11N+
185.0822	9	C10H9N4+
187.1232	1	C12H15N2+
188.13	1	C12H16N2+
189.1388	15	C12H17N2+
190.0653	1	C14H8N+
192.0806	10	C14H10N+
193.0886	15	C14H11N+
194.0964	234	C14H12N+
195.0804	12	C14H11O+
195.1042	17	C14H13N+
196.076	7	C13H10NO+
196.0994	7	C13H12N2+
197.083	13	C13H11NO+
203.073	6	C15H9N+
204.0808	47	C15H10N+
205.076	10	C14H9N2+
205.0886	15	C15H11N+
206.0839	136	C14H10N2+
207.0679	28	C14H9NO+
207.0918	2	C14H11N2+
208.0758	21	C14H10NO+
209.1072	13	C14H13N2+
210.0914	10	C14H12NO+
210.1153	10	C14H14N2+
212.1065	7	C14H14NO+
217.1334	7	C13H17N2O+
218.0832	2	C15H10N2+
219.0917	77	C15H11N2+
220.0757	20	C15H10NO+
220.0996	27	C15H12N2+
221.0842	8	C15H11NO+
221.1073	95	C15H13N2+
222.0914	809	C15H12NO+
223.0991	228	C15H13NO+
224.0944	11	C14H12N2O+
224.1051	2	C13H12N4+
229.0762	4	C16H9N2+
231.0792	1	C15H9N3+
231.0917	2	C16H11N2+
232.0632	19	C15H8N2O+
232.0873	1	C15H10N3+
232.0994	2	C16H12N2+
234.0793	7	C15H10N2O+
234.09	2	C14H10N4+
234.1019	2	C15H12N3+
235.0871	3	C15H11N2O+
235.0984	2	C14H11N4+
235.1107	1	C15H13N3+
235.1228	2	C16H15N2+
236.1183	5	C15H14N3+
237.1022	43	C15H13N2O+
237.1262	2	C15H15N3+
238.11	203	C15H14N2O+
239.118	5	C15H15N2O+
245.0951	1	C16H11N3+
245.107	4	C17H13N2+
246.0783	6	C16H10N2O+
246.0903	7	C15H10N4+
246.1028	10	C16H12N3+
247.0866	829	C16H11N2O+
248.0824	1	C15H10N3O+
248.0944	22	C16H12N2O+
248.1062	2	C15H12N4+
249.0896	22	C15H11N3O+
249.1023	30	C16H13N2O+
249.1138	6	C15H13N4+
256.0869	2	C17H10N3+
257.0952	2	C17H11N3+
258.0786	3	C17H10N2O+
259.0759	9	C18H11O2+
259.0977	51	C16H11N4+
260.0817	2	C16H10N3O+
260.1055	23	C16H12N4+
261.1009	25	C15H11N5+
261.1136	32	C16H13N4+
262.0971	10	C16H12N3O+
262.1089	7	C15H12N5+
262.1338	5	C17H16N3+
263.1058	3	C16H13N3O+
263.1178	57	C17H15N2O+
264.1131	330	C16H14N3O+
265.0971	262	C16H13N2O2+
270.1019	1	C18H12N3+
271.1099	3	C18H13N3+
272.0811	1	C17H10N3O+
272.1178	9	C18H14N3+
273.0889	2	C17H11N3O+
273.102	20	C18H13N2O+
274.0973	60	C17H12N3O+
274.1087	3	C16H12N5+
275.1174	4	C18H15N2O+
276.1245	30	C16H14N5+
277.1084	3	C16H13N4O+
288.0873	1	C16H10N5O+
288.1134	5	C18H14N3O+
290.1288	101	C18H16N3O+
297.1133	1	C19H13N4+
301.1085	7	C18H13N4O+
308.1192	1	C23H16O+
309.1273	1	C23H17O+
315.1253	2	C19H15N4O+
323.1293	4	C21H15N4+
324.1513	2	C24H20O+
326.1292	1	C21H16N3O+
332.1178	4	C23H14N3+
333.1136	5	C22H13N4+
335.1291	9	C24H17NO+
336.1373	4	C24H18NO+
337.1452	5	C22H17N4+
338.1283	1	C22H16N3O+
339.1249	1	C21H15N4O+
339.1605	5	C22H19N4+
346.1076	1	C22H12N5+
347.1286	2	C23H15N4+
349.1449	31	C23H17N4+
350.1418	25	C24H18N2O+
351.1238	61	C22H15N4O+
351.1465	37	C22H17N5+
351.1617	35	C23H19N4+
352.1449	5	C23H18N3O+
359.129	13	C24H15N4+
361.1086	6	C23H13N4O+
361.1317	39	C23H15N5+
362.1166	10	C23H14N4O+
363.1242	21	C23H15N4O+
364.119	18	C22H14N5O+
364.1553	18	C23H18N5+
365.1634	27	C23H19N5+
366.1715	89	C23H20N5+
367.1555	2	C23H19N4O+
374.1398	8	C24H16N5+
375.1237	6	C24H15N4O+
375.1478	9	C24H17N5+
376.1556	88	C24H18N5+
377.1402	77	C24H17N4O+
378.1351	999	C23H16N5O+
379.1428	234	C23H17N5O+
392.1504	7	C24H18N5O+
393.1584	5	C24H19N5O+
394.1664	93	C24H20N5O+
