Mass spectrum: Azinphos-ethyl; LC-ESI-QFT; MS2; CE: 120; R=35000; [M+H]+
Name: Azinphos-ethyl
Name: Azinphos ethyl
Name: 3-(diethoxyphosphinothioylsulfanylmethyl)-1,2,3-benzotriazin-4-one
Formula: C12H16N3O3PS2
Exact mass: 345.03707
SMILES: CCOP(=S)(OCC)SCN1C(=O)C2=CC=CC=C2N=N1
InChI: InChI=1S/C12H16N3O3PS2/c1-3-17-19(20,18-4-2)21-9-15-12(16)10-7-5-6-8-11(10)13-14-15/h5-8H,3-4,9H2,1-2H3
Instrument: Q Exactive Plus Orbitrap Thermo Scientific
Instrument type: LC-ESI-QFT
Ms type: MS2
Ion mode: POSITIVE
Ionization: ESI
Fragmentation mode: HCD
Collision energy: 120 (nominal)
Resolution: 35000
Column name: XBridge C18 3.5um, 2.1x50mm, Waters
Retention time: 11.4 min
Base peak: 346.0438
Precursor m/z: 346.0443
Precursor type: [M+H]+
m/z	relative intensity	assigned
50.0152	211	C4H2+
51.023	871	C4H3+
52.0308	3	C4H4+
53.0023	5	C3HO+
53.0386	107	C4H5+
55.0179	4	C3H3O+
62.0151	4	C5H2+
62.9454	4	PS+
63.023	14	C5H3+
64.0308	2	C5H4+
64.9788	659	H2O2P+
65.0387	437	C5H5+
68.9794	80	C3HS+
74.015	16	C6H2+
75.023	93	C6H3+
76.0183	25	C5H2N+
76.0307	2	C6H4+
77.0386	265	C6H5+
78.0339	13	C5H4N+
78.0465	12	C6H6+
78.9403	111	OPS+
78.9945	5	CH4O2P+
81.0336	13	C5H5O+
81.9873	10	C4H2S+
82.9895	3	H4O3P+
82.995	9	C4H3S+
91.0544	3	C7H7+
92.0257	8	C6H4O+
94.0413	3	C6H6O+
95.0493	354	C6H7O+
96.0445	5	C5H6NO+
96.9509	106	H2O2PS+
97.0109	11	CH8NPS+
98.9843	31	H4O4P+
102.0339	22	C7H4N+
104.0496	74	C7H6N+
105.0449	217	C6H5N2+
108.0029	74	C6H4S+
109.0108	324	C6H5S+
110.9665	3	CH4O2PS+
114.9615	999	H4O3PS+
121.0108	3	C7H5S+
128.9771	12	CH6O3PS+
130.0401	19	C7H4N3+
132.9722	5	H6O4PS+
135.9978	3	C7H4OS+
137.0057	8	C7H5OS+
153.0008	3	C3H8NO2PS+
