Mass spectrum: Ethiofencarb-Sulfone; LC-ESI-QFT; MS2; CE: 75%; R=17500; [M+H]+
Name: Ethiofencarb-Sulfone
Name: Phenol, 2-((ethylsulfonyl)methyl)-, methylcarbamate
Name: [2-(ethylsulfonylmethyl)phenyl] N-methylcarbamate
Formula: C11H15NO4S
Exact mass: 257.0722
SMILES: CCS(=O)(=O)CC1=CC=CC=C1OC(=O)NC
InChI: InChI=1S/C11H15NO4S/c1-3-17(14,15)8-9-6-4-5-7-10(9)16-11(13)12-2/h4-7H,3,8H2,1-2H3,(H,12,13)
Instrument: Exploris 240 Orbitrap Thermo Scientific
Instrument type: LC-ESI-QFT
Ms type: MS2
Ion mode: POSITIVE
Ionization: ESI
Fragmentation mode: HCD
Collision energy: 75 % (nominal)
Resolution: 17500
Column name: XBridge C18 3.5um, 2.1x50mm, Waters
Retention time: 3.501 min
Base peak: 201.058
Precursor m/z: 258.0795
Precursor type: [M+H]+
m/z	relative intensity	assigned
53.0387	11	C4H5+
58.0288	6	C2H4NO+
77.0386	41	C6H5+
79.0542	129	C6H7+
95.0492	11	C6H7O+
107.0491	999	C7H7O+
