Mass spectrum: Chlorthal-dimethyl; LC-ESI-QFT; MS2; CE: 180; R=35000; [M+H]+
Name: Chlorthal-dimethyl
Name: Dimethyl 2,3,5,6-tetrachloroterephthalate
Name: Dimethyl 2,3,5,6-tetrachlorobenzene-1,4-dicarboxylate
Formula: C10H6Cl4O4
Exact mass: 329.90202
SMILES: COC(=O)C1=C(C(=C(C(=C1Cl)Cl)C(=O)OC)Cl)Cl
InChI: InChI=1S/C10H6Cl4O4/c1-17-9(15)3-5(11)7(13)4(10(16)18-2)8(14)6(3)12/h1-2H3
Instrument: Q Exactive Plus Orbitrap Thermo Scientific
Instrument type: LC-ESI-QFT
Ms type: MS2
Ion mode: POSITIVE
Ionization: ESI
Fragmentation mode: HCD
Collision energy: 180 (nominal)
Resolution: 35000
Column name: XBridge C18 3.5um, 2.1x50mm, Waters
Retention time: 13.4 min
Base peak: 245.1745
Precursor m/z: 330.9093
Precursor type: [M+H]+
m/z	relative intensity	assigned
51.023	4	C4H3+
53.0023	5	C3HO+
62.9631	19	CClO+
64.9787	3	CH2ClO+
65.0386	3	C5H5+
70.9683	1	C3Cl+
72.984	6	C3H2Cl+
74.0152	9	C6H2+
75.023	3	C6H3+
80.9737	6	CH2ClO2+
82.9451	5	CHCl2+
83.9762	4	C4HCl+
86.9634	3	C3ClO+
87.0232	1	C7H3+
91.0543	1	C7H7+
94.9684	49	C5Cl+
95.9762	10	C5HCl+
96.984	7	C5H2Cl+
98.9843	999	CH4ClO3+
105.9372	1	C3Cl2+
106.9451	5	C3HCl2+
107.9762	30	C6HCl+
108.984	1	C6H2Cl+
110.9634	4	C5ClO+
112.9999	1	C2H6ClO3+
115.0543	3	C9H7+
117.9375	6	C4Cl2+
122.9633	3	C6ClO+
129.9373	175	C5Cl2+
130.9452	7	C5HCl2+
140.906	4	C3Cl3+
141.9373	70	C6Cl2+
142.9451	6	C6HCl2+
156.9607	1	C7H3Cl2+
164.9062	26	C5Cl3+
