Mass spectrum: Bupivacaine; LC-ESI-QFT; MS2; CE: 90; R=35000; [M+H]+
Name: Bupivacaine
Name: 1-butyl-N-(2,6-dimethylphenyl)piperidine-2-carboxamide
Formula: C18H28N2O
Exact mass: 288.22016
SMILES: CCCCN1CCCCC1/C(=N/C2=C(C=CC=C2C)C)/O
InChI: InChI=1S/C18H28N2O/c1-4-5-12-20-13-7-6-11-16(20)18(21)19-17-14(2)9-8-10-15(17)3/h8-10,16H,4-7,11-13H2,1-3H3,(H,19,21)
Instrument: Q Exactive Orbitrap Thermo Scientific
Instrument type: LC-ESI-QFT
Ms type: MS2
Ion mode: POSITIVE
Ionization: ESI
Fragmentation mode: HCD
Collision energy: 90 (nominal)
Resolution: 35000
Column name: XBridge C18 3.5um, 2.1x50mm, Waters
Retention time: 6.2 min
Base peak: 289.2276
Precursor m/z: 289.2274
Precursor type: [M+H]+
m/z	relative intensity	assigned
53.0023	3	C3HO+
55.0543	1	C4H7+
56.0496	33	C3H6N+
57.07	43	C4H9+
67.0543	30	C5H7+
67.9894	1	C3O2+
69.0699	1	C5H9+
70.0651	90	C4H8N+
82.0652	13	C5H8N+
83.073	1	C5H9N+
84.0808	999	C5H10N+
96.0808	3	C6H10N+
98.0965	484	C6H12N+
105.07	2	C8H9+
106.0654	1	C7H8N+
107.073	7	C7H9N+
112.1121	38	C7H14N+
123.0806	1	C8H11O+
138.1278	4	C9H16N+
140.1434	727	C9H18N+
