Mass spectrum: Naptalam; LC-ESI-QFT; MS2; CE: 30; R=35000; [M+H]+
Name: Naptalam
Name: 2-(1-naphthylcarbamoyl)benzoic acid
Formula: C18H13NO3
Exact mass: 291.08954
SMILES: O=C(O)c1ccccc1C(=O)Nc3cccc2ccccc23
InChI: InChI=1S/C18H13NO3/c20-17(14-9-3-4-10-15(14)18(21)22)19-16-11-5-7-12-6-1-2-8-13(12)16/h1-11H,(H,19,20)(H,21,22)
Instrument: Q Exactive Orbitrap Thermo Scientific
Instrument type: LC-ESI-QFT
Ms type: MS2
Ion mode: POSITIVE
Ionization: ESI
Fragmentation mode: HCD
Collision energy: 30 (nominal)
Resolution: 35000
Column name: XBridge C18 3.5um, 2.1x50mm, Waters
Retention time: 7.2 min
Base peak: 292.0968
Precursor m/z: 292.0968
Precursor type: [M+H]+
m/z	relative intensity	assigned
65.0385	1	C5H5+
121.0284	3	C7H5O2+
143.0729	3	C10H9N+
144.0808	999	C10H10N+
145.0646	2	C10H9O+
149.0233	820	C8H5O3+
155.0601	1	C10H7N2+
167.0339	6	C8H7O4+
246.0909	5	C17H12NO+
256.0756	51	C18H10NO+
274.0861	217	C18H12NO2+
