Mass spectrum: MCLF; LC-ESI-QFT; MS2; CE: 120%; R=17500; [M+H]+
Name: MCLF
Name: Microcystin LF
Name: 15-benzyl-18-[(1E,3E)-6-methoxy-3,5-dimethyl-7-phenylhepta-1,3-dienyl]-1,5,12,19-tetramethyl-2-methylidene-8-(2-methylpropyl)-3,6,9,13,16,20,25-heptaoxo-1,4,7,10,14,17,21-heptazacyclopentacosane-11,22-dicarboxylic acid
Class: NA
Formula: C52H71N7O12
Exact mass: 985.5161
SMILES: COC(Cc1ccccc1)C(C)/C=C(C)/C=C/C2NC(=O)C(Cc3ccccc3)NC(=O)C(C)C(NC(=O)C(CC(C)C)NC(=O)C(C)NC(=O)C(=C)N(C)C(=O)CCC(NC(=O)C2C)C(O)=O)C(O)=O
InChI: InChI=1S/C52H71N7O12/c1-29(2)25-40-50(66)58-44(52(69)70)33(6)46(62)56-41(27-36-17-13-11-14-18-36)49(65)54-38(22-21-30(3)26-31(4)42(71-10)28-37-19-15-12-16-20-37)32(5)45(61)55-39(51(67)68)23-24-43(60)59(9)35(8)48(64)53-34(7)47(63)57-40/h11-22,26,29,31-34,38-42,44H,8,23-25,27-28H2,1-7,9-10H3,(H,53,64)(H,54,65)(H,55,61)(H,56,62)(H,57,63)(H,58,66)(H,67,68)(H,69,70)/b22-21+,30-26+
Instrument: Q Exactive Plus Orbitrap Thermo Scientific
Instrument type: LC-ESI-QFT
Ms type: MS2
Ion mode: POSITIVE
Ionization: ESI
Fragmentation mode: HCD
Collision energy: 120 % (nominal)
Resolution: 17500
Column name: XBridge C18 3.5um, 2.1x50mm, Waters
Retention time: 12.318 min
Base peak: 164.9846
Precursor m/z: 986.5233
Precursor type: [M+H]+
m/z	relative intensity	assigned
69.0335	19	C4H5O+
69.0699	13	C5H9+
74.0236	13	C2H4NO2+
77.0385	51	C6H5+
79.0542	280	C6H7+
80.0494	66	C5H6N+
81.0571	7	C5H7N+
81.07	21	C6H9+
82.0288	25	C4H4NO+
82.0651	99	C5H8N+
84.0444	114	C4H6NO+
84.0806	8	C5H10N+
85.0285	18	C4H5O2+
86.06	11	C4H8NO+
86.0964	45	C5H12N+
91.0543	933	C7H7+
92.0622	18	C7H8+
93.0574	7	C6H7N+
93.0699	126	C7H9+
94.0417	4	C6H6O+
94.0651	44	C6H8N+
95.0492	505	C6H7O+
95.0855	14	
96.0681	6	C5H8N2+
96.0807	10	C6H10N+
99.0916	40	C5H11N2+
102.0463	29	C8H6+
103.0542	999	C8H7+
104.0618	4	C8H8+
105.0448	164	C6H5N2+
105.0699	368	C8H9+
106.0526	15	C6H6N2+
106.065	8	C7H8N+
107.0855	234	C8H11+
108.0684	13	C6H8N2+
108.0806	6	C7H10N+
109.0649	66	C7H9O+
110.0601	13	C6H8NO+
113.0233	32	C5H5O3+
115.0542	117	C9H7+
116.0619	17	C9H8+
117.0573	7	C8H7N+
117.0699	44	C9H9+
118.0651	16	C8H8N+
119.0603	47	C7H7N2+
119.073	7	C8H9N+
119.0853	19	C9H11+
120.0569	10	
120.0808	310	C8H10N+
121.076	62	C7H9N2+
127.0866	106	C6H11N2O+
128.0517	5	
128.062	66	C10H8+
129.0697	40	C10H9+
130.0651	34	C9H8N+
130.0773	12	C10H10+
131.0855	29	C10H11+
135.0803	9	C9H11O+
135.1167	5	C10H15+
139.0865	5	C7H11N2O+
141.0696	16	C11H9+
143.073	9	C10H9N+
145.0645	8	C10H9O+
146.0598	8	C9H8NO+
149.0707	12	C8H9N2O+
153.07	8	C12H9+
155.0602	10	C10H7N2+
165.07	33	C13H9+
178.0776	19	C14H10+
179.0852	15	C14H11+
