Mass spectrum: Pinoxaden; LC-ESI-ITFT; MS2; CE: 75%; R=15000; [M+H]+
Name: Pinoxaden
Name: 8-(2,6-diethyl-4-methylphenyl)-1,2,4,5-tetrahydro-7-oxo-7H-pyrazolo(1,2-d)(1,4,5)oxadiazepin-9-yl 2,2-dimethylpropanoate
Formula: C23H32N2O4
Exact mass: 400.2368
SMILES: CC(C)(C)C(=O)O/C2=C(/C(=O)N1CCOCCN12)c3c(CC)cc(C)cc3CC
InChI: InChI=1S/C23H32N2O4/c1-7-16-13-15(3)14-17(8-2)18(16)19-20(26)24-9-11-28-12-10-25(24)21(19)29-22(27)23(4,5)6/h13-14H,7-12H2,1-6H3
Instrument: LTQ Orbitrap XL Thermo Scientific
Instrument type: LC-ESI-ITFT
Ms type: MS2
Ion mode: POSITIVE
Ionization: ESI
Fragmentation mode: HCD
Collision energy: 75 % (nominal)
Resolution: 15000
Column name: XBridge C18 3.5um, 2.1x50mm, Waters
Retention time: 13.7 min
Base peak: 401.2442
Precursor m/z: 401.2435
Precursor type: [M+H]+
m/z	relative intensity	assigned
57.0698	999	C4H9+
71.0603	206	C3H7N2+
85.0395	49	C3H5N2O+
91.0541	75	C7H7+
93.0699	46	C7H9+
101.0709	271	C4H9N2O+
102.0787	89	C4H10N2O+
105.0698	236	C8H9+
117.0699	109	C9H9+
119.0855	248	C9H11+
128.0616	31	C10H8+
129.0699	119	C10H9+
130.0653	27	C9H8N+
130.0775	67	C10H10+
131.0728	48	C9H9N+
131.0855	869	C10H11+
132.057	44	C9H8O+
132.0805	35	C9H10N+
132.0933	24	C10H12+
133.1012	428	C10H13+
139.05	31	C6H7N2O2+
142.0778	38	C11H10+
143.073	33	C10H9N+
143.0856	61	C11H11+
144.0807	72	C10H10N+
144.0935	30	C11H12+
145.0647	97	C10H9O+
145.0885	169	C10H11N+
145.1011	87	C11H13+
146.06	146	C9H8NO+
146.0964	297	C10H12N+
147.0801	54	C10H11O+
147.1166	85	C11H15+
148.1115	30	C10H14N+
156.0807	75	C11H10N+
157.0886	76	C11H11N+
157.1013	71	C12H13+
158.0726	78	C11H10O+
158.0965	77	C11H12N+
159.0803	231	C11H11O+
159.1045	53	C11H13N+
159.1169	369	C12H15+
160.0758	71	C10H10NO+
160.0882	402	C11H12O+
160.112	53	C11H14N+
160.1247	35	C12H16+
161.096	71	C11H13O+
161.107	37	C10H13N2+
161.1324	114	C12H17+
169.1016	39	C13H13+
170.0962	27	C12H12N+
171.0762	31	C7H11N2O3+
171.1035	43	C12H13N+
172.0635	42	C10H8N2O+
172.0763	39	C11H10NO+
172.1123	84	C12H14N+
173.0832	46	C11H11NO+
173.0959	32	C12H13O+
173.1328	47	C13H17+
174.0548	48	C10H8NO2+
174.0912	674	C11H12NO+
174.1276	216	C12H16N+
175.1115	103	C12H15O+
185.0705	34	C11H9N2O+
186.0676	78	C12H10O2+
186.0917	37	C12H12NO+
187.0753	187	C12H11O2+
187.1114	114	C13H15O+
188.1068	165	C12H14NO+
188.156	42	C14H20+
189.1386	232	C12H17N2+
198.0916	56	C13H12NO+
200.1435	27	C14H18N+
202.0861	59	C12H12NO2+
202.1226	199	C13H16NO+
215.0817	31	C12H11N2O2+
215.1066	44	C14H15O2+
216.0891	116	C12H12N2O2+
217.1326	43	C13H17N2O+
217.1693	57	C14H21N2+
229.097	160	C13H13N2O2+
230.1043	62	C13H14N2O2+
233.165	139	C14H21N2O+
244.1204	141	C14H16N2O2+
260.1159	35	C14H16N2O3+
261.1229	124	C14H17N2O3+
261.1958	31	C16H25N2O+
271.144	284	C16H19N2O2+
273.1228	132	C15H17N2O3+
285.1589	65	C17H21N2O2+
287.1382	71	C16H19N2O3+
288.1464	166	C16H20N2O3+
289.1544	664	C16H21N2O3+
317.1859	451	C18H25N2O3+
