Mass spectrum: Oxolinic acid; LC-ESI-QFT; MS2; CE: 120; R=35000; [M+H]+
Name: Oxolinic acid
Name: 5-ethyl-8-oxo-[1,3]dioxolo[4,5-g]quinoline-7-carboxylic acid
Formula: C13H11NO5
Exact mass: 261.06372
SMILES: CCN1C=C(C(=O)C2=CC3=C(C=C21)OCO3)C(=O)O
InChI: InChI=1S/C13H11NO5/c1-2-14-5-8(13(16)17)12(15)7-3-10-11(4-9(7)14)19-6-18-10/h3-5H,2,6H2,1H3,(H,16,17)
Instrument: Q Exactive Plus Orbitrap Thermo Scientific
Instrument type: LC-ESI-QFT
Ms type: MS2
Ion mode: POSITIVE
Ionization: ESI
Fragmentation mode: HCD
Collision energy: 120 (nominal)
Resolution: 35000
Column name: XBridge C18 3.5um, 2.1x50mm, Waters
Retention time: 0.9 min
Base peak: 262.0705
Precursor m/z: 262.071
Precursor type: [M+H]+
m/z	relative intensity	assigned
50.0151	84	C4H2+
51.0103	7	C3HN+
51.0229	49	C4H3+
52.0182	121	C3H2N+
52.0307	6	C4H4+
53.0022	68	C3HO+
53.0386	130	C4H5+
54.0338	10	C3H4N+
55.0179	39	C3H3O+
61.0072	1	C5H+
62.015	15	C5H2+
63.0229	124	C5H3+
64.0182	7	C4H2N+
64.0307	10	C5H4+
65.0386	999	C5H5+
66.0338	13	C4H4N+
66.0464	33	C5H6+
67.0178	7	C4H3O+
67.0542	6	C5H7+
68.0131	70	C3H2NO+
68.9971	34	C3HO2+
74.015	51	C6H2+
75.0229	473	C6H3+
76.0181	38	C5H2N+
76.0307	75	C6H4+
77.0385	412	C6H5+
78.0338	76	C5H4N+
78.0464	10	C6H6+
79.0178	8	C5H3O+
79.0416	8	C5H5N+
79.0542	21	C6H7+
80.0131	17	C4H2NO+
80.0495	10	C5H6N+
81.0335	30	C5H5O+
87.0229	112	C7H3+
88.0182	28	C6H2N+
88.0307	10	C7H4+
89.0386	194	C7H5+
90.0339	29	C6H4N+
90.0465	45	C7H6+
91.0417	43	C6H5N+
91.0542	240	C7H7+
92.0257	14	C6H4O+
92.0494	20	C6H6N+
93.0335	9	C6H5O+
93.07	3	C7H9+
94.0413	10	C6H6O+
95.0491	421	C6H7O+
96.0444	186	C5H6NO+
100.0181	10	C7H2N+
101.026	207	C7H3N+
102.0338	575	C7H4N+
102.0464	66	C8H6+
103.0178	58	C7H3O+
103.0416	105	C7H5N+
103.0542	538	C8H7+
104.0494	432	C7H6N+
105.0335	225	C7H5O+
105.0447	292	C6H5N2+
106.0286	18	C6H4NO+
106.0415	2	C7H6O+
106.0652	6	C7H8N+
107.0367	1	C6H5NO+
108.0443	3	C6H6NO+
109.0284	11	C6H5O2+
111.0441	9	C6H7O2+
113.0385	12	C9H5+
114.0339	462	C8H4N+
115.0417	55	C8H5N+
115.0542	105	C9H7+
116.0495	91	C8H6N+
117.0573	225	C8H7N+
118.0288	39	C7H4NO+
118.0651	192	C8H8N+
119.0128	34	C7H3O2+
119.0366	39	C7H5NO+
119.0492	7	C8H7O+
120.0206	107	C7H4O2+
120.0444	60	C7H6NO+
121.0285	54	C7H5O2+
121.0398	3	C6H5N2O+
125.0236	3	C6H5O3+
127.0418	3	C9H5N+
128.0495	68	C9H6N+
129.0209	43	C8H3NO+
129.0447	21	C8H5N2+
129.0574	29	C9H7N+
130.0288	364	C8H4NO+
130.04	158	C7H4N3+
130.0652	498	C9H8N+
131.0367	34	C8H5NO+
131.0492	9	C9H7O+
131.073	52	C9H9N+
132.0206	35	C8H4O2+
132.0444	264	C8H6NO+
133.0284	752	C8H5O2+
134.0235	2	C7H4NO2+
134.0601	16	C8H8NO+
135.0315	2	C7H5NO2+
136.0394	9	C7H6NO2+
137.0234	3	C7H5O3+
139.0389	19	C7H7O3+
140.0494	15	C10H6N+
141.0572	17	C10H7N+
142.0288	118	C9H4NO+
142.0651	24	C10H8N+
143.0365	12	C9H5NO+
144.0444	31	C9H6NO+
145.0285	14	C9H5O2+
145.0525	12	C9H7NO+
146.0362	19	C9H6O2+
146.0601	29	C9H8NO+
147.0316	30	C8H5NO2+
148.0392	78	C8H6NO2+
149.0346	87	C7H5N2O2+
151.0263	12	C7H5NO3+
156.0079	9	C9H2NO2+
156.0444	4	C10H6NO+
157.016	20	C9H3NO2+
157.0523	10	C10H7NO+
158.0237	153	C9H4NO2+
158.06	59	C10H8NO+
159.0315	40	C9H5NO2+
159.068	8	C10H9NO+
160.0393	602	C9H6NO2+
161.0472	8	C9H7NO2+
162.0185	8	C8H4NO3+
163.026	3	C8H5NO3+
164.0102	13	C8H4O4+
164.0342	3	C8H6NO3+
170.0349	40	C9H4N3O+
170.0601	2	C11H8NO+
171.0315	3	C10H5NO2+
172.0393	789	C10H6NO2+
173.0471	77	C10H7NO2+
174.0187	8	C9H4NO3+
174.0548	2	C10H8NO2+
175.0271	2	C9H5NO3+
176.0343	26	C9H6NO3+
177.0424	7	C9H7NO3+
186.0186	570	C10H4NO3+
187.0265	34	C10H5NO3+
187.0627	19	C11H9NO2+
188.0104	6	C10H4O4+
188.0344	24	C10H6NO3+
188.0708	1	C11H10NO2+
190.0135	2	C9H4NO4+
200.0342	12	C11H6NO3+
200.0703	2	C12H10NO2+
203.0211	2	C10H5NO4+
204.0294	8	C10H6NO4+
205.0365	6	C10H7NO4+
214.0135	350	C11H4NO4+
215.0213	25	C11H5NO4+
216.0291	2	C11H6NO4+
228.0289	3	C12H6NO4+
232.0241	49	C11H6NO5+
233.0321	13	C11H7NO5+
234.0398	11	C11H8NO5+
