Mass spectrum: Profoxydim; LC-ESI-QFT; MS2; CE: 60; R=35000; [M-H]-
Name: Profoxydim
Name: 2-[1-[2-(4-chlorophenoxy)propoxyamino]butylidene]-5-(thian-3-yl)cyclohexane-1,3-dione
Formula: C24H32ClNO4S
Exact mass: 465.17406
SMILES: CCCC(=C1C(=O)CC(CC1=O)C2CCCSC2)NOCC(C)OC3=CC=C(C=C3)Cl
InChI: InChI=1S/C24H32ClNO4S/c1-3-5-21(26-29-14-16(2)30-20-9-7-19(25)8-10-20)24-22(27)12-18(13-23(24)28)17-6-4-11-31-15-17/h7-10,16-18,26H,3-6,11-15H2,1-2H3
Instrument: Q Exactive Plus Orbitrap Thermo Scientific
Instrument type: LC-ESI-QFT
Ms type: MS2
Ion mode: NEGATIVE
Ionization: ESI
Fragmentation mode: HCD
Collision energy: 60 (nominal)
Resolution: 35000
Column name: XBridge C18 3.5um, 2.1x50mm, Waters
Retention time: 14.4 min
Base peak: 464.1659
Precursor m/z: 464.1668
Precursor type: [M-H]-
m/z	relative intensity	assigned
57.0346	3	C3H5O-
58.996	6	C2H3S-
60.9752	1	CHOS-
65.0396	2	C5H5-
65.9985	21	C3NO-
67.0189	1	C4H3O-
68.0142	1	C3H2NO-
69.0346	27	C4H5O-
81.0709	1	C6H9-
82.0297	7	C4H4NO-
91.0189	2	C6H3O-
92.0505	1	C6H6N-
94.0297	1	C5H4NO-
95.0138	27	C5H3O2-
95.0501	1	C6H7O-
101.0429	12	C5H9S-
107.0502	2	C7H7O-
109.0294	12	C6H5O2-
110.061	6	C6H8NO-
120.009	8	C6H2NO2-
120.0454	1	C7H6NO-
121.0659	3	C8H9O-
123.0815	2	C8H11O-
126.0924	2	C7H12NO-
126.9956	387	C6H4ClO-
133.0657	1	C9H9O-
134.0247	56	C7H4NO2-
135.0324	5	C7H5NO2-
136.0402	5	C7H6NO2-
140.0539	19	C7H10NS-
150.0193	1	C7H4NO3-
152.0352	1	C7H6NO3-
158.0612	1	C10H8NO-
160.0768	1	C10H10NO-
162.056	1	C9H8NO2-
166.0333	1	C8H8NOS-
167.0224	2	C7H5NO4-
167.0535	12	C9H11OS-
169.0692	27	C9H13OS-
176.0715	1	C10H10NO2-
178.0871	4	C10H12NO2-
192.0488	71	C10H10NOS-
194.0643	47	C10H12NOS-
202.0875	2	C12H12NO2-
208.0799	1	C11H14NOS-
211.0795	2	C11H15O2S-
218.0645	1	C12H12NOS-
235.0911	2	C12H15N2OS-
236.075	999	C12H14NO2S-
237.071	1	C19H9-
252.1064	5	C13H18NO2S-
264.1059	4	C14H18NO2S-
278.122	1	C15H20NO2S-
280.1376	11	C15H22NO2S-
