Mass spectrum: MCLW; LC-ESI-QFT; MS2; CE: 60%; R=17500; [M-H]-
Name: MCLW
Name: Microcystin LW
Name: (5R,8S,11R,12S,15S,18S,19S,22R)-15-(1H-indol-3-ylmethyl)-18-[(1E,3E,5S,6S)-6-methoxy-3,5-dimethyl-7-phenylhepta-1,3-dienyl]-1,5,12,19-tetramethyl-2-methylidene-8-(2-methylpropyl)-3,6,9,13,16,20,25-heptaoxo-1,4,7,10,14,17,21-heptazacyclopentacosane-11,22-dicarboxylic acid
Class: NA
Formula: C54H72N8O12
Exact mass: 1024.5270
SMILES: CO[C@@H](Cc1ccccc1)[C@@H](C)/C=C(C)/C=C/[C@@H]2NC(=O)[C@H](Cc3c[nH]c4ccccc34)NC(=O)[C@@H](C)[C@@H](NC(=O)[C@H](CC(C)C)NC(=O)[C@@H](C)NC(=O)C(=C)N(C)C(=O)CC[C@@H](NC(=O)[C@H]2C)C(O)=O)C(O)=O
InChI: InChI=1S/C54H72N8O12/c1-29(2)24-42-52(69)61-46(54(72)73)33(6)48(65)59-43(27-37-28-55-40-19-15-14-18-38(37)40)51(68)57-39(21-20-30(3)25-31(4)44(74-10)26-36-16-12-11-13-17-36)32(5)47(64)58-41(53(70)71)22-23-45(63)62(9)35(8)50(67)56-34(7)49(66)60-42/h11-21,25,28-29,31-34,39,41-44,46,55H,8,22-24,26-27H2,1-7,9-10H3,(H,56,67)(H,57,68)(H,58,64)(H,59,65)(H,60,66)(H,61,69)(H,70,71)(H,72,73)/b21-20+,30-25+/t31-,32-,33-,34+,39-,41+,42-,43-,44-,46+/m0/s1
Instrument: Q Exactive Plus Orbitrap Thermo Scientific
Instrument type: LC-ESI-QFT
Ms type: MS2
Ion mode: NEGATIVE
Ionization: ESI
Fragmentation mode: HCD
Collision energy: 60 % (nominal)
Resolution: 17500
Column name: XBridge C18 3.5um, 2.1x50mm, Waters
Retention time: 11.783 min
Base peak: 1023.5204
Precursor m/z: 1023.5197
Precursor type: [M-H]-
m/z	relative intensity	assigned
72.0091	16	C2H2NO2-
72.0455	73	C3H6NO-
73.0296	31	C3H5O2-
73.0408	25	C2H5N2O-
74.0249	104	C2H4NO2-
80.0506	23	C5H6N-
81.0217	8	C4H3NO-
82.0299	72	C4H4NO-
82.0663	73	C5H8N-
83.0249	20	C3H3N2O-
84.0089	7	C3H2NO2-
84.0455	122	C4H6NO-
84.0819	18	C5H10N-
85.0408	26	C3H5N2O-
87.0566	90	C3H7N2O-
88.0405	14	C3H6NO2-
91.0551	10	C7H7-
94.0298	24	C5H4NO-
94.0662	17	C6H8N-
95.0252	30	C4H3N2O-
96.0456	71	C5H6NO-
96.0817	30	C6H10N-
97.0409	99	C4H5N2O-
98.0121	13	C3H2N2O2-
98.0248	18	C4H4NO2-
98.0608	18	C5H8NO-
99.02	35	C3H3N2O2-
99.0565	202	C4H7N2O-
100.0406	19	C4H6NO2-
101.0719	8	C4H9N2O-
102.056	14	C4H8NO2-
108.0331	22	C5H4N2O-
108.0456	30	C6H6NO-
109.017	49	C5H3NO2-
109.0408	57	C5H5N2O-
109.0768	11	C6H9N2-
110.0248	524	C5H4NO2-
110.0485	12	
110.061	20	
111.0201	50	C4H3N2O2-
111.0566	31	C5H7N2O-
112.0404	118	C5H6NO2-
112.0767	66	C6H10NO-
113.0357	77	C4H5N2O2-
116.0507	72	C8H6N-
120.0454	7	C7H6NO-
121.0538	10	C7H7NO-
122.0245	20	C6H4NO2-
122.0484	11	C6H6N2O-
122.0611	19	C7H8NO-
122.0974	27	C8H12N-
123.0326	36	C6H5NO2-
123.0431	14	C3H3N6-
123.0471	9	
123.0563	108	C6H7N2O-
124.0403	471	C6H6NO2-
125.0355	28	C5H5N2O2-
125.0592	49	C5H7N3O-
125.072	52	C6H9N2O-
126.0562	25	C6H8NO2-
127.0513	128	C5H7N2O2-
127.0878	21	C6H11N2O-
128.0353	999	C5H6NO3-
129.0666	17	
129.1033	384	C6H13N2O-
130.0662	19	C9H8N-
130.0874	35	C6H12NO2-
131.0866	33	C10H11-
135.0564	19	C7H7N2O-
136.0408	7	C7H6NO2-
136.0767	13	C8H10NO-
136.113	15	C9H14N-
137.0486	10	C7H7NO2-
137.0721	22	C7H9N2O-
138.0433	75	C6H6N2O2-
138.056	29	C7H8NO2-
139.0513	16	C6H7N2O2-
139.0875	217	C7H11N2O-
140.0719	16	C7H10NO2-
141.0669	63	C6H9N2O2-
142.066	138	C10H8N-
147.0562	7	C8H7N2O-
149.0353	29	C7H5N2O2-
149.0719	26	C8H9N2O-
150.0199	7	C7H4NO3-
150.0558	83	C8H8NO2-
150.0668	11	C7H8N3O-
151.0511	10	C7H7N2O2-
151.0873	9	C8H11N2O-
152.0832	16	C7H10N3O-
153.0668	159	C7H9N2O2-
153.103	45	C8H13N2O-
155.0826	116	C7H11N2O2-
155.1186	44	C8H15N2O-
157.0772	21	C10H9N2-
157.1345	16	C8H17N2O-
165.0662	20	C6H7N5O-
165.1028	371	C9H13N2O-
166.0861	12	C7H10N4O-
166.0986	16	C8H12N3O-
167.0468	6	C7H7N2O3-
167.0821	70	C8H11N2O2-
167.1185	18	C9H15N2O-
168.0448	25	C11H6NO-
169.1338	26	C7H15N5-
170.0931	32	C7H12N3O2-
179.1188	11	C10H15N2O-
180.0778	12	
180.1137	245	C9H14N3O-
181.0981	22	C9H13N2O2-
182.1291	667	C7H14N6-
183.1133	63	C9H15N2O2-
185.0716	12	C11H9N2O-
194.129	9	C8H14N6-
195.1135	14	C10H15N2O2-
198.124	49	C7H14N6O-
200.1397	155	C7H16N6O-
208.1095	62	C10H14N3O2-
222.1251	10	C11H16N3O2-
226.1185	15	C8H14N6O2-
265.1659	130	C12H25O6-
281.165	7	C3H27N3O11-
