Mass spectrum: Oseltamivir carboxylate; LC-ESI-ITFT; MS2; CE: 45%; R=15000; [M+H]+
Name: Oseltamivir carboxylate
Name: (3R,4R,5S)-4-acetamido-5-amino-3-pentan-3-yloxycyclohexene-1-carboxylic acid
Formula: C14H24N2O4
Exact mass: 284.1736
SMILES: CCC(CC)O[C@@H]1C=C(C[C@@H]([C@H]1NC(=O)C)N)C(=O)O
InChI: InChI=1S/C14H24N2O4/c1-4-10(5-2)20-12-7-9(14(18)19)6-11(15)13(12)16-8(3)17/h7,10-13H,4-6,15H2,1-3H3,(H,16,17)(H,18,19)/t11-,12+,13+/m0/s1
Instrument: LTQ Orbitrap XL Thermo Scientific
Instrument type: LC-ESI-ITFT
Ms type: MS2
Ion mode: POSITIVE
Ionization: ESI
Fragmentation mode: HCD
Collision energy: 45 % (nominal)
Resolution: 15000
Column name: XBridge C18 3.5um, 2.1x50mm, Waters
Retention time: 5.1 min
Base peak: 285.1822
Precursor m/z: 285.1809
Precursor type: [M+H]+
m/z	relative intensity	assigned
60.0444	22	C2H6NO+
65.0386	11	C5H5+
67.0543	28	C5H7+
68.0495	11	C4H6N+
77.0387	8	C6H5+
83.0492	9	C5H7O+
92.0496	12	C6H6N+
93.0336	29	C6H5O+
93.0573	2	C6H7N+
94.0652	390	C6H8N+
95.0492	13	C6H7O+
108.0446	2	C6H6NO+
109.0761	21	C6H9N2+
110.0601	17	C6H8NO+
111.0441	33	C6H7O2+
111.0917	2	C6H11N2+
112.0392	2	C5H6NO2+
119.0606	13	C7H7N2+
120.0445	294	C7H6NO+
121.0284	7	C7H5O2+
133.0762	7	C8H9N2+
136.0758	30	C8H10NO+
137.0711	220	C7H9N2O+
138.0551	999	C7H8NO2+
139.039	12	C7H7O3+
151.0868	4	C8H11N2O+
155.0816	17	C7H11N2O2+
156.0656	39	C7H10NO3+
161.0711	12	C9H9N2O+
162.0551	80	C9H8NO2+
179.0817	22	C9H11N2O2+
180.0656	149	C9H10NO3+
197.0922	40	C9H13N2O3+
198.0762	177	C9H12NO4+
215.1019	8	C9H15N2O4+
