Mass spectrum: Dithiopyr; LC-ESI-QFT; MS2; CE: 45%; R=17500; [M+H]+
Name: Dithiopyr
Name: 3-S,5-S-dimethyl 2-(difluoromethyl)-4-(2-methylpropyl)-6-(trifluoromethyl)pyridine-3,5-dicarbothioate
Formula: C15H16F5NO2S2
Exact mass: 401.0543
SMILES: CC(C)CC1=C(C(=NC(=C1C(=O)SC)C(F)(F)F)C(F)F)C(=O)SC
InChI: InChI=1S/C15H16F5NO2S2/c1-6(2)5-7-8(13(22)24-3)10(12(16)17)21-11(15(18,19)20)9(7)14(23)25-4/h6,12H,5H2,1-4H3
Instrument: Exploris 240 Orbitrap Thermo Scientific
Instrument type: LC-ESI-QFT
Ms type: MS2
Ion mode: POSITIVE
Ionization: ESI
Fragmentation mode: HCD
Collision energy: 45 % (nominal)
Resolution: 17500
Column name: XBridge C18 3.5um, 2.1x50mm, Waters
Retention time: 12.694 min
Base peak: 334.1679
Precursor m/z: 402.0615
Precursor type: [M+H]+
m/z	relative intensity	assigned
61.0107	56	C2H5S+
74.99	40	C2H3OS+
210.0532	87	C11H14S2+
218.0438	53	C12H9FNS+
223.9967	99	C10H4F2NOS+
237.9797	66	C10H5FNOS2+
244.0041	299	C10H5F3NOS+
248.0339	361	C13H8F2NS+
257.9854	67	C10H6F2NOS2+
258.0549	71	C9H9F5NO2+
265.0169	119	C13H6F3NS+
266.0447	469	C13H10F2NOS+
268.0402	282	C13H9F3NS+
271.999	999	C11H5F3NO2S+
273.0071	107	C11H6F3NO2S+
276.029	115	C14H8F2NOS+
286.0491	431	C13H15FO2S2+
287.0567	37	C13H9F4NO2+
292.0052	552	C11H6F4NO2S+
292.0408	35	C15H9F3NS+
296.0349	708	C14H9F3NOS+
312.0111	455	C11H7F5NO2S+
314.0451	189	C14H11F3NO2S+
320.0017	97	C12H9F3NO2S2+
334.0509	105	C14H12F4NO2S+
336.048	149	C14H11F5NOS+
354.0579	225	C14H13F5NO2S+
