Mass spectrum: TCMTB (Busan); LC-ESI-QFT; MS2; CE: 15%; R=17500; [M+H]+
Name: TCMTB (Busan)
Name: 2-(Thiocyanomethylthio)benzothiazole
Name: 1,3-benzothiazol-2-ylsulfanylmethyl thiocyanate
Formula: C9H6N2S3
Exact mass: 237.9693
SMILES: C1=CC=C2C(=C1)N=C(S2)SCSC#N
InChI: InChI=1S/C9H6N2S3/c10-5-12-6-13-9-11-7-3-1-2-4-8(7)14-9/h1-4H,6H2
Instrument: Exploris 240 Orbitrap Thermo Scientific
Instrument type: LC-ESI-QFT
Ms type: MS2
Ion mode: POSITIVE
Ionization: ESI
Fragmentation mode: HCD
Collision energy: 15 % (nominal)
Resolution: 17500
Column name: XBridge C18 3.5um, 2.1x50mm, Waters
Retention time: 8.597 min
Base peak: 238.9763
Precursor m/z: 238.9766
Precursor type: [M+H]+
m/z	relative intensity	assigned
179.9934	999	C8H6NS2+
211.9657	75	C8H6NS3+
238.9765	249	C9H7N2S3+
