Mass spectrum: 2-(3-Hydroxycyclohexyl)-5-(2-methyl-2-octanyl)phenol; LC-ESI-QFT; MS2; CE: 150; R=35000; [M-H]-
Name: 2-(3-Hydroxycyclohexyl)-5-(2-methyl-2-octanyl)phenol
Name: CP47.497
Name: 2-(3-hydroxycyclohexyl)-5-(2-methyloctan-2-yl)phenol
Formula: C21H34O2
Exact mass: 318.25588
SMILES: CCCCCCC(C)(C)C1=CC(=C(C=C1)C2CCCC(C2)O)O
InChI: InChI=1S/C21H34O2/c1-4-5-6-7-13-21(2,3)17-11-12-19(20(23)15-17)16-9-8-10-18(22)14-16/h11-12,15-16,18,22-23H,4-10,13-14H2,1-3H3
Instrument: Q Exactive Plus Orbitrap Thermo Scientific
Instrument type: LC-ESI-QFT
Ms type: MS2
Ion mode: NEGATIVE
Ionization: ESI
Fragmentation mode: HCD
Collision energy: 150 (nominal)
Resolution: 35000
Column name: XBridge C18 3.5um, 2.1x50mm, Waters
Retention time: 17.0 min
Base peak: 363.2538
Precursor m/z: 317.2486
Precursor type: [M-H]-
m/z	relative intensity	assigned
57.0345	26	C3H5O-
65.0397	40	C5H5-
67.019	9	C4H3O-
69.0347	4	C4H5O-
79.019	1	C5H3O-
83.0502	1	C5H7O-
89.0395	1	C7H5-
91.0553	18	C7H7-
93.0346	5	C6H5O-
106.0424	3	C7H6O-
107.0503	1	C7H7O-
115.0554	11	C9H7-
117.0346	79	C8H5O-
118.0425	4	C8H6O-
119.0502	18	C8H7O-
121.0294	11	C7H5O2-
129.071	1	C10H9-
130.0424	7	C9H6O-
131.0504	7	C9H7O-
131.0866	26	C10H11-
132.0216	5	C8H4O2-
132.058	6	C9H8O-
133.0659	148	C9H9O-
134.0372	4	C8H6O2-
141.0346	39	C10H5O-
143.0502	601	C10H7O-
144.058	1	C10H8O-
145.0659	30	C10H9O-
146.0737	62	C10H10O-
147.0815	2	C10H11O-
149.0246	1	C8H5O3-
155.0502	1	C11H7O-
155.0867	4	C12H11-
156.058	12	C11H8O-
157.0659	111	C11H9O-
158.0737	7	C11H10O-
159.0816	999	C11H11O-
167.0501	14	C12H7O-
169.0659	25	C12H9O-
170.0737	29	C12H10O-
171.0815	7	C12H11O-
173.061	1	C11H9O2-
173.097	3	C12H13O-
178.0636	11	C10H10O3-
183.0815	91	C13H11O-
184.0892	2	C13H12O-
185.0971	67	C13H13O-
193.0659	13	C14H9O-
209.0971	15	C15H13O-
