Mass spectrum: Atropine; LC-ESI-QFT; MS2; CE: 90; R=35000; [M+H]+
Name: Atropine
Name: (1R,5S)-8-Methyl-8-azabicyclo[3.2.1]oct-3-yl tropate
Formula: C17H23NO3
Exact mass: 289.16779
SMILES: CN1[C@@H]2CC[C@H]1C[C@H](C2)OC(=O)C(CO)C3=CC=CC=C3
InChI: InChI=1S/C17H23NO3/c1-18-13-7-8-14(18)10-15(9-13)21-17(20)16(11-19)12-5-3-2-4-6-12/h2-6,13-16,19H,7-11H2,1H3/t13-,14+,15+,16?
Instrument: Q Exactive Orbitrap Thermo Scientific
Instrument type: LC-ESI-QFT
Ms type: MS2
Ion mode: POSITIVE
Ionization: ESI
Fragmentation mode: HCD
Collision energy: 90 (nominal)
Resolution: 35000
Column name: XBridge C18 3.5um, 2.1x50mm, Waters
Retention time: 4.3 min
Base peak: 290.1752
Precursor m/z: 290.1751
Precursor type: [M+H]+
m/z	relative intensity	assigned
50.0153	4	C4H2+
51.0229	2	C4H3+
53.0023	1	C3HO+
53.0387	13	C4H5+
56.0495	8	C3H6N+
57.0573	18	C3H7N+
58.0652	22	C3H8N+
65.0386	93	C5H5+
67.0542	613	C5H7+
68.0495	168	C4H6N+
69.0699	3	C5H9+
70.0651	104	C4H8N+
77.0386	163	C6H5+
78.0464	10	C6H6+
79.0542	73	C6H7+
80.0495	14	C5H6N+
81.0335	8	C5H5O+
81.0574	12	C5H7N+
81.0699	7	C6H9+
82.0651	181	C5H8N+
83.073	70	C5H9N+
86.06	4	C4H8NO+
91.0542	975	C7H7+
93.0699	999	C7H9+
94.0651	54	C6H8N+
95.0491	474	C6H7O+
95.0729	37	C6H9N+
95.0855	78	C7H11+
96.0808	92	C6H10N+
97.0887	7	C6H11N+
98.0965	74	C6H12N+
102.0462	2	C8H6+
103.0543	473	C8H7+
105.0447	204	C6H5N2+
107.073	2	C7H9N+
108.0808	36	C7H10N+
109.0886	31	C7H11N+
110.0963	3	C7H12N+
121.0648	38	C8H9O+
122.0964	11	C8H12N+
124.1121	333	C8H14N+
140.107	22	C8H14NO+
142.1228	118	C8H16NO+
