Mass spectrum: Aspartame; LC-ESI-ITFT; MS2; CE: 90%; R=30000; [M+H]+
Name: Aspartame
Name: 3-amino-4-[(1-benzyl-2-keto-2-methoxy-ethyl)amino]-4-keto-butyric acid
Formula: C14H18N2O5
Exact mass: 294.1216
SMILES: COC(=O)C(CC1=CC=CC=C1)NC(=O)C(CC(=O)O)N
InChI: InChI=1S/C14H18N2O5/c1-21-14(20)11(7-9-5-3-2-4-6-9)16-13(19)10(15)8-12(17)18/h2-6,10-11H,7-8,15H2,1H3,(H,16,19)(H,17,18)/t10-,11-/m0/s1
Instrument: LTQ Orbitrap XL Thermo Scientific
Instrument type: LC-ESI-ITFT
Ms type: MS2
Ion mode: POSITIVE
Ionization: ESI
Fragmentation mode: HCD
Collision energy: 90 % (nominal)
Resolution: 30000
Column name: XBridge C18 3.5um, 2.1x50mm, Waters
Retention time: 4.8 min
Base peak: 295.1297
Precursor m/z: 295.1288
Precursor type: [M+H]+
m/z	relative intensity	assigned
70.0288	25	C3H4NO+
77.0386	10	C6H5+
88.0393	64	C3H6NO2+
91.0543	207	C7H7+
93.0699	49	C7H9+
98.0236	3	C4H4NO2+
99.0077	3	C4H3O3+
103.0543	344	C8H7+
104.0497	2	C7H6N+
105.0448	6	C6H5N2+
117.0698	4	C9H9+
118.0652	4	C8H8N+
119.073	6	C8H9N+
120.0808	999	C8H10N+
121.0648	79	C8H9O+
128.062	4	C10H8+
129.0699	8	C10H9+
130.0651	59	C9H8N+
135.0804	6	C9H11O+
144.0807	22	C10H10N+
145.0647	1	C10H9O+
146.0598	3	C9H8NO+
154.0651	22	C11H8N+
155.0604	10	C10H7N2+
172.0757	6	C11H10NO+
182.06	9	C12H8NO+
