Mass spectrum: Venlafaxine N-Oxide; LC-ESI-QFT; MS2; CE: 180; R=35000; [M+H]+
Name: Venlafaxine N-Oxide
Name: 2-(1-hydroxycyclohexyl)-2-(4-methoxyphenyl)-N,N-dimethylethanamine oxide
Formula: C17H27NO3
Exact mass: 293.19909
SMILES: OC1(C(C2=CC=C(OC)C=C2)C[N+](C)(C)[O-])CCCCC1
InChI: InChI=1S/C17H27NO3/c1-18(2,20)13-16(17(19)11-5-4-6-12-17)14-7-9-15(21-3)10-8-14/h7-10,16,19H,4-6,11-13H2,1-3H3
Instrument: Q Exactive Plus Orbitrap Thermo Scientific
Instrument type: LC-ESI-QFT
Ms type: MS2
Ion mode: POSITIVE
Ionization: ESI
Fragmentation mode: HCD
Collision energy: 180 (nominal)
Resolution: 35000
Column name: XBridge C18 3.5um, 2.1x50mm, Waters
Retention time: 6.6 min
Base peak: 294.206
Precursor m/z: 294.2064
Precursor type: [M+H]+
m/z	relative intensity	assigned
50.0151	156	C4H2+
51.0229	114	C4H3+
52.0308	67	C4H4+
53.0022	17	C3HO+
53.0386	70	C4H5+
53.9974	5	C2NO+
55.0178	8	C3H3O+
55.0542	12	C4H7+
57.0334	3	C3H5O+
58.0651	9	C3H8N+
60.0444	1	C2H6NO+
61.0072	1	C5H+
62.0151	10	C5H2+
63.0229	60	C5H3+
65.0022	9	
65.0386	155	C5H5+
66.01	1	C4H2O+
66.0464	10	C5H6+
67.0542	3	C5H7+
67.9892	3	C3O2+
75.0229	2	C6H3+
76.0307	25	C6H4+
77.0385	98	C6H5+
78.0463	999	C6H6+
79.0178	2	C5H3O+
79.0542	36	C6H7+
81.0334	7	C5H5O+
81.0698	8	C6H9+
89.0385	16	C7H5+
90.0465	2	C7H6+
91.0542	116	C7H7+
94.0413	3	C6H6O+
95.0491	164	C6H7O+
102.0463	3	C8H6+
103.0542	9	C8H7+
105.0447	93	C6H5N2+
106.0413	7	C7H6O+
107.0491	17	C7H7O+
115.0542	22	C9H7+
118.0649	2	C8H8N+
121.0647	12	C8H9O+
128.062	5	C10H8+
155.0602	1	C10H7N2+
