Mass spectrum: Cycloxaprid; LC-ESI-QFT; MS2; CE: 180%; R=17500; [M+H]+
Name: Cycloxaprid
Name: 1-((6-chloropyridin-3-yl)methyl)-9-nitro-2,3,5,6,7,8-hexahydro-1H-5,8-epoxyimidazo[1,2-a]azepine
Name: 5-[(6-chloropyridin-3-yl)methyl]-7-nitro-11-oxa-2,5-diazatricyclo[6.2.1.02,6]undec-6-ene
Formula: C14H15ClN4O3
Exact mass: 322.0833
SMILES: C1CC2N3CCN(C3=C(C1O2)[N+](=O)[O-])CC4=CN=C(C=C4)Cl
InChI: InChI=1S/C14H15ClN4O3/c15-11-3-1-9(7-16-11)8-17-5-6-18-12-4-2-10(22-12)13(14(17)18)19(20)21/h1,3,7,10,12H,2,4-6,8H2
Instrument: Exploris 240 Orbitrap Thermo Scientific
Instrument type: LC-ESI-QFT
Ms type: MS2
Ion mode: POSITIVE
Ionization: ESI
Fragmentation mode: HCD
Collision energy: 180 % (nominal)
Resolution: 17500
Column name: XBridge C18 3.5um, 2.1x50mm, Waters
Retention time: 2.935 min
Base peak: 323.0906
Precursor m/z: 323.0905
Precursor type: [M+H]+
m/z	relative intensity	assigned
51.0229	71	C4H3+
52.0181	31	C3H2N+
53.0385	71	C4H5+
54.034	74	C3H4N+
56.0495	20	C3H6N+
63.0229	354	C5H3+
64.0181	89	C4H2N+
64.0309	40	C5H4+
65.0386	76	C5H5+
66.0339	15	C4H4N+
66.0465	19	C5H6+
67.0417	35	C4H5N+
67.0543	30	C5H7+
68.0496	52	C4H6N+
72.984	999	C3H2Cl+
76.0184	28	C5H2N+
77.0387	30	C6H5+
78.0338	103	C5H4N+
80.0495	128	C5H6N+
81.0448	22	C4H5N2+
82.0651	17	C5H8N+
89.0386	43	C7H5+
90.0339	217	C6H4N+
91.0418	93	C6H5N+
93.0445	24	C5H5N2+
94.0654	37	C6H8N+
96.0445	72	C5H6NO+
98.9996	348	C5H4Cl+
102.0341	24	C7H4N+
104.0496	20	C7H6N+
105.0448	15	C6H5N2+
107.0607	34	C6H7N2+
108.0683	18	C6H8N2+
116.0493	22	C8H6N+
121.0761	144	C7H9N2+
126.0106	49	C6H5ClN+
129.0444	16	C8H5N2+
