Mass spectrum: Ofloxacin; LC-ESI-QFT; MS2; CE: 75; R=35000; [M+H]+
Name: Ofloxacin
Name: DL-8280
Formula: C18H20FN3O4
Exact mass: 361.14378
SMILES: Fc4cc1c2N(/C=C(\C1=O)C(=O)O)C(COc2c4N3CCN(C)CC3)C
InChI: InChI=1S/C18H20FN3O4/c1-10-9-26-17-14-11(16(23)12(18(24)25)8-22(10)14)7-13(19)15(17)21-5-3-20(2)4-6-21/h7-8,10H,3-6,9H2,1-2H3,(H,24,25)
Instrument: Q Exactive Orbitrap Thermo Scientific
Instrument type: LC-ESI-QFT
Ms type: MS2
Ion mode: POSITIVE
Ionization: ESI
Fragmentation mode: HCD
Collision energy: 75 (nominal)
Resolution: 35000
Column name: XBridge C18 3.5um, 2.1x50mm, Waters
Retention time: 4.1 min
Base peak: 362.151
Precursor m/z: 362.1511
Precursor type: [M+H]+
m/z	relative intensity	assigned
56.0496	20	C3H6N+
58.0652	406	C3H8N+
67.0543	10	C5H7+
68.0494	2	C4H6N+
69.0699	11	C5H9+
70.0651	266	C4H8N+
71.0729	10	
72.0807	155	C4H10N+
82.0651	42	C5H8N+
83.0604	5	C4H7N2+
84.0807	27	C5H10N+
85.0886	4	C5H11N+
97.0759	3	C5H9N2+
98.084	2	C5H10N2+
104.0493	5	C7H6N+
120.0442	3	C7H6NO+
122.0399	101	C7H5FN+
124.0555	3	C7H7FN+
129.0447	3	C8H5N2+
130.0289	3	C8H4NO+
130.0649	2	C9H8N+
132.0441	4	C8H6NO+
134.0403	2	C8H5FN+
135.0478	5	C8H6FN+
137.0511	2	C7H6FN2+
138.0349	11	C7H5FNO+
143.0603	6	C9H7N2+
144.0447	5	C9H6NO+
144.0807	13	C10H10N+
145.0396	5	C8H5N2O+
145.0761	3	C9H9N2+
146.06	11	C9H8NO+
147.0553	3	C8H7N2O+
148.0393	12	C8H6NO2+
148.0557	18	C9H7FN+
149.051	17	C8H6FN2+
150.035	133	C8H5FNO+
151.0427	30	C8H6FNO+
152.0506	14	C8H7FNO+
155.0603	4	C10H7N2+
156.068	5	C10H8N2+
157.0399	25	C9H5N2O+
157.0761	10	C10H9N2+
158.0236	56	C9H4NO2+
158.0599	5	C10H8NO+
159.0554	4	C9H7N2O+
160.0393	16	C9H6NO2+
160.0558	35	C10H7FN+
161.051	5	C9H6FN2+
162.0348	4	C9H5FNO+
162.059	4	C9H7FN2+
162.0712	10	C10H9FN+
163.0302	4	C8H4FN2O+
163.0427	14	C9H6FNO+
163.0665	16	C9H8FN2+
164.0506	26	C9H7FNO+
165.0219	5	C8H4FNO2+
165.0459	49	C8H6FN2O+
166.0299	6	C8H5FNO2+
170.06	12	C11H8NO+
171.0552	103	C10H7N2O+
172.0561	3	C11H7FN+
172.0632	5	C10H8N2O+
172.0758	4	C11H10NO+
173.0709	17	C10H9N2O+
174.0712	3	C11H9FN+
175.0301	4	C9H4FN2O+
175.0498	10	C9H7N2O2+
175.0668	6	C10H8FN2+
176.0508	20	C10H7FNO+
176.0748	7	C10H9FN2+
177.0458	12	C9H6FN2O+
177.0582	6	C10H8FNO+
177.0823	2	C10H10FN2+
178.0298	193	C9H5FNO2+
178.0659	10	
179.0376	284	C9H6FNO2+
179.0611	29	C9H8FN2O+
180.0455	98	C9H7FNO2+
184.0631	20	C11H8N2O+
185.0347	4	C10H5N2O2+
185.0711	19	C11H9N2O+
188.0506	99	C11H7FNO+
189.0458	14	C10H6FN2O+
190.0297	6	C10H5FNO2+
190.0534	12	C10H7FN2O+
190.0663	16	C11H9FNO+
191.0378	35	C10H6FNO2+
191.0617	38	C10H8FN2O+
192.0454	132	C10H7FNO2+
193.0168	14	
193.0408	255	C9H6FN2O2+
194.0248	133	C9H5FNO3+
194.0485	127	C9H7FN2O2+
194.0612	82	C10H9FNO2+
195.0562	47	C9H8FN2O2+
196.0406	7	C9H7FNO3+
196.0761	3	C13H10NO+
197.071	11	C12H9N2O+
198.0788	5	C12H10N2O+
199.0501	143	C11H7N2O2+
200.0502	4	C12H7FNO+
200.058	45	C11H8N2O2+
200.0711	3	C12H10NO2+
201.0579	11	C15H7N+
201.0659	46	C11H9N2O2+
202.0536	11	C11H7FN2O+
202.0661	42	C12H9FNO+
203.0248	6	C10H4FN2O2+
203.0376	40	C11H6FNO2+
203.0614	99	C11H8FN2O+
204.0334	12	C10H5FN2O2+
204.0455	109	C11H7FNO2+
204.0693	15	C11H9FN2O+
204.082	12	C12H11FNO+
205.0408	565	C10H6FN2O2+
205.0771	244	C11H10FN2O+
206.0487	42	C10H7FN2O2+
206.0604	19	C11H9FNO2+
207.0563	50	C10H8FN2O2+
211.0509	3	C12H7N2O2+
211.0866	10	C13H11N2O+
213.0659	14	C12H9N2O2+
215.0619	26	C12H8FN2O+
216.0456	11	C12H7FNO2+
216.0693	11	C12H9FN2O+
217.0411	44	C11H6FN2O2+
217.0775	6	C12H10FN2O+
218.0487	62	C11H7FN2O2+
218.0611	47	C12H9FNO2+
218.0849	5	C12H11FN2O+
219.0565	649	C11H8FN2O2+
219.0682	44	C15H9NO+
220.0642	71	C11H9FN2O2+
220.0766	19	C12H11FNO2+
221.072	909	C11H10FN2O2+
225.0659	4	C13H9N2O2+
226.0738	11	C13H10N2O2+
226.0971	6	C13H12N3O+
229.0774	12	C13H10FN2O+
231.0565	72	C12H8FN2O2+
231.0931	14	C13H12FN2O+
232.0644	25	C12H9FN2O2+
232.0767	16	C13H11FNO2+
233.0721	72	C12H10FN2O2+
233.0845	26	C16H11NO+
233.1085	4	C13H14FN2O+
234.0798	35	C12H11FN2O2+
234.0927	13	C13H13FNO2+
235.0876	18	C12H12FN2O2+
238.0605	2	C13H8N3O2+
238.0967	4	C14H12N3O+
239.1045	3	C14H13N3O+
240.0764	15	C13H10N3O2+
240.1129	7	C14H14N3O+
241.0969	35	C14H13N2O2+
243.0931	13	C14H12FN2O+
244.0769	18	C14H11FNO2+
245.0721	84	C13H10FN2O2+
246.0799	17	C13H11FN2O2+
247.0877	127	C13H12FN2O2+
249.0306	10	C11H6FN2O4+
253.0849	5	C14H11N3O2+
253.0973	3	C15H13N2O2+
253.1208	48	C15H15N3O+
254.0925	12	C14H12N3O2+
255.1004	22	C14H13N3O2+
258.0673	5	C13H9FN3O2+
261.1033	999	C14H14FN2O2+
268.1079	14	C15H14N3O2+
268.1447	13	C16H18N3O+
270.1232	3	C15H16N3O2+
273.0897	5	C17H11N3O+
273.1035	14	C15H14FN2O2+
275.1189	6	C15H16FN2O2+
285.0865	5	C15H13N2O4+
286.0616	16	C14H9FN3O3+
286.0981	13	C15H13FN3O2+
286.1184	25	C15H16N3O3+
287.0693	3	C17H9N3O2+
301.0859	35	C15H12FN3O3+
301.1221	60	C16H16FN3O2+
305.093	4	C15H14FN2O4+
314.1135	4	C16H16N3O4+
316.1097	5	C16H15FN3O3+
318.1614	4	C17H21FN3O2+
362.1511	16	C18H21FN3O4+
