Mass spectrum: Torsemide; LC-ESI-QFT; MS2; CE: 15; R=35000; [M-H]-
Name: Torsemide
Name: SMR000466313
Name: 1-[4-(3-methylanilino)pyridin-3-yl]sulfonyl-3-propan-2-ylurea
Formula: C16H20N4O3S
Exact mass: 348.12561
SMILES: O=S(=O)(c2c(Nc1cc(ccc1)C)ccnc2)NC(=O)NC(C)C
InChI: InChI=1S/C16H20N4O3S/c1-11(2)18-16(21)20-24(22,23)15-10-17-8-7-14(15)19-13-6-4-5-12(3)9-13/h4-11H,1-3H3,(H,17,19)(H2,18,20,21)
Instrument: Q Exactive Orbitrap Thermo Scientific
Instrument type: LC-ESI-QFT
Ms type: MS2
Ion mode: NEGATIVE
Ionization: ESI
Fragmentation mode: HCD
Collision energy: 15 (nominal)
Resolution: 35000
Column name: XBridge C18 3.5um, 2.1x50mm, Waters
Retention time: 6.8 min
Base peak: 347.1184
Precursor m/z: 347.1183
Precursor type: [M-H]-
m/z	relative intensity	assigned
77.9653	1	NO2S-
195.0803	1	C12H9N3-
196.0879	1	C12H10N3-
262.0654	999	C12H12N3O2S-
288.0446	6	C13H10N3O3S-
