Mass spectrum: Dimethachlor; LC-ESI-ITFT; MS2; CE: 75%; R=15000; [M+H]+
Name: Dimethachlor
Name: 2-chloranyl-N-(2,6-dimethylphenyl)-N-(2-methoxyethyl)ethanamide
Formula: C13H18ClNO2
Exact mass: 255.1021
SMILES: Cc1cccc(C)c1N(CCOC)C(=O)CCl
InChI: InChI=1S/C13H18ClNO2/c1-10-5-4-6-11(2)13(10)15(7-8-17-3)12(16)9-14/h4-6H,7-9H2,1-3H3
Instrument: LTQ Orbitrap XL Thermo Scientific
Instrument type: LC-ESI-ITFT
Ms type: MS2
Ion mode: POSITIVE
Ionization: ESI
Fragmentation mode: HCD
Collision energy: 75 % (nominal)
Resolution: 15000
Column name: XBridge C18 3.5um, 2.1x50mm, Waters
Retention time: 9.1 min
Base peak: 256.1106
Precursor m/z: 256.1099
Precursor type: [M+H]+
m/z	relative intensity	assigned
75.995	1	C2H3ClN+
76.9789	31	C2H2ClO+
77.0386	11	C6H5+
79.0543	38	C6H7+
91.0543	20	C7H7+
93.07	4	C7H9+
103.0542	25	C8H7+
105.07	235	C8H9+
106.0652	1	C7H8N+
106.0778	8	C8H10+
107.0856	10	C8H11+
116.062	3	C9H8+
117.0571	4	C8H7N+
117.0698	2	C9H9+
118.0651	47	C8H8N+
119.0731	2	C8H9N+
119.0856	19	C9H11+
120.0808	21	C8H10N+
121.0648	21	C8H9O+
121.0884	1	C8H11N+
121.1013	5	C9H13+
122.0965	5	C8H12N+
123.0804	3	C8H11O+
129.0698	4	C10H9+
130.0649	3	C9H8N+
131.073	29	C9H9N+
131.0856	24	C10H11+
132.0808	201	C9H10N+
133.0886	84	C9H11N+
134.0965	6	C9H12N+
144.0808	11	C10H10N+
145.0885	4	C10H11N+
146.0965	38	C10H12N+
147.0677	4	C9H9NO+
147.1043	14	C10H13N+
148.1122	999	C10H14N+
158.0968	2	C11H12N+
160.0758	3	C10H10NO+
160.1119	1	C11H14N+
174.0914	29	C11H12NO+
198.0682	5	C10H13ClNO+
224.0838	147	C12H15ClNO+
