Mass spectrum: Dimethachlor OXA; LC-ESI-ITFT; MS2; CE: 60%; R=7500; [M+H]+
Name: Dimethachlor OXA
Name: 2-[(2,6-dimethylphenyl)(2-methoxyethyl)amino]-2-oxo-acetic acid
Formula: C13H17NO4
Exact mass: 251.1158
SMILES: Cc1cccc(C)c1N(CCOC)C(=O)C(O)=O
InChI: InChI=1S/C13H17NO4/c1-9-5-4-6-10(2)11(9)14(7-8-18-3)12(15)13(16)17/h4-6H,7-8H2,1-3H3,(H,16,17)
Instrument: LTQ Orbitrap XL Thermo Scientific
Instrument type: LC-ESI-ITFT
Ms type: MS2
Ion mode: POSITIVE
Ionization: ESI
Fragmentation mode: HCD
Collision energy: 60 % (nominal)
Resolution: 7500
Column name: XBridge C18 3.5um, 2.1x50mm, Waters
Retention time: 6.6 min
Base peak: 252.1226
Precursor m/z: 252.123
Precursor type: [M+H]+
m/z	relative intensity	assigned
77.0387	3	C6H5+
79.0543	32	C6H7+
91.0542	75	C7H7+
93.07	7	C7H9+
103.0543	36	C8H7+
105.07	452	C8H9+
106.0778	74	C8H10+
107.0856	199	C8H11+
116.0617	8	C9H8+
117.0574	126	C8H7N+
118.0652	175	C8H8N+
119.049	3	C8H7O+
119.0602	9	C7H7N2+
119.0856	31	C9H11+
120.0808	83	C8H10N+
121.0649	10	C8H9O+
121.0886	8	C8H11N+
121.1012	10	C9H13+
129.0699	13	C10H9+
130.0651	39	C9H8N+
131.073	261	C9H9N+
131.0858	32	C10H11+
132.0808	999	C9H10N+
133.0528	15	C8H7NO+
133.0762	20	C8H9N2+
133.0886	243	C9H11N+
134.0965	7	C9H12N+
143.0725	8	C10H9N+
146.0965	252	C10H12N+
147.1048	11	C10H13N+
148.0758	79	C9H10NO+
148.1121	871	C10H14N+
149.0599	13	C9H9O2+
158.0964	16	C11H12N+
174.0913	18	C11H12NO+
176.107	98	C11H14NO+
178.1229	16	C11H16NO+
192.102	21	C11H14NO2+
220.0969	619	C12H14NO3+
