Mass spectrum: Spirotetramat BYI08330-monohydroxy; LC-ESI-QFT; MS2; CE: 45%; R=17500; [M+H]+
Name: Spirotetramat BYI08330-monohydroxy
Name: 1-Azaspiro(4.5)decan-2-one, 3-(2,5-dimethylphenyl)-4-hydroxy-8-methoxy-
Name: 3-(2,5-dimethylphenyl)-4-hydroxy-8-methoxy-1-azaspiro[4.5]decan-2-one
Formula: C18H25NO3
Exact mass: 303.1834
SMILES: CC1=CC(=C(C=C1)C)C2C(C3(CCC(CC3)OC)NC2=O)O
InChI: InChI=1S/C18H25NO3/c1-11-4-5-12(2)14(10-11)15-16(20)18(19-17(15)21)8-6-13(22-3)7-9-18/h4-5,10,13,15-16,20H,6-9H2,1-3H3,(H,19,21)
Instrument: Exploris 240 Orbitrap Thermo Scientific
Instrument type: LC-ESI-QFT
Ms type: MS2
Ion mode: POSITIVE
Ionization: ESI
Fragmentation mode: HCD
Collision energy: 45 % (nominal)
Resolution: 17500
Column name: XBridge C18 3.5um, 2.1x50mm, Waters
Retention time: 5.434 min
Base peak: 304.1905
Precursor m/z: 304.1907
Precursor type: [M+H]+
m/z	relative intensity	assigned
67.0541	172	C5H7+
79.0541	69	C6H7+
81.0698	420	C6H9+
91.0543	25	C7H7+
93.0698	78	C7H9+
98.0963	85	C6H12N+
105.0697	103	C8H9+
108.081	33	C7H10N+
109.0648	76	C7H9O+
119.0855	306	C9H11+
120.0812	29	C8H10N+
126.0913	27	C7H12NO+
131.0855	612	C10H11+
133.1013	26	C10H13+
134.0964	147	C9H12N+
143.0852	119	C11H11+
145.1011	150	C11H13+
147.0807	59	C10H11O+
148.0756	330	C9H10NO+
155.0857	70	C12H11+
157.1013	163	C12H13+
162.0916	45	C10H12NO+
169.101	452	C13H13+
183.1165	92	C14H15+
196.1242	66	C15H16+
198.1281	26	C14H16N+
200.1065	140	C13H14NO+
209.1325	267	C16H17+
211.1482	872	C16H19+
226.1591	424	C16H20N+
237.1274	51	C17H17O+
244.1696	31	C16H22NO+
254.1539	999	C17H20NO+
272.1644	239	C17H22NO2+
286.1795	39	C18H24NO2+
304.1906	177	C18H26NO3+
