Mass spectrum: Genistein; LC-ESI-QFT; MS2; CE: 75; R=35000; [M-H]-
Name: Genistein
Name: 5,7-dihydroxy-3-(4-hydroxyphenyl)chromen-4-one
Formula: C15H10O5
Exact mass: 270.05282
SMILES: C1=CC(=CC=C1C2=COC3=CC(=CC(=C3C2=O)O)O)O
InChI: InChI=1S/C15H10O5/c16-9-3-1-8(2-4-9)11-7-20-13-6-10(17)5-12(18)14(13)15(11)19/h1-7,16-18H
Instrument: Q Exactive Plus Orbitrap Thermo Scientific
Instrument type: LC-ESI-QFT
Ms type: MS2
Ion mode: NEGATIVE
Ionization: ESI
Fragmentation mode: HCD
Collision energy: 75 (nominal)
Resolution: 35000
Column name: XBridge C18 3.5um, 2.1x50mm, Waters
Retention time: 7.7 min
Base peak: 269.0453
Precursor m/z: 269.0455
Precursor type: [M-H]-
m/z	relative intensity	assigned
61.0084	3	C5H-
62.0162	1	C5H2-
63.0241	662	C5H3-
63.9954	8	C4O-
65.0033	436	C4HO-
67.019	12	C4H3O-
68.9983	16	C3HO2-
75.0241	9	C6H3-
77.0397	10	C6H5-
79.0189	3	C5H3O-
83.0139	49	C4H3O2-
89.0033	53	C6HO-
89.0397	44	C7H5-
91.019	261	C6H3O-
92.9982	1	C5HO2-
93.0345	11	C6H5O-
95.0139	4	C5H3O2-
95.0503	22	C6H7O-
103.0554	1	C8H7-
104.0268	5	C7H4O-
105.0346	12	C7H5O-
106.0061	1	C6H2O2-
107.0139	292	C6H3O2-
108.0216	2	C6H4O2-
109.0296	7	C6H5O2-
115.0557	1	C9H7-
117.0346	73	C8H5O-
119.0503	13	C8H7O-
120.0217	1	C7H4O2-
121.0297	3	C7H5O2-
123.0452	127	C7H7O2-
127.0553	3	C10H7-
129.0346	19	C9H5O-
130.0424	36	C9H6O-
131.0502	59	C9H7O-
132.0217	274	C8H4O2-
133.0296	999	C8H5O2-
134.0374	87	C8H6O2-
135.0088	46	C7H3O3-
135.0452	334	C8H7O2-
141.0346	27	C10H5O-
141.071	8	C11H9-
142.0423	1	C10H6O-
143.0502	42	C10H7O-
145.0294	10	C9H5O2-
145.0661	7	C10H9O-
147.0447	1	C9H7O2-
148.0166	5	C8H4O3-
149.0243	1	C8H5O3-
151.0037	40	C7H3O4-
152.0632	8	C12H8-
153.0192	1	C7H5O4-
153.0709	3	C12H9-
154.0425	35	C11H6O-
155.0503	101	C11H7O-
156.0218	8	C10H4O2-
156.0581	34	C11H8O-
157.0295	136	C10H5O2-
157.0658	20	C11H9O-
158.0374	30	C10H6O2-
159.0452	322	C10H7O2-
161.0243	8	C9H5O3-
167.0502	37	C12H7O-
168.0581	19	C12H8O-
169.0659	66	C12H9O-
170.0373	3	C11H6O2-
171.0453	57	C11H7O2-
172.0529	7	C11H8O2-
173.0608	37	C11H9O2-
176.0117	9	C9H4O4-
179.05	7	C13H7O-
180.0582	176	C13H8O-
181.0294	4	C12H5O2-
181.066	68	C13H9O-
182.0372	74	C12H6O2-
183.0451	131	C12H7O2-
184.0532	7	C12H8O2-
185.0607	15	C12H9O2-
195.0451	58	C13H7O2-
196.053	67	C13H8O2-
197.0246	1	C12H5O3-
197.0609	27	C13H9O2-
198.0323	16	C12H6O3-
199.0401	37	C12H7O3-
200.0479	5	C12H8O3-
201.0558	52	C12H9O3-
207.0452	1	C14H7O2-
208.0531	5	C14H8O2-
210.0324	2	C13H6O3-
211.0402	20	C13H7O3-
212.0479	8	C13H8O3-
213.0559	31	C13H9O3-
223.0401	64	C14H7O3-
224.0479	85	C14H8O3-
225.0558	19	C14H9O3-
226.0275	2	C13H6O4-
227.0354	12	C13H7O4-
239.035	33	C14H7O4-
240.0429	24	C14H8O4-
241.0507	19	C14H9O4-
242.0213	1	C13H6O5-
267.0301	6	C15H7O5-
268.0375	7	C15H8O5-
269.0455	132	C15H9O5-
