Mass spectrum: Hydrocortisone; LC-ESI-QFT; MS2; CE: 150; R=35000; [M+H]+
Name: (8S,9S,10R,11S,13S,14S,17R)-11,17-dihydroxy-17-(2-hydroxyacetyl)-10,13-dimethyl-2,6,7,8,9,11,12,14,15,16-decahydro-1H-cyclopenta[a]phenanthren-3-one
Name: Cortisol
Name: Hydrocortisone
Formula: C21H30O5
Exact mass: 362.20932
SMILES: C[C@]12CCC(=O)C=C1CC[C@@H]3[C@@H]2[C@H](C[C@]4([C@H]3CC[C@@]4(C(=O)CO)O)C)O
InChI: InChI=1S/C21H30O5/c1-19-7-5-13(23)9-12(19)3-4-14-15-6-8-21(26,17(25)11-22)20(15,2)10-16(24)18(14)19/h9,14-16,18,22,24,26H,3-8,10-11H2,1-2H3/t14-,15-,16-,18+,19-,20-,21-/m0/s1
Instrument: Q Exactive Plus Orbitrap Thermo Scientific
Instrument type: LC-ESI-QFT
Ms type: MS2
Ion mode: POSITIVE
Ionization: ESI
Fragmentation mode: HCD
Collision energy: 150 (nominal)
Resolution: 35000
Column name: XBridge C18 3.5um, 2.1x50mm, Waters
Retention time: 7.7 min
Base peak: 363.2164
Precursor m/z: 363.2166
Precursor type: [M+H]+
m/z	relative intensity	assigned
50.0151	79	C4H2+
51.0229	79	C4H3+
52.0307	1	C4H4+
53.0022	35	C3HO+
53.0386	207	C4H5+
53.9975	7	C2NO+
55.0179	77	C3H3O+
55.0543	91	C4H7+
57.0335	13	C3H5O+
61.0075	1	C5H+
62.015	5	C5H2+
63.0229	34	C5H3+
65.0386	440	C5H5+
66.0464	26	C5H6+
67.0542	113	C5H7+
67.9892	4	C3O2+
69.0335	8	C4H5O+
69.0699	11	C5H9+
74.015	2	C6H2+
75.0229	8	C6H3+
77.0385	235	C6H5+
78.0464	111	C6H6+
79.0542	363	C6H7+
80.0622	9	C6H8+
81.0335	33	C5H5O+
81.0699	37	C6H9+
82.0414	9	C5H6O+
83.0491	28	C5H7O+
89.0386	47	C7H5+
90.0465	2	C7H6+
91.0543	999	C7H7+
92.0621	6	C7H8+
93.0699	28	C7H9+
94.0414	25	C6H6O+
95.0492	575	C6H7O+
97.0648	18	C6H9O+
101.0386	2	C8H5+
102.0465	74	C8H6+
103.0542	158	C8H7+
104.0621	25	C8H8+
105.0448	287	C6H5N2+
105.0699	134	C8H9+
106.0778	1	C8H10+
107.0491	41	C7H7O+
108.057	5	C7H8O+
109.0648	11	C7H9O+
114.0464	2	C9H6+
115.0543	797	C9H7+
116.0621	76	C9H8+
117.0699	83	C9H9+
118.078	1	C9H10+
119.0492	7	C8H7O+
119.0605	1	C7H7N2+
119.0856	10	C9H11+
120.0569	1	C8H8O+
121.0649	15	C8H9O+
126.0465	25	C10H6+
127.0542	57	C10H7+
128.0621	647	C10H8+
129.0699	155	C10H9+
130.0777	10	C10H10+
131.0492	29	C9H7O+
131.0856	13	C10H11+
132.057	6	C9H8O+
133.0649	12	C9H9O+
139.0543	24	C11H7+
140.0621	2	C11H8+
141.0699	253	C11H9+
142.0778	23	C11H10+
143.0855	13	C11H11+
144.0569	11	C10H8O+
145.0649	58	C10H9O+
147.0805	20	C10H11O+
150.0464	4	C12H6+
151.0544	6	C12H7+
152.0621	233	C12H8+
153.0699	146	C12H9+
154.0778	26	C12H10+
155.0604	92	C10H7N2+
155.0855	22	C12H11+
157.0648	7	C11H9O+
159.0808	1	C11H11O+
163.0543	7	C13H7+
164.062	13	C13H8+
165.07	252	C13H9+
166.0777	24	C13H10+
167.0856	23	C13H11+
168.0569	6	C12H8O+
169.0649	24	C12H9O+
169.1013	2	C13H13+
176.0622	15	C14H8+
177.0698	19	C14H9+
178.0778	93	C14H10+
179.0605	7	C12H7N2+
179.0856	25	C14H11+
180.0934	1	C14H12+
181.0648	9	C13H9O+
181.1013	2	C14H13+
182.0728	1	C13H10O+
189.0699	43	C15H9+
190.0776	15	C15H10+
191.0855	17	C15H11+
192.0934	4	C15H12+
195.0804	1	C14H11O+
201.0699	1	C16H9+
202.0777	24	C16H10+
203.0858	7	C16H11+
205.1019	1	C16H13+
213.0695	1	C17H9+
215.0855	4	C17H11+
226.0775	2	C18H10+
228.0938	1	C18H12+
