Mass spectrum: ortho-Chlorophenylpiperazine; LC-ESI-QFT; MS2; CE: 45; R=35000; [M+H]+
Name: ortho-Chlorophenylpiperazine
Name: 1-(2-Chlorophenyl)piperazine
Name: 1-(2-chlorophenyl)piperazine
Formula: C10H13ClN2
Exact mass: 196.07673
SMILES: c1ccc(c(c1)N2CCNCC2)Cl
InChI: InChI=1S/C10H13ClN2/c11-9-3-1-2-4-10(9)13-7-5-12-6-8-13/h1-4,12H,5-8H2
Instrument: Q Exactive Plus Orbitrap Thermo Scientific
Instrument type: LC-ESI-QFT
Ms type: MS2
Ion mode: POSITIVE
Ionization: ESI
Fragmentation mode: HCD
Collision energy: 45 (nominal)
Resolution: 35000
Column name: XBridge C18 3.5um, 2.1x50mm, Waters
Retention time: 4.9 min
Base peak: 197.0839
Precursor m/z: 197.084
Precursor type: [M+H]+
m/z	relative intensity	assigned
56.0494	3	C3H6N+
58.0651	4	C3H8N+
70.0651	51	C4H8N+
71.0729	1	C4H9N+
77.0384	1	C6H5+
91.054	1	C7H7+
117.0573	2	C8H7N+
118.0651	32	C8H8N+
119.073	124	C8H9N+
120.0807	5	C8H10N+
126.0104	1	C6H5ClN+
127.0182	1	C6H6ClN+
138.0103	2	C7H5ClN+
140.026	11	C7H7ClN+
152.0263	7	C8H7ClN+
154.0417	931	C8H9ClN+
161.1071	4	C10H13N2+
162.1151	11	C10H14N2+
166.0419	2	C9H9ClN+
167.0368	1	C8H8ClN2+
168.0448	1	C8H9ClN2+
168.0572	1	C9H11ClN+
180.0578	2	C10H11ClN+
195.0684	50	C10H12ClN2+
197.0839	999	C10H14ClN2+
