Mass spectrum: Eseroline; LC-ESI-QFT; MS2; CE: 60; R=35000; [M+H]+
Name: Eseroline
Name: 1,3a,8-Trimethyl-1,2,3,3a,8,8a-hexahydropyrrolo[2,3-b]indol-5-ol
Name: 3,4,8b-trimethyl-2,3a-dihydro-1H-pyrrolo[2,3-b]indol-7-ol
Formula: C13H18N2O
Exact mass: 218.14191
SMILES: CC12CCN(C1N(C3=C2C=C(C=C3)O)C)C
InChI: InChI=1S/C13H18N2O/c1-13-6-7-14(2)12(13)15(3)11-5-4-9(16)8-10(11)13/h4-5,8,12,16H,6-7H2,1-3H3
Instrument: Q Exactive Plus Orbitrap Thermo Scientific
Instrument type: LC-ESI-QFT
Ms type: MS2
Ion mode: POSITIVE
Ionization: ESI
Fragmentation mode: HCD
Collision energy: 60 (nominal)
Resolution: 35000
Column name: XBridge C18 3.5um, 2.1x50mm, Waters
Retention time: 2.4 min
Base peak: 164.9844
Precursor m/z: 219.1492
Precursor type: [M+H]+
m/z	relative intensity	assigned
53.0385	12	C4H5+
55.0178	12	C3H3O+
55.0543	97	C4H7+
56.0494	4	C3H6N+
57.0335	4	C3H5O+
57.0699	44	C4H9+
58.0652	23	C3H8N+
59.0491	14	C3H7O+
60.0444	23	C2H6NO+
67.0542	39	C5H7+
69.0334	14	C4H5O+
69.0699	50	C5H9+
71.049	3	C4H7O+
77.0383	4	C6H5+
79.0542	44	C6H7+
81.0699	62	C6H9+
83.0491	57	C5H7O+
85.0648	5	C5H9O+
86.0964	15	C5H12N+
87.0441	5	C4H7O2+
91.0543	32	C7H7+
93.07	59	C7H9+
95.0492	46	C6H7O+
95.0856	30	C7H11+
97.0076	6	C8H+
97.0651	3	C6H9O+
101.0598	16	C5H9O2+
105.0448	27	C6H5N2+
105.07	85	C8H9+
107.0491	3	C7H7O+
107.0854	53	C8H11+
109.0649	13	C7H9O+
109.1013	12	C8H13+
111.0233	12	C9H3+
111.044	28	C6H7O2+
113.0596	11	C6H9O2+
117.0699	21	C9H9+
119.0856	114	C9H11+
121.0286	5	C7H5O2+
121.0649	22	C8H9O+
121.1012	104	C9H13+
123.0803	16	C8H11O+
127.0755	6	C7H11O2+
129.07	5	C10H9+
131.0857	35	C10H11+
132.0808	5	C9H10N+
133.0649	7	C9H9O+
133.1012	97	C10H13+
134.0601	172	C8H8NO+
134.0965	38	C9H12N+
135.0805	19	C9H11O+
135.1169	24	C10H15+
141.0702	3	C11H9+
142.0778	3	C11H10+
143.0856	14	C11H11+
144.0806	4	C10H10N+
145.0646	5	C10H9O+
145.0888	3	C10H11N+
145.1013	34	C11H13+
146.06	11	C9H8NO+
147.0679	419	C9H9NO+
147.1169	33	C11H15+
148.0756	33	C9H10NO+
149.0961	7	C10H13O+
155.0596	3	C10H7N2+
155.0856	4	C12H11+
157.1011	6	C12H13+
158.0727	2	C11H10O+
159.0804	7	C11H11O+
159.117	23	C12H15+
160.0758	42	C10H10NO+
160.1124	4	C11H14N+
160.1247	5	C12H16+
161.0836	161	C10H11NO+
161.096	36	C11H13O+
161.1325	70	C12H17+
162.0551	432	C9H8NO2+
162.0914	999	C10H12NO+
163.1119	12	C11H15O+
170.1091	20	C13H14+
173.0837	51	C11H11NO+
173.096	7	C12H13O+
173.1327	6	C13H17+
174.0914	4	C11H12NO+
175.1116	4	C12H15O+
175.1482	25	C13H19+
176.0707	20	C10H10NO2+
176.1071	166	C11H14NO+
177.0211	5	C12H3NO+
186.0782	3	C11H10N2O+
187.1119	21	C13H15O+
188.0706	13	C11H10NO2+
188.1071	70	C12H14NO+
188.1199	18	C13H16O+
