Mass spectrum: Dimoxystrobin; LC-ESI-QFT; MS2; CE: 150; R=35000; [M+H]+
Name: Dimoxystrobin
Name: 2-[2-[(2,5-dimethylphenoxy)methyl]phenyl]-2-methoxyimino-N-methylacetamide
Formula: C19H22N2O3
Exact mass: 326.16304
SMILES: CC1=CC(=C(C=C1)C)OCC2=CC=CC=C2C(=NOC)C(=O)NC
InChI: InChI=1S/C19H22N2O3/c1-13-9-10-14(2)17(11-13)24-12-15-7-5-6-8-16(15)18(21-23-4)19(22)20-3/h5-11H,12H2,1-4H3,(H,20,22)
Instrument: Q Exactive Plus Orbitrap Thermo Scientific
Instrument type: LC-ESI-QFT
Ms type: MS2
Ion mode: POSITIVE
Ionization: ESI
Fragmentation mode: HCD
Collision energy: 150 (nominal)
Resolution: 35000
Column name: XBridge C18 3.5um, 2.1x50mm, Waters
Retention time: 12.4 min
Base peak: 327.1694
Precursor m/z: 327.1703
Precursor type: [M+H]+
m/z	relative intensity	assigned
50.015	8	C4H2+
51.0229	15	C4H3+
53.0022	11	C3HO+
53.0385	8	C4H5+
53.9974	4	C2NO+
55.0178	4	C3H3O+
58.0287	513	C2H4NO+
61.0072	21	C5H+
62.0151	64	C5H2+
63.0229	701	C5H3+
64.0182	68	C4H2N+
64.0306	10	C5H4+
65.0385	82	C5H5+
66.0338	4	C4H4N+
66.0464	5	C5H6+
67.9892	2	C3O2+
74.0149	1	C6H2+
75.0228	9	C6H3+
76.0181	4	C5H2N+
76.0307	3	C6H4+
77.0384	11	C6H5+
78.0464	1	C6H6+
79.0178	1	C5H3O+
79.0542	7	C6H7+
81.0334	6	C5H5O+
87.0103	1	C6HN+
88.0182	17	C6H2N+
88.0306	2	C7H4+
89.0385	999	C7H5+
90.0338	75	C6H4N+
90.0464	56	C7H6+
91.0542	31	C7H7+
94.0413	1	C6H6O+
95.0491	21	C6H7O+
101.0387	1	C8H5+
102.0463	1	C8H6+
103.0416	1	C7H5N+
103.0543	1	C8H7+
104.0493	8	C7H6N+
105.0447	13	C6H5N2+
107.049	3	C7H7O+
108.0441	1	C6H6NO+
114.0337	5	C8H4N+
115.0416	1	C8H5N+
115.0541	9	C9H7+
116.0494	69	C8H6N+
117.0573	15	C8H7N+
118.0653	1	C8H8N+
126.0464	1	C10H6+
127.054	1	C10H7+
128.0495	3	C9H6N+
128.062	4	C10H8+
129.0448	2	C8H5N2+
130.0652	1	C9H8N+
134.0599	1	C8H8NO+
139.054	6	C11H7+
140.0494	6	C10H6N+
141.07	1	C11H9+
146.0598	1	C9H8NO+
150.0464	7	C12H6+
151.0542	4	C12H7+
152.062	33	C12H8+
153.0696	4	C12H9+
155.0603	1	C10H7N2+
163.054	5	C13H7+
164.0619	7	C13H8+
165.0699	38	C13H9+
166.0653	1	C12H8N+
167.0729	3	C12H9N+
169.0645	12	C12H9O+
176.062	16	C14H8+
177.0572	4	C13H7N+
177.0699	7	C14H9+
178.0652	1	C13H8N+
178.0777	17	C14H10+
179.0601	5	C12H7N2+
179.073	1	C13H9N+
180.0805	6	C13H10N+
189.0699	6	C15H9+
190.0651	6	C14H8N+
191.0733	8	C14H9N+
191.0853	1	C15H11+
192.0809	2	C14H10N+
193.0883	2	C14H11N+
202.0776	1	C16H10+
203.0732	1	C15H9N+
204.0805	4	C15H10N+
