Mass spectrum: Chlortetracycline; LC-ESI-QFT; MS2; CE: 180; R=35000; [M-H]-
Name: Chlortetracycline
Name: 2-carbamoyl-7-chloro-4-(dimethylazaniumyl)-6,10,11,12a-tetrahydroxy-6-methyl-3,12-dioxo-4,4a,5,5a-tetrahydrotetracen-1-olate
Formula: C22H23ClN2O8
Exact mass: 478.11429
SMILES: CC1(C2CC3C(C(=O)C(=C(C3(C(=O)C2=C(C4=C(C=CC(=C41)Cl)O)O)O)O)C(=O)N)N(C)C)O
InChI: InChI=1S/C22H23ClN2O8/c1-21(32)7-6-8-15(25(2)3)17(28)13(20(24)31)19(30)22(8,33)18(29)11(7)16(27)12-10(26)5-4-9(23)14(12)21/h4-5,7-8,15,26-27,30,32-33H,6H2,1-3H3,(H2,24,31)
Instrument: Q Exactive Plus Orbitrap Thermo Scientific
Instrument type: LC-ESI-QFT
Ms type: MS2
Ion mode: NEGATIVE
Ionization: ESI
Fragmentation mode: HCD
Collision energy: 180 (nominal)
Resolution: 35000
Column name: XBridge C18 3.5um, 2.1x50mm, Waters
Retention time: 5.4 min
Base peak: 477.1067
Precursor m/z: 477.107
Precursor type: [M-H]-
m/z	relative intensity	assigned
50.0036	150	C3N-
51.0238	23	C4H3-
53.0031	22	C3HO-
55.0189	56	C3H3O-
59.0137	12	C2H3O2-
62.0161	16	C5H2-
63.024	140	C5H3-
65.0033	412	C4HO-
65.0397	211	C5H5-
65.9985	999	C3NO-
67.019	21	C4H3O-
68.0141	19	C3H2NO-
68.9983	189	C3HO2-
73.0084	51	C6H-
75.0242	16	C6H3-
77.0033	21	C5HO-
81.0346	17	C5H5O-
89.0033	25	C6HO-
89.0397	103	C7H5-
91.0189	31	C6H3O-
93.0346	116	C6H5O-
101.0398	14	C8H5-
103.0187	19	C7H3O-
108.0217	31	C6H4O2-
113.0398	16	C9H5-
117.0345	53	C8H5O-
