Mass spectrum: Prednisone; LC-ESI-QFT; MS2; CE: 90; R=35000; [M-H]-
Name: Prednisone
Name: (8S,9S,10R,13S,14S,17R)-17-hydroxy-17-(2-hydroxyacetyl)-10,13-dimethyl-6,7,8,9,12,14,15,16-octahydrocyclopenta[a]phenanthrene-3,11-dione
Formula: C21H26O5
Exact mass: 358.17802
SMILES: O=C(CO)[C@@]3(O)CC[C@H]2[C@@H]4CC\C1=C\C(=O)\C=C/[C@]1(C)[C@H]4C(=O)C[C@@]23C
InChI: InChI=1S/C21H26O5/c1-19-7-5-13(23)9-12(19)3-4-14-15-6-8-21(26,17(25)11-22)20(15,2)10-16(24)18(14)19/h5,7,9,14-15,18,22,26H,3-4,6,8,10-11H2,1-2H3/t14-,15-,18+,19-,20-,21-/m0/s1
Instrument: Q Exactive Orbitrap Thermo Scientific
Instrument type: LC-ESI-QFT
Ms type: MS2
Ion mode: NEGATIVE
Ionization: ESI
Fragmentation mode: HCD
Collision energy: 90 (nominal)
Resolution: 35000
Column name: XBridge C18 3.5um, 2.1x50mm, Waters
Retention time: 7.5 min
Base peak: 403.1766
Precursor m/z: 357.1707
Precursor type: [M-H]-
m/z	relative intensity	assigned
57.0345	169	C3H5O-
65.0397	12	C5H5-
79.0554	60	C6H7-
80.0268	20	C5H4O-
81.0346	41	C5H5O-
83.0504	10	C5H7O-
85.0294	18	C4H5O2-
93.0345	24	C6H5O-
95.0503	189	C6H7O-
97.0659	75	C6H9O-
106.0424	63	C7H6O-
107.0502	299	C7H7O-
108.0217	230	C6H4O2-
109.0295	22	C6H5O2-
109.0659	63	C7H9O-
119.0503	118	C8H7O-
120.058	15	C8H8O-
121.0294	71	C7H5O2-
121.0659	511	C8H9O-
122.0374	582	C7H6O2-
123.0452	999	C7H7O2-
123.0816	185	C8H11O-
130.0425	190	C9H6O-
131.0502	52	C9H7O-
133.066	222	C9H9O-
134.0373	103	C8H6O2-
135.0453	248	C8H7O2-
135.0815	118	C9H11O-
136.0526	76	C8H8O2-
137.0607	102	C8H9O2-
143.0502	117	C10H7O-
144.0579	15	C10H8O-
145.0657	135	C10H9O-
146.0372	17	C9H6O2-
147.0451	57	C9H7O2-
147.0815	11	C10H11O-
148.0529	76	C9H8O2-
149.0607	662	C9H9O2-
151.0762	59	C9H11O2-
154.0276	12	C7H6O4-
157.0657	39	C11H9O-
159.045	39	C10H7O2-
159.0812	10	C11H11O-
163.0768	14	C10H11O2-
172.0526	13	C11H8O2-
185.0603	42	C12H9O2-
187.0766	15	C12H11O2-
