Mass spectrum: Flocoumafen; LC-ESI-QFT; MS2; CE: 120%; R=17500; [M+H]+
Name: Flocoumafen
Name: 4-hydroxy-3-[3-[4-[[4-(trifluoromethyl)phenyl]methoxy]phenyl]-1,2,3,4-tetrahydronaphthalen-1-yl]chromen-2-one
Formula: C33H25F3O4
Exact mass: 542.1705
SMILES: C1C(CC2=CC=CC=C2C1C3=C(C4=CC=CC=C4OC3=O)O)C5=CC=C(C=C5)OCC6=CC=C(C=C6)C(F)(F)F
InChI: InChI=1S/C33H25F3O4/c34-33(35,36)24-13-9-20(10-14-24)19-39-25-15-11-21(12-16-25)23-17-22-5-1-2-6-26(22)28(18-23)30-31(37)27-7-3-4-8-29(27)40-32(30)38/h1-16,23,28,37H,17-19H2
Instrument: Exploris 240 Orbitrap Thermo Scientific
Instrument type: LC-ESI-QFT
Ms type: MS2
Ion mode: POSITIVE
Ionization: ESI
Fragmentation mode: HCD
Collision energy: 120 % (nominal)
Resolution: 17500
Column name: XBridge C18 3.5um, 2.1x50mm, Waters
Retention time: 15.796 min
Base peak: 543.1776
Precursor m/z: 543.1778
Precursor type: [M+H]+
m/z	relative intensity	assigned
63.0229	7	C5H3+
65.0386	78	C5H5+
75.0229	6	C6H3+
77.0022	9	C5HO+
77.0386	70	C6H5+
79.0542	43	C6H7+
83.0292	72	C5H4F+
89.0386	36	C7H5+
90.0465	30	C7H6+
91.0543	99	C7H7+
93.0336	12	C6H5O+
94.0413	4	C6H6O+
95.0492	50	C6H7O+
99.0229	41	C8H3+
107.0493	12	C7H7O+
109.0448	999	C7H6F+
115.0543	26	C9H7+
119.0291	44	C8H4F+
121.0288	37	C7H5O2+
128.0621	55	C10H8+
129.0698	4	C10H9+
137.0397	6	C8H6FO+
139.0354	43	C8H5F2+
141.0699	6	C11H9+
152.0619	15	C12H8+
159.0417	171	C8H6F3+
165.07	21	C13H9+
178.0775	5	C14H10+
202.0777	7	C16H10+
