Mass spectrum: Imatinib; LC-ESI-QFT; MS2; CE: 75; R=35000; [M-H]-
Name: Imatinib
Name: 4-[(4-methylpiperazin-1-yl)methyl]-N-[4-methyl-3-[(4-pyridin-3-ylpyrimidin-2-yl)amino]phenyl]benzamide
Formula: C29H31N7O
Exact mass: 493.25901
SMILES: CC1=C(C=C(C=C1)NC(=O)C2=CC=C(C=C2)CN3CCN(CC3)C)NC4=NC=CC(=N4)C5=CN=CC=C5
InChI: InChI=1S/C29H31N7O/c1-21-5-10-25(18-27(21)34-29-31-13-11-26(33-29)24-4-3-12-30-19-24)32-28(37)23-8-6-22(7-9-23)20-36-16-14-35(2)15-17-36/h3-13,18-19H,14-17,20H2,1-2H3,(H,32,37)(H,31,33,34)
Instrument: Q Exactive Plus Orbitrap Thermo Scientific
Instrument type: LC-ESI-QFT
Ms type: MS2
Ion mode: NEGATIVE
Ionization: ESI
Fragmentation mode: HCD
Collision energy: 75 (nominal)
Resolution: 35000
Column name: XBridge C18 3.5um, 2.1x50mm, Waters
Retention time: 5.8 min
Base peak: 171.0666
Precursor m/z: 492.2517
Precursor type: [M-H]-
m/z	relative intensity	assigned
65.0145	82	C3HN2-
76.0193	4	C5H2N-
103.0302	7	C6H3N2-
116.0509	6	C8H6N-
128.0384	7	C8H4N2-
129.0459	52	C8H5N2-
142.0411	32	C8H4N3-
143.049	22	C8H5N3-
143.0614	25	C9H7N2-
144.0567	43	C8H6N3-
145.0645	167	C8H7N3-
146.0724	95	C8H8N3-
147.0563	54	C8H7N2O-
155.049	12	C9H5N3-
157.0407	144	C9H5N2O-
158.0358	83	C8H4N3O-
169.0519	151	C9H5N4-
170.0723	7	C10H8N3-
171.0564	416	C10H7N2O-
171.0673	90	C9H7N4-
171.0799	78	C10H9N3-
172.0517	498	C9H6N3O-
182.036	11	C10H4N3O-
182.0723	5	C11H8N3-
195.0673	12	C11H7N4-
196.0511	25	C11H6N3O-
198.0673	725	C11H8N3O-
207.0804	6	C13H9N3-
209.0834	126	C12H9N4-
222.0928	37	C15H12NO-
234.0673	203	C14H8N3O-
237.1033	164	C15H13N2O-
247.0992	8	C15H11N4-
248.0824	26	C15H10N3O-
248.106	23	C15H12N4-
249.0904	5	C15H11N3O-
257.0829	5	C16H9N4-
258.0915	29	C16H10N4-
259.0854	21	C15H9N5-
259.0984	96	C16H11N4-
260.0942	154	C15H10N5-
262.0981	9	C16H12N3O-
264.1141	999	C16H14N3O-
273.0785	23	C16H9N4O-
274.1101	112	C16H12N5-
275.0939	216	C16H11N4O-
285.0782	62	C17H9N4O-
286.0728	11	C16H8N5O-
287.0941	6	C17H11N4O-
288.0884	6	C16H10N5O-
302.1047	442	C17H12N5O-
351.125	5	C20H13N7-
392.1517	20	C24H18N5O-
393.1592	5	C24H19N5O-
