Mass spectrum: Chromafenozide; LC-ESI-QFT; MS2; CE: 120%; R=17500; [M+H]+
Name: Chromafenozide
Name: N`-tert-butyl-N`-(3,5-dimethylbenzoyl)-5-methyl-3,4-dihydro-2H-chromene-6-carbohydrazide
Formula: C24H30N2O3
Exact mass: 394.2256
SMILES: CC1=CC(=CC(=C1)C(=O)N(C(C)(C)C)NC(=O)C2=C(C3=C(C=C2)OCCC3)C)C
InChI: InChI=1S/C24H30N2O3/c1-15-12-16(2)14-18(13-15)23(28)26(24(4,5)6)25-22(27)20-9-10-21-19(17(20)3)8-7-11-29-21/h9-10,12-14H,7-8,11H2,1-6H3,(H,25,27)
Instrument: Exploris 240 Orbitrap Thermo Scientific
Instrument type: LC-ESI-QFT
Ms type: MS2
Ion mode: POSITIVE
Ionization: ESI
Fragmentation mode: HCD
Collision energy: 120 % (nominal)
Resolution: 17500
Column name: XBridge C18 3.5um, 2.1x50mm, Waters
Retention time: 9.562 min
Base peak: 395.233
Precursor m/z: 395.2329
Precursor type: [M+H]+
m/z	relative intensity	assigned
51.023	51	C4H3+
53.0387	54	C4H5+
55.0178	44	C3H3O+
65.0386	348	C5H5+
77.0386	284	C6H5+
78.0466	33	C6H6+
79.0542	265	C6H7+
91.0542	999	C7H7+
93.0699	16	C7H9+
95.049	62	C6H7O+
103.0542	194	C8H7+
104.062	61	C8H8+
105.0447	81	C6H5N2+
105.0696	109	C8H9+
107.0492	28	C7H7O+
115.0541	61	C9H7+
117.07	60	C9H9+
119.0491	104	C8H7O+
119.0855	33	C9H11+
128.0621	59	C10H8+
131.049	103	C9H7O+
132.0569	62	C9H8O+
147.044	65	C9H7O2+
