Mass spectrum: Fluazifop; LC-ESI-ITFT; MS2; CE: 60%; R=15000; [M+H]+
Name: Fluazifop
Name: 2-[4-[5-(trifluoromethyl)pyridin-2-yl]oxyphenoxy]propanoic acid
Formula: C15H12F3NO4
Exact mass: 327.0724
SMILES: CC(C(=O)O)OC1=CC=C(C=C1)OC2=NC=C(C=C2)C(F)(F)F
InChI: InChI=1S/C15H12F3NO4/c1-9(14(20)21)22-11-3-5-12(6-4-11)23-13-7-2-10(8-19-13)15(16,17)18/h2-9H,1H3,(H,20,21)
Instrument: LTQ Orbitrap XL Thermo Scientific
Instrument type: LC-ESI-ITFT
Ms type: MS2
Ion mode: POSITIVE
Ionization: ESI
Fragmentation mode: HCD
Collision energy: 60 % (nominal)
Resolution: 15000
Column name: XBridge C18 3.5um, 2.1x50mm, Waters
Retention time: 10.9 min
Base peak: 328.0794
Precursor m/z: 328.0791
Precursor type: [M+H]+
m/z	relative intensity	assigned
65.0386	151	C5H5+
91.0542	766	C7H7+
92.0255	13	C6H4O+
93.0335	62	C6H5O+
94.0413	9	C6H6O+
109.0283	9	C6H5O2+
111.044	23	C6H7O2+
119.0491	97	C8H7O+
121.0285	28	C7H5O2+
121.0648	11	C8H9O+
141.0572	14	C10H7N+
146.0214	13	C6H3F3N+
147.0289	77	C6H4F3N+
158.0601	19	C10H8NO+
163.0238	28	C6H4F3NO+
164.0318	134	C6H5F3NO+
167.0725	12	C12H9N+
179.0189	142	C6H4F3NO2+
186.0526	12	C9H7F3N+
190.0465	7	C11H6F2N+
198.0525	26	C10H7F3N+
210.0524	16	C11H7F3N+
211.0601	22	C11H8F3N+
213.0782	17	C13H11NO2+
218.0409	28	C12H6F2NO+
226.0472	25	C11H7F3NO+
226.0834	27	C12H11F3N+
227.0552	636	C11H8F3NO+
236.0682	38	C13H9F3N+
238.0474	999	C12H7F3NO+
239.0553	11	C12H8F3NO+
254.0423	670	C12H7F3NO2+
254.0784	235	C13H11F3NO+
255.05	189	C12H8F3NO2+
256.0578	392	C12H9F3NO2+
264.0624	14	C14H9F3NO+
282.0735	222	C14H11F3NO2+
