Mass spectrum: Trinexapac-ethyl; LC-ESI-ITFT; MS2; CE: 35%; R=7500; [M+H]+
Name: Trinexapac-ethyl
Name: 4-[cyclopropyl(hydroxy)methylene]-3,5-diketo-cyclohexanecarboxylic acid ethyl ester
Formula: C13H16O5
Exact mass: 252.0992
SMILES: CCOC(=O)C1CC(=O)C(=C(C2CC2)O)C(=O)C1
InChI: InChI=1S/C13H16O5/c1-2-18-13(17)8-5-9(14)11(10(15)6-8)12(16)7-3-4-7/h7-8,16H,2-6H2,1H3/b12-11-
Instrument: LTQ Orbitrap XL Thermo Scientific
Instrument type: LC-ESI-ITFT
Ms type: MS2
Ion mode: POSITIVE
Ionization: ESI
Fragmentation mode: CID
Collision energy: 35 % (nominal)
Resolution: 7500
Column name: XBridge C18 3.5um, 2.1x50mm, Waters
Retention time: 8.9 min
Base peak: 253.1073
Precursor m/z: 253.1071
Precursor type: [M+H]+
m/z	relative intensity	assigned
69.0332	11	C4H5O+
111.044	9	C6H7O2+
139.039	66	C7H7O3+
157.0862	2	C8H13O3+
165.0182	46	C8H5O4+
179.0702	94	C10H11O3+
183.0291	8	C8H7O5+
183.1014	4	C10H15O3+
185.0809	767	C9H13O4+
207.0652	999	C11H11O4+
211.06	28	C10H11O5+
225.0759	13	C11H13O5+
225.1119	13	C12H17O4+
235.0962	5	C13H15O4+
