Mass spectrum: Nilotinib; LC-ESI-QFT; MS2; CE: 45; R=35000; [M-H]-
Name: Nilotinib
Name: 4-methyl-N-(3-(4-methylimidazol-1-yl)-5-(trifluoromethyl)phenyl)-3-((4-pyridin-3-ylpyrimidin-2-yl)amino)benzamide
Formula: C28H22F3N7O
Exact mass: 529.18379
SMILES: CC1=C(C=C(C=C1)C(=O)NC2=CC(=CC(=C2)N3C=C(N=C3)C)C(F)(F)F)NC4=NC=CC(=N4)C5=CN=CC=C5
InChI: InChI=1S/C28H22F3N7O/c1-17-5-6-19(10-25(17)37-27-33-9-7-24(36-27)20-4-3-8-32-14-20)26(39)35-22-11-21(28(29,30)31)12-23(13-22)38-15-18(2)34-16-38/h3-16H,1-2H3,(H,35,39)(H,33,36,37)
Instrument: Q Exactive Plus Orbitrap Thermo Scientific
Instrument type: LC-ESI-QFT
Ms type: MS2
Ion mode: NEGATIVE
Ionization: ESI
Fragmentation mode: HCD
Collision energy: 45 (nominal)
Resolution: 35000
Column name: XBridge C18 3.5um, 2.1x50mm, Waters
Retention time: 8.5 min
Base peak: 528.1775
Precursor m/z: 528.1765
Precursor type: [M-H]-
m/z	relative intensity	assigned
68.9958	3	CF3-
81.0457	20	C4H5N2-
116.0507	2	C8H6N-
130.0662	3	C9H8N-
131.0614	2	C8H7N2-
144.0566	2	C3H5FN6-
157.0771	29	C10H9N2-
160.0377	1	C5H2N7-
171.0677	26	C9H7N4-
185.033	1	C8H4F3N2-
187.049	1	C8H6F3N2-
193.0581	4	C5H6F3N5-
196.0511	1	C6H5FN6O-
211.013	4	C9H2F3N2O-
211.0489	5	C10H6F3N2-
213.0645	19	C10H8F3N2-
218.0537	4	C16H7F-
219.0375	7	C11H5F2N2O-
220.0692	2	C11H8F2N3-
223.0488	7	C11H6F3N2-
226.0423	5	C17H6O-
234.1038	20	C15H12N3-
236.0438	1	C11H5F3N3-
238.0597	2	C11H7F3N3-
239.0438	47	C11H6F3N2O-
240.0755	999	C16H10F2-
241.0594	21	C11H8F3N2O-
244.0873	3	C11H9FN6-
251.0311	11	C11H4F3N3O-
259.0987	8	C11H10FN7-
261.1145	66	C11H12FN7-
266.0547	381	C12H7F3N3O-
273.078	1	C11H8FN7O-
286.1098	2	C17H12N5-
287.0936	9	C12H10FN7O-
328.1068	15	C18H13F3N3-
354.1227	2	C25H16F2-
381.1336	7	C26H17F2N-
446.1232	2	C24H15F3N5O-
485.1703	11	C27H20F3N6-
488.1643	8	C28H19FN7O-
490.1603	3	C28H18F2N7-
500.182	6	C27H21F3N7-
508.1707	5	C28H20F2N7O-
511.1494	1	C28H18F3N6O-
528.1763	176	C28H21F3N7O-
