Mass spectrum: Fluazifop; LC-ESI-ITFT; MS2; CE: 75%; R=15000; [M-H]-
Name: Fluazifop
Name: 2-[4-[5-(trifluoromethyl)pyridin-2-yl]oxyphenoxy]propanoic acid
Formula: C15H12F3NO4
Exact mass: 327.0724
SMILES: CC(C(=O)O)OC1=CC=C(C=C1)OC2=NC=C(C=C2)C(F)(F)F
InChI: InChI=1S/C15H12F3NO4/c1-9(14(20)21)22-11-3-5-12(6-4-11)23-13-7-2-10(8-19-13)15(16,17)18/h2-9H,1H3,(H,20,21)
Instrument: LTQ Orbitrap XL Thermo Scientific
Instrument type: LC-ESI-ITFT
Ms type: MS2
Ion mode: NEGATIVE
Ionization: ESI
Fragmentation mode: HCD
Collision energy: 75 % (nominal)
Resolution: 15000
Column name: XBridge C18 3.5um, 2.1x50mm, Waters
Retention time: 10.8 min
Base peak: 326.0639
Precursor m/z: 326.0646
Precursor type: [M-H]-
m/z	relative intensity	assigned
108.0216	999	C6H4O2-
150.0353	27	C11H4N-
158.0411	92	C10H5FN-
162.0171	282	C6H3F3NO-
164.0313	58	C9H4F2N-
166.0296	57	C11H4NO-
170.0404	36	C11H5FN-
178.0472	233	C10H6F2N-
184.0381	38	C9H5F3N-
186.0353	90	C11H5FNO-
198.0532	129	C10H7F3N-
199.0243	64	C9H4F3NO-
206.0419	503	C11H6F2NO-
210.0546	30	C11H7F3N-
212.0324	90	C10H5F3NO-
226.0482	189	C11H7F3NO-
253.0356	151	C12H6F3NO2-
