Mass spectrum: Clomipramine; LC-ESI-QFT; MS2; CE: 30; R=35000; [M+H]+
Name: Clomipramine
Name: 3-(2-chloro-5,6-dihydrobenzo[b][1]benzazepin-11-yl)-N,N-dimethylpropan-1-amine
Formula: C19H23ClN2
Exact mass: 314.15498
SMILES: CN(C)CCCN1C2=CC=CC=C2CCC3=C1C=C(C=C3)Cl
InChI: InChI=1S/C19H23ClN2/c1-21(2)12-5-13-22-18-7-4-3-6-15(18)8-9-16-10-11-17(20)14-19(16)22/h3-4,6-7,10-11,14H,5,8-9,12-13H2,1-2H3
Instrument: Q Exactive Plus Orbitrap Thermo Scientific
Instrument type: LC-ESI-QFT
Ms type: MS2
Ion mode: POSITIVE
Ionization: ESI
Fragmentation mode: HCD
Collision energy: 30 (nominal)
Resolution: 35000
Column name: XBridge C18 3.5um, 2.1x50mm, Waters
Retention time: 9.2 min
Base peak: 315.1618
Precursor m/z: 315.1623
Precursor type: [M+H]+
m/z	relative intensity	assigned
58.0652	202	C3H8N+
86.0964	999	C5H12N+
220.1122	1	C16H14N+
235.1356	4	C17H17N+
242.0733	31	C15H13ClN+
270.1046	43	C17H17ClN+
315.1625	125	C19H24ClN2+
