Mass spectrum: 2,4-Dimethylaniline; LC-ESI-QFT; MS2; CE: 120%; R=17500; [M+H]+
Name: 2,4-Dimethylaniline
Formula: C8H11N
Exact mass: 121.0891
SMILES: CC1=CC(=C(C=C1)N)C
InChI: InChI=1S/C8H11N/c1-6-3-4-8(9)7(2)5-6/h3-5H,9H2,1-2H3
Instrument: Exploris 240 Orbitrap Thermo Scientific
Instrument type: LC-ESI-QFT
Ms type: MS2
Ion mode: POSITIVE
Ionization: ESI
Fragmentation mode: HCD
Collision energy: 120 % (nominal)
Resolution: 17500
Column name: XBridge C18 3.5um, 2.1x50mm, Waters
Retention time: 2.610 min
Base peak: 122.0964
Precursor m/z: 122.0964
Precursor type: [M+H]+
m/z	relative intensity	assigned
51.023	94	C4H3+
53.0386	139	C4H5+
65.0386	72	C5H5+
66.0467	16	C5H6+
77.0386	960	C6H5+
79.0543	999	C6H7+
103.0543	485	C8H7+
104.0623	15	C8H8+
105.0699	433	C8H9+
106.0652	540	C7H8N+
107.0731	618	C7H9N+
120.0808	13	C8H10N+
122.0967	35	C8H12N+
