Mass spectrum: Pirimiphos-Ethyl; LC-ESI-QFT; MS2; CE: 180%; R=17500; [M+H]+
Name: Pirimiphos-Ethyl
Name: 4-diethoxyphosphinothioyloxy-N,N-diethyl-6-methylpyrimidin-2-amine
Formula: C13H24N3O3PS
Exact mass: 333.1276
SMILES: CCN(CC)C1=NC(=CC(=N1)OP(=S)(OCC)OCC)C
InChI: InChI=1S/C13H24N3O3PS/c1-6-16(7-2)13-14-11(5)10-12(15-13)19-20(21,17-8-3)18-9-4/h10H,6-9H2,1-5H3
Instrument: Exploris 240 Orbitrap Thermo Scientific
Instrument type: LC-ESI-QFT
Ms type: MS2
Ion mode: POSITIVE
Ionization: ESI
Fragmentation mode: HCD
Collision energy: 180 % (nominal)
Resolution: 17500
Column name: XBridge C18 3.5um, 2.1x50mm, Waters
Retention time: 12.748 min
Base peak: 334.1347
Precursor m/z: 334.1349
Precursor type: [M+H]+
m/z	relative intensity	assigned
54.0338	48	C3H4N+
58.9951	174	C2H3S+
59.9902	100	CH2NS+
62.9631	148	O2P+
64.9787	999	H2O2P+
66.0338	124	C4H4N+
67.0291	519	C3H3N2+
67.0417	120	C4H5N+
69.0083	295	C2HN2O+
78.9403	473	OPS+
80.9733	72	H2O3P+
82.995	224	C4H3S+
83.9903	158	C3H2NS+
84.0442	59	C4H6NO+
84.9857	192	C2HN2S+
96.9508	321	H2O2PS+
100.0214	91	C4H6NS+
114.9617	71	H4O3PS+
