Mass spectrum: Ampicillin; LC-ESI-QFT; MS2; CE: 75; R=35000; [M+H]+
Name: Ampicillin
Name: 2-amino-1-methyl-5-propylideneimidazol-4-one
Name: 6-[(2-azaniumyl-2-phenylacetyl)amino]-3,3-dimethyl-7-oxo-4-thia-1-azabicyclo[3.2.0]heptane-2-carboxylate
Formula: C16H19N3O4S
Exact mass: 349.10963
SMILES: CC1(C(N2C(S1)C(C2=O)NC(=O)C(C3=CC=CC=C3)N)C(=O)O)C
InChI: InChI=1S/C16H19N3O4S/c1-16(2)11(15(22)23)19-13(21)10(14(19)24-16)18-12(20)9(17)8-6-4-3-5-7-8/h3-7,9-11,14H,17H2,1-2H3,(H,18,20)(H,22,23)
Instrument: Q Exactive Plus Orbitrap Thermo Scientific
Instrument type: LC-ESI-QFT
Ms type: MS2
Ion mode: POSITIVE
Ionization: ESI
Fragmentation mode: HCD
Collision energy: 75 (nominal)
Resolution: 35000
Column name: XBridge C18 3.5um, 2.1x50mm, Waters
Retention time: 4.7 min
Base peak: 350.1165
Precursor m/z: 350.1169
Precursor type: [M+H]+
m/z	relative intensity	assigned
53.0386	15	C4H5+
55.0543	7	C4H7+
58.995	30	C2H3S+
62.006	3	CH4NS+
65.0386	4	C5H5+
66.0464	1	C5H6+
67.0543	3	C5H7+
68.0131	39	C3H2NO+
68.0495	21	C4H6N+
69.0447	5	C3H5N2+
70.0652	107	C4H8N+
71.0492	6	C4H7O+
72.081	1	C4H10N+
72.998	3	C2H3NS+
74.0059	47	C2H4NS+
75.0263	1	C3H7S+
77.0385	7	C6H5+
79.0542	441	C6H7+
80.0494	1	C5H6N+
81.0335	2	C5H5O+
82.0652	8	C5H8N+
84.0809	3	C5H10N+
85.0107	3	C4H5S+
86.0059	103	C3H4NS+
87.0264	81	C4H7S+
89.0386	2	C7H5+
90.0464	6	C7H6+
91.0543	221	C7H7+
94.0652	17	C6H8N+
95.0492	10	C6H7O+
96.0081	3	C4H2NO2+
96.0444	19	C5H6NO+
98.0602	5	C5H8NO+
99.0442	3	C5H7O2+
103.0543	29	C8H7+
104.0493	4	C7H6N+
104.0621	3	C8H8+
105.0447	6	C6H5N2+
105.07	1	C8H9+
106.0652	999	C7H8N+
109.0761	7	C6H9N2+
110.0601	2	C6H8NO+
114.0009	143	C4H4NOS+
114.0373	254	C5H8NS+
115.0542	9	C9H7+
116.0496	2	C8H6N+
117.0574	52	C8H7N+
118.0414	24	C8H6O+
118.0652	251	C8H8N+
119.0492	12	C8H7O+
120.0809	7	C8H10N+
121.0107	91	C7H5S+
122.0185	2	C7H6S+
122.0601	10	C7H8NO+
123.0263	9	C7H7S+
126.0373	3	C6H8NS+
127.0327	1	C5H7N2S+
128.0492	7	C9H6N+
128.0531	2	C6H10NS+
130.0652	38	C9H8N+
131.0493	4	C9H7O+
131.0731	5	C9H9N+
132.0809	3	C9H10N+
135.0264	18	C8H7S+
137.042	22	C8H9S+
137.0711	17	C7H9N2O+
141.0483	3	C6H9N2S+
142.0324	6	C6H8NOS+
145.0762	3	C9H9N2+
146.0601	51	C9H8NO+
147.0264	40	C9H7S+
150.0369	1	C8H8NS+
156.0446	2	C10H6NO+
156.0683	2	C10H8N2+
157.0763	3	C10H9N2+
158.06	2	C10H8NO+
159.0681	4	C10H9NO+
160.0429	14	C6H10NO2S+
162.0372	13	C9H8NS+
164.053	8	C9H10NS+
165.066	3	C8H9N2O2+
173.0297	5	C10H7NS+
174.0374	8	C10H8NS+
174.0551	2	C10H8NO2+
190.0323	1	C10H8NOS+
