Mass spectrum: Bezafibrate; LC-ESI-ITFT; MS2; CE: 90%; R=30000; [M+H]+
Name: Bezafibrate
Name: 2-[4-[2-[(4-chlorobenzoyl)amino]ethyl]phenoxy]-2-methyl-propionic acid
Formula: C19H20ClNO4
Exact mass: 361.1081
SMILES: c1(C(NCCc2ccc(OC(C(O)=O)(C)C)cc2)=O)ccc(Cl)cc1
InChI: InChI=1S/C19H20ClNO4/c1-19(2,18(23)24)25-16-9-3-13(4-10-16)11-12-21-17(22)14-5-7-15(20)8-6-14/h3-10H,11-12H2,1-2H3,(H,21,22)(H,23,24)
Instrument: LTQ Orbitrap XL Thermo Scientific
Instrument type: LC-ESI-ITFT
Ms type: MS2
Ion mode: POSITIVE
Ionization: ESI
Fragmentation mode: HCD
Collision energy: 90 % (nominal)
Resolution: 30000
Column name: XBridge C18 3.5um, 2.1x50mm, Waters
Retention time: 10.6 min
Base peak: 362.1161
Precursor m/z: 362.1154
Precursor type: [M+H]+
m/z	relative intensity	assigned
59.0491	51	C3H7O+
77.0385	244	C6H5+
91.0541	301	C7H7+
93.0698	210	C7H9+
95.0491	29	C6H7O+
103.0541	472	C8H7+
105.0446	66	C6H5N2+
110.9995	89	C6H4Cl+
121.0647	679	C8H9O+
129.01	61	C6H6ClO+
138.9944	683	C7H4ClO+
139.0056	999	C9HNO+
