Mass spectrum: Metoxuron; LC-ESI-QFT; MS2; CE: 90; R=35000; [M+H]+
Name: Metoxuron
Name: 3-(3-chloro-4-methoxyphenyl)-1,1-dimethylurea
Formula: C10H13ClN2O2
Exact mass: 228.06656
SMILES: Clc1cc(ccc1OC)NC(=O)N(C)C
InChI: InChI=1S/C10H13ClN2O2/c1-13(2)10(14)12-7-4-5-9(15-3)8(11)6-7/h4-6H,1-3H3,(H,12,14)
Instrument: Q Exactive Plus Orbitrap Thermo Scientific
Instrument type: LC-ESI-QFT
Ms type: MS2
Ion mode: POSITIVE
Ionization: ESI
Fragmentation mode: HCD
Collision energy: 90 (nominal)
Resolution: 35000
Column name: XBridge C18 3.5um, 2.1x50mm, Waters
Retention time: 6.1 min
Base peak: 229.0737
Precursor m/z: 229.0738
Precursor type: [M+H]+
m/z	relative intensity	assigned
50.0151	1	C4H2+
51.0229	1	C4H3+
52.0181	2	C3H2N+
56.0131	29	C2H2NO+
65.0385	1	C5H5+
72.0443	999	C3H6NO+
78.0338	20	C5H4N+
79.0178	5	C5H3O+
80.013	43	C4H2NO+
95.0491	3	C6H7O+
106.0287	56	C6H4NO+
122.0601	3	C7H8NO+
125.9866	1	C6H3ClO+
129.0101	5	C6H6ClO+
134.0236	6	C7H4NO2+
149.0471	5	C8H7NO2+
156.021	54	C7H7ClNO+
