Mass spectrum: Oxolinic acid; LC-ESI-QFT; MS2; CE: 180; R=35000; [M+H]+
Name: Oxolinic acid
Name: 5-ethyl-8-oxo-[1,3]dioxolo[4,5-g]quinoline-7-carboxylic acid
Formula: C13H11NO5
Exact mass: 261.06372
SMILES: CCN1C=C(C(=O)C2=CC3=C(C=C21)OCO3)C(=O)O
InChI: InChI=1S/C13H11NO5/c1-2-14-5-8(13(16)17)12(15)7-3-10-11(4-9(7)14)19-6-18-10/h3-5H,2,6H2,1H3,(H,16,17)
Instrument: Q Exactive Plus Orbitrap Thermo Scientific
Instrument type: LC-ESI-QFT
Ms type: MS2
Ion mode: POSITIVE
Ionization: ESI
Fragmentation mode: HCD
Collision energy: 180 (nominal)
Resolution: 35000
Column name: XBridge C18 3.5um, 2.1x50mm, Waters
Retention time: 0.9 min
Base peak: 262.0705
Precursor m/z: 262.071
Precursor type: [M+H]+
m/z	relative intensity	assigned
50.0151	272	C4H2+
51.0104	11	C3HN+
51.023	180	C4H3+
52.0182	262	C3H2N+
53.0022	139	C3HO+
53.0386	51	C4H5+
53.9975	2	C2NO+
54.0339	10	C3H4N+
55.0179	10	C3H3O+
56.0495	1	C3H6N+
61.0073	51	C5H+
62.0151	145	C5H2+
63.023	360	C5H3+
64.0182	21	C4H2N+
64.0308	10	C5H4+
65.0386	294	C5H5+
66.0101	9	C4H2O+
66.0338	2	C4H4N+
66.0465	20	C5H6+
67.0417	2	C4H5N+
68.0131	67	C3H2NO+
68.9971	20	C3HO2+
74.0151	516	C6H2+
75.0103	247	C5HN+
75.0229	999	C6H3+
76.0181	209	C5H2N+
76.0307	108	C6H4+
77.0021	33	C5HO+
77.0385	113	C6H5+
78.0338	60	C5H4N+
78.0464	13	C6H6+
79.0179	10	C5H3O+
79.0541	1	C6H7+
80.0131	8	C4H2NO+
80.0494	4	C5H6N+
81.0335	10	C5H5O+
86.0151	46	C7H2+
87.023	163	C7H3+
88.0182	116	C6H2N+
88.0307	27	C7H4+
89.0386	176	C7H5+
90.034	11	C6H4N+
90.0464	33	C7H6+
91.0179	2	C6H3O+
91.0417	9	C6H5N+
91.0542	43	C7H7+
92.0257	4	C6H4O+
92.0494	1	C6H6N+
94.0413	4	C6H6O+
95.0492	148	C6H7O+
96.0444	45	C5H6NO+
99.0103	14	C7HN+
100.0182	28	C7H2N+
101.0261	64	C7H3N+
102.0338	97	C7H4N+
102.0464	30	C8H6+
103.0178	19	C7H3O+
103.0416	10	C7H5N+
103.0542	35	C8H7+
104.0131	4	C6H2NO+
104.0495	19	C7H6N+
105.0336	12	C7H5O+
105.0448	117	C6H5N2+
106.0287	2	C6H4NO+
113.0386	6	C9H5+
114.0339	136	C8H4N+
115.0416	14	C8H5N+
115.0543	10	C9H7+
116.0494	17	C8H6N+
117.0573	40	C8H7N+
118.0286	1	C7H4NO+
118.0652	1	C8H8N+
119.0128	87	C7H3O2+
119.0365	5	C7H5NO+
120.0206	22	C7H4O2+
120.0446	8	C7H6NO+
128.0131	2	C8H2NO+
128.0495	10	C9H6N+
129.0447	10	C8H5N2+
129.0571	1	C9H7N+
130.0289	18	C8H4NO+
130.04	22	C7H4N3+
130.0652	18	C9H8N+
131.0365	1	C8H5NO+
132.0205	6	C8H4O2+
132.0446	14	C8H6NO+
133.0284	34	C8H5O2+
134.0602	1	C8H8NO+
140.0493	1	C10H6N+
142.0288	2	C9H4NO+
146.0603	1	C9H8NO+
149.0347	1	C7H5N2O2+
151.0261	1	C7H5NO3+
158.0239	1	C9H4NO2+
164.0105	4	C8H4O4+
172.0394	11	C10H6NO2+
186.0182	5	C10H4NO3+
