Mass spectrum: Sulfanilic acid; LC-ESI-ITFT; MS2; CE: 90%; R=7500; [M+H]+
Name: Sulfanilic acid
Name: 4-aminobenzenesulfonic acid
Formula: C6H7NO3S
Exact mass: 173.0147
SMILES: S(c1ccc(N)cc1)(O)(=O)=O
InChI: InChI=1S/C6H7NO3S/c7-5-1-3-6(4-2-5)11(8,9)10/h1-4H,7H2,(H,8,9,10)
Instrument: LTQ Orbitrap XL Thermo Scientific
Instrument type: LC-ESI-ITFT
Ms type: MS2
Ion mode: POSITIVE
Ionization: ESI
Fragmentation mode: HCD
Collision energy: 90 % (nominal)
Resolution: 7500
Column name: XBridge C18 3.5um, 2.1x50mm, Waters
Retention time: 0.9 min
Base peak: 174.0217
Precursor m/z: 174.0219
Precursor type: [M+H]+
m/z	relative intensity	assigned
65.0386	94	C5H5+
66.0464	19	C5H6+
68.0493	3	C4H6N+
75.0228	1	C6H3+
76.0308	2	C6H4+
80.0495	15	C5H6N+
81.0337	3	C5H5O+
92.0495	114	C6H6N+
93.0573	999	C6H7N+
94.065	2	C6H8N+
108.0444	58	C6H6NO+
109.0286	5	C6H5O2+
109.052	2	C6H7NO+
110.0601	14	C6H8NO+
125.0472	50	C6H7NO2+
174.0218	8	C6H8NO3S+
