Mass spectrum: TCMTB (Busan); LC-ESI-QFT; MS2; CE: 60%; R=17500; [M+H]+
Name: TCMTB (Busan)
Name: 2-(Thiocyanomethylthio)benzothiazole
Name: 1,3-benzothiazol-2-ylsulfanylmethyl thiocyanate
Formula: C9H6N2S3
Exact mass: 237.9693
SMILES: C1=CC=C2C(=C1)N=C(S2)SCSC#N
InChI: InChI=1S/C9H6N2S3/c10-5-12-6-13-9-11-7-3-1-2-4-8(7)14-9/h1-4H,6H2
Instrument: Exploris 240 Orbitrap Thermo Scientific
Instrument type: LC-ESI-QFT
Ms type: MS2
Ion mode: POSITIVE
Ionization: ESI
Fragmentation mode: HCD
Collision energy: 60 % (nominal)
Resolution: 17500
Column name: XBridge C18 3.5um, 2.1x50mm, Waters
Retention time: 8.597 min
Base peak: 238.9763
Precursor m/z: 238.9766
Precursor type: [M+H]+
m/z	relative intensity	assigned
71.9902	50	C2H2NS+
77.0388	5	C6H5+
104.0494	48	C7H6N+
109.0104	8	C6H5S+
116.0495	61	C8H6N+
122.0185	14	C7H6S+
136.0215	999	C7H6NS+
152.9824	12	C7H5S2+
166.986	60	C7H5NS2+
167.9932	12	C7H6NS2+
179.9935	914	C8H6NS2+
