Mass spectrum: Cyclophosphamide; LC-ESI-ITFT; MS2; CE: 75%; R=15000; [M+H]+
Name: Cyclophosphamide
Name: N,N-bis(2-chloroethyl)-2-oxidanylidene-1,3,2$l^{5}-oxazaphosphinan-2-amine
Formula: C7H15Cl2N2O2P
Exact mass: 260.0248
SMILES: ClCCN(CCCl)P1(=O)NCCCO1
InChI: InChI=1S/C7H15Cl2N2O2P/c8-2-5-11(6-3-9)14(12)10-4-1-7-13-14/h1-7H2,(H,10,12)
Instrument: LTQ Orbitrap XL Thermo Scientific
Instrument type: LC-ESI-ITFT
Ms type: MS2
Ion mode: POSITIVE
Ionization: ESI
Fragmentation mode: HCD
Collision energy: 75 % (nominal)
Resolution: 15000
Column name: XBridge C18 3.5um, 2.1x50mm, Waters
Retention time: 6.3 min
Base peak: 261.0328
Precursor m/z: 261.0321
Precursor type: [M+H]+
m/z	relative intensity	assigned
54.0338	2	C3H4N+
56.0495	119	C3H6N+
58.0651	59	C3H8N+
62.9996	201	C2H4Cl+
64.9787	3	H2O2P+
66.9944	4	H4O2P+
70.0651	26	C4H8N+
78.0105	54	C2H5ClN+
79.9895	5	H3NO2P+
80.0263	2	C2H7ClN+
91.9896	34	CH3NO2P+
92.0262	4	C3H7ClN+
94.0053	28	C5H2O2+
98.0003	2	CH5ClNO2+
102.0103	30	C3H5NOP+
104.0262	43	C4H7ClN+
106.0052	16	C2H5NO2P+
106.0418	185	C4H9ClN+
110.0002	35	C2H5ClNO2+
111.9715	10	C2H4Cl2N+
112.0158	30	C2H7ClNO2+
113.9872	7	C2H6Cl2N+
114.0104	3	C4H5NOP+
120.0209	210	C3H7NO2P+
123.9713	7	C2H4ClNOP+
124.0157	8	C3H7ClNO2+
127.9665	2	C2H4Cl2NO+
132.0208	2	C4H7NO2P+
138.0314	95	C4H9ClNO2+
140.0029	999	C4H8Cl2N+
141.9819	72	C2H6ClNO2P+
142.0185	267	C4H10Cl2N+
154.0184	6	C5H10Cl2N+
155.9974	2	C3H8ClNO2P+
171.009	3	C4H9Cl2N2O+
