Mass spectrum: Molinate; LC-ESI-QFT; MS2; CE: 90; R=35000; [M+H]+
Name: Molinate
Name: S-ethyl azepane-1-carbothioate
Formula: C9H17NOS
Exact mass: 187.10309
SMILES: CCSC(=O)N1CCCCCC1
InChI: InChI=1S/C9H17NOS/c1-2-12-9(11)10-7-5-3-4-6-8-10/h2-8H2,1H3
Instrument: Q Exactive Plus Orbitrap Thermo Scientific
Instrument type: LC-ESI-QFT
Ms type: MS2
Ion mode: POSITIVE
Ionization: ESI
Fragmentation mode: HCD
Collision energy: 90 (nominal)
Resolution: 35000
Column name: XBridge C18 3.5um, 2.1x50mm, Waters
Retention time: 10.5 min
Base peak: 188.11
Precursor m/z: 188.1104
Precursor type: [M+H]+
m/z	relative intensity	assigned
53.0022	4	C3HO+
53.0386	21	C4H5+
55.0542	999	C4H7+
56.013	6	C2H2NO+
56.0495	14	C3H6N+
57.0573	3	C3H7N+
57.0699	1	C4H9+
58.0287	1	C2H4NO+
58.0651	1	C3H8N+
67.0543	1	C5H7+
67.9893	1	C3O2+
68.0495	1	C4H6N+
69.0698	9	C5H9+
70.0651	48	C4H8N+
79.0542	13	C6H7+
81.0699	30	C6H9+
82.0651	2	C5H8N+
83.0491	4	C5H7O+
83.0729	3	C5H9N+
83.0855	47	C6H11+
84.0443	2	C4H6NO+
84.0808	9	C5H10N+
96.0808	3	C6H10N+
97.065	1	C6H9O+
98.0965	124	C6H12N+
99.1042	1	C6H13N+
108.0807	2	C7H10N+
126.0914	12	C7H12NO+
