Mass spectrum: Chlorpyrifos; LC-ESI-ITFT; MS2; CE: 75%; R=7500; [M+H]+
Name: Chlorpyrifos
Name: diethoxy-sulfanylidene-(3,5,6-trichloropyridin-2-yl)oxy-{5}-phosphane
Formula: C9H11Cl3NO3PS
Exact mass: 348.9263
SMILES: Clc1c(OP(=S)(OCC)OCC)nc(Cl)c(Cl)c1
InChI: InChI=1S/C9H11Cl3NO3PS/c1-3-14-17(18,15-4-2)16-9-7(11)5-6(10)8(12)13-9/h5H,3-4H2,1-2H3
Instrument: LTQ Orbitrap XL Thermo Scientific
Instrument type: LC-ESI-ITFT
Ms type: MS2
Ion mode: POSITIVE
Ionization: ESI
Fragmentation mode: HCD
Collision energy: 75 % (nominal)
Resolution: 7500
Column name: XBridge C18 3.5um, 2.1x50mm, Waters
Retention time: 16.0 min
Base peak: 349.9337
Precursor m/z: 349.9336
Precursor type: [M+H]+
m/z	relative intensity	assigned
64.9787	5	H2O2P+
78.9401	9	OPS+
80.9737	1	CH2ClO2+
96.9508	591	H2O2PS+
98.9844	5	CH4ClO3+
106.945	223	C3HCl2+
109.0048	3	C2H6O3P+
110.9666	4	C2H4ClOS+
114.9613	999	H4O3PS+
133.9559	189	C4H2Cl2N+
149.9512	2	C4H2Cl2NO+
150.917	61	C4HCl2S+
161.9511	20	C5H2Cl2NO+
177.9281	63	C5H2Cl2NS+
178.9362	5	C5H3Cl2NS+
179.9173	40	C5HCl3N+
179.9615	229	C5H4Cl2NO2+
195.9382	10	C4H4ClNO2PS+
197.9274	601	C5H3Cl3NO+
211.889	17	C5HCl3NS+
212.8966	18	C4H2Cl2NOPS+
213.9047	136	C5H3Cl3NS+
229.8996	10	C5H3Cl3NOS+
275.8609	10	C5H2Cl3NO2PS+
321.9204	18	C6H7Cl3N3O4S+
