Mass spectrum: Danofloxacin; LC-ESI-QFT; MS2; CE: 30; R=35000; [M+H]+
Name: Danofloxacin
Name: 1-cyclopropyl-6-fluoro-7-(5-methyl-2-aza-5-azoniabicyclo[2.2.1]heptan-2-yl)-4-oxoquinoline-3-carboxylate
Formula: C19H20FN3O3
Exact mass: 357.14887
SMILES: CN1C[C@@H]2C[C@H]1CN2C3=C(C=C4C(=C3)N(C=C(C4=O)C(=O)O)C5CC5)F
InChI: InChI=1S/C19H20FN3O3/c1-21-7-12-4-11(21)8-22(12)17-6-16-13(5-15(17)20)18(24)14(19(25)26)9-23(16)10-2-3-10/h5-6,9-12H,2-4,7-8H2,1H3,(H,25,26)/t11-,12-/m0/s1
Instrument: Q Exactive Plus Orbitrap Thermo Scientific
Instrument type: LC-ESI-QFT
Ms type: MS2
Ion mode: POSITIVE
Ionization: ESI
Fragmentation mode: HCD
Collision energy: 30 (nominal)
Resolution: 35000
Column name: XBridge C18 3.5um, 2.1x50mm, Waters
Retention time: 4.4 min
Base peak: 164.9843
Precursor m/z: 358.1561
Precursor type: [M+H]+
m/z	relative intensity	assigned
68.0494	1	C4H6N+
70.0651	4	C4H8N+
79.0543	1	C6H7+
81.0573	1	C5H7N+
84.0809	1	C5H10N+
94.0652	4	C6H8N+
96.0808	53	C6H10N+
219.0931	5	C12H12FN2O+
231.093	4	C13H12FN2O+
245.1087	11	C14H14FN2O+
253.1202	1	C15H15N3O+
257.1086	13	C15H14FN2O+
271.1242	12	C16H16FN2O+
283.1244	50	C17H16FN2O+
285.1401	4	C17H18FN2O+
294.1601	14	C18H20N3O+
314.1665	129	C18H21FN3O+
340.1454	46	C19H19FN3O2+
344.1411	3	C18H19FN3O3+
358.1563	999	C19H21FN3O3+
360.1594	1	C18H21FN4O3+
