Mass spectrum: Perfluoroundecanoic acid; LC-ESI-ITFT; MS2; CE: 15%; R=7500; [M-H]-
Name: Perfluoroundecanoic acid
Name: 2,2,3,3,4,4,5,5,6,6,7,7,8,8,9,9,10,10,11,11,11-heneicosafluoroundecanoic acid
Name: EINECS 218-165-4
Formula: C11HF21O2
Exact mass: 563.9641
SMILES: OC(=O)C(F)(F)C(F)(F)C(F)(F)C(F)(F)C(F)(F)C(F)(F)C(F)(F)C(F)(F)C(F)(F)C(F)(F)F
InChI: InChI=1S/C11HF21O2/c12-2(13,1(33)34)3(14,15)4(16,17)5(18,19)6(20,21)7(22,23)8(24,25)9(26,27)10(28,29)11(30,31)32/h(H,33,34)
Instrument: LTQ Orbitrap XL Thermo Scientific
Instrument type: LC-ESI-ITFT
Ms type: MS2
Ion mode: NEGATIVE
Ionization: ESI
Fragmentation mode: HCD
Collision energy: 15 % (nominal)
Resolution: 7500
Column name: XBridge C18 3.5um, 2.1x50mm, Waters
Retention time: 16.3 min
Base peak: 562.9577
Precursor m/z: 562.9568
Precursor type: [M-H]-
m/z	relative intensity	assigned
518.9647	999	C10F21-
