Mass spectrum: Propamocarb; LC-ESI-ITFT; MS2; CE: 35%; R=30000; [M+H]+
Name: Propamocarb
Name: N-[3-(dimethylamino)propyl]carbamic acid propyl ester
Formula: C9H20N2O2
Exact mass: 188.1525
SMILES: N(C(OCCC)=O)CCCN(C)C
InChI: InChI=1S/C9H20N2O2/c1-4-8-13-9(12)10-6-5-7-11(2)3/h4-8H2,1-3H3,(H,10,12)
Instrument: LTQ Orbitrap XL Thermo Scientific
Instrument type: LC-ESI-ITFT
Ms type: MS2
Ion mode: POSITIVE
Ionization: ESI
Fragmentation mode: CID
Collision energy: 35 % (nominal)
Resolution: 30000
Column name: XBridge C18 3.5um, 2.1x50mm, Waters
Retention time: 2.4 min
Base peak: 189.1599
Precursor m/z: 189.1598
Precursor type: [M+H]+
m/z	relative intensity	assigned
74.0236	6	C2H4NO2+
86.0965	1	C5H12N+
102.0549	615	C4H8NO2+
103.1231	1	C5H15N2+
129.1021	3	C6H13N2O+
144.1019	999	C7H14NO2+
147.1128	12	C6H15N2O2+
189.1604	1	C9H21N2O2+
