Mass spectrum: Lansoprazole; LC-ESI-QFT; MS2; CE: 60; R=35000; [M+H]+
Name: Lansoprazole
Name: 2-[[3-methyl-4-(2,2,2-trifluoroethoxy)pyridin-2-yl]methylsulfinyl]-1H-benzimidazole
Formula: C16H14F3N3O2S
Exact mass: 369.07588
SMILES: Cc1c(ccnc1CS(=O)c2[nH]c3ccccc3n2)OCC(F)(F)F
InChI: InChI=1S/C16H14F3N3O2S/c1-10-13(20-7-6-14(10)24-9-16(17,18)19)8-25(23)15-21-11-4-2-3-5-12(11)22-15/h2-7H,8-9H2,1H3,(H,21,22)
Instrument: Q Exactive Plus Orbitrap Thermo Scientific
Instrument type: LC-ESI-QFT
Ms type: MS2
Ion mode: POSITIVE
Ionization: ESI
Fragmentation mode: HCD
Collision energy: 60 (nominal)
Resolution: 35000
Column name: XBridge C18 3.5um, 2.1x50mm, Waters
Retention time: 7.4 min
Base peak: 370.0829
Precursor m/z: 370.0832
Precursor type: [M+H]+
m/z	relative intensity	assigned
65.0385	7	C5H5+
66.0463	3	C5H6+
79.0416	2	C5H5N+
79.0542	11	C6H7+
80.0493	4	C5H6N+
81.0573	4	C5H7N+
92.0495	15	C6H6N+
93.0573	3	C6H7N+
94.0652	3	C6H8N+
105.0447	2	C6H5N2+
106.0651	77	C7H8N+
107.0729	483	C7H9N+
108.0807	44	C7H10N+
109.0523	15	C6H7NO+
110.06	1	C6H8NO+
118.0652	5	C8H8N+
119.0604	798	C7H7N2+
120.0443	2	C7H6NO+
121.0521	5	C7H7NO+
122.0058	17	C6H4NS+
122.06	214	C7H8NO+
123.0137	7	C6H5NS+
124.0393	7	C6H6NO2+
134.0059	6	C7H4NS+
134.0472	1	C7H6N2O+
135.0679	4	C8H9NO+
136.0757	999	C8H10NO+
137.0634	10	C8H8FN+
149.0168	53	C7H5N2S+
151.0086	203	C7H5NOS+
152.0164	78	C7H6NOS+
153.0245	1	C7H7NOS+
165.0581	4	C9H8FNO+
166.0194	1	C7H6N2OS+
170.0409	5	C8H6F2NO+
183.0915	2	C12H11N2+
184.0568	3	C9H8F2NO+
185.0646	18	C9H9F2NO+
190.0474	44	C8H7F3NO+
192.063	5	C8H9F3NO+
194.0418	1	C7H7F3NO2+
204.0631	328	C9H9F3NO+
205.0709	40	C9H10F3NO+
208.058	40	C8H9F3NO2+
210.0197	8	C7H7F3NOS+
211.0867	2	C13H11N2O+
214.013	2	C9H6F2NOS+
220.058	59	C9H9F3NO2+
222.0736	26	C9H11F3NO2+
234.0195	817	C9H7F3NOS+
235.0273	246	C9H8F3NOS+
236.0818	4	C14H10N3O+
252.03	57	C9H9F3NO2S+
268.0535	2	C14H10N3OS+
293.0888	1	C15H12F3N2O+
