Mass spectrum: Bistrifluron; LC-ESI-QFT; MS2; CE: 180%; R=17500; [M+H]+
Name: Bistrifluron
Name: N-[[2-chloro-3,5-bis(trifluoromethyl)phenyl]carbamoyl]-2,6-difluorobenzamide
Formula: C16H7ClF8N2O2
Exact mass: 446.0068
SMILES: C1=CC(=C(C(=C1)F)C(=O)NC(=O)NC2=CC(=CC(=C2Cl)C(F)(F)F)C(F)(F)F)F
InChI: InChI=1S/C16H7ClF8N2O2/c17-12-7(16(23,24)25)4-6(15(20,21)22)5-10(12)26-14(29)27-13(28)11-8(18)2-1-3-9(11)19/h1-5H,(H2,26,27,28,29)
Instrument: Exploris 240 Orbitrap Thermo Scientific
Instrument type: LC-ESI-QFT
Ms type: MS2
Ion mode: POSITIVE
Ionization: ESI
Fragmentation mode: HCD
Collision energy: 180 % (nominal)
Resolution: 17500
Column name: XBridge C18 3.5um, 2.1x50mm, Waters
Retention time: 14.717 min
Base peak: 360.3621
Precursor m/z: 447.0141
Precursor type: [M+H]+
m/z	relative intensity	assigned
62.0151	128	C5H2+
63.0229	999	C5H3+
74.015	122	C6H2+
93.0134	114	C6H2F+
100.0182	71	C7H2N+
141.0261	40	C6H3F2N2+
