Mass spectrum: Heptenophos; LC-ESI-QFT; MS2; CE: 60; R=35000; [M+H]+
Name: Heptenophos
Name: (6-chloranyl-7-bicyclo[3.2.0]hepta-3,6-dienyl) dimethyl phosphate
Name: Ragadan
Formula: C9H12ClO4P
Exact mass: 250.01617
SMILES: COP(=O)(OC)OC1=C(Cl)C2C=CCC12
InChI: InChI=1S/C9H12ClO4P/c1-12-15(11,13-2)14-9-7-5-3-4-6(7)8(9)10/h3-4,6-7H,5H2,1-2H3
Instrument: Q Exactive Orbitrap Thermo Scientific
Instrument type: LC-ESI-QFT
Ms type: MS2
Ion mode: POSITIVE
Ionization: ESI
Fragmentation mode: HCD
Collision energy: 60 (nominal)
Resolution: 35000
Column name: XBridge C18 3.5um, 2.1x50mm, Waters
Retention time: 9.1 min
Base peak: 251.0238
Precursor m/z: 251.0234
Precursor type: [M+H]+
m/z	relative intensity	assigned
63.0229	8	C5H3+
65.0386	4	C5H5+
66.0465	2	C5H6+
72.9839	3	C3H2Cl+
74.9996	2	C3H4Cl+
78.9943	9	CH4O2P+
79.0542	2	C6H7+
89.0386	214	C7H5+
90.0464	41	C7H6+
91.0542	3	C7H7+
94.9891	1	CH4O3P+
95.0491	1	C6H7O+
98.9996	94	C5H4Cl+
103.0543	1	C8H7+
105.0699	1	C8H9+
112.9998	43	CH6O4P+
121.0647	2	C8H9O+
125.0153	445	C7H6Cl+
127.0154	999	C2H8O4P+
145.0262	3	C2H10O5P+
203.974	2	C7H6ClO3P+
218.9975	1	C8H9ClO3P+
