Mass spectrum: Lamotrigine; LC-ESI-ITFT; MS2; CE: 75%; R=7500; [M+H]+
Name: Lamotrigine
Name: 6-(2,3-dichlorophenyl)-1,2,4-triazine-3,5-diamine
Formula: C9H7Cl2N5
Exact mass: 255.0079
SMILES: Cl-c(ccc1)c(Cl)c1-c(nnc2N)c(n2)N
InChI: InChI=1S/C9H7Cl2N5/c10-5-3-1-2-4(6(5)11)7-8(12)14-9(13)16-15-7/h1-3H,(H4,12,13,14,16)
Instrument: LTQ Orbitrap XL Thermo Scientific
Instrument type: LC-ESI-ITFT
Ms type: MS2
Ion mode: POSITIVE
Ionization: ESI
Fragmentation mode: HCD
Collision energy: 75 % (nominal)
Resolution: 7500
Column name: XBridge C18 3.5um, 2.1x50mm, Waters
Retention time: 5.4 min
Base peak: 256.016
Precursor m/z: 256.0151
Precursor type: [M+H]+
m/z	relative intensity	assigned
58.0399	280	CH4N3+
115.0285	19	C7H3N2+
122.9996	152	C7H4Cl+
123.9945	48	C6H3ClN+
131.0605	44	C8H7N2+
132.9606	37	C5H3Cl2+
138.0106	56	C7H5ClN+
146.9768	18	C6H5Cl2+
150.0104	22	C8H5ClN+
151.0182	378	C8H6ClN+
152.0136	238	C7H5ClN2+
156.9606	448	C7H3Cl2+
158.9761	578	C7H5Cl2+
159.9712	168	C6H4Cl2N+
164.0013	42	C7H3ClN3+
165.0212	267	C8H6ClN2+
166.0292	576	C8H7ClN2+
170.9635	85	C7H3Cl2N+
171.9715	572	C7H4Cl2N+
172.9666	437	C6H3Cl2N2+
173.9871	123	C7H6Cl2N+
176.0134	19	C9H5ClN2+
178.0168	104	C8H5ClN3+
179.0243	59	C8H6ClN3+
183.9716	343	C8H4Cl2N+
185.9865	69	C8H6Cl2N+
186.9823	670	C7H5Cl2N2+
194.0356	23	C8H7ClN4+
196.9666	46	C8H3Cl2N2+
210.9823	865	C9H5Cl2N2+
211.9776	219	C8H4Cl2N3+
213.994	36	C8H6Cl2N3+
220.0386	116	C9H7ClN5+
229.0038	123	C8H7Cl2N4+
256.015	999	C9H8Cl2N5+
