Mass spectrum: Memantine; LC-ESI-QFT; MS2; CE: 45; R=35000; [M+H]+
Name: Memantine
Name: 3,5-dimethyladamantan-1-amine
Formula: C12H21N
Exact mass: 179.16740
SMILES: CC12CC3CC(C1)(CC(C3)(C2)N)C
InChI: InChI=1S/C12H21N/c1-10-3-9-4-11(2,6-10)8-12(13,5-9)7-10/h9H,3-8,13H2,1-2H3
Instrument: Q Exactive Plus Orbitrap Thermo Scientific
Instrument type: LC-ESI-QFT
Ms type: MS2
Ion mode: POSITIVE
Ionization: ESI
Fragmentation mode: HCD
Collision energy: 45 (nominal)
Resolution: 35000
Column name: XBridge C18 3.5um, 2.1x50mm, Waters
Retention time: 6.7 min
Base peak: 180.1746
Precursor m/z: 180.1747
Precursor type: [M+H]+
m/z	relative intensity	assigned
55.0542	1	C4H7+
69.0698	1	C5H9+
81.0699	4	C6H9+
83.0854	1	C6H11+
91.0539	1	C7H7+
93.0699	7	C7H9+
95.0855	3	C7H11+
107.0855	123	C8H11+
121.1013	8	C9H13+
135.1169	4	C10H15+
163.1481	999	C12H19+
180.1747	64	C12H22N+
