Mass spectrum: Triflusulfuron-methyl; LC-ESI-QFT; MS2; CE: 45; R=35000; [M+H]+
Name: Triflusulfuron-methyl
Name: 2-[[4-(dimethylamino)-6-(2,2,2-trifluoroethoxy)-s-triazin-2-yl]carbamoylsulfamoyl]-3-methyl-benzoic acid methyl ester
Formula: C17H19F3N6O6S
Exact mass: 492.10389
SMILES: O=C(OC)c1cccc(c1S(=O)(=O)NC(=O)Nc2nc(nc(OCC(F)(F)F)n2)N(C)C)C
InChI: InChI=1S/C17H19F3N6O6S/c1-9-6-5-7-10(12(27)31-4)11(9)33(29,30)25-15(28)22-13-21-14(26(2)3)24-16(23-13)32-8-17(18,19)20/h5-7H,8H2,1-4H3,(H2,21,22,23,24,25,28)
Instrument: Q Exactive Orbitrap Thermo Scientific
Instrument type: LC-ESI-QFT
Ms type: MS2
Ion mode: POSITIVE
Ionization: ESI
Fragmentation mode: HCD
Collision energy: 45 (nominal)
Resolution: 35000
Column name: XBridge C18 3.5um, 2.1x50mm, Waters
Retention time: 10.8 min
Base peak: 493.1108
Precursor m/z: 493.1112
Precursor type: [M+H]+
m/z	relative intensity	assigned
69.0083	1	C2HN2O+
71.0603	29	C3H7N2+
72.0444	1	C3H6NO+
91.0541	4	C2H6FN3+
96.0555	156	C4H6N3+
114.0661	1	C4H8N3O+
134.0599	1	C3H7FN4O+
138.0773	8	C5H8N5+
140.0454	1	FH5N6O2+
149.0596	26	C9H9O2+
151.0113	12	C4H2F3N2O+
153.063	1	C4H11NO5+
176.0628	7	CH7F3N6O+
182.0672	5	C6H8N5O2+
198.0217	2	C3H7FN4O3S+
213.0215	8	C9H9O4S+
238.0908	41	C6H14N4O6+
239.0749	14	C9H16FO4S+
244.064	13	C8H8F2N5O2+
264.0701	999	C10H15FNO4S+
