Mass spectrum: Spinetoram J; LC-ESI-QFT; MS2; CE: 30%; R=17500; [M+H]+
Name: Spinetoram J
Name: 13-{[5-(Dimethylamino)-6-methyloxan-2-yl]oxy}-9-ethyl-14-methyl-7,15-dioxo-2,3,3a,4,5,5a,5b,6,7,9,10,11,12,13,14,15,16a,16b-octadecahydro-1H-as-indaceno[3,2-d]oxacyclododecin-2-yl 6-deoxy-3-O-ethyl-2,4-di-O-methylhexopyranoside
Name: 15-[5-(dimethylamino)-6-methyloxan-2-yl]oxy-7-(4-ethoxy-3,5-dimethoxy-6-methyloxan-2-yl)oxy-19-ethyl-14-methyl-20-oxatetracyclo[10.10.0.02,10.05,9]docos-11-ene-13,21-dione
Formula: C42H69NO10
Exact mass: 747.4921
SMILES: CCC1CCCC(C(C(=O)C2=CC3C(C2CC(=O)O1)CCC4C3CC(C4)OC5C(C(C(C(O5)C)OC)OCC)OC)C)OC6CCC(C(O6)C)N(C)C
InChI: InChI=1S/C42H69NO10/c1-10-27-13-12-14-35(53-37-18-17-34(43(6)7)24(4)49-37)23(3)38(45)33-21-31-29(32(33)22-36(44)51-27)16-15-26-19-28(20-30(26)31)52-42-41(47-9)40(48-11-2)39(46-8)25(5)50-42/h21,23-32,34-35,37,39-42H,10-20,22H2,1-9H3
Instrument: Exploris 240 Orbitrap Thermo Scientific
Instrument type: LC-ESI-QFT
Ms type: MS2
Ion mode: POSITIVE
Ionization: ESI
Fragmentation mode: HCD
Collision energy: 30 % (nominal)
Resolution: 17500
Column name: XBridge C18 3.5um, 2.1x50mm, Waters
Retention time: 12.060 min
Base peak: 748.4992
Precursor m/z: 748.4994
Precursor type: [M+H]+
m/z	relative intensity	assigned
79.054	1	C6H7+
83.0852	2	C6H11+
85.0646	1	C5H9O+
95.0492	1	C6H7O+
97.0647	26	C6H9O+
98.0963	48	C6H12N+
99.044	9	C5H7O2+
99.0804	20	C6H11O+
115.0752	13	C6H11O2+
124.1121	1	C8H14N+
125.0596	5	C7H9O2+
127.075	7	C7H11O2+
129.0908	2	C7H13O2+
142.1224	999	C8H16NO+
157.0855	15	C8H13O3+
159.1014	12	C8H15O3+
160.1333	12	C8H18NO2+
203.1275	29	C10H19O4+
748.4989	18	C42H70NO10+
