Mass spectrum: Fenamidone; LC-ESI-QFT; MS2; CE: 30; R=35000; [M+H]+
Name: Fenamidone
Name: (5S)-3-anilino-5-methyl-2-(methylthio)-5-phenyl-2-imidazolin-4-one
Formula: C17H17N3OS
Exact mass: 311.10923
SMILES: O=C2N(Nc1ccccc1)C(\SC)=N/[C@]2(c3ccccc3)C
InChI: InChI=1S/C17H17N3OS/c1-17(13-9-5-3-6-10-13)15(21)20(16(18-17)22-2)19-14-11-7-4-8-12-14/h3-12,19H,1-2H3/t17-/m0/s1
Instrument: Q Exactive Orbitrap Thermo Scientific
Instrument type: LC-ESI-QFT
Ms type: MS2
Ion mode: POSITIVE
Ionization: ESI
Fragmentation mode: HCD
Collision energy: 30 (nominal)
Resolution: 35000
Column name: XBridge C18 3.5um, 2.1x50mm, Waters
Retention time: 10.3 min
Base peak: 312.1166
Precursor m/z: 312.1165
Precursor type: [M+H]+
m/z	relative intensity	assigned
65.0386	56	C5H5+
74.0058	14	C2H4NS+
77.0384	2	C6H5+
91.0324	2	C2H7N2S+
92.0494	999	C6H6N+
103.0542	204	C8H7+
105.0333	1	C7H5O+
109.076	1	C6H9N2+
120.0807	66	C8H10N+
131.0491	18	C9H7O+
133.0635	5	C7H7N3+
133.076	9	C8H9N2+
134.0712	29	C7H8N3+
138.0371	9	C7H8NS+
143.0274	10	C5H7N2OS+
146.0599	3	C9H8NO+
148.0756	3	C9H10NO+
150.0242	4	C7H6N2S+
150.0373	1	C8H8NS+
151.0574	4	C9H11S+
158.0714	3	C9H8N3+
161.0709	41	C9H9N2O+
165.0481	147	C8H9N2S+
170.0963	15	C12H12N+
191.0635	6	C10H11N2S+
193.0794	8	C10H13N2S+
194.0964	22	C14H12N+
195.0917	4	C13H11N2+
205.0432	1	C10H9N2OS+
205.0796	4	C11H13N2S+
211.1229	71	C14H15N2+
219.0585	4	C11H11N2OS+
219.0914	3	C15H11N2+
220.0997	3	C15H12N2+
221.0743	32	C11H13N2OS+
221.095	4	C14H11N3+
221.1074	19	C15H13N2+
222.0914	36	C15H12NO+
222.1144	4	C15H14N2+
224.0944	2	C14H12N2O+
236.1182	776	C15H14N3+
237.0483	1	C14H9N2S+
239.1178	33	C15H15N2O+
252.0714	4	C15H12N2S+
264.1131	41	C16H14N3O+
265.1209	5	C16H15N3O+
267.095	42	C16H15N2S+
280.0656	1	C16H12N2OS+
284.122	2	C16H18N3S+
295.0901	4	C17H15N2OS+
312.1167	12	C17H18N3OS+
