Mass spectrum: Bisoprolol; LC-ESI-QFT; MS2; CE: 75; R=35000; [M+H]+
Name: Bisoprolol
Name: 1-(propan-2-ylamino)-3-[4-(2-propan-2-yloxyethoxymethyl)phenoxy]-2-propanol
Formula: C18H31NO4
Exact mass: 325.22531
SMILES: O(c1ccc(cc1)COCCOC(C)C)CC(O)CNC(C)C
InChI: InChI=1S/C18H31NO4/c1-14(2)19-11-17(20)13-23-18-7-5-16(6-8-18)12-21-9-10-22-15(3)4/h5-8,14-15,17,19-20H,9-13H2,1-4H3
Instrument: Q Exactive Orbitrap Thermo Scientific
Instrument type: LC-ESI-QFT
Ms type: MS2
Ion mode: POSITIVE
Ionization: ESI
Fragmentation mode: HCD
Collision energy: 75 (nominal)
Resolution: 35000
Column name: XBridge C18 3.5um, 2.1x50mm, Waters
Retention time: 6.1 min
Base peak: 326.2328
Precursor m/z: 326.2326
Precursor type: [M+H]+
m/z	relative intensity	assigned
53.0023	3	C3HO+
56.0495	327	C3H6N+
58.0652	70	C3H8N+
63.023	12	C5H3+
65.0386	4	C5H5+
69.0699	3	C5H9+
72.0807	266	C4H10N+
73.0284	10	C3H5O2+
74.06	999	C3H8NO+
75.044	17	C3H7O2+
79.0542	72	C6H7+
81.0338	2	C5H5O+
81.07	3	C6H9+
84.0808	31	C5H10N+
89.0386	230	C7H5+
91.0542	244	C7H7+
93.0699	8	C7H9+
95.0491	30	C6H7O+
98.0964	92	C6H12N+
100.1121	29	C6H14N+
103.0543	14	C8H7+
105.0447	10	C6H5N2+
105.0699	124	C8H9+
107.0492	443	C7H7O+
115.0542	19	C9H7+
116.1069	243	C6H14NO+
117.0698	25	C9H9+
119.0491	93	C8H7O+
119.0855	14	C9H11+
121.0647	77	C8H9O+
129.0701	2	C10H9+
133.0648	170	C9H9O+
134.0601	4	C8H8NO+
137.0598	37	C8H9O2+
144.0806	2	C10H10N+
145.0649	65	C10H9O+
147.0805	40	C10H11O+
149.0962	2	C10H13O+
162.0913	8	C10H12NO+
163.075	4	C10H11O2+
