Mass spectrum: delta9-Tetrahydrocannabinol; LC-ESI-QFT; MS2; CE: 30; R=35000; [M+H]+
Name: delta9-Tetrahydrocannabinol
Name: delta9-THC
Name: 6,6,9-trimethyl-3-pentyl-6a,7,8,10a-tetrahydrobenzo[c]chromen-1-ol
Formula: C21H30O2
Exact mass: 314.22458
SMILES: CCCCCC1=CC2=C(C3C=C(CCC3C(O2)(C)C)C)C(=C1)O
InChI: InChI=1S/C21H30O2/c1-5-6-7-8-15-12-18(22)20-16-11-14(2)9-10-17(16)21(3,4)23-19(20)13-15/h11-13,16-17,22H,5-10H2,1-4H3
Instrument: Q Exactive Plus Orbitrap Thermo Scientific
Instrument type: LC-ESI-QFT
Ms type: MS2
Ion mode: POSITIVE
Ionization: ESI
Fragmentation mode: HCD
Collision energy: 30 (nominal)
Resolution: 35000
Column name: XBridge C18 3.5um, 2.1x50mm, Waters
Retention time: 17.8 min
Base peak: 391.2837
Precursor m/z: 315.2319
Precursor type: [M+H]+
m/z	relative intensity	assigned
55.0541	3	C4H7+
57.0699	3	C4H9+
67.0542	3	C5H7+
69.0699	21	C5H9+
71.0855	6	C5H11+
79.0542	5	C6H7+
81.0699	107	C6H9+
83.0491	2	C5H7O+
83.0856	4	C6H11+
91.0542	4	C7H7+
93.07	137	C7H9+
95.0856	7	C7H11+
97.0649	2	C6H9O+
97.1012	8	C7H13+
101.0598	1	C5H9O2+
105.0697	1	C8H9+
107.0856	45	C8H11+
109.1013	60	C8H13+
111.0441	14	C6H7O2+
111.1169	11	C8H15+
119.0855	1	C9H11+
121.0648	2	C8H9O+
121.1012	22	C9H13+
123.0441	9	C7H7O2+
123.1169	44	C9H15+
125.0961	1	C8H13O+
129.0547	1	C6H9O3+
131.0855	1	C10H11+
133.1013	1	C10H13+
135.1169	225	C10H15+
136.1249	2	C10H16+
137.0598	4	C8H9O2+
139.1118	52	C9H15O+
147.1169	1	C11H15+
149.0596	2	C9H9O2+
149.0962	7	C10H13O+
151.0754	4	C9H11O2+
157.1224	10	C9H17O2+
163.0756	2	C10H11O2+
165.0912	7	C10H13O2+
167.1068	6	C10H15O2+
171.0806	1	C12H11O+
175.0754	1	C11H11O2+
177.0915	1	C11H13O2+
177.1275	8	C12H17O+
179.1069	2	C11H15O2+
181.1224	80	C11H17O2+
185.1174	22	C10H17O3+
189.0907	3	C12H13O2+
193.1225	362	C12H17O2+
199.1485	1	C15H19+
205.1225	4	C13H17O2+
205.1589	1	C14H21O+
207.1382	54	C13H19O2+
215.1434	1	C15H19O+
217.1225	20	C14H17O2+
217.1581	2	C15H21O+
219.1382	18	C14H19O2+
221.1538	98	C14H21O2+
227.1431	9	C16H19O+
229.1593	3	C16H21O+
231.1382	44	C15H19O2+
231.1746	2	C16H23O+
233.1538	107	C15H21O2+
235.1694	111	C15H23O2+
241.159	6	C17H21O+
245.1539	20	C16H21O2+
245.1896	2	C17H25O+
247.1695	35	C16H23O2+
255.1739	2	C18H23O+
257.19	1	C18H25O+
259.1695	234	C17H23O2+
269.2266	1	C20H29+
273.1851	24	C18H25O2+
287.2374	4	C20H31O+
297.2216	26	C21H29O+
315.2321	999	C21H31O2+
