Mass spectrum: Ciprofloxacin; LC-ESI-ITFT; MS2; CE: 30%; R=15000; [M+H]+
Name: Ciprofloxacin
Name: 1-cyclopropyl-6-fluoro-4-keto-7-piperazin-4-ium-1-yl-quinoline-3-carboxylate
Formula: C17H18FN3O3
Exact mass: 331.1332
SMILES: C(C1)C1N(C=C(C-2=O)C(=O)O)-c(cc(c3F)N(CCN4)CC4)c2c3
InChI: InChI=1S/C17H18FN3O3/c18-13-7-11-14(8-15(13)20-5-3-19-4-6-20)21(10-1-2-10)9-12(16(11)22)17(23)24/h7-10,19H,1-6H2,(H,23,24)
Instrument: LTQ Orbitrap XL Thermo Scientific
Instrument type: LC-ESI-ITFT
Ms type: MS2
Ion mode: POSITIVE
Ionization: ESI
Fragmentation mode: HCD
Collision energy: 30 % (nominal)
Resolution: 15000
Column name: XBridge C18 3.5um, 2.1x50mm, Waters
Retention time: 4.5 min
Base peak: 332.1415
Precursor m/z: 332.1405
Precursor type: [M+H]+
m/z	relative intensity	assigned
203.062	1	C11H8FN2O+
204.069	2	C11H9FN2O+
205.0774	2	C11H10FN2O+
219.0924	1	C12H12FN2O+
231.0564	4	C12H8FN2O2+
231.093	8	C13H12FN2O+
240.1136	1	C14H14N3O+
245.1086	94	C14H14FN2O+
268.1445	27	C16H18N3O+
271.0879	1	C15H12FN2O2+
271.123	1	C16H16FN2O+
286.1353	8	C16H17FN3O+
288.1509	650	C16H19FN3O+
289.0981	1	C15H14FN2O3+
314.1302	802	C17H17FN3O2+
332.1406	999	C17H19FN3O3+
