Mass spectrum: N-(2,4-dimethylphenyl)formamide; LC-ESI-QFT; MS2; CE: 75; R=35000; [M+H]+
Name: N-(2,4-dimethylphenyl)formamide
Formula: C9H11NO
Exact mass: 149.08406
SMILES: CC1=C(NC([H])=O)C=CC(C)=C1
InChI: InChI=1S/C9H11NO/c1-7-3-4-9(10-6-11)8(2)5-7/h3-6H,1-2H3,(H,10,11)
Instrument: Q Exactive Plus Orbitrap Thermo Scientific
Instrument type: LC-ESI-QFT
Ms type: MS2
Ion mode: POSITIVE
Ionization: ESI
Fragmentation mode: HCD
Collision energy: 75 (nominal)
Resolution: 35000
Column name: XBridge C18 3.5um, 2.1x50mm, Waters
Retention time: 6.6 min
Base peak: 150.0913
Precursor m/z: 150.0913
Precursor type: [M+H]+
m/z	relative intensity	assigned
53.0386	5	C4H5+
55.0543	1	C4H7+
65.0386	1	C5H5+
67.0542	10	C5H7+
77.0385	15	C6H5+
79.0542	110	C6H7+
80.0494	1	C5H6N+
81.0699	1	C6H9+
90.0464	1	C7H6+
91.0543	6	C7H7+
93.0699	3	C7H9+
94.0651	2	C6H8N+
95.0492	20	C6H7O+
95.0855	26	C7H11+
103.0543	61	C8H7+
105.07	352	C8H9+
106.0652	126	C7H8N+
107.0729	999	C7H9N+
108.0569	22	C7H8O+
115.0542	2	C9H7+
117.0573	136	C8H7N+
120.0808	5	C8H10N+
121.0647	4	C8H9O+
121.0887	4	C8H11N+
122.0965	78	C8H12N+
123.0804	106	C8H11O+
130.0651	2	C9H8N+
131.073	3	C9H9N+
132.0808	72	C9H10N+
133.0761	21	C8H9N2+
135.068	3	C8H9NO+
150.0914	22	C9H12NO+
