Mass spectrum: Atenolol; LC-ESI-ITFT; MS2; CE: 75%; R=7500; [M+H]+
Name: Atenolol
Name: 2-[4-[2-hydroxy-3-(isopropylamino)propoxy]phenyl]acetamide
Formula: C14H22N2O3
Exact mass: 266.1630
SMILES: CC(C)NCC(O)COc1ccc(cc1)CC(N)=O
InChI: InChI=1S/C14H22N2O3/c1-10(2)16-8-12(17)9-19-13-5-3-11(4-6-13)7-14(15)18/h3-6,10,12,16-17H,7-9H2,1-2H3,(H2,15,18)
Instrument: LTQ Orbitrap XL Thermo Scientific
Instrument type: LC-ESI-ITFT
Ms type: MS2
Ion mode: POSITIVE
Ionization: ESI
Fragmentation mode: HCD
Collision energy: 75 % (nominal)
Resolution: 7500
Column name: XBridge C18 3.5um, 2.1x50mm, Waters
Retention time: 2.0 min
Base peak: 267.171
Precursor m/z: 267.1703
Precursor type: [M+H]+
m/z	relative intensity	assigned
56.0494	178	C3H6N+
58.0651	28	C3H8N+
72.0807	115	C4H10N+
74.06	316	C3H8NO+
77.0388	15	C6H5+
79.0542	29	C6H7+
84.0808	11	C5H10N+
89.0385	31	C7H5+
91.0541	116	C7H7+
93.0697	93	C7H9+
98.0964	63	C6H12N+
100.1119	17	C6H14N+
105.0699	52	C8H9+
106.065	67	C7H8N+
107.0491	133	C7H7O+
116.0497	23	C8H6N+
116.1068	76	C6H14NO+
117.0334	23	C8H5O+
117.0699	86	C9H9+
119.0492	112	C8H7O+
121.0648	138	C8H9O+
122.06	31	C7H8NO+
131.0491	11	C9H7O+
133.0648	458	C9H9O+
134.0601	121	C8H8NO+
136.0763	13	C8H10NO+
145.0647	999	C10H9O+
147.0439	60	C9H7O2+
152.0698	9	C6H8N4O+
155.0611	9	C10H7N2+
162.0661	97	C8H8N3O+
162.0913	22	C10H12NO+
163.0759	17	C10H11O2+
164.0709	53	C9H10NO2+
173.0589	17	C11H9O2+
178.0859	42	C10H12NO2+
190.087	28	C11H12NO2+
