Mass spectrum: ortho-Chlorophenylpiperazine; LC-ESI-QFT; MS2; CE: 180; R=35000; [M+H]+
Name: ortho-Chlorophenylpiperazine
Name: 1-(2-Chlorophenyl)piperazine
Name: 1-(2-chlorophenyl)piperazine
Formula: C10H13ClN2
Exact mass: 196.07673
SMILES: c1ccc(c(c1)N2CCNCC2)Cl
InChI: InChI=1S/C10H13ClN2/c11-9-3-1-2-4-10(9)13-7-5-12-6-8-13/h1-4,12H,5-8H2
Instrument: Q Exactive Plus Orbitrap Thermo Scientific
Instrument type: LC-ESI-QFT
Ms type: MS2
Ion mode: POSITIVE
Ionization: ESI
Fragmentation mode: HCD
Collision energy: 180 (nominal)
Resolution: 35000
Column name: XBridge C18 3.5um, 2.1x50mm, Waters
Retention time: 4.9 min
Base peak: 197.0839
Precursor m/z: 197.084
Precursor type: [M+H]+
m/z	relative intensity	assigned
50.0151	136	C4H2+
51.023	179	C4H3+
52.0182	4	C3H2N+
53.0022	15	C3HO+
53.0386	30	C4H5+
54.0338	1	C3H4N+
54.0464	3	C4H6+
55.0178	3	C3H3O+
55.0417	1	C3H5N+
56.0495	11	C3H6N+
58.0651	1	C3H8N+
62.0151	11	C5H2+
63.0229	84	C5H3+
64.0182	14	C4H2N+
64.0307	21	C5H4+
65.0386	437	C5H5+
66.0464	21	C5H6+
67.0417	3	C4H5N+
68.0496	1	C4H6N+
72.9839	69	C3H2Cl+
74.0151	87	C6H2+
75.0229	176	C6H3+
76.0306	8	C6H4+
77.0385	107	C6H5+
78.0337	6	C5H4N+
78.0464	10	C6H6+
80.0494	3	C5H6N+
81.0334	5	C5H5O+
84.9839	19	C4H2Cl+
85.076	1	C4H9N2+
89.0386	153	C7H5+
90.0339	6	C6H4N+
90.0464	80	C7H6+
91.0542	999	C7H7+
92.0495	16	C6H6N+
92.062	4	C7H8+
93.0573	21	C6H7N+
94.0413	1	C3H9ClN+
95.0491	122	C6H7O+
96.0443	6	C5H6NO+
98.9996	47	C5H4Cl+
100.0074	7	C5H5Cl+
102.0464	1	C8H6+
103.0542	1	C8H7+
104.0495	25	C7H6N+
105.0447	59	C6H5N2+
110.9996	5	C6H4Cl+
112.0075	6	C6H5Cl+
116.0494	7	C8H6N+
117.0573	159	C8H7N+
118.0651	293	C8H8N+
127.0183	14	C6H6ClN+
129.0102	4	C6H6ClO+
130.065	1	C9H8N+
139.0057	15	C6H4ClN2+
