Mass spectrum: Venlafaxine; LC-ESI-ITFT; MS2; CE: 90%; R=30000; [M+H]+
Name: Venlafaxine
Name: 1-[2-(dimethylamino)-1-(4-methoxyphenyl)ethyl]-1-cyclohexanol
Formula: C17H27NO2
Exact mass: 277.2042
SMILES: CN(C)CC(C1=CC=C(C=C1)OC)C2(CCCCC2)O
InChI: InChI=1S/C17H27NO2/c1-18(2)13-16(17(19)11-5-4-6-12-17)14-7-9-15(20-3)10-8-14/h7-10,16,19H,4-6,11-13H2,1-3H3
Instrument: LTQ Orbitrap XL Thermo Scientific
Instrument type: LC-ESI-ITFT
Ms type: MS2
Ion mode: POSITIVE
Ionization: ESI
Fragmentation mode: HCD
Collision energy: 90 % (nominal)
Resolution: 30000
Column name: XBridge C18 3.5um, 2.1x50mm, Waters
Retention time: 6.2 min
Base peak: 278.2126
Precursor m/z: 278.2115
Precursor type: [M+H]+
m/z	relative intensity	assigned
58.0652	999	C3H8N+
67.0543	4	C5H7+
69.0699	5	C5H9+
77.0386	15	C6H5+
78.0464	7	C6H6+
79.0543	54	C6H7+
81.0699	39	C6H9+
91.0543	221	C7H7+
93.07	13	C7H9+
105.0699	16	C8H9+
106.0415	4	C7H6O+
107.0491	14	C7H7O+
107.0856	5	C8H11+
115.0543	25	C9H7+
117.07	20	C9H9+
119.0605	6	C7H7N2+
119.0856	11	C9H11+
121.0649	680	C8H9O+
128.0621	9	C10H8+
129.0699	8	C10H9+
132.0571	37	C9H8O+
135.0806	21	C9H11O+
141.0698	10	C11H9+
144.0571	14	C10H8O+
145.065	9	C10H9O+
146.0726	6	C10H10O+
147.0805	77	C10H11O+
155.0606	8	C10H7N2+
158.0727	42	C11H10O+
159.0805	26	C11H11O+
162.0914	16	C10H12NO+
163.0992	9	C10H13NO+
173.096	22	C12H13O+
