Mass spectrum: Fludioxonil-TP CGA 192155; LC-ESI-QFT; MS2; CE: 120%; R=17500; [M-H]-
Name: Fludioxonil-TP CGA 192155
Name: 2,2-difluoro-1,3-benzodioxole-4-carboxylic acid
Formula: C8H4F2O4
Exact mass: 202.0078
SMILES: OC(=O)C1=CC=CC2=C1OC(F)(F)O2
InChI: InChI=1S/C8H4F2O4/c9-8(10)13-5-3-1-2-4(7(11)12)6(5)14-8/h1-3H,(H,11,12)
Instrument: Q Exactive Orbitrap Thermo Scientific
Instrument type: LC-ESI-QFT
Ms type: MS2
Ion mode: NEGATIVE
Ionization: ESI
Fragmentation mode: HCD
Collision energy: 120 % (nominal)
Resolution: 17500
Column name: XBridge C18 3.5um, 2.1x50mm, Waters
Retention time: 6.536 min
Base peak: 201.0004
Precursor m/z: 201.0005
Precursor type: [M-H]-
m/z	relative intensity	assigned
63.024	98	C5H3-
65.0033	999	C4HO-
73.0083	9	C6H-
91.019	531	C6H3O-
