Mass spectrum: Cimetidine; LC-ESI-QFT; MS2; CE: 90; R=35000; [M+H]+
Name: Cimetidine
Name: 1-cyano-2-methyl-3-[2-[(5-methyl-1H-imidazol-4-yl)methylsulfanyl]ethyl]guanidine
Formula: C10H16N6S
Exact mass: 252.11572
SMILES: CC1=C(N=CN1)CSCCNC(=NC)NC#N
InChI: InChI=1S/C10H16N6S/c1-8-9(16-7-15-8)5-17-4-3-13-10(12-2)14-6-11/h7H,3-5H2,1-2H3,(H,15,16)(H2,12,13,14)
Instrument: Q Exactive Plus Orbitrap Thermo Scientific
Instrument type: LC-ESI-QFT
Ms type: MS2
Ion mode: POSITIVE
Ionization: ESI
Fragmentation mode: HCD
Collision energy: 90 (nominal)
Resolution: 35000
Column name: XBridge C18 3.5um, 2.1x50mm, Waters
Retention time: 2.0 min
Base peak: 253.1222
Precursor m/z: 253.123
Precursor type: [M+H]+
m/z	relative intensity	assigned
52.018	1	C3H2N+
53.0022	1	C3HO+
54.0338	124	C3H4N+
55.029	3	C2H3N2+
57.0447	113	C2H5N2+
61.0106	132	C2H5S+
66.0338	1	C4H4N+
68.0243	26	C2H2N3+
68.0494	25	C4H6N+
69.0446	2	C3H5N2+
74.0058	8	C2H4NS+
76.0214	2	C2H6NS+
82.0399	140	C3H4N3+
83.0603	4	C4H7N2+
86.0058	3	C3H4NS+
95.0603	999	C5H7N2+
99.0664	78	C3H7N4+
103.0323	8	C3H7N2S+
117.048	161	C4H9N2S+
128.0275	7	C4H6N3S+
132.0588	1	C4H10N3S+
159.0697	1	C5H11N4S+
