Mass spectrum: Nortriptyline; LC-ESI-QFT; MS2; CE: 150; R=35000; [M+H]+
Name: Nortriptyline
Name: 3-(5,6-dihydrodibenzo[2,1-b:2`,1`-f][7]annulen-11-ylidene)-N-methylpropan-1-amine
Formula: C19H21N
Exact mass: 263.16740
SMILES: CNCCC=C1C2=CC=CC=C2CCC3=CC=CC=C31
InChI: InChI=1S/C19H21N/c1-20-14-6-11-19-17-9-4-2-7-15(17)12-13-16-8-3-5-10-18(16)19/h2-5,7-11,20H,6,12-14H2,1H3
Instrument: Q Exactive Plus Orbitrap Thermo Scientific
Instrument type: LC-ESI-QFT
Ms type: MS2
Ion mode: POSITIVE
Ionization: ESI
Fragmentation mode: HCD
Collision energy: 150 (nominal)
Resolution: 35000
Column name: XBridge C18 3.5um, 2.1x50mm, Waters
Retention time: 8.5 min
Base peak: 264.1741
Precursor m/z: 264.1747
Precursor type: [M+H]+
m/z	relative intensity	assigned
50.0151	55	C4H2+
51.0229	53	C4H3+
53.0022	10	C3HO+
53.0386	73	C4H5+
54.0338	9	C3H4N+
55.0178	4	C3H3O+
55.0416	9	C3H5N+
56.0495	5	C3H6N+
61.0072	1	C5H+
62.015	9	C5H2+
63.0229	63	C5H3+
65.0386	604	C5H5+
67.0542	2	C5H7+
68.0493	1	C4H6N+
70.0651	34	C4H8N+
74.0151	2	C6H2+
75.0228	19	C6H3+
76.0307	8	C6H4+
77.0385	172	C6H5+
78.0464	37	C6H6+
79.0542	85	C6H7+
81.0334	8	C5H5O+
81.0698	1	C6H9+
87.0229	6	C7H3+
88.0308	1	C7H4+
89.0385	103	C7H5+
91.0542	791	C7H7+
94.0413	4	C6H6O+
95.0491	211	C6H7O+
101.0386	4	C8H5+
102.0464	65	C8H6+
103.0542	67	C8H7+
105.0447	151	C6H5N2+
105.0698	17	C8H9+
113.0385	6	C9H5+
114.0463	5	C9H6+
115.0542	705	C9H7+
116.0619	15	C9H8+
117.0697	13	C9H9+
119.0494	4	C8H7O+
125.0386	2	C10H5+
126.0464	55	C10H6+
127.0542	61	C10H7+
128.062	435	C10H8+
129.0446	10	C8H5N2+
129.0698	9	C10H9+
139.0542	62	C11H7+
140.0622	4	C11H8+
141.0698	36	C11H9+
143.0731	1	C10H9N+
145.0648	27	C10H9O+
150.0465	18	C12H6+
151.0541	25	C12H7+
152.062	311	C12H8+
153.0699	29	C12H9+
154.0777	1	C12H10+
155.0603	67	C10H7N2+
162.0465	1	C13H6+
163.0541	49	C13H7+
164.062	53	C13H8+
165.0699	298	C13H9+
168.057	21	C12H8O+
169.0647	64	C12H9O+
174.0463	4	C14H6+
175.0537	1	C14H7+
176.062	179	C14H8+
177.0698	111	C14H9+
178.0776	207	C14H10+
179.0603	24	C12H7N2+
187.0541	21	C15H7+
188.062	34	C15H8+
189.0698	675	C15H9+
190.0776	56	C15H10+
191.0854	41	C15H11+
192.057	6	C14H8O+
193.0646	2	C14H9O+
200.0619	94	C16H8+
201.0698	117	C16H9+
202.0776	999	C16H10+
203.0856	31	C16H11+
205.0648	27	C15H9O+
213.0698	40	C17H9+
214.0774	16	C17H10+
215.0855	303	C17H11+
216.0932	7	C17H12+
217.1018	1	C17H13+
219.0804	45	C16H11O+
226.0775	2	C18H10+
229.076	11	C16H9N2+
