Mass spectrum: Mesosulfuron-methyl; LC-ESI-QFT; MS2; CE: 60; R=35000; [M-H]-
Name: Mesosulfuron-methyl
Name: 2-[(4,6-dimethoxypyrimidin-2-yl)carbamoylsulfamoyl]-4-(methanesulfonamidomethyl)benzoic acid methyl ester
Formula: C17H21N5O9S2
Exact mass: 503.07807
SMILES: O=C(Nc1nc(cc(OC)n1)OC)NS(=O)(=O)c2cc(CNS(C)(=O)=O)ccc2C(=O)OC
InChI: InChI=1S/C17H21N5O9S2/c1-29-13-8-14(30-2)20-16(19-13)21-17(24)22-33(27,28)12-7-10(9-18-32(4,25)26)5-6-11(12)15(23)31-3/h5-8,18H,9H2,1-4H3,(H2,19,20,21,22,24)
Instrument: Q Exactive Orbitrap Thermo Scientific
Instrument type: LC-ESI-QFT
Ms type: MS2
Ion mode: NEGATIVE
Ionization: ESI
Fragmentation mode: HCD
Collision energy: 60 (nominal)
Resolution: 35000
Column name: XBridge C18 3.5um, 2.1x50mm, Waters
Retention time: 8.9 min
Base peak: 502.0713
Precursor m/z: 502.0708
Precursor type: [M-H]-
m/z	relative intensity	assigned
61.9705	323	NOS-
63.9624	644	O2S-
65.0144	199	C3HN2-
65.9985	165	C3NO-
75.024	3	C6H3-
78.9859	752	CH3O2S-
82.0173	20	C3H2N2O-
90.0098	28	C4N3-
92.0505	12	C6H6N-
93.9968	97	CH4NO2S-
97.0407	22	C4H5N2O-
102.0349	23	C7H4N-
105.9604	255	CNO3S-
107.0125	131	C4HN3O-
108.0202	3	C4H2N3O-
116.0141	3	C7H2NO-
117.0219	6	C7H3NO-
118.0299	12	C7H4NO-
120.0092	2	C6H2NO2-
120.0455	4	C7H6NO-
122.036	271	C5H4N3O-
124.0516	38	C5H6N3O-
132.0455	3	C8H6NO-
139.0387	151	C5H5N3O2-
143.0253	5	C8H3N2O-
145.0407	33	C8H5N2O-
146.0248	5	C8H4NO2-
148.0404	6	C8H6NO2-
154.0622	459	C6H8N3O2-
159.0325	4	C9H5NO2-
160.0402	3	C9H6NO2-
176.0353	12	C9H6NO3-
180.984	55	C7H3NO3S-
181.9921	17	
182.0282	80	C8H8NO2S-
194.9994	69	C8H5NO3S-
201.0307	11	C10H5N2O3-
204.0301	27	C10H6NO4-
209.0026	557	C8H5N2O3S-
210.0105	51	C8H6N2O3S-
211.0182	51	C8H7N2O3S-
236.9976	11	C9H5N2O4S-
239.9973	999	C9H6NO5S-
264.9926	108	C10H5N2O5S-
267.0082	355	C10H7N2O5S-
269.0236	22	C10H9N2O5S-
288.9959	369	C9H9N2O5S2-
