Mass spectrum: Ranitidine; LC-ESI-ITFT; MS2; CE: 35%; R=7500; [M+H]+
Name: Ranitidine
Name: 1,1-Ethenediamine, N-(2-(((5-((dimethylamino)methyl)-2-furanyl)methyl)thio)ethyl)-N'-methyl-2-nitro-
Name: 1-N'-[2-[[5-(dimethylaminomethyl)furan-2-yl]methylsulfanyl]ethyl]-1-N-methyl-2-nitroethene-1,1-diamine
Formula: C13H22N4O3S
Exact mass: 314.1413
SMILES: CN\C(NCCSCC1=CC=C(CN(C)C)O1)=C/[N+]([O-])=O
InChI: InChI=1S/C13H22N4O3S/c1-14-13(9-17(18)19)15-6-7-21-10-12-5-4-11(20-12)8-16(2)3/h4-5,9,14-15H,6-8,10H2,1-3H3/b13-9+
Instrument: LTQ Orbitrap XL Thermo Scientific
Instrument type: LC-ESI-ITFT
Ms type: MS2
Ion mode: POSITIVE
Ionization: ESI
Fragmentation mode: CID
Collision energy: 35 % (nominal)
Resolution: 7500
Column name: XBridge C18 3.5um, 2.1x50mm, Waters
Retention time: 1.9 min
Base peak: 315.1494
Precursor m/z: 315.1485
Precursor type: [M+H]+
m/z	relative intensity	assigned
88.0215	28	C3H6NS+
98.0838	24	C5H10N2+
102.0371	16	C4H8NS+
110.096	9	C7H12N+
117.0479	17	C4H9N2S+
124.0756	572	C7H10NO+
125.0046	5	C4H3N3S+
130.0558	35	C5H10N2S+
138.0911	53	C8H12NO+
140.107	10	C8H14NO+
144.0767	133	C5H10N3O2+
145.0436	3	C5H9N2OS+
147.0218	8	C4H7N2O2S+
153.0361	4	C8H9OS+
160.054	4	C5H10N3OS+
164.0943	10	C9H12N2O+
165.1024	11	C9H13N2O+
170.0633	49	C8H12NOS+
176.0488	789	C5H10N3O2S+
188.0488	16	C6H10N3O2S+
191.1181	18	C11H15N2O+
193.0553	8	C10H11NOS+
195.0707	5	C10H13NOS+
196.0429	8	C9H10NO2S+
210.0874	10	C9H12N3O3+
215.121	152	C10H19N2OS+
223.0887	3	C9H13N5S+
224.0976	331	C11H16N2OS+
239.0474	3	C10H11N2O3S+
241.1003	77	C11H17N2O2S+
252.0819	4	C13H16O3S+
254.1331	4	C12H20N3OS+
270.0906	999	C11H16N3O3S+
284.1077	4	C12H18N3O3S+
