Mass spectrum: Pretilachlor; LC-ESI-QFT; MS2; CE: 75; R=35000; [M+H]+
Name: Pretilachlor
Name: 2-chloranyl-N-(2,6-diethylphenyl)-N-(2-propoxyethyl)ethanamide
Formula: C17H26ClNO2
Exact mass: 311.16521
SMILES: ClCC(=O)N(c1c(cccc1CC)CC)CCOCCC
InChI: InChI=1S/C17H26ClNO2/c1-4-11-21-12-10-19(16(20)13-18)17-14(5-2)8-7-9-15(17)6-3/h7-9H,4-6,10-13H2,1-3H3
Instrument: Q Exactive Orbitrap Thermo Scientific
Instrument type: LC-ESI-QFT
Ms type: MS2
Ion mode: POSITIVE
Ionization: ESI
Fragmentation mode: HCD
Collision energy: 75 (nominal)
Resolution: 35000
Column name: XBridge C18 3.5um, 2.1x50mm, Waters
Retention time: 14.4 min
Base peak: 312.173
Precursor m/z: 312.1725
Precursor type: [M+H]+
m/z	relative intensity	assigned
62.9998	2	C2H4Cl+
65.0386	2	C5H5+
75.9949	9	C2H3ClN+
76.9789	131	C2H2ClO+
77.0385	7	C6H5+
79.0543	80	C6H7+
90.0106	2	C3H5ClN+
91.0543	127	C7H7+
93.0699	17	C7H9+
94.0652	6	C6H8N+
95.0492	28	C6H7O+
103.0543	53	C8H7+
104.0264	1	C4H7ClN+
104.0622	1	C8H8+
105.07	526	C8H9+
106.0652	14	C7H8N+
115.0542	3	C9H7+
116.062	2	C9H8+
117.0573	68	C8H7N+
117.0699	15	C9H9+
118.0651	331	C8H8N+
119.073	53	C8H9N+
119.0856	6	C9H11+
120.0808	207	C8H10N+
121.0648	22	C8H9O+
122.0965	2	C8H12N+
128.062	1	C10H8+
129.0698	7	C10H9+
130.0653	91	C9H8N+
131.0731	60	C9H9N+
131.0856	22	C10H11+
132.0808	422	C9H10N+
133.0885	2	C9H11N+
133.1011	15	C10H13+
134.0964	36	C9H12N+
143.0731	8	C10H9N+
144.0809	87	C10H10N+
145.0888	83	C10H11N+
146.0601	8	C9H8NO+
146.0966	163	C10H12N+
147.1043	999	C10H13N+
148.1121	276	C10H14N+
149.0962	2	C10H13O+
153.0466	6	C9H10Cl+
156.081	5	C11H10N+
157.0886	8	C11H11N+
158.0966	29	C11H12N+
159.1043	12	C11H13N+
160.1122	344	C11H14N+
161.0834	1	C10H11NO+
161.1199	6	C11H15N+
162.1277	1	C11H16N+
170.0368	12	C8H9ClNO+
170.0967	3	C12H12N+
171.1043	1	C12H13N+
172.1121	25	C12H14N+
173.1201	7	C12H15N+
174.0913	15	C11H12NO+
174.1279	37	C12H16N+
175.1356	3	C12H17N+
176.1435	803	C12H18N+
178.0417	3	C10H9ClN+
180.058	2	C10H11ClN+
182.0731	7	C10H13ClN+
188.1071	83	C12H14NO+
196.0526	9	C10H11ClNO+
198.068	15	C10H13ClNO+
202.1227	26	C13H16NO+
206.0735	6	C12H13ClN+
216.1385	1	C14H18NO+
224.0839	3	C12H15ClNO+
224.1204	9	C13H19ClN+
234.1044	1	C14H17ClN+
252.1152	231	C14H19ClNO+
