Mass spectrum: Pyrazophos; LC-ESI-QFT; MS2; CE: 180%; R=17500; [M+H]+
Name: Pyrazophos
Name: ethyl 2-diethoxyphosphinothioyloxy-5-methylpyrazolo[1,5-a]pyrimidine-6-carboxylate
Formula: C14H20N3O5PS
Exact mass: 373.0861
SMILES: CCOC(=O)C1=CN2C(=CC(=N2)OP(=S)(OCC)OCC)N=C1C
InChI: InChI=1S/C14H20N3O5PS/c1-5-19-14(18)11-9-17-12(15-10(11)4)8-13(16-17)22-23(24,20-6-2)21-7-3/h8-9H,5-7H2,1-4H3
Instrument: Exploris 240 Orbitrap Thermo Scientific
Instrument type: LC-ESI-QFT
Ms type: MS2
Ion mode: POSITIVE
Ionization: ESI
Fragmentation mode: HCD
Collision energy: 180 % (nominal)
Resolution: 17500
Column name: XBridge C18 3.5um, 2.1x50mm, Waters
Retention time: 11.575 min
Base peak: 374.0932
Precursor m/z: 374.0934
Precursor type: [M+H]+
m/z	relative intensity	assigned
51.0229	195	C4H3+
52.0182	266	C3H2N+
53.0022	185	C3HO+
54.0338	187	C3H4N+
55.0178	75	C3H3O+
56.0496	74	C3H6N+
62.963	71	O2P+
64.9787	999	H2O2P+
65.0386	114	C5H5+
66.0338	633	C4H4N+
67.0179	245	C4H3O+
67.0418	121	C4H5N+
68.013	390	C3H2NO+
68.0495	84	C4H6N+
70.0289	49	C3H4NO+
76.0181	147	C5H2N+
78.034	130	C5H4N+
78.9402	430	OPS+
80.9737	111	H2O3P+
93.0446	243	C5H5N2+
94.0289	110	C5H4NO+
96.9508	292	H2O2PS+
98.9844	222	H4O4P+
114.9615	133	H4O3PS+
