Mass spectrum: Diphenyl-phthalate; LC-ESI-QFT; MS2; CE: 120; R=35000; [M+H]+
Name: Diphenyl-phthalate
Name: Diphenyl phthalate
Name: Diphenyl benzene-1,2-dicarboxylate
Formula: C20H14O4
Exact mass: 318.08921
SMILES: C1=CC=C(C=C1)OC(=O)C2=CC=CC=C2C(=O)OC3=CC=CC=C3
InChI: InChI=1S/C20H14O4/c21-19(23-15-9-3-1-4-10-15)17-13-7-8-14-18(17)20(22)24-16-11-5-2-6-12-16/h1-14H
Instrument: Q Exactive Plus Orbitrap Thermo Scientific
Instrument type: LC-ESI-QFT
Ms type: MS2
Ion mode: POSITIVE
Ionization: ESI
Fragmentation mode: HCD
Collision energy: 120 (nominal)
Resolution: 35000
Column name: XBridge C18 3.5um, 2.1x50mm, Waters
Retention time: 12.9 min
Base peak: 225.054
Precursor m/z: 319.0965
Precursor type: [M+H]+
m/z	relative intensity	assigned
50.0151	376	C4H2+
51.023	999	C4H3+
52.0307	1	C4H4+
53.0386	231	C4H5+
55.0178	12	C3H3O+
63.0229	6	C5H3+
65.0022	26	C4HO+
65.0386	20	C5H5+
66.01	5	C4H2O+
66.0463	5	C5H6+
67.0542	5	C5H7+
68.997	1	C3HO2+
74.015	2	C6H2+
75.0229	9	C6H3+
76.0307	6	C6H4+
77.0385	711	C6H5+
78.0464	1	C6H6+
81.0335	19	C5H5O+
81.0699	1	C6H9+
89.0386	11	C7H5+
91.0543	16	C7H7+
94.0413	14	C6H6O+
95.0491	648	C6H7O+
102.0465	2	C8H6+
104.0256	1	C7H4O+
105.0447	468	C6H5N2+
106.0418	4	C7H6O+
109.0647	2	C7H9O+
115.0542	274	C9H7+
121.0284	6	C7H5O2+
121.0396	2	C6H5N2O+
125.0385	2	C10H5+
126.0464	5	C10H6+
127.0542	11	C10H7+
139.0542	17	C11H7+
141.0699	26	C11H9+
145.065	1	C10H9O+
150.0464	28	C12H6+
151.0543	17	C12H7+
152.0621	180	C12H8+
155.0603	10	C10H7N2+
168.0568	2	C12H8O+
169.0648	31	C12H9O+
179.0602	12	C12H7N2+
