Mass spectrum: Bistrifluron; LC-ESI-QFT; MS2; CE: 15%; R=17500; [M-H]-
Name: Bistrifluron
Name: N-[[2-chloro-3,5-bis(trifluoromethyl)phenyl]carbamoyl]-2,6-difluorobenzamide
Formula: C16H7ClF8N2O2
Exact mass: 446.0068
SMILES: C1=CC(=C(C(=C1)F)C(=O)NC(=O)NC2=CC(=CC(=C2Cl)C(F)(F)F)C(F)(F)F)F
InChI: InChI=1S/C16H7ClF8N2O2/c17-12-7(16(23,24)25)4-6(15(20,21)22)5-10(12)26-14(29)27-13(28)11-8(18)2-1-3-9(11)19/h1-5H,(H2,26,27,28,29)
Instrument: Exploris 240 Orbitrap Thermo Scientific
Instrument type: LC-ESI-QFT
Ms type: MS2
Ion mode: NEGATIVE
Ionization: ESI
Fragmentation mode: HCD
Collision energy: 15 % (nominal)
Resolution: 17500
Column name: XBridge C18 3.5um, 2.1x50mm, Waters
Retention time: 14.727 min
Base peak: 444.9993
Precursor m/z: 444.9996
Precursor type: [M-H]-
m/z	relative intensity	assigned
156.0262	58	C7H4F2NO-
261.9865	999	C16H2ClFN-
381.9893	5	C12H5ClF8NO2-
389.0168	613	C16H4F7N2O2-
401.9935	5	C15H5ClF8NO-
