Mass spectrum: Niflumic acid; LC-ESI-QFT; MS2; CE: 150; R=35000; [M+H]+
Name: Niflumic acid
Name: 2-[3-(trifluoromethyl)anilino]pyridine-3-carboxylic acid
Formula: C13H9F3N2O2
Exact mass: 282.06161
SMILES: C1=CC(=CC(=C1)NC2=C(C=CC=N2)C(=O)O)C(F)(F)F
InChI: InChI=1S/C13H9F3N2O2/c14-13(15,16)8-3-1-4-9(7-8)18-11-10(12(19)20)5-2-6-17-11/h1-7H,(H,17,18)(H,19,20)
Instrument: Q Exactive Plus Orbitrap Thermo Scientific
Instrument type: LC-ESI-QFT
Ms type: MS2
Ion mode: POSITIVE
Ionization: ESI
Fragmentation mode: HCD
Collision energy: 150 (nominal)
Resolution: 35000
Column name: XBridge C18 3.5um, 2.1x50mm, Waters
Retention time: 12.7 min
Base peak: 283.0682
Precursor m/z: 283.0689
Precursor type: [M+H]+
m/z	relative intensity	assigned
50.0151	52	C4H2+
51.0041	27	CHF2+
51.0229	24	C4H3+
52.0182	6	C3H2N+
52.0308	6	C4H4+
53.0022	31	C3HO+
53.0386	4	C4H5+
53.9975	4	C2NO+
55.0177	1	C3H3O+
56.0495	3	C3H6N+
57.0135	57	C3H2F+
61.0072	5	C5H+
62.0151	13	C5H2+
63.0229	52	C5H3+
64.0181	4	C4H2N+
64.0307	6	C5H4+
65.0022	4	C4HO+
65.0386	22	C5H5+
66.0099	1	C4H2O+
66.0338	12	C4H4N+
66.0464	6	C5H6+
67.0416	2	C4H5N+
68.9946	107	CF3+
69.0135	19	C4H2F+
71.0291	23	C4H4F+
74.0151	210	C6H2+
75.004	256	C3HF2+
75.0229	999	C6H3+
76.0181	40	C5H2N+
76.0306	10	C6H4+
77.0021	4	C5HO+
77.0132	1	C4HN2+
77.0196	4	C3H3F2+
77.0385	15	C6H5+
78.0338	83	C5H4N+
78.9978	1	C5F+
79.0178	8	C5H3O+
79.0416	23	C5H5N+
81.0135	38	C5H2F+
82.0287	1	C4H4NO+
83.0292	7	C5H4F+
84.0369	1	C5H5F+
85.007	1	C7H+
86.0151	4	C7H2+
87.0229	26	C7H3+
88.0182	6	C6H2N+
88.0307	70	C7H4+
89.0385	72	C7H5+
90.0339	6	C6H4N+
90.0464	66	C7H6+
91.0416	7	C6H5N+
92.0257	4	C6H4O+
92.0368	2	C5H4N2+
92.0495	3	C6H6N+
92.9947	7	C3F3+
93.0135	7	C6H2F+
93.0335	6	C6H5O+
93.0447	17	C5H5N2+
94.0213	3	C6H3F+
95.0103	32	C3H2F3+
95.0291	121	C6H4F+
95.0492	15	C6H7O+
96.0444	39	C5H6NO+
98.0151	9	C8H2+
99.0041	71	C5HF2+
99.0229	34	C8H3+
100.0181	31	C7H2N+
101.0022	8	C7HO+
101.0198	8	C5H3F2+
101.0385	1	C8H5+
102.0338	14	C7H4N+
103.0291	13	C6H3N2+
104.0495	4	C7H6N+
105.0135	9	C7H2F+
105.0448	10	C6H5N2+
107.0292	16	C7H4F+
108.037	3	C7H5F+
111.0228	1	C9H3+
111.0444	1	C6H7O2+
111.0478	6	C6H6FN+
112.031	1	C9H4+
113.0388	281	C9H5+
114.0279	12	C6H4F2+
114.0338	52	C8H4N+
114.0464	108	C9H6+
115.0355	2	C6H5F2+
115.0416	37	C8H5N+
115.0543	36	C9H7+
116.0495	9	C8H6N+
117.0135	16	C8H2F+
117.0573	43	C8H7N+
118.0287	1	C7H4NO+
118.0412	19	C8H6O+
118.0525	3	C7H6N2+
119.0104	39	C5H2F3+
120.0205	5	C7H4O2+
120.0244	2	C7H3FN+
120.0371	1	C8H5F+
120.0443	5	C7H6NO+
121.0397	6	C6H5N2O+
122.0151	19	C10H2+
123.023	101	C10H3+
123.0353	272	C6H4FN2+
124.0182	74	C9H2N+
125.0197	167	C7H3F2+
126.0275	1	C7H4F2+
126.0338	3	C9H4N+
126.0465	2	C10H6+
127.0416	1	C9H5N+
128.0494	11	C9H6N+
129.0446	12	C8H5N2+
130.04	18	C7H4N3+
131.0292	4	C9H4F+
131.0491	1	C9H7O+
132.0372	6	C9H5F+
132.0441	5	C8H6NO+
132.057	40	C9H8O+
133.0448	44	C9H6F+
134.0399	5	C8H5FN+
134.0602	4	C8H8NO+
137.0198	4	C8H3F2+
138.0275	5	C8H4F2+
138.0337	7	C10H4N+
139.0417	14	C10H5N+
140.0495	608	C10H6N+
141.0259	4	C6H3F2N2+
141.0448	8	C9H5N2+
141.0573	48	C10H7N+
142.0214	1	C10H3F+
142.0288	4	C9H4NO+
142.0463	6	C7H6F2N+
142.0525	32	C9H6N2+
143.0105	7	C7H2F3+
143.0292	52	C10H4F+
144.0244	7	C9H3FN+
144.0371	9	C10H5F+
144.0443	3	C9H6NO+
145.026	116	C7H4F3+
146.0603	1	C9H8NO+
147.0105	1	C11HN+
147.0353	4	C8H4FN2+
148.0181	2	C11H2N+
148.0305	4	C12H4+
149.0199	1	C9H3F2+
150.015	2	C8H2F2N+
150.0339	27	C11H4N+
151.0289	3	C10H3N2+
151.0355	3	C9H5F2+
151.0417	6	C11H5N+
152.0495	1	C11H6N+
153.0447	4	C10H5N2+
154.0399	4	C9H4N3+
156.0442	1	C10H6NO+
157.0522	11	C10H7NO+
158.0402	18	C10H5FN+
158.06	6	C10H8NO+
159.0478	5	C10H6FN+
159.0552	9	C9H7N2O+
160.037	1	C7H5F3N+
161.0196	1	C10H3F2+
161.0394	9	C10H6FO+
162.0275	21	C10H4F2+
162.0346	4	C9H5FNO+
163.0228	3	C9H3F2N+
163.0351	7	C10H5F2+
164.0307	9	C9H4F2N+
164.043	6	C10H6F2+
165.0261	1	C8H3F2N2+
165.0447	10	C11H5N2+
166.0526	89	C11H6N2+
167.0604	60	C11H7N2+
168.0242	1	C11H3FN+
168.0445	19	C11H6NO+
168.0682	27	C11H8N2+
169.0324	15	C11H4FN+
169.0393	1	C10H5N2O+
170.0213	7	C8H3F3N+
170.0401	13	C11H5FN+
171.0359	6	C7H5F2N2O+
171.0477	6	C11H6FN+
172.0305	9	C9H3FN3+
173.0507	1	C10H6FN2+
176.0308	1	C10H4F2N+
177.0446	3	C12H5N2+
178.0398	6	C11H4N3+
179.0603	1	C12H7N2+
182.0336	13	C10H5F3+
182.0412	5	C9H6F2NO+
185.0709	3	C11H9N2O+
186.0345	1	C11H5FNO+
186.0587	8	C11H7FN2+
188.0506	9	C11H7FNO+
189.0384	22	C11H5F2N+
189.0464	1	C10H6FN2O+
190.0461	8	C11H6F2N+
191.0415	8	C10H5F2N2+
195.0552	5	C12H7N2O+
196.043	4	C12H5FN2+
197.0509	23	C12H6FN2+
198.0461	1	C11H5FN3+
206.0408	1	C11H6F2NO+
208.0369	1	C11H5F3N+
215.0417	9	C12H5F2N2+
216.0489	1	C12H6F2N2+
217.0571	11	C12H7F2N2+
235.0479	1	C12H6F3N2+
