Mass spectrum: 1H-Benzotriazole, 4(or 5)-methyl-; LC-ESI-QFT; MS2; CE: 120; R=35000; [M-H]-
Name: 1H-Benzotriazole, 4(or 5)-methyl-
Name: 4-methyl-2H-benzotriazole
Formula: C7H7N3
Exact mass: 133.06400
SMILES: n1nc2c(cccc2[nH]1)C
InChI: InChI=1S/C7H7N3/c1-5-3-2-4-6-7(5)9-10-8-6/h2-4H,1H3,(H,8,9,10)
Instrument: Q Exactive Plus Orbitrap Thermo Scientific
Instrument type: LC-ESI-QFT
Ms type: MS2
Ion mode: NEGATIVE
Ionization: ESI
Fragmentation mode: HCD
Collision energy: 120 (nominal)
Resolution: 35000
Column name: XBridge C18 3.5um, 2.1x50mm, Waters
Retention time: 5.8 min
Base peak: 132.0567
Precursor m/z: 132.0567
Precursor type: [M-H]-
m/z	relative intensity	assigned
50.0036	834	C3N-
51.024	27	C4H3-
52.0192	30	C3H2N-
63.0115	43	C4HN-
63.024	40	C5H3-
64.0193	147	C4H2N-
78.0349	24	C5H4N-
88.0193	473	C6H2N-
89.0271	296	C6H3N-
102.035	183	C7H4N-
103.0428	999	C7H5N-
104.0507	249	C7H6N-
120.0457	38	C7H6NO-
132.0568	826	C7H6N3-
