Mass spectrum: Bensulfuron-Methyl; LC-ESI-QFT; MS2; CE: 90%; R=17500; [M+H]+
Name: Bensulfuron-Methyl
Name: methyl 2-[(4,6-dimethoxypyrimidin-2-yl)carbamoylsulfamoylmethyl]benzoate
Formula: C16H18N4O7S
Exact mass: 410.0896
SMILES: COC1=CC(=NC(=N1)NC(=O)NS(=O)(=O)CC2=CC=CC=C2C(=O)OC)OC
InChI: InChI=1S/C16H18N4O7S/c1-25-12-8-13(26-2)18-15(17-12)19-16(22)20-28(23,24)9-10-6-4-5-7-11(10)14(21)27-3/h4-8H,9H2,1-3H3,(H2,17,18,19,20,22)
Instrument: Exploris 240 Orbitrap Thermo Scientific
Instrument type: LC-ESI-QFT
Ms type: MS2
Ion mode: POSITIVE
Ionization: ESI
Fragmentation mode: HCD
Collision energy: 90 % (nominal)
Resolution: 17500
Column name: XBridge C18 3.5um, 2.1x50mm, Waters
Retention time: 7.850 min
Base peak: 411.0967
Precursor m/z: 411.0969
Precursor type: [M+H]+
m/z	relative intensity	assigned
57.0448	19	C2H5N2+
65.0385	71	C5H5+
68.013	14	C3H2NO+
71.0603	16	C3H7N2+
82.0288	20	C4H4NO+
83.024	192	C3H3N2O+
91.0542	999	C7H7+
93.0085	17	C4HN2O+
100.0393	46	C4H6NO2+
106.0414	9	C7H6O+
109.0648	36	C7H9O+
116.0497	11	C8H6N+
119.0493	311	C8H7O+
119.0604	46	C7H7N2+
124.0501	10	C5H6N3O+
139.0501	88	C6H7N2O2+
141.0534	6	C5H7N3O2+
149.0598	105	C9H9O2+
156.0769	9	C6H10N3O2+
157.0611	21	C6H9N2O3+
182.0559	16	C7H8N3O3+
