Mass spectrum: N,N-Didesmethylvenlafaxine; LC-ESI-ITFT; MS2; CE: 30%; R=15000; [M+H]+
Name: N,N-Didesmethylvenlafaxine
Name: 1-[2-Amino-1-(4-methoxyphenyl)ethyl]cyclohexanol
Formula: C15H23NO2
Exact mass: 249.1729
SMILES: OC2(C(c1ccc(OC)cc1)CN)CCCCC2
InChI: InChI=1S/C15H23NO2/c1-18-13-7-5-12(6-8-13)14(11-16)15(17)9-3-2-4-10-15/h5-8,14,17H,2-4,9-11,16H2,1H3
Instrument: LTQ Orbitrap XL Thermo Scientific
Instrument type: LC-ESI-ITFT
Ms type: MS2
Ion mode: POSITIVE
Ionization: ESI
Fragmentation mode: HCD
Collision energy: 30 % (nominal)
Resolution: 15000
Column name: XBridge C18 3.5um, 2.1x50mm, Waters
Retention time: 6.3 min
Base peak: 250.1814
Precursor m/z: 250.1802
Precursor type: [M+H]+
m/z	relative intensity	assigned
79.0543	6	C6H7+
81.0699	5	C6H9+
91.0543	10	C7H7+
93.0699	8	C7H9+
107.0855	8	C8H11+
121.0649	242	C8H9O+
124.1121	10	C8H14N+
132.0569	4	C9H8O+
135.0804	6	C9H11O+
147.0805	114	C10H11O+
159.0805	28	C11H11O+
173.0962	31	C12H13O+
183.1164	6	C14H15+
201.1275	11	C14H17O+
203.1432	47	C14H19O+
215.1433	999	C15H19O+
232.1696	93	C15H22NO+
250.179	8	C15H24NO2+
