Mass spectrum: Dienogest; LC-ESI-QFT; MS2; CE: 75; R=35000; [M+H]+
Name: Dienogest
Name: 2-[(8S,13S,14S,17R)-17-hydroxy-13-methyl-3-oxo-1,2,6,7,8,11,12,14,15,16-decahydrocyclopenta[a]phenanthren-17-yl]acetonitrile
Formula: C20H25NO2
Exact mass: 311.18853
SMILES: C[C@]12CCC3=C4CCC(=O)C=C4CC[C@H]3[C@@H]1CC[C@]2(CC#N)O
InChI: InChI=1S/C20H25NO2/c1-19-8-6-16-15-5-3-14(22)12-13(15)2-4-17(16)18(19)7-9-20(19,23)10-11-21/h12,17-18,23H,2-10H2,1H3/t17-,18+,19+,20-/m1/s1
Instrument: Q Exactive Orbitrap Thermo Scientific
Instrument type: LC-ESI-QFT
Ms type: MS2
Ion mode: POSITIVE
Ionization: ESI
Fragmentation mode: HCD
Collision energy: 75 (nominal)
Resolution: 35000
Column name: XBridge C18 3.5um, 2.1x50mm, Waters
Retention time: 8.2 min
Base peak: 312.1959
Precursor m/z: 312.1958
Precursor type: [M+H]+
m/z	relative intensity	assigned
57.0337	2	C3H5O+
65.0386	21	C5H5+
67.0542	112	C5H7+
68.0494	1	C4H6N+
69.0335	12	C4H5O+
69.0698	10	C5H9+
70.0652	11	C4H8N+
77.0385	18	C6H5+
78.0464	4	C6H6+
79.0542	408	C6H7+
80.0494	8	C5H6N+
80.0621	3	C6H8+
81.0335	14	C5H5O+
81.0699	159	C6H9+
82.0652	3	C5H8N+
83.0491	119	C5H7O+
89.0385	2	C7H5+
91.0542	999	C7H7+
92.0621	20	C7H8+
93.0573	16	C6H7N+
93.0699	294	C7H9+
94.0413	3	C6H6O+
94.0651	4	C6H8N+
94.0777	7	C7H10+
95.0491	86	C6H7O+
95.0855	79	C7H11+
96.0443	2	C5H6NO+
96.0569	2	C6H8O+
97.0648	82	C6H9O+
103.0542	51	C8H7+
104.0494	7	C7H6N+
104.0621	12	C8H8+
105.0699	590	C8H9+
106.0651	10	C7H8N+
106.0779	18	C8H10+
107.0492	399	C7H7O+
107.0855	154	C8H11+
108.0569	7	C7H8O+
108.0808	38	C7H10N+
109.0648	115	C7H9O+
109.1012	9	C8H13+
110.0727	16	C7H10O+
111.0803	4	C7H11O+
115.0542	148	C9H7+
116.0494	3	C8H6N+
116.062	45	C9H8+
117.0699	453	C9H9+
118.0651	16	C8H8N+
118.0777	8	C9H10+
119.0492	29	C8H7O+
119.0855	288	C9H11+
120.057	18	C8H8O+
120.0808	25	C8H10N+
121.0648	54	C8H9O+
121.1011	11	C9H13+
122.0722	1	C8H10O+
122.0964	2	C8H12N+
123.0804	60	C8H11O+
127.0541	2	C10H7+
128.062	175	C10H8+
129.0699	221	C10H9+
130.0652	23	C9H8N+
130.0777	44	C10H10+
131.0493	34	C9H7O+
131.073	27	C9H9N+
131.0856	287	C10H11+
132.057	74	C9H8O+
132.0808	68	C9H10N+
132.0934	4	C10H12+
133.0648	387	C9H9O+
133.1012	112	C10H13+
134.0727	42	C9H10O+
134.0964	15	C9H12N+
135.0804	806	C9H11O+
137.0957	2	C9H13O+
141.0698	138	C11H9+
142.0778	41	C11H10+
143.0733	8	C10H9N+
143.0856	169	C11H11+
144.0571	50	C10H8O+
144.081	21	C10H10N+
144.0934	24	C11H12+
145.0648	78	C10H9O+
145.1013	77	C11H13+
146.0727	127	C10H10O+
146.0965	44	C10H12N+
147.0805	181	C10H11O+
148.0883	85	C10H12O+
148.1119	4	C10H14N+
149.0961	35	C10H13O+
152.062	9	C12H8+
153.0699	28	C12H9+
154.0777	25	C12H10+
155.0605	20	C10H7N2+
155.0856	96	C12H11+
156.0808	4	C11H10N+
156.0936	13	C12H12+
157.0649	75	C11H9O+
157.0886	4	C11H11N+
157.1013	53	C12H13+
158.0724	3	C11H10O+
158.0965	17	C11H12N+
158.1091	4	C12H14+
159.0805	376	C11H11O+
159.1169	25	C12H15+
160.0883	13	C11H12O+
161.0961	469	C11H13O+
162.1039	122	C11H14O+
163.1118	3	C11H15O+
164.0829	2	C10H12O2+
165.07	39	C13H9+
166.0777	20	C13H10+
167.0856	48	C13H11+
168.0812	3	C12H10N+
168.0934	19	C13H12+
169.0761	13	C11H9N2+
169.1012	78	C13H13+
170.0733	1	C12H10O+
170.0964	8	C12H12N+
170.1092	4	C13H14+
171.0803	19	C12H11O+
171.1167	30	C13H15+
172.0885	3	C12H12O+
172.112	8	C12H14N+
173.096	31	C12H13O+
174.104	26	C12H14O+
175.1119	21	C12H15O+
178.078	22	C14H10+
179.0856	30	C14H11+
180.0934	16	C14H12+
181.1011	51	C14H13+
182.0724	2	C13H10O+
182.0967	4	C13H12N+
182.1092	10	C14H14+
183.0806	10	C13H11O+
183.1169	42	C14H15+
184.0883	2	C13H12O+
184.112	9	C13H14N+
184.1248	3	C14H16+
185.0963	16	C13H13O+
185.1325	9	C14H17+
186.1046	2	C13H14O+
187.1118	11	C13H15O+
188.1195	2	C13H16O+
191.0857	11	C15H11+
192.0935	15	C15H12+
193.1012	29	C15H13+
194.0957	2	C14H12N+
194.109	7	C15H14+
195.1169	40	C15H15+
196.0878	9	C14H12O+
196.1122	4	C14H14N+
196.1248	9	C15H16+
197.0962	23	C14H13O+
197.1326	23	C15H17+
198.1039	9	C14H14O+
198.1276	2	C14H16N+
199.1122	13	C14H15O+
200.1195	4	C14H16O+
201.1269	11	C14H17O+
203.0856	7	C16H11+
204.0935	7	C16H12+
205.101	11	C16H13+
206.1089	8	C16H14+
207.0804	2	C15H11O+
207.1166	11	C16H15+
208.1121	2	C15H14N+
208.125	3	C16H16+
209.096	10	C15H13O+
209.1325	9	C16H17+
210.1042	8	C15H14O+
210.1277	2	C15H16N+
210.1399	1	C16H18+
211.1119	28	C15H15O+
211.1483	26	C16H19+
212.1195	3	C15H16O+
213.1274	20	C15H17O+
214.1351	8	C15H18O+
215.1428	2	C15H19O+
218.1085	4	C17H14+
219.1172	7	C17H15+
220.1126	3	C16H14N+
220.1241	7	C17H16+
221.132	13	C17H17+
223.1115	3	C16H15O+
223.1482	3	C17H19+
225.1275	22	C16H17O+
225.1645	3	C17H21+
226.1347	3	C16H18O+
227.1432	4	C16H19O+
233.1326	2	C18H17+
235.1115	2	C17H15O+
235.1479	4	C18H19+
236.1433	7	C17H18N+
237.1271	3	C17H17O+
237.1639	4	C18H21+
238.135	1	C17H18O+
239.1433	35	C17H19O+
243.1384	8	C16H19O2+
251.1427	2	C18H19O+
253.1587	29	C18H21O+
254.1668	25	C18H22O+
256.146	3	C17H20O2+
266.1541	2	C18H20NO+
271.1694	7	C18H23O2+
312.1959	9	C20H26NO2+
