Mass spectrum: Meclofenamic Acid; LC-ESI-QFT; MS2; CE: 60; R=35000; [M+H]+
Name: Meclofenamic Acid
Name: 2-(2,6-dichloro-3-methylanilino)benzoic acid
Formula: C14H11Cl2NO2
Exact mass: 295.01668
SMILES: CC1=C(C(=C(C=C1)Cl)NC2=CC=CC=C2C(=O)O)Cl
InChI: InChI=1S/C14H11Cl2NO2/c1-8-6-7-10(15)13(12(8)16)17-11-5-3-2-4-9(11)14(18)19/h2-7,17H,1H3,(H,18,19)
Instrument: Q Exactive Plus Orbitrap Thermo Scientific
Instrument type: LC-ESI-QFT
Ms type: MS2
Ion mode: POSITIVE
Ionization: ESI
Fragmentation mode: HCD
Collision energy: 60 (nominal)
Resolution: 35000
Column name: XBridge C18 3.5um, 2.1x50mm, Waters
Retention time: 14.0 min
Base peak: 296.0233
Precursor m/z: 296.024
Precursor type: [M+H]+
m/z	relative intensity	assigned
178.0651	8	C13H8N+
179.0729	17	C13H9N+
180.0807	32	C13H10N+
182.0602	1	C12H8NO+
206.0601	8	C14H8NO+
207.0679	25	C14H9NO+
208.0757	59	C14H10NO+
213.034	8	C13H8ClN+
214.0418	45	C13H9ClN+
215.0496	26	C13H10ClN+
216.0215	1	C12H7ClNO+
217.0289	1	C12H8ClNO+
241.0291	4	C14H8ClNO+
242.0367	168	C14H9ClNO+
243.0444	999	C14H10ClNO+
262.9899	9	C13H7Cl2NO+
277.0058	1	C14H9Cl2NO+
278.0133	71	C14H10Cl2NO+
