Mass spectrum: Uvinul-LR; LC-ESI-QFT; MS2; CE: 45%; R=17500; [M-H]-
Name: Uvinul-LR
Name: 2-ethoxyethyl 2-cyano-2-[3-(3-methoxypropylamino)cyclohex-2-en-1-ylidene]acetate
Formula: C17H26N2O4
Exact mass: 322.1893
SMILES: CCOCCOC(=O)C(=C1CCCC(=C1)NCCCOC)C#N
InChI: InChI=1S/C17H26N2O4/c1-3-22-10-11-23-17(20)16(13-18)14-6-4-7-15(12-14)19-8-5-9-21-2/h12,19H,3-11H2,1-2H3
Instrument: Exploris 240 Orbitrap Thermo Scientific
Instrument type: LC-ESI-QFT
Ms type: MS2
Ion mode: NEGATIVE
Ionization: ESI
Fragmentation mode: HCD
Collision energy: 45 % (nominal)
Resolution: 17500
Column name: XBridge C18 3.5um, 2.1x50mm, Waters
Retention time: 6.732 min
Base peak: 321.1817
Precursor m/z: 321.182
Precursor type: [M-H]-
m/z	relative intensity	assigned
65.9984	35	C3NO-
76.0192	6	C5H2N-
92.0505	14	C6H6N-
104.0385	6	C6H4N2-
116.0502	8	C8H6N-
118.0538	17	C7H6N2-
128.1079	8	C7H14NO-
132.0694	12	C8H8N2-
133.0772	55	C8H9N2-
145.077	36	C9H9N2-
146.0849	52	C9H10N2-
159.0559	24	C9H7N2O-
159.0922	5	C10H11N2-
161.0719	17	C9H9N2O-
173.1077	24	C11H13N2-
175.0516	6	C9H7N2O2-
203.1189	6	C12H15N2O-
204.1267	336	C12H16N2O-
205.1344	159	C12H17N2O-
208.0979	7	C11H14NO3-
231.1137	286	C13H15N2O2-
233.1293	17	C13H17N2O2-
249.1245	53	C13H17N2O3-
321.1818	999	C17H25N2O4-
