Mass spectrum: Nigericin; LC-ESI-QFT; MS2; CE: 75; R=35000; [M-H]-
Name: Nigericin
Name: 2-{6-[(2-{5`-[6-hydroxy-6-(hydroxymethyl)-3,5-dimethyltetrahydro-2h-pyran-2-yl]-2,3`-dimethyloctahydro-2,2`-bifuran-5-yl}-9-methoxy-2,4,10-trimethyl-1,6-dioxaspiro[4.5]dec-7-yl)methyl]-3-methyltetrahydro-2h-pyran-2-yl}propanoic acid
Name: 2-[6-[[2-[5-[5-[6-hydroxy-6-(hydroxymethyl)-3,5-dimethyloxan-2-yl]-3-methyloxolan-2-yl]-5-methyloxolan-2-yl]-7-methoxy-2,4,6-trimethyl-1,10-dioxaspiro[4.5]decan-9-yl]methyl]-3-methyloxan-2-yl]propanoic acid
Formula: C40H68O11
Exact mass: 724.47616
SMILES: CC1CCC(OC1C(C)C(=O)O)CC2CC(C(C3(O2)C(CC(O3)(C)C4CCC(O4)(C)C5C(CC(O5)C6C(CC(C(O6)(CO)O)C)C)C)C)C)OC
InChI: InChI=1S/C40H68O11/c1-21-11-12-28(46-33(21)26(6)36(42)43)17-29-18-30(45-10)27(7)40(48-29)25(5)19-38(9,51-40)32-13-14-37(8,49-32)35-23(3)16-31(47-35)34-22(2)15-24(4)39(44,20-41)50-34/h21-35,41,44H,11-20H2,1-10H3,(H,42,43)
Instrument: Q Exactive Plus Orbitrap Thermo Scientific
Instrument type: LC-ESI-QFT
Ms type: MS2
Ion mode: NEGATIVE
Ionization: ESI
Fragmentation mode: HCD
Collision energy: 75 (nominal)
Resolution: 35000
Column name: XBridge C18 3.5um, 2.1x50mm, Waters
Retention time: 19.7 min
Base peak: 115.9207
Precursor m/z: 723.4689
Precursor type: [M-H]-
m/z	relative intensity	assigned
55.0189	116	C3H3O-
57.0346	999	C3H5O-
58.006	156	C2H2O2-
59.0138	77	C2H3O2-
59.0502	9	C3H7O-
61.9883	4	NO3-
65.0396	7	C5H5-
69.0346	57	C4H5O-
71.0139	64	C3H3O2-
71.0503	212	C4H7O-
72.0218	6	C3H4O2-
73.0296	147	C3H5O2-
79.0552	6	C6H7-
80.0268	3	C5H4O-
81.0345	38	C5H5O-
83.0503	78	C5H7O-
84.0216	8	C4H4O2-
85.0295	231	C4H5O2-
85.0658	50	C5H9O-
87.0451	758	C4H7O2-
93.0347	8	C6H5O-
93.071	8	C7H9-
94.0424	6	C6H6O-
95.0502	91	C6H7O-
97.0658	117	C6H9O-
99.0451	131	C5H7O2-
99.0815	46	C6H11O-
101.0607	297	C5H9O2-
105.071	7	C8H9-
107.0502	52	C7H7O-
109.0658	144	C7H9O-
111.0452	49	C6H7O2-
111.0815	228	C7H11O-
113.061	17	C6H9O2-
113.0972	27	C7H13O-
120.0581	6	C8H8O-
121.0659	86	C8H9O-
122.0373	4	C7H6O2-
123.0816	121	C8H11O-
125.061	16	C7H9O2-
125.0972	50	C8H13O-
127.0767	8	C7H11O2-
133.0663	6	C9H9O-
133.1023	6	C10H13-
134.074	4	C9H10O-
135.0816	124	C9H11O-
136.0532	5	C8H8O2-
137.0606	31	C8H9O2-
137.0973	25	C9H13O-
139.0766	20	C8H11O2-
141.0923	19	C8H13O2-
147.0817	6	C10H11O-
149.0971	44	C10H13O-
151.0763	28	C9H11O2-
151.113	25	C10H15O-
153.0922	40	C9H13O2-
161.0967	6	C11H13O-
163.1128	9	C11H15O-
165.1285	6	C11H17O-
175.113	19	C12H15O-
177.1285	9	C12H17O-
