Mass spectrum: Chloralose; LC-ESI-QFT; MS2; CE: 75%; R=17500; [M+H]+
Name: Chloralose
Name: Glucochloralose
Name: 1-[6-hydroxy-2-(trichloromethyl)-3a,5,6,6a-tetrahydrofuro[2,3-d][1,3]dioxol-5-yl]ethane-1,2-diol
Formula: C8H11Cl3O6
Exact mass: 307.9621
SMILES: C(C(C1C(C2C(O1)OC(O2)C(Cl)(Cl)Cl)O)O)O
InChI: InChI=1S/C8H11Cl3O6/c9-8(10,11)7-16-5-3(14)4(2(13)1-12)15-6(5)17-7/h2-7,12-14H,1H2
Instrument: Exploris 240 Orbitrap Thermo Scientific
Instrument type: LC-ESI-QFT
Ms type: MS2
Ion mode: POSITIVE
Ionization: ESI
Fragmentation mode: HCD
Collision energy: 75 % (nominal)
Resolution: 17500
Column name: XBridge C18 3.5um, 2.1x50mm, Waters
Retention time: 4.863 min
Base peak: 308.9692
Precursor m/z: 308.9694
Precursor type: [M+H]+
m/z	relative intensity	assigned
53.0386	419	C4H5+
55.0178	147	C3H3O+
55.0541	28	C4H7+
57.0335	390	C3H5O+
60.9841	50	C2H2Cl+
61.0284	137	C2H5O2+
62.9998	23	C2H4Cl+
69.0335	999	C4H5O+
71.0126	119	C3H3O2+
71.0493	96	C4H7O+
73.0284	154	C3H5O2+
74.9995	84	C3H4Cl+
81.0334	755	C5H5O+
82.945	274	CHCl2+
83.0127	55	C4H3O2+
84.0206	78	C4H4O2+
85.0284	563	C4H5O2+
97.0283	242	C5H5O2+
98.9997	27	C5H4Cl+
99.044	70	C5H7O2+
101.0235	44	C4H5O3+
103.0391	20	C4H7O3+
108.9604	158	C3H3Cl2+
116.9059	41	CCl3+
124.9552	24	C3H3Cl2O+
127.0394	25	C6H7O3+
142.9216	34	C3H2Cl3+
