Mass spectrum: Cimaterol; LC-ESI-QFT; MS2; CE: 150; R=35000; [M+H]+
Name: Cimaterol
Name: 2-amino-5-[1-hydroxy-2-(propan-2-ylamino)ethyl]benzonitrile
Formula: C12H17N3O
Exact mass: 219.13716
SMILES: CC(C)NCC(C1=CC(=C(C=C1)N)C#N)O
InChI: InChI=1S/C12H17N3O/c1-8(2)15-7-12(16)9-3-4-11(14)10(5-9)6-13/h3-5,8,12,15-16H,7,14H2,1-2H3
Instrument: Q Exactive Plus Orbitrap Thermo Scientific
Instrument type: LC-ESI-QFT
Ms type: MS2
Ion mode: POSITIVE
Ionization: ESI
Fragmentation mode: HCD
Collision energy: 150 (nominal)
Resolution: 35000
Column name: XBridge C18 3.5um, 2.1x50mm, Waters
Retention time: 1.5 min
Base peak: 220.1439
Precursor m/z: 220.1444
Precursor type: [M+H]+
m/z	relative intensity	assigned
50.0151	9	C4H2+
51.0229	23	C4H3+
52.0182	5	C3H2N+
53.0022	10	C3HO+
53.0386	26	C4H5+
54.0338	2	C3H4N+
61.0072	2	C5H+
62.0151	16	C5H2+
63.0229	251	C5H3+
64.0182	12	C4H2N+
64.0307	13	C5H4+
65.026	6	C4H3N+
65.0386	56	C5H5+
66.0337	3	C4H4N+
66.0464	5	C5H6+
67.0417	7	C4H5N+
67.9893	2	C3O2+
74.0151	1	C6H2+
75.0229	15	C6H3+
76.0181	4	C5H2N+
76.0307	2	C6H4+
77.0385	57	C6H5+
78.0338	15	C5H4N+
78.0464	6	C6H6+
79.0416	2	C5H5N+
79.0542	17	C6H7+
80.0494	9	C5H6N+
81.0334	6	C5H5O+
87.0228	1	C7H3+
88.0181	5	C6H2N+
88.0307	20	C7H4+
89.0385	999	C7H5+
90.0338	65	C6H4N+
90.0464	16	C7H6+
91.0416	97	C6H5N+
91.0542	8	C7H7+
92.0369	1	C5H4N2+
92.0494	7	C6H6N+
93.0573	5	C6H7N+
95.0491	67	C6H7O+
96.0443	15	C5H6NO+
99.0229	4	C8H3+
100.0181	8	C7H2N+
102.0338	3	C7H4N+
103.0417	3	C7H5N+
104.0494	124	C7H6N+
105.0447	62	C6H5N2+
105.0574	7	C7H7N+
106.0651	16	C7H8N+
108.0444	2	C6H6NO+
114.0338	38	C8H4N+
115.0416	78	C8H5N+
116.0495	236	C8H6N+
117.0447	9	C7H5N2+
117.0572	15	C8H7N+
118.0525	62	C7H6N2+
119.0604	3	C7H7N2+
126.0337	3	C9H4N+
129.0447	3	C8H5N2+
130.0399	6	C7H4N3+
131.0604	103	C8H7N2+
132.0683	9	C8H8N2+
133.0521	5	C8H7NO+
134.06	21	C8H8NO+
141.0445	1	C9H5N2+
142.0526	77	C9H6N2+
143.0603	10	C9H7N2+
144.0558	8	C8H6N3+
157.0634	1	C9H7N3+
158.0712	1	C9H8N3+
