Mass spectrum: Bromochlorophen; LC-ESI-QFT; MS2; CE: 45; R=35000; [M-H]-
Name: Bromochlorophen
Name: 2-bromo-6-[(3-bromo-5-chloro-2-hydroxyphenyl)methyl]-4-chlorophenol
Formula: C13H8Br2Cl2O2
Exact mass: 423.82681
SMILES: Brc1cc(Cl)cc(c1O)Cc2cc(Cl)cc(Br)c2O
InChI: InChI=1S/C13H8Br2Cl2O2/c14-10-4-8(16)2-6(12(10)18)1-7-3-9(17)5-11(15)13(7)19/h2-5,18-19H,1H2
Instrument: Q Exactive Orbitrap Thermo Scientific
Instrument type: LC-ESI-QFT
Ms type: MS2
Ion mode: NEGATIVE
Ionization: ESI
Fragmentation mode: HCD
Collision energy: 45 (nominal)
Resolution: 35000
Column name: XBridge C18 3.5um, 2.1x50mm, Waters
Retention time: 16.5 min
Base peak: 424.8176
Precursor m/z: 422.8195
Precursor type: [M-H]-
m/z	relative intensity	assigned
78.9189	434	Br-
124.9799	3	C6H2ClO-
204.9061	999	C6H3BrClO-
342.8929	8	C13H6BrCl2O2-
386.8431	2	C13H6Br2ClO2-
422.8198	1	C13H7Br2Cl2O2-
