Mass spectrum: Amidosulfuron; LC-ESI-QFT; MS2; CE: 60; R=35000; [M+H]+
Name: Amidosulfuron
Name: 1-(4,6-dimethoxy-2-pyrimidinyl)-3-[methyl(methylsulfonyl)sulfamoyl]urea
Formula: C9H15N5O7S2
Exact mass: 369.04129
SMILES: O=C(Nc1nc(OC)cc(OC)n1)NS(=O)(=O)N(C)S(=O)(=O)C
InChI: InChI=1S/C9H15N5O7S2/c1-14(22(4,16)17)23(18,19)13-9(15)12-8-10-6(20-2)5-7(11-8)21-3/h5H,1-4H3,(H2,10,11,12,13,15)
Instrument: Q Exactive Orbitrap Thermo Scientific
Instrument type: LC-ESI-QFT
Ms type: MS2
Ion mode: POSITIVE
Ionization: ESI
Fragmentation mode: HCD
Collision energy: 60 (nominal)
Resolution: 35000
Column name: XBridge C18 3.5um, 2.1x50mm, Waters
Retention time: 8.4 min
Base peak: 370.0493
Precursor m/z: 370.0486
Precursor type: [M+H]+
m/z	relative intensity	assigned
57.045	6	C2H5N2+
58.029	4	C2H4NO+
67.0292	5	C3H3N2+
68.0132	4	C3H2NO+
69.0085	263	C2HN2O+
69.9925	1	C2NO2+
70.0289	5	C3H4NO+
71.0241	1	C2H3N2O+
71.0605	15	C3H7N2+
72.0445	7	C3H6NO+
81.0084	1	C3HN2O+
81.0448	1	C4H5N2+
82.0289	6	C4H4NO+
82.0401	11	C3H4N3+
83.0241	109	C3H3N2O+
84.0319	43	C3H4N2O+
84.0446	7	C4H6NO+
85.0398	1	C3H5N2O+
86.0238	10	C3H4NO2+
87.019	1	C2H3N2O2+
93.0084	3	C4HN2O+
94.0401	8	C4H4N3+
97.0398	140	C4H5N2O+
99.0555	4	C4H7N2O+
100.0395	32	C4H6NO2+
109.0273	19	C4H3N3O+
109.0397	3	C5H5N2O+
111.0429	87	C4H5N3O+
112.0393	5	C5H6NO2+
118.991	8	C2H3N2O2S+
122.0353	1	C5H4N3O+
124.0142	10	C4H2N3O2+
124.0507	179	C5H6N3O+
125.0347	5	C5H5N2O2+
126.0664	28	C5H8N3O+
127.0504	219	C5H7N2O2+
138.03	8	C5H4N3O2+
139.0378	999	C5H5N3O2+
139.0494	62	C4H5N5O+
140.0454	3	C5H6N3O2+
141.0658	3	C6H9N2O2+
142.0613	56	C5H8N3O2+
154.0613	248	C6H8N3O2+
155.069	4	C6H9N3O2+
156.0771	6	C6H10N3O2+
157.061	107	C6H9N2O3+
161.9856	1	C4H4NO4S+
181.0723	52	C7H9N4O2+
182.0563	124	C7H8N3O3+
218.0233	67	C6H8N3O4S+
236.034	220	C6H10N3O5S+
