Mass spectrum: Metamitron-desamino; LC-ESI-ITFT; MS2; CE: 90%; R=30000; [M+H]+
Name: Metamitron-desamino
Name: 3-Methyl-6-phenyl-1,2,4-triazin-5-ol
Formula: C10H9N3O
Exact mass: 187.0746
SMILES: c(ccc1C(=NN=C2C)C(=O)N2)cc1
InChI: InChI=1S/C10H9N3O/c1-7-11-10(14)9(13-12-7)8-5-3-2-4-6-8/h2-6H,1H3,(H,11,12,14)
Instrument: LTQ Orbitrap XL Thermo Scientific
Instrument type: LC-ESI-ITFT
Ms type: MS2
Ion mode: POSITIVE
Ionization: ESI
Fragmentation mode: HCD
Collision energy: 90 % (nominal)
Resolution: 30000
Column name: XBridge C18 3.5um, 2.1x50mm, Waters
Retention time: 5.1 min
Base peak: 188.0824
Precursor m/z: 188.0818
Precursor type: [M+H]+
m/z	relative intensity	assigned
53.0385	50	C4H5+
57.0447	93	C2H5N2+
65.0386	96	C5H5+
77.0387	847	C6H5+
81.0335	12	C5H5O+
85.0395	7	C3H5N2O+
91.0542	106	C7H7+
92.0495	342	C6H6N+
95.0492	109	C6H7O+
103.0416	15	C7H5N+
104.0495	999	C7H6N+
105.0447	212	C6H5N2+
105.07	12	C8H9+
110.0601	7	C6H8NO+
119.0604	631	C7H7N2+
130.0401	7	C7H4N3+
130.0651	47	C9H8N+
131.0729	24	C9H9N+
142.0653	9	C10H8N+
160.087	891	C9H10N3+
188.0823	29	C10H10N3O+
