Mass spectrum: Clobazam; LC-ESI-QFT; MS2; CE: 30; R=35000; [M+H]+
Name: Clobazam
Name: 7-chloro-1-methyl-5-phenyl-1,5-benzodiazepine-2,4-dione
Formula: C16H13ClN2O2
Exact mass: 300.06656
SMILES: CN1C(=O)CC(=O)N(C2=C1C=CC(=C2)Cl)C3=CC=CC=C3
InChI: InChI=1S/C16H13ClN2O2/c1-18-13-8-7-11(17)9-14(13)19(16(21)10-15(18)20)12-5-3-2-4-6-12/h2-9H,10H2,1H3
Instrument: Q Exactive Plus Orbitrap Thermo Scientific
Instrument type: LC-ESI-QFT
Ms type: MS2
Ion mode: POSITIVE
Ionization: ESI
Fragmentation mode: HCD
Collision energy: 30 (nominal)
Resolution: 35000
Column name: XBridge C18 3.5um, 2.1x50mm, Waters
Retention time: 8.4 min
Base peak: 301.073
Precursor m/z: 301.0738
Precursor type: [M+H]+
m/z	relative intensity	assigned
77.0383	1	C6H5+
224.0939	2	C14H12N2O+
233.0839	6	C13H14ClN2+
244.0392	1	C16H6NO2+
259.063	999	C14H12ClN2O+
301.0736	319	C16H14ClN2O2+
