Mass spectrum: Fenamiphos; LC-ESI-QFT; MS2; CE: 150%; R=17500; [M+H]+
Name: Fenamiphos
Name: N-[ethoxy-(3-methyl-4-methylsulfanylphenoxy)phosphoryl]propan-2-amine
Formula: C13H22NO3PS
Exact mass: 303.1058
SMILES: CCOP(=O)(NC(C)C)OC1=CC(=C(C=C1)SC)C
InChI: InChI=1S/C13H22NO3PS/c1-6-16-18(15,14-10(2)3)17-12-7-8-13(19-5)11(4)9-12/h7-10H,6H2,1-5H3,(H,14,15)
Instrument: Exploris 240 Orbitrap Thermo Scientific
Instrument type: LC-ESI-QFT
Ms type: MS2
Ion mode: POSITIVE
Ionization: ESI
Fragmentation mode: HCD
Collision energy: 150 % (nominal)
Resolution: 17500
Column name: XBridge C18 3.5um, 2.1x50mm, Waters
Retention time: 10.489 min
Base peak: 304.1128
Precursor m/z: 304.1131
Precursor type: [M+H]+
m/z	relative intensity	assigned
51.0228	274	C4H3+
53.0386	375	C4H5+
58.9951	208	C2H3S+
62.9453	86	PS+
65.0385	626	C5H5+
66.0464	941	C5H6+
68.9794	65	C3HS+
70.9949	48	C3H3S+
77.0385	967	C6H5+
78.0464	999	C6H6+
79.0541	393	C6H7+
79.9894	72	C4O2+
84.0024	183	C4H4S+
89.0384	94	C7H5+
91.0542	587	C7H7+
94.0411	54	C6H6O+
95.0492	254	C6H7O+
97.0107	342	C5H5S+
98.0003	60	H5NO3P+
103.0542	132	C8H7+
107.0492	574	C7H7O+
109.0105	390	C6H5S+
110.0184	641	C6H6S+
111.0263	87	C6H7S+
121.0106	818	C7H5S+
122.0185	80	C7H6S+
137.0057	137	C7H5OS+
138.0132	65	C7H6OS+
