Mass spectrum: Ciprofloxacin; LC-ESI-ITFT; MS2; CE: 75%; R=7500; [M+H]+
Name: Ciprofloxacin
Name: 1-cyclopropyl-6-fluoro-4-keto-7-piperazin-4-ium-1-yl-quinoline-3-carboxylate
Formula: C17H18FN3O3
Exact mass: 331.1332
SMILES: C(C1)C1N(C=C(C-2=O)C(=O)O)-c(cc(c3F)N(CCN4)CC4)c2c3
InChI: InChI=1S/C17H18FN3O3/c18-13-7-11-14(8-15(13)20-5-3-19-4-6-20)21(10-1-2-10)9-12(16(11)22)17(23)24/h7-10,19H,1-6H2,(H,23,24)
Instrument: LTQ Orbitrap XL Thermo Scientific
Instrument type: LC-ESI-ITFT
Ms type: MS2
Ion mode: POSITIVE
Ionization: ESI
Fragmentation mode: HCD
Collision energy: 75 % (nominal)
Resolution: 7500
Column name: XBridge C18 3.5um, 2.1x50mm, Waters
Retention time: 4.5 min
Base peak: 332.1415
Precursor m/z: 332.1405
Precursor type: [M+H]+
m/z	relative intensity	assigned
56.0494	1	C3H6N+
70.0653	5	C4H8N+
109.0452	3	C7H6F+
115.0545	1	C9H7+
116.0496	7	C8H6N+
117.0569	1	C8H7N+
128.0491	1	C9H6N+
128.0624	1	C10H8+
129.0705	1	C10H9+
130.0651	2	C9H8N+
131.0607	2	C8H7N2+
134.0401	2	C8H5FN+
134.0607	1	C8H8NO+
135.048	12	C8H6FN+
136.0558	14	C8H7FN+
141.0569	1	C10H7N+
142.0648	3	C10H8N+
143.0604	1	C9H7N2+
148.0558	14	C9H7FN+
149.0513	1	C8H6FN2+
150.0714	2	C9H9FN+
154.0652	5	C11H8N+
155.0607	4	C10H7N2+
155.0737	2	C11H9N+
156.0683	7	C10H8N2+
156.0811	3	C11H10N+
160.0564	1	C10H7FN+
161.0514	3	C9H6FN2+
162.0351	4	C9H5FNO+
162.0584	1	C9H7FN2+
162.0708	3	C10H9FN+
163.0431	2	C9H6FNO+
163.0669	7	C9H8FN2+
164.0509	1	C9H7FNO+
167.0609	1	C11H7N2+
168.0682	1	C11H8N2+
169.0761	8	C11H9N2+
171.0552	1	C10H7N2O+
172.0558	4	C11H7FN+
173.0642	2	C11H8FN+
174.0586	6	C10H7FN2+
174.0717	10	C11H9FN+
175.0667	11	C10H8FN2+
175.0789	4	C11H10FN+
176.0509	5	C10H7FNO+
176.0745	29	C10H9FN2+
177.0456	1	C9H6FN2O+
177.0573	2	C13H7N+
177.0828	1	C10H10FN2+
178.054	6	C9H7FN2O+
179.0616	2	C9H8FN2O+
180.0457	1	C9H7FNO2+
182.0838	7	C12H10N2+
183.0687	2	C12H9NO+
183.0918	3	C12H11N2+
184.0637	7	C11H8N2O+
185.0707	4	C11H9N2O+
186.0718	1	C12H9FN+
187.0668	10	C11H8FN2+
188.0501	5	C11H7FNO+
188.0749	3	C11H9FN2+
189.046	54	C10H6FN2O+
189.0826	13	C11H10FN2+
190.0536	5	C10H7FN2O+
190.0907	1	C11H11FN2+
191.0616	24	C10H8FN2O+
195.0916	2	C13H11N2+
197.0711	3	C12H9N2O+
197.107	1	C13H13N2+
200.0509	1	C12H7FNO+
201.0578	3	C12H8FNO+
201.0825	9	C12H10FN2+
202.0303	1	C11H5FNO2+
202.0653	12	C12H9FNO+
202.0899	5	C12H11FN2+
203.0618	109	C11H8FN2O+
204.0696	38	C11H9FN2O+
205.0773	50	C11H10FN2O+
210.0809	1	C10H11FN2O2+
210.1033	1	C10H13FN3O+
215.026	4	C11H4FN2O2+
215.0617	9	C12H8FN2O+
215.0983	7	C13H12FN2+
216.0323	2	C11H5FN2O2+
216.0704	4	C12H9FN2O+
216.1062	3	C13H13FN2+
217.0407	4	C11H6FN2O2+
217.0781	12	C12H10FN2O+
217.1133	3	C13H14FN2+
218.0484	9	C11H7FN2O2+
218.086	3	C12H11FN2O+
219.0925	2	C12H12FN2O+
223.0873	1	C14H11N2O+
224.0461	4	C9H7FN3O3+
224.0822	2	C13H10N3O+
225.0556	3	C14H9O3+
225.1013	4	C14H13N2O+
226.0979	2	C13H12N3O+
227.0985	2	C14H12FN2+
229.0396	1	C15H5N2O+
229.0771	16	C13H10FN2O+
231.0567	999	C12H8FN2O2+
235.0639	3	C12H10FNO3+
238.0973	4	C14H12N3O+
238.1337	1	C15H16N3+
240.1124	1	C14H14N3O+
243.0564	4	C13H8FN2O2+
243.0927	4	C14H12FN2O+
245.1087	27	C14H14FN2O+
249.0668	10	C12H10FN2O3+
253.0834	1	C14H11N3O2+
257.072	2	C14H10FN2O2+
260.1196	1	C14H15FN3O+
266.0926	4	C15H12N3O2+
266.1281	2	C16H16N3O+
272.0835	1	C14H11FN3O2+
272.1194	2	C15H15FN3O+
273.0931	1	C16H14FO3+
274.0973	1	C14H13FN3O2+
288.1623	3	C15H19FN5+
294.1243	6	C17H16N3O2+
332.1403	7	C17H19FN3O3+
