Mass spectrum: Terbuthylazine-TP CSCD692760 (LM3); LC-ESI-QFT; MS2; CE: 60%; R=17500; [M+H]+
Name: Terbuthylazine-TP CSCD692760 (LM3)
Name: 6-Hydroxy-7,7-dimethyl-7,8-dihydroimidazo[1,2-a][1,3,5]triazine-2,4(3H,6H)-dione
Formula: C7H10N4O3
Exact mass: 198.0753
SMILES: CC1(C)NC2=NC(O)=NC(=O)N2C1O
InChI: InChI=1S/C7H10N4O3/c1-7(2)3(12)11-4(10-7)8-5(13)9-6(11)14/h3,12H,1-2H3,(H2,8,9,10,13,14)
Instrument: Q Exactive Plus Orbitrap Thermo Scientific
Instrument type: LC-ESI-QFT
Ms type: MS2
Ion mode: POSITIVE
Ionization: ESI
Fragmentation mode: HCD
Collision energy: 60 % (nominal)
Resolution: 17500
Column name: XBridge C18 3.5um, 2.1x50mm, Waters
Retention time: 1.307 min
Base peak: 199.0826
Precursor m/z: 199.0826
Precursor type: [M+H]+
m/z	relative intensity	assigned
53.0022	5	C3HO+
53.0386	78	C4H5+
68.0495	6	C4H6N+
69.0083	24	C2HN2O+
69.9924	14	C2NO2+
70.0651	239	C4H8N+
71.0491	154	C4H7O+
72.0444	7	C3H6NO+
86.0349	404	C2H4N3O+
86.0599	8	
87.0189	319	C2H3N2O2+
88.0757	14	C4H10NO+
95.0603	22	C5H7N2+
96.0443	66	C5H6NO+
110.0713	176	C5H8N3+
111.0553	4	C5H7N2O+
112.0867	5	C5H10N3+
113.0587	5	
113.0709	117	C5H9N2O+
114.0662	398	C4H8N3O+
129.0407	999	C3H5N4O2+
138.0662	738	C6H8N3O+
139.0502	237	C6H7N2O2+
140.0453	10	C5H6N3O2+
156.0768	130	C6H10N3O2+
181.072	280	C7H9N4O2+
199.0824	191	C7H11N4O3+
