Mass spectrum: Metalaxyl-M-TP CGA108906; LC-ESI-QFT; MS2; CE: 90%; R=17500; [M+H]+
Name: Metalaxyl-M-TP CGA108906
Name: 2-[1-carboxyethyl-(2-methoxyacetyl)amino]-3-methylbenzoic acid
Formula: C14H17NO6
Exact mass: 295.1056
SMILES: COCC(=O)N(C(C)C(O)=O)C1=C(C=CC=C1C)C(O)=O
InChI: InChI=1S/C14H17NO6/c1-8-5-4-6-10(14(19)20)12(8)15(9(2)13(17)18)11(16)7-21-3/h4-6,9H,7H2,1-3H3,(H,17,18)(H,19,20)
Instrument: Q Exactive Plus Orbitrap Thermo Scientific
Instrument type: LC-ESI-QFT
Ms type: MS2
Ion mode: POSITIVE
Ionization: ESI
Fragmentation mode: HCD
Collision energy: 90 % (nominal)
Resolution: 17500
Column name: XBridge C18 3.5um, 2.1x50mm, Waters
Retention time: 5.723 min
Base peak: 296.1129
Precursor m/z: 296.1129
Precursor type: [M+H]+
m/z	relative intensity	assigned
55.0178	6	C3H3O+
63.0228	3	C5H3+
65.0386	117	C5H5+
79.0542	9	C6H7+
89.0385	6	C7H5+
90.0467	13	C7H6+
91.0542	999	C7H7+
95.0491	6	C6H7O+
103.0542	15	C8H7+
104.0494	3	C7H6N+
105.0699	33	C8H9+
106.0653	9	C7H8N+
109.0646	9	C7H9O+
115.0543	50	C9H7+
116.0493	15	C8H6N+
117.0573	273	C8H7N+
118.0651	79	C8H8N+
119.0492	83	C8H7O+
119.06	9	
120.0808	4	C8H10N+
130.0652	31	C9H8N+
131.0728	18	C9H9N+
132.0441	3	
132.0808	103	C9H10N+
134.0599	9	C8H8NO+
142.0652	48	C10H8N+
143.0729	3	C10H9N+
144.0446	5	C9H6NO+
144.081	44	C10H10N+
145.0521	28	C9H7NO+
146.0599	33	C9H8NO+
158.0601	31	C10H8NO+
159.0676	27	C10H9NO+
160.0757	526	C10H10NO+
162.0554	6	C9H8NO2+
