Mass spectrum: Malaoxon; LC-ESI-QFT; MS2; CE: 120; R=35000; [M+H]+
Name: Malaoxon
Name: Diethyl 2-dimethoxyphosphorylsulfanylbutanedioate
Formula: C10H19O7PS
Exact mass: 314.05891
SMILES: CCOC(=O)CC(C(=O)OCC)SP(=O)(OC)OC
InChI: InChI=1S/C10H19O7PS/c1-5-16-9(11)7-8(10(12)17-6-2)19-18(13,14-3)15-4/h8H,5-7H2,1-4H3
Instrument: Q Exactive Plus Orbitrap Thermo Scientific
Instrument type: LC-ESI-QFT
Ms type: MS2
Ion mode: POSITIVE
Ionization: ESI
Fragmentation mode: HCD
Collision energy: 120 (nominal)
Resolution: 35000
Column name: XBridge C18 3.5um, 2.1x50mm, Waters
Retention time: 7.1 min
Base peak: 315.0654
Precursor m/z: 315.0662
Precursor type: [M+H]+
m/z	relative intensity	assigned
53.0022	256	C3HO+
55.0179	32	C3H3O+
57.9872	2	C2H2S+
58.995	10	C2H3S+
59.9664	5	COS+
62.0185	13	C2H6S+
62.9994	2	CH4OP+
64.9787	22	H2O2P+
68.9793	10	C3HS+
71.0127	999	C3H3O2+
73.0284	1	C3H5O2+
74.9899	1	C2H3OS+
78.9943	183	CH4O2P+
84.9742	4	C3HOS+
93.0101	12	C2H6O2P+
97.005	7	CH6O3P+
99.0077	586	C4H3O3+
102.9848	7	C3H3O2S+
110.9665	9	CH4O2PS+
113.0231	8	C5H5O3+
117.0183	5	C4H5O4+
124.9821	11	C2H6O2PS+
127.0155	62	C2H8O4P+
128.977	67	CH6O3PS+
142.9928	27	C2H8O3PS+
