Mass spectrum: Ceftazidime; LC-ESI-QFT; MS2; CE: 75; R=35000; [M-H]-
Name: Ceftazidime
Name: (6R,7R)-7-[[(2Z)-2-(2-amino-1,3-thiazol-4-yl)-2-(2-carboxypropan-2-yloxyimino)acetyl]amino]-8-oxo-3-(pyridin-1-ium-1-ylmethyl)-5-thia-1-azabicyclo[4.2.0]oct-2-ene-2-carboxylate
Formula: C22H22N6O7S2
Exact mass: 546.09914
SMILES: O=C2N1/C(=C(\CS[C@@H]1[C@@H]2NC(=O)C(=N\OC(C(=O)O)(C)C)/c3nc(sc3)N)C[n+]4ccccc4)C([O-])=O
InChI: InChI=1S/C22H22N6O7S2/c1-22(2,20(33)34)35-26-13(12-10-37-21(23)24-12)16(29)25-14-17(30)28-15(19(31)32)11(9-36-18(14)28)8-27-6-4-3-5-7-27/h3-7,10,14,18H,8-9H2,1-2H3,(H4-,23,24,25,29,31,32,33,34)/b26-13-/t14-,18-/m1/s1
Instrument: Q Exactive Orbitrap Thermo Scientific
Instrument type: LC-ESI-QFT
Ms type: MS2
Ion mode: NEGATIVE
Ionization: ESI
Fragmentation mode: HCD
Collision energy: 75 (nominal)
Resolution: 35000
Column name: XBridge C18 3.5um, 2.1x50mm, Waters
Retention time: 3.3 min
Base peak: 235.9261
Precursor m/z: 545.0919
Precursor type: [M-H]-
m/z	relative intensity	assigned
56.9804	54	C2HS-
57.0345	628	C3H5O-
57.9756	999	CNS-
65.0145	347	C3HN2-
65.9985	94	C3NO-
66.0098	26	C2N3-
67.0302	73	C3H3N2-
70.9835	89	C2HNS-
70.9962	21	C3H3S-
71.9914	20	C2H2NS-
79.0177	51	C3HN3-
81.0096	15	C3HN2O-
81.9757	262	C3NS-
83.025	14	C3H3N2O-
83.9914	96	C3H2NS-
90.0097	27	C4N3-
90.0351	25	C6H4N-
91.0301	14	C5H3N2-
92.0254	128	C4H2N3-
93.0096	54	C4HN2O-
95.0251	28	C4H3N2O-
95.9788	85	C3N2S-
96.0203	13	C3H2N3O-
96.9866	343	C3HN2S-
98.007	112	C4H4NS-
99.0022	18	C3H3N2S-
100.0226	115	C4H6NS-
103.0401	500	C4H7O3-
104.0129	89	C4N4-
104.0379	22	C6H4N2-
105.0331	14	C5H3N3-
105.0457	15	C6H5N2-
108.0204	18	C4H2N3O-
108.9864	55	C4HN2S-
120.0203	51	C5H2N3O-
122.0362	16	C5H4N3O-
122.9895	76	C4HN3S-
123.9974	83	C4H2N3S-
124.9813	29	C4HN2OS-
132.044	20	C6H4N4-
133.0409	16	C7H5N2O-
135.997	13	C5H2N3S-
