Mass spectrum: Flonicamid; LC-ESI-ITFT; MS2; CE: 45%; R=7500; [M+H]+
Name: Flonicamid
Name: N-(cyanomethyl)-4-(trifluoromethyl)-3-pyridinecarboxamide
Formula: C9H6F3N3O
Exact mass: 229.0463
SMILES: O=C(NCC#N)c1cnccc1C(F)(F)F
InChI: InChI=1S/C9H6F3N3O/c10-9(11,12)7-1-3-14-5-6(7)8(16)15-4-2-13/h1,3,5H,4H2,(H,15,16)
Instrument: LTQ Orbitrap XL Thermo Scientific
Instrument type: LC-ESI-ITFT
Ms type: MS2
Ion mode: POSITIVE
Ionization: ESI
Fragmentation mode: HCD
Collision energy: 45 % (nominal)
Resolution: 7500
Column name: XBridge C18 3.5um, 2.1x50mm, Waters
Retention time: 3.9 min
Base peak: 230.0537
Precursor m/z: 230.0536
Precursor type: [M+H]+
m/z	relative intensity	assigned
98.0401	3	C5H5FN+
126.0352	1	C6H5FNO+
128.0301	3	C6H4F2N+
129.0382	4	C6H5F2N+
131.0238	1	C7H3N2O+
134.0473	10	C7H6N2O+
135.0355	1	C7H4FN2+
144.0254	4	C6H4F2NO+
146.0206	10	C6H3F3N+
147.029	4	C6H4F3N+
148.0368	191	C6H5F3N+
155.0415	6	C7H5F2N2+
162.0466	2	C8H5FN3+
174.0162	507	C7H3F3NO+
175.048	3	C7H6F3N2+
176.0318	173	C7H5F3NO+
183.0364	86	C8H5F2N2O+
187.0477	1	C8H6F3N2+
190.0414	3	C9H5FN3O+
192.0273	1	C7H5F3NO2+
201.028	1	C8H4F3N2O+
203.0428	999	C8H6F3N2O+
210.0474	2	C9H6F2N3O+
230.0538	600	C9H7F3N3O+
