Mass spectrum: Pyridate; LC-ESI-QFT; MS2; CE: 30; R=35000; [M+H]+
Name: Pyridate
Name: Pyridat
Name: (6-chloro-3-phenylpyridazin-4-yl) octylsulfanylformate
Formula: C19H23ClN2O2S
Exact mass: 378.11688
SMILES: O=C(SCCCCCCCC)Oc2cc(Cl)nnc2c1ccccc1
InChI: InChI=1S/C19H23ClN2O2S/c1-2-3-4-5-6-10-13-25-19(23)24-16-14-17(20)21-22-18(16)15-11-8-7-9-12-15/h7-9,11-12,14H,2-6,10,13H2,1H3
Instrument: Q Exactive Plus Orbitrap Thermo Scientific
Instrument type: LC-ESI-QFT
Ms type: MS2
Ion mode: POSITIVE
Ionization: ESI
Fragmentation mode: HCD
Collision energy: 30 (nominal)
Resolution: 35000
Column name: XBridge C18 3.5um, 2.1x50mm, Waters
Retention time: 18.1 min
Base peak: 379.1241
Precursor m/z: 379.1242
Precursor type: [M+H]+
m/z	relative intensity	assigned
55.0542	1	C4H7+
57.0699	72	C4H9+
68.0131	1	C3H2NO+
69.0699	18	C5H9+
71.0855	82	C5H11+
77.0385	1	C6H5+
104.049	1	C7H6N+
111.1169	2	C8H15+
145.1046	6	C8H17S+
207.032	999	C10H8ClN2O+
319.1573	7	C18H24ClN2O+
351.1301	1	C18H24ClN2OS+
