Mass spectrum: Fenamiphos-sulfone; LC-ESI-QFT; MS2; CE: 180; R=35000; [M+H]+
Name: Fenamiphos-sulfone
Name: Fenamiphos sulphone
Name: Ethyl 3-methyl-4-(methylsulfonyl)phenyl isopropylphosphoramidate
Formula: C13H22NO5PS
Exact mass: 335.09563
SMILES: CCOP(=O)(NC(C)C)OC1=CC(=C(C=C1)S(=O)(=O)C)C
InChI: InChI=1S/C13H22NO5PS/c1-6-18-20(15,14-10(2)3)19-12-7-8-13(11(4)9-12)21(5,16)17/h7-10H,6H2,1-5H3,(H,14,15)
Instrument: Q Exactive Plus Orbitrap Thermo Scientific
Instrument type: LC-ESI-QFT
Ms type: MS2
Ion mode: POSITIVE
Ionization: ESI
Fragmentation mode: HCD
Collision energy: 180 (nominal)
Resolution: 35000
Column name: XBridge C18 3.5um, 2.1x50mm, Waters
Retention time: 7.5 min
Base peak: 336.1023
Precursor m/z: 336.1029
Precursor type: [M+H]+
m/z	relative intensity	assigned
50.0152	255	C4H2+
51.023	340	C4H3+
52.0182	2	C3H2N+
52.0308	17	C4H4+
53.0022	79	C3HO+
53.0386	311	C4H5+
53.9975	18	C2NO+
54.0465	10	C4H6+
55.0179	131	C3H3O+
57.9873	14	C2H2S+
58.0652	3	C3H8N+
58.9951	2	C2H3S+
61.0073	28	C5H+
62.0151	111	C5H2+
63.023	574	C5H3+
64.0308	55	C5H4+
65.0386	893	C5H5+
66.0464	89	C5H6+
67.0179	2	C4H3O+
67.0543	21	C5H7+
67.9893	8	C3O2+
68.0256	13	C4H4O+
68.9794	46	C3HS+
68.9888	11	C3H2P+
68.9972	3	C3HO2+
70.9951	4	C3H3S+
74.0151	16	C6H2+
75.0229	34	C6H3+
76.0307	2	C6H4+
77.0386	339	C6H5+
78.0464	89	C6H6+
79.0542	699	C6H7+
80.0621	14	C6H8+
81.0335	85	C5H5O+
82.9948	2	C4H3S+
84.0029	2	C4H4S+
89.0386	669	C7H5+
90.0465	56	C7H6+
91.0543	174	C7H7+
93.0336	3	C6H5O+
93.0574	7	C6H7N+
93.07	2	C7H9+
94.0414	89	C6H6O+
95.0492	999	C6H7O+
97.0108	30	C5H5S+
98.0002	163	H5NO3P+
98.9843	56	H4O4P+
104.0496	3	C7H6N+
105.0448	623	C6H5N2+
106.0418	2	C3H9NOP+
106.0651	28	C7H8N+
107.0492	868	C7H7O+
108.057	3	C7H8O+
109.0107	9	C6H5S+
109.0648	3	C7H9O+
115.0543	10	C9H7+
