Mass spectrum: Trinexapac; LC-ESI-ITFT; MS2; CE: 15%; R=7500; [M+H]+
Name: Trinexapac
Name: 4-[Cyclopropyl(hydroxy)methylene]-3,5-dioxocyclohexanecarboxylic acid
Formula: C11H12O5
Exact mass: 224.0685
SMILES: C(C1)C1C(O)=C(C(=O)CC2C(=O)O)C(=O)C2
InChI: InChI=1S/C11H12O5/c12-7-3-6(11(15)16)4-8(13)9(7)10(14)5-1-2-5/h5-6,14H,1-4H2,(H,15,16)/b10-9-
Instrument: LTQ Orbitrap XL Thermo Scientific
Instrument type: LC-ESI-ITFT
Ms type: MS2
Ion mode: POSITIVE
Ionization: ESI
Fragmentation mode: HCD
Collision energy: 15 % (nominal)
Resolution: 7500
Column name: XBridge C18 3.5um, 2.1x50mm, Waters
Retention time: 6.9 min
Base peak: 225.0758
Precursor m/z: 225.0757
Precursor type: [M+H]+
m/z	relative intensity	assigned
69.0335	85	C4H5O+
111.0439	5	C6H7O2+
137.0596	1	C8H9O2+
139.039	20	C7H7O3+
157.0495	20	C7H9O4+
165.0181	4	C8H5O4+
179.0704	1	C10H11O3+
183.0289	8	C8H7O5+
197.0814	1	C10H13O4+
201.0401	2	C8H9O6+
207.0652	11	C11H11O4+
225.0758	999	C11H13O5+
