Mass spectrum: Dioxoaminopyrine; LC-ESI-ITFT; MS2; CE: 45%; R=7500; [M+H]+
Name: Dioxoaminopyrine
Name: AMDOPH
Name: 2-(N-[acetyl(methyl)amino]anilino)-2-keto-N,N-dimethyl-acetamide
Formula: C13H17N3O3
Exact mass: 263.1270
SMILES: c1ccccc1N(C(=O)C(=O)N(C)C)N(C)C(=O)C
InChI: InChI=1S/C13H17N3O3/c1-10(17)15(4)16(11-8-6-5-7-9-11)13(19)12(18)14(2)3/h5-9H,1-4H3
Instrument: LTQ Orbitrap XL Thermo Scientific
Instrument type: LC-ESI-ITFT
Ms type: MS2
Ion mode: POSITIVE
Ionization: ESI
Fragmentation mode: HCD
Collision energy: 45 % (nominal)
Resolution: 7500
Column name: XBridge C18 3.5um, 2.1x50mm, Waters
Retention time: 5.2 min
Base peak: 286.1173
Precursor m/z: 264.1343
Precursor type: [M+H]+
m/z	relative intensity	assigned
56.0495	26	C3H6N+
65.0385	6	C5H5+
72.0445	999	C3H6NO+
92.0496	105	C6H6N+
106.0653	13	C7H8N+
119.0364	6	C7H5NO+
121.0765	13	C7H9N2+
134.0603	17	C8H8NO+
148.0632	8	C8H8N2O+
149.0711	334	C8H9N2O+
163.0868	152	C9H11N2O+
191.0817	548	C10H11N2O2+
204.1133	6	C11H14N3O+
222.1245	24	C11H16N3O2+
