Mass spectrum: Simeton; LC-ESI-ITFT; MS2; CE: 45%; R=15000; [M+H]+
Name: Simeton
Name: 2-N,4-N-diethyl-6-methoxy-1,3,5-triazine-2,4-diamine
Formula: C8H15N5O
Exact mass: 197.1271
SMILES: c1(nc(nc(n1)OC)NCC)NCC
InChI: InChI=1S/C8H15N5O/c1-4-9-6-11-7(10-5-2)13-8(12-6)14-3/h4-5H2,1-3H3,(H2,9,10,11,12,13)
Instrument: LTQ Orbitrap XL Thermo Scientific
Instrument type: LC-ESI-ITFT
Ms type: MS2
Ion mode: POSITIVE
Ionization: ESI
Fragmentation mode: HCD
Collision energy: 45 % (nominal)
Resolution: 15000
Column name: XBridge C18 3.5um, 2.1x50mm, Waters
Retention time: 4.9 min
Base peak: 198.1352
Precursor m/z: 198.1349
Precursor type: [M+H]+
m/z	relative intensity	assigned
57.0446	4	C2H5N2+
68.0243	8	C2H2N3+
69.0083	12	C2HN2O+
71.0603	12	C3H7N2+
82.0397	1	C3H4N3+
83.024	1	C3H3N2O+
85.076	11	C4H9N2+
96.0557	24	C4H6N3+
97.0397	7	C4H5N2O+
100.0506	13	C3H6N3O+
103.0868	1	C4H11N2O+
110.0713	3	C5H8N3+
114.0662	38	C4H8N3O+
124.087	88	C6H10N3+
128.0819	91	C5H10N3O+
142.0725	1	C4H8N5O+
142.0974	2	C6H12N3O+
166.1087	10	C7H12N5+
170.1037	53	C6H12N5O+
183.1123	1	C7H13N5O+
196.1201	1	C8H14N5O+
198.135	999	C8H16N5O+
