Mass spectrum: Lamotrigine; LC-ESI-ITFT; MS2; CE: 75%; R=15000; [M+H]+
Name: Lamotrigine
Name: 6-(2,3-dichlorophenyl)-1,2,4-triazine-3,5-diamine
Formula: C9H7Cl2N5
Exact mass: 255.0079
SMILES: Cl-c(ccc1)c(Cl)c1-c(nnc2N)c(n2)N
InChI: InChI=1S/C9H7Cl2N5/c10-5-3-1-2-4(6(5)11)7-8(12)14-9(13)16-15-7/h1-3H,(H4,12,13,14,16)
Instrument: LTQ Orbitrap XL Thermo Scientific
Instrument type: LC-ESI-ITFT
Ms type: MS2
Ion mode: POSITIVE
Ionization: ESI
Fragmentation mode: HCD
Collision energy: 75 % (nominal)
Resolution: 15000
Column name: XBridge C18 3.5um, 2.1x50mm, Waters
Retention time: 5.4 min
Base peak: 256.016
Precursor m/z: 256.0151
Precursor type: [M+H]+
m/z	relative intensity	assigned
58.04	266	CH4N3+
68.0244	22	C2H2N3+
84.9838	16	C4H2Cl+
122.9996	125	C7H4Cl+
123.9954	24	C6H3ClN+
131.0603	33	C8H7N2+
132.9607	24	C5H3Cl2+
138.0105	53	C7H5ClN+
149.0025	19	C8H4ClN+
151.0052	16	C7H4ClN2+
151.0184	296	C8H6ClN+
152.0135	193	C7H5ClN2+
156.9606	446	C7H3Cl2+
158.9763	577	C7H5Cl2+
159.9715	158	C6H4Cl2N+
164.0012	43	C7H3ClN3+
165.0214	241	C8H6ClN2+
166.0292	508	C8H7ClN2+
170.9639	85	C7H3Cl2N+
171.9715	540	C7H4Cl2N+
172.9668	397	C6H3Cl2N2+
173.9871	139	C7H6Cl2N+
176.0134	22	C9H5ClN2+
178.0168	105	C8H5ClN3+
179.0249	39	C8H6ClN3+
183.9715	283	C8H4Cl2N+
184.9793	32	C8H5Cl2N+
185.9872	110	C8H6Cl2N+
186.9824	648	C7H5Cl2N2+
194.0355	21	C8H7ClN4+
194.9632	23	C9H3Cl2N+
196.9665	67	C8H3Cl2N2+
210.9825	929	C9H5Cl2N2+
211.9778	230	C8H4Cl2N3+
213.9937	32	C8H6Cl2N3+
220.0384	102	C9H7ClN5+
229.004	156	C8H7Cl2N4+
256.0152	999	C9H8Cl2N5+
