Mass spectrum: Epinephrine; LC-ESI-QFT; MS2; CE: 15; R=35000; [M-H]-
Name: Epinephrine
Name: 4-[(1R)-1-hydroxy-2-(methylamino)ethyl]benzene-1,2-diol
Formula: C9H13NO3
Exact mass: 183.08954
SMILES: CNC[C@@H](C1=CC(=C(C=C1)O)O)O
InChI: InChI=1S/C9H13NO3/c1-10-5-9(13)6-2-3-7(11)8(12)4-6/h2-4,9-13H,5H2,1H3/t9-/m0/s1
Instrument: Q Exactive Orbitrap Thermo Scientific
Instrument type: LC-ESI-QFT
Ms type: MS2
Ion mode: NEGATIVE
Ionization: ESI
Fragmentation mode: HCD
Collision energy: 15 (nominal)
Resolution: 35000
Column name: XBridge C18 3.5um, 2.1x50mm, Waters
Retention time: 0.8 min
Base peak: 182.0824
Precursor m/z: 182.0823
Precursor type: [M-H]-
m/z	relative intensity	assigned
109.0295	4	C6H5O2-
121.0293	1	C7H5O2-
122.0374	94	C7H6O2-
123.0453	4	C7H7O2-
124.0164	1	C6H4O3-
135.0451	7	C8H7O2-
137.0245	4	C7H5O3-
137.0608	1	C8H9O2-
139.0401	1	C7H7O3-
148.0403	2	C8H6NO2-
149.0482	56	C8H7NO2-
154.0273	3	C7H6O4-
162.0564	9	C9H8NO2-
164.0717	999	C9H10NO2-
182.0823	110	C9H12NO3-
