Mass spectrum: Chloridazone-methyl-desphenyl; LC-ESI-ITFT; MS2; CE: 30%; R=15000; [M+H]+
Name: Chloridazone-methyl-desphenyl
Name: 1-Methyl-4-amino-5-chloro-6-oxo-(1H)-pyridazine
Name: 5-amino-4-chloro-2-methyl-3-pyridazinone
Formula: C5H6ClN3O
Exact mass: 159.0199
SMILES: ClC(=C(C=N1)N)C(=O)N1C
InChI: InChI=1S/C5H6ClN3O/c1-9-5(10)4(6)3(7)2-8-9/h2H,7H2,1H3
Instrument: LTQ Orbitrap XL Thermo Scientific
Instrument type: LC-ESI-ITFT
Ms type: MS2
Ion mode: POSITIVE
Ionization: ESI
Fragmentation mode: HCD
Collision energy: 30 % (nominal)
Resolution: 15000
Column name: XBridge C18 3.5um, 2.1x50mm, Waters
Retention time: 2.2 min
Base peak: 160.0271
Precursor m/z: 160.0272
Precursor type: [M+H]+
m/z	relative intensity	assigned
160.0273	999	C5H7ClN3O+
