Mass spectrum: Tritosulfuron; LC-ESI-ITFT; MS2; CE: 30%; R=15000; [M+H]+
Name: Tritosulfuron
Name: N-{[4-methoxy-6-(trifluoromethyl)-1,3,5-triazin-2-yl]carbamoyl}-2-(trifluoromethyl)benzenesulfonamide
Formula: C13H9F6N5O4S
Exact mass: 445.0279
SMILES: c1c(S(=O)(=O)NC(Nc2nc(nc(n2)C(F)(F)F)OC)=O)c(C(F)(F)F)ccc1
InChI: InChI=1S/C13H9F6N5O4S/c1-28-11-21-8(13(17,18)19)20-9(23-11)22-10(25)24-29(26,27)7-5-3-2-4-6(7)12(14,15)16/h2-5H,1H3,(H2,20,21,22,23,24,25)
Instrument: LTQ Orbitrap XL Thermo Scientific
Instrument type: LC-ESI-ITFT
Ms type: MS2
Ion mode: POSITIVE
Ionization: ESI
Fragmentation mode: HCD
Collision energy: 30 % (nominal)
Resolution: 15000
Column name: XBridge C18 3.5um, 2.1x50mm, Waters
Retention time: 10.8 min
Base peak: 446.0345
Precursor m/z: 446.0352
Precursor type: [M+H]+
m/z	relative intensity	assigned
83.024	1	C3H3N2O+
110.0213	4	C3H3F3N+
127.0478	10	C3H6F3N2+
145.026	157	C7H4F3+
175.0427	1	C2H10FN3O3S+
186.002	15	C2H4F2N4O2S+
195.0488	999	C5H6F3N4O+
206.0082	10	C7H6F2NO2S+
208.988	239	C7H4F3O2S+
220.0442	10	C11H6F2N2O+
221.0281	406	C6H4F3N4O2+
231.9875	24	C8H4F2NO3S+
363.0171	8	C12H7F4N4O3S+
403.0293	8	C12H9F6N4O3S+
446.0348	8	C13H10F6N5O4S+
