Mass spectrum: Amisulpride N-Oxide; LC-ESI-QFT; MS2; CE: 75; R=35000; [M+H]+
Name: Amisulpride N-Oxide
Name: 4-amino-N-[(1-ethyl-1-oxidopyrrolidin-1-ium-2-yl)methyl]-5-ethylsulfonyl-2-methoxybenzamide
Formula: C17H27N3O5S
Exact mass: 385.16714
SMILES: CC[N+]1(CCCC1CNC(=O)C2=CC(=C(C=C2OC)N)S(=O)(=O)CC)[O-]
InChI: InChI=1S/C17H27N3O5S/c1-4-20(22)8-6-7-12(20)11-19-17(21)13-9-16(26(23,24)5-2)14(18)10-15(13)25-3/h9-10,12H,4-8,11,18H2,1-3H3,(H,19,21)
Instrument: Q Exactive Plus Orbitrap Thermo Scientific
Instrument type: LC-ESI-QFT
Ms type: MS2
Ion mode: POSITIVE
Ionization: ESI
Fragmentation mode: HCD
Collision energy: 75 (nominal)
Resolution: 35000
Column name: XBridge C18 3.5um, 2.1x50mm, Waters
Retention time: 4.2 min
Base peak: 386.1742
Precursor m/z: 386.1744
Precursor type: [M+H]+
m/z	relative intensity	assigned
53.0021	3	C3HO+
53.0385	2	C4H5+
54.0338	4	C3H4N+
55.0178	1	C3H3O+
56.0495	5	C3H6N+
58.0651	3	C3H8N+
58.995	4	C2H3S+
65.0259	1	C4H3N+
65.0386	3	C5H5+
66.0338	3	C4H4N+
66.0464	18	C5H6+
67.0416	2	C4H5N+
67.0542	9	C5H7+
68.0131	1	C3H2NO+
68.0495	5	C4H6N+
68.9793	1	C3HS+
69.0573	4	C4H7N+
70.0287	1	C3H4NO+
70.0651	11	C4H8N+
70.995	2	C3H3S+
74.06	48	C3H8NO+
78.0337	2	C5H4N+
79.0178	1	C5H3O+
79.0416	2	C5H5N+
80.013	2	C4H2NO+
80.0494	5	C5H6N+
81.0335	2	C5H5O+
82.0287	1	C4H4NO+
82.0651	5	C5H8N+
82.9949	3	C4H3S+
83.0127	1	C4H3O2+
84.0808	7	C5H10N+
84.9742	1	C3HOS+
85.0106	8	C4H5S+
85.0648	1	C5H9O+
86.0059	1	C3H4NS+
86.9899	4	C3H3OS+
91.0416	3	C6H5N+
92.0494	6	C6H6N+
93.0573	9	C6H7N+
94.0287	3	C5H4NO+
94.0414	3	C6H6O+
94.0652	3	C6H8N+
94.995	1	C5H3S+
95.0366	9	C5H5NO+
95.073	1	C6H9N+
96.0444	17	C5H6NO+
96.0807	4	C6H10N+
97.0107	2	C5H5S+
97.0522	4	C5H7NO+
98.0964	82	C6H12N+
98.9899	4	C4H3OS+
104.0495	1	C7H6N+
106.0287	2	C6H4NO+
107.0128	4	C6H3O2+
107.0365	7	C6H5NO+
107.9902	16	C5H2NS+
108.0444	32	C6H6NO+
109.0283	2	C6H5O2+
109.0523	1	C6H7NO+
110.0059	25	C5H4NS+
110.06	1	C6H8NO+
110.0964	6	C7H12N+
110.99	1	C5H3OS+
111.9851	4	C4H2NOS+
112.0216	7	C5H6NS+
112.0393	1	C5H6NO2+
113.0055	7	C5H5OS+
114.0914	3	C6H12NO+
119.9903	4	C6H2NS+
120.0444	10	C7H6NO+
121.0522	49	C7H7NO+
122.0059	4	C6H4NS+
122.0238	5	C6H4NO2+
122.0362	43	C7H6O2+
123.0314	1	C6H5NO2+
124.0393	18	C6H6NO2+
124.993	6	C5H3NOS+
125.0055	1	C6H5OS+
125.0471	1	C6H7NO2+
128.0165	2	C5H6NOS+
129.9958	1	C4H4NO2S+
132.008	18	C7H2NO2+
135.0314	4	C7H5NO2+
135.9852	5	C6H2NOS+
136.0393	2	C7H6NO2+
138.0009	17	C6H4NOS+
138.0186	23	C6H4NO3+
139.0088	1	C6H5NOS+
140.0165	73	C6H6NOS+
141.0004	3	C6H5O2S+
147.0315	103	C8H5NO2+
148.003	1	C7H2NO3+
148.0392	2	C8H6NO2+
149.0472	207	H11N3O4S+
150.0008	8	C7H4NOS+
150.0184	2	C7H4NO3+
150.055	19	C8H8NO2+
152.0165	1	C7H6NOS+
152.0342	8	C7H6NO3+
152.9879	2	C6H3NO2S+
153.0006	1	C7H5O2S+
158.0271	4	C6H8NO2S+
163.0264	7	C8H5NO3+
163.9801	1	C7H2NO2S+
164.0344	6	C8H6NO3+
165.0418	2	C8H7NO3+
165.996	3	C7H4NO2S+
166.0136	1	C7H4NO4+
168.0114	224	C7H6NO2S+
177.9957	67	C8H4NO2S+
180.0119	2	C8H6NO2S+
196.0063	999	C14N2+
197.0145	3	C8H7NO3S+
214.0169	91	C8H8NO4S+
242.0482	181	C10H12NO4S+
