Mass spectrum: Perfluorooctane sulfonamidoacetic acid; LC-ESI-ITFT; MS2; CE: 45%; R=15000; [M-H]-
Name: Perfluorooctane sulfonamidoacetic acid
Name: {[(heptadecafluorooctyl)sulfonyl]amino}acetic acid
Name: FOSAA
Formula: C10H4F17NO4S
Exact mass: 556.9590
SMILES: FC(F)(C(F)(F)C(F)(F)C(F)(F)C(F)(F)C(F)(F)C(F)(F)C(F)(F)F)S(=O)(=O)NCC(O)=O
InChI: InChI=1S/C10H4F17NO4S/c11-3(12,5(15,16)7(19,20)9(23,24)25)4(13,14)6(17,18)8(21,22)10(26,27)33(31,32)28-1-2(29)30/h28H,1H2,(H,29,30)
Instrument: LTQ Orbitrap XL Thermo Scientific
Instrument type: LC-ESI-ITFT
Ms type: MS2
Ion mode: NEGATIVE
Ionization: ESI
Fragmentation mode: HCD
Collision energy: 45 % (nominal)
Resolution: 15000
Column name: XBridge C18 3.5um, 2.1x50mm, Waters
Retention time: 15.9 min
Base peak: 555.9521
Precursor m/z: 555.9517
Precursor type: [M-H]-
m/z	relative intensity	assigned
77.9654	911	NO2S-
168.9892	999	C3F7-
