Mass spectrum: Pinoxaden; LC-ESI-ITFT; MS2; CE: 60%; R=15000; [M+H]+
Name: Pinoxaden
Name: 8-(2,6-diethyl-4-methylphenyl)-1,2,4,5-tetrahydro-7-oxo-7H-pyrazolo(1,2-d)(1,4,5)oxadiazepin-9-yl 2,2-dimethylpropanoate
Formula: C23H32N2O4
Exact mass: 400.2368
SMILES: CC(C)(C)C(=O)O/C2=C(/C(=O)N1CCOCCN12)c3c(CC)cc(C)cc3CC
InChI: InChI=1S/C23H32N2O4/c1-7-16-13-15(3)14-17(8-2)18(16)19-20(26)24-9-11-28-12-10-25(24)21(19)29-22(27)23(4,5)6/h13-14H,7-12H2,1-6H3
Instrument: LTQ Orbitrap XL Thermo Scientific
Instrument type: LC-ESI-ITFT
Ms type: MS2
Ion mode: POSITIVE
Ionization: ESI
Fragmentation mode: HCD
Collision energy: 60 % (nominal)
Resolution: 15000
Column name: XBridge C18 3.5um, 2.1x50mm, Waters
Retention time: 13.7 min
Base peak: 401.2442
Precursor m/z: 401.2435
Precursor type: [M+H]+
m/z	relative intensity	assigned
57.0699	179	C4H9+
71.0603	26	C3H7N2+
101.0709	63	C4H9N2O+
102.0788	15	C4H10N2O+
105.0699	10	C8H9+
119.0855	11	C9H11+
130.0647	4	C9H8N+
131.0856	39	C10H11+
133.1012	39	C10H13+
143.0853	4	C11H11+
145.0883	8	C10H11N+
146.0967	12	C10H12N+
147.081	5	C10H11O+
147.117	18	C11H15+
156.081	6	C11H10N+
157.1012	5	C12H13+
158.0726	6	C11H10O+
159.0805	18	C11H11O+
159.1169	63	C12H15+
160.0757	5	C10H10NO+
160.0885	17	C11H12O+
160.1118	4	C11H14N+
160.1247	6	C12H16+
161.0957	6	C11H13O+
161.1326	32	C12H17+
169.1009	9	C13H13+
171.0765	9	C7H11N2O3+
172.1124	14	C12H14N+
173.0836	6	C11H11NO+
174.0914	82	C11H12NO+
174.1278	32	C12H16N+
175.1114	10	C12H15O+
183.0764	8	C8H11N2O3+
187.0754	9	C12H11O2+
187.112	24	C13H15O+
188.1072	19	C12H14NO+
189.1387	29	C12H17N2+
200.1431	10	C14H18N+
202.1227	46	C13H16NO+
215.1062	16	C14H15O2+
216.0891	15	C12H12N2O2+
217.1336	8	C13H17N2O+
217.1698	19	C14H21N2+
229.0971	21	C13H13N2O2+
230.1053	7	C13H14N2O2+
233.1649	28	C14H21N2O+
244.1206	70	C14H16N2O2+
244.1445	8	C14H18N3O+
261.1237	17	C14H17N2O3+
261.1963	21	C16H25N2O+
271.144	37	C16H19N2O2+
273.123	8	C15H17N2O3+
273.1608	12	C16H21N2O2+
285.1593	10	C17H21N2O2+
288.1468	97	C16H20N2O3+
289.1545	370	C16H21N2O3+
317.1859	999	C18H25N2O3+
