Mass spectrum: Famoxadone; LC-ESI-QFT; MS2; CE: 60; R=35000; [M+H]+
Name: Famoxadone
Name: 3-anilino-5-methyl-5-(4-phenoxyphenyl)-1,3-oxazolidine-2,4-dione
Formula: C22H18N2O4
Exact mass: 374.12666
SMILES: O=C2OC(C(=O)N2Nc1ccccc1)(c4ccc(Oc3ccccc3)cc4)C
InChI: InChI=1S/C22H18N2O4/c1-22(16-12-14-19(15-13-16)27-18-10-6-3-7-11-18)20(25)24(21(26)28-22)23-17-8-4-2-5-9-17/h2-15,23H,1H3
Instrument: Q Exactive Orbitrap Thermo Scientific
Instrument type: LC-ESI-QFT
Ms type: MS2
Ion mode: POSITIVE
Ionization: ESI
Fragmentation mode: HCD
Collision energy: 60 (nominal)
Resolution: 35000
Column name: XBridge C18 3.5um, 2.1x50mm, Waters
Retention time: 13.5 min
Base peak: 331.144
Precursor m/z: 375.1339
Precursor type: [M+H]+
m/z	relative intensity	assigned
65.0386	358	C5H5+
72.0443	17	C3H6NO+
79.054	17	C6H7+
89.0385	36	C7H5+
91.0542	15	C7H7+
92.0495	999	C6H6N+
93.0573	620	C6H7N+
95.049	68	C6H7O+
102.0465	37	C8H6+
107.0604	364	C6H7N2+
111.044	59	C6H7O2+
117.0573	35	C8H7N+
133.076	58	C8H9N2+
146.06	299	C9H8NO+
152.0621	84	C12H8+
165.0697	60	C13H9+
167.0854	96	C13H11+
168.0808	22	C12H10N+
169.0884	22	C12H11N+
192.0803	22	C14H10N+
193.0887	138	C14H11N+
195.0805	631	C14H11O+
209.1074	29	C14H13N2+
210.0677	17	C14H10O2+
210.1154	20	C14H14N2+
224.0704	62	C14H10NO2+
238.0868	27	C15H12NO2+
286.1239	17	C20H16NO+
