Mass spectrum: Metsulfuron-methyl; LC-ESI-ITFT; MS2; CE: 45%; R=7500; [M+H]+
Name: Metsulfuron-methyl
Name: 2-[(4-methoxy-6-methyl-s-triazin-2-yl)carbamoylsulfamoyl]benzoic acid methyl ester
Formula: C14H15N5O6S
Exact mass: 381.0743
SMILES: c1(c(cccc1)C(OC)=O)S(NC(Nc1nc(nc(n1)C)OC)=O)(=O)=O
InChI: InChI=1S/C14H15N5O6S/c1-8-15-12(18-14(16-8)25-3)17-13(21)19-26(22,23)10-7-5-4-6-9(10)11(20)24-2/h4-7H,1-3H3,(H2,15,16,17,18,19,21)
Instrument: LTQ Orbitrap XL Thermo Scientific
Instrument type: LC-ESI-ITFT
Ms type: MS2
Ion mode: POSITIVE
Ionization: ESI
Fragmentation mode: HCD
Collision energy: 45 % (nominal)
Resolution: 7500
Column name: XBridge C18 3.5um, 2.1x50mm, Waters
Retention time: 7.1 min
Base peak: 382.0825
Precursor m/z: 382.0816
Precursor type: [M+H]+
m/z	relative intensity	assigned
56.0494	17	C3H6N+
57.0448	2	C2H5N2+
58.0287	4	C2H4NO+
77.0383	4	C6H5+
83.0241	15	C3H3N2O+
135.044	124	C8H7O2+
141.0771	109	C5H9N4O+
146.0234	4	H8N3O4S+
167.0563	999	C6H7N4O2+
184.0059	8	C7H6NO3S+
199.0058	197	C8H7O4S+
209.9855	38	C8H4NO4S+
