Mass spectrum: Trichloronat; LC-ESI-QFT; MS2; CE: 90%; R=17500; [M+H]+
Name: Trichloronat
Name: ethoxy-ethyl-sulfanylidene-(2,4,5-trichlorophenoxy)-lambda5-phosphane
Formula: C10H12Cl3O2PS
Exact mass: 331.9361
SMILES: CCOP(=S)(CC)OC1=CC(=C(C=C1Cl)Cl)Cl
InChI: InChI=1S/C10H12Cl3O2PS/c1-3-14-16(17,4-2)15-10-6-8(12)7(11)5-9(10)13/h5-6H,3-4H2,1-2H3
Instrument: Exploris 240 Orbitrap Thermo Scientific
Instrument type: LC-ESI-QFT
Ms type: MS2
Ion mode: POSITIVE
Ionization: ESI
Fragmentation mode: HCD
Collision energy: 90 % (nominal)
Resolution: 17500
Column name: XBridge C18 3.5um, 2.1x50mm, Waters
Retention time: 15.307 min
Base peak: 134.9588
Precursor m/z: 332.9434
Precursor type: [M+H]+
m/z	relative intensity	assigned
62.9453	760	PS+
64.9787	52	H2O2P+
80.9559	488	H2OPS+
126.9982	57	C3H8ClOS+
132.9607	584	C5H3Cl2+
160.9556	137	C6H3Cl2O+
161.9635	999	C6H4Cl2O+
