Mass spectrum: Azoxystrobin (free acid); LC-ESI-ITFT; MS2; CE: 75%; R=7500; [M+H]+
Name: Azoxystrobin (free acid)
Formula: C21H15N3O5
Exact mass: 389.1012
SMILES: O=C(O)/C(=C\OC)c3ccccc3Oc2cc(Oc1ccccc1C#N)ncn2
InChI: InChI=1S/C21H15N3O5/c1-27-12-16(21(25)26)15-7-3-5-9-18(15)29-20-10-19(23-13-24-20)28-17-8-4-2-6-14(17)11-22/h2-10,12-13H,1H3,(H,25,26)/b16-12-
Instrument: LTQ Orbitrap XL Thermo Scientific
Instrument type: LC-ESI-ITFT
Ms type: MS2
Ion mode: POSITIVE
Ionization: ESI
Fragmentation mode: HCD
Collision energy: 75 % (nominal)
Resolution: 7500
Column name: XBridge C18 3.5um, 2.1x50mm, Waters
Retention time: 8.8 min
Base peak: 390.1088
Precursor m/z: 390.1084
Precursor type: [M+H]+
m/z	relative intensity	assigned
51.023	5	C4H3+
66.0461	3	C5H6+
68.9971	10	C3HO2+
77.0384	10	C6H5+
78.0338	13	C5H4N+
78.0466	6	C6H6+
79.0544	8	C6H7+
89.0385	57	C7H5+
91.0418	7	C6H5N+
91.0544	17	C7H7+
92.0256	8	C6H4O+
92.049	4	C6H6N+
102.0337	8	C7H4N+
102.0464	4	C8H6+
103.0416	11	C7H5N+
103.0544	20	C8H7+
104.0495	51	C7H6N+
105.0335	24	C7H5O+
105.045	3	C6H5N2+
105.0574	5	C7H7N+
106.0649	8	C7H8N+
107.0491	12	C7H7O+
108.0448	3	C6H6NO+
114.0339	53	C8H4N+
115.0418	5	C8H5N+
115.0545	8	C9H7+
116.0494	59	C8H6N+
117.0335	19	C8H5O+
117.0574	16	C8H7N+
118.0415	27	C8H6O+
119.0365	23	C7H5NO+
120.0444	81	C7H6NO+
121.0522	5	C7H7NO+
121.0648	9	C8H9O+
127.0417	32	C9H5N+
128.0494	38	C9H6N+
129.0333	29	C9H5O+
129.0447	166	C8H5N2+
130.0287	33	C8H4NO+
130.04	140	C7H4N3+
131.0361	7	C8H5NO+
131.0493	14	C9H7O+
131.061	9	C8H7N2+
132.0444	35	C8H6NO+
133.0282	23	C8H5O2+
133.0522	140	C8H7NO+
134.036	16	C8H6O2+
134.06	150	C8H8NO+
140.0493	12	C10H6N+
141.0446	59	C9H5N2+
142.0526	7	C9H6N2+
143.0365	26	C9H5NO+
143.0604	64	C9H7N2+
144.0444	86	C9H6NO+
145.0283	26	C9H5O2+
145.0522	81	C9H7NO+
146.0237	40	C8H4NO2+
146.06	13	C9H8NO+
147.0428	4	C7H5N3O+
148.0519	5	C9H8O2+
154.0284	14	C10H4NO+
155.036	13	C10H5NO+
155.0604	64	C10H7N2+
156.0444	659	C10H6NO+
157.0278	13	C10H5O2+
157.0521	14	C10H7NO+
158.036	4	C10H6O2+
159.0315	12	C9H5NO2+
159.0554	20	C9H7N2O+
160.0398	14	C9H6NO2+
162.0316	16	C9H6O3+
168.0447	5	C11H6NO+
169.0394	37	C10H5N2O+
170.0242	5	C10H4NO2+
170.0473	47	C10H6N2O+
170.0604	7	C11H8NO+
171.0553	121	C10H7N2O+
172.0392	999	C10H6NO2+
173.0473	19	C10H7NO2+
177.054	12	C10H9O3+
181.0403	16	C11H5N2O+
182.0474	43	C11H6N2O+
183.0553	267	C11H7N2O+
184.0393	17	C11H6NO2+
186.0557	8	C11H8NO2+
187.0501	13	C10H7N2O2+
197.0347	15	C11H5N2O2+
199.0502	179	C11H7N2O2+
200.0341	304	C11H6NO3+
201.042	43	C11H7NO3+
210.042	29	C12H6N2O2+
211.0505	38	C12H7N2O2+
217.077	8	C15H9N2+
218.0833	18	C15H10N2+
220.0764	5	C15H10NO+
227.0451	8	C12H7N2O3+
229.0754	13	C16H9N2+
232.0752	11	C16H10NO+
233.0716	15	C15H9N2O+
242.0325	43	C12H6N2O4+
244.0876	24	C16H10N3+
245.0711	49	C16H9N2O+
245.097	9	C18H13O+
246.0792	16	C16H10N2O+
247.0865	6	C16H11N2O+
256.0871	5	C19H12O+
257.0702	10	C17H9N2O+
258.0791	8	C17H10N2O+
259.0878	11	C17H11N2O+
272.0819	137	C17H10N3O+
273.0663	74	C17H9N2O2+
274.0742	33	C17H10N2O2+
275.0814	27	C17H11N2O2+
284.0781	4	C15H12N2O4+
300.0769	159	C18H10N3O2+
301.0838	51	C18H11N3O2+
314.0909	3	C19H12N3O2+
328.0717	270	C19H10N3O3+
