Mass spectrum: Imidaclothiz; LC-ESI-QFT; MS2; CE: 150%; R=17500; [M+H]+
Name: Imidaclothiz
Name: N-[1-[(2-chloro-1,3-thiazol-5-yl)methyl]-4,5-dihydroimidazol-2-yl]nitramide
Formula: C7H8ClN5O2S
Exact mass: 261.0087
SMILES: C1CN(C(=N1)N[N+](=O)[O-])CC2=CN=C(S2)Cl
InChI: InChI=1S/C7H8ClN5O2S/c8-6-10-3-5(16-6)4-12-2-1-9-7(12)11-13(14)15/h3H,1-2,4H2,(H,9,11)
Instrument: Exploris 240 Orbitrap Thermo Scientific
Instrument type: LC-ESI-QFT
Ms type: MS2
Ion mode: POSITIVE
Ionization: ESI
Fragmentation mode: HCD
Collision energy: 150 % (nominal)
Resolution: 17500
Column name: XBridge C18 3.5um, 2.1x50mm, Waters
Retention time: 3.937 min
Base peak: 239.15
Precursor m/z: 262.016
Precursor type: [M+H]+
m/z	relative intensity	assigned
52.0182	72	C3H2N+
54.0339	245	C3H4N+
55.0291	91	C2H3N2+
55.0418	73	C3H5N+
58.995	86	C2H3S+
61.9794	46	CHClN+
65.0261	63	C4H3N+
66.0212	96	C3H2N2+
66.0338	47	C4H4N+
67.0291	90	C3H3N2+
68.037	791	C3H4N2+
68.0496	140	C4H6N+
68.9794	64	C3HS+
69.0448	154	C3H5N2+
70.9824	84	C2HNS+
70.9951	399	C3H3S+
71.9903	170	C2H2NS+
78.9405	66	CClS+
79.0294	50	C4H3N2+
80.0495	158	C5H6N+
81.0448	80	C4H5N2+
82.9827	109	C3HNS+
82.9949	101	C4H3S+
83.0481	133	C3H5N3+
83.9906	132	C3H2NS+
86.0062	52	C3H4NS+
93.0451	56	C5H5N2+
95.0478	999	C4H5N3+
95.0603	181	C5H7N2+
97.9935	70	C3H2N2S+
98.0061	107	C4H4NS+
99.0013	100	C3H3N2S+
110.0712	84	C5H8N3+
120.0555	55	C6H6N3+
122.0713	216	C6H8N3+
123.0791	144	C6H9N3+
