Mass spectrum: Clobazam; LC-ESI-QFT; MS2; CE: 150; R=35000; [M+H]+
Name: Clobazam
Name: 7-chloro-1-methyl-5-phenyl-1,5-benzodiazepine-2,4-dione
Formula: C16H13ClN2O2
Exact mass: 300.06656
SMILES: CN1C(=O)CC(=O)N(C2=C1C=CC(=C2)Cl)C3=CC=CC=C3
InChI: InChI=1S/C16H13ClN2O2/c1-18-13-8-7-11(17)9-14(13)19(16(21)10-15(18)20)12-5-3-2-4-6-12/h2-9H,10H2,1H3
Instrument: Q Exactive Plus Orbitrap Thermo Scientific
Instrument type: LC-ESI-QFT
Ms type: MS2
Ion mode: POSITIVE
Ionization: ESI
Fragmentation mode: HCD
Collision energy: 150 (nominal)
Resolution: 35000
Column name: XBridge C18 3.5um, 2.1x50mm, Waters
Retention time: 8.4 min
Base peak: 301.073
Precursor m/z: 301.0738
Precursor type: [M+H]+
m/z	relative intensity	assigned
50.0151	426	C4H2+
51.0229	271	C4H3+
52.0181	20	C3H2N+
52.0308	3	C4H4+
53.0021	36	C3HO+
53.0386	315	C4H5+
54.0464	12	C4H6+
55.0178	23	C3H3O+
61.0073	5	C5H+
61.9791	9	CHClN+
62.015	38	C5H2+
63.0229	511	C5H3+
64.0181	76	C4H2N+
64.0307	56	C5H4+
65.0021	37	C4HO+
65.0385	695	C5H5+
66.0338	9	C4H4N+
66.0464	143	C5H6+
67.0416	9	C4H5N+
67.0542	3	C5H7+
68.997	164	C3HO2+
72.9839	131	C3H2Cl+
74.015	40	C6H2+
75.0228	228	C6H3+
76.0181	78	C5H2N+
76.0306	15	C6H4+
77.0385	768	C6H5+
78.0338	104	C5H4N+
78.0463	33	C6H6+
79.0416	5	C5H5N+
79.0542	2	C6H7+
80.0494	13	C5H6N+
81.0334	78	C5H5O+
84.9839	31	C4H2Cl+
86.9996	44	C4H4Cl+
88.0306	2	C7H4+
89.0385	44	C7H5+
90.0338	993	C6H4N+
91.0416	565	C6H5N+
91.0542	102	C7H7+
92.0494	308	C6H6N+
93.0334	3	C6H5O+
93.0573	40	C6H7N+
94.0413	12	C6H6O+
95.0491	929	C6H7O+
96.0443	14	C5H6NO+
96.9839	4	C5H2Cl+
98.9995	344	C5H4Cl+
100.0075	4	C5H5Cl+
100.0181	38	C7H2N+
101.0384	8	C8H5+
102.0337	53	C7H4N+
102.0464	9	C8H6+
103.029	18	C6H3N2+
103.0417	10	C7H5N+
103.0542	18	C8H7+
104.0494	43	C7H6N+
105.0447	688	C6H5N2+
106.0288	5	C6H4NO+
106.0417	5	C4H9ClN+
108.0443	28	C6H6NO+
110.0599	3	C6H8NO+
110.9995	24	C6H4Cl+
111.9948	38	C5H3ClN+
112.0074	9	C6H5Cl+
113.0027	4	C5H4ClN+
113.0384	31	C9H5+
114.0105	77	C5H5ClN+
114.0337	5	C8H4N+
114.0464	10	C9H6+
115.0541	94	C9H7+
116.0368	3	C7H4N2+
116.0494	19	C8H6N+
117.0447	286	C7H5N2+
117.0571	24	C8H7N+
118.0525	950	C7H6N2+
119.0603	187	C7H7N2+
120.0442	19	C7H6NO+
123.9949	27	C6H3ClN+
125.0027	32	C6H4ClN+
125.0385	48	C10H5+
126.0105	66	C6H5ClN+
126.0464	45	C10H6+
127.0184	4	C6H6ClN+
127.0416	21	C9H5N+
127.0542	85	C10H7+
128.0494	155	C9H6N+
128.0619	10	C10H8+
129.0102	29	C6H6ClO+
129.0446	101	C8H5N2+
129.0572	29	C9H7N+
130.0055	9	C5H5ClNO+
130.0399	102	C7H4N3+
130.0649	17	C9H8N+
131.0603	11	C8H7N2+
132.057	2	C9H8O+
133.0395	3	C7H5N2O+
135.0552	22	C7H7N2O+
135.9948	5	C7H3ClN+
137.0027	5	C7H4ClN+
137.0385	5	C11H5+
138.0105	22	C7H5ClN+
138.0461	5	C11H6+
139.0057	97	C6H4ClN2+
139.0542	287	C11H7+
139.9897	54	C6H3ClNO+
140.0494	276	C10H6N+
140.0616	37	C11H8+
141.0214	11	C6H6ClN2+
141.0572	15	C10H7N+
141.0698	19	C11H9+
142.0526	10	C9H6N2+
143.0489	9	C10H7O+
143.0606	4	C9H7N2+
144.0444	3	C9H6NO+
145.0508	145	C7H5N4+
145.0648	54	C10H9O+
146.06	62	C9H8NO+
147.0553	34	C8H7N2O+
148.0632	2	C8H8N2O+
150.0418	27	C7H6N2O2+
151.0419	4	C11H5N+
151.0542	26	C12H7+
152.0135	13	C7H5ClN2+
152.0494	105	C11H6N+
152.062	63	C12H8+
153.0213	340	C7H6ClN2+
153.0447	60	C10H5N2+
153.0573	156	C11H7N+
154.0651	251	C11H8N+
155.0603	173	C10H7N2+
156.0681	10	C10H8N2+
157.052	3	C10H7NO+
162.0105	3	C9H5ClN+
163.0054	33	C11HNO+
164.0007	19	C10N2O+
164.0494	39	C12H6N+
165.0213	22	C8H6ClN2+
165.0451	4	C11H5N2+
165.0572	13	C12H7N+
166.0651	391	C12H8N+
167.0729	467	C12H9N+
168.0682	77	C11H8N2+
168.0803	26	C12H10N+
169.0648	39	C12H9O+
169.0759	10	C11H9N2+
170.06	122	C11H8NO+
171.0553	43	C10H7N2O+
174.0104	3	C10H5ClN+
177.0573	28	C13H7N+
178.053	3	C12H6N2+
178.0651	62	C13H8N+
179.0603	999	C12H7N2+
180.0567	47	
180.0681	725	C12H8N2+
180.0797	72	
181.0161	33	C8H6ClN2O+
181.0759	244	C12H9N2+
182.06	9	C12H8NO+
182.0838	12	C12H10N2+
184.0753	2	C12H10NO+
188.0261	11	C11H7ClN+
189.0211	3	C13H3NO+
191.0372	3	C10H8ClN2+
191.0596	2	C13H7N2+
192.0684	17	C13H8N2+
193.076	76	C13H9N2+
194.0838	53	C13H10N2+
195.0916	104	C13H11N2+
196.0756	2	C13H10NO+
197.0707	18	C12H9N2O+
202.029	8	C11H7ClN2+
205.0761	16	C14H9N2+
206.0836	8	C14H10N2+
208.0631	16	C13H8N2O+
212.0581	14	C12H8N2O2+
214.0288	13	
215.037	526	C12H8ClN2+
216.045	12	C15H6NO+
223.0868	4	C14H11N2O+
