Mass spectrum: Dichlofenthion; LC-ESI-QFT; MS2; CE: 180%; R=17500; [M+H]+
Name: Dichlofenthion
Name: (2,4-dichlorophenoxy)-diethoxy-sulfanylidene-lambda5-phosphane
Formula: C10H13Cl2O3PS
Exact mass: 313.9700
SMILES: CCOP(=S)(OCC)OC1=C(C=C(C=C1)Cl)Cl
InChI: InChI=1S/C10H13Cl2O3PS/c1-3-13-16(17,14-4-2)15-10-6-5-8(11)7-9(10)12/h5-7H,3-4H2,1-2H3
Instrument: Exploris 240 Orbitrap Thermo Scientific
Instrument type: LC-ESI-QFT
Ms type: MS2
Ion mode: POSITIVE
Ionization: ESI
Fragmentation mode: HCD
Collision energy: 180 % (nominal)
Resolution: 17500
Column name: XBridge C18 3.5um, 2.1x50mm, Waters
Retention time: 13.510 min
Base peak: 314.9773
Precursor m/z: 314.9773
Precursor type: [M+H]+
m/z	relative intensity	assigned
50.0151	87	C4H2+
51.0229	264	C4H3+
62.9452	27	PS+
62.9631	61	CClO+
63.0229	537	C5H3+
64.0309	88	C5H4+
64.9787	719	H2O2P+
65.0385	324	C5H5+
68.9793	128	C3HS+
72.9839	999	C3H2Cl+
74.0151	932	C6H2+
75.0231	207	C6H3+
78.9402	228	OPS+
81.9872	47	C4H2S+
82.945	274	CHCl2+
86.9997	62	C4H4Cl+
96.9508	53	H2O2PS+
98.9844	55	CH4ClO3+
98.9994	167	C5H4Cl+
100.0077	80	C5H5Cl+
106.9452	54	C3HCl2+
106.9951	88	C6H3S+
108.0029	55	C6H4S+
108.9839	94	C6H2Cl+
109.0106	29	C6H5S+
114.9947	74	C5H4ClO+
128.0029	91	C6H5ClO+
132.9607	92	C5H3Cl2+
141.9641	62	C5H3OPS+
