Mass spectrum: Pyrimethanil; LC-ESI-ITFT; MS2; CE: 75%; R=7500; [M+H]+
Name: Pyrimethanil
Name: (4,6-dimethylpyrimidin-2-yl)-phenyl-amine
Formula: C12H13N3
Exact mass: 199.1109
SMILES: c(ccc1N-c(nc(c2)C)nc2C)cc1
InChI: InChI=1S/C12H13N3/c1-9-8-10(2)14-12(13-9)15-11-6-4-3-5-7-11/h3-8H,1-2H3,(H,13,14,15)
Instrument: LTQ Orbitrap XL Thermo Scientific
Instrument type: LC-ESI-ITFT
Ms type: MS2
Ion mode: POSITIVE
Ionization: ESI
Fragmentation mode: HCD
Collision energy: 75 % (nominal)
Resolution: 7500
Column name: XBridge C18 3.5um, 2.1x50mm, Waters
Retention time: 7.6 min
Base peak: 200.1185
Precursor m/z: 200.1182
Precursor type: [M+H]+
m/z	relative intensity	assigned
53.0383	4	C4H5+
58.065	4	C3H8N+
65.0385	5	C5H5+
66.0338	20	C4H4N+
67.0291	10	C3H3N2+
67.0416	10	C4H5N+
77.0386	12	C6H5+
80.0494	62	C5H6N+
82.0651	209	C5H8N+
83.0604	18	C4H7N2+
92.0495	21	C6H6N+
93.0573	17	C6H7N+
107.0603	267	C6H7N2+
115.0544	8	C9H7+
117.0571	3	C8H7N+
118.0527	5	C7H6N2+
118.0651	27	C8H8N+
119.0604	43	C7H7N2+
125.0709	84	C6H9N2O+
129.0703	6	C10H9+
131.0598	5	C8H7N2+
132.0803	3	C9H10N+
140.0496	3	C10H6N+
142.0651	40	C10H8N+
143.0605	66	C9H7N2+
143.0726	10	C10H9N+
156.068	3	C10H8N2+
156.0809	18	C11H10N+
158.0966	6	C11H12N+
159.0915	38	C10H11N2+
166.0655	12	C12H8N+
167.0731	13	C12H9N+
168.0681	99	C11H8N2+
173.1078	7	C11H13N2+
181.0758	12	C12H9N2+
182.0838	110	C12H10N2+
183.0916	293	C12H11N2+
184.0865	5	C11H10N3+
185.0947	12	C11H11N3+
198.1032	6	C12H12N3+
200.1182	999	C12H14N3+
