Mass spectrum: Pyrilamine; LC-ESI-QFT; MS2; CE: 60; R=35000; [M+H]+
Name: Pyrilamine
Name: N`-[(4-methoxyphenyl)methyl]-N,N-dimethyl-N`-(2-pyridinyl)ethane-1,2-diamine
Formula: C17H23N3O
Exact mass: 285.18411
SMILES: O(c1ccc(cc1)CN(c2ncccc2)CCN(C)C)C
InChI: InChI=1S/C17H23N3O/c1-19(2)12-13-20(17-6-4-5-11-18-17)14-15-7-9-16(21-3)10-8-15/h4-11H,12-14H2,1-3H3
Instrument: Q Exactive Orbitrap Thermo Scientific
Instrument type: LC-ESI-QFT
Ms type: MS2
Ion mode: POSITIVE
Ionization: ESI
Fragmentation mode: HCD
Collision energy: 60 (nominal)
Resolution: 35000
Column name: XBridge C18 3.5um, 2.1x50mm, Waters
Retention time: 5.2 min
Base peak: 286.1919
Precursor m/z: 286.1914
Precursor type: [M+H]+
m/z	relative intensity	assigned
72.0808	6	C4H10N+
77.0385	1	C6H5+
78.0464	5	C6H6+
91.0543	12	C7H7+
93.0699	1	C7H9+
95.0493	9	C6H7O+
105.0448	2	C6H5N2+
106.0416	2	C7H6O+
119.0607	3	C7H7N2+
121.065	999	C8H9O+
241.1337	5	C15H17N2O+
