Mass spectrum: Dexamethasone; LC-ESI-ITFT; MS2; CE: 45%; R=15000; [M+H]+
Name: Dexamethasone
Name: (8S,9R,10S,11S,13S,14S,16R,17R)-9-fluoranyl-10,13,16-trimethyl-11,17-bis(oxidanyl)-17-(2-oxidanylethanoyl)-6,7,8,11,12,14,15,16-octahydrocyclopenta[a]phenanthren-3-one
Formula: C22H29FO5
Exact mass: 392.1999
SMILES: [H][C@@]12C[C@@H](C)[C@](O)(C(=O)CO)[C@@]1(C)C[C@H](O)[C@@]3(F)[C@@]2([H])CCC4=CC(=O)C=C[C@]34C
InChI: InChI=1S/C22H29FO5/c1-12-8-16-15-5-4-13-9-14(25)6-7-19(13,2)21(15,23)17(26)10-20(16,3)22(12,28)18(27)11-24/h6-7,9,12,15-17,24,26,28H,4-5,8,10-11H2,1-3H3/t12-,15+,16+,17+,19+,20+,21+,22+/m1/s1
Instrument: LTQ Orbitrap XL Thermo Scientific
Instrument type: LC-ESI-ITFT
Ms type: MS2
Ion mode: POSITIVE
Ionization: ESI
Fragmentation mode: HCD
Collision energy: 45 % (nominal)
Resolution: 15000
Column name: XBridge C18 3.5um, 2.1x50mm, Waters
Retention time: 9.5 min
Base peak: 393.2068
Precursor m/z: 393.2072
Precursor type: [M+H]+
m/z	relative intensity	assigned
93.0699	137	C7H9+
95.0488	35	C6H7O+
95.0855	125	C7H11+
97.0646	43	C6H9O+
105.0699	59	C8H9+
107.0855	287	C8H11+
109.1011	59	C8H13+
119.0855	175	C9H11+
121.0649	273	C8H9O+
121.101	136	C9H13+
123.0807	72	C8H11O+
125.0594	66	C7H9O2+
131.0854	126	C10H11+
133.0651	89	C9H9O+
133.1013	54	C10H13+
135.0804	278	C9H11O+
137.0961	59	C9H13O+
143.0857	56	C11H11+
145.065	84	C10H9O+
145.1009	52	C11H13+
147.0804	999	C10H11O+
149.0961	148	C10H13O+
153.0908	63	C9H13O2+
159.0803	249	C11H11O+
161.0962	175	C11H13O+
171.0804	424	C12H11O+
173.096	292	C12H13O+
175.1116	31	C12H15O+
177.0912	51	C11H13O2+
183.0801	39	C13H11O+
185.0961	201	C13H13O+
187.075	97	C12H11O2+
187.1118	108	C13H15O+
193.1012	43	C15H13+
196.089	45	C14H12O+
197.0961	184	C14H13O+
199.1112	74	C14H15O+
209.0961	109	C15H13O+
209.132	68	C16H17+
210.1038	39	C15H14O+
211.1117	222	C15H15O+
212.119	47	C15H16O+
213.1272	148	C15H17O+
215.1062	52	C14H15O2+
219.1167	106	C17H15+
221.0957	92	C16H13O+
222.1037	176	C16H14O+
223.1114	269	C16H15O+
224.1189	76	C16H16O+
225.1272	106	C16H17O+
227.1424	98	C16H19O+
234.1034	40	C17H14O+
235.1116	163	C17H15O+
237.1272	635	C17H17O+
239.1429	237	C17H19O+
241.1225	101	C16H17O2+
248.1198	34	C18H16O+
249.1273	115	C18H17O+
251.1436	82	C18H19O+
253.1224	91	C17H17O2+
253.1579	69	C18H21O+
255.1382	68	C17H19O2+
261.1275	104	C19H17O+
262.1344	108	C19H18O+
263.1428	279	C19H19O+
274.1364	42	C17H19FO2+
275.1413	53	C12H20FN2O4+
276.15	79	C20H20O+
277.1585	216	C20H21O+
278.1664	185	C20H22O+
279.1743	291	C20H23O+
286.1349	41	C21H18O+
289.1584	105	C21H21O+
291.1743	142	C21H23O+
301.1583	48	C22H21O+
307.1699	65	C21H23O2+
319.1697	96	C22H23O2+
393.2085	50	C22H30FO5+
