Mass spectrum: Quinmerac; LC-ESI-QFT; MS2; CE: 75; R=35000; [M+H]+
Name: Quinmerac
Name: 7-chloro-3-methyl-quinoline-8-carboxylic acid
Name: 7-chloro-3-methylquinoline-8-carboxylic acid
Formula: C11H8ClNO2
Exact mass: 221.02436
SMILES: CC1=CN=C2C(=C1)C=CC(=C2C(=O)O)Cl
InChI: InChI=1S/C11H8ClNO2/c1-6-4-7-2-3-8(12)9(11(14)15)10(7)13-5-6/h2-5H,1H3,(H,14,15)
Instrument: Q Exactive Plus Orbitrap Thermo Scientific
Instrument type: LC-ESI-QFT
Ms type: MS2
Ion mode: POSITIVE
Ionization: ESI
Fragmentation mode: HCD
Collision energy: 75 (nominal)
Resolution: 35000
Column name: XBridge C18 3.5um, 2.1x50mm, Waters
Retention time: 5.2 min
Base peak: 222.0312
Precursor m/z: 222.0316
Precursor type: [M+H]+
m/z	relative intensity	assigned
63.0227	1	C5H3+
90.0464	4	C7H6+
113.0385	5	C9H5+
114.0464	8	C9H6+
118.0413	2	C8H6O+
132.057	3	C9H8O+
140.0495	462	C10H6N+
141.0572	999	C10H7N+
149.0152	603	C9H6Cl+
150.0105	5	C8H5ClN+
158.06	11	C10H8NO+
168.0556	4	C10H6N3+
174.0105	2	C10H5ClN+
175.0182	5	C10H6ClN+
176.0261	557	C10H7ClN+
194.0367	248	C10H9ClNO+
204.0211	981	C11H7ClNO+
222.0317	88	C11H9ClNO2+
