Mass spectrum: Diclazuril; LC-ESI-QFT; MS2; CE: 75; R=35000; [M-H]-
Name: Diclazuril
Name: 2-(4-chlorophenyl)-2-[2,6-dichloro-4-(3,5-dioxo-1,2,4-triazin-2-yl)phenyl]acetonitrile
Formula: C17H9Cl3N4O2
Exact mass: 405.97911
SMILES: C1=CC(=CC=C1C(C#N)C2=C(C=C(C=C2Cl)N3C(=O)NC(=O)C=N3)Cl)Cl
InChI: InChI=1S/C17H9Cl3N4O2/c18-10-3-1-9(2-4-10)12(7-21)16-13(19)5-11(6-14(16)20)24-17(26)23-15(25)8-22-24/h1-6,8,12H,(H,23,25,26)
Instrument: Q Exactive Plus Orbitrap Thermo Scientific
Instrument type: LC-ESI-QFT
Ms type: MS2
Ion mode: NEGATIVE
Ionization: ESI
Fragmentation mode: HCD
Collision energy: 75 (nominal)
Resolution: 35000
Column name: XBridge C18 3.5um, 2.1x50mm, Waters
Retention time: 12.4 min
Base peak: 404.9721
Precursor m/z: 404.9718
Precursor type: [M-H]-
m/z	relative intensity	assigned
151.0179	77	C9HN3-
152.0257	69	C9H2N3-
186.9943	873	C9H2ClN3-
199.0307	127	C14H3N2-
222.9714	999	C9H3Cl2N3-
235.0073	509	C14H4ClN2-
236.015	295	C14H5ClN2-
263.002	781	
298.9784	255	
