Mass spectrum: Benproperine; LC-ESI-QFT; MS2; CE: 15; R=35000; [M+H]+
Name: Benproperine
Name: 1-[1-(2-benzylphenoxy)propan-2-yl]piperidine
Formula: C21H27NO
Exact mass: 309.20926
SMILES: CC(COC1=CC=CC=C1CC2=CC=CC=C2)N3CCCCC3
InChI: InChI=1S/C21H27NO/c1-18(22-14-8-3-9-15-22)17-23-21-13-7-6-12-20(21)16-19-10-4-2-5-11-19/h2,4-7,10-13,18H,3,8-9,14-17H2,1H3
Instrument: Q Exactive Orbitrap Thermo Scientific
Instrument type: LC-ESI-QFT
Ms type: MS2
Ion mode: POSITIVE
Ionization: ESI
Fragmentation mode: HCD
Collision energy: 15 (nominal)
Resolution: 35000
Column name: XBridge C18 3.5um, 2.1x50mm, Waters
Retention time: 8.8 min
Base peak: 310.2167
Precursor m/z: 310.2165
Precursor type: [M+H]+
m/z	relative intensity	assigned
84.0806	1	C5H10N+
126.1277	7	C8H16N+
310.2165	999	C21H28NO+
