Mass spectrum: Cyanazine; LC-ESI-ITFT; MS2; CE: 75%; R=15000; [M+H]+
Name: Cyanazine
Name: 2-[[4-chloranyl-6-(ethylamino)-1,3,5-triazin-2-yl]amino]-2-methyl-propanenitrile
Formula: C9H13ClN6
Exact mass: 240.0890
SMILES: CCNC1=NC(=NC(=N1)Cl)NC(C)(C)C#N
InChI: InChI=1S/C9H13ClN6/c1-4-12-7-13-6(10)14-8(15-7)16-9(2,3)5-11/h4H2,1-3H3,(H2,12,13,14,15,16)
Instrument: LTQ Orbitrap XL Thermo Scientific
Instrument type: LC-ESI-ITFT
Ms type: MS2
Ion mode: POSITIVE
Ionization: ESI
Fragmentation mode: HCD
Collision energy: 75 % (nominal)
Resolution: 15000
Column name: XBridge C18 3.5um, 2.1x50mm, Waters
Retention time: 6.6 min
Base peak: 241.0971
Precursor m/z: 241.0963
Precursor type: [M+H]+
m/z	relative intensity	assigned
58.065	14	C3H8N+
61.9791	63	CHClN+
67.0291	12	C3H3N2+
68.0244	727	C2H2N3+
71.0604	371	C3H7N2+
79.0058	187	CH4ClN2+
83.0604	261	C4H7N2+
85.0759	14	C4H9N2+
90.0105	36	C3H5ClN+
95.0604	9	C5H7N2+
96.0556	468	C4H6N3+
104.001	999	C2H3ClN3+
108.0557	43	C5H6N3+
110.0461	26	C3H4N5+
110.0713	73	C5H8N3+
111.0791	13	C5H9N3+
119.0371	110	C4H8ClN2+
132.0323	443	C4H7ClN3+
136.0869	146	C7H10N3+
138.0774	54	C5H8N5+
144.0324	32	C5H7ClN3+
146.0228	145	C3H5ClN5+
150.0773	12	C6H8N5+
173.0589	43	C6H10ClN4+
174.054	164	C5H9ClN5+
177.0886	17	C7H9N6+
178.1087	33	C8H12N5+
186.0539	47	C6H9ClN5+
197.0585	11	C8H10ClN4+
214.0852	461	C8H13ClN5+
