Mass spectrum: 2,6-Di-tert-butylpyridine; LC-ESI-QFT; MS2; CE: 120; R=35000; [M+H]+
Name: 2,6-Di-tert-butylpyridine
Name: 2,6-ditert-butylpyridine
Name: 2,6-Bis(2-methyl-2-propanyl)pyridine
Formula: C13H21N
Exact mass: 191.16740
SMILES: CC(C)(C)C1=NC(=CC=C1)C(C)(C)C
InChI: InChI=1S/C13H21N/c1-12(2,3)10-8-7-9-11(14-10)13(4,5)6/h7-9H,1-6H3
Instrument: Q Exactive Plus Orbitrap Thermo Scientific
Instrument type: LC-ESI-QFT
Ms type: MS2
Ion mode: POSITIVE
Ionization: ESI
Fragmentation mode: HCD
Collision energy: 120 (nominal)
Resolution: 35000
Column name: XBridge C18 3.5um, 2.1x50mm, Waters
Retention time: 5.5 min
Base peak: 164.9844
Precursor m/z: 192.1747
Precursor type: [M+H]+
m/z	relative intensity	assigned
51.0228	1	C4H3+
53.0022	2	C3HO+
53.0385	5	C4H5+
54.0338	2	C3H4N+
55.0178	4	C3H3O+
55.0542	21	C4H7+
56.0495	1	C3H6N+
57.0698	6	C4H9+
58.0651	1	C3H8N+
59.0491	1	C3H7O+
65.0385	9	C5H5+
66.0464	4	C5H6+
67.0542	2	C5H7+
69.0698	4	C5H9+
77.0384	4	C6H5+
78.0337	5	C5H4N+
78.0463	1	C6H6+
79.0542	38	C6H7+
80.0494	18	C5H6N+
80.0621	4	C6H8+
81.0335	1	C5H5O+
81.0573	7	C5H7N+
82.0651	4	C5H8N+
83.0364	1	C4H5NO+
91.0542	31	C7H7+
92.0496	5	C6H6N+
93.0573	9	C6H7N+
93.0699	42	C7H9+
94.0652	11	C6H8N+
95.0365	4	C5H5NO+
95.0491	12	C6H7O+
95.0729	5	C6H9N+
96.0443	12	C5H6NO+
103.0542	10	C8H7+
104.0494	10	C7H6N+
105.0447	10	C6H5N2+
105.0571	6	C7H7N+
105.0698	8	C8H9+
106.0651	137	C7H8N+
107.0729	23	C7H9N+
108.0443	4	C6H6NO+
108.0806	5	C7H10N+
109.0523	1	C6H7NO+
109.0648	1	C7H9O+
110.0602	6	C6H8NO+
117.0573	1	C8H7N+
117.0699	4	C9H9+
118.0651	23	C8H8N+
119.073	90	C8H9N+
120.0808	107	C8H10N+
121.0523	4	C7H7NO+
121.0886	87	C8H11N+
122.06	23	C7H8NO+
123.0678	4	C7H9NO+
124.0757	1	C7H10NO+
130.0649	3	C9H8N+
131.0729	2	C9H9N+
132.0808	519	C9H10N+
133.0886	328	C9H11N+
134.06	16	C8H8NO+
134.0964	40	C9H12N+
135.1041	5	C9H13N+
136.0758	4	C8H10NO+
136.1121	8	C9H14N+
138.0913	7	C8H12NO+
144.0805	1	C10H10N+
146.0964	866	C10H12N+
147.1042	976	C10H13N+
148.112	200	C10H14N+
149.1198	16	C10H15N+
150.0914	43	C9H12NO+
160.1121	22	C11H14N+
161.1199	48	C11H15N+
162.1277	999	C11H16N+
163.1353	9	C11H17N+
176.1434	511	C12H18N+
177.1513	10	C12H19N+
