Mass spectrum: Propranolol; LC-ESI-ITFT; MS2; CE: 60%; R=15000; [M+H]+
Name: Propranolol
Name: 1-(1-naphthalenyloxy)-3-(propan-2-ylamino)-2-propanol
Formula: C16H21NO2
Exact mass: 259.1572
SMILES: CC(C)NCC(COC1=CC=CC2=CC=CC=C21)O
InChI: InChI=1S/C16H21NO2/c1-12(2)17-10-14(18)11-19-16-9-5-7-13-6-3-4-8-15(13)16/h3-9,12,14,17-18H,10-11H2,1-2H3
Instrument: LTQ Orbitrap XL Thermo Scientific
Instrument type: LC-ESI-ITFT
Ms type: MS2
Ion mode: POSITIVE
Ionization: ESI
Fragmentation mode: HCD
Collision energy: 60 % (nominal)
Resolution: 15000
Column name: XBridge C18 3.5um, 2.1x50mm, Waters
Retention time: 6.6 min
Base peak: 260.165
Precursor m/z: 260.1645
Precursor type: [M+H]+
m/z	relative intensity	assigned
56.0494	451	C3H6N+
58.0651	416	C3H8N+
72.0807	537	C4H10N+
74.06	957	C3H8NO+
84.0809	37	C5H10N+
86.0963	36	C5H12N+
98.0964	427	C6H12N+
100.112	237	C6H14N+
115.0541	49	C9H7+
116.1069	873	C6H14NO+
117.0699	14	C9H9+
128.0619	16	C10H8+
129.0698	271	C10H9+
141.0697	95	C11H9+
143.049	66	C10H7O+
143.0853	14	C11H11+
144.0572	22	C10H8O+
145.0647	208	C10H9O+
153.0698	161	C12H9+
154.0774	23	C12H10+
155.0854	999	C12H11+
157.0647	788	C11H9O+
165.0697	273	C13H9+
168.0566	80	C12H8O+
171.08	41	C12H11O+
182.0724	19	C13H10O+
183.0803	679	C13H11O+
