Mass spectrum: Dialifos; LC-ESI-QFT; MS2; CE: 45%; R=17500; [M+H]+
Name: Dialifos
Name: Dialifor
Name: 2-(2-chloro-1-diethoxyphosphinothioylsulfanylethyl)isoindole-1,3-dione
Formula: C14H17ClNO4PS2
Exact mass: 393.0025
SMILES: CCOP(=S)(OCC)SC(CCl)N1C(=O)C2=CC=CC=C2C1=O
InChI: InChI=1S/C14H17ClNO4PS2/c1-3-19-21(22,20-4-2)23-12(9-15)16-13(17)10-7-5-6-8-11(10)14(16)18/h5-8,12H,3-4,9H2,1-2H3
Instrument: Exploris 240 Orbitrap Thermo Scientific
Instrument type: LC-ESI-QFT
Ms type: MS2
Ion mode: POSITIVE
Ionization: ESI
Fragmentation mode: HCD
Collision energy: 45 % (nominal)
Resolution: 17500
Column name: XBridge C18 3.5um, 2.1x50mm, Waters
Retention time: 11.982 min
Base peak: 439.042
Precursor m/z: 394.0098
Precursor type: [M+H]+
m/z	relative intensity	assigned
89.0389	7	C7H5+
96.9506	90	H2O2PS+
105.0334	20	C7H5O+
110.9663	4	CH4O2PS+
114.9613	57	H4O3PS+
117.0339	7	C8H5O+
125.0153	8	C7H6Cl+
130.0286	16	C8H4NO+
130.9384	397	H4O2PS2+
137.0149	6	C7H6OP+
144.0444	25	C9H6NO+
145.0278	10	C9H5O2+
153.011	19	C4H9ClNOP+
158.9697	141	C2H8O2PS2+
166.9894	67	C8H4ClO2+
172.0396	43	C10H6NO2+
180.0208	48	C9H7ClNO+
181.005	271	C9H6ClO2+
208.0159	999	C10H7ClNO2+
