Mass spectrum: Ifosfamide; LC-ESI-ITFT; MS2; CE: 35%; R=30000; [M+H]+
Name: Ifosfamide
Name: Isophosphamide
Name: N,3-Bis(2-chloroethyl)-1,3,2-oxazaphosphinan-2-amine 2-oxide
Formula: C7H15Cl2N2O2P
Exact mass: 260.0248
SMILES: ClCCN(P(OC1)(=O)NCCCl)CC1
InChI: InChI=1S/C7H15Cl2N2O2P/c8-2-4-10-14(12)11(6-3-9)5-1-7-13-14/h1-7H2,(H,10,12)
Instrument: LTQ Orbitrap XL Thermo Scientific
Instrument type: LC-ESI-ITFT
Ms type: MS2
Ion mode: POSITIVE
Ionization: ESI
Fragmentation mode: CID
Collision energy: 35 % (nominal)
Resolution: 30000
Column name: XBridge C18 3.5um, 2.1x50mm, Waters
Retention time: 6.3 min
Base peak: 261.0321
Precursor m/z: 261.0321
Precursor type: [M+H]+
m/z	relative intensity	assigned
78.0106	16	C2H5ClN+
92.0262	37	C3H7ClN+
115.9665	1	ClH4NO2P+
118.0418	1	CH12ClN2P+
120.0576	24	C5H11ClN+
125.9509	1	C2H2Cl2NO+
127.9664	3	C2H4Cl2NO+
128.0261	2	C6H7ClN+
139.9666	1	C3H4Cl2NO+
141.9821	1	C3H6Cl2NO+
146.0366	25	C5H9NO2P+
153.9819	146	C3H6ClNO2P+
164.9865	1	C5H7ClO2P+
182.0133	291	C6H10Cl2NO+
184.0293	1	C6H12Cl2NO+
185.0241	2	C4H11ClN2O2P+
199.04	1	C6H13Cl2N2O+
200.0238	22	C6H12Cl2NO2+
217.99	7	C5H11Cl2NO2P+
225.055	1	C7H15ClN2O2P+
233.0008	999	C5H12Cl2N2O2P+
