Mass spectrum: Imidacloprid; LC-ESI-ITFT; MS2; CE: 90%; R=7500; [M+H]+
Name: Imidacloprid
Name: N-[1-[(6-chloranylpyridin-3-yl)methyl]-4,5-dihydroimidazol-2-yl]nitramide
Formula: C9H10ClN5O2
Exact mass: 255.0523
SMILES: Cl-c(ncc1CN(CC2)C(N2)=NN(=O)=O)cc1
InChI: InChI=1S/C9H10ClN5O2/c10-8-2-1-7(5-12-8)6-14-4-3-11-9(14)13-15(16)17/h1-2,5H,3-4,6H2,(H,11,13)
Instrument: LTQ Orbitrap XL Thermo Scientific
Instrument type: LC-ESI-ITFT
Ms type: MS2
Ion mode: POSITIVE
Ionization: ESI
Fragmentation mode: HCD
Collision energy: 90 % (nominal)
Resolution: 7500
Column name: XBridge C18 3.5um, 2.1x50mm, Waters
Retention time: 4.8 min
Base peak: 256.0596
Precursor m/z: 256.0596
Precursor type: [M+H]+
m/z	relative intensity	assigned
56.0494	16	C3H6N+
63.0227	6	C5H3+
65.0386	16	C5H5+
69.0447	14	C3H5N2+
71.0604	11	C3H7N2+
72.9839	4	C3H2Cl+
78.0338	9	C5H4N+
79.0543	6	C6H7+
80.0372	3	C4H4N2+
80.0494	32	C5H6N+
84.0556	202	C3H6N3+
90.0339	39	C6H4N+
91.0416	13	C6H5N+
92.0367	8	C5H4N2+
92.0494	39	C6H6N+
93.0448	11	C5H5N2+
93.0572	18	C6H7N+
95.0604	7	C5H7N2+
96.0443	22	C5H6NO+
96.0553	4	C4H6N3+
97.0631	3	C4H7N3+
98.0712	16	C4H8N3+
98.9996	34	C5H4Cl+
99.0553	22	C4H7N2O+
104.0494	22	C7H6N+
105.0447	125	C6H5N2+
106.0525	11	C6H6N2+
106.0651	104	C7H8N+
107.0603	90	C6H7N2+
108.0682	25	C6H8N2+
109.0633	14	C5H7N3+
110.0601	7	C6H8NO+
111.9948	6	C5H3ClN+
113.0024	10	C5H4ClN+
114.0104	34	C5H5ClN+
117.0446	17	C7H5N2+
117.0569	6	C8H7N+
118.0398	7	C6H4N3+
118.0525	42	C7H6N2+
119.0478	31	C6H5N3+
119.0603	93	C7H7N2+
120.0556	95	C6H6N3+
120.0686	8	C7H8N2+
121.0401	6	C6H5N2O+
121.0635	6	C6H7N3+
121.0761	11	C7H9N2+
122.0713	24	C6H8N3+
123.0553	26	C6H7N2O+
126.0104	168	C6H5ClN+
127.0183	50	C6H6ClN+
128.0261	83	C6H7ClN+
130.0056	6	C5H5ClNO+
130.0395	7	C7H4N3+
131.0477	14	C7H5N3+
131.0603	93	C8H7N2+
132.0556	61	C7H6N3+
132.0683	29	C8H8N2+
133.0634	142	C7H7N3+
133.076	102	C8H9N2+
134.0713	88	C7H8N3+
135.0552	19	C7H7N2O+
135.0791	39	C7H9N3+
138.0104	11	C7H5ClN+
139.0056	36	C6H4ClN2+
139.0185	4	C7H6ClN+
140.0137	6	C6H5ClN2+
140.0263	19	C7H7ClN+
141.0214	137	C6H6ClN2+
142.0292	4	C6H7ClN2+
144.0209	20	C6H7ClNO+
144.9924	27	C5H4ClNO2+
145.0508	24	C7H5N4+
146.0586	34	C7H6N4+
146.0712	225	C8H8N3+
147.0664	327	C7H7N4+
147.0796	18	C8H9N3+
148.074	18	C7H8N4+
148.0869	137	C8H10N3+
150.0664	9	C7H8N3O+
151.0059	7	C7H4ClN2+
151.0186	8	C8H6ClN+
152.0129	8	C7H5ClN2+
153.0207	15	C7H6ClN2+
154.0164	12	C9H2N2O+
155.037	7	C7H8ClN2+
157.0634	36	C9H7N3+
158.0712	159	C9H8N3+
159.0791	287	C9H9N3+
160.0746	9	C8H8N4+
160.0877	12	C9H10N3+
163.0613	11	C7H7N4O+
165.0213	11	C8H6ClN2+
166.0167	76	C7H5ClN3+
167.037	58	C8H8ClN2+
168.033	4	C7H7ClN3+
172.0741	5	C9H8N4+
173.0821	514	C9H9N4+
174.0899	225	C9H10N4+
175.0977	684	C9H11N4+
180.0198	49	C7H5ClN4+
181.0275	97	C7H6ClN4+
182.0471	4	C8H9ClN3+
191.0924	52	C9H11N4O+
192.0316	5	C9H7ClN3+
193.0275	7	C8H6ClN4+
194.048	45	C9H9ClN3+
207.0431	29	C9H8ClN4+
208.0507	96	C9H9ClN4+
209.0587	999	C9H10ClN4+
