Mass spectrum: Epinephrine; LC-ESI-QFT; MS2; CE: 30; R=35000; [M-H]-
Name: Epinephrine
Name: 4-[(1R)-1-hydroxy-2-(methylamino)ethyl]benzene-1,2-diol
Formula: C9H13NO3
Exact mass: 183.08954
SMILES: CNC[C@@H](C1=CC(=C(C=C1)O)O)O
InChI: InChI=1S/C9H13NO3/c1-10-5-9(13)6-2-3-7(11)8(12)4-6/h2-4,9-13H,5H2,1H3/t9-/m0/s1
Instrument: Q Exactive Orbitrap Thermo Scientific
Instrument type: LC-ESI-QFT
Ms type: MS2
Ion mode: NEGATIVE
Ionization: ESI
Fragmentation mode: HCD
Collision energy: 30 (nominal)
Resolution: 35000
Column name: XBridge C18 3.5um, 2.1x50mm, Waters
Retention time: 0.8 min
Base peak: 182.0824
Precursor m/z: 182.0823
Precursor type: [M-H]-
m/z	relative intensity	assigned
108.0217	1	C6H4O2-
109.0296	7	C6H5O2-
121.0296	1	C7H5O2-
122.0374	139	C7H6O2-
123.0452	7	C7H7O2-
124.0166	2	C6H4O3-
135.0452	7	C8H7O2-
137.0245	6	C7H5O3-
137.0609	2	C8H9O2-
139.0403	1	C7H7O3-
148.0403	3	C8H6NO2-
149.0482	76	C8H7NO2-
154.0272	6	C7H6O4-
162.0564	11	C9H8NO2-
163.0643	1	C9H9NO2-
164.0717	999	C9H10NO2-
182.0823	80	C9H12NO3-
