Mass spectrum: Fludrocortisone; LC-ESI-QFT; MS2; CE: 90; R=35000; [M+H]+
Name: Fludrocortisone
Name: [2-[(8S,9R,10S,11S,13S,14S,17R)-9-fluoro-11,17-dihydroxy-10,13-dimethyl-3-oxo-1,2,6,7,8,11,12,14,15,16-decahydrocyclopenta[a]phenanthren-17-yl]-2-oxoethyl] acetate
Formula: C23H31FO6
Exact mass: 422.21047
SMILES: O=C(OCC(=O)[C@]3(O)[C@]2(C[C@H](O)[C@]4(F)[C@@]1(/C(=C\C(=O)CC1)CC[C@H]4[C@@H]2CC3)C)C)C
InChI: InChI=1S/C23H31FO6/c1-13(25)30-12-19(28)22(29)9-7-16-17-5-4-14-10-15(26)6-8-20(14,2)23(17,24)18(27)11-21(16,22)3/h10,16-18,27,29H,4-9,11-12H2,1-3H3/t16-,17-,18-,20-,21-,22-,23-/m0/s1
Instrument: Q Exactive Orbitrap Thermo Scientific
Instrument type: LC-ESI-QFT
Ms type: MS2
Ion mode: POSITIVE
Ionization: ESI
Fragmentation mode: HCD
Collision energy: 90 (nominal)
Resolution: 35000
Column name: XBridge C18 3.5um, 2.1x50mm, Waters
Retention time: 9.4 min
Base peak: 423.2179
Precursor m/z: 423.2177
Precursor type: [M+H]+
m/z	relative intensity	assigned
53.0023	9	C3HO+
53.0388	26	C4H5+
55.018	33	C3H3O+
55.0544	25	C4H7+
59.0293	5	C3H4F+
61.0285	14	C2H5O2+
65.0386	93	C5H5+
67.0543	261	C5H7+
69.0336	45	C4H5O+
69.0699	25	C5H9+
71.0493	12	C4H7O+
73.0449	32	C4H6F+
77.0386	26	C6H5+
78.0464	7	C6H6+
79.0543	441	C6H7+
81.0335	33	C5H5O+
81.0699	179	C6H9+
83.0492	153	C5H7O+
91.0543	999	C7H7+
93.0699	272	C7H9+
94.0413	7	C6H6O+
95.0492	382	C6H7O+
95.0856	129	C7H11+
97.0648	177	C6H9O+
101.0398	82	C5H6FO+
103.0543	150	C8H7+
104.0622	11	C8H8+
105.0448	57	C6H5N2+
105.0699	760	C8H9+
107.0492	126	C7H7O+
107.0856	79	C8H11+
108.0571	24	C7H8O+
109.0447	44	C7H6F+
109.065	76	C7H9O+
109.1012	5	C8H13+
115.0543	266	C9H7+
116.062	114	C9H8+
117.0699	267	C9H9+
118.0778	7	C9H10+
119.0491	19	C8H7O+
119.0856	274	C9H11+
121.0649	283	C8H9O+
121.1013	14	C9H13+
123.0606	56	C8H8F+
123.0805	143	C8H11O+
127.0543	13	C10H7+
128.0621	626	C10H8+
129.0699	376	C10H9+
130.0778	109	C10H10+
131.0493	29	C9H7O+
131.0856	224	C10H11+
132.0571	37	C9H8O+
133.0447	6	C9H6F+
133.0648	60	C9H9O+
133.1012	76	C10H13+
135.0601	7	C9H8F+
135.0804	66	C9H11O+
137.0761	14	C9H10F+
139.0549	8	C8H8FO+
141.0698	322	C11H9+
142.0779	284	C11H10+
143.0857	273	C11H11+
144.0571	35	C10H8O+
144.0935	17	C11H12+
145.0648	177	C10H9O+
145.1014	85	C11H13+
146.0526	14	C10H7F+
146.0727	38	C10H10O+
147.0804	103	C10H11O+
147.1168	7	C11H15+
148.0684	12	C10H9F+
148.0882	45	C10H12O+
149.0961	5	C10H13O+
152.062	69	C12H8+
153.0699	193	C12H9+
154.0777	138	C12H10+
155.0604	25	C10H7N2+
155.0856	280	C12H11+
156.0934	69	C12H12+
157.0648	46	C11H9O+
157.1011	92	C12H13+
158.0726	56	C11H10O+
159.0806	83	C11H11O+
159.1167	11	C12H15+
161.0962	53	C11H13O+
163.1118	12	C11H15O+
165.07	397	C13H9+
166.0781	211	C13H10+
167.0854	253	C13H11+
168.0934	119	C13H12+
169.0647	39	C12H9O+
169.1012	168	C13H13+
170.0726	12	C12H10O+
170.1087	14	C13H14+
171.0802	63	C12H11O+
171.1171	43	C13H15+
173.0961	47	C12H13O+
174.1041	9	C12H14O+
175.1115	7	C12H15O+
178.0778	130	C14H10+
179.0855	206	C14H11+
180.0934	69	C14H12+
181.0646	36	C13H9O+
181.1013	198	C14H13+
182.0727	29	C13H10O+
182.1093	80	C14H14+
183.0806	54	C13H11O+
183.117	72	C14H15+
184.0883	25	C13H12O+
185.0963	36	C13H13O+
185.1327	11	C14H17+
187.1118	12	C13H15O+
189.0703	11	C15H9+
190.078	23	C15H10+
191.0855	167	C15H11+
192.0933	99	C15H12+
193.1011	126	C15H13+
194.0726	13	C14H10O+
194.1091	29	C15H14+
195.0804	49	C14H11O+
195.1166	82	C15H15+
196.0881	27	C14H12O+
196.124	7	C15H16+
197.096	52	C14H13O+
197.1322	27	C15H17+
198.1034	8	C14H14O+
199.1113	25	C14H15O+
202.0776	47	C16H10+
203.0852	64	C16H11+
204.0936	27	C16H12+
205.1011	74	C16H13+
206.1087	55	C16H14+
207.0802	13	C15H11O+
207.1168	54	C16H15+
208.0887	17	C15H12O+
208.1242	7	C16H16+
209.0961	68	C15H13O+
209.1324	25	C16H17+
210.1045	10	C15H14O+
211.1119	39	C15H15O+
215.0857	37	C17H11+
216.0934	26	C17H12+
217.1013	40	C17H13+
218.109	12	C17H14+
219.117	30	C17H15+
221.0966	12	C16H13O+
221.1323	11	C17H17+
222.104	13	C16H14O+
223.1118	13	C16H15O+
223.148	11	C17H19+
225.1273	33	C16H17O+
226.1354	24	C16H18O+
229.1013	8	C18H13+
231.1168	11	C18H15+
233.1327	8	C18H17+
235.1114	14	C17H15O+
237.1273	7	C17H17O+
239.1426	9	C17H19O+
240.1502	9	C17H20O+
241.158	9	C17H21O+
243.1381	44	C16H19O2+
251.1428	33	C18H19O+
