Mass spectrum: Carbosulfan; LC-ESI-QFT; MS2; CE: 30%; R=17500; [M+H]+
Name: Carbosulfan
Name: (2,2-dimethyl-3H-1-benzofuran-7-yl) N-(dibutylamino)sulfanyl-N-methylcarbamate
Formula: C20H32N2O3S
Exact mass: 380.2134
SMILES: CCCCN(CCCC)SN(C)C(=O)OC1=CC=CC2=C1OC(C2)(C)C
InChI: InChI=1S/C20H32N2O3S/c1-6-8-13-22(14-9-7-2)26-21(5)19(23)24-17-12-10-11-16-15-20(3,4)25-18(16)17/h10-12H,6-9,13-15H2,1-5H3
Instrument: Exploris 240 Orbitrap Thermo Scientific
Instrument type: LC-ESI-QFT
Ms type: MS2
Ion mode: POSITIVE
Ionization: ESI
Fragmentation mode: HCD
Collision energy: 30 % (nominal)
Resolution: 17500
Column name: XBridge C18 3.5um, 2.1x50mm, Waters
Retention time: 16.038 min
Base peak: 388.3935
Precursor m/z: 381.2206
Precursor type: [M+H]+
m/z	relative intensity	assigned
76.0215	97	C2H6NS+
86.0965	18	C5H12N+
104.053	16	C4H10NS+
118.0684	999	C5H12NS+
123.0441	8	C7H7O2+
128.1432	314	C8H18N+
149.0595	22	C9H9O2+
160.1153	430	C8H18NS+
165.0907	138	C10H13O2+
195.0474	38	C10H11O2S+
222.1125	38	C12H16NO3+
