Mass spectrum: Napropamid; LC-ESI-ITFT; MS2; CE: 90%; R=30000; [M+H]+
Name: Napropamid
Name: N,N-diethyl-2-(1-naphthalenyloxy)propanamide
Formula: C17H21NO2
Exact mass: 271.1567
SMILES: CCN(CC)C(=O)C(C)OC1=CC=CC2=CC=CC=C21
InChI: InChI=1S/C17H21NO2/c1-4-18(5-2)17(19)13(3)20-16-12-8-10-14-9-6-7-11-15(14)16/h6-13H,4-5H2,1-3H3
Instrument: LTQ Orbitrap XL Thermo Scientific
Instrument type: LC-ESI-ITFT
Ms type: MS2
Ion mode: POSITIVE
Ionization: ESI
Fragmentation mode: HCD
Collision energy: 90 % (nominal)
Resolution: 30000
Column name: XBridge C18 3.5um, 2.1x50mm, Waters
Retention time: 11.7 min
Base peak: 272.1651
Precursor m/z: 272.1645
Precursor type: [M+H]+
m/z	relative intensity	assigned
55.0178	21	C3H3O+
57.0335	74	C3H5O+
58.0651	999	C3H8N+
72.0444	99	C3H6NO+
72.0808	755	C4H10N+
74.0965	138	C4H12N+
86.0601	38	C4H8NO+
100.0757	124	C5H10NO+
100.1121	296	C6H14N+
101.0835	48	C5H11NO+
103.0543	11	C8H7+
114.0913	68	C6H12NO+
115.0542	105	C9H7+
116.062	33	C9H8+
117.0699	10	C9H9+
127.0541	33	C10H7+
128.0621	907	C10H8+
129.0698	31	C10H9+
129.1154	12	C7H15NO+
141.0699	31	C11H9+
142.0778	12	C11H10+
143.0491	14	C10H7O+
143.0855	224	C11H11+
144.057	68	C10H8O+
145.0648	39	C10H9O+
151.0543	19	C12H7+
152.0621	353	C12H8+
153.0699	268	C12H9+
155.0604	334	C10H7N2+
169.0652	13	C12H9O+
170.0728	17	C12H10O+
171.0805	109	C12H11O+
181.0761	73	C12H9N2+
