Mass spectrum: Clobazam; LC-ESI-QFT; MS2; CE: 90; R=35000; [M+H]+
Name: Clobazam
Name: 7-chloro-1-methyl-5-phenyl-1,5-benzodiazepine-2,4-dione
Formula: C16H13ClN2O2
Exact mass: 300.06656
SMILES: CN1C(=O)CC(=O)N(C2=C1C=CC(=C2)Cl)C3=CC=CC=C3
InChI: InChI=1S/C16H13ClN2O2/c1-18-13-8-7-11(17)9-14(13)19(16(21)10-15(18)20)12-5-3-2-4-6-12/h2-9H,10H2,1H3
Instrument: Q Exactive Plus Orbitrap Thermo Scientific
Instrument type: LC-ESI-QFT
Ms type: MS2
Ion mode: POSITIVE
Ionization: ESI
Fragmentation mode: HCD
Collision energy: 90 (nominal)
Resolution: 35000
Column name: XBridge C18 3.5um, 2.1x50mm, Waters
Retention time: 8.4 min
Base peak: 301.073
Precursor m/z: 301.0738
Precursor type: [M+H]+
m/z	relative intensity	assigned
50.0151	13	C4H2+
51.0229	19	C4H3+
53.0386	101	C4H5+
55.0178	4	C3H3O+
63.0229	5	C5H3+
65.0385	19	C5H5+
66.0337	1	C4H4N+
66.0463	14	C5H6+
68.9971	54	C3HO2+
75.0227	2	C6H3+
77.0384	182	C6H5+
78.0337	1	C5H4N+
78.0463	9	C6H6+
79.054	1	C6H7+
80.0494	1	C5H6N+
81.0334	11	C5H5O+
90.0338	60	C6H4N+
91.0417	7	C6H5N+
91.0542	138	C7H7+
92.0494	46	C6H6N+
93.0447	1	C5H5N2+
93.0573	10	C6H7N+
94.0413	4	C6H6O+
95.0491	294	C6H7O+
98.9995	13	C5H4Cl+
102.0337	1	C7H4N+
104.0494	19	C7H6N+
105.0335	609	C7H5O+
105.0447	210	C6H5N2+
106.0416	1	C4H9ClN+
107.0604	4	C6H7N2+
108.0442	1	C6H6NO+
109.0647	1	C7H9O+
112.0074	4	C6H5Cl+
113.0027	1	C5H4ClN+
114.0105	1	C5H5ClN+
115.0538	1	C9H7+
117.0446	121	C7H5N2+
118.0525	266	C7H6N2+
119.0603	41	C7H7N2+
126.0104	41	C6H5ClN+
127.0183	3	C6H6ClN+
128.0261	5	C6H7ClN+
129.0446	16	C8H5N2+
130.0402	1	C7H4N3+
130.065	1	C9H8N+
131.0604	1	C8H7N2+
135.0552	25	C7H7N2O+
138.0105	5	C7H5ClN+
139.0057	6	C6H4ClN2+
139.0539	3	C11H7+
140.0261	19	C7H7ClN+
140.0494	3	C10H6N+
141.0214	11	C6H6ClN2+
141.034	4	C7H8ClN+
141.0699	1	C11H9+
145.0508	166	C7H5N4+
146.0475	27	C8H6N2O+
147.0552	73	C8H7N2O+
148.0631	10	C8H8N2O+
150.0426	1	C7H6N2O2+
152.0135	4	C7H5ClN2+
152.062	1	C12H8+
153.0213	999	C7H6ClN2+
154.065	46	C11H8N+
155.0372	3	C7H8ClN2+
155.0603	1	C10H7N2+
155.0727	4	C11H9N+
163.0056	1	C8H4ClN2+
164.0491	2	C12H6N+
165.0214	18	C8H6ClN2+
166.0651	150	C12H8N+
167.0729	237	C12H9N+
168.0084	3	C7H5ClN2O+
168.0682	5	C11H8N2+
168.0806	20	C12H10N+
169.0759	4	C11H9N2+
169.0886	5	C12H11N+
170.0841	1	C11H10N2+
178.0649	6	C13H8N+
179.0603	10	C12H7N2+
179.0728	18	C13H9N+
180.0688	14	C12H8N2+
180.0806	72	C13H10N+
181.0162	101	C8H6ClN2O+
181.0759	220	C12H9N2+
182.024	104	C8H7ClN2O+
182.0838	108	C12H10N2+
183.0319	27	C8H8ClN2O+
183.0916	3	C12H11N2+
184.0757	1	C12H10NO+
190.0294	4	C10H7ClN2+
190.0415	1	C14H6O+
191.0598	3	C13H7N2+
193.0762	3	C13H9N2+
194.0839	10	C13H10N2+
195.0916	632	C13H11N2+
196.0756	25	C13H10NO+
196.0996	7	C13H12N2+
197.1072	1	C13H13N2+
200.0258	15	C15H4O+
201.0337	4	C15H5O+
202.0294	4	C11H7ClN2+
202.0417	25	C12H9ClN+
203.0369	51	C11H8ClN2+
205.0763	12	C14H9N2+
206.0838	3	C14H10N2+
207.0917	99	C14H11N2+
208.063	28	C13H8N2O+
209.0709	103	C13H9N2O+
214.0417	28	C13H9ClN+
215.037	583	C12H8ClN2+
216.0449	513	C15H6NO+
217.0526	50	C12H10ClN2+
218.0606	5	C12H11ClN2+
221.0707	3	C14H9N2O+
222.0785	1	C14H10N2O+
223.0865	826	C14H11N2O+
224.0943	792	C14H12N2O+
229.0287	1	C13H8ClNO+
229.0524	20	C16H7NO+
230.0607	11	C13H11ClN2+
231.0683	5	C13H12ClN2+
241.0528	1	C14H10ClN2+
243.0318	20	C16H5NO2+
244.0397	119	C13H9ClN2O+
255.068	1	C15H12ClN2+
257.0475	11	C14H10ClN2O+
258.0552	12	C14H11ClN2O+
259.0631	67	C14H12ClN2O+
