Mass spectrum: Chlortoluron; LC-ESI-ITFT; MS2; CE: 60%; R=7500; [M+H]+
Name: Chlortoluron
Name: Chlorotoluron
Name: 3-(3-chloranyl-4-methyl-phenyl)-1,1-dimethyl-urea
Formula: C10H13ClN2O
Exact mass: 212.0711
SMILES: c1(c(ccc(c1)NC(N(C)C)=O)C)Cl
InChI: InChI=1S/C10H13ClN2O/c1-7-4-5-8(6-9(7)11)12-10(14)13(2)3/h4-6H,1-3H3,(H,12,14)
Instrument: LTQ Orbitrap XL Thermo Scientific
Instrument type: LC-ESI-ITFT
Ms type: MS2
Ion mode: POSITIVE
Ionization: ESI
Fragmentation mode: HCD
Collision energy: 60 % (nominal)
Resolution: 7500
Column name: XBridge C18 3.5um, 2.1x50mm, Waters
Retention time: 8.2 min
Base peak: 213.0793
Precursor m/z: 213.0789
Precursor type: [M+H]+
m/z	relative intensity	assigned
72.0445	999	C3H6NO+
113.0149	4	C6H6Cl+
125.0146	2	C7H6Cl+
140.0263	103	C7H7ClN+
168.0211	37	C8H7ClNO+
