Mass spectrum: 4`-Hydroxy Diclofenac; LC-ESI-QFT; MS2; CE: 45; R=35000; [M-H]-
Name: 4`-Hydroxy Diclofenac
Name: 4`-hydroxydiclofenac
Name: 2-[2-(2,6-dichloro-4-hydroxyanilino)phenyl]acetic acid
Formula: C14H11Cl2NO3
Exact mass: 311.01160
SMILES: C1=CC=C(C(=C1)CC(=O)O)NC2=C(C=C(C=C2Cl)O)Cl
InChI: InChI=1S/C14H11Cl2NO3/c15-10-6-9(18)7-11(16)14(10)17-12-4-2-1-3-8(12)5-13(19)20/h1-4,6-7,17-18H,5H2,(H,19,20)
Instrument: Q Exactive Plus Orbitrap Thermo Scientific
Instrument type: LC-ESI-QFT
Ms type: MS2
Ion mode: NEGATIVE
Ionization: ESI
Fragmentation mode: HCD
Collision energy: 45 (nominal)
Resolution: 35000
Column name: XBridge C18 3.5um, 2.1x50mm, Waters
Retention time: 10.1 min
Base peak: 310.0043
Precursor m/z: 310.0043
Precursor type: [M-H]-
m/z	relative intensity	assigned
152.0511	9	C11H6N-
160.9567	13	C6H3Cl2O-
166.0663	999	C12H8N-
167.0504	2	C12H7O-
168.0455	16	C11H6NO-
170.0612	13	C11H8NO-
176.0502	3	C13H6N-
179.0376	9	C12H5NO-
184.0768	114	C12H10NO-
186.0562	4	C11H8NO2-
193.0535	39	C13H7NO-
194.0612	688	C13H8NO-
215.0145	147	C12H6ClNO-
228.0225	25	C13H7ClNO-
229.0301	506	C13H8ClNO-
230.0379	798	C13H9ClNO-
238.0512	2	C14H8NO3-
266.0146	400	C13H10Cl2NO-
