Mass spectrum: Amisulpride N-Oxide; LC-ESI-QFT; MS2; CE: 90; R=35000; [M-H]-
Name: Amisulpride N-Oxide
Name: 4-amino-N-[(1-ethyl-1-oxidopyrrolidin-1-ium-2-yl)methyl]-5-ethylsulfonyl-2-methoxybenzamide
Formula: C17H27N3O5S
Exact mass: 385.16714
SMILES: CC[N+]1(CCCC1CNC(=O)C2=CC(=C(C=C2OC)N)S(=O)(=O)CC)[O-]
InChI: InChI=1S/C17H27N3O5S/c1-4-20(22)8-6-7-12(20)11-19-17(21)13-9-16(26(23,24)5-2)14(18)10-15(13)25-3/h9-10,12H,4-8,11,18H2,1-3H3,(H,19,21)
Instrument: Q Exactive Plus Orbitrap Thermo Scientific
Instrument type: LC-ESI-QFT
Ms type: MS2
Ion mode: NEGATIVE
Ionization: ESI
Fragmentation mode: HCD
Collision energy: 90 (nominal)
Resolution: 35000
Column name: XBridge C18 3.5um, 2.1x50mm, Waters
Retention time: 4.2 min
Base peak: 430.1652
Precursor m/z: 384.1599
Precursor type: [M-H]-
m/z	relative intensity	assigned
50.0036	2	C3N-
63.9625	861	O2S-
64.9703	28	HO2S-
65.9986	104	C3NO-
66.035	19	C4H4N-
67.0189	3	C4H3O-
68.0143	1	C3H2NO-
68.0506	14	C4H6N-
68.9982	1	C3HO2-
72.0092	3	C2H2NO2-
76.0193	1	C5H2N-
78.0349	6	C5H4N-
79.9574	10	O3S-
80.0268	31	C5H4O-
81.022	1	C4H3NO-
81.0346	1	C5H5O-
88.0195	1	C6H2N-
90.0349	98	C6H4N-
91.0428	104	C6H5N-
92.0142	32	C5H2NO-
92.0506	467	C6H6N-
93.0016	372	C2H5O2S-
94.0298	28	C5H4NO-
95.0139	1	C5H3O2-
96.0456	1	C5H6NO-
98.061	1	C5H8NO-
102.0349	5	C7H4N-
103.0428	1	C7H5N-
104.0144	6	C6H2NO-
104.0383	1	C6H4N2-
105.022	16	C6H3NO-
106.0299	9	C6H4NO-
107.0377	999	C6H5NO-
108.0454	20	C6H6NO-
110.0247	4	C5H4NO2-
115.0303	1	C7H3N2-
117.0459	3	C7H5N2-
118.03	14	C7H4NO-
119.0376	1	C7H5NO-
120.0455	248	C7H6NO-
121.0294	5	C7H5O2-
121.0535	1	C7H7NO-
122.0248	56	C6H4NO2-
122.0612	122	C7H8NO-
123.0326	14	C6H5NO2-
130.066	3	C9H8N-
131.0376	3	C8H5NO-
132.009	6	C7H2NO2-
132.033	14	C7H4N2O-
132.0456	1	C8H6NO-
133.0169	6	C7H3NO2-
133.0407	11	C7H5N2O-
133.0534	13	C8H7NO-
134.0248	82	C7H4NO2-
134.0612	14	C8H8NO-
135.0326	60	C7H5NO2-
136.0404	26	C7H6NO2-
137.0482	4	C7H7NO2-
138.0197	4	C6H4NO3-
143.0616	2	C9H7N2-
144.0458	5	C9H6NO-
145.0408	11	C8H5N2O-
146.0249	12	C8H4NO2-
146.0486	3	C8H6N2O-
146.061	5	C9H8NO-
147.0328	7	C2H11O5S-
147.0565	25	C8H7N2O-
148.0405	254	C8H6NO2-
148.0768	28	C9H10NO-
150.0196	10	C7H4NO3-
150.0436	1	C7H6N2O2-
151.0511	3	C7H7N2O2-
152.0353	57	C7H6NO3-
152.0717	9	C8H10NO2-
155.0047	18	C6H5NO2S-
156.0126	79	C6H6NO2S-
158.0484	5	C9H6N2O-
159.0201	1	C8H3N2O2-
159.0564	13	C9H7N2O-
160.0281	5	C8H4N2O2-
160.0765	1	C10H10NO-
161.0357	38	C8H5N2O2-
162.0435	34	C8H6N2O2-
162.0922	2	C10H12NO-
163.0275	4	C8H5NO3-
163.0514	4	C8H7N2O2-
164.0354	13	C8H6NO3-
164.059	4	C8H8N2O2-
166.0508	3	C8H8NO3-
169.9921	1	C6H4NO3S-
170.9997	9	C6H5NO3S-
171.0359	7	C7H9NO2S-
171.0564	6	C10H7N2O-
172.0642	3	C10H8N2O-
173.072	5	C10H9N2O-
174.0433	5	C9H6N2O2-
175.0512	8	C9H7N2O2-
176.0591	3	C9H8N2O2-
176.0716	3	C10H10NO2-
177.0307	1	C8H5N2O3-
177.0669	18	C9H9N2O2-
182.0278	1	C8H8NO2S-
183.0567	6	C11H7N2O-
184.0073	30	C7H6NO3S-
184.0437	7	C8H10NO2S-
185.0723	4	C11H9N2O-
186.0231	9	C7H8NO3S-
187.0513	1	C10H7N2O2-
187.0874	1	C11H11N2O-
188.0592	4	C10H8N2O2-
189.0666	1	C10H9N2O2-
190.0748	1	C10H10N2O2-
198.0231	1	C8H8NO3S-
201.067	5	C11H9N2O2-
202.0747	4	C11H10N2O2-
203.0825	7	C11H11N2O2-
212.0024	23	C8H6NO4S-
212.0387	7	C9H10NO3S-
215.0827	4	C12H11N2O2-
217.0615	1	C11H9N2O3-
217.0982	1	C12H13N2O2-
229.0976	1	C13H13N2O2-
240.034	6	C10H10NO4S-
