Mass spectrum: Di-tert-butyl dicarbonate; LC-ESI-QFT; MS2; CE: 90; R=35000; [M-H]-
Name: Di-tert-butyl dicarbonate
Name: Carbonic acid tert-butoxycarbonyl tert-butyl ester
Formula: C10H18O5
Exact mass: 218.11542
SMILES: O=C(OC(=O)OC(C)(C)C)OC(C)(C)C
InChI: InChI=1S/C10H18O5/c1-9(2,3)14-7(11)13-8(12)15-10(4,5)6/h1-6H3
Instrument: Q Exactive Orbitrap Thermo Scientific
Instrument type: LC-ESI-QFT
Ms type: MS2
Ion mode: NEGATIVE
Ionization: ESI
Fragmentation mode: HCD
Collision energy: 90 (nominal)
Resolution: 35000
Column name: XBridge C18 3.5um, 2.1x50mm, Waters
Retention time: 22.8 min
Base peak: 218.0312
Precursor m/z: 217.1081
Precursor type: [M-H]-
m/z	relative intensity	assigned
130.0172	999	C7H2N2O-
131.0135	331	C8H3O2-
