Mass spectrum: Dronedarone; LC-ESI-ITFT; MS2; CE: 45%; R=7500; [M+H]+
Name: Dronedarone
Name: N-[2-butyl-3-[4-[3-(dibutylamino)propoxy]benzoyl]-1-benzofuran-5-yl]methanesulfonamide
Formula: C31H44N2O5S
Exact mass: 556.2971
SMILES: CS(=O)(=O)Nc1cc2c(c(oc2cc1)CCCC)C(c1ccc(cc1)OCCCN(CCCC)CCCC)=O
InChI: InChI=1S/C31H44N2O5S/c1-5-8-12-29-30(27-23-25(32-39(4,35)36)15-18-28(27)38-29)31(34)24-13-16-26(17-14-24)37-22-11-21-33(19-9-6-2)20-10-7-3/h13-18,23,32H,5-12,19-22H2,1-4H3
Instrument: LTQ Orbitrap XL Thermo Scientific
Instrument type: LC-ESI-ITFT
Ms type: MS2
Ion mode: POSITIVE
Ionization: ESI
Fragmentation mode: HCD
Collision energy: 45 % (nominal)
Resolution: 7500
Column name: XBridge C18 3.5um, 2.1x50mm, Waters
Retention time: 11.5 min
Base peak: 557.3051
Precursor m/z: 557.3044
Precursor type: [M+H]+
m/z	relative intensity	assigned
58.0652	317	C3H8N+
70.0651	5	C4H8N+
72.0808	7	C4H10N+
86.0964	25	C5H12N+
100.1122	999	C6H14N+
112.1119	17	C7H14N+
114.1278	136	C7H16N+
121.0284	6	C7H5O2+
128.1434	73	C8H18N+
130.1593	6	C8H20N+
142.1591	513	C9H20N+
161.0597	17	C10H9O2+
170.1903	121	C11H24N+
195.9654	2	C2H2N3O6S+
214.0861	2	C13H12NO2+
215.0937	13	C13H13NO2+
216.1014	4	C13H14NO2+
252.0326	6	C11H10NO4S+
278.0813	4	C17H12NO3+
293.1428	1	C13H25O5S+
294.0792	84	C14H16NO4S+
308.1273	7	C19H18NO3+
309.1353	11	C19H19NO3+
310.1439	11	C19H20NO3+
320.1282	3	C20H18NO3+
324.1605	9	C20H22NO3+
336.1592	29	C21H22NO3+
350.1764	3	C22H24NO3+
366.1912	2	C19H28NO6+
379.201	17	C23H27N2O3+
388.1216	7	C20H22NO5S+
393.2185	8	C24H29N2O3+
421.2477	3	C26H33N2O3+
435.2639	138	C27H35N2O3+
436.2676	9	C28H38NOS+
501.2415	17	C27H37N2O5S+
557.3059	110	C31H45N2O5S+
