Mass spectrum: Atenolol; LC-ESI-ITFT; MS2; CE: 30%; R=7500; [M+H]+
Name: Atenolol
Name: 2-[4-[2-hydroxy-3-(isopropylamino)propoxy]phenyl]acetamide
Formula: C14H22N2O3
Exact mass: 266.1630
SMILES: CC(C)NCC(O)COc1ccc(cc1)CC(N)=O
InChI: InChI=1S/C14H22N2O3/c1-10(2)16-8-12(17)9-19-13-5-3-11(4-6-13)7-14(15)18/h3-6,10,12,16-17H,7-9H2,1-2H3,(H2,15,18)
Instrument: LTQ Orbitrap XL Thermo Scientific
Instrument type: LC-ESI-ITFT
Ms type: MS2
Ion mode: POSITIVE
Ionization: ESI
Fragmentation mode: HCD
Collision energy: 30 % (nominal)
Resolution: 7500
Column name: XBridge C18 3.5um, 2.1x50mm, Waters
Retention time: 2.0 min
Base peak: 267.171
Precursor m/z: 267.1703
Precursor type: [M+H]+
m/z	relative intensity	assigned
56.0495	2	C3H6N+
72.0807	4	C4H10N+
74.0599	11	C3H8NO+
98.0963	8	C6H12N+
116.1068	21	C6H14NO+
145.0651	6	C10H9O+
162.0915	5	C10H12NO+
178.0859	3	C10H12NO2+
190.086	44	C11H12NO2+
207.1123	2	C11H15N2O2+
208.0969	12	C11H14NO3+
225.1229	58	C11H17N2O3+
249.1594	9	C14H21N2O2+
250.1437	1	C14H20NO3+
267.1705	999	C14H23N2O3+
