Mass spectrum: Oseltamivir carboxylate; LC-ESI-ITFT; MS2; CE: 15%; R=15000; [M+H]+
Name: Oseltamivir carboxylate
Name: (3R,4R,5S)-4-acetamido-5-amino-3-pentan-3-yloxycyclohexene-1-carboxylic acid
Formula: C14H24N2O4
Exact mass: 284.1736
SMILES: CCC(CC)O[C@@H]1C=C(C[C@@H]([C@H]1NC(=O)C)N)C(=O)O
InChI: InChI=1S/C14H24N2O4/c1-4-10(5-2)20-12-7-9(14(18)19)6-11(15)13(12)16-8(3)17/h7,10-13H,4-6,15H2,1-3H3,(H,16,17)(H,18,19)/t11-,12+,13+/m0/s1
Instrument: LTQ Orbitrap XL Thermo Scientific
Instrument type: LC-ESI-ITFT
Ms type: MS2
Ion mode: POSITIVE
Ionization: ESI
Fragmentation mode: HCD
Collision energy: 15 % (nominal)
Resolution: 15000
Column name: XBridge C18 3.5um, 2.1x50mm, Waters
Retention time: 5.1 min
Base peak: 285.1822
Precursor m/z: 285.1809
Precursor type: [M+H]+
m/z	relative intensity	assigned
93.0575	1	C6H7N+
94.0651	18	C6H8N+
120.0445	19	C7H6NO+
136.0758	2	C8H10NO+
137.071	15	C7H9N2O+
138.0551	264	C7H8NO2+
139.0386	2	C7H7O3+
162.0549	6	C9H8NO2+
179.0814	13	C9H11N2O2+
180.0657	272	C9H10NO3+
197.0924	999	C9H13N2O3+
198.0762	111	C9H12NO4+
215.1028	326	C9H15N2O4+
268.1544	149	C14H22NO4+
285.1812	768	C14H25N2O4+
