Mass spectrum: Levamisole; LC-ESI-ITFT; MS2; CE: 75%; R=15000; [M+H]+
Name: Levamisole
Name: (6S)-6-phenyl-2,3,5,6-tetrahydroimidazo[2,1-b][1,3]thiazole
Formula: C11H12N2S
Exact mass: 204.0721
SMILES: c1([C@H]2CN3CCSC3=N2)ccccc1
InChI: InChI=1S/C11H12N2S/c1-2-4-9(5-3-1)10-8-13-6-7-14-11(13)12-10/h1-5,10H,6-8H2/t10-/m1/s1
Instrument: LTQ Orbitrap XL Thermo Scientific
Instrument type: LC-ESI-ITFT
Ms type: MS2
Ion mode: POSITIVE
Ionization: ESI
Fragmentation mode: HCD
Collision energy: 75 % (nominal)
Resolution: 15000
Column name: XBridge C18 3.5um, 2.1x50mm, Waters
Retention time: 2.9 min
Base peak: 205.0801
Precursor m/z: 205.0794
Precursor type: [M+H]+
m/z	relative intensity	assigned
58.995	5	C2H3S+
59.9901	2	CH2NS+
61.0106	26	C2H5S+
74.0059	6	C2H4NS+
77.0385	5	C6H5+
79.0542	10	C6H7+
86.0059	13	C3H4NS+
88.0216	50	C3H6NS+
91.0543	223	C7H7+
103.0324	3	C3H7N2S+
103.0542	32	C8H7+
104.0496	6	C7H6N+
104.0621	5	C8H8+
105.0699	101	C8H9+
106.0651	6	C7H8N+
115.0543	15	C9H7+
117.0574	46	C8H7N+
117.0699	128	C9H9+
118.0652	122	C8H8N+
119.0729	6	C8H9N+
119.0854	13	C9H11+
120.0807	5	C8H10N+
123.0264	270	C7H7S+
127.0324	4	C5H7N2S+
128.0495	14	C9H6N+
128.0621	40	C10H8+
129.0699	153	C10H9+
130.0651	31	C9H8N+
131.073	49	C9H9N+
132.0808	25	C9H10N+
135.0264	35	C8H7S+
144.0809	48	C10H10N+
145.0761	36	C9H9N2+
146.0601	7	C9H8NO+
146.0965	130	C10H12N+
148.0214	6	C8H6NS+
150.0372	64	C8H8NS+
155.0604	13	C10H7N2+
178.0686	999	C10H12NS+
188.0529	20	C11H10NS+
205.0796	578	C11H13N2S+
