Mass spectrum: Benzisothiazolone (BIT); LC-ESI-ITFT; MS2; CE: 60%; R=7500; [M+H]+
Name: Benzisothiazolone (BIT)
Name: 1,2-Benzisothiazol-3(2H)-one
Name: 1,2-benzothiazol-3-one
Formula: C7H5NOS
Exact mass: 151.0092
SMILES: c12c(cccc2)s[nH]c1=O
InChI: InChI=1S/C7H5NOS/c9-7-5-3-1-2-4-6(5)10-8-7/h1-4H,(H,8,9)
Instrument: LTQ Orbitrap XL Thermo Scientific
Instrument type: LC-ESI-ITFT
Ms type: MS2
Ion mode: POSITIVE
Ionization: ESI
Fragmentation mode: HCD
Collision energy: 60 % (nominal)
Resolution: 7500
Column name: XBridge C18 3.5um, 2.1x50mm, Waters
Retention time: 5.1 min
Base peak: 152.0163
Precursor m/z: 152.0165
Precursor type: [M+H]+
m/z	relative intensity	assigned
80.0495	5	C5H6N+
105.0335	39	C7H5O+
109.0107	94	C6H5S+
124.0217	3	C6H6NS+
134.0059	58	C7H4NS+
152.0165	999	C7H6NOS+
