Mass spectrum: Dicrotophos; LC-ESI-QFT; MS2; CE: 120%; R=17500; [M+H]+
Name: Dicrotophos
Name: 3-Hydroxy-N,N-dimethylcrotonamide dimethyl phosphate
Name: [4-(dimethylamino)-4-oxobut-2-en-2-yl] dimethyl phosphate
Formula: C8H16NO5P
Exact mass: 237.0766
SMILES: CC(=CC(=O)N(C)C)OP(=O)(OC)OC
InChI: InChI=1S/C8H16NO5P/c1-7(6-8(10)9(2)3)14-15(11,12-4)13-5/h6H,1-5H3
Instrument: Exploris 240 Orbitrap Thermo Scientific
Instrument type: LC-ESI-QFT
Ms type: MS2
Ion mode: POSITIVE
Ionization: ESI
Fragmentation mode: HCD
Collision energy: 120 % (nominal)
Resolution: 17500
Column name: XBridge C18 3.5um, 2.1x50mm, Waters
Retention time: 3.436 min
Base peak: 238.0837
Precursor m/z: 238.0839
Precursor type: [M+H]+
m/z	relative intensity	assigned
54.034	6	C3H4N+
55.0178	6	C3H3O+
55.0417	67	C3H5N+
56.0131	51	C2H2NO+
58.0288	6	C2H4NO+
58.0651	6	C3H8N+
64.9789	5	H2O2P+
67.0178	263	C4H3O+
70.0652	46	C4H8N+
72.0444	999	C3H6NO+
78.9942	30	CH4O2P+
94.9895	26	CH4O3P+
109.0051	38	C2H6O3P+
112.9999	65	CH6O4P+
127.0155	132	C2H8O4P+
