Mass spectrum: 7-amino-flunitrazepam; LC-ESI-QFT; MS2; CE: 90; R=35000; [M+H]+
Name: 7-amino-flunitrazepam
Name: 7-aminoflunitrazepam
Name: 7-amino-5-(2-fluorophenyl)-1-methyl-3H-1,4-benzodiazepin-2-one
Formula: C16H14FN3O
Exact mass: 283.11209
SMILES: CN1C(=O)CN=C(C2=C1C=CC(=C2)N)C3=CC=CC=C3F
InChI: InChI=1S/C16H14FN3O/c1-20-14-7-6-10(18)8-12(14)16(19-9-15(20)21)11-4-2-3-5-13(11)17/h2-8H,9,18H2,1H3
Instrument: Q Exactive Plus Orbitrap Thermo Scientific
Instrument type: LC-ESI-QFT
Ms type: MS2
Ion mode: POSITIVE
Ionization: ESI
Fragmentation mode: HCD
Collision energy: 90 (nominal)
Resolution: 35000
Column name: XBridge C18 3.5um, 2.1x50mm, Waters
Retention time: 4.9 min
Base peak: 284.1182
Precursor m/z: 284.1194
Precursor type: [M+H]+
m/z	relative intensity	assigned
50.0149	4	C4H2+
51.0228	4	C4H3+
53.0385	45	C4H5+
54.0337	14	C3H4N+
56.0495	2	C3H6N+
57.0136	2	C3H2F+
58.0286	33	C2H4NO+
63.0228	12	FH2N3+
65.0384	81	FH4N3+
66.0336	3	C4H4N+
66.0462	17	FH5N3+
67.0415	13	C4H5N+
67.0541	30	FH6N3+
68.0493	29	C4H6N+
75.0228	18	CH2FN3+
77.0384	77	CH4FN3+
78.0337	13	C5H4N+
78.0463	34	CH5FN3+
79.0541	245	CH6FN3+
80.0493	106	C5H6N+
81.0334	8	FH4N3O+
81.0446	11	C4H5N2+
81.0572	7	C5H7N+
81.0697	31	CH8FN3+
82.0524	3	C4H6N2+
82.065	9	C5H8N+
83.029	18	C5H4F+
89.0383	39	C2H4FN3+
90.0337	29	C6H4N+
90.0463	27	C2H5FN3+
91.0415	8	C6H5N+
91.0541	150	C2H6FN3+
92.0493	114	C6H6N+
93.0572	839	C6H7N+
94.065	418	C6H8N+
95.049	114	CH6FN3O+
95.0602	31	C5H7N2+
95.0728	20	C6H9N+
96.0442	19	C5H6NO+
96.068	51	C5H8N2+
97.0446	9	C6H6F+
102.0337	23	C7H4N+
103.0415	8	C7H5N+
103.054	2	C3H6FN3+
104.0493	721	C7H6N+
105.0446	126	C6H5N2+
105.0571	115	C7H7N+
106.0649	637	C7H8N+
107.0603	33	C6H7N2+
107.0728	541	C7H9N+
108.0806	361	C7H10N+
109.0446	190	C7H6F+
109.0647	10	
110.0598	15	C6H8NO+
113.0394	9	C6H6FO+
114.0336	3	C8H4N+
115.0416	2	C8H5N+
115.0542	13	
116.0493	73	C8H6N+
117.0446	48	C7H5N2+
117.0571	102	C8H7N+
118.0525	28	C7H6N2+
118.0649	91	C8H8N+
119.0602	333	C7H7N2+
119.0726	27	C8H9N+
120.0442	33	C7H6NO+
120.068	324	C7H8N2+
121.0445	3	C8H6F+
121.0758	65	C7H9N2+
122.0398	140	C7H5FN+
123.0239	66	C7H4FO+
123.0351	38	C6H4FN2+
124.0556	4	C7H7FN+
129.0444	16	C8H5N2+
129.0696	2	C5H8FN3+
130.0398	98	C7H4N3+
131.0602	302	C8H7N2+
132.0442	29	C8H6NO+
132.0555	17	C7H6N3+
132.068	233	C8H8N2+
133.0445	29	C9H6F+
133.0522	8	C8H7NO+
133.0758	133	C8H9N2+
134.0399	67	C8H5FN+
134.0598	52	C8H8NO+
134.0835	33	C8H10N2+
135.0914	999	C8H11N2+
136.0555	29	C8H7FN+
137.0472	2	C7H7NO2+
139.054	21	C6H6FN3+
140.0491	18	C10H6N+
142.0525	4	C9H6N2+
142.0649	4	C10H8N+
143.0481	3	C8H5N3+
143.0602	17	C9H7N2+
144.0554	228	C8H6N3+
145.0635	23	C8H7N3+
145.0758	17	C9H9N2+
146.0598	17	C9H8NO+
146.071	199	C8H8N3+
146.0837	13	C9H10N2+
147.055	15	C8H7N2O+
147.0604	6	C10H8F+
147.0676	9	C9H9NO+
147.0786	25	C8H9N3+
148.0629	132	C8H8N2O+
149.0708	22	C8H9N2O+
151.0537	15	C7H6FN3+
152.0618	79	C7H7FN3+
153.0696	89	C7H8FN3+
154.0649	19	C11H8N+
155.0601	7	C10H7N2+
157.0447	2	C11H6F+
158.0711	40	C9H8N3+
159.0604	11	C11H8F+
160.0866	44	C9H10N3+
161.0633	77	C10H8FN+
161.0707	30	C9H9N2O+
161.0943	27	C9H11N3+
162.0714	4	C10H9FN+
163.054	13	C8H6FN3+
163.0861	3	C9H11N2O+
164.0496	4	C12H6N+
164.0617	8	C8H7FN3+
165.0571	2	C12H7N+
165.0697	43	C8H8FN3+
166.0649	64	C12H8N+
167.0727	91	C12H9N+
168.0568	3	C7H7FN3O+
168.0806	45	C12H10N+
169.0647	24	C7H8FN3O+
170.0523	41	C12H7F+
171.06	44	C12H8F+
172.0555	12	C11H7FN+
173.0634	8	C11H8FN+
173.0758	4	C12H10F+
174.0712	73	C11H9FN+
176.0497	2	C13H6N+
177.0568	23	C13H7N+
178.0649	73	C13H8N+
179.061	15	C12H7N2+
179.0727	89	C13H9N+
180.0805	273	C13H10N+
181.0883	193	C13H11N+
182.0523	14	C13H7F+
182.0597	3	C12H8NO+
182.0962	3	C13H12N+
183.0602	412	C13H8F+
184.0553	4	C12H7FN+
184.068	12	C13H9F+
185.0633	71	C12H8FN+
186.0471	3	C12H7FO+
186.0709	19	C12H9FN+
187.0548	3	C12H8FO+
187.0793	19	C12H10FN+
188.0868	23	C12H11FN+
189.0571	2	C14H7N+
190.0648	107	C14H8N+
191.06	4	C13H7N2+
191.0725	39	C14H9N+
192.0679	44	C13H8N2+
192.0804	20	C14H10N+
193.0758	68	C13H9N2+
193.0884	5	C14H11N+
194.0601	4	C13H8NO+
194.0836	69	C13H10N2+
195.0914	105	C13H11N2+
196.0556	12	C13H7FN+
196.0756	10	C13H10NO+
197.0502	3	C12H6FN2+
197.0631	17	C13H8FN+
198.071	296	C13H9FN+
199.0664	10	C12H8FN2+
199.0789	33	C13H10FN+
200.0743	12	C12H9FN2+
200.0867	52	C13H11FN+
201.0574	3	C15H7N+
201.0822	3	C12H10FN2+
202.0652	7	C15H8N+
203.0601	14	C14H7N2+
204.0552	3	C13H6N3+
204.0679	11	C14H8N2+
205.0758	188	C14H9N2+
206.0836	214	C14H10N2+
207.0914	91	C14H11N2+
208.0555	46	C14H7FN+
208.0992	54	C14H12N2+
209.0633	213	C14H8FN+
209.107	22	C14H13N2+
210.0711	129	C14H9FN+
211.0789	393	C14H10FN+
212.0741	56	C13H9FN2+
212.0866	19	C14H11FN+
213.0819	103	C13H10FN2+
214.0662	8	C13H9FNO+
214.0894	3	C13H11FN2+
215.0978	29	C13H12FN2+
216.0682	2	C15H8N2+
217.0762	2	C15H9N2+
218.0722	4	C14H8N3+
218.0838	20	C15H10N2+
219.0789	17	C14H9N3+
219.0915	50	C15H11N2+
220.0866	274	C14H10N3+
221.0717	13	C14H9N2O+
221.0945	41	C14H11N3+
222.0706	16	C15H9FN+
222.1024	10	C14H12N3+
223.0663	96	C14H8FN2+
224.074	79	C14H9FN2+
225.0819	204	C14H10FN2+
226.0897	621	C14H11FN2+
227.0854	11	
227.0976	64	C14H12FN2+
228.0813	14	C14H11FNO+
229.1136	3	C14H14FN2+
234.1021	24	C15H12N3+
235.1102	2	C15H13N3+
236.1179	7	C15H14N3+
237.0819	20	C15H10FN2+
238.0772	129	C14H9FN3+
239.0611	4	C14H8FN2O+
239.0849	14	C14H10FN3+
239.0977	22	C15H12FN2+
240.0928	828	C14H11FN3+
241.1005	39	C14H12FN3+
248.0818	3	C15H10N3O+
249.09	6	C15H11N3O+
253.0642	2	C14H8FN3O+
254.0852	2	C15H11FN2O+
254.1084	22	C15H13FN3+
255.1163	9	C15H14FN3+
268.0872	12	C15H11FN3O+
