Mass spectrum: Metoclopramide; LC-ESI-ITFT; MS2; CE: 75%; R=15000; [M+H]+
Name: Metoclopramide
Name: 4-amino-5-chloro-N-(2-diethylaminoethyl)-2-methoxy-benzamide
Formula: C14H22ClN3O2
Exact mass: 299.1401
SMILES: c1(cc(C(=O)NCCN(CC)CC)c(cc1N)OC)Cl
InChI: InChI=1S/C14H22ClN3O2/c1-4-18(5-2)7-6-17-14(19)10-8-11(15)12(16)9-13(10)20-3/h8-9H,4-7,16H2,1-3H3,(H,17,19)
Instrument: LTQ Orbitrap XL Thermo Scientific
Instrument type: LC-ESI-ITFT
Ms type: MS2
Ion mode: POSITIVE
Ionization: ESI
Fragmentation mode: HCD
Collision energy: 75 % (nominal)
Resolution: 15000
Column name: XBridge C18 3.5um, 2.1x50mm, Waters
Retention time: 4.3 min
Base peak: 300.1485
Precursor m/z: 300.1473
Precursor type: [M+H]+
m/z	relative intensity	assigned
63.023	3	C5H3+
72.0809	5	C4H10N+
90.0338	16	C6H4N+
92.0494	2	C6H6N+
93.0573	15	C6H7N+
98.9996	2	C5H4Cl+
100.1121	21	C6H14N+
102.0098	1	C7H2O+
108.0446	3	C6H6NO+
120.0444	8	C7H6NO+
126.0105	32	C9H2O+
128.0262	21	C6H7ClN+
129.0102	5	C6H6ClO+
140.9975	91	C6H4ClNO+
144.021	9	C6H7ClNO+
147.0552	5	C8H7N2O+
148.063	26	C8H8N2O+
154.0054	19	C10H2O2+
156.0211	69	C7H7ClNO+
168.0085	96	C7H5ClN2O+
168.9925	53	C7H4ClNO2+
170.0003	22	C7H5ClNO2+
182.0239	9	C8H7ClN2O+
183.032	209	C8H8ClN2O+
184.016	999	C8H7ClNO2+
187.0029	14	C7H6ClNO3+
211.0266	12	C9H8ClN2O2+
212.0347	263	C9H9ClN2O2+
227.0582	175	C10H12ClN2O2+
