Mass spectrum: Oxacillin; LC-ESI-QFT; MS2; CE: 30; R=35000; [M+H]+
Name: Oxacillin
Name: (2S,5R,6R)-3,3-dimethyl-6-[(5-methyl-3-phenyl-1,2-oxazole-4-carbonyl)amino]-7-oxo-4-thia-1-azabicyclo[3.2.0]heptane-2-carboxylic acid
Formula: C19H19N3O5S
Exact mass: 401.10454
SMILES: CC1=C(C(=O)N[C@H]2[C@H]3SC(C)(C)[C@@H](N3C2=O)C(O)=O)C(=NO1)C1=CC=CC=C1
InChI: InChI=1S/C19H19N3O5S/c1-9-11(12(21-27-9)10-7-5-4-6-8-10)15(23)20-13-16(24)22-14(18(25)26)19(2,3)28-17(13)22/h4-8,13-14,17H,1-3H3,(H,20,23)(H,25,26)/t13-,14+,17-/m1/s1
Instrument: Q Exactive Plus Orbitrap Thermo Scientific
Instrument type: LC-ESI-QFT
Ms type: MS2
Ion mode: POSITIVE
Ionization: ESI
Fragmentation mode: HCD
Collision energy: 30 (nominal)
Resolution: 35000
Column name: XBridge C18 3.5um, 2.1x50mm, Waters
Retention time: 8.5 min
Base peak: 402.1116
Precursor m/z: 402.1118
Precursor type: [M+H]+
m/z	relative intensity	assigned
56.0494	1	C3H6N+
69.0447	2	C3H5N2+
70.0649	2	C4H8N+
72.0444	3	C3H6NO+
77.0385	5	C6H5+
87.0262	2	C4H7S+
100.0213	1	C4H6NS+
100.0393	21	C4H6NO2+
114.0372	128	C5H8NS+
118.0652	2	C8H8N+
126.0372	1	C6H8NS+
128.0491	13	C9H6N+
130.0652	23	C9H8N+
142.0323	5	C6H8NOS+
144.0444	287	C9H6NO+
146.06	1	C9H8NO+
157.0762	5	C10H9N2+
160.0427	999	C6H10NO2S+
171.0918	2	C11H11N2+
172.0757	184	C11H10NO+
174.0584	1	C7H12NO2S+
184.0868	1	C11H10N3+
186.055	83	C11H8NO2+
187.0864	1	C11H11N2O+
188.0706	39	C11H10NO2+
189.069	1	C7H13N2O2S+
197.0711	4	C12H9N2O+
198.0549	5	C12H8NO2+
199.0866	39	C12H11N2O+
201.0658	7	C11H9N2O2+
215.0816	7	C12H11N2O2+
225.066	4	C13H9N2O2+
226.0975	7	C13H12N3O+
243.0765	540	C13H11N2O3+
374.117	6	C18H20N3O4S+
