Mass spectrum: Zopiclone; LC-ESI-QFT; MS2; CE: 90; R=35000; [M+H]+
Name: Zopiclone
Name: [6-(5-chloropyridin-2-yl)-5-oxo-7H-pyrrolo[3,4-b]pyrazin-7-yl] 4-methylpiperazine-1-carboxylate
Formula: C17H17ClN6O3
Exact mass: 388.10507
SMILES: CN1CCN(CC1)C(=O)OC2C3=NC=CN=C3C(=O)N2C4=NC=C(C=C4)Cl
InChI: InChI=1S/C17H17ClN6O3/c1-22-6-8-23(9-7-22)17(26)27-16-14-13(19-4-5-20-14)15(25)24(16)12-3-2-11(18)10-21-12/h2-5,10,16H,6-9H2,1H3
Instrument: Q Exactive Plus Orbitrap Thermo Scientific
Instrument type: LC-ESI-QFT
Ms type: MS2
Ion mode: POSITIVE
Ionization: ESI
Fragmentation mode: HCD
Collision energy: 90 (nominal)
Resolution: 35000
Column name: XBridge C18 3.5um, 2.1x50mm, Waters
Retention time: 4.6 min
Base peak: 389.1117
Precursor m/z: 389.1123
Precursor type: [M+H]+
m/z	relative intensity	assigned
50.0151	1	C4H2+
52.0182	3	C3H2N+
53.0022	1	C3HO+
56.0495	4	C3H6N+
58.0651	1	C3H8N+
61.9792	6	CHClN+
66.0338	5	C4H4N+
70.0651	4	C4H8N+
75.0103	2	C5HN+
76.0182	103	C5H2N+
77.026	1	C5H3N+
78.0338	1	C5H4N+
79.029	3	C4H3N2+
83.0604	2	C4H7N2+
84.0683	1	C4H8N2+
84.984	10	C4H2Cl+
94.0288	7	C5H4NO+
97.0397	7	C4H5N2O+
97.076	3	C5H9N2+
98.0839	2	C5H10N2+
99.0917	1	C5H11N2+
100.0182	4	C7H2N+
103.029	5	C6H3N2+
104.0368	1	C6H4N2+
111.9949	184	C5H3ClN+
121.0397	10	C6H5N2O+
126.0107	3	C6H5ClN+
127.0291	15	C8H3N2+
128.037	3	C8H4N2+
129.0449	1	C8H5N2+
130.0055	999	C5H5ClNO+
131.048	2	C7H5N3+
135.995	1	C7H3ClN+
136.0394	1	C7H6NO2+
139.0058	147	C6H4ClN2+
144.0212	4	C6H7ClNO+
144.0557	2	C8H6N3+
145.0396	3	C8H5N2O+
148.0507	3	C7H6N3O+
152.0137	4	C7H5ClN2+
154.0055	1	C7H5ClNO+
154.04	18	C9H4N3+
155.0352	3	C8H3N4+
155.0478	13	C9H5N3+
156.0556	4	C9H6N3+
157.0164	22	C6H6ClN2O+
163.0058	29	C8H4ClN2+
164.001	3	C7H3ClN3+
171.0321	1	C7H8ClN2O+
172.0506	21	C9H6N3O+
177.0089	3	C8H4ClN3+
181.0165	4	C8H6ClN2O+
181.0509	30	C10H5N4+
182.0588	29	C10H6N4+
187.0376	2	C9H5N3O2+
190.0167	56	C9H5ClN3+
217.0277	96	C10H6ClN4+
