Mass spectrum: Metolachlor-TP SYN542490; LC-ESI-QFT; MS2; CE: 180%; R=17500; [M+H]+
Name: Metolachlor-TP SYN542490
Formula: C15H21NO6S
Exact mass: 343.1090
SMILES: O=S(=O)(O)CC(=O)N(C(C)COC)c1c(C)cccc1C(C)=O
InChI: InChI=1S/C15H21NO6S/c1-10-6-5-7-13(12(3)17)15(10)16(11(2)8-22-4)14(18)9-23(19,20)21/h5-7,11H,8-9H2,1-4H3,(H,19,20,21)
Instrument: Exploris 240 Orbitrap Thermo Scientific
Instrument type: LC-ESI-QFT
Ms type: MS2
Ion mode: POSITIVE
Ionization: ESI
Fragmentation mode: HCD
Collision energy: 180 % (nominal)
Resolution: 17500
Column name: XBridge C18 3.5um, 2.1x50mm, Waters
Retention time: 4.668 min
Base peak: 344.1159
Precursor m/z: 344.1162
Precursor type: [M+H]+
m/z	relative intensity	assigned
51.0228	316	C4H3+
53.0386	160	C4H5+
65.0386	863	C5H5+
77.0386	855	C6H5+
79.0544	230	C6H7+
89.0386	609	C7H5+
90.0465	397	C7H6+
91.0543	999	C7H7+
95.0491	564	C6H7O+
103.0542	490	C8H7+
104.0498	99	C7H6N+
115.0544	699	C9H7+
117.0573	483	C8H7N+
128.0507	109	C3H12O3S+
128.0622	345	C10H8+
130.0651	676	C9H8N+
142.0654	71	C10H8N+
154.0651	191	C11H8N+
156.0805	78	C11H10N+
