Mass spectrum: Abacavir 5`-carboxylate; LC-ESI-QFT; MS2; CE: 30%; R=17500; [M+H]+
Name: Abacavir 5`-carboxylate
Name: 4-[2-amino-6-(cyclopropylamino)purin-9-yl]cyclopent-2-ene-1-carboxylic acid
Formula: C14H16N6O2
Exact mass: 300.1334738
SMILES: C1CC1NC2=C3C(=NC(=N2)N)N(C=N3)C4CC(C=C4)C(=O)O
InChI: InChI=1S/C14H16N6O2/c15-14-18-11(17-8-2-3-8)10-12(19-14)20(6-16-10)9-4-1-7(5-9)13(21)22/h1,4,6-9H,2-3,5H2,(H,21,22)(H3,15,17,18,19)
Instrument: Exploris 240 Orbitrap Thermo Scientific
Instrument type: LC-ESI-QFT
Ms type: MS2
Ion mode: POSITIVE
Ionization: ESI
Fragmentation mode: HCD
Collision energy: 30 % (nominal)
Resolution: 17500
Column name: XBridge C18 3.5um, 2.1x50mm, Waters
Retention time: 3.369 min
Base peak: 301.1404
Precursor m/z: 301.1408
Precursor type: [M+H]+
m/z	relative intensity	assigned
67.0542	3	C5H7+
111.0438	9	C6H7O2+
191.1039	999	C8H11N6+
283.1295	5	C14H15N6O+
301.1407	552	C14H17N6O2+
