Mass spectrum: Cortisone; LC-ESI-QFT; MS2; CE: 180; R=35000; [M-H]-
Name: Cortisone
Name: 17,21-Dihydroxypregn-4-ene-3,11,20-trione
Name: (8S,9S,10R,13S,14S,17R)-17-hydroxy-17-(2-hydroxyacetyl)-10,13-dimethyl-1,2,6,7,8,9,12,14,15,16-decahydrocyclopenta[a]phenanthrene-3,11-dione
Formula: C21H28O5
Exact mass: 360.19367
SMILES: O=C(CO)[C@@]3(O)CC[C@H]2[C@@H]4CC\C1=C\C(=O)CC[C@]1(C)[C@H]4C(=O)C[C@@]23C
InChI: InChI=1S/C21H28O5/c1-19-7-5-13(23)9-12(19)3-4-14-15-6-8-21(26,17(25)11-22)20(15,2)10-16(24)18(14)19/h9,14-15,18,22,26H,3-8,10-11H2,1-2H3/t14-,15-,18+,19-,20-,21-/m0/s1
Instrument: Q Exactive Plus Orbitrap Thermo Scientific
Instrument type: LC-ESI-QFT
Ms type: MS2
Ion mode: NEGATIVE
Ionization: ESI
Fragmentation mode: HCD
Collision energy: 180 (nominal)
Resolution: 35000
Column name: XBridge C18 3.5um, 2.1x50mm, Waters
Retention time: 7.4 min
Base peak: 405.1915
Precursor m/z: 359.1864
Precursor type: [M-H]-
m/z	relative intensity	assigned
55.0189	170	C3H3O-
57.0346	999	C3H5O-
65.0033	55	C4HO-
65.0397	744	C5H5-
67.019	109	C4H3O-
69.0346	27	C4H5O-
79.0552	107	C6H7-
89.0396	98	C7H5-
91.0553	219	C7H7-
93.0346	443	C6H5O-
95.0501	130	C6H7O-
101.0396	201	C8H5-
102.0475	35	C8H6-
103.0553	38	C8H7-
106.0426	27	C7H6O-
107.0502	332	C7H7O-
108.0216	134	C6H4O2-
115.0553	173	C9H7-
117.0345	157	C8H5O-
119.0503	478	C8H7O-
121.0295	395	C7H5O2-
122.0372	228	C7H6O2-
123.0454	30	C7H7O2-
129.0346	176	C9H5O-
130.0424	277	C9H6O-
143.0502	337	C10H7O-
145.0293	108	C9H5O2-
145.0659	106	C10H9O-
146.0374	135	C9H6O2-
147.0452	601	C9H7O2-
158.0372	31	C10H6O2-
193.0657	32	C14H9O-
