Mass spectrum: Dimethenamid OXA; LC-ESI-ITFT; MS2; CE: 60%; R=7500; [M-H]-
Name: Dimethenamid OXA
Name: [(2,4-dimethylthiophen-3-yl)(1-methoxypropan-2-yl)amino](oxo)acetic acid
Formula: C12H17NO4S
Exact mass: 271.0878
SMILES: S(C=C1C)C(C)=C1N(C(=O)C(=O)O)C(COC)C
InChI: InChI=1S/C12H17NO4S/c1-7-6-18-9(3)10(7)13(8(2)5-17-4)11(14)12(15)16/h6,8H,5H2,1-4H3,(H,15,16)
Instrument: LTQ Orbitrap XL Thermo Scientific
Instrument type: LC-ESI-ITFT
Ms type: MS2
Ion mode: NEGATIVE
Ionization: ESI
Fragmentation mode: HCD
Collision energy: 60 % (nominal)
Resolution: 7500
Column name: XBridge C18 3.5um, 2.1x50mm, Waters
Retention time: 7.2 min
Base peak: 270.0801
Precursor m/z: 270.0806
Precursor type: [M-H]-
m/z	relative intensity	assigned
70.9961	215	C3H3S-
83.991	170	C3H2NS-
98.0069	909	C4H4NS-
122.0066	240	C6H4NS-
148.0224	240	C8H6NS-
150.0384	515	C8H8NS-
151.0456	154	C8H9NS-
152.0541	606	C8H10NS-
162.0386	180	C9H8NS-
164.0538	168	C9H10NS-
166.0694	999	C9H12NS-
