Mass spectrum: Cotinine; LC-ESI-QFT; MS2; CE: 150; R=35000; [M+H]+
Name: Cotinine
Name: (5S)-1-methyl-5-pyridin-3-ylpyrrolidin-2-one
Formula: C10H12N2O
Exact mass: 176.09496
SMILES: CN1[C@@H](CCC1=O)c2cccnc2
InChI: InChI=1S/C10H12N2O/c1-12-9(4-5-10(12)13)8-3-2-6-11-7-8/h2-3,6-7,9H,4-5H2,1H3/t9-/m0/s1
Instrument: Q Exactive Plus Orbitrap Thermo Scientific
Instrument type: LC-ESI-QFT
Ms type: MS2
Ion mode: POSITIVE
Ionization: ESI
Fragmentation mode: HCD
Collision energy: 150 (nominal)
Resolution: 35000
Column name: XBridge C18 3.5um, 2.1x50mm, Waters
Retention time: 1.1 min
Base peak: 177.1022
Precursor m/z: 177.1022
Precursor type: [M+H]+
m/z	relative intensity	assigned
50.0152	5	C4H2+
51.023	14	C4H3+
53.0386	210	C4H5+
54.0339	5	C3H4N+
55.0179	2	C3H3O+
55.0417	3	C3H5N+
58.0288	2	C2H4NO+
65.0387	16	C5H5+
68.0495	11	C4H6N+
69.0336	3	C4H5O+
70.0652	94	C4H8N+
77.0386	2	C6H5+
78.0339	19	C5H4N+
79.0417	8	C5H5N+
80.0495	999	C5H6N+
89.0386	4	C7H5+
90.0464	6	C7H6+
91.0543	20	C7H7+
92.0496	4	C6H6N+
93.0574	5	C6H7N+
95.0493	5	C6H7O+
96.0445	49	C5H6NO+
98.0601	37	C5H8NO+
104.0495	1	C7H6N+
105.0448	2	C6H5N2+
106.0652	2	C7H8N+
110.0603	1	C6H8NO+
117.0574	21	C8H7N+
118.0652	10	C8H8N+
