Mass spectrum: Pyrimethanil; LC-ESI-ITFT; MS2; CE: 35%; R=30000; [M+H]+
Name: Pyrimethanil
Name: (4,6-dimethylpyrimidin-2-yl)-phenyl-amine
Formula: C12H13N3
Exact mass: 199.1109
SMILES: c(ccc1N-c(nc(c2)C)nc2C)cc1
InChI: InChI=1S/C12H13N3/c1-9-8-10(2)14-12(13-9)15-11-6-4-3-5-7-11/h3-8H,1-2H3,(H,13,14,15)
Instrument: LTQ Orbitrap XL Thermo Scientific
Instrument type: LC-ESI-ITFT
Ms type: MS2
Ion mode: POSITIVE
Ionization: ESI
Fragmentation mode: CID
Collision energy: 35 % (nominal)
Resolution: 30000
Column name: XBridge C18 3.5um, 2.1x50mm, Waters
Retention time: 7.6 min
Base peak: 200.1185
Precursor m/z: 200.1182
Precursor type: [M+H]+
m/z	relative intensity	assigned
80.0495	2	C5H6N+
82.0651	6	C5H8N+
107.0603	34	C6H7N2+
118.0651	4	C8H8N+
125.0709	3	C6H9N2O+
142.0651	2	C10H8N+
143.0603	8	C9H7N2+
143.073	1	C10H9N+
159.0916	5	C10H11N2+
168.0681	1	C11H8N2+
173.1073	2	C11H13N2+
182.0836	1	C12H10N2+
183.0916	22	C12H11N2+
184.0868	1	C11H10N3+
185.0947	3	C11H11N3+
198.1023	1	C12H12N3+
200.1182	999	C12H14N3+
