Mass spectrum: Losartan; LC-ESI-QFT; MS2; CE: 180; R=35000; [M+H]+
Name: Losartan
Name: [2-butyl-5-chloranyl-3-[[4-[2-(2H-1,2,3,4-tetrazol-5-yl)phenyl]phenyl]methyl]imidazol-4-yl]methanol
Formula: C22H23ClN6O
Exact mass: 421.15436
SMILES: Clc1nc(n(c1CO)Cc4ccc(c2ccccc2c3[nH]nnn3)cc4)CCCC
InChI: InChI=1S/C22H23ClN6O/c1-2-3-8-20-24-21(23)19(14-30)29(20)13-15-9-11-16(12-10-15)17-6-4-5-7-18(17)22-25-27-28-26-22/h4-7,9-12,30H,2-3,8,13-14H2,1H3,(H,25,26,27,28)
Instrument: Q Exactive Plus Orbitrap Thermo Scientific
Instrument type: LC-ESI-QFT
Ms type: MS2
Ion mode: POSITIVE
Ionization: ESI
Fragmentation mode: HCD
Collision energy: 180 (nominal)
Resolution: 35000
Column name: XBridge C18 3.5um, 2.1x50mm, Waters
Retention time: 8.9 min
Base peak: 423.1691
Precursor m/z: 423.1695
Precursor type: [M+H]+
m/z	relative intensity	assigned
50.0151	143	C4H2+
51.0229	144	C4H3+
52.0182	16	C3H2N+
53.0022	16	C3HO+
53.0386	88	C4H5+
53.9975	2	C2NO+
54.0338	36	C3H4N+
55.0178	8	C3H3O+
55.0542	2	C4H7+
60.9839	33	C2H2Cl+
61.0073	42	C5H+
61.9792	17	CHClN+
62.0151	132	C5H2+
63.0229	463	C5H3+
64.0181	25	C4H2N+
64.0307	10	C5H4+
65.0022	16	C4HO+
65.0386	116	C5H5+
66.0339	2	C4H4N+
66.0463	12	C5H6+
74.015	197	C6H2+
75.0229	398	C6H3+
76.0181	35	C5H2N+
76.0307	99	C6H4+
77.0385	137	C6H5+
78.0338	16	C5H4N+
78.0464	73	C6H6+
80.0494	14	C5H6N+
81.0335	17	C5H5O+
85.0072	14	
86.0151	96	C7H2+
87.0229	259	C7H3+
88.0182	52	C6H2N+
88.0307	59	C7H4+
89.0386	371	C7H5+
90.0338	16	C6H4N+
90.0464	24	C7H6+
91.0542	30	C7H7+
94.0413	6	C6H6O+
95.0491	260	C6H7O+
96.0443	7	C5H6NO+
98.0151	120	C8H2+
99.0229	171	C8H3+
100.0181	14	C7H2N+
100.0307	48	C8H4+
101.0258	2	C7H3N+
101.0386	27	C8H5+
102.0338	21	C7H4N+
102.0464	157	C8H6+
103.0416	3	C7H5N+
103.0542	10	C8H7+
104.0494	2	C7H6N+
105.0447	148	C6H5N2+
110.0151	35	C9H2+
111.0229	60	C9H3+
112.0182	25	C8H2N+
112.0307	10	C9H4+
113.0385	294	C9H5+
114.0338	66	C8H4N+
114.0463	19	C9H6+
115.0542	300	C9H7+
116.0494	10	C8H6N+
117.0572	2	C8H7N+
118.0411	2	C8H6O+
119.0491	23	C8H7O+
120.0207	3	C4H7ClNO+
120.0444	2	C7H6NO+
122.015	24	C10H2+
123.0229	29	C10H3+
124.0181	5	C9H2N+
124.0308	36	C10H4+
125.0386	141	C10H5+
126.0464	358	C10H6+
127.0417	34	C9H5N+
127.0542	41	C10H7+
128.0494	17	C9H6N+
128.062	21	C10H8+
129.0447	57	C8H5N2+
130.0398	15	C7H4N3+
132.0446	2	C8H6NO+
132.057	8	C9H8O+
136.0305	2	C11H4+
137.0386	164	C11H5+
138.0338	53	C10H4N+
138.0463	35	C11H6+
139.0542	288	C11H7+
140.0494	111	C10H6N+
141.0576	2	C10H7N+
143.0491	26	C10H7O+
145.0648	21	C10H9O+
146.06	7	C9H8NO+
149.0386	51	C12H5+
150.0464	999	C12H6+
151.0416	43	C11H5N+
151.0542	94	C12H7+
152.0495	31	C11H6N+
152.062	271	C12H8+
153.0447	17	C10H5N2+
153.0573	30	C11H7N+
154.0403	2	C9H4N3+
155.0491	9	C8H10ClN+
155.0604	40	C10H7N2+
156.0571	2	C11H8O+
161.0385	83	C13H5+
162.0337	8	C12H4N+
162.0464	69	C13H6+
163.0542	491	C13H7+
164.0495	128	C12H6N+
164.0618	74	C13H8+
165.0448	9	C11H5N2+
165.0699	69	C13H9+
166.0411	3	C12H6O+
166.0651	3	C12H8N+
167.049	20	C12H7O+
168.0569	41	C12H8O+
169.0648	444	C12H9O+
170.0361	7	C8H9ClNO+
170.06	43	C11H8NO+
174.0467	6	C14H6+
175.0416	30	C13H5N+
176.0497	11	C13H6N+
176.0619	17	C14H8+
177.0573	213	C13H7N+
178.0651	58	C13H8N+
179.0603	145	C12H7N2+
180.0558	6	C11H6N3+
185.0471	2	C8H10ClN2O+
185.0595	19	C7H10ClN4+
186.034	2	C14H4N+
186.046	2	C15H6+
187.0415	8	C14H5N+
187.0544	2	C15H7+
188.0495	81	C14H6N+
189.0572	7	C14H7N+
190.0652	19	C14H8N+
193.052	2	C13H7NO+
194.0363	18	C10H9ClNO+
194.06	37	C13H8NO+
196.052	15	C10H11ClNO+
196.0755	2	C13H10NO+
203.0605	12	C14H7N2+
204.0558	24	C13H6N3+
205.0763	1	C14H9N2+
212.0496	13	C16H6N+
221.0472	2	C11H10ClN2O+
