Mass spectrum: Metolachlor OXA; LC-ESI-ITFT; MS2; CE: 30%; R=7500; [M-H]-
Name: Metolachlor OXA
Name: 2-(2-ethyl-N-(2-methoxy-1-methyl-ethyl)-6-methyl-anilino)-2-keto-acetic acid
Formula: C15H21NO4
Exact mass: 279.1471
SMILES: CC1=CC=CC(CC)=C1N(C(C)COC)C(C(O)=O)=O
InChI: InChI=1S/C15H21NO4/c1-5-12-8-6-7-10(2)13(12)16(11(3)9-20-4)14(17)15(18)19/h6-8,11H,5,9H2,1-4H3,(H,18,19)
Instrument: LTQ Orbitrap XL Thermo Scientific
Instrument type: LC-ESI-ITFT
Ms type: MS2
Ion mode: NEGATIVE
Ionization: ESI
Fragmentation mode: HCD
Collision energy: 30 % (nominal)
Resolution: 7500
Column name: XBridge C18 3.5um, 2.1x50mm, Waters
Retention time: 9.0 min
Base peak: 278.1398
Precursor m/z: 278.1398
Precursor type: [M-H]-
m/z	relative intensity	assigned
134.0981	4	C9H12N-
135.0815	5	C9H11O-
156.0815	5	C11H10N-
158.0979	58	C11H12N-
160.113	23	C11H14N-
172.1132	42	C12H14N-
174.1291	250	C12H16N-
175.1005	5	C11H13NO-
204.1398	9	C13H18NO-
206.1555	999	C13H20NO-
