Mass spectrum: Gabapentin; LC-ESI-ITFT; MS2; CE: 30%; R=7500; [M+H]+
Name: Gabapentin
Name: 1-(Aminomethyl)cyclohexaneacetic acid
Name: 2-[1-(aminomethyl)cyclohexyl]acetic acid
Formula: C9H17NO2
Exact mass: 171.1259
SMILES: NCC1(CC(O)=O)CCCCC1
InChI: InChI=1S/C9H17NO2/c10-7-9(6-8(11)12)4-2-1-3-5-9/h1-7,10H2,(H,11,12)
Instrument: LTQ Orbitrap XL Thermo Scientific
Instrument type: LC-ESI-ITFT
Ms type: MS2
Ion mode: POSITIVE
Ionization: ESI
Fragmentation mode: HCD
Collision energy: 30 % (nominal)
Resolution: 7500
Column name: XBridge C18 3.5um, 2.1x50mm, Waters
Retention time: 3.6 min
Base peak: 172.1336
Precursor m/z: 172.1332
Precursor type: [M+H]+
m/z	relative intensity	assigned
55.0178	3	C3H3O+
67.0542	2	C5H7+
93.0699	2	C7H9+
95.0856	10	C7H11+
109.1011	3	C8H13+
119.0854	10	C9H11+
137.0961	37	C9H13O+
154.1227	440	C9H16NO+
155.1066	23	C9H15O2+
172.1333	999	C9H18NO2+
