Mass spectrum: Pirimiphos-Ethyl; LC-ESI-QFT; MS2; CE: 15%; R=17500; [M+H]+
Name: Pirimiphos-Ethyl
Name: 4-diethoxyphosphinothioyloxy-N,N-diethyl-6-methylpyrimidin-2-amine
Formula: C13H24N3O3PS
Exact mass: 333.1276
SMILES: CCN(CC)C1=NC(=CC(=N1)OP(=S)(OCC)OCC)C
InChI: InChI=1S/C13H24N3O3PS/c1-6-16(7-2)13-14-11(5)10-12(15-13)19-20(21,17-8-3)18-9-4/h10H,6-9H2,1-5H3
Instrument: Exploris 240 Orbitrap Thermo Scientific
Instrument type: LC-ESI-QFT
Ms type: MS2
Ion mode: POSITIVE
Ionization: ESI
Fragmentation mode: HCD
Collision energy: 15 % (nominal)
Resolution: 17500
Column name: XBridge C18 3.5um, 2.1x50mm, Waters
Retention time: 12.748 min
Base peak: 334.1347
Precursor m/z: 334.1349
Precursor type: [M+H]+
m/z	relative intensity	assigned
182.1291	7	C9H16N3O+
198.1056	10	C9H16N3S+
306.1042	5	C11H21N3O3PS+
334.1351	999	C13H25N3O3PS+
