Mass spectrum: CGA62826 (2-[2,6-dimethylphenyl)-methoxyacetylamino]propionic acid; LC-ESI-QFT; MS2; CE: 15; R=35000; [M-H]-
Name: CGA62826 (2-[2,6-dimethylphenyl)-methoxyacetylamino]propionic acid
Name: N-(2,6-Dimethylphenyl)-N-(methoxyacetyl)-L-alanine
Name: (2S)-2-(N-(2-methoxyacetyl)-2,6-dimethylanilino)propanoic acid
Formula: C14H19NO4
Exact mass: 265.13141
SMILES: Cc1cccc(c1N([C@@H](C)C(=O)O)C(=O)COC)C
InChI: InChI=1S/C14H19NO4/c1-9-6-5-7-10(2)13(9)15(11(3)14(17)18)12(16)8-19-4/h5-7,11H,8H2,1-4H3,(H,17,18)/t11-/m0/s1
Instrument: Q Exactive Plus Orbitrap Thermo Scientific
Instrument type: LC-ESI-QFT
Ms type: MS2
Ion mode: NEGATIVE
Ionization: ESI
Fragmentation mode: HCD
Collision energy: 15 (nominal)
Resolution: 35000
Column name: XBridge C18 3.5um, 2.1x50mm, Waters
Retention time: 7.8 min
Base peak: 264.1239
Precursor m/z: 264.1241
Precursor type: [M-H]-
m/z	relative intensity	assigned
58.006	2	C2H2O2-
71.0139	4	C3H3O2-
73.0296	4	C3H5O2-
85.0295	66	C4H5O2-
87.0451	3	C4H7O2-
88.0403	2	C3H6NO2-
89.0244	28	C3H5O3-
110.0248	39	C5H4NO2-
120.0819	2	C8H10N-
121.066	306	C8H9O-
130.0661	16	C9H8N-
132.0819	4	C9H10N-
142.051	117	C6H8NO3-
144.0819	14	C10H10N-
146.0976	46	C10H12N-
148.1133	20	C10H14N-
170.0976	3	C12H12N-
172.0769	3	C11H10NO-
174.0926	4	C11H12NO-
176.1081	3	C11H14NO-
188.1082	19	C12H14NO-
192.1032	495	C11H14NO2-
202.124	2	C13H16NO-
204.103	86	C12H14NO2-
205.1108	119	C12H15NO2-
220.1344	607	C13H18NO2-
221.0201	2	C9H5N2O5-
237.1004	4	C12H15NO4-
246.1135	7	C14H16NO3-
264.1242	999	C14H18NO4-
