Mass spectrum: Orphenadrine; LC-ESI-QFT; MS2; CE: 150; R=35000; [M+H]+
Name: Orphenadrine
Name: N,N-dimethyl-2-[(2-methylphenyl)-phenylmethoxy]ethanamine
Formula: C18H23NO
Exact mass: 269.17796
SMILES: CC1=CC=CC=C1C(C2=CC=CC=C2)OCCN(C)C
InChI: InChI=1S/C18H23NO/c1-15-9-7-8-12-17(15)18(20-14-13-19(2)3)16-10-5-4-6-11-16/h4-12,18H,13-14H2,1-3H3
Instrument: Q Exactive Plus Orbitrap Thermo Scientific
Instrument type: LC-ESI-QFT
Ms type: MS2
Ion mode: POSITIVE
Ionization: ESI
Fragmentation mode: HCD
Collision energy: 150 (nominal)
Resolution: 35000
Column name: XBridge C18 3.5um, 2.1x50mm, Waters
Retention time: 7.4 min
Base peak: 270.1849
Precursor m/z: 270.1852
Precursor type: [M+H]+
m/z	relative intensity	assigned
50.0151	9	C4H2+
51.0229	16	C4H3+
53.0386	14	C4H5+
62.0151	2	C5H2+
63.0229	18	C5H3+
65.0386	17	C5H5+
75.0228	2	C6H3+
76.0307	2	C6H4+
77.0385	23	C6H5+
78.0464	8	C6H6+
79.0542	1	C6H7+
81.0335	1	C5H5O+
87.0228	3	C7H3+
89.0386	30	C7H5+
91.0542	26	C7H7+
95.0492	42	C6H7O+
102.0464	9	C8H6+
103.0542	13	C8H7+
104.0619	1	C8H8+
105.0448	23	C6H5N2+
113.0384	3	C9H5+
115.0542	302	C9H7+
126.0464	8	C10H6+
127.0542	3	C10H7+
128.062	18	C10H8+
138.0465	1	C11H6+
139.0542	87	C11H7+
140.0619	4	C11H8+
141.0698	27	C11H9+
145.0648	1	C10H9O+
150.0464	6	C12H6+
151.0545	5	C12H7+
152.0621	73	C12H8+
153.0698	3	C12H9+
155.0603	4	C10H7N2+
163.0542	61	C13H7+
164.0621	128	C13H8+
165.0699	999	C13H9+
166.0778	3	C13H10+
168.0569	41	C12H8O+
169.0648	15	C12H9O+
176.0621	24	C14H8+
177.0698	23	C14H9+
178.0777	88	C14H10+
179.0604	4	C12H7N2+
179.0856	3	C14H11+
196.0519	15	C13H8O2+
