Mass spectrum: Dioxacarb; LC-ESI-QFT; MS2; CE: 150%; R=17500; [M+H]+
Name: Dioxacarb
Name: [2-(1,3-dioxolan-2-yl)phenyl] N-methylcarbamate
Formula: C11H13NO4
Exact mass: 223.0845
SMILES: CNC(=O)OC1=CC=CC=C1C2OCCO2
InChI: InChI=1S/C11H13NO4/c1-12-11(13)16-9-5-3-2-4-8(9)10-14-6-7-15-10/h2-5,10H,6-7H2,1H3,(H,12,13)
Instrument: Exploris 240 Orbitrap Thermo Scientific
Instrument type: LC-ESI-QFT
Ms type: MS2
Ion mode: POSITIVE
Ionization: ESI
Fragmentation mode: HCD
Collision energy: 150 % (nominal)
Resolution: 17500
Column name: XBridge C18 3.5um, 2.1x50mm, Waters
Retention time: 3.997 min
Base peak: 167.0701
Precursor m/z: 224.0917
Precursor type: [M+H]+
m/z	relative intensity	assigned
50.0151	54	C4H2+
51.0229	811	C4H3+
53.0385	195	C4H5+
55.0178	39	C3H3O+
58.0287	28	C2H4NO+
65.0385	108	C5H5+
67.0541	51	C5H7+
77.0385	999	C6H5+
81.0333	15	C5H5O+
91.0543	23	C7H7+
94.0412	26	C6H6O+
95.049	331	C6H7O+
