Mass spectrum: Imazamox; LC-ESI-ITFT; MS2; CE: 15%; R=7500; [M-H]-
Name: Imazamox
Name: 2-(4-isopropyl-5-keto-4-methyl-2-imidazolin-2-yl)-5-(methoxymethyl)nicotinic acid
Formula: C15H19N3O4
Exact mass: 305.1376
SMILES: O=C(O)c1c(ncc(c1)COC)/C2=N/C(C(=O)N2)(C(C)C)C
InChI: InChI=1S/C15H19N3O4/c1-8(2)15(3)14(21)17-12(18-15)11-10(13(19)20)5-9(6-16-11)7-22-4/h5-6,8H,7H2,1-4H3,(H,19,20)(H,17,18,21)
Instrument: LTQ Orbitrap XL Thermo Scientific
Instrument type: LC-ESI-ITFT
Ms type: MS2
Ion mode: NEGATIVE
Ionization: ESI
Fragmentation mode: HCD
Collision energy: 15 % (nominal)
Resolution: 7500
Column name: XBridge C18 3.5um, 2.1x50mm, Waters
Retention time: 5.7 min
Base peak: 304.1312
Precursor m/z: 304.1303
Precursor type: [M-H]-
m/z	relative intensity	assigned
260.1407	999	C14H18N3O2-
304.1309	526	C15H18N3O4-
