Mass spectrum: MCLW; LC-ESI-QFT; MS2; CE: 75%; R=17500; [M-H]-
Name: MCLW
Name: Microcystin LW
Name: (5R,8S,11R,12S,15S,18S,19S,22R)-15-(1H-indol-3-ylmethyl)-18-[(1E,3E,5S,6S)-6-methoxy-3,5-dimethyl-7-phenylhepta-1,3-dienyl]-1,5,12,19-tetramethyl-2-methylidene-8-(2-methylpropyl)-3,6,9,13,16,20,25-heptaoxo-1,4,7,10,14,17,21-heptazacyclopentacosane-11,22-dicarboxylic acid
Class: NA
Formula: C54H72N8O12
Exact mass: 1024.5270
SMILES: CO[C@@H](Cc1ccccc1)[C@@H](C)/C=C(C)/C=C/[C@@H]2NC(=O)[C@H](Cc3c[nH]c4ccccc34)NC(=O)[C@@H](C)[C@@H](NC(=O)[C@H](CC(C)C)NC(=O)[C@@H](C)NC(=O)C(=C)N(C)C(=O)CC[C@@H](NC(=O)[C@H]2C)C(O)=O)C(O)=O
InChI: InChI=1S/C54H72N8O12/c1-29(2)24-42-52(69)61-46(54(72)73)33(6)48(65)59-43(27-37-28-55-40-19-15-14-18-38(37)40)51(68)57-39(21-20-30(3)25-31(4)44(74-10)26-36-16-12-11-13-17-36)32(5)47(64)58-41(53(70)71)22-23-45(63)62(9)35(8)50(67)56-34(7)49(66)60-42/h11-21,25,28-29,31-34,39,41-44,46,55H,8,22-24,26-27H2,1-7,9-10H3,(H,56,67)(H,57,68)(H,58,64)(H,59,65)(H,60,66)(H,61,69)(H,70,71)(H,72,73)/b21-20+,30-25+/t31-,32-,33-,34+,39-,41+,42-,43-,44-,46+/m0/s1
Instrument: Q Exactive Plus Orbitrap Thermo Scientific
Instrument type: LC-ESI-QFT
Ms type: MS2
Ion mode: NEGATIVE
Ionization: ESI
Fragmentation mode: HCD
Collision energy: 75 % (nominal)
Resolution: 17500
Column name: XBridge C18 3.5um, 2.1x50mm, Waters
Retention time: 11.783 min
Base peak: 1023.5204
Precursor m/z: 1023.5197
Precursor type: [M-H]-
m/z	relative intensity	assigned
71.0251	35	C2H3N2O-
72.0091	20	C2H2NO2-
72.0456	164	C3H6NO-
73.0296	46	C3H5O2-
73.0409	87	C2H5N2O-
74.0248	217	C2H4NO2-
80.0506	70	C5H6N-
81.0221	46	C4H3NO-
82.0171	32	C3H2N2O-
82.0299	188	C4H4NO-
82.0663	224	C5H8N-
83.0251	65	C3H3N2O-
84.0089	17	C3H2NO2-
84.0455	265	C4H6NO-
84.082	53	C5H10N-
85.0406	56	C3H5N2O-
87.0565	261	C3H7N2O-
88.0404	48	C3H6NO2-
94.0298	70	C5H4NO-
94.0664	28	C6H8N-
95.025	68	C4H3N2O-
96.0327	33	C4H4N2O-
96.0455	174	C5H6NO-
96.0821	88	C6H10N-
97.0409	225	C4H5N2O-
98.012	35	C3H2N2O2-
98.0249	27	C4H4NO2-
98.0616	24	C5H8NO-
99.0199	37	C3H3N2O2-
99.0564	211	C4H7N2O-
101.0721	25	C4H9N2O-
107.0381	22	C6H5NO-
107.0613	32	C6H7N2-
108.0216	48	C6H4O2-
108.0333	122	C5H4N2O-
108.0454	56	C6H6NO-
109.017	185	C5H3NO2-
109.0407	235	C5H5N2O-
110.0248	999	C5H4NO2-
111.0204	83	C4H3N2O2-
111.0563	105	C5H7N2O-
112.0405	192	C5H6NO2-
112.0768	160	C6H10NO-
113.0359	133	C4H5N2O2-
116.0507	215	C8H6N-
121.0407	36	C6H5N2O-
122.0246	47	C6H4NO2-
122.0483	42	C6H6N2O-
122.0976	42	C8H12N-
123.02	46	C5H3N2O2-
123.0329	84	C6H5NO2-
123.0436	41	C5H5N3O-
123.0563	157	C6H7N2O-
124.0404	743	C6H6NO2-
125.0355	79	C5H5N2O2-
125.0594	246	C5H7N3O-
125.0718	50	C6H9N2O-
126.0565	23	C6H8NO2-
127.0513	286	C5H7N2O2-
128.0353	935	C5H6NO3-
129.1033	549	C6H13N2O-
130.066	63	C9H8N-
130.087	48	C6H12NO2-
135.0324	50	C7H5NO2-
135.0566	31	C7H7N2O-
137.0721	36	C7H9N2O-
138.0434	145	C6H6N2O2-
138.056	48	C7H8NO2-
139.0506	20	C6H7N2O2-
139.0875	280	C7H11N2O-
140.05	45	C10H6N-
141.0671	23	C6H9N2O2-
142.0659	360	C10H8N-
149.0354	29	C7H5N2O2-
149.0715	24	C8H9N2O-
150.0559	176	C8H8NO2-
150.0669	40	C7H8N3O-
153.0667	78	C7H9N2O2-
153.1029	72	C8H13N2O-
155.0827	80	C7H11N2O2-
155.1192	91	C8H15N2O-
157.0764	47	C10H9N2-
157.135	21	C8H17N2O-
165.1029	338	C9H13N2O-
167.0819	62	C6H9N5O-
168.0451	50	C11H6NO-
169.1348	22	C9H17N2O-
180.1139	191	C9H14N3O-
182.1293	745	C9H16N3O-
183.1131	40	C7H13N5O-
193.0718	46	C7H13O6-
200.1396	70	C7H16N6O-
208.1084	64	C8H12N6O-
