Mass spectrum: N4-Acetylsulfadiazine; LC-ESI-ITFT; MS2; CE: 35%; R=30000; [M+H]+
Name: N4-Acetylsulfadiazine
Name: N-[4-(2-pyrimidinylsulfamoyl)phenyl]acetamide
Formula: C12H12N4O3S
Exact mass: 292.0630
SMILES: c1nc(NS(c2ccc(cc2)NC(C)=O)(=O)=O)ncc1
InChI: InChI=1S/C12H12N4O3S/c1-9(17)15-10-3-5-11(6-4-10)20(18,19)16-12-13-7-2-8-14-12/h2-8H,1H3,(H,15,17)(H,13,14,16)
Instrument: LTQ Orbitrap XL Thermo Scientific
Instrument type: LC-ESI-ITFT
Ms type: MS2
Ion mode: POSITIVE
Ionization: ESI
Fragmentation mode: CID
Collision energy: 35 % (nominal)
Resolution: 30000
Column name: XBridge C18 3.5um, 2.1x50mm, Waters
Retention time: 3.6 min
Base peak: 293.0713
Precursor m/z: 293.0703
Precursor type: [M+H]+
m/z	relative intensity	assigned
94.065	53	C6H8N+
96.0557	22	C4H6N3+
108.0444	57	C6H6NO+
118.065	78	C8H8N+
134.06	103	C8H8NO+
136.0756	999	C8H10NO+
150.0549	35	C8H8NO2+
156.0114	19	C6H6NO2S+
158.0018	132	C4H4N3O2S+
162.0664	18	C8H8N3O+
198.0218	885	C8H8NO3S+
227.0926	195	C12H11N4O+
251.0594	37	C10H11N4O2S+
275.0596	158	C12H11N4O2S+
293.0695	35	C12H13N4O3S+
