Mass spectrum: Dexamethasone acetate; LC-ESI-QFT; MS2; CE: 120; R=35000; [M-H]-
Name: Dexamethasone acetate
Name: Dexamethason-21-acetate
Name: [2-(9-fluoro-11,17-dihydroxy-10,13,16-trimethyl-3-oxo-6,7,8,11,12,14,15,16-octahydrocyclopenta[a]phenanthren-17-yl)-2-oxoethyl] acetate
Formula: C24H31FO6
Exact mass: 434.21047
SMILES: CC1CC2C3CCC4=CC(=O)C=CC4(C3(C(CC2(C1(C(=O)COC(=O)C)O)C)O)F)C
InChI: InChI=1S/C24H31FO6/c1-13-9-18-17-6-5-15-10-16(27)7-8-21(15,3)23(17,25)19(28)11-22(18,4)24(13,30)20(29)12-31-14(2)26/h7-8,10,13,17-19,28,30H,5-6,9,11-12H2,1-4H3
Instrument: Q Exactive Plus Orbitrap Thermo Scientific
Instrument type: LC-ESI-QFT
Ms type: MS2
Ion mode: NEGATIVE
Ionization: ESI
Fragmentation mode: HCD
Collision energy: 120 (nominal)
Resolution: 35000
Column name: XBridge C18 3.5um, 2.1x50mm, Waters
Retention time: 10.3 min
Base peak: 479.2081
Precursor m/z: 433.2032
Precursor type: [M-H]-
m/z	relative intensity	assigned
55.0189	4	C3H3O-
57.0345	1	C3H5O-
59.0138	999	C2H3O2-
65.0397	2	C5H5-
67.0189	1	C4H3O-
71.014	1	C3H3O2-
79.0554	2	C6H7-
81.0346	1	C5H5O-
83.0502	1	C5H7O-
93.0345	4	C6H5O-
95.0503	1	C6H7O-
103.0553	3	C8H7-
106.0426	1	C7H6O-
107.0502	5	C7H7O-
108.0218	1	C6H4O2-
115.0553	7	C9H7-
117.0346	2	C8H5O-
119.0501	7	C8H7O-
121.0295	8	C7H5O2-
121.0659	5	C8H9O-
122.0373	2	C7H6O2-
123.0453	1	C7H7O2-
129.0713	1	C10H9-
130.0423	17	C9H6O-
131.0502	17	C9H7O-
133.0659	8	C9H9O-
134.0375	1	C8H6O2-
135.0454	1	C8H7O2-
137.0608	1	C8H9O2-
143.0502	30	C10H7O-
145.0295	7	C9H5O2-
145.0659	5	C10H9O-
146.0375	1	C9H6O2-
147.0452	13	C9H7O2-
147.0817	1	C10H11O-
148.0532	1	C9H8O2-
149.0607	2	C9H9O2-
156.0579	5	C11H8O-
157.0658	10	C11H9O-
158.0373	9	C10H6O2-
159.0451	5	C10H7O2-
160.0532	1	C10H8O2-
161.0607	4	C10H9O2-
165.0708	3	C13H9-
167.0502	4	C12H7O-
169.0659	10	C12H9O-
171.0452	10	C11H7O2-
172.0533	1	C11H8O2-
173.0242	2	C10H5O3-
173.0609	1	C11H9O2-
174.032	4	C10H6O3-
175.0399	3	C10H7O3-
179.0866	2	C14H11-
180.0582	5	C13H8O-
181.0659	4	C13H9O-
182.0737	1	C13H10O-
183.0453	2	C12H7O2-
183.0816	2	C13H11O-
185.0608	3	C12H9O2-
188.0482	1	C11H8O3-
193.0657	22	C14H9O-
194.0738	1	C14H10O-
195.045	6	C13H7O2-
195.0815	6	C14H11O-
196.0532	1	C13H8O2-
197.0608	5	C13H9O2-
202.0786	2	C16H10-
204.0583	2	C15H8O-
205.0658	2	C15H9O-
206.0736	7	C15H10O-
207.0815	13	C15H11O-
208.0528	2	C14H8O2-
209.0607	3	C14H9O2-
209.097	2	C15H13O-
210.0685	1	C14H10O2-
217.0659	6	C16H9O-
218.0738	1	C16H10O-
219.0814	14	C16H11O-
220.0896	2	C16H12O-
221.0605	4	C15H9O2-
221.0969	4	C16H13O-
222.0686	2	C15H10O2-
223.0763	2	C15H11O2-
230.0736	10	C17H10O-
231.0815	12	C17H11O-
232.0892	8	C17H12O-
233.06	2	C16H9O2-
233.0971	5	C17H13O-
234.069	1	C16H10O2-
235.0762	2	C16H11O2-
237.0923	1	C16H13O2-
243.0812	2	C18H11O-
244.0898	2	C18H12O-
245.0606	3	C17H9O2-
245.0972	3	C18H13O-
246.0685	2	C17H10O2-
247.0763	11	C17H11O2-
247.1131	1	C18H15O-
248.0842	2	C17H12O2-
249.0921	5	C17H13O2-
258.0682	7	C18H10O2-
259.0762	8	C18H11O2-
260.0842	16	C18H12O2-
261.0923	4	C18H13O2-
263.1076	3	C18H15O2-
272.0844	1	C19H12O2-
273.093	1	C19H13O2-
274.0642	2	C15H11FO4-
274.1	1	C19H14O2-
275.0714	7	C18H11O3-
275.1083	1	C19H15O2-
276.0789	5	C18H12O3-
277.0874	1	C18H13O3-
289.0874	1	C19H13O3-
