Mass spectrum: Ranitidine-S-oxide; LC-ESI-ITFT; MS2; CE: 30%; R=7500; [M+H]+
Name: Ranitidine-S-oxide
Name: 1,1-Ethenediamine, N-(2-(((5-((dimethylamino)methyl)-2-furanyl)methyl)sulfinyl)ethyl)-N'-methyl-2-nitro-
Formula: C13H22N4O4S
Exact mass: 330.1362
SMILES: [O-][N+](=O)\C=C(/NC)NCCS(=O)Cc1oc(cc1)CN(C)C
InChI: InChI=1S/C13H22N4O4S/c1-14-13(9-17(18)19)15-6-7-22(20)10-12-5-4-11(21-12)8-16(2)3/h4-5,9,14-15H,6-8,10H2,1-3H3/b13-9+
Instrument: LTQ Orbitrap XL Thermo Scientific
Instrument type: LC-ESI-ITFT
Ms type: MS2
Ion mode: POSITIVE
Ionization: ESI
Fragmentation mode: HCD
Collision energy: 30 % (nominal)
Resolution: 7500
Column name: XBridge C18 3.5um, 2.1x50mm, Waters
Retention time: 0.8 min
Base peak: 331.1445
Precursor m/z: 331.1435
Precursor type: [M+H]+
m/z	relative intensity	assigned
58.065	11	C3H8N+
68.0494	13	C4H6N+
82.0652	11	C5H8N+
84.0678	4	C4H8N2+
93.0696	5	C7H9+
94.0414	180	C6H6O+
95.0492	47	C6H7O+
95.0731	4	C6H9N+
96.0568	18	C6H8O+
98.0842	9	C5H10N2+
108.0808	13	C7H10N+
110.0965	530	C7H12N+
125.0053	7	C6H5OS+
130.056	38	C5H10N2S+
138.0914	999	C8H12NO+
139.0992	33	C8H13NO+
143.0161	33	C6H7O2S+
146.0507	11	C5H10N2OS+
176.049	33	C13H6N+
188.0739	14	C8H14NO2S+
192.0438	71	C11H4N4+
193.0513	4	C5H11N3O3S+
222.0818	21	C11H14N2OS+
240.0929	7	C11H16N2O2S+
268.0754	7	C11H14N3O3S+
286.0853	5	C11H16N3O4S+
331.145	44	C13H23N4O4S+
