Mass spectrum: Oxybutynin; LC-ESI-QFT; MS2; CE: 15; R=35000; [M+H]+
Name: Oxybutynin
Name: 2-cyclohexyl-2-hydroxy-2-phenyl-acetic acid 4-(diethylamino)but-2-ynyl ester
Formula: C22H31NO3
Exact mass: 357.23039
SMILES: CCN(CC)CC#CCOC(=O)C(C1CCCCC1)(C2=CC=CC=C2)O
InChI: InChI=1S/C22H31NO3/c1-3-23(4-2)17-11-12-18-26-21(24)22(25,19-13-7-5-8-14-19)20-15-9-6-10-16-20/h5,7-8,13-14,20,25H,3-4,6,9-10,15-18H2,1-2H3
Instrument: Q Exactive Orbitrap Thermo Scientific
Instrument type: LC-ESI-QFT
Ms type: MS2
Ion mode: POSITIVE
Ionization: ESI
Fragmentation mode: HCD
Collision energy: 15 (nominal)
Resolution: 35000
Column name: XBridge C18 3.5um, 2.1x50mm, Waters
Retention time: 8.9 min
Base peak: 358.2382
Precursor m/z: 358.2377
Precursor type: [M+H]+
m/z	relative intensity	assigned
72.0806	1	C4H10N+
96.0808	1	C6H10N+
97.0284	1	C5H5O2+
105.0331	1	C7H5O+
124.1122	15	C8H14N+
142.1228	6	C8H16NO+
258.1495	2	C16H20NO2+
340.2275	14	C22H30NO2+
358.238	999	C22H32NO3+
