Mass spectrum: Morphothion; LC-ESI-QFT; MS2; CE: 120%; R=17500; [M+H]+
Name: Morphothion
Name: 2-dimethoxyphosphinothioylsulfanyl-1-morpholin-4-ylethanone
Formula: C8H16NO4PS2
Exact mass: 285.0258
SMILES: COP(=S)(OC)SCC(=O)N1CCOCC1
InChI: InChI=1S/C8H16NO4PS2/c1-11-14(15,12-2)16-7-8(10)9-3-5-13-6-4-9/h3-7H2,1-2H3
Instrument: Exploris 240 Orbitrap Thermo Scientific
Instrument type: LC-ESI-QFT
Ms type: MS2
Ion mode: POSITIVE
Ionization: ESI
Fragmentation mode: HCD
Collision energy: 120 % (nominal)
Resolution: 17500
Column name: XBridge C18 3.5um, 2.1x50mm, Waters
Retention time: 4.868 min
Base peak: 286.033
Precursor m/z: 286.0331
Precursor type: [M+H]+
m/z	relative intensity	assigned
56.0494	72	C3H6N+
58.0652	45	C3H8N+
58.9949	74	C2H3S+
62.0184	137	C2H6S+
62.9452	27	PS+
62.9994	183	CH4OP+
70.0651	102	C4H8N+
78.9943	999	CH4O2P+
82.0652	43	C5H8N+
86.0062	15	C3H4NS+
86.0601	70	C4H8NO+
88.0757	117	C4H10NO+
93.0099	278	C2H6O2P+
124.9821	466	C2H6O2PS+
142.9926	140	C2H8O3PS+
