Mass spectrum: Azinphos-ethyl; LC-ESI-QFT; MS2; CE: 75; R=35000; [M+H]+
Name: Azinphos-ethyl
Name: Azinphos ethyl
Name: 3-(diethoxyphosphinothioylsulfanylmethyl)-1,2,3-benzotriazin-4-one
Formula: C12H16N3O3PS2
Exact mass: 345.03707
SMILES: CCOP(=S)(OCC)SCN1C(=O)C2=CC=CC=C2N=N1
InChI: InChI=1S/C12H16N3O3PS2/c1-3-17-19(20,18-4-2)21-9-15-12(16)10-7-5-6-8-11(10)13-14-15/h5-8H,3-4,9H2,1-2H3
Instrument: Q Exactive Plus Orbitrap Thermo Scientific
Instrument type: LC-ESI-QFT
Ms type: MS2
Ion mode: POSITIVE
Ionization: ESI
Fragmentation mode: HCD
Collision energy: 75 (nominal)
Resolution: 35000
Column name: XBridge C18 3.5um, 2.1x50mm, Waters
Retention time: 11.4 min
Base peak: 346.0438
Precursor m/z: 346.0443
Precursor type: [M+H]+
m/z	relative intensity	assigned
50.0152	20	C4H2+
51.023	82	C4H3+
53.0386	111	C4H5+
55.0179	7	C3H3O+
59.9663	1	COS+
64.9788	55	H2O2P+
65.0387	25	C5H5+
67.0543	6	C5H7+
68.9794	2	C3HS+
75.0229	13	C6H3+
77.0386	181	C6H5+
78.0338	6	C5H4N+
78.0464	2	C6H6+
78.9402	17	OPS+
81.0336	14	C5H5O+
92.0258	5	C6H4O+
94.0415	5	C6H6O+
95.0492	395	C6H7O+
96.0444	7	C5H6NO+
96.9509	126	H2O2PS+
98.9842	9	H4O4P+
102.0339	23	C7H4N+
103.0543	5	C8H7+
104.0495	101	C7H6N+
105.0336	102	C7H5O+
105.0448	231	C6H5N2+
108.003	9	C6H4S+
109.0108	368	C6H5S+
110.9667	2	CH4O2PS+
114.9614	999	H4O3PS+
120.0444	14	C7H6NO+
121.0107	5	C7H5S+
126.9437	1	CH4OPS2+
128.9771	15	CH6O3PS+
130.0401	55	C7H4N3+
132.972	6	H6O4PS+
135.9979	25	C7H4OS+
137.0057	272	C3H8NOPS+
142.9387	33	CH4O2PS2+
148.0218	1	C4H9N2PS+
150.0552	1	C4H11N2O2P+
152.9829	13	C3H8NPS2+
153.0006	25	C7H5O2S+
154.9718	11	C6H4OPS+
167.97	2	C3H7NOPS2+
168.9778	2	C3H8NOPS2+
170.9488	11	C6H4PS2+
172.9825	1	C6H6O2PS+
