Mass spectrum: Amoxicillin; LC-ESI-QFT; MS2; CE: 90; R=35000; [M-H]-
Name: Amoxicillin
Name: Amoxicillin anhydrous
Name: (2S,5R,6R)-6-[[(2R)-2-amino-2-(4-hydroxyphenyl)-1-oxoethyl]amino]-3,3-dimethyl-7-oxo-4-thia-1-azabicyclo[3.2.0]heptane-2-carboxylic acid
Formula: C16H19N3O5S
Exact mass: 365.10454
SMILES: CC1(C)S[C@@H]2[C@H](NC(=O)[C@H](N)C3=CC=C(O)C=C3)C(=O)N2[C@H]1C(O)=O
InChI: InChI=1S/C16H19N3O5S/c1-16(2)11(15(23)24)19-13(22)10(14(19)25-16)18-12(21)9(17)7-3-5-8(20)6-4-7/h3-6,9-11,14,20H,17H2,1-2H3,(H,18,21)(H,23,24)/t9-,10-,11+,14-/m1/s1
Instrument: Q Exactive Orbitrap Thermo Scientific
Instrument type: LC-ESI-QFT
Ms type: MS2
Ion mode: NEGATIVE
Ionization: ESI
Fragmentation mode: HCD
Collision energy: 90 (nominal)
Resolution: 35000
Column name: XBridge C18 3.5um, 2.1x50mm, Waters
Retention time: 2.2 min
Base peak: 364.0974
Precursor m/z: 364.0973
Precursor type: [M-H]-
m/z	relative intensity	assigned
56.9804	23	C2HS-
58.9961	18	C2H3S-
59.9915	1	CH2NS-
60.9754	5	CHOS-
65.0397	8	C5H5-
67.0302	5	C3H3N2-
70.9836	5	C2HNS-
71.9913	192	C2H2NS-
72.9992	252	C2H3NS-
74.007	379	C2H4NS-
74.991	27	C2H3OS-
77.0397	17	C6H5-
82.0173	2	C3H2N2O-
83.0251	289	C3H3N2O-
83.9913	54	C3H2NS-
84.9991	1	C3H3NS-
86.007	39	C3H4NS-
89.0179	1	C2H5N2S-
93.0346	999	C6H5O-
95.025	20	C4H3N2O-
95.0502	194	C6H7O-
99.9863	69	C3H2NOS-
102.002	15	C3H4NOS-
105.0346	21	C7H5O-
108.0217	2	C6H4O2-
111.0021	8	C4H3N2S-
111.9863	13	C4H2NOS-
117.0347	22	C8H5O-
118.03	60	C7H4NO-
119.0502	114	C8H7O-
120.0455	156	C7H6NO-
121.0295	8	C7H5O2-
123.0452	782	C7H7O2-
123.9987	3	C6H4OS-
125.0063	2	C6H5OS-
129.0129	40	C4H5N2OS-
129.0346	25	C9H5O-
130.03	2	C8H4NO-
131.0377	7	C8H5NO-
132.0217	164	C8H4O2-
133.0295	109	C8H5O2-
137.0067	51	C7H5OS-
144.0454	69	C9H6NO-
145.0294	5	C9H5O2-
146.0247	6	C8H4NO2-
146.0612	14	C9H8NO-
147.0324	1	C8H5NO2-
150.0145	9	C8H6OS-
151.0222	22	C8H7OS-
162.0019	13	C8H4NOS-
163.0225	3	C9H7OS-
172.0404	17	C10H6NO2-
