Mass spectrum: Triamterene; LC-ESI-QFT; MS2; CE: 75; R=35000; [M+H]+
Name: Triamterene
Name: 6-phenylpteridine-2,4,7-triamine
Formula: C12H11N7
Exact mass: 253.10759
SMILES: C1=CC=C(C=C1)C2=NC3=C(N=C2N)N=C(N=C3N)N
InChI: InChI=1S/C12H11N7/c13-9-7(6-4-2-1-3-5-6)16-8-10(14)18-12(15)19-11(8)17-9/h1-5H,(H6,13,14,15,17,18,19)
Instrument: Q Exactive Plus Orbitrap Thermo Scientific
Instrument type: LC-ESI-QFT
Ms type: MS2
Ion mode: POSITIVE
Ionization: ESI
Fragmentation mode: HCD
Collision energy: 75 (nominal)
Resolution: 35000
Column name: XBridge C18 3.5um, 2.1x50mm, Waters
Retention time: 4.5 min
Base peak: 254.1144
Precursor m/z: 254.1149
Precursor type: [M+H]+
m/z	relative intensity	assigned
51.0228	1	C4H3+
55.0291	5	C2H3N2+
67.0291	7	C3H3N2+
68.0243	1	C2H2N3+
77.0383	6	C6H5+
80.0243	4	C3H2N3+
82.04	16	C3H4N3+
89.0383	4	C7H5+
92.0244	61	C4H2N3+
95.0492	6	C6H7O+
103.0416	2	C7H5N+
104.0495	630	C7H6N+
105.0448	2	C6H5N2+
107.0353	13	C4H3N4+
116.0495	90	C8H6N+
117.0573	3	C8H7N+
128.0368	1	C8H4N2+
129.0449	6	C8H5N2+
131.0605	15	C8H7N2+
133.0761	2	C8H9N2+
134.0462	18	C5H4N5+
134.0601	4	C8H8NO+
141.0448	64	C9H5N2+
142.0527	21	C9H6N2+
143.0605	252	C9H7N2+
144.0557	1	C8H6N3+
153.0449	5	C10H5N2+
158.0715	8	C9H8N3+
161.0711	11	C9H9N2O+
166.0401	3	C10H4N3+
168.0558	352	C10H6N3+
169.0633	3	C10H7N3+
170.0713	6	C10H8N3+
171.0555	2	C10H7N2O+
183.0667	64	C10H7N4+
184.0743	1	C10H8N4+
185.0823	55	C10H9N4+
186.0663	20	C10H8N3O+
193.0511	28	C11H5N4+
195.0667	404	C11H7N4+
210.0776	189	C11H8N5+
212.0932	114	C11H10N5+
213.0772	34	C11H9N4O+
220.062	57	C12H6N5+
227.1042	41	C11H11N6+
235.073	2	C12H7N6+
236.0806	1	C12H8N6+
237.0885	999	C12H9N6+
238.0724	7	C12H8N5O+
239.0913	2	C11H9N7+
252.0994	4	C12H10N7+
254.1151	206	C12H12N7+
