Mass spectrum: Genistein; LC-ESI-QFT; MS2; CE: 90; R=35000; [M-H]-
Name: Genistein
Name: 5,7-dihydroxy-3-(4-hydroxyphenyl)chromen-4-one
Formula: C15H10O5
Exact mass: 270.05282
SMILES: C1=CC(=CC=C1C2=COC3=CC(=CC(=C3C2=O)O)O)O
InChI: InChI=1S/C15H10O5/c16-9-3-1-8(2-4-9)11-7-20-13-6-10(17)5-12(18)14(13)15(11)19/h1-7,16-18H
Instrument: Q Exactive Plus Orbitrap Thermo Scientific
Instrument type: LC-ESI-QFT
Ms type: MS2
Ion mode: NEGATIVE
Ionization: ESI
Fragmentation mode: HCD
Collision energy: 90 (nominal)
Resolution: 35000
Column name: XBridge C18 3.5um, 2.1x50mm, Waters
Retention time: 7.7 min
Base peak: 269.0453
Precursor m/z: 269.0455
Precursor type: [M-H]-
m/z	relative intensity	assigned
61.0085	8	C5H-
62.0162	3	C5H2-
63.0241	999	C5H3-
63.9955	23	C4O-
65.0033	917	C4HO-
67.019	17	C4H3O-
68.9983	21	C3HO2-
75.0242	13	C6H3-
77.0034	3	C5HO-
77.0398	34	C6H5-
79.0191	6	C5H3O-
83.0139	74	C4H3O2-
89.0033	64	C6HO-
89.0397	103	C7H5-
91.019	298	C6H3O-
92.0267	2	C6H4O-
92.9982	1	C5HO2-
93.0346	17	C6H5O-
95.0503	78	C6H7O-
101.0398	2	C8H5-
102.0476	2	C8H6-
103.019	1	C7H3O-
103.0553	8	C8H7-
104.0269	15	C7H4O-
105.0345	23	C7H5O-
106.0425	6	C7H6O-
107.0139	255	C6H3O2-
107.0503	26	C7H7O-
108.0216	3	C6H4O2-
109.0295	7	C6H5O2-
115.0554	9	C9H7-
116.0268	8	C8H4O-
117.0347	137	C8H5O-
119.0502	18	C8H7O-
120.0215	1	C7H4O2-
121.0296	9	C7H5O2-
123.0452	169	C7H7O2-
127.0552	3	C10H7-
128.0269	6	C9H4O-
129.0347	40	C9H5O-
130.0424	87	C9H6O-
131.0503	70	C9H7O-
132.0217	842	C8H4O2-
133.0296	939	C8H5O2-
134.0374	360	C8H6O2-
135.0089	18	C7H3O3-
135.0452	355	C8H7O2-
139.0553	2	C11H7-
140.0268	1	C10H4O-
141.0347	53	C10H5O-
141.0709	3	C11H9-
142.0428	1	C10H6O-
143.0502	56	C10H7O-
145.0296	21	C9H5O2-
145.0659	2	C10H9O-
147.0087	2	C8H3O3-
147.0453	5	C9H7O2-
148.0167	5	C8H4O3-
151.0037	28	C7H3O4-
152.0632	2	C12H8-
153.0346	6	C11H5O-
153.0711	1	C12H9-
154.0425	65	C11H6O-
155.0504	73	C11H7O-
156.0219	34	C10H4O2-
156.0581	26	C11H8O-
157.0295	120	C10H5O2-
157.066	7	C11H9O-
158.0373	58	C10H6O2-
159.0452	184	C10H7O2-
161.0248	1	C9H5O3-
167.0502	55	C12H7O-
168.0581	11	C12H8O-
169.0293	5	C11H5O2-
169.0658	26	C12H9O-
170.0375	2	C11H6O2-
171.0452	33	C11H7O2-
172.053	11	C11H8O2-
173.0606	19	C11H9O2-
176.0115	2	C9H4O4-
179.0506	2	C13H7O-
180.0581	97	C13H8O-
181.0292	3	C12H5O2-
181.0657	11	C13H9O-
182.0373	60	C12H6O2-
183.0451	50	C12H7O2-
184.0529	6	C12H8O2-
185.0608	7	C12H9O2-
195.0452	95	C13H7O2-
196.053	23	C13H8O2-
197.0244	2	C12H5O3-
197.0611	2	C13H9O2-
198.0321	11	C12H6O3-
199.0399	12	C12H7O3-
200.048	6	C12H8O3-
201.0555	7	C12H9O3-
210.0324	5	C13H6O3-
211.0402	41	C13H7O3-
212.0482	6	C13H8O3-
213.0557	8	C13H9O3-
223.0402	68	C14H7O3-
224.0479	22	C14H8O3-
239.0349	31	C14H7O4-
240.0427	2	C14H8O4-
241.0508	1	C14H9O4-
267.0301	6	C15H7O5-
269.0455	7	C15H9O5-
