Mass spectrum: Pirimicarb-desamido; LC-ESI-QFT; MS2; CE: 90%; R=17500; [M+H]+
Name: Pirimicarb-desamido
Name: 2-(dimethylamino)-5,6-dimethyl-1H-pyrimidin-4-one
Formula: C8H13N3O
Exact mass: 167.1059
SMILES: CC1=C(N=C(N=C1C)N(C)C)O
InChI: InChI=1S/C8H13N3O/c1-5-6(2)9-8(11(3)4)10-7(5)12/h1-4H3,(H,9,10,12)
Instrument: Q Exactive Plus Orbitrap Thermo Scientific
Instrument type: LC-ESI-QFT
Ms type: MS2
Ion mode: POSITIVE
Ionization: ESI
Fragmentation mode: HCD
Collision energy: 90 % (nominal)
Resolution: 17500
Column name: XBridge C18 3.5um, 2.1x50mm, Waters
Retention time: 1.434 min
Base peak: 168.1132
Precursor m/z: 168.1131
Precursor type: [M+H]+
m/z	relative intensity	assigned
53.0386	7	C4H5+
54.0337	3	C3H4N+
55.0291	24	C2H3N2+
55.0542	45	C4H7+
56.037	17	C2H4N2+
56.0494	2	C3H6N+
68.0495	43	C4H6N+
69.0084	93	C2HN2O+
69.0574	7	C4H7N+
70.0651	99	C4H8N+
71.0604	999	C3H7N2+
94.0524	3	C5H6N2+
95.0605	5	C5H7N2+
98.0601	210	C5H8NO+
109.0761	65	C6H9N2+
110.06	1	C6H8NO+
123.0553	96	C6H7N2O+
124.0631	15	C6H8N2O+
125.0712	10	C6H9N2O+
153.0897	9	C7H11N3O+
156.0528	9	
166.098	2	C8H12N3O+
168.1131	55	C8H14N3O+
