Mass spectrum: Valsartan; LC-ESI-ITFT; MS2; CE: 35%; R=30000; [M+H]+
Name: Valsartan
Name: (2S)-3-methyl-2-[1-oxopentyl-[[4-[2-(2H-tetrazol-5-yl)phenyl]phenyl]methyl]amino]butanoic acid
Formula: C24H29N5O3
Exact mass: 435.2270
SMILES: CCCCC(=O)N(CC1=CC=C(C=C1)C2=C(C=CC=C2)C3=NN=NN3)[C@@H](C(C)C)C(O)=O
InChI: InChI=1S/C24H29N5O3/c1-4-5-10-21(30)29(22(16(2)3)24(31)32)15-17-11-13-18(14-12-17)19-8-6-7-9-20(19)23-25-27-28-26-23/h6-9,11-14,16,22H,4-5,10,15H2,1-3H3,(H,31,32)(H,25,26,27,28)/t22-/m0/s1
Instrument: LTQ Orbitrap XL Thermo Scientific
Instrument type: LC-ESI-ITFT
Ms type: MS2
Ion mode: POSITIVE
Ionization: ESI
Fragmentation mode: CID
Collision energy: 35 % (nominal)
Resolution: 30000
Column name: XBridge C18 3.5um, 2.1x50mm, Waters
Retention time: 11.2 min
Base peak: 436.2337
Precursor m/z: 436.2343
Precursor type: [M+H]+
m/z	relative intensity	assigned
153.07	1	C12H9+
178.0776	1	C14H10+
180.0808	5	C13H10N+
190.0652	9	C14H8N+
206.084	3	C14H10N2+
207.0916	24	C14H11N2+
235.0977	144	C14H11N4+
291.1492	57	C19H19N2O+
306.1714	235	C18H20N5+
352.1769	51	C19H22N5O2+
362.2227	244	C23H28N3O+
390.228	1	C23H28N5O+
408.2283	400	C24H30N3O3+
418.2234	999	C24H28N5O2+
