Mass spectrum: Levamisole; LC-ESI-ITFT; MS2; CE: 60%; R=7500; [M+H]+
Name: Levamisole
Name: (6S)-6-phenyl-2,3,5,6-tetrahydroimidazo[2,1-b][1,3]thiazole
Formula: C11H12N2S
Exact mass: 204.0721
SMILES: c1([C@H]2CN3CCSC3=N2)ccccc1
InChI: InChI=1S/C11H12N2S/c1-2-4-9(5-3-1)10-8-13-6-7-14-11(13)12-10/h1-5,10H,6-8H2/t10-/m1/s1
Instrument: LTQ Orbitrap XL Thermo Scientific
Instrument type: LC-ESI-ITFT
Ms type: MS2
Ion mode: POSITIVE
Ionization: ESI
Fragmentation mode: HCD
Collision energy: 60 % (nominal)
Resolution: 7500
Column name: XBridge C18 3.5um, 2.1x50mm, Waters
Retention time: 2.9 min
Base peak: 205.0801
Precursor m/z: 205.0794
Precursor type: [M+H]+
m/z	relative intensity	assigned
61.0106	6	C2H5S+
88.0216	32	C3H6NS+
91.0542	33	C7H7+
103.0545	4	C8H7+
105.0699	25	C8H9+
115.0542	2	C9H7+
117.0574	6	C8H7N+
117.07	35	C9H9+
118.0652	32	C8H8N+
119.0856	5	C9H11+
123.0264	42	C7H7S+
127.0322	2	C5H7N2S+
128.0619	3	C10H8+
129.07	58	C10H9+
131.0729	11	C9H9N+
132.0807	3	C9H10N+
135.0266	6	C8H7S+
144.0805	12	C10H10N+
145.076	27	C9H9N2+
146.0966	89	C10H12N+
150.0374	13	C8H8NS+
178.0687	617	C10H12NS+
188.0528	14	C11H10NS+
205.0796	999	C11H13N2S+
