Mass spectrum: Mepivacaine; LC-ESI-QFT; MS2; CE: 90; R=35000; [M+H]+
Name: Mepivacaine
Name: N-(2,6-dimethylphenyl)-1-methyl-2-piperidinecarboxamide
Formula: C15H22N2O
Exact mass: 246.17321
SMILES: O=C(Nc1c(cccc1C)C)C2N(C)CCCC2
InChI: InChI=1S/C15H22N2O/c1-11-7-6-8-12(2)14(11)16-15(18)13-9-4-5-10-17(13)3/h6-8,13H,4-5,9-10H2,1-3H3,(H,16,18)
Instrument: Q Exactive Orbitrap Thermo Scientific
Instrument type: LC-ESI-QFT
Ms type: MS2
Ion mode: POSITIVE
Ionization: ESI
Fragmentation mode: HCD
Collision energy: 90 (nominal)
Resolution: 35000
Column name: XBridge C18 3.5um, 2.1x50mm, Waters
Retention time: 4.5 min
Base peak: 247.1808
Precursor m/z: 247.1805
Precursor type: [M+H]+
m/z	relative intensity	assigned
68.0496	18	C4H6N+
70.0652	621	C4H8N+
98.0965	999	C6H12N+
