Mass spectrum: Olopatadine; LC-ESI-QFT; MS2; CE: 60; R=35000; [M+H]+
Name: Olopatadine
Name: 2-[(11Z)-11-[3-(dimethylazaniumyl)propylidene]-6H-benzo[c][1]benzoxepin-2-yl]acetate
Formula: C21H23NO3
Exact mass: 337.16779
SMILES: CN(C)CC/C=C\1/C2=CC=CC=C2COC3=C1C=C(C=C3)CC(=O)O
InChI: InChI=1S/C21H23NO3/c1-22(2)11-5-8-18-17-7-4-3-6-16(17)14-25-20-10-9-15(12-19(18)20)13-21(23)24/h3-4,6-10,12H,5,11,13-14H2,1-2H3,(H,23,24)/b18-8-
Instrument: Q Exactive Orbitrap Thermo Scientific
Instrument type: LC-ESI-QFT
Ms type: MS2
Ion mode: POSITIVE
Ionization: ESI
Fragmentation mode: HCD
Collision energy: 60 (nominal)
Resolution: 35000
Column name: XBridge C18 3.5um, 2.1x50mm, Waters
Retention time: 7.1 min
Base peak: 338.1752
Precursor m/z: 338.1751
Precursor type: [M+H]+
m/z	relative intensity	assigned
56.0496	2	C3H6N+
58.0652	539	C3H8N+
65.0386	16	C5H5+
67.0542	16	C5H7+
68.0495	5	C4H6N+
69.0335	9	C4H5O+
69.0574	3	C4H7N+
70.0651	261	C4H8N+
71.0129	3	C3H3O2+
71.0729	17	C4H9N+
72.0807	38	C4H10N+
77.0386	19	C6H5+
79.0542	24	C6H7+
81.0335	2	C5H5O+
81.0699	39	C6H9+
82.0651	43	C5H8N+
84.0808	960	C5H10N+
85.0886	83	C5H11N+
89.0383	3	C7H5+
91.0542	569	C7H7+
93.0698	131	C7H9+
94.0411	3	C6H6O+
95.0491	108	C6H7O+
103.0542	17	C8H7+
104.0621	13	C8H8+
105.0448	25	C6H5N2+
105.0699	41	C8H9+
107.0491	22	C7H7O+
109.0648	168	C7H9O+
115.0542	457	C9H7+
116.062	12	C9H8+
117.0698	655	C9H9+
119.0491	177	C8H7O+
120.057	10	C8H8O+
121.0647	81	C8H9O+
123.044	607	C7H7O2+
128.062	87	C10H8+
129.0698	317	C10H9+
131.0491	100	C9H7O+
131.0856	13	C10H11+
133.0648	14	C9H9O+
135.0438	5	C8H7O2+
137.0597	491	C8H9O2+
141.0698	571	C11H9+
142.0778	54	C11H10+
143.0856	39	C11H11+
144.0568	3	C10H8O+
145.0647	24	C10H9O+
147.0442	19	C9H7O2+
149.06	22	C9H9O2+
153.0698	12	C12H9+
155.06	3	C10H7N2+
155.0854	4	C12H11+
157.0653	6	C11H9O+
158.0967	16	C11H12N+
159.0804	3	C11H11O+
161.0599	22	C10H9O2+
165.0547	999	C9H9O3+
165.0692	54	C13H9+
166.0777	22	C13H10+
167.0857	11	C13H11+
169.0648	31	C12H9O+
170.0966	3	C12H12N+
171.1042	3	C12H13N+
172.1121	15	C12H14N+
173.1198	26	C12H15N+
177.07	2	C14H9+
178.0777	190	C14H10+
179.0855	451	C14H11+
180.0932	3	C14H12+
181.0649	4	C13H9O+
181.1014	15	C14H13+
183.0805	5	C13H11O+
186.1281	5	C13H16N+
187.0754	3	C12H11O2+
189.0546	60	C11H9O3+
189.0694	23	C15H9+
190.0777	60	C15H10+
191.0855	170	C15H11+
192.0933	6	C15H12+
193.1013	118	C15H13+
194.0724	11	C14H10O+
195.0805	5	C14H11O+
201.0693	2	C16H9+
202.0777	61	C16H10+
203.0855	197	C16H11+
204.0934	372	C16H12+
205.0649	65	C15H9O+
205.1013	138	C16H13+
206.0727	44	C15H10O+
206.1093	14	C16H14+
207.0805	182	C15H11O+
208.0884	18	C15H12O+
209.0961	4	C15H13O+
214.0778	5	C17H10+
215.0857	147	C17H11+
216.0936	17	C17H12+
217.1013	81	C17H13+
218.0729	65	C16H10O+
218.1091	15	C17H14+
219.0805	343	C16H11O+
219.1168	219	C17H15+
220.0882	33	C16H12O+
221.0961	242	C16H13O+
223.075	23	C15H11O2+
223.1121	3	C16H15O+
227.0853	22	C18H11+
228.0933	139	C18H12+
229.1013	592	C18H13+
230.109	16	C18H14+
231.0805	307	C17H11O+
232.0883	829	C17H12O+
233.0961	145	C17H13O+
234.1039	118	C17H14O+
239.0702	4	C15H11O3+
245.0963	29	C18H13O+
246.104	31	C18H14O+
247.1118	617	C18H15O+
249.0912	4	C17H13O2+
252.0781	104	C16H12O3+
253.0859	50	C16H13O3+
257.0968	2	C19H13O+
263.0698	5	C17H11O3+
265.0863	13	C17H13O3+
277.0861	3	C18H13O3+
278.0934	4	C18H14O3+
293.118	10	C19H17O3+
308.1289	4	C19H18NO3+
338.1748	5	C21H24NO3+
