Mass spectrum: Afidopyropen; LC-ESI-QFT; MS2; CE: 30%; R=17500; [M+H]+
Name: Afidopyropen
Name: [5-(cyclopropanecarbonyloxy)-9,18-dihydroxy-2,6,10-trimethyl-16-oxo-14-pyridin-3-yl-11,15-dioxatetracyclo[8.8.0.02,7.012,17]octadeca-12(17),13-dien-6-yl]methyl cyclopropanecarboxylate
Formula: C33H39NO9
Exact mass: 593.2625
SMILES: CC12CCC(C(C1CC(C3(C2C(C4=C(O3)C=C(OC4=O)C5=CN=CC=C5)O)C)O)(C)COC(=O)C6CC6)OC(=O)C7CC7
InChI: InChI=1S/C33H39NO9/c1-31-11-10-24(42-29(38)18-8-9-18)32(2,16-40-28(37)17-6-7-17)22(31)14-23(35)33(3)27(31)26(36)25-21(43-33)13-20(41-30(25)39)19-5-4-12-34-15-19/h4-5,12-13,15,17-18,22-24,26-27,35-36H,6-11,14,16H2,1-3H3
Instrument: Exploris 240 Orbitrap Thermo Scientific
Instrument type: LC-ESI-QFT
Ms type: MS2
Ion mode: POSITIVE
Ionization: ESI
Fragmentation mode: HCD
Collision energy: 30 % (nominal)
Resolution: 17500
Column name: XBridge C18 3.5um, 2.1x50mm, Waters
Retention time: 8.509 min
Base peak: 594.2694
Precursor m/z: 594.2698
Precursor type: [M+H]+
m/z	relative intensity	assigned
69.0335	16	C4H5O+
106.0289	4	C6H4NO+
107.0853	2	C8H11+
119.0852	5	C9H11+
121.1011	1	C9H13+
122.0596	3	C7H8NO+
133.1011	3	C10H13+
135.1167	2	C10H15+
145.1012	6	C11H13+
148.0392	26	C8H6NO2+
157.1004	1	C12H13+
159.117	2	C12H15+
161.0959	5	C11H13O+
171.1166	6	C13H15+
173.1317	2	C13H17+
175.1477	5	C13H19+
185.1325	12	C14H17+
187.1483	7	C14H19+
189.1276	2	C13H17O+
190.0497	9	C10H8NO3+
197.132	5	C15H17+
202.0498	92	C11H8NO3+
202.1346	5	C14H18O+
203.143	20	C14H19O+
215.1433	7	C15H19O+
216.0656	5	C12H10NO3+
239.1432	20	C17H19O+
240.0657	3	C14H10NO3+
242.0805	4	C14H12NO3+
257.1529	5	C17H21O2+
265.1221	11	C18H17O2+
268.0973	1	C16H14NO3+
270.077	6	C15H12NO4+
280.0962	4	C17H14NO3+
283.1336	6	C18H19O3+
296.0914	3	C17H14NO4+
310.1072	5	C18H16NO4+
318.1132	8	C20H16NO3+
336.1232	4	C20H18NO4+
344.1275	3	C22H18NO3+
386.1756	31	C25H24NO3+
422.1979	11	C25H28NO5+
576.2604	12	C33H38NO8+
594.2698	999	C33H40NO9+
