Mass spectrum: Sitagliptin; LC-ESI-ITFT; MS2; CE: 60%; R=15000; [M+H]+
Name: Sitagliptin
Name: (3R)-3-amino-1-[3-(trifluoromethyl)-6,8-dihydro-5H-[1,2,4]triazolo[4,3-a]pyrazin-7-yl]-4-(2,4,5-trifluorophenyl)-1-butanone
Formula: C16H15F6N5O
Exact mass: 407.1181
SMILES: Fc1cc(c(F)cc1F)C[C@@H](N)CC(=O)N3Cc2nnc(n2CC3)C(F)(F)F
InChI: InChI=1S/C16H15F6N5O/c17-10-6-12(19)11(18)4-8(10)3-9(23)5-14(28)26-1-2-27-13(7-26)24-25-15(27)16(20,21)22/h4,6,9H,1-3,5,7,23H2/t9-/m1/s1
Instrument: LTQ Orbitrap XL Thermo Scientific
Instrument type: LC-ESI-ITFT
Ms type: MS2
Ion mode: POSITIVE
Ionization: ESI
Fragmentation mode: HCD
Collision energy: 60 % (nominal)
Resolution: 15000
Column name: XBridge C18 3.5um, 2.1x50mm, Waters
Retention time: 5.2 min
Base peak: 408.1261
Precursor m/z: 408.1254
Precursor type: [M+H]+
m/z	relative intensity	assigned
56.0494	46	C3H6N+
81.0443	2	C4H5N2+
127.0354	143	C7H5F2+
137.0317	4	C4H4F3N2+
138.0273	71	C3H3F3N3+
145.0259	12	C7H4F3+
150.0271	12	C4H3F3N3+
151.0353	28	C9H5F2+
152.0503	2	C3H6F2N4O+
153.0385	5	C8H5F2N+
154.0463	292	C8H6F2N+
164.0426	2	C5H5F3N3+
165.038	10	C4H4F3N4+
168.0379	26	C4H5F3N3O+
171.0416	100	C9H6F3+
174.0525	999	C8H7F3N+
176.0428	6	C6H5F3N3+
193.0695	447	C6H8F3N4+
199.0371	5	C10H6F3O+
235.0797	40	C8H10F3N4O+
