Mass spectrum: Pyraclostrobin; LC-ESI-ITFT; MS2; CE: 15%; R=7500; [M+H]+
Name: Pyraclostrobin
Name: methyl [2-({[1-(4-chlorophenyl)-1H-pyrazol-3-yl]oxy}methyl)phenyl]methoxycarbamate
Formula: C19H18ClN3O4
Exact mass: 387.0986
SMILES: c1(ccc(n2ccc(OCc3c(cccc3)N(OC)C(OC)=O)n2)cc1)Cl
InChI: InChI=1S/C19H18ClN3O4/c1-25-19(24)23(26-2)17-6-4-3-5-14(17)13-27-18-11-12-22(21-18)16-9-7-15(20)8-10-16/h3-12H,13H2,1-2H3
Instrument: LTQ Orbitrap XL Thermo Scientific
Instrument type: LC-ESI-ITFT
Ms type: MS2
Ion mode: POSITIVE
Ionization: ESI
Fragmentation mode: HCD
Collision energy: 15 % (nominal)
Resolution: 7500
Column name: XBridge C18 3.5um, 2.1x50mm, Waters
Retention time: 13.4 min
Base peak: 388.1064
Precursor m/z: 388.1059
Precursor type: [M+H]+
m/z	relative intensity	assigned
118.0652	23	C8H8N+
119.0369	7	C4H8ClN2+
132.0445	30	C8H6NO+
133.0522	17	C8H7NO+
134.06	57	C8H8NO+
149.0472	89	C8H7NO2+
156.0439	5	C10H6NO+
162.055	174	C9H8NO2+
163.0629	333	C9H9NO2+
164.0707	709	C9H10NO2+
166.0865	15	C9H12NO2+
194.0812	999	C10H12NO3+
216.0645	7	C12H10NO3+
296.0583	336	C16H11ClN3O+
324.0526	42	C17H11ClN3O2+
328.0832	9	C17H15ClN3O2+
353.1119	4	C17H15N5O4+
356.0795	182	C18H15ClN3O3+
357.0859	9	C18H16ClN3O3+
388.1055	313	C19H19ClN3O4+
