Mass spectrum: Perfluorobutyric acid; LC-ESI-ITFT; MS2; CE: 30%; R=7500; [M-H]-
Name: Perfluorobutyric acid
Name: Heptafluorobutyric acid
Name: 2,2,3,3,4,4,4-heptafluorobutanoic acid
Formula: C4HF7O2
Exact mass: 213.9865
SMILES: O=C(O)C(F)(F)C(F)(F)C(F)(F)F
InChI: InChI=1S/C4HF7O2/c5-2(6,1(12)13)3(7,8)4(9,10)11/h(H,12,13)
Instrument: LTQ Orbitrap XL Thermo Scientific
Instrument type: LC-ESI-ITFT
Ms type: MS2
Ion mode: NEGATIVE
Ionization: ESI
Fragmentation mode: HCD
Collision energy: 30 % (nominal)
Resolution: 7500
Column name: XBridge C18 3.5um, 2.1x50mm, Waters
Retention time: 5.1 min
Base peak: 168.99
Precursor m/z: 212.9792
Precursor type: [M-H]-
m/z	relative intensity	assigned
168.9897	999	C3F7-
