Mass spectrum: Clothianidin; LC-ESI-ITFT; MS2; CE: 35%; R=7500; [M+H]+
Name: Clothianidin
Name: 1-[(2-chloranyl-1,3-thiazol-5-yl)methyl]-2-methyl-3-nitro-guanidine
Name: 1-[(2-chloro-1,3-thiazol-5-yl)methyl]-2-methyl-3-nitroguanidine
Formula: C6H8ClN5O2S
Exact mass: 249.0087
SMILES: Clc1ncc(s1)CN/C(=N/C)N[N+]([O-])=O
InChI: InChI=1S/C6H8ClN5O2S/c1-8-6(11-12(13)14)10-3-4-2-9-5(7)15-4/h2H,3H2,1H3,(H2,8,10,11)
Instrument: LTQ Orbitrap XL Thermo Scientific
Instrument type: LC-ESI-ITFT
Ms type: MS2
Ion mode: POSITIVE
Ionization: ESI
Fragmentation mode: CID
Collision energy: 35 % (nominal)
Resolution: 7500
Column name: XBridge C18 3.5um, 2.1x50mm, Waters
Retention time: 4.9 min
Base peak: 250.0165
Precursor m/z: 250.016
Precursor type: [M+H]+
m/z	relative intensity	assigned
110.0715	5	C5H8N3+
113.0168	21	C4H5N2S+
119.9669	4	C3H3ClNS+
131.9671	402	C4H3ClNS+
143.0512	24	C5H9N3S+
146.9777	12	C4H4ClN2S+
148.9937	4	C4H6ClN2S+
167.0383	2	C6H7N4S+
168.0466	448	C6H8N4S+
169.0542	999	C6H9N4S+
172.9808	24	C5H4ClN3S+
174.9729	6	C5H4ClN2OS+
185.049	5	C6H9N4OS+
186.9966	12	C6H6ClN3S+
188.0043	2	C6H7ClN3S+
203.0153	33	C6H8ClN4S+
204.0231	81	C6H9ClN4S+
206.015	164	C6H9ClN3OS+
220.018	71	C6H9ClN4OS+
