Mass spectrum: Ametryn; LC-ESI-QFT; MS2; CE: 60; R=35000; [M+H]+
Name: Ametryn
Name: 4-N-ethyl-6-methylsulfanyl-2-N-propan-2-yl-1,3,5-triazine-2,4-diamine
Formula: C9H17N5S
Exact mass: 227.12047
SMILES: S(c1nc(nc(n1)NC(C)C)NCC)C
InChI: InChI=1S/C9H17N5S/c1-5-10-7-12-8(11-6(2)3)14-9(13-7)15-4/h6H,5H2,1-4H3,(H2,10,11,12,13,14)
Instrument: Q Exactive Orbitrap Thermo Scientific
Instrument type: LC-ESI-QFT
Ms type: MS2
Ion mode: POSITIVE
Ionization: ESI
Fragmentation mode: HCD
Collision energy: 60 (nominal)
Resolution: 35000
Column name: XBridge C18 3.5um, 2.1x50mm, Waters
Retention time: 7.2 min
Base peak: 228.128
Precursor m/z: 228.1277
Precursor type: [M+H]+
m/z	relative intensity	assigned
68.0243	97	C2H2N3+
71.0603	127	C3H7N2+
74.0058	27	C2H4NS+
85.0509	19	C2H5N4+
85.0761	12	C4H9N2+
91.0324	226	C2H7N2S+
96.0556	285	C4H6N3+
102.0373	12	C4H8NS+
110.0462	12	C3H4N5+
110.0713	4	C5H8N3+
113.0822	31	C4H9N4+
116.0277	136	C3H6N3S+
138.0775	115	C5H8N5+
138.1026	28	C7H12N3+
140.0934	1	C5H10N5+
144.0591	91	C5H10N3S+
158.0496	97	C4H8N5S+
171.0572	3	C5H9N5S+
180.1244	8	C8H14N5+
184.0653	2	C6H10N5S+
186.0809	999	C6H12N5S+
228.1279	139	C9H18N5S+
