Mass spectrum: Marbofloxacin; LC-ESI-QFT; MS2; CE: 45; R=35000; [M+H]+
Name: Marbofloxacin
Name: 9-Fluoro-3-methyl-10-(4-methyl-1-piperazinyl)-7-oxo-2,3-dihydro-7H-[1,3,4]oxadiazino[6,5,4-ij]quinoline-6-carboxylic acid
Formula: C17H19FN4O4
Exact mass: 362.13903
SMILES: CN1CCN(CC1)C2=C(C=C3C4=C2OCN(N4C=C(C3=O)C(=O)O)C)F
InChI: InChI=1S/C17H19FN4O4/c1-19-3-5-21(6-4-19)14-12(18)7-10-13-16(14)26-9-20(2)22(13)8-11(15(10)23)17(24)25/h7-8H,3-6,9H2,1-2H3,(H,24,25)
Instrument: Q Exactive Plus Orbitrap Thermo Scientific
Instrument type: LC-ESI-QFT
Ms type: MS2
Ion mode: POSITIVE
Ionization: ESI
Fragmentation mode: HCD
Collision energy: 45 (nominal)
Resolution: 35000
Column name: XBridge C18 3.5um, 2.1x50mm, Waters
Retention time: 3.7 min
Base peak: 363.1454
Precursor m/z: 363.1463
Precursor type: [M+H]+
m/z	relative intensity	assigned
56.0495	9	C3H6N+
57.0573	11	C3H7N+
58.0651	3	C3H8N+
70.0651	139	C4H8N+
71.073	3	C4H9N+
72.0807	999	C4H10N+
82.0651	3	C5H8N+
84.0807	1	C5H10N+
85.076	6	C4H9N2+
164.0505	9	C9H7FNO+
171.0553	1	C10H7N2O+
178.0298	2	C9H5FNO2+
185.0344	1	C10H5N2O2+
185.0709	3	C11H9N2O+
191.0377	1	C10H6FNO2+
191.0617	2	C10H8FN2O+
192.0455	22	C10H7FNO2+
204.0456	18	C11H7FNO2+
205.0409	45	C10H6FN2O2+
206.0613	13	C11H9FNO2+
213.0659	9	C12H9N2O2+
215.0617	2	C12H8FN2O+
216.0457	3	C12H7FNO2+
218.0487	1	C11H7FN2O2+
219.0565	5	C11H8FN2O2+
230.0248	1	C12H5FNO3+
231.0564	3	C12H8FN2O2+
233.0721	23	C12H10FN2O2+
248.0356	1	C12H7FNO4+
249.0307	10	C11H6FN2O4+
254.0558	1	C13H8N3O3+
259.0513	3	C13H8FN2O3+
259.0753	1	C13H10FN3O2+
261.0909	4	C13H12FN3O2+
274.0622	4	C13H9FN3O3+
274.0987	3	C14H13FN3O2+
276.1147	1	C14H15FN3O2+
277.0619	24	C13H10FN2O4+
287.07	8	C14H10FN3O3+
302.0937	4	C15H13FN3O3+
320.1042	4	C15H15FN3O4+
345.1357	37	C17H18FN4O3+
363.1462	32	C17H20FN4O4+
