Mass spectrum: Diazepam; LC-ESI-ITFT; MS2; CE: 90%; R=7500; [M+H]+
Name: Diazepam
Name: 7-chloranyl-1-methyl-5-phenyl-3H-1,4-benzodiazepin-2-one
Formula: C16H13ClN2O
Exact mass: 284.0716
SMILES: CN1C2=C(C=C(Cl)C=C2)C(=NCC1=O)C3=CC=CC=C3
InChI: InChI=1S/C16H13ClN2O/c1-19-14-8-7-12(17)9-13(14)16(18-10-15(19)20)11-5-3-2-4-6-11/h2-9H,10H2,1H3
Instrument: LTQ Orbitrap XL Thermo Scientific
Instrument type: LC-ESI-ITFT
Ms type: MS2
Ion mode: POSITIVE
Ionization: ESI
Fragmentation mode: HCD
Collision energy: 90 % (nominal)
Resolution: 7500
Column name: XBridge C18 3.5um, 2.1x50mm, Waters
Retention time: 10.1 min
Base peak: 285.0798
Precursor m/z: 285.0789
Precursor type: [M+H]+
m/z	relative intensity	assigned
58.0286	23	C2H4NO+
65.0386	14	C5H5+
77.0387	33	C6H5+
89.0385	83	C7H5+
90.0465	41	C7H6+
91.0542	378	C7H7+
98.9994	25	C5H4Cl+
104.0495	75	C7H6N+
105.0331	13	C7H5O+
114.0108	17	C5H5ClN+
116.0495	100	C8H6N+
117.0573	201	C8H7N+
118.0651	156	C8H8N+
119.0729	111	C8H9N+
122.9994	24	C7H4Cl+
125.0152	312	C7H6Cl+
126.0235	26	C7H7Cl+
127.0314	10	C7H8Cl+
131.0602	10	C8H7N2+
138.0105	58	C7H5ClN+
139.006	22	C6H4ClN2+
139.0185	26	C7H6ClN+
140.0263	37	C7H7ClN+
141.0334	19	C7H8ClN+
143.0604	183	C9H7N2+
144.0684	57	C9H8N2+
145.0763	12	C9H9N2+
147.0678	27	C9H9NO+
150.0105	86	C8H5ClN+
151.0179	29	C8H6ClN+
152.0259	36	C8H7ClN+
152.0615	15	C12H8+
153.0333	21	C11H5O+
154.0417	512	C8H9ClN+
162.0105	9	C9H5ClN+
163.0057	97	C8H4ClN2+
165.0698	166	C13H9+
166.0777	39	C13H10+
167.0134	24	C8H6ClNO+
172.063	36	C10H8N2O+
177.0212	55	C9H6ClN2+
179.0369	74	C9H8ClN2+
180.0211	20	C9H7ClNO+
180.0806	119	C13H10N+
181.0886	14	C13H11N+
191.0729	54	C14H9N+
192.0807	149	C14H10N+
193.0885	999	C14H11N+
194.0961	96	C14H12N+
199.0311	20	C13H8Cl+
204.0805	98	C15H10N+
206.084	260	C14H10N2+
207.0919	156	C14H11N2+
214.0418	22	C13H9ClN+
216.0571	20	C16H8O+
221.0828	17	C15H11NO+
221.1071	96	C15H13N2+
222.1149	150	C15H14N2+
226.0414	21	C14H9ClN+
227.0493	86	C14H10ClN+
228.0568	52	C14H11ClN+
239.0362	28	C14H8ClN2+
240.0446	22	C14H9ClN2+
241.0527	420	C14H10ClN2+
242.0602	15	C14H11ClN2+
255.069	39	C15H12ClN2+
269.0489	20	C15H10ClN2O+
