Mass spectrum: Chlorfluazuron; LC-ESI-QFT; MS2; CE: 75%; R=17500; [M+H]+
Name: Chlorfluazuron
Name: N-[[3,5-dichloro-4-[3-chloro-5-(trifluoromethyl)pyridin-2-yl]oxyphenyl]carbamoyl]-2,6-difluorobenzamide
Formula: C20H9Cl3F5N3O3
Exact mass: 538.9630
SMILES: C1=CC(=C(C(=C1)F)C(=O)NC(=O)NC2=CC(=C(C(=C2)Cl)OC3=C(C=C(C=N3)C(F)(F)F)Cl)Cl)F
InChI: InChI=1S/C20H9Cl3F5N3O3/c21-10-5-9(30-19(33)31-17(32)15-13(24)2-1-3-14(15)25)6-11(22)16(10)34-18-12(23)4-8(7-29-18)20(26,27)28/h1-7H,(H2,30,31,32,33)
Instrument: Exploris 240 Orbitrap Thermo Scientific
Instrument type: LC-ESI-QFT
Ms type: MS2
Ion mode: POSITIVE
Ionization: ESI
Fragmentation mode: HCD
Collision energy: 75 % (nominal)
Resolution: 17500
Column name: XBridge C18 3.5um, 2.1x50mm, Waters
Retention time: 15.243 min
Base peak: 539.9705
Precursor m/z: 539.9702
Precursor type: [M+H]+
m/z	relative intensity	assigned
66.9743	9	CHClF+
84.9648	5	CClF2+
90.9744	8	C3HClF+
107.0103	8	C4H2F3+
114.0151	6	C5H2F2N+
123.995	80	C6H3ClN+
137.974	10	C6HClNO+
140.0308	25	C7H4F2N+
141.0146	999	C7H3F2O+
141.0259	57	C6H3F2N2+
148.0303	11	C7H3FN3+
150.0161	8	C5H3F3NO+
157.9805	35	C6H2ClFNO+
158.0412	56	C7H6F2NO+
158.9639	174	C6H3Cl2N+
159.9762	65	C6HClF2N+
165.9862	12	C5H3ClF2NO+
167.9821	20	C5F4O2+
174.9585	19	C6H3Cl2NO+
176.9745	5	C6H5Cl2NO+
179.9824	198	C6H2ClF3N+
180.9899	16	C6H3ClF3N+
186.9588	684	C7H3Cl2NO+
197.9931	161	CHF5N3O3+
202.9535	70	C7H3Cl2NO2+
212.0083	10	C7H6ClF3NO+
283.9973	15	C14H8Cl2F2+
285.9469	7	C11H3Cl2FNO3+
313	54	C7H9Cl2F4N3O2+
334.9368	10	C12H4Cl3F2N2O+
346.9601	308	C10H7Cl3F3N3O+
382.9364	10	C13H5Cl3F3N2O2+
