Mass spectrum: Fenthion Oxon; LC-ESI-QFT; MS2; CE: 180%; R=17500; [M+H]+
Name: Fenthion Oxon
Name: dimethyl (3-methyl-4-methylsulfanylphenyl) phosphate
Formula: C10H15O4PS
Exact mass: 262.0429
SMILES: CC1=C(C=CC(=C1)OP(=O)(OC)OC)SC
InChI: InChI=1S/C10H15O4PS/c1-8-7-9(5-6-10(8)16-4)14-15(11,12-2)13-3/h5-7H,1-4H3
Instrument: Exploris 240 Orbitrap Thermo Scientific
Instrument type: LC-ESI-QFT
Ms type: MS2
Ion mode: POSITIVE
Ionization: ESI
Fragmentation mode: HCD
Collision energy: 180 % (nominal)
Resolution: 17500
Column name: XBridge C18 3.5um, 2.1x50mm, Waters
Retention time: 7.813 min
Base peak: 263.0501
Precursor m/z: 263.0501
Precursor type: [M+H]+
m/z	relative intensity	assigned
50.0151	251	C4H2+
51.0229	999	C4H3+
52.0308	212	C4H4+
53.0386	486	C4H5+
58.995	368	C2H3S+
63.0229	233	C5H3+
65.0386	854	C5H5+
66.0464	219	C5H6+
68.9794	265	C3HS+
70.995	72	C3H3S+
77.0385	992	C6H5+
78.0464	956	C6H6+
89.0386	63	C7H5+
91.0542	336	C7H7+
95.0492	283	C6H7O+
97.0106	158	C5H5S+
103.0544	104	C8H7+
109.0107	68	C6H5S+
121.0107	620	C7H5S+
