Mass spectrum: 4`-Hydroxy Diclofenac; LC-ESI-QFT; MS2; CE: 60; R=35000; [M+H]+
Name: 4`-Hydroxy Diclofenac
Name: 4`-hydroxydiclofenac
Name: 2-[2-(2,6-dichloro-4-hydroxyanilino)phenyl]acetic acid
Formula: C14H11Cl2NO3
Exact mass: 311.01160
SMILES: C1=CC=C(C(=C1)CC(=O)O)NC2=C(C=C(C=C2Cl)O)Cl
InChI: InChI=1S/C14H11Cl2NO3/c15-10-6-9(18)7-11(16)14(10)17-12-4-2-1-3-8(12)5-13(19)20/h1-4,6-7,17-18H,5H2,(H,19,20)
Instrument: Q Exactive Plus Orbitrap Thermo Scientific
Instrument type: LC-ESI-QFT
Ms type: MS2
Ion mode: POSITIVE
Ionization: ESI
Fragmentation mode: HCD
Collision energy: 60 (nominal)
Resolution: 35000
Column name: XBridge C18 3.5um, 2.1x50mm, Waters
Retention time: 10.0 min
Base peak: 312.0187
Precursor m/z: 312.0189
Precursor type: [M+H]+
m/z	relative intensity	assigned
166.065	4	C12H8N+
167.0729	4	C12H9N+
175.9664	1	C6H4Cl2NO+
195.0678	8	C13H9NO+
196.0757	20	C13H10NO+
201.0341	2	C12H8ClN+
202.0419	1	C12H9ClN+
214.042	4	C13H9ClN+
224.071	3	C14H10NO2+
229.0285	1	C13H8ClNO+
230.0367	999	C13H9ClNO+
231.0445	102	C13H10ClNO+
