Mass spectrum: Oxazepam; LC-ESI-ITFT; MS2; CE: 30%; R=15000; [M+H]+
Name: Oxazepam
Name: 7-chloranyl-3-oxidanyl-5-phenyl-1,3-dihydro-1,4-benzodiazepin-2-one
Formula: C15H11ClN2O2
Exact mass: 286.0509
SMILES: C1=CC=C(C=C1)C2=NC(C(=O)NC3=C2C=C(C=C3)Cl)O
InChI: InChI=1S/C15H11ClN2O2/c16-10-6-7-12-11(8-10)13(9-4-2-1-3-5-9)18-15(20)14(19)17-12/h1-8,15,20H,(H,17,19)
Instrument: LTQ Orbitrap XL Thermo Scientific
Instrument type: LC-ESI-ITFT
Ms type: MS2
Ion mode: POSITIVE
Ionization: ESI
Fragmentation mode: HCD
Collision energy: 30 % (nominal)
Resolution: 15000
Column name: XBridge C18 3.5um, 2.1x50mm, Waters
Retention time: 9.0 min
Base peak: 287.059
Precursor m/z: 287.0582
Precursor type: [M+H]+
m/z	relative intensity	assigned
104.05	4	C7H6N+
156.0212	5	C7H7ClNO+
166.0054	8	C8H5ClNO+
231.0684	67	C13H12ClN2+
241.0527	390	C14H10ClN2+
242.0372	7	C14H9ClNO+
269.0478	969	C15H10ClN2O+
287.0583	999	C15H12ClN2O2+
