Mass spectrum: Fluoxastrobin; LC-ESI-QFT; MS2; CE: 90; R=35000; [M+H]+
Name: Fluoxastrobin
Name: (E)-[[2-[6-(2-chlorophenoxy)-5-fluoro-pyrimidin-4-yl]oxyphenyl]-(5,6-dihydro-1,4,2-dioxazin-3-yl)methylene]-methoxy-amine
Formula: C21H16ClFN4O5
Exact mass: 458.07933
SMILES: Clc4ccccc4Oc3ncnc(Oc2ccccc2C(=N\OC)/C=1OCCON=1)c3F
InChI: InChI=1S/C21H16ClFN4O5/c1-28-26-18(21-27-30-11-10-29-21)13-6-2-4-8-15(13)31-19-17(23)20(25-12-24-19)32-16-9-5-3-7-14(16)22/h2-9,12H,10-11H2,1H3/b26-18+
Instrument: Q Exactive Orbitrap Thermo Scientific
Instrument type: LC-ESI-QFT
Ms type: MS2
Ion mode: POSITIVE
Ionization: ESI
Fragmentation mode: HCD
Collision energy: 90 (nominal)
Resolution: 35000
Column name: XBridge C18 3.5um, 2.1x50mm, Waters
Retention time: 11.5 min
Base peak: 459.0867
Precursor m/z: 459.0866
Precursor type: [M+H]+
m/z	relative intensity	assigned
64.0182	29	C4H2N+
64.0308	25	C5H4+
65.0386	234	C5H5+
66.0464	52	C5H6+
69.9923	43	C2NO2+
70.0088	6	C3HFN+
72.9839	12	C3H2Cl+
73.0196	23	C2H2FN2+
74.015	62	C6H2+
75.0229	570	C6H3+
76.0181	30	
76.0307	28	
77.0385	62	C6H5+
78.0338	93	C5H4N+
79.0178	19	C5H3O+
79.0417	30	C5H5N+
79.0542	4	C6H7+
80.0495	12	C5H6N+
81.0335	67	C5H5O+
83.0291	20	
84.9839	27	C4H2Cl+
86.0036	4	C3HFNO+
86.9877	19	C3FO2+
86.9995	72	C4H4Cl+
89.0385	20	C7H5+
90.0338	310	C6H4N+
91.0416	80	C6H5N+
91.0542	6	C7H7+
92.0256	104	C6H4O+
92.0494	80	C6H6N+
93.0334	73	C6H5O+
94.0413	68	C6H6O+
95.0291	18	
95.0491	264	C6H7O+
96.0445	34	C5H6NO+
97.0521	8	C5H7NO+
98.9996	100	C5H4Cl+
100.0182	19	
102.0338	249	C7H4N+
103.0416	38	C7H5N+
104.0495	28	C7H6N+
105.0335	256	C7H5O+
105.0447	95	C6H5N2+
106.0212	10	
106.0288	77	C6H4NO+
107.0292	125	C7H4F+
108.0442	16	
109.0323	32	C6H4FN+
110.9995	137	C6H4Cl+
111.044	151	C6H7O2+
112.0075	10	C6H5Cl+
113.0397	95	C6H6FO+
114.0336	48	
115.0416	69	C8H5N+
116.0368	60	C7H4N2+
116.0495	9	C8H6N+
117.0446	50	C7H5N2+
117.057	5	C3H6FN4+
118.0287	25	C7H4NO+
118.0522	10	C7H6N2+
119.0365	59	C7H5NO+
120.0444	454	C7H6NO+
121.0323	80	C7H4FN+
121.0393	39	C6H5N2O+
122.04	191	C7H5FN+
123.0352	135	C6H4FN2+
125.0151	7	C2H5ClFN3+
128.0023	46	C6H5ClO+
128.0369	33	C8H4N2+
129.0101	469	C6H6ClO+
129.0447	403	C8H5N2+
130.029	111	C5H7ClN2+
130.04	731	C7H4N3+
132.0244	97	C8H3FN+
132.0442	21	
133.0322	273	C8H4FN+
134.0237	6	C7H4NO2+
134.0401	71	C8H5FN+
134.0476	10	C7H6N2O+
137.0026	21	C7H4ClN+
137.0272	19	
137.0469	18	
138.0105	277	C7H5ClN+
138.9946	96	C7H4ClO+
139.0057	686	C6H4ClN2+
140.037	34	C9H4N2+
140.9901	91	C7H3ClF+
141.0445	15	
142.0402	10	C8H4N3+
143.0061	5	C7H5ClF+
143.0366	8	C9H5NO+
144.0318	44	C8H4N2O+
145.0397	104	C8H5N2O+
146.0234	6	C3H3FN4O2+
147.0354	52	C8H4FN2+
147.0553	31	C8H7N2O+
147.9949	10	C8H3ClN+
149.0274	22	
149.0512	7	C8H6FN2+
150.035	483	C8H5FNO+
151.0058	18	C7H4ClN2+
151.0428	59	C8H6FNO+
154.0401	52	C9H4N3+
154.9895	16	C7H4ClO2+
155.024	5	C9H3N2O+
155.0348	5	C4H8FO5+
157.0396	20	C9H5N2O+
158.0476	8	C9H6N2O+
159.0354	61	C9H4FN2+
160.0269	9	C8H4N2O2+
160.0432	188	C9H5FN2+
161.0271	94	C9H4FNO+
161.0344	24	C8H5N2O2+
162.0351	17	C9H5FNO+
162.0424	18	C8H6N2O2+
163.0057	10	C8H4ClN2+
163.0429	4	C9H6FNO+
163.05	9	C8H7N2O2+
164.0011	6	C7H3ClN3+
164.0339	42	C3H5FN4O3+
165.0221	4	C8H4FNO2+
165.046	19	C8H6FN2O+
167.0377	8	C8H6FNO2+
168.0011	147	C8H4ClFN+
168.0317	16	C10H4N2O+
168.0453	7	C8H7FNO2+
169.0396	142	C10H5N2O+
170.0348	7	C9H4N3O+
170.0525	28	
172.0506	5	C9H6N3O+
174.0458	10	C9H5FN3+
175.0304	73	C9H4FN2O+
176.0382	8	C9H5FN2O+
177.0458	16	C9H6FN2O+
177.0572	41	C8H6FN4+
178.0299	67	C9H5FNO2+
182.035	9	C10H4N3O+
183.9961	8	C8H4ClFNO+
185.0384	10	C10H4FN3+
186.0463	7	C15H6+
188.038	999	C10H5FN2O+
189.0455	8	C10H6FN2O+
190.0412	7	C9H5FN3O+
191.0249	17	C9H4FN2O2+
194.0599	20	C13H8NO+
195.0326	18	C9H6FNO3+
196.0566	30	
197.0635	30	C13H8FN+
202.0523	5	C14H6N2+
203.0605	28	C14H7N2+
204.0556	7	C13H6N3+
205.0407	20	C10H6FN2O2+
208.056	19	
215.0608	7	C15H7N2+
220.0278	64	C10H5FN2O3+
221.0462	20	
222.0587	7	C14H7FN2+
223.0663	46	C14H8FN2+
224.0504	20	
225.0585	21	C14H8FNO+
229.0281	8	C11H4FN3O2+
230.0362	58	
230.0715	20	
231.0551	14	C15H7N2O+
232.0626	18	C15H8N2O+
239.0361	4	C12H4FN4O+
241.0524	5	C17H7NO+
248.0617	19	C15H7FN3+
250.0537	29	
251.0615	72	C15H8FN2O+
263.0613	20	C16H8FN2O+
279.0565	38	C16H8FN2O2+
