Mass spectrum: Lansoprazole; LC-ESI-QFT; MS2; CE: 90; R=35000; [M-H]-
Name: Lansoprazole
Name: 2-[[3-methyl-4-(2,2,2-trifluoroethoxy)pyridin-2-yl]methylsulfinyl]-1H-benzimidazole
Formula: C16H14F3N3O2S
Exact mass: 369.07588
SMILES: Cc1c(ccnc1CS(=O)c2[nH]c3ccccc3n2)OCC(F)(F)F
InChI: InChI=1S/C16H14F3N3O2S/c1-10-13(20-7-6-14(10)24-9-16(17,18)19)8-25(23)15-21-11-4-2-3-5-12(11)22-15/h2-7H,8-9H2,1H3,(H,21,22)
Instrument: Q Exactive Plus Orbitrap Thermo Scientific
Instrument type: LC-ESI-QFT
Ms type: MS2
Ion mode: NEGATIVE
Ionization: ESI
Fragmentation mode: HCD
Collision energy: 90 (nominal)
Resolution: 35000
Column name: XBridge C18 3.5um, 2.1x50mm, Waters
Retention time: 7.4 min
Base peak: 368.068
Precursor m/z: 368.0686
Precursor type: [M-H]-
m/z	relative intensity	assigned
56.9804	4	C2HS-
57.9757	29	CNS-
61.9706	86	NOS-
64.0191	1	C4H2N-
74.0036	2	C5N-
89.0271	3	C6H3N-
92.0141	2	C5H2NO-
101.0144	4	C6HN2-
104.0381	23	C6H4N2-
106.0172	59	C5H2N2O-
107.9912	6	C5H2NS-
115.0302	410	C7H3N2-
116.038	787	C7H4N2-
117.0459	33	C7H5N2-
119.025	11	C6H3N2O-
120.9992	46	C6H3NS-
131.0251	4	C7H3N2O-
132.0329	999	C7H4N2O-
135.0022	65	C6H3N2S-
136.01	3	C6H4N2S-
147.0198	9	C7H3N2O2-
148.0102	12	C7H4N2S-
149.0179	15	C7H5N2S-
162.9972	139	C7H3N2OS-
164.005	932	C7H4N2OS-
