Mass spectrum: 2-Aminosulfonyl-benzoic acid methyl ester; LC-ESI-ITFT; MS2; CE: 60%; R=7500; [M+H]+
Name: 2-Aminosulfonyl-benzoic acid methyl ester
Name: Methyl 2-(aminosulfonyl)benzoate
Name: 2-sulfamoylbenzoic acid methyl ester
Formula: C8H9NO4S
Exact mass: 215.0252
SMILES: COC(C1=C(S(=O)(N)=O)C=CC=C1)=O
InChI: InChI=1S/C8H9NO4S/c1-13-8(10)6-4-2-3-5-7(6)14(9,11)12/h2-5H,1H3,(H2,9,11,12)
Instrument: LTQ Orbitrap XL Thermo Scientific
Instrument type: LC-ESI-ITFT
Ms type: MS2
Ion mode: POSITIVE
Ionization: ESI
Fragmentation mode: HCD
Collision energy: 60 % (nominal)
Resolution: 7500
Column name: XBridge C18 3.5um, 2.1x50mm, Waters
Retention time: 4.5 min
Base peak: 199.0063
Precursor m/z: 216.0325
Precursor type: [M+H]+
m/z	relative intensity	assigned
53.0386	51	C4H5+
77.0386	185	C6H5+
78.0338	10	C5H4N+
79.0542	73	C6H7+
92.0255	53	C6H4O+
92.0494	37	C6H6N+
95.0488	20	C6H7O+
105.0333	30	C7H5O+
105.0446	93	C6H5N2+
120.0203	32	C7H4O2+
120.0443	126	C7H6NO+
121.0283	17	C7H5O2+
130.0399	290	C7H4N3+
135.044	999	C8H7O2+
165.9957	36	C7H4NO2S+
184.0063	103	C7H6NO3S+
199.0049	87	C6H5N3O3S+
