Mass spectrum: Paclobutrazole; LC-ESI-QFT; MS2; CE: 120; R=35000; [M+H]+
Name: Paclobutrazole
Name: Paclobutrazol
Name: 1-(4-chlorophenyl)-4,4-dimethyl-2-(1,2,4-triazol-1-yl)pentan-3-ol
Formula: C15H20ClN3O
Exact mass: 293.12949
SMILES: CC(C)(C)C(C(CC1=CC=C(C=C1)Cl)N2C=NC=N2)O
InChI: InChI=1S/C15H20ClN3O/c1-15(2,3)14(20)13(19-10-17-9-18-19)8-11-4-6-12(16)7-5-11/h4-7,9-10,13-14,20H,8H2,1-3H3
Instrument: Q Exactive Plus Orbitrap Thermo Scientific
Instrument type: LC-ESI-QFT
Ms type: MS2
Ion mode: POSITIVE
Ionization: ESI
Fragmentation mode: HCD
Collision energy: 120 (nominal)
Resolution: 35000
Column name: XBridge C18 3.5um, 2.1x50mm, Waters
Retention time: 10.6 min
Base peak: 294.1362
Precursor m/z: 294.1368
Precursor type: [M+H]+
m/z	relative intensity	assigned
50.0151	1	C4H2+
51.0229	2	C4H3+
53.0023	2	C3HO+
53.0386	4	C4H5+
55.0542	1	C4H7+
57.0699	4	C4H9+
59.0492	7	C3H7O+
63.023	14	C5H3+
65.0386	7	C5H5+
66.0465	1	C5H6+
69.0699	6	C5H9+
70.04	999	C2H4N3+
72.9839	7	C3H2Cl+
74.9995	2	C3H4Cl+
75.0229	5	C6H3+
77.0385	6	C6H5+
78.0464	1	C6H6+
89.0386	91	C7H5+
90.0465	32	C7H6+
91.0543	7	C7H7+
95.0492	15	C6H7O+
98.9996	51	C5H4Cl+
101.0385	1	C8H5+
102.0465	11	C8H6+
103.0542	11	C8H7+
104.062	3	C8H8+
105.0448	10	C6H5N2+
115.0543	15	C9H7+
116.0622	3	C9H8+
119.0492	1	C8H7O+
125.0154	129	C7H6Cl+
128.0621	8	C10H8+
129.0447	4	C8H5N2+
129.0699	12	C10H9+
130.0779	2	C10H10+
141.07	1	C11H9+
142.0778	1	C11H10+
155.0605	1	C10H7N2+
