Mass spectrum: Spiroxamine; LC-ESI-ITFT; MS2; CE: 30%; R=15000; [M+H]+
Name: Spiroxamine
Name: (8-tert-butyl-1,4-dioxaspiro[4.5]decan-3-yl)methyl-ethyl-propyl-amine
Formula: C18H35NO2
Exact mass: 297.2668
SMILES: CCCN(CC)CC1COC2(O1)CCC(CC2)C(C)(C)C
InChI: InChI=1S/C18H35NO2/c1-6-12-19(7-2)13-16-14-20-18(21-16)10-8-15(9-11-18)17(3,4)5/h15-16H,6-14H2,1-5H3
Instrument: LTQ Orbitrap XL Thermo Scientific
Instrument type: LC-ESI-ITFT
Ms type: MS2
Ion mode: POSITIVE
Ionization: ESI
Fragmentation mode: HCD
Collision energy: 30 % (nominal)
Resolution: 15000
Column name: XBridge C18 3.5um, 2.1x50mm, Waters
Retention time: 10.1 min
Base peak: 298.2748
Precursor m/z: 298.2741
Precursor type: [M+H]+
m/z	relative intensity	assigned
72.0808	3	C4H10N+
100.1121	51	C6H14N+
144.1384	682	C8H18NO+
298.2742	999	C18H36NO2+
