Mass spectrum: Ofurace; LC-ESI-QFT; MS2; CE: 90%; R=17500; [M+H]+
Name: Ofurace
Name: 2-chloro-N-(2,6-dimethylphenyl)-N-(2-oxooxolan-3-yl)acetamide
Formula: C14H16ClNO3
Exact mass: 281.0819
SMILES: CC1=C(C(=CC=C1)C)N(C2CCOC2=O)C(=O)CCl
InChI: InChI=1S/C14H16ClNO3/c1-9-4-3-5-10(2)13(9)16(12(17)8-15)11-6-7-19-14(11)18/h3-5,11H,6-8H2,1-2H3
Instrument: Exploris 240 Orbitrap Thermo Scientific
Instrument type: LC-ESI-QFT
Ms type: MS2
Ion mode: POSITIVE
Ionization: ESI
Fragmentation mode: HCD
Collision energy: 90 % (nominal)
Resolution: 17500
Column name: XBridge C18 3.5um, 2.1x50mm, Waters
Retention time: 5.728 min
Base peak: 312.1342
Precursor m/z: 282.0891
Precursor type: [M+H]+
m/z	relative intensity	assigned
76.979	199	C2H2ClO+
79.0544	64	C6H7+
91.0543	67	C7H7+
103.0543	37	C8H7+
105.0699	307	C8H9+
106.0652	135	C7H8N+
117.0576	144	C8H7N+
117.068	25	C3H14ClO2+
119.0854	27	C9H11+
120.0811	102	C8H10N+
121.0888	352	C8H11N+
130.0652	316	C9H8N+
131.0732	412	C9H9N+
132.0808	590	C9H10N+
133.0887	94	C9H11N+
143.0856	34	C11H11+
144.0808	677	C10H10N+
145.0887	999	C10H11N+
148.1122	742	C10H14N+
160.1121	757	C11H14N+
178.1226	57	C11H16NO+
