Mass spectrum: Propazine-2-hydroxy; LC-ESI-QFT; MS2; CE: 60; R=35000; [M+H]+
Name: Propazine-2-hydroxy
Name: 1,3,5-Triazin-2(1H)-one, 4,6-bis((1-methylethyl)amino)-
Name: 2,6-bis(isopropylamino)-1H-s-triazin-4-one
Formula: C9H17N5O
Exact mass: 211.14331
SMILES: n(c(nc1NC(C)C)O)c(n1)NC(C)C
InChI: InChI=1S/C9H17N5O/c1-5(2)10-7-12-8(11-6(3)4)14-9(15)13-7/h5-6H,1-4H3,(H3,10,11,12,13,14,15)
Instrument: Q Exactive Plus Orbitrap Thermo Scientific
Instrument type: LC-ESI-QFT
Ms type: MS2
Ion mode: POSITIVE
Ionization: ESI
Fragmentation mode: HCD
Collision energy: 60 (nominal)
Resolution: 35000
Column name: XBridge C18 3.5um, 2.1x50mm, Waters
Retention time: 5.1 min
Base peak: 212.1505
Precursor m/z: 212.1506
Precursor type: [M+H]+
m/z	relative intensity	assigned
53.0022	1	C3HO+
58.0651	1	C3H8N+
60.0556	1	CH6N3+
68.0243	3	C2H2N3+
69.0083	26	C2HN2O+
85.0509	26	C2H5N4+
85.076	5	C4H9N2+
86.0349	433	C2H4N3O+
110.0461	2	C3H4N5+
111.0301	2	C3H3N4O+
111.0553	6	C5H7N2O+
127.0979	3	C5H11N4+
128.0567	999	C3H6N5O+
128.0818	63	C5H10N3O+
153.077	1	C6H9N4O+
170.1037	301	C6H12N5O+
212.1507	86	C9H18N5O+
