Mass spectrum: Ethofumesate; LC-ESI-ITFT; MS2; CE: 90%; R=30000; [M+H]+
Name: Ethofumesate
Name: (2-ethoxy-3,3-dimethyl-2H-1-benzofuran-5-yl) methanesulfonate
Formula: C13H18O5S
Exact mass: 286.0869
SMILES: S(=O)(=O)(C)O-c(ccc1O2)cc1C(C2OCC)(C)C
InChI: InChI=1S/C13H18O5S/c1-5-16-12-13(2,3)10-8-9(18-19(4,14)15)6-7-11(10)17-12/h6-8,12H,5H2,1-4H3
Instrument: LTQ Orbitrap XL Thermo Scientific
Instrument type: LC-ESI-ITFT
Ms type: MS2
Ion mode: POSITIVE
Ionization: ESI
Fragmentation mode: HCD
Collision energy: 90 % (nominal)
Resolution: 30000
Column name: XBridge C18 3.5um, 2.1x50mm, Waters
Retention time: 10.0 min
Base peak: 309.0774
Precursor m/z: 287.0948
Precursor type: [M+H]+
m/z	relative intensity	assigned
53.0385	21	C4H5+
55.0178	16	C3H3O+
62.9899	16	CH3OS+
65.0385	20	C5H5+
71.0491	6	C4H7O+
77.0386	324	C6H5+
78.0464	11	C6H6+
79.0543	435	C6H7+
81.0005	13	CH5O2S+
81.0335	21	C5H5O+
81.0699	105	C6H9+
91.0543	833	C7H7+
93.0699	181	C7H9+
94.0414	15	C6H6O+
95.0491	74	C6H7O+
103.0543	870	C8H7+
105.0447	93	C6H5N2+
105.0699	999	C8H9+
106.0777	77	C8H10+
107.0491	181	C7H7O+
109.0284	40	C6H5O2+
109.0648	127	C7H9O+
115.0543	523	C9H7+
116.0621	42	C9H8+
117.0699	94	C9H9+
119.0491	102	C8H7O+
121.0648	457	C8H9O+
123.044	66	C7H7O2+
127.0542	18	C10H7+
133.0648	385	C9H9O+
134.0726	225	C9H10O+
135.0804	48	C9H11O+
137.0597	117	C8H9O2+
143.0491	39	C10H7O+
144.057	24	C10H8O+
145.0649	46	C10H9O+
147.044	67	C9H7O2+
155.0605	29	C10H7N2+
161.0597	68	C10H9O2+
162.0675	43	C10H10O2+
173.0709	28	C10H9N2O+
185.0267	6	C8H9O3S+
