Mass spectrum: Metolachlor-TP SYN547977; LC-ESI-QFT; MS2; CE: 45%; R=17500; [M+H]+
Name: Metolachlor-TP SYN547977
Formula: C15H20ClNO3
Exact mass: 297.1132
SMILES: ClCC(=O)N(C(C)COC)c1c(C)cccc1C(C)=O
InChI: InChI=1S/C15H20ClNO3/c1-10-6-5-7-13(12(3)18)15(10)17(14(19)8-16)11(2)9-20-4/h5-7,11H,8-9H2,1-4H3
Instrument: Exploris 240 Orbitrap Thermo Scientific
Instrument type: LC-ESI-QFT
Ms type: MS2
Ion mode: POSITIVE
Ionization: ESI
Fragmentation mode: HCD
Collision energy: 45 % (nominal)
Resolution: 17500
Column name: XBridge C18 3.5um, 2.1x50mm, Waters
Retention time: 6.762 min
Base peak: 298.1202
Precursor m/z: 298.1204
Precursor type: [M+H]+
m/z	relative intensity	assigned
73.0648	26	C4H9O+
131.0729	7	C9H9N+
132.0809	18	C9H10N+
134.06	20	C8H8NO+
134.0964	11	C9H12N+
144.0804	24	C10H10N+
145.0885	8	C10H11N+
146.0963	29	C10H12N+
147.1042	17	C10H13N+
148.1122	86	C10H14N+
150.0914	6	C9H12NO+
157.0888	17	C11H11N+
158.0964	15	C11H12N+
162.1277	15	C11H16N+
171.104	33	C12H13N+
172.1121	451	C12H14N+
174.0915	6	C11H12NO+
184.0523	12	C9H11ClNO+
186.1279	115	C13H16N+
190.1227	188	C12H16NO+
208.0526	84	C11H11ClNO+
248.0843	22	C14H15ClNO+
266.0944	999	C14H17ClNO2+
