Mass spectrum: Dichlorvos; LC-ESI-QFT; MS2; CE: 15; R=35000; [M+H]+
Name: Dichlorvos
Name: DDVP
Name: 2,2-bis(chloranyl)ethenyl dimethyl phosphate
Formula: C4H7Cl2O4P
Exact mass: 219.94590
SMILES: O=P(O\C=C(/Cl)Cl)(OC)OC
InChI: InChI=1S/C4H7Cl2O4P/c1-8-11(7,9-2)10-3-4(5)6/h3H,1-2H3
Instrument: Q Exactive Orbitrap Thermo Scientific
Instrument type: LC-ESI-QFT
Ms type: MS2
Ion mode: POSITIVE
Ionization: ESI
Fragmentation mode: HCD
Collision energy: 15 (nominal)
Resolution: 35000
Column name: XBridge C18 3.5um, 2.1x50mm, Waters
Retention time: 7.4 min
Base peak: 220.9533
Precursor m/z: 220.9532
Precursor type: [M+H]+
m/z	relative intensity	assigned
76.9788	5	C2H2ClO+
78.9942	9	CH4O2P+
94.9446	1	CHClOP+
94.9891	1	CH4O3P+
109.0047	21	C2H6O3P+
111.9471	1	CH2ClO2P+
112.9998	2	CH6O4P+
127.0154	665	C2H8O4P+
144.9815	82	C2H7ClO3P+
220.953	999	C4H8Cl2O4P+
