Mass spectrum: 4,5-dihydro-5,5-diphenyl-1,2-oxazole-3-carboxylic acid, ethyl ester; LC-ESI-QFT; MS2; CE: 45; R=35000; [M+H]+
Name: 4,5-dihydro-5,5-diphenyl-1,2-oxazole-3-carboxylic acid, ethyl ester
Name: 5,5-diphenyl-2-isoxazoline-3-carboxylic acid ethyl ester
Formula: C18H17NO3
Exact mass: 295.12084
SMILES: C1(C(OCC)=O)=NOC(C1)(c1ccccc1)c1ccccc1
InChI: InChI=1S/C18H17NO3/c1-2-21-17(20)16-13-18(22-19-16,14-9-5-3-6-10-14)15-11-7-4-8-12-15/h3-12H,2,13H2,1H3
Instrument: Q Exactive Orbitrap Thermo Scientific
Instrument type: LC-ESI-QFT
Ms type: MS2
Ion mode: POSITIVE
Ionization: ESI
Fragmentation mode: HCD
Collision energy: 45 (nominal)
Resolution: 35000
Column name: XBridge C18 3.5um, 2.1x50mm, Waters
Retention time: 12.7 min
Base peak: 296.1281
Precursor m/z: 296.1281
Precursor type: [M+H]+
m/z	relative intensity	assigned
70.0651	3	C4H8N+
77.0384	11	C6H5+
91.0542	1	C7H7+
95.0491	17	C6H7O+
103.0542	9	C8H7+
104.0495	13	C7H6N+
105.0335	382	C7H5O+
116.0493	2	C8H6N+
128.0494	15	C9H6N+
130.0288	9	C8H4NO+
146.06	10	C9H8NO+
151.0535	1	C12H7+
153.0697	1	C12H9+
165.0697	17	C13H9+
166.0777	6	C13H10+
167.0854	4	C13H11+
169.0646	1	C12H9O+
176.062	23	C14H8+
177.0698	75	C14H9+
178.0649	4	C13H8N+
178.0776	29	C14H10+
179.0729	1	C13H9N+
179.0854	19	C14H11+
180.0809	1	C13H10N+
181.0649	2	C13H9O+
183.0804	21	C13H11O+
191.0855	131	C15H11+
192.0935	1	C15H12+
193.0887	9	C14H11N+
194.0964	17	C14H12N+
195.0802	6	C14H11O+
196.0761	1	C13H10NO+
201.0564	1	C15H7N+
202.0649	4	C15H8N+
202.0775	1	C16H10+
203.073	107	C15H9N+
204.0808	999	C15H10N+
205.0648	4	C15H9O+
205.076	10	C14H9N2+
205.0884	24	C15H11N+
206.0964	61	C15H12N+
207.0803	248	C15H11O+
219.1041	5	C16H13N+
220.0761	4	C15H10NO+
222.0913	18	C15H12NO+
232.0756	619	C16H10NO+
233.0837	11	C16H11NO+
235.0753	42	C16H11O2+
235.1115	13	C17H15O+
250.0864	3	C16H12NO2+
263.1064	20	C18H15O2+
