Mass spectrum: Genistein; LC-ESI-QFT; MS2; CE: 90; R=35000; [M+H]+
Name: Genistein
Name: 5,7-dihydroxy-3-(4-hydroxyphenyl)chromen-4-one
Formula: C15H10O5
Exact mass: 270.05282
SMILES: C1=CC(=CC=C1C2=COC3=CC(=CC(=C3C2=O)O)O)O
InChI: InChI=1S/C15H10O5/c16-9-3-1-8(2-4-9)11-7-20-13-6-10(17)5-12(18)14(13)15(11)19/h1-7,16-18H
Instrument: Q Exactive Plus Orbitrap Thermo Scientific
Instrument type: LC-ESI-QFT
Ms type: MS2
Ion mode: POSITIVE
Ionization: ESI
Fragmentation mode: HCD
Collision energy: 90 (nominal)
Resolution: 35000
Column name: XBridge C18 3.5um, 2.1x50mm, Waters
Retention time: 7.6 min
Base peak: 271.0599
Precursor m/z: 271.0601
Precursor type: [M+H]+
m/z	relative intensity	assigned
50.015	2	C4H2+
51.0229	3	C4H3+
53.0022	8	C3HO+
53.0386	9	C4H5+
55.0179	24	C3H3O+
62.0151	1	C5H2+
63.0229	13	C5H3+
65.0386	383	C5H5+
66.0463	1	C5H6+
67.0178	99	C4H3O+
67.9892	1	C3O2+
68.9971	251	C3HO2+
69.0335	64	C4H5O+
71.0127	4	C3H3O2+
75.0229	2	C6H3+
77.0385	11	C6H5+
78.0464	5	C6H6+
79.0178	14	C5H3O+
79.0542	17	C6H7+
81.0335	33	C5H5O+
83.0128	12	C4H3O2+
85.0283	4	C4H5O2+
89.0386	46	C7H5+
90.0464	3	C7H6+
91.0542	999	C7H7+
92.9971	2	C5HO2+
93.0335	2	C6H5O+
94.0413	5	C6H6O+
95.0128	19	C5H3O2+
95.0492	21	C6H7O+
97.0285	35	C5H5O2+
101.0385	2	C8H5+
102.0465	2	C8H6+
103.0542	50	C8H7+
105.0335	17	C7H5O+
105.0447	9	C6H5N2+
105.0699	6	C8H9+
106.0414	5	C7H6O+
107.0492	101	C7H7O+
108.0205	5	C6H4O2+
109.0284	10	C6H5O2+
109.0649	2	C7H9O+
111.0077	10	C5H3O3+
111.0441	8	C6H7O2+
115.0543	233	C9H7+
116.0621	14	C9H8+
117.0335	4	C8H5O+
117.0699	26	C9H9+
118.0413	10	C8H6O+
119.0492	89	C8H7O+
119.0856	5	C9H11+
121.0285	106	C7H5O2+
121.0397	8	C6H5N2O+
123.0441	1	C7H7O2+
124.0155	2	C6H4O3+
125.0235	5	C6H5O3+
126.0311	3	C6H6O3+
126.0464	2	C10H6+
127.0542	16	C10H7+
128.0621	35	C10H8+
129.0448	3	C8H5N2+
129.0699	14	C10H9+
131.0492	69	C9H7O+
131.0856	10	C10H11+
132.057	3	C9H8O+
133.0285	2	C8H5O2+
133.0648	3	C9H9O+
134.0362	3	C8H6O2+
135.0441	28	C8H7O2+
137.0234	14	C7H5O3+
139.0542	8	C11H7+
140.062	4	C11H8+
141.0699	215	C11H9+
143.0492	4	C10H7O+
144.057	36	C10H8O+
145.0285	26	C9H5O2+
145.0649	36	C10H9O+
147.0441	24	C9H7O2+
147.0804	4	C10H11O+
149.0234	40	C8H5O3+
150.0312	16	C8H6O3+
150.0465	2	C12H6+
151.0543	9	C12H7+
152.0621	30	C12H8+
153.0183	352	C7H5O4+
155.0492	45	C11H7O+
155.0602	31	C10H7N2+
157.0649	10	C11H9O+
158.0364	1	C10H6O2+
158.0727	2	C11H10O+
159.0441	16	C10H7O2+
159.0805	10	C11H11O+
160.0519	2	C10H8O2+
161.0599	1	C10H9O2+
163.039	15	C9H7O3+
165.0182	8	C8H5O4+
168.057	39	C12H8O+
169.0648	107	C12H9O+
170.0728	2	C12H10O+
171.0441	7	C11H7O2+
172.0519	8	C11H8O2+
173.0599	9	C11H9O2+
174.0676	1	C11H10O2+
175.0755	3	C11H11O2+
178.0263	1	C9H6O4+
179.0491	9	C13H7O+
179.0605	7	C12H7N2+
181.0649	6	C13H9O+
183.0288	1	C8H7O5+
183.0441	10	C12H7O2+
184.0521	4	C12H8O2+
185.0597	8	C12H9O2+
186.0675	1	C12H10O2+
187.0392	6	C11H7O3+
187.0755	8	C12H11O2+
191.0339	6	C10H7O4+
196.0518	5	C13H8O2+
197.0598	87	C13H9O2+
198.0676	3	C13H10O2+
200.0469	25	C12H8O3+
201.0548	7	C12H9O3+
203.0336	4	C11H7O4+
208.0514	1	C14H8O2+
211.0389	3	C13H7O3+
213.0547	20	C13H9O3+
214.0623	1	C13H10O3+
215.0703	23	C13H11O3+
216.0415	2	C12H8O4+
224.0469	2	C14H8O3+
225.0548	4	C14H9O3+
226.0627	4	C14H10O3+
228.0419	4	C13H8O4+
241.0496	4	C14H9O4+
242.0572	6	C14H10O4+
243.0651	6	C14H11O4+
253.0498	9	C15H9O4+
