Mass spectrum: Dimethenamid OXA; LC-ESI-ITFT; MS2; CE: 60%; R=15000; [M+H]+
Name: Dimethenamid OXA
Name: [(2,4-dimethylthiophen-3-yl)(1-methoxypropan-2-yl)amino](oxo)acetic acid
Formula: C12H17NO4S
Exact mass: 271.0878
SMILES: S(C=C1C)C(C)=C1N(C(=O)C(=O)O)C(COC)C
InChI: InChI=1S/C12H17NO4S/c1-7-6-18-9(3)10(7)13(8(2)5-17-4)11(14)12(15)16/h6,8H,5H2,1-4H3,(H,15,16)
Instrument: LTQ Orbitrap XL Thermo Scientific
Instrument type: LC-ESI-ITFT
Ms type: MS2
Ion mode: POSITIVE
Ionization: ESI
Fragmentation mode: HCD
Collision energy: 60 % (nominal)
Resolution: 15000
Column name: XBridge C18 3.5um, 2.1x50mm, Waters
Retention time: 7.5 min
Base peak: 272.0948
Precursor m/z: 272.0951
Precursor type: [M+H]+
m/z	relative intensity	assigned
67.0542	6	C5H7+
73.0648	157	C4H9O+
77.0386	12	C6H5+
79.0542	28	C6H7+
85.0105	6	C4H5S+
91.0543	5	C7H7+
92.0496	7	C6H6N+
93.0572	6	C6H7N+
93.0699	11	C7H9+
94.0652	64	C6H8N+
95.073	43	C6H9N+
97.0107	16	C5H5S+
99.0263	22	C5H7S+
101.0419	5	C5H9S+
104.0496	27	C7H6N+
105.0448	6	C6H5N2+
105.0573	78	C7H7N+
105.0695	5	C8H9+
107.0857	7	C8H11+
108.0807	14	C7H10N+
111.0263	656	C6H7S+
112.0216	5	C5H6NS+
112.0341	65	C6H8S+
113.0294	21	C5H7NS+
113.042	111	C6H9S+
114.0369	10	C5H8NS+
117.0701	8	C9H9+
118.0648	3	C8H8N+
119.0729	8	C8H9N+
120.0443	31	C7H6NO+
120.0809	41	C8H10N+
121.0522	10	C7H7NO+
122.0965	7	C8H12N+
123.0138	14	C6H5NS+
124.0216	3	C6H6NS+
124.034	16	C7H8S+
125.0419	67	C7H9S+
126.0372	999	C6H8NS+
127.0211	38	C6H7OS+
127.045	34	C6H9NS+
127.0575	18	C7H11S+
128.0529	54	C6H10NS+
129.0368	34	C6H9OS+
132.0808	32	C9H10N+
133.0886	78	C9H11N+
134.0965	32	C9H12N+
135.1043	108	C9H13N+
136.0216	22	C7H6NS+
136.0346	4	C8H8S+
137.0295	12	C7H7NS+
138.0372	551	C7H8NS+
139.0088	6	C6H5NOS+
139.0212	16	C7H7OS+
139.045	5	C7H9NS+
139.0575	8	C8H11S+
140.0528	27	C7H10NS+
149.0419	16	C9H9S+
150.0375	6	C8H8NS+
151.0451	27	C8H9NS+
151.0576	49	C9H11S+
152.0165	39	C7H6NOS+
152.0528	131	C8H10NS+
153.0242	30	C7H7NOS+
153.0607	60	C8H11NS+
154.0321	434	C7H8NOS+
155.04	16	C7H9NOS+
156.0477	7	C7H10NOS+
160.0757	7	C10H10NO+
161.0827	7	C10H11NO+
163.0452	4	C9H9NS+
166.0685	144	C9H12NS+
167.0764	55	C9H13NS+
168.0841	395	C9H14NS+
178.0689	7	C10H12NS+
194.0634	34	C10H12NOS+
196.0789	63	C10H14NOS+
198.0951	3	C10H16NOS+
200.0376	4	C8H10NO3S+
212.0741	24	C10H14NO2S+
240.0689	346	C11H14NO3S+
