Mass spectrum: Trinexapac-ethyl; LC-ESI-ITFT; MS2; CE: 60%; R=7500; [M+H]+
Name: Trinexapac-ethyl
Name: 4-[cyclopropyl(hydroxy)methylene]-3,5-diketo-cyclohexanecarboxylic acid ethyl ester
Formula: C13H16O5
Exact mass: 252.0992
SMILES: CCOC(=O)C1CC(=O)C(=C(C2CC2)O)C(=O)C1
InChI: InChI=1S/C13H16O5/c1-2-18-13(17)8-5-9(14)11(10(15)6-8)12(16)7-3-4-7/h7-8,16H,2-6H2,1H3/b12-11-
Instrument: LTQ Orbitrap XL Thermo Scientific
Instrument type: LC-ESI-ITFT
Ms type: MS2
Ion mode: POSITIVE
Ionization: ESI
Fragmentation mode: HCD
Collision energy: 60 % (nominal)
Resolution: 7500
Column name: XBridge C18 3.5um, 2.1x50mm, Waters
Retention time: 8.9 min
Base peak: 253.1073
Precursor m/z: 253.1071
Precursor type: [M+H]+
m/z	relative intensity	assigned
68.9971	110	C3HO2+
69.0335	999	C4H5O+
71.0126	5	C3H3O2+
81.0334	16	C5H5O+
83.0491	18	C5H7O+
85.0284	48	C4H5O2+
95.0126	13	C5H3O2+
97.0282	9	C5H5O2+
99.0081	6	C4H3O3+
105.0697	14	C8H9+
107.0494	11	C7H7O+
109.0284	43	C6H5O2+
109.0647	6	C7H9O+
111.044	207	C6H7O2+
113.0235	25	C5H5O3+
121.0285	10	C7H5O2+
121.0399	8	C6H5N2O+
123.0077	47	C6H3O3+
123.0438	10	C7H7O2+
133.0651	21	C9H9O+
137.0233	263	C7H5O3+
137.06	20	C8H9O2+
139.0389	227	C7H7O3+
141.0178	10	C6H5O4+
151.0756	27	C9H11O2+
155.0337	56	C7H7O4+
161.0594	14	C10H9O2+
165.0183	202	C8H5O4+
179.0703	102	C10H11O3+
183.0288	47	C8H7O5+
185.0809	19	C9H13O4+
207.0659	34	C11H11O4+
