Mass spectrum: Fenoxycarb; LC-ESI-ITFT; MS2; CE: 75%; R=15000; [M+H]+
Name: Fenoxycarb
Name: N-[2-(4-phenoxyphenoxy)ethyl]carbamic acid ethyl ester
Formula: C17H19NO4
Exact mass: 301.1314
SMILES: O=C(OCC)NCCOc2ccc(Oc1ccccc1)cc2
InChI: InChI=1S/C17H19NO4/c1-2-20-17(19)18-12-13-21-14-8-10-16(11-9-14)22-15-6-4-3-5-7-15/h3-11H,2,12-13H2,1H3,(H,18,19)
Instrument: LTQ Orbitrap XL Thermo Scientific
Instrument type: LC-ESI-ITFT
Ms type: MS2
Ion mode: POSITIVE
Ionization: ESI
Fragmentation mode: HCD
Collision energy: 75 % (nominal)
Resolution: 15000
Column name: XBridge C18 3.5um, 2.1x50mm, Waters
Retention time: 12.6 min
Base peak: 302.1394
Precursor m/z: 302.1387
Precursor type: [M+H]+
m/z	relative intensity	assigned
65.0386	1	C5H5+
66.0464	7	C5H6+
70.0288	30	C3H4NO+
72.0807	1	C4H10N+
77.0386	10	C6H5+
79.0543	3	C6H7+
88.0393	999	C3H6NO2+
91.0542	10	C7H7+
92.0621	1	C7H8+
94.0413	17	C6H6O+
105.0336	6	C7H5O+
105.0447	3	C6H5N2+
107.0492	11	C7H7O+
109.0284	3	C6H5O2+
115.0543	8	C9H7+
116.071	5	C5H10NO2+
118.0414	7	C8H6O+
119.049	3	C8H7O+
120.057	13	C8H8O+
128.0622	5	C10H8+
129.0699	25	C10H9+
131.0494	1	C9H7O+
133.029	1	C8H5O2+
134.0363	3	C8H6O2+
141.0699	21	C11H9+
142.0777	1	C11H10+
152.0619	3	C12H8+
155.0601	1	C10H7N2+
157.0648	7	C11H9O+
158.0725	4	C11H10O+
165.0698	5	C13H9+
166.0776	1	C13H10+
167.0851	1	C13H11+
169.0647	3	C12H9O+
170.0723	1	C12H10O+
177.0694	2	C14H9+
183.0804	2	C13H11O+
185.0597	6	C12H9O2+
186.0675	23	C12H10O2+
197.0599	1	C13H9O2+
213.0547	8	C13H9O3+
