Mass spectrum: Doxepine; LC-ESI-QFT; MS2; CE: 30; R=35000; [M+H]+
Name: Doxepine
Name: Doxepin
Name: 3-(6H-benzo[c][1]benzoxepin-11-ylidene)-N,N-dimethylpropan-1-amine
Formula: C19H21NO
Exact mass: 279.16231
SMILES: CN(C)CCC=C1C2=CC=CC=C2COC3=CC=CC=C31
InChI: InChI=1S/C19H21NO/c1-20(2)13-7-11-17-16-9-4-3-8-15(16)14-21-19-12-6-5-10-18(17)19/h3-6,8-12H,7,13-14H2,1-2H3
Instrument: Q Exactive Plus Orbitrap Thermo Scientific
Instrument type: LC-ESI-QFT
Ms type: MS2
Ion mode: POSITIVE
Ionization: ESI
Fragmentation mode: HCD
Collision energy: 30 (nominal)
Resolution: 35000
Column name: XBridge C18 3.5um, 2.1x50mm, Waters
Retention time: 6.8 min
Base peak: 280.1689
Precursor m/z: 280.1696
Precursor type: [M+H]+
m/z	relative intensity	assigned
58.0651	102	C3H8N+
70.0651	1	C4H8N+
72.0807	1	C4H10N+
84.0807	48	C5H10N+
85.0885	2	C5H11N+
86.0964	1	C5H12N+
91.0542	32	C7H7+
105.0699	1	C8H9+
107.0491	244	C7H7O+
115.0542	9	C9H7+
117.0698	41	C9H9+
119.0492	3	C8H7O+
129.0698	15	C10H9+
131.0491	3	C9H7O+
141.0698	24	C11H9+
142.0777	10	C11H10+
143.0855	2	C11H11+
150.0913	1	C9H12NO+
157.0649	1	C11H9O+
167.0857	1	C13H11+
173.12	2	C12H15N+
178.0775	1	C14H10+
179.0855	4	C14H11+
181.1007	1	C14H13+
186.1276	4	C13H16N+
191.0852	2	C15H11+
192.0936	1	C15H12+
193.1014	2	C15H13+
194.0726	7	C14H10O+
195.0804	13	C14H11O+
202.0778	1	C16H10+
207.0805	13	C15H11O+
207.1169	21	C16H15+
209.0961	11	C15H13O+
217.1013	17	C17H13+
219.117	1	C17H15+
220.0883	10	C16H12O+
233.0962	1	C17H13O+
235.1118	209	C17H15O+
237.1276	3	C17H17O+
280.1695	999	C19H22NO+
