Mass spectrum: Bromadiolone; LC-ESI-QFT; MS2; CE: 90; R=35000; [M-H]-
Name: Bromadiolone
Name: 3-[3-[4-(4-bromophenyl)phenyl]-3-hydroxy-1-phenylpropyl]-4-hydroxychromen-2-one
Formula: C30H23BrO4
Exact mass: 526.07797
SMILES: C1=CC=C(C=C1)C(CC(C2=CC=C(C=C2)C3=CC=C(C=C3)Br)O)C4=C(C5=CC=CC=C5OC4=O)O
InChI: InChI=1S/C30H23BrO4/c31-23-16-14-20(15-17-23)19-10-12-22(13-11-19)26(32)18-25(21-6-2-1-3-7-21)28-29(33)24-8-4-5-9-27(24)35-30(28)34/h1-17,25-26,32-33H,18H2
Instrument: Q Exactive Plus Orbitrap Thermo Scientific
Instrument type: LC-ESI-QFT
Ms type: MS2
Ion mode: NEGATIVE
Ionization: ESI
Fragmentation mode: HCD
Collision energy: 90 (nominal)
Resolution: 35000
Column name: XBridge C18 3.5um, 2.1x50mm, Waters
Retention time: 15.3 min
Base peak: 525.0704
Precursor m/z: 525.0707
Precursor type: [M-H]-
m/z	relative intensity	assigned
65.0397	15	C5H5-
67.0189	3	C4H3O-
78.9189	999	Br-
93.0346	245	C6H5O-
95.0139	2	C5H3O2-
101.0396	32	C8H5-
108.0217	3	C6H4O2-
115.0554	16	C9H7-
117.0346	79	C8H5O-
130.0422	1	C9H6O-
135.0453	2	C8H7O2-
141.071	10	C11H9-
143.0503	63	C10H7O-
145.0296	1	C9H5O2-
161.0245	1	C9H5O3-
165.0707	1	C13H9-
178.0789	1	C14H10-
187.0396	1	C11H7O3-
191.0864	3	C15H11-
193.0656	8	C14H9O-
195.0813	2	C14H11O-
205.0657	3	C15H9O-
206.0736	2	C15H10O-
217.0659	2	C16H9O-
219.0816	23	C16H11O-
249.0555	3	C16H9O3-
263.0715	3	C17H11O3-
