Mass spectrum: Oryzalin; LC-ESI-QFT; MS2; CE: 60; R=35000; [M-H]-
Name: Oryzalin
Name: 4-(dipropylamino)-3,5-dinitro-benzenesulfonamide
Formula: C12H18N4O6S
Exact mass: 346.09471
SMILES: [O-][N+](=O)c1cc(cc([N+]([O-])=O)c1N(CCC)CCC)S(=O)(=O)N
InChI: InChI=1S/C12H18N4O6S/c1-3-5-14(6-4-2)12-10(15(17)18)7-9(23(13,21)22)8-11(12)16(19)20/h7-8H,3-6H2,1-2H3,(H2,13,21,22)
Instrument: Q Exactive Orbitrap Thermo Scientific
Instrument type: LC-ESI-QFT
Ms type: MS2
Ion mode: NEGATIVE
Ionization: ESI
Fragmentation mode: HCD
Collision energy: 60 (nominal)
Resolution: 35000
Column name: XBridge C18 3.5um, 2.1x50mm, Waters
Retention time: 12.1 min
Base peak: 345.0875
Precursor m/z: 345.0874
Precursor type: [M-H]-
m/z	relative intensity	assigned
50.0035	3	C3N-
57.9935	4	CNO2-
61.9706	101	NOS-
63.0115	2	C4HN-
63.9625	65	O2S-
64.0193	28	C4H2N-
65.0145	127	C3HN2-
65.9985	133	C3NO-
67.0302	11	C3H3N2-
68.0142	23	C3H2NO-
73.0295	12	C3H5O2-
74.0037	4	C5N-
76.0192	10	C5H2N-
77.0145	33	C4HN2-
77.9656	999	NO2S-
78.9733	53	HNO2S-
79.9812	244	H2NO2S-
81.0219	3	C4H3NO-
88.0067	5	C5N2-
88.0192	4	C6H2N-
89.0145	116	C5HN2-
89.9986	5	C5NO-
90.0097	5	C4N3-
90.0224	4	C5H2N2-
90.035	2	C6H4N-
91.0302	61	C5H3N2-
92.0143	28	C5H2NO-
93.0095	47	C4HN2O-
93.0458	5	C5H5N2-
93.9604	4	NO3S-
94.0298	19	C5H4NO-
95.0142	2	C5H3O2-
95.0251	11	C4H3N2O-
96.0091	16	C4H2NO2-
97.0408	7	C4H5N2O-
101.0147	2	C6HN2-
102.0098	30	C5N3-
102.0224	5	C6H2N2-
104.0255	2	C5H2N3-
104.0381	5	C6H4N2-
105.0094	21	C5HN2O-
105.022	16	C6H3NO-
105.0458	10	C6H5N2-
106.0173	63	C5H2N2O-
106.041	4	C5H4N3-
107.0251	56	C5H3N2O-
107.0377	3	C6H5NO-
108.0331	30	C5H4N2O-
108.0456	5	C6H6NO-
108.0567	3	C5H6N3-
109.017	4	C5H3NO2-
109.0407	14	C5H5N2O-
115.0302	12	C7H3N2-
116.0255	250	C6H2N3-
117.0095	14	C6HN2O-
117.0334	2	C6H3N3-
117.046	15	C7H5N2-
118.0412	50	C6H4N3-
119.0251	91	C6H3N2O-
120.0091	5	C6H2NO2-
120.0204	5	C5H2N3O-
120.0329	14	C6H4N2O-
120.0455	5	C7H6NO-
120.0568	61	C6H6N3-
121.0408	93	C6H5N2O-
122.0248	32	C6H4NO2-
122.0486	17	C6H6N2O-
123.02	10	C5H3N2O2-
123.0565	2	C6H7N2O-
124.0279	23	C5H4N2O2-
129.0334	45	C7H3N3-
130.0171	5	C7H2N2O-
130.041	14	C7H4N3-
131.0249	3	C7H3N2O-
131.0489	57	C7H5N3-
131.0615	9	C8H7N2-
132.0202	4	C6H2N3O-
132.033	64	C7H4N2O-
132.0567	13	C7H6N3-
132.0693	5	C8H8N2-
133.0284	33	C6H3N3O-
133.0408	38	C7H5N2O-
133.0773	6	C8H9N2-
134.025	5	C7H4NO2-
134.0361	47	C6H4N3O-
134.0485	16	C7H6N2O-
134.0614	19	C8H8NO-
135.0203	33	C6H3N2O2-
135.0439	17	C6H5N3O-
135.0564	15	C7H7N2O-
136.0516	45	C6H6N3O-
136.0641	5	C7H8N2O-
137.0357	16	C6H5N2O2-
142.0409	11	C8H4N3-
143.0614	14	C9H7N2-
144.0202	15	C7H2N3O-
144.0567	16	C8H6N3-
144.0693	18	C9H8N2-
145.0282	29	C7H3N3O-
145.0406	16	C8H5N2O-
145.0647	4	C8H7N3-
145.0771	10	C9H9N2-
146.036	55	C7H4N3O-
146.0486	27	C8H6N2O-
146.0596	4	C7H6N4-
146.0724	26	C8H8N3-
147.02	17	C7H3N2O2-
147.0438	206	C7H5N3O-
147.0562	44	C8H7N2O-
148.0151	4	C6H2N3O2-
148.028	38	C7H4N2O2-
148.0517	15	C7H6N3O-
149.0356	40	C7H5N2O2-
149.0721	11	C8H9N2O-
150.0308	26	C6H4N3O2-
151.0388	13	C6H5N3O2-
152.0228	31	C6H4N2O3-
156.0567	16	C9H6N3-
157.0519	12	C8H5N4-
157.0645	35	C9H7N3-
158.036	18	C8H4N3O-
158.0485	4	C9H6N2O-
158.0721	25	C9H8N3-
159.0313	3	C7H3N4O-
159.0437	11	C8H5N3O-
159.0567	19	C9H7N2O-
159.0799	10	C9H9N3-
160.0393	6	C7H4N4O-
160.0518	39	C8H6N3O-
160.0642	38	C9H8N2O-
161.0357	17	C8H5N2O2-
161.0593	5	C8H7N3O-
161.072	66	C9H9N2O-
162.0309	51	C7H4N3O2-
163.0149	14	C7H3N2O3-
163.0261	19	C6H3N4O2-
163.0391	5	C7H5N3O2-
163.0513	4	C8H7N2O2-
163.0878	2	C9H11N2O-
164.0103	14	C6H2N3O3-
164.0466	3	C7H6N3O2-
165.0419	4	C6H5N4O2-
171.0678	9	C9H7N4-
172.0517	18	C9H6N3O-
173.0595	25	C9H7N3O-
174.0672	121	C9H8N3O-
175.0261	11	C7H3N4O2-
175.0514	22	C9H7N2O2-
175.0748	11	C9H9N3O-
176.0335	12	C7H4N4O2-
176.0465	10	C8H6N3O2-
176.0589	3	C9H8N2O2-
176.0826	5	C9H10N3O-
177.0419	25	C7H5N4O2-
177.0667	5	C9H9N2O2-
180.029	3	C6H4N4O3-
182.021	29	C6H4N3O4-
183.0235	11	C7H7N2O2S-
186.0105	26	C6H6N2O3S-
186.0544	11	C9H6N4O-
187.0625	17	C9H7N4O-
187.124	2	C12H15N2-
188.0464	2	C9H6N3O2-
190.062	12	C9H8N3O2-
191.0211	23	C7H3N4O3-
192.0291	43	C7H4N4O3-
192.9949	13	C7H3N3O2S-
194.0029	21	C7H4N3O2S-
194.9868	15	C7H3N2O3S-
196.0187	12	C7H6N3O2S-
197.0024	14	C7H5N2O3S-
199.0183	13	C7H7N2O3S-
200.9972	10	C6H5N2O4S-
202.0499	7	C9H6N4O2-
203.0575	40	C9H7N4O2-
204.0653	18	C9H8N4O2-
204.0778	3	C10H10N3O2-
205.0363	4	C8H5N4O3-
211.0056	35	C7H5N3O3S-
212.0136	23	C7H6N3O3S-
212.9976	11	C7H5N2O4S-
220.0183	5	C9H6N3O2S-
221.0681	13	C9H9N4O3-
221.9979	4	C8H4N3O3S-
222.0342	34	C9H8N3O2S-
223.0421	36	C9H9N3O2S-
224.0134	15	C8H6N3O3S-
224.05	2	C9H10N3O2S-
225.0337	4	C9H9N2O3S-
226.9881	34	C6H3N4O4S-
227.0007	34	C7H5N3O4S-
228.0084	50	C7H6N3O4S-
238.0291	10	C9H8N3O3S-
239.0375	3	C9H9N3O3S-
240.0081	5	C8H6N3O4S-
240.0448	6	C9H10N3O3S-
241.0037	85	C7H5N4O4S-
244.0036	29	C7H6N3O5S-
251.0249	21	C9H7N4O3S-
255.9911	4	C7H4N4O5S-
256.0399	5	C9H10N3O4S-
258.0557	4	C9H12N3O4S-
267.0193	33	C9H7N4O4S-
268.0273	41	C9H8N4O4S-
272.0352	3	C9H10N3O5S-
272.9934	26	C7H5N4O6S-
281.0352	3	C10H9N4O4S-
281.126	5	C12H17N4O4-
283.0496	3	C10H11N4O4S-
299.0453	11	C10H11N4O5S-
309.0672	3	C12H13N4O4S-
345.0867	4	C12H17N4O6S-
