Mass spectrum: Zidovudine; LC-ESI-QFT; MS2; CE: 15; R=35000; [M+H]+
Name: Zidovudine
Name: 1-[(2R,4S,5S)-4-azido-5-(hydroxymethyl)oxolan-2-yl]-5-methylpyrimidine-2,4-dione
Formula: C10H13N5O4
Exact mass: 267.09675
SMILES: CC1=CN(C(=O)NC1=O)[C@H]2C[C@@H]([C@H](O2)CO)N=[N+]=[N-]
InChI: InChI=1S/C10H13N5O4/c1-5-3-15(10(18)12-9(5)17)8-2-6(13-14-11)7(4-16)19-8/h3,6-8,16H,2,4H2,1H3,(H,12,17,18)/t6-,7+,8+/m0/s1
Instrument: Q Exactive Orbitrap Thermo Scientific
Instrument type: LC-ESI-QFT
Ms type: MS2
Ion mode: POSITIVE
Ionization: ESI
Fragmentation mode: HCD
Collision energy: 15 (nominal)
Resolution: 35000
Column name: XBridge C18 3.5um, 2.1x50mm, Waters
Retention time: 4.3 min
Base peak: 127.0502
Precursor m/z: 268.104
Precursor type: [M+H]+
m/z	relative intensity	assigned
58.0652	2	C3H8N+
68.0495	3	C4H6N+
69.0335	1	C4H5O+
70.0288	1	C3H4NO+
81.0335	7	C5H5O+
84.0443	2	C4H6NO+
86.06	3	C4H8NO+
96.0444	4	C5H6NO+
99.044	3	C5H7O2+
109.0396	1	C5H5N2O+
110.0237	4	C5H4NO2+
110.0599	1	C6H8NO+
114.0548	3	C5H8NO2+
127.0502	999	C5H7N2O2+
142.0611	29	C5H8N3O2+
153.0659	2	C7H9N2O2+
