Mass spectrum: Pyrimethanil; LC-ESI-ITFT; MS2; CE: 45%; R=7500; [M+H]+
Name: Pyrimethanil
Name: (4,6-dimethylpyrimidin-2-yl)-phenyl-amine
Formula: C12H13N3
Exact mass: 199.1109
SMILES: c(ccc1N-c(nc(c2)C)nc2C)cc1
InChI: InChI=1S/C12H13N3/c1-9-8-10(2)14-12(13-9)15-11-6-4-3-5-7-11/h3-8H,1-2H3,(H,13,14,15)
Instrument: LTQ Orbitrap XL Thermo Scientific
Instrument type: LC-ESI-ITFT
Ms type: MS2
Ion mode: POSITIVE
Ionization: ESI
Fragmentation mode: HCD
Collision energy: 45 % (nominal)
Resolution: 7500
Column name: XBridge C18 3.5um, 2.1x50mm, Waters
Retention time: 7.6 min
Base peak: 200.1185
Precursor m/z: 200.1182
Precursor type: [M+H]+
m/z	relative intensity	assigned
82.0651	4	C5H8N+
107.0603	4	C6H7N2+
125.0707	1	C6H9N2O+
143.0606	1	C9H7N2+
183.0914	6	C12H11N2+
184.0865	1	C11H10N3+
200.1183	999	C12H14N3+
