Mass spectrum: Flurtamone; LC-ESI-QFT; MS2; CE: 45; R=35000; [M-H]-
Name: Flurtamone
Name: 5-(methylamino)-2-phenyl-4-[3-(trifluoromethyl)phenyl]furan-3-one
Formula: C18H14F3NO2
Exact mass: 333.09766
SMILES: CNC1=C(C(=O)C(O1)C2=CC=CC=C2)C3=CC(=CC=C3)C(F)(F)F
InChI: InChI=1S/C18H14F3NO2/c1-22-17-14(12-8-5-9-13(10-12)18(19,20)21)15(23)16(24-17)11-6-3-2-4-7-11/h2-10,16,22H,1H3
Instrument: Q Exactive Plus Orbitrap Thermo Scientific
Instrument type: LC-ESI-QFT
Ms type: MS2
Ion mode: NEGATIVE
Ionization: ESI
Fragmentation mode: HCD
Collision energy: 45 (nominal)
Resolution: 35000
Column name: XBridge C18 3.5um, 2.1x50mm, Waters
Retention time: 10.1 min
Base peak: 332.0898
Precursor m/z: 332.0904
Precursor type: [M-H]-
m/z	relative intensity	assigned
68.9957	3	CF3-
101.0396	26	C8H5-
121.0295	1	C7H5O2-
129.0347	2	C9H5O-
131.0377	2	C8H5NO-
132.0455	1	C8H6NO-
134.0611	56	C8H8NO-
142.0662	1	C10H8N-
145.0271	108	C7H4F3-
146.0611	4	C9H8NO-
159.0427	8	C8H6F3-
161.0222	4	C7H4F3O-
162.056	4	C9H8NO2-
169.027	27	C9H4F3-
171.0328	4	C10H5NO2-
171.0427	17	C9H6F3-
178.0473	4	C10H6F2N-
183.03	66	C9H4F3N-
184.0379	1	C9H5F3N-
185.0219	131	C9H4F3O-
186.056	16	C11H8NO2-
187.064	2	C11H9NO2-
189.0167	5	C8H4F3O2-
198.0536	141	C10H7F3N-
207.0615	7	C15H8F-
210.0537	6	C11H7F3N-
214.0249	4	C10H5F3O2-
226.0486	3	C11H7F3NO-
227.0679	18	C15H9F2-
228.082	2	C17H10N-
235.0562	3	C16H8FO-
237.0723	1	C16H10FO-
239.02	6	C11H4F3NO2-
240.0278	12	C11H5F3NO2-
245.0582	5	C15H8F3-
247.074	395	C15H10F3-
248.0454	1	C14H7F3O-
254.0434	12	C12H7F3NO2-
255.0513	10	C12H8F3NO2-
255.0629	10	C16H9F2O-
259.0738	5	C16H10F3-
263.0691	1	C15H10F3O-
272.0717	2	C18H10NO2-
273.0771	7	C16H10F3N-
274.061	18	C16H9F3O-
275.0688	47	C16H10F3O-
277.0845	17	C16H12F3O-
286.0848	16	C17H11F3N-
288.0633	3	C16H9F3NO-
291.0638	11	C16H10F3O2-
292.0788	1	C18H11FNO2-
302.0563	2	C17H9F3O2-
303.0643	3	C17H10F3O2-
304.0955	71	C17H13F3NO-
314.0798	10	C18H11F3NO-
316.059	27	C17H9F3NO2-
317.0668	34	C17H10F3NO2-
330.0747	4	C18H11F3NO2-
331.0823	5	C18H12F3NO2-
332.0906	999	C18H13F3NO2-
