Mass spectrum: Nilotinib; LC-ESI-QFT; MS2; CE: 150; R=35000; [M+H]+
Name: Nilotinib
Name: 4-methyl-N-(3-(4-methylimidazol-1-yl)-5-(trifluoromethyl)phenyl)-3-((4-pyridin-3-ylpyrimidin-2-yl)amino)benzamide
Formula: C28H22F3N7O
Exact mass: 529.18379
SMILES: CC1=C(C=C(C=C1)C(=O)NC2=CC(=CC(=C2)N3C=C(N=C3)C)C(F)(F)F)NC4=NC=CC(=N4)C5=CN=CC=C5
InChI: InChI=1S/C28H22F3N7O/c1-17-5-6-19(10-25(17)37-27-33-9-7-24(36-27)20-4-3-8-32-14-20)26(39)35-22-11-21(28(29,30)31)12-23(13-22)38-15-18(2)34-16-38/h3-16H,1-2H3,(H,35,39)(H,33,36,37)
Instrument: Q Exactive Plus Orbitrap Thermo Scientific
Instrument type: LC-ESI-QFT
Ms type: MS2
Ion mode: POSITIVE
Ionization: ESI
Fragmentation mode: HCD
Collision energy: 150 (nominal)
Resolution: 35000
Column name: XBridge C18 3.5um, 2.1x50mm, Waters
Retention time: 8.2 min
Base peak: 530.1902
Precursor m/z: 530.1911
Precursor type: [M+H]+
m/z	relative intensity	assigned
50.0151	226	C4H2+
51.0229	169	C4H3+
52.0182	40	C3H2N+
52.0307	12	C4H4+
53.0022	20	C3HO+
53.0134	14	C2HN2+
53.0386	133	C4H5+
54.0338	47	C3H4N+
54.0465	2	C4H6+
55.0179	10	C3H3O+
55.0416	10	C3H5N+
56.0495	39	C3H6N+
57.0135	36	C3H2F+
61.0072	29	C5H+
62.0151	114	C5H2+
63.0229	401	C5H3+
64.0182	36	C4H2N+
64.0307	33	C5H4+
65.0022	17	C4HO+
65.026	42	C4H3N+
65.0386	237	C5H5+
66.0464	31	C5H6+
67.0416	14	C4H5N+
67.0541	9	C5H7+
68.0494	9	C4H6N+
68.9946	24	CF3+
74.015	44	C6H2+
75.004	37	C3HF2+
75.0229	338	C6H3+
76.0181	109	C5H2N+
76.0307	75	C6H4+
77.0385	250	CH4FN3+
78.0338	367	C5H4N+
78.0464	31	C6H6+
79.0416	107	C5H5N+
79.0542	38	C6H7+
80.0368	3	C4H4N2+
80.0494	24	FH5N4+
81.0135	37	C5H2F+
81.0335	24	C5H5O+
81.0447	40	C4H5N2+
82.0212	2	F2H2N3+
83.0291	33	C5H4F+
83.0603	13	C4H7N2+
86.0151	11	C7H2+
87.0103	5	C6HN+
87.0229	47	C7H3+
88.0119	11	C4H2F2+
88.0181	68	C6H2N+
88.0307	82	C7H4+
89.026	37	C6H3N+
89.0385	530	C7H5+
90.0339	92	C6H4N+
90.0464	70	C7H6+
91.0416	65	C6H5N+
91.0542	133	C7H7+
92.0369	11	C5H4N2+
92.0494	79	C6H6N+
93.0135	2	C6H2F+
93.0449	3	C5H5N2+
93.057	3	CH6FN4+
94.0413	11	C6H6O+
95.0491	415	C6H7O+
96.0375	24	C6H5F+
96.0443	445	C5H6NO+
97.0397	9	C4H5N2O+
98.015	5	C8H2+
99.004	14	C5HF2+
99.0229	24	C8H3+
100.0181	35	C7H2N+
101.0198	24	C5H3F2+
101.026	8	C7H3N+
101.0386	18	C8H5+
102.0338	217	C7H4N+
102.0463	85	C8H6+
103.029	36	C6H3N2+
103.0416	95	C7H5N+
103.0541	25	C8H7+
104.0494	659	C7H6N+
105.0447	368	C6H5N2+
106.0526	4	C6H6N2+
106.0651	43	C7H8N+
107.0291	54	C7H4F+
108.0243	13	C6H3FN+
108.0443	4	C6H6NO+
109.0323	9	C6H4FN+
109.0447	3	C7H6F+
110.06	13	C6H8NO+
111.0041	4	C6HF2+
111.0234	2	C9H3+
111.0315	34	C5H5NO2+
112.0119	12	C6H2F2+
113.0197	15	C6H3F2+
113.0387	36	C9H5+
114.0338	201	C8H4N+
114.0463	17	C4H5FN3+
115.0416	114	C8H5N+
115.0542	28	C9H7+
116.0369	75	C7H4N2+
116.0494	101	C8H6N+
117.0445	19	C2H4FN5+
117.0572	146	C8H7N+
118.0525	44	C7H6N2+
118.065	40	C8H8N+
119.0492	19	C8H7O+
119.0605	14	C7H7N2+
120.0205	9	C7H4O2+
120.0371	12	C8H5F+
120.0443	110	C7H6NO+
121.0322	4	C7H4FN+
121.0396	44	C6H5N2O+
123.0232	3	C10H3+
123.0351	27	CH3F2N5+
124.0182	9	C9H2N+
125.0197	110	C7H3F2+
125.0386	10	C10H5+
126.0275	36	C7H4F2+
126.0342	13	C9H4N+
126.0464	12	C10H6+
127.0292	4	C8H3N2+
127.0353	17	C2H4F3N3+
127.0417	24	C9H5N+
128.0494	121	C9H6N+
129.0446	404	C8H5N2+
130.04	278	C7H4N3+
130.0525	23	C8H6N2+
130.0651	21	C9H8N+
131.0293	20	C9H4F+
131.0603	228	C3H6FN5+
132.0181	21	C6H3F3+
132.0247	4	C8H3FN+
132.0443	9	C8H6NO+
132.057	4	C9H8O+
133.0259	5	C6H4F3+
133.052	16	C3H6FN4O+
134.0398	2	C3H4F2N4+
134.0475	23	C7H6N2O+
134.0599	32	C3H7FN4O+
135.0555	3	C7H7N2O+
137.0386	15	C11H5+
138.0341	15	C10H4N+
139.0227	29	C2H2F3N4+
139.0354	26	C8H5F2+
139.0417	21	C10H5N+
139.0541	50	C11H7+
140.0306	77	C7H4F2N+
140.0368	15	C9H4N2+
140.0494	120	C5H5FN4+
141.0447	19	C9H5N2+
141.0571	21	C5H6FN4+
142.0525	85	C9H6N2+
143.0104	12	C7H2F3+
143.0479	45	C8H5N3+
143.0603	48	C9H7N2+
144.0444	4	C9H6NO+
144.0556	18	C8H6N3+
145.026	103	C7H4F3+
145.0758	25	C4H8FN5+
146.06	34	C9H8NO+
146.0716	4	C8H8N3+
147.0356	17	C8H4FN2+
147.0552	97	C3H6FN5O+
148.0306	18	C7H3FN3+
148.0558	11	C9H7FN+
149.0196	8	C4H2F3N3+
149.0389	2	C12H5+
150.0341	4	C11H4N+
150.0466	18	C12H6+
151.0355	59	C9H5F2+
151.0416	12	C11H5N+
152.0306	29	C8H4F2N+
152.0496	25	C11H6N+
153.0384	35	C8H5F2N+
153.0448	39	C10H5N2+
153.0572	21	C6H6FN4+
154.04	30	C9H4N3+
154.0653	17	C11H8N+
155.0603	111	C10H7N2+
156.0556	142	C9H6N3+
157.0634	3	C9H7N3+
158.0403	11	C10H5FN+
159.0291	4	C7H4F3N+
159.0551	17	C4H6FN5O+
160.0371	12	C7H5F3N+
162.0339	12	C12H4N+
163.0415	40	
164.0494	230	C12H6N+
165.0448	57	C11H5N2+
165.0571	37	C7H6FN4+
165.0701	2	C13H9+
166.0462	56	C9H6F2N+
166.0527	42	C11H6N2+
166.0651	30	C12H8N+
167.0479	9	C10H5N3+
167.0731	3	C12H9N+
168.0445	10	C11H6NO+
168.0557	23	C10H6N3+
168.0682	11	C11H8N2+
169.026	9	C9H4F3+
169.0517	4	CH5F2N7O+
169.0644	59	C2H7F2N6O+
170.06	32	C11H8NO+
170.0711	11	C5H7FN6+
171.0552	22	C10H7N2O+
172.0369	18	C8H5F3N+
173.0511	23	C10H6FN2+
174.0657	7	C4H7FN6O+
175.0418	11	C13H5N+
177.0447	40	C12H5N2+
178.0465	2	C10H6F2N+
178.0529	5	C12H6N2+
178.0649	37	C8H7FN4+
179.0603	80	C12H7N2+
179.0728	8	C8H8FN4+
180.0556	27	C11H6N3+
180.0681	8	C12H8N2+
180.0807	5	C13H10N+
181.0521	24	C7H6FN4O+
181.0642	7	C11H7N3+
182.0711	21	C6H7FN6+
183.0555	9	C11H7N2O+
183.0682	11	C2H7F2N7O+
186.0425	2	C10H6N2O2+
186.0524	3	C9H7F3N+
188.0495	47	C14H6N+
189.0446	115	C13H5N2+
190.0524	88	
190.0649	45	C9H7FN4+
191.0481	25	C12H5N3+
191.0603	141	C8H6FN5+
191.0732	15	C14H9N+
192.0556	32	C12H6N3+
192.068	141	C8H7FN5+
193.0568	18	C5H6F3N5+
193.0641	94	C12H7N3+
193.0764	12	C13H9N2+
194.0713	31	C12H8N3+
195.0315	4	C12H5NO2+
195.0553	79	C12H7N2O+
198.0528	3	C10H7F3N+
199.0478	5	C9H6F3N2+
203.0603	75	C6H7F2N5O+
204.0558	94	C13H6N3+
204.068	14	C9H7FN5+
205.0509	4	C12H5N4+
205.0638	12	C13H7N3+
205.0761	80	C14H9N2+
206.0712	76	C13H8N3+
207.0554	25	C13H7N2O+
207.0653	3	C7H6FN7+
207.0789	17	C8H8FN6+
208.0632	54	C13H8N2O+
208.0872	12	C13H10N3+
213.0634	4	C10H8F3N2+
215.0604	42	C15H7N2+
216.0557	85	C14H6N3+
216.0681	41	C15H8N2+
217.0635	349	C14H7N3+
217.0755	17	C10H8FN5+
218.0712	129	C14H8N3+
219.0668	12	C13H7N4+
219.0792	31	C14H9N3+
220.0873	12	C14H10N3+
221.0813	2	C8H8FN7+
222.0663	59	C13H8N3O+
223.0479	2	C11H6F3N2+
228.0555	10	C7H6F2N6O+
229.0635	17	C15H7N3+
230.0713	199	C15H8N3+
231.0668	25	C14H7N4+
231.0792	78	C15H9N3+
232.087	58	C15H10N3+
233.0825	13	C14H9N4+
233.0937	2	C10H10FN6+
234.0661	76	C14H8N3O+
241.0631	9	C11H6FN6+
242.0587	19	C7H6F2N7O+
242.0711	12	C11H7FN6+
243.0667	237	C15H7N4+
244.0744	767	C15H8N4+
245.0821	60	C15H9N4+
255.0665	46	C16H7N4+
256.0742	132	C11H7FN7+
257.0821	999	C16H9N4+
258.0899	114	C11H9FN7+
259.0978	86	C11H10FN7+
276.0641	5	C15H9F3NO+
