Mass spectrum: Lorazepam; LC-ESI-QFT; MS2; CE: 30; R=35000; [M-H]-
Name: Lorazepam
Name: 2H-1,4-Benzodiazepin-2-one, 7-chloro-5-(2-chlorophenyl)-1,3-dihydro-3-hydroxy-
Name: 7-chloranyl-5-(2-chlorophenyl)-3-oxidanyl-1,3-dihydro-1,4-benzodiazepin-2-one
Formula: C15H10Cl2N2O2
Exact mass: 320.01193
SMILES: Clc3ccccc3C/2=N/C(O)C(=O)Nc1c\2cc(Cl)cc1
InChI: InChI=1S/C15H10Cl2N2O2/c16-8-5-6-12-10(7-8)13(19-15(21)14(20)18-12)9-3-1-2-4-11(9)17/h1-7,15,21H,(H,18,20)
Instrument: Q Exactive Orbitrap Thermo Scientific
Instrument type: LC-ESI-QFT
Ms type: MS2
Ion mode: NEGATIVE
Ionization: ESI
Fragmentation mode: HCD
Collision energy: 30 (nominal)
Resolution: 35000
Column name: XBridge C18 3.5um, 2.1x50mm, Waters
Retention time: 9.0 min
Base peak: 319.005
Precursor m/z: 319.0047
Precursor type: [M-H]-
m/z	relative intensity	assigned
102.035	233	C7H4N-
116.0142	4	C7H2NO-
126.0117	10	C6H5ClN-
146.0248	4	C8H4NO2-
151.0069	1	C7H4ClN2-
151.9909	86	C7H3ClNO-
154.006	4	C10H2O2-
173.0358	2	C9H5N2O2-
179.0018	32	C8H4ClN2O-
179.9859	37	C8H3ClNO2-
200.0273	8	C12H7ClN-
219.0563	6	C14H7N2O-
227.0384	24	C13H8ClN2-
228.0222	28	C13H7ClNO-
247.0516	9	C15H7N2O2-
254.0252	5	C14H7ClN2O-
255.0332	113	C14H8ClN2O-
266.0255	1	C15H7ClN2O-
282.0204	4	C15H7ClN2O2-
283.0279	999	C15H8ClN2O2-
291.01	7	C14H9Cl2N2O-
319.0047	1	C15H9Cl2N2O2-
