Mass spectrum: Pyridate; LC-ESI-QFT; MS2; CE: 120; R=35000; [M+H]+
Name: Pyridate
Name: Pyridat
Name: (6-chloro-3-phenylpyridazin-4-yl) octylsulfanylformate
Formula: C19H23ClN2O2S
Exact mass: 378.11688
SMILES: O=C(SCCCCCCCC)Oc2cc(Cl)nnc2c1ccccc1
InChI: InChI=1S/C19H23ClN2O2S/c1-2-3-4-5-6-10-13-25-19(23)24-16-14-17(20)21-22-18(16)15-11-8-7-9-12-15/h7-9,11-12,14H,2-6,10,13H2,1H3
Instrument: Q Exactive Plus Orbitrap Thermo Scientific
Instrument type: LC-ESI-QFT
Ms type: MS2
Ion mode: POSITIVE
Ionization: ESI
Fragmentation mode: HCD
Collision energy: 120 (nominal)
Resolution: 35000
Column name: XBridge C18 3.5um, 2.1x50mm, Waters
Retention time: 18.1 min
Base peak: 379.1241
Precursor m/z: 379.1242
Precursor type: [M+H]+
m/z	relative intensity	assigned
50.0152	42	C4H2+
51.023	137	C4H3+
53.0022	29	C3HO+
53.0386	148	C4H5+
53.9975	11	C2NO+
55.0179	6	C3H3O+
55.0543	18	C4H7+
57.0699	37	C4H9+
60.9841	1	C2H2Cl+
61.0107	2	C2H5S+
61.9792	138	CHClN+
62.9632	4	CClO+
63.0229	2	C5H3+
65.0022	3	C4HO+
65.0386	11	C5H5+
67.0543	2	C5H7+
68.0131	999	C3H2NO+
69.07	4	C5H9+
73.9792	1	C2HClN+
74.0151	8	C6H2+
75.0229	2	C6H3+
75.9948	6	C2H3ClN+
76.0307	15	C6H4+
77.0386	246	C6H5+
78.0087	1	C3N3+
78.0464	1	C6H6+
81.0335	18	C5H5O+
85.9792	1	C3HClN+
86.9634	6	C3ClO+
87.0228	1	C7H3+
89.0386	20	C7H5+
90.0465	4	C7H6+
91.0543	8	C7H7+
94.0414	9	C6H6O+
95.0492	509	C6H7O+
98.0152	7	C8H2+
99.023	1	C8H3+
100.0309	5	C8H4+
102.034	1	C7H4N+
103.9898	18	C3H3ClNO+
104.0495	87	C7H6N+
105.0448	303	C6H5N2+
106.0418	1	C4H9ClN+
115.0543	42	C9H7+
116.0495	13	C8H6N+
116.0621	1	C9H8+
117.0574	11	C8H7N+
125.0155	1	C7H6Cl+
125.0386	1	C10H5+
126.0465	268	C10H6+
130.04	1	C7H4N3+
138.0105	7	C7H5ClN+
143.0605	8	C9H7N2+
144.0681	4	C9H8N2+
179.0371	1	C9H8ClN2+
205.017	1	C10H6ClN2O+
207.0324	1	C10H8ClN2O+
