Mass spectrum: Isopropalin; LC-ESI-QFT; MS2; CE: 60%; R=17500; [M+H]+
Name: Isopropalin
Name: 2,6-dinitro-4-propan-2-yl-N,N-dipropylaniline
Formula: C15H23N3O4
Exact mass: 309.1689
SMILES: CCCN(CCC)C1=C(C=C(C=C1[N+](=O)[O-])C(C)C)[N+](=O)[O-]
InChI: InChI=1S/C15H23N3O4/c1-5-7-16(8-6-2)15-13(17(19)20)9-12(11(3)4)10-14(15)18(21)22/h9-11H,5-8H2,1-4H3
Instrument: Exploris 240 Orbitrap Thermo Scientific
Instrument type: LC-ESI-QFT
Ms type: MS2
Ion mode: POSITIVE
Ionization: ESI
Fragmentation mode: HCD
Collision energy: 60 % (nominal)
Resolution: 17500
Column name: XBridge C18 3.5um, 2.1x50mm, Waters
Retention time: 15.043 min
Base peak: 310.1757
Precursor m/z: 310.1761
Precursor type: [M+H]+
m/z	relative intensity	assigned
53.0261	72	C3H3N+
57.0335	167	C3H5O+
59.0493	51	C3H7O+
79.0543	108	C6H7+
91.0544	167	C7H7+
94.0648	55	C6H8N+
104.0498	79	C7H6N+
105.0447	79	C6H5N2+
106.0652	102	C7H8N+
116.0499	77	C8H6N+
117.0572	74	C8H7N+
118.0648	360	C8H8N+
119.06	51	C7H7N2+
130.0648	126	C9H8N+
131.0605	144	C8H7N2+
131.0725	75	C9H9N+
132.0681	122	C8H8N2+
132.0803	82	C9H10N+
133.0762	320	C8H9N2+
133.0889	112	C9H11N+
134.0475	91	C7H6N2O+
134.0964	146	C9H12N+
135.0554	142	C7H7N2O+
145.076	370	C9H9N2+
146.0837	110	C9H10N2+
147.0551	164	C8H7N2O+
148.0994	161	C9H12N2+
149.0709	55	C8H9N2O+
160.0633	91	C9H8N2O+
160.0998	230	C10H12N2+
161.0708	491	C9H9N2O+
164.0947	91	C9H12N2O+
172.0999	158	C11H12N2+
173.1076	90	C11H13N2+
175.0859	114	C10H11N2O+
176.0943	509	C10H12N2O+
177.0665	108	C9H9N2O2+
180.0891	180	C9H12N2O2+
187.1229	89	C12H15N2+
188.131	424	C12H16N2+
189.1021	156	C11H13N2O+
190.0611	129	C9H8N3O2+
193.097	106	C10H13N2O2+
194.0563	131	C8H8N3O3+
194.0929	105	C9H12N3O2+
203.0934	95	C12H13NO2+
203.1174	82	C12H15N2O+
204.1263	103	C12H16N2O+
206.0923	471	C10H12N3O2+
208.0718	999	C9H10N3O3+
209.0793	373	C9H11N3O3+
210.0878	68	C9H12N3O3+
218.0922	581	C11H12N3O2+
222.0875	502	C10H12N3O3+
226.0821	321	C9H12N3O4+
234.1238	527	C12H16N3O2+
