Mass spectrum: Paroxetine; LC-ESI-QFT; MS2; CE: 90; R=35000; [M+H]+
Name: Paroxetine
Name: 3-[(1,3-Benzodioxol-5-yloxy)methyl]-4-(4-fluorophenyl)piperidine
Name: 3-(1,3-benzodioxol-5-yloxymethyl)-4-(4-fluorophenyl)piperidine
Formula: C19H20FNO3
Exact mass: 329.14272
SMILES: C1CNCC(C1C2=CC=C(C=C2)F)COC3=CC4=C(C=C3)OCO4
InChI: InChI=1S/C19H20FNO3/c20-15-3-1-13(2-4-15)17-7-8-21-10-14(17)11-22-16-5-6-18-19(9-16)24-12-23-18/h1-6,9,14,17,21H,7-8,10-12H2
Instrument: Q Exactive Plus Orbitrap Thermo Scientific
Instrument type: LC-ESI-QFT
Ms type: MS2
Ion mode: POSITIVE
Ionization: ESI
Fragmentation mode: HCD
Collision energy: 90 (nominal)
Resolution: 35000
Column name: XBridge C18 3.5um, 2.1x50mm, Waters
Retention time: 7.8 min
Base peak: 330.1493
Precursor m/z: 330.15
Precursor type: [M+H]+
m/z	relative intensity	assigned
51.023	1	C4H3+
52.0182	1	C3H2N+
53.0022	39	C3HO+
53.0386	12	C4H5+
53.9975	7	C2NO+
54.0101	1	C3H2O+
54.034	1	C3H4N+
55.0179	5	C3H3O+
55.0417	1	C3H5N+
55.0543	1	C4H7+
56.0495	124	C3H6N+
57.0136	1	C3H2F+
57.0573	13	C3H7N+
58.0652	7	C3H8N+
65.0386	67	C5H5+
67.0417	3	C4H5N+
67.0543	24	C5H7+
67.9893	11	C3O2+
68.0495	90	C4H6N+
68.9972	7	C3HO2+
69.0573	4	C4H7N+
70.0652	999	C4H8N+
71.073	5	C4H9N+
77.0386	10	C6H5+
78.0087	1	C3N3+
79.0543	6	C6H7+
80.0495	5	C5H6N+
81.0335	23	C5H5O+
82.0652	60	C5H8N+
83.0291	17	C5H4F+
83.073	4	C5H9N+
84.0808	9	C5H10N+
86.0601	1	C4H8NO+
89.0386	1	C7H5+
91.0543	7	C7H7+
93.0336	43	C6H5O+
95.0492	16	C6H7O+
96.0371	1	C6H5F+
96.0808	14	C6H10N+
97.045	1	C6H6F+
102.0466	3	C8H6+
103.0543	153	C8H7+
105.0448	8	C6H5N2+
109.0285	29	C6H5O2+
109.0449	436	C7H6F+
111.0442	9	C6H7O2+
115.0543	140	C9H7+
116.0621	11	C9H8+
117.07	4	C9H9+
119.0492	3	C8H7O+
121.0285	12	C7H5O2+
121.0449	24	C8H6F+
122.0527	1	C8H7F+
123.0442	7	C7H7O2+
123.0605	120	C8H8F+
124.0557	1	C7H7FN+
127.0542	3	C10H7+
128.0621	27	C10H8+
129.0448	9	C8H5N2+
129.0702	1	C10H9+
130.0654	4	C9H8N+
133.0449	96	C9H6F+
134.0527	20	C9H7F+
135.0605	380	C9H8F+
136.0684	14	C9H9F+
137.0234	6	C7H5O3+
138.0315	1	C7H6O3+
138.0714	2	C8H9FN+
141.0701	4	C11H9+
143.0857	4	C11H11+
145.0648	6	C10H9O+
146.0527	83	C10H7F+
147.0605	70	C10H8F+
148.0558	9	C9H7FN+
148.0683	33	C10H9F+
149.0762	9	C10H10F+
150.0714	14	C9H9FN+
151.039	32	C8H7O3+
155.0606	15	C10H7N2+
159.0606	7	C11H8F+
160.0685	5	C11H9F+
161.0761	28	C11H10F+
162.0715	4	C10H9FN+
163.0918	9	C11H12F+
164.0869	6	C10H11FN+
173.0512	1	C10H6FN2+
175.0393	1	C10H7O3+
178.1027	2	C11H13FN+
192.1184	11	C12H15FN+
