Mass spectrum: Tolfenpyrad; LC-ESI-QFT; MS2; CE: 180%; R=17500; [M+H]+
Name: Tolfenpyrad
Name: 4-chloro-5-ethyl-2-methyl-N-[[4-(4-methylphenoxy)phenyl]methyl]pyrazole-3-carboxamide
Formula: C21H22ClN3O2
Exact mass: 383.1401
SMILES: CCC1=NN(C(=C1Cl)C(=O)NCC2=CC=C(C=C2)OC3=CC=C(C=C3)C)C
InChI: InChI=1S/C21H22ClN3O2/c1-4-18-19(22)20(25(3)24-18)21(26)23-13-15-7-11-17(12-8-15)27-16-9-5-14(2)6-10-16/h5-12H,4,13H2,1-3H3,(H,23,26)
Instrument: Exploris 240 Orbitrap Thermo Scientific
Instrument type: LC-ESI-QFT
Ms type: MS2
Ion mode: POSITIVE
Ionization: ESI
Fragmentation mode: HCD
Collision energy: 180 % (nominal)
Resolution: 17500
Column name: XBridge C18 3.5um, 2.1x50mm, Waters
Retention time: 13.456 min
Base peak: 308.0038
Precursor m/z: 384.1473
Precursor type: [M+H]+
m/z	relative intensity	assigned
51.023	54	C4H3+
53.0386	22	C4H5+
54.0338	25	C3H4N+
60.984	14	C2H2Cl+
61.9794	16	CHClN+
63.0229	96	C5H3+
65.0386	999	C5H5+
74.9871	18	C2H2ClN+
75.9948	70	C2H3ClN+
77.0385	45	C6H5+
81.0447	11	C4H5N2+
91.0542	125	C7H7+
105.0449	24	C6H5N2+
107.0489	18	C7H7O+
115.0542	77	C9H7+
127.0546	21	C10H7+
128.062	69	C10H8+
139.0542	11	C11H7+
151.0544	22	C12H7+
152.062	219	C12H8+
153.0698	65	C12H9+
155.0606	18	C10H7N2+
