Mass spectrum: N4-Acetylsulfadimethoxine; LC-ESI-ITFT; MS2; CE: 75%; R=7500; [M+H]+
Name: N4-Acetylsulfadimethoxine
Name: N-[4-[(4,6-dimethoxy-2-pyrimidinyl)sulfamoyl]phenyl]acetamide
Formula: C14H16N4O5S
Exact mass: 352.0841
SMILES: C(C)(=O)Nc1ccc(cc1)S(=O)(=O)Nc1nc(cc(n1)OC)OC
InChI: InChI=1S/C14H16N4O5S/c1-9(19)15-10-4-6-11(7-5-10)24(20,21)18-14-16-12(22-2)8-13(17-14)23-3/h4-8H,1-3H3,(H,15,19)(H,16,17,18)
Instrument: LTQ Orbitrap XL Thermo Scientific
Instrument type: LC-ESI-ITFT
Ms type: MS2
Ion mode: POSITIVE
Ionization: ESI
Fragmentation mode: HCD
Collision energy: 75 % (nominal)
Resolution: 7500
Column name: XBridge C18 3.5um, 2.1x50mm, Waters
Retention time: 6.3 min
Base peak: 353.0926
Precursor m/z: 353.0914
Precursor type: [M+H]+
m/z	relative intensity	assigned
56.0496	14	C3H6N+
58.0288	18	C2H4NO+
65.0386	854	C5H5+
67.0292	43	C3H3N2+
68.0129	22	C3H2NO+
68.0368	10	C3H4N2+
79.0543	22	C6H7+
81.0446	35	C4H5N2+
84.0319	26	C3H4N2O+
86.0233	16	C3H4NO2+
92.0495	187	C6H6N+
93.0334	61	C6H5O+
93.0576	23	C6H7N+
96.0558	41	C4H6N3+
99.0552	20	C4H7N2O+
106.065	64	C7H8N+
108.0444	522	C6H6NO+
109.0395	37	C5H5N2O+
110.0348	134	C4H4N3O+
110.0603	19	C6H8NO+
111.0557	16	C5H7N2O+
124.0508	21	C5H6N3O+
125.0584	136	C5H7N3O+
126.0661	184	C5H8N3O+
127.0505	44	C5H7N2O2+
134.06	472	C8H8NO+
140.0454	88	C5H6N3O2+
141.0532	72	C5H7N3O2+
154.0611	999	C6H8N3O2+
155.0689	50	C6H9N3O2+
156.0767	256	C6H10N3O2+
157.0482	156	C5H7N3O3+
172.0501	23	C9H6N3O+
172.0756	12	C3H14N3O3S+
173.0584	234	C9H7N3O+
