Mass spectrum: Ceftazidime; LC-ESI-QFT; MS2; CE: 75; R=35000; [M+H]+
Name: Ceftazidime
Name: (6R,7R)-7-[[(2Z)-2-(2-amino-1,3-thiazol-4-yl)-2-(2-carboxypropan-2-yloxyimino)acetyl]amino]-8-oxo-3-(pyridin-1-ium-1-ylmethyl)-5-thia-1-azabicyclo[4.2.0]oct-2-ene-2-carboxylate
Formula: C22H22N6O7S2
Exact mass: 546.09914
SMILES: O=C2N1/C(=C(\CS[C@@H]1[C@@H]2NC(=O)C(=N\OC(C(=O)O)(C)C)/c3nc(sc3)N)C[n+]4ccccc4)C([O-])=O
InChI: InChI=1S/C22H22N6O7S2/c1-22(2,20(33)34)35-26-13(12-10-37-21(23)24-12)16(29)25-14-17(30)28-15(19(31)32)11(9-36-18(14)28)8-27-6-4-3-5-7-27/h3-7,10,14,18H,8-9H2,1-2H3,(H4-,23,24,25,29,31,32,33,34)/b26-13-/t14-,18-/m1/s1
Instrument: Q Exactive Orbitrap Thermo Scientific
Instrument type: LC-ESI-QFT
Ms type: MS2
Ion mode: POSITIVE
Ionization: ESI
Fragmentation mode: HCD
Collision energy: 75 (nominal)
Resolution: 35000
Column name: XBridge C18 3.5um, 2.1x50mm, Waters
Retention time: 3.4 min
Base peak: 274.0573
Precursor m/z: 547.1064
Precursor type: [M+H]+
m/z	relative intensity	assigned
50.0153	4	C4H2+
53.0387	31	C4H5+
55.0292	27	C2H3N2+
56.0132	4	C2H2NO+
57.9872	3	C2H2S+
59.0492	299	C3H7O+
59.9903	140	CH2NS+
62.0061	4	CH4NS+
65.0386	18	C5H5+
66.0339	21	C4H4N+
67.0291	15	C3H3N2+
67.0417	8	C4H5N+
68.0244	40	C2H2N3+
68.0495	131	C4H6N+
68.9794	17	C3HS+
69.0084	4	C2HN2O+
69.0336	4	C4H5O+
69.0448	6	C3H5N2+
70.9825	7	C2HNS+
70.995	20	C3H3S+
71.9903	93	C2H2NS+
72.9981	50	C2H3NS+
73.0107	5	C3H5S+
74.006	13	C2H4NS+
74.99	7	C2H3OS+
78.0339	50	C5H4N+
80.0495	461	C5H6N+
81.0336	3	C5H5O+
81.0448	13	C4H5N2+
81.0573	14	C5H7N+
82.0288	4	C4H4NO+
82.0526	23	C4H6N2+
82.0652	3	C5H8N+
82.9824	20	C3HNS+
82.995	4	C4H3S+
83.9904	37	C3H2NS+
84.0029	7	C4H4S+
84.0445	7	C4H6NO+
85.0107	488	C4H5S+
85.9695	5	C2NOS+
86.0059	16	C3H4NS+
87.0012	15	C2H3N2S+
87.0441	27	C4H7O2+
90.0009	15	C2H4NOS+
90.0339	5	C6H4N+
91.0415	3	C6H5N+
93.0446	55	C5H5N2+
93.0574	4	C6H7N+
94.0401	4	C4H4N3+
94.0525	7	C5H6N2+
94.9951	10	C5H3S+
95.0604	66	C5H7N2+
96.0444	59	C5H6NO+
97.0107	421	C5H5S+
97.9934	55	C3H2N2S+
98.0059	33	C4H4NS+
98.0185	8	C5H6S+
98.9774	20	C3HNOS+
99.0012	98	C3H3N2S+
99.9852	25	C3H2NOS+
100.0091	14	C3H4N2S+
100.0217	7	C4H6NS+
100.9931	24	C3H3NOS+
104.0495	3	C7H6N+
105.0448	50	C6H5N2+
106.0287	45	C6H4NO+
106.0526	105	C6H6N2+
107.0366	25	C6H5NO+
107.0605	149	C6H7N2+
108.0683	240	C6H8N2+
108.9855	4	C4HN2S+
109.0761	5	C6H9N2+
110.006	33	C5H4NS+
110.035	14	C4H4N3O+
111.0012	6	C4H3N2S+
111.0137	24	C5H5NS+
111.0315	5	C5H5NO2+
112.0216	569	C5H6NS+
112.0393	32	C5H6NO2+
113.0295	7	C5H7NS+
114.0122	20	C3H4N3S+
114.0373	8	C5H8NS+
114.9962	23	C3H3N2OS+
116.0276	14	C3H6N3S+
117.012	8	C3H5N2OS+
119.0606	20	C7H7N2+
120.0559	4	C6H6N3+
121.0398	17	C6H5N2O+
122.006	81	C6H4NS+
123.0137	8	C6H5NS+
124.0091	18	C5H4N2S+
124.0216	58	C6H6NS+
125.0043	999	C4H3N3S+
126.0121	683	C4H4N3S+
127.0199	20	C4H5N3S+
128.0278	3	C4H6N3S+
132.0227	16	C3H6N3OS+
132.0556	5	C7H6N3+
133.0066	5	C3H5N2O2S+
133.0399	4	C7H5N2O+
134.0476	8	C7H6N2O+
134.0712	5	C7H8N3+
136.0218	18	C7H6NS+
137.0169	22	C6H5N2S+
138.0008	4	C6H4NOS+
138.0122	6	C5H4N3S+
139.0198	197	C5H5N3S+
139.0324	129	C6H7N2S+
140.0164	157	C6H6NOS+
141.0481	57	C6H9N2S+
142.0071	513	C4H4N3OS+
142.9734	6	C4H3N2S2+
144.0228	80	C4H6N3OS+
144.0558	15	C8H6N3+
145.0067	4	C4H5N2O2S+
148.0095	4	CH10NO3S2+
149.017	13	C7H5N2S+
150.0119	3	C6H4N3S+
150.0246	3	C7H6N2S+
151.0323	4	C7H7N2S+
151.0505	8	C7H7N2O2+
151.9915	5	C5H2N3OS+
152.0155	29	C5H4N4S+
152.028	4	C6H6N3S+
153.023	108	C5H5N4S+
154.007	66	C5H4N3OS+
154.0308	7	C5H6N4S+
156.0112	8	C6H6NO2S+
156.0557	6	C9H6N3+
157.0637	7	C9H7N3+
158.0711	6	C9H8N3+
159.0665	4	C8H7N4+
161.017	8	C8H5N2S+
162.0247	16	C8H6N2S+
163.0323	30	C8H7N2S+
166.0308	4	C6H6N4S+
167.0148	8	C6H5N3OS+
167.0273	42	C7H7N2OS+
168.0111	4	C7H6NO2S+
171.0665	7	C9H7N4+
173.0821	5	C9H9N4+
174.025	15	C9H6N2S+
175.0326	18	C9H7N2S+
176.0275	32	C8H6N3S+
178.0434	5	C8H8N3S+
179.0021	5	C6H3N4OS+
181.018	8	C6H5N4OS+
182.002	213	C6H4N3O2S+
182.0256	28	C6H6N4OS+
186.0902	7	C10H10N4+
188.028	20	C9H6N3S+
189.0356	26	C9H7N3S+
190.0193	28	C9H6N2OS+
190.0434	24	C9H8N3S+
191.0274	28	C9H7N2OS+
191.039	3	C2H13N3O3S2+
193.0177	6	C7H5N4OS+
195.0044	5	C8H7N2S2+
197.0126	16	C6H5N4O2S+
199.0618	4	C10H7N4O+
203.0273	8	C4H13NO4S2+
203.0384	18	C9H7N4S+
204.0464	8	C9H8N4S+
204.989	4	C9H5N2S2+
205.0309	8	C3H13N2O4S2+
205.0544	37	C9H9N4S+
207.0044	17	C9H7N2S2+
215.0386	14	C10H7N4S+
216.0232	4	C10H6N3OS+
216.0462	3	C10H8N4S+
217.0543	37	C10H9N4S+
222.015	5	C9H8N3S2+
230.0494	6	C10H8N5S+
232.0418	3	C4H14N3O4S2+
232.0652	5	C10H10N5S+
245.0493	7	C11H9N4OS+
