Mass spectrum: Resveratrol; LC-ESI-QFT; MS2; CE: 45; R=35000; [M+H]+
Name: Resveratrol
Name: 5-[(E)-2-(4-hydroxyphenyl)ethenyl]benzene-1,3-diol
Formula: C14H12O3
Exact mass: 228.07864
SMILES: Oc2cc(\C=C\c1ccc(O)cc1)cc(O)c2
InChI: InChI=1S/C14H12O3/c15-12-5-3-10(4-6-12)1-2-11-7-13(16)9-14(17)8-11/h1-9,15-17H/b2-1+
Instrument: Q Exactive Orbitrap Thermo Scientific
Instrument type: LC-ESI-QFT
Ms type: MS2
Ion mode: POSITIVE
Ionization: ESI
Fragmentation mode: HCD
Collision energy: 45 (nominal)
Resolution: 35000
Column name: XBridge C18 3.5um, 2.1x50mm, Waters
Retention time: 6.1 min
Base peak: 229.086
Precursor m/z: 229.0859
Precursor type: [M+H]+
m/z	relative intensity	assigned
65.0385	5	C5H5+
67.0542	3	C5H7+
68.9971	24	C3HO2+
69.0335	1	C4H5O+
71.0127	5	C3H3O2+
77.0383	1	C6H5+
79.0542	24	C6H7+
81.0335	7	C5H5O+
83.0492	1	C5H7O+
85.0284	4	C4H5O2+
91.0542	370	C7H7+
95.0491	37	C6H7O+
101.0596	1	C5H9O2+
105.0336	1	C7H5O+
105.0448	1	C6H5N2+
105.0698	1	C8H9+
107.0491	999	C7H7O+
109.0284	38	C6H5O2+
110.0362	7	C6H6O2+
111.0441	50	C6H7O2+
115.0543	5	C9H7+
117.0332	1	C8H5O+
117.0699	3	C9H9+
119.0492	310	C8H7O+
120.057	109	C8H8O+
121.0284	59	C7H5O2+
121.0648	6	C8H9O+
123.044	44	C7H7O2+
128.0617	1	C10H8+
129.0699	4	C10H9+
131.0494	9	C9H7O+
131.0854	6	C10H11+
133.0648	8	C9H9O+
135.044	608	C8H7O2+
136.0518	78	C8H8O2+
137.0234	3	C7H5O3+
141.0697	40	C11H9+
143.0855	3	C11H11+
144.0571	4	C10H8O+
145.0648	53	C10H9O+
147.0441	11	C9H7O2+
152.0618	1	C12H8+
153.0699	31	C12H9+
154.0777	3	C12H10+
155.0855	54	C12H11+
157.0648	12	C11H9O+
158.0729	1	C11H10O+
159.0804	22	C11H11O+
160.0518	7	C10H8O2+
161.0597	6	C10H9O2+
161.0961	5	C11H13O+
165.0699	160	C13H9+
168.0571	6	C12H8O+
169.0647	8	C12H9O+
171.044	9	C11H7O2+
171.0805	1	C12H11O+
173.0595	11	C11H9O2+
173.096	7	C12H13O+
181.0648	8	C13H9O+
182.0726	4	C13H10O+
183.0804	148	C13H11O+
185.0589	1	C12H9O2+
187.0388	1	C11H7O3+
187.0755	17	C12H11O2+
193.0647	49	C14H9O+
193.0757	7	C13H9N2+
194.0726	1	C14H10O+
197.0598	4	C13H9O2+
199.0751	6	C13H11O2+
201.0907	19	C13H13O2+
210.0676	4	C14H10O2+
211.0753	78	C14H11O2+
212.0833	5	C14H12O2+
214.0625	8	C13H10O3+
227.0702	3	C14H11O3+
229.0858	126	C14H13O3+
