Mass spectrum: Ethiprole; LC-ESI-QFT; MS2; CE: 180%; R=17500; [M+H]+
Name: Ethiprole
Name: 5-amino-1-[2,6-dichloro-4-(trifluoromethyl)phenyl]-4-ethylsulfinylpyrazole-3-carbonitrile
Formula: C13H9Cl2F3N4OS
Exact mass: 395.9826
SMILES: CCS(=O)C1=C(N(N=C1C#N)C2=C(C=C(C=C2Cl)C(F)(F)F)Cl)N
InChI: InChI=1S/C13H9Cl2F3N4OS/c1-2-24(23)11-9(5-19)21-22(12(11)20)10-7(14)3-6(4-8(10)15)13(16,17)18/h3-4H,2,20H2,1H3
Instrument: Exploris 240 Orbitrap Thermo Scientific
Instrument type: LC-ESI-QFT
Ms type: MS2
Ion mode: POSITIVE
Ionization: ESI
Fragmentation mode: HCD
Collision energy: 180 % (nominal)
Resolution: 17500
Column name: XBridge C18 3.5um, 2.1x50mm, Waters
Retention time: 8.795 min
Base peak: 396.9896
Precursor m/z: 396.9899
Precursor type: [M+H]+
m/z	relative intensity	assigned
57.0136	105	C3H2F+
61.9792	111	CHClN+
62.9871	141	CH2ClN+
66.9744	197	CHClF+
68.9946	837	CF3+
69.9746	65	C2NS+
72.9841	89	C3H2Cl+
75.004	413	C3HF2+
81.0135	256	C5H2F+
84.9649	196	CClF2+
87.0103	211	C6HN+
90.9744	288	C3HClF+
92.0058	133	ClH9OS+
92.9945	241	C3F3+
106.0091	292	ClH9NOS+
107.9762	233	C6HCl+
108.9651	132	C3ClF2+
108.984	79	C6H2Cl+
114.9745	128	C5HClF+
116.9946	163	C5F3+
123.9948	109	C6H3ClN+
130.0023	177	C6HF3+
131.0104	92	ClF2H10OS+
132.0179	43	C6H3F3+
137.0069	151	C2F3N4+
141.9856	98	Cl2H10NOS+
143.0102	999	C7H2F3+
157.0131	872	C7H2F3N+
165.979	728	C6H2ClF3+
173.9918	51	C7H3ClF2N+
