Mass spectrum: Isoxaben; LC-ESI-QFT; MS2; CE: 75; R=35000; [M-H]-
Name: Isoxaben
Name: 2,6-dimethoxy-N-[3-(3-methylpentan-3-yl)-1,2-oxazol-5-yl]benzamide
Formula: C18H24N2O4
Exact mass: 332.17361
SMILES: CCC(C)(CC)C1=NOC(=C1)NC(=O)C2=C(C=CC=C2OC)OC
InChI: InChI=1S/C18H24N2O4/c1-6-18(3,7-2)14-11-15(24-20-14)19-17(21)16-12(22-4)9-8-10-13(16)23-5/h8-11H,6-7H2,1-5H3,(H,19,21)
Instrument: Q Exactive Plus Orbitrap Thermo Scientific
Instrument type: LC-ESI-QFT
Ms type: MS2
Ion mode: NEGATIVE
Ionization: ESI
Fragmentation mode: HCD
Collision energy: 75 (nominal)
Resolution: 35000
Column name: XBridge C18 3.5um, 2.1x50mm, Waters
Retention time: 10.6 min
Base peak: 331.1659
Precursor m/z: 331.1663
Precursor type: [M-H]-
m/z	relative intensity	assigned
64.0067	34	C3N2-
65.0145	83	C3HN2-
65.9985	999	C3NO-
66.035	111	C4H4N-
72.9932	126	C2HO3-
81.0345	32	C5H5O-
82.0059	80	C4H2O2-
83.0502	13	C5H7O-
89.0269	10	C6H3N-
91.0187	36	C6H3O-
92.0268	229	C6H4O-
93.0345	214	C6H5O-
94.0059	10	C5H2O2-
95.0139	139	C5H3O2-
102.0349	120	C7H4N-
105.0219	42	C6H3NO-
105.0346	79	C7H5O-
107.0502	65	C7H7O-
108.0217	325	C6H4O2-
108.0819	105	C7H10N-
117.0221	282	C7H3NO-
117.0345	90	C8H5O-
118.0298	130	C7H4NO-
120.009	123	C6H2NO2-
121.0295	959	C7H5O2-
122.0371	9	C7H6O2-
123.045	21	C7H7O2-
132.0091	44	C7H2NO2-
132.0216	69	C8H4O2-
132.0455	111	C8H6NO-
133.0169	552	C7H3NO2-
133.0295	663	C8H5O2-
134.0248	170	C7H4NO2-
134.0373	53	C8H6O2-
135.0088	87	C7H3O3-
135.0451	8	C8H7O2-
136.0401	11	C7H6NO2-
136.1128	30	C9H14N-
137.0716	14	C7H9N2O-
145.0168	13	C8H3NO2-
146.0247	133	C8H4NO2-
147.0325	89	C8H5NO2-
148.0404	322	C8H6NO2-
149.0243	14	C8H5O3-
151.04	37	C8H7O3-
161.0244	467	C9H5O3-
162.0197	57	C8H4NO3-
166.1109	50	C9H14N2O-
172.0281	11	C9H4N2O2-
173.0116	82	C9H3NO3-
176.0352	11	C9H6NO3-
