Mass spectrum: Doxycycline; LC-ESI-QFT; MS2; CE: 90; R=35000; [M-H]-
Name: Doxycycline
Name: 8-carbamoyl-10-(dimethylazaniumyl)-4,6a,7,11-tetrahydroxy-12-methyl-6,9-dioxo-10a,11,11a,12-tetrahydro-10H-tetracen-5-olate
Formula: C22H24N2O8
Exact mass: 444.15327
SMILES: CC1C2C(C3C(C(=O)C(=C(C3(C(=O)C2=C(C4=C1C=CC=C4O)O)O)O)C(=O)N)N(C)C)O
InChI: InChI=1S/C22H24N2O8/c1-7-8-5-4-6-9(25)11(8)16(26)12-10(7)17(27)14-15(24(2)3)18(28)13(21(23)31)20(30)22(14,32)19(12)29/h4-7,10,14-15,17,25-27,30,32H,1-3H3,(H2,23,31)
Instrument: Q Exactive Plus Orbitrap Thermo Scientific
Instrument type: LC-ESI-QFT
Ms type: MS2
Ion mode: NEGATIVE
Ionization: ESI
Fragmentation mode: HCD
Collision energy: 90 (nominal)
Resolution: 35000
Column name: XBridge C18 3.5um, 2.1x50mm, Waters
Retention time: 6.3 min
Base peak: 443.1457
Precursor m/z: 443.146
Precursor type: [M-H]-
m/z	relative intensity	assigned
50.0036	3	C3N-
51.0239	3	C4H3-
53.0032	2	C3HO-
55.0189	7	C3H3O-
57.0345	2	C3H5O-
59.0138	7	C2H3O2-
63.024	91	C5H3-
65.0033	35	C4HO-
65.0397	20	C5H5-
65.9985	87	C3NO-
67.019	25	C4H3O-
68.0142	3	C3H2NO-
68.9982	106	C3HO2-
69.0346	31	C4H5O-
71.0139	12	C3H3O2-
76.0193	1	C5H2N-
78.0349	5	C5H4N-
79.0189	36	C5H3O-
80.0267	6	C5H4O-
80.0505	1	C5H6N-
81.0219	3	C4H3NO-
81.0346	10	C5H5O-
82.0299	1	C4H4NO-
82.0662	2	C5H8N-
83.0138	14	C4H3O2-
84.009	88	C3H2NO2-
85.0295	2	C4H5O2-
86.0248	1	C3H4NO2-
89.0397	2	C7H5-
90.0348	2	C6H4N-
91.019	22	C6H3O-
91.0554	3	C7H7-
92.0141	1	C5H2NO-
93.0345	29	C6H5O-
94.0298	5	C5H4NO-
95.0138	127	C5H3O2-
96.0091	51	C4H2NO2-
96.0455	2	C5H6NO-
96.9931	39	C4HO3-
97.0294	24	C5H5O2-
99.0087	2	C4H3O3-
100.0767	1	C5H10NO-
106.0299	1	C6H4NO-
106.0422	1	C7H6O-
107.0138	16	C6H3O2-
108.0217	43	C6H4O2-
109.0295	58	C6H5O2-
110.0249	2	C5H4NO2-
110.0613	5	C6H8NO-
111.0088	5	C5H3O3-
112.0405	2	C5H6NO2-
117.0346	32	C8H5O-
118.0298	1	C7H4NO-
119.0139	14	C7H3O2-
119.0502	100	C8H7O-
120.0091	6	C6H2NO2-
120.0456	6	C7H6NO-
121.0295	22	C7H5O2-
121.0659	35	C8H9O-
122.0249	17	C6H4NO2-
122.0371	1	C7H6O2-
123.0088	59	C6H3O3-
123.0328	4	C6H5NO2-
124.0039	2	C5H2NO3-
124.0165	25	C6H4O3-
124.0403	2	C6H6NO2-
124.9876	1	C5HO4-
125.0243	7	C6H5O3-
125.0719	1	C6H9N2O-
126.0196	1	C5H4NO3-
126.056	26	C6H8NO2-
129.071	3	C10H9-
130.0424	41	C9H6O-
131.05	1	C9H7O-
133.0165	1	C7H3NO2-
133.0292	2	C8H5O2-
133.0661	5	C9H9O-
134.0248	30	C7H4NO2-
135.0088	33	C7H3O3-
135.045	1	C8H7O2-
136.0405	3	C7H6NO2-
137.0243	11	C7H5O3-
138.0196	14	C6H4NO3-
139.0149	79	C5H3N2O3-
141.0712	1	C11H9-
142.9986	5	C5H3O5-
143.0502	43	C10H7O-
144.058	15	C10H8O-
145.0294	7	C9H5O2-
145.0658	11	C10H9O-
146.0247	5	C8H4NO2-
146.0375	11	C9H6O2-
147.0202	1	C7H3N2O2-
147.0327	1	C8H5NO2-
147.0455	2	C9H7O2-
148.0042	11	C7H2NO3-
148.0404	6	C8H6NO2-
149.0118	12	C7H3NO3-
149.0356	3	C7H5N2O2-
150.0196	34	C7H4NO3-
151.0039	5	C7H3O4-
151.0278	2	C7H5NO3-
152.0118	1	C7H4O4-
152.0352	9	C7H6NO3-
155.0504	7	C11H7O-
156.058	14	C11H8O-
157.0659	47	C11H9O-
158.0373	119	C10H6O2-
159.0452	86	C10H7O2-
159.0815	6	C11H11O-
161.0243	11	C9H5O3-
161.0608	5	C10H9O2-
162.0197	10	C8H4NO3-
163.004	2	C8H3O4-
163.015	2	C7H3N2O3-
163.0276	1	C8H5NO3-
164.0356	1	C8H6NO3-
167.0503	18	C12H7O-
168.0577	1	C12H8O-
169.03	1	C11H5O2-
169.066	16	C12H9O-
170.0375	9	C11H6O2-
171.0452	35	C11H7O2-
171.0816	6	C12H11O-
172.053	84	C11H8O2-
173.0607	315	C11H9O2-
174.0323	5	C10H6O3-
175.0765	3	C11H11O2-
177.0305	5	C8H5N2O3-
178.0145	7	C8H4NO4-
180.058	20	C13H8O-
181.0661	26	C13H9O-
182.0375	11	C12H6O2-
183.0451	45	C12H7O2-
183.0817	9	C13H11O-
184.0534	10	C12H8O2-
185.0608	66	C12H9O2-
186.0321	20	C11H6O3-
186.0686	3	C12H10O2-
187.0401	97	C11H7O3-
188.047	1	C11H8O3-
193.0656	12	C14H9O-
194.0738	7	C14H10O-
195.0451	27	C13H7O2-
195.0816	8	C14H11O-
196.0529	70	C13H8O2-
197.0608	70	C13H9O2-
198.0324	6	C12H6O3-
198.0683	1	C13H10O2-
199.0395	1	C12H7O3-
199.0764	27	C13H11O2-
201.056	12	C12H9O3-
203.0349	1	C11H7O4-
203.0716	7	C12H11O3-
204.0428	12	C11H8O4-
204.058	9	C15H8O-
205.0657	5	C15H9O-
206.074	2	C15H10O-
207.0452	8	C14H7O2-
207.0819	5	C15H11O-
208.0531	20	C14H8O2-
209.0608	86	C14H9O2-
210.0326	2	C13H6O3-
210.056	5	C13H8NO2-
210.0682	9	C14H10O2-
211.0401	198	C13H7O3-
211.076	13	C14H11O2-
212.048	14	C13H8O3-
213.0559	16	C13H9O3-
213.092	5	C14H13O2-
214.0271	13	C12H6O4-
219.0452	2	C15H7O2-
220.0529	14	C15H8O2-
221.0607	29	C15H9O2-
222.0324	8	C14H6O3-
222.0687	14	C15H10O2-
223.0402	10	C14H7O3-
223.065	2	C14H9NO2-
223.0762	25	C15H11O2-
224.0479	61	C14H8O3-
225.0557	51	C14H9O3-
225.0922	7	C15H13O2-
226.0872	6	C14H12NO2-
227.035	2	C13H7O4-
227.0709	10	C14H11O3-
232.053	12	C16H8O2-
233.0609	28	C16H9O2-
234.0677	1	C16H10O2-
235.0403	19	C15H7O3-
235.0766	9	C16H11O2-
236.0484	5	C15H8O3-
236.0718	2	C15H10NO2-
237.0558	42	C15H9O3-
237.0793	2	C15H11NO2-
238.0635	12	C15H10O3-
238.0876	1	C15H12NO2-
239.035	316	C14H7O4-
240.0429	999	C14H8O4-
241.0499	7	C14H9O4-
246.0683	2	C17H10O2-
247.0639	7	C16H9NO2-
247.0756	1	C17H11O2-
248.0477	23	C16H8O3-
248.0715	5	C16H10NO2-
249.0557	26	C16H9O3-
250.0509	8	C15H8NO3-
250.0635	2	C16H10O3-
250.0874	2	C16H12NO2-
251.0349	2	C15H7O4-
251.071	10	C16H11O3-
252.0669	1	C15H10NO3-
253.0505	20	C15H9O4-
254.0583	8	C15H10O4-
255.0662	2	C15H11O4-
260.0717	1	C17H10NO2-
261.0559	12	C17H9O3-
262.0633	5	C17H10O3-
263.0348	2	C16H7O4-
263.0713	5	C17H11O3-
264.0426	6	C16H8O4-
264.0668	2	C16H10NO3-
265.0507	2	C16H9O4-
265.0743	1	C16H11NO3-
265.0879	1	C17H13O3-
275.0589	1	C17H9NO3-
276.0433	5	C17H8O4-
277.0499	9	C17H9O4-
279.0312	1	C16H7O5-
280.0374	2	C16H8O5-
290.0216	7	C17H6O5-
291.053	1	C17H9NO4-
