Mass spectrum: Meclofenamic Acid; LC-ESI-QFT; MS2; CE: 75; R=35000; [M+H]+
Name: Meclofenamic Acid
Name: 2-(2,6-dichloro-3-methylanilino)benzoic acid
Formula: C14H11Cl2NO2
Exact mass: 295.01668
SMILES: CC1=C(C(=C(C=C1)Cl)NC2=CC=CC=C2C(=O)O)Cl
InChI: InChI=1S/C14H11Cl2NO2/c1-8-6-7-10(15)13(12(8)16)17-11-5-3-2-4-9(11)14(18)19/h2-7,17H,1H3,(H,18,19)
Instrument: Q Exactive Plus Orbitrap Thermo Scientific
Instrument type: LC-ESI-QFT
Ms type: MS2
Ion mode: POSITIVE
Ionization: ESI
Fragmentation mode: HCD
Collision energy: 75 (nominal)
Resolution: 35000
Column name: XBridge C18 3.5um, 2.1x50mm, Waters
Retention time: 14.0 min
Base peak: 296.0233
Precursor m/z: 296.024
Precursor type: [M+H]+
m/z	relative intensity	assigned
77.0384	1	C6H5+
151.0541	5	C12H7+
152.062	19	C12H8+
153.0573	3	C11H7N+
153.0699	1	C12H9+
155.0729	3	C11H9N+
169.0648	8	C12H9O+
177.0572	7	C13H7N+
178.0652	108	C13H8N+
179.073	134	C13H9N+
180.0808	385	C13H10N+
182.06	5	C12H8NO+
183.0679	5	C12H9NO+
194.0603	1	C13H8NO+
196.076	5	C13H10NO+
200.0263	3	C12H7ClN+
206.0602	23	C14H8NO+
207.068	102	C14H9NO+
208.0758	381	C14H10NO+
211.0629	6	C13H9NO2+
213.0341	40	C13H8ClN+
214.0419	215	C13H9ClN+
215.0497	111	C13H10ClN+
216.0213	8	C12H7ClNO+
217.0289	8	C12H8ClNO+
224.0264	1	C14H7ClN+
228.0213	3	C13H7ClNO+
234.9951	5	C12H7Cl2N+
241.029	10	C14H8ClNO+
242.0368	421	C14H9ClNO+
243.0446	999	C14H10ClNO+
245.024	3	C13H8ClNO2+
262.99	13	C13H7Cl2NO+
277.0057	1	C14H9Cl2NO+
278.0135	10	C14H10Cl2NO+
