Mass spectrum: Dimethyl-phthalate; LC-ESI-QFT; MS2; CE: 75; R=35000; [M+H]+
Name: Dimethyl-phthalate
Name: Dimethyl phthalate
Name: Dimethyl benzene-1,2-dicarboxylate
Formula: C10H10O4
Exact mass: 194.05791
SMILES: COC(=O)C1=CC=CC=C1C(=O)OC
InChI: InChI=1S/C10H10O4/c1-13-9(11)7-5-3-4-6-8(7)10(12)14-2/h3-6H,1-2H3
Instrument: Q Exactive Plus Orbitrap Thermo Scientific
Instrument type: LC-ESI-QFT
Ms type: MS2
Ion mode: POSITIVE
Ionization: ESI
Fragmentation mode: HCD
Collision energy: 75 (nominal)
Resolution: 35000
Column name: XBridge C18 3.5um, 2.1x50mm, Waters
Retention time: 6.5 min
Base peak: 163.0386
Precursor m/z: 195.0652
Precursor type: [M+H]+
m/z	relative intensity	assigned
50.0151	8	C4H2+
51.0229	12	C4H3+
53.0386	141	C4H5+
55.0179	10	C3H3O+
63.0229	1	C5H3+
64.0307	1	C5H4+
65.0386	1	C5H5+
77.0385	378	C6H5+
79.0542	228	C6H7+
81.0335	15	C5H5O+
91.0542	11	C7H7+
92.0257	157	C6H4O+
94.0414	8	C6H6O+
95.0492	452	C6H7O+
105.0336	187	C7H5O+
105.0448	314	C6H5N2+
106.0418	1	C7H6O+
107.0492	36	C7H7O+
109.0649	3	C7H9O+
120.0206	62	C7H4O2+
133.0285	694	C8H5O2+
135.0441	818	C8H7O2+
138.0312	19	C7H6O3+
163.039	999	C9H7O3+
