Mass spectrum: Trinexapac-ethyl; LC-ESI-ITFT; MS2; CE: 90%; R=7500; [M+H]+
Name: Trinexapac-ethyl
Name: 4-[cyclopropyl(hydroxy)methylene]-3,5-diketo-cyclohexanecarboxylic acid ethyl ester
Formula: C13H16O5
Exact mass: 252.0992
SMILES: CCOC(=O)C1CC(=O)C(=C(C2CC2)O)C(=O)C1
InChI: InChI=1S/C13H16O5/c1-2-18-13(17)8-5-9(14)11(10(15)6-8)12(16)7-3-4-7/h7-8,16H,2-6H2,1H3/b12-11-
Instrument: LTQ Orbitrap XL Thermo Scientific
Instrument type: LC-ESI-ITFT
Ms type: MS2
Ion mode: POSITIVE
Ionization: ESI
Fragmentation mode: HCD
Collision energy: 90 % (nominal)
Resolution: 7500
Column name: XBridge C18 3.5um, 2.1x50mm, Waters
Retention time: 8.9 min
Base peak: 253.1073
Precursor m/z: 253.1071
Precursor type: [M+H]+
m/z	relative intensity	assigned
65.0386	31	C5H5+
68.997	542	C3HO2+
69.0334	999	C4H5O+
71.0126	37	C3H3O2+
79.0541	18	C6H7+
81.0334	78	C5H5O+
83.0491	37	C5H7O+
85.0284	145	C4H5O2+
91.0544	19	C7H7+
93.0332	23	C6H5O+
95.0126	95	C5H3O2+
97.028	21	C5H5O2+
99.0075	82	C4H3O3+
105.0699	26	C8H9+
109.0285	53	C6H5O2+
111.0439	201	C6H7O2+
121.0397	28	C6H5N2O+
123.0075	107	C6H3O3+
123.0441	21	C7H7O2+
137.0234	122	C7H5O3+
139.0392	39	C7H7O3+
155.0341	22	C7H7O4+
