Mass spectrum: Hydrocortisone; LC-ESI-QFT; MS2; CE: 75; R=35000; [M+H]+
Name: (8S,9S,10R,11S,13S,14S,17R)-11,17-dihydroxy-17-(2-hydroxyacetyl)-10,13-dimethyl-2,6,7,8,9,11,12,14,15,16-decahydro-1H-cyclopenta[a]phenanthren-3-one
Name: Cortisol
Name: Hydrocortisone
Formula: C21H30O5
Exact mass: 362.20932
SMILES: C[C@]12CCC(=O)C=C1CC[C@@H]3[C@@H]2[C@H](C[C@]4([C@H]3CC[C@@]4(C(=O)CO)O)C)O
InChI: InChI=1S/C21H30O5/c1-19-7-5-13(23)9-12(19)3-4-14-15-6-8-21(26,17(25)11-22)20(15,2)10-16(24)18(14)19/h9,14-16,18,22,24,26H,3-8,10-11H2,1-2H3/t14-,15-,16-,18+,19-,20-,21-/m0/s1
Instrument: Q Exactive Plus Orbitrap Thermo Scientific
Instrument type: LC-ESI-QFT
Ms type: MS2
Ion mode: POSITIVE
Ionization: ESI
Fragmentation mode: HCD
Collision energy: 75 (nominal)
Resolution: 35000
Column name: XBridge C18 3.5um, 2.1x50mm, Waters
Retention time: 7.7 min
Base peak: 363.2164
Precursor m/z: 363.2166
Precursor type: [M+H]+
m/z	relative intensity	assigned
50.0151	5	C4H2+
51.0228	5	C4H3+
53.0022	8	C3HO+
53.0386	53	C4H5+
55.0179	84	C3H3O+
55.0543	101	C4H7+
57.0335	17	C3H5O+
57.0698	2	C4H9+
59.0492	2	C3H7O+
61.0285	2	C2H5O2+
63.0227	2	C5H3+
65.0386	31	C5H5+
66.0464	2	C5H6+
67.0542	215	C5H7+
69.0335	46	C4H5O+
69.0699	69	C5H9+
71.0491	22	C4H7O+
75.044	3	C3H7O2+
77.0385	51	C6H5+
78.0464	5	C6H6+
79.0542	385	C6H7+
80.0618	1	C6H8+
81.0336	16	C5H5O+
81.0699	250	C6H9+
83.0491	141	C5H7O+
85.0285	2	C4H5O2+
85.0648	1	C5H9O+
91.0543	682	C7H7+
92.0621	3	C7H8+
93.0699	357	C7H9+
94.0415	5	C6H6O+
95.0492	156	C6H7O+
95.0856	141	C7H11+
97.0649	456	C6H9O+
99.044	30	C5H7O2+
103.0542	75	C8H7+
104.0621	6	C8H8+
105.0448	66	C6H5N2+
105.0699	752	C8H9+
106.0777	5	C8H10+
107.0492	69	C7H7O+
107.0855	148	C8H11+
108.057	6	C7H8O+
109.0649	282	C7H9O+
109.1013	17	C8H13+
110.0727	1	C7H10O+
111.0441	9	C6H7O2+
111.0804	12	C7H11O+
113.0595	3	C6H9O2+
115.0543	109	C9H7+
116.0621	40	C9H8+
117.0699	295	C9H9+
118.0779	9	C9H10+
119.0856	369	C9H11+
120.0571	1	C8H8O+
121.0648	999	C8H9O+
123.0804	220	C8H11O+
125.0598	6	C7H9O2+
127.0544	2	C10H7+
128.0621	222	C10H8+
129.0699	282	C10H9+
130.0778	89	C10H10+
131.0856	334	C10H11+
132.057	9	C9H8O+
132.0934	9	C10H12+
133.0649	54	C9H9O+
133.1012	102	C10H13+
134.0727	7	C9H10O+
135.0804	61	C9H11O+
135.1168	15	C10H15+
137.0597	7	C8H9O2+
137.0962	10	C9H13O+
141.0699	176	C11H9+
142.0778	163	C11H10+
143.0856	269	C11H11+
144.057	11	C10H8O+
144.0934	58	C11H12+
145.0649	60	C10H9O+
145.1012	238	C11H13+
146.0726	23	C10H10O+
146.109	16	C11H14+
147.0805	74	C10H11O+
147.1169	135	C11H15+
148.0883	35	C10H12O+
149.0962	27	C10H13O+
149.1327	2	C11H17+
152.0621	14	C12H8+
153.0699	70	C12H9+
154.0777	90	C12H10+
155.0605	23	C10H7N2+
155.0856	168	C12H11+
156.0935	60	C12H12+
157.0648	19	C11H9O+
157.1012	152	C12H13+
158.0726	32	C11H10O+
158.1093	10	C12H14+
159.0805	71	C11H11O+
159.1169	79	C12H15+
160.0883	11	C11H12O+
160.1245	1	C12H16+
161.0961	49	C11H13O+
161.1326	7	C12H17+
162.1042	2	C11H14O+
163.1118	72	C11H15O+
165.0699	80	C13H9+
166.0777	43	C13H10+
167.0856	101	C13H11+
168.0934	65	C13H12+
169.0649	8	C12H9O+
169.1012	137	C13H13+
170.0727	7	C12H10O+
170.109	22	C13H14+
171.0804	31	C12H11O+
171.1169	68	C13H15+
172.0883	7	C12H12O+
172.1247	23	C13H16+
173.0962	40	C12H13O+
173.1326	21	C13H17+
174.104	20	C12H14O+
175.1119	25	C12H15O+
176.1197	4	C12H16O+
177.0699	1	C14H9+
177.0911	1	C11H13O2+
177.1266	1	C12H17O+
178.0778	36	C14H10+
179.0856	79	C14H11+
180.0933	46	C14H12+
181.0651	7	C13H9O+
181.1012	89	C14H13+
182.0726	4	C13H10O+
182.109	33	C14H14+
183.0805	14	C13H11O+
183.1169	80	C14H15+
184.0885	14	C13H12O+
184.1245	10	C14H16+
185.0962	28	C13H13O+
185.1325	40	C14H17+
186.1037	2	C13H14O+
186.1403	1	C14H18+
187.1118	16	C13H15O+
187.1481	2	C14H19+
188.1192	1	C13H16O+
189.0692	2	C15H9+
189.0905	1	C12H13O2+
189.1274	12	C13H17O+
191.0854	23	C15H11+
192.0933	42	C15H12+
193.1012	63	C15H13+
194.0729	3	C14H10O+
194.109	31	C15H14+
195.0805	5	C14H11O+
195.1169	58	C15H15+
196.0885	6	C14H12O+
196.1247	14	C15H16+
197.0962	31	C14H13O+
197.1325	44	C15H17+
198.1046	11	C14H14O+
198.1404	3	C15H18+
199.1118	21	C14H15O+
199.1482	13	C15H19+
200.1194	10	C14H16O+
201.1276	8	C14H17O+
202.0779	5	C16H10+
203.0853	13	C16H11+
204.0937	6	C16H12+
205.1013	25	C16H13+
206.1091	19	C16H14+
207.0803	2	C15H11O+
207.1169	39	C16H15+
208.0885	6	C15H12O+
208.1245	16	C16H16+
209.0961	13	C15H13O+
209.1326	34	C16H17+
210.1043	7	C15H14O+
210.1403	8	C16H18+
211.1118	27	C15H15O+
211.1483	17	C16H19+
212.1198	5	C15H16O+
212.156	2	C16H20+
213.1272	22	C15H17O+
213.1646	2	C16H21+
214.1356	6	C15H18O+
215.0857	3	C17H11+
215.143	5	C15H19O+
216.0928	4	C17H12+
217.1014	10	C17H13+
218.1094	6	C17H14+
219.1172	17	C17H15+
220.1249	7	C17H16+
221.0961	5	C16H13O+
221.1323	15	C17H17+
222.1044	2	C16H14O+
222.1406	2	C17H18+
223.1122	11	C16H15O+
223.1484	10	C17H19+
224.1199	7	C16H16O+
225.1276	15	C16H17O+
225.1641	9	C17H21+
226.1352	18	C16H18O+
227.1431	17	C16H19O+
228.1511	15	C16H20O+
229.101	2	C18H13+
230.1097	1	C18H14+
231.117	5	C18H15+
232.1248	2	C18H16+
233.0955	1	C17H13O+
233.1328	8	C18H17+
234.1404	2	C18H18+
235.1121	3	C17H15O+
235.1487	13	C18H19+
236.1198	2	C17H16O+
237.1274	8	C17H17O+
237.1636	1	C18H21+
238.1353	7	C17H18O+
239.1432	15	C17H19O+
240.1508	1	C17H20O+
241.1587	7	C17H21O+
242.1665	2	C17H22O+
243.1173	4	C19H15+
248.1198	1	C18H16O+
250.1353	2	C18H18O+
251.1434	10	C18H19O+
251.1793	2	C19H23+
252.1508	5	C18H20O+
253.1588	50	C18H21O+
255.1376	1	C17H19O2+
261.1273	5	C19H17O+
263.1429	2	C19H19O+
265.1589	2	C19H21O+
267.1382	1	C18H19O2+
267.175	2	C19H23O+
271.1694	1	C18H23O2+
281.1541	2	C19H21O2+
