Mass spectrum: Coumatetralyl; LC-ESI-QFT; MS2; CE: 75%; R=17500; [M+H]+
Name: Coumatetralyl
Name: 4-hydroxy-3-(1,2,3,4-tetrahydronaphthalen-1-yl)chromen-2-one
Formula: C19H16O3
Exact mass: 292.1099
SMILES: C1CC(C2=CC=CC=C2C1)C3=C(C4=CC=CC=C4OC3=O)O
InChI: InChI=1S/C19H16O3/c20-18-15-9-3-4-11-16(15)22-19(21)17(18)14-10-5-7-12-6-1-2-8-13(12)14/h1-4,6,8-9,11,14,20H,5,7,10H2
Instrument: Exploris 240 Orbitrap Thermo Scientific
Instrument type: LC-ESI-QFT
Ms type: MS2
Ion mode: POSITIVE
Ionization: ESI
Fragmentation mode: HCD
Collision energy: 75 % (nominal)
Resolution: 17500
Column name: XBridge C18 3.5um, 2.1x50mm, Waters
Retention time: 10.203 min
Base peak: 293.1169
Precursor m/z: 293.1172
Precursor type: [M+H]+
m/z	relative intensity	assigned
65.0386	18	C5H5+
69.0335	11	C4H5O+
77.0386	49	C6H5+
79.0543	226	C6H7+
91.0543	999	C7H7+
95.0131	7	C5H3O2+
95.0492	91	C6H7O+
103.0545	36	C8H7+
105.0698	67	C8H9+
107.0492	694	C7H7O+
115.0543	9	C9H7+
116.062	14	C9H8+
121.0284	268	C7H5O2+
128.0623	22	C10H8+
129.0698	20	C10H9+
131.0856	81	C10H11+
147.0441	12	C9H7O2+
163.0394	31	C9H7O3+
175.0391	712	C10H7O3+
189.0538	26	C11H9O3+
