Mass spectrum: Azinphos-ethyl; LC-ESI-QFT; MS2; CE: 60; R=35000; [M+H]+
Name: Azinphos-ethyl
Name: Azinphos ethyl
Name: 3-(diethoxyphosphinothioylsulfanylmethyl)-1,2,3-benzotriazin-4-one
Formula: C12H16N3O3PS2
Exact mass: 345.03707
SMILES: CCOP(=S)(OCC)SCN1C(=O)C2=CC=CC=C2N=N1
InChI: InChI=1S/C12H16N3O3PS2/c1-3-17-19(20,18-4-2)21-9-15-12(16)10-7-5-6-8-11(10)13-14-15/h5-8H,3-4,9H2,1-2H3
Instrument: Q Exactive Plus Orbitrap Thermo Scientific
Instrument type: LC-ESI-QFT
Ms type: MS2
Ion mode: POSITIVE
Ionization: ESI
Fragmentation mode: HCD
Collision energy: 60 (nominal)
Resolution: 35000
Column name: XBridge C18 3.5um, 2.1x50mm, Waters
Retention time: 11.4 min
Base peak: 346.0438
Precursor m/z: 346.0443
Precursor type: [M+H]+
m/z	relative intensity	assigned
50.0152	9	C4H2+
51.023	33	C4H3+
53.0386	90	C4H5+
55.0179	5	C3H3O+
64.9787	19	H2O2P+
65.0386	3	C5H5+
67.0542	1	C5H7+
77.0386	115	C6H5+
78.0339	5	C5H4N+
78.9403	2	OPS+
80.9736	1	H2O3P+
81.0335	12	C5H5O+
94.0414	4	C6H6O+
95.0492	333	C6H7O+
96.0445	4	C5H6NO+
96.9509	128	H2O2PS+
98.9843	13	H4O4P+
102.0338	7	C7H4N+
103.0544	4	C8H7+
104.0495	180	C7H6N+
105.0336	202	C7H5O+
105.0448	187	C6H5N2+
108.0028	1	C6H4S+
109.0108	151	C6H5S+
110.9664	1	CH4O2PS+
114.9614	999	H4O3PS+
120.0446	11	C3H9N2OP+
121.0105	2	C7H5S+
121.0285	4	C7H5O2+
121.0651	1	C4H12NOP+
123.0263	4	C7H7S+
124.9822	4	C2H6O2PS+
126.9437	5	CH4OPS2+
128.9769	10	CH6O3PS+
130.0402	59	C7H4N3+
131.0494	6	C5H10NOP+
132.0445	93	C8H6NO+
132.972	5	H6O4PS+
135.998	15	C3H7NOPS+
136.0217	10	C3H9N2PS+
137.0057	518	C3H8NOPS+
142.9386	109	CH4O2PS2+
148.0217	11	C4H9N2PS+
152.9829	17	C3H8NPS2+
153.0006	39	C7H5O2S+
154.9716	15	C6H4OPS+
166.0324	1	C4H11N2OPS+
167.97	6	C3H7NOPS2+
168.9777	6	C7H5OS2+
170.9487	17	C6H4PS2+
172.9825	12	C6H6O2PS+
214.9386	4	C7H4O2PS2+
216.9721	1	C4H3N5O2S2+
