Mass spectrum: Dimethachlor ESA; LC-ESI-ITFT; MS2; CE: 45%; R=7500; [M+H]+
Name: Dimethachlor ESA
Name: 2-[(2,6-dimethylphenyl)(2-methoxyethyl)amino]-2-oxoethanesulfonic acid
Formula: C13H19NO5S
Exact mass: 301.0984
SMILES: CC1=C(N(C(CS(O)(=O)=O)=O)CCOC)C(C)=CC=C1
InChI: InChI=1S/C13H19NO5S/c1-10-5-4-6-11(2)13(10)14(7-8-19-3)12(15)9-20(16,17)18/h4-6H,7-9H2,1-3H3,(H,16,17,18)
Instrument: LTQ Orbitrap XL Thermo Scientific
Instrument type: LC-ESI-ITFT
Ms type: MS2
Ion mode: POSITIVE
Ionization: ESI
Fragmentation mode: HCD
Collision energy: 45 % (nominal)
Resolution: 7500
Column name: XBridge C18 3.5um, 2.1x50mm, Waters
Retention time: 5.9 min
Base peak: 302.1064
Precursor m/z: 302.1057
Precursor type: [M+H]+
m/z	relative intensity	assigned
68.0495	15	C4H6N+
130.0776	2	C10H10+
131.0729	1	C9H9N+
131.0859	1	C10H11+
132.0808	200	C9H10N+
145.0886	7	C10H11N+
146.0965	39	C10H12N+
147.1044	489	C10H13N+
148.1121	84	C10H14N+
159.1042	13	C11H13N+
160.1119	4	C11H14N+
174.0916	527	C11H12NO+
188.1071	2	C12H14NO+
189.1149	77	C12H15NO+
190.1227	10	C12H16NO+
204.1021	7	C12H14NO2+
206.1176	42	C12H16NO2+
252.0692	16	C12H14NO3S+
270.0797	999	C12H16NO4S+
