Mass spectrum: Penciclovir; LC-ESI-QFT; MS2; CE: 75; R=35000; [M-H]-
Name: Penciclovir
Name: 2-amino-9-[4-hydroxy-3-(hydroxymethyl)butyl]-3H-purin-6-one
Formula: C10H15N5O3
Exact mass: 253.11749
SMILES: C1=NC2=C(N1CCC(CO)CO)N=C(NC2=O)N
InChI: InChI=1S/C10H15N5O3/c11-10-13-8-7(9(18)14-10)12-5-15(8)2-1-6(3-16)4-17/h5-6,16-17H,1-4H2,(H3,11,13,14,18)
Instrument: Q Exactive Orbitrap Thermo Scientific
Instrument type: LC-ESI-QFT
Ms type: MS2
Ion mode: NEGATIVE
Ionization: ESI
Fragmentation mode: HCD
Collision energy: 75 (nominal)
Resolution: 35000
Column name: XBridge C18 3.5um, 2.1x50mm, Waters
Retention time: 1.1 min
Base peak: 252.1103
Precursor m/z: 252.1102
Precursor type: [M-H]-
m/z	relative intensity	assigned
64.0067	7	C3N2-
65.0145	81	C3HN2-
65.9985	27	C3NO-
66.0097	114	C2N3-
67.0301	7	C3H3N2-
68.0255	1	C2H2N3-
69.0095	1	C2HN2O-
71.0251	3	C2H3N2O-
78.0098	30	C3N3-
79.0176	10	C3HN3-
80.0254	6	C3H2N3-
81.0095	3	C3HN2O-
82.0173	5	C3H2N2O-
82.0411	48	C3H4N3-
90.0098	17	C4N3-
92.0254	1	C4H2N3-
96.0204	1	C3H2N3O-
96.0455	1	C5H6NO-
105.0207	7	C4HN4-
106.0285	267	C4H2N4-
107.0126	41	C4HN3O-
107.0364	148	C4H3N4-
108.0204	356	C4H2N3O-
110.036	3	C4H4N3O-
119.0363	7	C5H3N4-
119.0618	2	C7H7N2-
121.0156	4	C4HN4O-
125.0469	30	C4H5N4O-
126.0309	203	C4H4N3O2-
131.0241	1	C5HN5-
132.0315	4	C5H2N5-
133.0156	999	C5HN4O-
149.0342	65	C5H3N5O-
150.042	253	C5H4N5O-
151.0259	12	C5H3N4O2-
162.0422	11	C6H4N5O-
210.0883	4	C9H12N3O3-
