Mass spectrum: 1H-Benzotriazole-5-carboxylic acid; LC-ESI-QFT; MS2; CE: 150; R=35000; [M-H]-
Name: 1H-Benzotriazole-5-carboxylic acid
Name: 1H-benzotriazole-5-carboxylic acid
Name: 2H-benzotriazole-5-carboxylic acid
Formula: C7H5N3O2
Exact mass: 163.03818
SMILES: c1cc2c(cc1C(=O)O)nn[nH]2
InChI: InChI=1S/C7H5N3O2/c11-7(12)4-1-2-5-6(3-4)9-10-8-5/h1-3H,(H,11,12)(H,8,9,10)
Instrument: Q Exactive Plus Orbitrap Thermo Scientific
Instrument type: LC-ESI-QFT
Ms type: MS2
Ion mode: NEGATIVE
Ionization: ESI
Fragmentation mode: HCD
Collision energy: 150 (nominal)
Resolution: 35000
Column name: XBridge C18 3.5um, 2.1x50mm, Waters
Retention time: 3.8 min
Base peak: 162.0307
Precursor m/z: 162.0309
Precursor type: [M-H]-
m/z	relative intensity	assigned
50.0036	999	C3N-
61.0084	2	C5H-
62.0037	1	C4N-
63.0241	3	C5H3-
64.0193	84	C4H2N-
65.0034	6	C4HO-
65.0146	2	C3HN2-
65.9986	3	C3NO-
88.0193	11	C6H2N-
89.0034	2	C6HO-
90.0349	207	C6H4N-
91.0303	1	C5H3N2-
118.0412	58	C6H4N3-
