Mass spectrum: Linoleic acid; LC-ESI-QFT; MS2; CE: 45; R=35000; [M-H]-
Name: Linoleic acid
Name: (9Z,12Z)-octadeca-9,12-dienoic acid
Formula: C18H32O2
Exact mass: 280.24023
SMILES: CCCCC/C=C\C/C=C\CCCCCCCC(=O)O
InChI: InChI=1S/C18H32O2/c1-2-3-4-5-6-7-8-9-10-11-12-13-14-15-16-17-18(19)20/h6-7,9-10H,2-5,8,11-17H2,1H3,(H,19,20)/b7-6-,10-9-
Instrument: Q Exactive Orbitrap Thermo Scientific
Instrument type: LC-ESI-QFT
Ms type: MS2
Ion mode: NEGATIVE
Ionization: ESI
Fragmentation mode: HCD
Collision energy: 45 (nominal)
Resolution: 35000
Column name: XBridge C18 3.5um, 2.1x50mm, Waters
Retention time: 19.4 min
Base peak: 279.2332
Precursor m/z: 279.233
Precursor type: [M-H]-
m/z	relative intensity	assigned
59.0139	26	C2H3O2-
71.0139	5	C3H3O2-
83.0503	3	C5H7O-
97.066	4	C6H9O-
261.2224	26	C18H29O-
279.233	999	C18H31O2-
