Mass spectrum: Triphenylphosphine oxide; LC-ESI-QFT; MS2; CE: 75; R=35000; [M+H]+
Name: Triphenylphosphine oxide
Name: Triphenylphosphineoxide
Name: (diphenylphosphoroso)benzene
Formula: C18H15OP
Exact mass: 278.08605
SMILES: C1=CC=C(C=C1)P(=O)(C2=CC=CC=C2)C3=CC=CC=C3
InChI: InChI=1S/C18H15OP/c19-20(16-10-4-1-5-11-16,17-12-6-2-7-13-17)18-14-8-3-9-15-18/h1-15H
Instrument: Q Exactive Plus Orbitrap Thermo Scientific
Instrument type: LC-ESI-QFT
Ms type: MS2
Ion mode: POSITIVE
Ionization: ESI
Fragmentation mode: HCD
Collision energy: 75 (nominal)
Resolution: 35000
Column name: XBridge C18 3.5um, 2.1x50mm, Waters
Retention time: 9.4 min
Base peak: 391.2839
Precursor m/z: 279.0933
Precursor type: [M+H]+
m/z	relative intensity	assigned
50.015	1	C4H2+
51.0228	2	C4H3+
53.0022	9	C3HO+
53.0386	13	C4H5+
53.9975	1	C2NO+
55.0178	5	C3H3O+
55.0543	3	C4H7+
57.0699	158	C4H9+
59.0491	13	C3H7O+
62.9996	4	CH4OP+
65.0386	370	C5H5+
67.0542	3	C5H7+
69.0335	1	C4H5O+
69.0698	1	C5H9+
71.0127	1	C3H3O2+
71.0855	1	C5H11+
74.0963	1	C4H12N+
76.0306	1	C6H4+
77.0385	5	C6H5+
79.0178	1	C5H3O+
79.0542	9	C6H7+
80.0257	1	C5H4O+
81.0698	1	C6H9+
87.044	6	C4H7O2+
91.0542	6	C7H7+
93.0335	135	C6H5O+
95.0045	18	C5H4P+
95.0491	32	C6H7O+
98.0362	13	C5H6O2+
105.0336	1	C7H5O+
105.0447	23	C6H5N2+
105.0699	3	C8H9+
108.0206	1	C6H4O2+
109.0649	1	C7H9O+
111.0441	102	C6H7O2+
113.0153	1	C5H6OP+
121.0284	999	C7H5O2+
121.0396	361	C6H5N2O+
122.0367	1	C3H9NO2P+
122.9993	1	C6H4OP+
125.0151	1	C6H6OP+
128.062	10	C10H8+
129.0699	10	C10H9+
133.0202	5	C8H6P+
141.01	9	C6H6O2P+
141.0701	1	C11H9+
153.0696	1	C12H9+
154.0776	10	C12H10+
171.0358	22	C11H8P+
173.0515	59	C11H10P+
183.0357	16	C12H8P+
201.0461	15	C12H10OP+
219.0571	149	C12H12O2P+
233.0722	3	C13H14O2P+
