Mass spectrum: Nuarimol; LC-ESI-QFT; MS2; CE: 30%; R=17500; [M+H]+
Name: Nuarimol
Name: (2-chlorophenyl)-(4-fluorophenyl)-pyrimidin-5-ylmethanol
Formula: C17H12ClFN2O
Exact mass: 314.0622
SMILES: C1=CC=C(C(=C1)C(C2=CC=C(C=C2)F)(C3=CN=CN=C3)O)Cl
InChI: InChI=1S/C17H12ClFN2O/c18-16-4-2-1-3-15(16)17(22,13-9-20-11-21-10-13)12-5-7-14(19)8-6-12/h1-11,22H
Instrument: Exploris 240 Orbitrap Thermo Scientific
Instrument type: LC-ESI-QFT
Ms type: MS2
Ion mode: POSITIVE
Ionization: ESI
Fragmentation mode: HCD
Collision energy: 30 % (nominal)
Resolution: 17500
Column name: XBridge C18 3.5um, 2.1x50mm, Waters
Retention time: 8.405 min
Base peak: 315.0692
Precursor m/z: 315.0695
Precursor type: [M+H]+
m/z	relative intensity	assigned
81.0447	40	C4H5N2+
138.9948	3	C7H4ClO+
183.0551	3	C11H7N2O+
235.0324	6	C13H9ClFO+
236.0633	16	C16H9FO+
243.037	32	C15H9ClF+
252.0818	110	C16H11FNO+
270.0485	3	C16H10ClFN+
271.0327	10	C16H9ClFO+
279.0932	6	C17H12FN2O+
288.0585	74	C16H12ClFNO+
297.0598	5	C17H11ClFN2+
315.0694	999	C17H13ClFN2O+
