Mass spectrum: Valsartan; LC-ESI-ITFT; MS2; CE: 45%; R=7500; [M+H]+
Name: Valsartan
Name: (2S)-3-methyl-2-[1-oxopentyl-[[4-[2-(2H-tetrazol-5-yl)phenyl]phenyl]methyl]amino]butanoic acid
Formula: C24H29N5O3
Exact mass: 435.2270
SMILES: CCCCC(=O)N(CC1=CC=C(C=C1)C2=C(C=CC=C2)C3=NN=NN3)[C@@H](C(C)C)C(O)=O
InChI: InChI=1S/C24H29N5O3/c1-4-5-10-21(30)29(22(16(2)3)24(31)32)15-17-11-13-18(14-12-17)19-8-6-7-9-20(19)23-25-27-28-26-23/h6-9,11-14,16,22H,4-5,10,15H2,1-3H3,(H,31,32)(H,25,26,27,28)/t22-/m0/s1
Instrument: LTQ Orbitrap XL Thermo Scientific
Instrument type: LC-ESI-ITFT
Ms type: MS2
Ion mode: POSITIVE
Ionization: ESI
Fragmentation mode: HCD
Collision energy: 45 % (nominal)
Resolution: 7500
Column name: XBridge C18 3.5um, 2.1x50mm, Waters
Retention time: 11.2 min
Base peak: 436.2337
Precursor m/z: 436.2343
Precursor type: [M+H]+
m/z	relative intensity	assigned
79.0544	1	C6H7+
80.0495	2	C5H6N+
84.081	4	C5H10N+
98.06	2	C5H8NO+
115.0538	4	C9H7+
129.0451	2	C8H5N2+
140.0495	10	C10H6N+
153.0699	33	C12H9+
163.0545	3	C13H7+
165.0699	4	C13H9+
166.0648	2	C12H8N+
167.0728	8	C12H9N+
178.0777	60	C14H10+
179.0855	17	C14H11+
180.0808	237	C13H10N+
190.0651	169	C14H8N+
191.0729	18	C14H9N+
193.0894	8	C14H11N+
194.0964	47	C14H12N+
196.0759	4	C13H10NO+
205.0763	17	C14H9N2+
206.0839	111	C14H10N2+
207.0917	999	C14H11N2+
208.0755	80	C14H10NO+
209.1071	33	C14H13N2+
210.0913	42	C14H12NO+
235.0977	163	C14H11N4+
273.139	1	C19H17N2+
290.14	1	C17H16N5+
291.1493	162	C19H19N2O+
