Mass spectrum: Anabaenopeptin A; LC-ESI-QFT; MS2; CE: 45%; R=17500; [M+H]+
Name: Anabaenopeptin A
Name: 2-[[3-benzyl-9-[2-(4-hydroxyphenyl)ethyl]-6,7-dimethyl-2,5,8,11,14-pentaoxo-12-propan-2-yl-1,4,7,10,13-pentazacyclononadec-15-yl]carbamoylamino]-3-(4-hydroxyphenyl)propanoic acid
Formula: C44H57N7O10
Exact mass: 843.4167
SMILES: CC1C(=O)NC(C(=O)NCCCCC(C(=O)NC(C(=O)NC(C(=O)N1C)CCC2=CC=C(C=C2)O)C(C)C)NC(=O)NC(CC3=CC=C(C=C3)O)C(=O)O)CC4=CC=CC=C4
InChI: InChI=1S/C44H57N7O10/c1-26(2)37-41(57)46-34(22-17-28-13-18-31(52)19-14-28)42(58)51(4)27(3)38(54)47-35(24-29-10-6-5-7-11-29)39(55)45-23-9-8-12-33(40(56)50-37)48-44(61)49-36(43(59)60)25-30-15-20-32(53)21-16-30/h5-7,10-11,13-16,18-21,26-27,33-37,52-53H,8-9,12,17,22-25H2,1-4H3,(H,45,55)(H,46,57)(H,47,54)(H,50,56)(H,59,60)(H2,48,49,61)
Instrument: Q Exactive Plus Orbitrap Thermo Scientific
Instrument type: LC-ESI-QFT
Ms type: MS2
Ion mode: POSITIVE
Ionization: ESI
Fragmentation mode: HCD
Collision energy: 45 % (nominal)
Resolution: 17500
Column name: XBridge C18 3.5um, 2.1x50mm, Waters
Retention time: 7.249 min
Base peak: 164.9844
Precursor m/z: 844.424
Precursor type: [M+H]+
m/z	relative intensity	assigned
70.0651	3	C4H8N+
72.0807	41	C4H10N+
84.0807	999	C5H10N+
86.06	230	C4H8NO+
91.0543	3	C7H7+
98.0962	2	C6H12N+
101.1073	3	C5H13N2+
103.0543	2	C8H7+
105.0699	5	C8H9+
107.0491	73	C7H7O+
112.0756	7	C6H10NO+
112.112	14	C7H14N+
114.0549	155	C5H8NO2+
117.1019	2	C5H13N2O+
120.0807	204	C8H10N+
121.0647	5	C8H9O+
123.044	3	C7H7O2+
127.0865	6	C6H11N2O+
129.1021	82	C6H13N2O+
130.0863	7	C6H12NO2+
133.0649	8	C9H9O+
136.0754	48	C8H10NO+
138.1281	2	C9H16N+
139.0864	5	C7H11N2O+
140.0705	10	C7H10NO2+
146.0599	4	C9H8NO+
146.0961	16	C10H12N+
147.1126	7	C6H15N2O2+
148.0749	3	C7H8N4+
150.091	75	C9H12NO+
155.0814	19	C7H11N2O2+
162.0549	3	C9H8NO2+
165.0545	14	C9H9O3+
168.1021	3	C9H14NO2+
169.1332	12	C9H17N2O+
173.092	35	C7H13N2O3+
174.1277	34	C12H16N+
176.1069	20	C11H14NO+
181.0971	4	C9H13N2O2+
182.081	10	C9H12NO3+
183.1489	14	C10H19N2O+
186.1279	3	C13H16N+
190.1228	29	C12H16NO+
204.1389	5	C13H18NO+
205.1339	67	C12H17N2O+
209.1292	14	C11H17N2O2+
210.1604	5	C11H20N3O+
226.1555	114	C11H20N3O2+
228.1718	3	C13H24O3+
231.1499	50	H21N7O7+
233.1288	22	C13H17N2O2+
236.1394	10	C12H18N3O2+
238.1238	17	C2H18N6O7+
243.114	4	C2H19N4O9+
249.123	2	C13H17N2O3+
249.1606	27	H23N7O8+
252.1398	10	C5H22N3O8+
252.1718	30	C15H24O3+
257.1291	10	CH19N7O8+
257.1657	5	C2H23N7O7+
258.1437	14	C9H18N6O3+
261.16	2	CH23N7O8+
263.14	5	H21N7O9+
265.1562	5	C2H25N4O10+
268.135	6	C5H22N3O9+
272.1623	10	C14H24O5+
274.157	19	C3H24N5O9+
277.1562	2	C3H25N4O10+
280.1671	2	C16H24O4+
284.1406	4	C18H20O3+
285.1981	3	C6H29N4O8+
290.1516	7	C3H24N5O10+
292.1336	2	C5H20N6O8+
294.1832	8	C3H28N5O10+
297.1939	27	C2H29N6O10+
308.1644	4	C20H22NO2+
311.21	13	C3H31N6O10+
318.1475	10	C19H18N4O+
320.1632	108	C19H20N4O+
328.2047	24	C9H32N2O10+
336.1582	5	C19H20N4O2+
347.2478	15	C24H31N2+
356.2009	3	C25H26NO+
358.2168	7	C11H30N6O7+
370.2176	5	C12H30N6O7+
373.2277	48	C25H29N2O+
374.2117	3	C11H30N6O8+
387.2443	7	C14H35N4O8+
389.222	3	C25H29N2O2+
399.2472	9	C18H33N5O5+
403.2401	15	C14H35N4O9+
405.2176	14	C11H31N7O9+
412.2279	12	C14H32N6O8+
444.2658	4	C30H36O3+
455.2373	5	C20H33N5O7+
