Mass spectrum: Clindamycin; LC-ESI-ITFT; MS2; CE: 35%; R=30000; [M+H]+
Name: Clindamycin
Name: (2S,4R)-N-[2-chloranyl-1-[(2R,3R,4S,5R,6R)-6-methylsulfanyl-3,4,5-tris(oxidanyl)oxan-2-yl]propyl]-1-methyl-4-propyl-pyrrolidine-2-carboxamide
Formula: C18H33ClN2O5S
Exact mass: 424.1799
SMILES: CCC[C@@H]1C[C@H](N(C1)C)C(=O)NC([C@@H]2[C@@H]([C@@H]([C@H]([C@H](O2)SC)O)O)O)C(C)Cl
InChI: InChI=1S/C18H33ClN2O5S/c1-5-6-10-7-11(21(3)8-10)17(25)20-12(9(2)19)16-14(23)13(22)15(24)18(26-16)27-4/h9-16,18,22-24H,5-8H2,1-4H3,(H,20,25)/t9?,10-,11+,12?,13+,14-,15-,16-,18-/m1/s1
Instrument: LTQ Orbitrap XL Thermo Scientific
Instrument type: LC-ESI-ITFT
Ms type: MS2
Ion mode: POSITIVE
Ionization: ESI
Fragmentation mode: CID
Collision energy: 35 % (nominal)
Resolution: 30000
Column name: XBridge C18 3.5um, 2.1x50mm, Waters
Retention time: 6.7 min
Base peak: 425.1886
Precursor m/z: 425.1871
Precursor type: [M+H]+
m/z	relative intensity	assigned
126.1277	298	C8H16N+
172.1331	15	C9H18NO2+
299.1964	21	C15H27N2O4+
305.1625	15	C14H26ClN2O3+
323.1968	5	C17H27N2O4+
335.173	102	C18H25NO5+
341.2069	55	C17H29N2O5+
353.1053	1	C14H24ClNO5S+
353.1889	6	C18H29N2O3S+
371.1996	30	C18H31N2O4S+
377.1841	999	C17H30ClN2O5+
389.2102	238	C18H33N2O5S+
407.1762	228	C18H32ClN2O4S+
