Mass spectrum: Niflumic acid; LC-ESI-QFT; MS2; CE: 90; R=35000; [M-H]-
Name: Niflumic acid
Name: 2-[3-(trifluoromethyl)anilino]pyridine-3-carboxylic acid
Formula: C13H9F3N2O2
Exact mass: 282.06161
SMILES: C1=CC(=CC(=C1)NC2=C(C=CC=N2)C(=O)O)C(F)(F)F
InChI: InChI=1S/C13H9F3N2O2/c14-13(15,16)8-3-1-4-9(7-8)18-11-10(12(19)20)5-2-6-17-11/h1-7H,(H,17,18)(H,19,20)
Instrument: Q Exactive Plus Orbitrap Thermo Scientific
Instrument type: LC-ESI-QFT
Ms type: MS2
Ion mode: NEGATIVE
Ionization: ESI
Fragmentation mode: HCD
Collision energy: 90 (nominal)
Resolution: 35000
Column name: XBridge C18 3.5um, 2.1x50mm, Waters
Retention time: 12.9 min
Base peak: 281.0538
Precursor m/z: 281.0543
Precursor type: [M-H]-
m/z	relative intensity	assigned
50.0035	15	C3N-
62.9888	12	CFO2-
66.0349	41	C4H4N-
67.0302	1	C3H3N2-
68.9958	46	CF3-
73.0084	33	C6H-
74.0037	8	C5N-
76.0193	1	C5H2N-
91.0302	66	C5H3N2-
93.0458	277	C5H5N2-
98.0035	4	C7N-
100.0193	1	C7H2N-
102.0349	4	C7H4N-
103.0302	3	C6H3N2-
120.0256	6	C7H3FN-
126.0348	4	C9H4N-
127.0302	3	C8H3N2-
141.046	4	C9H5N2-
142.0535	8	C9H6N2-
143.0112	3	C7H2F3-
144.0256	5	C9H3FN-
145.0266	1	C7H4F3-
150.0349	57	C11H4N-
151.0302	14	C10H3N2-
153.0459	1	C10H5N2-
155.0377	17	C10H5NO-
156.0326	1	C9H4N2O-
160.038	46	C7H5F3N-
165.0458	9	C11H5N2-
166.0536	26	C11H6N2-
167.0615	56	C11H7N2-
168.0254	2	C11H3FN-
169.0207	7	C10H2FN2-
169.0405	6	C10H5N2O-
170.0412	43	C11H5FN-
171.0365	7	C10H4FN2-
173.0284	2	C10H4FNO-
175.0301	98	C12H3N2-
176.0379	23	C12H4N2-
177.0459	999	C12H5N2-
180.033	21	C11H4N2O-
181.017	3	C11H3NO2-
182.0483	16	C11H6N2O-
184.0377	6	C9H5F3N-
184.0446	3	C11H5FN2-
185.0331	3	C8H4F3N2-
189.0269	2	C10H3F2N2-
189.0396	14	C11H5F2N-
190.0475	14	C11H6F2N-
191.0428	1	C10H5F2N2-
195.0364	470	C12H4FN2-
196.0443	19	C12H5FN2-
197.052	59	C12H6FN2-
198.0412	1	C9H5F3N2-
200.0391	42	C11H5FN2O-
201.023	4	C11H4FNO2-
201.0467	6	C11H6FN2O-
208.0279	16	C12H4N2O2-
208.038	9	C11H5F3N-
208.0579	2	C11H8F2NO-
209.0332	15	C10H4F3N2-
210.0535	10	C11H7F3N-
213.0477	1	C12H6FN2O-
214.0351	6	C12H4F2N2-
215.0426	60	C12H5F2N2-
216.0504	160	C12H6F2N2-
217.0584	7	C12H7F2N2-
222.0413	1	C11H5F3N2-
223.0496	3	C11H6F3N2-
227.0258	4	C12H4FN2O2-
228.0341	74	C12H5FN2O2-
233.0329	1	C12H4F3N2-
234.0409	1	C12H5F3N2-
235.0489	478	C12H6F3N2-
237.0643	12	C12H8F3N2-
