Mass spectrum: Metribuzin-desamino; LC-ESI-QFT; MS2; CE: 90; R=35000; [M+H]+
Name: Metribuzin-desamino
Name: Deaminometribuzin
Name: 6-tert-butyl-3-(methylthio)-2H-1,2,4-triazin-5-one
Formula: C8H13N3OS
Exact mass: 199.27332
SMILES: CC(C)(C)C1=NNC(=NC1=O)SC
InChI: InChI=1S/C8H13N3OS/c1-8(2,3)5-6(12)9-7(13-4)11-10-5/h1-4H3,(H,9,11,12)
Instrument: Q Exactive Plus Orbitrap Thermo Scientific
Instrument type: LC-ESI-QFT
Ms type: MS2
Ion mode: POSITIVE
Ionization: ESI
Fragmentation mode: HCD
Collision energy: 90 (nominal)
Resolution: 35000
Column name: XBridge C18 3.5um, 2.1x50mm, Waters
Retention time: 7.3 min
Base peak: 200.085
Precursor m/z: 200.0852
Precursor type: [M+H]+
m/z	relative intensity	assigned
53.0022	13	C3HO+
53.9975	6	C2NO+
54.0338	4	C3H4N+
55.0542	1	C4H7+
56.0495	4	C3H6N+
57.0699	667	C4H9+
58.0651	4	C3H8N+
59.9665	1	COS+
59.9903	3	CH2NS+
61.0106	9	C2H5S+
62.0059	150	CH4NS+
67.0416	2	C4H5N+
67.0542	4	C5H7+
67.9892	6	C3O2+
68.0243	16	C2H2N3+
68.0495	29	C4H6N+
69.0083	6	C2HN2O+
69.0447	1	C3H5N2+
69.0699	14	C5H9+
70.04	15	C2H4N3+
70.0652	3	C4H8N+
73.9932	12	CH2N2S+
74.0059	214	C2H4NS+
74.9899	1	C2H3OS+
80.0495	1	C5H6N+
82.065	2	C5H8N+
83.0604	14	C4H7N2+
84.0682	17	C4H8N2+
84.0808	38	C5H10N+
89.0168	999	C2H5N2S+
97.0649	1	C6H9O+
101.0042	170	C2H3N3S+
108.0555	1	C5H6N3+
110.0713	7	C5H8N3+
114.0121	1	C3H4N3S+
114.0372	1	C5H8NS+
115.0199	20	C3H5N3S+
115.0326	1	C4H7N2S+
116.0277	539	C3H6N3S+
124.0871	1	C6H10N3+
126.1025	5	C6H12N3+
127.0198	3	C4H5N3S+
129.0355	6	C4H7N3S+
130.0433	9	C4H8N3S+
132.0229	1	C3H6N3OS+
141.0354	11	C5H7N3S+
142.0434	571	C5H8N3S+
156.059	535	C6H10N3S+
157.0668	287	C6H11N3S+
170.0385	11	C6H8N3OS+
172.0903	106	C7H14N3S+
185.0619	1	C7H11N3OS+
200.0856	1	C8H14N3OS+
