Mass spectrum: Oryzalin; LC-ESI-QFT; MS2; CE: 90; R=35000; [M+H]+
Name: Oryzalin
Name: 4-(dipropylamino)-3,5-dinitro-benzenesulfonamide
Formula: C12H18N4O6S
Exact mass: 346.09471
SMILES: [O-][N+](=O)c1cc(cc([N+]([O-])=O)c1N(CCC)CCC)S(=O)(=O)N
InChI: InChI=1S/C12H18N4O6S/c1-3-5-14(6-4-2)12-10(15(17)18)7-9(23(13,21)22)8-11(12)16(19)20/h7-8H,3-6H2,1-2H3,(H2,13,21,22)
Instrument: Q Exactive Orbitrap Thermo Scientific
Instrument type: LC-ESI-QFT
Ms type: MS2
Ion mode: POSITIVE
Ionization: ESI
Fragmentation mode: HCD
Collision energy: 90 (nominal)
Resolution: 35000
Column name: XBridge C18 3.5um, 2.1x50mm, Waters
Retention time: 12.1 min
Base peak: 347.1021
Precursor m/z: 347.102
Precursor type: [M+H]+
m/z	relative intensity	assigned
50.0152	12	
52.0183	113	C3H2N+
53.0023	106	C3HO+
53.9975	7	C2NO+
54.0339	26	C3H4N+
55.0179	23	C3H3O+
55.0291	7	C2H3N2+
56.0131	61	C2H2NO+
56.0495	8	C3H6N+
57.0334	6	C3H5O+
59.0491	6	C3H7O+
63.0229	53	C5H3+
63.9851	90	H2NOS+
64.0182	107	C4H2N+
65.026	80	C4H3N+
65.0386	89	C5H5+
66.0212	12	C3H2N2+
66.0339	38	C4H4N+
66.0463	5	C5H6+
67.0054	7	C3HNO+
67.0291	5	C3H3N2+
67.0416	34	C4H5N+
67.9893	6	C3O2+
68.0131	60	C3H2NO+
68.0495	5	C4H6N+
68.997	10	C3HO2+
69.0083	10	C2HN2O+
69.9923	12	
70.0287	7	C3H4NO+
76.0182	63	C5H2N+
77.0134	24	C4HN2+
77.0261	55	C5H3N+
77.0385	6	C6H5+
78.0338	999	C5H4N+
79.0291	258	C4H3N2+
79.0417	50	C5H5N+
79.0542	39	C6H7+
80.0131	111	C4H2NO+
80.0495	160	C5H6N+
81.0446	11	C4H5N2+
82.0287	27	C4H4NO+
89.0386	55	C7H5+
90.0212	12	C5H2N2+
90.0338	82	C6H4N+
91.029	33	C5H3N2+
91.0417	48	C6H5N+
91.0542	92	C7H7+
92.0129	11	C5H2NO+
92.0369	47	C5H4N2+
92.0494	35	C6H6N+
93.0209	38	C5H3NO+
93.0448	66	C5H5N2+
93.0572	8	C6H7N+
94.0287	35	C5H4NO+
94.0525	7	C5H6N2+
95.0238	21	C4H3N2O+
95.0365	13	C5H5NO+
95.0492	92	C6H7O+
96.0079	24	C4H2NO2+
96.0445	50	C5H6NO+
101.0134	10	C6HN2+
103.029	23	C6H3N2+
103.0541	51	C8H7+
104.0369	8	C6H4N2+
104.0495	138	C7H6N+
105.0448	250	C6H5N2+
105.0571	36	C7H7N+
105.0698	32	C8H9+
106.0286	23	C6H4NO+
106.0524	9	C6H6N2+
106.0651	6	C7H8N+
107.0239	27	C5H3N2O+
108.0444	67	C6H6NO+
110.0235	8	C5H4NO2+
115.0288	10	
115.0542	42	C9H7+
116.0367	24	C7H4N2+
116.0495	121	C8H6N+
117.0447	259	C7H5N2+
117.0572	502	C8H7N+
118.0161	6	C6H2N2O+
118.0525	41	C7H6N2+
118.065	53	C8H8N+
119.024	279	C6H3N2O+
120.0558	38	C6H6N3+
120.0806	29	C8H10N+
121.0395	100	C6H5N2O+
122.0234	6	C6H4NO2+
122.0471	7	C6H6N2O+
123.0188	6	C5H3N2O2+
124.0267	7	C5H4N2O2+
130.0652	104	C9H8N+
131.0604	55	C8H7N2+
131.0729	66	C9H9N+
132.0317	44	C7H4N2O+
132.0557	7	C7H6N3+
132.0807	38	C9H10N+
133.0397	580	C7H5N2O+
134.0348	7	C6H4N3O+
134.0471	30	C7H6N2O+
134.06	20	C8H8NO+
136.0269	84	C6H4N2O2+
137.0344	28	C6H5N2O2+
143.0604	93	C9H7N2+
144.0683	22	C9H8N2+
145.0396	25	C8H5N2O+
145.0761	188	C9H9N2+
146.0476	7	C8H6N2O+
148.0141	30	C6H2N3O2+
148.0505	11	C7H6N3O+
149.0346	263	C7H5N2O2+
150.0424	9	C7H6N2O2+
151.05	23	C7H7N2O2+
152.0215	32	C6H4N2O3+
161.0459	7	C7H5N4O+
161.071	47	C9H9N2O+
167.045	10	C7H7N2O3+
170.0146	47	C6H6N2O2S+
171.0219	32	C6H7N2O2S+
177.0657	8	C9H9N2O2+
178.0243	9	C7H4N3O3+
179.0328	5	C7H5N3O3+
190.0163	8	C12H2N2O+
197.0252	99	C7H7N3O2S+
198.0145	93	C6H4N3O5+
212.0125	62	C7H6N3O3S+
213.02	26	C7H7N3O3S+
223.0406	22	C9H9N3O2S+
224.0488	12	C9H10N3O2S+
225.0569	11	C9H11N3O2S+
227.9956	6	C6H4N4O4S+
228.0069	31	C7H6N3O4S+
238.028	7	C9H8N3O3S+
240.0437	26	C9H10N3O3S+
