Mass spectrum: Triadimefon; LC-ESI-QFT; MS2; CE: 60%; R=17500; [M+H]+
Name: Triadimefon
Name: 1-(4-chlorophenoxy)-3,3-dimethyl-1-(1,2,4-triazol-1-yl)butan-2-one
Formula: C14H16ClN3O2
Exact mass: 293.0931
SMILES: CC(C)(C)C(=O)C(N1C=NC=N1)OC2=CC=C(C=C2)Cl
InChI: InChI=1S/C14H16ClN3O2/c1-14(2,3)12(19)13(18-9-16-8-17-18)20-11-6-4-10(15)5-7-11/h4-9,13H,1-3H3
Instrument: Exploris 240 Orbitrap Thermo Scientific
Instrument type: LC-ESI-QFT
Ms type: MS2
Ion mode: POSITIVE
Ionization: ESI
Fragmentation mode: HCD
Collision energy: 60 % (nominal)
Resolution: 17500
Column name: XBridge C18 3.5um, 2.1x50mm, Waters
Retention time: 8.986 min
Base peak: 294.1001
Precursor m/z: 294.1004
Precursor type: [M+H]+
m/z	relative intensity	assigned
55.0542	31	C4H7+
57.0699	575	C4H9+
69.0699	999	C5H9+
70.0777	136	C5H10+
77.0389	9	C6H5+
98.9994	39	C5H4Cl+
113.015	45	C6H6Cl+
126.9946	188	C6H4ClO+
129.01	133	C6H6ClO+
139.0059	25	C6H4ClN2+
141.0103	206	C7H6ClO+
155.0258	77	C8H8ClO+
197.0727	21	C11H14ClO+
