Mass spectrum: Bromazepam; LC-ESI-QFT; MS2; CE: 180; R=35000; [M+H]+
Name: Bromazepam
Name: 7-bromo-5-pyridin-2-yl-1,3-dihydro-1,4-benzodiazepin-2-one
Formula: C14H10BrN3O
Exact mass: 315.00072
SMILES: C1C(=O)NC2=C(C=C(C=C2)Br)C(=N1)C3=CC=CC=N3
InChI: InChI=1S/C14H10BrN3O/c15-9-4-5-11-10(7-9)14(17-8-13(19)18-11)12-3-1-2-6-16-12/h1-7H,8H2,(H,18,19)
Instrument: Q Exactive Plus Orbitrap Thermo Scientific
Instrument type: LC-ESI-QFT
Ms type: MS2
Ion mode: POSITIVE
Ionization: ESI
Fragmentation mode: HCD
Collision energy: 180 (nominal)
Resolution: 35000
Column name: XBridge C18 3.5um, 2.1x50mm, Waters
Retention time: 7.0 min
Base peak: 316.0073
Precursor m/z: 316.008
Precursor type: [M+H]+
m/z	relative intensity	assigned
50.0151	437	C4H2+
51.023	302	C4H3+
52.0182	56	C3H2N+
52.0308	67	C4H4+
53.0022	25	C3HO+
53.0386	315	C4H5+
54.0339	16	C3H4N+
55.0178	18	C3H3O+
55.0416	3	C3H5N+
61.0073	34	C5H+
62.0151	126	C5H2+
63.0229	313	C5H3+
64.0182	66	C4H2N+
64.0307	31	C5H4+
65.0022	54	C4HO+
65.0386	94	C5H5+
66.0464	58	C5H6+
67.0417	23	C4H5N+
74.015	181	C6H2+
75.0229	536	C6H3+
76.0181	81	C5H2N+
76.0307	331	C6H4+
77.0385	441	C6H5+
78.0338	521	C5H4N+
78.0464	226	C6H6+
79.0177	10	
79.0416	105	C5H5N+
80.0494	82	C5H6N+
81.0335	48	C5H5O+
82.0289	2	C4H4NO+
86.015	46	C7H2+
87.0229	113	C7H3+
88.0181	63	C6H2N+
88.0307	93	C7H4+
89.0385	415	C7H5+
90.0338	21	C6H4N+
90.0464	68	C7H6+
91.0179	3	C6H3O+
91.0417	27	C6H5N+
91.0542	30	C7H7+
92.0368	2	C5H4N2+
92.0494	11	C6H6N+
92.9334	12	
93.0572	2	C6H7N+
94.0413	30	C6H6O+
95.0366	37	C5H5NO+
95.0491	729	C6H7O+
96.0443	408	C5H6NO+
98.0151	32	C8H2+
99.0103	12	
99.0229	132	C8H3+
100.0182	44	C7H2N+
100.0307	51	C8H4+
101.0386	96	C8H5+
102.0338	71	C7H4N+
102.0464	209	C8H6+
103.029	11	C6H3N2+
103.0416	81	C7H5N+
103.0542	106	C8H7+
104.0494	424	C7H6N+
105.0447	579	C6H5N2+
106.0287	3	C6H4NO+
110.06	5	C6H8NO+
111.0228	13	C9H3+
111.0313	4	C5H5NO2+
112.018	13	
112.0307	15	C9H4+
113.0385	229	C9H5+
114.0338	109	C8H4N+
114.0464	37	C9H6+
115.0292	19	C7H3N2+
115.0416	47	C8H5N+
115.0542	103	C9H7+
116.0494	31	C8H6N+
117.0573	67	C8H7N+
117.0697	9	C9H9+
119.0491	72	C8H7O+
120.0445	17	C7H6NO+
121.0396	4	C6H5N2O+
125.0386	210	C10H5+
126.0464	608	C10H6+
127.0416	188	C9H5N+
127.0542	377	C10H7+
128.0495	402	C9H6N+
128.0619	52	C10H8+
129.0447	394	C8H5N2+
129.0573	74	C9H7N+
130.0399	76	C7H4N3+
130.0525	16	C8H6N2+
130.0651	116	C9H8N+
131.0491	3	C9H7O+
131.0604	10	C8H7N2+
132.0446	3	C8H6NO+
132.0569	5	C9H8O+
133.0524	4	C8H7NO+
134.0599	2	C8H8NO+
135.0313	4	C7H5NO2+
137.0386	135	C11H5+
138.0339	52	C10H4N+
138.0463	27	C11H6+
139.042	20	C10H5N+
139.0542	161	C11H7+
140.0494	212	C10H6N+
141.0573	56	C10H7N+
142.0526	37	C9H6N2+
142.0649	2	C10H8N+
143.049	41	C10H7O+
144.0443	12	C9H6NO+
145.0648	176	C10H9O+
146.06	102	C9H8NO+
147.0551	3	C8H7N2O+
151.0416	59	C11H5N+
152.0495	329	C11H6N+
153.0447	140	C10H5N2+
153.0573	408	C11H7N+
154.0401	31	
154.0651	585	C11H8N+
155.0603	519	C10H7N2+
156.0442	9	C10H6NO+
156.057	3	C11H8O+
157.0524	24	C10H7NO+
158.0476	3	C9H6N2O+
161.0468	10	C9H7NO2+
162.042	3	C8H6N2O2+
164.0494	196	C12H6N+
165.0451	26	C11H5N2+
165.0572	80	C12H7N+
166.0527	49	C11H6N2+
166.0648	28	C12H8N+
167.0604	3	C11H7N2+
167.0731	5	C12H9N+
168.0682	9	C11H8N2+
170.06	218	C11H8NO+
171.0552	42	C10H7N2O+
177.0447	80	C12H5N2+
178.0525	71	C12H6N2+
179.0603	999	C12H7N2+
180.0557	66	C11H6N3+
180.0681	85	C12H8N2+
181.076	73	C12H9N2+
182.955	13	C6H4BrN2+
185.0472	51	C11H7NO2+
186.0425	4	C10H6N2O2+
190.0521	5	C13H6N2+
191.0601	11	C13H7N2+
192.0681	4	C13H8N2+
195.0553	11	C12H7N2O+
206.0713	94	C13H8N3+
207.0792	10	C13H9N3+
210.0424	44	C12H6N2O2+
212.0578	10	C12H8N2O2+
