Mass spectrum: Letrozole; LC-ESI-QFT; MS2; CE: 30; R=35000; [M-H]-
Name: Letrozole
Name: 4-[(4-cyanophenyl)-(1,2,4-triazol-1-yl)methyl]benzonitrile
Formula: C17H11N5
Exact mass: 285.10145
SMILES: C1=CC(=CC=C1C#N)C(C2=CC=C(C=C2)C#N)N3C=NC=N3
InChI: InChI=1S/C17H11N5/c18-9-13-1-5-15(6-2-13)17(22-12-20-11-21-22)16-7-3-14(10-19)4-8-16/h1-8,11-12,17H
Instrument: Q Exactive Plus Orbitrap Thermo Scientific
Instrument type: LC-ESI-QFT
Ms type: MS2
Ion mode: NEGATIVE
Ionization: ESI
Fragmentation mode: HCD
Collision energy: 30 (nominal)
Resolution: 35000
Column name: XBridge C18 3.5um, 2.1x50mm, Waters
Retention time: 6.6 min
Base peak: 284.0946
Precursor m/z: 284.0942
Precursor type: [M-H]-
m/z	relative intensity	assigned
66.0097	3	C2N3-
102.0349	69	C7H4N-
127.0302	94	C8H3N2-
141.0459	2	C9H5N2-
142.0411	7	C8H4N3-
153.0459	5	C10H5N2-
156.0566	4	C9H6N3-
181.052	6	C10H5N4-
199.0626	21	C10H7N4O-
203.0615	10	C14H7N2-
215.0616	3	C15H7N2-
217.0771	1	C15H9N2-
228.0695	4	C16H8N2-
229.0771	26	C16H9N2-
230.0729	2	C15H8N3-
242.0725	431	C16H8N3-
254.0721	3	C17H8N3-
255.0801	3	C17H9N3-
256.0879	20	C17H10N3-
257.0832	40	C16H9N4-
282.0789	1	C17H8N5-
283.0871	1	C17H9N5-
284.0942	999	C17H10N5-
