Mass spectrum: Chinomethionat; LC-ESI-QFT; MS2; CE: 180%; R=17500; [M+H]+
Name: Chinomethionat
Name: 6-methyl-[1,3]dithiolo[4,5-b]quinoxalin-2-one
Formula: C10H6N2OS2
Exact mass: 233.9922
SMILES: CC1=CC2=C(C=C1)N=C3C(=N2)SC(=O)S3
InChI: InChI=1S/C10H6N2OS2/c1-5-2-3-6-7(4-5)12-9-8(11-6)14-10(13)15-9/h2-4H,1H3
Instrument: Exploris 240 Orbitrap Thermo Scientific
Instrument type: LC-ESI-QFT
Ms type: MS2
Ion mode: POSITIVE
Ionization: ESI
Fragmentation mode: HCD
Collision energy: 180 % (nominal)
Resolution: 17500
Column name: XBridge C18 3.5um, 2.1x50mm, Waters
Retention time: 12.419 min
Base peak: 234.9995
Precursor m/z: 234.9994
Precursor type: [M+H]+
m/z	relative intensity	assigned
50.0151	79	C4H2+
51.0229	999	C4H3+
53.0387	135	C4H5+
63.0229	377	C5H3+
65.0385	265	C5H5+
68.9794	188	C3HS+
71.9901	44	C2H2NS+
75.0231	56	C6H3+
77.0385	794	C6H5+
78.0339	173	C5H4N+
78.0464	580	C6H6+
89.0385	627	C7H5+
90.0464	50	C7H6+
92.0496	65	C6H6N+
94.0416	42	C6H6O+
95.0492	245	C6H7O+
96.0444	76	C5H6NO+
104.0495	120	C7H6N+
105.0447	298	C6H5N2+
109.0105	44	C6H5S+
116.0493	28	C8H6N+
121.0109	109	C7H5S+
136.0217	72	C7H6NS+
148.0212	52	C8H6NS+
