Mass spectrum: 3-[(4-chlorobenzoyl)amino]propanoic acid; LC-ESI-QFT; MS2; CE: 15; R=35000; [M-H]-
Name: 3-[(4-chlorobenzoyl)amino]propanoic acid
Name: N-(4-Chlorobenzoyl)-Beta-alanine
Formula: C10H10ClNO3
Exact mass: 227.03492
SMILES: C1=CC(=CC=C1C(=O)NCCC(=O)O)Cl
InChI: InChI=1S/C10H10ClNO3/c11-8-3-1-7(2-4-8)10(15)12-6-5-9(13)14/h1-4H,5-6H2,(H,12,15)(H,13,14)
Instrument: Q Exactive Plus Orbitrap Thermo Scientific
Instrument type: LC-ESI-QFT
Ms type: MS2
Ion mode: NEGATIVE
Ionization: ESI
Fragmentation mode: HCD
Collision energy: 15 (nominal)
Resolution: 35000
Column name: XBridge C18 3.5um, 2.1x50mm, Waters
Retention time: 6.1 min
Base peak: 226.0275
Precursor m/z: 226.0276
Precursor type: [M-H]-
m/z	relative intensity	assigned
59.0138	1	C2H3O2-
71.0139	28	C3H3O2-
111.0002	1	C6H4Cl-
154.0066	728	C7H5ClNO-
182.0379	2	C9H9ClNO-
226.0277	999	C10H9ClNO3-
