Mass spectrum: 10phiC10SPC; LC-ESI-QFT; MS2; CE: 150; R=35000; [M+H]+
Name: 10phiC10SPC
Name: Decacarboxy sulfophenyl carboxylic acid
Name: 10-(4-sulfophenyl)octanoic acid
Formula: C16H24O5S
Exact mass: 328.13444
SMILES: OS(=O)(=O)c1ccc(CCCCCCCCCC(=O)O)cc1
InChI: InChI=1S/C16H24O5S/c17-16(18)9-7-5-3-1-2-4-6-8-14-10-12-15(13-11-14)22(19,20)21/h10-13H,1-9H2,(H,17,18)(H,19,20,21)
Instrument: Q Exactive Plus Orbitrap Thermo Scientific
Instrument type: LC-ESI-QFT
Ms type: MS2
Ion mode: POSITIVE
Ionization: ESI
Fragmentation mode: HCD
Collision energy: 150 (nominal)
Resolution: 35000
Column name: XBridge C18 3.5um, 2.1x50mm, Waters
Retention time: 10.8 min
Base peak: 343.1573
Precursor m/z: 329.1417
Precursor type: [M+H]+
m/z	relative intensity	assigned
50.0151	181	C4H2+
51.023	431	C4H3+
52.0308	18	C4H4+
53.0022	51	C3HO+
53.0386	303	C4H5+
53.9975	5	C2NO+
55.0179	70	C3H3O+
55.0543	24	C4H7+
57.0699	2	C4H9+
62.0151	15	C5H2+
63.0229	90	C5H3+
64.0308	15	C5H4+
65.0386	323	C5H5+
66.0465	5	C5H6+
67.0543	24	C5H7+
68.9793	25	C3HS+
74.015	3	C6H2+
75.0229	17	C6H3+
76.0307	6	C6H4+
77.0386	400	C6H5+
78.0464	585	C6H6+
79.0179	4	C5H3O+
79.0542	80	C6H7+
81.0335	58	C5H5O+
89.0386	342	C7H5+
90.0465	57	C7H6+
91.0543	630	C7H7+
94.0413	23	C6H6O+
95.0492	999	C6H7O+
97.0106	3	C5H5S+
102.0464	60	C8H6+
103.0542	409	C8H7+
104.0621	59	C8H8+
105.0448	531	C6H5N2+
107.0492	75	C7H7O+
108.0028	6	C6H4S+
109.0108	10	C6H5S+
115.0543	572	C9H7+
116.062	45	C9H8+
117.0699	71	C9H9+
121.0107	5	C7H5S+
126.0464	5	C10H6+
127.0542	18	C10H7+
128.0621	215	C10H8+
129.0699	44	C10H9+
131.0493	7	C9H7O+
134.0184	29	C8H6S+
141.0698	12	C11H9+
145.065	15	C10H9O+
147.0262	21	C9H7S+
152.0619	4	C12H8+
155.0604	29	C10H7N2+
160.1253	3	C12H16+
171.0259	5	C11H7S+
