Mass spectrum: Enrofloxacin; LC-ESI-QFT; MS2; CE: 90; R=35000; [M+H]+
Name: Enrofloxacin
Name: 1-cyclopropyl-7-(4-ethylpiperazin-4-ium-1-yl)-6-fluoro-4-oxoquinoline-3-carboxylate
Formula: C19H22FN3O3
Exact mass: 359.16452
SMILES: CCN1CCN(CC1)C2=C(C=C3C(=C2)N(C=C(C3=O)C(=O)O)C4CC4)F
InChI: InChI=1S/C19H22FN3O3/c1-2-21-5-7-22(8-6-21)17-10-16-13(9-15(17)20)18(24)14(19(25)26)11-23(16)12-3-4-12/h9-12H,2-8H2,1H3,(H,25,26)
Instrument: Q Exactive Plus Orbitrap Thermo Scientific
Instrument type: LC-ESI-QFT
Ms type: MS2
Ion mode: POSITIVE
Ionization: ESI
Fragmentation mode: HCD
Collision energy: 90 (nominal)
Resolution: 35000
Column name: XBridge C18 3.5um, 2.1x50mm, Waters
Retention time: 4.4 min
Base peak: 360.1712
Precursor m/z: 360.1718
Precursor type: [M+H]+
m/z	relative intensity	assigned
50.015	2	C4H2+
53.0022	61	C3HO+
53.0386	8	C4H5+
54.0339	3	C3H4N+
55.0178	9	C3H3O+
55.0543	9	C4H7+
56.0495	314	C3H6N+
57.0573	80	C3H7N+
58.0652	136	C3H8N+
65.0387	18	C5H5+
67.0417	2	C4H5N+
67.0542	8	C5H7+
67.9893	3	C3O2+
68.0495	54	C4H6N+
69.0447	4	C3H5N2+
70.0652	634	C4H8N+
71.073	8	C4H9N+
72.0808	313	C4H10N+
75.0228	3	C6H3+
78.034	2	C5H4N+
80.0495	8	C5H6N+
81.0134	2	C5H2F+
82.0288	3	C4H4NO+
82.0525	2	C4H6N2+
82.0652	24	C5H8N+
83.0291	18	C5H4F+
83.0491	9	C5H7O+
83.0604	23	C4H7N2+
84.0808	339	C5H10N+
85.0888	2	C5H11N+
86.0965	73	C5H12N+
89.0386	88	C7H5+
91.0544	2	C7H7+
92.0495	7	C6H6N+
95.0294	2	C6H4F+
95.0492	4	C6H7O+
96.0444	10	C5H6NO+
96.081	6	C6H10N+
97.0448	2	C6H6F+
97.0761	19	C5H9N2+
98.0839	13	C5H10N2+
98.0965	8	C6H12N+
99.0917	3	C5H11N2+
102.0466	7	C8H6+
103.0543	25	C8H7+
104.0496	16	C7H6N+
105.0448	3	C6H5N2+
105.0576	2	C7H7N+
107.0292	28	C7H4F+
108.0244	9	C6H3FN+
108.037	12	C7H5F+
109.0449	130	C7H6F+
110.04	8	C6H5FN+
111.0915	3	C6H11N2+
114.034	12	C8H4N+
115.0417	13	C8H5N+
115.0544	77	C9H7+
116.0495	120	C8H6N+
117.0574	33	C8H7N+
118.0652	12	C8H8N+
120.0371	9	C8H5F+
121.0324	10	C7H4FN+
121.0451	9	C8H6F+
122.0401	32	C7H5FN+
123.0354	11	C6H4FN2+
123.0481	3	C7H6FN+
124.0559	18	C7H7FN+
126.0343	2	C9H4N+
127.0543	18	C10H7+
128.0496	58	C9H6N+
128.0621	75	C10H8+
129.0448	19	C8H5N2+
129.0574	49	C9H7N+
129.0701	22	C10H9+
130.0653	63	C9H8N+
131.0606	27	C8H7N2+
132.0244	7	C8H3FN+
132.0446	4	C8H6NO+
132.0684	4	C8H8N2+
132.0809	8	C9H10N+
133.0322	3	C8H4FN+
133.0449	46	C9H6F+
133.0522	4	C8H7NO+
134.0402	125	C8H5FN+
134.0601	85	C8H8NO+
135.048	293	C8H6FN+
136.0196	11	C7H3FNO+
136.0559	156	C8H7FN+
137.0267	2	C7H4FNO+
137.0512	3	C7H6FN2+
137.0637	9	C8H8FN+
138.0352	3	C7H5FNO+
139.0545	3	C11H7+
140.0495	29	C10H6N+
141.0449	22	C9H5N2+
141.0574	51	C10H7N+
142.0288	11	C9H4NO+
142.0529	3	C9H6N2+
142.0653	70	C10H8N+
143.0605	35	C9H7N2+
143.0734	4	C10H9N+
144.0445	12	C9H6NO+
144.0558	28	C8H6N3+
144.0808	8	C10H10N+
145.0449	3	C10H6F+
145.0649	18	C10H9O+
146.0402	35	C9H5FN+
146.0527	41	C10H7F+
146.06	8	C9H8NO+
147.0356	3	C8H4FN2+
147.048	61	C9H6FN+
147.0605	30	C10H8F+
148.0436	20	C8H5FN2+
148.0558	380	C9H7FN+
149.0512	20	C8H6FN2+
149.0637	34	C9H8FN+
150.0349	7	C8H5FNO+
150.0589	15	C8H7FN2+
150.0712	14	C9H9FN+
151.0428	7	C8H6FNO+
151.067	9	C8H8FN2+
152.0507	26	C8H7FNO+
152.0621	4	C12H8+
153.0452	2	C10H5N2+
153.0573	9	C11H7N+
154.0526	13	
154.0653	195	C11H8N+
155.0605	172	C10H7N2+
155.073	44	C11H9N+
156.0444	9	C10H6NO+
156.0683	181	C10H8N2+
156.0811	29	C11H10N+
157.0524	4	C10H7NO+
157.0763	38	C10H9N2+
158.0403	38	C10H5FN+
158.0602	10	C10H8NO+
159.0356	2	C9H4FN2+
159.0481	31	C10H6FN+
159.0552	9	C9H7N2O+
159.0609	7	C11H8F+
160.0437	21	C9H5FN2+
160.0558	42	C10H7FN+
161.0273	22	C9H4FNO+
161.0513	117	C9H6FN2+
161.0635	56	C10H8FN+
162.0351	149	C9H5FNO+
162.0458	29	C8H5FN3+
162.0589	53	C9H7FN2+
162.0714	63	C10H9FN+
163.0429	36	C9H6FNO+
163.0555	2	C10H8FO+
163.0667	38	C9H8FN2+
164.0507	33	C9H7FNO+
166.0526	2	C11H6N2+
166.0656	9	C12H8N+
167.0604	26	C11H7N2+
167.0727	15	C12H9N+
168.0684	51	C11H8N2+
168.0809	12	C12H10N+
169.0396	8	C10H5N2O+
169.0521	12	C11H7NO+
169.0762	123	C11H9N2+
170.0348	3	C9H4N3O+
170.0479	2	C10H6N2O+
170.0601	19	C11H8NO+
170.0841	2	C11H10N2+
170.0964	3	C12H12N+
171.0552	10	C10H7N2O+
171.0919	9	C11H11N2+
172.0558	119	C11H7FN+
173.0514	58	C10H6FN2+
173.0636	57	C11H8FN+
173.0709	6	C10H9N2O+
174.0352	102	C10H5FNO+
174.0592	153	C10H7FN2+
174.0714	173	C11H9FN+
175.0431	16	C10H6FNO+
175.0668	279	C10H8FN2+
176.0508	94	C10H7FNO+
176.0746	285	C10H9FN2+
177.0464	2	C9H6FN2O+
177.0585	19	C10H8FNO+
177.0823	3	C10H10FN2+
178.0301	3	C9H5FNO2+
178.0538	3	C9H7FN2O+
178.0663	17	C10H9FNO+
179.0378	12	C9H6FNO2+
179.0607	3	C9H8FN2O+
180.0457	135	C9H7FNO2+
180.0811	11	C13H10N+
181.0762	52	C12H9N2+
182.0603	29	C12H8NO+
182.0841	78	C12H10N2+
183.0557	17	C11H7N2O+
183.0681	17	C12H9NO+
183.0921	16	C12H11N2+
184.0557	7	C12H7FN+
184.0633	60	C11H8N2O+
184.0761	11	C12H10NO+
185.0514	27	C11H6FN2+
185.0636	40	C12H8FN+
185.0712	63	C11H9N2O+
186.0186	10	
186.059	24	C11H7FN2+
186.0714	28	C12H9FN+
187.0307	18	C10H4FN2O+
187.043	31	C11H6FNO+
187.0668	132	C11H8FN2+
187.0798	10	C12H10FN+
188.0144	65	C10H3FNO2+
188.0247	3	C9H3FN3O+
188.0382	15	C10H5FN2O+
188.051	67	C11H7FNO+
188.0747	25	C11H9FN2+
188.0873	24	C12H11FN+
189.0461	566	C10H6FN2O+
189.0824	94	C11H10FN2+
190.0413	37	C14H6O+
190.0539	32	C10H7FN2O+
190.0665	15	C11H9FNO+
190.09	8	C11H11FN2+
191.0616	47	C10H8FN2O+
193.0762	5	C13H9N2+
194.0612	4	C10H9FNO2+
195.0193	3	C11H3N2O2+
195.0552	15	C12H7N2O+
195.0918	23	C13H11N2+
196.0636	10	C12H8N2O+
196.0996	4	C13H12N2+
197.0709	22	C12H9N2O+
197.0944	2	C12H11N3+
197.1072	4	C13H13N2+
198.0793	3	C12H10N2O+
199.0668	8	C12H8FN2+
199.0785	2	C13H10FN+
200.0508	41	C12H7FNO+
200.0594	3	C8H9FN2O3+
200.0747	20	C12H9FN2+
200.0873	8	C13H11FN+
201.0587	87	C12H8FNO+
201.0825	80	C12H10FN2+
202.0301	62	C11H5FNO2+
202.0541	28	C11H7FN2O+
202.0665	200	C12H9FNO+
202.0901	32	C12H11FN2+
203.0617	999	C11H8FN2O+
204.0332	11	
204.0696	108	C11H9FN2O+
205.0775	91	C11H10FN2O+
206.0246	14	C10H5FNO3+
206.0839	5	C14H10N2+
207.0926	2	C14H11N2+
208.087	14	C13H10N3+
209.0711	36	C13H9N2O+
209.1072	4	C14H13N2+
210.0424	5	C12H6N2O2+
211.0508	3	C9H8FN2O3+
211.0668	10	C13H8FN2+
213.0585	2	C13H8FNO+
213.0822	10	C13H10FN2+
214.0669	15	C13H9FNO+
215.0254	418	C11H4FN2O2+
215.0617	144	C12H8FN2O+
216.0333	17	C11H5FN2O2+
216.0695	36	C12H9FN2O+
216.0821	14	C13H11FNO+
216.0922	3	C12H11FN3+
217.0411	199	C11H6FN2O2+
217.0774	31	C12H10FN2O+
218.0855	2	C12H11FN2O+
220.0405	13	C11H7FNO3+
221.0486	2	C11H8FNO3+
221.0715	3	C11H10FN2O2+
222.1026	4	C14H12N3+
223.0864	15	C14H11N2O+
224.0584	2	C10H9FN2O3+
225.0665	2	C10H10FN2O3+
225.0826	3	C14H10FN2+
225.1025	4	C14H13N2O+
227.0616	13	C13H8FN2O+
227.0983	10	C14H12FN2+
228.0691	5	C16H8N2+
229.0409	9	C12H6FN2O2+
229.0775	157	C13H10FN2O+
230.0726	22	C17H10O+
230.0851	45	C13H11FN2O+
231.0563	24	C12H8FN2O2+
231.0928	23	C13H12FN2O+
233.0361	33	C11H6FN2O3+
233.0473	3	C15H7NO2+
234.0438	7	C11H7FN2O3+
235.0517	45	C11H8FN2O3+
235.0635	3	C12H10FNO3+
236.082	9	C14H10N3O+
236.1176	2	C15H14N3+
237.1028	3	C15H13N2O+
238.0611	2	C13H8N3O2+
241.0773	8	C14H10FN2O+
242.0848	2	C14H11FN2O+
243.0567	131	C13H8FN2O2+
243.0925	23	C14H12FN2O+
245.1087	153	C14H14FN2O+
247.0512	4	C12H8FN2O3+
255.0568	2	C14H8FN2O2+
256.0517	31	C13H7FN3O2+
258.0677	52	C18H10O2+
261.0671	12	C13H10FN2O3+
270.0672	14	C14H9FN3O2+
270.1034	9	C15H13FN3O+
271.0754	125	C19H11O2+
284.1195	2	C16H15FN3O+
285.0905	3	C15H12FN3O2+
286.099	24	C15H13FN3O2+
289.0857	2	C14H12FN3O3+
300.1143	8	C16H15FN3O2+
