Mass spectrum: MCYR; LC-ESI-QFT; MS2; CE: 45%; R=17500; [M+H]+
Name: MCYR
Name: Microcystin YR
Name: (5R,8S,11R,12S,15S,18S,19S,22R)-15-[3-(diaminomethylideneamino)propyl]-8-[(4-hydroxyphenyl)methyl]-18-[(1E,3E,5S,6S)-6-methoxy-3,5-dimethyl-7-phenylhepta-1,3-dienyl]-1,5,12,19-tetramethyl-2-methylidene-3,6,9,13,16,20,25-heptaoxo-1,4,7,10,14,17,21-heptazacyclopentacosane-11,22-dicarboxylic acid
Class: NA
Formula: C52H72N10O13
Exact mass: 1044.5280
SMILES: CO[C@@H](Cc1ccccc1)[C@@H](C)\C=C(C)\C=C\[C@@H]2NC(=O)[C@H](CCCNC(N)=N)NC(=O)[C@@H](C)[C@@H](NC(=O)[C@H](Cc3ccc(O)cc3)NC(=O)[C@@H](C)NC(=O)C(=C)N(C)C(=O)CC[C@@H](NC(=O)[C@H]2C)C(O)=O)C(O)=O
InChI: InChI=1S/C52H72N10O13/c1-28(25-29(2)41(75-8)27-34-13-10-9-11-14-34)16-21-37-30(3)44(65)59-39(50(71)72)22-23-42(64)62(7)33(6)47(68)56-32(5)46(67)60-40(26-35-17-19-36(63)20-18-35)49(70)61-43(51(73)74)31(4)45(66)58-38(48(69)57-37)15-12-24-55-52(53)54/h9-11,13-14,16-21,25,29-32,37-41,43,63H,6,12,15,22-24,26-27H2,1-5,7-8H3,(H,56,68)(H,57,69)(H,58,66)(H,59,65)(H,60,67)(H,61,70)(H,71,72)(H,73,74)(H4,53,54,55)/b21-16+,28-25+/t29-,30-,31-,32+,37-,38-,39+,40-,41-,43+/m0/s1
Instrument: Q Exactive Plus Orbitrap Thermo Scientific
Instrument type: LC-ESI-QFT
Ms type: MS2
Ion mode: POSITIVE
Ionization: ESI
Fragmentation mode: HCD
Collision energy: 45 % (nominal)
Resolution: 17500
Column name: XBridge C18 3.5um, 2.1x50mm, Waters
Retention time: 8.039 min
Base peak: 523.2719
Precursor m/z: 1045.5353
Precursor type: [M+H]+
m/z	relative intensity	assigned
77.0385	7	C6H5+
79.0542	47	C6H7+
82.0287	6	C4H4NO+
82.0652	19	C5H8N+
84.0444	171	C4H6NO+
85.076	7	C4H9N2+
87.0791	15	C3H9N3+
91.0543	151	C7H7+
93.0699	97	C7H9+
94.0652	7	C6H8N+
95.0493	50	C6H7O+
95.0604	18	C5H7N2+
95.0857	21	C7H11+
96.081	6	C6H10N+
97.0759	41	C5H9N2+
98.0601	36	C5H8NO+
99.0192	5	C3H3N2O2+
99.0917	30	C5H11N2+
102.0548	18	C4H8NO2+
103.0542	271	C8H7+
105.0449	18	C6H5N2+
105.0699	253	C8H9+
107.0493	14	
107.0855	503	C8H11+
109.0649	15	C7H9O+
110.06	10	C6H8NO+
112.0392	8	
112.0869	308	C5H10N3+
113.0709	57	C5H9N2O+
114.0552	4	C5H8NO2+
114.1026	44	C5H12N3+
115.0544	41	C9H7+
115.0866	150	C5H11N2O+
116.0703	4	C5H10NO2+
117.0699	111	C9H9+
119.0492	30	C8H7O+
119.0608	2	C7H7N2+
119.0856	12	C9H11+
120.0808	32	C8H10N+
121.065	6	C8H9O+
121.0757	3	C7H9N2+
121.1011	14	C9H13+
124.0759	13	C7H10NO+
124.1123	26	C8H14N+
125.0711	5	C6H9N2O+
127.0866	502	C6H11N2O+
128.0623	5	C10H8+
128.0706	11	C6H10NO2+
129.0697	9	C10H9+
130.05	26	C5H8NO3+
130.0974	19	C5H12N3O+
131.0856	28	C10H11+
132.0804	3	C9H10N+
133.1012	14	C10H13+
135.0804	999	C9H11O+
135.1167	370	C10H15+
136.0757	568	C8H10NO+
138.055	65	C7H8NO2+
139.098	28	C6H11N4+
140.0714	6	C7H10NO2+
140.0817	82	C6H10N3O+
141.0658	82	C6H9N2O2+
143.0857	13	C11H11+
145.1009	21	C11H13+
147.0441	15	C9H7O2+
147.1165	4	C11H15+
149.0709	10	C8H9N2O+
151.0866	12	C8H11N2O+
152.0706	11	C8H10NO2+
152.1184	14	C8H14N3+
153.1021	17	C8H13N2O+
155.0815	281	C7H11N2O2+
156.1245	23	C6H14N5+
157.1085	167	C6H13N4O+
158.0925	49	C6H12N3O2+
159.1174	7	C12H15+
161.0961	19	C11H13O+
162.1279	13	C11H16N+
163.1117	165	C11H15O+
164.0705	6	C9H10NO2+
164.1189	5	C11H16O+
167.0816	108	C8H11N2O2+
168.0657	12	C8H10NO3+
169.0987	8	C8H13N2O2+
171.1139	21	C8H15N2O2+
172.072	10	C6H10N3O3+
172.1114	18	C12H14N+
173.0963	6	C12H13O+
174.1351	105	C6H16N5O+
175.1193	29	C6H15N4O2+
178.0973	9	C9H12N3O+
180.1132	9	C9H14N3O+
181.0983	19	C9H13N2O2+
182.081	7	C9H12NO3+
182.1038	40	C7H12N5O+
183.088	65	C7H11N4O2+
186.0922	5	C12H12NO+
187.1124	5	C13H15O+
188.1067	7	C12H14NO+
191.0826	5	H17NO10+
195.0767	82	C9H11N2O3+
195.1175	11	CH17N5O6+
196.0609	23	C9H10NO4+
196.1089	11	C11H16O3+
198.1236	20	C9H16N3O2+
199.1084	5	C9H15N2O3+
200.1145	183	C7H14N5O2+
201.0986	65	C7H13N4O3+
203.1181	4	C12H15N2O+
206.0927	14	C10H12N3O2+
207.1133	24	C11H15N2O2+
208.1082	24	C10H14N3O2+
209.0923	16	C10H13N2O3+
209.133	20	C2H19N5O6+
213.0874	360	C9H13N2O4+
213.1333	37	C8H21O6+
218.1544	30	H22N6O7+
220.106	3	C8H16N2O5+
221.1299	4	H21N4O9+
223.1207	34	C12H17NO3+
224.1031	19	C10H14N3O3+
225.135	31	C10H17N4O2+
226.1189	80	C10H16N3O3+
227.103	7	C10H15N2O4+
231.1126	31	C13H15N2O2+
235.1082	5	C12H15N2O3+
237.1641	23	C4H23N5O6+
239.0666	61	C10H11N2O5+
239.1031	7	C11H15N2O4+
240.1463	20	C12H20N2O3+
241.1297	11	C10H17N4O3+
244.1286	28	C10H18N3O4+
246.1489	32	C15H20NO2+
247.1081	27	C13H15N2O3+
251.1146	13	C13H17NO4+
257.1736	4	C12H23N3O3+
258.1565	17	C10H20N5O3+
258.1863	9	C3H26N6O7+
259.1081	28	H17N7O9+
263.1868	15	C14H23N4O+
267.1572	5	C13H21N3O3+
268.1408	17	C11H18N5O3+
269.1255	58	C12H13N8+
272.1405	7	C17H20O3+
276.088	10	C15H10N5O+
280.2138	29	CH34N3O12+
285.1672	29	C11H21N6O3+
286.1516	18	C11H20N5O4+
287.1044	7	C3H19N4O11+
303.1782	17	C12H19N10+
314.1454	4	C12H20N5O5+
318.1457	5	C2H22N8O10+
329.1848	5	C17H23N5O2+
347.1979	8	C20H23N6+
375.1928	12	C21H23N6O+
