Mass spectrum: 4,6-dinitro-o-cresol; LC-ESI-QFT; MS2; CE: 75; R=35000; [M-H]-
Name: 4,6-dinitro-o-cresol
Name: DNOC
Name: 2-methyl-4,6-dinitro-phenol
Formula: C7H6N2O5
Exact mass: 198.02767
SMILES: [O-][N+](=O)c1cc([N+]([O-])=O)cc(c1O)C
InChI: InChI=1S/C7H6N2O5/c1-4-2-5(8(11)12)3-6(7(4)10)9(13)14/h2-3,10H,1H3
Instrument: Q Exactive Orbitrap Thermo Scientific
Instrument type: LC-ESI-QFT
Ms type: MS2
Ion mode: NEGATIVE
Ionization: ESI
Fragmentation mode: HCD
Collision energy: 75 (nominal)
Resolution: 35000
Column name: XBridge C18 3.5um, 2.1x50mm, Waters
Retention time: 8.0 min
Base peak: 197.0207
Precursor m/z: 197.0204
Precursor type: [M-H]-
m/z	relative intensity	assigned
63.0242	4	C5H3-
64.0193	39	C4H2N-
65.0033	9	C4HO-
65.0146	8	C3HN2-
65.0397	104	C5H5-
65.9985	19	C3NO-
66.0349	15	C4H4N-
67.019	31	C4H3O-
68.9983	12	C3HO2-
76.0195	3	C5H2N-
78.035	2	C5H4N-
80.0268	11	C5H4O-
81.0347	14	C5H5O-
88.0192	16	C6H2N-
93.0346	72	C6H5O-
108.0217	18	C6H4O2-
109.0296	999	C6H5O2-
110.0249	33	C5H4NO2-
120.0218	9	C7H4O2-
121.0296	64	C7H5O2-
122.0249	108	C6H4NO2-
123.0327	475	C6H5NO2-
134.0248	23	C7H4NO2-
136.0167	6	C7H4O3-
137.0244	571	C7H5O3-
138.0197	111	C6H4NO3-
139.0275	25	C6H5NO3-
140.0354	807	
150.0197	375	C7H4NO3-
151.0275	129	C7H5NO3-
166.0145	59	C7H4NO4-
167.0224	113	C7H5NO4-
180.0177	597	C7H4N2O4-
197.0204	131	C7H5N2O5-
212.0078	11	C7H4N2O6-
