Mass spectrum: Propyzamide; LC-ESI-QFT; MS2; CE: 75; R=35000; [M-H]-
Name: Propyzamide
Name: 3,5-bis(chloranyl)-N-(2-methylbut-3-yn-2-yl)benzamide
Name: Promamide
Formula: C12H11Cl2NO
Exact mass: 255.02177
SMILES: Clc1cc(C(=O)NC(C#C)(C)C)cc(Cl)c1
InChI: InChI=1S/C12H11Cl2NO/c1-4-12(2,3)15-11(16)8-5-9(13)7-10(14)6-8/h1,5-7H,2-3H3,(H,15,16)
Instrument: Q Exactive Orbitrap Thermo Scientific
Instrument type: LC-ESI-QFT
Ms type: MS2
Ion mode: NEGATIVE
Ionization: ESI
Fragmentation mode: HCD
Collision energy: 75 (nominal)
Resolution: 35000
Column name: XBridge C18 3.5um, 2.1x50mm, Waters
Retention time: 10.9 min
Base peak: 218.0312
Precursor m/z: 254.0145
Precursor type: [M-H]-
m/z	relative intensity	assigned
97.0659	68	C6H9O-
129.9947	14	CH6Cl2N3-
137.0604	9	C8H9O2-
144.9616	383	C6H3Cl2-
145.9894	999	CH6Cl2N3O-
146.9858	467	C2H7Cl2NO2-
147.9847	29	C6H6Cl2-
148.0052	29	CH8Cl2N3O-
164.0003	53	CH8Cl2N3O2-
165.9961	7	C6H8Cl2O-
171.9859	149	C8H6Cl2-
186.9724	29	C8H5Cl2O-
188.9515	8	C7H3Cl2O2-
189.9964	25	C8H8Cl2O-
