Mass spectrum: Iodosulfuron-methyl; LC-ESI-QFT; MS2; CE: 120; R=35000; [M+H]+
Name: Iodosulfuron-methyl
Name: Methyl 4-iodo-2-(N-(4-methoxy-6-methyl-1,3,5-triazin-2-ylcarbamoyl)sulfamoyl)benzoate
Name: Methyl 4-iodo-2-[(4-methoxy-6-methyl-1,3,5-triazin-2-yl)carbamoylsulfamoyl]benzoate
Formula: C14H14IN5O6S
Exact mass: 506.97095
SMILES: Cc2nc(NC(=O)NS(=O)(=O)c1cc(I)ccc1C(=O)OC)nc(OC)n2
InChI: InChI=1S/C14H14IN5O6S/c1-7-16-12(19-14(17-7)26-3)18-13(22)20-27(23,24)10-6-8(15)4-5-9(10)11(21)25-2/h4-6H,1-3H3,(H2,16,17,18,19,20,22)
Instrument: Q Exactive Plus Orbitrap Thermo Scientific
Instrument type: LC-ESI-QFT
Ms type: MS2
Ion mode: POSITIVE
Ionization: ESI
Fragmentation mode: HCD
Collision energy: 120 (nominal)
Resolution: 35000
Column name: XBridge C18 3.5um, 2.1x50mm, Waters
Retention time: 9.3 min
Base peak: 507.9772
Precursor m/z: 507.9782
Precursor type: [M+H]+
m/z	relative intensity	assigned
50.0151	68	C4H2+
51.023	10	C4H3+
52.0182	3	C3H2N+
52.0308	8	C4H4+
53.0022	15	C3HO+
53.0386	8	C4H5+
54.0464	1	C4H6+
55.0291	8	C2H3N2+
56.0131	33	C2H2NO+
56.0495	330	C3H6N+
57.0447	60	C2H5N2+
58.0288	429	C2H4NO+
61.0072	12	C5H+
62.0151	120	C5H2+
63.023	170	C5H3+
64.0308	12	C5H4+
65.0022	4	C4HO+
65.026	3	C4H3N+
66.0101	10	C4H2O+
66.0464	4	C5H6+
67.0291	24	C3H3N2+
68.0243	26	C2H2N3+
69.0083	999	C2HN2O+
69.9923	1	C2NO2+
74.0151	8	C6H2+
75.0103	22	C5HN+
75.0229	4	C6H3+
76.0307	223	C6H4+
77.0385	15	C6H5+
78.0464	51	C6H6+
78.9848	1	CH3O2S+
79.0178	7	C5H3O+
79.0417	5	C5H5N+
81.0335	18	C5H5O+
83.024	164	C3H3N2O+
85.0397	4	C3H5N2O+
88.0182	21	C6H2N+
89.026	62	C6H3N+
90.0339	1	C6H4N+
91.0179	43	C6H3O+
91.0417	19	C6H5N+
92.0256	1	C6H4O+
94.0036	6	C3N3O+
94.0414	7	C6H6O+
95.0493	12	C6H7O+
100.018	1	C7H2N+
100.0506	1	C3H6N3O+
101.026	36	C7H3N+
104.0256	5	C7H4O+
105.0335	20	C7H5O+
105.0448	8	C6H5N2+
107.0366	1	C6H5NO+
117.021	21	C7H3NO+
119.0128	10	C7H3O2+
119.024	6	C6H3N2O+
119.0365	7	C7H5NO+
126.9038	1	I+
134.0363	11	C8H6O2+
136.0153	1	C7H4O3+
140.9196	4	CH2I+
145.016	1	C8H3NO2+
151.0266	2	C7H5NO3+
152.0106	1	C7H4O4+
154.8989	1	CIO+
164.9197	9	C3H2I+
166.0262	12	C8H6O4+
177.0059	2	C8H3NO4+
188.9193	1	C5H2I+
215.9307	20	C6H3IN+
217.9225	20	C6H3IO+
220.946	1	C6H6IO+
230.941	3	C6H4IN2+
