Mass spectrum: Imibenconazole; LC-ESI-QFT; MS2; CE: 150%; R=17500; [M+H]+
Name: Imibenconazole
Name: (4-chlorophenyl)methyl N-(2,4-dichlorophenyl)-2-(1,2,4-triazol-1-yl)ethanimidothioate
Formula: C17H13Cl3N4S
Exact mass: 409.9927
SMILES: C1=CC(=CC=C1CSC(=NC2=C(C=C(C=C2)Cl)Cl)CN3C=NC=N3)Cl
InChI: InChI=1S/C17H13Cl3N4S/c18-13-3-1-12(2-4-13)9-25-17(8-24-11-21-10-22-24)23-16-6-5-14(19)7-15(16)20/h1-7,10-11H,8-9H2
Instrument: Exploris 240 Orbitrap Thermo Scientific
Instrument type: LC-ESI-QFT
Ms type: MS2
Ion mode: POSITIVE
Ionization: ESI
Fragmentation mode: HCD
Collision energy: 150 % (nominal)
Resolution: 17500
Column name: XBridge C18 3.5um, 2.1x50mm, Waters
Retention time: 13.632 min
Base peak: 410.9998
Precursor m/z: 410.9999
Precursor type: [M+H]+
m/z	relative intensity	assigned
51.0228	9	C4H3+
62.0151	20	C5H2+
63.0229	302	C5H3+
64.0306	11	C5H4+
65.0384	64	C5H5+
70.0398	41	C2H4N3+
72.984	152	C3H2Cl+
74.0148	19	C6H2+
74.9996	63	C3H4Cl+
75.0229	20	C6H3+
82.04	15	C3H4N3+
89.0385	999	C7H5+
90.0464	379	C7H6+
96.984	13	C5H2Cl+
98.9995	556	C5H4Cl+
108.984	16	C6H2Cl+
125.0152	571	C7H6Cl+
146.0059	28	C8H4NS+
154.9717	17	C7H4ClS+
