Mass spectrum: Metoprolol; LC-ESI-ITFT; MS2; CE: 35%; R=7500; [M+H]+
Name: Metoprolol
Name: 1-(isopropylamino)-3-[4-(2-methoxyethyl)phenoxy]propan-2-ol
Formula: C15H25NO3
Exact mass: 267.1834
SMILES: COCCC1=CC=C(OCC(O)CNC(C)C)C=C1
InChI: InChI=1S/C15H25NO3/c1-12(2)16-10-14(17)11-19-15-6-4-13(5-7-15)8-9-18-3/h4-7,12,14,16-17H,8-11H2,1-3H3
Instrument: LTQ Orbitrap XL Thermo Scientific
Instrument type: LC-ESI-ITFT
Ms type: MS2
Ion mode: POSITIVE
Ionization: ESI
Fragmentation mode: CID
Collision energy: 35 % (nominal)
Resolution: 7500
Column name: XBridge C18 3.5um, 2.1x50mm, Waters
Retention time: 5.1 min
Base peak: 268.1916
Precursor m/z: 268.1907
Precursor type: [M+H]+
m/z	relative intensity	assigned
98.0964	132	C6H12N+
116.107	927	C6H14NO+
121.0647	169	C8H9O+
131.0858	20	C10H11+
133.0647	78	C9H9O+
135.0806	12	C9H11O+
159.0805	315	C11H11O+
161.0961	68	C11H13O+
163.1117	28	C11H15O+
165.0907	33	C10H13O2+
176.107	161	C11H14NO+
177.091	90	C11H13O2+
191.1067	999	C12H15O2+
194.1176	148	C11H16NO2+
201.1279	14	C14H17O+
218.1538	470	C14H20NO+
226.1437	287	C12H20NO3+
233.1546	13	C15H21O2+
250.1801	178	C15H24NO2+
