Mass spectrum: Fipronil-sulfide; LC-ESI-ITFT; MS2; CE: 30%; R=7500; [M+H]+
Name: Fipronil-sulfide
Name: 5-Amino-1-[2,6-dichloro-4-(trifluoromethyl)phenyl]-4-[(trifluoromethyl)sulfanyl]-1H-pyrazole-3-carbonitrile
Formula: C12H4Cl2F6N4S
Exact mass: 419.9438
SMILES: FC(F)(F)c2cc(Cl)c(n1nc(C#N)c(SC(F)(F)F)c1N)c(Cl)c2
InChI: InChI=1S/C12H4Cl2F6N4S/c13-5-1-4(11(15,16)17)2-6(14)8(5)24-10(22)9(7(3-21)23-24)25-12(18,19)20/h1-2H,22H2
Instrument: LTQ Orbitrap XL Thermo Scientific
Instrument type: LC-ESI-ITFT
Ms type: MS2
Ion mode: POSITIVE
Ionization: ESI
Fragmentation mode: HCD
Collision energy: 30 % (nominal)
Resolution: 7500
Column name: XBridge C18 3.5um, 2.1x50mm, Waters
Retention time: 13.0 min
Base peak: 442.9332
Precursor m/z: 420.9511
Precursor type: [M+H]+
m/z	relative intensity	assigned
87.0007	2	C2H3N2S+
96.9855	2	C3HN2S+
181.9998	3	C9H4F2S+
262.9645	2	C9H3ClF3N2S+
264.9814	5	C9H5ClF3N2S+
284.0061	2	C11H4ClF3N4+
285.0141	4	C11H5ClF3N4+
315.9794	2	C11H4ClF3N4S+
316.9868	114	C11H5ClF3N4S+
319.9839	27	C11H5Cl2F3N4+
335.9362	15	C11H3Cl2F3N3S+
351.9554	27	C11H5Cl2F3N4S+
365.9746	2	C12H4ClF5N4S+
385.9815	8	C12H5ClF6N4S+
420.9506	999	C12H5Cl2F6N4S+
421.9542	8	C10H5Cl2F5N6OS+
