Mass spectrum: Enzalutamide; LC-ESI-QFT; MS2; CE: 60%; R=15000; [M+H]+
Name: Enzalutamide
Name: 4-[3-[4-cyano-3-(trifluoromethyl)phenyl]-5,5-dimethyl-4-oxo-2-sulfanylideneimidazolidin-1-yl]-2-fluoro-N-methylbenzamide
Name: 4-[3-[4-cyano-3-(trifluoromethyl)phenyl]-5,5-dimethyl-4-oxidanylidene-2-sulfanylidene-imidazolidin-1-yl]-2-fluoranyl-N-methyl-benzamide
Formula: C21H16F4N4O2S
Exact mass: 464.0930096
SMILES: CC1(C(=O)N(C(=S)N1C2=CC(=C(C=C2)C(=O)NC)F)C3=CC(=C(C=C3)C#N)C(F)(F)F)C
InChI: InChI=1S/C21H16F4N4O2S/c1-20(2)18(31)28(12-5-4-11(10-26)15(8-12)21(23,24)25)19(32)29(20)13-6-7-14(16(22)9-13)17(30)27-3/h4-9H,1-3H3,(H,27,30)
Instrument: Q Exactive
Instrument type: LC-ESI-QFT
Ms type: MS2
Ion mode: POSITIVE
Ionization: ESI
Fragmentation mode: HCD
Collision energy: 60 % (nominal)
Resolution: 15000
Column name: XBridge C18 3.5um, 2.1x50mm, Waters
Retention time: 8.365 min
Base peak: 465.1004
Precursor m/z: 465.1003
Precursor type: [M+H]+
Precursor intensity: 640774504.06
m/z	relative intensity	assigned
58.0288	338	C2H4NO+
109.045	54	C7H6F+
112.0557	220	C6H7FN+
115.0543	49	C9H7+
124.0558	40	C7H7FN+
133.0452	18	C9H6F+
135.0479	66	C8H6FN+
137.0398	126	C8H6FO+
150.0714	31	C9H9FN+
151.0426	32	C3H5F2N4O+
152.087	563	C9H11FN+
154.9962	140	C7H4FOS+
156.0277	874	C7H7FNS+
160.0093	28	C8H4N2S+
170.0212	45	C8H3F3N+
178.0662	999	C10H9FNO+
208.9983	54	C9H3F2N2S+
209.1085	440	C11H14FN2O+
227.0084	41	C9H5F2N2OS+
229.0042	304	C9H4F3N2S+
252.0746	199	C12H9F3N3+
