Mass spectrum: Fexofenadine; LC-ESI-QFT; MS2; CE: 75; R=35000; [M+H]+
Name: Fexofenadine
Name: 2-[4-[1-hydroxy-4-[4-[hydroxy(diphenyl)methyl]-1-piperidinyl]butyl]phenyl]-2-methylpropanoic acid
Formula: C32H39NO4
Exact mass: 501.28791
SMILES: CC(C)(C1=CC=C(C=C1)C(CCCN2CCC(CC2)C(C3=CC=CC=C3)(C4=CC=CC=C4)O)O)C(=O)O
InChI: InChI=1S/C32H39NO4/c1-31(2,30(35)36)25-17-15-24(16-18-25)29(34)14-9-21-33-22-19-28(20-23-33)32(37,26-10-5-3-6-11-26)27-12-7-4-8-13-27/h3-8,10-13,15-18,28-29,34,37H,9,14,19-23H2,1-2H3,(H,35,36)
Instrument: Q Exactive Orbitrap Thermo Scientific
Instrument type: LC-ESI-QFT
Ms type: MS2
Ion mode: POSITIVE
Ionization: ESI
Fragmentation mode: HCD
Collision energy: 75 (nominal)
Resolution: 35000
Column name: XBridge C18 3.5um, 2.1x50mm, Waters
Retention time: 8.2 min
Base peak: 502.2954
Precursor m/z: 502.2952
Precursor type: [M+H]+
m/z	relative intensity	assigned
70.0651	26	C4H8N+
74.0601	2	C3H8NO+
77.0384	2	C6H5+
79.0543	20	C6H7+
80.0495	51	C5H6N+
81.0699	10	C6H9+
82.0652	102	C5H8N+
83.0729	24	C5H9N+
84.0808	16	C5H10N+
85.0884	2	C5H11N+
87.044	45	C4H7O2+
91.0542	999	C7H7+
93.0698	11	C7H9+
94.0651	32	C6H8N+
95.0491	10	C6H7O+
95.073	4	C6H9N+
96.0808	88	C6H10N+
98.0964	62	C6H12N+
103.0543	37	C8H7+
104.0623	2	C8H8+
105.0335	9	C7H5O+
105.0699	149	C8H9+
107.0491	85	C7H7O+
108.0808	14	C7H10N+
110.0964	11	C7H12N+
115.0542	168	C9H7+
116.062	97	C9H8+
117.0699	170	C9H9+
118.0777	2	C9H10+
119.0855	12	C9H11+
120.0807	26	C8H10N+
121.0285	5	C7H5O2+
121.0649	2	C8H9O+
121.0885	2	C8H11N+
122.0963	35	C8H12N+
124.112	46	C8H14N+
128.0621	338	C10H8+
129.0699	748	C10H9+
130.0778	70	C10H10+
131.0856	762	C10H11+
132.081	4	C9H10N+
132.0933	12	C10H12+
133.0647	6	C9H9O+
133.1012	39	C10H13+
134.0962	2	C9H12N+
141.0699	118	C11H9+
142.0778	90	C11H10+
143.0856	690	C11H11+
145.0648	25	C10H9O+
145.1012	116	C11H13+
146.0727	21	C10H10O+
147.0805	10	C10H11O+
152.062	13	C12H8+
153.0701	19	C12H9+
154.0778	2	C12H10+
155.0605	20	C10H7N2+
155.0855	48	C12H11+
156.0934	105	C12H12+
157.1012	41	C12H13+
158.0968	6	C11H12N+
159.1169	12	C12H15+
165.0699	27	C13H9+
166.0778	23	C13H10+
167.0856	51	C13H11+
169.1012	51	C13H13+
170.0966	31	C12H12N+
171.1168	914	C13H15+
172.1117	11	C12H14N+
173.1324	27	C13H17+
177.091	28	C11H13O2+
178.0777	16	C14H10+
179.0855	13	C14H11+
181.1014	4	C14H13+
183.117	6	C14H15+
184.0885	3	C13H12O+
184.1122	10	C13H14N+
188.1198	4	C13H16O+
189.1271	17	C13H17O+
190.0778	12	C15H10+
191.0703	156	C11H11O3+
191.0852	30	C15H11+
199.112	2	C14H15O+
200.1432	3	C14H18N+
202.0779	4	C16H10+
203.0853	38	C16H11+
204.0932	30	C16H12+
205.1012	28	C16H13+
215.0854	21	C17H11+
216.0937	23	C17H12+
217.1016	16	C17H13+
218.1091	24	C17H14+
219.1172	11	C17H15+
231.1171	13	C18H15+
233.1176	20	C14H17O3+
260.1437	5	C19H18N+
260.1648	5	C16H22NO2+
262.1589	29	C19H20N+
274.1599	3	C20H20N+
288.1752	4	C21H22N+
298.1804	14	C19H24NO2+
450.243	10	C31H32NO2+
