Mass spectrum: Maprotiline; LC-ESI-QFT; MS2; CE: 45; R=35000; [M+H]+
Name: Maprotiline
Formula: C20H23N
Exact mass: 277.18305
SMILES: CNCCCC12CCC(C3=CC=CC=C31)C4=CC=CC=C24
InChI: InChI=1S/C20H23N/c1-21-14-6-12-20-13-11-15(16-7-2-4-9-18(16)20)17-8-3-5-10-19(17)20/h2-5,7-10,15,21H,6,11-14H2,1H3
Instrument: Q Exactive Orbitrap Thermo Scientific
Instrument type: LC-ESI-QFT
Ms type: MS2
Ion mode: POSITIVE
Ionization: ESI
Fragmentation mode: HCD
Collision energy: 45 (nominal)
Resolution: 35000
Column name: XBridge C18 3.5um, 2.1x50mm, Waters
Retention time: 8.5 min
Base peak: 278.1906
Precursor m/z: 278.1903
Precursor type: [M+H]+
m/z	relative intensity	assigned
65.0384	1	C5H5+
69.0699	3	C5H9+
70.0651	18	C4H8N+
72.0808	14	C4H10N+
91.0542	231	C7H7+
105.0699	23	C8H9+
115.0542	8	C9H7+
117.0698	472	C9H9+
119.0855	19	C9H11+
128.0621	3	C10H8+
129.0699	36	C10H9+
131.0855	140	C10H11+
141.0698	97	C11H9+
143.0856	70	C11H11+
154.0775	2	C12H10+
155.0855	19	C12H11+
169.1012	241	C13H13+
178.0777	117	C14H10+
179.0855	17	C14H11+
189.0698	1	C15H9+
190.0775	1	C15H10+
191.0855	216	C15H11+
193.1012	70	C15H13+
203.0846	5	C16H11+
204.0934	19	C16H12+
205.1013	67	C16H13+
217.1015	3	C17H13+
218.1094	7	C17H14+
219.1169	752	C17H15+
232.1254	3	C18H16+
247.1482	23	C19H19+
250.1591	999	C18H20N+
278.1904	226	C20H24N+
