Mass spectrum: EDDP; LC-ESI-ITFT; MS2; CE: 90%; R=7500; [M+H]+
Name: EDDP
Name: (2E)-2-ethylidene-1,5-dimethyl-3,3-diphenyl-pyrrolidine
Formula: C20H23N
Exact mass: 277.1830
SMILES: C/C=C/1\C(CC(N1C)C)(C2=CC=CC=C2)C3=CC=CC=C3
InChI: InChI=1S/C20H23N/c1-4-19-20(15-16(2)21(19)3,17-11-7-5-8-12-17)18-13-9-6-10-14-18/h4-14,16H,15H2,1-3H3/b19-4+
Instrument: LTQ Orbitrap XL Thermo Scientific
Instrument type: LC-ESI-ITFT
Ms type: MS2
Ion mode: POSITIVE
Ionization: ESI
Fragmentation mode: HCD
Collision energy: 90 % (nominal)
Resolution: 7500
Column name: XBridge C18 3.5um, 2.1x50mm, Waters
Retention time: 6.5 min
Base peak: 278.1909
Precursor m/z: 278.1903
Precursor type: [M+H]+
m/z	relative intensity	assigned
58.0651	7	C3H8N+
70.065	9	C4H8N+
91.0542	80	C7H7+
103.0543	25	C8H7+
105.07	20	C8H9+
115.0543	45	C9H7+
117.0698	14	C9H9+
118.0652	31	C8H8N+
124.1122	11	C8H14N+
128.062	21	C10H8+
129.0699	40	C10H9+
132.0805	9	C9H10N+
143.073	20	C10H9N+
144.0814	15	C10H10N+
156.081	24	C11H10N+
157.0886	181	C11H11N+
158.0964	346	C11H12N+
165.0697	11	C13H9+
170.0965	61	C12H12N+
171.1043	73	C12H13N+
172.1121	76	C12H14N+
178.0779	33	C14H10+
186.1278	661	C13H16N+
191.0854	24	C15H11+
200.1434	53	C14H18N+
202.0783	15	C16H10+
203.0853	13	C16H11+
206.0963	43	C15H12N+
207.1043	86	C15H13N+
218.0967	69	C16H12N+
219.1043	464	C16H13N+
220.112	26	C16H14N+
232.1124	27	C17H14N+
233.1197	58	C17H15N+
234.1277	999	C17H16N+
248.1434	62	C18H18N+
249.1513	17	C18H19N+
262.1597	10	C19H20N+
