Mass spectrum: Pyridate; LC-ESI-QFT; MS2; CE: 75; R=35000; [M+H]+
Name: Pyridate
Name: Pyridat
Name: (6-chloro-3-phenylpyridazin-4-yl) octylsulfanylformate
Formula: C19H23ClN2O2S
Exact mass: 378.11688
SMILES: O=C(SCCCCCCCC)Oc2cc(Cl)nnc2c1ccccc1
InChI: InChI=1S/C19H23ClN2O2S/c1-2-3-4-5-6-10-13-25-19(23)24-16-14-17(20)21-22-18(16)15-11-8-7-9-12-15/h7-9,11-12,14H,2-6,10,13H2,1H3
Instrument: Q Exactive Plus Orbitrap Thermo Scientific
Instrument type: LC-ESI-QFT
Ms type: MS2
Ion mode: POSITIVE
Ionization: ESI
Fragmentation mode: HCD
Collision energy: 75 (nominal)
Resolution: 35000
Column name: XBridge C18 3.5um, 2.1x50mm, Waters
Retention time: 18.1 min
Base peak: 379.1241
Precursor m/z: 379.1242
Precursor type: [M+H]+
m/z	relative intensity	assigned
50.0151	7	C4H2+
51.0229	11	C4H3+
53.0022	21	C3HO+
53.0386	112	C4H5+
53.9975	7	C2NO+
55.0179	5	C3H3O+
55.0543	35	C4H7+
57.0699	281	C4H9+
61.0107	4	C2H5S+
61.9792	81	CHClN+
68.0131	821	C3H2NO+
69.0699	64	C5H9+
71.0855	57	C5H11+
75.9948	3	C2H3ClN+
77.0385	169	C6H5+
81.0336	14	C5H5O+
81.0699	1	C6H9+
91.0543	4	C7H7+
94.0413	9	C6H6O+
95.0492	432	C6H7O+
103.9898	136	C3H3ClNO+
104.0495	999	C7H6N+
105.0448	236	C6H5N2+
106.0418	1	C4H9ClN+
109.0649	1	C7H9O+
115.0543	28	C9H7+
116.0495	29	C8H6N+
116.0621	5	C9H8+
117.0573	7	C8H7N+
118.065	6	C8H8N+
125.0154	4	C7H6Cl+
126.0465	141	C10H6+
138.0105	47	C7H5ClN+
140.0262	24	C7H7ClN+
143.0605	38	C9H7N2+
144.0444	9	C9H6NO+
144.0684	14	C9H8N2+
152.0262	5	C8H7ClN+
161.0153	48	C10H6Cl+
171.0553	14	C10H7N2O+
179.0371	113	C9H8ClN2+
205.0164	8	C10H6ClN2O+
207.0322	838	C10H8ClN2O+
