Mass spectrum: Lidocaine-N-Oxide; LC-ESI-QFT; MS2; CE: 60; R=35000; [M+H]+
Name: Lidocaine-N-Oxide
Name: Lignocaine N-oxide
Name: 2-(2,6-dimethylanilino)-N,N-diethyl-2-oxoethanamine oxide
Formula: C14H22N2O2
Exact mass: 250.16813
SMILES: CC[N+](CC)(CC(=O)NC1=C(C=CC=C1C)C)[O-]
InChI: InChI=1S/C14H22N2O2/c1-5-16(18,6-2)10-13(17)15-14-11(3)8-7-9-12(14)4/h7-9H,5-6,10H2,1-4H3,(H,15,17)
Instrument: Q Exactive Plus Orbitrap Thermo Scientific
Instrument type: LC-ESI-QFT
Ms type: MS2
Ion mode: POSITIVE
Ionization: ESI
Fragmentation mode: HCD
Collision energy: 60 (nominal)
Resolution: 35000
Column name: XBridge C18 3.5um, 2.1x50mm, Waters
Retention time: 4.8 min
Base peak: 251.1752
Precursor m/z: 251.1754
Precursor type: [M+H]+
m/z	relative intensity	assigned
56.0494	5	C3H6N+
58.0651	105	C3H8N+
60.0444	102	C2H6NO+
72.0807	20	C4H10N+
73.0885	1	C4H11N+
74.06	66	C3H8NO+
74.0964	9	C4H12N+
79.0542	4	C6H7+
84.0808	14	C5H10N+
86.0964	999	C5H12N+
88.0756	290	C4H10NO+
90.0914	3	C4H12NO+
91.0542	1	C7H7+
93.0698	1	C7H9+
103.0542	2	C8H7+
105.0699	54	C8H9+
106.0651	1	C7H8N+
107.0729	7	C7H9N+
107.0856	2	C8H11+
112.0755	2	C6H10NO+
119.0731	1	C8H9N+
119.0856	1	C9H11+
120.0808	215	C8H10N+
121.0648	2	C8H9O+
121.0885	9	C8H11N+
122.0964	75	C8H12N+
123.0804	11	C8H11O+
130.0862	2	C6H12NO2+
132.0806	3	C9H10N+
133.0759	5	C8H9N2+
134.0964	14	C9H12N+
146.0965	2	C10H12N+
147.0678	2	C9H9NO+
148.0756	42	C9H10NO+
150.0913	2	C9H12NO+
162.0913	1	C10H12NO+
163.0627	3	C9H9NO2+
163.0992	2	C10H13NO+
164.107	21	C10H14NO+
233.1649	1	C14H21N2O+
