Mass spectrum: Metoxuron; LC-ESI-QFT; MS2; CE: 90; R=35000; [M-H]-
Name: Metoxuron
Name: 3-(3-chloro-4-methoxyphenyl)-1,1-dimethylurea
Formula: C10H13ClN2O2
Exact mass: 228.06656
SMILES: Clc1cc(ccc1OC)NC(=O)N(C)C
InChI: InChI=1S/C10H13ClN2O2/c1-13(2)10(14)12-7-4-5-9(15-3)8(11)6-7/h4-6H,1-3H3,(H,12,14)
Instrument: Q Exactive Plus Orbitrap Thermo Scientific
Instrument type: LC-ESI-QFT
Ms type: MS2
Ion mode: NEGATIVE
Ionization: ESI
Fragmentation mode: HCD
Collision energy: 90 (nominal)
Resolution: 35000
Column name: XBridge C18 3.5um, 2.1x50mm, Waters
Retention time: 6.0 min
Base peak: 182.9883
Precursor m/z: 227.0593
Precursor type: [M-H]-
m/z	relative intensity	assigned
64.0192	1	C4H2N-
65.0033	3	C4HO-
65.9985	11	C3NO-
76.0193	3	C5H2N-
89.0033	79	C6HO-
91.0189	3	C6H3O-
106.0298	1	C6H4NO-
118.0299	43	C7H4NO-
126.9953	2	C6H4ClO-
132.0091	261	C7H2NO2-
132.0454	13	C8H6NO-
139.9908	11	C6H3ClNO-
140.9988	8	C9HO2-
151.9909	153	C10O2-
152.9987	5	C7H4ClNO-
154.0066	999	C7H5ClNO-
155.0101	2	C2H6ClN3O3-
166.0062	1	C8H5ClNO-
167.9858	738	C7H3ClNO2-
168.0221	341	C8H7ClNO-
197.0126	3	C8H6ClN2O2-
