Mass spectrum: Diphenyl-phthalate; LC-ESI-QFT; MS2; CE: 180; R=35000; [M+H]+
Name: Diphenyl-phthalate
Name: Diphenyl phthalate
Name: Diphenyl benzene-1,2-dicarboxylate
Formula: C20H14O4
Exact mass: 318.08921
SMILES: C1=CC=C(C=C1)OC(=O)C2=CC=CC=C2C(=O)OC3=CC=CC=C3
InChI: InChI=1S/C20H14O4/c21-19(23-15-9-3-1-4-10-15)17-13-7-8-14-18(17)20(22)24-16-11-5-2-6-12-16/h1-14H
Instrument: Q Exactive Plus Orbitrap Thermo Scientific
Instrument type: LC-ESI-QFT
Ms type: MS2
Ion mode: POSITIVE
Ionization: ESI
Fragmentation mode: HCD
Collision energy: 180 (nominal)
Resolution: 35000
Column name: XBridge C18 3.5um, 2.1x50mm, Waters
Retention time: 12.9 min
Base peak: 225.054
Precursor m/z: 319.0965
Precursor type: [M+H]+
m/z	relative intensity	assigned
50.0151	568	C4H2+
51.023	999	C4H3+
52.0182	1	C3H2N+
52.0308	5	C4H4+
53.0022	14	C3HO+
53.0386	21	C4H5+
62.0151	6	C5H2+
63.0229	25	C5H3+
65.0022	52	C4HO+
65.0386	27	C5H5+
66.01	10	C4H2O+
66.0463	1	C5H6+
74.015	21	C6H2+
75.0229	18	C6H3+
76.0307	9	C6H4+
77.0385	65	C6H5+
78.0463	1	C6H6+
81.0335	1	C5H5O+
89.0385	37	C7H5+
91.054	4	C7H7+
95.0491	45	C6H7O+
99.0226	3	C8H3+
102.0464	6	C8H6+
105.0447	32	C6H5N2+
115.0542	35	C9H7+
126.0465	14	C10H6+
139.0542	13	C11H7+
150.0464	16	C12H6+
152.0622	8	C12H8+
169.0646	7	C12H9O+
