Mass spectrum: Paclobutrazole; LC-ESI-QFT; MS2; CE: 180; R=35000; [M+H]+
Name: Paclobutrazole
Name: Paclobutrazol
Name: 1-(4-chlorophenyl)-4,4-dimethyl-2-(1,2,4-triazol-1-yl)pentan-3-ol
Formula: C15H20ClN3O
Exact mass: 293.12949
SMILES: CC(C)(C)C(C(CC1=CC=C(C=C1)Cl)N2C=NC=N2)O
InChI: InChI=1S/C15H20ClN3O/c1-15(2,3)14(20)13(19-10-17-9-18-19)8-11-4-6-12(16)7-5-11/h4-7,9-10,13-14,20H,8H2,1-3H3
Instrument: Q Exactive Plus Orbitrap Thermo Scientific
Instrument type: LC-ESI-QFT
Ms type: MS2
Ion mode: POSITIVE
Ionization: ESI
Fragmentation mode: HCD
Collision energy: 180 (nominal)
Resolution: 35000
Column name: XBridge C18 3.5um, 2.1x50mm, Waters
Retention time: 10.6 min
Base peak: 294.1362
Precursor m/z: 294.1368
Precursor type: [M+H]+
m/z	relative intensity	assigned
50.0152	18	C4H2+
51.023	47	C4H3+
53.0022	14	C3HO+
53.0386	9	C4H5+
53.9974	3	C2NO+
57.0335	3	C3H5O+
59.0492	5	C3H7O+
61.0073	7	C5H+
62.0151	35	C5H2+
63.023	210	C5H3+
64.0308	16	C5H4+
65.0386	34	C5H5+
66.0464	3	C5H6+
70.04	999	C2H4N3+
72.984	143	C3H2Cl+
74.0151	13	C6H2+
74.9996	18	C3H4Cl+
75.0229	44	C6H3+
76.0308	9	C6H4+
77.0386	13	C6H5+
78.0464	11	C6H6+
81.0333	1	C5H5O+
89.0386	285	C7H5+
90.0465	54	C7H6+
91.0543	13	C7H7+
95.0492	31	C6H7O+
96.984	5	C5H2Cl+
98.9997	103	C5H4Cl+
102.0464	17	C8H6+
103.0542	9	C8H7+
105.0448	15	C6H5N2+
115.0543	38	C9H7+
125.0153	22	C7H6Cl+
127.0541	3	C10H7+
128.0621	15	C10H8+
129.0701	1	C10H9+
141.0699	4	C11H9+
155.0603	3	C10H7N2+
