Mass spectrum: Diuron-desmethyl; LC-ESI-ITFT; MS2; CE: 90%; R=30000; [M+H]+
Name: Diuron-desmethyl
Name: DCPMU
Name: 1-(3,4-dichlorophenyl)-3-methyl-urea
Formula: C8H8Cl2N2O
Exact mass: 218.0014
SMILES: c1(cc(c(Cl)cc1)Cl)NC(NC)=O
InChI: InChI=1S/C8H8Cl2N2O/c1-11-8(13)12-5-2-3-6(9)7(10)4-5/h2-4H,1H3,(H2,11,12,13)
Instrument: LTQ Orbitrap XL Thermo Scientific
Instrument type: LC-ESI-ITFT
Ms type: MS2
Ion mode: POSITIVE
Ionization: ESI
Fragmentation mode: HCD
Collision energy: 90 % (nominal)
Resolution: 30000
Column name: XBridge C18 3.5um, 2.1x50mm, Waters
Retention time: 8.5 min
Base peak: 245.0789
Precursor m/z: 219.0086
Precursor type: [M+H]+
m/z	relative intensity	assigned
58.0287	31	C2H4NO+
91.0418	1	C6H5N+
92.0496	5	C6H6N+
98.9997	2	C5H4Cl+
100.0075	9	C5H5Cl+
108.984	2	C6H2Cl+
125.0027	5	C6H4ClN+
126.0107	3	C6H5ClN+
127.0184	999	C6H6ClN+
132.9607	15	C5H3Cl2+
144.9605	2	C6H3Cl2+
159.9716	20	C6H4Cl2N+
161.9873	21	C6H6Cl2N+
172.9668	15	C6H3Cl2N2+
