Mass spectrum: 7-amino-flunitrazepam; LC-ESI-QFT; MS2; CE: 30; R=35000; [M+H]+
Name: 7-amino-flunitrazepam
Name: 7-aminoflunitrazepam
Name: 7-amino-5-(2-fluorophenyl)-1-methyl-3H-1,4-benzodiazepin-2-one
Formula: C16H14FN3O
Exact mass: 283.11209
SMILES: CN1C(=O)CN=C(C2=C1C=CC(=C2)N)C3=CC=CC=C3F
InChI: InChI=1S/C16H14FN3O/c1-20-14-7-6-10(18)8-12(14)16(19-9-15(20)21)11-4-2-3-5-13(11)17/h2-8H,9,18H2,1H3
Instrument: Q Exactive Plus Orbitrap Thermo Scientific
Instrument type: LC-ESI-QFT
Ms type: MS2
Ion mode: POSITIVE
Ionization: ESI
Fragmentation mode: HCD
Collision energy: 30 (nominal)
Resolution: 35000
Column name: XBridge C18 3.5um, 2.1x50mm, Waters
Retention time: 4.9 min
Base peak: 284.1182
Precursor m/z: 284.1194
Precursor type: [M+H]+
m/z	relative intensity	assigned
123.0238	4	C7H4FO+
135.0914	17	C8H11N2+
148.0627	4	C8H8N2O+
161.0704	2	C9H9N2O+
163.0863	16	C9H11N2O+
226.0894	2	C14H11FN2+
227.0974	11	C14H12FN2+
236.1176	4	C15H14N3+
256.124	23	C15H15FN3+
264.1126	16	C16H14N3O+
284.1187	999	C16H15FN3O+
