Mass spectrum: Mebendazole; LC-ESI-QFT; MS2; CE: 120; R=35000; [M-H]-
Name: Mebendazole
Name: methyl N-(6-benzoyl-1H-benzimidazol-2-yl)carbamate
Formula: C16H13N3O3
Exact mass: 295.09569
SMILES: COC(=O)NC1=NC2=C(N1)C=C(C=C2)C(=O)C3=CC=CC=C3
InChI: InChI=1S/C16H13N3O3/c1-22-16(21)19-15-17-12-8-7-11(9-13(12)18-15)14(20)10-5-3-2-4-6-10/h2-9H,1H3,(H2,17,18,19,21)
Instrument: Q Exactive Plus Orbitrap Thermo Scientific
Instrument type: LC-ESI-QFT
Ms type: MS2
Ion mode: NEGATIVE
Ionization: ESI
Fragmentation mode: HCD
Collision energy: 120 (nominal)
Resolution: 35000
Column name: XBridge C18 3.5um, 2.1x50mm, Waters
Retention time: 7.5 min
Base peak: 262.0621
Precursor m/z: 294.0884
Precursor type: [M-H]-
m/z	relative intensity	assigned
50.0036	12	C3N-
63.0115	3	C4HN-
64.0068	4	C3N2-
64.0193	33	C4H2N-
65.0146	31	C3HN2-
65.9987	31	C3NO-
68.0018	4	C2N2O-
74.0038	14	C5N-
87.0115	56	C6HN-
88.0068	13	C5N2-
88.0194	27	C6H2N-
89.0146	14	C5HN2-
90.0225	27	C5H2N2-
91.0066	4	C5HNO-
92.0255	10	C4H2N3-
93.0095	11	C4HN2O-
95.0252	35	C4H3N2O-
101.0146	10	C6HN2-
102.0225	85	C6H2N2-
103.0062	2	C6HNO-
103.0176	17	C5HN3-
105.0332	10	C5H3N3-
106.0174	107	C5H2N2O-
108.0206	2	C4H2N3O-
113.0147	37	C7HN2-
114.0225	28	C7H2N2-
115.0304	558	C7H3N2-
117.009	2	C6HN2O-
120.0092	3	C6H2NO2-
129.0335	999	C7H3N3-
130.0173	16	C7H2N2O-
132.0205	16	C6H2N3O-
133.0283	369	C6H3N3O-
134.0123	4	C6H2N2O2-
136.0155	21	C5H2N3O2-
144.0204	2	C7H2N3O-
145.0284	20	C7H3N3O-
147.0202	13	C7H3N2O2-
149.0232	61	C6H3N3O2-
156.0206	121	C8H2N3O-
157.0284	789	C8H3N3O-
158.036	11	C8H4N3O-
160.0155	159	C7H2N3O2-
173.0233	75	C8H3N3O2-
186.0311	2	C9H4N3O2-
188.0104	4	C8H2N3O3-
192.0461	3	C13H6NO-
206.0489	3	C13H6N2O-
232.052	4	C14H6N3O-
260.0473	5	C15H6N3O2-
262.0626	3	C15H8N3O2-
