Mass spectrum: Lisinopril; LC-ESI-QFT; MS2; CE: 45%; R=15000; [M+H]+
Name: Lisinopril
Name: N2-(1-carboxy-3-phenylpropyl)lysylproline
Name: (2S)-1-[(2S)-6-azanyl-2-[[(2S)-1-oxidanyl-1-oxidanylidene-4-phenyl-butan-2-yl]amino]hexanoyl]pyrrolidine-2-carboxylic acid
Formula: C21H31N3O5
Exact mass: 405.2263711
SMILES: C1CC(N(C1)C(=O)C(CCCCN)NC(CCC2=CC=CC=C2)C(=O)O)C(=O)O
InChI: InChI=1S/C21H31N3O5/c22-13-5-4-9-16(19(25)24-14-6-10-18(24)21(28)29)23-17(20(26)27)12-11-15-7-2-1-3-8-15/h1-3,7-8,16-18,23H,4-6,9-14,22H2,(H,26,27)(H,28,29)
Instrument: Q Exactive
Instrument type: LC-ESI-QFT
Ms type: MS2
Ion mode: POSITIVE
Ionization: ESI
Fragmentation mode: HCD
Collision energy: 45 % (nominal)
Resolution: 15000
Column name: XBridge C18 3.5um, 2.1x50mm, Waters
Retention time: 3.547 min
Base peak: 406.2339
Precursor m/z: 406.2336
Precursor type: [M+H]+
Precursor intensity: 585202611.16
m/z	relative intensity	assigned
70.0652	12	C4H8N+
84.0809	999	C5H10N+
96.081	11	C6H10N+
200.1434	36	C14H18N+
246.149	139	C15H20NO2+
