Mass spectrum: Lorazepam; LC-ESI-QFT; MS2; CE: 90; R=35000; [M-H]-
Name: Lorazepam
Name: 2H-1,4-Benzodiazepin-2-one, 7-chloro-5-(2-chlorophenyl)-1,3-dihydro-3-hydroxy-
Name: 7-chloranyl-5-(2-chlorophenyl)-3-oxidanyl-1,3-dihydro-1,4-benzodiazepin-2-one
Formula: C15H10Cl2N2O2
Exact mass: 320.01193
SMILES: Clc3ccccc3C/2=N/C(O)C(=O)Nc1c\2cc(Cl)cc1
InChI: InChI=1S/C15H10Cl2N2O2/c16-8-5-6-12-10(7-8)13(19-15(21)14(20)18-12)9-3-1-2-4-11(9)17/h1-7,15,21H,(H,18,20)
Instrument: Q Exactive Orbitrap Thermo Scientific
Instrument type: LC-ESI-QFT
Ms type: MS2
Ion mode: NEGATIVE
Ionization: ESI
Fragmentation mode: HCD
Collision energy: 90 (nominal)
Resolution: 35000
Column name: XBridge C18 3.5um, 2.1x50mm, Waters
Retention time: 9.0 min
Base peak: 319.005
Precursor m/z: 319.0047
Precursor type: [M-H]-
m/z	relative intensity	assigned
65.0033	14	C4HO-
65.9986	125	C3NO-
74.0038	17	C5N-
88.0194	42	C6H2N-
102.035	999	C7H4N-
116.0144	233	C7H2NO-
125.0143	24	C8HN2-
143.0248	17	C8H3N2O-
144.0091	11	C8H2NO2-
146.025	15	C8H4NO2-
151.007	220	C7H4ClN2-
151.9909	268	C7H3ClNO-
164.0504	15	C12H6N-
179.0017	241	C8H4ClN2O-
191.0617	46	C13H7N2-
192.0455	21	C13H6NO-
218.0483	14	C14H6N2O-
219.0557	40	C14H7N2O-
228.0224	39	C13H7ClNO-
253.0176	129	C14H6ClN2O-
