Mass spectrum: Dimethoate; LC-ESI-ITFT; MS2; CE: 90%; R=15000; [M+H]+
Name: Dimethoate
Name: 2-(dimethoxyphosphinothioylthio)-N-methylacetamide
Formula: C5H12NO3PS2
Exact mass: 228.9996
SMILES: P(SCC(NC)=O)(OC)(OC)=S
InChI: InChI=1S/C5H12NO3PS2/c1-6-5(7)4-12-10(11,8-2)9-3/h4H2,1-3H3,(H,6,7)
Instrument: LTQ Orbitrap XL Thermo Scientific
Instrument type: LC-ESI-ITFT
Ms type: MS2
Ion mode: POSITIVE
Ionization: ESI
Fragmentation mode: HCD
Collision energy: 90 % (nominal)
Resolution: 15000
Column name: XBridge C18 3.5um, 2.1x50mm, Waters
Retention time: 5.2 min
Base peak: 230.007
Precursor m/z: 230.0069
Precursor type: [M+H]+
m/z	relative intensity	assigned
58.995	10	C2H3S+
59.9997	5	CH3NP+
61.0106	11	C2H5S+
62.0184	41	C2H6S+
62.9452	2	PS+
62.9994	29	CH4OP+
72.0442	3	C3H6NO+
76.0215	15	C2H6NS+
78.0103	12	CH5NOP+
78.9943	597	CH4O2P+
88.0215	50	C3H6NS+
92.0259	14	C2H7NOP+
93.0099	256	C2H6O2P+
94.9716	7	CH4OPS+
97.005	6	CH6O3P+
104.0163	4	C3H6NOS+
109.0047	5	C2H6O3P+
110.9663	48	CH4O2PS+
111.0206	12	C2H8O3P+
119.9935	4	C3H6NS2+
123.998	55	C2H7NOPS+
124.982	999	C2H6O2PS+
127.0154	29	C2H8O4P+
128.9769	77	CH6O3PS+
142.9925	903	C2H8O3PS+
155.9701	7	C2H7NOPS2+
156.954	44	C2H6O2PS2+
