Mass spectrum: [D-Asp3,E-Dhb7]-Microcystin-RR; LC-ESI-QFT; MS2; CE: 45%; R=17500; [M-H]-
Name: [D-Asp3,E-Dhb7]-Microcystin-RR
Name: 8,15-bis[3-(diaminomethylideneamino)propyl]-2-ethylidene-18-(6-methoxy-3,5-dimethyl-7-phenylhepta-1,3-dienyl)-5,19-dimethyl-3,6,9,13,16,20,25-heptaoxo-1,4,7,10,14,17,21-heptazacyclopentacosane-11,22-dicarboxylic acid
Formula: C48H73N13O12
Exact mass: 1023.5502
SMILES: CC=C1C(=O)NC(C(=O)NC(C(=O)NC(CC(=O)NC(C(=O)NC(C(C(=O)NC(CCC(=O)N1)C(=O)O)C)C=CC(=CC(C)C(CC2=CC=CC=C2)OC)C)CCCN=C(N)N)C(=O)O)CCCN=C(N)N)C
InChI: InChI=1S/C48H73N13O12/c1-7-31-42(66)55-29(5)41(65)59-34(16-12-22-54-48(51)52)44(68)61-36(46(71)72)25-39(63)57-33(15-11-21-53-47(49)50)43(67)58-32(28(4)40(64)60-35(45(69)70)19-20-38(62)56-31)18-17-26(2)23-27(3)37(73-6)24-30-13-9-8-10-14-30/h7-10,13-14,17-18,23,27-29,32-37H,11-12,15-16,19-22,24-25H2,1-6H3,(H,55,66)(H,56,62)(H,57,63)(H,58,67)(H,59,65)(H,60,64)(H,61,68)(H,69,70)(H,71,72)(H4,49,50,53)(H4,51,52,54)
Instrument: Q Exactive Plus Orbitrap Thermo Scientific
Instrument type: LC-ESI-QFT
Ms type: MS2
Ion mode: NEGATIVE
Ionization: ESI
Fragmentation mode: HCD
Collision energy: 45 % (nominal)
Resolution: 17500
Column name: XBridge C18 3.5um, 2.1x50mm, Waters
Retention time: 7.057 min
Base peak: 190.928
Precursor m/z: 1022.5429
Precursor type: [M-H]-
m/z	relative intensity	assigned
87.0565	63	C3H7N2O-
96.0091	142	C4H2NO2-
98.0251	169	C4H4NO2-
99.0567	41	C4H7N2O-
113.0356	92	C4H5N2O2-
124.0405	57	C6H6NO2-
125.0358	89	C5H5N2O2-
127.0514	140	C5H7N2O2-
128.0353	999	C5H6NO3-
130.0986	122	C5H12N3O-
131.0852	60	C10H11-
136.0404	69	C7H6NO2-
136.0503	37	C4H4N6-
137.0719	165	C7H9N2O-
138.0557	103	C7H8NO2-
139.0877	43	C7H11N2O-
140.0831	91	C6H10N3O-
149.0716	108	C8H9N2O-
153.067	209	C7H9N2O2-
156.0782	139	C6H10N3O2-
166.0984	478	C8H12N3O-
167.0823	191	C8H11N2O2-
170.0932	61	C7H12N3O2-
172.1204	51	C6H14N5O-
180.0777	57	C8H10N3O2-
181.0614	83	C8H9N2O3-
181.1101	80	C8H13N4O-
182.0928	47	C6H10N6O-
183.1248	146	C8H15N4O-
184.1086	239	C8H14N3O2-
191.0937	86	C9H11N4O-
192.0775	60	C9H10N3O2-
193.0613	79	C9H9N2O3-
196.1082	43	C7H12N6O-
201.1351	616	C8H17N4O2-
208.1202	481	C9H14N5O-
209.1046	60	C9H13N4O2-
210.0891	67	C11H14O4-
211.1205	50	C9H15N4O2-
226.1314	70	C9H16N5O2-
243.1576	184	C9H19N6O2-
266.1627	268	C12H20N5O2-
269.1371	50	C10H17N6O3-
294.159	121	CH24N7O10-
308.1845	134	C14H28O7-
312.1695	71	CH26N7O11-
326.1959	139	C15H26N4O4-
338.1594	50	C14H16N11-
353.1845	137	C18H27NO6-
370.2534	46	C12H38N2O10-
