Mass spectrum: Oxyfluorfen; LC-ESI-QFT; MS2; CE: 90; R=35000; [M+H]+
Name: Oxyfluorfen
Name: 2-chloranyl-1-(3-ethoxy-4-nitro-phenoxy)-4-(trifluoromethyl)benzene
Formula: C15H11ClF3NO4
Exact mass: 361.03287
SMILES: Clc2cc(ccc2Oc1ccc([N+]([O-])=O)c(OCC)c1)C(F)(F)F
InChI: InChI=1S/C15H11ClF3NO4/c1-2-23-14-8-10(4-5-12(14)20(21)22)24-13-6-3-9(7-11(13)16)15(17,18)19/h3-8H,2H2,1H3
Instrument: Q Exactive Orbitrap Thermo Scientific
Instrument type: LC-ESI-QFT
Ms type: MS2
Ion mode: POSITIVE
Ionization: ESI
Fragmentation mode: HCD
Collision energy: 90 (nominal)
Resolution: 35000
Column name: XBridge C18 3.5um, 2.1x50mm, Waters
Retention time: 15.5 min
Base peak: 362.0402
Precursor m/z: 362.0401
Precursor type: [M+H]+
m/z	relative intensity	assigned
53.0024	26	C3HO+
57.0137	7	C3H2F+
63.023	27	C5H3+
64.0182	21	C4H2N+
65.0261	91	C4H3N+
65.0387	35	C5H5+
67.0177	2	C4H3O+
67.0416	19	C4H5N+
68.0132	13	C3H2NO+
68.9947	35	CF3+
68.9971	33	C3HO2+
72.984	4	C3H2Cl+
75.0104	23	C5HN+
76.0182	156	C5H2N+
77.0261	3	C5H3N+
77.0386	9	C6H5+
78.0338	11	C5H4N+
78.0464	50	C6H6+
79.0178	50	C5H3O+
80.013	3	C4H2NO+
81.0135	48	C5H2F+
84.9652	3	CClF2+
89.0385	27	C7H5+
91.0541	2	C7H7+
93.0208	66	C5H3NO+
95.0365	11	C5H5NO+
95.0491	15	C6H7O+
96.0082	5	C4H2NO2+
96.0444	14	C5H6NO+
96.984	17	C5H2Cl+
99.0041	5	C5HF2+
104.0131	10	C6H2NO+
105.0448	5	C6H5N2+
107.0129	20	C6H3O2+
108.0371	39	C7H5F+
108.9839	16	C6H2Cl+
113.0198	15	C6H3F2+
113.0386	233	C9H5+
116.9901	12	C5H3ClF+
120.037	16	C8H5F+
124.0075	3	C7H5Cl+
124.0392	4	C6H6NO2+
126.0464	14	C10H6+
127.0417	10	C9H5N+
128.0495	39	C9H6N+
128.0621	49	C10H8+
131.0104	28	C6H2F3+
131.0292	35	C9H4F+
132.0181	345	C6H3F3+
132.0369	99	C9H5F+
133.0447	28	C9H6F+
136.0075	17	C8H5Cl+
136.0319	64	C8H5FO+
138.0276	34	C8H4F2+
138.0338	41	C10H4N+
139.0416	25	C10H5N+
139.054	5	C11H7+
140.0494	999	C10H6N+
141.0142	10	C7H3F2O+
141.0572	17	C10H7N+
141.0697	19	C11H9+
143.0058	8	C7H5ClF+
143.0105	49	
143.0365	5	C9H5NO+
144.0182	70	C7H3F3+
144.037	35	C10H5F+
145.0259	12	C7H4F3+
146.9805	24	C6H2ClF2+
146.9996	13	C9H4Cl+
147.0479	11	C9H6FN+
148.0075	50	C9H5Cl+
148.0181	27	C11H2N+
151.0354	80	C9H5F2+
152.0024	31	C8H5ClO+
156.0182	82	C8H3F3+
156.0244	9	C10H3FN+
156.0443	5	C10H6NO+
156.9964	29	
157.0261	10	C8H4F3+
157.0322	12	C10H4FN+
157.0522	37	C10H7NO+
158.0338	39	C8H5F3+
158.04	171	C10H5FN+
158.9807	27	C7H2ClF2+
159.0164	22	C6H2F3N2+
159.0479	13	C10H6FN+
160.0124	4	C7H3F3O+
160.0319	48	C10H5FO+
161.0201	42	C10H3F2+
161.0267	5	C9H4FNO+
162.0276	301	C10H4F2+
162.9949	3	C9H4ClO+
163.023	32	C9H3F2N+
164.0433	10	C10H6F2+
164.9908	10	C6H4ClF2O+
166.987	73	C6H3ClF3+
167.0058	53	C9H5ClF+
168.0012	18	C8H4ClFN+
168.0245	11	C11H3FN+
168.0443	31	C11H6NO+
168.0565	13	C12H8O+
169.0258	130	C9H4F3+
169.0323	63	C11H4FN+
169.0521	18	C11H7NO+
170.0336	43	C9H5F3+
170.04	6	C11H5FN+
172.0315	12	C11H5FO+
173.051	18	C10H6FN2+
174.0105	48	C10H5ClN+
174.9757	5	C7H2ClF2O+
174.9869	55	C6F3NO2+
175.0353	51	C11H5F2+
175.0431	12	C10H6FNO+
176.0022	93	C10H5ClO+
176.0307	35	C10H4F2N+
176.9912	42	C7H4ClF2O+
177.0384	10	C10H5F2N+
177.051	53	C11H7F2+
178.9869	256	C7H3ClF3+
181.026	37	C10H4F3+
182.0338	584	C10H5F3+
183.0292	19	C5H10ClNO4+
183.0415	30	C10H6F3+
184.0519	139	C12H8O2+
184.9967	35	C9H4ClF2+
185.0205	11	C9H4F3O+
186.0159	4	C8H3F3NO+
186.0282	51	C9H5F3O+
186.0355	14	C11H5FNO+
186.0548	7	C11H8NO2+
187.0428	139	C11H6FNO+
188.0306	17	C11H4F2N+
188.0507	28	C11H7FNO+
189.0384	303	C11H5F2N+
190.0463	31	C11H6F2N+
190.9868	9	C8H3ClF3+
191.0303	52	C11H5F2O+
191.041	27	C10H5F2N2+
192.0013	31	C10H4ClFN+
193.0027	3	C8H5ClF3+
193.9738	20	C7H2ClF3O+
194.0335	4	C11H5F3+
194.9819	10	C7H3ClF3O+
195.0416	98	C11H6F3+
196.0379	5	C6H11ClNO4+
196.0495	5	C11H7F3+
196.9959	3	C10H4ClF2+
197.0598	13	C13H9O2+
198.0036	3	C10H5ClF2+
198.0351	17	C12H5FNO+
200.0311	4	C9H5F3NO+
200.044	2	C10H7F3O+
200.9977	5	C11H4ClNO+
202.0055	11	C11H5ClNO+
203.0132	27	C11H6ClNO+
203.9828	9	C8H2ClF3N+
203.9949	41	C9H4ClF3+
205.0029	4	C9H5ClF3+
205.0459	11	C12H7F2O+
206.0416	23	C11H6F2NO+
207.029	98	C11H4F3N+
207.0415	25	C12H6F3+
208.0369	42	C11H5F3N+
209.0209	24	C11H4F3O+
209.0445	4	C11H6F3N+
209.0574	5	C12H8F3+
210.0287	212	C11H5F3O+
211.012	17	C11H6ClF2+
211.0608	18	C11H8F3N+
214.9866	3	C10H3ClF3+
215.9946	5	C10H4ClF3+
216.0256	58	C12H4F2NO+
217.0029	12	C10H5ClF3+
217.0461	16	C13H7F2O+
218.0413	229	C12H6F2NO+
220.9809	4	C8H4ClF2O3+
222.9769	71	C8H3ClF3O2+
223.0366	38	C12H6F3O+
223.047	5	C10H9NO5+
224.0322	4	C11H5F3NO+
224.9912	42	C11H4ClF2O+
225.0403	4	C11H6F3NO+
225.0523	13	C12H8F3O+
229.0027	17	C11H5ClF3+
232.9979	4	C10H5ClF3O+
233.0407	47	C13H7F2O2+
234.0157	3	C12H3F3NO+
235.0238	4	C12H4F3NO+
236.0318	66	C12H5F3NO+
237.0399	24	C12H6F3NO+
238.0473	11	C12H7F3NO+
238.0592	4	C13H9F3O+
239.9798	5	C8H4ClF3O3+
243.99	3	C11H4ClF3O+
249.0522	13	C14H8F3O+
252.002	7	C15H2F2O2+
252.0395	9	C13H7F3O2+
256.9979	4	C12H5ClF3O+
265.0473	36	C14H8F3O2+
284.9928	3	C13H5ClF3O2+
300.0042	3	C13H6ClF3NO2+
