Mass spectrum: Oseltamivir; LC-ESI-ITFT; MS2; CE: 15%; R=7500; [M+H]+
Name: Oseltamivir
Name: (3R,4R,5S)-4-acetamido-5-amino-3-(1-ethylpropoxy)cyclohexene-1-carboxylic acid ethyl ester
Formula: C16H28N2O4
Exact mass: 312.2049
SMILES: CCC(CC)OC1C=C(CC(C1NC(=O)C)N)C(=O)OCC
InChI: InChI=1S/C16H28N2O4/c1-5-12(6-2)22-14-9-11(16(20)21-7-3)8-13(17)15(14)18-10(4)19/h9,12-15H,5-8,17H2,1-4H3,(H,18,19)/t13-,14+,15+/m0/s1
Instrument: LTQ Orbitrap XL Thermo Scientific
Instrument type: LC-ESI-ITFT
Ms type: MS2
Ion mode: POSITIVE
Ionization: ESI
Fragmentation mode: HCD
Collision energy: 15 % (nominal)
Resolution: 7500
Column name: XBridge C18 3.5um, 2.1x50mm, Waters
Retention time: 7.0 min
Base peak: 313.2132
Precursor m/z: 313.2122
Precursor type: [M+H]+
m/z	relative intensity	assigned
94.065	6	C6H8N+
120.0444	25	C7H6NO+
122.0965	3	C8H12N+
136.0759	27	C8H10NO+
137.0712	10	C7H9N2O+
138.0543	4	C7H8NO2+
140.0706	6	C7H10NO2+
162.0549	22	C9H8NO2+
166.0865	635	C9H12NO2+
179.0816	28	C9H11N2O2+
208.097	610	C11H14NO3+
225.1235	999	C11H17N2O3+
226.108	30	C11H16NO4+
243.1342	167	C11H19N2O4+
296.1857	132	C16H26NO4+
313.2127	730	C16H29N2O4+
