Mass spectrum: Nateglinide; LC-ESI-QFT; MS2; CE: 90; R=35000; [M+H]+
Name: Nateglinide
Formula: C19H27NO3
Exact mass: 317.19909
SMILES: CC([C@H]1CC[C@@H](CC1)C(=O)N[C@@H](C(=O)O)CC2=CC=CC=C2)C
InChI: InChI=1S/C19H27NO3/c1-13(2)15-8-10-16(11-9-15)18(21)20-17(19(22)23)12-14-6-4-3-5-7-14/h3-7,13,15-17H,8-12H2,1-2H3,(H,20,21)(H,22,23)/t15-,16-,17-/m1/s1
Instrument: Q Exactive Orbitrap Thermo Scientific
Instrument type: LC-ESI-QFT
Ms type: MS2
Ion mode: POSITIVE
Ionization: ESI
Fragmentation mode: HCD
Collision energy: 90 (nominal)
Resolution: 35000
Column name: XBridge C18 3.5um, 2.1x50mm, Waters
Retention time: 13.7 min
Base peak: 318.2065
Precursor m/z: 318.2064
Precursor type: [M+H]+
m/z	relative intensity	assigned
53.0023	26	C3HO+
53.0387	11	C4H5+
53.9976	5	C2NO+
55.0543	83	C4H7+
57.07	49	C4H9+
65.0384	1	C5H5+
67.0542	32	C5H7+
67.9893	10	C3O2+
69.0699	999	C5H9+
77.0385	8	C6H5+
78.0086	1	C3N3+
79.0543	33	C6H7+
80.0494	2	C5H6N+
81.0699	5	C6H9+
83.0855	192	C6H11+
91.0542	43	C7H7+
93.0699	63	C7H9+
95.0492	28	C6H7O+
102.0465	5	C8H6+
103.0543	362	C8H7+
105.0447	12	C6H5N2+
107.0492	10	C7H7O+
118.0651	6	C8H8N+
119.0732	2	C8H9N+
120.0808	540	C8H10N+
131.049	1	C9H7O+
