Mass spectrum: Propetamphos; LC-ESI-QFT; MS2; CE: 60%; R=17500; [M+H]+
Name: Propetamphos
Name: 1-Methylethyl 3-[[(ethylamino)methoxyphosphinothioyl]oxy]-2-butenoate
Name: propan-2-yl 3-[ethylamino(methoxy)phosphinothioyl]oxybut-2-enoate
Formula: C10H20NO4PS
Exact mass: 281.0851
SMILES: CCNP(=S)(OC)OC(=CC(=O)OC(C)C)C
InChI: InChI=1S/C10H20NO4PS/c1-6-11-16(17,13-5)15-9(4)7-10(12)14-8(2)3/h7-8H,6H2,1-5H3,(H,11,17)
Instrument: Exploris 240 Orbitrap Thermo Scientific
Instrument type: LC-ESI-QFT
Ms type: MS2
Ion mode: POSITIVE
Ionization: ESI
Fragmentation mode: HCD
Collision energy: 60 % (nominal)
Resolution: 17500
Column name: XBridge C18 3.5um, 2.1x50mm, Waters
Retention time: 9.418 min
Base peak: 341.072
Precursor m/z: 282.0923
Precursor type: [M+H]+
m/z	relative intensity	assigned
63.9947	89	H3NOP+
67.0179	100	H6NOP+
70.0651	5	C4H8N+
82.9949	9	C4H3S+
85.0285	109	C4H5O2+
94.0053	58	CH5NO2P+
95.967	16	H3NOPS+
109.9824	561	CH5NOPS+
110.9666	34	CH4O2PS+
112.0158	87	CH7NO3P+
122.0367	73	C3H9NO2P+
123.9981	216	C2H7NOPS+
127.9932	26	CH7NO2PS+
128.977	39	CH6O3PS+
130.0864	7	C6H12NO2+
138.0138	999	C3H9NOPS+
140.0472	103	C3H11NO3P+
142.0088	22	C2H9NO2PS+
156.0244	130	C3H11NO2PS+
