Mass spectrum: Doxycycline; LC-ESI-QFT; MS2; CE: 150; R=35000; [M+H]+
Name: Doxycycline
Name: 8-carbamoyl-10-(dimethylazaniumyl)-4,6a,7,11-tetrahydroxy-12-methyl-6,9-dioxo-10a,11,11a,12-tetrahydro-10H-tetracen-5-olate
Formula: C22H24N2O8
Exact mass: 444.15327
SMILES: CC1C2C(C3C(C(=O)C(=C(C3(C(=O)C2=C(C4=C1C=CC=C4O)O)O)O)C(=O)N)N(C)C)O
InChI: InChI=1S/C22H24N2O8/c1-7-8-5-4-6-9(25)11(8)16(26)12-10(7)17(27)14-15(24(2)3)18(28)13(21(23)31)20(30)22(14,32)19(12)29/h4-7,10,14-15,17,25-27,30,32H,1-3H3,(H2,23,31)
Instrument: Q Exactive Plus Orbitrap Thermo Scientific
Instrument type: LC-ESI-QFT
Ms type: MS2
Ion mode: POSITIVE
Ionization: ESI
Fragmentation mode: HCD
Collision energy: 150 (nominal)
Resolution: 35000
Column name: XBridge C18 3.5um, 2.1x50mm, Waters
Retention time: 6.4 min
Base peak: 445.1595
Precursor m/z: 445.1605
Precursor type: [M+H]+
m/z	relative intensity	assigned
50.0151	50	C4H2+
51.0229	40	C4H3+
52.0307	1	C4H4+
53.0022	32	C3HO+
53.0386	89	C4H5+
53.9974	1	C2NO+
54.0338	22	C3H4N+
55.0179	84	C3H3O+
55.0417	40	C3H5N+
56.0495	26	C3H6N+
57.0334	1	C3H5O+
57.0573	3	C3H7N+
58.0651	130	C3H8N+
61.0072	2	C5H+
62.015	14	C5H2+
63.0229	78	C5H3+
65.0386	145	C5H5+
66.01	1	C4H2O+
66.0463	3	C5H6+
67.0178	14	C4H3O+
67.0416	15	C4H5N+
67.0542	5	C5H7+
68.0255	4	C4H4O+
68.0494	23	C4H6N+
68.9971	126	C3HO2+
69.0334	6	C4H5O+
70.0651	31	C4H8N+
71.0127	1	C3H3O2+
71.0731	1	C4H9N+
72.0444	10	C3H6NO+
72.0808	2	C4H10N+
74.0149	10	C6H2+
74.0599	1	C3H8NO+
75.0229	51	C6H3+
76.0307	16	C6H4+
77.0021	7	C5HO+
77.0385	80	C6H5+
78.0464	45	C6H6+
79.0177	19	C5H3O+
79.0542	21	C6H7+
80.0494	14	C5H6N+
81.0335	22	C5H5O+
81.0573	5	C5H7N+
82.0651	14	C5H8N+
83.0126	2	C4H3O2+
83.0365	16	C4H5NO+
84.0807	2	C5H10N+
86.0148	1	C7H2+
87.0229	10	C7H3+
88.0308	10	C7H4+
89.0386	113	C7H5+
90.0464	17	C7H6+
91.0542	308	C7H7+
92.0495	2	C6H6N+
93.0573	2	C6H7N+
94.0413	2	C6H6O+
94.0653	9	C6H8N+
95.0491	198	C6H7O+
96.0443	2	C5H6NO+
98.0151	2	C8H2+
98.0601	16	C5H8NO+
99.0228	6	C8H3+
101.0385	15	C8H5+
102.0464	114	C8H6+
103.0542	95	C8H7+
104.062	6	C8H8+
105.0334	11	C7H5O+
105.0447	155	C6H5N2+
107.0129	2	C6H3O2+
107.0491	18	C7H7O+
113.0386	43	C9H5+
114.0464	34	C9H6+
115.0542	942	C9H7+
116.062	74	C9H8+
117.0699	22	C9H9+
118.0412	12	C8H6O+
119.0492	16	C8H7O+
121.0285	1	C7H5O2+
125.0386	15	C10H5+
126.0464	167	C10H6+
127.0542	193	C10H7+
128.062	406	C10H8+
129.0447	47	C8H5N2+
129.0699	27	C10H9+
130.0411	2	C9H6O+
131.0492	77	C9H7O+
132.057	34	C9H8O+
134.06	1	C8H8NO+
137.0386	5	C11H5+
138.0464	12	C11H6+
139.0542	999	C11H7+
140.0621	139	C11H8+
141.0699	122	C11H9+
142.0411	6	C10H6O+
142.0778	2	C11H10+
143.0492	5	C10H7O+
144.057	46	C10H8O+
145.0648	76	C10H9O+
149.0384	5	C12H5+
150.0465	111	C12H6+
151.0542	53	C12H7+
152.0621	649	C12H8+
153.0699	96	C12H9+
154.0778	5	C12H10+
155.0604	176	C10H7N2+
156.0571	6	C11H8O+
157.0648	12	C11H9O+
160.052	8	C10H8O2+
162.0466	5	C13H6+
163.0542	228	C13H7+
164.062	101	C13H8+
165.07	447	C13H9+
166.0777	10	C13H10+
167.0491	8	C12H7O+
168.057	178	C12H8O+
169.0648	208	C12H9O+
173.0599	5	C11H9O2+
174.0465	13	C14H6+
175.0539	3	C14H7+
176.0621	179	C14H8+
177.0699	34	C14H9+
178.0777	53	C14H10+
179.049	8	C13H7O+
179.0604	69	C12H7N2+
180.0569	5	C13H8O+
181.0648	57	C13H9O+
182.0727	1	C13H10O+
184.0519	2	C12H8O2+
185.0596	2	C12H9O2+
187.0542	33	C15H7+
188.0618	10	C15H8+
189.0699	97	C15H9+
190.0651	2	C14H8N+
190.0779	2	C15H10+
191.0726	2	C14H9N+
191.0854	2	C15H11+
192.057	13	C14H8O+
193.0648	14	C14H9O+
194.0364	1	C13H6O2+
194.0726	5	C14H10O+
195.044	1	C13H7O2+
195.0801	1	C14H11O+
196.0519	24	C13H8O2+
197.0598	21	C13H9O2+
200.0622	16	C16H8+
201.0698	2	C16H9+
202.0781	9	C16H10+
203.0602	4	C14H7N2+
205.065	18	C15H9O+
208.0512	1	C14H8O2+
218.0722	2	C16H10O+
220.0514	1	C15H8O2+
221.0595	2	C15H9O2+
