Mass spectrum: Olanzapine; LC-ESI-QFT; MS2; CE: 30; R=35000; [M+H]+
Name: Olanzapine
Name: 2-methyl-4-(4-methylpiperazin-1-yl)-5H-thieno[3,2-c][1,5]benzodiazepine
Formula: C17H20N4S
Exact mass: 312.14087
SMILES: CC1=CC2=C(NC3=CC=CC=C3N=C2S1)N4CCN(CC4)C
InChI: InChI=1S/C17H20N4S/c1-12-11-13-16(21-9-7-20(2)8-10-21)18-14-5-3-4-6-15(14)19-17(13)22-12/h3-6,11,18H,7-10H2,1-2H3
Instrument: Q Exactive Plus Orbitrap Thermo Scientific
Instrument type: LC-ESI-QFT
Ms type: MS2
Ion mode: POSITIVE
Ionization: ESI
Fragmentation mode: HCD
Collision energy: 30 (nominal)
Resolution: 35000
Column name: XBridge C18 3.5um, 2.1x50mm, Waters
Retention time: 3.1 min
Base peak: 313.1474
Precursor m/z: 313.1481
Precursor type: [M+H]+
m/z	relative intensity	assigned
58.0652	1	C3H8N+
84.0808	204	C5H10N+
85.076	8	C4H9N2+
99.0919	1	C5H11N2+
198.024	2	C11H6N2S+
213.0481	8	C12H9N2S+
215.0638	2	C12H11N2S+
230.0747	31	C12H12N3S+
239.0637	3	C14H11N2S+
242.074	1	C13H12N3S+
254.0753	1	C14H12N3S+
256.0902	572	C14H14N3S+
282.106	42	C16H16N3S+
311.1328	1	C17H19N4S+
313.148	999	C17H21N4S+
