Mass spectrum: 2-(Methylsulfanyl)-1,3-benzothiazole; LC-ESI-QFT; MS2; CE: 75; R=35000; [M+H]+
Name: 2-(Methylsulfanyl)-1,3-benzothiazole
Name: 2-(Methylthio)benzothiazole (2-Me-S-Benzothiazole)
Name: 2-Methylmercaptobenzothiazole
Formula: C8H7NS2
Exact mass: 181.00199
SMILES: CSC1=NC2=CC=CC=C2S1
InChI: InChI=1S/C8H7NS2/c1-10-8-9-6-4-2-3-5-7(6)11-8/h2-5H,1H3
Instrument: Q Exactive Plus Orbitrap Thermo Scientific
Instrument type: LC-ESI-QFT
Ms type: MS2
Ion mode: POSITIVE
Ionization: ESI
Fragmentation mode: HCD
Collision energy: 75 (nominal)
Resolution: 35000
Column name: XBridge C18 3.5um, 2.1x50mm, Waters
Retention time: 10.0 min
Base peak: 182.0086
Precursor m/z: 182.0093
Precursor type: [M+H]+
m/z	relative intensity	assigned
63.9435	8	S2+
65.0383	1	C5H5+
78.967	1	CH3S2+
91.0416	11	C6H5N+
96.0025	1	C5H4S+
103.0414	2	C7H5N+
108.0025	1	C6H4S+
109.0105	33	C6H5S+
109.0521	5	C6H7NO+
123.0135	28	C6H5NS+
124.0339	1	C7H8S+
135.0135	49	C7H5NS+
136.0214	9	C7H6NS+
139.9747	6	C6H4S2+
149.0294	1	C8H7NS+
150.0369	1	C8H8NS+
165.9779	3	C7H4NS2+
166.9855	999	C7H5NS2+
182.009	157	C8H8NS2+
