Mass spectrum: Isoprothiolane; LC-ESI-QFT; MS2; CE: 180%; R=17500; [M+H]+
Name: Isoprothiolane
Name: dipropan-2-yl 2-(1,3-dithiolan-2-ylidene)propanedioate
Formula: C12H18O4S2
Exact mass: 290.0647
SMILES: CC(C)OC(=O)C(=C1SCCS1)C(=O)OC(C)C
InChI: InChI=1S/C12H18O4S2/c1-7(2)15-10(13)9(11(14)16-8(3)4)12-17-5-6-18-12/h7-8H,5-6H2,1-4H3
Instrument: Exploris 240 Orbitrap Thermo Scientific
Instrument type: LC-ESI-QFT
Ms type: MS2
Ion mode: POSITIVE
Ionization: ESI
Fragmentation mode: HCD
Collision energy: 180 % (nominal)
Resolution: 17500
Column name: XBridge C18 3.5um, 2.1x50mm, Waters
Retention time: 8.870 min
Base peak: 291.0719
Precursor m/z: 291.0719
Precursor type: [M+H]+
m/z	relative intensity	assigned
56.9794	914	C2HS+
61.0107	215	C2H5S+
84.9743	999	C3HOS+
88.9515	331	C2HS2+
