Mass spectrum: Ranitidine; LC-ESI-ITFT; MS2; CE: 15%; R=15000; [M+H]+
Name: Ranitidine
Name: 1,1-Ethenediamine, N-(2-(((5-((dimethylamino)methyl)-2-furanyl)methyl)thio)ethyl)-N'-methyl-2-nitro-
Name: 1-N'-[2-[[5-(dimethylaminomethyl)furan-2-yl]methylsulfanyl]ethyl]-1-N-methyl-2-nitroethene-1,1-diamine
Formula: C13H22N4O3S
Exact mass: 314.1413
SMILES: CN\C(NCCSCC1=CC=C(CN(C)C)O1)=C/[N+]([O-])=O
InChI: InChI=1S/C13H22N4O3S/c1-14-13(9-17(18)19)15-6-7-21-10-12-5-4-11(20-12)8-16(2)3/h4-5,9,14-15H,6-8,10H2,1-3H3/b13-9+
Instrument: LTQ Orbitrap XL Thermo Scientific
Instrument type: LC-ESI-ITFT
Ms type: MS2
Ion mode: POSITIVE
Ionization: ESI
Fragmentation mode: HCD
Collision energy: 15 % (nominal)
Resolution: 15000
Column name: XBridge C18 3.5um, 2.1x50mm, Waters
Retention time: 1.9 min
Base peak: 315.1494
Precursor m/z: 315.1485
Precursor type: [M+H]+
m/z	relative intensity	assigned
88.0214	1	C3H6NS+
98.0838	4	C5H10N2+
124.0756	27	C7H10NO+
125.0044	2	C4H3N3S+
130.0555	6	C5H10N2S+
144.0766	7	C5H10N3O2+
170.0632	2	C8H12NOS+
176.0486	43	C5H10N3O2S+
188.0492	1	C6H10N3O2S+
215.1212	3	C10H19N2OS+
224.0976	5	C11H16N2OS+
241.1006	2	C11H17N2O2S+
270.0904	32	C11H16N3O3S+
315.1486	999	C13H23N4O3S+
