Mass spectrum: 4-Hydroxybenzotriazole; LC-ESI-QFT; MS2; CE: 90; R=35000; [M+H]+
Name: 4-Hydroxybenzotriazole
Name: 1,2-dihydrobenzotriazol-4-one
Name: 2H-benzotriazol-4-ol
Name: 4-Hydroxy-1H-benzotriazole
Formula: C6H5N3O
Exact mass: 135.04326178
SMILES: C1=CC2=NNN=C2C(=C1)O
InChI: InChI=1S/C6H5N3O/c10-5-3-1-2-4-6(5)8-9-7-4/h1-3,10H,(H,7,8,9)
Instrument: Q Exactive Plus Orbitrap Thermo Scientific
Instrument type: LC-ESI-QFT
Ms type: MS2
Ion mode: POSITIVE
Ionization: ESI
Fragmentation mode: HCD
Collision energy: 90 (nominal)
Resolution: 35000
Column name: XBridge C18 3.5um, 2.1x50mm, Waters
Retention time: 3.1 min
Base peak: 136.0505
Precursor m/z: 136.0505
Precursor type: [M+H]+
m/z	relative intensity	assigned
50.0151	5	C4H2+
51.0229	8	C4H3+
53.0386	370	C4H5+
54.0339	93	C3H4N+
55.0179	1	C3H3O+
56.0495	6	C3H6N+
62.0151	3	C5H2+
63.0229	180	C5H3+
64.0182	7	C4H2N+
68.0131	24	C3H2NO+
78.0339	9	C5H4N+
79.0416	6	C5H5N+
80.0494	999	C5H6N+
81.0335	172	C5H5O+
82.0287	2	C4H4NO+
90.0339	60	C6H4N+
96.0444	8	C5H6NO+
106.0288	5	C6H4NO+
107.0366	10	C6H5NO+
108.0444	31	C6H6NO+
124.0393	2	C6H6NO2+
136.0506	408	C6H6N3O+
