Mass spectrum: Chlorophacinone; LC-ESI-QFT; MS2; CE: 75%; R=17500; [M-H]-
Name: Chlorophacinone
Name: 2-[2-(4-chlorophenyl)-2-phenylacetyl]indene-1,3-dione
Formula: C23H15ClO3
Exact mass: 374.0710
SMILES: C1=CC=C(C=C1)C(C2=CC=C(C=C2)Cl)C(=O)C3C(=O)C4=CC=CC=C4C3=O
InChI: InChI=1S/C23H15ClO3/c24-16-12-10-15(11-13-16)19(14-6-2-1-3-7-14)23(27)20-21(25)17-8-4-5-9-18(17)22(20)26/h1-13,19-20H
Instrument: Exploris 240 Orbitrap Thermo Scientific
Instrument type: LC-ESI-QFT
Ms type: MS2
Ion mode: NEGATIVE
Ionization: ESI
Fragmentation mode: HCD
Collision energy: 75 % (nominal)
Resolution: 17500
Column name: XBridge C18 3.5um, 2.1x50mm, Waters
Retention time: 14.469 min
Base peak: 373.0634
Precursor m/z: 373.0637
Precursor type: [M-H]-
m/z	relative intensity	assigned
88.0318	164	C7H4-
92.027	44	C6H4O-
116.0268	999	C8H4O-
144.0219	150	C9H4O2-
145.0296	619	C9H5O2-
201.0478	87	C13H10Cl-
