Mass spectrum: Metoxuron; LC-ESI-QFT; MS2; CE: 120; R=35000; [M-H]-
Name: Metoxuron
Name: 3-(3-chloro-4-methoxyphenyl)-1,1-dimethylurea
Formula: C10H13ClN2O2
Exact mass: 228.06656
SMILES: Clc1cc(ccc1OC)NC(=O)N(C)C
InChI: InChI=1S/C10H13ClN2O2/c1-13(2)10(14)12-7-4-5-9(15-3)8(11)6-7/h4-6H,1-3H3,(H,12,14)
Instrument: Q Exactive Plus Orbitrap Thermo Scientific
Instrument type: LC-ESI-QFT
Ms type: MS2
Ion mode: NEGATIVE
Ionization: ESI
Fragmentation mode: HCD
Collision energy: 120 (nominal)
Resolution: 35000
Column name: XBridge C18 3.5um, 2.1x50mm, Waters
Retention time: 6.0 min
Base peak: 182.9883
Precursor m/z: 227.0593
Precursor type: [M-H]-
m/z	relative intensity	assigned
50.0035	25	C3N-
61.0083	7	C5H-
63.024	18	C5H3-
64.0192	9	C4H2N-
65.0033	31	C4HO-
65.9985	90	C3NO-
76.0193	56	C5H2N-
77.0035	16	C5HO-
89.0033	921	C6HO-
91.0188	53	C6H3O-
116.0143	40	C7H2NO-
118.0299	122	C7H4NO-
132.009	462	C7H2NO2-
151.9908	999	C10O2-
152.9987	6	C7H4ClNO-
154.0065	580	C7H5ClNO-
167.9858	277	C7H3ClNO2-
168.0222	156	C8H7ClNO-
