Mass spectrum: Thifensulfuron-methyl; LC-ESI-ITFT; MS2; CE: 45%; R=15000; [M+H]+
Name: Thifensulfuron-methyl
Name: 3-[(4-methoxy-6-methyl-s-triazin-2-yl)carbamoylsulfamoyl]thiophene-2-carboxylic acid methyl ester
Formula: C12H13N5O6S2
Exact mass: 387.0307
SMILES: COC(=O)C1=C(C=CS1)S(=O)(=O)NC(=O)NC1=NC(C)=NC(OC)=N1
InChI: InChI=1S/C12H13N5O6S2/c1-6-13-10(16-12(14-6)23-3)15-11(19)17-25(20,21)7-4-5-24-8(7)9(18)22-2/h4-5H,1-3H3,(H2,13,14,15,16,17,19)
Instrument: LTQ Orbitrap XL Thermo Scientific
Instrument type: LC-ESI-ITFT
Ms type: MS2
Ion mode: POSITIVE
Ionization: ESI
Fragmentation mode: HCD
Collision energy: 45 % (nominal)
Resolution: 15000
Column name: XBridge C18 3.5um, 2.1x50mm, Waters
Retention time: 7.2 min
Base peak: 388.0375
Precursor m/z: 388.038
Precursor type: [M+H]+
m/z	relative intensity	assigned
69.0083	2	C2HN2O+
78.9849	1	CH3O2S+
83.024	13	C3H3N2O+
100.051	2	C3H6N3O+
125.977	11	C5H2O2S+
141.0006	12	C6H5O2S+
141.0772	232	C5H9N4O+
167.0563	999	C6H7N4O2+
174.9519	13	C5H3O3S2+
189.9627	13	C5H4NO3S2+
204.9624	380	C6H5O4S2+
215.9419	11	C6H2NO4S2+
222.973	4	C6H7O5S2+
325.9762	1	C10H6N4O5S2+
