Mass spectrum: N-(2,4-dimethylphenyl)formamide; LC-ESI-QFT; MS2; CE: 60; R=35000; [M+H]+
Name: N-(2,4-dimethylphenyl)formamide
Formula: C9H11NO
Exact mass: 149.08406
SMILES: CC1=C(NC([H])=O)C=CC(C)=C1
InChI: InChI=1S/C9H11NO/c1-7-3-4-9(10-6-11)8(2)5-7/h3-6H,1-2H3,(H,10,11)
Instrument: Q Exactive Plus Orbitrap Thermo Scientific
Instrument type: LC-ESI-QFT
Ms type: MS2
Ion mode: POSITIVE
Ionization: ESI
Fragmentation mode: HCD
Collision energy: 60 (nominal)
Resolution: 35000
Column name: XBridge C18 3.5um, 2.1x50mm, Waters
Retention time: 6.6 min
Base peak: 150.0913
Precursor m/z: 150.0913
Precursor type: [M+H]+
m/z	relative intensity	assigned
53.0386	1	C4H5+
67.0542	5	C5H7+
77.0384	6	C6H5+
79.0542	56	C6H7+
81.0699	3	C6H9+
91.0542	5	C7H7+
93.0699	1	C7H9+
94.0652	2	C6H8N+
95.0492	5	C6H7O+
95.0855	32	C7H11+
103.0542	28	C8H7+
105.0699	487	C8H9+
106.0651	36	C7H8N+
107.0729	999	C7H9N+
108.0569	11	C7H8O+
115.0542	4	C9H7+
117.0573	181	C8H7N+
120.0808	5	C8H10N+
121.0648	5	C8H9O+
121.0886	4	C8H11N+
122.0965	246	C8H12N+
123.0804	292	C8H11O+
130.0653	2	C9H8N+
131.073	3	C9H9N+
132.0808	303	C9H10N+
133.076	43	C8H9N2+
135.0679	6	C8H9NO+
148.0758	1	C9H10NO+
150.0914	207	C9H12NO+
