Mass spectrum: Phosphamidon; LC-ESI-QFT; MS2; CE: 90%; R=17500; [M+H]+
Name: Phosphamidon
Name: 2-Chloro-3-(diethylamino)-1-methyl-3-oxo-1-propenyl dimethyl phosphate
Name: [3-chloro-4-(diethylamino)-4-oxobut-2-en-2-yl] dimethyl phosphate
Formula: C10H19ClNO5P
Exact mass: 299.0689
SMILES: CCN(CC)C(=O)C(=C(C)OP(=O)(OC)OC)Cl
InChI: InChI=1S/C10H19ClNO5P/c1-6-12(7-2)10(13)9(11)8(3)17-18(14,15-4)16-5/h6-7H2,1-5H3
Instrument: Exploris 240 Orbitrap Thermo Scientific
Instrument type: LC-ESI-QFT
Ms type: MS2
Ion mode: POSITIVE
Ionization: ESI
Fragmentation mode: HCD
Collision energy: 90 % (nominal)
Resolution: 17500
Column name: XBridge C18 3.5um, 2.1x50mm, Waters
Retention time: 5.169 min
Base peak: 300.076
Precursor m/z: 300.0762
Precursor type: [M+H]+
m/z	relative intensity	assigned
65.0386	112	C5H5+
67.0417	29	C4H5N+
67.0543	15	C5H7+
72.0444	646	C3H6NO+
72.081	33	C4H10N+
72.9839	166	C3H2Cl+
74.0967	26	C4H12N+
74.9997	139	C3H4Cl+
75.9949	297	C2H3ClN+
78.9944	21	CH4O2P+
82.0652	48	C5H8N+
92.0497	37	C6H6N+
94.9894	46	C2H4ClO2+
100.0757	45	C5H10NO+
101.0155	15	CH9ClNP+
102.9947	16	C4H4ClO+
104.0263	50	C4H7ClN+
109.0048	207	C2H6O3P+
110.0603	41	C6H8NO+
112.9996	81	CH6O4P+
127.0155	999	C2H8O4P+
