Mass spectrum: Resmethrin; LC-ESI-QFT; MS2; CE: 150%; R=17500; [M+H]+
Name: Resmethrin
Name: (5-benzylfuran-3-yl)methyl 2,2-dimethyl-3-(2-methylprop-1-enyl)cyclopropane-1-carboxylate
Formula: C22H26O3
Exact mass: 338.1882
SMILES: CC(=CC1C(C1(C)C)C(=O)OCC2=COC(=C2)CC3=CC=CC=C3)C
InChI: InChI=1S/C22H26O3/c1-15(2)10-19-20(22(19,3)4)21(23)25-14-17-12-18(24-13-17)11-16-8-6-5-7-9-16/h5-10,12-13,19-20H,11,14H2,1-4H3
Instrument: Exploris 240 Orbitrap Thermo Scientific
Instrument type: LC-ESI-QFT
Ms type: MS2
Ion mode: POSITIVE
Ionization: ESI
Fragmentation mode: HCD
Collision energy: 150 % (nominal)
Resolution: 17500
Column name: XBridge C18 3.5um, 2.1x50mm, Waters
Retention time: 15.698 min
Base peak: 339.1952
Precursor m/z: 339.1955
Precursor type: [M+H]+
m/z	relative intensity	assigned
50.0151	22	C4H2+
51.0229	102	C4H3+
53.0386	106	C4H5+
55.018	14	C3H3O+
55.0542	44	C4H7+
59.0493	27	C3H7O+
63.023	34	C5H3+
65.0386	576	C5H5+
67.054	28	C5H7+
75.0229	17	C6H3+
77.0385	297	C6H5+
78.0464	98	C6H6+
79.0543	84	C6H7+
89.0388	32	C7H5+
91.0542	999	C7H7+
94.0414	21	C6H6O+
95.0491	73	C6H7O+
102.0465	208	C8H6+
103.0542	53	C8H7+
105.07	23	C8H9+
115.0543	357	C9H7+
126.0467	47	C10H6+
127.0542	129	C10H7+
128.0621	898	C10H8+
129.0702	19	C10H9+
141.0701	75	C11H9+
145.0646	22	C10H9O+
152.0626	47	C12H8+
