Mass spectrum: Di-n-butyl phthalate; LC-ESI-QFT; MS2; CE: 180; R=35000; [M+H]+
Name: Di-n-butyl phthalate
Name: Dibutyl phthalate
Name: dibutyl benzene-1,2-dicarboxylate
Formula: C16H22O4
Exact mass: 278.15181
SMILES: CCCCOC(=O)C1=CC=CC=C1C(=O)OCCCC
InChI: InChI=1S/C16H22O4/c1-3-5-11-19-15(17)13-9-7-8-10-14(13)16(18)20-12-6-4-2/h7-10H,3-6,11-12H2,1-2H3
Instrument: Q Exactive Plus Orbitrap Thermo Scientific
Instrument type: LC-ESI-QFT
Ms type: MS2
Ion mode: POSITIVE
Ionization: ESI
Fragmentation mode: HCD
Collision energy: 180 (nominal)
Resolution: 35000
Column name: XBridge C18 3.5um, 2.1x50mm, Waters
Retention time: 14.2 min
Base peak: 279.1587
Precursor m/z: 279.1591
Precursor type: [M+H]+
m/z	relative intensity	assigned
50.0152	33	C4H2+
51.023	24	C4H3+
52.0182	5	C3H2N+
53.0023	338	C3HO+
53.9975	76	C2NO+
54.0101	5	C3H2O+
55.0179	4	C3H3O+
62.0152	11	C5H2+
63.023	27	C5H3+
65.0387	999	C5H5+
67.9893	45	C3O2+
68.9972	3	C3HO2+
74.0152	33	C6H2+
75.023	22	C6H3+
92.0258	5	C6H4O+
