Mass spectrum: Losartan; LC-ESI-QFT; MS2; CE: 30; R=35000; [M-H]-
Name: Losartan
Name: [2-butyl-5-chloranyl-3-[[4-[2-(2H-1,2,3,4-tetrazol-5-yl)phenyl]phenyl]methyl]imidazol-4-yl]methanol
Formula: C22H23ClN6O
Exact mass: 421.15436
SMILES: Clc1nc(n(c1CO)Cc4ccc(c2ccccc2c3[nH]nnn3)cc4)CCCC
InChI: InChI=1S/C22H23ClN6O/c1-2-3-8-20-24-21(23)19(14-30)29(20)13-15-9-11-16(12-10-15)17-6-4-5-7-18(17)22-25-27-28-26-22/h4-7,9-12,30H,2-3,8,13-14H2,1H3,(H,25,26,27,28)
Instrument: Q Exactive Plus Orbitrap Thermo Scientific
Instrument type: LC-ESI-QFT
Ms type: MS2
Ion mode: NEGATIVE
Ionization: ESI
Fragmentation mode: HCD
Collision energy: 30 (nominal)
Resolution: 35000
Column name: XBridge C18 3.5um, 2.1x50mm, Waters
Retention time: 9.0 min
Base peak: 421.1545
Precursor m/z: 421.1549
Precursor type: [M-H]-
m/z	relative intensity	assigned
100.9912	4	C3H2ClN2-
121.0773	2	C7H9N2-
127.0068	979	C5H4ClN2-
155.0382	269	C7H8ClN2-
156.046	255	C7H9ClN2-
157.0537	710	C7H10ClN2-
165.0709	14	C13H9-
168.0459	5	C8H9ClN2-
169.054	12	C8H10ClN2-
177.0707	3	C14H9-
178.0784	5	C14H10-
179.0866	999	C14H11-
180.058	8	C13H8O-
184.0405	1	C8H9ClN2O-
185.0487	19	C8H10ClN2O-
187.0643	618	C8H12ClN2O-
188.0357	49	C7H9ClN2O2-
193.0657	47	C14H9O-
194.0737	1	C14H10O-
195.0814	227	C14H11O-
207.0924	6	C14H11N2-
216.0819	4	C16H10N-
230.0977	1	C17H12N-
242.0847	4	C17H10N2-
256.1009	1	C18H12N2-
259.1369	10	C19H17N-
270.1159	15	C19H14N2-
272.1443	90	C20H18N-
277.0537	1	C17H10ClN2-
278.0616	3	C17H11ClN2-
284.1318	1	C20H16N2-
291.0693	32	C18H12ClN2-
292.0772	20	C18H13ClN2-
297.1405	1	C21H17N2-
299.1551	68	C21H19N2-
320.1083	45	C20H17ClN2-
333.116	8	C21H18ClN2-
334.1237	3	C21H19ClN2-
335.132	230	C21H20ClN2-
363.1381	71	C21H20ClN4-
393.1491	8	C22H22ClN4O-
421.1548	247	C22H22ClN6O-
