Mass spectrum: Cortisone; LC-ESI-QFT; MS2; CE: 30; R=35000; [M-H]-
Name: Cortisone
Name: 17,21-Dihydroxypregn-4-ene-3,11,20-trione
Name: (8S,9S,10R,13S,14S,17R)-17-hydroxy-17-(2-hydroxyacetyl)-10,13-dimethyl-1,2,6,7,8,9,12,14,15,16-decahydrocyclopenta[a]phenanthrene-3,11-dione
Formula: C21H28O5
Exact mass: 360.19367
SMILES: O=C(CO)[C@@]3(O)CC[C@H]2[C@@H]4CC\C1=C\C(=O)CC[C@]1(C)[C@H]4C(=O)C[C@@]23C
InChI: InChI=1S/C21H28O5/c1-19-7-5-13(23)9-12(19)3-4-14-15-6-8-21(26,17(25)11-22)20(15,2)10-16(24)18(14)19/h9,14-15,18,22,26H,3-8,10-11H2,1-2H3/t14-,15-,18+,19-,20-,21-/m0/s1
Instrument: Q Exactive Plus Orbitrap Thermo Scientific
Instrument type: LC-ESI-QFT
Ms type: MS2
Ion mode: NEGATIVE
Ionization: ESI
Fragmentation mode: HCD
Collision energy: 30 (nominal)
Resolution: 35000
Column name: XBridge C18 3.5um, 2.1x50mm, Waters
Retention time: 7.4 min
Base peak: 405.1915
Precursor m/z: 359.1864
Precursor type: [M-H]-
m/z	relative intensity	assigned
57.0345	5	C3H5O-
59.0138	1	C2H3O2-
107.0501	1	C7H7O-
109.0658	25	C7H9O-
123.0451	10	C7H7O2-
123.0815	28	C8H11O-
125.0607	44	C7H9O2-
135.0815	11	C9H11O-
136.0527	3	C8H8O2-
137.0607	64	C8H9O2-
149.0603	10	C9H9O2-
151.04	1	C8H7O3-
151.0763	1	C9H11O2-
161.0971	1	C11H13O-
163.0764	1	C10H11O2-
165.0919	2	C10H13O2-
177.092	1	C11H13O2-
179.1077	14	C11H15O2-
203.1076	14	C13H15O2-
205.1233	3	C13H17O2-
257.1546	27	C17H21O2-
259.1338	5	C16H19O3-
259.1693	1	C17H23O2-
271.1339	13	C17H19O3-
283.1704	3	C19H23O2-
284.1421	2	C18H20O3-
299.1651	12	C19H23O3-
301.181	215	C19H25O3-
311.1654	111	C20H23O3-
312.136	1	C19H20O4-
326.1523	14	C20H22O4-
327.1597	4	C20H23O4-
329.1756	999	C20H25O4-
341.1755	39	C21H25O4-
