Mass spectrum: N-Nitrosopiperazine (NPAZ); LC-ESI-QFT; MS2; CE: 15; R=70000; [M+H]+
Name: N-Nitrosopiperazine (NPAZ)
Name: 1-nitrosopiperazine
Formula: C4H9N3O
Exact mass: 115.07456
SMILES: O=NN1CCNCC1
InChI: InChI=1S/C4H9N3O/c8-6-7-3-1-5-2-4-7/h5H,1-4H2
Instrument: Q Exactive Plus Orbitrap Thermo Scientific
Instrument type: LC-ESI-QFT
Ms type: MS2
Ion mode: POSITIVE
Ionization: ESI
Fragmentation mode: HCD
Collision energy: 15 (nominal)
Resolution: 70000
Column name: XBridge C18 3.5um, 2.1x50mm, Waters
Retention time: 0.8 min
Base peak: 85.0761
Precursor m/z: 116.0818
Precursor type: [M+H]+
m/z	relative intensity	assigned
56.0495	154	C3H6N+
57.0447	20	C2H5N2+
57.0573	35	C3H7N+
58.0651	39	C3H8N+
60.0444	3	C2H6NO+
70.0652	26	C4H8N+
72.0444	2	C3H6NO+
74.06	3	C3H8NO+
84.0444	2	C4H6NO+
85.076	999	C4H9N2+
86.0838	365	C4H10N2+
88.0757	20	C4H10NO+
116.0819	75	C4H10N3O+
