Mass spectrum: Pantoprazole; LC-ESI-ITFT; MS2; CE: 45%; R=15000; [M+H]+
Name: Pantoprazole
Name: 6-(difluoromethoxy)-2-[(3,4-dimethoxy-2-pyridinyl)methylsulfinyl]-1H-benzimidazole
Formula: C16H15F2N3O4S
Exact mass: 383.0751
SMILES: COC1=C(C(=NC=C1)CS(=O)C2=NC3=C(N2)C=C(C=C3)OC(F)F)OC
InChI: InChI=1S/C16H15F2N3O4S/c1-23-13-5-6-19-12(14(13)24-2)8-26(22)16-20-10-4-3-9(25-15(17)18)7-11(10)21-16/h3-7,15H,8H2,1-2H3,(H,20,21)
Instrument: LTQ Orbitrap XL Thermo Scientific
Instrument type: LC-ESI-ITFT
Ms type: MS2
Ion mode: POSITIVE
Ionization: ESI
Fragmentation mode: HCD
Collision energy: 45 % (nominal)
Resolution: 15000
Column name: XBridge C18 3.5um, 2.1x50mm, Waters
Retention time: 6.6 min
Base peak: 384.0836
Precursor m/z: 384.0824
Precursor type: [M+H]+
m/z	relative intensity	assigned
92.0492	5	C6H6N+
93.0573	4	C6H7N+
94.0651	4	C6H8N+
107.0729	53	C7H9N+
108.0446	4	C6H6NO+
122.06	54	C7H8NO+
123.068	3	C7H9NO+
136.0395	15	C7H6NO2+
138.0549	999	C7H8NO2+
152.0706	38	C8H10NO2+
153.0784	40	C8H11NO2+
165.0113	5	C7H5N2OS+
167.0041	8	C7H5NO2S+
168.0654	9	C6H12F2NS+
170.0811	10	C8H12NO3+
182.0269	13	C8H8NO2S+
185.0521	10	C8H7F2N2O+
189.9533	4	C6F2O3S+
200.0375	291	C8H10NO3S+
215.008	9	C8H5F2N2OS+
