Mass spectrum: Rivastigmine; LC-ESI-QFT; MS2; CE: 60; R=35000; [M+H]+
Name: Rivastigmine
Name: N-ethyl-N-methyl-carbamic acid [3-[(1S)-1-(dimethylamino)ethyl]phenyl] ester
Formula: C14H22N2O2
Exact mass: 250.16813
SMILES: O=C(Oc1cc(ccc1)[C@@H](N(C)C)C)N(CC)C
InChI: InChI=1S/C14H22N2O2/c1-6-16(5)14(17)18-13-9-7-8-12(10-13)11(2)15(3)4/h7-11H,6H2,1-5H3/t11-/m0/s1
Instrument: Q Exactive Orbitrap Thermo Scientific
Instrument type: LC-ESI-QFT
Ms type: MS2
Ion mode: POSITIVE
Ionization: ESI
Fragmentation mode: HCD
Collision energy: 60 (nominal)
Resolution: 35000
Column name: XBridge C18 3.5um, 2.1x50mm, Waters
Retention time: 5.0 min
Base peak: 251.1756
Precursor m/z: 251.1754
Precursor type: [M+H]+
m/z	relative intensity	assigned
58.0288	341	C2H4NO+
79.0543	7	C6H7+
84.0444	1	C4H6NO+
86.06	999	C4H8NO+
91.0542	4	C7H7+
93.0698	20	C7H9+
95.0491	3	C6H7O+
103.0544	5	C8H7+
105.0699	22	C8H9+
107.0855	3	C8H11+
114.0549	1	C5H8NO2+
121.0648	20	C8H9O+
121.1011	10	C9H13+
131.0855	3	C10H11+
135.0802	4	C9H11O+
149.0597	3	C9H9O2+
149.0961	4	C10H13O+
178.1225	2	C11H16NO+
206.1176	173	C12H16NO2+
