Mass spectrum: N-Desmethylvenlafaxine; LC-ESI-ITFT; MS2; CE: 75%; R=15000; [M+H]+
Name: N-Desmethylvenlafaxine
Name: 1-[1-(4-methoxyphenyl)-2-(methylamino)ethyl]-1-cyclohexanol
Formula: C16H25NO2
Exact mass: 263.1885
SMILES: CNCC(C1=CC=C(C=C1)OC)C2(CCCCC2)O
InChI: InChI=1S/C16H25NO2/c1-17-12-15(16(18)10-4-3-5-11-16)13-6-8-14(19-2)9-7-13/h6-9,15,17-18H,3-5,10-12H2,1-2H3
Instrument: LTQ Orbitrap XL Thermo Scientific
Instrument type: LC-ESI-ITFT
Ms type: MS2
Ion mode: POSITIVE
Ionization: ESI
Fragmentation mode: HCD
Collision energy: 75 % (nominal)
Resolution: 15000
Column name: XBridge C18 3.5um, 2.1x50mm, Waters
Retention time: 6.3 min
Base peak: 264.1967
Precursor m/z: 264.1958
Precursor type: [M+H]+
m/z	relative intensity	assigned
69.0697	20	C5H9+
77.0385	13	C6H5+
79.0542	67	C6H7+
81.0699	88	C6H9+
91.0542	221	C7H7+
93.0698	29	C7H9+
105.07	11	C8H9+
107.049	17	C7H7O+
107.0856	20	C8H11+
115.0541	26	C9H7+
117.0701	36	C9H9+
119.0601	13	C7H7N2+
119.0857	16	C9H11+
121.0648	999	C8H9O+
132.0569	66	C9H8O+
135.0803	59	C9H11O+
144.0568	19	C10H8O+
146.0721	9	C10H10O+
147.0804	383	C10H11O+
148.0756	18	C9H10NO+
149.0836	37	C9H11NO+
158.0726	64	C11H10O+
159.0803	80	C11H11O+
164.1067	11	C10H14NO+
173.0959	111	C12H13O+
