Mass spectrum: Pipemidic acid; LC-ESI-QFT; MS2; CE: 75; R=35000; [M+H]+
Name: Pipemidic acid
Name: 5,8-Dihydro-8-ethyl-5-oxo-2-(1-piperazinyl)pyrido(2,3-d)pyrimidine-6-carboxylic acid
Name: 8-ethyl-5-keto-2-piperazin-4-ium-1-yl-pyrido[2,3-d]pyrimidine-6-carboxylate
Formula: C14H17N5O3
Exact mass: 303.13314
SMILES: O=C(O)\C2=C\N(c1nc(ncc1C2=O)N3CCNCC3)CC
InChI: InChI=1S/C14H17N5O3/c1-2-18-8-10(13(21)22)11(20)9-7-16-14(17-12(9)18)19-5-3-15-4-6-19/h7-8,15H,2-6H2,1H3,(H,21,22)
Instrument: Q Exactive Orbitrap Thermo Scientific
Instrument type: LC-ESI-QFT
Ms type: MS2
Ion mode: POSITIVE
Ionization: ESI
Fragmentation mode: HCD
Collision energy: 75 (nominal)
Resolution: 35000
Column name: XBridge C18 3.5um, 2.1x50mm, Waters
Retention time: 3.6 min
Base peak: 304.1405
Precursor m/z: 304.1404
Precursor type: [M+H]+
m/z	relative intensity	assigned
68.0131	4	C3H2NO+
68.0495	5	C4H6N+
70.0287	9	C3H4NO+
70.0651	75	C4H8N+
71.0602	1	C3H7N2+
79.0291	3	C4H3N2+
80.0496	1	C5H6N+
93.0447	5	C5H5N2+
94.0398	1	C4H4N3+
95.024	62	C4H3N2O+
96.0444	7	C5H6NO+
103.029	1	C6H3N2+
105.045	6	C6H5N2+
106.0287	3	C6H4NO+
106.0397	1	C5H4N3+
108.0318	1	C5H4N2O+
111.0553	1	C5H7N2O+
118.04	1	C6H4N3+
119.0238	1	C6H3N2O+
119.0604	4	C7H7N2+
120.0556	35	C6H6N3+
121.0396	39	C6H5N2O+
123.0551	1	C6H7N2O+
132.0556	3	C7H6N3+
133.0397	1	C7H5N2O+
134.059	1	C6H6N4+
134.0713	5	C7H8N3+
135.0554	12	C7H7N2O+
135.0665	2	C6H7N4+
136.0506	19	C6H6N3O+
137.0344	3	C6H5N2O2+
139.0503	19	C6H7N2O2+
144.0555	3	C8H6N3+
145.0397	6	C8H5N2O+
145.051	1	C7H5N4+
146.035	47	C7H4N3O+
146.0714	4	C8H8N3+
147.0553	19	C8H7N2O+
147.0666	2	C7H7N4+
148.0505	295	C7H6N3O+
149.0584	1	C7H7N3O+
149.071	9	C8H9N2O+
149.0823	5	C7H9N4+
158.0587	5	C8H6N4+
159.0665	22	C8H7N4+
160.0505	11	C8H6N3O+
160.0744	24	C8H8N4+
161.0459	20	C7H5N4O+
161.0584	5	C8H7N3O+
161.0822	9	C8H9N4+
162.0662	221	C8H8N3O+
163.0614	79	C7H7N4O+
163.0978	5	C8H11N4+
164.0454	28	C7H6N3O2+
164.0815	2	C8H10N3O+
171.0666	2	C9H7N4+
172.0505	30	C9H6N3O+
173.0821	12	C9H9N4+
174.0533	8	C8H6N4O+
174.0661	4	C9H8N3O+
174.09	9	C9H10N4+
175.0613	7	C8H7N4O+
175.0979	4	C9H11N4+
176.0819	48	C9H10N3O+
185.082	2	C10H9N4+
186.0537	5	C9H6N4O+
186.0661	2	C10H8N3O+
187.0616	144	C9H7N4O+
187.0978	7	C10H11N4+
188.0694	45	C9H8N4O+
188.0818	8	C10H10N3O+
188.1056	10	C10H12N4+
189.0771	999	C9H9N4O+
190.0974	30	C10H12N3O+
191.0453	1	C9H7N2O3+
191.0927	28	C9H11N4O+
192.0404	4	C8H6N3O3+
192.0765	7	C9H10N3O2+
198.066	8	C11H8N3O+
199.0614	4	C10H7N4O+
199.098	1	C11H11N4+
200.0691	12	C10H8N4O+
200.093	1	C10H10N5+
200.1047	1	C11H12N4+
201.0772	6	C10H9N4O+
201.1128	1	C11H13N4+
202.0849	24	C10H10N4O+
203.0928	5	C10H11N4O+
206.0562	4	C9H8N3O3+
207.0517	23	C8H7N4O3+
213.0774	15	C11H9N4O+
215.0564	182	C10H7N4O2+
215.0928	79	C11H11N4O+
217.1085	460	C11H13N4O+
228.1013	4	C12H12N4O+
230.1041	1	C11H12N5O+
230.1397	1	C12H16N5+
233.0669	420	C10H9N4O3+
241.0718	16	C12H9N4O2+
243.124	26	C13H15N4O+
247.0828	1	C11H11N4O3+
258.0987	14	C12H12N5O2+
258.1348	7	C13H16N5O+
259.0828	32	C12H11N4O3+
261.0982	1	C12H13N4O3+
276.1092	48	C12H14N5O3+
286.1293	5	C14H16N5O2+
304.1404	144	C14H18N5O3+
