Mass spectrum: Dalapon; LC-ESI-QFT; MS2; CE: 45%; R=15000; [M-H]-
Name: Dalapon
Name: 2,2-Dichloropropionic acid
Name: 2,2-dichloropropanoic acid
Formula: C3H4Cl2O2
Exact mass: 141.9588347
SMILES: CC(C(=O)O)(Cl)Cl
InChI: InChI=1S/C3H4Cl2O2/c1-3(4,5)2(6)7/h1H3,(H,6,7)
Instrument: Exploris 240 Thermo Scientific
Instrument type: LC-ESI-QFT
Ms type: MS2
Ion mode: NEGATIVE
Ionization: ESI
Fragmentation mode: HCD
Collision energy: 45 % (nominal)
Resolution: 15000
Column name: XBridge C18 3.5um, 2.1x50mm, Waters
Retention time: 2.530 min
Base peak: 140.9514
Precursor m/z: 140.9516
Precursor type: [M-H]-
m/z	relative intensity	assigned
60.9849	352	C2H2Cl-
68.9982	28	C3HO2-
70.9459	496	Cl2H-
96.9616	999	C2H3Cl2-
104.9747	523	C3H2ClO2-
140.9513	85	C3H3Cl2O2-
