Mass spectrum: Isopropalin; LC-ESI-QFT; MS2; CE: 45%; R=17500; [M+H]+
Name: Isopropalin
Name: 2,6-dinitro-4-propan-2-yl-N,N-dipropylaniline
Formula: C15H23N3O4
Exact mass: 309.1689
SMILES: CCCN(CCC)C1=C(C=C(C=C1[N+](=O)[O-])C(C)C)[N+](=O)[O-]
InChI: InChI=1S/C15H23N3O4/c1-5-7-16(8-6-2)15-13(17(19)20)9-12(11(3)4)10-14(15)18(21)22/h9-11H,5-8H2,1-4H3
Instrument: Exploris 240 Orbitrap Thermo Scientific
Instrument type: LC-ESI-QFT
Ms type: MS2
Ion mode: POSITIVE
Ionization: ESI
Fragmentation mode: HCD
Collision energy: 45 % (nominal)
Resolution: 17500
Column name: XBridge C18 3.5um, 2.1x50mm, Waters
Retention time: 15.043 min
Base peak: 310.1757
Precursor m/z: 310.1761
Precursor type: [M+H]+
m/z	relative intensity	assigned
57.0334	137	C3H5O+
118.0655	64	C8H8N+
130.0647	41	C9H8N+
131.0606	91	C8H7N2+
133.0765	45	C8H9N2+
145.0764	76	C9H9N2+
146.0836	113	C9H10N2+
148.0997	113	C9H12N2+
161.0714	108	C9H9N2O+
164.0948	89	C9H12N2O+
176.0946	236	C10H12N2O+
177.0662	36	C9H9N2O2+
180.041	59	C7H6N3O3+
180.0888	170	C9H12N2O2+
188.1312	96	C12H16N2+
189.1022	49	C11H13N2O+
194.0925	234	C9H12N3O2+
203.0933	30	C12H13NO2+
203.1178	39	C12H15N2O+
204.1256	193	C12H16N2O+
206.0924	424	C10H12N3O2+
208.0717	956	C9H10N3O3+
209.0798	106	C9H11N3O3+
210.0873	347	C9H12N3O3+
218.0926	397	C11H12N3O2+
222.0874	583	C10H12N3O3+
226.0823	999	C9H12N3O4+
234.1231	371	C12H16N3O2+
250.1187	74	C12H16N3O3+
264.1339	229	C13H18N3O3+
268.1292	66	C12H18N3O4+
276.1708	140	C15H22N3O2+
310.1774	35	C15H24N3O4+
