Mass spectrum: N,N-Dimethyl-N'-p-tolylsulphamide; LC-ESI-ITFT; MS2; CE: 30%; R=15000; [M+H]+
Name: N,N-Dimethyl-N'-p-tolylsulphamide
Name: 1-(dimethylsulfamoylamino)-4-methyl-benzene
Formula: C9H14N2O2S
Exact mass: 214.0776
SMILES: O=S(=O)(Nc1ccc(C)cc1)N(C)C
InChI: InChI=1S/C9H14N2O2S/c1-8-4-6-9(7-5-8)10-14(12,13)11(2)3/h4-7,10H,1-3H3
Instrument: LTQ Orbitrap XL Thermo Scientific
Instrument type: LC-ESI-ITFT
Ms type: MS2
Ion mode: POSITIVE
Ionization: ESI
Fragmentation mode: HCD
Collision energy: 30 % (nominal)
Resolution: 15000
Column name: XBridge C18 3.5um, 2.1x50mm, Waters
Retention time: 7.5 min
Base peak: 237.0675
Precursor m/z: 215.0849
Precursor type: [M+H]+
m/z	relative intensity	assigned
77.0386	7	C6H5+
79.0543	75	C6H7+
105.0447	1	C6H5N2+
106.0652	999	C7H8N+
107.073	59	C7H9N+
108.0808	10	C7H10N+
136.0996	10	C8H12N2+
151.1231	135	C9H15N2+
215.085	22	C9H15N2O2S+
