Mass spectrum: Procymidone; LC-ESI-QFT; MS2; CE: 90; R=35000; [M+H]+
Name: Procymidone
Name: 3-(3,5-dichlorophenyl)-1,5-dimethyl-3-azabicyclo[3.1.0]hexane-2,4-dione
Formula: C13H11Cl2NO2
Exact mass: 283.01668
SMILES: Clc1cc(cc(Cl)c1)N2C(=O)C3(CC3(C2=O)C)C
InChI: InChI=1S/C13H11Cl2NO2/c1-12-6-13(12,2)11(18)16(10(12)17)9-4-7(14)3-8(15)5-9/h3-5H,6H2,1-2H3
Instrument: Q Exactive Orbitrap Thermo Scientific
Instrument type: LC-ESI-QFT
Ms type: MS2
Ion mode: POSITIVE
Ionization: ESI
Fragmentation mode: HCD
Collision energy: 90 (nominal)
Resolution: 35000
Column name: XBridge C18 3.5um, 2.1x50mm, Waters
Retention time: 11.5 min
Base peak: 284.0241
Precursor m/z: 284.024
Precursor type: [M+H]+
m/z	relative intensity	assigned
53.0023	15	C3HO+
53.9975	1	C2NO+
55.018	1	C3H3O+
57.0335	2	C3H5O+
57.07	2	C4H9+
62.9631	1	CClO+
65.0386	234	C5H5+
67.0542	999	C5H7+
68.062	7	C5H8+
69.0335	6	C4H5O+
69.0698	22	C5H9+
71.0492	6	C4H7O+
79.0542	2	C6H7+
81.0335	11	C5H5O+
83.0489	1	C5H7O+
84.9839	16	C4H2Cl+
85.0648	35	C5H9O+
86.9632	22	C3ClO+
94.0652	2	C6H8N+
95.0491	109	C6H7O+
96.057	19	C6H8O+
98.0362	2	C5H6O2+
98.9997	4	C5H4Cl+
108.9839	55	C6H2Cl+
110.0601	24	C6H8NO+
113.0596	10	C6H9O2+
120.9608	3	C4H3Cl2+
123.9948	6	C6H3ClN+
126.9945	46	C6H4ClO+
127.0183	31	C6H6ClN+
128.0024	50	C6H5ClO+
130.0653	7	C9H8N+
132.9607	43	C5H3Cl2+
138.0105	6	C7H5ClN+
141.0574	3	C10H7N+
141.07	11	C11H9+
143.073	31	C10H9N+
144.0808	7	C10H10N+
144.9607	36	C6H3Cl2+
145.0051	12	C6H6ClO2+
145.9688	13	C6H4Cl2+
151.0184	59	C8H6ClN+
152.0262	6	C8H7ClN+
152.9976	22	C7H4ClNO+
153.0338	3	C8H8ClN+
154.0653	7	C11H8N+
157.0888	14	C11H11N+
158.0965	26	C11H12N+
158.9765	6	C7H5Cl2+
159.9716	47	C6H4Cl2N+
160.9794	20	C9H2ClO+
161.9873	3	C6H6Cl2N+
162.0232	2	C10H7Cl+
162.9712	146	C6H5Cl2O+
164.0261	96	C9H7ClN+
165.034	38	C9H8ClN+
167.073	35	C12H9N+
168.0808	43	C12H10N+
171.0682	2	C11H9NO+
171.9716	100	C7H4Cl2N+
172.9668	286	C9ClNO+
173.9872	44	C7H6Cl2N+
175.0184	6	C10H6ClN+
176.0391	3	C11H9Cl+
177.0339	21	C10H8ClN+
178.0418	183	C10H9ClN+
179.0134	2	C9H6ClNO+
179.0494	2	C10H10ClN+
180.021	2	C9H7ClNO+
184.9798	10	C8H5Cl2N+
185.9873	123	C8H6Cl2N+
187.9664	3	C7H4Cl2NO+
188.0029	3	C8H8Cl2N+
188.0262	24	C11H7ClN+
189.0342	6	C11H8ClN+
192.0575	51	C11H11ClN+
193.0657	7	C11H12ClN+
195.9714	7	C9H4Cl2N+
197.9872	132	C9H6Cl2N+
198.9949	17	C9H7Cl2N+
199.9668	3	C8H4Cl2NO+
200.0031	10	C9H8Cl2N+
202.0417	50	C12H9ClN+
203.0496	29	C12H10ClN+
204.0581	2	C12H11ClN+
206.037	17	C11H9ClNO+
210.9952	6	C10H7Cl2N+
212.0029	139	C10H8Cl2N+
213.9821	9	C9H6Cl2NO+
220.0527	6	C12H11ClNO+
222.9952	3	C11H7Cl2N+
224.0027	15	C11H8Cl2N+
225.9825	2	C10H6Cl2NO+
227.9979	13	C10H8Cl2NO+
236.0027	1	C12H8Cl2N+
238.0185	287	C12H10Cl2N+
239.9977	20	C11H8Cl2NO+
241.0058	3	C11H9Cl2NO+
