Mass spectrum: 5-Methoxy-2H-benzotriazole; LC-ESI-QFT; MS2; CE: 120%; R=15000; [M+H]+
Name: 5-Methoxy-2H-benzotriazole
Name: 5-methoxy-2H-benzo[d][1,2,3]triazole
Formula: C7H7N3O
Exact mass: 149.0589
SMILES: COC1=CC2=NNN=C2C=C1
InChI: InChI=1S/C7H7N3O/c1-11-5-2-3-6-7(4-5)9-10-8-6/h2-4H,1H3,(H,8,9,10)
Instrument: Orbitrap Exploris 240 Thermo Scientific
Instrument type: LC-ESI-QFT
Ms type: MS2
Ion mode: POSITIVE
Ionization: ESI
Fragmentation mode: HCD
Collision energy: 120 % (nominal)
Resolution: 15000
Column name: Atlantis C18 3um, 3.0x150mm, Waters
Retention time: 14.536 min
Base peak: 150.0662
Precursor m/z: 150.0662
Precursor type: [M+H]+
Precursor intensity: 805775616
m/z	relative intensity	assigned
41.0386	40	C3H5+
50.0151	28	C4H2+
51.023	46	C4H3+
52.0184	18	
52.0308	999	C4H4+
53.026	20	C3H3N+
53.0387	29	C4H5+
54.0338	37	C3H4N+
55.018	17	C3H3O+
63.0229	147	C5H3+
65.0386	338	C5H5+
66.034	9	C4H4N+
67.0544	55	C5H7+
77.0384	22	C6H5+
78.0338	73	C5H4N+
79.0417	483	C5H5N+
80.013	8	C4H2NO+
80.0258	82	C5H4O+
90.034	26	C6H4N+
92.0496	9	C6H6N+
93.0574	17	C6H7N+
95.0492	236	C6H7O+
96.0448	10	C5H6NO+
107.0368	117	C6H5NO+
107.0479	318	C5H5N3+
122.0598	16	C7H8NO+
135.0426	142	C6H5N3O+
150.0661	22	C7H8N3O+
