Mass spectrum: Imidacloprid; LC-ESI-ITFT; MS2; CE: 45%; R=15000; [M+H]+
Name: Imidacloprid
Name: N-[1-[(6-chloranylpyridin-3-yl)methyl]-4,5-dihydroimidazol-2-yl]nitramide
Formula: C9H10ClN5O2
Exact mass: 255.0523
SMILES: Cl-c(ncc1CN(CC2)C(N2)=NN(=O)=O)cc1
InChI: InChI=1S/C9H10ClN5O2/c10-8-2-1-7(5-12-8)6-14-4-3-11-9(14)13-15(16)17/h1-2,5H,3-4,6H2,(H,11,13)
Instrument: LTQ Orbitrap XL Thermo Scientific
Instrument type: LC-ESI-ITFT
Ms type: MS2
Ion mode: POSITIVE
Ionization: ESI
Fragmentation mode: HCD
Collision energy: 45 % (nominal)
Resolution: 15000
Column name: XBridge C18 3.5um, 2.1x50mm, Waters
Retention time: 4.8 min
Base peak: 256.0596
Precursor m/z: 256.0596
Precursor type: [M+H]+
m/z	relative intensity	assigned
56.0494	6	C3H6N+
71.0603	3	C3H7N2+
72.0681	2	C3H8N2+
84.0556	124	C3H6N3+
97.0635	11	C4H7N3+
98.0712	9	C4H8N3+
99.0553	22	C4H7N2O+
114.0104	2	C5H5ClN+
126.0105	39	C6H5ClN+
127.0184	2	C6H6ClN+
128.0261	117	C6H7ClN+
133.076	3	C8H9N2+
139.006	1	C6H4ClN2+
141.0214	5	C6H6ClN2+
146.0587	5	C7H6N4+
146.0712	9	C8H8N3+
147.0664	6	C7H7N4+
148.0869	2	C8H10N3+
151.0183	13	C8H6ClN+
152.0134	1	C7H5ClN2+
153.0212	1	C7H6ClN2+
158.0713	2	C9H8N3+
159.0664	1	C8H7N4+
166.0298	1	C8H7ClN2+
167.0245	6	C7H6ClN3+
167.0371	8	C8H8ClN2+
168.0321	2	C7H7ClN3+
168.0447	2	C8H9ClN2+
169.0527	1	C8H10ClN2+
173.0821	20	C9H9N4+
174.0899	122	C9H10N4+
175.0978	999	C9H11N4+
176.0823	4	C9H10N3O+
180.0321	4	C8H7ClN3+
181.0275	7	C7H6ClN4+
181.04	5	C8H8ClN3+
193.04	10	C9H8ClN3+
194.0479	8	C9H9ClN3+
195.0319	4	C9H8ClN2O+
195.0432	4	C8H8ClN4+
209.0588	801	C9H10ClN4+
210.0665	49	C9H11ClN4+
212.0583	60	C9H11ClN3O+
256.0589	2	C9H11ClN5O2+
