Mass spectrum: Cycloxydim-TP BH 517-TSO E/Z-isomer; LC-ESI-QFT; MS2; CE: 75%; R=17500; [M-H]-
Name: Cycloxydim-TP BH 517-TSO E/Z-isomer
Name: Cycloxydim sulfoxide
Formula: C17H27NO4S
Exact mass: 341.1661
SMILES: CCC\C(=N/OCC)C1=C(O)CC(CC1=O)C1CCCS(=O)C1
InChI: InChI=1S/C17H27NO4S/c1-3-6-14(18-22-4-2)17-15(19)9-13(10-16(17)20)12-7-5-8-23(21)11-12/h12-13,19H,3-11H2,1-2H3/b18-14+
Instrument: Q Exactive Plus Orbitrap Thermo Scientific
Instrument type: LC-ESI-QFT
Ms type: MS2
Ion mode: NEGATIVE
Ionization: ESI
Fragmentation mode: HCD
Collision energy: 75 % (nominal)
Resolution: 17500
Column name: XBridge C18 3.5um, 2.1x50mm, Waters
Retention time: 7.752 min
Base peak: 340.1587
Precursor m/z: 340.1588
Precursor type: [M-H]-
m/z	relative intensity	assigned
58.9961	47	C2H3S-
59.0137	20	C2H3O2-
64.0191	8	C4H2N-
65.9986	693	C3NO-
67.019	11	C4H3O-
68.0143	12	C3H2NO-
82.0299	55	C4H4NO-
95.0505	10	C6H7O-
99.0274	239	C5H7S-
108.0216	22	C6H4O2-
109.0168	24	C5H3NO2-
109.0295	36	C6H5O2-
110.0611	31	C6H8NO-
118.0299	15	C7H4NO-
120.0091	191	C6H2NO2-
120.0452	7	
121.017	27	C6H3NO2-
125.0429	17	C7H9S-
131.0375	23	C8H5NO-
133.0172	35	C7H3NO2-
133.066	9	C9H9O-
134.0248	999	C7H4NO2-
135.0324	62	C7H5NO2-
135.0428	8	
136.0404	16	C7H6NO2-
139.0587	38	C8H11S-
146.0613	37	C9H8NO-
147.0325	25	C8H5NO2-
151.0226	17	C8H7OS-
158.0612	59	C10H8NO-
160.0404	105	C9H6NO2-
160.0767	62	C10H10NO-
162.056	155	C9H8NO2-
165.9968	74	C7H4NO2S-
167.0228	9	C7H5NO4-
172.0771	23	C11H10NO-
174.0558	92	C10H8NO2-
175.0638	20	C10H9NO2-
176.0713	52	C10H10NO2-
186.0561	19	C11H8NO2-
188.0714	53	C11H10NO2-
190.0874	72	C11H12NO2-
200.0717	101	C12H10NO2-
201.0801	24	C12H11NO2-
202.0874	214	C12H12NO2-
204.1028	75	C12H14NO2-
220.0984	30	C12H14NO3-
234.0593	214	C12H12NO2S-
252.0701	176	C12H14NO3S-
