Mass spectrum: Cefazolin; LC-ESI-QFT; MS2; CE: 30; R=35000; [M-H]-
Name: Cefazolin
Name: 3-[(5-methyl-1,3,4-thiadiazol-2-yl)sulfanylmethyl]-8-oxo-7-[[2-(tetrazol-1-yl)acetyl]amino]-5-thia-1-azabicyclo[4.2.0]oct-2-ene-2-carboxylic acid
Formula: C14H14N8O4S3
Exact mass: 454.03001
SMILES: CC1=NN=C(S1)SCC2=C(N3C(C(C3=O)NC(=O)CN4C=NN=N4)SC2)C(=O)O
InChI: InChI=1S/C14H14N8O4S3/c1-6-17-18-14(29-6)28-4-7-3-27-12-9(11(24)22(12)10(7)13(25)26)16-8(23)2-21-5-15-19-20-21/h5,9,12H,2-4H2,1H3,(H,16,23)(H,25,26)
Instrument: Q Exactive Plus Orbitrap Thermo Scientific
Instrument type: LC-ESI-QFT
Ms type: MS2
Ion mode: NEGATIVE
Ionization: ESI
Fragmentation mode: HCD
Collision energy: 30 (nominal)
Resolution: 35000
Column name: XBridge C18 3.5um, 2.1x50mm, Waters
Retention time: 4.4 min
Base peak: 321.0411
Precursor m/z: 453.0227
Precursor type: [M-H]-
m/z	relative intensity	assigned
56.9803	3	C2HS-
57.9757	153	CNS-
69.0208	999	CHN4-
80.0256	3	C3H2N3-
96.9994	4	C4H3NS-
97.0119	15	C5H5S-
98.0072	4	C4H4NS-
98.0361	37	C3H4N3O-
105.046	6	C6H5N2-
108.0318	8	C3H2N5-
109.0156	29	C3HN4O-
110.0122	5	C4H2N2O2-
112.0229	22	C5H6NS-
117.046	18	C7H5N2-
122.0071	22	C6H4NS-
123.0151	7	C6H5NS-
124.0228	25	C6H6NS-
126.0422	4	C3H4N5O-
127.0085	29	C3H3N4S-
127.0261	8	C3H3N4O2-
130.9744	352	C3H3N2S2-
133.0409	30	C7H5N2O-
136.0104	16	C6H4N2S-
136.0228	7	C7H6NS-
137.0181	69	C6H5N2S-
140.018	5	C6H6NOS-
140.9892	23	C5H3NO2S-
143.0035	56	C3H3N4OS-
150.002	19	C7H4NOS-
156.0127	23	C6H6NO2S-
165.013	39	C7H5N2OS-
167.0287	601	C7H7N2OS-
168.0127	44	C7H6NO2S-
173.036	7	C2H5N8S-
174.0437	110	C9H6N2O2-
178.0449	4	C8H8N3S-
184.0299	38	C5H6N5OS-
207.0236	178	C9H7N2O2S-
209.9807	13	CH10N2O4S3-
234.0457	15	C9H8N5OS-
243.0643	5	C10H7N6O2-
251.0133	27	C10H7N2O4S-
