Mass spectrum: Tramadol N-Oxide; LC-ESI-QFT; MS2; CE: 75; R=35000; [M+H]+
Name: Tramadol N-Oxide
Name: 1-[(1R,2R)-2-hydroxy-2-(3-methoxyphenyl)cyclohexyl]-N,N-dimethylmethanamine oxide
Formula: C16H25NO3
Exact mass: 279.18344
SMILES: [O-][N+](C)(C)C[C@H]2CCCC[C@]2(O)c1cc(OC)ccc1
InChI: InChI=1S/C16H25NO3/c1-17(2,19)12-14-7-4-5-10-16(14,18)13-8-6-9-15(11-13)20-3/h6,8-9,11,14,18H,4-5,7,10,12H2,1-3H3/t14-,16+/m1/s1
Instrument: Q Exactive Plus Orbitrap Thermo Scientific
Instrument type: LC-ESI-QFT
Ms type: MS2
Ion mode: POSITIVE
Ionization: ESI
Fragmentation mode: HCD
Collision energy: 75 (nominal)
Resolution: 35000
Column name: XBridge C18 3.5um, 2.1x50mm, Waters
Retention time: 5.1 min
Base peak: 280.1904
Precursor m/z: 280.1907
Precursor type: [M+H]+
m/z	relative intensity	assigned
50.0151	1	C4H2+
51.0229	3	C4H3+
53.0386	39	C4H5+
55.0179	16	C3H3O+
55.0542	55	C4H7+
56.0495	22	C3H6N+
57.0335	4	C3H5O+
57.0573	5	C3H7N+
58.0651	999	C3H8N+
62.06	27	C2H8NO+
64.0306	2	C5H4+
65.0385	9	C5H5+
67.0416	4	C4H5N+
67.0542	44	C5H7+
68.0257	4	C4H4O+
68.0495	13	C4H6N+
68.9971	1	C3HO2+
69.0335	3	C4H5O+
69.0699	19	C5H9+
70.0651	28	C4H8N+
71.0729	21	C4H9N+
72.0807	12	C4H10N+
74.06	11	C3H8NO+
77.0385	84	C6H5+
78.0463	6	C6H6+
79.0542	72	C6H7+
80.0495	5	C5H6N+
81.0335	5	C5H5O+
81.0573	11	C5H7N+
81.0699	23	C6H9+
82.0651	47	C5H8N+
83.0492	2	C5H7O+
83.0855	20	C6H11+
84.0808	68	C5H10N+
91.0542	168	C7H7+
92.0256	75	C6H4O+
93.0699	47	C7H9+
94.0413	17	C6H6O+
94.0651	34	C6H8N+
95.0491	142	C6H7O+
95.0729	39	C6H9N+
96.0807	5	C6H10N+
98.0964	1	C6H12N+
103.0541	5	C8H7+
105.0447	82	C6H5N2+
105.0699	20	C8H9+
106.0414	5	C7H6O+
107.0491	112	C7H7O+
108.0569	1	C7H8O+
108.0807	29	C7H10N+
109.0648	56	C7H9O+
110.0964	59	C7H12N+
111.0804	1	C7H11O+
115.0542	14	C9H7+
116.0621	6	C9H8+
117.0698	12	C9H9+
118.0414	1	C8H6O+
119.0493	2	C8H7O+
119.0604	8	C7H7N2+
119.0855	4	C9H11+
120.057	1	C8H8O+
121.0648	373	C8H9O+
122.0966	1	C8H12N+
124.052	1	C7H8O2+
125.0597	344	C7H9O2+
126.1278	1	C8H16N+
127.0542	1	C10H7+
128.0621	15	C10H8+
129.0698	27	C10H9+
130.0412	1	C9H6O+
130.0777	2	C10H10+
131.0492	12	C9H7O+
131.0854	2	C10H11+
132.057	7	C9H8O+
133.0648	9	C9H9O+
135.044	482	C8H7O2+
135.0551	152	C7H7N2O+
135.0804	35	C9H11O+
136.0519	1	C8H8O2+
137.0596	1	C8H9O2+
141.07	8	C11H9+
142.0776	1	C11H10+
143.0491	1	C10H7O+
143.0855	2	C11H11+
144.057	83	C10H8O+
145.0648	42	C10H9O+
146.0726	14	C10H10O+
147.0804	51	C10H11O+
155.0605	7	C10H7N2+
157.0649	6	C11H9O+
157.076	2	C10H9N2+
158.0726	48	C11H10O+
159.0804	175	C11H11O+
160.0883	38	C11H12O+
161.096	3	C11H13O+
171.0803	9	C12H11O+
172.0882	14	C12H12O+
173.0962	24	C12H13O+
184.0883	2	C13H12O+
185.0959	1	C13H13O+
186.1041	5	C13H14O+
199.1121	1	C14H15O+
201.1274	9	C14H17O+
