Mass spectrum: Norephedrine; LC-ESI-QFT; MS2; CE: 75; R=35000; [M+H]+
Name: Norephedrine
Name: Phenylpropanolamine
Name: 2-amino-1-phenylpropan-1-ol
Formula: C9H13NO
Exact mass: 151.09971
SMILES: CC(C(C1=CC=CC=C1)O)N
InChI: InChI=1S/C9H13NO/c1-7(10)9(11)8-5-3-2-4-6-8/h2-7,9,11H,10H2,1H3
Instrument: Q Exactive Plus Orbitrap Thermo Scientific
Instrument type: LC-ESI-QFT
Ms type: MS2
Ion mode: POSITIVE
Ionization: ESI
Fragmentation mode: HCD
Collision energy: 75 (nominal)
Resolution: 35000
Column name: XBridge C18 3.5um, 2.1x50mm, Waters
Retention time: 2.4 min
Base peak: 152.1067
Precursor m/z: 152.107
Precursor type: [M+H]+
m/z	relative intensity	assigned
56.0495	134	C3H6N+
57.0335	13	C3H5O+
63.0229	2	C5H3+
65.0386	3	C5H5+
77.0385	4	C6H5+
79.0542	7	C6H7+
91.0543	359	C7H7+
93.0574	2	C6H7N+
93.07	17	C7H9+
94.0652	2	C6H8N+
95.0493	2	C6H7O+
104.0494	5	C7H6N+
105.0447	1	C6H5N2+
105.0699	5	C8H9+
106.0652	11	C7H8N+
115.0543	894	C9H7+
116.0621	23	C9H8+
117.0699	999	C9H9+
118.0651	23	C8H8N+
119.073	98	C8H9N+
133.065	1	C9H9O+
134.0965	246	C9H12N+
143.0605	2	C9H7N2+
