Mass spectrum: Isoproturon-didemethyl; LC-ESI-ITFT; MS2; CE: 75%; R=15000; [M+H]+
Name: Isoproturon-didemethyl
Name: [4-(propan-2-yl)phenyl]urea
Name: 1-(4-Isopropylphenyl)urea
Formula: C10H14N2O
Exact mass: 178.1106
SMILES: N(C(=O)N)c1ccc(cc1)C(C)C
InChI: InChI=1S/C10H14N2O/c1-7(2)8-3-5-9(6-4-8)12-10(11)13/h3-7H,1-2H3,(H3,11,12,13)
Instrument: LTQ Orbitrap XL Thermo Scientific
Instrument type: LC-ESI-ITFT
Ms type: MS2
Ion mode: POSITIVE
Ionization: ESI
Fragmentation mode: HCD
Collision energy: 75 % (nominal)
Resolution: 15000
Column name: XBridge C18 3.5um, 2.1x50mm, Waters
Retention time: 8.0 min
Base peak: 179.1183
Precursor m/z: 179.1179
Precursor type: [M+H]+
m/z	relative intensity	assigned
53.0384	3	C4H5+
77.0386	40	C6H5+
91.0543	37	C7H7+
92.0495	81	C6H6N+
93.0576	3	C6H7N+
93.0698	5	C7H9+
94.0652	999	C6H8N+
95.0492	4	C6H7O+
103.0541	2	C8H7+
105.0448	9	C6H5N2+
107.0855	9	C8H11+
117.07	9	C9H9+
119.073	6	C8H9N+
119.0858	3	C9H11+
120.0444	93	C7H6NO+
134.0965	59	C9H12N+
136.1121	48	C9H14N+
137.071	214	C7H9N2O+
147.0917	15	C9H11N2+
162.0917	3	C10H12NO+
