Mass spectrum: Nicosulfuron-TP AUSN; LC-ESI-QFT; MS2; CE: 45%; R=17500; [M-H]-
Name: Nicosulfuron-TP AUSN
Name: 2-(diaminomethylidenecarbamoylsulfamoyl)-N,N-dimethylpyridine-3-carboxamide
Formula: C10H14N6O4S
Exact mass: 314.0797
SMILES: CN(C)C(=O)C1=CC=CN=C1S(=O)(=O)NC(=O)NC(N)=N
InChI: InChI=1S/C10H14N6O4S/c1-16(2)8(17)6-4-3-5-13-7(6)21(19,20)15-10(18)14-9(11)12/h3-5H,1-2H3,(H5,11,12,14,15,18)
Instrument: Q Exactive Plus Orbitrap Thermo Scientific
Instrument type: LC-ESI-QFT
Ms type: MS2
Ion mode: NEGATIVE
Ionization: ESI
Fragmentation mode: HCD
Collision energy: 45 % (nominal)
Resolution: 17500
Column name: XBridge C18 3.5um, 2.1x50mm, Waters
Retention time: 1.351 min
Base peak: 313.0724
Precursor m/z: 313.0724
Precursor type: [M-H]-
m/z	relative intensity	assigned
58.0299	98	C2H4NO-
58.0409	17	CH4N3-
61.9706	47	NOS-
63.9624	25	O2S-
67.5792	42	
70.0296	8	C3H4NO-
77.9655	38	NO2S-
78.9732	20	HNO2S-
79.9811	67	H2NO2S-
83.0362	25	C2H3N4-
93.0458	309	C5H5N2-
94.0299	802	C5H4NO-
103.0302	83	C6H3N2-
117.0458	34	C7H5N2-
119.025	256	C6H3N2O-
119.0613	23	C7H7N2-
121.0407	164	C6H5N2O-
129.0455	15	H9N4O2S-
131.049	47	C7H5N3-
132.0326	19	C7H4N2O-
133.0406	18	C7H5N2O-
136.0878	93	C7H10N3-
141.9968	23	C5H4NO2S-
144.0565	23	C8H6N3-
146.0724	96	C8H8N3-
147.0438	56	C7H5N3O-
147.0564	84	C8H7N2O-
149.0594	604	C7H7N3O-
150.0435	20	C7H6N2O2-
162.0673	493	C8H8N3O-
164.083	999	C8H10N3O-
165.0668	305	C8H9N2O2-
168.0002	12	C6H4N2O2S-
181.0076	227	C7H5N2O2S-
182.9868	689	C6H3N2O3S-
183.9947	23	C6H4N2O3S-
200.0496	20	C7H10N3O2S-
210.0342	590	C8H8N3O2S-
228.0449	677	C8H10N3O3S-
