Mass spectrum: N4-Acetylsulfadimethoxine; LC-ESI-ITFT; MS2; CE: 35%; R=7500; [M+H]+
Name: N4-Acetylsulfadimethoxine
Name: N-[4-[(4,6-dimethoxy-2-pyrimidinyl)sulfamoyl]phenyl]acetamide
Formula: C14H16N4O5S
Exact mass: 352.0841
SMILES: C(C)(=O)Nc1ccc(cc1)S(=O)(=O)Nc1nc(cc(n1)OC)OC
InChI: InChI=1S/C14H16N4O5S/c1-9(19)15-10-4-6-11(7-5-10)24(20,21)18-14-16-12(22-2)8-13(17-14)23-3/h4-8H,1-3H3,(H,15,19)(H,16,17,18)
Instrument: LTQ Orbitrap XL Thermo Scientific
Instrument type: LC-ESI-ITFT
Ms type: MS2
Ion mode: POSITIVE
Ionization: ESI
Fragmentation mode: CID
Collision energy: 35 % (nominal)
Resolution: 7500
Column name: XBridge C18 3.5um, 2.1x50mm, Waters
Retention time: 6.3 min
Base peak: 353.0926
Precursor m/z: 353.0914
Precursor type: [M+H]+
m/z	relative intensity	assigned
108.0444	94	C6H6NO+
116.049	6	C8H6N+
118.0654	9	C8H8N+
127.0504	19	C5H7N2O2+
134.0601	127	C8H8NO+
136.0756	6	C8H10NO+
141.0531	21	C5H7N3O2+
142.061	6	C5H8N3O2+
148.0758	26	C9H10NO+
150.0547	24	C8H8NO2+
154.0614	36	C6H8N3O2+
155.0689	49	C6H9N3O2+
156.077	999	C6H10N3O2+
164.0708	71	C9H10NO2+
170.0557	22	C6H8N3O3+
198.0221	615	C8H8NO3S+
212.0377	118	C9H10NO3S+
218.0231	358	C6H8N3O4S+
245.1044	7	C12H13N4O2+
257.1035	309	C13H13N4O2+
272.0903	12	C13H12N4O3+
286.1055	6	C14H14N4O3+
287.1141	998	C14H15N4O3+
311.0815	29	C12H15N4O4S+
312.0663	6	C12H14N3O5S+
321.0653	837	C13H13N4O4S+
335.0809	36	C14H15N4O4S+
