Mass spectrum: Fentanyl; LC-ESI-QFT; MS2; CE: 90; R=35000; [M+H]+
Name: Fentanyl
Name: N-phenyl-N-[1-(2-phenylethyl)piperidin-4-yl]propanamide
Formula: C22H28N2O
Exact mass: 336.22016
SMILES: CCC(=O)N(C1CCN(CC1)CCC2=CC=CC=C2)C3=CC=CC=C3
InChI: InChI=1S/C22H28N2O/c1-2-22(25)24(20-11-7-4-8-12-20)21-14-17-23(18-15-21)16-13-19-9-5-3-6-10-19/h3-12,21H,2,13-18H2,1H3
Instrument: Q Exactive Plus Orbitrap Thermo Scientific
Instrument type: LC-ESI-QFT
Ms type: MS2
Ion mode: POSITIVE
Ionization: ESI
Fragmentation mode: HCD
Collision energy: 90 (nominal)
Resolution: 35000
Column name: XBridge C18 3.5um, 2.1x50mm, Waters
Retention time: 6.0 min
Base peak: 337.2264
Precursor m/z: 337.2274
Precursor type: [M+H]+
m/z	relative intensity	assigned
50.015	1	C4H2+
51.0227	2	C4H3+
53.0386	13	C4H5+
55.0542	17	C4H7+
56.0495	5	C3H6N+
57.0335	6	C3H5O+
65.0384	2	C5H5+
67.0542	4	C5H7+
69.0698	4	C5H9+
77.0385	33	C6H5+
79.0542	213	C6H7+
81.0333	1	C5H5O+
82.0651	1	C5H8N+
84.0807	8	C5H10N+
91.0542	13	C7H7+
93.0698	1	C7H9+
94.0651	12	C6H8N+
95.0491	46	C6H7O+
96.0807	1	C6H10N+
103.0542	158	C8H7+
104.0495	1	C7H6N+
104.0618	1	C8H8+
105.0698	999	C8H9+
115.0542	8	C9H7+
117.0572	12	C8H7N+
117.0698	8	C9H9+
118.0649	1	C8H8N+
119.0732	1	C8H9N+
119.0858	1	C9H11+
120.0808	6	C8H10N+
128.0619	1	C10H8+
129.0699	1	C10H9+
130.0651	8	C9H8N+
131.0729	3	C9H9N+
132.0807	25	C9H10N+
134.0963	3	C9H12N+
144.0807	1	C10H10N+
146.0963	6	C10H12N+
184.1121	1	C13H14N+
186.1275	2	C13H16N+
188.1433	5	C13H18N+
