Mass spectrum: Isoxaben; LC-ESI-QFT; MS2; CE: 60; R=35000; [M-H]-
Name: Isoxaben
Name: 2,6-dimethoxy-N-[3-(3-methylpentan-3-yl)-1,2-oxazol-5-yl]benzamide
Formula: C18H24N2O4
Exact mass: 332.17361
SMILES: CCC(C)(CC)C1=NOC(=C1)NC(=O)C2=C(C=CC=C2OC)OC
InChI: InChI=1S/C18H24N2O4/c1-6-18(3,7-2)14-11-15(24-20-14)19-17(21)16-12(22-4)9-8-10-13(16)23-5/h8-11H,6-7H2,1-5H3,(H,19,21)
Instrument: Q Exactive Plus Orbitrap Thermo Scientific
Instrument type: LC-ESI-QFT
Ms type: MS2
Ion mode: NEGATIVE
Ionization: ESI
Fragmentation mode: HCD
Collision energy: 60 (nominal)
Resolution: 35000
Column name: XBridge C18 3.5um, 2.1x50mm, Waters
Retention time: 10.6 min
Base peak: 331.1659
Precursor m/z: 331.1663
Precursor type: [M-H]-
m/z	relative intensity	assigned
64.0067	70	C3N2-
65.0145	110	C3HN2-
65.9985	943	C3NO-
66.0349	48	C4H4N-
72.9932	549	C2HO3-
77.0396	11	C6H5-
81.0094	19	C3HN2O-
81.0344	11	C5H5O-
82.006	41	C4H2O2-
83.0502	74	C5H7O-
91.0189	13	C6H3O-
92.0268	134	C6H4O-
93.0345	549	C6H5O-
95.0138	77	C5H3O2-
102.0349	370	C7H4N-
105.0345	282	C7H5O-
107.0501	165	C7H7O-
108.0216	178	C6H4O2-
108.0818	65	C7H10N-
117.022	283	C7H3NO-
117.0347	19	C8H5O-
118.0298	170	C7H4NO-
120.0089	118	C6H2NO2-
121.0295	999	C7H5O2-
122.0372	79	C7H6O2-
123.0087	9	C6H3O3-
123.0452	64	C7H7O2-
132.0217	65	C8H4O2-
132.0455	450	C8H6NO-
133.0169	293	C7H3NO2-
133.0295	907	C8H5O2-
134.0248	186	C7H4NO2-
134.0372	223	C8H6O2-
135.0088	103	C7H3O3-
135.0452	85	C8H7O2-
136.0406	77	C7H6NO2-
136.1129	58	C9H14N-
137.0606	129	C8H9O2-
137.0719	16	C7H9N2O-
145.0167	12	C8H3NO2-
146.0247	218	C8H4NO2-
147.0326	126	C8H5NO2-
148.0404	636	C8H6NO2-
149.0242	53	C8H5O3-
149.0609	8	C9H9O2-
151.0399	152	C8H7O3-
160.0405	30	C9H6NO2-
161.0244	776	C9H5O3-
162.0197	133	C8H4NO3-
162.0321	88	C9H6O3-
162.056	61	C9H8NO2-
164.0353	74	C8H6NO3-
164.0716	10	C9H10NO2-
166.1111	183	C9H14N2O-
172.0275	11	C9H4N2O2-
172.0397	14	C10H6NO2-
173.0114	150	C9H3NO3-
174.0196	14	C9H4NO3-
176.035	75	C9H6NO3-
188.0351	33	C10H6NO3-
190.0147	63	C9H4NO4-
206.0465	25	C10H8NO4-
220.0616	29	C11H10NO4-
273.0877	19	C14H13N2O4-
287.1035	44	C15H15N2O4-
