Mass spectrum: Chlorpyrifos-methyl; LC-ESI-ITFT; MS2; CE: 75%; R=15000; [M+H]+
Name: Chlorpyrifos-methyl
Name: dimethoxy-sulfanylidene-(3,5,6-trichloropyridin-2-yl)oxy-{5}-phosphane
Formula: C7H7Cl3NO3PS
Exact mass: 320.8950
SMILES: Clc1c(OP(=S)(OC)OC)nc(Cl)c(Cl)c1
InChI: InChI=1S/C7H7Cl3NO3PS/c1-12-15(16,13-2)14-7-5(9)3-4(8)6(10)11-7/h3H,1-2H3
Instrument: LTQ Orbitrap XL Thermo Scientific
Instrument type: LC-ESI-ITFT
Ms type: MS2
Ion mode: POSITIVE
Ionization: ESI
Fragmentation mode: HCD
Collision energy: 75 % (nominal)
Resolution: 15000
Column name: XBridge C18 3.5um, 2.1x50mm, Waters
Retention time: 14.0 min
Base peak: 321.9026
Precursor m/z: 321.9023
Precursor type: [M+H]+
m/z	relative intensity	assigned
62.0185	52	C2H6S+
78.9943	872	CH4O2P+
93.0101	51	C2H6O2P+
97.0045	14	CH6O3P+
106.9447	25	C2HClOP+
109.005	23	C2H6O3P+
110.9665	18	C2H4ClOS+
124.9821	961	C2H6O2PS+
127.0155	292	C3H8ClO3+
142.9926	999	C2H8O3PS+
150.9171	49	Cl2H4NPS+
167.917	69	C4HCl3N+
176.9201	115	C5HCl2NS+
179.9166	41	C4HCl2NOP+
197.9275	32	C5H3Cl3NO+
211.889	187	C5HCl3NS+
229.8995	47	C5H3Cl3NOS+
