Mass spectrum: Fluacrypyrim; LC-ESI-QFT; MS2; CE: 30%; R=17500; [M+H]+
Name: Fluacrypyrim
Name: Methyl 3-methoxy-2-[2-(2-isopropoxy-6-trifluoromethylpyrimidin-4-yloxymethyl) phenyl]acrylate
Name: methyl 3-methoxy-2-[2-[[2-propan-2-yloxy-6-(trifluoromethyl)pyrimidin-4-yl]oxymethyl]phenyl]prop-2-enoate
Formula: C20H21F3N2O5
Exact mass: 426.1403
SMILES: CC(C)OC1=NC(=CC(=N1)OCC2=CC=CC=C2C(=COC)C(=O)OC)C(F)(F)F
InChI: InChI=1S/C20H21F3N2O5/c1-12(2)30-19-24-16(20(21,22)23)9-17(25-19)29-10-13-7-5-6-8-14(13)15(11-27-3)18(26)28-4/h5-9,11-12H,10H2,1-4H3
Instrument: Exploris 240 Orbitrap Thermo Scientific
Instrument type: LC-ESI-QFT
Ms type: MS2
Ion mode: POSITIVE
Ionization: ESI
Fragmentation mode: HCD
Collision energy: 30 % (nominal)
Resolution: 17500
Column name: XBridge C18 3.5um, 2.1x50mm, Waters
Retention time: 12.205 min
Base peak: 326.0822
Precursor m/z: 427.1475
Precursor type: [M+H]+
m/z	relative intensity	assigned
117.0695	4	C9H9+
145.0647	999	C10H9O+
173.0598	20	C11H9O2+
177.0908	29	C11H13O2+
205.0858	218	C12H13O3+
