Mass spectrum: Acemetacin; LC-ESI-QFT; MS2; CE: 75; R=35000; [M-H]-
Name: Acemetacin
Name: Rantudil
Name: 2-[2-[1-(4-chlorobenzoyl)-5-methoxy-2-methyl-indol-3-yl]acetyl]oxyacetic acid
Formula: C21H18ClNO6
Exact mass: 415.08227
SMILES: Clc1ccc(cc1)C(=O)n3c2ccc(OC)cc2c(c3C)CC(=O)OCC(=O)O
InChI: InChI=1S/C21H18ClNO6/c1-12-16(10-20(26)29-11-19(24)25)17-9-15(28-2)7-8-18(17)23(12)21(27)13-3-5-14(22)6-4-13/h3-9H,10-11H2,1-2H3,(H,24,25)
Instrument: Q Exactive Orbitrap Thermo Scientific
Instrument type: LC-ESI-QFT
Ms type: MS2
Ion mode: NEGATIVE
Ionization: ESI
Fragmentation mode: HCD
Collision energy: 75 (nominal)
Resolution: 35000
Column name: XBridge C18 3.5um, 2.1x50mm, Waters
Retention time: 12.8 min
Base peak: 414.0755
Precursor m/z: 414.075
Precursor type: [M-H]-
m/z	relative intensity	assigned
72.9932	23	C2HO3-
75.0088	999	C2H3O3-
111.0008	10	C6H4Cl-
157.0534	7	C10H7NO-
158.0612	89	C10H8NO-
184.0405	4	C11H6NO2-
218.0609	1	C15H8NO-
252.0223	1	C15H7ClNO-
253.0302	11	C15H8ClNO-
254.0379	14	C15H9ClNO-
255.0458	14	C15H10ClNO-
268.0533	5	C16H11ClNO-
269.0613	10	C16H12ClNO-
280.0174	1	C16H7ClNO2-
281.0249	6	C16H8ClNO2-
282.0327	82	C16H9ClNO2-
297.0563	1	C17H12ClNO2-
