Mass spectrum: 8-Hydroxy Mirtazapine; LC-ESI-QFT; MS2; CE: 120; R=35000; [M+H]+
Name: 8-Hydroxy Mirtazapine
Name: 2-Methyl-1,2,3,4,10,14b-hexahydropyrazino[2,1-a]pyrido[2,3-c][2]benzazepin-8-ol
Formula: C17H19N3O
Exact mass: 281.15281
SMILES: CN1CCN2C(C1)C3=CC=CC=C3CC4=CC(=CN=C42)O
InChI: InChI=1S/C17H19N3O/c1-19-6-7-20-16(11-19)15-5-3-2-4-12(15)8-13-9-14(21)10-18-17(13)20/h2-5,9-10,16,21H,6-8,11H2,1H3
Instrument: Q Exactive Plus Orbitrap Thermo Scientific
Instrument type: LC-ESI-QFT
Ms type: MS2
Ion mode: POSITIVE
Ionization: ESI
Fragmentation mode: HCD
Collision energy: 120 (nominal)
Resolution: 35000
Column name: XBridge C18 3.5um, 2.1x50mm, Waters
Retention time: 4.2 min
Base peak: 282.1591
Precursor m/z: 282.1601
Precursor type: [M+H]+
m/z	relative intensity	assigned
50.0151	19	C4H2+
51.0229	17	C4H3+
52.0181	3	C3H2N+
52.0308	2	C4H4+
53.0385	205	C4H5+
54.0338	14	C3H4N+
55.0178	45	C3H3O+
55.0416	3	C3H5N+
56.0494	57	C3H6N+
57.0573	28	C3H7N+
58.0651	140	C3H8N+
63.0228	40	C5H3+
64.0182	3	C4H2N+
64.0306	1	C5H4+
65.0385	72	C5H5+
66.0338	12	C4H4N+
66.0462	2	C5H6+
67.0177	10	C4H3O+
67.0416	10	C4H5N+
67.0541	9	C5H7+
68.013	373	C3H2NO+
70.065	77	C4H8N+
72.0807	226	C4H10N+
75.0227	2	C6H3+
76.018	10	C5H2N+
77.0384	28	C6H5+
78.0337	83	C5H4N+
78.0463	15	C6H6+
79.0177	17	C5H3O+
79.0415	17	C5H5N+
79.0541	26	C6H7+
80.0494	193	C5H6N+
81.0334	16	C5H5O+
81.0447	9	C4H5N2+
82.0287	18	C4H4NO+
82.0524	18	C4H6N2+
82.065	1	C5H8N+
83.0602	6	C4H7N2+
85.0759	3	C4H9N2+
89.0385	102	C7H5+
90.0337	9	C6H4N+
90.0463	20	C7H6+
91.0542	194	C7H7+
92.0494	13	C6H6N+
93.0081	2	C4HN2O+
93.0573	6	C6H7N+
94.0286	16	C5H4NO+
94.0651	20	C6H8N+
95.0365	3	C5H5NO+
95.049	41	C6H7O+
95.0604	8	C5H7N2+
96.0443	36	C5H6NO+
101.0384	1	C8H5+
102.0462	12	C8H6+
103.0541	112	C8H7+
104.0494	19	C7H6N+
104.0619	15	C8H8+
105.0446	61	C6H5N2+
105.0698	32	C8H9+
106.0286	13	C6H4NO+
106.0526	7	C6H6N2+
107.0365	3	C6H5NO+
108.0442	25	C6H6NO+
109.0395	3	C5H5N2O+
109.0522	2	C6H7NO+
110.0236	3	C5H4NO2+
110.0474	1	C5H6N2O+
110.0599	3	C6H8NO+
112.0392	52	C5H6NO2+
113.0385	6	C9H5+
114.0464	10	C9H6+
115.0541	475	C9H7+
116.0493	209	C8H6N+
116.0619	20	C9H8+
117.0572	61	C8H7N+
117.0697	18	C9H9+
118.065	11	C8H8N+
119.0603	22	C7H7N2+
120.0443	3	C7H6NO+
121.0396	2	C6H5N2O+
121.0759	2	C7H9N2+
122.0599	2	C7H8NO+
123.0554	1	C6H7N2O+
126.0464	9	C10H6+
126.0549	30	C6H8NO2+
127.0541	44	C10H7+
128.0494	19	C9H6N+
128.0619	242	C10H8+
129.0571	26	C9H7N+
129.0697	123	C10H9+
130.0651	185	C9H8N+
131.0605	12	C8H7N2+
131.0728	28	C9H9N+
132.0444	2	C8H6NO+
132.0806	13	C9H10N+
133.0396	12	C7H5N2O+
133.0521	1	C8H7NO+
134.0474	27	C7H6N2O+
134.0599	8	C8H8NO+
135.055	15	C7H7N2O+
138.0463	2	C11H6+
139.0541	439	C11H7+
140.0493	175	C10H6N+
140.0617	58	C11H8+
141.0573	52	C10H7N+
141.0697	122	C11H9+
142.0526	3	C9H6N2+
142.065	29	C10H8N+
143.0729	29	C10H9N+
143.0851	2	C11H11+
144.0444	2	C9H6NO+
144.0806	58	C10H10N+
145.0646	57	C10H9O+
146.0599	19	C9H8NO+
147.0552	51	C8H7N2O+
150.0466	3	C12H6+
151.049	18	
151.0545	11	C12H7+
152.0619	101	C12H8+
153.0572	28	C11H7N+
153.0697	28	C12H9+
154.065	384	C11H8N+
155.0492	14	C11H7O+
155.0602	138	C10H7N2+
155.0727	59	C11H9N+
156.0807	74	C11H10N+
157.0887	2	C11H11N+
158.0961	3	C11H12N+
159.0554	2	C9H7N2O+
163.0542	6	C13H7+
164.0494	19	C12H6N+
165.0573	26	C12H7N+
165.0698	25	C13H9+
166.065	372	C12H8N+
167.0728	301	C12H9N+
168.0567	6	C12H8O+
168.0681	98	C11H8N2+
168.0804	50	C12H10N+
169.0647	33	C12H9O+
169.0758	38	C11H9N2+
170.0602	15	C11H8NO+
170.0957	1	C12H12N+
171.0549	1	C10H7N2O+
176.062	3	C14H8+
177.0572	12	C13H7N+
177.0698	3	C14H9+
178.0651	30	C13H8N+
178.077	12	C14H10+
179.0602	27	C12H7N2+
179.0724	16	C13H9N+
180.0553	3	C11H6N3+
180.0683	5	C12H8N2+
180.0805	49	C13H10N+
181.0758	481	C12H9N2+
182.0599	98	C12H8NO+
182.0837	146	C12H10N2+
183.0677	149	C12H9NO+
183.0913	20	C12H11N2+
184.0632	34	C11H8N2O+
184.0755	63	C12H10NO+
185.0709	2	C11H9N2O+
189.0567	1	C14H7N+
189.0696	2	C15H9+
190.0649	30	C14H8N+
191.06	11	C13H7N2+
191.0722	10	C14H9N+
192.068	80	C13H8N2+
192.0807	4	C14H10N+
193.0759	81	C13H9N2+
194.0595	11	C13H8NO+
194.0837	80	C13H10N2+
195.0551	8	C12H7N2O+
195.0677	149	C13H9NO+
195.0916	17	C13H11N2+
196.0631	18	C12H8N2O+
196.0755	82	C13H10NO+
197.0712	9	C12H9N2O+
197.0831	6	C13H11NO+
204.0805	12	C15H10N+
205.0758	32	C14H9N2+
206.0593	2	C14H8NO+
206.0836	26	C14H10N2+
207.0681	11	C14H9NO+
207.0912	14	C14H11N2+
208.0631	44	C13H8N2O+
208.0757	11	C14H10NO+
209.0708	346	C13H9N2O+
210.0786	999	C13H10N2O+
211.0865	58	C13H11N2O+
216.0807	2	C16H10N+
217.0764	2	C15H9N2+
218.0835	13	C15H10N2+
219.0918	2	C15H11N2+
220.0755	6	C15H10NO+
221.0707	47	C14H9N2O+
222.0784	20	C14H10N2O+
223.0865	32	C14H11N2O+
224.0942	2	C14H12N2O+
225.1015	1	C14H13N2O+
232.076	3	C16H10NO+
233.0707	2	C15H9N2O+
234.0786	72	C15H10N2O+
235.0863	39	C15H11N2O+
237.1021	1	C15H13N2O+
247.0865	2	C16H11N2O+
249.1021	2	C16H13N2O+
250.0975	3	C15H12N3O+
