Mass spectrum: Pheniramine; LC-ESI-QFT; MS2; CE: 90; R=35000; [M+H]+
Name: Pheniramine
Name: N,N-dimethyl-3-phenyl-3-pyridin-2-ylpropan-1-amine
Formula: C16H20N2
Exact mass: 240.16265
SMILES: CN(C)CCC(C1=CC=CC=C1)C2=CC=CC=N2
InChI: InChI=1S/C16H20N2/c1-18(2)13-11-15(14-8-4-3-5-9-14)16-10-6-7-12-17-16/h3-10,12,15H,11,13H2,1-2H3
Instrument: Q Exactive Plus Orbitrap Thermo Scientific
Instrument type: LC-ESI-QFT
Ms type: MS2
Ion mode: POSITIVE
Ionization: ESI
Fragmentation mode: HCD
Collision energy: 90 (nominal)
Resolution: 35000
Column name: XBridge C18 3.5um, 2.1x50mm, Waters
Retention time: 3.7 min
Base peak: 241.1697
Precursor m/z: 241.1699
Precursor type: [M+H]+
m/z	relative intensity	assigned
65.0386	16	C5H5+
78.0337	2	C5H4N+
80.0494	2	C5H6N+
91.0542	243	C7H7+
92.0495	10	C6H6N+
93.0573	7	C6H7N+
94.0651	3	C6H8N+
96.0444	2	C5H6NO+
103.0542	6	C8H7+
104.0495	1	C7H6N+
110.0601	19	C6H8NO+
115.0542	7	C9H7+
117.0573	74	C8H7N+
117.0696	3	C9H9+
118.0651	179	C8H8N+
119.073	36	C8H9N+
128.0622	1	C10H8+
129.0698	1	C10H9+
141.0699	6	C11H9+
146.0601	1	C9H8NO+
166.0651	6	C12H8N+
167.073	999	C12H9N+
168.0808	782	C12H10N+
178.0781	1	C14H10+
180.0808	27	C13H10N+
181.0886	10	C13H11N+
193.0886	6	C14H11N+
194.0965	59	C14H12N+
195.1043	10	C14H13N+
196.1121	219	C14H14N+
