Mass spectrum: Sulfamic acid; LC-ESI-QFT; MS2; CE: 45%; R=15000; [M-H]-
Name: Sulfamic acid
Formula: H3NO3S
Exact mass: 96.98336396
SMILES: NS(=O)(=O)O
InChI: InChI=1S/H3NO3S/c1-5(2,3)4/h(H3,1,2,3,4)
Instrument: Exploris 240 Thermo Scientific
Instrument type: LC-ESI-QFT
Ms type: MS2
Ion mode: NEGATIVE
Ionization: ESI
Fragmentation mode: HCD
Collision energy: 45 % (nominal)
Resolution: 15000
Column name: XBridge C18 3.5um, 2.1x50mm, Waters
Retention time: 0.792 min
Base peak: 95.9761
Precursor m/z: 95.9761
Precursor type: [M-H]-
m/z	relative intensity	assigned
79.9574	42	O3S-
95.9762	999	H2NO3S-
