Mass spectrum: Pyridaben; LC-ESI-QFT; MS2; CE: 150%; R=17500; [M+H]+
Name: Pyridaben
Name: 2-tert-butyl-5-[(4-tert-butylphenyl)methylsulfanyl]-4-chloropyridazin-3-one
Formula: C19H25ClN2OS
Exact mass: 364.1376
SMILES: CC(C)(C)C1=CC=C(C=C1)CSC2=C(C(=O)N(N=C2)C(C)(C)C)Cl
InChI: InChI=1S/C19H25ClN2OS/c1-18(2,3)14-9-7-13(8-10-14)12-24-15-11-21-22(19(4,5)6)17(23)16(15)20/h7-11H,12H2,1-6H3
Instrument: Exploris 240 Orbitrap Thermo Scientific
Instrument type: LC-ESI-QFT
Ms type: MS2
Ion mode: POSITIVE
Ionization: ESI
Fragmentation mode: HCD
Collision energy: 150 % (nominal)
Resolution: 17500
Column name: XBridge C18 3.5um, 2.1x50mm, Waters
Retention time: 15.195 min
Base peak: 365.1448
Precursor m/z: 365.1449
Precursor type: [M+H]+
m/z	relative intensity	assigned
51.0228	9	C4H3+
53.0385	21	C4H5+
65.0386	81	C5H5+
77.0385	69	C6H5+
78.0463	55	C6H6+
79.0542	54	C6H7+
91.0543	693	C7H7+
95.0489	15	C6H7O+
102.0468	12	C8H6+
103.0543	65	C8H7+
104.0622	81	C8H8+
105.0447	22	C6H5N2+
105.0697	59	C8H9+
115.0543	532	C9H7+
116.0622	69	C9H8+
117.0699	999	C9H9+
119.0857	11	C9H11+
131.0855	39	C10H11+
132.0933	19	C10H12+
