Mass spectrum: Disulfoton-sulfoxide; LC-ESI-QFT; MS2; CE: 15%; R=17500; [M+H]+
Name: Disulfoton-sulfoxide
Name: Oxydisulfoton
Name: diethoxy-(2-ethylsulfinylethylsulfanyl)-sulfanylidene-lambda5-phosphane
Formula: C8H19O3PS3
Exact mass: 290.0234
SMILES: CCOP(=S)(OCC)SCCS(=O)CC
InChI: InChI=1S/C8H19O3PS3/c1-4-10-12(13,11-5-2)14-7-8-15(9)6-3/h4-8H2,1-3H3
Instrument: Exploris 240 Orbitrap Thermo Scientific
Instrument type: LC-ESI-QFT
Ms type: MS2
Ion mode: POSITIVE
Ionization: ESI
Fragmentation mode: HCD
Collision energy: 15 % (nominal)
Resolution: 17500
Column name: XBridge C18 3.5um, 2.1x50mm, Waters
Retention time: 6.653 min
Base peak: 282.279
Precursor m/z: 291.0307
Precursor type: [M+H]+
m/z	relative intensity	assigned
124.9826	6	C2H6O2PS+
153.0133	85	C4H10O2PS+
156.9542	15	C2H6O2PS2+
171.024	11	C4H12O3PS+
184.9854	657	C4H10O2PS2+
213.0167	999	C6H14O2PS2+
