Mass spectrum: Tembotrione; LC-ESI-QFT; MS2; CE: 60; R=35000; [M+H]+
Name: Tembotrione
Name: 2-{2-Chloro-4-(methylsulfonyl)-3-[(2,2,2-trifluoroethoxy)methyl]benzoyl}-1,3-cyclohexanedione
Formula: C17H16ClF3O6S
Exact mass: 440.03082
SMILES: O=C(c1ccc(c(c1Cl)COCC(F)(F)F)S(=O)(=O)C)C2C(=O)CCCC2=O
InChI: InChI=1S/C17H16ClF3O6S/c1-28(25,26)13-6-5-9(15(18)10(13)7-27-8-17(19,20)21)16(24)14-11(22)3-2-4-12(14)23/h5-6,14H,2-4,7-8H2,1H3
Instrument: Q Exactive Orbitrap Thermo Scientific
Instrument type: LC-ESI-QFT
Ms type: MS2
Ion mode: POSITIVE
Ionization: ESI
Fragmentation mode: HCD
Collision energy: 60 (nominal)
Resolution: 35000
Column name: XBridge C18 3.5um, 2.1x50mm, Waters
Retention time: 9.9 min
Base peak: 458.0644
Precursor m/z: 441.0381
Precursor type: [M+H]+
m/z	relative intensity	assigned
55.018	4	C3H3O+
62.99	1	CH3OS+
65.0386	4	C5H5+
66.01	5	C4H2O+
66.0464	3	C5H6+
77.0383	1	C6H5+
93.0334	4	C6H5O+
94.0413	3	C6H6O+
95.049	3	C6H7O+
105.0333	2	C7H5O+
109.0284	3	C6H5O2+
110.9993	1	C6H4Cl+
112.0073	1	C6H5Cl+
115.054	6	C9H7+
117.0698	1	C9H9+
119.0489	4	C8H7O+
121.0283	12	C7H5O2+
122.036	3	C7H6O2+
124.0074	1	C7H5Cl+
126.9943	9	C6H4ClO+
128.062	7	C10H8+
129.0696	8	C10H9+
131.0125	1	C8H3O2+
131.0489	1	C9H7O+
133.0281	3	C8H5O2+
138.9944	11	C7H4ClO+
140.0021	8	C7H5ClO+
141.01	8	C7H6ClO+
141.0697	8	C11H9+
142.0777	8	C11H10+
143.0492	1	C10H7O+
143.0855	7	C11H11+
147.0437	8	C9H7O2+
149.0232	15	C8H5O3+
151.0388	2	C6H9F2S+
152.0023	1	C8H5ClO+
152.0618	3	C12H8+
153.0102	1	C8H6ClO+
153.0698	8	C12H9+
155.0489	1	C11H7O+
157.0647	24	C11H9O+
159.0801	1	C11H11O+
163.0302	1	C10H8Cl+
165.01	6	C9H6ClO+
165.0543	6	C7H11F2S+
166.0182	1	C9H7ClO+
166.9892	57	C8H4ClO2+
167.0336	6	C6H9F2OS+
167.997	9	C8H5ClO2+
168.0572	1	C12H8O+
169.005	7	C8H6ClO2+
169.0645	9	C12H9O+
170.0359	1	C11H6O2+
170.0724	7	C12H10O+
171.0441	3	C11H7O2+
171.0803	22	C12H11O+
173.0598	2	C11H9O2+
177.0462	2	C11H10Cl+
178.0178	39	C10H7ClO+
179.0255	5	C10H8ClO+
181.0647	22	C13H9O+
184.0511	1	C12H8O2+
184.9998	67	C6H8ClF2S+
185.0596	27	C12H9O2+
186.0077	1	C8H7ClO3+
186.0311	1	C11H6O3+
186.0676	1	C12H10O2+
187.0305	1	C12H8Cl+
187.075	3	C12H11O2+
188.0466	1	C9H10F2S+
191.0257	12	C11H8ClO+
192.0336	9	C11H9ClO+
195.0802	1	C14H11O+
197.0594	15	C13H9O2+
198.0675	8	C13H10O2+
199.0388	7	C10H9F2S+
199.0752	27	C13H11O2+
201.0543	2	C10H11F2S+
202.0622	60	C10H12F2S+
203.0258	1	C12H8ClO+
204.0418	1	C11H8O4+
205.0048	1	C11H6ClO2+
205.0413	13	C12H10ClO+
206.0128	13	C11H7ClO2+
206.0493	1	C12H11ClO+
207.0205	6	C11H8ClO2+
209.0596	7	C14H9O2+
211.0057	3	C9H7O4S+
211.0754	3	C14H11O2+
212.083	5	C14H12O2+
213.0545	22	C11H11F2S+
213.0908	11	C14H13O2+
214.0622	34	C11H12F2S+
215.0254	8	C13H8ClO+
215.0701	10	C11H13F2S+
216.0335	3	C13H9ClO+
217.0413	3	C13H10ClO+
219.0207	12	C12H8ClO2+
220.0283	40	C12H9ClO2+
223.0749	4	C15H11O2+
225.0543	44	C12H11F2S+
226.0622	11	C12H12F2S+
227.07	83	C12H13F2S+
230.0574	3	C13H10O4+
231.0207	2	C13H8ClO2+
232.027	15	C11H8ClF3+
233.0363	34	C13H10ClO2+
234.0441	4	C13H11ClO2+
239.0707	1	C15H11O3+
240.0778	26	C13H14F2S+
241.0493	82	C12H11F2OS+
241.0857	79	C13H15F2S+
242.0571	129	C12H12F2OS+
242.0933	38	C13H16F2S+
243.0651	80	C12H13F2OS+
246.0343	41	C13H10O3S+
246.0522	8	C13H10O5+
259.0156	3	C14H8ClO3+
260.0234	58	C14H9ClO3+
261.0313	33	C14H10ClO3+
262.0389	999	C12H13ClF2S+
271.0057	6	C14H7O4S+
272.0134	4	C14H8O4S+
273.0213	4	C14H9O4S+
275.0005	1	C13H7O5S+
277.0264	17	C14H10ClO4+
287.0374	3	C15H11O4S+
289.0162	58	C14H9O5S+
290.024	39	C14H10O5S+
291.032	4	C14H11O5S+
305.0475	29	C15H13O5S+
