Mass spectrum: Amisulpride; LC-ESI-ITFT; MS2; CE: 60%; R=15000; [M+H]+
Name: Amisulpride
Name: 4-amino-5-esyl-N-[(1-ethylpyrrolidin-2-yl)methyl]-2-methoxy-benzamide
Formula: C17H27N3O4S
Exact mass: 369.1722
SMILES: CCN1CCCC1CNC(=O)C2=CC(=C(C=C2OC)N)S(=O)(=O)CC
InChI: InChI=1S/C17H27N3O4S/c1-4-20-8-6-7-12(20)11-19-17(21)13-9-16(25(22,23)5-2)14(18)10-15(13)24-3/h9-10,12H,4-8,11,18H2,1-3H3,(H,19,21)
Instrument: LTQ Orbitrap XL Thermo Scientific
Instrument type: LC-ESI-ITFT
Ms type: MS2
Ion mode: POSITIVE
Ionization: ESI
Fragmentation mode: HCD
Collision energy: 60 % (nominal)
Resolution: 15000
Column name: XBridge C18 3.5um, 2.1x50mm, Waters
Retention time: 3.8 min
Base peak: 370.1806
Precursor m/z: 370.1795
Precursor type: [M+H]+
m/z	relative intensity	assigned
58.0652	5	C3H8N+
84.0808	15	C5H10N+
98.0964	10	C6H12N+
112.1121	205	C7H14N+
124.039	2	C6H6NO2+
129.1387	4	C7H17N2+
138.0183	2	C6H4NO3+
140.0163	2	C6H6NOS+
147.0316	2	C8H5NO2+
149.0471	30	H11N3O4S+
150.0552	5	C8H8NO2+
155.1177	5	C8H15N2O+
168.0113	14	C7H6NO2S+
177.9959	5	C8H4NO2S+
196.0064	356	C8H6NO3S+
197.0148	2	C8H7NO3S+
214.0168	120	C8H8NO4S+
242.0484	999	C10H12NO4S+
