Mass spectrum: Propranolol; LC-ESI-ITFT; MS2; CE: 60%; R=7500; [M+H]+
Name: Propranolol
Name: 1-(1-naphthalenyloxy)-3-(propan-2-ylamino)-2-propanol
Formula: C16H21NO2
Exact mass: 259.1572
SMILES: CC(C)NCC(COC1=CC=CC2=CC=CC=C21)O
InChI: InChI=1S/C16H21NO2/c1-12(2)17-10-14(18)11-19-16-9-5-7-13-6-3-4-8-15(13)16/h3-9,12,14,17-18H,10-11H2,1-2H3
Instrument: LTQ Orbitrap XL Thermo Scientific
Instrument type: LC-ESI-ITFT
Ms type: MS2
Ion mode: POSITIVE
Ionization: ESI
Fragmentation mode: HCD
Collision energy: 60 % (nominal)
Resolution: 7500
Column name: XBridge C18 3.5um, 2.1x50mm, Waters
Retention time: 6.6 min
Base peak: 260.165
Precursor m/z: 260.1645
Precursor type: [M+H]+
m/z	relative intensity	assigned
56.0494	420	C3H6N+
58.0651	352	C3H8N+
72.0808	491	C4H10N+
74.0601	828	C3H8NO+
84.0805	55	C5H10N+
86.0965	27	C5H12N+
98.0964	419	C6H12N+
100.1121	230	C6H14N+
115.0542	51	C9H7+
116.1069	881	C6H14NO+
128.062	17	C10H8+
129.0698	273	C10H9+
141.07	102	C11H9+
143.0485	60	C10H7O+
144.0567	17	C10H8O+
145.0648	222	C10H9O+
153.0697	127	C12H9+
155.0604	55	C10H7N2+
155.0855	999	C12H11+
157.0647	741	C11H9O+
165.0698	279	C13H9+
168.057	75	C12H8O+
171.0807	54	C12H11O+
183.0804	724	C13H11O+
