Mass spectrum: Tepraloxydim; LC-ESI-QFT; MS2; CE: 75; R=35000; [M+H]+
Name: Tepraloxydim
Name: E-Tepraloxydim
Formula: C17H24ClNO4
Exact mass: 341.13939
SMILES: CC/C(=N\OC\C=C\Cl)/C=1C(=O)CC(CC=1O)C2CCOCC2
InChI: InChI=1S/C17H24ClNO4/c1-2-14(19-23-7-3-6-18)17-15(20)10-13(11-16(17)21)12-4-8-22-9-5-12/h3,6,12-13,20H,2,4-5,7-11H2,1H3/b6-3+,19-14+
Instrument: Q Exactive Orbitrap Thermo Scientific
Instrument type: LC-ESI-QFT
Ms type: MS2
Ion mode: POSITIVE
Ionization: ESI
Fragmentation mode: HCD
Collision energy: 75 (nominal)
Resolution: 35000
Column name: XBridge C18 3.5um, 2.1x50mm, Waters
Retention time: 11.5 min
Base peak: 342.1471
Precursor m/z: 342.1467
Precursor type: [M+H]+
m/z	relative intensity	assigned
51.0231	2	C4H3+
55.0545	3	C4H7+
56.0497	36	C3H6N+
57.0337	5	C3H5O+
57.0576	5	C3H7N+
58.0653	10	C3H8N+
65.0387	64	C5H5+
66.034	2	C4H4N+
66.0465	10	C5H6+
67.0417	46	C4H5N+
67.0543	211	C5H7+
68.0495	137	C4H6N+
69.0335	59	C4H5O+
69.0699	19	C5H9+
70.0288	14	C3H4NO+
70.0652	45	C4H8N+
71.0128	6	C3H3O2+
71.0493	5	C4H7O+
71.073	11	C4H9N+
72.0444	42	C3H6NO+
72.0808	19	C4H10N+
74.9996	219	C3H4Cl+
77.0386	73	C6H5+
78.0465	3	C6H6+
79.0542	323	C6H7+
80.0495	55	C5H6N+
80.0621	6	C6H8+
81.0335	60	C5H5O+
81.0573	12	C5H7N+
81.0699	142	C6H9+
82.0652	143	C5H8N+
83.0492	179	C5H7O+
84.0444	15	C4H6NO+
84.0809	13	C5H10N+
91.0542	574	C7H7+
92.0495	5	C6H6N+
92.062	5	C7H8+
93.0573	49	C6H7N+
93.0699	269	C7H9+
94.0652	188	C6H8N+
95.0492	231	C6H7O+
95.073	11	C6H9N+
95.0856	43	C7H11+
96.0444	441	C5H6NO+
96.0807	33	C6H10N+
97.0522	43	C5H7NO+
97.0649	16	C6H9O+
98.0601	999	C5H8NO+
100.0757	2	C5H10NO+
103.0543	200	C8H7+
104.0496	5	C7H6N+
104.0622	3	C8H8+
105.0448	84	C6H5N2+
105.0699	231	C8H9+
106.0652	40	C7H8N+
107.0492	53	C7H7O+
107.073	12	C7H9N+
107.0857	40	C8H11+
108.0444	31	C6H6NO+
108.0808	272	C7H10N+
109.0285	15	C6H5O2+
109.0523	10	C6H7NO+
109.0649	71	C7H9O+
109.0886	13	C7H11N+
109.1013	4	C8H13+
110.0601	255	C6H8NO+
110.0965	79	C7H12N+
111.0441	73	C6H7O2+
111.0679	79	C6H9NO+
111.0804	4	C7H11O+
112.0758	6	C6H10NO+
113.0834	4	C6H11NO+
114.0915	28	C6H12NO+
115.0543	74	C9H7+
116.062	23	C9H8+
117.0573	19	C8H7N+
117.0699	79	C9H9+
118.0651	44	C8H8N+
119.0492	38	C8H7O+
119.0607	5	C7H7N2+
119.073	15	C8H9N+
119.0856	61	C9H11+
120.0443	19	C7H6NO+
120.0572	4	C8H8O+
120.0808	43	C8H10N+
121.0648	484	C8H9O+
122.0601	85	C7H8NO+
122.0965	18	C8H12N+
123.0439	11	C7H7O2+
123.068	3	C7H9NO+
123.0805	5	C8H11O+
124.0393	52	C6H6NO2+
124.0757	50	C7H10NO+
126.055	65	C6H8NO2+
128.062	58	C10H8+
129.0699	52	C10H9+
130.0652	29	C9H8N+
130.0779	22	C10H10+
131.0492	17	C9H7O+
131.073	17	C9H9N+
131.0856	42	C10H11+
132.057	4	C9H8O+
132.0808	48	C9H10N+
133.0522	10	C8H7NO+
133.0649	28	C9H9O+
133.0887	5	C9H11N+
133.1013	5	C10H13+
134.0599	12	C8H8NO+
134.0966	22	C9H12N+
135.044	2	C8H7O2+
135.0683	2	C8H9NO+
135.0805	17	C9H11O+
136.0757	203	C8H10NO+
137.0598	22	C8H9O2+
137.0834	13	C8H11NO+
138.055	19	C7H8NO2+
138.0914	177	C8H12NO+
139.0634	3	C7H9NO2+
140.0706	4	C7H10NO2+
141.0702	23	C11H9+
142.05	59	C6H8NO3+
142.0655	3	C10H8N+
142.0779	13	C11H10+
143.0731	12	C10H9N+
143.0855	12	C11H11+
144.0568	10	C10H8O+
144.0811	22	C10H10N+
144.0935	4	C11H12+
145.0648	23	C10H9O+
145.0887	16	C10H11N+
145.1013	5	C11H13+
146.0602	31	C9H8NO+
146.0965	15	C10H12N+
147.0441	43	C9H7O2+
147.0679	10	C9H9NO+
147.0805	12	C10H11O+
147.1041	3	C10H13N+
148.0756	69	C9H10NO+
148.1122	11	C10H14N+
149.0598	248	C9H9O2+
150.0914	13	C9H12NO+
152.0707	6	C8H10NO2+
153.07	5	C12H9+
154.0776	6	C12H10+
155.0602	6	C10H7N2+
155.0851	2	C12H11+
157.0649	9	C11H9O+
157.1016	2	C12H13+
158.073	6	C11H10O+
158.0964	19	C11H12N+
159.0804	11	C11H11O+
159.1041	3	C11H13N+
160.0758	24	C10H10NO+
160.112	12	C11H14N+
161.0598	15	C10H9O2+
161.0836	11	C10H11NO+
161.0961	3	C11H13O+
162.0554	3	C9H8NO2+
162.0914	17	C10H12NO+
163.0626	3	C9H9NO2+
164.0706	62	C9H10NO2+
164.107	4	C10H14NO+
166.0862	204	C9H12NO2+
170.0966	5	C12H12N+
172.0754	5	C11H10NO+
173.0842	3	C11H11NO+
174.0916	16	C11H12NO+
176.0709	6	C10H10NO2+
176.1075	3	C11H14NO+
186.0919	4	C12H12NO+
188.107	4	C12H14NO+
190.0865	3	C11H12NO2+
192.1383	2	C12H18NO+
194.1181	2	C11H16NO2+
222.1492	3	C13H20NO2+
234.149	21	C14H20NO2+
