Mass spectrum: Indomethacin; LC-ESI-ITFT; MS2; CE: 60%; R=15000; [M+H]+
Name: Indomethacin
Name: 2-[1-(4-chlorobenzoyl)-5-methoxy-2-methyl-indol-3-yl]acetic acid
Formula: C19H16ClNO4
Exact mass: 357.0768
SMILES: COC1=CC2=C(C=C1)N(C(=O)C3=CC=C(Cl)C=C3)C(C)=C2CC(O)=O
InChI: InChI=1S/C19H16ClNO4/c1-11-15(10-18(22)23)16-9-14(25-2)7-8-17(16)21(11)19(24)12-3-5-13(20)6-4-12/h3-9H,10H2,1-2H3,(H,22,23)
Instrument: LTQ Orbitrap XL Thermo Scientific
Instrument type: LC-ESI-ITFT
Ms type: MS2
Ion mode: POSITIVE
Ionization: ESI
Fragmentation mode: HCD
Collision energy: 60 % (nominal)
Resolution: 15000
Column name: XBridge C18 3.5um, 2.1x50mm, Waters
Retention time: 12.9 min
Base peak: 358.0852
Precursor m/z: 358.0841
Precursor type: [M+H]+
m/z	relative intensity	assigned
51.023	3	C4H3+
79.0179	1	C5H3O+
80.0257	1	C5H4O+
86.9997	12	C4H4Cl+
110.9996	6	C6H4Cl+
114.9945	1	C5H4ClO+
129.0102	2	C6H6ClO+
131.073	3	C9H9N+
138.9946	999	C7H4ClO+
139.006	124	C9HNO+
159.0678	4	C10H9NO+
174.0914	11	C11H12NO+
