Mass spectrum: Repaglinide; LC-ESI-QFT; MS2; CE: 30; R=35000; [M-H]-
Name: Repaglinide
Name: 2-ethoxy-4-[2-[[3-methyl-1-(2-piperidin-1-ylphenyl)butyl]amino]-2-oxoethyl]benzoic acid
Formula: C27H36N2O4
Exact mass: 452.26751
SMILES: CCOC1=C(C=CC(=C1)CC(=O)NC(CC(C)C)C2=CC=CC=C2N3CCCCC3)C(=O)O
InChI: InChI=1S/C27H36N2O4/c1-4-33-25-17-20(12-13-22(25)27(31)32)18-26(30)28-23(16-19(2)3)21-10-6-7-11-24(21)29-14-8-5-9-15-29/h6-7,10-13,17,19,23H,4-5,8-9,14-16,18H2,1-3H3,(H,28,30)(H,31,32)
Instrument: Q Exactive Plus Orbitrap Thermo Scientific
Instrument type: LC-ESI-QFT
Ms type: MS2
Ion mode: NEGATIVE
Ionization: ESI
Fragmentation mode: HCD
Collision energy: 30 (nominal)
Resolution: 35000
Column name: XBridge C18 3.5um, 2.1x50mm, Waters
Retention time: 9.9 min
Base peak: 497.2656
Precursor m/z: 451.2602
Precursor type: [M-H]-
m/z	relative intensity	assigned
91.0553	9	C7H7-
92.0267	5	C6H4O-
93.0346	2	C6H5O-
105.0346	1	C7H5O-
106.0423	32	C7H6O-
107.0502	159	C7H7O-
108.0215	1	C6H4O2-
117.0709	1	C9H9-
121.0295	24	C7H5O2-
134.0371	1	C8H6O2-
135.0816	999	C9H11O-
137.0242	1	C7H5O3-
137.0604	1	C8H9O2-
179.0714	49	C10H11O3-
363.2451	1	C24H31N2O-
379.2393	620	C24H31N2O2-
407.2704	34	C26H35N2O2-
423.2291	3	C25H31N2O4-
