Mass spectrum: Diphenyl-phthalate; LC-ESI-QFT; MS2; CE: 75; R=35000; [M+H]+
Name: Diphenyl-phthalate
Name: Diphenyl phthalate
Name: Diphenyl benzene-1,2-dicarboxylate
Formula: C20H14O4
Exact mass: 318.08921
SMILES: C1=CC=C(C=C1)OC(=O)C2=CC=CC=C2C(=O)OC3=CC=CC=C3
InChI: InChI=1S/C20H14O4/c21-19(23-15-9-3-1-4-10-15)17-13-7-8-14-18(17)20(22)24-16-11-5-2-6-12-16/h1-14H
Instrument: Q Exactive Plus Orbitrap Thermo Scientific
Instrument type: LC-ESI-QFT
Ms type: MS2
Ion mode: POSITIVE
Ionization: ESI
Fragmentation mode: HCD
Collision energy: 75 (nominal)
Resolution: 35000
Column name: XBridge C18 3.5um, 2.1x50mm, Waters
Retention time: 12.9 min
Base peak: 225.054
Precursor m/z: 319.0965
Precursor type: [M+H]+
m/z	relative intensity	assigned
50.0151	74	C4H2+
51.0229	141	C4H3+
53.0386	335	C4H5+
55.0178	23	C3H3O+
63.0227	1	C5H3+
65.0022	1	C4HO+
67.0542	3	C5H7+
68.9971	3	C3HO2+
75.0228	1	C6H3+
77.0385	719	C6H5+
79.0541	1	C6H7+
80.0257	1	C5H4O+
81.0335	38	C5H5O+
94.0413	21	C6H6O+
95.0491	999	C6H7O+
105.0335	89	C7H5O+
105.0447	736	C6H5N2+
106.0417	4	C7H6O+
109.0648	4	C7H9O+
115.0542	52	C9H7+
119.0129	3	C7H3O2+
121.0283	8	C7H5O2+
127.0539	6	C10H7+
141.0698	186	C11H9+
145.0648	3	C10H9O+
149.0234	1	C8H5O3+
151.0541	25	C12H7+
152.062	184	C12H8+
153.0699	85	C12H9+
155.0491	4	C11H7O+
155.0605	10	C10H7N2+
168.057	6	C12H8O+
169.0648	52	C12H9O+
179.049	6	C13H7O+
179.0603	10	C12H7N2+
181.0648	3	C13H9O+
183.0441	21	C12H7O2+
197.0596	61	C13H9O2+
207.0437	1	C14H7O2+
225.0545	29	C14H9O3+
