Mass spectrum: Coumatetralyl; LC-ESI-QFT; MS2; CE: 120%; R=17500; [M-H]-
Name: Coumatetralyl
Name: 4-hydroxy-3-(1,2,3,4-tetrahydronaphthalen-1-yl)chromen-2-one
Formula: C19H16O3
Exact mass: 292.1099
SMILES: C1CC(C2=CC=CC=C2C1)C3=C(C4=CC=CC=C4OC3=O)O
InChI: InChI=1S/C19H16O3/c20-18-15-9-3-4-11-16(15)22-19(21)17(18)14-10-5-7-12-6-1-2-8-13(12)14/h1-4,6,8-9,11,14,20H,5,7,10H2
Instrument: Exploris 240 Orbitrap Thermo Scientific
Instrument type: LC-ESI-QFT
Ms type: MS2
Ion mode: NEGATIVE
Ionization: ESI
Fragmentation mode: HCD
Collision energy: 120 % (nominal)
Resolution: 17500
Column name: XBridge C18 3.5um, 2.1x50mm, Waters
Retention time: 10.214 min
Base peak: 291.1025
Precursor m/z: 291.1027
Precursor type: [M-H]-
m/z	relative intensity	assigned
59.0139	23	C2H3O2-
65.0398	69	C5H5-
67.019	37	C4H3O-
92.0268	39	C6H4O-
93.0346	438	C6H5O-
115.0553	365	C9H7-
117.0346	90	C8H5O-
119.0508	46	C8H7O-
141.0712	129	C11H9-
143.0502	999	C10H7O-
243.0817	43	C18H11O-
