Mass spectrum: 2-Hydroxybenzothiazole; LC-ESI-QFT; MS2; CE: 15; R=35000; [M+H]+
Name: 2-Hydroxybenzothiazole
Name: 2-Benzothiazolol
Name: 3H-1,3-benzothiazol-2-one
Formula: C7H5NOS
Exact mass: 151.00918
SMILES: C1=CC=C2C(=C1)NC(=O)S2
InChI: InChI=1S/C7H5NOS/c9-7-8-5-3-1-2-4-6(5)10-7/h1-4H,(H,8,9)
Instrument: Q Exactive Plus Orbitrap Thermo Scientific
Instrument type: LC-ESI-QFT
Ms type: MS2
Ion mode: POSITIVE
Ionization: ESI
Fragmentation mode: HCD
Collision energy: 15 (nominal)
Resolution: 35000
Column name: XBridge C18 3.5um, 2.1x50mm, Waters
Retention time: 6.4 min
Base peak: 152.0164
Precursor m/z: 152.0165
Precursor type: [M+H]+
m/z	relative intensity	assigned
92.0495	7	C6H6N+
109.0106	1	C6H5S+
124.0216	6	C6H6NS+
152.0164	999	C7H6NOS+
