Mass spectrum: Doxazosin; LC-ESI-QFT; MS2; CE: 75; R=35000; [M+H]+
Name: Doxazosin
Name: [4-(4-amino-6,7-dimethoxyquinazolin-2-yl)piperazin-1-yl]-(2,3-dihydro-1,4-benzodioxin-3-yl)methanone
Formula: C23H25N5O5
Exact mass: 451.18557
SMILES: COC1=C(C=C2C(=C1)C(=NC(=N2)N3CCN(CC3)C(=O)C4COC5=CC=CC=C5O4)N)OC
InChI: InChI=1S/C23H25N5O5/c1-30-18-11-14-15(12-19(18)31-2)25-23(26-21(14)24)28-9-7-27(8-10-28)22(29)20-13-32-16-5-3-4-6-17(16)33-20/h3-6,11-12,20H,7-10,13H2,1-2H3,(H2,24,25,26)
Instrument: Q Exactive Orbitrap Thermo Scientific
Instrument type: LC-ESI-QFT
Ms type: MS2
Ion mode: POSITIVE
Ionization: ESI
Fragmentation mode: HCD
Collision energy: 75 (nominal)
Resolution: 35000
Column name: XBridge C18 3.5um, 2.1x50mm, Waters
Retention time: 7.2 min
Base peak: 452.1933
Precursor m/z: 452.1928
Precursor type: [M+H]+
m/z	relative intensity	assigned
53.0388	1	C4H5+
54.0339	1	C3H4N+
55.018	55	C3H3O+
56.0496	10	C3H6N+
65.0385	1	C5H5+
67.0543	3	C5H7+
68.0495	11	C4H6N+
69.0336	10	C4H5O+
70.0652	55	C4H8N+
71.0604	1	C3H7N2+
77.0386	5	C6H5+
79.0543	39	C6H7+
80.0495	13	C5H6N+
81.0335	11	C5H5O+
81.0573	5	C5H7N+
82.0652	35	C5H8N+
85.0762	2	C4H9N2+
87.0918	5	C4H11N2+
94.0652	8	C6H8N+
95.0493	27	C6H7O+
96.0445	2	C5H6NO+
96.0807	12	C6H10N+
98.0601	257	C5H8NO+
105.0448	8	C6H5N2+
106.0526	1	C6H6N2+
107.0493	35	C7H7O+
109.0285	2	C6H5O2+
121.0284	3	C7H5O2+
122.0601	1	C7H8NO+
124.0758	32	C7H10NO+
135.0442	84	C8H7O2+
135.0552	6	C7H7N2O+
146.0232	1	C8H4NO2+
147.0317	2	C8H5NO2+
147.0554	7	C8H7N2O+
150.0552	6	C8H8NO2+
159.0557	1	C9H7N2O+
160.0511	3	C8H6N3O+
160.0742	1	C8H8N4+
161.0711	9	C9H9N2O+
161.0822	1	C8H9N4+
163.0391	8	C9H7O3+
163.0504	3	C8H7N2O2+
173.0826	2	C9H9N4+
174.0902	34	C9H10N4+
175.0507	2	C9H7N2O2+
175.0617	6	C8H7N4O+
175.0977	2	C9H11N4+
176.0696	6	C8H8N4O+
177.066	33	C9H9N2O2+
177.0773	36	C8H9N4O+
178.0612	3	C8H8N3O2+
179.0815	2	C9H11N2O2+
185.0823	3	C10H9N4+
186.0665	8	C10H8N3O+
186.0903	20	C10H10N4+
187.0505	1	C10H7N2O2+
187.0977	4	C10H11N4+
188.0457	5	C9H6N3O2+
188.0697	2	C9H8N4O+
189.066	17	C10H9N2O2+
189.0773	14	C9H9N4O+
190.0616	14	C9H8N3O2+
190.0738	3	C10H10N2O2+
191.0816	24	C10H11N2O2+
201.0773	20	C10H9N4O+
202.085	32	C10H10N4O+
203.0929	244	C10H11N4O+
204.0771	90	C10H10N3O2+
205.0723	201	C9H9N4O2+
206.0563	5	C9H8N3O3+
206.0801	53	C9H10N4O2+
206.092	2	C10H12N3O2+
213.0775	2	C11H9N4O+
214.0611	9	C11H8N3O2+
214.0847	2	C11H10N4O+
215.0927	11	C11H11N4O+
216.0773	3	C11H10N3O2+
216.0878	2	C10H10N5O+
217.0723	66	C10H9N4O2+
218.0802	40	C10H10N4O2+
219.0879	21	C10H11N4O2+
220.0958	15	C10H12N4O2+
221.1036	177	C10H13N4O2+
222.0875	13	C10H12N3O3+
227.0932	2	C12H11N4O+
229.0724	57	C11H9N4O2+
229.1086	9	C12H13N4O+
230.0799	10	C11H10N4O2+
230.0913	4	C12H12N3O2+
231.088	999	C11H11N4O2+
232.0958	190	C11H12N4O2+
233.1035	183	C11H13N4O2+
234.1119	2	C11H14N4O2+
243.0881	25	C12H11N4O2+
244.0833	3	C11H10N5O2+
244.0961	6	C12H12N4O2+
244.1198	8	C12H14N5O+
245.1037	75	C12H13N4O2+
246.1351	11	C12H16N5O+
247.1193	388	C12H15N4O2+
253.1321	13	C14H15N5+
255.0878	8	C13H11N4O2+
257.1037	43	C13H13N4O2+
258.0993	1	C12H12N5O2+
258.1111	1	C13H14N4O2+
259.1193	29	C13H15N4O2+
260.1141	7	C12H14N5O2+
271.119	2	C14H15N4O2+
272.1147	27	C13H14N5O2+
273.1349	6	C14H17N4O2+
274.1302	56	C13H16N5O2+
275.138	2	C13H17N5O2+
281.1275	1	C15H15N5O+
282.135	21	C15H16N5O+
284.116	1	C16H16N2O3+
285.0983	3	C14H13N4O3+
288.146	8	C14H18N5O2+
290.1612	22	C14H20N5O2+
300.1458	7	C15H18N5O2+
308.1148	3	C16H14N5O2+
310.1302	162	C18H18N2O3+
328.1409	51	C16H18N5O3+
