Mass spectrum: Crotamiton; LC-ESI-QFT; MS2; CE: 45; R=35000; [M+H]+
Name: Crotamiton
Name: N-ethyl-N-(2-methylphenyl)but-2-enamide
Formula: C13H17NO
Exact mass: 203.13101
SMILES: O=C(N(c1ccccc1C)CC)C=CC
InChI: InChI=1S/C13H17NO/c1-4-8-13(15)14(5-2)12-10-7-6-9-11(12)3/h4,6-10H,5H2,1-3H3
Instrument: Q Exactive Plus Orbitrap Thermo Scientific
Instrument type: LC-ESI-QFT
Ms type: MS2
Ion mode: POSITIVE
Ionization: ESI
Fragmentation mode: HCD
Collision energy: 45 (nominal)
Resolution: 35000
Column name: XBridge C18 3.5um, 2.1x50mm, Waters
Retention time: 9.8 min
Base peak: 204.1383
Precursor m/z: 204.1383
Precursor type: [M+H]+
m/z	relative intensity	assigned
53.0022	3	C3HO+
68.0495	123	C4H6N+
69.0335	999	C4H5O+
71.0493	2	C4H7O+
71.0855	3	C5H11+
91.0542	18	C7H7+
93.0699	1	C7H9+
96.0808	165	C6H10N+
97.0649	16	C6H9O+
105.0699	10	C8H9+
106.0652	41	C7H8N+
107.0492	1	C7H7O+
107.073	12	C7H9N+
108.0808	74	C7H10N+
109.0648	6	C7H9O+
116.0495	4	C8H6N+
118.0652	5	C8H8N+
119.0604	2	C7H7N2+
119.0857	1	C9H11+
120.0809	2	C8H10N+
121.0886	12	C8H11N+
130.0652	2	C9H8N+
132.0808	2	C9H10N+
133.1012	1	C10H13+
134.0601	341	C8H8NO+
134.0965	58	C9H12N+
136.1122	463	C9H14N+
143.0732	1	C10H9N+
146.0964	2	C10H12N+
148.1122	5	C10H14N+
158.0966	53	C11H12N+
160.0756	2	C10H10NO+
161.0836	5	C10H11NO+
162.0914	77	C10H12NO+
174.0913	2	C11H12NO+
175.0992	2	C11H13NO+
176.1071	22	C11H14NO+
176.1435	8	C12H18N+
186.1278	10	C13H16N+
189.1148	2	C12H15NO+
204.1385	842	C13H18NO+
