Mass spectrum: Atrazine-desethyl-2-hydroxy; LC-ESI-ITFT; MS2; CE: 60%; R=7500; [M+H]+
Name: Atrazine-desethyl-2-hydroxy
Name: 2-amino-6-(isopropylamino)-1H-s-triazin-4-one
Name: Prometon-Hydroxy-Desisopropyl
Formula: C6H11N5O
Exact mass: 169.0964
SMILES: n(c(nc1NC(C)C)O)c(n1)N
InChI: InChI=1S/C6H11N5O/c1-3(2)8-5-9-4(7)10-6(12)11-5/h3H,1-2H3,(H4,7,8,9,10,11,12)
Instrument: LTQ Orbitrap XL Thermo Scientific
Instrument type: LC-ESI-ITFT
Ms type: MS2
Ion mode: POSITIVE
Ionization: ESI
Fragmentation mode: HCD
Collision energy: 60 % (nominal)
Resolution: 7500
Column name: XBridge C18 3.5um, 2.1x50mm, Waters
Retention time: 1.4 min
Base peak: 170.1037
Precursor m/z: 170.1036
Precursor type: [M+H]+
m/z	relative intensity	assigned
68.0246	1	C2H2N3+
69.0083	12	C2HN2O+
85.0509	19	C2H5N4+
86.035	295	C2H4N3O+
110.0462	2	C3H4N5+
128.0567	999	C3H6N5O+
170.1036	239	C6H12N5O+
