Mass spectrum: Aerucyclamide A; LC-ESI-QFT; MS2; CE: 180%; R=17500; [M+H]+
Name: Aerucyclamide A
Name: (1S,4S,7R,8S,18R)-4,18-bis[(2S)-butan-2-yl]-7-methyl-6-oxa-13,20-dithia-3,10,17,22,23,24-hexazatetracyclo[17.2.1.15,8.112,15]tetracosa-5(24),12(23),14,19(22)-tetraene-2,9,16-trione
Class: NA
Formula: C24H34N6O4S2
Exact mass: 534.2083
SMILES: CC[C@H](C)[C@@H]1NC(=O)[C@H]2CSC(=N2)[C@H](NC(=O)c3csc(CNC(=O)[C@H]4N=C1O[C@@H]4C)n3)[C@@H](C)CC
InChI: InChI=1S/C24H34N6O4S2/c1-6-11(3)17-23-30-19(13(5)34-23)22(33)25-8-16-26-14(9-35-16)20(31)29-18(12(4)7-2)24-27-15(10-36-24)21(32)28-17/h9,11-13,15,17-19H,6-8,10H2,1-5H3,(H,25,33)(H,28,32)(H,29,31)/t11-,12-,13+,15+,17-,18+,19-/m0/s1
Instrument: Q Exactive Plus Orbitrap Thermo Scientific
Instrument type: LC-ESI-QFT
Ms type: MS2
Ion mode: POSITIVE
Ionization: ESI
Fragmentation mode: HCD
Collision energy: 180 % (nominal)
Resolution: 17500
Column name: XBridge C18 3.5um, 2.1x50mm, Waters
Retention time: 10.697 min
Base peak: 164.9845
Precursor m/z: 535.2156
Precursor type: [M+H]+
m/z	relative intensity	assigned
51.023	60	C4H3+
53.0022	68	C3HO+
53.0387	52	C4H5+
54.0339	176	C3H4N+
56.0132	157	C2H2NO+
56.0495	235	C3H6N+
56.9794	494	C2HS+
57.9872	522	C2H2S+
58.995	999	C2H3S+
59.9664	47	COS+
65.0385	69	C5H5+
68.0495	47	C4H6N+
68.9793	155	C3HS+
69.9872	150	C3H2S+
70.9949	72	C3H3S+
71.9902	45	C2H2NS+
80.0494	110	C5H6N+
83.9905	40	C3H2NS+
86.0057	133	C3H4NS+
95.06	61	C5H7N2+
96.044	43	C5H6NO+
97.0106	40	C5H5S+
99.0138	35	C4H5NS+
111.9962	54	C3H2N3S+
112.0214	49	C5H6NS+
129.9955	31	C4H4NO2S+
