Mass spectrum: Di-n-butyl phthalate; LC-ESI-QFT; MS2; CE: 60; R=35000; [M-H]-
Name: Di-n-butyl phthalate
Name: Dibutyl phthalate
Name: dibutyl benzene-1,2-dicarboxylate
Formula: C16H22O4
Exact mass: 278.15181
SMILES: CCCCOC(=O)C1=CC=CC=C1C(=O)OCCCC
InChI: InChI=1S/C16H22O4/c1-3-5-11-19-15(17)13-9-7-8-10-14(13)16(18)20-12-6-4-2/h7-10H,3-6,11-12H2,1-2H3
Instrument: Q Exactive Plus Orbitrap Thermo Scientific
Instrument type: LC-ESI-QFT
Ms type: MS2
Ion mode: NEGATIVE
Ionization: ESI
Fragmentation mode: HCD
Collision energy: 60 (nominal)
Resolution: 35000
Column name: XBridge C18 3.5um, 2.1x50mm, Waters
Retention time: 13.8 min
Base peak: 277.1444
Precursor m/z: 277.1445
Precursor type: [M-H]-
m/z	relative intensity	assigned
69.0348	3	C4H5O-
71.0504	13	C4H7O-
75.0242	321	C6H3-
77.0398	25	C6H5-
83.0503	24	C5H7O-
93.0347	88	C6H5O-
103.0191	74	C7H3O-
105.0347	14	C7H5O-
107.0503	34	C7H7O-
111.0817	21	C7H11O-
119.014	110	C7H3O2-
121.0297	883	C7H5O2-
125.0973	62	C8H13O-
127.113	999	C8H15O-
129.1288	5	C8H17O-
134.0375	565	C8H6O2-
135.0454	63	C8H7O2-
147.009	382	C8H3O3-
165.0195	12	C8H5O4-
179.0353	5	C9H7O4-
190.9988	19	C9H3O5-
203.144	11	C14H19O-
