Mass spectrum: Azinphos-methyl; LC-ESI-QFT; MS2; CE: 45; R=35000; [M+H]+
Name: Azinphos-methyl
Name: Azinphosmethyl
Name: 3-(dimethoxyphosphinothioylsulfanylmethyl)-1,2,3-benzotriazin-4-one
Formula: C10H12N3O3PS2
Exact mass: 317.00577
SMILES: COP(=S)(OC)SCN1C(=O)C2=CC=CC=C2N=N1
InChI: InChI=1S/C10H12N3O3PS2/c1-15-17(18,16-2)19-7-13-10(14)8-5-3-4-6-9(8)11-12-13/h3-6H,7H2,1-2H3
Instrument: Q Exactive Plus Orbitrap Thermo Scientific
Instrument type: LC-ESI-QFT
Ms type: MS2
Ion mode: POSITIVE
Ionization: ESI
Fragmentation mode: HCD
Collision energy: 45 (nominal)
Resolution: 35000
Column name: XBridge C18 3.5um, 2.1x50mm, Waters
Retention time: 9.2 min
Base peak: 318.0126
Precursor m/z: 318.013
Precursor type: [M+H]+
m/z	relative intensity	assigned
50.0151	3	C4H2+
51.0229	9	C4H3+
53.0386	69	C4H5+
55.0179	4	C3H3O+
62.0185	15	C2H6S+
62.9995	3	CH4OP+
67.0543	3	C5H7+
77.0386	49	C6H5+
78.0339	1	C5H4N+
78.9944	106	CH4O2P+
81.0335	7	C5H5O+
93.0101	15	C2H6O2P+
94.0415	5	C6H6O+
95.0493	248	C6H7O+
96.0447	3	CH9N2OP+
102.0337	1	C7H4N+
104.0496	337	C7H6N+
105.0336	324	C7H5O+
105.0448	145	C6H5N2+
120.0446	15	C3H9N2OP+
122.06	1	C7H8NO+
124.9822	138	C2H6O2PS+
127.0157	3	C2H8O4P+
130.0401	44	C7H4N3+
132.0445	382	C8H6NO+
135.0441	10	C8H7O2+
137.0056	15	C7H5OS+
142.9928	999	C2H8O3PS+
144.997	1	H7N3O2S2+
148.0218	7	C4H9N2PS+
150.0551	51	C4H11N2O2P+
151.9929	5	C3H7NO2PS+
157.0085	18	C3H10O3PS+
164.071	3	C5H13N2O2P+
167.0163	121	C4H10NO2PS+
167.9701	8	C3H7NOPS2+
170.9704	1	C3H8O2PS2+
182.9936	25	C4H10NOPS2+
