Mass spectrum: Cetirizine N-Oxide; LC-ESI-QFT; MS2; CE: 75; R=35000; [M-H]-
Name: Cetirizine N-Oxide
Name: (R)-Cetirizine N-Oxide
Name: 2-[2-[4-[(4-chlorophenyl)-phenylmethyl]-1-oxidopiperazin-1-ium-1-yl]ethoxy]acetic acid
Formula: C21H25ClN2O4
Exact mass: 404.15028
SMILES: C1C[N+](CCN1C(C2=CC=CC=C2)C3=CC=C(C=C3)Cl)(CCOCC(=O)O)[O-]
InChI: InChI=1S/C21H25ClN2O4/c22-19-8-6-18(7-9-19)21(17-4-2-1-3-5-17)23-10-12-24(27,13-11-23)14-15-28-16-20(25)26/h1-9,21H,10-16H2,(H,25,26)
Instrument: Q Exactive Plus Orbitrap Thermo Scientific
Instrument type: LC-ESI-QFT
Ms type: MS2
Ion mode: NEGATIVE
Ionization: ESI
Fragmentation mode: HCD
Collision energy: 75 (nominal)
Resolution: 35000
Column name: XBridge C18 3.5um, 2.1x50mm, Waters
Retention time: 9.6 min
Base peak: 403.1428
Precursor m/z: 403.143
Precursor type: [M-H]-
m/z	relative intensity	assigned
55.0188	1	C3H3O-
57.0345	5	C3H5O-
58.0061	29	C2H2O2-
59.0139	26	C2H3O2-
59.9853	21	CO3-
67.0301	1	C3H3N2-
68.0507	1	C4H6N-
70.0298	1	C3H4NO-
72.9932	999	C2HO3-
75.0088	483	C2H3O3-
89.0245	4	C3H5O3-
101.0244	48	C4H5O3-
103.0401	32	C4H7O3-
