Mass spectrum: Exemestane; LC-ESI-ITFT; MS2; CE: 45%; R=15000; [M+H]+
Name: Exemestane
Name: (8R,9S,10R,13S,14S)-10,13-dimethyl-6-methylene-7,8,9,11,12,14,15,16-octahydrocyclopenta[a]phenanthrene-3,17-dione
Formula: C20H24O2
Exact mass: 296.1776
SMILES: CC12CCC3C(C1CCC2=O)CC(=C)C4=CC(=O)C=CC34C
InChI: InChI=1S/C20H24O2/c1-12-10-14-15-4-5-18(22)20(15,3)9-7-16(14)19(2)8-6-13(21)11-17(12)19/h6,8,11,14-16H,1,4-5,7,9-10H2,2-3H3/t14-,15-,16-,19+,20-/m0/s1
Instrument: LTQ Orbitrap XL Thermo Scientific
Instrument type: LC-ESI-ITFT
Ms type: MS2
Ion mode: POSITIVE
Ionization: ESI
Fragmentation mode: HCD
Collision energy: 45 % (nominal)
Resolution: 15000
Column name: XBridge C18 3.5um, 2.1x50mm, Waters
Retention time: 10.1 min
Base peak: 297.1859
Precursor m/z: 297.1849
Precursor type: [M+H]+
m/z	relative intensity	assigned
67.0542	36	C5H7+
77.0384	29	C6H5+
79.0542	314	C6H7+
81.07	61	C6H9+
91.0542	113	C7H7+
93.0699	879	C7H9+
95.0855	59	C7H11+
97.0648	177	C6H9O+
105.0699	433	C8H9+
107.0854	361	C8H11+
109.0649	48	C7H9O+
119.0856	123	C9H11+
121.0648	736	C8H9O+
121.1011	935	C9H13+
123.0807	30	C8H11O+
129.0696	46	C10H9+
131.0855	247	C10H11+
133.0648	44	C9H9O+
133.1012	86	C10H13+
135.0803	440	C9H11O+
135.1166	73	C10H15+
143.0856	67	C11H11+
145.0647	74	C10H9O+
145.1012	339	C11H13+
147.0804	406	C10H11O+
147.1168	123	C11H15+
149.096	999	C10H13O+
157.1015	35	C12H13+
159.0803	168	C11H11O+
161.096	186	C11H13O+
163.1116	132	C11H15O+
171.0802	63	C12H11O+
171.1169	150	C13H15+
173.0961	148	C12H13O+
175.0749	44	C11H11O2+
185.0959	249	C13H13O+
187.1114	131	C13H15O+
189.1275	55	C13H17O+
197.0959	46	C14H13O+
199.1118	78	C14H15O+
201.1277	26	C14H17O+
209.0951	35	C15H13O+
211.1114	58	C15H15O+
223.1117	89	C16H15O+
225.1272	30	C16H17O+
237.1275	51	C17H17O+
239.1427	87	C17H19O+
251.1427	37	C18H19O+
253.1587	108	C18H21O+
264.1514	40	C19H20O+
279.1742	266	C20H23O+
297.1845	111	C20H25O2+
