Mass spectrum: Fosthiazate; LC-ESI-QFT; MS2; CE: 15; R=35000; [M+H]+
Name: Fosthiazate
Name: 3-[(butan-2-ylthio)-ethoxyphosphoryl]-2-thiazolidinone
Formula: C9H18NO3PS2
Exact mass: 283.04657
SMILES: O=P(SC(CC)C)(OCC)N1C(=O)SCC1
InChI: InChI=1S/C9H18NO3PS2/c1-4-8(3)16-14(12,13-5-2)10-6-7-15-9(10)11/h8H,4-7H2,1-3H3
Instrument: Q Exactive Orbitrap Thermo Scientific
Instrument type: LC-ESI-QFT
Ms type: MS2
Ion mode: POSITIVE
Ionization: ESI
Fragmentation mode: HCD
Collision energy: 15 (nominal)
Resolution: 35000
Column name: XBridge C18 3.5um, 2.1x50mm, Waters
Retention time: 8.1 min
Base peak: 284.0534
Precursor m/z: 284.0538
Precursor type: [M+H]+
m/z	relative intensity	assigned
57.0699	1	C4H9+
61.0106	1	C2H5S+
96.9505	1	H2O2PS+
104.0163	366	C3H6NOS+
119.9932	3	C3H6NS2+
167.9876	2	C7H4O3S+
181.0441	1	C6H14O2PS+
199.9595	75	C7H4O3S2+
227.9907	999	C9H8O3S2+
284.0534	51	C9H19NO3PS2+
