Mass spectrum: Diclazuril; LC-ESI-QFT; MS2; CE: 45; R=35000; [M-H]-
Name: Diclazuril
Name: 2-(4-chlorophenyl)-2-[2,6-dichloro-4-(3,5-dioxo-1,2,4-triazin-2-yl)phenyl]acetonitrile
Formula: C17H9Cl3N4O2
Exact mass: 405.97911
SMILES: C1=CC(=CC=C1C(C#N)C2=C(C=C(C=C2Cl)N3C(=O)NC(=O)C=N3)Cl)Cl
InChI: InChI=1S/C17H9Cl3N4O2/c18-10-3-1-9(2-4-10)12(7-21)16-13(19)5-11(6-14(16)20)24-17(26)23-15(25)8-22-24/h1-6,8,12H,(H,23,25,26)
Instrument: Q Exactive Plus Orbitrap Thermo Scientific
Instrument type: LC-ESI-QFT
Ms type: MS2
Ion mode: NEGATIVE
Ionization: ESI
Fragmentation mode: HCD
Collision energy: 45 (nominal)
Resolution: 35000
Column name: XBridge C18 3.5um, 2.1x50mm, Waters
Retention time: 12.4 min
Base peak: 404.9721
Precursor m/z: 404.9718
Precursor type: [M-H]-
m/z	relative intensity	assigned
222.9713	59	C9H3Cl2N3-
235.0073	26	C14H4ClN2-
263.002	29	C12H7Cl2N3-
266.9547	12	C13H6Cl3-
296.9871	9	C17H7Cl2O-
297.995	3	C15H6Cl2N3-
298.9789	451	C12H8Cl3N3-
305.9528	53	C14H5Cl3N2-
306.9607	40	C14H6Cl3N2-
333.9718	999	C15H7Cl3N3-
334.9557	180	C15H6Cl3N2O-
