Mass spectrum: Metosulam; LC-ESI-QFT; MS2; CE: 15; R=35000; [M+H]+
Name: Metosulam
Name: N-(2,6-dichloro-3-methyl-phenyl)-5,7-dimethoxy-[1,2,4]triazolo[1,5-a]pyrimidine-2-sulfonamide
Formula: C14H13Cl2N5O4S
Exact mass: 417.00653
SMILES: Clc1c(ccc(Cl)c1NS(=O)(=O)c2nc3nc(OC)cc(OC)n3n2)C
InChI: InChI=1S/C14H13Cl2N5O4S/c1-7-4-5-8(15)12(11(7)16)20-26(22,23)14-18-13-17-9(24-2)6-10(25-3)21(13)19-14/h4-6,20H,1-3H3
Instrument: Q Exactive Orbitrap Thermo Scientific
Instrument type: LC-ESI-QFT
Ms type: MS2
Ion mode: POSITIVE
Ionization: ESI
Fragmentation mode: HCD
Collision energy: 15 (nominal)
Resolution: 35000
Column name: XBridge C18 3.5um, 2.1x50mm, Waters
Retention time: 7.6 min
Base peak: 418.0141
Precursor m/z: 418.0138
Precursor type: [M+H]+
m/z	relative intensity	assigned
174.9947	77	
228.031	8	C7H8N4O3S+
237.949	7	C7H6Cl2NO2S+
318.0741	1	C14H13ClN5O2+
354.0519	7	C14H14Cl2N5O2+
418.0138	999	C14H14Cl2N5O4S+
