Mass spectrum: Nystatin; LC-ESI-QFT; MS2; CE: 60; R=35000; [M-H]-
Name: Nystatin
Name: (1S,3R,4R,7R,9R,11R,15S,16R,17R,18S,19E,21E,25E,27E,29E,31E,33R,35S,36R,37S)-33-[(3-Amino-3,6-dideoxy-?-D-mannopyranosyl)oxy]-1,3,4,7,9,11,17,37-octahydroxy-15,16,18-trimethyl-13-oxo-14,39-dioxabic yclo[33.3.1]nonatriaconta-19,21,25,27,29,31-hexaene-36-carboxylic acid
Formula: C47H75NO17
Exact mass: 925.50350
SMILES: CC1C=CC=CCCC=CC=CC=CC=CC(CC2C(C(CC(O2)(CC(C(CCC(CC(CC(CC(=O)OC(C(C1O)C)C)O)O)O)O)O)O)O)C(=O)O)OC3C(C(C(C(O3)C)O)N)O
InChI: InChI=1S/C47H75NO17/c1-27-17-15-13-11-9-7-5-6-8-10-12-14-16-18-34(64-46-44(58)41(48)43(57)30(4)63-46)24-38-40(45(59)60)37(54)26-47(61,65-38)25-36(53)35(52)20-19-31(49)21-32(50)22-33(51)23-39(55)62-29(3)28(2)42(27)56/h5-6,8,10-18,27-38,40-44,46,49-54,56-58,61H,7,9,19-26,48H2,1-4H3,(H,59,60)/b6-5+,10-8+,13-11+,14-12+,17-15+,18-16+/t27-,28-,29-,30+,31+,32+,33+,34-,35+,36+,37-,38-,40+,41-,42+,43+,44-,46-,47+/m0/s1
Instrument: Q Exactive Orbitrap Thermo Scientific
Instrument type: LC-ESI-QFT
Ms type: MS2
Ion mode: NEGATIVE
Ionization: ESI
Fragmentation mode: HCD
Collision energy: 60 (nominal)
Resolution: 35000
Column name: XBridge C18 3.5um, 2.1x50mm, Waters
Retention time: 11.6 min
Base peak: 924.4966
Precursor m/z: 924.4962
Precursor type: [M-H]-
m/z	relative intensity	assigned
127.0403	40	C6H7O3-
129.071	230	C10H9-
130.0424	122	C9H6O-
131.0502	848	C9H7O-
132.0582	69	C9H8O-
133.066	158	C9H9O-
133.1022	11	C10H13-
134.0374	25	C8H6O2-
135.0454	112	C8H7O2-
135.0816	176	C9H11O-
137.0608	911	C8H9O2-
138.056	26	C7H8NO2-
139.0402	96	C7H7O3-
139.0764	154	C8H11O2-
141.0556	140	C7H9O3-
141.0712	18	C11H9-
143.0502	161	C10H7O-
143.0866	66	C11H11-
145.0658	390	C10H9O-
145.1023	98	C11H13-
146.0613	17	C9H8NO-
146.0738	32	C10H10O-
147.0452	323	C9H7O2-
147.0815	346	C10H11O-
148.0531	121	C9H8O2-
149.0607	604	C9H9O2-
150.0687	37	C9H10O2-
151.0766	25	C9H11O2-
153.092	28	C9H13O2-
155.0868	66	C12H11-
157.0659	112	C11H9O-
158.0735	72	C11H10O-
159.0451	15	C10H7O2-
159.0818	70	C11H11O-
159.118	24	C12H15-
160.0532	24	C10H8O2-
161.0609	68	C10H9O2-
161.0971	65	C11H13O-
162.0926	25	C10H12NO-
163.0764	699	C10H11O2-
165.0558	141	C9H9O3-
165.0919	243	C10H13O2-
167.071	25	C9H11O3-
169.0659	31	C12H9O-
169.1021	26	C13H13-
171.0814	94	C12H11O-
171.1179	115	C13H15-
173.0607	94	C11H9O2-
173.0969	999	C12H13O-
175.0765	25	C11H11O2-
181.0658	14	C13H9O-
181.1024	32	C14H13-
183.0814	75	C13H11O-
184.0897	36	C13H12O-
185.0967	21	C13H13O-
185.1334	23	C14H17-
186.1045	14	C13H14O-
187.0761	21	C12H11O2-
187.1129	13	C13H15O-
189.0922	105	C12H13O2-
191.0716	79	C11H11O3-
195.0812	24	C14H11O-
195.1175	29	C15H15-
197.0972	158	C14H13O-
197.1336	74	C15H17-
198.1051	146	C14H14O-
199.0767	17	C13H11O2-
199.1128	310	C14H15O-
209.0813	16	C11H13O4-
211.0765	29	C14H11O2-
213.0918	65	C14H13O2-
213.1287	32	C15H17O-
227.0924	14	C11H15O5-
239.1077	15	C16H15O2-
239.1441	205	C17H19O-
257.1909	27	C18H25O-
265.1961	36	C20H25-
267.175	65	C19H23O-
285.187	16	C19H25O2-
293.1905	181	C21H25O-
307.2054	71	C22H27O-
333.2221	27	C24H29O-
377.2482	67	C26H33O2-
