Mass spectrum: Zonisamide; LC-ESI-QFT; MS2; CE: 75; R=35000; [M-H]-
Name: Zonisamide
Name: AD-810
Name: 1,2-benzoxazol-3-ylmethanesulfonamide
Formula: C8H8N2O3S
Exact mass: 212.02556
SMILES: O=S(=O)(N)Cc2noc1ccccc12
InChI: InChI=1S/C8H8N2O3S/c9-14(11,12)5-7-6-3-1-2-4-8(6)13-10-7/h1-4H,5H2,(H2,9,11,12)
Instrument: Q Exactive Orbitrap Thermo Scientific
Instrument type: LC-ESI-QFT
Ms type: MS2
Ion mode: NEGATIVE
Ionization: ESI
Fragmentation mode: HCD
Collision energy: 75 (nominal)
Resolution: 35000
Column name: XBridge C18 3.5um, 2.1x50mm, Waters
Retention time: 4.3 min
Base peak: 211.0183
Precursor m/z: 211.0183
Precursor type: [M-H]-
m/z	relative intensity	assigned
61.9706	26	NOS-
63.9624	75	O2S-
64.9703	4	HO2S-
65.0397	26	C5H5-
77.9655	44	NO2S-
78.9733	221	HNO2S-
79.9812	7	H2NO2S-
89.0398	1	C7H5-
90.0349	104	C6H4N-
91.0553	85	C7H7-
93.0346	199	C6H5O-
93.9605	10	NO3S-
102.035	1	C7H4N-
106.0425	4	C7H6O-
107.0503	69	C7H7O-
117.0348	236	C8H5O-
118.03	988	C7H4NO-
119.0502	999	C8H7O-
132.0456	7	C8H6NO-
