Mass spectrum: Amisulpride N-Oxide; LC-ESI-QFT; MS2; CE: 180; R=35000; [M+H]+
Name: Amisulpride N-Oxide
Name: 4-amino-N-[(1-ethyl-1-oxidopyrrolidin-1-ium-2-yl)methyl]-5-ethylsulfonyl-2-methoxybenzamide
Formula: C17H27N3O5S
Exact mass: 385.16714
SMILES: CC[N+]1(CCCC1CNC(=O)C2=CC(=C(C=C2OC)N)S(=O)(=O)CC)[O-]
InChI: InChI=1S/C17H27N3O5S/c1-4-20(22)8-6-7-12(20)11-19-17(21)13-9-16(26(23,24)5-2)14(18)10-15(13)25-3/h9-10,12H,4-8,11,18H2,1-3H3,(H,19,21)
Instrument: Q Exactive Plus Orbitrap Thermo Scientific
Instrument type: LC-ESI-QFT
Ms type: MS2
Ion mode: POSITIVE
Ionization: ESI
Fragmentation mode: HCD
Collision energy: 180 (nominal)
Resolution: 35000
Column name: XBridge C18 3.5um, 2.1x50mm, Waters
Retention time: 4.2 min
Base peak: 386.1742
Precursor m/z: 386.1744
Precursor type: [M+H]+
m/z	relative intensity	assigned
50.0151	338	C4H2+
51.023	365	C4H3+
52.0182	714	C3H2N+
52.0308	61	C4H4+
53.0022	411	C3HO+
53.0386	180	C4H5+
53.9975	25	
54.0339	128	C3H4N+
54.0464	43	C4H6+
55.0179	128	C3H3O+
56.0495	31	C3H6N+
56.9794	39	C2HS+
57.9872	38	C2H2S+
58.0287	11	C2H4NO+
58.0652	3	C3H8N+
58.995	27	C2H3S+
59.9664	11	COS+
59.9902	2	CH2NS+
61.0073	32	C5H+
62.0151	171	C5H2+
63.023	649	C5H3+
64.0182	219	C4H2N+
64.0308	220	C5H4+
65.026	217	C4H3N+
65.0386	999	C5H5+
66.01	26	
66.0338	78	C4H4N+
66.0464	525	C5H6+
67.0052	4	C3HNO+
67.0179	19	C4H3O+
67.0416	94	C4H5N+
68.0131	362	C3H2NO+
68.0495	39	C4H6N+
68.9793	338	C3HS+
68.9971	29	C3HO2+
69.9746	12	C2NS+
69.9872	139	C3H2S+
70.0287	10	C3H4NO+
70.0651	73	C4H8N+
70.995	27	C3H3S+
74.0151	44	C6H2+
74.06	3	C3H8NO+
75.0103	44	C5HN+
75.0229	51	C6H3+
76.0182	298	C5H2N+
77.0022	54	C5HO+
77.0259	60	C5H3N+
77.0385	17	C6H5+
78.0102	31	
78.0338	350	C5H4N+
79.0178	109	C5H3O+
79.0416	86	C5H5N+
80.0131	158	C4H2NO+
80.0495	54	C5H6N+
80.9794	38	C4HS+
81.0336	26	C5H5O+
81.9745	3	C3NS+
81.9871	46	C4H2S+
82.0288	4	C4H4NO+
82.9824	10	
82.995	21	C4H3S+
83.9665	6	C3OS+
83.9902	15	C3H2NS+
84.0028	5	C4H4S+
84.9743	24	C3HOS+
85.0106	5	C4H5S+
85.9818	3	C3H2OS+
88.0182	18	C6H2N+
89.026	29	C6H3N+
90.0339	66	C6H4N+
91.0417	128	C6H5N+
92.0495	133	C6H6N+
92.9794	41	C5HS+
93.0209	3	C5H3NO+
93.0337	5	C6H5O+
93.0573	15	C6H7N+
93.9746	10	
93.9872	13	C5H2S+
94.0288	70	C5H4NO+
94.0413	3	C6H6O+
94.0652	5	C6H8N+
94.995	31	C5H3S+
95.0365	13	C5H5NO+
95.049	29	C6H7O+
95.9902	6	C4H2NS+
96.0444	25	C5H6NO+
96.9982	25	C4H3NS+
97.9821	14	C4H2OS+
98.0965	19	C6H12N+
104.0131	51	C6H2NO+
104.0495	20	C7H6N+
105.0449	21	C6H5N2+
106.005	21	C6H2O2+
106.0288	177	C6H4NO+
106.9824	36	C5HNS+
107.0128	147	C6H3O2+
107.0365	19	C6H5NO+
107.9903	26	C5H2NS+
108.9741	4	C5HOS+
110.0058	3	C5H4NS+
110.06	4	C6H8NO+
111.0315	3	C5H5NO2+
112.0393	49	C5H6NO2+
117.9745	13	
118.0288	2	C7H4NO+
119.0606	4	C7H7N2+
119.9903	23	C6H2NS+
120.0445	41	C7H6NO+
122.0058	4	C6H4NS+
122.0238	3	C6H4NO2+
132.008	68	C7H2NO2+
140.034	12	C6H6NO3+
150.0185	12	C7H4NO3+
151.0263	3	C7H5NO3+
