Mass spectrum: Nilotinib; LC-ESI-QFT; MS2; CE: 120; R=35000; [M-H]-
Name: Nilotinib
Name: 4-methyl-N-(3-(4-methylimidazol-1-yl)-5-(trifluoromethyl)phenyl)-3-((4-pyridin-3-ylpyrimidin-2-yl)amino)benzamide
Formula: C28H22F3N7O
Exact mass: 529.18379
SMILES: CC1=C(C=C(C=C1)C(=O)NC2=CC(=CC(=C2)N3C=C(N=C3)C)C(F)(F)F)NC4=NC=CC(=N4)C5=CN=CC=C5
InChI: InChI=1S/C28H22F3N7O/c1-17-5-6-19(10-25(17)37-27-33-9-7-24(36-27)20-4-3-8-32-14-20)26(39)35-22-11-21(28(29,30)31)12-23(13-22)38-15-18(2)34-16-38/h3-16H,1-2H3,(H,35,39)(H,33,36,37)
Instrument: Q Exactive Plus Orbitrap Thermo Scientific
Instrument type: LC-ESI-QFT
Ms type: MS2
Ion mode: NEGATIVE
Ionization: ESI
Fragmentation mode: HCD
Collision energy: 120 (nominal)
Resolution: 35000
Column name: XBridge C18 3.5um, 2.1x50mm, Waters
Retention time: 8.5 min
Base peak: 528.1775
Precursor m/z: 528.1765
Precursor type: [M-H]-
m/z	relative intensity	assigned
50.0036	147	C3N-
52.0193	36	C3H2N-
64.0067	15	C3N2-
64.0193	11	C4H2N-
65.0145	206	C3HN2-
65.9985	31	C3NO-
67.0302	79	C3H3N2-
68.9958	81	CF3-
74.0037	61	C5N-
79.0303	69	C4H3N2-
81.0458	999	C4H5N2-
88.0193	13	C6H2N-
92.0254	104	C4H2N3-
92.9956	11	C3F3-
98.0035	111	C7N-
100.019	7	C2HFN4-
103.0301	56	C6H3N2-
105.0457	36	C6H5N2-
112.0068	39	C7N2-
115.0301	16	C7H3N2-
116.0505	31	C8H6N-
118.0099	37	C7HFN-
129.0585	10	C9H7N-
130.017	7	C2HFN5O-
130.0407	12	C2H3FN6-
130.0662	14	C9H8N-
131.0617	31	C8H7N2-
136.0066	47	C9N2-
136.0193	11	C10H2N-
139.0301	11	C9H3N2-
141.0462	28	C9H5N2-
152.038	11	C10H4N2-
153.0459	73	C10H5N2-
155.0489	78	C9H5N3-
158.0222	9	C7H3F3N-
163.0301	11	C6H2FN5-
169.0522	10	C9H5N4-
171.0363	12	C10H4FN2-
171.0676	45	C9H7N4-
178.0409	11	C6H3FN6-
183.0171	8	C8H2F3N2-
185.0332	32	C8H4F3N2-
186.0171	10	C6N7O-
198.0412	8	C9H5F3N2-
211.013	7	C9H2F3N2O-
211.0489	10	C10H6F3N2-
