Mass spectrum: Aspirin; LC-ESI-QFT; MS2; CE: 60; R=35000; [M+H]+
Name: Aspirin
Name: Acetyl salicilic acid
Name: 2-acetyloxybenzoic acid
Formula: C9H8O4
Exact mass: 180.04226
SMILES: CC(=O)OC1=CC=CC=C1C(=O)O
InChI: InChI=1S/C9H8O4/c1-6(10)13-8-5-3-2-4-7(8)9(11)12/h2-5H,1H3,(H,11,12)
Instrument: Q Exactive Plus Orbitrap Thermo Scientific
Instrument type: LC-ESI-QFT
Ms type: MS2
Ion mode: POSITIVE
Ionization: ESI
Fragmentation mode: HCD
Collision energy: 60 (nominal)
Resolution: 35000
Column name: XBridge C18 3.5um, 2.1x50mm, Waters
Retention time: 20.3 min
Base peak: 391.2827
Precursor m/z: 181.0495
Precursor type: [M+H]+
m/z	relative intensity	assigned
50.0149	1	C4H2+
51.0228	1	C4H3+
53.0385	13	C4H5+
55.0177	1	C3H3O+
65.0384	58	C5H5+
77.0383	24	C6H5+
79.054	33	C6H7+
80.0254	2	C5H4O+
81.0334	1	C5H5O+
91.0541	1	C7H7+
92.0254	11	C6H4O+
93.0333	32	C6H5O+
94.0411	1	C6H6O+
95.049	48	C6H7O+
98.0361	2	C5H6O2+
105.0333	20	C7H5O+
105.0445	32	C6H5N2+
107.0489	6	C7H7O+
111.0439	17	C6H7O2+
120.0203	4	C7H4O2+
121.0282	282	C7H5O2+
121.0394	73	C6H5N2O+
133.0282	169	C8H5O2+
135.0438	178	C8H7O2+
138.0308	2	C7H6O3+
149.0231	999	C8H5O3+
163.0386	530	C9H7O3+
167.0337	2	C8H7O4+
181.0491	3	C9H9O4+
