Mass spectrum: Flumorph; LC-ESI-QFT; MS2; CE: 120%; R=17500; [M+H]+
Name: Flumorph
Name: Fumalin
Name: 3-(3,4-dimethoxyphenyl)-3-(4-fluorophenyl)-1-morpholin-4-ylprop-2-en-1-one
Formula: C21H22FNO4
Exact mass: 371.1533
SMILES: COC1=C(C=C(C=C1)C(=CC(=O)N2CCOCC2)C3=CC=C(C=C3)F)OC
InChI: InChI=1S/C21H22FNO4/c1-25-19-8-5-16(13-20(19)26-2)18(15-3-6-17(22)7-4-15)14-21(24)23-9-11-27-12-10-23/h3-8,13-14H,9-12H2,1-2H3
Instrument: Exploris 240 Orbitrap Thermo Scientific
Instrument type: LC-ESI-QFT
Ms type: MS2
Ion mode: POSITIVE
Ionization: ESI
Fragmentation mode: HCD
Collision energy: 120 % (nominal)
Resolution: 17500
Column name: XBridge C18 3.5um, 2.1x50mm, Waters
Retention time: 7.522 min
Base peak: 274.2527
Precursor m/z: 372.1606
Precursor type: [M+H]+
m/z	relative intensity	assigned
51.023	46	C4H3+
53.0386	49	C4H5+
65.0386	45	C5H5+
66.0463	177	C5H6+
69.0333	18	C4H5O+
70.0287	200	C3H4NO+
75.0231	37	C6H3+
77.0385	203	C6H5+
79.0541	71	C6H7+
83.0292	101	C5H4F+
89.0388	16	C7H5+
92.0257	61	C6H4O+
94.0412	98	C6H6O+
95.0293	72	C6H4F+
95.0496	34	C6H7O+
107.0127	34	C6H3O2+
109.0447	198	C7H6F+
109.0647	17	C7H9O+
113.0399	47	C6H6FO+
121.0283	93	C7H5O2+
122.0364	72	C7H6O2+
123.0241	79	C7H4FO+
133.0448	24	C9H6F+
145.0455	18	C10H6F+
151.0542	55	C12H7+
152.0621	19	C12H8+
157.0451	26	C11H6F+
165.0697	177	C13H9+
169.0451	22	C12H6F+
170.0526	489	C12H7F+
171.0605	221	C12H8F+
175.0541	29	C14H7+
176.0619	54	C14H8+
177.0701	23	C14H9+
181.0453	37	C13H6F+
182.053	50	C13H7F+
183.0604	999	C13H8F+
184.0683	14	C13H9F+
194.0527	44	C14H7F+
195.061	54	C14H8F+
196.0683	164	C14H9F+
199.0557	63	C13H8FO+
211.055	121	C14H8FO+
225.0717	28	C15H10FO+
227.0506	24	C14H8FO2+
