Mass spectrum: Diazinon; LC-ESI-ITFT; MS2; CE: 75%; R=15000; [M+H]+
Name: Diazinon
Name: diethoxy-(2-isopropyl-6-methyl-pyrimidin-4-yl)oxy-thioxo-phosphorane
Formula: C12H21N2O3PS
Exact mass: 304.1011
SMILES: O(c1nc(nc(c1)C)C(C)C)P(OCC)(OCC)=S
InChI: InChI=1S/C12H21N2O3PS/c1-6-15-18(19,16-7-2)17-11-8-10(5)13-12(14-11)9(3)4/h8-9H,6-7H2,1-5H3
Instrument: LTQ Orbitrap XL Thermo Scientific
Instrument type: LC-ESI-ITFT
Ms type: MS2
Ion mode: POSITIVE
Ionization: ESI
Fragmentation mode: HCD
Collision energy: 75 % (nominal)
Resolution: 15000
Column name: XBridge C18 3.5um, 2.1x50mm, Waters
Retention time: 13.0 min
Base peak: 305.1095
Precursor m/z: 305.1083
Precursor type: [M+H]+
m/z	relative intensity	assigned
58.995	10	C2H3S+
64.9786	7	H2O2P+
67.0417	12	C4H5N+
70.0652	96	C4H8N+
78.94	5	OPS+
80.9737	26	H2O3P+
84.0444	334	C4H6NO+
90.9943	10	C2H4O2P+
96.9508	558	H2O2PS+
98.9842	63	H4O4P+
100.0216	639	C4H6NS+
109.0049	73	C2H6O3P+
114.9614	440	H4O3PS+
153.1022	462	C8H13N2O+
154.0558	33	C7H10N2S+
167.0635	7	C8H11N2S+
169.0795	999	C8H13N2S+
