Mass spectrum: Flumequine; LC-ESI-QFT; MS2; CE: 90; R=35000; [M+H]+
Name: Flumequine
Name: 9-Fluoro-5-methyl-1-oxo-6,7-dihydro-1H,5H-pyrido[3,2,1-ij]quinoline-2-carboxylic acid
Formula: C14H12FNO3
Exact mass: 261.08012
SMILES: CC1CCC2=C3N1C=C(C(=O)C3=CC(=C2)F)C(=O)O
InChI: InChI=1S/C14H12FNO3/c1-7-2-3-8-4-9(15)5-10-12(8)16(7)6-11(13(10)17)14(18)19/h4-7H,2-3H2,1H3,(H,18,19)
Instrument: Q Exactive Plus Orbitrap Thermo Scientific
Instrument type: LC-ESI-QFT
Ms type: MS2
Ion mode: POSITIVE
Ionization: ESI
Fragmentation mode: HCD
Collision energy: 90 (nominal)
Resolution: 35000
Column name: XBridge C18 3.5um, 2.1x50mm, Waters
Retention time: 7.3 min
Base peak: 262.0868
Precursor m/z: 262.0874
Precursor type: [M+H]+
m/z	relative intensity	assigned
51.0229	2	C4H3+
52.0181	1	C3H2N+
53.0022	43	C3HO+
55.0542	2	C4H7+
75.0228	21	C6H3+
76.018	2	C5H2N+
77.0021	2	C5HO+
89.0386	9	C7H5+
95.0289	3	C6H4F+
96.0369	4	C6H5F+
99.0227	9	C8H3+
100.018	8	C7H2N+
102.0338	17	C7H4N+
107.029	4	C7H4F+
109.0448	9	C7H6F+
113.0395	4	C6H6FO+
116.0494	18	C8H6N+
119.0292	12	C8H4F+
120.0243	1	C7H3FN+
120.0371	6	C8H5F+
122.0401	11	C7H5FN+
123.0241	2	C7H4FO+
123.0353	7	C6H4FN2+
126.0338	131	C9H4N+
129.0699	1	C10H9+
130.04	3	C7H4N3+
133.0447	10	C9H6F+
134.0527	2	C9H7F+
135.0477	3	C8H6FN+
137.0397	3	C8H6FO+
138.0348	3	C7H5FNO+
140.0497	1	C10H6N+
144.0444	43	C9H6NO+
145.0321	3	C9H4FN+
146.0401	478	C9H5FN+
147.0353	40	C8H4FN2+
147.0478	45	C9H6FN+
148.0557	25	C9H7FN+
148.0683	2	C10H9F+
149.0763	2	C10H10F+
150.0347	3	C8H5FNO+
154.04	385	C9H4N3+
155.037	2	C10H5NO+
158.0399	10	C10H5FN+
159.0479	11	C10H6FN+
160.0555	6	C10H7FN+
161.0635	14	C10H8FN+
162.0351	2	C9H5FNO+
164.0506	45	C9H7FNO+
171.0476	1	C11H6FN+
172.0557	20	C11H7FN+
173.0636	8	C11H8FN+
174.035	911	C10H5FNO+
175.0428	4	C10H6FNO+
176.0507	10	C10H7FNO+
176.087	10	C11H11FN+
177.0821	1	C10H10FN2+
178.0299	8	C9H5FNO2+
186.035	2	C11H5FNO+
187.0428	4	C11H6FNO+
188.0506	8	C11H7FNO+
192.0455	30	C10H7FNO2+
200.0506	15	C12H7FNO+
200.087	12	C13H11FN+
201.0584	8	C12H8FNO+
202.0298	964	C11H5FNO2+
203.0377	7	C11H6FNO2+
206.0613	8	C11H9FNO2+
214.0299	4	C12H5FNO2+
216.0452	5	C12H7FNO2+
216.0822	2	C13H11FNO+
220.0405	999	C11H7FNO3+
221.0484	13	C11H8FNO3+
222.0445	1	C10H7FN2O3+
232.0406	4	C12H7FNO3+
234.0561	25	C12H9FNO3+
238.051	224	C14H8NO3+
244.0768	47	C14H11FNO2+
252.0667	18	C12H11FNO4+
262.0873	34	C14H13FNO3+
