Mass spectrum: Cilastatin; LC-ESI-ITFT; MS2; CE: 60%; R=7500; [M+H]+
Name: Cilastatin
Formula: C16H26N2O5S
Exact mass: 358.1562
SMILES: [H][C@](N)(CSCCCC\C=C(/NC(=O)[C@@]1([H])CC1(C)C)C(O)=O)C(O)=O
InChI: InChI=1S/C16H26N2O5S/c1-16(2)8-10(16)13(19)18-12(15(22)23)6-4-3-5-7-24-9-11(17)14(20)21/h6,10-11H,3-5,7-9,17H2,1-2H3,(H,18,19)(H,20,21)(H,22,23)/b12-6-/t10-,11+/m1/s1
Instrument: LTQ Orbitrap XL Thermo Scientific
Instrument type: LC-ESI-ITFT
Ms type: MS2
Ion mode: POSITIVE
Ionization: ESI
Fragmentation mode: HCD
Collision energy: 60 % (nominal)
Resolution: 7500
Column name: XBridge C18 3.5um, 2.1x50mm, Waters
Retention time: 5.2 min
Base peak: 359.1645
Precursor m/z: 359.1635
Precursor type: [M+H]+
m/z	relative intensity	assigned
55.0178	11	C3H3O+
67.0542	30	C5H7+
69.0698	175	C5H9+
77.0383	7	C6H5+
79.0541	122	C6H7+
81.0699	11	C6H9+
96.0808	21	C6H10N+
97.0647	999	C6H9O+
98.0963	72	C6H12N+
113.0418	96	C6H9S+
115.0574	4	C6H11S+
122.0962	4	C8H12N+
130.0684	64	C6H12NS+
156.0837	9	C8H14NS+
202.0896	6	C9H16NO2S+
