Mass spectrum: Eicosatrienoic acid; LC-ESI-QFT; MS2; CE: 15%; R=17500; [M+H]+
Name: Eicosatrienoic acid
Name: Eicosa-11,14,17-trienoic acid
Name: icosa-11,14,17-trienoic acid
Formula: C20H34O2
Exact mass: 306.2559
SMILES: CCC=CCC=CCC=CCCCCCCCCCC(=O)O
InChI: InChI=1S/C20H34O2/c1-2-3-4-5-6-7-8-9-10-11-12-13-14-15-16-17-18-19-20(21)22/h3-4,6-7,9-10H,2,5,8,11-19H2,1H3,(H,21,22)
Instrument: Exploris 240 Orbitrap Thermo Scientific
Instrument type: LC-ESI-QFT
Ms type: MS2
Ion mode: POSITIVE
Ionization: ESI
Fragmentation mode: HCD
Collision energy: 15 % (nominal)
Resolution: 17500
Column name: XBridge C18 3.5um, 2.1x50mm, Waters
Retention time: 17.864 min
Base peak: 329.2449
Precursor m/z: 307.2632
Precursor type: [M+H]+
m/z	relative intensity	assigned
67.0541	10	C5H7+
69.0696	2	C5H9+
81.0699	32	C6H9+
83.0856	11	C6H11+
95.0855	47	C7H11+
97.1011	13	C7H13+
109.1011	56	C8H13+
111.1166	9	C8H15+
123.1167	63	C9H15+
137.1324	36	C10H17+
151.1121	3	C10H15O+
151.1478	18	C11H19+
161.132	2	C12H17+
165.1634	7	C12H21+
193.1589	9	C13H21O+
195.1385	4	C12H19O2+
209.1534	6	C13H21O2+
223.1687	11	C14H23O2+
237.1849	13	C15H25O2+
251.2003	14	C16H27O2+
265.2157	7	C17H29O2+
271.242	10	C20H31+
289.2524	32	C20H33O+
307.2631	999	C20H35O2+
