Mass spectrum: Pipemidic acid; LC-ESI-QFT; MS2; CE: 60; R=35000; [M+H]+
Name: Pipemidic acid
Name: 5,8-Dihydro-8-ethyl-5-oxo-2-(1-piperazinyl)pyrido(2,3-d)pyrimidine-6-carboxylic acid
Name: 8-ethyl-5-keto-2-piperazin-4-ium-1-yl-pyrido[2,3-d]pyrimidine-6-carboxylate
Formula: C14H17N5O3
Exact mass: 303.13314
SMILES: O=C(O)\C2=C\N(c1nc(ncc1C2=O)N3CCNCC3)CC
InChI: InChI=1S/C14H17N5O3/c1-2-18-8-10(13(21)22)11(20)9-7-16-14(17-12(9)18)19-5-3-15-4-6-19/h7-8,15H,2-6H2,1H3,(H,21,22)
Instrument: Q Exactive Orbitrap Thermo Scientific
Instrument type: LC-ESI-QFT
Ms type: MS2
Ion mode: POSITIVE
Ionization: ESI
Fragmentation mode: HCD
Collision energy: 60 (nominal)
Resolution: 35000
Column name: XBridge C18 3.5um, 2.1x50mm, Waters
Retention time: 3.6 min
Base peak: 304.1405
Precursor m/z: 304.1404
Precursor type: [M+H]+
m/z	relative intensity	assigned
70.0651	48	C4H8N+
95.0239	5	C4H3N2O+
120.0555	4	C6H6N3+
121.0397	4	C6H5N2O+
135.0551	1	C7H7N2O+
136.0506	1	C6H6N3O+
139.0503	1	C6H7N2O2+
146.0349	6	C7H4N3O+
147.0554	4	C8H7N2O+
148.0505	72	C7H6N3O+
149.0711	1	C8H9N2O+
159.0659	1	C8H7N4+
160.0745	1	C8H8N4+
161.0822	3	C8H9N4+
162.0662	46	C8H8N3O+
163.0613	19	C7H7N4O+
164.0454	4	C7H6N3O2+
164.082	1	C8H10N3O+
172.0503	6	C9H6N3O+
174.0664	1	C9H8N3O+
175.0612	2	C8H7N4O+
176.0819	34	C9H10N3O+
187.0616	18	C9H7N4O+
187.0978	1	C10H11N4+
188.0693	20	C9H8N4O+
188.082	3	C10H10N3O+
189.0771	575	C9H9N4O+
190.0974	21	C10H12N3O+
191.0926	33	C9H11N4O+
192.0768	5	C9H10N3O2+
198.0661	3	C11H8N3O+
200.0691	2	C10H8N4O+
201.077	1	C10H9N4O+
202.0848	8	C10H10N4O+
203.0924	4	C10H11N4O+
207.0515	7	C8H7N4O3+
213.0774	2	C11H9N4O+
215.0564	77	C10H7N4O2+
215.0928	50	C11H11N4O+
217.1084	999	C11H13N4O+
228.1007	3	C12H12N4O+
230.1037	1	C11H12N5O+
230.1399	1	C12H16N5+
233.0669	181	C10H9N4O3+
235.0826	3	C10H11N4O3+
241.0715	6	C12H9N4O2+
243.1241	63	C13H15N4O+
258.0986	17	C12H12N5O2+
258.1352	7	C13H16N5O+
259.0825	11	C12H11N4O3+
260.1517	1	C13H18N5O+
261.0983	10	C12H13N4O3+
276.1092	65	C12H14N5O3+
304.1404	469	C14H18N5O3+
306.1448	1	C13H18N6O3+
