Mass spectrum: Phosmet; LC-ESI-QFT; MS2; CE: 45; R=35000; [M+H]+
Name: Phosmet
Name: Fosmet
Name: 2-(dimethoxyphosphinothioylsulfanylmethyl)isoindole-1,3-dione
Formula: C11H12NO4PS2
Exact mass: 316.99454
SMILES: COP(=S)(OC)SCN1C(=O)C2=CC=CC=C2C1=O
InChI: InChI=1S/C11H12NO4PS2/c1-15-17(18,16-2)19-7-12-10(13)8-5-3-4-6-9(8)11(12)14/h3-6H,7H2,1-2H3
Instrument: Q Exactive Orbitrap Thermo Scientific
Instrument type: LC-ESI-QFT
Ms type: MS2
Ion mode: POSITIVE
Ionization: ESI
Fragmentation mode: HCD
Collision energy: 45 (nominal)
Resolution: 35000
Column name: XBridge C18 3.5um, 2.1x50mm, Waters
Retention time: 9.5 min
Base peak: 149.0234
Precursor m/z: 318.0018
Precursor type: [M+H]+
m/z	relative intensity	assigned
69.0698	2	C5H9+
77.0383	2	C6H5+
95.0493	2	C6H7O+
104.0254	1	C7H4O+
105.0336	10	C7H5O+
130.029	7	C8H4NO+
132.0447	1	C8H6NO+
133.0285	65	C8H5O2+
142.9927	1	C2H8O3PS+
160.0393	999	C9H6NO2+
178.0497	7	C9H8NO3+
