Mass spectrum: Triphenyl phosphate (TPP); LC-ESI-QFT; MS2; CE: 45; R=35000; [M+H]+
Name: Triphenyl phosphate (TPP)
Name: Triphenyl phosphate
Name: Triphenoxyphosphine oxide
Formula: C18H15O4P
Exact mass: 326.07080
SMILES: C1=CC=C(C=C1)OP(=O)(OC2=CC=CC=C2)OC3=CC=CC=C3
InChI: InChI=1S/C18H15O4P/c19-23(20-16-10-4-1-5-11-16,21-17-12-6-2-7-13-17)22-18-14-8-3-9-15-18/h1-15H
Instrument: Q Exactive Plus Orbitrap Thermo Scientific
Instrument type: LC-ESI-QFT
Ms type: MS2
Ion mode: POSITIVE
Ionization: ESI
Fragmentation mode: HCD
Collision energy: 45 (nominal)
Resolution: 35000
Column name: XBridge C18 3.5um, 2.1x50mm, Waters
Retention time: 13.1 min
Base peak: 327.0775
Precursor m/z: 327.0781
Precursor type: [M+H]+
m/z	relative intensity	assigned
50.0151	7	C4H2+
51.0228	6	C4H3+
53.0386	75	C4H5+
55.0178	5	C3H3O+
65.0386	5	C5H5+
77.0385	194	C6H5+
81.0335	7	C5H5O+
93.0336	18	C6H5O+
94.0413	6	C6H6O+
95.0492	253	C6H7O+
98.9842	13	H4O4P+
105.0448	144	C6H5N2+
111.0442	4	C6H7O2+
121.0284	8	C7H5O2+
128.062	2	C10H8+
129.0101	1	C5H6O2P+
138.9945	6	C6H4O2P+
140.0022	3	C6H5O2P+
141.0701	3	C11H9+
143.0855	5	C11H11+
151.0544	22	C12H7+
152.0622	518	C12H8+
153.0699	766	C12H9+
154.0776	2	C12H10+
155.0605	1	C10H7N2+
157.0051	11	C6H6O3P+
168.0571	69	C12H8O+
169.0649	43	C12H9O+
170.0727	7	C12H10O+
171.0805	91	C12H11O+
175.0156	51	C6H8O4P+
179.0605	22	C12H7N2+
181.076	10	C12H9N2+
187.0309	16	C11H8OP+
189.0464	3	C11H10OP+
202.0777	24	C16H10+
203.0855	6	C16H11+
205.0413	6	C11H10O2P+
214.0782	1	C17H10+
215.0258	353	C12H8O2P+
216.0336	9	C12H9O2P+
226.0775	4	C18H10+
227.0857	47	C18H11+
228.0935	264	C18H12+
229.1014	131	C18H13+
233.0364	999	C12H10O3P+
244.0884	5	C18H12O+
247.0521	12	C13H12O3P+
250.0394	2	C12H11O4P+
251.0469	650	C12H12O4P+
291.0571	20	C18H12O2P+
309.0677	29	C18H14O3P+
327.0782	599	C18H16O4P+
