Mass spectrum: Fenpiclonil; LC-ESI-QFT; MS2; CE: 150%; R=17500; [M+H]+
Name: Fenpiclonil
Name: 4-(2,3-dichlorophenyl)-1H-pyrrole-3-carbonitrile
Formula: C11H6Cl2N2
Exact mass: 235.9908
SMILES: C1=CC(=C(C(=C1)Cl)Cl)C2=CNC=C2C#N
InChI: InChI=1S/C11H6Cl2N2/c12-10-3-1-2-8(11(10)13)9-6-15-5-7(9)4-14/h1-3,5-6,15H
Instrument: Exploris 240 Orbitrap Thermo Scientific
Instrument type: LC-ESI-QFT
Ms type: MS2
Ion mode: POSITIVE
Ionization: ESI
Fragmentation mode: HCD
Collision energy: 150 % (nominal)
Resolution: 17500
Column name: XBridge C18 3.5um, 2.1x50mm, Waters
Retention time: 8.123 min
Base peak: 236.998
Precursor m/z: 236.9981
Precursor type: [M+H]+
m/z	relative intensity	assigned
62.0152	38	C5H2+
63.0228	152	C5H3+
64.0183	60	C4H2N+
65.026	21	C4H3N+
65.0387	48	C5H5+
72.9839	57	C3H2Cl+
74.0152	31	C6H2+
75.023	58	C6H3+
86.015	115	C7H2+
87.0102	13	C6HN+
88.0183	51	C6H2N+
88.0307	293	C7H4+
89.0386	185	C7H5+
90.0338	24	C6H4N+
90.0463	21	C7H6+
96.9839	34	C5H2Cl+
98.9995	24	C5H4Cl+
111.0099	12	C8HN+
112.0185	49	C8H2N+
112.0307	99	C9H4+
113.0266	57	C8H3N+
113.0385	679	C9H5+
114.0339	175	C8H4N+
114.0461	35	C9H6+
115.042	41	C8H5N+
115.0543	71	C9H7+
122.9996	33	C7H4Cl+
137.0027	27	C7H4ClN+
138.0338	283	C10H4N+
139.0055	19	C6H4ClN2+
139.0416	272	C10H5N+
140.0494	999	C10H6N+
146.9999	68	C9H4Cl+
148.0077	36	C9H5Cl+
149.015	33	C9H6Cl+
165.0446	73	C11H5N2+
166.0521	62	C11H6N2+
174.0104	55	C10H5ClN+
