Mass spectrum: Tebuconazole; LC-ESI-ITFT; MS2; CE: 35%; R=7500; [M+H]+
Name: Tebuconazole
Name: 1-(4-chlorophenyl)-4,4-dimethyl-3-(1,2,4-triazol-1-ylmethyl)-3-pentanol
Formula: C16H22ClN3O
Exact mass: 307.1446
SMILES: CC(C)(C)C(CCC1=CC=C(C=C1)Cl)(CN2C=NC=N2)O
InChI: InChI=1S/C16H22ClN3O/c1-15(2,3)16(21,10-20-12-18-11-19-20)9-8-13-4-6-14(17)7-5-13/h4-7,11-12,21H,8-10H2,1-3H3
Instrument: LTQ Orbitrap XL Thermo Scientific
Instrument type: LC-ESI-ITFT
Ms type: MS2
Ion mode: POSITIVE
Ionization: ESI
Fragmentation mode: CID
Collision energy: 35 % (nominal)
Resolution: 7500
Column name: XBridge C18 3.5um, 2.1x50mm, Waters
Retention time: 12.8 min
Base peak: 308.1531
Precursor m/z: 308.1524
Precursor type: [M+H]+
m/z	relative intensity	assigned
139.0311	436	C8H8Cl+
151.0309	794	C9H8Cl+
165.046	511	C10H10Cl+
181.0786	186	C11H14Cl+
290.1418	999	C16H21ClN3+
