Mass spectrum: Tembotrione; LC-ESI-QFT; MS2; CE: 90; R=35000; [M+H]+
Name: Tembotrione
Name: 2-{2-Chloro-4-(methylsulfonyl)-3-[(2,2,2-trifluoroethoxy)methyl]benzoyl}-1,3-cyclohexanedione
Formula: C17H16ClF3O6S
Exact mass: 440.03082
SMILES: O=C(c1ccc(c(c1Cl)COCC(F)(F)F)S(=O)(=O)C)C2C(=O)CCCC2=O
InChI: InChI=1S/C17H16ClF3O6S/c1-28(25,26)13-6-5-9(15(18)10(13)7-27-8-17(19,20)21)16(24)14-11(22)3-2-4-12(14)23/h5-6,14H,2-4,7-8H2,1H3
Instrument: Q Exactive Orbitrap Thermo Scientific
Instrument type: LC-ESI-QFT
Ms type: MS2
Ion mode: POSITIVE
Ionization: ESI
Fragmentation mode: HCD
Collision energy: 90 (nominal)
Resolution: 35000
Column name: XBridge C18 3.5um, 2.1x50mm, Waters
Retention time: 9.9 min
Base peak: 458.0644
Precursor m/z: 441.0381
Precursor type: [M+H]+
m/z	relative intensity	assigned
51.023	6	C4H3+
55.018	52	C3H3O+
62.9899	24	CH3OS+
63.0228	15	C5H3+
65.0386	308	C5H5+
66.01	221	C4H2O+
66.0464	133	C5H6+
67.0178	78	C4H3O+
67.0542	41	C5H7+
68.9971	34	C3HO2+
75.0228	142	C6H3+
77.0385	81	C6H5+
79.0177	66	C5H3O+
79.0542	15	C6H7+
81.0334	40	C5H5O+
89.0384	229	C7H5+
91.0541	172	C7H7+
92.0255	81	C6H4O+
93.0334	94	C6H5O+
94.0412	65	C6H6O+
95.0127	8	C5H3O2+
95.049	164	C6H7O+
98.9995	40	C5H4Cl+
102.0463	59	C8H6+
103.0541	104	C8H7+
105.0334	289	C7H5O+
105.0446	82	C6H5N2+
107.0492	21	C7H7O+
108.0203	49	C6H4O2+
109.0282	24	C6H5O2+
110.9995	158	C6H4Cl+
111.0439	37	C6H7O2+
112.0073	149	C6H5Cl+
113.0151	31	C6H6Cl+
115.0541	999	C9H7+
116.0619	58	C9H8+
117.0696	61	C9H9+
118.0411	50	C8H6O+
119.049	87	C8H7O+
120.0203	49	C7H4O2+
121.0283	158	C7H5O2+
122.036	7	C7H6O2+
124.0073	32	C7H5Cl+
125.0151	28	C7H6Cl+
126.9944	225	C6H4ClO+
128.0619	896	C10H8+
129.01	52	
129.0697	468	C10H9+
131.0126	51	C8H3O2+
131.049	124	C9H7O+
131.0854	10	C10H11+
132.0204	42	C8H4O2+
133.0282	207	C8H5O2+
137.0151	13	C8H6Cl+
138.0229	10	C8H7Cl+
138.0309	24	C5H8F2S+
138.9943	750	C7H4ClO+
139.0055	173	C3H7O4S+
139.0541	122	C11H7+
140.0021	206	C7H5ClO+
141.01	121	C7H6ClO+
141.0696	500	C11H9+
142.0776	199	C11H10+
143.049	133	C10H7O+
143.0853	69	C11H11+
144.0568	86	C10H8O+
145.0646	152	C10H9O+
146.036	37	C9H6O2+
147.0438	142	C9H7O2+
149.0231	170	C6H7F2S+
150.0229	70	C9H7Cl+
151.0388	265	C6H9F2S+
152.0022	32	C8H5ClO+
152.0618	387	C12H8+
153.0101	31	C8H6ClO+
153.0697	210	C12H9+
154.0776	19	C12H10+
154.9892	12	C7H4ClO2+
155.0495	49	C11H7O+
155.0601	149	C10H7N2+
156.0567	46	C11H8O+
157.0646	661	C11H9O+
158.0363	43	C10H6O2+
158.0725	37	C11H10O+
159.0439	33	C10H7O2+
159.08	14	C11H11O+
163.0308	24	C10H8Cl+
164.0021	13	C9H5ClO+
165.01	151	C9H6ClO+
165.0543	33	C7H11F2S+
166.0182	23	C9H7ClO+
166.0259	38	C6H8F2OS+
166.9892	516	C8H4ClO2+
167.0335	44	C6H9F2OS+
167.997	74	C8H5ClO2+
168.0567	72	C12H8O+
169.0049	109	C8H6ClO2+
169.0646	241	C12H9O+
170.0357	6	C11H6O2+
170.0725	57	C12H10O+
171.0438	126	C11H7O2+
171.0802	194	C12H11O+
172.0515	29	C11H8O2+
173.0594	74	C11H9O2+
174.0309	41	
175.0307	10	C11H8Cl+
175.0384	8	C8H9F2S+
177.01	30	C10H6ClO+
177.0464	11	C11H10Cl+
178.0178	690	C10H7ClO+
178.9891	23	C9H4ClO2+
179.0257	120	C10H8ClO+
181.0646	290	C13H9O+
182.0724	24	C13H10O+
182.9838	11	C6H6ClF2S+
183.0441	24	C12H7O2+
183.0803	7	C13H11O+
184.0517	74	C12H8O2+
184.9999	743	C6H8ClF2S+
185.0596	435	C12H9O2+
186.0079	12	C8H7ClO3+
186.0676	39	C12H10O2+
187.0312	7	C12H8Cl+
187.039	32	C11H7O3+
188.0467	81	
191.0258	210	C11H8ClO+
191.0341	21	C10H7O4+
191.9969	7	C10H5ClO2+
192.0336	61	C11H9ClO+
195.0436	44	C13H7O2+
195.08	7	C14H11O+
196.0514	36	C13H8O2+
197.0595	400	C13H9O2+
198.0674	89	C13H10O2+
199.0387	138	C10H9F2S+
199.0751	113	C13H11O2+
200.0471	8	C12H8O3+
201.0539	23	C10H11F2S+
202.0622	247	C10H12F2S+
203.0257	39	C12H8ClO+
204.0242	7	C5H7F3O5+
204.0418	29	C11H8O4+
205.0049	27	C11H6ClO2+
205.0413	72	C12H10ClO+
206.0125	70	C11H7ClO2+
207.0205	32	C11H8ClO2+
209.0596	78	C14H9O2+
210.0077	15	C8H9ClF2S+
211.0752	39	C14H11O2+
212.083	37	C14H12O2+
213.0544	643	C11H11F2S+
214.0621	177	C11H12F2S+
215.0256	149	C13H8ClO+
215.07	83	C11H13F2S+
219.0207	93	C12H8ClO2+
220.0283	83	C12H9ClO2+
223.0751	39	C15H11O2+
224.0467	9	C14H8O3+
225.0543	417	C12H11F2S+
226.0622	36	C12H12F2S+
227.034	45	C13H7O4+
227.0701	277	C12H13F2S+
231.0207	49	C13H8ClO2+
232.0284	68	
233.0362	122	C13H10ClO2+
239.0702	13	C15H11O3+
240.0777	27	C13H14F2S+
241.0493	634	C12H11F2OS+
241.0855	150	C13H15F2S+
242.057	37	C12H12F2OS+
242.0934	39	C13H16F2S+
243.0213	13	C9H11ClF3S+
243.0649	145	C12H13F2OS+
245.0266	25	C13H9O3S+
246.034	26	C13H10O3S+
246.0523	69	C13H10O5+
259.0154	40	
260.0232	38	C14H9ClO3+
261.0313	52	C14H10ClO3+
262.0388	322	C12H13ClF2S+
271.0058	55	C14H7O4S+
289.0162	11	C14H9O5S+
