Mass spectrum: Pirimicarb; LC-ESI-ITFT; MS2; CE: 30%; R=15000; [M+H]+
Name: Pirimicarb
Name: N,N-dimethylcarbamic acid [2-(dimethylamino)-5,6-dimethyl-4-pyrimidinyl] ester
Formula: C11H18N4O2
Exact mass: 238.1430
SMILES: n(c(c(C)c1OC(=O)N(C)C)C)c(n1)N(C)C
InChI: InChI=1S/C11H18N4O2/c1-7-8(2)12-10(14(3)4)13-9(7)17-11(16)15(5)6/h1-6H3
Instrument: LTQ Orbitrap XL Thermo Scientific
Instrument type: LC-ESI-ITFT
Ms type: MS2
Ion mode: POSITIVE
Ionization: ESI
Fragmentation mode: HCD
Collision energy: 30 % (nominal)
Resolution: 15000
Column name: XBridge C18 3.5um, 2.1x50mm, Waters
Retention time: 5.0 min
Base peak: 239.1506
Precursor m/z: 239.1503
Precursor type: [M+H]+
m/z	relative intensity	assigned
72.0445	480	C3H6NO+
137.0711	1	C7H9N2O+
150.1028	1	C8H12N3+
166.0973	5	C8H12N3O+
167.1048	1	C8H13N3O+
182.1289	703	C9H16N3O+
194.0929	1	C9H12N3O2+
195.1605	61	C10H19N4+
239.1505	999	C11H19N4O2+
