Mass spectrum: Dimethachlor ESA; LC-ESI-ITFT; MS2; CE: 75%; R=15000; [M+H]+
Name: Dimethachlor ESA
Name: 2-[(2,6-dimethylphenyl)(2-methoxyethyl)amino]-2-oxoethanesulfonic acid
Formula: C13H19NO5S
Exact mass: 301.0984
SMILES: CC1=C(N(C(CS(O)(=O)=O)=O)CCOC)C(C)=CC=C1
InChI: InChI=1S/C13H19NO5S/c1-10-5-4-6-11(2)13(10)14(7-8-19-3)12(15)9-20(16,17)18/h4-6H,7-9H2,1-3H3,(H,16,17,18)
Instrument: LTQ Orbitrap XL Thermo Scientific
Instrument type: LC-ESI-ITFT
Ms type: MS2
Ion mode: POSITIVE
Ionization: ESI
Fragmentation mode: HCD
Collision energy: 75 % (nominal)
Resolution: 15000
Column name: XBridge C18 3.5um, 2.1x50mm, Waters
Retention time: 5.9 min
Base peak: 302.1064
Precursor m/z: 302.1057
Precursor type: [M+H]+
m/z	relative intensity	assigned
68.0495	22	C4H6N+
79.0542	3	C6H7+
91.0543	3	C7H7+
103.0541	2	C8H7+
105.0699	62	C8H9+
106.0777	1	C8H10+
107.0856	4	C8H11+
115.0542	1	C9H7+
117.0572	11	C8H7N+
118.0652	7	C8H8N+
119.0855	7	C9H11+
120.0808	8	C8H10N+
121.0886	5	C8H11N+
122.0964	1	C8H12N+
129.0699	4	C10H9+
130.0652	4	C9H8N+
130.0777	2	C10H10+
131.073	69	C9H9N+
131.0856	6	C10H11+
132.0808	999	C9H10N+
133.076	5	C8H9N2+
133.0886	13	C9H11N+
134.0964	6	C9H12N+
144.0808	25	C10H10N+
145.0886	19	C10H11N+
146.0965	434	C10H12N+
147.1043	82	C10H13N+
148.1121	79	C10H14N+
156.0807	1	C11H10N+
158.0964	29	C11H12N+
159.1043	20	C11H13N+
160.076	1	C10H10NO+
160.1121	4	C11H14N+
174.0914	582	C11H12NO+
176.1072	2	C11H14NO+
188.1071	1	C12H14NO+
204.102	6	C12H14NO2+
206.1174	1	C12H16NO2+
270.0787	2	C12H16NO4S+
