Mass spectrum: Chloramphenicol; LC-ESI-QFT; MS2; CE: 75; R=35000; [M-H]-
Name: Chloramphenicol
Name: CLM
Name: 2,2-bis(chloranyl)-N-[(1R,2R)-1-(4-nitrophenyl)-1,3-bis(oxidanyl)propan-2-yl]ethanamide
Formula: C11H12Cl2N2O5
Exact mass: 322.01233
SMILES: c1cc(ccc1[C@H]([C@@H](CO)NC(=O)C(Cl)Cl)O)[N+](=O)[O-]
InChI: InChI=1S/C11H12Cl2N2O5/c12-10(13)11(18)14-8(5-16)9(17)6-1-3-7(4-2-6)15(19)20/h1-4,8-10,16-17H,5H2,(H,14,18)/t8-,9-/m1/s1
Instrument: Q Exactive Orbitrap Thermo Scientific
Instrument type: LC-ESI-QFT
Ms type: MS2
Ion mode: NEGATIVE
Ionization: ESI
Fragmentation mode: HCD
Collision energy: 75 (nominal)
Resolution: 35000
Column name: XBridge C18 3.5um, 2.1x50mm, Waters
Retention time: 5.8 min
Base peak: 321.0054
Precursor m/z: 321.0051
Precursor type: [M-H]-
m/z	relative intensity	assigned
65.9986	3	C3NO-
71.0137	2	C3H3O2-
78.035	78	C5H4N-
79.019	4	C5H3O-
82.9461	113	CHCl2-
84.0091	19	C3H2NO2-
92.0267	4	C6H4O-
93.0347	15	C6H5O-
105.022	6	C6H3NO-
105.0346	5	C7H5O-
106.0299	10	C6H4NO-
108.0219	11	C6H4O2-
117.0348	18	C8H5O-
121.0296	999	C7H5O2-
122.0249	38	C6H4NO2-
123.0331	2	C6H5NO2-
124.0403	9	C6H6NO2-
135.0326	22	C7H5NO2-
136.0405	3	C7H6NO2-
147.0452	5	C9H7O2-
148.0407	14	C5H9ClN2O-
151.0275	267	C7H5NO3-
152.0353	71	C7H6NO3-
159.0325	22	C9H5NO2-
161.0357	5	C8H5N2O2-
162.0197	10	C8H4NO3-
164.0358	3	C5H9ClN2O2-
