Mass spectrum: Oxacillin; LC-ESI-QFT; MS2; CE: 90; R=35000; [M-H]-
Name: Oxacillin
Name: (2S,5R,6R)-3,3-dimethyl-6-[(5-methyl-3-phenyl-1,2-oxazole-4-carbonyl)amino]-7-oxo-4-thia-1-azabicyclo[3.2.0]heptane-2-carboxylic acid
Formula: C19H19N3O5S
Exact mass: 401.10454
SMILES: CC1=C(C(=O)N[C@H]2[C@H]3SC(C)(C)[C@@H](N3C2=O)C(O)=O)C(=NO1)C1=CC=CC=C1
InChI: InChI=1S/C19H19N3O5S/c1-9-11(12(21-27-9)10-7-5-4-6-8-10)15(23)20-13-16(24)22-14(18(25)26)19(2,3)28-17(13)22/h4-8,13-14,17H,1-3H3,(H,20,23)(H,25,26)/t13-,14+,17-/m1/s1
Instrument: Q Exactive Plus Orbitrap Thermo Scientific
Instrument type: LC-ESI-QFT
Ms type: MS2
Ion mode: NEGATIVE
Ionization: ESI
Fragmentation mode: HCD
Collision energy: 90 (nominal)
Resolution: 35000
Column name: XBridge C18 3.5um, 2.1x50mm, Waters
Retention time: 8.4 min
Base peak: 400.097
Precursor m/z: 400.0973
Precursor type: [M-H]-
m/z	relative intensity	assigned
50.0035	18	C3N-
55.0188	41	C3H3O-
56.9805	86	C2HS-
57.9757	365	CNS-
58.0299	86	C2H4NO-
58.9961	242	C2H3S-
60.9753	17	CHOS-
64.0192	56	C4H2N-
65.0146	72	C3HN2-
65.9986	999	C3NO-
69.9757	10	C2NS-
70.9836	789	C2HNS-
71.9915	248	C2H2NS-
72.9993	778	C2H3NS-
74.0071	14	C2H4NS-
74.9911	915	C2H3OS-
82.0299	789	C4H4NO-
83.0139	982	C4H3O2-
83.9914	18	C3H2NS-
92.0505	11	C6H6N-
94.0297	40	C5H4NO-
99.9864	165	C3H2NOS-
101.0397	104	C8H5-
102.035	77	C7H4N-
106.0173	16	C5H2N2O-
107.0251	44	C5H3N2O-
112.9942	40	C4H3NOS-
115.0554	40	C9H7-
116.0508	107	C8H6N-
133.0117	18	C8H5S-
140.0507	153	C10H6N-
141.0346	19	C10H5O-
141.0457	19	C9H5N2-
142.0661	69	C10H8N-
143.0616	81	C9H7N2-
144.0455	94	C9H6NO-
146.0194	15	C9H6S-
158.061	22	C10H8NO-
169.0409	87	C10H5N2O-
171.0566	62	C10H7N2O-
172.023	126	C10H6NS-
173.0308	114	C10H7NS-
174.0382	20	C10H8NS-
182.0481	49	C11H6N2O-
182.0611	224	C12H8NO-
183.0563	85	C11H7N2O-
184.0406	189	C11H6NO2-
184.0638	43	C11H8N2O-
185.072	43	C11H9N2O-
199.0514	21	C11H7N2O2-
201.0672	15	C11H9N2O2-
215.0286	12	C11H7N2OS-
225.0672	213	C13H9N2O2-
