Mass spectrum: Metribuzin; LC-ESI-ITFT; MS2; CE: 75%; R=7500; [M+H]+
Name: Metribuzin
Name: 1,2,4-Triazin-5(4H)-one, 4-amino-6-(1,1-dimethylethyl)-3-(methylthio)-
Name: 4-amino-6-tert-butyl-3-(methylthio)-1,2,4-triazin-5-one
Formula: C8H14N4OS
Exact mass: 214.0883
SMILES: S(C)C(=NN=C1C(C)(C)C)N(N)C1=O
InChI: InChI=1S/C8H14N4OS/c1-8(2,3)5-6(13)12(9)7(14-4)11-10-5/h9H2,1-4H3
Instrument: LTQ Orbitrap XL Thermo Scientific
Instrument type: LC-ESI-ITFT
Ms type: MS2
Ion mode: POSITIVE
Ionization: ESI
Fragmentation mode: HCD
Collision energy: 75 % (nominal)
Resolution: 7500
Column name: XBridge C18 3.5um, 2.1x50mm, Waters
Retention time: 6.9 min
Base peak: 215.0964
Precursor m/z: 215.0961
Precursor type: [M+H]+
m/z	relative intensity	assigned
57.0698	141	C4H9+
58.0399	339	CH4N3+
59.9902	222	CH2NS+
60.9981	26	CH3NS+
62.0058	172	CH4NS+
68.0495	30	C4H6N+
69.0081	15	C2HN2O+
69.0697	51	C5H9+
74.0059	606	C2H4NS+
76.0217	61	C2H6NS+
82.065	90	C5H8N+
84.0808	395	C5H10N+
87.0011	46	C2H3N2S+
89.0168	111	C2H5N2S+
110.0603	21	C6H8NO+
114.9959	49	C3H3N2OS+
130.0307	31	C3H6N4S+
131.0386	491	C3H7N4S+
143.064	21	C6H11N2S+
145.0542	94	C4H9N4S+
153.0776	23	C6H9N4O+
156.0588	119	C6H10N3S+
157.0423	35	C6H9N2OS+
171.0587	240	C7H11N2OS+
172.0773	47	C6H12N4S+
184.0537	113	C7H10N3OS+
186.0821	21	C8H14N2OS+
187.1011	999	C7H15N4S+
