Mass spectrum: Salicylic acid; LC-ESI-QFT; MS2; CE: 45; R=35000; [M+H]+
Name: Salicylic acid
Name: 2-hydroxybenzoic acid
Formula: C7H6O3
Exact mass: 138.03169
SMILES: C1=CC=C(C(=C1)C(=O)O)O
InChI: InChI=1S/C7H6O3/c8-6-4-2-1-3-5(6)7(9)10/h1-4,8H,(H,9,10)
Instrument: Q Exactive Plus Orbitrap Thermo Scientific
Instrument type: LC-ESI-QFT
Ms type: MS2
Ion mode: POSITIVE
Ionization: ESI
Fragmentation mode: HCD
Collision energy: 45 (nominal)
Resolution: 35000
Column name: XBridge C18 3.5um, 2.1x50mm, Waters
Retention time: 6.4 min
Base peak: 391.2837
Precursor m/z: 139.039
Precursor type: [M+H]+
m/z	relative intensity	assigned
55.0542	2	C4H7+
65.0386	10	C5H5+
67.0543	1	C5H7+
69.0335	13	C4H5O+
79.0543	4	C6H7+
83.0492	9	C5H7O+
91.0543	2	C7H7+
93.0336	7	C6H5O+
95.0492	4	C6H7O+
111.0441	7	C6H7O2+
121.0285	999	C7H5O2+
122.0476	2	C6H6N2O+
139.0391	52	C7H7O3+
