Mass spectrum: Gabapentin; LC-ESI-ITFT; MS2; CE: 75%; R=7500; [M+H]+
Name: Gabapentin
Name: 1-(Aminomethyl)cyclohexaneacetic acid
Name: 2-[1-(aminomethyl)cyclohexyl]acetic acid
Formula: C9H17NO2
Exact mass: 171.1259
SMILES: NCC1(CC(O)=O)CCCCC1
InChI: InChI=1S/C9H17NO2/c10-7-9(6-8(11)12)4-2-1-3-5-9/h1-7,10H2,(H,11,12)
Instrument: LTQ Orbitrap XL Thermo Scientific
Instrument type: LC-ESI-ITFT
Ms type: MS2
Ion mode: POSITIVE
Ionization: ESI
Fragmentation mode: HCD
Collision energy: 75 % (nominal)
Resolution: 7500
Column name: XBridge C18 3.5um, 2.1x50mm, Waters
Retention time: 3.6 min
Base peak: 172.1336
Precursor m/z: 172.1332
Precursor type: [M+H]+
m/z	relative intensity	assigned
55.0178	253	C3H3O+
65.0386	13	C5H5+
67.0542	458	C5H7+
69.0698	14	C5H9+
77.0384	15	C6H5+
79.0542	14	C6H7+
81.0698	70	C6H9+
83.0495	12	C5H7O+
91.0542	380	C7H7+
93.0699	293	C7H9+
95.0855	999	C7H11+
109.1012	409	C8H13+
110.0964	84	C7H12N+
112.1122	42	C7H14N+
117.0697	12	C9H9+
119.0855	517	C9H11+
126.1277	50	C8H16N+
136.1121	117	C9H14N+
137.096	479	C9H13O+
154.1228	649	C9H16NO+
172.1327	14	C9H18NO2+
