Mass spectrum: Bifenazate-Diazene; LC-ESI-QFT; MS2; CE: 180%; R=17500; [M+H]+
Name: Bifenazate-Diazene
Name: propan-2-yl N-(2-methoxy-5-phenylphenyl)iminocarbamate
Formula: C17H18N2O3
Exact mass: 298.1317
SMILES: CC(C)OC(=O)N=NC1=C(C=CC(=C1)C2=CC=CC=C2)OC
InChI: InChI=1S/C17H18N2O3/c1-12(2)22-17(20)19-18-15-11-14(9-10-16(15)21-3)13-7-5-4-6-8-13/h4-12H,1-3H3
Instrument: Exploris 240 Orbitrap Thermo Scientific
Instrument type: LC-ESI-QFT
Ms type: MS2
Ion mode: POSITIVE
Ionization: ESI
Fragmentation mode: HCD
Collision energy: 180 % (nominal)
Resolution: 17500
Column name: XBridge C18 3.5um, 2.1x50mm, Waters
Retention time: 12.068 min
Base peak: 299.1387
Precursor m/z: 299.139
Precursor type: [M+H]+
m/z	relative intensity	assigned
51.0228	109	C4H3+
63.0228	138	C5H3+
65.0385	150	C5H5+
74.0151	86	C6H2+
76.0307	259	C6H4+
77.0384	106	C6H5+
78.0465	52	C6H6+
89.0385	203	C7H5+
91.0542	111	C7H7+
102.0463	493	C8H6+
105.0449	36	C6H5N2+
115.0542	999	C9H7+
128.0621	79	C10H8+
139.0543	234	C11H7+
150.0465	50	C12H6+
152.062	75	C12H8+
155.0605	50	C10H7N2+
