Mass spectrum: Fenpropidin; LC-ESI-ITFT; MS2; CE: 35%; R=15000; [M+H]+
Name: Fenpropidin
Name: 1-[3-(4-tert-butylphenyl)-2-methyl-propyl]piperidine
Formula: C19H31N
Exact mass: 273.2457
SMILES: c1cc(ccc1CC(CN2CCCCC2)C)C(C)(C)C
InChI: InChI=1S/C19H31N/c1-16(15-20-12-6-5-7-13-20)14-17-8-10-18(11-9-17)19(2,3)4/h8-11,16H,5-7,12-15H2,1-4H3
Instrument: LTQ Orbitrap XL Thermo Scientific
Instrument type: LC-ESI-ITFT
Ms type: MS2
Ion mode: POSITIVE
Ionization: ESI
Fragmentation mode: CID
Collision energy: 35 % (nominal)
Resolution: 15000
Column name: XBridge C18 3.5um, 2.1x50mm, Waters
Retention time: 9.5 min
Base peak: 274.253
Precursor m/z: 274.2529
Precursor type: [M+H]+
m/z	relative intensity	assigned
84.0807	3	C5H10N+
86.0964	250	C5H12N+
91.0542	20	C7H7+
98.0965	5	C6H12N+
103.0541	4	C8H7+
105.0698	48	C8H9+
107.0854	4	C8H11+
117.0698	7	C9H9+
119.0855	75	C9H11+
131.0857	4	C10H11+
132.0933	26	C10H12+
133.1011	10	C10H13+
140.1428	1	C9H18N+
145.1013	5	C11H13+
147.1167	999	C11H15+
161.1324	41	C12H17+
189.1637	79	C14H21+
216.1747	4	C15H22N+
218.1902	130	C15H24N+
232.2055	2	C16H26N+
259.2293	7	C18H29N+
274.2528	72	C19H32N+
