Mass spectrum: Azinphos-methyl; LC-ESI-QFT; MS2; CE: 150; R=35000; [M+H]+
Name: Azinphos-methyl
Name: Azinphosmethyl
Name: 3-(dimethoxyphosphinothioylsulfanylmethyl)-1,2,3-benzotriazin-4-one
Formula: C10H12N3O3PS2
Exact mass: 317.00577
SMILES: COP(=S)(OC)SCN1C(=O)C2=CC=CC=C2N=N1
InChI: InChI=1S/C10H12N3O3PS2/c1-15-17(18,16-2)19-7-13-10(14)8-5-3-4-6-9(8)11-12-13/h3-6H,7H2,1-2H3
Instrument: Q Exactive Plus Orbitrap Thermo Scientific
Instrument type: LC-ESI-QFT
Ms type: MS2
Ion mode: POSITIVE
Ionization: ESI
Fragmentation mode: HCD
Collision energy: 150 (nominal)
Resolution: 35000
Column name: XBridge C18 3.5um, 2.1x50mm, Waters
Retention time: 9.2 min
Base peak: 318.0126
Precursor m/z: 318.013
Precursor type: [M+H]+
m/z	relative intensity	assigned
50.0152	406	C4H2+
51.023	999	C4H3+
52.0183	8	C3H2N+
52.0308	10	C4H4+
53.0023	13	C3HO+
53.0386	43	C4H5+
59.9665	24	COS+
62.0152	3	C5H2+
62.0185	2	C2H6S+
62.9454	8	PS+
62.9995	19	CH4OP+
63.023	32	C5H3+
64.0182	2	C4H2N+
64.0309	3	C5H4+
64.9787	2	H2O2P+
65.0022	22	C4HO+
65.0386	14	C5H5+
66.0101	9	C4H2O+
66.0464	15	C5H6+
67.0543	2	C5H7+
68.9794	17	C3HS+
69.9872	11	C3H2S+
74.0152	61	C6H2+
75.0103	11	C5HN+
75.023	93	C6H3+
76.0182	47	C5H2N+
76.0308	17	C6H4+
77.0386	125	C6H5+
78.0339	2	C5H4N+
78.0464	3	C6H6+
78.9944	42	CH4O2P+
81.01	4	CH6O2P+
81.0335	7	C5H5O+
81.9872	2	C4H2S+
92.0256	4	C6H4O+
92.0369	2	C5H4N2+
93.01	9	C2H6O2P+
94.0414	3	C6H6O+
94.995	10	C5H3S+
95.0493	136	C6H7O+
96.0028	3	C5H4S+
97.0049	2	CH6O3P+
102.0338	2	C7H4N+
104.0496	16	C7H6N+
108.0027	8	C6H4S+
127.9923	2	C5H4O2S+
