Mass spectrum: Trinexapac-ethyl; LC-ESI-ITFT; MS2; CE: 60%; R=15000; [M+H]+
Name: Trinexapac-ethyl
Name: 4-[cyclopropyl(hydroxy)methylene]-3,5-diketo-cyclohexanecarboxylic acid ethyl ester
Formula: C13H16O5
Exact mass: 252.0992
SMILES: CCOC(=O)C1CC(=O)C(=C(C2CC2)O)C(=O)C1
InChI: InChI=1S/C13H16O5/c1-2-18-13(17)8-5-9(14)11(10(15)6-8)12(16)7-3-4-7/h7-8,16H,2-6H2,1H3/b12-11-
Instrument: LTQ Orbitrap XL Thermo Scientific
Instrument type: LC-ESI-ITFT
Ms type: MS2
Ion mode: POSITIVE
Ionization: ESI
Fragmentation mode: HCD
Collision energy: 60 % (nominal)
Resolution: 15000
Column name: XBridge C18 3.5um, 2.1x50mm, Waters
Retention time: 8.9 min
Base peak: 253.1073
Precursor m/z: 253.1071
Precursor type: [M+H]+
m/z	relative intensity	assigned
68.9971	108	C3HO2+
69.0335	999	C4H5O+
81.0336	17	C5H5O+
83.0493	10	C5H7O+
85.0284	44	C4H5O2+
95.0127	11	C5H3O2+
97.0283	11	C5H5O2+
105.0697	13	C8H9+
107.0491	10	C7H7O+
109.0283	24	C6H5O2+
111.044	174	C6H7O2+
113.0233	30	C5H5O3+
121.0281	12	C7H5O2+
121.0394	7	C6H5N2O+
123.0076	50	C6H3O3+
123.044	9	C7H7O2+
133.0647	20	C9H9O+
137.0232	254	C7H5O3+
137.0597	34	C8H9O2+
139.0389	213	C7H7O3+
151.0753	23	C9H11O2+
155.0339	64	C7H7O4+
161.06	13	C10H9O2+
165.0182	177	C8H5O4+
179.0701	110	C10H11O3+
183.0286	44	C8H7O5+
185.0811	18	C9H13O4+
207.0655	27	C11H11O4+
