Mass spectrum: Propanil; LC-ESI-QFT; MS2; CE: 90; R=35000; [M+H]+
Name: Propanil
Name: N-(3,4-dichlorophenyl)propanamide
Formula: C9H9Cl2NO
Exact mass: 217.00612
SMILES: Clc1ccc(NC(=O)CC)cc1Cl
InChI: InChI=1S/C9H9Cl2NO/c1-2-9(13)12-6-3-4-7(10)8(11)5-6/h3-5H,2H2,1H3,(H,12,13)
Instrument: Q Exactive Orbitrap Thermo Scientific
Instrument type: LC-ESI-QFT
Ms type: MS2
Ion mode: POSITIVE
Ionization: ESI
Fragmentation mode: HCD
Collision energy: 90 (nominal)
Resolution: 35000
Column name: XBridge C18 3.5um, 2.1x50mm, Waters
Retention time: 10.3 min
Base peak: 218.0138
Precursor m/z: 218.0134
Precursor type: [M+H]+
m/z	relative intensity	assigned
57.0336	22	C3H5O+
65.0386	1	C5H5+
92.0495	5	C6H6N+
98.9997	2	C5H4Cl+
100.0075	5	C5H5Cl+
126.0106	3	C6H5ClN+
127.0184	999	C6H6ClN+
161.9872	39	C6H6Cl2N+
