Mass spectrum: Carbamazepine; LC-ESI-ITFT; MS2; CE: 75%; R=15000; [M+H]+
Name: Carbamazepine
Name: 5H-Dibenz[b,f]azepine-5-carboxamide
Name: 11-benzo[b][1]benzazepinecarboxamide
Formula: C15H12N2O
Exact mass: 236.0950
SMILES: N1(c2c(cccc2)C=Cc2c1cccc2)C(N)=O
InChI: InChI=1S/C15H12N2O/c16-15(18)17-13-7-3-1-5-11(13)9-10-12-6-2-4-8-14(12)17/h1-10H,(H2,16,18)
Instrument: LTQ Orbitrap XL Thermo Scientific
Instrument type: LC-ESI-ITFT
Ms type: MS2
Ion mode: POSITIVE
Ionization: ESI
Fragmentation mode: HCD
Collision energy: 75 % (nominal)
Resolution: 15000
Column name: XBridge C18 3.5um, 2.1x50mm, Waters
Retention time: 7.8 min
Base peak: 237.1026
Precursor m/z: 237.1022
Precursor type: [M+H]+
m/z	relative intensity	assigned
91.0541	3	C7H7+
116.0492	7	C8H6N+
152.0618	11	C12H8+
165.0696	50	C13H9+
166.0649	3	C12H8N+
166.077	5	C13H10+
167.0729	14	C12H9N+
167.0854	25	C13H11+
177.0697	19	C14H9+
178.0648	5	C13H8N+
178.0779	6	C14H10+
179.0728	132	C13H9N+
190.0651	6	C14H8N+
191.0727	26	C14H9N+
192.0806	329	C14H10N+
193.0884	267	C14H11N+
194.0963	999	C14H12N+
