Mass spectrum: Ronidazole; LC-ESI-QFT; MS2; CE: 120; R=35000; [M+H]+
Name: Ronidazole
Name: (1-methyl-5-nitroimidazol-2-yl)methyl carbamate
Formula: C6H8N4O4
Exact mass: 200.05455
SMILES: CN1C(=CN=C1COC(=O)N)[N+](=O)[O-]
InChI: InChI=1S/C6H8N4O4/c1-9-4(3-14-6(7)11)8-2-5(9)10(12)13/h2H,3H2,1H3,(H2,7,11)
Instrument: Q Exactive Plus Orbitrap Thermo Scientific
Instrument type: LC-ESI-QFT
Ms type: MS2
Ion mode: POSITIVE
Ionization: ESI
Fragmentation mode: HCD
Collision energy: 120 (nominal)
Resolution: 35000
Column name: XBridge C18 3.5um, 2.1x50mm, Waters
Retention time: 2.3 min
Base peak: 201.0615
Precursor m/z: 201.0618
Precursor type: [M+H]+
m/z	relative intensity	assigned
52.0183	52	C3H2N+
53.0261	93	C3H3N+
54.0339	416	C3H4N+
55.0417	999	C3H5N+
56.0131	5	C2H2NO+
66.0339	263	C4H4N+
67.0417	236	C4H5N+
68.0369	2	C3H4N2+
69.0447	4	C3H5N2+
79.0291	7	C4H3N2+
81.0447	1	C4H5N2+
83.0605	1	C4H7N2+
94.0526	37	C5H6N2+
97.0395	1	C4H5N2O+
