Mass spectrum: Norfenfluramine; LC-ESI-QFT; MS2; CE: 120; R=35000; [M+H]+
Name: Norfenfluramine
Name: 1-[3-(trifluoromethyl)phenyl]propan-2-amine
Formula: C10H12F3N
Exact mass: 203.09218
SMILES: CC(CC1=CC(=CC=C1)C(F)(F)F)N
InChI: InChI=1S/C10H12F3N/c1-7(14)5-8-3-2-4-9(6-8)10(11,12)13/h2-4,6-7H,5,14H2,1H3
Instrument: Q Exactive Plus Orbitrap Thermo Scientific
Instrument type: LC-ESI-QFT
Ms type: MS2
Ion mode: POSITIVE
Ionization: ESI
Fragmentation mode: HCD
Collision energy: 120 (nominal)
Resolution: 35000
Column name: XBridge C18 3.5um, 2.1x50mm, Waters
Retention time: 5.8 min
Base peak: 204.0993
Precursor m/z: 204.0995
Precursor type: [M+H]+
m/z	relative intensity	assigned
53.0022	1	C3HO+
57.0134	5	C3H2F+
59.0291	4	C3H4F+
63.0229	7	C5H3+
64.0307	1	C5H4+
65.0385	2	C5H5+
66.0464	2	C5H6+
75.0041	1	C3HF2+
75.0229	12	C6H3+
77.0021	16	C5HO+
83.0291	104	C5H4F+
89.0386	57	C7H5+
90.0464	36	C7H6+
93.0135	4	C6H2F+
95.0291	4	C6H4F+
98.0151	5	C8H2+
99.0229	59	C8H3+
107.029	1	C7H4F+
108.0368	2	C7H5F+
109.0448	999	C7H6F+
113.0195	2	C6H3F2+
115.0542	1	C9H7+
119.0292	43	C8H4F+
123.0352	4	C6H4FN2+
133.0259	10	C6H4F3+
137.0397	8	C8H6FO+
138.0276	2	C8H4F2+
139.0354	43	C8H5F2+
141.0258	10	C6H3F2N2+
146.0526	5	C10H7F+
147.0353	97	C8H4FN2+
151.0355	1	C9H5F2+
155.0603	1	C10H7N2+
158.0337	5	C8H5F3+
159.0416	162	C8H6F3+
