Mass spectrum: Mephedrone; LC-ESI-ITFT; MS2; CE: 75%; R=15000; [M+H]+
Name: Mephedrone
Name: 2-(Methylamino)-1-(4-methylphenyl)-1-propanone
Name: 4-methylmethcathinone
Formula: C11H15NO
Exact mass: 177.1154
SMILES: Cc1ccc(cc1)C(=O)C(C)NC
InChI: InChI=1S/C11H15NO/c1-8-4-6-10(7-5-8)11(13)9(2)12-3/h4-7,9,12H,1-3H3
Instrument: LTQ Orbitrap XL Thermo Scientific
Instrument type: LC-ESI-ITFT
Ms type: MS2
Ion mode: POSITIVE
Ionization: ESI
Fragmentation mode: HCD
Collision energy: 75 % (nominal)
Resolution: 15000
Column name: XBridge C18 3.5um, 2.1x50mm, Waters
Retention time: 4.3 min
Base peak: 178.1231
Precursor m/z: 178.1226
Precursor type: [M+H]+
m/z	relative intensity	assigned
58.0652	7	C3H8N+
77.0386	1	C6H5+
79.0544	2	C6H7+
91.0543	42	C7H7+
93.0699	6	C7H9+
103.0543	3	C8H7+
104.0622	3	C8H8+
105.0698	1	C8H9+
115.0541	1	C9H7+
116.062	4	C9H8+
117.0699	27	C9H9+
119.0856	208	C9H11+
128.062	2	C10H8+
129.0698	7	C10H9+
130.0652	23	C9H8N+
131.0728	2	C9H9N+
131.0857	4	C10H11+
144.0809	220	C10H10N+
145.0887	999	C10H11N+
147.0804	4	C10H11O+
158.0965	7	C11H12N+
159.1043	6	C11H13N+
160.1121	212	C11H14N+
