Mass spectrum: Dibucaine; LC-ESI-QFT; MS2; CE: 45; R=35000; [M+H]+
Name: Dibucaine
Name: 2-butoxy-N-[2-(diethylamino)ethyl]quinoline-4-carboxamide
Formula: C20H29N3O2
Exact mass: 343.22598
SMILES: CCCCOC1=NC2=CC=CC=C2C(=C1)C(=O)NCCN(CC)CC
InChI: InChI=1S/C20H29N3O2/c1-4-7-14-25-19-15-17(16-10-8-9-11-18(16)22-19)20(24)21-12-13-23(5-2)6-3/h8-11,15H,4-7,12-14H2,1-3H3,(H,21,24)
Instrument: Q Exactive Orbitrap Thermo Scientific
Instrument type: LC-ESI-QFT
Ms type: MS2
Ion mode: POSITIVE
Ionization: ESI
Fragmentation mode: HCD
Collision energy: 45 (nominal)
Resolution: 35000
Column name: XBridge C18 3.5um, 2.1x50mm, Waters
Retention time: 8.6 min
Base peak: 344.2337
Precursor m/z: 344.2333
Precursor type: [M+H]+
m/z	relative intensity	assigned
57.0699	4	C4H9+
72.0808	5	C4H10N+
74.0964	51	C4H12N+
86.0965	1	C5H12N+
100.1121	54	C6H14N+
116.0493	25	C8H6N+
130.0652	1	C9H8N+
144.0445	59	C9H6NO+
146.06	5	C9H8NO+
158.0601	6	C10H8NO+
158.0966	1	C11H12N+
171.0554	24	C10H7N2O+
172.0394	132	C10H6NO2+
182.0963	3	C13H12N+
187.0868	8	C11H11N2O+
200.1069	10	C13H14NO+
202.1232	6	C13H16NO+
215.0817	785	C12H11N2O2+
225.1389	2	C15H17N2+
227.118	26	C14H15N2O+
228.1019	73	C14H14NO2+
243.1492	7	C15H19N2O+
245.129	1	C14H17N2O2+
253.1337	8	C16H17N2O+
271.1442	999	C16H19N2O2+
344.2344	2	C20H30N3O2+
