Mass spectrum: 2-Hydroxybenzothiazole; LC-ESI-QFT; MS2; CE: 75; R=35000; [M+H]+
Name: 2-Hydroxybenzothiazole
Name: 2-Benzothiazolol
Name: 3H-1,3-benzothiazol-2-one
Formula: C7H5NOS
Exact mass: 151.00918
SMILES: C1=CC=C2C(=C1)NC(=O)S2
InChI: InChI=1S/C7H5NOS/c9-7-8-5-3-1-2-4-6(5)10-7/h1-4H,(H,8,9)
Instrument: Q Exactive Plus Orbitrap Thermo Scientific
Instrument type: LC-ESI-QFT
Ms type: MS2
Ion mode: POSITIVE
Ionization: ESI
Fragmentation mode: HCD
Collision energy: 75 (nominal)
Resolution: 35000
Column name: XBridge C18 3.5um, 2.1x50mm, Waters
Retention time: 6.4 min
Base peak: 152.0164
Precursor m/z: 152.0165
Precursor type: [M+H]+
m/z	relative intensity	assigned
53.0386	2	C4H5+
63.0228	2	C5H3+
65.0386	121	C5H5+
68.9792	3	C3HS+
80.0494	296	C5H6N+
81.0336	2	C5H5O+
90.0339	49	C6H4N+
91.0417	18	C6H5N+
92.0495	455	C6H6N+
97.0107	62	C5H5S+
108.0027	1	C6H4S+
108.0445	1	C6H6NO+
109.0107	258	C6H5S+
119.0366	297	C7H5NO+
124.0216	582	C6H6NS+
134.0059	31	C7H4NS+
136.0394	3	C7H6NO2+
146.0348	7	C7H4N3O+
151.0086	1	C7H5NOS+
152.0164	999	C7H6NOS+
