Mass spectrum: Iodocarb; LC-ESI-ITFT; MS2; CE: 35%; R=15000; [M+H]+
Name: Iodocarb
Name: Iodopropynyl butylcarbamate (IPBC)
Name: 3-iodanylprop-2-ynyl N-butylcarbamate
Formula: C8H12INO2
Exact mass: 280.9913
SMILES: N(C(OCC#CI)=O)CCCC
InChI: InChI=1S/C8H12INO2/c1-2-3-6-10-8(11)12-7-4-5-9/h2-3,6-7H2,1H3,(H,10,11)
Instrument: LTQ Orbitrap XL Thermo Scientific
Instrument type: LC-ESI-ITFT
Ms type: MS2
Ion mode: POSITIVE
Ionization: ESI
Fragmentation mode: CID
Collision energy: 35 % (nominal)
Resolution: 15000
Column name: XBridge C18 3.5um, 2.1x50mm, Waters
Retention time: 8.4 min
Base peak: 281.9991
Precursor m/z: 281.9986
Precursor type: [M+H]+
m/z	relative intensity	assigned
68.0495	9	C4H6N+
74.0236	8	C2H4NO2+
82.0651	9	C5H8N+
86.0965	12	C5H12N+
96.0808	63	C6H10N+
100.0757	36	C5H10NO+
110.0965	43	C7H12N+
111.1043	40	C7H13N+
116.0707	83	C5H10NO2+
140.0703	4	C7H10NO2+
154.9352	62	C2H4I+
155.0941	716	C8H13NO2+
164.9195	968	C3H2I+
181.9462	107	C3H5IN+
182.9301	506	C3H4IO+
195.9618	111	C4H7IN+
238.0087	999	C7H13IN+
251.9881	39	C7H11INO+
