Mass spectrum: Oxacillin; LC-ESI-QFT; MS2; CE: 45; R=35000; [M-H]-
Name: Oxacillin
Name: (2S,5R,6R)-3,3-dimethyl-6-[(5-methyl-3-phenyl-1,2-oxazole-4-carbonyl)amino]-7-oxo-4-thia-1-azabicyclo[3.2.0]heptane-2-carboxylic acid
Formula: C19H19N3O5S
Exact mass: 401.10454
SMILES: CC1=C(C(=O)N[C@H]2[C@H]3SC(C)(C)[C@@H](N3C2=O)C(O)=O)C(=NO1)C1=CC=CC=C1
InChI: InChI=1S/C19H19N3O5S/c1-9-11(12(21-27-9)10-7-5-4-6-8-10)15(23)20-13-16(24)22-14(18(25)26)19(2,3)28-17(13)22/h4-8,13-14,17H,1-3H3,(H,20,23)(H,25,26)/t13-,14+,17-/m1/s1
Instrument: Q Exactive Plus Orbitrap Thermo Scientific
Instrument type: LC-ESI-QFT
Ms type: MS2
Ion mode: NEGATIVE
Ionization: ESI
Fragmentation mode: HCD
Collision energy: 45 (nominal)
Resolution: 35000
Column name: XBridge C18 3.5um, 2.1x50mm, Waters
Retention time: 8.4 min
Base peak: 400.097
Precursor m/z: 400.0973
Precursor type: [M-H]-
m/z	relative intensity	assigned
56.9805	3	C2HS-
57.9757	60	CNS-
58.0298	26	C2H4NO-
58.9961	125	C2H3S-
59.9913	7	CH2NS-
65.9986	35	C3NO-
70.9836	101	C2HNS-
71.9915	521	C2H2NS-
72.9992	31	C2H3NS-
74.007	8	C2H4NS-
74.9911	999	C2H3OS-
82.0298	291	C4H4NO-
83.0139	378	C4H3O2-
83.9913	4	C3H2NS-
85.0118	18	C4H5S-
94.03	25	C5H4NO-
96.0092	9	C4H2NO2-
96.0455	31	C5H6NO-
97.9708	9	C3NOS-
99.9862	52	C3H2NOS-
110.9911	9	C5H3OS-
111.9865	6	C4H2NOS-
112.9941	42	C4H3NOS-
113.0068	25	C5H5OS-
114.0019	110	C4H4NOS-
116.0506	4	C8H6N-
117.0348	6	C8H5O-
122.0249	68	C6H4NO2-
142.0664	7	C10H8N-
143.0616	83	C9H7N2-
144.0456	61	C9H6NO-
147.0277	8	C9H7S-
148.028	38	C7H4N2O2-
156.0126	137	C6H6NO2S-
157.0771	9	C10H9N2-
158.0612	74	C10H8NO-
161.0181	19	C8H5N2S-
169.0409	7	C10H5N2O-
170.0614	15	C5H14O4S-
171.0566	115	C10H7N2O-
172.0227	4	C10H6NS-
173.0305	431	C10H7NS-
174.0383	609	C10H8NS-
177.038	22	C10H9OS-
182.0157	108	C7H6N2O2S-
183.0562	41	C11H7N2O-
184.0643	37	C11H8N2O-
185.072	490	C11H9N2O-
186.0564	19	C11H8NO2-
188.054	4	C11H10NS-
190.0332	29	C10H8NOS-
197.0724	8	C12H9N2O-
198.0561	4	C12H8NO2-
199.0514	60	C11H7N2O2-
199.0638	17	C12H9NO2-
200.0593	310	C11H8N2O2-
201.0254	8	C11H7NOS-
201.067	104	C11H9N2O2-
208.0645	20	C13H8N2O-
211.0518	21	C6H13NO5S-
213.067	36	C12H9N2O2-
215.0286	26	C11H7N2OS-
216.0365	332	C11H8N2OS-
216.0488	54	C12H10NOS-
217.0441	500	C11H9N2OS-
225.0671	563	C13H9N2O2-
226.075	79	C13H10N2O2-
227.0827	43	C13H11N2O2-
240.055	3	C13H8N2O3-
241.0443	110	C13H9N2OS-
257.0396	20	C13H9N2O2S-
258.0472	51	C13H10N2O2S-
258.0647	8	C13H10N2O4-
259.0547	449	C13H11N2O2S-
