Mass spectrum: 4-Aminoantipyrine; LC-ESI-ITFT; MS2; CE: 45%; R=7500; [M+H]+
Name: 4-Aminoantipyrine
Name: 4-amino-1,5-dimethyl-2-phenyl-3-pyrazolin-3-one
Formula: C11H13N3O
Exact mass: 203.1059
SMILES: c(ccc1N(N(C=2C)C)C(=O)C2N)cc1
InChI: InChI=1S/C11H13N3O/c1-8-10(12)11(15)14(13(8)2)9-6-4-3-5-7-9/h3-7H,12H2,1-2H3
Instrument: LTQ Orbitrap XL Thermo Scientific
Instrument type: LC-ESI-ITFT
Ms type: MS2
Ion mode: POSITIVE
Ionization: ESI
Fragmentation mode: HCD
Collision energy: 45 % (nominal)
Resolution: 7500
Column name: XBridge C18 3.5um, 2.1x50mm, Waters
Retention time: 2.6 min
Base peak: 204.1138
Precursor m/z: 204.1131
Precursor type: [M+H]+
m/z	relative intensity	assigned
56.0495	999	C3H6N+
58.0651	25	C3H8N+
68.0495	17	C4H6N+
83.0604	251	C4H7N2+
85.076	173	C4H9N2+
94.0651	348	C6H8N+
104.0495	64	C7H6N+
111.0553	33	C5H7N2O+
118.0649	31	C8H8N+
128.0498	10	C9H6N+
130.0652	13	C9H8N+
145.0762	49	C9H9N2+
146.0599	145	C9H8NO+
158.0601	36	C10H8NO+
159.0916	293	C10H11N2+
169.0762	6	C11H9N2+
173.0708	60	C10H9N2O+
187.0865	173	C11H11N2O+
189.0896	84	C10H11N3O+
204.1133	353	C11H14N3O+
