Mass spectrum: Flurtamone; LC-ESI-QFT; MS2; CE: 60; R=35000; [M+H]+
Name: Flurtamone
Name: 5-(methylamino)-2-phenyl-4-[3-(trifluoromethyl)phenyl]furan-3-one
Formula: C18H14F3NO2
Exact mass: 333.09766
SMILES: CNC1=C(C(=O)C(O1)C2=CC=CC=C2)C3=CC(=CC=C3)C(F)(F)F
InChI: InChI=1S/C18H14F3NO2/c1-22-17-14(12-8-5-9-13(10-12)18(19,20)21)15(23)16(24-17)11-6-3-2-4-7-11/h2-10,16,22H,1H3
Instrument: Q Exactive Plus Orbitrap Thermo Scientific
Instrument type: LC-ESI-QFT
Ms type: MS2
Ion mode: POSITIVE
Ionization: ESI
Fragmentation mode: HCD
Collision energy: 60 (nominal)
Resolution: 35000
Column name: XBridge C18 3.5um, 2.1x50mm, Waters
Retention time: 10.1 min
Base peak: 334.1042
Precursor m/z: 334.1049
Precursor type: [M+H]+
m/z	relative intensity	assigned
51.0229	1	C4H3+
53.0386	10	C4H5+
58.0288	128	C2H4NO+
77.0385	27	C6H5+
81.0335	1	C5H5O+
91.0542	8	C7H7+
95.0491	35	C6H7O+
103.0542	69	C8H7+
105.0335	589	C7H5O+
118.0651	8	C8H8N+
120.0808	137	C8H10N+
131.0491	8	C9H7O+
131.073	3	C9H9N+
151.0353	7	C9H5F2+
152.0614	1	C12H8+
159.0417	8	C8H6F3+
165.0699	6	C13H9+
167.0302	5	C9H5F2O+
169.0262	3	C9H4F3+
171.0416	50	C9H6F3+
173.021	6	C8H4F3O+
178.0777	605	C14H10+
179.0856	5	C14H11+
180.062	3	C10H8F2N+
180.0935	3	C14H12+
181.0649	2	C13H9O+
183.0417	1	C10H6F3+
183.0607	1	C13H8F+
185.0446	2	C9H6F3N+
186.0524	2	C9H7F3N+
188.0683	6	C9H9F3N+
189.0698	5	C15H9+
190.0779	1	C15H10+
191.0858	2	C15H11+
195.0252	2	C10H5F2O2+
196.0684	22	C14H9F+
197.0209	47	C10H4F3O+
198.0527	1	C10H7F3N+
199.0366	8	C10H6F3O+
200.0682	5	C10H9F3N+
201.0511	3	C13H7F2+
204.081	1	C15H10N+
206.0731	2	C15H10O+
207.0606	113	C15H8F+
209.0762	35	C15H10F+
210.0524	6	C11H7F3N+
214.0588	8	C14H8F2+
215.0667	2	C14H9F2+
218.0965	2	C16H12N+
225.0159	26	C11H4F3O2+
226.0593	1	C15H8F2+
227.0668	511	C15H9F2+
228.0632	11	C11H9F3NO+
229.0823	20	C15H11F2+
233.0588	3	C16H9O2+
234.0651	2	C14H9F3+
237.071	11	C16H10FO+
238.0474	1	C12H7F3NO+
239.0666	2	C16H9F2+
243.0265	5	C11H6F3O3+
246.0651	18	C15H9F3+
247.0729	999	C15H10F3+
249.0886	2	C15H12F3+
255.0619	10	C16H9F2O+
256.0577	1	C12H9F3NO2+
257.0771	13	C16H11F2O+
258.1092	1	C16H14F2N+
259.0732	8	C16H10F3+
262.0602	5	C15H9F3O+
265.084	1	C15H12F3O+
268.0928	1	C17H12F2N+
273.0758	1	C16H10F3N+
275.0678	63	C16H10F3O+
275.0869	3	C16H13F2O2+
278.1154	4	C16H15F3N+
279.0994	1	C16H14F3O+
283.0562	2	C17H9F2O2+
286.1037	3	C17H14F2NO+
288.0994	10	C17H13F3N+
303.0629	6	C17H10F3O2+
306.11	5	C17H15F3NO+
