Mass spectrum: Exemestane; LC-ESI-ITFT; MS2; CE: 45%; R=7500; [M+H]+
Name: Exemestane
Name: (8R,9S,10R,13S,14S)-10,13-dimethyl-6-methylene-7,8,9,11,12,14,15,16-octahydrocyclopenta[a]phenanthrene-3,17-dione
Formula: C20H24O2
Exact mass: 296.1776
SMILES: CC12CCC3C(C1CCC2=O)CC(=C)C4=CC(=O)C=CC34C
InChI: InChI=1S/C20H24O2/c1-12-10-14-15-4-5-18(22)20(15,3)9-7-16(14)19(2)8-6-13(21)11-17(12)19/h6,8,11,14-16H,1,4-5,7,9-10H2,2-3H3/t14-,15-,16-,19+,20-/m0/s1
Instrument: LTQ Orbitrap XL Thermo Scientific
Instrument type: LC-ESI-ITFT
Ms type: MS2
Ion mode: POSITIVE
Ionization: ESI
Fragmentation mode: HCD
Collision energy: 45 % (nominal)
Resolution: 7500
Column name: XBridge C18 3.5um, 2.1x50mm, Waters
Retention time: 10.1 min
Base peak: 297.1859
Precursor m/z: 297.1849
Precursor type: [M+H]+
m/z	relative intensity	assigned
67.0542	41	C5H7+
77.0387	24	C6H5+
79.0542	316	C6H7+
81.0699	66	C6H9+
91.0544	95	C7H7+
93.0699	766	C7H9+
95.0855	62	C7H11+
97.0648	132	C6H9O+
105.07	377	C8H9+
107.049	22	C7H7O+
107.0856	318	C8H11+
109.0651	30	C7H9O+
109.1007	15	C8H13+
119.0856	95	C9H11+
121.0649	683	C8H9O+
121.1012	999	C9H13+
123.0808	35	C8H11O+
129.0698	55	C10H9+
131.0856	204	C10H11+
133.0647	71	C9H9O+
133.1013	84	C10H13+
135.0804	317	C9H11O+
135.1168	60	C10H15+
137.0954	17	C9H13O+
143.085	61	C11H11+
145.0646	84	C10H9O+
145.1013	284	C11H13+
147.0805	366	C10H11O+
147.117	103	C11H15+
149.0961	843	C10H13O+
159.0802	124	C11H11O+
161.0961	158	C11H13O+
163.1117	103	C11H15O+
171.0803	48	C12H11O+
171.1168	133	C13H15+
173.096	125	C12H13O+
175.1113	22	C12H15O+
185.096	232	C13H13O+
187.1114	79	C13H15O+
189.1276	50	C13H17O+
197.0965	37	C14H13O+
199.1115	61	C14H15O+
201.1283	34	C14H17O+
209.0968	23	C15H13O+
211.1111	51	C15H15O+
223.1113	83	C16H15O+
225.1284	23	C16H17O+
237.1275	67	C17H17O+
239.1427	90	C17H19O+
251.1425	46	C18H19O+
253.1591	69	C18H21O+
255.1755	20	C18H23O+
264.1503	22	C19H20O+
279.1741	231	C20H23O+
