Mass spectrum: Atenolol acid; LC-ESI-ITFT; MS2; CE: 30%; R=15000; [M+H]+
Name: Atenolol acid
Name: Metoprolol acid
Name: 4-(2-Hydroxy-3-((1-methylethyl)amino)propoxy)benzeneacetic acid
Formula: C14H21NO4
Exact mass: 267.1471
SMILES: CC(C)NCC(O)COc1ccc(cc1)CC(=O)O
InChI: InChI=1S/C14H21NO4/c1-10(2)15-8-12(16)9-19-13-5-3-11(4-6-13)7-14(17)18/h3-6,10,12,15-16H,7-9H2,1-2H3,(H,17,18)
Instrument: LTQ Orbitrap XL Thermo Scientific
Instrument type: LC-ESI-ITFT
Ms type: MS2
Ion mode: POSITIVE
Ionization: ESI
Fragmentation mode: HCD
Collision energy: 30 % (nominal)
Resolution: 15000
Column name: XBridge C18 3.5um, 2.1x50mm, Waters
Retention time: 3.8 min
Base peak: 268.1553
Precursor m/z: 268.1543
Precursor type: [M+H]+
m/z	relative intensity	assigned
56.0494	4	C3H6N+
72.0808	8	C4H10N+
74.0601	6	C3H8NO+
98.0965	12	C6H12N+
116.107	28	C6H14NO+
145.0649	8	C10H9O+
165.0546	6	C9H9O3+
191.0702	71	C11H11O3+
208.0973	3	C11H14NO3+
226.1073	63	C11H16NO4+
233.1173	2	C14H17O3+
250.1438	23	C14H20NO3+
268.1545	999	C14H22NO4+
