Mass spectrum: Coumaphos; LC-ESI-QFT; MS2; CE: 90%; R=17500; [M+H]+
Name: Coumaphos
Name: 3-chloro-7-diethoxyphosphinothioyloxy-4-methylchromen-2-one
Formula: C14H16ClO5PS
Exact mass: 362.0145
SMILES: CCOP(=S)(OCC)OC1=CC2=C(C=C1)C(=C(C(=O)O2)Cl)C
InChI: InChI=1S/C14H16ClO5PS/c1-4-17-21(22,18-5-2)20-10-6-7-11-9(3)13(15)14(16)19-12(11)8-10/h6-8H,4-5H2,1-3H3
Instrument: Exploris 240 Orbitrap Thermo Scientific
Instrument type: LC-ESI-QFT
Ms type: MS2
Ion mode: POSITIVE
Ionization: ESI
Fragmentation mode: HCD
Collision energy: 90 % (nominal)
Resolution: 17500
Column name: XBridge C18 3.5um, 2.1x50mm, Waters
Retention time: 10.877 min
Base peak: 363.0214
Precursor m/z: 363.0217
Precursor type: [M+H]+
m/z	relative intensity	assigned
64.9786	37	H2O2P+
68.9793	54	C3HS+
77.0387	89	C6H5+
78.9401	48	OPS+
91.0542	443	C7H7+
96.9508	850	H2O2PS+
102.0463	199	C8H6+
103.0542	443	C8H7+
114.9613	304	H4O3PS+
115.0542	999	C9H7+
119.0493	176	C8H7O+
121.0111	54	C7H5S+
125.0157	37	C7H6Cl+
131.0492	958	C9H7O+
132.0569	317	C9H8O+
134.019	86	C8H6S+
135.0263	420	C8H7S+
137.0156	80	C8H6Cl+
138.0232	26	C8H7Cl+
147.0265	608	C9H7S+
147.0441	219	C9H7O2+
148.0347	74	C9H8S+
148.0521	256	C9H8O2+
149.016	191	C9H6Cl+
150.0233	168	C9H7Cl+
155.0261	89	C8H8ClO+
159.0434	216	C10H7O2+
162.0134	89	C9H6OS+
163.0213	428	C9H7OS+
164.029	449	C9H8OS+
165.0097	164	C8H6O2P+
166.018	326	C9H7ClO+
171.0036	82	C8H8ClS+
175.0393	36	C10H7O3+
191.0165	188	C10H7O2S+
194.0129	350	C10H7ClO2+
196.9827	75	C9H6ClOS+
197.9909	54	C9H7ClOS+
210.0082	36	C10H7ClO3+
211.0157	255	C10H8ClO3+
225.9852	663	C10H7ClO2S+
226.9928	573	C10H8ClO2S+
256.9769	102	C10H7ClO4P+
