Mass spectrum: Propaquizafop; LC-ESI-ITFT; MS2; CE: 75%; R=7500; [M+H]+
Name: Propaquizafop
Name: 2-(propan-2-ylideneamino)oxyethyl 2-[4-(6-chloranylquinoxalin-2-yl)oxyphenoxy]propanoate
Formula: C22H22ClN3O5
Exact mass: 443.1242
SMILES: CC(C(=O)OCCON=C(C)C)OC1=CC=C(C=C1)OC2=CN=C3C=C(C=CC3=N2)Cl
InChI: InChI=1S/C22H22ClN3O5/c1-14(2)26-29-11-10-28-22(27)15(3)30-17-5-7-18(8-6-17)31-21-13-24-20-12-16(23)4-9-19(20)25-21/h4-9,12-13,15H,10-11H2,1-3H3
Instrument: LTQ Orbitrap XL Thermo Scientific
Instrument type: LC-ESI-ITFT
Ms type: MS2
Ion mode: POSITIVE
Ionization: ESI
Fragmentation mode: HCD
Collision energy: 75 % (nominal)
Resolution: 7500
Column name: XBridge C18 3.5um, 2.1x50mm, Waters
Retention time: 15.0 min
Base peak: 466.114
Precursor m/z: 444.1321
Precursor type: [M+H]+
m/z	relative intensity	assigned
56.0494	712	C3H6N+
65.0387	56	C5H5+
70.0651	999	C4H8N+
91.0542	380	C7H7+
99.044	220	C5H7O2+
100.0519	278	C5H8O2+
100.0757	342	C5H10NO+
119.0489	47	C8H7O+
126.0109	22	C6H5ClN+
147.0439	36	C9H7O2+
163.0058	611	C8H4ClN2+
164.0012	107	C7H3ClN3+
165.0219	28	C8H6ClN2+
165.0572	33	C12H7N+
179.0007	23	C8H4ClN2O+
181.0162	186	C8H6ClN2O+
191.0601	19	C13H7N2+
192.0682	504	C13H8N2+
193.0759	52	C13H9N2+
200.0249	19	C15H4O+
207.092	44	C14H11N2+
208.0627	33	C13H8N2O+
208.0998	37	C14H12N2+
215.0375	98	C12H8ClN2+
218.0837	31	C15H10N2+
227.0373	83	C16H5NO+
228.0449	88	C13H9ClN2+
229.0518	53	C16H7NO+
243.0319	37	C13H8ClN2O+
243.068	69	C17H9NO+
253.052	37	C18H7NO+
255.0318	596	C14H8ClN2O+
257.0472	212	C17H7NO2+
285.0421	124	C18H7NO3+
