Mass spectrum: Fosinopril; LC-ESI-QFT; MS2; CE: 60; R=35000; [M-H]-
Name: Fosinopril
Name: (2S,4S)-4-cyclohexyl-1-[2-[(2-methyl-1-propanoyloxypropoxy)-(4-phenylbutyl)phosphoryl]acetyl]pyrrolidine-2-carboxylic acid
Formula: C30H46NO7P
Exact mass: 563.30119
SMILES: O=C(CP(=O)(CCCCc1ccccc1)OC(OC(=O)CC)C(C)C)N2C[C@@H](C[C@H]2C(O)=O)C3CCCCC3
InChI: InChI=1S/C30H46NO7P/c1-4-28(33)37-30(22(2)3)38-39(36,18-12-11-15-23-13-7-5-8-14-23)21-27(32)31-20-25(19-26(31)29(34)35)24-16-9-6-10-17-24/h5,7-8,13-14,22,24-26,30H,4,6,9-12,15-21H2,1-3H3,(H,34,35)/t25-,26+,30?,39?/m1/s1
Instrument: Q Exactive Orbitrap Thermo Scientific
Instrument type: LC-ESI-QFT
Ms type: MS2
Ion mode: NEGATIVE
Ionization: ESI
Fragmentation mode: HCD
Collision energy: 60 (nominal)
Resolution: 35000
Column name: XBridge C18 3.5um, 2.1x50mm, Waters
Retention time: 16.6 min
Base peak: 562.2942
Precursor m/z: 562.2939
Precursor type: [M-H]-
m/z	relative intensity	assigned
62.9641	15	O2P-
66.0349	1	C4H4N-
73.0295	207	C3H5O2-
78.9591	16	O3P-
82.0299	12	C4H4NO-
87.9957	1	C2H3NOP-
96.0091	3	C4H2NO2-
97.0295	71	C5H5O2-
110.0248	178	C5H4NO2-
148.1133	2	C10H14N-
166.1234	2	C10H16NO-
179.0632	15	C10H12OP-
192.1396	1	C12H18NO-
195.0581	24	C10H12O2P-
196.1342	34	C11H18NO2-
198.1054	6	C10H17NOP-
213.0687	36	C10H14O3P-
220.1342	999	C13H18NO2-
237.0688	4	C12H14O3P-
240.1158	4	C12H19NO2P-
330.1997	1	C20H29NOP-
