Mass spectrum: Bisperfluorooctyl phosphate; LC-ESI-ITFT; MS2; CE: 30%; R=15000; [M+H]+
Name: Bisperfluorooctyl phosphate
Name: 6:2diPAP
Name: Bis(1H,1H,2H,2H-perfluorooctyl)phosphate
Formula: C16H9F26O4P
Exact mass: 789.9823
SMILES: FC(F)(CCOP(=O)(OCCC(F)(F)C(F)(F)C(F)(F)C(F)(F)C(F)(F)C(F)(F)F)O)C(F)(F)C(F)(F)C(F)(F)C(F)(F)C(F)(F)F
InChI: InChI=1S/C16H9F26O4P/c17-5(18,7(21,22)9(25,26)11(29,30)13(33,34)15(37,38)39)1-3-45-47(43,44)46-4-2-6(19,20)8(23,24)10(27,28)12(31,32)14(35,36)16(40,41)42/h1-4H2,(H,43,44)
Instrument: LTQ Orbitrap XL Thermo Scientific
Instrument type: LC-ESI-ITFT
Ms type: MS2
Ion mode: POSITIVE
Ionization: ESI
Fragmentation mode: HCD
Collision energy: 30 % (nominal)
Resolution: 15000
Column name: XBridge C18 3.5um, 2.1x50mm, Waters
Retention time: 18.1 min
Base peak: 116.9852
Precursor m/z: 790.9896
Precursor type: [M+H]+
m/z	relative intensity	assigned
98.9839	999	H4O4P+
444.9857	300	C11H6F12O3P+
