Mass spectrum: Trichlamide; LC-ESI-QFT; MS2; CE: 45%; R=17500; [M+H]+
Name: Trichlamide
Name: N-(1-butoxy-2,2,2-trichloroethyl)-2-hydroxybenzamide
Formula: C13H16Cl3NO3
Exact mass: 339.0196
SMILES: CCCCOC(C(Cl)(Cl)Cl)NC(=O)C1=CC=CC=C1O
InChI: InChI=1S/C13H16Cl3NO3/c1-2-3-8-20-12(13(14,15)16)17-11(19)9-6-4-5-7-10(9)18/h4-7,12,18H,2-3,8H2,1H3,(H,17,19)
Instrument: Exploris 240 Orbitrap Thermo Scientific
Instrument type: LC-ESI-QFT
Ms type: MS2
Ion mode: POSITIVE
Ionization: ESI
Fragmentation mode: HCD
Collision energy: 45 % (nominal)
Resolution: 17500
Column name: XBridge C18 3.5um, 2.1x50mm, Waters
Retention time: 11.864 min
Base peak: 121.0284
Precursor m/z: 340.0269
Precursor type: [M+H]+
m/z	relative intensity	assigned
120.0443	2	C7H6NO+
121.0283	999	C7H5O2+
