Mass spectrum: Triphenyl phosphate (TPP); LC-ESI-QFT; MS2; CE: 180; R=35000; [M+H]+
Name: Triphenyl phosphate (TPP)
Name: Triphenyl phosphate
Name: Triphenoxyphosphine oxide
Formula: C18H15O4P
Exact mass: 326.07080
SMILES: C1=CC=C(C=C1)OP(=O)(OC2=CC=CC=C2)OC3=CC=CC=C3
InChI: InChI=1S/C18H15O4P/c19-23(20-16-10-4-1-5-11-16,21-17-12-6-2-7-13-17)22-18-14-8-3-9-15-18/h1-15H
Instrument: Q Exactive Plus Orbitrap Thermo Scientific
Instrument type: LC-ESI-QFT
Ms type: MS2
Ion mode: POSITIVE
Ionization: ESI
Fragmentation mode: HCD
Collision energy: 180 (nominal)
Resolution: 35000
Column name: XBridge C18 3.5um, 2.1x50mm, Waters
Retention time: 13.1 min
Base peak: 327.0775
Precursor m/z: 327.0781
Precursor type: [M+H]+
m/z	relative intensity	assigned
50.0152	999	C4H2+
51.023	954	C4H3+
52.0182	4	C3H2N+
52.0308	19	C4H4+
53.0022	32	C3HO+
53.0386	60	C4H5+
55.0179	8	C3H3O+
56.9889	7	C2H2P+
62.0151	15	C5H2+
63.023	58	C5H3+
64.0308	8	C5H4+
65.0022	122	C4HO+
65.0386	54	C5H5+
66.0101	25	C4H2O+
66.0464	9	C5H6+
67.0543	1	C5H7+
68.9889	5	C3H2P+
74.0151	151	C6H2+
75.0229	131	C6H3+
76.0307	132	C6H4+
77.0134	17	
77.0386	200	C6H5+
78.0464	79	C6H6+
81.0336	18	C5H5O+
86.0151	23	C7H2+
87.023	41	C7H3+
88.0307	13	C7H4+
89.0386	68	C7H5+
90.0465	5	C7H6+
91.018	2	C6H3O+
91.0544	7	C7H7+
92.0257	8	C6H4O+
94.0414	5	C6H6O+
95.0492	160	C6H7O+
98.0152	75	C8H2+
98.9842	19	H4O4P+
99.023	58	C8H3+
100.0308	30	C8H4+
101.0387	7	C8H5+
102.0465	163	C8H6+
105.0448	118	C6H5N2+
107.0047	9	C6H4P+
110.0152	7	C9H2+
111.023	10	
113.0386	42	C9H5+
114.0464	10	C9H6+
115.0543	50	C9H7+
118.0415	2	C8H6O+
119.0493	2	C8H7O+
123.023	4	C10H3+
124.031	9	C10H4+
125.0387	52	C10H5+
126.0465	294	C10H6+
127.0543	6	C10H7+
128.0622	4	C10H8+
129.0448	14	C8H5N2+
132.0572	4	C9H8O+
133.0204	2	C8H6P+
139.0543	224	C11H7+
143.0494	6	C10H7O+
145.0653	1	C10H9O+
149.0388	15	C12H5+
150.0466	408	C12H6+
151.0543	78	C12H7+
152.0622	104	C12H8+
153.0447	5	C10H5N2+
155.0604	5	C10H7N2+
157.0203	10	C10H6P+
167.0493	2	C12H7O+
168.0573	2	C12H8O+
169.065	175	C12H9O+
174.0469	6	C14H6+
176.0621	2	C14H8+
179.0606	63	C12H7N2+
185.0601	1	C12H9O2+
187.0547	4	C15H7+
199.0547	4	C16H7+
200.0622	37	C16H8+
201.0701	1	C16H9+
213.0701	2	C17H9+
219.0802	1	C16H11O+
224.0622	81	C18H8+
225.07	9	C18H9+
226.0783	6	C18H10+
243.0805	7	C18H11O+
257.0604	2	C18H9O2+
