Mass spectrum: Prothioconazole-desethio; LC-ESI-QFT; MS2; CE: 15; R=35000; [M+H]+
Name: Prothioconazole-desethio
Name: 1H-1,2,4-Triazole-1-ethanol, alpha-(1-chlorocyclopropyl)-alpha-((2-chlorophenyl)methyl)-
Name: 2-(1-chloranylcyclopropyl)-1-(2-chlorophenyl)-3-(1,2,4-triazol-1-yl)propan-2-ol
Formula: C14H15Cl2N3O
Exact mass: 311.05922
SMILES: Clc1ccccc1CC(O)(C2(Cl)CC2)Cn3ncnc3
InChI: InChI=1S/C14H15Cl2N3O/c15-12-4-2-1-3-11(12)7-14(20,13(16)5-6-13)8-19-10-17-9-18-19/h1-4,9-10,20H,5-8H2
Instrument: Q Exactive Orbitrap Thermo Scientific
Instrument type: LC-ESI-QFT
Ms type: MS2
Ion mode: POSITIVE
Ionization: ESI
Fragmentation mode: HCD
Collision energy: 15 (nominal)
Resolution: 35000
Column name: XBridge C18 3.5um, 2.1x50mm, Waters
Retention time: 12.1 min
Base peak: 312.0669
Precursor m/z: 312.0665
Precursor type: [M+H]+
m/z	relative intensity	assigned
70.0399	39	C2H4N3+
189.0465	1	C12H10Cl+
312.0665	999	C14H16Cl2N3O+
