Mass spectrum: Mebendazole; LC-ESI-QFT; MS2; CE: 120; R=35000; [M+H]+
Name: Mebendazole
Name: methyl N-(6-benzoyl-1H-benzimidazol-2-yl)carbamate
Formula: C16H13N3O3
Exact mass: 295.09569
SMILES: COC(=O)NC1=NC2=C(N1)C=C(C=C2)C(=O)C3=CC=CC=C3
InChI: InChI=1S/C16H13N3O3/c1-22-16(21)19-15-17-12-8-7-11(9-13(12)18-15)14(20)10-5-3-2-4-6-10/h2-9H,1H3,(H2,17,18,19,21)
Instrument: Q Exactive Plus Orbitrap Thermo Scientific
Instrument type: LC-ESI-QFT
Ms type: MS2
Ion mode: POSITIVE
Ionization: ESI
Fragmentation mode: HCD
Collision energy: 120 (nominal)
Resolution: 35000
Column name: XBridge C18 3.5um, 2.1x50mm, Waters
Retention time: 7.6 min
Base peak: 296.1024
Precursor m/z: 296.103
Precursor type: [M+H]+
m/z	relative intensity	assigned
50.0152	111	C4H2+
51.023	86	C4H3+
52.0182	3	C3H2N+
52.0308	1	C4H4+
53.0386	333	C4H5+
55.0179	25	C3H3O+
63.0229	8	C5H3+
64.0182	6	C4H2N+
64.0308	1	C5H4+
65.0023	7	C4HO+
65.0261	1	C4H3N+
65.0386	1	C5H5+
66.0101	1	C4H2O+
66.0464	1	C5H6+
67.0417	5	C4H5N+
67.0543	3	C5H7+
68.0495	1	C4H6N+
68.9972	3	C3HO2+
69.0084	1	C2HN2O+
75.0229	3	C6H3+
76.0182	34	C5H2N+
77.026	144	C5H3N+
77.0386	721	C6H5+
78.0339	33	C5H4N+
79.0417	19	C5H5N+
80.0369	5	C4H4N2+
81.0335	41	C5H5O+
89.0262	2	C6H3N+
90.0339	6	C6H4N+
91.0417	5	C6H5N+
91.0543	3	C7H7+
92.0494	1	C6H6N+
94.0289	1	C5H4NO+
94.0414	17	C6H6O+
95.0492	999	C6H7O+
96.0445	3	C5H6NO+
102.0339	1	C7H4N+
103.0292	55	C6H3N2+
103.0417	10	C7H5N+
104.037	233	C6H4N2+
105.0336	174	C7H5O+
105.0448	879	C6H5N2+
106.0289	1	C6H4NO+
109.0649	4	C7H9O+
113.0386	3	C9H5+
115.0293	3	C7H3N2+
115.0544	20	C9H7+
116.0371	10	C7H4N2+
116.0495	1	C8H6N+
118.0527	3	C7H6N2+
119.0604	3	C7H7N2+
120.0319	4	C6H4N2O+
121.0397	14	C6H5N2O+
122.0475	1	C6H6N2O+
127.0545	5	C10H7+
128.0495	1	C9H6N+
128.0622	4	C10H8+
130.0401	205	C7H4N3+
131.0242	38	C7H3N2O+
131.0479	175	C7H5N3+
132.0558	22	C7H6N3+
136.0269	12	C6H4N2O2+
139.0543	45	C11H7+
140.0496	44	C10H6N+
141.0701	3	C11H9+
145.0511	1	C7H5N4+
145.0647	5	C10H9O+
146.0714	1	C8H8N3+
148.0506	3	C7H6N3O+
150.0664	16	C7H8N3O+
152.0623	1	C12H8+
153.0574	4	C11H7N+
154.0653	11	C11H8N+
155.0605	11	C10H7N2+
156.0808	5	C11H10N+
158.0353	3	C8H4N3O+
159.0429	97	C8H5N3O+
160.0509	6	C8H6N3O+
160.0619	1	C7H6N5+
164.0497	13	C12H6N+
165.0448	1	C11H5N2+
165.0574	1	C12H7N+
166.0653	40	C12H8N+
167.0731	16	C12H9N+
169.065	3	C12H9O+
174.0299	4	C8H4N3O2+
177.0573	3	C13H7N+
179.0606	5	C12H7N2+
181.0761	13	C12H9N2+
182.0602	1	C12H8NO+
186.0296	1	C9H4N3O2+
186.0414	14	C8H4N5O+
191.0327	32	C8H5N3O3+
191.0603	6	C13H7N2+
192.0683	5	C13H8N2+
193.0759	1	C13H9N2+
