Mass spectrum: Letrozole; LC-ESI-QFT; MS2; CE: 120; R=35000; [M+H]+
Name: Letrozole
Name: 4-[(4-cyanophenyl)-(1,2,4-triazol-1-yl)methyl]benzonitrile
Formula: C17H11N5
Exact mass: 285.10145
SMILES: C1=CC(=CC=C1C#N)C(C2=CC=C(C=C2)C#N)N3C=NC=N3
InChI: InChI=1S/C17H11N5/c18-9-13-1-5-15(6-2-13)17(22-12-20-11-21-22)16-7-3-14(10-19)4-8-16/h1-8,11-12,17H
Instrument: Q Exactive Plus Orbitrap Thermo Scientific
Instrument type: LC-ESI-QFT
Ms type: MS2
Ion mode: POSITIVE
Ionization: ESI
Fragmentation mode: HCD
Collision energy: 120 (nominal)
Resolution: 35000
Column name: XBridge C18 3.5um, 2.1x50mm, Waters
Retention time: 6.6 min
Base peak: 286.1083
Precursor m/z: 286.1087
Precursor type: [M+H]+
m/z	relative intensity	assigned
61.0072	4	C5H+
62.0151	10	C5H2+
63.0229	73	C5H3+
64.0182	31	C4H2N+
65.0386	6	C5H5+
66.0338	1	C4H4N+
74.0149	7	C6H2+
76.0306	3	C6H4+
78.0464	1	C6H6+
81.0334	3	C5H5O+
86.0148	2	C7H2+
87.0229	15	C7H3+
88.0181	14	C6H2N+
89.0386	32	C7H5+
90.0339	56	C6H4N+
91.0542	4	C7H7+
98.015	1	C8H2+
100.0307	8	C8H4+
102.0464	6	C8H6+
103.0416	1	C7H5N+
111.0228	3	C9H3+
112.0182	2	C8H2N+
113.0385	106	C9H5+
114.0338	28	C8H4N+
115.0542	76	C9H7+
116.0495	16	C8H6N+
124.0307	4	C10H4+
125.0385	1	C10H5+
126.0464	37	C10H6+
127.0416	32	C9H5N+
137.0386	62	C11H5+
138.0339	19	C10H4N+
138.0464	13	C11H6+
139.0542	61	C11H7+
140.0495	528	C10H6N+
148.0306	1	C12H4+
149.0387	3	C12H5+
150.0464	167	C12H6+
151.0416	26	C11H5N+
152.049	1	C11H6N+
153.0573	52	C11H7N+
156.0569	1	C11H8O+
161.0385	35	C13H5+
162.0464	103	C13H6+
163.0542	999	C13H7+
164.0494	566	C12H6N+
165.0447	41	C11H5N2+
165.0567	10	C12H7N+
166.0412	5	C12H6O+
166.0651	8	C12H8N+
168.057	9	C12H8O+
170.06	3	C11H8NO+
175.0416	52	C13H5N+
176.0495	8	C13H6N+
177.0573	170	C13H7N+
182.06	1	C12H8NO+
183.0554	4	C11H7N2O+
186.0337	1	C14H4N+
187.0417	21	C14H5N+
188.0495	861	C14H6N+
189.0448	63	C13H5N2+
189.0572	322	C14H7N+
190.0651	771	C14H8N+
191.0606	3	C13H7N2+
193.0522	110	C13H7NO+
194.0363	14	
194.06	10	C13H8NO+
202.0525	28	C14H6N2+
204.0556	16	C13H6N3+
207.0563	2	C13H7N2O+
207.0679	35	C14H9NO+
213.0447	22	C15H5N2+
214.0525	22	C15H6N2+
215.0604	553	C15H7N2+
216.0683	11	C15H8N2+
218.0479	5	C14H6N2O+
221.0471	63	
232.0634	10	C15H8N2O+
