Mass spectrum: Imicyafos; LC-ESI-QFT; MS2; CE: 15%; R=17500; [M+H]+
Name: Imicyafos
Name: [1-[ethoxy(propylsulfanyl)phosphoryl]-3-ethylimidazolidin-2-ylidene]cyanamide
Formula: C11H21N4O2PS
Exact mass: 304.1123
SMILES: CCCSP(=O)(N1CCN(C1=NC#N)CC)OCC
InChI: InChI=1S/C11H21N4O2PS/c1-4-9-19-18(16,17-6-3)15-8-7-14(5-2)11(15)13-10-12/h4-9H2,1-3H3
Instrument: Exploris 240 Orbitrap Thermo Scientific
Instrument type: LC-ESI-QFT
Ms type: MS2
Ion mode: POSITIVE
Ionization: ESI
Fragmentation mode: HCD
Collision energy: 15 % (nominal)
Resolution: 17500
Column name: XBridge C18 3.5um, 2.1x50mm, Waters
Retention time: 5.301 min
Base peak: 305.1193
Precursor m/z: 305.1196
Precursor type: [M+H]+
m/z	relative intensity	assigned
201.0541	10	C6H10N4O2P+
263.0724	5	C8H16N4O2PS+
277.0879	16	C9H18N4O2PS+
305.1193	999	C11H22N4O2PS+
