Mass spectrum: 4-Aminoantipyrine; LC-ESI-ITFT; MS2; CE: 90%; R=30000; [M+H]+
Name: 4-Aminoantipyrine
Name: 4-amino-1,5-dimethyl-2-phenyl-3-pyrazolin-3-one
Formula: C11H13N3O
Exact mass: 203.1059
SMILES: c(ccc1N(N(C=2C)C)C(=O)C2N)cc1
InChI: InChI=1S/C11H13N3O/c1-8-10(12)11(15)14(13(8)2)9-6-4-3-5-7-9/h3-7H,12H2,1-2H3
Instrument: LTQ Orbitrap XL Thermo Scientific
Instrument type: LC-ESI-ITFT
Ms type: MS2
Ion mode: POSITIVE
Ionization: ESI
Fragmentation mode: HCD
Collision energy: 90 % (nominal)
Resolution: 30000
Column name: XBridge C18 3.5um, 2.1x50mm, Waters
Retention time: 2.6 min
Base peak: 204.1138
Precursor m/z: 204.1131
Precursor type: [M+H]+
m/z	relative intensity	assigned
53.0385	10	C4H5+
56.0495	999	C3H6N+
58.0651	33	C3H8N+
68.0494	8	C4H6N+
77.0386	97	C6H5+
83.0604	100	C4H7N2+
85.076	7	C4H9N2+
91.0542	10	C7H7+
92.0495	4	C6H6N+
93.0573	5	C6H7N+
94.0652	309	C6H8N+
95.0491	8	C6H7O+
103.0542	8	C8H7+
104.0495	45	C7H6N+
105.0447	27	C6H5N2+
106.0651	8	C7H8N+
115.0543	11	C9H7+
117.0572	9	C8H7N+
118.0651	19	C8H8N+
128.0495	42	C9H6N+
130.0651	26	C9H8N+
132.0441	10	C8H6NO+
132.0807	26	C9H10N+
145.076	15	C9H9N2+
146.0601	17	C9H8NO+
159.0915	11	C10H11N2+
160.0869	13	C9H10N3+
188.0819	5	C10H10N3O+
204.1135	8	C11H14N3O+
