Mass spectrum: Chlortetracycline; LC-ESI-QFT; MS2; CE: 15; R=35000; [M-H]-
Name: Chlortetracycline
Name: 2-carbamoyl-7-chloro-4-(dimethylazaniumyl)-6,10,11,12a-tetrahydroxy-6-methyl-3,12-dioxo-4,4a,5,5a-tetrahydrotetracen-1-olate
Formula: C22H23ClN2O8
Exact mass: 478.11429
SMILES: CC1(C2CC3C(C(=O)C(=C(C3(C(=O)C2=C(C4=C(C=CC(=C41)Cl)O)O)O)O)C(=O)N)N(C)C)O
InChI: InChI=1S/C22H23ClN2O8/c1-21(32)7-6-8-15(25(2)3)17(28)13(20(24)31)19(30)22(8,33)18(29)11(7)16(27)12-10(26)5-4-9(23)14(12)21/h4-5,7-8,15,26-27,30,32-33H,6H2,1-3H3,(H2,24,31)
Instrument: Q Exactive Plus Orbitrap Thermo Scientific
Instrument type: LC-ESI-QFT
Ms type: MS2
Ion mode: NEGATIVE
Ionization: ESI
Fragmentation mode: HCD
Collision energy: 15 (nominal)
Resolution: 35000
Column name: XBridge C18 3.5um, 2.1x50mm, Waters
Retention time: 5.4 min
Base peak: 477.1067
Precursor m/z: 477.107
Precursor type: [M-H]-
m/z	relative intensity	assigned
142.0145	14	C5H4NO4-
169.0618	3	C7H9N2O3-
180.0301	21	C8H6NO4-
197.0009	11	C9H6ClO3-
209.0931	14	C10H13N2O3-
221.0375	18	C12H10ClO2-
236.0925	1	C12H14NO4-
263.0473	1	C14H12ClO3-
279.0985	4	C13H15N2O5-
289.0271	2	C15H10ClO4-
307.0377	34	C15H12ClO5-
329.022	3	C17H10ClO5-
345.0528	2	C18H14ClO5-
360.065	6	C18H15ClNO5-
371.032	5	C19H12ClO6-
372.101	1	C20H19ClNO4-
374.0797	1	C22H14O6-
387.0279	2	C19H12ClO7-
388.0961	6	C20H19ClNO5-
389.043	20	C19H14ClO7-
390.1105	5	C20H21ClNO5-
392.0905	224	C19H19ClNO6-
398.08	4	C21H17ClNO5-
404.0531	2	C22H12O8-
405.122	19	C20H22ClN2O5-
414.0367	1	C20H13ClNO7-
415.0227	25	C20H12ClO8-
415.1061	5	C21H20ClN2O5-
416.0906	14	C21H19ClNO6-
432.0493	35	C20H15ClNO8-
434.1011	167	C21H21ClNO7-
442.0707	1	C22H17ClNO7-
459.0961	34	C22H20ClN2O7-
460.0806	686	C22H19ClNO8-
477.1071	999	C22H22ClN2O8-
478.0909	10	C22H21ClNO9-
