Mass spectrum: Zopiclone; LC-ESI-QFT; MS2; CE: 150; R=35000; [M+H]+
Name: Zopiclone
Name: [6-(5-chloropyridin-2-yl)-5-oxo-7H-pyrrolo[3,4-b]pyrazin-7-yl] 4-methylpiperazine-1-carboxylate
Formula: C17H17ClN6O3
Exact mass: 388.10507
SMILES: CN1CCN(CC1)C(=O)OC2C3=NC=CN=C3C(=O)N2C4=NC=C(C=C4)Cl
InChI: InChI=1S/C17H17ClN6O3/c1-22-6-8-23(9-7-22)17(26)27-16-14-13(19-4-5-20-14)15(25)24(16)12-3-2-11(18)10-21-12/h2-5,10,16H,6-9H2,1H3
Instrument: Q Exactive Plus Orbitrap Thermo Scientific
Instrument type: LC-ESI-QFT
Ms type: MS2
Ion mode: POSITIVE
Ionization: ESI
Fragmentation mode: HCD
Collision energy: 150 (nominal)
Resolution: 35000
Column name: XBridge C18 3.5um, 2.1x50mm, Waters
Retention time: 4.6 min
Base peak: 389.1117
Precursor m/z: 389.1123
Precursor type: [M+H]+
m/z	relative intensity	assigned
50.0151	15	C4H2+
51.0103	1	C3HN+
51.0229	2	C4H3+
52.0182	13	C3H2N+
53.0022	6	C3HO+
56.0495	3	C3H6N+
60.984	11	C2H2Cl+
61.9792	85	CHClN+
64.0182	1	C4H2N+
65.0022	8	C4HO+
66.0338	24	C4H4N+
74.0152	2	C6H2+
75.0104	98	C5HN+
76.0181	999	C5H2N+
77.0134	2	C4HN2+
77.0259	7	C5H3N+
78.0338	1	C5H4N+
83.0603	1	C4H7N2+
84.984	131	C4H2Cl+
85.9792	1	C3HClN+
91.0417	1	C6H5N+
94.0288	11	C5H4NO+
99.0105	2	C7HN+
100.0182	19	C7H2N+
101.0134	2	C6HN2+
101.026	5	C7H3N+
103.0291	5	C6H3N2+
104.0368	2	C6H4N2+
108.0444	1	C6H6NO+
109.9793	1	C5HClN+
111.9949	245	C5H3ClN+
118.0289	2	C7H4NO+
121.0397	1	C6H5N2O+
127.0292	5	C8H3N2+
128.037	2	C8H4N2+
130.0055	241	C5H5ClNO+
136.0267	1	C6H4N2O2+
139.0057	3	C6H4ClN2+
154.0401	2	C9H4N3+
163.006	1	C8H4ClN2+
181.0509	1	C10H5N4+
