Mass spectrum: Sotalol; LC-ESI-ITFT; MS2; CE: 75%; R=15000; [M+H]+
Name: Sotalol
Name: N-[4-[1-hydroxy-2-(isopropylamino)ethyl]phenyl]methanesulfonamide
Formula: C12H20N2O3S
Exact mass: 272.1195
SMILES: CC(C)NCC(C1=CC=C(C=C1)NS(=O)(=O)C)O
InChI: InChI=1S/C12H20N2O3S/c1-9(2)13-8-12(15)10-4-6-11(7-5-10)14-18(3,16)17/h4-7,9,12-15H,8H2,1-3H3
Instrument: LTQ Orbitrap XL Thermo Scientific
Instrument type: LC-ESI-ITFT
Ms type: MS2
Ion mode: POSITIVE
Ionization: ESI
Fragmentation mode: HCD
Collision energy: 75 % (nominal)
Resolution: 15000
Column name: XBridge C18 3.5um, 2.1x50mm, Waters
Retention time: 1.6 min
Base peak: 273.1277
Precursor m/z: 273.1267
Precursor type: [M+H]+
m/z	relative intensity	assigned
77.0387	2	C6H5+
79.0543	17	C6H7+
80.0495	2	C5H6N+
92.0495	2	C6H6N+
93.0573	8	C6H7N+
106.0652	315	C7H8N+
107.073	180	C7H9N+
116.0495	34	C8H6N+
117.0573	56	C8H7N+
118.0651	52	C8H8N+
119.0604	32	C7H7N2+
119.0729	3	C8H9N+
132.0681	43	C8H8N2+
133.0761	999	C8H9N2+
134.0599	17	C8H8NO+
134.0838	210	C8H10N2+
144.0555	13	C8H6N3+
161.1075	2	C10H13N2+
161.9645	2	C7NO2S+
175.1232	3	C11H15N2+
176.1308	36	C11H16N2+
213.0691	26	C9H13N2O2S+
