Mass spectrum: Ifosfamide; LC-ESI-ITFT; MS2; CE: 60%; R=7500; [M+H]+
Name: Ifosfamide
Name: Isophosphamide
Name: N,3-Bis(2-chloroethyl)-1,3,2-oxazaphosphinan-2-amine 2-oxide
Formula: C7H15Cl2N2O2P
Exact mass: 260.0248
SMILES: ClCCN(P(OC1)(=O)NCCCl)CC1
InChI: InChI=1S/C7H15Cl2N2O2P/c8-2-4-10-14(12)11(6-3-9)5-1-7-13-14/h1-7H2,(H,10,12)
Instrument: LTQ Orbitrap XL Thermo Scientific
Instrument type: LC-ESI-ITFT
Ms type: MS2
Ion mode: POSITIVE
Ionization: ESI
Fragmentation mode: HCD
Collision energy: 60 % (nominal)
Resolution: 7500
Column name: XBridge C18 3.5um, 2.1x50mm, Waters
Retention time: 6.3 min
Base peak: 261.0321
Precursor m/z: 261.0321
Precursor type: [M+H]+
m/z	relative intensity	assigned
56.0495	15	C3H6N+
62.9996	39	C2H4Cl+
67.0541	3	C5H7+
72.0445	6	C3H6NO+
78.0106	169	C2H5ClN+
80.0262	5	C2H7ClN+
82.0651	10	C5H8N+
84.0807	10	C5H10N+
92.0262	999	C3H7ClN+
99.995	3	C4H3ClN+
106.0054	11	
115.9663	10	ClH4NO2P+
116.9504	33	CH3Cl2O2+
118.0052	7	C3H5NO2P+
118.0418	17	CH12ClN2P+
120.0208	9	C7H4O2+
120.0575	164	C5H11ClN+
123.9713	4	C2H4ClNOP+
124.0156	7	C3H7ClNO2+
125.9506	31	C2H2Cl2NO+
126.971	5	C2H5ClO2P+
127.9664	25	C2H4Cl2NO+
128.0259	20	C5H7NOP+
136.016	17	C4H7ClNO2+
141.982	40	C3H6Cl2NO+
146.0366	43	C5H9NO2P+
153.9819	756	C3H6ClNO2P+
155.9973	7	C7H5ClO2+
164.0477	3	C2H14ClN2O2P+
171.9924	3	C4H8Cl2NO2+
182.0132	70	C5H10ClNO2P+
233.001	45	C5H12Cl2N2O2P+
261.0319	19	C7H16Cl2N2O2P+
