Mass spectrum: Pheniramine-N-oxide; LC-ESI-QFT; MS2; CE: 180; R=35000; [M+H]+
Name: Pheniramine-N-oxide
Name: N,N-dimethyl-3-phenyl-3-pyridin-2-ylpropan-1-amine oxide
Formula: C16H20N2O
Exact mass: 256.15756
SMILES: C[N+](C)(CCC(c1ccccc1)c2ccccn2)[O-]
InChI: InChI=1S/C16H20N2O/c1-18(2,19)13-11-15(14-8-4-3-5-9-14)16-10-6-7-12-17-16/h3-10,12,15H,11,13H2,1-2H3
Instrument: Q Exactive Plus Orbitrap Thermo Scientific
Instrument type: LC-ESI-QFT
Ms type: MS2
Ion mode: POSITIVE
Ionization: ESI
Fragmentation mode: HCD
Collision energy: 180 (nominal)
Resolution: 35000
Column name: XBridge C18 3.5um, 2.1x50mm, Waters
Retention time: 4.2 min
Base peak: 257.1646
Precursor m/z: 257.1648
Precursor type: [M+H]+
m/z	relative intensity	assigned
50.0151	43	C4H2+
51.023	38	C4H3+
52.0182	3	C3H2N+
53.0022	11	C3HO+
53.0386	12	C4H5+
62.0151	22	C5H2+
63.0229	65	C5H3+
64.0308	5	C5H4+
65.0386	286	C5H5+
66.0464	21	C5H6+
67.0416	4	C4H5N+
67.9892	1	C3O2+
75.0229	29	C6H3+
76.0306	4	C6H4+
77.0386	23	C6H5+
78.0338	109	C5H4N+
79.0416	11	C5H5N+
80.0495	4	C5H6N+
81.0336	1	C5H5O+
87.023	9	C7H3+
88.0308	21	C7H4+
89.0386	233	C7H5+
90.0465	115	C7H6+
91.0543	346	C7H7+
92.0495	19	C6H6N+
93.0574	39	C6H7N+
95.0366	3	C5H5NO+
95.0492	30	C6H7O+
96.0444	124	C5H6NO+
101.0386	5	C8H5+
102.0465	18	C8H6+
103.0543	4	C8H7+
104.0495	17	C7H6N+
105.0448	18	C6H5N2+
110.06	8	C6H8NO+
113.0386	74	C9H5+
114.0464	31	C9H6+
115.0543	220	C9H7+
116.0495	37	C8H6N+
116.062	4	C9H8+
117.0573	391	C8H7N+
118.0651	350	C8H8N+
119.0492	5	C8H7O+
126.0464	17	C10H6+
127.0417	5	C9H5N+
127.0542	7	C10H7+
128.0495	34	C9H6N+
128.0621	7	C10H8+
129.0446	16	C8H5N2+
130.0402	3	C7H4N3+
130.0651	1	C9H8N+
132.0571	16	C9H8O+
134.0602	1	C8H8NO+
138.0463	11	C11H6+
139.0543	999	C11H7+
140.0495	415	C10H6N+
140.0618	75	C11H8+
141.0573	15	C10H7N+
141.0696	6	C11H9+
145.065	1	C10H9O+
146.0599	8	C9H8NO+
150.0464	4	C12H6+
152.0621	38	C12H8+
153.0572	1	C11H7N+
153.0702	1	C12H9+
154.0652	3	C11H8N+
155.0605	4	C10H7N2+
164.0496	23	C12H6N+
165.0575	24	C12H7N+
165.0699	7	C13H9+
166.0652	643	C12H8N+
167.073	383	C12H9N+
168.0808	1	C12H10N+
169.0646	5	C12H9O+
176.0626	1	C14H8+
178.0654	10	C13H8N+
179.073	3	C13H9N+
180.0805	7	C13H10N+
183.068	1	C12H9NO+
184.0755	5	C12H10NO+
191.0729	16	C14H9N+
192.0807	13	C14H10N+
193.0886	7	C14H11N+
194.0964	2	C14H12N+
