Mass spectrum: Doxepine; LC-ESI-QFT; MS2; CE: 45; R=35000; [M+H]+
Name: Doxepine
Name: Doxepin
Name: 3-(6H-benzo[c][1]benzoxepin-11-ylidene)-N,N-dimethylpropan-1-amine
Formula: C19H21NO
Exact mass: 279.16231
SMILES: CN(C)CCC=C1C2=CC=CC=C2COC3=CC=CC=C31
InChI: InChI=1S/C19H21NO/c1-20(2)13-7-11-17-16-9-4-3-8-15(16)14-21-19-12-6-5-10-18(17)19/h3-6,8-12H,7,13-14H2,1-2H3
Instrument: Q Exactive Plus Orbitrap Thermo Scientific
Instrument type: LC-ESI-QFT
Ms type: MS2
Ion mode: POSITIVE
Ionization: ESI
Fragmentation mode: HCD
Collision energy: 45 (nominal)
Resolution: 35000
Column name: XBridge C18 3.5um, 2.1x50mm, Waters
Retention time: 6.8 min
Base peak: 280.1689
Precursor m/z: 280.1696
Precursor type: [M+H]+
m/z	relative intensity	assigned
53.0386	1	C4H5+
57.0334	1	C3H5O+
58.0651	266	C3H8N+
65.0385	1	C5H5+
69.0334	1	C4H5O+
70.0651	28	C4H8N+
71.073	4	C4H9N+
72.0807	9	C4H10N+
77.0384	4	C6H5+
79.0542	23	C6H7+
81.0335	1	C5H5O+
82.0651	3	C5H8N+
84.0808	261	C5H10N+
85.0886	28	C5H11N+
91.0542	160	C7H7+
95.0491	5	C6H7O+
103.0543	1	C8H7+
105.0335	3	C7H5O+
105.0448	1	C6H5N2+
105.07	8	C8H9+
107.0491	999	C7H7O+
114.0913	1	C6H12NO+
115.0542	96	C9H7+
117.0698	207	C9H9+
119.0491	24	C8H7O+
121.0647	4	C8H9O+
128.062	7	C10H8+
129.0698	98	C10H9+
131.0491	38	C9H7O+
141.0699	136	C11H9+
142.0777	73	C11H10+
143.0855	15	C11H11+
145.0647	2	C10H9O+
150.0914	3	C9H12NO+
153.0698	2	C12H9+
157.0648	10	C11H9O+
158.0966	1	C11H12N+
165.0698	21	C13H9+
166.0777	12	C13H10+
167.0855	31	C13H11+
171.1044	2	C12H13N+
172.1121	2	C12H14N+
173.1199	16	C12H15N+
174.1279	2	C12H16N+
176.1069	1	C11H14NO+
177.0698	1	C14H9+
178.0777	27	C14H10+
179.0855	60	C14H11+
181.0649	2	C13H9O+
181.1011	27	C14H13+
186.1277	9	C13H16N+
189.1146	3	C12H15NO+
191.0855	17	C15H11+
192.0933	32	C15H12+
193.0647	4	C14H9O+
193.1012	13	C15H13+
194.0727	69	C14H10O+
195.0805	79	C14H11O+
202.0777	61	C16H10+
203.0855	1	C16H11+
204.0934	1	C16H12+
205.1015	4	C16H13+
206.0729	1	C15H10O+
207.0805	78	C15H11O+
207.1169	86	C16H15+
209.0961	41	C15H13O+
215.0856	7	C17H11+
216.0932	5	C17H12+
217.1013	99	C17H13+
218.1091	3	C17H14+
219.0806	6	C16H11O+
219.1169	2	C17H15+
220.0883	130	C16H12O+
233.0961	7	C17H13O+
234.1039	5	C17H14O+
235.1118	199	C17H15O+
237.1276	2	C17H17O+
250.1225	1	C17H16NO+
280.1696	218	C19H22NO+
