Mass spectrum: Iodosulfuron-methyl; LC-ESI-QFT; MS2; CE: 30; R=35000; [M-H]-
Name: Iodosulfuron-methyl
Name: Methyl 4-iodo-2-(N-(4-methoxy-6-methyl-1,3,5-triazin-2-ylcarbamoyl)sulfamoyl)benzoate
Name: Methyl 4-iodo-2-[(4-methoxy-6-methyl-1,3,5-triazin-2-yl)carbamoylsulfamoyl]benzoate
Formula: C14H14IN5O6S
Exact mass: 506.97095
SMILES: Cc2nc(NC(=O)NS(=O)(=O)c1cc(I)ccc1C(=O)OC)nc(OC)n2
InChI: InChI=1S/C14H14IN5O6S/c1-7-16-12(19-14(17-7)26-3)18-13(22)20-27(23,24)10-6-8(15)4-5-9(10)11(21)25-2/h4-6H,1-3H3,(H2,16,17,18,19,20,22)
Instrument: Q Exactive Plus Orbitrap Thermo Scientific
Instrument type: LC-ESI-QFT
Ms type: MS2
Ion mode: NEGATIVE
Ionization: ESI
Fragmentation mode: HCD
Collision energy: 30 (nominal)
Resolution: 35000
Column name: XBridge C18 3.5um, 2.1x50mm, Waters
Retention time: 9.2 min
Base peak: 505.9636
Precursor m/z: 505.9637
Precursor type: [M-H]-
m/z	relative intensity	assigned
55.0302	1	C2H3N2-
66.0097	1	C2N3-
82.0411	4	C3H4N3-
107.0364	5	C4H3N4-
109.0521	2	C4H5N4-
124.0392	1	C4H4N4O-
126.9052	1	I-
139.0627	999	C5H7N4O-
307.8889	143	C7H3INO3S-
339.9148	1	C8H7INO4S-
365.8943	9	C9H5INO5S-
