Mass spectrum: Sulcotrione; LC-ESI-ITFT; MS2; CE: 45%; R=15000; [M+H]+
Name: Sulcotrione
Name: 2-(2-chloranyl-4-methylsulfonyl-phenyl)carbonylcyclohexane-1,3-dione
Formula: C14H13ClO5S
Exact mass: 328.0167
SMILES: O=C1CCCC(=O)C1C(=O)c1ccc(S(=O)(=O)C)cc1Cl
InChI: InChI=1S/C14H13ClO5S/c1-21(19,20)8-5-6-9(10(15)7-8)14(18)13-11(16)3-2-4-12(13)17/h5-7,13H,2-4H2,1H3
Instrument: LTQ Orbitrap XL Thermo Scientific
Instrument type: LC-ESI-ITFT
Ms type: MS2
Ion mode: POSITIVE
Ionization: ESI
Fragmentation mode: HCD
Collision energy: 45 % (nominal)
Resolution: 15000
Column name: XBridge C18 3.5um, 2.1x50mm, Waters
Retention time: 6.8 min
Base peak: 351.0066
Precursor m/z: 329.0245
Precursor type: [M+H]+
m/z	relative intensity	assigned
55.0177	7	C3H3O+
68.997	142	C3HO2+
97.0285	7	C5H5O2+
98.9841	17	CH4ClO3+
111.044	572	C6H7O2+
139.0389	999	C7H7O3+
157.0494	229	C7H9O4+
171.0652	5	C8H11O4+
190.9926	20	C7H8ClO2S+
202.0633	4	C12H10O3+
214.0623	21	C13H10O3+
230.0565	6	C13H10O4+
240.9717	12	C10H6ClO3S+
246.0515	7	C13H10O5+
249.0302	13	C13H10ClO3+
283.019	14	C13H12ClO3S+
293.0474	95	C14H13O5S+
329.0241	6	C14H14ClO5S+
