Mass spectrum: N-Desmethylvenlafaxine; LC-ESI-ITFT; MS2; CE: 75%; R=7500; [M+H]+
Name: N-Desmethylvenlafaxine
Name: 1-[1-(4-methoxyphenyl)-2-(methylamino)ethyl]-1-cyclohexanol
Formula: C16H25NO2
Exact mass: 263.1885
SMILES: CNCC(C1=CC=C(C=C1)OC)C2(CCCCC2)O
InChI: InChI=1S/C16H25NO2/c1-17-12-15(16(18)10-4-3-5-11-16)13-6-8-14(19-2)9-7-13/h6-9,15,17-18H,3-5,10-12H2,1-2H3
Instrument: LTQ Orbitrap XL Thermo Scientific
Instrument type: LC-ESI-ITFT
Ms type: MS2
Ion mode: POSITIVE
Ionization: ESI
Fragmentation mode: HCD
Collision energy: 75 % (nominal)
Resolution: 7500
Column name: XBridge C18 3.5um, 2.1x50mm, Waters
Retention time: 6.3 min
Base peak: 264.1967
Precursor m/z: 264.1958
Precursor type: [M+H]+
m/z	relative intensity	assigned
67.0543	14	C5H7+
69.0701	13	C5H9+
77.0383	17	C6H5+
79.0543	55	C6H7+
81.0699	84	C6H9+
91.0543	219	C7H7+
93.07	32	C7H9+
105.0695	12	C8H9+
107.0857	23	C8H11+
115.0538	12	C9H7+
117.0697	32	C9H9+
119.0606	14	C7H7N2+
119.0856	19	C9H11+
121.0649	999	C8H9O+
132.057	60	C9H8O+
135.0804	67	C9H11O+
145.0647	19	C10H9O+
147.0805	389	C10H11O+
149.0839	31	C9H11NO+
155.0853	10	C12H11+
158.0725	58	C11H10O+
159.0806	91	C11H11O+
161.0967	12	C11H13O+
173.0962	105	C12H13O+
