Mass spectrum: 1H-Benzotriazole-5-carboxylic acid; LC-ESI-QFT; MS2; CE: 120; R=35000; [M+H]+
Name: 1H-Benzotriazole-5-carboxylic acid
Name: 1H-benzotriazole-5-carboxylic acid
Name: 2H-benzotriazole-5-carboxylic acid
Formula: C7H5N3O2
Exact mass: 163.03818
SMILES: c1cc2c(cc1C(=O)O)nn[nH]2
InChI: InChI=1S/C7H5N3O2/c11-7(12)4-1-2-5-6(3-4)9-10-8-5/h1-3H,(H,11,12)(H,8,9,10)
Instrument: Q Exactive Plus Orbitrap Thermo Scientific
Instrument type: LC-ESI-QFT
Ms type: MS2
Ion mode: POSITIVE
Ionization: ESI
Fragmentation mode: HCD
Collision energy: 120 (nominal)
Resolution: 35000
Column name: XBridge C18 3.5um, 2.1x50mm, Waters
Retention time: 3.7 min
Base peak: 164.0453
Precursor m/z: 164.0455
Precursor type: [M+H]+
m/z	relative intensity	assigned
50.0151	27	C4H2+
51.0229	41	C4H3+
52.0182	48	C3H2N+
52.0307	3	C4H4+
53.0022	42	C3HO+
53.0386	761	C4H5+
53.9975	7	C2NO+
54.0338	43	C3H4N+
54.0464	6	C4H6+
55.0179	29	C3H3O+
57.0334	1	C3H5O+
61.0072	8	C5H+
62.0151	50	C5H2+
63.0229	999	C5H3+
64.0182	121	C4H2N+
64.0307	38	C5H4+
65.0386	897	C5H5+
66.0338	18	C4H4N+
67.0178	9	C4H3O+
67.029	1	C3H3N2+
67.9893	12	C3O2+
68.0131	185	C3H2NO+
68.9971	6	C3HO2+
76.0181	14	C5H2N+
78.0338	66	C5H4N+
79.0178	7	C5H3O+
79.0416	28	C5H5N+
80.0494	803	C5H6N+
81.0335	387	C5H5O+
82.0287	14	C4H4NO+
89.026	7	C6H3N+
90.0338	350	C6H4N+
91.0291	7	C5H3N2+
91.0416	59	C6H5N+
92.0494	29	C6H6N+
94.0287	2	C5H4NO+
96.0443	29	C5H6NO+
106.0287	32	C6H4NO+
107.0366	12	C6H5NO+
108.0443	294	C6H6NO+
118.0287	44	C7H4NO+
118.0399	308	C6H4N3+
119.0478	146	C6H5N3+
120.0555	16	C6H6N3+
124.0393	17	C6H6NO2+
134.0349	2	C6H4N3O+
136.0393	1	C7H6NO2+
136.0505	8	C6H6N3O+
146.0347	2	C7H4N3O+
146.0463	5	C6H4N5+
151.0376	38	C6H5N3O2+
164.0454	26	C7H6N3O2+
