Mass spectrum: Trimethoprim; LC-ESI-ITFT; MS2; CE: 75%; R=7500; [M+H]+
Name: Trimethoprim
Name: 2,4-Diamino-5-(3,4,5-trimethoxybenzyl)pyrimidine
Name: 5-[(3,4,5-trimethoxyphenyl)methyl]pyrimidine-2,4-diamine
Formula: C14H18N4O3
Exact mass: 290.1379
SMILES: c1(Cc2c(nc(N)nc2)N)cc(c(OC)c(c1)OC)OC
InChI: InChI=1S/C14H18N4O3/c1-19-10-5-8(6-11(20-2)12(10)21-3)4-9-7-17-14(16)18-13(9)15/h5-7H,4H2,1-3H3,(H4,15,16,17,18)
Instrument: LTQ Orbitrap XL Thermo Scientific
Instrument type: LC-ESI-ITFT
Ms type: MS2
Ion mode: POSITIVE
Ionization: ESI
Fragmentation mode: HCD
Collision energy: 75 % (nominal)
Resolution: 7500
Column name: XBridge C18 3.5um, 2.1x50mm, Waters
Retention time: 3.8 min
Base peak: 291.1463
Precursor m/z: 291.1452
Precursor type: [M+H]+
m/z	relative intensity	assigned
60.0557	10	CH6N3+
72.0317	15	C2H4N2O+
81.0448	234	C4H5N2+
83.0479	11	C3H5N3+
86.0587	10	C2H6N4+
106.0402	10	C5H4N3+
110.0587	237	C4H6N4+
111.0667	140	C4H7N4+
113.0461	10	C3H5N4O+
120.057	11	C8H8O+
123.0442	108	C7H7O2+
123.0666	999	C5H7N4+
124.0743	83	C5H8N4+
135.0666	15	C6H7N4+
137.0598	72	C8H9O2+
142.0654	8	C10H8N+
145.0764	13	C9H9N2+
146.0713	13	C8H8N3+
148.0524	13	C9H8O2+
149.071	68	C8H9N2O+
149.0826	27	C7H9N4+
151.039	92	C8H7O3+
156.045	13	C10H6NO+
161.0823	65	C8H9N4+
162.0903	30	C8H10N4+
173.0815	12	C9H9N4+
174.0658	114	C9H8N3O+
175.061	10	C8H7N4O+
175.0979	28	C9H11N4+
181.0861	26	C10H13O3+
184.0864	18	C11H10N3+
186.0559	22	C11H8NO2+
187.0975	197	C10H11N4+
188.1047	9	C10H12N4+
189.0762	16	C9H9N4O+
190.0852	60	C9H10N4O+
191.0927	83	C9H11N4O+
199.0983	59	C11H11N4+
200.1053	22	C11H12N4+
201.0776	33	C12H11NO2+
201.1136	277	C11H13N4+
202.1217	36	C11H14N4+
203.0927	43	C10H11N4O+
212.0828	12	C12H10N3O+
213.0779	15	C11H9N4O+
214.0843	17	C11H10N4O+
215.0929	63	C11H11N4O+
216.0776	24	C11H10N3O2+
216.0997	27	C11H12N4O+
217.0608	17	C11H9N2O3+
217.1078	35	C11H13N4O+
219.0761	25	C11H11N2O3+
229.1085	525	C12H13N4O+
230.116	170	C12H14N4O+
231.0873	85	C11H11N4O2+
232.0955	284	C11H12N4O2+
233.1034	524	C11H13N4O2+
244.0726	10	C12H10N3O3+
245.1034	413	C12H13N4O2+
246.1101	13	C12H14N4O2+
247.0829	132	C11H11N4O3+
247.1194	78	C12H15N4O2+
257.1035	608	C13H13N4O2+
259.0823	128	C12H11N4O3+
261.0983	652	C12H13N4O3+
275.1139	418	C13H15N4O3+
