Mass spectrum: Sebuthylazine; LC-ESI-ITFT; MS2; CE: 60%; R=15000; [M+H]+
Name: Sebuthylazine
Name: 2-N-butan-2-yl-6-chloro-4-N-ethyl-1,3,5-triazine-2,4-diamine
Formula: C9H16ClN5
Exact mass: 229.1094
SMILES: n1c(nc(Cl)nc1NCC)NC(CC)C
InChI: InChI=1S/C9H16ClN5/c1-4-6(3)12-9-14-7(10)13-8(15-9)11-5-2/h6H,4-5H2,1-3H3,(H2,11,12,13,14,15)
Instrument: LTQ Orbitrap XL Thermo Scientific
Instrument type: LC-ESI-ITFT
Ms type: MS2
Ion mode: POSITIVE
Ionization: ESI
Fragmentation mode: HCD
Collision energy: 60 % (nominal)
Resolution: 15000
Column name: XBridge C18 3.5um, 2.1x50mm, Waters
Retention time: 9.8 min
Base peak: 230.1171
Precursor m/z: 230.1167
Precursor type: [M+H]+
m/z	relative intensity	assigned
68.0243	136	C2H2N3+
71.0604	31	C3H7N2+
79.0058	139	CH4ClN2+
96.0556	143	C4H6N3+
104.001	158	C2H3ClN3+
132.0323	178	C4H7ClN3+
138.0775	46	C5H8N5+
146.0227	211	C3H5ClN5+
174.054	999	C5H9ClN5+
188.0698	24	C6H11ClN5+
230.1162	100	C9H17ClN5+
