Mass spectrum: Flecainide; LC-ESI-QFT; MS2; CE: 30; R=35000; [M+H]+
Name: Flecainide
Name: N-(2-piperidinylmethyl)-2,5-bis(2,2,2-trifluoroethoxy)benzamide
Formula: C17H20F6N2O3
Exact mass: 414.13781
SMILES: C1CCNC(C1)CNC(=O)C2=C(C=CC(=C2)OCC(F)(F)F)OCC(F)(F)F
InChI: InChI=1S/C17H20F6N2O3/c18-16(19,20)9-27-12-4-5-14(28-10-17(21,22)23)13(7-12)15(26)25-8-11-3-1-2-6-24-11/h4-5,7,11,24H,1-3,6,8-10H2,(H,25,26)
Instrument: Q Exactive Orbitrap Thermo Scientific
Instrument type: LC-ESI-QFT
Ms type: MS2
Ion mode: POSITIVE
Ionization: ESI
Fragmentation mode: HCD
Collision energy: 30 (nominal)
Resolution: 35000
Column name: XBridge C18 3.5um, 2.1x50mm, Waters
Retention time: 6.7 min
Base peak: 415.1452
Precursor m/z: 415.1451
Precursor type: [M+H]+
m/z	relative intensity	assigned
79.0542	4	C6H7+
81.0699	41	C6H9+
82.0652	2	C5H8N+
84.0808	12	C5H10N+
98.0964	204	C6H12N+
232.0968	3	C13H14NO3+
301.0295	85	C14H6F5O2+
315.1074	3	C15H16F3NO3+
318.0558	4	C11H10F6NO3+
397.1342	3	C17H19F6N2O2+
398.1186	999	C17H18F6NO3+
415.1451	688	C17H21F6N2O3+
