Mass spectrum: Ethofumesate; LC-ESI-ITFT; MS2; CE: 35%; R=7500; [M+H]+
Name: Ethofumesate
Name: (2-ethoxy-3,3-dimethyl-2H-1-benzofuran-5-yl) methanesulfonate
Formula: C13H18O5S
Exact mass: 286.0869
SMILES: S(=O)(=O)(C)O-c(ccc1O2)cc1C(C2OCC)(C)C
InChI: InChI=1S/C13H18O5S/c1-5-16-12-13(2,3)10-8-9(18-19(4,14)15)6-7-11(10)17-12/h6-8,12H,5H2,1-4H3
Instrument: LTQ Orbitrap XL Thermo Scientific
Instrument type: LC-ESI-ITFT
Ms type: MS2
Ion mode: POSITIVE
Ionization: ESI
Fragmentation mode: CID
Collision energy: 35 % (nominal)
Resolution: 7500
Column name: XBridge C18 3.5um, 2.1x50mm, Waters
Retention time: 10.0 min
Base peak: 309.0774
Precursor m/z: 287.0948
Precursor type: [M+H]+
m/z	relative intensity	assigned
121.0649	110	C8H9O+
149.0962	19	C10H13O+
161.0595	2	C10H9O2+
162.0674	1	C10H10O2+
163.0755	63	C10H11O2+
191.1069	2	C12H15O2+
241.0531	149	C11H13O4S+
259.0638	999	C11H15O5S+
269.0853	1	C13H17O4S+
