Mass spectrum: Phenylephrine; LC-ESI-QFT; MS2; CE: 90; R=35000; [M+H]+
Name: Phenylephrine
Name: 3-[(1R)-1-hydroxy-2-(methylamino)ethyl]phenol
Formula: C9H13NO2
Exact mass: 167.09463
SMILES: CNC[C@@H](C1=CC(=CC=C1)O)O
InChI: InChI=1S/C9H13NO2/c1-10-6-9(12)7-3-2-4-8(11)5-7/h2-5,9-12H,6H2,1H3/t9-/m0/s1
Instrument: Q Exactive Orbitrap Thermo Scientific
Instrument type: LC-ESI-QFT
Ms type: MS2
Ion mode: POSITIVE
Ionization: ESI
Fragmentation mode: HCD
Collision energy: 90 (nominal)
Resolution: 35000
Column name: XBridge C18 3.5um, 2.1x50mm, Waters
Retention time: 0.9 min
Base peak: 150.0914
Precursor m/z: 168.1019
Precursor type: [M+H]+
m/z	relative intensity	assigned
53.0387	1	C4H5+
56.0495	18	C3H6N+
57.0573	39	C3H7N+
65.0386	109	C5H5+
66.0464	8	C5H6+
67.0417	7	C4H5N+
67.0542	6	C5H7+
77.0385	26	C6H5+
79.0542	123	C6H7+
80.0495	17	C5H6N+
80.062	13	C6H8+
81.0699	143	C6H9+
82.065	2	C5H8N+
89.0385	7	C7H5+
90.0464	28	C7H6+
91.0542	999	C7H7+
92.0495	14	C6H6N+
93.0698	27	C7H9+
94.0413	139	C6H6O+
94.065	7	C6H8N+
95.0491	94	C6H7O+
102.0465	2	C8H6+
103.0542	57	C8H7+
104.062	1	C8H8+
105.0448	42	C6H5N2+
105.0699	10	C8H9+
106.0652	70	C7H8N+
107.0491	579	C7H7O+
107.0729	32	C7H9N+
108.057	116	C7H8O+
108.0807	8	C7H10N+
109.0648	235	C7H9O+
110.0599	12	C6H8NO+
111.044	9	C6H7O2+
115.0542	2	C9H7+
116.0494	2	C8H6N+
117.0572	104	C8H7N+
118.0412	45	C8H6O+
118.0651	151	C8H8N+
119.0491	30	C8H7O+
119.0603	9	C7H7N2+
120.0443	124	C7H6NO+
120.0569	7	C8H8O+
121.0396	8	C6H5N2O+
121.0647	30	C8H9O+
122.0963	2	C8H12N+
130.0651	10	C9H8N+
131.0728	5	C9H9N+
132.0808	21	C9H10N+
133.0523	6	C8H7NO+
133.0883	10	C9H11N+
134.06	376	C8H8NO+
135.0678	455	C8H9NO+
144.0557	2	C8H6N3+
148.0757	10	C9H10NO+
149.0835	15	C9H11NO+
150.0914	44	C9H12NO+
