Mass spectrum: Trospium; LC-ESI-QFT; MS2; CE: 75; R=35000; [M]+
Name: Trospium
Name: spiro[8-azoniabicyclo[3.2.1]octane-8,1`-azolidin-1-ium]-3-yl 2-hydroxy-2,2-diphenylacetate
Formula: [C25H30NO3]+
Exact mass: 392.22257
SMILES: OC(C(=O)OC1CC2CCC(C1)[N+]21CCCC1)(C1=CC=CC=C1)C1=CC=CC=C1
InChI: InChI=1S/C25H30NO3/c27-24(25(28,19-9-3-1-4-10-19)20-11-5-2-6-12-20)29-23-17-21-13-14-22(18-23)26(21)15-7-8-16-26/h1-6,9-12,21-23,28H,7-8,13-18H2/q+1
Instrument: Q Exactive Orbitrap Thermo Scientific
Instrument type: LC-ESI-QFT
Ms type: MS2
Ion mode: POSITIVE
Ionization: ESI
Fragmentation mode: HCD
Collision energy: 75 (nominal)
Resolution: 35000
Column name: XBridge C18 3.5um, 2.1x50mm, Waters
Retention time: 6.1 min
Base peak: 392.2208
Precursor m/z: 392.222
Precursor type: [M]+
m/z	relative intensity	assigned
79.0541	1	C6H7+
81.057	1	C5H7N+
81.0696	3	C6H9+
82.0648	3	C5H8N+
83.0727	1	C5H9N+
83.0852	1	C6H11+
84.0805	13	C5H10N+
91.0539	73	C7H7+
93.0695	174	C7H9+
95.0488	34	C6H7O+
95.0852	83	C7H11+
96.0804	18	C6H10N+
97.0883	57	C6H11N+
98.0961	35	C6H12N+
100.0753	1	C5H10NO+
105.0331	13	C7H5O+
105.0444	7	C6H5N2+
108.0804	10	C7H10N+
110.096	15	C7H12N+
111.08	3	C7H11O+
120.0803	7	C8H10N+
121.0882	1	C8H11N+
122.0959	27	C8H12N+
123.1037	17	C8H13N+
124.1116	1	C8H14N+
134.0959	3	C9H12N+
135.1036	1	C9H13N+
136.1116	16	C9H14N+
137.1195	1	C9H15N+
138.1272	77	C9H16N+
150.1271	6	C10H16N+
162.1272	1	C11H16N+
164.1429	431	C11H18N+
165.1504	1	C11H19N+
182.1533	999	C11H20NO+
183.0799	1	C13H11O+
