Mass spectrum: Uvinul-LR; LC-ESI-QFT; MS2; CE: 30%; R=17500; [M-H]-
Name: Uvinul-LR
Name: 2-ethoxyethyl 2-cyano-2-[3-(3-methoxypropylamino)cyclohex-2-en-1-ylidene]acetate
Formula: C17H26N2O4
Exact mass: 322.1893
SMILES: CCOCCOC(=O)C(=C1CCCC(=C1)NCCCOC)C#N
InChI: InChI=1S/C17H26N2O4/c1-3-22-10-11-23-17(20)16(13-18)14-6-4-7-15(12-14)19-8-5-9-21-2/h12,19H,3-11H2,1-2H3
Instrument: Exploris 240 Orbitrap Thermo Scientific
Instrument type: LC-ESI-QFT
Ms type: MS2
Ion mode: NEGATIVE
Ionization: ESI
Fragmentation mode: HCD
Collision energy: 30 % (nominal)
Resolution: 17500
Column name: XBridge C18 3.5um, 2.1x50mm, Waters
Retention time: 6.732 min
Base peak: 321.1817
Precursor m/z: 321.182
Precursor type: [M-H]-
m/z	relative intensity	assigned
204.1267	27	C12H16N2O-
205.1343	11	C12H17N2O-
231.114	16	C13H15N2O2-
249.1254	2	C13H17N2O3-
262.1315	1	C14H18N2O3-
321.1819	999	C17H25N2O4-
