Mass spectrum: 3,4-Methylenedioxy-N-methylamphetamine (MDMA); LC-ESI-QFT; MS2; CE: 30; R=35000; [M+H]+
Name: 3,4-Methylenedioxy-N-methylamphetamine (MDMA)
Name: N-Methyl-3,4-methylenedioxyamphetamine
Name: 1-(1,3-benzodioxol-5-yl)-N-methylpropan-2-amine
Formula: C11H15NO2
Exact mass: 193.11028
SMILES: CC(CC1=CC2=C(C=C1)OCO2)NC
InChI: InChI=1S/C11H15NO2/c1-8(12-2)5-9-3-4-10-11(6-9)14-7-13-10/h3-4,6,8,12H,5,7H2,1-2H3
Instrument: Q Exactive Plus Orbitrap Thermo Scientific
Instrument type: LC-ESI-QFT
Ms type: MS2
Ion mode: POSITIVE
Ionization: ESI
Fragmentation mode: HCD
Collision energy: 30 (nominal)
Resolution: 35000
Column name: XBridge C18 3.5um, 2.1x50mm, Waters
Retention time: 3.6 min
Base peak: 194.117
Precursor m/z: 194.1176
Precursor type: [M+H]+
m/z	relative intensity	assigned
58.0651	57	C3H8N+
77.0384	1	C6H5+
105.0698	22	C8H9+
133.0647	67	C9H9O+
135.0439	67	C8H7O2+
137.0595	2	C8H9O2+
151.0753	2	C9H11O2+
163.0751	999	C10H11O2+
194.1174	131	C11H16NO2+
