Mass spectrum: Isoxaflutole; LC-ESI-QFT; MS2; CE: 120; R=35000; [M+H]+
Name: Isoxaflutole
Name: (5-cyclopropyl-1,2-oxazol-4-yl)-[2-methylsulfonyl-4-(trifluoromethyl)phenyl]methanone
Formula: C15H12F3NO4S
Exact mass: 359.04391
SMILES: O=C(c1c(onc1)C2CC2)c3ccc(cc3S(=O)(=O)C)C(F)(F)F
InChI: InChI=1S/C15H12F3NO4S/c1-24(21,22)12-6-9(15(16,17)18)4-5-10(12)13(20)11-7-19-23-14(11)8-2-3-8/h4-8H,2-3H2,1H3
Instrument: Q Exactive Plus Orbitrap Thermo Scientific
Instrument type: LC-ESI-QFT
Ms type: MS2
Ion mode: POSITIVE
Ionization: ESI
Fragmentation mode: HCD
Collision energy: 120 (nominal)
Resolution: 35000
Column name: XBridge C18 3.5um, 2.1x50mm, Waters
Retention time: 8.7 min
Base peak: 360.0506
Precursor m/z: 360.0512
Precursor type: [M+H]+
m/z	relative intensity	assigned
50.0151	48	C4H2+
51.0041	17	CHF2+
51.023	22	C4H3+
53.0023	33	C3HO+
53.0386	20	C4H5+
53.9975	7	C2NO+
55.0179	2	C3H3O+
57.0136	96	C3H2F+
57.9873	6	C2H2S+
58.995	11	C2H3S+
59.0292	12	C3H4F+
59.9665	37	COS+
61.0073	7	C5H+
62.0151	37	C5H2+
62.97	25	CFS+
62.99	134	CH3OS+
63.023	407	C5H3+
65.0386	14	C5H5+
66.0464	20	C5H6+
67.018	2	C4H3O+
67.9893	7	C3O2+
68.0057	11	C4HF+
68.9794	169	C3HS+
68.9947	43	CF3+
69.0136	10	C4H2F+
69.0335	27	C4H5O+
70.0214	287	C4H3F+
70.995	12	C3H3S+
71.0292	29	C4H4F+
74.0151	55	C6H2+
75.0041	149	C3HF2+
75.0229	822	C6H3+
77.0021	16	C5HO+
77.0197	12	C3H3F2+
77.0386	22	C6H5+
78.0464	17	C6H6+
78.9849	19	CH3O2S+
79.0179	122	C5H3O+
80.0257	10	C5H4O+
80.0494	2	C5H6N+
81.0136	36	C5H2F+
81.0335	6	C5H5O+
81.9872	19	C4H2S+
82.0026	11	C2HF3+
82.0213	23	C5H3F+
83.0292	394	C5H4F+
84.0029	7	C4H4S+
84.0371	3	C5H5F+
86.9701	2	C3FS+
87.023	7	C7H3+
87.9778	8	C3HFS+
88.012	16	C4H2F2+
88.9856	8	C3H2FS+
89.0199	7	C4H3F2+
89.0386	52	C7H5+
90.0465	8	C7H6+
90.9991	27	C3HF2O+
92.0257	6	C6H4O+
92.9795	11	C5HS+
92.9948	6	C3F3+
93.0136	21	C6H2F+
94.0214	283	C6H3F+
94.9951	616	C5H3S+
95.0492	61	C6H7O+
96.0029	16	C5H4S+
96.037	26	C6H5F+
97.0083	11	C5H2FO+
97.0109	50	C5H5S+
97.0449	6	C6H6F+
98.0151	25	C8H2+
99.0041	25	C5HF2+
99.023	121	C8H3+
100.0121	22	C5H2F2+
101.0198	967	C5H3F2+
101.9934	9	C4H3FS+
102.0276	4	C5H4F2+
102.0466	2	C8H6+
103.0355	3	C5H5F2+
105.0137	1	C7H2F+
105.0339	2	C7H5O+
105.0448	31	C6H5N2+
106.0025	3	C4HF3+
106.9762	9	C3HF2S+
107.0102	3	C4H2F3+
107.0292	21	C7H4F+
108.0029	80	C6H4S+
109.0449	394	C7H6F+
110.0161	56	C6H3FO+
111.0243	14	C6H4FO+
112.012	42	C6H2F2+
112.032	182	C6H5FO+
112.9857	19	C5H2FS+
113.0198	119	C6H3F2+
113.0398	20	C6H6FO+
113.9935	129	C5H3FS+
114.0277	55	C6H4F2+
115.0014	181	C5H4FS+
115.0355	14	C6H5F2+
117.0143	2	C5H3F2O+
118.0026	10	C5HF3+
119.0105	194	C5H2F3+
119.0294	22	C8H4F+
120.0182	359	C5H3F3+
121.0261	56	C5H4F3+
123.0047	6	C4H2F3O+
123.0354	51	C3H9NO2S+
124.0122	23	C7H2F2+
124.0183	2	C9H2N+
125.0199	999	C7H3F2+
125.9934	13	C6H3FS+
127.0355	281	C7H5F2+
128.0071	8	C6H2F2O+
128.0269	20	C6H5FO2+
128.0621	8	C10H8+
129.0144	43	C6H3F2O+
130.0227	8	C6H4F2O+
131.0304	20	C6H5F2O+
132.0183	694	C6H3F3+
132.9921	23	C7HO3+
133.0261	66	C6H4F3+
133.0452	7	C9H6F+
134.0339	16	C6H5F3+
136.967	2	C4F3S+
138.0276	2	C8H4F2+
139.0013	18	C7H4FS+
139.0355	2	C8H5F2+
139.0542	6	C11H7+
140.0495	3	C10H6N+
141.0148	209	C7H3F2O+
141.026	208	C3H8FNO2S+
142.0228	27	C7H4F2O+
143.0105	845	C7H2F3+
143.0303	96	C7H5F2O+
143.9841	51	C8O3+
144.0183	344	C7H3F3+
144.9919	28	C6H3F2S+
145.0261	222	C7H4F3+
145.9834	18	C5H3FO2S+
146.0333	2	C7H5F3+
147.0071	7	C6H5F2S+
147.0252	2	C6H5F2O2+
147.0354	25	C2H10FNO3S+
148.0133	2	C6H3F3O+
149.021	26	C6H4F3O+
151.0355	7	C9H5F2+
154.0655	2	C11H8N+
156.992	193	C9HO3+
158.034	2	C8H5F3+
159.0052	15	C7H2F3O+
159.0253	18	C7H5F2O2+
160.0132	94	C7H3F3O+
161.021	97	C7H4F3O+
162.0289	351	C7H5F3O+
162.9825	22	C8FO3+
163.9903	217	C8HFO3+
164.9982	25	C8H2FO3+
165.0265	2	C2H9F2NO3S+
169.026	3	C9H4F3+
172.0132	44	C8H3F3O+
172.0244	57	C4H8F2NO2S+
173.021	4	C8H4F3O+
173.0323	7	C4H9F2NO2S+
174.0164	91	C7H3F3NO+
174.9827	12	C9FO3+
175.0367	2	C8H6F3O+
175.9905	11	C9HFO3+
176.0082	127	C7H3F3O2+
177.0159	20	C7H4F3O2+
179.0138	8	C7H6F3S+
189.0156	3	C8H4F3O2+
192.0269	12	C7H5F3NO2+
194.0187	22	C7H5F3O3+
195.0266	26	C7H6F3O3+
195.9804	20	C6H3F3O2S+
203.9855	2	C10HFO4+
204.0142	23	C4H8F2NO4S+
204.9933	18	C10H2FO4+
219.9805	15	C8H3F3O2S+
