Mass spectrum: Marbofloxacin; LC-ESI-QFT; MS2; CE: 75; R=35000; [M+H]+
Name: Marbofloxacin
Name: 9-Fluoro-3-methyl-10-(4-methyl-1-piperazinyl)-7-oxo-2,3-dihydro-7H-[1,3,4]oxadiazino[6,5,4-ij]quinoline-6-carboxylic acid
Formula: C17H19FN4O4
Exact mass: 362.13903
SMILES: CN1CCN(CC1)C2=C(C=C3C4=C2OCN(N4C=C(C3=O)C(=O)O)C)F
InChI: InChI=1S/C17H19FN4O4/c1-19-3-5-21(6-4-19)14-12(18)7-10-13-16(14)26-9-20(2)22(13)8-11(15(10)23)17(24)25/h7-8H,3-6,9H2,1-2H3,(H,24,25)
Instrument: Q Exactive Plus Orbitrap Thermo Scientific
Instrument type: LC-ESI-QFT
Ms type: MS2
Ion mode: POSITIVE
Ionization: ESI
Fragmentation mode: HCD
Collision energy: 75 (nominal)
Resolution: 35000
Column name: XBridge C18 3.5um, 2.1x50mm, Waters
Retention time: 3.7 min
Base peak: 363.1454
Precursor m/z: 363.1463
Precursor type: [M+H]+
m/z	relative intensity	assigned
56.0495	48	C3H6N+
57.0573	49	C3H7N+
58.0651	8	C3H8N+
68.0495	2	C4H6N+
69.0573	1	C4H7N+
70.0651	296	C4H8N+
71.0729	8	C4H9N+
72.0807	999	C4H10N+
82.0651	6	C5H8N+
84.0807	1	C5H10N+
85.076	11	C4H9N2+
89.0385	1	C7H5+
102.0338	1	C7H4N+
103.0542	3	C8H7+
107.0292	4	C7H4F+
109.0449	9	C7H6F+
116.0494	6	C8H6N+
122.0401	71	C7H5FN+
123.0352	2	C6H4FN2+
128.0494	5	C9H6N+
129.0447	16	C8H5N2+
130.04	1	C7H4N3+
130.0651	13	C9H8N+
132.0243	1	C8H3FN+
133.0447	2	C9H6F+
134.0401	9	C8H5FN+
134.06	4	C8H8NO+
135.0239	1	C8H4FO+
135.048	6	C8H6FN+
136.0557	33	C8H7FN+
138.035	5	C7H5FNO+
140.0492	1	C5H5FN4+
143.0602	1	C9H7N2+
144.0444	8	C9H6NO+
146.0398	1	C9H5FN+
147.0353	2	C8H4FN2+
147.0476	2	C9H6FN+
148.0557	23	C9H7FN+
149.051	7	C8H6FN2+
150.0351	20	C8H5FNO+
151.0428	1	C8H6FNO+
153.0456	1	C7H6FN2O+
155.0602	2	C10H7N2+
156.0444	3	C10H6NO+
156.068	2	C10H8N2+
157.0397	56	C9H5N2O+
158.0237	12	C9H4NO2+
158.0601	14	C10H8NO+
159.0355	3	C9H4FN2+
160.0557	3	C10H7FN+
162.0351	13	C9H5FNO+
163.0303	7	C8H4FN2O+
163.0426	11	C9H6FNO+
164.0506	60	C9H7FNO+
165.0456	1	C8H6FN2O+
167.0601	1	C11H7N2+
169.0757	2	C11H9N2+
171.0554	10	C10H7N2O+
173.0507	2	C10H6FN2+
174.0351	4	C10H5FNO+
175.0299	1	C9H4FN2O+
175.0426	1	C10H6FNO+
175.0499	1	C9H7N2O2+
176.0506	16	C10H7FNO+
177.0462	2	C9H6FN2O+
177.0584	5	C10H8FNO+
178.0299	26	C9H5FNO2+
178.066	2	C10H9FNO+
179.0254	3	C8H4FN2O2+
179.0373	2	C9H6FNO2+
180.0456	4	C9H7FNO2+
183.0555	2	C11H7N2O+
184.0633	2	C11H8N2O+
185.0347	18	C10H5N2O2+
185.0711	8	C11H9N2O+
186.0348	1	C11H5FNO+
186.0547	3	C6H7FN4O2+
187.0298	2	C10H4FN2O+
187.0664	1	C11H8FN2+
188.0506	5	C11H7FNO+
189.0458	3	C10H6FN2O+
190.0295	2	C10H5FNO2+
190.0537	6	C10H7FN2O+
191.0377	15	C10H6FNO2+
191.0612	2	C10H8FN2O+
192.0455	33	C10H7FNO2+
193.0171	8	C9H4FNO3+
198.0657	2	C11H8N3O+
203.025	5	C10H4FN2O2+
204.0332	1	C10H5FN2O2+
204.0457	34	C11H7FNO2+
205.0404	58	C10H6FN2O2+
205.0528	11	C11H8FNO2+
206.0242	1	C10H5FNO3+
206.0613	9	C11H9FNO2+
211.0739	2	C12H9N3O+
212.0578	2	C12H8N2O2+
213.0661	5	C12H9N2O2+
215.0615	3	C12H8FN2O+
216.0452	2	C12H7FNO2+
218.0241	1	C11H5FNO3+
218.0485	3	C11H7FN2O2+
219.0561	2	C11H8FN2O2+
231.02	5	C11H4FN2O3+
231.0563	4	C12H8FN2O2+
231.0803	4	C12H10FN3O+
236.0352	4	C11H7FNO4+
244.0509	2	C12H7FN3O2+
248.035	1	C12H7FNO4+
249.0307	8	C11H6FN2O4+
254.0554	1	C13H8N3O3+
259.0504	1	C16H7N2O2+
272.0466	8	C13H7FN3O3+
