Mass spectrum: Alfuzosin; LC-ESI-QFT; MS2; CE: 120; R=35000; [M-H]-
Name: Alfuzosin
Name: N-{3-[(4-Amino-6,7-dimethoxy-2-quinazolinyl)(methyl)amino]propyl}tetrahydro-2-furancarboxamide
Name: N-[3-[(4-amino-6,7-dimethoxyquinazolin-2-yl)-methylamino]propyl]oxolane-2-carboxamide
Formula: C19H27N5O4
Exact mass: 389.20630
SMILES: CN(CCCNC(=O)C1CCCO1)C2=NC3=CC(=C(C=C3C(=N2)N)OC)OC
InChI: InChI=1S/C19H27N5O4/c1-24(8-5-7-21-18(25)14-6-4-9-28-14)19-22-13-11-16(27-3)15(26-2)10-12(13)17(20)23-19/h10-11,14H,4-9H2,1-3H3,(H,21,25)(H2,20,22,23)
Instrument: Q Exactive Plus Orbitrap Thermo Scientific
Instrument type: LC-ESI-QFT
Ms type: MS2
Ion mode: NEGATIVE
Ionization: ESI
Fragmentation mode: HCD
Collision energy: 120 (nominal)
Resolution: 35000
Column name: XBridge C18 3.5um, 2.1x50mm, Waters
Retention time: 5.3 min
Base peak: 434.2043
Precursor m/z: 388.199
Precursor type: [M-H]-
m/z	relative intensity	assigned
50.0036	57	C3N-
55.0302	771	C2H3N2-
62.0037	2	C4N-
63.0115	1	C4HN-
64.0067	14	C3N2-
64.0193	38	C4H2N-
65.0145	346	C3HN2-
65.9986	594	C3NO-
66.0098	207	C2N3-
67.0302	614	C3H3N2-
68.0142	19	C3H2NO-
69.0095	2	C2HN2O-
69.0346	2	C4H5O-
72.0092	30	C2H2NO2-
74.0037	11	C5N-
76.0193	71	C5H2N-
77.0146	175	C4HN2-
78.0224	2	C4H2N2-
78.0349	3	C5H4N-
79.0301	9	C4H3N2-
81.0458	18	C4H5N2-
84.0455	77	C4H6NO-
88.0066	1	C5N2-
88.0194	2	C6H2N-
89.0145	97	C5HN2-
89.9985	81	C5NO-
90.0097	103	C4N3-
90.0223	17	C5H2N2-
90.0349	32	C6H4N-
91.0302	50	C5H3N2-
92.0142	123	C5H2NO-
92.0254	10	C4H2N3-
93.0094	45	C4HN2O-
94.0298	27	C5H4NO-
95.0252	2	C4H3N2O-
96.0455	2	C5H6NO-
96.0568	3	C4H6N3-
101.0146	2	C6HN2-
102.0097	1	C5N3-
102.0224	19	C6H2N2-
103.0064	8	C6HNO-
103.0302	6	C6H3N2-
104.0016	3	C5N2O-
104.0142	9	C6H2NO-
104.038	8	C6H4N2-
105.022	22	C6H3NO-
105.0334	11	C5H3N3-
105.0458	66	C6H5N2-
106.0172	29	C5H2N2O-
106.03	10	C6H4NO-
106.041	12	C5H4N3-
107.0251	15	C5H3N2O-
107.0364	3	C4H3N4-
107.0613	1	C6H7N2-
114.0561	9	C5H8NO2-
115.0302	15	C7H3N2-
116.0255	64	C6H2N3-
117.0095	47	C6HN2O-
117.0459	5	C7H5N2-
118.0173	10	C6H2N2O-
118.0299	37	C7H4NO-
118.0411	44	C6H4N3-
119.0251	999	C6H3N2O-
120.0091	12	C6H2NO2-
120.0204	27	C5H2N3O-
120.0329	181	C6H4N2O-
121.0283	5	C5H3N3O-
121.0408	35	C6H5N2O-
122.036	3	C5H4N3O-
129.0333	12	C7H3N3-
130.0172	221	C7H2N2O-
130.0411	15	C7H4N3-
131.0251	39	C7H3N2O-
131.0363	6	C6H3N4-
132.0203	7	C6H2N3O-
132.0329	70	C7H4N2O-
132.0567	12	C7H6N3-
133.0282	42	C6H3N3O-
133.0407	127	C7H5N2O-
134.0121	2	C6H2N2O2-
134.0247	3	C7H4NO2-
134.0359	5	C6H4N3O-
135.0203	2	C6H3N2O2-
142.041	5	C8H4N3-
143.025	21	C8H3N2O-
143.0363	10	C7H3N4-
144.0204	933	C7H2N3O-
145.0282	556	C7H3N3O-
145.0519	39	C7H5N4-
146.0124	13	C7H2N2O2-
146.036	242	C7H4N3O-
147.0201	72	C7H3N2O2-
147.0438	45	C7H5N3O-
147.0678	9	C7H7N4-
148.0279	42	C7H4N2O2-
148.0517	31	C7H6N3O-
149.0357	6	C7H5N2O2-
152.0227	2	C6H4N2O3-
157.0281	25	C8H3N3O-
157.052	10	C8H5N4-
158.0123	41	C8H2N2O2-
158.036	70	C8H4N3O-
158.0598	9	C8H6N4-
159.0206	10	C8H3N2O2-
159.0312	27	C7H3N4O-
159.044	11	C8H5N3O-
159.0566	3	C9H7N2O-
159.0674	9	C8H7N4-
160.0517	186	C8H6N3O-
161.0357	5	C8H5N2O2-
161.0467	12	C7H5N4O-
161.0595	9	C8H7N3O-
162.0545	2	C7H6N4O-
171.0313	24	C8H3N4O-
171.0677	2	C9H7N4-
172.0154	10	C8H2N3O2-
172.0392	37	C8H4N4O-
172.0515	32	C9H6N3O-
173.023	12	C8H3N3O2-
173.0468	232	C8H5N4O-
173.0832	60	C9H9N4-
174.0308	19	C8H4N3O2-
174.0547	123	C8H6N4O-
175.0625	57	C8H7N4O-
176.0463	2	C8H6N3O2-
176.0702	2	C8H8N4O-
184.0519	8	C10H6N3O-
185.0468	45	C9H5N4O-
186.0309	7	C9H4N3O2-
186.0547	26	C9H6N4O-
186.0671	10	C10H8N3O-
187.0263	14	C8H3N4O2-
187.0625	93	C9H7N4O-
188.0342	9	C8H4N4O2-
188.0466	14	C9H6N3O2-
188.0703	14	C9H8N4O-
191.0341	1	C8H5N3O3-
198.0552	1	C10H6N4O-
199.0262	9	C9H3N4O2-
199.0625	18	C10H7N4O-
200.0347	2	C9H4N4O2-
200.0466	2	C10H6N3O2-
201.0419	68	C9H5N4O2-
201.0783	63	C10H9N4O-
202.0494	8	C9H6N4O2-
202.0861	9	C10H10N4O-
203.0573	8	C9H7N4O2-
213.0418	10	C10H5N4O2-
214.0506	1	C12H8NO3-
215.0573	2	C10H7N4O2-
219.0522	2	C9H7N4O3-
