Mass spectrum: Alachlor; LC-ESI-ITFT; MS2; CE: 75%; R=15000; [M+H]+
Name: Alachlor
Name: 2-chloranyl-N-(2,6-diethylphenyl)-N-(methoxymethyl)ethanamide
Formula: C14H20ClNO2
Exact mass: 269.1177
SMILES: CCC1=CC=CC(CC)=C1N(COC)C(=O)CCl
InChI: InChI=1S/C14H20ClNO2/c1-4-11-7-6-8-12(5-2)14(11)16(10-18-3)13(17)9-15/h6-8H,4-5,9-10H2,1-3H3
Instrument: LTQ Orbitrap XL Thermo Scientific
Instrument type: LC-ESI-ITFT
Ms type: MS2
Ion mode: POSITIVE
Ionization: ESI
Fragmentation mode: HCD
Collision energy: 75 % (nominal)
Resolution: 15000
Column name: XBridge C18 3.5um, 2.1x50mm, Waters
Retention time: 11.7 min
Base peak: 292.1079
Precursor m/z: 270.1255
Precursor type: [M+H]+
m/z	relative intensity	assigned
90.0104	122	C3H5ClN+
105.0699	65	C8H9+
118.0648	37	C8H8N+
119.0726	39	C8H9N+
119.0853	21	C9H11+
120.0806	28	C8H10N+
130.0651	31	C9H8N+
132.0807	292	C9H10N+
133.0886	71	C9H11N+
134.0965	53	C9H12N+
144.0808	44	C10H10N+
146.0964	231	C10H12N+
147.1042	999	C10H13N+
158.096	38	C11H12N+
161.1194	26	C11H15N+
162.1277	662	C11H16N+
163.1116	117	C11H15O+
170.0964	34	C12H12N+
171.104	31	C12H13N+
184.1121	21	C13H14N+
