Mass spectrum: N4-Acetylsulfamethazine; LC-ESI-ITFT; MS2; CE: 30%; R=15000; [M-H]-
Name: N4-Acetylsulfamethazine
Name: N-[4-[(4,6-dimethyl-2-pyrimidinyl)sulfamoyl]phenyl]acetamide
Formula: C14H16N4O3S
Exact mass: 320.0943
SMILES: O=S(=O)(c1ccc(cc1)NC(=O)C)Nc1nc(cc(n1)C)C
InChI: InChI=1S/C14H16N4O3S/c1-9-8-10(2)16-14(15-9)18-22(20,21)13-6-4-12(5-7-13)17-11(3)19/h4-8H,1-3H3,(H,17,19)(H,15,16,18)
Instrument: LTQ Orbitrap XL Thermo Scientific
Instrument type: LC-ESI-ITFT
Ms type: MS2
Ion mode: NEGATIVE
Ionization: ESI
Fragmentation mode: HCD
Collision energy: 30 % (nominal)
Resolution: 15000
Column name: XBridge C18 3.5um, 2.1x50mm, Waters
Retention time: 4.6 min
Base peak: 319.0879
Precursor m/z: 319.087
Precursor type: [M-H]-
m/z	relative intensity	assigned
134.0611	999	C8H8NO-
164.0824	60	C8H10N3O-
205.0151	44	C11HN4O-
255.125	94	C14H15N4O-
319.0861	954	C14H15N4O3S-
