Mass spectrum: Diatrizoate; LC-ESI-ITFT; MS2; CE: 60%; R=7500; [M+H]+
Name: Diatrizoate
Name: Diatrizoic acid
Name: 3,5-diacetamido-2,4,6-triiodo-benzoic acid
Formula: C11H9I3N2O4
Exact mass: 613.7697
SMILES: CC(=O)NC1=C(I)C(C(O)=O)=C(I)C(NC(C)=O)=C1I
InChI: InChI=1S/C11H9I3N2O4/c1-3(17)15-9-6(12)5(11(19)20)7(13)10(8(9)14)16-4(2)18/h1-2H3,(H,15,17)(H,16,18)(H,19,20)
Instrument: LTQ Orbitrap XL Thermo Scientific
Instrument type: LC-ESI-ITFT
Ms type: MS2
Ion mode: POSITIVE
Ionization: ESI
Fragmentation mode: HCD
Collision energy: 60 % (nominal)
Resolution: 7500
Column name: XBridge C18 3.5um, 2.1x50mm, Waters
Retention time: 1.6 min
Base peak: 631.8031
Precursor m/z: 614.7769
Precursor type: [M+H]+
m/z	relative intensity	assigned
120.0448	27	C7H6NO+
146.0481	25	C8H6N2O+
148.0392	449	C8H6NO2+
148.0632	67	C8H8N2O+
149.0344	16	C7H5N2O2+
164.0579	13	C8H8N2O2+
174.0419	36	C9H6N2O2+
180.0526	96	C8H8N2O3+
187.0502	49	C10H7N2O2+
189.0659	96	C10H9N2O2+
191.0576	15	C10H9NO3+
192.0528	381	C9H8N2O3+
205.0599	20	C10H9N2O3+
215.0445	34	C11H7N2O3+
219.0396	82	C10H7N2O4+
220.0478	23	C10H8N2O4+
233.0556	999	C11H9N2O4+
318.9573	57	C9H8IN2O3+
