Mass spectrum: Thiophanate; LC-ESI-QFT; MS2; CE: 45%; R=17500; [M+H]+
Name: Thiophanate
Name: CID 31991
Name: N`-ethoxycarbonyl-N-[2-[(N-ethoxycarbonyl-C-sulfanylcarbonimidoyl)amino]phenyl]carbamimidothioic acid
Formula: C14H18N4O4S2
Exact mass: 370.0769
SMILES: CCOC(=O)NC(=S)NC1=CC=CC=C1NC(=S)NC(=O)OCC
InChI: InChI=1S/C14H18N4O4S2/c1-3-21-13(19)17-11(23)15-9-7-5-6-8-10(9)16-12(24)18-14(20)22-4-2/h5-8H,3-4H2,1-2H3,(H2,15,17,19,23)(H2,16,18,20,24)
Instrument: Exploris 240 Orbitrap Thermo Scientific
Instrument type: LC-ESI-QFT
Ms type: MS2
Ion mode: POSITIVE
Ionization: ESI
Fragmentation mode: HCD
Collision energy: 45 % (nominal)
Resolution: 17500
Column name: XBridge C18 3.5um, 2.1x50mm, Waters
Retention time: 7.280 min
Base peak: 295.0398
Precursor m/z: 371.0842
Precursor type: [M+H]+
m/z	relative intensity	assigned
59.9902	81	CH2NS+
62.0236	36	CH4NO2+
85.9694	57	C2NOS+
90.055	12	C3H8NO2+
93.0574	6	C6H7N+
103.9799	30	C2H2NO2S+
109.076	36	C6H9N2+
132.0113	8	C4H6NO2S+
135.0551	14	C7H7N2O+
149.0173	17	C7H5N2S+
151.0323	999	C7H7N2S+
160.0507	42	C8H6N3O+
176.0274	10	C8H6N3S+
178.061	25	C8H8N3O2+
192.9884	10	C8H5N2S2+
194.0383	11	C8H8N3OS+
206.0927	12	C10H12N3O2+
219.0332	17	C9H7N4OS+
235.9943	16	C9H6N3OS2+
