Mass spectrum: Sotalol; LC-ESI-ITFT; MS2; CE: 75%; R=7500; [M+H]+
Name: Sotalol
Name: N-[4-[1-hydroxy-2-(isopropylamino)ethyl]phenyl]methanesulfonamide
Formula: C12H20N2O3S
Exact mass: 272.1195
SMILES: CC(C)NCC(C1=CC=C(C=C1)NS(=O)(=O)C)O
InChI: InChI=1S/C12H20N2O3S/c1-9(2)13-8-12(15)10-4-6-11(7-5-10)14-18(3,16)17/h4-7,9,12-15H,8H2,1-3H3
Instrument: LTQ Orbitrap XL Thermo Scientific
Instrument type: LC-ESI-ITFT
Ms type: MS2
Ion mode: POSITIVE
Ionization: ESI
Fragmentation mode: HCD
Collision energy: 75 % (nominal)
Resolution: 7500
Column name: XBridge C18 3.5um, 2.1x50mm, Waters
Retention time: 1.6 min
Base peak: 273.1277
Precursor m/z: 273.1267
Precursor type: [M+H]+
m/z	relative intensity	assigned
79.0543	19	C6H7+
92.0492	2	C6H6N+
93.0574	12	C6H7N+
106.0652	289	C7H8N+
107.073	182	C7H9N+
116.0496	34	C8H6N+
117.0573	59	C8H7N+
118.0526	2	C7H6N2+
118.0651	53	C8H8N+
119.0604	25	C7H7N2+
132.0683	46	C8H8N2+
133.0761	999	C8H9N2+
134.0595	15	C8H8NO+
134.0839	226	C8H10N2+
144.0558	13	C2H12N2O3S+
176.1308	31	C11H16N2+
213.0699	24	C9H13N2O2S+
255.1223	6	C11H17N3O4+
