Mass spectrum: Chlorpyrifos-methyl; LC-ESI-ITFT; MS2; CE: 45%; R=15000; [M+H]+
Name: Chlorpyrifos-methyl
Name: dimethoxy-sulfanylidene-(3,5,6-trichloropyridin-2-yl)oxy-{5}-phosphane
Formula: C7H7Cl3NO3PS
Exact mass: 320.8950
SMILES: Clc1c(OP(=S)(OC)OC)nc(Cl)c(Cl)c1
InChI: InChI=1S/C7H7Cl3NO3PS/c1-12-15(16,13-2)14-7-5(9)3-4(8)6(10)11-7/h3H,1-2H3
Instrument: LTQ Orbitrap XL Thermo Scientific
Instrument type: LC-ESI-ITFT
Ms type: MS2
Ion mode: POSITIVE
Ionization: ESI
Fragmentation mode: HCD
Collision energy: 45 % (nominal)
Resolution: 15000
Column name: XBridge C18 3.5um, 2.1x50mm, Waters
Retention time: 14.0 min
Base peak: 321.9026
Precursor m/z: 321.9023
Precursor type: [M+H]+
m/z	relative intensity	assigned
62.0184	6	C2H6S+
78.9942	54	CH4O2P+
109.0048	13	C2H6O3P+
110.9663	10	CH4O2PS+
124.9819	999	C2H6O2PS+
127.0153	208	C3H8ClO3+
142.9925	871	C2H8O3PS+
197.9274	11	C5H3Cl3NO+
207.9386	3	C6H4Cl2NOS+
211.8886	21	C4HCl2NOPS+
211.9429	6	C6H5Cl3NO+
229.8992	42	C4H3Cl2NO2PS+
289.8758	274	C6H4Cl3NO2PS+
