Mass spectrum: Demeton-S-Methyl Sulfone; LC-ESI-QFT; MS2; CE: 60%; R=17500; [M+H]+
Name: Demeton-S-Methyl Sulfone
Name: Demeton-S-methylsulphon
Name: 1-dimethoxyphosphorylsulfanyl-2-ethylsulfonylethane
Formula: C6H15O5PS2
Exact mass: 262.0099
SMILES: CCS(=O)(=O)CCSP(=O)(OC)OC
InChI: InChI=1S/C6H15O5PS2/c1-4-14(8,9)6-5-13-12(7,10-2)11-3/h4-6H2,1-3H3
Instrument: Exploris 240 Orbitrap Thermo Scientific
Instrument type: LC-ESI-QFT
Ms type: MS2
Ion mode: POSITIVE
Ionization: ESI
Fragmentation mode: HCD
Collision energy: 60 % (nominal)
Resolution: 17500
Column name: XBridge C18 3.5um, 2.1x50mm, Waters
Retention time: 2.945 min
Base peak: 263.0169
Precursor m/z: 263.0171
Precursor type: [M+H]+
m/z	relative intensity	assigned
58.9951	17	C2H3S+
74.99	12	C2H3OS+
77.0056	20	C2H5OS+
78.9943	58	CH4O2P+
93.0004	84	C2H5O2S+
108.978	43	C2H5OS2+
109.0049	509	C2H6O3P+
110.9664	52	CH4O2PS+
121.0319	112	C4H9O2S+
124.9821	663	C2H6O2PS+
127.0155	999	C2H8O4P+
128.9768	33	CH6O3PS+
136.9821	17	C3H6O2PS+
142.9927	200	C2H8O3PS+
152.9768	16	C3H6O3PS+
154.993	9	C3H8O3PS+
169.0083	305	C4H10O3PS+
