Mass spectrum: Crotamiton; LC-ESI-QFT; MS2; CE: 60; R=35000; [M+H]+
Name: Crotamiton
Name: N-ethyl-N-(2-methylphenyl)but-2-enamide
Formula: C13H17NO
Exact mass: 203.13101
SMILES: O=C(N(c1ccccc1C)CC)C=CC
InChI: InChI=1S/C13H17NO/c1-4-8-13(15)14(5-2)12-10-7-6-9-11(12)3/h4,6-10H,5H2,1-3H3
Instrument: Q Exactive Plus Orbitrap Thermo Scientific
Instrument type: LC-ESI-QFT
Ms type: MS2
Ion mode: POSITIVE
Ionization: ESI
Fragmentation mode: HCD
Collision energy: 60 (nominal)
Resolution: 35000
Column name: XBridge C18 3.5um, 2.1x50mm, Waters
Retention time: 9.8 min
Base peak: 204.1383
Precursor m/z: 204.1383
Precursor type: [M+H]+
m/z	relative intensity	assigned
53.0022	7	C3HO+
53.9975	1	C2NO+
65.0386	1	C5H5+
68.0495	148	C4H6N+
69.0335	999	C4H5O+
79.0542	2	C6H7+
91.0543	46	C7H7+
93.0573	6	C6H7N+
93.07	3	C7H9+
96.0808	50	C6H10N+
97.0649	4	C6H9O+
105.07	8	C8H9+
106.0652	67	C7H8N+
107.0492	2	C7H7O+
107.073	39	C7H9N+
108.0808	108	C7H10N+
109.0648	12	C7H9O+
116.0495	8	C8H6N+
117.0572	4	C8H7N+
117.07	4	C9H9+
118.0652	5	C8H8N+
119.0605	9	C7H7N2+
119.0731	3	C8H9N+
119.0857	2	C9H11+
120.0808	2	C8H10N+
121.0887	56	C8H11N+
130.0652	6	C9H8N+
131.0855	2	C10H11+
132.0446	2	C8H6NO+
132.0809	3	C9H10N+
134.0601	198	C8H8NO+
134.0965	58	C9H12N+
136.1122	284	C9H14N+
143.073	8	C10H9N+
144.0804	2	C10H10N+
146.0602	1	C9H8NO+
146.0966	2	C10H12N+
148.112	3	C10H14N+
156.0813	1	C11H10N+
158.0965	45	C11H12N+
160.0759	4	C10H10NO+
161.0836	4	C10H11NO+
162.0914	12	C10H12NO+
162.1276	2	C11H16N+
171.1043	1	C12H13N+
174.0914	3	C11H12NO+
175.0993	1	C11H13NO+
176.1071	7	C11H14NO+
176.1436	3	C12H18N+
186.1277	4	C13H16N+
204.1385	70	C13H18NO+
