Mass spectrum: Naptalam; LC-ESI-QFT; MS2; CE: 90; R=35000; [M+H]+
Name: Naptalam
Name: 2-(1-naphthylcarbamoyl)benzoic acid
Formula: C18H13NO3
Exact mass: 291.08954
SMILES: O=C(O)c1ccccc1C(=O)Nc3cccc2ccccc23
InChI: InChI=1S/C18H13NO3/c20-17(14-9-3-4-10-15(14)18(21)22)19-16-11-5-7-12-6-1-2-8-13(12)16/h1-11H,(H,19,20)(H,21,22)
Instrument: Q Exactive Orbitrap Thermo Scientific
Instrument type: LC-ESI-QFT
Ms type: MS2
Ion mode: POSITIVE
Ionization: ESI
Fragmentation mode: HCD
Collision energy: 90 (nominal)
Resolution: 35000
Column name: XBridge C18 3.5um, 2.1x50mm, Waters
Retention time: 7.2 min
Base peak: 292.0968
Precursor m/z: 292.0968
Precursor type: [M+H]+
m/z	relative intensity	assigned
51.0227	2	C4H3+
65.0385	897	C5H5+
75.0228	3	C6H3+
77.0384	10	C6H5+
91.0541	12	C7H7+
93.0334	210	C6H5O+
95.0491	73	C6H7O+
98.0362	10	C5H6O2+
103.0542	75	C8H7+
105.0334	12	C7H5O+
105.0447	14	C6H5N2+
111.044	277	C6H7O2+
115.0541	49	C9H7+
116.0495	2	C8H6N+
117.0697	216	C9H9+
120.0443	28	C7H6NO+
121.0283	775	C7H5O2+
121.0395	280	C6H5N2O+
126.0463	47	C10H6+
127.0541	293	C10H7+
128.0619	29	C10H8+
130.0287	65	C8H4NO+
130.04	35	C7H4N3+
140.0495	2	C10H6N+
143.0729	350	C10H9N+
144.0807	686	C10H10N+
145.0647	999	C10H9O+
149.0232	881	C8H5O3+
155.0602	589	C10H7N2+
156.0572	2	C11H8O+
167.0343	3	C8H7O4+
191.0857	7	C15H11+
200.0618	28	C16H8+
201.0697	55	C16H9+
202.0774	14	C16H10+
205.0647	15	C15H9O+
217.0888	24	C16H11N+
218.0966	1	C16H12N+
219.0804	115	C16H11O+
220.0757	13	C15H10NO+
227.0728	333	C17H9N+
228.0807	105	C17H10N+
229.076	28	C16H9N2+
244.0756	12	C17H10NO+
245.0837	10	C17H11NO+
246.091	10	C17H12NO+
256.0756	202	C18H10NO+
