Mass spectrum: Alanycarb; LC-ESI-QFT; MS2; CE: 45; R=35000; [M+H]+
Name: Alanycarb
Name: 5-Oxa-2,8-dithia-4,7,9-triazadodec-3-en-12-oic acid, 3,7-dimethyl-6-oxo-9-(phenylmethyl)-, ethyl ester, (Z)-
Name: 3-[[[methyl-[[(Z)-1-(methylthio)ethylideneamino]oxy-oxomethyl]amino]thio]-(phenylmethyl)amino]propanoic acid ethyl ester
Formula: C17H25N3O4S2
Exact mass: 399.12865
SMILES: O=C(OCC)CCN(SN(C(=O)O\N=C(/SC)C)C)Cc1ccccc1
InChI: InChI=1S/C17H25N3O4S2/c1-5-23-16(21)11-12-20(13-15-9-7-6-8-10-15)26-19(3)17(22)24-18-14(2)25-4/h6-10H,5,11-13H2,1-4H3/b18-14-
Instrument: Q Exactive Orbitrap Thermo Scientific
Instrument type: LC-ESI-QFT
Ms type: MS2
Ion mode: POSITIVE
Ionization: ESI
Fragmentation mode: HCD
Collision energy: 45 (nominal)
Resolution: 35000
Column name: XBridge C18 3.5um, 2.1x50mm, Waters
Retention time: 12.8 min
Base peak: 238.0897
Precursor m/z: 400.1359
Precursor type: [M+H]+
m/z	relative intensity	assigned
55.0179	5	C3H3O+
59.9903	29	CH2NS+
62.0059	3	CH4NS+
65.0386	11	C5H5+
73.0284	259	C3H5O2+
74.0058	1	C2H4NS+
74.06	2	C3H8NO+
78.967	5	CH3S2+
88.0215	13	C3H6NS+
88.0392	2	C3H6NO2+
91.0542	999	C7H7+
94.962	7	CH3OS2+
95.0491	3	C6H7O+
101.0597	76	C5H9O2+
104.0495	6	C7H6N+
105.07	1	C8H9+
106.0321	5	C3H8NOS+
106.0652	8	C7H8N+
107.9936	5	C2H6NS2+
109.0106	3	C6H5S+
111.0263	19	C6H7S+
115.0542	1	C9H7+
116.0707	4	C5H10NO2+
117.0571	1	C8H7N+
117.0697	3	C9H9+
118.0652	8	C8H8N+
120.0807	3	C8H10N+
121.0105	4	C7H5S+
122.0184	1	C7H6S+
123.0263	226	C7H7S+
130.0652	1	C9H8N+
131.073	1	C9H9N+
135.0264	1	C8H7S+
136.0217	4	C7H6NS+
137.0296	1	C7H7NS+
137.0421	8	C8H9S+
138.0372	347	C7H8NS+
147.0265	1	C9H7S+
150.0373	379	C8H8NS+
159.0677	4	C10H9NO+
160.0758	1	C10H10NO+
163.0214	1	C9H7OS+
164.0529	14	C9H10NS+
192.0478	25	C10H10NOS+
206.1176	4	C12H16NO2+
238.0896	1	C12H16NO2S+
