Mass spectrum: Fenpiclonil; LC-ESI-QFT; MS2; CE: 75%; R=17500; [M+H]+
Name: Fenpiclonil
Name: 4-(2,3-dichlorophenyl)-1H-pyrrole-3-carbonitrile
Formula: C11H6Cl2N2
Exact mass: 235.9908
SMILES: C1=CC(=C(C(=C1)Cl)Cl)C2=CNC=C2C#N
InChI: InChI=1S/C11H6Cl2N2/c12-10-3-1-2-8(11(10)13)9-6-15-5-7(9)4-14/h1-3,5-6,15H
Instrument: Exploris 240 Orbitrap Thermo Scientific
Instrument type: LC-ESI-QFT
Ms type: MS2
Ion mode: POSITIVE
Ionization: ESI
Fragmentation mode: HCD
Collision energy: 75 % (nominal)
Resolution: 17500
Column name: XBridge C18 3.5um, 2.1x50mm, Waters
Retention time: 8.123 min
Base peak: 236.998
Precursor m/z: 236.9981
Precursor type: [M+H]+
m/z	relative intensity	assigned
115.0543	11	C9H7+
139.0415	19	C10H5N+
140.0494	211	C10H6N+
148.0078	5	C9H5Cl+
149.0153	9	C9H6Cl+
151.0181	12	C8H6ClN+
165.0444	25	C11H5N2+
166.0524	362	C11H6N2+
167.0602	179	C11H7N2+
174.0104	224	C10H5ClN+
175.0183	69	C10H6ClN+
182.9761	24	C9H5Cl2+
201.0217	38	C11H6ClN2+
202.0291	999	C11H7ClN2+
209.9868	4	C10H6Cl2N+
236.9982	12	C11H7Cl2N2+
