Mass spectrum: Picolinafen; LC-ESI-QFT; MS2; CE: 45; R=35000; [M+H]+
Name: Picolinafen
Name: N-(4-fluorophenyl)-6-[3-(trifluoromethyl)phenoxy]pyridine-2-carboxamide
Formula: C19H12F4N2O2
Exact mass: 376.08349
SMILES: C1=CC(=CC(=C1)OC2=CC=CC(=N2)C(=O)NC3=CC=C(C=C3)F)C(F)(F)F
InChI: InChI=1S/C19H12F4N2O2/c20-13-7-9-14(10-8-13)24-18(26)16-5-2-6-17(25-16)27-15-4-1-3-12(11-15)19(21,22)23/h1-11H,(H,24,26)
Instrument: Q Exactive Plus Orbitrap Thermo Scientific
Instrument type: LC-ESI-QFT
Ms type: MS2
Ion mode: POSITIVE
Ionization: ESI
Fragmentation mode: HCD
Collision energy: 45 (nominal)
Resolution: 35000
Column name: XBridge C18 3.5um, 2.1x50mm, Waters
Retention time: 15.4 min
Base peak: 279.1583
Precursor m/z: 377.0908
Precursor type: [M+H]+
m/z	relative intensity	assigned
53.002	1	C3HO+
57.0697	1	C4H9+
73.0083	3	C3H2FO+
94.0286	1	C5H4NO+
123.0352	2	C6H4FN2+
149.0232	3	C8H5O3+
163.0366	1	C7H6F3O+
173.032	10	C7H4F3N2+
183.0416	3	C10H6F3+
188.05	1	C11H7FNO+
190.0461	9	C11H6F2N+
210.0524	13	C11H7F3N+
218.0412	7	C12H6F2NO+
236.0517	34	C12H8F2NO2+
238.0473	656	C15H6F2N+
256.0577	999	C12H9F3NO2+
258.0616	2	C11H9F3N2O2+
270.0731	6	C13H11F3NO2+
284.053	6	C16H8F2NO2+
289.0771	11	C18H10FN2O+
291.0727	1	C18H9F2N2+
309.083	9	C18H11F2N2O+
317.0714	1	C19H10FN2O2+
329.0894	5	C18H12F3N2O+
337.0778	10	C19H11F2N2O2+
339.074	1	C19H10F3N2O+
359.0799	389	C19H11F4N2O+
