Mass spectrum: Nitenpyram; LC-ESI-QFT; MS2; CE: 90%; R=17500; [M+H]+
Name: Nitenpyram
Name: N-((6-chloropyridin-3-yl)methyl)-N-ethyl-N`-methyl-2-nitroethene-1,1-diamine
Name: 1-N`-[(6-chloropyridin-3-yl)methyl]-1-N`-ethyl-1-N-methyl-2-nitroethene-1,1-diamine
Formula: C11H15ClN4O2
Exact mass: 270.0884
SMILES: CCN(CC1=CN=C(C=C1)Cl)C(=C[N+](=O)[O-])NC
InChI: InChI=1S/C11H15ClN4O2/c1-3-15(11(13-2)8-16(17)18)7-9-4-5-10(12)14-6-9/h4-6,8,13H,3,7H2,1-2H3
Instrument: Exploris 240 Orbitrap Thermo Scientific
Instrument type: LC-ESI-QFT
Ms type: MS2
Ion mode: POSITIVE
Ionization: ESI
Fragmentation mode: HCD
Collision energy: 90 % (nominal)
Resolution: 17500
Column name: XBridge C18 3.5um, 2.1x50mm, Waters
Retention time: 2.582 min
Base peak: 271.0955
Precursor m/z: 271.0956
Precursor type: [M+H]+
m/z	relative intensity	assigned
56.0495	999	C3H6N+
57.0448	17	C2H5N2+
57.0572	8	C3H7N+
58.0651	50	C3H8N+
70.0652	10	C4H8N+
71.0603	7	C3H7N2+
90.0339	32	C6H4N+
98.0711	11	C4H8N3+
126.0106	132	C6H5ClN+
133.076	8	C8H9N2+
138.0106	8	C7H5ClN+
139.0056	7	C6H4ClN2+
141.0217	21	C6H6ClN2+
153.0215	9	C7H6ClN2+
160.0867	15	C9H10N3+
169.0527	21	C8H10ClN2+
179.0373	17	C9H8ClN2+
193.053	11	C10H10ClN2+
