Mass spectrum: Efavirenz; LC-ESI-QFT; MS2; CE: 30; R=35000; [M-H]-
Name: Efavirenz
Name: (4S)-6-chloro-4-(2-cyclopropylethynyl)-4-(trifluoromethyl)-1H-3,1-benzoxazin-2-one
Formula: C14H9ClF3NO2
Exact mass: 315.02739
SMILES: C1CC1C#C[C@]2(C3=C(C=CC(=C3)Cl)NC(=O)O2)C(F)(F)F
InChI: InChI=1S/C14H9ClF3NO2/c15-9-3-4-11-10(7-9)13(14(16,17)18,21-12(20)19-11)6-5-8-1-2-8/h3-4,7-8H,1-2H2,(H,19,20)/t13-/m0/s1
Instrument: Q Exactive Orbitrap Thermo Scientific
Instrument type: LC-ESI-QFT
Ms type: MS2
Ion mode: NEGATIVE
Ionization: ESI
Fragmentation mode: HCD
Collision energy: 30 (nominal)
Resolution: 35000
Column name: XBridge C18 3.5um, 2.1x50mm, Waters
Retention time: 12.9 min
Base peak: 314.0206
Precursor m/z: 314.0201
Precursor type: [M-H]-
m/z	relative intensity	assigned
65.0397	9	C5H5-
68.9958	999	CF3-
90.035	6	C6H4N-
111.0064	16	C3H2F3O-
111.0254	1	C6H4FO-
120.9906	1	C4F3O-
126.0116	11	C6H5ClN-
149.0219	6	C6H4F3O-
151.9909	26	C7H3ClNO-
161.0221	38	C7H4F3O-
164.0506	3	C12H6N-
166.0064	1	C8H5ClNO-
170.061	1	C11H8NO-
175.025	1	C7H4F3NO-
180.0454	4	C12H6NO-
190.0065	3	C10H5ClNO-
192.0221	4	C10H7ClNO-
194.0408	4	C13H5FN-
198.0116	4	C12H5ClN-
200.0273	102	C12H7ClN-
201.0114	5	C12H6ClO-
202.0068	16	C11H5ClNO-
203.9853	9	C10H3ClNO2-
208.0406	12	C13H6NO2-
210.0118	17	C13H5ClN-
214.0475	23	C13H6F2N-
215.0144	1	C12H6ClNO-
216.0222	90	C12H7ClNO-
218.001	1	C11H5ClNO2-
218.0176	1	C12H6ClFN-
218.0375	1	C10H5FN3O2-
221.993	25	C11H3ClF2N-
226.0066	27	C13H5ClNO-
228.0223	4	C13H7ClNO-
230.0179	63	C13H6ClFN-
241.9992	271	C11H4ClF3N-
243.0086	3	C13H6ClNO2-
244.0171	535	C13H7ClNO2-
245.0253	4	C13H8ClNO2-
245.9937	4	C10H4ClF3NO-
246.0128	29	C13H6ClFNO-
247.9732	22	C9H2ClF3NO2-
249.0157	1	C13H6ClF2N-
250.0241	137	C13H7ClF2N-
254.0016	17	C14H5ClNO2-
264.0232	4	C13H8ClFNO2-
265.9827	1	C12H3ClF2NO2-
266.0183	2	C13H7ClF2NO-
270.0306	22	C13H8ClF3N-
272.0109	1	C14H7ClNO3-
274.008	19	C14H6ClFNO2-
285.9892	4	C12H4ClF3NO2-
286.025	3	C13H8ClF3NO-
294.0141	9	C14H7ClF2NO2-
296.0097	23	C14H6ClF3NO-
314.0203	110	C14H8ClF3NO2-
