Mass spectrum: Reserpine; LC-ESI-ITFT; MS2; CE: 30%; R=7500; [M+H]+
Name: Reserpine
Name: (1S,2R,3R,4aS,13bR,14aS)-2,11-dimethoxy-3-(3,4,5-trimethoxybenzoyl)oxy-1,2,3,4,4a,5,7,8,13,13b,14,14a-dodecahydroisoquinolino[3,2-a]$b-carboline-1-carboxylic acid methyl ester
Formula: C33H40N2O9
Exact mass: 608.2734
SMILES: CO[C@H]1[C@@H](C[C@@H]2CN3CCC4=C([C@H]3C[C@@H]2[C@@H]1C(=O)OC)NC5=C4C=CC(=C5)OC)OC(=O)C6=CC(=C(C(=C6)OC)OC)OC
InChI: InChI=1S/C33H40N2O9/c1-38-19-7-8-20-21-9-10-35-16-18-13-27(44-32(36)17-11-25(39-2)30(41-4)26(12-17)40-3)31(42-5)28(33(37)43-6)22(18)15-24(35)29(21)34-23(20)14-19/h7-8,11-12,14,18,22,24,27-28,31,34H,9-10,13,15-16H2,1-6H3/t18-,22+,24-,27-,28+,31+/m1/s1
Instrument: LTQ Orbitrap XL Thermo Scientific
Instrument type: LC-ESI-ITFT
Ms type: MS2
Ion mode: POSITIVE
Ionization: ESI
Fragmentation mode: HCD
Collision energy: 30 % (nominal)
Resolution: 7500
Column name: XBridge C18 3.5um, 2.1x50mm, Waters
Retention time: 8.3 min
Base peak: 609.2812
Precursor m/z: 609.2807
Precursor type: [M+H]+
m/z	relative intensity	assigned
111.0437	3	C6H7O2+
123.0802	2	C8H11O+
148.0757	11	C9H10NO+
160.0758	9	C10H10NO+
167.0699	2	C9H11O3+
174.0913	407	C11H12NO+
175.0761	4	C11H11O2+
175.0954	5	C6H13N3O3+
176.1071	10	C11H14NO+
178.0859	4	C10H12NO2+
186.0913	3	C12H12NO+
188.1067	18	C12H14NO+
190.086	4	C11H12NO2+
192.102	50	C11H14NO2+
195.0652	999	C10H11O4+
196.0686	15	C5H12N2O6+
199.0969	2	C10H15O4+
200.1067	13	C13H14NO+
204.1018	15	C12H14NO2+
207.1016	4	C12H15O3+
212.106	4	C14H14NO+
214.111	2	C13H14N2O+
215.1181	25	C13H15N2O+
222.1124	7	C12H16NO3+
224.128	68	C12H18NO3+
227.1171	3	C14H15N2O+
228.1249	4	C14H16N2O+
229.1334	7	C14H17N2O+
236.1279	128	C13H18NO3+
238.1235	4	C16H16NO+
253.1326	2	C16H17N2O+
254.1386	5	C13H20NO4+
288.1376	5	C20H18NO+
290.1188	3	C19H16NO2+
305.1631	2	C17H23NO4+
316.1334	3	C21H18NO2+
322.1433	10	C20H20NO3+
333.1599	11	C21H21N2O2+
334.1424	3	C21H20NO3+
336.1587	32	C21H22NO3+
348.1589	20	C22H22NO3+
354.1703	9	C21H24NO4+
365.1854	141	C22H25N2O3+
366.188	5	C16H30O9+
368.1844	42	C22H26NO4+
380.1851	17	C23H26NO4+
397.2118	880	C23H29N2O4+
413.2072	11	C23H29N2O5+
422.1807	2	C21H28NO8+
434.1812	13	C22H28NO8+
436.1961	50	C22H30NO8+
448.1965	194	C23H30NO8+
449.2006	9	C33H25N2+
577.2537	37	C32H37N2O8+
609.2802	499	C33H41N2O9+
