Mass spectrum: Doxepine; LC-ESI-QFT; MS2; CE: 120; R=35000; [M+H]+
Name: Doxepine
Name: Doxepin
Name: 3-(6H-benzo[c][1]benzoxepin-11-ylidene)-N,N-dimethylpropan-1-amine
Formula: C19H21NO
Exact mass: 279.16231
SMILES: CN(C)CCC=C1C2=CC=CC=C2COC3=CC=CC=C31
InChI: InChI=1S/C19H21NO/c1-20(2)13-7-11-17-16-9-4-3-8-15(16)14-21-19-12-6-5-10-18(17)19/h3-6,8-12H,7,13-14H2,1-2H3
Instrument: Q Exactive Plus Orbitrap Thermo Scientific
Instrument type: LC-ESI-QFT
Ms type: MS2
Ion mode: POSITIVE
Ionization: ESI
Fragmentation mode: HCD
Collision energy: 120 (nominal)
Resolution: 35000
Column name: XBridge C18 3.5um, 2.1x50mm, Waters
Retention time: 6.8 min
Base peak: 280.1689
Precursor m/z: 280.1696
Precursor type: [M+H]+
m/z	relative intensity	assigned
50.0151	37	C4H2+
51.0229	30	C4H3+
53.0386	168	C4H5+
55.0179	39	C3H3O+
55.0542	3	C4H7+
56.0495	14	C3H6N+
57.0573	3	C3H7N+
58.0651	232	C3H8N+
62.0149	1	C5H2+
63.0229	25	C5H3+
65.0386	210	C5H5+
67.0416	4	C4H5N+
68.0495	14	C4H6N+
69.0573	7	C4H7N+
70.0651	81	C4H8N+
71.073	2	C4H9N+
72.0808	5	C4H10N+
75.0228	2	C6H3+
76.0306	1	C6H4+
77.0385	328	C6H5+
78.0464	10	C6H6+
79.0542	273	C6H7+
81.0335	24	C5H5O+
82.0652	10	C5H8N+
84.0808	96	C5H10N+
89.0386	46	C7H5+
91.0542	583	C7H7+
94.0414	6	C6H6O+
94.0652	1	C6H8N+
95.0491	487	C6H7O+
102.0464	13	C8H6+
103.0542	61	C8H7+
105.0447	354	C6H5N2+
106.0418	2	C7H6O+
107.0491	166	C7H7O+
114.0464	3	C9H6+
115.0542	939	C9H7+
116.062	21	C9H8+
117.0699	48	C9H9+
126.0464	5	C10H6+
127.0543	22	C10H7+
128.062	295	C10H8+
129.0449	1	C8H5N2+
129.0699	26	C10H9+
131.0492	34	C9H7O+
139.0542	28	C11H7+
140.062	5	C11H8+
141.0699	190	C11H9+
142.0778	4	C11H10+
143.073	1	C10H9N+
144.0569	2	C10H8O+
144.0809	1	C10H10N+
145.0649	21	C10H9O+
150.0465	3	C12H6+
151.0542	19	C12H7+
152.0621	305	C12H8+
153.0697	11	C12H9+
155.0603	48	C10H7N2+
157.0649	1	C11H9O+
163.0539	13	C13H7+
164.062	32	C13H8+
165.0699	999	C13H9+
166.0777	40	C13H10+
167.0855	6	C13H11+
168.057	42	C12H8O+
169.0648	32	C12H9O+
175.0541	5	C14H7+
176.0621	108	C14H8+
177.0699	79	C14H9+
178.0777	397	C14H10+
179.0605	12	C12H7N2+
179.0854	10	C14H11+
181.0648	8	C13H9O+
187.0543	4	C15H7+
188.0615	2	C15H8+
189.0699	279	C15H9+
190.0777	175	C15H10+
191.0855	233	C15H11+
192.057	1	C14H8O+
192.0932	7	C15H12+
193.0648	16	C14H9O+
194.0726	19	C14H10O+
195.0806	1	C14H11O+
196.0521	4	C13H8O2+
200.0621	88	C16H8+
201.0699	107	C16H9+
202.0777	332	C16H10+
203.0855	19	C16H11+
204.0938	1	C16H12+
205.0649	52	C15H9O+
207.0804	4	C15H11O+
213.0699	32	C17H9+
214.0772	10	C17H10+
215.0856	167	C17H11+
216.0933	1	C17H12+
218.0727	65	C16H10O+
219.0805	70	C16H11O+
220.088	5	C16H12O+
229.0761	15	C16H9N2+
231.0808	1	C17H11O+
233.0957	1	C17H13O+
