Mass spectrum: Flonicamid; LC-ESI-ITFT; MS2; CE: 45%; R=15000; [M+H]+
Name: Flonicamid
Name: N-(cyanomethyl)-4-(trifluoromethyl)-3-pyridinecarboxamide
Formula: C9H6F3N3O
Exact mass: 229.0463
SMILES: O=C(NCC#N)c1cnccc1C(F)(F)F
InChI: InChI=1S/C9H6F3N3O/c10-9(11,12)7-1-3-14-5-6(7)8(16)15-4-2-13/h1,3,5H,4H2,(H,15,16)
Instrument: LTQ Orbitrap XL Thermo Scientific
Instrument type: LC-ESI-ITFT
Ms type: MS2
Ion mode: POSITIVE
Ionization: ESI
Fragmentation mode: HCD
Collision energy: 45 % (nominal)
Resolution: 15000
Column name: XBridge C18 3.5um, 2.1x50mm, Waters
Retention time: 3.9 min
Base peak: 230.0537
Precursor m/z: 230.0536
Precursor type: [M+H]+
m/z	relative intensity	assigned
98.0403	1	C5H5FN+
126.035	2	C6H5FNO+
128.0308	4	C6H4F2N+
129.0384	3	C6H5F2N+
131.024	2	C7H3N2O+
134.0475	12	C7H6N2O+
135.0353	1	C7H4FN2+
144.0257	3	C6H4F2NO+
146.0213	10	C6H3F3N+
147.029	4	C6H4F3N+
148.0369	205	C6H5F3N+
155.0415	8	C7H5F2N2+
162.0463	1	C8H5FN3+
163.0301	1	C8H4FN2O+
174.0162	492	C7H3F3NO+
175.0478	5	C7H6F3N2+
176.0318	173	C7H5F3NO+
179.0195	1	C6H4F3NO2+
183.0365	89	C8H5F2N2O+
190.0408	3	C9H5FN3O+
192.0271	1	C7H5F3NO2+
201.0272	2	C8H4F3N2O+
203.0427	999	C8H6F3N2O+
210.0472	2	C9H6F2N3O+
230.0537	578	C9H7F3N3O+
