Mass spectrum: Flurtamone; LC-ESI-QFT; MS2; CE: 75; R=35000; [M-H]-
Name: Flurtamone
Name: 5-(methylamino)-2-phenyl-4-[3-(trifluoromethyl)phenyl]furan-3-one
Formula: C18H14F3NO2
Exact mass: 333.09766
SMILES: CNC1=C(C(=O)C(O1)C2=CC=CC=C2)C3=CC(=CC=C3)C(F)(F)F
InChI: InChI=1S/C18H14F3NO2/c1-22-17-14(12-8-5-9-13(10-12)18(19,20)21)15(23)16(24-17)11-6-3-2-4-7-11/h2-10,16,22H,1H3
Instrument: Q Exactive Plus Orbitrap Thermo Scientific
Instrument type: LC-ESI-QFT
Ms type: MS2
Ion mode: NEGATIVE
Ionization: ESI
Fragmentation mode: HCD
Collision energy: 75 (nominal)
Resolution: 35000
Column name: XBridge C18 3.5um, 2.1x50mm, Waters
Retention time: 10.1 min
Base peak: 332.0898
Precursor m/z: 332.0904
Precursor type: [M-H]-
m/z	relative intensity	assigned
50.0035	2	C3N-
68.9957	10	CF3-
77.0397	1	C6H5-
97.0083	6	C8H-
101.0396	136	C8H5-
102.0349	4	C7H4N-
116.0505	5	C8H6N-
117.0144	1	C8H2F-
117.0346	7	C8H5O-
119.0175	1	C7H2FN-
121.0295	2	C7H5O2-
126.0349	1	C9H4N-
129.0347	1	C9H5O-
131.0375	5	C8H5NO-
134.0611	27	C8H8NO-
137.0207	2	C8H3F2-
142.0662	4	C10H8N-
143.0178	2	C9H2FN-
144.0456	1	C9H6NO-
145.0096	26	C9H2FO-
145.0271	307	C7H4F3-
146.0246	5	C8H4NO2-
146.0609	1	C9H8NO-
149.0207	5	C9H3F2-
151.0241	1	C8H3F2N-
156.0193	109	C8H3F3-
158.0414	7	C10H5FN-
159.0428	8	C8H6F3-
160.0141	9	C7H3F3O-
161.022	64	C7H4F3O-
163.0243	18	C9H3F2N-
165.0157	92	C9H3F2O-
169.0271	231	C9H4F3-
170.0224	7	C8H3F3N-
171.0428	14	C9H6F3-
172.0402	2	C10H6NO2-
178.0477	3	C10H6F2N-
182.0223	90	C9H3F3N-
183.0301	683	C9H4F3N-
184.0378	13	C9H5F3N-
185.022	999	C9H4F3O-
187.0374	2	C9H6F3O-
187.0552	5	C15H7-
189.0168	30	C8H4F3O2-
196.0378	1	C10H5F3N-
198.0536	25	C10H7F3N-
199.0248	4	C9H4F3NO-
207.0614	20	C15H8F-
208.0379	5	C11H5F3N-
210.0538	10	C11H7F3N-
212.033	2	C10H5F3NO-
214.0121	16	C9H3F3NO2-
215.0502	1	C16H7O-
217.0656	2	C16H9O-
222.0488	1	C15H7FO-
226.0489	1	C11H7F3NO-
226.0664	2	C14H9FNO-
227.0201	11	C10H4F3NO2-
227.0678	13	C15H9F2-
228.0818	4	C17H10N-
235.0562	2	C16H8FO-
239.0195	1	C11H4F3NO2-
240.0278	135	C11H5F3NO2-
245.0583	5	C15H8F3-
247.074	16	C15H10F3-
255.0623	1	C16H9F2O-
259.0742	5	C16H10F3-
263.0694	1	C15H10F3O-
274.0607	2	C16H9F3O-
275.0696	1	C16H10F3O-
284.069	3	C17H9F3N-
286.0849	14	C17H11F3N-
287.0694	1	C17H10F3O-
288.0643	44	C16H9F3NO-
292.0777	2	C18H11FNO2-
302.0552	1	C17H9F3O2-
314.0798	10	C18H11F3NO-
316.0589	79	C17H9F3NO2-
332.0905	8	C18H13F3NO2-
