Mass spectrum: Doxazosin; LC-ESI-QFT; MS2; CE: 45; R=35000; [M+H]+
Name: Doxazosin
Name: [4-(4-amino-6,7-dimethoxyquinazolin-2-yl)piperazin-1-yl]-(2,3-dihydro-1,4-benzodioxin-3-yl)methanone
Formula: C23H25N5O5
Exact mass: 451.18557
SMILES: COC1=C(C=C2C(=C1)C(=NC(=N2)N3CCN(CC3)C(=O)C4COC5=CC=CC=C5O4)N)OC
InChI: InChI=1S/C23H25N5O5/c1-30-18-11-14-15(12-19(18)31-2)25-23(26-21(14)24)28-9-7-27(8-10-28)22(29)20-13-32-16-5-3-4-6-17(16)33-20/h3-6,11-12,20H,7-10,13H2,1-2H3,(H2,24,25,26)
Instrument: Q Exactive Orbitrap Thermo Scientific
Instrument type: LC-ESI-QFT
Ms type: MS2
Ion mode: POSITIVE
Ionization: ESI
Fragmentation mode: HCD
Collision energy: 45 (nominal)
Resolution: 35000
Column name: XBridge C18 3.5um, 2.1x50mm, Waters
Retention time: 7.2 min
Base peak: 452.1933
Precursor m/z: 452.1928
Precursor type: [M+H]+
m/z	relative intensity	assigned
55.018	1	C3H3O+
70.0652	7	C4H8N+
79.0543	1	C6H7+
82.0652	3	C5H8N+
98.0601	83	C5H8NO+
107.0493	7	C7H7O+
123.0918	1	C7H11N2+
124.0758	22	C7H10NO+
135.0441	43	C8H7O2+
141.1018	1	C7H13N2O+
163.0392	5	C9H7O3+
203.0928	4	C10H11N4O+
204.077	2	C10H10N3O2+
205.0718	4	C9H9N4O2+
206.0813	10	C11H12NO3+
217.0724	1	C10H9N4O2+
219.0875	2	C10H11N4O2+
220.0958	16	C10H12N4O2+
221.1036	80	C10H13N4O2+
222.0873	3	C10H12N3O3+
231.0877	25	C11H11N4O2+
232.0958	28	C11H12N4O2+
233.1036	45	C11H13N4O2+
234.1118	1	C11H14N4O2+
245.1035	15	C12H13N4O2+
246.1115	2	C12H14N4O2+
247.1193	474	C12H15N4O2+
257.1037	2	C13H13N4O2+
259.119	5	C13H15N4O2+
271.1189	2	C14H15N4O2+
273.1347	10	C14H17N4O2+
274.1299	9	C13H16N5O2+
275.1146	6	C13H15N4O3+
275.1375	2	C13H17N5O2+
282.1354	2	C15H16N5O+
288.1459	46	C14H18N5O2+
290.1614	247	C14H20N5O2+
300.1457	9	C15H18N5O2+
301.1299	37	C15H17N4O3+
302.1619	4	C15H20N5O2+
310.1302	18	C18H18N2O3+
311.1381	7	C16H17N5O2+
314.1611	2	C16H20N5O2+
324.1452	3	C17H18N5O2+
326.1615	75	C17H20N5O2+
328.1408	24	C16H18N5O3+
329.1486	21	C16H19N5O3+
344.1721	999	C17H22N5O3+
408.1674	2	C23H24N2O5+
434.1831	1	C23H24N5O4+
436.1619	19	C22H22N5O5+
437.1692	7	C22H23N5O5+
452.1932	155	C23H26N5O5+
