Mass spectrum: Triallate; LC-ESI-QFT; MS2; CE: 150; R=35000; [M+H]+
Name: Triallate
Name: S-(2,3,3-trichloroprop-2-enyl) N,N-di(propan-2-yl)carbamothioate
Formula: C10H16Cl3NOS
Exact mass: 303.00182
SMILES: CC(C)N(C(C)C)C(=O)SCC(=C(Cl)Cl)Cl
InChI: InChI=1S/C10H16Cl3NOS/c1-6(2)14(7(3)4)10(15)16-5-8(11)9(12)13/h6-7H,5H2,1-4H3
Instrument: Q Exactive Plus Orbitrap Thermo Scientific
Instrument type: LC-ESI-QFT
Ms type: MS2
Ion mode: POSITIVE
Ionization: ESI
Fragmentation mode: HCD
Collision energy: 150 (nominal)
Resolution: 35000
Column name: XBridge C18 3.5um, 2.1x50mm, Waters
Retention time: 15.9 min
Base peak: 279.1584
Precursor m/z: 304.0091
Precursor type: [M+H]+
m/z	relative intensity	assigned
53.0022	6	C3HO+
53.9974	1	C2NO+
58.0651	15	C3H8N+
60.984	16	C2H2Cl+
62.9632	6	CClO+
65.0386	3	C5H5+
68.9793	10	C3HS+
69.9871	1	C3H2S+
70.9683	1	C3Cl+
71.976	2	C3HCl+
72.9839	6	C3H2Cl+
78.9403	13	CClS+
78.9945	1	C2H4ClO+
81.9371	1	CCl2+
82.9449	999	CHCl2+
91.0542	3	C7H7+
96.9607	10	C2H3Cl2+
104.9561	3	C3H2ClS+
106.945	21	C3HCl2+
116.906	6	CCl3+
142.9217	2	C3H2Cl3+
