Mass spectrum: p-Toluenesulfonic acid; LC-ESI-QFT; MS2; CE: 30%; R=15000; [M+H]+
Name: p-Toluenesulfonic acid
Name: 4-methylbenzenesulfonic acid
Formula: C7H8O3S
Exact mass: 172.0194
SMILES: CC1=CC=C(C=C1)S(=O)(=O)O
InChI: InChI=1S/C7H8O3S/c1-6-2-4-7(5-3-6)11(8,9)10/h2-5H,1H3,(H,8,9,10)
Instrument: Orbitrap Exploris 240 Thermo Scientific
Instrument type: LC-ESI-QFT
Ms type: MS2
Ion mode: POSITIVE
Ionization: ESI
Fragmentation mode: HCD
Collision energy: 30 % (nominal)
Resolution: 15000
Column name: Atlantis C18 3um, 3.0x150mm, Waters
Retention time: 13.497 min
Base peak: 132.9582
Precursor m/z: 173.0267
Precursor type: [M+H]+
Precursor intensity: 12440807
m/z	relative intensity	assigned
91.0542	265	C7H7+
92.062	123	C7H8+
93.0698	127	C7H9+
108.0566	21	C7H8O+
109.0647	259	C7H9O+
119.0603	778	
155.0161	763	C7H7O2S+
173.0267	999	C7H9O3S+
191.0372	25	
