Mass spectrum: Tricyclazole; LC-ESI-QFT; MS2; CE: 75%; R=17500; [M+H]+
Name: Tricyclazole
Name: 8-methyl-[1,2,4]triazolo[3,4-b][1,3]benzothiazole
Formula: C9H7N3S
Exact mass: 189.0361
SMILES: CC1=C2C(=CC=C1)SC3=NN=CN23
InChI: InChI=1S/C9H7N3S/c1-6-3-2-4-7-8(6)12-5-10-11-9(12)13-7/h2-5H,1H3
Instrument: Exploris 240 Orbitrap Thermo Scientific
Instrument type: LC-ESI-QFT
Ms type: MS2
Ion mode: POSITIVE
Ionization: ESI
Fragmentation mode: HCD
Collision energy: 75 % (nominal)
Resolution: 17500
Column name: XBridge C18 3.5um, 2.1x50mm, Waters
Retention time: 4.550 min
Base peak: 190.0431
Precursor m/z: 190.0433
Precursor type: [M+H]+
m/z	relative intensity	assigned
92.0493	26	C6H6N+
109.0108	52	C6H5S+
118.0648	10	C8H8N+
119.0604	20	C7H7N2+
136.0215	547	C7H6NS+
163.0324	999	C8H7N2S+
190.0434	631	C9H8N3S+
