Mass spectrum: Bifenazate-Diazene; LC-ESI-QFT; MS2; CE: 150%; R=17500; [M+H]+
Name: Bifenazate-Diazene
Name: propan-2-yl N-(2-methoxy-5-phenylphenyl)iminocarbamate
Formula: C17H18N2O3
Exact mass: 298.1317
SMILES: CC(C)OC(=O)N=NC1=C(C=CC(=C1)C2=CC=CC=C2)OC
InChI: InChI=1S/C17H18N2O3/c1-12(2)22-17(20)19-18-15-11-14(9-10-16(15)21-3)13-7-5-4-6-8-13/h4-12H,1-3H3
Instrument: Exploris 240 Orbitrap Thermo Scientific
Instrument type: LC-ESI-QFT
Ms type: MS2
Ion mode: POSITIVE
Ionization: ESI
Fragmentation mode: HCD
Collision energy: 150 % (nominal)
Resolution: 17500
Column name: XBridge C18 3.5um, 2.1x50mm, Waters
Retention time: 12.068 min
Base peak: 299.1387
Precursor m/z: 299.139
Precursor type: [M+H]+
m/z	relative intensity	assigned
51.023	72	C4H3+
63.0229	34	C5H3+
65.0387	31	C5H5+
76.0307	63	C6H4+
77.0387	69	C6H5+
78.0464	46	C6H6+
89.0385	45	C7H5+
91.0543	86	C7H7+
102.0464	592	C8H6+
105.045	23	C6H5N2+
115.0542	999	C9H7+
127.0546	59	C10H7+
128.062	179	C10H8+
139.0542	154	C11H7+
141.0698	241	C11H9+
150.0466	27	C12H6+
151.0542	40	C12H7+
152.0621	170	C12H8+
155.0603	61	C10H7N2+
167.0728	53	C12H9N+
169.0653	29	C12H9O+
