Mass spectrum: Fluconazole; LC-ESI-ITFT; MS2; CE: 35%; R=30000; [M+H]+
Name: Fluconazole
Name: 2-(2,4-difluorophenyl)-1,3-bis(1,2,4-triazol-1-yl)-2-propanol
Formula: C13H12F2N6O
Exact mass: 306.1041
SMILES: OC(CN1C=NC=N1)(CN2C=NC=N2)C3=C(F)C=C(F)C=C3
InChI: InChI=1S/C13H12F2N6O/c14-10-1-2-11(12(15)3-10)13(22,4-20-8-16-6-18-20)5-21-9-17-7-19-21/h1-3,6-9,22H,4-5H2
Instrument: LTQ Orbitrap XL Thermo Scientific
Instrument type: LC-ESI-ITFT
Ms type: MS2
Ion mode: POSITIVE
Ionization: ESI
Fragmentation mode: CID
Collision energy: 35 % (nominal)
Resolution: 30000
Column name: XBridge C18 3.5um, 2.1x50mm, Waters
Retention time: 5.3 min
Base peak: 307.1126
Precursor m/z: 307.1113
Precursor type: [M+H]+
m/z	relative intensity	assigned
139.0347	2	C8H5F2+
169.0459	5	C9H7F2O+
220.0683	555	C11H8F2N3+
238.0789	999	C11H10F2N3O+
289.1009	338	C13H11F2N6+
