Mass spectrum: Propachlor OXA; LC-ESI-ITFT; MS2; CE: 75%; R=7500; [M+H]+
Name: Propachlor OXA
Name: N-(1-Methylethyl)-N-(phenyl)oxalamic acid
Name: 2-(N-isopropylanilino)-2-keto-acetic acid
Formula: C11H13NO3
Exact mass: 207.0895
SMILES: CC(C)N(C(=O)C(O)=O)c1ccccc1
InChI: InChI=1S/C11H13NO3/c1-8(2)12(10(13)11(14)15)9-6-4-3-5-7-9/h3-8H,1-2H3,(H,14,15)
Instrument: LTQ Orbitrap XL Thermo Scientific
Instrument type: LC-ESI-ITFT
Ms type: MS2
Ion mode: POSITIVE
Ionization: ESI
Fragmentation mode: HCD
Collision energy: 75 % (nominal)
Resolution: 7500
Column name: XBridge C18 3.5um, 2.1x50mm, Waters
Retention time: 5.6 min
Base peak: 208.0971
Precursor m/z: 208.0968
Precursor type: [M+H]+
m/z	relative intensity	assigned
53.0385	37	C4H5+
65.0386	74	C5H5+
77.0386	486	C6H5+
92.0495	999	C6H6N+
95.0494	73	C6H7O+
105.0447	151	C6H5N2+
120.0444	623	C7H6NO+
