Mass spectrum: Lacosamide; LC-ESI-QFT; MS2; CE: 75; R=35000; [M-H]-
Name: Lacosamide
Name: N2-Acetyl-N-benzyl-O-methyl-D-serinamide
Name: 2-acetamido-N-benzyl-3-methoxypropanamide
Formula: C13H18N2O3
Exact mass: 250.13174
SMILES: CC(=O)NC(COC)C(=O)NCC1=CC=CC=C1
InChI: InChI=1S/C13H18N2O3/c1-10(16)15-12(9-18-2)13(17)14-8-11-6-4-3-5-7-11/h3-7,12H,8-9H2,1-2H3,(H,14,17)(H,15,16)
Instrument: Q Exactive Plus Orbitrap Thermo Scientific
Instrument type: LC-ESI-QFT
Ms type: MS2
Ion mode: NEGATIVE
Ionization: ESI
Fragmentation mode: HCD
Collision energy: 75 (nominal)
Resolution: 35000
Column name: XBridge C18 3.5um, 2.1x50mm, Waters
Retention time: 5.0 min
Base peak: 295.1293
Precursor m/z: 249.1245
Precursor type: [M-H]-
m/z	relative intensity	assigned
52.0191	5	C3H2N-
57.0345	999	C3H5O-
58.0298	308	C2H4NO-
59.0138	107	C2H3O2-
66.0349	23	C4H4N-
68.0142	25	C3H2NO-
70.0299	58	C3H4NO-
72.0456	6	C3H6NO-
77.0396	9	C6H5-
82.0297	85	C4H4NO-
84.0454	928	C4H6NO-
85.0168	69	C3H3NO2-
90.0348	9	C6H4N-
91.0553	73	C7H7-
93.0345	34	C6H5O-
96.0329	44	C4H4N2O-
97.0406	20	C4H5N2O-
98.0246	24	C4H4NO2-
99.0326	10	C4H5NO2-
102.0348	67	C7H4N-
104.0505	74	C7H6N-
108.0215	10	C6H4O2-
108.0328	6	C5H4N2O-
110.0247	131	C5H4NO2-
111.02	580	C4H3N2O2-
112.0404	47	C5H6NO2-
116.0506	264	C8H6N-
118.0299	22	C7H4NO-
118.066	11	C8H8N-
119.05	9	C8H7O-
121.0295	105	C7H5O2-
130.0663	77	C9H8N-
132.0455	123	C8H6NO-
133.0655	25	C9H9O-
134.0612	93	C8H8NO-
142.0511	13	C6H8NO3-
146.0613	10	C9H8NO-
148.0768	657	C9H10NO-
158.0609	13	C10H8NO-
171.0927	137	C11H11N2-
175.0876	165	C10H11N2O-
184.064	115	C11H8N2O-
199.0878	96	C12H11N2O-
201.0664	7	C11H9N2O2-
202.0747	10	C11H10N2O2-
207.1138	173	C11H15N2O2-
