Mass spectrum: Genistein; LC-ESI-QFT; MS2; CE: 30; R=35000; [M+H]+
Name: Genistein
Name: 5,7-dihydroxy-3-(4-hydroxyphenyl)chromen-4-one
Formula: C15H10O5
Exact mass: 270.05282
SMILES: C1=CC(=CC=C1C2=COC3=CC(=CC(=C3C2=O)O)O)O
InChI: InChI=1S/C15H10O5/c16-9-3-1-8(2-4-9)11-7-20-13-6-10(17)5-12(18)14(13)15(11)19/h1-7,16-18H
Instrument: Q Exactive Plus Orbitrap Thermo Scientific
Instrument type: LC-ESI-QFT
Ms type: MS2
Ion mode: POSITIVE
Ionization: ESI
Fragmentation mode: HCD
Collision energy: 30 (nominal)
Resolution: 35000
Column name: XBridge C18 3.5um, 2.1x50mm, Waters
Retention time: 7.6 min
Base peak: 271.0599
Precursor m/z: 271.0601
Precursor type: [M+H]+
m/z	relative intensity	assigned
149.0234	2	C8H5O3+
153.0182	4	C7H5O4+
215.0704	3	C13H11O3+
243.0654	4	C14H11O4+
271.0601	999	C15H11O5+
