Mass spectrum: Chlorothalonil TP SYN548581; LC-ESI-QFT; MS2; CE: 45%; R=15000; [M+H]+
Name: Chlorothalonil TP SYN548581
Name: 4-carbamoyl-2,3,5-trichloro-6-cyanobenzenesulfonic acid
Formula: C8H3Cl3N2O4S
Exact mass: 327.8879
SMILES: NC(=O)C1=C(Cl)C(Cl)=C(C(C#N)=C1Cl)S(O)(=O)=O
InChI: InChI=1S/C8H3Cl3N2O4S/c9-4-2(1-12)7(18(15,16)17)6(11)5(10)3(4)8(13)14/h(H2,13,14)(H,15,16,17)
Instrument: Orbitrap Exploris 240 Thermo Scientific
Instrument type: LC-ESI-QFT
Ms type: MS2
Ion mode: POSITIVE
Ionization: ESI
Fragmentation mode: HCD
Collision energy: 45 % (nominal)
Resolution: 15000
Column name: Atlantis C18 3um, 3.0x150mm, Waters
Retention time: 10.461 min
Base peak: 132.9582
Precursor m/z: 328.8952
Precursor type: [M+H]+
Precursor intensity: 4062616.5
m/z	relative intensity	assigned
157.9557	50	C6H2Cl2N+
158.9641	39	C6H3Cl2N+
172.9668	29	C6H3Cl2N2+
173.9511	23	C6H2Cl2NO+
182.9508	30	C7HCl2N2+
185.9506	87	C7H2Cl2NO+
191.9168	83	C6HCl3N+
191.9604	22	C6H4Cl2NO2+
193.9326	203	C6H3Cl3N+
200.9618	70	C7H3Cl2N2O+
201.9451	17	C7H2Cl2NO2+
210.9453	28	C8HCl2N2O+
219.9114	53	C7HCl3NO+
221.9275	331	C7H3Cl3NO+
222.9116	242	C7H2Cl3O2+
228.9564	116	C8H3Cl2N2O2+
229.9405	88	C8H2Cl2NO3+
231.9226	17	C4H4Cl2NO4S+
234.9231	48	C7H2Cl3N2O+
246.9224	34	C8H2Cl3N2O+
247.9064	537	C8HCl3NO2+
265.9171	162	C8H3Cl3NO3+
285.8893	422	C7H3Cl3NO3S+
292.9188	56	C8H3Cl2N2O4S+
311.868	184	C8HCl3NO4S+
328.8951	999	C8H4Cl3N2O4S+
