Mass spectrum: Afidopyropen; LC-ESI-QFT; MS2; CE: 45%; R=17500; [M+H]+
Name: Afidopyropen
Name: [5-(cyclopropanecarbonyloxy)-9,18-dihydroxy-2,6,10-trimethyl-16-oxo-14-pyridin-3-yl-11,15-dioxatetracyclo[8.8.0.02,7.012,17]octadeca-12(17),13-dien-6-yl]methyl cyclopropanecarboxylate
Formula: C33H39NO9
Exact mass: 593.2625
SMILES: CC12CCC(C(C1CC(C3(C2C(C4=C(O3)C=C(OC4=O)C5=CN=CC=C5)O)C)O)(C)COC(=O)C6CC6)OC(=O)C7CC7
InChI: InChI=1S/C33H39NO9/c1-31-11-10-24(42-29(38)18-8-9-18)32(2,16-40-28(37)17-6-7-17)22(31)14-23(35)33(3)27(31)26(36)25-21(43-33)13-20(41-30(25)39)19-5-4-12-34-15-19/h4-5,12-13,15,17-18,22-24,26-27,35-36H,6-11,14,16H2,1-3H3
Instrument: Exploris 240 Orbitrap Thermo Scientific
Instrument type: LC-ESI-QFT
Ms type: MS2
Ion mode: POSITIVE
Ionization: ESI
Fragmentation mode: HCD
Collision energy: 45 % (nominal)
Resolution: 17500
Column name: XBridge C18 3.5um, 2.1x50mm, Waters
Retention time: 8.509 min
Base peak: 594.2694
Precursor m/z: 594.2698
Precursor type: [M+H]+
m/z	relative intensity	assigned
69.0335	383	C4H5O+
78.0339	22	C5H4N+
79.0541	12	C6H7+
81.07	44	C6H9+
91.0543	13	C7H7+
93.0699	31	C7H9+
95.0855	20	C7H11+
104.0496	12	C7H6N+
105.0698	32	C8H9+
106.0287	251	C6H4NO+
107.0855	50	C8H11+
109.1009	15	C8H13+
119.0857	68	C9H11+
121.0651	19	C8H9O+
122.0599	140	C7H8NO+
123.044	23	C7H7O2+
131.0856	25	C10H11+
133.1011	54	C10H13+
135.0805	19	C9H11O+
135.1166	30	C10H15+
143.0856	29	C11H11+
145.1011	70	C11H13+
147.0807	26	C10H11O+
147.1166	13	C11H15+
148.0393	999	C8H6NO2+
149.0602	28	C9H9O2+
155.0854	12	C12H11+
157.1012	46	C12H13+
159.0802	27	C11H11O+
159.1167	28	C12H15+
160.0393	79	C9H6NO2+
161.0962	64	C11H13O+
161.1327	17	C12H17+
169.1013	23	C13H13+
171.0803	31	C12H11O+
171.1168	30	C13H15+
173.096	21	C12H13O+
173.1323	27	C13H17+
185.1326	72	C14H17+
187.076	18	C12H11O2+
187.1116	36	C13H15O+
187.1476	22	C14H19+
189.128	12	C13H17O+
190.0499	81	C10H8NO3+
197.0598	22	C13H9O2+
197.0964	34	C14H13O+
197.1325	41	C15H17+
202.0498	869	C11H8NO3+
202.1348	55	C14H18O+
203.1429	80	C14H19O+
209.1323	18	C16H17+
211.1481	38	C16H19+
215.0704	17	C13H11O3+
215.1425	22	C15H19O+
216.0656	24	C12H10NO3+
218.0446	53	C11H8NO4+
219.0527	25	C11H9NO4+
237.1278	28	C17H17O+
239.143	116	C17H19O+
240.066	28	C14H10NO3+
242.0816	49	C14H12NO3+
255.1377	33	C17H19O2+
257.1535	30	C17H21O2+
265.1225	175	C18H17O2+
266.0812	24	C16H12NO3+
268.0966	13	C16H14NO3+
270.0762	31	C15H12NO4+
280.0974	18	C17H14NO3+
283.1324	89	C18H19O3+
318.1116	60	C20H16NO3+
344.1285	26	C22H18NO3+
422.1954	36	C25H28NO5+
594.2705	145	C33H40NO9+
