Mass spectrum: 1-[(4-Chlorophenyl)phenylmethyl]piperazine; LC-ESI-QFT; MS2; CE: 15; R=35000; [M+H]+
Name: 1-[(4-Chlorophenyl)phenylmethyl]piperazine
Name: Norchlorcyclizine
Name: 1-(4-Chlorobenzhydryl) piperazine
Formula: C17H19ClN2
Exact mass: 286.12368
SMILES: C1CN(CCN1)C(C2=CC=CC=C2)C3=CC=C(C=C3)Cl
InChI: InChI=1S/C17H19ClN2/c18-16-8-6-15(7-9-16)17(14-4-2-1-3-5-14)20-12-10-19-11-13-20/h1-9,17,19H,10-13H2
Instrument: Q Exactive Plus Orbitrap Thermo Scientific
Instrument type: LC-ESI-QFT
Ms type: MS2
Ion mode: POSITIVE
Ionization: ESI
Fragmentation mode: HCD
Collision energy: 15 (nominal)
Resolution: 35000
Column name: XBridge C18 3.5um, 2.1x50mm, Waters
Retention time: 9.0 min
Base peak: 287.1308
Precursor m/z: 287.131
Precursor type: [M+H]+
m/z	relative intensity	assigned
85.076	3	C4H9N2+
165.0691	4	C13H9+
201.0466	999	C13H10Cl+
287.1311	72	C17H20ClN2+
