Mass spectrum: 1-Hydroxybenzotriazole; LC-ESI-QFT; MS2; CE: 150; R=35000; [M+H]+
Name: 1-Hydroxybenzotriazole
Formula: C6H5N3O
Exact mass: 135.04326
SMILES: C1=CC=C2C(=C1)N=NN2O
InChI: InChI=1S/C6H5N3O/c10-9-6-4-2-1-3-5(6)7-8-9/h1-4,10H
Instrument: Q Exactive Plus Orbitrap Thermo Scientific
Instrument type: LC-ESI-QFT
Ms type: MS2
Ion mode: POSITIVE
Ionization: ESI
Fragmentation mode: HCD
Collision energy: 150 (nominal)
Resolution: 35000
Column name: XBridge C18 3.5um, 2.1x50mm, Waters
Retention time: 3.0 min
Base peak: 136.0506
Precursor m/z: 136.0505
Precursor type: [M+H]+
m/z	relative intensity	assigned
50.0152	20	C4H2+
51.0105	3	C3HN+
51.023	24	C4H3+
52.0183	244	C3H2N+
53.0023	9	C3HO+
53.0386	22	C4H5+
53.9975	3	C2NO+
54.0465	55	C4H6+
55.0179	1	C3H3O+
61.0073	9	C5H+
62.0152	50	C5H2+
63.023	999	C5H3+
64.0308	452	C5H4+
65.026	239	C4H3N+
67.9894	2	C3O2+
75.0104	2	C5HN+
76.0182	51	C5H2N+
77.0386	20	C6H5+
78.0465	26	C6H6+
79.0416	1	C5H5N+
80.0495	1	C5H6N+
81.0335	11	C5H5O+
82.0412	2	C5H6O+
90.0339	16	C6H4N+
91.0418	227	C6H5N+
92.037	8	C5H4N2+
95.0492	25	
105.0448	13	C6H5N2+
119.048	10	C6H5N3+
