Mass spectrum: Oseltamivir; LC-ESI-ITFT; MS2; CE: 30%; R=7500; [M+H]+
Name: Oseltamivir
Name: (3R,4R,5S)-4-acetamido-5-amino-3-(1-ethylpropoxy)cyclohexene-1-carboxylic acid ethyl ester
Formula: C16H28N2O4
Exact mass: 312.2049
SMILES: CCC(CC)OC1C=C(CC(C1NC(=O)C)N)C(=O)OCC
InChI: InChI=1S/C16H28N2O4/c1-5-12(6-2)22-14-9-11(16(20)21-7-3)8-13(17)15(14)18-10(4)19/h9,12-15H,5-8,17H2,1-4H3,(H,18,19)/t13-,14+,15+/m0/s1
Instrument: LTQ Orbitrap XL Thermo Scientific
Instrument type: LC-ESI-ITFT
Ms type: MS2
Ion mode: POSITIVE
Ionization: ESI
Fragmentation mode: HCD
Collision energy: 30 % (nominal)
Resolution: 7500
Column name: XBridge C18 3.5um, 2.1x50mm, Waters
Retention time: 7.0 min
Base peak: 313.2132
Precursor m/z: 313.2122
Precursor type: [M+H]+
m/z	relative intensity	assigned
92.0493	6	C6H6N+
93.0336	8	C6H5O+
93.0568	4	C6H7N+
94.0652	32	C6H8N+
95.0489	2	C6H7O+
109.0762	3	C6H9N2+
111.0442	10	C6H7O2+
112.0396	4	C5H6NO2+
119.0604	7	C7H7N2+
120.0444	135	C7H6NO+
121.029	2	C7H5O2+
122.0966	16	C8H12N+
123.0807	2	C8H11O+
136.0758	80	C8H10NO+
137.071	61	C7H9N2O+
138.055	28	C7H8NO2+
139.0387	5	C7H7O3+
139.0753	12	C8H11O2+
140.0705	12	C7H10NO2+
151.0872	3	C8H11N2O+
156.0659	2	C7H10NO3+
161.0708	8	C9H9N2O+
162.0549	43	C9H8NO2+
164.1066	6	C10H14NO+
166.0864	999	C9H12NO2+
167.0704	17	C9H11O3+
179.0815	48	C9H11N2O2+
180.0656	28	C9H10NO3+
183.1128	7	C9H15N2O2+
184.0968	4	C9H14NO3+
208.0969	261	C11H14NO3+
225.1236	125	C11H17N2O3+
226.1075	66	C11H16NO4+
243.1342	19	C11H19N2O4+
296.1863	11	C16H26NO4+
