Mass spectrum: Spirotetramat BYI08330-enol; LC-ESI-QFT; MS2; CE: 75%; R=17500; [M+H]+
Name: Spirotetramat BYI08330-enol
Name: Cis-3-(2,5-dimethylphenyl)-4-hydroxy-8-methoxy-1-azaspiro(4.5)dec-3-en-2-one
Name: 3-(2,5-dimethylphenyl)-4-hydroxy-8-methoxy-1-azaspiro[4.5]dec-3-en-2-one
Formula: C18H23NO3
Exact mass: 301.1678
SMILES: CC1=CC(=C(C=C1)C)C2=C(C3(CCC(CC3)OC)NC2=O)O
InChI: InChI=1S/C18H23NO3/c1-11-4-5-12(2)14(10-11)15-16(20)18(19-17(15)21)8-6-13(22-3)7-9-18/h4-5,10,13,20H,6-9H2,1-3H3,(H,19,21)
Instrument: Exploris 240 Orbitrap Thermo Scientific
Instrument type: LC-ESI-QFT
Ms type: MS2
Ion mode: POSITIVE
Ionization: ESI
Fragmentation mode: HCD
Collision energy: 75 % (nominal)
Resolution: 17500
Column name: XBridge C18 3.5um, 2.1x50mm, Waters
Retention time: 6.514 min
Base peak: 302.1748
Precursor m/z: 302.1751
Precursor type: [M+H]+
m/z	relative intensity	assigned
67.0543	14	C5H7+
79.0543	20	C6H7+
81.0699	14	C6H9+
91.0543	43	C7H7+
96.0808	28	C6H10N+
105.07	63	C8H9+
115.0543	35	C9H7+
117.0699	394	C9H9+
119.0855	217	C9H11+
124.0393	16	C6H6NO2+
129.0699	28	C10H9+
130.0777	54	C10H10+
131.0857	29	C10H11+
133.0645	10	C9H9O+
143.0857	105	C11H11+
145.0882	44	C10H11N+
145.1013	212	C11H13+
147.0805	45	C10H11O+
155.0856	104	C12H11+
157.1018	13	C12H13+
158.0726	21	C11H10O+
160.112	47	C11H14N+
167.0857	12	C13H11+
169.1015	25	C13H13+
172.1121	11	C12H14N+
173.0596	25	C11H9O2+
181.102	11	C14H13+
182.1095	24	C14H14+
188.107	78	C12H14NO+
192.0931	15	C15H12+
207.1174	10	C16H15+
216.102	999	C13H14NO2+
