Mass spectrum: Nicosulfuron; LC-ESI-ITFT; MS2; CE: 90%; R=30000; [M-H]-
Name: Nicosulfuron
Name: 2-[(4,6-dimethoxypyrimidin-2-yl)carbamoylsulfamoyl]-N,N-dimethyl-nicotinamide
Formula: C15H18N6O6S
Exact mass: 410.1009
SMILES: O=C(Nc1nc(cc(OC)n1)OC)NS(=O)(=O)c2ncccc2C(=O)N(C)C
InChI: InChI=1S/C15H18N6O6S/c1-21(2)13(22)9-6-5-7-16-12(9)28(24,25)20-15(23)19-14-17-10(26-3)8-11(18-14)27-4/h5-8H,1-4H3,(H2,17,18,19,20,23)
Instrument: LTQ Orbitrap XL Thermo Scientific
Instrument type: LC-ESI-ITFT
Ms type: MS2
Ion mode: NEGATIVE
Ionization: ESI
Fragmentation mode: HCD
Collision energy: 90 % (nominal)
Resolution: 30000
Column name: XBridge C18 3.5um, 2.1x50mm, Waters
Retention time: 7.0 min
Base peak: 409.093
Precursor m/z: 409.0936
Precursor type: [M-H]-
m/z	relative intensity	assigned
64.0066	109	C3N2-
65.0146	182	C3HN2-
65.9986	999	C3NO-
107.0127	144	C4HN3O-
122.0362	232	C5H4N3O-
139.0393	89	C5H5N3O2-
