Mass spectrum: Triclocarban; LC-ESI-ITFT; MS2; CE: 75%; R=15000; [M+H]+
Name: Triclocarban
Name: 1-(4-chlorophenyl)-3-(3,4-dichlorophenyl)urea
Formula: C13H9Cl3N2O
Exact mass: 313.9780
SMILES: Clc2ccc(NC(=O)Nc1ccc(Cl)cc1)cc2Cl
InChI: InChI=1S/C13H9Cl3N2O/c14-8-1-3-9(4-2-8)17-13(19)18-10-5-6-11(15)12(16)7-10/h1-7H,(H2,17,18,19)
Instrument: LTQ Orbitrap XL Thermo Scientific
Instrument type: LC-ESI-ITFT
Ms type: MS2
Ion mode: POSITIVE
Ionization: ESI
Fragmentation mode: HCD
Collision energy: 75 % (nominal)
Resolution: 15000
Column name: XBridge C18 3.5um, 2.1x50mm, Waters
Retention time: 14.8 min
Base peak: 314.9854
Precursor m/z: 314.9853
Precursor type: [M+H]+
m/z	relative intensity	assigned
90.0337	4	C6H4N+
92.0494	4	C6H6N+
93.0572	425	C6H7N+
98.9996	18	C5H4Cl+
123.9941	3	C9O+
126.0104	139	C6H5ClN+
127.0182	999	C6H6ClN+
128.0261	71	C6H7ClN+
132.9606	17	C5H3Cl2+
139.0057	12	C6H4ClN2+
159.9714	80	C6H4Cl2N+
161.987	46	C6H6Cl2N+
172.9666	7	C9ClNO+
