Mass spectrum: Propranolol; LC-ESI-ITFT; MS2; CE: 35%; R=30000; [M+H]+
Name: Propranolol
Name: 1-(1-naphthalenyloxy)-3-(propan-2-ylamino)-2-propanol
Formula: C16H21NO2
Exact mass: 259.1572
SMILES: CC(C)NCC(COC1=CC=CC2=CC=CC=C21)O
InChI: InChI=1S/C16H21NO2/c1-12(2)17-10-14(18)11-19-16-9-5-7-13-6-3-4-8-15(13)16/h3-9,12,14,17-18H,10-11H2,1-2H3
Instrument: LTQ Orbitrap XL Thermo Scientific
Instrument type: LC-ESI-ITFT
Ms type: MS2
Ion mode: POSITIVE
Ionization: ESI
Fragmentation mode: CID
Collision energy: 35 % (nominal)
Resolution: 30000
Column name: XBridge C18 3.5um, 2.1x50mm, Waters
Retention time: 6.6 min
Base peak: 260.165
Precursor m/z: 260.1645
Precursor type: [M+H]+
m/z	relative intensity	assigned
86.0964	32	C5H12N+
90.0549	7	C3H8NO2+
98.0964	162	C6H12N+
116.107	799	C6H14NO+
129.0698	19	C10H9+
132.1018	60	C6H14NO2+
141.0697	52	C11H9+
145.0645	5	C10H9O+
153.0701	5	C12H9+
155.0854	34	C12H11+
157.0648	333	C11H9O+
165.0697	13	C13H9+
168.0569	3	C12H8O+
183.0804	999	C13H11O+
200.1068	17	C13H14NO+
218.1174	196	C13H16NO2+
225.1272	14	C16H17O+
242.1537	68	C16H20NO+
