Mass spectrum: Crotamiton; LC-ESI-QFT; MS2; CE: 120; R=35000; [M+H]+
Name: Crotamiton
Name: N-ethyl-N-(2-methylphenyl)but-2-enamide
Formula: C13H17NO
Exact mass: 203.13101
SMILES: O=C(N(c1ccccc1C)CC)C=CC
InChI: InChI=1S/C13H17NO/c1-4-8-13(15)14(5-2)12-10-7-6-9-11(12)3/h4,6-10H,5H2,1-3H3
Instrument: Q Exactive Plus Orbitrap Thermo Scientific
Instrument type: LC-ESI-QFT
Ms type: MS2
Ion mode: POSITIVE
Ionization: ESI
Fragmentation mode: HCD
Collision energy: 120 (nominal)
Resolution: 35000
Column name: XBridge C18 3.5um, 2.1x50mm, Waters
Retention time: 9.8 min
Base peak: 204.1383
Precursor m/z: 204.1383
Precursor type: [M+H]+
m/z	relative intensity	assigned
50.0151	1	C4H2+
51.023	2	C4H3+
52.0182	1	C3H2N+
53.0022	108	C3HO+
53.0386	11	C4H5+
53.9975	27	C2NO+
54.0101	6	C3H2O+
55.0179	1	C3H3O+
55.0543	1	C4H7+
63.0229	7	C5H3+
65.0386	253	C5H5+
66.0464	9	C5H6+
67.0417	1	C4H5N+
67.9893	36	C3O2+
68.0495	162	C4H6N+
69.0335	999	C4H5O+
77.0385	30	C6H5+
78.0088	5	C3N3+
78.0339	1	C5H4N+
78.0464	10	C6H6+
79.0542	72	C6H7+
80.0495	4	C5H6N+
81.0334	1	C5H5O+
81.0699	2	C6H9+
89.0386	23	C7H5+
90.0339	10	C6H4N+
90.0464	7	C7H6+
91.0543	533	C7H7+
92.0496	2	C6H6N+
92.0621	6	C7H8+
93.0574	345	C6H7N+
94.0414	2	C6H6O+
95.0492	51	C6H7O+
96.0445	4	C5H6NO+
103.0543	11	C8H7+
104.0495	15	C7H6N+
104.0621	6	C8H8+
105.0335	1	C7H5O+
105.0448	25	C6H5N2+
105.07	8	C8H9+
106.0652	902	C7H8N+
107.073	111	C7H9N+
108.0808	45	C7H10N+
109.0649	8	C7H9O+
115.0543	32	C9H7+
116.0494	14	C8H6N+
116.0622	5	C9H8+
117.0574	28	C8H7N+
117.07	4	C9H9+
118.0652	41	C8H8N+
119.0365	12	C7H5NO+
119.0605	6	C7H7N2+
119.073	19	C8H9N+
120.0808	20	C8H10N+
121.0887	27	C8H11N+
128.0495	7	C9H6N+
128.0621	4	C10H8+
129.07	2	C10H9+
130.0652	16	C9H8N+
131.0731	5	C9H9N+
132.0446	14	C8H6NO+
132.0808	4	C9H10N+
134.0601	4	C8H8NO+
134.0965	20	C9H12N+
136.1123	3	C9H14N+
140.0495	1	C10H6N+
142.0652	10	C10H8N+
143.073	10	C10H9N+
144.0807	1	C10H10N+
146.0601	11	C9H8NO+
154.0652	2	C11H8N+
156.0812	2	C11H10N+
160.0758	2	C10H10NO+
