Mass spectrum: Paclobutrazole; LC-ESI-QFT; MS2; CE: 150; R=35000; [M+H]+
Name: Paclobutrazole
Name: Paclobutrazol
Name: 1-(4-chlorophenyl)-4,4-dimethyl-2-(1,2,4-triazol-1-yl)pentan-3-ol
Formula: C15H20ClN3O
Exact mass: 293.12949
SMILES: CC(C)(C)C(C(CC1=CC=C(C=C1)Cl)N2C=NC=N2)O
InChI: InChI=1S/C15H20ClN3O/c1-15(2,3)14(20)13(19-10-17-9-18-19)8-11-4-6-12(16)7-5-11/h4-7,9-10,13-14,20H,8H2,1-3H3
Instrument: Q Exactive Plus Orbitrap Thermo Scientific
Instrument type: LC-ESI-QFT
Ms type: MS2
Ion mode: POSITIVE
Ionization: ESI
Fragmentation mode: HCD
Collision energy: 150 (nominal)
Resolution: 35000
Column name: XBridge C18 3.5um, 2.1x50mm, Waters
Retention time: 10.6 min
Base peak: 294.1362
Precursor m/z: 294.1368
Precursor type: [M+H]+
m/z	relative intensity	assigned
50.0151	6	C4H2+
51.023	7	C4H3+
53.0022	5	C3HO+
53.0386	5	C4H5+
59.0492	5	C3H7O+
62.0152	6	C5H2+
63.023	64	C5H3+
64.0308	3	C5H4+
65.0386	20	C5H5+
66.0464	3	C5H6+
69.07	1	C5H9+
70.04	999	C2H4N3+
72.984	47	C3H2Cl+
74.0151	2	C6H2+
74.9996	9	C3H4Cl+
75.0229	18	C6H3+
76.0308	2	C6H4+
77.0385	10	C6H5+
78.0464	7	C6H6+
89.0386	171	C7H5+
90.0465	53	C7H6+
91.0543	8	C7H7+
95.0492	21	C6H7O+
96.984	2	C5H2Cl+
98.9997	92	C5H4Cl+
102.0465	14	C8H6+
103.0543	7	C8H7+
104.0621	1	C8H8+
105.0448	13	C6H5N2+
115.0543	29	C9H7+
116.0621	1	C9H8+
125.0154	63	C7H6Cl+
128.0622	15	C10H8+
129.0449	2	C8H5N2+
129.0699	7	C10H9+
141.07	3	C11H9+
155.0605	3	C10H7N2+
