Mass spectrum: Irgarol-descyclopropyl; LC-ESI-ITFT; MS2; CE: 15%; R=15000; [M+H]+
Name: Irgarol-descyclopropyl
Name: 2-N-tert-butyl-6-methylsulfanyl-1,3,5-triazine-2,4-diamine
Formula: C8H15N5S
Exact mass: 213.1048
SMILES: S(C)-c(nc(n1)N)nc1NC(C)(C)C
InChI: InChI=1S/C8H15N5S/c1-8(2,3)13-6-10-5(9)11-7(12-6)14-4/h1-4H3,(H3,9,10,11,12,13)
Instrument: LTQ Orbitrap XL Thermo Scientific
Instrument type: LC-ESI-ITFT
Ms type: MS2
Ion mode: POSITIVE
Ionization: ESI
Fragmentation mode: HCD
Collision energy: 15 % (nominal)
Resolution: 15000
Column name: XBridge C18 3.5um, 2.1x50mm, Waters
Retention time: 6.7 min
Base peak: 214.1125
Precursor m/z: 214.1121
Precursor type: [M+H]+
m/z	relative intensity	assigned
158.0496	46	C4H8N5S+
214.1121	999	C8H16N5S+
