Mass spectrum: Fluvastatin; LC-ESI-QFT; MS2; CE: 15; R=35000; [M+H]+
Name: Fluvastatin
Name: (3R,5S)-7-[3-(4-fluorophenyl)-1-isopropyl-2-indolyl]-3,5-dihydroxy-6-heptenoic acid
Formula: C24H26FNO4
Exact mass: 411.18459
SMILES: O=C(O)C[C@H](O)C[C@H](O)/C=C/c2c(c1ccccc1n2C(C)C)c3ccc(F)cc3
InChI: InChI=1S/C24H26FNO4/c1-15(2)26-21-6-4-3-5-20(21)24(16-7-9-17(25)10-8-16)22(26)12-11-18(27)13-19(28)14-23(29)30/h3-12,15,18-19,27-28H,13-14H2,1-2H3,(H,29,30)/b12-11+/t18-,19-/m1/s1
Instrument: Q Exactive Orbitrap Thermo Scientific
Instrument type: LC-ESI-QFT
Ms type: MS2
Ion mode: POSITIVE
Ionization: ESI
Fragmentation mode: HCD
Collision energy: 15 (nominal)
Resolution: 35000
Column name: XBridge C18 3.5um, 2.1x50mm, Waters
Retention time: 13.5 min
Base peak: 412.1916
Precursor m/z: 412.1919
Precursor type: [M+H]+
m/z	relative intensity	assigned
123.0439	10	C7H7O2+
141.0545	15	C7H9O3+
159.065	5	C7H11O4+
212.0875	5	C14H11FN+
222.0709	1	C15H9FN+
223.079	2	C15H10FN+
224.0869	125	C15H11FN+
238.1025	1	C16H13FN+
254.1339	17	C17H17FN+
264.1187	1	C18H15FN+
266.134	716	C18H17FN+
280.1496	39	C19H19FN+
290.1336	3	C20H17FN+
292.1499	1	C20H19FN+
306.165	3	C21H21FN+
334.1234	2	C21H17FNO2+
352.1344	28	C21H19FNO3+
369.1368	1	C21H20FNO4+
370.1449	65	C21H21FNO4+
376.1707	17	C24H23FNO2+
394.1811	230	C24H25FNO3+
412.1917	999	C24H27FNO4+
