Mass spectrum: Dicloran; LC-ESI-QFT; MS2; CE: 75%; R=17500; [M-H]-
Name: Dicloran
Name: 2,6-dichloro-4-nitroaniline
Formula: C6H4Cl2N2O2
Exact mass: 205.9650
SMILES: C1=C(C=C(C(=C1Cl)N)Cl)[N+](=O)[O-]
InChI: InChI=1S/C6H4Cl2N2O2/c7-4-1-3(10(11)12)2-5(8)6(4)9/h1-2H,9H2
Instrument: Exploris 240 Orbitrap Thermo Scientific
Instrument type: LC-ESI-QFT
Ms type: MS2
Ion mode: NEGATIVE
Ionization: ESI
Fragmentation mode: HCD
Collision energy: 75 % (nominal)
Resolution: 17500
Column name: XBridge C18 3.5um, 2.1x50mm, Waters
Retention time: 7.256 min
Base peak: 162.8393
Precursor m/z: 204.9577
Precursor type: [M-H]-
m/z	relative intensity	assigned
45.9935	556	NO2-
122.9882	390	C6H2ClN-
138.9831	623	C6H2ClNO-
168.9813	376	C6H2ClN2O2-
174.9597	364	C6H3Cl2NO-
204.9577	999	C6H3Cl2N2O2-
