Mass spectrum: N'-(2,4-Dimethylphenyl)-N-methylformamidine; LC-ESI-ITFT; MS2; CE: 90%; R=30000; [M+H]+
Name: N'-(2,4-Dimethylphenyl)-N-methylformamidine
Name: Methanimidamide, N-(2,4-dimethylphenyl)-N'-methyl-
Name: N-(2,4-dimethylphenyl)-N'-methyl-formamidine
Formula: C10H14N2
Exact mass: 162.1157
SMILES: C(=NC)Nc1c(cc(cc1)C)C
InChI: InChI=1S/C10H14N2/c1-8-4-5-10(9(2)6-8)12-7-11-3/h4-7H,1-3H3,(H,11,12)
Instrument: LTQ Orbitrap XL Thermo Scientific
Instrument type: LC-ESI-ITFT
Ms type: MS2
Ion mode: POSITIVE
Ionization: ESI
Fragmentation mode: HCD
Collision energy: 90 % (nominal)
Resolution: 30000
Column name: XBridge C18 3.5um, 2.1x50mm, Waters
Retention time: 4.5 min
Base peak: 163.1229
Precursor m/z: 163.123
Precursor type: [M+H]+
m/z	relative intensity	assigned
77.0386	37	C6H5+
79.0542	94	C6H7+
91.0542	3	C7H7+
95.049	5	C6H7O+
95.0856	4	C7H11+
103.0542	75	C8H7+
105.0699	611	C8H9+
106.0651	47	C7H8N+
107.073	999	C7H9N+
115.0542	7	C9H7+
117.0573	500	C8H7N+
120.0808	41	C8H10N+
121.0887	13	C8H11N+
122.0964	325	C8H12N+
123.0805	2	C8H11O+
130.0652	8	C9H8N+
131.0729	14	C9H9N+
132.0808	184	C9H10N+
133.076	28	C8H9N2+
136.1119	1	C9H14N+
147.0916	5	C9H11N2+
148.0993	1	C9H12N2+
163.123	30	C10H15N2+
