Mass spectrum: CGA62826 (2-[2,6-dimethylphenyl)-methoxyacetylamino]propionic acid; LC-ESI-QFT; MS2; CE: 75; R=35000; [M-H]-
Name: CGA62826 (2-[2,6-dimethylphenyl)-methoxyacetylamino]propionic acid
Name: N-(2,6-Dimethylphenyl)-N-(methoxyacetyl)-L-alanine
Name: (2S)-2-(N-(2-methoxyacetyl)-2,6-dimethylanilino)propanoic acid
Formula: C14H19NO4
Exact mass: 265.13141
SMILES: Cc1cccc(c1N([C@@H](C)C(=O)O)C(=O)COC)C
InChI: InChI=1S/C14H19NO4/c1-9-6-5-7-10(2)13(9)15(11(3)14(17)18)12(16)8-19-4/h5-7,11H,8H2,1-4H3,(H,17,18)/t11-/m0/s1
Instrument: Q Exactive Plus Orbitrap Thermo Scientific
Instrument type: LC-ESI-QFT
Ms type: MS2
Ion mode: NEGATIVE
Ionization: ESI
Fragmentation mode: HCD
Collision energy: 75 (nominal)
Resolution: 35000
Column name: XBridge C18 3.5um, 2.1x50mm, Waters
Retention time: 7.8 min
Base peak: 264.1239
Precursor m/z: 264.1241
Precursor type: [M-H]-
m/z	relative intensity	assigned
55.0189	7	C3H3O-
57.0346	88	C3H5O-
58.006	8	C2H2O2-
66.035	2	C4H4N-
69.0347	4	C4H5O-
71.014	14	C3H3O2-
72.9932	4	C2HO3-
85.0295	336	C4H5O2-
87.0451	3	C4H7O2-
88.0404	25	C3H6NO2-
89.0245	120	C3H5O3-
105.0711	1	C8H9-
116.0505	7	C8H6N-
120.0819	232	C8H10N-
121.0659	236	C8H9O-
129.0584	10	C9H7N-
130.0662	999	C9H8N-
131.0377	4	C8H5NO-
132.0818	26	C9H10N-
142.0662	6	C10H8N-
143.074	22	C10H9N-
144.0819	371	C10H10N-
145.0534	12	C9H7NO-
146.0612	120	C9H8NO-
146.0976	130	C10H12N-
148.0769	11	C9H10NO-
148.1133	22	C10H14N-
156.0819	1	C11H10N-
158.0611	102	C10H8NO-
160.0768	2	C10H10NO-
170.0976	5	C12H12N-
172.0768	2	C11H10NO-
174.0924	61	C11H12NO-
175.0638	4	C10H9NO2-
176.0717	10	C10H10NO2-
177.0792	1	C10H11NO2-
192.103	45	C11H14NO2-
