Mass spectrum: Difethialone; LC-ESI-QFT; MS2; CE: 180%; R=17500; [M+H]+
Name: Difethialone
Name: 3-[3-[4-(4-bromophenyl)phenyl]-1,2,3,4-tetrahydronaphthalen-1-yl]-2-hydroxythiochromen-4-one
Formula: C31H23BrO2S
Exact mass: 538.0602
SMILES: C1C(CC2=CC=CC=C2C1C3=C(SC4=CC=CC=C4C3=O)O)C5=CC=C(C=C5)C6=CC=C(C=C6)Br
InChI: InChI=1S/C31H23BrO2S/c32-24-15-13-20(14-16-24)19-9-11-21(12-10-19)23-17-22-5-1-2-6-25(22)27(18-23)29-30(33)26-7-3-4-8-28(26)35-31(29)34/h1-16,23,27,34H,17-18H2
Instrument: Exploris 240 Orbitrap Thermo Scientific
Instrument type: LC-ESI-QFT
Ms type: MS2
Ion mode: POSITIVE
Ionization: ESI
Fragmentation mode: HCD
Collision energy: 180 % (nominal)
Resolution: 17500
Column name: XBridge C18 3.5um, 2.1x50mm, Waters
Retention time: 17.282 min
Base peak: 541.0654
Precursor m/z: 539.0675
Precursor type: [M+H]+
m/z	relative intensity	assigned
63.0229	167	C5H3+
65.0386	999	C5H5+
68.9793	164	C3HS+
77.0387	173	C6H5+
78.0464	73	C6H6+
89.0386	257	C7H5+
90.0467	35	C7H6+
91.0543	437	C7H7+
95.0492	181	C6H7O+
102.0464	201	C8H6+
108.0032	37	C6H4S+
109.0105	126	C6H5S+
113.0387	48	C9H5+
115.0542	525	C9H7+
126.0464	141	C10H6+
127.0541	67	C10H7+
128.0622	190	C10H8+
134.0186	23	C8H6S+
139.0541	283	C11H7+
145.0649	20	C10H9O+
150.0464	353	C12H6+
151.0543	166	C12H7+
152.0621	657	C12H8+
153.0696	40	C12H9+
163.0542	492	C13H7+
164.062	152	C13H8+
165.0699	190	C13H9+
169.065	311	C12H9O+
176.0621	691	C14H8+
177.0701	128	C14H9+
178.0777	161	C14H10+
189.0701	116	C15H9+
200.0619	69	C16H8+
202.0781	50	C16H10+
213.0698	104	C17H9+
226.078	113	C18H10+
237.07	349	C19H9+
239.0857	333	C19H11+
250.0784	225	C20H10+
252.0932	385	C20H12+
