Mass spectrum: Minocycline; LC-ESI-QFT; MS2; CE: 75; R=35000; [M-H]-
Name: Minocycline
Name: Minocin
Name: (4S,4aS,5aR,12aS)-4,7-Bis(dimethylamino)-3,10,12,12a-tetrahydroxy-1,11-dioxo-1,4,4a,5,5a,6,11,12a-octahydro-2-tetracenecarboxamide
Formula: C23H27N3O7
Exact mass: 457.18490
SMILES: [H][C@@]12CC3=C(C(O)=CC=C3N(C)C)C(=O)C1=C(O)[C@]1(O)C(=O)C(C(N)=O)=C(O)[C@@H](N(C)C)[C@]1([H])C2
InChI: InChI=1S/C23H27N3O7/c1-25(2)12-5-6-13(27)15-10(12)7-9-8-11-17(26(3)4)19(29)16(22(24)32)21(31)23(11,33)20(30)14(9)18(15)28/h5-6,9,11,17,27,29-30,33H,7-8H2,1-4H3,(H2,24,32)/t9-,11-,17-,23-/m0/s1
Instrument: Q Exactive Plus Orbitrap Thermo Scientific
Instrument type: LC-ESI-QFT
Ms type: MS2
Ion mode: NEGATIVE
Ionization: ESI
Fragmentation mode: HCD
Collision energy: 75 (nominal)
Resolution: 35000
Column name: XBridge C18 3.5um, 2.1x50mm, Waters
Retention time: 3.6 min
Base peak: 456.1772
Precursor m/z: 456.1776
Precursor type: [M-H]-
m/z	relative intensity	assigned
50.0035	9	C3N-
63.024	95	C5H3-
64.0193	2	C4H2N-
65.0033	23	C4HO-
65.0396	11	C5H5-
65.9985	92	C3NO-
68.0142	16	C3H2NO-
68.9982	56	C3HO2-
71.0139	12	C3H3O2-
79.0189	9	C5H3O-
81.022	10	C4H3NO-
81.0346	9	C5H5O-
83.0138	5	C4H3O2-
84.009	278	C3H2NO2-
86.0247	18	C3H4NO2-
90.0347	3	C6H4N-
91.019	16	C6H3O-
93.0345	31	C6H5O-
95.0138	29	C5H3O2-
96.0091	75	C4H2NO2-
96.993	28	C4HO3-
97.0295	4	C5H5O2-
99.0087	2	C4H3O3-
107.0138	35	C6H3O2-
107.0502	17	C7H7O-
107.0617	8	C6H7N2-
108.0216	11	C6H4O2-
109.0294	69	C6H5O2-
111.0085	2	C5H3O3-
118.0298	11	C7H4NO-
119.0138	90	C7H3O2-
120.0085	2	C6H2NO2-
120.0454	3	C7H6NO-
121.0295	16	C7H5O2-
121.0534	5	C7H7NO-
122.0252	2	C6H4NO2-
122.037	3	C7H6O2-
123.0088	5	C6H3O3-
123.0451	13	C7H7O2-
124.004	10	C5H2NO3-
124.0404	4	C6H6NO2-
124.0766	4	C7H10NO-
125.0241	9	C6H5O3-
125.0719	18	C6H9N2O-
126.0196	29	C5H4NO3-
126.056	136	C6H8NO2-
131.0373	3	C8H5NO-
132.0454	9	C8H6NO-
134.0248	119	C7H4NO2-
135.0087	244	C7H3O3-
135.069	54	C8H9NO-
136.0403	25	C7H6NO2-
137.0243	29	C7H5O3-
138.0194	2	C6H4NO3-
138.0322	10	C7H6O3-
139.0148	228	C5H3N2O3-
142.9985	10	C5H3O5-
144.0454	3	C9H6NO-
145.0295	45	C9H5O2-
146.0611	41	C9H8NO-
147.0325	4	C8H5NO2-
149.0355	2	C7H5N2O2-
150.0198	17	C7H4NO3-
150.0924	28	C9H12NO-
152.0352	13	C7H6NO3-
154.0382	9	C6H6N2O3-
157.0532	4	C10H7NO-
158.0247	5	C9H4NO2-
158.0613	18	C10H8NO-
159.0323	4	C9H5NO2-
159.045	9	C10H7O2-
160.0404	276	C9H6NO2-
161.0244	3	C9H5O3-
162.0196	153	C8H4NO3-
163.0036	81	C8H3O4-
163.0273	25	C8H5NO3-
164.0115	27	C8H4O4-
164.0353	4	C8H6NO3-
165.0308	5	C7H5N2O3-
165.043	5	C8H7NO3-
169.0254	10	C6H5N2O4-
171.0689	16	C11H9NO-
172.0404	999	C10H6NO2-
173.048	248	C10H7NO2-
174.0559	49	C10H8NO2-
176.0354	2	C9H6NO3-
177.0306	40	C8H5N2O3-
179.0466	3	C8H7N2O3-
180.0302	4	C8H6NO4-
181.0143	4	C8H5O5-
184.0405	12	C11H6NO2-
185.0482	2	C11H7NO2-
186.0559	210	C11H8NO2-
186.0922	25	C12H12NO-
187.0637	290	C11H9NO2-
188.0352	135	C10H6NO3-
188.0716	511	C11H10NO2-
190.0509	117	C10H8NO3-
194.061	10	C13H8NO-
195.0453	4	C13H7O2-
196.053	4	C13H8O2-
196.0762	2	C13H10NO-
198.0558	13	C12H8NO2-
199.0636	4	C12H9NO2-
200.0716	46	C12H10NO2-
201.0431	4	C11H7NO3-
201.0791	27	C12H11NO2-
202.0507	10	C11H8NO3-
202.0873	62	C12H12NO2-
203.0587	82	C11H9NO3-
204.0297	15	C10H6NO4-
209.0479	12	C13H7NO2-
209.0604	11	C14H9O2-
209.0847	2	C14H11NO-
210.056	60	C13H8NO2-
211.0402	4	C13H7O3-
211.0643	13	C13H9NO2-
211.0993	2	C14H13NO-
212.0716	49	C13H10NO2-
213.0792	4	C13H11NO2-
214.0509	69	C12H8NO3-
214.0872	21	C13H12NO2-
215.0585	84	C12H9NO3-
215.0951	16	C13H13NO2-
216.0664	2	C12H10NO3-
216.1026	17	C13H14NO2-
218.0455	13	C11H8NO4-
220.0767	10	C15H10NO-
221.0842	3	C15H11NO-
222.0562	23	C14H8NO2-
223.0402	9	C14H7O3-
223.0638	21	C14H9NO2-
224.0479	42	C14H8O3-
224.0715	144	C14H10NO2-
225.0439	6	C13H7NO3-
225.0558	15	C14H9O3-
225.0794	53	C14H11NO2-
226.0505	4	C13H8NO3-
226.0871	46	C14H12NO2-
227.0353	4	C13H7O4-
227.059	19	C13H9NO3-
227.0949	24	C14H13NO2-
228.0667	25	C13H10NO3-
229.0745	11	C13H11NO3-
230.082	62	C13H12NO3-
234.0559	14	C15H8NO2-
235.064	4	C15H9NO2-
236.0714	72	C15H10NO2-
237.0428	13	C14H7NO3-
237.0551	9	C15H9O3-
237.0793	41	C15H11NO2-
238.0509	513	C14H8NO3-
238.0872	97	C15H12NO2-
239.0586	32	C14H9NO3-
239.095	67	C15H13NO2-
240.0663	22	C14H10NO3-
240.1029	17	C15H14NO2-
241.0504	9	C14H9O4-
241.0744	14	C14H11NO3-
242.0822	107	C14H12NO3-
243.0531	3	C13H9NO4-
243.0899	60	C14H13NO3-
246.0555	10	C16H8NO2-
247.0637	12	C16H9NO2-
248.0715	96	C16H10NO2-
249.0425	4	C15H7NO3-
249.0552	3	C16H9O3-
249.0792	14	C16H11NO2-
250.0507	40	C15H8NO3-
250.0872	27	C16H12NO2-
251.059	38	C15H9NO3-
251.0951	13	C16H13NO2-
252.0665	455	C15H10NO3-
252.102	24	C16H14NO2-
253.0743	585	C15H11NO3-
254.0458	42	C14H8NO4-
254.082	63	C15H12NO3-
254.1184	10	C16H16NO2-
255.0537	111	C14H9NO4-
255.0899	22	C15H13NO3-
256.0984	9	C15H14NO3-
256.1573	4	C16H20N2O-
258.1135	48	C15H16NO3-
259.0635	3	C17H9NO2-
260.0716	26	C17H10NO2-
261.0565	2	C17H9O3-
261.0793	11	C17H11NO2-
262.0507	11	C16H8NO3-
262.0869	27	C17H12NO2-
263.0585	20	C16H9NO3-
263.0709	4	C17H11O3-
263.095	14	C17H13NO2-
264.0664	69	C16H10NO3-
264.1027	4	C17H14NO2-
265.0511	5	C16H9O4-
265.0741	107	C16H11NO3-
266.0456	13	C15H8NO4-
266.082	173	C16H12NO3-
267.0539	11	C15H9NO4-
267.0898	66	C16H13NO3-
268.0614	202	C15H10NO4-
268.0978	162	C16H14NO3-
269.0692	26	C15H11NO4-
269.1288	2	C16H17N2O2-
270.077	366	C15H12NO4-
270.1135	41	C16H16NO3-
271.0849	156	C15H13NO4-
274.0511	22	C17H8NO3-
275.0592	4	C17H9NO3-
276.0663	45	C17H10NO3-
277.0739	14	C17H11NO3-
278.0457	48	C16H8NO4-
278.0594	3	C17H10O4-
278.0818	58	C17H12NO3-
278.1187	4	C18H16NO2-
279.0895	12	C17H13NO3-
280.062	22	C16H10NO4-
280.0976	37	C17H14NO3-
281.0698	3	C16H11NO4-
281.1052	12	C17H15NO3-
282.0769	62	C16H12NO4-
282.1127	7	C17H16NO3-
283.0852	20	C16H13NO4-
284.0928	24	C16H14NO4-
285.1005	48	C16H15NO4-
286.1083	217	C16H16NO4-
287.0577	2	C18H9NO3-
288.0668	27	C18H10NO3-
289.0743	14	C18H11NO3-
290.0457	15	C17H8NO4-
290.0823	64	C18H12NO3-
291.0533	12	C17H9NO4-
291.0903	12	C18H13NO3-
292.0613	103	C17H10NO4-
293.0697	19	C17H11NO4-
294.0406	27	C16H8NO5-
294.0766	5	C17H12NO4-
294.1144	5	C18H16NO3-
296.056	25	C16H10NO5-
298.1087	3	C17H16NO4-
299.1166	3	C17H17NO4-
304.0611	25	C18H10NO4-
305.0698	16	C18H11NO4-
306.0771	128	C18H12NO4-
307.085	4	C18H13NO4-
308.0566	13	C17H10NO5-
308.0925	13	C18H14NO4-
309.0645	3	C17H11NO5-
309.1246	10	C18H17N2O3-
310.0721	17	C17H12NO5-
311.0789	3	C17H13NO5-
313.1199	27	C17H17N2O4-
316.0616	11	C19H10NO4-
318.0413	3	C18H8NO5-
320.0567	14	C18H10NO5-
332.0562	13	C19H10NO5-
334.0718	22	C19H12NO5-
336.0502	2	C18H10NO6-
