Mass spectrum: Etodolac; LC-ESI-QFT; MS2; CE: 75; R=35000; [M+H]+
Name: Etodolac
Name: 2-(1,8-diethyl-4,9-dihydro-3H-pyrano[3,4-b]indol-1-yl)acetic acid
Formula: C17H21NO3
Exact mass: 287.15214
SMILES: CCC1=C2C(=CC=C1)C3=C(N2)C(OCC3)(CC)CC(=O)O
InChI: InChI=1S/C17H21NO3/c1-3-11-6-5-7-12-13-8-9-21-17(4-2,10-14(19)20)16(13)18-15(11)12/h5-7,18H,3-4,8-10H2,1-2H3,(H,19,20)
Instrument: Q Exactive Orbitrap Thermo Scientific
Instrument type: LC-ESI-QFT
Ms type: MS2
Ion mode: POSITIVE
Ionization: ESI
Fragmentation mode: HCD
Collision energy: 75 (nominal)
Resolution: 35000
Column name: XBridge C18 3.5um, 2.1x50mm, Waters
Retention time: 12.5 min
Base peak: 288.1594
Precursor m/z: 288.1594
Precursor type: [M+H]+
m/z	relative intensity	assigned
79.0543	2	C6H7+
89.0383	3	C7H5+
90.0463	2	C7H6+
91.0541	6	C7H7+
103.0542	4	C8H7+
105.0698	1	C8H9+
115.0542	28	C9H7+
116.062	22	C9H8+
117.0572	31	C8H7N+
117.0698	69	C9H9+
118.065	3	C8H8N+
127.0542	2	C10H7+
128.0495	4	C9H6N+
128.0619	5	C10H8+
129.0698	3	C10H9+
130.0651	30	C9H8N+
131.0729	2	C9H9N+
142.0652	26	C10H8N+
143.073	999	C10H9N+
144.0807	398	C10H10N+
145.0646	10	C10H9O+
145.0885	1	C10H11N+
145.101	3	C11H13+
146.0601	3	C9H8NO+
153.0698	2	C12H9+
154.0651	6	C11H8N+
154.0777	1	C12H10+
155.0604	14	C10H7N2+
155.0728	4	C11H9N+
155.0856	4	C12H11+
156.0808	53	C11H10N+
157.0886	126	C11H11N+
158.0964	15	C11H12N+
167.073	48	C12H9N+
168.0808	45	C12H10N+
169.0885	5	C12H11N+
170.0962	10	C12H12N+
171.1046	8	C12H13N+
172.112	191	C12H14N+
180.0807	123	C13H10N+
181.0885	79	C13H11N+
182.0965	44	C13H12N+
183.0678	2	C12H9NO+
183.1041	3	C13H13N+
184.112	5	C13H14N+
185.12	3	C13H15N+
186.1276	2	C13H16N+
193.0884	6	C14H11N+
194.0964	88	C14H12N+
195.1042	60	C14H13N+
196.112	43	C14H14N+
197.1203	3	C14H15N+
198.0914	3	C13H12NO+
198.1277	2	C14H16N+
199.0942	3	C8H13N3O3+
200.1434	1	C14H18N+
207.1042	2	C15H13N+
208.0759	5	C14H10NO+
208.1122	21	C15H14N+
209.1199	23	C15H15N+
210.1277	43	C15H16N+
211.0996	1	C14H13NO+
211.1351	2	C15H17N+
222.0913	5	C15H12NO+
222.1276	2	C16H16N+
223.099	2	C15H13NO+
224.1071	2	C15H14NO+
224.1433	5	C16H18N+
236.107	2	C16H14NO+
238.1223	2	C16H16NO+
