Mass spectrum: Benfuracarb; LC-ESI-QFT; MS2; CE: 75%; R=17500; [M+H]+
Name: Benfuracarb
Name: ethyl 3-[[(2,2-dimethyl-3H-1-benzofuran-7-yl)oxycarbonyl-methylamino]sulfanyl-propan-2-ylamino]propanoate
Formula: C20H30N2O5S
Exact mass: 410.1875
SMILES: CCOC(=O)CCN(C(C)C)SN(C)C(=O)OC1=CC=CC2=C1OC(C2)(C)C
InChI: InChI=1S/C20H30N2O5S/c1-7-25-17(23)11-12-22(14(2)3)28-21(6)19(24)26-16-10-8-9-15-13-20(4,5)27-18(15)16/h8-10,14H,7,11-13H2,1-6H3
Instrument: Exploris 240 Orbitrap Thermo Scientific
Instrument type: LC-ESI-QFT
Ms type: MS2
Ion mode: POSITIVE
Ionization: ESI
Fragmentation mode: HCD
Collision energy: 75 % (nominal)
Resolution: 17500
Column name: XBridge C18 3.5um, 2.1x50mm, Waters
Retention time: 12.809 min
Base peak: 411.1952
Precursor m/z: 411.1948
Precursor type: [M+H]+
m/z	relative intensity	assigned
55.0178	105	C3H3O+
56.0496	51	C3H6N+
58.0288	99	C2H4NO+
58.9952	19	C2H3S+
70.0652	163	C4H8N+
73.0285	273	C3H5O2+
74.0059	594	C2H4NS+
74.0602	35	C3H8NO+
78.0006	16	CH4NOS+
79.0542	28	C6H7+
81.0701	48	C6H9+
84.9743	353	C3HOS+
90.0372	180	C3H8NS+
91.0544	48	C7H7+
97.0106	167	C5H5S+
102.0009	314	C3H4NOS+
105.07	102	C8H9+
109.0284	421	C6H5O2+
109.0646	73	C7H9O+
111.0805	40	C7H11O+
115.0546	139	C9H7+
116.0621	219	C9H8+
119.0493	33	C8H7O+
120.0115	22	C3H6NO2S+
120.0569	19	C8H8O+
123.0441	63	C7H7O2+
125.0055	261	C6H5OS+
125.0422	20	C7H9S+
133.0649	108	C9H9O+
137.0599	33	C8H9O2+
143.0492	85	C10H7O+
144.0572	447	C10H8O+
149.0416	80	C9H9S+
153.0011	54	C7H5O2S+
153.0369	173	C8H9OS+
162.0676	999	C10H10O2+
167.0158	73	C8H7O2S+
167.0525	92	C9H11OS+
177.0369	125	C10H9OS+
195.0476	354	C10H11O2S+
