Mass spectrum: Chlorothalonil TP SYN548580; LC-ESI-QFT; MS2; CE: 75%; R=15000; [M+H]+
Name: Chlorothalonil TP SYN548580
Name: 2,4,5-trichloro-6-hydroxyisophthalamide
Formula: C8H5Cl3N2O3
Exact mass: 281.9366
SMILES: NC(=O)c1c(O)c(Cl)c(Cl)c(C(=O)N)c1Cl
InChI: InChI=1S/C8H5Cl3N2O3/c9-3-1(7(12)15)4(10)5(11)6(14)2(3)8(13)16/h14H,(H2,12,15)(H2,13,16)
Instrument: Orbitrap Exploris 240 Thermo Scientific
Instrument type: LC-ESI-QFT
Ms type: MS2
Ion mode: POSITIVE
Ionization: ESI
Fragmentation mode: HCD
Collision energy: 75 % (nominal)
Resolution: 15000
Column name: Atlantis C18 3um, 3.0x150mm, Waters
Retention time: 9.698 min
Base peak: 132.9582
Precursor m/z: 282.9439
Precursor type: [M+H]+
Precursor intensity: 38424076
m/z	relative intensity	assigned
106.9452	69	C3HCl2+
128.9738	33	C5H2ClO2+
130.9444	65	C5HCl2+
140.9063	21	C3Cl3+
140.9738	16	C6H2ClO2+
145.956	51	C5H2Cl2N+
146.9403	16	C2H4Cl3N+
152.9066	21	C4Cl3+
157.9326	17	C3H3Cl3N+
158.9399	107	C6HCl2O+
159.9485	29	C3H5Cl3N+
164.9059	211	C5Cl3+
166.9217	999	C5H2Cl3+
173.951	75	C6H2Cl2NO+
180.9014	73	C5Cl3O+
181.9327	33	C5H3Cl3N+
186.9347	185	C7HCl2O2+
187.9428	24	C7H2Cl2O2+
191.9174	19	C6HCl3N+
192.901	434	C6Cl3O+
194.9168	46	C6H2Cl3O+
201.9465	16	C4H5Cl3N2O+
204.9009	727	C7Cl3O+
220.8948	85	C7Cl3O2+
221.9273	29	C7H3Cl3NO+
222.9115	868	C7H2Cl3O2+
229.9408	111	C8H2Cl2NO3+
247.9085	32	C8HCl3NO2+
248.8907	884	C8Cl3O3+
266.9012	475	
280.9173	21	
