Mass spectrum: Tilidine; LC-ESI-QFT; MS2; CE: 30; R=35000; [M+H]+
Name: Tilidine
Name: ethyl (2R)-2-(dimethylamino)-1-phenylcyclohex-3-ene-1-carboxylate
Formula: C17H23NO2
Exact mass: 273.17288
SMILES: O=C(OCC)C2(c1ccccc1)[C@@H](\C=C/CC2)N(C)C
InChI: InChI=1S/C17H23NO2/c1-4-20-16(19)17(14-10-6-5-7-11-14)13-9-8-12-15(17)18(2)3/h5-8,10-12,15H,4,9,13H2,1-3H3/t15-,17?/m1/s1
Instrument: Q Exactive Orbitrap Thermo Scientific
Instrument type: LC-ESI-QFT
Ms type: MS2
Ion mode: POSITIVE
Ionization: ESI
Fragmentation mode: HCD
Collision energy: 30 (nominal)
Resolution: 35000
Column name: XBridge C18 3.5um, 2.1x50mm, Waters
Retention time: 5.2 min
Base peak: 274.1803
Precursor m/z: 274.1802
Precursor type: [M+H]+
m/z	relative intensity	assigned
73.0284	1	C3H5O2+
77.0384	5	C6H5+
79.0542	14	C6H7+
91.0542	14	C7H7+
98.0964	3	C6H12N+
101.0597	1	C5H9O2+
105.0335	2	C7H5O+
107.0855	1	C8H11+
111.0804	5	C7H11O+
115.0539	1	C9H7+
119.0855	10	C9H11+
123.0439	4	C7H7O2+
128.0619	1	C10H8+
129.0698	12	C10H9+
135.0803	1	C9H11O+
143.0854	3	C11H11+
151.0755	3	C9H11O2+
153.0701	1	C12H9+
155.0856	999	C12H11+
156.0932	2	C12H12+
157.101	18	C12H13+
165.0696	1	C13H9+
173.0598	10	C11H9O2+
173.096	6	C12H13O+
177.0912	2	C11H13O2+
183.0804	35	C13H11O+
185.1325	1	C14H17+
201.0909	24	C13H13O2+
201.1272	7	C14H17O+
229.1224	39	C15H17O2+
274.1801	40	C17H24NO2+
