Mass spectrum: Oxadiazon; LC-ESI-QFT; MS2; CE: 45; R=35000; [M+H]+
Name: Oxadiazon
Name: 5-tert-butyl-3-(2,4-dichloro-5-propan-2-yloxyphenyl)-1,3,4-oxadiazol-2-one
Formula: C15H18Cl2N2O3
Exact mass: 344.06945
SMILES: CC(C)OC1=C(C=C(C(=C1)N2C(=O)OC(=N2)C(C)(C)C)Cl)Cl
InChI: InChI=1S/C15H18Cl2N2O3/c1-8(2)21-12-7-11(9(16)6-10(12)17)19-14(20)22-13(18-19)15(3,4)5/h6-8H,1-5H3
Instrument: Q Exactive Plus Orbitrap Thermo Scientific
Instrument type: LC-ESI-QFT
Ms type: MS2
Ion mode: POSITIVE
Ionization: ESI
Fragmentation mode: HCD
Collision energy: 45 (nominal)
Resolution: 35000
Column name: XBridge C18 3.5um, 2.1x50mm, Waters
Retention time: 15.4 min
Base peak: 273.2055
Precursor m/z: 345.0767
Precursor type: [M+H]+
m/z	relative intensity	assigned
53.0022	3	C3HO+
57.0699	55	C4H9+
69.0699	1	C5H9+
71.0855	1	C5H11+
72.9837	1	C3H2Cl+
84.0808	4	C5H10N+
84.9839	2	C4H2Cl+
91.0543	1	C7H7+
94.0287	1	C5H4NO+
111.9948	2	C5H3ClN+
112.0394	1	C5H6NO2+
112.9789	4	C5H2ClO+
120.9605	1	C4H3Cl2+
127.9899	3	C5H3ClNO+
128.9975	4	C5H4ClNO+
130.0055	5	C5H5ClNO+
139.006	3	C6H4ClN2+
139.9899	7	C6H3ClNO+
140.9738	13	C6H2ClO2+
140.9977	1	C6H4ClNO+
147.9716	30	C5H4Cl2N+
148.0031	6	C7H2NO3+
148.9556	63	C5H3Cl2O+
155.0006	3	C6H4ClN2O+
155.9848	25	C6H3ClNO2+
163.9665	5	C5H4Cl2NO+
173.951	44	C6H2Cl2NO+
174.9709	2	C7H5Cl2O+
175.9667	44	C6H4Cl2NO+
176.9505	999	C6H3Cl2O2+
182.9957	7	C7H4ClN2O2+
183.9797	206	C7H3ClNO3+
184.9875	845	C7H4ClNO3+
190.9769	2	C9H2ClNO2+
191.9615	7	C6H4Cl2NO2+
195.0684	6	C10H12ClN2+
201.9458	101	C7H2Cl2NO2+
202.9533	6	C10ClO3+
202.9776	8	C7H5Cl2N2O+
208.977	2	C7H7Cl2O3+
217.0384	1	C7H15Cl2O3+
218.9724	4	C7H5Cl2N2O2+
219.9564	675	C7H4Cl2NO3+
223.0632	1	C11H12ClN2O+
224.0712	1	C11H13ClN2O+
246.9676	2	C8H5Cl2N2O3+
259.0405	3	C11H13Cl2N2O+
303.0299	20	C12H13Cl2N2O3+
