Mass spectrum: Nordiazepam; LC-ESI-QFT; MS2; CE: 75; R=35000; [M+H]+
Name: Nordiazepam
Name: Nordazepam (1-Demethyldiazepam)
Name: 7-chloro-5-phenyl-1,3-dihydro-1,4-benzodiazepin-2-one
Formula: C15H11ClN2O
Exact mass: 270.05599
SMILES: C1C(=O)NC2=C(C=C(C=C2)Cl)C(=N1)C3=CC=CC=C3
InChI: InChI=1S/C15H11ClN2O/c16-11-6-7-13-12(8-11)15(17-9-14(19)18-13)10-4-2-1-3-5-10/h1-8H,9H2,(H,18,19)
Instrument: Q Exactive Plus Orbitrap Thermo Scientific
Instrument type: LC-ESI-QFT
Ms type: MS2
Ion mode: POSITIVE
Ionization: ESI
Fragmentation mode: HCD
Collision energy: 75 (nominal)
Resolution: 35000
Column name: XBridge C18 3.5um, 2.1x50mm, Waters
Retention time: 9.3 min
Base peak: 271.0623
Precursor m/z: 271.0633
Precursor type: [M+H]+
m/z	relative intensity	assigned
51.0228	1	C4H3+
53.0385	9	C4H5+
63.0228	1	C5H3+
65.0385	18	C5H5+
77.0384	22	C6H5+
78.0336	1	C5H4N+
78.0462	4	C6H6+
79.0416	2	C5H5N+
79.0541	3	C6H7+
80.0493	1	C5H6N+
86.9995	2	C4H4Cl+
89.0384	12	C7H5+
90.0462	3	C7H6+
91.0541	392	C7H7+
95.049	32	C6H7O+
96.0443	3	C5H6NO+
102.0337	1	C7H4N+
103.0415	14	C7H5N+
104.0493	118	C7H6N+
105.0334	12	C7H5O+
105.0446	18	C6H5N2+
105.0572	76	C7H7N+
106.065	6	C7H8N+
113.0151	69	C6H6Cl+
114.0103	4	C5H5ClN+
116.0493	121	C8H6N+
117.0571	23	C8H7N+
118.0649	8	C8H8N+
120.0443	2	C7H6NO+
122.9994	7	C7H4Cl+
123.9947	7	C6H3ClN+
124.0073	1	C7H5Cl+
126.0104	4	C6H5ClN+
127.0182	64	C6H6ClN+
129.01	4	C6H6ClO+
129.0446	19	C8H5N2+
130.0052	4	C5H5ClNO+
130.0398	13	C7H4N3+
130.0524	65	C8H6N2+
131.0602	7	C8H7N2+
132.0444	3	C8H6NO+
133.0521	17	C8H7NO+
134.0599	3	C8H8NO+
138.0104	138	C7H5ClN+
139.0056	11	C6H4ClN2+
140.026	999	C7H7ClN+
144.0439	4	C9H6NO+
147.0551	2	C8H7N2O+
148.0631	2	C8H8N2O+
150.0104	41	C8H5ClN+
151.0056	1	C7H4ClN2+
152.0619	7	C12H8+
153.0698	5	C12H9+
157.0395	2	C9H5N2O+
157.0506	2	C8H5N4+
158.0473	104	C9H6N2O+
162.0548	2	C6H11ClN2O+
163.0054	9	C11HNO+
164.0133	10	C8H5ClN2+
164.0618	7	C13H8+
165.0213	570	C8H6ClN2+
166.0052	58	C8H5ClNO+
166.029	3	C8H7ClN2+
167.0728	2	C12H9N+
168.0208	5	C8H7ClNO+
168.0571	3	C12H8O+
177.0573	2	C13H7N+
177.9925	2	C8H3ClN2O+
178.065	8	C13H8N+
179.0728	17	C13H9N+
180.0805	94	C13H10N+
181.0884	34	C13H11N+
182.0838	2	C12H10N2+
190.0649	85	C14H8N+
191.0727	134	C14H9N+
192.0678	1	C13H8N2+
192.0805	20	C14H10N+
193.0161	9	C9H6ClN2O+
193.0758	11	C13H9N2+
193.0885	52	C14H11N+
196.0757	1	C13H10NO+
199.0307	27	C13H8Cl+
200.026	2	C12H7ClN+
201.0337	3	C15H5O+
205.0761	4	C14H9N2+
206.06	3	C14H8NO+
206.0837	41	C14H10N2+
207.068	24	C14H9NO+
207.0915	155	C14H11N2+
208.0993	514	C14H12N2+
209.0833	7	C14H11NO+
214.0416	83	C13H9ClN+
216.0573	13	C13H11ClN+
217.0759	12	C15H9N2+
218.0837	39	C15H10N2+
219.0677	20	C15H9NO+
224.0255	3	C14H7ClN+
225.0338	2	C14H8ClN+
226.0416	98	C14H9ClN+
227.0494	31	C14H10ClN+
235.0864	18	C15H11N2O+
241.0525	75	C14H10ClN2+
242.0366	4	C14H9ClNO+
242.0603	18	C14H11ClN2+
243.0682	17	C14H12ClN2+
252.0446	3	C15H9ClN2+
253.0526	2	C15H10ClN2+
271.0629	21	C15H12ClN2O+
