Mass spectrum: MCLY; LC-ESI-QFT; MS2; CE: 60%; R=17500; [M+H]+
Name: MCLY
Name: Microcystin LY
Name: (5R,8S,11R,12S,15S,18S,19S,22R)-15-[(4-hydroxyphenyl)methyl]-18-[(1E,3E,5S,6S)-6-methoxy-3,5-dimethyl-7-phenylhepta-1,3-dienyl]-1,5,12,19-tetramethyl-2-methylidene-8-(2-methylpropyl)-3,6,9,13,16,20,25-heptaoxo-1,4,7,10,14,17,21-heptazacyclopentacosane-11,22-dicarboxylic acid
Class: NA
Formula: C52H71N7O13
Exact mass: 1001.5110
SMILES: COC(Cc1ccccc1)C(C)\C=C(C)\C=C/C2NC(=O)C(Cc3ccc(O)cc3)NC(=O)C(C)C(NC(=O)C(CC(C)C)NC(=O)C(C)NC(=O)C(=C)N(C)C(=O)CCC(NC(=O)C2C)C(O)=O)C(O)=O
InChI: InChI=1S/C52H71N7O13/c1-28(2)24-40-50(67)58-44(52(70)71)32(6)46(63)56-41(26-36-17-19-37(60)20-18-36)49(66)54-38(21-16-29(3)25-30(4)42(72-10)27-35-14-12-11-13-15-35)31(5)45(62)55-39(51(68)69)22-23-43(61)59(9)34(8)48(65)53-33(7)47(64)57-40/h11-21,25,28,30-33,38-42,44,60H,8,22-24,26-27H2,1-7,9-10H3,(H,53,65)(H,54,66)(H,55,62)(H,56,63)(H,57,64)(H,58,67)(H,68,69)(H,70,71)/b21-16-,29-25+
Instrument: Q Exactive Plus Orbitrap Thermo Scientific
Instrument type: LC-ESI-QFT
Ms type: MS2
Ion mode: POSITIVE
Ionization: ESI
Fragmentation mode: HCD
Collision energy: 60 % (nominal)
Resolution: 17500
Column name: XBridge C18 3.5um, 2.1x50mm, Waters
Retention time: 10.738 min
Base peak: 164.9846
Precursor m/z: 1002.5183
Precursor type: [M+H]+
m/z	relative intensity	assigned
74.0237	15	C2H4NO2+
77.0385	15	C6H5+
79.0542	148	C6H7+
80.0495	17	C5H6N+
81.0699	13	C6H9+
82.0287	15	C4H4NO+
82.0651	108	C5H8N+
84.0444	179	C4H6NO+
84.0807	8	
85.0284	7	C4H5O2+
86.0599	10	
86.0964	394	C5H12N+
91.0543	526	C7H7+
93.0699	213	C7H9+
94.0651	24	C6H8N+
95.0492	107	C6H7O+
95.0856	23	C7H11+
96.0808	20	C6H10N+
99.0917	100	C5H11N2+
102.0549	24	C4H8NO2+
103.0542	452	C8H7+
105.0449	34	C6H5N2+
105.0699	404	C8H9+
107.0493	30	
107.0855	999	C8H11+
108.0681	5	C6H8N2+
108.0809	9	C7H10N+
109.0649	46	C7H9O+
110.06	53	C6H8NO+
110.0963	9	C7H12N+
112.0757	5	C6H10NO+
113.0234	28	C5H5O3+
113.0712	22	C5H9N2O+
115.0542	59	C9H7+
117.0699	126	C9H9+
118.0649	10	C8H8N+
119.0491	92	C8H7O+
119.0603	17	C7H7N2+
119.0855	52	C9H11+
120.0572	10	C8H8O+
120.0806	15	C8H10N+
120.0935	8	C9H12+
121.0649	14	C8H9O+
121.076	38	C7H9N2+
121.1013	16	C9H13+
122.06	13	C7H8NO+
122.0965	25	C8H12N+
123.0917	17	C7H11N2+
124.0755	25	C7H10NO+
124.1123	28	C8H14N+
125.071	10	C6H9N2O+
127.0866	807	C6H11N2O+
128.0619	28	C10H8+
128.0707	17	C6H10NO2+
129.0696	36	C10H9+
130.0499	33	C5H8NO3+
130.0653	9	C9H8N+
130.0773	6	C10H10+
131.0854	72	C10H11+
132.0808	10	C9H10N+
133.1013	36	C10H13+
135.0804	400	C9H11O+
135.1168	343	C10H15+
136.0757	594	C8H10NO+
138.0549	87	C7H8NO2+
139.0867	15	C7H11N2O+
140.071	8	C7H10NO2+
143.0858	37	C11H11+
145.0645	4	C10H9O+
145.1011	49	C11H13+
146.0602	43	C9H8NO+
146.0963	35	C10H12N+
146.1088	14	C11H14+
148.0756	4	C9H10NO+
149.071	72	C8H9N2O+
151.0864	11	C8H11N2O+
152.0709	6	C8H10NO2+
155.0814	114	C7H11N2O2+
157.1338	17	C8H17N2O+
158.0962	5	C11H12N+
159.0803	12	C11H11O+
159.1171	16	C12H15+
160.1118	6	C11H14N+
161.0961	14	C11H13O+
162.0552	10	C9H8NO2+
162.0912	30	C10H12NO+
162.1283	21	C11H16N+
163.1118	95	C11H15O+
165.0699	12	C13H9+
166.0775	9	C13H10+
167.0816	267	C8H11N2O2+
169.0997	8	C13H13+
173.0962	15	C12H13O+
174.0912	15	C11H12NO+
176.1075	21	C11H14NO+
179.0854	9	C14H11+
180.0933	12	C14H12+
181.1006	18	C14H13+
181.1335	22	C10H17N2O+
188.1432	9	C13H18N+
192.0662	8	C10H10NO3+
194.1089	6	C15H14+
194.1652	8	C11H20N3+
195.0767	100	C9H11N2O3+
196.0609	14	C9H10NO4+
202.0863	13	C12H12NO2+
204.1393	4	CH22N3O8+
207.117	7	C16H15+
213.0873	144	C9H13N2O4+
218.1537	15	C14H20NO+
219.1134	8	C12H15N2O2+
226.1594	21	C2H22N6O6+
237.1634	4	C18H21+
248.0917	14	C13H14NO4+
265.117	13	C11H15N5O3+
