Mass spectrum: Boscalid; LC-ESI-ITFT; MS2; CE: 75%; R=7500; [M+H]+
Name: Boscalid
Name: 2-chloranyl-N-[2-(4-chlorophenyl)phenyl]pyridine-3-carboxamide
Formula: C18H12Cl2N2O
Exact mass: 342.0327
SMILES: c1ccc(c(c1)c2ccc(cc2)Cl)NC(=O)c3cccnc3Cl
InChI: InChI=1S/C18H12Cl2N2O/c19-13-9-7-12(8-10-13)14-4-1-2-6-16(14)22-18(23)15-5-3-11-21-17(15)20/h1-11H,(H,22,23)
Instrument: LTQ Orbitrap XL Thermo Scientific
Instrument type: LC-ESI-ITFT
Ms type: MS2
Ion mode: POSITIVE
Ionization: ESI
Fragmentation mode: HCD
Collision energy: 75 % (nominal)
Resolution: 7500
Column name: XBridge C18 3.5um, 2.1x50mm, Waters
Retention time: 10.5 min
Base peak: 343.0412
Precursor m/z: 343.0399
Precursor type: [M+H]+
m/z	relative intensity	assigned
76.0182	13	C5H2N+
78.0339	224	C5H4N+
94.0288	32	C5H4NO+
96.0445	151	C5H6NO+
111.995	240	C5H3ClN+
112.0395	20	C2H9ClN2O+
113.0028	16	C5H4ClN+
114.0106	65	C5H5ClN+
130.0055	52	C5H5ClNO+
139.9898	164	C6H3ClNO+
140.0491	12	C10H6N+
144.9923	5	C2H7Cl2N2O+
152.0621	51	C12H8+
167.0604	22	C11H7N2+
168.068	5	C11H8N2+
177.0574	30	C13H7N+
189.0693	4	C15H9+
190.0649	3	C14H8N+
196.0629	14	C12H8N2O+
201.0341	3	C12H8ClN+
202.0771	18	C16H10+
203.0737	9	C15H9N+
204.0805	12	C15H10N+
212.0265	12	C13H7ClN+
214.0418	5	C13H9ClN+
214.0646	3	C16H8N+
215.0733	4	C16H9N+
216.0805	35	C16H10N+
217.0882	44	C16H11N+
225.0457	2	C15H10Cl+
226.0655	18	C17H8N+
227.0727	63	C17H9N+
228.0805	57	C17H10N+
229.0292	2	C10H11Cl2N2+
229.0875	39	C17H11N+
230.037	11	C10H12Cl2N2+
238.0416	22	C15H9ClN+
241.0762	3	C17H9N2+
242.0839	111	C17H10N2+
243.0919	284	C17H11N2+
244.0749	15	C17H10NO+
244.0997	134	C17H12N2+
246.0788	4	C16H10N2O+
253.0762	157	C18H9N2+
254.0841	170	C18H10N2+
257.0702	6	C17H9N2O+
262.0418	20	C17H9ClN+
263.0363	7	C16H8ClN2+
264.058	19	C17H11ClN+
269.0702	10	C18H9N2O+
270.0791	63	C18H10N2O+
271.0867	999	C18H11N2O+
272.0944	606	C18H12N2O+
277.0519	4	C17H10ClN2+
278.0589	7	C18H6N4+
279.0687	8	C17H12ClN2+
287.0369	3	C18H8ClN2+
288.0449	4	C18H9ClN2+
289.0527	115	C18H10ClN2+
290.0359	2	C18H9ClNO+
292.039	3	C17H9ClN2O+
305.0469	16	C18H10ClN2O+
306.0565	13	C18H11ClN2O+
307.0637	77	C18H12ClN2O+
328.0159	2	C17H10Cl2N2O+
