Mass spectrum: Flumequine; LC-ESI-QFT; MS2; CE: 180; R=35000; [M+H]+
Name: Flumequine
Name: 9-Fluoro-5-methyl-1-oxo-6,7-dihydro-1H,5H-pyrido[3,2,1-ij]quinoline-2-carboxylic acid
Formula: C14H12FNO3
Exact mass: 261.08012
SMILES: CC1CCC2=C3N1C=C(C(=O)C3=CC(=C2)F)C(=O)O
InChI: InChI=1S/C14H12FNO3/c1-7-2-3-8-4-9(15)5-10-12(8)16(7)6-11(13(10)17)14(18)19/h4-7H,2-3H2,1H3,(H,18,19)
Instrument: Q Exactive Plus Orbitrap Thermo Scientific
Instrument type: LC-ESI-QFT
Ms type: MS2
Ion mode: POSITIVE
Ionization: ESI
Fragmentation mode: HCD
Collision energy: 180 (nominal)
Resolution: 35000
Column name: XBridge C18 3.5um, 2.1x50mm, Waters
Retention time: 7.3 min
Base peak: 262.0868
Precursor m/z: 262.0874
Precursor type: [M+H]+
m/z	relative intensity	assigned
50.0151	43	C4H2+
51.0229	22	C4H3+
52.0182	13	C3H2N+
53.0022	242	C3HO+
55.0178	1	C3H3O+
57.0135	33	C3H2F+
61.0072	11	C5H+
62.015	11	C5H2+
63.0229	38	C5H3+
65.0022	9	C4HO+
65.0386	5	C5H5+
69.0135	15	C4H2F+
70.0213	21	C4H3F+
71.0292	1	C4H4F+
73.0071	4	C6H+
74.0151	258	C6H2+
75.0229	624	C6H3+
76.0181	108	C5H2N+
77.0021	87	C5HO+
77.0385	5	C6H5+
81.0135	32	C5H2F+
83.0291	30	C5H4F+
84.037	4	C5H5F+
85.0072	3	C7H+
86.015	12	C7H2+
87.0229	17	C7H3+
88.0182	2	C6H2N+
89.0022	22	
89.0386	60	C7H5+
90.0338	1	C6H4N+
90.0465	1	C7H6+
92.0257	3	C6H4O+
93.0135	137	C6H2F+
94.0213	45	C6H3F+
95.0292	16	C6H4F+
95.0492	4	C6H7O+
96.0243	1	C5H3FN+
96.037	22	C6H5F+
98.0151	822	C8H2+
99.0104	190	
99.0229	999	C8H3+
100.0181	841	C7H2N+
101.0386	1	C8H5+
102.0338	4	C7H4N+
105.0135	14	C7H2F+
105.0447	4	C6H5N2+
106.0087	1	C6HFN+
106.0213	11	C7H3F+
107.0291	44	C7H4F+
108.0244	3	C6H3FN+
108.037	9	C7H5F+
109.0448	7	C7H6F+
112.0319	4	C6H5FO+
113.0394	16	C6H6FO+
114.0345	3	C5H5FNO+
115.0542	4	C9H7+
116.0497	1	C8H6N+
117.0334	1	C8H5O+
118.0216	16	C8H3F+
118.0287	62	C7H4NO+
119.0292	27	C8H4F+
120.0244	28	C7H3FN+
120.037	62	C8H5F+
121.0323	6	C7H4FN+
122.0399	1	C7H5FN+
123.0353	30	C6H4FN2+
124.0183	6	C9H2N+
125.0386	26	C10H5+
126.0339	51	C9H4N+
127.0417	1	C9H5N+
128.062	4	C10H8+
129.0447	3	C8H5N2+
131.0292	45	C9H4F+
132.0245	6	C8H3FN+
132.0368	4	C9H5F+
133.0448	26	C9H6F+
137.0396	1	C8H6FO+
138.0348	3	C7H5FNO+
140.0496	1	C10H6N+
143.0492	1	C10H7O+
144.0373	9	C10H5F+
144.0444	10	C9H6NO+
145.0322	30	C9H4FN+
145.0445	5	C10H6F+
146.0401	37	C9H5FN+
146.0524	3	C10H7F+
147.0353	33	C8H4FN2+
148.0307	1	C12H4+
152.0496	15	C11H6N+
153.0449	6	C10H5N2+
154.04	39	C9H4N3+
155.0605	1	C10H7N2+
158.0401	11	C10H5FN+
163.0551	1	C10H8FO+
164.0505	6	C9H7FNO+
171.0481	8	C11H6FN+
172.0558	13	C11H7FN+
173.0509	1	C10H6FN2+
