Mass spectrum: Metolachlor OXA; LC-ESI-ITFT; MS2; CE: 45%; R=15000; [M-H]-
Name: Metolachlor OXA
Name: 2-(2-ethyl-N-(2-methoxy-1-methyl-ethyl)-6-methyl-anilino)-2-keto-acetic acid
Formula: C15H21NO4
Exact mass: 279.1471
SMILES: CC1=CC=CC(CC)=C1N(C(C)COC)C(C(O)=O)=O
InChI: InChI=1S/C15H21NO4/c1-5-12-8-6-7-10(2)13(12)16(11(3)9-20-4)14(17)15(18)19/h6-8,11H,5,9H2,1-4H3,(H,18,19)
Instrument: LTQ Orbitrap XL Thermo Scientific
Instrument type: LC-ESI-ITFT
Ms type: MS2
Ion mode: NEGATIVE
Ionization: ESI
Fragmentation mode: HCD
Collision energy: 45 % (nominal)
Resolution: 15000
Column name: XBridge C18 3.5um, 2.1x50mm, Waters
Retention time: 9.0 min
Base peak: 278.1398
Precursor m/z: 278.1398
Precursor type: [M-H]-
m/z	relative intensity	assigned
134.0975	108	C9H12N-
144.0821	218	C10H10N-
156.0819	81	C11H10N-
158.0978	999	C11H12N-
160.1133	551	C11H14N-
170.0976	95	C12H12N-
172.1135	401	C12H14N-
174.1292	854	C12H16N-
175.1006	59	C11H13NO-
190.1239	33	C12H16NO-
204.1397	52	C13H18NO-
206.1553	807	C13H20NO-
