Mass spectrum: Dapsone; LC-ESI-QFT; MS2; CE: 30; R=35000; [M+H]+
Name: Dapsone
Name: 4-(4-aminophenyl)sulfonylaniline
Formula: C12H12N2O2S
Exact mass: 248.06195
SMILES: C1=CC(=CC=C1N)S(=O)(=O)C2=CC=C(C=C2)N
InChI: InChI=1S/C12H12N2O2S/c13-9-1-5-11(6-2-9)17(15,16)12-7-3-10(14)4-8-12/h1-8H,13-14H2
Instrument: Q Exactive Plus Orbitrap Thermo Scientific
Instrument type: LC-ESI-QFT
Ms type: MS2
Ion mode: POSITIVE
Ionization: ESI
Fragmentation mode: HCD
Collision energy: 30 (nominal)
Resolution: 35000
Column name: XBridge C18 3.5um, 2.1x50mm, Waters
Retention time: 3.8 min
Base peak: 249.0685
Precursor m/z: 249.0692
Precursor type: [M+H]+
m/z	relative intensity	assigned
65.0383	4	C5H5+
68.0494	9	C4H6N+
78.0337	1	C5H4N+
79.0177	2	C5H3O+
92.0494	151	C6H6N+
93.0572	35	C6H7N+
96.0442	1	C5H6NO+
108.0443	253	C6H6NO+
110.0599	3	C6H8NO+
120.0554	2	C6H6N3+
140.0163	1	C6H6NOS+
156.0112	999	C6H6NO2S+
249.0691	281	C12H13N2O2S+
