Mass spectrum: Indapamide; LC-ESI-QFT; MS2; CE: 180; R=35000; [M-H]-
Name: Indapamide
Name: 4-chloro-N-(2-methyl-2,3-dihydroindol-1-yl)-3-sulfamoylbenzamide
Formula: C16H16ClN3O3S
Exact mass: 365.06009
SMILES: CC1CC2=CC=CC=C2N1NC(=O)C3=CC(=C(C=C3)Cl)S(=O)(=O)N
InChI: InChI=1S/C16H16ClN3O3S/c1-10-8-11-4-2-3-5-14(11)20(10)19-16(21)12-6-7-13(17)15(9-12)24(18,22)23/h2-7,9-10H,8H2,1H3,(H,19,21)(H2,18,22,23)
Instrument: Q Exactive Plus Orbitrap Thermo Scientific
Instrument type: LC-ESI-QFT
Ms type: MS2
Ion mode: NEGATIVE
Ionization: ESI
Fragmentation mode: HCD
Collision energy: 180 (nominal)
Resolution: 35000
Column name: XBridge C18 3.5um, 2.1x50mm, Waters
Retention time: 6.7 min
Base peak: 364.0524
Precursor m/z: 364.0528
Precursor type: [M-H]-
m/z	relative intensity	assigned
50.0035	10	C3N-
56.9804	4	C2HS-
61.9706	422	NOS-
63.0115	4	C4HN-
63.9624	999	O2S-
65.9985	2	C3NO-
77.9655	394	NO2S-
78.9733	73	HNO2S-
79.9812	2	H2NO2S-
81.9757	1	C3NS-
88.0193	17	C6H2N-
90.035	1	C6H4N-
93.9603	8	NO3S-
115.0301	3	C7H3N2-
116.0506	1	C8H6N-
