Mass spectrum: Carisoprodol; LC-ESI-QFT; MS2; CE: 90; R=35000; [M+H]+
Name: Carisoprodol
Name: [2-(carbamoyloxymethyl)-2-methylpentyl] N-propan-2-ylcarbamate
Formula: C12H24N2O4
Exact mass: 260.17361
SMILES: CCCC(C)(COC(=O)N)COC(=O)NC(C)C
InChI: InChI=1S/C12H24N2O4/c1-5-6-12(4,7-17-10(13)15)8-18-11(16)14-9(2)3/h9H,5-8H2,1-4H3,(H2,13,15)(H,14,16)
Instrument: Q Exactive Orbitrap Thermo Scientific
Instrument type: LC-ESI-QFT
Ms type: MS2
Ion mode: POSITIVE
Ionization: ESI
Fragmentation mode: HCD
Collision energy: 90 (nominal)
Resolution: 35000
Column name: XBridge C18 3.5um, 2.1x50mm, Waters
Retention time: 8.8 min
Base peak: 261.1812
Precursor m/z: 261.1809
Precursor type: [M+H]+
m/z	relative intensity	assigned
51.023	1	C4H3+
53.0024	12	C3HO+
53.0388	37	C4H5+
53.9976	1	C2NO+
55.0544	481	C4H7+
57.07	1	C4H9+
59.0493	61	C3H7O+
62.0237	999	CH4NO2+
67.0543	3	C5H7+
69.0699	106	C5H9+
71.0855	2	C5H11+
73.0649	2	C4H9O+
97.1013	7	C7H13+
104.0708	3	C4H10NO2+
