Mass spectrum: Indapamide; LC-ESI-QFT; MS2; CE: 30; R=35000; [M+H]+
Name: Indapamide
Name: 4-chloro-N-(2-methyl-2,3-dihydroindol-1-yl)-3-sulfamoylbenzamide
Formula: C16H16ClN3O3S
Exact mass: 365.06009
SMILES: CC1CC2=CC=CC=C2N1NC(=O)C3=CC(=C(C=C3)Cl)S(=O)(=O)N
InChI: InChI=1S/C16H16ClN3O3S/c1-10-8-11-4-2-3-5-14(11)20(10)19-16(21)12-6-7-13(17)15(9-12)24(18,22)23/h2-7,9-10H,8H2,1H3,(H,19,21)(H2,18,22,23)
Instrument: Q Exactive Plus Orbitrap Thermo Scientific
Instrument type: LC-ESI-QFT
Ms type: MS2
Ion mode: POSITIVE
Ionization: ESI
Fragmentation mode: HCD
Collision energy: 30 (nominal)
Resolution: 35000
Column name: XBridge C18 3.5um, 2.1x50mm, Waters
Retention time: 6.7 min
Base peak: 366.0667
Precursor m/z: 366.0674
Precursor type: [M+H]+
m/z	relative intensity	assigned
65.0384	1	C5H5+
91.0542	28	C7H7+
105.07	2	C8H9+
109.0649	5	C7H9O+
115.0543	1	C9H7+
117.0573	37	C8H7N+
118.0653	2	C8H8N+
119.0604	5	C7H7N2+
130.0653	4	C9H8N+
131.0728	1	C9H9N+
132.0808	999	C9H10N+
133.0886	15	C9H11N+
217.9675	9	C7H5ClNO3S+
234.994	5	C7H8ClN2O3S+
235.9783	1	C13HClN2O+
348.0569	2	C16H15ClN3O2S+
366.0676	1	C16H17ClN3O3S+
