Mass spectrum: Dimethoate; LC-ESI-ITFT; MS2; CE: 45%; R=15000; [M+H]+
Name: Dimethoate
Name: 2-(dimethoxyphosphinothioylthio)-N-methylacetamide
Formula: C5H12NO3PS2
Exact mass: 228.9996
SMILES: P(SCC(NC)=O)(OC)(OC)=S
InChI: InChI=1S/C5H12NO3PS2/c1-6-5(7)4-12-10(11,8-2)9-3/h4H2,1-3H3,(H,6,7)
Instrument: LTQ Orbitrap XL Thermo Scientific
Instrument type: LC-ESI-ITFT
Ms type: MS2
Ion mode: POSITIVE
Ionization: ESI
Fragmentation mode: HCD
Collision energy: 45 % (nominal)
Resolution: 15000
Column name: XBridge C18 3.5um, 2.1x50mm, Waters
Retention time: 5.2 min
Base peak: 230.007
Precursor m/z: 230.0069
Precursor type: [M+H]+
m/z	relative intensity	assigned
58.9951	1	C2H3S+
61.0106	12	C2H5S+
62.0184	3	C2H6S+
76.0216	2	C2H6NS+
78.9943	35	CH4O2P+
86.0059	2	C3H4NS+
88.0215	184	C3H6NS+
92.0263	1	C2H7NOP+
93.01	11	C2H6O2P+
94.9711	1	CH4OPS+
104.0165	6	C3H6NOS+
109.0049	4	C2H6O3P+
110.9664	17	CH4O2PS+
119.9937	18	C3H6NS2+
123.9981	23	C2H7NOPS+
124.9821	999	C2H6O2PS+
127.0155	11	C2H8O4P+
128.977	11	CH6O3PS+
140.9592	4	C2H6OPS2+
142.9926	767	C2H8O3PS+
155.9702	17	C2H7NOPS2+
156.9541	140	C2H6O2PS2+
158.9697	2	C2H8O2PS2+
169.9851	1	C3H9NOPS2+
170.9698	477	C3H8O2PS2+
197.9805	17	C4H9NO2PS2+
198.9645	69	C4H8O3PS2+
