Mass spectrum: N4-Acetylsulfadiazine; LC-ESI-ITFT; MS2; CE: 75%; R=15000; [M+H]+
Name: N4-Acetylsulfadiazine
Name: N-[4-(2-pyrimidinylsulfamoyl)phenyl]acetamide
Formula: C12H12N4O3S
Exact mass: 292.0630
SMILES: c1nc(NS(c2ccc(cc2)NC(C)=O)(=O)=O)ncc1
InChI: InChI=1S/C12H12N4O3S/c1-9(17)15-10-3-5-11(6-4-10)20(18,19)16-12-13-7-2-8-14-12/h2-8H,1H3,(H,15,17)(H,13,14,16)
Instrument: LTQ Orbitrap XL Thermo Scientific
Instrument type: LC-ESI-ITFT
Ms type: MS2
Ion mode: POSITIVE
Ionization: ESI
Fragmentation mode: HCD
Collision energy: 75 % (nominal)
Resolution: 15000
Column name: XBridge C18 3.5um, 2.1x50mm, Waters
Retention time: 3.6 min
Base peak: 293.0713
Precursor m/z: 293.0703
Precursor type: [M+H]+
m/z	relative intensity	assigned
65.0386	999	C5H5+
79.0542	34	C6H7+
92.0496	162	C6H6N+
93.0335	71	C6H5O+
94.0652	54	C6H8N+
96.0556	313	C4H6N3+
106.0653	54	C7H8N+
108.0444	539	C6H6NO+
110.0601	48	C6H8NO+
134.06	626	C8H8NO+
185.0818	70	C10H9N4+
