Mass spectrum: Mexiletine; LC-ESI-QFT; MS2; CE: 90; R=35000; [M+H]+
Name: Mexiletine
Name: 1-(2,6-dimethylphenoxy)-2-propanamine
Formula: C11H17NO
Exact mass: 179.13101
SMILES: O(c1c(cccc1C)C)CC(N)C
InChI: InChI=1S/C11H17NO/c1-8-5-4-6-9(2)11(8)13-7-10(3)12/h4-6,10H,7,12H2,1-3H3
Instrument: Q Exactive Orbitrap Thermo Scientific
Instrument type: LC-ESI-QFT
Ms type: MS2
Ion mode: POSITIVE
Ionization: ESI
Fragmentation mode: HCD
Collision energy: 90 (nominal)
Resolution: 35000
Column name: XBridge C18 3.5um, 2.1x50mm, Waters
Retention time: 5.7 min
Base peak: 180.1382
Precursor m/z: 180.1383
Precursor type: [M+H]+
m/z	relative intensity	assigned
53.0023	28	C3HO+
53.0387	8	C4H5+
53.9976	1	C2NO+
58.0652	999	C3H8N+
65.0386	6	C5H5+
67.9893	3	C3O2+
77.0386	39	C6H5+
79.0542	394	C6H7+
91.0542	128	C7H7+
93.0699	42	C7H9+
95.0491	274	C6H7O+
103.0542	209	C8H7+
105.0447	67	
105.0699	472	C8H9+
107.049	3	C7H7O+
107.0855	17	C8H11+
109.0647	3	C7H9O+
117.0698	2	C9H9+
119.0856	2	C9H11+
121.0648	140	C8H9O+
122.0725	2	C8H10O+
123.0804	5	C8H11O+
130.0776	2	C10H10+
135.0804	18	C9H11O+
