Mass spectrum: Chloramphenicol; LC-ESI-QFT; MS2; CE: 45; R=35000; [M+H]+
Name: Chloramphenicol
Name: CLM
Name: 2,2-bis(chloranyl)-N-[(1R,2R)-1-(4-nitrophenyl)-1,3-bis(oxidanyl)propan-2-yl]ethanamide
Formula: C11H12Cl2N2O5
Exact mass: 322.01233
SMILES: c1cc(ccc1[C@H]([C@@H](CO)NC(=O)C(Cl)Cl)O)[N+](=O)[O-]
InChI: InChI=1S/C11H12Cl2N2O5/c12-10(13)11(18)14-8(5-16)9(17)6-1-3-7(4-2-6)15(19)20/h1-4,8-10,16-17H,5H2,(H,14,18)/t8-,9-/m1/s1
Instrument: Q Exactive Orbitrap Thermo Scientific
Instrument type: LC-ESI-QFT
Ms type: MS2
Ion mode: POSITIVE
Ionization: ESI
Fragmentation mode: HCD
Collision energy: 45 (nominal)
Resolution: 35000
Column name: XBridge C18 3.5um, 2.1x50mm, Waters
Retention time: 5.8 min
Base peak: 305.0091
Precursor m/z: 323.0196
Precursor type: [M+H]+
m/z	relative intensity	assigned
63.9949	4	CH3ClN+
78.0464	3	C6H6+
82.9449	168	CHCl2+
90.0463	1	C7H6+
91.054	5	C7H7+
92.0494	2	C6H6N+
92.0619	4	C7H8+
102.0463	2	C8H6+
103.0542	4	C8H7+
104.0621	4	C8H8+
105.0333	1	C7H5O+
106.0413	5	C7H6O+
107.073	1	C7H9N+
109.9558	2	C2H2Cl2N+
115.0542	13	C9H7+
117.0571	9	C8H7N+
118.0412	5	C8H6O+
118.065	23	C8H8N+
119.0729	54	C8H9N+
120.0569	22	C8H8O+
121.0521	2	C7H7NO+
127.9664	14	C2H4Cl2NO+
128.0619	4	C10H8+
129.0572	2	C9H7N+
130.0652	14	C9H8N+
131.0492	7	C9H7O+
131.073	9	C9H9N+
132.057	59	C9H8O+
134.0601	5	C8H8NO+
135.0678	1	C8H9NO+
136.0392	5	C7H6NO2+
138.0231	11	C8H7Cl+
139.9667	1	C3H4Cl2NO+
142.0652	2	C10H8N+
145.0523	6	C9H7NO+
145.0648	1	C10H9O+
146.06	20	C9H8NO+
148.0393	4	C8H6NO2+
148.0631	24	C8H8N2O+
149.0154	5	C9H6Cl+
149.0472	12	C8H7NO2+
150.0231	28	C9H7Cl+
151.0628	10	C8H9NO2+
158.06	3	C10H8NO+
160.0632	1	C9H8N2O+
161.0473	4	C9H7NO2+
162.0548	2	C9H8NO2+
163.031	11	C10H8Cl+
164.0262	18	C9H7ClN+
164.0581	28	C8H8N2O2+
165.0659	999	C8H9N2O2+
166.0496	7	C8H8NO3+
167.026	1	C9H8ClO+
170.0599	35	C11H8NO+
175.0504	5	C9H7N2O2+
177.034	2	C10H8ClN+
177.042	6	C9H7NO3+
177.0659	13	C9H9N2O2+
178.0498	3	C9H8NO3+
179.0133	4	C9H6ClNO+
184.0159	7	C8H7ClNO2+
194.0367	1	C10H9ClNO+
196.016	3	C9H7ClNO2+
206.0367	60	C11H9ClNO+
211.0271	3	C9H8ClN2O2+
227.9977	20	C10H8Cl2NO+
229.0056	77	C10H9Cl2NO+
239.9976	8	C11H8Cl2NO+
241.0056	27	C11H9Cl2NO+
256.0037	1	C10H8Cl2N3O+
256.9871	1	C10H7Cl2N2O2+
257.9958	340	C10H8Cl2N2O2+
259.9883	1	C10H8Cl2NO3+
269.9955	14	C11H8Cl2N2O2+
274.9984	150	C10H9Cl2N2O3+
