Mass spectrum: Mesosulfuron-methyl; LC-ESI-QFT; MS2; CE: 30; R=35000; [M+H]+
Name: Mesosulfuron-methyl
Name: 2-[(4,6-dimethoxypyrimidin-2-yl)carbamoylsulfamoyl]-4-(methanesulfonamidomethyl)benzoic acid methyl ester
Formula: C17H21N5O9S2
Exact mass: 503.07807
SMILES: O=C(Nc1nc(cc(OC)n1)OC)NS(=O)(=O)c2cc(CNS(C)(=O)=O)ccc2C(=O)OC
InChI: InChI=1S/C17H21N5O9S2/c1-29-13-8-14(30-2)20-16(19-13)21-17(24)22-33(27,28)12-7-10(9-18-32(4,25)26)5-6-11(12)15(23)31-3/h5-8,18H,9H2,1-4H3,(H2,19,20,21,22,24)
Instrument: Q Exactive Orbitrap Thermo Scientific
Instrument type: LC-ESI-QFT
Ms type: MS2
Ion mode: POSITIVE
Ionization: ESI
Fragmentation mode: HCD
Collision energy: 30 (nominal)
Resolution: 35000
Column name: XBridge C18 3.5um, 2.1x50mm, Waters
Retention time: 8.9 min
Base peak: 504.0852
Precursor m/z: 504.0853
Precursor type: [M+H]+
m/z	relative intensity	assigned
83.0238	9	C3H3N2O+
100.0393	1	C4H6NO2+
139.0499	3	C6H7N2O2+
156.0767	71	C6H10N3O2+
157.0607	6	C6H9N2O3+
162.0548	17	C9H8NO2+
167.0318	1	C6H5N3O3+
182.056	999	C7H8N3O3+
226.0169	2	C9H8NO4S+
242.048	15	C2H16N3O6S2+
291.0104	5	C9H11N2O5S2+
306.0099	120	C10H12NO6S2+
316.9898	2	C10H9N2O6S2+
504.085	1	C17H22N5O9S2+
