Mass spectrum: Oxytetracycline; LC-ESI-QFT; MS2; CE: 60; R=35000; [M+H]+
Name: Oxytetracycline
Name: (4S,4aR,5S,5aR,6S,12aS)-4-(Dimethylamino)-3,5,6,10,12,12a-hexahydroxy-6-methyl-1,11-dioxo-1,4,4a,5,5a,6,11,12a-octahydro-2-tetracenecarboxamide
Name: 2-carbamoyl-4-(dimethylazaniumyl)-5,6,10,11,12a-pentahydroxy-6-methyl-3,12-dioxo-4,4a,5,5a-tetrahydrotetracen-1-olate
Formula: C22H24N2O9
Exact mass: 460.14818
SMILES: CC1(C2C(C3C(C(=O)C(=C(C3(C(=O)C2=C(C4=C1C=CC=C4O)O)O)O)C(=O)N)N(C)C)O)O
InChI: InChI=1S/C22H24N2O9/c1-21(32)7-5-4-6-8(25)9(7)15(26)10-12(21)17(28)13-14(24(2)3)16(27)11(20(23)31)19(30)22(13,33)18(10)29/h4-6,12-14,17,25-26,28,30,32-33H,1-3H3,(H2,23,31)
Instrument: Q Exactive Plus Orbitrap Thermo Scientific
Instrument type: LC-ESI-QFT
Ms type: MS2
Ion mode: POSITIVE
Ionization: ESI
Fragmentation mode: HCD
Collision energy: 60 (nominal)
Resolution: 35000
Column name: XBridge C18 3.5um, 2.1x50mm, Waters
Retention time: 4.3 min
Base peak: 461.1547
Precursor m/z: 461.1555
Precursor type: [M+H]+
m/z	relative intensity	assigned
53.0022	2	C3HO+
53.0386	1	C4H5+
55.0179	29	C3H3O+
55.0542	2	C4H7+
56.0495	8	C3H6N+
58.0652	190	C3H8N+
67.0179	1	C4H3O+
68.0495	12	C4H6N+
68.997	10	C3HO2+
69.0335	7	C4H5O+
70.0651	47	C4H8N+
71.0127	11	C3H3O2+
71.0366	8	C3H5NO+
72.0444	11	C3H6NO+
72.0807	2	C4H10N+
73.0284	1	C3H5O2+
74.06	3	C3H8NO+
79.0178	6	C5H3O+
80.0495	3	C5H6N+
81.0335	7	C5H5O+
82.0651	10	C5H8N+
83.0127	64	C4H3O2+
84.0444	22	C4H6NO+
86.06	83	C4H8NO+
94.0652	1	C6H8N+
95.0127	8	C5H3O2+
97.0285	12	C5H5O2+
97.0523	1	C5H7NO+
98.0601	492	C5H8NO+
99.0077	8	C4H3O3+
100.0757	7	C5H10NO+
101.0234	1	C4H5O3+
102.0552	1	C4H8NO2+
107.0128	16	C6H3O2+
107.0489	1	C7H7O+
108.0446	1	C6H6NO+
109.0285	31	C6H5O2+
110.06	5	C6H8NO+
111.0077	1	C5H3O3+
112.0756	1	C6H10NO+
114.055	2	C5H8NO2+
115.0542	14	C9H7+
117.0698	9	C9H9+
121.0286	2	C7H5O2+
121.0652	1	C8H9O+
122.0602	4	C7H8NO+
123.0077	26	C6H3O3+
124.0394	4	C6H6NO2+
124.0757	10	C7H10NO+
125.0234	16	C6H5O3+
126.055	54	C6H8NO2+
127.039	5	C6H7O3+
127.0541	15	C10H7+
128.0618	3	C10H8+
128.0707	15	C6H10NO2+
129.0699	23	C10H9+
134.0601	3	C8H8NO+
135.0077	12	C7H3O3+
137.0234	34	C7H5O3+
138.0552	1	C7H8NO2+
139.0264	6	C6H5NO3+
140.0708	2	C7H10NO2+
141.0183	9	C6H5O4+
141.0699	2	C11H9+
145.0649	126	C10H9O+
147.044	1	C9H7O2+
147.0804	1	C10H11O+
150.0551	5	C8H8NO2+
151.0027	15	C7H3O4+
151.0631	1	C8H9NO2+
152.0341	5	C7H6NO3+
152.0707	30	C8H10NO2+
153.0183	42	C7H5O4+
154.0499	76	C7H8NO3+
155.0339	4	C7H7O4+
155.0492	15	C11H7O+
155.0602	10	C10H7N2+
155.0855	2	C12H11+
156.0656	5	C7H10NO3+
157.037	4	C6H7NO4+
157.065	17	C11H9O+
159.0445	1	C10H7O2+
159.0805	13	C11H11O+
162.0551	1	C9H8NO2+
163.0027	3	C8H3O4+
163.039	5	C9H7O3+
165.0185	4	C8H5O4+
165.07	9	C13H9+
166.9976	1	C7H3O5+
167.0857	4	C13H11+
168.0573	1	C12H8O+
169.0132	13	C7H5O5+
169.0649	6	C12H9O+
170.0812	1	C8H12NO3+
171.0806	7	C12H11O+
172.0605	24	C7H10NO4+
173.0599	34	C11H9O2+
174.0676	20	C11H10O2+
175.0754	19	C11H11O2+
177.0699	3	C14H9+
178.0502	5	C9H8NO3+
178.078	1	C14H10+
178.9977	7	C8H3O5+
179.0855	5	C14H11+
180.0655	35	C9H10NO3+
181.0133	8	C8H5O5+
181.0367	1	C8H7NO4+
181.0644	7	C13H9O+
183.0553	5	C11H7N2O+
183.0808	11	C13H11O+
184.0519	6	C12H8O2+
185.0599	45	C12H9O2+
186.0312	1	C11H6O3+
186.0678	7	C12H10O2+
187.0391	3	C11H7O3+
187.0754	52	C12H11O2+
189.0703	2	C15H9+
190.0778	1	C15H10+
191.0855	1	C15H11+
193.0647	5	C14H9O+
194.045	1	C9H8NO4+
195.0805	27	C14H11O+
196.052	1	C13H8O2+
196.0609	3	C9H10NO4+
197.0598	14	C13H9O2+
198.0677	2	C13H10O2+
198.076	12	C9H12NO4+
199.0394	1	C12H7O3+
199.0753	15	C13H11O2+
200.0471	8	C12H8O3+
201.0547	999	C12H9O3+
203.0705	3	C12H11O3+
205.0648	3	C15H9O+
206.0447	2	C10H8NO4+
207.0808	15	C15H11O+
208.0606	21	C10H10NO4+
209.0595	5	C14H9O2+
210.0678	5	C14H10O2+
211.0392	8	C13H7O3+
211.0755	122	C14H11O2+
212.0469	40	C13H8O3+
213.0548	259	C13H9O3+
214.0625	8	C13H10O3+
215.0703	3	C13H11O3+
217.0134	6	C11H5O5+
217.0496	1	C12H9O4+
217.0649	2	C16H9O+
218.0577	1	C12H10O4+
219.0656	3	C12H11O4+
219.0803	4	C16H11O+
220.052	2	C15H8O2+
221.0597	12	C15H9O2+
222.0673	2	C15H10O2+
223.0755	42	C15H11O2+
224.0464	9	C14H8O3+
225.0547	14	C14H9O3+
225.0914	4	C15H13O2+
226.0621	7	C14H10O3+
226.0718	5	C10H12NO5+
227.0337	7	C13H7O4+
227.0704	32	C14H11O3+
229.0498	15	C13H9O4+
229.0861	4	C14H13O3+
231.0651	5	C13H11O4+
233.0599	5	C16H9O2+
234.0675	3	C16H10O2+
235.0754	46	C16H11O2+
236.0468	4	C15H8O3+
237.0548	28	C15H9O3+
237.0911	3	C16H13O2+
238.0629	7	C15H10O3+
239.0704	139	C15H11O3+
240.0418	55	C14H8O4+
241.0496	20	C14H9O4+
241.086	4	C15H13O3+
242.0574	52	C14H10O4+
243.0656	4	C14H11O4+
245.0603	3	C17H9O2+
247.0756	4	C17H11O2+
249.0547	13	C16H9O3+
250.0626	9	C16H10O3+
251.0704	59	C16H11O3+
252.0419	35	C15H8O4+
253.0497	21	C15H9O4+
253.0854	6	C16H13O3+
254.0575	79	C15H10O4+
255.0289	20	C14H7O5+
255.0654	36	C15H11O4+
256.0362	1	C14H8O5+
256.0729	2	C15H12O4+
257.0444	16	C14H9O5+
257.0809	28	C15H13O4+
258.0525	82	C14H10O5+
259.0605	10	C14H11O5+
261.0545	16	C17H9O3+
262.0619	2	C17H10O3+
263.0704	50	C17H11O3+
264.0418	8	C16H8O4+
264.0787	2	C17H12O3+
265.0497	21	C16H9O4+
265.086	3	C17H13O3+
266.0576	21	C16H10O4+
266.1176	1	C17H16NO2+
267.0653	70	C16H11O4+
268.0368	513	C15H8O5+
269.0449	1	C15H9O5+
269.0811	7	C16H13O4+
270.0524	37	C15H10O5+
271.0602	7	C15H11O5+
273.0756	13	C15H13O5+
275.0701	3	C18H11O3+
276.0414	1	C17H8O4+
277.0502	5	C17H9O4+
278.0576	4	C17H10O4+
279.0653	102	C17H11O4+
280.0364	2	C16H8O5+
281.0449	10	C16H9O5+
281.081	6	C17H13O4+
282.0522	1	C16H10O5+
282.0761	1	C16H12NO4+
283.0602	525	C16H11O5+
285.0759	31	C16H13O5+
286.0476	8	C15H10O6+
289.0497	16	C18H9O4+
290.0576	1	C18H10O4+
291.0653	29	C18H11O4+
292.0368	21	C17H8O5+
293.045	3	C17H9O5+
293.0812	5	C18H13O4+
294.0523	46	C17H10O5+
295.0603	8	C17H11O5+
296.0921	1	C17H14NO4+
297.0757	3	C17H13O5+
297.0997	40	C17H15NO4+
301.0707	34	C16H13O6+
303.0291	1	C18H7O5+
304.036	1	C18H8O5+
305.0443	4	C18H9O5+
306.0523	3	C18H10O5+
306.1133	3	C19H16NO3+
307.0603	49	C18H11O5+
308.067	5	C18H12O5+
309.0757	10	C18H13O5+
310.0458	2	C17H10O6+
311.0547	1	C17H11O6+
312.1228	13	C18H18NO4+
315.0867	5	C17H15O6+
317.0446	8	C19H9O5+
319.0602	15	C19H11O5+
320.0319	15	C18H8O6+
321.0394	9	C18H9O6+
322.0473	122	C18H10O6+
323.0546	1	C18H11O6+
325.0711	1	C18H13O6+
334.0468	1	C19H10O6+
334.1074	1	C20H16NO4+
335.0551	27	C19H11O6+
337.0709	28	C19H13O6+
338.0416	1	C18H10O7+
345.0392	2	C20H9O6+
347.0551	2	C20H11O6+
347.0783	4	C20H13NO5+
348.0268	4	C19H8O7+
348.0862	1	C20H14NO5+
350.0422	406	C19H10O7+
352.0822	1	C19H14NO6+
353.0648	1	C19H13O7+
361.0571	1	C20H11NO6+
362.1026	1	C21H16NO5+
363.0498	7	C20H11O7+
365.0657	34	C20H13O7+
375.0724	1	C21H13NO6+
376.0819	16	C21H14NO6+
