Mass spectrum: Ofurace; LC-ESI-QFT; MS2; CE: 120%; R=17500; [M+H]+
Name: Ofurace
Name: 2-chloro-N-(2,6-dimethylphenyl)-N-(2-oxooxolan-3-yl)acetamide
Formula: C14H16ClNO3
Exact mass: 281.0819
SMILES: CC1=C(C(=CC=C1)C)N(C2CCOC2=O)C(=O)CCl
InChI: InChI=1S/C14H16ClNO3/c1-9-4-3-5-10(2)13(9)16(12(17)8-15)11-6-7-19-14(11)18/h3-5,11H,6-8H2,1-2H3
Instrument: Exploris 240 Orbitrap Thermo Scientific
Instrument type: LC-ESI-QFT
Ms type: MS2
Ion mode: POSITIVE
Ionization: ESI
Fragmentation mode: HCD
Collision energy: 120 % (nominal)
Resolution: 17500
Column name: XBridge C18 3.5um, 2.1x50mm, Waters
Retention time: 5.728 min
Base peak: 312.1342
Precursor m/z: 282.0891
Precursor type: [M+H]+
m/z	relative intensity	assigned
53.0386	36	C4H5+
65.0388	20	C5H5+
76.9788	86	C2H2ClO+
77.0386	166	C6H5+
79.0542	348	C6H7+
91.0542	184	C7H7+
95.0489	43	C6H7O+
103.0541	254	C8H7+
105.0699	614	C8H9+
106.0651	402	C7H8N+
107.0729	57	C7H9N+
115.0542	28	C9H7+
117.0573	406	C8H7N+
118.0649	152	C8H8N+
120.0807	215	C8H10N+
121.0888	193	C8H11N+
128.062	52	C10H8+
130.0651	927	C9H8N+
131.0729	296	C9H9N+
132.0806	421	C9H10N+
133.0889	93	C9H11N+
144.0808	999	C10H10N+
145.0885	334	C10H11N+
148.1117	94	C10H14N+
