Mass spectrum: Chlorothalonil TP SYN548580; LC-ESI-QFT; MS2; CE: 90%; R=15000; [M-H]-
Name: Chlorothalonil TP SYN548580
Name: 2,4,5-trichloro-6-hydroxyisophthalamide
Formula: C8H5Cl3N2O3
Exact mass: 281.9366
SMILES: NC(=O)c1c(O)c(Cl)c(Cl)c(C(=O)N)c1Cl
InChI: InChI=1S/C8H5Cl3N2O3/c9-3-1(7(12)15)4(10)5(11)6(14)2(3)8(13)16/h14H,(H2,12,15)(H2,13,16)
Instrument: Orbitrap Exploris 240 Thermo Scientific
Instrument type: LC-ESI-QFT
Ms type: MS2
Ion mode: NEGATIVE
Ionization: ESI
Fragmentation mode: HCD
Collision energy: 90 % (nominal)
Resolution: 15000
Column name: Atlantis C18 3um, 3.0x150mm, Waters
Retention time: 9.709 min
Base peak: 280.929
Precursor m/z: 280.9293
Precursor type: [M-H]-
Precursor intensity: 50955176
m/z	relative intensity	assigned
65.9985	225	C3NO-
73.9802	51	C2HClN-
74.0033	176	C5N-
86.0035	291	C6N-
89.9986	150	C5NO-
94.9694	102	C5Cl-
97.9801	436	C4HClN-
121.9801	337	C6HClN-
122.9643	483	C6ClO-
158.9409	999	C6HCl2O-
183.936	74	C7Cl2NO-
194.9174	465	C6H2Cl3O-
219.9124	52	C7HCl3NO-
