Mass spectrum: Glycyrrhetinic Acid; LC-ESI-QFT; MS2; CE: 120; R=35000; [M-H]-
Name: Glycyrrhetinic Acid
Name: 18-beta-Glycyrrhetin acid
Name: (2S,4aS,6aR,6aS,6bR,8aR,10S,12aS,14bR)-10-hydroxy-2,4a,6a,6b,9,9,12a-heptamethyl-13-oxo-3,4,5,6,6a,7,8,8a,10,11,12,14b-dodecahydro-1H-picene-2-carboxylic acid
Formula: C30H46O4
Exact mass: 470.33961
SMILES: C[C@]1([C@H](CC[C@]2([C@H]1CC[C@@]3([C@@H]2C(=O)C=C4[C@]3(CC[C@@]5([C@H]4C[C@](CC5)(C(=O)O)C)C)C)C)C)O)C
InChI: InChI=1S/C30H46O4/c1-25(2)21-8-11-30(7)23(28(21,5)10-9-22(25)32)20(31)16-18-19-17-27(4,24(33)34)13-12-26(19,3)14-15-29(18,30)6/h16,19,21-23,32H,8-15,17H2,1-7H3,(H,33,34)/t19-,21-,22-,23+,26+,27-,28-,29+,30+/m0/s1
Instrument: Q Exactive Plus Orbitrap Thermo Scientific
Instrument type: LC-ESI-QFT
Ms type: MS2
Ion mode: NEGATIVE
Ionization: ESI
Fragmentation mode: HCD
Collision energy: 120 (nominal)
Resolution: 35000
Column name: XBridge C18 3.5um, 2.1x50mm, Waters
Retention time: 16.9 min
Base peak: 515.3377
Precursor m/z: 469.3323
Precursor type: [M-H]-
m/z	relative intensity	assigned
71.0503	409	C4H7O-
107.0503	71	C7H7O-
130.0427	64	C9H6O-
137.0973	69	C9H13O-
145.0656	320	C10H9O-
156.0577	56	C11H8O-
157.0657	235	C11H9O-
159.0452	59	C10H7O2-
169.066	181	C12H9O-
170.0738	984	C12H10O-
171.0816	999	C12H11O-
172.0892	400	C12H12O-
173.097	378	C12H13O-
183.0814	518	C13H11O-
184.0888	267	C13H12O-
185.0606	239	C12H9O2-
185.0973	606	C13H13O-
195.0813	75	C14H11O-
197.0602	52	C13H9O2-
197.0971	204	C14H13O-
202.0635	205	
209.0969	227	
221.0978	70	C16H13O-
223.1131	221	C16H15O-
224.1206	82	C16H16O-
225.1284	301	C16H17O-
237.1284	208	C17H17O-
239.144	209	C17H19O-
253.16	75	C18H21O-
307.2073	65	C22H27O-
309.1855	309	C21H25O2-
323.2013	199	C22H27O2-
323.2376	57	C23H31O-
325.2179	431	C22H29O2-
