Mass spectrum: Ceftazidime; LC-ESI-QFT; MS2; CE: 90; R=35000; [M-H]-
Name: Ceftazidime
Name: (6R,7R)-7-[[(2Z)-2-(2-amino-1,3-thiazol-4-yl)-2-(2-carboxypropan-2-yloxyimino)acetyl]amino]-8-oxo-3-(pyridin-1-ium-1-ylmethyl)-5-thia-1-azabicyclo[4.2.0]oct-2-ene-2-carboxylate
Formula: C22H22N6O7S2
Exact mass: 546.09914
SMILES: O=C2N1/C(=C(\CS[C@@H]1[C@@H]2NC(=O)C(=N\OC(C(=O)O)(C)C)/c3nc(sc3)N)C[n+]4ccccc4)C([O-])=O
InChI: InChI=1S/C22H22N6O7S2/c1-22(2,20(33)34)35-26-13(12-10-37-21(23)24-12)16(29)25-14-17(30)28-15(19(31)32)11(9-36-18(14)28)8-27-6-4-3-5-7-27/h3-7,10,14,18H,8-9H2,1-2H3,(H4-,23,24,25,29,31,32,33,34)/b26-13-/t14-,18-/m1/s1
Instrument: Q Exactive Orbitrap Thermo Scientific
Instrument type: LC-ESI-QFT
Ms type: MS2
Ion mode: NEGATIVE
Ionization: ESI
Fragmentation mode: HCD
Collision energy: 90 (nominal)
Resolution: 35000
Column name: XBridge C18 3.5um, 2.1x50mm, Waters
Retention time: 3.3 min
Base peak: 235.9261
Precursor m/z: 545.0919
Precursor type: [M-H]-
m/z	relative intensity	assigned
57.0345	494	C3H5O-
57.9757	999	CNS-
65.0145	381	C3HN2-
65.9985	64	C3NO-
66.0098	11	C2N3-
67.0302	56	C3H3N2-
70.9835	47	C2HNS-
77.0145	22	C4HN2-
79.0177	19	C3HN3-
81.9757	263	C3NS-
82.0299	18	C4H4NO-
83.9913	71	C3H2NS-
90.0097	93	C4N3-
91.0302	21	C5H3N2-
92.0254	142	C4H2N3-
93.0095	49	C4HN2O-
95.9788	76	C3N2S-
96.9866	141	C3HN2S-
98.0071	96	C4H4NS-
99.0022	13	C3H3N2S-
100.0226	54	C4H6NS-
103.0401	118	C4H7O3-
104.0128	51	C4N4-
104.0379	18	C6H4N2-
105.0457	19	C6H5N2-
106.0286	18	C4H2N4-
108.9866	18	C4HN2S-
117.0206	14	C5HN4-
121.9942	16	C5H2N2S-
122.9898	27	C4HN3S-
124.9812	15	C4HN2OS-
136.0272	12	C6H4N2O2-
