Mass spectrum: Cyclophosphamide; LC-ESI-ITFT; MS2; CE: 60%; R=15000; [M+H]+
Name: Cyclophosphamide
Name: N,N-bis(2-chloroethyl)-2-oxidanylidene-1,3,2$l^{5}-oxazaphosphinan-2-amine
Formula: C7H15Cl2N2O2P
Exact mass: 260.0248
SMILES: ClCCN(CCCl)P1(=O)NCCCO1
InChI: InChI=1S/C7H15Cl2N2O2P/c8-2-5-11(6-3-9)14(12)10-4-1-7-13-14/h1-7H2,(H,10,12)
Instrument: LTQ Orbitrap XL Thermo Scientific
Instrument type: LC-ESI-ITFT
Ms type: MS2
Ion mode: POSITIVE
Ionization: ESI
Fragmentation mode: HCD
Collision energy: 60 % (nominal)
Resolution: 15000
Column name: XBridge C18 3.5um, 2.1x50mm, Waters
Retention time: 6.3 min
Base peak: 261.0328
Precursor m/z: 261.0321
Precursor type: [M+H]+
m/z	relative intensity	assigned
56.0495	58	C3H6N+
58.0651	40	C3H8N+
62.9996	40	C2H4Cl+
64.9786	1	H2O2P+
66.9944	1	H4O2P+
70.0652	16	C4H8N+
78.0105	20	C2H5ClN+
80.0261	1	C2H7ClN+
91.9896	9	CH3NO2P+
92.0262	1	C3H7ClN+
94.0053	10	C5H2O2+
102.0104	12	C3H5NOP+
104.0262	10	C4H7ClN+
106.0419	219	C4H9ClN+
110.0002	44	C2H5ClNO2+
111.9715	3	C2H4Cl2N+
112.0159	13	C2H7ClNO2+
120.0209	200	C3H7NO2P+
122.0365	2	C3H9NO2P+
123.9712	1	C6HClO+
124.016	2	C3H7ClNO2+
127.9663	3	CH4ClNO2P+
132.0207	2	C4H7NO2P+
138.0315	139	C4H9ClNO2+
140.0028	999	C4H8Cl2N+
141.982	35	C2H6ClNO2P+
142.0185	298	C4H10Cl2N+
154.0185	4	C5H10Cl2N+
155.9973	4	C3H8ClNO2P+
167.9976	5	C4H8ClNO2P+
171.0085	7	C3H9ClN2O2P+
174.0075	1	C4H10Cl2NO2+
185.024	4	C4H11ClN2O2P+
199.0397	3	C5H13ClN2O2P+
203.9737	3	C4H9Cl2NO2P+
221.0019	1	C4H12Cl2N2O2P+
233.0007	41	C5H12Cl2N2O2P+
261.0321	29	C7H16Cl2N2O2P+
