Mass spectrum: Kresoxim-methyl acid; LC-ESI-QFT; MS2; CE: 90; R=35000; [M+H]+
Name: Kresoxim-methyl acid
Name: (2E)-2-methoxyimino-2-[2-[(2-methylphenoxy)methyl]phenyl]acetic acid
Formula: C17H17NO4
Exact mass: 299.11576
SMILES: O=C(O)\C(=N\OC)c2ccccc2COc1ccccc1C
InChI: InChI=1S/C17H17NO4/c1-12-7-3-6-10-15(12)22-11-13-8-4-5-9-14(13)16(17(19)20)18-21-2/h3-10H,11H2,1-2H3,(H,19,20)/b18-16+
Instrument: Q Exactive Plus Orbitrap Thermo Scientific
Instrument type: LC-ESI-QFT
Ms type: MS2
Ion mode: POSITIVE
Ionization: ESI
Fragmentation mode: HCD
Collision energy: 90 (nominal)
Resolution: 35000
Column name: XBridge C18 3.5um, 2.1x50mm, Waters
Retention time: 10.9 min
Base peak: 300.1227
Precursor m/z: 300.123
Precursor type: [M+H]+
m/z	relative intensity	assigned
50.015	3	C4H2+
51.0229	5	C4H3+
53.0022	3	C3HO+
53.0386	15	C4H5+
55.0178	4	C3H3O+
61.0071	1	C5H+
62.015	5	C5H2+
63.0229	80	C5H3+
64.0182	1	C4H2N+
65.0386	144	C5H5+
66.0463	5	C5H6+
75.0227	1	C6H3+
77.0385	23	C6H5+
78.0464	7	C6H6+
79.0542	22	C6H7+
81.0335	4	C5H5O+
88.0181	1	C6H2N+
89.0385	999	C7H5+
90.0338	44	C6H4N+
90.0464	42	C7H6+
91.0542	202	C7H7+
92.0497	1	C6H6N+
93.0698	6	C7H9+
94.0414	1	C6H6O+
95.0491	58	C6H7O+
103.0414	1	C7H5N+
103.0542	4	C8H7+
104.0494	26	C7H6N+
105.0335	3	C7H5O+
105.0447	32	C6H5N2+
107.0491	13	C7H7O+
114.0341	1	C8H4N+
115.0416	14	C8H5N+
115.0543	12	C9H7+
116.0495	641	C8H6N+
117.0573	62	C8H7N+
118.0413	5	C8H6O+
118.0651	4	C8H8N+
119.0492	3	C8H7O+
119.0604	1	C7H7N2+
121.0648	26	C8H9O+
127.0542	4	C10H7+
128.0495	5	C9H6N+
128.062	11	C10H8+
129.0445	3	C8H5N2+
129.0699	4	C10H9+
130.0287	1	C8H4NO+
130.0652	2	C9H8N+
132.0444	20	C8H6NO+
133.0521	3	C8H7NO+
134.06	34	C8H8NO+
135.0439	4	C8H7O2+
135.0552	1	C7H7N2O+
139.0541	10	C11H7+
140.0494	15	C10H6N+
140.0619	3	C11H8+
141.0698	15	C11H9+
142.0654	1	C10H8N+
145.0649	3	C10H9O+
146.0602	4	C9H8NO+
148.0754	1	C9H10NO+
151.0541	13	C12H7+
152.0621	143	C12H8+
153.0573	4	C11H7N+
153.0699	33	C12H9+
154.0651	10	C11H8N+
154.0777	1	C12H10+
155.0603	8	C10H7N2+
156.0808	1	C11H10N+
161.0469	1	C9H7NO2+
163.0543	5	C13H7+
164.0621	10	C13H8+
165.0699	218	C13H9+
166.0653	20	C12H8N+
166.0777	37	C13H10+
167.073	42	C12H9N+
167.085	11	C13H11+
168.0568	3	C12H8O+
168.0808	7	C12H10N+
169.0648	40	C12H9O+
170.0602	1	C11H8NO+
176.062	72	C14H8+
177.0577	11	C13H7N+
177.0698	33	C14H9+
178.0656	76	C13H8N+
178.0777	257	C14H10+
179.0603	16	C12H7N2+
179.073	40	C13H9N+
179.0854	57	C14H11+
180.0807	280	C13H10N+
181.0647	31	C13H9O+
181.0886	10	C13H11N+
182.0725	3	C13H10O+
188.0492	1	C14H6N+
189.0574	7	C14H7N+
189.0698	27	C15H9+
190.0651	51	C14H8N+
190.0777	6	C15H10+
191.073	16	C14H9N+
191.0858	6	C15H11+
192.0572	3	C14H8O+
192.0807	40	C14H10N+
193.0886	72	C14H11N+
194.0727	52	C14H10O+
194.0965	58	C14H12N+
195.0804	9	C14H11O+
196.0755	5	C13H10NO+
202.0648	5	C15H8N+
203.0729	66	C15H9N+
204.0808	32	C15H10N+
205.0652	2	C15H9O+
205.0756	1	C14H9N2+
206.0601	163	C14H8NO+
206.0964	15	C15H12N+
207.0679	30	C14H9NO+
207.0804	15	C15H11O+
208.0758	16	C14H10NO+
208.0882	4	C15H12O+
209.0835	22	C14H11NO+
210.067	1	C14H10O2+
219.0675	1	C15H9NO+
220.0758	18	C15H10NO+
221.0465	1	C14H7NO2+
221.0832	3	C15H11NO+
222.0914	12	C15H12NO+
223.0992	5	C15H13NO+
224.1068	3	C15H14NO+
235.0756	4	C16H11O2+
