Mass spectrum: Tilidine; LC-ESI-QFT; MS2; CE: 75; R=35000; [M+H]+
Name: Tilidine
Name: ethyl (2R)-2-(dimethylamino)-1-phenylcyclohex-3-ene-1-carboxylate
Formula: C17H23NO2
Exact mass: 273.17288
SMILES: O=C(OCC)C2(c1ccccc1)[C@@H](\C=C/CC2)N(C)C
InChI: InChI=1S/C17H23NO2/c1-4-20-16(19)17(14-10-6-5-7-11-14)13-9-8-12-15(17)18(2)3/h5-8,10-12,15H,4,9,13H2,1-3H3/t15-,17?/m1/s1
Instrument: Q Exactive Orbitrap Thermo Scientific
Instrument type: LC-ESI-QFT
Ms type: MS2
Ion mode: POSITIVE
Ionization: ESI
Fragmentation mode: HCD
Collision energy: 75 (nominal)
Resolution: 35000
Column name: XBridge C18 3.5um, 2.1x50mm, Waters
Retention time: 5.2 min
Base peak: 274.1803
Precursor m/z: 274.1802
Precursor type: [M+H]+
m/z	relative intensity	assigned
53.0387	2	C4H5+
65.0386	6	C5H5+
67.0542	10	C5H7+
73.0284	2	C3H5O2+
77.0385	54	C6H5+
78.0464	5	C6H6+
79.0542	73	C6H7+
81.0335	3	C5H5O+
83.0491	17	C5H7O+
91.0542	266	C7H7+
95.0491	157	C6H7O+
97.0283	2	C5H5O2+
98.0964	1	C6H12N+
103.0542	18	C8H7+
104.0621	3	C8H8+
105.0335	32	C7H5O+
105.0447	62	C6H5N2+
105.0698	5	C8H9+
107.0491	8	C7H7O+
111.0803	1	C7H11O+
115.0542	89	C9H7+
116.0619	1	C9H8+
117.0698	14	C9H9+
119.0855	34	C9H11+
123.0438	2	C7H7O2+
127.054	3	C10H7+
128.062	72	C10H8+
129.0698	178	C10H9+
131.0492	1	C9H7O+
131.0855	2	C10H11+
135.0441	1	C8H7O2+
141.0698	26	C11H9+
142.0778	9	C11H10+
143.0856	3	C11H11+
145.0649	16	C10H9O+
145.1012	2	C11H13+
152.0619	11	C12H8+
153.0699	284	C12H9+
154.0777	136	C12H10+
155.0855	999	C12H11+
156.0933	19	C12H12+
165.0699	18	C13H9+
168.0569	1	C12H8O+
173.096	1	C12H13O+
181.076	1	C12H9N2+
183.0805	3	C13H11O+
