Mass spectrum: Aerucyclamide A; LC-ESI-QFT; MS2; CE: 150%; R=17500; [M+H]+
Name: Aerucyclamide A
Name: (1S,4S,7R,8S,18R)-4,18-bis[(2S)-butan-2-yl]-7-methyl-6-oxa-13,20-dithia-3,10,17,22,23,24-hexazatetracyclo[17.2.1.15,8.112,15]tetracosa-5(24),12(23),14,19(22)-tetraene-2,9,16-trione
Class: NA
Formula: C24H34N6O4S2
Exact mass: 534.2083
SMILES: CC[C@H](C)[C@@H]1NC(=O)[C@H]2CSC(=N2)[C@H](NC(=O)c3csc(CNC(=O)[C@H]4N=C1O[C@@H]4C)n3)[C@@H](C)CC
InChI: InChI=1S/C24H34N6O4S2/c1-6-11(3)17-23-30-19(13(5)34-23)22(33)25-8-16-26-14(9-35-16)20(31)29-18(12(4)7-2)24-27-15(10-36-24)21(32)28-17/h9,11-13,15,17-19H,6-8,10H2,1-5H3,(H,25,33)(H,28,32)(H,29,31)/t11-,12-,13+,15+,17-,18+,19-/m0/s1
Instrument: Q Exactive Plus Orbitrap Thermo Scientific
Instrument type: LC-ESI-QFT
Ms type: MS2
Ion mode: POSITIVE
Ionization: ESI
Fragmentation mode: HCD
Collision energy: 150 % (nominal)
Resolution: 17500
Column name: XBridge C18 3.5um, 2.1x50mm, Waters
Retention time: 10.697 min
Base peak: 164.9845
Precursor m/z: 535.2156
Precursor type: [M+H]+
m/z	relative intensity	assigned
53.0022	57	C3HO+
53.0385	56	C4H5+
54.0338	210	C3H4N+
56.0131	254	C2H2NO+
56.0495	345	C3H6N+
56.9794	324	C2HS+
57.9872	357	C2H2S+
58.995	999	C2H3S+
59.9664	39	COS+
65.0386	62	C5H5+
67.0542	36	C5H7+
68.0494	42	C4H6N+
68.9793	64	C3HS+
69.0447	55	C3H5N2+
69.987	149	C3H2S+
70.9949	101	C3H3S+
71.9901	83	C2H2NS+
80.0493	157	C5H6N+
83.0603	25	C4H7N2+
83.9903	41	C3H2NS+
86.0059	234	C3H4NS+
93.057	26	C6H7N+
94.0651	65	C6H8N+
95.0492	57	C6H7O+
95.0604	53	C5H7N2+
97.0105	57	C5H5S+
98.0058	86	C4H4NS+
99.0137	79	C4H5NS+
110.0059	61	C5H4NS+
111.9963	56	C3H2N3S+
112.0215	58	C5H6NS+
123.0131	58	C6H5NS+
124.0212	42	C6H6NS+
129.9956	209	C4H4NO2S+
136.0212	36	C7H6NS+
