Mass spectrum: Caffeine; LC-ESI-ITFT; MS2; CE: 90%; R=30000; [M+H]+
Name: Caffeine
Name: 1,3,7-trimethyl-3,7-dihydro-1H-purine-2,6-dione
Name: 1,3,7-trimethylpurine-2,6-dione
Formula: C8H10N4O2
Exact mass: 194.0804
SMILES: c12c(n(c(=O)n(c1=O)C)C)ncn2C
InChI: InChI=1S/C8H10N4O2/c1-10-4-9-6-5(10)7(13)12(3)8(14)11(6)2/h4H,1-3H3
Instrument: LTQ Orbitrap XL Thermo Scientific
Instrument type: LC-ESI-ITFT
Ms type: MS2
Ion mode: POSITIVE
Ionization: ESI
Fragmentation mode: HCD
Collision energy: 90 % (nominal)
Resolution: 30000
Column name: XBridge C18 3.5um, 2.1x50mm, Waters
Retention time: 4.0 min
Base peak: 195.088
Precursor m/z: 195.0877
Precursor type: [M+H]+
m/z	relative intensity	assigned
56.0494	65	C3H6N+
67.0291	9	C3H3N2+
68.0368	13	C3H4N2+
69.0447	229	C3H5N2+
81.0447	19	C4H5N2+
82.0525	29	C4H6N2+
83.0603	298	C4H7N2+
109.0396	122	C5H5N2O+
110.0712	388	C5H8N3+
111.0552	33	C5H7N2O+
123.0426	351	C5H5N3O+
136.0506	11	C6H6N3O+
138.0661	999	C6H8N3O+
195.087	22	C8H11N4O2+
