Mass spectrum: N-(2,4-dimethylphenyl)formamide; LC-ESI-QFT; MS2; CE: 15; R=35000; [M+H]+
Name: N-(2,4-dimethylphenyl)formamide
Formula: C9H11NO
Exact mass: 149.08406
SMILES: CC1=C(NC([H])=O)C=CC(C)=C1
InChI: InChI=1S/C9H11NO/c1-7-3-4-9(10-6-11)8(2)5-7/h3-6H,1-2H3,(H,10,11)
Instrument: Q Exactive Plus Orbitrap Thermo Scientific
Instrument type: LC-ESI-QFT
Ms type: MS2
Ion mode: POSITIVE
Ionization: ESI
Fragmentation mode: HCD
Collision energy: 15 (nominal)
Resolution: 35000
Column name: XBridge C18 3.5um, 2.1x50mm, Waters
Retention time: 6.6 min
Base peak: 150.0913
Precursor m/z: 150.0913
Precursor type: [M+H]+
m/z	relative intensity	assigned
77.0384	1	C6H5+
79.0542	1	C6H7+
95.0856	1	C7H11+
105.0699	88	C8H9+
106.0648	1	C7H8N+
107.073	48	C7H9N+
117.0573	17	C8H7N+
122.0965	81	C8H12N+
123.0805	119	C8H11O+
132.0808	205	C9H10N+
133.0761	4	C8H9N2+
135.0677	1	C8H9NO+
150.0914	999	C9H12NO+
