Mass spectrum: Amisulpride; LC-ESI-ITFT; MS2; CE: 35%; R=30000; [M+H]+
Name: Amisulpride
Name: 4-amino-5-esyl-N-[(1-ethylpyrrolidin-2-yl)methyl]-2-methoxy-benzamide
Formula: C17H27N3O4S
Exact mass: 369.1722
SMILES: CCN1CCCC1CNC(=O)C2=CC(=C(C=C2OC)N)S(=O)(=O)CC
InChI: InChI=1S/C17H27N3O4S/c1-4-20-8-6-7-12(20)11-19-17(21)13-9-16(25(22,23)5-2)14(18)10-15(13)24-3/h9-10,12H,4-8,11,18H2,1-3H3,(H,19,21)
Instrument: LTQ Orbitrap XL Thermo Scientific
Instrument type: LC-ESI-ITFT
Ms type: MS2
Ion mode: POSITIVE
Ionization: ESI
Fragmentation mode: CID
Collision energy: 35 % (nominal)
Resolution: 30000
Column name: XBridge C18 3.5um, 2.1x50mm, Waters
Retention time: 3.8 min
Base peak: 370.1806
Precursor m/z: 370.1795
Precursor type: [M+H]+
m/z	relative intensity	assigned
112.1121	79	C7H14N+
127.0865	4	C6H11N2O+
129.1386	6	C7H17N2+
149.0464	4	H11N3O4S+
155.1179	33	C8H15N2O+
196.0059	5	C8H6NO3S+
214.017	4	C8H8NO4S+
242.0481	999	C10H12NO4S+
313.1214	13	C14H21N2O4S+
325.1212	3	C15H21N2O4S+
342.1481	3	C15H24N3O4S+
352.1688	4	C17H26N3O3S+
353.1527	7	C17H25N2O4S+
