Mass spectrum: Alachlor; LC-ESI-ITFT; MS2; CE: 45%; R=15000; [M+H]+
Name: Alachlor
Name: 2-chloranyl-N-(2,6-diethylphenyl)-N-(methoxymethyl)ethanamide
Formula: C14H20ClNO2
Exact mass: 269.1177
SMILES: CCC1=CC=CC(CC)=C1N(COC)C(=O)CCl
InChI: InChI=1S/C14H20ClNO2/c1-4-11-7-6-8-12(5-2)14(11)16(10-18-3)13(17)9-15/h6-8H,4-5,9-10H2,1-3H3
Instrument: LTQ Orbitrap XL Thermo Scientific
Instrument type: LC-ESI-ITFT
Ms type: MS2
Ion mode: POSITIVE
Ionization: ESI
Fragmentation mode: HCD
Collision energy: 45 % (nominal)
Resolution: 15000
Column name: XBridge C18 3.5um, 2.1x50mm, Waters
Retention time: 11.7 min
Base peak: 292.1079
Precursor m/z: 270.1255
Precursor type: [M+H]+
m/z	relative intensity	assigned
90.0105	102	C3H5ClN+
134.0963	15	C9H12N+
144.0811	11	C10H10N+
145.1011	34	C11H13+
146.0965	42	C10H12N+
147.1044	52	C10H13N+
148.112	42	C10H14N+
160.1121	22	C11H14N+
161.12	38	C11H15N+
162.1278	999	C11H16N+
163.1118	216	C11H15O+
172.1122	11	C12H14N+
173.0833	11	C11H11NO+
174.0909	18	C11H12NO+
206.0731	50	C12H13ClN+
208.0888	56	C12H15ClN+
210.0679	17	C11H13ClNO+
220.0888	97	C13H15ClN+
224.0837	44	C12H15ClNO+
238.0992	419	C13H17ClNO+
