Mass spectrum: Brodifacoum; LC-ESI-QFT; MS2; CE: 120%; R=17500; [M+H]+
Name: Brodifacoum
Name: 3-[3-[4-(4-bromophenyl)phenyl]-1,2,3,4-tetrahydronaphthalen-1-yl]-4-hydroxychromen-2-one
Formula: C31H23BrO3
Exact mass: 522.0831
SMILES: C1C(CC2=CC=CC=C2C1C3=C(C4=CC=CC=C4OC3=O)O)C5=CC=C(C=C5)C6=CC=C(C=C6)Br
InChI: InChI=1S/C31H23BrO3/c32-24-15-13-20(14-16-24)19-9-11-21(12-10-19)23-17-22-5-1-2-6-25(22)27(18-23)29-30(33)26-7-3-4-8-28(26)35-31(29)34/h1-16,23,27,33H,17-18H2
Instrument: Exploris 240 Orbitrap Thermo Scientific
Instrument type: LC-ESI-QFT
Ms type: MS2
Ion mode: POSITIVE
Ionization: ESI
Fragmentation mode: HCD
Collision energy: 120 % (nominal)
Resolution: 17500
Column name: XBridge C18 3.5um, 2.1x50mm, Waters
Retention time: 16.530 min
Base peak: 523.0906
Precursor m/z: 523.0903
Precursor type: [M+H]+
m/z	relative intensity	assigned
65.0386	372	C5H5+
77.0386	234	C6H5+
79.0541	121	C6H7+
89.0386	17	C7H5+
90.0463	20	C7H6+
91.0542	467	C7H7+
93.0334	37	C6H5O+
95.0492	224	C6H7O+
102.0466	33	C8H6+
103.0542	77	C8H7+
107.0494	23	C7H7O+
111.044	19	C6H7O2+
115.0543	155	C9H7+
121.0284	128	C7H5O2+
127.0542	22	C10H7+
128.062	192	C10H8+
139.0539	43	C11H7+
141.0697	27	C11H9+
151.0546	34	C12H7+
152.0621	379	C12H8+
153.0698	164	C12H9+
154.0777	67	C12H10+
163.0542	113	C13H7+
164.0619	174	C13H8+
165.0698	888	C13H9+
168.0574	23	C12H8O+
169.0644	57	C12H9O+
176.062	349	C14H8+
177.0699	302	C14H9+
178.0777	999	C14H10+
179.0854	60	C14H11+
189.0701	31	C15H9+
202.0779	59	C16H10+
215.0858	109	C17H11+
226.0778	97	C18H10+
227.085	14	C18H11+
228.0928	54	C18H12+
239.0854	934	C19H11+
240.0935	142	C19H12+
241.1014	212	C19H13+
252.0933	276	C20H12+
253.1011	255	C20H13+
254.1087	226	C20H14+
255.1169	17	C20H15+
