Mass spectrum: N-Acetylcaprolactam; LC-ESI-QFT; MS2; CE: 60%; R=17500; [M+H]+
Name: N-Acetylcaprolactam
Name: 1-acetylazepan-2-one
Formula: C8H13NO2
Exact mass: 155.0946
SMILES: CC(=O)N1CCCCCC1=O
InChI: InChI=1S/C8H13NO2/c1-7(10)9-6-4-2-3-5-8(9)11/h2-6H2,1H3
Instrument: Exploris 240 Orbitrap Thermo Scientific
Instrument type: LC-ESI-QFT
Ms type: MS2
Ion mode: POSITIVE
Ionization: ESI
Fragmentation mode: HCD
Collision energy: 60 % (nominal)
Resolution: 17500
Column name: XBridge C18 3.5um, 2.1x50mm, Waters
Retention time: 4.594 min
Base peak: 156.1019
Precursor m/z: 156.1019
Precursor type: [M+H]+
m/z	relative intensity	assigned
43.0178	8	C2H3O+
43.0541	1	C3H7+
68.0495	3	C4H6N+
69.0699	19	C5H9+
71.0855	2	C5H11+
79.0542	20	C6H7+
86.0965	2	C5H12N+
96.0807	28	C6H10N+
97.0647	6	C6H9O+
114.0912	999	C6H12NO+
156.1019	2	C8H14NO2+
