Mass spectrum: Atenolol; LC-ESI-ITFT; MS2; CE: 45%; R=7500; [M+H]+
Name: Atenolol
Name: 2-[4-[2-hydroxy-3-(isopropylamino)propoxy]phenyl]acetamide
Formula: C14H22N2O3
Exact mass: 266.1630
SMILES: CC(C)NCC(O)COc1ccc(cc1)CC(N)=O
InChI: InChI=1S/C14H22N2O3/c1-10(2)16-8-12(17)9-19-13-5-3-11(4-6-13)7-14(15)18/h3-6,10,12,16-17H,7-9H2,1-2H3,(H2,15,18)
Instrument: LTQ Orbitrap XL Thermo Scientific
Instrument type: LC-ESI-ITFT
Ms type: MS2
Ion mode: POSITIVE
Ionization: ESI
Fragmentation mode: HCD
Collision energy: 45 % (nominal)
Resolution: 7500
Column name: XBridge C18 3.5um, 2.1x50mm, Waters
Retention time: 2.0 min
Base peak: 267.171
Precursor m/z: 267.1703
Precursor type: [M+H]+
m/z	relative intensity	assigned
56.0495	94	C3H6N+
58.0651	17	C3H8N+
72.0808	156	C4H10N+
74.06	383	C3H8NO+
91.054	8	C7H7+
98.0964	208	C6H12N+
107.049	10	C7H7O+
116.107	328	C6H14NO+
119.0492	14	C8H7O+
121.0648	28	C8H9O+
133.0647	54	C9H9O+
145.0648	434	C10H9O+
147.0441	24	C9H7O2+
147.0808	10	C10H11O+
152.0706	28	C8H10NO2+
162.0914	108	C10H12NO+
163.0754	20	C10H11O2+
164.0705	99	C9H10NO2+
173.0596	73	C11H9O2+
178.0862	226	C10H12NO2+
180.1025	18	C10H14NO2+
190.0862	764	C11H12NO2+
204.1377	18	C13H18NO+
208.0966	194	C11H14NO3+
225.1231	288	C11H17N2O3+
249.16	31	C14H21N2O2+
250.1444	11	C14H20NO3+
267.1703	999	C14H23N2O3+
