Mass spectrum: Flufenacet ESA; LC-ESI-ITFT; MS2; CE: 60%; R=7500; [M-H]-
Name: Flufenacet ESA
Name: 2-[(4-Fluorophenyl)(isopropyl)amino]-2-oxoethanesulfonic acid
Formula: C11H14FNO4S
Exact mass: 275.0628
SMILES: Fc1ccc(cc1)N(C(C)C)C(=O)CS(O)(=O)=O
InChI: InChI=1S/C11H14FNO4S/c1-8(2)13(11(14)7-18(15,16)17)10-5-3-9(12)4-6-10/h3-6,8H,7H2,1-2H3,(H,15,16,17)
Instrument: LTQ Orbitrap XL Thermo Scientific
Instrument type: LC-ESI-ITFT
Ms type: MS2
Ion mode: NEGATIVE
Ionization: ESI
Fragmentation mode: HCD
Collision energy: 60 % (nominal)
Resolution: 7500
Column name: XBridge C18 3.5um, 2.1x50mm, Waters
Retention time: 5.9 min
Base peak: 274.0553
Precursor m/z: 274.0555
Precursor type: [M-H]-
m/z	relative intensity	assigned
76.9704	314	CHO2S-
79.9575	999	O3S-
120.9604	371	C2HO4S-
152.0888	108	C9H11FN-
274.0562	54	C11H13FNO4S-
