Mass spectrum: Chloralose; LC-ESI-QFT; MS2; CE: 60%; R=17500; [M-H]-
Name: Chloralose
Name: Glucochloralose
Name: 1-[6-hydroxy-2-(trichloromethyl)-3a,5,6,6a-tetrahydrofuro[2,3-d][1,3]dioxol-5-yl]ethane-1,2-diol
Formula: C8H11Cl3O6
Exact mass: 307.9621
SMILES: C(C(C1C(C2C(O1)OC(O2)C(Cl)(Cl)Cl)O)O)O
InChI: InChI=1S/C8H11Cl3O6/c9-8(10,11)7-16-5-3(14)4(2(13)1-12)15-6(5)17-7/h2-7,12-14H,1H2
Instrument: Exploris 240 Orbitrap Thermo Scientific
Instrument type: LC-ESI-QFT
Ms type: MS2
Ion mode: NEGATIVE
Ionization: ESI
Fragmentation mode: HCD
Collision energy: 60 % (nominal)
Resolution: 17500
Column name: XBridge C18 3.5um, 2.1x50mm, Waters
Retention time: 4.852 min
Base peak: 352.9601
Precursor m/z: 306.9548
Precursor type: [M-H]-
m/z	relative intensity	assigned
55.0189	269	C3H3O-
57.0345	148	C3H5O-
59.0139	747	C2H3O2-
71.0139	999	C3H3O2-
73.0295	343	C3H5O2-
83.0139	168	C4H3O2-
85.0295	569	C4H5O2-
95.0137	92	C5H3O2-
99.0089	39	C4H3O3-
101.0244	265	C4H5O3-
113.0243	121	C5H5O3-
116.9072	299	CCl3-
