Mass spectrum: Phenobarbital; LC-ESI-QFT; MS2; CE: 180; R=35000; [M+H]+
Name: Phenobarbital
Name: 5-ethyl-5-phenyl-1,3-diazinane-2,4,6-trione
Formula: C12H12N2O3
Exact mass: 232.08479
SMILES: CCC1(C(=O)NC(=O)NC1=O)C2=CC=CC=C2
InChI: InChI=1S/C12H12N2O3/c1-2-12(8-6-4-3-5-7-8)9(15)13-11(17)14-10(12)16/h3-7H,2H2,1H3,(H2,13,14,15,16,17)
Instrument: Q Exactive Plus Orbitrap Thermo Scientific
Instrument type: LC-ESI-QFT
Ms type: MS2
Ion mode: POSITIVE
Ionization: ESI
Fragmentation mode: HCD
Collision energy: 180 (nominal)
Resolution: 35000
Column name: XBridge C18 3.5um, 2.1x50mm, Waters
Retention time: 6.0 min
Base peak: 251.1845
Precursor m/z: 233.0921
Precursor type: [M+H]+
m/z	relative intensity	assigned
50.0151	199	C4H2+
51.0229	639	C4H3+
52.0307	59	C4H4+
53.0022	106	C3HO+
53.0386	312	C4H5+
53.9973	21	C2NO+
55.0177	57	C3H3O+
55.0541	32	C4H7+
56.0494	25	C3H6N+
62.015	118	C5H2+
63.0228	536	C5H3+
65.0385	755	C5H5+
66.0463	22	C5H6+
67.0541	18	C5H7+
69.9922	29	C2NO2+
75.0227	51	C6H3+
77.0384	300	C6H5+
78.0463	369	C6H6+
79.0541	78	C6H7+
81.0335	23	C5H5O+
88.0305	24	C7H4+
89.0385	736	C7H5+
90.0462	17	C7H6+
91.0542	602	C7H7+
94.041	12	C6H6O+
95.0491	835	C6H7O+
97.0075	76	C8H+
102.0462	60	C8H6+
103.0542	22	C8H7+
104.0494	999	C7H6N+
105.0446	609	C6H5N2+
114.0338	66	C8H4N+
115.0541	406	C9H7+
117.0572	16	C8H7N+
127.054	13	C10H7+
128.0619	56	C10H8+
132.0447	12	C8H6NO+
