Mass spectrum: Tepraloxydim; LC-ESI-QFT; MS2; CE: 30; R=35000; [M-H]-
Name: Tepraloxydim
Name: E-Tepraloxydim
Formula: C17H24ClNO4
Exact mass: 341.13939
SMILES: CC/C(=N\OC\C=C\Cl)/C=1C(=O)CC(CC=1O)C2CCOCC2
InChI: InChI=1S/C17H24ClNO4/c1-2-14(19-23-7-3-6-18)17-15(20)10-13(11-16(17)21)12-4-8-22-9-5-12/h3,6,12-13,20H,2,4-5,7-11H2,1H3/b6-3+,19-14+
Instrument: Q Exactive Orbitrap Thermo Scientific
Instrument type: LC-ESI-QFT
Ms type: MS2
Ion mode: NEGATIVE
Ionization: ESI
Fragmentation mode: HCD
Collision energy: 30 (nominal)
Resolution: 35000
Column name: XBridge C18 3.5um, 2.1x50mm, Waters
Retention time: 11.5 min
Base peak: 340.1324
Precursor m/z: 340.1321
Precursor type: [M-H]-
m/z	relative intensity	assigned
65.9984	1	C3NO-
90.9956	22	C3H4ClO-
109.0293	1	C6H5O2-
110.0613	2	C6H8NO-
134.0248	81	C7H4NO2-
135.0327	2	C7H5NO2-
137.0608	2	C8H9O2-
153.0432	1	C7H7NO3-
162.0563	4	C9H8NO2-
163.0639	7	C9H9NO2-
165.0794	1	C9H11NO2-
176.108	2	C11H14NO-
180.0667	2	C9H10NO3-
191.0952	2	C11H13NO2-
195.1026	5	C11H15O3-
200.1079	2	C13H14NO-
206.1187	33	C12H16NO2-
218.1185	5	C13H16NO2-
219.09	5	C12H13NO3-
220.098	52	C12H14NO3-
221.1184	14	C13H17O3-
230.1185	6	C14H16NO2-
248.1293	999	C14H18NO3-
250.1448	33	C14H20NO3-
340.1321	8	C17H23ClNO4-
