Mass spectrum: Diazepam; LC-ESI-ITFT; MS2; CE: 75%; R=7500; [M+H]+
Name: Diazepam
Name: 7-chloranyl-1-methyl-5-phenyl-3H-1,4-benzodiazepin-2-one
Formula: C16H13ClN2O
Exact mass: 284.0716
SMILES: CN1C2=C(C=C(Cl)C=C2)C(=NCC1=O)C3=CC=CC=C3
InChI: InChI=1S/C16H13ClN2O/c1-19-14-8-7-12(17)9-13(14)16(18-10-15(19)20)11-5-3-2-4-6-11/h2-9H,10H2,1H3
Instrument: LTQ Orbitrap XL Thermo Scientific
Instrument type: LC-ESI-ITFT
Ms type: MS2
Ion mode: POSITIVE
Ionization: ESI
Fragmentation mode: HCD
Collision energy: 75 % (nominal)
Resolution: 7500
Column name: XBridge C18 3.5um, 2.1x50mm, Waters
Retention time: 10.1 min
Base peak: 285.0798
Precursor m/z: 285.0789
Precursor type: [M+H]+
m/z	relative intensity	assigned
58.0288	11	C2H4NO+
77.0385	13	C6H5+
89.0386	10	C7H5+
91.0543	211	C7H7+
104.0495	34	C7H6N+
105.0338	23	C7H5O+
105.0448	7	C6H5N2+
113.0153	10	C6H6Cl+
114.0105	6	C5H5ClN+
116.0496	61	C8H6N+
117.0575	101	C8H7N+
118.0652	75	C8H8N+
119.073	52	C8H9N+
125.0153	121	C7H6Cl+
127.0306	8	C7H8Cl+
131.0606	14	C8H7N2+
138.0103	19	C7H5ClN+
138.9947	13	C7H4ClO+
140.0264	22	C7H7ClN+
141.0343	22	C7H8ClN+
143.0605	51	C9H7N2+
144.0684	37	C9H8N2+
145.0754	7	C9H9N2+
147.068	34	C9H9NO+
150.0106	62	C8H5ClN+
152.0262	34	C8H7ClN+
154.0419	714	C8H9ClN+
163.0051	8	C11HNO+
165.0215	7	C8H6ClN2+
165.0698	24	C13H9+
166.0771	11	C13H10+
167.0135	65	C8H6ClNO+
172.0632	83	C10H8N2O+
177.0215	49	C9H6ClN2+
179.0372	111	C9H8ClN2+
180.021	51	C9H7ClNO+
180.0809	36	C13H10N+
181.0888	13	C13H11N+
182.037	10	C9H9ClNO+
191.0731	26	C14H9N+
192.081	45	C14H10N+
193.0888	999	C14H11N+
194.0964	46	C14H12N+
199.0311	10	C13H8Cl+
204.0811	54	C15H10N+
206.0844	77	C14H10N2+
207.0919	90	C14H11N2+
208.1	8	C14H12N2+
216.058	38	C13H11ClN+
221.0839	29	C15H11NO+
221.1074	103	C15H13N2+
222.1153	389	C15H14N2+
226.042	22	C14H9ClN+
227.0498	107	C14H10ClN+
228.0577	167	C14H11ClN+
230.0742	16	C14H13ClN+
241.0529	282	C14H10ClN2+
242.0608	30	C14H11ClN2+
255.0685	97	C15H12ClN2+
256.0764	8	C15H13ClN2+
257.0843	60	C15H14ClN2+
269.0468	11	C15H10ClN2O+
