Mass spectrum: LSD; LC-ESI-QFT; MS2; CE: 75; R=35000; [M+H]+
Name: LSD
Name: D-Lysergic acid N,N-diethylamide
Name: N,N-diethyl-7-methyl-6,6a,8,9-tetrahydro-4H-indolo[4,3-fg]quinoline-9-carboxamide
Formula: C20H25N3O
Exact mass: 323.19976
SMILES: CCN(CC)C(=O)C1CN(C2CC3=CNC4=CC=CC(=C34)C2=C1)C
InChI: InChI=1S/C20H25N3O/c1-4-23(5-2)20(24)14-9-16-15-7-6-8-17-19(15)13(11-21-17)10-18(16)22(3)12-14/h6-9,11,14,18,21H,4-5,10,12H2,1-3H3
Instrument: Q Exactive Plus Orbitrap Thermo Scientific
Instrument type: LC-ESI-QFT
Ms type: MS2
Ion mode: POSITIVE
Ionization: ESI
Fragmentation mode: HCD
Collision energy: 75 (nominal)
Resolution: 35000
Column name: XBridge C18 3.5um, 2.1x50mm, Waters
Retention time: 5.6 min
Base peak: 324.2062
Precursor m/z: 324.207
Precursor type: [M+H]+
m/z	relative intensity	assigned
55.0178	9	C3H3O+
56.0495	16	C3H6N+
68.0494	3	C4H6N+
70.0651	5	C4H8N+
72.0444	82	C3H6NO+
72.0807	19	C4H10N+
74.0964	124	C4H12N+
83.0491	1	C5H7O+
86.0964	7	C5H12N+
94.0652	2	C6H8N+
100.0757	17	C5H10NO+
115.0542	6	C9H7+
117.0572	1	C8H7N+
127.054	1	C10H7+
128.062	4	C10H8+
128.1069	20	C7H14NO+
129.0699	36	C10H9+
130.0651	7	C9H8N+
139.0544	1	C11H7+
141.0701	7	C11H9+
142.0651	4	C10H8N+
144.0808	3	C10H10N+
151.0539	2	C12H7+
152.062	45	C12H8+
153.0699	339	C12H9+
154.0651	87	C11H8N+
155.0728	4	C11H9N+
155.0854	9	C12H11+
156.0808	34	C11H10N+
163.0542	2	C13H7+
164.0618	7	C13H8+
165.0699	55	C13H9+
166.0654	6	C12H8N+
166.0777	4	C13H10+
167.073	193	C12H9N+
167.0854	15	C13H11+
168.057	2	C12H8O+
168.0808	56	C12H10N+
169.065	1	C12H9O+
169.076	1	C11H9N2+
169.0888	1	C12H11N+
170.0964	3	C12H12N+
171.0805	4	C12H11O+
177.0703	1	C14H9+
178.0651	16	C13H8N+
178.0777	1	C14H10+
179.0729	48	C13H9N+
179.0857	3	C14H11+
180.0808	999	C13H10N+
181.0648	65	C13H9O+
181.076	23	C12H9N2+
181.0885	87	C13H11N+
182.0838	112	C12H10N2+
182.0964	97	C13H12N+
183.0801	2	C13H11O+
183.0918	1	C12H11N2+
184.0516	2	C12H8O2+
190.0651	82	C14H8N+
191.0729	298	C14H9N+
192.0808	225	C14H10N+
193.0761	98	C13H9N2+
193.0887	22	C14H11N+
194.0601	16	C13H8NO+
194.0839	8	C13H10N2+
194.0965	74	C14H12N+
195.0917	7	C13H11N2+
195.1043	42	C14H13N+
196.0996	7	C13H12N2+
196.1121	24	C14H14N+
197.1073	64	C13H13N2+
204.0808	2	C15H10N+
205.0762	19	C14H9N2+
206.0602	3	C14H8NO+
206.0839	19	C14H10N2+
206.0964	9	C15H12N+
207.0681	439	C14H9NO+
207.0917	781	C14H11N2+
208.0758	320	C14H10NO+
208.0995	305	C14H12N2+
209.0837	1	C14H11NO+
209.1073	13	C14H13N2+
210.0912	9	C14H12NO+
212.0464	1	C11H6N3O2+
219.0916	3	C15H11N2+
220.0758	4	C15H10NO+
220.0996	26	C15H12N2+
221.1074	102	C15H13N2+
222.1151	26	C15H14N2+
223.123	142	C15H15N2+
224.131	1	C15H16N2+
235.0862	3	C15H11N2O+
236.0941	2	C15H12N2O+
253.1702	1	C17H21N2+
281.164	1	C18H21N2O+
