Mass spectrum: Progesterone; LC-ESI-QFT; MS2; CE: 30; R=35000; [M+H]+
Name: Progesterone
Name: (8S,9S,10R,13S,14S,17S)-17-acetyl-10,13-dimethyl-1,2,6,7,8,9,11,12,14,15,16,17-dodecahydrocyclopenta[a]phenanthren-3-one
Formula: C21H30O2
Exact mass: 314.22458
SMILES: O=C4\C=C2/[C@]([C@H]1CC[C@@]3([C@@H](C(=O)C)CC[C@H]3[C@@H]1CC2)C)(C)CC4
InChI: InChI=1S/C21H30O2/c1-13(22)17-6-7-18-16-5-4-14-12-15(23)8-10-20(14,2)19(16)9-11-21(17,18)3/h12,16-19H,4-11H2,1-3H3/t16-,17+,18-,19-,20-,21+/m0/s1
Instrument: Q Exactive Orbitrap Thermo Scientific
Instrument type: LC-ESI-QFT
Ms type: MS2
Ion mode: POSITIVE
Ionization: ESI
Fragmentation mode: HCD
Collision energy: 30 (nominal)
Resolution: 35000
Column name: XBridge C18 3.5um, 2.1x50mm, Waters
Retention time: 13.1 min
Base peak: 315.232
Precursor m/z: 315.2319
Precursor type: [M+H]+
m/z	relative intensity	assigned
67.0542	1	C5H7+
69.0699	3	C5H9+
71.0492	3	C4H7O+
79.0543	10	C6H7+
81.0699	14	C6H9+
83.0492	36	C5H7O+
85.0649	37	C5H9O+
91.0541	1	C7H7+
93.0698	5	C7H9+
95.0856	18	C7H11+
97.0648	999	C6H9O+
99.0805	1	C6H11O+
105.0699	4	C8H9+
107.0855	13	C8H11+
109.0648	720	C7H9O+
113.0961	1	C7H13O+
117.0699	1	C9H9+
119.0856	10	C9H11+
121.0647	2	C8H9O+
121.1012	26	C9H13+
123.0804	68	C8H11O+
131.0857	9	C10H11+
133.1012	13	C10H13+
135.0804	1	C9H11O+
135.1169	12	C10H15+
137.0961	18	C9H13O+
137.1325	1	C10H17+
139.1115	1	C9H15O+
143.0857	3	C11H11+
145.1013	18	C11H13+
147.1169	19	C11H15+
149.0961	4	C10H13O+
149.1326	8	C11H17+
151.112	9	C10H15O+
155.0858	1	C12H11+
157.1014	9	C12H13+
159.1169	22	C12H15+
161.0958	1	C11H13O+
161.1325	16	C12H17+
163.1117	16	C11H15O+
163.1479	1	C12H19+
165.1276	5	C11H17O+
169.1009	1	C13H13+
171.1168	12	C13H15+
173.1325	21	C13H17+
175.1118	5	C12H15O+
175.1481	8	C13H19+
177.1273	25	C12H17O+
179.1431	1	C12H19O+
183.1167	5	C14H15+
185.1325	9	C14H17+
187.1118	7	C13H15O+
187.148	12	C14H19+
189.1274	18	C13H17O+
189.164	11	C14H21+
191.1431	13	C13H19O+
197.1329	9	C15H17+
199.1484	9	C15H19+
201.1273	3	C14H17O+
201.1638	23	C15H21+
203.1431	8	C14H19O+
205.1588	5	C14H21O+
207.1742	3	C14H23O+
209.1324	5	C16H17+
211.1483	5	C16H19+
213.1271	3	C15H17O+
213.1638	18	C16H21+
215.1431	13	C15H19O+
215.1796	26	C16H23+
217.1584	1	C15H21O+
219.1743	7	C15H23O+
223.1482	14	C17H19+
225.1635	1	C17H21+
227.1429	1	C16H19O+
227.1793	17	C17H23+
229.1588	12	C16H21O+
231.1747	6	C16H23O+
233.1901	14	C16H25O+
237.1636	8	C18H21+
239.1794	30	C18H23+
241.1585	16	C17H21O+
245.19	15	C17H25O+
251.1794	4	C19H23+
253.1952	19	C19H25+
255.175	6	C18H23O+
255.2109	48	C19H27+
257.1903	8	C18H25O+
269.1895	5	C19H25O+
269.2267	1	C20H29+
271.2058	6	C19H27O+
273.2213	38	C19H29O+
279.2107	71	C21H27+
297.2213	198	C21H29O+
315.2319	881	C21H31O2+
