Mass spectrum: Marbofloxacin; LC-ESI-QFT; MS2; CE: 180; R=35000; [M+H]+
Name: Marbofloxacin
Name: 9-Fluoro-3-methyl-10-(4-methyl-1-piperazinyl)-7-oxo-2,3-dihydro-7H-[1,3,4]oxadiazino[6,5,4-ij]quinoline-6-carboxylic acid
Formula: C17H19FN4O4
Exact mass: 362.13903
SMILES: CN1CCN(CC1)C2=C(C=C3C4=C2OCN(N4C=C(C3=O)C(=O)O)C)F
InChI: InChI=1S/C17H19FN4O4/c1-19-3-5-21(6-4-19)14-12(18)7-10-13-16(14)26-9-20(2)22(13)8-11(15(10)23)17(24)25/h7-8H,3-6,9H2,1-2H3,(H,24,25)
Instrument: Q Exactive Plus Orbitrap Thermo Scientific
Instrument type: LC-ESI-QFT
Ms type: MS2
Ion mode: POSITIVE
Ionization: ESI
Fragmentation mode: HCD
Collision energy: 180 (nominal)
Resolution: 35000
Column name: XBridge C18 3.5um, 2.1x50mm, Waters
Retention time: 3.7 min
Base peak: 363.1454
Precursor m/z: 363.1463
Precursor type: [M+H]+
m/z	relative intensity	assigned
50.0151	92	C4H2+
51.023	135	C4H3+
52.0182	39	C3H2N+
53.0022	115	C3HO+
53.0386	19	C4H5+
54.0339	18	C3H4N+
55.0417	5	C3H5N+
56.0495	302	C3H6N+
57.0135	326	C3H2F+
57.0573	40	C3H7N+
58.0651	26	C3H8N+
59.0291	17	C3H4F+
61.0073	75	C5H+
62.0151	152	C5H2+
63.0229	295	C5H3+
64.0182	28	C4H2N+
64.0307	3	C5H4+
65.0022	13	C4HO+
65.0259	4	C4H3N+
65.0386	13	C5H5+
67.0416	5	C4H5N+
68.0056	27	C4HF+
68.0495	11	C4H6N+
69.0135	54	C4H2F+
70.0213	33	C4H3F+
70.0651	56	C4H8N+
71.0291	17	C4H4F+
71.0729	5	C4H9N+
72.0807	41	C4H10N+
73.0085	3	C3H2FO+
74.0151	428	C6H2+
75.0103	50	
75.0229	999	C6H3+
76.0181	261	C5H2N+
76.0306	17	
77.0021	16	C5HO+
77.0385	24	C6H5+
77.9974	9	C4NO+
78.0338	36	C5H4N+
79.0178	9	C5H3O+
79.0415	3	FH4N4+
80.0494	2	C5H6N+
81.0135	242	C5H2F+
82.0087	35	C4HFN+
82.0213	20	C5H3F+
83.0291	200	C5H4F+
84.0371	20	C5H5F+
85.0072	14	
85.0759	2	C4H9N2+
86.015	27	C7H2+
87.0104	11	C6HN+
87.0229	62	C7H3+
88.0182	80	C6H2N+
88.0307	53	C7H4+
89.0386	151	C7H5+
90.0338	9	C6H4N+
90.0464	4	C7H6+
91.0544	3	C7H7+
93.0136	39	C6H2F+
94.0213	78	C6H3F+
95.0292	55	C6H4F+
95.0491	31	C6H7O+
96.0244	33	C5H3FN+
96.037	20	C6H5F+
96.0444	15	C5H6NO+
97.0323	3	C5H4FN+
98.0151	24	C8H2+
98.04	5	C5H5FN+
99.0104	60	C7HN+
99.0229	31	C8H3+
100.0182	123	C7H2N+
101.0259	11	C7H3N+
101.0386	13	C8H5+
102.0338	40	C7H4N+
102.0464	20	C8H6+
103.0289	2	C6H3N2+
103.0416	2	C7H5N+
104.0494	14	C7H6N+
105.0135	25	C7H2F+
105.0447	23	C6H5N2+
106.0087	23	C6HFN+
106.0214	8	C7H3F+
106.0289	2	C6H4NO+
107.0292	421	C7H4F+
108.0244	19	C6H3FN+
108.037	49	C7H5F+
109.0322	3	C6H4FN+
109.0448	52	C7H6F+
112.0182	2	C8H2N+
112.0315	2	C6H5FO+
113.0396	41	C6H6FO+
114.0342	67	C8H4N+
115.0417	24	C8H5N+
116.0495	3	C8H6N+
117.057	2	C3H6FN4+
118.0287	11	C7H4NO+
119.0167	4	C7H2FN+
119.0493	4	C8H7O+
120.0243	3	C7H3FN+
120.037	14	C8H5F+
120.0443	9	C7H6NO+
121.0323	12	C7H4FN+
122.04	51	C7H5FN+
123.0353	100	C6H4FN2+
126.0345	4	C6H5FNO+
127.029	2	C8H3N2+
127.0416	2	C9H5N+
128.0494	22	C9H6N+
129.0447	30	C8H5N2+
130.0398	17	C7H4N3+
131.0291	4	C9H4F+
132.0245	19	C8H3FN+
133.0447	3	C9H6F+
134.04	14	C8H5FN+
135.0479	40	C8H6FN+
138.0344	2	C7H5FNO+
140.0266	3	C7H5FO2+
140.0495	2	C10H6N+
146.0401	4	C9H5FN+
147.0353	4	C8H4FN2+
148.0555	9	C9H7FN+
154.0399	3	C9H4N3+
155.0602	4	C10H7N2+
