Mass spectrum: Ethoxyquin; LC-ESI-QFT; MS2; CE: 30; R=35000; [M+H]+
Name: Ethoxyquin
Name: 6-ethoxy-2,2,4-trimethyl-1H-quinoline
Formula: C14H19NO
Exact mass: 217.14666
SMILES: CCOC1=CC2=C(C=C1)NC(C=C2C)(C)C
InChI: InChI=1S/C14H19NO/c1-5-16-11-6-7-13-12(8-11)10(2)9-14(3,4)15-13/h6-9,15H,5H2,1-4H3
Instrument: Q Exactive Plus Orbitrap Thermo Scientific
Instrument type: LC-ESI-QFT
Ms type: MS2
Ion mode: POSITIVE
Ionization: ESI
Fragmentation mode: HCD
Collision energy: 30 (nominal)
Resolution: 35000
Column name: XBridge C18 3.5um, 2.1x50mm, Waters
Retention time: 7.0 min
Base peak: 218.1537
Precursor m/z: 218.1539
Precursor type: [M+H]+
m/z	relative intensity	assigned
134.0601	2	C8H8NO+
136.0757	2	C8H10NO+
148.0758	11	C9H10NO+
158.0965	1	C11H12N+
160.0753	1	C10H10NO+
162.0914	8	C10H12NO+
172.1122	3	C12H14N+
173.0964	2	C12H13O+
173.1201	3	C12H15N+
174.0915	3	C11H12NO+
174.1281	1	C12H16N+
175.0994	2	C11H13NO+
176.1072	27	C11H14NO+
188.107	5	C12H14NO+
189.1149	9	C12H15NO+
190.1228	25	C12H16NO+
201.1273	1	C14H17O+
202.1225	5	C13H16NO+
203.0945	1	C12H13NO2+
203.1314	6	C13H17NO+
218.1541	999	C14H20NO+
