Mass spectrum: Bendiocarb; LC-ESI-QFT; MS2; CE: 75%; R=17500; [M+H]+
Name: Bendiocarb
Name: (2,2-dimethyl-1,3-benzodioxol-4-yl) N-methylcarbamate
Formula: C11H13NO4
Exact mass: 223.0845
SMILES: CC1(OC2=C(O1)C(=CC=C2)OC(=O)NC)C
InChI: InChI=1S/C11H13NO4/c1-11(2)15-8-6-4-5-7(9(8)16-11)14-10(13)12-3/h4-6H,1-3H3,(H,12,13)
Instrument: Exploris 240 Orbitrap Thermo Scientific
Instrument type: LC-ESI-QFT
Ms type: MS2
Ion mode: POSITIVE
Ionization: ESI
Fragmentation mode: HCD
Collision energy: 75 % (nominal)
Resolution: 17500
Column name: XBridge C18 3.5um, 2.1x50mm, Waters
Retention time: 5.784 min
Base peak: 222.1124
Precursor m/z: 224.0917
Precursor type: [M+H]+
m/z	relative intensity	assigned
53.0385	74	C4H5+
58.0285	4	C2H4NO+
59.0491	292	C3H7O+
81.0334	943	C5H5O+
109.0283	999	C6H5O2+
121.0647	6	C8H9O+
127.0388	30	C6H7O3+
