Mass spectrum: 2,6-Di-tert-butylpyridine; LC-ESI-QFT; MS2; CE: 30; R=35000; [M+H]+
Name: 2,6-Di-tert-butylpyridine
Name: 2,6-ditert-butylpyridine
Name: 2,6-Bis(2-methyl-2-propanyl)pyridine
Formula: C13H21N
Exact mass: 191.16740
SMILES: CC(C)(C)C1=NC(=CC=C1)C(C)(C)C
InChI: InChI=1S/C13H21N/c1-12(2,3)10-8-7-9-11(14-10)13(4,5)6/h7-9H,1-6H3
Instrument: Q Exactive Plus Orbitrap Thermo Scientific
Instrument type: LC-ESI-QFT
Ms type: MS2
Ion mode: POSITIVE
Ionization: ESI
Fragmentation mode: HCD
Collision energy: 30 (nominal)
Resolution: 35000
Column name: XBridge C18 3.5um, 2.1x50mm, Waters
Retention time: 5.5 min
Base peak: 164.9844
Precursor m/z: 192.1747
Precursor type: [M+H]+
m/z	relative intensity	assigned
59.0491	2	C3H7O+
83.0855	4	C6H11+
111.0804	5	C7H11O+
114.0913	1	C6H12NO+
133.0647	1	C9H9O+
162.1273	2	C11H16N+
177.1512	1	C12H19N+
192.1747	999	C13H22N+
