Mass spectrum: Bromazepam; LC-ESI-QFT; MS2; CE: 60; R=35000; [M+H]+
Name: Bromazepam
Name: 7-bromo-5-pyridin-2-yl-1,3-dihydro-1,4-benzodiazepin-2-one
Formula: C14H10BrN3O
Exact mass: 315.00072
SMILES: C1C(=O)NC2=C(C=C(C=C2)Br)C(=N1)C3=CC=CC=N3
InChI: InChI=1S/C14H10BrN3O/c15-9-4-5-11-10(7-9)14(17-8-13(19)18-11)12-3-1-2-6-16-12/h1-7H,8H2,(H,18,19)
Instrument: Q Exactive Plus Orbitrap Thermo Scientific
Instrument type: LC-ESI-QFT
Ms type: MS2
Ion mode: POSITIVE
Ionization: ESI
Fragmentation mode: HCD
Collision energy: 60 (nominal)
Resolution: 35000
Column name: XBridge C18 3.5um, 2.1x50mm, Waters
Retention time: 7.0 min
Base peak: 316.0073
Precursor m/z: 316.008
Precursor type: [M+H]+
m/z	relative intensity	assigned
53.0385	2	C4H5+
65.0385	1	C5H5+
78.0337	11	C5H4N+
79.0415	3	C5H5N+
80.0494	144	C5H6N+
92.0492	2	C6H6N+
93.0573	1	C6H7N+
96.0443	43	C5H6NO+
104.0493	7	C7H6N+
105.0447	11	C6H5N2+
105.0572	39	C7H7N+
106.0286	4	C6H4NO+
107.0603	12	C6H7N2+
110.06	4	C6H8NO+
117.0447	2	C7H5N2+
119.0603	4	C7H7N2+
124.0393	9	C6H6NO2+
130.0525	1	C8H6N2+
130.065	4	C9H8N+
131.0603	25	C8H7N2+
133.0521	21	C8H7NO+
154.0647	2	C11H8N+
155.0731	3	C11H9N+
157.076	1	C10H9N2+
165.0572	1	C12H7N+
167.073	1	C12H9N+
168.0684	1	C11H8N2+
168.081	2	C12H10N+
169.0759	11	C11H9N2+
179.0603	2	C12H7N2+
180.0683	5	C12H8N2+
181.076	78	C12H9N2+
182.0838	999	C12H10N2+
183.9756	235	C7H7BrN+
192.0681	25	C13H8N2+
193.076	20	C13H9N2+
193.9603	3	C8H5BrN+
194.0711	1	C12H8N3+
194.0839	4	C13H10N2+
207.079	6	C13H9N3+
208.0869	332	C13H10N3+
208.9709	75	C8H6BrN2+
209.0947	518	C13H11N3+
209.9786	2	C8H7BrN2+
210.0788	14	C13H10N2O+
211.9705	10	C8H7BrNO+
214.0737	2	C12H10N2O2+
219.0793	2	C14H9N3+
222.066	1	C13H8N3O+
236.0817	8	C14H10N3O+
236.9655	2	C9H6BrN2O+
237.0893	2	C14H11N3O+
243.9755	3	C12H7BrN+
244.9835	17	C12H8BrN+
258.9865	81	C12H8BrN2+
259.9943	271	C12H9BrN2+
261.0021	174	C12H10BrN2+
270.9864	8	C13H8BrN2+
285.9973	6	C13H9BrN3+
286.981	4	C13H8BrN2O+
287.0052	7	C13H10BrN3+
287.9899	2	C13H9BrN2O+
288.0129	46	C13H11BrN3+
297.9967	1	C14H9BrN3+
298.9812	1	C14H8BrN2O+
316.0079	29	C14H11BrN3O+
