Mass spectrum: Norclozapine; LC-ESI-QFT; MS2; CE: 180; R=35000; [M+H]+
Name: Norclozapine
Name: 3-chloro-6-piperazin-1-yl-5H-benzo[b][1,4]benzodiazepine
Formula: C17H17ClN4
Exact mass: 312.11417
SMILES: C1CN(CCN1)C2=NC3=C(C=CC(=C3)Cl)NC4=CC=CC=C42
InChI: InChI=1S/C17H17ClN4/c18-12-5-6-15-16(11-12)21-17(22-9-7-19-8-10-22)13-3-1-2-4-14(13)20-15/h1-6,11,19-20H,7-10H2
Instrument: Q Exactive Plus Orbitrap Thermo Scientific
Instrument type: LC-ESI-QFT
Ms type: MS2
Ion mode: POSITIVE
Ionization: ESI
Fragmentation mode: HCD
Collision energy: 180 (nominal)
Resolution: 35000
Column name: XBridge C18 3.5um, 2.1x50mm, Waters
Retention time: 5.9 min
Base peak: 313.1204
Precursor m/z: 313.1215
Precursor type: [M+H]+
m/z	relative intensity	assigned
50.015	13	C4H2+
51.0229	9	C4H3+
52.0182	4	C3H2N+
53.0022	5	C3HO+
53.0385	3	C4H5+
56.0494	1	C3H6N+
61.0072	20	C5H+
62.015	58	C5H2+
63.0229	164	C5H3+
64.0181	47	C4H2N+
64.0307	8	C5H4+
65.0385	33	C5H5+
66.0464	2	C5H6+
71.0603	1	C3H7N2+
72.9839	73	C3H2Cl+
73.9791	7	C2HClN+
74.015	20	C6H2+
75.0228	35	C6H3+
76.018	8	C5H2N+
76.0306	8	C6H4+
77.0384	6	C6H5+
78.0337	4	C5H4N+
81.0334	1	C5H5O+
85.0071	6	C7H+
86.015	53	C7H2+
87.0103	8	C6HN+
87.0229	122	C7H3+
88.0181	52	C6H2N+
88.0306	91	C7H4+
89.0385	94	C7H5+
90.0337	17	C6H4N+
90.0464	13	C7H6+
91.0416	3	C6H5N+
91.0542	3	C7H7+
95.049	7	C6H7O+
96.9839	6	C5H2Cl+
97.9792	6	C4HClN+
98.015	22	C8H2+
98.9995	13	C5H4Cl+
99.0228	15	C8H3+
100.018	12	C7H2N+
100.0306	3	C8H4+
101.0385	1	C8H5+
102.0338	5	C7H4N+
102.0463	4	C8H6+
103.0417	1	C7H5N+
104.0494	3	C7H6N+
105.0447	6	C6H5N2+
110.015	14	C9H2+
111.0228	35	C9H3+
112.0181	36	C8H2N+
112.0306	25	C9H4+
113.0384	113	C9H5+
114.0337	129	C8H4N+
114.0463	26	C9H6+
115.0415	17	C8H5N+
115.0542	15	C9H7+
116.0494	8	C8H6N+
117.0573	4	C8H7N+
118.0413	4	C5H9ClN+
122.9994	1	C7H4Cl+
123.0101	2	C9HN+
123.9948	3	C6H3ClN+
125.0384	5	C10H5+
126.0337	3	C9H4N+
126.0463	7	C10H6+
127.0416	3	C9H5N+
128.0493	5	C9H6N+
129.0445	6	C8H5N2+
130.0398	4	C7H4N3+
132.0568	10	C6H11ClN+
136.0307	7	C11H4+
137.0385	487	C11H5+
138.0337	207	C10H4N+
138.0462	84	C11H6+
139.0417	19	C10H5N+
139.0541	60	C11H7+
140.0493	125	C10H6N+
141.0446	6	C9H5N2+
141.0574	1	C10H7N+
142.0413	5	C7H9ClN+
142.0523	5	C9H6N2+
143.0364	1	C6H8ClN2+
147	2	C9H4Cl+
149.039	1	C12H5+
150.0464	9	C12H6+
151.0414	5	C11H5N+
151.0541	1	C12H7+
152.0495	3	C11H6N+
152.0615	4	C12H8+
153.0445	2	C10H5N2+
153.0574	2	C11H7N+
154.0399	5	C9H4N3+
155.0492	2	C8H10ClN+
156.0569	11	C8H11ClN+
157.0521	16	C7H10ClN2+
159.0554	6	C6H10ClN3+
162.0337	24	C12H4N+
163.0415	27	C12H5N+
164.0493	999	C12H6N+
165.0446	129	C11H5N2+
165.0572	11	C12H7N+
166.0525	4	C11H6N2+
166.0649	6	C12H8N+
170.0361	8	C6H7ClN4+
170.0601	2	C8H11ClN2+
173.0153	1	C11H6Cl+
174.0101	1	C10H5ClN+
177.057	6	C13H7N+
178.0651	3	C13H8N+
179.0605	3	C12H7N2+
179.0727	1	C13H9N+
182.0598	3	C9H11ClN2+
183.0551	13	C8H10ClN3+
188.0492	1	C14H6N+
189.0446	19	C13H5N2+
190.0523	20	C13H6N2+
190.065	3	C14H8N+
191.0602	43	C13H7N2+
192.0679	4	C13H8N2+
198.01	1	C12H5ClN+
203.0602	1	C14H7N2+
205.0762	3	C14H9N2+
209.0708	1	C10H12ClN3+
216.0679	3	C15H8N2+
