Mass spectrum: Coumatetralyl; LC-ESI-QFT; MS2; CE: 180%; R=17500; [M+H]+
Name: Coumatetralyl
Name: 4-hydroxy-3-(1,2,3,4-tetrahydronaphthalen-1-yl)chromen-2-one
Formula: C19H16O3
Exact mass: 292.1099
SMILES: C1CC(C2=CC=CC=C2C1)C3=C(C4=CC=CC=C4OC3=O)O
InChI: InChI=1S/C19H16O3/c20-18-15-9-3-4-11-16(15)22-19(21)17(18)14-10-5-7-12-6-1-2-8-13(12)14/h1-4,6,8-9,11,14,20H,5,7,10H2
Instrument: Exploris 240 Orbitrap Thermo Scientific
Instrument type: LC-ESI-QFT
Ms type: MS2
Ion mode: POSITIVE
Ionization: ESI
Fragmentation mode: HCD
Collision energy: 180 % (nominal)
Resolution: 17500
Column name: XBridge C18 3.5um, 2.1x50mm, Waters
Retention time: 10.203 min
Base peak: 293.1169
Precursor m/z: 293.1172
Precursor type: [M+H]+
m/z	relative intensity	assigned
50.015	63	C4H2+
51.0229	352	C4H3+
53.0023	22	C3HO+
53.0386	56	C4H5+
63.0229	64	C5H3+
65.0386	999	C5H5+
77.0386	288	C6H5+
79.0543	30	C6H7+
89.0386	14	C7H5+
91.0542	280	C7H7+
94.0413	15	C6H6O+
95.0492	188	C6H7O+
115.054	37	C9H7+
121.0286	13	C7H5O2+
128.0622	14	C10H8+
