Mass spectrum: Ethoprop; LC-ESI-QFT; MS2; CE: 180; R=35000; [M+H]+
Name: Ethoprop
Name: 1-[ethoxy(propylsulfanyl)phosphoryl]sulfanylpropane
Formula: C8H19O2PS2
Exact mass: 242.05641
SMILES: CCCSP(=O)(OCC)SCCC
InChI: InChI=1S/C8H19O2PS2/c1-4-7-12-11(9,10-6-3)13-8-5-2/h4-8H2,1-3H3
Instrument: Q Exactive Plus Orbitrap Thermo Scientific
Instrument type: LC-ESI-QFT
Ms type: MS2
Ion mode: POSITIVE
Ionization: ESI
Fragmentation mode: HCD
Collision energy: 180 (nominal)
Resolution: 35000
Column name: XBridge C18 3.5um, 2.1x50mm, Waters
Retention time: 11.5 min
Base peak: 243.0634
Precursor m/z: 243.0637
Precursor type: [M+H]+
m/z	relative intensity	assigned
53.0023	18	C3HO+
53.9975	7	C2NO+
54.0101	1	C3H2O+
62.9453	48	PS+
64.9788	999	H2O2P+
67.9893	5	C3O2+
78.9402	266	OPS+
79.948	14	HOPS+
80.9559	1	H2OPS+
94.9174	318	PS2+
96.9509	120	H2O2PS+
112.9279	6	H2OPS2+
114.9614	314	H4O3PS+
128.9771	2	CH6O3PS+
