Mass spectrum: MCLA; LC-ESI-QFT; MS2; CE: 30%; R=17500; [M-H]-
Name: MCLA
Name: Microcystin LA
Name: (5R,8S,11R,12S,15S,18S,19S,22R)-18-[(1E,3E,5S,6S)-6-methoxy-3,5-dimethyl-7-phenylhepta-1,3-dienyl]-1,5,12,15,19-pentamethyl-2-methylidene-8-(2-methylpropyl)-3,6,9,13,16,20,25-heptaoxo-1,4,7,10,14,17,21-heptazacyclopentacosane-11,22-dicarboxylic acid
Class: NA
Formula: C46H67N7O12
Exact mass: 909.4848
SMILES: CO[C@@H](Cc1ccccc1)[C@@H](C)\C=C(C)\C=C\[C@@H]2NC(=O)[C@H](C)NC(=O)[C@@H](C)[C@@H](NC(=O)[C@H](CC(C)C)NC(=O)[C@@H](C)NC(=O)C(=C)N(C)C(=O)CC[C@@H](NC(=O)[C@H]2C)C(O)=O)C(O)=O
InChI: InChI=1S/C46H67N7O12/c1-24(2)21-35-44(60)52-38(46(63)64)28(6)40(56)47-29(7)41(57)49-33(18-17-25(3)22-26(4)36(65-11)23-32-15-13-12-14-16-32)27(5)39(55)50-34(45(61)62)19-20-37(54)53(10)31(9)43(59)48-30(8)42(58)51-35/h12-18,22,24,26-30,33-36,38H,9,19-21,23H2,1-8,10-11H3,(H,47,56)(H,48,59)(H,49,57)(H,50,55)(H,51,58)(H,52,60)(H,61,62)(H,63,64)/b18-17+,25-22+/t26-,27-,28-,29-,30+,33-,34+,35-,36-,38+/m0/s1
Instrument: Q Exactive Plus Orbitrap Thermo Scientific
Instrument type: LC-ESI-QFT
Ms type: MS2
Ion mode: NEGATIVE
Ionization: ESI
Fragmentation mode: HCD
Collision energy: 30 % (nominal)
Resolution: 17500
Column name: XBridge C18 3.5um, 2.1x50mm, Waters
Retention time: 10.539 min
Base peak: 190.9277
Precursor m/z: 908.4775
Precursor type: [M-H]-
m/z	relative intensity	assigned
84.0457	8	C4H6NO-
100.0403	17	C4H6NO2-
110.0249	14	C5H4NO2-
113.0356	17	C4H5N2O2-
124.0404	52	C6H6NO2-
127.0513	14	C5H7N2O2-
128.0353	999	C5H6NO3-
129.1032	27	C6H13N2O-
137.0719	20	C7H9N2O-
138.056	16	C7H8NO2-
139.0875	13	C7H11N2O-
153.0668	61	C7H9N2O2-
155.0825	29	C7H11N2O2-
165.1024	31	C7H11N5-
167.0826	15	C8H11N2O2-
170.0932	27	C7H12N3O2-
181.0616	61	C8H9N2O3-
182.1289	18	C7H14N6-
183.1136	10	C9H15N2O2-
184.0606	35	C6H8N4O3-
198.0877	14	C6H10N6O2-
200.1394	100	C7H16N6O-
211.0709	41	C7H9N5O3-
226.119	33	C8H14N6O2-
240.1339	41	C9H16N6O2-
265.1657	241	C12H25O6-
283.1761	388	C11H21N7O2-
293.1612	20	C13H25O7-
295.1806	25	C4H29N3O11-
311.1719	93	C14H23N4O4-
323.2095	20	C16H27N4O3-
327.207	66	C5H33N3O12-
412.2192	59	C17H34NO10-
424.2137	18	C11H32N6O11-
451.2618	35	C28H31N6-
468.2458	25	C35H32O-
495.2509	141	C14H37N7O12-
623.3106	14	C35H45NO9-
645.3269	43	C33H47N3O10-
689.3166	52	C34H47N3O12-
864.4828	14	C45H66N7O10-
890.4675	666	C46H64N7O11-
908.4793	73	C46H66N7O12-
