Mass spectrum: Ketoconazole; LC-ESI-QFT; MS2; CE: 60; R=35000; [M+H]+
Name: Ketoconazole
Name: 1-[4-[4-[[(2R,4S)-2-(2,4-dichlorophenyl)-2-(imidazol-1-ylmethyl)-1,3-dioxolan-4-yl]methoxy]phenyl]piperazin-1-yl]ethanone
Formula: C26H28Cl2N4O4
Exact mass: 530.14876
SMILES: CC(=O)N1CCN(CC1)C2=CC=C(C=C2)OC[C@H]3CO[C@](O3)(CN4C=CN=C4)C5=C(C=C(C=C5)Cl)Cl
InChI: InChI=1S/C26H28Cl2N4O4/c1-19(33)31-10-12-32(13-11-31)21-3-5-22(6-4-21)34-15-23-16-35-26(36-23,17-30-9-8-29-18-30)24-7-2-20(27)14-25(24)28/h2-9,14,18,23H,10-13,15-17H2,1H3/t23-,26-/m0/s1
Instrument: Q Exactive Plus Orbitrap Thermo Scientific
Instrument type: LC-ESI-QFT
Ms type: MS2
Ion mode: POSITIVE
Ionization: ESI
Fragmentation mode: HCD
Collision energy: 60 (nominal)
Resolution: 35000
Column name: XBridge C18 3.5um, 2.1x50mm, Waters
Retention time: 7.9 min
Base peak: 531.1558
Precursor m/z: 531.156
Precursor type: [M+H]+
m/z	relative intensity	assigned
54.0338	29	C3H4N+
55.0178	4	C3H3O+
55.0416	4	C3H5N+
56.0495	39	C3H6N+
58.0651	8	C3H8N+
65.0384	3	C5H5+
68.0369	28	C3H4N2+
68.0494	4	C4H6N+
69.0447	87	C3H5N2+
70.0651	113	C4H8N+
71.0603	98	C3H7N2+
79.0542	11	C6H7+
80.0495	3	C5H6N+
81.0447	458	C4H5N2+
82.0525	999	C4H6N2+
83.0603	26	C4H7N2+
84.0682	2	C4H8N2+
86.06	57	C4H8NO+
91.0542	8	C7H7+
94.0652	3	C6H8N+
95.049	2	C6H7O+
95.0603	6	C5H7N2+
98.9996	2	C5H4Cl+
103.0541	6	C8H7+
104.0495	2	C7H6N+
105.0699	9	C8H9+
106.0651	6	C7H8N+
107.0491	21	C7H7O+
107.0604	8	C6H7N2+
108.0444	2	C6H6NO+
109.0396	9	C5H5N2O+
109.0523	4	C6H7NO+
109.076	8	C6H9N2+
111.0553	3	C5H7N2O+
112.0757	267	C6H10NO+
113.0708	4	C5H9N2O+
114.0423	2	C4H6N2O2+
115.0542	6	C9H7+
117.0573	8	C8H7N+
117.0699	16	C9H9+
118.0651	25	C8H8N+
119.0493	2	C8H7O+
119.073	8	C8H9N+
119.0856	2	C9H11+
120.0444	101	C7H6NO+
120.0808	46	C8H10N+
121.0395	2	C6H5N2O+
121.0649	2	C8H9O+
121.076	2	C7H9N2+
122.06	105	C7H8NO+
122.9994	4	C7H4Cl+
123.0918	2	C7H11N2+
125.0154	7	C7H6Cl+
126.9943	2	C6H4ClO+
127.0502	38	C5H7N2O2+
128.0622	3	C10H8+
129.0698	14	C10H9+
130.0651	28	C9H8N+
131.0493	7	C9H7O+
131.0729	16	C9H9N+
132.057	12	C9H8O+
132.0808	22	C9H10N+
133.0523	9	C8H7NO+
133.0649	4	C9H9O+
134.06	99	C8H8NO+
135.0678	157	C8H9NO+
136.0757	122	C8H10NO+
138.0231	2	C8H7Cl+
139.0308	7	C8H8Cl+
143.073	6	C10H9N+
144.0808	55	C10H10N+
145.0648	9	C10H9O+
145.0886	22	C10H11N+
145.9687	5	C6H4Cl2+
146.06	36	C9H8NO+
146.0964	79	C10H12N+
146.9762	5	C6H5Cl2+
147.0679	6	C9H9NO+
147.0804	2	C10H11O+
148.0757	218	C9H10NO+
149.0152	15	C9H6Cl+
150.0231	26	C9H7Cl+
151.031	11	C9H8Cl+
154.0651	3	C11H8N+
155.0603	4	C10H7N2+
156.0808	14	C11H10N+
157.0646	1	C11H9O+
157.0887	5	C11H11N+
157.9685	22	C7H4Cl2+
158.0602	2	C10H8NO+
158.0965	32	C11H12N+
158.9763	158	C7H5Cl2+
159.0678	10	C10H9NO+
159.9842	3	C7H6Cl2+
160.0757	26	C10H10NO+
161.0835	7	C10H11NO+
161.1074	3	C10H13N2+
162.0789	3	C9H10N2O+
162.0913	14	C10H12NO+
162.1153	1	C10H14N2+
163.0308	17	C10H8Cl+
163.0863	5	C9H11N2O+
163.123	16	C10H15N2+
164.0707	4	C9H10NO2+
167.0259	35	C9H8ClO+
167.0815	153	C8H11N2O2+
169.9684	121	C8H4Cl2+
170.9761	8	C8H5Cl2+
171.0678	3	C11H9NO+
171.9838	2	C8H6Cl2+
172.0757	21	C11H10NO+
172.1122	8	C12H14N+
172.9556	112	C7H3Cl2O+
173.0836	9	C11H11NO+
174.0914	158	C11H12NO+
174.9711	10	C7H5Cl2O+
175.0867	3	C10H11N2O+
175.1233	2	C11H15N2+
176.0706	2	C10H10NO2+
176.0944	8	C10H12N2O+
176.1068	4	C11H14NO+
177.1022	179	C10H13N2O+
178.0861	7	C10H12NO2+
178.11	13	C10H14N2O+
179.1177	1	C10H15N2O+
184.9919	67	C9H7Cl2+
185.9634	207	C8H4Cl2O+
186.9712	23	C8H5Cl2O+
187.1231	3	C12H15N2+
188.1069	6	C12H14NO+
189.1385	12	C12H17N2+
190.0864	7	C11H12NO2+
191.0941	3	C11H13NO2+
191.1178	3	C11H15N2O+
192.1018	33	C11H14NO2+
200.1071	12	C13H14NO+
202.9662	13	C8H5Cl2O2+
203.037	53	C11H8ClN2+
204.1023	5	C9H17ClN2O+
205.0291	6	C11H8ClNO+
205.0528	2	C11H10ClN2+
205.0973	2	C11H13N2O2+
205.1339	4	C9H20ClN3+
209.0365	4	C11H10ClO2+
212.003	2	C10H8Cl2N+
213.995	1	C10H8Cl2O+
215.118	5	C13H15N2O+
216.1021	16	C13H14NO2+
216.1252	3	C13H16N2O+
217.1336	25	C13H17N2O+
218.1177	5	C13H16NO2+
219.1129	27	C12H15N2O2+
220.1206	5	C12H16N2O2+
226.006	1	C10H8Cl2N2+
229.0525	1	C13H10ClN2+
233.0478	7	C12H10ClN2O+
234.1123	4	C13H16NO3+
235.1439	4	C13H19N2O2+
236.999	1	C11H7Cl2N2+
238.0059	17	C11H8Cl2N2+
239.0136	7	C11H9Cl2N2+
244.0052	25	C11H10Cl2O2+
247.0633	20	C13H12ClN2O+
252.9932	5	C11H7Cl2N2O+
254.0009	2	C11H8Cl2N2O+
255.0086	145	C11H9Cl2N2O+
267.0087	106	C12H9Cl2N2O+
269.0249	1	C12H11Cl2N2O+
271.0034	2	C11H9Cl2N2O2+
281.0244	17	C13H11Cl2N2O+
311.0346	7	C14H13Cl2N2O2+
378.0658	17	C19H18Cl2NO3+
489.1449	1	C24H27Cl2N4O3+
