Mass spectrum: 17a-Ethynylestradiol; LC-ESI-QFT; MS2; CE: 15; R=35000; [M+H]+
Name: 17a-Ethynylestradiol
Name: Ethinyl Estradiol
Name: 17-ethynyl-13-methyl-7,8,9,11,12,14,15,16-octahydro-6H-cyclopenta[a]phenanthrene-3,17-diol
Formula: C20H24O2
Exact mass: 296.17763
SMILES: Oc1cc4c(cc1)C3CCC2(C(CCC2(C#C)O)C3CC4)C
InChI: InChI=1S/C20H24O2/c1-3-20(22)11-9-18-17-6-4-13-12-14(21)5-7-15(13)16(17)8-10-19(18,20)2/h1,5,7,12,16-18,21-22H,4,6,8-11H2,2H3
Instrument: Q Exactive Orbitrap Thermo Scientific
Instrument type: LC-ESI-QFT
Ms type: MS2
Ion mode: POSITIVE
Ionization: ESI
Fragmentation mode: HCD
Collision energy: 15 (nominal)
Resolution: 35000
Column name: XBridge C18 3.5um, 2.1x50mm, Waters
Retention time: 10.4 min
Base peak: 279.1744
Precursor m/z: 297.1849
Precursor type: [M+H]+
m/z	relative intensity	assigned
67.0542	1	C5H7+
69.0698	1	C5H9+
79.0542	4	C6H7+
81.0699	12	C6H9+
83.049	1	C5H7O+
83.0855	2	C6H11+
85.0648	7	C5H9O+
91.0539	6	C7H7+
93.0699	12	C7H9+
95.049	1	C6H7O+
95.0855	17	C7H11+
97.0648	3	C6H9O+
97.1011	1	C7H13+
105.0699	12	C8H9+
107.0491	173	C7H7O+
107.0855	13	C8H11+
109.0648	5	C7H9O+
109.1011	17	C8H13+
111.0805	9	C7H11O+
117.0698	5	C9H9+
119.0491	1	C8H7O+
119.0855	12	C9H11+
121.0647	31	C8H9O+
121.1012	11	C9H13+
123.044	3	C7H7O2+
123.0805	7	C8H11O+
123.1164	1	C9H15+
124.0883	3	C8H12O+
125.0916	1	C3H13N2O3+
127.0753	5	C7H11O2+
131.0492	1	C9H7O+
131.0856	11	C10H11+
133.0648	70	C9H9O+
133.1012	40	C10H13+
135.0802	6	C9H11O+
135.1168	20	C10H15+
136.0883	1	C9H12O+
137.0963	13	C9H13O+
143.0855	3	C11H11+
145.0648	16	C10H9O+
145.1012	12	C11H13+
147.0805	37	C10H11O+
147.1169	13	C11H15+
149.0598	12	C9H9O2+
149.0962	5	C10H13O+
149.1326	16	C11H17+
151.1118	5	C10H15O+
157.0649	35	C11H9O+
157.1012	3	C12H13+
159.0805	56	C11H11O+
159.1169	133	C12H15+
161.0963	10	C11H13O+
161.1324	2	C12H17+
163.0756	1	C10H11O2+
163.1115	4	C11H15O+
169.065	1	C12H9O+
169.1004	1	C13H13+
171.0804	16	C12H11O+
171.1168	15	C13H15+
172.1245	2	C13H16+
173.0962	12	C12H13O+
173.1325	22	C13H17+
175.1118	4	C12H15O+
175.1482	1	C13H19+
177.1276	14	C12H17O+
183.0805	25	C13H11O+
185.0962	30	C13H13O+
185.1327	18	C14H17+
187.1119	14	C13H15O+
189.1275	6	C13H17O+
191.1434	8	C13H19O+
195.0804	6	C14H11O+
197.0962	33	C14H13O+
198.1041	1	C14H14O+
199.1116	16	C14H15O+
201.0907	1	C13H13O2+
201.1272	5	C14H17O+
203.1067	1	C13H15O2+
203.1431	5	C14H19O+
209.0962	23	C15H13O+
211.1119	16	C15H15O+
213.1275	17	C15H17O+
214.1307	29	C10H18N2O3+
215.1068	20	C14H15O2+
223.1117	36	C16H15O+
225.1276	11	C16H17O+
227.1435	6	C16H19O+
229.1582	10	C16H21O+
236.1185	1	C17H16O+
237.1274	23	C17H17O+
239.1433	20	C17H19O+
240.1463	4	C12H20N2O3+
251.1431	28	C18H19O+
251.1794	4	C19H23+
253.1595	6	C18H21O+
261.1486	1	C16H21O3+
261.1637	1	C20H21+
279.1744	209	C20H23O+
297.1848	999	C20H25O2+
