Mass spectrum: Imatinib; LC-ESI-QFT; MS2; CE: 45; R=35000; [M+H]+
Name: Imatinib
Name: 4-[(4-methylpiperazin-1-yl)methyl]-N-[4-methyl-3-[(4-pyridin-3-ylpyrimidin-2-yl)amino]phenyl]benzamide
Formula: C29H31N7O
Exact mass: 493.25901
SMILES: CC1=C(C=C(C=C1)NC(=O)C2=CC=C(C=C2)CN3CCN(CC3)C)NC4=NC=CC(=N4)C5=CN=CC=C5
InChI: InChI=1S/C29H31N7O/c1-21-5-10-25(18-27(21)34-29-31-13-11-26(33-29)24-4-3-12-30-19-24)32-28(37)23-8-6-22(7-9-23)20-36-16-14-35(2)15-17-36/h3-13,18-19H,14-17,20H2,1-2H3,(H,32,37)(H,31,33,34)
Instrument: Q Exactive Plus Orbitrap Thermo Scientific
Instrument type: LC-ESI-QFT
Ms type: MS2
Ion mode: POSITIVE
Ionization: ESI
Fragmentation mode: HCD
Collision energy: 45 (nominal)
Resolution: 35000
Column name: XBridge C18 3.5um, 2.1x50mm, Waters
Retention time: 5.8 min
Base peak: 247.6364
Precursor m/z: 494.2663
Precursor type: [M+H]+
m/z	relative intensity	assigned
56.0495	43	C3H6N+
58.0651	78	C3H8N+
70.0651	103	C4H8N+
72.0807	14	C4H10N+
80.0494	1	C5H6N+
82.0651	2	C5H8N+
83.0603	4	C4H7N2+
84.0682	16	C4H8N2+
85.0761	1	C4H9N2+
91.0542	7	C7H7+
97.076	45	C5H9N2+
98.0838	67	C5H10N2+
99.0916	201	C5H11N2+
100.0994	23	C5H12N2+
101.1073	3	C5H13N2+
104.0494	6	C7H6N+
105.0335	16	C7H5O+
105.0447	10	C6H5N2+
105.0699	1	C8H9+
109.076	13	C6H9N2+
111.0916	50	C6H11N2+
112.0994	13	C6H12N2+
118.0413	8	C8H6O+
118.065	1	C8H8N+
119.0491	77	C8H7O+
121.0648	1	C8H9O+
121.076	25	C7H9N2+
131.0496	5	C9H7O+
131.0603	78	C8H7N2+
132.0443	4	C8H6NO+
132.0682	23	C8H8N2+
132.0806	3	C9H10N+
135.0916	8	C8H11N2+
146.06	3	C9H8NO+
146.0711	2	C8H8N3+
146.0965	4	C10H12N+
149.1073	1	C9H13N2+
158.06	17	C10H8NO+
158.0712	2	C9H8N3+
158.0965	2	C11H12N+
160.0756	10	C10H10NO+
162.0914	2	C10H12NO+
173.0821	12	C9H9N4+
174.0662	2	C9H8N3O+
174.0913	18	C11H12NO+
174.1152	2	C11H14N2+
179.0855	1	C14H11+
185.0821	10	C10H9N4+
188.1309	1	C12H16N2+
189.1386	41	C12H17N2+
194.0964	31	C14H12N+
202.11	2	C12H14N2O+
204.0811	3	C15H10N+
206.0838	19	C14H10N2+
207.0679	3	C14H9NO+
210.0914	2	C14H12NO+
212.1071	2	C14H14NO+
217.1336	69	C13H17N2O+
219.0916	3	C15H11N2+
220.0994	1	C15H12N2+
221.1073	76	C15H13N2+
222.0913	389	C15H12NO+
223.0992	65	C15H13NO+
224.0948	3	C14H12N2O+
237.1024	6	C15H13N2O+
237.1259	6	C15H15N3+
238.11	38	C15H14N2O+
239.1178	6	C15H15N2O+
247.0866	128	C16H11N2O+
248.0936	2	C16H12N2O+
249.0899	1	C15H11N3O+
249.1023	6	C16H13N2O+
259.098	3	C16H11N4+
260.1051	3	C16H12N4+
261.1132	4	C16H13N4+
262.0972	2	C16H12N3O+
263.118	14	C17H15N2O+
264.1131	192	C16H14N3O+
265.0971	154	C16H13N2O2+
272.118	1	C18H14N3+
273.1021	3	C18H13N2O+
274.0974	18	C17H12N3O+
275.1044	3	C15H11N6+
276.1246	5	C16H14N5+
277.1086	3	C16H13N4O+
288.113	1	C18H14N3O+
290.1288	124	C18H16N3O+
315.1241	2	C19H15N4O+
349.1451	4	C23H17N4+
351.1257	30	C22H15N4O+
351.1608	71	C23H19N4+
352.1441	2	C23H18N3O+
359.1292	3	C24H15N4+
361.1319	7	C23H15N5+
363.1249	3	C23H15N4O+
364.1209	3	C22H14N5O+
364.1556	18	C23H18N5+
365.164	1	C23H19N5+
366.1715	55	C23H20N5+
367.1553	11	C23H19N4O+
375.1477	2	C24H17N5+
376.1559	81	C24H18N5+
377.1399	92	C24H17N4O+
378.135	115	C23H16N5O+
379.1429	262	C23H17N5O+
392.1505	2	C24H18N5O+
393.1583	2	C24H19N5O+
394.1664	999	C24H20N5O+
396.1812	1	C24H22N5O+
476.2559	14	C29H30N7+
494.267	4	C29H32N7O+
