Mass spectrum: 3,4-Methylenedioxy-N-methylamphetamine (MDMA); LC-ESI-QFT; MS2; CE: 90; R=35000; [M+H]+
Name: 3,4-Methylenedioxy-N-methylamphetamine (MDMA)
Name: N-Methyl-3,4-methylenedioxyamphetamine
Name: 1-(1,3-benzodioxol-5-yl)-N-methylpropan-2-amine
Formula: C11H15NO2
Exact mass: 193.11028
SMILES: CC(CC1=CC2=C(C=C1)OCO2)NC
InChI: InChI=1S/C11H15NO2/c1-8(12-2)5-9-3-4-10-11(6-9)14-7-13-10/h3-4,6,8,12H,5,7H2,1-2H3
Instrument: Q Exactive Plus Orbitrap Thermo Scientific
Instrument type: LC-ESI-QFT
Ms type: MS2
Ion mode: POSITIVE
Ionization: ESI
Fragmentation mode: HCD
Collision energy: 90 (nominal)
Resolution: 35000
Column name: XBridge C18 3.5um, 2.1x50mm, Waters
Retention time: 3.6 min
Base peak: 194.117
Precursor m/z: 194.1176
Precursor type: [M+H]+
m/z	relative intensity	assigned
50.015	5	C4H2+
51.0227	7	C4H3+
53.0385	42	C4H5+
55.0178	62	C3H3O+
56.0494	2	C3H6N+
58.0651	115	C3H8N+
65.0385	42	C5H5+
67.0541	2	C5H7+
77.0384	129	C6H5+
79.0541	592	C6H7+
81.0334	6	C5H5O+
89.0385	1	C7H5+
91.0542	15	C7H7+
93.0334	29	C6H5O+
94.0412	1	C6H6O+
95.0491	156	C6H7O+
103.0541	349	C8H7+
104.0619	2	C8H8+
105.0447	91	C6H5N2+
105.0698	999	C8H9+
107.049	5	C7H7O+
111.044	8	C6H7O2+
115.0542	18	C9H7+
121.0283	20	C7H5O2+
122.0361	22	C7H6O2+
131.0491	3	C9H7O+
133.0647	158	C9H9O+
135.0439	554	C8H7O2+
147.0439	12	C9H7O2+
148.0517	12	C9H8O2+
163.0752	6	C10H11O2+
