Mass spectrum: Bromacil; LC-ESI-ITFT; MS2; CE: 35%; R=30000; [M-H]-
Name: Bromacil
Name: Bromazil
Name: 5-bromanyl-3-butan-2-yl-6-methyl-1H-pyrimidine-2,4-dione
Formula: C9H13BrN2O2
Exact mass: 260.0155
SMILES: O=C1C(\Br)=C(/NC(=O)N1C(CC)C)C
InChI: InChI=1S/C9H13BrN2O2/c1-4-5(2)12-8(13)7(10)6(3)11-9(12)14/h5H,4H2,1-3H3,(H,11,14)
Instrument: LTQ Orbitrap XL Thermo Scientific
Instrument type: LC-ESI-ITFT
Ms type: MS2
Ion mode: NEGATIVE
Ionization: ESI
Fragmentation mode: CID
Collision energy: 35 % (nominal)
Resolution: 30000
Column name: XBridge C18 3.5um, 2.1x50mm, Waters
Retention time: 7.0 min
Base peak: 259.0087
Precursor m/z: 259.0088
Precursor type: [M-H]-
m/z	relative intensity	assigned
78.9189	17	Br-
159.9403	4	C4H3BrNO-
202.9463	999	C5H4BrN2O2-
