Mass spectrum: Furathiocarb; LC-ESI-QFT; MS2; CE: 30%; R=17500; [M+H]+
Name: Furathiocarb
Name: (2,2-dimethyl-3H-1-benzofuran-7-yl) N-[butoxycarbonyl(methyl)amino]sulfanyl-N-methylcarbamate
Formula: C18H26N2O5S
Exact mass: 382.1562
SMILES: CCCCOC(=O)N(C)SN(C)C(=O)OC1=CC=CC2=C1OC(C2)(C)C
InChI: InChI=1S/C18H26N2O5S/c1-6-7-11-23-16(21)19(4)26-20(5)17(22)24-14-10-8-9-13-12-18(2,3)25-15(13)14/h8-10H,6-7,11-12H2,1-5H3
Instrument: Exploris 240 Orbitrap Thermo Scientific
Instrument type: LC-ESI-QFT
Ms type: MS2
Ion mode: POSITIVE
Ionization: ESI
Fragmentation mode: HCD
Collision energy: 30 % (nominal)
Resolution: 17500
Column name: XBridge C18 3.5um, 2.1x50mm, Waters
Retention time: 13.069 min
Base peak: 383.1633
Precursor m/z: 383.1635
Precursor type: [M+H]+
m/z	relative intensity	assigned
57.0699	16	C4H9+
62.0059	28	CH4NS+
76.0393	12	C2H6NO2+
87.0264	35	C4H7S+
90.0372	34	C3H8NS+
105.0369	47	C4H9OS+
133.0651	5	C9H9O+
135.0804	34	C9H11O+
161.0598	13	C10H9O2+
163.0751	8	C2H15N2O4S+
164.0832	183	C10H12O2+
165.0909	7	C2H17N2O4S+
167.0526	233	C9H11OS+
177.0367	53	C10H9OS+
180.0693	9	C6H14NO3S+
195.0474	999	C10H11O2S+
252.069	175	C12H14NO3S+
