Mass spectrum: MCLW; LC-ESI-QFT; MS2; CE: 60%; R=17500; [M+H]+
Name: MCLW
Name: Microcystin LW
Name: (5R,8S,11R,12S,15S,18S,19S,22R)-15-(1H-indol-3-ylmethyl)-18-[(1E,3E,5S,6S)-6-methoxy-3,5-dimethyl-7-phenylhepta-1,3-dienyl]-1,5,12,19-tetramethyl-2-methylidene-8-(2-methylpropyl)-3,6,9,13,16,20,25-heptaoxo-1,4,7,10,14,17,21-heptazacyclopentacosane-11,22-dicarboxylic acid
Class: NA
Formula: C54H72N8O12
Exact mass: 1024.5270
SMILES: CO[C@@H](Cc1ccccc1)[C@@H](C)/C=C(C)/C=C/[C@@H]2NC(=O)[C@H](Cc3c[nH]c4ccccc34)NC(=O)[C@@H](C)[C@@H](NC(=O)[C@H](CC(C)C)NC(=O)[C@@H](C)NC(=O)C(=C)N(C)C(=O)CC[C@@H](NC(=O)[C@H]2C)C(O)=O)C(O)=O
InChI: InChI=1S/C54H72N8O12/c1-29(2)24-42-52(69)61-46(54(72)73)33(6)48(65)59-43(27-37-28-55-40-19-15-14-18-38(37)40)51(68)57-39(21-20-30(3)25-31(4)44(74-10)26-36-16-12-11-13-17-36)32(5)47(64)58-41(53(70)71)22-23-45(63)62(9)35(8)50(67)56-34(7)49(66)60-42/h11-21,25,28-29,31-34,39,41-44,46,55H,8,22-24,26-27H2,1-7,9-10H3,(H,56,67)(H,57,68)(H,58,64)(H,59,65)(H,60,66)(H,61,69)(H,70,71)(H,72,73)/b21-20+,30-25+/t31-,32-,33-,34+,39-,41+,42-,43-,44-,46+/m0/s1
Instrument: Q Exactive Plus Orbitrap Thermo Scientific
Instrument type: LC-ESI-QFT
Ms type: MS2
Ion mode: POSITIVE
Ionization: ESI
Fragmentation mode: HCD
Collision energy: 60 % (nominal)
Resolution: 17500
Column name: XBridge C18 3.5um, 2.1x50mm, Waters
Retention time: 11.761 min
Base peak: 164.9846
Precursor m/z: 1025.5342
Precursor type: [M+H]+
m/z	relative intensity	assigned
74.0237	14	C2H4NO2+
77.0383	20	C6H5+
79.0542	149	C6H7+
80.0494	22	C5H6N+
81.0698	9	C6H9+
82.0287	15	C4H4NO+
82.0651	103	C5H8N+
84.0444	215	C4H6NO+
84.0807	4	
85.0283	9	C4H5O2+
86.0598	7	
86.0964	403	C5H12N+
91.0542	422	C7H7+
92.062	3	C7H8+
93.0699	205	C7H9+
94.0651	30	C6H8N+
95.0491	114	C6H7O+
95.0856	27	C7H11+
96.0442	5	C5H6NO+
96.0809	17	C6H10N+
97.0758	4	C5H9N2+
98.0602	6	C5H8NO+
99.0916	95	C5H11N2+
101.0707	5	C4H9N2O+
102.0467	6	C8H6+
102.0549	23	C4H8NO2+
103.0542	497	C8H7+
105.0448	31	C6H5N2+
105.0699	427	C8H9+
107.0855	999	C8H11+
108.0682	6	C6H8N2+
108.0807	9	C7H10N+
109.0648	46	C7H9O+
110.06	71	C6H8NO+
110.0962	9	C7H12N+
111.0553	44	C5H7N2O+
112.0392	8	C5H6NO2+
112.0756	7	C6H10NO+
113.0232	36	C5H5O3+
113.0708	8	C5H9N2O+
114.0548	5	C5H8NO2+
115.0542	91	C9H7+
116.062	6	C9H8+
117.0577	21	C8H7N+
117.0698	142	C9H9+
118.0647	18	C8H8N+
119.0604	25	C7H7N2+
119.0856	58	C9H11+
120.0569	12	C8H8O+
120.0808	14	C8H10N+
120.0933	9	C9H12+
121.0646	8	C8H9O+
121.0758	42	C7H9N2+
121.1008	17	C9H13+
122.0598	11	C7H8NO+
122.0835	3	C7H10N2+
122.0964	19	C8H12N+
123.0915	17	C7H11N2+
124.0759	31	C7H10NO+
124.1121	22	C8H14N+
125.0709	12	C6H9N2O+
126.055	8	C6H8NO2+
127.0865	836	C6H11N2O+
128.0618	31	C10H8+
128.0707	16	C6H10NO2+
129.0699	33	C10H9+
130.0505	29	C5H8NO3+
130.0651	153	C9H8N+
130.0767	8	C10H10+
131.0749	5	
131.0855	79	C10H11+
132.0807	214	C9H10N+
133.0646	5	C9H9O+
133.1011	40	C10H13+
134.0962	9	C9H12N+
135.0803	411	C9H11O+
135.1167	373	C10H15+
136.0752	8	C8H10NO+
137.0707	4	C7H9N2O+
138.0549	89	C7H8NO2+
139.0868	14	C7H11N2O+
140.0703	9	C7H10NO2+
142.0653	30	C10H8N+
143.0734	6	C10H9N+
143.0854	35	C11H11+
144.0808	64	C10H10N+
144.0926	6	C11H12+
145.0761	19	C9H9N2+
145.0894	4	C10H11N+
145.101	45	C11H13+
146.0602	20	C9H8NO+
146.0962	35	C10H12N+
146.1088	16	C11H14+
148.1112	2	C10H14N+
149.0709	81	C8H9N2O+
150.0549	5	C8H8NO2+
150.0909	4	C9H12NO+
151.0864	11	C8H11N2O+
152.1069	6	C9H14NO+
154.0657	12	C11H8N+
155.0608	6	
155.0814	129	C7H11N2O2+
157.0608	114	C6H9N2O3+
157.1011	5	C12H13+
157.1336	12	C8H17N2O+
158.0599	8	C10H8NO+
158.0839	108	C10H10N2+
158.096	8	C11H12N+
159.0916	492	C10H11N2+
159.1169	16	
160.0753	22	C10H10NO+
161.0965	16	C11H13O+
162.1275	21	C11H16N+
163.1117	108	C11H15O+
165.0696	11	C13H9+
165.1027	5	C9H13N2O+
166.0772	10	C13H10+
167.0816	275	C8H11N2O2+
168.0654	20	C8H10NO3+
168.0808	19	C12H10N+
169.076	140	C11H9N2+
169.0998	9	C13H13+
170.0599	50	C11H8NO+
170.0964	6	C12H12N+
171.0792	3	C10H9N3+
171.092	13	C11H11N2+
171.1165	6	C13H15+
172.1124	4	C12H14N+
173.0963	14	C12H13O+
174.1038	6	C12H14O+
179.0847	7	C14H11+
180.093	12	C14H12+
181.1012	17	C14H13+
181.1331	19	C10H17N2O+
182.0824	3	C9H12NO3+
182.0964	4	C13H12N+
185.0711	46	C11H9N2O+
185.1069	22	C12H13N2+
186.0911	4	C12H12NO+
187.0867	46	C11H11N2O+
188.0708	23	C11H10NO2+
188.1065	6	C12H14NO+
188.1431	10	C13H18N+
190.1223	5	C12H16NO+
192.0937	3	CH14N5O6+
193.0987	14	C10H13N2O2+
194.0595	4	C13H8NO+
194.1651	5	C11H20N3+
195.0767	108	C9H11N2O3+
195.1161	18	H21NO10+
196.0604	20	C9H10NO4+
196.0997	4	C13H12N2+
197.0706	4	C12H9N2O+
197.1075	36	C13H13N2+
198.0911	6	C13H12NO+
200.1436	5	C14H18N+
205.0989	3	CH19NO10+
207.092	9	H13N7O6+
209.1076	14	C14H13N2+
211.072	4	C9H11N2O4+
213.0871	165	C9H13N2O4+
215.0824	17	H15N4O9+
218.1542	15	H22N6O7+
222.1602	4	C12H20N3O+
225.1026	20	H15N7O7+
226.1592	19	C16H20N+
227.1545	7	C15H19N2+
235.0869	43	CH13N7O7+
236.0942	14	C15H12N2O+
237.1019	5	C15H13N2O+
237.1643	4	C4H23N5O6+
239.0666	11	C10H11N2O5+
243.1123	7	C14H15N2O2+
244.1121	12	C18H14N+
253.0974	18	C15H13N2O2+
270.1238	10	C15H16N3O2+
271.1075	23	C15H15N2O3+
288.1344	10	C15H18N3O3+
