Mass spectrum: Quinmerac; LC-ESI-QFT; MS2; CE: 90; R=35000; [M+H]+
Name: Quinmerac
Name: 7-chloro-3-methyl-quinoline-8-carboxylic acid
Name: 7-chloro-3-methylquinoline-8-carboxylic acid
Formula: C11H8ClNO2
Exact mass: 221.02436
SMILES: CC1=CN=C2C(=C1)C=CC(=C2C(=O)O)Cl
InChI: InChI=1S/C11H8ClNO2/c1-6-4-7-2-3-8(12)9(11(14)15)10(7)13-5-6/h2-5H,1H3,(H,14,15)
Instrument: Q Exactive Plus Orbitrap Thermo Scientific
Instrument type: LC-ESI-QFT
Ms type: MS2
Ion mode: POSITIVE
Ionization: ESI
Fragmentation mode: HCD
Collision energy: 90 (nominal)
Resolution: 35000
Column name: XBridge C18 3.5um, 2.1x50mm, Waters
Retention time: 5.2 min
Base peak: 222.0312
Precursor m/z: 222.0316
Precursor type: [M+H]+
m/z	relative intensity	assigned
63.0228	1	C5H3+
87.0228	1	C7H3+
88.0306	1	C7H4+
89.0386	4	C7H5+
90.0464	23	C7H6+
92.0257	1	C6H4O+
102.0464	5	C8H6+
113.0385	22	C9H5+
114.0464	49	C9H6+
116.0495	1	C8H6N+
117.0335	1	C8H5O+
118.0413	7	C8H6O+
122.9994	2	C7H4Cl+
131.0491	1	C9H7O+
132.057	27	C9H8O+
139.0414	1	C10H5N+
140.0495	520	C10H6N+
141.0572	999	C10H7N+
149.0153	621	C9H6Cl+
150.0105	13	C8H5ClN+
158.0599	5	C10H8NO+
161.0025	2	C9H4ClN+
168.0556	2	C10H6N3+
174.0106	5	C10H5ClN+
175.0183	9	C10H6ClN+
176.0262	176	C10H7ClN+
194.0368	64	C10H9ClNO+
204.0212	140	C11H7ClNO+
222.0317	14	C11H9ClNO2+
