Mass spectrum: Anabaenopeptin A; LC-ESI-QFT; MS2; CE: 15%; R=17500; [M+H]+
Name: Anabaenopeptin A
Name: 2-[[3-benzyl-9-[2-(4-hydroxyphenyl)ethyl]-6,7-dimethyl-2,5,8,11,14-pentaoxo-12-propan-2-yl-1,4,7,10,13-pentazacyclononadec-15-yl]carbamoylamino]-3-(4-hydroxyphenyl)propanoic acid
Formula: C44H57N7O10
Exact mass: 843.4167
SMILES: CC1C(=O)NC(C(=O)NCCCCC(C(=O)NC(C(=O)NC(C(=O)N1C)CCC2=CC=C(C=C2)O)C(C)C)NC(=O)NC(CC3=CC=C(C=C3)O)C(=O)O)CC4=CC=CC=C4
InChI: InChI=1S/C44H57N7O10/c1-26(2)37-41(57)46-34(22-17-28-13-18-31(52)19-14-28)42(58)51(4)27(3)38(54)47-35(24-29-10-6-5-7-11-29)39(55)45-23-9-8-12-33(40(56)50-37)48-44(61)49-36(43(59)60)25-30-15-20-32(53)21-16-30/h5-7,10-11,13-16,18-21,26-27,33-37,52-53H,8-9,12,17,22-25H2,1-4H3,(H,45,55)(H,46,57)(H,47,54)(H,50,56)(H,59,60)(H2,48,49,61)
Instrument: Q Exactive Plus Orbitrap Thermo Scientific
Instrument type: LC-ESI-QFT
Ms type: MS2
Ion mode: POSITIVE
Ionization: ESI
Fragmentation mode: HCD
Collision energy: 15 % (nominal)
Resolution: 17500
Column name: XBridge C18 3.5um, 2.1x50mm, Waters
Retention time: 7.249 min
Base peak: 164.9844
Precursor m/z: 844.424
Precursor type: [M+H]+
m/z	relative intensity	assigned
84.0808	13	C5H10N+
114.0548	1	C5H8NO2+
231.1497	2	H21N7O7+
233.1293	2	C13H17N2O2+
263.1403	12	C2H23N4O10+
316.2048	3	C8H32N2O10+
362.2106	5	C22H26N4O+
379.2395	5	C12H35N4O9+
405.2183	4	C11H31N7O9+
439.2027	1	C14H29N7O9+
455.2356	1	C32H29N3+
480.2476	5	C25H32N6O4+
525.2713	2	C28H37N4O6+
550.266	27	C29H36N5O6+
564.2819	2	C30H38N5O6+
568.2756	17	C43H36O+
582.294	2	C32H42N2O8+
592.3491	2	C33H46N5O5+
612.3037	2	C33H44N2O9+
635.3556	6	C34H47N6O6+
637.3705	106	C34H49N6O6+
649.3327	14	C31H47N5O10+
663.3495	103	C35H47N6O7+
667.3444	40	C34H47N6O8+
681.3583	4	C44H47N3O4+
741.3618	2	C42H51N3O9+
798.4187	4	C43H56N7O8+
816.429	40	C43H58N7O9+
826.4133	40	C44H56N7O9+
844.4236	999	C44H58N7O10+
