Mass spectrum: Mycophenolic acid; LC-ESI-ITFT; MS2; CE: 60%; R=7500; [M+H]+
Name: Mycophenolic acid
Name: (E)-6-(4-hydroxy-3-keto-6-methoxy-7-methyl-phthalan-5-yl)-4-methyl-hex-4-enoic acid
Formula: C17H20O6
Exact mass: 320.1260
SMILES: c12c(c(c(C\C=C(\CCC(O)=O)C)c(c1C)OC)O)C(=O)OC2
InChI: InChI=1S/C17H20O6/c1-9(5-7-13(18)19)4-6-11-15(20)14-12(8-23-17(14)21)10(2)16(11)22-3/h4,20H,5-8H2,1-3H3,(H,18,19)/b9-4+
Instrument: LTQ Orbitrap XL Thermo Scientific
Instrument type: LC-ESI-ITFT
Ms type: MS2
Ion mode: POSITIVE
Ionization: ESI
Fragmentation mode: HCD
Collision energy: 60 % (nominal)
Resolution: 7500
Column name: XBridge C18 3.5um, 2.1x50mm, Waters
Retention time: 9.9 min
Base peak: 321.1329
Precursor m/z: 321.1333
Precursor type: [M+H]+
m/z	relative intensity	assigned
77.0385	2	C6H5+
79.0543	2	C6H7+
81.0699	16	C6H9+
91.0542	52	C7H7+
95.0493	2	C6H7O+
103.0542	34	C8H7+
109.0646	3	C7H9O+
131.0491	19	C9H7O+
135.0805	16	C9H11O+
139.0751	2	C8H11O2+
149.0598	8	C9H9O2+
159.0439	703	C10H7O2+
161.0591	5	C10H9O2+
175.075	11	C11H11O2+
177.0545	121	C10H9O3+
179.0703	21	C10H11O3+
193.0499	3	C10H9O4+
195.0652	40	C10H11O4+
207.0652	999	C11H11O4+
215.1062	12	C14H15O2+
219.0656	5	C12H11O4+
221.0818	5	C12H13O4+
223.0606	6	C11H11O5+
239.1059	5	C16H15O2+
257.1166	3	C16H17O3+
261.1118	4	C15H17O4+
270.0892	7	C16H14O4+
275.1283	2	C16H19O4+
285.1126	6	C17H17O4+
