Mass spectrum: Dioxoaminopyrine; LC-ESI-ITFT; MS2; CE: 90%; R=30000; [M+H]+
Name: Dioxoaminopyrine
Name: AMDOPH
Name: 2-(N-[acetyl(methyl)amino]anilino)-2-keto-N,N-dimethyl-acetamide
Formula: C13H17N3O3
Exact mass: 263.1270
SMILES: c1ccccc1N(C(=O)C(=O)N(C)C)N(C)C(=O)C
InChI: InChI=1S/C13H17N3O3/c1-10(17)15(4)16(11-8-6-5-7-9-11)13(19)12(18)14(2)3/h5-9H,1-4H3
Instrument: LTQ Orbitrap XL Thermo Scientific
Instrument type: LC-ESI-ITFT
Ms type: MS2
Ion mode: POSITIVE
Ionization: ESI
Fragmentation mode: HCD
Collision energy: 90 % (nominal)
Resolution: 30000
Column name: XBridge C18 3.5um, 2.1x50mm, Waters
Retention time: 5.2 min
Base peak: 286.1173
Precursor m/z: 264.1343
Precursor type: [M+H]+
m/z	relative intensity	assigned
56.0495	21	C3H6N+
65.0386	81	C5H5+
72.0445	999	C3H6NO+
80.0494	4	C5H6N+
91.0418	7	C6H5N+
92.0495	72	C6H6N+
93.0335	14	C6H5O+
106.0652	16	C7H8N+
111.0441	5	C6H7O2+
119.0365	34	C7H5NO+
120.0444	9	C7H6NO+
121.076	8	C7H9N2+
134.0475	76	C7H6N2O+
147.0548	6	C8H7N2O+
148.0632	18	C8H8N2O+
149.0709	68	C8H9N2O+
163.0863	7	C9H11N2O+
