Mass spectrum: Sulfentrazon; LC-ESI-QFT; MS2; CE: 30; R=35000; [M+H]+
Name: Sulfentrazon
Name: N-(2,4-dichloro-5-(4-(difluoromethyl)-4,5-dihydro-3-methyl-5-oxo-1H-1,2,4-triazol-1-yl)phenyl)methanesulfonamide
Name: N-[2,4-dichloro-5-[4-(difluoromethyl)-3-methyl-5-oxo-1,2,4-triazol-1-yl]phenyl]methanesulfonamide
Formula: C11H10Cl2F2N4O3S
Exact mass: 385.98187
SMILES: O=S(=O)(Nc2c(Cl)cc(Cl)c(N1/N=C(\N(C1=O)C(F)F)C)c2)C
InChI: InChI=1S/C11H10Cl2F2N4O3S/c1-5-16-19(11(20)18(5)10(14)15)9-4-8(17-23(2,21)22)6(12)3-7(9)13/h3-4,10,17H,1-2H3
Instrument: Q Exactive Plus Orbitrap Thermo Scientific
Instrument type: LC-ESI-QFT
Ms type: MS2
Ion mode: POSITIVE
Ionization: ESI
Fragmentation mode: HCD
Collision energy: 30 (nominal)
Resolution: 35000
Column name: XBridge C18 3.5um, 2.1x50mm, Waters
Retention time: 7.4 min
Base peak: 386.989
Precursor m/z: 386.9891
Precursor type: [M+H]+
m/z	relative intensity	assigned
74.0034	1	C2HFNO+
89.0509	1	C3H6FN2+
92.0306	11	C3H4F2N+
136.9901	1	C6H2ClN2+
139.0057	1	C6H4ClN2+
145.9559	3	C5H2Cl2N+
149.0395	1	C4H5F2N3O+
155.0007	1	C6H4ClN2O+
157.9555	4	CHCl2FN4+
172.9666	4	C6H3Cl2N2+
178.0166	43	C8H5ClN3+
186.9822	7	C7H5Cl2N2+
198.946	24	C7HCl2N2O+
213.9933	34	C8H6Cl2N3+
216.9389	1	C7H3Cl2N2S+
239.9725	1	C9H4Cl2N3O+
240.9804	1	C9H5Cl2N3O+
241.9881	1	C9H6Cl2N3O+
245.9632	33	C8HClF2N2O3+
246.971	10	C8H4Cl2FN3O+
256.9989	4	C9H7Cl2N4O+
258.0071	3	C9H8Cl2N4O+
267.9914	5	C10H6Cl2N4O+
271.0193	70	C10H6ClF2N4O+
272.0269	4	C10H7ClF2N4O+
273.0349	130	C10H8ClF2N4O+
277.9549	1	C11H3ClN2O3S+
279.9851	75	C9H6Cl2F2N3O+
286.9897	55	C10H6Cl2FN4O+
287.9974	10	C10H7Cl2FN4O+
289.0299	75	C10H8ClF2N4O2+
294.9955	1	C9H7Cl2F2N4O+
302.9843	1	C10H6Cl2FN4O2+
303.0457	15	C11H10ClF2N4O2+
303.9923	5	C10H7Cl2FN4O2+
305.0078	1	C10H8ClF2N4OS+
306.9959	999	C10H7Cl2F2N4O+
308.0037	409	C10H8Cl2F2N4O+
309.0111	3	C10H9Cl2F2N4O+
321.0118	2	C11H9Cl2F2N4O+
322.9908	50	C10H7Cl2F2N4O2+
323.9987	10	C10H8Cl2F2N4O2+
325.0065	27	C10H9Cl2F2N4O2+
333.0013	2	C11H8ClF2N4O2S+
336.9923	59	C10H11Cl2N4O3S+
339.0222	3	C11H11Cl2F2N4O2+
340.9837	41	C10H9Cl2F2N4OS+
352.0202	6	C11H11ClF2N4O3S+
353.9547	2	C10H6Cl2F2N4O2S+
366.9831	128	C11H10Cl2FN4O3S+
368.9788	6	C11H9Cl2F2N4O2S+
386.9892	570	C11H11Cl2F2N4O3S+
