Mass spectrum: N4-Acetylsulfamethazine; LC-ESI-ITFT; MS2; CE: 75%; R=15000; [M+H]+
Name: N4-Acetylsulfamethazine
Name: N-[4-[(4,6-dimethyl-2-pyrimidinyl)sulfamoyl]phenyl]acetamide
Formula: C14H16N4O3S
Exact mass: 320.0943
SMILES: O=S(=O)(c1ccc(cc1)NC(=O)C)Nc1nc(cc(n1)C)C
InChI: InChI=1S/C14H16N4O3S/c1-9-8-10(2)16-14(15-9)18-22(20,21)13-6-4-12(5-7-13)17-11(3)19/h4-8H,1-3H3,(H,17,19)(H,15,16,18)
Instrument: LTQ Orbitrap XL Thermo Scientific
Instrument type: LC-ESI-ITFT
Ms type: MS2
Ion mode: POSITIVE
Ionization: ESI
Fragmentation mode: HCD
Collision energy: 75 % (nominal)
Resolution: 15000
Column name: XBridge C18 3.5um, 2.1x50mm, Waters
Retention time: 4.5 min
Base peak: 321.1027
Precursor m/z: 321.1016
Precursor type: [M+H]+
m/z	relative intensity	assigned
65.0386	999	C5H5+
68.0495	38	C4H6N+
78.0338	11	C5H4N+
79.0541	22	C6H7+
80.0493	27	C5H6N+
81.0447	62	C4H5N2+
83.0605	25	C4H7N2+
92.0495	197	C6H6N+
93.0335	91	C6H5O+
93.0573	50	C6H7N+
94.0651	58	C6H8N+
95.0604	216	C5H7N2+
96.0682	318	C5H8N2+
106.065	64	C7H8N+
107.0603	38	C6H7N2+
108.0444	551	C6H6NO+
110.0601	21	C6H8NO+
122.0713	38	C6H8N3+
123.0791	316	C6H9N3+
124.0869	750	C6H10N3+
125.0708	54	C6H9N2O+
134.06	651	C8H8NO+
156.0114	12	C6H6NO2S+
186.0333	50	C6H8N3O2S+
196.0873	23	C12H10N3+
198.0901	9	C11H10N4+
204.0437	11	C6H10N3O3S+
212.1056	96	C12H12N4+
213.1135	137	C12H13N4+
214.0977	40	C12H12N3O+
255.1238	23	C14H15N4O+
