Mass spectrum: Betamethasone 21; LC-ESI-QFT; MS2; CE: 75; R=35000; [M+H]+
Name: Betamethasone 21
Name: [2-[(8S,9R,10S,11S,13S,14S,16S,17R)-9-fluoro-11,17-dihydroxy-10,13,16-trimethyl-3-oxo-6,7,8,11,12,14,15,16-octahydrocyclopenta[a]phenanthren-17-yl]-2-oxoethyl] acetate
Formula: C24H31FO6
Exact mass: 434.21047
SMILES: O=C(OCC(=O)[C@]3(O)[C@]2(C[C@H](O)[C@]4(F)[C@@]/1(\C(=C/C(=O)\C=C\1)CC[C@H]4[C@@H]2C[C@@H]3C)C)C)C
InChI: InChI=1S/C24H31FO6/c1-13-9-18-17-6-5-15-10-16(27)7-8-21(15,3)23(17,25)19(28)11-22(18,4)24(13,30)20(29)12-31-14(2)26/h7-8,10,13,17-19,28,30H,5-6,9,11-12H2,1-4H3/t13-,17-,18-,19-,21-,22-,23-,24-/m0/s1
Instrument: Q Exactive Orbitrap Thermo Scientific
Instrument type: LC-ESI-QFT
Ms type: MS2
Ion mode: POSITIVE
Ionization: ESI
Fragmentation mode: HCD
Collision energy: 75 (nominal)
Resolution: 35000
Column name: XBridge C18 3.5um, 2.1x50mm, Waters
Retention time: 10.5 min
Base peak: 435.2171
Precursor m/z: 435.2177
Precursor type: [M+H]+
m/z	relative intensity	assigned
53.0386	10	C4H5+
55.0178	7	C3H3O+
55.0543	10	C4H7+
57.0335	12	C3H5O+
59.0491	9	C3H7O+
61.0284	79	C2H5O2+
65.0385	58	C5H5+
67.0542	205	C5H7+
69.0334	48	C4H5O+
69.0698	47	C5H9+
71.049	12	C4H7O+
75.0439	5	C3H7O2+
77.0385	22	C6H5+
78.0461	7	C6H6+
79.0542	317	C6H7+
81.0333	10	C5H5O+
81.0698	128	C6H9+
83.049	10	C5H7O+
91.0541	999	C7H7+
93.0697	271	C7H9+
95.049	253	C6H7O+
95.0854	161	C7H11+
97.0645	13	C6H9O+
101.0232	10	C4H5O3+
103.0541	88	C8H7+
104.062	25	C8H8+
105.0446	37	C6H5N2+
105.0697	594	C8H9+
107.049	111	C7H7O+
107.0854	234	C8H11+
108.0567	11	C7H8O+
109.045	7	C7H6F+
109.0646	89	C7H9O+
109.1011	78	C8H13+
111.0802	10	C7H11O+
115.0541	316	C9H7+
116.0619	80	C9H8+
117.0697	210	C9H9+
119.0854	565	C9H11+
121.0647	709	C8H9O+
121.1011	67	C9H13+
123.0803	64	C8H11O+
125.0594	7	C7H9O2+
127.0538	7	C10H7+
128.0619	482	C10H8+
129.0697	241	C10H9+
130.0775	66	C10H10+
131.0489	49	C9H7O+
131.0854	236	C10H11+
132.0568	213	C9H8O+
133.0646	65	C9H9O+
133.101	79	C10H13+
135.0802	161	C9H11O+
137.0595	8	C8H9O2+
137.096	8	C9H13O+
141.0695	252	C11H9+
142.0776	136	C11H10+
143.0854	299	C11H11+
144.0568	181	C10H8O+
144.093	12	C11H12+
145.0646	347	C10H9O+
145.101	65	C11H13+
146.0727	68	C10H10O+
147.0803	681	C10H11O+
149.096	31	C10H13O+
151.0752	12	C9H11O2+
152.0618	66	C12H8+
153.0697	110	C12H9+
154.0775	56	C12H10+
155.0489	13	C11H7O+
155.0602	40	C10H7N2+
155.0853	159	C12H11+
156.0566	24	C11H8O+
156.0931	34	C12H12+
157.0647	54	C11H9O+
157.101	59	C12H13+
158.0724	265	C11H10O+
159.0802	358	C11H11O+
160.088	23	C11H12O+
161.0598	6	C10H9O2+
161.0958	76	C11H13O+
165.0697	200	C13H9+
166.0774	69	C13H10+
167.0853	102	C13H11+
168.0567	25	C12H8O+
168.0932	14	C13H12+
169.0644	107	C12H9O+
169.1009	44	C13H13+
170.0722	74	C12H10O+
171.0801	385	C12H11O+
172.0881	48	C12H12O+
173.0957	98	C12H13O+
177.0691	10	C14H9+
178.0774	235	C14H10+
179.0852	317	C14H11+
180.0929	77	C14H12+
181.0645	150	C13H9O+
181.101	74	C14H13+
182.0724	137	C13H10O+
183.0802	116	C13H11O+
183.1163	9	C14H15+
184.0881	39	C13H12O+
185.0959	111	C13H13O+
187.0752	10	C12H11O2+
189.0696	104	C15H9+
190.0774	89	C15H10+
191.0853	121	C15H11+
192.093	123	C15H12+
193.0641	8	C14H9O+
193.1008	152	C15H13+
194.0721	68	C14H10O+
194.1084	72	C15H14+
195.0801	200	C14H11O+
195.1162	34	C15H15+
196.0879	140	C14H12O+
197.0958	143	C14H13O+
198.1036	33	C14H14O+
202.0771	89	C16H10+
203.085	124	C16H11+
204.0931	99	C16H12+
205.0647	49	C15H9O+
205.101	107	C16H13+
206.0724	47	C15H10O+
206.109	64	C16H14+
207.0801	179	C15H11O+
207.1167	51	C16H15+
208.088	189	C15H12O+
209.0958	227	C15H13O+
210.1035	79	C15H14O+
211.0748	6	C14H11O2+
211.1116	57	C15H15O+
212.1197	10	C15H16O+
215.0852	116	C17H11+
216.0932	65	C17H12+
217.1011	72	C17H13+
218.0722	41	C16H10O+
218.1088	36	C17H14+
219.0802	126	C16H11O+
219.1163	67	C17H15+
220.0879	69	C16H12O+
220.1243	26	C17H16+
221.0957	235	C16H13O+
221.1321	12	C17H17+
222.1035	218	C16H14O+
223.1116	78	C16H15O+
224.1193	11	C16H16O+
225.0913	9	C15H13O2+
225.127	13	C16H17O+
227.0847	12	C18H11+
228.0928	58	C18H12+
229.1007	113	C18H13+
230.1087	54	C18H14+
231.0804	84	C17H11O+
231.1163	39	C18H15+
232.0879	95	C17H12O+
232.1243	9	C18H16+
233.0957	169	C17H13O+
233.1318	13	C18H17+
234.1035	90	C17H14O+
235.1112	130	C17H15O+
235.148	10	C18H19+
236.1192	14	C17H16O+
237.127	52	C17H17O+
241.1007	24	C19H13+
242.1088	33	C19H14+
243.1165	89	C19H15+
244.0878	12	C18H12O+
244.1244	14	C19H16+
245.0956	108	C18H13O+
246.1036	110	C18H14O+
247.1113	171	C18H15O+
248.1191	113	C18H16O+
249.1268	48	C18H17O+
250.1344	8	C18H18O+
251.1423	9	C18H19O+
252.0923	8	C20H12+
256.0879	14	C19H12O+
256.1235	6	C20H16+
257.0958	11	C19H13O+
257.1317	11	C20H17+
258.1032	13	C19H14O+
259.111	49	C19H15O+
260.1189	17	C19H16O+
261.1271	107	C19H17O+
262.1352	53	C19H18O+
263.1429	56	C19H19O+
270.1042	10	C20H14O+
271.1109	67	C20H15O+
272.1185	11	C20H16O+
273.127	9	C20H17O+
274.0977	7	C19H14O2+
275.1067	7	C19H15O2+
275.1431	6	C20H19O+
285.1276	43	C21H17O+
