Mass spectrum: Sulfadimethoxine; LC-ESI-ITFT; MS2; CE: 60%; R=15000; [M+H]+
Name: Sulfadimethoxine
Name: 4-amino-N-(2,6-dimethoxy-4-pyrimidinyl)benzenesulfonamide
Formula: C12H14N4O4S
Exact mass: 310.0736
SMILES: c1(NS(c2ccc(N)cc2)(=O)=O)cc(nc(n1)OC)OC
InChI: InChI=1S/C12H14N4O4S/c1-19-11-7-10(14-12(15-11)20-2)16-21(17,18)9-5-3-8(13)4-6-9/h3-7H,13H2,1-2H3,(H,14,15,16)
Instrument: LTQ Orbitrap XL Thermo Scientific
Instrument type: LC-ESI-ITFT
Ms type: MS2
Ion mode: POSITIVE
Ionization: ESI
Fragmentation mode: HCD
Collision energy: 60 % (nominal)
Resolution: 15000
Column name: XBridge C18 3.5um, 2.1x50mm, Waters
Retention time: 5.7 min
Base peak: 311.0817
Precursor m/z: 311.0809
Precursor type: [M+H]+
m/z	relative intensity	assigned
65.0385	133	C5H5+
68.0494	76	C4H6N+
72.0443	20	C3H6NO+
92.0494	552	C6H6N+
93.0572	22	C6H7N+
99.0554	18	C4H7N2O+
108.0443	910	C6H6NO+
110.0599	36	C6H8NO+
124.0504	13	C5H6N3O+
125.0584	26	C5H7N3O+
126.0662	22	C5H8N3O+
127.0501	65	C5H7N2O2+
140.0456	18	C5H6N3O2+
141.0531	50	C5H7N3O2+
154.0611	168	C6H8N3O2+
155.0688	50	C6H9N3O2+
156.0114	207	C6H6NO2S+
156.0767	999	C6H10N3O2+
157.0484	20	C5H7N3O3+
173.0581	159	C9H7N3O+
218.023	18	C6H8N3O4S+
230.0797	48	C11H10N4O2+
245.104	47	C12H13N4O2+
