Mass spectrum: Chlordiazepoxide; LC-ESI-QFT; MS2; CE: 45; R=35000; [M+H]+
Name: Chlordiazepoxide
Name: Zetran
Name: 7-chloro-4-hydroxy-N-methyl-5-phenyl-3H-1,4-benzodiazepin-2-imine
Formula: C16H14ClN3O
Exact mass: 299.08254
SMILES: CN=C1CN(C(=C2C=C(C=CC2=N1)Cl)C3=CC=CC=C3)O
InChI: InChI=1S/C16H14ClN3O/c1-18-15-10-20(21)16(11-5-3-2-4-6-11)13-9-12(17)7-8-14(13)19-15/h2-9,21H,10H2,1H3
Instrument: Q Exactive Plus Orbitrap Thermo Scientific
Instrument type: LC-ESI-QFT
Ms type: MS2
Ion mode: POSITIVE
Ionization: ESI
Fragmentation mode: HCD
Collision energy: 45 (nominal)
Resolution: 35000
Column name: XBridge C18 3.5um, 2.1x50mm, Waters
Retention time: 6.2 min
Base peak: 300.0888
Precursor m/z: 300.0898
Precursor type: [M+H]+
m/z	relative intensity	assigned
57.0447	105	C2H5N2+
60.0443	3	C2H6NO+
89.0385	1	C7H5+
91.0541	1	C7H7+
104.0493	5	C7H6N+
105.0333	5	C7H5O+
128.0259	3	C6H7ClN+
138.0104	3	C7H5ClN+
140.0261	1	C7H7ClN+
151.0181	2	C8H6ClN+
163.0055	7	C8H4ClN2+
164.0134	1	C8H5ClN2+
165.0212	4	C8H6ClN2+
165.0693	1	C13H9+
179.0368	2	C9H8ClN2+
180.0446	28	C9H9ClN2+
192.0805	2	C14H10N+
205.0758	1	C14H9N2+
206.0839	1	C14H10N2+
208.0996	1	C14H12N2+
209.0833	1	C14H11NO+
214.0417	2	C13H9ClN+
216.0573	1	C13H11ClN+
218.0836	1	C15H10N2+
219.0916	2	C15H11N2+
220.0993	5	C15H12N2+
226.0415	2	C14H9ClN+
227.0493	999	C14H10ClN+
231.068	7	C16H9NO+
239.0367	1	C14H8ClN2+
239.05	1	C15H10ClN+
240.057	1	C15H11ClN+
241.0525	223	C14H10ClN2+
242.0364	1	C14H9ClNO+
242.0601	4	C14H11ClN2+
246.102	1	C16H12N3+
247.1102	6	C16H13N3+
248.118	2	C16H14N3+
251.0368	14	C15H8ClN2+
252.0446	1	C15H9ClN2+
253.0524	2	C15H10ClN2+
254.0602	2	C15H11ClN2+
255.0681	148	C15H12ClN2+
256.0759	14	C15H13ClN2+
265.0524	1	C16H10ClN2+
266.0602	54	C16H11ClN2+
267.0552	2	C15H10ClN3+
267.0683	2	C16H12ClN2+
268.0636	2	C15H11ClN3+
269.0472	2	C15H10ClN2O+
269.0837	42	C16H14ClN2+
270.0789	1	C15H13ClN3+
282.0789	283	C16H13ClN3+
283.0867	54	C16H14ClN3+
300.0895	1	C16H15ClN3O+
