Mass spectrum: Primidone; LC-ESI-ITFT; MS2; CE: 45%; R=7500; [M+H]+
Name: Primidone
Name: Primaclone
Name: 5-ethyl-5-phenyl-1,3-diazinane-4,6-dione
Formula: C12H14N2O2
Exact mass: 218.1055
SMILES: c1(ccccc1)C2(C(=O)NCNC2=O)CC
InChI: InChI=1S/C12H14N2O2/c1-2-12(9-6-4-3-5-7-9)10(15)13-8-14-11(12)16/h3-7H,2,8H2,1H3,(H,13,15)(H,14,16)
Instrument: LTQ Orbitrap XL Thermo Scientific
Instrument type: LC-ESI-ITFT
Ms type: MS2
Ion mode: POSITIVE
Ionization: ESI
Fragmentation mode: HCD
Collision energy: 45 % (nominal)
Resolution: 7500
Column name: XBridge C18 3.5um, 2.1x50mm, Waters
Retention time: 5.4 min
Base peak: 219.1132
Precursor m/z: 219.1128
Precursor type: [M+H]+
m/z	relative intensity	assigned
91.0542	999	C7H7+
106.065	235	C7H8N+
117.0697	161	C9H9+
119.0854	303	C9H11+
131.0849	15	C10H11+
134.0963	81	C9H12N+
145.0648	31	C10H9O+
162.0912	967	C10H12NO+
174.0912	17	C11H12NO+
176.1078	14	C11H14NO+
219.1122	15	C12H15N2O2+
