Mass spectrum: Iobitridol; LC-ESI-ITFT; MS2; CE: 90%; R=7500; [M+H]+
Name: Iobitridol
Name: 1,3-Benzenedicarboxamide, N,N'-bis(2,3-dihydroxypropyl)-5-((5-hydroxy-2-(hydroxymethyl)-1-oxopropyl)amino)-2,4,6-triiodo-N,N'-dimethyl-
Name: 1-N,3-N-bis(2,3-dihydroxypropyl)-5-[[3-hydroxy-2-(hydroxymethyl)propanoyl]amino]-2,4,6-triiodo-1-N,3-N-dimethylbenzene-1,3-dicarboxamide
Formula: C20H28I3N3O9
Exact mass: 834.8960
SMILES: Ic1c(c(I)c(c(I)c1NC(=O)C(CO)CO)C(=O)N(CC(O)CO)C)C(=O)N(CC(O)CO)C
InChI: InChI=1S/C20H28I3N3O9/c1-25(3-10(31)7-29)19(34)12-14(21)13(20(35)26(2)4-11(32)8-30)16(23)17(15(12)22)24-18(33)9(5-27)6-28/h9-11,27-32H,3-8H2,1-2H3,(H,24,33)
Instrument: LTQ Orbitrap XL Thermo Scientific
Instrument type: LC-ESI-ITFT
Ms type: MS2
Ion mode: POSITIVE
Ionization: ESI
Fragmentation mode: HCD
Collision energy: 90 % (nominal)
Resolution: 7500
Column name: XBridge C18 3.5um, 2.1x50mm, Waters
Retention time: 1.6 min
Base peak: 149.0023
Precursor m/z: 835.9032
Precursor type: [M+H]+
m/z	relative intensity	assigned
76.0185	172	C5H2N+
89.0386	212	C7H5+
101.9976	999	C6NO+
103.0418	198	C7H5N+
104.0129	202	C6H2NO+
104.0498	100	C7H6N+
114.034	603	C8H4N+
116.049	173	C8H6N+
132.0443	180	C8H6NO+
141.02	152	C7HN4+
142.0283	225	C9H4NO+
143.0372	175	C9H5NO+
159.0322	157	C9H5NO2+
160.0395	478	C9H6NO2+
170.0234	543	C10H4NO2+
177.9143	183	C3HIN+
188.9196	198	C5H2I+
201.9144	149	C5HIN+
202.0506	179	C11H8NO3+
257.9409	129	C8H5INO+
269.9409	207	C9H5INO+
293.8872	376	C3H3IO8+
