Mass spectrum: Cymiazole; LC-ESI-QFT; MS2; CE: 60%; R=17500; [M+H]+
Name: Cymiazole
Name: N-(2,4-dimethylphenyl)-3-methyl-1,3-thiazol-2-imine
Formula: C12H14N2S
Exact mass: 218.0878
SMILES: CC1=CC(=C(C=C1)N=C2N(C=CS2)C)C
InChI: InChI=1S/C12H14N2S/c1-9-4-5-11(10(2)8-9)13-12-14(3)6-7-15-12/h4-8H,1-3H3
Instrument: Exploris 240 Orbitrap Thermo Scientific
Instrument type: LC-ESI-QFT
Ms type: MS2
Ion mode: POSITIVE
Ionization: ESI
Fragmentation mode: HCD
Collision energy: 60 % (nominal)
Resolution: 17500
Column name: XBridge C18 3.5um, 2.1x50mm, Waters
Retention time: 4.141 min
Base peak: 219.095
Precursor m/z: 219.095
Precursor type: [M+H]+
m/z	relative intensity	assigned
56.0495	15	C3H6N+
61.0108	5	C2H5S+
72.9978	8	C2H3NS+
88.0216	58	C3H6NS+
100.0216	76	C4H6NS+
105.07	45	C8H9+
120.0807	50	C8H10N+
130.0653	8	C9H8N+
131.0729	30	C9H9N+
143.073	27	C10H9N+
144.0807	50	C10H10N+
146.0971	6	C10H12N+
163.0455	14	C9H9NS+
164.053	22	C9H10NS+
171.0918	110	C11H11N2+
177.061	25	C10H11NS+
186.1149	11	C12H14N2+
187.0452	17	C11H9NS+
188.053	20	C11H10NS+
189.0484	16	C10H9N2S+
203.0638	32	C11H11N2S+
204.0719	95	C11H12N2S+
219.0952	999	C12H15N2S+
