Mass spectrum: Indapamide; LC-ESI-QFT; MS2; CE: 75; R=35000; [M+H]+
Name: Indapamide
Name: 4-chloro-N-(2-methyl-2,3-dihydroindol-1-yl)-3-sulfamoylbenzamide
Formula: C16H16ClN3O3S
Exact mass: 365.06009
SMILES: CC1CC2=CC=CC=C2N1NC(=O)C3=CC(=C(C=C3)Cl)S(=O)(=O)N
InChI: InChI=1S/C16H16ClN3O3S/c1-10-8-11-4-2-3-5-14(11)20(10)19-16(21)12-6-7-13(17)15(9-12)24(18,22)23/h2-7,9-10H,8H2,1H3,(H,19,21)(H2,18,22,23)
Instrument: Q Exactive Plus Orbitrap Thermo Scientific
Instrument type: LC-ESI-QFT
Ms type: MS2
Ion mode: POSITIVE
Ionization: ESI
Fragmentation mode: HCD
Collision energy: 75 (nominal)
Resolution: 35000
Column name: XBridge C18 3.5um, 2.1x50mm, Waters
Retention time: 6.7 min
Base peak: 366.0667
Precursor m/z: 366.0674
Precursor type: [M+H]+
m/z	relative intensity	assigned
50.015	1	C4H2+
51.0228	1	C4H3+
63.0228	4	C5H3+
65.0386	139	C5H5+
66.0464	1	C5H6+
77.0386	2	C6H5+
79.0542	7	C6H7+
89.0384	3	C7H5+
90.034	1	C6H4N+
90.0465	10	C7H6+
91.0542	999	C7H7+
95.0492	2	C6H7O+
98.9996	9	C5H4Cl+
103.0542	7	C8H7+
105.0699	69	C8H9+
106.0415	4	C7H6O+
107.0493	3	C7H7O+
109.0648	24	C7H9O+
115.0543	15	C9H7+
116.0495	1	C8H6N+
117.0573	654	C8H7N+
118.0651	83	C8H8N+
119.0604	25	C7H7N2+
124.0519	1	C7H8O2+
126.0105	2	C6H5ClN+
130.0652	15	C9H8N+
131.073	20	C9H9N+
132.0808	237	C9H10N+
133.0762	2	C8H9N2+
133.0886	3	C9H11N+
134.06	1	C8H8NO+
136.9788	3	C7H2ClO+
139.0056	1	C6H4ClN2+
142.9894	3	C6H4ClO2+
144.0556	1	C8H6N3+
147.0918	1	C9H11N2+
154.9893	1	C7H4ClO2+
155.0006	1	C6H4ClN2O+
217.9673	2	C7H5ClNO3S+
