Mass spectrum: Nadolol; LC-ESI-QFT; MS2; CE: 60; R=35000; [M+H]+
Name: Nadolol
Name: NADOLOL
Name: (2R,3S)-5-[3-(tert-butylamino)-2-hydroxy-propoxy]tetralin-2,3-diol
Formula: C17H27NO4
Exact mass: 309.19401
SMILES: OC(CNC(C)(C)C)COc1cccc2c1C[C@H](O)[C@H](O)C2
InChI: InChI=1S/C17H27NO4/c1-17(2,3)18-9-12(19)10-22-16-6-4-5-11-7-14(20)15(21)8-13(11)16/h4-6,12,14-15,18-21H,7-10H2,1-3H3/t12?,14-,15+/m1/s1
Instrument: Q Exactive Orbitrap Thermo Scientific
Instrument type: LC-ESI-QFT
Ms type: MS2
Ion mode: POSITIVE
Ionization: ESI
Fragmentation mode: HCD
Collision energy: 60 (nominal)
Resolution: 35000
Column name: XBridge C18 3.5um, 2.1x50mm, Waters
Retention time: 4.2 min
Base peak: 310.2016
Precursor m/z: 310.2013
Precursor type: [M+H]+
m/z	relative intensity	assigned
56.0496	381	C3H6N+
57.07	169	C4H9+
58.0652	32	C3H8N+
72.0444	43	C3H6NO+
74.0601	999	C3H8NO+
91.0542	38	C7H7+
105.0699	4	C8H9+
107.0493	18	C7H7O+
115.054	11	C9H7+
117.07	55	C9H9+
119.0856	4	C9H11+
128.062	32	C10H8+
129.07	44	C10H9+
131.0493	45	C9H7O+
131.0856	25	C10H11+
132.0571	4	C9H8O+
133.0649	86	C9H9O+
135.0804	12	C9H11O+
141.0699	10	C11H9+
143.0494	5	C10H7O+
143.0857	88	C11H11+
144.0569	13	C10H8O+
145.0649	511	C10H9O+
145.1013	28	
147.0805	221	C10H11O+
153.0702	22	C12H9+
154.0776	7	C12H10+
155.0856	163	C12H11+
156.0566	3	C11H8O+
157.0649	164	C11H9O+
158.0731	5	C11H10O+
159.0806	364	C11H11O+
160.0523	4	C10H8O2+
161.0596	33	C10H9O2+
161.0962	16	C11H13O+
163.0755	24	C10H11O2+
165.07	54	C13H9+
168.0572	9	C12H8O+
169.0644	5	C12H9O+
170.0729	4	C12H10O+
171.0805	560	C12H11O+
172.0882	5	C12H12O+
173.0599	15	C11H9O2+
173.0963	107	C12H13O+
174.0912	31	C11H12NO+
175.0755	76	C11H11O2+
183.0806	456	C13H11O+
189.0914	21	C12H13O2+
200.1071	11	C13H14NO+
201.091	853	C13H13O2+
206.1173	4	C12H16NO2+
218.1176	20	C13H16NO2+
219.102	14	C13H15O3+
236.1283	184	C13H18NO3+
254.1387	92	C13H20NO4+
