Mass spectrum: Metominostrobin; LC-ESI-QFT; MS2; CE: 75%; R=17500; [M+H]+
Name: Metominostrobin
Name: N-methyl-2-(2-phenoxyphenyl)-2-methoxyiminoacetamide
Name: 2-methoxyimino-N-methyl-2-(2-phenoxyphenyl)acetamide
Formula: C16H16N2O3
Exact mass: 284.1161
SMILES: CNC(=O)C(=NOC)C1=CC=CC=C1OC2=CC=CC=C2
InChI: InChI=1S/C16H16N2O3/c1-17-16(19)15(18-20-2)13-10-6-7-11-14(13)21-12-8-4-3-5-9-12/h3-11H,1-2H3,(H,17,19)
Instrument: Exploris 240 Orbitrap Thermo Scientific
Instrument type: LC-ESI-QFT
Ms type: MS2
Ion mode: POSITIVE
Ionization: ESI
Fragmentation mode: HCD
Collision energy: 75 % (nominal)
Resolution: 17500
Column name: XBridge C18 3.5um, 2.1x50mm, Waters
Retention time: 7.515 min
Base peak: 285.1232
Precursor m/z: 285.1234
Precursor type: [M+H]+
m/z	relative intensity	assigned
53.0385	32	C4H5+
58.0288	142	C2H4NO+
65.0387	31	C5H5+
77.0386	144	C6H5+
78.0464	28	C6H6+
92.0259	14	C6H4O+
95.0493	39	C6H7O+
104.0261	10	C7H4O+
105.0448	53	C6H5N2+
115.0544	50	C9H7+
139.0542	480	C11H7+
140.0495	365	C10H6N+
141.0697	16	C11H9+
166.0651	999	C12H8N+
167.0497	12	C12H7O+
167.0731	27	C12H9N+
193.0522	98	C13H7NO+
194.0599	272	C13H8NO+
196.0757	224	C13H10NO+
197.0592	13	C13H9O2+
210.0914	69	C14H12NO+
