Mass spectrum: Isoproturon-monodemethyl; LC-ESI-ITFT; MS2; CE: 90%; R=30000; [M+H]+
Name: Isoproturon-monodemethyl
Name: 1-(4-Isoprophenyl)-3-methylurea
Formula: C11H16N2O
Exact mass: 192.1263
SMILES: N(C(=O)Nc1ccc(cc1)C(C)C)C
InChI: InChI=1S/C11H16N2O/c1-8(2)9-4-6-10(7-5-9)13-11(14)12-3/h4-8H,1-3H3,(H2,12,13,14)
Instrument: LTQ Orbitrap XL Thermo Scientific
Instrument type: LC-ESI-ITFT
Ms type: MS2
Ion mode: POSITIVE
Ionization: ESI
Fragmentation mode: HCD
Collision energy: 90 % (nominal)
Resolution: 30000
Column name: XBridge C18 3.5um, 2.1x50mm, Waters
Retention time: 8.6 min
Base peak: 193.1341
Precursor m/z: 193.1335
Precursor type: [M+H]+
m/z	relative intensity	assigned
53.0386	5	C4H5+
58.0287	39	C2H4NO+
77.0386	105	C6H5+
91.0543	56	C7H7+
92.0496	10	C6H6N+
93.0573	16	C6H7N+
94.0652	999	C6H8N+
95.0492	11	C6H7O+
104.0621	8	C8H8+
105.0447	30	C6H5N2+
107.0856	8	C8H11+
117.07	7	C9H9+
119.073	9	C8H9N+
119.0856	2	C9H11+
120.0443	4	C7H6NO+
120.0809	6	C8H10N+
121.0886	8	C8H11N+
134.0965	23	C9H12N+
136.1121	61	C9H14N+
147.0917	9	C9H11N2+
151.0864	2	C8H11N2O+
