Mass spectrum: Ethoprop; LC-ESI-QFT; MS2; CE: 15; R=35000; [M+H]+
Name: Ethoprop
Name: 1-[ethoxy(propylsulfanyl)phosphoryl]sulfanylpropane
Formula: C8H19O2PS2
Exact mass: 242.05641
SMILES: CCCSP(=O)(OCC)SCCC
InChI: InChI=1S/C8H19O2PS2/c1-4-7-12-11(9,10-6-3)13-8-5-2/h4-8H2,1-3H3
Instrument: Q Exactive Plus Orbitrap Thermo Scientific
Instrument type: LC-ESI-QFT
Ms type: MS2
Ion mode: POSITIVE
Ionization: ESI
Fragmentation mode: HCD
Collision energy: 15 (nominal)
Resolution: 35000
Column name: XBridge C18 3.5um, 2.1x50mm, Waters
Retention time: 11.5 min
Base peak: 243.0634
Precursor m/z: 243.0637
Precursor type: [M+H]+
m/z	relative intensity	assigned
63.0263	1	C2H7S+
64.9787	3	H2O2P+
77.0419	90	C3H9S+
96.9508	26	H2O2PS+
105.0734	13	C5H13S+
114.9615	333	H4O3PS+
119.089	7	C6H15S+
120.9873	2	C3H6OPS+
124.9822	38	C2H6O2PS+
128.9771	2	CH6O3PS+
129.9305	2	H3O2PS2+
130.9386	129	H4O2PS2+
138.9979	135	C3H8O2PS+
142.9926	3	C2H8O3PS+
154.975	18	C3H8OPS2+
157.0085	18	C3H10O3PS+
158.97	40	C2H8O2PS2+
167.0292	174	C5H12O2PS+
172.9856	856	C3H10O2PS2+
183.0064	3	C5H12OPS2+
185.0398	162	C5H14O3PS+
197.0222	8	C6H14OPS2+
199.0554	3	C6H16O3PS+
201.017	533	C5H14O2PS2+
215.0326	999	C6H16O2PS2+
243.064	964	C8H20O2PS2+
