Mass spectrum: Metribuzin; LC-ESI-ITFT; MS2; CE: 90%; R=7500; [M+H]+
Name: Metribuzin
Name: 1,2,4-Triazin-5(4H)-one, 4-amino-6-(1,1-dimethylethyl)-3-(methylthio)-
Name: 4-amino-6-tert-butyl-3-(methylthio)-1,2,4-triazin-5-one
Formula: C8H14N4OS
Exact mass: 214.0883
SMILES: S(C)C(=NN=C1C(C)(C)C)N(N)C1=O
InChI: InChI=1S/C8H14N4OS/c1-8(2,3)5-6(13)12(9)7(14-4)11-10-5/h9H2,1-4H3
Instrument: LTQ Orbitrap XL Thermo Scientific
Instrument type: LC-ESI-ITFT
Ms type: MS2
Ion mode: POSITIVE
Ionization: ESI
Fragmentation mode: HCD
Collision energy: 90 % (nominal)
Resolution: 7500
Column name: XBridge C18 3.5um, 2.1x50mm, Waters
Retention time: 6.9 min
Base peak: 215.0964
Precursor m/z: 215.0961
Precursor type: [M+H]+
m/z	relative intensity	assigned
57.0699	170	C4H9+
58.0399	364	CH4N3+
59.9902	412	CH2NS+
60.9978	39	CH3NS+
62.0059	216	CH4NS+
68.0493	95	C4H6N+
69.0083	41	C2HN2O+
69.0699	43	C5H9+
70.0651	29	C4H8N+
74.0059	999	C2H4NS+
76.0214	31	C2H6NS+
82.065	51	C5H8N+
84.0808	290	C5H10N+
87.001	29	C2H3N2S+
89.0167	87	C2H5N2S+
95.06	30	C5H7N2+
123.0554	23	C6H7N2O+
125.0824	29	C5H9N4+
130.0306	57	C3H6N4S+
131.0386	310	C3H7N4S+
145.0545	54	C4H9N4S+
156.0589	243	C6H10N3S+
171.0591	127	C7H11N2OS+
184.054	41	C7H10N3OS+
187.1012	148	C7H15N4S+
