Mass spectrum: 4`-Hydroxy Diclofenac; LC-ESI-QFT; MS2; CE: 120; R=35000; [M-H]-
Name: 4`-Hydroxy Diclofenac
Name: 4`-hydroxydiclofenac
Name: 2-[2-(2,6-dichloro-4-hydroxyanilino)phenyl]acetic acid
Formula: C14H11Cl2NO3
Exact mass: 311.01160
SMILES: C1=CC=C(C(=C1)CC(=O)O)NC2=C(C=C(C=C2Cl)O)Cl
InChI: InChI=1S/C14H11Cl2NO3/c15-10-6-9(18)7-11(16)14(10)17-12-4-2-1-3-8(12)5-13(19)20/h1-4,6-7,17-18H,5H2,(H,19,20)
Instrument: Q Exactive Plus Orbitrap Thermo Scientific
Instrument type: LC-ESI-QFT
Ms type: MS2
Ion mode: NEGATIVE
Ionization: ESI
Fragmentation mode: HCD
Collision energy: 120 (nominal)
Resolution: 35000
Column name: XBridge C18 3.5um, 2.1x50mm, Waters
Retention time: 10.1 min
Base peak: 310.0043
Precursor m/z: 310.0043
Precursor type: [M-H]-
m/z	relative intensity	assigned
50.0036	113	C3N-
74.0037	326	C5N-
89.0035	213	C6HO-
115.0553	405	C9H7-
124.9798	64	C6H2ClO-
140.0507	541	C10H6N-
164.0509	999	C12H6N-
