Mass spectrum: 8-Hydroxy Mirtazapine; LC-ESI-QFT; MS2; CE: 45; R=35000; [M+H]+
Name: 8-Hydroxy Mirtazapine
Name: 2-Methyl-1,2,3,4,10,14b-hexahydropyrazino[2,1-a]pyrido[2,3-c][2]benzazepin-8-ol
Formula: C17H19N3O
Exact mass: 281.15281
SMILES: CN1CCN2C(C1)C3=CC=CC=C3CC4=CC(=CN=C42)O
InChI: InChI=1S/C17H19N3O/c1-19-6-7-20-16(11-19)15-5-3-2-4-12(15)8-13-9-14(21)10-18-17(13)20/h2-5,9-10,16,21H,6-8,11H2,1H3
Instrument: Q Exactive Plus Orbitrap Thermo Scientific
Instrument type: LC-ESI-QFT
Ms type: MS2
Ion mode: POSITIVE
Ionization: ESI
Fragmentation mode: HCD
Collision energy: 45 (nominal)
Resolution: 35000
Column name: XBridge C18 3.5um, 2.1x50mm, Waters
Retention time: 4.2 min
Base peak: 282.1591
Precursor m/z: 282.1601
Precursor type: [M+H]+
m/z	relative intensity	assigned
56.0494	1	C3H6N+
58.065	11	C3H8N+
70.065	29	C4H8N+
72.0807	543	C4H10N+
85.0758	2	C4H9N2+
91.0541	1	C7H7+
105.0698	1	C8H9+
115.054	5	C9H7+
117.0699	1	C9H9+
123.0551	4	C6H7N2O+
126.0548	13	C6H8NO2+
129.0697	1	C10H9+
144.0806	5	C10H10N+
146.0963	1	C10H12N+
147.055	1	C8H7N2O+
149.0708	8	C8H9N2O+
151.0865	1	C8H11N2O+
158.0964	1	C11H12N+
159.1042	1	C11H13N+
166.0656	1	C12H8N+
170.096	2	C12H12N+
196.0756	6	C13H10NO+
198.0914	4	C13H12NO+
208.076	2	C14H10NO+
210.0784	7	C13H10N2O+
211.0864	999	C13H11N2O+
222.0795	1	C14H10N2O+
223.0864	4	C14H11N2O+
224.0943	3	C14H12N2O+
225.102	176	C14H13N2O+
234.0914	2	C16H12NO+
235.0865	2	C15H11N2O+
236.0942	6	C15H12N2O+
237.1025	2	C15H13N2O+
239.1176	58	C15H15N2O+
249.102	2	C16H13N2O+
251.1176	82	C16H15N2O+
253.1331	5	C16H17N2O+
265.1204	1	C16H15N3O+
280.1442	30	C17H18N3O+
282.1598	187	C17H20N3O+
