Mass spectrum: Norclozapine; LC-ESI-QFT; MS2; CE: 60; R=35000; [M+H]+
Name: Norclozapine
Name: 3-chloro-6-piperazin-1-yl-5H-benzo[b][1,4]benzodiazepine
Formula: C17H17ClN4
Exact mass: 312.11417
SMILES: C1CN(CCN1)C2=NC3=C(C=CC(=C3)Cl)NC4=CC=CC=C42
InChI: InChI=1S/C17H17ClN4/c18-12-5-6-15-16(11-12)21-17(22-9-7-19-8-10-22)13-3-1-2-4-14(13)20-15/h1-6,11,19-20H,7-10H2
Instrument: Q Exactive Plus Orbitrap Thermo Scientific
Instrument type: LC-ESI-QFT
Ms type: MS2
Ion mode: POSITIVE
Ionization: ESI
Fragmentation mode: HCD
Collision energy: 60 (nominal)
Resolution: 35000
Column name: XBridge C18 3.5um, 2.1x50mm, Waters
Retention time: 5.9 min
Base peak: 313.1204
Precursor m/z: 313.1215
Precursor type: [M+H]+
m/z	relative intensity	assigned
56.0494	5	C3H6N+
68.0494	5	C4H6N+
70.065	235	C4H8N+
71.0602	18	C3H7N2+
85.0759	6	C4H9N2+
87.0917	2	C4H11N2+
90.0338	10	C6H4N+
123.9947	11	C6H3ClN+
126.0103	1	C6H5ClN+
132.0682	2	C8H8N2+
164.0488	2	C12H6N+
181.0758	2	C12H9N2+
191.0603	15	C13H7N2+
192.068	999	C13H8N2+
194.0838	3	C13H10N2+
195.0561	1	C9H10ClN3+
200.0259	18	C12H7ClN+
206.0838	5	C14H10N2+
207.0914	2	C14H11N2+
208.0868	2	C13H10N3+
208.0995	3	C14H12N2+
209.0709	14	C10H12ClN3+
209.0945	2	C13H11N3+
214.0413	2	C13H9ClN+
215.036	2	C12H8ClN2+
217.076	1	C15H9N2+
218.0837	16	C15H10N2+
219.0665	6	C13H7N4+
220.0869	10	C14H10N3+
226.029	32	C13H7ClN2+
226.0407	1	C15H4N3+
227.0369	470	C13H8ClN2+
228.0448	9	C13H9ClN2+
229.0525	20	C13H10ClN2+
232.099	1	C16H12N2+
233.094	2	C15H11N3+
234.1024	12	C15H12N3+
235.1103	11	C15H13N3+
239.037	2	C14H8ClN2+
240.0445	3	C14H9ClN2+
241.0525	5	C14H10ClN2+
242.0606	1	C14H11ClN2+
243.0559	1	C13H10ClN3+
243.0678	6	C14H12ClN2+
244.0635	45	C13H11ClN3+
246.1025	6	C16H12N3+
252.0443	1	C15H9ClN2+
253.0405	4	C14H8ClN3+
253.0524	78	C15H10ClN2+
254.0473	3	C14H9ClN3+
254.0604	6	C15H11ClN2+
255.0558	20	C14H10ClN3+
255.068	3	C15H12ClN2+
256.0637	2	C14H11ClN3+
260.1178	2	C17H14N3+
266.0478	1	C15H9ClN3+
267.0688	1	C16H12ClN2+
268.0631	6	C15H11ClN3+
268.0762	1	C16H13ClN2+
269.0708	3	C15H12ClN3+
270.079	702	C15H13ClN3+
280.0634	6	C16H11ClN3+
281.0711	8	C16H12ClN3+
294.0786	3	C17H13ClN3+
296.0946	118	C17H15ClN3+
311.1059	1	C17H16ClN4+
313.1208	17	C17H18ClN4+
