Mass spectrum: Tilidine; LC-ESI-QFT; MS2; CE: 15; R=35000; [M+H]+
Name: Tilidine
Name: ethyl (2R)-2-(dimethylamino)-1-phenylcyclohex-3-ene-1-carboxylate
Formula: C17H23NO2
Exact mass: 273.17288
SMILES: O=C(OCC)C2(c1ccccc1)[C@@H](\C=C/CC2)N(C)C
InChI: InChI=1S/C17H23NO2/c1-4-20-16(19)17(14-10-6-5-7-11-14)13-9-8-12-15(17)18(2)3/h5-8,10-12,15H,4,9,13H2,1-3H3/t15-,17?/m1/s1
Instrument: Q Exactive Orbitrap Thermo Scientific
Instrument type: LC-ESI-QFT
Ms type: MS2
Ion mode: POSITIVE
Ionization: ESI
Fragmentation mode: HCD
Collision energy: 15 (nominal)
Resolution: 35000
Column name: XBridge C18 3.5um, 2.1x50mm, Waters
Retention time: 5.2 min
Base peak: 274.1803
Precursor m/z: 274.1802
Precursor type: [M+H]+
m/z	relative intensity	assigned
77.0384	5	C6H5+
79.0542	6	C6H7+
98.0965	4	C6H12N+
111.0803	3	C7H11O+
115.0537	1	C9H7+
119.0854	3	C9H11+
129.0699	3	C10H9+
151.0754	2	C9H11O2+
155.0856	836	C12H11+
156.0933	3	C12H12+
157.1012	9	C12H13+
173.0598	2	C11H9O2+
177.0909	1	C11H13O2+
183.0805	38	C13H11O+
185.1326	1	C14H17+
201.091	26	C13H13O2+
201.1273	4	C14H17O+
229.1224	257	C15H17O2+
274.1801	999	C17H24NO2+
