Mass spectrum: Azinphos-methyl; LC-ESI-QFT; MS2; CE: 90; R=35000; [M+H]+
Name: Azinphos-methyl
Name: Azinphosmethyl
Name: 3-(dimethoxyphosphinothioylsulfanylmethyl)-1,2,3-benzotriazin-4-one
Formula: C10H12N3O3PS2
Exact mass: 317.00577
SMILES: COP(=S)(OC)SCN1C(=O)C2=CC=CC=C2N=N1
InChI: InChI=1S/C10H12N3O3PS2/c1-15-17(18,16-2)19-7-13-10(14)8-5-3-4-6-9(8)11-12-13/h3-6H,7H2,1-2H3
Instrument: Q Exactive Plus Orbitrap Thermo Scientific
Instrument type: LC-ESI-QFT
Ms type: MS2
Ion mode: POSITIVE
Ionization: ESI
Fragmentation mode: HCD
Collision energy: 90 (nominal)
Resolution: 35000
Column name: XBridge C18 3.5um, 2.1x50mm, Waters
Retention time: 9.2 min
Base peak: 318.0126
Precursor m/z: 318.013
Precursor type: [M+H]+
m/z	relative intensity	assigned
50.0152	116	C4H2+
51.023	559	C4H3+
52.0182	2	C3H2N+
53.0387	290	C4H5+
55.0179	13	C3H3O+
59.9665	19	COS+
62.0185	62	C2H6S+
62.9995	27	CH4OP+
63.023	2	C5H3+
64.0308	4	C5H4+
64.9787	2	H2O2P+
65.0386	11	C5H5+
67.0543	23	C5H7+
75.023	79	C6H3+
76.0182	20	C5H2N+
77.0386	577	C6H5+
78.0339	18	C5H4N+
78.0464	8	C6H6+
78.9944	532	CH4O2P+
81.0336	33	C5H5O+
92.0257	21	C6H4O+
92.037	5	C5H4N2+
93.0102	37	C2H6O2P+
94.0414	17	C6H6O+
95.0493	999	C6H7O+
96.0028	14	C5H4S+
96.0445	24	C5H6NO+
97.0051	17	CH6O3P+
102.0339	86	C7H4N+
104.0496	129	C7H6N+
105.0336	96	C7H5O+
105.0449	620	C6H5N2+
109.0648	2	C7H9O+
120.0446	28	C3H9N2OP+
121.0109	3	C3H8NPS+
124.9824	19	C2H6O2PS+
130.0402	124	C7H4N3+
132.0445	14	C8H6NO+
135.998	3	C7H4OS+
137.0058	21	C3H8NOPS+
142.9928	259	C2H8O3PS+
151.9928	93	C3H7NO2PS+
167.0162	5	C8H7O2S+
167.9698	17	C7H4OS2+
