Mass spectrum: Medazepam; LC-ESI-QFT; MS2; CE: 90; R=35000; [M+H]+
Name: Medazepam
Name: 7-chloranyl-1-methyl-5-phenyl-2,3-dihydro-1,4-benzodiazepine
Formula: C16H15ClN2
Exact mass: 270.09238
SMILES: CN1CCN=C(C2=C1C=CC(=C2)Cl)C3=CC=CC=C3
InChI: InChI=1S/C16H15ClN2/c1-19-10-9-18-16(12-5-3-2-4-6-12)14-11-13(17)7-8-15(14)19/h2-8,11H,9-10H2,1H3
Instrument: Q Exactive Orbitrap Thermo Scientific
Instrument type: LC-ESI-QFT
Ms type: MS2
Ion mode: POSITIVE
Ionization: ESI
Fragmentation mode: HCD
Collision energy: 90 (nominal)
Resolution: 35000
Column name: XBridge C18 3.5um, 2.1x50mm, Waters
Retention time: 6.5 min
Base peak: 271.0999
Precursor m/z: 271.0997
Precursor type: [M+H]+
m/z	relative intensity	assigned
63.023	1	C5H3+
65.0386	70	C5H5+
79.0542	14	C6H7+
89.0386	15	C7H5+
90.0464	7	C7H6+
91.0542	999	C7H7+
95.0491	7	C6H7O+
103.0542	8	C8H7+
104.0495	6	C7H6N+
105.07	6	C8H9+
106.065	6	C7H8N+
115.0541	7	C9H7+
116.0494	1	C8H6N+
117.0573	146	C8H7N+
118.0651	7	C8H8N+
125.0152	42	C7H6Cl+
128.0495	6	C9H6N+
129.0102	2	C6H6ClO+
130.0652	48	C9H8N+
131.073	36	C9H9N+
132.0811	2	C9H10N+
134.06	2	C5H11ClN2+
138.0106	12	C7H5ClN+
139.0058	1	C6H4ClN2+
140.0263	4	C7H7ClN+
150.0106	5	C8H5ClN+
151.0185	4	C8H6ClN+
152.0262	35	C8H7ClN+
153.0341	2	C8H8ClN+
154.0419	1	C8H9ClN+
158.0837	1	C10H10N2+
164.0262	37	C9H7ClN+
165.0214	354	C8H6ClN2+
165.0699	84	C13H9+
166.0419	2	C9H9ClN+
166.0777	16	C13H10+
176.0259	1	C10H7ClN+
178.0777	44	C14H10+
179.0371	40	C9H8ClN2+
179.0733	13	C13H9N+
179.0855	25	C14H11+
180.0449	19	C9H9ClN2+
180.0805	19	C13H10N+
181.0884	1	C13H11N+
192.0808	65	C14H10N+
193.0887	291	C14H11N+
194.0966	32	C14H12N+
195.1042	6	C14H13N+
203.0727	8	C15H9N+
204.081	32	C15H10N+
205.0888	8	C15H11N+
206.0965	340	C15H12N+
207.1043	395	C15H13N+
212.0387	7	C14H9Cl+
214.0418	15	C13H9ClN+
217.0886	12	C16H11N+
218.0965	61	C16H12N+
219.1043	7	C16H13N+
220.0996	7	C15H12N2+
221.1073	7	C15H13N2+
226.0419	6	C14H9ClN+
227.0496	86	C14H10ClN+
228.0575	46	C14H11ClN+
230.073	15	C14H13ClN+
235.1228	2	C16H15N2+
238.0414	9	C15H9ClN+
240.0577	3	C15H11ClN+
241.0525	6	C14H10ClN2+
242.0728	5	C15H13ClN+
252.0574	1	C16H11ClN+
254.073	22	C16H13ClN+
255.0681	10	C15H12ClN2+
271.1006	1	C16H16ClN2+
