Mass spectrum: Cyprodinil; LC-ESI-ITFT; MS2; CE: 35%; R=7500; [M+H]+
Name: Cyprodinil
Name: (4-cyclopropyl-6-methyl-pyrimidin-2-yl)-phenyl-amine
Formula: C14H15N3
Exact mass: 225.1260
SMILES: c1ccccc1Nc1nc(C2CC2)cc(C)n1
InChI: InChI=1S/C14H15N3/c1-10-9-13(11-7-8-11)17-14(15-10)16-12-5-3-2-4-6-12/h2-6,9,11H,7-8H2,1H3,(H,15,16,17)
Instrument: LTQ Orbitrap XL Thermo Scientific
Instrument type: LC-ESI-ITFT
Ms type: MS2
Ion mode: POSITIVE
Ionization: ESI
Fragmentation mode: CID
Collision energy: 35 % (nominal)
Resolution: 7500
Column name: XBridge C18 3.5um, 2.1x50mm, Waters
Retention time: 9.4 min
Base peak: 226.1338
Precursor m/z: 226.1339
Precursor type: [M+H]+
m/z	relative intensity	assigned
77.0383	4	C6H5+
80.0492	2	C5H6N+
91.0543	6	C7H7+
92.0492	8	C6H6N+
93.0572	13	C6H7N+
106.0651	24	C7H8N+
108.0684	7	C6H8N2+
108.0808	60	C7H10N+
109.0762	8	C6H9N2+
116.0493	7	C8H6N+
118.0526	5	C7H6N2+
118.0652	24	C8H8N+
119.0604	31	C7H7N2+
123.0918	17	C7H11N2+
131.0607	4	C8H7N2+
133.076	76	C8H9N2+
142.0653	3	C10H8N+
143.0602	7	C9H7N2+
144.0808	88	C10H10N+
145.0762	9	C9H9N2+
158.0968	5	C11H12N+
159.0917	29	C10H11N2+
168.0806	9	C12H10N+
169.0759	6	C11H9N2+
170.0838	3	C11H10N2+
182.0967	4	C13H12N+
183.0909	7	C12H11N2+
184.0871	22	C11H10N3+
185.1072	80	C12H13N2+
194.0844	5	C13H10N2+
197.0953	11	C12H11N3+
198.1021	22	C12H12N3+
199.1236	3	C13H15N2+
209.1072	54	C14H13N2+
210.1025	101	C13H12N3+
211.1103	50	C13H13N3+
224.1184	9	C14H14N3+
226.134	999	C14H16N3+
