Mass spectrum: Ampicillin; LC-ESI-QFT; MS2; CE: 180; R=35000; [M+H]+
Name: Ampicillin
Name: 2-amino-1-methyl-5-propylideneimidazol-4-one
Name: 6-[(2-azaniumyl-2-phenylacetyl)amino]-3,3-dimethyl-7-oxo-4-thia-1-azabicyclo[3.2.0]heptane-2-carboxylate
Formula: C16H19N3O4S
Exact mass: 349.10963
SMILES: CC1(C(N2C(S1)C(C2=O)NC(=O)C(C3=CC=CC=C3)N)C(=O)O)C
InChI: InChI=1S/C16H19N3O4S/c1-16(2)11(15(22)23)19-13(21)10(14(19)24-16)18-12(20)9(17)8-6-4-3-5-7-8/h3-7,9-11,14H,17H2,1-2H3,(H,18,20)(H,22,23)
Instrument: Q Exactive Plus Orbitrap Thermo Scientific
Instrument type: LC-ESI-QFT
Ms type: MS2
Ion mode: POSITIVE
Ionization: ESI
Fragmentation mode: HCD
Collision energy: 180 (nominal)
Resolution: 35000
Column name: XBridge C18 3.5um, 2.1x50mm, Waters
Retention time: 4.7 min
Base peak: 350.1165
Precursor m/z: 350.1169
Precursor type: [M+H]+
m/z	relative intensity	assigned
50.0152	236	C4H2+
51.023	534	C4H3+
52.0182	16	C3H2N+
53.0023	48	C3HO+
53.0386	261	C4H5+
53.9975	18	C2NO+
54.0339	20	C3H4N+
55.0179	17	C3H3O+
55.0543	10	C4H7+
56.0131	2	C2H2NO+
56.9794	6	C2HS+
57.9872	130	C2H2S+
58.9951	425	C2H3S+
59.9665	34	COS+
59.9903	5	CH2NS+
61.0074	6	C5H+
62.006	4	CH4NS+
62.0152	57	C5H2+
63.023	266	C5H3+
64.0308	48	C5H4+
65.0386	999	C5H5+
66.0465	33	C5H6+
67.0417	24	C4H5N+
67.0543	3	C5H7+
67.9894	5	C3O2+
68.0131	18	C3H2NO+
68.0495	10	C4H6N+
68.9794	45	C3HS+
69.0448	18	C3H5N2+
70.0651	18	C4H8N+
70.9951	13	C3H3S+
73.0107	6	C3H5S+
74.0058	2	C2H4NS+
74.0151	26	C6H2+
75.023	64	C6H3+
76.0307	6	C6H4+
77.0386	280	C6H5+
78.0464	37	C6H6+
79.0543	216	C6H7+
80.0493	20	C5H6N+
81.0335	19	C5H5O+
86.0059	70	C3H4NS+
87.0263	5	C4H7S+
89.0386	871	C7H5+
90.0465	239	C7H6+
91.0543	527	C7H7+
94.0414	4	C6H6O+
95.0492	506	C6H7O+
96.0445	6	C5H6NO+
100.0217	3	C4H6NS+
102.0464	34	C8H6+
103.0543	54	C8H7+
104.0495	6	C7H6N+
105.0448	364	C6H5N2+
106.0652	6	C7H8N+
112.0214	3	C5H6NS+
115.0544	17	C9H7+
116.0496	13	C8H6N+
117.0574	125	C8H7N+
121.0108	83	C7H5S+
128.0496	10	C9H6N+
128.062	4	C10H8+
130.0651	13	C9H8N+
