Mass spectrum: CGA62826 (2-[2,6-dimethylphenyl)-methoxyacetylamino]propionic acid; LC-ESI-QFT; MS2; CE: 90; R=35000; [M-H]-
Name: CGA62826 (2-[2,6-dimethylphenyl)-methoxyacetylamino]propionic acid
Name: N-(2,6-Dimethylphenyl)-N-(methoxyacetyl)-L-alanine
Name: (2S)-2-(N-(2-methoxyacetyl)-2,6-dimethylanilino)propanoic acid
Formula: C14H19NO4
Exact mass: 265.13141
SMILES: Cc1cccc(c1N([C@@H](C)C(=O)O)C(=O)COC)C
InChI: InChI=1S/C14H19NO4/c1-9-6-5-7-10(2)13(9)15(11(3)14(17)18)12(16)8-19-4/h5-7,11H,8H2,1-4H3,(H,17,18)/t11-/m0/s1
Instrument: Q Exactive Plus Orbitrap Thermo Scientific
Instrument type: LC-ESI-QFT
Ms type: MS2
Ion mode: NEGATIVE
Ionization: ESI
Fragmentation mode: HCD
Collision energy: 90 (nominal)
Resolution: 35000
Column name: XBridge C18 3.5um, 2.1x50mm, Waters
Retention time: 7.8 min
Base peak: 264.1239
Precursor m/z: 264.1241
Precursor type: [M-H]-
m/z	relative intensity	assigned
55.0189	18	C3H3O-
57.0346	86	C3H5O-
58.0061	4	C2H2O2-
69.0348	1	C4H5O-
71.014	4	C3H3O2-
72.9933	2	C2HO3-
85.0295	167	C4H5O2-
87.0454	1	C4H7O2-
88.0405	12	C3H6NO2-
89.0245	74	C3H5O3-
106.0425	2	C7H6O-
115.0427	1	C8H5N-
116.0506	11	C8H6N-
120.0819	141	C8H10N-
121.0659	142	C8H9O-
129.0585	24	C9H7N-
130.0662	999	C9H8N-
131.0376	14	C8H5NO-
132.0819	7	C9H10N-
142.0662	2	C10H8N-
143.074	35	C10H9N-
144.0819	307	C10H10N-
145.0535	15	C9H7NO-
146.0612	125	C9H8NO-
146.0976	31	C10H12N-
148.077	4	C9H10NO-
148.1128	1	C10H14N-
156.082	1	C11H10N-
158.0612	109	C10H8NO-
161.0489	1	C9H7NO2-
172.0762	1	C11H10NO-
174.0924	13	C11H12NO-
175.0638	5	C10H9NO2-
192.1027	1	C11H14NO2-
