Mass spectrum: Chlorophacinone; LC-ESI-QFT; MS2; CE: 120%; R=17500; [M+H]+
Name: Chlorophacinone
Name: 2-[2-(4-chlorophenyl)-2-phenylacetyl]indene-1,3-dione
Formula: C23H15ClO3
Exact mass: 374.0710
SMILES: C1=CC=C(C=C1)C(C2=CC=C(C=C2)Cl)C(=O)C3C(=O)C4=CC=CC=C4C3=O
InChI: InChI=1S/C23H15ClO3/c24-16-12-10-15(11-13-16)19(14-6-2-1-3-7-14)23(27)20-21(25)17-8-4-5-9-18(17)22(20)26/h1-13,19-20H
Instrument: Exploris 240 Orbitrap Thermo Scientific
Instrument type: LC-ESI-QFT
Ms type: MS2
Ion mode: POSITIVE
Ionization: ESI
Fragmentation mode: HCD
Collision energy: 120 % (nominal)
Resolution: 17500
Column name: XBridge C18 3.5um, 2.1x50mm, Waters
Retention time: 14.480 min
Base peak: 375.0783
Precursor m/z: 375.0782
Precursor type: [M+H]+
m/z	relative intensity	assigned
51.023	76	C4H3+
53.0386	51	C4H5+
75.0229	182	C6H3+
77.0386	196	C6H5+
89.0387	57	C7H5+
91.0545	40	C7H7+
95.0491	235	C6H7O+
101.0386	147	C8H5+
102.0463	75	C8H6+
103.0543	193	C8H7+
115.0543	31	C9H7+
119.0491	72	C8H7O+
129.0102	13	C6H6ClO+
129.0334	70	C9H5O+
131.0495	26	C9H7O+
137.0156	44	C8H6Cl+
139.0543	23	C11H7+
151.0547	34	C12H7+
152.0621	202	C12H8+
163.0542	79	C13H7+
164.0624	50	C13H8+
165.0699	373	C13H9+
169.0647	93	C12H9O+
176.062	324	C14H8+
177.0698	196	C14H9+
178.0777	999	C14H10+
187.054	139	C15H7+
188.0619	175	C15H8+
189.07	430	C15H9+
205.0643	133	C15H9O+
223.0312	42	C15H8Cl+
239.0859	84	C19H11+
250.0779	48	C20H10+
263.0856	390	C21H11+
264.0931	31	C21H12+
265.1011	213	C21H13+
274.0778	148	C22H10+
275.0858	32	C22H11+
276.094	199	C22H12+
292.0891	101	C22H12O+
