Mass spectrum: 3,4-Methylenedioxy-N-ethylamphetamine (MDEA); LC-ESI-QFT; MS2; CE: 150; R=35000; [M+H]+
Name: 3,4-Methylenedioxy-N-ethylamphetamine (MDEA)
Name: 3,4-methylenedioxyethamphetamine
Name: 1-(1,3-benzodioxol-5-yl)-N-ethylpropan-2-amine
Formula: C12H17NO2
Exact mass: 207.12593
SMILES: CCNC(C)CC1=CC2=C(C=C1)OCO2
InChI: InChI=1S/C12H17NO2/c1-3-13-9(2)6-10-4-5-11-12(7-10)15-8-14-11/h4-5,7,9,13H,3,6,8H2,1-2H3
Instrument: Q Exactive Plus Orbitrap Thermo Scientific
Instrument type: LC-ESI-QFT
Ms type: MS2
Ion mode: POSITIVE
Ionization: ESI
Fragmentation mode: HCD
Collision energy: 150 (nominal)
Resolution: 35000
Column name: XBridge C18 3.5um, 2.1x50mm, Waters
Retention time: 4.0 min
Base peak: 208.1326
Precursor m/z: 208.1332
Precursor type: [M+H]+
m/z	relative intensity	assigned
50.0151	268	C4H2+
51.0229	413	C4H3+
53.0022	18	C3HO+
53.0386	325	C4H5+
53.9974	1	C2NO+
55.0178	54	C3H3O+
63.0229	18	C5H3+
64.0307	2	C5H4+
65.0385	297	C5H5+
66.0463	12	C5H6+
67.0542	11	C5H7+
68.0255	1	C4H4O+
68.997	1	C3HO2+
72.0807	11	C4H10N+
74.015	1	C6H2+
75.0228	7	C6H3+
77.0384	923	C6H5+
78.0463	19	C6H6+
79.0541	600	C6H7+
81.0334	35	C5H5O+
89.0385	70	C7H5+
90.0464	11	C7H6+
91.0542	59	C7H7+
93.0334	2	C6H5O+
93.0697	1	C7H9+
94.0413	11	C6H6O+
95.0491	999	C6H7O+
102.0463	20	C8H6+
103.0541	320	C8H7+
104.0619	6	C8H8+
105.0334	46	C7H5O+
105.0447	620	C6H5N2+
105.0698	61	C8H9+
106.0416	5	C7H6O+
107.0488	2	C7H7O+
109.0648	2	C7H9O+
115.0542	21	C9H7+
121.0283	74	C7H5O2+
122.0361	1	C7H6O2+
135.0439	45	C8H7O2+
147.0439	64	C9H7O2+
