Mass spectrum: Clenbuterol; LC-ESI-QFT; MS2; CE: 120; R=35000; [M+H]+
Name: Clenbuterol
Name: 1-(4-amino-3,5-dichlorophenyl)-2-(tert-butylamino)ethanol
Formula: C12H18Cl2N2O
Exact mass: 276.07962
SMILES: CC(C)(C)NCC(C1=CC(=C(C(=C1)Cl)N)Cl)O
InChI: InChI=1S/C12H18Cl2N2O/c1-12(2,3)16-6-10(17)7-4-8(13)11(15)9(14)5-7/h4-5,10,16-17H,6,15H2,1-3H3
Instrument: Q Exactive Plus Orbitrap Thermo Scientific
Instrument type: LC-ESI-QFT
Ms type: MS2
Ion mode: POSITIVE
Ionization: ESI
Fragmentation mode: HCD
Collision energy: 120 (nominal)
Resolution: 35000
Column name: XBridge C18 3.5um, 2.1x50mm, Waters
Retention time: 4.6 min
Base peak: 277.0862
Precursor m/z: 277.0869
Precursor type: [M+H]+
m/z	relative intensity	assigned
50.0151	5	C4H2+
51.0228	6	C4H3+
52.018	2	C3H2N+
53.0022	7	C3HO+
53.0386	22	C4H5+
53.9974	1	C2NO+
55.0178	1	C3H3O+
55.0543	1	C4H7+
57.0699	80	C4H9+
60.0444	1	C2H6NO+
61.9792	3	CHClN+
63.0229	10	C5H3+
65.0385	8	C5H5+
66.0463	3	C5H6+
67.0416	6	C4H5N+
67.9892	1	C3O2+
72.9839	1	C3H2Cl+
75.0228	8	C6H3+
77.0384	42	C6H5+
78.0337	12	C5H4N+
78.0464	37	C6H6+
79.0416	23	C5H5N+
79.0541	24	C6H7+
80.0494	66	C5H6N+
81.0334	1	C5H5O+
81.0573	6	C5H7N+
88.0307	4	C7H4+
89.0385	62	C7H5+
90.0338	22	C6H4N+
90.0464	4	C7H6+
91.0417	9	C6H5N+
92.0494	24	C6H6N+
93.0573	19	C6H7N+
95.0491	63	C6H7O+
96.0443	28	C5H6NO+
98.9996	8	C5H4Cl+
100.0073	3	C5H5Cl+
102.0338	5	C7H4N+
103.0416	3	C7H5N+
104.0494	581	C7H6N+
105.0447	50	C6H5N2+
105.0573	254	C7H7N+
106.0651	273	C7H8N+
108.0444	7	C6H6NO+
109.0523	1	C6H7NO+
110.9995	1	C6H4Cl+
111.0315	1	C2H8ClN2O+
112.0073	1	C6H5Cl+
113.0152	44	C6H6Cl+
114.0105	4	C5H5ClN+
114.0338	6	C8H4N+
115.0416	22	C8H5N+
116.0494	56	C8H6N+
117.0445	5	C7H5N2+
117.0572	87	C8H7N+
118.0525	13	C7H6N2+
120.0443	3	C7H6NO+
122.9995	21	C7H4Cl+
124.0074	18	C7H5Cl+
125.0027	9	C6H4ClN+
126.0105	15	C6H5ClN+
127.0183	31	C6H6ClN+
129.0102	2	C6H6ClO+
130.04	8	C7H4N3+
130.0523	1	C8H6N2+
131.0604	433	C8H7N2+
132.0682	859	C8H8N2+
133.076	146	C8H9N2+
134.0599	60	C8H8NO+
137.0473	2	C4H10ClN2O+
138.0106	14	C7H5ClN+
139.006	9	C6H4ClN2+
139.0184	11	C7H6ClN+
140.0261	999	C7H7ClN+
141.0338	27	C7H8ClN+
144.0557	20	C8H6N3+
145.968	7	C6H4Cl2+
150.0104	4	C8H5ClN+
151.0183	147	C8H6ClN+
152.0134	3	C7H5ClN2+
152.0262	23	C8H7ClN+
153.0213	63	C7H6ClN2+
160.9793	30	C9H2ClO+
161.987	2	C6H6Cl2N+
166.0294	4	C8H7ClN2+
167.037	125	C8H8ClN2+
168.0448	68	C11H6NO+
172.9555	3	C7H3Cl2O+
172.9664	1	C9ClNO+
173.9872	37	C10H3ClO+
189.9819	3	C7H6Cl2NO+
