Mass spectrum: Profoxydim; LC-ESI-QFT; MS2; CE: 90; R=35000; [M-H]-
Name: Profoxydim
Name: 2-[1-[2-(4-chlorophenoxy)propoxyamino]butylidene]-5-(thian-3-yl)cyclohexane-1,3-dione
Formula: C24H32ClNO4S
Exact mass: 465.17406
SMILES: CCCC(=C1C(=O)CC(CC1=O)C2CCCSC2)NOCC(C)OC3=CC=C(C=C3)Cl
InChI: InChI=1S/C24H32ClNO4S/c1-3-5-21(26-29-14-16(2)30-20-9-7-19(25)8-10-20)24-22(27)12-18(13-23(24)28)17-6-4-11-31-15-17/h7-10,16-18,26H,3-6,11-15H2,1-2H3
Instrument: Q Exactive Plus Orbitrap Thermo Scientific
Instrument type: LC-ESI-QFT
Ms type: MS2
Ion mode: NEGATIVE
Ionization: ESI
Fragmentation mode: HCD
Collision energy: 90 (nominal)
Resolution: 35000
Column name: XBridge C18 3.5um, 2.1x50mm, Waters
Retention time: 14.4 min
Base peak: 464.1659
Precursor m/z: 464.1668
Precursor type: [M-H]-
m/z	relative intensity	assigned
50.0035	3	C3N-
57.0345	10	C3H5O-
58.996	31	C2H3S-
60.9754	6	CHOS-
64.0193	3	C4H2N-
65.0396	12	C5H5-
65.9985	450	C3NO-
67.0189	20	C4H3O-
68.0142	16	C3H2NO-
69.0346	154	C4H5O-
72.0039	1	C3H4S-
81.0221	1	C4H3NO-
81.0344	1	C5H5O-
81.071	1	C6H9-
82.0298	43	C4H4NO-
85.0118	5	C4H5S-
90.0348	3	C6H4N-
91.0189	18	C6H3O-
92.0506	21	C6H6N-
93.0345	4	C6H5O-
94.0297	14	C5H4NO-
95.0138	64	C5H3O2-
95.0503	4	C6H7O-
101.0429	31	C5H9S-
106.0298	5	C6H4NO-
106.0662	4	C7H8N-
107.0377	1	C6H5NO-
107.0502	9	C7H7O-
108.0216	6	C6H4O2-
108.0454	1	C6H6NO-
109.0167	3	C5H3NO2-
109.0294	13	C6H5O2-
110.0611	15	C6H8NO-
118.0298	5	C7H4NO-
120.009	406	C6H2NO2-
121.0169	4	C6H3NO2-
121.0658	15	C8H9O-
122.0612	3	C7H8NO-
123.0816	3	C8H11O-
125.0429	1	C7H9S-
126.9955	335	C6H4ClO-
131.0376	15	C8H5NO-
132.0454	4	C8H6NO-
133.0166	1	C7H3NO2-
133.0659	3	C9H9O-
134.0247	999	C7H4NO2-
135.0325	38	C7H5NO2-
136.0402	13	C7H6NO2-
140.0539	43	C7H10NS-
146.0247	3	C8H4NO2-
146.0608	1	C9H8NO-
148.0767	7	C9H10NO-
150.0195	8	C7H4NO3-
150.0556	1	C8H8NO2-
153.0378	1	C8H9OS-
156.0457	1	C10H6NO-
158.0611	9	C10H8NO-
160.0403	18	C9H6NO2-
160.0768	3	C10H10NO-
162.056	29	C9H8NO2-
163.0762	1	C10H11O2-
166.0327	3	C8H8NOS-
167.0223	11	C7H5NO4-
167.0534	16	C9H11OS-
169.0693	1	C9H13OS-
171.0484	1	C8H11O2S-
174.0559	5	C10H8NO2-
175.0641	1	C10H9NO2-
176.0719	3	C10H10NO2-
188.0717	3	C11H10NO2-
192.0488	96	C10H10NOS-
194.0643	68	C10H12NOS-
202.0875	4	C12H12NO2-
218.0646	1	C12H12NOS-
236.075	238	C12H14NO2S-
