Mass spectrum: 2-(3-Hydroxycyclohexyl)-5-(2-methyl-2-octanyl)phenol; LC-ESI-QFT; MS2; CE: 60; R=35000; [M-H]-
Name: 2-(3-Hydroxycyclohexyl)-5-(2-methyl-2-octanyl)phenol
Name: CP47.497
Name: 2-(3-hydroxycyclohexyl)-5-(2-methyloctan-2-yl)phenol
Formula: C21H34O2
Exact mass: 318.25588
SMILES: CCCCCCC(C)(C)C1=CC(=C(C=C1)C2CCCC(C2)O)O
InChI: InChI=1S/C21H34O2/c1-4-5-6-7-13-21(2,3)17-11-12-19(20(23)15-17)16-9-8-10-18(22)14-16/h11-12,15-16,18,22-23H,4-10,13-14H2,1-3H3
Instrument: Q Exactive Plus Orbitrap Thermo Scientific
Instrument type: LC-ESI-QFT
Ms type: MS2
Ion mode: NEGATIVE
Ionization: ESI
Fragmentation mode: HCD
Collision energy: 60 (nominal)
Resolution: 35000
Column name: XBridge C18 3.5um, 2.1x50mm, Waters
Retention time: 17.0 min
Base peak: 363.2538
Precursor m/z: 317.2486
Precursor type: [M-H]-
m/z	relative intensity	assigned
57.0345	20	C3H5O-
69.0345	2	C4H5O-
83.0502	47	C5H7O-
133.0657	1	C9H9O-
134.0373	4	C8H6O2-
147.0815	4	C10H11O-
151.0403	1	C8H7O3-
159.0812	34	C11H11O-
160.0892	2	C11H12O-
161.0971	4	C11H13O-
175.1128	2	C12H15O-
177.0556	31	C10H9O3-
185.097	17	C13H13O-
187.1126	2	C13H15O-
193.0868	1	C11H13O3-
203.0714	10	C12H11O3-
203.144	2	C14H19O-
213.1284	35	C15H17O-
215.1439	1	C15H19O-
217.1596	1	C15H21O-
219.1754	20	C15H23O-
229.123	1	C15H17O2-
231.139	40	C15H19O2-
232.1833	2	C16H24O-
233.1909	2	C16H25O-
245.191	999	C17H25O-
246.1258	3	C15H18O3-
247.2066	4	C17H27O-
259.2068	1	C18H27O-
261.2222	12	C18H29O-
264.1728	2	C16H24O3-
271.2068	299	C19H27O-
273.2223	20	C19H29O-
289.2536	6	C20H33O-
295.2065	10	C21H27O-
297.2225	6	C21H29O-
299.238	613	C21H31O-
313.2172	10	C21H29O2-
315.2327	56	C21H31O2-
317.2484	125	C21H33O2-
