Mass spectrum: Dexamethasone acetate; LC-ESI-QFT; MS2; CE: 75; R=35000; [M+H]+
Name: Dexamethasone acetate
Name: Dexamethason-21-acetate
Name: [2-(9-fluoro-11,17-dihydroxy-10,13,16-trimethyl-3-oxo-6,7,8,11,12,14,15,16-octahydrocyclopenta[a]phenanthren-17-yl)-2-oxoethyl] acetate
Formula: C24H31FO6
Exact mass: 434.21047
SMILES: CC1CC2C3CCC4=CC(=O)C=CC4(C3(C(CC2(C1(C(=O)COC(=O)C)O)C)O)F)C
InChI: InChI=1S/C24H31FO6/c1-13-9-18-17-6-5-15-10-16(27)7-8-21(15,3)23(17,25)19(28)11-22(18,4)24(13,30)20(29)12-31-14(2)26/h7-8,10,13,17-19,28,30H,5-6,9,11-12H2,1-4H3
Instrument: Q Exactive Plus Orbitrap Thermo Scientific
Instrument type: LC-ESI-QFT
Ms type: MS2
Ion mode: POSITIVE
Ionization: ESI
Fragmentation mode: HCD
Collision energy: 75 (nominal)
Resolution: 35000
Column name: XBridge C18 3.5um, 2.1x50mm, Waters
Retention time: 10.2 min
Base peak: 435.2176
Precursor m/z: 435.2177
Precursor type: [M+H]+
m/z	relative intensity	assigned
50.0151	6	C4H2+
51.0229	8	C4H3+
53.0022	3	C3HO+
53.0386	68	C4H5+
55.0179	65	C3H3O+
55.0543	123	C4H7+
57.0335	35	C3H5O+
57.0699	3	C4H9+
59.0491	6	C3H7O+
61.0284	41	C2H5O2+
63.0227	3	C5H3+
65.0385	52	C5H5+
67.0542	214	C5H7+
69.0335	104	C4H5O+
69.0699	69	C5H9+
71.0128	21	C3H3O2+
71.0491	46	C4H7O+
77.0385	50	C6H5+
79.0542	320	C6H7+
81.0335	14	C5H5O+
81.0699	128	C6H9+
83.0492	41	C5H7O+
85.0648	6	C5H9O+
91.0543	999	C7H7+
92.062	4	C7H8+
93.07	300	C7H9+
95.0492	201	C6H7O+
95.0855	140	C7H11+
97.0649	38	C6H9O+
99.044	4	C5H7O2+
101.0235	5	C4H5O3+
102.0464	6	C8H6+
103.0543	93	C8H7+
104.0622	26	C8H8+
105.0448	75	C6H5N2+
105.07	683	C8H9+
107.0492	119	C7H7O+
107.0856	247	C8H11+
108.0568	25	C7H8O+
109.0447	6	C7H6F+
109.0649	107	C7H9O+
109.1011	38	C8H13+
111.0805	19	C7H11O+
115.0543	273	C9H7+
116.0621	91	C9H8+
117.0699	260	C9H9+
119.0606	33	C7H7N2+
119.0856	632	C9H11+
121.0649	792	C8H9O+
121.1013	62	C9H13+
123.0605	15	C8H8F+
123.0805	58	C8H11O+
125.0599	28	C7H9O2+
125.0962	5	C8H13O+
127.0545	6	C10H7+
128.0621	537	C10H8+
129.0699	274	C10H9+
130.0777	77	C10H10+
131.0492	48	C9H7O+
131.0856	243	C10H11+
132.057	227	C9H8O+
133.0648	60	C9H9O+
133.076	4	C8H9N2+
133.1012	90	C10H13+
134.0725	4	C9H10O+
135.0805	160	C9H11O+
137.0597	8	C8H9O2+
137.0963	8	C9H13O+
139.0548	5	C11H7+
141.0699	243	C11H9+
142.0778	144	C11H10+
143.0857	296	C11H11+
144.0571	137	C10H8O+
144.0935	8	C11H12+
145.0649	341	C10H9O+
145.1013	103	C11H13+
146.0727	81	C10H10O+
147.0805	737	C10H11O+
149.0962	36	C10H13O+
151.0753	6	C9H11O2+
152.0622	67	C12H8+
153.0699	99	C12H9+
154.0778	76	C12H10+
155.0491	14	C11H7O+
155.0604	60	C10H7N2+
155.0856	170	C12H11+
156.0572	34	C11H8O+
156.0935	37	C12H12+
157.0649	60	C11H9O+
157.1011	60	C12H13+
158.0727	288	C11H10O+
159.0805	363	C11H11O+
160.0883	7	C11H12O+
161.0596	19	C10H9O2+
161.0962	100	C11H13O+
163.0753	18	C10H11O2+
164.0613	4	C13H8+
165.07	258	C13H9+
166.0778	95	C13H10+
167.0857	141	C13H11+
168.057	42	C12H8O+
168.0935	29	C13H12+
169.0649	113	C12H9O+
169.0762	24	C11H9N2+
169.1013	62	C13H13+
170.0727	83	C12H10O+
170.1088	4	C13H14+
171.0805	485	C12H11O+
172.0884	60	C12H12O+
173.0962	113	C12H13O+
177.0701	20	C14H9+
178.0778	229	C14H10+
179.0856	447	C14H11+
180.0935	104	C14H12+
181.0649	177	C13H9O+
181.1012	80	C14H13+
182.0728	116	C13H10O+
182.1091	8	C14H14+
183.0805	146	C13H11O+
183.117	22	C14H15+
184.0884	39	C13H12O+
185.0962	171	C13H13O+
187.0751	19	C12H11O2+
187.1119	16	C13H15O+
189.07	176	C15H9+
190.0776	104	C15H10+
191.0856	134	C15H11+
192.0934	159	C15H12+
193.1014	183	C15H13+
194.0728	79	C14H10O+
194.1091	130	C15H14+
195.0806	257	C14H11O+
195.117	43	C15H15+
196.0884	189	C14H12O+
197.0962	194	C14H13O+
198.0679	3	C13H10O2+
198.104	48	C14H14O+
199.1118	27	C14H15O+
202.0779	80	C16H10+
203.0856	217	C16H11+
204.0935	144	C16H12+
205.0649	68	C15H9O+
205.1014	118	C16H13+
206.0729	29	C15H10O+
206.1095	60	C16H14+
207.0806	207	C15H11O+
207.1169	56	C16H15+
208.0885	234	C15H12O+
209.0963	255	C15H13O+
209.1325	16	C16H17+
210.104	112	C15H14O+
211.0755	18	C14H11O2+
211.112	69	C15H15O+
212.1197	41	C15H16O+
213.1274	6	C15H17O+
215.0857	116	C17H11+
216.0935	75	C17H12+
217.1014	82	C17H13+
218.0728	33	C16H10O+
218.1092	31	C17H14+
219.0806	137	C16H11O+
219.1169	69	C17H15+
220.0882	82	C16H12O+
220.1247	19	C17H16+
221.0962	251	C16H13O+
221.1328	19	C17H17+
222.1041	382	C16H14O+
223.1119	130	C16H15O+
224.0835	7	C15H12O2+
224.1198	33	C16H16O+
225.0909	19	C15H13O2+
225.1274	32	C16H17O+
226.0985	15	C15H14O2+
227.0862	29	
227.1432	6	C16H19O+
228.0935	63	C18H12+
229.1013	114	C18H13+
230.1092	56	C18H14+
231.0806	59	C17H11O+
231.1171	37	C18H15+
232.0885	91	C17H12O+
232.1247	5	C18H16+
233.0962	165	C17H13O+
233.1328	18	C18H17+
234.1042	72	C17H14O+
235.1119	206	C17H15O+
236.1196	21	C17H16O+
237.1276	64	C17H17O+
238.0985	17	C16H14O2+
238.1353	5	C17H18O+
239.0853	7	C19H11+
239.1436	6	C17H19O+
240.1153	4	C16H16O2+
241.1017	21	C19H13+
242.0718	4	C18H10O+
242.1092	27	C19H14+
243.0804	7	C18H11O+
243.117	98	C19H15+
244.0884	18	C18H12O+
244.1246	14	C19H16+
245.0962	116	C18H13O+
245.1324	23	C19H17+
246.1042	88	C18H14O+
246.1406	5	C19H18+
247.1119	175	C18H15O+
248.1198	93	C18H16O+
249.0908	17	C17H13O2+
249.1273	50	C18H17O+
251.1063	4	C17H15O2+
252.0938	4	C20H12+
253.1017	14	C20H13+
254.1096	6	C20H14+
255.0807	6	C19H11O+
255.1168	6	C20H15+
256.0885	25	C19H12O+
257.0962	15	C19H13O+
257.1324	19	C20H17+
258.1045	27	C19H14O+
259.1118	55	C19H15O+
260.1197	37	C19H16O+
261.1277	125	C19H17O+
262.1352	39	C19H18O+
263.1068	5	C18H15O2+
263.1437	39	C19H19O+
267.1165	16	
270.1035	19	C20H14O+
271.1118	75	C20H15O+
272.1193	7	C20H16O+
273.1273	8	C20H17O+
274.0992	6	C19H14O2+
275.1066	8	C19H15O2+
275.1434	19	C20H19O+
276.1505	4	C20H20O+
277.158	4	C20H21O+
285.127	29	C21H17O+
286.1355	15	C21H18O+
289.122	6	C20H17O2+
