Mass spectrum: Fluvastatin; LC-ESI-QFT; MS2; CE: 60; R=35000; [M+H]+
Name: Fluvastatin
Name: (3R,5S)-7-[3-(4-fluorophenyl)-1-isopropyl-2-indolyl]-3,5-dihydroxy-6-heptenoic acid
Formula: C24H26FNO4
Exact mass: 411.18459
SMILES: O=C(O)C[C@H](O)C[C@H](O)/C=C/c2c(c1ccccc1n2C(C)C)c3ccc(F)cc3
InChI: InChI=1S/C24H26FNO4/c1-15(2)26-21-6-4-3-5-20(21)24(16-7-9-17(25)10-8-16)22(26)12-11-18(27)13-19(28)14-23(29)30/h3-12,15,18-19,27-28H,13-14H2,1-2H3,(H,29,30)/b12-11+/t18-,19-/m1/s1
Instrument: Q Exactive Orbitrap Thermo Scientific
Instrument type: LC-ESI-QFT
Ms type: MS2
Ion mode: POSITIVE
Ionization: ESI
Fragmentation mode: HCD
Collision energy: 60 (nominal)
Resolution: 35000
Column name: XBridge C18 3.5um, 2.1x50mm, Waters
Retention time: 13.5 min
Base peak: 412.1916
Precursor m/z: 412.1919
Precursor type: [M+H]+
m/z	relative intensity	assigned
67.0542	8	C5H7+
69.0335	3	C4H5O+
71.0126	5	C3H3O2+
71.0491	3	C4H7O+
81.0334	6	C5H5O+
89.0233	1	C3H5O3+
95.049	30	C6H7O+
97.0284	7	C5H5O2+
122.0398	4	C7H5FN+
123.0439	21	C7H7O2+
141.0546	1	C7H9O3+
143.0854	1	C11H11+
168.0806	2	C12H10N+
177.0697	20	C14H9+
196.0682	53	C14H9F+
197.076	262	C14H10F+
204.0808	51	C15H10N+
209.0634	3	C14H8FN+
211.0793	11	C14H10FN+
212.087	18	C14H11FN+
218.0965	1	C16H12N+
222.0714	46	C15H9FN+
223.0793	141	C15H10FN+
224.0869	999	C15H11FN+
225.0908	1	C15H13O2+
235.0793	5	C16H10FN+
236.0871	7	C16H11FN+
237.0943	2	C16H12FN+
238.1025	49	C16H13FN+
248.087	11	C17H11FN+
249.095	5	C17H12FN+
250.103	4	C17H13FN+
251.111	3	C17H14FN+
253.126	2	C17H16FN+
261.0947	2	C18H12FN+
262.1029	4	C18H13FN+
264.1181	8	C18H15FN+
266.134	28	C18H17FN+
274.1023	8	C19H13FN+
288.118	4	C20H15FN+
