Mass spectrum: Dimethenamide ESA; LC-ESI-ITFT; MS2; CE: 35%; R=30000; [M+H]+
Name: Dimethenamide ESA
Name: 2-[(2,4-Dimethyl-3-thienyl)(1-methoxy-2-propanyl)amino]-2-oxoethanesulfonic acid
Formula: C12H19NO5S2
Exact mass: 321.0705
SMILES: S(C=C1C)C(C)=C1N(C(=O)CS(=O)(=O)O)C(COC)C
InChI: InChI=1S/C12H19NO5S2/c1-8-6-19-10(3)12(8)13(9(2)5-18-4)11(14)7-20(15,16)17/h6,9H,5,7H2,1-4H3,(H,15,16,17)
Instrument: LTQ Orbitrap XL Thermo Scientific
Instrument type: LC-ESI-ITFT
Ms type: MS2
Ion mode: POSITIVE
Ionization: ESI
Fragmentation mode: CID
Collision energy: 35 % (nominal)
Resolution: 30000
Column name: XBridge C18 3.5um, 2.1x50mm, Waters
Retention time: 6.7 min
Base peak: 322.0788
Precursor m/z: 322.0777
Precursor type: [M+H]+
m/z	relative intensity	assigned
290.0514	999	C11H16NO4S2+
