Mass spectrum: 2-Hydroxybenzothiazole; LC-ESI-QFT; MS2; CE: 180; R=35000; [M+H]+
Name: 2-Hydroxybenzothiazole
Name: 2-Benzothiazolol
Name: 3H-1,3-benzothiazol-2-one
Formula: C7H5NOS
Exact mass: 151.00918
SMILES: C1=CC=C2C(=C1)NC(=O)S2
InChI: InChI=1S/C7H5NOS/c9-7-8-5-3-1-2-4-6(5)10-7/h1-4H,(H,8,9)
Instrument: Q Exactive Plus Orbitrap Thermo Scientific
Instrument type: LC-ESI-QFT
Ms type: MS2
Ion mode: POSITIVE
Ionization: ESI
Fragmentation mode: HCD
Collision energy: 180 (nominal)
Resolution: 35000
Column name: XBridge C18 3.5um, 2.1x50mm, Waters
Retention time: 6.4 min
Base peak: 152.0164
Precursor m/z: 152.0165
Precursor type: [M+H]+
m/z	relative intensity	assigned
50.0151	32	C4H2+
51.023	33	C4H3+
52.0182	29	C3H2N+
53.0022	81	C3HO+
53.0386	446	C4H5+
53.9975	13	C2NO+
54.01	2	C3H2O+
54.0339	12	C3H4N+
54.0464	36	C4H6+
55.0179	17	C3H3O+
56.0495	7	C3H6N+
57.9872	15	C2H2S+
58.995	6	C2H3S+
59.9665	6	COS+
61.0073	13	C5H+
62.0151	81	C5H2+
63.023	848	C5H3+
64.0182	367	C4H2N+
64.0308	246	C5H4+
65.0386	999	C5H5+
66.0464	5	C5H6+
67.0417	21	C4H5N+
67.9893	16	C3O2+
68.9794	593	C3HS+
69.9872	19	C3H2S+
70.995	18	C3H3S+
74.0151	9	C6H2+
75.0229	6	C6H3+
76.0182	6	C5H2N+
76.0308	2	C6H4+
77.0385	16	C6H5+
78.0338	7	C5H4N+
78.0464	5	C6H6+
79.0416	2	C5H5N+
80.0495	805	C5H6N+
80.9793	15	C4HS+
81.0335	20	C5H5O+
81.9872	44	C4H2S+
82.995	18	C4H3S+
90.0339	226	C6H4N+
91.0417	271	C6H5N+
92.0371	2	C5H4N2+
92.0495	6	C6H6N+
92.9794	42	C5HS+
93.9746	7	C4NS+
94.995	16	C5H3S+
96.0029	18	C5H4S+
96.0443	10	C5H6NO+
97.0107	61	C5H5S+
105.0449	9	C6H5N2+
106.995	21	C6H3S+
108.0028	64	C6H4S+
108.0444	5	C6H6NO+
109.0107	48	C6H5S+
119.0366	22	C7H5NO+
122.0059	6	C6H4NS+
124.0218	2	C6H6NS+
132.998	12	C7H3NS+
134.0059	3	C7H4NS+
