Mass spectrum: Difethialone; LC-ESI-QFT; MS2; CE: 75%; R=17500; [M-H]-
Name: Difethialone
Name: 3-[3-[4-(4-bromophenyl)phenyl]-1,2,3,4-tetrahydronaphthalen-1-yl]-2-hydroxythiochromen-4-one
Formula: C31H23BrO2S
Exact mass: 538.0602
SMILES: C1C(CC2=CC=CC=C2C1C3=C(SC4=CC=CC=C4C3=O)O)C5=CC=C(C=C5)C6=CC=C(C=C6)Br
InChI: InChI=1S/C31H23BrO2S/c32-24-15-13-20(14-16-24)19-9-11-21(12-10-19)23-17-22-5-1-2-6-25(22)27(18-23)29-30(33)26-7-3-4-8-28(26)35-31(29)34/h1-16,23,27,34H,17-18H2
Instrument: Exploris 240 Orbitrap Thermo Scientific
Instrument type: LC-ESI-QFT
Ms type: MS2
Ion mode: NEGATIVE
Ionization: ESI
Fragmentation mode: HCD
Collision energy: 75 % (nominal)
Resolution: 17500
Column name: XBridge C18 3.5um, 2.1x50mm, Waters
Retention time: 17.379 min
Base peak: 539.0508
Precursor m/z: 537.0529
Precursor type: [M-H]-
m/z	relative intensity	assigned
74.991	5	C2H3OS-
78.9189	999	Br-
108.0041	11	C6H4S-
109.0117	79	C6H5S-
115.0555	7	C9H7-
133.0118	61	C8H5S-
143.0503	63	C10H7O-
149.0066	17	C8H5OS-
151.0224	29	C8H7OS-
159.0276	18	C10H7S-
