Mass spectrum: Nornicotine; LC-ESI-QFT; MS2; CE: 90; R=35000; [M+H]+
Name: Nornicotine
Name: 3-pyrrolidin-2-ylpyridine
Formula: C9H12N2
Exact mass: 148.10005
SMILES: c1cc(cnc1)C2CCCN2
InChI: InChI=1S/C9H12N2/c1-3-8(7-10-5-1)9-4-2-6-11-9/h1,3,5,7,9,11H,2,4,6H2
Instrument: Q Exactive Plus Orbitrap Thermo Scientific
Instrument type: LC-ESI-QFT
Ms type: MS2
Ion mode: POSITIVE
Ionization: ESI
Fragmentation mode: HCD
Collision energy: 90 (nominal)
Resolution: 35000
Column name: XBridge C18 3.5um, 2.1x50mm, Waters
Retention time: 1.0 min
Base peak: 149.1072
Precursor m/z: 149.1073
Precursor type: [M+H]+
m/z	relative intensity	assigned
50.0149	1	C4H2+
51.0228	1	C4H3+
53.0386	17	C4H5+
54.0338	6	C3H4N+
63.0229	1	C5H3+
65.0386	22	C5H5+
66.0464	1	C5H6+
67.0416	2	C4H5N+
68.0495	5	C4H6N+
70.0651	297	C4H8N+
77.0384	10	C6H5+
78.0337	11	C5H4N+
79.0542	17	C6H7+
80.0494	808	C5H6N+
82.065	1	C5H8N+
89.0386	3	C7H5+
90.0464	20	C7H6+
91.0542	22	C7H7+
92.0494	81	C6H6N+
93.0573	23	C6H7N+
93.0697	1	C7H9+
94.0652	6	C6H8N+
95.049	8	C6H7O+
96.0444	19	C5H6NO+
103.0542	55	C8H7+
104.0495	4	C7H6N+
105.0448	3	C6H5N2+
105.0698	23	C8H9+
106.0651	179	C7H8N+
110.0599	13	C6H8NO+
115.0542	68	C9H7+
117.0573	999	C8H7N+
118.0651	138	C8H8N+
119.073	5	C8H9N+
120.0807	38	C8H10N+
128.0494	3	C9H6N+
130.0651	793	C9H8N+
131.0729	25	C9H9N+
132.0807	105	C9H10N+
146.06	4	C9H8NO+
149.1074	9	C9H13N2+
