Mass spectrum: 8-Hydroxy Mirtazapine; LC-ESI-QFT; MS2; CE: 150; R=35000; [M+H]+
Name: 8-Hydroxy Mirtazapine
Name: 2-Methyl-1,2,3,4,10,14b-hexahydropyrazino[2,1-a]pyrido[2,3-c][2]benzazepin-8-ol
Formula: C17H19N3O
Exact mass: 281.15281
SMILES: CN1CCN2C(C1)C3=CC=CC=C3CC4=CC(=CN=C42)O
InChI: InChI=1S/C17H19N3O/c1-19-6-7-20-16(11-19)15-5-3-2-4-12(15)8-13-9-14(21)10-18-17(13)20/h2-5,9-10,16,21H,6-8,11H2,1H3
Instrument: Q Exactive Plus Orbitrap Thermo Scientific
Instrument type: LC-ESI-QFT
Ms type: MS2
Ion mode: POSITIVE
Ionization: ESI
Fragmentation mode: HCD
Collision energy: 150 (nominal)
Resolution: 35000
Column name: XBridge C18 3.5um, 2.1x50mm, Waters
Retention time: 4.2 min
Base peak: 282.1591
Precursor m/z: 282.1601
Precursor type: [M+H]+
m/z	relative intensity	assigned
50.015	64	C4H2+
51.0229	91	C4H3+
52.0181	13	C3H2N+
52.0307	15	C4H4+
53.0022	36	C3HO+
53.0386	358	C4H5+
53.9974	3	C2NO+
54.0338	36	C3H4N+
55.0178	73	C3H3O+
55.0416	3	C3H5N+
56.0494	102	C3H6N+
57.0572	32	C3H7N+
58.0651	123	C3H8N+
61.0072	2	C5H+
62.015	17	C5H2+
63.0228	142	C5H3+
64.0181	25	C4H2N+
65.0385	228	C5H5+
66.0338	18	C4H4N+
66.0464	10	C5H6+
67.0177	15	C4H3O+
67.0416	27	C4H5N+
67.0542	11	C5H7+
68.013	481	C3H2NO+
70.065	39	C4H8N+
72.0807	112	C4H10N+
74.0148	5	C6H2+
75.0227	31	C6H3+
76.018	33	C5H2N+
76.0306	10	C6H4+
77.0384	90	C6H5+
78.0337	130	C5H4N+
78.0463	59	C6H6+
79.0177	36	C5H3O+
79.0415	46	C5H5N+
79.0541	24	C6H7+
80.0493	215	C5H6N+
81.0333	20	C5H5O+
81.0446	16	C4H5N2+
82.0286	4	C4H4NO+
82.0524	15	C4H6N2+
83.0603	5	C4H7N2+
85.0759	4	C4H9N2+
87.0228	12	C7H3+
88.0306	10	C7H4+
89.0385	380	C7H5+
90.0338	19	C6H4N+
90.0463	86	C7H6+
91.0541	310	C7H7+
92.0493	20	C6H6N+
93.0083	3	C4HN2O+
93.0573	11	C6H7N+
94.0287	17	C5H4NO+
94.0409	3	C6H6O+
94.0651	14	C6H8N+
95.049	163	C6H7O+
96.0443	50	C5H6NO+
101.0384	12	C8H5+
102.0463	94	C8H6+
103.0541	189	C8H7+
104.0494	29	C7H6N+
104.0619	12	C8H8+
105.0446	152	C6H5N2+
105.0698	13	C8H9+
106.0287	4	C6H4NO+
106.0524	13	C6H6N2+
107.0365	3	C6H5NO+
108.0442	10	C6H6NO+
109.0519	2	C6H7NO+
110.0236	2	C5H4NO2+
110.0599	3	C6H8NO+
112.0391	29	C5H6NO2+
113.0384	85	C9H5+
114.0338	12	C8H4N+
114.0463	53	C9H6+
115.0541	999	C9H7+
116.0494	130	C8H6N+
116.0618	27	C9H8+
117.0572	98	C8H7N+
117.0697	21	C9H9+
118.0412	5	C8H6O+
118.065	5	C8H8N+
119.0493	9	C8H7O+
119.0602	27	C7H7N2+
120.0444	5	C7H6NO+
121.0398	2	C6H5N2O+
125.0386	16	C10H5+
126.0463	99	C10H6+
127.0541	240	C10H7+
128.0494	85	C9H6N+
128.0619	489	C10H8+
129.0446	49	C8H5N2+
129.0572	76	C9H7N+
129.0698	63	C10H9+
130.065	236	C9H8N+
131.0493	2	C9H7O+
131.0604	6	C8H7N2+
131.0728	13	C9H9N+
132.0443	3	C8H6NO+
132.057	24	C9H8O+
132.0805	10	C9H10N+
133.0521	3	C8H7NO+
134.0472	25	C7H6N2O+
134.0598	11	C8H8NO+
135.055	13	C7H7N2O+
137.0385	9	C11H5+
138.0462	29	C11H6+
139.0541	858	C11H7+
140.0493	428	C10H6N+
140.0617	136	C11H8+
141.0571	78	C10H7N+
141.0697	107	C11H9+
142.0524	16	C9H6N2+
142.0649	20	C10H8N+
143.0489	4	C10H7O+
143.0731	26	C10H9N+
144.0443	3	C9H6NO+
144.0806	28	C10H10N+
145.0647	206	C10H9O+
146.0599	60	C9H8NO+
147.055	38	C8H7N2O+
149.0386	3	C12H5+
150.0463	38	C12H6+
151.0415	3	C11H5N+
151.0543	39	C12H7+
152.0493	23	C11H6N+
152.0619	249	C12H8+
153.0572	133	C11H7N+
153.0696	38	C12H9+
154.065	836	C11H8N+
155.0602	487	C10H7N2+
155.0727	40	C11H9N+
156.0571	10	
156.0805	21	C11H10N+
157.0519	3	C10H7NO+
163.0541	28	C13H7+
164.0493	116	C12H6N+
165.0451	3	C11H5N2+
165.0573	58	C12H7N+
165.0694	27	C13H9+
166.065	292	C12H8N+
167.0728	279	C12H9N+
168.0571	5	C12H8O+
168.0682	65	C11H8N2+
168.0805	36	C12H10N+
169.0646	91	C12H9O+
169.076	16	C11H9N2+
170.0598	44	C11H8NO+
171.0551	2	C10H7N2O+
176.0622	23	C14H8+
177.0571	35	C13H7N+
177.0696	2	C14H9+
178.0649	78	C13H8N+
178.0772	4	C14H10+
179.0602	125	C12H7N2+
180.0441	5	C12H6NO+
180.0555	14	C11H6N3+
180.068	35	C12H8N2+
180.0805	43	C13H10N+
181.0758	502	C12H9N2+
182.0599	197	C12H8NO+
182.0837	32	C12H10N2+
183.0676	63	C12H9NO+
184.063	38	C11H8N2O+
184.0754	44	C12H10NO+
188.0493	5	C14H6N+
189.0572	3	C14H7N+
190.0649	42	C14H8N+
191.0602	30	C13H7N2+
191.0728	13	C14H9N+
192.0679	121	C13H8N2+
193.0759	66	C13H9N2+
194.0599	14	C13H8NO+
194.0836	22	C13H10N2+
195.0552	14	C12H7N2O+
195.0677	37	C13H9NO+
195.0914	4	C13H11N2+
196.063	6	C12H8N2O+
196.0755	35	C13H10NO+
197.071	5	C12H9N2O+
204.0808	4	C15H10N+
205.0759	66	C14H9N2+
206.0598	3	C14H8NO+
206.0838	20	C14H10N2+
207.0679	11	C14H9NO+
207.0916	4	C14H11N2+
208.0629	141	C13H8N2O+
209.0708	299	C13H9N2O+
210.0786	167	C13H10N2O+
218.084	14	C15H10N2+
221.0707	40	C14H9N2O+
222.0783	3	C14H10N2O+
223.0865	12	C14H11N2O+
233.0706	11	C15H9N2O+
234.0785	51	C15H10N2O+
235.0867	3	C15H11N2O+
