Mass spectrum: Pinoxaden-TP NOA 407854; LC-ESI-QFT; MS2; CE: 120%; R=17500; [M+H]+
Name: Pinoxaden-TP NOA 407854
Name: 8-(2,6-Diethyl-4-methylphenyl)tetrahydropyrazolo(1,2-d)(1,4,5)oxadiazepine-7,9-dione
Formula: C18H24N2O3
Exact mass: 316.1787
SMILES: CCC1=CC(C)=CC(CC)=C1C1C(=O)N2CCOCCN2C1=O
InChI: InChI=1S/C18H24N2O3/c1-4-13-10-12(3)11-14(5-2)15(13)16-17(21)19-6-8-23-9-7-20(19)18(16)22/h10-11,16H,4-9H2,1-3H3
Instrument: Q Exactive Plus Orbitrap Thermo Scientific
Instrument type: LC-ESI-QFT
Ms type: MS2
Ion mode: POSITIVE
Ionization: ESI
Fragmentation mode: HCD
Collision energy: 120 % (nominal)
Resolution: 17500
Column name: XBridge C18 3.5um, 2.1x50mm, Waters
Retention time: 7.136 min
Base peak: 317.186
Precursor m/z: 317.186
Precursor type: [M+H]+
m/z	relative intensity	assigned
51.023	22	C4H3+
53.0385	52	C4H5+
56.0495	7	C3H6N+
57.0447	25	C2H5N2+
65.0386	100	C5H5+
71.0604	88	C3H7N2+
72.0444	16	C3H6NO+
77.0385	37	C6H5+
78.0464	99	C6H6+
79.0543	98	C6H7+
85.0397	48	C3H5N2O+
89.0384	39	C7H5+
90.0464	20	C7H6+
91.0543	999	C7H7+
93.0698	46	C7H9+
95.0492	145	C6H7O+
102.0464	29	C8H6+
103.0542	304	C8H7+
104.062	108	C8H8+
105.0449	80	C6H5N2+
105.0699	198	C8H9+
115.0543	807	C9H7+
116.0496	54	C8H6N+
116.062	282	C9H8+
117.0576	85	C8H7N+
117.0698	345	C9H9+
118.0651	59	C8H8N+
118.0777	22	C9H10+
119.0857	61	C9H11+
127.0543	14	C10H7+
128.0621	369	C10H8+
129.0698	313	C10H9+
130.0652	256	C9H8N+
130.0774	56	C10H10+
131.0493	29	C9H7O+
131.0731	106	C9H9N+
131.0856	288	C10H11+
132.057	17	C9H8O+
132.0808	21	C9H10N+
140.0495	22	C10H6N+
141.0585	8	C10H7N+
141.0697	90	C11H9+
142.0653	35	C10H8N+
142.0775	24	C11H10+
143.0731	69	C10H9N+
143.0859	24	C11H11+
144.0569	30	C10H8O+
144.0809	128	C10H10N+
145.065	126	C10H9O+
145.076	15	C9H9N2+
145.0888	17	C10H11N+
146.0602	31	C9H8NO+
146.0964	48	C10H12N+
153.0697	30	C12H9+
154.0651	32	C11H8N+
155.0603	61	C10H7N2+
155.0719	14	C11H9N+
156.0806	30	C11H10N+
157.065	36	C11H9O+
157.0886	16	C11H11N+
158.0604	11	C10H8NO+
158.0726	11	C11H10O+
158.0962	35	C11H12N+
159.0808	11	C11H11O+
160.0759	14	C10H10NO+
170.097	10	C12H12N+
183.0682	16	C12H9NO+
