Mass spectrum: 17a-Ethynylestradiol; LC-ESI-QFT; MS2; CE: 30; R=35000; [M+H]+
Name: 17a-Ethynylestradiol
Name: Ethinyl Estradiol
Name: 17-ethynyl-13-methyl-7,8,9,11,12,14,15,16-octahydro-6H-cyclopenta[a]phenanthrene-3,17-diol
Formula: C20H24O2
Exact mass: 296.17763
SMILES: Oc1cc4c(cc1)C3CCC2(C(CCC2(C#C)O)C3CC4)C
InChI: InChI=1S/C20H24O2/c1-3-20(22)11-9-18-17-6-4-13-12-14(21)5-7-15(13)16(17)8-10-19(18,20)2/h1,5,7,12,16-18,21-22H,4,6,8-11H2,2H3
Instrument: Q Exactive Orbitrap Thermo Scientific
Instrument type: LC-ESI-QFT
Ms type: MS2
Ion mode: POSITIVE
Ionization: ESI
Fragmentation mode: HCD
Collision energy: 30 (nominal)
Resolution: 35000
Column name: XBridge C18 3.5um, 2.1x50mm, Waters
Retention time: 10.4 min
Base peak: 279.1744
Precursor m/z: 297.1849
Precursor type: [M+H]+
m/z	relative intensity	assigned
55.0179	3	C3H3O+
55.0543	2	C4H7+
57.07	2	C4H9+
59.0492	2	C3H7O+
65.0385	1	C5H5+
67.0542	36	C5H7+
69.0699	14	C5H9+
71.049	14	C4H7O+
74.0965	2	C4H12N+
79.0542	36	C6H7+
81.0699	98	C6H9+
83.0492	10	C5H7O+
83.0855	12	C6H11+
85.0648	12	C5H9O+
91.0542	44	C7H7+
93.0699	89	C7H9+
95.049	13	C6H7O+
95.0855	79	C7H11+
97.0649	20	C6H9O+
97.1011	14	C7H13+
99.0806	4	C6H11O+
103.0542	8	C8H7+
105.07	82	C8H9+
107.0492	999	C7H7O+
107.0855	62	C8H11+
109.0648	28	C7H9O+
109.1012	120	C8H13+
111.0804	25	C7H11O+
115.054	2	C9H7+
116.062	2	C9H8+
117.0698	43	C9H9+
119.0492	8	C8H7O+
119.0855	58	C9H11+
121.0648	156	C8H9O+
121.1011	34	C9H13+
123.044	3	C7H7O2+
123.0804	33	C8H11O+
124.0882	3	C8H12O+
125.092	2	C3H13N2O3+
127.0755	15	C7H11O2+
128.0619	2	C10H8+
129.0699	10	C10H9+
131.0493	10	C9H7O+
131.0856	89	C10H11+
133.0648	281	C9H9O+
133.1012	119	C10H13+
135.0804	34	C9H11O+
135.1168	60	C10H15+
136.0884	3	C9H12O+
137.0962	95	C9H13O+
141.0702	3	C11H9+
143.0856	23	C11H11+
144.0934	11	C11H12+
145.0649	65	C10H9O+
145.1012	51	C11H13+
146.0729	1	C10H10O+
147.0805	97	C10H11O+
147.1168	28	C11H15+
149.0597	21	C9H9O2+
149.0962	25	C10H13O+
149.1326	38	C11H17+
151.1119	14	C10H15O+
155.0854	2	C12H11+
157.0649	124	C11H9O+
157.1012	16	C12H13+
159.0805	243	C11H11O+
159.1168	316	C12H15+
160.0888	3	C11H12O+
161.0969	31	C11H13O+
161.1325	9	C12H17+
163.0754	7	C10H11O2+
163.1118	12	C11H15O+
167.0859	2	C13H11+
169.0646	4	C12H9O+
169.1011	3	C13H13+
171.0804	57	C12H11O+
171.1168	48	C13H15+
172.1245	25	C13H16+
173.0965	45	C12H13O+
173.1324	55	C13H17+
175.1119	10	C12H15O+
175.1485	2	C13H19+
177.1273	31	C12H17O+
179.0854	7	C14H11+
181.0645	4	C13H9O+
183.0805	76	C13H11O+
185.0962	76	C13H13O+
185.1324	40	C14H17+
187.1119	31	C13H15O+
189.1276	24	C13H17O+
191.1429	13	C13H19O+
193.1011	3	C15H13+
195.0805	25	C14H11O+
197.0961	103	C14H13O+
198.1044	3	C14H14O+
199.1118	36	C14H15O+
201.091	4	C13H13O2+
201.1273	7	C14H17O+
203.1065	3	C13H15O2+
203.1431	11	C14H19O+
209.0962	70	C15H13O+
210.104	9	C15H14O+
211.112	43	C15H15O+
213.1275	71	C15H17O+
214.1308	107	C10H18N2O3+
215.1066	29	C14H15O2+
222.1047	2	C16H14O+
223.1118	88	C16H15O+
225.1276	28	C16H17O+
227.1432	27	C16H19O+
229.1595	20	C16H21O+
237.1275	51	C17H17O+
239.143	33	C17H19O+
240.1461	2	C12H20N2O3+
250.135	9	C18H18O+
251.1432	51	C18H19O+
251.1793	2	C19H23+
253.1589	15	C18H21O+
261.1485	2	C16H21O3+
261.1634	2	C20H21+
264.1507	4	C19H20O+
279.1745	196	C20H23O+
297.185	170	C20H25O2+
