Mass spectrum: Minocycline; LC-ESI-QFT; MS2; CE: 60; R=35000; [M-H]-
Name: Minocycline
Name: Minocin
Name: (4S,4aS,5aR,12aS)-4,7-Bis(dimethylamino)-3,10,12,12a-tetrahydroxy-1,11-dioxo-1,4,4a,5,5a,6,11,12a-octahydro-2-tetracenecarboxamide
Formula: C23H27N3O7
Exact mass: 457.18490
SMILES: [H][C@@]12CC3=C(C(O)=CC=C3N(C)C)C(=O)C1=C(O)[C@]1(O)C(=O)C(C(N)=O)=C(O)[C@@H](N(C)C)[C@]1([H])C2
InChI: InChI=1S/C23H27N3O7/c1-25(2)12-5-6-13(27)15-10(12)7-9-8-11-17(26(3)4)19(29)16(22(24)32)21(31)23(11,33)20(30)14(9)18(15)28/h5-6,9,11,17,27,29-30,33H,7-8H2,1-4H3,(H2,24,32)/t9-,11-,17-,23-/m0/s1
Instrument: Q Exactive Plus Orbitrap Thermo Scientific
Instrument type: LC-ESI-QFT
Ms type: MS2
Ion mode: NEGATIVE
Ionization: ESI
Fragmentation mode: HCD
Collision energy: 60 (nominal)
Resolution: 35000
Column name: XBridge C18 3.5um, 2.1x50mm, Waters
Retention time: 3.6 min
Base peak: 456.1772
Precursor m/z: 456.1776
Precursor type: [M-H]-
m/z	relative intensity	assigned
63.024	7	C5H3-
64.0191	1	C4H2N-
65.0032	1	C4HO-
65.9985	36	C3NO-
68.0142	7	C3H2NO-
68.9983	9	C3HO2-
71.0137	4	C3H3O2-
81.022	4	C4H3NO-
81.0345	1	C5H5O-
82.0297	1	C4H4NO-
84.009	121	C3H2NO2-
86.0247	13	C3H4NO2-
91.0188	5	C6H3O-
93.0344	11	C6H5O-
95.0138	13	C5H3O2-
96.0091	20	C4H2NO2-
96.993	13	C4HO3-
97.0294	1	C5H5O2-
99.0087	2	C4H3O3-
107.0138	6	C6H3O2-
107.0501	8	C7H7O-
107.0614	5	C6H7N2-
108.0216	1	C6H4O2-
109.0294	21	C6H5O2-
109.0409	1	C5H5N2O-
111.0087	1	C5H3O3-
111.0326	1	C5H5NO2-
118.0298	4	C7H4NO-
119.0138	23	C7H3O2-
121.0295	9	C7H5O2-
121.0535	1	C7H7NO-
122.0372	2	C7H6O2-
123.0085	1	C6H3O3-
123.045	5	C7H7O2-
124.0038	6	C5H2NO3-
124.04	1	C6H6NO2-
124.0766	1	C7H10NO-
125.0719	47	C6H9N2O-
126.0196	21	C5H4NO3-
126.0559	103	C6H8NO2-
132.0453	2	C8H6NO-
134.0248	24	C7H4NO2-
135.0087	89	C7H3O3-
135.069	11	C8H9NO-
136.0403	20	C7H6NO2-
137.0243	19	C7H5O3-
138.0322	11	C7H6O3-
139.0148	82	C5H3N2O3-
142.0143	5	C5H4NO4-
142.9984	13	C5H3O5-
145.0293	13	C9H5O2-
146.0611	15	C9H8NO-
150.0195	6	C7H4NO3-
150.0924	18	C9H12NO-
152.0351	10	C7H6NO3-
152.072	1	C8H10NO2-
153.0194	1	C7H5O4-
154.0384	13	C6H6N2O3-
154.0876	1	C8H12NO2-
157.0535	1	C10H7NO-
160.0403	89	C9H6NO2-
161.0357	2	C8H5N2O2-
162.0196	96	C8H4NO3-
163.0036	97	C8H3O4-
163.0274	11	C8H5NO3-
164.0116	14	C8H4O4-
164.0347	3	C8H6NO3-
164.0712	1	C9H10NO2-
165.0192	1	C8H5O4-
165.0303	1	C7H5N2O3-
165.043	2	C8H7NO3-
166.0873	5	C9H12NO2-
169.0253	19	C6H5N2O4-
169.0619	4	C7H9N2O3-
171.0688	1	C11H9NO-
172.0404	67	C10H6NO2-
173.0481	8	C10H7NO2-
174.0558	18	C10H8NO2-
176.035	1	C9H6NO3-
177.0305	10	C8H5N2O3-
180.0302	34	C8H6NO4-
181.0142	5	C8H5O5-
181.0378	7	C8H7NO4-
186.0284	1	C6H6N2O5-
186.0559	25	C11H8NO2-
186.0923	20	C12H12NO-
187.0638	77	C11H9NO2-
188.0352	127	C10H6NO3-
188.0716	122	C11H10NO2-
190.0509	29	C10H8NO3-
199.0634	1	C12H9NO2-
200.0714	10	C12H10NO2-
201.0437	1	C11H7NO3-
201.0792	15	C12H11NO2-
202.0508	5	C11H8NO3-
202.0873	55	C12H12NO2-
203.0588	49	C11H9NO3-
204.0301	4	C10H6NO4-
207.077	1	C10H11N2O3-
209.0842	1	C14H11NO-
209.0933	3	C10H13N2O3-
210.0559	3	C13H8NO2-
211.1001	1	C14H13NO-
212.0717	6	C13H10NO2-
213.0791	1	C13H11NO2-
214.0509	14	C12H8NO3-
214.0872	5	C13H12NO2-
215.0586	45	C12H9NO3-
215.0953	6	C13H13NO2-
216.0657	1	C12H10NO3-
216.1028	25	C13H14NO2-
218.0456	2	C11H8NO4-
221.0848	1	C15H11NO-
222.0556	1	C14H8NO2-
223.0641	1	C14H9NO2-
224.0481	10	C14H8O3-
224.0716	27	C14H10NO2-
225.0556	1	C14H9O3-
225.0794	15	C14H11NO2-
226.0876	7	C14H12NO2-
226.1234	4	C15H16NO-
227.095	21	C14H13NO2-
228.0665	1	C13H10NO3-
229.0741	3	C13H11NO3-
230.082	32	C13H12NO3-
236.0721	8	C15H10NO2-
236.1082	1	C16H14NO-
237.056	1	C15H9O3-
237.0793	25	C15H11NO2-
238.051	107	C14H8NO3-
238.0627	5	C13H8N3O2-
238.0872	15	C15H12NO2-
239.0588	7	C14H9NO3-
239.095	67	C15H13NO2-
240.0665	4	C14H10NO3-
240.1029	14	C15H14NO2-
241.0743	4	C14H11NO3-
242.0821	13	C14H12NO3-
242.1186	17	C15H16NO2-
243.0541	2	C13H9NO4-
243.0898	34	C14H13NO3-
244.0977	7	C14H14NO3-
246.0778	1	C13H12NO4-
248.0714	29	C16H10NO2-
249.0794	6	C16H11NO2-
250.0511	2	C15H8NO3-
250.0873	6	C16H12NO2-
251.0589	13	C15H9NO3-
251.0942	7	C16H13NO2-
252.0665	70	C15H10NO3-
252.1027	19	C16H14NO2-
253.0743	472	C15H11NO3-
254.0462	7	C14H8NO4-
254.083	12	C15H12NO3-
254.1183	34	C16H16NO2-
255.0538	5	C14H9NO4-
255.0899	12	C15H13NO3-
256.0975	4	C15H14NO3-
256.1578	9	C16H20N2O-
258.0766	4	C14H12NO4-
258.1133	58	C15H16NO3-
261.0795	1	C17H11NO2-
262.0871	9	C17H12NO2-
263.0712	1	C17H11O3-
263.0948	24	C17H13NO2-
264.0666	12	C16H10NO3-
264.1022	7	C17H14NO2-
265.0743	62	C16H11NO3-
266.082	45	C16H12NO3-
266.1182	7	C17H16NO2-
267.0899	85	C16H13NO3-
268.0614	65	C15H10NO4-
268.0978	229	C16H14NO3-
269.0691	14	C15H11NO4-
269.1058	5	C16H15NO3-
269.1296	2	C16H17N2O2-
270.0771	104	C15H12NO4-
270.1133	46	C16H16NO3-
271.0848	257	C15H13NO4-
272.1288	1	C16H18NO3-
274.0505	4	C17H8NO3-
275.0584	1	C17H9NO3-
276.0665	19	C17H10NO3-
276.1024	1	C18H14NO2-
277.0741	7	C17H11NO3-
278.0455	15	C16H8NO4-
278.0581	2	C17H10O4-
278.082	16	C17H12NO3-
278.1184	20	C18H16NO2-
279.0899	16	C17H13NO3-
280.0616	4	C16H10NO4-
280.0978	39	C17H14NO3-
281.0693	5	C16H11NO4-
281.1058	14	C17H15NO3-
282.077	24	C16H12NO4-
282.1134	28	C17H16NO3-
283.0847	35	C16H13NO4-
284.0923	15	C16H14NO4-
284.1283	1	C17H18NO3-
284.1533	1	C17H20N2O2-
285.1005	57	C16H15NO4-
286.1084	999	C16H16NO4-
288.0663	2	C18H10NO3-
289.0743	13	C18H11NO3-
290.082	35	C18H12NO3-
291.0542	2	C17H9NO4-
291.0898	24	C18H13NO3-
292.0614	45	C17H10NO4-
292.0971	9	C18H14NO3-
293.0692	23	C17H11NO4-
294.0409	13	C16H8NO5-
294.0771	8	C17H12NO4-
294.1131	14	C18H16NO3-
296.0567	9	C16H10NO5-
296.093	2	C17H14NO4-
296.1289	3	C18H18NO3-
297.1246	5	C17H17N2O3-
298.1082	43	C17H16NO4-
299.1161	27	C17H17NO4-
299.1403	2	C17H19N2O3-
300.1242	4	C17H18NO4-
304.0607	4	C18H10NO4-
304.0979	5	C19H14NO3-
305.0692	5	C18H11NO4-
306.077	84	C18H12NO4-
306.1142	9	C19H16NO3-
307.0849	39	C18H13NO4-
308.0564	5	C17H10NO5-
308.093	25	C18H14NO4-
309.0638	9	C17H11NO5-
309.101	4	C18H15NO4-
309.1239	7	C18H17N2O3-
310.072	10	C17H12NO5-
310.1082	1	C18H16NO4-
310.1324	5	C18H18N2O3-
311.08	9	C17H13NO5-
311.1402	2	C18H19N2O3-
312.1475	5	C18H20N2O3-
313.1193	11	C17H17N2O4-
315.1719	1	C18H23N2O3-
316.0614	4	C19H10NO4-
317.0691	4	C19H11NO4-
318.0404	1	C18H8NO5-
320.0561	14	C18H10NO5-
320.0929	4	C19H14NO4-
321.1021	1	C19H15NO4-
321.1242	3	C19H17N2O3-
322.1082	14	C19H16NO4-
324.0879	1	C18H14NO5-
326.1037	8	C18H16NO5-
328.1423	9	C18H20N2O4-
332.056	7	C19H10NO5-
333.0647	4	C19H11NO5-
334.0719	36	C19H12NO5-
335.0808	11	C19H13NO5-
335.1391	3	C20H19N2O3-
336.0509	1	C18H10NO6-
336.0881	1	C19H14NO5-
336.1471	1	C20H20N2O3-
337.0603	2	C18H11NO6-
337.12	1	C19H17N2O4-
339.171	8	C20H23N2O3-
348.0874	1	C20H14NO5-
350.1027	1	C20H16NO5-
351.1346	5	C20H19N2O4-
355.129	1	C19H19N2O5-
367.1659	2	C21H23N2O4-
371.1609	11	C20H23N2O5-
