Mass spectrum: FK-506; LC-ESI-QFT; MS2; CE: 75; R=35000; [M+H]+
Name: FK-506
Name: Tacrolimus
Name: (1R,9S,12S,13R,14S,17R,21S,23S,24R,25S,27R)-17-Allyl-1,14-dihydroxy-12-{(1E)-1-[(1R,3R,4R)-4-hydroxy-3-methoxycyclohexyl]-1-propen-2-yl}-23,25-dimethoxy-13,19,21,27-tetramethyl-11,28-dioxa-4-azatricyc lo[22.3.1.0 4,9]octacos-18-ene-2,3,10,16-tetrone
Formula: C44H69NO12
Exact mass: 803.48198
SMILES: CC1CC(C2C(CC(C(O2)(C(=O)C(=O)N3CCCCC3C(=O)OC(C(C(CC(=O)C(C=C(C1)C)CC=C)O)C)C(=CC4CCC(C(C4)OC)O)C)O)C)OC)OC
InChI: InChI=1S/C44H69NO12/c1-10-13-31-19-25(2)18-26(3)20-37(54-8)40-38(55-9)22-28(5)44(52,57-40)41(49)42(50)45-17-12-11-14-32(45)43(51)56-39(29(6)34(47)24-35(31)48)27(4)21-30-15-16-33(46)36(23-30)53-7/h10,19,21,26,28-34,36-40,46-47,52H,1,11-18,20,22-24H2,2-9H3/b25-19-,27-21+/t26-,28+,29+,30-,31+,32-,33+,34-,36+,37-,38-,39+,40+,44+/m0/s1
Instrument: Q Exactive Plus Orbitrap Thermo Scientific
Instrument type: LC-ESI-QFT
Ms type: MS2
Ion mode: POSITIVE
Ionization: ESI
Fragmentation mode: HCD
Collision energy: 75 (nominal)
Resolution: 35000
Column name: XBridge C18 3.5um, 2.1x50mm, Waters
Retention time: 15.3 min
Base peak: 279.159
Precursor m/z: 804.4893
Precursor type: [M+H]+
m/z	relative intensity	assigned
56.0495	88	C3H6N+
57.0335	8	C3H5O+
57.0699	9	C4H9+
59.0492	14	C3H7O+
63.0227	2	C5H3+
65.0386	81	C5H5+
66.0464	3	C5H6+
67.0542	318	C5H7+
69.0335	180	C4H5O+
69.0699	62	C5H9+
71.0128	42	C3H3O2+
71.0491	44	C4H7O+
73.0284	3	C3H5O2+
73.0648	2	C4H9O+
74.0965	4	C4H12N+
77.0384	24	C6H5+
78.0464	10	C6H6+
79.0542	451	C6H7+
80.0494	3	C5H6N+
80.062	3	C6H8+
81.0335	46	C5H5O+
81.0699	211	C6H9+
82.0288	10	C4H4NO+
82.0413	7	C5H6O+
82.0652	38	C5H8N+
83.0129	3	C4H3O2+
83.0491	42	C5H7O+
83.0855	7	C6H11+
84.0808	999	C5H10N+
85.0284	8	C4H5O2+
85.0648	85	C5H9O+
87.0441	1	C4H7O2+
91.0543	761	C7H7+
92.0621	8	C7H8+
93.07	328	C7H9+
94.0414	14	C6H6O+
94.0654	2	C6H8N+
94.0778	8	C7H10+
95.0492	259	C6H7O+
95.0856	126	C7H11+
96.0571	3	C6H8O+
96.0808	2	C6H10N+
97.0649	46	C6H9O+
99.044	3	C5H7O2+
99.0805	6	C6H11O+
101.0596	2	C5H9O2+
103.0543	49	C8H7+
104.0621	14	C8H8+
105.0448	75	C6H5N2+
105.0699	543	C8H9+
106.0776	3	C8H10+
107.0492	45	C7H7O+
107.0855	227	C8H11+
108.0569	15	C7H8O+
108.0809	3	C7H10N+
109.0285	746	C6H5O2+
109.0649	135	C7H9O+
110.06	23	C6H8NO+
110.0727	2	C7H10O+
110.0966	3	C7H12N+
111.0441	23	C6H7O2+
111.0805	62	C7H11O+
112.0756	2	C6H10NO+
113.0597	8	C6H9O2+
115.0543	94	C9H7+
116.0621	36	C9H8+
117.0699	177	C9H9+
118.0777	10	C9H10+
119.0493	19	C8H7O+
119.0604	23	C7H7N2+
119.0856	332	C9H11+
120.0571	2	C8H8O+
120.0809	1	C8H10N+
120.0937	3	C9H12+
121.0284	9	C7H5O2+
121.0648	82	C8H9O+
121.1012	40	C9H13+
122.0728	3	C8H10O+
122.0965	2	C8H12N+
123.044	50	C7H7O2+
123.0805	39	C8H11O+
124.0521	2	C7H8O2+
125.0237	2	C6H5O3+
125.0597	22	C7H9O2+
125.0963	1	C8H13O+
127.0389	2	C6H7O3+
127.0541	3	C10H7+
127.0749	1	C7H11O2+
128.0621	227	C10H8+
128.0705	135	C6H10NO2+
129.0699	212	C10H9+
130.0779	64	C10H10+
130.0862	44	C6H12NO2+
131.0491	11	C9H7O+
131.0856	202	C10H11+
132.057	10	C9H8O+
132.0933	7	C10H12+
133.0649	34	C9H9O+
133.1012	87	C10H13+
134.0726	2	C9H10O+
135.0441	30	C8H7O2+
135.0804	51	C9H11O+
135.1169	8	C10H15+
136.1122	17	C9H14N+
137.0236	3	C7H5O3+
137.0598	27	C8H9O2+
137.0962	9	C9H13O+
139.0392	12	C7H7O3+
139.0753	3	C8H11O2+
140.0709	2	C7H10NO2+
141.0699	129	C11H9+
142.0778	156	C11H10+
143.0856	225	C11H11+
144.057	13	C10H8O+
144.0934	40	C11H12+
145.065	43	C10H9O+
145.1013	122	C11H13+
146.0727	21	C10H10O+
146.1091	6	C11H14+
147.0805	45	C10H11O+
147.1168	23	C11H15+
148.0883	6	C10H12O+
148.1121	1	C10H14N+
149.0235	2	C8H5O3+
149.0597	14	C9H9O2+
149.0961	11	C10H13O+
150.0914	2	C9H12NO+
151.0753	11	C9H11O2+
151.1117	2	C10H15O+
152.0619	13	C12H8+
152.107	9	C9H14NO+
153.0547	3	C8H9O3+
153.07	60	C12H9+
154.0778	39	C12H10+
155.0341	13	C7H7O4+
155.0605	23	C10H7N2+
155.0856	118	C12H11+
156.0935	126	C12H12+
157.065	22	C11H9O+
157.1013	92	C12H13+
158.0728	17	C11H10O+
158.109	19	C12H14+
159.0806	42	C11H11O+
159.1169	44	C12H15+
160.0882	12	C11H12O+
160.1244	1	C12H16+
161.0599	6	C10H9O2+
161.0962	39	C11H13O+
161.1325	14	C12H17+
162.1032	1	C11H14O+
163.0755	8	C10H11O2+
163.1116	3	C11H15O+
164.1071	4	C10H14NO+
165.07	81	C13H9+
166.0777	31	C13H10+
167.0856	62	C13H11+
168.0934	38	C13H12+
169.0496	4	C8H9O4+
169.0648	3	C12H9O+
169.1013	62	C13H13+
170.0726	4	C12H10O+
170.1091	23	C13H14+
171.0805	32	C12H11O+
171.1169	45	C13H15+
172.0883	24	C12H12O+
173.0596	1	C11H9O2+
173.0963	29	C12H13O+
173.1325	16	C13H17+
174.0677	2	C11H10O2+
174.1041	4	C12H14O+
175.0753	16	C11H11O2+
175.112	10	C12H15O+
177.0915	2	C11H13O2+
178.0778	27	C14H10+
179.0703	2	C10H11O3+
179.0856	51	C14H11+
180.0935	36	C14H12+
181.0649	9	C13H9O+
181.1013	49	C14H13+
182.0726	10	C13H10O+
182.1092	14	C14H14+
182.117	4	C10H16NO2+
183.0648	1	C9H11O4+
183.0805	24	C13H11O+
183.1169	35	C14H15+
184.0884	11	C13H12O+
184.1247	1	C14H16+
185.0963	14	C13H13O+
185.1325	13	C14H17+
186.1038	7	C13H14O+
187.0599	3	C8H11O5+
187.1119	12	C13H15O+
189.0701	3	C15H9+
189.0907	5	C12H13O2+
189.1277	3	C13H17O+
190.0778	4	C15H10+
191.0855	20	C15H11+
192.0934	19	C15H12+
192.1015	5	C11H14NO2+
193.1013	43	C15H13+
194.1092	16	C15H14+
195.0804	18	C14H11O+
195.1169	26	C15H15+
196.0884	11	C14H12O+
196.1248	4	C15H16+
197.096	16	C14H13O+
197.1326	11	C15H17+
198.1039	9	C14H14O+
199.0755	2	C13H11O2+
199.1119	14	C14H15O+
200.1193	2	C14H16O+
201.1274	3	C14H17O+
202.0778	3	C16H10+
203.0857	10	C16H11+
204.0936	3	C16H12+
205.1014	17	C16H13+
206.1091	14	C16H14+
207.0802	2	C15H11O+
207.1169	23	C16H15+
208.0882	7	C15H12O+
208.1251	2	C16H16+
209.0963	15	C15H13O+
209.1329	7	C16H17+
210.1041	6	C15H14O+
210.1131	2	C11H16NO3+
211.1119	11	C15H15O+
212.1198	2	C15H16O+
213.0905	1	C14H13O2+
213.1274	2	C15H17O+
215.0861	3	C17H11+
216.0937	3	C17H12+
217.1011	14	C17H13+
218.1091	4	C17H14+
219.0803	1	C16H11O+
219.1175	12	C17H15+
220.088	2	C16H12O+
220.1237	2	C17H16+
221.0958	9	C16H13O+
221.1323	3	C17H17+
222.1046	3	C16H14O+
223.0748	2	C15H11O2+
223.112	7	C16H15O+
224.12	2	C16H16O+
225.0901	2	C15H13O2+
225.1276	4	C16H17O+
229.1019	2	C18H13+
231.1173	12	C18H15+
232.1251	4	C18H16+
233.0962	2	C17H13O+
233.1329	3	C18H17+
235.1115	6	C17H15O+
236.1196	2	C17H16O+
237.1279	3	C17H17O+
239.1071	1	C16H15O2+
245.097	2	C18H13O+
247.1476	1	C19H19+
249.1275	2	C18H17O+
251.1073	1	C17H15O2+
252.1137	2	C17H16O2+
