Mass spectrum: Ofloxacin; LC-ESI-QFT; MS2; CE: 15; R=35000; [M+H]+
Name: Ofloxacin
Name: DL-8280
Formula: C18H20FN3O4
Exact mass: 361.14378
SMILES: Fc4cc1c2N(/C=C(\C1=O)C(=O)O)C(COc2c4N3CCN(C)CC3)C
InChI: InChI=1S/C18H20FN3O4/c1-10-9-26-17-14-11(16(23)12(18(24)25)8-22(10)14)7-13(19)15(17)21-5-3-20(2)4-6-21/h7-8,10H,3-6,9H2,1-2H3,(H,24,25)
Instrument: Q Exactive Orbitrap Thermo Scientific
Instrument type: LC-ESI-QFT
Ms type: MS2
Ion mode: POSITIVE
Ionization: ESI
Fragmentation mode: HCD
Collision energy: 15 (nominal)
Resolution: 35000
Column name: XBridge C18 3.5um, 2.1x50mm, Waters
Retention time: 4.1 min
Base peak: 362.151
Precursor m/z: 362.1511
Precursor type: [M+H]+
m/z	relative intensity	assigned
261.1033	5	C14H14FN2O2+
318.1612	101	C17H21FN3O2+
362.1509	999	C18H21FN3O4+
