Mass spectrum: Lamotrigine; LC-ESI-ITFT; MS2; CE: 60%; R=15000; [M+H]+
Name: Lamotrigine
Name: 6-(2,3-dichlorophenyl)-1,2,4-triazine-3,5-diamine
Formula: C9H7Cl2N5
Exact mass: 255.0079
SMILES: Cl-c(ccc1)c(Cl)c1-c(nnc2N)c(n2)N
InChI: InChI=1S/C9H7Cl2N5/c10-5-3-1-2-4(6(5)11)7-8(12)14-9(13)16-15-7/h1-3H,(H4,12,13,14,16)
Instrument: LTQ Orbitrap XL Thermo Scientific
Instrument type: LC-ESI-ITFT
Ms type: MS2
Ion mode: POSITIVE
Ionization: ESI
Fragmentation mode: HCD
Collision energy: 60 % (nominal)
Resolution: 15000
Column name: XBridge C18 3.5um, 2.1x50mm, Waters
Retention time: 5.4 min
Base peak: 256.016
Precursor m/z: 256.0151
Precursor type: [M+H]+
m/z	relative intensity	assigned
58.04	18	CH4N3+
122.9997	11	C7H4Cl+
138.0106	2	C7H5ClN+
146.976	2	C6H5Cl2+
150.0104	5	C8H5ClN+
151.0183	35	C8H6ClN+
152.0135	7	C7H5ClN2+
156.9606	39	C7H3Cl2+
158.9763	70	C7H5Cl2+
159.9716	4	C6H4Cl2N+
165.0214	51	C8H6ClN2+
166.0292	79	C8H7ClN2+
171.9715	88	C7H4Cl2N+
172.9671	6	C6H3Cl2N2+
173.9872	31	C7H6Cl2N+
178.0165	12	C8H5ClN3+
179.0243	7	C8H6ClN3+
183.9716	44	C8H4Cl2N+
185.9872	33	C8H6Cl2N+
186.9824	83	C7H5Cl2N2+
193.0401	10	C9H8ClN3+
196.9669	9	C8H3Cl2N2+
210.9824	156	C9H5Cl2N2+
211.9779	26	C8H4Cl2N3+
213.993	12	C8H6Cl2N3+
220.0383	45	C9H7ClN5+
221.046	4	C9H8ClN5+
229.0041	33	C8H7Cl2N4+
238.9882	3	C9H5Cl2N4+
256.0153	999	C9H8Cl2N5+
