Mass spectrum: Diprogulic Acid; LC-ESI-QFT; MS2; CE: 30%; R=17500; [M+H]+
Name: Diprogulic Acid
Name: (-)-Diacetone-2-keto-L-gulonic acid monohydrate
Name: 4,4,11,11-tetramethyl-3,5,7,10,12-pentaoxatricyclo[6.4.0.02,6]dodecane-6-carboxylic acid
Formula: C12H18O7
Exact mass: 274.1053
SMILES: CC1(OCC2C(O1)C3C(O2)(OC(O3)(C)C)C(=O)O)C
InChI: InChI=1S/C12H18O7/c1-10(2)15-5-6-7(17-10)8-12(16-6,9(13)14)19-11(3,4)18-8/h6-8H,5H2,1-4H3,(H,13,14)
Instrument: Exploris 240 Orbitrap Thermo Scientific
Instrument type: LC-ESI-QFT
Ms type: MS2
Ion mode: POSITIVE
Ionization: ESI
Fragmentation mode: HCD
Collision energy: 30 % (nominal)
Resolution: 17500
Column name: XBridge C18 3.5um, 2.1x50mm, Waters
Retention time: 4.742 min
Base peak: 275.1123
Precursor m/z: 275.1125
Precursor type: [M+H]+
m/z	relative intensity	assigned
57.0335	62	C3H5O+
59.0491	999	C3H7O+
69.0334	117	C4H5O+
71.0128	9	C3H3O2+
73.0283	17	C3H5O2+
85.0283	83	C4H5O2+
87.0077	28	C3H3O3+
95.0127	35	C5H3O2+
97.0283	240	C5H5O2+
103.0388	38	C4H7O3+
113.0231	49	C5H5O3+
115.0024	29	C4H3O4+
115.0387	18	C5H7O3+
127.0387	20	C6H7O3+
129.0181	25	C5H5O4+
131.0336	33	C5H7O4+
131.0705	12	C6H11O3+
141.0181	169	C6H5O4+
145.0495	33	C6H9O4+
159.0287	393	C6H7O5+
171.0646	36	C8H11O4+
217.0706	213	C9H13O6+
