Mass spectrum: Diprogulic Acid; LC-ESI-QFT; MS2; CE: 60%; R=17500; [M-H]-
Name: Diprogulic Acid
Name: (-)-Diacetone-2-keto-L-gulonic acid monohydrate
Name: 4,4,11,11-tetramethyl-3,5,7,10,12-pentaoxatricyclo[6.4.0.02,6]dodecane-6-carboxylic acid
Formula: C12H18O7
Exact mass: 274.1053
SMILES: CC1(OCC2C(O1)C3C(O2)(OC(O3)(C)C)C(=O)O)C
InChI: InChI=1S/C12H18O7/c1-10(2)15-5-6-7(17-10)8-12(16-6,9(13)14)19-11(3,4)18-8/h6-8H,5H2,1-4H3,(H,13,14)
Instrument: Exploris 240 Orbitrap Thermo Scientific
Instrument type: LC-ESI-QFT
Ms type: MS2
Ion mode: NEGATIVE
Ionization: ESI
Fragmentation mode: HCD
Collision energy: 60 % (nominal)
Resolution: 17500
Column name: XBridge C18 3.5um, 2.1x50mm, Waters
Retention time: 4.753 min
Base peak: 273.0978
Precursor m/z: 273.098
Precursor type: [M-H]-
m/z	relative intensity	assigned
55.0189	79	C3H3O-
57.0346	7	C3H5O-
71.0136	10	C3H3O2-
72.993	5	C2HO3-
73.0293	6	C3H5O2-
83.0138	999	C4H3O2-
95.0134	5	C5H3O2-
