Mass spectrum: Imatinib; LC-ESI-QFT; MS2; CE: 75; R=35000; [M+H]+
Name: Imatinib
Name: 4-[(4-methylpiperazin-1-yl)methyl]-N-[4-methyl-3-[(4-pyridin-3-ylpyrimidin-2-yl)amino]phenyl]benzamide
Formula: C29H31N7O
Exact mass: 493.25901
SMILES: CC1=C(C=C(C=C1)NC(=O)C2=CC=C(C=C2)CN3CCN(CC3)C)NC4=NC=CC(=N4)C5=CN=CC=C5
InChI: InChI=1S/C29H31N7O/c1-21-5-10-25(18-27(21)34-29-31-13-11-26(33-29)24-4-3-12-30-19-24)32-28(37)23-8-6-22(7-9-23)20-36-16-14-35(2)15-17-36/h3-13,18-19H,14-17,20H2,1-2H3,(H,32,37)(H,31,33,34)
Instrument: Q Exactive Plus Orbitrap Thermo Scientific
Instrument type: LC-ESI-QFT
Ms type: MS2
Ion mode: POSITIVE
Ionization: ESI
Fragmentation mode: HCD
Collision energy: 75 (nominal)
Resolution: 35000
Column name: XBridge C18 3.5um, 2.1x50mm, Waters
Retention time: 5.8 min
Base peak: 247.6364
Precursor m/z: 494.2663
Precursor type: [M+H]+
m/z	relative intensity	assigned
50.015	2	C4H2+
51.0229	2	C4H3+
52.0182	16	C3H2N+
53.0386	9	C4H5+
54.0338	1	C3H4N+
55.0416	1	C3H5N+
56.0495	145	C3H6N+
57.0573	5	C3H7N+
58.0651	318	C3H8N+
63.0229	1	C5H3+
65.0385	22	C5H5+
66.0464	59	C5H6+
67.0417	1	C4H5N+
67.0542	1	C5H7+
68.0256	1	C4H4O+
68.0495	11	C4H6N+
69.0447	4	C3H5N2+
69.0573	1	C4H7N+
70.0651	317	C4H8N+
71.0604	1	C3H7N2+
71.073	1	C4H9N+
72.0807	28	C4H10N+
77.0384	7	C6H5+
78.0338	30	C5H4N+
79.0415	4	C5H5N+
79.0542	4	C6H7+
80.0494	47	C5H6N+
82.0525	6	C4H6N2+
82.0651	17	C5H8N+
83.0603	38	C4H7N2+
84.0682	48	C4H8N2+
89.0386	40	C7H5+
90.0464	120	C7H6+
91.0542	149	C7H7+
92.0495	4	C6H6N+
93.0337	1	C6H5O+
93.07	1	C7H9+
94.0412	2	C6H6O+
94.0651	8	C6H8N+
95.0491	25	C6H7O+
96.0444	28	C5H6NO+
96.0681	3	C5H8N2+
97.076	53	C5H9N2+
98.0838	88	C5H10N2+
99.0917	74	C5H11N2+
101.1074	5	C5H13N2+
103.0542	25	C8H7+
104.0494	163	C7H6N+
105.0335	93	C7H5O+
105.0447	99	C6H5N2+
105.0699	7	C8H9+
106.0651	7	C7H8N+
107.0491	5	C7H7O+
109.0648	17	C7H9O+
109.0761	5	C6H9N2+
110.0599	1	C6H8NO+
111.0916	33	C6H11N2+
112.0995	8	C6H12N2+
115.0542	7	C9H7+
116.0496	4	C8H6N+
117.0572	20	C8H7N+
117.0699	2	C9H9+
118.0413	97	C8H6O+
118.065	18	C8H8N+
119.0491	123	C8H7O+
119.0604	52	C7H7N2+
121.076	36	C7H9N2+
122.0362	39	C7H6O2+
128.062	5	C10H8+
129.0447	10	C8H5N2+
129.0573	11	C9H7N+
129.0699	1	C10H9+
130.0401	1	C7H4N3+
130.0526	4	C8H6N2+
130.0651	23	C9H8N+
131.0493	73	C9H7O+
131.0604	313	C8H7N2+
132.0443	23	C8H6NO+
132.0682	40	C8H8N2+
132.0806	11	C9H10N+
133.0763	4	C8H9N2+
134.06	1	C8H8NO+
135.0916	4	C8H11N2+
139.054	1	C11H7+
141.07	2	C11H9+
142.0654	1	C10H8N+
144.0558	2	C8H6N3+
144.081	2	C10H10N+
145.0647	2	C10H9O+
145.0759	4	C9H9N2+
146.06	7	C9H8NO+
146.0712	19	C8H8N3+
146.0965	4	C10H12N+
147.0553	4	C8H7N2O+
149.1075	1	C9H13N2+
152.0619	52	C12H8+
153.0572	1	C11H7N+
153.0698	8	C12H9+
154.0651	6	C11H8N+
154.0779	2	C12H10+
155.0603	1	C10H7N2+
156.0556	49	C9H6N3+
157.0635	2	C9H7N3+
158.0601	21	C10H8NO+
158.0711	19	C9H8N3+
160.0758	6	C10H10NO+
161.0473	9	C9H7NO2+
163.0628	1	C9H9NO2+
165.0699	83	C13H9+
166.0652	12	C12H8N+
166.0777	13	C13H10+
167.0735	14	C12H9N+
167.0855	58	C13H11+
168.0808	9	C12H10N+
169.0647	8	C12H9O+
169.0886	4	C12H11N+
170.0716	2	C10H8N3+
171.0664	11	C9H7N4+
171.0791	7	C10H9N3+
172.0745	2	C9H8N4+
173.0822	33	C9H9N4+
174.0662	47	C9H8N3O+
174.0916	5	C11H12NO+
174.1153	2	C11H14N2+
176.0622	15	C14H8+
177.0577	12	C13H7N+
177.0698	32	C14H9+
178.0656	24	C13H8N+
178.0776	82	C14H10+
179.0604	4	C12H7N2+
179.0729	78	C13H9N+
179.0852	39	C14H11+
180.0807	33	C13H10N+
180.0931	3	C14H12+
181.0648	2	C13H9O+
181.0763	1	C12H9N2+
181.0888	4	C13H11N+
182.0602	6	C12H8NO+
182.0724	2	C13H10O+
182.0965	7	C13H12N+
183.0677	4	C12H9NO+
183.1045	2	C13H13N+
185.0825	4	C10H9N4+
189.139	1	C12H17N2+
190.065	21	C14H8N+
191.0729	21	C14H9N+
192.0808	54	C14H10N+
193.0886	74	C14H11N+
194.0965	332	C14H12N+
195.0806	21	C14H11O+
195.0917	23	C13H11N2+
195.1043	20	C14H13N+
196.0757	15	C13H10NO+
196.0995	6	C13H12N2+
197.0833	19	C13H11NO+
202.0652	6	C15H8N+
203.0729	33	C15H9N+
204.0685	17	C14H8N2+
204.0809	76	C15H10N+
205.0763	50	C14H9N2+
205.0887	48	C15H11N+
206.0602	19	C14H8NO+
206.0839	138	C14H10N2+
207.0678	49	C14H9NO+
207.092	2	C14H11N2+
208.0757	60	C14H10NO+
209.0824	5	C12H9N4+
209.1073	43	C14H13N2+
210.0914	25	C14H12NO+
210.1152	24	C14H14N2+
211.0988	4	C14H13NO+
212.1072	1	C14H14NO+
216.0682	12	C15H8N2+
217.0756	7	C15H9N2+
218.084	41	C15H10N2+
219.0917	271	C15H11N2+
220.0759	93	C15H10NO+
220.0865	5	C14H10N3+
220.0991	34	C15H12N2+
221.0712	10	C14H9N2O+
221.0834	26	C15H11NO+
221.095	12	C14H11N3+
221.1069	26	C15H13N2+
222.0914	521	C15H12NO+
223.0869	33	C14H11N2O+
223.0992	110	C15H13NO+
224.0943	9	C14H12N2O+
224.1048	1	C13H12N4+
228.0685	2	C16H8N2+
229.0758	24	C16H9N2+
230.0838	6	C16H10N2+
231.0557	4	C15H7N2O+
231.0794	14	C15H9N3+
231.092	8	C16H11N2+
232.0632	94	C15H8N2O+
233.071	15	C15H9N2O+
233.082	2	C14H9N4+
233.0948	2	C15H11N3+
233.1076	2	C16H13N2+
234.0788	16	C15H10N2O+
234.0902	20	C14H10N4+
234.1028	11	C15H12N3+
235.0865	6	C15H11N2O+
235.0982	6	C14H11N4+
235.1105	1	C15H13N3+
235.123	2	C16H15N2+
236.1184	7	C15H14N3+
237.1023	90	C15H13N2O+
238.1101	127	C15H14N2O+
241.0638	1	C16H7N3+
243.0924	3	C17H11N2+
244.0871	6	C16H10N3+
245.0709	8	C16H9N2O+
245.0826	7	C15H9N4+
245.0954	4	C16H11N3+
245.1078	6	C17H13N2+
246.0788	23	C16H10N2O+
246.0903	12	C15H10N4+
246.1028	18	C16H12N3+
247.0866	741	C16H11N2O+
248.0821	4	C15H10N3O+
248.0943	32	C16H12N2O+
248.1062	2	C15H12N4+
249.0897	52	C15H11N3O+
249.1022	20	C16H13N2O+
249.1139	9	C15H13N4+
251.0815	2	C15H11N2O2+
255.0793	1	C17H9N3+
255.0915	1	C18H11N2+
256.0873	6	C17H10N3+
257.0945	7	C17H11N3+
258.0784	4	C17H10N2O+
258.0904	1	C16H10N4+
258.1025	2	C17H12N3+
259.0759	16	C18H11O2+
259.0978	80	C16H11N4+
260.0821	7	C16H10N3O+
260.0935	3	C15H10N5+
260.1057	13	C16H12N4+
261.101	68	C15H11N5+
261.1137	27	C16H13N4+
262.098	10	C16H12N3O+
262.1088	10	C15H12N5+
262.1343	4	C17H16N3+
263.0936	1	C15H11N4O+
263.1055	3	C16H13N3O+
263.1178	30	C17H15N2O+
264.1131	117	C16H14N3O+
265.0972	146	C16H13N2O2+
270.1025	2	C18H12N3+
271.1103	5	C18H13N3+
272.0818	6	C17H10N3O+
272.0945	1	C18H12N2O+
272.1187	4	C18H14N3+
273.0897	5	C17H11N3O+
273.1026	6	C18H13N2O+
274.0968	59	C17H12N3O+
274.1093	12	C16H12N5+
275.1042	8	C15H11N6+
275.1171	6	C18H15N2O+
276.1244	34	C16H14N5+
283.0973	2	C18H11N4+
288.0883	4	C16H10N5O+
288.113	5	C18H14N3O+
290.1292	8	C18H16N3O+
297.1129	1	C19H13N4+
301.1084	4	C18H13N4O+
304.1193	1	C17H14N5O+
305.0942	1	C21H11N3+
307.1111	5	C21H13N3+
308.1188	6	C23H16O+
309.113	4	C20H13N4+
309.1287	1	C23H17O+
321.1131	5	C21H13N4+
323.1297	12	C21H15N4+
324.1518	1	C24H20O+
332.1193	4	C23H14N3+
333.1124	25	C22H13N4+
335.1301	27	C24H17NO+
336.1392	5	C24H18NO+
337.1063	3	C19H11N7+
337.1446	13	C22H17N4+
338.1299	2	C22H16N3O+
339.1235	2	C21H15N4O+
339.1604	1	C22H19N4+
346.1091	9	C22H12N5+
347.1296	13	C23H15N4+
349.1078	3	C22H13N4O+
350.1397	95	C24H18N2O+
351.124	40	C22H15N4O+
351.1478	39	C22H17N5+
352.1454	1	C23H18N3O+
359.1164	6	C23H13N5+
360.1244	100	C23H14N5+
361.1083	13	C23H13N4O+
361.1325	21	C23H15N5+
362.1162	8	C23H14N4O+
364.1194	18	C22H14N5O+
364.1558	14	C23H18N5+
365.1636	15	C23H19N5+
366.1711	8	C23H20N5+
374.1399	13	C24H16N5+
375.1242	6	C24H15N4O+
375.1469	2	C24H17N5+
376.1194	5	C23H14N5O+
376.1549	11	C24H18N5+
377.1256	9	C23H15N5O+
378.1352	999	C23H16N5O+
379.1424	24	C23H17N5O+
392.1507	6	C24H18N5O+
394.1664	1	C24H20N5O+
