Mass spectrum: Benzenesulfonamide; LC-ESI-QFT; MS2; CE: 60; R=35000; [M-H]-
Name: Benzenesulfonamide
Name: Benzenesulfonimidic acid
Formula: C6H7NO2S
Exact mass: 157.01975
SMILES: c1ccc(cc1)S(=N)(=O)O
InChI: InChI=1S/C6H7NO2S/c7-10(8,9)6-4-2-1-3-5-6/h1-5H,(H2,7,8,9)
Instrument: Q Exactive Plus Orbitrap Thermo Scientific
Instrument type: LC-ESI-QFT
Ms type: MS2
Ion mode: NEGATIVE
Ionization: ESI
Fragmentation mode: HCD
Collision energy: 60 (nominal)
Resolution: 35000
Column name: XBridge C18 3.5um, 2.1x50mm, Waters
Retention time: 3.0 min
Base peak: 190.9282
Precursor m/z: 156.0125
Precursor type: [M-H]-
m/z	relative intensity	assigned
61.9706	44	NOS-
61.9884	5	NO3-
63.9624	19	O2S-
77.9655	27	NO2S-
78.9733	154	HNO2S-
79.9812	193	H2NO2S-
80.9651	13	HO3S-
92.0506	999	C6H6N-
93.0346	23	C6H5O-
93.9604	102	NO3S-
156.0126	312	C6H6NO2S-
156.9966	10	C6H5O3S-
