Mass spectrum: Exemestane; LC-ESI-ITFT; MS2; CE: 90%; R=30000; [M+H]+
Name: Exemestane
Name: (8R,9S,10R,13S,14S)-10,13-dimethyl-6-methylene-7,8,9,11,12,14,15,16-octahydrocyclopenta[a]phenanthrene-3,17-dione
Formula: C20H24O2
Exact mass: 296.1776
SMILES: CC12CCC3C(C1CCC2=O)CC(=C)C4=CC(=O)C=CC34C
InChI: InChI=1S/C20H24O2/c1-12-10-14-15-4-5-18(22)20(15,3)9-7-16(14)19(2)8-6-13(21)11-17(12)19/h6,8,11,14-16H,1,4-5,7,9-10H2,2-3H3/t14-,15-,16-,19+,20-/m0/s1
Instrument: LTQ Orbitrap XL Thermo Scientific
Instrument type: LC-ESI-ITFT
Ms type: MS2
Ion mode: POSITIVE
Ionization: ESI
Fragmentation mode: HCD
Collision energy: 90 % (nominal)
Resolution: 30000
Column name: XBridge C18 3.5um, 2.1x50mm, Waters
Retention time: 10.1 min
Base peak: 297.1859
Precursor m/z: 297.1849
Precursor type: [M+H]+
m/z	relative intensity	assigned
53.0385	36	C4H5+
67.0542	122	C5H7+
77.0386	231	C6H5+
79.0542	830	C6H7+
81.0699	127	C6H9+
91.0542	999	C7H7+
93.0699	821	C7H9+
95.0491	51	C6H7O+
95.0855	43	C7H11+
97.0646	75	C6H9O+
103.0543	98	C8H7+
105.0446	51	C6H5N2+
105.0699	698	C8H9+
107.0492	84	C7H7O+
107.0855	279	C8H11+
109.0649	30	C7H9O+
115.0542	168	C9H7+
116.0621	64	C9H8+
117.07	161	C9H9+
119.0605	52	C7H7N2+
119.0855	223	C9H11+
121.0648	641	C8H9O+
121.1012	111	C9H13+
128.0621	110	C10H8+
129.0698	106	C10H9+
130.0777	80	C10H10+
131.0856	94	C10H11+
132.057	104	C9H8O+
133.0647	39	C9H9O+
135.0803	69	C9H11O+
141.0699	56	C11H9+
142.0775	37	C11H10+
143.0853	63	C11H11+
145.0648	65	C10H9O+
145.1012	40	C11H13+
146.0724	56	C10H10O+
147.0804	35	C10H11O+
149.096	41	C10H13O+
158.0726	80	C11H10O+
159.0807	42	C11H11O+
165.0698	33	C13H9+
