Mass spectrum: 5-Hydroxy Diclofenac; LC-ESI-QFT; MS2; CE: 90; R=35000; [M-H]-
Name: 5-Hydroxy Diclofenac
Name: 5-hydroxydiclofenac
Name: 2-[2-(2,6-dichloroanilino)-5-hydroxyphenyl]acetic acid
Formula: C14H11Cl2NO3
Exact mass: 311.01160
SMILES: C1=CC(=C(C(=C1)Cl)NC2=C(C=C(C=C2)O)CC(=O)O)Cl
InChI: InChI=1S/C14H11Cl2NO3/c15-10-2-1-3-11(16)14(10)17-12-5-4-9(18)6-8(12)7-13(19)20/h1-6,17-18H,7H2,(H,19,20)
Instrument: Q Exactive Plus Orbitrap Thermo Scientific
Instrument type: LC-ESI-QFT
Ms type: MS2
Ion mode: NEGATIVE
Ionization: ESI
Fragmentation mode: HCD
Collision energy: 90 (nominal)
Resolution: 35000
Column name: XBridge C18 3.5um, 2.1x50mm, Waters
Retention time: 10.4 min
Base peak: 310.0042
Precursor m/z: 310.0043
Precursor type: [M-H]-
m/z	relative intensity	assigned
90.0351	19	C6H4N-
123.9958	190	C6H3ClN-
140.0503	45	C10H6N-
151.0425	56	C11H5N-
164.0508	93	C12H6N-
166.0661	354	C12H8N-
167.0499	235	C12H7O-
179.0378	201	C12H5NO-
192.0456	999	C13H6NO-
193.0532	455	C13H7NO-
194.0611	220	C13H8NO-
228.0219	56	C13H7ClNO-
