Mass spectrum: Spinetoram L; LC-ESI-QFT; MS2; CE: 60%; R=17500; [M+H]+
Name: Spinetoram L
Name: 3-Ethoxy-spinosyn L
Name: 15-[5-(dimethylamino)-6-methyloxan-2-yl]oxy-7-(4-ethoxy-3,5-dimethoxy-6-methyloxan-2-yl)oxy-19-ethyl-4,14-dimethyl-20-oxatetracyclo[10.10.0.02,10.05,9]docosa-3,11-diene-13,21-dione
Formula: C43H69NO10
Exact mass: 759.4921
SMILES: CCC1CCCC(C(C(=O)C2=CC3C4CC(CC4C(=CC3C2CC(=O)O1)C)OC5C(C(C(C(O5)C)OC)OCC)OC)C)OC6CCC(C(O6)C)N(C)C
InChI: InChI=1S/C43H69NO10/c1-11-27-14-13-15-36(54-38-17-16-35(44(7)8)25(5)50-38)24(4)39(46)34-21-32-30(33(34)22-37(45)52-27)18-23(3)29-19-28(20-31(29)32)53-43-42(48-10)41(49-12-2)40(47-9)26(6)51-43/h18,21,24-33,35-36,38,40-43H,11-17,19-20,22H2,1-10H3
Instrument: Exploris 240 Orbitrap Thermo Scientific
Instrument type: LC-ESI-QFT
Ms type: MS2
Ion mode: POSITIVE
Ionization: ESI
Fragmentation mode: HCD
Collision energy: 60 % (nominal)
Resolution: 17500
Column name: XBridge C18 3.5um, 2.1x50mm, Waters
Retention time: 12.856 min
Base peak: 760.5001
Precursor m/z: 760.4994
Precursor type: [M+H]+
m/z	relative intensity	assigned
81.0701	23	C6H9+
83.0492	47	C5H7O+
83.0856	29	C6H11+
84.0809	11	C5H10N+
85.0286	10	C4H5O2+
85.0648	36	C5H9O+
85.0886	12	C5H11N+
87.0441	66	C4H7O2+
89.0596	6	C4H9O2+
95.0491	21	C6H7O+
95.0857	24	C7H11+
97.0648	314	C6H9O+
98.0965	999	C6H12N+
99.0441	90	C5H7O2+
99.0805	157	C6H11O+
101.0594	24	C5H9O2+
103.0749	5	C5H11O2+
111.044	19	C6H7O2+
112.1122	6	C7H14N+
113.0595	8	C6H9O2+
115.0756	67	C6H11O2+
124.1121	29	C8H14N+
125.0596	55	C7H9O2+
127.0752	19	C7H11O2+
129.0912	8	C7H13O2+
142.1227	779	C8H16NO+
155.0857	9	C12H11+
157.0856	5	C8H13O3+
167.0854	20	C13H11+
168.0935	11	C13H12+
169.1012	33	C13H13+
183.1167	22	C14H15+
211.112	21	C15H15O+
