Mass spectrum: Varenicline; LC-ESI-QFT; MS2; CE: 120; R=35000; [M+H]+
Name: Varenicline
Name: 7,8,9,10-tetrahydro-6h-6,10-methanoazepino[4,5-g]quinoxaline
Name: 7,8,9,10-tetrahydro-6,10-Methano-6H-pyrazino[2,3-h][3]benzazepine
Formula: C13H13N3
Exact mass: 211.11095
SMILES: C1C2CNCC1C3=CC4=NC=CN=C4C=C23
InChI: InChI=1S/C13H13N3/c1-2-16-13-5-11-9-3-8(6-14-7-9)10(11)4-12(13)15-1/h1-2,4-5,8-9,14H,3,6-7H2
Instrument: Q Exactive Plus Orbitrap Thermo Scientific
Instrument type: LC-ESI-QFT
Ms type: MS2
Ion mode: POSITIVE
Ionization: ESI
Fragmentation mode: HCD
Collision energy: 120 (nominal)
Resolution: 35000
Column name: XBridge C18 3.5um, 2.1x50mm, Waters
Retention time: 2.7 min
Base peak: 212.118
Precursor m/z: 212.1182
Precursor type: [M+H]+
m/z	relative intensity	assigned
50.015	1	C4H2+
51.0229	1	C4H3+
53.0386	1	C4H5+
62.0149	1	C5H2+
63.0227	9	C5H3+
65.0386	13	C5H5+
68.0495	1	C4H6N+
75.0228	1	C6H3+
76.0308	1	C6H4+
77.0385	3	C6H5+
88.0308	4	C7H4+
89.0386	29	C7H5+
90.0465	38	C7H6+
91.0543	33	C7H7+
92.0495	1	C6H6N+
95.0492	5	C6H7O+
102.0338	4	C7H4N+
102.0465	7	C8H6+
103.0542	15	C8H7+
105.0449	1	C6H5N2+
105.0699	1	C8H9+
113.0385	15	C9H5+
114.0465	123	C9H6+
115.0543	748	C9H7+
116.0495	48	C8H6N+
117.0336	5	C8H5O+
117.0448	5	C7H5N2+
117.0573	7	C8H7N+
117.07	1	C9H9+
118.0413	27	C8H6O+
118.0526	8	C7H6N2+
119.0493	1	C8H7O+
120.0445	3	C7H6NO+
125.0386	4	C10H5+
126.0465	372	C10H6+
127.0418	1	C9H5N+
127.0543	27	C10H7+
128.0495	38	C9H6N+
128.0621	124	C10H8+
129.0447	8	C8H5N2+
129.0572	9	C9H7N+
129.0699	32	C10H9+
130.0406	1	C7H4N3+
130.0652	6	C9H8N+
131.0496	1	C9H7O+
131.0604	1	C8H7N2+
132.057	57	C9H8O+
133.0647	12	C9H9O+
134.0601	6	C8H8NO+
135.0554	1	C7H7N2O+
139.0543	33	C11H7+
140.0495	73	C10H6N+
140.062	30	C11H8+
141.0574	141	C10H7N+
141.0699	183	C11H9+
142.0528	23	C9H6N2+
142.0652	38	C10H8N+
143.0605	119	C9H7N2+
144.0568	1	C10H8O+
145.0649	28	C10H9O+
146.0601	12	C9H8NO+
147.0806	5	C10H11O+
152.0495	9	C11H6N+
153.0574	95	C11H7N+
154.0652	45	C11H8N+
155.0604	93	C10H7N2+
155.0726	8	C11H9N+
156.0683	12	C10H8N2+
156.0808	10	C11H10N+
157.0524	5	C10H7NO+
157.0761	20	C10H9N2+
159.0805	27	C11H11O+
160.0759	1	C10H10NO+
161.071	12	C9H9N2O+
166.0653	29	C12H8N+
167.0606	49	C11H7N2+
167.0729	35	C12H9N+
168.0683	999	C11H8N2+
169.0761	296	C11H9N2+
170.0602	11	C11H8NO+
170.0837	6	C11H10N2+
171.0918	19	C11H11N2+
179.0605	27	C12H7N2+
180.0555	8	C11H6N3+
180.0682	144	C12H8N2+
181.0761	140	C12H9N2+
182.0713	3	C11H8N3+
182.0839	68	C12H10N2+
183.0918	34	C12H11N2+
185.0711	1	C11H9N2O+
192.0681	16	C13H8N2+
193.0762	72	C13H9N2+
194.084	25	C13H10N2+
195.0918	13	C13H11N2+
