Mass spectrum: Antipyrine; LC-ESI-ITFT; MS2; CE: 45%; R=15000; [M+H]+
Name: Antipyrine
Name: Phenazone
Name: 1,5-dimethyl-2-phenyl-3-pyrazolone
Formula: C11H12N2O
Exact mass: 188.0950
SMILES: CN1N(C(=O)C=C1C)C2=CC=CC=C2
InChI: InChI=1S/C11H12N2O/c1-9-8-11(14)13(12(9)2)10-6-4-3-5-7-10/h3-8H,1-2H3
Instrument: LTQ Orbitrap XL Thermo Scientific
Instrument type: LC-ESI-ITFT
Ms type: MS2
Ion mode: POSITIVE
Ionization: ESI
Fragmentation mode: HCD
Collision energy: 45 % (nominal)
Resolution: 15000
Column name: XBridge C18 3.5um, 2.1x50mm, Waters
Retention time: 4.6 min
Base peak: 189.1027
Precursor m/z: 189.1022
Precursor type: [M+H]+
m/z	relative intensity	assigned
56.0494	7	C3H6N+
58.0651	6	C3H8N+
70.0653	1	C4H8N+
77.0382	1	C6H5+
91.0543	3	C7H7+
96.0683	3	C5H8N2+
104.0494	7	C7H6N+
105.0336	1	C7H5O+
106.0652	2	C7H8N+
117.0575	1	C8H7N+
117.0699	1	C9H9+
118.0652	5	C8H8N+
120.0807	4	C8H10N+
130.0652	6	C9H8N+
131.073	11	C9H9N+
132.0808	5	C9H10N+
133.0757	2	C8H9N2+
134.0964	1	C9H12N+
135.0557	1	C7H7N2O+
144.0808	12	C10H10N+
145.0647	4	C10H9O+
146.0838	11	C9H10N2+
146.0964	4	C10H12N+
147.0917	22	C9H11N2+
148.0758	3	C9H10NO+
149.0709	1	C8H9N2O+
157.0524	1	C10H7NO+
161.1073	30	C10H13N2+
172.0756	4	C11H10NO+
174.0788	12	C10H10N2O+
189.1023	999	C11H13N2O+
