Mass spectrum: Foramsulfuron; LC-ESI-ITFT; MS2; CE: 90%; R=7500; [M+H]+
Name: Foramsulfuron
Name: 2-[(4,6-dimethoxypyrimidin-2-yl)carbamoylsulfamoyl]-4-formamido-N,N-dimethyl-benzamide
Formula: C17H20N6O7S
Exact mass: 452.1114
SMILES: O=C(Nc1nc(OC)cc(OC)n1)NS(=O)(=O)c2cc(NC=O)ccc2C(=O)N(C)C
InChI: InChI=1S/C17H20N6O7S/c1-23(2)15(25)11-6-5-10(18-9-24)7-12(11)31(27,28)22-17(26)21-16-19-13(29-3)8-14(20-16)30-4/h5-9H,1-4H3,(H,18,24)(H2,19,20,21,22,26)
Instrument: LTQ Orbitrap XL Thermo Scientific
Instrument type: LC-ESI-ITFT
Ms type: MS2
Ion mode: POSITIVE
Ionization: ESI
Fragmentation mode: HCD
Collision energy: 90 % (nominal)
Resolution: 7500
Column name: XBridge C18 3.5um, 2.1x50mm, Waters
Retention time: 7.8 min
Base peak: 475.1014
Precursor m/z: 453.1187
Precursor type: [M+H]+
m/z	relative intensity	assigned
65.0386	79	C5H5+
68.9972	36	C3HO2+
71.0603	96	C3H7N2+
80.0495	33	C5H6N+
82.0286	51	C4H4NO+
83.024	999	C3H3N2O+
92.0495	133	C6H6N+
93.0083	93	C4HN2O+
94.0651	23	C6H8N+
100.0391	47	C4H6NO2+
105.0445	100	C6H5N2+
117.0442	25	C7H5N2+
120.0446	112	C7H6NO+
121.0281	67	C7H5O2+
139.0501	467	C6H7N2O2+
157.0605	225	C6H9N2O3+
161.0345	37	C8H5N2O2+
