Mass spectrum: Danofloxacin; LC-ESI-QFT; MS2; CE: 75; R=35000; [M+H]+
Name: Danofloxacin
Name: 1-cyclopropyl-6-fluoro-7-(5-methyl-2-aza-5-azoniabicyclo[2.2.1]heptan-2-yl)-4-oxoquinoline-3-carboxylate
Formula: C19H20FN3O3
Exact mass: 357.14887
SMILES: CN1C[C@@H]2C[C@H]1CN2C3=C(C=C4C(=C3)N(C=C(C4=O)C(=O)O)C5CC5)F
InChI: InChI=1S/C19H20FN3O3/c1-21-7-12-4-11(21)8-22(12)17-6-16-13(5-15(17)20)18(24)14(19(25)26)9-23(16)10-2-3-10/h5-6,9-12H,2-4,7-8H2,1H3,(H,25,26)/t11-,12-/m0/s1
Instrument: Q Exactive Plus Orbitrap Thermo Scientific
Instrument type: LC-ESI-QFT
Ms type: MS2
Ion mode: POSITIVE
Ionization: ESI
Fragmentation mode: HCD
Collision energy: 75 (nominal)
Resolution: 35000
Column name: XBridge C18 3.5um, 2.1x50mm, Waters
Retention time: 4.4 min
Base peak: 164.9843
Precursor m/z: 358.1561
Precursor type: [M+H]+
m/z	relative intensity	assigned
53.0022	5	C3HO+
53.0387	3	C4H5+
54.0338	2	C3H4N+
55.0416	1	C3H5N+
55.0542	9	C4H7+
56.0495	5	C3H6N+
57.0573	6	C3H7N+
58.0651	2	C3H8N+
60.0245	2	C2H3FN+
65.0386	10	C5H5+
66.0464	2	C5H6+
67.0417	55	C4H5N+
67.0542	13	C5H7+
68.0495	40	C4H6N+
69.0699	3	C5H9+
70.0651	103	C4H8N+
75.0479	5	C3H6FN+
79.0543	15	C6H7+
80.0495	39	C5H6N+
81.0573	51	C5H7N+
82.0651	999	C5H8N+
83.0729	130	C5H9N+
84.0808	31	C5H10N+
94.0652	72	C6H8N+
95.0492	3	C6H7O+
96.0808	71	C6H10N+
97.076	8	C5H9N2+
97.0887	2	C6H11N+
105.0449	2	C6H5N2+
115.0543	1	C9H7+
128.0498	2	C9H6N+
128.0622	1	C10H8+
129.07	2	C10H9+
133.0449	2	C9H6F+
135.0481	4	C8H6FN+
136.0559	3	C8H7FN+
141.0573	2	C10H7N+
142.0654	1	C10H8N+
145.0651	2	C10H9O+
146.0528	3	C10H7F+
146.06	1	C9H8NO+
147.048	2	C9H6FN+
147.0605	5	C10H8F+
148.0557	7	C9H7FN+
149.0512	3	C8H6FN2+
151.0431	1	C8H6FNO+
154.0652	14	C11H8N+
155.0603	7	C10H7N2+
155.0731	4	C11H9N+
156.0683	2	C10H8N2+
156.0813	1	C11H10N+
158.0602	1	C10H8NO+
159.0482	2	C10H6FN+
160.0434	3	C9H5FN2+
160.0557	7	C10H7FN+
161.0511	3	C9H6FN2+
161.0635	5	C10H8FN+
162.0352	3	C9H5FNO+
162.0588	6	C9H7FN2+
162.0716	3	C10H9FN+
163.0668	2	C9H8FN2+
164.0506	5	C9H7FNO+
166.0658	2	C12H8N+
167.0607	4	C11H7N2+
167.0731	2	C12H9N+
168.0683	9	C11H8N2+
168.0808	1	C12H10N+
169.0523	1	C11H7NO+
169.0761	6	C11H9N2+
172.0558	25	C11H7FN+
173.0512	3	C10H6FN2+
173.0637	13	C11H8FN+
174.0351	2	C10H5FNO+
174.0594	5	C10H7FN2+
174.0714	16	C11H9FN+
175.0669	8	C10H8FN2+
176.0508	2	C10H7FNO+
176.0745	3	C10H9FN2+
178.0428	1	C10H7FO2+
178.0539	13	C9H7FN2O+
178.0661	10	C10H9FNO+
179.0381	2	C9H6FNO2+
179.061	5	C9H8FN2O+
180.0809	1	C13H10N+
181.076	4	C12H9N2+
182.0605	2	C12H8NO+
182.084	2	C12H10N2+
183.0916	3	C12H11N2+
184.0394	2	C11H6NO2+
184.0563	1	C12H7FN+
184.0629	4	C11H8N2O+
185.0639	6	C12H8FN+
185.071	1	C11H9N2O+
186.059	9	C11H7FN2+
186.0714	7	C12H9FN+
187.0302	4	C10H4FN2O+
187.0433	4	C11H6FNO+
187.0668	47	C11H8FN2+
188.0145	2	C10H3FNO2+
188.0508	4	C11H7FNO+
188.0747	5	C11H9FN2+
188.0874	3	C12H11FN+
189.046	9	C10H6FN2O+
189.0823	7	C11H10FN2+
189.0951	3	C12H12FN+
190.0539	7	C10H7FN2O+
191.0617	6	C10H8FN2O+
192.0691	2	C13H8N2+
192.0809	3	C14H10N+
193.0762	7	C13H9N2+
193.089	1	C14H11N+
194.0838	2	C13H10N2+
195.0328	1	C9H6FNO3+
195.0553	3	C12H7N2O+
195.0918	2	C13H11N2+
196.0634	8	C12H8N2O+
197.0477	2	C12H7NO2+
197.0708	4	C12H9N2O+
197.1075	7	C13H13N2+
198.0716	3	C13H9FN+
199.0668	15	C12H8FN2+
200.0507	7	C12H7FNO+
200.0745	8	C12H9FN2+
201.0585	19	C12H8FNO+
201.0823	7	C12H10FN2+
202.0303	2	C11H5FNO2+
202.054	3	C11H7FN2O+
202.0664	45	C12H9FNO+
202.09	5	C12H11FN2+
203.0616	38	C11H8FN2O+
203.098	4	C12H12FN2+
205.0538	4	C11H8FNO2+
205.0772	3	C11H10FN2O+
206.0844	2	C14H10N2+
207.0922	3	C14H11N2+
209.0712	3	C13H9N2O+
209.1075	1	C14H13N2+
211.0662	4	C13H8FN2+
211.0876	1	C13H11N2O+
212.0748	6	C13H9FN2+
212.0873	14	C14H11FN+
213.0457	1	C12H6FN2O+
213.0826	14	C13H10FN2+
213.0947	3	C14H12FN+
214.0666	3	C13H9FNO+
214.0904	15	C13H11FN2+
215.0253	43	C11H4FN2O2+
215.0618	61	C12H8FN2O+
215.0976	5	C13H12FN2+
216.0697	11	C12H9FN2O+
216.0823	2	C13H11FNO+
217.0409	12	C11H6FN2O2+
217.0774	11	C12H10FN2O+
218.0488	28	C11H7FN2O2+
219.0924	6	C12H12FN2O+
220.0408	1	C11H7FNO3+
221.0484	1	C11H8FNO3+
221.0713	4	C14H9N2O+
221.1077	3	C15H13N2+
222.0435	2	C10H7FN2O3+
222.0798	1	C14H10N2O+
223.0504	1	C13H7N2O2+
223.0865	1	C14H11N2O+
224.0748	2	C14H9FN2+
225.0824	3	C14H10FN2+
226.0535	2	C13H7FN2O+
226.0904	3	C14H11FN2+
227.0617	14	C13H8FN2O+
227.098	5	C14H12FN2+
228.0539	2	C12H8N2O3+
228.0695	3	C13H9FN2O+
228.0822	2	C14H11FNO+
229.0411	1	C12H6FN2O2+
229.0773	20	C13H10FN2O+
230.0485	2	C12H7FN2O2+
230.0853	4	C13H11FN2O+
231.0563	2	C12H8FN2O2+
231.0931	16	C13H12FN2O+
233.036	19	C11H6FN2O3+
233.048	3	C12H8FNO3+
234.0565	2	C12H9FNO3+
235.0514	7	C11H8FN2O3+
235.0641	3	C12H10FNO3+
235.087	2	C15H11N2O+
236.0592	11	C11H9FN2O3+
237.1022	12	C15H13N2O+
238.098	6	C14H12N3O+
239.0615	2	C14H8FN2O+
239.0979	13	C15H12FN2+
240.07	1	C14H9FN2O+
240.0815	1	C15H11FNO+
240.1059	4	C15H13FN2+
241.0772	17	C14H10FN2O+
241.1141	1	C15H14FN2+
242.0855	4	C14H11FN2O+
243.0564	6	C13H8FN2O2+
243.0928	4	C14H12FN2O+
245.0726	2	C13H10FN2O2+
245.1089	2	C14H14FN2O+
246.0566	1	C13H9FNO3+
247.052	3	C12H8FN2O3+
248.1185	1	C16H14N3+
252.1131	4	C15H14N3O+
253.0774	3	C15H10FN2O+
254.0483	9	C14H7FN2O2+
255.0566	301	C14H8FN2O2+
256.0644	16	C14H9FN2O2+
257.0724	2	C14H10FN2O2+
257.1087	2	C15H14FN2O+
261.0674	2	C13H10FN2O3+
263.0832	1	C13H12FN2O3+
264.0769	3	C15H10N3O2+
267.0925	5	C16H12FN2O+
268.1001	1	C16H13FN2O+
269.0722	2	C15H10FN2O2+
269.1081	1	C16H14FN2O+
271.1243	8	C16H16FN2O+
273.0672	83	C14H10FN2O3+
274.0751	4	C14H11FN2O3+
275.0828	7	C14H12FN2O3+
277.0989	4	C14H14FN2O3+
278.0924	2	C16H12N3O2+
279.1007	3	C16H13N3O2+
281.1091	2	C17H14FN2O+
282.0883	1	C15H12N3O3+
283.1244	2	C17H16FN2O+
284.0827	2	C15H11FN3O2+
287.0832	3	C15H12FN2O3+
289.0983	3	C15H14FN2O3+
298.0986	4	C16H13FN3O2+
301.0985	3	C16H14FN2O3+
315.1143	2	C17H16FN2O3+
340.1465	2	C19H19FN3O2+
358.1564	37	C19H21FN3O3+
