Mass spectrum: Doxycycline; LC-ESI-QFT; MS2; CE: 120; R=35000; [M-H]-
Name: Doxycycline
Name: 8-carbamoyl-10-(dimethylazaniumyl)-4,6a,7,11-tetrahydroxy-12-methyl-6,9-dioxo-10a,11,11a,12-tetrahydro-10H-tetracen-5-olate
Formula: C22H24N2O8
Exact mass: 444.15327
SMILES: CC1C2C(C3C(C(=O)C(=C(C3(C(=O)C2=C(C4=C1C=CC=C4O)O)O)O)C(=O)N)N(C)C)O
InChI: InChI=1S/C22H24N2O8/c1-7-8-5-4-6-9(25)11(8)16(26)12-10(7)17(27)14-15(24(2)3)18(28)13(21(23)31)20(30)22(14,32)19(12)29/h4-7,10,14-15,17,25-27,30,32H,1-3H3,(H2,23,31)
Instrument: Q Exactive Plus Orbitrap Thermo Scientific
Instrument type: LC-ESI-QFT
Ms type: MS2
Ion mode: NEGATIVE
Ionization: ESI
Fragmentation mode: HCD
Collision energy: 120 (nominal)
Resolution: 35000
Column name: XBridge C18 3.5um, 2.1x50mm, Waters
Retention time: 6.3 min
Base peak: 443.1457
Precursor m/z: 443.146
Precursor type: [M-H]-
m/z	relative intensity	assigned
50.0036	34	C3N-
51.0239	17	C4H3-
53.0032	20	C3HO-
55.0189	17	C3H3O-
59.0138	13	C2H3O2-
63.024	108	C5H3-
64.0192	12	C4H2N-
65.0033	89	C4HO-
65.0397	32	C5H5-
65.9986	337	C3NO-
67.019	37	C4H3O-
68.0143	27	C3H2NO-
68.9982	253	C3HO2-
69.0346	31	C4H5O-
71.0138	5	C3H3O2-
76.0192	4	C5H2N-
78.0349	5	C5H4N-
79.019	52	C5H3O-
81.0345	10	C5H5O-
83.0138	5	C4H3O2-
84.009	59	C3H2NO2-
85.0295	3	C4H5O2-
89.0396	23	C7H5-
90.0349	13	C6H4N-
91.0189	26	C6H3O-
91.0553	17	C7H7-
92.014	4	C5H2NO-
93.0346	42	C6H5O-
94.0298	3	C5H4NO-
95.0139	165	C5H3O2-
96.0091	124	C4H2NO2-
96.993	16	C4HO3-
97.0295	28	C5H5O2-
106.0424	4	C7H6O-
107.014	4	C6H3O2-
108.0217	36	C6H4O2-
109.0294	49	C6H5O2-
115.0553	15	C9H7-
117.0347	47	C8H5O-
118.0299	3	C7H4NO-
119.0502	109	C8H7O-
120.0092	21	C6H2NO2-
120.0455	5	C7H6NO-
121.0295	52	C7H5O2-
121.066	12	C8H9O-
122.0247	15	C6H4NO2-
123.0088	63	C6H3O3-
124.0166	16	C6H4O3-
124.0402	4	C6H6NO2-
126.056	4	C6H8NO2-
130.0424	154	C9H6O-
131.05	20	C9H7O-
133.0294	2	C8H5O2-
133.0665	3	C9H9O-
134.0246	25	C7H4NO2-
135.0091	4	C7H3O3-
137.0246	10	C7H5O3-
137.0397	4	C11H5-
138.0196	7	C6H4NO3-
138.0474	4	C11H6-
139.0149	40	C5H3N2O3-
139.0553	12	C11H7-
141.0346	23	C10H5O-
141.0712	3	C11H9-
143.0502	113	C10H7O-
144.058	6	C10H8O-
145.0294	15	C9H5O2-
145.0659	16	C10H9O-
147.02	5	C7H3N2O2-
147.0453	3	C9H7O2-
148.0041	29	C7H2NO3-
149.0118	10	C7H3NO3-
149.0359	3	C7H5N2O2-
150.0197	10	C7H4NO3-
154.0426	19	C11H6O-
155.0504	34	C11H7O-
156.058	23	C11H8O-
157.0656	26	C11H9O-
158.0373	130	C10H6O2-
159.0452	176	C10H7O2-
161.0243	17	C9H5O3-
163.0151	4	C7H3N2O3-
165.0344	15	C12H5O-
167.0503	101	C12H7O-
169.0296	11	C11H5O2-
169.0657	29	C12H9O-
170.0373	12	C11H6O2-
171.0452	81	C11H7O2-
172.053	52	C11H8O2-
173.0607	91	C11H9O2-
180.0581	40	C13H8O-
181.0655	27	C13H9O-
182.0373	45	C12H6O2-
183.045	236	C12H7O2-
184.0529	7	C12H8O2-
185.0608	42	C12H9O2-
186.0324	4	C11H6O3-
187.0401	89	C11H7O3-
191.05	16	C14H7O-
193.0295	5	C13H5O2-
193.0658	17	C14H9O-
194.0735	4	C14H10O-
195.0452	55	C13H7O2-
196.0529	57	C13H8O2-
197.0607	60	C13H9O2-
199.0763	11	C13H11O2-
204.058	17	C15H8O-
205.0658	3	C15H9O-
207.0448	18	C14H7O2-
208.0527	27	C14H8O2-
209.0608	81	C14H9O2-
210.0319	25	C13H6O3-
210.0561	17	C13H8NO2-
210.0687	4	C14H10O2-
211.0402	999	C13H7O3-
213.0556	4	C13H9O3-
219.0451	6	C15H7O2-
220.0531	13	C15H8O2-
221.0499	3	C2H11N3O9-
221.0607	13	C15H9O2-
222.0684	3	C15H10O2-
223.0402	12	C14H7O3-
224.0481	39	C14H8O3-
225.0559	37	C14H9O3-
232.0529	6	C16H8O2-
233.0607	15	C16H9O2-
235.0408	13	C15H7O3-
237.056	39	C15H9O3-
239.0351	254	C14H7O4-
240.043	80	C14H8O4-
248.0479	16	C16H8O3-
249.0559	6	C16H9O3-
250.0512	3	C15H8NO3-
253.0509	6	C15H9O4-
261.0557	5	C17H9O3-
