Mass spectrum: Lacosamide; LC-ESI-QFT; MS2; CE: 15; R=35000; [M+H]+
Name: Lacosamide
Name: N2-Acetyl-N-benzyl-O-methyl-D-serinamide
Name: 2-acetamido-N-benzyl-3-methoxypropanamide
Formula: C13H18N2O3
Exact mass: 250.13174
SMILES: CC(=O)NC(COC)C(=O)NCC1=CC=CC=C1
InChI: InChI=1S/C13H18N2O3/c1-10(16)15-12(9-18-2)13(17)14-8-11-6-4-3-5-7-11/h3-7,12H,8-9H2,1-2H3,(H,14,17)(H,15,16)
Instrument: Q Exactive Plus Orbitrap Thermo Scientific
Instrument type: LC-ESI-QFT
Ms type: MS2
Ion mode: POSITIVE
Ionization: ESI
Fragmentation mode: HCD
Collision energy: 15 (nominal)
Resolution: 35000
Column name: XBridge C18 3.5um, 2.1x50mm, Waters
Retention time: 5.1 min
Base peak: 251.138
Precursor m/z: 251.139
Precursor type: [M+H]+
m/z	relative intensity	assigned
74.0599	34	C3H8NO+
91.0541	300	C7H7+
108.0806	999	C7H10N+
112.0391	15	C5H6NO2+
116.0704	318	C5H10NO2+
144.0653	275	C6H10NO3+
160.0755	2	C10H10NO+
164.1068	2	C10H14NO+
174.0913	1	C11H12NO+
177.102	65	C10H13N2O+
202.0863	2	C12H12NO2+
209.1282	61	C11H17N2O2+
219.1126	76	C12H15N2O2+
233.128	4	C13H17N2O2+
251.1387	35	C13H19N2O3+
