Mass spectrum: Nuarimol; LC-ESI-QFT; MS2; CE: 90%; R=17500; [M+H]+
Name: Nuarimol
Name: (2-chlorophenyl)-(4-fluorophenyl)-pyrimidin-5-ylmethanol
Formula: C17H12ClFN2O
Exact mass: 314.0622
SMILES: C1=CC=C(C(=C1)C(C2=CC=C(C=C2)F)(C3=CN=CN=C3)O)Cl
InChI: InChI=1S/C17H12ClFN2O/c18-16-4-2-1-3-15(16)17(22,13-9-20-11-21-10-13)12-5-7-14(19)8-6-12/h1-11,22H
Instrument: Exploris 240 Orbitrap Thermo Scientific
Instrument type: LC-ESI-QFT
Ms type: MS2
Ion mode: POSITIVE
Ionization: ESI
Fragmentation mode: HCD
Collision energy: 90 % (nominal)
Resolution: 17500
Column name: XBridge C18 3.5um, 2.1x50mm, Waters
Retention time: 8.405 min
Base peak: 315.0692
Precursor m/z: 315.0695
Precursor type: [M+H]+
m/z	relative intensity	assigned
52.0182	11	C3H2N+
54.0338	429	C3H4N+
81.0447	999	C4H5N2+
86.9995	16	C4H4Cl+
110.9995	25	C6H4Cl+
123.0242	324	C7H4FO+
123.0355	137	C6H4FN2+
128.0496	31	C9H6N+
138.9946	530	C7H4ClO+
139.0063	170	C6H4ClN2+
183.0604	39	C13H8F+
184.0675	14	C13H9F+
196.0689	79	C14H9F+
204.0808	19	C15H10N+
207.0605	529	C15H8F+
208.0689	59	C15H9F+
217.0212	69	C13H7ClF+
222.0716	90	C15H9FN+
224.0872	38	C15H11FN+
234.072	63	C16H9FN+
235.0792	44	C16H10FN+
236.0634	45	C16H9FO+
243.0366	45	C15H9ClF+
250.0665	19	C16H9FNO+
