Mass spectrum: Lansoprazole; LC-ESI-QFT; MS2; CE: 120; R=35000; [M+H]+
Name: Lansoprazole
Name: 2-[[3-methyl-4-(2,2,2-trifluoroethoxy)pyridin-2-yl]methylsulfinyl]-1H-benzimidazole
Formula: C16H14F3N3O2S
Exact mass: 369.07588
SMILES: Cc1c(ccnc1CS(=O)c2[nH]c3ccccc3n2)OCC(F)(F)F
InChI: InChI=1S/C16H14F3N3O2S/c1-10-13(20-7-6-14(10)24-9-16(17,18)19)8-25(23)15-21-11-4-2-3-5-12(11)22-15/h2-7H,8-9H2,1H3,(H,21,22)
Instrument: Q Exactive Plus Orbitrap Thermo Scientific
Instrument type: LC-ESI-QFT
Ms type: MS2
Ion mode: POSITIVE
Ionization: ESI
Fragmentation mode: HCD
Collision energy: 120 (nominal)
Resolution: 35000
Column name: XBridge C18 3.5um, 2.1x50mm, Waters
Retention time: 7.4 min
Base peak: 370.0829
Precursor m/z: 370.0832
Precursor type: [M+H]+
m/z	relative intensity	assigned
50.0151	13	C4H2+
51.0229	9	C4H3+
52.018	1	C3H2N+
52.0307	3	C4H4+
53.0022	12	C3HO+
53.0386	52	C4H5+
53.9975	1	C2NO+
54.0338	10	C3H4N+
55.0178	4	C3H3O+
55.0416	1	C3H5N+
55.0543	1	C4H7+
56.0494	2	C3H6N+
57.9871	5	C2H2S+
62.015	1	C5H2+
63.0229	17	C5H3+
64.0307	1	C5H4+
65.0386	415	C5H5+
66.0464	119	C5H6+
67.0416	28	C4H5N+
67.0542	87	C5H7+
67.9891	1	C3O2+
68.0131	1	C3H2NO+
68.0494	12	C4H6N+
68.9793	6	C3HS+
69.0135	1	C4H2F+
69.9871	40	C3H2S+
70.065	6	C4H8N+
70.995	4	C3H3S+
72.0028	4	C3H4S+
75.0229	1	C6H3+
77.0385	26	CH4FN3+
78.0338	35	C5H4N+
79.0416	87	C5H5N+
79.0542	214	C6H7+
80.0494	222	C5H6N+
81.0335	1	C5H5O+
81.0573	12	C5H7N+
81.0699	5	C6H9+
81.9871	4	C4H2S+
82.995	6	C4H3S+
83.0291	1	C5H4F+
84.0029	1	C4H4S+
85.9821	4	C3H2OS+
90.0339	11	C6H4N+
91.0416	21	C6H5N+
91.0542	4	C7H7+
92.0495	418	C6H6N+
93.0573	120	C6H7N+
94.0288	7	C5H4NO+
94.0651	98	C6H8N+
94.995	33	C5H3S+
95.0366	16	C5H5NO+
95.0491	69	C6H7O+
96.0028	137	C5H4S+
96.0444	82	C5H6NO+
97.0106	45	C5H5S+
99.0137	6	C4H5NS+
100.0216	1	C4H6NS+
104.0495	5	C7H6N+
105.0447	43	C6H5N2+
106.0651	999	C7H8N+
107.0729	421	C7H9N+
108.0807	601	C7H10N+
109.0522	6	C6H7NO+
110.0059	47	C5H4NS+
110.06	89	C6H8NO+
111.0011	3	C4H3N2S+
111.0315	11	C5H5NO2+
112.0394	1	C5H6NO2+
117.0573	1	C8H7N+
118.0524	14	C7H6N2+
118.0651	9	C8H8N+
119.0604	320	C7H7N2+
120.0444	49	C7H6NO+
121.0521	11	C7H7NO+
122.0059	91	C6H4NS+
122.06	79	C7H8NO+
123.0137	206	C6H5NS+
124.0216	28	C6H6NS+
124.0758	4	C7H10NO+
125.0472	9	C6H7NO2+
126.0714	1	C7H9FN+
127.0262	1	C3H7F2NS+
127.9926	8	C5H4O2S+
134.0059	18	C7H4NS+
134.0473	2	C7H6N2O+
136.0213	7	C7H6NS+
136.0558	5	C8H7FN+
136.0757	104	C8H10NO+
140.0499	1	C10H6N+
142.0461	1	C7H6F2N+
149.017	2	C7H5N2S+
150.0008	13	C7H4NOS+
151.0086	229	C7H5NOS+
152.0164	114	C7H6NOS+
162.0523	1	C7H7F3N+
168.0683	1	C11H8N2+
170.0412	5	C8H6F2NO+
181.0759	4	C12H9N2+
190.0476	1	C8H7F3NO+
204.0633	1	C9H9F3NO+
207.079	4	C13H9N3+
234.0196	18	C9H7F3NOS+
