Mass spectrum: Pyraclostrobin; LC-ESI-ITFT; MS2; CE: 30%; R=15000; [M+H]+
Name: Pyraclostrobin
Name: methyl [2-({[1-(4-chlorophenyl)-1H-pyrazol-3-yl]oxy}methyl)phenyl]methoxycarbamate
Formula: C19H18ClN3O4
Exact mass: 387.0986
SMILES: c1(ccc(n2ccc(OCc3c(cccc3)N(OC)C(OC)=O)n2)cc1)Cl
InChI: InChI=1S/C19H18ClN3O4/c1-25-19(24)23(26-2)17-6-4-3-5-14(17)13-27-18-11-12-22(21-18)16-9-7-15(20)8-10-16/h3-12H,13H2,1-2H3
Instrument: LTQ Orbitrap XL Thermo Scientific
Instrument type: LC-ESI-ITFT
Ms type: MS2
Ion mode: POSITIVE
Ionization: ESI
Fragmentation mode: HCD
Collision energy: 30 % (nominal)
Resolution: 15000
Column name: XBridge C18 3.5um, 2.1x50mm, Waters
Retention time: 13.4 min
Base peak: 388.1064
Precursor m/z: 388.1059
Precursor type: [M+H]+
m/z	relative intensity	assigned
75.0441	5	C3H7O2+
104.0494	12	C7H6N+
105.0573	10	C7H7N+
106.0651	6	C7H8N+
118.0651	42	C8H8N+
119.0366	25	C7H5NO+
120.044	9	C7H6NO+
128.0494	9	C9H6N+
132.0443	59	C8H6NO+
133.0521	161	C8H7NO+
134.06	105	C8H8NO+
146.0602	11	C6H11ClN2+
149.0471	393	C8H7NO2+
162.0549	252	C9H8NO2+
163.0628	999	C9H9NO2+
164.0705	605	C9H10NO2+
166.0861	38	C9H12NO2+
174.0548	12	C10H8NO2+
179.0575	12	C9H9NO3+
191.0812	8	C10H11N2O2+
193.0162	8	C9H6ClN2O+
194.081	311	C10H12NO3+
216.0659	12	C9H13ClN2O2+
253.0535	6	C15H10ClN2+
261.089	13	C12H18ClO4+
296.0582	226	C19H8N2O2+
324.0532	33	C17H11ClN3O2+
