Mass spectrum: Ketoprofen; LC-ESI-ITFT; MS2; CE: 75%; R=7500; [M+H]+
Name: Ketoprofen
Name: 2-(3-benzoylphenyl)propanoic acid
Formula: C16H14O3
Exact mass: 254.0943
SMILES: CC(C1=CC=CC(=C1)C(=O)C2=CC=CC=C2)C(=O)O
InChI: InChI=1S/C16H14O3/c1-11(16(18)19)13-8-5-9-14(10-13)15(17)12-6-3-2-4-7-12/h2-11H,1H3,(H,18,19)
Instrument: LTQ Orbitrap XL Thermo Scientific
Instrument type: LC-ESI-ITFT
Ms type: MS2
Ion mode: POSITIVE
Ionization: ESI
Fragmentation mode: HCD
Collision energy: 75 % (nominal)
Resolution: 7500
Column name: XBridge C18 3.5um, 2.1x50mm, Waters
Retention time: 9.6 min
Base peak: 277.0843
Precursor m/z: 255.1016
Precursor type: [M+H]+
m/z	relative intensity	assigned
51.0227	5	C4H3+
53.0385	34	C4H5+
77.0386	301	C6H5+
91.0543	16	C7H7+
93.0699	33	C7H9+
95.0492	32	C6H7O+
103.0542	150	C8H7+
105.0335	999	C7H5O+
105.0447	96	C6H5N2+
121.0646	19	C8H9O+
131.0491	55	C9H7O+
131.0609	9	C8H7N2+
165.0699	17	C13H9+
166.0776	26	C13H10+
177.055	66	C10H9O3+
194.0726	108	C14H10O+
