Mass spectrum: N-Nitrosofenfluramine; LC-ESI-QFT; MS2; CE: 75; R=35000; [M+H]+
Name: N-Nitrosofenfluramine
Name: N-Ethyl-N-nitroso-1-[3-(trifluoromethyl)phenyl]-2-propanamine
Formula: C12H15F3N2O
Exact mass: 260.11365
SMILES: CCN(C(C)Cc1cccc(c1)C(F)(F)F)N=O
InChI: InChI=1S/C12H15F3N2O/c1-3-17(16-18)9(2)7-10-5-4-6-11(8-10)12(13,14)15/h4-6,8-9H,3,7H2,1-2H3
Instrument: Q Exactive Plus Orbitrap Thermo Scientific
Instrument type: LC-ESI-QFT
Ms type: MS2
Ion mode: POSITIVE
Ionization: ESI
Fragmentation mode: HCD
Collision energy: 75 (nominal)
Resolution: 35000
Column name: XBridge C18 3.5um, 2.1x50mm, Waters
Retention time: 10.0 min
Base peak: 261.1206
Precursor m/z: 261.1209
Precursor type: [M+H]+
m/z	relative intensity	assigned
75.0552	14	C2H7N2O+
83.029	1	C5H4F+
89.0384	1	C7H5+
90.0462	1	C7H6+
109.0448	207	C7H6F+
116.0619	1	C9H8+
119.0292	2	C8H4F+
127.0353	2	C7H5F2+
137.0399	1	C8H6FO+
139.0354	25	C8H5F2+
146.0526	2	C10H7F+
146.0963	3	C10H12N+
147.0353	14	C8H4FN2+
147.0601	3	C10H8F+
155.0604	1	C10H7N2+
159.0415	999	C8H6F3+
195.0853	2	C11H11F2N+
210.1088	8	C12H14F2N+
