Mass spectrum: Methidathion; LC-ESI-QFT; MS2; CE: 45; R=35000; [M+H]+
Name: Methidathion
Name: 3-(dimethoxyphosphinothioylsulfanylmethyl)-5-methoxy-1,3,4-thiadiazol-2-one
Formula: C6H11N2O4PS3
Exact mass: 301.96186
SMILES: O=C1SC(=N/N1CSP(=S)(OC)OC)\OC
InChI: InChI=1S/C6H11N2O4PS3/c1-10-5-7-8(6(9)16-5)4-15-13(14,11-2)12-3/h4H2,1-3H3
Instrument: Q Exactive Orbitrap Thermo Scientific
Instrument type: LC-ESI-QFT
Ms type: MS2
Ion mode: POSITIVE
Ionization: ESI
Fragmentation mode: HCD
Collision energy: 45 (nominal)
Resolution: 35000
Column name: XBridge C18 3.5um, 2.1x50mm, Waters
Retention time: 9.1 min
Base peak: 302.9691
Precursor m/z: 302.9691
Precursor type: [M+H]+
m/z	relative intensity	assigned
58.0288	325	C2H4NO+
71.024	612	C2H3N2O+
85.0396	999	C3H5N2O+
103.0503	101	C3H7N2O2+
117.066	1	C4H9N2O2+
142.9928	3	C2H8O3PS+
145.0067	131	C4H5N2O2S+
