Mass spectrum: Ofurace; LC-ESI-QFT; MS2; CE: 60%; R=17500; [M+H]+
Name: Ofurace
Name: 2-chloro-N-(2,6-dimethylphenyl)-N-(2-oxooxolan-3-yl)acetamide
Formula: C14H16ClNO3
Exact mass: 281.0819
SMILES: CC1=C(C(=CC=C1)C)N(C2CCOC2=O)C(=O)CCl
InChI: InChI=1S/C14H16ClNO3/c1-9-4-3-5-10(2)13(9)16(12(17)8-15)11-6-7-19-14(11)18/h3-5,11H,6-8H2,1-2H3
Instrument: Exploris 240 Orbitrap Thermo Scientific
Instrument type: LC-ESI-QFT
Ms type: MS2
Ion mode: POSITIVE
Ionization: ESI
Fragmentation mode: HCD
Collision energy: 60 % (nominal)
Resolution: 17500
Column name: XBridge C18 3.5um, 2.1x50mm, Waters
Retention time: 5.728 min
Base peak: 312.1342
Precursor m/z: 282.0891
Precursor type: [M+H]+
m/z	relative intensity	assigned
76.9789	105	C2H2ClO+
105.0699	8	C8H9+
121.0886	140	C8H11N+
130.0656	8	C9H8N+
131.0728	41	C9H9N+
132.081	118	C9H10N+
144.0809	51	C10H10N+
145.0888	190	C10H11N+
148.1122	660	C10H14N+
158.0962	9	C11H12N+
160.1121	999	C11H14N+
178.1228	584	C11H16NO+
236.084	16	C13H15ClNO+
