Mass spectrum: 4-Toluenesulfonamide; LC-ESI-QFT; MS2; CE: 150; R=35000; [M+H]+
Name: 4-Toluenesulfonamide
Name: p-Toluenesulfonamide
Name: 4-methylbenzenesulfonimidic acid
Formula: C7H9NO2S
Exact mass: 171.03540
SMILES: CC1=CC=C(C=C1)S(=O)(=O)N
InChI: InChI=1S/C7H9NO2S/c1-6-2-4-7(5-3-6)11(8,9)10/h2-5H,1H3,(H2,8,9,10)
Instrument: Q Exactive Plus Orbitrap Thermo Scientific
Instrument type: LC-ESI-QFT
Ms type: MS2
Ion mode: POSITIVE
Ionization: ESI
Fragmentation mode: HCD
Collision energy: 150 (nominal)
Resolution: 35000
Column name: XBridge C18 3.5um, 2.1x50mm, Waters
Retention time: 4.6 min
Base peak: 189.0689
Precursor m/z: 172.0427
Precursor type: [M+H]+
m/z	relative intensity	assigned
50.0151	17	C4H2+
51.023	29	C4H3+
53.0022	30	C3HO+
53.9975	7	C2NO+
61.0072	2	C5H+
62.0151	19	C5H2+
63.023	101	C5H3+
65.0386	999	C5H5+
67.9893	7	C3O2+
78.0088	2	C3N3+
89.0386	5	C7H5+
90.0464	1	C7H6+
91.0543	172	C7H7+
93.0574	1	C6H7N+
