Mass spectrum: Simazine; LC-ESI-ITFT; MS2; CE: 35%; R=30000; [M+H]+
Name: Simazine
Name: 6-chloranyl-N2,N4-diethyl-1,3,5-triazine-2,4-diamine
Formula: C7H12ClN5
Exact mass: 201.0776
SMILES: c1(nc(nc(n1)Cl)NCC)NCC
InChI: InChI=1S/C7H12ClN5/c1-3-9-6-11-5(8)12-7(13-6)10-4-2/h3-4H2,1-2H3,(H2,9,10,11,12,13)
Instrument: LTQ Orbitrap XL Thermo Scientific
Instrument type: LC-ESI-ITFT
Ms type: MS2
Ion mode: POSITIVE
Ionization: ESI
Fragmentation mode: CID
Collision energy: 35 % (nominal)
Resolution: 30000
Column name: XBridge C18 3.5um, 2.1x50mm, Waters
Retention time: 6.9 min
Base peak: 202.0857
Precursor m/z: 202.0854
Precursor type: [M+H]+
m/z	relative intensity	assigned
68.0243	17	C2H2N3+
90.0105	1	C3H5ClN+
96.0556	68	C4H6N3+
104.001	27	C2H3ClN3+
107.037	5	C3H8ClN2+
124.087	778	C6H10N3+
132.0323	494	C4H7ClN3+
138.0774	4	C5H8N5+
146.0229	4	C3H5ClN5+
166.1087	116	C7H12N5+
174.0542	341	C5H9ClN5+
202.0854	999	C7H13ClN5+
