Mass spectrum: Haloperidol; LC-ESI-QFT; MS2; CE: 90; R=35000; [M+H]+
Name: Haloperidol
Name: 4-[4-(4-chlorophenyl)-4-hydroxypiperidin-1-yl]-1-(4-fluorophenyl)butan-1-one
Formula: C21H23ClFNO2
Exact mass: 375.14013
SMILES: C1CN(CCC1(C2=CC=C(C=C2)Cl)O)CCCC(=O)C3=CC=C(C=C3)F
InChI: InChI=1S/C21H23ClFNO2/c22-18-7-5-17(6-8-18)21(26)11-14-24(15-12-21)13-1-2-20(25)16-3-9-19(23)10-4-16/h3-10,26H,1-2,11-15H2
Instrument: Q Exactive Plus Orbitrap Thermo Scientific
Instrument type: LC-ESI-QFT
Ms type: MS2
Ion mode: POSITIVE
Ionization: ESI
Fragmentation mode: HCD
Collision energy: 90 (nominal)
Resolution: 35000
Column name: XBridge C18 3.5um, 2.1x50mm, Waters
Retention time: 6.8 min
Base peak: 376.1475
Precursor m/z: 376.1474
Precursor type: [M+H]+
m/z	relative intensity	assigned
50.0151	5	C4H2+
51.0229	3	C4H3+
53.0022	1	C3HO+
71.0292	18	C4H4F+
73.0084	1	C3H2FO+
74.0151	3	C6H2+
75.0229	30	C6H3+
79.0178	7	C5H3O+
93.0335	6	C6H5O+
95.0291	22	C6H4F+
97.0448	1	C6H6F+
99.0241	5	C5H4FO+
109.0449	10	C7H6F+
111.0441	2	C6H7O2+
112.0319	1	C6H5FO+
113.0397	140	C6H6FO+
115.0543	3	C9H7+
123.0241	999	C7H4FO+
123.0351	344	C6H4FN2+
124.0323	2	C4H8ClFN+
125.0155	1	C7H6Cl+
129.0701	1	C10H9+
130.0778	1	C10H10+
133.0448	1	C9H6F+
135.0605	1	C9H8F+
137.0152	1	C8H6Cl+
146.0527	1	C10H7F+
165.0711	10	C10H10FO+
173.0512	1	C10H6FN2+
