Mass spectrum: Mianserin; LC-ESI-QFT; MS2; CE: 90; R=35000; [M+H]+
Name: Mianserin
Name: 2-Methyl-1,2,3,4,10,14b-hexahydrodibenzo[c,f]pyrazino[1,2-a]azepine
Formula: C18H20N2
Exact mass: 264.16265
SMILES: CN1CCN2C(C1)C3=CC=CC=C3CC4=CC=CC=C42
InChI: InChI=1S/C18H20N2/c1-19-10-11-20-17-9-5-3-7-15(17)12-14-6-2-4-8-16(14)18(20)13-19/h2-9,18H,10-13H2,1H3
Instrument: Q Exactive Plus Orbitrap Thermo Scientific
Instrument type: LC-ESI-QFT
Ms type: MS2
Ion mode: POSITIVE
Ionization: ESI
Fragmentation mode: HCD
Collision energy: 90 (nominal)
Resolution: 35000
Column name: XBridge C18 3.5um, 2.1x50mm, Waters
Retention time: 6.5 min
Base peak: 265.1696
Precursor m/z: 265.1699
Precursor type: [M+H]+
m/z	relative intensity	assigned
50.0149	1	C4H2+
51.0229	4	C4H3+
53.0022	1	C3HO+
53.0386	14	C4H5+
54.0338	1	C3H4N+
56.0495	95	C3H6N+
57.0573	7	C3H7N+
58.0651	999	C3H8N+
63.0228	4	C5H3+
65.0385	66	C5H5+
67.0417	1	C4H5N+
67.0542	1	C5H7+
70.0651	121	C4H8N+
72.0807	15	C4H10N+
77.0384	27	C6H5+
78.0464	7	C6H6+
79.0542	50	C6H7+
80.0494	4	C5H6N+
81.0334	1	C5H5O+
82.065	6	C5H8N+
83.0602	1	C4H7N2+
85.076	49	C4H9N2+
89.0385	12	C7H5+
90.0465	10	C7H6+
91.0542	696	C7H7+
92.0494	30	C6H6N+
93.0574	15	C6H7N+
93.0699	13	C7H9+
94.065	5	C6H8N+
95.0491	48	C6H7O+
97.076	1	C5H9N2+
98.0838	5	C5H10N2+
102.0464	1	C8H6+
103.0542	88	C8H7+
104.0493	12	C7H6N+
104.0621	7	C8H8+
105.0447	24	C6H5N2+
105.0699	103	C8H9+
106.0651	134	C7H8N+
107.0728	3	C7H9N+
109.0648	5	C7H9O+
115.0542	276	C9H7+
116.0494	38	C8H6N+
116.062	38	C9H8+
117.0572	130	C8H7N+
117.0698	119	C9H9+
118.0651	295	C8H8N+
119.0603	6	C7H7N2+
119.073	17	C8H9N+
119.0856	9	C9H11+
120.0807	93	C8H10N+
127.0541	1	C10H7+
128.0494	7	C9H6N+
128.062	43	C10H8+
129.0698	48	C10H9+
130.0651	180	C9H8N+
131.0602	5	C8H7N2+
131.0729	69	C9H9N+
131.0853	6	C10H11+
132.0807	27	C9H10N+
133.0758	1	C8H9N2+
133.0884	3	C9H11N+
134.0598	4	C8H8NO+
141.0698	9	C11H9+
142.0649	6	C10H8N+
143.0729	24	C10H9N+
144.0808	137	C10H10N+
145.0647	5	C10H9O+
145.0761	7	C9H9N2+
145.0886	18	C10H11N+
146.06	3	C9H8NO+
146.0964	62	C10H12N+
152.0618	8	C12H8+
153.0697	5	C12H9+
155.0604	10	C10H7N2+
156.0808	16	C11H10N+
157.0886	25	C11H11N+
158.0964	40	C11H12N+
159.0916	10	C10H11N2+
160.1122	4	C11H14N+
161.1073	45	C10H13N2+
165.0699	68	C13H9+
166.0777	45	C13H10+
167.0727	4	C12H9N+
167.0854	9	C13H11+
170.0964	1	C12H12N+
171.0921	1	C11H11N2+
172.1118	1	C12H14N+
173.1073	13	C11H13N2+
174.1149	1	C11H14N2+
176.0616	1	C14H8+
177.07	6	C14H9+
178.0776	127	C14H10+
179.0855	53	C14H11+
180.0806	13	C13H10N+
181.101	11	C14H13+
189.0697	6	C15H9+
190.0651	3	C14H8N+
190.0774	4	C15H10+
191.073	9	C14H9N+
191.0854	20	C15H11+
192.0807	81	C14H10N+
192.0938	4	C15H12+
193.0886	397	C14H11N+
194.0964	47	C14H12N+
202.0777	10	C16H10+
203.0855	8	C16H11+
204.0808	69	C15H10N+
205.0888	16	C15H11N+
206.0964	135	C15H12N+
207.1043	67	C15H13N+
208.1121	83	C15H14N+
216.08	1	C16H10N+
217.0885	28	C16H11N+
218.0964	53	C16H12N+
219.0916	9	C15H11N2+
219.104	13	C16H13N+
220.1121	33	C16H14N+
221.1196	1	C16H15N+
222.1274	10	C16H16N+
230.0957	1	C17H12N+
231.1039	2	C17H13N+
232.1125	8	C17H14N+
233.1073	13	C16H13N2+
234.1269	1	C17H16N+
235.1229	1	C16H15N2+
247.1229	19	C17H15N2+
248.1309	12	C17H16N2+
249.1387	2	C17H17N2+
261.1382	1	C18H17N2+
262.1459	1	C18H18N2+
263.1537	4	C18H19N2+
