Mass spectrum: Phenthoate; LC-ESI-QFT; MS2; CE: 60%; R=17500; [M+H]+
Name: Phenthoate
Name: ethyl 2-dimethoxyphosphinothioylsulfanyl-2-phenylacetate
Formula: C12H17O4PS2
Exact mass: 320.0306
SMILES: CCOC(=O)C(C1=CC=CC=C1)SP(=S)(OC)OC
InChI: InChI=1S/C12H17O4PS2/c1-4-16-12(13)11(10-8-6-5-7-9-10)19-17(18,14-2)15-3/h5-9,11H,4H2,1-3H3
Instrument: Exploris 240 Orbitrap Thermo Scientific
Instrument type: LC-ESI-QFT
Ms type: MS2
Ion mode: POSITIVE
Ionization: ESI
Fragmentation mode: HCD
Collision energy: 60 % (nominal)
Resolution: 17500
Column name: XBridge C18 3.5um, 2.1x50mm, Waters
Retention time: 10.719 min
Base peak: 275.0712
Precursor m/z: 321.0379
Precursor type: [M+H]+
m/z	relative intensity	assigned
62.0186	11	C2H6S+
78.9942	51	CH4O2P+
79.0542	828	C6H7+
91.0542	454	C7H7+
95.0491	6	C6H7O+
107.0491	999	C7H7O+
110.9663	9	CH4O2PS+
124.982	476	C2H6O2PS+
135.044	403	C8H7O2+
135.0801	44	C9H11O+
142.9926	107	C2H8O3PS+
151.021	27	C8H7OS+
157.0084	21	C3H10O3PS+
