Mass spectrum: Clomipramine; LC-ESI-QFT; MS2; CE: 60; R=35000; [M+H]+
Name: Clomipramine
Name: 3-(2-chloro-5,6-dihydrobenzo[b][1]benzazepin-11-yl)-N,N-dimethylpropan-1-amine
Formula: C19H23ClN2
Exact mass: 314.15498
SMILES: CN(C)CCCN1C2=CC=CC=C2CCC3=C1C=C(C=C3)Cl
InChI: InChI=1S/C19H23ClN2/c1-21(2)12-5-13-22-18-7-4-3-6-15(18)8-9-16-10-11-17(20)14-19(16)22/h3-4,6-7,10-11,14H,5,8-9,12-13H2,1-2H3
Instrument: Q Exactive Plus Orbitrap Thermo Scientific
Instrument type: LC-ESI-QFT
Ms type: MS2
Ion mode: POSITIVE
Ionization: ESI
Fragmentation mode: HCD
Collision energy: 60 (nominal)
Resolution: 35000
Column name: XBridge C18 3.5um, 2.1x50mm, Waters
Retention time: 9.2 min
Base peak: 315.1618
Precursor m/z: 315.1623
Precursor type: [M+H]+
m/z	relative intensity	assigned
56.0495	6	C3H6N+
58.0652	999	C3H8N+
71.073	9	C4H9N+
86.0965	846	C5H12N+
91.0543	1	C7H7+
105.07	1	C8H9+
125.0155	1	C7H6Cl+
158.0966	1	C11H12N+
206.0969	5	C15H12N+
207.1045	16	C15H13N+
214.0417	1	C13H9ClN+
220.1123	29	C16H14N+
227.0499	96	C14H10ClN+
234.1279	8	C17H16N+
235.1359	17	C17H17N+
240.0578	1	C15H11ClN+
242.0733	106	C15H13ClN+
254.0737	2	C16H13ClN+
270.1046	3	C17H17ClN+
