Mass spectrum: Cefadroxil; LC-ESI-QFT; MS2; CE: 45; R=35000; [M+H]+
Name: Cefadroxil
Name: 7-[[2-azaniumyl-2-(4-hydroxyphenyl)acetyl]amino]-3-methyl-8-oxo-5-thia-1-azabicyclo[4.2.0]oct-2-ene-2-carboxylate
Formula: C16H17N3O5S
Exact mass: 363.08889
SMILES: CC1=C(N2C(C(C2=O)NC(=O)C(C3=CC=C(C=C3)O)N)SC1)C(=O)O
InChI: InChI=1S/C16H17N3O5S/c1-7-6-25-15-11(14(22)19(15)12(7)16(23)24)18-13(21)10(17)8-2-4-9(20)5-3-8/h2-5,10-11,15,20H,6,17H2,1H3,(H,18,21)(H,23,24)
Instrument: Q Exactive Plus Orbitrap Thermo Scientific
Instrument type: LC-ESI-QFT
Ms type: MS2
Ion mode: POSITIVE
Ionization: ESI
Fragmentation mode: HCD
Collision energy: 45 (nominal)
Resolution: 35000
Column name: XBridge C18 3.5um, 2.1x50mm, Waters
Retention time: 2.4 min
Base peak: 364.0954
Precursor m/z: 364.0962
Precursor type: [M+H]+
m/z	relative intensity	assigned
58.995	4	C2H3S+
68.0495	144	C4H6N+
69.0335	1	C4H5O+
70.0652	3	C4H8N+
74.0059	1	C2H4NS+
86.0059	47	C3H4NS+
94.0651	2	C6H8N+
97.0285	2	C5H5O2+
98.0601	2	C5H8NO+
102.0009	1	C3H4NOS+
106.0414	1	C7H6O+
106.0652	1	C7H8N+
107.0492	8	C7H7O+
109.0761	1	C6H9N2+
112.0217	3	C5H6NS+
114.0009	999	C4H4NOS+
119.0492	2	C8H7O+
122.0601	8	C7H8NO+
126.0372	1	C6H8NS+
126.0549	1	C6H8NO2+
133.0285	3	C8H5O2+
133.0524	4	C8H7NO+
134.0363	95	C8H6O2+
134.0601	53	C8H8NO+
135.0441	5	C8H7O2+
135.0553	1	C7H7N2O+
137.0055	4	C7H5OS+
137.071	1	C7H9N2O+
138.0549	2	C7H8NO2+
139.0214	9	C7H7OS+
140.0165	5	C6H6NOS+
140.0343	18	C6H6NO3+
146.0603	2	C9H8NO+
150.0548	1	C8H8NO2+
151.0213	1	C8H7OS+
152.0167	1	C7H6NOS+
153.0369	1	C8H9OS+
158.0272	60	C6H8NO2S+
162.0549	2	C9H8NO2+
163.0212	5	C9H7OS+
166.0322	10	C8H8NOS+
170.0271	1	C7H8NO2S+
178.0322	3	C9H8NOS+
180.0479	7	C9H10NOS+
190.0499	10	C10H8NO3+
194.0272	7	C9H8NO2S+
206.0267	2	C10H8NO2S+
207.0349	5	C10H9NO2S+
214.0625	2	C13H10O3+
228.0655	2	C13H10NO3+
230.0636	1	C13H12NOS+
241.0372	1	C13H7NO4+
256.0606	3	C14H10NO4+
303.0795	1	C15H15N2O3S+
