Mass spectrum: Methadone; LC-ESI-ITFT; MS2; CE: 75%; R=7500; [M+H]+
Name: Methadone
Name: 6-(dimethylamino)-4,4-diphenyl-3-heptanone
Formula: C21H27NO
Exact mass: 309.2093
SMILES: CCC(=O)C(CC(C)N(C)C)(c1ccccc1)c2ccccc2
InChI: InChI=1S/C21H27NO/c1-5-20(23)21(16-17(2)22(3)4,18-12-8-6-9-13-18)19-14-10-7-11-15-19/h6-15,17H,5,16H2,1-4H3
Instrument: LTQ Orbitrap XL Thermo Scientific
Instrument type: LC-ESI-ITFT
Ms type: MS2
Ion mode: POSITIVE
Ionization: ESI
Fragmentation mode: HCD
Collision energy: 75 % (nominal)
Resolution: 7500
Column name: XBridge C18 3.5um, 2.1x50mm, Waters
Retention time: 8.4 min
Base peak: 310.2177
Precursor m/z: 310.2165
Precursor type: [M+H]+
m/z	relative intensity	assigned
57.0334	19	C3H5O+
77.0386	152	C6H5+
91.0542	301	C7H7+
95.0491	14	C6H7O+
103.0543	10	C8H7+
105.0335	999	C7H5O+
105.07	106	C8H9+
107.049	9	C7H7O+
115.0542	32	C9H7+
117.0699	214	C9H9+
128.0619	12	C10H8+
129.0698	63	C10H9+
131.0856	21	C10H11+
141.0701	12	C11H9+
143.0849	12	C11H11+
145.0648	19	C10H9O+
147.0804	9	C10H11O+
155.0598	5	C10H7N2+
158.0726	8	C11H10O+
159.0802	8	C11H11O+
166.0783	7	C13H10+
167.0856	85	C13H11+
169.102	5	C13H13+
178.0775	18	C14H10+
179.0853	16	C14H11+
190.0777	8	C15H10+
191.0857	23	C15H11+
192.093	7	C15H12+
194.0724	55	C14H10O+
195.0809	8	C14H11O+
203.0856	51	C16H11+
204.0934	164	C16H12+
205.102	22	C16H13+
217.1011	42	C17H13+
218.1088	70	C17H14+
219.1169	37	C17H15+
221.0954	13	C16H13O+
236.1189	6	C17H16O+
