Mass spectrum: Dexamethasone; LC-ESI-ITFT; MS2; CE: 90%; R=30000; [M+H]+
Name: Dexamethasone
Name: (8S,9R,10S,11S,13S,14S,16R,17R)-9-fluoranyl-10,13,16-trimethyl-11,17-bis(oxidanyl)-17-(2-oxidanylethanoyl)-6,7,8,11,12,14,15,16-octahydrocyclopenta[a]phenanthren-3-one
Formula: C22H29FO5
Exact mass: 392.1999
SMILES: [H][C@@]12C[C@@H](C)[C@](O)(C(=O)CO)[C@@]1(C)C[C@H](O)[C@@]3(F)[C@@]2([H])CCC4=CC(=O)C=C[C@]34C
InChI: InChI=1S/C22H29FO5/c1-12-8-16-15-5-4-13-9-14(25)6-7-19(13,2)21(15,23)17(26)10-20(16,3)22(12,28)18(27)11-24/h6-7,9,12,15-17,24,26,28H,4-5,8,10-11H2,1-3H3/t12-,15+,16+,17+,19+,20+,21+,22+/m1/s1
Instrument: LTQ Orbitrap XL Thermo Scientific
Instrument type: LC-ESI-ITFT
Ms type: MS2
Ion mode: POSITIVE
Ionization: ESI
Fragmentation mode: HCD
Collision energy: 90 % (nominal)
Resolution: 30000
Column name: XBridge C18 3.5um, 2.1x50mm, Waters
Retention time: 9.5 min
Base peak: 393.2068
Precursor m/z: 393.2072
Precursor type: [M+H]+
m/z	relative intensity	assigned
67.0541	79	C5H7+
77.0385	159	C6H5+
79.0542	233	C6H7+
91.0542	968	C7H7+
93.0699	212	C7H9+
95.0855	94	C7H11+
103.0541	108	C8H7+
105.0698	555	C8H9+
107.0489	131	C7H7O+
107.0854	165	C8H11+
115.0539	210	C9H7+
117.07	152	C9H9+
119.0855	550	C9H11+
121.0647	999	C8H9O+
128.0619	702	C10H8+
129.0698	250	C10H9+
131.0855	110	C10H11+
132.057	392	C9H8O+
133.065	81	C9H9O+
135.0801	93	C9H11O+
141.0699	232	C11H9+
142.0777	238	C11H10+
143.0854	290	C11H11+
144.0569	229	C10H8O+
145.0648	446	C10H9O+
146.0727	116	C10H10O+
147.0803	509	C10H11O+
155.06	180	C10H7N2+
155.086	119	C12H11+
158.0728	345	C11H10O+
159.0804	171	C11H11O+
165.07	297	C13H9+
166.0778	145	C13H10+
167.0851	114	C13H11+
169.0649	154	C12H9O+
169.1016	90	C13H13+
171.0803	241	C12H11O+
178.0777	344	C14H10+
179.0856	418	C14H11+
181.0649	240	C13H9O+
182.0721	120	C13H10O+
183.08	131	C13H11O+
185.0963	115	C13H13O+
189.0696	181	C15H9+
190.0778	141	C15H10+
191.0854	231	C15H11+
192.0933	155	C15H12+
194.0732	104	C11H11FO2+
194.1087	106	C15H14+
195.0801	169	C14H11O+
196.0884	143	C14H12O+
202.0774	175	C16H10+
203.0854	191	C16H11+
204.0935	104	C16H12+
207.0805	226	C15H11O+
208.088	251	C15H12O+
209.096	295	C15H13O+
215.0849	175	C17H11+
221.0958	264	C16H13O+
222.1034	147	C16H14O+
223.1118	116	C16H15O+
233.0959	153	C17H13O+
235.1114	99	C17H15O+
245.0958	96	C18H13O+
247.1119	123	C18H15O+
248.1173	92	C10H17FN2O4+
