Mass spectrum: Amisulpride; LC-ESI-ITFT; MS2; CE: 75%; R=7500; [M+H]+
Name: Amisulpride
Name: 4-amino-5-esyl-N-[(1-ethylpyrrolidin-2-yl)methyl]-2-methoxy-benzamide
Formula: C17H27N3O4S
Exact mass: 369.1722
SMILES: CCN1CCCC1CNC(=O)C2=CC(=C(C=C2OC)N)S(=O)(=O)CC
InChI: InChI=1S/C17H27N3O4S/c1-4-20-8-6-7-12(20)11-19-17(21)13-9-16(25(22,23)5-2)14(18)10-15(13)24-3/h9-10,12H,4-8,11,18H2,1-3H3,(H,19,21)
Instrument: LTQ Orbitrap XL Thermo Scientific
Instrument type: LC-ESI-ITFT
Ms type: MS2
Ion mode: POSITIVE
Ionization: ESI
Fragmentation mode: HCD
Collision energy: 75 % (nominal)
Resolution: 7500
Column name: XBridge C18 3.5um, 2.1x50mm, Waters
Retention time: 3.8 min
Base peak: 370.1806
Precursor m/z: 370.1795
Precursor type: [M+H]+
m/z	relative intensity	assigned
58.0651	7	C3H8N+
66.0465	11	C5H6+
84.0807	54	C5H10N+
85.0107	3	C4H5S+
93.0572	3	C6H7N+
95.0366	6	C5H5NO+
96.0445	11	C5H6NO+
97.0519	4	C5H7NO+
98.0965	15	C6H12N+
107.9898	6	C5H2NS+
108.0442	13	C6H6NO+
110.0062	13	C5H4NS+
110.0969	4	C7H12N+
112.1121	220	C7H14N+
120.044	5	C7H6NO+
121.052	11	C7H7NO+
122.0361	12	C7H6O2+
124.0393	14	C6H6NO2+
132.0075	13	C7H2NO2+
136.0394	8	C7H6NO2+
138.0007	8	C6H4NOS+
138.0185	20	C6H4NO3+
140.0163	30	C6H6NOS+
147.0315	70	C8H5NO2+
149.0471	200	H11N3O4S+
150.0546	18	C8H8NO2+
152.034	9	C7H6NO3+
168.0114	152	C7H6NO2S+
177.9957	53	C8H4NO2S+
196.0063	999	C8H6NO3S+
197.0147	5	C8H7NO3S+
214.0167	133	C8H8NO4S+
242.0479	377	C10H12NO4S+
