Mass spectrum: Terbumeton; LC-ESI-ITFT; MS2; CE: 45%; R=15000; [M+H]+
Name: Terbumeton
Name: 2-N-tert-butyl-4-N-ethyl-6-methoxy-1,3,5-triazine-2,4-diamine
Name: 1,3,5-Triazine-2,4-diamine, N-(1,1-dimethylethyl)-N'-ethyl-6-methoxy-
Formula: C10H19N5O
Exact mass: 225.1584
SMILES: c1(nc(nc(n1)OC)NCC)NC(C)(C)C
InChI: InChI=1S/C10H19N5O/c1-6-11-7-12-8(15-10(2,3)4)14-9(13-7)16-5/h6H2,1-5H3,(H2,11,12,13,14,15)
Instrument: LTQ Orbitrap XL Thermo Scientific
Instrument type: LC-ESI-ITFT
Ms type: MS2
Ion mode: POSITIVE
Ionization: ESI
Fragmentation mode: HCD
Collision energy: 45 % (nominal)
Resolution: 15000
Column name: XBridge C18 3.5um, 2.1x50mm, Waters
Retention time: 6.7 min
Base peak: 226.1662
Precursor m/z: 226.1662
Precursor type: [M+H]+
m/z	relative intensity	assigned
57.0446	1	C2H5N2+
69.0084	1	C2HN2O+
71.0603	1	C3H7N2+
75.0553	4	C2H7N2O+
85.076	1	C4H9N2+
86.035	2	C2H4N3O+
97.0398	1	C4H5N2O+
100.0506	5	C3H6N3O+
114.0663	12	C4H8N3O+
128.0819	4	C5H10N3O+
142.0724	14	C4H8N5O+
170.1039	999	C6H12N5O+
226.1664	231	C10H20N5O+
