Mass spectrum: 4-Formylaminoantipyrine; LC-ESI-ITFT; MS2; CE: 60%; R=15000; [M+H]+
Name: 4-Formylaminoantipyrine
Name: N-(1,5-dimethyl-3-oxidanylidene-2-phenyl-pyrazol-4-yl)methanamide
Formula: C12H13N3O2
Exact mass: 231.1008
SMILES: O=C2C(\NC=O)=C(\C)N(C)N2c1ccccc1
InChI: InChI=1S/C12H13N3O2/c1-9-11(13-8-16)12(17)15(14(9)2)10-6-4-3-5-7-10/h3-8H,1-2H3,(H,13,16)
Instrument: LTQ Orbitrap XL Thermo Scientific
Instrument type: LC-ESI-ITFT
Ms type: MS2
Ion mode: POSITIVE
Ionization: ESI
Fragmentation mode: HCD
Collision energy: 60 % (nominal)
Resolution: 15000
Column name: XBridge C18 3.5um, 2.1x50mm, Waters
Retention time: 3.7 min
Base peak: 232.1088
Precursor m/z: 232.1081
Precursor type: [M+H]+
m/z	relative intensity	assigned
53.0386	6	C4H5+
56.0495	610	C3H6N+
58.0651	18	C3H8N+
68.0495	8	C4H6N+
77.0386	127	C6H5+
83.0604	833	C4H7N2+
85.076	57	C4H9N2+
94.0652	185	C6H8N+
95.0491	11	C6H7O+
104.0495	999	C7H6N+
105.0448	29	C6H5N2+
111.0554	14	C5H7N2O+
118.0651	10	C8H8N+
128.0497	6	C9H6N+
130.0651	14	C9H8N+
132.0447	5	C8H6NO+
132.0804	7	C9H10N+
145.076	31	C9H9N2+
146.06	57	C9H8NO+
158.0602	7	C10H8NO+
159.0917	101	C10H11N2+
169.0762	7	C11H9N2+
173.0713	15	C10H9N2O+
185.0706	8	C11H9N2O+
187.0867	46	C11H11N2O+
189.0897	33	C10H11N3O+
199.0744	14	C11H9N3O+
204.1131	52	C11H14N3O+
214.0975	84	C12H12N3O+
