Mass spectrum: Clopidogrel carboxylic acid; LC-ESI-ITFT; MS2; CE: 75%; R=15000; [M+H]+
Name: Clopidogrel carboxylic acid
Name: 2-(2-chlorophenyl)-2-(6,7-dihydro-4H-thieno[3,2-c]pyridin-5-yl)acetic acid
Formula: C15H14ClNO2S
Exact mass: 307.0434
SMILES: C1CN(CC2=C1SC=C2)C(C3=CC=CC=C3Cl)C(=O)O
InChI: InChI=1S/C15H14ClNO2S/c16-12-4-2-1-3-11(12)14(15(18)19)17-7-5-13-10(9-17)6-8-20-13/h1-4,6,8,14H,5,7,9H2,(H,18,19)
Instrument: LTQ Orbitrap XL Thermo Scientific
Instrument type: LC-ESI-ITFT
Ms type: MS2
Ion mode: POSITIVE
Ionization: ESI
Fragmentation mode: HCD
Collision energy: 75 % (nominal)
Resolution: 15000
Column name: XBridge C18 3.5um, 2.1x50mm, Waters
Retention time: 5.7 min
Base peak: 308.0518
Precursor m/z: 308.0507
Precursor type: [M+H]+
m/z	relative intensity	assigned
77.0387	155	C6H5+
105.0448	52	C6H5N2+
111.0266	16	C6H7S+
113.0153	528	C6H6Cl+
125.0153	703	C7H6Cl+
134.0363	31	C8H6O2+
140.0263	166	C7H7ClN+
141.0103	999	C7H6ClO+
152.0262	200	C8H7ClN+
169.0051	574	C8H6ClO2+
170.0369	41	C8H9ClNO+
