Mass spectrum: Lacosamide; LC-ESI-QFT; MS2; CE: 60; R=35000; [M-H]-
Name: Lacosamide
Name: N2-Acetyl-N-benzyl-O-methyl-D-serinamide
Name: 2-acetamido-N-benzyl-3-methoxypropanamide
Formula: C13H18N2O3
Exact mass: 250.13174
SMILES: CC(=O)NC(COC)C(=O)NCC1=CC=CC=C1
InChI: InChI=1S/C13H18N2O3/c1-10(16)15-12(9-18-2)13(17)14-8-11-6-4-3-5-7-11/h3-7,12H,8-9H2,1-2H3,(H,14,17)(H,15,16)
Instrument: Q Exactive Plus Orbitrap Thermo Scientific
Instrument type: LC-ESI-QFT
Ms type: MS2
Ion mode: NEGATIVE
Ionization: ESI
Fragmentation mode: HCD
Collision energy: 60 (nominal)
Resolution: 35000
Column name: XBridge C18 3.5um, 2.1x50mm, Waters
Retention time: 5.0 min
Base peak: 295.1293
Precursor m/z: 249.1245
Precursor type: [M-H]-
m/z	relative intensity	assigned
57.0345	246	C3H5O-
58.0298	92	C2H4NO-
59.0138	57	C2H3O2-
66.0349	9	C4H4N-
68.0142	3	C3H2NO-
68.0508	2	C4H6N-
70.0299	44	C3H4NO-
77.0396	7	C6H5-
82.0298	30	C4H4NO-
84.0454	463	C4H6NO-
85.0169	25	C3H3NO2-
86.0611	4	C4H8NO-
90.0349	8	C6H4N-
91.0553	39	C7H7-
92.0507	1	C6H6N-
93.0345	4	C6H5O-
96.0329	15	C4H4N2O-
97.0406	7	C4H5N2O-
98.0246	11	C4H4NO2-
99.0325	3	C4H5NO2-
100.0403	4	C4H6NO2-
102.0348	51	C7H4N-
104.0505	72	C7H6N-
105.0709	2	C8H9-
106.0661	3	C7H8N-
108.0217	2	C6H4O2-
108.0328	2	C5H4N2O-
110.0247	60	C5H4NO2-
111.02	291	C4H3N2O2-
112.0404	46	C5H6NO2-
114.0563	2	C5H8NO2-
116.0506	103	C8H6N-
118.03	24	C7H4NO-
118.0663	22	C8H8N-
119.0501	4	C8H7O-
120.0456	9	C7H6NO-
121.0295	36	C7H5O2-
130.0661	46	C9H8N-
131.0375	3	C8H5NO-
132.0454	72	C8H6NO-
133.0658	16	C9H9O-
134.0611	118	C8H8NO-
142.0508	13	C6H8NO3-
143.0612	2	C9H7N2-
146.0244	2	C8H4NO2-
146.0609	2	C9H8NO-
148.0768	999	C9H10NO-
150.0559	10	C8H8NO2-
156.0816	4	C11H10N-
157.0773	2	C10H9N2-
158.061	16	C10H8NO-
161.0719	8	C9H9N2O-
164.0353	4	C8H6NO3-
171.0927	86	C11H11N2-
174.0923	17	C11H12NO-
175.0876	617	C10H11N2O-
184.0641	96	C11H8N2O-
190.0873	14	C11H12NO2-
199.0876	125	C12H11N2O-
201.067	19	C11H9N2O2-
202.0748	47	C11H10N2O2-
207.1138	681	C11H15N2O2-
217.0979	8	C12H13N2O2-
