Mass spectrum: Diuron-desmethyl; LC-ESI-ITFT; MS2; CE: 90%; R=7500; [M+H]+
Name: Diuron-desmethyl
Name: DCPMU
Name: 1-(3,4-dichlorophenyl)-3-methyl-urea
Formula: C8H8Cl2N2O
Exact mass: 218.0014
SMILES: c1(cc(c(Cl)cc1)Cl)NC(NC)=O
InChI: InChI=1S/C8H8Cl2N2O/c1-11-8(13)12-5-2-3-6(9)7(10)4-5/h2-4H,1H3,(H2,11,12,13)
Instrument: LTQ Orbitrap XL Thermo Scientific
Instrument type: LC-ESI-ITFT
Ms type: MS2
Ion mode: POSITIVE
Ionization: ESI
Fragmentation mode: HCD
Collision energy: 90 % (nominal)
Resolution: 7500
Column name: XBridge C18 3.5um, 2.1x50mm, Waters
Retention time: 8.5 min
Base peak: 245.0789
Precursor m/z: 219.0086
Precursor type: [M+H]+
m/z	relative intensity	assigned
58.0288	45	C2H4NO+
91.0416	3	C6H5N+
92.0496	8	C6H6N+
98.9997	4	C5H4Cl+
100.0074	7	C5H5Cl+
108.9839	2	C6H2Cl+
125.0027	7	C6H4ClN+
127.0185	999	C6H6ClN+
132.9608	15	C5H3Cl2+
159.9715	27	C6H4Cl2N+
161.9873	26	C6H6Cl2N+
172.9667	13	C6H3Cl2N2+
