Mass spectrum: Phenylphosphonic Acid; LC-ESI-QFT; MS2; CE: 75%; R=15000; [M+H]+
Name: Phenylphosphonic Acid
Name: Benzenephosphonic acid
Formula: C6H7O3P
Exact mass: 158.0133
SMILES: C1=CC=C(C=C1)P(=O)(O)O
InChI: InChI=1S/C6H7O3P/c7-10(8,9)6-4-2-1-3-5-6/h1-5H,(H2,7,8,9)
Instrument: Orbitrap Exploris 240 Thermo Scientific
Instrument type: LC-ESI-QFT
Ms type: MS2
Ion mode: POSITIVE
Ionization: ESI
Fragmentation mode: HCD
Collision energy: 75 % (nominal)
Resolution: 15000
Column name: Atlantis C18 3um, 3.0x150mm, Waters
Retention time: 9.024 min
Base peak: 159.0205
Precursor m/z: 159.0206
Precursor type: [M+H]+
Precursor intensity: 40454812
m/z	relative intensity	assigned
53.0386	59	C4H5+
77.0386	401	C6H5+
79.0542	546	C6H7+
80.9736	85	H2O3P+
94.0412	11	C6H6O+
95.0492	197	C6H7O+
98.9841	201	
105.0447	266	
141.01	422	C6H6O2P+
159.0206	999	C6H8O3P+
173.0366	23	
