Mass spectrum: Halosulfuron-Methyl; LC-ESI-QFT; MS2; CE: 60%; R=17500; [M+H]+
Name: Halosulfuron-Methyl
Name: methyl 3-chloro-5-[(4,6-dimethoxypyrimidin-2-yl)carbamoylsulfamoyl]-1-methylpyrazole-4-carboxylate
Formula: C13H15ClN6O7S
Exact mass: 434.0411
SMILES: CN1C(=C(C(=N1)Cl)C(=O)OC)S(=O)(=O)NC(=O)NC2=NC(=CC(=N2)OC)OC
InChI: InChI=1S/C13H15ClN6O7S/c1-20-10(8(9(14)18-20)11(21)27-4)28(23,24)19-13(22)17-12-15-6(25-2)5-7(16-12)26-3/h5H,1-4H3,(H2,15,16,17,19,22)
Instrument: Exploris 240 Orbitrap Thermo Scientific
Instrument type: LC-ESI-QFT
Ms type: MS2
Ion mode: POSITIVE
Ionization: ESI
Fragmentation mode: HCD
Collision energy: 60 % (nominal)
Resolution: 17500
Column name: XBridge C18 3.5um, 2.1x50mm, Waters
Retention time: 10.024 min
Base peak: 435.048
Precursor m/z: 435.0484
Precursor type: [M+H]+
m/z	relative intensity	assigned
71.0603	10	C3H7N2+
82.0287	9	C4H4NO+
83.0239	391	C3H3N2O+
100.0392	13	C4H6NO2+
126.0182	4	C5H4NO3+
139.05	249	C6H7N2O2+
156.0765	23	C6H10N3O2+
157.0606	160	C6H9N2O3+
171.0759	7	C2H12ClN6O+
182.0558	999	C7H8N3O3+
221.9737	21	C5H5ClN3O3S+
247.9526	13	C6H3ClN3O4S+
