Mass spectrum: Ketamine; LC-ESI-ITFT; MS2; CE: 75%; R=7500; [M+H]+
Name: Ketamine
Name: 2-(2-chlorophenyl)-2-(methylamino)-1-cyclohexanone
Formula: C13H16ClNO
Exact mass: 237.0920
SMILES: CNC1(CCCCC1=O)C2=CC=CC=C2Cl
InChI: InChI=1S/C13H16ClNO/c1-15-13(9-5-4-8-12(13)16)10-6-2-3-7-11(10)14/h2-3,6-7,15H,4-5,8-9H2,1H3
Instrument: LTQ Orbitrap XL Thermo Scientific
Instrument type: LC-ESI-ITFT
Ms type: MS2
Ion mode: POSITIVE
Ionization: ESI
Fragmentation mode: HCD
Collision energy: 75 % (nominal)
Resolution: 7500
Column name: XBridge C18 3.5um, 2.1x50mm, Waters
Retention time: 4.6 min
Base peak: 238.0997
Precursor m/z: 238.0993
Precursor type: [M+H]+
m/z	relative intensity	assigned
67.0543	23	C5H7+
89.0388	2	C7H5+
115.0543	20	C9H7+
116.062	27	C9H8+
125.0153	999	C7H6Cl+
127.054	4	C10H7+
128.062	48	C10H8+
129.0699	39	C10H9+
130.0779	28	C10H10+
137.0155	4	C8H6Cl+
138.9946	7	C7H4ClO+
141.0102	35	C7H6ClO+
141.0703	2	C11H9+
142.0775	7	C11H10+
143.0855	10	C11H11+
144.0562	4	C8H6N3+
144.0934	27	C11H12+
149.0152	14	C9H6Cl+
151.0309	76	C9H8Cl+
152.0262	48	C8H7ClN+
152.0623	7	C12H8+
153.07	29	C12H9+
154.0778	45	C12H10+
155.0602	22	C10H7N2+
156.0937	11	C12H12+
157.0888	10	C11H11N+
163.0309	101	C10H8Cl+
165.0102	52	C9H6ClO+
165.0466	22	C10H10Cl+
172.0874	4	C12H12O+
176.0381	2	C11H9Cl+
179.062	19	C11H12Cl+
189.0463	10	C12H10Cl+
192.0574	2	C11H11ClN+
207.0575	5	C12H12ClO+
220.0893	9	C13H15ClN+
