Mass spectrum: 4-Aminoantipyrine; LC-ESI-ITFT; MS2; CE: 60%; R=15000; [M+H]+
Name: 4-Aminoantipyrine
Name: 4-amino-1,5-dimethyl-2-phenyl-3-pyrazolin-3-one
Formula: C11H13N3O
Exact mass: 203.1059
SMILES: c(ccc1N(N(C=2C)C)C(=O)C2N)cc1
InChI: InChI=1S/C11H13N3O/c1-8-10(12)11(15)14(13(8)2)9-6-4-3-5-7-9/h3-7H,12H2,1-2H3
Instrument: LTQ Orbitrap XL Thermo Scientific
Instrument type: LC-ESI-ITFT
Ms type: MS2
Ion mode: POSITIVE
Ionization: ESI
Fragmentation mode: HCD
Collision energy: 60 % (nominal)
Resolution: 15000
Column name: XBridge C18 3.5um, 2.1x50mm, Waters
Retention time: 2.6 min
Base peak: 204.1138
Precursor m/z: 204.1131
Precursor type: [M+H]+
m/z	relative intensity	assigned
56.0495	999	C3H6N+
58.0651	49	C3H8N+
68.0495	25	C4H6N+
77.0385	14	C6H5+
83.0604	166	C4H7N2+
85.076	70	C4H9N2+
94.0651	377	C6H8N+
104.0495	102	C7H6N+
111.0553	21	C5H7N2O+
115.0542	5	C9H7+
118.0651	30	C8H8N+
122.0602	5	C7H8NO+
128.0494	27	C9H6N+
130.0652	23	C9H8N+
131.0598	5	C8H7N2+
132.0448	10	C8H6NO+
132.0809	17	C9H10N+
145.0761	36	C9H9N2+
146.06	107	C9H8NO+
158.0601	21	C10H8NO+
159.0917	144	C10H11N2+
160.0868	4	C9H10N3+
173.0708	14	C10H9N2O+
185.0707	8	C11H9N2O+
187.0864	21	C11H11N2O+
189.0898	39	C10H11N3O+
