Mass spectrum: Dimethomorph; LC-ESI-ITFT; MS2; CE: 60%; R=15000; [M+H]+
Name: Dimethomorph
Name: (Z)-3-(4-chlorophenyl)-3-(3,4-dimethoxyphenyl)-1-(4-morpholinyl)-2-propen-1-one
Formula: C21H22ClNO4
Exact mass: 387.1237
SMILES: COC1=C(C=C(C=C1)/C(=C/C(=O)N2CCOCC2)/C3=CC=C(C=C3)Cl)OC
InChI: InChI=1S/C21H22ClNO4/c1-25-19-8-5-16(13-20(19)26-2)18(15-3-6-17(22)7-4-15)14-21(24)23-9-11-27-12-10-23/h3-8,13-14H,9-12H2,1-2H3/b18-14+
Instrument: LTQ Orbitrap XL Thermo Scientific
Instrument type: LC-ESI-ITFT
Ms type: MS2
Ion mode: POSITIVE
Ionization: ESI
Fragmentation mode: HCD
Collision energy: 60 % (nominal)
Resolution: 15000
Column name: XBridge C18 3.5um, 2.1x50mm, Waters
Retention time: 10.8 min
Base peak: 388.1318
Precursor m/z: 388.131
Precursor type: [M+H]+
m/z	relative intensity	assigned
70.0288	78	C3H4NO+
77.0385	2	C6H5+
79.0542	2	C6H7+
86.0601	1	C4H8NO+
105.045	1	C6H5N2+
109.0648	5	C7H9O+
110.9995	2	C6H4Cl+
114.055	44	C5H8NO2+
121.0284	2	C7H5O2+
122.0362	11	C7H6O2+
125.0153	89	C7H6Cl+
131.0493	2	C9H7O+
135.0435	1	C8H7O2+
137.0152	5	C8H6Cl+
137.0597	25	C8H9O2+
138.9946	280	C7H4ClO+
150.0309	1	C8H6O3+
152.0614	1	C12H8+
155.0702	1	C8H11O3+
162.9946	5	C9H4ClO+
165.0546	999	C9H9O3+
166.0785	1	C13H10+
167.0855	11	C13H11+
177.0703	3	C14H9+
178.0778	7	C14H10+
179.0857	3	C14H11+
181.0646	1	C13H9O+
187.0309	2	C12H8Cl+
194.0719	2	C14H10O+
195.0805	36	C14H11O+
199.0307	7	C13H8Cl+
200.0386	1	C13H9Cl+
201.0465	4	C13H10Cl+
205.0646	2	C15H9O+
206.0723	2	C15H10O+
207.0802	3	C15H11O+
208.0524	2	C11H11ClNO+
208.0882	2	C15H12O+
209.0963	2	C15H13O+
210.1035	4	C15H14O+
212.039	4	C14H9Cl+
213.0467	6	C14H10Cl+
215.0259	42	C13H8ClO+
223.0753	56	C15H11O2+
226.018	4	C14H7ClO+
227.0258	22	C14H8ClO+
228.0335	11	C14H9ClO+
229.0415	20	C14H10ClO+
230.0492	10	C14H11ClO+
235.0753	19	C16H11O2+
237.0918	1	C13H16ClNO+
238.0988	105	C16H14O2+
239.0248	2	C15H8ClO+
240.0336	7	C15H9ClO+
241.0415	11	C15H10ClO+
242.0493	230	C15H11ClO+
243.0207	73	C14H8ClO2+
243.057	12	C15H12ClO+
251.07	9	C16H11O3+
255.0203	1	C15H8ClO2+
256.0283	7	C15H9ClO2+
257.0364	41	C15H10ClO2+
258.0442	214	C15H11ClO2+
261.0677	3	C15H14ClO2+
266.0936	20	C17H14O3+
269.0368	4	C16H10ClO2+
270.0441	36	C16H11ClO2+
271.0154	4	C15H8ClO3+
271.0532	2	C16H12ClO2+
273.0676	226	C16H14ClO2+
285.031	8	C16H10ClO3+
286.039	18	C16H11ClO3+
287.0466	1	C16H12ClO3+
301.0626	154	C17H14ClO3+
