Mass spectrum: Lamotrigine; LC-ESI-ITFT; MS2; CE: 45%; R=7500; [M+H]+
Name: Lamotrigine
Name: 6-(2,3-dichlorophenyl)-1,2,4-triazine-3,5-diamine
Formula: C9H7Cl2N5
Exact mass: 255.0079
SMILES: Cl-c(ccc1)c(Cl)c1-c(nnc2N)c(n2)N
InChI: InChI=1S/C9H7Cl2N5/c10-5-3-1-2-4(6(5)11)7-8(12)14-9(13)16-15-7/h1-3H,(H4,12,13,14,16)
Instrument: LTQ Orbitrap XL Thermo Scientific
Instrument type: LC-ESI-ITFT
Ms type: MS2
Ion mode: POSITIVE
Ionization: ESI
Fragmentation mode: HCD
Collision energy: 45 % (nominal)
Resolution: 7500
Column name: XBridge C18 3.5um, 2.1x50mm, Waters
Retention time: 5.4 min
Base peak: 256.016
Precursor m/z: 256.0151
Precursor type: [M+H]+
m/z	relative intensity	assigned
58.0399	1	CH4N3+
151.019	3	C8H6ClN+
158.9761	5	C7H5Cl2+
165.0216	5	C8H6ClN2+
166.0294	10	C8H7ClN2+
171.9716	7	C7H4Cl2N+
173.9865	4	C7H6Cl2N+
183.9713	4	C8H4Cl2N+
185.987	9	C8H6Cl2N+
186.9824	12	C7H5Cl2N2+
193.0401	3	C9H8ClN3+
210.9825	21	C9H5Cl2N2+
211.9767	2	C8H4Cl2N3+
213.9937	3	C8H6Cl2N3+
220.0384	9	C9H7ClN5+
229.0035	4	C8H7Cl2N4+
256.0154	999	C9H8Cl2N5+
