Mass spectrum: Ethoprop; LC-ESI-QFT; MS2; CE: 150; R=35000; [M+H]+
Name: Ethoprop
Name: 1-[ethoxy(propylsulfanyl)phosphoryl]sulfanylpropane
Formula: C8H19O2PS2
Exact mass: 242.05641
SMILES: CCCSP(=O)(OCC)SCCC
InChI: InChI=1S/C8H19O2PS2/c1-4-7-12-11(9,10-6-3)13-8-5-2/h4-8H2,1-3H3
Instrument: Q Exactive Plus Orbitrap Thermo Scientific
Instrument type: LC-ESI-QFT
Ms type: MS2
Ion mode: POSITIVE
Ionization: ESI
Fragmentation mode: HCD
Collision energy: 150 (nominal)
Resolution: 35000
Column name: XBridge C18 3.5um, 2.1x50mm, Waters
Retention time: 11.5 min
Base peak: 243.0634
Precursor m/z: 243.0637
Precursor type: [M+H]+
m/z	relative intensity	assigned
53.0023	29	C3HO+
53.9975	7	C2NO+
62.9453	13	PS+
64.9788	999	H2O2P+
67.9893	3	C3O2+
78.9403	342	OPS+
79.9481	6	HOPS+
80.9558	1	H2OPS+
80.9736	1	H2O3P+
94.9175	354	PS2+
96.9509	288	H2O2PS+
110.9665	7	CH4O2PS+
112.928	22	H2OPS2+
114.9614	807	H4O3PS+
128.9771	11	CH6O3PS+
