Mass spectrum: Cyclophosphamide; LC-ESI-ITFT; MS2; CE: 35%; R=7500; [M+H]+
Name: Cyclophosphamide
Name: N,N-bis(2-chloroethyl)-2-oxidanylidene-1,3,2$l^{5}-oxazaphosphinan-2-amine
Formula: C7H15Cl2N2O2P
Exact mass: 260.0248
SMILES: ClCCN(CCCl)P1(=O)NCCCO1
InChI: InChI=1S/C7H15Cl2N2O2P/c8-2-5-11(6-3-9)14(12)10-4-1-7-13-14/h1-7H2,(H,10,12)
Instrument: LTQ Orbitrap XL Thermo Scientific
Instrument type: LC-ESI-ITFT
Ms type: MS2
Ion mode: POSITIVE
Ionization: ESI
Fragmentation mode: CID
Collision energy: 35 % (nominal)
Resolution: 7500
Column name: XBridge C18 3.5um, 2.1x50mm, Waters
Retention time: 6.3 min
Base peak: 261.0328
Precursor m/z: 261.0321
Precursor type: [M+H]+
m/z	relative intensity	assigned
62.9993	2	CH4OP+
78.0105	4	C2H5ClN+
94.0048	1	C5H2O2+
106.0419	313	C4H9ClN+
110.0002	2	C2H5ClNO2+
120.021	18	C3H7NO2P+
138.0314	1	C4H9ClNO2+
140.003	609	C4H8Cl2N+
142.0186	248	C4H10Cl2N+
155.9975	3	C3H8ClNO2P+
171.0079	2	C3H9ClN2O2P+
185.0242	20	C4H11ClN2O2P+
197.0243	1	C6H11Cl2N2O+
199.0397	13	C5H13ClN2O2P+
225.0557	4	C7H15ClN2O2P+
233.001	999	C5H12Cl2N2O2P+
