Mass spectrum: Acetochlor; LC-ESI-ITFT; MS2; CE: 45%; R=7500; [M+H]+
Name: Acetochlor
Name: 2-chloranyl-N-(ethoxymethyl)-N-(2-ethyl-6-methyl-phenyl)ethanamide
Formula: C14H20ClNO2
Exact mass: 269.1177
SMILES: CCOCN(C(=O)CCl)C1=C(C)C=CC=C1CC
InChI: InChI=1S/C14H20ClNO2/c1-4-12-8-6-7-11(3)14(12)16(10-18-5-2)13(17)9-15/h6-8H,4-5,9-10H2,1-3H3
Instrument: LTQ Orbitrap XL Thermo Scientific
Instrument type: LC-ESI-ITFT
Ms type: MS2
Ion mode: POSITIVE
Ionization: ESI
Fragmentation mode: HCD
Collision energy: 45 % (nominal)
Resolution: 7500
Column name: XBridge C18 3.5um, 2.1x50mm, Waters
Retention time: 11.7 min
Base peak: 292.1079
Precursor m/z: 270.1255
Precursor type: [M+H]+
m/z	relative intensity	assigned
59.0491	48	C3H7O+
90.0106	58	C3H5ClN+
131.0855	44	C10H11+
132.081	16	C9H10N+
133.0885	43	C9H11N+
146.0968	12	C10H12N+
147.1037	21	C10H13N+
148.1121	999	C10H14N+
149.0959	79	C10H13O+
188.1065	10	C12H14NO+
194.073	14	C11H13ClN+
206.0727	30	C12H13ClN+
224.0836	254	C12H15ClNO+
