Mass spectrum: Ioxitalamic acid; LC-ESI-ITFT; MS2; CE: 75%; R=7500; [M+H]+
Name: Ioxitalamic acid
Name: 3-acetamido-5-(2-hydroxyethylcarbamoyl)-2,4,6-triiodo-benzoic acid
Formula: C12H11I3N2O5
Exact mass: 643.7802
SMILES: CC(=O)NC1=C(I)C(C(O)=O)=C(I)C(C(=O)NCCO)=C1I
InChI: InChI=1S/C12H11I3N2O5/c1-4(19)17-10-8(14)5(11(20)16-2-3-18)7(13)6(9(10)15)12(21)22/h18H,2-3H2,1H3,(H,16,20)(H,17,19)(H,21,22)
Instrument: LTQ Orbitrap XL Thermo Scientific
Instrument type: LC-ESI-ITFT
Ms type: MS2
Ion mode: POSITIVE
Ionization: ESI
Fragmentation mode: HCD
Collision energy: 75 % (nominal)
Resolution: 7500
Column name: XBridge C18 3.5um, 2.1x50mm, Waters
Retention time: 1.3 min
Base peak: 132.958
Precursor m/z: 644.7875
Precursor type: [M+H]+
m/z	relative intensity	assigned
65.0262	70	C4H3N+
77.0023	115	C5HO+
92.0126	68	C5H2NO+
105.0209	361	C6H3NO+
130.0289	76	C8H4NO+
131.0365	186	C8H5NO+
147.0315	381	C8H5NO2+
158.0236	132	C9H4NO2+
174.0191	203	C9H4NO3+
175.0268	122	C9H5NO3+
176.0336	62	C9H6NO3+
203.9298	66	C5H3IN+
204.9152	158	C5H2IO+
231.926	364	C6H3INO+
232.91	48	C6H2IO2+
245.9407	236	C7H5INO+
257.9413	510	C8H5INO+
273.936	999	C8H5INO2+
301.9307	757	C9H5INO3+
