Mass spectrum: Ranitidine N-oxide; LC-ESI-ITFT; MS2; CE: 60%; R=15000; [M+H]+
Name: Ranitidine N-oxide
Name: 1,1-Ethenediamine, N-(2-(((5-((dimethylamino)methyl)-2-furanyl)methyl)thio)ethyl)-N'-methyl-2-nitro-, N-oxide
Formula: C13H22N4O4S
Exact mass: 330.1362
SMILES: c1(oc(CSCCN\C(=C\[N+](=O)[O-])NC)cc1)CN(C)(C)=O
InChI: InChI=1S/C13H22N4O4S/c1-14-13(8-16(18)19)15-6-7-22-10-12-5-4-11(21-12)9-17(2,3)20/h4-5,8,14-15H,6-7,9-10H2,1-3H3/b13-8+
Instrument: LTQ Orbitrap XL Thermo Scientific
Instrument type: LC-ESI-ITFT
Ms type: MS2
Ion mode: POSITIVE
Ionization: ESI
Fragmentation mode: HCD
Collision energy: 60 % (nominal)
Resolution: 15000
Column name: XBridge C18 3.5um, 2.1x50mm, Waters
Retention time: 2.4 min
Base peak: 331.1444
Precursor m/z: 331.1435
Precursor type: [M+H]+
m/z	relative intensity	assigned
55.0417	32	C3H5N+
56.0494	18	C3H6N+
61.0106	15	C2H5S+
71.0602	16	C3H7N2+
81.0335	269	C5H5O+
83.0605	22	C4H7N2+
84.0682	46	C4H8N2+
88.0216	12	C3H6NS+
95.0492	48	C6H7O+
97.076	308	C5H9N2+
98.0838	294	C5H10N2+
101.0297	15	C4H7NS+
102.0372	999	C4H8NS+
107.0492	97	C7H7O+
110.0602	31	C6H8NO+
115.0323	19	C4H7N2S+
121.076	53	C7H9N2+
124.0757	46	C7H10NO+
125.0056	957	C6H5OS+
129.0482	30	C5H9N2S+
130.0559	312	C5H10N2S+
131.0636	17	C5H11N2S+
133.0523	19	C8H7NO+
135.0261	23	C8H7S+
135.0917	93	C8H11N2+
147.0678	29	C9H9NO+
148.0758	148	C9H10NO+
149.0709	52	C8H9N2O+
151.0208	16	C8H7OS+
153.0369	17	C8H9OS+
163.0865	64	C9H11N2O+
164.0944	54	C9H12N2O+
165.1023	156	C9H13N2O+
167.0637	52	C8H11N2S+
176.0489	112	C5H10N3O2S+
177.1023	153	C10H13N2O+
178.0318	31	C9H8NOS+
181.0796	56	C9H13N2S+
191.118	126	C11H15N2O+
192.0478	33	C10H10NOS+
223.0889	15	C11H15N2OS+
