Mass spectrum: Imibenconazole; LC-ESI-QFT; MS2; CE: 120%; R=17500; [M+H]+
Name: Imibenconazole
Name: (4-chlorophenyl)methyl N-(2,4-dichlorophenyl)-2-(1,2,4-triazol-1-yl)ethanimidothioate
Formula: C17H13Cl3N4S
Exact mass: 409.9927
SMILES: C1=CC(=CC=C1CSC(=NC2=C(C=C(C=C2)Cl)Cl)CN3C=NC=N3)Cl
InChI: InChI=1S/C17H13Cl3N4S/c18-13-3-1-12(2-4-13)9-25-17(8-24-11-21-10-22-24)23-16-6-5-14(19)7-15(16)20/h1-7,10-11H,8-9H2
Instrument: Exploris 240 Orbitrap Thermo Scientific
Instrument type: LC-ESI-QFT
Ms type: MS2
Ion mode: POSITIVE
Ionization: ESI
Fragmentation mode: HCD
Collision energy: 120 % (nominal)
Resolution: 17500
Column name: XBridge C18 3.5um, 2.1x50mm, Waters
Retention time: 13.632 min
Base peak: 410.9998
Precursor m/z: 410.9999
Precursor type: [M+H]+
m/z	relative intensity	assigned
63.0229	38	C5H3+
65.0387	19	C5H5+
70.04	30	C2H4N3+
72.9839	18	C3H2Cl+
74.9995	11	C3H4Cl+
82.0401	10	C3H4N3+
84.0553	6	C3H6N3+
89.0386	394	C7H5+
90.0464	120	C7H6+
98.9996	207	C5H4Cl+
125.0152	999	C7H6Cl+
138.0104	6	C7H5ClN+
154.9714	11	C7H4ClS+
