Mass spectrum: Malaoxon; LC-ESI-QFT; MS2; CE: 180; R=35000; [M+H]+
Name: Malaoxon
Name: Diethyl 2-dimethoxyphosphorylsulfanylbutanedioate
Formula: C10H19O7PS
Exact mass: 314.05891
SMILES: CCOC(=O)CC(C(=O)OCC)SP(=O)(OC)OC
InChI: InChI=1S/C10H19O7PS/c1-5-16-9(11)7-8(10(12)17-6-2)19-18(13,14-3)15-4/h8H,5-7H2,1-4H3
Instrument: Q Exactive Plus Orbitrap Thermo Scientific
Instrument type: LC-ESI-QFT
Ms type: MS2
Ion mode: POSITIVE
Ionization: ESI
Fragmentation mode: HCD
Collision energy: 180 (nominal)
Resolution: 35000
Column name: XBridge C18 3.5um, 2.1x50mm, Waters
Retention time: 7.1 min
Base peak: 315.0654
Precursor m/z: 315.0662
Precursor type: [M+H]+
m/z	relative intensity	assigned
53.0022	999	C3HO+
55.0179	50	C3H3O+
56.9793	43	C2HS+
57.9872	137	C2H2S+
58.995	133	C2H3S+
59.9664	48	COS+
62.9452	25	PS+
62.9994	38	CH4OP+
64.9787	76	H2O2P+
68.9793	62	C3HS+
71.0127	448	C3H3O2+
78.9943	163	CH4O2P+
84.9742	13	C3HOS+
93.01	9	C2H6O2P+
99.0076	10	C4H3O3+
128.9767	7	CH6O3PS+
