Mass spectrum: Dicloxacillin; LC-ESI-QFT; MS2; CE: 75; R=35000; [M+H]+
Name: Dicloxacillin
Name: 6-[[3-(2,6-dichlorophenyl)-5-methyl-1,2-oxazole-4-carbonyl]amino]-3,3-dimethyl-7-oxo-4-thia-1-azabicyclo[3.2.0]heptane-2-carboxylic acid
Formula: C19H17Cl2N3O5S
Exact mass: 469.02660
SMILES: CC1=C(C(=NO1)C2=C(C=CC=C2Cl)Cl)C(=O)NC3C4N(C3=O)C(C(S4)(C)C)C(=O)O
InChI: InChI=1S/C19H17Cl2N3O5S/c1-7-10(12(23-29-7)11-8(20)5-4-6-9(11)21)15(25)22-13-16(26)24-14(18(27)28)19(2,3)30-17(13)24/h4-6,13-14,17H,1-3H3,(H,22,25)(H,27,28)
Instrument: Q Exactive Plus Orbitrap Thermo Scientific
Instrument type: LC-ESI-QFT
Ms type: MS2
Ion mode: POSITIVE
Ionization: ESI
Fragmentation mode: HCD
Collision energy: 75 (nominal)
Resolution: 35000
Column name: XBridge C18 3.5um, 2.1x50mm, Waters
Retention time: 9.6 min
Base peak: 470.0332
Precursor m/z: 470.0339
Precursor type: [M+H]+
m/z	relative intensity	assigned
53.0386	46	C4H5+
54.0339	6	C3H4N+
55.0543	6	C4H7+
58.995	26	C2H3S+
59.9665	1	COS+
62.0059	3	CH4NS+
68.0495	2	C4H6N+
69.0448	8	C3H5N2+
70.0651	104	C4H8N+
70.9948	1	C3H3S+
71.0491	6	C4H7O+
72.0444	1	C3H6NO+
72.0809	2	C4H10N+
72.9839	1	C3H2Cl+
75.023	1	C6H3+
75.0263	2	C3H7S+
80.0495	2	C5H6N+
81.0336	1	C5H5O+
81.0448	9	C4H5N2+
81.0574	3	C5H7N+
82.0652	2	C5H8N+
84.9839	9	C4H2Cl+
85.0107	16	C4H5S+
87.0263	402	C4H7S+
94.0652	1	C6H8N+
96.0444	1	C5H6NO+
98.0601	14	C5H8NO+
98.9995	1	C5H4Cl+
99.0264	1	C5H7S+
99.0441	6	C5H7O2+
108.984	19	C6H2Cl+
112.979	1	C5H2ClO+
113.0296	3	C5H7NS+
114.0373	999	C5H8NS+
120.9607	3	C4H3Cl2+
122.9997	2	C7H4Cl+
123.995	8	C6H3ClN+
126.0336	1	C9H4N+
126.9947	3	C6H4ClO+
127.0417	13	C9H5N+
128.0024	5	C6H5ClO+
128.0495	2	C9H6N+
132.9606	3	C5H3Cl2+
136.0076	11	C8H5Cl+
142.0323	22	C6H8NOS+
144.9606	15	C6H3Cl2+
145.9684	2	C6H4Cl2+
147.9949	25	C8H3ClN+
149.0028	18	C8H4ClN+
150.0108	2	C8H5ClN+
151.0184	21	C8H6ClN+
154.0402	4	C9H4N3+
155.0605	9	C10H7N2+
156.9608	161	C7H3Cl2+
157.9557	3	C6H2Cl2N+
158.9764	10	C7H5Cl2+
159.9716	1	C6H4Cl2N+
160.0428	28	C6H10NO2S+
162.0106	7	C9H5ClN+
162.9713	10	C6H5Cl2O+
163.006	2	C5H7O4S+
163.0184	14	C9H6ClN+
164.0011	12	C7H3ClN3+
164.0263	2	C9H7ClN+
166.0055	7	C8H5ClNO+
167.0136	2	C5H9Cl2N2+
170.9764	13	C8H5Cl2+
171.9716	76	C7H4Cl2N+
172.9669	151	C3H6ClO4S+
177.0342	2	C10H8ClN+
178.0053	2	C9H5ClNO+
183.9717	330	C8H4Cl2N+
185.9873	55	C8H6Cl2N+
189.0215	6	C7H9O4S+
192.0212	2	C10H7ClNO+
195.9717	144	C9H4Cl2N+
197.9873	228	C12H3ClO+
201.9824	5	C8H6Cl2NO+
209.9874	41	C10H6Cl2N+
210.9822	2	C9H5Cl2N2+
211.9666	167	C9H4Cl2NO+
212.9982	3	C9H7Cl2N2+
213.9822	46	C9H6Cl2NO+
215.9978	4	C9H8Cl2NO+
222.9824	5	C10H5Cl2N2+
237.9822	1	C11H6Cl2NO+
258.043	1	C10H12NO5S+
