Mass spectrum: Naptalam; LC-ESI-QFT; MS2; CE: 75; R=35000; [M+H]+
Name: Naptalam
Name: 2-(1-naphthylcarbamoyl)benzoic acid
Formula: C18H13NO3
Exact mass: 291.08954
SMILES: O=C(O)c1ccccc1C(=O)Nc3cccc2ccccc23
InChI: InChI=1S/C18H13NO3/c20-17(14-9-3-4-10-15(14)18(21)22)19-16-11-5-7-12-6-1-2-8-13(12)16/h1-11H,(H,19,20)(H,21,22)
Instrument: Q Exactive Orbitrap Thermo Scientific
Instrument type: LC-ESI-QFT
Ms type: MS2
Ion mode: POSITIVE
Ionization: ESI
Fragmentation mode: HCD
Collision energy: 75 (nominal)
Resolution: 35000
Column name: XBridge C18 3.5um, 2.1x50mm, Waters
Retention time: 7.2 min
Base peak: 292.0968
Precursor m/z: 292.0968
Precursor type: [M+H]+
m/z	relative intensity	assigned
65.0385	190	C5H5+
77.0384	1	C6H5+
91.0541	1	C7H7+
93.0334	79	C6H5O+
95.0491	10	C6H7O+
98.0361	4	C5H6O2+
103.0542	25	C8H7+
105.0335	13	C7H5O+
105.0448	3	C6H5N2+
111.044	79	C6H7O2+
115.0541	11	C9H7+
116.0493	1	C8H6N+
117.0698	92	C9H9+
120.0443	3	C7H6NO+
121.0283	444	C7H5O2+
121.0395	104	C6H5N2O+
126.0463	3	C10H6+
127.0542	62	C10H7+
128.0619	10	C10H8+
130.0287	42	C8H4NO+
130.0399	7	C7H4N3+
140.0493	3	C10H6N+
143.073	125	C10H9N+
144.0807	763	C10H10N+
145.0647	346	C10H9O+
149.0233	999	C8H5O3+
155.0602	210	C10H7N2+
156.0573	1	C11H8O+
167.0338	8	C8H7O4+
191.0854	2	C15H11+
200.0615	1	C16H8+
201.0698	14	C16H9+
202.0772	5	C16H10+
205.0649	4	C15H9O+
217.0885	8	C16H11N+
218.0961	1	C16H12N+
219.0804	34	C16H11O+
227.0728	74	C17H9N+
228.0807	61	C17H10N+
229.0761	10	C16H9N2+
244.0757	3	C17H10NO+
245.0832	1	C17H11NO+
246.0912	12	C17H12NO+
256.0756	342	C18H10NO+
274.0865	5	C18H12NO2+
