Mass spectrum: Olopatadine; LC-ESI-QFT; MS2; CE: 15; R=35000; [M-H]-
Name: Olopatadine
Name: 2-[(11Z)-11-[3-(dimethylazaniumyl)propylidene]-6H-benzo[c][1]benzoxepin-2-yl]acetate
Formula: C21H23NO3
Exact mass: 337.16779
SMILES: CN(C)CC/C=C\1/C2=CC=CC=C2COC3=C1C=C(C=C3)CC(=O)O
InChI: InChI=1S/C21H23NO3/c1-22(2)11-5-8-18-17-7-4-3-6-16(17)14-25-20-10-9-15(12-19(18)20)13-21(23)24/h3-4,6-10,12H,5,11,13-14H2,1-2H3,(H,23,24)/b18-8-
Instrument: Q Exactive Orbitrap Thermo Scientific
Instrument type: LC-ESI-QFT
Ms type: MS2
Ion mode: NEGATIVE
Ionization: ESI
Fragmentation mode: HCD
Collision energy: 15 (nominal)
Resolution: 35000
Column name: XBridge C18 3.5um, 2.1x50mm, Waters
Retention time: 7.0 min
Base peak: 336.1606
Precursor m/z: 336.1605
Precursor type: [M-H]-
m/z	relative intensity	assigned
206.0738	2	C15H10O-
207.0817	3	C15H11O-
208.0892	7	C15H12O-
216.0943	1	C17H12-
219.0813	7	C16H11O-
220.0892	1	C16H12O-
221.0609	2	C15H9O2-
229.102	5	C18H13-
247.1127	76	C18H15O-
248.1207	2	C18H16O-
250.16	1	C18H20N-
264.1756	2	C19H22N-
274.1601	40	C20H20N-
280.1093	1	C18H16O3-
290.1552	1	C20H20NO-
292.1705	999	C20H22NO-
306.1506	2	C20H20NO2-
336.1604	11	C21H22NO3-
