Mass spectrum: Trifloxystrobin; LC-ESI-QFT; MS2; CE: 60; R=35000; [M+H]+
Name: Trifloxystrobin
Name: Benzeneacetic acid, alpha-(methoxyimino)-2-((((1-(3-(trifluoromethyl)phenyl)ethylidene)amino)oxy)methyl)-, methyl ester, (E,E)-
Name: (2Z)-2-methoxyimino-2-[2-[[(E)-1-[3-(trifluoromethyl)phenyl]ethylideneamino]oxymethyl]phenyl]acetic acid methyl ester
Formula: C20H19F3N2O4
Exact mass: 408.12969
SMILES: c1(C(F)(F)F)cc(ccc1)\C(=N\OCc1c(cccc1)\C(C(=O)OC)=N\OC)C
InChI: InChI=1S/C20H19F3N2O4/c1-13(14-8-6-9-16(11-14)20(21,22)23)24-29-12-15-7-4-5-10-17(15)18(25-28-3)19(26)27-2/h4-11H,12H2,1-3H3/b24-13+,25-18-
Instrument: Q Exactive Orbitrap Thermo Scientific
Instrument type: LC-ESI-QFT
Ms type: MS2
Ion mode: POSITIVE
Ionization: ESI
Fragmentation mode: HCD
Collision energy: 60 (nominal)
Resolution: 35000
Column name: XBridge C18 3.5um, 2.1x50mm, Waters
Retention time: 14.7 min
Base peak: 409.1362
Precursor m/z: 409.137
Precursor type: [M+H]+
m/z	relative intensity	assigned
63.0228	3	C5H3+
65.0385	5	C5H5+
66.0463	1	C5H6+
74.0149	1	C6H2+
75.0226	1	C6H3+
77.0384	3	C6H5+
78.0462	1	C6H6+
79.054	10	C6H7+
89.0383	68	C7H5+
90.0462	18	C7H6+
91.054	81	C7H7+
95.0286	1	CH3F2N3+
95.0489	4	C6H7O+
101.0195	6	C5H3F2+
103.0539	14	C8H7+
104.0493	1	C7H6N+
104.0618	8	C8H8+
105.0445	3	C6H5N2+
105.0697	27	C8H9+
109.0446	4	C7H6F+
109.0645	3	C7H9O+
113.0395	3	C6H6FO+
115.0413	1	C8H5N+
115.0539	8	C9H7+
116.0492	322	C8H6N+
117.057	95	C8H7N+
118.0648	96	C8H8N+
119.0489	21	C8H7O+
119.0601	1	C7H7N2+
119.0726	1	C8H9N+
121.0259	1	C5H4F3+
123.035	7	C6H4FN2+
125.0196	7	C7H3F2+
128.049	3	C9H6N+
130.0649	82	C9H8N+
131.0726	270	C9H9N+
132.044	28	C8H6NO+
132.0804	66	C9H10N+
133.0516	3	C8H7NO+
134.0597	14	C8H8NO+
143.03	5	C7H5F2O+
144.044	1	C9H6NO+
145.0256	999	C7H4F3+
146.0596	60	C9H8NO+
147.0675	14	C9H9NO+
148.0753	3	C9H10NO+
159.0412	4	C8H6F3+
161.0467	21	C9H7NO2+
163.036	27	C7H6F3O+
173.0317	212	C7H4F3N2+
178.0856	1	C10H12NO2+
186.0521	511	C9H7F3N+
206.0808	1	C11H12NO3+
