Mass spectrum: Clozapine; LC-ESI-ITFT; MS2; CE: 60%; R=15000; [M+H]+
Name: Clozapine
Name: 8-chloro-11-(4-methylpiperazin-1-yl)-5H-dibenzo[b,e][1,4]diazepine
Formula: C18H19ClN4
Exact mass: 326.1298
SMILES: C1(=Nc2c(Nc3c1cccc3)ccc(c2)Cl)N1CCN(CC1)C
InChI: InChI=1S/C18H19ClN4/c1-22-8-10-23(11-9-22)18-14-4-2-3-5-15(14)20-16-7-6-13(19)12-17(16)21-18/h2-7,12,20H,8-11H2,1H3
Instrument: LTQ Orbitrap XL Thermo Scientific
Instrument type: LC-ESI-ITFT
Ms type: MS2
Ion mode: POSITIVE
Ionization: ESI
Fragmentation mode: HCD
Collision energy: 60 % (nominal)
Resolution: 15000
Column name: XBridge C18 3.5um, 2.1x50mm, Waters
Retention time: 6.4 min
Base peak: 327.1383
Precursor m/z: 327.1371
Precursor type: [M+H]+
m/z	relative intensity	assigned
58.0651	16	C3H8N+
82.0653	3	C5H8N+
84.0809	103	C5H10N+
85.076	4	C4H9N2+
123.995	3	C6H3ClN+
191.0605	7	C13H7N2+
192.0683	333	C13H8N2+
206.0836	5	C14H10N2+
207.0915	2	C14H11N2+
208.0993	3	C14H12N2+
215.0371	3	C12H8ClN2+
218.083	3	C15H10N2+
219.0666	3	C13H7N4+
220.0872	6	C14H10N3+
226.0295	12	C13H7ClN2+
227.0372	269	C13H8ClN2+
228.0445	7	C13H9ClN2+
229.0528	14	C13H10ClN2+
234.1029	8	C15H12N3+
235.1102	11	C15H13N3+
240.045	5	C14H9ClN2+
241.0525	8	C14H10ClN2+
243.0678	4	C14H12ClN2+
253.0527	22	C15H10ClN2+
254.0482	3	C14H9ClN3+
254.0611	3	C15H11ClN2+
255.0557	13	C14H10ClN3+
256.0641	2	C14H11ClN3+
268.0643	3	C15H11ClN3+
269.0731	3	C17H14ClO+
270.0795	999	C15H13ClN3+
281.0715	2	C16H12ClN3+
296.095	143	C17H15ClN3+
