Mass spectrum: Foramsulfuron; LC-ESI-ITFT; MS2; CE: 30%; R=7500; [M-H]-
Name: Foramsulfuron
Name: 2-[(4,6-dimethoxypyrimidin-2-yl)carbamoylsulfamoyl]-4-formamido-N,N-dimethyl-benzamide
Formula: C17H20N6O7S
Exact mass: 452.1114
SMILES: O=C(Nc1nc(OC)cc(OC)n1)NS(=O)(=O)c2cc(NC=O)ccc2C(=O)N(C)C
InChI: InChI=1S/C17H20N6O7S/c1-23(2)15(25)11-6-5-10(18-9-24)7-12(11)31(27,28)22-17(26)21-16-19-13(29-3)8-14(20-16)30-4/h5-9H,1-4H3,(H,18,24)(H2,19,20,21,22,26)
Instrument: LTQ Orbitrap XL Thermo Scientific
Instrument type: LC-ESI-ITFT
Ms type: MS2
Ion mode: NEGATIVE
Ionization: ESI
Fragmentation mode: HCD
Collision energy: 30 % (nominal)
Resolution: 7500
Column name: XBridge C18 3.5um, 2.1x50mm, Waters
Retention time: 7.8 min
Base peak: 451.1035
Precursor m/z: 451.1041
Precursor type: [M-H]-
m/z	relative intensity	assigned
154.0625	65	C6H8N3O2-
224.9999	13	C9HN6S-
252.0453	55	C10H10N3O3S-
268.0401	999	C10H10N3O4S-
270.0558	92	C10H12N3O4S-
296.0348	182	C11H10N3O5S-
