Mass spectrum: Edetic acid (EDTA); LC-ESI-QFT; MS2; CE: 180%; R=15000; [M+H]+
Name: Edetic acid (EDTA)
Name: Edetic acid
Name: 2-[2-[bis(carboxymethyl)amino]ethyl-(carboxymethyl)amino]acetic acid
Formula: C10H16N2O8
Exact mass: 292.0907
SMILES: C(CN(CC(=O)O)CC(=O)O)N(CC(=O)O)CC(=O)O
InChI: InChI=1S/C10H16N2O8/c13-7(14)3-11(4-8(15)16)1-2-12(5-9(17)18)6-10(19)20/h1-6H2,(H,13,14)(H,15,16)(H,17,18)(H,19,20)
Instrument: Orbitrap Exploris 240 Thermo Scientific
Instrument type: LC-ESI-QFT
Ms type: MS2
Ion mode: POSITIVE
Ionization: ESI
Fragmentation mode: HCD
Collision energy: 180 % (nominal)
Resolution: 15000
Column name: Atlantis C18 3um, 3.0x150mm, Waters
Retention time: 4.189 min
Base peak: 293.0978
Precursor m/z: 293.0979
Precursor type: [M+H]+
Precursor intensity: 784123072
m/z	relative intensity	assigned
56.0495	999	C3H6N+
