Mass spectrum: Chloridazon; LC-ESI-ITFT; MS2; CE: 60%; R=7500; [M+H]+
Name: Chloridazon
Name: 5-amino-4-chloro-2-phenyl-3-pyridazinone
Formula: C10H8ClN3O
Exact mass: 221.0350
SMILES: ClC(=C(N)C=N1)C(=O)N1-c(ccc2)cc2
InChI: InChI=1S/C10H8ClN3O/c11-9-8(12)6-13-14(10(9)15)7-4-2-1-3-5-7/h1-6H,12H2
Instrument: LTQ Orbitrap XL Thermo Scientific
Instrument type: LC-ESI-ITFT
Ms type: MS2
Ion mode: POSITIVE
Ionization: ESI
Fragmentation mode: HCD
Collision energy: 60 % (nominal)
Resolution: 7500
Column name: XBridge C18 3.5um, 2.1x50mm, Waters
Retention time: 5.2 min
Base peak: 222.0432
Precursor m/z: 222.0429
Precursor type: [M+H]+
m/z	relative intensity	assigned
55.029	12	C2H3N2+
63.995	4	CH3ClN+
65.0386	30	C5H5+
67.0291	3	C3H3N2+
75.995	5	C2H3ClN+
77.0386	82	C6H5+
83.0239	5	C3H3N2O+
87.9948	9	C3H3ClN+
92.0495	238	C6H6N+
93.0574	11	C6H7N+
94.0652	83	C6H8N+
95.0492	9	C6H7O+
100.9902	16	C3H2ClN2+
101.9742	4	C3HClNO+
104.0495	333	C7H6N+
105.0448	19	C6H5N2+
116.9977	3	C4H4ClNO+
119.0602	7	C7H7N2+
128.985	98	C4H2ClN2O+
130.0649	9	C9H8N+
131.0605	6	C8H7N2+
132.0444	7	C8H6NO+
140.0261	2	C7H7ClN+
142.0526	2	C9H6N2+
146.0116	69	C4H5ClN3O+
149.0152	7	C9H6Cl+
150.0108	6	C8H5ClN+
159.0556	12	C9H7N2O+
159.0791	2	C9H9N3+
160.0627	2	C9H8N2O+
177.0211	5	C9H6ClN2+
178.0057	4	C9H5ClNO+
186.0662	29	C10H8N3O+
193.0289	46	C10H8ClNO+
195.0324	9	C9H8ClN2O+
205.0165	16	C10H6ClN2O+
222.0428	999	C10H9ClN3O+
