Mass spectrum: Albuterol; LC-ESI-ITFT; MS2; CE: 35%; R=30000; [M+H]+
Name: Albuterol
Name: Salbutamol
Name: 4-[2-(tert-butylamino)-1-hydroxy-ethyl]-2-methylol-phenol
Formula: C13H21NO3
Exact mass: 239.1521
SMILES: OCc1cc(ccc1O)C(O)CNC(C)(C)C
InChI: InChI=1S/C13H21NO3/c1-13(2,3)14-7-12(17)9-4-5-11(16)10(6-9)8-15/h4-6,12,14-17H,7-8H2,1-3H3
Instrument: LTQ Orbitrap XL Thermo Scientific
Instrument type: LC-ESI-ITFT
Ms type: MS2
Ion mode: POSITIVE
Ionization: ESI
Fragmentation mode: CID
Collision energy: 35 % (nominal)
Resolution: 30000
Column name: XBridge C18 3.5um, 2.1x50mm, Waters
Retention time: 2.0 min
Base peak: 240.1602
Precursor m/z: 240.1594
Precursor type: [M+H]+
m/z	relative intensity	assigned
148.0757	21	C9H10NO+
166.0863	46	C9H12NO2+
204.1382	3	C13H18NO+
222.149	999	C13H20NO2+
