Mass spectrum: Atenolol-desisopropyl; LC-ESI-ITFT; MS2; CE: 90%; R=7500; [M+H]+
Name: Atenolol-desisopropyl
Name: 4-(3-Amino-2-hydroxypropoxy)phenylacetamide
Formula: C11H16N2O3
Exact mass: 224.1161
SMILES: c1cc(ccc1CC(=O)N)OCC(CN)O
InChI: InChI=1S/C11H16N2O3/c12-6-9(14)7-16-10-3-1-8(2-4-10)5-11(13)15/h1-4,9,14H,5-7,12H2,(H2,13,15)
Instrument: LTQ Orbitrap XL Thermo Scientific
Instrument type: LC-ESI-ITFT
Ms type: MS2
Ion mode: POSITIVE
Ionization: ESI
Fragmentation mode: HCD
Collision energy: 90 % (nominal)
Resolution: 7500
Column name: XBridge C18 3.5um, 2.1x50mm, Waters
Retention time: 1.0 min
Base peak: 225.124
Precursor m/z: 225.1234
Precursor type: [M+H]+
m/z	relative intensity	assigned
56.0495	242	C3H6N+
74.0601	400	C3H8NO+
77.0385	91	C6H5+
79.0542	187	C6H7+
89.0386	429	C7H5+
91.0542	546	C7H7+
93.0699	132	C7H9+
103.0542	51	C8H7+
105.0699	339	C8H9+
106.0651	290	C7H8N+
107.0491	678	C7H7O+
115.0541	331	C9H7+
116.0494	116	C8H6N+
117.0334	112	C8H5O+
117.0575	38	C8H7N+
117.0698	313	C9H9+
119.0491	112	C8H7O+
121.0648	102	C8H9O+
122.0597	37	C7H8NO+
131.0489	37	C9H7O+
133.0648	725	C9H9O+
134.0599	209	C8H8NO+
144.0564	51	C10H8O+
145.0648	999	C10H9O+
147.0441	32	C9H7O2+
155.0607	57	C10H7N2+
162.0661	53	C8H8N3O+
