Mass spectrum: Enoxacin; LC-ESI-QFT; MS2; CE: 30; R=35000; [M+H]+
Name: Enoxacin
Name: 1-Ethyl-6-fluoro-1,4-dihydro-4-oxo-7-(1-piperazinyl)-1,8-naphthyridine-3-carboxylic acid
Name: 1-ethyl-6-fluoranyl-4-oxidanylidene-7-piperazin-1-yl-1,8-naphthyridine-3-carboxylic acid
Formula: C15H17FN4O3
Exact mass: 320.12847
SMILES: Fc1c(nc2c(c1)C(=O)C(\C(=O)O)=C/N2CC)N3CCNCC3
InChI: InChI=1S/C15H17FN4O3/c1-2-19-8-10(15(22)23)12(21)9-7-11(16)14(18-13(9)19)20-5-3-17-4-6-20/h7-8,17H,2-6H2,1H3,(H,22,23)
Instrument: Q Exactive Orbitrap Thermo Scientific
Instrument type: LC-ESI-QFT
Ms type: MS2
Ion mode: POSITIVE
Ionization: ESI
Fragmentation mode: HCD
Collision energy: 30 (nominal)
Resolution: 35000
Column name: XBridge C18 3.5um, 2.1x50mm, Waters
Retention time: 4.2 min
Base peak: 321.136
Precursor m/z: 321.1357
Precursor type: [M+H]+
m/z	relative intensity	assigned
70.0651	5	C4H8N+
205.0648	8	C15H9O+
206.0725	22	C15H10O+
206.0842	1	C14H10N2+
207.0932	1	C11H12FN2O+
208.0881	5	C10H11FN3O+
220.0877	2	C11H11FN3O+
221.0956	1	C11H12FN3O+
228.1003	1	C12H12N4O+
229.1085	18	C12H13N4O+
232.0516	2	C11H7FN3O2+
234.1038	131	C12H13FN3O+
250.0627	1	C11H9FN3O3+
257.1397	131	C14H17N4O+
277.146	113	C14H18FN4O+
278.0938	7	C13H13FN3O3+
301.1302	5	C15H17N4O3+
303.1245	42	C15H16FN4O2+
321.1358	999	C15H18FN4O3+
323.1395	1	C14H18FN5O3+
