Mass spectrum: Azinphos-methyl; LC-ESI-QFT; MS2; CE: 30; R=35000; [M+H]+
Name: Azinphos-methyl
Name: Azinphosmethyl
Name: 3-(dimethoxyphosphinothioylsulfanylmethyl)-1,2,3-benzotriazin-4-one
Formula: C10H12N3O3PS2
Exact mass: 317.00577
SMILES: COP(=S)(OC)SCN1C(=O)C2=CC=CC=C2N=N1
InChI: InChI=1S/C10H12N3O3PS2/c1-15-17(18,16-2)19-7-13-10(14)8-5-3-4-6-9(8)11-12-13/h3-6H,7H2,1-2H3
Instrument: Q Exactive Plus Orbitrap Thermo Scientific
Instrument type: LC-ESI-QFT
Ms type: MS2
Ion mode: POSITIVE
Ionization: ESI
Fragmentation mode: HCD
Collision energy: 30 (nominal)
Resolution: 35000
Column name: XBridge C18 3.5um, 2.1x50mm, Waters
Retention time: 9.2 min
Base peak: 318.0126
Precursor m/z: 318.013
Precursor type: [M+H]+
m/z	relative intensity	assigned
51.0229	1	C4H3+
53.0386	14	C4H5+
62.0186	1	C2H6S+
77.0385	11	C6H5+
78.9943	14	CH4O2P+
81.0336	1	C5H5O+
93.0101	15	C2H6O2P+
95.0492	49	C6H7O+
99.0442	1	C5H7O2+
104.0495	209	C7H6N+
105.0336	116	C7H5O+
105.0448	32	C6H5N2+
110.9663	3	CH4O2PS+
120.0446	23	C3H9N2OP+
124.9822	151	C2H6O2PS+
130.0402	6	C7H4N3+
132.0445	871	C8H6NO+
135.0442	12	C8H7O2+
137.0057	1	C3H8NOPS+
142.9928	999	C2H8O3PS+
144.9968	1	H7N3O2S2+
150.0551	133	C4H11N2O2P+
152.983	1	C3H8NPS2+
157.0084	21	C3H10O3PS+
160.0506	18	C8H6N3O+
164.0708	10	C5H13N2O2P+
167.0163	169	C4H10NO2PS+
170.9699	26	C3H8O2PS2+
182.9935	45	C4H10NOPS2+
260.9805	19	C9H10O3PS2+
