Mass spectrum: Dimethenamid-P; LC-ESI-ITFT; MS2; CE: 90%; R=30000; [M+H]+
Name: Dimethenamid-P
Name: 2-chloranyl-N-(2,4-dimethylthiophen-3-yl)-N-[(2S)-1-methoxypropan-2-yl]ethanamide
Formula: C12H18ClNO2S
Exact mass: 275.0741
SMILES: CC1=CSC(=C1N(C(C)COC)C(=O)CCl)C
InChI: InChI=1S/C12H18ClNO2S/c1-8-7-17-10(3)12(8)14(11(15)5-13)9(2)6-16-4/h7,9H,5-6H2,1-4H3
Instrument: LTQ Orbitrap XL Thermo Scientific
Instrument type: LC-ESI-ITFT
Ms type: MS2
Ion mode: POSITIVE
Ionization: ESI
Fragmentation mode: HCD
Collision energy: 90 % (nominal)
Resolution: 30000
Column name: XBridge C18 3.5um, 2.1x50mm, Waters
Retention time: 10.0 min
Base peak: 276.0826
Precursor m/z: 276.082
Precursor type: [M+H]+
m/z	relative intensity	assigned
58.9949	30	C2H3S+
65.0386	27	C5H5+
67.0542	68	C5H7+
70.995	12	C3H3S+
73.0648	62	C4H9O+
76.9788	37	C2H2ClO+
77.0386	60	C6H5+
78.0464	30	C6H6+
79.0542	34	C6H7+
82.0651	14	C5H8N+
85.0106	19	C4H5S+
91.0542	30	C7H7+
93.0572	29	C6H7N+
93.0699	34	C7H9+
94.0651	128	C6H8N+
95.0729	201	C6H9N+
97.0106	55	C5H5S+
99.0263	68	C5H7S+
101.0419	20	C5H9S+
104.0493	25	C7H6N+
105.0448	15	C6H5N2+
105.0573	55	C7H7N+
106.0651	27	C7H8N+
107.0855	10	C8H11+
108.0807	53	C7H10N+
109.0107	6	C6H5S+
110.0184	17	C6H6S+
111.0263	999	C6H7S+
112.0215	16	C5H6NS+
112.0341	89	C6H8S+
113.0293	28	C5H7NS+
113.0419	86	C6H9S+
117.0572	24	C8H7N+
117.0698	26	C9H9+
118.0652	40	C8H8N+
119.0729	29	C8H9N+
120.0807	136	C8H10N+
122.0966	6	C8H12N+
123.0263	24	C7H7S+
124.0214	52	C6H6NS+
124.0341	40	C7H8S+
125.0293	53	C6H7NS+
125.0419	96	C7H9S+
126.0372	926	C6H8NS+
127.0212	20	C6H7OS+
127.045	66	C6H9NS+
127.0575	24	C7H11S+
128.0528	180	C6H10NS+
129.0368	27	C6H9OS+
133.0886	9	C9H11N+
134.0964	96	C9H12N+
135.0262	13	C8H7S+
135.1042	98	C9H13N+
136.0215	47	C7H6NS+
136.0339	10	C8H8S+
137.0293	133	C7H7NS+
138.0372	492	C7H8NS+
139.045	12	C7H9NS+
139.0576	12	C8H11S+
140.0527	37	C7H10NS+
144.9874	6	C6H6ClS+
149.0419	7	C9H9S+
150.0372	150	C8H8NS+
151.0449	37	C8H9NS+
151.0576	49	C9H11S+
152.0164	264	C7H6NOS+
152.0528	429	C8H10NS+
153.0242	164	C7H7NOS+
153.0606	89	C8H11NS+
154.032	41	C7H8NOS+
154.0685	30	C8H12NS+
158.0367	9	C7H9ClNO+
166.0319	46	C8H8NOS+
166.0685	34	C9H12NS+
167.0762	17	C9H13NS+
168.0841	275	C9H14NS+
171.9982	7	C7H7ClNS+
186.0137	39	C8H9ClNS+
244.0556	11	C11H15ClNOS+
