Mass spectrum: Gabapentin; LC-ESI-ITFT; MS2; CE: 60%; R=7500; [M+H]+
Name: Gabapentin
Name: 1-(Aminomethyl)cyclohexaneacetic acid
Name: 2-[1-(aminomethyl)cyclohexyl]acetic acid
Formula: C9H17NO2
Exact mass: 171.1259
SMILES: NCC1(CC(O)=O)CCCCC1
InChI: InChI=1S/C9H17NO2/c10-7-9(6-8(11)12)4-2-1-3-5-9/h1-7,10H2,(H,11,12)
Instrument: LTQ Orbitrap XL Thermo Scientific
Instrument type: LC-ESI-ITFT
Ms type: MS2
Ion mode: POSITIVE
Ionization: ESI
Fragmentation mode: HCD
Collision energy: 60 % (nominal)
Resolution: 7500
Column name: XBridge C18 3.5um, 2.1x50mm, Waters
Retention time: 3.6 min
Base peak: 172.1336
Precursor m/z: 172.1332
Precursor type: [M+H]+
m/z	relative intensity	assigned
55.0178	112	C3H3O+
67.0543	136	C5H7+
79.0544	6	C6H7+
81.0698	9	C6H9+
91.0543	132	C7H7+
93.0699	100	C7H9+
95.0855	309	C7H11+
109.1012	180	C8H13+
110.0963	28	C7H12N+
112.1123	9	C7H14N+
119.0855	344	C9H11+
126.1278	31	C8H16N+
136.1121	52	C9H14N+
137.0961	484	C9H13O+
154.1226	999	C9H16NO+
155.1065	34	C9H15O2+
172.1331	153	C9H18NO2+
