Mass spectrum: Etrimfos; LC-ESI-QFT; MS2; CE: 30%; R=17500; [M+H]+
Name: Etrimfos
Name: (6-ethoxy-2-ethylpyrimidin-4-yl)oxy-dimethoxy-sulfanylidene-lambda5-phosphane
Formula: C10H17N2O4PS
Exact mass: 292.0647
SMILES: CCC1=NC(=CC(=N1)OP(=S)(OC)OC)OCC
InChI: InChI=1S/C10H17N2O4PS/c1-5-8-11-9(15-6-2)7-10(12-8)16-17(18,13-3)14-4/h7H,5-6H2,1-4H3
Instrument: Exploris 240 Orbitrap Thermo Scientific
Instrument type: LC-ESI-QFT
Ms type: MS2
Ion mode: POSITIVE
Ionization: ESI
Fragmentation mode: HCD
Collision energy: 30 % (nominal)
Resolution: 17500
Column name: XBridge C18 3.5um, 2.1x50mm, Waters
Retention time: 10.931 min
Base peak: 293.0719
Precursor m/z: 293.0719
Precursor type: [M+H]+
m/z	relative intensity	assigned
56.0495	8	C3H6N+
84.0807	54	C5H10N+
124.9822	182	C2H6O2PS+
142.993	69	C2H8O3PS+
151.0875	8	C2H17NO4S+
164.0468	23	C9H8O3+
181.0738	25	C5H14N2O3P+
233.0146	49	C7H10N2O3PS+
265.041	823	C8H14N2O4PS+
293.0722	999	C10H18N2O4PS+
