Mass spectrum: Midazolam; LC-ESI-QFT; MS2; CE: 60; R=35000; [M+H]+
Name: Midazolam
Name: 8-chloranyl-6-(2-fluorophenyl)-1-methyl-4H-imidazo[1,5-a][1,4]benzodiazepine
Formula: C18H13ClFN3
Exact mass: 325.07820
SMILES: CC1=NC=C2N1C3=C(C=C(C=C3)Cl)C(=NC2)C4=CC=CC=C4F
InChI: InChI=1S/C18H13ClFN3/c1-11-21-9-13-10-22-18(14-4-2-3-5-16(14)20)15-8-12(19)6-7-17(15)23(11)13/h2-9H,10H2,1H3
Instrument: Q Exactive Orbitrap Thermo Scientific
Instrument type: LC-ESI-QFT
Ms type: MS2
Ion mode: POSITIVE
Ionization: ESI
Fragmentation mode: HCD
Collision energy: 60 (nominal)
Resolution: 35000
Column name: XBridge C18 3.5um, 2.1x50mm, Waters
Retention time: 6.5 min
Base peak: 326.086
Precursor m/z: 326.0855
Precursor type: [M+H]+
m/z	relative intensity	assigned
55.0418	1	C3H5N+
95.0604	7	C5H7N2+
102.0465	4	C8H6+
105.0574	1	C7H7N+
109.0449	1	C7H6F+
121.0447	1	C8H6F+
122.04	1	C7H5FN+
128.0497	6	C9H6N+
129.0573	27	C9H7N+
133.0524	1	C5H10ClN2+
137.0153	3	C8H6Cl+
146.0602	1	C6H11ClN2+
148.0556	5	C9H7FN+
152.0263	7	C8H7ClN+
155.0605	1	C10H7N2+
162.0106	4	C9H5ClN+
162.0716	1	C10H9FN+
164.0261	18	C9H7ClN+
169.0762	9	C11H9N2+
170.0839	21	C11H10N2+
173.0509	1	C10H6FN2+
174.0588	3	C10H7FN2+
178.0421	4	C10H9ClN+
183.0607	10	C13H8F+
184.0685	13	C13H9F+
187.0672	1	C11H8FN2+
189.0215	41	C10H6ClN2+
189.0824	10	C11H10FN2+
195.0794	3	C12H9N3+
196.0683	20	C14H9F+
196.0872	1	C12H10N3+
198.0716	1	C13H9FN+
203.037	4	C11H8ClN2+
203.0735	2	C15H9N+
204.0451	1	C11H9ClN2+
205.053	19	C11H10ClN2+
208.0559	47	C14H7FN+
209.0637	216	C14H8FN+
210.0714	4	C14H9FN+
212.0636	1	C11H12ClFN+
214.0777	8	C17H10+
215.0853	10	
217.0217	10	C13H7ClF+
220.0757	1	C12H13ClN2+
221.0634	1	C15H8FN+
222.0713	34	C15H9FN+
223.0793	87	C15H10FN+
224.0259	5	C14H7ClN+
224.0873	1	C15H11FN+
226.0663	11	C11H12ClFN2+
227.074	8	C11H13ClFN2+
229.0761	8	C16H9N2+
230.0482	26	C12H9ClN3+
230.0837	5	C16H10N2+
231.038	5	C14H9ClF+
231.0559	13	C12H10ClN3+
232.0328	5	C13H8ClFN+
233.064	1	C16H8FN+
236.0744	1	C15H9FN2+
236.0872	5	C16H11FN+
237.095	1	C16H12FN+
238.0421	6	C15H9ClN+
238.0664	3	C12H12ClFN2+
240.0821	1	C12H14ClFN2+
242.0172	1	C14H6ClFN+
243.0919	13	C17H11N2+
244.0326	210	C14H8ClFN+
245.0405	13	C14H9ClFN+
249.0824	218	C16H10FN2+
250.0903	130	C16H11FN2+
251.0981	3	C16H12FN2+
255.0692	17	C15H12ClN2+
256.0328	1	C15H8ClFN+
256.0765	1	C15H13ClN2+
257.0279	6	C14H7ClFN2+
257.0403	8	C15H9ClFN+
258.0482	75	C15H10ClFN+
263.0982	16	C17H12FN2+
264.1061	5	C17H13FN2+
265.0529	41	C16H10ClN2+
268.0322	7	C16H8ClFN+
270.1027	25	C18H12N3+
271.1106	10	C18H13N3+
272.0512	1	C15H10ClFN2+
273.0595	4	C15H11ClFN2+
273.0824	6	C18H10FN2+
274.0895	5	C18H11FN2+
275.0854	1	C17H10FN3+
276.0934	9	C17H11FN3+
279.0686	1	C17H12ClN2+
282.0491	3	C17H10ClFN+
283.0439	3	C16H9ClFN2+
284.0512	36	C16H10ClFN2+
285.0591	121	C16H11ClFN2+
288.0943	1	C18H11FN3+
289.0529	24	C18H10ClN2+
289.1013	4	C18H12FN3+
290.1091	122	C18H13FN3+
291.1168	999	C18H14FN3+
297.0587	12	C17H11ClFN2+
298.0665	1	C17H12ClFN2+
299.0748	12	C17H13ClFN2+
304.0636	1	C18H11ClN3+
306.0794	16	C18H13ClN3+
307.0436	1	C18H9ClFN2+
309.0591	78	C18H11ClFN2+
311.0621	15	C17H11ClFN3+
325.0779	36	C18H13ClFN3+
326.0857	186	C18H14ClFN3+
