Mass spectrum: Normianserin; LC-ESI-QFT; MS2; CE: 150; R=35000; [M+H]+
Name: Normianserin
Name: N-desmethylmianserin
Name: 1,2,3,4,10,14b-Hexahydrodibenzo[c,f]pyrazino[1,2-a]azepine
Formula: C17H18N2
Exact mass: 250.14700
SMILES: C3c1ccccc1C2CNCCN2c4ccccc34
InChI: InChI=1S/C17H18N2/c1-3-7-15-13(5-1)11-14-6-2-4-8-16(14)19-10-9-18-12-17(15)19/h1-8,17-18H,9-12H2
Instrument: Q Exactive Plus Orbitrap Thermo Scientific
Instrument type: LC-ESI-QFT
Ms type: MS2
Ion mode: POSITIVE
Ionization: ESI
Fragmentation mode: HCD
Collision energy: 150 (nominal)
Resolution: 35000
Column name: XBridge C18 3.5um, 2.1x50mm, Waters
Retention time: 6.7 min
Base peak: 251.1539
Precursor m/z: 251.1543
Precursor type: [M+H]+
m/z	relative intensity	assigned
50.0151	92	C4H2+
51.0229	107	C4H3+
53.0022	7	C3HO+
53.0386	103	C4H5+
54.0338	5	C3H4N+
56.0494	11	C3H6N+
61.0072	1	C5H+
62.0151	7	C5H2+
63.0229	75	C5H3+
64.0307	8	C5H4+
65.0385	700	C5H5+
66.0464	45	C5H6+
67.0416	2	C4H5N+
67.0541	2	C5H7+
68.0494	1	C4H6N+
71.0603	17	C3H7N2+
74.0149	1	C6H2+
75.0228	14	C6H3+
76.0306	2	C6H4+
77.0385	255	C6H5+
78.0338	5	C5H4N+
78.0463	61	C6H6+
79.0542	91	C6H7+
80.0494	12	C5H6N+
81.0335	13	C5H5O+
83.0603	6	C4H7N2+
87.0227	1	C7H3+
89.0385	369	C7H5+
90.0464	183	C7H6+
91.0542	999	C7H7+
92.0494	24	C6H6N+
93.0573	65	C6H7N+
94.0412	4	C6H6O+
94.065	2	C6H8N+
95.0491	425	C6H7O+
96.0443	5	C5H6NO+
101.0386	4	C8H5+
102.0464	34	C8H6+
103.0542	186	C8H7+
104.0494	33	C7H6N+
104.0621	4	C8H8+
105.0447	220	C6H5N2+
105.0698	43	C8H9+
106.0651	38	C7H8N+
109.0648	1	C7H9O+
113.0384	2	C9H5+
115.0542	531	C9H7+
116.0494	34	C8H6N+
116.0619	23	C9H8+
117.0572	274	C8H7N+
118.065	117	C8H8N+
119.0493	1	C8H7O+
119.0605	1	C7H7N2+
119.073	5	C8H9N+
120.0806	6	C8H10N+
126.0464	11	C10H6+
127.0542	11	C10H7+
128.0495	25	C9H6N+
128.062	88	C10H8+
129.0446	13	C8H5N2+
129.0572	5	C9H7N+
129.0697	4	C10H9+
130.0651	169	C9H8N+
131.0604	18	C8H7N2+
131.0729	7	C9H9N+
132.0683	4	C8H8N2+
132.0805	8	C9H10N+
134.0601	1	C8H8NO+
139.0541	23	C11H7+
140.0496	11	C10H6N+
140.0619	2	C11H8+
141.0571	2	C10H7N+
141.0696	7	C11H9+
142.0651	10	C10H8N+
143.0731	9	C10H9N+
144.0807	7	C10H10N+
145.0647	10	C10H9O+
145.0759	1	C9H9N2+
146.06	10	C9H8NO+
150.0461	9	C12H6+
151.0541	15	C12H7+
152.062	126	C12H8+
153.0573	2	C11H7N+
153.0698	10	C12H9+
154.065	4	C11H8N+
155.0604	16	C10H7N2+
156.0805	2	C11H10N+
163.0541	16	C13H7+
164.062	34	C13H8+
165.0699	430	C13H9+
166.0651	12	C12H8N+
166.0776	6	C13H10+
167.0728	18	C12H9N+
168.0569	11	C12H8O+
169.0647	40	C12H9O+
175.0542	1	C14H7+
176.062	103	C14H8+
177.0572	8	C13H7N+
177.0698	58	C14H9+
178.0663	11	
178.0776	169	C14H10+
179.0605	12	C12H7N2+
179.0728	9	C13H9N+
179.0856	7	C14H11+
180.0806	16	C13H10N+
189.0698	60	C15H9+
190.065	26	C14H8N+
190.0779	4	C15H10+
191.0728	52	C14H9N+
191.0856	6	C15H11+
192.0807	43	C14H10N+
193.0885	34	C14H11N+
200.0618	4	C16H8+
201.057	1	C15H7N+
201.0697	1	C16H9+
202.0775	12	C16H10+
203.0727	10	C15H9N+
203.0862	1	C16H11+
204.0808	64	C15H10N+
205.0755	1	C14H9N2+
205.0887	4	C15H11N+
206.0966	16	C15H12N+
214.0647	1	C16H8N+
215.0725	1	C16H9N+
216.0808	51	C16H10N+
217.0885	37	C16H11N+
218.0841	2	C15H10N2+
218.0962	2	C16H12N+
219.0916	5	C15H11N2+
