Mass spectrum: Clarithromycin N-Oxide; LC-ESI-QFT; MS2; CE: 180; R=35000; [M+H]+
Name: Clarithromycin N-Oxide
Name: (2S,3R,4S,6R)-2-[[(3R,4S,5S,6R,7R,9R,11R,12R,13S,14R)-14-ethyl-12,13-dihydroxy-4-[(2R,4R,5S,6S)-5-hydroxy-4-methoxy-4,6-dimethyloxan-2-yl]oxy-7-methoxy-3,5,7,9,11,13-hexamethyl-2,10-dioxo-oxacyclotetradec-6-yl]oxy]-3-hydroxy-N,N,6-trimethyloxan-4-amine oxide
Formula: C38H69NO14
Exact mass: 763.47181
SMILES: [O-][N+](C)(C)[C@H]3C[C@@H](C)O[C@@H](O[C@@H]2[C@@H](C)[C@H](O[C@H]1C[C@@](C)(OC)[C@@H](O)[C@H](C)O1)[C@@H](C)C(=O)O[C@H](CC)[C@@](C)(O)[C@H](O)[C@@H](C)C(=O)[C@H](C)C[C@@]2(C)OC)[C@@H]3O
InChI: InChI=1S/C38H69NO14/c1-15-26-38(10,45)31(42)21(4)28(40)19(2)17-37(9,48-14)33(53-35-29(41)25(39(11,12)46)16-20(3)49-35)22(5)30(23(6)34(44)51-26)52-27-18-36(8,47-13)32(43)24(7)50-27/h19-27,29-33,35,41-43,45H,15-18H2,1-14H3/t19-,20-,21+,22+,23-,24+,25+,26-,27+,29-,30+,31-,32+,33-,35+,36-,37-,38-/m1/s1
Instrument: Q Exactive Plus Orbitrap Thermo Scientific
Instrument type: LC-ESI-QFT
Ms type: MS2
Ion mode: POSITIVE
Ionization: ESI
Fragmentation mode: HCD
Collision energy: 180 (nominal)
Resolution: 35000
Column name: XBridge C18 3.5um, 2.1x50mm, Waters
Retention time: 9.7 min
Base peak: 764.4783
Precursor m/z: 764.4791
Precursor type: [M+H]+
m/z	relative intensity	assigned
53.9974	22	C2NO+
54.0339	2	C3H4N+
55.0179	82	C3H3O+
55.0543	999	C4H7+
56.0495	80	C3H6N+
57.0335	95	C3H5O+
57.0573	21	C3H7N+
57.0699	27	C4H9+
58.0288	6	C2H4NO+
58.0651	125	C3H8N+
59.0491	42	C3H7O+
60.0444	13	C2H6NO+
61.0284	1	C2H5O2+
62.0601	7	C2H8NO+
63.0229	3	C5H3+
65.0386	367	C5H5+
66.0464	25	C5H6+
67.0542	727	C5H7+
67.9892	6	C3O2+
68.0495	40	C4H6N+
69.0335	72	C4H5O+
69.0573	7	C4H7N+
69.0699	102	C5H9+
70.0651	66	C4H8N+
71.0127	8	C3H3O2+
71.0492	18	C4H7O+
71.0729	41	C4H9N+
72.0444	37	C3H6NO+
72.0808	59	C4H10N+
73.0522	3	C3H7NO+
73.0648	11	C4H9O+
74.0363	3	C3H6O2+
74.06	3	C3H8NO+
75.044	2	C3H7O2+
77.0385	76	C6H5+
78.0087	7	C3N3+
78.0464	25	C6H6+
79.0542	655	C6H7+
80.062	34	C6H8+
81.0335	19	C5H5O+
81.0699	181	C6H9+
82.0413	3	C5H6O+
82.0651	18	C5H8N+
83.0128	42	C4H3O2+
83.0491	379	C5H7O+
84.0808	113	C5H10N+
85.0284	31	C4H5O2+
85.0649	12	C5H9O+
86.06	10	C4H8NO+
87.0679	6	C4H9NO+
88.0756	2	C4H10NO+
89.0386	1	C7H5+
90.0464	2	C7H6+
91.0543	704	C7H7+
92.0621	8	C7H8+
93.0699	110	C7H9+
94.0414	10	C6H6O+
94.0651	2	C6H8N+
94.0778	7	C7H10+
95.0492	366	C6H7O+
95.0855	76	C7H11+
96.0807	1	C6H10N+
97.0648	15	C6H9O+
98.06	3	C5H8NO+
98.0964	27	C6H12N+
100.1122	6	C6H14N+
102.0464	3	C8H6+
103.0542	171	C8H7+
104.062	28	C8H8+
105.0448	188	C6H5N2+
105.0699	296	C8H9+
106.0777	14	C8H10+
107.0491	96	C7H7O+
107.0856	25	C8H11+
108.0569	53	C7H8O+
109.0648	79	C7H9O+
109.1012	11	C8H13+
111.0806	2	C7H11O+
115.0543	103	C9H7+
116.062	18	C9H8+
117.0699	78	C9H9+
118.0778	2	C9H10+
119.0604	7	C7H7N2+
119.0855	84	C9H11+
121.0648	37	C8H9O+
121.101	8	C9H13+
122.0726	29	C8H10O+
123.0804	166	C8H11O+
125.0597	1	C7H9O2+
128.0621	74	C10H8+
129.0699	70	C10H9+
130.0776	14	C10H10+
131.0493	3	C9H7O+
131.0856	13	C10H11+
133.0648	5	C9H9O+
133.1011	3	C10H13+
135.0806	15	C9H11O+
136.0884	2	C9H12O+
137.0965	2	C9H13O+
141.0698	50	C11H9+
142.0777	31	C11H10+
143.0856	22	C11H11+
145.0646	17	C10H9O+
145.1012	3	C11H13+
147.0805	6	C10H11O+
149.0959	2	C10H13O+
151.0758	2	C9H11O2+
152.062	8	C12H8+
153.0699	9	C12H9+
154.0775	2	C12H10+
155.0604	9	C10H7N2+
155.0856	14	C12H11+
156.0934	2	C12H12+
157.0651	1	C11H9O+
157.1012	9	C12H13+
159.0804	10	C11H11O+
163.1115	5	C11H15O+
165.0694	13	C13H9+
166.0776	2	C13H10+
167.0855	3	C13H11+
179.1069	1	C11H15O2+
