Mass spectrum: 2-Hydroxybenzothiazole; LC-ESI-QFT; MS2; CE: 90; R=35000; [M-H]-
Name: 2-Hydroxybenzothiazole
Name: 2-Benzothiazolol
Name: 3H-1,3-benzothiazol-2-one
Formula: C7H5NOS
Exact mass: 151.00918
SMILES: C1=CC=C2C(=C1)NC(=O)S2
InChI: InChI=1S/C7H5NOS/c9-7-8-5-3-1-2-4-6(5)10-7/h1-4H,(H,8,9)
Instrument: Q Exactive Plus Orbitrap Thermo Scientific
Instrument type: LC-ESI-QFT
Ms type: MS2
Ion mode: NEGATIVE
Ionization: ESI
Fragmentation mode: HCD
Collision energy: 90 (nominal)
Resolution: 35000
Column name: XBridge C18 3.5um, 2.1x50mm, Waters
Retention time: 6.4 min
Base peak: 150.0018
Precursor m/z: 150.0019
Precursor type: [M-H]-
m/z	relative intensity	assigned
56.9805	5	C2HS-
90.0349	14	C6H4N-
106.9962	38	C6H3S-
118.03	7	C7H4NO-
120.9993	10	C6H3NS-
122.0071	61	C6H4NS-
150.002	999	C7H4NOS-
