Mass spectrum: Spirotetramat BYI08330-monohydroxy; LC-ESI-QFT; MS2; CE: 60%; R=17500; [M+H]+
Name: Spirotetramat BYI08330-monohydroxy
Name: 1-Azaspiro(4.5)decan-2-one, 3-(2,5-dimethylphenyl)-4-hydroxy-8-methoxy-
Name: 3-(2,5-dimethylphenyl)-4-hydroxy-8-methoxy-1-azaspiro[4.5]decan-2-one
Formula: C18H25NO3
Exact mass: 303.1834
SMILES: CC1=CC(=C(C=C1)C)C2C(C3(CCC(CC3)OC)NC2=O)O
InChI: InChI=1S/C18H25NO3/c1-11-4-5-12(2)14(10-11)15-16(20)18(19-17(15)21)8-6-13(22-3)7-9-18/h4-5,10,13,15-16,20H,6-9H2,1-3H3,(H,19,21)
Instrument: Exploris 240 Orbitrap Thermo Scientific
Instrument type: LC-ESI-QFT
Ms type: MS2
Ion mode: POSITIVE
Ionization: ESI
Fragmentation mode: HCD
Collision energy: 60 % (nominal)
Resolution: 17500
Column name: XBridge C18 3.5um, 2.1x50mm, Waters
Retention time: 5.434 min
Base peak: 304.1905
Precursor m/z: 304.1907
Precursor type: [M+H]+
m/z	relative intensity	assigned
55.0544	24	C4H7+
67.0542	328	C5H7+
79.0542	198	C6H7+
81.0698	690	C6H9+
82.065	13	C5H8N+
91.0541	207	C7H7+
93.0699	249	C7H9+
96.0809	33	C6H10N+
98.0966	76	C6H12N+
103.0545	27	C8H7+
105.0698	226	C8H9+
107.0857	44	C8H11+
108.0811	30	C7H10N+
109.0649	41	C7H9O+
117.0702	72	C9H9+
119.0855	851	C9H11+
120.0808	35	C8H10N+
129.0697	47	C10H9+
131.0855	999	C10H11+
134.0964	288	C9H12N+
142.078	21	C11H10+
143.0855	218	C11H11+
145.1011	303	C11H13+
147.0804	112	C10H11O+
148.0755	298	C9H10NO+
155.0854	166	C12H11+
157.1013	281	C12H13+
162.0912	27	C10H12NO+
167.0857	45	C13H11+
169.1012	662	C13H13+
170.1089	45	C13H14+
172.1122	49	C12H14N+
179.0856	38	C14H11+
181.1011	74	C14H13+
183.1171	128	C14H15+
184.1126	37	C13H14N+
196.1252	137	C15H16+
198.1285	67	C14H16N+
200.1071	207	C13H14NO+
209.1324	167	C16H17+
211.1491	240	C16H19+
221.1198	19	C16H15N+
226.1587	312	C16H20N+
254.154	184	C17H20NO+
