Mass spectrum: Amisulpride N-Oxide; LC-ESI-QFT; MS2; CE: 75; R=35000; [M-H]-
Name: Amisulpride N-Oxide
Name: 4-amino-N-[(1-ethyl-1-oxidopyrrolidin-1-ium-2-yl)methyl]-5-ethylsulfonyl-2-methoxybenzamide
Formula: C17H27N3O5S
Exact mass: 385.16714
SMILES: CC[N+]1(CCCC1CNC(=O)C2=CC(=C(C=C2OC)N)S(=O)(=O)CC)[O-]
InChI: InChI=1S/C17H27N3O5S/c1-4-20(22)8-6-7-12(20)11-19-17(21)13-9-16(26(23,24)5-2)14(18)10-15(13)25-3/h9-10,12H,4-8,11,18H2,1-3H3,(H,19,21)
Instrument: Q Exactive Plus Orbitrap Thermo Scientific
Instrument type: LC-ESI-QFT
Ms type: MS2
Ion mode: NEGATIVE
Ionization: ESI
Fragmentation mode: HCD
Collision energy: 75 (nominal)
Resolution: 35000
Column name: XBridge C18 3.5um, 2.1x50mm, Waters
Retention time: 4.2 min
Base peak: 430.1652
Precursor m/z: 384.1599
Precursor type: [M-H]-
m/z	relative intensity	assigned
63.9625	861	O2S-
64.9703	33	HO2S-
65.9986	68	C3NO-
66.035	16	C4H4N-
67.019	1	C4H3O-
68.0142	1	C3H2NO-
68.0506	13	C4H6N-
68.9984	1	C3HO2-
70.0663	1	C4H8N-
72.0091	8	C2H2NO2-
78.0349	7	C5H4N-
79.9574	24	O3S-
80.0268	12	C5H4O-
81.022	1	C4H3NO-
82.0301	1	C4H4NO-
90.0349	62	C6H4N-
91.0427	103	C6H5N-
92.0506	444	C6H6N-
93.0016	647	C2H5O2S-
94.0298	35	C5H4NO-
95.0138	1	C5H3O2-
96.0456	1	C5H6NO-
98.0612	1	C5H8NO-
102.035	5	C7H4N-
104.0144	1	C6H2NO-
104.0508	1	C7H6N-
105.0221	8	C6H3NO-
106.0299	8	C6H4NO-
107.0377	999	C6H5NO-
108.0215	1	C6H4O2-
108.0456	24	C6H6NO-
110.0247	15	C5H4NO2-
117.046	1	C7H5N2-
118.0299	6	C7H4NO-
119.0378	1	C7H5NO-
120.0455	153	C7H6NO-
121.0296	8	C7H5O2-
121.0533	3	C7H7NO-
122.0248	92	C6H4NO2-
122.0612	398	C7H8NO-
123.0326	17	C6H5NO2-
124.0403	1	C6H6NO2-
130.0662	3	C9H8N-
132.0094	1	C7H2NO2-
132.0328	10	C7H4N2O-
133.017	5	C7H3NO2-
133.0409	10	C7H5N2O-
133.0534	6	C8H7NO-
134.0248	96	C7H4NO2-
134.0612	15	C8H8NO-
135.0326	73	C7H5NO2-
136.0404	23	C7H6NO2-
137.0483	8	C7H7NO2-
138.0196	8	C6H4NO3-
138.0562	1	C7H8NO2-
139.0099	3	C6H5NOS-
143.0614	5	C9H7N2-
144.0455	3	C9H6NO-
145.0408	12	C8H5N2O-
146.0246	7	C8H4NO2-
146.0484	4	C8H6N2O-
146.0611	6	C9H8NO-
147.0327	5	C2H11O5S-
147.0565	21	C8H7N2O-
148.0405	263	C8H6NO2-
148.0769	42	C9H10NO-
148.9947	1	C7H3NOS-
150.0198	6	C7H4NO3-
150.0436	9	C7H6N2O2-
151.0514	11	C7H7N2O2-
152.0354	94	C7H6NO3-
152.0718	16	C8H10NO2-
155.0047	52	C6H5NO2S-
156.0126	259	C6H6NO2S-
157.9919	1	C5H4NO3S-
158.0486	4	C9H6N2O-
159.0563	15	C9H7N2O-
160.0274	6	C8H4N2O2-
160.0773	1	C10H10NO-
161.0357	27	C8H5N2O2-
161.0722	1	C9H9N2O-
162.0436	21	C8H6N2O2-
162.0562	4	C9H8NO2-
162.0925	13	C10H12NO-
163.0276	2	C8H5NO3-
163.0513	9	C8H7N2O2-
164.0355	43	C8H6NO3-
164.0591	19	C8H8N2O2-
165.0673	1	C8H9N2O2-
166.051	12	C8H8NO3-
169.9918	3	C6H4NO3S-
170.9997	28	C6H5NO3S-
171.036	8	C7H9NO2S-
171.0565	10	C10H7N2O-
172.0642	3	C10H8N2O-
173.0355	1	C9H5N2O2-
173.0721	11	C10H9N2O-
173.9869	1	C5H4NO4S-
174.0435	8	C9H6N2O2-
175.0514	10	C9H7N2O2-
176.0592	8	C9H8N2O2-
176.0716	7	C10H10NO2-
177.0669	43	C9H9N2O2-
183.0564	5	C11H7N2O-
184.0074	60	C7H6NO3S-
184.0438	94	C8H10NO2S-
185.072	10	C11H9N2O-
186.0231	104	C7H8NO3S-
187.0877	6	C11H11N2O-
188.059	4	C10H8N2O2-
189.0668	11	C10H9N2O2-
190.0748	17	C10H10N2O2-
197.9868	5	C7H4NO4S-
198.0232	13	C8H8NO3S-
199.0509	1	C11H7N2O2-
201.0668	8	C11H9N2O2-
202.0748	14	C11H10N2O2-
203.0826	22	C11H11N2O2-
204.0905	7	C11H12N2O2-
205.0617	1	C10H9N2O3-
205.0981	1	C11H13N2O2-
211.0182	6	C8H7N2O3S-
212.0025	59	C8H6NO4S-
212.0388	43	C9H10NO3S-
215.0829	4	C12H11N2O2-
216.0908	3	C12H12N2O2-
217.0621	7	C11H9N2O3-
217.0983	11	C12H13N2O2-
218.1053	1	C12H14N2O2-
226.0545	6	C10H12NO3S-
229.0986	4	C13H13N2O2-
236.0807	1	C11H12N2O4-
237.0341	1	C10H9N2O3S-
239.0497	1	C10H11N2O3S-
240.0336	39	C10H10NO4S-
241.029	11	C9H9N2O4S-
241.0398	1	C16H5N2O-
245.1177	1	C13H15N3O2-
253.0285	1	C10H9N2O4S-
295.0758	1	C13H15N2O4S-
