Mass spectrum: Etodolac; LC-ESI-QFT; MS2; CE: 15; R=35000; [M+H]+
Name: Etodolac
Name: 2-(1,8-diethyl-4,9-dihydro-3H-pyrano[3,4-b]indol-1-yl)acetic acid
Formula: C17H21NO3
Exact mass: 287.15214
SMILES: CCC1=C2C(=CC=C1)C3=C(N2)C(OCC3)(CC)CC(=O)O
InChI: InChI=1S/C17H21NO3/c1-3-11-6-5-7-12-13-8-9-21-17(4-2,10-14(19)20)16(13)18-15(11)12/h5-7,18H,3-4,8-10H2,1-2H3,(H,19,20)
Instrument: Q Exactive Orbitrap Thermo Scientific
Instrument type: LC-ESI-QFT
Ms type: MS2
Ion mode: POSITIVE
Ionization: ESI
Fragmentation mode: HCD
Collision energy: 15 (nominal)
Resolution: 35000
Column name: XBridge C18 3.5um, 2.1x50mm, Waters
Retention time: 12.5 min
Base peak: 288.1594
Precursor m/z: 288.1594
Precursor type: [M+H]+
m/z	relative intensity	assigned
143.0731	3	C10H9N+
144.0809	1	C10H10N+
156.0806	1	C11H10N+
172.1121	999	C12H14N+
210.1278	8	C15H16N+
224.1431	3	C16H18N+
228.1384	9	C15H18NO+
229.1418	6	C10H19N3O3+
252.1384	5	C17H18NO+
270.1489	107	C17H20NO2+
288.1594	69	C17H22NO3+
