Mass spectrum: Pyrazophos; LC-ESI-QFT; MS2; CE: 30%; R=17500; [M+H]+
Name: Pyrazophos
Name: ethyl 2-diethoxyphosphinothioyloxy-5-methylpyrazolo[1,5-a]pyrimidine-6-carboxylate
Formula: C14H20N3O5PS
Exact mass: 373.0861
SMILES: CCOC(=O)C1=CN2C(=CC(=N2)OP(=S)(OCC)OCC)N=C1C
InChI: InChI=1S/C14H20N3O5PS/c1-5-19-14(18)11-9-17-12(15-10(11)4)8-13(16-17)22-23(24,20-6-2)21-7-3/h8-9H,5-7H2,1-4H3
Instrument: Exploris 240 Orbitrap Thermo Scientific
Instrument type: LC-ESI-QFT
Ms type: MS2
Ion mode: POSITIVE
Ionization: ESI
Fragmentation mode: HCD
Collision energy: 30 % (nominal)
Resolution: 17500
Column name: XBridge C18 3.5um, 2.1x50mm, Waters
Retention time: 11.575 min
Base peak: 374.0932
Precursor m/z: 374.0934
Precursor type: [M+H]+
m/z	relative intensity	assigned
93.0099	5	C2H6O2P+
113.9535	4	H3O3PS+
125.9895	8	C2H7O2PS+
141.9845	10	C2H7O3PS+
170.0162	29	C4H11O3PS+
192.0226	7	C8H6N3OS+
194.0562	39	C8H8N3O3+
205.0845	33	C10H11N3O2+
211.0529	40	C9H11N2O2S+
222.0873	999	C10H12N3O3+
236.0484	44	C10H10N3O2S+
238.0645	287	C10H12N3O2S+
300.0201	32	C10H11N3O4PS+
318.0307	65	C10H13N3O5PS+
328.0508	25	C12H15N3O4PS+
346.062	258	C12H17N3O5PS+
374.0935	617	C14H21N3O5PS+
