Mass spectrum: Phenylbutazone; LC-ESI-QFT; MS2; CE: 30; R=35000; [M-H]-
Name: Phenylbutazone
Name: 4-butyl-1,2-diphenylpyrazolidine-3,5-dione
Formula: C19H20N2O2
Exact mass: 308.15248
SMILES: CCCCC1C(=O)N(N(C1=O)C2=CC=CC=C2)C3=CC=CC=C3
InChI: InChI=1S/C19H20N2O2/c1-2-3-14-17-18(22)20(15-10-6-4-7-11-15)21(19(17)23)16-12-8-5-9-13-16/h4-13,17H,2-3,14H2,1H3
Instrument: Q Exactive Plus Orbitrap Thermo Scientific
Instrument type: LC-ESI-QFT
Ms type: MS2
Ion mode: NEGATIVE
Ionization: ESI
Fragmentation mode: HCD
Collision energy: 30 (nominal)
Resolution: 35000
Column name: XBridge C18 3.5um, 2.1x50mm, Waters
Retention time: 11.2 min
Base peak: 307.1448
Precursor m/z: 307.1452
Precursor type: [M-H]-
m/z	relative intensity	assigned
77.0396	1	C6H5-
80.0506	1	C5H6N-
82.0662	22	C5H8N-
92.0505	56	C6H6N-
95.0502	6	C6H7O-
118.0662	1	C8H8N-
120.0454	4	C7H6NO-
131.0376	271	C8H5NO-
132.0454	7	C8H6NO-
132.0817	2	C9H10N-
144.0453	2	C9H6NO-
157.0533	7	C10H7NO-
158.0975	4	C11H12N-
160.1132	81	C11H14N-
161.0971	1	C11H13O-
168.0819	23	C12H10N-
170.0975	33	C12H12N-
176.108	5	C11H14NO-
186.0924	17	C12H12NO-
187.0512	2	C10H7N2O2-
188.1081	88	C12H14NO-
204.103	2	C12H14NO2-
206.0849	6	C14H10N2-
214.0872	8	C13H12NO2-
230.1057	5	C13H14N2O2-
250.0748	7	C15H10N2O2-
264.1397	2	C18H18NO-
279.1504	453	C18H19N2O-
307.1452	999	C19H19N2O2-
