Mass spectrum: Phosphamidon; LC-ESI-QFT; MS2; CE: 60%; R=17500; [M+H]+
Name: Phosphamidon
Name: 2-Chloro-3-(diethylamino)-1-methyl-3-oxo-1-propenyl dimethyl phosphate
Name: [3-chloro-4-(diethylamino)-4-oxobut-2-en-2-yl] dimethyl phosphate
Formula: C10H19ClNO5P
Exact mass: 299.0689
SMILES: CCN(CC)C(=O)C(=C(C)OP(=O)(OC)OC)Cl
InChI: InChI=1S/C10H19ClNO5P/c1-6-12(7-2)10(13)9(11)8(3)17-18(14,15-4)16-5/h6-7H2,1-5H3
Instrument: Exploris 240 Orbitrap Thermo Scientific
Instrument type: LC-ESI-QFT
Ms type: MS2
Ion mode: POSITIVE
Ionization: ESI
Fragmentation mode: HCD
Collision energy: 60 % (nominal)
Resolution: 17500
Column name: XBridge C18 3.5um, 2.1x50mm, Waters
Retention time: 5.169 min
Base peak: 300.076
Precursor m/z: 300.0762
Precursor type: [M+H]+
m/z	relative intensity	assigned
65.0386	22	C5H5+
67.0542	22	C5H7+
72.0444	584	C3H6NO+
72.0807	55	C4H10N+
72.984	35	C3H2Cl+
74.0964	23	C4H12N+
74.9997	71	C3H4Cl+
75.9949	108	C2H3ClN+
82.0648	41	C5H8N+
92.0492	20	C6H6N+
100.0757	273	C5H10NO+
100.9789	28	C4H2ClO+
101.0155	28	CH9ClNP+
102.9947	66	C4H4ClO+
104.0261	77	C4H7ClN+
109.0049	29	C2H6O3P+
110.0601	93	C6H8NO+
110.0966	8	C7H12N+
127.0155	999	C2H8O4P+
132.0577	105	C6H11ClN+
138.0916	14	C8H12NO+
146.0365	15	C5H9NO2P+
174.0682	28	C8H13ClNO+
