Mass spectrum: Neotame; LC-ESI-ITFT; MS2; CE: 35%; R=30000; [M-H]-
Name: Neotame
Name: (3S)-3-(3,3-dimethylbutylamino)-4-[[(2S)-1-methoxy-1-oxidanylidene-3-phenyl-propan-2-yl]amino]-4-oxidanylidene-butanoic acid
Formula: C20H30N2O5
Exact mass: 378.2155
SMILES: CC(C)(C)CCN[C@@H](CC(=O)O)C(=O)N[C@@H](CC1=CC=CC=C1)C(=O)OC
InChI: InChI=1S/C20H30N2O5/c1-20(2,3)10-11-21-15(13-17(23)24)18(25)22-16(19(26)27-4)12-14-8-6-5-7-9-14/h5-9,15-16,21H,10-13H2,1-4H3,(H,22,25)(H,23,24)/t15-,16-/m0/s1
Instrument: LTQ Orbitrap XL Thermo Scientific
Instrument type: LC-ESI-ITFT
Ms type: MS2
Ion mode: NEGATIVE
Ionization: ESI
Fragmentation mode: CID
Collision energy: 35 % (nominal)
Resolution: 30000
Column name: XBridge C18 3.5um, 2.1x50mm, Waters
Retention time: 9.0 min
Base peak: 377.2074
Precursor m/z: 377.2082
Precursor type: [M-H]-
m/z	relative intensity	assigned
126.1287	2	C8H16N-
170.1187	1	C9H16NO2-
174.056	13	C10H8NO2-
197.1296	2	C10H17N2O2-
200.0717	479	C12H10NO2-
230.1551	16	C15H20NO-
244.0617	9	C13H10NO4-
257.2023	12	C17H25N2-
276.0872	2	C14H14NO5-
283.1819	10	C18H23N2O-
301.192	63	C18H25N2O2-
317.1869	6	C18H25N2O3-
327.1714	6	C19H23N2O3-
331.2033	1	C19H27N2O3-
345.1819	999	C19H25N2O4-
359.1974	119	C20H27N2O4-
