Mass spectrum: Eseroline; LC-ESI-QFT; MS2; CE: 75; R=35000; [M+H]+
Name: Eseroline
Name: 1,3a,8-Trimethyl-1,2,3,3a,8,8a-hexahydropyrrolo[2,3-b]indol-5-ol
Name: 3,4,8b-trimethyl-2,3a-dihydro-1H-pyrrolo[2,3-b]indol-7-ol
Formula: C13H18N2O
Exact mass: 218.14191
SMILES: CC12CCN(C1N(C3=C2C=C(C=C3)O)C)C
InChI: InChI=1S/C13H18N2O/c1-13-6-7-14(2)12(13)15(3)11-5-4-9(16)8-10(11)13/h4-5,8,12,16H,6-7H2,1-3H3
Instrument: Q Exactive Plus Orbitrap Thermo Scientific
Instrument type: LC-ESI-QFT
Ms type: MS2
Ion mode: POSITIVE
Ionization: ESI
Fragmentation mode: HCD
Collision energy: 75 (nominal)
Resolution: 35000
Column name: XBridge C18 3.5um, 2.1x50mm, Waters
Retention time: 2.4 min
Base peak: 164.9844
Precursor m/z: 219.1492
Precursor type: [M+H]+
m/z	relative intensity	assigned
51.0229	8	C4H3+
53.0386	27	C4H5+
55.0178	9	C3H3O+
55.0543	177	C4H7+
56.0494	6	C3H6N+
57.0699	34	C4H9+
58.0651	26	C3H8N+
59.0491	27	C3H7O+
60.0443	22	C2H6NO+
65.0386	19	C5H5+
67.0543	68	C5H7+
69.0335	9	C4H5O+
69.0699	62	C5H9+
77.0383	5	C6H5+
78.0462	4	C6H6+
79.0542	112	C6H7+
81.0334	5	C5H5O+
81.0699	83	C6H9+
83.0491	73	C5H7O+
83.0855	5	C6H11+
85.065	5	C5H9O+
86.0963	8	C5H12N+
87.044	4	C4H7O2+
91.0543	124	C7H7+
93.07	122	C7H9+
94.0651	4	C6H8N+
95.0492	67	C6H7O+
95.0855	29	C7H11+
97.0076	29	C8H+
99.044	4	C5H7O2+
103.0543	30	C8H7+
105.0448	42	C6H5N2+
105.0699	178	C8H9+
106.0651	29	C7H8N+
107.0491	20	C7H7O+
107.0729	17	C7H9N+
107.0855	81	C8H11+
109.0649	30	C7H9O+
111.0233	5	C9H3+
111.0441	20	C6H7O2+
113.0596	5	C6H9O2+
115.0543	30	C9H7+
116.0625	4	C9H8+
117.0572	7	C8H7N+
117.0699	42	C9H9+
119.0856	175	C9H11+
120.0808	17	C8H10N+
121.0284	23	C7H5O2+
121.0649	54	C8H9O+
121.1012	99	C9H13+
123.0804	6	C8H11O+
128.0621	16	C10H8+
129.0699	41	C10H9+
130.0651	7	C9H8N+
130.0777	10	C10H10+
131.0492	10	C9H7O+
131.0856	50	C10H11+
132.0808	19	C9H10N+
133.0648	18	C9H9O+
133.1012	137	C10H13+
134.0601	450	C8H8NO+
134.0965	81	C9H12N+
135.0677	18	C8H9NO+
135.0805	19	C9H11O+
135.1169	17	C10H15+
141.0702	5	C11H9+
142.078	8	C11H10+
143.0857	16	C11H11+
144.0811	9	C10H10N+
145.0649	22	C10H9O+
145.0886	19	C10H11N+
145.1013	56	C11H13+
146.0602	140	C9H8NO+
147.0679	999	C9H9NO+
148.0758	46	C9H10NO+
155.0602	6	C10H7N2+
155.0858	8	C12H11+
157.1012	5	C12H13+
159.0806	17	C11H11O+
159.117	8	C12H15+
160.0758	110	C10H10NO+
160.1122	8	C11H14N+
160.1247	8	C12H16+
161.0836	284	C10H11NO+
161.0959	30	C11H13O+
161.1325	45	C12H17+
162.0551	245	C9H8NO2+
162.0914	590	C10H12NO+
163.1121	4	C11H15O+
170.1093	22	C13H14+
172.0757	25	C11H10NO+
173.0836	112	C11H11NO+
173.0962	22	C12H13O+
174.0912	6	C11H12NO+
175.1121	6	C12H15O+
175.1479	9	C13H19+
176.0705	18	C10H10NO2+
176.1072	64	C11H14NO+
187.1119	20	C13H15O+
188.107	42	C12H14NO+
188.1198	7	C13H16O+
