Mass spectrum: Lacosamide; LC-ESI-QFT; MS2; CE: 45; R=35000; [M+H]+
Name: Lacosamide
Name: N2-Acetyl-N-benzyl-O-methyl-D-serinamide
Name: 2-acetamido-N-benzyl-3-methoxypropanamide
Formula: C13H18N2O3
Exact mass: 250.13174
SMILES: CC(=O)NC(COC)C(=O)NCC1=CC=CC=C1
InChI: InChI=1S/C13H18N2O3/c1-10(16)15-12(9-18-2)13(17)14-8-11-6-4-3-5-7-11/h3-7,12H,8-9H2,1-2H3,(H,14,17)(H,15,16)
Instrument: Q Exactive Plus Orbitrap Thermo Scientific
Instrument type: LC-ESI-QFT
Ms type: MS2
Ion mode: POSITIVE
Ionization: ESI
Fragmentation mode: HCD
Collision energy: 45 (nominal)
Resolution: 35000
Column name: XBridge C18 3.5um, 2.1x50mm, Waters
Retention time: 5.1 min
Base peak: 251.138
Precursor m/z: 251.139
Precursor type: [M+H]+
m/z	relative intensity	assigned
59.0365	1	C2H5NO+
59.0491	2	C3H7O+
65.0384	2	C5H5+
74.0599	605	C3H8NO+
84.0443	6	C4H6NO+
91.0541	999	C7H7+
108.0806	127	C7H10N+
112.0392	24	C5H6NO2+
115.0541	1	C9H7+
116.0704	371	C5H10NO2+
117.0696	4	C9H9+
120.0806	3	C8H10N+
132.0806	9	C9H10N+
144.0654	10	C6H10NO3+
148.0754	6	C9H10NO+
160.0755	4	C10H10NO+
164.1068	19	C10H14NO+
177.102	18	C10H13N2O+
209.1282	10	C11H17N2O2+
