Mass spectrum: Darunavir; LC-ESI-QFT; MS2; CE: 45; R=35000; [M+H]+
Name: Darunavir
Name: N-[(1S,2R)-1-benzyl-2-hydroxy-3-[isobutyl(sulfanilyl)amino]propyl]carbamic acid [(3aS,4R,6aR)-2,3,3a,4,5,6a-hexahydrofuro[2,3-b]furan-4-yl] ester
Formula: C27H37N3O7S
Exact mass: 547.23522
SMILES: CC(C)CN(CC(C(CC1=CC=CC=C1)NC(=O)OC2COC3C2CCO3)O)S(=O)(=O)C4=CC=C(C=C4)N
InChI: InChI=1S/C27H37N3O7S/c1-18(2)15-30(38(33,34)21-10-8-20(28)9-11-21)16-24(31)23(14-19-6-4-3-5-7-19)29-27(32)37-25-17-36-26-22(25)12-13-35-26/h3-11,18,22-26,31H,12-17,28H2,1-2H3,(H,29,32)/t22-,23-,24+,25-,26+/m0/s1
Instrument: Q Exactive Orbitrap Thermo Scientific
Instrument type: LC-ESI-QFT
Ms type: MS2
Ion mode: POSITIVE
Ionization: ESI
Fragmentation mode: HCD
Collision energy: 45 (nominal)
Resolution: 35000
Column name: XBridge C18 3.5um, 2.1x50mm, Waters
Retention time: 8.7 min
Base peak: 548.2426
Precursor m/z: 548.2425
Precursor type: [M+H]+
m/z	relative intensity	assigned
55.0543	3	C4H7+
57.07	11	C4H9+
65.0386	11	C5H5+
67.0542	108	C5H7+
69.0335	999	C4H5O+
83.0491	1	C5H7O+
84.0806	1	C5H10N+
85.0284	3	C4H5O2+
85.0648	7	C5H9O+
86.0965	17	C5H12N+
91.0542	4	C7H7+
92.0494	47	C6H6N+
95.0492	13	C6H7O+
96.0807	2	C6H10N+
100.1121	3	C6H14N+
108.0444	83	C6H6NO+
110.0601	6	C6H8NO+
113.0597	63	C6H9O2+
113.1073	11	C6H13N2+
114.1151	3	C6H14N2+
117.0699	1	C9H9+
120.0808	41	C8H10N+
127.1229	7	C7H15N2+
129.0699	28	C10H9+
131.0856	4	C10H11+
134.0966	5	C9H12N+
144.0808	5	C10H10N+
146.0965	18	C10H12N+
156.0114	321	C6H6NO2S+
158.0965	5	C11H12N+
164.107	4	C10H14NO+
189.1023	1	C11H13N2O+
200.1431	5	C14H18N+
202.159	21	C14H20N+
218.1538	1	C14H20NO+
220.17	3	C14H22NO+
237.1962	4	C14H25N2O+
241.1007	3	C11H17N2O2S+
