Mass spectrum: 1-(3-Chlorophenyl)piperazine; LC-ESI-ITFT; MS2; CE: 75%; R=7500; [M+H]+
Name: 1-(3-Chlorophenyl)piperazine
Formula: C10H13ClN2
Exact mass: 196.0767
SMILES: c1c(Cl)cccc1N1CCNCC1
InChI: InChI=1S/C10H13ClN2/c11-9-2-1-3-10(8-9)13-6-4-12-5-7-13/h1-3,8,12H,4-7H2
Instrument: LTQ Orbitrap XL Thermo Scientific
Instrument type: LC-ESI-ITFT
Ms type: MS2
Ion mode: POSITIVE
Ionization: ESI
Fragmentation mode: HCD
Collision energy: 75 % (nominal)
Resolution: 7500
Column name: XBridge C18 3.5um, 2.1x50mm, Waters
Retention time: 5.2 min
Base peak: 197.0847
Precursor m/z: 197.084
Precursor type: [M+H]+
m/z	relative intensity	assigned
70.0652	27	C4H8N+
77.0387	4	C6H5+
91.0545	13	C7H7+
92.0624	6	C7H8+
104.0496	13	C7H6N+
110.9999	4	C6H4Cl+
117.0577	13	C8H7N+
118.0652	218	C8H8N+
119.0731	469	C8H9N+
120.0804	6	C8H10N+
126.0104	3	C6H5ClN+
130.0653	9	C9H8N+
132.0814	4	C9H10N+
138.0106	14	C7H5ClN+
139.0055	4	C6H4ClN2+
140.0263	56	C7H7ClN+
144.081	6	C10H10N+
145.0888	13	C10H11N+
152.0263	10	C8H7ClN+
154.042	999	C8H9ClN+
166.0418	26	C9H9ClN+
167.0372	6	C8H8ClN2+
168.058	4	C9H11ClN+
180.0579	12	C10H11ClN+
195.0685	47	C10H12ClN2+
197.084	103	C10H14ClN2+
