Mass spectrum: Deferasirox; LC-ESI-QFT; MS2; CE: 30; R=35000; [M-H]-
Name: Deferasirox
Formula: C21H15N3O4
Exact mass: 373.10626
SMILES: OC(=O)c1ccc(cc1)n2nc(nc2c3ccccc3O)c4ccccc4O
InChI: InChI=1S/C21H15N3O4/c25-17-7-3-1-5-15(17)19-22-20(16-6-2-4-8-18(16)26)24(23-19)14-11-9-13(10-12-14)21(27)28/h1-12,25-26H,(H,27,28)
Instrument: Q Exactive Orbitrap Thermo Scientific
Instrument type: LC-ESI-QFT
Ms type: MS2
Ion mode: NEGATIVE
Ionization: ESI
Fragmentation mode: HCD
Collision energy: 30 (nominal)
Resolution: 35000
Column name: XBridge C18 3.5um, 2.1x50mm, Waters
Retention time: 13.0 min
Base peak: 372.0991
Precursor m/z: 372.099
Precursor type: [M-H]-
m/z	relative intensity	assigned
93.0346	3	C6H5O-
102.0349	1	C7H4N-
118.0299	41	C7H4NO-
132.0329	1	C7H4N2O-
133.0408	68	C7H5N2O-
160.0516	3	C8H6N3O-
169.0657	1	C12H9O-
194.0611	3	C13H8NO-
209.072	17	C13H9N2O-
234.0673	2	C14H8N3O-
251.0696	2	C14H9N3O2-
252.0777	88	C14H10N3O2-
310.0987	19	C20H12N3O-
326.0938	8	C20H12N3O2-
328.109	999	C20H14N3O2-
372.0988	11	C21H14N3O4-
