Mass spectrum: Diltiazem; LC-ESI-QFT; MS2; CE: 30; R=35000; [M+H]+
Name: Diltiazem
Name: 1,5-Benzothiazepin-4(5H)-one, 3-(acetyloxy)-5-[2-(dimethylamino)ethyl]-2,3-dihydro-2-(4-methoxyphenyl)-, (2S-cis)-
Name: [5-(2-dimethylaminoethyl)-2-(4-methoxyphenyl)-4-oxidanylidene-2,3-dihydro-1,5-benzothiazepin-3-yl] ethanoate
Formula: C22H26N2O4S
Exact mass: 414.16133
SMILES: CC(=O)OC1C(SC2=CC=CC=C2N(C1=O)CCN(C)C)C3=CC=C(C=C3)OC
InChI: InChI=1S/C22H26N2O4S/c1-15(25)28-20-21(16-9-11-17(27-4)12-10-16)29-19-8-6-5-7-18(19)24(22(20)26)14-13-23(2)3/h5-12,20-21H,13-14H2,1-4H3
Instrument: Q Exactive Orbitrap Thermo Scientific
Instrument type: LC-ESI-QFT
Ms type: MS2
Ion mode: POSITIVE
Ionization: ESI
Fragmentation mode: HCD
Collision energy: 30 (nominal)
Resolution: 35000
Column name: XBridge C18 3.5um, 2.1x50mm, Waters
Retention time: 7.3 min
Base peak: 415.1692
Precursor m/z: 415.1686
Precursor type: [M+H]+
m/z	relative intensity	assigned
58.0652	3	C3H8N+
72.0808	33	C4H10N+
109.0104	4	C6H5S+
121.0648	8	C8H9O+
137.0598	34	C8H9O2+
150.0374	17	C8H8NS+
178.0322	999	C9H8NOS+
179.0704	1	C10H11O3+
191.04	13	C10H9NOS+
223.0902	15	C11H15N2OS+
234.0585	3	C12H12NO2S+
310.0899	55	C18H16NO2S+
312.1057	32	C18H18NO2S+
328.1007	3	C18H18NO3S+
355.1478	3	C20H23N2O2S+
370.1113	28	C20H20NO4S+
415.1689	45	C22H27N2O4S+
