Mass spectrum: Azinphos-ethyl; LC-ESI-QFT; MS2; CE: 15; R=35000; [M+H]+
Name: Azinphos-ethyl
Name: Azinphos ethyl
Name: 3-(diethoxyphosphinothioylsulfanylmethyl)-1,2,3-benzotriazin-4-one
Formula: C12H16N3O3PS2
Exact mass: 345.03707
SMILES: CCOP(=S)(OCC)SCN1C(=O)C2=CC=CC=C2N=N1
InChI: InChI=1S/C12H16N3O3PS2/c1-3-17-19(20,18-4-2)21-9-15-12(16)10-7-5-6-8-11(10)13-14-15/h5-8H,3-4,9H2,1-2H3
Instrument: Q Exactive Plus Orbitrap Thermo Scientific
Instrument type: LC-ESI-QFT
Ms type: MS2
Ion mode: POSITIVE
Ionization: ESI
Fragmentation mode: HCD
Collision energy: 15 (nominal)
Resolution: 35000
Column name: XBridge C18 3.5um, 2.1x50mm, Waters
Retention time: 11.4 min
Base peak: 346.0438
Precursor m/z: 346.0443
Precursor type: [M+H]+
m/z	relative intensity	assigned
51.0228	1	C4H3+
64.9786	2	H2O2P+
75.0263	6	C3H7S+
77.0385	6	C6H5+
96.9506	18	H2O2PS+
104.0496	19	C7H6N+
105.0336	31	C7H5O+
109.9825	1	CH5NOPS+
114.9614	390	H4O3PS+
120.0447	2	C3H9N2OP+
124.9821	40	C2H6O2PS+
126.9435	8	CH4OPS2+
128.977	16	CH6O3PS+
132.0445	999	C8H6NO+
135.9976	2	C7H4OS+
136.022	11	C3H9N2PS+
137.0056	118	C7H5OS+
138.0138	23	C3H9NOPS+
142.9387	301	CH4O2PS2+
148.0217	58	C8H6NS+
150.0551	91	C4H11N2O2P+
152.9829	9	C3H8NPS2+
153.0135	177	C4H10O2PS+
160.0507	614	C8H6N3O+
164.0706	8	C9H10NO2+
166.0323	133	C4H11N2OPS+
170.9699	555	C3H8O2PS2+
171.0241	347	C4H12O3PS+
197.009	3	C9H9OS2+
199.0013	155	
216.9719	9	C7H6O4PS+
232.9493	779	C7H6O3PS2+
260.9807	818	C9H10O3PS2+
261.9759	76	C8H9NO3PS2+
289.0119	218	
