Mass spectrum: Reserpine; LC-ESI-ITFT; MS2; CE: 75%; R=15000; [M+H]+
Name: Reserpine
Name: (1S,2R,3R,4aS,13bR,14aS)-2,11-dimethoxy-3-(3,4,5-trimethoxybenzoyl)oxy-1,2,3,4,4a,5,7,8,13,13b,14,14a-dodecahydroisoquinolino[3,2-a]$b-carboline-1-carboxylic acid methyl ester
Formula: C33H40N2O9
Exact mass: 608.2734
SMILES: CO[C@H]1[C@@H](C[C@@H]2CN3CCC4=C([C@H]3C[C@@H]2[C@@H]1C(=O)OC)NC5=C4C=CC(=C5)OC)OC(=O)C6=CC(=C(C(=C6)OC)OC)OC
InChI: InChI=1S/C33H40N2O9/c1-38-19-7-8-20-21-9-10-35-16-18-13-27(44-32(36)17-11-25(39-2)30(41-4)26(12-17)40-3)31(42-5)28(33(37)43-6)22(18)15-24(35)29(21)34-23(20)14-19/h7-8,11-12,14,18,22,24,27-28,31,34H,9-10,13,15-16H2,1-6H3/t18-,22+,24-,27-,28+,31+/m1/s1
Instrument: LTQ Orbitrap XL Thermo Scientific
Instrument type: LC-ESI-ITFT
Ms type: MS2
Ion mode: POSITIVE
Ionization: ESI
Fragmentation mode: HCD
Collision energy: 75 % (nominal)
Resolution: 15000
Column name: XBridge C18 3.5um, 2.1x50mm, Waters
Retention time: 8.3 min
Base peak: 609.2812
Precursor m/z: 609.2807
Precursor type: [M+H]+
m/z	relative intensity	assigned
53.0385	35	C4H5+
65.0386	19	C5H5+
66.0464	14	C5H6+
67.0542	14	C5H7+
70.0651	4	C4H8N+
71.049	7	C4H7O+
75.044	8	C3H7O2+
77.0386	80	C6H5+
78.0463	12	C6H6+
79.0542	104	C6H7+
80.0494	11	C5H6N+
81.0334	115	C5H5O+
81.0698	47	C6H9+
82.065	4	C5H8N+
83.0491	5	C5H7O+
85.0284	5	C4H5O2+
91.0542	84	C7H7+
92.0255	11	C6H4O+
92.0495	4	C6H6N+
93.0336	6	C6H5O+
93.0572	10	C6H7N+
93.0699	6	C7H9+
94.0413	24	C6H6O+
94.0651	33	C6H8N+
95.049	31	C6H7O+
96.0569	71	C6H8O+
97.0647	12	C6H9O+
99.0439	6	C5H7O2+
101.0597	7	C5H9O2+
103.0541	21	C8H7+
105.0334	11	C7H5O+
105.0447	30	C6H5N2+
105.0697	29	C8H9+
106.0412	9	C7H6O+
106.065	18	C7H8N+
107.0127	12	C6H3O2+
107.0491	22	C7H7O+
107.0729	6	C7H9N+
108.0569	43	C7H8O+
108.0806	12	C7H10N+
109.0283	28	C6H5O2+
109.0647	111	C7H9O+
111.044	25	C6H7O2+
111.0803	20	C7H11O+
113.0232	5	C5H5O3+
113.0597	20	C6H9O2+
115.0541	68	C9H7+
116.062	20	C9H8+
117.0572	23	C8H7N+
117.0698	25	C9H9+
118.065	32	C8H8N+
119.0489	6	C8H7O+
119.0729	5	C8H9N+
119.0859	6	C9H11+
120.0807	21	C8H10N+
121.0283	25	C7H5O2+
121.0647	29	C8H9O+
122.0362	113	C7H6O2+
122.0726	7	C8H10O+
123.0439	9	C7H7O2+
123.0805	8	C8H11O+
124.0518	112	C7H8O2+
128.0622	8	C10H8+
129.0699	16	C10H9+
130.065	147	C9H8N+
131.0729	484	C9H9N+
132.0444	10	C8H6NO+
132.0568	15	C9H8O+
132.0807	53	C9H10N+
133.0522	10	C8H7NO+
133.0646	10	C9H9O+
134.0361	11	C8H6O2+
134.0601	7	C8H8NO+
135.0438	7	C8H7O2+
135.0803	9	C9H11O+
136.0755	12	C8H10NO+
137.0232	96	C7H5O3+
137.0592	9	C8H9O2+
139.0752	236	C8H11O2+
141.0186	4	C6H5O4+
142.065	50	C10H8N+
143.0729	367	C10H9N+
144.0568	16	C10H8O+
144.0806	87	C10H10N+
145.052	20	C9H7NO+
145.0645	6	C10H9O+
145.0883	26	C10H11N+
146.0599	62	C9H8NO+
146.0965	20	C10H12N+
147.0676	36	C9H9NO+
147.0803	54	C10H11O+
148.0755	37	C9H10NO+
149.0596	24	C9H9O2+
151.0388	68	C8H7O3+
152.0467	404	C8H8O3+
154.0656	14	C11H8N+
155.0601	11	C10H7N2+
155.0728	15	C11H9N+
156.0413	9	C7H8O4+
156.0806	18	C11H10N+
157.0887	21	C11H11N+
158.06	56	C10H8NO+
158.0962	5	C11H12N+
159.0678	675	C10H9NO+
160.0755	152	C10H10NO+
161.0596	5	C10H9O2+
161.0834	53	C10H11NO+
162.0911	18	C10H12NO+
164.1065	5	C10H14NO+
167.0697	40	C9H11O3+
168.0806	15	C12H10N+
169.0885	12	C12H11N+
170.06	40	C11H8NO+
171.0678	10	C11H9NO+
172.0756	52	C11H10NO+
173.0834	95	C11H11NO+
174.0912	999	C11H12NO+
175.0948	9	C6H13N3O3+
180.0801	7	C13H10N+
181.0887	15	C13H11N+
182.0598	12	C12H8NO+
183.0676	14	C12H9NO+
184.0365	10	C8H8O5+
184.064	4	C11H8N2O+
184.0755	50	C12H10NO+
185.0833	35	C12H11NO+
186.0912	69	C12H12NO+
187.099	20	C12H13NO+
188.0698	5	C11H10NO2+
188.1067	23	C12H14NO+
192.0812	6	C14H10N+
192.1017	10	C11H14NO2+
193.0882	13	C14H11N+
194.0965	10	C14H12N+
195.065	405	C10H11O4+
195.9646	3	C7O7+
196.0753	23	C13H10NO+
197.0711	4	C12H9N2O+
197.0834	19	C13H11NO+
198.0914	35	C13H12NO+
199.0865	41	C12H11N2O+
199.0988	8	C13H13NO+
200.1068	24	C13H14NO+
201.1021	8	C12H13N2O+
204.0808	13	C15H10N+
204.1018	5	C12H14NO2+
205.0882	12	C15H11N+
206.0965	14	C15H12N+
207.1041	9	C15H13N+
208.0751	16	C14H10NO+
208.0993	3	C14H12N2+
209.083	16	C14H11NO+
210.0913	41	C14H12NO+
210.1145	4	C14H14N2+
211.0859	5	C13H11N2O+
211.0989	16	C14H13NO+
212.0943	12	C13H12N2O+
212.1066	12	C14H14NO+
213.102	10	C13H13N2O+
214.11	5	C13H14N2O+
215.1183	5	C13H15N2O+
217.0886	11	C16H11N+
218.0964	13	C16H12N+
219.0677	4	C15H9NO+
219.1041	9	C16H13N+
220.0759	14	C15H10NO+
221.0831	13	C15H11NO+
221.1072	7	C15H13N2+
222.0913	32	C15H12NO+
222.1152	5	C15H14N2+
223.0859	6	C14H11N2O+
223.099	18	C15H13NO+
224.1068	52	C15H14NO+
225.1027	8	C14H13N2O+
226.1218	4	C15H16NO+
227.1175	20	C14H15N2O+
230.0962	11	C17H12N+
231.1042	14	C17H13N+
232.0752	9	C16H10NO+
233.084	13	C16H11NO+
234.0914	32	C16H12NO+
235.0861	6	C15H11N2O+
235.0986	20	C16H13NO+
236.0947	21	C15H12N2O+
236.1067	32	C16H14NO+
237.102	19	C15H13N2O+
237.1144	11	C16H15NO+
238.1097	9	C15H14N2O+
238.1223	16	C16H16NO+
239.1176	19	C15H15N2O+
242.0959	6	C18H12N+
243.104	5	C18H13N+
244.112	9	C18H14N+
245.1195	7	C18H15N+
246.0911	37	C17H12NO+
247.0991	25	C17H13NO+
248.1069	46	C17H14NO+
249.079	7	C16H11NO2+
249.102	22	C16H13N2O+
249.1146	10	C17H15NO+
250.0873	7	C16H12NO2+
250.1097	20	C16H14N2O+
250.1226	17	C17H16NO+
251.1177	69	C16H15N2O+
253.1334	17	C16H17N2O+
258.0912	15	C18H12NO+
259.0988	10	C18H13NO+
260.1069	36	C18H14NO+
261.1145	28	C18H15NO+
262.1223	41	C18H16NO+
264.1021	12	C17H14NO2+
264.1252	7	C17H16N2O+
265.1335	26	C17H17N2O+
272.1067	11	C19H14NO+
273.1141	12	C19H15NO+
274.0851	7	C18H12NO2+
274.1221	20	C19H16NO+
275.1175	8	C18H15N2O+
276.1015	6	C18H14NO2+
276.1375	11	C19H18NO+
278.1177	5	C18H16NO2+
288.1384	6	C20H18NO+
289.1085	6	C19H15NO2+
289.1324	6	C19H17N2O+
291.1496	5	C19H19N2O+
448.2091	6	C24H32O8+
