Mass spectrum: Pirimicarb; LC-ESI-ITFT; MS2; CE: 75%; R=7500; [M+H]+
Name: Pirimicarb
Name: N,N-dimethylcarbamic acid [2-(dimethylamino)-5,6-dimethyl-4-pyrimidinyl] ester
Formula: C11H18N4O2
Exact mass: 238.1430
SMILES: n(c(c(C)c1OC(=O)N(C)C)C)c(n1)N(C)C
InChI: InChI=1S/C11H18N4O2/c1-7-8(2)12-10(14(3)4)13-9(7)17-11(16)15(5)6/h1-6H3
Instrument: LTQ Orbitrap XL Thermo Scientific
Instrument type: LC-ESI-ITFT
Ms type: MS2
Ion mode: POSITIVE
Ionization: ESI
Fragmentation mode: HCD
Collision energy: 75 % (nominal)
Resolution: 7500
Column name: XBridge C18 3.5um, 2.1x50mm, Waters
Retention time: 5.0 min
Base peak: 239.1506
Precursor m/z: 239.1503
Precursor type: [M+H]+
m/z	relative intensity	assigned
56.013	4	C2H2NO+
72.0445	999	C3H6NO+
83.024	30	C3H3N2O+
85.076	104	C4H9N2+
109.076	101	C6H9N2+
124.0631	9	C6H8N2O+
137.0709	48	C7H9N2O+
138.0787	42	C7H10N2O+
150.1025	32	C8H12N3+
152.082	28	C7H10N3O+
156.0531	2	C6H8N2O3+
167.1054	16	C8H13N3O+
180.1135	2	C9H14N3O+
182.1288	101	C9H16N3O+
