Mass spectrum: Codeine; LC-ESI-ITFT; MS2; CE: 60%; R=7500; [M+H]+
Name: Codeine
Name: (5,6)-3-Methoxy-17-methyl-7,8-didehydro-4,5-epoxymorphinan-6-ol
Name: Methylmorphine
Formula: C18H21NO3
Exact mass: 299.1521
SMILES: CN1CC[C@]23[C@@H]4[C@H]1CC5=C2C(=C(C=C5)OC)O[C@H]3[C@H](C=C4)O
InChI: InChI=1S/C18H21NO3/c1-19-8-7-18-11-4-5-13(20)17(18)22-16-14(21-2)6-3-10(15(16)18)9-12(11)19/h3-6,11-13,17,20H,7-9H2,1-2H3/t11-,12+,13-,17-,18-/m0/s1
Instrument: LTQ Orbitrap XL Thermo Scientific
Instrument type: LC-ESI-ITFT
Ms type: MS2
Ion mode: POSITIVE
Ionization: ESI
Fragmentation mode: HCD
Collision energy: 60 % (nominal)
Resolution: 7500
Column name: XBridge C18 3.5um, 2.1x50mm, Waters
Retention time: 2.8 min
Base peak: 300.1595
Precursor m/z: 300.1594
Precursor type: [M+H]+
m/z	relative intensity	assigned
58.0651	82	C3H8N+
69.0335	6	C4H5O+
71.0491	3	C4H7O+
81.0336	4	C5H5O+
83.049	3	C5H7O+
91.0541	5	C7H7+
93.0698	7	C7H9+
95.0492	3	C6H7O+
103.0543	3	C8H7+
121.0648	26	C8H9O+
129.0701	5	C10H9+
131.0491	5	C9H7O+
132.0807	4	C9H10N+
137.0599	57	C8H9O2+
141.0701	20	C11H9+
143.0491	8	C10H7O+
144.0571	29	C10H8O+
145.0649	10	C10H9O+
146.0606	7	C9H8NO+
147.0804	4	C10H11O+
149.0601	4	C9H9O2+
151.075	7	C9H11O2+
152.0623	4	C12H8+
153.0699	53	C12H9+
154.0777	6	C12H10+
155.0856	102	C12H11+
156.0569	15	C11H8O+
157.0653	10	C11H9O+
158.0727	23	C11H10O+
159.0805	89	C11H11O+
160.0756	8	C10H10NO+
161.0598	141	C10H9O2+
162.0915	5	C10H12NO+
163.0752	5	C10H11O2+
164.0699	3	C9H10NO2+
165.07	172	C13H9+
166.0779	13	C13H10+
167.0859	23	C13H11+
168.0571	37	C12H8O+
169.0653	15	C12H9O+
171.0805	91	C12H11O+
172.052	23	C11H8O2+
172.0885	27	C12H12O+
173.06	5	C11H9O2+
173.0961	14	C12H13O+
174.0676	25	C11H10O2+
175.0754	40	C11H11O2+
177.0702	9	C14H9+
181.0648	159	C13H9O+
181.102	30	C14H13+
182.0728	41	C13H10O+
183.0806	280	C13H11O+
184.0517	7	C12H8O2+
184.0884	13	C13H12O+
185.0599	40	C12H9O2+
185.0966	22	C13H13O+
186.0676	42	C12H10O2+
187.0755	151	C12H11O2+
187.1119	57	C13H15O+
189.0918	7	C12H13O2+
191.0855	54	C15H11+
192.102	26	C11H14NO2+
193.0652	117	C14H9O+
193.1012	21	C15H13+
194.0727	79	C14H10O+
195.0805	38	C14H11O+
196.0878	4	C14H12O+
197.0594	12	C13H9O2+
197.0961	57	C14H13O+
198.0676	43	C13H10O2+
198.104	4	C14H14O+
199.0754	399	C13H11O2+
200.0833	57	C13H12O2+
201.0911	36	C13H13O2+
202.0778	4	C16H10+
203.0849	8	C16H11+
205.0644	8	C15H9O+
206.0723	3	C15H10O+
207.0806	31	C15H11O+
208.0885	16	C15H12O+
209.0598	94	C14H9O2+
209.0964	38	C15H13O+
210.0678	38	C14H10O2+
210.1046	7	C15H14O+
211.0754	62	C14H11O2+
212.0832	48	C14H12O2+
213.0911	108	C14H13O2+
214.0982	8	C14H14O2+
215.1067	508	C14H15O2+
219.0807	36	C16H11O+
220.0886	20	C16H12O+
221.06	10	C15H9O2+
221.0959	34	C16H13O+
222.104	3	C16H14O+
222.128	3	C16H16N+
223.0755	71	C15H11O2+
223.112	6	C16H15O+
224.083	10	C15H12O2+
225.091	307	C15H13O2+
226.063	3	C14H10O3+
226.0981	11	C15H14O2+
227.0702	11	C14H11O3+
227.1074	8	C15H15O2+
228.0772	11	C14H12O3+
228.1019	8	C14H14NO2+
229.1105	4	C14H15NO2+
230.1168	4	C14H16NO2+
236.0838	27	C16H12O2+
237.091	16	C16H13O2+
238.098	18	C16H14O2+
239.1062	16	C16H15O2+
241.086	209	C15H13O3+
241.1232	15	C16H17O2+
243.1017	227	C15H15O3+
250.1228	16	C17H16NO+
251.1065	40	C17H15O2+
252.1012	10	C16H14NO2+
253.1222	27	C17H17O2+
254.1175	6	C16H16NO2+
266.1178	49	C17H16NO2+
267.1256	37	C17H17NO2+
269.1174	13	C17H17O3+
272.1279	3	C16H18NO3+
282.1491	71	C18H20NO2+
285.1362	10	C17H19NO3+
300.1599	999	C18H22NO3+
