Mass spectrum: Permethrin; LC-ESI-QFT; MS2; CE: 15; R=35000; [M+H]+
Name: Permethrin
Name: [3-(phenyloxy)phenyl]methyl 3-(2,2-dichloroethenyl)-2,2-dimethylcyclopropanecarboxylate
Name: (3-phenoxyphenyl)methyl 3-(2,2-dichloroethenyl)-2,2-dimethylcyclopropane-1-carboxylate
Formula: C21H20Cl2O3
Exact mass: 390.07895
SMILES: Cl/C(Cl)=C/C3C(C(=O)OCc2cccc(Oc1ccccc1)c2)C3(C)C
InChI: InChI=1S/C21H20Cl2O3/c1-21(2)17(12-18(22)23)19(21)20(24)25-13-14-7-6-10-16(11-14)26-15-8-4-3-5-9-15/h3-12,17,19H,13H2,1-2H3
Instrument: Q Exactive Orbitrap Thermo Scientific
Instrument type: LC-ESI-QFT
Ms type: MS2
Ion mode: POSITIVE
Ionization: ESI
Fragmentation mode: HCD
Collision energy: 15 (nominal)
Resolution: 35000
Column name: XBridge C18 3.5um, 2.1x50mm, Waters
Retention time: 18.0 min
Base peak: 183.0804
Precursor m/z: 391.0862
Precursor type: [M+H]+
m/z	relative intensity	assigned
57.0699	51	C4H9+
71.0854	240	C5H11+
77.0152	1	C3H6Cl+
113.0595	2	C6H9O2+
113.1324	41	C8H17+
149.0233	999	C8H5O3+
167.0338	460	C8H7O4+
181.049	1	C9H9O4+
183.0803	53	C13H11O+
219.0803	1	C16H11O+
226.0983	1	C15H14O2+
255.057	19	C16H12ClO+
261.0908	11	C18H13O2+
268.0646	1	C17H13ClO+
273.1273	3	C20H17O+
275.1429	15	C20H19O+
277.0858	2	C18H13O3+
279.1015	29	C18H15O3+
301.122	3	C21H17O2+
309.1038	2	C20H18ClO+
319.1327	44	C21H19O3+
355.1093	55	
