Mass spectrum: Ampicillin; LC-ESI-QFT; MS2; CE: 120; R=35000; [M+H]+
Name: Ampicillin
Name: 2-amino-1-methyl-5-propylideneimidazol-4-one
Name: 6-[(2-azaniumyl-2-phenylacetyl)amino]-3,3-dimethyl-7-oxo-4-thia-1-azabicyclo[3.2.0]heptane-2-carboxylate
Formula: C16H19N3O4S
Exact mass: 349.10963
SMILES: CC1(C(N2C(S1)C(C2=O)NC(=O)C(C3=CC=CC=C3)N)C(=O)O)C
InChI: InChI=1S/C16H19N3O4S/c1-16(2)11(15(22)23)19-13(21)10(14(19)24-16)18-12(20)9(17)8-6-4-3-5-7-8/h3-7,9-11,14H,17H2,1-2H3,(H,18,20)(H,22,23)
Instrument: Q Exactive Plus Orbitrap Thermo Scientific
Instrument type: LC-ESI-QFT
Ms type: MS2
Ion mode: POSITIVE
Ionization: ESI
Fragmentation mode: HCD
Collision energy: 120 (nominal)
Resolution: 35000
Column name: XBridge C18 3.5um, 2.1x50mm, Waters
Retention time: 4.7 min
Base peak: 350.1165
Precursor m/z: 350.1169
Precursor type: [M+H]+
m/z	relative intensity	assigned
50.0151	15	C4H2+
51.023	27	C4H3+
53.0023	11	C3HO+
53.0386	151	C4H5+
53.9975	2	C2NO+
54.0338	2	C3H4N+
55.0179	6	C3H3O+
55.0543	19	C4H7+
56.0131	4	C2H2NO+
56.0495	2	C3H6N+
57.9872	11	C2H2S+
58.9951	225	C2H3S+
59.9665	7	COS+
59.9903	5	CH2NS+
62.0059	10	CH4NS+
62.0151	1	C5H2+
63.023	12	C5H3+
64.0308	1	C5H4+
65.0386	231	C5H5+
66.0464	31	C5H6+
67.0417	8	C4H5N+
67.0543	7	C5H7+
68.0131	99	C3H2NO+
68.0495	31	C4H6N+
68.9794	16	C3HS+
69.0448	15	C3H5N2+
70.0652	121	C4H8N+
70.995	1	C3H3S+
71.0491	4	C4H7O+
72.9981	5	C2H3NS+
74.0059	23	C2H4NS+
75.023	9	C6H3+
75.0263	5	C3H7S+
77.0386	87	C6H5+
78.0465	14	C6H6+
79.0543	950	C6H7+
80.0495	17	C5H6N+
81.0336	10	C5H5O+
81.0447	1	C4H5N2+
81.0572	1	C5H7N+
82.0652	11	C5H8N+
85.0106	12	C4H5S+
85.0399	1	C3H5N2O+
86.006	223	C3H4NS+
87.0264	116	C4H7S+
89.0386	88	C7H5+
90.0465	155	C7H6+
91.0543	999	C7H7+
92.0496	4	C6H6N+
93.0699	1	C7H9+
94.0415	2	C6H6O+
94.0652	10	C6H8N+
95.0492	217	C6H7O+
96.0445	5	C5H6NO+
97.0108	1	C5H5S+
98.0599	1	C5H8NO+
101.0389	1	C8H5+
102.0465	10	C8H6+
103.0543	116	C8H7+
104.0495	16	C7H6N+
104.0621	12	C8H8+
105.0449	159	C6H5N2+
106.0652	303	C7H8N+
109.0108	7	C6H5S+
109.0761	6	C6H9N2+
110.0602	2	C6H8NO+
112.0217	1	C5H6NS+
113.0294	2	C5H7NS+
114.0008	23	C4H4NOS+
114.0373	64	C5H8NS+
115.0543	28	C9H7+
116.0496	18	C8H6N+
116.0622	1	C9H8+
117.0574	255	C8H7N+
118.0413	11	C8H6O+
118.0652	96	C8H8N+
119.0493	1	C8H7O+
119.0732	1	C8H9N+
120.0811	1	C8H10N+
121.0108	214	C7H5S+
122.0187	2	C7H6S+
122.0605	1	C7H8NO+
123.0263	1	C7H7S+
126.0372	1	C6H8NS+
128.0496	25	C9H6N+
128.0623	1	C10H8+
129.0448	17	C8H5N2+
129.0575	6	C9H7N+
130.0653	65	C9H8N+
131.049	1	C9H7O+
134.0185	5	C8H6S+
135.0264	6	C8H7S+
137.042	2	C8H9S+
140.0496	5	C10H6N+
143.0729	1	C10H9N+
145.0763	1	C9H9N2+
146.0601	13	C9H8NO+
147.0264	15	C9H7S+
156.0684	2	C10H8N2+
169.0764	2	C11H9N2+
172.0212	1	C10H6NS+
173.0294	18	C10H7NS+
