Mass spectrum: Lorazepam; LC-ESI-QFT; MS2; CE: 75; R=35000; [M-H]-
Name: Lorazepam
Name: 2H-1,4-Benzodiazepin-2-one, 7-chloro-5-(2-chlorophenyl)-1,3-dihydro-3-hydroxy-
Name: 7-chloranyl-5-(2-chlorophenyl)-3-oxidanyl-1,3-dihydro-1,4-benzodiazepin-2-one
Formula: C15H10Cl2N2O2
Exact mass: 320.01193
SMILES: Clc3ccccc3C/2=N/C(O)C(=O)Nc1c\2cc(Cl)cc1
InChI: InChI=1S/C15H10Cl2N2O2/c16-8-5-6-12-10(7-8)13(19-15(21)14(20)18-12)9-3-1-2-4-11(9)17/h1-7,15,21H,(H,18,20)
Instrument: Q Exactive Orbitrap Thermo Scientific
Instrument type: LC-ESI-QFT
Ms type: MS2
Ion mode: NEGATIVE
Ionization: ESI
Fragmentation mode: HCD
Collision energy: 75 (nominal)
Resolution: 35000
Column name: XBridge C18 3.5um, 2.1x50mm, Waters
Retention time: 9.0 min
Base peak: 319.005
Precursor m/z: 319.0047
Precursor type: [M-H]-
m/z	relative intensity	assigned
65.9985	29	C3NO-
74.0036	17	C5N-
88.0193	6	C6H2N-
102.035	999	C7H4N-
116.0144	146	C7H2NO-
125.0147	5	C8HN2-
143.0245	4	C8H3N2O-
144.0093	15	C8H2NO2-
145.0408	6	C8H5N2O-
146.0247	9	C8H4NO2-
151.0068	130	C7H4ClN2-
151.9909	205	C7H3ClNO-
160.9913	8	C8H2ClN2-
164.0508	14	C12H6N-
173.0358	4	C9H5N2O2-
179.0018	198	C8H4ClN2O-
179.9857	16	C8H3ClNO2-
191.0621	33	C13H7N2-
192.0456	18	C13H6NO-
200.0271	17	C12H7ClN-
218.0487	9	C14H6N2O-
219.0556	31	C14H7N2O-
227.0383	22	C13H8ClN2-
228.0221	50	C13H7ClNO-
253.0176	53	C14H6ClN2O-
