Mass spectrum: Chloridazon; LC-ESI-ITFT; MS2; CE: 75%; R=7500; [M+H]+
Name: Chloridazon
Name: 5-amino-4-chloro-2-phenyl-3-pyridazinone
Formula: C10H8ClN3O
Exact mass: 221.0350
SMILES: ClC(=C(N)C=N1)C(=O)N1-c(ccc2)cc2
InChI: InChI=1S/C10H8ClN3O/c11-9-8(12)6-13-14(10(9)15)7-4-2-1-3-5-7/h1-6H,12H2
Instrument: LTQ Orbitrap XL Thermo Scientific
Instrument type: LC-ESI-ITFT
Ms type: MS2
Ion mode: POSITIVE
Ionization: ESI
Fragmentation mode: HCD
Collision energy: 75 % (nominal)
Resolution: 7500
Column name: XBridge C18 3.5um, 2.1x50mm, Waters
Retention time: 5.2 min
Base peak: 222.0432
Precursor m/z: 222.0429
Precursor type: [M+H]+
m/z	relative intensity	assigned
53.0386	26	C4H5+
55.0291	49	C2H3N2+
63.9949	27	CH3ClN+
65.0386	256	C5H5+
66.0214	10	C3H2N2+
67.0293	9	C3H3N2+
75.9948	21	C2H3ClN+
77.0387	460	C6H5+
83.024	22	C3H3N2O+
87.9949	101	C3H3ClN+
92.0496	999	C6H6N+
93.0574	78	C6H7N+
94.0653	242	C6H8N+
95.0492	60	C6H7O+
100.9902	122	C3H2ClN2+
101.9743	34	C3HClNO+
104.0496	837	C7H6N+
105.0448	140	C6H5N2+
116.9976	18	C4H4ClNO+
119.0012	10	C3H4ClN2O+
119.0603	35	C7H7N2+
125.0151	6	C7H6Cl+
128.9851	302	C4H2ClN2O+
130.0652	62	C9H8N+
131.0605	43	C8H7N2+
132.0445	38	C8H6NO+
132.0684	8	C8H8N2+
140.0268	14	C7H7ClN+
142.0528	14	C9H6N2+
146.0117	292	C4H5ClN3O+
149.0156	28	C9H6Cl+
150.0108	72	C8H5ClN+
158.0606	16	C10H8NO+
158.0713	9	C9H8N3+
159.0554	33	C9H7N2O+
160.0631	15	C9H8N2O+
177.0219	9	C9H6ClN2+
186.0663	34	C10H8N3O+
193.0291	124	C10H8ClNO+
195.032	13	C9H8ClN2O+
205.0164	23	C10H6ClN2O+
222.0432	742	C10H9ClN3O+
