Mass spectrum: NOA407475; LC-ESI-QFT; MS2; CE: 60; R=35000; [M+H]+
Name: NOA407475
Name: 3-[(2-chloro-1,3-thiazol-5-yl)methyl]-5-methyl-1,3,5-oxadiazinan-4-imine
Name: 3-(2-chloro-thiazol-5-ylmethyl)-5-methyl-[1,3,5]oxadiazinan-4-ylideneamine
Formula: C8H11ClN4OS
Exact mass: 246.03421
SMILES: Clc2ncc(CN1COCN(C)C1=N)s2
InChI: InChI=1S/C8H11ClN4OS/c1-12-4-14-5-13(8(12)10)3-6-2-11-7(9)15-6/h2,10H,3-5H2,1H3
Instrument: Q Exactive Plus Orbitrap Thermo Scientific
Instrument type: LC-ESI-QFT
Ms type: MS2
Ion mode: POSITIVE
Ionization: ESI
Fragmentation mode: HCD
Collision energy: 60 (nominal)
Resolution: 35000
Column name: XBridge C18 3.5um, 2.1x50mm, Waters
Retention time: 2.3 min
Base peak: 247.0413
Precursor m/z: 247.0415
Precursor type: [M+H]+
m/z	relative intensity	assigned
57.0447	68	C2H5N2+
69.0448	1	C3H5N2+
70.995	29	C3H3S+
71.0604	2	C3H7N2+
78.9401	3	CClS+
87.9948	3	C3H3ClN+
113.0167	2	C4H5N2S+
114.0661	2	C4H8N3O+
119.9671	3	C3H3ClNS+
125.0169	3	C5H5N2S+
131.9669	999	C4H3ClNS+
132.9747	47	C4H4ClNS+
133.9826	2	C4H5ClNS+
138.0121	1	C5H4N3S+
146.9777	2	C4H4ClN2S+
149.9776	11	C4H5ClNOS+
160.9935	202	C5H6ClN2S+
173.9888	62	C5H5ClN3S+
217.0308	1	C7H10ClN4S+
