Mass spectrum: Nigericin; LC-ESI-QFT; MS2; CE: 120; R=35000; [M-H]-
Name: Nigericin
Name: 2-{6-[(2-{5`-[6-hydroxy-6-(hydroxymethyl)-3,5-dimethyltetrahydro-2h-pyran-2-yl]-2,3`-dimethyloctahydro-2,2`-bifuran-5-yl}-9-methoxy-2,4,10-trimethyl-1,6-dioxaspiro[4.5]dec-7-yl)methyl]-3-methyltetrahydro-2h-pyran-2-yl}propanoic acid
Name: 2-[6-[[2-[5-[5-[6-hydroxy-6-(hydroxymethyl)-3,5-dimethyloxan-2-yl]-3-methyloxolan-2-yl]-5-methyloxolan-2-yl]-7-methoxy-2,4,6-trimethyl-1,10-dioxaspiro[4.5]decan-9-yl]methyl]-3-methyloxan-2-yl]propanoic acid
Formula: C40H68O11
Exact mass: 724.47616
SMILES: CC1CCC(OC1C(C)C(=O)O)CC2CC(C(C3(O2)C(CC(O3)(C)C4CCC(O4)(C)C5C(CC(O5)C6C(CC(C(O6)(CO)O)C)C)C)C)C)OC
InChI: InChI=1S/C40H68O11/c1-21-11-12-28(46-33(21)26(6)36(42)43)17-29-18-30(45-10)27(7)40(48-29)25(5)19-38(9,51-40)32-13-14-37(8,49-32)35-23(3)16-31(47-35)34-22(2)15-24(4)39(44,20-41)50-34/h21-35,41,44H,11-20H2,1-10H3,(H,42,43)
Instrument: Q Exactive Plus Orbitrap Thermo Scientific
Instrument type: LC-ESI-QFT
Ms type: MS2
Ion mode: NEGATIVE
Ionization: ESI
Fragmentation mode: HCD
Collision energy: 120 (nominal)
Resolution: 35000
Column name: XBridge C18 3.5um, 2.1x50mm, Waters
Retention time: 19.7 min
Base peak: 115.9207
Precursor m/z: 723.4689
Precursor type: [M-H]-
m/z	relative intensity	assigned
55.0189	526	C3H3O-
57.0346	999	C3H5O-
58.0061	169	C2H2O2-
59.0138	31	C2H3O2-
65.0396	31	C5H5-
67.0189	21	C4H3O-
69.0347	83	C4H5O-
71.014	33	C3H3O2-
71.0503	117	C4H7O-
79.0554	32	C6H7-
81.0345	21	C5H5O-
83.0502	23	C5H7O-
85.0294	109	C4H5O2-
87.0451	42	C4H7O2-
93.0345	21	C6H5O-
95.0502	118	C6H7O-
97.0658	30	C6H9O-
107.0503	93	C7H7O-
109.0659	99	C7H9O-
121.0659	135	C8H9O-
123.0454	23	C7H7O2-
137.061	26	C8H9O2-
