Mass spectrum: Amidosulfuron; LC-ESI-QFT; MS2; CE: 90; R=35000; [M+H]+
Name: Amidosulfuron
Name: 1-(4,6-dimethoxy-2-pyrimidinyl)-3-[methyl(methylsulfonyl)sulfamoyl]urea
Formula: C9H15N5O7S2
Exact mass: 369.04129
SMILES: O=C(Nc1nc(OC)cc(OC)n1)NS(=O)(=O)N(C)S(=O)(=O)C
InChI: InChI=1S/C9H15N5O7S2/c1-14(22(4,16)17)23(18,19)13-9(15)12-8-10-6(20-2)5-7(11-8)21-3/h5H,1-4H3,(H2,10,11,12,13,15)
Instrument: Q Exactive Orbitrap Thermo Scientific
Instrument type: LC-ESI-QFT
Ms type: MS2
Ion mode: POSITIVE
Ionization: ESI
Fragmentation mode: HCD
Collision energy: 90 (nominal)
Resolution: 35000
Column name: XBridge C18 3.5um, 2.1x50mm, Waters
Retention time: 8.4 min
Base peak: 370.0493
Precursor m/z: 370.0486
Precursor type: [M+H]+
m/z	relative intensity	assigned
57.045	11	C2H5N2+
58.029	13	C2H4NO+
67.0293	17	C3H3N2+
68.0132	23	C3H2NO+
69.0085	999	C2HN2O+
69.9923	1	C2NO2+
70.0289	11	C3H4NO+
71.0241	11	C2H3N2O+
71.0605	28	C3H7N2+
72.0445	8	C3H6NO+
81.0084	4	C3HN2O+
81.0322	12	C3H3N3+
81.0448	14	C4H5N2+
82.0289	24	C4H4NO+
82.0401	27	C3H4N3+
83.0241	208	C3H3N2O+
84.0319	38	C3H4N2O+
85.0398	1	C3H5N2O+
86.0238	6	C3H4NO2+
93.0084	44	C4HN2O+
94.0401	8	C4H4N3+
95.0241	3	C4H3N2O+
96.0193	3	C3H2N3O+
96.0557	1	C4H6N3+
97.0398	34	C4H5N2O+
98.0238	8	C4H4NO2+
99.0556	1	C4H7N2O+
100.0394	21	C4H6NO2+
107.0116	1	C4HN3O+
107.0242	2	C5H3N2O+
109.0273	13	C4H3N3O+
109.0398	12	C5H5N2O+
110.0238	1	C5H4NO2+
110.0352	1	C4H4N3O+
111.0429	59	C4H5N3O+
118.9911	5	C2H3N2O2S+
124.0143	14	C4H2N3O2+
124.0507	8	C5H6N3O+
125.0347	1	C5H5N2O2+
125.0584	1	C5H7N3O+
126.0666	5	C5H8N3O+
127.0503	33	C5H7N2O2+
137.0348	5	C6H5N2O2+
138.0299	6	C5H4N3O2+
139.0378	148	C5H5N3O2+
139.0502	76	C6H7N2O2+
140.0454	4	C5H6N3O2+
154.0613	32	C6H8N3O2+
157.0609	43	C6H9N2O3+
165.0408	1	C6H5N4O2+
181.0724	4	CH15N3O5S+
182.0565	11	
