Mass spectrum: Fosinopril; LC-ESI-QFT; MS2; CE: 90; R=35000; [M+H]+
Name: Fosinopril
Name: (2S,4S)-4-cyclohexyl-1-[2-[(2-methyl-1-propanoyloxypropoxy)-(4-phenylbutyl)phosphoryl]acetyl]pyrrolidine-2-carboxylic acid
Formula: C30H46NO7P
Exact mass: 563.30119
SMILES: O=C(CP(=O)(CCCCc1ccccc1)OC(OC(=O)CC)C(C)C)N2C[C@@H](C[C@H]2C(O)=O)C3CCCCC3
InChI: InChI=1S/C30H46NO7P/c1-4-28(33)37-30(22(2)3)38-39(36,18-12-11-15-23-13-7-5-8-14-23)21-27(32)31-20-25(19-26(31)29(34)35)24-16-9-6-10-17-24/h5,7-8,13-14,22,24-26,30H,4,6,9-12,15-21H2,1-3H3,(H,34,35)/t25-,26+,30?,39?/m1/s1
Instrument: Q Exactive Orbitrap Thermo Scientific
Instrument type: LC-ESI-QFT
Ms type: MS2
Ion mode: POSITIVE
Ionization: ESI
Fragmentation mode: HCD
Collision energy: 90 (nominal)
Resolution: 35000
Column name: XBridge C18 3.5um, 2.1x50mm, Waters
Retention time: 16.6 min
Base peak: 564.3085
Precursor m/z: 564.3085
Precursor type: [M+H]+
m/z	relative intensity	assigned
53.0387	4	C4H5+
55.0543	17	C4H7+
56.0495	29	C3H6N+
64.9787	10	H2O2P+
65.0386	15	C5H5+
67.0542	290	C5H7+
68.0494	16	C4H6N+
69.0698	10	C5H9+
70.0651	204	C4H8N+
74.0237	1	C2H4NO2+
79.0542	56	C6H7+
80.0495	3	C5H6N+
81.0699	197	C6H9+
83.0855	99	C6H11+
84.0808	6	C5H10N+
88.9786	2	C2H2O2P+
91.0542	212	C7H7+
93.0699	58	C7H9+
94.065	7	C6H8N+
95.0491	9	C6H7O+
95.0855	11	C7H11+
101.015	1	C4H6OP+
105.0443	1	C6H5N2+
105.0698	4	C8H9+
107.0855	24	C8H11+
109.1012	201	C8H13+
110.0964	4	C7H12N+
115.0542	27	C9H7+
116.0621	6	C9H8+
117.0699	61	C9H9+
119.0257	1	C4H8O2P+
121.1012	8	C9H13+
122.9841	9	C2H4O4P+
123.1168	16	C9H15+
125.0151	1	C6H6OP+
128.0621	28	C10H8+
129.0699	36	C10H9+
129.0743	1	CH11N3O4+
130.0778	2	C10H10+
131.0856	29	C10H11+
133.0202	57	C8H6P+
135.1167	10	C10H15+
137.015	8	C7H6OP+
141.07	7	C11H9+
142.0776	9	C11H10+
143.0859	2	C7H14NP+
146.0281	3	C9H7P+
151.0309	4	C8H8OP+
152.1434	999	C10H18N+
159.0207	1	C6H8O3P+
161.0515	69	C10H10P+
179.0619	26	C10H12OP+
185.0515	1	C12H10P+
194.1542	3	C12H20NO+
197.0726	18	C10H14O2P+
