Mass spectrum: Imidacloprid; LC-ESI-ITFT; MS2; CE: 15%; R=7500; [M-H]-
Name: Imidacloprid
Name: N-[1-[(6-chloranylpyridin-3-yl)methyl]-4,5-dihydroimidazol-2-yl]nitramide
Formula: C9H10ClN5O2
Exact mass: 255.0523
SMILES: Cl-c(ncc1CN(CC2)C(N2)=NN(=O)=O)cc1
InChI: InChI=1S/C9H10ClN5O2/c10-8-2-1-7(5-12-8)6-14-4-3-11-9(14)13-15(16)17/h1-2,5H,3-4,6H2,(H,11,13)
Instrument: LTQ Orbitrap XL Thermo Scientific
Instrument type: LC-ESI-ITFT
Ms type: MS2
Ion mode: NEGATIVE
Ionization: ESI
Fragmentation mode: HCD
Collision energy: 15 % (nominal)
Resolution: 7500
Column name: XBridge C18 3.5um, 2.1x50mm, Waters
Retention time: 4.6 min
Base peak: 254.0442
Precursor m/z: 254.045
Precursor type: [M-H]-
m/z	relative intensity	assigned
254.0449	999	C9H9ClN5O2-
