Mass spectrum: Oxacillin; LC-ESI-QFT; MS2; CE: 60; R=35000; [M+H]+
Name: Oxacillin
Name: (2S,5R,6R)-3,3-dimethyl-6-[(5-methyl-3-phenyl-1,2-oxazole-4-carbonyl)amino]-7-oxo-4-thia-1-azabicyclo[3.2.0]heptane-2-carboxylic acid
Formula: C19H19N3O5S
Exact mass: 401.10454
SMILES: CC1=C(C(=O)N[C@H]2[C@H]3SC(C)(C)[C@@H](N3C2=O)C(O)=O)C(=NO1)C1=CC=CC=C1
InChI: InChI=1S/C19H19N3O5S/c1-9-11(12(21-27-9)10-7-5-4-6-8-10)15(23)20-13-16(24)22-14(18(25)26)19(2,3)28-17(13)22/h4-8,13-14,17H,1-3H3,(H,20,23)(H,25,26)/t13-,14+,17-/m1/s1
Instrument: Q Exactive Plus Orbitrap Thermo Scientific
Instrument type: LC-ESI-QFT
Ms type: MS2
Ion mode: POSITIVE
Ionization: ESI
Fragmentation mode: HCD
Collision energy: 60 (nominal)
Resolution: 35000
Column name: XBridge C18 3.5um, 2.1x50mm, Waters
Retention time: 8.5 min
Base peak: 402.1116
Precursor m/z: 402.1118
Precursor type: [M+H]+
m/z	relative intensity	assigned
50.015	1	C4H2+
51.0229	2	C4H3+
53.0386	26	C4H5+
54.0338	2	C3H4N+
55.0542	1	C4H7+
56.0494	1	C3H6N+
58.995	7	C2H3S+
69.0447	3	C3H5N2+
70.0651	30	C4H8N+
71.0491	1	C4H7O+
72.0444	4	C3H6NO+
75.0263	2	C3H7S+
77.0384	32	C6H5+
81.0336	2	C5H5O+
81.0448	5	C4H5N2+
85.0106	4	C4H5S+
87.0263	142	C4H7S+
89.0385	1	C7H5+
91.0542	2	C7H7+
95.0492	59	C6H7O+
96.0444	1	C5H6NO+
98.0601	11	C5H8NO+
99.044	4	C5H7O2+
100.0392	3	C4H6NO2+
103.0542	48	C8H7+
104.0494	4	C7H6N+
105.0336	1	C7H5O+
105.0447	31	C6H5N2+
109.0396	2	C5H5N2O+
113.0294	1	C5H7NS+
114.0372	999	C5H8NS+
115.0212	1	C5H7OS+
116.0495	60	C8H6N+
117.0573	1	C8H7N+
117.0699	1	C9H9+
118.0651	30	C8H8N+
126.0373	1	C6H8NS+
126.0551	2	C6H8NO2+
128.0494	99	C9H6N+
130.0652	308	C9H8N+
142.0322	35	C6H8NOS+
142.0652	38	C10H8N+
143.0599	1	C9H7N2+
144.0444	568	C9H6NO+
145.0762	2	C9H9N2+
146.06	55	C9H8NO+
155.0606	5	C10H7N2+
156.0683	2	C10H8N2+
157.0761	16	C10H9N2+
160.0427	174	C6H10NO2S+
170.06	22	C11H8NO+
172.0757	59	C11H10NO+
184.087	5	C11H10N3+
186.055	1	C11H8NO2+
188.0706	48	C11H10NO2+
197.0709	7	C12H9N2O+
199.0863	7	C12H11N2O+
201.0659	6	C11H9N2O2+
243.0765	1	C13H11N2O3+
