Mass spectrum: Ethofumesate; LC-ESI-ITFT; MS2; CE: 45%; R=15000; [M+H]+
Name: Ethofumesate
Name: (2-ethoxy-3,3-dimethyl-2H-1-benzofuran-5-yl) methanesulfonate
Formula: C13H18O5S
Exact mass: 286.0869
SMILES: S(=O)(=O)(C)O-c(ccc1O2)cc1C(C2OCC)(C)C
InChI: InChI=1S/C13H18O5S/c1-5-16-12-13(2,3)10-8-9(18-19(4,14)15)6-7-11(10)17-12/h6-8,12H,5H2,1-4H3
Instrument: LTQ Orbitrap XL Thermo Scientific
Instrument type: LC-ESI-ITFT
Ms type: MS2
Ion mode: POSITIVE
Ionization: ESI
Fragmentation mode: HCD
Collision energy: 45 % (nominal)
Resolution: 15000
Column name: XBridge C18 3.5um, 2.1x50mm, Waters
Retention time: 10.0 min
Base peak: 309.0774
Precursor m/z: 287.0948
Precursor type: [M+H]+
m/z	relative intensity	assigned
71.0491	4	C4H7O+
77.0383	4	C6H5+
81.0005	10	CH5O2S+
91.0542	13	C7H7+
93.0699	25	C7H9+
95.0488	3	C6H7O+
103.0543	6	C8H7+
105.0699	20	C8H9+
107.0491	5	C7H7O+
109.0283	5	C6H5O2+
109.0649	7	C7H9O+
115.0543	9	C9H7+
117.0698	5	C9H9+
121.0649	999	C8H9O+
123.0439	3	C7H7O2+
133.0648	108	C9H9O+
134.0726	16	C9H10O+
135.0805	17	C9H11O+
137.0597	162	C8H9O2+
138.0682	3	C8H10O2+
143.0491	2	C10H7O+
145.0649	31	C10H9O+
147.0443	8	C9H7O2+
149.0961	41	C10H13O+
161.0598	618	C10H9O2+
162.0676	168	C10H10O2+
163.0754	72	C10H11O2+
165.0906	2	C10H13O2+
173.071	85	C10H9N2O+
179.0703	117	C10H11O3+
180.0782	9	C10H12O3+
185.0266	3	C8H9O3S+
189.0911	3	C12H13O2+
213.058	17	C10H13O3S+
241.0528	35	C11H13O4S+
259.0639	16	C11H15O5S+
