Mass spectrum: Triamterene; LC-ESI-QFT; MS2; CE: 60; R=35000; [M+H]+
Name: Triamterene
Name: 6-phenylpteridine-2,4,7-triamine
Formula: C12H11N7
Exact mass: 253.10759
SMILES: C1=CC=C(C=C1)C2=NC3=C(N=C2N)N=C(N=C3N)N
InChI: InChI=1S/C12H11N7/c13-9-7(6-4-2-1-3-5-6)16-8-10(14)18-12(15)19-11(8)17-9/h1-5H,(H6,13,14,15,17,18,19)
Instrument: Q Exactive Plus Orbitrap Thermo Scientific
Instrument type: LC-ESI-QFT
Ms type: MS2
Ion mode: POSITIVE
Ionization: ESI
Fragmentation mode: HCD
Collision energy: 60 (nominal)
Resolution: 35000
Column name: XBridge C18 3.5um, 2.1x50mm, Waters
Retention time: 4.5 min
Base peak: 254.1144
Precursor m/z: 254.1149
Precursor type: [M+H]+
m/z	relative intensity	assigned
82.04	1	C3H4N3+
92.0243	7	C4H2N3+
104.0495	89	C7H6N+
107.0352	2	C4H3N4+
116.0494	4	C8H6N+
131.0605	1	C8H7N2+
134.0462	5	C5H4N5+
141.0444	1	C9H5N2+
142.0526	1	C9H6N2+
143.0605	31	C9H7N2+
158.0714	1	C9H8N3+
161.0709	2	C9H9N2O+
168.0557	41	C10H6N3+
170.0715	1	C10H8N3+
176.068	1	C6H6N7+
183.0667	9	C10H7N4+
185.0823	13	C10H9N4+
186.0663	1	C10H8N3O+
193.0511	1	C11H5N4+
195.0667	119	C11H7N4+
210.0776	59	C11H8N5+
212.0933	87	C11H10N5+
213.0772	16	C11H9N4O+
220.062	12	C12H6N5+
227.1041	39	C11H11N6+
237.0884	999	C12H9N6+
238.0725	2	C12H8N5O+
239.0916	1	C11H9N7+
252.0991	2	C12H10N7+
254.115	797	C12H12N7+
