Mass spectrum: Metominostrobin; LC-ESI-QFT; MS2; CE: 180%; R=17500; [M+H]+
Name: Metominostrobin
Name: N-methyl-2-(2-phenoxyphenyl)-2-methoxyiminoacetamide
Name: 2-methoxyimino-N-methyl-2-(2-phenoxyphenyl)acetamide
Formula: C16H16N2O3
Exact mass: 284.1161
SMILES: CNC(=O)C(=NOC)C1=CC=CC=C1OC2=CC=CC=C2
InChI: InChI=1S/C16H16N2O3/c1-17-16(19)15(18-20-2)13-10-6-7-11-14(13)21-12-8-4-3-5-9-12/h3-11H,1-2H3,(H,17,19)
Instrument: Exploris 240 Orbitrap Thermo Scientific
Instrument type: LC-ESI-QFT
Ms type: MS2
Ion mode: POSITIVE
Ionization: ESI
Fragmentation mode: HCD
Collision energy: 180 % (nominal)
Resolution: 17500
Column name: XBridge C18 3.5um, 2.1x50mm, Waters
Retention time: 7.515 min
Base peak: 285.1232
Precursor m/z: 285.1234
Precursor type: [M+H]+
m/z	relative intensity	assigned
50.0151	228	C4H2+
51.0229	683	C4H3+
53.0386	30	C4H5+
58.0289	63	C2H4NO+
63.0229	999	C5H3+
64.0183	55	C4H2N+
64.0307	113	C5H4+
65.0386	209	C5H5+
75.023	50	C6H3+
76.0307	114	C6H4+
77.0387	162	C6H5+
87.023	264	C7H3+
88.0185	79	C6H2N+
88.0305	24	C7H4+
89.0386	578	C7H5+
92.0261	32	C6H4O+
95.0493	34	C6H7O+
105.0448	45	C6H5N2+
113.0386	647	C9H5+
114.034	173	C8H4N+
115.0543	152	C9H7+
137.0387	87	C11H5+
138.0466	86	C11H6+
139.0542	298	C11H7+
140.0495	283	C10H6N+
164.0496	146	C12H6N+
