Mass spectrum: Anabaenopeptin A; LC-ESI-QFT; MS2; CE: 30%; R=17500; [M+H]+
Name: Anabaenopeptin A
Name: 2-[[3-benzyl-9-[2-(4-hydroxyphenyl)ethyl]-6,7-dimethyl-2,5,8,11,14-pentaoxo-12-propan-2-yl-1,4,7,10,13-pentazacyclononadec-15-yl]carbamoylamino]-3-(4-hydroxyphenyl)propanoic acid
Formula: C44H57N7O10
Exact mass: 843.4167
SMILES: CC1C(=O)NC(C(=O)NCCCCC(C(=O)NC(C(=O)NC(C(=O)N1C)CCC2=CC=C(C=C2)O)C(C)C)NC(=O)NC(CC3=CC=C(C=C3)O)C(=O)O)CC4=CC=CC=C4
InChI: InChI=1S/C44H57N7O10/c1-26(2)37-41(57)46-34(22-17-28-13-18-31(52)19-14-28)42(58)51(4)27(3)38(54)47-35(24-29-10-6-5-7-11-29)39(55)45-23-9-8-12-33(40(56)50-37)48-44(61)49-36(43(59)60)25-30-15-20-32(53)21-16-30/h5-7,10-11,13-16,18-21,26-27,33-37,52-53H,8-9,12,17,22-25H2,1-4H3,(H,45,55)(H,46,57)(H,47,54)(H,50,56)(H,59,60)(H2,48,49,61)
Instrument: Q Exactive Plus Orbitrap Thermo Scientific
Instrument type: LC-ESI-QFT
Ms type: MS2
Ion mode: POSITIVE
Ionization: ESI
Fragmentation mode: HCD
Collision energy: 30 % (nominal)
Resolution: 17500
Column name: XBridge C18 3.5um, 2.1x50mm, Waters
Retention time: 7.249 min
Base peak: 164.9844
Precursor m/z: 844.424
Precursor type: [M+H]+
m/z	relative intensity	assigned
72.081	4	C4H10N+
84.0808	999	C5H10N+
86.0599	101	C4H8NO+
107.049	9	C7H7O+
114.0549	324	C5H8NO2+
120.0806	25	C8H10N+
129.102	37	C6H13N2O+
136.0753	10	C8H10NO+
147.1126	6	C6H15N2O2+
150.0912	20	C9H12NO+
169.1334	11	C9H17N2O+
173.0922	9	C7H13N2O3+
176.1067	5	C11H14NO+
182.0811	11	C9H12NO3+
183.1494	7	C10H19N2O+
185.1285	7	C9H17N2O2+
190.1226	18	C12H16NO+
200.1759	5	C10H22N3O+
204.1386	8	C13H18NO+
205.1339	73	C12H17N2O+
210.1614	3	C13H22O2+
219.1493	3	C13H19N2O+
226.1557	27	C13H22O3+
231.1498	115	H21N7O7+
233.1292	123	C13H17N2O2+
235.1451	12	CH23N4O9+
236.1402	10	C14H20O3+
243.114	3	H17N7O8+
246.1134	3	H18N6O9+
247.1092	2	CH19N4O10+
249.1245	42	CH21N4O10+
249.161	43	C2H25N4O9+
252.1392	8	C3H20N6O7+
254.1504	15	C12H20N3O3+
258.1444	3	C11H20N3O4+
259.1452	3	CH21N7O8+
261.1606	10	CH23N7O8+
263.1403	100	C2H23N4O10+
271.1777	6	C14H25NO4+
272.163	13	C15H20N4O+
274.1566	8	C17H22O3+
275.104	18	C15H11N6+
277.1563	43	C3H25N4O10+
283.1471	10	C7H25NO10+
289.1937	9	C7H31NO10+
292.1325	6	C17H16N4O+
294.1828	9	C17H26O4+
297.1945	15	C17H23N5+
303.1722	4	C5H27N4O10+
308.1627	6	C18H20N4O+
311.1412	11	C6H23N4O10+
311.2089	9	C17H29NO4+
316.2051	19	C8H32N2O10+
317.1887	14	C21H23N3+
318.1488	6	C21H20NO2+
320.1633	62	C19H20N4O+
336.1578	16	C19H20N4O2+
339.2062	33	C21H27N2O2+
345.1844	7	C24H25O2+
348.1947	7	C21H24N4O+
349.1935	5	C10H29N4O9+
350.174	3	C20H22N4O2+
359.2118	15	C24H27N2O+
361.2266	4	C22H27N5+
362.2114	112	C24H28NO2+
365.1895	12	C27H25O+
367.205	13	C25H25N3+
373.2278	49	C11H31N7O7+
375.2448	6	C13H35N4O8+
377.2582	2	C25H33N2O+
379.2397	27	C12H35N4O9+
381.1832	3	C25H23N3O+
389.2229	7	C11H31N7O8+
395.2017	10	C14H29N5O8+
396.1971	4	C15H30N3O9+
401.2237	24	C14H33N4O9+
403.2401	84	C14H35N4O9+
405.2184	204	C11H31N7O9+
409.231	4	C18H35NO9+
410.2134	9	C16H32N3O9+
412.2296	8	C16H34N3O9+
413.2236	3	C15H33N4O9+
417.2206	6	C31H29O+
418.2526	5	C31H32N+
419.2361	19	C29H29N3+
421.215	4	C28H27N3O+
426.2104	4	C19H30N4O7+
432.3047	23	C18H44N2O9+
435.2306	23	C29H29N3O+
437.2258	14	C19H35NO10+
438.209	4	C32H26N2+
442.2881	12	C19H42N2O9+
443.2732	7	C34H35+
444.2678	24	C18H40N2O10+
449.2453	16	C28H29N6+
455.2367	32	C34H31O+
458.2841	58	C34H36N+
460.3004	19	C20H40N6O6+
465.2176	6	C16H31N7O9+
480.2485	9	C25H32N6O4+
483.2229	32	C24H35O10+
486.271	37	C25H36N5O5+
488.287	29	C25H38N5O5+
497.2754	7	C27H37N4O5+
504.28	23	C24H42NO10+
516.2817	6	C26H38N5O6+
520.2797	5	C28H36N6O4+
522.2694	10	C27H40NO9+
529.3125	17	C26H45N2O9+
533.2766	5	C32H39NO6+
534.3048	12	C27H42N4O7+
536.2869	22	C29H38N5O5+
537.2707	4	C29H37N4O6+
540.2815	90	C28H38N5O6+
550.3027	124	C30H40N5O5+
554.2939	5	C24H40N7O8+
564.2809	8	C44H36+
568.2761	61	C43H36O+
578.2985	8	C33H42N2O7+
582.2936	21	C32H42N2O8+
596.3061	19	C43H38N3+
609.376	6	C33H49N6O5+
619.3613	7	C36H49N3O6+
621.3403	13	C35H47N3O7+
635.3549	91	C34H47N6O6+
637.3699	30	C33H53N2O10+
639.3494	5	C33H47N6O7+
645.3405	14	C37H47N3O7+
649.3368	6	C37H43N7O4+
667.3446	34	C34H47N6O8+
681.3608	6	C35H49N6O8+
