Mass spectrum: Paichongding; LC-ESI-QFT; MS2; CE: 120%; R=17500; [M+H]+
Name: Paichongding
Name: 1-[(6-chloropyridin-3-yl)methyl]-7-methyl-8-nitro-5-propoxy-3,5,6,7-tetrahydro-2H-imidazo[1,2-a]pyridine
Formula: C17H23ClN4O3
Exact mass: 366.1459
SMILES: CCCOC1CC(C(=C2N1CCN2CC3=CN=C(C=C3)Cl)[N+](=O)[O-])C
InChI: InChI=1S/C17H23ClN4O3/c1-3-8-25-15-9-12(2)16(22(23)24)17-20(6-7-21(15)17)11-13-4-5-14(18)19-10-13/h4-5,10,12,15H,3,6-9,11H2,1-2H3
Instrument: Exploris 240 Orbitrap Thermo Scientific
Instrument type: LC-ESI-QFT
Ms type: MS2
Ion mode: POSITIVE
Ionization: ESI
Fragmentation mode: HCD
Collision energy: 120 % (nominal)
Resolution: 17500
Column name: XBridge C18 3.5um, 2.1x50mm, Waters
Retention time: 5.460 min
Base peak: 367.1531
Precursor m/z: 367.1531
Precursor type: [M+H]+
m/z	relative intensity	assigned
53.0386	13	C4H5+
54.0338	15	C3H4N+
55.0416	11	C3H5N+
56.0495	161	C3H6N+
63.023	57	C5H3+
65.0385	17	C5H5+
67.0416	16	C4H5N+
68.0495	45	C4H6N+
70.0651	18	C4H8N+
71.049	58	C4H7O+
72.984	84	C3H2Cl+
78.0338	20	C5H4N+
80.0494	45	C5H6N+
81.0448	18	C4H5N2+
82.0526	36	C4H6N2+
82.0648	16	C5H8N+
84.0683	34	C4H8N2+
90.0338	450	C6H4N+
91.0417	81	C6H5N+
94.0651	27	C6H8N+
95.0605	23	C5H7N2+
96.0443	8	C5H6NO+
98.9995	332	C5H4Cl+
107.0605	29	C6H7N2+
108.0682	40	C6H8N2+
109.076	130	C6H9N2+
117.0573	22	C8H7N+
119.0604	123	C7H7N2+
120.0683	15	C7H8N2+
121.0759	188	C7H9N2+
126.0105	999	C6H5ClN+
133.0759	22	C8H9N2+
135.0919	12	C8H11N2+
137.1072	113	C8H13N2+
144.0216	23	C6H7ClNO+
206.0468	10	C13H6N2O+
208.0631	15	C13H8N2O+
