Mass spectrum: Metolachlor OXA; LC-ESI-ITFT; MS2; CE: 60%; R=7500; [M+H]+
Name: Metolachlor OXA
Name: 2-(2-ethyl-N-(2-methoxy-1-methyl-ethyl)-6-methyl-anilino)-2-keto-acetic acid
Formula: C15H21NO4
Exact mass: 279.1471
SMILES: CC1=CC=CC(CC)=C1N(C(C)COC)C(C(O)=O)=O
InChI: InChI=1S/C15H21NO4/c1-5-12-8-6-7-10(2)13(12)16(11(3)9-20-4)14(17)15(18)19/h6-8,11H,5,9H2,1-4H3,(H,18,19)
Instrument: LTQ Orbitrap XL Thermo Scientific
Instrument type: LC-ESI-ITFT
Ms type: MS2
Ion mode: POSITIVE
Ionization: ESI
Fragmentation mode: HCD
Collision energy: 60 % (nominal)
Resolution: 7500
Column name: XBridge C18 3.5um, 2.1x50mm, Waters
Retention time: 9.3 min
Base peak: 280.1539
Precursor m/z: 280.1543
Precursor type: [M+H]+
m/z	relative intensity	assigned
73.0648	218	C4H9O+
91.0543	102	C7H7+
93.0698	63	C7H9+
103.0539	9	C8H7+
105.0699	25	C8H9+
106.0652	21	C7H8N+
108.0808	18	C7H10N+
117.0575	13	C8H7N+
117.0698	85	C9H9+
118.0651	102	C8H8N+
119.0729	48	C8H9N+
119.0855	195	C9H11+
120.0808	53	C8H10N+
129.0698	54	C10H9+
130.0652	33	C9H8N+
130.0774	7	C10H10+
131.073	456	C9H9N+
132.0807	194	C9H10N+
133.0886	158	C9H11N+
134.0603	66	C8H8NO+
134.0964	436	C9H12N+
135.0805	12	C9H11O+
135.1047	8	C9H13N+
136.0755	10	C8H10NO+
136.1118	6	C9H14N+
142.0651	13	C10H8N+
144.0808	336	C10H10N+
145.0887	107	C10H11N+
146.0964	999	C10H12N+
147.1041	45	C10H13N+
148.112	755	C10H14N+
150.0265	6	C3H6N2O5+
158.0964	19	C11H12N+
159.1043	52	C11H13N+
160.0755	63	C10H10NO+
160.1121	172	C11H14N+
161.1197	19	C11H15N+
162.0913	181	C10H12NO+
171.1042	7	C12H13N+
174.0911	31	C11H12NO+
174.1277	87	C12H16N+
176.1433	369	C12H18N+
202.1225	64	C13H16NO+
204.1379	24	C13H18NO+
220.1333	91	C13H18NO2+
248.1279	473	C14H18NO3+
