Mass spectrum: Doxycycline; LC-ESI-QFT; MS2; CE: 45; R=35000; [M+H]+
Name: Doxycycline
Name: 8-carbamoyl-10-(dimethylazaniumyl)-4,6a,7,11-tetrahydroxy-12-methyl-6,9-dioxo-10a,11,11a,12-tetrahydro-10H-tetracen-5-olate
Formula: C22H24N2O8
Exact mass: 444.15327
SMILES: CC1C2C(C3C(C(=O)C(=C(C3(C(=O)C2=C(C4=C1C=CC=C4O)O)O)O)C(=O)N)N(C)C)O
InChI: InChI=1S/C22H24N2O8/c1-7-8-5-4-6-9(25)11(8)16(26)12-10(7)17(27)14-15(24(2)3)18(28)13(21(23)31)20(30)22(14,32)19(12)29/h4-7,10,14-15,17,25-27,30,32H,1-3H3,(H2,23,31)
Instrument: Q Exactive Plus Orbitrap Thermo Scientific
Instrument type: LC-ESI-QFT
Ms type: MS2
Ion mode: POSITIVE
Ionization: ESI
Fragmentation mode: HCD
Collision energy: 45 (nominal)
Resolution: 35000
Column name: XBridge C18 3.5um, 2.1x50mm, Waters
Retention time: 6.4 min
Base peak: 445.1595
Precursor m/z: 445.1605
Precursor type: [M+H]+
m/z	relative intensity	assigned
55.0178	26	C3H3O+
56.0495	15	C3H6N+
58.0651	222	C3H8N+
68.0494	1	C4H6N+
68.997	4	C3HO2+
70.0651	16	C4H8N+
72.0444	48	C3H6NO+
72.0807	6	C4H10N+
74.0599	5	C3H8NO+
81.0335	2	C5H5O+
82.0651	5	C5H8N+
83.0127	5	C4H3O2+
84.0444	100	C4H6NO+
84.0807	5	C5H10N+
85.0283	2	C4H5O2+
85.0521	1	C4H7NO+
86.06	15	C4H8NO+
94.065	1	C6H8N+
95.0128	14	C5H3O2+
97.0285	1	C5H5O2+
98.0601	567	C5H8NO+
99.0077	5	C4H3O3+
100.0757	61	C5H10NO+
108.0443	5	C6H6NO+
109.0285	5	C6H5O2+
110.0602	6	C6H8NO+
111.0076	7	C5H3O3+
111.044	1	C6H7O2+
112.0756	1	C6H10NO+
114.055	19	C5H8NO2+
115.054	1	C9H7+
121.0285	7	C7H5O2+
121.0648	10	C8H9O+
123.0076	6	C6H3O3+
123.0443	1	C7H7O2+
124.0394	30	C6H6NO2+
124.0758	1	C7H10NO+
125.0233	1	C6H5O3+
126.055	340	C6H8NO2+
127.0026	6	C5H3O4+
128.0707	8	C6H10NO2+
131.0491	4	C9H7O+
135.0074	1	C7H3O3+
136.0757	6	C8H10NO+
137.0233	29	C7H5O3+
139.0266	10	C6H5NO3+
139.0391	7	C7H7O3+
140.0704	2	C7H10NO2+
142.0499	7	C6H8NO3+
144.0655	22	C6H10NO3+
145.065	17	C10H9O+
147.044	8	C9H7O2+
147.0805	19	C10H11O+
149.0234	9	C8H5O3+
149.0445	1	C5H9O5+
149.0602	8	C9H9O2+
152.0343	22	C7H6NO3+
152.0709	9	C8H10NO2+
153.0182	14	C7H5O4+
154.0499	810	C7H8NO3+
155.0341	2	C7H7O4+
157.0369	2	C6H7NO4+
157.065	2	C11H9O+
158.0729	6	C11H10O+
159.0441	7	C10H7O2+
159.0807	9	C11H11O+
160.052	1	C10H8O2+
161.0597	12	C10H9O2+
163.0026	6	C8H3O4+
163.0391	1	C9H7O3+
163.0628	2	C9H9NO2+
164.0706	19	C9H10NO2+
165.0183	58	C8H5O4+
166.0498	1	C8H8NO3+
166.0865	5	C9H12NO2+
167.034	15	C8H7O4+
167.0557	2	C5H11O6+
168.0655	4	C8H10NO3+
170.0448	14	C7H8NO4+
170.081	2	C8H12NO3+
171.0806	4	C12H11O+
172.0603	17	C7H10NO4+
173.0598	40	C11H9O2+
174.0675	29	C11H10O2+
175.0754	147	C11H11O2+
177.0185	1	C9H5O4+
178.05	14	C9H8NO3+
178.9974	2	C8H3O5+
179.0338	2	C9H7O4+
179.0852	1	C14H11+
180.0656	20	C9H10NO3+
181.0132	7	C8H5O5+
181.0365	1	C8H7NO4+
182.0448	19	C8H8NO4+
182.0813	50	C9H12NO3+
183.0288	5	C8H7O5+
183.0805	2	C13H11O+
184.0511	1	C12H8O2+
185.0599	9	C12H9O2+
185.0962	2	C13H13O+
187.0392	10	C11H7O3+
187.0754	87	C12H11O2+
190.0498	4	C10H8NO3+
190.9976	4	C9H3O5+
191.0343	2	C10H7O4+
192.0656	51	C10H10NO3+
193.0133	7	C9H5O5+
194.0448	2	C9H8NO4+
195.0805	29	C14H11O+
196.0606	14	C9H10NO4+
197.0599	5	C13H9O2+
197.096	13	C14H13O+
198.0673	5	C13H10O2+
198.0756	3	C9H12NO4+
199.0754	29	C13H11O2+
201.0547	414	C12H9O3+
203.0337	1	C11H7O4+
203.0703	19	C12H11O3+
204.0662	2	C11H10NO3+
205.0496	6	C11H9O4+
206.0449	1	C10H8NO4+
207.0805	6	C15H11O+
208.0606	21	C10H10NO4+
209.0082	6	C9H5O6+
209.0965	4	C15H13O+
210.0676	5	C14H10O2+
210.0762	63	C10H12NO4+
211.0754	36	C14H11O2+
212.0833	2	C14H12O2+
213.0548	26	C13H9O3+
213.0911	84	C14H13O2+
214.0617	1	C13H10O3+
215.0704	13	C13H11O3+
217.0129	2	C11H5O5+
219.0293	5	C11H7O5+
219.0653	82	C12H11O4+
219.0809	5	C16H11O+
221.0601	1	C15H9O2+
221.071	1	C14H9N2O+
221.0959	4	C16H13O+
222.0767	2	C11H12NO4+
223.0755	58	C15H11O2+
224.0834	1	C15H12O2+
225.0912	59	C15H13O2+
226.0622	34	C14H10O3+
227.0704	44	C14H11O3+
229.0497	9	C13H9O4+
229.0859	12	C14H13O3+
231.0652	17	C13H11O4+
231.0809	2	C17H11O+
232.0608	9	C12H10NO4+
233.0804	3	C13H13O4+
235.0755	33	C16H11O2+
236.0557	10	C11H10NO5+
237.0543	14	C15H9O3+
237.0912	26	C16H13O2+
238.0623	2	C15H10O3+
239.0703	123	C15H11O3+
240.0783	19	C15H12O3+
241.086	212	C15H13O3+
242.0572	21	C14H10O4+
243.0652	10	C14H11O4+
243.1016	23	C15H15O3+
247.0753	18	C17H11O2+
249.0543	12	C16H9O3+
249.091	20	C17H13O2+
251.0705	75	C16H11O3+
252.0418	68	C15H8O4+
253.086	162	C16H13O3+
254.0571	4	C15H10O4+
255.0652	67	C15H11O4+
257.0809	78	C15H13O4+
259.0754	6	C18H11O2+
259.0966	6	C15H15O4+
261.0549	5	C17H9O3+
263.0704	28	C17H11O3+
264.0783	4	C17H12O3+
265.0497	5	C16H9O4+
265.086	81	C17H13O3+
266.0577	5	C16H10O4+
267.0653	757	C16H11O4+
268.0368	9	C15H8O5+
268.0696	1	C11H12N2O6+
268.1336	9	C17H18NO2+
269.0809	359	C16H13O4+
271.0605	7	C15H11O5+
273.0547	2	C18H9O3+
275.0703	42	C18H11O3+
277.086	44	C18H13O3+
278.0575	64	C17H10O4+
279.0652	93	C17H11O4+
280.0731	12	C17H12O4+
281.081	65	C17H13O4+
281.104	16	C17H15NO3+
282.0523	1	C16H10O5+
282.1126	1	C17H16NO3+
283.0602	41	C16H11O5+
283.096	10	C17H15O4+
285.0759	132	C16H13O5+
286.1439	5	C17H20NO3+
287.0915	17	C16H15O5+
289.0501	1	C18H9O4+
290.0578	3	C18H10O4+
291.0652	60	C18H11O4+
292.0734	7	C18H12O4+
293.0809	344	C18H13O4+
294.052	6	C17H10O5+
294.1127	24	C18H16NO3+
295.0608	12	C17H11O5+
295.0964	50	C18H15O4+
296.1282	79	C18H18NO3+
297.0757	60	C17H13O5+
298.1064	2	C17H16NO4+
299.0917	8	C17H15O5+
301.0493	1	C19H9O4+
303.0653	107	C19H11O4+
305.0806	10	C19H13O4+
305.1044	4	C19H15NO3+
306.0523	76	C18H10O5+
307.06	4	C18H11O5+
307.0974	5	C19H15O4+
308.0681	8	C18H12O5+
308.1283	12	C19H18NO3+
309.0759	50	C18H13O5+
311.0914	46	C18H15O5+
314.1388	31	C18H20NO4+
315.0868	6	C17H15O6+
318.1123	15	C20H16NO3+
319.0602	95	C19H11O5+
320.1288	12	C20H18NO3+
321.0758	999	C19H13O5+
322.0476	12	C18H10O6+
323.0921	7	C19H15O5+
324.0634	1	C18H12O6+
324.1228	5	C19H18NO4+
331.0604	10	C20H11O5+
332.1494	19	C18H22NO5+
334.0471	108	C19H10O6+
336.123	41	C20H18NO4+
337.0707	117	C19H13O6+
338.1384	9	C20H20NO4+
339.0864	418	C19H15O6+
347.0551	42	C20H11O6+
348.1234	10	C21H18NO4+
349.0709	227	C20H13O6+
349.0942	19	C20H15NO5+
350.0423	7	C19H10O7+
352.0584	6	C19H12O7+
354.1332	9	C20H20NO5+
355.0816	11	C19H15O7+
364.1178	59	C21H18NO5+
365.0658	35	C20H13O7+
366.1338	7	C21H20NO5+
367.0814	166	C20H15O7+
374.1019	10	C22H16NO5+
377.0894	9	C21H15NO6+
382.1286	31	C21H20NO6+
383.0758	12	C20H15O8+
384.1438	2	C21H22NO6+
392.1129	77	C22H18NO6+
400.1398	10	C21H22NO7+
410.1235	211	C22H20NO7+
428.134	377	C22H22NO8+
