Mass spectrum: Desmethyl-Pirimicarb; LC-ESI-QFT; MS2; CE: 45%; R=17500; [M+H]+
Name: Desmethyl-Pirimicarb
Name: 5,6-Dimethyl-2-(methylamino)-4-pyrimidinyl dimethylcarbamate
Name: [5,6-dimethyl-2-(methylamino)pyrimidin-4-yl] N,N-dimethylcarbamate
Formula: C10H16N4O2
Exact mass: 224.1273
SMILES: CC1=C(N=C(N=C1OC(=O)N(C)C)NC)C
InChI: InChI=1S/C10H16N4O2/c1-6-7(2)12-9(11-3)13-8(6)16-10(15)14(4)5/h1-5H3,(H,11,12,13)
Instrument: Exploris 240 Orbitrap Thermo Scientific
Instrument type: LC-ESI-QFT
Ms type: MS2
Ion mode: POSITIVE
Ionization: ESI
Fragmentation mode: HCD
Collision energy: 45 % (nominal)
Resolution: 17500
Column name: XBridge C18 3.5um, 2.1x50mm, Waters
Retention time: 2.964 min
Base peak: 225.1343
Precursor m/z: 225.1346
Precursor type: [M+H]+
m/z	relative intensity	assigned
71.0604	7	C3H7N2+
72.0444	999	C3H6NO+
85.0759	9	C4H9N2+
98.06	25	C5H8NO+
124.0393	6	C6H6NO2+
137.0712	25	C7H9N2O+
168.113	410	C8H14N3O+
180.0767	65	C8H10N3O2+
181.1445	12	C9H17N4+
