Mass spectrum: Phorate Sulfoxide; LC-ESI-QFT; MS2; CE: 75%; R=17500; [M+H]+
Name: Phorate Sulfoxide
Name: diethoxy-(ethylsulfinylmethylsulfanyl)-sulfanylidene-lambda5-phosphane
Formula: C7H17O3PS3
Exact mass: 276.0077
SMILES: CCOP(=S)(OCC)SCS(=O)CC
InChI: InChI=1S/C7H17O3PS3/c1-4-9-11(12,10-5-2)13-7-14(8)6-3/h4-7H2,1-3H3
Instrument: Exploris 240 Orbitrap Thermo Scientific
Instrument type: LC-ESI-QFT
Ms type: MS2
Ion mode: POSITIVE
Ionization: ESI
Fragmentation mode: HCD
Collision energy: 75 % (nominal)
Resolution: 17500
Column name: XBridge C18 3.5um, 2.1x50mm, Waters
Retention time: 6.677 min
Base peak: 277.0147
Precursor m/z: 277.015
Precursor type: [M+H]+
m/z	relative intensity	assigned
78.9402	8	OPS+
96.9507	999	H2O2PS+
110.9664	32	CH4O2PS+
114.9613	352	H4O3PS+
124.9822	31	C2H6O2PS+
128.9767	11	CH6O3PS+
142.9384	286	CH4O2PS2+
