Mass spectrum: Brodifacoum; LC-ESI-QFT; MS2; CE: 90%; R=17500; [M-H]-
Name: Brodifacoum
Name: 3-[3-[4-(4-bromophenyl)phenyl]-1,2,3,4-tetrahydronaphthalen-1-yl]-4-hydroxychromen-2-one
Formula: C31H23BrO3
Exact mass: 522.0831
SMILES: C1C(CC2=CC=CC=C2C1C3=C(C4=CC=CC=C4OC3=O)O)C5=CC=C(C=C5)C6=CC=C(C=C6)Br
InChI: InChI=1S/C31H23BrO3/c32-24-15-13-20(14-16-24)19-9-11-21(12-10-19)23-17-22-5-1-2-6-25(22)27(18-23)29-30(33)26-7-3-4-8-28(26)35-31(29)34/h1-16,23,27,33H,17-18H2
Instrument: Exploris 240 Orbitrap Thermo Scientific
Instrument type: LC-ESI-QFT
Ms type: MS2
Ion mode: NEGATIVE
Ionization: ESI
Fragmentation mode: HCD
Collision energy: 90 % (nominal)
Resolution: 17500
Column name: XBridge C18 3.5um, 2.1x50mm, Waters
Retention time: 16.514 min
Base peak: 521.0756
Precursor m/z: 521.0758
Precursor type: [M-H]-
m/z	relative intensity	assigned
59.0138	16	C2H3O2-
65.0397	6	C5H5-
67.019	8	C4H3O-
78.9189	999	Br-
92.0268	7	C6H4O-
93.0346	211	C6H5O-
115.0553	25	C9H7-
117.0346	28	C8H5O-
119.0504	3	C8H7O-
135.0452	20	C8H7O2-
143.0502	109	C10H7O-
219.0817	8	C16H11O-
