Mass spectrum: Diphenylamine; LC-ESI-QFT; MS2; CE: 75; R=35000; [M+H]+
Name: Diphenylamine
Name: N-phenylaniline
Formula: C12H11N
Exact mass: 169.08915
SMILES: c1(Nc2ccccc2)ccccc1
InChI: InChI=1S/C12H11N/c1-3-7-11(8-4-1)13-12-9-5-2-6-10-12/h1-10,13H
Instrument: Q Exactive Orbitrap Thermo Scientific
Instrument type: LC-ESI-QFT
Ms type: MS2
Ion mode: POSITIVE
Ionization: ESI
Fragmentation mode: HCD
Collision energy: 75 (nominal)
Resolution: 35000
Column name: XBridge C18 3.5um, 2.1x50mm, Waters
Retention time: 11.3 min
Base peak: 170.0964
Precursor m/z: 170.0964
Precursor type: [M+H]+
m/z	relative intensity	assigned
65.0386	68	C5H5+
66.0464	9	C5H6+
77.0385	2	C6H5+
92.0495	428	C6H6N+
93.0572	999	C6H7N+
94.065	1	C6H8N+
95.0491	12	C6H7O+
105.0448	2	C6H5N2+
110.06	3	C6H8NO+
115.0542	2	C9H7+
128.062	12	C10H8+
129.0698	2	C10H9+
143.0856	11	C11H11+
145.0647	1	C10H9O+
152.0621	34	C12H8+
153.0698	46	C12H9+
154.065	5	C11H8N+
155.0729	9	C11H9N+
168.0808	6	C12H10N+
169.0649	2	C12H9O+
169.0888	22	C12H11N+
170.0963	276	C12H12N+
