Mass spectrum: Buflomedil; LC-ESI-QFT; MS2; CE: 75; R=35000; [M+H]+
Name: Buflomedil
Name: 4-(1-pyrrolidinyl)-1-(2,4,6-trimethoxyphenyl)-1-butanone
Formula: C17H25NO4
Exact mass: 307.17836
SMILES: O=C(c1c(OC)cc(OC)cc1OC)CCCN2CCCC2
InChI: InChI=1S/C17H25NO4/c1-20-13-11-15(21-2)17(16(12-13)22-3)14(19)7-6-10-18-8-4-5-9-18/h11-12H,4-10H2,1-3H3
Instrument: Q Exactive Orbitrap Thermo Scientific
Instrument type: LC-ESI-QFT
Ms type: MS2
Ion mode: POSITIVE
Ionization: ESI
Fragmentation mode: HCD
Collision energy: 75 (nominal)
Resolution: 35000
Column name: XBridge C18 3.5um, 2.1x50mm, Waters
Retention time: 4.8 min
Base peak: 308.1855
Precursor m/z: 308.1856
Precursor type: [M+H]+
m/z	relative intensity	assigned
65.0384	2	C5H5+
67.0541	1	C5H7+
68.0494	3	C4H6N+
69.0334	100	C4H5O+
70.065	107	C4H8N+
71.049	45	C4H7O+
72.0807	28	C4H10N+
77.0383	1	C6H5+
78.0463	1	C6H6+
79.0542	16	C6H7+
81.0333	1	C5H5O+
81.0697	1	C6H9+
83.0491	2	C5H7O+
84.0807	15	C5H10N+
86.0599	14	C4H8NO+
91.0541	39	C7H7+
93.0331	1	C6H5O+
93.0698	4	C7H9+
95.049	13	C6H7O+
96.0568	5	C6H8O+
96.0805	1	C6H10N+
97.0884	4	C6H11N+
98.0599	92	C5H8NO+
103.0541	13	C8H7+
105.0445	2	C6H5N2+
105.0698	39	C8H9+
106.0413	1	C7H6O+
107.049	4	C7H7O+
108.0568	10	C7H8O+
108.0804	2	C7H10N+
109.0282	1	C6H5O2+
109.0647	20	C7H9O+
110.0962	1	C7H12N+
112.1119	3	C7H14N+
115.0539	5	C9H7+
117.0698	7	C9H9+
119.0491	8	C8H7O+
120.0569	8	C8H8O+
121.0646	69	C8H9O+
122.0359	5	C7H6O2+
122.0962	1	C8H12N+
123.0437	5	C7H7O2+
123.0803	35	C8H11O+
124.0515	4	C7H8O2+
125.0596	6	C7H9O2+
129.0699	1	C10H9+
131.049	3	C9H7O+
133.0284	1	C8H5O2+
133.0647	7	C9H9O+
134.0724	3	C9H10O+
135.044	13	C8H7O2+
135.0804	19	C9H11O+
136.0518	60	C8H8O2+
137.0233	7	C7H5O3+
137.0596	23	C8H9O2+
138.0674	6	C8H10O2+
139.0752	86	C8H11O2+
140.1068	71	C8H14NO+
144.0567	1	C10H8O+
145.0646	6	C10H9O+
146.0723	7	C10H10O+
147.0438	4	C9H7O2+
147.0804	11	C10H11O+
148.0515	2	C9H8O2+
148.0881	3	C10H12O+
149.0597	7	C9H9O2+
149.0708	5	C8H9N2O+
149.096	1	C10H13O+
150.0313	1	C8H6O3+
150.0675	14	C9H10O2+
151.039	10	C8H7O3+
151.0753	44	C9H11O2+
152.0466	82	C8H8O3+
153.0545	5	C8H9O3+
153.0907	5	C9H13O2+
154.0623	2	C8H10O3+
155.0337	15	C7H7O4+
155.0701	7	C8H11O3+
159.0804	1	C11H11O+
161.0594	10	C10H9O2+
162.0673	6	C10H10O2+
163.0388	14	C9H7O3+
163.0751	12	C10H11O2+
164.0829	4	C10H12O2+
165.0544	23	C9H9O3+
165.0908	32	C10H13O2+
166.0623	1	C9H10O3+
167.0701	16	C9H11O3+
168.0415	1	C8H8O4+
168.0779	10	C9H12O3+
169.0495	1	C8H9O4+
169.0857	13	C9H13O3+
175.0754	10	C11H11O2+
176.0465	4	C10H8O3+
176.0829	1	C11H12O2+
177.0544	12	C10H9O3+
177.0909	23	C11H13O2+
178.0622	47	C10H10O3+
178.0987	12	C11H14O2+
179.07	14	C10H11O3+
179.1066	4	C11H15O2+
180.0415	131	C9H8O4+
180.0778	9	C10H12O3+
181.0857	205	C10H13O3+
189.0545	24	C11H9O3+
191.0701	121	C11H11O3+
192.0779	1	C11H12O3+
193.0853	2	C11H13O3+
194.0937	7	C11H14O3+
195.065	999	C10H11O4+
195.101	75	C11H15O3+
198.0521	35	C9H10O5+
204.0779	38	C12H12O3+
207.1014	1	C12H15O3+
209.1171	7	C12H17O3+
219.1015	1	C13H15O3+
222.0885	7	C12H14O4+
237.1119	85	C13H17O4+
