Mass spectrum: Lidocaine-N-Oxide; LC-ESI-QFT; MS2; CE: 15; R=35000; [M+H]+
Name: Lidocaine-N-Oxide
Name: Lignocaine N-oxide
Name: 2-(2,6-dimethylanilino)-N,N-diethyl-2-oxoethanamine oxide
Formula: C14H22N2O2
Exact mass: 250.16813
SMILES: CC[N+](CC)(CC(=O)NC1=C(C=CC=C1C)C)[O-]
InChI: InChI=1S/C14H22N2O2/c1-5-16(18,6-2)10-13(17)15-14-11(3)8-7-9-12(14)4/h7-9H,5-6,10H2,1-4H3,(H,15,17)
Instrument: Q Exactive Plus Orbitrap Thermo Scientific
Instrument type: LC-ESI-QFT
Ms type: MS2
Ion mode: POSITIVE
Ionization: ESI
Fragmentation mode: HCD
Collision energy: 15 (nominal)
Resolution: 35000
Column name: XBridge C18 3.5um, 2.1x50mm, Waters
Retention time: 4.8 min
Base peak: 251.1752
Precursor m/z: 251.1754
Precursor type: [M+H]+
m/z	relative intensity	assigned
58.0651	3	C3H8N+
72.0807	4	C4H10N+
74.06	3	C3H8NO+
74.0964	2	C4H12N+
86.0964	157	C5H12N+
88.0756	12	C4H10NO+
120.0802	2	C8H10N+
130.0863	156	C6H12NO2+
148.0757	5	C9H10NO+
164.107	6	C10H14NO+
223.144	3	C12H19N2O2+
233.1654	2	C14H21N2O+
251.1753	999	C14H23N2O2+
