Mass spectrum: Imatinib; LC-ESI-QFT; MS2; CE: 90; R=35000; [M-H]-
Name: Imatinib
Name: 4-[(4-methylpiperazin-1-yl)methyl]-N-[4-methyl-3-[(4-pyridin-3-ylpyrimidin-2-yl)amino]phenyl]benzamide
Formula: C29H31N7O
Exact mass: 493.25901
SMILES: CC1=C(C=C(C=C1)NC(=O)C2=CC=C(C=C2)CN3CCN(CC3)C)NC4=NC=CC(=N4)C5=CN=CC=C5
InChI: InChI=1S/C29H31N7O/c1-21-5-10-25(18-27(21)34-29-31-13-11-26(33-29)24-4-3-12-30-19-24)32-28(37)23-8-6-22(7-9-23)20-36-16-14-35(2)15-17-36/h3-13,18-19H,14-17,20H2,1-2H3,(H,32,37)(H,31,33,34)
Instrument: Q Exactive Plus Orbitrap Thermo Scientific
Instrument type: LC-ESI-QFT
Ms type: MS2
Ion mode: NEGATIVE
Ionization: ESI
Fragmentation mode: HCD
Collision energy: 90 (nominal)
Resolution: 35000
Column name: XBridge C18 3.5um, 2.1x50mm, Waters
Retention time: 5.8 min
Base peak: 171.0666
Precursor m/z: 492.2517
Precursor type: [M-H]-
m/z	relative intensity	assigned
50.0036	18	C3N-
65.0145	233	C3HN2-
76.0192	66	C5H2N-
79.0303	14	C4H3N2-
102.0349	16	C7H4N-
103.0301	30	C6H3N2-
116.0504	31	C8H6N-
117.0459	31	C7H5N2-
128.0378	73	C8H4N2-
129.046	130	C8H5N2-
142.0409	51	C8H4N3-
143.0488	104	C8H5N3-
143.0613	107	C9H7N2-
144.0567	161	C8H6N3-
145.0645	324	C8H7N3-
146.0723	110	C8H8N3-
147.0563	58	C8H7N2O-
155.0487	69	C9H5N3-
157.0407	264	C9H5N2O-
158.0359	378	C8H4N3O-
169.0519	103	C9H5N4-
170.0724	17	C10H8N3-
171.0446	136	C9H5N3O-
171.0564	673	C10H7N2O-
171.0674	137	C9H7N4-
172.0516	999	C9H6N3O-
182.0356	76	C10H4N3O-
182.0719	32	C11H8N3-
196.0515	67	C11H6N3O-
198.0674	573	C11H8N3O-
209.0833	247	C12H9N4-
222.0921	20	C15H12NO-
232.0758	30	C14H8N4-
234.0674	237	C14H8N3O-
237.1032	129	C15H13N2O-
248.0825	75	C15H10N3O-
257.082	15	C16H9N4-
258.0908	60	C16H10N4-
259.0859	91	C15H9N5-
259.0979	34	C16H11N4-
260.0941	110	C15H10N5-
264.1144	276	C16H14N3O-
272.0936	18	C16H10N5-
274.1098	96	C16H12N5-
275.0942	164	C16H11N4O-
285.078	55	C17H9N4O-
302.105	99	C17H12N5O-
