Mass spectrum: Flunixine; LC-ESI-QFT; MS2; CE: 60; R=35000; [M+H]+
Name: Flunixine
Name: Banamine
Name: 2-[2-methyl-3-(trifluoromethyl)anilino]pyridine-3-carboxylic acid
Formula: C14H11F3N2O2
Exact mass: 296.07726
SMILES: CC1=C(C=CC=C1NC2=C(C=CC=N2)C(=O)O)C(F)(F)F
InChI: InChI=1S/C14H11F3N2O2/c1-8-10(14(15,16)17)5-2-6-11(8)19-12-9(13(20)21)4-3-7-18-12/h2-7H,1H3,(H,18,19)(H,20,21)
Instrument: Q Exactive Plus Orbitrap Thermo Scientific
Instrument type: LC-ESI-QFT
Ms type: MS2
Ion mode: POSITIVE
Ionization: ESI
Fragmentation mode: HCD
Collision energy: 60 (nominal)
Resolution: 35000
Column name: XBridge C18 3.5um, 2.1x50mm, Waters
Retention time: 10.9 min
Base peak: 297.0837
Precursor m/z: 297.0845
Precursor type: [M+H]+
m/z	relative intensity	assigned
78.0336	2	C5H4N+
96.0443	5	C5H6NO+
109.0448	21	C7H6F+
121.0396	1	C6H5N2O+
139.0352	3	C8H5F2+
147.0353	2	C8H4FN2+
159.0416	42	C8H6F3+
167.0728	1	C12H9N+
175.0601	1	C8H8F3N+
180.0682	1	C12H8N2+
181.0758	10	C12H9N2+
182.0838	13	C12H10N2+
184.0557	24	C12H7FN+
191.0602	5	C13H7N2+
192.0682	5	C13H8N2+
195.0553	1	C12H7N2O+
204.0619	1	C12H8F2N+
208.0628	1	C13H8N2O+
209.0709	12	C13H9N2O+
210.0589	6	C13H7FN2+
210.0788	107	C13H10N2O+
211.0666	43	C13H8FN2+
212.0507	2	C13H7FNO+
212.0743	2	C13H9FN2+
213.0823	1	C13H10FN2+
215.0615	1	C12H8FN2O+
216.0498	1	C12H6F2N2+
216.0621	1	C13H8F2N+
219.0554	10	C14H7N2O+
221.051	1	C14H6FN2+
224.0683	1	C12H9F3N+
229.077	2	C13H10FN2O+
230.0652	1	C13H8F2N2+
231.0728	22	C13H9F2N2+
232.0569	4	C13H8F2NO+
234.0525	9	C13H7F3N+
236.0557	17	C12H7F3N2+
236.0678	2	C13H9F3N+
237.0656	3	C14H9N2O2+
239.0615	100	C14H8FN2O+
241.0571	13	C14H7F2N2+
244.0445	2	C13H6F2N2O+
249.0631	3	C13H8F3N2+
250.071	3	C13H9F3N2+
251.079	10	C13H10F3N2+
252.0632	5	C13H9F3NO+
257.0518	2	C14H7F2N2O+
257.072	10	C14H10FN2O2+
258.06	4	C14H8F2N2O+
259.0678	218	C11H10F3N2O2+
261.0634	7	C14H8F3N2+
262.055	2	C13H8F2N2O2+
263.0418	1	C13H6F3N2O+
264.0504	538	C13H7F3N2O+
277.0583	17	C14H8F3N2O+
277.0782	8	C14H11F2N2O2+
278.0664	6	C14H9F3N2O+
279.0738	999	C14H10F3N2O+
280.0768	1	C12H10F2N4O2+
297.0844	8	C14H12F3N2O2+
