Mass spectrum: N4-Acetylsulfamethazine; LC-ESI-ITFT; MS2; CE: 60%; R=15000; [M+H]+
Name: N4-Acetylsulfamethazine
Name: N-[4-[(4,6-dimethyl-2-pyrimidinyl)sulfamoyl]phenyl]acetamide
Formula: C14H16N4O3S
Exact mass: 320.0943
SMILES: O=S(=O)(c1ccc(cc1)NC(=O)C)Nc1nc(cc(n1)C)C
InChI: InChI=1S/C14H16N4O3S/c1-9-8-10(2)16-14(15-9)18-22(20,21)13-6-4-12(5-7-13)17-11(3)19/h4-8H,1-3H3,(H,17,19)(H,15,16,18)
Instrument: LTQ Orbitrap XL Thermo Scientific
Instrument type: LC-ESI-ITFT
Ms type: MS2
Ion mode: POSITIVE
Ionization: ESI
Fragmentation mode: HCD
Collision energy: 60 % (nominal)
Resolution: 15000
Column name: XBridge C18 3.5um, 2.1x50mm, Waters
Retention time: 4.5 min
Base peak: 321.1027
Precursor m/z: 321.1016
Precursor type: [M+H]+
m/z	relative intensity	assigned
65.0386	347	C5H5+
68.0495	19	C4H6N+
80.0495	7	C5H6N+
81.0447	22	C4H5N2+
92.0495	62	C6H6N+
93.0335	64	C6H5O+
93.0574	25	C6H7N+
94.0651	25	C6H8N+
95.0604	94	C5H7N2+
96.0682	51	C5H8N2+
105.045	7	C6H5N2+
106.0651	19	C7H8N+
107.0603	6	C6H7N2+
108.0444	398	C6H6NO+
116.0577	4	C4H8N2O2+
118.0655	10	C8H8N+
122.0713	73	C6H8N3+
123.0791	327	C6H9N3+
124.087	543	C6H10N3+
125.0709	24	C6H9N2O+
134.0601	999	C8H8NO+
136.0756	27	C8H10NO+
150.055	8	C8H8NO2+
156.0112	45	C6H6NO2S+
162.0661	31	C8H8N3O+
186.0332	175	C6H8N3O2S+
198.0219	30	C8H8NO3S+
204.0437	89	C6H10N3O3S+
212.1055	39	C12H12N4+
213.1134	99	C12H13N4+
214.0974	25	C12H12N3O+
255.1239	171	C14H15N4O+
