Mass spectrum: Candesartan; LC-ESI-ITFT; MS2; CE: 45%; R=7500; [M-H]-
Name: Candesartan
Name: 2-ethoxy-3-[4-[2-(2H-tetrazol-5-yl)phenyl]benzyl]benzimidazole-4-carboxylic acid
Formula: C24H20N6O3
Exact mass: 440.1597
SMILES: c1(ccccc1c1ccc(Cn2c(nc3c2c(C(=O)O)ccc3)OCC)cc1)c1nnn[nH]1
InChI: InChI=1S/C24H20N6O3/c1-2-33-24-25-20-9-5-8-19(23(31)32)21(20)30(24)14-15-10-12-16(13-11-15)17-6-3-4-7-18(17)22-26-28-29-27-22/h3-13H,2,14H2,1H3,(H,31,32)(H,26,27,28,29)
Instrument: LTQ Orbitrap XL Thermo Scientific
Instrument type: LC-ESI-ITFT
Ms type: MS2
Ion mode: NEGATIVE
Ionization: ESI
Fragmentation mode: HCD
Collision energy: 45 % (nominal)
Resolution: 7500
Column name: XBridge C18 3.5um, 2.1x50mm, Waters
Retention time: 9.3 min
Base peak: 439.1519
Precursor m/z: 439.1524
Precursor type: [M-H]-
m/z	relative intensity	assigned
117.046	91	C7H5N2-
132.033	800	C7H4N2O-
133.0408	791	C7H5N2O-
147.0199	240	C7H3N2O2-
161.0727	260	C9H9N2O-
190.0667	85	C14H8N-
205.0616	80	C10H9N2O3-
293.1083	448	C21H13N2-
306.1039	239	C21H12N3-
309.1036	999	C21H13N2O-
324.115	177	C21H14N3O-
