Mass spectrum: Dioxabenzofos; LC-ESI-QFT; MS2; CE: 75%; R=17500; [M+H]+
Name: Dioxabenzofos
Name: 2-methoxy-2-sulfanylidene-4H-1,3,2lambda5-benzodioxaphosphinine
Formula: C8H9O3PS
Exact mass: 216.0010
SMILES: COP1(=S)OCC2=CC=CC=C2O1
InChI: InChI=1S/C8H9O3PS/c1-9-12(13)10-6-7-4-2-3-5-8(7)11-12/h2-5H,6H2,1H3
Instrument: Exploris 240 Orbitrap Thermo Scientific
Instrument type: LC-ESI-QFT
Ms type: MS2
Ion mode: POSITIVE
Ionization: ESI
Fragmentation mode: HCD
Collision energy: 75 % (nominal)
Resolution: 17500
Column name: XBridge C18 3.5um, 2.1x50mm, Waters
Retention time: 7.127 min
Base peak: 217.0083
Precursor m/z: 217.0083
Precursor type: [M+H]+
m/z	relative intensity	assigned
53.0387	26	C4H5+
62.9453	39	PS+
64.9788	11	H2O2P+
77.0386	91	C6H5+
79.0542	292	C6H7+
91.0541	11	C7H7+
94.9891	5	CH4O3P+
95.0492	33	C6H7O+
107.0491	999	C7H7O+
109.0107	41	C6H5S+
110.9665	69	CH4O2PS+
121.0107	41	C7H5S+
122.0188	10	C7H6S+
123.0263	253	C7H7S+
128.9771	39	CH6O3PS+
154.9717	62	C6H4OPS+
166.971	9	C7H4OPS+
186.9978	6	C7H8O2PS+
202.9928	7	C7H8O3PS+
