Mass spectrum: Tricyclazole; LC-ESI-QFT; MS2; CE: 150%; R=17500; [M+H]+
Name: Tricyclazole
Name: 8-methyl-[1,2,4]triazolo[3,4-b][1,3]benzothiazole
Formula: C9H7N3S
Exact mass: 189.0361
SMILES: CC1=C2C(=CC=C1)SC3=NN=CN23
InChI: InChI=1S/C9H7N3S/c1-6-3-2-4-7-8(6)12-5-10-11-9(12)13-7/h2-5H,1H3
Instrument: Exploris 240 Orbitrap Thermo Scientific
Instrument type: LC-ESI-QFT
Ms type: MS2
Ion mode: POSITIVE
Ionization: ESI
Fragmentation mode: HCD
Collision energy: 150 % (nominal)
Resolution: 17500
Column name: XBridge C18 3.5um, 2.1x50mm, Waters
Retention time: 4.550 min
Base peak: 190.0431
Precursor m/z: 190.0433
Precursor type: [M+H]+
m/z	relative intensity	assigned
44.9793	75	CHS+
51.0229	79	C4H3+
65.0386	999	C5H5+
68.9794	129	C3HS+
75.0229	54	C6H3+
76.0184	12	C5H2N+
76.0309	16	C6H4+
77.0386	120	C6H5+
78.0463	67	C6H6+
92.0495	364	C6H6N+
102.0337	82	C7H4N+
103.042	70	C7H5N+
104.0492	100	C7H6N+
105.0451	28	C6H5N2+
108.0028	34	C6H4S+
109.0106	682	C6H5S+
121.0108	73	C7H5S+
130.0401	65	C7H4N3+
136.0215	211	C7H6NS+
