Mass spectrum: 2-Mercaptobenzothiazole; LC-ESI-QFT; MS2; CE: 180; R=35000; [M+H]+
Name: 2-Mercaptobenzothiazole
Name: 1,3-Benzothiazole-2(3H)-thione
Name: 3H-1,3-benzothiazole-2-thione
Formula: C7H5NS2
Exact mass: 166.98634
SMILES: S=C2Sc1ccccc1N2
InChI: InChI=1S/C7H5NS2/c9-7-8-5-3-1-2-4-6(5)10-7/h1-4H,(H,8,9)
Instrument: Q Exactive Plus Orbitrap Thermo Scientific
Instrument type: LC-ESI-QFT
Ms type: MS2
Ion mode: POSITIVE
Ionization: ESI
Fragmentation mode: HCD
Collision energy: 180 (nominal)
Resolution: 35000
Column name: XBridge C18 3.5um, 2.1x50mm, Waters
Retention time: 6.7 min
Base peak: 167.9936
Precursor m/z: 167.9936
Precursor type: [M+H]+
m/z	relative intensity	assigned
50.0151	140	C4H2+
51.023	130	C4H3+
52.0182	12	C3H2N+
53.0022	66	C3HO+
53.0386	121	C4H5+
53.9975	14	C2NO+
54.01	2	C3H2O+
54.0465	5	C4H6+
55.0179	15	C3H3O+
57.9872	95	C2H2S+
59.9665	4	COS+
59.9903	6	CH2NS+
61.0073	8	C5H+
62.0151	50	C5H2+
63.023	406	C5H3+
64.0182	189	C4H2N+
64.0307	35	C5H4+
65.0386	915	C5H5+
66.0339	6	C4H4N+
66.0464	94	C5H6+
67.0417	5	C4H5N+
68.9794	999	C3HS+
70.995	8	C3H3S+
74.0151	11	C6H2+
75.0229	14	C6H3+
76.0181	6	C5H2N+
76.0307	5	C6H4+
77.0386	226	C6H5+
78.0085	1	C3N3+
78.0464	2	C6H6+
80.0495	211	C5H6N+
80.9794	21	C4HS+
81.0335	10	C5H5O+
81.9872	325	C4H2S+
82.9949	10	C4H3S+
83.9903	1	C3H2NS+
84.0029	19	C4H4S+
90.0339	139	C6H4N+
91.0417	74	C6H5N+
92.0495	2	C6H6N+
92.9794	103	C5HS+
93.9747	7	C4NS+
94.0413	1	C6H6O+
96.0028	4	C5H4S+
96.0445	1	C5H6NO+
97.0107	13	C5H5S+
103.0417	1	C7H5N+
105.0448	129	C6H5N2+
106.995	41	C6H3S+
108.0028	427	C6H4S+
109.0107	147	C6H5S+
110.0185	7	C6H6S+
132.9982	12	C7H3NS+
134.0059	10	C7H4NS+
135.0138	37	C7H5NS+
136.0216	26	C7H6NS+
