Mass spectrum: 4`-Hydroxy Diclofenac; LC-ESI-QFT; MS2; CE: 150; R=35000; [M+H]+
Name: 4`-Hydroxy Diclofenac
Name: 4`-hydroxydiclofenac
Name: 2-[2-(2,6-dichloro-4-hydroxyanilino)phenyl]acetic acid
Formula: C14H11Cl2NO3
Exact mass: 311.01160
SMILES: C1=CC=C(C(=C1)CC(=O)O)NC2=C(C=C(C=C2Cl)O)Cl
InChI: InChI=1S/C14H11Cl2NO3/c15-10-6-9(18)7-11(16)14(10)17-12-4-2-1-3-8(12)5-13(19)20/h1-4,6-7,17-18H,5H2,(H,19,20)
Instrument: Q Exactive Plus Orbitrap Thermo Scientific
Instrument type: LC-ESI-QFT
Ms type: MS2
Ion mode: POSITIVE
Ionization: ESI
Fragmentation mode: HCD
Collision energy: 150 (nominal)
Resolution: 35000
Column name: XBridge C18 3.5um, 2.1x50mm, Waters
Retention time: 10.0 min
Base peak: 312.0187
Precursor m/z: 312.0189
Precursor type: [M+H]+
m/z	relative intensity	assigned
50.0151	9	C4H2+
51.0228	7	C4H3+
52.0181	2	C3H2N+
53.0022	3	C3HO+
53.0386	3	C4H5+
60.984	5	C2H2Cl+
61.0073	3	C5H+
62.0149	6	C5H2+
63.0229	38	C5H3+
65.0386	20	C5H5+
72.9839	3	C3H2Cl+
74.015	3	C6H2+
75.0228	9	C6H3+
76.0181	3	C5H2N+
76.0307	1	C6H4+
77.0258	1	C5H3N+
77.0385	6	C6H5+
78.0338	6	C5H4N+
78.0463	1	C6H6+
79.0542	1	C6H7+
84.9839	16	C4H2Cl+
86.0148	1	C7H2+
86.9996	4	C4H4Cl+
87.0228	11	C7H3+
88.0182	6	C6H2N+
88.0306	5	C7H4+
89.0385	113	C7H5+
90.0339	5	C6H4N+
90.0464	7	C7H6+
91.0542	12	C7H7+
95.0491	13	C6H7O+
98.0151	1	C8H2+
99.0231	5	C8H3+
101.0387	2	C8H5+
102.0464	8	C8H6+
104.0494	2	C7H6N+
105.0445	6	C6H5N2+
113.0385	166	C9H5+
114.0107	4	C5H5ClN+
114.0339	16	C8H4N+
114.0464	14	C9H6+
115.0542	202	C9H7+
116.0494	80	C8H6N+
117.0572	9	C8H7N+
118.0411	1	C8H6O+
120.9603	1	C4H3Cl2+
123.0229	1	C10H3+
125.0385	3	C10H5+
126.0464	22	C10H6+
127.0414	3	C9H5N+
127.0541	3	C10H7+
128.0494	25	C9H6N+
129.0447	9	C8H5N2+
129.0574	3	C9H7N+
132.0444	2	C8H6NO+
132.0569	5	C9H8O+
134.0601	5	C8H8NO+
137.0387	9	C11H5+
138.0463	20	C11H6+
139.0542	999	C11H7+
140.0494	992	C10H6N+
141.0573	10	C10H7N+
141.0697	4	C11H9+
142.065	5	C10H8N+
145.0647	3	C10H9O+
146.0597	5	C9H8NO+
148.9554	1	C5H3Cl2O+
149.0385	11	C12H5+
150.0464	23	C12H6+
151.0417	3	C11H5N+
151.0543	1	C12H7+
152.0495	2	C11H6N+
152.0619	1	C12H8+
153.0571	2	C11H7N+
154.0652	12	C11H8N+
155.0605	6	C10H7N2+
156.0568	2	C11H8O+
158.0599	3	C10H8NO+
164.0494	50	C12H6N+
165.0574	43	C12H7N+
166.0651	955	C12H8N+
167.0729	943	C12H9N+
168.0805	4	C12H10N+
169.0521	2	C11H7NO+
169.0647	10	C12H9O+
170.0361	2	C11H6O2+
170.0603	5	C11H8NO+
175.0414	8	C13H5N+
176.0497	6	C13H6N+
177.0572	53	C13H7N+
178.0652	8	C13H8N+
179.0604	3	C12H7N2+
179.0726	1	C13H9N+
180.0442	1	C12H6NO+
181.0519	1	C12H7NO+
182.0596	3	C12H8NO+
183.0682	4	C12H9NO+
184.0755	8	C12H10NO+
185.0598	2	C12H9O2+
193.052	3	C13H7NO+
194.0601	28	C13H8NO+
195.0678	102	C13H9NO+
196.0755	1	C13H10NO+
198.0916	1	C13H12NO+
200.0262	1	C12H7ClN+
201.0339	10	C12H8ClN+
202.0414	4	C12H9ClN+
204.0557	4	C13H6N3+
212.0257	4	C13H7ClN+
230.0365	13	C13H9ClNO+
