Mass spectrum: Naftifine; LC-ESI-QFT; MS2; CE: 180; R=35000; [M+H]+
Name: Naftifine
Name: Suadian
Name: N-methyl-N-(naphthalen-1-ylmethyl)-3-phenylprop-2-en-1-amine
Formula: C21H21N
Exact mass: 287.16740
SMILES: CN(CC=CC1=CC=CC=C1)CC2=CC=CC3=CC=CC=C32
InChI: InChI=1S/C21H21N/c1-22(16-8-11-18-9-3-2-4-10-18)17-20-14-7-13-19-12-5-6-15-21(19)20/h2-15H,16-17H2,1H3
Instrument: Q Exactive Plus Orbitrap Thermo Scientific
Instrument type: LC-ESI-QFT
Ms type: MS2
Ion mode: POSITIVE
Ionization: ESI
Fragmentation mode: HCD
Collision energy: 180 (nominal)
Resolution: 35000
Column name: XBridge C18 3.5um, 2.1x50mm, Waters
Retention time: 7.5 min
Base peak: 288.1741
Precursor m/z: 288.1747
Precursor type: [M+H]+
m/z	relative intensity	assigned
50.0151	41	C4H2+
51.0229	23	C4H3+
52.0307	1	C4H4+
53.0022	29	C3HO+
53.0386	5	C4H5+
53.9975	9	C2NO+
61.0072	19	C5H+
62.0151	88	C5H2+
63.0229	377	C5H3+
64.0307	1	C5H4+
65.0386	747	C5H5+
74.015	23	C6H2+
75.0228	35	C6H3+
76.0307	20	C6H4+
77.0384	13	C6H5+
78.0463	10	C6H6+
86.015	7	C7H2+
87.0229	24	C7H3+
88.0307	6	C7H4+
89.0385	499	C7H5+
90.0464	3	C7H6+
91.0542	509	C7H7+
95.0491	11	C6H7O+
98.0151	1	C8H2+
102.0464	34	C8H6+
105.0447	10	C6H5N2+
113.0385	15	C9H5+
114.0464	10	C9H6+
115.0542	999	C9H7+
116.0619	7	C9H8+
118.0412	2	C8H6O+
126.0464	4	C10H6+
132.0568	4	C9H8O+
139.0541	58	C11H7+
140.0616	1	C11H8+
141.0698	4	C11H9+
