Mass spectrum: Picloram; LC-ESI-QFT; MS2; CE: 75%; R=15000; [M-H]-
Name: Picloram
Name: 4-amino-3,5,6-trichloropyridine-2-carboxylic acid
Formula: C6H3Cl3N2O2
Exact mass: 239.9260104
SMILES: C1(=C(C(=NC(=C1Cl)Cl)C(=O)O)Cl)N
InChI: InChI=1S/C6H3Cl3N2O2/c7-1-3(10)2(8)5(9)11-4(1)6(12)13/h(H2,10,11)(H,12,13)
Instrument: Exploris 240 Thermo Scientific
Instrument type: LC-ESI-QFT
Ms type: MS2
Ion mode: NEGATIVE
Ionization: ESI
Fragmentation mode: HCD
Collision energy: 75 % (nominal)
Resolution: 15000
Column name: XBridge C18 3.5um, 2.1x50mm, Waters
Retention time: 3.478 min
Base peak: 238.9189
Precursor m/z: 238.9187
Precursor type: [M-H]-
m/z	relative intensity	assigned
88.0069	62	C5N2-
98.9758	78	C3ClN2-
122.9756	999	C5ClN2-
158.9523	365	C5HCl2N2-
