Mass spectrum: Oxacillin; LC-ESI-QFT; MS2; CE: 30; R=35000; [M-H]-
Name: Oxacillin
Name: (2S,5R,6R)-3,3-dimethyl-6-[(5-methyl-3-phenyl-1,2-oxazole-4-carbonyl)amino]-7-oxo-4-thia-1-azabicyclo[3.2.0]heptane-2-carboxylic acid
Formula: C19H19N3O5S
Exact mass: 401.10454
SMILES: CC1=C(C(=O)N[C@H]2[C@H]3SC(C)(C)[C@@H](N3C2=O)C(O)=O)C(=NO1)C1=CC=CC=C1
InChI: InChI=1S/C19H19N3O5S/c1-9-11(12(21-27-9)10-7-5-4-6-8-10)15(23)20-13-16(24)22-14(18(25)26)19(2,3)28-17(13)22/h4-8,13-14,17H,1-3H3,(H,20,23)(H,25,26)/t13-,14+,17-/m1/s1
Instrument: Q Exactive Plus Orbitrap Thermo Scientific
Instrument type: LC-ESI-QFT
Ms type: MS2
Ion mode: NEGATIVE
Ionization: ESI
Fragmentation mode: HCD
Collision energy: 30 (nominal)
Resolution: 35000
Column name: XBridge C18 3.5um, 2.1x50mm, Waters
Retention time: 8.4 min
Base peak: 400.097
Precursor m/z: 400.0973
Precursor type: [M-H]-
m/z	relative intensity	assigned
57.9756	2	CNS-
58.9961	17	C2H3S-
70.9835	3	C2HNS-
71.9915	40	C2H2NS-
74.9911	145	C2H3OS-
82.0298	6	C4H4NO-
83.0139	22	C4H3O2-
96.0455	5	C5H6NO-
99.9864	4	C3H2NOS-
112.9941	3	C4H3NOS-
113.0067	4	C5H5OS-
114.002	20	C4H4NOS-
122.025	5	C6H4NO2-
143.0617	1	C9H7N2-
144.0453	3	C9H6NO-
148.0281	1	C7H4N2O2-
156.0126	68	C6H6NO2S-
158.0611	6	C10H8NO-
171.0563	2	C10H7N2O-
173.0305	45	C10H7NS-
174.0383	112	C10H8NS-
177.0379	3	C10H9OS-
182.0158	10	C7H6N2O2S-
183.0564	3	C11H7N2O-
185.072	51	C11H9N2O-
186.056	3	C11H8NO2-
188.0541	3	C11H10NS-
190.0335	5	C10H8NOS-
197.072	1	C12H9N2O-
199.0508	1	C11H7N2O2-
199.0637	1	C12H9NO2-
200.0593	25	C11H8N2O2-
201.067	3	C11H9N2O2-
213.0671	7	C12H9N2O2-
216.0364	44	C11H8N2OS-
216.0489	59	C12H10NOS-
217.0442	96	C11H9N2OS-
225.067	49	C13H9N2O2-
226.075	16	C13H10N2O2-
227.0828	2	C13H11N2O2-
241.0443	30	C13H9N2OS-
257.0396	3	C13H9N2O2S-
258.0468	6	C13H10N2O2S-
258.0649	2	C13H10N2O4-
259.0548	999	C13H11N2O2S-
356.1078	1	C18H18N3O3S-
