Mass spectrum: 17a-Ethynylestradiol; LC-ESI-QFT; MS2; CE: 45; R=35000; [M+H]+
Name: 17a-Ethynylestradiol
Name: Ethinyl Estradiol
Name: 17-ethynyl-13-methyl-7,8,9,11,12,14,15,16-octahydro-6H-cyclopenta[a]phenanthrene-3,17-diol
Formula: C20H24O2
Exact mass: 296.17763
SMILES: Oc1cc4c(cc1)C3CCC2(C(CCC2(C#C)O)C3CC4)C
InChI: InChI=1S/C20H24O2/c1-3-20(22)11-9-18-17-6-4-13-12-14(21)5-7-15(13)16(17)8-10-19(18,20)2/h1,5,7,12,16-18,21-22H,4,6,8-11H2,2H3
Instrument: Q Exactive Orbitrap Thermo Scientific
Instrument type: LC-ESI-QFT
Ms type: MS2
Ion mode: POSITIVE
Ionization: ESI
Fragmentation mode: HCD
Collision energy: 45 (nominal)
Resolution: 35000
Column name: XBridge C18 3.5um, 2.1x50mm, Waters
Retention time: 10.4 min
Base peak: 279.1744
Precursor m/z: 297.1849
Precursor type: [M+H]+
m/z	relative intensity	assigned
55.018	1	C3H3O+
55.0543	2	C4H7+
57.07	2	C4H9+
59.0493	2	C3H7O+
65.0385	5	C5H5+
67.0542	52	C5H7+
69.0334	2	C4H5O+
69.0699	18	C5H9+
71.0491	14	C4H7O+
77.0384	5	C6H5+
79.0542	76	C6H7+
81.0335	5	C5H5O+
81.0699	95	C6H9+
83.0491	5	C5H7O+
83.0855	8	C6H11+
85.0648	7	C5H9O+
91.0542	95	C7H7+
93.0699	98	C7H9+
95.0491	30	C6H7O+
95.0855	64	C7H11+
97.0649	20	C6H9O+
97.1012	7	C7H13+
99.0806	2	C6H11O+
103.0542	10	C8H7+
105.0699	130	C8H9+
107.0492	999	C7H7O+
107.0855	57	C8H11+
109.0649	20	C7H9O+
109.1012	137	C8H13+
111.0806	16	C7H11O+
115.0541	12	C9H7+
116.0619	3	C9H8+
117.0699	62	C9H9+
119.0493	3	C8H7O+
119.0855	57	C9H11+
121.0648	119	C8H9O+
121.1012	22	C9H13+
123.0439	3	C7H7O2+
123.0804	24	C8H11O+
123.117	2	C9H15+
124.0883	1	C8H12O+
127.0753	5	C7H11O2+
128.062	8	C10H8+
129.0699	29	C10H9+
130.0778	9	C10H10+
131.0493	14	C9H7O+
131.0856	104	C10H11+
132.0573	1	C9H8O+
133.0648	232	C9H9O+
133.1012	56	C10H13+
134.0681	8	C4H10N2O3+
135.0806	17	C9H11O+
135.1168	23	C10H15+
137.0962	69	C9H13O+
141.07	7	C11H9+
142.0777	6	C11H10+
143.0856	31	C11H11+
144.0571	13	C10H8O+
144.0934	23	C11H12+
145.0649	61	C10H9O+
145.1012	34	C11H13+
146.0729	1	C10H10O+
147.0805	66	C10H11O+
147.1167	12	C11H15+
149.0598	4	C9H9O2+
149.0962	9	C10H13O+
149.1326	10	C11H17+
151.1119	2	C10H15O+
153.0694	1	C12H9+
155.0855	6	C12H11+
156.0936	3	C12H12+
157.0649	102	C11H9O+
157.1013	27	C12H13+
158.0678	1	C6H10N2O3+
159.0805	176	C11H11O+
159.1169	93	C12H15+
160.0889	3	C11H12O+
161.0966	25	C11H13O+
161.1326	2	C12H17+
163.0752	1	C10H11O2+
163.112	6	C11H15O+
165.07	8	C13H9+
167.0856	3	C13H11+
169.0647	3	C12H9O+
169.1011	3	C13H13+
170.0727	3	C12H10O+
171.0805	41	C12H11O+
171.1168	30	C13H15+
172.1249	11	C13H16+
173.0964	34	C12H13O+
173.1326	9	C13H17+
175.1119	8	C12H15O+
177.1273	9	C12H17O+
178.0775	1	C14H10+
179.0856	9	C14H11+
181.065	8	C13H9O+
181.1013	8	C14H13+
182.0729	8	C13H10O+
183.0805	36	C13H11O+
184.0887	3	C13H12O+
185.0963	39	C13H13O+
185.1324	8	C14H17+
187.112	9	C13H15O+
189.1275	14	C13H17O+
193.1012	3	C15H13+
194.0727	6	C14H10O+
195.0806	20	C14H11O+
196.0884	8	C14H12O+
197.0962	37	C14H13O+
199.1118	10	C14H15O+
201.128	1	C14H17O+
203.1436	2	C14H19O+
205.102	1	C16H13+
208.0885	9	C15H12O+
209.0964	40	C15H13O+
210.1044	4	C15H14O+
211.1119	22	C15H15O+
213.1274	41	C15H17O+
214.1308	74	C10H18N2O3+
215.1067	2	C14H15O2+
221.0958	2	C16H13O+
222.1037	6	C16H14O+
223.1119	36	C16H15O+
224.12	2	C16H16O+
225.1274	9	C16H17O+
227.143	6	C16H19O+
235.1119	2	C17H15O+
236.1201	2	C17H16O+
237.1277	10	C17H17O+
239.1434	6	C17H19O+
249.1271	1	C18H17O+
250.1358	2	C18H18O+
251.1433	8	C18H19O+
251.1798	1	C19H23+
253.1589	1	C18H21O+
264.1514	2	C19H20O+
279.1744	16	C20H23O+
297.1853	6	C20H25O2+
