Mass spectrum: Enoxastrobin; LC-ESI-QFT; MS2; CE: 120%; R=17500; [M+H]+
Name: Enoxastrobin
Name: methyl 2-[2-[[4-(4-chlorophenyl)but-3-en-2-ylideneamino]oxymethyl]phenyl]-3-methoxyprop-2-enoate
Formula: C22H22ClNO4
Exact mass: 399.1237
SMILES: CC(=NOCC1=CC=CC=C1C(=COC)C(=O)OC)C=CC2=CC=C(C=C2)Cl
InChI: InChI=1S/C22H22ClNO4/c1-16(8-9-17-10-12-19(23)13-11-17)24-28-14-18-6-4-5-7-20(18)21(15-26-2)22(25)27-3/h4-13,15H,14H2,1-3H3
Instrument: Exploris 240 Orbitrap Thermo Scientific
Instrument type: LC-ESI-QFT
Ms type: MS2
Ion mode: POSITIVE
Ionization: ESI
Fragmentation mode: HCD
Collision energy: 120 % (nominal)
Resolution: 17500
Column name: XBridge C18 3.5um, 2.1x50mm, Waters
Retention time: 13.142 min
Base peak: 400.1307
Precursor m/z: 400.131
Precursor type: [M+H]+
m/z	relative intensity	assigned
50.0152	7	C4H2+
51.023	42	C4H3+
53.0385	3	C4H5+
65.0386	15	C5H5+
74.0152	17	C6H2+
75.0229	352	C6H3+
76.0308	44	C6H4+
77.0386	38	C6H5+
89.0387	18	C7H5+
91.0542	135	C7H7+
101.0386	155	C8H5+
102.0464	999	C8H6+
103.0542	138	C8H7+
111	3	C6H4Cl+
115.0542	251	C9H7+
116.0621	13	C9H8+
117.0701	30	C9H9+
119.0494	24	C8H7O+
128.0622	15	C10H8+
130.0413	49	C9H6O+
131.0494	18	C9H7O+
137.0151	13	C8H6Cl+
139.0057	11	C9HNO+
