Mass spectrum: Xylometazoline; LC-ESI-QFT; MS2; CE: 75; R=35000; [M+H]+
Name: Xylometazoline
Name: 2-(4-tert-butyl-2,6-dimethyl-benzyl)-2-imidazoline
Formula: C16H24N2
Exact mass: 244.19395
SMILES: CC1=CC(=CC(=C1CC2=NCCN2)C)C(C)(C)C
InChI: InChI=1S/C16H24N2/c1-11-8-13(16(3,4)5)9-12(2)14(11)10-15-17-6-7-18-15/h8-9H,6-7,10H2,1-5H3,(H,17,18)
Instrument: Q Exactive Orbitrap Thermo Scientific
Instrument type: LC-ESI-QFT
Ms type: MS2
Ion mode: POSITIVE
Ionization: ESI
Fragmentation mode: HCD
Collision energy: 75 (nominal)
Resolution: 35000
Column name: XBridge C18 3.5um, 2.1x50mm, Waters
Retention time: 8.0 min
Base peak: 245.2014
Precursor m/z: 245.2012
Precursor type: [M+H]+
m/z	relative intensity	assigned
55.0543	3	C4H7+
57.0699	135	C4H9+
67.0541	1	C5H7+
69.0698	36	C5H9+
71.0603	20	C3H7N2+
77.0383	1	C6H5+
79.0542	3	C6H7+
81.0698	1	C6H9+
83.0604	8	C4H7N2+
83.0855	6	C6H11+
84.0681	102	C4H8N2+
91.0541	14	C7H7+
93.0698	6	C7H9+
95.0855	2	C7H11+
105.0698	78	C8H9+
107.0855	16	C8H11+
115.0542	2	C9H7+
117.0697	3	C9H9+
118.0774	1	C9H10+
119.0854	239	C9H11+
121.1011	41	C9H13+
128.0618	2	C10H8+
129.0699	2	C10H9+
131.0855	21	C10H11+
132.0932	2	C10H12+
133.1011	256	C10H13+
134.1089	2	C10H14+
135.1166	30	C10H15+
143.0855	6	C11H11+
144.0805	3	C10H10N+
144.0934	1	C11H12+
145.1011	75	C11H13+
146.0964	24	C10H12N+
146.1089	42	C11H14+
147.1167	114	C11H15+
157.0884	3	C11H11N+
158.0962	3	C11H12N+
159.1166	2	C12H15+
160.1246	175	C12H16+
161.1323	437	C12H17+
172.1117	6	C12H14N+
173.1074	23	C11H13N2+
173.1324	8	C13H17+
174.1147	6	C11H14N2+
175.148	442	C13H19+
186.1277	7	C13H16N+
187.1228	9	C12H15N2+
188.1308	28	C12H16N2+
189.1385	928	C12H17N2+
202.1461	16	C13H18N2+
215.1543	93	C14H19N2+
229.1699	532	C15H21N2+
230.1777	246	C15H22N2+
245.2011	999	C16H25N2+
