Mass spectrum: Isoxaben; LC-ESI-QFT; MS2; CE: 90; R=35000; [M-H]-
Name: Isoxaben
Name: 2,6-dimethoxy-N-[3-(3-methylpentan-3-yl)-1,2-oxazol-5-yl]benzamide
Formula: C18H24N2O4
Exact mass: 332.17361
SMILES: CCC(C)(CC)C1=NOC(=C1)NC(=O)C2=C(C=CC=C2OC)OC
InChI: InChI=1S/C18H24N2O4/c1-6-18(3,7-2)14-11-15(24-20-14)19-17(21)16-12(22-4)9-8-10-13(16)23-5/h8-11H,6-7H2,1-5H3,(H,19,21)
Instrument: Q Exactive Plus Orbitrap Thermo Scientific
Instrument type: LC-ESI-QFT
Ms type: MS2
Ion mode: NEGATIVE
Ionization: ESI
Fragmentation mode: HCD
Collision energy: 90 (nominal)
Resolution: 35000
Column name: XBridge C18 3.5um, 2.1x50mm, Waters
Retention time: 10.6 min
Base peak: 331.1659
Precursor m/z: 331.1663
Precursor type: [M-H]-
m/z	relative intensity	assigned
64.0067	46	C3N2-
65.0033	7	C4HO-
65.0145	90	C3HN2-
65.9985	999	C3NO-
66.0349	119	C4H4N-
72.9932	35	C2HO3-
81.0346	10	C5H5O-
82.006	88	C4H2O2-
89.0271	18	C6H3N-
89.0396	13	C7H5-
91.0189	91	C6H3O-
92.0268	278	C6H4O-
93.0345	180	C6H5O-
94.006	9	C5H2O2-
95.0138	190	C5H3O2-
102.035	36	C7H4N-
105.022	129	C6H3NO-
105.0346	32	C7H5O-
108.0217	374	C6H4O2-
108.0819	56	C7H10N-
117.0221	151	C7H3NO-
117.0346	88	C8H5O-
118.0299	90	C7H4NO-
120.009	78	C6H2NO2-
121.0295	833	C7H5O2-
123.0089	16	C6H3O3-
123.0447	9	C7H7O2-
132.0092	32	C7H2NO2-
132.0216	8	C8H4O2-
133.0169	503	C7H3NO2-
133.0294	433	C8H5O2-
134.0248	101	C7H4NO2-
135.0088	17	C7H3O3-
146.0248	57	C8H4NO2-
147.0327	15	C8H5NO2-
148.0404	86	C8H6NO2-
161.0244	169	C9H5O3-
162.0199	15	C8H4NO3-
172.0275	8	C9H4N2O2-
173.0116	46	C9H3NO3-
