Mass spectrum: Tolclofos-methyl; LC-ESI-QFT; MS2; CE: 30%; R=15000; [M+H]+
Name: Tolclofos-methyl
Name: (2,6-dichloro-4-methylphenoxy)-dimethoxy-sulfanylidene-lambda5-phosphane
Formula: C9H11Cl2O3PS
Exact mass: 299.9543572
SMILES: COP(=S)(OC)OC1=C(Cl)C=C(C)C=C1Cl
InChI: InChI=1S/C9H11Cl2O3PS/c1-6-4-7(10)9(8(11)5-6)14-15(16,12-2)13-3/h4-5H,1-3H3
Instrument: Q Exactive Plus
Instrument type: LC-ESI-QFT
Ms type: MS2
Ion mode: POSITIVE
Ionization: ESI
Fragmentation mode: HCD
Collision energy: 30 % (nominal)
Resolution: 15000
Column name: XBridge C18 3.5um, 2.1x50mm, Waters
Retention time: 12.151 min
Base peak: 300.9617
Precursor m/z: 300.9616
Precursor type: [M+H]+
Precursor intensity: 57974677.45
m/z	relative intensity	assigned
78.9944	25	CH4O2P+
124.9821	194	C2H6O2PS+
127.0155	149	C3H8ClO3+
142.9927	999	C2H8O3PS+
174.9712	199	C7H5Cl2O+
186.9979	39	C8H8ClOS+
236.9096	11	C7H4Cl2OPS+
236.9538	10	C8H7Cl2O2S+
253.9114	38	C7H5Cl2O2PS+
268.9355	70	C8H8Cl2O2PS+
286.946	906	C8H10Cl2O3PS+
300.9615	189	C9H12Cl2O3PS+
