Mass spectrum: MCLY; LC-ESI-QFT; MS2; CE: 30%; R=17500; [M-H]-
Name: MCLY
Name: Microcystin LY
Name: (5R,8S,11R,12S,15S,18S,19S,22R)-15-[(4-hydroxyphenyl)methyl]-18-[(1E,3E,5S,6S)-6-methoxy-3,5-dimethyl-7-phenylhepta-1,3-dienyl]-1,5,12,19-tetramethyl-2-methylidene-8-(2-methylpropyl)-3,6,9,13,16,20,25-heptaoxo-1,4,7,10,14,17,21-heptazacyclopentacosane-11,22-dicarboxylic acid
Class: NA
Formula: C52H71N7O13
Exact mass: 1001.5110
SMILES: COC(Cc1ccccc1)C(C)\C=C(C)\C=C/C2NC(=O)C(Cc3ccc(O)cc3)NC(=O)C(C)C(NC(=O)C(CC(C)C)NC(=O)C(C)NC(=O)C(=C)N(C)C(=O)CCC(NC(=O)C2C)C(O)=O)C(O)=O
InChI: InChI=1S/C52H71N7O13/c1-28(2)24-40-50(67)58-44(52(70)71)32(6)46(63)56-41(26-36-17-19-37(60)20-18-36)49(66)54-38(21-16-29(3)25-30(4)42(72-10)27-35-14-12-11-13-15-35)31(5)45(62)55-39(51(68)69)22-23-43(61)59(9)34(8)48(65)53-33(7)47(64)57-40/h11-21,25,28,30-33,38-42,44,60H,8,22-24,26-27H2,1-7,9-10H3,(H,53,65)(H,54,66)(H,55,62)(H,56,63)(H,57,64)(H,58,67)(H,68,69)(H,70,71)/b21-16-,29-25+
Instrument: Q Exactive Plus Orbitrap Thermo Scientific
Instrument type: LC-ESI-QFT
Ms type: MS2
Ion mode: NEGATIVE
Ionization: ESI
Fragmentation mode: HCD
Collision energy: 30 % (nominal)
Resolution: 17500
Column name: XBridge C18 3.5um, 2.1x50mm, Waters
Retention time: 10.715 min
Base peak: 190.9277
Precursor m/z: 1000.5037
Precursor type: [M-H]-
m/z	relative intensity	assigned
99.0563	16	C4H7N2O-
100.04	6	C4H6NO2-
110.0248	78	C5H4NO2-
112.0403	16	C5H6NO2-
119.0503	19	C8H7O-
124.0404	46	C6H6NO2-
127.0514	16	C5H7N2O2-
128.0353	999	C5H6NO3-
129.1032	22	C6H13N2O-
130.0874	5	C6H12NO2-
139.0876	12	C7H11N2O-
153.0665	42	C7H9N2O2-
155.0825	21	C7H11N2O2-
162.056	24	C9H8NO2-
165.1025	34	C7H11N5-
170.0933	15	C7H12N3O2-
171.0769	5	C7H11N2O3-
181.0608	26	C6H7N5O2-
182.1289	14	C7H14N6-
183.1138	11	C9H15N2O2-
184.0611	37	C8H10NO4-
198.1242	8	C9H16N3O2-
200.1393	74	C7H16N6O-
205.0608	12	C8H7N5O2-
205.0966	11	C9H11N5O-
211.0718	33	C9H11N2O4-
212.1394	19	C8H16N6O-
222.1237	12	C9H14N6O-
226.1182	37	C8H14N6O2-
234.0105	5	C3H8NO11-
240.1342	53	C9H16N6O2-
255.0766	7	C12H9N5O2-
265.1656	201	C11H19N7O-
273.087	51	C12H11N5O3-
283.1761	361	C11H21N7O2-
284.1604	11	C11H20N6O3-
293.1608	16	C13H25O7-
308.1622	11	C15H22N3O4-
311.1721	112	C14H23N4O4-
313.1821	16	C8H29N2O10-
370.2036	15	C23H24N5-
394.2113	16	C6H32N7O12-
402.2097	10	C14H32N3O10-
412.2212	71	C20H32N2O7-
424.2136	29	C11H32N6O11-
432.2544	59	C28H34NO3-
468.2457	28	C35H32O-
475.2612	11	C30H31N6-
543.2856	16	C31H37N5O4-
586.2905	29	C32H38N6O5-
587.276	196	C34H39N2O7-
644.2998	29	C39H40N4O5-
698.3075	21	C37H42N6O8-
708.3978	42	C38H54N5O8-
725.4228	19	C37H61N2O12-
781.3475	75	C46H47N5O7-
881.4391	15	C52H59N5O8-
956.5159	21	C51H70N7O11-
982.4932	770	C52H68N7O12-
