Mass spectrum: Irbesartan; LC-ESI-ITFT; MS2; CE: 90%; R=7500; [M+H]+
Name: Irbesartan
Name: 8-butyl-7-[4-[2-(2H-tetrazol-5-yl)phenyl]benzyl]-7,9-diazaspiro[4.4]non-8-en-6-one
Formula: C25H28N6O
Exact mass: 428.2325
SMILES: C12(C(N(Cc3ccc(c4c(c5[nH]nnn5)cccc4)cc3)C(=N1)CCCC)=O)CCCC2
InChI: InChI=1S/C25H28N6O/c1-2-3-10-22-26-25(15-6-7-16-25)24(32)31(22)17-18-11-13-19(14-12-18)20-8-4-5-9-21(20)23-27-29-30-28-23/h4-5,8-9,11-14H,2-3,6-7,10,15-17H2,1H3,(H,27,28,29,30)
Instrument: LTQ Orbitrap XL Thermo Scientific
Instrument type: LC-ESI-ITFT
Ms type: MS2
Ion mode: POSITIVE
Ionization: ESI
Fragmentation mode: HCD
Collision energy: 90 % (nominal)
Resolution: 7500
Column name: XBridge C18 3.5um, 2.1x50mm, Waters
Retention time: 9.2 min
Base peak: 429.2411
Precursor m/z: 429.2397
Precursor type: [M+H]+
m/z	relative intensity	assigned
67.054	33	C5H7+
77.0385	55	C6H5+
79.0542	27	C6H7+
80.0494	48	C5H6N+
84.0808	272	C5H10N+
95.0493	15	C6H7O+
105.0444	21	C6H5N2+
115.0542	19	C9H7+
128.0494	13	C9H6N+
128.0623	9	C10H8+
129.0449	43	C8H5N2+
139.054	30	C11H7+
140.0496	93	C10H6N+
151.0543	155	C12H7+
152.0619	435	C12H8+
153.0698	190	C12H9+
154.0651	41	C11H8N+
155.0605	56	C10H7N2+
155.0857	11	C12H11+
163.0542	110	C13H7+
164.0497	32	C12H6N+
164.0615	11	C13H8+
165.0698	439	C13H9+
166.065	70	C12H8N+
166.0772	18	C13H10+
167.0728	94	C12H9N+
168.068	28	C11H8N2+
169.0647	38	C12H9O+
177.0572	108	C13H7N+
178.0649	192	C13H8N+
179.0726	319	C13H9N+
180.0807	614	C13H10N+
183.0681	15	C12H9NO+
189.0573	22	C14H7N+
190.0651	380	C14H8N+
192.0689	375	C13H8N2+
194.06	46	C13H8NO+
196.0759	30	C13H10NO+
205.0759	999	C14H9N2+
206.0838	242	C14H10N2+
207.091	93	C14H11N2+
