Mass spectrum: Flufenacet OXA; LC-ESI-ITFT; MS2; CE: 90%; R=30000; [M+H]+
Name: Flufenacet OXA
Name: [(4-Fluorophenyl)(isopropyl)amino](oxo)acetic acid
Formula: C11H12FNO3
Exact mass: 225.0801
SMILES: Fc1ccc(cc1)N(C(C)C)C(=O)C(O)=O
InChI: InChI=1S/C11H12FNO3/c1-7(2)13(10(14)11(15)16)9-5-3-8(12)4-6-9/h3-7H,1-2H3,(H,15,16)
Instrument: LTQ Orbitrap XL Thermo Scientific
Instrument type: LC-ESI-ITFT
Ms type: MS2
Ion mode: POSITIVE
Ionization: ESI
Fragmentation mode: HCD
Collision energy: 90 % (nominal)
Resolution: 30000
Column name: XBridge C18 3.5um, 2.1x50mm, Waters
Retention time: 6.2 min
Base peak: 226.0871
Precursor m/z: 226.0874
Precursor type: [M+H]+
m/z	relative intensity	assigned
57.0134	1	C3H2F+
75.023	2	C6H3+
83.0292	119	C5H4F+
95.0292	8	C6H4F+
110.0401	999	C6H5FN+
111.0481	3	C6H6FN+
112.0557	1	C6H7FN+
113.0398	4	C6H6FO+
122.04	2	C7H5FN+
123.0353	91	C6H4FN2+
138.035	21	C7H5FNO+
