Mass spectrum: Metosulam; LC-ESI-QFT; MS2; CE: 90; R=35000; [M+H]+
Name: Metosulam
Name: N-(2,6-dichloro-3-methyl-phenyl)-5,7-dimethoxy-[1,2,4]triazolo[1,5-a]pyrimidine-2-sulfonamide
Formula: C14H13Cl2N5O4S
Exact mass: 417.00653
SMILES: Clc1c(ccc(Cl)c1NS(=O)(=O)c2nc3nc(OC)cc(OC)n3n2)C
InChI: InChI=1S/C14H13Cl2N5O4S/c1-7-4-5-8(15)12(11(7)16)20-26(22,23)14-18-13-17-9(24-2)6-10(25-3)21(13)19-14/h4-6,20H,1-3H3
Instrument: Q Exactive Orbitrap Thermo Scientific
Instrument type: LC-ESI-QFT
Ms type: MS2
Ion mode: POSITIVE
Ionization: ESI
Fragmentation mode: HCD
Collision energy: 90 (nominal)
Resolution: 35000
Column name: XBridge C18 3.5um, 2.1x50mm, Waters
Retention time: 7.6 min
Base peak: 418.0141
Precursor m/z: 418.0138
Precursor type: [M+H]+
m/z	relative intensity	assigned
61.9793	4	CHClN+
67.0291	7	C3H3N2+
68.0132	6	C3H2NO+
68.0244	6	C2H2N3+
68.9972	3	C3HO2+
69.0447	3	C3H5N2+
70.0288	7	C3H4NO+
75.0229	9	C6H3+
77.0386	19	C6H5+
78.0339	2	C5H4N+
78.0465	2	C6H6+
79.0543	3	C6H7+
81.0447	11	C4H5N2+
82.0287	3	C4H4NO+
82.04	21	C3H4N3+
83.024	5	C3H3N2O+
86.9996	2	C4H4Cl+
90.0339	4	C6H4N+
93.0574	1	C6H7N+
94.0036	17	C3N3O+
95.024	3	C4H3N2O+
95.0492	33	C6H7O+
96.0444	5	C5H6NO+
96.0557	4	C4H6N3+
98.0237	2	C4H4NO2+
98.9996	4	C5H4Cl+
102.0338	6	C7H4N+
103.0417	2	C7H5N+
104.0495	132	C7H6N+
105.0448	24	C6H5N2+
105.0573	42	C7H7N+
109.0396	10	C5H5N2O+
110.9996	4	C6H4Cl+
112.0075	12	C6H5Cl+
113.0153	99	C6H6Cl+
114.0105	2	C5H5ClN+
120.0444	3	C7H6NO+
122.9996	8	C7H4Cl+
123.0188	1	C5H3N2O2+
126.0105	2	C6H5ClN+
127.0183	12	C6H6ClN+
127.0503	2	C5H7N2O2+
128.0261	1	C6H7ClN+
129.0102	6	C6H6ClO+
130.04	8	C7H4N3+
131.0603	1	C8H7N2+
137.0346	3	C6H5N2O2+
138.0106	25	C7H5ClN+
139.0059	21	C3H7O4S+
139.0184	12	C7H6ClN+
140.0262	999	C7H7ClN+
146.9762	8	C6H5Cl2+
147.055	2	C8H7N2O+
153.0215	2	C7H6ClN2+
155.0451	1	C6H7N2O3+
157.9686	2	C7H4Cl2+
171.0666	2	C9H7N4+
173.9872	132	C7H6Cl2N+
174.995	161	C7H7Cl2N+
179.0564	5	C7H7N4O2+
189.9821	1	C7H6Cl2NO+
205.0278	4	C6H9N2O4S+
