Mass spectrum: Spiramycin; LC-ESI-QFT; MS2; CE: 45; R=35000; [M+H]+
Name: Spiramycin
Name: 2-[(4R,5S,6S,7R,9R,10R,16R)-6-[4-(dimethylamino)-5-[4,6-dimethyl-4,5-bis(oxidanyl)oxan-2-yl]oxy-6-methyl-3-oxidanyl-oxan-2-yl]oxy-10-[5-(dimethylamino)-6-methyl-oxan-2-yl]oxy-5-methoxy-9,16-dimethyl-4-oxidanyl-2-oxidanylidene-1-oxacyclohexadeca-11,13-dien-7-yl]ethanal
Formula: C43H74N2O14
Exact mass: 842.51400
SMILES: O=CC[C@@H]4[C@H](OC2OC(C(OC1OC(C)C(O)C(O)(C)C1)C(N(C)C)C2O)C)[C@@H](OC)[C@H](O)CC(=O)O[C@H](C)C\C=C\C=C\[C@H](OC3OC(C)C(N(C)C)CC3)[C@H](C)C4
InChI: InChI=1S/C43H74N2O14/c1-24-21-29(19-20-46)39(59-42-37(49)36(45(9)10)38(27(4)56-42)58-35-23-43(6,51)41(50)28(5)55-35)40(52-11)31(47)22-33(48)53-25(2)15-13-12-14-16-32(24)57-34-18-17-30(44(7)8)26(3)54-34/h12-14,16,20,24-32,34-42,47,49-51H,15,17-19,21-23H2,1-11H3/b13-12+,16-14+/t24-,25-,26?,27?,28?,29+,30?,31-,32+,34?,35?,36?,37?,38?,39+,40+,41?,42?,43?/m1/s1
Instrument: Q Exactive Orbitrap Thermo Scientific
Instrument type: LC-ESI-QFT
Ms type: MS2
Ion mode: POSITIVE
Ionization: ESI
Fragmentation mode: HCD
Collision energy: 45 (nominal)
Resolution: 35000
Column name: XBridge C18 3.5um, 2.1x50mm, Waters
Retention time: 5.7 min
Base peak: 438.2777
Precursor m/z: 843.5213
Precursor type: [M+H]+
m/z	relative intensity	assigned
59.0492	45	C3H7O+
69.0334	17	C4H5O+
70.065	29	C4H8N+
71.0491	11	C4H7O+
72.0444	10	C3H6NO+
72.0807	37	C4H10N+
73.0522	99	C3H7NO+
73.0647	20	C4H9O+
74.0964	1	C4H12N+
79.0542	23	C6H7+
81.0699	47	C6H9+
83.0491	999	C5H7O+
84.0807	84	C5H10N+
85.0284	64	C4H5O2+
85.0647	15	C5H9O+
86.06	29	C4H8NO+
87.044	105	C4H7O2+
88.0756	741	C4H10NO+
95.049	3	C6H7O+
95.0854	2	C7H11+
97.0648	55	C6H9O+
98.0964	403	C6H12N+
99.0804	37	C6H11O+
100.0757	121	C5H10NO+
101.0597	506	C5H9O2+
102.0912	4	C5H12NO+
105.0698	9	C8H9+
107.0856	4	C8H11+
109.0648	23	C7H9O+
111.044	8	C6H7O2+
112.0757	28	C6H10NO+
113.0596	5	C6H9O2+
114.0913	142	C6H12NO+
115.0991	97	C6H13NO+
116.0705	304	C5H10NO2+
116.1068	20	C6H14NO+
119.0855	2	C9H11+
124.1122	3	C8H14N+
126.0914	30	C7H12NO+
127.0753	94	C7H11O2+
128.1068	10	C7H14NO+
130.0864	17	C6H12NO2+
131.0855	3	C10H11+
132.1019	80	C6H14NO2+
133.1014	2	C10H13+
142.1227	303	C8H16NO+
143.0855	2	C11H11+
144.1018	4	C7H14NO2+
145.0859	40	C7H13O3+
145.1012	2	C11H13+
147.1172	2	C11H15+
156.1019	175	C8H14NO2+
157.1011	3	C12H13+
158.1177	7	C8H16NO2+
159.1164	2	C12H15+
160.1329	3	C8H18NO2+
169.101	2	C13H13+
172.0968	7	C8H14NO3+
174.1124	695	C8H16NO3+
185.132	2	C14H17+
214.1437	7	C11H20NO3+
232.1547	3	C11H22NO4+
