Mass spectrum: Rifaximin; LC-ESI-QFT; MS2; CE: 180; R=35000; [M-H]-
Name: Rifaximin
Name: (7S,9E,11S,12R,13S,14R,15R,16R,17S,18S,19E,21Z)-2,15,17,36-Tetrahydroxy-11-methoxy-3,7,12,14,16,18,22,30-octamethyl-6,23-dioxo-8,37-dioxa-24,27,33-triazahexacyclo[23.10.1.14,7.05,35.026,34.027, 32]heptatriaconta-1(35),2,4,9,19,21,25(36),26(34),28,30,32-undecaen-13-yl acetate
Formula: C43H51N3O11
Exact mass: 785.35236
SMILES: CC1C=CC=C(C(=O)NC2=C(C3=C(C4=C(C(=C3O)C)OC(C4=O)(OC=CC(C(C(C(C(C(C1O)C)O)C)OC(=O)C)C)OC)C)C5=C2N6C=CC(=CC6=N5)C)O)C
InChI: InChI=1S/C43H51N3O11/c1-19-14-16-46-28(18-19)44-32-29-30-37(50)25(7)40-31(29)41(52)43(9,57-40)55-17-15-27(54-10)22(4)39(56-26(8)47)24(6)36(49)23(5)35(48)20(2)12-11-13-21(3)42(53)45-33(34(32)46)38(30)51/h11-18,20,22-24,27,35-36,39,48-51H,1-10H3,(H,45,53)
Instrument: Q Exactive Plus Orbitrap Thermo Scientific
Instrument type: LC-ESI-QFT
Ms type: MS2
Ion mode: NEGATIVE
Ionization: ESI
Fragmentation mode: HCD
Collision energy: 180 (nominal)
Resolution: 35000
Column name: XBridge C18 3.5um, 2.1x50mm, Waters
Retention time: 10.9 min
Base peak: 784.3448
Precursor m/z: 784.3451
Precursor type: [M-H]-
m/z	relative intensity	assigned
55.0188	231	C3H3O-
59.0138	999	C2H3O2-
63.024	36	C5H3-
64.0067	424	C3N2-
65.0145	295	C3HN2-
65.0395	53	C5H5-
65.9985	982	C3NO-
68.9983	37	C3HO2-
71.0139	185	C3H3O2-
74.0038	58	C5N-
79.0189	40	C5H3O-
89.0145	54	C5HN2-
90.0348	43	C6H4N-
104.0504	180	C7H6N-
105.0455	58	C6H5N2-
107.0616	49	C6H7N2-
108.0455	84	C6H6NO-
114.0349	211	C8H4N-
115.0301	190	C7H3N2-
118.03	46	C7H4NO-
121.0658	53	C8H9O-
128.0505	41	C9H6N-
129.0462	60	C8H5N2-
139.0302	181	C9H3N2-
141.046	209	C9H5N2-
142.0298	63	C9H4NO-
144.0454	50	C9H6NO-
155.0377	65	C10H5NO-
155.0614	150	C10H7N2-
156.0454	46	C10H6NO-
156.0567	308	C9H6N3-
157.0403	49	C9H5N2O-
168.0453	44	C11H6NO-
169.0406	209	C10H5N2O-
170.0244	47	C10H4NO2-
180.0329	49	C11H4N2O-
180.0565	167	C11H6N3-
184.0403	69	C11H6NO2-
191.0613	56	C13H7N2-
193.0405	73	C12H5N2O-
196.0404	60	C12H6NO2-
200.0352	69	C11H6NO3-
205.0772	143	C14H9N2-
206.0476	43	C13H6N2O-
207.0561	36	C13H7N2O-
209.0356	70	C12H5N2O2-
216.0561	40	C14H6N3-
218.0722	38	C14H8N3-
219.0563	67	C14H7N2O-
219.0805	38	C14H9N3-
230.0724	60	C15H8N3-
231.0805	52	C15H9N3-
232.0639	56	C15H8N2O-
232.0877	70	C15H10N3-
233.0718	84	C15H9N2O-
237.0302	47	C13H5N2O3-
244.088	58	C16H10N3-
246.0667	79	C15H8N3O-
246.0795	53	C16H10N2O-
247.0874	80	C16H11N2O-
249.0667	73	C15H9N2O2-
258.0673	70	C16H8N3O-
259.0753	71	C16H9N3O-
259.088	37	C17H11N2O-
260.0823	64	C16H10N3O-
271.0751	49	C17H9N3O-
272.0827	54	C17H10N3O-
275.0831	45	C17H11N2O2-
285.0915	44	C18H11N3O-
287.0699	82	C17H9N3O2-
