Mass spectrum: Triflusulfuron-methyl; LC-ESI-QFT; MS2; CE: 75; R=35000; [M+H]+
Name: Triflusulfuron-methyl
Name: 2-[[4-(dimethylamino)-6-(2,2,2-trifluoroethoxy)-s-triazin-2-yl]carbamoylsulfamoyl]-3-methyl-benzoic acid methyl ester
Formula: C17H19F3N6O6S
Exact mass: 492.10389
SMILES: O=C(OC)c1cccc(c1S(=O)(=O)NC(=O)Nc2nc(nc(OCC(F)(F)F)n2)N(C)C)C
InChI: InChI=1S/C17H19F3N6O6S/c1-9-6-5-7-10(12(27)31-4)11(9)33(29,30)25-15(28)22-13-21-14(26(2)3)24-16(23-13)32-8-17(18,19)20/h5-7H,8H2,1-4H3,(H2,21,22,23,24,25,28)
Instrument: Q Exactive Orbitrap Thermo Scientific
Instrument type: LC-ESI-QFT
Ms type: MS2
Ion mode: POSITIVE
Ionization: ESI
Fragmentation mode: HCD
Collision energy: 75 (nominal)
Resolution: 35000
Column name: XBridge C18 3.5um, 2.1x50mm, Waters
Retention time: 10.8 min
Base peak: 493.1108
Precursor m/z: 493.1112
Precursor type: [M+H]+
m/z	relative intensity	assigned
55.0293	3	C2H3N2+
56.0496	1	C3H6N+
60.0245	1	C2H3FN+
65.0386	6	C5H5+
67.0291	5	C3H3N2+
69.0083	28	C2HN2O+
69.0447	12	C3H5N2+
71.0603	213	C3H7N2+
72.0443	4	C3H6NO+
78.0463	1	C6H6+
79.0542	2	C6H7+
80.0242	4	C3H2N3+
81.0321	10	C3H3N3+
91.0541	63	C7H7+
93.0333	4	CH4FN3O+
93.0699	2	C7H9+
95.0491	3	C6H7O+
96.0555	999	C4H6N3+
98.0348	2	C3H4N3O+
105.0335	2	C7H5O+
106.0098	8	C3H2F2NO+
106.0413	7	C7H6O+
106.065	2	C7H8N+
108.0055	4	C3HF3N+
112.014	2	C3H2N3O2+
114.0661	4	C4H8N3O+
119.0492	2	C8H7O+
131.0051	1	C4HF2N2O+
134.036	4	C3H5FN3O2+
134.0598	1	C3H7FN4O+
138.0772	4	C5H8N5+
139.0615	2	C5H7N4O+
140.0453	1	FH5N6O2+
149.0596	12	C4H8FN3O2+
151.0112	46	C3H5NO6+
152.0326	4	C5H4N4O2+
153.0636	5	C5H8F3N2+
166.0358	9	C5H4N5O2+
168.0377	3	C3H8N2O6+
176.0628	37	CH7F3N6O+
182.0672	6	C6H8N5O2+
194.0736	2	C6H10F2N3O2+
238.0909	3	C6H14N4O6+
239.0748	2	C9H16FO4S+
264.0701	59	C10H15FNO4S+
