Mass spectrum: Benproperine; LC-ESI-QFT; MS2; CE: 60; R=35000; [M+H]+
Name: Benproperine
Name: 1-[1-(2-benzylphenoxy)propan-2-yl]piperidine
Formula: C21H27NO
Exact mass: 309.20926
SMILES: CC(COC1=CC=CC=C1CC2=CC=CC=C2)N3CCCCC3
InChI: InChI=1S/C21H27NO/c1-18(22-14-8-3-9-15-22)17-23-21-13-7-6-12-20(21)16-19-10-4-2-5-11-19/h2,4-7,10-13,18H,3,8-9,14-17H2,1H3
Instrument: Q Exactive Orbitrap Thermo Scientific
Instrument type: LC-ESI-QFT
Ms type: MS2
Ion mode: POSITIVE
Ionization: ESI
Fragmentation mode: HCD
Collision energy: 60 (nominal)
Resolution: 35000
Column name: XBridge C18 3.5um, 2.1x50mm, Waters
Retention time: 8.8 min
Base peak: 310.2167
Precursor m/z: 310.2165
Precursor type: [M+H]+
m/z	relative intensity	assigned
56.0495	1	C3H6N+
58.0652	63	C3H8N+
65.0386	5	C5H5+
67.0542	11	C5H7+
69.0699	123	C5H9+
70.0651	93	C4H8N+
72.0807	33	C4H10N+
77.0384	1	C6H5+
79.0543	11	C6H7+
82.065	2	C5H8N+
84.0808	553	C5H10N+
85.0886	206	C5H11N+
86.0964	283	C5H12N+
91.0542	885	C7H7+
95.0491	4	C6H7O+
96.0808	13	C6H10N+
97.0885	1	C6H11N+
98.0964	44	C6H12N+
105.0447	1	C6H5N2+
105.0698	1	C8H9+
107.0491	158	C7H7O+
110.0965	1	C7H12N+
111.1042	12	C7H13N+
112.1121	20	C7H14N+
115.0542	1	C9H7+
116.0619	1	C9H8+
117.0698	2	C9H9+
119.0491	4	C8H7O+
119.0855	69	C9H11+
124.1121	39	C8H14N+
126.1277	999	C8H16N+
129.0699	10	C10H9+
131.0856	19	C10H11+
132.0566	1	C9H8O+
141.0699	7	C11H9+
147.0805	28	C10H11O+
152.0621	11	C12H8+
153.0698	14	C12H9+
154.0777	2	C12H10+
155.0855	45	C12H11+
165.0699	69	C13H9+
166.0777	4	C13H10+
167.0854	6	C13H11+
168.0572	3	C12H8O+
176.107	3	C11H14NO+
177.1149	1	C11H15NO+
181.0647	9	C13H9O+
182.0731	1	C13H10O+
183.0805	89	C13H11O+
193.0761	14	C13H9N2+
310.2165	15	C21H28NO+
