Mass spectrum: Atenolol; LC-ESI-ITFT; MS2; CE: 30%; R=15000; [M+H]+
Name: Atenolol
Name: 2-[4-[2-hydroxy-3-(isopropylamino)propoxy]phenyl]acetamide
Formula: C14H22N2O3
Exact mass: 266.1630
SMILES: CC(C)NCC(O)COc1ccc(cc1)CC(N)=O
InChI: InChI=1S/C14H22N2O3/c1-10(2)16-8-12(17)9-19-13-5-3-11(4-6-13)7-14(15)18/h3-6,10,12,16-17H,7-9H2,1-2H3,(H2,15,18)
Instrument: LTQ Orbitrap XL Thermo Scientific
Instrument type: LC-ESI-ITFT
Ms type: MS2
Ion mode: POSITIVE
Ionization: ESI
Fragmentation mode: HCD
Collision energy: 30 % (nominal)
Resolution: 15000
Column name: XBridge C18 3.5um, 2.1x50mm, Waters
Retention time: 2.0 min
Base peak: 267.171
Precursor m/z: 267.1703
Precursor type: [M+H]+
m/z	relative intensity	assigned
56.0495	2	C3H6N+
72.0808	4	C4H10N+
74.0601	10	C3H8NO+
98.0964	8	C6H12N+
116.107	24	C6H14NO+
145.0648	6	C10H9O+
162.0913	4	C10H12NO+
164.0707	2	C9H10NO2+
173.06	2	C11H9O2+
178.0862	5	C10H12NO2+
190.0862	46	C11H12NO2+
204.138	1	C13H18NO+
207.1121	2	C11H15N2O2+
208.0967	11	C11H14NO3+
225.1234	62	C11H17N2O3+
249.1596	10	C14H21N2O2+
250.1439	1	C14H20NO3+
267.1706	999	C14H23N2O3+
