Mass spectrum: Theophyline; LC-ESI-QFT; MS2; CE: 180; R=35000; [M+H]+
Name: Theophyline
Name: Theophylline
Name: 1,3-dimethyl-7H-purine-2,6-dione
Formula: C7H8N4O2
Exact mass: 180.06473
SMILES: CN1C2=C(C(=O)N(C1=O)C)NC=N2
InChI: InChI=1S/C7H8N4O2/c1-10-5-4(8-3-9-5)6(12)11(2)7(10)13/h3H,1-2H3,(H,8,9)
Instrument: Q Exactive Plus Orbitrap Thermo Scientific
Instrument type: LC-ESI-QFT
Ms type: MS2
Ion mode: POSITIVE
Ionization: ESI
Fragmentation mode: HCD
Collision energy: 180 (nominal)
Resolution: 35000
Column name: XBridge C18 3.5um, 2.1x50mm, Waters
Retention time: 3.2 min
Base peak: 181.0717
Precursor m/z: 181.072
Precursor type: [M+H]+
m/z	relative intensity	assigned
52.0183	119	C3H2N+
53.0134	32	C2HN2+
54.0213	965	C2H2N2+
54.0339	59	C3H4N+
55.0291	265	C2H3N2+
56.0369	14	C2H4N2+
57.0448	136	C2H5N2+
65.0135	16	C3HN2+
66.0213	120	C3H2N2+
67.0291	387	C3H3N2+
68.0132	67	C3H2NO+
68.0369	171	C3H4N2+
69.0448	999	C3H5N2+
80.0132	11	C4H2NO+
81.0084	74	C3HN2O+
81.0448	19	C4H5N2+
82.0162	68	C3H2N2O+
94.0401	87	C4H4N3+
95.0242	18	C4H3N2O+
109.0272	118	C4H3N3O+
121.0509	11	C5H5N4+
