Mass spectrum: Fluxapyroxad (BAS 700 F)-TP CSAA798670; LC-ESI-QFT; MS2; CE: 30%; R=17500; [M+H]+
Name: Fluxapyroxad (BAS 700 F)-TP CSAA798670
Name: 3-(Difluoromethyl)-1-methyl-1H-pyrazole-4-carboxylic acid
Name: 3-(difluoromethyl)-1-methylpyrazole-4-carboxylic acid
Formula: C6H6F2N2O2
Exact mass: 176.0397
SMILES: CN1C=C(C(O)=O)C(=N1)C(F)F
InChI: InChI=1S/C6H6F2N2O2/c1-10-2-3(6(11)12)4(9-10)5(7)8/h2,5H,1H3,(H,11,12)
Instrument: Q Exactive Plus Orbitrap Thermo Scientific
Instrument type: LC-ESI-QFT
Ms type: MS2
Ion mode: POSITIVE
Ionization: ESI
Fragmentation mode: HCD
Collision energy: 30 % (nominal)
Resolution: 17500
Column name: XBridge C18 3.5um, 2.1x50mm, Waters
Retention time: 2.916 min
Base peak: 177.047
Precursor m/z: 177.047
Precursor type: [M+H]+
m/z	relative intensity	assigned
109.0394	1	C5H5N2O+
113.0508	3	C5H6FN2+
137.0346	999	C6H5N2O2+
155.0451	175	
157.0408	57	C6H6FN2O2+
169.0608	3	
177.047	556	C6H7F2N2O2+
