Mass spectrum: 3,4-Methylenedioxy-N-methylamphetamine (MDMA); LC-ESI-QFT; MS2; CE: 45; R=35000; [M+H]+
Name: 3,4-Methylenedioxy-N-methylamphetamine (MDMA)
Name: N-Methyl-3,4-methylenedioxyamphetamine
Name: 1-(1,3-benzodioxol-5-yl)-N-methylpropan-2-amine
Formula: C11H15NO2
Exact mass: 193.11028
SMILES: CC(CC1=CC2=C(C=C1)OCO2)NC
InChI: InChI=1S/C11H15NO2/c1-8(12-2)5-9-3-4-10-11(6-9)14-7-13-10/h3-4,6,8,12H,5,7H2,1-2H3
Instrument: Q Exactive Plus Orbitrap Thermo Scientific
Instrument type: LC-ESI-QFT
Ms type: MS2
Ion mode: POSITIVE
Ionization: ESI
Fragmentation mode: HCD
Collision energy: 45 (nominal)
Resolution: 35000
Column name: XBridge C18 3.5um, 2.1x50mm, Waters
Retention time: 3.6 min
Base peak: 194.117
Precursor m/z: 194.1176
Precursor type: [M+H]+
m/z	relative intensity	assigned
51.0228	1	C4H3+
55.0177	3	C3H3O+
58.0651	93	C3H8N+
65.0384	1	C5H5+
79.0541	5	C6H7+
91.0541	1	C7H7+
103.0541	3	C8H7+
105.0698	329	C8H9+
107.049	1	C7H7O+
115.0541	1	C9H7+
121.0281	3	C7H5O2+
122.0361	5	C7H6O2+
133.0647	490	C9H9O+
135.0439	463	C8H7O2+
137.0595	1	C8H9O2+
145.0648	1	C10H9O+
148.0515	1	C9H8O2+
151.0753	12	C9H11O2+
163.0752	999	C10H11O2+
194.1174	12	C11H16NO2+
