Mass spectrum: Sulfentrazon; LC-ESI-QFT; MS2; CE: 30; R=35000; [M-H]-
Name: Sulfentrazon
Name: N-(2,4-dichloro-5-(4-(difluoromethyl)-4,5-dihydro-3-methyl-5-oxo-1H-1,2,4-triazol-1-yl)phenyl)methanesulfonamide
Name: N-[2,4-dichloro-5-[4-(difluoromethyl)-3-methyl-5-oxo-1,2,4-triazol-1-yl]phenyl]methanesulfonamide
Formula: C11H10Cl2F2N4O3S
Exact mass: 385.98187
SMILES: O=S(=O)(Nc2c(Cl)cc(Cl)c(N1/N=C(\N(C1=O)C(F)F)C)c2)C
InChI: InChI=1S/C11H10Cl2F2N4O3S/c1-5-16-19(11(20)18(5)10(14)15)9-4-8(17-23(2,21)22)6(12)3-7(9)13/h3-4,10,17H,1-2H3
Instrument: Q Exactive Plus Orbitrap Thermo Scientific
Instrument type: LC-ESI-QFT
Ms type: MS2
Ion mode: NEGATIVE
Ionization: ESI
Fragmentation mode: HCD
Collision energy: 30 (nominal)
Resolution: 35000
Column name: XBridge C18 3.5um, 2.1x50mm, Waters
Retention time: 7.5 min
Base peak: 384.9745
Precursor m/z: 384.9746
Precursor type: [M-H]-
m/z	relative intensity	assigned
63.9625	10	O2S-
76.9704	13	CHO2S-
171.9601	1	C6H2Cl2N2-
198.947	4	C7HCl2N2O-
199.9549	1	C7H2Cl2N2O-
225.9581	2	C8H2Cl2N3O-
299.0014	5	C10H8ClN4O3S-
301.0316	2	C11H8ClF2N4O2-
305.9894	116	C10H6Cl2F2N4O-
306.9973	508	C10H7Cl2F2N4O-
334.9781	40	C10H9Cl2N4O3S-
364.9684	9	C11H8Cl2FN4O3S-
384.9748	999	C11H9Cl2F2N4O3S-
