Mass spectrum: Brodifacoum; LC-ESI-QFT; MS2; CE: 45%; R=17500; [M+H]+
Name: Brodifacoum
Name: 3-[3-[4-(4-bromophenyl)phenyl]-1,2,3,4-tetrahydronaphthalen-1-yl]-4-hydroxychromen-2-one
Formula: C31H23BrO3
Exact mass: 522.0831
SMILES: C1C(CC2=CC=CC=C2C1C3=C(C4=CC=CC=C4OC3=O)O)C5=CC=C(C=C5)C6=CC=C(C=C6)Br
InChI: InChI=1S/C31H23BrO3/c32-24-15-13-20(14-16-24)19-9-11-21(12-10-19)23-17-22-5-1-2-6-25(22)27(18-23)29-30(33)26-7-3-4-8-28(26)35-31(29)34/h1-16,23,27,33H,17-18H2
Instrument: Exploris 240 Orbitrap Thermo Scientific
Instrument type: LC-ESI-QFT
Ms type: MS2
Ion mode: POSITIVE
Ionization: ESI
Fragmentation mode: HCD
Collision energy: 45 % (nominal)
Resolution: 17500
Column name: XBridge C18 3.5um, 2.1x50mm, Waters
Retention time: 16.530 min
Base peak: 523.0906
Precursor m/z: 523.0903
Precursor type: [M+H]+
m/z	relative intensity	assigned
91.0542	118	C7H7+
103.0542	15	C8H7+
107.0491	27	C7H7O+
117.0693	17	C9H9+
121.0282	25	C7H5O2+
129.0699	35	C10H9+
143.0489	7	C10H7O+
163.0392	25	C9H7O3+
165.0699	514	C13H9+
168.9647	11	C7H6Br+
171.0804	22	C12H11O+
175.039	425	C10H7O3+
178.0777	999	C14H10+
179.0852	47	C14H11+
189.0546	154	C11H9O3+
228.0937	4	C18H12+
241.1009	54	C19H13+
242.9806	154	C13H8Br+
244.9962	35	C13H10Br+
255.1169	87	C20H15+
256.1247	986	C20H16+
256.9957	42	C14H10Br+
335.0431	182	C20H16Br+
419.0266	7	C23H16BrO3+
