Mass spectrum: Ethiprole; LC-ESI-QFT; MS2; CE: 120%; R=17500; [M-H]-
Name: Ethiprole
Name: 5-amino-1-[2,6-dichloro-4-(trifluoromethyl)phenyl]-4-ethylsulfinylpyrazole-3-carbonitrile
Formula: C13H9Cl2F3N4OS
Exact mass: 395.9826
SMILES: CCS(=O)C1=C(N(N=C1C#N)C2=C(C=C(C=C2Cl)C(F)(F)F)Cl)N
InChI: InChI=1S/C13H9Cl2F3N4OS/c1-2-24(23)11-9(5-19)21-22(12(11)20)10-7(14)3-6(4-8(10)15)13(16,17)18/h3-4H,2,20H2,1H3
Instrument: Exploris 240 Orbitrap Thermo Scientific
Instrument type: LC-ESI-QFT
Ms type: MS2
Ion mode: NEGATIVE
Ionization: ESI
Fragmentation mode: HCD
Collision energy: 120 % (nominal)
Resolution: 17500
Column name: XBridge C18 3.5um, 2.1x50mm, Waters
Retention time: 8.805 min
Base peak: 394.9752
Precursor m/z: 394.9753
Precursor type: [M-H]-
m/z	relative intensity	assigned
50.0036	159	C3N-
57.9756	765	CNS-
74.0037	71	C5N-
81.9758	94	C3NS-
86.0037	135	C6N-
88.0004	151	C3F2N-
90.0098	62	C4N3-
98.0035	221	C7N-
111.9998	314	C2H7ClNS-
113.0145	501	C7HN2-
143.0051	999	C2H8ClN2OS-
163.0112	307	C8HF2N2-
183.0179	95	C8H2F3N2-
