Mass spectrum: Valsartan acid; LC-ESI-QFT; MS2; CE: 75; R=35000; [M+H]+
Name: Valsartan acid
Name: 4-[2-(2H-1,2,3,4-tetrazol-5-yl)phenyl]benzoic acid
Formula: C14H10N4O2
Exact mass: 266.08038
SMILES: C1=CC=C(C(=C1)C2=CC=C(C=C2)C(=O)O)C3=NNN=N3
InChI: InChI=1S/C14H10N4O2/c19-14(20)10-7-5-9(6-8-10)11-3-1-2-4-12(11)13-15-17-18-16-13/h1-8H,(H,19,20)(H,15,16,17,18)
Instrument: Q Exactive Plus Orbitrap Thermo Scientific
Instrument type: LC-ESI-QFT
Ms type: MS2
Ion mode: POSITIVE
Ionization: ESI
Fragmentation mode: HCD
Collision energy: 75 (nominal)
Resolution: 35000
Column name: XBridge C18 3.5um, 2.1x50mm, Waters
Retention time: 6.8 min
Base peak: 267.0873
Precursor m/z: 267.0877
Precursor type: [M+H]+
m/z	relative intensity	assigned
51.0229	1	C4H3+
53.0385	3	C4H5+
77.0384	10	C6H5+
95.0491	15	C6H7O+
105.0447	8	C6H5N2+
115.0542	3	C9H7+
127.0542	8	C10H7+
139.0542	41	C11H7+
140.0494	18	C10H6N+
141.0698	1	C11H9+
145.0648	9	C10H9O+
150.0459	4	C12H6+
151.0542	259	C12H7+
152.0496	1	C11H6N+
152.062	15	C12H8+
153.0698	10	C12H9+
154.0652	1	C11H8N+
155.0493	7	C11H7O+
155.0603	15	C10H7N2+
164.0618	2	C13H8+
165.0573	3	C12H7N+
165.0699	5	C13H9+
166.0651	46	C12H8N+
167.0729	3	C12H9N+
168.0568	2	C12H8O+
168.0807	2	C12H10N+
169.0648	525	C12H9O+
170.06	11	C11H8NO+
176.0496	3	C13H6N+
177.0573	238	C13H7N+
178.065	999	C13H8N+
179.0603	310	C12H7N2+
180.0806	95	C13H10N+
183.0802	4	C13H11O+
184.0756	4	C12H10NO+
191.0604	5	C13H7N2+
192.0681	57	C13H8N2+
193.0759	5	C13H9N2+
194.06	11	C13H8NO+
194.0839	2	C13H10N2+
196.0757	280	C13H10NO+
204.0557	13	C13H6N3+
206.06	238	C14H8NO+
206.0711	77	C13H8N3+
224.0703	2	C14H10NO2+
