Mass spectrum: Metamitron; LC-ESI-ITFT; MS2; CE: 60%; R=7500; [M+H]+
Name: Metamitron
Name: 4-Amino-4,5-dihydro-3-methyl-6-phenyl-1,2,4-triazin-5-one
Name: 4-amino-3-methyl-6-phenyl-1,2,4-triazin-5-one
Formula: C10H10N4O
Exact mass: 202.0860
SMILES: c(ccc1C(=NN=C2C)C(=O)N2N)cc1
InChI: InChI=1S/C10H10N4O/c1-7-12-13-9(10(15)14(7)11)8-5-3-2-4-6-8/h2-6H,11H2,1H3
Instrument: LTQ Orbitrap XL Thermo Scientific
Instrument type: LC-ESI-ITFT
Ms type: MS2
Ion mode: POSITIVE
Ionization: ESI
Fragmentation mode: HCD
Collision energy: 60 % (nominal)
Resolution: 7500
Column name: XBridge C18 3.5um, 2.1x50mm, Waters
Retention time: 4.9 min
Base peak: 203.093
Precursor m/z: 203.0927
Precursor type: [M+H]+
m/z	relative intensity	assigned
57.0447	38	C2H5N2+
72.0443	11	C3H6NO+
72.0558	18	C2H6N3+
77.0386	34	C6H5+
79.0543	60	C6H7+
83.0241	27	C3H3N2O+
89.0386	30	C7H5+
91.0542	5	C7H7+
92.0495	21	C6H6N+
93.0574	5	C6H7N+
100.0501	6	C3H6N3O+
103.0542	5	C8H7+
104.0495	338	C7H6N+
105.0449	10	C6H5N2+
105.0572	29	C7H7N+
106.0652	74	C7H8N+
107.0603	8	C6H7N2+
116.0499	5	C8H6N+
117.0445	12	C7H5N2+
118.0525	5	C7H6N2+
118.065	6	C8H8N+
119.0606	14	C7H7N2+
130.0652	53	C9H8N+
132.0679	6	C8H8N2+
134.0712	24	C7H8N3+
145.0397	51	C8H5N2O+
158.0712	33	C9H8N3+
159.079	53	C9H9N3+
174.0788	204	C10H10N2O+
175.0979	999	C9H11N4+
187.0733	8	C10H9N3O+
203.0922	356	C10H11N4O+
