Mass spectrum: 2-Mercaptobenzothiazole; LC-ESI-QFT; MS2; CE: 90; R=35000; [M+H]+
Name: 2-Mercaptobenzothiazole
Name: 1,3-Benzothiazole-2(3H)-thione
Name: 3H-1,3-benzothiazole-2-thione
Formula: C7H5NS2
Exact mass: 166.98634
SMILES: S=C2Sc1ccccc1N2
InChI: InChI=1S/C7H5NS2/c9-7-8-5-3-1-2-4-6(5)10-7/h1-4H,(H,8,9)
Instrument: Q Exactive Plus Orbitrap Thermo Scientific
Instrument type: LC-ESI-QFT
Ms type: MS2
Ion mode: POSITIVE
Ionization: ESI
Fragmentation mode: HCD
Collision energy: 90 (nominal)
Resolution: 35000
Column name: XBridge C18 3.5um, 2.1x50mm, Waters
Retention time: 6.7 min
Base peak: 167.9936
Precursor m/z: 167.9936
Precursor type: [M+H]+
m/z	relative intensity	assigned
51.0229	1	C4H3+
53.0386	12	C4H5+
63.0229	5	C5H3+
65.0386	315	C5H5+
66.0464	14	C5H6+
68.9793	11	C3HS+
77.0385	29	C6H5+
80.0494	99	C5H6N+
81.0335	2	C5H5O+
84.0028	5	C4H4S+
90.0339	29	C6H4N+
91.0417	11	C6H5N+
92.0495	229	C6H6N+
95.0491	45	
97.0107	9	C5H5S+
104.0495	7	C7H6N+
105.0448	25	C6H5N2+
106.995	9	C6H3S+
108.0028	47	C6H4S+
109.0107	381	C6H5S+
110.0185	145	C6H6S+
124.0216	340	C6H6NS+
132.9981	1	C7H3NS+
134.0059	51	C7H4NS+
135.0137	999	C7H5NS+
136.0215	286	C7H6NS+
140.9827	16	C6H5S2+
150.001	3	C7H4NOS+
152.0165	5	C7H6NOS+
166.9857	5	C7H5NS2+
167.9936	295	C7H6NS2+
