Mass spectrum: Niflumic acid; LC-ESI-QFT; MS2; CE: 30; R=35000; [M-H]-
Name: Niflumic acid
Name: 2-[3-(trifluoromethyl)anilino]pyridine-3-carboxylic acid
Formula: C13H9F3N2O2
Exact mass: 282.06161
SMILES: C1=CC(=CC(=C1)NC2=C(C=CC=N2)C(=O)O)C(F)(F)F
InChI: InChI=1S/C13H9F3N2O2/c14-13(15,16)8-3-1-4-9(7-8)18-11-10(12(19)20)5-2-6-17-11/h1-7H,(H,17,18)(H,19,20)
Instrument: Q Exactive Plus Orbitrap Thermo Scientific
Instrument type: LC-ESI-QFT
Ms type: MS2
Ion mode: NEGATIVE
Ionization: ESI
Fragmentation mode: HCD
Collision energy: 30 (nominal)
Resolution: 35000
Column name: XBridge C18 3.5um, 2.1x50mm, Waters
Retention time: 12.9 min
Base peak: 281.0538
Precursor m/z: 281.0543
Precursor type: [M-H]-
m/z	relative intensity	assigned
177.0458	1	C12H5N2-
197.0521	5	C12H6FN2-
210.054	1	C11H7F3N-
217.0582	83	C12H7F2N2-
235.0488	22	C12H6F3N2-
237.0644	999	C12H8F3N2-
249.0485	1	C12H7F2N2O2-
261.0478	1	C13H7F2N2O2-
281.0542	112	C13H8F3N2O2-
