Mass spectrum: Metolachlor ESA; LC-ESI-ITFT; MS2; CE: 90%; R=30000; [M+H]+
Name: Metolachlor ESA
Name: 2-[(2-Ethyl-6-methylphenyl)(1-methoxy-2-propanyl)amino]-2-oxoethanesulfonic acid
Formula: C15H23NO5S
Exact mass: 329.1297
SMILES: O=S(O)(CC(N(C(C)COC)C1=C(CC)C=CC=C1C)=O)=O
InChI: InChI=1S/C15H23NO5S/c1-5-13-8-6-7-11(2)15(13)16(12(3)9-21-4)14(17)10-22(18,19)20/h6-8,12H,5,9-10H2,1-4H3,(H,18,19,20)
Instrument: LTQ Orbitrap XL Thermo Scientific
Instrument type: LC-ESI-ITFT
Ms type: MS2
Ion mode: POSITIVE
Ionization: ESI
Fragmentation mode: HCD
Collision energy: 90 % (nominal)
Resolution: 30000
Column name: XBridge C18 3.5um, 2.1x50mm, Waters
Retention time: 7.8 min
Base peak: 374.1017
Precursor m/z: 330.137
Precursor type: [M+H]+
m/z	relative intensity	assigned
73.0648	100	C4H9O+
91.0542	57	C7H7+
117.07	93	C9H9+
119.0728	82	C8H9N+
120.0807	131	C8H10N+
131.0728	169	C9H9N+
132.0807	381	C9H10N+
133.0886	139	C9H11N+
134.0966	102	C9H12N+
144.0808	436	C10H10N+
145.0885	839	C10H11N+
146.0964	341	C10H12N+
158.0964	193	C11H12N+
159.1042	267	C11H13N+
160.0756	84	C10H10NO+
160.112	999	C11H14N+
174.1276	523	C12H16N+
202.1226	164	C13H16NO+
