Mass spectrum: Mefenamic acid; LC-ESI-ITFT; MS2; CE: 75%; R=7500; [M+H]+
Name: Mefenamic acid
Name: 2-(2,3-dimethylanilino)benzoic acid
Formula: C15H15NO2
Exact mass: 241.1103
SMILES: c1(c(cccc1)C(O)=O)Nc1c(c(ccc1)C)C
InChI: InChI=1S/C15H15NO2/c1-10-6-5-9-13(11(10)2)16-14-8-4-3-7-12(14)15(17)18/h3-9,16H,1-2H3,(H,17,18)
Instrument: LTQ Orbitrap XL Thermo Scientific
Instrument type: LC-ESI-ITFT
Ms type: MS2
Ion mode: POSITIVE
Ionization: ESI
Fragmentation mode: HCD
Collision energy: 75 % (nominal)
Resolution: 7500
Column name: XBridge C18 3.5um, 2.1x50mm, Waters
Retention time: 14.5 min
Base peak: 242.1182
Precursor m/z: 242.1176
Precursor type: [M+H]+
m/z	relative intensity	assigned
167.0723	3	C12H9N+
178.061	2	C8H8N3O2+
179.0733	7	C13H9N+
180.0807	142	C13H10N+
181.0886	64	C13H11N+
183.0678	11	C12H9NO+
191.0736	2	C14H9N+
194.0966	16	C14H12N+
195.0998	3	C9H13N3O2+
196.0761	9	C13H10NO+
196.1118	2	C14H14N+
208.0757	150	C14H10NO+
209.0836	999	C14H11NO+
222.091	45	C15H12NO+
223.0993	31	C15H13NO+
224.1068	547	C15H14NO+
