Mass spectrum: Aminopyrine; LC-ESI-ITFT; MS2; CE: 60%; R=15000; [M+H]+
Name: Aminopyrine
Name: 4-(dimethylamino)-1,5-dimethyl-2-phenyl-3-pyrazolin-3-one
Formula: C13H17N3O
Exact mass: 231.1372
SMILES: c(ccc1N(N(C=2C)C)C(=O)C2N(C)C)cc1
InChI: InChI=1S/C13H17N3O/c1-10-12(14(2)3)13(17)16(15(10)4)11-8-6-5-7-9-11/h5-9H,1-4H3
Instrument: LTQ Orbitrap XL Thermo Scientific
Instrument type: LC-ESI-ITFT
Ms type: MS2
Ion mode: POSITIVE
Ionization: ESI
Fragmentation mode: HCD
Collision energy: 60 % (nominal)
Resolution: 15000
Column name: XBridge C18 3.5um, 2.1x50mm, Waters
Retention time: 2.6 min
Base peak: 232.1453
Precursor m/z: 232.1444
Precursor type: [M+H]+
m/z	relative intensity	assigned
56.0496	328	C3H6N+
58.0652	494	C3H8N+
68.0494	10	C4H6N+
70.0652	364	C4H8N+
72.0809	347	C4H10N+
82.0653	48	C5H8N+
83.0605	23	C4H7N2+
84.0446	8	C4H6NO+
84.0683	15	C4H8N2+
84.0809	72	C5H10N+
87.0917	10	C4H11N2+
96.0682	7	C5H8N2+
97.0762	999	C5H9N2+
98.084	407	C5H10N2+
99.0918	70	C5H11N2+
106.0653	124	C7H8N+
111.0918	400	C6H11N2+
113.1075	364	C6H13N2+
118.0653	76	C8H8N+
123.0556	7	C6H7N2O+
132.0446	27	C8H6NO+
133.0762	14	C8H9N2+
146.0602	15	C9H8NO+
149.1075	22	C9H13N2+
159.0919	42	C10H11N2+
177.1024	30	C10H13N2O+
188.0943	9	C11H12N2O+
202.098	14	C11H12N3O+
216.1134	16	C12H14N3O+
