Mass spectrum: Oxybutynin; LC-ESI-QFT; MS2; CE: 90; R=35000; [M+H]+
Name: Oxybutynin
Name: 2-cyclohexyl-2-hydroxy-2-phenyl-acetic acid 4-(diethylamino)but-2-ynyl ester
Formula: C22H31NO3
Exact mass: 357.23039
SMILES: CCN(CC)CC#CCOC(=O)C(C1CCCCC1)(C2=CC=CC=C2)O
InChI: InChI=1S/C22H31NO3/c1-3-23(4-2)17-11-12-18-26-21(24)22(25,19-13-7-5-8-14-19)20-15-9-6-10-16-20/h5,7-8,13-14,20,25H,3-4,6,9-10,15-18H2,1-2H3
Instrument: Q Exactive Orbitrap Thermo Scientific
Instrument type: LC-ESI-QFT
Ms type: MS2
Ion mode: POSITIVE
Ionization: ESI
Fragmentation mode: HCD
Collision energy: 90 (nominal)
Resolution: 35000
Column name: XBridge C18 3.5um, 2.1x50mm, Waters
Retention time: 8.9 min
Base peak: 358.2382
Precursor m/z: 358.2377
Precursor type: [M+H]+
m/z	relative intensity	assigned
50.0153	11	C4H2+
51.0231	5	C4H3+
53.0024	6	C3HO+
53.0387	22	C4H5+
54.034	93	C3H4N+
55.0544	16	C4H7+
56.0495	2	C3H6N+
58.0652	700	C3H8N+
63.0078	11	CH3O3+
65.0387	18	C5H5+
67.0417	23	C4H5N+
67.0543	59	C5H7+
68.0496	151	C4H6N+
69.0336	90	C4H5O+
69.0699	31	C5H9+
70.0652	5	C4H8N+
72.0808	999	C4H10N+
74.0965	50	C4H12N+
77.0385	25	C6H5+
79.0543	501	C6H7+
80.0496	102	C5H6N+
81.0574	64	C5H7N+
81.07	30	C6H9+
82.0651	19	C5H8N+
83.0857	26	C6H11+
86.0965	33	C5H12N+
91.0543	352	C7H7+
93.0573	3	C6H7N+
93.0701	8	C7H9+
94.0652	161	C6H8N+
95.0492	238	C6H7O+
96.0446	4	C5H6NO+
96.081	16	C6H10N+
97.0285	30	C5H5O2+
103.0544	26	C8H7+
105.0336	360	C7H5O+
105.0448	63	C6H5N2+
107.0493	220	C7H7O+
108.081	59	C7H10N+
115.0544	33	C9H7+
117.07	46	C9H9+
121.065	5	C8H9O+
128.0622	60	C10H8+
129.07	174	C10H9+
141.0702	14	C11H9+
142.1229	117	C8H16NO+
143.0856	23	C11H11+
145.0651	12	C10H9O+
155.0609	6	C10H7N2+
157.0652	10	C11H9O+
165.0703	12	C13H9+
