Mass spectrum: Cyclophosphamide; LC-ESI-ITFT; MS2; CE: 30%; R=15000; [M+H]+
Name: Cyclophosphamide
Name: N,N-bis(2-chloroethyl)-2-oxidanylidene-1,3,2$l^{5}-oxazaphosphinan-2-amine
Formula: C7H15Cl2N2O2P
Exact mass: 260.0248
SMILES: ClCCN(CCCl)P1(=O)NCCCO1
InChI: InChI=1S/C7H15Cl2N2O2P/c8-2-5-11(6-3-9)14(12)10-4-1-7-13-14/h1-7H2,(H,10,12)
Instrument: LTQ Orbitrap XL Thermo Scientific
Instrument type: LC-ESI-ITFT
Ms type: MS2
Ion mode: POSITIVE
Ionization: ESI
Fragmentation mode: HCD
Collision energy: 30 % (nominal)
Resolution: 15000
Column name: XBridge C18 3.5um, 2.1x50mm, Waters
Retention time: 6.3 min
Base peak: 261.0328
Precursor m/z: 261.0321
Precursor type: [M+H]+
m/z	relative intensity	assigned
56.0494	1	C3H6N+
58.0652	1	C3H8N+
106.0419	61	C4H9ClN+
110.0002	2	C2H5ClNO2+
120.021	7	C3H7NO2P+
138.0315	7	C4H9ClNO2+
140.003	91	C4H8Cl2N+
142.0186	40	C4H10Cl2N+
185.0241	1	C4H11ClN2O2P+
233.001	87	C5H12Cl2N2O2P+
261.0321	999	C7H16Cl2N2O2P+
