Mass spectrum: Amidithion; LC-ESI-QFT; MS2; CE: 45%; R=17500; [M+H]+
Name: Amidithion
Name: 2-dimethoxyphosphinothioylsulfanyl-N-(2-methoxyethyl)acetamide
Formula: C7H16NO4PS2
Exact mass: 273.0258
SMILES: COCCNC(=O)CSP(=S)(OC)OC
InChI: InChI=1S/C7H16NO4PS2/c1-10-5-4-8-7(9)6-15-13(14,11-2)12-3/h4-6H2,1-3H3,(H,8,9)
Instrument: Exploris 240 Orbitrap Thermo Scientific
Instrument type: LC-ESI-QFT
Ms type: MS2
Ion mode: POSITIVE
Ionization: ESI
Fragmentation mode: HCD
Collision energy: 45 % (nominal)
Resolution: 17500
Column name: XBridge C18 3.5um, 2.1x50mm, Waters
Retention time: 4.721 min
Base peak: 274.0331
Precursor m/z: 274.0331
Precursor type: [M+H]+
m/z	relative intensity	assigned
59.0491	242	C3H7O+
76.0758	28	C3H10NO+
78.9942	16	CH4O2P+
116.0165	413	C4H6NOS+
124.9821	999	C2H6O2PS+
132.0482	8	C5H10NOS+
142.9928	195	C2H8O3PS+
156.9542	130	C2H6O2PS2+
157.008	31	C3H10O3PS+
170.9698	686	C3H8O2PS2+
198.965	168	C4H8O3PS2+
209.9813	22	C5H9NO2PS2+
242.0069	44	C6H13NO3PS2+
