Mass spectrum: Morphine; LC-ESI-ITFT; MS2; CE: 90%; R=7500; [M+H]+
Name: Morphine
Name: (4R,4aR,7S,7aR,12bS)-3-methyl-2,4,4a,7,7a,13-hexahydro-1H-4,12-methanobenzofuro[3,2-e]isoquinoline-7,9-diol
Formula: C17H19NO3
Exact mass: 285.1364935
SMILES: CN1CC[C@]23[C@@H]4[C@H]1CC5=C2C(=C(C=C5)O)O[C@H]3[C@H](C=C4)O
InChI: InChI=1S/C17H19NO3/c1-18-7-6-17-10-3-5-13(20)16(17)21-15-12(19)4-2-9(14(15)17)8-11(10)18/h2-5,10-11,13,16,19-20H,6-8H2,1H3/t10-,11+,13-,16-,17-/m0/s1
Instrument: LTQ Orbitrap XL Thermo Scientific
Instrument type: LC-ESI-ITFT
Ms type: MS2
Ion mode: POSITIVE
Ionization: ESI
Fragmentation mode: HCD
Collision energy: 90 % (nominal)
Resolution: 7500
Column name: XBridge C18 3.5um, 2.1x50mm, Waters
Retention time: 1.1 min
Base peak: 286.1448
Precursor m/z: 286.1438
Precursor type: [M+H]+
m/z	relative intensity	assigned
55.0176	24	C3H3O+
58.0652	79	C3H8N+
67.0543	20	C5H7+
91.0542	91	C7H7+
103.0545	50	C8H7+
105.0703	34	C8H9+
107.049	25	C7H7O+
115.0543	177	C9H7+
117.0699	114	C9H9+
123.0441	93	C7H7O2+
128.0621	188	C10H8+
129.07	194	C10H9+
131.0493	73	C9H7O+
139.0537	28	C11H7+
141.0699	129	C11H9+
143.0858	42	C11H11+
144.0568	108	C10H8O+
145.0649	212	C10H9O+
147.0442	238	C9H7O2+
151.0544	34	C12H7+
152.0621	323	C12H8+
153.0699	999	C12H9+
154.0777	73	C12H10+
155.0604	200	C10H7N2+
155.0857	495	C12H11+
157.0649	815	C11H9O+
158.072	44	C11H10O+
159.0806	24	C11H11O+
160.0522	91	C10H8O2+
161.06	31	C10H9O2+
165.07	838	C13H9+
166.0777	148	C13H10+
168.0572	113	C12H8O+
169.0653	85	C12H9O+
170.0724	36	C12H10O+
171.0442	150	C11H7O2+
171.0808	117	C12H11O+
172.0524	29	C11H8O2+
173.0597	145	C11H9O2+
178.0777	95	C14H10+
179.0861	63	C14H11+
181.065	836	C13H9O+
183.0808	200	C13H11O+
184.0516	227	C12H8O2+
185.06	303	C12H9O2+
186.0678	53	C12H10O2+
189.0693	60	C15H9+
190.0772	98	C15H10+
191.0855	134	C15H11+
194.0729	85	C14H10O+
197.0597	65	C13H9O2+
198.0679	78	C13H10O2+
199.076	66	C13H11O2+
201.0908	86	C13H13O2+
209.0601	142	C14H9O2+
211.0752	89	C14H11O2+
219.0811	23	C16H11O+
222.0668	29	C15H10O2+
227.0705	60	C14H11O3+
