Mass spectrum: Phenobarbital; LC-ESI-QFT; MS2; CE: 60; R=35000; [M+H]+
Name: Phenobarbital
Name: 5-ethyl-5-phenyl-1,3-diazinane-2,4,6-trione
Formula: C12H12N2O3
Exact mass: 232.08479
SMILES: CCC1(C(=O)NC(=O)NC1=O)C2=CC=CC=C2
InChI: InChI=1S/C12H12N2O3/c1-2-12(8-6-4-3-5-7-8)9(15)13-11(17)14-10(12)16/h3-7H,2H2,1H3,(H2,13,14,15,16,17)
Instrument: Q Exactive Plus Orbitrap Thermo Scientific
Instrument type: LC-ESI-QFT
Ms type: MS2
Ion mode: POSITIVE
Ionization: ESI
Fragmentation mode: HCD
Collision energy: 60 (nominal)
Resolution: 35000
Column name: XBridge C18 3.5um, 2.1x50mm, Waters
Retention time: 6.0 min
Base peak: 251.1845
Precursor m/z: 233.0921
Precursor type: [M+H]+
m/z	relative intensity	assigned
51.0228	6	C4H3+
53.0385	36	C4H5+
55.0178	71	C3H3O+
55.0542	179	C4H7+
56.0494	163	C3H6N+
57.0335	76	C3H5O+
57.0698	65	C4H9+
59.0491	230	C3H7O+
65.0384	6	C5H5+
67.0541	48	C5H7+
69.0333	49	C4H5O+
69.0699	75	C5H9+
71.049	34	C4H7O+
71.0853	9	C5H11+
73.0282	26	C3H5O2+
73.0645	5	C4H9O+
76.0391	6	C2H6NO2+
77.0383	12	C6H5+
79.0541	122	C6H7+
81.0333	6	C5H5O+
81.0697	89	C6H9+
83.049	21	C5H7O+
83.0853	55	C6H11+
84.0806	71	C5H10N+
87.044	11	C4H7O2+
88.0392	37	C3H6NO2+
89.0384	80	C7H5+
91.0542	666	C7H7+
93.0697	13	C7H9+
95.049	77	C6H7O+
95.0854	30	C7H11+
97.0074	11	C8H+
98.0964	50	C6H12N+
99.0188	59	C3H3N2O2+
99.0439	27	C5H7O2+
99.0805	20	C6H11O+
101.0597	6	C5H9O2+
104.0492	30	C7H6N+
105.0334	612	C7H5O+
105.0697	60	C8H9+
106.065	614	C7H8N+
107.0491	23	C7H7O+
107.0855	12	C8H11+
109.0644	8	C7H9O+
109.101	11	C8H13+
111.0232	6	C9H3+
115.0136	6	C3H3N2O3+
115.0541	78	C9H7+
117.0333	74	C8H5O+
117.0697	632	C9H9+
118.0648	30	C8H8N+
119.0489	11	C8H7O+
119.0854	126	C9H11+
121.0648	6	C8H9O+
123.023	9	C10H3+
123.0801	6	C8H11O+
126.0911	32	C7H12NO+
128.0618	23	C10H8+
129.0698	82	C10H9+
131.0855	29	C10H11+
132.0441	12	C8H6NO+
133.0521	999	C8H7NO+
134.0599	404	C8H8NO+
134.0962	279	C9H12N+
143.0728	22	C10H9N+
144.0807	683	C10H10N+
145.0282	188	C9H5O2+
145.0646	55	C10H9O+
145.101	23	C11H13+
147.0808	7	C10H11O+
154.065	24	C11H8N+
155.0601	22	C10H7N2+
162.0911	577	C10H12NO+
172.0754	44	C11H10NO+
175.0015	7	C7HN3O3+
177.0657	402	C9H9N2O2+
187.0749	6	C12H11O2+
205.0607	25	C10H9N2O3+
