Mass spectrum: Fentanyl; LC-ESI-QFT; MS2; CE: 30; R=35000; [M+H]+
Name: Fentanyl
Name: N-phenyl-N-[1-(2-phenylethyl)piperidin-4-yl]propanamide
Formula: C22H28N2O
Exact mass: 336.22016
SMILES: CCC(=O)N(C1CCN(CC1)CCC2=CC=CC=C2)C3=CC=CC=C3
InChI: InChI=1S/C22H28N2O/c1-2-22(25)24(20-11-7-4-8-12-20)21-14-17-23(18-15-21)16-13-19-9-5-3-6-10-19/h3-12,21H,2,13-18H2,1H3
Instrument: Q Exactive Plus Orbitrap Thermo Scientific
Instrument type: LC-ESI-QFT
Ms type: MS2
Ion mode: POSITIVE
Ionization: ESI
Fragmentation mode: HCD
Collision energy: 30 (nominal)
Resolution: 35000
Column name: XBridge C18 3.5um, 2.1x50mm, Waters
Retention time: 6.0 min
Base peak: 337.2264
Precursor m/z: 337.2274
Precursor type: [M+H]+
m/z	relative intensity	assigned
57.0333	2	C3H5O+
77.0384	1	C6H5+
84.0808	1	C5H10N+
105.0697	35	C8H9+
132.0806	3	C9H10N+
134.0963	10	C9H12N+
146.0963	6	C10H12N+
150.0913	3	C9H12NO+
160.1118	2	C11H14N+
186.1277	3	C13H16N+
188.1432	999	C13H18N+
190.1224	4	C12H16NO+
216.1382	34	C14H18NO+
281.2011	20	C19H25N2+
337.2271	921	C22H29N2O+
