Mass spectrum: Bromadiolone; LC-ESI-QFT; MS2; CE: 75; R=35000; [M-H]-
Name: Bromadiolone
Name: 3-[3-[4-(4-bromophenyl)phenyl]-3-hydroxy-1-phenylpropyl]-4-hydroxychromen-2-one
Formula: C30H23BrO4
Exact mass: 526.07797
SMILES: C1=CC=C(C=C1)C(CC(C2=CC=C(C=C2)C3=CC=C(C=C3)Br)O)C4=C(C5=CC=CC=C5OC4=O)O
InChI: InChI=1S/C30H23BrO4/c31-23-16-14-20(15-17-23)19-10-12-22(13-11-19)26(32)18-25(21-6-2-1-3-7-21)28-29(33)24-8-4-5-9-27(24)35-30(28)34/h1-17,25-26,32-33H,18H2
Instrument: Q Exactive Plus Orbitrap Thermo Scientific
Instrument type: LC-ESI-QFT
Ms type: MS2
Ion mode: NEGATIVE
Ionization: ESI
Fragmentation mode: HCD
Collision energy: 75 (nominal)
Resolution: 35000
Column name: XBridge C18 3.5um, 2.1x50mm, Waters
Retention time: 15.3 min
Base peak: 525.0704
Precursor m/z: 525.0707
Precursor type: [M-H]-
m/z	relative intensity	assigned
59.0139	2	C2H3O2-
65.0397	5	C5H5-
67.019	1	C4H3O-
78.9189	999	Br-
93.0346	310	C6H5O-
95.0139	2	C5H3O2-
101.0397	28	C8H5-
108.0217	4	C6H4O2-
115.0553	9	C9H7-
117.0347	103	C8H5O-
119.0502	2	C8H7O-
121.0297	1	C7H5O2-
130.0423	4	C9H6O-
131.0502	2	C9H7O-
133.0294	1	C8H5O2-
135.0453	8	C8H7O2-
137.0244	7	C7H5O3-
141.0711	19	C11H9-
143.0502	66	C10H7O-
145.0298	2	C9H5O2-
145.0661	1	C10H9O-
147.0453	2	C9H7O2-
159.0454	1	C10H7O2-
161.0245	11	C9H5O3-
178.0788	6	C14H10-
179.0869	2	C14H11-
187.0401	11	C11H7O3-
191.0863	4	C15H11-
193.0657	13	C14H9O-
195.0816	11	C14H11O-
205.0659	7	C15H9O-
206.0736	18	C15H10O-
207.0819	5	C15H11O-
217.0659	2	C16H9O-
219.0815	63	C16H11O-
221.0608	3	C15H9O2-
221.0976	1	C16H13O-
235.0766	1	C16H11O2-
249.056	5	C16H9O3-
250.0635	8	C16H10O3-
263.0714	20	C17H11O3-
272.993	1	C14H10BrO-
