Mass spectrum: Flufenamic acid; LC-ESI-QFT; MS2; CE: 90; R=35000; [M-H]-
Name: Flufenamic acid
Name: Arlef
Name: 2-[3-(trifluoromethyl)anilino]benzoic acid
Formula: C14H10F3NO2
Exact mass: 281.06636
SMILES: C1=CC=C(C(=C1)C(=O)O)NC2=CC=CC(=C2)C(F)(F)F
InChI: InChI=1S/C14H10F3NO2/c15-14(16,17)9-4-3-5-10(8-9)18-12-7-2-1-6-11(12)13(19)20/h1-8,18H,(H,19,20)
Instrument: Q Exactive Orbitrap Thermo Scientific
Instrument type: LC-ESI-QFT
Ms type: MS2
Ion mode: NEGATIVE
Ionization: ESI
Fragmentation mode: HCD
Collision energy: 90 (nominal)
Resolution: 35000
Column name: XBridge C18 3.5um, 2.1x50mm, Waters
Retention time: 14.5 min
Base peak: 280.0593
Precursor m/z: 280.0591
Precursor type: [M-H]-
m/z	relative intensity	assigned
62.9888	15	CFO2-
68.9958	39	CF3-
73.0084	36	C6H-
74.0037	7	C5N-
90.035	2	C6H4N-
92.0506	121	C6H6N-
102.035	6	C7H4N-
119.0177	1	C7H2FN-
120.0256	42	C7H3FN-
133.0271	6	C6H4F3-
140.032	10	C7H4F2N-
152.0506	1	C11H6N-
160.038	367	C7H5F3N-
165.0583	11	
166.0663	98	C12H8N-
168.0454	2	C11H6NO-
174.0349	70	C13H4N-
176.0505	999	C13H6N-
179.0377	24	C12H5NO-
181.0534	28	C12H7NO-
183.0325	1	C11H5NO2-
183.0493	2	C12H6FN-
194.0411	301	C13H5FN-
195.0488	5	C13H6FN-
196.0569	30	C13H7FN-
199.0441	41	C12H6FNO-
200.0522	11	C12H7FNO-
207.0326	31	C13H5NO2-
214.0475	49	C13H6F2N-
215.0553	133	C13H7F2N-
216.063	17	C13H8F2N-
217.0541	1	C12H8FNO2-
226.0318	2	C13H5FNO2-
227.0389	94	C13H6FNO2-
234.0537	404	C13H7F3N-
236.0692	40	C13H9F3N-
