Mass spectrum: Rimantadine; LC-ESI-QFT; MS2; CE: 60; R=35000; [M+H]+
Name: Rimantadine
Name: 1-(1-adamantyl)ethanamine
Formula: C12H21N
Exact mass: 179.16740
SMILES: NC(C)C13CC2CC(CC(C1)C2)C3
InChI: InChI=1S/C12H21N/c1-8(13)12-5-9-2-10(6-12)4-11(3-9)7-12/h8-11H,2-7,13H2,1H3
Instrument: Q Exactive Orbitrap Thermo Scientific
Instrument type: LC-ESI-QFT
Ms type: MS2
Ion mode: POSITIVE
Ionization: ESI
Fragmentation mode: HCD
Collision energy: 60 (nominal)
Resolution: 35000
Column name: XBridge C18 3.5um, 2.1x50mm, Waters
Retention time: 6.5 min
Base peak: 180.1746
Precursor m/z: 180.1747
Precursor type: [M+H]+
m/z	relative intensity	assigned
55.0541	1	C4H7+
57.0699	1	C4H9+
67.0542	24	C5H7+
69.0697	4	C5H9+
77.0384	1	C6H5+
79.0542	21	C6H7+
81.0698	215	C6H9+
83.0855	7	C6H11+
91.0541	3	C7H7+
93.0698	46	C7H9+
95.0855	30	C7H11+
97.1012	4	C7H13+
107.0855	88	C8H11+
109.1012	1	C8H13+
121.1011	65	C9H13+
135.1167	49	C10H15+
163.1481	999	C12H19+
180.1746	82	C12H22N+
