Mass spectrum: Paracetamol; LC-ESI-ITFT; MS2; CE: 90%; R=30000; [M+H]+
Name: Paracetamol
Name: Acetaminophen
Name: N-(4-hydroxyphenyl)acetamide
Formula: C8H9NO2
Exact mass: 151.0633
SMILES: CC(=O)NC1=CC=C(O)C=C1
InChI: InChI=1S/C8H9NO2/c1-6(10)9-7-2-4-8(11)5-3-7/h2-5,11H,1H3,(H,9,10)
Instrument: LTQ Orbitrap XL Thermo Scientific
Instrument type: LC-ESI-ITFT
Ms type: MS2
Ion mode: POSITIVE
Ionization: ESI
Fragmentation mode: HCD
Collision energy: 90 % (nominal)
Resolution: 30000
Column name: XBridge C18 3.5um, 2.1x50mm, Waters
Retention time: 2.2 min
Base peak: 152.0707
Precursor m/z: 152.0706
Precursor type: [M+H]+
m/z	relative intensity	assigned
65.0386	412	C5H5+
67.0542	9	C5H7+
81.0573	3	C5H7N+
82.0651	76	C5H8N+
92.0495	178	C6H6N+
93.0335	171	C6H5O+
93.0572	17	C6H7N+
109.0522	34	C6H7NO+
110.06	999	C6H8NO+
111.044	65	C6H7O2+
121.0396	45	C6H5N2O+
134.0599	12	C8H8NO+
152.0707	20	C8H10NO2+
