Mass spectrum: Propoxyphene; LC-ESI-QFT; MS2; CE: 150; R=35000; [M+H]+
Name: Propoxyphene
Name: Levopropoxyphene
Name: [4-(dimethylamino)-3-methyl-1,2-diphenylbutan-2-yl] propanoate
Formula: C22H29NO2
Exact mass: 339.21983
SMILES: CCC(=O)OC(CC1=CC=CC=C1)(C2=CC=CC=C2)C(C)CN(C)C
InChI: InChI=1S/C22H29NO2/c1-5-21(24)25-22(18(2)17-23(3)4,20-14-10-7-11-15-20)16-19-12-8-6-9-13-19/h6-15,18H,5,16-17H2,1-4H3
Instrument: Q Exactive Plus Orbitrap Thermo Scientific
Instrument type: LC-ESI-QFT
Ms type: MS2
Ion mode: POSITIVE
Ionization: ESI
Fragmentation mode: HCD
Collision energy: 150 (nominal)
Resolution: 35000
Column name: XBridge C18 3.5um, 2.1x50mm, Waters
Retention time: 7.8 min
Base peak: 340.2269
Precursor m/z: 340.2271
Precursor type: [M+H]+
m/z	relative intensity	assigned
50.0151	3	C4H2+
51.023	15	C4H3+
53.0022	4	C3HO+
53.0386	6	C4H5+
56.0495	50	C3H6N+
57.0573	7	C3H7N+
58.0652	999	C3H8N+
62.0151	1	C5H2+
63.0229	7	C5H3+
65.0386	90	C5H5+
72.0809	1	C4H10N+
75.023	1	C6H3+
77.0386	9	C6H5+
78.0465	14	C6H6+
79.0542	2	C6H7+
89.0387	1	C7H5+
91.0543	75	C7H7+
95.0492	23	C6H7O+
102.0464	21	C8H6+
103.0543	5	C8H7+
105.0448	12	C6H5N2+
115.0543	20	C9H7+
126.0466	5	C10H6+
127.0544	7	C10H7+
128.0621	69	C10H8+
141.0704	1	C11H9+
145.0651	1	C10H9O+
152.0623	5	C12H8+
155.0604	9	C10H7N2+
165.0701	10	C13H9+
169.065	1	C12H9O+
176.0622	4	C14H8+
178.0783	4	C14H10+
189.0704	4	C15H9+
