Mass spectrum: Ecgonine-methyl-ester (EME); LC-ESI-QFT; MS2; CE: 60; R=35000; [M+H]+
Name: Ecgonine-methyl-ester (EME)
Name: Ecgonine methyl ester
Name: Methyl 3-hydroxy-8-methyl-8-azabicyclo[3.2.1]octane-4-carboxylate
Formula: C10H17NO3
Exact mass: 199.12084
SMILES: CN1C2CCC1C(C(C2)O)C(=O)OC
InChI: InChI=1S/C10H17NO3/c1-11-6-3-4-7(11)9(8(12)5-6)10(13)14-2/h6-9,12H,3-5H2,1-2H3
Instrument: Q Exactive Plus Orbitrap Thermo Scientific
Instrument type: LC-ESI-QFT
Ms type: MS2
Ion mode: POSITIVE
Ionization: ESI
Fragmentation mode: HCD
Collision energy: 60 (nominal)
Resolution: 35000
Column name: XBridge C18 3.5um, 2.1x50mm, Waters
Retention time: 0.8 min
Base peak: 200.1275
Precursor m/z: 200.1281
Precursor type: [M+H]+
m/z	relative intensity	assigned
53.0385	1	C4H5+
56.0494	2	C3H6N+
57.0572	5	C3H7N+
58.0286	1	C2H4NO+
58.0651	2	C3H8N+
59.0127	1	C2H3O2+
59.049	1	C3H7O+
65.0385	14	C5H5+
67.0415	5	C4H5N+
67.0541	8	C5H7+
68.0494	13	C4H6N+
69.0334	3	C4H5O+
70.065	11	C4H8N+
76.0392	4	C2H6NO2+
79.0541	17	C6H7+
80.0492	3	C5H6N+
81.0698	10	C6H9+
82.065	804	C5H8N+
83.0728	63	C5H9N+
84.0442	3	C4H6NO+
84.0807	27	C5H10N+
86.0599	1	C4H8NO+
91.0541	64	C7H7+
93.0334	56	C6H5O+
93.0698	36	C7H9+
94.065	23	C6H8N+
95.0728	2	C6H9N+
96.0806	57	C6H10N+
97.0647	14	C6H9O+
100.0756	60	C5H10NO+
105.0697	4	C8H9+
107.049	3	C7H7O+
107.0729	3	C7H9N+
108.0806	80	C7H10N+
109.0646	5	C7H9O+
114.0913	4	C6H12NO+
117.0573	1	C8H7N+
118.0411	12	C8H6O+
119.049	89	C8H7O+
121.0647	2	C8H9O+
122.0599	4	C7H8NO+
122.0963	60	C8H12N+
123.0803	2	C8H11O+
124.0755	7	C7H10NO+
124.112	28	C8H14N+
125.0596	13	C7H9O2+
126.0911	3	C7H12NO+
128.0703	1	C6H10NO2+
132.0806	8	C9H10N+
133.0646	2	C9H9O+
135.0677	5	C8H9NO+
138.0912	7	C8H12NO+
140.1068	6	C8H14NO+
150.0912	114	C9H12NO+
151.0753	11	C9H11O2+
154.0861	42	C8H12NO2+
156.1018	18	C8H14NO2+
164.1071	2	C10H14NO+
168.1017	30	C9H14NO2+
182.1174	999	C10H16NO2+
200.1279	225	C10H18NO3+
