Mass spectrum: 2-Acetylpyrazine; LC-ESI-QFT; MS2; CE: 60%; R=17500; [M+H]+
Name: 2-Acetylpyrazine
Name: Acetylpyrazine
Name: 1-pyrazin-2-ylethanone
Formula: C6H6N2O
Exact mass: 122.0480128
SMILES: CC(=O)C1=NC=CN=C1
InChI: InChI=1S/C6H6N2O/c1-5(9)6-4-7-2-3-8-6/h2-4H,1H3
Instrument: Exploris 240 Orbitrap Thermo Scientific
Instrument type: LC-ESI-QFT
Ms type: MS2
Ion mode: POSITIVE
Ionization: ESI
Fragmentation mode: HCD
Collision energy: 60 % (nominal)
Resolution: 17500
Column name: XBridge C18 3.5um, 2.1x50mm, Waters
Retention time: 2.489 min
Base peak: 132.9582
Precursor m/z: 123.0553
Precursor type: [M+H]+
m/z	relative intensity	assigned
43.0178	7	C2H3O+
54.0339	10	C3H4N+
68.0495	2	C4H6N+
78.0339	3	C5H4N+
81.0447	666	C4H5N2+
95.0604	107	C5H7N2+
97.0396	2	C4H5N2O+
105.0447	118	C6H5N2+
123.0552	999	C6H7N2O+
