Mass spectrum: Flusilazole; LC-ESI-ITFT; MS2; CE: 35%; R=30000; [M+H]+
Name: Flusilazole
Name: bis(4-fluorophenyl)-methyl-(1,2,4-triazol-1-ylmethyl)silane
Formula: C16H15F2N3Si
Exact mass: 315.0998
SMILES: n1(cncn1)C[Si](c1ccc(F)cc1)(C)c1ccc(cc1)F
InChI: InChI=1S/C16H15F2N3Si/c1-22(12-21-11-19-10-20-21,15-6-2-13(17)3-7-15)16-8-4-14(18)5-9-16/h2-11H,12H2,1H3
Instrument: LTQ Orbitrap XL Thermo Scientific
Instrument type: LC-ESI-ITFT
Ms type: MS2
Ion mode: POSITIVE
Ionization: ESI
Fragmentation mode: CID
Collision energy: 35 % (nominal)
Resolution: 30000
Column name: XBridge C18 3.5um, 2.1x50mm, Waters
Retention time: 12.4 min
Base peak: 316.1073
Precursor m/z: 316.1076
Precursor type: [M+H]+
m/z	relative intensity	assigned
91.0542	2	C7H7+
105.0698	2	C8H9+
141.0697	1	C6H8FN3+
151.0373	9	C8H8FSi+
152.062	2	C12H8+
153.0699	1	C12H9+
165.0698	87	C13H9+
166.0482	1	C8H9FNSi+
166.0776	15	C8H9FN3+
169.0479	377	C8H10FOSi+
171.0435	3	C8H9F2Si+
179.0856	1	C14H11+
181.1006	1	C14H13+
185.0761	3	C13H10F+
199.037	2	C7H7F2N3Si+
201.0738	4	C12H13OSi+
217.0477	1	C15H9Si+
219.0434	6	C12H9F2Si+
220.0698	21	C10H11FN3Si+
227.0684	4	C9H11F2N3Si+
247.0748	999	C14H13F2Si+
265.085	7	C12H13F2N3Si+
