Mass spectrum: Fensulfothion; LC-ESI-QFT; MS2; CE: 30%; R=17500; [M+H]+
Name: Fensulfothion
Name: diethoxy-(4-methylsulfinylphenoxy)-sulfanylidene-lambda5-phosphane
Formula: C11H17O4PS2
Exact mass: 308.0306
SMILES: CCOP(=S)(OCC)OC1=CC=C(C=C1)S(=O)C
InChI: InChI=1S/C11H17O4PS2/c1-4-13-16(17,14-5-2)15-10-6-8-11(9-7-10)18(3)12/h6-9H,4-5H2,1-3H3
Instrument: Exploris 240 Orbitrap Thermo Scientific
Instrument type: LC-ESI-QFT
Ms type: MS2
Ion mode: POSITIVE
Ionization: ESI
Fragmentation mode: HCD
Collision energy: 30 % (nominal)
Resolution: 17500
Column name: XBridge C18 3.5um, 2.1x50mm, Waters
Retention time: 7.188 min
Base peak: 309.0377
Precursor m/z: 309.0379
Precursor type: [M+H]+
m/z	relative intensity	assigned
156.0068	7	C7H8S2+
157.0317	224	C7H9O2S+
173.0089	188	C7H9OS2+
185.0629	19	C9H13O2S+
201.0405	50	C9H13OS2+
218.9875	30	C7H8O4PS+
234.9648	312	C7H8O3PS2+
235.9725	15	C7H9O3PS2+
252.9754	732	C7H10O4PS2+
262.9963	45	C9H12O3PS2+
264.0039	40	C9H13O3PS2+
265.9825	11	C8H11O4PS2+
281.0066	999	C9H14O4PS2+
309.0381	389	C11H18O4PS2+
