Mass spectrum: Metolachlor-TP SYN547977; LC-ESI-QFT; MS2; CE: 75%; R=17500; [M+H]+
Name: Metolachlor-TP SYN547977
Formula: C15H20ClNO3
Exact mass: 297.1132
SMILES: ClCC(=O)N(C(C)COC)c1c(C)cccc1C(C)=O
InChI: InChI=1S/C15H20ClNO3/c1-10-6-5-7-13(12(3)18)15(10)17(14(19)8-16)11(2)9-20-4/h5-7,11H,8-9H2,1-4H3
Instrument: Exploris 240 Orbitrap Thermo Scientific
Instrument type: LC-ESI-QFT
Ms type: MS2
Ion mode: POSITIVE
Ionization: ESI
Fragmentation mode: HCD
Collision energy: 75 % (nominal)
Resolution: 17500
Column name: XBridge C18 3.5um, 2.1x50mm, Waters
Retention time: 6.762 min
Base peak: 298.1202
Precursor m/z: 298.1204
Precursor type: [M+H]+
m/z	relative intensity	assigned
59.049	10	C3H7O+
73.0649	62	C4H9O+
76.9789	34	C2H2ClO+
79.0543	21	C6H7+
91.0542	21	C7H7+
103.0542	9	C8H7+
105.0699	223	C8H9+
106.0653	20	C7H8N+
107.0728	23	C7H9N+
108.0807	41	C7H10N+
117.0574	21	C8H7N+
119.073	7	C8H9N+
120.0808	90	C8H10N+
130.0656	45	C9H8N+
131.0732	72	C9H9N+
132.081	84	C9H10N+
133.0886	20	C9H11N+
134.0603	76	C8H8NO+
134.0962	45	C9H12N+
144.0808	86	C10H10N+
146.0965	37	C10H12N+
147.1041	13	C10H13N+
148.112	159	C10H14N+
150.091	9	C9H12NO+
154.0652	36	C11H8N+
156.081	26	C11H10N+
157.0888	162	C11H11N+
158.0965	26	C11H12N+
160.0759	12	C10H10NO+
162.1278	13	C11H16N+
170.0969	21	C12H12N+
171.1042	54	C12H13N+
172.1121	999	C12H14N+
173.083	23	C11H11NO+
174.0914	28	C11H12NO+
184.0525	17	C9H11ClNO+
190.1229	14	C12H16NO+
208.0528	104	C11H11ClNO+
