Mass spectrum: Metalaxyl; LC-ESI-ITFT; MS2; CE: 60%; R=7500; [M+H]+
Name: Metalaxyl
Name: 2-(N-(2-methoxy-1-oxoethyl)-2,6-dimethylanilino)propanoic acid methyl ester
Formula: C15H21NO4
Exact mass: 279.1465
SMILES: CC1=C(C(=CC=C1)C)N(C(C)C(=O)OC)C(=O)COC
InChI: InChI=1S/C15H21NO4/c1-10-7-6-8-11(2)14(10)16(13(17)9-19-4)12(3)15(18)20-5/h6-8,12H,9H2,1-5H3
Instrument: LTQ Orbitrap XL Thermo Scientific
Instrument type: LC-ESI-ITFT
Ms type: MS2
Ion mode: POSITIVE
Ionization: ESI
Fragmentation mode: HCD
Collision energy: 60 % (nominal)
Resolution: 7500
Column name: XBridge C18 3.5um, 2.1x50mm, Waters
Retention time: 8.7 min
Base peak: 302.1365
Precursor m/z: 280.1543
Precursor type: [M+H]+
m/z	relative intensity	assigned
105.0698	22	C8H9+
118.0649	10	C8H8N+
119.0853	12	C9H11+
121.089	11	C8H11N+
130.065	9	C9H8N+
132.0807	67	C9H10N+
133.0885	105	C9H11N+
134.0963	186	C9H12N+
144.0805	8	C10H10N+
145.0884	101	C10H11N+
146.0963	92	C10H12N+
148.112	227	C10H14N+
150.0912	19	C9H12NO+
160.112	999	C11H14N+
162.1276	227	C11H16N+
164.1068	7	C10H14NO+
165.1145	17	C10H15NO+
192.1382	284	C12H18NO+
220.1325	55	C13H18NO2+
