Mass spectrum: 3-[(4-chlorobenzoyl)amino]propanoic acid; LC-ESI-QFT; MS2; CE: 180; R=35000; [M+H]+
Name: 3-[(4-chlorobenzoyl)amino]propanoic acid
Name: N-(4-Chlorobenzoyl)-Beta-alanine
Formula: C10H10ClNO3
Exact mass: 227.03492
SMILES: C1=CC(=CC=C1C(=O)NCCC(=O)O)Cl
InChI: InChI=1S/C10H10ClNO3/c11-8-3-1-7(2-4-8)10(15)12-6-5-9(13)14/h1-4H,5-6H2,(H,12,15)(H,13,14)
Instrument: Q Exactive Plus Orbitrap Thermo Scientific
Instrument type: LC-ESI-QFT
Ms type: MS2
Ion mode: POSITIVE
Ionization: ESI
Fragmentation mode: HCD
Collision energy: 180 (nominal)
Resolution: 35000
Column name: XBridge C18 3.5um, 2.1x50mm, Waters
Retention time: 6.2 min
Base peak: 228.0421
Precursor m/z: 228.0422
Precursor type: [M+H]+
m/z	relative intensity	assigned
50.0151	39	C4H2+
51.023	11	C4H3+
53.0022	19	C3HO+
55.0179	8	C3H3O+
60.9839	9	C2H2Cl+
61.0072	2	C5H+
63.023	2	C5H3+
65.0021	5	C4HO+
65.0386	7	C5H5+
66.01	1	C4H2O+
72.9839	1	C3H2Cl+
73.0072	1	C6H+
74.0151	538	C6H2+
75.0229	999	C6H3+
76.0307	35	C6H4+
84.9839	144	C4H2Cl+
86.9996	7	C4H4Cl+
89.0022	4	C6HO+
93.0334	2	C6H5O+
110.9996	32	C6H4Cl+
111.0441	2	C6H7O2+
129.0102	31	C6H6ClO+
139.0057	60	C9HNO+
