Mass spectrum: Praziquantel; LC-ESI-QFT; MS2; CE: 30; R=35000; [M+H]+
Name: Praziquantel
Name: 2-(cyclohexanecarbonyl)-3,6,7,11b-tetrahydro-1H-pyrazino[2,1-a]isoquinolin-4-one
Formula: C19H24N2O2
Exact mass: 312.18378
SMILES: C1CCC(CC1)C(=O)N2CC3C4=CC=CC=C4CCN3C(=O)C2
InChI: InChI=1S/C19H24N2O2/c22-18-13-20(19(23)15-7-2-1-3-8-15)12-17-16-9-5-4-6-14(16)10-11-21(17)18/h4-6,9,15,17H,1-3,7-8,10-13H2
Instrument: Q Exactive Orbitrap Thermo Scientific
Instrument type: LC-ESI-QFT
Ms type: MS2
Ion mode: POSITIVE
Ionization: ESI
Fragmentation mode: HCD
Collision energy: 30 (nominal)
Resolution: 35000
Column name: XBridge C18 3.5um, 2.1x50mm, Waters
Retention time: 10.1 min
Base peak: 313.191
Precursor m/z: 313.1911
Precursor type: [M+H]+
m/z	relative intensity	assigned
83.0855	248	C6H11+
111.0804	12	C7H11O+
129.0697	1	C10H9+
130.0648	1	C9H8N+
132.0807	18	C9H10N+
144.0808	1	C10H10N+
146.0964	39	C10H12N+
158.0963	6	C11H12N+
173.1073	1	C11H13N2+
174.0913	32	C11H12NO+
175.1229	31	C11H15N2+
201.1019	2	C12H13N2O+
203.1176	999	C12H15N2O+
256.1695	9	C17H22NO+
285.196	16	C18H25N2O+
313.1908	106	C19H25N2O2+
