Mass spectrum: 3,4-Methylenedioxy-N-ethylamphetamine (MDEA); LC-ESI-QFT; MS2; CE: 75; R=35000; [M+H]+
Name: 3,4-Methylenedioxy-N-ethylamphetamine (MDEA)
Name: 3,4-methylenedioxyethamphetamine
Name: 1-(1,3-benzodioxol-5-yl)-N-ethylpropan-2-amine
Formula: C12H17NO2
Exact mass: 207.12593
SMILES: CCNC(C)CC1=CC2=C(C=C1)OCO2
InChI: InChI=1S/C12H17NO2/c1-3-13-9(2)6-10-4-5-11-12(7-10)15-8-14-11/h4-5,7,9,13H,3,6,8H2,1-2H3
Instrument: Q Exactive Plus Orbitrap Thermo Scientific
Instrument type: LC-ESI-QFT
Ms type: MS2
Ion mode: POSITIVE
Ionization: ESI
Fragmentation mode: HCD
Collision energy: 75 (nominal)
Resolution: 35000
Column name: XBridge C18 3.5um, 2.1x50mm, Waters
Retention time: 4.0 min
Base peak: 208.1326
Precursor m/z: 208.1332
Precursor type: [M+H]+
m/z	relative intensity	assigned
50.015	1	C4H2+
51.0228	4	C4H3+
53.0385	8	C4H5+
55.0178	39	C3H3O+
65.0384	8	C5H5+
72.0807	82	C4H10N+
77.0384	32	C6H5+
79.0541	241	C6H7+
91.0541	9	C7H7+
93.0334	16	C6H5O+
95.049	35	C6H7O+
103.0541	136	C8H7+
105.0698	999	C8H9+
107.049	3	C7H7O+
111.044	5	C6H7O2+
115.0542	13	C9H7+
121.0282	9	C7H5O2+
122.0361	20	C7H6O2+
131.0492	1	C9H7O+
133.0647	339	C9H9O+
135.0439	589	C8H7O2+
147.0438	2	C9H7O2+
148.0516	7	C9H8O2+
151.0753	3	C9H11O2+
163.0752	37	C10H11O2+
