Mass spectrum: Carbosulfan; LC-ESI-QFT; MS2; CE: 120%; R=17500; [M+H]+
Name: Carbosulfan
Name: (2,2-dimethyl-3H-1-benzofuran-7-yl) N-(dibutylamino)sulfanyl-N-methylcarbamate
Formula: C20H32N2O3S
Exact mass: 380.2134
SMILES: CCCCN(CCCC)SN(C)C(=O)OC1=CC=CC2=C1OC(C2)(C)C
InChI: InChI=1S/C20H32N2O3S/c1-6-8-13-22(14-9-7-2)26-21(5)19(23)24-17-12-10-11-16-15-20(3,4)25-18(16)17/h10-12H,6-9,13-15H2,1-5H3
Instrument: Exploris 240 Orbitrap Thermo Scientific
Instrument type: LC-ESI-QFT
Ms type: MS2
Ion mode: POSITIVE
Ionization: ESI
Fragmentation mode: HCD
Collision energy: 120 % (nominal)
Resolution: 17500
Column name: XBridge C18 3.5um, 2.1x50mm, Waters
Retention time: 16.038 min
Base peak: 388.3935
Precursor m/z: 381.2206
Precursor type: [M+H]+
m/z	relative intensity	assigned
55.0544	91	C4H7+
57.0698	611	C4H9+
62.0059	840	CH4NS+
76.0215	999	C2H6NS+
91.0544	118	C7H7+
97.0106	103	C5H5S+
123.044	138	C7H7O2+
