Mass spectrum: Lansoprazole; LC-ESI-QFT; MS2; CE: 120; R=35000; [M-H]-
Name: Lansoprazole
Name: 2-[[3-methyl-4-(2,2,2-trifluoroethoxy)pyridin-2-yl]methylsulfinyl]-1H-benzimidazole
Formula: C16H14F3N3O2S
Exact mass: 369.07588
SMILES: Cc1c(ccnc1CS(=O)c2[nH]c3ccccc3n2)OCC(F)(F)F
InChI: InChI=1S/C16H14F3N3O2S/c1-10-13(20-7-6-14(10)24-9-16(17,18)19)8-25(23)15-21-11-4-2-3-5-12(11)22-15/h2-7H,8-9H2,1H3,(H,21,22)
Instrument: Q Exactive Plus Orbitrap Thermo Scientific
Instrument type: LC-ESI-QFT
Ms type: MS2
Ion mode: NEGATIVE
Ionization: ESI
Fragmentation mode: HCD
Collision energy: 120 (nominal)
Resolution: 35000
Column name: XBridge C18 3.5um, 2.1x50mm, Waters
Retention time: 7.4 min
Base peak: 368.068
Precursor m/z: 368.0686
Precursor type: [M-H]-
m/z	relative intensity	assigned
50.0035	4	C3N-
56.9804	23	C2HS-
57.9757	62	CNS-
61.9706	233	NOS-
64.0192	64	C4H2N-
74.0037	18	C5N-
88.0191	44	C6H2N-
89.027	19	C6H3N-
101.0146	7	C6HN2-
104.038	51	C6H4N2-
106.0172	16	C5H2N2O-
107.9913	6	C5H2NS-
108.9991	3	C5H3NS-
115.0302	999	C7H3N2-
116.038	208	C7H4N2-
117.0459	42	C7H5N2-
120.9991	6	C6H3NS-
132.0329	468	C7H4N2O-
135.0023	47	C6H3N2S-
148.0099	4	C7H4N2S-
162.9972	38	C7H3N2OS-
164.0049	72	C7H4N2OS-
