Mass spectrum: Atenolol-desisopropyl; LC-ESI-QFT; MS2; CE: 60; R=35000; [M+H]+
Name: Atenolol-desisopropyl
Name: 4-(3-Amino-2-hydroxypropoxy)phenylacetamide
Formula: C11H16N2O3
Exact mass: 224.11609
SMILES: c1cc(ccc1CC(=O)N)OCC(CN)O
InChI: InChI=1S/C11H16N2O3/c12-6-9(14)7-16-10-3-1-8(2-4-10)5-11(13)15/h1-4,9,14H,5-7,12H2,(H2,13,15)
Instrument: Q Exactive Plus Orbitrap Thermo Scientific
Instrument type: LC-ESI-QFT
Ms type: MS2
Ion mode: POSITIVE
Ionization: ESI
Fragmentation mode: HCD
Collision energy: 60 (nominal)
Resolution: 35000
Column name: XBridge C18 3.5um, 2.1x50mm, Waters
Retention time: 1.0 min
Base peak: 225.1233
Precursor m/z: 225.1234
Precursor type: [M+H]+
m/z	relative intensity	assigned
53.0386	1	C4H5+
55.0179	2	C3H3O+
56.0495	434	C3H6N+
57.0335	3	C3H5O+
58.0651	1	C3H8N+
74.06	703	C3H8NO+
77.0384	3	C6H5+
79.0542	13	C6H7+
89.0386	14	C7H5+
91.0542	63	C7H7+
93.0699	55	C7H9+
94.0652	2	C6H8N+
95.0492	4	C6H7O+
103.0542	7	C8H7+
105.0336	4	C7H5O+
105.0447	2	C6H5N2+
105.0699	42	C8H9+
106.0652	32	C7H8N+
107.0491	82	C7H7O+
108.081	1	C7H10N+
115.0543	26	C9H7+
116.0494	4	C8H6N+
117.0336	6	C8H5O+
117.0574	6	C8H7N+
117.0699	80	C9H9+
119.0492	84	C8H7O+
119.0855	5	C9H11+
121.0648	132	C8H9O+
122.06	26	C7H8NO+
131.0491	10	C9H7O+
132.057	1	C9H8O+
133.0648	541	C9H9O+
134.06	64	C8H8NO+
135.044	5	C8H7O2+
135.0804	1	C9H11O+
136.0758	6	C8H10NO+
137.0597	7	C8H9O2+
144.0567	3	C10H8O+
144.0809	8	C10H10N+
145.0648	999	C10H9O+
147.044	67	C9H7O2+
147.0805	7	C10H11O+
152.0707	21	C8H10NO2+
155.0604	7	C10H7N2+
161.0598	10	C10H9O2+
162.0662	49	C8H8N3O+
162.0914	40	C10H12NO+
163.0754	17	C10H11O2+
164.0706	49	C9H10NO2+
172.0756	1	C11H10NO+
173.0598	43	C11H9O2+
178.0863	77	C10H12NO2+
180.102	3	C10H14NO2+
182.0813	9	C9H12NO3+
190.0863	45	C11H12NO2+
208.0968	15	C11H14NO3+
225.1231	3	C11H17N2O3+
