Mass spectrum: Mycophenolic acid; LC-ESI-ITFT; MS2; CE: 60%; R=15000; [M+H]+
Name: Mycophenolic acid
Name: (E)-6-(4-hydroxy-3-keto-6-methoxy-7-methyl-phthalan-5-yl)-4-methyl-hex-4-enoic acid
Formula: C17H20O6
Exact mass: 320.1260
SMILES: c12c(c(c(C\C=C(\CCC(O)=O)C)c(c1C)OC)O)C(=O)OC2
InChI: InChI=1S/C17H20O6/c1-9(5-7-13(18)19)4-6-11-15(20)14-12(8-23-17(14)21)10(2)16(11)22-3/h4,20H,5-8H2,1-3H3,(H,18,19)/b9-4+
Instrument: LTQ Orbitrap XL Thermo Scientific
Instrument type: LC-ESI-ITFT
Ms type: MS2
Ion mode: POSITIVE
Ionization: ESI
Fragmentation mode: HCD
Collision energy: 60 % (nominal)
Resolution: 15000
Column name: XBridge C18 3.5um, 2.1x50mm, Waters
Retention time: 9.9 min
Base peak: 321.1329
Precursor m/z: 321.1333
Precursor type: [M+H]+
m/z	relative intensity	assigned
67.0543	1	C5H7+
77.0387	2	C6H5+
79.0542	2	C6H7+
81.0699	10	C6H9+
91.0542	51	C7H7+
93.0702	1	C7H9+
95.0493	2	C6H7O+
103.0543	32	C8H7+
109.0647	3	C7H9O+
131.0492	21	C9H7O+
135.0806	17	C9H11O+
139.0752	1	C8H11O2+
144.1014	1	C7H14NO2+
145.0649	1	C10H9O+
149.0597	5	C9H9O2+
159.0441	695	C10H7O2+
161.0595	4	C10H9O2+
175.0754	10	C11H11O2+
177.0548	120	C10H9O3+
179.0702	20	C10H11O3+
189.0912	1	C12H13O2+
191.0699	2	C11H11O3+
192.0408	1	C10H8O4+
193.0496	5	C10H9O4+
195.0654	47	C10H11O4+
207.0653	999	C11H11O4+
215.1066	8	C14H15O2+
219.0653	4	C12H11O4+
221.0809	7	C12H13O4+
223.0599	6	C11H11O5+
233.0808	2	C13H13O4+
239.1068	5	C16H15O2+
241.1231	2	C16H17O2+
247.0972	2	C14H15O4+
255.0643	1	C15H11O4+
257.117	2	C16H17O3+
259.0968	1	C15H15O4+
261.1121	3	C15H17O4+
267.1012	1	C17H15O3+
270.0888	6	C16H14O4+
275.1284	2	C16H19O4+
285.1128	7	C17H17O4+
