Mass spectrum: Ethofumesate-2-keto; LC-ESI-ITFT; MS2; CE: 75%; R=15000; [M+H]+
Name: Ethofumesate-2-keto
Name: 3,3-Dimethyl-2-oxo-2,3-dihydrobenzofurane-5-yl methane sulfonate
Formula: C11H12O5S
Exact mass: 256.0405
SMILES: CS(=O)(=O)Oc1cc2c(cc1)OC(=O)C2(C)C
InChI: InChI=1S/C11H12O5S/c1-11(2)8-6-7(16-17(3,13)14)4-5-9(8)15-10(11)12/h4-6H,1-3H3
Instrument: LTQ Orbitrap XL Thermo Scientific
Instrument type: LC-ESI-ITFT
Ms type: MS2
Ion mode: POSITIVE
Ionization: ESI
Fragmentation mode: HCD
Collision energy: 75 % (nominal)
Resolution: 15000
Column name: XBridge C18 3.5um, 2.1x50mm, Waters
Retention time: 6.0 min
Base peak: 297.0411
Precursor m/z: 257.0478
Precursor type: [M+H]+
m/z	relative intensity	assigned
77.0386	300	C6H5+
78.985	158	CH3O2S+
79.0543	387	C6H7+
91.0543	393	C7H7+
93.0698	381	C7H9+
94.0413	303	C6H6O+
103.0542	591	C8H7+
105.07	541	C8H9+
107.0491	425	C7H7O+
121.0648	637	C8H9O+
122.0726	529	C8H10O+
123.0441	839	C7H7O2+
131.0491	258	C9H7O+
132.057	349	C9H8O+
135.0443	315	C8H7O2+
149.0596	999	C9H9O2+
150.0675	321	C9H10O2+
160.0517	616	C10H8O2+
161.0597	322	C10H9O2+
163.0392	503	C9H7O3+
177.0548	542	C10H9O3+
201.0217	280	C8H9O4S+
