Mass spectrum: N,O-Didesmethylvenlafaxine; LC-ESI-ITFT; MS2; CE: 90%; R=7500; [M+H]+
Name: N,O-Didesmethylvenlafaxine
Name: 4-[1-(1-Hydroxycyclohexyl)-2-(methylamino)ethyl]phenol
Formula: C15H23NO2
Exact mass: 249.1729
SMILES: OC2(C(c1ccc(O)cc1)CNC)CCCCC2
InChI: InChI=1S/C15H23NO2/c1-16-11-14(12-5-7-13(17)8-6-12)15(18)9-3-2-4-10-15/h5-8,14,16-18H,2-4,9-11H2,1H3
Instrument: LTQ Orbitrap XL Thermo Scientific
Instrument type: LC-ESI-ITFT
Ms type: MS2
Ion mode: POSITIVE
Ionization: ESI
Fragmentation mode: HCD
Collision energy: 90 % (nominal)
Resolution: 7500
Column name: XBridge C18 3.5um, 2.1x50mm, Waters
Retention time: 4.9 min
Base peak: 250.1809
Precursor m/z: 250.1802
Precursor type: [M+H]+
m/z	relative intensity	assigned
67.0542	19	C5H7+
69.0702	13	C5H9+
77.0384	33	C6H5+
79.0543	126	C6H7+
81.07	109	C6H9+
91.0543	59	C7H7+
103.0545	22	C8H7+
105.0699	214	C8H9+
107.0492	999	C7H7O+
115.054	23	C9H7+
117.0701	18	C9H9+
121.0646	31	C8H9O+
131.0492	29	C9H7O+
131.0857	22	C10H11+
133.0649	308	C9H9O+
135.068	38	C8H9NO+
141.0699	18	C11H9+
144.0569	48	C10H8O+
145.0648	69	C10H9O+
147.0797	11	C10H11O+
155.0605	10	C10H7N2+
159.0804	58	C11H11O+
169.0763	12	C11H9N2+
