Mass spectrum: Clothianidin; LC-ESI-ITFT; MS2; CE: 35%; R=30000; [M+H]+
Name: Clothianidin
Name: 1-[(2-chloranyl-1,3-thiazol-5-yl)methyl]-2-methyl-3-nitro-guanidine
Name: 1-[(2-chloro-1,3-thiazol-5-yl)methyl]-2-methyl-3-nitroguanidine
Formula: C6H8ClN5O2S
Exact mass: 249.0087
SMILES: Clc1ncc(s1)CN/C(=N/C)N[N+]([O-])=O
InChI: InChI=1S/C6H8ClN5O2S/c1-8-6(11-12(13)14)10-3-4-2-9-5(7)15-4/h2H,3H2,1H3,(H2,8,10,11)
Instrument: LTQ Orbitrap XL Thermo Scientific
Instrument type: LC-ESI-ITFT
Ms type: MS2
Ion mode: POSITIVE
Ionization: ESI
Fragmentation mode: CID
Collision energy: 35 % (nominal)
Resolution: 30000
Column name: XBridge C18 3.5um, 2.1x50mm, Waters
Retention time: 4.9 min
Base peak: 250.0165
Precursor m/z: 250.016
Precursor type: [M+H]+
m/z	relative intensity	assigned
110.0713	4	C5H8N3+
113.0168	18	C4H5N2S+
119.9669	4	C3H3ClNS+
131.9669	408	C4H3ClNS+
143.051	23	C5H9N3S+
146.9777	10	C4H4ClN2S+
148.9935	4	C4H6ClN2S+
167.0384	2	C6H7N4S+
168.0464	449	C6H8N4S+
169.0541	999	C6H9N4S+
172.9807	22	C5H4ClN3S+
174.9728	5	C5H4ClN2OS+
185.0489	4	C6H9N4OS+
186.9964	9	C6H6ClN3S+
188.004	1	C6H7ClN3S+
203.0151	33	C6H8ClN4S+
204.023	87	C6H9ClN4S+
206.0148	161	C6H9ClN3OS+
220.0178	75	C6H9ClN4OS+
