Mass spectrum: Fluazifop-butyl; LC-ESI-QFT; MS2; CE: 75; R=35000; [M+H]+
Name: Fluazifop-butyl
Name: 2-[4-[[5-(trifluoromethyl)-2-pyridinyl]oxy]phenoxy]propanoic acid butyl ester
Formula: C19H20F3NO4
Exact mass: 383.13444
SMILES: O=C(OCCCC)C(Oc2ccc(Oc1ncc(cc1)C(F)(F)F)cc2)C
InChI: InChI=1S/C19H20F3NO4/c1-3-4-11-25-18(24)13(2)26-15-6-8-16(9-7-15)27-17-10-5-14(12-23-17)19(20,21)22/h5-10,12-13H,3-4,11H2,1-2H3
Instrument: Q Exactive Orbitrap Thermo Scientific
Instrument type: LC-ESI-QFT
Ms type: MS2
Ion mode: POSITIVE
Ionization: ESI
Fragmentation mode: HCD
Collision energy: 75 (nominal)
Resolution: 35000
Column name: XBridge C18 3.5um, 2.1x50mm, Waters
Retention time: 15.1 min
Base peak: 384.1426
Precursor m/z: 384.1417
Precursor type: [M+H]+
m/z	relative intensity	assigned
53.9976	1	C2NO+
55.018	1	C3H3O+
57.07	19	C4H9+
63.0231	1	C5H3+
64.0308	1	C5H4+
65.0387	205	C5H5+
73.0285	5	C3H5O2+
75.0229	10	C6H3+
79.0543	2	C6H7+
81.0338	1	C5H5O+
91.0544	999	C7H7+
92.0258	5	C6H4O+
92.0622	2	C7H8+
93.0336	21	C6H5O+
93.0703	1	C7H9+
94.0415	9	C6H6O+
95.0494	11	C6H7O+
103.0544	5	C8H7+
104.013	1	C6H2NO+
107.0493	5	C7H7O+
109.0287	1	C6H5O2+
109.065	18	C7H9O+
110.0361	2	C6H6O2+
111.0443	36	C6H7O2+
117.0574	2	C8H7N+
118.0652	5	C8H8N+
119.0493	55	C8H7O+
119.0605	5	C7H7N2+
120.0445	2	C7H6NO+
120.0571	9	C8H8O+
121.0286	21	C7H5O2+
121.0398	1	C6H5N2O+
121.065	8	C8H9O+
130.0656	3	C9H8N+
131.0493	10	C9H7O+
135.0445	1	C8H7O2+
140.0496	1	C10H6N+
141.0575	62	C10H7N+
144.0261	4	C6H4F2NO+
145.0336	2	C6H5F2NO+
146.0216	11	C6H3F3N+
147.0293	28	C6H4F3N+
148.0372	5	C6H5F3N+
152.0433	1	C9H6F2+
157.0889	8	C11H11N+
158.0603	21	C10H8NO+
159.0482	2	C10H6FN+
161.0452	2	C7H6F3N+
163.0244	10	C6H4F3NO+
164.032	148	C6H5F3NO+
167.0733	19	C12H9N+
168.0446	7	C11H6NO+
169.0523	16	C11H7NO+
170.0603	2	C11H8NO+
172.0373	7	C8H5F3N+
178.0475	2	C7H7F3NO+
179.0191	55	C6H4F3NO2+
180.0384	8	C10H6F2O+
181.046	1	C10H7F2O+
183.0421	3	C10H6F3+
185.045	10	C9H6F3N+
185.0839	1	C12H11NO+
186.0527	11	C9H7F3N+
186.0715	6	C12H9FN+
188.0432	1	C12H6F2+
188.0509	17	C11H7FNO+
190.0467	34	C11H6F2N+
196.0563	1	C10H8F2NO+
198.0529	38	C10H7F3N+
199.0609	2	C10H8F3N+
200.0321	1	C9H5F3NO+
200.0443	1	C10H7F3O+
201.041	2	C11H7NO3+
202.0474	2	C9H7F3NO+
207.0494	7	C11H7F2NO+
208.0576	4	C8H9F3NO2+
209.0451	10	C11H6F3N+
210.0529	22	C11H7F3N+
211.0607	32	C11H8F3N+
212.0699	10	C13H10NO2+
213.0791	6	C10H12FNO3+
214.0482	1	C10H7F3NO+
214.0669	4	C13H9FNO+
216.0462	1	C9H8F2NO3+
218.0417	81	C12H6F2NO+
222.0533	1	C12H7F3N+
226.0476	18	C11H7F3NO+
226.0842	19	C12H11F3N+
227.0557	235	C11H8F3NO+
228.0638	2	C11H9F3NO+
234.0357	1	C12H6F2NO2+
234.0727	1	C13H10F2NO+
235.0608	17	C13H8F3N+
236.0685	20	C13H9F3N+
237.0395	1	C12H6F3NO+
238.0479	713	C12H7F3NO+
239.0556	5	C12H8F3NO+
240.0633	5	C12H9F3NO+
254.0428	322	C12H7F3NO2+
254.0789	72	C13H11F3NO+
255.0506	18	C12H8F3NO2+
256.0584	54	C12H9F3NO2+
264.0635	5	C14H9F3NO+
267.0507	5	C13H8F3NO2+
282.0742	27	C14H11F3NO2+
