Mass spectrum: Flocoumafen; LC-ESI-QFT; MS2; CE: 180%; R=17500; [M+H]+
Name: Flocoumafen
Name: 4-hydroxy-3-[3-[4-[[4-(trifluoromethyl)phenyl]methoxy]phenyl]-1,2,3,4-tetrahydronaphthalen-1-yl]chromen-2-one
Formula: C33H25F3O4
Exact mass: 542.1705
SMILES: C1C(CC2=CC=CC=C2C1C3=C(C4=CC=CC=C4OC3=O)O)C5=CC=C(C=C5)OCC6=CC=C(C=C6)C(F)(F)F
InChI: InChI=1S/C33H25F3O4/c34-33(35,36)24-13-9-20(10-14-24)19-39-25-15-11-21(12-16-25)23-17-22-5-1-2-6-26(22)28(18-23)30-31(37)27-7-3-4-8-29(27)40-32(30)38/h1-16,23,28,37H,17-19H2
Instrument: Exploris 240 Orbitrap Thermo Scientific
Instrument type: LC-ESI-QFT
Ms type: MS2
Ion mode: POSITIVE
Ionization: ESI
Fragmentation mode: HCD
Collision energy: 180 % (nominal)
Resolution: 17500
Column name: XBridge C18 3.5um, 2.1x50mm, Waters
Retention time: 15.796 min
Base peak: 543.1776
Precursor m/z: 543.1778
Precursor type: [M+H]+
m/z	relative intensity	assigned
59.0292	66	C3H4F+
62.0151	40	C5H2+
63.0229	311	C5H3+
64.0307	24	C5H4+
65.0385	239	C5H5+
74.0151	38	C6H2+
75.0041	20	C3HF2+
75.0229	71	C6H3+
77.0022	24	C5HO+
77.0385	108	C6H5+
78.0465	15	C6H6+
81.0135	19	C5H2F+
83.0291	999	C5H4F+
89.0385	377	C7H5+
90.0465	49	C7H6+
91.0543	42	C7H7+
93.0135	62	C6H2F+
95.0491	68	C6H7O+
98.0151	187	C8H2+
99.0229	294	C8H3+
102.0464	38	C8H6+
107.0292	21	C7H4F+
108.0373	10	C7H5F+
109.0448	651	C7H6F+
113.0199	17	C6H3F2+
115.054	51	C9H7+
119.0292	26	C8H4F+
127.0541	15	C10H7+
128.0619	60	C10H8+
138.0275	14	C8H4F2+
152.0619	26	C12H8+
165.0696	17	C13H9+
