Mass spectrum: Flufenacet ESA; LC-ESI-ITFT; MS2; CE: 35%; R=7500; [M+H]+
Name: Flufenacet ESA
Name: 2-[(4-Fluorophenyl)(isopropyl)amino]-2-oxoethanesulfonic acid
Formula: C11H14FNO4S
Exact mass: 275.0628
SMILES: Fc1ccc(cc1)N(C(C)C)C(=O)CS(O)(=O)=O
InChI: InChI=1S/C11H14FNO4S/c1-8(2)13(11(14)7-18(15,16)17)10-5-3-9(12)4-6-10/h3-6,8H,7H2,1-2H3,(H,15,16,17)
Instrument: LTQ Orbitrap XL Thermo Scientific
Instrument type: LC-ESI-ITFT
Ms type: MS2
Ion mode: POSITIVE
Ionization: ESI
Fragmentation mode: CID
Collision energy: 35 % (nominal)
Resolution: 7500
Column name: XBridge C18 3.5um, 2.1x50mm, Waters
Retention time: 6.0 min
Base peak: 276.0707
Precursor m/z: 276.07
Precursor type: [M+H]+
m/z	relative intensity	assigned
112.0556	6	C6H7FN+
216.0122	6	C8H7FNO3S+
234.0233	999	C8H9FNO4S+
