Mass spectrum: Flurtamone; LC-ESI-QFT; MS2; CE: 180; R=35000; [M-H]-
Name: Flurtamone
Name: 5-(methylamino)-2-phenyl-4-[3-(trifluoromethyl)phenyl]furan-3-one
Formula: C18H14F3NO2
Exact mass: 333.09766
SMILES: CNC1=C(C(=O)C(O1)C2=CC=CC=C2)C3=CC(=CC=C3)C(F)(F)F
InChI: InChI=1S/C18H14F3NO2/c1-22-17-14(12-8-5-9-13(10-12)18(19,20)21)15(23)16(24-17)11-6-3-2-4-7-11/h2-10,16,22H,1H3
Instrument: Q Exactive Plus Orbitrap Thermo Scientific
Instrument type: LC-ESI-QFT
Ms type: MS2
Ion mode: NEGATIVE
Ionization: ESI
Fragmentation mode: HCD
Collision energy: 180 (nominal)
Resolution: 35000
Column name: XBridge C18 3.5um, 2.1x50mm, Waters
Retention time: 10.1 min
Base peak: 332.0898
Precursor m/z: 332.0904
Precursor type: [M-H]-
m/z	relative intensity	assigned
50.0035	289	C3N-
65.0033	8	C4HO-
65.9986	5	C3NO-
66.9989	75	C4F-
68.9958	51	CF3-
70.9939	8	C3FO-
73.0084	105	C6H-
74.0037	43	C5N-
75.0242	5	C6H3-
85.0083	19	C7H-
90.9989	8	C6F-
96.0006	142	C8-
97.0083	999	C8H-
98.0036	31	C7N-
99.024	10	C8H3-
108.0006	22	C9-
109.0084	75	C9H-
109.9974	37	C6F2-
113.0272	3	C8H3N-
114.0348	5	C8H4N-
117.0147	51	C8H2F-
122.0036	512	C9N-
129.0145	19	C9H2F-
135.0051	28	C8HF2-
136.0131	8	C8H2F2-
137.0204	4	C8H3F2-
142.0098	30	C9HFN-
145.0093	9	C9H2FO-
162.016	5	C9H2F2N-
