Mass spectrum: Pheniramine; LC-ESI-QFT; MS2; CE: 180; R=35000; [M+H]+
Name: Pheniramine
Name: N,N-dimethyl-3-phenyl-3-pyridin-2-ylpropan-1-amine
Formula: C16H20N2
Exact mass: 240.16265
SMILES: CN(C)CCC(C1=CC=CC=C1)C2=CC=CC=N2
InChI: InChI=1S/C16H20N2/c1-18(2)13-11-15(14-8-4-3-5-9-14)16-10-6-7-12-17-16/h3-10,12,15H,11,13H2,1-2H3
Instrument: Q Exactive Plus Orbitrap Thermo Scientific
Instrument type: LC-ESI-QFT
Ms type: MS2
Ion mode: POSITIVE
Ionization: ESI
Fragmentation mode: HCD
Collision energy: 180 (nominal)
Resolution: 35000
Column name: XBridge C18 3.5um, 2.1x50mm, Waters
Retention time: 3.7 min
Base peak: 241.1697
Precursor m/z: 241.1699
Precursor type: [M+H]+
m/z	relative intensity	assigned
50.0151	41	C4H2+
51.0229	34	C4H3+
52.0182	5	C3H2N+
52.0307	3	C4H4+
53.0022	8	C3HO+
53.0386	12	C4H5+
62.0151	17	C5H2+
63.0229	61	C5H3+
64.0307	5	C5H4+
65.0386	287	C5H5+
66.0464	25	C5H6+
67.0416	6	C4H5N+
74.0149	5	C6H2+
75.0229	23	C6H3+
77.0385	21	C6H5+
78.0338	100	C5H4N+
79.0417	16	C5H5N+
80.0494	5	C5H6N+
88.0307	21	C7H4+
89.0386	218	C7H5+
90.0464	106	C7H6+
91.0542	334	C7H7+
92.0494	17	C6H6N+
93.0573	38	C6H7N+
95.0366	3	C5H5NO+
95.0491	32	C6H7O+
96.0444	110	C5H6NO+
101.0386	8	C8H5+
102.0464	21	C8H6+
103.0542	3	C8H7+
104.0495	13	C7H6N+
105.0448	20	C6H5N2+
110.06	8	C6H8NO+
113.0386	68	C9H5+
114.0464	41	C9H6+
115.0542	234	C9H7+
116.0495	37	C8H6N+
116.062	1	C9H8+
117.0573	377	C8H7N+
118.0651	366	C8H8N+
119.0491	6	C8H7O+
126.0464	16	C10H6+
127.0417	7	C9H5N+
127.054	5	C10H7+
128.0494	34	C9H6N+
128.0621	6	C10H8+
129.0447	20	C8H5N2+
130.0402	1	C7H4N3+
130.0651	2	C9H8N+
132.057	11	C9H8O+
134.0601	3	C8H8NO+
138.0464	9	C11H6+
139.0542	999	C11H7+
140.0495	418	C10H6N+
140.0618	72	C11H8+
141.0572	16	C10H7N+
141.0697	7	C11H9+
145.0647	1	C10H9O+
146.0598	3	C9H8NO+
152.062	43	C12H8+
153.0574	1	C11H7N+
154.0651	3	C11H8N+
155.0604	8	C10H7N2+
164.0494	22	C12H6N+
165.0574	31	C12H7N+
165.0697	12	C13H9+
166.0651	670	C12H8N+
167.073	390	C12H9N+
169.0648	7	C12H9O+
178.0651	9	C13H8N+
179.0605	1	C12H7N2+
179.0729	3	C13H9N+
180.0805	9	C13H10N+
183.0676	1	C12H9NO+
184.0758	8	C12H10NO+
191.0728	18	C14H9N+
192.0806	15	C14H10N+
193.0886	10	C14H11N+
