Mass spectrum: Aminopyrine; LC-ESI-ITFT; MS2; CE: 75%; R=15000; [M+H]+
Name: Aminopyrine
Name: 4-(dimethylamino)-1,5-dimethyl-2-phenyl-3-pyrazolin-3-one
Formula: C13H17N3O
Exact mass: 231.1372
SMILES: c(ccc1N(N(C=2C)C)C(=O)C2N(C)C)cc1
InChI: InChI=1S/C13H17N3O/c1-10-12(14(2)3)13(17)16(15(10)4)11-8-6-5-7-9-11/h5-9H,1-4H3
Instrument: LTQ Orbitrap XL Thermo Scientific
Instrument type: LC-ESI-ITFT
Ms type: MS2
Ion mode: POSITIVE
Ionization: ESI
Fragmentation mode: HCD
Collision energy: 75 % (nominal)
Resolution: 15000
Column name: XBridge C18 3.5um, 2.1x50mm, Waters
Retention time: 2.6 min
Base peak: 232.1453
Precursor m/z: 232.1444
Precursor type: [M+H]+
m/z	relative intensity	assigned
56.0495	409	C3H6N+
58.0652	526	C3H8N+
68.0495	10	C4H6N+
70.0652	279	C4H8N+
72.0808	287	C4H10N+
77.0387	15	C6H5+
79.0544	5	C6H7+
82.0652	42	C5H8N+
83.0604	25	C4H7N2+
84.0444	7	C4H6NO+
84.0679	8	C4H8N2+
84.0809	51	C5H10N+
87.0916	9	C4H11N2+
96.0687	5	C5H8N2+
97.0761	999	C5H9N2+
98.0839	194	C5H10N2+
99.0918	20	C5H11N2+
104.0495	6	C7H6N+
106.0652	158	C7H8N+
111.0918	188	C6H11N2+
113.1074	67	C6H13N2+
118.0652	56	C8H8N+
123.0553	11	C6H7N2O+
128.0498	7	C9H6N+
130.0649	6	C9H8N+
132.0444	22	C8H6NO+
132.0806	8	C9H10N+
133.076	11	C8H9N2+
146.0602	6	C9H8NO+
149.1076	12	C9H13N2+
159.0916	15	C10H11N2+
187.0872	4	C11H11N2O+
199.0871	6	C12H11N2O+
216.1131	15	C12H14N3O+
