Mass spectrum: MCLA; LC-ESI-QFT; MS2; CE: 60%; R=17500; [M+H]+
Name: MCLA
Name: Microcystin LA
Name: (5R,8S,11R,12S,15S,18S,19S,22R)-18-[(1E,3E,5S,6S)-6-methoxy-3,5-dimethyl-7-phenylhepta-1,3-dienyl]-1,5,12,15,19-pentamethyl-2-methylidene-8-(2-methylpropyl)-3,6,9,13,16,20,25-heptaoxo-1,4,7,10,14,17,21-heptazacyclopentacosane-11,22-dicarboxylic acid
Class: NA
Formula: C46H67N7O12
Exact mass: 909.4848
SMILES: CO[C@@H](Cc1ccccc1)[C@@H](C)\C=C(C)\C=C\[C@@H]2NC(=O)[C@H](C)NC(=O)[C@@H](C)[C@@H](NC(=O)[C@H](CC(C)C)NC(=O)[C@@H](C)NC(=O)C(=C)N(C)C(=O)CC[C@@H](NC(=O)[C@H]2C)C(O)=O)C(O)=O
InChI: InChI=1S/C46H67N7O12/c1-24(2)21-35-44(60)52-38(46(63)64)28(6)40(56)47-29(7)41(57)49-33(18-17-25(3)22-26(4)36(65-11)23-32-15-13-12-14-16-32)27(5)39(55)50-34(45(61)62)19-20-37(54)53(10)31(9)43(59)48-30(8)42(58)51-35/h12-18,22,24,26-30,33-36,38H,9,19-21,23H2,1-8,10-11H3,(H,47,56)(H,48,59)(H,49,57)(H,50,55)(H,51,58)(H,52,60)(H,61,62)(H,63,64)/b18-17+,25-22+/t26-,27-,28-,29-,30+,33-,34+,35-,36-,38+/m0/s1
Instrument: Q Exactive Plus Orbitrap Thermo Scientific
Instrument type: LC-ESI-QFT
Ms type: MS2
Ion mode: POSITIVE
Ionization: ESI
Fragmentation mode: HCD
Collision energy: 60 % (nominal)
Resolution: 17500
Column name: XBridge C18 3.5um, 2.1x50mm, Waters
Retention time: 10.516 min
Base peak: 164.9846
Precursor m/z: 910.492
Precursor type: [M+H]+
m/z	relative intensity	assigned
65.0386	22	C5H5+
67.0543	18	C5H7+
69.0335	50	C4H5O+
69.0698	15	C5H9+
70.0651	12	C4H8N+
74.0237	11	C2H4NO2+
77.0386	13	C6H5+
79.0542	145	C6H7+
80.0494	15	C5H6N+
81.0698	11	C6H9+
82.0287	15	C4H4NO+
82.0651	89	C5H8N+
84.0444	160	C4H6NO+
84.0808	16	C5H10N+
86.06	12	
86.0964	426	C5H12N+
89.0708	10	C3H9N2O+
91.0543	349	C7H7+
93.0699	203	C7H9+
94.0651	22	C6H8N+
95.0491	64	C6H7O+
95.0856	24	C7H11+
96.0807	14	C6H10N+
99.0917	94	C5H11N2+
102.055	19	C4H8NO2+
103.0542	414	C8H7+
105.045	25	C6H5N2+
105.0699	408	C8H9+
107.0855	999	C8H11+
108.0682	6	C6H8N2+
108.0809	11	C7H10N+
109.0649	43	C7H9O+
110.0601	56	C6H8NO+
110.0963	9	C7H12N+
112.0394	6	C5H6NO2+
112.0759	10	C6H10NO+
112.112	13	C7H14N+
113.0232	33	C5H5O3+
113.0711	5	C5H9N2O+
115.0544	54	C9H7+
117.0698	138	C9H9+
119.0604	22	C7H7N2+
119.0855	55	C9H11+
120.0571	7	C8H8O+
120.0808	15	C8H10N+
120.0933	8	C9H12+
121.0759	31	C7H9N2+
121.1013	15	C9H13+
122.0599	11	C7H8NO+
122.0966	16	C8H12N+
123.0916	18	C7H11N2+
124.0757	24	C7H10NO+
124.1121	29	C8H14N+
125.0709	12	C6H9N2O+
127.0866	780	C6H11N2O+
128.0619	20	C10H8+
128.0707	37	C6H10NO2+
129.0698	30	C10H9+
130.0499	31	C5H8NO3+
130.0652	12	C9H8N+
130.0775	6	C10H10+
131.0855	67	C10H11+
132.0809	11	C9H10N+
133.1012	44	C10H13+
135.0804	402	C9H11O+
135.1167	343	C10H15+
138.0549	85	C7H8NO2+
139.0867	14	C7H11N2O+
140.0706	10	C7H10NO2+
143.0855	36	C11H11+
145.101	58	C11H13+
146.0962	30	C10H12N+
146.1086	10	C11H14+
149.071	60	C8H9N2O+
151.0868	7	C8H11N2O+
153.102	7	C8H13N2O+
155.0814	133	C7H11N2O2+
156.0653	38	C7H10NO3+
157.1016	5	C12H13+
157.1335	13	C8H17N2O+
158.0961	5	C11H12N+
159.0805	10	C11H11O+
159.1168	12	C12H15+
160.1118	8	C11H14N+
161.0962	21	C11H13O+
162.1277	16	C11H16N+
163.1118	119	C11H15O+
166.0776	4	C13H10+
167.0816	231	C8H11N2O2+
168.0653	18	C8H10NO3+
169.1001	7	C13H13+
173.0924	81	C7H13N2O3+
180.0931	12	C14H12+
181.1333	19	C10H17N2O+
188.1069	6	C12H14NO+
188.1439	12	C13H18N+
195.0767	97	C9H11N2O3+
196.0604	15	C9H10NO4+
209.1309	8	CH23NO10+
213.0874	139	C9H13N2O4+
226.1586	24	C16H20N+
239.0665	14	C10H11N2O5+
