Mass spectrum: Benproperine; LC-ESI-QFT; MS2; CE: 75; R=35000; [M+H]+
Name: Benproperine
Name: 1-[1-(2-benzylphenoxy)propan-2-yl]piperidine
Formula: C21H27NO
Exact mass: 309.20926
SMILES: CC(COC1=CC=CC=C1CC2=CC=CC=C2)N3CCCCC3
InChI: InChI=1S/C21H27NO/c1-18(22-14-8-3-9-15-22)17-23-21-13-7-6-12-20(21)16-19-10-4-2-5-11-19/h2,4-7,10-13,18H,3,8-9,14-17H2,1H3
Instrument: Q Exactive Orbitrap Thermo Scientific
Instrument type: LC-ESI-QFT
Ms type: MS2
Ion mode: POSITIVE
Ionization: ESI
Fragmentation mode: HCD
Collision energy: 75 (nominal)
Resolution: 35000
Column name: XBridge C18 3.5um, 2.1x50mm, Waters
Retention time: 8.8 min
Base peak: 310.2167
Precursor m/z: 310.2165
Precursor type: [M+H]+
m/z	relative intensity	assigned
56.0495	1	C3H6N+
57.0574	1	C3H7N+
58.0652	56	C3H8N+
65.0386	19	C5H5+
67.0542	15	C5H7+
67.9893	1	C3O2+
68.0495	1	C4H6N+
69.0699	130	C5H9+
70.0651	112	C4H8N+
72.0808	28	C4H10N+
77.0385	5	C6H5+
79.0542	26	C6H7+
82.065	5	C5H8N+
84.0808	632	C5H10N+
85.0886	87	C5H11N+
86.0964	210	C5H12N+
91.0542	999	C7H7+
94.0651	1	C6H8N+
95.0491	16	C6H7O+
96.0808	27	C6H10N+
98.0964	36	C6H12N+
103.0542	1	C8H7+
105.0448	10	C6H5N2+
105.0698	3	C8H9+
107.0492	116	C7H7O+
110.0965	3	C7H12N+
111.1042	14	C7H13N+
112.1121	12	C7H14N+
115.0542	14	C9H7+
116.062	3	C9H8+
117.0698	4	C9H9+
119.0492	4	C8H7O+
119.0856	19	C9H11+
124.1121	40	C8H14N+
126.1277	339	C8H16N+
128.0619	5	C10H8+
129.0699	15	C10H9+
131.0856	11	C10H11+
132.057	4	C9H8O+
141.0698	13	C11H9+
145.0649	2	C10H9O+
147.0804	6	C10H11O+
152.0621	36	C12H8+
153.0699	40	C12H9+
154.0778	13	C12H10+
155.0604	3	C10H7N2+
155.0855	69	C12H11+
164.0621	1	C13H8+
165.0699	171	C13H9+
166.0778	10	C13H10+
167.0855	3	C13H11+
168.057	10	C12H8O+
169.0645	1	C12H9O+
176.1071	4	C11H14NO+
181.0647	22	C13H9O+
182.0727	7	C13H10O+
183.0805	40	C13H11O+
193.0761	13	C13H9N2+
