Mass spectrum: Oseltamivir; LC-ESI-ITFT; MS2; CE: 60%; R=7500; [M+H]+
Name: Oseltamivir
Name: (3R,4R,5S)-4-acetamido-5-amino-3-(1-ethylpropoxy)cyclohexene-1-carboxylic acid ethyl ester
Formula: C16H28N2O4
Exact mass: 312.2049
SMILES: CCC(CC)OC1C=C(CC(C1NC(=O)C)N)C(=O)OCC
InChI: InChI=1S/C16H28N2O4/c1-5-12(6-2)22-14-9-11(16(20)21-7-3)8-13(17)15(14)18-10(4)19/h9,12-15H,5-8,17H2,1-4H3,(H,18,19)/t13-,14+,15+/m0/s1
Instrument: LTQ Orbitrap XL Thermo Scientific
Instrument type: LC-ESI-ITFT
Ms type: MS2
Ion mode: POSITIVE
Ionization: ESI
Fragmentation mode: HCD
Collision energy: 60 % (nominal)
Resolution: 7500
Column name: XBridge C18 3.5um, 2.1x50mm, Waters
Retention time: 7.0 min
Base peak: 313.2132
Precursor m/z: 313.2122
Precursor type: [M+H]+
m/z	relative intensity	assigned
60.0444	14	C2H6NO+
65.0385	57	C5H5+
67.0542	62	C5H7+
68.0496	23	C4H6N+
77.0385	13	C6H5+
80.0495	24	C5H6N+
82.0652	24	C5H8N+
83.0493	12	C5H7O+
92.0495	132	C6H6N+
93.0336	111	C6H5O+
93.0574	70	C6H7N+
94.0652	593	C6H8N+
95.049	35	C6H7O+
108.0448	7	C6H6NO+
109.076	175	C6H9N2+
110.0599	50	C6H8NO+
111.0441	42	C6H7O2+
112.0392	8	C5H6NO2+
119.0603	23	C7H7N2+
120.0444	999	C7H6NO+
122.0966	21	C8H12N+
123.0809	8	C8H11O+
133.0756	15	C8H9N2+
134.0606	20	C8H8NO+
136.0756	61	C8H10NO+
137.0709	410	C7H9N2O+
138.055	271	C7H8NO2+
138.0914	19	C8H12NO+
139.0384	12	C7H7O3+
140.0706	5	C7H10NO2+
151.0863	7	C8H11N2O+
154.0858	8	C8H12NO2+
155.0822	8	C7H11N2O2+
161.0709	21	C9H9N2O+
162.0551	62	C9H8NO2+
166.0863	886	C9H12NO2+
180.0651	15	C9H10NO3+
183.1126	10	C9H15N2O2+
