Mass spectrum: FK-506; LC-ESI-QFT; MS2; CE: 180; R=35000; [M+H]+
Name: FK-506
Name: Tacrolimus
Name: (1R,9S,12S,13R,14S,17R,21S,23S,24R,25S,27R)-17-Allyl-1,14-dihydroxy-12-{(1E)-1-[(1R,3R,4R)-4-hydroxy-3-methoxycyclohexyl]-1-propen-2-yl}-23,25-dimethoxy-13,19,21,27-tetramethyl-11,28-dioxa-4-azatricyc lo[22.3.1.0 4,9]octacos-18-ene-2,3,10,16-tetrone
Formula: C44H69NO12
Exact mass: 803.48198
SMILES: CC1CC(C2C(CC(C(O2)(C(=O)C(=O)N3CCCCC3C(=O)OC(C(C(CC(=O)C(C=C(C1)C)CC=C)O)C)C(=CC4CCC(C(C4)OC)O)C)O)C)OC)OC
InChI: InChI=1S/C44H69NO12/c1-10-13-31-19-25(2)18-26(3)20-37(54-8)40-38(55-9)22-28(5)44(52,57-40)41(49)42(50)45-17-12-11-14-32(45)43(51)56-39(29(6)34(47)24-35(31)48)27(4)21-30-15-16-33(46)36(23-30)53-7/h10,19,21,26,28-34,36-40,46-47,52H,1,11-18,20,22-24H2,2-9H3/b25-19-,27-21+/t26-,28+,29+,30-,31+,32-,33+,34-,36+,37-,38-,39+,40+,44+/m0/s1
Instrument: Q Exactive Plus Orbitrap Thermo Scientific
Instrument type: LC-ESI-QFT
Ms type: MS2
Ion mode: POSITIVE
Ionization: ESI
Fragmentation mode: HCD
Collision energy: 180 (nominal)
Resolution: 35000
Column name: XBridge C18 3.5um, 2.1x50mm, Waters
Retention time: 15.3 min
Base peak: 279.159
Precursor m/z: 804.4893
Precursor type: [M+H]+
m/z	relative intensity	assigned
56.0495	231	C3H6N+
57.0335	2	C3H5O+
57.0699	2	C4H9+
59.0492	6	C3H7O+
63.0229	14	C5H3+
65.0386	344	C5H5+
66.0464	26	C5H6+
67.0179	14	C4H3O+
67.0542	225	C5H7+
68.0257	2	C4H4O+
68.0496	6	C4H6N+
68.9971	10	C3HO2+
69.0335	34	C4H5O+
69.0573	11	C4H7N+
69.0699	9	C5H9+
71.0127	21	C3H3O2+
71.0491	12	C4H7O+
77.0386	83	C6H5+
78.0464	49	C6H6+
79.0542	412	C6H7+
80.0494	2	C5H6N+
80.0621	8	C6H8+
81.0335	72	C5H5O+
81.0699	57	C6H9+
82.0289	1	C4H4NO+
82.0414	9	C5H6O+
82.0652	17	C5H8N+
83.0491	13	C5H7O+
84.0808	412	C5H10N+
85.0284	1	C4H5O2+
85.0649	13	C5H9O+
89.0386	10	C7H5+
91.0543	999	C7H7+
92.0621	13	C7H8+
93.0699	62	C7H9+
94.0414	21	C6H6O+
94.0653	1	C6H8N+
95.0492	449	C6H7O+
96.057	5	C6H8O+
97.0284	2	C5H5O2+
97.0649	3	C6H9O+
101.0596	1	C5H9O2+
102.0464	17	C8H6+
103.0543	138	C8H7+
104.062	32	C8H8+
105.0448	240	C6H5N2+
105.07	252	C8H9+
106.0416	1	C7H6O+
107.0492	21	C7H7O+
107.0856	16	C8H11+
108.0569	2	C7H8O+
109.0285	229	C6H5O2+
109.0649	32	C7H9O+
111.0441	3	C6H7O2+
115.0543	374	C9H7+
116.0621	65	C9H8+
117.0699	111	C9H9+
118.0777	3	C9H10+
119.0491	6	C8H7O+
119.0606	3	C7H7N2+
119.0856	51	C9H11+
121.0649	17	C8H9O+
126.0465	7	C10H6+
127.0542	29	C10H7+
128.0621	447	C10H8+
129.0699	180	C10H9+
130.0778	27	C10H10+
131.0492	23	C9H7O+
131.0855	28	C10H11+
132.057	3	C9H8O+
133.0649	9	C9H9O+
135.0443	3	C8H7O2+
135.0807	3	C9H11O+
139.0544	7	C11H7+
140.0618	1	C11H8+
141.0699	258	C11H9+
142.0778	64	C11H10+
143.0857	27	C11H11+
144.057	6	C10H8O+
144.0934	3	C11H12+
145.0649	46	C10H9O+
145.1015	3	C11H13+
147.0804	2	C10H11O+
152.0621	91	C12H8+
153.07	113	C12H9+
154.0778	29	C12H10+
155.0604	59	C10H7N2+
155.0856	63	C12H11+
156.0936	6	C12H12+
157.0647	11	C11H9O+
157.1012	2	C12H13+
158.0723	1	C11H10O+
159.0806	5	C11H11O+
165.07	154	C13H9+
166.0779	27	C13H10+
167.0855	31	C13H11+
168.057	8	C12H8O+
168.093	5	C13H12+
169.0652	12	C12H9O+
169.1012	3	C13H13+
171.0802	2	C12H11O+
176.0619	2	C14H8+
177.0698	7	C14H9+
178.0778	78	C14H10+
179.0856	26	C14H11+
180.0936	2	C14H12+
181.0648	15	C13H9O+
181.1013	2	C14H13+
182.0726	2	C13H10O+
183.0804	2	C13H11O+
189.0699	25	C15H9+
190.0778	11	C15H10+
191.0857	19	C15H11+
192.0934	8	C15H12+
193.1013	1	C15H13+
194.0732	2	C14H10O+
195.08	2	C14H11O+
202.0779	18	C16H10+
203.0854	15	C16H11+
204.0935	2	C16H12+
205.0649	1	C15H9O+
205.1011	3	C16H13+
207.0802	2	C15H11O+
215.0857	10	C17H11+
216.0937	2	C17H12+
229.1017	2	C18H13+
