Mass spectrum: Acetochlor; LC-ESI-ITFT; MS2; CE: 30%; R=7500; [M+H]+
Name: Acetochlor
Name: 2-chloranyl-N-(ethoxymethyl)-N-(2-ethyl-6-methyl-phenyl)ethanamide
Formula: C14H20ClNO2
Exact mass: 269.1177
SMILES: CCOCN(C(=O)CCl)C1=C(C)C=CC=C1CC
InChI: InChI=1S/C14H20ClNO2/c1-4-12-8-6-7-11(3)14(12)16(10-18-5-2)13(17)9-15/h6-8H,4-5,9-10H2,1-3H3
Instrument: LTQ Orbitrap XL Thermo Scientific
Instrument type: LC-ESI-ITFT
Ms type: MS2
Ion mode: POSITIVE
Ionization: ESI
Fragmentation mode: HCD
Collision energy: 30 % (nominal)
Resolution: 7500
Column name: XBridge C18 3.5um, 2.1x50mm, Waters
Retention time: 11.7 min
Base peak: 292.1079
Precursor m/z: 270.1255
Precursor type: [M+H]+
m/z	relative intensity	assigned
59.0491	32	C3H7O+
90.0106	18	C3H5ClN+
131.0857	36	C10H11+
148.112	646	C10H14N+
149.0958	16	C10H13O+
194.0728	37	C14H10O+
206.073	25	C12H13ClN+
210.0682	36	C11H13ClNO+
224.0835	999	C12H15ClNO+
270.1262	28	C14H21ClNO2+
