Mass spectrum: Triadimefon; LC-ESI-QFT; MS2; CE: 30%; R=17500; [M+H]+
Name: Triadimefon
Name: 1-(4-chlorophenoxy)-3,3-dimethyl-1-(1,2,4-triazol-1-yl)butan-2-one
Formula: C14H16ClN3O2
Exact mass: 293.0931
SMILES: CC(C)(C)C(=O)C(N1C=NC=N1)OC2=CC=C(C=C2)Cl
InChI: InChI=1S/C14H16ClN3O2/c1-14(2,3)12(19)13(18-9-16-8-17-18)20-11-6-4-10(15)5-7-11/h4-9,13H,1-3H3
Instrument: Exploris 240 Orbitrap Thermo Scientific
Instrument type: LC-ESI-QFT
Ms type: MS2
Ion mode: POSITIVE
Ionization: ESI
Fragmentation mode: HCD
Collision energy: 30 % (nominal)
Resolution: 17500
Column name: XBridge C18 3.5um, 2.1x50mm, Waters
Retention time: 8.986 min
Base peak: 294.1001
Precursor m/z: 294.1004
Precursor type: [M+H]+
m/z	relative intensity	assigned
57.0699	120	C4H9+
69.0699	445	C5H9+
115.0754	63	C6H11O2+
129.0102	42	C6H6ClO+
141.0101	72	C7H6ClO+
155.0258	29	C8H8ClO+
197.0727	999	C11H14ClO+
225.0677	214	C12H14ClO2+
294.1006	156	C14H17ClN3O2+
