Mass spectrum: Trifloxystrobin; LC-ESI-QFT; MS2; CE: 90; R=35000; [M+H]+
Name: Trifloxystrobin
Name: Benzeneacetic acid, alpha-(methoxyimino)-2-((((1-(3-(trifluoromethyl)phenyl)ethylidene)amino)oxy)methyl)-, methyl ester, (E,E)-
Name: (2Z)-2-methoxyimino-2-[2-[[(E)-1-[3-(trifluoromethyl)phenyl]ethylideneamino]oxymethyl]phenyl]acetic acid methyl ester
Formula: C20H19F3N2O4
Exact mass: 408.12969
SMILES: c1(C(F)(F)F)cc(ccc1)\C(=N\OCc1c(cccc1)\C(C(=O)OC)=N\OC)C
InChI: InChI=1S/C20H19F3N2O4/c1-13(14-8-6-9-16(11-14)20(21,22)23)24-29-12-15-7-4-5-10-17(15)18(25-28-3)19(26)27-2/h4-11H,12H2,1-3H3/b24-13+,25-18-
Instrument: Q Exactive Orbitrap Thermo Scientific
Instrument type: LC-ESI-QFT
Ms type: MS2
Ion mode: POSITIVE
Ionization: ESI
Fragmentation mode: HCD
Collision energy: 90 (nominal)
Resolution: 35000
Column name: XBridge C18 3.5um, 2.1x50mm, Waters
Retention time: 14.7 min
Base peak: 409.1362
Precursor m/z: 409.137
Precursor type: [M+H]+
m/z	relative intensity	assigned
50.0153	2	C4H2+
51.023	1	C4H3+
63.0229	17	C5H3+
65.0385	28	C5H5+
66.0464	9	C5H6+
71.029	8	C4H4F+
74.0148	3	C6H2+
75.0039	13	C3HF2+
75.0227	28	C6H3+
77.0384	7	C6H5+
78.0462	9	C6H6+
79.0541	11	C6H7+
81.0133	3	C5H2F+
89.0383	222	C7H5+
90.0336	9	C6H4N+
90.0462	59	C7H6+
91.054	96	C7H7+
93.0333	3	C6H5O+
95.0101	6	C3H2F3+
95.0289	23	C6H4F+
95.0489	10	C6H7O+
99.0038	3	C5HF2+
101.0195	1	C5H3F2+
103.054	23	C8H7+
104.0492	7	C7H6N+
104.0617	9	C8H8+
105.0446	8	C6H5N2+
105.0696	6	C8H9+
109.0446	4	C7H6F+
109.0646	1	C7H9O+
113.0395	56	C6H6FO+
115.0414	13	C8H5N+
115.054	4	C9H7+
116.0492	176	C8H6N+
117.057	79	C8H7N+
118.0648	70	C8H8N+
119.01	9	C5H2F3+
119.049	6	C8H7O+
119.0601	1	C7H7N2+
123.035	139	C6H4FN2+
125.0194	78	C7H3F2+
128.0491	2	C9H6N+
130.0649	135	C9H8N+
131.0726	79	C9H9N+
132.0441	16	C8H6NO+
132.0804	9	C9H10N+
133.0518	1	C8H7NO+
134.0598	5	C8H8NO+
143.03	2	C7H5F2O+
145.0256	999	C7H4F3+
146.0597	13	C9H8NO+
159.0412	1	C8H6F3+
161.0468	3	C9H7NO2+
163.0361	1	C7H6F3O+
171.0359	1	C7H5F2N2O+
173.0317	17	C7H4F3N2+
186.0522	14	C9H7F3N+
