Mass spectrum: Dimefuron; LC-ESI-QFT; MS2; CE: 75; R=35000; [M+H]+
Name: Dimefuron
Name: 3-[4-(5-tert-butyl-2-keto-1,3,4-oxadiazol-3-yl)-3-chloro-phenyl]-1,1-dimethyl-urea
Formula: C15H19ClN4O3
Exact mass: 338.11457
SMILES: O=C2O\C(=N/N2c1c(Cl)cc(NC(=O)N(C)C)cc1)C(C)(C)C
InChI: InChI=1S/C15H19ClN4O3/c1-15(2,3)12-18-20(14(22)23-12)11-7-6-9(8-10(11)16)17-13(21)19(4)5/h6-8H,1-5H3,(H,17,21)
Instrument: Q Exactive Orbitrap Thermo Scientific
Instrument type: LC-ESI-QFT
Ms type: MS2
Ion mode: POSITIVE
Ionization: ESI
Fragmentation mode: HCD
Collision energy: 75 (nominal)
Resolution: 35000
Column name: XBridge C18 3.5um, 2.1x50mm, Waters
Retention time: 9.8 min
Base peak: 339.122
Precursor m/z: 339.1218
Precursor type: [M+H]+
m/z	relative intensity	assigned
56.0132	4	C2H2NO+
71.0604	5	C3H7N2+
72.0443	999	C3H6NO+
76.0181	7	C5H2N+
78.0339	1	C5H4N+
79.029	1	C4H3N2+
103.029	2	C6H3N2+
104.0368	1	C6H4N2+
105.0446	3	C6H5N2+
106.0286	1	C6H4NO+
111.9948	19	C5H3ClN+
112.9901	2	C4H2ClN2+
114.0105	1	C5H5ClN+
123.9948	3	C6H3ClN+
130.0053	3	C5H5ClNO+
131.0238	3	C7H3N2O+
132.0318	6	C7H4N2O+
139.0056	26	C6H4ClN2+
139.9896	141	C6H3ClNO+
166.0165	2	C7H5ClN3+
167.0006	90	C7H4ClN2O+
176.0215	3	C8H4N2O3+
176.0818	1	C9H10N3O+
