Mass spectrum: Cycloxaprid; LC-ESI-QFT; MS2; CE: 60%; R=17500; [M+H]+
Name: Cycloxaprid
Name: 1-((6-chloropyridin-3-yl)methyl)-9-nitro-2,3,5,6,7,8-hexahydro-1H-5,8-epoxyimidazo[1,2-a]azepine
Name: 5-[(6-chloropyridin-3-yl)methyl]-7-nitro-11-oxa-2,5-diazatricyclo[6.2.1.02,6]undec-6-ene
Formula: C14H15ClN4O3
Exact mass: 322.0833
SMILES: C1CC2N3CCN(C3=C(C1O2)[N+](=O)[O-])CC4=CN=C(C=C4)Cl
InChI: InChI=1S/C14H15ClN4O3/c15-11-3-1-9(7-16-11)8-17-5-6-18-12-4-2-10(22-12)13(14(17)18)19(20)21/h1,3,7,10,12H,2,4-6,8H2
Instrument: Exploris 240 Orbitrap Thermo Scientific
Instrument type: LC-ESI-QFT
Ms type: MS2
Ion mode: POSITIVE
Ionization: ESI
Fragmentation mode: HCD
Collision energy: 60 % (nominal)
Resolution: 17500
Column name: XBridge C18 3.5um, 2.1x50mm, Waters
Retention time: 2.935 min
Base peak: 323.0906
Precursor m/z: 323.0905
Precursor type: [M+H]+
m/z	relative intensity	assigned
81.0576	37	C5H7N+
82.0654	32	C5H8N+
83.0605	22	C4H7N2+
84.0684	25	C4H8N2+
85.076	17	C4H9N2+
94.0653	111	C6H8N+
95.0604	22	C5H7N2+
95.0728	95	C6H9N+
106.065	19	C7H8N+
107.0728	65	C7H9N+
108.0807	51	C7H10N+
109.0762	29	C6H9N2+
109.0886	133	C7H11N+
121.076	62	C7H9N2+
122.0839	28	C7H10N2+
123.0556	27	C3H10ClN3+
123.0917	432	C7H11N2+
126.0105	639	C6H5ClN+
127.0182	11	C6H6ClN+
133.0766	21	C8H9N2+
138.0665	34	C3H11ClN4+
139.0871	19	C4H14ClN3+
149.0709	17	C8H9N2O+
151.0867	999	C8H11N2O+
155.0368	19	C7H8ClN2+
167.0371	18	C8H8ClN2+
192.0322	23	C9H7ClN3+
207.0558	21	C10H10ClN3+
208.0637	94	C10H11ClN3+
214.134	46	C13H16N3+
220.0639	402	C11H11ClN3+
234.0794	225	C12H13ClN3+
242.1287	36	C14H16N3O+
248.0593	340	C14H13ClO2+
248.0952	718	C13H15ClN3+
249.1033	31	C13H16ClN3+
260.0949	16	C14H15ClN3+
262.0745	46	C13H13ClN3O+
276.09	782	C14H15ClN3O+
