Mass spectrum: Chlorpyrifos; LC-ESI-ITFT; MS2; CE: 90%; R=15000; [M+H]+
Name: Chlorpyrifos
Name: diethoxy-sulfanylidene-(3,5,6-trichloropyridin-2-yl)oxy-{5}-phosphane
Formula: C9H11Cl3NO3PS
Exact mass: 348.9263
SMILES: Clc1c(OP(=S)(OCC)OCC)nc(Cl)c(Cl)c1
InChI: InChI=1S/C9H11Cl3NO3PS/c1-3-14-17(18,15-4-2)16-9-7(11)5-6(10)8(12)13-9/h5H,3-4H2,1-2H3
Instrument: LTQ Orbitrap XL Thermo Scientific
Instrument type: LC-ESI-ITFT
Ms type: MS2
Ion mode: POSITIVE
Ionization: ESI
Fragmentation mode: HCD
Collision energy: 90 % (nominal)
Resolution: 15000
Column name: XBridge C18 3.5um, 2.1x50mm, Waters
Retention time: 16.0 min
Base peak: 349.9337
Precursor m/z: 349.9336
Precursor type: [M+H]+
m/z	relative intensity	assigned
64.9786	27	H2O2P+
78.9401	29	OPS+
96.9507	602	H2O2PS+
106.9449	571	C3HCl2+
110.9664	3	CH4O2PS+
114.9613	999	H4O3PS+
118.9449	12	C3HClOP+
133.9558	259	C4H2Cl2N+
134.9634	4	C3H3ClNOP+
143.94	9	C4ClNOP+
150.917	78	C3HClOPS+
161.9508	48	C5H2Cl2NO+
176.92	8	C4HClNOPS+
177.9279	44	C5H2Cl2NS+
178.9353	5	C4H3ClNOPS+
179.9169	112	C5HCl3N+
179.9613	133	C4H4ClNO3P+
195.9387	2	C5H4Cl2NOS+
197.9274	301	C4H3Cl2NO2P+
211.8885	9	C4HCl2NOPS+
212.8967	8	C5H2Cl3NS+
213.9046	31	C5H3Cl3NS+
293.8488	8	C8Cl3NOPS+
