Mass spectrum: CGA62826 (2-[2,6-dimethylphenyl)-methoxyacetylamino]propionic acid; LC-ESI-QFT; MS2; CE: 150; R=35000; [M+H]+
Name: CGA62826 (2-[2,6-dimethylphenyl)-methoxyacetylamino]propionic acid
Name: N-(2,6-Dimethylphenyl)-N-(methoxyacetyl)-L-alanine
Name: (2S)-2-(N-(2-methoxyacetyl)-2,6-dimethylanilino)propanoic acid
Formula: C14H19NO4
Exact mass: 265.13141
SMILES: Cc1cccc(c1N([C@@H](C)C(=O)O)C(=O)COC)C
InChI: InChI=1S/C14H19NO4/c1-9-6-5-7-10(2)13(9)15(11(3)14(17)18)12(16)8-19-4/h5-7,11H,8H2,1-4H3,(H,17,18)/t11-/m0/s1
Instrument: Q Exactive Plus Orbitrap Thermo Scientific
Instrument type: LC-ESI-QFT
Ms type: MS2
Ion mode: POSITIVE
Ionization: ESI
Fragmentation mode: HCD
Collision energy: 150 (nominal)
Resolution: 35000
Column name: XBridge C18 3.5um, 2.1x50mm, Waters
Retention time: 7.8 min
Base peak: 266.1385
Precursor m/z: 266.1387
Precursor type: [M+H]+
m/z	relative intensity	assigned
50.0151	45	C4H2+
51.0229	122	C4H3+
53.0022	9	C3HO+
53.0386	157	C4H5+
55.0179	11	C3H3O+
56.0495	5	C3H6N+
62.0151	3	C5H2+
63.0228	20	C5H3+
65.0386	283	C5H5+
66.0464	29	C5H6+
67.0542	4	C5H7+
75.0228	5	C6H3+
77.0385	270	C6H5+
78.0464	83	C6H6+
79.0542	507	C6H7+
80.0494	38	C5H6N+
81.0335	22	C5H5O+
89.0386	97	C7H5+
90.0464	157	C7H6+
91.0542	999	C7H7+
92.0495	13	C6H6N+
92.0622	14	C7H8+
93.0573	23	C6H7N+
93.07	29	C7H9+
94.0414	11	C6H6O+
94.0653	18	C6H8N+
95.0492	602	C6H7O+
96.0443	11	C5H6NO+
102.0464	34	C8H6+
103.0542	448	C8H7+
104.0494	65	C7H6N+
104.062	23	C8H8+
105.0447	307	C6H5N2+
105.0699	324	C8H9+
106.0651	192	C7H8N+
107.073	18	C7H9N+
107.0854	4	C8H11+
109.0649	15	C7H9O+
115.0543	307	C9H7+
116.0495	23	C8H6N+
116.0621	23	C9H8+
117.0573	979	C8H7N+
117.0698	72	C9H9+
118.0651	227	C8H8N+
119.0604	10	C7H7N2+
119.073	51	C8H9N+
120.0808	109	C8H10N+
127.0543	5	C10H7+
128.0495	26	C9H6N+
128.062	23	C10H8+
129.0446	3	C8H5N2+
129.0574	19	C9H7N+
130.0652	502	C9H8N+
131.0729	50	C9H9N+
132.0808	192	C9H10N+
133.0521	12	C8H7NO+
133.0887	15	C9H11N+
134.0599	59	C8H8NO+
134.0964	91	C9H12N+
142.0651	20	C10H8N+
143.073	116	C10H9N+
144.0808	397	C10H10N+
145.065	10	C10H9O+
145.0886	4	C10H11N+
146.0601	15	C9H8NO+
146.0965	3	C10H12N+
148.0759	39	C9H10NO+
155.0604	13	C10H7N2+
