Mass spectrum: Atenolol-desisopropyl; LC-ESI-ITFT; MS2; CE: 45%; R=7500; [M+H]+
Name: Atenolol-desisopropyl
Name: 4-(3-Amino-2-hydroxypropoxy)phenylacetamide
Formula: C11H16N2O3
Exact mass: 224.1161
SMILES: c1cc(ccc1CC(=O)N)OCC(CN)O
InChI: InChI=1S/C11H16N2O3/c12-6-9(14)7-16-10-3-1-8(2-4-10)5-11(13)15/h1-4,9,14H,5-7,12H2,(H2,13,15)
Instrument: LTQ Orbitrap XL Thermo Scientific
Instrument type: LC-ESI-ITFT
Ms type: MS2
Ion mode: POSITIVE
Ionization: ESI
Fragmentation mode: HCD
Collision energy: 45 % (nominal)
Resolution: 7500
Column name: XBridge C18 3.5um, 2.1x50mm, Waters
Retention time: 1.0 min
Base peak: 225.124
Precursor m/z: 225.1234
Precursor type: [M+H]+
m/z	relative intensity	assigned
56.0495	168	C3H6N+
74.0601	950	C3H8NO+
91.0541	20	C7H7+
93.0697	10	C7H9+
105.0696	17	C8H9+
107.049	46	C7H7O+
117.0698	15	C9H9+
119.049	36	C8H7O+
121.0649	76	C8H9O+
133.0648	268	C9H9O+
145.0648	999	C10H9O+
147.0441	74	C9H7O2+
152.0705	62	C8H10NO2+
161.06	17	C10H9O2+
162.0659	21	C8H8N3O+
162.0913	172	C10H12NO+
163.0754	24	C10H11O2+
164.0705	193	C9H10NO2+
173.0597	212	C11H9O2+
178.0862	694	C10H12NO2+
180.102	23	C10H14NO2+
182.0812	16	C9H12NO3+
190.0862	976	C11H12NO2+
208.0966	471	C11H14NO3+
225.1231	534	C11H17N2O3+
