Mass spectrum: 4-Hydroxybenzotriazole; LC-ESI-QFT; MS2; CE: 60; R=35000; [M+H]+
Name: 4-Hydroxybenzotriazole
Name: 1,2-dihydrobenzotriazol-4-one
Name: 2H-benzotriazol-4-ol
Name: 4-Hydroxy-1H-benzotriazole
Formula: C6H5N3O
Exact mass: 135.04326178
SMILES: C1=CC2=NNN=C2C(=C1)O
InChI: InChI=1S/C6H5N3O/c10-5-3-1-2-4-6(5)8-9-7-4/h1-3,10H,(H,7,8,9)
Instrument: Q Exactive Plus Orbitrap Thermo Scientific
Instrument type: LC-ESI-QFT
Ms type: MS2
Ion mode: POSITIVE
Ionization: ESI
Fragmentation mode: HCD
Collision energy: 60 (nominal)
Resolution: 35000
Column name: XBridge C18 3.5um, 2.1x50mm, Waters
Retention time: 3.1 min
Base peak: 136.0505
Precursor m/z: 136.0505
Precursor type: [M+H]+
m/z	relative intensity	assigned
51.0229	1	C4H3+
53.0386	48	C4H5+
54.0338	19	C3H4N+
63.0229	12	C5H3+
68.0131	5	C3H2NO+
78.0339	1	C5H4N+
80.0494	379	C5H6N+
81.0335	42	C5H5O+
90.0339	18	C6H4N+
96.0444	1	C5H6NO+
106.0287	2	C6H4NO+
107.0367	1	C6H5NO+
108.0444	27	C6H6NO+
136.0506	999	C6H6N3O+
