Mass spectrum: Cocaine; LC-ESI-ITFT; MS2; CE: 60%; R=15000; [M+H]+
Name: Cocaine
Name: (1S,3S,4R,5R)-3-benzoyloxy-8-methyl-8-azabicyclo[3.2.1]octane-4-carboxylic acid methyl ester
Formula: C17H21NO4
Exact mass: 303.1471
SMILES: CN1C2CCC1C(C(C2)OC(=O)C3=CC=CC=C3)C(=O)OC
InChI: InChI=1S/C17H21NO4/c1-18-12-8-9-13(18)15(17(20)21-2)14(10-12)22-16(19)11-6-4-3-5-7-11/h3-7,12-15H,8-10H2,1-2H3/t12-,13+,14-,15+/m0/s1
Instrument: LTQ Orbitrap XL Thermo Scientific
Instrument type: LC-ESI-ITFT
Ms type: MS2
Ion mode: POSITIVE
Ionization: ESI
Fragmentation mode: HCD
Collision energy: 60 % (nominal)
Resolution: 15000
Column name: XBridge C18 3.5um, 2.1x50mm, Waters
Retention time: 5.0 min
Base peak: 304.1557
Precursor m/z: 304.1543
Precursor type: [M+H]+
m/z	relative intensity	assigned
65.0386	32	C5H5+
67.0541	7	C5H7+
68.0495	28	C4H6N+
70.0652	12	C4H8N+
77.0387	34	C6H5+
79.0543	20	C6H7+
81.0699	17	C6H9+
82.0652	520	C5H8N+
83.073	42	C5H9N+
91.0543	125	C7H7+
93.0335	47	C6H5O+
93.0699	37	C7H9+
94.0652	24	C6H8N+
95.0494	5	C6H7O+
96.0808	42	C6H10N+
97.0649	18	C6H9O+
105.0336	531	C7H5O+
107.0494	5	C7H7O+
107.0729	4	C7H9N+
108.0808	134	C7H10N+
109.065	4	C7H9O+
118.0415	23	C8H6O+
119.0492	177	C8H7O+
122.06	7	C7H8NO+
122.0965	126	C8H12N+
123.0804	5	C8H11O+
125.0597	16	C7H9O2+
132.0808	17	C9H10N+
135.0679	14	C8H9NO+
150.0914	242	C9H12NO+
151.0753	13	C9H11O2+
154.0863	54	C8H12NO2+
182.1177	999	C10H16NO2+
304.1558	11	C17H22NO4+
