Mass spectrum: N'-(2,4-Dimethylphenyl)-N-methylformamidine; LC-ESI-ITFT; MS2; CE: 75%; R=7500; [M+H]+
Name: N'-(2,4-Dimethylphenyl)-N-methylformamidine
Name: Methanimidamide, N-(2,4-dimethylphenyl)-N'-methyl-
Name: N-(2,4-dimethylphenyl)-N'-methyl-formamidine
Formula: C10H14N2
Exact mass: 162.1157
SMILES: C(=NC)Nc1c(cc(cc1)C)C
InChI: InChI=1S/C10H14N2/c1-8-4-5-10(9(2)6-8)12-7-11-3/h4-7H,1-3H3,(H,11,12)
Instrument: LTQ Orbitrap XL Thermo Scientific
Instrument type: LC-ESI-ITFT
Ms type: MS2
Ion mode: POSITIVE
Ionization: ESI
Fragmentation mode: HCD
Collision energy: 75 % (nominal)
Resolution: 7500
Column name: XBridge C18 3.5um, 2.1x50mm, Waters
Retention time: 4.5 min
Base peak: 163.1229
Precursor m/z: 163.123
Precursor type: [M+H]+
m/z	relative intensity	assigned
77.0388	8	C6H5+
79.0543	35	C6H7+
103.0542	31	C8H7+
105.0699	541	C8H9+
106.0652	21	C7H8N+
107.0729	888	C7H9N+
115.0542	11	C9H7+
117.0573	508	C8H7N+
120.0808	67	C8H10N+
121.0885	12	C8H11N+
122.0964	999	C8H12N+
123.0802	5	C8H11O+
130.0651	4	C9H8N+
131.073	11	C9H9N+
132.0808	564	C9H10N+
133.0761	41	C8H9N2+
163.123	297	C10H15N2+
