Mass spectrum: Paclobutrazole; LC-ESI-QFT; MS2; CE: 60; R=35000; [M+H]+
Name: Paclobutrazole
Name: Paclobutrazol
Name: 1-(4-chlorophenyl)-4,4-dimethyl-2-(1,2,4-triazol-1-yl)pentan-3-ol
Formula: C15H20ClN3O
Exact mass: 293.12949
SMILES: CC(C)(C)C(C(CC1=CC=C(C=C1)Cl)N2C=NC=N2)O
InChI: InChI=1S/C15H20ClN3O/c1-15(2,3)14(20)13(19-10-17-9-18-19)8-11-4-6-12(16)7-5-11/h4-7,9-10,13-14,20H,8H2,1-3H3
Instrument: Q Exactive Plus Orbitrap Thermo Scientific
Instrument type: LC-ESI-QFT
Ms type: MS2
Ion mode: POSITIVE
Ionization: ESI
Fragmentation mode: HCD
Collision energy: 60 (nominal)
Resolution: 35000
Column name: XBridge C18 3.5um, 2.1x50mm, Waters
Retention time: 10.6 min
Base peak: 294.1362
Precursor m/z: 294.1368
Precursor type: [M+H]+
m/z	relative intensity	assigned
55.0542	1	C4H7+
57.0699	24	C4H9+
59.0492	8	C3H7O+
69.0699	26	C5H9+
70.04	999	C2H4N3+
71.0855	2	C5H11+
83.0855	2	C6H11+
87.0805	20	C5H11O+
91.0542	3	C7H7+
103.0542	8	C8H7+
113.0152	4	C6H6Cl+
113.0961	1	C7H13O+
115.0542	1	C9H7+
116.0621	1	C9H8+
119.0491	1	C8H7O+
125.0153	119	C7H6Cl+
129.0699	3	C10H9+
130.0778	9	C10H10+
137.0153	5	C8H6Cl+
139.0309	20	C8H8Cl+
141.0102	3	C7H6ClO+
151.031	5	C9H8Cl+
155.0259	1	C8H8ClO+
165.0466	21	C10H10Cl+
