Mass spectrum: Citalopram; LC-ESI-ITFT; MS2; CE: 60%; R=7500; [M+H]+
Name: Citalopram
Name: 1-[3-(dimethylamino)propyl]-1-(4-fluorophenyl)-3H-2-benzofuran-5-carbonitrile
Formula: C20H21FN2O
Exact mass: 324.1638
SMILES: Fc1ccc(cc1)C3(OCc2cc(C#N)ccc23)CCCN(C)C
InChI: InChI=1S/C20H21FN2O/c1-23(2)11-3-10-20(17-5-7-18(21)8-6-17)19-9-4-15(13-22)12-16(19)14-24-20/h4-9,12H,3,10-11,14H2,1-2H3
Instrument: LTQ Orbitrap XL Thermo Scientific
Instrument type: LC-ESI-ITFT
Ms type: MS2
Ion mode: POSITIVE
Ionization: ESI
Fragmentation mode: HCD
Collision energy: 60 % (nominal)
Resolution: 7500
Column name: XBridge C18 3.5um, 2.1x50mm, Waters
Retention time: 6.6 min
Base peak: 325.1719
Precursor m/z: 325.1711
Precursor type: [M+H]+
m/z	relative intensity	assigned
58.0652	47	C3H8N+
84.0812	14	C5H10N+
109.0449	999	C7H6F+
116.0496	170	C8H6N+
121.0447	16	C8H6F+
123.024	14	C7H4FO+
129.0697	15	C10H9+
130.0648	10	C9H8N+
140.0494	20	C10H6N+
142.0653	14	C10H8N+
144.0444	17	C9H6NO+
156.0809	43	C11H10N+
159.0603	5	C11H8F+
166.0652	125	C12H8N+
203.0728	6	C15H9N+
215.0853	27	C17H11+
216.0816	8	C16H10N+
218.0608	22	C15H8NO+
220.068	17	C16H9F+
221.0636	79	C15H8FN+
222.0717	58	C15H9FN+
227.0731	96	C17H9N+
233.0764	14	C17H10F+
234.0715	263	C16H9FN+
235.0916	29	C17H12F+
236.0869	16	C16H11FN+
238.0665	44	C15H9FNO+
240.0819	18	C18H10N+
241.0892	19	C18H11N+
242.0968	56	C18H12N+
245.0753	6	C18H10F+
246.0719	36	C17H9FN+
247.0792	239	C17H10FN+
250.1032	43	C17H13FN+
260.0871	17	C18H11FN+
261.0948	32	C18H12FN+
262.1025	163	C18H13FN+
