Mass spectrum: Metolachlor OXA; LC-ESI-ITFT; MS2; CE: 75%; R=7500; [M+H]+
Name: Metolachlor OXA
Name: 2-(2-ethyl-N-(2-methoxy-1-methyl-ethyl)-6-methyl-anilino)-2-keto-acetic acid
Formula: C15H21NO4
Exact mass: 279.1471
SMILES: CC1=CC=CC(CC)=C1N(C(C)COC)C(C(O)=O)=O
InChI: InChI=1S/C15H21NO4/c1-5-12-8-6-7-10(2)13(12)16(11(3)9-20-4)14(17)15(18)19/h6-8,11H,5,9H2,1-4H3,(H,18,19)
Instrument: LTQ Orbitrap XL Thermo Scientific
Instrument type: LC-ESI-ITFT
Ms type: MS2
Ion mode: POSITIVE
Ionization: ESI
Fragmentation mode: HCD
Collision energy: 75 % (nominal)
Resolution: 7500
Column name: XBridge C18 3.5um, 2.1x50mm, Waters
Retention time: 9.3 min
Base peak: 280.1539
Precursor m/z: 280.1543
Precursor type: [M+H]+
m/z	relative intensity	assigned
73.0648	178	C4H9O+
77.0387	11	C6H5+
79.0542	29	C6H7+
91.0542	413	C7H7+
92.0617	8	C7H8+
93.0577	8	C6H7N+
93.0698	107	C7H9+
103.0544	53	C8H7+
104.0622	44	C8H8+
105.0699	77	C8H9+
106.0652	62	C7H8N+
107.0731	22	C7H9N+
107.0856	16	C8H11+
108.0806	44	C7H10N+
115.0543	63	C9H7+
117.0574	50	C8H7N+
117.0699	285	C9H9+
118.0651	241	C8H8N+
119.073	198	C8H9N+
119.0855	287	C9H11+
120.0806	101	C8H10N+
128.062	16	C10H8+
129.0699	81	C10H9+
130.0652	174	C9H8N+
130.0774	9	C10H10+
131.0729	999	C9H9N+
132.0807	414	C9H10N+
133.0886	349	C9H11N+
134.0603	56	C8H8NO+
134.0964	476	C9H12N+
135.0805	14	C9H11O+
136.0753	11	C8H10NO+
142.0651	38	C10H8N+
144.0808	575	C10H10N+
145.0887	179	C10H11N+
146.0964	814	C10H12N+
147.0916	13	C9H11N2+
147.1045	31	C10H13N+
148.112	496	C10H14N+
155.0608	10	C10H7N2+
158.0965	26	C11H12N+
159.1045	46	C11H13N+
160.0755	38	C10H10NO+
160.112	222	C11H14N+
161.1206	18	C11H15N+
162.0914	78	C10H12NO+
174.092	18	C11H12NO+
174.1272	25	C12H16N+
176.1433	123	C12H18N+
202.1228	19	C13H16NO+
248.1283	36	C14H18NO3+
