Mass spectrum: Tetrazepam; LC-ESI-QFT; MS2; CE: 75; R=35000; [M+H]+
Name: Tetrazepam
Name: 7-chloro-5-(cyclohexen-1-yl)-1-methyl-3H-1,4-benzodiazepin-2-one
Formula: C16H17ClN2O
Exact mass: 288.10294
SMILES: CN1C(=O)CN=C(C2=C1C=CC(=C2)Cl)C3=CCCCC3
InChI: InChI=1S/C16H17ClN2O/c1-19-14-8-7-12(17)9-13(14)16(18-10-15(19)20)11-5-3-2-4-6-11/h5,7-9H,2-4,6,10H2,1H3
Instrument: Q Exactive Orbitrap Thermo Scientific
Instrument type: LC-ESI-QFT
Ms type: MS2
Ion mode: POSITIVE
Ionization: ESI
Fragmentation mode: HCD
Collision energy: 75 (nominal)
Resolution: 35000
Column name: XBridge C18 3.5um, 2.1x50mm, Waters
Retention time: 10.1 min
Base peak: 289.1101
Precursor m/z: 289.1102
Precursor type: [M+H]+
m/z	relative intensity	assigned
56.0496	5	C3H6N+
58.0287	30	C2H4NO+
65.0385	32	C5H5+
66.0464	5	C5H6+
67.0416	14	C4H5N+
67.0542	295	C5H7+
68.0494	23	C4H6N+
69.0698	5	C5H9+
70.065	5	C4H8N+
77.0384	17	C6H5+
79.0541	335	C6H7+
80.0494	17	C5H6N+
80.062	2	C6H8+
81.0698	647	C6H9+
82.065	45	C5H8N+
83.0854	3	C6H11+
89.0384	10	C7H5+
91.0541	80	C7H7+
93.0571	3	C6H7N+
93.0697	53	C7H9+
94.065	13	C6H8N+
95.0491	48	C6H7O+
95.0728	10	C6H9N+
95.0854	74	C7H11+
96.0807	57	C6H10N+
103.0541	3	C8H7+
104.0492	3	C7H6N+
105.0446	19	C6H5N2+
106.065	2	C7H8N+
108.0807	4	C7H10N+
109.0646	11	C7H9O+
110.0964	34	C7H12N+
112.007	3	C6H5Cl+
115.0538	5	C9H7+
116.0493	5	C8H6N+
117.0571	147	C8H7N+
118.065	42	C8H8N+
119.0729	25	C8H9N+
120.0806	22	C8H10N+
125.0151	43	C7H6Cl+
126.023	5	C7H7Cl+
127.0309	5	C7H8Cl+
128.0619	4	C10H8+
129.0572	3	C9H7N+
129.0698	14	C10H9+
130.065	49	C9H8N+
131.0728	74	C9H9N+
132.0679	12	C8H8N2+
132.0806	3	C9H10N+
134.0601	5	C8H8NO+
138.0105	21	C7H5ClN+
139.0181	31	C7H6ClN+
140.0259	70	C10H4O+
140.0493	5	C10H6N+
141.0697	17	C11H9+
142.0651	15	C10H8N+
142.0776	5	C11H10+
143.0603	94	C9H7N2+
143.0728	61	C10H9N+
144.0682	50	C9H8N2+
144.0807	82	C10H10N+
145.076	10	C9H9N2+
145.0885	13	C10H11N+
146.0598	4	C9H8NO+
146.0836	18	C9H10N2+
147.0677	44	C9H9NO+
149.0148	3	C9H6Cl+
150.0106	23	C8H5ClN+
151.0182	43	C8H6ClN+
152.026	76	C8H7ClN+
152.0617	12	C12H8+
153.0698	11	C12H9+
154.0417	330	C8H9ClN+
154.0649	73	C11H8N+
155.06	13	C10H7N2+
155.0728	37	C11H9N+
155.0856	3	C12H11+
156.0682	25	C10H8N2+
156.0807	50	C11H10N+
157.0397	4	C9H5N2O+
157.0759	31	C10H9N2+
157.0885	37	C11H11N+
158.0838	5	C10H10N2+
158.0963	5	C11H12N+
159.0677	3	C10H9NO+
159.0913	5	C10H11N2+
160.0996	3	C10H12N2+
164.026	192	C9H7ClN+
165.0215	27	C8H6ClN2+
165.034	29	C9H8ClN+
165.0698	43	C13H9+
166.0416	30	C12H6O+
166.0647	11	C12H8N+
166.0774	11	C13H10+
167.0131	83	C8H6ClNO+
167.0728	84	C12H9N+
168.0682	13	C11H8N2+
168.0806	201	C12H10N+
169.0767	49	C11H9N2+
169.0884	250	C12H11N+
170.0842	34	C11H10N2+
170.0962	98	C12H12N+
171.0915	188	C11H11N2+
171.1039	22	C12H13N+
172.063	78	C10H8N2O+
172.0993	127	C11H12N2+
175.0185	5	C10H6ClN+
175.0308	3	C11H8Cl+
176.0258	14	C13H4O+
177.0338	31	C10H8ClN+
178.0416	216	C10H9ClN+
178.0774	13	C14H10+
179.0369	131	C9H8ClN2+
179.0498	17	C10H10ClN+
179.0854	15	C14H11+
180.0209	59	C9H7ClNO+
180.0447	14	C9H9ClN2+
180.0806	120	C13H10N+
180.093	8	C14H12+
181.0286	12	
181.0765	34	C12H9N2+
181.0884	152	C13H11N+
182.0366	30	C9H9ClNO+
182.0837	150	C12H10N2+
182.0963	279	C13H12N+
183.0915	311	C12H11N2+
183.1041	238	C13H13N+
184.0754	4	C12H10NO+
184.0994	58	C12H12N2+
184.1114	26	C13H14N+
185.1071	91	C12H13N2+
188.0261	16	C11H7ClN+
189.0344	3	C11H8ClN+
190.0417	62	C11H9ClN+
191.0372	21	C10H8ClN2+
191.0494	77	
192.0204	3	C10H7ClNO+
192.045	19	C10H9ClN2+
192.0572	33	C11H11ClN+
192.0806	10	C14H10N+
193.0526	46	C10H10ClN2+
193.0886	21	C14H11N+
194.0366	16	C10H9ClNO+
194.0962	112	C14H12N+
195.0914	49	C13H11N2+
195.1042	52	C14H13N+
196.0994	53	C13H12N2+
196.1119	329	C14H14N+
197.1071	836	C13H13N2+
197.1196	366	C14H15N+
198.0782	13	C12H10N2O+
198.1149	149	C13H14N2+
198.1275	245	C14H16N+
199.0863	126	C12H11N2O+
200.0942	96	C12H12N2O+
201.0335	28	C15H5O+
202.0414	106	C15H6O+
203.0367	79	C14H5NO+
203.0493	38	C15H7O+
204.0574	129	C12H11ClN+
205.0526	34	C14H7NO+
205.0651	13	C12H12ClN+
206.0605	11	C11H11ClN2+
207.0682	58	C11H12ClN2+
207.1045	5	C15H13N+
208.112	76	C15H14N+
209.0475	18	C10H10ClN2O+
209.1073	40	C14H13N2+
209.1199	23	C15H15N+
210.0791	5	C13H10N2O+
210.1151	35	C14H14N2+
210.1276	3	C15H16N+
211.0863	73	C13H11N2O+
211.1228	77	C14H15N2+
212.0942	39	C13H12N2O+
213.1021	211	C13H13N2O+
214.0416	37	C13H9ClN+
215.0373	11	C12H8ClN2+
215.0495	32	C13H10ClN+
216.0574	94	C13H11ClN+
217.0525	152	C12H10ClN2+
217.0651	63	C13H12ClN+
218.0605	147	C12H11ClN2+
218.0729	23	C13H13ClN+
219.0679	29	
221.048	6	C11H10ClN2O+
223.1227	15	C15H15N2+
224.1309	6	C15H16N2+
225.102	999	C14H13N2O+
225.1383	339	C15H17N2+
226.1098	241	C14H14N2O+
226.1463	43	C15H18N2+
228.0572	39	C14H11ClN+
229.0647	11	C14H12ClN+
230.0612	6	C13H11ClN2+
230.0727	52	C14H13ClN+
231.0315	5	C12H8ClN2O+
231.0685	58	C13H12ClN2+
231.0802	10	C14H14ClN+
232.0885	159	C14H15ClN+
233.0839	59	C16H11NO+
233.0965	13	C14H16ClN+
235.063	59	C12H12ClN2O+
237.1024	3	C15H13N2O+
238.1096	5	C15H14N2O+
239.1174	33	C15H15N2O+
242.0736	3	C15H13ClN+
243.0693	8	C14H12ClN2+
244.0523	13	C14H11ClNO+
244.0887	17	C15H15ClN+
245.0471	15	C13H10ClN2O+
245.0837	92	C14H14ClN2+
246.092	19	C14H15ClN2+
247.0639	19	C13H12ClN2O+
251.1178	3	C16H15N2O+
252.1259	3	C16H16N2O+
253.1333	231	C16H17N2O+
254.141	15	C16H18N2O+
259.0634	16	C14H12ClN2O+
259.0998	11	C15H16ClN2+
261.0789	33	C14H14ClN2O+
261.1149	16	C15H18ClN2+
287.0937	3	C16H16ClN2O+
289.11	29	C16H18ClN2O+
