Mass spectrum: Imazaquin; LC-ESI-QFT; MS2; CE: 90; R=35000; [M+H]+
Name: Imazaquin
Name: 2-(4-methyl-5-oxo-4-propan-2-yl-1H-imidazol-2-yl)quinoline-3-carboxylic acid
Formula: C17H17N3O3
Exact mass: 311.12699
SMILES: CC(C)C1(C(=O)NC(=N1)C2=NC3=CC=CC=C3C=C2C(=O)O)C
InChI: InChI=1S/C17H17N3O3/c1-9(2)17(3)16(23)19-14(20-17)13-11(15(21)22)8-10-6-4-5-7-12(10)18-13/h4-9H,1-3H3,(H,21,22)(H,19,20,23)
Instrument: Q Exactive Plus Orbitrap Thermo Scientific
Instrument type: LC-ESI-QFT
Ms type: MS2
Ion mode: POSITIVE
Ionization: ESI
Fragmentation mode: HCD
Collision energy: 90 (nominal)
Resolution: 35000
Column name: XBridge C18 3.5um, 2.1x50mm, Waters
Retention time: 7.0 min
Base peak: 312.1336
Precursor m/z: 312.1343
Precursor type: [M+H]+
m/z	relative intensity	assigned
50.0151	1	C4H2+
51.0229	5	C4H3+
53.0022	51	C3HO+
53.0386	5	C4H5+
53.9975	15	C2NO+
54.01	1	C3H2O+
55.0178	1	C3H3O+
56.0495	37	C3H6N+
58.0651	20	C3H8N+
65.0385	3	C5H5+
67.0542	24	C5H7+
67.9893	13	C3O2+
69.0699	606	C5H9+
70.0651	54	C4H8N+
71.073	135	C4H9N+
72.0444	2	C3H6NO+
75.0227	8	C6H3+
77.0385	9	C6H5+
78.0086	1	C3N3+
84.0808	1	C5H10N+
86.0964	380	C5H12N+
89.0385	4	C7H5+
91.0416	2	C6H5N+
91.0543	23	C7H7+
95.0492	4	C6H7O+
101.0384	21	C8H5+
103.0417	2	C7H5N+
104.0495	1	C7H6N+
105.0334	1	C7H5O+
105.0449	1	C6H5N2+
105.0574	4	C7H7N+
115.0417	17	C8H5N+
115.0543	18	C9H7+
116.0495	53	C8H6N+
119.0492	20	C8H7O+
126.0338	3	C9H4N+
127.0417	42	C9H5N+
128.0495	458	C9H6N+
129.0447	114	C8H5N2+
129.0573	45	C9H7N+
130.0288	5	C8H4NO+
130.0526	26	C8H6N2+
130.0652	28	C9H8N+
133.0525	1	C8H7NO+
134.06	1	C8H8NO+
140.0495	4	C10H6N+
141.0453	1	C9H5N2+
142.0528	8	C9H6N2+
142.0652	27	C10H8N+
143.0367	23	C9H5NO+
143.0605	23	C9H7N2+
144.0445	31	C9H6NO+
145.0522	6	C9H7NO+
145.065	1	C10H9O+
146.0601	826	C9H8NO+
152.0497	1	C11H6N+
152.062	1	C12H8+
153.0448	913	C10H5N2+
154.0402	23	C9H4N3+
154.0526	162	C10H6N2+
154.0652	43	C11H8N+
155.0604	203	C10H7N2+
156.0444	8	C10H6NO+
156.0809	3	C11H10N+
157.0762	12	C10H9N2+
158.0475	18	C9H6N2O+
158.0602	12	C10H8NO+
159.0316	1	C9H5NO2+
160.0758	18	C10H10NO+
161.0472	22	C9H7NO2+
161.0706	1	C9H9N2O+
162.0553	1	C9H8NO2+
166.0656	1	C12H8N+
167.0729	15	C12H9N+
168.0683	9	C11H8N2+
169.0399	6	C10H5N2O+
169.076	18	C11H9N2+
170.0601	5	C11H8NO+
171.0553	420	C10H7N2O+
174.0551	63	C10H8NO2+
178.0651	1	C13H8N+
179.0606	17	C12H7N2+
179.0727	2	C13H9N+
180.0559	5	C11H6N3+
180.0809	24	C13H10N+
181.0397	999	C11H5N2O+
181.0509	108	C10H5N4+
182.0715	2	C11H8N3+
182.0838	12	C12H10N2+
183.0554	110	C11H7N2O+
185.071	9	C11H9N2O+
186.0553	1	C11H8NO2+
192.0683	4	C13H8N2+
194.0965	6	C14H12N+
195.0797	1	C12H9N3+
196.0871	11	C12H10N3+
197.0711	445	C12H9N2O+
198.0663	76	C11H8N3O+
199.0503	188	C11H7N2O2+
204.081	4	C15H10N+
205.076	8	C14H9N2+
206.084	13	C14H10N2+
207.0553	1	C13H7N2O+
207.0919	4	C14H11N2+
208.0765	1	C14H10NO+
209.0585	4	C12H7N3O+
209.0707	2	C13H9N2O+
210.0788	18	C13H10N2O+
213.0663	6	C12H9N2O2+
220.0994	3	C15H12N2+
221.1076	4	C15H13N2+
222.0666	10	C13H8N3O+
222.0918	1	C15H12NO+
224.0818	21	C13H10N3O+
225.1028	4	C14H13N2O+
233.071	15	C15H9N2O+
234.0789	10	C15H10N2O+
236.082	6	C14H10N3O+
249.1026	1	C16H13N2O+
252.0765	7	C14H10N3O2+
