Mass spectrum: Pyridaben; LC-ESI-QFT; MS2; CE: 180%; R=17500; [M+H]+
Name: Pyridaben
Name: 2-tert-butyl-5-[(4-tert-butylphenyl)methylsulfanyl]-4-chloropyridazin-3-one
Formula: C19H25ClN2OS
Exact mass: 364.1376
SMILES: CC(C)(C)C1=CC=C(C=C1)CSC2=C(C(=O)N(N=C2)C(C)(C)C)Cl
InChI: InChI=1S/C19H25ClN2OS/c1-18(2,3)14-9-7-13(8-10-14)12-24-15-11-21-22(19(4,5)6)17(23)16(15)20/h7-11H,12H2,1-6H3
Instrument: Exploris 240 Orbitrap Thermo Scientific
Instrument type: LC-ESI-QFT
Ms type: MS2
Ion mode: POSITIVE
Ionization: ESI
Fragmentation mode: HCD
Collision energy: 180 % (nominal)
Resolution: 17500
Column name: XBridge C18 3.5um, 2.1x50mm, Waters
Retention time: 15.195 min
Base peak: 365.1448
Precursor m/z: 365.1449
Precursor type: [M+H]+
m/z	relative intensity	assigned
51.0228	43	C4H3+
53.0386	32	C4H5+
65.0386	240	C5H5+
77.0385	67	C6H5+
78.0463	90	C6H6+
79.0542	38	C6H7+
89.0388	46	C7H5+
91.0542	999	C7H7+
95.0491	28	C6H7O+
102.0466	27	C8H6+
103.0542	77	C8H7+
104.0622	24	C8H8+
105.045	34	C6H5N2+
105.0702	29	C8H9+
115.0542	674	C9H7+
116.0621	83	C9H8+
117.0699	308	C9H9+
