Mass spectrum: MCLW; LC-ESI-QFT; MS2; CE: 90%; R=17500; [M+H]+
Name: MCLW
Name: Microcystin LW
Name: (5R,8S,11R,12S,15S,18S,19S,22R)-15-(1H-indol-3-ylmethyl)-18-[(1E,3E,5S,6S)-6-methoxy-3,5-dimethyl-7-phenylhepta-1,3-dienyl]-1,5,12,19-tetramethyl-2-methylidene-8-(2-methylpropyl)-3,6,9,13,16,20,25-heptaoxo-1,4,7,10,14,17,21-heptazacyclopentacosane-11,22-dicarboxylic acid
Class: NA
Formula: C54H72N8O12
Exact mass: 1024.5270
SMILES: CO[C@@H](Cc1ccccc1)[C@@H](C)/C=C(C)/C=C/[C@@H]2NC(=O)[C@H](Cc3c[nH]c4ccccc34)NC(=O)[C@@H](C)[C@@H](NC(=O)[C@H](CC(C)C)NC(=O)[C@@H](C)NC(=O)C(=C)N(C)C(=O)CC[C@@H](NC(=O)[C@H]2C)C(O)=O)C(O)=O
InChI: InChI=1S/C54H72N8O12/c1-29(2)24-42-52(69)61-46(54(72)73)33(6)48(65)59-43(27-37-28-55-40-19-15-14-18-38(37)40)51(68)57-39(21-20-30(3)25-31(4)44(74-10)26-36-16-12-11-13-17-36)32(5)47(64)58-41(53(70)71)22-23-45(63)62(9)35(8)50(67)56-34(7)49(66)60-42/h11-21,25,28-29,31-34,39,41-44,46,55H,8,22-24,26-27H2,1-7,9-10H3,(H,56,67)(H,57,68)(H,58,64)(H,59,65)(H,60,66)(H,61,69)(H,70,71)(H,72,73)/b21-20+,30-25+/t31-,32-,33-,34+,39-,41+,42-,43-,44-,46+/m0/s1
Instrument: Q Exactive Plus Orbitrap Thermo Scientific
Instrument type: LC-ESI-QFT
Ms type: MS2
Ion mode: POSITIVE
Ionization: ESI
Fragmentation mode: HCD
Collision energy: 90 % (nominal)
Resolution: 17500
Column name: XBridge C18 3.5um, 2.1x50mm, Waters
Retention time: 11.761 min
Base peak: 164.9846
Precursor m/z: 1025.5342
Precursor type: [M+H]+
m/z	relative intensity	assigned
74.0236	13	C2H4NO2+
77.0385	41	C6H5+
78.0465	5	C6H6+
79.0542	287	C6H7+
80.0494	90	C5H6N+
81.0335	7	C5H5O+
81.0446	5	C4H5N2+
81.0574	8	C5H7N+
81.0698	20	C6H9+
82.0287	26	C4H4NO+
82.0651	146	C5H8N+
84.0444	169	C4H6NO+
84.0804	3	
85.0284	17	C4H5O2+
86.06	14	C4H8NO+
86.0964	89	C5H12N+
89.0385	9	C7H5+
90.0462	7	C7H6+
91.0542	985	C7H7+
92.0493	6	C6H6N+
92.0621	21	C7H8+
93.0575	8	C6H7N+
93.0699	150	C7H9+
94.0413	3	C6H6O+
94.0651	55	C6H8N+
94.0778	4	C7H10+
95.0491	430	C6H7O+
95.0604	14	
95.0853	14	
96.0445	9	C5H6NO+
96.0684	8	C5H8N2+
96.0807	9	C6H10N+
97.0761	3	C5H9N2+
99.0917	71	C5H11N2+
102.0464	31	C8H6+
103.0542	999	C8H7+
104.0621	4	C8H8+
105.0448	154	C6H5N2+
105.0699	496	C8H9+
106.0524	14	C6H6N2+
106.0651	10	C7H8N+
107.0492	7	
107.0855	471	C8H11+
108.0685	15	C6H8N2+
108.0808	11	C7H10N+
109.0648	89	C7H9O+
109.076	4	C6H9N2+
110.0599	34	C6H8NO+
110.0964	8	C7H12N+
111.0553	27	C5H7N2O+
113.0234	42	C5H5O3+
113.0709	4	C5H9N2O+
115.0542	283	C9H7+
116.0494	9	C8H6N+
116.0622	21	C9H8+
117.0572	134	C8H7N+
117.0699	92	C9H9+
118.0651	58	C8H8N+
119.0604	68	C7H7N2+
119.0856	36	C9H11+
120.057	16	C8H8O+
120.0807	21	C8H10N+
120.0935	15	C9H12+
121.0664	3	
121.0759	97	C7H9N2+
121.1009	6	C9H13+
122.0598	12	C7H8NO+
122.084	8	C7H10N2+
122.0964	5	C8H12N+
123.0913	16	C7H11N2+
124.076	7	C7H10NO+
127.0866	268	C6H11N2O+
128.062	71	C10H8+
129.0698	52	C10H9+
130.0651	286	C9H8N+
130.0766	13	
131.0732	13	C9H9N+
131.0855	50	C10H11+
132.0807	322	C9H10N+
133.1012	15	C10H13+
134.0962	7	C9H12N+
135.0804	38	C9H11O+
135.1167	28	C10H15+
138.0549	10	C7H8NO2+
139.0864	8	C7H11N2O+
140.0493	13	C10H6N+
141.07	16	C11H9+
142.0652	108	C10H8N+
142.0765	6	C11H10+
143.0729	30	C10H9N+
143.0854	10	C11H11+
144.0809	64	C10H10N+
144.0915	2	
145.0645	14	C10H9O+
145.0762	9	C9H9N2+
145.1012	11	C11H13+
146.0599	12	C9H8NO+
146.0964	9	C10H12N+
149.0709	41	C8H9N2O+
152.0618	7	C12H8+
153.0695	11	C12H9+
154.065	16	C11H8N+
154.0768	6	C12H10+
155.0608	13	C10H7N2+
155.0849	6	C12H11+
156.0806	2	C11H10N+
157.0628	4	C9H7N3+
157.076	17	C10H9N2+
158.0599	3	C10H8NO+
158.0841	51	C10H10N2+
158.0961	4	C11H12N+
159.0806	7	C11H11O+
159.0917	109	C10H11N2+
160.0756	38	C10H10NO+
163.1122	4	C11H15O+
165.0699	39	C13H9+
166.0653	5	C12H8N+
166.0777	10	C13H10+
167.06	9	C11H7N2+
167.0827	49	C8H11N2O2+
168.0675	6	C11H8N2+
168.0808	16	C12H10N+
169.0761	111	C11H9N2+
170.0601	27	C11H8NO+
170.0962	3	C12H12N+
178.0778	11	C14H10+
179.0855	23	C14H11+
180.0807	16	C13H10N+
181.0755	3	C12H9N2+
182.0838	23	C12H10N2+
185.071	24	C11H9N2O+
192.0939	6	CH14N5O6+
193.1016	7	CH15N5O6+
195.0761	7	C9H11N2O3+
195.0922	3	H19O11+
197.1073	10	C13H13N2+
206.0844	21	CH18O11+
207.0916	11	C14H11N2+
209.1078	7	H15N7O6+
235.0866	15	C15H11N2O+
