Mass spectrum: Nodularin; LC-ESI-QFT; MS2; CE: 75; R=35000; [M+H]+
Name: Nodularin
Name: (2Z,5R,6S,9S,12S,13S,16R)-9-[3-(diaminomethylideneamino)propyl]-2-ethylidene-12-[(1E,3E,5S,6S)-6-methoxy-3,5-dimethyl-7-phenylhepta-1,3-dienyl]-1,6,13-trimethyl-3,7,10,14,19-pentaoxo-1,4,8,11,15-pentazacyclononadecane-5,16-dicarboxylic acid
Formula: C41H60N8O10
Exact mass: 824.44324
SMILES: NC(=N)NCCC[C@@H]2NC(=O)[C@@H](C)[C@@H](NC(=O)C(=C\C)\N(C)C(=O)CC[C@@H](NC(=O)[C@@H](C)[C@H](/C=C/C(/C)=C/[C@H](C)[C@H](Cc1ccccc1)OC)NC2=O)C(=O)O)C(O)=O
InChI: InChI=1S/C41H60N8O10/c1-8-31-38(54)48-34(40(57)58)26(5)36(52)46-29(15-12-20-44-41(42)43)37(53)45-28(25(4)35(51)47-30(39(55)56)18-19-33(50)49(31)6)17-16-23(2)21-24(3)32(59-7)22-27-13-10-9-11-14-27/h8-11,13-14,16-17,21,24-26,28-30,32,34H,12,15,18-20,22H2,1-7H3,(H,45,53)(H,46,52)(H,47,51)(H,48,54)(H,55,56)(H,57,58)(H4,42,43,44)/b17-16+,23-21+,31-8-/t24-,25-,26-,28-,29-,30+,32-,34+/m0/s1
Instrument: Q Exactive Orbitrap Thermo Scientific
Instrument type: LC-ESI-QFT
Ms type: MS2
Ion mode: POSITIVE
Ionization: ESI
Fragmentation mode: HCD
Collision energy: 75 (nominal)
Resolution: 35000
Column name: XBridge C18 3.5um, 2.1x50mm, Waters
Retention time: 9.6 min
Base peak: 825.4499
Precursor m/z: 825.4505
Precursor type: [M+H]+
m/z	relative intensity	assigned
58.0652	2	C3H8N+
59.0478	4	CH5N3+
60.0557	15	CH6N3+
63.0228	1	C5H3+
65.0386	22	C5H5+
67.0542	11	C5H7+
68.0495	25	C4H6N+
69.0335	17	C4H5O+
69.07	4	C5H9+
70.0651	833	C4H8N+
71.0491	11	C4H7O+
72.0807	20	C4H10N+
74.0237	1	C2H4NO2+
74.0601	1	C3H8NO+
77.0385	23	C6H5+
78.0463	1	C6H6+
79.0542	105	C6H7+
80.0495	8	C5H6N+
81.0334	4	C5H5O+
81.0699	6	C6H9+
82.0287	18	C4H4NO+
82.0651	6	C5H8N+
83.0492	13	C5H7O+
83.0605	1	C4H7N2+
84.0444	118	C4H6NO+
85.0284	20	C4H5O2+
85.076	9	C4H9N2+
86.0601	6	C4H8NO+
88.0756	1	C4H10NO+
91.0542	311	C7H7+
92.0621	4	C7H8+
93.0698	103	C7H9+
94.065	26	C6H8N+
95.0491	219	C6H7O+
95.0603	29	C5H7N2+
96.0443	12	C5H6NO+
96.0807	8	C6H10N+
97.076	46	C5H9N2+
98.06	54	C5H8NO+
99.019	12	C3H3N2O2+
100.0756	9	C5H10NO+
102.0465	16	C8H6+
102.055	2	C4H8NO2+
103.0542	999	C8H7+
104.0576	1	C3H8N2O2+
104.0621	1	C8H8+
105.0447	44	C6H5N2+
105.0699	389	C8H9+
106.0651	4	C7H8N+
107.0855	254	C8H11+
108.0808	17	C7H10N+
109.0648	35	C7H9O+
109.076	7	C6H9N2+
110.0601	2	C6H8NO+
110.0963	7	C7H12N+
111.0554	2	C5H7N2O+
112.0869	63	C5H10N3+
113.0233	23	C5H5O3+
113.0709	16	C5H9N2O+
114.055	5	C5H8NO2+
114.1027	9	C5H12N3+
115.0542	122	C9H7+
115.0866	32	C5H11N2O+
116.062	9	C9H8+
116.0708	2	C5H10NO2+
117.0698	107	C9H9+
118.0653	1	C8H8N+
119.0604	9	C7H7N2+
119.0855	19	C9H11+
120.0569	22	C8H8O+
120.0681	1	C7H8N2+
120.0807	19	C8H10N+
120.0934	5	C9H12+
121.0648	1	C8H9O+
121.0762	1	C7H9N2+
121.1013	1	C9H13+
122.06	1	C7H8NO+
122.0714	1	C6H8N3+
122.0841	1	C7H10N2+
122.0964	4	C8H12N+
123.0553	4	C6H7N2O+
123.0803	1	C8H11O+
123.0915	1	C7H11N2+
124.0393	4	C6H6NO2+
124.0519	1	C7H8O2+
124.0757	13	C7H10NO+
124.087	1	C6H10N3+
125.0709	19	C6H9N2O+
126.0549	1	C6H8NO2+
126.0914	6	C7H12NO+
127.0865	17	C6H11N2O+
128.0342	1	C5H6NO3+
128.0622	6	C10H8+
129.0696	12	C10H9+
130.0498	16	C5H8NO3+
130.0649	1	C9H8N+
130.0778	1	C10H10+
130.0975	8	C5H12N3O+
131.0854	17	C10H11+
132.0809	1	C9H10N+
133.0762	1	C8H9N2+
133.1013	5	C10H13+
135.0804	125	C9H11O+
135.0915	49	C8H11N2+
135.1167	29	C10H15+
136.0755	12	C8H10NO+
136.0994	8	C8H12N2+
137.071	3	C7H9N2O+
137.1071	10	C8H13N2+
138.0661	2	C6H8N3O+
138.0914	5	C8H12NO+
139.0977	1	C6H11N4+
140.0817	9	C6H10N3O+
141.0655	23	C6H9N2O2+
143.0857	3	C11H11+
144.0808	1	C10H10N+
145.1013	6	C11H13+
146.0602	1	C9H8NO+
147.0916	1	C9H11N2+
148.1125	1	C10H14N+
150.0915	1	C9H12NO+
150.1027	2	C8H12N3+
151.0867	4	C8H11N2O+
152.071	2	C8H10NO2+
153.1022	37	C8H13N2O+
154.0865	4	C8H12NO2+
155.0857	1	C12H11+
157.1085	3	C6H13N4O+
162.1026	2	C9H12N3+
163.0864	25	C9H11N2O+
163.1119	4	C11H15O+
164.0708	6	C9H10NO2+
164.1181	1	C9H14N3+
165.0697	5	C13H9+
165.1024	6	C9H13N2O+
166.0779	1	C13H10+
170.0965	4	C12H12N+
171.0767	1	C7H11N2O3+
172.1121	3	C12H14N+
173.096	1	C12H13O+
178.0977	1	C9H12N3O+
179.0855	4	C14H11+
180.0933	2	C14H12+
180.1127	1	C9H14N3O+
181.0969	56	C9H13N2O2+
182.0813	7	C9H12NO3+
182.1033	4	C7H12N5O+
192.1134	2	C10H14N3O+
199.1074	1	C9H15N2O3+
201.0984	1	C7H13N4O3+
208.1086	1	C10H14N3O2+
209.092	14	C10H13N2O3+
219.1133	1	C12H15N2O2+
227.1028	2	C10H15N2O4+
