Mass spectrum: Meptazinol; LC-ESI-QFT; MS2; CE: 45; R=35000; [M+H]+
Name: Meptazinol
Name: 3-(3-ethyl-1-methylazepan-3-yl)phenol
Formula: C15H23NO
Exact mass: 233.17796
SMILES: CCC1(CCCCN(C1)C)C2=CC(=CC=C2)O
InChI: InChI=1S/C15H23NO/c1-3-15(9-4-5-10-16(2)12-15)13-7-6-8-14(17)11-13/h6-8,11,17H,3-5,9-10,12H2,1-2H3
Instrument: Q Exactive Orbitrap Thermo Scientific
Instrument type: LC-ESI-QFT
Ms type: MS2
Ion mode: POSITIVE
Ionization: ESI
Fragmentation mode: HCD
Collision energy: 45 (nominal)
Resolution: 35000
Column name: XBridge C18 3.5um, 2.1x50mm, Waters
Retention time: 4.9 min
Base peak: 234.1853
Precursor m/z: 234.1852
Precursor type: [M+H]+
m/z	relative intensity	assigned
58.0651	7	C3H8N+
67.0542	22	C5H7+
69.0698	7	C5H9+
70.065	8	C4H8N+
79.0542	2	C6H7+
81.0698	4	C6H9+
83.0854	31	C6H11+
84.0807	20	C5H10N+
86.0964	13	C5H12N+
91.0541	3	C7H7+
93.0699	1	C7H9+
95.049	2	C6H7O+
95.0854	37	C7H11+
98.0964	8	C6H12N+
105.0699	5	C8H9+
107.0491	598	C7H7O+
109.1011	42	C8H13+
119.0489	2	C8H7O+
119.0854	3	C9H11+
121.0647	95	C8H9O+
126.1276	43	C8H16N+
133.0647	133	C9H9O+
135.0803	38	C9H11O+
140.1432	7	C9H18N+
146.0726	3	C10H10O+
147.0803	123	C10H11O+
149.096	3	C10H13O+
159.0804	2	C11H11O+
161.096	125	C11H13O+
175.1118	8	C12H15O+
177.1274	5	C12H17O+
203.143	10	C14H19O+
234.1851	999	C15H24NO+
