Mass spectrum: Efavirenz; LC-ESI-QFT; MS2; CE: 15; R=35000; [M+H]+
Name: Efavirenz
Name: (4S)-6-chloro-4-(2-cyclopropylethynyl)-4-(trifluoromethyl)-1H-3,1-benzoxazin-2-one
Formula: C14H9ClF3NO2
Exact mass: 315.02739
SMILES: C1CC1C#C[C@]2(C3=C(C=CC(=C3)Cl)NC(=O)O2)C(F)(F)F
InChI: InChI=1S/C14H9ClF3NO2/c15-9-3-4-11-10(7-9)13(14(16,17)18,21-12(20)19-11)6-5-8-1-2-8/h3-4,7-8H,1-2H2,(H,19,20)/t13-/m0/s1
Instrument: Q Exactive Orbitrap Thermo Scientific
Instrument type: LC-ESI-QFT
Ms type: MS2
Ion mode: POSITIVE
Ionization: ESI
Fragmentation mode: HCD
Collision energy: 15 (nominal)
Resolution: 35000
Column name: XBridge C18 3.5um, 2.1x50mm, Waters
Retention time: 13.0 min
Base peak: 316.0348
Precursor m/z: 316.0347
Precursor type: [M+H]+
m/z	relative intensity	assigned
50.0153	5	C4H2+
51.023	4	C4H3+
53.0386	74	C4H5+
81.0335	12	C5H5O+
142.0775	1	C11H10+
167.0726	18	C12H9N+
168.0807	231	C12H10N+
177.0465	5	C11H10Cl+
188.0261	28	C11H7ClN+
200.0071	4	C9H5ClF2N+
201.0337	22	C12H8ClN+
202.0418	32	C12H9ClN+
203.0495	252	C12H10ClN+
208.0322	2	C11H8ClFN+
216.0612	11	C13H8F2N+
217.07	42	C13H9F2N+
219.0443	1	C12H10ClNO+
220.0135	135	C9H6ClF3N+
222.0525	100	C12H7F3N+
224.0073	10	C11H5ClF2N+
226.0229	1	C11H7ClF2N+
229.0291	23	C13H8ClNO+
232.0137	403	C10H6ClF3N+
232.0317	126	C13H8ClFN+
233.9935	1	C9H4ClF3NO+
235.0603	12	C13H8F3N+
236.0682	121	C13H9F3N+
237.076	496	C13H10F3N+
239.0304	6	C12H8ClF2N+
244.0136	999	C11H6ClF3N+
247.0398	7	C13H10ClNO2+
248.0272	1	C13H8ClFNO+
250.0229	33	C13H7ClF2N+
251.0311	1	C13H8ClF2N+
252.0386	287	C13H9ClF2N+
256.0135	2	C12H6ClF3N+
257.0214	28	C12H7ClF3N+
258.0116	4	C14H6ClFNO+
263.0547	11	C14H8F3NO+
268.0328	1	C13H9ClF2NO+
270.0292	108	C13H8ClF3N+
272.0448	800	C13H10ClF3N+
274.0237	1	C12H8ClF3NO+
276.0228	9	C14H8ClFNO2+
278.0178	126	C14H7ClF2NO+
288.0398	4	C13H10ClF3NO+
296.0282	14	C14H9ClF2NO2+
298.0241	157	C14H8ClF3NO+
316.0346	642	C14H10ClF3NO2+
