Mass spectrum: Ketoprofen; LC-ESI-ITFT; MS2; CE: 75%; R=15000; [M+H]+
Name: Ketoprofen
Name: 2-(3-benzoylphenyl)propanoic acid
Formula: C16H14O3
Exact mass: 254.0943
SMILES: CC(C1=CC=CC(=C1)C(=O)C2=CC=CC=C2)C(=O)O
InChI: InChI=1S/C16H14O3/c1-11(16(18)19)13-8-5-9-14(10-13)15(17)12-6-3-2-4-7-12/h2-11H,1H3,(H,18,19)
Instrument: LTQ Orbitrap XL Thermo Scientific
Instrument type: LC-ESI-ITFT
Ms type: MS2
Ion mode: POSITIVE
Ionization: ESI
Fragmentation mode: HCD
Collision energy: 75 % (nominal)
Resolution: 15000
Column name: XBridge C18 3.5um, 2.1x50mm, Waters
Retention time: 9.6 min
Base peak: 277.0843
Precursor m/z: 255.1016
Precursor type: [M+H]+
m/z	relative intensity	assigned
53.0385	42	C4H5+
77.0386	271	C6H5+
79.0543	8	C6H7+
81.0335	5	C5H5O+
91.0543	11	C7H7+
93.0699	31	C7H9+
95.0491	26	C6H7O+
103.0542	120	C8H7+
105.0335	999	C7H5O+
105.0445	87	C6H5N2+
121.0647	18	C8H9O+
131.0491	41	C9H7O+
131.0603	14	C8H7N2+
165.0691	15	C13H9+
166.0778	22	C13H10+
177.0547	53	C10H9O3+
177.0657	21	C9H9N2O2+
191.0854	7	C15H11+
194.0726	94	C14H10O+
