Mass spectrum: Indapamide; LC-ESI-QFT; MS2; CE: 45; R=35000; [M-H]-
Name: Indapamide
Name: 4-chloro-N-(2-methyl-2,3-dihydroindol-1-yl)-3-sulfamoylbenzamide
Formula: C16H16ClN3O3S
Exact mass: 365.06009
SMILES: CC1CC2=CC=CC=C2N1NC(=O)C3=CC(=C(C=C3)Cl)S(=O)(=O)N
InChI: InChI=1S/C16H16ClN3O3S/c1-10-8-11-4-2-3-5-14(11)20(10)19-16(21)12-6-7-13(17)15(9-12)24(18,22)23/h2-7,9-10H,8H2,1H3,(H,19,21)(H2,18,22,23)
Instrument: Q Exactive Plus Orbitrap Thermo Scientific
Instrument type: LC-ESI-QFT
Ms type: MS2
Ion mode: NEGATIVE
Ionization: ESI
Fragmentation mode: HCD
Collision energy: 45 (nominal)
Resolution: 35000
Column name: XBridge C18 3.5um, 2.1x50mm, Waters
Retention time: 6.7 min
Base peak: 364.0524
Precursor m/z: 364.0528
Precursor type: [M-H]-
m/z	relative intensity	assigned
53.0032	3	C3HO-
57.9756	1	CNS-
61.9706	21	NOS-
63.9624	68	O2S-
65.0033	2	C4HO-
65.0271	1	C4H3N-
65.9986	7	C3NO-
66.0111	2	C4H2O-
68.0142	11	C3H2NO-
77.0033	21	C5HO-
77.9655	158	NO2S-
78.9733	84	HNO2S-
79.9812	134	H2NO2S-
81.022	8	C4H3NO-
89.0271	7	C6H3N-
90.0349	8	C6H4N-
91.0302	5	C5H3N2-
92.0142	25	C5H2NO-
92.9981	7	C5HO2-
93.022	10	C5H3NO-
93.9603	4	NO3S-
94.006	4	C5H2O2-
94.0298	2	C5H4NO-
96.0091	1	C4H2NO2-
98.9313	9	ClO2S-
103.0301	1	C6H3N2-
103.9904	6	C6O2-
105.022	159	C6H3NO-
106.006	41	C6H2O2-
107.9913	4	C5H2NS-
109.0169	4	C5H3NO2-
111.9863	1	C4H2NOS-
112.98	4	C5H2ClO-
113.9422	6	ClHNO2S-
114.95	4	ClH2NO2S-
115.0302	2	C7H3N2-
116.0505	5	C8H6N-
117.0458	1	C7H5N2-
120.0091	6	C6H2NO2-
120.0329	22	C6H4N2O-
120.9931	38	C6HO3-
121.017	2	C6H3NO2-
122.001	2	C6H2O3-
122.0248	2	C6H4NO2-
123.0088	1	C6H3O3-
125.0038	11	C6H4ClN-
126.0116	130	C6H5ClN-
126.9956	1	C6H4ClO-
127.9908	1	C5H3ClNO-
128.9748	1	C5H2ClO2-
130.0662	7	C9H8N-
131.025	28	C7H3N2O-
131.0615	3	C8H7N2-
132.0329	334	C7H4N2O-
132.0818	20	C9H10N-
133.0407	1	C7H5N2O-
134.0247	1	C7H4NO2-
140.9986	2	C6H4ClNO-
141.9826	33	C6H3ClO2-
148.0279	86	C7H4N2O2-
151.0068	12	C7H4ClN2-
151.9908	25	C7H3ClNO-
152.989	45	C6H3NO2S-
153.9968	13	C6H4NO2S-
157.0405	1	C9H5N2O-
167.0017	32	C7H4ClN2O-
167.986	2	C7H3ClNO2-
168.0096	23	C7H5ClN2O-
168.984	6	C6H3NO3S-
169.0175	21	C7H6ClN2O-
171.0563	2	C10H7N2O-
173.0719	13	C10H9N2O-
178.992	19	C7H3N2O2S-
188.9657	999	C9HO3S-
189.9735	110	C6H5ClNO2S-
194.9869	5	C7H3N2O3S-
195.9949	8	C7H4N2O3S-
197.0025	15	C7H5N2O3S-
204.9605	25	C6H4ClNO3S-
214.9689	162	C7H4ClN2O2S-
215.9527	89	C7H3ClNO3S-
230.9636	5	C7H4ClN2O3S-
232.9793	62	C7H6ClN2O3S-
280.1095	1	C16H14N3O2-
364.0529	57	C16H15ClN3O3S-
