Mass spectrum: Bensulfuron-Methyl; LC-ESI-QFT; MS2; CE: 30%; R=17500; [M-H]-
Name: Bensulfuron-Methyl
Name: methyl 2-[(4,6-dimethoxypyrimidin-2-yl)carbamoylsulfamoylmethyl]benzoate
Formula: C16H18N4O7S
Exact mass: 410.0896
SMILES: COC1=CC(=NC(=N1)NC(=O)NS(=O)(=O)CC2=CC=CC=C2C(=O)OC)OC
InChI: InChI=1S/C16H18N4O7S/c1-25-12-8-13(26-2)18-15(17-12)19-16(22)20-28(23,24)9-10-6-4-5-7-11(10)14(21)27-3/h4-8H,9H2,1-3H3,(H2,17,18,19,20,22)
Instrument: Exploris 240 Orbitrap Thermo Scientific
Instrument type: LC-ESI-QFT
Ms type: MS2
Ion mode: NEGATIVE
Ionization: ESI
Fragmentation mode: HCD
Collision energy: 30 % (nominal)
Resolution: 17500
Column name: XBridge C18 3.5um, 2.1x50mm, Waters
Retention time: 7.818 min
Base peak: 409.0823
Precursor m/z: 409.0823
Precursor type: [M-H]-
m/z	relative intensity	assigned
102.035	22	C7H4N-
120.0455	12	C7H6NO-
122.0361	5	C5H4N3O-
130.0296	9	C8H4NO-
132.0455	75	C8H6NO-
139.039	7	C5H5N3O2-
154.062	999	C6H8N3O2-
190.0509	146	C10H8NO3-
196.0073	249	C8H6NO3S-
