Mass spectrum: Norfloxacin; LC-ESI-ITFT; MS2; CE: 35%; R=7500; [M+H]+
Name: Norfloxacin
Name: 1-ethyl-6-fluoro-4-oxo-7-piperazin-1-yl-1,4-dihydroquinoline-3-carboxylic acid
Formula: C16H18FN3O3
Exact mass: 319.1332
SMILES: CCN1C=C(C(O)=O)C(=O)C2=CC(F)=C(C=C12)N3CCNCC3
InChI: InChI=1S/C16H18FN3O3/c1-2-19-9-11(16(22)23)15(21)10-7-12(17)14(8-13(10)19)20-5-3-18-4-6-20/h7-9,18H,2-6H2,1H3,(H,22,23)
Instrument: LTQ Orbitrap XL Thermo Scientific
Instrument type: LC-ESI-ITFT
Ms type: MS2
Ion mode: POSITIVE
Ionization: ESI
Fragmentation mode: CID
Collision energy: 35 % (nominal)
Resolution: 7500
Column name: XBridge C18 3.5um, 2.1x50mm, Waters
Retention time: 4.4 min
Base peak: 320.1415
Precursor m/z: 320.1405
Precursor type: [M+H]+
m/z	relative intensity	assigned
219.0932	3	C12H12FN2O+
227.1062	1	C13H13N3O+
228.113	1	C13H14N3O+
231.0544	1	C15H7N2O+
233.1087	29	C13H14FN2O+
256.1447	37	C12H19FN3O2+
276.1511	668	C15H19FN3O+
302.1298	999	C16H17FN3O2+
320.1402	70	C16H19FN3O3+
