Mass spectrum: 1-[(4-Chlorophenyl)phenylmethyl]piperazine; LC-ESI-QFT; MS2; CE: 150; R=35000; [M+H]+
Name: 1-[(4-Chlorophenyl)phenylmethyl]piperazine
Name: Norchlorcyclizine
Name: 1-(4-Chlorobenzhydryl) piperazine
Formula: C17H19ClN2
Exact mass: 286.12368
SMILES: C1CN(CCN1)C(C2=CC=CC=C2)C3=CC=C(C=C3)Cl
InChI: InChI=1S/C17H19ClN2/c18-16-8-6-15(7-9-16)17(14-4-2-1-3-5-14)20-12-10-19-11-13-20/h1-9,17,19H,10-13H2
Instrument: Q Exactive Plus Orbitrap Thermo Scientific
Instrument type: LC-ESI-QFT
Ms type: MS2
Ion mode: POSITIVE
Ionization: ESI
Fragmentation mode: HCD
Collision energy: 150 (nominal)
Resolution: 35000
Column name: XBridge C18 3.5um, 2.1x50mm, Waters
Retention time: 9.0 min
Base peak: 287.1308
Precursor m/z: 287.131
Precursor type: [M+H]+
m/z	relative intensity	assigned
53.0022	1	C3HO+
62.0151	3	C5H2+
63.0229	21	C5H3+
65.0386	16	C5H5+
72.984	21	C3H2Cl+
74.015	1	C6H2+
75.0229	3	C6H3+
76.0307	1	C6H4+
86.0151	1	C7H2+
87.0229	6	C7H3+
88.0308	2	C7H4+
89.0386	24	C7H5+
90.0465	2	C7H6+
91.0543	9	C7H7+
98.9996	17	C5H4Cl+
102.0464	3	C8H6+
113.0386	10	C9H5+
114.0465	5	C9H6+
115.0543	160	C9H7+
118.0414	1	C5H9ClN+
122.9996	2	C7H4Cl+
125.0154	1	C7H6Cl+
126.0465	9	C10H6+
127.0543	1	C10H7+
128.0621	1	C10H8+
132.0571	3	C6H11ClN+
136.0075	3	C8H5Cl+
137.0386	2	C11H5+
138.0464	3	C11H6+
139.0543	140	C11H7+
140.0621	4	C11H8+
149.0154	9	C9H6Cl+
150.0464	4	C12H6+
152.0618	2	C12H8+
155.0606	1	C10H7N2+
162.0464	2	C13H6+
163.0544	146	C13H7+
164.0622	178	C13H8+
165.07	999	C13H9+
166.0778	1	C13H10+
168.057	67	C9H11ClN+
169.0646	3	C9H12ClN+
196.052	23	C10H11ClNO+
199.0311	3	C13H8Cl+
