Mass spectrum: Dicloxacillin; LC-ESI-QFT; MS2; CE: 90; R=35000; [M+H]+
Name: Dicloxacillin
Name: 6-[[3-(2,6-dichlorophenyl)-5-methyl-1,2-oxazole-4-carbonyl]amino]-3,3-dimethyl-7-oxo-4-thia-1-azabicyclo[3.2.0]heptane-2-carboxylic acid
Formula: C19H17Cl2N3O5S
Exact mass: 469.02660
SMILES: CC1=C(C(=NO1)C2=C(C=CC=C2Cl)Cl)C(=O)NC3C4N(C3=O)C(C(S4)(C)C)C(=O)O
InChI: InChI=1S/C19H17Cl2N3O5S/c1-7-10(12(23-29-7)11-8(20)5-4-6-9(11)21)15(25)22-13-16(26)24-14(18(27)28)19(2,3)30-17(13)24/h4-6,13-14,17H,1-3H3,(H,22,25)(H,27,28)
Instrument: Q Exactive Plus Orbitrap Thermo Scientific
Instrument type: LC-ESI-QFT
Ms type: MS2
Ion mode: POSITIVE
Ionization: ESI
Fragmentation mode: HCD
Collision energy: 90 (nominal)
Resolution: 35000
Column name: XBridge C18 3.5um, 2.1x50mm, Waters
Retention time: 9.6 min
Base peak: 470.0332
Precursor m/z: 470.0339
Precursor type: [M+H]+
m/z	relative intensity	assigned
50.0151	3	C4H2+
51.023	3	C4H3+
52.0182	1	C3H2N+
53.0386	153	C4H5+
53.9975	1	C2NO+
54.0339	15	C3H4N+
55.0543	18	C4H7+
56.0495	1	C3H6N+
57.9871	1	C2H2S+
58.995	90	C2H3S+
59.9665	6	COS+
62.0059	11	CH4NS+
63.0229	1	C5H3+
65.0386	1	C5H5+
67.0417	1	C4H5N+
68.0494	4	C4H6N+
69.0447	15	C3H5N2+
70.0652	301	C4H8N+
70.9949	3	C3H3S+
71.0491	13	C4H7O+
72.0027	1	C3H4S+
72.0808	6	C4H10N+
72.9839	15	C3H2Cl+
73.0107	1	C3H5S+
74.0151	15	C6H2+
75.0229	5	C6H3+
75.0262	8	C3H7S+
77.0021	3	C5HO+
79.0292	1	C4H3N2+
80.0495	8	C5H6N+
81.0336	3	C5H5O+
81.0448	22	C4H5N2+
81.0573	9	C5H7N+
82.0651	5	C5H8N+
82.9448	1	CHCl2+
84.9839	27	C4H2Cl+
85.0107	55	C4H5S+
86.0061	1	C3H4NS+
86.0185	1	C4H6S+
86.9633	73	C3ClO+
87.0263	795	C4H7S+
88.0181	1	C6H2N+
89.0386	1	C7H5+
93.0447	6	C5H5N2+
94.0651	3	C6H8N+
95.0605	1	C5H7N2+
95.0728	1	C6H9N+
96.9841	7	C5H2Cl+
98.0601	13	C5H8NO+
98.9996	8	C5H4Cl+
99.023	5	C8H3+
99.026	1	C5H7S+
99.0441	7	C5H7O2+
100.0182	7	C7H2N+
100.0214	1	C4H6NS+
102.0465	1	C8H6+
104.0494	1	C7H6N+
105.0368	1	C4H9OS+
105.0448	2	C6H5N2+
106.945	4	C3HCl2+
108.984	186	C6H2Cl+
109.9918	3	C6H3Cl+
112.0217	1	C5H6NS+
112.9789	7	C5H2ClO+
113.0294	4	C5H7NS+
114.0373	999	C5H8NS+
116.0495	2	C8H6N+
118.0288	3	C7H4NO+
120.9607	11	C4H3Cl2+
120.9839	1	C7H2Cl+
121.9917	1	C7H3Cl+
122.9996	13	C7H4Cl+
123.995	41	C6H3ClN+
126.0337	9	C9H4N+
126.9946	11	C6H4ClO+
127.0417	36	C9H5N+
128.0024	14	C6H5ClO+
128.0495	13	C9H6N+
129.0447	1	C8H5N2+
132.9607	17	C5H3Cl2+
134.9998	3	C8H4Cl+
135.9949	3	C7H3ClN+
136.0076	31	C8H5Cl+
139.006	1	C3H7O4S+
140.0493	1	C10H6N+
142.0323	10	C6H8NOS+
144.9607	71	C6H3Cl2+
145.9682	1	C6H4Cl2+
146.06	4	C9H8NO+
147.9949	125	C8H3ClN+
149.0028	116	C8H4ClN+
150.0108	4	C8H5ClN+
151.0184	50	C8H6ClN+
154.0054	3	C7H5ClNO+
154.0401	11	C9H4N3+
155.0008	6	C3H7O5S+
155.0605	13	C10H7N2+
156.9608	648	C7H3Cl2+
157.956	17	C6H2Cl2N+
158.9764	20	C7H5Cl2+
159.9715	3	C6H4Cl2N+
160.0427	6	C6H10NO2S+
161.0027	4	C9H4ClN+
162.0107	11	C9H5ClN+
162.9713	33	C6H5Cl2O+
163.0059	9	C5H7O4S+
163.0183	22	C9H6ClN+
164.0011	43	C7H3ClN3+
164.0263	4	C9H7ClN+
166.0056	25	C8H5ClNO+
167.0134	9	C8H6ClNO+
169.0761	1	C11H9N2+
170.9637	5	C7H3Cl2N+
170.9764	11	C8H5Cl2+
171.9716	117	C7H4Cl2N+
172.967	432	C3H6ClO4S+
178.0053	3	C9H5ClNO+
180.0213	1	C9H7ClNO+
183.9717	407	C8H4Cl2N+
184.9794	2	C8H5Cl2N+
185.9873	52	C8H6Cl2N+
189.0215	9	C7H9O4S+
189.9821	2	C7H6Cl2NO+
190.029	1	C10H7ClN2+
192.021	1	C10H7ClNO+
195.9717	135	C9H4Cl2N+
197.9873	117	C12H3ClO+
201.9822	3	C8H6Cl2NO+
203.0371	2	C11H8ClN2+
209.9873	22	C10H6Cl2N+
211.9667	68	C9H4Cl2NO+
212.9985	1	C6H10ClO4S+
213.9824	18	C9H6Cl2NO+
215.9977	4	C9H8Cl2NO+
258.0433	1	C10H12NO5S+
