Mass spectrum: Demeton-S-Methyl Sulfone; LC-ESI-QFT; MS2; CE: 150%; R=17500; [M+H]+
Name: Demeton-S-Methyl Sulfone
Name: Demeton-S-methylsulphon
Name: 1-dimethoxyphosphorylsulfanyl-2-ethylsulfonylethane
Formula: C6H15O5PS2
Exact mass: 262.0099
SMILES: CCS(=O)(=O)CCSP(=O)(OC)OC
InChI: InChI=1S/C6H15O5PS2/c1-4-14(8,9)6-5-13-12(7,10-2)11-3/h4-6H2,1-3H3
Instrument: Exploris 240 Orbitrap Thermo Scientific
Instrument type: LC-ESI-QFT
Ms type: MS2
Ion mode: POSITIVE
Ionization: ESI
Fragmentation mode: HCD
Collision energy: 150 % (nominal)
Resolution: 17500
Column name: XBridge C18 3.5um, 2.1x50mm, Waters
Retention time: 2.945 min
Base peak: 263.0169
Precursor m/z: 263.0171
Precursor type: [M+H]+
m/z	relative intensity	assigned
58.9949	152	C2H3S+
64.9692	101	HO2S+
64.9787	62	H2O2P+
78.9943	999	CH4O2P+
80.9464	68	HOS2+
109.005	41	C2H6O3P+
127.016	141	C2H8O4P+
