Mass spectrum: Cyanophos; LC-ESI-QFT; MS2; CE: 180%; R=17500; [M+H]+
Name: Cyanophos
Name: 4-dimethoxyphosphinothioyloxybenzonitrile
Formula: C9H10NO3PS
Exact mass: 243.0119
SMILES: COP(=S)(OC)OC1=CC=C(C=C1)C#N
InChI: InChI=1S/C9H10NO3PS/c1-11-14(15,12-2)13-9-5-3-8(7-10)4-6-9/h3-6H,1-2H3
Instrument: Exploris 240 Orbitrap Thermo Scientific
Instrument type: LC-ESI-QFT
Ms type: MS2
Ion mode: POSITIVE
Ionization: ESI
Fragmentation mode: HCD
Collision energy: 180 % (nominal)
Resolution: 17500
Column name: XBridge C18 3.5um, 2.1x50mm, Waters
Retention time: 6.931 min
Base peak: 244.0192
Precursor m/z: 244.0192
Precursor type: [M+H]+
m/z	relative intensity	assigned
50.0152	155	C4H2+
51.0229	608	C4H3+
52.0182	201	C3H2N+
62.9454	155	PS+
62.9996	105	CH4OP+
63.0229	999	C5H3+
64.0181	288	C4H2N+
64.0309	160	C5H4+
68.9793	451	C3HS+
74.0151	570	C6H2+
75.0229	959	C6H3+
76.0183	542	C5H2N+
78.9944	292	CH4O2P+
81.9872	282	C4H2S+
90.0338	302	C6H4N+
91.0417	336	C6H5N+
106.9953	56	C2H6NPS+
