Mass spectrum: LSD; LC-ESI-QFT; MS2; CE: 45; R=35000; [M+H]+
Name: LSD
Name: D-Lysergic acid N,N-diethylamide
Name: N,N-diethyl-7-methyl-6,6a,8,9-tetrahydro-4H-indolo[4,3-fg]quinoline-9-carboxamide
Formula: C20H25N3O
Exact mass: 323.19976
SMILES: CCN(CC)C(=O)C1CN(C2CC3=CNC4=CC=CC(=C34)C2=C1)C
InChI: InChI=1S/C20H25N3O/c1-4-23(5-2)20(24)14-9-16-15-7-6-8-17-19(15)13(11-21-17)10-18(16)22(3)12-14/h6-9,11,14,18,21H,4-5,10,12H2,1-3H3
Instrument: Q Exactive Plus Orbitrap Thermo Scientific
Instrument type: LC-ESI-QFT
Ms type: MS2
Ion mode: POSITIVE
Ionization: ESI
Fragmentation mode: HCD
Collision energy: 45 (nominal)
Resolution: 35000
Column name: XBridge C18 3.5um, 2.1x50mm, Waters
Retention time: 5.6 min
Base peak: 324.2062
Precursor m/z: 324.207
Precursor type: [M+H]+
m/z	relative intensity	assigned
56.0494	3	C3H6N+
72.0443	18	C3H6NO+
72.0807	18	C4H10N+
74.0964	132	C4H12N+
86.0963	1	C5H12N+
100.0757	49	C5H10NO+
128.107	51	C7H14NO+
152.0616	1	C12H8+
153.0699	1	C12H9+
154.065	4	C11H8N+
156.0808	32	C11H10N+
165.0698	1	C13H9+
167.0728	7	C12H9N+
168.0807	14	C12H10N+
179.0728	1	C13H9N+
180.0807	396	C13H10N+
181.0648	2	C13H9O+
181.0885	5	C13H11N+
182.0842	9	C12H10N2+
182.0964	41	C13H12N+
190.0649	5	C14H8N+
191.0729	10	C14H9N+
192.0807	82	C14H10N+
193.076	5	C13H9N2+
193.0886	9	C14H11N+
194.0837	3	C13H10N2+
194.0965	23	C14H12N+
195.1043	4	C14H13N+
196.1121	9	C14H14N+
197.1073	124	C13H13N2+
206.0969	3	C15H12N+
207.0679	24	C14H9NO+
207.0915	26	C14H11N2+
208.0757	762	C14H10NO+
208.0993	184	C14H12N2+
209.1072	6	C14H13N2+
210.0913	42	C14H12NO+
220.0758	8	C15H10NO+
220.0994	6	C15H12N2+
221.1073	30	C15H13N2+
222.1151	10	C15H14N2+
223.123	999	C15H15N2+
224.1307	7	C15H16N2+
236.0949	3	C15H12N2O+
251.1179	36	C16H15N2O+
253.1697	7	C17H21N2+
279.1491	3	C18H19N2O+
281.1649	329	C18H21N2O+
293.1646	3	C19H21N2O+
309.1835	16	C19H23N3O+
324.207	69	C20H26N3O+
