Mass spectrum: Nitrazepam; LC-ESI-QFT; MS2; CE: 180; R=35000; [M+H]+
Name: Nitrazepam
Name: 7-nitro-5-phenyl-1,3-dihydro-1,4-benzodiazepin-2-one
Formula: C15H11N3O3
Exact mass: 281.08004
SMILES: C1C(=O)NC2=C(C=C(C=C2)[N+](=O)[O-])C(=N1)C3=CC=CC=C3
InChI: InChI=1S/C15H11N3O3/c19-14-9-16-15(10-4-2-1-3-5-10)12-8-11(18(20)21)6-7-13(12)17-14/h1-8H,9H2,(H,17,19)
Instrument: Q Exactive Plus Orbitrap Thermo Scientific
Instrument type: LC-ESI-QFT
Ms type: MS2
Ion mode: POSITIVE
Ionization: ESI
Fragmentation mode: HCD
Collision energy: 180 (nominal)
Resolution: 35000
Column name: XBridge C18 3.5um, 2.1x50mm, Waters
Retention time: 7.7 min
Base peak: 282.0866
Precursor m/z: 282.0873
Precursor type: [M+H]+
m/z	relative intensity	assigned
50.0151	172	C4H2+
51.0229	94	C4H3+
52.0182	25	C3H2N+
52.0307	7	C4H4+
53.0022	10	
53.0386	74	C4H5+
54.0339	5	C3H4N+
55.0178	6	C3H3O+
61.0072	17	C5H+
62.0151	64	C5H2+
63.0229	167	C5H3+
64.0182	11	C4H2N+
64.0307	4	C5H4+
65.0022	17	C4HO+
65.0386	129	C5H5+
66.0099	4	C4H2O+
66.0464	18	C5H6+
67.0416	1	C4H5N+
74.0151	61	C6H2+
75.0229	191	C6H3+
76.0181	52	C5H2N+
76.0307	116	C6H4+
77.0385	188	C6H5+
78.0338	32	C5H4N+
78.0464	74	C6H6+
79.0179	4	C5H3O+
79.0416	5	C5H5N+
79.0542	1	C6H7+
80.0494	1	C5H6N+
81.0335	16	C5H5O+
86.015	13	C7H2+
87.0229	51	C7H3+
88.0182	17	C6H2N+
88.0307	16	C7H4+
89.0385	203	C7H5+
90.0339	11	C6H4N+
90.0464	27	C7H6+
91.0542	46	C7H7+
92.0495	1	C6H6N+
94.0413	8	C6H6O+
95.0491	227	C6H7O+
96.0444	21	C5H6NO+
98.015	22	C8H2+
99.0229	46	C8H3+
100.0307	12	C8H4+
101.0386	15	C8H5+
102.0338	49	C7H4N+
102.0464	114	C8H6+
103.0417	12	C7H5N+
103.0542	21	C8H7+
104.0494	54	C7H6N+
105.0447	167	C6H5N2+
111.0229	9	C9H3+
113.0385	167	C9H5+
114.0338	31	C8H4N+
114.0464	20	C9H6+
115.0542	182	C9H7+
116.0494	17	C8H6N+
117.0572	10	C8H7N+
119.0492	12	C8H7O+
120.0444	8	C7H6NO+
121.0398	4	C6H5N2O+
124.0308	5	C10H4+
125.0386	73	C10H5+
126.0464	265	C10H6+
127.0417	13	C9H5N+
127.0542	108	C10H7+
128.0494	17	C9H6N+
128.062	90	C10H8+
129.0447	61	C8H5N2+
130.0401	29	C7H4N3+
132.0443	2	C8H6NO+
132.0572	1	C9H8O+
137.0386	64	C11H5+
138.034	13	C10H4N+
138.0464	28	C11H6+
139.0542	226	C11H7+
140.0494	158	C10H6N+
141.0574	2	C10H7N+
141.0698	2	C11H9+
143.0493	12	C10H7O+
145.0648	47	C10H9O+
146.06	6	C9H8NO+
149.0386	19	C12H5+
150.0464	438	C12H6+
151.0417	16	
151.0542	206	C12H7+
152.062	999	C12H8+
153.0573	46	C11H7N+
153.0697	16	C12H9+
154.0651	24	C11H8N+
155.0603	116	C10H7N2+
157.0523	1	C10H7NO+
161.0386	27	C13H5+
162.0464	79	C13H6+
163.0542	370	C13H7+
164.0494	137	C12H6N+
164.0616	43	C13H8+
165.0575	6	C12H7N+
165.0699	45	C13H9+
166.0652	31	C12H8N+
167.073	9	C12H9N+
168.0569	18	C12H8O+
169.0648	446	C12H9O+
170.06	26	C11H8NO+
175.0414	10	C13H5N+
176.0494	3	C13H6N+
177.0573	181	C13H7N+
178.0651	135	C13H8N+
179.0604	198	C12H7N2+
179.0718	16	
180.0559	7	C11H6N3+
180.0809	4	C13H10N+
183.0683	1	C12H9NO+
183.08	2	C13H11O+
188.0494	74	C14H6N+
189.0573	13	C14H7N+
190.0651	37	C14H8N+
191.0602	6	C13H7N2+
191.073	9	C14H9N+
192.0679	5	C13H8N2+
193.052	4	C13H7NO+
194.0363	16	C13H6O2+
194.06	15	C13H8NO+
196.0519	5	C13H8O2+
196.0759	4	C13H10NO+
203.0607	1	C14H7N2+
204.0555	13	C13H6N3+
204.0681	6	C14H8N2+
205.0761	63	C14H9N2+
207.0678	1	C14H9NO+
211.0629	1	C13H9NO2+
221.0472	4	C14H7NO2+
