Mass spectrum: Chloridazone-methyl-desphenyl; LC-ESI-ITFT; MS2; CE: 75%; R=7500; [M+H]+
Name: Chloridazone-methyl-desphenyl
Name: 1-Methyl-4-amino-5-chloro-6-oxo-(1H)-pyridazine
Name: 5-amino-4-chloro-2-methyl-3-pyridazinone
Formula: C5H6ClN3O
Exact mass: 159.0199
SMILES: ClC(=C(C=N1)N)C(=O)N1C
InChI: InChI=1S/C5H6ClN3O/c1-9-5(10)4(6)3(7)2-8-9/h2H,7H2,1H3
Instrument: LTQ Orbitrap XL Thermo Scientific
Instrument type: LC-ESI-ITFT
Ms type: MS2
Ion mode: POSITIVE
Ionization: ESI
Fragmentation mode: HCD
Collision energy: 75 % (nominal)
Resolution: 7500
Column name: XBridge C18 3.5um, 2.1x50mm, Waters
Retention time: 2.2 min
Base peak: 160.0271
Precursor m/z: 160.0272
Precursor type: [M+H]+
m/z	relative intensity	assigned
55.0291	1	C2H3N2+
57.0447	1	C2H5N2+
63.9948	1	CH3ClN+
67.0291	2	C3H3N2+
68.0495	8	C4H6N+
69.0448	8	C3H5N2+
75.9949	16	C2H3ClN+
78.0104	2	C2H5ClN+
81.0447	1	C4H5N2+
86.9996	5	C4H4Cl+
87.9949	72	C3H3ClN+
90.0105	3	C3H5ClN+
96.0443	2	C5H6NO+
96.0557	1	C4H6N3+
97.0397	3	C4H5N2O+
97.0521	1	C5H7NO+
97.0637	3	C4H7N3+
100.9902	3	C3H2ClN2+
101.9741	4	C3HClNO+
103.0056	1	C3H4ClN2+
103.0184	2	C4H6ClN+
103.9898	10	C3H3ClNO+
115.006	2	C4H4ClN2+
115.9899	8	C4H3ClNO+
116.9976	121	C4H4ClNO+
124.0507	17	C5H6N3O+
125.0585	3	C5H7N3O+
128.9851	6	C4H2ClN2O+
130.0055	78	C5H5ClNO+
131.0008	15	C4H4ClN2O+
131.0133	21	C5H6ClNO+
132.0087	7	C4H5ClN2O+
133.0164	4	C4H6ClN2O+
145.0038	38	C4H4ClN3O+
158.0118	4	C5H5ClN3O+
160.0272	999	C5H7ClN3O+
