Mass spectrum: Pinoxaden-TP NOA 407854; LC-ESI-QFT; MS2; CE: 45%; R=17500; [M+H]+
Name: Pinoxaden-TP NOA 407854
Name: 8-(2,6-Diethyl-4-methylphenyl)tetrahydropyrazolo(1,2-d)(1,4,5)oxadiazepine-7,9-dione
Formula: C18H24N2O3
Exact mass: 316.1787
SMILES: CCC1=CC(C)=CC(CC)=C1C1C(=O)N2CCOCCN2C1=O
InChI: InChI=1S/C18H24N2O3/c1-4-13-10-12(3)11-14(5-2)15(13)16-17(21)19-6-8-23-9-7-20(19)18(16)22/h10-11,16H,4-9H2,1-3H3
Instrument: Q Exactive Plus Orbitrap Thermo Scientific
Instrument type: LC-ESI-QFT
Ms type: MS2
Ion mode: POSITIVE
Ionization: ESI
Fragmentation mode: HCD
Collision energy: 45 % (nominal)
Resolution: 17500
Column name: XBridge C18 3.5um, 2.1x50mm, Waters
Retention time: 7.136 min
Base peak: 317.186
Precursor m/z: 317.186
Precursor type: [M+H]+
m/z	relative intensity	assigned
57.0449	2	C2H5N2+
67.5404	11	
70.0655	3	C4H8N+
71.0604	46	C3H7N2+
72.0447	4	C3H6NO+
85.04	2	C3H5N2O+
85.0762	1	C4H9N2+
86.0604	5	C4H8NO+
88.0759	11	C4H10NO+
91.0544	3	C7H7+
93.07	2	C7H9+
97.0395	1	C4H5N2O+
101.071	165	C4H9N2O+
102.079	8	C4H10N2O+
103.087	7	C4H11N2O+
119.0856	57	C9H11+
127.0505	7	C5H7N2O2+
131.0855	21	C10H11+
133.101	31	C10H13+
143.0858	4	C11H11+
145.0889	5	C10H11N+
145.1015	3	C11H13+
147.0805	2	
147.1169	123	C11H15+
157.1011	4	C12H13+
159.0809	11	C11H11O+
159.1167	46	C12H15+
160.0758	2	C10H10NO+
160.0887	6	C11H12O+
160.1124	6	C11H14N+
161.0964	8	C11H13O+
161.1325	30	C12H17+
169.1015	3	C13H13+
171.0764	108	C7H11N2O3+
172.1127	6	C12H14N+
174.0914	39	C11H12NO+
174.1276	25	C12H16N+
175.1116	8	C12H15O+
183.0766	6	C8H11N2O3+
187.0754	7	C12H11O2+
187.1122	16	C13H15O+
188.1564	7	C14H20+
189.14	9	C12H17N2+
197.0938	5	C9H13N2O3+
200.1433	12	C14H18N+
202.1227	39	C13H16NO+
203.1306	2	C13H17NO+
204.0773	2	C12H12O3+
211.1081	3	C10H15N2O3+
215.1068	13	C14H15O2+
216.0896	11	C12H12N2O2+
217.17	12	C14H21N2+
228.1021	4	C14H14NO2+
228.1389	7	C15H18NO+
229.0972	14	C13H13N2O2+
233.165	40	C14H21N2O+
244.1216	47	C14H16N2O2+
244.146	10	C16H20O2+
245.1277	10	C14H17N2O2+
261.1236	11	C14H17N2O3+
261.1961	52	C16H25N2O+
271.144	16	C16H19N2O2+
273.1244	3	C15H17N2O3+
273.1596	9	C16H21N2O2+
285.1597	4	C17H21N2O2+
288.1467	65	C16H20N2O3+
289.1547	289	C16H21N2O3+
301.1538	2	C17H21N2O3+
317.1859	999	C18H25N2O3+
