Mass spectrum: Fludrocortisone; LC-ESI-QFT; MS2; CE: 60; R=35000; [M+H]+
Name: Fludrocortisone
Name: [2-[(8S,9R,10S,11S,13S,14S,17R)-9-fluoro-11,17-dihydroxy-10,13-dimethyl-3-oxo-1,2,6,7,8,11,12,14,15,16-decahydrocyclopenta[a]phenanthren-17-yl]-2-oxoethyl] acetate
Formula: C23H31FO6
Exact mass: 422.21047
SMILES: O=C(OCC(=O)[C@]3(O)[C@]2(C[C@H](O)[C@]4(F)[C@@]1(/C(=C\C(=O)CC1)CC[C@H]4[C@@H]2CC3)C)C)C
InChI: InChI=1S/C23H31FO6/c1-13(25)30-12-19(28)22(29)9-7-16-17-5-4-14-10-15(26)6-8-20(14,2)23(17,24)18(27)11-21(16,22)3/h10,16-18,27,29H,4-9,11-12H2,1-3H3/t16-,17-,18-,20-,21-,22-,23-/m0/s1
Instrument: Q Exactive Orbitrap Thermo Scientific
Instrument type: LC-ESI-QFT
Ms type: MS2
Ion mode: POSITIVE
Ionization: ESI
Fragmentation mode: HCD
Collision energy: 60 (nominal)
Resolution: 35000
Column name: XBridge C18 3.5um, 2.1x50mm, Waters
Retention time: 9.4 min
Base peak: 423.2179
Precursor m/z: 423.2177
Precursor type: [M+H]+
m/z	relative intensity	assigned
55.0179	15	C3H3O+
55.0543	18	C4H7+
61.0284	83	C2H5O2+
65.0386	12	C5H5+
67.0543	171	C5H7+
69.0335	96	C4H5O+
69.0699	91	C5H9+
71.0492	28	C4H7O+
73.045	13	C4H6F+
77.0383	20	C6H5+
79.0543	280	C6H7+
81.0335	45	C5H5O+
81.0699	240	C6H9+
83.0492	245	C5H7O+
91.0542	471	C7H7+
93.0699	485	C7H9+
95.0492	196	C6H7O+
95.0856	244	C7H11+
97.0649	523	C6H9O+
99.0441	59	C5H7O2+
101.0234	61	C4H5O3+
101.0398	314	C5H6FO+
103.0388	15	C4H7O3+
103.0544	57	C8H7+
105.07	852	C8H9+
107.0492	118	C7H7O+
107.0856	321	C8H11+
108.0569	13	C7H8O+
109.0449	13	C7H6F+
109.0649	230	C7H9O+
109.1012	49	C8H13+
111.0441	23	C6H7O2+
111.0805	24	C7H11O+
115.0391	30	C5H7O3+
115.054	80	C9H7+
116.062	41	C9H8+
117.0699	276	C9H9+
119.0856	582	C9H11+
121.0649	798	C8H9O+
121.1013	82	C9H13+
123.0604	68	C8H8F+
123.0805	539	C8H11O+
125.0397	15	C7H6FO+
125.0596	40	C7H9O2+
128.0621	222	C10H8+
129.07	309	C10H9+
130.0777	43	C10H10+
131.0856	512	C10H11+
133.0648	143	C9H9O+
133.1012	337	C10H13+
134.0727	12	C9H10O+
135.0805	326	C9H11O+
135.1168	25	C10H15+
137.0596	65	C8H9O2+
137.0761	18	C9H10F+
137.0959	79	C9H13O+
139.0753	21	C8H11O2+
141.0697	187	C11H9+
142.0779	189	C11H10+
143.0857	999	C11H11+
144.0568	11	C10H8O+
144.0933	16	C11H12+
145.0649	158	C10H9O+
145.1013	459	C11H13+
146.0728	21	C10H10O+
147.0805	478	C10H11O+
147.1168	47	C11H15+
148.0883	21	C10H12O+
149.0963	99	C10H13O+
151.0917	9	C10H12F+
152.062	11	C12H8+
153.0701	72	C12H9+
153.0911	19	C9H13O2+
154.0777	72	C12H10+
155.0856	448	C12H11+
156.0935	87	C12H12+
157.0648	55	C11H9O+
157.1012	527	C12H13+
158.0726	40	C11H10O+
158.1096	19	C12H14+
159.0805	366	C11H11O+
159.117	167	C12H15+
160.0883	49	C11H12O+
161.0961	443	C11H13O+
162.1037	11	C11H14O+
163.0756	75	C10H11O2+
163.0914	50	C11H12F+
163.1118	310	C11H15O+
165.0701	137	C13H9+
165.0913	10	C10H13O2+
165.1073	21	C11H14F+
166.0782	120	C13H10+
167.0856	240	C13H11+
168.0934	129	C13H12+
169.1011	504	C13H13+
170.0723	30	C12H10O+
170.1089	53	C13H14+
171.0802	181	C12H11O+
171.1169	199	C13H15+
172.1249	13	C13H16+
173.0961	367	C12H13O+
173.1322	38	C13H17+
174.1043	19	C12H14O+
175.0752	15	C11H11O2+
175.1117	163	C12H15O+
177.0907	15	C11H13O2+
178.0777	52	C14H10+
179.0857	180	C14H11+
180.0934	111	C14H12+
181.1018	959	C11H14FO+
182.0731	15	C13H10O+
182.1091	165	C14H14+
183.0805	115	C13H11O+
183.1169	395	C14H15+
184.0882	39	C13H12O+
184.1247	42	C14H16+
185.0961	200	C13H13O+
185.1324	142	C14H17+
186.1035	13	C13H14O+
186.1401	16	C14H18+
187.0753	18	C12H11O2+
187.1118	135	C13H15O+
187.1477	12	C14H19+
189.091	179	C12H13O2+
189.1271	48	C13H17O+
191.0858	66	C15H11+
192.0933	102	C15H12+
193.1013	224	C15H13+
194.1088	91	C15H14+
195.0803	53	C14H11O+
195.1167	388	C15H15+
196.0883	55	C14H12O+
196.1243	110	C15H16+
197.0959	156	C14H13O+
197.1323	470	C15H17+
198.1034	12	C14H14O+
199.1115	245	C14H15O+
199.1479	110	C15H19+
201.091	53	C13H13O2+
201.127	67	C14H17O+
203.0857	46	C16H11+
203.1064	21	C13H15O2+
204.0935	29	C16H12+
205.1011	149	C16H13+
206.1091	284	C16H14+
207.0804	14	C15H11O+
207.1169	236	C16H15+
208.1248	84	C16H16+
209.0963	97	C15H13O+
209.1324	244	C16H17+
210.1037	53	C15H14O+
210.1402	11	C16H18+
211.1119	237	C15H15O+
211.1481	160	C16H19+
212.1193	18	C15H16O+
213.0913	13	C14H13O2+
213.127	113	C15H17O+
213.1634	19	C16H21+
215.0857	17	C17H11+
215.1433	47	C15H19O+
217.1008	94	C17H13+
218.1088	73	C17H14+
219.1167	135	C17H15+
220.1244	21	C17H16+
221.0962	22	C16H13O+
221.1324	253	C17H17+
222.1037	50	C16H14O+
222.1407	19	C17H18+
223.1116	99	C16H15O+
223.1482	152	C17H19+
224.1198	127	C16H16O+
224.1559	25	C17H20+
225.1273	164	C16H17O+
225.1636	93	C17H21+
226.1351	65	C16H18O+
227.1065	16	C15H15O2+
227.1429	62	C16H19O+
229.1223	48	C15H17O2+
230.1088	25	C18H14+
231.1169	64	C18H15+
232.1243	92	C18H16+
233.1325	76	C18H17+
234.1046	14	C17H14O+
234.1404	11	C18H18+
235.1115	45	C17H15O+
235.1477	47	C18H19+
236.1196	24	C17H16O+
237.1274	145	C17H17O+
237.1637	90	C18H21+
238.1352	41	C17H18O+
238.172	13	C15H23FO+
239.1429	314	C17H19O+
240.1504	40	C17H20O+
241.1219	16	C16H17O2+
241.1586	164	C17H21O+
242.1666	19	C17H22O+
243.138	90	C16H19O2+
245.1326	16	C19H17+
246.14	39	C19H18+
247.1482	80	C19H19+
249.127	80	C18H17O+
249.1632	14	C19H21+
250.1348	68	C18H18O+
251.1433	166	C18H19O+
251.1795	14	C19H23+
253.1584	60	C18H21O+
255.138	21	C17H19O2+
255.1743	25	C18H23O+
257.153	44	C17H21O2+
258.1612	89	C17H22O2+
259.1122	12	C19H15O+
261.1641	40	C20H21+
263.1426	43	C19H19O+
264.1506	12	C19H20O+
265.1587	147	C19H21O+
266.1665	61	C19H22O+
267.1384	22	C18H19O2+
267.1742	83	C19H23O+
269.1533	181	C18H21O2+
270.1611	16	C18H22O2+
274.1354	17	C20H18O+
279.1376	23	C19H19O2+
279.1741	19	C20H23O+
281.1541	11	C19H21O2+
283.1691	59	C19H23O2+
284.1772	98	C19H24O2+
285.1486	16	C18H21O3+
289.159	17	C21H21O+
292.147	12	C20H20O2+
299.1644	18	C19H23O3+
307.1697	18	C21H23O2+
310.1566	17	C20H22O3+
325.1797	15	C21H25O3+
