Mass spectrum: Ecgonine-methyl-ester (EME); LC-ESI-QFT; MS2; CE: 150; R=35000; [M+H]+
Name: Ecgonine-methyl-ester (EME)
Name: Ecgonine methyl ester
Name: Methyl 3-hydroxy-8-methyl-8-azabicyclo[3.2.1]octane-4-carboxylate
Formula: C10H17NO3
Exact mass: 199.12084
SMILES: CN1C2CCC1C(C(C2)O)C(=O)OC
InChI: InChI=1S/C10H17NO3/c1-11-6-3-4-7(11)9(8(12)5-6)10(13)14-2/h6-9,12H,3-5H2,1-2H3
Instrument: Q Exactive Plus Orbitrap Thermo Scientific
Instrument type: LC-ESI-QFT
Ms type: MS2
Ion mode: POSITIVE
Ionization: ESI
Fragmentation mode: HCD
Collision energy: 150 (nominal)
Resolution: 35000
Column name: XBridge C18 3.5um, 2.1x50mm, Waters
Retention time: 0.8 min
Base peak: 200.1275
Precursor m/z: 200.1281
Precursor type: [M+H]+
m/z	relative intensity	assigned
50.0151	12	C4H2+
51.0229	16	C4H3+
52.0308	1	C4H4+
53.0022	21	C3HO+
53.0386	75	C4H5+
53.9975	8	C2NO+
54.0099	1	C3H2O+
54.0338	14	C3H4N+
54.0464	10	C4H6+
55.0178	7	C3H3O+
55.0416	6	C3H5N+
55.0542	60	C4H7+
56.0494	78	C3H6N+
57.0573	58	C3H7N+
58.0287	6	C2H4NO+
58.0651	6	C3H8N+
59.049	1	C3H7O+
63.0228	5	C5H3+
64.0306	1	C5H4+
65.0385	518	C5H5+
66.0464	29	C5H6+
67.0416	430	C4H5N+
67.0542	83	C5H7+
68.0494	523	C4H6N+
69.0334	49	C4H5O+
70.065	25	C4H8N+
71.0127	59	C3H3O2+
71.049	4	C4H7O+
72.0806	2	C4H10N+
77.0385	44	C6H5+
78.0338	10	C5H4N+
78.0464	4	C6H6+
79.0415	13	C5H5N+
79.0542	83	C6H7+
80.0494	124	C5H6N+
81.0334	15	C5H5O+
81.0573	50	C5H7N+
81.0699	11	C6H9+
82.065	999	C5H8N+
83.0728	56	C5H9N+
84.0444	4	C4H6NO+
84.0807	38	C5H10N+
89.0385	23	C7H5+
90.0464	23	C7H6+
91.0542	218	C7H7+
92.0494	7	C6H6N+
93.0334	9	C6H5O+
93.0572	26	C6H7N+
93.0699	4	C7H9+
94.0651	435	C6H8N+
95.0491	78	C6H7O+
96.0443	20	C5H6NO+
96.0807	19	C6H10N+
97.0647	6	C6H9O+
100.0755	6	C5H10NO+
105.0447	50	C6H5N2+
106.065	34	C7H8N+
107.049	8	C7H7O+
107.0729	14	C7H9N+
108.0568	1	C7H8O+
108.0807	15	C7H10N+
110.0599	4	C6H8NO+
117.0572	8	C8H7N+
118.0411	4	C8H6O+
119.0489	1	C8H7O+
120.0443	1	C7H6NO+
120.0808	4	C8H10N+
122.0598	1	C7H8NO+
122.0964	2	C8H12N+
130.0653	1	C9H8N+
134.06	4	C8H8NO+
138.0547	5	C7H8NO2+
152.0705	1	C8H10NO2+
