Mass spectrum: Fenhexamid; LC-ESI-QFT; MS2; CE: 90; R=35000; [M-H]-
Name: Fenhexamid
Name: N-(2,3-dichloro-4-hydroxy-phenyl)-1-methyl-cyclohexanecarboxamide
Formula: C14H17Cl2NO2
Exact mass: 301.06363
SMILES: O=C(Nc1ccc(O)c(Cl)c1Cl)C2(C)CCCCC2
InChI: InChI=1S/C14H17Cl2NO2/c1-14(7-3-2-4-8-14)13(19)17-9-5-6-10(18)12(16)11(9)15/h5-6,18H,2-4,7-8H2,1H3,(H,17,19)
Instrument: Q Exactive Orbitrap Thermo Scientific
Instrument type: LC-ESI-QFT
Ms type: MS2
Ion mode: NEGATIVE
Ionization: ESI
Fragmentation mode: HCD
Collision energy: 90 (nominal)
Resolution: 35000
Column name: XBridge C18 3.5um, 2.1x50mm, Waters
Retention time: 11.6 min
Base peak: 300.0566
Precursor m/z: 300.0564
Precursor type: [M-H]-
m/z	relative intensity	assigned
103.0063	49	C6HNO-
120.009	12	C6H2NO2-
132.0091	23	C7H2NO2-
138.9831	240	C6H2ClNO-
154.9779	32	C6H2ClNO2-
155.9858	125	C6H3ClNO2-
157.0532	47	C10H7NO-
159.0325	26	C9H5NO2-
166.9778	25	C7H2ClNO2-
167.9859	55	C7H3ClNO2-
168.0817	8	C12H10N-
170.0244	7	C10H4NO2-
172.0403	9	C10H6NO2-
174.9593	21	C9ClO2-
180.9937	405	C8H4ClNO2-
182.9726	30	C7H2ClNO3-
184.0405	85	C11H6NO2-
184.0767	76	C12H10NO-
185.0481	61	C11H7NO2-
185.0848	56	C12H11NO-
191.986	175	C9H3ClNO2-
192.9936	299	C9H4ClNO2-
194.0014	221	C9H5ClNO2-
195.0092	73	C9H6ClNO2-
198.0562	14	C12H8NO2-
200.1082	24	C13H14NO-
206.0017	22	C10H5ClNO2-
207.0092	29	C10H6ClNO2-
208.0172	102	C10H7ClNO2-
212.0717	162	C13H10NO2-
213.0794	29	C13H11NO2-
220.0171	711	C11H7ClNO2-
221.0248	290	C11H8ClNO2-
234.0329	27	C12H9ClNO2-
248.0484	999	C13H11ClNO2-
249.0563	108	C13H12ClNO2-
264.0794	31	C14H15ClNO2-
