Mass spectrum: Norfloxacin; LC-ESI-ITFT; MS2; CE: 60%; R=15000; [M+H]+
Name: Norfloxacin
Name: 1-ethyl-6-fluoro-4-oxo-7-piperazin-1-yl-1,4-dihydroquinoline-3-carboxylic acid
Formula: C16H18FN3O3
Exact mass: 319.1332
SMILES: CCN1C=C(C(O)=O)C(=O)C2=CC(F)=C(C=C12)N3CCNCC3
InChI: InChI=1S/C16H18FN3O3/c1-2-19-9-11(16(22)23)15(21)10-7-12(17)14(8-13(10)19)20-5-3-18-4-6-20/h7-9,18H,2-6H2,1H3,(H,22,23)
Instrument: LTQ Orbitrap XL Thermo Scientific
Instrument type: LC-ESI-ITFT
Ms type: MS2
Ion mode: POSITIVE
Ionization: ESI
Fragmentation mode: HCD
Collision energy: 60 % (nominal)
Resolution: 15000
Column name: XBridge C18 3.5um, 2.1x50mm, Waters
Retention time: 4.4 min
Base peak: 320.1415
Precursor m/z: 320.1405
Precursor type: [M+H]+
m/z	relative intensity	assigned
56.0494	1	C3H6N+
70.0652	11	C4H8N+
135.0477	1	C8H6FN+
136.0556	2	C8H7FN+
150.072	1	C9H9FN+
152.0748	2	C8H9FN2+
156.0676	1	C10H8N2+
157.0757	2	C10H9N2+
159.092	1	C10H11N2+
161.051	1	C9H6FN2+
163.0428	2	C9H6FNO+
163.0666	7	C9H8FN2+
164.0507	4	C9H7FNO+
165.0823	17	C9H10FN2+
171.0917	5	C11H11N2+
172.0757	8	C11H10NO+
175.0666	1	C10H8FN2+
176.051	2	C10H7FNO+
176.0745	15	C10H9FN2+
177.0579	3	C10H8FNO+
177.0823	8	C10H10FN2+
178.0899	1	C10H11FN2+
179.0616	10	C9H8FN2O+
179.0734	1	C10H10FNO+
179.0979	10	C10H12FN2+
184.0632	3	C11H8N2O+
185.0709	19	C11H9N2O+
185.1071	3	C12H13N2+
186.059	1	C11H7FN2+
187.0665	9	C11H8FN2+
188.0506	2	C11H7FNO+
189.0459	3	C10H6FN2O+
189.0822	10	C11H10FN2+
190.054	3	C10H7FN2O+
190.066	8	C11H9FNO+
191.0615	21	C10H8FN2O+
191.0743	6	C11H10FNO+
191.0981	4	C11H12FN2+
192.0695	9	C10H9FN2O+
192.0817	5	C11H11FNO+
193.0771	3	C10H10FN2O+
196.087	1	C12H10N3+
197.0488	2	C9H8FNO3+
197.0709	1	C12H9N2O+
197.0948	2	C12H11N3+
197.1075	2	C13H13N2+
198.0663	5	C11H8N3O+
198.0791	3	C12H10N2O+
198.1026	5	C12H12N3+
199.0742	3	C8H10FN3O2+
199.0863	2	C12H11N2O+
200.0811	1	C11H10N3O+
201.1024	3	C12H13N2O+
202.0532	2	C11H7FN2O+
202.0904	2	C12H11FN2+
203.0615	74	C11H8FN2O+
204.0693	77	C11H9FN2O+
204.1059	23	C12H13FN2+
205.0772	218	C11H10FN2O+
206.0849	24	C11H11FN2O+
207.0928	18	C11H12FN2O+
210.1029	2	C13H12N3+
211.1104	15	C13H13N3+
212.0819	5	C12H10N3O+
212.1185	1	C13H14N3+
213.0896	2	C12H11N3O+
213.1023	14	C13H13N2O+
215.098	12	C13H12FN2+
216.0696	3	C12H9FN2O+
217.0403	1	C11H6FN2O2+
217.0771	9	C12H10FN2O+
218.085	26	C12H11FN2O+
219.0928	101	C12H12FN2O+
220.1007	3	C12H13FN2O+
221.0713	1	C11H10FN2O2+
223.0641	8	C11H10FNO3+
225.0532	1	C12H7N3O2+
225.1024	1	C14H13N2O+
225.1262	3	C14H15N3+
226.061	2	C12H8N3O2+
226.0975	30	C13H12N3O+
226.134	13	C14H16N3+
227.1054	16	C13H13N3O+
227.1168	3	C14H15N2O+
228.1132	16	C13H14N3O+
230.1093	2	C13H13FN3+
230.129	3	C13H16N3O+
231.0565	279	C12H8FN2O2+
232.064	1	C12H9FN2O2+
233.1086	478	C13H14FN2O+
235.0875	1	C12H12FN2O2+
238.0607	1	C13H8N3O2+
239.1048	1	C14H13N3O+
241.1209	2	C14H15N3O+
243.0574	1	C13H8FN2O2+
245.0725	9	C13H10FN2O2+
245.1089	6	C14H14FN2O+
246.1041	4	C13H13FN3O+
246.1401	5	C14H17FN3+
247.1111	2	C13H14FN3O+
248.1195	3	C13H15FN3O+
249.0665	5	C12H10FN2O3+
252.0765	2	C14H10N3O2+
253.0845	14	C14H11N3O2+
254.0925	58	C14H12N3O2+
254.1286	28	C15H16N3O+
256.1445	31	C12H19FN3O2+
258.1401	11	C15H17FN3+
259.0878	18	C14H12FN2O2+
259.1247	2	C15H16FN2O+
263.0809	1	C16H11N2O2+
272.083	3	C14H11FN3O2+
272.1029	11	C14H14N3O3+
273.0912	5	C14H12FN3O2+
274.0986	56	C14H13FN3O2+
274.1349	29	C15H17FN3O+
276.1507	44	C15H19FN3O+
277.0985	3	C14H14FN2O3+
282.1236	248	C16H16N3O2+
292.1091	10	C14H15FN3O3+
300.1341	54	C16H18N3O3+
302.13	999	C16H17FN3O2+
320.1403	306	C16H19FN3O3+
