Mass spectrum: Dextromethorphan; LC-ESI-ITFT; MS2; CE: 60%; R=7500; [M+H]+
Name: Dextromethorphan
Name: DXM
Name: (14alpha)-3-Methoxy-17-methylmorphinan
Formula: C18H25NO
Exact mass: 271.1936
SMILES: O(c1ccc3c(c1)[C@@]24[C@@H]([C@H](N(CC2)C)C3)CCCC4)C
InChI: InChI=1S/C18H25NO/c1-19-10-9-18-8-4-3-5-15(18)17(19)11-13-6-7-14(20-2)12-16(13)18/h6-7,12,15,17H,3-5,8-11H2,1-2H3/t15-,17+,18+/m1/s1
Instrument: LTQ Orbitrap XL Thermo Scientific
Instrument type: LC-ESI-ITFT
Ms type: MS2
Ion mode: POSITIVE
Ionization: ESI
Fragmentation mode: HCD
Collision energy: 60 % (nominal)
Resolution: 7500
Column name: XBridge C18 3.5um, 2.1x50mm, Waters
Retention time: 6.6 min
Base peak: 272.2015
Precursor m/z: 272.2009
Precursor type: [M+H]+
m/z	relative intensity	assigned
58.0654	4	C3H8N+
79.0546	5	C6H7+
81.0699	11	C6H9+
91.0543	9	C7H7+
93.0697	4	C7H9+
121.0648	102	C8H9O+
132.0568	19	C9H8O+
135.0803	25	C9H11O+
144.0564	8	C10H8O+
145.0646	9	C10H9O+
147.0805	519	C10H11O+
159.0804	160	C11H11O+
161.0963	16	C11H13O+
171.0804	164	C12H11O+
173.096	155	C12H13O+
185.0964	5	C13H13O+
187.1126	7	C13H15O+
198.1038	45	C14H14O+
199.1119	37	C14H15O+
213.1275	813	C15H17O+
215.143	820	C15H19O+
241.1582	28	C17H21O+
272.2008	999	C18H26NO+
