Mass spectrum: Diaveridine; LC-ESI-QFT; MS2; CE: 150; R=35000; [M+H]+
Name: Diaveridine
Name: 5-[(3,4-dimethoxyphenyl)methyl]pyrimidine-2,4-diamine
Formula: C13H16N4O2
Exact mass: 260.12733
SMILES: COC1=C(C=C(C=C1)CC2=CN=C(N=C2N)N)OC
InChI: InChI=1S/C13H16N4O2/c1-18-10-4-3-8(6-11(10)19-2)5-9-7-16-13(15)17-12(9)14/h3-4,6-7H,5H2,1-2H3,(H4,14,15,16,17)
Instrument: Q Exactive Plus Orbitrap Thermo Scientific
Instrument type: LC-ESI-QFT
Ms type: MS2
Ion mode: POSITIVE
Ionization: ESI
Fragmentation mode: HCD
Collision energy: 150 (nominal)
Resolution: 35000
Column name: XBridge C18 3.5um, 2.1x50mm, Waters
Retention time: 3.4 min
Base peak: 261.1339
Precursor m/z: 261.1346
Precursor type: [M+H]+
m/z	relative intensity	assigned
50.0151	32	C4H2+
51.0229	39	C4H3+
52.0182	129	C3H2N+
53.0135	19	C2HN2+
53.0261	4	C3H3N+
53.0386	96	C4H5+
54.0339	827	C3H4N+
55.0178	24	C3H3O+
55.0291	9	C2H3N2+
55.0416	25	C3H5N+
56.0369	14	C2H4N2+
56.0495	2	C3H6N+
60.0556	6	CH6N3+
61.0072	1	C5H+
62.0151	1	C5H2+
63.0229	40	C5H3+
64.0181	2	C4H2N+
64.0307	1	C5H4+
65.0386	70	C5H5+
66.0212	7	C3H2N2+
66.0339	2	C4H4N+
66.0465	6	C5H6+
67.0291	24	C3H3N2+
67.0417	5	C4H5N+
67.0542	7	C5H7+
68.0243	20	C2H2N3+
68.0369	137	C3H4N2+
69.0322	2	C2H3N3+
69.0447	41	C3H5N2+
70.04	19	C2H4N3+
70.0526	4	C3H6N2+
75.0229	42	C6H3+
76.0307	5	C6H4+
77.0385	199	C6H5+
78.0337	12	C5H4N+
78.0464	42	C6H6+
79.029	154	C4H3N2+
79.0542	112	C6H7+
80.0369	17	C4H4N2+
80.0493	13	C5H6N+
80.062	5	C6H8+
81.0447	999	C4H5N2+
82.0399	10	C3H4N3+
82.0525	17	C4H6N2+
83.0478	49	C3H5N3+
87.0229	5	C7H3+
88.0182	5	C6H2N+
88.0308	3	C7H4+
89.0386	231	C7H5+
90.0339	18	C6H4N+
90.0464	28	C7H6+
91.0416	9	C6H5N+
91.0542	139	C7H7+
92.0494	13	C6H6N+
93.0335	2	C6H5O+
93.0448	7	C5H5N2+
93.0573	9	C6H7N+
94.04	7	C4H4N3+
95.0492	281	C6H7O+
96.0444	11	C5H6NO+
96.0556	44	C4H6N3+
97.0635	8	C4H7N3+
98.0349	8	C3H4N3O+
101.0386	28	C8H5+
102.034	10	C7H4N+
102.0464	50	C8H6+
103.0542	273	C8H7+
104.0494	76	C7H6N+
105.0335	88	C7H5O+
105.0447	219	C6H5N2+
106.0399	81	C5H4N3+
106.0526	12	C6H6N2+
106.0651	25	C7H8N+
107.0492	188	C7H7O+
108.0555	5	C5H6N3+
109.0509	78	C4H5N4+
110.0587	29	C4H6N4+
111.0666	10	C4H7N4+
113.0386	43	C9H5+
114.0339	37	C8H4N+
114.0463	5	C9H6+
115.0417	7	C8H5N+
115.0542	37	C9H7+
116.0495	131	C8H6N+
117.0448	14	C7H5N2+
117.0573	58	C8H7N+
118.0405	6	C6H4N3+
118.0526	22	C7H6N2+
118.0651	64	C8H8N+
119.0492	30	C8H7O+
119.0605	10	C7H7N2+
120.0446	12	C7H6NO+
120.0557	10	C6H6N3+
121.0396	6	C6H5N2O+
123.0665	107	C5H7N4+
124.0744	25	C5H8N4+
126.0342	2	C9H4N+
127.0417	21	C9H5N+
128.0495	176	C9H6N+
129.0336	6	C9H5O+
129.0447	111	C8H5N2+
129.0574	9	C9H7N+
130.04	21	C7H4N3+
130.0526	9	C8H6N2+
130.0651	82	C9H8N+
131.0492	99	C9H7O+
131.0603	38	C8H7N2+
132.0445	12	C8H6NO+
132.0682	7	C8H8N2+
133.0285	17	C8H5O2+
133.0523	15	C8H7NO+
133.0633	6	C7H7N3+
133.0758	6	C8H9N2+
134.06	22	C8H8NO+
134.0714	1	C7H8N3+
135.0439	22	C8H7O2+
135.0553	8	C7H7N2O+
135.0662	9	C6H7N4+
136.0503	10	C6H6N3O+
140.0494	66	C10H6N+
141.0449	9	C9H5N2+
141.0571	7	C10H7N+
142.0526	30	C9H6N2+
143.0604	48	C9H7N2+
144.0446	8	C9H6NO+
144.0557	20	C8H6N3+
144.0681	6	C9H8N2+
145.0521	2	C9H7NO+
145.076	25	C9H9N2+
146.0601	46	C9H8NO+
147.0554	2	C8H7N2O+
147.0665	23	C7H7N4+
148.0394	1	C8H6NO2+
148.0746	6	C7H8N4+
151.039	47	C8H7O3+
153.0448	22	C10H5N2+
154.04	13	C9H4N3+
154.0527	6	C10H6N2+
155.0478	2	C9H5N3+
155.0603	33	C10H7N2+
156.0445	38	C10H6NO+
156.0551	9	C9H6N3+
157.0521	5	C10H7NO+
157.0636	9	C9H7N3+
157.0758	1	C10H9N2+
158.0475	5	C9H6N2O+
158.0602	3	C10H8NO+
158.0711	7	C9H8N3+
159.0553	7	C9H7N2O+
159.0664	9	C8H7N4+
160.0744	5	C8H8N4+
160.0869	2	C9H10N3+
161.0822	17	C8H9N4+
166.0524	1	C11H6N2+
168.0556	5	C10H6N3+
169.0638	2	C10H7N3+
170.0713	27	C10H8N3+
171.0553	26	C10H7N2O+
171.0666	8	C9H7N4+
171.0788	2	C10H9N3+
172.0743	26	C9H8N4+
173.0711	2	C10H9N2O+
173.0821	12	C9H9N4+
175.0393	1	C10H7O3+
180.0556	1	C11H6N3+
181.0633	2	C11H7N3+
182.0715	2	C11H8N3+
184.0744	3	C10H8N4+
185.0822	32	C10H9N4+
186.0661	2	C10H8N3O+
186.0899	6	C10H10N4+
187.098	12	C10H11N4+
188.0822	2	C10H10N3O+
197.0819	2	C11H9N4+
198.0664	3	C11H8N3O+
213.077	9	C11H9N4O+
