Mass spectrum: Enrofloxacin; LC-ESI-QFT; MS2; CE: 180; R=35000; [M+H]+
Name: Enrofloxacin
Name: 1-cyclopropyl-7-(4-ethylpiperazin-4-ium-1-yl)-6-fluoro-4-oxoquinoline-3-carboxylate
Formula: C19H22FN3O3
Exact mass: 359.16452
SMILES: CCN1CCN(CC1)C2=C(C=C3C(=C2)N(C=C(C3=O)C(=O)O)C4CC4)F
InChI: InChI=1S/C19H22FN3O3/c1-2-21-5-7-22(8-6-21)17-10-16-13(9-15(17)20)18(24)14(19(25)26)11-23(16)12-3-4-12/h9-12H,2-8H2,1H3,(H,25,26)
Instrument: Q Exactive Plus Orbitrap Thermo Scientific
Instrument type: LC-ESI-QFT
Ms type: MS2
Ion mode: POSITIVE
Ionization: ESI
Fragmentation mode: HCD
Collision energy: 180 (nominal)
Resolution: 35000
Column name: XBridge C18 3.5um, 2.1x50mm, Waters
Retention time: 4.4 min
Base peak: 360.1712
Precursor m/z: 360.1718
Precursor type: [M+H]+
m/z	relative intensity	assigned
50.0152	103	C4H2+
51.023	153	C4H3+
52.0183	29	C3H2N+
53.0023	322	C3HO+
53.0387	59	C4H5+
53.9975	4	C2NO+
54.0339	3	C3H4N+
55.0179	6	C3H3O+
55.0417	5	C3H5N+
56.0495	105	C3H6N+
57.0136	378	C3H2F+
58.0652	16	C3H8N+
59.0292	21	C3H4F+
61.0073	56	C5H+
62.0151	169	C5H2+
63.023	391	C5H3+
64.0182	33	C4H2N+
64.0308	6	C5H4+
65.0022	15	
65.0386	65	C5H5+
66.0464	14	C5H6+
67.0417	13	C4H5N+
68.0058	30	C4HF+
68.0495	12	C4H6N+
70.0088	16	
70.0215	46	C4H3F+
70.0652	29	C4H8N+
71.0292	4	C4H4F+
74.0151	222	C6H2+
75.023	812	C6H3+
76.0182	67	C5H2N+
76.0308	56	C6H4+
77.0022	26	C5HO+
77.0386	93	C6H5+
78.0339	41	C5H4N+
78.0464	37	C6H6+
79.0417	6	C5H5N+
80.0495	7	C5H6N+
81.0136	224	C5H2F+
81.0336	12	C5H5O+
82.0088	49	C4HFN+
82.0214	31	C5H3F+
82.0527	3	C4H6N2+
83.0292	237	C5H4F+
84.037	28	C5H5F+
85.0074	23	
86.0151	70	C7H2+
87.0105	62	C6HN+
87.023	137	C7H3+
88.0183	85	C6H2N+
88.0308	86	C7H4+
89.0387	419	C7H5+
90.034	20	C6H4N+
90.0466	29	C7H6+
91.018	7	C6H3O+
91.0417	6	C6H5N+
91.0544	40	C7H7+
92.0258	16	C6H4O+
92.0498	4	C6H6N+
93.0136	62	C6H2F+
94.0214	145	C6H3F+
95.0292	34	C6H4F+
95.0492	151	C6H7O+
96.0245	4	C5H3FN+
96.0371	75	C6H5F+
96.0444	46	C5H6NO+
97.0323	5	C5H4FN+
98.0152	77	C8H2+
99.0105	33	
99.023	206	C8H3+
100.0182	140	C7H2N+
100.0308	32	C8H4+
101.0261	4	C7H3N+
101.0387	74	C8H5+
102.0338	37	C7H4N+
102.0465	132	C8H6+
103.0417	16	C7H5N+
103.0543	27	C8H7+
104.0494	25	C7H6N+
105.0136	128	C7H2F+
105.0449	108	C6H5N2+
106.0089	35	C6HFN+
106.0214	77	C7H3F+
107.0293	999	C7H4F+
108.0245	108	C6H3FN+
108.037	110	C7H5F+
109.0323	17	C6H4FN+
109.0449	70	C7H6F+
112.0182	27	C8H2N+
112.0318	25	C6H5FO+
113.0261	18	C8H3N+
113.0388	110	C9H5+
114.034	168	C8H4N+
114.0465	16	C9H6+
115.0418	41	C8H5N+
115.0543	110	C9H7+
116.0496	28	C8H6N+
117.0574	22	C8H7N+
118.0289	24	C7H4NO+
118.0413	5	C8H6O+
119.0294	16	C8H4F+
119.0494	67	C8H7O+
120.0371	178	C8H5F+
120.0444	17	C7H6NO+
121.0323	60	C7H4FN+
121.0448	17	C8H6F+
122.0401	53	C7H5FN+
123.0354	73	C6H4FN2+
123.048	4	C7H6FN+
124.0184	25	C9H2N+
125.0387	78	C10H5+
126.0341	69	C9H4N+
126.0465	81	C10H6+
127.0292	4	C8H3N2+
127.0417	58	C9H5N+
127.0543	51	C10H7+
128.0496	171	C9H6N+
128.0622	29	C10H8+
129.0448	225	C8H5N2+
129.0574	23	C9H7N+
130.0402	31	C7H4N3+
130.0653	17	C9H8N+
131.0292	69	C9H4F+
131.0368	7	C8H5NO+
132.0246	209	C8H3FN+
132.0371	14	C9H5F+
133.0325	61	C8H4FN+
133.045	134	C9H6F+
134.0402	101	C8H5FN+
135.048	60	C8H6FN+
136.032	5	C8H5FO+
136.0556	6	C8H7FN+
138.0114	6	C7H3FO2+
138.0342	17	
139.0296	5	C9H3N2+
139.0418	5	C10H5N+
139.0545	15	C11H7+
140.0371	14	C9H4N2+
140.0496	121	C10H6N+
141.0448	3	C9H5N2+
141.0574	31	C10H7N+
142.0291	3	C9H4NO+
142.0526	14	C9H6N2+
142.0655	3	C10H8N+
143.0494	19	C10H7O+
144.0372	25	C10H5F+
144.0445	16	C9H6NO+
144.0558	3	C8H6N3+
145.0323	6	C9H4FN+
145.0449	16	C10H6F+
145.0651	23	C10H9O+
146.0403	103	C9H5FN+
146.0528	105	C10H7F+
146.06	15	C9H8NO+
147.0355	24	C8H4FN2+
147.048	54	C9H6FN+
148.0558	113	C9H7FN+
149.0512	5	C8H6FN2+
150.035	15	C8H5FNO+
151.0427	13	C8H6FNO+
152.0502	48	C8H7FNO+
153.0449	27	C10H5N2+
153.0574	20	C11H7N+
154.0402	62	C9H4N3+
154.0652	64	C11H8N+
155.0606	78	C10H7N2+
156.0688	4	C10H8N2+
157.045	23	C11H6F+
157.0515	4	C10H7NO+
158.0403	67	C10H5FN+
159.0481	29	C10H6FN+
160.0433	30	C9H5FN2+
160.0559	17	C10H7FN+
161.051	17	C9H6FN2+
161.0637	5	C10H8FN+
162.0349	4	C9H5FNO+
163.0557	3	C10H8FO+
164.0506	27	C9H7FNO+
166.0526	29	C11H6N2+
166.0649	3	C12H8N+
167.0606	3	C11H7N2+
167.0726	4	C12H9N+
168.0686	4	C11H8N2+
170.0601	6	C11H8NO+
171.0481	21	C11H6FN+
172.0559	150	C11H7FN+
173.0512	62	C10H6FN2+
174.0347	7	C10H5FNO+
174.0591	17	C10H7FN2+
179.0381	13	C9H6FNO2+
179.0606	17	
180.0559	5	C11H6N3+
184.0557	12	C12H7FN+
185.0637	7	C12H8FN+
186.0582	4	C11H7FN2+
187.0666	3	C11H8FN2+
200.0507	7	C12H7FNO+
