Mass spectrum: Resmethrin; LC-ESI-QFT; MS2; CE: 90%; R=17500; [M+H]+
Name: Resmethrin
Name: (5-benzylfuran-3-yl)methyl 2,2-dimethyl-3-(2-methylprop-1-enyl)cyclopropane-1-carboxylate
Formula: C22H26O3
Exact mass: 338.1882
SMILES: CC(=CC1C(C1(C)C)C(=O)OCC2=COC(=C2)CC3=CC=CC=C3)C
InChI: InChI=1S/C22H26O3/c1-15(2)10-19-20(22(19,3)4)21(23)25-14-17-12-18(24-13-17)11-16-8-6-5-7-9-16/h5-10,12-13,19-20H,11,14H2,1-4H3
Instrument: Exploris 240 Orbitrap Thermo Scientific
Instrument type: LC-ESI-QFT
Ms type: MS2
Ion mode: POSITIVE
Ionization: ESI
Fragmentation mode: HCD
Collision energy: 90 % (nominal)
Resolution: 17500
Column name: XBridge C18 3.5um, 2.1x50mm, Waters
Retention time: 15.698 min
Base peak: 339.1952
Precursor m/z: 339.1955
Precursor type: [M+H]+
m/z	relative intensity	assigned
53.0385	17	C4H5+
55.0178	14	C3H3O+
55.0543	50	C4H7+
59.049	26	C3H7O+
65.0385	58	C5H5+
67.0542	43	C5H7+
69.0697	19	C5H9+
77.0384	45	C6H5+
79.0541	60	C6H7+
81.0698	50	C6H9+
83.0488	11	C5H7O+
85.065	7	C5H9O+
91.0542	626	C7H7+
93.0697	39	C7H9+
95.0491	18	C6H7O+
95.0856	29	C7H11+
103.0542	29	C8H7+
105.0335	181	C7H5O+
105.0698	89	C8H9+
107.0855	19	C8H11+
109.0646	16	C7H9O+
115.0542	133	C9H7+
117.07	60	C9H9+
119.0854	39	C9H11+
121.0649	22	C8H9O+
121.1009	23	C9H13+
127.0542	56	C10H7+
128.062	999	C10H8+
129.0702	31	C10H9+
141.0698	60	C11H9+
143.0854	75	C11H11+
145.065	30	C10H9O+
152.0619	26	C12H8+
153.0699	20	C12H9+
