Mass spectrum: Amoxicillin; LC-ESI-QFT; MS2; CE: 75; R=35000; [M-H]-
Name: Amoxicillin
Name: Amoxicillin anhydrous
Name: (2S,5R,6R)-6-[[(2R)-2-amino-2-(4-hydroxyphenyl)-1-oxoethyl]amino]-3,3-dimethyl-7-oxo-4-thia-1-azabicyclo[3.2.0]heptane-2-carboxylic acid
Formula: C16H19N3O5S
Exact mass: 365.10454
SMILES: CC1(C)S[C@@H]2[C@H](NC(=O)[C@H](N)C3=CC=C(O)C=C3)C(=O)N2[C@H]1C(O)=O
InChI: InChI=1S/C16H19N3O5S/c1-16(2)11(15(23)24)19-13(22)10(14(19)25-16)18-12(21)9(17)7-3-5-8(20)6-4-7/h3-6,9-11,14,20H,17H2,1-2H3,(H,18,21)(H,23,24)/t9-,10-,11+,14-/m1/s1
Instrument: Q Exactive Orbitrap Thermo Scientific
Instrument type: LC-ESI-QFT
Ms type: MS2
Ion mode: NEGATIVE
Ionization: ESI
Fragmentation mode: HCD
Collision energy: 75 (nominal)
Resolution: 35000
Column name: XBridge C18 3.5um, 2.1x50mm, Waters
Retention time: 2.2 min
Base peak: 364.0974
Precursor m/z: 364.0973
Precursor type: [M-H]-
m/z	relative intensity	assigned
56.9804	12	C2HS-
57.9756	1	CNS-
58.996	8	C2H3S-
59.9913	1	CH2NS-
60.9753	2	CHOS-
65.0397	1	C5H5-
67.0301	2	C3H3N2-
70.9835	2	C2HNS-
71.9913	117	C2H2NS-
72.9992	229	C2H3NS-
74.007	337	C2H4NS-
74.991	26	C2H3OS-
77.0397	6	C6H5-
82.0171	1	C3H2N2O-
83.0251	356	C3H3N2O-
83.9913	70	C3H2NS-
84.9991	2	C3H3NS-
86.007	71	C3H4NS-
89.0178	5	C2H5N2S-
93.0346	999	C6H5O-
95.0251	28	C4H3N2O-
95.0502	87	C6H7O-
99.9863	101	C3H2NOS-
102.0019	27	C3H4NOS-
105.0345	12	C7H5O-
108.0216	1	C6H4O2-
111.0023	14	C4H3N2S-
111.9863	16	C4H2NOS-
117.0346	15	C8H5O-
118.0299	27	C7H4NO-
119.0502	85	C8H7O-
120.0455	147	C7H6NO-
121.0295	1	C7H5O2-
123.0452	705	C7H7O2-
123.9988	2	C6H4OS-
125.0066	9	C6H5OS-
129.0128	140	C4H5N2OS-
129.0346	22	C9H5O-
130.03	1	C8H4NO-
131.0377	5	C8H5NO-
132.0216	197	C8H4O2-
133.0295	293	C8H5O2-
134.0609	2	C8H8NO-
137.0066	45	C7H5OS-
144.0454	52	C9H6NO-
145.0294	7	C9H5O2-
146.0248	4	C8H4NO2-
146.0612	30	C9H8NO-
147.0323	1	C8H5NO2-
150.0144	7	C8H6OS-
151.0222	37	C8H7OS-
162.0019	22	C8H4NOS-
162.0561	1	C9H8NO2-
163.0224	15	C9H7OS-
172.0404	53	C10H6NO2-
173.0484	1	C10H7NO2-
188.0172	3	C10H6NOS-
206.0285	1	C10H8NO2S-
