Mass spectrum: Dimethachlor; LC-ESI-ITFT; MS2; CE: 90%; R=7500; [M+H]+
Name: Dimethachlor
Name: 2-chloranyl-N-(2,6-dimethylphenyl)-N-(2-methoxyethyl)ethanamide
Formula: C13H18ClNO2
Exact mass: 255.1021
SMILES: Cc1cccc(C)c1N(CCOC)C(=O)CCl
InChI: InChI=1S/C13H18ClNO2/c1-10-5-4-6-11(2)13(10)15(7-8-17-3)12(16)9-14/h4-6H,7-9H2,1-3H3
Instrument: LTQ Orbitrap XL Thermo Scientific
Instrument type: LC-ESI-ITFT
Ms type: MS2
Ion mode: POSITIVE
Ionization: ESI
Fragmentation mode: HCD
Collision energy: 90 % (nominal)
Resolution: 7500
Column name: XBridge C18 3.5um, 2.1x50mm, Waters
Retention time: 9.1 min
Base peak: 256.1106
Precursor m/z: 256.1099
Precursor type: [M+H]+
m/z	relative intensity	assigned
75.9952	6	C2H3ClN+
76.9789	56	C2H2ClO+
77.0386	111	C6H5+
79.0543	274	C6H7+
91.0543	100	C7H7+
93.07	16	C7H9+
95.0494	16	C6H7O+
103.0543	161	C8H7+
105.0699	772	C8H9+
106.0776	46	C8H10+
107.0728	15	C7H9N+
107.0856	23	C8H11+
115.0547	8	C9H7+
116.0622	20	C9H8+
117.0575	65	C8H7N+
117.0698	5	C9H9+
118.0652	199	C8H8N+
119.0724	14	C8H9N+
119.0856	40	C9H11+
120.0808	75	C8H10N+
121.0647	29	C8H9O+
121.0887	8	C8H11N+
122.0965	21	C8H12N+
129.0697	6	C10H9+
130.0651	28	C9H8N+
131.073	76	C9H9N+
131.0855	48	C10H11+
132.0809	557	C9H10N+
133.0887	231	C9H11N+
134.0964	22	C9H12N+
144.0805	22	C10H10N+
145.0883	6	C10H11N+
146.0965	131	C10H12N+
147.1042	11	C10H13N+
148.1122	999	C10H14N+
174.0913	42	C11H12NO+
