Mass spectrum: Oseltamivir; LC-ESI-ITFT; MS2; CE: 60%; R=15000; [M+H]+
Name: Oseltamivir
Name: (3R,4R,5S)-4-acetamido-5-amino-3-(1-ethylpropoxy)cyclohexene-1-carboxylic acid ethyl ester
Formula: C16H28N2O4
Exact mass: 312.2049
SMILES: CCC(CC)OC1C=C(CC(C1NC(=O)C)N)C(=O)OCC
InChI: InChI=1S/C16H28N2O4/c1-5-12(6-2)22-14-9-11(16(20)21-7-3)8-13(17)15(14)18-10(4)19/h9,12-15H,5-8,17H2,1-4H3,(H,18,19)/t13-,14+,15+/m0/s1
Instrument: LTQ Orbitrap XL Thermo Scientific
Instrument type: LC-ESI-ITFT
Ms type: MS2
Ion mode: POSITIVE
Ionization: ESI
Fragmentation mode: HCD
Collision energy: 60 % (nominal)
Resolution: 15000
Column name: XBridge C18 3.5um, 2.1x50mm, Waters
Retention time: 7.0 min
Base peak: 313.2132
Precursor m/z: 313.2122
Precursor type: [M+H]+
m/z	relative intensity	assigned
60.0444	6	C2H6NO+
65.0386	45	C5H5+
67.0542	56	C5H7+
68.0495	17	C4H6N+
77.0385	9	C6H5+
80.0496	16	C5H6N+
82.0651	10	C5H8N+
83.0491	12	C5H7O+
92.0495	123	C6H6N+
93.0335	114	C6H5O+
93.0573	77	C6H7N+
94.0652	571	C6H8N+
95.0492	29	C6H7O+
95.0855	6	C7H11+
105.0699	4	C8H9+
108.0444	6	C6H6NO+
108.0677	4	C6H8N2+
109.0761	179	C6H9N2+
110.0601	54	C6H8NO+
111.044	42	C6H7O2+
112.0392	7	C5H6NO2+
119.0603	21	C7H7N2+
120.0445	999	C7H6NO+
121.0285	6	C7H5O2+
122.0965	21	C8H12N+
123.0803	7	C8H11O+
126.0546	4	C6H8NO2+
133.076	17	C8H9N2+
134.0598	10	C8H8NO+
136.0757	48	C8H10NO+
137.071	392	C7H9N2O+
138.0549	263	C7H8NO2+
138.0915	20	C8H12NO+
139.0391	14	C7H7O3+
139.0756	6	C8H11O2+
154.0863	11	C8H12NO2+
155.0816	8	C7H11N2O2+
161.0711	17	C9H9N2O+
162.0549	59	C9H8NO2+
166.0864	868	C9H12NO2+
179.0813	8	C9H11N2O2+
180.0659	14	C9H10NO3+
183.1129	8	C9H15N2O2+
208.0969	6	C11H14NO3+
