Mass spectrum: Chlordiazepoxide; LC-ESI-QFT; MS2; CE: 150; R=35000; [M+H]+
Name: Chlordiazepoxide
Name: Zetran
Name: 7-chloro-4-hydroxy-N-methyl-5-phenyl-3H-1,4-benzodiazepin-2-imine
Formula: C16H14ClN3O
Exact mass: 299.08254
SMILES: CN=C1CN(C(=C2C=C(C=CC2=N1)Cl)C3=CC=CC=C3)O
InChI: InChI=1S/C16H14ClN3O/c1-18-15-10-20(21)16(11-5-3-2-4-6-11)13-9-12(17)7-8-14(13)19-15/h2-9,21H,10H2,1H3
Instrument: Q Exactive Plus Orbitrap Thermo Scientific
Instrument type: LC-ESI-QFT
Ms type: MS2
Ion mode: POSITIVE
Ionization: ESI
Fragmentation mode: HCD
Collision energy: 150 (nominal)
Resolution: 35000
Column name: XBridge C18 3.5um, 2.1x50mm, Waters
Retention time: 6.2 min
Base peak: 300.0888
Precursor m/z: 300.0898
Precursor type: [M+H]+
m/z	relative intensity	assigned
50.0151	24	C4H2+
51.0229	19	C4H3+
52.0181	1	C3H2N+
53.0022	6	C3HO+
53.0385	11	C4H5+
53.9974	1	C2NO+
55.029	9	C2H3N2+
57.0447	345	C2H5N2+
60.9839	1	C2H2Cl+
61.0071	5	C5H+
61.9791	6	CHClN+
62.015	21	C5H2+
63.0228	195	C5H3+
64.0181	1	C4H2N+
64.0306	3	C5H4+
65.0022	1	C4HO+
65.0385	17	C5H5+
66.0463	6	C5H6+
72.9839	13	C3H2Cl+
74.015	29	C6H2+
75.0228	112	C6H3+
76.018	6	C5H2N+
76.0306	9	C6H4+
77.0384	30	C6H5+
78.0338	3	C5H4N+
78.0463	3	C6H6+
81.0333	1	C5H5O+
84.9838	8	C4H2Cl+
86.0149	3	C7H2+
86.9996	3	C4H4Cl+
87.0227	7	C7H3+
88.0181	4	C6H2N+
88.0306	8	C7H4+
89.0384	999	C7H5+
90.0336	6	C6H4N+
90.0463	21	C7H6+
91.0416	4	C6H5N+
91.0541	18	C7H7+
93.0335	1	C6H5O+
93.0572	3	C6H7N+
95.049	42	C6H7O+
96.0443	1	C5H6NO+
96.9839	3	C5H2Cl+
98.0149	1	C8H2+
98.9995	7	C5H4Cl+
99.0102	17	C7HN+
99.0228	8	C8H3+
100.018	122	C7H2N+
102.0337	18	C7H4N+
102.0463	8	C8H6+
103.0416	10	C7H5N+
104.0494	20	C7H6N+
105.0446	28	C6H5N2+
108.9838	5	C6H2Cl+
110.9995	13	C6H4Cl+
113.0384	10	C9H5+
114.0337	17	C8H4N+
114.0462	1	C9H6+
115.0417	8	C8H5N+
115.0541	111	C9H7+
116.0493	14	C8H6N+
117.0571	15	C8H7N+
118.0286	21	C7H4NO+
118.0521	1	C7H6N2+
119.0491	1	C8H7O+
120.0443	1	C7H6NO+
122.9994	27	C7H4Cl+
123.9949	3	C6H3ClN+
124.0073	5	C7H5Cl+
125.0025	1	C6H4ClN+
125.0153	1	C7H6Cl+
125.0384	9	C10H5+
126.0463	14	C10H6+
127.0416	10	C9H5N+
127.054	4	C10H7+
128.0494	5	C9H6N+
128.0618	5	C10H8+
129.01	16	C6H6ClO+
129.0446	9	C8H5N2+
130.0399	21	C7H4N3+
130.0526	3	C8H6N2+
134.0602	1	C8H8NO+
135.9948	6	C7H3ClN+
137.0025	1	C7H4ClN+
137.0384	9	C11H5+
138.0104	22	C7H5ClN+
138.0463	5	C11H6+
139.0056	47	C6H4ClN2+
139.0541	104	C11H7+
140.0493	36	C10H6N+
140.0616	7	C11H8+
145.0648	1	C10H9O+
146.0594	1	C9H8NO+
149.0157	1	C9H6Cl+
149.0384	7	C12H5+
150.0104	5	C8H5ClN+
150.0463	65	C12H6+
151.0183	8	C8H6ClN+
151.0415	5	C11H5N+
151.054	34	C12H7+
152.0496	6	C11H6N+
152.0619	65	C12H8+
153.0449	1	C10H5N2+
153.0572	12	C11H7N+
153.0697	5	C12H9+
154.0051	1	C7H5ClNO+
154.0399	1	C9H4N3+
155.0602	7	C10H7N2+
161.0384	6	C13H5+
162.0103	3	C9H5ClN+
162.0334	1	C12H4N+
162.0463	18	C13H6+
163.054	306	C13H7+
164.0008	21	C7H3ClN3+
164.05	35	C12H6N+
164.0618	220	C13H8+
165.0697	391	C13H9+
166.065	11	C12H8N+
167.0488	3	C12H7O+
167.0727	1	C12H9N+
168.0568	82	C12H8O+
169.0646	90	C12H9O+
170.0599	10	C11H8NO+
174.0463	12	C14H6+
175.0418	8	C13H5N+
175.0539	10	C14H7+
176.0495	4	C13H6N+
176.0619	47	C14H8+
177.0571	102	C13H7N+
178.0649	80	C13H8N+
178.0777	4	C14H10+
179.0602	45	C12H7N2+
179.0725	25	C13H9N+
180.0557	3	C11H6N3+
180.0807	4	C13H10N+
183.0802	1	C13H11O+
188.0493	117	C14H6N+
189.0445	2	C13H5N2+
189.0572	34	C14H7N+
190.0649	314	C14H8N+
191.0727	47	C14H9N+
192.0677	5	C13H8N2+
192.0805	3	C14H10N+
193.052	12	C13H7NO+
193.0647	13	C14H9O+
194.0366	1	C10H9ClNO+
194.0598	16	C13H8NO+
196.0517	29	C10H11ClNO+
196.0758	8	C13H10NO+
198.023	1	C13H7Cl+
199.0308	24	C13H8Cl+
201.057	44	C15H7N+
202.0526	2	C14H6N2+
202.0649	25	C15H8N+
203.0602	18	C14H7N2+
203.0727	23	C15H9N+
204.0556	14	C13H6N3+
204.068	16	C14H8N2+
204.08	7	C15H10N+
205.0759	76	C14H9N2+
206.0837	1	C14H10N2+
207.0677	5	C14H9NO+
213.0339	7	C13H8ClN+
215.0601	51	C15H7N2+
216.0681	24	C15H8N2+
217.0758	38	C15H9N2+
218.0837	35	C15H10N2+
219.0916	4	C15H11N2+
220.0755	9	C15H10NO+
221.0471	6	C11H10ClN2O+
221.0709	1	C14H9N2O+
224.0258	7	C14H7ClN+
225.0347	1	C14H8ClN+
229.0763	6	C16H9N2+
230.0712	15	C15H8N3+
231.079	12	C15H9N3+
232.0871	1	C15H10N3+
239.0368	12	C14H8ClN2+
240.0442	1	C14H9ClN2+
244.0865	1	C16H10N3+
252.0446	1	C15H9ClN2+
