Mass spectrum: Chlorthiazide; LC-ESI-QFT; MS2; CE: 90; R=35000; [M-H]-
Name: Chlorthiazide
Name: 6-chloro-1,1-dioxo-4H-1$l^{6},2,4-benzothiadiazine-7-sulfonamide
Formula: C7H6ClN3O4S2
Exact mass: 294.94883
SMILES: C1=C2C(=CC(=C1Cl)S(=O)(=O)N)S(=O)(=O)NC=N2
InChI: InChI=1S/C7H6ClN3O4S2/c8-4-1-5-7(2-6(4)16(9,12)13)17(14,15)11-3-10-5/h1-3H,(H,10,11)(H2,9,12,13)
Instrument: Q Exactive Plus Orbitrap Thermo Scientific
Instrument type: LC-ESI-QFT
Ms type: MS2
Ion mode: NEGATIVE
Ionization: ESI
Fragmentation mode: HCD
Collision energy: 90 (nominal)
Resolution: 35000
Column name: XBridge C18 3.5um, 2.1x50mm, Waters
Retention time: 1.9 min
Base peak: 293.9414
Precursor m/z: 293.9415
Precursor type: [M-H]-
m/z	relative intensity	assigned
50.0036	2	C3N-
57.9757	3	CNS-
61.9706	1	NOS-
63.0115	6	C4HN-
63.9624	1	O2S-
64.0067	5	C3N2-
64.0193	3	C4H2N-
65.0145	7	C3HN2-
65.9986	14	C3NO-
74.0037	1	C5N-
75.0114	1	C5HN-
77.9655	12	NO2S-
81.9757	3	C3NS-
82.9835	1	C3HNS-
87.0114	12	C6HN-
88.0193	5	C6H2N-
89.0144	2	C5HN2-
89.9985	6	C5NO-
90.0224	7	C5H2N2-
91.0063	4	C5HNO-
91.0303	1	C5H3N2-
106.0173	1	C5H2N2O-
108.9866	1	C4HN2S-
113.0146	69	C7HN2-
114.0224	74	C7H2N2-
115.0302	77	C7H3N2-
117.0096	1	C6HN2O-
118.0174	15	C6H2N2O-
119.0013	8	C6HNO2-
119.025	10	C6H3N2O-
120.0092	4	C6H2NO2-
121.9945	3	C5H2N2S-
122.9882	18	C6H2ClN-
125.9989	1	C5H3ClN2-
126.9831	7	C5H2ClNO-
129.0334	6	C7H3N3-
130.0172	19	C7H2N2O-
134.0121	1	C6H2N2O2-
138.9831	11	C6H2ClNO-
142.9778	1	C5H2ClNO2-
146.036	2	C7H4N3O-
147.02	2	C7H3N2O2-
148.9912	45	C7H2ClN2-
149.9991	12	C7H3ClN2-
151.0069	48	C7H4ClN2-
152.9864	2	C6H2ClN2O-
154.9782	6	C6H2ClNO2-
162.9499	2	C4H2ClNO2S-
165.994	2	C7H3ClN2O-
177.9843	40	C7H2N2O2S-
178.9922	999	C7H3N2O2S-
181.9791	7	C6H2N2O3S-
182.987	17	C6H3N2O3S-
192.995	5	C7H3N3O2S-
201.9612	1	C6H3ClN2O2S-
210.9818	2	C7H3N2O4S-
213.9611	305	C7H3ClN2O2S-
214.9689	42	C7H4ClN2O2S-
216.948	8	C6H2ClN2O3S-
229.956	10	C7H3ClN2O3S-
