Mass spectrum: Levofloxacin; LC-ESI-QFT; MS2; CE: 30; R=35000; [M+H]+
Name: Levofloxacin
Name: (3S)-9-Fluoro-3-methyl-10-(4-methyl-1-piperazinyl)-7-oxo-2,3-dihydro-7H-[1,4]oxazino[2,3,4-ij]quinoline-6-carboxylic acid
Formula: C18H20FN3O4
Exact mass: 361.14378
SMILES: C[C@H]1COc2c3n1cc(c(=O)c3cc(c2N4CCN(CC4)C)F)C(=O)O
InChI: InChI=1S/C18H20FN3O4/c1-10-9-26-17-14-11(16(23)12(18(24)25)8-22(10)14)7-13(19)15(17)21-5-3-20(2)4-6-21/h7-8,10H,3-6,9H2,1-2H3,(H,24,25)/t10-/m0/s1
Instrument: Q Exactive Orbitrap Thermo Scientific
Instrument type: LC-ESI-QFT
Ms type: MS2
Ion mode: POSITIVE
Ionization: ESI
Fragmentation mode: HCD
Collision energy: 30 (nominal)
Resolution: 35000
Column name: XBridge C18 3.5um, 2.1x50mm, Waters
Retention time: 4.3 min
Base peak: 362.1511
Precursor m/z: 362.1511
Precursor type: [M+H]+
m/z	relative intensity	assigned
58.0651	7	C3H8N+
70.065	4	C4H8N+
72.0808	1	C4H10N+
84.0807	5	C5H10N+
99.0917	1	C5H11N2+
221.0719	1	C11H10FN2O2+
233.0718	4	C12H10FN2O2+
233.084	1	C16H11NO+
241.0968	1	C14H13N2O2+
247.0877	6	C13H12FN2O2+
259.0877	1	C14H12FN2O2+
261.1031	252	C14H14FN2O2+
270.1235	3	C15H16N3O2+
273.1027	2	C15H14FN2O2+
298.1549	7	C17H20N3O2+
316.1458	36	C17H19FN3O2+
318.1609	999	C17H21FN3O2+
344.1399	3	C18H19FN3O3+
362.1508	299	C18H21FN3O4+
