Mass spectrum: Propazine; LC-ESI-ITFT; MS2; CE: 60%; R=15000; [M+H]+
Name: Propazine
Name: 6-chloranyl-N2,N4-di(propan-2-yl)-1,3,5-triazine-2,4-diamine
Formula: C9H16ClN5
Exact mass: 229.1094
SMILES: c1(nc(nc(n1)Cl)NC(C)C)NC(C)C
InChI: InChI=1S/C9H16ClN5/c1-5(2)11-8-13-7(10)14-9(15-8)12-6(3)4/h5-6H,1-4H3,(H2,11,12,13,14,15)
Instrument: LTQ Orbitrap XL Thermo Scientific
Instrument type: LC-ESI-ITFT
Ms type: MS2
Ion mode: POSITIVE
Ionization: ESI
Fragmentation mode: HCD
Collision energy: 60 % (nominal)
Resolution: 15000
Column name: XBridge C18 3.5um, 2.1x50mm, Waters
Retention time: 9.9 min
Base peak: 230.1173
Precursor m/z: 230.1167
Precursor type: [M+H]+
m/z	relative intensity	assigned
61.9792	3	CHClN+
68.0243	73	C2H2N3+
79.0058	56	CH4ClN2+
104.001	140	C2H3ClN3+
110.0461	30	C3H4N5+
110.0713	4	C5H8N3+
128.0567	7	C3H6N5O+
146.0228	999	C3H5ClN5+
152.0928	5	C6H10N5+
172.0378	1	C5H7ClN5+
188.0698	492	C6H11ClN5+
230.1169	94	C9H17ClN5+
