Mass spectrum: Mebendazole; LC-ESI-QFT; MS2; CE: 75; R=35000; [M-H]-
Name: Mebendazole
Name: methyl N-(6-benzoyl-1H-benzimidazol-2-yl)carbamate
Formula: C16H13N3O3
Exact mass: 295.09569
SMILES: COC(=O)NC1=NC2=C(N1)C=C(C=C2)C(=O)C3=CC=CC=C3
InChI: InChI=1S/C16H13N3O3/c1-22-16(21)19-15-17-12-8-7-11(9-13(12)18-15)14(20)10-5-3-2-4-6-10/h2-9H,1H3,(H2,17,18,19,21)
Instrument: Q Exactive Plus Orbitrap Thermo Scientific
Instrument type: LC-ESI-QFT
Ms type: MS2
Ion mode: NEGATIVE
Ionization: ESI
Fragmentation mode: HCD
Collision energy: 75 (nominal)
Resolution: 35000
Column name: XBridge C18 3.5um, 2.1x50mm, Waters
Retention time: 7.5 min
Base peak: 262.0621
Precursor m/z: 294.0884
Precursor type: [M-H]-
m/z	relative intensity	assigned
65.0146	12	C3HN2-
65.9986	12	C3NO-
68.0018	2	C2N2O-
89.0147	3	C5HN2-
90.0225	8	C5H2N2-
92.0255	7	C4H2N3-
93.0095	3	C4HN2O-
95.0252	16	C4H3N2O-
102.0225	4	C6H2N2-
105.0333	6	C5H3N3-
106.0174	65	C5H2N2O-
114.0224	3	C7H2N2-
115.0305	3	C7H3N2-
116.0256	1	C6H2N3-
118.0174	2	C6H2N2O-
120.0093	6	C6H2NO2-
129.0334	128	C7H3N3-
130.0175	1	C7H2N2O-
132.0205	8	C6H2N3O-
133.0283	190	C6H3N3O-
134.0124	5	C6H2N2O2-
136.0157	3	C5H2N3O2-
145.0284	7	C7H3N3O-
147.0202	11	C7H3N2O2-
149.0232	31	C6H3N3O2-
156.0207	19	C8H2N3O-
157.0284	525	C8H3N3O-
158.0363	6	C8H4N3O-
160.0155	109	C7H2N3O2-
161.0235	2	C7H3N3O2-
173.0233	39	C8H3N3O2-
185.0235	1	C9H3N3O2-
188.0103	2	C8H2N3O3-
191.062	4	C13H7N2-
192.0459	4	C13H6NO-
194.0613	1	C13H8NO-
205.0651	2	C13H7N3-
206.0488	3	C13H6N2O-
216.0574	2	C14H6N3-
217.0412	2	C14H5N2O-
218.0727	1	C14H8N3-
219.0567	28	C14H7N2O-
232.0522	2	C14H6N3O-
233.0599	12	C14H7N3O-
234.0439	3	C14H6N2O2-
234.068	3	C16H10O2-
235.0516	12	C14H7N2O2-
244.0518	5	C15H6N3O-
245.0605	1	C15H7N3O-
260.0467	27	C15H6N3O2-
261.0544	4	C15H7N3O2-
262.0627	999	C15H8N3O2-
