Mass spectrum: Nigericin; LC-ESI-QFT; MS2; CE: 30; R=35000; [M-H]-
Name: Nigericin
Name: 2-{6-[(2-{5`-[6-hydroxy-6-(hydroxymethyl)-3,5-dimethyltetrahydro-2h-pyran-2-yl]-2,3`-dimethyloctahydro-2,2`-bifuran-5-yl}-9-methoxy-2,4,10-trimethyl-1,6-dioxaspiro[4.5]dec-7-yl)methyl]-3-methyltetrahydro-2h-pyran-2-yl}propanoic acid
Name: 2-[6-[[2-[5-[5-[6-hydroxy-6-(hydroxymethyl)-3,5-dimethyloxan-2-yl]-3-methyloxolan-2-yl]-5-methyloxolan-2-yl]-7-methoxy-2,4,6-trimethyl-1,10-dioxaspiro[4.5]decan-9-yl]methyl]-3-methyloxan-2-yl]propanoic acid
Formula: C40H68O11
Exact mass: 724.47616
SMILES: CC1CCC(OC1C(C)C(=O)O)CC2CC(C(C3(O2)C(CC(O3)(C)C4CCC(O4)(C)C5C(CC(O5)C6C(CC(C(O6)(CO)O)C)C)C)C)C)OC
InChI: InChI=1S/C40H68O11/c1-21-11-12-28(46-33(21)26(6)36(42)43)17-29-18-30(45-10)27(7)40(48-29)25(5)19-38(9,51-40)32-13-14-37(8,49-32)35-23(3)16-31(47-35)34-22(2)15-24(4)39(44,20-41)50-34/h21-35,41,44H,11-20H2,1-10H3,(H,42,43)
Instrument: Q Exactive Plus Orbitrap Thermo Scientific
Instrument type: LC-ESI-QFT
Ms type: MS2
Ion mode: NEGATIVE
Ionization: ESI
Fragmentation mode: HCD
Collision energy: 30 (nominal)
Resolution: 35000
Column name: XBridge C18 3.5um, 2.1x50mm, Waters
Retention time: 19.7 min
Base peak: 115.9207
Precursor m/z: 723.4689
Precursor type: [M-H]-
m/z	relative intensity	assigned
57.0345	5	C3H5O-
73.0296	4	C3H5O2-
85.0294	2	C4H5O2-
87.0451	72	C4H7O2-
99.0451	8	C5H7O2-
101.0607	68	C5H9O2-
111.0814	4	C7H11O-
113.0609	5	C6H9O2-
123.0816	1	C8H11O-
125.0971	1	C8H13O-
139.0763	3	C8H11O2-
141.0922	6	C8H13O2-
151.1129	3	C10H15O-
153.0921	15	C9H13O2-
165.0918	2	C10H13O2-
171.1027	2	C9H15O3-
177.1284	1	C12H17O-
189.1648	3	C14H21-
191.1442	3	C13H19O-
195.1391	3	C12H19O2-
197.1547	2	C12H21O2-
201.1133	4	C10H17O4-
213.1499	5	C12H21O3-
279.1964	2	C17H27O3-
297.2069	2	C17H29O4-
377.2688	1	C23H37O4-
439.2702	17	C24H39O7-
723.4688	999	C40H67O11-
