Mass spectrum: Chlortetracycline; LC-ESI-QFT; MS2; CE: 120; R=35000; [M-H]-
Name: Chlortetracycline
Name: 2-carbamoyl-7-chloro-4-(dimethylazaniumyl)-6,10,11,12a-tetrahydroxy-6-methyl-3,12-dioxo-4,4a,5,5a-tetrahydrotetracen-1-olate
Formula: C22H23ClN2O8
Exact mass: 478.11429
SMILES: CC1(C2CC3C(C(=O)C(=C(C3(C(=O)C2=C(C4=C(C=CC(=C41)Cl)O)O)O)O)C(=O)N)N(C)C)O
InChI: InChI=1S/C22H23ClN2O8/c1-21(32)7-6-8-15(25(2)3)17(28)13(20(24)31)19(30)22(8,33)18(29)11(7)16(27)12-10(26)5-4-9(23)14(12)21/h4-5,7-8,15,26-27,30,32-33H,6H2,1-3H3,(H2,24,31)
Instrument: Q Exactive Plus Orbitrap Thermo Scientific
Instrument type: LC-ESI-QFT
Ms type: MS2
Ion mode: NEGATIVE
Ionization: ESI
Fragmentation mode: HCD
Collision energy: 120 (nominal)
Resolution: 35000
Column name: XBridge C18 3.5um, 2.1x50mm, Waters
Retention time: 5.4 min
Base peak: 477.1067
Precursor m/z: 477.107
Precursor type: [M-H]-
m/z	relative intensity	assigned
50.0036	206	C3N-
53.0031	63	C3HO-
55.0189	66	C3H3O-
57.0345	16	C3H5O-
59.0138	162	C2H3O2-
62.0161	16	C5H2-
63.024	899	C5H3-
64.0192	27	C4H2N-
65.0033	791	C4HO-
65.0397	622	C5H5-
65.9985	999	C3NO-
67.0071	93	ClH4N2-
67.0189	122	C4H3O-
68.0142	103	C3H2NO-
68.9982	607	C3HO2-
69.0345	31	C4H5O-
71.0139	21	C3H3O2-
73.0084	21	C6H-
75.024	150	C6H3-
77.0032	18	C5HO-
77.0397	138	C6H5-
78.0348	16	C5H4N-
79.0189	120	C5H3O-
79.0553	142	C6H7-
81.0345	210	C5H5O-
83.0139	16	C4H3O2-
83.0503	123	C5H7O-
84.0091	171	C3H2NO2-
86.0247	19	C3H4NO2-
89.0034	180	C6HO-
89.0397	426	C7H5-
90.0349	64	C6H4N-
91.0189	522	C6H3O-
91.0553	27	C7H7-
93.0345	851	C6H5O-
95.0139	106	C5H3O2-
95.0501	205	C6H7O-
96.0091	376	C4H2NO2-
97.0294	24	C5H5O2-
101.0395	27	C8H5-
103.019	24	C7H3O-
104.0267	19	C7H4O-
105.0346	155	C7H5O-
107.0138	19	C6H3O2-
107.0503	127	C7H7O-
108.0217	203	C6H4O2-
109.0295	376	C6H5O2-
111.0452	57	C6H7O2-
113.0396	91	C9H5-
115.019	136	C8H3O-
115.0555	34	C9H7-
117.0346	484	C8H5O-
118.0301	61	C7H4NO-
119.0138	76	C7H3O2-
119.0502	100	C8H7O-
121.0295	204	C7H5O2-
122.0248	20	C6H4NO2-
122.0371	33	C7H6O2-
123.0089	21	C6H3O3-
123.0452	156	C7H7O2-
124.9799	766	C6H2ClO-
126.9956	695	C6H4ClO-
129.0346	19	C9H5O-
131.0138	19	C8H3O2-
132.0216	104	C8H4O2-
133.0295	217	C8H5O2-
134.0248	191	C7H4NO2-
135.0087	81	C7H3O3-
135.0451	214	C8H7O2-
137.0397	27	C11H5-
139.0149	146	C5H3N2O3-
139.0551	22	C11H7-
141.0347	193	C10H5O-
143.0501	90	C10H7O-
145.0295	156	C9H5O2-
147.0452	37	C9H7O2-
149.024	28	C8H5O3-
150.9957	196	C8H4ClO-
158.0372	25	C10H6O2-
159.0451	29	C10H7O2-
161.0243	66	C9H5O3-
162.0198	33	C8H4NO3-
167.0502	174	C12H7O-
169.0062	207	C8H6ClO2-
169.0296	229	C11H5O2-
170.0375	21	C11H6O2-
171.0451	65	C11H7O2-
178.0419	25	C13H6O-
178.9902	62	C9H4ClO2-
179.05	19	C13H7O-
180.0576	26	C13H8O-
182.0373	146	C12H6O2-
183.0451	98	C12H7O2-
185.0241	25	C11H5O3-
191.0504	72	C14H7O-
193.0293	69	C13H5O2-
194.0369	27	C13H6O2-
194.9854	141	C9H4ClO3-
195.045	210	C13H7O2-
196.0526	28	C13H8O2-
197.0244	76	C12H5O3-
197.0603	28	C13H9O2-
198.0319	27	C12H6O3-
199.0403	17	C12H7O3-
205.0055	20	C11H6ClO2-
209.0608	23	C14H9O2-
210.0321	37	C13H6O3-
211.0398	104	C13H7O3-
219.0449	24	C15H7O2-
223.0407	16	C11H10ClNO2-
226.0269	22	C13H6O4-
229.0066	19	C13H6ClO2-
235.0402	27	C15H7O3-
245.0004	27	C13H6ClO3-
