Mass spectrum: Pinoxaden-TP NOA 407854; LC-ESI-QFT; MS2; CE: 60%; R=17500; [M+H]+
Name: Pinoxaden-TP NOA 407854
Name: 8-(2,6-Diethyl-4-methylphenyl)tetrahydropyrazolo(1,2-d)(1,4,5)oxadiazepine-7,9-dione
Formula: C18H24N2O3
Exact mass: 316.1787
SMILES: CCC1=CC(C)=CC(CC)=C1C1C(=O)N2CCOCCN2C1=O
InChI: InChI=1S/C18H24N2O3/c1-4-13-10-12(3)11-14(5-2)15(13)16-17(21)19-6-8-23-9-7-20(19)18(16)22/h10-11,16H,4-9H2,1-3H3
Instrument: Q Exactive Plus Orbitrap Thermo Scientific
Instrument type: LC-ESI-QFT
Ms type: MS2
Ion mode: POSITIVE
Ionization: ESI
Fragmentation mode: HCD
Collision energy: 60 % (nominal)
Resolution: 17500
Column name: XBridge C18 3.5um, 2.1x50mm, Waters
Retention time: 7.136 min
Base peak: 317.186
Precursor m/z: 317.186
Precursor type: [M+H]+
m/z	relative intensity	assigned
55.0178	17	C3H3O+
57.0447	87	C2H5N2+
59.0492	13	C3H7O+
59.0603	36	C2H7N2+
69.0448	32	C3H5N2+
71.0604	827	C3H7N2+
72.0445	70	C3H6NO+
73.0761	52	C3H9N2+
85.0397	67	C3H5N2O+
86.06	40	C4H8NO+
88.0756	36	C4H10NO+
91.0542	191	C7H7+
93.07	94	C7H9+
97.0398	19	C4H5N2O+
101.071	938	C4H9N2O+
102.0788	132	C4H10N2O+
103.0541	16	C8H7+
103.0866	58	C4H11N2O+
105.07	337	C8H9+
115.0867	30	C5H11N2O+
116.062	21	C9H8+
117.07	176	C9H9+
119.0856	999	C9H11+
120.0933	39	C9H12+
121.1012	32	C9H13+
127.05	62	C5H7N2O2+
128.0619	37	C10H8+
129.0701	141	C10H9+
130.0775	75	C10H10+
131.0732	86	C9H9N+
131.0856	791	C10H11+
132.0568	41	C9H8O+
132.0805	53	C9H10N+
133.0647	30	C9H9O+
133.1012	570	C10H13+
139.0501	30	C6H7N2O2+
141.0695	24	C11H9+
142.0777	46	C11H10+
143.0751	17	
143.0856	66	C11H11+
144.0807	90	C10H10N+
145.065	90	C10H9O+
145.0886	149	C10H11N+
145.101	113	C11H13+
146.0602	138	C9H8NO+
146.0965	338	C10H12N+
147.0692	23	
147.0803	88	C10H11O+
147.1168	475	C11H15+
148.1254	40	C11H16+
156.081	120	C11H10N+
157.0888	66	C11H11N+
158.0725	94	C11H10O+
158.0966	70	C11H12N+
158.1084	19	C12H14+
159.0678	37	C10H9NO+
159.0805	230	C11H11O+
159.1043	62	C11H13N+
159.1168	503	C12H15+
160.0754	68	C10H10NO+
160.0881	313	C11H12O+
160.1119	75	C11H14N+
160.1248	50	C12H16+
161.0961	62	C11H13O+
161.1078	32	C10H13N2+
161.1325	157	C12H17+
169.1012	45	C13H13+
170.0962	30	C12H12N+
171.0765	334	C7H11N2O3+
171.1043	42	C12H13N+
172.0626	40	C10H8N2O+
172.076	46	C11H10NO+
172.1122	102	C12H14N+
173.0465	19	C10H7NO2+
173.0831	49	C11H11NO+
173.0961	57	C12H13O+
173.1323	47	C13H17+
174.055	18	
174.0915	705	C11H12NO+
174.1275	234	C12H16N+
175.0991	31	C11H13NO+
175.1114	80	C12H15O+
183.0769	35	C8H11N2O3+
184.0753	18	C12H10NO+
184.1116	23	C13H14N+
186.0678	18	C12H10O2+
186.0912	32	C12H12NO+
186.1278	33	C13H16N+
187.0753	192	C12H11O2+
187.1118	112	C13H15O+
188.107	192	C12H14NO+
188.1559	24	C14H20+
189.1019	41	C11H13N2O+
189.139	242	C12H17N2+
197.0928	20	C9H13N2O3+
198.0911	51	C13H12NO+
200.1084	34	C13H14NO+
200.1431	72	C14H18N+
202.0857	53	C12H12NO2+
202.1051	18	
202.1236	197	C13H16NO+
203.1304	19	C13H17NO+
204.078	41	C12H12O3+
205.1342	34	C12H17N2O+
215.1065	57	C14H15O2+
216.089	156	C12H12N2O2+
217.1694	45	C14H21N2+
228.1382	17	C15H18NO+
229.097	207	C13H13N2O2+
230.1043	50	C13H14N2O2+
233.1652	206	C14H21N2O+
243.113	47	C14H15N2O2+
244.1207	192	C14H16N2O2+
245.1287	39	C14H17N2O2+
260.1155	58	C14H16N2O3+
261.1235	95	C14H17N2O3+
261.1961	84	C16H25N2O+
271.144	288	C16H19N2O2+
273.1234	130	C15H17N2O3+
285.1601	78	C17H21N2O2+
287.1385	58	C16H19N2O3+
288.1472	201	C16H20N2O3+
289.1547	831	C16H21N2O3+
317.1859	591	C18H25N2O3+
