Mass spectrum: Dihydrocodeine; LC-ESI-QFT; MS2; CE: 30; R=35000; [M+H]+
Name: Dihydrocodeine
Name: (4R,4aR,7S,7aR,12bS)-9-methoxy-3-methyl-2,4,4a,5,6,7,7a,13-octahydro-1H-4,12-methanobenzofuro[3,2-e]isoquinoline-7-ol
Formula: C18H23NO3
Exact mass: 301.16779
SMILES: CN1CC[C@]23[C@@H]4[C@H]1CC5=C2C(=C(C=C5)OC)O[C@H]3[C@H](CC4)O
InChI: InChI=1S/C18H23NO3/c1-19-8-7-18-11-4-5-13(20)17(18)22-16-14(21-2)6-3-10(15(16)18)9-12(11)19/h3,6,11-13,17,20H,4-5,7-9H2,1-2H3/t11-,12+,13-,17-,18-/m0/s1
Instrument: Q Exactive Orbitrap Thermo Scientific
Instrument type: LC-ESI-QFT
Ms type: MS2
Ion mode: POSITIVE
Ionization: ESI
Fragmentation mode: HCD
Collision energy: 30 (nominal)
Resolution: 35000
Column name: XBridge C18 3.5um, 2.1x50mm, Waters
Retention time: 2.6 min
Base peak: 302.1753
Precursor m/z: 302.1751
Precursor type: [M+H]+
m/z	relative intensity	assigned
195.0805	2	C14H11O+
199.0753	5	C13H11O2+
199.1116	1	C14H15O+
201.091	7	C13H13O2+
213.0912	2	C14H13O2+
217.1224	2	C14H17O2+
227.1068	8	C15H15O2+
243.1016	4	C15H15O3+
245.1174	22	C15H17O3+
284.1652	1	C18H22NO2+
287.151	1	C17H21NO3+
302.1751	999	C18H24NO3+
