Mass spectrum: Picolinafen; LC-ESI-QFT; MS2; CE: 120; R=35000; [M+H]+
Name: Picolinafen
Name: N-(4-fluorophenyl)-6-[3-(trifluoromethyl)phenoxy]pyridine-2-carboxamide
Formula: C19H12F4N2O2
Exact mass: 376.08349
SMILES: C1=CC(=CC(=C1)OC2=CC=CC(=N2)C(=O)NC3=CC=C(C=C3)F)C(F)(F)F
InChI: InChI=1S/C19H12F4N2O2/c20-13-7-9-14(10-8-13)24-18(26)16-5-2-6-17(25-16)27-15-4-1-3-12(11-15)19(21,22)23/h1-11H,(H,24,26)
Instrument: Q Exactive Plus Orbitrap Thermo Scientific
Instrument type: LC-ESI-QFT
Ms type: MS2
Ion mode: POSITIVE
Ionization: ESI
Fragmentation mode: HCD
Collision energy: 120 (nominal)
Resolution: 35000
Column name: XBridge C18 3.5um, 2.1x50mm, Waters
Retention time: 15.4 min
Base peak: 279.1583
Precursor m/z: 377.0908
Precursor type: [M+H]+
m/z	relative intensity	assigned
50.0151	10	C4H2+
51.0041	10	CHF2+
51.0229	14	C4H3+
53.0022	40	C3HO+
53.9974	8	C2NO+
56.0494	2	C3H6N+
57.0135	24	C3H2F+
63.0228	1	C5H3+
64.0181	1	C4H2N+
65.026	6	C4H3N+
65.0385	7	C5H5+
66.0338	6	C4H4N+
67.9892	2	C3O2+
68.9946	19	CF3+
69.0134	3	C4H2F+
71.0291	33	C4H4F+
73.0084	2	C3H2FO+
74.015	55	C6H2+
75.004	72	C3HF2+
75.0228	308	C6H3+
76.0181	2	C5H2N+
76.0306	1	C6H4+
77.0196	1	C3H3F2+
78.0086	1	C3N3+
79.0178	11	C5H3O+
81.0135	14	C5H2F+
83.029	2	C5H4F+
88.0307	2	C7H4+
89.0386	1	C7H5+
90.0464	3	C7H6+
93.0209	2	C5H3NO+
93.0335	4	C6H5O+
94.0288	3	C5H4NO+
95.0103	27	C3H2F3+
95.0291	98	C6H4F+
99.004	25	C5HF2+
99.0242	4	C5H4FO+
101.0023	1	C7HO+
101.0197	5	C5H3F2+
105.0134	2	C7H2F+
107.0292	3	C7H4F+
109.0449	1	C7H6F+
111.0441	5	C6H7O2+
112.0319	1	C6H5FO+
113.0396	204	C6H6FO+
114.0274	1	C6H4F2+
114.0339	1	C8H4N+
114.0463	7	C9H6+
115.0354	7	C6H5F2+
115.0543	2	C9H7+
117.0134	1	C8H2F+
118.0412	2	C8H6O+
119.0103	36	C5H2F3+
121.0397	1	C6H5N2O+
123.0352	436	C6H4FN2+
124.018	4	C9H2N+
124.0324	3	C7H5FO+
125.0197	245	C7H3F2+
126.0274	4	C7H4F2+
132.057	5	C9H8O+
133.0447	44	C9H6F+
134.0399	5	C8H5FN+
140.0494	39	C10H6N+
141.0572	11	C10H7N+
143.0293	31	C10H4F+
145.0259	999	C7H4F3+
150.0335	4	C11H4N+
158.0401	2	C10H5FN+
161.0399	4	C10H6FO+
162.0272	4	C10H4F2+
164.0305	1	C9H4F2N+
164.043	2	C10H6F2+
168.0442	4	C11H6NO+
170.0399	3	C11H5FN+
170.0525	2	C12H7F+
171.0362	9	C7H5F2N2O+
173.0322	3	C7H4F3N2+
178.0397	3	C8H6F4+
181.0459	2	C10H7F2O+
182.0337	21	C10H5F3+
183.0416	4	C10H6F3+
188.0504	5	C11H7FNO+
189.0383	12	C11H5F2N+
190.0463	13	C11H6F2N+
191.0414	16	C10H5F2N2+
197.0505	1	C12H6FN2+
