Mass spectrum: Oxolinic acid; LC-ESI-QFT; MS2; CE: 60; R=35000; [M+H]+
Name: Oxolinic acid
Name: 5-ethyl-8-oxo-[1,3]dioxolo[4,5-g]quinoline-7-carboxylic acid
Formula: C13H11NO5
Exact mass: 261.06372
SMILES: CCN1C=C(C(=O)C2=CC3=C(C=C21)OCO3)C(=O)O
InChI: InChI=1S/C13H11NO5/c1-2-14-5-8(13(16)17)12(15)7-3-10-11(4-9(7)14)19-6-18-10/h3-5H,2,6H2,1H3,(H,16,17)
Instrument: Q Exactive Plus Orbitrap Thermo Scientific
Instrument type: LC-ESI-QFT
Ms type: MS2
Ion mode: POSITIVE
Ionization: ESI
Fragmentation mode: HCD
Collision energy: 60 (nominal)
Resolution: 35000
Column name: XBridge C18 3.5um, 2.1x50mm, Waters
Retention time: 0.9 min
Base peak: 262.0705
Precursor m/z: 262.071
Precursor type: [M+H]+
m/z	relative intensity	assigned
103.0541	1	C8H7+
106.0288	1	C6H4NO+
115.0542	2	C9H7+
117.0573	1	C8H7N+
118.0651	31	C8H8N+
130.0652	36	C9H8N+
132.0808	4	C9H10N+
133.0282	1	C8H5O2+
142.0651	13	C10H8N+
143.0491	2	C10H7O+
146.06	33	C9H8NO+
148.0393	58	C8H6NO2+
158.0237	13	C9H4NO2+
158.0601	96	C10H8NO+
160.0393	55	C9H6NO2+
163.0265	2	C8H5NO3+
170.0601	11	C11H8NO+
172.0393	44	C10H6NO2+
173.0472	10	C10H7NO2+
174.0551	1	C10H8NO2+
176.0342	8	C9H6NO3+
176.0707	25	C10H10NO2+
177.042	1	C9H7NO3+
177.0657	1	C9H9N2O2+
186.0185	1	C10H4NO3+
186.055	24	C11H8NO2+
187.0265	7	C10H5NO3+
187.0627	9	C11H9NO2+
188.0343	52	C10H6NO3+
188.0706	33	C11H10NO2+
198.055	1	C12H8NO2+
199.063	1	C12H9NO2+
200.0706	45	C12H10NO2+
201.0421	22	C11H7NO3+
204.0293	1	C10H6NO4+
214.0134	7	C11H4NO4+
214.0496	4	C12H8NO3+
215.0214	46	C11H5NO4+
216.0293	113	C11H6NO4+
216.0656	98	C12H10NO3+
229.0371	23	C12H7NO4+
232.0603	1	C12H10NO4+
233.032	27	C11H7NO5+
234.0398	274	C11H8NO5+
242.0446	2	C13H8NO4+
244.0605	578	C13H10NO4+
247.047	2	C12H9NO5+
248.0556	1	C12H10NO5+
262.071	999	C13H12NO5+
