Mass spectrum: Cyprodinil-TP CGA 249287; LC-ESI-QFT; MS2; CE: 75%; R=17500; [M+H]+
Name: Cyprodinil-TP CGA 249287
Name: 4-Cyclopropyl-6-methyl-2-pyrimidinamine
Name: 4-cyclopropyl-6-methylpyrimidin-2-amine
Formula: C8H11N3
Exact mass: 149.0953
SMILES: CC1=NC(N)=NC(=C1)C1CC1
InChI: InChI=1S/C8H11N3/c1-5-4-7(6-2-3-6)11-8(9)10-5/h4,6H,2-3H2,1H3,(H2,9,10,11)
Instrument: Q Exactive Plus Orbitrap Thermo Scientific
Instrument type: LC-ESI-QFT
Ms type: MS2
Ion mode: POSITIVE
Ionization: ESI
Fragmentation mode: HCD
Collision energy: 75 % (nominal)
Resolution: 17500
Column name: XBridge C18 3.5um, 2.1x50mm, Waters
Retention time: 2.394 min
Base peak: 150.1026
Precursor m/z: 150.1026
Precursor type: [M+H]+
m/z	relative intensity	assigned
53.0386	5	C4H5+
54.0339	2	C3H4N+
65.0386	121	C5H5+
66.0338	11	C4H4N+
67.0291	138	C3H3N2+
67.0416	7	C4H5N+
67.0542	44	C5H7+
68.0495	39	C4H6N+
69.0447	4	C3H5N2+
69.4477	4	
78.0337	3	C5H4N+
79.0542	78	C6H7+
80.0495	45	C5H6N+
81.0572	3	C5H7N+
81.07	34	C6H9+
82.0651	31	C5H8N+
83.0604	97	C4H7N2+
89.0384	11	C7H5+
91.0543	58	C7H7+
92.0495	150	C6H6N+
93.0448	7	
93.0573	200	C6H7N+
94.0652	8	C6H8N+
95.0492	6	
95.0604	64	C5H7N2+
96.0446	11	
104.0492	4	C7H6N+
105.0447	15	C6H5N2+
106.0651	158	C7H8N+
107.0603	21	C6H7N2+
107.0729	7	C7H9N+
108.0557	59	C5H6N3+
108.0807	213	C7H10N+
109.0761	52	C6H9N2+
109.0878	4	C7H11N+
110.06	31	
116.0495	53	C8H6N+
117.045	11	C7H5N2+
117.0573	9	C8H7N+
118.0525	318	C7H6N2+
122.0709	11	C6H8N3+
123.0792	6	C6H9N3+
123.0917	6	C7H11N2+
124.0757	22	
125.0708	3	
131.0605	25	C8H7N2+
132.0682	143	C8H8N2+
133.076	378	C8H9N2+
134.0601	18	
135.0554	16	
135.0793	6	C7H9N3+
148.0868	8	C8H10N3+
149.0952	5	C8H11N3+
150.1026	999	C8H12N3+
151.0866	17	
