Mass spectrum: Cyenopyrafen; LC-ESI-QFT; MS2; CE: 45%; R=17500; [M+H]+
Name: Cyenopyrafen
Name: (E)-2-(4-tert-butylphenyl)-2-cyano-1-(1,3,4-trimethylpyrazol-5-yl)vinyl 2,2-dimethylpropionate
Name: [2-(4-tert-butylphenyl)-2-cyano-1-(2,4,5-trimethylpyrazol-3-yl)ethenyl] 2,2-dimethylpropanoate
Formula: C24H31N3O2
Exact mass: 393.2416
SMILES: CC1=C(N(N=C1C)C)C(=C(C#N)C2=CC=C(C=C2)C(C)(C)C)OC(=O)C(C)(C)C
InChI: InChI=1S/C24H31N3O2/c1-15-16(2)26-27(9)20(15)21(29-22(28)24(6,7)8)19(14-25)17-10-12-18(13-11-17)23(3,4)5/h10-13H,1-9H3
Instrument: Exploris 240 Orbitrap Thermo Scientific
Instrument type: LC-ESI-QFT
Ms type: MS2
Ion mode: POSITIVE
Ionization: ESI
Fragmentation mode: HCD
Collision energy: 45 % (nominal)
Resolution: 17500
Column name: XBridge C18 3.5um, 2.1x50mm, Waters
Retention time: 14.706 min
Base peak: 360.3623
Precursor m/z: 394.2489
Precursor type: [M+H]+
m/z	relative intensity	assigned
57.0699	219	C4H9+
111.0917	22	C6H11N2+
137.0707	13	C7H9N2O+
236.1193	18	C15H14N3+
253.1211	33	C15H15N3O+
254.129	385	C15H16N3O+
292.1819	18	C19H22N3+
294.1603	117	C18H20N3O+
309.1838	309	C19H23N3O+
310.1916	999	C19H24N3O+
394.2495	122	C24H32N3O2+
