Mass spectrum: Propachlor; LC-ESI-ITFT; MS2; CE: 45%; R=7500; [M+H]+
Name: Propachlor
Name: 2-chloranyl-N-phenyl-N-propan-2-yl-ethanamide
Formula: C11H14ClNO
Exact mass: 211.0758
SMILES: CC(C)N(C(=O)CCl)c1ccccc1
InChI: InChI=1S/C11H14ClNO/c1-9(2)13(11(14)8-12)10-6-4-3-5-7-10/h3-7,9H,8H2,1-2H3
Instrument: LTQ Orbitrap XL Thermo Scientific
Instrument type: LC-ESI-ITFT
Ms type: MS2
Ion mode: POSITIVE
Ionization: ESI
Fragmentation mode: HCD
Collision energy: 45 % (nominal)
Resolution: 7500
Column name: XBridge C18 3.5um, 2.1x50mm, Waters
Retention time: 8.6 min
Base peak: 212.0841
Precursor m/z: 212.0837
Precursor type: [M+H]+
m/z	relative intensity	assigned
76.9785	1	C2H2ClO+
77.0384	2	C6H5+
91.0544	2	C7H7+
94.0651	42	C6H8N+
95.0491	10	C6H7O+
106.0651	39	C7H8N+
134.0599	12	C8H8NO+
152.0261	60	C11H4O+
170.0368	999	C8H9ClNO+
194.0733	2	C11H13ClN+
212.0831	54	C11H15ClNO+
