Mass spectrum: Cimaterol; LC-ESI-QFT; MS2; CE: 60; R=35000; [M+H]+
Name: Cimaterol
Name: 2-amino-5-[1-hydroxy-2-(propan-2-ylamino)ethyl]benzonitrile
Formula: C12H17N3O
Exact mass: 219.13716
SMILES: CC(C)NCC(C1=CC(=C(C=C1)N)C#N)O
InChI: InChI=1S/C12H17N3O/c1-8(2)15-7-12(16)9-3-4-11(14)10(5-9)6-13/h3-5,8,12,15-16H,7,14H2,1-2H3
Instrument: Q Exactive Plus Orbitrap Thermo Scientific
Instrument type: LC-ESI-QFT
Ms type: MS2
Ion mode: POSITIVE
Ionization: ESI
Fragmentation mode: HCD
Collision energy: 60 (nominal)
Resolution: 35000
Column name: XBridge C18 3.5um, 2.1x50mm, Waters
Retention time: 1.5 min
Base peak: 220.1439
Precursor m/z: 220.1444
Precursor type: [M+H]+
m/z	relative intensity	assigned
53.0022	1	C3HO+
67.9893	1	C3O2+
89.0385	1	C7H5+
92.0495	1	C6H6N+
106.0651	9	C7H8N+
116.0494	163	C8H6N+
118.0525	6	C7H6N2+
118.0651	2	C8H8N+
119.0604	4	C7H7N2+
120.0682	1	C7H8N2+
128.0496	3	C9H6N+
131.0604	40	C8H7N2+
132.0681	1	C8H8N2+
133.076	49	C8H9N2+
134.06	21	C8H8NO+
142.0526	8	C9H6N2+
143.0604	999	C9H7N2+
144.0556	5	C8H6N3+
144.0684	2	C9H8N2+
145.076	10	C9H9N2+
146.06	1	C9H8NO+
159.0791	9	C9H9N3+
160.0869	466	C9H10N3+
161.0709	294	C9H9N2O+
202.1338	10	C12H16N3+
