Mass spectrum: Letrozole; LC-ESI-QFT; MS2; CE: 120; R=35000; [M-H]-
Name: Letrozole
Name: 4-[(4-cyanophenyl)-(1,2,4-triazol-1-yl)methyl]benzonitrile
Formula: C17H11N5
Exact mass: 285.10145
SMILES: C1=CC(=CC=C1C#N)C(C2=CC=C(C=C2)C#N)N3C=NC=N3
InChI: InChI=1S/C17H11N5/c18-9-13-1-5-15(6-2-13)17(22-12-20-11-21-22)16-7-3-14(10-19)4-8-16/h1-8,11-12,17H
Instrument: Q Exactive Plus Orbitrap Thermo Scientific
Instrument type: LC-ESI-QFT
Ms type: MS2
Ion mode: NEGATIVE
Ionization: ESI
Fragmentation mode: HCD
Collision energy: 120 (nominal)
Resolution: 35000
Column name: XBridge C18 3.5um, 2.1x50mm, Waters
Retention time: 6.6 min
Base peak: 284.0946
Precursor m/z: 284.0942
Precursor type: [M-H]-
m/z	relative intensity	assigned
50.0036	27	C3N-
64.0193	22	C4H2N-
66.0098	545	C2N3-
68.0255	86	C2H2N3-
88.0193	6	C6H2N-
90.035	12	C6H4N-
100.0194	10	C7H2N-
102.0349	416	C7H4N-
113.0272	43	C8H3N-
114.0349	65	C8H4N-
115.0302	82	C7H3N2-
126.035	10	C9H4N-
127.0303	47	C8H3N2-
139.0303	59	C9H3N2-
140.0253	8	C8H2N3-
141.0459	999	C9H5N2-
142.0411	10	C8H4N3-
153.0335	7	C9H3N3-
188.0504	25	C14H6N-
213.0459	127	C15H5N2-
214.0543	22	C15H6N2-
215.0615	227	C15H7N2-
238.0412	39	C16H4N3-
239.0487	25	C16H5N3-
240.0568	422	C16H6N3-
