Mass spectrum: Albendazole; LC-ESI-QFT; MS2; CE: 180; R=35000; [M+H]+
Name: Albendazole
Name: Methyl N-(6-propylsulfanyl-1H-benzimidazol-2-yl)carbamate
Formula: C12H15N3O2S
Exact mass: 265.08850
SMILES: CCCSC1=CC2=C(C=C1)N=C(N2)NC(=O)OC
InChI: InChI=1S/C12H15N3O2S/c1-3-6-18-8-4-5-9-10(7-8)14-11(13-9)15-12(16)17-2/h4-5,7H,3,6H2,1-2H3,(H2,13,14,15,16)
Instrument: Q Exactive Plus Orbitrap Thermo Scientific
Instrument type: LC-ESI-QFT
Ms type: MS2
Ion mode: POSITIVE
Ionization: ESI
Fragmentation mode: HCD
Collision energy: 180 (nominal)
Resolution: 35000
Column name: XBridge C18 3.5um, 2.1x50mm, Waters
Retention time: 7.8 min
Base peak: 266.0953
Precursor m/z: 266.0958
Precursor type: [M+H]+
m/z	relative intensity	assigned
50.0152	127	C4H2+
51.023	44	C4H3+
52.0182	88	C3H2N+
52.0308	29	C4H4+
53.0023	13	C3HO+
53.0135	2	C2HN2+
53.026	17	C3H3N+
53.0386	15	C4H5+
53.9975	16	C2NO+
54.0339	24	C3H4N+
54.0465	2	C4H6+
55.0179	8	C3H3O+
55.0291	3	C2H3N2+
55.0417	2	C3H5N+
56.0496	10	C3H6N+
56.9794	10	C2HS+
57.9872	59	C2H2S+
58.9825	7	CHNS+
58.9951	2	C2H3S+
59.9665	9	COS+
59.9903	17	CH2NS+
62.0151	39	C5H2+
63.023	155	C5H3+
64.0182	132	C4H2N+
64.0308	35	C5H4+
65.0022	12	
65.026	203	C4H3N+
65.0386	41	C5H5+
66.0213	48	C3H2N2+
66.0339	35	C4H4N+
66.0465	8	C5H6+
67.0417	99	C4H5N+
68.0132	1	C3H2NO+
68.0257	7	C4H4O+
68.0494	3	C4H6N+
68.9794	271	C3HS+
69.0084	53	C2HN2O+
69.9872	184	C3H2S+
70.9824	1	C2HNS+
70.995	16	C3H3S+
71.9665	1	C2OS+
71.9902	2	C2H2NS+
75.0104	30	C5HN+
75.023	7	C6H3+
76.0182	566	C5H2N+
77.026	999	C5H3N+
78.0339	238	C5H4N+
79.0291	35	C4H3N2+
79.0417	133	C5H5N+
80.0369	11	C4H4N2+
80.0495	22	C5H6N+
80.9795	13	C4HS+
81.0335	5	C5H5O+
81.9872	334	C4H2S+
82.9824	131	C3HNS+
82.995	8	C4H3S+
83.9903	61	C3H2NS+
84.0029	12	C4H4S+
84.9856	9	C2HN2S+
84.9982	5	C3H3NS+
85.9696	1	C2NOS+
88.0182	8	C6H2N+
89.0261	11	C6H3N+
90.0339	82	C6H4N+
91.0291	2	C5H3N2+
91.0417	39	C6H5N+
92.037	673	C5H4N2+
92.9794	192	C5HS+
93.0448	53	C5H5N2+
93.9747	26	
93.9873	171	C5H2S+
94.0288	9	C5H4NO+
94.9826	18	C4HNS+
94.9951	207	C5H3S+
95.0366	40	C5H5NO+
95.9903	27	C4H2NS+
96.0029	99	C5H4S+
96.0444	46	C5H6NO+
96.9982	2	C4H3NS+
97.0107	8	C5H5S+
97.0523	8	C5H7NO+
102.0215	1	C6H2N2+
102.0337	2	C7H4N+
103.0292	196	C6H3N2+
103.0417	17	C7H5N+
104.037	437	C6H4N2+
105.0448	170	C6H5N2+
105.9872	3	C6H2S+
106.0526	24	C6H6N2+
107.9903	17	C5H2NS+
108.0446	2	C6H6NO+
108.9858	15	
108.9982	248	C5H3NS+
109.9935	9	C4H2N2S+
110.006	46	C5H4NS+
110.0477	9	C5H6N2O+
111.0137	2	C5H5NS+
111.0317	3	C5H5NO2+
111.0554	1	C5H7N2O+
113.0055	2	C5H5OS+
116.037	13	C7H4N2+
117.0448	1	C7H5N2+
118.04	21	C6H4N3+
118.0525	13	C7H6N2+
119.0479	102	C6H5N3+
119.0606	7	C7H7N2+
119.9904	123	C6H2NS+
120.0318	8	C6H4N2O+
120.0558	8	C6H6N3+
120.9982	37	C6H3NS+
121.0397	38	C6H5N2O+
122.006	131	C6H4NS+
123.0137	24	C6H5NS+
127.9927	5	C5H4O2S+
130.0401	154	C7H4N3+
131.0241	11	
131.0479	151	C7H5N3+
132.0557	6	C7H6N3+
133.0638	11	C7H7N3+
135.0013	41	C6H3N2S+
136.0092	32	C6H4N2S+
136.0268	28	C6H4N2O2+
137.017	18	C6H5N2S+
146.0349	7	C7H4N3O+
147.0014	5	C7H3N2S+
147.0429	2	C7H5N3O+
148.0091	1	C7H4N2S+
148.0504	1	C7H6N3O+
149.0171	2	C7H5N2S+
152.9878	1	C6H3NO2S+
158.0351	18	C8H4N3O+
159.0428	35	C8H5N3O+
162.0122	16	C7H4N3S+
163.0198	1	C7H5N3S+
190.007	1	C8H4N3OS+
