Mass spectrum: 4-Chlorobenzophenone; LC-ESI-QFT; MS2; CE: 45; R=35000; [M+H]+
Name: 4-Chlorobenzophenone
Name: 4-Chlorobenzophenon
Name: (4-chlorophenyl)-phenylmethanone
Formula: C13H9ClO
Exact mass: 216.03419
SMILES: C1=CC=C(C=C1)C(=O)C2=CC=C(C=C2)Cl
InChI: InChI=1S/C13H9ClO/c14-12-8-6-11(7-9-12)13(15)10-4-2-1-3-5-10/h1-9H
Instrument: Q Exactive Plus Orbitrap Thermo Scientific
Instrument type: LC-ESI-QFT
Ms type: MS2
Ion mode: POSITIVE
Ionization: ESI
Fragmentation mode: HCD
Collision energy: 45 (nominal)
Resolution: 35000
Column name: XBridge C18 3.5um, 2.1x50mm, Waters
Retention time: 12.2 min
Base peak: 217.0415
Precursor m/z: 217.0415
Precursor type: [M+H]+
m/z	relative intensity	assigned
53.0386	4	C4H5+
75.0226	2	C6H3+
77.0384	8	C6H5+
83.0491	1	C5H7O+
86.9995	2	C4H4Cl+
93.0335	1	C6H5O+
95.0491	12	C6H7O+
101.0596	1	C5H9O2+
105.0335	366	C7H5O+
110.9995	4	C6H4Cl+
111.0441	4	C6H7O2+
129.0101	8	C6H6ClO+
138.9945	999	C7H4ClO+
217.0415	40	C13H10ClO+
