Mass spectrum: Trimipramine N-Oxide; LC-ESI-QFT; MS2; CE: 90; R=35000; [M+H]+
Name: Trimipramine N-Oxide
Name: Trimipramine N-oxide, (+/-)-
Name: 3-(5,6-dihydrobenzo[b][1]benzazepin-11-yl)-N,N,2-trimethylpropan-1-amine oxide
Formula: C20H26N2O
Exact mass: 310.20451
SMILES: CC(CN1C2=CC=CC=C2CCC3=CC=CC=C31)C[N+](C)(C)[O-]
InChI: InChI=1S/C20H26N2O/c1-16(15-22(2,3)23)14-21-19-10-6-4-8-17(19)12-13-18-9-5-7-11-20(18)21/h4-11,16H,12-15H2,1-3H3
Instrument: Q Exactive Plus Orbitrap Thermo Scientific
Instrument type: LC-ESI-QFT
Ms type: MS2
Ion mode: POSITIVE
Ionization: ESI
Fragmentation mode: HCD
Collision energy: 90 (nominal)
Resolution: 35000
Column name: XBridge C18 3.5um, 2.1x50mm, Waters
Retention time: 8.9 min
Base peak: 311.2114
Precursor m/z: 311.2118
Precursor type: [M+H]+
m/z	relative intensity	assigned
53.0386	1	C4H5+
55.0542	11	C4H7+
56.0495	61	C3H6N+
58.0651	100	C3H8N+
60.0444	8	C2H6NO+
65.0385	3	C5H5+
70.0651	20	C4H8N+
71.0729	227	C4H9N+
77.0384	1	C6H5+
79.0542	3	C6H7+
84.0807	38	C5H10N+
85.0886	8	C5H11N+
86.0964	162	C5H12N+
89.0384	2	C7H5+
90.0464	5	C7H6+
91.0542	36	C7H7+
95.0491	2	C6H7O+
98.0964	2	C6H12N+
103.0542	6	C8H7+
105.0447	1	C6H5N2+
105.0698	6	C8H9+
106.0651	8	C7H8N+
115.0542	11	C9H7+
116.0494	1	C8H6N+
116.1069	8	C6H14NO+
117.0572	5	C8H7N+
117.07	2	C9H9+
118.0651	5	C8H8N+
128.0495	1	C9H6N+
128.0619	2	C10H8+
129.0698	2	C10H9+
130.0651	14	C9H8N+
131.0729	1	C9H9N+
141.0696	1	C11H9+
143.073	3	C10H9N+
144.0808	6	C10H10N+
152.0623	1	C12H8+
156.0807	1	C11H10N+
157.0887	1	C11H11N+
158.0962	2	C11H12N+
165.0698	28	C13H9+
166.0777	20	C13H10+
167.0729	49	C12H9N+
172.1118	1	C12H14N+
178.0655	2	C13H8N+
178.0776	11	C14H10+
179.0732	2	C13H9N+
179.0854	6	C14H11+
180.0807	30	C13H10N+
181.0884	2	C13H11N+
181.1009	1	C14H13+
189.0697	1	C15H9+
190.0648	1	C14H8N+
190.0776	1	C15H10+
191.0728	10	C14H9N+
191.0851	1	C15H11+
192.0807	150	C14H10N+
193.0885	999	C14H11N+
194.0963	40	C14H12N+
195.1042	5	C14H13N+
204.0807	10	C15H10N+
205.0887	4	C15H11N+
206.0964	30	C15H12N+
207.1042	21	C15H13N+
208.1121	117	C15H14N+
217.0882	1	C16H11N+
218.0963	14	C16H12N+
219.1042	6	C16H13N+
220.1121	10	C16H14N+
232.1119	6	C17H14N+
233.1198	1	C17H15N+
234.1277	27	C17H16N+
248.1435	3	C18H18N+
