Mass spectrum: Mycophenolic acid; LC-ESI-ITFT; MS2; CE: 30%; R=7500; [M+H]+
Name: Mycophenolic acid
Name: (E)-6-(4-hydroxy-3-keto-6-methoxy-7-methyl-phthalan-5-yl)-4-methyl-hex-4-enoic acid
Formula: C17H20O6
Exact mass: 320.1260
SMILES: c12c(c(c(C\C=C(\CCC(O)=O)C)c(c1C)OC)O)C(=O)OC2
InChI: InChI=1S/C17H20O6/c1-9(5-7-13(18)19)4-6-11-15(20)14-12(8-23-17(14)21)10(2)16(11)22-3/h4,20H,5-8H2,1-3H3,(H,18,19)/b9-4+
Instrument: LTQ Orbitrap XL Thermo Scientific
Instrument type: LC-ESI-ITFT
Ms type: MS2
Ion mode: POSITIVE
Ionization: ESI
Fragmentation mode: HCD
Collision energy: 30 % (nominal)
Resolution: 7500
Column name: XBridge C18 3.5um, 2.1x50mm, Waters
Retention time: 9.9 min
Base peak: 321.1329
Precursor m/z: 321.1333
Precursor type: [M+H]+
m/z	relative intensity	assigned
81.0701	2	C6H9+
109.0652	2	C7H9O+
159.0441	5	C10H7O2+
195.0652	47	C10H11O4+
207.0652	999	C11H11O4+
219.0649	2	C12H11O4+
223.0601	12	C11H11O5+
259.0959	2	C15H15O4+
261.1115	7	C15H17O4+
275.1278	362	C16H19O4+
285.1122	56	C17H17O4+
303.1228	548	C17H19O5+
321.1335	70	C17H21O6+
