Mass spectrum: 4-Formylaminoantipyrine; LC-ESI-ITFT; MS2; CE: 75%; R=7500; [M+H]+
Name: 4-Formylaminoantipyrine
Name: N-(1,5-dimethyl-3-oxidanylidene-2-phenyl-pyrazol-4-yl)methanamide
Formula: C12H13N3O2
Exact mass: 231.1008
SMILES: O=C2C(\NC=O)=C(\C)N(C)N2c1ccccc1
InChI: InChI=1S/C12H13N3O2/c1-9-11(13-8-16)12(17)15(14(9)2)10-6-4-3-5-7-10/h3-8H,1-2H3,(H,13,16)
Instrument: LTQ Orbitrap XL Thermo Scientific
Instrument type: LC-ESI-ITFT
Ms type: MS2
Ion mode: POSITIVE
Ionization: ESI
Fragmentation mode: HCD
Collision energy: 75 % (nominal)
Resolution: 7500
Column name: XBridge C18 3.5um, 2.1x50mm, Waters
Retention time: 3.7 min
Base peak: 232.1088
Precursor m/z: 232.1081
Precursor type: [M+H]+
m/z	relative intensity	assigned
53.0386	52	C4H5+
56.0495	992	C3H6N+
58.065	28	C3H8N+
68.0495	12	C4H6N+
77.0386	485	C6H5+
83.0604	999	C4H7N2+
85.0759	38	C4H9N2+
94.0651	281	C6H8N+
95.0492	63	C6H7O+
104.0495	938	C7H6N+
105.0447	117	C6H5N2+
118.0651	33	C8H8N+
128.0492	32	C9H6N+
130.0653	18	C9H8N+
131.0603	12	C8H7N2+
132.0446	11	C8H6NO+
132.0809	12	C9H10N+
145.0759	22	C9H9N2+
146.0602	66	C9H8NO+
158.06	13	C10H8NO+
159.0917	60	C10H11N2+
199.0734	10	C11H9N3O+
