Mass spectrum: Terbacil; LC-ESI-QFT; MS2; CE: 75; R=35000; [M-H]-
Name: Terbacil
Name: 3-tert-butyl-5-chloranyl-6-methyl-1H-pyrimidine-2,4-dione
Formula: C9H13ClN2O2
Exact mass: 216.06656
SMILES: O=C1N/C(=C(/Cl)C(=O)N1C(C)(C)C)C
InChI: InChI=1S/C9H13ClN2O2/c1-5-6(10)7(13)12(8(14)11-5)9(2,3)4/h1-4H3,(H,11,14)
Instrument: Q Exactive Orbitrap Thermo Scientific
Instrument type: LC-ESI-QFT
Ms type: MS2
Ion mode: NEGATIVE
Ionization: ESI
Fragmentation mode: HCD
Collision energy: 75 (nominal)
Resolution: 35000
Column name: XBridge C18 3.5um, 2.1x50mm, Waters
Retention time: 7.6 min
Base peak: 215.0595
Precursor m/z: 215.0593
Precursor type: [M-H]-
m/z	relative intensity	assigned
72.9725	262	C2ClN-
73.9803	41	C2HClN-
74.9643	199	C2ClO-
88.9674	15	C2ClNO-
115.991	86	C4H3ClNO-
130.0429	5	C6H9ClN-
158.9967	999	C5H4ClN2O2-
