Mass spectrum: MCLF; LC-ESI-QFT; MS2; CE: 45%; R=17500; [M+H]+
Name: MCLF
Name: Microcystin LF
Name: 15-benzyl-18-[(1E,3E)-6-methoxy-3,5-dimethyl-7-phenylhepta-1,3-dienyl]-1,5,12,19-tetramethyl-2-methylidene-8-(2-methylpropyl)-3,6,9,13,16,20,25-heptaoxo-1,4,7,10,14,17,21-heptazacyclopentacosane-11,22-dicarboxylic acid
Class: NA
Formula: C52H71N7O12
Exact mass: 985.5161
SMILES: COC(Cc1ccccc1)C(C)/C=C(C)/C=C/C2NC(=O)C(Cc3ccccc3)NC(=O)C(C)C(NC(=O)C(CC(C)C)NC(=O)C(C)NC(=O)C(=C)N(C)C(=O)CCC(NC(=O)C2C)C(O)=O)C(O)=O
InChI: InChI=1S/C52H71N7O12/c1-29(2)25-40-50(66)58-44(52(69)70)33(6)46(62)56-41(27-36-17-13-11-14-18-36)49(65)54-38(22-21-30(3)26-31(4)42(71-10)28-37-19-15-12-16-20-37)32(5)45(61)55-39(51(67)68)23-24-43(60)59(9)35(8)48(64)53-34(7)47(63)57-40/h11-22,26,29,31-34,38-42,44H,8,23-25,27-28H2,1-7,9-10H3,(H,53,64)(H,54,65)(H,55,61)(H,56,62)(H,57,63)(H,58,66)(H,67,68)(H,69,70)/b22-21+,30-26+
Instrument: Q Exactive Plus Orbitrap Thermo Scientific
Instrument type: LC-ESI-QFT
Ms type: MS2
Ion mode: POSITIVE
Ionization: ESI
Fragmentation mode: HCD
Collision energy: 45 % (nominal)
Resolution: 17500
Column name: XBridge C18 3.5um, 2.1x50mm, Waters
Retention time: 12.318 min
Base peak: 164.9846
Precursor m/z: 986.5233
Precursor type: [M+H]+
m/z	relative intensity	assigned
69.0335	41	C4H5O+
69.0699	10	C5H9+
77.0386	9	C6H5+
79.0542	72	C6H7+
82.065	51	C5H8N+
84.0444	213	C4H6NO+
84.0807	6	
86.0964	732	C5H12N+
91.0542	295	C7H7+
93.0699	138	C7H9+
94.0653	14	C6H8N+
95.0491	50	C6H7O+
95.0854	29	C7H11+
96.081	19	C6H10N+
99.0917	38	C5H11N2+
101.0712	8	C4H9N2O+
102.0546	33	C4H8NO2+
103.0542	260	C8H7+
105.0447	18	C6H5N2+
105.0699	284	C8H9+
107.0855	999	C8H11+
109.0645	26	C7H9O+
110.06	38	C6H8NO+
112.0391	13	C5H6NO2+
112.0755	10	C6H10NO+
113.0234	12	C5H5O3+
115.0542	37	C9H7+
117.0699	100	C9H9+
119.0855	37	C9H11+
120.0807	777	C8H10N+
121.0648	17	C8H9O+
121.101	22	C9H13+
122.0601	5	C7H8NO+
122.0966	13	C8H12N+
124.0757	42	C7H10NO+
124.1121	78	C8H14N+
127.0865	838	C6H11N2O+
128.0619	13	C10H8+
128.0707	27	C6H10NO2+
129.0699	26	C10H9+
130.0499	44	C5H8NO3+
130.0652	29	C9H8N+
131.0855	91	C10H11+
133.1012	52	C10H13+
135.0804	879	C9H11O+
135.1167	696	C10H15+
136.0759	9	C8H10NO+
138.0549	172	C7H8NO2+
139.0865	10	C7H11N2O+
140.0708	16	C7H10NO2+
143.0856	59	C11H11+
145.1011	65	C11H13+
146.0964	64	C10H12N+
146.109	17	C11H14+
147.08	5	C10H11O+
147.0915	9	C9H11N2+
149.0707	37	C8H9N2O+
150.0551	5	C8H8NO2+
151.0863	10	C8H11N2O+
152.0704	14	C8H10NO2+
152.1072	11	C9H14NO+
155.0815	505	C7H11N2O2+
157.1336	74	C8H17N2O+
158.0962	14	C11H12N+
159.0803	7	C11H11O+
159.1164	26	C12H15+
160.1121	29	C11H14N+
161.0961	57	C11H13O+
163.1117	446	C11H15O+
165.102	22	C9H13N2O+
167.0816	241	C8H11N2O2+
168.0657	20	C8H10NO3+
171.0806	15	C12H11O+
171.1169	25	C13H15+
173.096	36	C12H13O+
174.1043	8	C12H14O+
176.0711	15	C10H10NO2+
176.1073	12	C11H14NO+
178.1226	9	C11H16NO+
180.1384	10	C11H18NO+
181.1335	39	C10H17N2O+
183.1167	6	C14H15+
185.0932	8	C8H13N2O3+
188.1072	17	C12H14NO+
188.1432	34	C13H18N+
190.1222	25	C12H16NO+
194.1655	17	C11H20N3+
195.0767	160	C9H11N2O3+
195.1165	40	C15H15+
196.0609	35	C9H10NO4+
197.129	14	C10H17N2O2+
203.1179	59	C12H15N2O+
207.1167	8	C16H15+
209.1304	82	CH23NO10+
211.0715	11	C9H11N2O4+
213.0873	670	C9H13N2O4+
218.1542	71	H22N6O7+
221.0922	8	C11H13N2O3+
222.1602	13	C12H20N3O+
223.109	20	C11H15N2O3+
226.1593	93	C2H22N6O6+
228.1387	11	CH20N6O7+
231.112	33	C11H13N5O+
232.0975	86	C13H14NO3+
232.1217	8	CH20N4O9+
237.1234	16	C12H17N2O3+
237.164	72	C18H21+
239.0664	57	C10H11N2O5+
246.1495	60	CH22N6O8+
249.1238	354	C13H17N2O3+
250.1559	6	C15H22O3+
258.1856	16	C3H26N6O7+
259.1084	9	H17N7O9+
259.1809	33	C2H25N7O7+
265.1593	17	C5H23N5O7+
268.166	15	C13H22N3O3+
269.1132	9	C12H17N2O5+
277.1195	33	C15H13N6+
282.1852	16	C19H24NO+
293.1138	9	H19N7O11+
319.2023	16	C4H29N7O9+
320.201	11	C22H26NO+
329.1861	10	C19H25N2O3+
347.1963	18	C19H27N2O4+
375.1909	31	C20H27N2O5+
384.2267	13	C20H28N6O2+
