Mass spectrum: Bromuconazole; LC-ESI-QFT; MS2; CE: 150; R=35000; [M+H]+
Name: Bromuconazole
Name: 1-[[4-bromo-2-(2,4-dichlorophenyl)oxolan-2-yl]methyl]-1,2,4-triazole
Formula: C13H12BrCl2N3O
Exact mass: 374.95408
SMILES: C1C(COC1(CN2C=NC=N2)C3=C(C=C(C=C3)Cl)Cl)Br
InChI: InChI=1S/C13H12BrCl2N3O/c14-9-4-13(20-5-9,6-19-8-17-7-18-19)11-2-1-10(15)3-12(11)16/h1-3,7-9H,4-6H2
Instrument: Q Exactive Plus Orbitrap Thermo Scientific
Instrument type: LC-ESI-QFT
Ms type: MS2
Ion mode: POSITIVE
Ionization: ESI
Fragmentation mode: HCD
Collision energy: 150 (nominal)
Resolution: 35000
Column name: XBridge C18 3.5um, 2.1x50mm, Waters
Retention time: 10.9 min
Base peak: 377.9586
Precursor m/z: 375.9614
Precursor type: [M+H]+
m/z	relative intensity	assigned
50.0151	1	C4H2+
53.0023	3	C3HO+
53.0386	2	C4H5+
61.0073	7	C5H+
62.0152	52	C5H2+
63.023	166	C5H3+
64.0308	3	C5H4+
65.0386	3	C5H5+
66.0465	1	C5H6+
70.04	150	C2H4N3+
72.984	416	C3H2Cl+
74.0151	155	C6H2+
74.9997	11	C3H4Cl+
75.023	21	C6H3+
76.0308	3	C6H4+
78.0464	2	C6H6+
79.0178	4	C5H3O+
82.04	2	C3H4N3+
82.945	29	CHCl2+
83.9763	2	C4HCl+
84.9841	6	C4H2Cl+
86.0151	3	C7H2+
86.9634	14	C3ClO+
87.0231	18	C7H3+
88.0309	37	C7H4+
89.0386	999	C7H5+
92.9336	6	CH2Br+
93.0337	1	C6H5O+
95.0492	5	C6H7O+
96.9841	137	C5H2Cl+
98.9997	234	C5H4Cl+
100.0075	2	C5H5Cl+
102.0465	8	C8H6+
103.0543	2	C8H7+
105.0449	3	C6H5N2+
106.9451	9	C3HCl2+
108.9841	116	C6H2Cl+
109.9919	6	C6H3Cl+
113.0386	3	C9H5+
115.0544	13	C9H7+
118.9493	1	C3H4Br+
120.0207	19	C4H7ClNO+
121.0285	1	C4H8ClNO+
122.9997	336	C7H4Cl+
124.0076	88	C7H5Cl+
126.0466	8	C10H6+
127.0543	9	C10H7+
128.0622	52	C10H8+
129.0701	2	C10H9+
132.0571	1	C9H8O+
132.9608	86	C5H3Cl2+
139.0543	5	C11H7+
144.9608	4	C6H3Cl2+
145.0649	6	C10H9O+
149.0155	4	C9H6Cl+
155.0606	11	C10H7N2+
155.9972	3	C4H8Cl2NO+
158.9765	73	C7H5Cl2+
172.967	8	C6H3Cl2N2+
