Mass spectrum: Asulam-TP Sulfanilamide; LC-ESI-QFT; MS2; CE: 30%; R=17500; [M+H]+
Name: Asulam-TP Sulfanilamide
Name: Sulfanilamide
Name: 4-aminobenzenesulfonamide
Formula: C6H8N2O2S
Exact mass: 172.0306
SMILES: C1=C(C=CC(=C1)S(=O)(=O)N)N
InChI: InChI=1S/C6H8N2O2S/c7-5-1-3-6(4-2-5)11(8,9)10/h1-4H,7H2,(H2,8,9,10)
Instrument: Q Exactive Plus Orbitrap Thermo Scientific
Instrument type: LC-ESI-QFT
Ms type: MS2
Ion mode: POSITIVE
Ionization: ESI
Fragmentation mode: HCD
Collision energy: 30 % (nominal)
Resolution: 17500
Column name: XBridge C18 3.5um, 2.1x50mm, Waters
Retention time: 1.130 min
Base peak: 156.0115
Precursor m/z: 173.0379
Precursor type: [M+H]+
m/z	relative intensity	assigned
65.0387	4	C5H5+
68.0495	15	C4H6N+
69.0335	1	C4H5O+
78.034	1	C5H4N+
79.0178	2	C5H3O+
92.0495	113	C6H6N+
93.0573	71	C6H7N+
96.0444	3	C5H6NO+
108.0444	158	C6H6NO+
110.0601	14	C6H8NO+
113.9637	15	C3NO2S+
120.0557	4	
125.0473	1	C6H7NO2+
156.0114	242	C6H6NO2S+
157.0144	4	
173.038	999	C6H9N2O2S+
191.0485	2	
