Mass spectrum: Irbesartan; LC-ESI-ITFT; MS2; CE: 90%; R=30000; [M+H]+
Name: Irbesartan
Name: 8-butyl-7-[4-[2-(2H-tetrazol-5-yl)phenyl]benzyl]-7,9-diazaspiro[4.4]non-8-en-6-one
Formula: C25H28N6O
Exact mass: 428.2325
SMILES: C12(C(N(Cc3ccc(c4c(c5[nH]nnn5)cccc4)cc3)C(=N1)CCCC)=O)CCCC2
InChI: InChI=1S/C25H28N6O/c1-2-3-10-22-26-25(15-6-7-16-25)24(32)31(22)17-18-11-13-19(14-12-18)20-8-4-5-9-21(20)23-27-29-30-28-23/h4-5,8-9,11-14H,2-3,6-7,10,15-17H2,1H3,(H,27,28,29,30)
Instrument: LTQ Orbitrap XL Thermo Scientific
Instrument type: LC-ESI-ITFT
Ms type: MS2
Ion mode: POSITIVE
Ionization: ESI
Fragmentation mode: HCD
Collision energy: 90 % (nominal)
Resolution: 30000
Column name: XBridge C18 3.5um, 2.1x50mm, Waters
Retention time: 9.2 min
Base peak: 429.2411
Precursor m/z: 429.2397
Precursor type: [M+H]+
m/z	relative intensity	assigned
67.0542	27	C5H7+
77.0386	60	C6H5+
79.0542	17	C6H7+
80.0494	44	C5H6N+
84.0807	267	C5H10N+
95.049	9	C6H7O+
104.0494	11	C7H6N+
105.0447	22	C6H5N2+
115.0542	12	C9H7+
128.0494	15	C9H6N+
128.0618	5	C10H8+
129.0446	28	C8H5N2+
130.0401	12	C7H4N3+
139.054	23	C11H7+
140.0494	96	C10H6N+
151.0541	142	C12H7+
152.062	414	C12H8+
153.0698	180	C12H9+
154.065	45	C11H8N+
155.0602	34	C10H7N2+
155.0853	15	C12H11+
163.0541	111	C13H7+
164.0493	45	C12H6N+
164.0617	14	C13H8+
165.0698	404	C13H9+
166.0651	66	C12H8N+
166.0776	17	C13H10+
167.0729	77	C12H9N+
167.1543	4	C10H19N2+
168.0681	19	C11H8N2+
169.0646	35	C12H9O+
177.0571	101	C13H7N+
178.065	187	C13H8N+
179.0602	94	C12H7N2+
179.0728	295	C13H9N+
180.0807	609	C13H10N+
181.0759	28	C12H9N2+
182.06	18	C12H8NO+
183.0676	15	C12H9NO+
189.0572	19	C14H7N+
190.065	371	C14H8N+
191.0602	17	C13H7N2+
191.0728	59	C14H9N+
192.0681	335	C13H8N2+
192.0806	134	C14H10N+
194.0599	39	C13H8NO+
196.0756	25	C13H10NO+
205.076	999	C14H9N2+
206.0837	254	C14H10N2+
207.0916	112	C14H11N2+
208.0755	17	C14H10NO+
211.0627	23	C13H9NO2+
