Mass spectrum: Aspartame; LC-ESI-ITFT; MS2; CE: 30%; R=7500; [M+H]+
Name: Aspartame
Name: 3-amino-4-[(1-benzyl-2-keto-2-methoxy-ethyl)amino]-4-keto-butyric acid
Formula: C14H18N2O5
Exact mass: 294.1216
SMILES: COC(=O)C(CC1=CC=CC=C1)NC(=O)C(CC(=O)O)N
InChI: InChI=1S/C14H18N2O5/c1-21-14(20)11(7-9-5-3-2-4-6-9)16-13(19)10(15)8-12(17)18/h2-6,10-11H,7-8,15H2,1H3,(H,16,19)(H,17,18)/t10-,11-/m0/s1
Instrument: LTQ Orbitrap XL Thermo Scientific
Instrument type: LC-ESI-ITFT
Ms type: MS2
Ion mode: POSITIVE
Ionization: ESI
Fragmentation mode: HCD
Collision energy: 30 % (nominal)
Resolution: 7500
Column name: XBridge C18 3.5um, 2.1x50mm, Waters
Retention time: 4.8 min
Base peak: 295.1297
Precursor m/z: 295.1288
Precursor type: [M+H]+
m/z	relative intensity	assigned
70.0288	41	C3H4NO+
88.0393	76	C3H6NO2+
91.0541	36	C7H7+
98.0236	5	C4H4NO2+
103.0543	10	C8H7+
120.0808	629	C8H10N+
121.0647	46	C8H9O+
130.0649	34	C9H8N+
131.0492	28	C9H7O+
157.0644	10	C11H9O+
163.0753	46	C10H11O2+
172.0757	41	C11H10NO+
175.0866	271	C10H11N2O+
180.102	999	C10H14NO2+
182.0597	27	C12H8NO+
189.1024	29	C11H13N2O+
190.0861	27	C11H12NO2+
200.0705	270	C12H10NO2+
203.0814	24	C11H11N2O2+
217.0972	86	C12H13N2O2+
218.0816	22	C12H12NO3+
228.0657	45	C13H10NO3+
235.1077	700	C12H15N2O3+
242.0813	8	C14H12NO3+
245.0923	42	C13H13N2O3+
260.0915	151	C14H14NO4+
263.1032	6	C13H15N2O4+
295.1287	37	C14H19N2O5+
