Mass spectrum: Perfluoroheptanoic acid; LC-ESI-ITFT; MS2; CE: 30%; R=7500; [M-H]-
Name: Perfluoroheptanoic acid
Name: 2,2,3,3,4,4,5,5,6,6,7,7,7-tridecafluoroenanthic acid
Formula: C7HF13O2
Exact mass: 363.9769
SMILES: O=C(O)C(F)(F)C(F)(F)C(F)(F)C(F)(F)C(F)(F)C(F)(F)F
InChI: InChI=1S/C7HF13O2/c8-2(9,1(21)22)3(10,11)4(12,13)5(14,15)6(16,17)7(18,19)20/h(H,21,22)
Instrument: LTQ Orbitrap XL Thermo Scientific
Instrument type: LC-ESI-ITFT
Ms type: MS2
Ion mode: NEGATIVE
Ionization: ESI
Fragmentation mode: HCD
Collision energy: 30 % (nominal)
Resolution: 7500
Column name: XBridge C18 3.5um, 2.1x50mm, Waters
Retention time: 11.1 min
Base peak: 362.9698
Precursor m/z: 362.9696
Precursor type: [M-H]-
m/z	relative intensity	assigned
118.9925	206	C2F5-
168.9894	999	C3F7-
