Mass spectrum: [D-Asp3,E-Dhb7]-Microcystin-RR; LC-ESI-QFT; MS2; CE: 30%; R=17500; [M-H]-
Name: [D-Asp3,E-Dhb7]-Microcystin-RR
Name: 8,15-bis[3-(diaminomethylideneamino)propyl]-2-ethylidene-18-(6-methoxy-3,5-dimethyl-7-phenylhepta-1,3-dienyl)-5,19-dimethyl-3,6,9,13,16,20,25-heptaoxo-1,4,7,10,14,17,21-heptazacyclopentacosane-11,22-dicarboxylic acid
Formula: C48H73N13O12
Exact mass: 1023.5502
SMILES: CC=C1C(=O)NC(C(=O)NC(C(=O)NC(CC(=O)NC(C(=O)NC(C(C(=O)NC(CCC(=O)N1)C(=O)O)C)C=CC(=CC(C)C(CC2=CC=CC=C2)OC)C)CCCN=C(N)N)C(=O)O)CCCN=C(N)N)C
InChI: InChI=1S/C48H73N13O12/c1-7-31-42(66)55-29(5)41(65)59-34(16-12-22-54-48(51)52)44(68)61-36(46(71)72)25-39(63)57-33(15-11-21-53-47(49)50)43(67)58-32(28(4)40(64)60-35(45(69)70)19-20-38(62)56-31)18-17-26(2)23-27(3)37(73-6)24-30-13-9-8-10-14-30/h7-10,13-14,17-18,23,27-29,32-37H,11-12,15-16,19-22,24-25H2,1-6H3,(H,55,66)(H,56,62)(H,57,63)(H,58,67)(H,59,65)(H,60,64)(H,61,68)(H,69,70)(H,71,72)(H4,49,50,53)(H4,51,52,54)
Instrument: Q Exactive Plus Orbitrap Thermo Scientific
Instrument type: LC-ESI-QFT
Ms type: MS2
Ion mode: NEGATIVE
Ionization: ESI
Fragmentation mode: HCD
Collision energy: 30 % (nominal)
Resolution: 17500
Column name: XBridge C18 3.5um, 2.1x50mm, Waters
Retention time: 7.057 min
Base peak: 190.928
Precursor m/z: 1022.5429
Precursor type: [M-H]-
m/z	relative intensity	assigned
128.0352	412	C5H6NO3-
153.0659	34	C5H7N5O-
167.0822	50	C8H11N2O2-
208.12	49	C9H14N5O-
243.1578	45	C9H19N6O2-
283.1536	77	C13H21N3O4-
284.1744	30	C14H24N2O4-
308.1851	33	C15H24N4O3-
309.1711	38	C2H21N12O6-
312.1702	55	C16H20N6O-
326.1962	228	C15H26N4O4-
336.1819	41	C3H22N13O6-
353.1859	44	C19H23N5O2-
354.192	479	C17H22N8O-
420.2014	26	C19H22N11O-
437.2266	368	C18H29N8O5-
455.2359	36	C17H35N4O10-
566.2973	103	C29H44NO10-
694.3563	53	C34H52N3O12-
792.4487	45	C34H58N13O9-
924.5341	88	C48H68N12O7-
978.5426	27	C48H72N11O11-
980.5172	44	C47H70N11O12-
1004.5327	999	C48H70N13O11-
1022.5438	233	C48H72N13O12-
