Mass spectrum: Cefadroxil; LC-ESI-QFT; MS2; CE: 30; R=35000; [M+H]+
Name: Cefadroxil
Name: 7-[[2-azaniumyl-2-(4-hydroxyphenyl)acetyl]amino]-3-methyl-8-oxo-5-thia-1-azabicyclo[4.2.0]oct-2-ene-2-carboxylate
Formula: C16H17N3O5S
Exact mass: 363.08889
SMILES: CC1=C(N2C(C(C2=O)NC(=O)C(C3=CC=C(C=C3)O)N)SC1)C(=O)O
InChI: InChI=1S/C16H17N3O5S/c1-7-6-25-15-11(14(22)19(15)12(7)16(23)24)18-13(21)10(17)8-2-4-9(20)5-3-8/h2-5,10-11,15,20H,6,17H2,1H3,(H,18,21)(H,23,24)
Instrument: Q Exactive Plus Orbitrap Thermo Scientific
Instrument type: LC-ESI-QFT
Ms type: MS2
Ion mode: POSITIVE
Ionization: ESI
Fragmentation mode: HCD
Collision energy: 30 (nominal)
Resolution: 35000
Column name: XBridge C18 3.5um, 2.1x50mm, Waters
Retention time: 2.4 min
Base peak: 364.0954
Precursor m/z: 364.0962
Precursor type: [M+H]+
m/z	relative intensity	assigned
58.995	1	C2H3S+
68.0495	70	C4H6N+
70.0651	1	C4H8N+
86.0059	6	C3H4NS+
98.0601	1	C5H8NO+
102.0009	1	C3H4NOS+
107.0491	1	C7H7O+
114.0009	999	C4H4NOS+
122.0601	6	C7H8NO+
126.0551	4	C6H8NO2+
133.0285	1	C8H5O2+
134.0363	30	C8H6O2+
134.0601	14	C8H8NO+
135.0441	1	C8H7O2+
135.0555	1	C7H7N2O+
137.0056	1	C7H5OS+
137.0711	2	C7H9N2O+
138.055	1	C7H8NO2+
139.0215	1	C7H7OS+
140.0165	4	C6H6NOS+
140.0343	62	C6H6NO3+
150.0553	1	C8H8NO2+
158.0271	82	C6H8NO2S+
162.0548	1	C9H8NO2+
162.0916	1	C10H12NO+
163.0214	1	C9H7OS+
166.0324	2	C8H8NOS+
170.027	1	C7H8NO2S+
180.0479	12	C9H10NOS+
181.0432	1	C8H9N2OS+
181.0607	1	C8H9N2O3+
190.05	35	C10H8NO3+
194.0272	12	C9H8NO2S+
206.0272	3	C10H8NO2S+
207.035	44	C10H9NO2S+
208.0429	43	C10H10NO2S+
213.0328	1	C8H9N2O3S+
230.0635	1	C13H12NOS+
234.0222	1	C11H8NO3S+
253.0279	3	C10H9N2O4S+
256.0605	12	C14H10NO4+
258.0221	1	C13H8NO3S+
273.0692	1	C14H13N2O2S+
301.0639	1	C15H13N2O3S+
303.0799	3	C15H15N2O3S+
319.0748	2	C15H15N2O4S+
