Mass spectrum: Iminostilbene; LC-ESI-ITFT; MS2; CE: 60%; R=15000; [M+H]+
Name: Iminostilbene
Name: 11H-benzo[b][1]benzazepine
Formula: C14H11N
Exact mass: 193.0891
SMILES: c1cc2Nc3ccccc3\C=C/c2cc1
InChI: InChI=1S/C14H11N/c1-3-7-13-11(5-1)9-10-12-6-2-4-8-14(12)15-13/h1-10,15H
Instrument: LTQ Orbitrap XL Thermo Scientific
Instrument type: LC-ESI-ITFT
Ms type: MS2
Ion mode: POSITIVE
Ionization: ESI
Fragmentation mode: HCD
Collision energy: 60 % (nominal)
Resolution: 15000
Column name: XBridge C18 3.5um, 2.1x50mm, Waters
Retention time: 11.0 min
Base peak: 194.0971
Precursor m/z: 194.0964
Precursor type: [M+H]+
m/z	relative intensity	assigned
116.0495	1	C8H6N+
152.062	2	C12H8+
165.0699	1	C13H9+
166.0775	1	C13H10+
167.0732	4	C12H9N+
167.0857	10	C13H11+
177.07	7	C14H9+
178.0655	1	C13H8N+
178.078	2	C14H10+
179.0731	34	C13H9N+
192.0813	6	C14H10N+
193.0891	86	C14H11N+
194.0967	999	C14H12N+
