Mass spectrum: Pantoprazole; LC-ESI-ITFT; MS2; CE: 90%; R=30000; [M+H]+
Name: Pantoprazole
Name: 6-(difluoromethoxy)-2-[(3,4-dimethoxy-2-pyridinyl)methylsulfinyl]-1H-benzimidazole
Formula: C16H15F2N3O4S
Exact mass: 383.0751
SMILES: COC1=C(C(=NC=C1)CS(=O)C2=NC3=C(N2)C=C(C=C3)OC(F)F)OC
InChI: InChI=1S/C16H15F2N3O4S/c1-23-13-5-6-19-12(14(13)24-2)8-26(22)16-20-10-4-3-9(25-15(17)18)7-11(10)21-16/h3-7,15H,8H2,1-2H3,(H,20,21)
Instrument: LTQ Orbitrap XL Thermo Scientific
Instrument type: LC-ESI-ITFT
Ms type: MS2
Ion mode: POSITIVE
Ionization: ESI
Fragmentation mode: HCD
Collision energy: 90 % (nominal)
Resolution: 30000
Column name: XBridge C18 3.5um, 2.1x50mm, Waters
Retention time: 6.6 min
Base peak: 384.0836
Precursor m/z: 384.0824
Precursor type: [M+H]+
m/z	relative intensity	assigned
65.0386	25	C5H5+
67.0416	16	C4H5N+
69.0333	8	C4H5O+
78.0337	7	C5H4N+
80.0494	26	C5H6N+
82.0651	15	C5H8N+
92.0494	113	C6H6N+
93.0572	49	C6H7N+
94.065	63	C6H8N+
96.0443	15	C5H6NO+
106.065	59	C7H8N+
107.0729	70	C7H9N+
108.0443	66	C6H6NO+
109.0521	22	C6H7NO+
110.0058	31	C5H4NS+
110.06	251	C6H8NO+
112.039	6	C5H6NO2+
122.0599	126	C7H8NO+
123.0677	7	C7H9NO+
124.0756	28	C7H10NO+
125.047	28	C6H7NO2+
135.0551	7	C7H7N2O+
136.0392	558	C7H6NO2+
138.0549	999	C7H8NO2+
139.0085	19	C6H5NOS+
152.0705	149	C8H10NO2+
153.9956	20	C6H4NO2S+
154.0497	165	C5H10F2NS+
156.0114	12	C6H6NO2S+
165.0116	13	C7H5N2OS+
167.0034	29	C7H5NO2S+
172.9848	8	C5HF2N3S+
