Mass spectrum: Iprodione; LC-ESI-QFT; MS2; CE: 30; R=35000; [M+H]+
Name: Iprodione
Name: 3-(3,5-dichlorophenyl)-2,4-dioxo-N-propan-2-yl-1-imidazolidinecarboxamide
Formula: C13H13Cl2N3O3
Exact mass: 329.03340
SMILES: O=C2N(c1cc(Cl)cc(Cl)c1)C(=O)CN2C(=O)NC(C)C
InChI: InChI=1S/C13H13Cl2N3O3/c1-7(2)16-12(20)17-6-11(19)18(13(17)21)10-4-8(14)3-9(15)5-10/h3-5,7H,6H2,1-2H3,(H,16,20)
Instrument: Q Exactive Orbitrap Thermo Scientific
Instrument type: LC-ESI-QFT
Ms type: MS2
Ion mode: POSITIVE
Ionization: ESI
Fragmentation mode: HCD
Collision energy: 30 (nominal)
Resolution: 35000
Column name: XBridge C18 3.5um, 2.1x50mm, Waters
Retention time: 12.3 min
Base peak: 330.0406
Precursor m/z: 330.0407
Precursor type: [M+H]+
m/z	relative intensity	assigned
56.013	9	C2H2NO+
74.0236	1	C2H4NO2+
98.9841	29	CH4ClO3+
161.9872	25	C6H6Cl2N+
166.0292	10	C8H7ClN2+
167.0131	1	C8H6ClNO+
171.9714	11	C10HClO+
173.9872	12	C7H6Cl2N+
174.992	1	C4H9Cl2O3+
187.9663	23	C7H4Cl2NO+
199.9663	1	C8H4Cl2NO+
201.982	4	C8H6Cl2NO+
216.993	48	C8H7Cl2N2O+
226.9775	2	C9H5Cl2N2O+
244.9879	999	C9H7Cl2N2O2+
262.9985	4	C9H9Cl2N2O3+
287.9937	41	C10H8Cl2N3O3+
330.0402	1	C13H14Cl2N3O3+
