Mass spectrum: Mirtazapine; LC-ESI-QFT; MS2; CE: 150; R=35000; [M+H]+
Name: Mirtazapine
Name: 2-Methyl-1,2,3,4,10,14b-hexahydropyrazino[2,1-a]pyrido[2,3-c][2]benzazepine
Formula: C17H19N3
Exact mass: 265.15790
SMILES: CN1CCN2C(C1)C3=CC=CC=C3CC4=C2N=CC=C4
InChI: InChI=1S/C17H19N3/c1-19-9-10-20-16(12-19)15-7-3-2-5-13(15)11-14-6-4-8-18-17(14)20/h2-8,16H,9-12H2,1H3
Instrument: Q Exactive Plus Orbitrap Thermo Scientific
Instrument type: LC-ESI-QFT
Ms type: MS2
Ion mode: POSITIVE
Ionization: ESI
Fragmentation mode: HCD
Collision energy: 150 (nominal)
Resolution: 35000
Column name: XBridge C18 3.5um, 2.1x50mm, Waters
Retention time: 4.7 min
Base peak: 266.1642
Precursor m/z: 266.1652
Precursor type: [M+H]+
m/z	relative intensity	assigned
50.0151	50	C4H2+
51.0229	51	C4H3+
52.0181	10	C3H2N+
52.0308	4	C4H4+
53.0385	59	C4H5+
54.0338	3	C3H4N+
55.0417	2	C3H5N+
56.0494	80	C3H6N+
57.0572	30	C3H7N+
58.0651	71	C3H8N+
62.0149	13	C5H2+
63.0228	139	C5H3+
64.0181	16	C4H2N+
64.0307	24	C5H4+
65.0385	876	C5H5+
66.0337	28	C4H4N+
66.0464	22	C5H6+
67.0416	43	C4H5N+
70.065	41	C4H8N+
72.0807	120	C4H10N+
74.0148	5	C6H2+
75.0228	30	C6H3+
76.0305	3	C6H4+
77.0384	71	C6H5+
78.0337	104	C5H4N+
78.0464	30	C6H6+
79.0416	30	C5H5N+
79.0541	21	C6H7+
80.0494	55	C5H6N+
81.0333	4	C5H5O+
87.0228	5	C7H3+
88.0306	3	C7H4+
89.0385	285	C7H5+
90.0337	61	C6H4N+
90.0463	76	C7H6+
91.0416	48	C6H5N+
91.0541	222	C7H7+
92.0494	116	C6H6N+
93.0445	4	C5H5N2+
93.0572	30	C6H7N+
95.049	145	C6H7O+
96.0443	89	C5H6NO+
99.0228	9	C8H3+
101.0384	11	C8H5+
102.0463	54	C8H6+
103.0541	117	C8H7+
104.0494	37	C7H6N+
104.0618	2	C8H8+
105.0446	89	C6H5N2+
105.0698	10	C8H9+
106.0653	3	C7H8N+
107.0603	2	C6H7N2+
108.0442	13	C6H6NO+
110.0599	62	C6H8NO+
113.0385	19	C9H5+
114.0334	3	C8H4N+
114.0463	19	C9H6+
115.0541	629	C9H7+
116.0494	82	C8H6N+
116.0619	22	C9H8+
117.0446	32	C7H5N2+
117.0572	98	C8H7N+
117.0696	9	C9H9+
118.0413	3	C8H6O+
118.0523	39	C7H6N2+
118.0649	4	C8H8N+
119.0488	8	C8H7O+
119.0603	21	C7H7N2+
122.0601	3	C7H8NO+
125.0385	34	C10H5+
126.0463	89	C10H6+
127.0414	12	C9H5N+
127.0541	72	C10H7+
128.0493	45	C9H6N+
128.0619	98	C10H8+
129.0446	32	C8H5N2+
129.0572	43	C9H7N+
130.065	202	C9H8N+
131.0602	52	C8H7N2+
131.073	12	C9H9N+
132.0568	8	C9H8O+
132.0678	3	C8H8N2+
132.0807	4	C9H10N+
134.0599	5	C8H8NO+
135.0551	10	C7H7N2O+
138.0462	9	C11H6+
139.0541	555	C11H7+
140.0494	206	C10H6N+
140.0618	192	C11H8+
141.0572	39	C10H7N+
141.0697	83	C11H9+
142.0523	5	C9H6N2+
142.0649	18	C10H8N+
143.0491	4	C10H7O+
143.0729	27	C10H9N+
144.0806	29	C10H10N+
145.0647	42	C10H9O+
146.0599	30	C9H8NO+
149.0384	5	C12H5+
150.0463	202	C12H6+
151.0541	124	C12H7+
152.0495	25	C11H6N+
152.0619	455	C12H8+
153.0445	9	C10H5N2+
153.0572	150	C11H7N+
153.0697	57	C12H9+
154.0651	55	C11H8N+
155.0602	96	C10H7N2+
156.0569	2	C11H8O+
163.054	79	C13H7+
164.0493	33	C12H6N+
164.0617	50	C13H8+
165.0575	34	C12H7N+
165.0698	76	C13H9+
166.065	868	C12H8N+
167.0728	764	C12H9N+
168.0566	15	C12H8O+
168.0682	89	C11H8N2+
168.0805	113	C12H10N+
169.0646	273	C12H9O+
170.0599	50	C11H8NO+
175.0411	2	C13H5N+
176.0496	2	C13H6N+
176.0621	16	C14H8+
177.0571	181	C13H7N+
178.0649	154	C13H8N+
179.0602	196	C12H7N2+
179.0725	121	C13H9N+
180.0554	11	C11H6N3+
180.0679	9	C12H8N2+
180.0805	138	C13H10N+
181.0755	4	C12H9N2+
183.0677	10	C12H9NO+
184.0754	29	C12H10NO+
189.0574	4	C14H7N+
189.0698	17	C15H9+
190.0649	94	C14H8N+
191.06	24	C13H7N2+
191.0727	67	C14H9N+
192.068	594	C13H8N2+
193.0759	999	C13H9N2+
194.0837	608	C13H10N2+
195.0915	17	C13H11N2+
196.0759	2	C13H10NO+
203.0728	4	C15H9N+
204.0551	12	C13H6N3+
204.0808	14	C15H10N+
205.0758	94	C14H9N2+
206.0836	28	C14H10N2+
207.0915	13	C14H11N2+
214.0645	4	C16H8N+
216.0682	10	C15H8N2+
216.0807	12	C16H10N+
217.0758	22	C15H9N2+
218.0836	93	C15H10N2+
219.0914	11	C15H11N2+
