Mass spectrum: 2,4-D; LC-ESI-ITFT; MS2; CE: 30%; R=15000; [M-H]-
Name: 2,4-D
Name: 2-(2,4-dichlorophenoxy)acetic acid
Formula: C8H6Cl2O3
Exact mass: 219.9694
SMILES: ClC1=C(OCC(O)=O)C=CC(Cl)=C1
InChI: InChI=1S/C8H6Cl2O3/c9-5-1-2-7(6(10)3-5)13-4-8(11)12/h1-3H,4H2,(H,11,12)
Instrument: LTQ Orbitrap XL Thermo Scientific
Instrument type: LC-ESI-ITFT
Ms type: MS2
Ion mode: NEGATIVE
Ionization: ESI
Fragmentation mode: HCD
Collision energy: 30 % (nominal)
Resolution: 15000
Column name: XBridge C18 3.5um, 2.1x50mm, Waters
Retention time: 9.1 min
Base peak: 218.9622
Precursor m/z: 218.9621
Precursor type: [M-H]-
m/z	relative intensity	assigned
160.9569	999	C6H3Cl2O-
218.962	4	C8H5Cl2O3-
