Mass spectrum: Fluconazole; LC-ESI-ITFT; MS2; CE: 75%; R=7500; [M+H]+
Name: Fluconazole
Name: 2-(2,4-difluorophenyl)-1,3-bis(1,2,4-triazol-1-yl)-2-propanol
Formula: C13H12F2N6O
Exact mass: 306.1041
SMILES: OC(CN1C=NC=N1)(CN2C=NC=N2)C3=C(F)C=C(F)C=C3
InChI: InChI=1S/C13H12F2N6O/c14-10-1-2-11(12(15)3-10)13(22,4-20-8-16-6-18-20)5-21-9-17-7-19-21/h1-3,6-9,22H,4-5H2
Instrument: LTQ Orbitrap XL Thermo Scientific
Instrument type: LC-ESI-ITFT
Ms type: MS2
Ion mode: POSITIVE
Ionization: ESI
Fragmentation mode: HCD
Collision energy: 75 % (nominal)
Resolution: 7500
Column name: XBridge C18 3.5um, 2.1x50mm, Waters
Retention time: 5.3 min
Base peak: 307.1126
Precursor m/z: 307.1113
Precursor type: [M+H]+
m/z	relative intensity	assigned
70.04	563	C2H4N3+
82.04	40	C3H4N3+
83.0475	18	C3H5N3+
101.0386	28	C8H5+
121.0449	738	C8H6F+
127.0354	770	C7H5F2+
129.0447	329	C8H5N2+
139.0355	999	C8H5F2+
141.0146	117	C7H3F2O+
141.0511	437	C8H7F2+
146.0402	28	C9H5FN+
147.0355	70	C8H4FN2+
149.0397	19	C9H6FO+
151.0354	726	C9H5F2+
164.0425	20	C10H6F2+
166.0464	64	C9H6F2N+
169.0461	358	C9H7F2O+
173.0511	119	C10H6FN2+
177.0463	17	C9H6FN2O+
193.0571	25	C10H7F2N2+
200.0617	62	C6H6F2N6+
220.0683	123	C11H8F2N3+
238.0809	28	C13H12F2O2+
