Mass spectrum: Cyprodinil; LC-ESI-ITFT; MS2; CE: 75%; R=7500; [M+H]+
Name: Cyprodinil
Name: (4-cyclopropyl-6-methyl-pyrimidin-2-yl)-phenyl-amine
Formula: C14H15N3
Exact mass: 225.1260
SMILES: c1ccccc1Nc1nc(C2CC2)cc(C)n1
InChI: InChI=1S/C14H15N3/c1-10-9-13(11-7-8-11)17-14(15-10)16-12-5-3-2-4-6-12/h2-6,9,11H,7-8H2,1H3,(H,15,16,17)
Instrument: LTQ Orbitrap XL Thermo Scientific
Instrument type: LC-ESI-ITFT
Ms type: MS2
Ion mode: POSITIVE
Ionization: ESI
Fragmentation mode: HCD
Collision energy: 75 % (nominal)
Resolution: 7500
Column name: XBridge C18 3.5um, 2.1x50mm, Waters
Retention time: 9.4 min
Base peak: 226.1338
Precursor m/z: 226.1339
Precursor type: [M+H]+
m/z	relative intensity	assigned
65.0385	31	C5H5+
67.0542	29	C5H7+
68.0495	17	C4H6N+
77.0386	28	C6H5+
79.0543	38	C6H7+
80.0495	21	C5H6N+
81.0699	29	C6H9+
82.065	15	C5H8N+
83.0601	5	C4H7N2+
84.0808	12	C5H10N+
91.0542	95	C7H7+
92.0495	71	C6H6N+
92.062	9	C7H8+
93.0573	243	C6H7N+
94.0649	14	C6H8N+
104.0497	18	C7H6N+
105.0447	11	C6H5N2+
106.0652	128	C7H8N+
107.0732	5	C7H9N+
108.0684	30	C6H8N2+
108.0808	279	C7H10N+
109.0761	21	C6H9N2+
109.0886	6	C7H11N+
110.0602	9	C6H8NO+
116.0496	33	C8H6N+
117.0446	5	C7H5N2+
117.0573	22	C8H7N+
118.0526	90	C7H6N2+
118.0651	44	C8H8N+
119.0604	133	C7H7N2+
123.0918	19	C7H11N2+
124.0756	10	C7H10NO+
128.0495	4	C9H6N+
130.0651	3	C9H8N+
131.0604	31	C8H7N2+
132.0682	56	C8H8N2+
133.076	147	C8H9N2+
134.0599	9	C8H8NO+
142.0653	17	C10H8N+
143.0604	55	C9H7N2+
144.0559	6	C8H6N3+
144.0808	81	C10H10N+
145.076	26	C9H9N2+
149.0715	6	C8H9N2O+
157.0762	9	C10H9N2+
159.0917	42	C10H11N2+
167.0728	23	C12H9N+
168.068	17	C11H8N2+
168.081	25	C12H10N+
169.0763	18	C11H9N2+
170.0836	6	C11H10N2+
171.0915	6	C11H11N2+
181.0762	8	C12H9N2+
182.084	15	C12H10N2+
184.0872	62	C11H10N3+
185.1073	47	C12H13N2+
191.0727	5	C14H9N+
193.0762	22	C13H9N2+
194.084	60	C13H10N2+
197.095	14	C12H11N3+
198.1029	16	C12H12N3+
206.0829	4	C14H10N2+
207.0917	20	C14H11N2+
208.0995	19	C14H12N2+
209.1074	75	C14H13N2+
210.1025	118	C13H12N3+
211.1101	27	C13H13N3+
224.1185	21	C14H14N3+
226.1344	999	C14H16N3+
