Mass spectrum: 4-Chlorobenzophenone; LC-ESI-QFT; MS2; CE: 60; R=35000; [M+H]+
Name: 4-Chlorobenzophenone
Name: 4-Chlorobenzophenon
Name: (4-chlorophenyl)-phenylmethanone
Formula: C13H9ClO
Exact mass: 216.03419
SMILES: C1=CC=C(C=C1)C(=O)C2=CC=C(C=C2)Cl
InChI: InChI=1S/C13H9ClO/c14-12-8-6-11(7-9-12)13(15)10-4-2-1-3-5-10/h1-9H
Instrument: Q Exactive Plus Orbitrap Thermo Scientific
Instrument type: LC-ESI-QFT
Ms type: MS2
Ion mode: POSITIVE
Ionization: ESI
Fragmentation mode: HCD
Collision energy: 60 (nominal)
Resolution: 35000
Column name: XBridge C18 3.5um, 2.1x50mm, Waters
Retention time: 12.2 min
Base peak: 217.0415
Precursor m/z: 217.0415
Precursor type: [M+H]+
m/z	relative intensity	assigned
50.015	4	C4H2+
51.0228	3	C4H3+
53.0386	16	C4H5+
55.0178	1	C3H3O+
55.0542	3	C4H7+
75.0226	3	C6H3+
77.0385	30	C6H5+
79.0178	3	C5H3O+
80.0256	1	C5H4O+
81.0335	1	C5H5O+
83.049	4	C5H7O+
86.9996	18	C4H4Cl+
93.0335	7	C6H5O+
94.0413	3	C6H6O+
95.0492	63	C6H7O+
101.0597	1	C5H9O2+
105.0335	368	C7H5O+
105.0447	34	C6H5N2+
110.9995	9	C6H4Cl+
111.044	6	C6H7O2+
114.9945	1	C5H4ClO+
128.0022	1	C6H5ClO+
129.0102	69	C6H6ClO+
138.9945	999	C7H4ClO+
139.0055	222	C6H4ClN2+
140.0027	1	C7H5ClO+
217.0412	1	C13H10ClO+
