Mass spectrum: Pipemidic acid; LC-ESI-QFT; MS2; CE: 15; R=35000; [M+H]+
Name: Pipemidic acid
Name: 5,8-Dihydro-8-ethyl-5-oxo-2-(1-piperazinyl)pyrido(2,3-d)pyrimidine-6-carboxylic acid
Name: 8-ethyl-5-keto-2-piperazin-4-ium-1-yl-pyrido[2,3-d]pyrimidine-6-carboxylate
Formula: C14H17N5O3
Exact mass: 303.13314
SMILES: O=C(O)\C2=C\N(c1nc(ncc1C2=O)N3CCNCC3)CC
InChI: InChI=1S/C14H17N5O3/c1-2-18-8-10(13(21)22)11(20)9-7-16-14(17-12(9)18)19-5-3-15-4-6-19/h7-8,15H,2-6H2,1H3,(H,21,22)
Instrument: Q Exactive Orbitrap Thermo Scientific
Instrument type: LC-ESI-QFT
Ms type: MS2
Ion mode: POSITIVE
Ionization: ESI
Fragmentation mode: HCD
Collision energy: 15 (nominal)
Resolution: 35000
Column name: XBridge C18 3.5um, 2.1x50mm, Waters
Retention time: 3.6 min
Base peak: 304.1405
Precursor m/z: 304.1404
Precursor type: [M+H]+
m/z	relative intensity	assigned
217.1085	24	C11H13N4O+
260.1506	16	C13H18N5O+
261.0982	9	C12H13N4O3+
304.1403	999	C14H18N5O3+
