Mass spectrum: Diphenyl-phthalate; LC-ESI-QFT; MS2; CE: 15; R=35000; [M+H]+
Name: Diphenyl-phthalate
Name: Diphenyl phthalate
Name: Diphenyl benzene-1,2-dicarboxylate
Formula: C20H14O4
Exact mass: 318.08921
SMILES: C1=CC=C(C=C1)OC(=O)C2=CC=CC=C2C(=O)OC3=CC=CC=C3
InChI: InChI=1S/C20H14O4/c21-19(23-15-9-3-1-4-10-15)17-13-7-8-14-18(17)20(22)24-16-11-5-2-6-12-16/h1-14H
Instrument: Q Exactive Plus Orbitrap Thermo Scientific
Instrument type: LC-ESI-QFT
Ms type: MS2
Ion mode: POSITIVE
Ionization: ESI
Fragmentation mode: HCD
Collision energy: 15 (nominal)
Resolution: 35000
Column name: XBridge C18 3.5um, 2.1x50mm, Waters
Retention time: 12.9 min
Base peak: 225.054
Precursor m/z: 319.0965
Precursor type: [M+H]+
m/z	relative intensity	assigned
77.0385	11	C6H5+
225.0545	999	C14H9O3+
