Mass spectrum: Imatinib; LC-ESI-QFT; MS2; CE: 120; R=35000; [M+H]+
Name: Imatinib
Name: 4-[(4-methylpiperazin-1-yl)methyl]-N-[4-methyl-3-[(4-pyridin-3-ylpyrimidin-2-yl)amino]phenyl]benzamide
Formula: C29H31N7O
Exact mass: 493.25901
SMILES: CC1=C(C=C(C=C1)NC(=O)C2=CC=C(C=C2)CN3CCN(CC3)C)NC4=NC=CC(=N4)C5=CN=CC=C5
InChI: InChI=1S/C29H31N7O/c1-21-5-10-25(18-27(21)34-29-31-13-11-26(33-29)24-4-3-12-30-19-24)32-28(37)23-8-6-22(7-9-23)20-36-16-14-35(2)15-17-36/h3-13,18-19H,14-17,20H2,1-2H3,(H,32,37)(H,31,33,34)
Instrument: Q Exactive Plus Orbitrap Thermo Scientific
Instrument type: LC-ESI-QFT
Ms type: MS2
Ion mode: POSITIVE
Ionization: ESI
Fragmentation mode: HCD
Collision energy: 120 (nominal)
Resolution: 35000
Column name: XBridge C18 3.5um, 2.1x50mm, Waters
Retention time: 5.8 min
Base peak: 247.6364
Precursor m/z: 494.2663
Precursor type: [M+H]+
m/z	relative intensity	assigned
50.0151	86	C4H2+
51.0229	69	C4H3+
52.0182	85	C3H2N+
53.0386	94	C4H5+
54.0338	16	C3H4N+
55.0178	6	C3H3O+
55.0417	16	C3H5N+
56.0495	211	C3H6N+
57.0573	11	C3H7N+
58.0651	755	C3H8N+
61.0072	3	C5H+
62.0151	16	C5H2+
63.0229	94	C5H3+
64.0307	41	C5H4+
65.0386	273	C5H5+
66.0464	155	C5H6+
67.029	11	C3H3N2+
67.0416	17	C4H5N+
67.0542	3	C5H7+
68.0257	4	C4H4O+
68.0494	29	C4H6N+
69.0447	26	C3H5N2+
70.0651	327	C4H8N+
71.0603	2	C3H7N2+
72.0807	24	C4H10N+
74.0151	3	C6H2+
75.0228	26	C6H3+
76.0181	14	C5H2N+
76.0306	4	C6H4+
77.0385	96	C6H5+
78.0338	216	C5H4N+
78.0464	17	C6H6+
79.0415	53	C5H5N+
79.0541	33	C6H7+
80.0494	106	C5H6N+
81.0335	13	C5H5O+
81.0448	4	C4H5N2+
82.0525	13	C4H6N2+
82.0651	26	C5H8N+
83.0603	134	C4H7N2+
84.0682	45	C4H8N2+
85.0758	3	C4H9N2+
88.0181	3	C6H2N+
89.0386	999	C7H5+
90.0464	654	C7H6+
91.0542	514	C7H7+
92.0493	28	C6H6N+
93.0335	4	C6H5O+
93.0447	3	C5H5N2+
93.0573	12	C6H7N+
94.0413	20	C6H6O+
94.0651	16	C6H8N+
95.0491	303	C6H7O+
96.0444	266	C5H6NO+
97.076	62	C5H9N2+
98.0839	50	C5H10N2+
102.0337	35	C7H4N+
102.0464	40	C8H6+
103.0289	7	C6H3N2+
103.0417	39	C7H5N+
103.0542	111	C8H7+
104.0494	449	C7H6N+
105.0335	69	C7H5O+
105.0447	307	C6H5N2+
106.0652	4	C7H8N+
107.0491	5	C7H7O+
109.0648	14	C7H9O+
110.06	7	C6H8NO+
111.0314	17	C5H5NO2+
111.0917	5	C6H11N2+
114.0338	12	C8H4N+
115.0542	159	C9H7+
116.0494	69	C8H6N+
116.0622	5	C9H8+
117.0446	11	C7H5N2+
117.0573	102	C8H7N+
118.0413	12	C8H6O+
118.0524	12	C7H6N2+
118.065	26	C8H8N+
119.0493	7	C8H7O+
119.0604	39	C7H7N2+
120.0443	26	C7H6NO+
121.0395	18	C6H5N2O+
121.0758	4	C7H9N2+
122.0361	80	C7H6O2+
126.0464	17	C10H6+
127.0541	22	C10H7+
128.0494	31	C9H6N+
128.062	84	C10H8+
129.0447	128	C8H5N2+
129.0572	65	C9H7N+
129.0697	12	C10H9+
130.04	47	C7H4N3+
130.0525	26	C8H6N2+
130.0651	51	C9H8N+
131.0496	22	C9H7O+
131.0604	304	C8H7N2+
132.0443	6	C8H6NO+
132.0682	11	C8H8N2+
132.0808	4	C9H10N+
134.0599	12	C8H8NO+
139.0542	78	C11H7+
140.0495	87	C10H6N+
140.0619	14	C11H8+
141.0574	7	C10H7N+
141.0697	64	C11H9+
142.0526	24	C9H6N2+
142.0649	22	C10H8N+
143.0604	7	C9H7N2+
143.0729	7	C10H9N+
144.056	10	C8H6N3+
144.0808	6	C10H10N+
145.0643	17	C10H9O+
145.0761	6	C9H9N2+
146.06	7	C9H8NO+
146.0711	5	C8H8N3+
147.0552	25	C8H7N2O+
150.0464	64	C12H6+
151.0541	64	C12H7+
152.062	730	C12H8+
153.0573	90	C11H7N+
153.0699	95	C12H9+
154.0651	67	C11H8N+
155.049	12	C11H7O+
155.0604	58	C10H7N2+
156.0556	135	C9H6N3+
157.0636	3	C9H7N3+
160.0757	4	C10H10NO+
161.047	48	C9H7NO2+
163.0541	72	C13H7+
164.0495	71	C12H6N+
164.0618	69	C13H8+
165.0699	768	C13H9+
166.0651	133	C12H8N+
166.0773	32	C13H10+
167.0729	261	C12H9N+
167.0852	22	C13H11+
168.0569	55	C12H8O+
168.0807	75	C12H10N+
169.0647	324	C12H9O+
170.06	33	C11H8NO+
170.0713	13	C10H8N3+
171.0548	3	C10H7N2O+
171.0665	20	C9H7N4+
174.0465	6	C14H6+
174.0658	15	C9H8N3O+
175.0419	4	C13H5N+
175.0544	14	C14H7+
176.0493	17	C13H6N+
176.062	209	C14H8+
177.0573	510	C13H7N+
177.0691	102	C14H9+
178.0524	25	C12H6N2+
178.0652	482	C13H8N+
178.0774	281	C14H10+
179.0602	190	C12H7N2+
179.0729	191	C13H9N+
179.0847	21	C14H11+
180.0557	18	C11H6N3+
180.068	14	C12H8N2+
180.0807	151	C13H10N+
181.0642	7	C13H9O+
181.076	14	C12H9N2+
181.0883	19	C13H11N+
182.06	21	C12H8NO+
182.0719	4	C13H10O+
182.0964	32	C13H12N+
183.0677	5	C12H9NO+
183.0803	7	C13H11O+
184.0755	13	C12H10NO+
185.0471	16	C11H7NO2+
188.0493	64	C14H6N+
189.045	4	C13H5N2+
189.057	23	C14H7N+
189.0694	4	C15H9+
190.0651	416	C14H8N+
191.0604	45	C13H7N2+
191.0729	359	C14H9N+
192.068	91	C13H8N2+
192.0806	293	C14H10N+
193.0525	21	C13H7NO+
193.0647	25	C14H9O+
193.0759	89	C13H9N2+
193.0885	157	C14H11N+
194.0599	82	C13H8NO+
194.0838	43	C13H10N2+
194.0963	154	C14H12N+
195.0553	16	C12H7N2O+
195.0677	20	C13H9NO+
195.0812	3	C14H11O+
195.0916	44	C13H11N2+
196.0517	16	C13H8O2+
196.0758	61	C13H10NO+
197.0829	4	C13H11NO+
201.0572	84	C15H7N+
202.0524	18	C14H6N2+
202.0651	58	C15H8N+
203.0602	197	C14H7N2+
203.0728	163	C15H9N+
204.0557	56	C13H6N3+
204.0682	153	C14H8N2+
204.0805	55	C15H10N+
205.0761	274	C14H9N2+
206.06	66	C14H8NO+
206.0711	32	C13H8N3+
206.0838	26	C14H10N2+
207.0675	39	C14H9NO+
207.0791	13	C13H9N3+
207.0914	15	C14H11N2+
208.0629	15	C13H8N2O+
208.0754	39	C14H10NO+
208.0859	6	C13H10N3+
208.0993	16	C14H12N2+
209.0475	6	C13H7NO2+
209.0706	6	C13H9N2O+
209.0821	4	C12H9N4+
209.1073	50	C14H13N2+
210.0913	30	C14H12NO+
211.0631	6	C13H9NO2+
214.0652	7	C16H8N+
215.0605	45	C15H7N2+
216.0682	86	C15H8N2+
217.0761	250	C15H9N2+
218.0714	19	C14H8N3+
218.0839	235	C15H10N2+
219.0676	33	C15H9NO+
219.0796	6	C14H9N3+
219.0916	131	C15H11N2+
220.0755	104	C15H10NO+
220.0868	63	C14H10N3+
221.0472	13	C14H7NO2+
221.0708	108	C14H9N2O+
221.0824	27	C13H9N4+
222.0789	19	C14H10N2O+
222.091	82	C15H12NO+
223.087	9	C14H11N2O+
227.0604	3	C16H7N2+
228.0682	31	C16H8N2+
229.076	72	C16H9N2+
230.0714	101	C15H8N3+
230.0827	9	C16H10N2+
231.0557	39	C15H7N2O+
231.0671	6	C14H7N4+
231.079	38	C15H9N3+
231.0917	15	C16H11N2+
232.0636	29	C15H8N2O+
232.0743	12	C14H8N4+
232.0869	18	C15H10N3+
233.0708	34	C15H9N2O+
233.082	59	C14H9N4+
234.09	56	C14H10N4+
234.1016	4	C15H12N3+
235.0867	6	C15H11N2O+
235.098	7	C14H11N4+
236.0578	14	C12H6N5O+
236.0683	3	C13H8N4O+
237.1022	16	C15H13N2O+
240.0563	4	C16H6N3+
241.0633	17	C16H7N3+
242.0723	3	C16H8N3+
242.0837	18	C17H10N2+
243.0675	5	C17H9NO+
243.079	23	C16H9N3+
244.0741	44	C15H8N4+
244.0867	35	C16H10N3+
244.0985	5	C17H12N2+
245.0707	41	C16H9N2O+
245.0822	30	C15H9N4+
245.0952	10	C16H11N3+
246.067	7	C15H8N3O+
246.0788	31	C16H10N2O+
246.0901	4	C15H10N4+
247.0865	34	C16H11N2O+
248.0823	23	C15H10N3O+
251.0824	4	C15H11N2O2+
253.0756	4	C18H9N2+
254.0709	26	C17H8N3+
255.0666	4	C16H7N4+
255.0792	12	C17H9N3+
255.0915	5	C18H11N2+
256.0742	6	C16H8N4+
256.0866	17	C17H10N3+
256.0986	3	C18H12N2+
257.0704	4	C17H9N2O+
257.082	24	C16H9N4+
258.0662	5	C16H8N3O+
258.0786	3	C17H10N2O+
258.0899	19	C16H10N4+
258.102	3	C17H12N3+
259.0747	22	C16H9N3O+
259.0975	60	C16H11N4+
260.093	16	C15H10N5+
261.1012	4	C15H11N5+
262.0973	3	C16H12N3O+
263.0924	3	C15H11N4O+
266.0836	6	C19H10N2+
267.0787	5	C18H9N3+
267.0914	5	C19H11N2+
268.0868	12	C18H10N3+
272.0813	13	C17H10N3O+
274.1087	11	C16H12N5+
279.0913	13	C20H11N2+
280.0872	21	C19H10N3+
281.0945	4	C19H11N3+
291.0786	11	C20H9N3+
292.0874	9	C20H10N3+
293.0942	10	C20H11N3+
294.1021	12	C20H12N3+
304.0871	16	C21H10N3+
305.0943	13	C21H11N3+
306.1041	30	C21H12N3+
307.0969	33	C20H11N4+
307.1103	3	C21H13N3+
308.1049	19	C20H12N4+
308.1198	6	C23H16O+
309.113	5	C20H13N4+
318.0888	13	C21H10N4+
319.0973	14	C21H11N4+
320.1054	13	C21H12N4+
321.113	31	C21H13N4+
322.1205	3	C21H14N4+
331.0975	33	C22H11N4+
332.1043	18	C22H12N4+
335.0941	4	C21H11N4O+
346.1091	5	C22H12N5+
349.1084	11	C22H13N4O+
350.1179	3	C22H14N4O+
359.1155	6	C23H13N5+
360.125	3	C23H14N5+
362.1026	12	C22H12N5O+
376.1197	15	C23H14N5O+
378.1343	4	C23H16N5O+
