Mass spectrum: Sulfadiazine; LC-ESI-ITFT; MS2; CE: 75%; R=7500; [M+H]+
Name: Sulfadiazine
Name: 4-amino-N-(2-pyrimidinyl)benzenesulfonamide
Formula: C10H10N4O2S
Exact mass: 250.0524
SMILES: NC1=CC=C(C=C1)S(=O)(=O)NC2=NC=CC=N2
InChI: InChI=1S/C10H10N4O2S/c11-8-2-4-9(5-3-8)17(15,16)14-10-12-6-1-7-13-10/h1-7H,11H2,(H,12,13,14)
Instrument: LTQ Orbitrap XL Thermo Scientific
Instrument type: LC-ESI-ITFT
Ms type: MS2
Ion mode: POSITIVE
Ionization: ESI
Fragmentation mode: HCD
Collision energy: 75 % (nominal)
Resolution: 7500
Column name: XBridge C18 3.5um, 2.1x50mm, Waters
Retention time: 2.2 min
Base peak: 251.0602
Precursor m/z: 251.0597
Precursor type: [M+H]+
m/z	relative intensity	assigned
65.0385	365	C5H5+
68.0494	72	C4H6N+
80.0495	47	C5H6N+
92.0494	955	C6H6N+
93.0572	17	C6H7N+
94.0652	26	C6H8N+
96.0556	323	C4H6N3+
108.0443	999	C6H6NO+
110.06	81	C6H8NO+
147.0352	16	C5H9NO2S+
156.0114	19	C6H6NO2S+
158.0022	22	C4H4N3O2S+
185.0819	23	C10H9N4+
