Mass spectrum: Diatrizoate; LC-ESI-ITFT; MS2; CE: 30%; R=15000; [M+H]+
Name: Diatrizoate
Name: Diatrizoic acid
Name: 3,5-diacetamido-2,4,6-triiodo-benzoic acid
Formula: C11H9I3N2O4
Exact mass: 613.7697
SMILES: CC(=O)NC1=C(I)C(C(O)=O)=C(I)C(NC(C)=O)=C1I
InChI: InChI=1S/C11H9I3N2O4/c1-3(17)15-9-6(12)5(11(19)20)7(13)10(8(9)14)16-4(2)18/h1-2H3,(H,15,17)(H,16,18)(H,19,20)
Instrument: LTQ Orbitrap XL Thermo Scientific
Instrument type: LC-ESI-ITFT
Ms type: MS2
Ion mode: POSITIVE
Ionization: ESI
Fragmentation mode: HCD
Collision energy: 30 % (nominal)
Resolution: 15000
Column name: XBridge C18 3.5um, 2.1x50mm, Waters
Retention time: 1.6 min
Base peak: 631.8031
Precursor m/z: 614.7769
Precursor type: [M+H]+
m/z	relative intensity	assigned
192.0527	48	C9H8N2O3+
219.0402	11	C10H7N2O4+
233.0554	709	C11H9N2O4+
234.0633	11	C11H10N2O4+
293.8994	19	C5HIN3O4+
318.9565	22	C9H8IN2O3+
325.9539	8	C11H7IN2O2+
342.9573	10	C11H8IN2O3+
360.9677	999	C11H10IN2O4+
