Mass spectrum: Atorvastatin; LC-ESI-ITFT; MS2; CE: 75%; R=15000; [M+H]+
Name: Atorvastatin
Name: (3R,5R)-7-[3-(anilinocarbonyl)-5-(4-fluorophenyl)-2-isopropyl-4-phenyl-1H-pyrrol-1-yl]-3,5-dihydroxyheptanoic acid
Name: (3R,5R)-7-[2-(4-fluorophenyl)-3-phenyl-4-(phenylcarbamoyl)-5-propan-2-yl-pyrrol-1-yl]-3,5-bis(oxidanyl)heptanoic acid
Formula: C33H35FN2O5
Exact mass: 558.2530
SMILES: c1(c(n(CC[C@H](C[C@H](CC(=O)O)O)O)c(c1C(Nc1ccccc1)=O)C(C)C)c1ccc(F)cc1)c1ccccc1
InChI: InChI=1S/C33H35FN2O5/c1-21(2)31-30(33(41)35-25-11-7-4-8-12-25)29(22-9-5-3-6-10-22)32(23-13-15-24(34)16-14-23)36(31)18-17-26(37)19-27(38)20-28(39)40/h3-16,21,26-27,37-38H,17-20H2,1-2H3,(H,35,41)(H,39,40)/t26-,27-/m1/s1
Instrument: LTQ Orbitrap XL Thermo Scientific
Instrument type: LC-ESI-ITFT
Ms type: MS2
Ion mode: POSITIVE
Ionization: ESI
Fragmentation mode: HCD
Collision energy: 75 % (nominal)
Resolution: 15000
Column name: XBridge C18 3.5um, 2.1x50mm, Waters
Retention time: 12.4 min
Base peak: 559.2616
Precursor m/z: 559.2603
Precursor type: [M+H]+
m/z	relative intensity	assigned
77.0387	66	C6H5+
83.0493	26	C5H7O+
92.0496	81	C6H6N+
96.0051	16	CH4O5+
104.0494	34	C7H6N+
115.0542	64	C9H7+
117.0576	26	C8H7N+
122.0399	43	C7H5FN+
129.0696	34	C10H9+
133.0446	50	C9H6F+
154.0652	67	C11H8N+
155.0605	56	C10H7N2+
172.0558	51	C11H7FN+
202.0778	31	C16H10+
203.0856	62	C16H11+
209.076	74	C15H10F+
222.0722	34	C15H9FN+
223.0916	33	C16H12F+
230.0958	50	C17H12N+
233.0761	176	C17H10F+
235.0791	206	C16H10FN+
236.0874	41	C16H11FN+
237.0947	45	C16H12FN+
238.103	86	C16H13FN+
248.0869	307	C17H11FN+
249.095	212	C17H12FN+
250.1027	999	C17H13FN+
261.0946	91	C18H12FN+
262.1027	137	C18H13FN+
263.1097	57	C18H14FN+
264.0822	71	C17H11FNO+
264.1181	64	C18H15FN+
274.1026	71	C19H13FN+
275.1101	34	C19H14FN+
276.0819	48	C18H11FNO+
276.1184	380	C19H15FN+
277.1253	26	C19H16FN+
288.1182	43	C20H15FN+
290.1344	41	C20H17FN+
302.1333	40	C21H17FN+
318.1304	24	C21H17FNO+
353.2739	21	C21H36FNO2+
