Mass spectrum: Sulisobenzone; LC-ESI-QFT; MS2; CE: 90%; R=15000; [M+H]+
Name: Sulisobenzone
Name: 5-benzoyl-4-hydroxy-2-methoxybenzenesulfonic acid
Formula: C14H12O6S
Exact mass: 308.0355
SMILES: COC1=C(C=C(C(=C1)O)C(=O)C2=CC=CC=C2)S(=O)(=O)O
InChI: InChI=1S/C14H12O6S/c1-20-12-8-11(15)10(7-13(12)21(17,18)19)14(16)9-5-3-2-4-6-9/h2-8,15H,1H3,(H,17,18,19)
Instrument: Orbitrap Exploris 240 Thermo Scientific
Instrument type: LC-ESI-QFT
Ms type: MS2
Ion mode: POSITIVE
Ionization: ESI
Fragmentation mode: HCD
Collision energy: 90 % (nominal)
Resolution: 15000
Column name: Atlantis C18 3um, 3.0x150mm, Waters
Retention time: 21.459 min
Base peak: 301.141
Precursor m/z: 309.0427
Precursor type: [M+H]+
Precursor intensity: 2643682.25
m/z	relative intensity	assigned
51.023	133	C4H3+
53.0021	171	C3HO+
53.0388	58	C4H5+
55.0179	94	C3H3O+
65.0386	58	C5H5+
68.9972	153	C3HO2+
77.0387	190	C6H5+
79.0178	999	C5H3O+
94.0414	118	C6H6O+
95.0492	269	C6H7O+
97.0284	329	C5H5O2+
105.0339	268	C7H5O+
107.0127	440	C6H3O2+
120.0204	188	C7H4O2+
121.0287	297	C7H5O2+
121.0388	53	
124.0154	99	C6H4O3+
125.0236	114	C6H5O3+
135.0077	739	C7H3O3+
151.0392	84	C8H7O3+
198.9697	74	C7H3O5S+
