Mass spectrum: Climbazol; LC-ESI-ITFT; MS2; CE: 30%; R=15000; [M+H]+
Name: Climbazol
Name: Climbazole
Name: 1-(4-chloranylphenoxy)-1-imidazol-1-yl-3,3-dimethyl-butan-2-one
Formula: C15H17ClN2O2
Exact mass: 292.0979
SMILES: CC(C)(C)C(=O)C(N1C=CN=C1)OC2=CC=C(C=C2)Cl
InChI: InChI=1S/C15H17ClN2O2/c1-15(2,3)13(19)14(18-9-8-17-10-18)20-12-6-4-11(16)5-7-12/h4-10,14H,1-3H3
Instrument: LTQ Orbitrap XL Thermo Scientific
Instrument type: LC-ESI-ITFT
Ms type: MS2
Ion mode: POSITIVE
Ionization: ESI
Fragmentation mode: HCD
Collision energy: 30 % (nominal)
Resolution: 15000
Column name: XBridge C18 3.5um, 2.1x50mm, Waters
Retention time: 8.1 min
Base peak: 293.1064
Precursor m/z: 293.1051
Precursor type: [M+H]+
m/z	relative intensity	assigned
57.0698	21	C4H9+
67.0542	3	C5H7+
69.0699	173	C5H9+
82.0525	40	C4H6N2+
109.0396	34	C5H5N2O+
113.0155	6	C6H6Cl+
115.0752	18	C6H11O2+
124.0633	5	C6H8N2O+
129.0102	47	C6H6ClO+
137.1073	37	C8H13N2+
141.0101	70	C7H6ClO+
155.0258	36	C8H8ClO+
161.0965	3	C11H13O+
166.11	33	C9H14N2O+
197.0728	999	C11H14ClO+
225.0675	47	C12H14ClO2+
293.1054	685	C15H18ClN2O2+
