Mass spectrum: Etrimfos; LC-ESI-QFT; MS2; CE: 45%; R=17500; [M+H]+
Name: Etrimfos
Name: (6-ethoxy-2-ethylpyrimidin-4-yl)oxy-dimethoxy-sulfanylidene-lambda5-phosphane
Formula: C10H17N2O4PS
Exact mass: 292.0647
SMILES: CCC1=NC(=CC(=N1)OP(=S)(OC)OC)OCC
InChI: InChI=1S/C10H17N2O4PS/c1-5-8-11-9(15-6-2)7-10(12-8)16-17(18,13-3)14-4/h7H,5-6H2,1-4H3
Instrument: Exploris 240 Orbitrap Thermo Scientific
Instrument type: LC-ESI-QFT
Ms type: MS2
Ion mode: POSITIVE
Ionization: ESI
Fragmentation mode: HCD
Collision energy: 45 % (nominal)
Resolution: 17500
Column name: XBridge C18 3.5um, 2.1x50mm, Waters
Retention time: 10.931 min
Base peak: 293.0719
Precursor m/z: 293.0719
Precursor type: [M+H]+
m/z	relative intensity	assigned
56.0496	89	C3H6N+
68.0132	34	C3H2NO+
78.9945	43	CH4O2P+
84.0809	98	C5H10N+
109.0053	30	C2H6O3P+
110.9665	10	CH4O2PS+
123.0553	83	C6H7N2O+
124.9822	999	C2H6O2PS+
127.0156	43	C2H8O4P+
142.9929	400	C2H8O3PS+
151.0868	10	C2H17NO4S+
155.0814	48	C7H11N2O2+
157.0081	45	C3H10O3PS+
164.0473	138	C5H11NO3P+
166.9927	17	C4H8O3PS+
181.0745	51	C5H14N2O3P+
233.0145	155	C7H10N2O3PS+
265.0409	525	C8H14N2O4PS+
293.0718	66	C10H18N2O4PS+
