Mass spectrum: Metominostrobin; LC-ESI-QFT; MS2; CE: 120%; R=17500; [M+H]+
Name: Metominostrobin
Name: N-methyl-2-(2-phenoxyphenyl)-2-methoxyiminoacetamide
Name: 2-methoxyimino-N-methyl-2-(2-phenoxyphenyl)acetamide
Formula: C16H16N2O3
Exact mass: 284.1161
SMILES: CNC(=O)C(=NOC)C1=CC=CC=C1OC2=CC=CC=C2
InChI: InChI=1S/C16H16N2O3/c1-17-16(19)15(18-20-2)13-10-6-7-11-14(13)21-12-8-4-3-5-9-12/h3-11H,1-2H3,(H,17,19)
Instrument: Exploris 240 Orbitrap Thermo Scientific
Instrument type: LC-ESI-QFT
Ms type: MS2
Ion mode: POSITIVE
Ionization: ESI
Fragmentation mode: HCD
Collision energy: 120 % (nominal)
Resolution: 17500
Column name: XBridge C18 3.5um, 2.1x50mm, Waters
Retention time: 7.515 min
Base peak: 285.1232
Precursor m/z: 285.1234
Precursor type: [M+H]+
m/z	relative intensity	assigned
50.0153	21	C4H2+
51.023	126	C4H3+
53.0386	33	C4H5+
58.0288	112	C2H4NO+
63.023	34	C5H3+
64.0308	25	C5H4+
65.0387	38	C5H5+
76.0307	45	C6H4+
77.0386	216	C6H5+
78.0465	33	C6H6+
89.0388	58	C7H5+
90.0335	17	C6H4N+
92.0258	49	C6H4O+
95.0492	34	C6H7O+
105.0448	52	C6H5N2+
113.0386	162	C9H5+
114.0342	21	C8H4N+
115.0543	197	C9H7+
116.0492	61	C8H6N+
138.0466	27	C11H6+
139.0543	754	C11H7+
140.0496	999	C10H6N+
164.0498	85	C12H6N+
166.0652	77	C12H8N+
167.0734	25	C12H9N+
168.0575	14	C12H8O+
193.0523	78	C13H7NO+
