Mass spectrum: Flunitrazepam; LC-ESI-QFT; MS2; CE: 45; R=35000; [M+H]+
Name: Flunitrazepam
Name: 5-(2-fluorophenyl)-1-methyl-7-nitro-3H-1,4-benzodiazepin-2-one
Formula: C16H12FN3O3
Exact mass: 313.08627
SMILES: CN1C(=O)CN=C(C2=C1C=CC(=C2)[N+](=O)[O-])C3=CC=CC=C3F
InChI: InChI=1S/C16H12FN3O3/c1-19-14-7-6-10(20(22)23)8-12(14)16(18-9-15(19)21)11-4-2-3-5-13(11)17/h2-8H,9H2,1H3
Instrument: Q Exactive Plus Orbitrap Thermo Scientific
Instrument type: LC-ESI-QFT
Ms type: MS2
Ion mode: POSITIVE
Ionization: ESI
Fragmentation mode: HCD
Collision energy: 45 (nominal)
Resolution: 35000
Column name: XBridge C18 3.5um, 2.1x50mm, Waters
Retention time: 7.9 min
Base peak: 314.0927
Precursor m/z: 314.0935
Precursor type: [M+H]+
m/z	relative intensity	assigned
58.0287	4	C2H4NO+
80.0494	3	C5H6N+
92.0493	2	C6H6N+
94.0652	4	C6H8N+
107.0729	5	C7H9N+
109.0448	7	C7H6F+
117.0572	2	C8H7N+
118.065	1	C8H8N+
119.0605	2	C7H7N2+
119.0729	9	C8H9N+
120.0682	1	C7H8N2+
121.0759	1	C7H9N2+
123.024	13	C7H4FO+
133.052	1	C8H7NO+
134.04	1	C8H5FN+
143.0604	1	C9H7N2+
144.0683	2	C9H8N2+
147.0678	13	C9H9NO+
148.0392	1	C8H6NO2+
151.0626	1	C8H9NO2+
165.0659	31	C8H9N2O2+
172.0629	8	C10H8N2O+
179.0579	2	C9H9NO3+
183.06	4	C13H8F+
190.0611	7	C9H8N3O2+
191.0451	12	C9H7N2O3+
193.0608	19	C9H9N2O3+
193.0884	1	C14H11N+
197.0635	9	C13H8FN+
198.0713	3	C13H9FN+
199.055	2	C13H8FO+
199.0792	8	C13H10FN+
201.0529	2	C10H7N3O2+
205.076	5	C14H9N2+
210.0714	22	C14H9FN+
211.0792	54	C14H10FN+
212.087	9	C14H11FN+
213.0822	5	C13H10FN2+
213.0948	2	C14H12FN+
214.0662	6	C13H9FNO+
219.0916	3	C15H11N2+
220.0994	3	C15H12N2+
221.1073	6	C15H13N2+
225.0824	7	C14H10FN2+
226.0662	1	C14H9FNO+
227.0744	7	C14H10FNO+
227.0979	18	C14H12FN2+
228.0819	18	C14H11FNO+
228.1056	12	C14H13FN2+
235.0869	1	C15H11N2O+
238.0898	2	C15H11FN2+
239.0979	75	C15H12FN2+
240.0695	31	C14H9FN2O+
240.1057	86	C15H13FN2+
241.077	2	C14H10FN2O+
241.0898	1	C15H12FNO+
243.0688	3	C14H10FNO2+
243.0927	3	C14H12FN2O+
245.0724	1	C13H10FN2O2+
246.0565	2	C13H9FNO3+
249.1023	1	C16H13N2O+
255.0929	6	C15H12FN2O+
256.1006	20	C15H13FN2O+
257.0721	35	C14H10FN2O2+
259.0881	3	C14H12FN2O2+
267.0928	32	C16H12FN2O+
268.1006	999	C16H13FN2O+
269.0957	1	C15H12FN3O+
270.0672	9	C14H9FN3O2+
271.0877	5	C15H12FN2O2+
272.0954	17	C15H13FN2O2+
283.0876	15	C16H12FN2O2+
284.0827	4	C15H11FN3O2+
284.0962	1	C16H13FN2O2+
285.0906	4	C15H12FN3O2+
286.0986	97	C15H13FN3O2+
300.0905	359	C16H13FN2O3+
302.0945	1	C15H13FN3O3+
314.0934	711	C16H13FN3O3+
