Mass spectrum: Fluconazole; LC-ESI-ITFT; MS2; CE: 90%; R=7500; [M+H]+
Name: Fluconazole
Name: 2-(2,4-difluorophenyl)-1,3-bis(1,2,4-triazol-1-yl)-2-propanol
Formula: C13H12F2N6O
Exact mass: 306.1041
SMILES: OC(CN1C=NC=N1)(CN2C=NC=N2)C3=C(F)C=C(F)C=C3
InChI: InChI=1S/C13H12F2N6O/c14-10-1-2-11(12(15)3-10)13(22,4-20-8-16-6-18-20)5-21-9-17-7-19-21/h1-3,6-9,22H,4-5H2
Instrument: LTQ Orbitrap XL Thermo Scientific
Instrument type: LC-ESI-ITFT
Ms type: MS2
Ion mode: POSITIVE
Ionization: ESI
Fragmentation mode: HCD
Collision energy: 90 % (nominal)
Resolution: 7500
Column name: XBridge C18 3.5um, 2.1x50mm, Waters
Retention time: 5.3 min
Base peak: 307.1126
Precursor m/z: 307.1113
Precursor type: [M+H]+
m/z	relative intensity	assigned
55.0179	28	C3H3O+
70.04	714	C2H4N3+
75.023	66	C6H3+
77.0387	76	C6H5+
82.0401	62	C3H4N3+
91.0542	34	C7H7+
101.0387	94	C8H5+
115.0354	30	C6H5F2+
119.0292	32	C8H4F+
119.0495	38	C8H7O+
121.0449	753	C8H6F+
127.0355	999	C7H5F2+
129.0448	861	C8H5N2+
139.0355	977	C8H5F2+
141.0145	149	C7H3F2O+
141.0261	28	C6H3F2N2+
141.051	238	C8H7F2+
146.0403	44	C9H5FN+
147.0354	416	C8H4FN2+
151.0355	927	C9H5F2+
166.0463	54	C9H6F2N+
169.0457	89	C9H7F2O+
173.0513	65	C10H6FN2+
