Mass spectrum: Trinexapac; LC-ESI-ITFT; MS2; CE: 75%; R=7500; [M+H]+
Name: Trinexapac
Name: 4-[Cyclopropyl(hydroxy)methylene]-3,5-dioxocyclohexanecarboxylic acid
Formula: C11H12O5
Exact mass: 224.0685
SMILES: C(C1)C1C(O)=C(C(=O)CC2C(=O)O)C(=O)C2
InChI: InChI=1S/C11H12O5/c12-7-3-6(11(15)16)4-8(13)9(7)10(14)5-1-2-5/h5-6,14H,1-4H2,(H,15,16)/b10-9-
Instrument: LTQ Orbitrap XL Thermo Scientific
Instrument type: LC-ESI-ITFT
Ms type: MS2
Ion mode: POSITIVE
Ionization: ESI
Fragmentation mode: HCD
Collision energy: 75 % (nominal)
Resolution: 7500
Column name: XBridge C18 3.5um, 2.1x50mm, Waters
Retention time: 6.9 min
Base peak: 225.0758
Precursor m/z: 225.0757
Precursor type: [M+H]+
m/z	relative intensity	assigned
53.002	11	C3HO+
53.0388	9	C4H5+
55.018	8	C3H3O+
65.0386	13	C5H5+
67.018	12	C4H3O+
68.9972	304	C3HO2+
69.0336	918	C4H5O+
71.0129	129	C3H3O2+
79.0545	13	C6H7+
81.0335	80	C5H5O+
83.0492	49	C5H7O+
85.0285	999	C4H5O2+
91.0546	19	C7H7+
93.0336	16	C6H5O+
95.0129	212	C5H3O2+
97.0285	59	C5H5O2+
99.0078	404	C4H3O3+
103.0543	6	C8H7+
105.0699	31	C8H9+
107.0493	117	C7H7O+
109.0285	70	C6H5O2+
109.0649	5	C7H9O+
111.0441	796	C6H7O2+
113.0235	392	C5H5O3+
119.049	9	C8H7O+
121.0285	12	C7H5O2+
121.0397	16	C6H5N2O+
123.0078	357	C6H3O3+
127.0391	10	C6H7O3+
133.065	35	C9H9O+
137.0234	160	C7H5O3+
137.0593	9	C8H9O2+
139.0391	12	C7H7O3+
141.0185	50	C6H5O4+
151.0397	8	C8H7O3+
155.034	49	C7H7O4+
159.0295	13	C6H7O5+
161.06	16	C10H9O2+
165.0184	69	C8H5O4+
179.0695	11	C10H11O3+
183.0291	29	C8H7O5+
