Mass spectrum: Antipyrine; LC-ESI-ITFT; MS2; CE: 75%; R=7500; [M+H]+
Name: Antipyrine
Name: Phenazone
Name: 1,5-dimethyl-2-phenyl-3-pyrazolone
Formula: C11H12N2O
Exact mass: 188.0950
SMILES: CN1N(C(=O)C=C1C)C2=CC=CC=C2
InChI: InChI=1S/C11H12N2O/c1-9-8-11(14)13(12(9)2)10-6-4-3-5-7-10/h3-8H,1-2H3
Instrument: LTQ Orbitrap XL Thermo Scientific
Instrument type: LC-ESI-ITFT
Ms type: MS2
Ion mode: POSITIVE
Ionization: ESI
Fragmentation mode: HCD
Collision energy: 75 % (nominal)
Resolution: 7500
Column name: XBridge C18 3.5um, 2.1x50mm, Waters
Retention time: 4.6 min
Base peak: 189.1027
Precursor m/z: 189.1022
Precursor type: [M+H]+
m/z	relative intensity	assigned
55.0178	10	C3H3O+
56.0495	320	C3H6N+
58.0652	243	C3H8N+
65.0386	69	C5H5+
68.0495	9	C4H6N+
69.0571	10	C4H7N+
70.0653	17	C4H8N+
77.0386	94	C6H5+
79.0543	21	C6H7+
81.0449	56	C4H5N2+
91.0542	70	C7H7+
92.0495	25	C6H6N+
93.0339	11	C6H5O+
94.0652	10	C6H8N+
95.0496	11	C6H7O+
95.0604	54	C5H7N2+
96.0446	12	C5H6NO+
96.0683	115	C5H8N2+
98.06	91	C5H8NO+
103.0541	47	C8H7+
104.0496	435	C7H6N+
105.0334	22	C7H5O+
105.0448	31	C6H5N2+
105.0577	8	C7H7N+
105.0699	25	C8H9+
106.0652	354	C7H8N+
115.0542	36	C9H7+
117.0573	59	C8H7N+
117.07	144	C9H9+
118.0653	198	C8H8N+
120.0808	155	C8H10N+
129.0574	16	C9H7N+
130.0651	221	C9H8N+
131.0604	40	C8H7N2+
131.073	197	C9H9N+
132.0683	23	C8H8N2+
132.0807	98	C9H10N+
133.0522	51	C8H7NO+
133.0762	26	C8H9N2+
134.0966	36	C9H12N+
143.0727	18	C10H9N+
144.0809	171	C10H10N+
145.0648	71	C10H9O+
145.0761	77	C9H9N2+
145.0886	13	C10H11N+
146.084	213	C9H10N2+
146.0967	40	C10H12N+
147.0918	370	C9H11N2+
148.0757	17	C9H10NO+
149.0713	28	C8H9N2O+
155.0604	7	C10H7N2+
157.0523	46	C10H7NO+
158.0601	11	C10H8NO+
159.0922	17	C10H11N2+
160.0994	18	C10H12N2+
161.1075	131	C10H13N2+
172.0756	38	C11H10NO+
173.0711	20	C10H9N2O+
174.0789	198	C10H10N2O+
189.1029	999	C11H13N2O+
