Mass spectrum: Tembotrione; LC-ESI-QFT; MS2; CE: 45; R=35000; [M+H]+
Name: Tembotrione
Name: 2-{2-Chloro-4-(methylsulfonyl)-3-[(2,2,2-trifluoroethoxy)methyl]benzoyl}-1,3-cyclohexanedione
Formula: C17H16ClF3O6S
Exact mass: 440.03082
SMILES: O=C(c1ccc(c(c1Cl)COCC(F)(F)F)S(=O)(=O)C)C2C(=O)CCCC2=O
InChI: InChI=1S/C17H16ClF3O6S/c1-28(25,26)13-6-5-9(15(18)10(13)7-27-8-17(19,20)21)16(24)14-11(22)3-2-4-12(14)23/h5-6,14H,2-4,7-8H2,1H3
Instrument: Q Exactive Orbitrap Thermo Scientific
Instrument type: LC-ESI-QFT
Ms type: MS2
Ion mode: POSITIVE
Ionization: ESI
Fragmentation mode: HCD
Collision energy: 45 (nominal)
Resolution: 35000
Column name: XBridge C18 3.5um, 2.1x50mm, Waters
Retention time: 9.9 min
Base peak: 458.0644
Precursor m/z: 441.0381
Precursor type: [M+H]+
m/z	relative intensity	assigned
121.0283	3	C7H5O2+
147.0442	1	C9H7O2+
149.023	4	C6H7F2S+
166.9891	22	C8H4ClO2+
178.0176	2	C10H7ClO+
184.9999	23	C6H8ClF2S+
197.0593	2	C13H9O2+
198.0671	1	C13H10O2+
199.0752	2	C13H11O2+
202.0621	15	C10H12F2S+
205.0411	5	C12H10ClO+
211.0057	3	C9H7O4S+
213.0543	2	C11H11F2S+
213.091	8	C14H13O2+
214.0622	6	C11H12F2S+
215.0255	1	C13H8ClO+
219.0206	3	C12H8ClO2+
220.0285	4	C12H9ClO2+
227.0701	8	C12H13F2S+
230.0572	14	C11H12F2OS+
232.0268	1	C11H8ClF3+
232.0377	3	C9H9FO6+
233.0363	30	C13H10ClO2+
240.0779	11	C13H14F2S+
241.0495	12	
241.0857	108	C13H15F2S+
242.0571	51	C12H12F2OS+
242.0934	21	C13H16F2S+
243.065	56	C12H13F2OS+
245.0445	9	C13H9O5+
246.0343	44	C13H10O3S+
246.0524	2	C13H10O5+
259.0601	3	C14H11O5+
260.0234	48	C14H9ClO3+
261.0312	148	C14H10ClO3+
262.0388	999	C12H13ClF2S+
272.0136	2	C14H8O4S+
277.0261	30	C12H12ClF2OS+
287.0372	2	C15H11O4S+
289.0163	17	C14H9O5S+
290.024	81	C14H10O5S+
291.0315	4	C14H11O5S+
305.0475	183	C15H13O5S+
341.0241	31	C15H14ClO5S+
