Mass spectrum: Nortriptyline; LC-ESI-QFT; MS2; CE: 90; R=35000; [M+H]+
Name: Nortriptyline
Name: 3-(5,6-dihydrodibenzo[2,1-b:2`,1`-f][7]annulen-11-ylidene)-N-methylpropan-1-amine
Formula: C19H21N
Exact mass: 263.16740
SMILES: CNCCC=C1C2=CC=CC=C2CCC3=CC=CC=C31
InChI: InChI=1S/C19H21N/c1-20-14-6-11-19-17-9-4-2-7-15(17)12-13-16-8-3-5-10-18(16)19/h2-5,7-11,20H,6,12-14H2,1H3
Instrument: Q Exactive Plus Orbitrap Thermo Scientific
Instrument type: LC-ESI-QFT
Ms type: MS2
Ion mode: POSITIVE
Ionization: ESI
Fragmentation mode: HCD
Collision energy: 90 (nominal)
Resolution: 35000
Column name: XBridge C18 3.5um, 2.1x50mm, Waters
Retention time: 8.5 min
Base peak: 264.1741
Precursor m/z: 264.1747
Precursor type: [M+H]+
m/z	relative intensity	assigned
50.015	4	C4H2+
53.0386	17	C4H5+
54.0338	1	C3H4N+
55.0542	5	C4H7+
56.0495	5	C3H6N+
63.0227	4	C5H3+
65.0386	87	C5H5+
67.0542	1	C5H7+
70.0651	120	C4H8N+
77.0385	42	C6H5+
79.0542	151	C6H7+
81.0335	1	C5H5O+
91.0542	999	C7H7+
95.0491	49	C6H7O+
103.0542	138	C8H7+
104.062	1	C8H8+
105.0447	36	C6H5N2+
105.0699	325	C8H9+
115.0542	390	C9H7+
116.062	12	C9H8+
117.0698	317	C9H9+
127.0542	16	C10H7+
128.062	132	C10H8+
129.0698	123	C10H9+
131.0855	3	C10H11+
139.054	2	C11H7+
140.062	1	C11H8+
141.0698	68	C11H9+
142.0776	6	C11H10+
143.073	2	C10H9N+
144.0809	4	C10H10N+
145.0647	21	C10H9O+
152.062	23	C12H8+
153.0699	67	C12H9+
154.0777	31	C12H10+
155.0603	64	C10H7N2+
155.0855	30	C12H11+
158.0962	3	C11H12N+
165.0699	90	C13H9+
166.0774	2	C13H10+
167.0856	2	C13H11+
176.0617	4	C14H8+
177.07	7	C14H9+
178.0777	352	C14H10+
179.0855	57	C14H11+
189.0698	145	C15H9+
190.0777	161	C15H10+
191.0855	319	C15H11+
192.0932	34	C15H12+
193.1012	7	C15H13+
201.0694	1	C16H9+
202.0777	223	C16H10+
203.0855	451	C16H11+
204.0934	107	C16H12+
205.1012	31	C16H13+
215.0856	60	C17H11+
216.0934	28	C17H12+
217.1012	185	C17H13+
218.109	34	C17H14+
229.1015	1	C18H13+
231.1168	3	C18H15+
