Mass spectrum: Ipconazole; LC-ESI-QFT; MS2; CE: 180%; R=17500; [M+H]+
Name: Ipconazole
Name: 2-[(4-chlorophenyl)methyl]-5-propan-2-yl-1-(1,2,4-triazol-1-ylmethyl)cyclopentan-1-ol
Formula: C18H24ClN3O
Exact mass: 333.1608
SMILES: CC(C)C1CCC(C1(CN2C=NC=N2)O)CC3=CC=C(C=C3)Cl
InChI: InChI=1S/C18H24ClN3O/c1-13(2)17-8-5-15(9-14-3-6-16(19)7-4-14)18(17,23)10-22-12-20-11-21-22/h3-4,6-7,11-13,15,17,23H,5,8-10H2,1-2H3
Instrument: Exploris 240 Orbitrap Thermo Scientific
Instrument type: LC-ESI-QFT
Ms type: MS2
Ion mode: POSITIVE
Ionization: ESI
Fragmentation mode: HCD
Collision energy: 180 % (nominal)
Resolution: 17500
Column name: XBridge C18 3.5um, 2.1x50mm, Waters
Retention time: 12.632 min
Base peak: 334.1677
Precursor m/z: 334.1681
Precursor type: [M+H]+
m/z	relative intensity	assigned
63.023	88	C5H3+
65.0385	21	C5H5+
70.04	999	C2H4N3+
72.9838	62	C3H2Cl+
89.0386	154	C7H5+
90.0464	50	C7H6+
98.9994	72	C5H4Cl+
115.0545	44	C9H7+
125.0154	31	C7H6Cl+
