Mass spectrum: Isoxaben; LC-ESI-QFT; MS2; CE: 120; R=35000; [M-H]-
Name: Isoxaben
Name: 2,6-dimethoxy-N-[3-(3-methylpentan-3-yl)-1,2-oxazol-5-yl]benzamide
Formula: C18H24N2O4
Exact mass: 332.17361
SMILES: CCC(C)(CC)C1=NOC(=C1)NC(=O)C2=C(C=CC=C2OC)OC
InChI: InChI=1S/C18H24N2O4/c1-6-18(3,7-2)14-11-15(24-20-14)19-17(21)16-12(22-4)9-8-10-13(16)23-5/h8-11H,6-7H2,1-5H3,(H,19,21)
Instrument: Q Exactive Plus Orbitrap Thermo Scientific
Instrument type: LC-ESI-QFT
Ms type: MS2
Ion mode: NEGATIVE
Ionization: ESI
Fragmentation mode: HCD
Collision energy: 120 (nominal)
Resolution: 35000
Column name: XBridge C18 3.5um, 2.1x50mm, Waters
Retention time: 10.6 min
Base peak: 331.1659
Precursor m/z: 331.1663
Precursor type: [M-H]-
m/z	relative intensity	assigned
50.0034	8	C3N-
64.0067	19	C3N2-
65.0033	17	C4HO-
65.0146	87	C3HN2-
65.9985	999	C3NO-
66.035	81	C4H4N-
72.9933	8	C2HO3-
80.0268	18	C5H4O-
82.006	45	C4H2O2-
88.0192	46	C6H2N-
89.0269	39	C6H3N-
89.0398	28	C7H5-
90.0348	17	C6H4N-
91.0189	87	C6H3O-
92.0268	208	C6H4O-
93.0345	238	C6H5O-
95.0138	134	C5H3O2-
105.0219	256	C6H3NO-
108.0216	330	C6H4O2-
117.0217	12	C7H3NO-
117.0344	34	C8H5O-
118.0299	21	C7H4NO-
121.0295	511	C7H5O2-
132.0091	11	C7H2NO2-
133.0169	256	C7H3NO2-
133.0295	118	C8H5O2-
134.0247	12	C7H4NO2-
146.0248	13	C8H4NO2-
