Mass spectrum: Ceftazidime; LC-ESI-QFT; MS2; CE: 15; R=35000; [M+H]+
Name: Ceftazidime
Name: (6R,7R)-7-[[(2Z)-2-(2-amino-1,3-thiazol-4-yl)-2-(2-carboxypropan-2-yloxyimino)acetyl]amino]-8-oxo-3-(pyridin-1-ium-1-ylmethyl)-5-thia-1-azabicyclo[4.2.0]oct-2-ene-2-carboxylate
Formula: C22H22N6O7S2
Exact mass: 546.09914
SMILES: O=C2N1/C(=C(\CS[C@@H]1[C@@H]2NC(=O)C(=N\OC(C(=O)O)(C)C)/c3nc(sc3)N)C[n+]4ccccc4)C([O-])=O
InChI: InChI=1S/C22H22N6O7S2/c1-22(2,20(33)34)35-26-13(12-10-37-21(23)24-12)16(29)25-14-17(30)28-15(19(31)32)11(9-36-18(14)28)8-27-6-4-3-5-7-27/h3-7,10,14,18H,8-9H2,1-2H3,(H4-,23,24,25,29,31,32,33,34)/b26-13-/t14-,18-/m1/s1
Instrument: Q Exactive Orbitrap Thermo Scientific
Instrument type: LC-ESI-QFT
Ms type: MS2
Ion mode: POSITIVE
Ionization: ESI
Fragmentation mode: HCD
Collision energy: 15 (nominal)
Resolution: 35000
Column name: XBridge C18 3.5um, 2.1x50mm, Waters
Retention time: 3.4 min
Base peak: 274.0573
Precursor m/z: 547.1064
Precursor type: [M+H]+
m/z	relative intensity	assigned
59.0492	5	C3H7O+
80.0495	16	C5H6N+
107.0604	3	C6H7N2+
109.076	2	C6H9N2+
112.0215	17	C5H6NS+
126.0114	7	C4H4N3S+
139.0323	31	C6H7N2S+
140.0163	3	C6H6NOS+
140.0399	1	C6H8N2S+
141.0479	49	C6H9N2S+
142.0064	20	C4H4N3OS+
144.0228	1	C4H6N3OS+
151.0323	1	C7H7N2S+
152.04	1	C7H8N2S+
158.0267	1	C6H8NO2S+
167.0273	120	C7H7N2OS+
181.0177	4	C6H5N4OS+
182.0255	11	C6H6N4OS+
183.0334	1	C6H7N4OS+
185.0378	3	C7H9N2O2S+
195.0337	1	C7H7N4OS+
197.0123	5	C6H5N4O2S+
199.028	3	C6H7N4O2S+
210.0207	11	C7H6N4O2S+
211.0169	1	C8H7N2O3S+
217.0542	1	C10H9N4S+
232.0652	6	C10H10N5S+
233.0491	5	C10H9N4OS+
237.0257	1	C9H9N4S2+
243.0571	1	C11H9N5S+
244.0648	6	C11H10N5S+
245.0489	3	C11H9N4OS+
249.0263	38	C10H9N4S2+
260.0601	1	C11H10N5OS+
264.0371	9	C10H10N5S2+
265.0212	6	C10H9N4OS2+
274.0221	1	C12H6N2O6+
276.0373	22	C11H10N5S2+
277.0212	162	C10H5N4O6+
283.0495	10	C10H11N4O4S+
292.0319	15	C11H10N5OS2+
310.0426	76	
313.06	93	
321.0347	50	
368.0847	67	
396.0796	631	
424.0746	132	
440.0694	261	
468.0645	999	
