Mass spectrum: Capecitabine; LC-ESI-QFT; MS2; CE: 75; R=35000; [M+H]+
Name: Capecitabine
Name: (1-(5-Deoxy-beta-D-ribofuranosyl)-5-fluoro-1,2-dihydro-2-oxo-4-pyrimidinyl)-carbamic acid pentyl ester
Name: N-[1-[(2R,3R,4S,5R)-3,4-dihydroxy-5-methyl-2-oxolanyl]-5-fluoro-2-oxo-4-pyrimidinyl]carbamic acid pentyl ester
Formula: C15H22FN3O6
Exact mass: 359.14926
SMILES: FC=1\C(=N/C(=O)N(C=1)[C@@H]2O[C@@H]([C@@H](O)[C@H]2O)C)\NC(=O)OCCCCC
InChI: InChI=1S/C15H22FN3O6/c1-3-4-5-6-24-15(23)18-12-9(16)7-19(14(22)17-12)13-11(21)10(20)8(2)25-13/h7-8,10-11,13,20-21H,3-6H2,1-2H3,(H,17,18,22,23)/t8-,10-,11-,13-/m1/s1
Instrument: Q Exactive Orbitrap Thermo Scientific
Instrument type: LC-ESI-QFT
Ms type: MS2
Ion mode: POSITIVE
Ionization: ESI
Fragmentation mode: HCD
Collision energy: 75 (nominal)
Resolution: 35000
Column name: XBridge C18 3.5um, 2.1x50mm, Waters
Retention time: 7.8 min
Base peak: 360.1562
Precursor m/z: 360.1565
Precursor type: [M+H]+
m/z	relative intensity	assigned
53.0023	6	C3HO+
58.0087	1	C2HFN+
60.0244	1	C2H3FN+
71.0855	9	C5H11+
73.0284	12	C3H5O2+
85.0196	6	C3H2FN2+
87.0352	54	C3H4FN2+
112.0305	19	C4H3FN3+
113.0145	95	C4H2FN2O+
130.0411	999	C4H5FN3O+
131.0249	6	C4H4FN2O2+
156.0202	32	C5H3FN3O2+
174.0308	47	C5H5FN3O3+
204.0092	2	C10H3FNO3+
