Mass spectrum: Florfenicol; LC-ESI-QFT; MS2; CE: 75; R=35000; [M-H]-
Name: Florfenicol
Name: 2,2-dichloro-N-{3-fluoro-1-hydroxy-1-[4-(methylsulfonyl)phenyl]propan-2-yl}acetamide
Name: 2,2-dichloro-N-[3-fluoro-1-hydroxy-1-(4-methylsulfonylphenyl)propan-2-yl]acetamide
Formula: C12H14Cl2FNO4S
Exact mass: 357.00046
SMILES: CS(=O)(=O)C1=CC=C(C=C1)C(C(CF)NC(=O)C(Cl)Cl)O
InChI: InChI=1S/C12H14Cl2FNO4S/c1-21(19,20)8-4-2-7(3-5-8)10(17)9(6-15)16-12(18)11(13)14/h2-5,9-11,17H,6H2,1H3,(H,16,18)
Instrument: Q Exactive Plus Orbitrap Thermo Scientific
Instrument type: LC-ESI-QFT
Ms type: MS2
Ion mode: NEGATIVE
Ionization: ESI
Fragmentation mode: HCD
Collision energy: 75 (nominal)
Resolution: 35000
Column name: XBridge C18 3.5um, 2.1x50mm, Waters
Retention time: 4.6 min
Base peak: 355.9929
Precursor m/z: 355.9932
Precursor type: [M-H]-
m/z	relative intensity	assigned
63.9624	363	O2S-
78.9859	763	CH3O2S-
82.9461	196	CHCl2-
88.0206	1	C3H3FNO-
105.0345	30	C7H5O-
107.9413	1	C2Cl2N-
119.0502	999	C8H7O-
121.0295	266	C7H5O2-
121.066	15	C8H9O-
123.0452	1	C7H7O2-
130.0427	2	C9H6O-
139.9937	13	C6H4O2S-
144.0455	1	C9H6NO-
145.0295	2	C9H5O2-
145.0661	2	C10H9O-
146.0247	2	C8H4NO2-
149.0245	1	C8H5O3-
155.0173	63	C7H7O2S-
160.0402	1	C9H6NO2-
168.9965	336	C7H5O3S-
170.0042	28	C7H6O3S-
173.0484	1	C10H7NO2-
184.0199	1	C8H8O3S-
185.0276	12	C8H9O3S-
