Mass spectrum: Zolpidem carboxylic acid; LC-ESI-QFT; MS2; CE: 45%; R=17500; [M-H]-
Name: Zolpidem carboxylic acid
Name: 4-[3-[2-(dimethylamino)-2-oxoethyl]-6-methylimidazo[1,2-a]pyridin-2-yl]benzoic acid
Formula: C19H19N3O3
Exact mass: 337.1426415
SMILES: CC1=CN2C(=NC(=C2CC(=O)N(C)C)C3=CC=C(C=C3)C(=O)O)C=C1
InChI: InChI=1S/C19H19N3O3/c1-12-4-9-16-20-18(13-5-7-14(8-6-13)19(24)25)15(22(16)11-12)10-17(23)21(2)3/h4-9,11H,10H2,1-3H3,(H,24,25)
Instrument: Exploris 240 Orbitrap Thermo Scientific
Instrument type: LC-ESI-QFT
Ms type: MS2
Ion mode: NEGATIVE
Ionization: ESI
Fragmentation mode: HCD
Collision energy: 45 % (nominal)
Resolution: 17500
Column name: XBridge C18 3.5um, 2.1x50mm, Waters
Retention time: 3.302 min
Base peak: 336.1354
Precursor m/z: 336.1354
Precursor type: [M-H]-
m/z	relative intensity	assigned
72.0455	122	C3H6NO-
107.0617	92	C6H7N2-
207.0929	341	C14H11N2-
219.0929	327	C15H11N2-
221.1083	349	C15H13N2-
235.1251	117	C16H15N2-
247.088	874	C16H11N2O-
292.1457	999	C18H18N3O-
336.1359	60	C19H18N3O3-
