Mass spectrum: Indapamide; LC-ESI-QFT; MS2; CE: 30; R=35000; [M-H]-
Name: Indapamide
Name: 4-chloro-N-(2-methyl-2,3-dihydroindol-1-yl)-3-sulfamoylbenzamide
Formula: C16H16ClN3O3S
Exact mass: 365.06009
SMILES: CC1CC2=CC=CC=C2N1NC(=O)C3=CC(=C(C=C3)Cl)S(=O)(=O)N
InChI: InChI=1S/C16H16ClN3O3S/c1-10-8-11-4-2-3-5-14(11)20(10)19-16(21)12-6-7-13(17)15(9-12)24(18,22)23/h2-7,9-10H,8H2,1H3,(H,19,21)(H2,18,22,23)
Instrument: Q Exactive Plus Orbitrap Thermo Scientific
Instrument type: LC-ESI-QFT
Ms type: MS2
Ion mode: NEGATIVE
Ionization: ESI
Fragmentation mode: HCD
Collision energy: 30 (nominal)
Resolution: 35000
Column name: XBridge C18 3.5um, 2.1x50mm, Waters
Retention time: 6.7 min
Base peak: 364.0524
Precursor m/z: 364.0528
Precursor type: [M-H]-
m/z	relative intensity	assigned
53.0032	1	C3HO-
61.9706	3	NOS-
63.9624	23	O2S-
65.9985	1	C3NO-
68.0142	5	C3H2NO-
77.0033	7	C5HO-
77.9655	29	NO2S-
78.9733	29	HNO2S-
79.9812	36	H2NO2S-
81.0219	3	C4H3NO-
92.0141	8	C5H2NO-
92.9981	2	C5HO2-
93.0219	3	C5H3NO-
93.9603	1	NO3S-
98.9313	3	ClO2S-
103.9904	2	C6O2-
105.022	16	C6H3NO-
106.0059	13	C6H2O2-
109.0169	1	C5H3NO2-
112.9799	1	C5H2ClO-
113.9422	1	ClHNO2S-
114.95	1	ClH2NO2S-
120.0092	1	C6H2NO2-
120.9931	13	C6HO3-
125.0037	1	C6H4ClN-
126.0115	19	C6H5ClN-
130.066	1	C9H8N-
131.0249	1	C7H3N2O-
132.0329	167	C7H4N2O-
134.0247	2	C7H4NO2-
141.9826	10	C6H3ClO2-
148.0278	35	C7H4N2O2-
151.0069	1	C7H4ClN2-
152.989	19	C6H3NO2S-
153.9969	2	C6H4NO2S-
167.0017	20	C7H4ClN2O-
168.0095	33	C7H5ClN2O-
169.0173	27	C7H6ClN2O-
171.0563	1	C10H7N2O-
173.0719	14	C10H9N2O-
178.9917	2	C7H3N2O2S-
188.9657	357	C9HO3S-
189.9735	83	C6H5ClNO2S-
194.9867	4	C7H3N2O3S-
195.9947	29	C7H4N2O3S-
197.0026	10	C7H5N2O3S-
204.9605	7	C6H4ClNO3S-
214.9688	35	C7H4ClN2O2S-
215.9527	120	C7H3ClNO3S-
230.9634	9	C7H4ClN2O3S-
231.9714	4	C7H5ClN2O3S-
232.9793	133	C7H6ClN2O3S-
280.1097	2	C16H14N3O2-
300.0908	5	C16H15ClN3O-
328.076	12	C16H14N3O3S-
364.0528	999	C16H15ClN3O3S-
