Mass spectrum: 4-Formylaminoantipyrine; LC-ESI-ITFT; MS2; CE: 75%; R=15000; [M+H]+
Name: 4-Formylaminoantipyrine
Name: N-(1,5-dimethyl-3-oxidanylidene-2-phenyl-pyrazol-4-yl)methanamide
Formula: C12H13N3O2
Exact mass: 231.1008
SMILES: O=C2C(\NC=O)=C(\C)N(C)N2c1ccccc1
InChI: InChI=1S/C12H13N3O2/c1-9-11(13-8-16)12(17)15(14(9)2)10-6-4-3-5-7-10/h3-8H,1-2H3,(H,13,16)
Instrument: LTQ Orbitrap XL Thermo Scientific
Instrument type: LC-ESI-ITFT
Ms type: MS2
Ion mode: POSITIVE
Ionization: ESI
Fragmentation mode: HCD
Collision energy: 75 % (nominal)
Resolution: 15000
Column name: XBridge C18 3.5um, 2.1x50mm, Waters
Retention time: 3.7 min
Base peak: 232.1088
Precursor m/z: 232.1081
Precursor type: [M+H]+
m/z	relative intensity	assigned
53.0386	39	C4H5+
56.0495	867	C3H6N+
58.0651	31	C3H8N+
68.0494	12	C4H6N+
77.0386	429	C6H5+
81.0335	9	C5H5O+
83.0604	999	C4H7N2+
85.0761	31	C4H9N2+
92.0494	6	C6H6N+
94.0651	277	C6H8N+
95.0492	46	C6H7O+
104.0495	878	C7H6N+
105.0447	122	C6H5N2+
118.0651	30	C8H8N+
128.0495	26	C9H6N+
130.0653	22	C9H8N+
132.0445	10	C8H6NO+
132.0806	15	C9H10N+
145.0761	31	C9H9N2+
146.06	58	C9H8NO+
159.0918	69	C10H11N2+
172.0635	5	C10H8N2O+
189.0896	19	C10H11N3O+
199.0736	10	C11H9N3O+
