Mass spectrum: Pyraclofos; LC-ESI-QFT; MS2; CE: 60%; R=17500; [M+H]+
Name: Pyraclofos
Name: 1-(4-chlorophenyl)-4-[ethoxy(propylsulfanyl)phosphoryl]oxypyrazole
Formula: C14H18ClN2O3PS
Exact mass: 360.0464
SMILES: CCCSP(=O)(OCC)OC1=CN(N=C1)C2=CC=C(C=C2)Cl
InChI: InChI=1S/C14H18ClN2O3PS/c1-3-9-22-21(18,19-4-2)20-14-10-16-17(11-14)13-7-5-12(15)6-8-13/h5-8,10-11H,3-4,9H2,1-2H3
Instrument: Exploris 240 Orbitrap Thermo Scientific
Instrument type: LC-ESI-QFT
Ms type: MS2
Ion mode: POSITIVE
Ionization: ESI
Fragmentation mode: HCD
Collision energy: 60 % (nominal)
Resolution: 17500
Column name: XBridge C18 3.5um, 2.1x50mm, Waters
Retention time: 11.576 min
Base peak: 361.0538
Precursor m/z: 361.0537
Precursor type: [M+H]+
m/z	relative intensity	assigned
58.0289	31	C2H4NO+
64.9786	57	H2O2P+
74.0059	22	C2H4NS+
82.989	11	H4O3P+
96.9508	540	H2O2PS+
110.9665	14	C2H4ClOS+
114.9613	209	H4O3PS+
120.9875	25	C4H6ClS+
138.0105	999	C7H5ClN+
140.0261	918	C7H7ClN+
142.0524	74	C9H6N2+
149.0294	20	C8H7NS+
150.0104	101	C7H5NOP+
160.0632	15	C9H8N2O+
165.0218	35	C2H12ClNO3S+
166.0054	279	C8H5ClNO+
177.0216	86	C9H6ClN2+
178.0295	29	C9H7ClN2+
193.0167	20	C9H6ClN2O+
195.0319	358	C9H8ClN2O+
201.9822	17	C7H6ClNO2P+
211.0092	228	C9H8ClN2S+
228.9928	30	C8H7ClN2O2P+
238.9776	86	C9H5ClN2O2P+
256.9879	313	C9H7ClN2O3P+
272.9645	138	C13H4ClNO2S+
