Mass spectrum: N4-Acetylsulfamethazine; LC-ESI-ITFT; MS2; CE: 45%; R=7500; [M+H]+
Name: N4-Acetylsulfamethazine
Name: N-[4-[(4,6-dimethyl-2-pyrimidinyl)sulfamoyl]phenyl]acetamide
Formula: C14H16N4O3S
Exact mass: 320.0943
SMILES: O=S(=O)(c1ccc(cc1)NC(=O)C)Nc1nc(cc(n1)C)C
InChI: InChI=1S/C14H16N4O3S/c1-9-8-10(2)16-14(15-9)18-22(20,21)13-6-4-12(5-7-13)17-11(3)19/h4-8H,1-3H3,(H,17,19)(H,15,16,18)
Instrument: LTQ Orbitrap XL Thermo Scientific
Instrument type: LC-ESI-ITFT
Ms type: MS2
Ion mode: POSITIVE
Ionization: ESI
Fragmentation mode: HCD
Collision energy: 45 % (nominal)
Resolution: 7500
Column name: XBridge C18 3.5um, 2.1x50mm, Waters
Retention time: 4.5 min
Base peak: 321.1027
Precursor m/z: 321.1016
Precursor type: [M+H]+
m/z	relative intensity	assigned
65.0386	101	C5H5+
80.0496	6	C5H6N+
81.0449	11	C4H5N2+
92.0496	23	C6H6N+
93.0336	56	C6H5O+
93.0574	14	C6H7N+
95.0602	31	C5H7N2+
96.0681	11	C5H8N2+
108.0444	406	C6H6NO+
118.0654	21	C8H8N+
122.0714	39	C6H8N3+
123.0791	213	C6H9N3+
124.087	717	C6H10N3+
134.0601	999	C8H8NO+
136.0756	87	C8H10NO+
150.0554	30	C8H8NO2+
156.0114	72	C6H6NO2S+
162.0662	123	C8H8N3O+
186.0332	686	C6H8N3O2S+
198.0219	297	C8H8NO3S+
204.0438	265	C6H10N3O3S+
213.1133	45	C12H13N4+
255.124	434	C14H15N4O+
321.1019	342	C14H17N4O3S+
