Mass spectrum: Oseltamivir carboxylate; LC-ESI-ITFT; MS2; CE: 35%; R=30000; [M+H]+
Name: Oseltamivir carboxylate
Name: (3R,4R,5S)-4-acetamido-5-amino-3-pentan-3-yloxycyclohexene-1-carboxylic acid
Formula: C14H24N2O4
Exact mass: 284.1736
SMILES: CCC(CC)O[C@@H]1C=C(C[C@@H]([C@H]1NC(=O)C)N)C(=O)O
InChI: InChI=1S/C14H24N2O4/c1-4-10(5-2)20-12-7-9(14(18)19)6-11(15)13(12)16-8(3)17/h7,10-13H,4-6,15H2,1-3H3,(H,16,17)(H,18,19)/t11-,12+,13+/m0/s1
Instrument: LTQ Orbitrap XL Thermo Scientific
Instrument type: LC-ESI-ITFT
Ms type: MS2
Ion mode: POSITIVE
Ionization: ESI
Fragmentation mode: CID
Collision energy: 35 % (nominal)
Resolution: 30000
Column name: XBridge C18 3.5um, 2.1x50mm, Waters
Retention time: 5.1 min
Base peak: 285.1822
Precursor m/z: 285.1809
Precursor type: [M+H]+
m/z	relative intensity	assigned
94.0653	2	C6H8N+
120.0444	4	C7H6NO+
137.0708	2	C7H9N2O+
138.0551	68	C7H8NO2+
162.0551	2	C9H8NO2+
179.0816	8	C9H11N2O2+
180.0657	95	C9H10NO3+
197.0923	999	C9H13N2O3+
198.0761	17	C9H12NO4+
215.1029	196	C9H15N2O4+
268.1545	152	C14H22NO4+
