Mass spectrum: Valsartan; LC-ESI-ITFT; MS2; CE: 30%; R=7500; [M+H]+
Name: Valsartan
Name: (2S)-3-methyl-2-[1-oxopentyl-[[4-[2-(2H-tetrazol-5-yl)phenyl]phenyl]methyl]amino]butanoic acid
Formula: C24H29N5O3
Exact mass: 435.2270
SMILES: CCCCC(=O)N(CC1=CC=C(C=C1)C2=C(C=CC=C2)C3=NN=NN3)[C@@H](C(C)C)C(O)=O
InChI: InChI=1S/C24H29N5O3/c1-4-5-10-21(30)29(22(16(2)3)24(31)32)15-17-11-13-18(14-12-17)19-8-6-7-9-20(19)23-25-27-28-26-23/h6-9,11-14,16,22H,4-5,10,15H2,1-3H3,(H,31,32)(H,25,26,27,28)/t22-/m0/s1
Instrument: LTQ Orbitrap XL Thermo Scientific
Instrument type: LC-ESI-ITFT
Ms type: MS2
Ion mode: POSITIVE
Ionization: ESI
Fragmentation mode: HCD
Collision energy: 30 % (nominal)
Resolution: 7500
Column name: XBridge C18 3.5um, 2.1x50mm, Waters
Retention time: 11.2 min
Base peak: 436.2337
Precursor m/z: 436.2343
Precursor type: [M+H]+
m/z	relative intensity	assigned
84.081	5	C5H10N+
98.0597	3	C5H8NO+
153.0702	3	C12H9+
178.0773	15	C14H10+
179.0851	8	C14H11+
180.0808	69	C13H10N+
190.065	61	C14H8N+
191.0725	3	C14H9N+
194.0963	31	C14H12N+
205.0758	2	C14H9N2+
206.0839	24	C14H10N2+
207.0917	999	C14H11N2+
209.1068	10	C14H13N2+
210.0913	16	C14H12NO+
235.0977	961	C14H11N4+
263.1547	3	C18H19N2+
278.1641	3	C18H20N3+
291.1492	900	C19H19N2O+
306.1712	272	C18H20N5+
352.1766	43	C19H22N5O2+
362.2223	38	C23H28N3O+
