Mass spectrum: Foramsulfuron; LC-ESI-ITFT; MS2; CE: 60%; R=7500; [M+H]+
Name: Foramsulfuron
Name: 2-[(4,6-dimethoxypyrimidin-2-yl)carbamoylsulfamoyl]-4-formamido-N,N-dimethyl-benzamide
Formula: C17H20N6O7S
Exact mass: 452.1114
SMILES: O=C(Nc1nc(OC)cc(OC)n1)NS(=O)(=O)c2cc(NC=O)ccc2C(=O)N(C)C
InChI: InChI=1S/C17H20N6O7S/c1-23(2)15(25)11-6-5-10(18-9-24)7-12(11)31(27,28)22-17(26)21-16-19-13(29-3)8-14(20-16)30-4/h5-9H,1-4H3,(H,18,24)(H2,19,20,21,22,26)
Instrument: LTQ Orbitrap XL Thermo Scientific
Instrument type: LC-ESI-ITFT
Ms type: MS2
Ion mode: POSITIVE
Ionization: ESI
Fragmentation mode: HCD
Collision energy: 60 % (nominal)
Resolution: 7500
Column name: XBridge C18 3.5um, 2.1x50mm, Waters
Retention time: 7.8 min
Base peak: 475.1014
Precursor m/z: 453.1187
Precursor type: [M+H]+
m/z	relative intensity	assigned
82.0288	9	C4H4NO+
83.024	265	C3H3N2O+
100.0392	17	C4H6NO2+
105.0451	8	C6H5N2+
107.0605	10	C6H7N2+
120.0443	25	C7H6NO+
121.0284	21	C7H5O2+
135.0551	14	C7H7N2O+
139.0502	179	C6H7N2O2+
148.0392	62	C8H6NO2+
156.0768	121	C6H10N3O2+
157.0607	258	C6H9N2O3+
161.0347	32	C8H5N2O2+
162.0189	13	C8H4NO3+
182.056	999	C7H8N3O3+
212.0009	79	C8H6NO4S+
227.0113	45	C14HN3O+
252.9916	18	C9H5N2O5S+
255.0434	67	C10H11N2O4S+
