Mass spectrum: Hydrochlorothiazide; LC-ESI-ITFT; MS2; CE: 30%; R=15000; [M+H]+
Name: Hydrochlorothiazide
Name: 6-Chloro-3,4-dihydro-2H-1,2,4-benzothiadiazine-7-sulfonamide 1,1-dioxide
Name: 6-chloranyl-1,1-bis(oxidanylidene)-3,4-dihydro-2H-1$l^{6},2,4-benzothiadiazine-7-sulfonamide
Formula: C7H8ClN3O4S2
Exact mass: 296.9645
SMILES: NS(=O)(=O)C1=CC2=C(NCNS2(=O)=O)C=C1Cl
InChI: InChI=1S/C7H8ClN3O4S2/c8-4-1-5-7(2-6(4)16(9,12)13)17(14,15)11-3-10-5/h1-2,10-11H,3H2,(H2,9,12,13)
Instrument: LTQ Orbitrap XL Thermo Scientific
Instrument type: LC-ESI-ITFT
Ms type: MS2
Ion mode: POSITIVE
Ionization: ESI
Fragmentation mode: HCD
Collision energy: 30 % (nominal)
Resolution: 15000
Column name: XBridge C18 3.5um, 2.1x50mm, Waters
Retention time: 2.2 min
Base peak: 163.1326
Precursor m/z: 297.9718
Precursor type: [M+H]+
m/z	relative intensity	assigned
107.9903	5	C5H2NS+
142.9594	6	C5H2ClNS+
143.0133	8	C6H6ClNO+
143.9664	5	C5H3ClNS+
156.0213	15	C7H7ClNO+
169.0161	9	C7H6ClN2O+
170.9541	8	C6H2ClNOS+
188.9648	31	C6H4ClNO2S+
203.9512	18	C6H3ClNO3S+
204.9832	98	C6H6ClN2O2S+
205.9675	9	C6H5ClNO3S+
216.9834	203	C7H6ClN2O2S+
220.9783	49	C6H6ClN2O3S+
232.9782	686	C7H6ClN2O3S+
234.994	58	C7H8ClN2O3S+
252.9503	46	C6H6ClN2O3S2+
268.9452	95	C6H6ClN2O4S2+
280.9452	999	C7H6ClN2O4S2+
286.9559	40	C6H8ClN2O5S2+
