Mass spectrum: Isoxaben; LC-ESI-QFT; MS2; CE: 180; R=35000; [M+H]+
Name: Isoxaben
Name: 2,6-dimethoxy-N-[3-(3-methylpentan-3-yl)-1,2-oxazol-5-yl]benzamide
Formula: C18H24N2O4
Exact mass: 332.17361
SMILES: CCC(C)(CC)C1=NOC(=C1)NC(=O)C2=C(C=CC=C2OC)OC
InChI: InChI=1S/C18H24N2O4/c1-6-18(3,7-2)14-11-15(24-20-14)19-17(21)16-12(22-4)9-8-10-13(16)23-5/h8-11H,6-7H2,1-5H3,(H,19,21)
Instrument: Q Exactive Plus Orbitrap Thermo Scientific
Instrument type: LC-ESI-QFT
Ms type: MS2
Ion mode: POSITIVE
Ionization: ESI
Fragmentation mode: HCD
Collision energy: 180 (nominal)
Resolution: 35000
Column name: XBridge C18 3.5um, 2.1x50mm, Waters
Retention time: 10.5 min
Base peak: 333.1799
Precursor m/z: 333.1809
Precursor type: [M+H]+
m/z	relative intensity	assigned
50.0151	446	C4H2+
51.023	388	C4H3+
53.0022	269	C3HO+
53.0386	30	C4H5+
54.0464	19	C4H6+
55.0178	999	C3H3O+
61.0073	16	C5H+
62.0151	65	C5H2+
63.0229	576	C5H3+
64.0307	147	C5H4+
65.0022	37	C4HO+
65.0386	53	C5H5+
66.01	14	C4H2O+
66.0464	28	C5H6+
67.9892	1	C3O2+
68.9971	47	C3HO2+
74.0151	87	C6H2+
75.0229	206	C6H3+
77.0385	38	C6H5+
78.01	4	C5H2O+
78.0463	1	C6H6+
79.0178	423	C5H3O+
81.0335	10	C5H5O+
90.01	4	C6H2O+
91.0178	13	C6H3O+
92.0256	73	C6H4O+
92.0369	8	C5H4N2+
95.0491	32	C6H7O+
105.0448	14	C6H5N2+
107.0127	856	C6H3O2+
119.0127	11	C7H3O2+
122.0363	2	C7H6O2+
125.0233	16	C6H5O3+
139.0389	1	C7H7O3+
