Mass spectrum: Trinexapac; LC-ESI-ITFT; MS2; CE: 60%; R=15000; [M+H]+
Name: Trinexapac
Name: 4-[Cyclopropyl(hydroxy)methylene]-3,5-dioxocyclohexanecarboxylic acid
Formula: C11H12O5
Exact mass: 224.0685
SMILES: C(C1)C1C(O)=C(C(=O)CC2C(=O)O)C(=O)C2
InChI: InChI=1S/C11H12O5/c12-7-3-6(11(15)16)4-8(13)9(7)10(14)5-1-2-5/h5-6,14H,1-4H2,(H,15,16)/b10-9-
Instrument: LTQ Orbitrap XL Thermo Scientific
Instrument type: LC-ESI-ITFT
Ms type: MS2
Ion mode: POSITIVE
Ionization: ESI
Fragmentation mode: HCD
Collision energy: 60 % (nominal)
Resolution: 15000
Column name: XBridge C18 3.5um, 2.1x50mm, Waters
Retention time: 6.9 min
Base peak: 225.0758
Precursor m/z: 225.0757
Precursor type: [M+H]+
m/z	relative intensity	assigned
53.0022	3	C3HO+
65.0387	3	C5H5+
67.0176	4	C4H3O+
68.9972	79	C3HO2+
69.0335	999	C4H5O+
71.0128	45	C3H3O2+
79.0543	3	C6H7+
81.0335	24	C5H5O+
81.0699	2	C6H9+
83.0491	19	C5H7O+
85.0284	639	C4H5O2+
91.0543	4	C7H7+
93.0336	11	C6H5O+
95.0128	79	C5H3O2+
97.0284	47	C5H5O2+
99.0077	154	C4H3O3+
105.0699	10	C8H9+
107.0492	78	C7H7O+
109.0284	35	C6H5O2+
109.0648	8	C7H9O+
111.044	827	C6H7O2+
113.0233	438	C5H5O3+
121.0285	9	C7H5O2+
121.0397	8	C6H5N2O+
123.0077	252	C6H3O3+
127.0389	8	C6H7O3+
129.0544	5	C6H9O3+
133.0648	22	C9H9O+
137.0234	167	C7H5O3+
137.0596	12	C8H9O2+
139.0389	33	C7H7O3+
141.0183	153	C6H5O4+
151.039	5	C8H7O3+
151.0753	12	C9H11O2+
155.0339	67	C7H7O4+
157.0495	27	C7H9O4+
159.0288	28	C6H7O5+
161.0598	12	C10H9O2+
165.0183	280	C8H5O4+
179.0703	35	C10H11O3+
183.0288	115	C8H7O5+
207.0647	4	C11H11O4+
225.0764	18	C11H13O5+
