Mass spectrum: Albendazole; LC-ESI-QFT; MS2; CE: 75; R=35000; [M+H]+
Name: Albendazole
Name: Methyl N-(6-propylsulfanyl-1H-benzimidazol-2-yl)carbamate
Formula: C12H15N3O2S
Exact mass: 265.08850
SMILES: CCCSC1=CC2=C(C=C1)N=C(N2)NC(=O)OC
InChI: InChI=1S/C12H15N3O2S/c1-3-6-18-8-4-5-9-10(7-8)14-11(13-9)15-12(16)17-2/h4-5,7H,3,6H2,1-2H3,(H2,13,14,15,16)
Instrument: Q Exactive Plus Orbitrap Thermo Scientific
Instrument type: LC-ESI-QFT
Ms type: MS2
Ion mode: POSITIVE
Ionization: ESI
Fragmentation mode: HCD
Collision energy: 75 (nominal)
Resolution: 35000
Column name: XBridge C18 3.5um, 2.1x50mm, Waters
Retention time: 7.8 min
Base peak: 266.0953
Precursor m/z: 266.0958
Precursor type: [M+H]+
m/z	relative intensity	assigned
69.0083	1	C2HN2O+
104.0367	2	C6H4N2+
105.0448	1	C6H5N2+
119.0479	6	C6H5N3+
119.0604	1	C7H7N2+
120.9981	2	C6H3NS+
122.0059	3	C6H4NS+
123.0137	1	C6H5NS+
130.0401	1	C7H4N3+
131.0479	10	C7H5N3+
132.0556	1	C7H6N3+
133.0634	1	C7H7N3+
136.0091	12	C6H4N2S+
137.0171	1	C6H5N2S+
146.0714	1	C8H8N3+
147.0428	8	C7H5N3O+
147.0791	1	C8H9N3+
149.017	1	C7H5N2S+
150.0249	2	C7H6N2S+
158.035	3	C8H4N3O+
159.0428	425	C8H5N3O+
160.0506	12	C8H6N3O+
162.012	1	C7H4N3S+
163.0199	65	C7H5N3S+
164.0041	1	C7H4N2OS+
164.0278	29	C7H6N3S+
165.0357	4	C7H7N3S+
166.0193	1	C7H6N2OS+
177.0359	1	C8H7N3S+
178.0433	1	C8H8N3S+
179.0513	4	C8H9N3S+
186.0661	1	C10H8N3O+
190.007	9	C8H4N3OS+
191.0148	999	C8H5N3OS+
192.0226	371	C8H6N3OS+
204.0228	5	C9H6N3OS+
205.0306	5	C9H7N3OS+
223.0412	1	C9H9N3O2S+
234.0697	142	C11H12N3OS+
