Mass spectrum: Dinoseb; LC-ESI-ITFT; MS2; CE: 90%; R=7500; [M-H]-
Name: Dinoseb
Name: 2,4-dinitro-6-sec-butyl-phenol
Formula: C10H12N2O5
Exact mass: 240.0746
SMILES: OC1=C([N+]([O-])=O)C=C([N+]([O-])=O)C=C1C(C)CC
InChI: InChI=1S/C10H12N2O5/c1-3-6(2)8-4-7(11(14)15)5-9(10(8)13)12(16)17/h4-6,13H,3H2,1-2H3
Instrument: LTQ Orbitrap XL Thermo Scientific
Instrument type: LC-ESI-ITFT
Ms type: MS2
Ion mode: NEGATIVE
Ionization: ESI
Fragmentation mode: HCD
Collision energy: 90 % (nominal)
Resolution: 7500
Column name: XBridge C18 3.5um, 2.1x50mm, Waters
Retention time: 13.0 min
Base peak: 239.0673
Precursor m/z: 239.0673
Precursor type: [M-H]-
m/z	relative intensity	assigned
121.0292	79	C7H5O2-
126.011	31	C9H2O-
134.0247	999	C7H4NO2-
136.0408	79	C7H6NO2-
148.04	46	C8H6NO2-
149.0243	46	C8H5O3-
151.0771	41	C9H11O2-
162.0194	148	C8H4NO3-
176.0354	186	C9H6NO3-
177.0433	44	C9H7NO3-
178.0508	148	C9H8NO3-
192.0666	66	C10H10NO3-
193.0257	324	C8H5N2O4-
194.0451	177	C9H8NO4-
207.0414	56	C9H7N2O4-
209.0202	150	C8H5N2O5-
