Mass spectrum: Sulfadimethoxine; LC-ESI-ITFT; MS2; CE: 35%; R=30000; [M-H]-
Name: Sulfadimethoxine
Name: 4-amino-N-(2,6-dimethoxy-4-pyrimidinyl)benzenesulfonamide
Formula: C12H14N4O4S
Exact mass: 310.0736
SMILES: c1(NS(c2ccc(N)cc2)(=O)=O)cc(nc(n1)OC)OC
InChI: InChI=1S/C12H14N4O4S/c1-19-11-7-10(14-12(15-11)20-2)16-21(17,18)9-5-3-8(13)4-6-9/h3-7H,13H2,1-2H3,(H,14,15,16)
Instrument: LTQ Orbitrap XL Thermo Scientific
Instrument type: LC-ESI-ITFT
Ms type: MS2
Ion mode: NEGATIVE
Ionization: ESI
Fragmentation mode: CID
Collision energy: 35 % (nominal)
Resolution: 30000
Column name: XBridge C18 3.5um, 2.1x50mm, Waters
Retention time: 5.7 min
Base peak: 309.0653
Precursor m/z: 309.0663
Precursor type: [M-H]-
m/z	relative intensity	assigned
107.038	15	C6H5NO-
122.0362	10	C5H4N3O-
124.0149	52	C4H2N3O2-
130.0537	12	C8H6N2-
131.0374	100	C8H5NO-
131.0487	29	C7H5N3-
131.0615	50	C8H7N2-
132.0567	25	C7H6N3-
154.0619	48	C6H8N3O2-
155.0045	50	C6H5NO2S-
156.0123	25	C6H6NO2S-
156.0567	110	C9H6N3-
161.0718	52	C9H9N2O-
171.0231	51	C6H7N2O2S-
173.0595	55	C9H7N3O-
174.067	181	C9H8N3O-
177.0669	63	C9H9N2O2-
185.0386	38	C7H9N2O2S-
187.0756	11	C10H9N3O-
188.0464	70	C9H6N3O2-
195.0232	999	C8H7N2O2S-
196.0185	23	C7H6N3O2S-
198.0539	23	C10H6N4O-
199.0619	34	C10H7N4O-
200.0704	20	C10H8N4O-
213.0784	26	C11H9N4O-
215.0572	227	C10H7N4O2-
220.0185	13	C9H6N3O2S-
229.0728	212	C11H9N4O2-
230.0805	767	C11H10N4O2-
245.1042	100	C12H13N4O2-
253.03	27	C10H9N2O4S-
277.0394	115	C11H9N4O3S-
