Mass spectrum: Chlorothalonil TP SYN548581; LC-ESI-QFT; MS2; CE: 120%; R=15000; [M+H]+
Name: Chlorothalonil TP SYN548581
Name: 4-carbamoyl-2,3,5-trichloro-6-cyanobenzenesulfonic acid
Formula: C8H3Cl3N2O4S
Exact mass: 327.8879
SMILES: NC(=O)C1=C(Cl)C(Cl)=C(C(C#N)=C1Cl)S(O)(=O)=O
InChI: InChI=1S/C8H3Cl3N2O4S/c9-4-2(1-12)7(18(15,16)17)6(11)5(10)3(4)8(13)14/h(H2,13,14)(H,15,16,17)
Instrument: Orbitrap Exploris 240 Thermo Scientific
Instrument type: LC-ESI-QFT
Ms type: MS2
Ion mode: POSITIVE
Ionization: ESI
Fragmentation mode: HCD
Collision energy: 120 % (nominal)
Resolution: 15000
Column name: Atlantis C18 3um, 3.0x150mm, Waters
Retention time: 10.461 min
Base peak: 132.9582
Precursor m/z: 328.8952
Precursor type: [M+H]+
Precursor intensity: 4062616.5
m/z	relative intensity	assigned
59.0492	24	
61.9792	68	CHClN+
62.9631	51	CClO+
63.9851	41	H2NOS+
72.984	272	C3H2Cl+
73.9793	34	C2HClN+
75.0102	40	C5HN+
82.9449	455	CHCl2+
88.0184	87	C6H2N+
95.9762	147	C5HCl+
96.9842	83	C5H2Cl+
97.979	285	C4HClN+
101.0138	50	C6HN2+
106.9449	999	C3HCl2+
107.9402	224	C2Cl2N+
107.9764	27	C6HCl+
109.9792	347	C5HClN+
111.995	26	C5H3ClN+
116.906	51	CCl3+
117.9374	44	C4Cl2+
118.9449	56	C4HCl2+
120.9717	78	C6ClN+
121.9791	223	C6HClN+
122.9869	312	C6H2ClN+
123.9949	256	C6H3ClN+
127.9895	43	C8O2+
129.9369	149	C5Cl2+
130.9449	553	C5HCl2+
131.94	289	C4Cl2N+
132.9716	144	C7ClN+
140.906	141	C3Cl3+
141.9375	162	C6Cl2+
145.9558	85	C5H2Cl2N+
155.94	129	C6Cl2N+
156.9482	100	C6HCl2N+
157.956	188	C6H2Cl2N+
158.9634	156	C6H3Cl2N+
164.906	240	C5Cl3+
166.9214	141	C5H2Cl3+
167.9403	40	C7Cl2N+
