Mass spectrum: Clothianidin; LC-ESI-ITFT; MS2; CE: 90%; R=30000; [M+H]+
Name: Clothianidin
Name: 1-[(2-chloranyl-1,3-thiazol-5-yl)methyl]-2-methyl-3-nitro-guanidine
Name: 1-[(2-chloro-1,3-thiazol-5-yl)methyl]-2-methyl-3-nitroguanidine
Formula: C6H8ClN5O2S
Exact mass: 249.0087
SMILES: Clc1ncc(s1)CN/C(=N/C)N[N+]([O-])=O
InChI: InChI=1S/C6H8ClN5O2S/c1-8-6(11-12(13)14)10-3-4-2-9-5(7)15-4/h2H,3H2,1H3,(H2,8,10,11)
Instrument: LTQ Orbitrap XL Thermo Scientific
Instrument type: LC-ESI-ITFT
Ms type: MS2
Ion mode: POSITIVE
Ionization: ESI
Fragmentation mode: HCD
Collision energy: 90 % (nominal)
Resolution: 30000
Column name: XBridge C18 3.5um, 2.1x50mm, Waters
Retention time: 4.9 min
Base peak: 250.0165
Precursor m/z: 250.016
Precursor type: [M+H]+
m/z	relative intensity	assigned
54.0337	20	C3H4N+
57.0447	39	C2H5N2+
58.995	7	C2H3S+
59.9902	9	CH2NS+
61.9792	5	CHClN+
68.0366	4	C3H4N2+
69.0447	36	C3H5N2+
70.995	205	C3H3S+
71.9902	3	C2H2NS+
78.9403	18	CClS+
79.0288	5	C4H3N2+
81.0446	12	C4H5N2+
82.0524	7	C4H6N2+
83.0603	15	C4H7N2+
83.9904	3	C3H2NS+
86.0058	158	C3H4NS+
87.014	4	C3H5NS+
87.9948	31	C3H3ClN+
95.0479	3	C4H5N3+
96.0556	71	C4H6N3+
97.0398	7	C4H5N2O+
97.0635	4	C4H7N3+
98.0057	14	C4H4NS+
98.0712	13	C4H8N3+
99.0011	10	C3H3N2S+
100.009	5	C3H4N2S+
101.0167	5	C3H5N2S+
108.0555	16	C5H6N3+
109.0633	9	C5H7N3+
110.0712	371	C5H8N3+
111.079	302	C5H9N3+
112.0089	9	C4H4N2S+
113.0167	811	C4H5N2S+
115.0322	4	C4H7N2S+
118.9586	4	C3H2ClNS+
119.9668	52	C3H3ClNS+
125.082	7	C5H9N4+
126.0119	29	C4H4N3S+
127.0199	7	C4H5N3S+
131.9669	999	C4H3ClNS+
132.9746	91	C4H4ClNS+
138.0119	7	C5H4N3S+
142.0433	16	C5H8N3S+
146.9777	57	C4H4ClN2S+
147.9853	14	C4H5ClN2S+
153.0228	33	C5H5N4S+
167.0383	22	C6H7N4S+
168.0469	5	C6H8N4S+
169.0543	40	C6H9N4S+
171.973	14	C5H3ClN3S+
174.9725	20	C5H4ClN2OS+
