Mass spectrum: Reserpine; LC-ESI-ITFT; MS2; CE: 60%; R=15000; [M+H]+
Name: Reserpine
Name: (1S,2R,3R,4aS,13bR,14aS)-2,11-dimethoxy-3-(3,4,5-trimethoxybenzoyl)oxy-1,2,3,4,4a,5,7,8,13,13b,14,14a-dodecahydroisoquinolino[3,2-a]$b-carboline-1-carboxylic acid methyl ester
Formula: C33H40N2O9
Exact mass: 608.2734
SMILES: CO[C@H]1[C@@H](C[C@@H]2CN3CCC4=C([C@H]3C[C@@H]2[C@@H]1C(=O)OC)NC5=C4C=CC(=C5)OC)OC(=O)C6=CC(=C(C(=C6)OC)OC)OC
InChI: InChI=1S/C33H40N2O9/c1-38-19-7-8-20-21-9-10-35-16-18-13-27(44-32(36)17-11-25(39-2)30(41-4)26(12-17)40-3)31(42-5)28(33(37)43-6)22(18)15-24(35)29(21)34-23(20)14-19/h7-8,11-12,14,18,22,24,27-28,31,34H,9-10,13,15-16H2,1-6H3/t18-,22+,24-,27-,28+,31+/m1/s1
Instrument: LTQ Orbitrap XL Thermo Scientific
Instrument type: LC-ESI-ITFT
Ms type: MS2
Ion mode: POSITIVE
Ionization: ESI
Fragmentation mode: HCD
Collision energy: 60 % (nominal)
Resolution: 15000
Column name: XBridge C18 3.5um, 2.1x50mm, Waters
Retention time: 8.3 min
Base peak: 609.2812
Precursor m/z: 609.2807
Precursor type: [M+H]+
m/z	relative intensity	assigned
53.0385	3	C4H5+
65.0386	4	C5H5+
67.0543	3	C5H7+
71.0491	3	C4H7O+
75.044	4	C3H7O2+
77.0386	11	C6H5+
79.0542	25	C6H7+
80.0494	4	C5H6N+
81.0335	21	C5H5O+
81.0698	10	C6H9+
82.0652	2	C5H8N+
91.0542	23	C7H7+
92.0496	2	C6H6N+
93.0336	2	C6H5O+
93.0573	2	C6H7N+
93.0698	3	C7H9+
94.0414	3	C6H6O+
94.0651	12	C6H8N+
95.0491	7	C6H7O+
96.057	15	C6H8O+
97.0647	6	C6H9O+
101.0597	2	C5H9O2+
103.0541	3	C8H7+
105.0335	3	C7H5O+
105.0445	5	C6H5N2+
105.0699	8	C8H9+
106.0414	2	C7H6O+
106.0651	9	C7H8N+
107.0491	9	C7H7O+
108.0569	12	C7H8O+
108.0807	6	C7H10N+
109.0285	6	C6H5O2+
109.0647	42	C7H9O+
111.044	15	C6H7O2+
111.0804	12	C7H11O+
113.0232	3	C5H5O3+
113.0597	7	C6H9O2+
115.0542	16	C9H7+
116.062	4	C9H8+
117.0571	3	C8H7N+
117.0699	12	C9H9+
118.065	16	C8H8N+
120.0807	13	C8H10N+
121.0283	4	C7H5O2+
121.0648	11	C8H9O+
122.0362	30	C7H6O2+
122.0724	4	C8H10O+
123.0438	2	C7H7O2+
123.0804	4	C8H11O+
124.0518	35	C7H8O2+
128.0463	3	C6H8O3+
129.0699	8	C10H9+
130.065	23	C9H8N+
131.049	4	C9H7O+
131.0729	69	C9H9N+
131.0853	5	C10H11+
132.0569	5	C9H8O+
132.0807	33	C9H10N+
133.0522	1	C8H7NO+
133.0643	2	C9H9O+
134.036	3	C8H6O2+
135.0436	5	C8H7O2+
135.0804	5	C9H11O+
136.0756	6	C8H10NO+
137.0231	11	C7H5O3+
137.0594	6	C8H9O2+
137.0958	2	C9H13O+
139.0753	130	C8H11O2+
141.0184	3	C6H5O4+
142.065	18	C10H8N+
143.0487	5	C10H7O+
143.0729	85	C10H9N+
144.0566	4	C10H8O+
144.0807	38	C10H10N+
145.0524	2	C9H7NO+
145.0645	4	C10H9O+
145.0886	7	C10H11N+
146.0599	10	C9H8NO+
146.0964	6	C10H12N+
147.0678	11	C9H9NO+
147.0804	28	C10H11O+
148.0756	26	C9H10NO+
149.0597	14	C9H9O2+
150.091	4	C9H12NO+
151.0387	9	C8H7O3+
152.0467	149	C8H8O3+
154.0621	2	C8H10O3+
155.0734	1	C11H9N+
156.0416	9	C7H8O4+
156.0809	7	C11H10N+
157.0884	7	C11H11N+
158.0597	9	C10H8NO+
158.0962	2	C11H12N+
159.0678	190	C10H9NO+
160.0755	81	C10H10NO+
161.0596	6	C10H9O2+
161.0834	33	C10H11NO+
162.0913	18	C10H12NO+
164.107	5	C10H14NO+
166.086	2	C9H12NO2+
167.0701	47	C9H11O3+
170.0601	3	C11H8NO+
172.0757	20	C11H10NO+
173.0834	30	C11H11NO+
174.0913	999	C11H12NO+
175.075	6	C11H11O2+
175.0947	8	C6H13N3O3+
176.1069	6	C11H14NO+
178.0861	6	C10H12NO2+
179.0696	2	C10H11O3+
182.0962	2	C13H12N+
183.0673	3	C12H9NO+
184.0364	3	C8H8O5+
184.0756	12	C12H10NO+
185.0837	12	C12H11NO+
186.0912	35	C12H12NO+
187.0991	16	C12H13NO+
188.0695	2	C9H8N4O+
188.1069	37	C12H14NO+
190.0862	9	C11H12NO2+
192.1018	34	C11H14NO2+
195.0652	832	C10H11O4+
196.069	5	C5H12N2O6+
197.0832	9	C13H11NO+
198.0911	19	C13H12NO+
199.0865	13	C12H11N2O+
199.0991	10	C13H13NO+
200.1069	36	C13H14NO+
201.1024	8	C12H13N2O+
204.1017	21	C12H14NO2+
205.0884	2	C15H11N+
210.0914	17	C14H12NO+
211.0994	8	C14H13NO+
212.0947	5	C13H12N2O+
212.1067	13	C14H14NO+
213.1019	7	C13H13N2O+
214.1099	10	C13H14N2O+
215.1179	10	C13H15N2O+
216.102	1	C13H14NO2+
219.1047	2	C16H13N+
221.0827	3	C15H11NO+
222.0913	6	C15H12NO+
222.1125	1	C12H16NO3+
223.0988	11	C15H13NO+
224.1069	24	C15H14NO+
224.1275	4	C12H18NO3+
225.1025	4	C14H13N2O+
225.1152	2	C15H15NO+
226.1225	9	C15H16NO+
227.1177	17	C14H15N2O+
229.1338	2	C14H17N2O+
230.0973	2	C17H12N+
233.1198	2	C17H15N+
234.091	5	C16H12NO+
235.0993	5	C16H13NO+
236.0935	2	C15H12N2O+
236.1067	16	C16H14NO+
236.1278	18	C13H18NO3+
237.1019	8	C15H13N2O+
237.1149	10	C16H15NO+
238.1101	5	C15H14N2O+
238.1225	19	C16H16NO+
239.1178	13	C15H15N2O+
239.1304	4	C16H17NO+
245.1192	2	C18H15N+
246.0905	3	C17H12NO+
247.0992	7	C17H13NO+
248.1068	20	C17H14NO+
249.103	1	C16H13N2O+
249.1146	5	C17H15NO+
250.1102	4	C16H14N2O+
250.1226	10	C17H16NO+
251.1177	33	C16H15N2O+
252.1258	2	C16H16N2O+
252.1372	2	C17H18NO+
253.1333	11	C16H17N2O+
260.1066	10	C18H14NO+
261.1146	20	C18H15NO+
262.1223	24	C18H16NO+
263.1304	4	C18H17NO+
264.1016	7	C17H14NO2+
264.1259	5	C17H16N2O+
264.1383	6	C18H18NO+
265.1332	24	C17H17N2O+
266.1419	5	C17H18N2O+
267.1484	6	C17H19N2O+
272.1072	2	C19H14NO+
273.1143	6	C19H15NO+
274.0859	3	C18H12NO2+
274.1227	14	C19H16NO+
275.1309	4	C19H17NO+
276.102	4	C18H14NO2+
276.138	24	C19H18NO+
278.1173	3	C18H16NO2+
279.1495	3	C18H19N2O+
288.1374	7	C20H18NO+
289.1098	3	C19H15NO2+
290.1171	4	C19H16NO2+
291.1486	6	C19H19N2O+
294.1498	1	C19H20NO2+
304.1336	7	C20H18NO2+
305.1647	8	C20H21N2O+
306.1121	3	C19H16NO3+
333.1597	3	C21H21N2O2+
336.1586	6	C21H22NO3+
350.1622	9	C21H22N2O3+
363.169	3	C19H25NO6+
365.1855	22	C22H25N2O3+
382.1879	3	C22H26N2O4+
395.1962	3	C23H27N2O4+
448.2038	3	C31H28O3+
