Mass spectrum: Imiprothrin; LC-ESI-QFT; MS2; CE: 30; R=35000; [M+H]+
Name: Imiprothrin
Name: (2,5-dioxo-3-prop-2-ynylimidazolidin-1-yl)methyl 2,2-dimethyl-3-(2-methylprop-1-enyl)cyclopropane-1-carboxylate
Formula: C17H22N2O4
Exact mass: 318.15796
SMILES: O=C(OCN1C(=O)CN(C1=O)CC#C)C2C(\C=C(/C)C)C2(C)C
InChI: InChI=1S/C17H22N2O4/c1-6-7-18-9-13(20)19(16(18)22)10-23-15(21)14-12(8-11(2)3)17(14,4)5/h1,8,12,14H,7,9-10H2,2-5H3
Instrument: Q Exactive Orbitrap Thermo Scientific
Instrument type: LC-ESI-QFT
Ms type: MS2
Ion mode: POSITIVE
Ionization: ESI
Fragmentation mode: HCD
Collision energy: 30 (nominal)
Resolution: 35000
Column name: XBridge C18 3.5um, 2.1x50mm, Waters
Retention time: 11.7 min
Base peak: 341.1472
Precursor m/z: 319.1652
Precursor type: [M+H]+
m/z	relative intensity	assigned
55.018	3	C3H3O+
55.0542	1	C4H7+
56.0131	1	C2H2NO+
57.0699	8	C4H9+
59.0492	12	C3H7O+
67.0543	34	C5H7+
68.0495	5	C4H6N+
69.0335	11	C4H5O+
69.0699	8	C5H9+
79.0542	11	C6H7+
80.0495	11	C5H6N+
81.0699	193	C6H9+
83.049	2	C5H7O+
83.0856	1	C6H11+
91.0541	5	C7H7+
93.0699	41	C7H9+
94.0288	1	C5H4NO+
95.0492	14	C6H7O+
95.0855	39	C7H11+
96.0444	3	C5H6NO+
105.0699	9	C8H9+
107.0856	44	C8H11+
109.0648	60	C7H9O+
109.1012	37	C8H13+
111.0552	8	C5H7N2O+
113.0597	105	C6H9O2+
114.0631	61	CH10N2O4+
119.0856	4	C9H11+
121.0648	9	C8H9O+
121.1012	119	C9H13+
123.0553	72	C6H7N2O+
123.1168	999	C9H15+
127.0752	7	C7H11O2+
133.1013	28	C10H13+
135.1168	354	C10H15+
137.1326	5	C10H17+
139.0502	57	C6H7N2O2+
145.1013	38	C11H13+
151.1118	377	C10H15O+
163.1117	290	C11H15O+
169.0608	14	C7H9N2O3+
193.0971	4	C10H13N2O2+
207.1128	1	C11H15N2O2+
219.1126	1	C12H15N2O2+
245.092	2	C13H13N2O3+
259.1439	1	C15H19N2O2+
273.1596	6	C16H21N2O2+
283.1445	3	C17H19N2O2+
301.1544	8	C17H21N2O3+
