Mass spectrum: Nuarimol; LC-ESI-QFT; MS2; CE: 60%; R=17500; [M+H]+
Name: Nuarimol
Name: (2-chlorophenyl)-(4-fluorophenyl)-pyrimidin-5-ylmethanol
Formula: C17H12ClFN2O
Exact mass: 314.0622
SMILES: C1=CC=C(C(=C1)C(C2=CC=C(C=C2)F)(C3=CN=CN=C3)O)Cl
InChI: InChI=1S/C17H12ClFN2O/c18-16-4-2-1-3-15(16)17(22,13-9-20-11-21-10-13)12-5-7-14(19)8-6-12/h1-11,22H
Instrument: Exploris 240 Orbitrap Thermo Scientific
Instrument type: LC-ESI-QFT
Ms type: MS2
Ion mode: POSITIVE
Ionization: ESI
Fragmentation mode: HCD
Collision energy: 60 % (nominal)
Resolution: 17500
Column name: XBridge C18 3.5um, 2.1x50mm, Waters
Retention time: 8.405 min
Base peak: 315.0692
Precursor m/z: 315.0695
Precursor type: [M+H]+
m/z	relative intensity	assigned
54.0338	82	C3H4N+
81.0447	999	C4H5N2+
123.0241	203	C7H4FO+
123.0352	11	C6H4FN2+
138.9944	336	C7H4ClO+
207.0603	127	C15H8F+
208.0681	104	C15H9F+
217.0211	34	C13H7ClF+
219.036	26	C14H4FN2+
222.0712	53	C15H9FN+
224.0868	72	C15H11FN+
225.0712	29	C15H10FO+
234.0716	35	C16H9FN+
235.0317	90	C13H9ClFO+
235.079	51	C16H10FN+
236.0631	118	C16H9FO+
243.0371	338	C15H9ClF+
250.0654	20	C16H9FNO+
252.0819	526	C16H11FNO+
260.0647	26	C15H12ClFN+
261.0826	20	C17H10FN2+
262.0904	39	C17H11FN2+
