Mass spectrum: Spirotetramat BYI08330-enol; LC-ESI-QFT; MS2; CE: 90%; R=17500; [M+H]+
Name: Spirotetramat BYI08330-enol
Name: Cis-3-(2,5-dimethylphenyl)-4-hydroxy-8-methoxy-1-azaspiro(4.5)dec-3-en-2-one
Name: 3-(2,5-dimethylphenyl)-4-hydroxy-8-methoxy-1-azaspiro[4.5]dec-3-en-2-one
Formula: C18H23NO3
Exact mass: 301.1678
SMILES: CC1=CC(=C(C=C1)C)C2=C(C3(CCC(CC3)OC)NC2=O)O
InChI: InChI=1S/C18H23NO3/c1-11-4-5-12(2)14(10-11)15-16(20)18(19-17(15)21)8-6-13(22-3)7-9-18/h4-5,10,13,20H,6-9H2,1-3H3,(H,19,21)
Instrument: Exploris 240 Orbitrap Thermo Scientific
Instrument type: LC-ESI-QFT
Ms type: MS2
Ion mode: POSITIVE
Ionization: ESI
Fragmentation mode: HCD
Collision energy: 90 % (nominal)
Resolution: 17500
Column name: XBridge C18 3.5um, 2.1x50mm, Waters
Retention time: 6.514 min
Base peak: 302.1748
Precursor m/z: 302.1751
Precursor type: [M+H]+
m/z	relative intensity	assigned
53.0385	18	C4H5+
55.0544	35	C4H7+
67.0543	60	C5H7+
79.0545	93	C6H7+
81.0702	31	C6H9+
91.0543	315	C7H7+
96.0808	37	C6H10N+
103.0545	32	C8H7+
105.0699	327	C8H9+
115.0542	309	C9H7+
116.0621	40	C9H8+
117.0699	999	C9H9+
119.0856	579	C9H11+
124.0393	38	C6H6NO2+
128.0622	178	C10H8+
129.0698	131	C10H9+
130.0777	383	C10H10+
131.0859	68	C10H11+
133.0649	50	C9H9O+
142.0778	37	C11H10+
143.0854	296	C11H11+
144.081	19	C10H10N+
145.0649	41	C10H9O+
145.0884	203	C10H11N+
145.1015	470	C11H13+
147.0806	83	C10H11O+
153.0699	57	C12H9+
155.0857	216	C12H11+
157.0641	20	C11H9O+
157.0887	43	C11H11N+
158.0725	114	C11H10O+
160.1123	97	C11H14N+
167.0858	53	C13H11+
169.1014	43	C13H13+
170.097	43	C12H12N+
179.0857	58	C14H11+
183.0682	56	C12H9NO+
188.1071	139	C12H14NO+
192.093	46	C15H12+
216.102	704	C13H14NO2+
