Mass spectrum: Flubendazole; LC-ESI-QFT; MS2; CE: 90; R=35000; [M+H]+
Name: Flubendazole
Name: Methyl N-[6-(4-fluorobenzoyl)-1H-benzimidazol-2-yl]carbamate
Formula: C16H12FN3O3
Exact mass: 313.08627
SMILES: COC(=O)NC1=NC2=C(N1)C=C(C=C2)C(=O)C3=CC=C(C=C3)F
InChI: InChI=1S/C16H12FN3O3/c1-23-16(22)20-15-18-12-7-4-10(8-13(12)19-15)14(21)9-2-5-11(17)6-3-9/h2-8H,1H3,(H2,18,19,20,22)
Instrument: Q Exactive Plus Orbitrap Thermo Scientific
Instrument type: LC-ESI-QFT
Ms type: MS2
Ion mode: POSITIVE
Ionization: ESI
Fragmentation mode: HCD
Collision energy: 90 (nominal)
Resolution: 35000
Column name: XBridge C18 3.5um, 2.1x50mm, Waters
Retention time: 8.1 min
Base peak: 314.093
Precursor m/z: 314.0935
Precursor type: [M+H]+
m/z	relative intensity	assigned
50.0151	13	C4H2+
51.023	10	C4H3+
53.0022	7	C3HO+
55.0179	1	C3H3O+
65.0386	2	C5H5+
69.0135	1	C4H2F+
71.0292	64	C4H4F+
73.0084	3	C3H2FO+
74.0151	12	C6H2+
75.0229	97	C6H3+
77.026	5	C5H3N+
78.0338	1	C5H4N+
79.0178	20	C5H3O+
79.0417	3	C5H5N+
93.0336	14	C6H5O+
95.0292	73	C6H4F+
99.0241	15	C5H4FO+
103.029	2	C6H3N2+
103.0418	3	C7H5N+
104.037	22	C6H4N2+
105.0448	17	C6H5N2+
111.0442	4	C6H7O2+
112.032	2	C6H5FO+
113.0398	331	C6H6FO+
115.029	1	C7H3N2+
116.037	1	C7H4N2+
121.0398	1	C6H5N2O+
123.0242	915	C7H4FO+
123.0352	999	C6H4FN2+
124.0324	7	C7H5FO+
130.0401	47	C7H4N3+
131.024	10	C7H3N2O+
131.0479	51	C7H5N3+
132.0558	10	C7H6N3+
133.0448	1	C9H6F+
145.0396	1	C8H5N2O+
147.079	1	C8H9N3+
150.0663	9	C7H8N3O+
157.045	6	C11H6F+
158.035	4	C8H4N3O+
158.0402	3	C10H5FN+
159.0428	89	C8H5N3O+
160.0506	18	C8H6N3O+
160.0617	1	C7H6N5+
166.0651	4	C12H8N+
172.0556	3	C11H7FN+
174.03	3	C8H4N3O2+
174.0716	4	C11H9FN+
176.0455	3	C8H6N3O2+
182.04	1	C12H5FN+
184.0558	48	C12H7FN+
185.0636	8	C12H8FN+
186.03	10	C9H4N3O2+
186.0411	32	C8H4N5O+
191.0326	33	C8H5N3O3+
195.0482	1	C13H6FN+
199.0668	17	C12H8FN2+
200.0506	1	C12H7FNO+
206.0713	1	C13H8N3+
209.0511	4	C13H6FN2+
210.0589	2	C13H7FN2+
225.0696	1	C13H8FN3+
226.0777	9	C13H9FN3+
254.0723	3	C14H9FN3O+
264.0573	2	C15H7FN3O+
282.0675	19	C15H9FN3O2+
