Mass spectrum: Imazamox; LC-ESI-ITFT; MS2; CE: 35%; R=7500; [M+H]+
Name: Imazamox
Name: 2-(4-isopropyl-5-keto-4-methyl-2-imidazolin-2-yl)-5-(methoxymethyl)nicotinic acid
Formula: C15H19N3O4
Exact mass: 305.1376
SMILES: O=C(O)c1c(ncc(c1)COC)/C2=N/C(C(=O)N2)(C(C)C)C
InChI: InChI=1S/C15H19N3O4/c1-8(2)15(3)14(21)17-12(18-15)11-10(13(19)20)5-9(6-16-11)7-22-4/h5-6,8H,7H2,1-4H3,(H,19,20)(H,17,18,21)
Instrument: LTQ Orbitrap XL Thermo Scientific
Instrument type: LC-ESI-ITFT
Ms type: MS2
Ion mode: POSITIVE
Ionization: ESI
Fragmentation mode: CID
Collision energy: 35 % (nominal)
Resolution: 7500
Column name: XBridge C18 3.5um, 2.1x50mm, Waters
Retention time: 5.7 min
Base peak: 306.1456
Precursor m/z: 306.1448
Precursor type: [M+H]+
m/z	relative intensity	assigned
114.0913	1	C6H12NO+
149.071	8	C8H9N2O+
191.0818	6	C10H11N2O2+
192.077	25	C9H10N3O2+
193.0609	26	C9H9N2O3+
210.0875	5	C9H12N3O3+
217.1339	198	C13H17N2O+
218.0917	1	C11H12N3O2+
219.1127	5	C12H15N2O2+
220.1082	16	C11H14N3O2+
221.0914	1	C11H13N2O3+
234.1601	21	C13H20N3O+
235.0951	3	C11H13N3O3+
243.1131	18	C14H15N2O2+
246.0876	177	C12H12N3O3+
260.1397	266	C14H18N3O2+
261.1238	766	C14H17N2O3+
262.1552	16	C14H20N3O2+
263.0905	5	C12H13N3O4+
264.0981	999	C12H14N3O4+
278.1502	488	C14H20N3O3+
288.1343	142	C15H18N3O3+
