Mass spectrum: Pinoxaden; LC-ESI-ITFT; MS2; CE: 30%; R=15000; [M+H]+
Name: Pinoxaden
Name: 8-(2,6-diethyl-4-methylphenyl)-1,2,4,5-tetrahydro-7-oxo-7H-pyrazolo(1,2-d)(1,4,5)oxadiazepin-9-yl 2,2-dimethylpropanoate
Formula: C23H32N2O4
Exact mass: 400.2368
SMILES: CC(C)(C)C(=O)O/C2=C(/C(=O)N1CCOCCN12)c3c(CC)cc(C)cc3CC
InChI: InChI=1S/C23H32N2O4/c1-7-16-13-15(3)14-17(8-2)18(16)19-20(26)24-9-11-28-12-10-25(24)21(19)29-22(27)23(4,5)6/h13-14H,7-12H2,1-6H3
Instrument: LTQ Orbitrap XL Thermo Scientific
Instrument type: LC-ESI-ITFT
Ms type: MS2
Ion mode: POSITIVE
Ionization: ESI
Fragmentation mode: HCD
Collision energy: 30 % (nominal)
Resolution: 15000
Column name: XBridge C18 3.5um, 2.1x50mm, Waters
Retention time: 13.7 min
Base peak: 401.2442
Precursor m/z: 401.2435
Precursor type: [M+H]+
m/z	relative intensity	assigned
57.0698	39	C4H9+
317.1861	999	C18H25N2O3+
401.2431	128	C23H33N2O4+
