Mass spectrum: Warfarin; LC-ESI-QFT; MS2; CE: 15; R=35000; [M-H]-
Name: Warfarin
Name: 2-hydroxy-3-(3-oxo-1-phenylbutyl)chromen-4-one
Name: Coumafen
Formula: C19H16O4
Exact mass: 308.10486
SMILES: O=C\1c3c(OC(/O)=C/1C(c2ccccc2)CC(=O)C)cccc3
InChI: InChI=1S/C19H16O4/c1-12(20)11-15(13-7-3-2-4-8-13)17-18(21)14-9-5-6-10-16(14)23-19(17)22/h2-10,15,22H,11H2,1H3
Instrument: Q Exactive Orbitrap Thermo Scientific
Instrument type: LC-ESI-QFT
Ms type: MS2
Ion mode: NEGATIVE
Ionization: ESI
Fragmentation mode: HCD
Collision energy: 15 (nominal)
Resolution: 35000
Column name: XBridge C18 3.5um, 2.1x50mm, Waters
Retention time: 10.6 min
Base peak: 307.0978
Precursor m/z: 307.0976
Precursor type: [M-H]-
m/z	relative intensity	assigned
57.0346	3	C3H5O-
117.0346	2	C8H5O-
161.0245	119	C9H5O3-
223.0766	1	C15H11O2-
250.0637	25	C16H10O3-
263.1073	1	C18H15O2-
307.0976	999	C19H15O4-
