Mass spectrum: Flumioxazin; LC-ESI-QFT; MS2; CE: 60; R=35000; [M+H]+
Name: Flumioxazin
Name: 2-(7-fluoranyl-3-oxidanylidene-4-prop-2-ynyl-1,4-benzoxazin-6-yl)-4,5,6,7-tetrahydroisoindole-1,3-dione
Formula: C19H15FN2O4
Exact mass: 354.10159
SMILES: O=C3\C4=C(/C(=O)N3c2c(F)cc1OCC(=O)N(c1c2)CC#C)CCCC4
InChI: InChI=1S/C19H15FN2O4/c1-2-7-21-15-9-14(13(20)8-16(15)26-10-17(21)23)22-18(24)11-5-3-4-6-12(11)19(22)25/h1,8-9H,3-7,10H2
Instrument: Q Exactive Orbitrap Thermo Scientific
Instrument type: LC-ESI-QFT
Ms type: MS2
Ion mode: POSITIVE
Ionization: ESI
Fragmentation mode: HCD
Collision energy: 60 (nominal)
Resolution: 35000
Column name: XBridge C18 3.5um, 2.1x50mm, Waters
Retention time: 9.7 min
Base peak: 355.1088
Precursor m/z: 355.1089
Precursor type: [M+H]+
m/z	relative intensity	assigned
51.023	3	C4H3+
53.0388	6	C4H5+
55.018	3	C3H3O+
65.0386	4	C5H5+
67.0417	12	C4H5N+
67.0542	29	C5H7+
68.0257	3	C4H4O+
68.0496	29	C4H6N+
75.0229	5	C6H3+
77.0385	98	C6H5+
78.0338	20	C5H4N+
79.0542	638	C6H7+
80.0494	3	C5H6N+
80.062	48	C6H8+
81.0335	50	C5H5O+
81.0699	103	C6H9+
91.0542	31	C7H7+
93.0698	17	C7H9+
95.0491	151	C6H7O+
97.0648	18	C6H9O+
99.0602	3	C6H8F+
101.0385	4	C8H5+
103.0543	6	C8H7+
104.0494	17	C7H6N+
105.0335	26	C7H5O+
105.0447	76	C6H5N2+
106.0289	13	C6H4NO+
106.065	5	C7H8N+
107.0491	695	C7H7O+
108.0569	44	C7H8O+
109.0647	5	C7H9O+
116.0495	4	C8H6N+
117.0573	4	C8H7N+
118.0651	20	C8H8N+
119.049	11	C8H7O+
120.0371	5	C8H5F+
121.0448	346	C8H6F+
122.0399	19	C7H5FN+
124.0194	6	C6H3FNO+
126.0347	5	C6H5FNO+
127.0554	4	C7H8FO+
128.0494	73	C9H6N+
129.0446	57	C8H5N2+
130.0651	5	C9H8N+
132.0442	24	C8H6NO+
133.0447	12	C9H6F+
134.04	61	C8H5FN+
134.06	28	C8H8NO+
135.0435	68	C8H7O2+
136.0558	14	C8H7FN+
138.0349	69	C7H5FNO+
140.0141	4	C6H3FNO2+
141.0697	3	C11H9+
143.0604	6	C9H7N2+
145.0759	5	C9H9N2+
146.0402	28	C9H5FN+
146.0599	38	C9H8NO+
147.048	12	C9H6FN+
148.0556	700	C9H7FN+
149.0397	232	C9H6FO+
149.0508	24	C8H6FN2+
149.0635	67	C9H8FN+
150.0349	73	C8H5FNO+
151.0302	24	C7H4FN2O+
151.0427	4	C8H6FNO+
152.0141	33	C7H3FNO2+
152.0503	16	C8H7FNO+
154.0293	3	C7H5FNO2+
154.0649	13	C11H8N+
155.0601	20	C10H7N2+
156.0442	48	C10H6NO+
156.0809	13	C11H10N+
157.0522	3	C10H7NO+
158.0403	3	C10H5FN+
160.0433	6	C9H5FN2+
160.0557	18	C10H7FN+
161.0507	11	C9H6FN2+
161.0638	4	C10H8FN+
162.035	33	C9H5FNO+
162.0586	6	C9H7FN2+
162.071	4	C10H9FN+
163.0303	26	C8H4FN2O+
163.0426	32	C9H6FNO+
163.0666	24	C9H8FN2+
164.0505	48	C9H7FNO+
164.0705	3	C9H10NO2+
165.0459	15	C8H6FN2O+
165.07	4	C13H9+
166.0299	15	C8H5FNO2+
166.0659	40	C9H9FNO+
167.0729	17	C12H9N+
168.081	23	C12H10N+
169.0758	3	C11H9N2+
170.0597	8	C11H8NO+
171.0551	29	C10H7N2O+
172.0391	4	C10H6NO2+
172.0561	3	C11H7FN+
173.0512	20	C10H6FN2+
173.0634	2	C11H8FN+
173.0705	3	C10H9N2O+
174.0346	6	C10H5FNO+
174.0549	13	C10H8NO2+
174.0711	11	C11H9FN+
175.0427	24	C10H6FNO+
175.0667	15	C10H8FN2+
176.0505	505	C10H7FNO+
177.0461	53	C9H6FN2O+
177.0583	113	C10H8FNO+
178.0297	16	C9H5FNO2+
178.0533	3	C9H7FN2O+
178.0659	6	C13H8N+
179.0251	56	C8H4FN2O2+
179.0613	15	C9H8FN2O+
180.0453	6	C9H7FNO2+
180.0683	3	C12H8N2+
180.0806	7	C13H10N+
181.0758	21	C12H9N2+
181.0887	6	C13H11N+
182.0595	5	C12H8NO+
182.083	3	C12H10N2+
182.0965	5	C13H12N+
183.0552	5	C11H7N2O+
183.0677	4	C12H9NO+
184.0392	5	C11H6NO2+
184.0557	11	C12H7FN+
184.0755	7	C12H10NO+
185.0631	14	C12H8FN+
185.0708	6	C11H9N2O+
186.0586	15	C11H7FN2+
186.0712	23	C12H9FN+
187.0664	4	C11H8FN2+
188.0508	23	C11H7FNO+
188.0869	6	C12H11FN+
189.0459	70	C10H6FN2O+
189.0588	5	C11H8FNO+
190.0537	131	C10H7FN2O+
191.025	14	C9H4FN2O2+
191.0613	82	C10H8FN2O+
192.069	19	C10H9FN2O+
192.0804	5	C14H10N+
193.0409	11	C9H6FN2O2+
193.0767	27	C10H10FN2O+
194.0612	6	C10H9FNO2+
194.0841	6	C13H10N2+
194.097	3	C14H12N+
195.0549	4	C12H7N2O+
195.0917	33	C13H11N2+
196.0757	19	C13H10NO+
197.0711	11	C12H9N2O+
198.0715	34	C13H9FN+
199.0502	15	C11H7N2O2+
199.0663	4	C12H8FN2+
200.0744	3	C12H9FN2+
200.0868	21	C13H11FN+
201.0461	33	C11H6FN2O+
201.058	19	C12H8FNO+
201.0662	4	C11H9N2O2+
201.0825	11	C12H10FN2+
202.0536	13	C11H7FN2O+
202.0662	16	C12H9FNO+
202.1025	6	C13H13FN+
203.0376	5	C11H6FNO2+
203.0614	56	C11H8FN2O+
203.0736	4	C15H9N+
204.0456	121	C11H7FNO2+
204.0818	41	C12H11FNO+
205.0408	51	C10H6FN2O2+
205.0537	3	C11H8FNO2+
205.0766	26	C14H9N2+
206.0846	6	C14H10N2+
206.0962	5	C15H12N+
207.0915	6	C14H11N2+
208.0635	3	C13H8N2O+
208.0998	5	C14H12N2+
209.0711	37	C13H9N2O+
209.1074	6	C14H13N2+
210.0591	32	C13H7FN2+
210.0914	16	C14H12NO+
211.0666	16	C13H8FN2+
211.0785	5	C14H10FN+
212.0506	12	C13H7FNO+
212.087	81	C14H11FN+
213.046	13	C12H6FN2O+
213.0576	6	C16H7N+
213.0825	16	C13H10FN2+
214.0657	23	C13H9FNO+
215.0615	46	C12H8FN2O+
215.0981	5	C13H12FN2+
216.0454	18	C12H7FNO2+
216.082	32	C13H11FNO+
217.0772	12	C12H10FN2O+
218.0485	3	C11H7FN2O2+
218.0611	4	C12H9FNO2+
218.0839	7	C15H10N2+
218.0978	7	C13H13FNO+
219.0565	173	C11H8FN2O2+
219.0914	14	C15H11N2+
220.0755	5	C15H10NO+
221.0714	24	C14H9N2O+
221.1069	5	C15H13N2+
222.0547	3	C14H8NO2+
222.079	16	C14H10N2O+
222.0915	6	C15H12NO+
223.0505	5	C13H7N2O2+
223.0667	53	C14H8FN2+
223.0866	57	C14H11N2O+
223.1233	6	C15H15N2+
224.0723	18	C11H11FNO3+
224.1064	3	C15H14NO+
225.0825	20	C14H10FN2+
226.0536	31	C13H7FN2O+
226.0663	23	C14H9FNO+
226.1025	14	C15H13FN+
227.0615	15	C13H8FN2O+
228.07	5	C13H9FN2O+
228.0821	15	C14H11FNO+
229.0534	13	C13H8FNO2+
229.0774	63	C13H10FN2O+
229.1128	4	C14H14FN2+
230.0612	67	C13H9FNO2+
230.0975	13	C14H13FNO+
231.0564	37	C12H8FN2O2+
231.0922	24	C16H11N2+
232.0404	105	C12H7FNO3+
232.0768	17	C16H10NO+
233.0706	14	C15H9N2O+
233.1076	4	C16H13N2+
234.0904	4	C16H12NO+
235.0867	23	C15H11N2O+
236.0745	32	C15H9FN2+
236.0941	5	C15H12N2O+
237.066	35	C14H9N2O2+
237.0822	5	C15H10FN2+
238.0662	3	C15H9FNO+
238.0872	13	C15H12NO2+
239.0615	91	C14H8FN2O+
239.0975	6	C15H12FN2+
240.0692	53	C14H9FN2O+
240.082	31	C15H11FNO+
241.0771	59	C14H10FN2O+
241.0897	32	C15H12FNO+
242.0615	21	C14H9FNO2+
243.0566	41	C13H8FN2O2+
243.0925	35	C14H12FN2O+
244.0769	41	C14H11FNO2+
245.0719	6	C13H10FN2O2+
246.0562	23	C13H9FNO3+
246.0928	11	C14H13FNO2+
247.0872	3	C16H11N2O+
249.0661	4	C15H9N2O2+
249.0812	3	C16H10FN2+
249.1024	14	C16H13N2O+
250.0489	3	C15H8NO3+
250.0736	10	C15H10N2O2+
251.0611	12	C15H8FN2O+
251.0816	128	C15H11N2O2+
251.097	15	C16H12FN2+
251.1176	18	C16H15N2O+
252.0693	34	C15H9FN2O+
253.0772	134	C15H10FN2O+
254.0846	4	C18H10N2+
254.0973	5	C16H13FNO+
255.0563	5	C14H8FN2O2+
255.0922	22	C15H12FN2O+
256.0644	14	C14H9FN2O2+
256.0768	6	C15H11FNO2+
257.072	179	C14H10FN2O2+
257.1082	12	C15H14FN2O+
258.0561	27	C14H9FNO3+
258.0924	39	C15H13FNO2+
259.0513	546	C13H8FN2O3+
260.0715	32	C14H11FNO3+
264.0894	6	C16H12N2O2+
265.0614	5	C12H10FN2O4+
265.0772	34	C16H10FN2O+
265.0969	11	C16H13N2O2+
266.0847	47	C16H11FN2O+
267.0563	13	C15H8FN2O2+
267.0929	28	C16H12FN2O+
269.0719	57	C15H10FN2O2+
270.0563	47	C15H9FNO3+
270.0922	5	C16H13FNO2+
271.0513	126	C14H8FN2O3+
271.0877	131	C15H12FN2O2+
272.0717	11	C15H11FNO3+
273.067	26	C14H10FN2O3+
274.0874	65	C15H13FNO3+
275.0825	20	C14H12FN2O3+
279.0765	225	C16H11N2O3+
279.0921	16	C17H12FN2O+
279.1124	16	C17H15N2O2+
281.0718	18	C16H10FN2O2+
281.1086	17	C17H14FN2O+
283.0876	14	C16H12FN2O2+
285.0669	259	C15H10FN2O3+
285.08	75	C16H12FNO3+
287.0826	235	C15H12FN2O3+
297.067	26	C16H10FN2O3+
297.1031	15	C17H14FN2O2+
298.0877	20	C17H13FNO3+
299.0825	999	C16H12FN2O3+
301.0985	21	C19H13N2O2+
307.1079	14	C18H15N2O3+
313.098	28	C17H14FN2O3+
316.0853	33	C16H13FN2O4+
325.0988	8	C18H14FN2O3+
327.0775	39	C17H12FN2O4+
327.1136	57	C18H16FN2O3+
