Mass spectrum: Triclopyr; LC-ESI-ITFT; MS2; CE: 15%; R=7500; [M+H]+
Name: Triclopyr
Name: 2-(3,5,6-trichloropyridin-2-yl)oxyacetic acid
Formula: C7H4Cl3NO3
Exact mass: 254.9257
SMILES: ClC1=C(OCC(O)=O)N=C(Cl)C(Cl)=C1
InChI: InChI=1S/C7H4Cl3NO3/c8-3-1-4(9)7(11-6(3)10)14-2-5(12)13/h1H,2H2,(H,12,13)
Instrument: LTQ Orbitrap XL Thermo Scientific
Instrument type: LC-ESI-ITFT
Ms type: MS2
Ion mode: POSITIVE
Ionization: ESI
Fragmentation mode: HCD
Collision energy: 15 % (nominal)
Resolution: 7500
Column name: XBridge C18 3.5um, 2.1x50mm, Waters
Retention time: 10.3 min
Base peak: 255.9336
Precursor m/z: 255.933
Precursor type: [M+H]+
m/z	relative intensity	assigned
145.9564	4	C5H2Cl2N+
179.9165	3	C5HCl3N+
181.9326	6	C5H3Cl3N+
197.9273	97	C5H3Cl3NO+
209.9273	240	C6H3Cl3NO+
237.9224	424	C7H3Cl3NO2+
255.933	999	C7H5Cl3NO3+
