Mass spectrum: Acamprosate; LC-ESI-ITFT; MS2; CE: 90%; R=7500; [M+H]+
Name: Acamprosate
Name: 3-acetamido-1-propanesulfonic acid
Formula: C5H11NO4S
Exact mass: 181.0409
SMILES: O=S(=O)(O)CCCNC(=O)C
InChI: InChI=1S/C5H11NO4S/c1-5(7)6-3-2-4-11(8,9)10/h2-4H2,1H3,(H,6,7)(H,8,9,10)
Instrument: LTQ Orbitrap XL Thermo Scientific
Instrument type: LC-ESI-ITFT
Ms type: MS2
Ion mode: POSITIVE
Ionization: ESI
Fragmentation mode: HCD
Collision energy: 90 % (nominal)
Resolution: 7500
Column name: XBridge C18 3.5um, 2.1x50mm, Waters
Retention time: 1.0 min
Base peak: 182.0486
Precursor m/z: 182.0482
Precursor type: [M+H]+
m/z	relative intensity	assigned
58.065	75	C3H8N+
59.0491	100	C3H7O+
100.0755	33	C5H10NO+
122.0276	39	C3H8NO2S+
123.0109	999	C3H7O3S+
140.0371	148	C3H10NO3S+
