Mass spectrum: Ethyl 3-(N-butylacetamido)propanoate; LC-ESI-QFT; MS2; CE: 120%; R=17500; [M+H]+
Name: Ethyl 3-(N-butylacetamido)propanoate
Name: Ethyl butylacetylaminopropionate
Name: ethyl 3-[acetyl(butyl)amino]propanoate
Formula: C11H21NO3
Exact mass: 215.1521
SMILES: CCCCN(CCC(=O)OCC)C(=O)C
InChI: InChI=1S/C11H21NO3/c1-4-6-8-12(10(3)13)9-7-11(14)15-5-2/h4-9H2,1-3H3
Instrument: Exploris 240 Orbitrap Thermo Scientific
Instrument type: LC-ESI-QFT
Ms type: MS2
Ion mode: POSITIVE
Ionization: ESI
Fragmentation mode: HCD
Collision energy: 120 % (nominal)
Resolution: 17500
Column name: XBridge C18 3.5um, 2.1x50mm, Waters
Retention time: 6.563 min
Base peak: 216.1592
Precursor m/z: 216.1594
Precursor type: [M+H]+
m/z	relative intensity	assigned
55.0179	229	C3H3O+
57.0699	999	C4H9+
60.0445	27	C2H6NO+
72.0444	35	C3H6NO+
73.0285	100	C3H5O2+
86.0964	328	C5H12N+
