Mass spectrum: Forchlorfenuron; LC-ESI-QFT; MS2; CE: 45; R=35000; [M+H]+
Name: Forchlorfenuron
Name: N-(2-chloro-4-pyridyl)-N`-phenylurea
Name: 1-(2-chloropyridin-4-yl)-3-phenylurea
Formula: C12H10ClN3O
Exact mass: 247.05124
SMILES: C1=CC=C(C=C1)NC(=O)NC2=CC(=NC=C2)Cl
InChI: InChI=1S/C12H10ClN3O/c13-11-8-10(6-7-14-11)16-12(17)15-9-4-2-1-3-5-9/h1-8H,(H2,14,15,16,17)
Instrument: Q Exactive Plus Orbitrap Thermo Scientific
Instrument type: LC-ESI-QFT
Ms type: MS2
Ion mode: POSITIVE
Ionization: ESI
Fragmentation mode: HCD
Collision energy: 45 (nominal)
Resolution: 35000
Column name: XBridge C18 3.5um, 2.1x50mm, Waters
Retention time: 8.8 min
Base peak: 248.0579
Precursor m/z: 248.0585
Precursor type: [M+H]+
m/z	relative intensity	assigned
66.0336	1	C4H4N+
93.0447	9	C5H5N2+
94.0652	15	C6H8N+
111.0553	72	C5H7N2O+
120.0443	1	C7H6NO+
129.0213	999	C5H6ClN2+
130.0054	6	C5H5ClNO+
137.0346	4	C3H8ClN3O+
155.0007	142	C6H4ClN2O+
248.0586	2	C12H11ClN3O+
