Mass spectrum: DEET; LC-ESI-ITFT; MS2; CE: 60%; R=15000; [M+H]+
Name: DEET
Name: N,N-Diethyl-m-toluamide
Name: N,N-diethyl-3-methyl-benzamide
Formula: C12H17NO
Exact mass: 191.1305
SMILES: c1(C(N(CC)CC)=O)cc(C)ccc1
InChI: InChI=1S/C12H17NO/c1-4-13(5-2)12(14)11-8-6-7-10(3)9-11/h6-9H,4-5H2,1-3H3
Instrument: LTQ Orbitrap XL Thermo Scientific
Instrument type: LC-ESI-ITFT
Ms type: MS2
Ion mode: POSITIVE
Ionization: ESI
Fragmentation mode: HCD
Collision energy: 60 % (nominal)
Resolution: 15000
Column name: XBridge C18 3.5um, 2.1x50mm, Waters
Retention time: 8.6 min
Base peak: 192.1386
Precursor m/z: 192.1383
Precursor type: [M+H]+
m/z	relative intensity	assigned
65.0385	5	C5H5+
67.0542	1	C5H7+
72.0444	39	C3H6NO+
72.0808	2	C4H10N+
77.0386	1	C6H5+
91.0543	106	C7H7+
93.0702	1	C7H9+
100.0757	31	C5H10NO+
109.0648	12	C7H9O+
118.0651	2	C8H8N+
119.0492	999	C8H7O+
192.1384	123	C12H18NO+
