Mass spectrum: Torsemide; LC-ESI-QFT; MS2; CE: 30; R=35000; [M-H]-
Name: Torsemide
Name: SMR000466313
Name: 1-[4-(3-methylanilino)pyridin-3-yl]sulfonyl-3-propan-2-ylurea
Formula: C16H20N4O3S
Exact mass: 348.12561
SMILES: O=S(=O)(c2c(Nc1cc(ccc1)C)ccnc2)NC(=O)NC(C)C
InChI: InChI=1S/C16H20N4O3S/c1-11(2)18-16(21)20-24(22,23)15-10-17-8-7-14(15)19-13-6-4-5-12(3)9-13/h4-11H,1-3H3,(H,17,19)(H2,18,20,21)
Instrument: Q Exactive Orbitrap Thermo Scientific
Instrument type: LC-ESI-QFT
Ms type: MS2
Ion mode: NEGATIVE
Ionization: ESI
Fragmentation mode: HCD
Collision energy: 30 (nominal)
Resolution: 35000
Column name: XBridge C18 3.5um, 2.1x50mm, Waters
Retention time: 6.8 min
Base peak: 347.1184
Precursor m/z: 347.1183
Precursor type: [M-H]-
m/z	relative intensity	assigned
60.9754	2	CHOS-
77.9655	1	NO2S-
92.038	1	C5H4N2-
93.0457	1	C5H5N2-
108.033	3	C5H4N2O-
150.9971	1	C6H3N2OS-
156	4	C5H4N2O2S-
181.0759	3	C4H13N4O2S-
183.0926	1	C4H15N4O2S-
195.08	13	C12H9N3-
196.088	16	C12H10N3-
198.1036	4	C12H12N3-
210.0671	1	C12H8N3O-
226.0443	2	C12H8N3S-
244.0551	7	C12H10N3OS-
262.0655	999	C12H12N3O2S-
288.0443	2	C13H10N3O3S-
