Mass spectrum: Fexofenadine; LC-ESI-QFT; MS2; CE: 30; R=35000; [M-H]-
Name: Fexofenadine
Name: 2-[4-[1-hydroxy-4-[4-[hydroxy(diphenyl)methyl]-1-piperidinyl]butyl]phenyl]-2-methylpropanoic acid
Formula: C32H39NO4
Exact mass: 501.28791
SMILES: CC(C)(C1=CC=C(C=C1)C(CCCN2CCC(CC2)C(C3=CC=CC=C3)(C4=CC=CC=C4)O)O)C(=O)O
InChI: InChI=1S/C32H39NO4/c1-31(2,30(35)36)25-17-15-24(16-18-25)29(34)14-9-21-33-22-19-28(20-23-33)32(37,26-10-5-3-6-11-26)27-12-7-4-8-13-27/h3-8,10-13,15-18,28-29,34,37H,9,14,19-23H2,1-2H3,(H,35,36)
Instrument: Q Exactive Orbitrap Thermo Scientific
Instrument type: LC-ESI-QFT
Ms type: MS2
Ion mode: NEGATIVE
Ionization: ESI
Fragmentation mode: HCD
Collision energy: 30 (nominal)
Resolution: 35000
Column name: XBridge C18 3.5um, 2.1x50mm, Waters
Retention time: 8.2 min
Base peak: 500.2812
Precursor m/z: 500.2806
Precursor type: [M-H]-
m/z	relative intensity	assigned
69.0346	8	C4H5O-
83.0502	1	C5H7O-
84.0456	1	C4H6NO-
86.0612	2	C4H8NO-
110.0612	21	C6H8NO-
112.0768	16	C6H10NO-
119.0502	1	C8H7O-
120.0456	3	C7H6NO-
121.0295	4	C7H5O2-
133.0658	1	C9H9O-
144.058	1	C10H8O-
145.0659	38	C10H9O-
147.0816	35	C10H11O-
152.1081	3	C9H14NO-
154.1239	6	C9H16NO-
157.0658	3	C11H9O-
159.0815	26	C11H11O-
170.0975	22	C12H12N-
180.103	8	C10H14NO2-
181.0659	3	C13H9O-
182.1186	16	C10H16NO2-
183.0815	25	C13H11O-
185.0845	6	C12H11NO-
186.0925	2	C12H12NO-
187.1128	2	C13H15O-
188.1081	108	C12H14NO-
190.0877	1	C11H12NO2-
230.1549	56	C15H20NO-
240.1395	2	C16H18NO-
258.15	999	C16H20NO2-
266.155	3	C18H20NO-
300.197	20	C19H26NO2-
302.212	1	C19H28NO2-
348.2322	1	C24H30NO-
360.2332	21	C25H30NO-
376.2284	10	C25H30NO2-
378.2438	751	C25H32NO2-
456.2914	17	C31H38NO2-
