Mass spectrum: Bromazepam; LC-ESI-QFT; MS2; CE: 120; R=35000; [M+H]+
Name: Bromazepam
Name: 7-bromo-5-pyridin-2-yl-1,3-dihydro-1,4-benzodiazepin-2-one
Formula: C14H10BrN3O
Exact mass: 315.00072
SMILES: C1C(=O)NC2=C(C=C(C=C2)Br)C(=N1)C3=CC=CC=N3
InChI: InChI=1S/C14H10BrN3O/c15-9-4-5-11-10(7-9)14(17-8-13(19)18-11)12-3-1-2-6-16-12/h1-7H,8H2,(H,18,19)
Instrument: Q Exactive Plus Orbitrap Thermo Scientific
Instrument type: LC-ESI-QFT
Ms type: MS2
Ion mode: POSITIVE
Ionization: ESI
Fragmentation mode: HCD
Collision energy: 120 (nominal)
Resolution: 35000
Column name: XBridge C18 3.5um, 2.1x50mm, Waters
Retention time: 7.0 min
Base peak: 316.0073
Precursor m/z: 316.008
Precursor type: [M+H]+
m/z	relative intensity	assigned
50.0151	26	C4H2+
51.0228	16	C4H3+
52.0307	8	C4H4+
53.0386	46	C4H5+
54.0338	6	C3H4N+
55.0416	4	C3H5N+
62.015	1	C5H2+
63.0229	11	C5H3+
64.0181	1	C4H2N+
64.0307	4	C5H4+
65.0385	24	C5H5+
66.0464	8	C5H6+
67.0416	7	C4H5N+
74.015	1	C6H2+
75.0228	12	C6H3+
76.018	3	C5H2N+
76.0307	35	C6H4+
77.0385	36	C6H5+
78.0338	132	C5H4N+
78.0464	113	C6H6+
79.0416	71	C5H5N+
80.0494	136	C5H6N+
81.0334	1	C5H5O+
82.0287	1	C4H4NO+
88.0307	5	C7H4+
89.0385	43	C7H5+
90.0338	9	C6H4N+
90.0464	24	C7H6+
91.0417	9	C6H5N+
91.0542	1	C7H7+
92.0494	5	C6H6N+
93.0573	4	C6H7N+
94.0413	1	C6H6O+
95.0365	27	C5H5NO+
95.0491	58	C6H7O+
96.0443	189	C5H6NO+
102.0337	3	C7H4N+
102.0464	24	C8H6+
103.0416	50	C7H5N+
103.0542	25	C8H7+
104.0494	533	C7H6N+
105.0447	78	C6H5N2+
105.0573	100	C7H7N+
106.0285	1	C6H4NO+
107.0602	3	C6H7N2+
110.0601	5	C6H8NO+
111.0314	3	C5H5NO2+
113.0385	5	C9H5+
114.0338	5	C8H4N+
114.0464	9	C9H6+
115.0289	10	C7H3N2+
115.0417	10	C8H5N+
115.0542	24	C9H7+
116.0493	12	C8H6N+
116.9334	1	C3H2Br+
117.0446	4	C7H5N2+
117.0572	22	C8H7N+
117.0699	1	C9H9+
118.0525	1	C7H6N2+
119.049	1	C8H7O+
120.0442	1	C7H6NO+
121.0396	4	C6H5N2O+
125.0384	5	C10H5+
126.0463	21	C10H6+
127.0417	10	C9H5N+
127.0542	59	C10H7+
128.0495	81	C9H6N+
128.0619	27	C10H8+
129.0447	35	C8H5N2+
129.0572	52	C9H7N+
130.0526	54	C8H6N2+
130.0651	271	C9H8N+
131.0603	64	C8H7N2+
132.0442	1	C8H6NO+
132.0569	3	C9H8O+
133.0521	4	C8H7NO+
134.0599	1	C8H8NO+
135.0315	4	C7H5NO2+
137.0385	4	C11H5+
137.047	6	C7H7NO2+
138.0463	14	C11H6+
139.0542	44	C11H7+
140.0494	84	C10H6N+
141.0572	30	C10H7N+
142.0526	17	C9H6N2+
142.0652	9	C10H8N+
143.0603	2	C9H7N2+
144.0444	6	C9H6NO+
145.0648	59	C10H9O+
146.06	48	C9H8NO+
147.0553	1	C8H7N2O+
152.0494	15	C11H6N+
153.0447	9	C10H5N2+
153.0573	84	C11H7N+
154.0651	844	C11H8N+
155.0603	209	C10H7N2+
155.0729	35	C11H9N+
156.0566	3	C11H8O+
156.0681	18	C10H8N2+
156.0806	6	C11H10N+
157.0522	4	C10H7NO+
157.0759	21	C10H9N2+
161.0472	12	C9H7NO2+
162.0423	22	C8H6N2O2+
164.0494	77	C12H6N+
165.0448	4	C11H5N2+
165.0572	53	C12H7N+
166.0531	19	C11H6N2+
166.0651	73	C12H8N+
167.0608	9	C11H7N2+
167.0729	30	C12H9N+
167.9444	4	C6H3BrN+
168.0682	25	C11H8N2+
168.0806	1	C12H10N+
169.076	26	C11H9N2+
170.0599	21	C11H8NO+
171.0551	4	C10H7N2O+
172.9597	6	C6H6BrO+
178.0521	3	C12H6N2+
179.0603	469	C12H7N2+
180.0682	322	C12H8N2+
181.0759	999	C12H9N2+
181.9599	14	C7H5BrN+
182.0718	14	C11H8N3+
182.0838	99	C12H10N2+
182.9552	15	C6H4BrN2+
183.0556	9	C11H7N2O+
183.0677	1	C12H9NO+
183.9756	20	C7H7BrN+
184.063	8	C11H8N2O+
184.0753	1	C12H10NO+
185.0469	3	C11H7NO2+
185.0709	5	C11H9N2O+
186.0425	1	C10H6N2O2+
190.0524	1	C13H6N2+
191.0603	28	C13H7N2+
192.0681	59	C13H8N2+
193.0633	10	C12H7N3+
193.0759	11	C13H9N2+
193.9475	1	C7H3BrN2+
194.0711	5	C12H8N3+
195.0552	3	C12H7N2O+
197.0709	3	C12H9N2O+
206.0713	80	C13H8N3+
207.0791	265	C13H9N3+
208.0869	100	C13H10N3+
208.9708	22	C8H6BrN2+
209.0707	4	C13H9N2O+
212.058	58	C12H8N2O2+
217.0634	1	C14H7N3+
218.0711	1	C14H8N3+
221.9423	5	C8H3BrN2O+
231.9756	10	C11H7BrN+
244.9831	7	C12H8BrN+
258.9865	226	C12H8BrN2+
259.9942	8	C12H9BrN2+
