Mass spectrum: Risperidone; LC-ESI-QFT; MS2; CE: 180; R=35000; [M+H]+
Name: Risperidone
Name: 3-[2-[4-(6-fluoro-1,2-benzoxazol-3-yl)piperidin-1-yl]ethyl]-2-methyl-6,7,8,9-tetrahydropyrido[1,2-a]pyrimidin-4-one
Formula: C23H27FN4O2
Exact mass: 410.21180
SMILES: CC1=C(C(=O)N2CCCCC2=N1)CCN3CCC(CC3)C4=NOC5=C4C=CC(=C5)F
InChI: InChI=1S/C23H27FN4O2/c1-15-18(23(29)28-10-3-2-4-21(28)25-15)9-13-27-11-7-16(8-12-27)22-19-6-5-17(24)14-20(19)30-26-22/h5-6,14,16H,2-4,7-13H2,1H3
Instrument: Q Exactive Plus Orbitrap Thermo Scientific
Instrument type: LC-ESI-QFT
Ms type: MS2
Ion mode: POSITIVE
Ionization: ESI
Fragmentation mode: HCD
Collision energy: 180 (nominal)
Resolution: 35000
Column name: XBridge C18 3.5um, 2.1x50mm, Waters
Retention time: 5.4 min
Base peak: 411.2187
Precursor m/z: 411.2191
Precursor type: [M+H]+
m/z	relative intensity	assigned
50.0151	27	C4H2+
51.023	58	C4H3+
52.0182	37	C3H2N+
53.0022	181	C3HO+
53.0386	225	C4H5+
53.9975	44	C2NO+
54.0338	178	C3H4N+
55.0542	999	C4H7+
56.0131	2	C2H2NO+
56.0495	12	C3H6N+
63.0229	42	C5H3+
64.0308	19	C5H4+
65.0386	343	FH4N3+
66.0339	16	C4H4N+
66.0464	40	C5H6+
67.0178	111	C4H3O+
67.0417	296	C4H5N+
67.0542	39	C5H7+
68.0257	23	
68.0495	424	C4H6N+
69.0083	12	
69.0335	44	C4H5O+
70.0285	2	C3H4NO+
77.0385	23	C6H5+
78.0087	5	C3N3+
78.0338	33	C5H4N+
78.0464	8	C6H6+
79.0416	8	C5H5N+
79.0542	24	C6H7+
80.0494	321	C5H6N+
81.0336	8	C5H5O+
81.0447	11	C4H5N2+
81.0573	18	C5H7N+
82.0651	94	C5H8N+
83.029	2	C5H4F+
89.0386	7	C7H5+
90.0339	7	C6H4N+
91.0416	13	C6H5N+
91.0542	11	C7H7+
92.0494	25	C6H6N+
93.0573	19	C6H7N+
94.0288	4	C5H4NO+
94.0652	86	C6H8N+
95.0491	59	C6H7O+
95.0605	3	C5H7N2+
96.0444	30	C5H6NO+
103.0542	10	C8H7+
104.0495	25	C7H6N+
105.0448	82	C6H5N2+
106.0524	4	C6H6N2+
106.0652	24	C7H8N+
107.0603	14	C6H7N2+
107.0731	10	C7H9N+
108.0441	3	CH5FN4O+
110.0601	12	C6H8NO+
117.0573	16	C8H7N+
118.0649	3	C3H7FN4+
119.0606	9	C7H7N2+
121.0761	19	C7H9N2+
130.0651	16	C9H8N+
131.0605	12	C8H7N2+
131.0728	2	C4H8FN4+
132.0681	4	C8H8N2+
132.0808	3	C9H10N+
133.0448	4	C9H6F+
133.076	5	C8H9N2+
135.0554	5	C7H7N2O+
147.0917	2	C9H11N2+
149.071	2	C8H9N2O+
161.0708	3	C9H9N2O+
