Mass spectrum: Diuron; LC-ESI-ITFT; MS2; CE: 90%; R=30000; [M+H]+
Name: Diuron
Name: 3-(3,4-dichlorophenyl)-1,1-dimethyl-urea
Formula: C9H10Cl2N2O
Exact mass: 232.0165
SMILES: c1(c(ccc(c1)NC(N(C)C)=O)Cl)Cl
InChI: InChI=1S/C9H10Cl2N2O/c1-13(2)9(14)12-6-3-4-7(10)8(11)5-6/h3-5H,1-2H3,(H,12,14)
Instrument: LTQ Orbitrap XL Thermo Scientific
Instrument type: LC-ESI-ITFT
Ms type: MS2
Ion mode: POSITIVE
Ionization: ESI
Fragmentation mode: HCD
Collision energy: 90 % (nominal)
Resolution: 30000
Column name: XBridge C18 3.5um, 2.1x50mm, Waters
Retention time: 8.9 min
Base peak: 233.0247
Precursor m/z: 233.0243
Precursor type: [M+H]+
m/z	relative intensity	assigned
56.013	4	C2H2NO+
72.0444	999	C3H6NO+
108.9839	4	C6H2Cl+
123.9948	8	C6H3ClN+
125.0026	21	C6H4ClN+
132.9606	48	C5H3Cl2+
152.9974	6	C7H4ClNO+
159.9715	83	C6H4Cl2N+
172.9668	16	C6H3Cl2N2+
173.0127	1	C5H11Cl2O2+
