Mass spectrum: 2-Octyl-3(2H)-isothiazolone; LC-ESI-ITFT; MS2; CE: 60%; R=15000; [M+H]+
Name: 2-Octyl-3(2H)-isothiazolone
Name: 2-octyl-1,2-thiazol-3-one
Formula: C11H19NOS
Exact mass: 213.1182
SMILES: n1(c(ccs1)=O)CCCCCCCC
InChI: InChI=1S/C11H19NOS/c1-2-3-4-5-6-7-9-12-11(13)8-10-14-12/h8,10H,2-7,9H2,1H3
Instrument: LTQ Orbitrap XL Thermo Scientific
Instrument type: LC-ESI-ITFT
Ms type: MS2
Ion mode: POSITIVE
Ionization: ESI
Fragmentation mode: HCD
Collision energy: 60 % (nominal)
Resolution: 15000
Column name: XBridge C18 3.5um, 2.1x50mm, Waters
Retention time: 11.6 min
Base peak: 214.1263
Precursor m/z: 214.126
Precursor type: [M+H]+
m/z	relative intensity	assigned
57.0698	86	C4H9+
71.0855	52	C5H11+
102.0008	999	C3H4NOS+
