Mass spectrum: TCMTB (Busan); LC-ESI-QFT; MS2; CE: 75%; R=17500; [M+H]+
Name: TCMTB (Busan)
Name: 2-(Thiocyanomethylthio)benzothiazole
Name: 1,3-benzothiazol-2-ylsulfanylmethyl thiocyanate
Formula: C9H6N2S3
Exact mass: 237.9693
SMILES: C1=CC=C2C(=C1)N=C(S2)SCSC#N
InChI: InChI=1S/C9H6N2S3/c10-5-12-6-13-9-11-7-3-1-2-4-8(7)14-9/h1-4H,6H2
Instrument: Exploris 240 Orbitrap Thermo Scientific
Instrument type: LC-ESI-QFT
Ms type: MS2
Ion mode: POSITIVE
Ionization: ESI
Fragmentation mode: HCD
Collision energy: 75 % (nominal)
Resolution: 17500
Column name: XBridge C18 3.5um, 2.1x50mm, Waters
Retention time: 8.597 min
Base peak: 238.9763
Precursor m/z: 238.9766
Precursor type: [M+H]+
m/z	relative intensity	assigned
71.9902	50	C2H2NS+
77.0386	16	C6H5+
104.0494	20	C7H6N+
105.0446	8	C6H5N2+
109.0106	53	C6H5S+
116.0494	79	C8H6N+
122.0183	18	C7H6S+
136.0215	999	C7H6NS+
148.0214	7	C8H6NS+
152.9828	14	C7H5S2+
166.9856	63	C7H5NS2+
167.9936	9	C7H6NS2+
179.9936	203	C8H6NS2+
