Mass spectrum: N-Nitrosodiphenylamine; LC-ESI-QFT; MS2; CE: 90; R=70000; [M+H]+
Name: N-Nitrosodiphenylamine
Name: N,N-diphenylnitrous amide
Formula: C12H10N2O
Exact mass: 198.07931
SMILES: O=NN(c1ccccc1)c2ccccc2
InChI: InChI=1S/C12H10N2O/c15-13-14(11-7-3-1-4-8-11)12-9-5-2-6-10-12/h1-10H
Instrument: Q Exactive Plus Orbitrap Thermo Scientific
Instrument type: LC-ESI-QFT
Ms type: MS2
Ion mode: POSITIVE
Ionization: ESI
Fragmentation mode: HCD
Collision energy: 90 (nominal)
Resolution: 70000
Column name: XBridge C18 3.5um, 2.1x50mm, Waters
Retention time: 10.1 min
Base peak: 199.0865
Precursor m/z: 199.0866
Precursor type: [M+H]+
m/z	relative intensity	assigned
50.0151	2	C4H2+
51.0229	3	C4H3+
53.0022	2	C3HO+
53.0386	10	C4H5+
65.0386	83	C5H5+
66.0464	999	C5H6+
77.0385	14	C6H5+
81.0334	1	C5H5O+
91.0416	3	C6H5N+
95.0491	88	C6H7O+
104.0494	49	C7H6N+
105.0447	25	C6H5N2+
117.0573	1	C8H7N+
141.0698	6	C11H9+
142.0778	1	C11H10+
143.0729	3	C10H9N+
154.0651	2	C11H8N+
167.073	79	C12H9N+
168.0808	118	C12H10N+
169.0886	2	C12H11N+
