Mass spectrum: Bufexamac; LC-ESI-QFT; MS2; CE: 75; R=35000; [M+H]+
Name: Bufexamac
Name: 2-(4-butoxyphenyl)-N-hydroxyacetamide
Formula: C12H17NO3
Exact mass: 223.12084
SMILES: CCCCOC1=CC=C(C=C1)CC(=O)NO
InChI: InChI=1S/C12H17NO3/c1-2-3-8-16-11-6-4-10(5-7-11)9-12(14)13-15/h4-7,15H,2-3,8-9H2,1H3,(H,13,14)
Instrument: Q Exactive Orbitrap Thermo Scientific
Instrument type: LC-ESI-QFT
Ms type: MS2
Ion mode: POSITIVE
Ionization: ESI
Fragmentation mode: HCD
Collision energy: 75 (nominal)
Resolution: 35000
Column name: XBridge C18 3.5um, 2.1x50mm, Waters
Retention time: 8.4 min
Base peak: 224.1282
Precursor m/z: 224.1281
Precursor type: [M+H]+
m/z	relative intensity	assigned
53.0023	1	C3HO+
57.0699	13	C4H9+
65.0386	1	C5H5+
67.0542	4	C5H7+
77.0385	16	C6H5+
79.0542	32	C6H7+
80.0495	4	C5H6N+
81.0335	5	C5H5O+
94.0413	4	C6H6O+
94.0651	13	C6H8N+
95.0491	55	C6H7O+
104.0495	6	C7H6N+
105.0334	1	C7H5O+
105.0448	19	C6H5N2+
107.0492	999	C7H7O+
108.0443	11	C6H6NO+
122.06	16	C7H8NO+
132.0443	1	C8H6NO+
133.0522	6	C8H7NO+
150.055	1	C8H8NO2+
