Mass spectrum: 4-Formylaminoantipyrine; LC-ESI-ITFT; MS2; CE: 60%; R=7500; [M+H]+
Name: 4-Formylaminoantipyrine
Name: N-(1,5-dimethyl-3-oxidanylidene-2-phenyl-pyrazol-4-yl)methanamide
Formula: C12H13N3O2
Exact mass: 231.1008
SMILES: O=C2C(\NC=O)=C(\C)N(C)N2c1ccccc1
InChI: InChI=1S/C12H13N3O2/c1-9-11(13-8-16)12(17)15(14(9)2)10-6-4-3-5-7-10/h3-8H,1-2H3,(H,13,16)
Instrument: LTQ Orbitrap XL Thermo Scientific
Instrument type: LC-ESI-ITFT
Ms type: MS2
Ion mode: POSITIVE
Ionization: ESI
Fragmentation mode: HCD
Collision energy: 60 % (nominal)
Resolution: 7500
Column name: XBridge C18 3.5um, 2.1x50mm, Waters
Retention time: 3.7 min
Base peak: 232.1088
Precursor m/z: 232.1081
Precursor type: [M+H]+
m/z	relative intensity	assigned
53.0387	10	C4H5+
56.0495	605	C3H6N+
58.0651	19	C3H8N+
68.0494	13	C4H6N+
77.0386	155	C6H5+
83.0605	783	C4H7N2+
85.0761	52	C4H9N2+
94.0651	185	C6H8N+
95.0489	11	C6H7O+
104.0495	999	C7H6N+
105.0447	41	C6H5N2+
111.0548	12	C5H7N2O+
118.0652	20	C8H8N+
128.0493	7	C9H6N+
130.065	16	C9H8N+
145.0761	34	C9H9N2+
146.0599	66	C9H8NO+
158.0603	15	C10H8NO+
159.0916	121	C10H11N2+
171.0912	5	C11H11N2+
173.0711	18	C10H9N2O+
187.0868	38	C11H11N2O+
189.0899	23	C10H11N3O+
199.074	13	C11H9N3O+
204.1133	52	C11H14N3O+
214.0975	78	C12H12N3O+
