Mass spectrum: Spirotetramat Metabolite BYI08330 Enol-Glucoside; LC-ESI-QFT; MS2; CE: 90%; R=17500; [M+H]+
Name: Spirotetramat Metabolite BYI08330 Enol-Glucoside
Name: 3-(2,5-dimethylphenyl)-8-methoxy-4-[3,4,5-trihydroxy-6-(hydroxymethyl)oxan-2-yl]oxy-1-azaspiro[4.5]dec-3-en-2-one
Formula: C24H33NO8
Exact mass: 463.2206
SMILES: CC1=CC(=C(C=C1)C)C2=C(C3(CCC(CC3)OC)NC2=O)OC4C(C(C(C(O4)CO)O)O)O
InChI: InChI=1S/C24H33NO8/c1-12-4-5-13(2)15(10-12)17-21(24(25-22(17)30)8-6-14(31-3)7-9-24)33-23-20(29)19(28)18(27)16(11-26)32-23/h4-5,10,14,16,18-20,23,26-29H,6-9,11H2,1-3H3,(H,25,30)
Instrument: Exploris 240 Orbitrap Thermo Scientific
Instrument type: LC-ESI-QFT
Ms type: MS2
Ion mode: POSITIVE
Ionization: ESI
Fragmentation mode: HCD
Collision energy: 90 % (nominal)
Resolution: 17500
Column name: XBridge C18 3.5um, 2.1x50mm, Waters
Retention time: 3.587 min
Base peak: 464.2275
Precursor m/z: 464.2279
Precursor type: [M+H]+
m/z	relative intensity	assigned
67.0542	55	C5H7+
79.0544	61	C6H7+
91.0541	229	C7H7+
96.0809	34	C6H10N+
105.0699	266	C8H9+
115.0541	167	C9H7+
117.0698	841	C9H9+
119.0855	434	C9H11+
128.0618	113	C10H8+
129.0701	110	C10H9+
130.0657	25	C9H8N+
130.0774	248	C10H10+
131.0854	64	C10H11+
133.0645	45	C9H9O+
141.0701	16	C11H9+
142.0782	30	C11H10+
143.0854	249	C11H11+
144.0809	19	C10H10N+
145.0655	51	C10H9O+
145.0883	151	C10H11N+
145.1014	440	C11H13+
147.0805	58	C10H11O+
153.0702	42	C12H9+
155.0856	202	C12H11+
158.0729	121	C11H10O+
160.1118	103	C11H14N+
167.0858	41	C13H11+
169.1013	42	C13H13+
173.0834	62	C11H11NO+
182.1091	27	C14H14+
183.0674	21	C12H9NO+
188.1062	118	C12H14NO+
216.1018	999	C13H14NO2+
