Mass spectrum: Fenson; LC-ESI-QFT; MS2; CE: 30%; R=17500; [M+H]+
Name: Fenson
Name: (4-chlorophenyl) benzenesulfonate
Formula: C12H9ClO3S
Exact mass: 267.9961
SMILES: C1=CC=C(C=C1)S(=O)(=O)OC2=CC=C(C=C2)Cl
InChI: InChI=1S/C12H9ClO3S/c13-10-6-8-11(9-7-10)16-17(14,15)12-4-2-1-3-5-12/h1-9H
Instrument: Exploris 240 Orbitrap Thermo Scientific
Instrument type: LC-ESI-QFT
Ms type: MS2
Ion mode: POSITIVE
Ionization: ESI
Fragmentation mode: HCD
Collision energy: 30 % (nominal)
Resolution: 17500
Column name: XBridge C18 3.5um, 2.1x50mm, Waters
Retention time: 9.705 min
Base peak: 170.0965
Precursor m/z: 269.0034
Precursor type: [M+H]+
m/z	relative intensity	assigned
53.0386	128	C4H5+
77.0385	190	C6H5+
94.0413	9	C6H6O+
95.0491	154	C6H7O+
97.0104	11	C5H5S+
125.0057	332	C6H5OS+
126.0132	11	C6H6OS+
126.9945	142	C6H4ClO+
128.0024	49	C6H5ClO+
141.0005	999	C6H5O2S+
142.9896	19	C6H4ClO2+
143.9971	26	C6H5ClO2+
269.0031	25	C12H10ClO3S+
