Mass spectrum: N-Acetylcaprolactam; LC-ESI-QFT; MS2; CE: 75%; R=17500; [M+H]+
Name: N-Acetylcaprolactam
Name: 1-acetylazepan-2-one
Formula: C8H13NO2
Exact mass: 155.0946
SMILES: CC(=O)N1CCCCCC1=O
InChI: InChI=1S/C8H13NO2/c1-7(10)9-6-4-2-3-5-8(9)11/h2-6H2,1H3
Instrument: Exploris 240 Orbitrap Thermo Scientific
Instrument type: LC-ESI-QFT
Ms type: MS2
Ion mode: POSITIVE
Ionization: ESI
Fragmentation mode: HCD
Collision energy: 75 % (nominal)
Resolution: 17500
Column name: XBridge C18 3.5um, 2.1x50mm, Waters
Retention time: 4.594 min
Base peak: 156.1019
Precursor m/z: 156.1019
Precursor type: [M+H]+
m/z	relative intensity	assigned
41.0386	5	C3H5+
43.0178	19	C2H3O+
43.0542	7	C3H7+
44.013	14	CH2NO+
46.0288	2	CH4NO+
55.0179	6	C3H3O+
55.0543	9	C4H7+
67.054	6	C5H7+
68.0494	6	C4H6N+
69.0699	71	C5H9+
70.0652	2	C4H8N+
71.0491	3	C4H7O+
71.0856	7	C5H11+
72.0807	5	C4H10N+
79.0542	73	C6H7+
86.0965	6	C5H12N+
96.0807	60	C6H10N+
97.0648	19	C6H9O+
114.0912	999	C6H12NO+
