Mass spectrum: Forchlorfenuron; LC-ESI-QFT; MS2; CE: 180; R=35000; [M+H]+
Name: Forchlorfenuron
Name: N-(2-chloro-4-pyridyl)-N`-phenylurea
Name: 1-(2-chloropyridin-4-yl)-3-phenylurea
Formula: C12H10ClN3O
Exact mass: 247.05124
SMILES: C1=CC=C(C=C1)NC(=O)NC2=CC(=NC=C2)Cl
InChI: InChI=1S/C12H10ClN3O/c13-11-8-10(6-7-14-11)16-12(17)15-9-4-2-1-3-5-9/h1-8H,(H2,14,15,16,17)
Instrument: Q Exactive Plus Orbitrap Thermo Scientific
Instrument type: LC-ESI-QFT
Ms type: MS2
Ion mode: POSITIVE
Ionization: ESI
Fragmentation mode: HCD
Collision energy: 180 (nominal)
Resolution: 35000
Column name: XBridge C18 3.5um, 2.1x50mm, Waters
Retention time: 8.8 min
Base peak: 248.0579
Precursor m/z: 248.0585
Precursor type: [M+H]+
m/z	relative intensity	assigned
50.0151	148	C4H2+
51.023	326	C4H3+
52.0182	401	C3H2N+
53.0022	192	C3HO+
53.0386	24	C4H5+
53.9975	73	C2NO+
54.01	9	C3H2O+
54.0338	17	C3H4N+
55.0179	29	C3H3O+
56.0495	310	C3H6N+
60.984	10	C2H2Cl+
61.9792	27	CHClN+
64.0182	227	C4H2N+
65.0022	20	
65.0135	14	
65.026	24	C4H3N+
65.0386	112	C5H5+
66.0338	999	C4H4N+
67.0291	329	C3H3N2+
67.0416	206	C4H5N+
67.9893	53	C3O2+
68.0131	3	C3H2NO+
68.0368	3	C3H4N2+
68.0495	9	C4H6N+
68.997	3	C3HO2+
69.0084	10	C2HN2O+
75.0103	81	C5HN+
76.0181	298	C5H2N+
77.0385	58	C6H5+
78.0087	9	C3N3+
82.0287	52	C4H4NO+
84.0444	35	C4H6NO+
84.984	21	C4H2Cl+
91.0291	26	C5H3N2+
92.037	9	C5H4N2+
92.0494	2	C6H6N+
93.0448	155	C5H5N2+
94.0525	39	C5H6N2+
95.0491	58	C6H7O+
97.0398	2	C4H5N2O+
98.0601	10	C5H8NO+
105.0448	36	C6H5N2+
110.0476	4	C5H6N2O+
111.0553	147	C5H7N2O+
119.0241	3	C6H3N2O+
126.0426	9	C2H9ClN3O+
129.0216	4	C5H6ClN2+
137.0349	4	C3H8ClN3O+
