Mass spectrum: Rifaximin; LC-ESI-QFT; MS2; CE: 60; R=35000; [M-H]-
Name: Rifaximin
Name: (7S,9E,11S,12R,13S,14R,15R,16R,17S,18S,19E,21Z)-2,15,17,36-Tetrahydroxy-11-methoxy-3,7,12,14,16,18,22,30-octamethyl-6,23-dioxo-8,37-dioxa-24,27,33-triazahexacyclo[23.10.1.14,7.05,35.026,34.027, 32]heptatriaconta-1(35),2,4,9,19,21,25(36),26(34),28,30,32-undecaen-13-yl acetate
Formula: C43H51N3O11
Exact mass: 785.35236
SMILES: CC1C=CC=C(C(=O)NC2=C(C3=C(C4=C(C(=C3O)C)OC(C4=O)(OC=CC(C(C(C(C(C(C1O)C)O)C)OC(=O)C)C)OC)C)C5=C2N6C=CC(=CC6=N5)C)O)C
InChI: InChI=1S/C43H51N3O11/c1-19-14-16-46-28(18-19)44-32-29-30-37(50)25(7)40-31(29)41(52)43(9,57-40)55-17-15-27(54-10)22(4)39(56-26(8)47)24(6)36(49)23(5)35(48)20(2)12-11-13-21(3)42(53)45-33(34(32)46)38(30)51/h11-18,20,22-24,27,35-36,39,48-51H,1-10H3,(H,45,53)
Instrument: Q Exactive Plus Orbitrap Thermo Scientific
Instrument type: LC-ESI-QFT
Ms type: MS2
Ion mode: NEGATIVE
Ionization: ESI
Fragmentation mode: HCD
Collision energy: 60 (nominal)
Resolution: 35000
Column name: XBridge C18 3.5um, 2.1x50mm, Waters
Retention time: 10.9 min
Base peak: 784.3448
Precursor m/z: 784.3451
Precursor type: [M-H]-
m/z	relative intensity	assigned
55.0188	4	C3H3O-
57.0345	9	C3H5O-
59.0138	154	C2H3O2-
65.0397	1	C5H5-
65.9986	1	C3NO-
71.0138	4	C3H3O2-
81.0346	1	C5H5O-
83.0502	23	C5H7O-
85.0295	2	C4H5O2-
93.0709	1	C7H9-
95.0504	1	C6H7O-
97.0657	5	C6H9O-
105.071	8	C8H9-
106.0425	2	C7H6O-
107.0376	4	C6H5NO-
107.0503	9	C7H7O-
108.0456	11	C6H6NO-
111.0452	2	C6H7O2-
121.0532	5	C7H7NO-
121.0659	44	C8H9O-
123.0815	53	C8H11O-
125.0607	14	C7H9O2-
134.0615	1	C8H8NO-
136.0767	39	C8H10NO-
151.0766	1	C9H11O2-
156.0565	1	C9H6N3-
164.0715	1	C9H10NO2-
224.0357	1	C13H6NO3-
235.0759	2	C14H9N3O-
235.0876	1	C15H11N2O-
241.0617	2	C13H9N2O3-
247.0867	1	C16H11N2O-
249.091	21	C15H11N3O-
250.0983	5	C15H12N3O-
259.0877	2	C17H11N2O-
260.0951	1	C17H12N2O-
261.1028	1	C17H13N2O-
262.0748	6	C16H10N2O2-
262.0983	9	C16H12N3O-
263.07	14	C15H9N3O2-
263.0828	8	C16H11N2O2-
265.062	4	C15H9N2O3-
273.0907	1	C17H11N3O-
274.0985	2	C17H12N3O-
275.0828	6	C17H11N2O2-
276.0774	9	C16H10N3O2-
276.0904	25	C17H12N2O2-
276.1141	2	C17H14N3O-
277.0854	117	C16H11N3O2-
277.0986	23	C17H13N2O2-
278.0704	3	C16H10N2O3-
278.0934	13	C16H12N3O2-
279.0773	34	C16H11N2O3-
280.0491	4	C15H8N2O4-
286.0986	8	C18H12N3O-
287.0823	5	C18H11N2O2-
288.0781	9	C17H10N3O2-
288.0915	2	C18H12N2O2-
288.1143	14	C18H14N3O-
289.0622	1	C17H9N2O3-
289.0845	16	C17H11N3O2-
289.0985	7	C18H13N2O2-
290.0688	2	C17H10N2O3-
290.0935	26	C17H12N3O2-
291.0773	7	C17H11N2O3-
291.1009	25	C17H13N3O2-
292.0715	1	C16H10N3O3-
292.0863	10	C17H12N2O3-
292.1096	17	C17H14N3O2-
293.0561	1	C16H9N2O4-
293.0803	7	C16H11N3O3-
293.0933	6	C17H13N2O3-
294.0883	17	C16H12N3O3-
298.098	1	C19H12N3O-
299.0829	1	C19H11N2O2-
300.0917	1	C19H12N2O2-
302.0931	1	C18H12N3O2-
303.077	6	C18H11N2O3-
303.1003	2	C18H13N3O2-
304.0712	17	C14H12N2O6-
304.0867	6	C18H12N2O3-
304.1091	91	C18H14N3O2-
305.0803	32	C17H11N3O3-
305.0936	21	C18H13N2O3-
306.0884	140	C17H12N3O3-
307.0962	15	C17H13N3O3-
308.104	56	C17H14N3O3-
309.0748	6	C16H11N3O4-
313.0857	4	C19H11N3O2-
314.0932	26	C19H12N3O2-
315.0775	15	C19H11N2O3-
316.0691	11	C15H12N2O6-
316.0859	8	C19H12N2O3-
316.1093	15	C19H14N3O2-
317.0553	1	C18H9N2O4-
317.0778	15	C15H13N2O6-
317.0939	8	C19H13N2O3-
318.0645	4	C18H10N2O4-
318.0856	11	C15H14N2O6-
318.1032	2	C22H12N3-
319.0715	6	C18H11N2O4-
319.11	37	C19H15N2O3-
320.067	10	C17H10N3O4-
320.1028	8	C18H14N3O3-
328.1086	1	C20H14N3O2-
329.0933	31	C20H13N2O3-
330.0883	146	C19H12N3O3-
331.0722	21	C19H11N2O4-
331.0959	21	C19H13N3O3-
332.0809	19	C19H12N2O4-
332.104	224	C19H14N3O3-
333.0882	88	C19H13N2O4-
333.1117	67	C19H15N3O3-
334.0835	59	C18H12N3O4-
334.1193	32	C19H16N3O3-
340.109	1	C21H14N3O2-
342.0873	15	C20H12N3O3-
343.0721	12	C20H11N2O4-
343.0959	19	C20H13N3O3-
344.1043	12	C20H14N3O3-
345.0895	60	C20H13N2O4-
345.1097	3	C17H17N2O6-
346.0797	14	C16H14N2O7-
346.1202	12	C20H16N3O3-
347.1038	473	C20H15N2O4-
348.0996	1	C19H14N3O4-
356.103	10	C21H14N3O3-
357.0906	2	C24H11N3O-
358.0832	44	C20H12N3O4-
358.1178	11	C18H18N2O6-
359.0911	342	C20H13N3O4-
360.099	999	C20H14N3O4-
361.1067	91	C20H15N3O4-
362.1146	130	C20H16N3O4-
369.0893	1	C22H13N2O4-
370.084	1	C21H12N3O4-
370.119	10	C22H16N3O3-
371.1051	26	C22H15N2O4-
372.0981	20	C21H14N3O4-
373.1054	22	C18H17N2O7-
374.1143	24	C21H16N3O4-
376.0695	2	C20H12N2O6-
382.1199	2	C23H16N3O3-
382.1563	2	C24H20N3O2-
383.1035	4	C23H15N2O4-
384.1347	2	C23H18N3O3-
386.078	53	C21H12N3O5-
386.1147	6	C22H16N3O4-
387.0854	6	C21H13N3O5-
388.0937	45	C21H14N3O5-
396.1349	7	C24H18N3O3-
398.113	2	C20H18N2O7-
398.1507	1	C24H20N3O3-
400.0947	2	C22H14N3O5-
400.1294	1	C23H18N3O4-
402.109	6	C22H16N3O5-
410.15	12	C25H20N3O3-
411.1343	2	C25H19N2O4-
412.1295	1	C24H18N3O4-
423.1345	2	C26H19N2O4-
424.1308	2	C25H18N3O4-
426.1108	2	C26H18O6-
426.1454	9	C25H20N3O4-
436.1296	6	C26H18N3O4-
438.1097	9	C25H16N3O5-
439.1658	1	C27H23N2O4-
440.1254	5	C25H18N3O5-
452.1241	7	C26H18N3O5-
454.141	51	C26H20N3O5-
466.1387	1	C27H20N3O5-
482.1721	2	C28H24N3O5-
