Mass spectrum: 8phiC8SPC; LC-ESI-QFT; MS2; CE: 60; R=35000; [M+H]+
Name: 8phiC8SPC
Name: Octacarboxy sulfophenyl carboxylic acid
Name: 8-(4-sulfophenyl)octanoic acid
Formula: C14H20O5S
Exact mass: 300.10314
SMILES: OS(=O)(=O)c1ccc(CCCCCCCC(=O)O)cc1
InChI: InChI=1S/C14H20O5S/c15-14(16)7-5-3-1-2-4-6-12-8-10-13(11-9-12)20(17,18)19/h8-11H,1-7H2,(H,15,16)(H,17,18,19)
Instrument: Q Exactive Plus Orbitrap Thermo Scientific
Instrument type: LC-ESI-QFT
Ms type: MS2
Ion mode: POSITIVE
Ionization: ESI
Fragmentation mode: HCD
Collision energy: 60 (nominal)
Resolution: 35000
Column name: XBridge C18 3.5um, 2.1x50mm, Waters
Retention time: 7.9 min
Base peak: 315.1259
Precursor m/z: 301.1104
Precursor type: [M+H]+
m/z	relative intensity	assigned
51.0228	4	C4H3+
53.0022	5	C3HO+
53.0386	8	C4H5+
55.0179	6	C3H3O+
55.0543	23	C4H7+
57.0335	1	C3H5O+
57.0699	31	C4H9+
58.995	1	C2H3S+
59.0492	8	C3H7O+
67.0542	8	C5H7+
69.0699	11	C5H9+
71.0855	44	C5H11+
77.0384	11	C6H5+
78.0464	7	C6H6+
79.0542	57	C6H7+
81.0334	1	C5H5O+
81.0699	14	C6H9+
83.0855	2	C6H11+
90.0465	5	C7H6+
91.0543	85	C7H7+
93.0699	20	C7H9+
95.0492	34	C6H7O+
95.0855	4	C7H11+
97.0107	3	C5H5S+
97.0649	1	C6H9O+
103.0543	198	C8H7+
104.0621	605	C8H8+
105.0448	16	C6H5N2+
105.0699	56	C8H9+
107.0492	558	C7H7O+
109.0107	16	C6H5S+
111.0263	52	C6H7S+
115.0542	22	C9H7+
116.0621	41	C9H8+
117.0699	170	C9H9+
118.0777	70	C9H10+
119.0491	5	C8H7O+
119.0857	4	C9H11+
120.0571	2	C8H8O+
121.0107	5	C7H5S+
121.0649	62	C8H9O+
123.0264	8	C7H7S+
125.0056	12	C6H5OS+
128.062	4	C10H8+
129.0699	23	C10H9+
130.0778	30	C10H10+
131.0605	69	C8H7N2+
131.0856	126	C10H11+
132.057	14	C9H8O+
132.0934	9	C10H12+
133.0649	16	C9H9O+
134.0186	19	C8H6S+
135.0263	33	C8H7S+
135.0805	5	C9H11O+
137.0057	17	C7H5OS+
139.0213	23	C7H7OS+
141.07	10	C11H9+
142.0778	9	C11H10+
143.0606	1	C9H7N2+
143.0856	21	C11H11+
144.057	3	C10H8O+
144.0933	2	C11H12+
145.0647	4	C10H9O+
145.076	14	C9H9N2+
145.1013	9	C11H13+
146.0727	5	C10H10O+
147.0263	11	C9H7S+
147.0805	1	C10H11O+
148.0341	5	C9H8S+
149.0421	23	C9H9S+
149.0963	7	C10H13O+
150.0136	3	C8H6OS+
151.0213	27	C8H7OS+
153.0004	9	C7H5O2S+
153.07	2	C12H9+
154.0777	1	C12H10+
155.0856	10	C12H11+
157.1013	3	C12H13+
159.0807	2	C11H11O+
159.0917	20	C10H11N2+
159.117	1	C12H15+
161.042	3	C10H9S+
162.0499	1	C10H10S+
163.0213	8	C9H7OS+
165.0369	5	C9H9OS+
167.0162	108	C8H7O2S+
168.0934	11	C13H12+
169.1013	1	C13H13+
170.1091	1	C13H14+
171.0111	999	C7H7O3S+
173.0418	1	C11H9S+
177.0368	3	C10H9OS+
181.0319	7	C9H9O2S+
184.0343	2	C12H8S+
185.0268	284	C8H9O3S+
186.0496	5	C12H10S+
195.0476	4	C10H11O2S+
197.0267	1	C9H9O3S+
199.0423	6	C9H11O3S+
201.1386	4	C13H17N2+
203.0369	4	C8H11O4S+
213.0581	1	C10H13O3S+
217.0529	4	C9H13O4S+
