Mass spectrum: Triflumuron; LC-ESI-QFT; MS2; CE: 60; R=35000; [M+H]+
Name: Triflumuron
Name: 2-chloranyl-N-[[4-(trifluoromethyloxy)phenyl]carbamoyl]benzamide
Formula: C15H10ClF3N2O3
Exact mass: 358.03320
SMILES: O=C(c1ccccc1Cl)NC(=O)Nc2ccc(OC(F)(F)F)cc2
InChI: InChI=1S/C15H10ClF3N2O3/c16-12-4-2-1-3-11(12)13(22)21-14(23)20-9-5-7-10(8-6-9)24-15(17,18)19/h1-8H,(H2,20,21,22,23)
Instrument: Q Exactive Orbitrap Thermo Scientific
Instrument type: LC-ESI-QFT
Ms type: MS2
Ion mode: POSITIVE
Ionization: ESI
Fragmentation mode: HCD
Collision energy: 60 (nominal)
Resolution: 35000
Column name: XBridge C18 3.5um, 2.1x50mm, Waters
Retention time: 13.8 min
Base peak: 359.0407
Precursor m/z: 359.0405
Precursor type: [M+H]+
m/z	relative intensity	assigned
75.0226	3	C6H3+
77.0385	1	C6H5+
86.9996	3	C4H4Cl+
92.0495	1	C6H6N+
93.0335	3	C6H5O+
94.0413	3	C6H6O+
95.0491	17	C6H7O+
105.0447	3	C6H5N2+
110.0601	1	C6H8NO+
110.9992	4	C6H4Cl+
111.044	7	C6H7O2+
113.0152	82	C6H6Cl+
121.0395	1	C6H5N2O+
129.0102	14	C6H6ClO+
138.0106	11	C7H5ClN+
138.9946	999	C7H4ClO+
156.021	350	C7H7ClNO+
176.0318	3	C7H5F3NO+
178.0474	17	C7H7F3NO+
