Mass spectrum: Dimethenamid OXA; LC-ESI-ITFT; MS2; CE: 15%; R=15000; [M+H]+
Name: Dimethenamid OXA
Name: [(2,4-dimethylthiophen-3-yl)(1-methoxypropan-2-yl)amino](oxo)acetic acid
Formula: C12H17NO4S
Exact mass: 271.0878
SMILES: S(C=C1C)C(C)=C1N(C(=O)C(=O)O)C(COC)C
InChI: InChI=1S/C12H17NO4S/c1-7-6-18-9(3)10(7)13(8(2)5-17-4)11(14)12(15)16/h6,8H,5H2,1-4H3,(H,15,16)
Instrument: LTQ Orbitrap XL Thermo Scientific
Instrument type: LC-ESI-ITFT
Ms type: MS2
Ion mode: POSITIVE
Ionization: ESI
Fragmentation mode: HCD
Collision energy: 15 % (nominal)
Resolution: 15000
Column name: XBridge C18 3.5um, 2.1x50mm, Waters
Retention time: 7.5 min
Base peak: 272.0948
Precursor m/z: 272.0951
Precursor type: [M+H]+
m/z	relative intensity	assigned
73.0648	2	C4H9O+
129.037	1	C6H9OS+
168.0843	1	C9H14NS+
196.0792	11	C10H14NOS+
198.095	3	C10H16NOS+
200.1105	13	C10H18NOS+
226.0898	19	C11H16NO2S+
228.1053	1	C11H18NO2S+
240.0688	999	C11H14NO3S+
272.0952	469	C12H18NO4S+
