Mass spectrum: Albendazole; LC-ESI-QFT; MS2; CE: 75; R=35000; [M-H]-
Name: Albendazole
Name: Methyl N-(6-propylsulfanyl-1H-benzimidazol-2-yl)carbamate
Formula: C12H15N3O2S
Exact mass: 265.08850
SMILES: CCCSC1=CC2=C(C=C1)N=C(N2)NC(=O)OC
InChI: InChI=1S/C12H15N3O2S/c1-3-6-18-8-4-5-9-10(7-8)14-11(13-9)15-12(16)17-2/h4-5,7H,3,6H2,1-2H3,(H2,13,14,15,16)
Instrument: Q Exactive Plus Orbitrap Thermo Scientific
Instrument type: LC-ESI-QFT
Ms type: MS2
Ion mode: NEGATIVE
Ionization: ESI
Fragmentation mode: HCD
Collision energy: 75 (nominal)
Resolution: 35000
Column name: XBridge C18 3.5um, 2.1x50mm, Waters
Retention time: 7.8 min
Base peak: 232.0549
Precursor m/z: 264.0812
Precursor type: [M-H]-
m/z	relative intensity	assigned
57.9758	92	CNS-
65.0146	4	C3HN2-
65.9986	1	C3NO-
81.9758	11	C3NS-
89.0147	1	C5HN2-
90.0224	11	C5H2N2-
91.0303	2	C5H3N2-
94.9836	4	C4HNS-
102.0225	1	C6H2N2-
106.0172	2	C5H2N2O-
108.9867	4	C4HN2S-
116.0256	2	C6H2N3-
117.0096	1	C6HN2O-
132.9866	1	C6HN2S-
133.9946	17	C6H2N2S-
135.0025	1	C6H3N2S-
158.0363	2	C8H4N3O-
159.9977	105	C7H2N3S-
161.0056	218	C7H3N3S-
189.0005	999	C8H3N3OS-
190.0088	1	C8H4N3OS-
