Mass spectrum: Nadolol; LC-ESI-QFT; MS2; CE: 90; R=35000; [M+H]+
Name: Nadolol
Name: NADOLOL
Name: (2R,3S)-5-[3-(tert-butylamino)-2-hydroxy-propoxy]tetralin-2,3-diol
Formula: C17H27NO4
Exact mass: 309.19401
SMILES: OC(CNC(C)(C)C)COc1cccc2c1C[C@H](O)[C@H](O)C2
InChI: InChI=1S/C17H27NO4/c1-17(2,3)18-9-12(19)10-22-16-6-4-5-11-7-14(20)15(21)8-13(11)16/h4-6,12,14-15,18-21H,7-10H2,1-3H3/t12?,14-,15+/m1/s1
Instrument: Q Exactive Orbitrap Thermo Scientific
Instrument type: LC-ESI-QFT
Ms type: MS2
Ion mode: POSITIVE
Ionization: ESI
Fragmentation mode: HCD
Collision energy: 90 (nominal)
Resolution: 35000
Column name: XBridge C18 3.5um, 2.1x50mm, Waters
Retention time: 4.2 min
Base peak: 310.2016
Precursor m/z: 310.2013
Precursor type: [M+H]+
m/z	relative intensity	assigned
53.0023	8	C3HO+
55.018	8	C3H3O+
56.0496	886	C3H6N+
57.07	329	C4H9+
58.0652	55	C3H8N+
72.0444	48	C3H6NO+
74.0601	999	C3H8NO+
79.0542	35	C6H7+
91.0543	676	C7H7+
95.0492	22	
103.0543	85	C8H7+
104.062	14	
105.0336	9	C7H5O+
105.07	159	C8H9+
107.0492	142	C7H7O+
115.0543	445	C9H7+
116.0621	60	C9H8+
117.0699	440	C9H9+
118.0415	17	
119.0495	23	C8H7O+
119.0856	74	C9H11+
127.0543	20	C10H7+
128.0621	593	C10H8+
129.0699	306	C10H9+
130.0779	25	C10H10+
131.0493	242	C9H7O+
131.0856	92	C10H11+
132.057	132	C9H8O+
133.0649	226	C9H9O+
135.0805	61	C9H11O+
141.07	101	C11H9+
143.0857	330	C11H11+
144.0571	155	C10H8O+
145.0649	996	C10H9O+
147.0805	366	C10H11O+
152.0618	48	C12H8+
153.07	254	C12H9+
154.0777	95	C12H10+
155.0605	135	C10H7N2+
155.0856	344	C12H11+
156.0573	12	C11H8O+
157.0649	199	C11H9O+
158.0726	51	C11H10O+
159.0806	295	C11H11O+
160.0519	37	C10H8O2+
161.0597	36	C10H9O2+
163.0752	8	C10H11O2+
165.07	136	C13H9+
168.0572	70	C12H8O+
169.0649	50	C12H9O+
170.0727	32	C12H10O+
171.0805	271	C12H11O+
172.088	14	C12H12O+
173.0961	38	C12H13O+
174.0913	12	C11H12NO+
182.0725	8	C13H10O+
183.0806	318	C13H11O+
201.0913	43	C13H13O2+
