Mass spectrum: Nornicotine; LC-ESI-QFT; MS2; CE: 150; R=35000; [M+H]+
Name: Nornicotine
Name: 3-pyrrolidin-2-ylpyridine
Formula: C9H12N2
Exact mass: 148.10005
SMILES: c1cc(cnc1)C2CCCN2
InChI: InChI=1S/C9H12N2/c1-3-8(7-10-5-1)9-4-2-6-11-9/h1,3,5,7,9,11H,2,4,6H2
Instrument: Q Exactive Plus Orbitrap Thermo Scientific
Instrument type: LC-ESI-QFT
Ms type: MS2
Ion mode: POSITIVE
Ionization: ESI
Fragmentation mode: HCD
Collision energy: 150 (nominal)
Resolution: 35000
Column name: XBridge C18 3.5um, 2.1x50mm, Waters
Retention time: 1.0 min
Base peak: 149.1072
Precursor m/z: 149.1073
Precursor type: [M+H]+
m/z	relative intensity	assigned
50.0151	39	C4H2+
51.0229	132	C4H3+
52.0307	9	C4H4+
53.0386	342	C4H5+
54.0338	9	C3H4N+
63.0229	36	C5H3+
64.0307	12	C5H4+
65.0386	359	C5H5+
66.0464	71	C5H6+
67.0416	39	C4H5N+
68.0494	32	C4H6N+
70.0651	542	C4H8N+
75.0229	2	C6H3+
77.0385	149	C6H5+
78.0338	136	C5H4N+
79.0416	45	C5H5N+
79.0542	35	C6H7+
80.0494	999	C5H6N+
81.0335	11	C5H5O+
89.0386	632	C7H5+
90.0464	612	C7H6+
91.0416	12	
91.0542	209	C7H7+
92.0494	115	C6H6N+
93.0573	98	C6H7N+
94.0652	11	C6H8N+
95.0491	265	C6H7O+
96.0444	174	C5H6NO+
102.0464	31	C8H6+
103.0542	225	C8H7+
104.0495	15	C7H6N+
105.0447	137	C6H5N2+
106.0651	68	C7H8N+
110.0601	18	C6H8NO+
115.0542	40	C9H7+
116.0495	47	C8H6N+
117.0573	875	C8H7N+
118.0651	233	C8H8N+
120.0809	3	C8H10N+
128.0495	24	C9H6N+
130.0651	401	C9H8N+
131.0728	10	C9H9N+
146.06	5	C9H8NO+
