Mass spectrum: Benfuracarb; LC-ESI-QFT; MS2; CE: 150%; R=17500; [M+H]+
Name: Benfuracarb
Name: ethyl 3-[[(2,2-dimethyl-3H-1-benzofuran-7-yl)oxycarbonyl-methylamino]sulfanyl-propan-2-ylamino]propanoate
Formula: C20H30N2O5S
Exact mass: 410.1875
SMILES: CCOC(=O)CCN(C(C)C)SN(C)C(=O)OC1=CC=CC2=C1OC(C2)(C)C
InChI: InChI=1S/C20H30N2O5S/c1-7-25-17(23)11-12-22(14(2)3)28-21(6)19(24)26-16-10-8-9-15-13-20(4,5)27-18(15)16/h8-10,14H,7,11-13H2,1-6H3
Instrument: Exploris 240 Orbitrap Thermo Scientific
Instrument type: LC-ESI-QFT
Ms type: MS2
Ion mode: POSITIVE
Ionization: ESI
Fragmentation mode: HCD
Collision energy: 150 % (nominal)
Resolution: 17500
Column name: XBridge C18 3.5um, 2.1x50mm, Waters
Retention time: 12.809 min
Base peak: 411.1952
Precursor m/z: 411.1948
Precursor type: [M+H]+
m/z	relative intensity	assigned
51.0231	91	C4H3+
53.0386	590	C4H5+
55.0179	132	C3H3O+
56.0494	48	C3H6N+
56.9794	178	C2HS+
58.0288	214	C2H4NO+
58.995	97	C2H3S+
59.9902	59	CH2NS+
65.0386	224	C5H5+
67.0178	70	C4H3O+
67.054	35	C5H7+
68.9794	78	C3HS+
70.0652	60	C4H8N+
74.006	106	C2H4NS+
77.0386	143	C6H5+
79.0542	137	C6H7+
81.0335	464	C5H5O+
84.9743	440	C3HOS+
89.0387	75	C7H5+
91.0542	296	C7H7+
95.0494	86	C6H7O+
97.0107	245	C5H5S+
103.0545	46	C8H7+
105.0448	86	C6H5N2+
105.0699	67	C8H9+
109.0285	160	C6H5O2+
115.0543	999	C9H7+
116.0621	127	C9H8+
119.0497	30	C8H7O+
134.0185	48	C8H6S+
147.0443	46	C9H7O2+
