Mass spectrum: Methamidophos; LC-ESI-QFT; MS2; CE: 75%; R=17500; [M+H]+
Name: Methamidophos
Name: [amino(methylsulfanyl)phosphoryl]oxymethane
Formula: C2H8NO2PS
Exact mass: 141.0013
SMILES: COP(=O)(N)SC
InChI: InChI=1S/C2H8NO2PS/c1-5-6(3,4)7-2/h1-2H3,(H2,3,4)
Instrument: Exploris 240 Orbitrap Thermo Scientific
Instrument type: LC-ESI-QFT
Ms type: MS2
Ion mode: POSITIVE
Ionization: ESI
Fragmentation mode: HCD
Collision energy: 75 % (nominal)
Resolution: 17500
Column name: XBridge C18 3.5um, 2.1x50mm, Waters
Retention time: 1.413 min
Base peak: 142.0086
Precursor m/z: 142.0086
Precursor type: [M+H]+
m/z	relative intensity	assigned
44.9793	17	CHS+
46.9681	8	OP+
46.995	162	CH3S+
62.0185	36	C2H6S+
63.9947	102	H3NOP+
78.9943	216	CH4O2P+
94.0052	999	CH5NO2P+
109.9824	111	CH5NOPS+
124.982	423	C2H6O2PS+
142.0089	7	C2H9NO2PS+
