Mass spectrum: Corticosterone; LC-ESI-QFT; MS2; CE: 120; R=35000; [M+H]+
Name: Corticosterone
Name: 11b,21-Dihydroxyprogesterone
Name: (8S,9S,10R,11S,13S,14S,17S)-11-hydroxy-17-(2-hydroxyacetyl)-10,13-dimethyl-1,2,6,7,8,9,11,12,14,15,16,17-dodecahydrocyclopenta[a]phenanthren-3-one
Formula: C21H30O4
Exact mass: 346.21441
SMILES: O=C4\C=C2/[C@]([C@H]1[C@@H](O)C[C@@]3([C@@H](C(=O)CO)CC[C@H]3[C@@H]1CC2)C)(C)CC4
InChI: InChI=1S/C21H30O4/c1-20-8-7-13(23)9-12(20)3-4-14-15-5-6-16(18(25)11-22)21(15,2)10-17(24)19(14)20/h9,14-17,19,22,24H,3-8,10-11H2,1-2H3/t14-,15-,16+,17-,19+,20-,21-/m0/s1
Instrument: Q Exactive Plus Orbitrap Thermo Scientific
Instrument type: LC-ESI-QFT
Ms type: MS2
Ion mode: POSITIVE
Ionization: ESI
Fragmentation mode: HCD
Collision energy: 120 (nominal)
Resolution: 35000
Column name: XBridge C18 3.5um, 2.1x50mm, Waters
Retention time: 8.9 min
Base peak: 347.2214
Precursor m/z: 347.2217
Precursor type: [M+H]+
m/z	relative intensity	assigned
50.0151	21	C4H2+
51.0229	21	C4H3+
52.0307	1	C4H4+
53.0022	24	C3HO+
53.0386	160	C4H5+
53.9974	4	C2NO+
55.0179	85	C3H3O+
55.0543	185	C4H7+
57.0335	11	C3H5O+
63.0229	8	C5H3+
65.0386	220	C5H5+
66.0464	10	C5H6+
67.0542	265	C5H7+
67.9893	4	C3O2+
69.0335	28	C4H5O+
69.0699	19	C5H9+
71.0492	1	C4H7O+
77.0385	153	C6H5+
78.0464	36	C6H6+
79.0542	507	C6H7+
80.062	8	C6H8+
81.0335	29	C5H5O+
81.0699	117	C6H9+
82.0413	5	C5H6O+
83.0491	58	C5H7O+
89.0386	4	C7H5+
91.0542	999	C7H7+
92.062	9	C7H8+
93.0699	92	C7H9+
94.0413	21	C6H6O+
95.0492	406	C6H7O+
95.0855	41	C7H11+
97.0648	91	C6H9O+
99.044	2	C5H7O2+
102.0464	11	C8H6+
103.0542	140	C8H7+
104.0621	35	C8H8+
105.0448	226	C6H5N2+
105.0699	325	C8H9+
106.0418	1	C7H6O+
106.0776	2	C8H10+
107.0491	58	C7H7O+
107.0855	14	C8H11+
108.057	8	C7H8O+
109.0648	42	C7H9O+
111.0444	1	C6H7O2+
115.0543	309	C9H7+
116.0621	74	C9H8+
117.0699	127	C9H9+
118.0777	8	C9H10+
119.0492	7	C8H7O+
119.0603	6	C7H7N2+
119.0856	65	C9H11+
120.057	4	C8H8O+
121.0648	85	C8H9O+
122.0722	1	C8H10O+
123.0804	16	C8H11O+
126.0463	5	C10H6+
127.0543	16	C10H7+
128.0621	319	C10H8+
129.0699	177	C10H9+
130.0778	42	C10H10+
131.0492	24	C9H7O+
131.0856	42	C10H11+
132.0569	12	C9H8O+
133.0648	27	C9H9O+
133.1012	6	C10H13+
135.0802	1	C9H11O+
139.0543	2	C11H7+
140.062	1	C11H8+
141.0699	218	C11H9+
142.0778	58	C11H10+
143.0855	31	C11H11+
144.0571	8	C10H8O+
144.0932	4	C11H12+
145.0649	36	C10H9O+
145.1013	6	C11H13+
146.0726	6	C10H10O+
147.0804	30	C10H11O+
148.0883	19	C10H12O+
152.0621	51	C12H8+
153.0699	94	C12H9+
154.0777	28	C12H10+
155.0604	45	C10H7N2+
155.0855	49	C12H11+
156.0932	9	C12H12+
157.0648	11	C11H9O+
157.1013	5	C12H13+
158.0727	1	C11H10O+
159.0804	7	C11H11O+
160.0883	1	C11H12O+
161.0963	1	C11H13O+
165.0699	90	C13H9+
166.0777	20	C13H10+
167.0856	35	C13H11+
168.0936	8	C13H12+
169.065	10	C12H9O+
169.1012	6	C13H13+
171.0804	1	C12H11O+
171.1168	1	C13H15+
172.0881	1	C12H12O+
173.096	1	C12H13O+
174.1038	2	C12H14O+
176.0619	1	C14H8+
177.0704	1	C14H9+
178.0777	47	C14H10+
179.0856	32	C14H11+
180.0933	6	C14H12+
181.101	10	C14H13+
183.0804	2	C13H11O+
183.1172	1	C14H15+
185.0959	1	C13H13O+
189.0695	8	C15H9+
190.0778	7	C15H10+
191.0855	17	C15H11+
192.0935	7	C15H12+
193.1013	6	C15H13+
194.1085	1	C15H14+
195.08	1	C14H11O+
195.1168	1	C15H15+
202.0779	9	C16H10+
203.0854	8	C16H11+
205.101	4	C16H13+
215.0857	2	C17H11+
216.0928	1	C17H12+
217.1009	1	C17H13+
