Mass spectrum: Myclobutanil; LC-ESI-ITFT; MS2; CE: 60%; R=15000; [M+H]+
Name: Myclobutanil
Name: MYC
Name: 2-(4-chlorophenyl)-2-(1,2,4-triazol-1-ylmethyl)hexanenitrile
Formula: C15H17ClN4
Exact mass: 288.1142
SMILES: Clc1ccc(cc1)C(C#N)(CCCC)Cn2ncnc2
InChI: InChI=1S/C15H17ClN4/c1-2-3-8-15(9-17,10-20-12-18-11-19-20)13-4-6-14(16)7-5-13/h4-7,11-12H,2-3,8,10H2,1H3
Instrument: LTQ Orbitrap XL Thermo Scientific
Instrument type: LC-ESI-ITFT
Ms type: MS2
Ion mode: POSITIVE
Ionization: ESI
Fragmentation mode: HCD
Collision energy: 60 % (nominal)
Resolution: 15000
Column name: XBridge C18 3.5um, 2.1x50mm, Waters
Retention time: 11.2 min
Base peak: 289.1218
Precursor m/z: 289.1215
Precursor type: [M+H]+
m/z	relative intensity	assigned
55.0541	1	C4H7+
57.07	2	C4H9+
70.04	858	C2H4N3+
80.0494	1	C5H6N+
81.0699	6	C6H9+
82.04	7	C3H4N3+
82.0652	3	C5H8N+
83.0478	12	C3H5N3+
94.0652	1	C6H8N+
95.073	6	C6H9N+
115.0542	7	C9H7+
116.0622	7	C9H8+
125.0153	999	C7H6Cl+
128.0495	6	C9H6N+
130.0651	15	C9H8N+
131.0728	5	C9H9N+
137.0153	6	C8H6Cl+
139.0309	8	C8H8Cl+
142.0778	2	C11H10+
143.0604	2	C9H7N2+
143.0729	4	C10H9N+
149.0153	10	C9H6Cl+
150.0105	20	C8H5ClN+
151.0309	183	C9H8Cl+
152.0616	1	C12H8+
153.0698	5	C12H9+
156.0809	3	C11H10N+
157.1012	1	C12H13+
163.0181	1	C9H6ClN+
163.0311	3	C10H8Cl+
164.0262	74	C9H7ClN+
165.034	10	C9H8ClN+
165.0463	3	C10H10Cl+
166.0418	14	C9H9ClN+
167.0853	5	C13H11+
168.0934	9	C13H12+
170.0965	2	C12H12N+
175.0307	7	C11H8Cl+
178.0418	30	C10H9ClN+
184.1125	2	C13H14N+
185.1207	1	C13H15N+
191.0497	3	C11H10ClN+
192.0576	6	C11H11ClN+
193.078	3	C12H14Cl+
203.0619	5	C13H12Cl+
220.0886	5	C13H15ClN+
