Mass spectrum: Uvinul-LR; LC-ESI-QFT; MS2; CE: 75%; R=17500; [M-H]-
Name: Uvinul-LR
Name: 2-ethoxyethyl 2-cyano-2-[3-(3-methoxypropylamino)cyclohex-2-en-1-ylidene]acetate
Formula: C17H26N2O4
Exact mass: 322.1893
SMILES: CCOCCOC(=O)C(=C1CCCC(=C1)NCCCOC)C#N
InChI: InChI=1S/C17H26N2O4/c1-3-22-10-11-23-17(20)16(13-18)14-6-4-7-15(12-14)19-8-5-9-21-2/h12,19H,3-11H2,1-2H3
Instrument: Exploris 240 Orbitrap Thermo Scientific
Instrument type: LC-ESI-QFT
Ms type: MS2
Ion mode: NEGATIVE
Ionization: ESI
Fragmentation mode: HCD
Collision energy: 75 % (nominal)
Resolution: 17500
Column name: XBridge C18 3.5um, 2.1x50mm, Waters
Retention time: 6.732 min
Base peak: 321.1817
Precursor m/z: 321.182
Precursor type: [M-H]-
m/z	relative intensity	assigned
59.014	107	C2H3O2-
61.0296	36	C2H5O2-
65.9985	903	C3NO-
76.0194	64	C5H2N-
89.0146	239	C5HN2-
90.0351	44	C6H4N-
92.0505	254	C6H6N-
104.0378	240	C6H4N2-
105.0461	48	C6H5N2-
117.0458	978	C7H5N2-
118.0537	999	C7H6N2-
128.1083	64	C7H14NO-
130.0171	139	C7H2N2O-
130.0538	63	C8H6N2-
131.0613	122	C8H7N2-
132.0691	161	C8H8N2-
133.0769	336	C8H9N2-
134.0616	73	C8H8NO-
143.0616	30	C9H7N2-
144.0697	75	C9H8N2-
145.077	634	C9H9N2-
146.085	446	C9H10N2-
159.0567	104	C9H7N2O-
159.093	65	C10H11N2-
161.0719	34	C9H9N2O-
162.0926	33	C10H12NO-
163.088	57	C9H11N2O-
173.1076	33	C11H13N2-
175.0511	76	C9H7N2O2-
203.1195	65	C12H15N2O-
231.1143	100	C13H15N2O2-
