Mass spectrum: Oxadiazon; LC-ESI-QFT; MS2; CE: 180; R=35000; [M+H]+
Name: Oxadiazon
Name: 5-tert-butyl-3-(2,4-dichloro-5-propan-2-yloxyphenyl)-1,3,4-oxadiazol-2-one
Formula: C15H18Cl2N2O3
Exact mass: 344.06945
SMILES: CC(C)OC1=C(C=C(C(=C1)N2C(=O)OC(=N2)C(C)(C)C)Cl)Cl
InChI: InChI=1S/C15H18Cl2N2O3/c1-8(2)21-12-7-11(9(16)6-10(12)17)19-14(20)22-13(18-19)15(3,4)5/h6-8H,1-5H3
Instrument: Q Exactive Plus Orbitrap Thermo Scientific
Instrument type: LC-ESI-QFT
Ms type: MS2
Ion mode: POSITIVE
Ionization: ESI
Fragmentation mode: HCD
Collision energy: 180 (nominal)
Resolution: 35000
Column name: XBridge C18 3.5um, 2.1x50mm, Waters
Retention time: 15.4 min
Base peak: 273.2055
Precursor m/z: 345.0767
Precursor type: [M+H]+
m/z	relative intensity	assigned
50.0152	331	C4H2+
51.023	47	C4H3+
52.0182	57	C3H2N+
53.0022	999	C3HO+
53.9975	20	C2NO+
55.0179	9	C3H3O+
56.0495	5	C3H6N+
57.0699	4	C4H9+
59.9761	8	C2HCl+
60.984	173	C2H2Cl+
61.9792	70	CHClN+
62.0151	5	C5H2+
62.9632	680	CClO+
64.0182	54	C4H2N+
65.0022	86	C4HO+
65.026	83	C4H3N+
66.01	41	C4H2O+
66.0338	136	C4H4N+
67.0178	35	C4H3O+
68.0131	101	C3H2NO+
68.9971	12	C3HO2+
69.9924	37	C2NO2+
71.9761	1	C3HCl+
72.984	187	C3H2Cl+
73.9917	5	C3H3Cl+
74.0963	1	C4H12N+
75.0103	311	C5HN+
76.0182	614	C5H2N+
77.0022	87	C5HO+
77.026	10	C5H3N+
78.01	6	C5H2O+
78.0339	28	C5H4N+
79.0178	12	C5H3O+
82.945	11	CHCl2+
83.9762	42	C4HCl+
84.984	819	C4H2Cl+
85.9792	18	C3HClN+
85.9918	12	C4H3Cl+
86.9633	314	C3ClO+
87.995	2	C3H3ClN+
88.0182	1	C6H2N+
88.9789	100	C3H2ClO+
91.0543	2	C7H7+
94.0288	100	C5H4NO+
95.0128	16	C5H3O2+
96.984	5	C5H2Cl+
101.0027	17	C4H4ClN+
101.9867	26	C4H3ClO+
106.945	16	C3HCl2+
109.9792	52	C5HClN+
110.9871	5	C5H2ClN+
111.9949	9	C5H3ClN+
112.0394	5	C5H6NO2+
112.9789	32	C5H2ClO+
115.0543	1	C9H7+
118.9449	2	C4HCl2+
120.9607	5	C4H3Cl2+
127.9897	1	C5H3ClNO+
130.9448	1	C5HCl2+
