Mass spectrum: Fentanyl; LC-ESI-QFT; MS2; CE: 180; R=35000; [M+H]+
Name: Fentanyl
Name: N-phenyl-N-[1-(2-phenylethyl)piperidin-4-yl]propanamide
Formula: C22H28N2O
Exact mass: 336.22016
SMILES: CCC(=O)N(C1CCN(CC1)CCC2=CC=CC=C2)C3=CC=CC=C3
InChI: InChI=1S/C22H28N2O/c1-2-22(25)24(20-11-7-4-8-12-20)21-14-17-23(18-15-21)16-13-19-9-5-3-6-10-19/h3-12,21H,2,13-18H2,1H3
Instrument: Q Exactive Plus Orbitrap Thermo Scientific
Instrument type: LC-ESI-QFT
Ms type: MS2
Ion mode: POSITIVE
Ionization: ESI
Fragmentation mode: HCD
Collision energy: 180 (nominal)
Resolution: 35000
Column name: XBridge C18 3.5um, 2.1x50mm, Waters
Retention time: 6.0 min
Base peak: 337.2264
Precursor m/z: 337.2274
Precursor type: [M+H]+
m/z	relative intensity	assigned
50.0151	361	C4H2+
51.023	698	C4H3+
53.0386	388	C4H5+
53.9975	2	C2NO+
54.0338	1	C3H4N+
55.0178	19	C3H3O+
55.0542	11	C4H7+
56.0495	8	C3H6N+
63.0229	9	C5H3+
65.0022	25	C4HO+
65.0386	58	C5H5+
66.0464	7	C5H6+
67.0416	1	C4H5N+
67.0542	7	C5H7+
67.9894	1	C3O2+
68.0495	6	C4H6N+
68.997	2	C3HO2+
74.0151	4	C6H2+
77.0385	669	C6H5+
78.0464	28	C6H6+
79.0542	410	C6H7+
81.0335	42	C5H5O+
89.0386	25	C7H5+
90.0465	13	C7H6+
91.0542	45	C7H7+
93.0574	2	C6H7N+
94.0413	11	C6H6O+
94.0652	2	C6H8N+
95.0491	999	C6H7O+
102.0464	25	C8H6+
103.0542	249	C8H7+
104.0621	6	C8H8+
105.0447	722	C6H5N2+
105.0699	45	C8H9+
106.0418	2	C7H6O+
109.0649	2	C7H9O+
115.0543	20	C9H7+
117.0573	10	C8H7N+
118.0653	2	C8H8N+
128.0619	4	C10H8+
130.0652	16	C9H8N+
