Mass spectrum: Benzothiazole; LC-ESI-ITFT; MS2; CE: 60%; R=15000; [M+H]+
Name: Benzothiazole
Name: Benzosulfonazole
Name: 1,3-benzothiazole
Formula: C7H5NS
Exact mass: 135.0143
SMILES: c12c(scn1)cccc2
InChI: InChI=1S/C7H5NS/c1-2-4-7-6(3-1)8-5-9-7/h1-5H
Instrument: LTQ Orbitrap XL Thermo Scientific
Instrument type: LC-ESI-ITFT
Ms type: MS2
Ion mode: POSITIVE
Ionization: ESI
Fragmentation mode: HCD
Collision energy: 60 % (nominal)
Resolution: 15000
Column name: XBridge C18 3.5um, 2.1x50mm, Waters
Retention time: 6.6 min
Base peak: 136.0212
Precursor m/z: 136.0215
Precursor type: [M+H]+
m/z	relative intensity	assigned
109.0107	10	C6H5S+
136.0217	999	C7H6NS+
