Mass spectrum: N,O-Didesmethylvenlafaxine; LC-ESI-ITFT; MS2; CE: 30%; R=7500; [M+H]+
Name: N,O-Didesmethylvenlafaxine
Name: 4-[1-(1-Hydroxycyclohexyl)-2-(methylamino)ethyl]phenol
Formula: C15H23NO2
Exact mass: 249.1729
SMILES: OC2(C(c1ccc(O)cc1)CNC)CCCCC2
InChI: InChI=1S/C15H23NO2/c1-16-11-14(12-5-7-13(17)8-6-12)15(18)9-3-2-4-10-15/h5-8,14,16-18H,2-4,9-11H2,1H3
Instrument: LTQ Orbitrap XL Thermo Scientific
Instrument type: LC-ESI-ITFT
Ms type: MS2
Ion mode: POSITIVE
Ionization: ESI
Fragmentation mode: HCD
Collision energy: 30 % (nominal)
Resolution: 7500
Column name: XBridge C18 3.5um, 2.1x50mm, Waters
Retention time: 4.9 min
Base peak: 250.1809
Precursor m/z: 250.1802
Precursor type: [M+H]+
m/z	relative intensity	assigned
107.0491	81	C7H7O+
133.0649	105	C9H9O+
145.0653	26	C10H9O+
159.0808	23	C11H11O+
201.1274	474	C14H17O+
232.1696	999	C15H22NO+
250.1799	559	C15H24NO2+
