Mass spectrum: Asulam; LC-ESI-ITFT; MS2; CE: 60%; R=15000; [M+H]+
Name: Asulam
Name: N-(4-aminophenyl)sulfonylcarbamic acid methyl ester
Formula: C8H10N2O4S
Exact mass: 230.0356
SMILES: c1(S(NC(OC)=O)(=O)=O)ccc(N)cc1
InChI: InChI=1S/C8H10N2O4S/c1-14-8(11)10-15(12,13)7-4-2-6(9)3-5-7/h2-5H,9H2,1H3,(H,10,11)
Instrument: LTQ Orbitrap XL Thermo Scientific
Instrument type: LC-ESI-ITFT
Ms type: MS2
Ion mode: POSITIVE
Ionization: ESI
Fragmentation mode: HCD
Collision energy: 60 % (nominal)
Resolution: 15000
Column name: XBridge C18 3.5um, 2.1x50mm, Waters
Retention time: 2.4 min
Base peak: 231.0435
Precursor m/z: 231.0434
Precursor type: [M+H]+
m/z	relative intensity	assigned
65.0385	258	C5H5+
68.0494	84	C4H6N+
78.0337	8	C5H4N+
79.018	7	C5H3O+
80.0495	12	C5H6N+
92.0495	938	C6H6N+
93.0572	8	C6H7N+
96.0444	15	C5H6NO+
108.0444	999	C6H6NO+
110.06	79	C6H8NO+
120.0555	21	C6H6N3+
156.0114	200	C6H6NO2S+
