Mass spectrum: Bezafibrate; LC-ESI-ITFT; MS2; CE: 15%; R=7500; [M-H]-
Name: Bezafibrate
Name: 2-[4-[2-[(4-chlorobenzoyl)amino]ethyl]phenoxy]-2-methyl-propionic acid
Formula: C19H20ClNO4
Exact mass: 361.1081
SMILES: c1(C(NCCc2ccc(OC(C(O)=O)(C)C)cc2)=O)ccc(Cl)cc1
InChI: InChI=1S/C19H20ClNO4/c1-19(2,18(23)24)25-16-9-3-13(4-10-16)11-12-21-17(22)14-5-7-15(20)8-6-14/h3-10H,11-12H2,1-2H3,(H,21,22)(H,23,24)
Instrument: LTQ Orbitrap XL Thermo Scientific
Instrument type: LC-ESI-ITFT
Ms type: MS2
Ion mode: NEGATIVE
Ionization: ESI
Fragmentation mode: HCD
Collision energy: 15 % (nominal)
Resolution: 7500
Column name: XBridge C18 3.5um, 2.1x50mm, Waters
Retention time: 10.5 min
Base peak: 360.1002
Precursor m/z: 360.1008
Precursor type: [M-H]-
m/z	relative intensity	assigned
85.0295	54	C4H5O2-
154.0067	7	C7H5ClNO-
274.0641	530	C18H10O3-
360.1014	999	C19H19ClNO4-
