Mass spectrum: 4-chloro-N-methylaniline; LC-ESI-QFT; MS2; CE: 180; R=35000; [M+H]+
Name: 4-chloro-N-methylaniline
Formula: C7H8ClN
Exact mass: 141.03453
SMILES: CNC1=CC=C(C=C1)Cl
InChI: InChI=1S/C7H8ClN/c1-9-7-4-2-6(8)3-5-7/h2-5,9H,1H3
Instrument: Q Exactive Plus Orbitrap Thermo Scientific
Instrument type: LC-ESI-QFT
Ms type: MS2
Ion mode: POSITIVE
Ionization: ESI
Fragmentation mode: HCD
Collision energy: 180 (nominal)
Resolution: 35000
Column name: XBridge C18 3.5um, 2.1x50mm, Waters
Retention time: 5.0 min
Base peak: 142.0417
Precursor m/z: 142.0418
Precursor type: [M+H]+
m/z	relative intensity	assigned
50.0151	4	C4H2+
51.0229	4	C4H3+
52.0182	10	C3H2N+
53.0022	22	C3HO+
53.9974	3	C2NO+
54.0338	2	C3H4N+
54.0464	2	C4H6+
56.0494	4	C3H6N+
62.0151	2	C5H2+
63.0229	44	C5H3+
64.0307	25	C5H4+
65.0385	999	C5H5+
66.0338	16	C4H4N+
67.0417	6	C4H5N+
72.9839	19	C3H2Cl+
74.015	20	C6H2+
75.0229	30	C6H3+
76.0181	5	C5H2N+
77.0385	3	C6H5+
79.0542	2	C6H7+
84.9839	4	C4H2Cl+
87.9948	6	C3H3ClN+
89.0385	1	C7H5+
90.0338	4	C6H4N+
91.0416	27	C6H5N+
92.0494	200	C6H6N+
95.0491	3	C6H7O+
98.9996	53	C5H4Cl+
100.0074	151	C5H5Cl+
101.0026	2	C4H4ClN+
105.0448	2	C6H5N2+
106.0651	6	C7H8N+
110.06	13	C6H8NO+
111.995	1	C5H3ClN+
126.0104	8	C6H5ClN+
127.0183	154	C6H6ClN+
