Mass spectrum: Dexamethasone; LC-ESI-ITFT; MS2; CE: 75%; R=15000; [M+H]+
Name: Dexamethasone
Name: (8S,9R,10S,11S,13S,14S,16R,17R)-9-fluoranyl-10,13,16-trimethyl-11,17-bis(oxidanyl)-17-(2-oxidanylethanoyl)-6,7,8,11,12,14,15,16-octahydrocyclopenta[a]phenanthren-3-one
Formula: C22H29FO5
Exact mass: 392.1999
SMILES: [H][C@@]12C[C@@H](C)[C@](O)(C(=O)CO)[C@@]1(C)C[C@H](O)[C@@]3(F)[C@@]2([H])CCC4=CC(=O)C=C[C@]34C
InChI: InChI=1S/C22H29FO5/c1-12-8-16-15-5-4-13-9-14(25)6-7-19(13,2)21(15,23)17(26)10-20(16,3)22(12,28)18(27)11-24/h6-7,9,12,15-17,24,26,28H,4-5,8,10-11H2,1-3H3/t12-,15+,16+,17+,19+,20+,21+,22+/m1/s1
Instrument: LTQ Orbitrap XL Thermo Scientific
Instrument type: LC-ESI-ITFT
Ms type: MS2
Ion mode: POSITIVE
Ionization: ESI
Fragmentation mode: HCD
Collision energy: 75 % (nominal)
Resolution: 15000
Column name: XBridge C18 3.5um, 2.1x50mm, Waters
Retention time: 9.5 min
Base peak: 393.2068
Precursor m/z: 393.2072
Precursor type: [M+H]+
m/z	relative intensity	assigned
67.0543	109	C5H7+
79.0541	139	C6H7+
81.0697	78	C6H9+
91.0542	414	C7H7+
93.0698	206	C7H9+
95.0489	86	C6H7O+
95.0854	169	C7H11+
103.0542	68	C8H7+
105.0699	542	C8H9+
107.0491	85	C7H7O+
107.0855	370	C8H11+
115.0538	83	C9H7+
117.0696	190	C9H9+
119.0855	602	C9H11+
121.0648	999	C8H9O+
128.0619	348	C10H8+
129.0698	217	C10H9+
131.0492	71	C9H7O+
131.0852	249	C10H11+
132.057	182	C9H8O+
133.0643	68	C9H9O+
133.1008	88	C10H13+
135.0804	203	C9H11O+
141.0697	228	C11H9+
142.0781	90	C11H10+
143.0855	372	C11H11+
144.0571	105	C10H8O+
145.0646	333	C10H9O+
145.1005	71	C11H13+
146.0729	124	C10H10O+
147.0804	967	C10H11O+
155.0853	112	C12H11+
157.1019	88	C12H13+
158.0726	99	C11H10O+
159.0803	424	C11H11O+
161.0958	139	C11H13O+
165.0699	121	C13H9+
171.0803	439	C12H11O+
178.0779	114	C14H10+
179.0854	254	C14H11+
180.0936	63	C11H13FO+
181.0647	135	C13H9O+
181.1014	85	C14H13+
182.0721	131	C13H10O+
183.0805	75	C13H11O+
185.0958	181	C13H13O+
189.0703	58	C15H9+
190.0779	67	C15H10+
191.0851	118	C15H11+
192.0935	145	C15H12+
193.101	210	C15H13+
194.1088	128	C15H14+
195.0805	120	C14H11O+
196.0883	179	C14H12O+
197.0961	220	C14H13O+
202.0772	61	C16H10+
203.0854	148	C16H11+
204.093	112	C16H12+
206.1091	86	C16H14+
207.0805	205	C15H11O+
207.1162	66	C16H15+
208.0879	274	C15H12O+
209.0959	298	C15H13O+
210.1036	130	C15H14O+
211.112	92	C15H15O+
219.0806	88	C16H11O+
219.116	84	C17H15+
221.0958	237	C16H13O+
221.1328	65	C17H17+
222.1037	384	C16H14O+
223.1117	141	C16H15O+
233.0961	121	C17H13O+
235.1119	120	C17H15O+
237.1263	78	C17H17O+
246.1039	87	C18H14O+
247.1122	72	C18H15O+
248.1189	148	C18H16O+
249.1276	124	C18H17O+
261.1272	125	C19H17O+
263.1426	113	C19H19O+
