Mass spectrum: Cyenopyrafen; LC-ESI-QFT; MS2; CE: 75%; R=17500; [M+H]+
Name: Cyenopyrafen
Name: (E)-2-(4-tert-butylphenyl)-2-cyano-1-(1,3,4-trimethylpyrazol-5-yl)vinyl 2,2-dimethylpropionate
Name: [2-(4-tert-butylphenyl)-2-cyano-1-(2,4,5-trimethylpyrazol-3-yl)ethenyl] 2,2-dimethylpropanoate
Formula: C24H31N3O2
Exact mass: 393.2416
SMILES: CC1=C(N(N=C1C)C)C(=C(C#N)C2=CC=C(C=C2)C(C)(C)C)OC(=O)C(C)(C)C
InChI: InChI=1S/C24H31N3O2/c1-15-16(2)26-27(9)20(15)21(29-22(28)24(6,7)8)19(14-25)17-10-12-18(13-11-17)23(3,4)5/h10-13H,1-9H3
Instrument: Exploris 240 Orbitrap Thermo Scientific
Instrument type: LC-ESI-QFT
Ms type: MS2
Ion mode: POSITIVE
Ionization: ESI
Fragmentation mode: HCD
Collision energy: 75 % (nominal)
Resolution: 17500
Column name: XBridge C18 3.5um, 2.1x50mm, Waters
Retention time: 14.706 min
Base peak: 360.3623
Precursor m/z: 394.2489
Precursor type: [M+H]+
m/z	relative intensity	assigned
56.0494	28	C3H6N+
57.0699	999	C4H9+
68.0494	31	C4H6N+
69.0573	349	C4H7N+
70.0651	56	C4H8N+
89.0388	49	C7H5+
91.054	66	C7H7+
95.0603	91	C5H7N2+
96.0685	28	C5H8N2+
109.076	259	C6H9N2+
110.084	184	C6H10N2+
111.0917	478	C6H11N2+
116.0494	296	C8H6N+
123.0556	40	C6H7N2O+
129.0698	80	C10H9+
130.0654	18	C9H8N+
134.0714	24	C7H8N3+
136.0869	17	C7H10N3+
137.0709	203	C7H9N2O+
144.0442	186	C9H6NO+
156.0444	172	C10H6NO+
156.0804	26	C11H10N+
157.0649	26	C11H9O+
159.0807	47	C11H11O+
168.0811	17	C12H10N+
172.1123	15	C12H14N+
184.0758	780	C12H10NO+
185.1075	50	C12H13N2+
209.1077	54	C14H13N2+
236.1184	45	C15H14N3+
238.0979	38	C14H12N3O+
252.1138	90	C15H14N3O+
253.1212	104	C15H15N3O+
254.1291	548	C15H16N3O+
294.1602	394	C18H20N3O+
