Mass spectrum: Dopamine; LC-ESI-QFT; MS2; CE: 45; R=35000; [M-H]-
Name: Dopamine
Name: 4-(2-aminoethyl)benzene-1,2-diol
Formula: C8H11NO2
Exact mass: 153.07898
SMILES: C1=CC(=C(C=C1CCN)O)O
InChI: InChI=1S/C8H11NO2/c9-4-3-6-1-2-7(10)8(11)5-6/h1-2,5,10-11H,3-4,9H2
Instrument: Q Exactive Orbitrap Thermo Scientific
Instrument type: LC-ESI-QFT
Ms type: MS2
Ion mode: NEGATIVE
Ionization: ESI
Fragmentation mode: HCD
Collision energy: 45 (nominal)
Resolution: 35000
Column name: XBridge C18 3.5um, 2.1x50mm, Waters
Retention time: 0.9 min
Base peak: 152.0718
Precursor m/z: 152.0717
Precursor type: [M-H]-
m/z	relative intensity	assigned
108.0217	6	C6H4O2-
121.0295	1	C7H5O2-
122.0374	999	C7H6O2-
123.0451	81	C7H7O2-
124.0165	31	C6H4O3-
136.0165	7	C7H4O3-
137.0244	58	C7H5O3-
152.0716	961	C8H10NO2-
