Mass spectrum: Atenolol acid; LC-ESI-ITFT; MS2; CE: 90%; R=7500; [M+H]+
Name: Atenolol acid
Name: Metoprolol acid
Name: 4-(2-Hydroxy-3-((1-methylethyl)amino)propoxy)benzeneacetic acid
Formula: C14H21NO4
Exact mass: 267.1471
SMILES: CC(C)NCC(O)COc1ccc(cc1)CC(=O)O
InChI: InChI=1S/C14H21NO4/c1-10(2)15-8-12(16)9-19-13-5-3-11(4-6-13)7-14(17)18/h3-6,10,12,15-16H,7-9H2,1-2H3,(H,17,18)
Instrument: LTQ Orbitrap XL Thermo Scientific
Instrument type: LC-ESI-ITFT
Ms type: MS2
Ion mode: POSITIVE
Ionization: ESI
Fragmentation mode: HCD
Collision energy: 90 % (nominal)
Resolution: 7500
Column name: XBridge C18 3.5um, 2.1x50mm, Waters
Retention time: 3.8 min
Base peak: 268.1553
Precursor m/z: 268.1543
Precursor type: [M+H]+
m/z	relative intensity	assigned
56.0495	315	C3H6N+
58.065	43	C3H8N+
72.0808	106	C4H10N+
74.0601	136	C3H8NO+
77.0386	116	C6H5+
79.0542	720	C6H7+
81.0699	45	C6H9+
84.0806	19	C5H10N+
89.0386	336	C7H5+
91.0542	453	C7H7+
95.0491	122	C6H7O+
98.0964	25	C6H12N+
100.112	25	C6H14N+
105.0449	39	C6H5N2+
105.0699	30	C8H9+
107.0491	274	C7H7O+
109.0651	68	C7H9O+
115.0542	203	C9H7+
117.0699	264	C9H9+
119.0493	105	C8H7O+
123.0443	32	C7H7O2+
133.0653	18	C9H9O+
135.0438	63	C8H7O2+
137.0599	60	C8H9O2+
145.0648	999	C10H9O+
155.0607	34	C10H7N2+
163.0501	231	C8H7N2O2+
