Mass spectrum: Metolachlor; LC-ESI-ITFT; MS2; CE: 75%; R=7500; [M+H]+
Name: Metolachlor
Name: 2-chloranyl-N-(2-ethyl-6-methyl-phenyl)-N-(1-methoxypropan-2-yl)ethanamide
Formula: C15H22ClNO2
Exact mass: 283.1334
SMILES: CCC1=CC=CC(=C1N(C(C)COC)C(=O)CCl)C
InChI: InChI=1S/C15H22ClNO2/c1-5-13-8-6-7-11(2)15(13)17(14(18)9-16)12(3)10-19-4/h6-8,12H,5,9-10H2,1-4H3
Instrument: LTQ Orbitrap XL Thermo Scientific
Instrument type: LC-ESI-ITFT
Ms type: MS2
Ion mode: POSITIVE
Ionization: ESI
Fragmentation mode: HCD
Collision energy: 75 % (nominal)
Resolution: 7500
Column name: XBridge C18 3.5um, 2.1x50mm, Waters
Retention time: 11.8 min
Base peak: 306.1236
Precursor m/z: 284.1412
Precursor type: [M+H]+
m/z	relative intensity	assigned
73.0648	98	C4H9O+
76.9789	32	C2H2ClO+
91.0543	145	C7H7+
93.0698	12	C7H9+
103.0545	21	C8H7+
105.0695	18	C8H9+
107.0858	23	C8H11+
108.0807	86	C7H10N+
109.0645	32	C7H9O+
117.0698	113	C9H9+
118.0653	31	C8H8N+
119.0731	72	C8H9N+
119.0855	124	C9H11+
120.0807	123	C8H10N+
130.0648	55	C9H8N+
131.0728	64	C9H9N+
132.0807	87	C9H10N+
133.0886	322	C9H11N+
134.0964	640	C9H12N+
135.0805	21	C6H14ClN+
136.1125	18	C9H14N+
143.0727	59	C10H9N+
144.0807	100	C10H10N+
145.0885	98	C10H11N+
146.0965	265	C10H12N+
147.0674	14	C9H9NO+
147.1044	34	C10H13N+
148.0755	22	C9H10NO+
148.112	81	C10H14N+
158.0966	162	C11H12N+
159.1042	89	C11H13N+
160.112	246	C11H14N+
161.1203	20	C11H15N+
162.0913	48	C10H12NO+
166.0417	18	C9H9ClN+
174.128	31	C12H16N+
176.1434	999	C12H18N+
184.0523	152	C9H11ClNO+
188.1078	17	C12H14NO+
194.0728	34	C11H13ClN+
202.1217	13	C13H16NO+
212.0832	35	C11H15ClNO+
252.1157	140	C14H19ClNO+
