Mass spectrum: Thifensulfuron-methyl; LC-ESI-ITFT; MS2; CE: 90%; R=30000; [M+H]+
Name: Thifensulfuron-methyl
Name: 3-[(4-methoxy-6-methyl-s-triazin-2-yl)carbamoylsulfamoyl]thiophene-2-carboxylic acid methyl ester
Formula: C12H13N5O6S2
Exact mass: 387.0307
SMILES: COC(=O)C1=C(C=CS1)S(=O)(=O)NC(=O)NC1=NC(C)=NC(OC)=N1
InChI: InChI=1S/C12H13N5O6S2/c1-6-13-10(16-12(14-6)23-3)15-11(19)17-25(20,21)7-4-5-24-8(7)9(18)22-2/h4-5H,1-3H3,(H2,13,14,15,16,17,19)
Instrument: LTQ Orbitrap XL Thermo Scientific
Instrument type: LC-ESI-ITFT
Ms type: MS2
Ion mode: POSITIVE
Ionization: ESI
Fragmentation mode: HCD
Collision energy: 90 % (nominal)
Resolution: 30000
Column name: XBridge C18 3.5um, 2.1x50mm, Waters
Retention time: 7.2 min
Base peak: 388.0375
Precursor m/z: 388.038
Precursor type: [M+H]+
m/z	relative intensity	assigned
68.9793	4	C3HS+
69.0083	96	C2HN2O+
69.9872	100	C3H2S+
70.995	10	C3H3S+
78.9848	62	CH3O2S+
82.9949	10	C4H3S+
83.024	140	C3H3N2O+
85.0107	30	C4H5S+
85.0397	8	C3H5N2O+
86.9899	19	C3H3OS+
95.9901	8	C4H2NS+
97.9821	325	C4H2OS+
100.0505	18	C3H6N3O+
107.9906	4	C5H2NS+
110.9899	21	C5H3OS+
111.0011	13	C4H3N2S+
114.9847	3	C4H3O2S+
123.985	18	C5H2NOS+
125.977	999	C5H2O2S+
126.9848	8	C5H3O2S+
141.0005	71	C6H5O2S+
141.0771	48	C5H9N4O+
143.9876	42	C5H4O3S+
151.98	4	C6H2NO2S+
167.0563	87	C6H7N4O2+
171.9518	4	C5H2NO2S2+
174.9518	18	C5H3O3S2+
189.9627	4	C5H4NO3S2+
204.9623	35	C6H5O4S2+
