Mass spectrum: Bistrifluron; LC-ESI-QFT; MS2; CE: 90%; R=17500; [M-H]-
Name: Bistrifluron
Name: N-[[2-chloro-3,5-bis(trifluoromethyl)phenyl]carbamoyl]-2,6-difluorobenzamide
Formula: C16H7ClF8N2O2
Exact mass: 446.0068
SMILES: C1=CC(=C(C(=C1)F)C(=O)NC(=O)NC2=CC(=CC(=C2Cl)C(F)(F)F)C(F)(F)F)F
InChI: InChI=1S/C16H7ClF8N2O2/c17-12-7(16(23,24)25)4-6(15(20,21)22)5-10(12)26-14(29)27-13(28)11-8(18)2-1-3-9(11)19/h1-5H,(H2,26,27,28,29)
Instrument: Exploris 240 Orbitrap Thermo Scientific
Instrument type: LC-ESI-QFT
Ms type: MS2
Ion mode: NEGATIVE
Ionization: ESI
Fragmentation mode: HCD
Collision energy: 90 % (nominal)
Resolution: 17500
Column name: XBridge C18 3.5um, 2.1x50mm, Waters
Retention time: 14.727 min
Base peak: 444.9993
Precursor m/z: 444.9996
Precursor type: [M-H]-
m/z	relative intensity	assigned
73.0083	12	C6H-
88.0003	14	C3F2N-
93.0145	188	C6H2F-
112.0004	9	C5F2N-
113.0208	66	C6H3F2-
136.0002	33	C7F2N-
140.9955	8	C7F3-
154.9923	12	C5F5-
156.0064	39	C7HF3N-
178.9928	9	C7F5-
185.9971	999	C8F4N-
206.0034	484	C8HF5N-
226.0097	120	C8H2F6N-
230.9987	48	C9F5N2-
