Mass spectrum: Florpyrauxifen-Benzyl; LC-ESI-QFT; MS2; CE: 75%; R=17500; [M+H]+
Name: Florpyrauxifen-Benzyl
Name: benzyl 4-amino-3-chloro-6-(4-chloro-2-fluoro-3-methoxyphenyl)-5-fluoropyridine-2-carboxylate
Formula: C20H14Cl2F2N2O3
Exact mass: 438.0350
SMILES: COC1=C(C=CC(=C1F)C2=NC(=C(C(=C2F)N)Cl)C(=O)OCC3=CC=CC=C3)Cl
InChI: InChI=1S/C20H14Cl2F2N2O3/c1-28-19-12(21)8-7-11(14(19)23)17-15(24)16(25)13(22)18(26-17)20(27)29-9-10-5-3-2-4-6-10/h2-8H,9H2,1H3,(H2,25,26)
Instrument: Exploris 240 Orbitrap Thermo Scientific
Instrument type: LC-ESI-QFT
Ms type: MS2
Ion mode: POSITIVE
Ionization: ESI
Fragmentation mode: HCD
Collision energy: 75 % (nominal)
Resolution: 17500
Column name: XBridge C18 3.5um, 2.1x50mm, Waters
Retention time: 11.990 min
Base peak: 439.042
Precursor m/z: 439.0422
Precursor type: [M+H]+
m/z	relative intensity	assigned
65.0385	50	C5H5+
91.0542	999	C7H7+
