Mass spectrum: Clomazone; LC-ESI-ITFT; MS2; CE: 30%; R=15000; [M+H]+
Name: Clomazone
Name: 2-(2-chlorobenzyl)-4,4-dimethyl-isoxazolidin-3-one
Formula: C12H14ClNO2
Exact mass: 239.0708
SMILES: N1(C(C(C)(C)CO1)=O)Cc1c(cccc1)Cl
InChI: InChI=1S/C12H14ClNO2/c1-12(2)8-16-14(11(12)15)7-9-5-3-4-6-10(9)13/h3-6H,7-8H2,1-2H3
Instrument: LTQ Orbitrap XL Thermo Scientific
Instrument type: LC-ESI-ITFT
Ms type: MS2
Ion mode: POSITIVE
Ionization: ESI
Fragmentation mode: HCD
Collision energy: 30 % (nominal)
Resolution: 15000
Column name: XBridge C18 3.5um, 2.1x50mm, Waters
Retention time: 9.4 min
Base peak: 240.0791
Precursor m/z: 240.0786
Precursor type: [M+H]+
m/z	relative intensity	assigned
89.0384	2	C7H5+
100.0758	4	C5H10NO+
114.0546	2	C5H8NO2+
125.0153	999	C7H6Cl+
128.0705	13	C6H10NO2+
240.0787	867	C12H15ClNO2+
