Mass spectrum: Flurtamone; LC-ESI-QFT; MS2; CE: 120; R=35000; [M+H]+
Name: Flurtamone
Name: 5-(methylamino)-2-phenyl-4-[3-(trifluoromethyl)phenyl]furan-3-one
Formula: C18H14F3NO2
Exact mass: 333.09766
SMILES: CNC1=C(C(=O)C(O1)C2=CC=CC=C2)C3=CC(=CC=C3)C(F)(F)F
InChI: InChI=1S/C18H14F3NO2/c1-22-17-14(12-8-5-9-13(10-12)18(19,20)21)15(23)16(24-17)11-6-3-2-4-7-11/h2-10,16,22H,1H3
Instrument: Q Exactive Plus Orbitrap Thermo Scientific
Instrument type: LC-ESI-QFT
Ms type: MS2
Ion mode: POSITIVE
Ionization: ESI
Fragmentation mode: HCD
Collision energy: 120 (nominal)
Resolution: 35000
Column name: XBridge C18 3.5um, 2.1x50mm, Waters
Retention time: 10.1 min
Base peak: 334.1042
Precursor m/z: 334.1049
Precursor type: [M+H]+
m/z	relative intensity	assigned
50.0151	34	C4H2+
51.023	24	C4H3+
53.0386	66	C4H5+
55.0179	5	C3H3O+
58.0288	92	C2H4NO+
63.0228	1	C5H3+
65.0386	10	C5H5+
66.0464	1	C5H6+
68.9946	4	CF3+
74.015	2	C6H2+
75.0041	5	C3HF2+
75.0228	9	C6H3+
77.0385	138	C6H5+
79.0542	4	C6H7+
81.0136	1	C5H2F+
81.0335	7	C5H5O+
83.0291	3	C5H4F+
87.0228	1	C7H3+
89.0386	14	C7H5+
90.0464	11	C7H6+
91.0543	24	C7H7+
94.0414	4	C6H6O+
95.0492	245	C6H7O+
99.0041	4	C5HF2+
99.023	8	C8H3+
101.0198	4	C5H3F2+
101.0386	1	C8H5+
102.0464	21	C8H6+
103.0543	21	C8H7+
104.0495	4	C7H6N+
105.0336	62	C7H5O+
105.0448	149	C6H5N2+
107.0292	1	C7H4F+
109.0449	16	C7H6F+
115.0543	16	C9H7+
116.0496	4	C8H6N+
117.0574	1	C8H7N+
118.0413	2	C8H6O+
118.065	4	C8H8N+
119.0104	2	C5H2F3+
119.0291	5	C8H4F+
120.0371	1	C8H5F+
120.0809	11	C8H10N+
123.0354	5	C6H4FN2+
125.0198	7	C7H3F2+
126.0465	17	C10H6+
127.0354	3	C7H5F2+
127.0544	3	C10H7+
128.0621	36	C10H8+
129.0447	3	C8H5N2+
130.0652	7	C9H8N+
131.0292	2	C9H4F+
133.045	8	C9H6F+
134.0403	1	C8H5FN+
138.0278	2	C8H4F2+
138.0465	2	C11H6+
139.0543	21	C11H7+
143.0104	3	C7H2F3+
145.026	26	C7H4F3+
147.0353	7	C8H4FN2+
149.0199	16	C9H3F2+
150.0465	16	C12H6+
151.0355	48	C9H5F2+
151.0543	48	C12H7+
152.0621	639	C12H8+
153.07	1	C12H9+
155.0602	2	C10H7N2+
157.045	5	C11H6F+
158.0338	1	C8H5F3+
159.0418	3	C8H6F3+
163.0542	17	C13H7+
164.062	3	C13H8+
165.07	32	C13H9+
168.057	1	C12H8O+
169.026	52	C9H4F3+
169.0649	120	C12H9O+
170.0528	15	C12H7F+
175.0357	2	C11H5F2+
175.0543	3	C14H7+
176.0622	565	C14H8+
177.07	461	C14H9+
178.0777	999	C14H10+
179.0604	35	C12H7N2+
181.0448	37	C13H6F+
181.065	2	C13H9O+
182.0337	3	C10H5F3+
182.0526	4	C13H7F+
183.042	1	C10H6F3+
183.0606	21	C13H8F+
183.0805	1	C13H11O+
185.0446	1	C9H6F3N+
187.0543	43	C15H7+
188.0433	7	C12H6F2+
188.0623	3	C15H8+
189.07	24	C15H9+
193.0647	5	C14H9O+
194.0527	8	C14H7F+
195.0606	8	C14H8F+
196.0684	111	C14H9F+
199.0354	2	C13H5F2+
200.0432	2	C13H6F2+
201.0511	92	C13H7F2+
203.0604	2	C14H7N2+
203.0731	3	C15H9N+
204.0808	1	C15H10N+
205.045	29	C15H6F+
205.0649	7	C15H9O+
206.0529	40	C15H7F+
207.0606	436	C15H8F+
208.0679	2	C15H9F+
210.0477	12	C14H7FO+
212.0433	2	C14H6F2+
214.0591	12	C14H8F2+
217.089	1	C16H11N+
219.0419	2	C13H6F3+
220.0498	2	C13H7F3+
225.0512	130	C15H7F2+
226.0589	7	C15H8F2+
227.0668	153	C15H9F2+
232.0493	1	C14H7F3+
233.0572	2	C14H8F3+
238.0428	4	C15H7FO2+
238.0586	2	C16H8F2+
245.0574	36	C15H8F3+
246.0652	27	C15H9F3+
