Mass spectrum: Pendimethalin; LC-ESI-QFT; MS2; CE: 45; R=35000; [M+H]+
Name: Pendimethalin
Name: (3,4-dimethyl-2,6-dinitro-phenyl)-(1-ethylpropyl)amine
Formula: C13H19N3O4
Exact mass: 281.13756
SMILES: [O-][N+](=O)c1c(c(cc([N+]([O-])=O)c1NC(CC)CC)C)C
InChI: InChI=1S/C13H19N3O4/c1-5-10(6-2)14-12-11(15(17)18)7-8(3)9(4)13(12)16(19)20/h7,10,14H,5-6H2,1-4H3
Instrument: Q Exactive Orbitrap Thermo Scientific
Instrument type: LC-ESI-QFT
Ms type: MS2
Ion mode: POSITIVE
Ionization: ESI
Fragmentation mode: HCD
Collision energy: 45 (nominal)
Resolution: 35000
Column name: XBridge C18 3.5um, 2.1x50mm, Waters
Retention time: 16.0 min
Base peak: 212.0667
Precursor m/z: 282.1448
Precursor type: [M+H]+
m/z	relative intensity	assigned
50.0152	1	C4H2+
51.0228	1	C4H3+
52.0183	4	C3H2N+
53.0024	8	C3HO+
53.0387	3	C4H5+
53.9976	2	C2NO+
54.0339	2	C3H4N+
63.0229	3	C5H3+
64.0183	1	C4H2N+
64.0307	4	C5H4+
65.0261	12	C4H3N+
65.0386	34	C5H5+
66.0339	52	C4H4N+
66.0465	34	C5H6+
67.0178	3	C4H3O+
67.0291	4	C3H3N2+
67.0417	43	C4H5N+
68.0131	3	C3H2NO+
68.0495	33	C4H6N+
69.0084	3	C2HN2O+
69.0335	3	C4H5O+
69.9924	7	C2NO2+
70.0651	2	C4H8N+
71.0855	143	C5H11+
76.0182	8	C5H2N+
77.026	13	C5H3N+
78.0339	122	C5H4N+
79.0291	13	C4H3N2+
79.0416	14	C5H5N+
79.0542	13	C6H7+
80.0495	189	C5H6N+
81.0335	16	C5H5O+
81.0573	38	C5H7N+
82.0288	2	C4H4NO+
82.0413	8	C5H6O+
84.0444	2	C4H6NO+
90.0339	8	C6H4N+
91.0417	374	C6H5N+
92.0368	22	C5H4N2+
92.0495	109	C6H6N+
93.0084	3	C4HN2O+
93.0447	42	C5H5N2+
93.0573	21	C6H7N+
94.0288	14	C5H4NO+
94.0414	12	C6H6O+
94.0526	29	C5H6N2+
94.0651	4	C6H8N+
95.0366	6	C5H5NO+
95.0491	10	C6H7O+
95.0604	3	C5H7N2+
96.0444	71	C5H6NO+
96.057	12	C6H8O+
97.0521	1	C5H7NO+
98.0601	11	C5H8NO+
103.0292	36	C6H3N2+
103.0417	51	C7H5N+
104.0368	15	C6H4N2+
104.0495	14	C7H6N+
105.0448	55	C6H5N2+
106.0287	20	C6H4NO+
106.0411	3	C7H6O+
106.0528	18	C6H6N2+
106.0652	32	C7H8N+
107.024	16	C5H3N2O+
107.0366	10	C6H5NO+
107.0604	48	C6H7N2+
108.0444	86	C6H6NO+
108.0683	18	C6H8N2+
109.0397	7	C5H5N2O+
109.0522	49	C6H7NO+
110.06	23	C6H8NO+
112.0394	4	C5H6NO2+
116.0496	2	C8H6N+
117.0447	55	C7H5N2+
117.0574	7	C8H7N+
118.0525	420	C7H6N2+
119.0604	272	C7H7N2+
120.0193	12	C5H2N3O+
120.0444	49	C7H6NO+
120.0557	14	C6H6N3+
120.0683	19	C7H8N2+
121.0032	20	C5HN2O2+
121.0397	66	C6H5N2O+
121.0521	3	C7H7NO+
121.0635	3	C6H7N3+
122.0474	28	C6H6N2O+
122.0599	3	C7H8NO+
123.0554	7	C6H7N2O+
124.0393	13	C6H6NO2+
126.0549	62	C6H8NO2+
129.0448	19	C8H5N2+
130.04	16	C7H4N3+
130.0526	74	C8H6N2+
131.0239	15	C7H3N2O+
131.0479	45	C7H5N3+
131.0604	60	C8H7N2+
132.0319	11	C7H4N2O+
132.0557	23	C7H6N3+
133.0397	47	C7H5N2O+
134.0475	3	C7H6N2O+
134.0601	36	C8H8NO+
135.0553	108	C7H7N2O+
136.0394	7	C7H6NO2+
136.0632	42	C7H8N2O+
137.0708	7	C7H9N2O+
138.0297	8	C5H4N3O2+
138.0551	1	C7H8NO2+
139.0503	11	C6H7N2O2+
145.0398	27	C8H5N2O+
146.0478	14	C8H6N2O+
147.0554	235	C8H7N2O+
148.0508	25	C7H6N3O+
148.0632	352	C8H8N2O+
149.0585	227	C7H7N3O+
149.0709	22	C8H9N2O+
150.0423	20	C7H6N2O2+
150.0665	13	C7H8N3O+
151.05	9	C7H7N2O2+
159.0425	11	C8H5N3O+
160.0506	73	C8H6N3O+
163.0503	72	C8H7N2O2+
164.0581	64	C8H8N2O2+
165.0659	82	C8H9N2O2+
166.0614	19	C7H8N3O2+
166.0736	21	C8H10N2O2+
176.0455	30	C8H6N3O2+
177.0534	281	C8H7N3O2+
178.0612	251	C8H8N3O2+
179.0452	48	C8H7N2O3+
181.0608	3	C8H9N2O3+
194.0561	999	C8H8N3O3+
195.0639	407	C8H9N3O3+
212.0667	727	C8H10N3O4+
