Mass spectrum: Cyclophosphamide; LC-ESI-ITFT; MS2; CE: 35%; R=30000; [M+H]+
Name: Cyclophosphamide
Name: N,N-bis(2-chloroethyl)-2-oxidanylidene-1,3,2$l^{5}-oxazaphosphinan-2-amine
Formula: C7H15Cl2N2O2P
Exact mass: 260.0248
SMILES: ClCCN(CCCl)P1(=O)NCCCO1
InChI: InChI=1S/C7H15Cl2N2O2P/c8-2-5-11(6-3-9)14(12)10-4-1-7-13-14/h1-7H2,(H,10,12)
Instrument: LTQ Orbitrap XL Thermo Scientific
Instrument type: LC-ESI-ITFT
Ms type: MS2
Ion mode: POSITIVE
Ionization: ESI
Fragmentation mode: CID
Collision energy: 35 % (nominal)
Resolution: 30000
Column name: XBridge C18 3.5um, 2.1x50mm, Waters
Retention time: 6.3 min
Base peak: 261.0328
Precursor m/z: 261.0321
Precursor type: [M+H]+
m/z	relative intensity	assigned
78.0106	3	C2H5ClN+
94.0048	1	C5H2O2+
106.0419	299	C4H9ClN+
110.0002	3	C2H5ClNO2+
120.021	17	C3H7NO2P+
122.0363	1	C3H9NO2P+
138.0314	1	C4H9ClNO2+
140.0029	613	C4H8Cl2N+
142.0186	240	C4H10Cl2N+
155.9976	4	C3H8ClNO2P+
163.0633	1	C6H12ClN2O+
171.0083	2	C3H9ClN2O2P+
185.0242	20	
197.0241	3	C5H11ClN2O2P+
199.0398	12	C5H13ClN2O2P+
225.0558	6	C7H15ClN2O2P+
233.0009	999	C5H12Cl2N2O2P+
