Mass spectrum: Dinoseb; LC-ESI-ITFT; MS2; CE: 35%; R=30000; [M-H]-
Name: Dinoseb
Name: 2,4-dinitro-6-sec-butyl-phenol
Formula: C10H12N2O5
Exact mass: 240.0746
SMILES: OC1=C([N+]([O-])=O)C=C([N+]([O-])=O)C=C1C(C)CC
InChI: InChI=1S/C10H12N2O5/c1-3-6(2)8-4-7(11(14)15)5-9(10(8)13)12(16)17/h4-6,13H,3H2,1-2H3
Instrument: LTQ Orbitrap XL Thermo Scientific
Instrument type: LC-ESI-ITFT
Ms type: MS2
Ion mode: NEGATIVE
Ionization: ESI
Fragmentation mode: CID
Collision energy: 35 % (nominal)
Resolution: 30000
Column name: XBridge C18 3.5um, 2.1x50mm, Waters
Retention time: 13.0 min
Base peak: 239.0673
Precursor m/z: 239.0673
Precursor type: [M-H]-
m/z	relative intensity	assigned
109.0165	2	C5H3NO2-
130.0659	1	C9H8N-
137.0122	5	C6H3NO3-
149.0355	5	C7H5N2O2-
151.0762	2	C9H11O2-
163.0268	1	C8H5NO3-
174.0557	1	C10H8NO2-
176.0353	9	C9H6NO3-
179.0712	18	C10H11O3-
180.0298	6	C8H6NO4-
190.0506	1	C10H8NO3-
191.0588	14	C10H9NO3-
192.0661	5	C10H10NO3-
193.0254	66	C8H5N2O4-
194.0459	999	C9H8NO4-
203.0467	1	C10H7N2O3-
207.0409	8	C9H7N2O4-
208.0609	6	C10H10NO4-
209.0693	75	C10H11NO4-
210.0279	57	C8H6N2O5-
221.0566	82	C10H9N2O4-
222.0644	122	C10H10N2O4-
224.0437	4	C9H8N2O5-
239.0671	38	C10H11N2O5-
