Mass spectrum: Difenoconazole; LC-ESI-ITFT; MS2; CE: 90%; R=30000; [M+H]+
Name: Difenoconazole
Name: 1-[[2-[2-chloranyl-4-(4-chloranylphenoxy)phenyl]-4-methyl-1,3-dioxolan-2-yl]methyl]-1,2,4-triazole
Formula: C19H17Cl2N3O3
Exact mass: 405.0647
SMILES: Clc4ccc(Oc1ccc(c(Cl)c1)C2(OCC(O2)C)Cn3ncnc3)cc4
InChI: InChI=1S/C19H17Cl2N3O3/c1-13-9-25-19(27-13,10-24-12-22-11-23-24)17-7-6-16(8-18(17)21)26-15-4-2-14(20)3-5-15/h2-8,11-13H,9-10H2,1H3
Instrument: LTQ Orbitrap XL Thermo Scientific
Instrument type: LC-ESI-ITFT
Ms type: MS2
Ion mode: POSITIVE
Ionization: ESI
Fragmentation mode: HCD
Collision energy: 90 % (nominal)
Resolution: 30000
Column name: XBridge C18 3.5um, 2.1x50mm, Waters
Retention time: 14.1 min
Base peak: 406.0724
Precursor m/z: 406.072
Precursor type: [M+H]+
m/z	relative intensity	assigned
50.015	3	C4H2+
51.0229	18	C4H3+
53.0021	3	C3HO+
70.0399	6	C2H4N3+
74.0149	4	C6H2+
75.0229	109	C6H3+
77.0386	10	C6H5+
79.0179	6	C5H3O+
80.0256	5	C5H4O+
84.0557	2	C3H6N3+
84.9839	5	C4H2Cl+
86.9996	62	C4H4Cl+
88.9789	5	C3H2ClO+
89.0385	5	C7H5+
93.0334	6	C6H5O+
98.9996	12	C5H4Cl+
103.0542	2	C8H7+
105.0446	4	C6H5N2+
110.9996	203	C6H4Cl+
114.9945	7	C5H4ClO+
115.0541	7	C9H7+
116.0621	3	C9H8+
117.0698	4	C9H9+
124.0074	5	C7H5Cl+
125.0154	3	C7H6Cl+
126.9944	2	C6H4ClO+
128.062	11	C10H8+
129.0101	39	C6H6ClO+
129.0698	29	C10H9+
137.9865	5	C7H3ClO+
139.0057	999	C6H4ClN2+
140.0027	6	C4H8Cl2N+
141.0102	466	C7H6ClO+
149.0152	28	C9H6Cl+
151.0541	27	C12H7+
152.062	459	C12H8+
153.0699	470	C12H9+
154.9893	16	C7H4ClO2+
162.0229	18	C10H7Cl+
169.0648	2	C9H12ClN+
173.0152	43	C11H6Cl+
174.023	20	C11H7Cl+
179.0602	18	C12H7N2+
180.057	5	C13H8O+
181.0647	205	C13H9O+
182.9762	25	C9H5Cl2+
186.0232	4	C12H7Cl+
187.0308	71	C12H8Cl+
188.0387	614	C12H9Cl+
195.9581	2	C8H2Cl2N2+
202.0179	129	C12H7ClO+
208.9918	58	C11H7Cl2+
215.0257	100	C13H8ClO+
216.0335	20	C13H9ClO+
223.0074	90	C12H9Cl2+
228.0338	4	C14H9ClO+
236.9867	5	C12H7Cl2O+
251.0022	104	C13H9Cl2O+
261.9951	3	C14H8Cl2O+
264.9816	61	C13H7Cl2O2+
408.0737	2	C18H18Cl2N4O3+
