Mass spectrum: Methenamine; LC-ESI-QFT; MS2; CE: 45%; R=15000; [M+H]+
Name: Methenamine
Name: 1,3,5,7-tetrazatricyclo[3.3.1.13,7]decane
Formula: C6H12N4
Exact mass: 140.1062
SMILES: C1N2CN3CN1CN(C2)C3
InChI: InChI=1S/C6H12N4/c1-7-2-9-4-8(1)5-10(3-7)6-9/h1-6H2
Instrument: Orbitrap Exploris 240 Thermo Scientific
Instrument type: LC-ESI-QFT
Ms type: MS2
Ion mode: POSITIVE
Ionization: ESI
Fragmentation mode: HCD
Collision energy: 45 % (nominal)
Resolution: 15000
Column name: Atlantis C18 3um, 3.0x150mm, Waters
Retention time: 2.670 min
Base peak: 141.1135
Precursor m/z: 141.1135
Precursor type: [M+H]+
Precursor intensity: 73653952
m/z	relative intensity	assigned
42.0338	114	C2H4N+
44.0495	93	C2H6N+
58.0651	91	C3H8N+
69.0446	9	C3H5N2+
71.0604	152	C3H7N2+
85.076	497	C4H9N2+
98.0713	211	C4H8N3+
112.0869	975	C5H10N3+
141.1135	999	C6H13N4+
