Mass spectrum: Pramoxine; LC-ESI-QFT; MS2; CE: 60; R=35000; [M+H]+
Name: Pramoxine
Name: 4-[3-(4-butoxyphenoxy)propyl]morpholine
Formula: C17H27NO3
Exact mass: 293.19909
SMILES: CCCCOC1=CC=C(C=C1)OCCCN2CCOCC2
InChI: InChI=1S/C17H27NO3/c1-2-3-12-20-16-5-7-17(8-6-16)21-13-4-9-18-10-14-19-15-11-18/h5-8H,2-4,9-15H2,1H3
Instrument: Q Exactive Plus Orbitrap Thermo Scientific
Instrument type: LC-ESI-QFT
Ms type: MS2
Ion mode: POSITIVE
Ionization: ESI
Fragmentation mode: HCD
Collision energy: 60 (nominal)
Resolution: 35000
Column name: XBridge C18 3.5um, 2.1x50mm, Waters
Retention time: 7.3 min
Base peak: 294.206
Precursor m/z: 294.2064
Precursor type: [M+H]+
m/z	relative intensity	assigned
56.0495	28	C3H6N+
57.0573	1	C3H7N+
57.0699	9	C4H9+
58.0651	10	C3H8N+
65.0386	1	C5H5+
67.0542	6	C5H7+
68.997	1	C3HO2+
70.0651	56	C4H8N+
72.0443	1	C3H6NO+
72.0807	25	C4H10N+
79.0541	1	C6H7+
82.0651	1	C5H8N+
84.0807	6	C5H10N+
85.0521	1	C4H7NO+
86.06	63	C4H8NO+
87.0679	1	C4H9NO+
88.0756	18	C4H10NO+
95.0491	18	C6H7O+
98.06	1	C5H8NO+
98.0964	9	C6H12N+
100.0756	999	C5H10NO+
102.0912	11	C5H12NO+
105.0698	3	C8H9+
107.0488	1	C7H7O+
109.0283	5	C6H5O2+
110.0362	4	C6H6O2+
111.044	2	C6H7O2+
121.0396	3	C6H5N2O+
123.044	181	C7H7O2+
126.0912	2	C7H12NO+
128.1069	141	C7H14NO+
133.0646	2	C9H9O+
151.0753	60	C9H11O2+
179.1066	11	C11H15O2+
294.2062	5	C17H28NO3+
