Mass spectrum: 4-Hydroxybenzotriazole; LC-ESI-QFT; MS2; CE: 180; R=35000; [M+H]+
Name: 4-Hydroxybenzotriazole
Name: 1,2-dihydrobenzotriazol-4-one
Name: 2H-benzotriazol-4-ol
Name: 4-Hydroxy-1H-benzotriazole
Formula: C6H5N3O
Exact mass: 135.04326178
SMILES: C1=CC2=NNN=C2C(=C1)O
InChI: InChI=1S/C6H5N3O/c10-5-3-1-2-4-6(5)8-9-7-4/h1-3,10H,(H,7,8,9)
Instrument: Q Exactive Plus Orbitrap Thermo Scientific
Instrument type: LC-ESI-QFT
Ms type: MS2
Ion mode: POSITIVE
Ionization: ESI
Fragmentation mode: HCD
Collision energy: 180 (nominal)
Resolution: 35000
Column name: XBridge C18 3.5um, 2.1x50mm, Waters
Retention time: 3.1 min
Base peak: 136.0505
Precursor m/z: 136.0505
Precursor type: [M+H]+
m/z	relative intensity	assigned
50.0151	69	C4H2+
51.023	135	C4H3+
52.0182	53	C3H2N+
52.0308	54	C4H4+
53.0386	610	C4H5+
54.0339	195	C3H4N+
55.0179	21	C3H3O+
56.0495	2	C3H6N+
61.0073	69	C5H+
62.0151	424	C5H2+
63.0229	999	C5H3+
64.0182	169	C4H2N+
65.0022	2	C4HO+
65.026	23	C4H3N+
65.0386	4	C5H5+
66.0339	3	C4H4N+
67.9892	14	C3O2+
68.0131	18	C3H2NO+
78.0338	107	C5H4N+
79.0179	3	C5H3O+
79.0417	7	C5H5N+
80.0495	151	C5H6N+
81.0335	50	C5H5O+
90.034	1	C6H4N+
93.021	3	C5H3NO+
