Mass spectrum: 4-Toluenesulfonamide; LC-ESI-QFT; MS2; CE: 90; R=35000; [M+H]+
Name: 4-Toluenesulfonamide
Name: p-Toluenesulfonamide
Name: 4-methylbenzenesulfonimidic acid
Formula: C7H9NO2S
Exact mass: 171.03540
SMILES: CC1=CC=C(C=C1)S(=O)(=O)N
InChI: InChI=1S/C7H9NO2S/c1-6-2-4-7(5-3-6)11(8,9)10/h2-5H,1H3,(H2,8,9,10)
Instrument: Q Exactive Plus Orbitrap Thermo Scientific
Instrument type: LC-ESI-QFT
Ms type: MS2
Ion mode: POSITIVE
Ionization: ESI
Fragmentation mode: HCD
Collision energy: 90 (nominal)
Resolution: 35000
Column name: XBridge C18 3.5um, 2.1x50mm, Waters
Retention time: 4.6 min
Base peak: 189.0689
Precursor m/z: 172.0427
Precursor type: [M+H]+
m/z	relative intensity	assigned
50.0151	1	C4H2+
51.0228	1	C4H3+
53.0023	2	C3HO+
62.0151	1	C5H2+
63.0229	11	C5H3+
65.0386	490	C5H5+
67.0542	2	C5H7+
89.0385	1	C7H5+
91.0542	999	C7H7+
109.0649	21	C7H9O+
119.0605	40	C7H7N2+
