Mass spectrum: Triphenylphosphine oxide; LC-ESI-QFT; MS2; CE: 90; R=35000; [M+H]+
Name: Triphenylphosphine oxide
Name: Triphenylphosphineoxide
Name: (diphenylphosphoroso)benzene
Formula: C18H15OP
Exact mass: 278.08605
SMILES: C1=CC=C(C=C1)P(=O)(C2=CC=CC=C2)C3=CC=CC=C3
InChI: InChI=1S/C18H15OP/c19-20(16-10-4-1-5-11-16,17-12-6-2-7-13-17)18-14-8-3-9-15-18/h1-15H
Instrument: Q Exactive Plus Orbitrap Thermo Scientific
Instrument type: LC-ESI-QFT
Ms type: MS2
Ion mode: POSITIVE
Ionization: ESI
Fragmentation mode: HCD
Collision energy: 90 (nominal)
Resolution: 35000
Column name: XBridge C18 3.5um, 2.1x50mm, Waters
Retention time: 9.4 min
Base peak: 391.2839
Precursor m/z: 279.0933
Precursor type: [M+H]+
m/z	relative intensity	assigned
50.0151	5	C4H2+
51.0229	6	C4H3+
53.0022	13	C3HO+
53.0386	18	C4H5+
53.9974	1	C2NO+
55.0178	8	C3H3O+
55.0542	6	C4H7+
57.0699	79	C4H9+
59.0491	6	C3H7O+
62.9995	3	CH4OP+
65.0386	999	C5H5+
67.0542	5	C5H7+
68.997	3	C3HO2+
69.0335	1	C4H5O+
69.0698	2	C5H9+
71.0127	1	C3H3O2+
71.0855	1	C5H11+
74.0964	1	C4H12N+
77.0385	12	C6H5+
79.0177	1	C5H3O+
79.0542	9	C6H7+
80.0256	1	C5H4O+
81.0334	1	C5H5O+
83.049	5	C5H7O+
87.0443	1	C4H7O2+
91.0543	5	C7H7+
93.0335	187	C6H5O+
95.0045	25	C5H4P+
95.0491	59	C6H7O+
97.0076	1	C8H+
98.0362	25	C5H6O2+
105.0334	2	C7H5O+
105.0447	40	C6H5N2+
108.0204	1	C6H4O2+
110.0965	1	C7H12N+
111.044	170	C6H7O2+
113.0151	1	C5H6OP+
115.0542	1	C9H7+
119.0856	1	C9H11+
121.0284	791	C7H5O2+
121.0396	496	C6H5N2O+
122.0367	3	C3H9NO2P+
122.9992	1	C6H4OP+
125.0149	1	C6H6OP+
128.062	17	C10H8+
129.0699	13	C10H9+
133.0201	8	C8H6P+
141.01	6	C6H6O2P+
141.0698	5	C11H9+
152.062	2	C12H8+
153.0699	5	C12H9+
154.0776	9	C12H10+
170.0277	1	C11H7P+
171.0357	21	C11H8P+
173.0515	25	C11H10P+
183.0359	17	C12H8P+
201.0464	1	C12H10OP+
219.0571	28	C12H12O2P+
