Mass spectrum: Alachlor; LC-ESI-ITFT; MS2; CE: 45%; R=7500; [M+H]+
Name: Alachlor
Name: 2-chloranyl-N-(2,6-diethylphenyl)-N-(methoxymethyl)ethanamide
Formula: C14H20ClNO2
Exact mass: 269.1177
SMILES: CCC1=CC=CC(CC)=C1N(COC)C(=O)CCl
InChI: InChI=1S/C14H20ClNO2/c1-4-11-7-6-8-12(5-2)14(11)16(10-18-3)13(17)9-15/h6-8H,4-5,9-10H2,1-3H3
Instrument: LTQ Orbitrap XL Thermo Scientific
Instrument type: LC-ESI-ITFT
Ms type: MS2
Ion mode: POSITIVE
Ionization: ESI
Fragmentation mode: HCD
Collision energy: 45 % (nominal)
Resolution: 7500
Column name: XBridge C18 3.5um, 2.1x50mm, Waters
Retention time: 11.7 min
Base peak: 292.1079
Precursor m/z: 270.1255
Precursor type: [M+H]+
m/z	relative intensity	assigned
90.0105	107	C3H5ClN+
134.0964	24	C9H12N+
145.1011	32	C11H13+
146.0964	40	C10H12N+
147.1042	30	C10H13N+
148.1121	32	C10H14N+
160.1126	18	C11H14N+
161.1197	49	C11H15N+
162.1278	999	C11H16N+
163.1117	215	C11H15O+
172.1121	29	C12H14N+
173.0834	10	C11H11NO+
174.0908	13	C11H12NO+
184.112	16	C13H14N+
206.0735	43	C12H13ClN+
208.0887	50	C12H15ClN+
210.0682	19	C11H13ClNO+
220.0886	97	C13H15ClN+
224.0831	50	C12H15ClNO+
238.0993	397	C13H17ClNO+
