Mass spectrum: Isoxaflutole; LC-ESI-QFT; MS2; CE: 90; R=35000; [M-H]-
Name: Isoxaflutole
Name: (5-cyclopropyl-1,2-oxazol-4-yl)-[2-methylsulfonyl-4-(trifluoromethyl)phenyl]methanone
Formula: C15H12F3NO4S
Exact mass: 359.04391
SMILES: O=C(c1c(onc1)C2CC2)c3ccc(cc3S(=O)(=O)C)C(F)(F)F
InChI: InChI=1S/C15H12F3NO4S/c1-24(21,22)12-6-9(15(16,17)18)4-5-10(12)13(20)11-7-19-23-14(11)8-2-3-8/h4-8H,2-3H2,1H3
Instrument: Q Exactive Plus Orbitrap Thermo Scientific
Instrument type: LC-ESI-QFT
Ms type: MS2
Ion mode: NEGATIVE
Ionization: ESI
Fragmentation mode: HCD
Collision energy: 90 (nominal)
Resolution: 35000
Column name: XBridge C18 3.5um, 2.1x50mm, Waters
Retention time: 8.6 min
Base peak: 358.0367
Precursor m/z: 358.0366
Precursor type: [M-H]-
m/z	relative intensity	assigned
55.0189	1	C3H3O-
60.9754	3	CHOS-
63.9625	999	O2S-
65.9986	27	C3NO-
67.019	3	C4H3O-
78.986	184	CH3O2S-
90.0349	4	C6H4N-
108.0456	12	C6H6NO-
121.0094	1	C7H2FO-
145.0093	1	C9H2FO-
145.0271	2	C7H4F3-
148.0195	2	C11H2N-
159.0427	3	C8H6F3-
161.022	3	C7H4F3O-
165.0156	1	C9H3F2O-
168.0256	2	C11H3FN-
180.0254	1	C12H3FN-
185.0216	1	C9H4F3O-
188.0503	1	C14H6N-
249.0412	1	C13H6F3NO-
