Mass spectrum: Nilotinib; LC-ESI-QFT; MS2; CE: 75; R=35000; [M-H]-
Name: Nilotinib
Name: 4-methyl-N-(3-(4-methylimidazol-1-yl)-5-(trifluoromethyl)phenyl)-3-((4-pyridin-3-ylpyrimidin-2-yl)amino)benzamide
Formula: C28H22F3N7O
Exact mass: 529.18379
SMILES: CC1=C(C=C(C=C1)C(=O)NC2=CC(=CC(=C2)N3C=C(N=C3)C)C(F)(F)F)NC4=NC=CC(=N4)C5=CN=CC=C5
InChI: InChI=1S/C28H22F3N7O/c1-17-5-6-19(10-25(17)37-27-33-9-7-24(36-27)20-4-3-8-32-14-20)26(39)35-22-11-21(28(29,30)31)12-23(13-22)38-15-18(2)34-16-38/h3-16H,1-2H3,(H,35,39)(H,33,36,37)
Instrument: Q Exactive Plus Orbitrap Thermo Scientific
Instrument type: LC-ESI-QFT
Ms type: MS2
Ion mode: NEGATIVE
Ionization: ESI
Fragmentation mode: HCD
Collision energy: 75 (nominal)
Resolution: 35000
Column name: XBridge C18 3.5um, 2.1x50mm, Waters
Retention time: 8.5 min
Base peak: 528.1775
Precursor m/z: 528.1765
Precursor type: [M-H]-
m/z	relative intensity	assigned
50.0035	6	C3N-
52.0193	27	C3H2N-
65.0146	35	C3HN2-
65.9986	8	C3NO-
67.0302	30	C3H3N2-
68.9958	43	CF3-
74.0039	3	C5N-
79.0302	38	C4H3N2-
81.0458	343	C4H5N2-
88.0193	3	C6H2N-
92.0256	23	C4H2N3-
98.0036	15	C7N-
105.0459	7	C6H5N2-
112.0067	4	C7N2-
116.0506	64	C8H6N-
118.0101	23	C7HFN-
129.0589	3	C9H7N-
130.054	10	C8H6N2-
130.0662	130	C9H8N-
131.0614	128	C8H7N2-
138.0162	14	C7H2F2N-
139.0302	6	C9H3N2-
140.0256	6	C8H2N3-
141.0459	23	C9H5N2-
144.0568	45	C8H6N3-
151.0303	28	C10H3N2-
153.0459	73	C10H5N2-
155.0489	103	C9H5N3-
155.0615	17	C10H7N2-
156.0257	6	C10H3FN-
157.0405	15	C4H4FN5O-
157.077	81	C5H8FN5-
158.0222	31	C7H3F3N-
160.0379	74	C7H5F3N-
169.052	3	C9H5N4-
171.0365	53	C10H4FN2-
171.0676	726	C9H7N4-
173.0519	84	C5H5F2N5-
175.0488	17	C7H6F3N2-
176.0316	16	C5H3F3N4-
177.0266	4	C4H2F3N5-
178.041	83	C11H4N3-
179.0491	8	C11H5N3-
180.0568	66	C11H6N3-
183.0174	3	C8H2F3N2-
183.0363	19	C11H4FN2-
185.0159	4	C10H2FN2O-
185.0331	74	C8H4F3N2-
186.0165	12	C6N7O-
187.0488	65	C8H6F3N2-
191.0062	5	C9HF2N2O-
191.0427	26	C10H5F2N2-
193.0582	242	C5H6F3N5-
193.077	68	C8H8FN5-
196.0382	38	C10H5F3N-
198.0403	106	C9H5F3N2-
198.0471	19	C16H6-
199.0315	73	C11H4FN2O-
199.0488	17	C9H6F3N2-
200.0203	6	C8H3F3N2O-
200.0444	4	C13H6F2-
200.0631	44	C16H8-
203.0433	48	C8H6F3N2O-
206.0359	25	C12H4N3O-
211.0128	47	C9H2F3N2O-
211.0488	83	C10H6F3N2-
212.033	22	C10H5F3NO-
212.0578	4	C10H6N5O-
213.0647	430	C10H8F3N2-
218.0536	72	C11H6F2N3-
219.0377	68	C11H5F2N2O-
220.0692	31	C11H8F2N3-
222.0409	6	C11H5F3N2-
223.0365	56	C15H5F2-
223.0489	57	C11H6F3N2-
224.0202	53	C10H3F3N2O-
224.0445	13	C15H6F2-
225.0283	5	C10H4F3N2O-
225.0511	3	C10H6F3N3-
226.0433	25	C17H6O-
234.1037	4	C15H12N3-
236.0441	24	C11H5F3N3-
237.0484	6	C11H7F2N2O2-
238.0594	6	C11H7F3N3-
239.0439	114	C11H6F3N2O-
240.0754	999	C11H9F3N3-
241.0591	29	C11H8F3N2O-
244.0879	18	C11H9FN6-
246.0488	28	C17H7FO-
251.0308	34	C11H4F3N3O-
259.0991	7	C16H11N4-
266.0547	164	C12H7F3N3O-
