Mass spectrum: Rufinamide; LC-ESI-QFT; MS2; CE: 45; R=35000; [M+H]+
Name: Rufinamide
Name: 1-(2,6-difluorobenzyl)triazole-4-carboxamide
Formula: C10H8F2N4O
Exact mass: 238.06662
SMILES: O=C(c1nnn(c1)Cc2c(F)cccc2F)N
InChI: InChI=1S/C10H8F2N4O/c11-7-2-1-3-8(12)6(7)4-16-5-9(10(13)17)14-15-16/h1-3,5H,4H2,(H2,13,17)
Instrument: Q Exactive Orbitrap Thermo Scientific
Instrument type: LC-ESI-QFT
Ms type: MS2
Ion mode: POSITIVE
Ionization: ESI
Fragmentation mode: HCD
Collision energy: 45 (nominal)
Resolution: 35000
Column name: XBridge C18 3.5um, 2.1x50mm, Waters
Retention time: 5.2 min
Base peak: 239.074
Precursor m/z: 239.0739
Precursor type: [M+H]+
m/z	relative intensity	assigned
57.0135	1	C3H2F+
68.0131	1	C3H2NO+
101.0197	2	C5H3F2+
107.0291	1	C7H4F+
109.0449	1	C7H6F+
121.0449	1	C8H6F+
127.0355	999	C7H5F2+
136.0557	7	C8H7FN+
139.0354	6	C8H5F2+
140.0308	2	C7H4F2N+
141.0512	4	C8H7F2+
142.0464	10	C7H6F2N+
144.062	1	C7H8F2N+
146.0402	2	C9H5FN+
148.0558	12	C9H7FN+
154.0464	1	C8H6F2N+
156.062	6	C8H8F2N+
163.0667	2	C9H8FN2+
164.0507	1	C9H7FNO+
166.0464	17	C9H6F2N+
167.0542	10	C9H7F2N+
168.0621	3	C9H8F2N+
191.0616	1	C10H8FN2O+
194.0415	1	C10H6F2NO+
222.0477	3	C10H6F2N3O+
