Mass spectrum: 2-Butyl-1-2-benzisothiazolin-3-one; LC-ESI-QFT; MS2; CE: 180%; R=17500; [M+H]+
Name: 2-Butyl-1-2-benzisothiazolin-3-one
Name: 1,2-Benzisothiazol-3(2H)-one, 2-butyl-
Name: 2-butyl-1,2-benzothiazol-3-one
Formula: C11H13NOS
Exact mass: 207.0718
SMILES: CCCCN1C(=O)C2=CC=CC=C2S1
InChI: InChI=1S/C11H13NOS/c1-2-3-8-12-11(13)9-6-4-5-7-10(9)14-12/h4-7H,2-3,8H2,1H3
Instrument: Exploris 240 Orbitrap Thermo Scientific
Instrument type: LC-ESI-QFT
Ms type: MS2
Ion mode: POSITIVE
Ionization: ESI
Fragmentation mode: HCD
Collision energy: 180 % (nominal)
Resolution: 17500
Column name: XBridge C18 3.5um, 2.1x50mm, Waters
Retention time: 7.954 min
Base peak: 208.0789
Precursor m/z: 208.0791
Precursor type: [M+H]+
m/z	relative intensity	assigned
51.0231	276	C4H3+
53.0386	467	C4H5+
63.0229	999	C5H3+
64.0182	345	C4H2N+
65.0386	790	C5H5+
68.9793	334	C3HS+
77.0386	574	C6H5+
80.0494	368	C5H6N+
90.0338	733	C6H4N+
95.0493	434	C6H7O+
106.9952	122	C6H3S+
108.0027	75	C6H4S+
109.0109	157	C6H5S+
134.0057	86	C7H4NS+
