Mass spectrum: Coumoxystrobin; LC-ESI-QFT; MS2; CE: 30%; R=17500; [M+H]+
Name: Coumoxystrobin
Name: methyl 2-[2-[(3-butyl-4-methyl-2-oxochromen-7-yl)oxymethyl]phenyl]-3-methoxyprop-2-enoate
Formula: C26H28O6
Exact mass: 436.1886
SMILES: CCCCC1=C(C2=C(C=C(C=C2)OCC3=CC=CC=C3C(=COC)C(=O)OC)OC1=O)C
InChI: InChI=1S/C26H28O6/c1-5-6-10-21-17(2)20-13-12-19(14-24(20)32-26(21)28)31-15-18-9-7-8-11-22(18)23(16-29-3)25(27)30-4/h7-9,11-14,16H,5-6,10,15H2,1-4H3
Instrument: Exploris 240 Orbitrap Thermo Scientific
Instrument type: LC-ESI-QFT
Ms type: MS2
Ion mode: POSITIVE
Ionization: ESI
Fragmentation mode: HCD
Collision energy: 30 % (nominal)
Resolution: 17500
Column name: XBridge C18 3.5um, 2.1x50mm, Waters
Retention time: 13.421 min
Base peak: 332.3312
Precursor m/z: 437.1959
Precursor type: [M+H]+
m/z	relative intensity	assigned
117.07	3	C9H9+
145.0648	999	C10H9O+
173.0602	20	C11H9O2+
177.0911	30	C11H13O2+
205.0862	125	C12H13O3+
259.0971	23	C15H15O4+
317.155	3	C22H21O2+
345.1487	23	C23H21O3+
373.144	19	C24H21O4+
377.1747	12	C24H25O4+
405.1706	64	C25H25O5+
437.1947	8	C26H29O6+
