Mass spectrum: Disulfoton-sulfoxide; LC-ESI-QFT; MS2; CE: 45%; R=17500; [M+H]+
Name: Disulfoton-sulfoxide
Name: Oxydisulfoton
Name: diethoxy-(2-ethylsulfinylethylsulfanyl)-sulfanylidene-lambda5-phosphane
Formula: C8H19O3PS3
Exact mass: 290.0234
SMILES: CCOP(=S)(OCC)SCCS(=O)CC
InChI: InChI=1S/C8H19O3PS3/c1-4-10-12(13,11-5-2)14-7-8-15(9)6-3/h4-8H2,1-3H3
Instrument: Exploris 240 Orbitrap Thermo Scientific
Instrument type: LC-ESI-QFT
Ms type: MS2
Ion mode: POSITIVE
Ionization: ESI
Fragmentation mode: HCD
Collision energy: 45 % (nominal)
Resolution: 17500
Column name: XBridge C18 3.5um, 2.1x50mm, Waters
Retention time: 6.653 min
Base peak: 282.279
Precursor m/z: 291.0307
Precursor type: [M+H]+
m/z	relative intensity	assigned
61.0106	15	C2H5S+
96.9507	406	H2O2PS+
105.0367	14	C4H9OS+
110.9663	9	CH4O2PS+
114.9613	283	H4O3PS+
124.982	383	C2H6O2PS+
128.9228	372	H2O2PS2+
128.9768	22	CH6O3PS+
142.993	11	C2H8O3PS+
153.0131	167	C4H10O2PS+
156.954	999	C2H6O2PS2+
171.0233	19	C4H12O3PS+
184.9854	378	C4H10O2PS2+
