Mass spectrum: Pheniramine-N-oxide; LC-ESI-QFT; MS2; CE: 45; R=35000; [M+H]+
Name: Pheniramine-N-oxide
Name: N,N-dimethyl-3-phenyl-3-pyridin-2-ylpropan-1-amine oxide
Formula: C16H20N2O
Exact mass: 256.15756
SMILES: C[N+](C)(CCC(c1ccccc1)c2ccccn2)[O-]
InChI: InChI=1S/C16H20N2O/c1-18(2,19)13-11-15(14-8-4-3-5-9-14)16-10-6-7-12-17-16/h3-10,12,15H,11,13H2,1-2H3
Instrument: Q Exactive Plus Orbitrap Thermo Scientific
Instrument type: LC-ESI-QFT
Ms type: MS2
Ion mode: POSITIVE
Ionization: ESI
Fragmentation mode: HCD
Collision energy: 45 (nominal)
Resolution: 35000
Column name: XBridge C18 3.5um, 2.1x50mm, Waters
Retention time: 4.2 min
Base peak: 257.1646
Precursor m/z: 257.1648
Precursor type: [M+H]+
m/z	relative intensity	assigned
91.0541	1	C7H7+
118.0647	2	C8H8N+
167.0728	10	C12H9N+
168.0808	20	C12H10N+
195.1044	1	C14H13N+
196.1121	999	C14H14N+
