Mass spectrum: Coumaphos; LC-ESI-QFT; MS2; CE: 150%; R=17500; [M+H]+
Name: Coumaphos
Name: 3-chloro-7-diethoxyphosphinothioyloxy-4-methylchromen-2-one
Formula: C14H16ClO5PS
Exact mass: 362.0145
SMILES: CCOP(=S)(OCC)OC1=CC2=C(C=C1)C(=C(C(=O)O2)Cl)C
InChI: InChI=1S/C14H16ClO5PS/c1-4-17-21(22,18-5-2)20-10-6-7-11-9(3)13(15)14(16)19-12(11)8-10/h6-8H,4-5H2,1-3H3
Instrument: Exploris 240 Orbitrap Thermo Scientific
Instrument type: LC-ESI-QFT
Ms type: MS2
Ion mode: POSITIVE
Ionization: ESI
Fragmentation mode: HCD
Collision energy: 150 % (nominal)
Resolution: 17500
Column name: XBridge C18 3.5um, 2.1x50mm, Waters
Retention time: 10.877 min
Base peak: 363.0214
Precursor m/z: 363.0217
Precursor type: [M+H]+
m/z	relative intensity	assigned
51.0229	163	C4H3+
53.0386	55	C4H5+
55.0178	26	C3H3O+
63.0232	55	C5H3+
64.9786	412	H2O2P+
65.0385	478	C5H5+
68.9793	119	C3HS+
68.9971	42	C3HO2+
70.9948	24	C3H3S+
75.0228	161	C6H3+
76.0309	50	C6H4+
77.0385	476	C6H5+
78.0464	41	C6H6+
78.9402	279	OPS+
89.0385	227	C7H5+
90.0462	123	C7H6+
91.0542	999	C7H7+
94.0417	21	C6H6O+
95.0492	117	C6H7O+
96.9507	388	H2O2PS+
101.0388	38	C8H5+
102.0464	503	C8H6+
103.0541	441	C8H7+
108.003	26	C6H4S+
113.0388	34	C9H5+
114.0467	21	C9H6+
114.9611	133	H4O3PS+
115.0541	295	C9H7+
118.0417	34	C8H6O+
119.0493	132	C8H7O+
120.0575	24	C8H8O+
121.0104	69	C7H5S+
125.0153	30	C7H6Cl+
129.0445	29	ClH15O3P+
131.049	334	C9H7O+
134.0185	165	C8H6S+
135.0263	116	C8H7S+
145.011	27	C9H5S+
147.044	285	C9H7O2+
163.0213	99	C9H7OS+
165.0098	79	C8H6O2P+
