Mass spectrum: Antipyrine; LC-ESI-ITFT; MS2; CE: 45%; R=7500; [M+H]+
Name: Antipyrine
Name: Phenazone
Name: 1,5-dimethyl-2-phenyl-3-pyrazolone
Formula: C11H12N2O
Exact mass: 188.0950
SMILES: CN1N(C(=O)C=C1C)C2=CC=CC=C2
InChI: InChI=1S/C11H12N2O/c1-9-8-11(14)13(12(9)2)10-6-4-3-5-7-10/h3-8H,1-2H3
Instrument: LTQ Orbitrap XL Thermo Scientific
Instrument type: LC-ESI-ITFT
Ms type: MS2
Ion mode: POSITIVE
Ionization: ESI
Fragmentation mode: HCD
Collision energy: 45 % (nominal)
Resolution: 7500
Column name: XBridge C18 3.5um, 2.1x50mm, Waters
Retention time: 4.6 min
Base peak: 189.1027
Precursor m/z: 189.1022
Precursor type: [M+H]+
m/z	relative intensity	assigned
56.0494	7	C3H6N+
58.065	5	C3H8N+
91.0543	2	C7H7+
96.0681	4	C5H8N2+
104.0494	6	C7H6N+
106.0653	2	C7H8N+
118.0651	3	C8H8N+
120.081	7	C8H10N+
130.0653	7	C9H8N+
131.073	10	C9H9N+
132.0806	6	C9H10N+
133.0762	1	C8H9N2+
144.0806	11	C10H10N+
145.0653	2	C10H9O+
146.084	11	C9H10N2+
146.097	3	C10H12N+
147.0918	18	C9H11N2+
148.0756	1	C9H10NO+
157.0517	1	C10H7NO+
161.1074	28	C10H13N2+
172.0757	2	C11H10NO+
174.0788	13	C10H10N2O+
189.1027	999	C11H13N2O+
