Mass spectrum: Praziquantel; LC-ESI-QFT; MS2; CE: 90; R=35000; [M+H]+
Name: Praziquantel
Name: 2-(cyclohexanecarbonyl)-3,6,7,11b-tetrahydro-1H-pyrazino[2,1-a]isoquinolin-4-one
Formula: C19H24N2O2
Exact mass: 312.18378
SMILES: C1CCC(CC1)C(=O)N2CC3C4=CC=CC=C4CCN3C(=O)C2
InChI: InChI=1S/C19H24N2O2/c22-18-13-20(19(23)15-7-2-1-3-8-15)12-17-16-9-5-4-6-14(16)10-11-21(17)18/h4-6,9,15,17H,1-3,7-8,10-13H2
Instrument: Q Exactive Orbitrap Thermo Scientific
Instrument type: LC-ESI-QFT
Ms type: MS2
Ion mode: POSITIVE
Ionization: ESI
Fragmentation mode: HCD
Collision energy: 90 (nominal)
Resolution: 35000
Column name: XBridge C18 3.5um, 2.1x50mm, Waters
Retention time: 10.1 min
Base peak: 313.191
Precursor m/z: 313.1911
Precursor type: [M+H]+
m/z	relative intensity	assigned
53.0023	9	C3HO+
53.0387	40	C4H5+
54.0339	2	C3H4N+
55.0543	364	C4H7+
58.0288	3	C2H4NO+
67.0542	1	C5H7+
67.9893	2	C3O2+
72.0443	86	C3H6NO+
77.0385	2	C6H5+
79.0542	7	C6H7+
81.0698	3	C6H9+
83.0855	702	C6H11+
91.0542	46	C7H7+
95.049	4	C6H7O+
103.0542	30	C8H7+
105.0699	134	C8H9+
115.0542	105	C9H7+
116.062	10	C9H8+
117.0572	88	C8H7N+
117.0698	184	C9H9+
118.0651	3	C8H8N+
119.0854	15	C9H11+
127.0539	4	C10H7+
128.062	174	C10H8+
129.0698	415	C10H9+
130.0651	176	C9H8N+
131.073	121	C9H9N+
132.0807	999	C9H10N+
143.0731	15	C10H9N+
144.0808	109	C10H10N+
145.0649	23	C10H9O+
145.0886	138	C10H11N+
146.0964	251	C10H12N+
155.0602	26	C10H7N2+
156.0809	3	C11H10N+
158.0964	29	C11H12N+
171.0917	2	C11H11N2+
173.1073	2	C11H13N2+
174.0913	250	C11H12NO+
185.1073	2	C12H13N2+
203.1178	2	C12H15N2O+
