Mass spectrum: Mepanipyrim; LC-ESI-QFT; MS2; CE: 60; R=35000; [M+H]+
Name: Mepanipyrim
Name: (4-methyl-6-prop-1-ynyl-pyrimidin-2-yl)-phenyl-amine
Formula: C14H13N3
Exact mass: 223.11095
SMILES: n1c(C#CC)cc(nc1Nc2ccccc2)C
InChI: InChI=1S/C14H13N3/c1-3-7-13-10-11(2)15-14(17-13)16-12-8-5-4-6-9-12/h4-6,8-10H,1-2H3,(H,15,16,17)
Instrument: Q Exactive Orbitrap Thermo Scientific
Instrument type: LC-ESI-QFT
Ms type: MS2
Ion mode: POSITIVE
Ionization: ESI
Fragmentation mode: HCD
Collision energy: 60 (nominal)
Resolution: 35000
Column name: XBridge C18 3.5um, 2.1x50mm, Waters
Retention time: 11.1 min
Base peak: 224.1188
Precursor m/z: 224.1182
Precursor type: [M+H]+
m/z	relative intensity	assigned
63.0231	2	C5H3+
65.0387	18	C5H5+
66.0339	11	C4H4N+
67.0291	3	C3H3N2+
67.0544	2	C5H7+
68.0497	2	C4H6N+
77.0386	8	C6H5+
79.0544	56	C6H7+
80.0496	20	C5H6N+
81.0574	1	C5H7N+
82.0652	8	C5H8N+
89.0387	1	C7H5+
90.034	15	C6H4N+
91.0545	1	C7H7+
92.0498	4	C6H6N+
93.0575	7	C6H7N+
94.0653	32	C6H8N+
95.0493	24	C6H7O+
96.0446	2	C5H6NO+
104.0497	69	C7H6N+
105.0449	9	C6H5N2+
106.0653	220	C7H8N+
107.0606	15	C6H7N2+
107.0731	11	C7H9N+
115.0544	10	C9H7+
116.0496	2	C8H6N+
118.0528	3	C7H6N2+
118.0653	12	C8H8N+
119.0606	28	C7H7N2+
121.0762	57	C7H9N2+
122.0603	4	C7H8NO+
124.0759	19	C7H10NO+
129.0701	3	C10H9+
130.0655	2	C9H8N+
131.0607	96	C8H7N2+
132.0685	24	C8H8N2+
139.0869	21	C7H11N2O+
140.0497	5	C10H6N+
142.0655	35	C10H8N+
143.0607	35	C9H7N2+
143.073	5	C10H9N+
146.0718	4	C8H8N3+
147.0795	15	C8H9N3+
149.0714	8	C8H9N2O+
153.0702	3	C12H9+
156.0813	8	C11H10N+
157.0764	3	C10H9N2+
159.0921	8	C10H11N2+
160.076	30	C10H10NO+
166.0655	15	C12H8N+
167.0604	1	C11H7N2+
167.0733	10	C12H9N+
168.0685	24	C11H8N2+
169.0764	3	C11H9N2+
170.0972	1	C12H12N+
174.0918	3	C11H12NO+
179.0734	2	C13H9N+
180.0812	31	C13H10N+
181.0765	9	C12H9N2+
181.0894	1	C13H11N+
182.0844	40	C12H10N2+
183.0921	55	C12H11N2+
184.0763	2	C12H10NO+
184.0874	29	C11H10N3+
184.0995	4	C12H12N2+
185.0716	1	C11H9N2O+
190.0657	3	C14H8N+
192.0686	19	C13H8N2+
195.0922	9	C13H11N2+
196.0998	4	C13H12N2+
197.0947	1	C12H11N3+
197.108	13	C13H13N2+
205.0766	8	C14H9N2+
206.0843	48	C14H10N2+
207.0922	70	C14H11N2+
208.0874	33	C13H10N3+
208.0998	10	C14H12N2+
209.0952	102	C13H11N3+
222.1032	26	C14H12N3+
223.111	26	C14H13N3+
224.1187	999	C14H14N3+
