Mass spectrum: Isoxaflutole; LC-ESI-QFT; MS2; CE: 75; R=35000; [M-H]-
Name: Isoxaflutole
Name: (5-cyclopropyl-1,2-oxazol-4-yl)-[2-methylsulfonyl-4-(trifluoromethyl)phenyl]methanone
Formula: C15H12F3NO4S
Exact mass: 359.04391
SMILES: O=C(c1c(onc1)C2CC2)c3ccc(cc3S(=O)(=O)C)C(F)(F)F
InChI: InChI=1S/C15H12F3NO4S/c1-24(21,22)12-6-9(15(16,17)18)4-5-10(12)13(20)11-7-19-23-14(11)8-2-3-8/h4-8H,2-3H2,1H3
Instrument: Q Exactive Plus Orbitrap Thermo Scientific
Instrument type: LC-ESI-QFT
Ms type: MS2
Ion mode: NEGATIVE
Ionization: ESI
Fragmentation mode: HCD
Collision energy: 75 (nominal)
Resolution: 35000
Column name: XBridge C18 3.5um, 2.1x50mm, Waters
Retention time: 8.6 min
Base peak: 358.0367
Precursor m/z: 358.0366
Precursor type: [M-H]-
m/z	relative intensity	assigned
60.9755	2	CHOS-
63.9625	999	O2S-
65.9986	24	C3NO-
67.019	5	C4H3O-
78.986	418	CH3O2S-
90.0351	5	C6H4N-
108.0456	37	C6H6NO-
145.0271	4	C7H4F3-
148.0196	1	C11H2N-
159.0429	13	C8H6F3-
161.0221	4	C7H4F3O-
165.0157	1	C9H3F2O-
168.0257	2	C11H3FN-
170.0224	1	C8H3F3N-
185.022	3	C9H4F3O-
188.0505	1	C14H6N-
201.0168	1	C9H4F3O2-
208.057	1	C14H7FN-
228.0632	1	C14H8F2N-
248.9839	2	C9H4F3O3S-
278.0435	2	C14H7F3NO2-
