Mass spectrum: Metobromuron; LC-ESI-QFT; MS2; CE: 150%; R=17500; [M+H]+
Name: Metobromuron
Name: 3-(4-bromophenyl)-1-methoxy-1-methylurea
Formula: C9H11BrN2O2
Exact mass: 258.0004
SMILES: CN(C(=O)NC1=CC=C(C=C1)Br)OC
InChI: InChI=1S/C9H11BrN2O2/c1-12(14-2)9(13)11-8-5-3-7(10)4-6-8/h3-6H,1-2H3,(H,11,13)
Instrument: Exploris 240 Orbitrap Thermo Scientific
Instrument type: LC-ESI-QFT
Ms type: MS2
Ion mode: POSITIVE
Ionization: ESI
Fragmentation mode: HCD
Collision energy: 150 % (nominal)
Resolution: 17500
Column name: XBridge C18 3.5um, 2.1x50mm, Waters
Retention time: 6.748 min
Base peak: 259.0077
Precursor m/z: 259.0077
Precursor type: [M+H]+
m/z	relative intensity	assigned
50.015	22	C4H2+
51.0229	31	C4H3+
52.0181	107	C3H2N+
58.0288	70	C2H4NO+
62.0151	29	C5H2+
63.0229	645	C5H3+
64.0308	446	C5H4+
65.026	101	C4H3N+
65.0386	999	C5H5+
66.034	24	C4H4N+
77.0388	21	C6H5+
78.034	30	C5H4N+
90.0337	26	C6H4N+
91.0416	715	C6H5N+
92.0495	250	C6H6N+
92.9335	50	CH2Br+
105.0448	25	C6H5N2+
116.9333	241	C3H2Br+
119.0605	209	C7H7N2+
142.949	233	C5H4Br+
170.9682	23	C6H6BrN+
