Mass spectrum: Fensulfothion; LC-ESI-QFT; MS2; CE: 90%; R=17500; [M+H]+
Name: Fensulfothion
Name: diethoxy-(4-methylsulfinylphenoxy)-sulfanylidene-lambda5-phosphane
Formula: C11H17O4PS2
Exact mass: 308.0306
SMILES: CCOP(=S)(OCC)OC1=CC=C(C=C1)S(=O)C
InChI: InChI=1S/C11H17O4PS2/c1-4-13-16(17,14-5-2)15-10-6-8-11(9-7-10)18(3)12/h6-9H,4-5H2,1-3H3
Instrument: Exploris 240 Orbitrap Thermo Scientific
Instrument type: LC-ESI-QFT
Ms type: MS2
Ion mode: POSITIVE
Ionization: ESI
Fragmentation mode: HCD
Collision energy: 90 % (nominal)
Resolution: 17500
Column name: XBridge C18 3.5um, 2.1x50mm, Waters
Retention time: 7.188 min
Base peak: 309.0377
Precursor m/z: 309.0379
Precursor type: [M+H]+
m/z	relative intensity	assigned
62.99	59	CH3OS+
80.9738	68	H2O3P+
94.0413	815	C6H6O+
96.0029	22	C5H4S+
96.9508	339	H2O2PS+
97.0109	57	C5H5S+
98.9842	98	H4O4P+
107.049	24	C7H7O+
110.0185	450	C6H6S+
111.0267	29	C6H7S+
114.9609	108	H4O3PS+
123.9981	24	C6H4OS+
125.0054	319	C6H5OS+
139.0212	294	C7H7OS+
140.029	999	C7H8OS+
140.9829	188	C6H5S2+
141	159	C6H5O2S+
142.0083	529	C6H6O2S+
154.9983	267	C7H7S2+
155.9698	141	C6H4OS2+
156.0064	521	C7H8S2+
156.978	123	C6H5OS2+
157.0318	220	C7H9O2S+
157.9857	260	C6H6OS2+
171.9748	34	C6H5O2PS+
172.0006	48	C7H8OS2+
173.009	52	C7H9OS2+
201.9858	41	C7H7O3PS+
203.965	55	C6H5O4PS+
218.9884	23	C7H8O4PS+
219.9421	61	C6H5O3PS2+
219.9963	51	C7H9O4PS+
234.9644	33	C7H8O3PS2+
