Mass spectrum: Iopromide; LC-ESI-ITFT; MS2; CE: 30%; R=15000; [M+H]+
Name: Iopromide
Name: 1-N,3-N-bis(2,3-dihydroxypropyl)-2,4,6-triiodo-5-[(2-methoxyacetyl)amino]-3-N-methylbenzene-1,3-dicarboxamide
Formula: C18H24I3N3O8
Exact mass: 790.8698
SMILES: CN(CC(CO)O)C(=O)C1=C(C(=C(C(=C1I)C(=O)NCC(CO)O)I)NC(=O)COC)I
InChI: InChI=1S/C18H24I3N3O8/c1-24(4-9(28)6-26)18(31)12-13(19)11(17(30)22-3-8(27)5-25)14(20)16(15(12)21)23-10(29)7-32-2/h8-9,25-28H,3-7H2,1-2H3,(H,22,30)(H,23,29)
Instrument: LTQ Orbitrap XL Thermo Scientific
Instrument type: LC-ESI-ITFT
Ms type: MS2
Ion mode: POSITIVE
Ionization: ESI
Fragmentation mode: HCD
Collision energy: 30 % (nominal)
Resolution: 15000
Column name: XBridge C18 3.5um, 2.1x50mm, Waters
Retention time: 2.7 min
Base peak: 132.9579
Precursor m/z: 791.877
Precursor type: [M+H]+
m/z	relative intensity	assigned
70.0652	43	C4H8N+
291.0968	88	C14H15N2O5+
299.9149	273	C9H3INO3+
312.948	49	C10H6IN2O2+
317.9257	328	C9H5INO4+
326.901	117	C10H2INO4+
330.9561	58	C10H8IN2O3+
357.9196	181	C11H5INO5+
372.9676	999	C12H10IN2O4+
386.9833	665	C13H12IN2O4+
399.9559	71	C13H9IN2O5+
400.9978	89	C11H16INO7+
404.994	154	C13H14IN2O5+
413.8113	99	C8H2I2NO3+
413.9703	528	C14H11IN2O5+
419.0096	123	C14H16IN2O5+
425.8119	107	C9H2I2NO3+
444.9887	531	C14H23I2+
456.8539	162	C10H7I2N2O3+
485.8329	154	C11H6I2NO5+
527.8672	573	C13H10I2N2O5+
558.885	619	C13H22I3+
572.9006	480	C14H24I3+
