Mass spectrum: Enrofloxacin; LC-ESI-QFT; MS2; CE: 15; R=35000; [M+H]+
Name: Enrofloxacin
Name: 1-cyclopropyl-7-(4-ethylpiperazin-4-ium-1-yl)-6-fluoro-4-oxoquinoline-3-carboxylate
Formula: C19H22FN3O3
Exact mass: 359.16452
SMILES: CCN1CCN(CC1)C2=C(C=C3C(=C2)N(C=C(C3=O)C(=O)O)C4CC4)F
InChI: InChI=1S/C19H22FN3O3/c1-2-21-5-7-22(8-6-21)17-10-16-13(9-15(17)20)18(24)14(19(25)26)11-23(16)12-3-4-12/h9-12H,2-8H2,1H3,(H,25,26)
Instrument: Q Exactive Plus Orbitrap Thermo Scientific
Instrument type: LC-ESI-QFT
Ms type: MS2
Ion mode: POSITIVE
Ionization: ESI
Fragmentation mode: HCD
Collision energy: 15 (nominal)
Resolution: 35000
Column name: XBridge C18 3.5um, 2.1x50mm, Waters
Retention time: 4.4 min
Base peak: 360.1712
Precursor m/z: 360.1718
Precursor type: [M+H]+
m/z	relative intensity	assigned
316.1823	40	C18H23FN3O+
342.1613	15	C19H21FN3O2+
360.1719	999	C19H23FN3O3+
361.1745	2	C17H23N5O4+
