Mass spectrum: 2-Butyl-1-2-benzisothiazolin-3-one; LC-ESI-QFT; MS2; CE: 45%; R=17500; [M+H]+
Name: 2-Butyl-1-2-benzisothiazolin-3-one
Name: 1,2-Benzisothiazol-3(2H)-one, 2-butyl-
Name: 2-butyl-1,2-benzothiazol-3-one
Formula: C11H13NOS
Exact mass: 207.0718
SMILES: CCCCN1C(=O)C2=CC=CC=C2S1
InChI: InChI=1S/C11H13NOS/c1-2-3-8-12-11(13)9-6-4-5-7-10(9)14-12/h4-7H,2-3,8H2,1H3
Instrument: Exploris 240 Orbitrap Thermo Scientific
Instrument type: LC-ESI-QFT
Ms type: MS2
Ion mode: POSITIVE
Ionization: ESI
Fragmentation mode: HCD
Collision energy: 45 % (nominal)
Resolution: 17500
Column name: XBridge C18 3.5um, 2.1x50mm, Waters
Retention time: 7.954 min
Base peak: 208.0789
Precursor m/z: 208.0791
Precursor type: [M+H]+
m/z	relative intensity	assigned
57.0699	159	C4H9+
152.0164	999	C7H6NOS+
208.0792	186	C11H14NOS+
