Mass spectrum: Repaglinide; LC-ESI-QFT; MS2; CE: 45; R=35000; [M+H]+
Name: Repaglinide
Name: 2-ethoxy-4-[2-[[3-methyl-1-(2-piperidin-1-ylphenyl)butyl]amino]-2-oxoethyl]benzoic acid
Formula: C27H36N2O4
Exact mass: 452.26751
SMILES: CCOC1=C(C=CC(=C1)CC(=O)NC(CC(C)C)C2=CC=CC=C2N3CCCCC3)C(=O)O
InChI: InChI=1S/C27H36N2O4/c1-4-33-25-17-20(12-13-22(25)27(31)32)18-26(30)28-23(16-19(2)3)21-10-6-7-11-24(21)29-14-8-5-9-15-29/h6-7,10-13,17,19,23H,4-5,8-9,14-16,18H2,1-3H3,(H,28,30)(H,31,32)
Instrument: Q Exactive Plus Orbitrap Thermo Scientific
Instrument type: LC-ESI-QFT
Ms type: MS2
Ion mode: POSITIVE
Ionization: ESI
Fragmentation mode: HCD
Collision energy: 45 (nominal)
Resolution: 35000
Column name: XBridge C18 3.5um, 2.1x50mm, Waters
Retention time: 9.7 min
Base peak: 453.2744
Precursor m/z: 453.2748
Precursor type: [M+H]+
m/z	relative intensity	assigned
69.0699	1	C5H9+
86.0964	317	C5H12N+
91.0542	1	C7H7+
106.0651	5	C7H8N+
117.0573	1	C8H7N+
118.065	3	C8H8N+
120.0808	1	C8H10N+
130.065	1	C9H8N+
131.073	1	C9H9N+
132.0808	3	C9H10N+
144.0806	1	C10H10N+
145.0885	1	C10H11N+
146.0965	18	C10H12N+
158.0962	1	C11H12N+
159.1042	1	C11H13N+
160.1122	2	C11H14N+
162.1277	142	C11H16N+
172.1121	6	C12H14N+
173.12	3	C12H15N+
174.1278	136	C12H16N+
179.0703	11	C10H11O3+
186.1277	1	C13H16N+
187.1356	1	C13H17N+
188.1435	2	C13H18N+
189.0546	7	C11H9O3+
202.1591	6	C14H20N+
207.0653	1	C11H11O4+
228.1754	1	C16H22N+
230.1903	999	C16H24N+
231.1938	1	C11H25N3O2+
