Mass spectrum: Cycloxydim-TP BH 517-TSO E/Z-isomer; LC-ESI-QFT; MS2; CE: 45%; R=17500; [M-H]-
Name: Cycloxydim-TP BH 517-TSO E/Z-isomer
Name: Cycloxydim sulfoxide
Formula: C17H27NO4S
Exact mass: 341.1661
SMILES: CCC\C(=N/OCC)C1=C(O)CC(CC1=O)C1CCCS(=O)C1
InChI: InChI=1S/C17H27NO4S/c1-3-6-14(18-22-4-2)17-15(19)9-13(10-16(17)20)12-7-5-8-23(21)11-12/h12-13,19H,3-11H2,1-2H3/b18-14+
Instrument: Q Exactive Plus Orbitrap Thermo Scientific
Instrument type: LC-ESI-QFT
Ms type: MS2
Ion mode: NEGATIVE
Ionization: ESI
Fragmentation mode: HCD
Collision energy: 45 % (nominal)
Resolution: 17500
Column name: XBridge C18 3.5um, 2.1x50mm, Waters
Retention time: 7.752 min
Base peak: 340.1587
Precursor m/z: 340.1588
Precursor type: [M-H]-
m/z	relative intensity	assigned
58.996	4	C2H3S-
65.9982	9	C3NO-
82.0297	7	C4H4NO-
90.9858	3	C2H3O2S-
99.0275	53	C5H7S-
108.0218	3	C6H4O2-
109.0293	7	C6H5O2-
110.061	5	C6H8NO-
125.0432	2	C7H9S-
134.0247	89	C7H4NO2-
139.0584	4	C8H11S-
158.0612	5	C10H8NO-
160.0768	8	C10H10NO-
162.0562	3	C9H8NO2-
163.076	2	C10H11O2-
165.9971	9	C7H4NO2S-
174.0562	4	C10H8NO2-
175.0765	3	C11H11O2-
176.0713	8	C10H10NO2-
178.087	7	C10H12NO2-
188.0718	4	C11H10NO2-
200.072	10	C12H10NO2-
202.0875	10	C12H12NO2-
204.1026	4	C12H14NO2-
206.1186	5	C12H16NO2-
208.0433	5	C10H10NO2S-
209.0642	5	C11H13O2S-
210.0588	4	C10H12NO2S-
230.1182	4	C14H16NO2-
234.0595	44	C12H12NO2S-
252.0701	999	C12H14NO3S-
253.0906	4	C13H17O3S-
278.1215	7	C15H20NO2S-
294.1167	30	C15H20NO3S-
296.132	7	C15H22NO3S-
