Mass spectrum: Imidacloprid-urea; LC-ESI-ITFT; MS2; CE: 75%; R=7500; [M+H]+
Name: Imidacloprid-urea
Name: 1-[(6-Chloropyridin-3-yl)methyl]imidazolidin-2-one
Formula: C9H10ClN3O
Exact mass: 211.0512
SMILES: Clc2ncc(CN1CCNC1=O)cc2
InChI: InChI=1S/C9H10ClN3O/c10-8-2-1-7(5-12-8)6-13-4-3-11-9(13)14/h1-2,5H,3-4,6H2,(H,11,14)
Instrument: LTQ Orbitrap XL Thermo Scientific
Instrument type: LC-ESI-ITFT
Ms type: MS2
Ion mode: POSITIVE
Ionization: ESI
Fragmentation mode: HCD
Collision energy: 75 % (nominal)
Resolution: 7500
Column name: XBridge C18 3.5um, 2.1x50mm, Waters
Retention time: 4.6 min
Base peak: 212.0588
Precursor m/z: 212.0585
Precursor type: [M+H]+
m/z	relative intensity	assigned
56.0495	15	C3H6N+
65.0386	17	C5H5+
67.0542	1	C5H7+
70.0288	13	C3H4NO+
71.0604	7	C3H7N2+
78.0338	4	C5H4N+
79.0543	2	C6H7+
80.0494	4	C5H6N+
85.0397	7	C3H5N2O+
90.0339	26	C6H4N+
91.0417	4	C6H5N+
92.0495	66	C6H6N+
93.0573	45	C6H7N+
96.0444	13	C5H6NO+
98.9996	15	C5H4Cl+
99.0553	269	C4H7N2O+
101.0156	4	C5H6Cl+
106.0651	11	C7H8N+
107.0604	21	C6H7N2+
109.0523	2	C6H7NO+
110.0601	20	C6H8NO+
114.0105	116	C5H5ClN+
116.0495	2	C8H6N+
118.0528	3	C7H6N2+
120.0681	7	C7H8N2+
121.076	4	C7H9N2+
123.0554	11	C6H7N2O+
126.0105	610	C6H5ClN+
127.0184	71	C6H6ClN+
128.0262	999	C6H7ClN+
131.0606	3	C8H7N2+
132.0679	3	C8H8N2+
133.0761	35	C8H9N2+
134.0832	2	C8H10N2+
140.0261	2	C7H7ClN+
141.0213	9	C6H6ClN2+
142.0055	13	C6H5ClNO+
142.0293	9	C6H7ClN2+
144.0211	19	C6H7ClNO+
149.0717	2	C8H9N2O+
154.0291	3	C7H7ClN2+
156.0451	2	C7H9ClN2+
168.0209	1	C8H7ClNO+
169.0163	7	C7H6ClN2O+
169.0527	9	C8H10ClN2+
176.0818	27	C9H10N3O+
194.048	15	C9H9ClN3+
195.0321	12	C9H8ClN2O+
210.0421	2	C9H9ClN3O+
212.0595	31	C9H11ClN3O+
214.0606	2	C8H11ClN4O+
