Mass spectrum: Cetirizine N-Oxide; LC-ESI-QFT; MS2; CE: 150; R=35000; [M+H]+
Name: Cetirizine N-Oxide
Name: (R)-Cetirizine N-Oxide
Name: 2-[2-[4-[(4-chlorophenyl)-phenylmethyl]-1-oxidopiperazin-1-ium-1-yl]ethoxy]acetic acid
Formula: C21H25ClN2O4
Exact mass: 404.15028
SMILES: C1C[N+](CCN1C(C2=CC=CC=C2)C3=CC=C(C=C3)Cl)(CCOCC(=O)O)[O-]
InChI: InChI=1S/C21H25ClN2O4/c22-19-8-6-18(7-9-19)21(17-4-2-1-3-5-17)23-10-12-24(27,13-11-23)14-15-28-16-20(25)26/h1-9,21H,10-16H2,(H,25,26)
Instrument: Q Exactive Plus Orbitrap Thermo Scientific
Instrument type: LC-ESI-QFT
Ms type: MS2
Ion mode: POSITIVE
Ionization: ESI
Fragmentation mode: HCD
Collision energy: 150 (nominal)
Resolution: 35000
Column name: XBridge C18 3.5um, 2.1x50mm, Waters
Retention time: 9.4 min
Base peak: 405.1573
Precursor m/z: 405.1576
Precursor type: [M+H]+
m/z	relative intensity	assigned
50.0151	1	C4H2+
51.0229	1	C4H3+
53.0386	2	C4H5+
54.0339	1	C3H4N+
56.0495	16	C3H6N+
58.0651	4	C3H8N+
62.0151	2	C5H2+
63.0229	13	C5H3+
65.0386	13	C5H5+
68.0494	2	C4H6N+
70.0287	4	C3H4NO+
70.0651	4	C4H8N+
72.9839	10	C3H2Cl+
74.0151	1	C6H2+
75.0229	7	C6H3+
77.0385	3	C6H5+
78.0464	3	C6H6+
79.0542	1	C6H7+
82.0651	1	C5H8N+
83.0603	6	C4H7N2+
84.0443	1	C4H6NO+
84.0683	1	C4H8N2+
86.015	1	C7H2+
87.0228	2	C7H3+
88.0308	1	C7H4+
89.0386	29	C7H5+
90.0464	6	C7H6+
91.0542	8	C7H7+
95.0492	9	C6H7O+
98.9996	12	C5H4Cl+
102.0464	4	C8H6+
103.0542	4	C8H7+
104.0495	1	C7H6N+
105.0447	5	C6H5N2+
113.0385	5	C9H5+
114.0464	2	C9H6+
115.0542	99	C9H7+
116.0494	6	C8H6N+
117.0571	1	C8H7N+
119.0491	1	C8H7O+
122.9994	1	C7H4Cl+
125.0154	2	C7H6Cl+
126.0464	4	C10H6+
128.0495	1	C9H6N+
128.062	1	C10H8+
129.0446	2	C8H5N2+
132.0571	1	C9H8O+
136.0073	2	C8H5Cl+
138.0106	1	C7H5ClN+
138.0462	2	C11H6+
139.0542	84	C11H7+
140.0619	3	C11H8+
149.0154	7	C9H6Cl+
150.0463	1	C12H6+
152.062	6	C12H8+
155.0603	1	C10H7N2+
162.0232	1	C10H7Cl+
163.0543	90	C13H7+
164.0621	110	C13H8+
165.0699	999	C13H9+
166.0777	7	C13H10+
168.0569	51	C12H8O+
169.0646	3	C12H9O+
176.0624	1	C14H8+
177.0694	1	C14H9+
178.0777	4	C14H10+
192.0807	2	C14H10N+
193.089	2	C14H11N+
196.0519	17	C13H8O2+
199.031	5	C13H8Cl+
204.0807	1	C15H10N+
