Mass spectrum: Prometon; LC-ESI-ITFT; MS2; CE: 90%; R=7500; [M+H]+
Name: Prometon
Name: 6-methoxy-2-N,4-N-di(propan-2-yl)-1,3,5-triazine-2,4-diamine
Formula: C10H19N5O
Exact mass: 225.1584
SMILES: c1(nc(NC(C)C)nc(n1)OC)NC(C)C
InChI: InChI=1S/C10H19N5O/c1-6(2)11-8-13-9(12-7(3)4)15-10(14-8)16-5/h6-7H,1-5H3,(H2,11,12,13,14,15)
Instrument: LTQ Orbitrap XL Thermo Scientific
Instrument type: LC-ESI-ITFT
Ms type: MS2
Ion mode: POSITIVE
Ionization: ESI
Fragmentation mode: HCD
Collision energy: 90 % (nominal)
Resolution: 7500
Column name: XBridge C18 3.5um, 2.1x50mm, Waters
Retention time: 6.7 min
Base peak: 226.1662
Precursor m/z: 226.1662
Precursor type: [M+H]+
m/z	relative intensity	assigned
57.0447	287	C2H5N2+
58.0286	34	C2H4NO+
68.0243	305	C2H2N3+
69.0082	50	C2HN2O+
74.0712	5	C2H8N3+
75.0553	144	C2H7N2O+
82.04	79	C3H4N3+
83.024	58	C3H3N2O+
85.0509	39	C2H5N4+
86.0349	728	C2H4N3O+
99.0665	88	C3H7N4+
100.0506	727	C3H6N3O+
110.0463	32	C3H4N5+
125.0456	11	C4H5N4O+
142.0723	999	C4H8N5O+
