Mass spectrum: Dichlorvos; LC-ESI-QFT; MS2; CE: 90; R=35000; [M+H]+
Name: Dichlorvos
Name: DDVP
Name: 2,2-bis(chloranyl)ethenyl dimethyl phosphate
Formula: C4H7Cl2O4P
Exact mass: 219.94590
SMILES: O=P(O\C=C(/Cl)Cl)(OC)OC
InChI: InChI=1S/C4H7Cl2O4P/c1-8-11(7,9-2)10-3-4(5)6/h3H,1-2H3
Instrument: Q Exactive Orbitrap Thermo Scientific
Instrument type: LC-ESI-QFT
Ms type: MS2
Ion mode: POSITIVE
Ionization: ESI
Fragmentation mode: HCD
Collision energy: 90 (nominal)
Resolution: 35000
Column name: XBridge C18 3.5um, 2.1x50mm, Waters
Retention time: 7.4 min
Base peak: 220.9533
Precursor m/z: 220.9532
Precursor type: [M+H]+
m/z	relative intensity	assigned
59.9763	72	C2HCl+
62.9997	3	C2H4Cl+
64.9787	17	H2O2P+
72.9841	2	C3H2Cl+
75.971	11	C2HClO+
76.9788	27	C2H2ClO+
78.9943	631	CH4O2P+
81.0099	3	CH6O2P+
82.9449	14	CHCl2+
94.9449	60	C2HCl2+
94.9891	5	CH4O3P+
96.9604	67	CH3ClOP+
97.0049	39	CH6O3P+
98.9842	19	H4O4P+
109.0049	10	C2H6O3P+
111.9476	27	CH2ClO2P+
112.9998	236	CH6O4P+
127.0154	999	C2H8O4P+
130.9658	10	CH5ClO3P+
