Mass spectrum: Bisoprolol; LC-ESI-QFT; MS2; CE: 90; R=35000; [M+H]+
Name: Bisoprolol
Name: 1-(propan-2-ylamino)-3-[4-(2-propan-2-yloxyethoxymethyl)phenoxy]-2-propanol
Formula: C18H31NO4
Exact mass: 325.22531
SMILES: O(c1ccc(cc1)COCCOC(C)C)CC(O)CNC(C)C
InChI: InChI=1S/C18H31NO4/c1-14(2)19-11-17(20)13-23-18-7-5-16(6-8-18)12-21-9-10-22-15(3)4/h5-8,14-15,17,19-20H,9-13H2,1-4H3
Instrument: Q Exactive Orbitrap Thermo Scientific
Instrument type: LC-ESI-QFT
Ms type: MS2
Ion mode: POSITIVE
Ionization: ESI
Fragmentation mode: HCD
Collision energy: 90 (nominal)
Resolution: 35000
Column name: XBridge C18 3.5um, 2.1x50mm, Waters
Retention time: 6.1 min
Base peak: 326.2328
Precursor m/z: 326.2326
Precursor type: [M+H]+
m/z	relative intensity	assigned
53.0023	15	C3HO+
56.0496	636	C3H6N+
58.0652	122	C3H8N+
63.0229	63	C5H3+
65.0386	45	C5H5+
72.0807	208	C4H10N+
73.0284	5	C3H5O2+
74.06	999	C3H8NO+
79.0542	192	C6H7+
81.0697	7	C6H9+
84.0808	41	C5H10N+
89.0386	616	C7H5+
91.0542	483	C7H7+
93.0699	5	C7H9+
95.0491	108	C6H7O+
98.0964	39	C6H12N+
100.1121	32	C6H14N+
103.0542	35	C8H7+
105.0447	19	C6H5N2+
105.0699	184	C8H9+
107.0492	862	C7H7O+
115.0542	44	C9H7+
116.107	121	C6H14NO+
117.07	30	C9H9+
119.0491	79	C8H7O+
119.0855	5	C9H11+
121.0648	100	C8H9O+
133.0649	103	C9H9O+
134.0602	16	C8H8NO+
137.0598	35	C8H9O2+
145.0648	53	C10H9O+
147.0805	17	C10H11O+
