Mass spectrum: Lacosamide; LC-ESI-QFT; MS2; CE: 45; R=35000; [M-H]-
Name: Lacosamide
Name: N2-Acetyl-N-benzyl-O-methyl-D-serinamide
Name: 2-acetamido-N-benzyl-3-methoxypropanamide
Formula: C13H18N2O3
Exact mass: 250.13174
SMILES: CC(=O)NC(COC)C(=O)NCC1=CC=CC=C1
InChI: InChI=1S/C13H18N2O3/c1-10(16)15-12(9-18-2)13(17)14-8-11-6-4-3-5-7-11/h3-7,12H,8-9H2,1-2H3,(H,14,17)(H,15,16)
Instrument: Q Exactive Plus Orbitrap Thermo Scientific
Instrument type: LC-ESI-QFT
Ms type: MS2
Ion mode: NEGATIVE
Ionization: ESI
Fragmentation mode: HCD
Collision energy: 45 (nominal)
Resolution: 35000
Column name: XBridge C18 3.5um, 2.1x50mm, Waters
Retention time: 5.0 min
Base peak: 295.1293
Precursor m/z: 249.1245
Precursor type: [M-H]-
m/z	relative intensity	assigned
57.0345	43	C3H5O-
57.9934	3	CNO2-
58.0298	21	C2H4NO-
59.0138	18	C2H3O2-
70.0299	10	C3H4NO-
77.0395	3	C6H5-
82.0298	8	C4H4NO-
84.0454	160	C4H6NO-
85.0171	4	C3H3NO2-
86.0611	2	C4H8NO-
90.0348	3	C6H4N-
91.0553	7	C7H7-
96.0327	4	C4H4N2O-
98.0246	3	C4H4NO2-
100.0402	2	C4H6NO2-
102.0348	13	C7H4N-
104.0505	25	C7H6N-
106.0661	2	C7H8N-
110.0247	16	C5H4NO2-
111.0199	57	C4H3N2O2-
112.0403	25	C5H6NO2-
114.056	5	C5H8NO2-
116.0505	13	C8H6N-
118.0298	8	C7H4NO-
118.0662	5	C8H8N-
120.0454	3	C7H6NO-
121.0294	2	C7H5O2-
130.0661	9	C9H8N-
131.0377	2	C8H5NO-
132.0455	21	C8H6NO-
133.0657	4	C9H9O-
134.0611	53	C8H8NO-
142.0507	4	C6H8NO3-
146.0246	1	C8H4NO2-
146.0613	2	C9H8NO-
148.0768	744	C9H10NO-
150.0561	2	C8H8NO2-
156.0816	1	C11H10N-
157.0771	1	C10H9N2-
158.0611	7	C10H8NO-
159.0562	4	C9H7N2O-
161.0719	1	C9H9N2O-
162.0559	1	C9H8NO2-
171.0927	28	C11H11N2-
174.0924	18	C11H12NO-
175.0876	947	C10H11N2O-
184.064	25	C11H8N2O-
187.0875	4	C11H11N2O-
190.0872	4	C11H12NO2-
199.0876	150	C12H11N2O-
201.0669	16	C11H9N2O2-
202.0747	74	C11H10N2O2-
207.1138	999	C11H15N2O2-
217.0981	104	C12H13N2O2-
234.0647	1	C11H10N2O4-
