Mass spectrum: Dicloxacillin; LC-ESI-QFT; MS2; CE: 90; R=35000; [M-H]-
Name: Dicloxacillin
Name: 6-[[3-(2,6-dichlorophenyl)-5-methyl-1,2-oxazole-4-carbonyl]amino]-3,3-dimethyl-7-oxo-4-thia-1-azabicyclo[3.2.0]heptane-2-carboxylic acid
Formula: C19H17Cl2N3O5S
Exact mass: 469.02660
SMILES: CC1=C(C(=NO1)C2=C(C=CC=C2Cl)Cl)C(=O)NC3C4N(C3=O)C(C(S4)(C)C)C(=O)O
InChI: InChI=1S/C19H17Cl2N3O5S/c1-7-10(12(23-29-7)11-8(20)5-4-6-9(11)21)15(25)22-13-16(26)24-14(18(27)28)19(2,3)30-17(13)24/h4-6,13-14,17H,1-3H3,(H,22,25)(H,27,28)
Instrument: Q Exactive Plus Orbitrap Thermo Scientific
Instrument type: LC-ESI-QFT
Ms type: MS2
Ion mode: NEGATIVE
Ionization: ESI
Fragmentation mode: HCD
Collision energy: 90 (nominal)
Resolution: 35000
Column name: XBridge C18 3.5um, 2.1x50mm, Waters
Retention time: 9.5 min
Base peak: 468.0196
Precursor m/z: 468.0193
Precursor type: [M-H]-
m/z	relative intensity	assigned
50.0036	53	C3N-
56.9805	70	C2HS-
57.9758	351	CNS-
58.9962	56	C2H3S-
64.0194	21	C4H2N-
65.0146	36	C3HN2-
65.9986	999	C3NO-
67.019	39	C4H3O-
70.9837	342	C2HNS-
71.9916	37	C2H2NS-
72.9993	705	C2H3NS-
74.0071	12	C2H4NS-
74.9912	452	C2H3OS-
81.9758	22	C3NS-
82.0299	320	C4H4NO-
83.014	998	C4H3O2-
83.9915	15	C3H2NS-
90.035	17	C6H4N-
99.9864	19	C3H2NOS-
107.0251	16	C5H3N2O-
110.9913	12	C2H6ClNS-
112.9942	11	C4H3NOS-
113.0272	9	C8H3N-
114.0352	10	C8H4N-
115.0303	34	C7H3N2-
116.0143	16	C7H2NO-
118.0302	17	C4H7ClN2-
123.9961	18	C6H3ClN-
135.9963	21	C7H3ClN-
139.0301	19	C9H3N2-
140.0509	17	C10H6N-
141.0461	20	C9H5N2-
151.9911	66	C4H6Cl2N2-
152.038	11	C10H4N2-
166.03	13	C11H4NO-
168.0457	46	C11H6NO-
169.0408	20	C10H5N2O-
174.9956	21	C10H4ClO-
175.0067	9	C9H4ClN2-
183.0025	12	C10H3N2S-
183.9732	15	C8H4Cl2N-
189.9943	20	C6H6O5S-
191.002	375	C6H7O5S-
193.0408	15	C12H5N2O-
218.9794	14	C10H4ClN2S-
