Mass spectrum: Propranolol; LC-ESI-QFT; MS2; CE: 15; R=35000; [M+H]+
Name: Propranolol
Name: 1-(1-naphthalenyloxy)-3-(propan-2-ylamino)-2-propanol
Formula: C16H21NO2
Exact mass: 259.15723
SMILES: CC(C)NCC(COC1=CC=CC2=CC=CC=C21)O
InChI: InChI=1S/C16H21NO2/c1-12(2)17-10-14(18)11-19-16-9-5-7-13-6-3-4-8-15(13)16/h3-9,12,14,17-18H,10-11H2,1-2H3
Instrument: Q Exactive Orbitrap Thermo Scientific
Instrument type: LC-ESI-QFT
Ms type: MS2
Ion mode: POSITIVE
Ionization: ESI
Fragmentation mode: HCD
Collision energy: 15 (nominal)
Resolution: 35000
Column name: XBridge C18 3.5um, 2.1x50mm, Waters
Retention time: 6.6 min
Base peak: 260.1646
Precursor m/z: 260.1645
Precursor type: [M+H]+
m/z	relative intensity	assigned
56.0494	1	C3H6N+
58.0651	3	C3H8N+
72.0806	6	C4H10N+
74.06	5	C3H8NO+
86.0964	5	C5H12N+
98.0964	10	C6H12N+
116.1069	33	C6H14NO+
132.1018	2	C6H14NO2+
141.0697	1	C11H9+
155.0852	1	C12H11+
157.0647	8	C11H9O+
183.0804	21	C13H11O+
218.1175	7	C13H16NO2+
242.1531	2	C16H20NO+
260.1642	999	C16H22NO2+
