Mass spectrum: Pyrimidifen; LC-ESI-QFT; MS2; CE: 75%; R=17500; [M+H]+
Name: Pyrimidifen
Name: 5-chloro-N-[2-[4-(2-ethoxyethyl)-2,3-dimethylphenoxy]ethyl]-6-ethylpyrimidin-4-amine
Formula: C20H28ClN3O2
Exact mass: 377.1870
SMILES: CCC1=C(C(=NC=N1)NCCOC2=C(C(=C(C=C2)CCOCC)C)C)Cl
InChI: InChI=1S/C20H28ClN3O2/c1-5-17-19(21)20(24-13-23-17)22-10-12-26-18-8-7-16(9-11-25-6-2)14(3)15(18)4/h7-8,13H,5-6,9-12H2,1-4H3,(H,22,23,24)
Instrument: Exploris 240 Orbitrap Thermo Scientific
Instrument type: LC-ESI-QFT
Ms type: MS2
Ion mode: POSITIVE
Ionization: ESI
Fragmentation mode: HCD
Collision energy: 75 % (nominal)
Resolution: 17500
Column name: XBridge C18 3.5um, 2.1x50mm, Waters
Retention time: 11.376 min
Base peak: 378.1939
Precursor m/z: 378.1943
Precursor type: [M+H]+
m/z	relative intensity	assigned
81.0446	9	C4H5N2+
91.0543	15	C7H7+
95.0601	28	C5H7N2+
115.0058	120	C4H4ClN2+
122.0713	26	C6H8N3+
130.0293	354	C5H7ClN2+
133.0638	9	C7H7N3+
134.0717	8	C7H8N3+
135.0792	60	C7H9N3+
141.0216	17	C6H6ClN2+
142.0291	64	C6H7ClN2+
148.0871	65	C8H10N3+
149.0956	24	C10H13O+
150.1027	966	C8H12N3+
157.0398	831	C9H5N2O+
157.0534	114	C7H10ClN2+
158.0477	49	C9H6N2O+
169.0402	219	C7H8ClN3+
184.0637	999	C8H11ClN3+
