Mass spectrum: Dimethachlor; LC-ESI-ITFT; MS2; CE: 60%; R=15000; [M+H]+
Name: Dimethachlor
Name: 2-chloranyl-N-(2,6-dimethylphenyl)-N-(2-methoxyethyl)ethanamide
Formula: C13H18ClNO2
Exact mass: 255.1021
SMILES: Cc1cccc(C)c1N(CCOC)C(=O)CCl
InChI: InChI=1S/C13H18ClNO2/c1-10-5-4-6-11(2)13(10)15(7-8-17-3)12(16)9-14/h4-6H,7-9H2,1-3H3
Instrument: LTQ Orbitrap XL Thermo Scientific
Instrument type: LC-ESI-ITFT
Ms type: MS2
Ion mode: POSITIVE
Ionization: ESI
Fragmentation mode: HCD
Collision energy: 60 % (nominal)
Resolution: 15000
Column name: XBridge C18 3.5um, 2.1x50mm, Waters
Retention time: 9.1 min
Base peak: 256.1106
Precursor m/z: 256.1099
Precursor type: [M+H]+
m/z	relative intensity	assigned
75.9949	1	C2H3ClN+
76.9789	22	C2H2ClO+
79.0542	3	C6H7+
91.0543	2	C7H7+
103.0541	3	C8H7+
105.0699	59	C8H9+
107.0855	2	C8H11+
118.065	6	C8H8N+
119.0856	7	C9H11+
120.0808	4	C8H10N+
121.0649	9	C8H9O+
131.073	16	C9H9N+
131.0855	8	C10H11+
132.0808	79	C9H10N+
133.0887	19	C9H11N+
134.0965	2	C9H12N+
144.0808	5	C10H10N+
145.0885	1	C10H11N+
146.0965	22	C10H12N+
147.0671	1	C9H9NO+
147.1043	14	C10H13N+
148.1122	999	C10H14N+
153.0465	2	C9H10Cl+
160.1119	1	C11H14N+
174.0913	13	C11H12NO+
198.0684	6	C10H13ClNO+
224.0839	691	C12H15ClNO+
