Mass spectrum: Oxybutynin; LC-ESI-QFT; MS2; CE: 75; R=35000; [M+H]+
Name: Oxybutynin
Name: 2-cyclohexyl-2-hydroxy-2-phenyl-acetic acid 4-(diethylamino)but-2-ynyl ester
Formula: C22H31NO3
Exact mass: 357.23039
SMILES: CCN(CC)CC#CCOC(=O)C(C1CCCCC1)(C2=CC=CC=C2)O
InChI: InChI=1S/C22H31NO3/c1-3-23(4-2)17-11-12-18-26-21(24)22(25,19-13-7-5-8-14-19)20-15-9-6-10-16-20/h5,7-8,13-14,20,25H,3-4,6,9-10,15-18H2,1-2H3
Instrument: Q Exactive Orbitrap Thermo Scientific
Instrument type: LC-ESI-QFT
Ms type: MS2
Ion mode: POSITIVE
Ionization: ESI
Fragmentation mode: HCD
Collision energy: 75 (nominal)
Resolution: 35000
Column name: XBridge C18 3.5um, 2.1x50mm, Waters
Retention time: 8.9 min
Base peak: 358.2382
Precursor m/z: 358.2377
Precursor type: [M+H]+
m/z	relative intensity	assigned
50.0153	7	C4H2+
51.0231	3	C4H3+
53.0023	3	C3HO+
54.034	75	C3H4N+
55.0544	4	C4H7+
56.0496	2	C3H6N+
58.0652	465	C3H8N+
59.0493	4	C3H7O+
63.0078	10	CH3O3+
65.0387	14	C5H5+
67.0417	13	C4H5N+
67.0543	57	C5H7+
68.0495	161	C4H6N+
69.0336	126	C4H5O+
69.0699	19	C5H9+
70.0652	7	C4H8N+
71.0492	2	C4H7O+
72.0808	999	C4H10N+
73.0887	10	C4H11N+
74.0965	29	C4H12N+
77.0387	12	C6H5+
79.0543	284	C6H7+
80.0496	81	C5H6N+
81.0574	59	C5H7N+
81.07	31	C6H9+
82.0652	31	C5H8N+
83.0856	37	C6H11+
84.0809	8	C5H10N+
86.0965	37	C5H12N+
91.0543	242	C7H7+
93.0699	11	C7H9+
94.0652	149	C6H8N+
95.0492	123	C6H7O+
95.073	15	C6H9N+
96.0445	2	C5H6NO+
96.0809	38	C6H10N+
97.0285	98	C5H5O2+
103.0544	12	C8H7+
105.0336	410	C7H5O+
105.0448	28	C6H5N2+
107.0493	289	C7H7O+
108.0809	58	C7H10N+
109.0887	11	C7H11N+
110.097	1	C7H12N+
115.0543	20	C9H7+
117.07	27	C9H9+
121.065	7	C8H9O+
122.0965	4	C8H12N+
124.1121	3	C8H14N+
128.0622	40	C10H8+
129.07	160	C10H9+
141.0703	4	C11H9+
142.1229	282	C8H16NO+
143.0858	32	C11H11+
145.0649	9	C10H9O+
155.0609	3	C10H7N2+
155.0858	2	C12H11+
157.0653	14	C11H9O+
165.07	4	C13H9+
166.0779	14	C13H10+
171.1169	25	C13H15+
173.06	2	C11H9O2+
189.128	9	C13H17O+
