Mass spectrum: Letrozole; LC-ESI-QFT; MS2; CE: 150; R=35000; [M+H]+
Name: Letrozole
Name: 4-[(4-cyanophenyl)-(1,2,4-triazol-1-yl)methyl]benzonitrile
Formula: C17H11N5
Exact mass: 285.10145
SMILES: C1=CC(=CC=C1C#N)C(C2=CC=C(C=C2)C#N)N3C=NC=N3
InChI: InChI=1S/C17H11N5/c18-9-13-1-5-15(6-2-13)17(22-12-20-11-21-22)16-7-3-14(10-19)4-8-16/h1-8,11-12,17H
Instrument: Q Exactive Plus Orbitrap Thermo Scientific
Instrument type: LC-ESI-QFT
Ms type: MS2
Ion mode: POSITIVE
Ionization: ESI
Fragmentation mode: HCD
Collision energy: 150 (nominal)
Resolution: 35000
Column name: XBridge C18 3.5um, 2.1x50mm, Waters
Retention time: 6.6 min
Base peak: 286.1083
Precursor m/z: 286.1087
Precursor type: [M+H]+
m/z	relative intensity	assigned
50.0151	7	C4H2+
51.023	1	C4H3+
53.0022	7	C3HO+
55.0178	1	C3H3O+
61.0072	24	C5H+
62.0151	40	C5H2+
63.0229	257	C5H3+
64.0182	75	C4H2N+
65.0386	41	C5H5+
66.0339	2	C4H4N+
66.0464	2	C5H6+
74.015	52	C6H2+
75.0103	3	C5HN+
75.0229	11	C6H3+
76.0182	1	C5H2N+
76.0307	27	C6H4+
77.0385	1	C6H5+
78.0464	6	C6H6+
81.0334	3	C5H5O+
85.0071	7	C7H+
86.015	18	C7H2+
87.0229	134	C7H3+
88.0181	62	C6H2N+
88.0306	5	C7H4+
89.0386	142	C7H5+
90.0338	52	C6H4N+
90.0464	6	C7H6+
91.0541	6	C7H7+
95.049	3	C6H7O+
98.0151	29	C8H2+
99.0103	5	C7HN+
99.023	8	C8H3+
100.0182	3	C7H2N+
100.0307	28	C8H4+
101.0259	3	C7H3N+
102.0464	15	C8H6+
103.0417	3	C7H5N+
105.0447	1	C6H5N2+
110.015	9	C9H2+
111.0104	7	C8HN+
111.0229	39	C9H3+
112.0181	27	C8H2N+
112.0308	1	C9H4+
113.0385	324	C9H5+
114.0338	112	C8H4N+
115.0542	71	C9H7+
116.0495	12	C8H6N+
118.0412	1	C8H6O+
122.0152	6	C10H2+
123.0102	5	C9HN+
123.0228	6	C10H3+
124.0182	4	C9H2N+
124.0308	18	C10H4+
125.0386	5	C10H5+
126.0464	67	C10H6+
127.0416	37	C9H5N+
132.0443	7	C8H6NO+
135.0104	1	C10HN+
135.0229	5	C11H3+
136.0184	7	C10H2N+
136.0307	4	C11H4+
137.0386	234	C11H5+
138.0338	87	C10H4N+
138.0463	27	C11H6+
139.0418	3	C10H5N+
139.0542	61	C11H7+
140.0494	372	C10H6N+
148.0306	7	C12H4+
149.0386	17	C12H5+
150.0464	158	C12H6+
151.0416	38	C11H5N+
152.0495	3	C11H6N+
153.0573	14	C11H7N+
156.057	3	C11H8O+
157.0522	1	C10H7NO+
160.0306	4	C13H4+
161.0385	189	C13H5+
162.034	58	C12H4N+
162.0463	186	C13H6+
163.0542	505	C13H7+
164.0494	373	C12H6N+
165.0447	28	C11H5N2+
166.0412	9	C12H6O+
167.049	3	C12H7O+
168.057	3	C12H8O+
170.0601	1	C11H8NO+
175.0416	54	C13H5N+
176.0493	4	C13H6N+
177.0573	23	C13H7N+
181.0522	5	C12H7NO+
182.0597	1	C12H8NO+
183.0552	1	C11H7N2O+
186.0338	26	C14H4N+
187.0416	61	C14H5N+
188.0494	999	C14H6N+
189.0446	56	C13H5N2+
189.0573	65	C14H7N+
190.065	63	C14H8N+
191.0364	4	C13H5NO+
193.0522	27	C13H7NO+
194.0362	37	
194.0603	9	C13H8NO+
202.0524	1	C14H6N2+
204.0556	9	C13H6N3+
207.0551	3	C13H7N2O+
207.068	5	C14H9NO+
213.0446	50	C15H5N2+
214.0526	10	C15H6N2+
215.0603	118	C15H7N2+
218.0475	1	C14H6N2O+
219.0315	21	
221.0472	10	
232.0632	7	C15H8N2O+
246.0419	3	C13H4N5O+
