Mass spectrum: Doxycycline; LC-ESI-QFT; MS2; CE: 180; R=35000; [M-H]-
Name: Doxycycline
Name: 8-carbamoyl-10-(dimethylazaniumyl)-4,6a,7,11-tetrahydroxy-12-methyl-6,9-dioxo-10a,11,11a,12-tetrahydro-10H-tetracen-5-olate
Formula: C22H24N2O8
Exact mass: 444.15327
SMILES: CC1C2C(C3C(C(=O)C(=C(C3(C(=O)C2=C(C4=C1C=CC=C4O)O)O)O)C(=O)N)N(C)C)O
InChI: InChI=1S/C22H24N2O8/c1-7-8-5-4-6-9(25)11(8)16(26)12-10(7)17(27)14-15(24(2)3)18(28)13(21(23)31)20(30)22(14,32)19(12)29/h4-7,10,14-15,17,25-27,30,32H,1-3H3,(H2,23,31)
Instrument: Q Exactive Plus Orbitrap Thermo Scientific
Instrument type: LC-ESI-QFT
Ms type: MS2
Ion mode: NEGATIVE
Ionization: ESI
Fragmentation mode: HCD
Collision energy: 180 (nominal)
Resolution: 35000
Column name: XBridge C18 3.5um, 2.1x50mm, Waters
Retention time: 6.3 min
Base peak: 443.1457
Precursor m/z: 443.146
Precursor type: [M-H]-
m/z	relative intensity	assigned
50.0036	116	C3N-
51.0239	30	C4H3-
53.0032	37	C3HO-
55.0189	11	C3H3O-
63.0239	47	C5H3-
64.0193	17	C4H2N-
65.0033	148	C4HO-
65.0397	53	C5H5-
65.9986	999	C3NO-
67.0189	31	C4H3O-
68.0142	27	C3H2NO-
68.9982	197	C3HO2-
79.019	17	C5H3O-
89.0395	56	C7H5-
91.0553	8	C7H7-
93.0345	31	C6H5O-
95.0138	42	C5H3O2-
96.0091	8	C4H2NO2-
101.0395	28	C8H5-
102.0472	6	C8H6-
108.0216	10	C6H4O2-
113.0397	16	C9H5-
115.0554	30	C9H7-
117.0348	59	C8H5O-
119.0502	40	C8H7O-
120.0091	26	C6H2NO2-
123.0089	7	C6H3O3-
130.0425	66	C9H6O-
137.0397	105	C11H5-
139.0554	15	C11H7-
141.0345	13	C10H5O-
143.0501	33	C10H7O-
147.0458	9	C9H7O2-
154.0424	113	C11H6O-
155.0502	15	C11H7O-
158.0374	17	C10H6O2-
159.0453	7	C10H7O2-
165.0346	49	C12H5O-
167.0497	12	C12H7O-
182.0372	104	C12H6O2-
183.0452	72	C12H7O2-
211.0402	30	C13H7O3-
