Mass spectrum: Pyraclostrobin; LC-ESI-ITFT; MS2; CE: 30%; R=7500; [M+H]+
Name: Pyraclostrobin
Name: methyl [2-({[1-(4-chlorophenyl)-1H-pyrazol-3-yl]oxy}methyl)phenyl]methoxycarbamate
Formula: C19H18ClN3O4
Exact mass: 387.0986
SMILES: c1(ccc(n2ccc(OCc3c(cccc3)N(OC)C(OC)=O)n2)cc1)Cl
InChI: InChI=1S/C19H18ClN3O4/c1-25-19(24)23(26-2)17-6-4-3-5-14(17)13-27-18-11-12-22(21-18)16-9-7-15(20)8-10-16/h3-12H,13H2,1-2H3
Instrument: LTQ Orbitrap XL Thermo Scientific
Instrument type: LC-ESI-ITFT
Ms type: MS2
Ion mode: POSITIVE
Ionization: ESI
Fragmentation mode: HCD
Collision energy: 30 % (nominal)
Resolution: 7500
Column name: XBridge C18 3.5um, 2.1x50mm, Waters
Retention time: 13.4 min
Base peak: 388.1064
Precursor m/z: 388.1059
Precursor type: [M+H]+
m/z	relative intensity	assigned
75.0443	8	C3H7O2+
104.0491	8	C7H6N+
105.0574	15	C7H7N+
118.0653	46	C8H8N+
119.0367	28	C7H5NO+
120.0449	10	C7H6NO+
128.0494	9	C9H6N+
132.0445	62	C8H6NO+
133.0522	179	C8H7NO+
134.0601	113	C8H8NO+
146.061	7	C6H11ClN2+
149.0472	420	C8H7NO2+
162.0551	258	C9H8NO2+
163.063	999	C9H9NO2+
164.0707	649	C9H10NO2+
166.0861	37	C9H12NO2+
174.0551	8	C10H8NO2+
179.0579	17	C9H9NO3+
194.0813	339	C10H12NO3+
261.0892	14	C12H18ClO4+
268.0654	7	C17H13ClO+
281.0472	8	C19H7NO2+
296.0586	238	C16H11ClN3O+
324.0528	37	C17H11ClN3O2+
