Mass spectrum: Pyraclofos; LC-ESI-QFT; MS2; CE: 150%; R=17500; [M+H]+
Name: Pyraclofos
Name: 1-(4-chlorophenyl)-4-[ethoxy(propylsulfanyl)phosphoryl]oxypyrazole
Formula: C14H18ClN2O3PS
Exact mass: 360.0464
SMILES: CCCSP(=O)(OCC)OC1=CN(N=C1)C2=CC=C(C=C2)Cl
InChI: InChI=1S/C14H18ClN2O3PS/c1-3-9-22-21(18,19-4-2)20-14-10-16-17(11-14)13-7-5-12(15)6-8-13/h5-8,10-11H,3-4,9H2,1-2H3
Instrument: Exploris 240 Orbitrap Thermo Scientific
Instrument type: LC-ESI-QFT
Ms type: MS2
Ion mode: POSITIVE
Ionization: ESI
Fragmentation mode: HCD
Collision energy: 150 % (nominal)
Resolution: 17500
Column name: XBridge C18 3.5um, 2.1x50mm, Waters
Retention time: 11.576 min
Base peak: 361.0538
Precursor m/z: 361.0537
Precursor type: [M+H]+
m/z	relative intensity	assigned
51.023	98	C4H3+
53.0021	50	C3HO+
53.0386	14	C4H5+
58.0287	20	C2H4NO+
62.9454	12	PS+
63.023	12	C5H3+
64.9787	277	H2O2P+
74.0151	61	C6H2+
75.0229	999	C6H3+
77.0386	75	C6H5+
78.9402	144	OPS+
84.984	55	C4H2Cl+
86.9997	60	C4H4Cl+
88.0309	17	C3H7NP+
89.0387	22	C7H5+
96.9508	160	H2O2PS+
104.0495	112	C7H6N+
105.0449	20	C6H5N2+
105.0573	38	C7H7N+
110.9997	340	C6H4Cl+
112.0077	65	C2H8ClNP+
114.9611	47	H4O3PS+
115.0417	27	C8H5N+
123.0002	25	C3H7ClNP+
129.0103	134	C2H9ClNOP+
131.0604	17	C8H7N2+
139.0058	723	C6H4ClN2+
