Mass spectrum: Atenolol-desisopropyl; LC-ESI-ITFT; MS2; CE: 60%; R=15000; [M+H]+
Name: Atenolol-desisopropyl
Name: 4-(3-Amino-2-hydroxypropoxy)phenylacetamide
Formula: C11H16N2O3
Exact mass: 224.1161
SMILES: c1cc(ccc1CC(=O)N)OCC(CN)O
InChI: InChI=1S/C11H16N2O3/c12-6-9(14)7-16-10-3-1-8(2-4-10)5-11(13)15/h1-4,9,14H,5-7,12H2,(H2,13,15)
Instrument: LTQ Orbitrap XL Thermo Scientific
Instrument type: LC-ESI-ITFT
Ms type: MS2
Ion mode: POSITIVE
Ionization: ESI
Fragmentation mode: HCD
Collision energy: 60 % (nominal)
Resolution: 15000
Column name: XBridge C18 3.5um, 2.1x50mm, Waters
Retention time: 1.0 min
Base peak: 225.124
Precursor m/z: 225.1234
Precursor type: [M+H]+
m/z	relative intensity	assigned
56.0495	135	C3H6N+
74.0601	499	C3H8NO+
79.0541	9	C6H7+
91.0542	72	C7H7+
93.0699	51	C7H9+
105.0699	42	C8H9+
106.0652	34	C7H8N+
107.0492	92	C7H7O+
116.0492	6	C8H6N+
117.07	38	C9H9+
119.0491	82	C8H7O+
121.0648	166	C8H9O+
122.06	26	C7H8NO+
131.0487	10	C9H7O+
133.0648	486	C9H9O+
134.06	55	C8H8NO+
136.0757	8	C8H10NO+
144.0807	6	C10H10N+
145.0649	999	C10H9O+
147.0441	74	C9H7O2+
147.0803	11	C10H11O+
152.0707	30	C8H10NO2+
161.0596	16	C10H9O2+
162.0661	85	C8H8N3O+
162.0913	69	C10H12NO+
163.0755	21	C10H11O2+
164.0705	109	C9H10NO2+
173.0597	66	C11H9O2+
178.0863	206	C10H12NO2+
190.0863	139	C11H12NO2+
208.0968	41	C11H14NO3+
