Mass spectrum: Fluvastatin; LC-ESI-QFT; MS2; CE: 75; R=35000; [M+H]+
Name: Fluvastatin
Name: (3R,5S)-7-[3-(4-fluorophenyl)-1-isopropyl-2-indolyl]-3,5-dihydroxy-6-heptenoic acid
Formula: C24H26FNO4
Exact mass: 411.18459
SMILES: O=C(O)C[C@H](O)C[C@H](O)/C=C/c2c(c1ccccc1n2C(C)C)c3ccc(F)cc3
InChI: InChI=1S/C24H26FNO4/c1-15(2)26-21-6-4-3-5-20(21)24(16-7-9-17(25)10-8-16)22(26)12-11-18(27)13-19(28)14-23(29)30/h3-12,15,18-19,27-28H,13-14H2,1-2H3,(H,29,30)/b12-11+/t18-,19-/m1/s1
Instrument: Q Exactive Orbitrap Thermo Scientific
Instrument type: LC-ESI-QFT
Ms type: MS2
Ion mode: POSITIVE
Ionization: ESI
Fragmentation mode: HCD
Collision energy: 75 (nominal)
Resolution: 35000
Column name: XBridge C18 3.5um, 2.1x50mm, Waters
Retention time: 13.5 min
Base peak: 412.1916
Precursor m/z: 412.1919
Precursor type: [M+H]+
m/z	relative intensity	assigned
67.0542	21	C5H7+
69.0334	11	C4H5O+
71.0127	11	C3H3O2+
71.0491	12	C4H7O+
73.0284	2	C3H5O2+
77.0384	1	C6H5+
81.0335	16	C5H5O+
85.0284	1	C4H5O2+
91.0542	2	C7H7+
95.0491	54	C6H7O+
97.0284	8	C5H5O2+
99.0438	1	C5H7O2+
109.0448	2	C7H6F+
115.0543	1	C9H7+
121.0447	2	C8H6F+
122.0399	15	C7H5FN+
123.0439	6	C7H7O2+
128.0494	7	C9H6N+
128.0618	2	C10H8+
130.0654	1	C9H8N+
133.0448	2	C9H6F+
142.0778	1	C11H10+
146.0401	4	C9H5FN+
146.0599	8	C9H8NO+
153.0701	2	C12H9+
154.0652	2	C11H8N+
164.0503	13	C9H7FNO+
165.0698	12	C13H9+
168.0807	5	C12H10N+
169.0644	1	C12H9O+
176.0618	16	C14H8+
177.0697	260	C14H9+
181.0645	1	C13H9O+
183.0604	4	C13H8F+
185.0761	5	C13H10F+
191.0732	2	C14H9N+
192.0814	1	C14H10N+
195.0603	2	C14H8F+
195.0804	7	C14H11O+
196.0682	510	C14H9F+
197.076	999	C14H10F+
198.0714	4	C13H9FN+
203.0726	5	C15H9N+
204.0808	267	C15H10N+
205.0884	1	C15H11N+
207.0607	4	C15H8F+
209.0636	25	C14H8FN+
211.0792	38	C14H10FN+
212.087	27	C14H11FN+
217.0888	6	C16H11N+
218.0966	6	C16H12N+
220.0683	4	C16H9F+
221.076	2	C16H10F+
222.0713	336	C15H9FN+
223.0791	398	C15H10FN+
224.0869	985	C15H11FN+
225.095	5	C15H12FN+
233.0763	1	C17H10F+
235.0794	22	C16H10FN+
236.0869	27	C16H11FN+
237.0949	8	C16H12FN+
238.1026	57	C16H13FN+
239.106	1	C16H15O2+
248.0871	39	C17H11FN+
249.0949	12	C17H12FN+
250.1026	13	C17H13FN+
251.1103	9	C17H14FN+
254.0961	2	C19H12N+
260.0862	1	C18H11FN+
261.0951	6	C18H12FN+
262.1022	15	C18H13FN+
264.1191	1	C18H15FN+
266.1341	6	C18H17FN+
272.0871	6	C19H11FN+
273.095	2	C19H12FN+
274.1026	15	C19H13FN+
288.1179	2	C20H15FN+
