Mass spectrum: Molinate; LC-ESI-QFT; MS2; CE: 120; R=35000; [M+H]+
Name: Molinate
Name: S-ethyl azepane-1-carbothioate
Formula: C9H17NOS
Exact mass: 187.10309
SMILES: CCSC(=O)N1CCCCCC1
InChI: InChI=1S/C9H17NOS/c1-2-12-9(11)10-7-5-3-4-6-8-10/h2-8H2,1H3
Instrument: Q Exactive Plus Orbitrap Thermo Scientific
Instrument type: LC-ESI-QFT
Ms type: MS2
Ion mode: POSITIVE
Ionization: ESI
Fragmentation mode: HCD
Collision energy: 120 (nominal)
Resolution: 35000
Column name: XBridge C18 3.5um, 2.1x50mm, Waters
Retention time: 10.5 min
Base peak: 188.11
Precursor m/z: 188.1104
Precursor type: [M+H]+
m/z	relative intensity	assigned
51.0229	2	C4H3+
53.0022	15	C3HO+
53.0386	49	C4H5+
53.9974	3	C2NO+
55.0542	999	C4H7+
56.0131	22	C2H2NO+
56.0495	27	C3H6N+
57.0572	2	C3H7N+
57.0699	1	C4H9+
65.0384	2	C5H5+
66.0464	2	C5H6+
67.0542	2	C5H7+
67.9892	3	C3O2+
68.0495	5	C4H6N+
69.0572	1	C4H7N+
69.0699	6	C5H9+
70.0651	50	C4H8N+
71.9901	3	C2H2NS+
78.0086	1	C3N3+
79.0542	18	C6H7+
80.0494	1	C5H6N+
81.0699	18	C6H9+
82.0652	8	C5H8N+
83.0491	2	C5H7O+
83.0729	15	C5H9N+
83.0855	4	C6H11+
84.0444	5	C4H6NO+
84.0807	8	C5H10N+
93.0573	2	C6H7N+
96.0807	4	C6H10N+
98.0965	65	C6H12N+
