Mass spectrum: Ronidazole; LC-ESI-QFT; MS2; CE: 15; R=35000; [M+H]+
Name: Ronidazole
Name: (1-methyl-5-nitroimidazol-2-yl)methyl carbamate
Formula: C6H8N4O4
Exact mass: 200.05455
SMILES: CN1C(=CN=C1COC(=O)N)[N+](=O)[O-]
InChI: InChI=1S/C6H8N4O4/c1-9-4(3-14-6(7)11)8-2-5(9)10(12)13/h2H,3H2,1H3,(H2,7,11)
Instrument: Q Exactive Plus Orbitrap Thermo Scientific
Instrument type: LC-ESI-QFT
Ms type: MS2
Ion mode: POSITIVE
Ionization: ESI
Fragmentation mode: HCD
Collision energy: 15 (nominal)
Resolution: 35000
Column name: XBridge C18 3.5um, 2.1x50mm, Waters
Retention time: 2.3 min
Base peak: 201.0615
Precursor m/z: 201.0618
Precursor type: [M+H]+
m/z	relative intensity	assigned
53.026	1	C3H3N+
54.0338	1	C3H4N+
55.0417	25	C3H5N+
82.0525	1	C4H6N2+
110.0476	10	C5H6N2O+
140.0455	999	C5H6N3O2+
201.062	68	C6H9N4O4+
