Mass spectrum: Penciclovir; LC-ESI-QFT; MS2; CE: 30; R=35000; [M-H]-
Name: Penciclovir
Name: 2-amino-9-[4-hydroxy-3-(hydroxymethyl)butyl]-3H-purin-6-one
Formula: C10H15N5O3
Exact mass: 253.11749
SMILES: C1=NC2=C(N1CCC(CO)CO)N=C(NC2=O)N
InChI: InChI=1S/C10H15N5O3/c11-10-13-8-7(9(18)14-10)12-5-15(8)2-1-6(3-16)4-17/h5-6,16-17H,1-4H2,(H3,11,13,14,18)
Instrument: Q Exactive Orbitrap Thermo Scientific
Instrument type: LC-ESI-QFT
Ms type: MS2
Ion mode: NEGATIVE
Ionization: ESI
Fragmentation mode: HCD
Collision energy: 30 (nominal)
Resolution: 35000
Column name: XBridge C18 3.5um, 2.1x50mm, Waters
Retention time: 1.1 min
Base peak: 252.1103
Precursor m/z: 252.1102
Precursor type: [M-H]-
m/z	relative intensity	assigned
65.0145	7	C3HN2-
66.0097	1	C2N3-
82.0411	2	C3H4N3-
106.0284	1	C4H2N4-
107.0363	10	C4H3N4-
108.0203	8	C4H2N3O-
125.0469	10	C4H5N4O-
126.0309	4	C4H4N3O2-
133.0156	50	C5HN4O-
137.0719	1	C7H9N2O-
149.0342	7	C5H3N5O-
150.042	714	C5H4N5O-
152.0575	3	C5H6N5O-
204.089	4	C9H10N5O-
209.1045	6	C9H13N4O2-
210.0883	10	C9H12N3O3-
220.0838	4	C9H10N5O2-
222.0993	2	C9H12N5O2-
232.0839	6	C10H10N5O2-
234.0992	3	C10H12N5O2-
252.1101	999	C10H14N5O3-
