Mass spectrum: Parathion; LC-ESI-QFT; MS2; CE: 15; R=35000; [M+H]+
Name: Parathion
Name: diethoxy-(4-nitrophenoxy)-sulfanylidene-$l^{5}-phosphane
Formula: C10H14NO5PS
Exact mass: 291.03303
SMILES: S=P(Oc1ccc(cc1)[N+]([O-])=O)(OCC)OCC
InChI: InChI=1S/C10H14NO5PS/c1-3-14-17(18,15-4-2)16-10-7-5-9(6-8-10)11(12)13/h5-8H,3-4H2,1-2H3
Instrument: Q Exactive Orbitrap Thermo Scientific
Instrument type: LC-ESI-QFT
Ms type: MS2
Ion mode: POSITIVE
Ionization: ESI
Fragmentation mode: HCD
Collision energy: 15 (nominal)
Resolution: 35000
Column name: XBridge C18 3.5um, 2.1x50mm, Waters
Retention time: 12.6 min
Base peak: 292.0402
Precursor m/z: 292.0403
Precursor type: [M+H]+
m/z	relative intensity	assigned
76.0306	1	C6H4+
94.0412	4	C6H6O+
96.9505	2	H2O2PS+
110.0184	1	C6H6S+
114.9612	2	H4O3PS+
139.026	1	C6H5NO3+
140.0339	6	C6H6NO3+
156.0111	3	C6H6NO2S+
189.9845	5	C6H7O3PS+
235.9775	999	C10H4O5S+
253.9882	50	C6H9NO6PS+
264.0088	635	C8H11NO5PS+
268.0034	1	C7H11NO6PS+
282.0192	4	C8H13NO6PS+
292.04	271	C10H15NO5PS+
