Mass spectrum: 8-Hydroxy Mirtazapine; LC-ESI-QFT; MS2; CE: 180; R=35000; [M+H]+
Name: 8-Hydroxy Mirtazapine
Name: 2-Methyl-1,2,3,4,10,14b-hexahydropyrazino[2,1-a]pyrido[2,3-c][2]benzazepin-8-ol
Formula: C17H19N3O
Exact mass: 281.15281
SMILES: CN1CCN2C(C1)C3=CC=CC=C3CC4=CC(=CN=C42)O
InChI: InChI=1S/C17H19N3O/c1-19-6-7-20-16(11-19)15-5-3-2-4-12(15)8-13-9-14(21)10-18-17(13)20/h2-5,9-10,16,21H,6-8,11H2,1H3
Instrument: Q Exactive Plus Orbitrap Thermo Scientific
Instrument type: LC-ESI-QFT
Ms type: MS2
Ion mode: POSITIVE
Ionization: ESI
Fragmentation mode: HCD
Collision energy: 180 (nominal)
Resolution: 35000
Column name: XBridge C18 3.5um, 2.1x50mm, Waters
Retention time: 4.2 min
Base peak: 282.1591
Precursor m/z: 282.1601
Precursor type: [M+H]+
m/z	relative intensity	assigned
50.0151	211	C4H2+
51.0229	256	C4H3+
52.0181	34	C3H2N+
52.0308	24	C4H4+
53.0022	63	C3HO+
53.0385	357	C4H5+
53.9974	21	C2NO+
54.0338	53	C3H4N+
55.0178	61	C3H3O+
55.0416	3	C3H5N+
56.0494	123	C3H6N+
57.0573	26	C3H7N+
58.0651	49	C3H8N+
61.0072	16	C5H+
62.015	69	C5H2+
63.0228	420	C5H3+
64.0181	45	C4H2N+
64.0307	15	C5H4+
65.0385	402	C5H5+
66.0338	16	C4H4N+
66.0463	15	C5H6+
67.0177	16	C4H3O+
67.0416	20	C4H5N+
67.0541	3	C5H7+
68.013	417	C3H2NO+
70.065	17	C4H8N+
72.0806	31	C4H10N+
74.015	56	C6H2+
75.0228	144	C6H3+
76.018	64	C5H2N+
76.0306	61	C6H4+
77.0384	193	C6H5+
78.0337	75	C5H4N+
78.0463	141	C6H6+
79.0178	19	C5H3O+
79.0415	34	C5H5N+
79.0541	13	C6H7+
80.0493	133	C5H6N+
81.0335	27	C5H5O+
81.0447	12	C4H5N2+
82.0286	3	C4H4NO+
83.0604	3	C4H7N2+
86.015	16	
87.0228	68	C7H3+
88.018	17	
88.0306	51	C7H4+
89.0385	729	C7H5+
90.0337	29	C6H4N+
90.0463	72	C7H6+
91.0541	287	C7H7+
92.0494	23	C6H6N+
93.0573	5	C6H7N+
94.0287	15	C5H4NO+
94.0411	4	C6H6O+
94.0649	3	C6H8N+
95.049	412	C6H7O+
96.0443	30	C5H6NO+
98.0149	13	
99.0228	31	
101.0385	36	C8H5+
102.0463	280	C8H6+
103.0415	14	
103.0541	251	C8H7+
104.0494	31	C7H6N+
104.0619	5	C8H8+
105.0446	296	C6H5N2+
106.0522	3	C6H6N2+
108.0445	4	C6H6NO+
112.0392	21	C5H6NO2+
113.0384	288	C9H5+
114.0337	50	C8H4N+
114.0463	79	C9H6+
115.0541	969	C9H7+
116.0494	74	C8H6N+
116.0619	17	C9H8+
117.0572	67	C8H7N+
117.0699	14	C9H9+
118.0413	13	C8H6O+
119.0491	41	C8H7O+
119.0603	12	C7H7N2+
125.0384	63	C10H5+
126.0463	356	C10H6+
127.0415	27	
127.0541	403	C10H7+
128.0493	124	C9H6N+
128.0619	439	C10H8+
129.0446	128	C8H5N2+
129.0571	54	C9H7N+
129.0697	13	C10H9+
130.065	117	C9H8N+
131.049	5	C9H7O+
132.0444	5	C8H6NO+
132.0569	29	C9H8O+
134.0475	4	C7H6N2O+
135.0551	4	C7H7N2O+
137.0385	44	C11H5+
138.0462	43	C11H6+
139.0541	999	C11H7+
140.0493	428	C10H6N+
140.0616	84	C11H8+
141.0572	41	C10H7N+
141.0697	42	C11H9+
142.0525	14	C9H6N2+
142.065	14	C10H8N+
143.0491	13	C10H7O+
143.0729	6	C10H9N+
144.0806	5	C10H10N+
145.0646	258	C10H9O+
146.0598	67	C9H8NO+
147.0552	5	C8H7N2O+
149.038	6	C12H5+
150.0463	132	C12H6+
151.0415	18	C11H5N+
151.054	56	C12H7+
152.0495	39	C11H6N+
152.0619	224	C12H8+
153.0572	186	C11H7N+
154.065	446	C11H8N+
155.0602	598	C10H7N2+
156.0803	3	C11H10N+
157.0521	4	C10H7NO+
163.054	67	C13H7+
164.0493	230	C12H6N+
165.0452	4	C11H5N2+
165.057	39	C12H7N+
165.0696	18	C13H9+
166.065	178	C12H8N+
167.0729	104	C12H9N+
168.0569	8	C12H8O+
168.0681	8	C11H8N2+
169.0646	140	C12H9O+
170.0598	83	C11H8NO+
176.0616	23	C14H8+
177.0571	53	C13H7N+
178.0649	61	C13H8N+
179.0602	166	C12H7N2+
180.0443	5	C12H6NO+
180.0557	28	C11H6N3+
180.0675	22	C12H8N2+
180.0808	6	C13H10N+
181.0758	131	C12H9N2+
182.0599	73	C12H8NO+
182.0839	4	C12H10N2+
183.0678	25	C12H9NO+
184.0625	3	C11H8N2O+
184.0754	4	C12H10NO+
188.0495	16	C14H6N+
190.0645	32	C14H8N+
191.0599	38	C13H7N2+
191.0727	5	C14H9N+
192.068	71	C13H8N2+
193.0759	31	C13H9N2+
194.0601	14	C13H8NO+
195.0552	4	C12H7N2O+
195.0675	5	C13H9NO+
196.0756	5	C13H10NO+
205.076	44	C14H9N2+
206.0605	4	C14H8NO+
207.0551	12	
208.063	83	C13H8N2O+
209.0707	45	C13H9N2O+
221.0706	12	C14H9N2O+
