Mass spectrum: Amisulpride N-Oxide; LC-ESI-QFT; MS2; CE: 30; R=35000; [M-H]-
Name: Amisulpride N-Oxide
Name: 4-amino-N-[(1-ethyl-1-oxidopyrrolidin-1-ium-2-yl)methyl]-5-ethylsulfonyl-2-methoxybenzamide
Formula: C17H27N3O5S
Exact mass: 385.16714
SMILES: CC[N+]1(CCCC1CNC(=O)C2=CC(=C(C=C2OC)N)S(=O)(=O)CC)[O-]
InChI: InChI=1S/C17H27N3O5S/c1-4-20(22)8-6-7-12(20)11-19-17(21)13-9-16(26(23,24)5-2)14(18)10-15(13)25-3/h9-10,12H,4-8,11,18H2,1-3H3,(H,19,21)
Instrument: Q Exactive Plus Orbitrap Thermo Scientific
Instrument type: LC-ESI-QFT
Ms type: MS2
Ion mode: NEGATIVE
Ionization: ESI
Fragmentation mode: HCD
Collision energy: 30 (nominal)
Resolution: 35000
Column name: XBridge C18 3.5um, 2.1x50mm, Waters
Retention time: 4.2 min
Base peak: 430.1652
Precursor m/z: 384.1599
Precursor type: [M-H]-
m/z	relative intensity	assigned
63.9624	40	O2S-
70.0663	4	C4H8N-
72.0092	17	C2H2NO2-
79.9574	17	O3S-
80.9651	5	HO3S-
81.022	3	C4H3NO-
91.0424	2	C6H5N-
92.0505	2	C6H6N-
93.0015	68	C2H5O2S-
94.0298	2	C5H4NO-
107.0373	5	C6H5NO-
120.0455	3	C7H6NO-
122.0611	25	C7H8NO-
123.0565	3	C6H7N2O-
141.0016	3	C6H5O2S-
143.0614	1	C9H7N2-
150.0925	2	C9H12NO-
151.0514	1	C7H7N2O2-
151.0879	5	C8H11N2O-
152.0353	1	C7H6NO3-
155.0047	2	C6H5NO2S-
156.0126	164	C6H6NO2S-
158.028	2	C6H8NO2S-
165.067	12	C8H9N2O2-
170.9997	2	C6H5NO3S-
184.0438	999	C8H10NO2S-
185.0151	3	C7H7NO3S-
186.0231	783	C7H8NO3S-
191.0826	11	C10H11N2O2-
199.0308	1	C8H9NO3S-
200.0387	4	C8H10NO3S-
203.0826	9	C11H11N2O2-
204.0903	3	C11H12N2O2-
210.0106	4	C8H6N2O3S-
212.0025	4	C8H6NO4S-
212.0387	30	C9H10NO3S-
214.0545	884	C9H12NO3S-
226.0176	1	C9H8NO4S-
228.0336	12	C9H10NO4S-
229.0288	6	C8H9N2O4S-
230.093	1	C12H12N3O2-
236.0267	2	C10H8N2O3S-
237.0342	1	C10H9N2O3S-
239.0496	10	C10H11N2O3S-
240.0336	11	C10H10NO4S-
240.0696	1	C11H14NO3S-
241.0294	1	C17H5O2-
242.1299	3	C14H16N3O-
243.0447	10	C9H11N2O4S-
244.0282	3	C9H10NO5S-
246.1246	3	C13H16N3O2-
248.1044	4	C12H14N3O3-
249.0343	2	C11H9N2O3S-
251.0496	21	C11H11N2O3S-
254.0859	2	C12H16NO3S-
255.0446	68	C10H11N2O4S-
257.0602	28	C10H13N2O4S-
259.1325	5	C14H17N3O2-
260.1406	3	C14H18N3O2-
263.0495	3	C12H11N2O3S-
264.0573	8	C12H12N2O3S-
264.135	1	C13H18N3O3-
265.065	3	C12H13N2O3S-
267.0446	5	C11H11N2O4S-
269.0604	11	C11H13N2O4S-
274.1199	6	C14H16N3O3-
274.1562	30	C15H20N3O2-
277.0652	6	C13H13N2O3S-
277.143	28	C14H19N3O3-
278.0606	2	C12H12N3O3S-
279.0805	2	C13H15N2O3S-
281.0597	1	C12H13N2O4S-
282.068	30	C12H14N2O4S-
283.0754	7	C12H15N2O4S-
287.0835	2	C12H17NO5S-
288.0422	14	C16H6N3O3-
291.0816	2	C14H15N2O3S-
291.1592	2	C15H21N3O3-
292.1306	6	C14H18N3O4-
292.1668	20	C15H22N3O3-
295.0758	46	C13H15N2O4S-
296.0837	40	C13H16N2O4S-
302.0579	5	C17H8N3O3-
306.092	10	C14H16N3O3S-
309.0916	17	C14H17N2O4S-
310.0862	17	C13H16N3O4S-
322.0856	3	C14H16N3O4S-
323.0935	7	C14H17N3O4S-
324.1024	20	C14H18N3O4S-
326.0815	1	C13H16N3O5S-
327.0893	2	C13H17N3O5S-
328.0972	56	C13H18N3O5S-
334.1234	6	C16H20N3O3S-
338.1182	46	C17H22O5S-
340.0976	15	C14H18N3O5S-
341.105	14	C14H19N3O5S-
352.1338	64	C16H22N3O4S-
354.1123	2	C15H20N3O5S-
354.149	4	C16H24N3O4S-
355.1209	17	C15H21N3O5S-
356.1289	595	C15H22N3O5S-
366.1494	34	C17H24N3O4S-
369.1365	53	C16H23N3O5S-
384.1601	418	C17H26N3O5S-
