Mass spectrum: Forchlorfenuron; LC-ESI-QFT; MS2; CE: 75; R=35000; [M+H]+
Name: Forchlorfenuron
Name: N-(2-chloro-4-pyridyl)-N`-phenylurea
Name: 1-(2-chloropyridin-4-yl)-3-phenylurea
Formula: C12H10ClN3O
Exact mass: 247.05124
SMILES: C1=CC=C(C=C1)NC(=O)NC2=CC(=NC=C2)Cl
InChI: InChI=1S/C12H10ClN3O/c13-11-8-10(6-7-14-11)16-12(17)15-9-4-2-1-3-5-9/h1-8H,(H2,14,15,16,17)
Instrument: Q Exactive Plus Orbitrap Thermo Scientific
Instrument type: LC-ESI-QFT
Ms type: MS2
Ion mode: POSITIVE
Ionization: ESI
Fragmentation mode: HCD
Collision energy: 75 (nominal)
Resolution: 35000
Column name: XBridge C18 3.5um, 2.1x50mm, Waters
Retention time: 8.8 min
Base peak: 248.0579
Precursor m/z: 248.0585
Precursor type: [M+H]+
m/z	relative intensity	assigned
53.0022	1	C3HO+
53.0386	1	C4H5+
56.0495	16	C3H6N+
66.0338	60	C4H4N+
67.029	1	C3H3N2+
77.0386	4	C6H5+
82.0287	6	C4H4NO+
84.0444	1	C4H6NO+
92.0495	10	C6H6N+
93.0448	172	C5H5N2+
94.0526	1	C5H6N2+
94.0651	17	C6H8N+
95.0491	6	C6H7O+
105.0449	4	C6H5N2+
111.0553	999	C5H7N2O+
112.0393	2	C2H9ClN2O+
113.0595	1	C6H9O2+
119.024	13	C6H3N2O+
120.0443	4	C7H6NO+
125.0711	5	C6H9N2O+
129.0214	952	C5H6ClN2+
130.0054	8	C5H5ClNO+
137.0346	104	C3H8ClN3O+
155.0007	111	C6H4ClN2O+
