Mass spectrum: Propham; LC-ESI-QFT; MS2; CE: 150%; R=17500; [M+H]+
Name: Propham
Name: propan-2-yl N-phenylcarbamate
Formula: C10H13NO2
Exact mass: 179.0946
SMILES: CC(C)OC(=O)NC1=CC=CC=C1
InChI: InChI=1S/C10H13NO2/c1-8(2)13-10(12)11-9-6-4-3-5-7-9/h3-8H,1-2H3,(H,11,12)
Instrument: Exploris 240 Orbitrap Thermo Scientific
Instrument type: LC-ESI-QFT
Ms type: MS2
Ion mode: POSITIVE
Ionization: ESI
Fragmentation mode: HCD
Collision energy: 150 % (nominal)
Resolution: 17500
Column name: XBridge C18 3.5um, 2.1x50mm, Waters
Retention time: 6.825 min
Base peak: 138.0549
Precursor m/z: 180.1019
Precursor type: [M+H]+
m/z	relative intensity	assigned
41.0386	36	C3H5+
43.0541	15	C3H7+
50.0152	20	C4H2+
51.0229	999	C4H3+
53.0386	302	C4H5+
55.018	16	C3H3O+
65.0385	308	C5H5+
67.0542	22	C5H7+
77.0386	890	C6H5+
81.0336	18	C5H5O+
92.0496	128	C6H6N+
93.0573	63	C6H7N+
94.0415	34	C6H6O+
94.0651	56	C6H8N+
95.0491	299	C6H7O+
