Mass spectrum: Fenthion Oxon; LC-ESI-QFT; MS2; CE: 45%; R=17500; [M+H]+
Name: Fenthion Oxon
Name: dimethyl (3-methyl-4-methylsulfanylphenyl) phosphate
Formula: C10H15O4PS
Exact mass: 262.0429
SMILES: CC1=C(C=CC(=C1)OP(=O)(OC)OC)SC
InChI: InChI=1S/C10H15O4PS/c1-8-7-9(5-6-10(8)16-4)14-15(11,12-2)13-3/h5-7H,1-4H3
Instrument: Exploris 240 Orbitrap Thermo Scientific
Instrument type: LC-ESI-QFT
Ms type: MS2
Ion mode: POSITIVE
Ionization: ESI
Fragmentation mode: HCD
Collision energy: 45 % (nominal)
Resolution: 17500
Column name: XBridge C18 3.5um, 2.1x50mm, Waters
Retention time: 7.813 min
Base peak: 263.0501
Precursor m/z: 263.0501
Precursor type: [M+H]+
m/z	relative intensity	assigned
58.995	44	C2H3S+
91.0542	51	C7H7+
93.0698	52	C7H9+
97.0106	74	C5H5S+
103.0542	42	C8H7+
104.0619	39	C8H8+
121.0648	10	C8H9O+
122.0185	27	C7H6S+
127.0156	28	C2H8O4P+
135.0262	14	C8H7S+
136.0343	9	C8H8S+
137.0419	156	C8H9S+
153.0368	39	C8H9OS+
154.0445	10	C8H10OS+
155.0519	21	C8H11OS+
168.9871	25	C7H6OPS+
169.0682	14	C9H13OS+
198.9977	11	C8H8O2PS+
215.0468	14	C9H12O4P+
216.0004	419	C8H9O3PS+
217.0073	14	C8H10O3PS+
231.024	999	C9H12O3PS+
248.0267	39	C9H13O4PS+
249.0339	9	C9H14O4PS+
263.0503	66	C10H16O4PS+
