Mass spectrum: Dexamethasone; LC-ESI-ITFT; MS2; CE: 35%; R=7500; [M+H]+
Name: Dexamethasone
Name: (8S,9R,10S,11S,13S,14S,16R,17R)-9-fluoranyl-10,13,16-trimethyl-11,17-bis(oxidanyl)-17-(2-oxidanylethanoyl)-6,7,8,11,12,14,15,16-octahydrocyclopenta[a]phenanthren-3-one
Formula: C22H29FO5
Exact mass: 392.1999
SMILES: [H][C@@]12C[C@@H](C)[C@](O)(C(=O)CO)[C@@]1(C)C[C@H](O)[C@@]3(F)[C@@]2([H])CCC4=CC(=O)C=C[C@]34C
InChI: InChI=1S/C22H29FO5/c1-12-8-16-15-5-4-13-9-14(25)6-7-19(13,2)21(15,23)17(26)10-20(16,3)22(12,28)18(27)11-24/h6-7,9,12,15-17,24,26,28H,4-5,8,10-11H2,1-3H3/t12-,15+,16+,17+,19+,20+,21+,22+/m1/s1
Instrument: LTQ Orbitrap XL Thermo Scientific
Instrument type: LC-ESI-ITFT
Ms type: MS2
Ion mode: POSITIVE
Ionization: ESI
Fragmentation mode: CID
Collision energy: 35 % (nominal)
Resolution: 7500
Column name: XBridge C18 3.5um, 2.1x50mm, Waters
Retention time: 9.5 min
Base peak: 393.2068
Precursor m/z: 393.2072
Precursor type: [M+H]+
m/z	relative intensity	assigned
147.0801	7	C10H11O+
173.0963	3	C12H13O+
177.0905	3	C11H13O2+
185.0967	6	C13H13O+
187.1112	1	C13H15O+
197.0962	2	C14H13O+
211.1118	4	C15H15O+
225.1265	3	C16H17O+
235.1113	3	C17H15O+
237.1271	26	C17H17O+
249.1262	1	C18H17O+
253.1221	7	C17H17O2+
261.1251	3	C11H18FN2O4+
263.1418	2	C19H19O+
267.1371	4	C18H19O2+
267.1742	21	C19H23O+
275.1423	10	C20H19O+
277.1582	15	C20H21O+
279.1742	15	C20H23O+
281.1907	4	C20H25O+
289.1582	6	C21H21O+
291.1742	46	C21H23O+
295.1689	9	C20H23O2+
297.1846	11	C20H25O2+
301.1581	15	C22H21O+
307.1695	22	C21H23O2+
309.1847	66	C21H25O2+
319.1694	95	C22H23O2+
325.1799	54	C21H25O3+
327.1947	13	C21H27O3+
337.1798	157	C22H25O3+
343.1905	26	C21H27O4+
355.1904	351	C22H27O4+
373.2008	999	C22H29O5+
