Mass spectrum: Pretilachlor; LC-ESI-QFT; MS2; CE: 30; R=35000; [M+H]+
Name: Pretilachlor
Name: 2-chloranyl-N-(2,6-diethylphenyl)-N-(2-propoxyethyl)ethanamide
Formula: C17H26ClNO2
Exact mass: 311.16521
SMILES: ClCC(=O)N(c1c(cccc1CC)CC)CCOCCC
InChI: InChI=1S/C17H26ClNO2/c1-4-11-21-12-10-19(16(20)13-18)17-14(5-2)8-7-9-15(17)6-3/h7-9H,4-6,10-13H2,1-3H3
Instrument: Q Exactive Orbitrap Thermo Scientific
Instrument type: LC-ESI-QFT
Ms type: MS2
Ion mode: POSITIVE
Ionization: ESI
Fragmentation mode: HCD
Collision energy: 30 (nominal)
Resolution: 35000
Column name: XBridge C18 3.5um, 2.1x50mm, Waters
Retention time: 14.4 min
Base peak: 312.173
Precursor m/z: 312.1725
Precursor type: [M+H]+
m/z	relative intensity	assigned
105.0695	1	C8H9+
118.0651	1	C8H8N+
146.0966	4	C10H12N+
147.1045	1	C10H13N+
174.1278	1	C12H16N+
176.1435	21	C12H18N+
252.1152	999	C14H19ClNO+
312.1721	5	C17H27ClNO2+
