Mass spectrum: Famphur; LC-ESI-QFT; MS2; CE: 120%; R=17500; [M+H]+
Name: Famphur
Name: 4-dimethoxyphosphinothioyloxy-N,N-dimethylbenzenesulfonamide
Formula: C10H16NO5PS2
Exact mass: 325.0208
SMILES: CN(C)S(=O)(=O)C1=CC=C(C=C1)OP(=S)(OC)OC
InChI: InChI=1S/C10H16NO5PS2/c1-11(2)19(12,13)10-7-5-9(6-8-10)16-17(18,14-3)15-4/h5-8H,1-4H3
Instrument: Exploris 240 Orbitrap Thermo Scientific
Instrument type: LC-ESI-QFT
Ms type: MS2
Ion mode: POSITIVE
Ionization: ESI
Fragmentation mode: HCD
Collision energy: 120 % (nominal)
Resolution: 17500
Column name: XBridge C18 3.5um, 2.1x50mm, Waters
Retention time: 6.830 min
Base peak: 326.0278
Precursor m/z: 326.028
Precursor type: [M+H]+
m/z	relative intensity	assigned
60.9836	17	CH2OP+
62.9454	90	PS+
62.9994	999	CH4OP+
65.0386	75	C5H5+
67.0543	35	C5H7+
68.9795	19	C3HS+
69.9872	69	C3H2S+
77.0387	54	C6H5+
78.0462	20	C6H6+
78.9943	507	CH4O2P+
81.0101	54	CH6O2P+
93.0099	530	C2H6O2P+
94.9951	60	C5H3S+
96.0028	230	C5H4S+
97.0108	59	CH8NPS+
108.0029	182	C6H4S+
111.0204	33	C2H8O3P+
121.0107	43	C7H5S+
122.9899	76	C2H6NOPS+
124.982	71	C2H6O2PS+
125.0056	76	C6H5OS+
126.9766	20	C5H4PS+
127.0153	274	C2H8O4P+
154.9717	149	C6H4OPS+
169.959	27	C6H3O2PS+
