Mass spectrum: Dioxacarb; LC-ESI-QFT; MS2; CE: 75%; R=17500; [M+H]+
Name: Dioxacarb
Name: [2-(1,3-dioxolan-2-yl)phenyl] N-methylcarbamate
Formula: C11H13NO4
Exact mass: 223.0845
SMILES: CNC(=O)OC1=CC=CC=C1C2OCCO2
InChI: InChI=1S/C11H13NO4/c1-12-11(13)16-9-5-3-2-4-8(9)10-14-6-7-15-10/h2-5,10H,6-7H2,1H3,(H,12,13)
Instrument: Exploris 240 Orbitrap Thermo Scientific
Instrument type: LC-ESI-QFT
Ms type: MS2
Ion mode: POSITIVE
Ionization: ESI
Fragmentation mode: HCD
Collision energy: 75 % (nominal)
Resolution: 17500
Column name: XBridge C18 3.5um, 2.1x50mm, Waters
Retention time: 3.997 min
Base peak: 167.0701
Precursor m/z: 224.0917
Precursor type: [M+H]+
m/z	relative intensity	assigned
53.0385	45	C4H5+
58.0287	4	C2H4NO+
67.0542	17	C5H7+
77.0385	177	C6H5+
91.0541	39	C7H7+
95.049	999	C6H7O+
121.0282	10	C7H5O2+
123.0439	556	C7H7O2+
