Mass spectrum: Spirotetramat BYI08330-ketohydroxy; LC-ESI-QFT; MS2; CE: 120%; R=17500; [M+H]+
Name: Spirotetramat BYI08330-ketohydroxy
Name: 3-(2,5-Dimethylphenyl)-3-hydroxy-8-methoxy-1-azaspiro(4.5)decane-2,4-dione
Name: 3-(2,5-dimethylphenyl)-3-hydroxy-8-methoxy-1-azaspiro[4.5]decane-2,4-dione
Formula: C18H23NO4
Exact mass: 317.1627
SMILES: CC1=CC(=C(C=C1)C)C2(C(=O)C3(CCC(CC3)OC)NC2=O)O
InChI: InChI=1S/C18H23NO4/c1-11-4-5-12(2)14(10-11)18(22)15(20)17(19-16(18)21)8-6-13(23-3)7-9-17/h4-5,10,13,22H,6-9H2,1-3H3,(H,19,21)
Instrument: Exploris 240 Orbitrap Thermo Scientific
Instrument type: LC-ESI-QFT
Ms type: MS2
Ion mode: POSITIVE
Ionization: ESI
Fragmentation mode: HCD
Collision energy: 120 % (nominal)
Resolution: 17500
Column name: XBridge C18 3.5um, 2.1x50mm, Waters
Retention time: 7.435 min
Base peak: 318.1698
Precursor m/z: 318.17
Precursor type: [M+H]+
m/z	relative intensity	assigned
51.023	19	C4H3+
53.0385	90	C4H5+
54.0339	55	C3H4N+
65.0386	81	C5H5+
67.0542	76	C5H7+
77.0386	138	C6H5+
79.0542	157	C6H7+
81.0334	18	C5H5O+
81.07	18	C6H9+
91.0542	850	C7H7+
95.0491	24	C6H7O+
102.0467	47	C8H6+
103.0543	81	C8H7+
105.0694	64	C8H9+
115.0542	999	C9H7+
116.0622	130	C9H8+
117.0699	355	C9H9+
127.0544	92	C10H7+
128.0621	792	C10H8+
129.0697	69	C10H9+
130.0654	46	C9H8N+
131.0858	38	C10H11+
141.0697	129	C11H9+
142.0652	23	C10H8N+
142.0778	39	C11H10+
143.073	48	C10H9N+
143.086	98	C11H11+
145.0644	71	C10H9O+
152.0626	53	C12H8+
153.0701	75	C12H9+
154.0784	20	C12H10+
155.0859	23	C12H11+
165.0703	159	C13H9+
171.0808	32	C12H11O+
178.0784	36	C14H10+
204.0804	17	C15H10N+
