Mass spectrum: Flubendazole; LC-ESI-QFT; MS2; CE: 180; R=35000; [M-H]-
Name: Flubendazole
Name: Methyl N-[6-(4-fluorobenzoyl)-1H-benzimidazol-2-yl]carbamate
Formula: C16H12FN3O3
Exact mass: 313.08627
SMILES: COC(=O)NC1=NC2=C(N1)C=C(C=C2)C(=O)C3=CC=C(C=C3)F
InChI: InChI=1S/C16H12FN3O3/c1-23-16(22)20-15-18-12-7-4-10(8-13(12)19-15)14(21)9-2-5-11(17)6-3-9/h2-8H,1H3,(H2,18,19,20,22)
Instrument: Q Exactive Plus Orbitrap Thermo Scientific
Instrument type: LC-ESI-QFT
Ms type: MS2
Ion mode: NEGATIVE
Ionization: ESI
Fragmentation mode: HCD
Collision energy: 180 (nominal)
Resolution: 35000
Column name: XBridge C18 3.5um, 2.1x50mm, Waters
Retention time: 8.1 min
Base peak: 280.0527
Precursor m/z: 312.079
Precursor type: [M-H]-
m/z	relative intensity	assigned
50.0037	189	C3N-
64.0068	71	C3N2-
64.0194	999	C4H2N-
65.0146	39	C3HN2-
74.0038	274	C5N-
86.0037	101	C6N-
87.0115	104	C6HN-
88.0068	46	C5N2-
88.0193	392	C6H2N-
101.0146	25	C6HN2-
102.0225	38	C6H2N2-
113.0147	130	C7HN2-
114.0226	23	C7H2N2-
115.0303	848	C7H3N2-
129.0334	260	C7H3N3-
133.0283	25	C6H3N3O-
156.0206	327	C8H2N3O-
