Mass spectrum: FK-506; LC-ESI-QFT; MS2; CE: 15; R=35000; [M+H]+
Name: FK-506
Name: Tacrolimus
Name: (1R,9S,12S,13R,14S,17R,21S,23S,24R,25S,27R)-17-Allyl-1,14-dihydroxy-12-{(1E)-1-[(1R,3R,4R)-4-hydroxy-3-methoxycyclohexyl]-1-propen-2-yl}-23,25-dimethoxy-13,19,21,27-tetramethyl-11,28-dioxa-4-azatricyc lo[22.3.1.0 4,9]octacos-18-ene-2,3,10,16-tetrone
Formula: C44H69NO12
Exact mass: 803.48198
SMILES: CC1CC(C2C(CC(C(O2)(C(=O)C(=O)N3CCCCC3C(=O)OC(C(C(CC(=O)C(C=C(C1)C)CC=C)O)C)C(=CC4CCC(C(C4)OC)O)C)O)C)OC)OC
InChI: InChI=1S/C44H69NO12/c1-10-13-31-19-25(2)18-26(3)20-37(54-8)40-38(55-9)22-28(5)44(52,57-40)41(49)42(50)45-17-12-11-14-32(45)43(51)56-39(29(6)34(47)24-35(31)48)27(4)21-30-15-16-33(46)36(23-30)53-7/h10,19,21,26,28-34,36-40,46-47,52H,1,11-18,20,22-24H2,2-9H3/b25-19-,27-21+/t26-,28+,29+,30-,31+,32-,33+,34-,36+,37-,38-,39+,40+,44+/m0/s1
Instrument: Q Exactive Plus Orbitrap Thermo Scientific
Instrument type: LC-ESI-QFT
Ms type: MS2
Ion mode: POSITIVE
Ionization: ESI
Fragmentation mode: HCD
Collision energy: 15 (nominal)
Resolution: 35000
Column name: XBridge C18 3.5um, 2.1x50mm, Waters
Retention time: 15.3 min
Base peak: 279.159
Precursor m/z: 804.4893
Precursor type: [M+H]+
m/z	relative intensity	assigned
84.0808	17	C5H10N+
85.0644	2	C5H9O+
111.0805	5	C7H11O+
128.0707	3	C6H10NO2+
130.0864	19	C6H12NO2+
145.1008	1	C11H13+
161.1323	2	C12H17+
171.1168	11	C13H15+
173.132	2	C13H17+
175.1478	1	C13H19+
181.1227	3	C11H17O2+
185.1323	2	C14H17+
187.1481	5	C14H19+
189.1273	6	C13H17O+
199.1478	2	C15H19+
203.1433	7	C14H19O+
207.1164	2	C16H15+
207.1382	4	C13H19O2+
209.1321	1	C16H17+
213.1269	2	C15H17O+
215.1428	1	C15H19O+
217.1584	2	C15H21O+
219.1747	4	C15H23O+
220.0972	2	C12H14NO3+
221.1538	18	C14H21O2+
234.1127	18	C13H16NO3+
247.1478	2	C19H19+
249.1639	23	C19H21+
254.1025	8	C12H16NO5+
255.1739	1	C18H23O+
263.1639	2	C16H23O3+
265.1584	3	C19H21O+
266.1024	20	C13H16NO5+
267.1746	8	C19H23O+
280.118	2	C14H18NO5+
281.1899	2	C20H25O+
283.1691	2	C19H23O2+
289.195	4	C22H25+
291.2107	3	C22H27+
292.118	1	C15H18NO5+
293.1531	3	C20H21O2+
299.2009	5	C20H27O2+
303.2105	1	C23H27+
304.1179	2	C16H18NO5+
306.1334	1	C16H20NO5+
307.2066	1	C22H27O+
310.1288	1	C15H20NO6+
311.1641	2	C20H23O3+
317.2114	4	C20H29O3+
321.2216	1	C23H29O+
322.1287	1	C16H20NO6+
331.2421	1	C25H31+
332.1493	2	C18H22NO5+
346.1652	1	C19H24NO5+
349.2532	2	C25H33O+
362.1591	1	C19H24NO6+
386.1973	3	C22H28NO5+
394.2378	2	C25H32NO3+
407.2953	1	C28H39O2+
413.2665	91	C24H35N3O3+
414.27	93	C18H40NO9+
422.2325	11	C26H32NO4+
440.2435	23	C26H34NO5+
450.227	2	C27H32NO5+
458.2906	3	C27H40NO5+
465.2497	1	C25H37O8+
466.2603	4	C28H36NO5+
468.2387	2	C27H34NO6+
472.2694	5	C27H38NO6+
476.2992	1	C24H44O9+
479.2943	2	C34H39O2+
482.2543	3	C28H36NO6+
484.2701	4	C28H38NO6+
486.2856	15	C28H40NO6+
488.3006	1	C28H42NO6+
494.2537	2	C29H36NO6+
498.2864	2	C29H40NO6+
500.2649	17	C28H38NO7+
502.3151	4	C29H44NO6+
504.296	21	C28H42NO7+
512.2647	3	C29H38NO7+
512.3013	2	C30H42NO6+
514.2803	9	C29H40NO7+
514.3171	2	C30H44NO6+
516.297	6	C29H42NO7+
526.2807	3	C30H40NO7+
530.3116	24	C30H44NO7+
532.2909	98	C29H42NO8+
544.291	4	C30H42NO8+
548.3223	82	C30H46NO8+
558.3067	59	C31H44NO8+
561.3574	1	C36H49O5+
576.3173	175	C31H46NO9+
658.4117	5	C41H56NO6+
672.4323	11	C35H62NO11+
700.4215	63	C43H58NO7+
706.4673	2	C43H64NO7+
718.4322	225	
736.4429	101	C43H62NO9+
750.4582	130	
768.4691	999	C44H66NO10+
786.4794	114	
