Mass spectrum: Atrazine-2-hydroxy; LC-ESI-ITFT; MS2; CE: 75%; R=15000; [M+H]+
Name: Atrazine-2-hydroxy
Name: 2-Hydroxyatrazine
Name: 2-(ethylamino)-6-(isopropylamino)-1H-s-triazin-4-one
Formula: C8H15N5O
Exact mass: 197.1277
SMILES: c1(nc(nc(n1)O)NCC)NC(C)C
InChI: InChI=1S/C8H15N5O/c1-4-9-6-11-7(10-5(2)3)13-8(14)12-6/h5H,4H2,1-3H3,(H3,9,10,11,12,13,14)
Instrument: LTQ Orbitrap XL Thermo Scientific
Instrument type: LC-ESI-ITFT
Ms type: MS2
Ion mode: POSITIVE
Ionization: ESI
Fragmentation mode: HCD
Collision energy: 75 % (nominal)
Resolution: 15000
Column name: XBridge C18 3.5um, 2.1x50mm, Waters
Retention time: 4.4 min
Base peak: 198.1353
Precursor m/z: 198.1349
Precursor type: [M+H]+
m/z	relative intensity	assigned
68.0244	17	C2H2N3+
69.0084	565	C2HN2O+
71.0605	61	C3H7N2+
85.0509	33	C2H5N4+
86.035	841	C2H4N3O+
96.0557	23	C4H6N3+
97.0397	285	C4H5N2O+
110.0464	2	C3H4N5+
111.0305	2	C3H3N4O+
113.0823	51	C4H9N4+
114.0663	973	C4H8N3O+
128.0568	103	C3H6N5O+
128.0819	41	C5H10N3O+
138.0775	16	C5H8N5+
139.0615	11	C5H7N4O+
156.0881	999	C5H10N5O+
198.1349	61	C8H16N5O+
