Mass spectrum: Efavirenz; LC-ESI-QFT; MS2; CE: 45; R=35000; [M-H]-
Name: Efavirenz
Name: (4S)-6-chloro-4-(2-cyclopropylethynyl)-4-(trifluoromethyl)-1H-3,1-benzoxazin-2-one
Formula: C14H9ClF3NO2
Exact mass: 315.02739
SMILES: C1CC1C#C[C@]2(C3=C(C=CC(=C3)Cl)NC(=O)O2)C(F)(F)F
InChI: InChI=1S/C14H9ClF3NO2/c15-9-3-4-11-10(7-9)13(14(16,17)18,21-12(20)19-11)6-5-8-1-2-8/h3-4,7-8H,1-2H2,(H,19,20)/t13-/m0/s1
Instrument: Q Exactive Orbitrap Thermo Scientific
Instrument type: LC-ESI-QFT
Ms type: MS2
Ion mode: NEGATIVE
Ionization: ESI
Fragmentation mode: HCD
Collision energy: 45 (nominal)
Resolution: 35000
Column name: XBridge C18 3.5um, 2.1x50mm, Waters
Retention time: 12.9 min
Base peak: 314.0206
Precursor m/z: 314.0201
Precursor type: [M-H]-
m/z	relative intensity	assigned
65.0397	16	C5H5-
68.9958	999	CF3-
90.035	6	C6H4N-
91.019	2	C6H3O-
108.0256	1	C6H3FN-
111.0062	1	C3H2F3O-
116.0142	3	C7H2NO-
120.9907	2	C4F3O-
123.9959	1	C6H3ClN-
126.0116	2	C6H5ClN-
147.9959	2	C8H3ClN-
151.9909	22	C7H3ClNO-
152.0506	3	C11H6N-
161.0221	7	C7H4F3O-
164.0507	5	C12H6N-
166.03	1	C11H4NO-
170.061	3	C11H8NO-
174.0346	3	C13H4N-
178.0066	1	C9H5ClNO-
180.0454	8	C12H6NO-
188.9985	1	C13HO2-
190.0067	1	C10H5ClNO-
190.0299	1	C13H4NO-
194.0412	4	C13H5FN-
198.0117	5	C12H5ClN-
198.0561	3	C12H8NO2-
200.0274	34	C12H7ClN-
201.0111	1	C12H6ClO-
202.0067	21	C11H5ClNO-
203.9857	4	C10H3ClNO2-
206.0224	6	C11H3F3N-
208.0406	27	C13H6NO2-
210.0118	12	C13H5ClN-
210.0358	1	C13H5FNO-
214.0471	1	C13H6F2N-
215.0146	8	C12H6ClNO-
216.0223	36	C12H7ClNO-
218.0012	5	C11H5ClNO2-
221.9929	39	C11H3ClF2N-
226.0066	19	C13H5ClNO-
230.0178	5	C13H6ClFN-
241.9991	74	C11H4ClF3N-
243.0093	4	C13H6ClNO2-
244.0171	97	C13H7ClNO2-
245.9937	2	C10H4ClF3NO-
246.0127	11	C13H6ClFNO-
247.9733	9	C9H2ClF3NO2-
249.0163	2	C13H6ClF2N-
250.0241	29	C13H7ClF2N-
254.0016	4	C14H5ClNO2-
296.0095	3	C14H6ClF3NO-
