Mass spectrum: Sulfamethoxazole; LC-ESI-ITFT; MS2; CE: 15%; R=7500; [M+H]+
Name: Sulfamethoxazole
Name: 4-Amino-N-(5-methyl-3-isoxazolyl)benzenesulfonamide
Name: 4-amino-N-(5-methyl-1,2-oxazol-3-yl)benzenesulfonamide
Formula: C10H11N3O3S
Exact mass: 253.0521
SMILES: c1(S(Nc2cc(C)on2)(=O)=O)ccc(N)cc1
InChI: InChI=1S/C10H11N3O3S/c1-7-6-10(12-16-7)13-17(14,15)9-4-2-8(11)3-5-9/h2-6H,11H2,1H3,(H,12,13)
Instrument: LTQ Orbitrap XL Thermo Scientific
Instrument type: LC-ESI-ITFT
Ms type: MS2
Ion mode: POSITIVE
Ionization: ESI
Fragmentation mode: HCD
Collision energy: 15 % (nominal)
Resolution: 7500
Column name: XBridge C18 3.5um, 2.1x50mm, Waters
Retention time: 4.6 min
Base peak: 254.0603
Precursor m/z: 254.0594
Precursor type: [M+H]+
m/z	relative intensity	assigned
92.0492	4	C6H6N+
93.0573	2	C6H7N+
94.0652	1	C6H8N+
99.0552	2	C4H7N2O+
108.0441	8	C6H6NO+
147.0791	8	C8H9N3+
148.0871	3	C8H10N3+
156.0112	35	C6H6NO2S+
160.0875	5	C9H10N3+
188.082	12	C10H10N3O+
190.0978	13	C10H12N3O+
194.038	4	C8H8N3OS+
236.0491	4	C10H10N3O2S+
254.0597	999	C10H12N3O3S+
