Mass spectrum: Neburon; LC-ESI-QFT; MS2; CE: 60%; R=17500; [M-H]-
Name: Neburon
Name: 1-butyl-3-(3,4-dichlorophenyl)-1-methylurea
Formula: C12H16Cl2N2O
Exact mass: 274.0640
SMILES: CCCCN(C)C(=O)NC1=CC(=C(C=C1)Cl)Cl
InChI: InChI=1S/C12H16Cl2N2O/c1-3-4-7-16(2)12(17)15-9-5-6-10(13)11(14)8-9/h5-6,8H,3-4,7H2,1-2H3,(H,15,17)
Instrument: Exploris 240 Orbitrap Thermo Scientific
Instrument type: LC-ESI-QFT
Ms type: MS2
Ion mode: NEGATIVE
Ionization: ESI
Fragmentation mode: HCD
Collision energy: 60 % (nominal)
Resolution: 17500
Column name: XBridge C18 3.5um, 2.1x50mm, Waters
Retention time: 10.685 min
Base peak: 273.0567
Precursor m/z: 273.0567
Precursor type: [M-H]-
m/z	relative intensity	assigned
121.98	4	C6HClN-
123.9961	9	C6H3ClN-
149.9752	185	C7HClNO-
159.9726	999	C6H4Cl2N-
185.9518	360	C7H2Cl2NO-
273.0573	24	C12H15Cl2N2O-
