Mass spectrum: Losartan; LC-ESI-QFT; MS2; CE: 60; R=35000; [M+H]+
Name: Losartan
Name: [2-butyl-5-chloranyl-3-[[4-[2-(2H-1,2,3,4-tetrazol-5-yl)phenyl]phenyl]methyl]imidazol-4-yl]methanol
Formula: C22H23ClN6O
Exact mass: 421.15436
SMILES: Clc1nc(n(c1CO)Cc4ccc(c2ccccc2c3[nH]nnn3)cc4)CCCC
InChI: InChI=1S/C22H23ClN6O/c1-2-3-8-20-24-21(23)19(14-30)29(20)13-15-9-11-16(12-10-15)17-6-4-5-7-18(17)22-25-27-28-26-22/h4-7,9-12,30H,2-3,8,13-14H2,1H3,(H,25,26,27,28)
Instrument: Q Exactive Plus Orbitrap Thermo Scientific
Instrument type: LC-ESI-QFT
Ms type: MS2
Ion mode: POSITIVE
Ionization: ESI
Fragmentation mode: HCD
Collision energy: 60 (nominal)
Resolution: 35000
Column name: XBridge C18 3.5um, 2.1x50mm, Waters
Retention time: 8.9 min
Base peak: 423.1691
Precursor m/z: 423.1695
Precursor type: [M+H]+
m/z	relative intensity	assigned
53.0385	9	C4H5+
54.0337	2	C3H4N+
55.0542	11	C4H7+
57.0698	3	C4H9+
60.9839	1	C2H2Cl+
67.0416	3	C4H5N+
67.0542	5	C5H7+
77.0384	13	C6H5+
79.0542	42	C6H7+
80.0494	62	C5H6N+
81.0697	6	C6H9+
83.0855	6	C6H11+
84.0807	3	C5H10N+
87.9947	5	C3H3ClN+
91.0542	2	C7H7+
93.0573	1	C6H7N+
95.0491	26	C6H7O+
96.0443	2	C5H6NO+
102.0105	14	C4H5ClN+
104.0494	6	C7H6N+
105.0447	15	C6H5N2+
107.0605	1	C6H7N2+
108.0807	23	C7H10N+
115.0057	4	C4H4ClN2+
115.0542	4	C9H7+
116.0494	2	C8H6N+
117.0574	4	C8H7N+
122.0601	4	C7H8NO+
128.0494	2	C9H6N+
129.0213	28	C5H6ClN2+
129.0446	30	C8H5N2+
130.0399	2	C7H4N3+
135.0916	30	C8H11N2+
139.0541	5	C11H7+
140.0494	32	C10H6N+
141.0698	2	C11H9+
142.0292	137	C6H7ClN2+
144.0575	13	C7H11ClN+
145.0645	1	C10H9O+
151.0541	17	C12H7+
151.0868	3	C8H11N2O+
152.062	108	C12H8+
153.0698	178	C12H9+
154.0651	10	C11H8N+
155.0604	5	C10H7N2+
155.0851	4	C12H11+
163.0541	32	C13H7+
164.0495	3	C12H6N+
164.0621	1	C13H8+
165.0699	108	C13H9+
166.0652	18	C12H8N+
166.0776	20	C13H10+
167.0729	57	C12H9N+
168.057	2	C12H8O+
168.0682	8	C11H8N2+
169.0647	46	C12H9O+
170.0599	1	C11H8NO+
171.0683	146	C8H12ClN2+
177.0573	18	C13H7N+
178.0651	99	C13H8N+
178.0773	42	C14H10+
179.061	29	C12H7N2+
179.0729	190	C13H9N+
180.0807	999	C13H10N+
181.0759	16	C12H9N2+
181.0885	3	C13H11N+
182.0599	8	C12H8NO+
183.0675	5	C12H9NO+
189.0573	4	C14H7N+
190.0651	315	C14H8N+
191.0608	4	C13H7N2+
191.0728	37	C14H9N+
192.0681	281	C13H8N2+
192.0807	166	C14H10N+
194.0599	59	C13H8NO+
195.0919	4	C13H11N2+
196.0756	130	C13H10NO+
204.0557	2	C13H6N3+
204.0673	1	C14H8N2+
204.0808	4	C15H10N+
205.0761	567	C14H9N2+
206.0838	710	C14H10N2+
207.0916	705	C14H11N2+
208.0756	63	C14H10NO+
211.0626	7	C10H12ClN2O+
214.065	58	C16H8N+
215.0604	6	C15H7N2+
215.0729	3	C16H9N+
216.0807	26	C16H10N+
217.077	2	C14H14Cl+
217.0884	4	C16H11N+
218.0838	6	C15H10N2+
218.095	1	C10H17ClNO2+
219.0917	7	C15H11N2+
229.0756	3	C16H9N2+
231.0916	14	C16H11N2+
232.0991	4	C16H12N2+
233.1071	2	C16H13N2+
239.0601	1	C17H7N2+
240.0678	4	C17H8N2+
241.076	54	C17H9N2+
242.0838	20	C17H10N2+
243.08	1	C16H9N3+
243.0916	19	C17H11N2+
244.0994	3	C17H12N2+
252.0572	2	C19H8O+
254.0606	7	C15H11ClN2+
256.0868	2	C17H10N3+
257.0948	5	C17H11N3+
258.1025	28	C17H12N3+
259.0865	30	C17H11N2O+
267.0795	1	C18H9N3+
280.0866	6	C19H10N3+
281.0948	28	C19H11N3+
282.1025	6	C19H12N3+
294.1025	3	C20H12N3+
295.063	1	C17H12ClN2O+
295.1104	1	C20H13N3+
297.1134	4	C19H13N4+
298.1216	7	C19H14N4+
299.1282	1	C19H15N4+
311.1295	2	C20H15N4+
324.1501	1	C22H18N3+
