Mass spectrum: Alachlor; LC-ESI-ITFT; MS2; CE: 60%; R=15000; [M+H]+
Name: Alachlor
Name: 2-chloranyl-N-(2,6-diethylphenyl)-N-(methoxymethyl)ethanamide
Formula: C14H20ClNO2
Exact mass: 269.1177
SMILES: CCC1=CC=CC(CC)=C1N(COC)C(=O)CCl
InChI: InChI=1S/C14H20ClNO2/c1-4-11-7-6-8-12(5-2)14(11)16(10-18-3)13(17)9-15/h6-8H,4-5,9-10H2,1-3H3
Instrument: LTQ Orbitrap XL Thermo Scientific
Instrument type: LC-ESI-ITFT
Ms type: MS2
Ion mode: POSITIVE
Ionization: ESI
Fragmentation mode: HCD
Collision energy: 60 % (nominal)
Resolution: 15000
Column name: XBridge C18 3.5um, 2.1x50mm, Waters
Retention time: 11.7 min
Base peak: 292.1079
Precursor m/z: 270.1255
Precursor type: [M+H]+
m/z	relative intensity	assigned
76.979	13	C2H2ClO+
90.0105	90	C3H5ClN+
105.0697	17	C8H9+
118.0654	16	C8H8N+
119.085	14	C9H11+
120.0808	13	C8H10N+
132.0806	48	C9H10N+
133.0888	20	C9H11N+
134.0963	53	C9H12N+
144.0809	35	C10H10N+
145.1012	20	C11H13+
146.0965	85	C10H12N+
147.1042	368	C10H13N+
148.1121	30	C10H14N+
160.1128	14	C11H14N+
161.1197	38	C11H15N+
162.1278	999	C11H16N+
163.1117	210	C11H15O+
170.0959	15	C12H12N+
172.1119	30	C12H14N+
184.1126	24	C13H14N+
206.0733	57	C12H13ClN+
220.0884	40	C13H15ClN+
238.0992	52	C13H17ClNO+
