Mass spectrum: Ethaboxam; LC-ESI-QFT; MS2; CE: 60%; R=17500; [M-H]-
Name: Ethaboxam
Name: N-[cyano(thiophen-2-yl)methyl]-4-ethyl-2-(ethylamino)-1,3-thiazole-5-carboxamide
Formula: C14H16N4OS2
Exact mass: 320.0766
SMILES: CCC1=C(SC(=N1)NCC)C(=O)NC(C#N)C2=CC=CS2
InChI: InChI=1S/C14H16N4OS2/c1-3-9-12(21-14(18-9)16-4-2)13(19)17-10(8-15)11-6-5-7-20-11/h5-7,10H,3-4H2,1-2H3,(H,16,18)(H,17,19)
Instrument: Exploris 240 Orbitrap Thermo Scientific
Instrument type: LC-ESI-QFT
Ms type: MS2
Ion mode: NEGATIVE
Ionization: ESI
Fragmentation mode: HCD
Collision energy: 60 % (nominal)
Resolution: 17500
Column name: XBridge C18 3.5um, 2.1x50mm, Waters
Retention time: 6.045 min
Base peak: 319.0691
Precursor m/z: 319.0693
Precursor type: [M-H]-
m/z	relative intensity	assigned
69.0459	951	C3H5N2-
82.996	999	C4H3S-
84.0039	235	C4H4S-
110.0072	314	C5H4NS-
126.0252	781	C5H6N2S-
151.0212	384	C6H5N3S-
155.0648	284	C7H11N2S-
