Mass spectrum: Aminopyrine; LC-ESI-ITFT; MS2; CE: 35%; R=30000; [M+H]+
Name: Aminopyrine
Name: 4-(dimethylamino)-1,5-dimethyl-2-phenyl-3-pyrazolin-3-one
Formula: C13H17N3O
Exact mass: 231.1372
SMILES: c(ccc1N(N(C=2C)C)C(=O)C2N(C)C)cc1
InChI: InChI=1S/C13H17N3O/c1-10-12(14(2)3)13(17)16(15(10)4)11-8-6-5-7-9-11/h5-9H,1-4H3
Instrument: LTQ Orbitrap XL Thermo Scientific
Instrument type: LC-ESI-ITFT
Ms type: MS2
Ion mode: POSITIVE
Ionization: ESI
Fragmentation mode: CID
Collision energy: 35 % (nominal)
Resolution: 30000
Column name: XBridge C18 3.5um, 2.1x50mm, Waters
Retention time: 2.6 min
Base peak: 232.1453
Precursor m/z: 232.1444
Precursor type: [M+H]+
m/z	relative intensity	assigned
56.0495	6	C3H6N+
70.0652	60	C4H8N+
72.0809	28	C4H10N+
82.0652	7	C5H8N+
84.0809	22	C5H10N+
87.0918	23	C4H11N2+
97.0761	110	C5H9N2+
98.084	162	C5H10N2+
99.0918	26	C5H11N2+
100.0996	7	C5H12N2+
106.0653	5	C7H8N+
111.0918	550	C6H11N2+
113.1075	999	C6H13N2+
118.0652	14	C8H8N+
127.0867	7	C6H11N2O+
139.0867	126	C7H11N2O+
144.0806	2	C10H10N+
146.0602	64	C9H8NO+
147.0917	23	C9H11N2+
149.1075	110	C9H13N2+
159.0918	147	C10H11N2+
161.1075	10	C10H13N2+
173.0266	2	C13H3N+
175.0868	72	C10H11N2O+
177.1024	26	C10H13N2O+
187.0869	548	C11H11N2O+
188.0945	102	C11H12N2O+
189.1024	17	C11H13N2O+
201.1024	11	C12H13N2O+
204.1497	42	C12H18N3+
217.1212	21	C12H15N3O+
