Mass spectrum: Asulam-TP Sulfanilamide; LC-ESI-QFT; MS2; CE: 120%; R=17500; [M+H]+
Name: Asulam-TP Sulfanilamide
Name: Sulfanilamide
Name: 4-aminobenzenesulfonamide
Formula: C6H8N2O2S
Exact mass: 172.0306
SMILES: C1=C(C=CC(=C1)S(=O)(=O)N)N
InChI: InChI=1S/C6H8N2O2S/c7-5-1-3-6(4-2-5)11(8,9)10/h1-4H,7H2,(H2,8,9,10)
Instrument: Q Exactive Plus Orbitrap Thermo Scientific
Instrument type: LC-ESI-QFT
Ms type: MS2
Ion mode: POSITIVE
Ionization: ESI
Fragmentation mode: HCD
Collision energy: 120 % (nominal)
Resolution: 17500
Column name: XBridge C18 3.5um, 2.1x50mm, Waters
Retention time: 1.130 min
Base peak: 156.0115
Precursor m/z: 173.0379
Precursor type: [M+H]+
m/z	relative intensity	assigned
50.0151	96	C4H2+
51.0229	14	C4H3+
53.0022	16	C3HO+
53.0386	35	C4H5+
54.0339	9	C3H4N+
54.9375	10	
55.0178	4	C3H3O+
55.9453	36	
63.023	12	C5H3+
65.0386	999	C5H5+
66.0338	9	
66.0464	486	C5H6+
67.0416	22	C4H5N+
74.015	45	C6H2+
75.0229	224	C6H3+
76.0307	470	C6H4+
78.034	9	C5H4N+
79.0177	7	C5H3O+
80.0495	192	C5H6N+
81.0334	21	C5H5O+
91.018	13	C6H3O+
92.0495	189	C6H6N+
93.0574	723	C6H7N+
94.0412	23	C6H6O+
95.0489	4	C6H7O+
96.0444	5	C5H6NO+
108.0445	28	C6H6NO+
110.0601	7	C6H8NO+
125.0472	198	C6H7NO2+
