Mass spectrum: Penconazole; LC-ESI-QFT; MS2; CE: 180; R=35000; [M+H]+
Name: Penconazole
Name: 1-[2-(2,4-dichlorophenyl)pentyl]-1,2,4-triazole
Formula: C13H15Cl2N3
Exact mass: 283.06430
SMILES: Clc1ccc(c(Cl)c1)C(CCC)Cn2ncnc2
InChI: InChI=1S/C13H15Cl2N3/c1-2-3-10(7-18-9-16-8-17-18)12-5-4-11(14)6-13(12)15/h4-6,8-10H,2-3,7H2,1H3
Instrument: Q Exactive Plus Orbitrap Thermo Scientific
Instrument type: LC-ESI-QFT
Ms type: MS2
Ion mode: POSITIVE
Ionization: ESI
Fragmentation mode: HCD
Collision energy: 180 (nominal)
Resolution: 35000
Column name: XBridge C18 3.5um, 2.1x50mm, Waters
Retention time: 12.7 min
Base peak: 284.0713
Precursor m/z: 284.0716
Precursor type: [M+H]+
m/z	relative intensity	assigned
50.0151	17	C4H2+
51.0229	10	C4H3+
53.0022	9	C3HO+
61.0073	32	C5H+
62.0151	186	C5H2+
63.0229	436	C5H3+
64.0307	4	C5H4+
65.0386	1	C5H5+
66.0464	1	C5H6+
70.04	357	C2H4N3+
71.9761	2	C3HCl+
72.9839	646	C3H2Cl+
74.015	63	C6H2+
75.0229	160	C6H3+
76.0307	44	C6H4+
77.0385	5	C6H5+
79.0178	6	C5H3O+
81.0335	1	C5H5O+
82.9449	68	CHCl2+
83.9762	1	C4HCl+
84.9839	4	C4H2Cl+
86.015	13	C7H2+
87.0229	30	C7H3+
88.0307	71	C7H4+
89.0385	999	C7H5+
96.984	144	C5H2Cl+
98.9996	110	C5H4Cl+
101.0386	4	C8H5+
102.0464	65	C8H6+
103.0543	5	C8H7+
105.0447	7	C6H5N2+
106.9449	17	C3HCl2+
108.9605	2	C3H3Cl2+
115.0541	1	C9H7+
119.0491	1	C5H10ClN+
120.0206	8	C4H7ClNO+
122.9996	92	C7H4Cl+
124.0074	12	C7H5Cl+
128.0619	1	C10H8+
129.0446	3	C8H5N2+
132.9606	34	C5H3Cl2+
158.9761	4	C7H5Cl2+
