Mass spectrum: Doxycycline; LC-ESI-QFT; MS2; CE: 150; R=35000; [M-H]-
Name: Doxycycline
Name: 8-carbamoyl-10-(dimethylazaniumyl)-4,6a,7,11-tetrahydroxy-12-methyl-6,9-dioxo-10a,11,11a,12-tetrahydro-10H-tetracen-5-olate
Formula: C22H24N2O8
Exact mass: 444.15327
SMILES: CC1C2C(C3C(C(=O)C(=C(C3(C(=O)C2=C(C4=C1C=CC=C4O)O)O)O)C(=O)N)N(C)C)O
InChI: InChI=1S/C22H24N2O8/c1-7-8-5-4-6-9(25)11(8)16(26)12-10(7)17(27)14-15(24(2)3)18(28)13(21(23)31)20(30)22(14,32)19(12)29/h4-7,10,14-15,17,25-27,30,32H,1-3H3,(H2,23,31)
Instrument: Q Exactive Plus Orbitrap Thermo Scientific
Instrument type: LC-ESI-QFT
Ms type: MS2
Ion mode: NEGATIVE
Ionization: ESI
Fragmentation mode: HCD
Collision energy: 150 (nominal)
Resolution: 35000
Column name: XBridge C18 3.5um, 2.1x50mm, Waters
Retention time: 6.3 min
Base peak: 443.1457
Precursor m/z: 443.146
Precursor type: [M-H]-
m/z	relative intensity	assigned
50.0036	118	C3N-
51.024	15	C4H3-
53.0032	47	C3HO-
55.0189	29	C3H3O-
63.024	78	C5H3-
64.0192	38	C4H2N-
65.0033	201	C4HO-
65.0397	58	C5H5-
65.9986	999	C3NO-
67.019	58	C4H3O-
68.0142	51	C3H2NO-
68.9982	359	C3HO2-
76.0195	7	C5H2N-
79.019	33	C5H3O-
81.022	8	C4H3NO-
84.0091	31	C3H2NO2-
89.0397	67	C7H5-
90.0349	12	C6H4N-
91.019	14	C6H3O-
91.0554	41	C7H7-
93.0345	54	C6H5O-
95.0138	191	C5H3O2-
96.0091	81	C4H2NO2-
101.0394	10	C8H5-
102.0473	6	C8H6-
108.0217	32	C6H4O2-
109.0295	29	C6H5O2-
113.0397	13	C9H5-
115.0555	32	C9H7-
117.0345	103	C8H5O-
119.0503	63	C8H7O-
120.0091	44	C6H2NO2-
121.0294	8	C7H5O2-
123.0087	44	C6H3O3-
130.0424	164	C9H6O-
131.0503	29	C9H7O-
137.0396	92	C11H5-
138.0477	27	C11H6-
139.0554	48	C11H7-
141.0345	45	C10H5O-
143.0503	154	C10H7O-
144.0588	7	C10H8O-
145.0295	8	C9H5O2-
145.0656	9	C10H9O-
147.0199	6	C7H3N2O2-
147.0453	29	C9H7O2-
148.004	15	C7H2NO3-
154.0424	139	C11H6O-
155.0505	95	C11H7O-
157.066	8	C11H9O-
158.0373	111	C10H6O2-
159.0452	94	C10H7O2-
161.0249	11	C9H5O3-
165.0344	119	C12H5O-
167.0503	150	C12H7O-
169.0294	6	C11H5O2-
169.0657	27	C12H9O-
171.0452	45	C11H7O2-
173.0607	9	C11H9O2-
180.0581	24	C13H8O-
181.0655	12	C13H9O-
182.0372	234	C12H6O2-
183.0451	419	C12H7O2-
187.0397	27	C11H7O3-
191.0503	10	C14H7O-
193.0294	9	C13H5O2-
195.0451	38	C13H7O2-
196.0531	32	C13H8O2-
197.0607	11	C13H9O2-
204.058	11	C15H8O-
207.0451	8	C14H7O2-
208.0527	11	C14H8O2-
209.0609	16	C14H9O2-
210.0322	44	C13H6O3-
211.0402	633	C13H7O3-
220.0533	8	C15H8O2-
224.048	8	C14H8O3-
225.0559	6	C14H9O3-
239.034	13	C14H7O4-
