Mass spectrum: 2-Aminosulfonyl-benzoic acid methyl ester; LC-ESI-ITFT; MS2; CE: 90%; R=7500; [M+H]+
Name: 2-Aminosulfonyl-benzoic acid methyl ester
Name: Methyl 2-(aminosulfonyl)benzoate
Name: 2-sulfamoylbenzoic acid methyl ester
Formula: C8H9NO4S
Exact mass: 215.0252
SMILES: COC(C1=C(S(=O)(N)=O)C=CC=C1)=O
InChI: InChI=1S/C8H9NO4S/c1-13-8(10)6-4-2-3-5-7(6)14(9,11)12/h2-5H,1H3,(H2,9,11,12)
Instrument: LTQ Orbitrap XL Thermo Scientific
Instrument type: LC-ESI-ITFT
Ms type: MS2
Ion mode: POSITIVE
Ionization: ESI
Fragmentation mode: HCD
Collision energy: 90 % (nominal)
Resolution: 7500
Column name: XBridge C18 3.5um, 2.1x50mm, Waters
Retention time: 4.5 min
Base peak: 199.0063
Precursor m/z: 216.0325
Precursor type: [M+H]+
m/z	relative intensity	assigned
53.0385	206	C4H5+
65.0386	77	C5H5+
77.0385	802	C6H5+
78.0339	72	C5H4N+
79.0541	61	C6H7+
92.0256	713	C6H4O+
92.0493	114	C6H6N+
95.049	97	C6H7O+
102.0336	139	C7H4N+
105.0333	46	C7H5O+
105.0446	422	C6H5N2+
120.0203	92	C7H4O2+
120.0442	82	C7H6NO+
130.0398	999	C7H4N3+
135.0438	164	C8H7O2+
