Mass spectrum: Pyridate; LC-ESI-QFT; MS2; CE: 45; R=35000; [M+H]+
Name: Pyridate
Name: Pyridat
Name: (6-chloro-3-phenylpyridazin-4-yl) octylsulfanylformate
Formula: C19H23ClN2O2S
Exact mass: 378.11688
SMILES: O=C(SCCCCCCCC)Oc2cc(Cl)nnc2c1ccccc1
InChI: InChI=1S/C19H23ClN2O2S/c1-2-3-4-5-6-10-13-25-19(23)24-16-14-17(20)21-22-18(16)15-11-8-7-9-12-15/h7-9,11-12,14H,2-6,10,13H2,1H3
Instrument: Q Exactive Plus Orbitrap Thermo Scientific
Instrument type: LC-ESI-QFT
Ms type: MS2
Ion mode: POSITIVE
Ionization: ESI
Fragmentation mode: HCD
Collision energy: 45 (nominal)
Resolution: 35000
Column name: XBridge C18 3.5um, 2.1x50mm, Waters
Retention time: 18.1 min
Base peak: 379.1241
Precursor m/z: 379.1242
Precursor type: [M+H]+
m/z	relative intensity	assigned
53.0022	2	C3HO+
53.0386	1	C4H5+
55.0543	4	C4H7+
57.0699	105	C4H9+
67.9893	1	C3O2+
68.013	9	C3H2NO+
69.0699	30	C5H9+
71.0855	80	C5H11+
77.0386	3	C6H5+
95.0492	2	C6H7O+
103.9898	5	C3H3ClNO+
104.0495	53	C7H6N+
105.0447	1	C6H5N2+
161.0152	2	C10H6Cl+
179.0371	8	C9H8ClN2+
207.0321	999	C10H8ClN2O+
