Mass spectrum: Cortisone; LC-ESI-QFT; MS2; CE: 45; R=35000; [M-H]-
Name: Cortisone
Name: 17,21-Dihydroxypregn-4-ene-3,11,20-trione
Name: (8S,9S,10R,13S,14S,17R)-17-hydroxy-17-(2-hydroxyacetyl)-10,13-dimethyl-1,2,6,7,8,9,12,14,15,16-decahydrocyclopenta[a]phenanthrene-3,11-dione
Formula: C21H28O5
Exact mass: 360.19367
SMILES: O=C(CO)[C@@]3(O)CC[C@H]2[C@@H]4CC\C1=C\C(=O)CC[C@]1(C)[C@H]4C(=O)C[C@@]23C
InChI: InChI=1S/C21H28O5/c1-19-7-5-13(23)9-12(19)3-4-14-15-6-8-21(26,17(25)11-22)20(15,2)10-16(24)18(14)19/h9,14-15,18,22,26H,3-8,10-11H2,1-2H3/t14-,15-,18+,19-,20-,21-/m0/s1
Instrument: Q Exactive Plus Orbitrap Thermo Scientific
Instrument type: LC-ESI-QFT
Ms type: MS2
Ion mode: NEGATIVE
Ionization: ESI
Fragmentation mode: HCD
Collision energy: 45 (nominal)
Resolution: 35000
Column name: XBridge C18 3.5um, 2.1x50mm, Waters
Retention time: 7.4 min
Base peak: 405.1915
Precursor m/z: 359.1864
Precursor type: [M-H]-
m/z	relative intensity	assigned
57.0346	59	C3H5O-
59.0138	3	C2H3O2-
69.0346	1	C4H5O-
71.0139	1	C3H3O2-
73.0296	1	C3H5O2-
79.0553	2	C6H7-
81.0345	7	C5H5O-
83.0503	3	C5H7O-
85.0294	3	C4H5O2-
93.0345	1	C6H5O-
95.0137	1	C5H3O2-
95.0502	8	C6H7O-
96.0216	1	C5H4O2-
97.0658	8	C6H9O-
99.0451	5	C5H7O2-
107.0502	17	C7H7O-
107.0866	3	C8H11-
109.0658	173	C7H9O-
111.0451	4	C6H7O2-
111.0815	1	C7H11O-
119.0503	3	C8H7O-
121.0658	8	C8H9O-
121.1023	1	C9H13-
122.0373	26	C7H6O2-
123.0452	80	C7H7O2-
123.0816	95	C8H11O-
124.0166	1	C6H4O3-
125.0607	87	C7H9O2-
133.0661	1	C9H9O-
135.0452	18	C8H7O2-
135.0816	51	C9H11O-
136.0529	89	C8H8O2-
137.0607	999	C8H9O2-
138.0321	12	C7H6O3-
139.0395	1	C7H7O3-
145.066	1	C10H9O-
147.0816	11	C10H11O-
148.0527	2	C9H8O2-
149.0607	96	C9H9O2-
150.0322	7	C8H6O3-
151.04	40	C8H7O3-
151.0764	7	C9H11O2-
154.0271	1	C7H6O4-
159.0813	1	C11H11O-
161.0971	25	C11H13O-
162.0686	6	C10H10O2-
163.0764	30	C10H11O2-
165.0191	1	C8H5O4-
165.0919	8	C10H13O2-
167.0349	9	C8H7O4-
168.0427	6	C8H8O4-
173.0606	1	C11H9O2-
173.0972	1	C12H13O-
175.0763	7	C11H11O2-
175.1126	17	C12H15O-
176.084	7	C11H12O2-
177.0921	5	C11H13O2-
179.1077	21	C11H15O2-
187.0764	3	C12H11O2-
187.1127	1	C13H15O-
189.0919	2	C12H13O2-
191.0713	1	C11H11O3-
191.1077	5	C12H15O2-
193.087	1	C11H13O3-
193.1234	1	C12H17O2-
203.1077	19	C13H15O2-
205.1232	8	C13H17O2-
217.0868	1	C13H13O3-
229.1232	1	C15H17O2-
233.1182	5	C14H17O3-
239.1442	1	C17H19O-
241.1236	1	C16H17O2-
242.1313	1	C16H18O2-
243.1388	4	C16H19O2-
253.1232	2	C17H17O2-
255.1392	1	C17H19O2-
257.1546	64	C17H21O2-
259.1337	53	C16H19O3-
259.1697	3	C17H23O2-
269.1546	5	C18H21O2-
271.1339	66	C17H19O3-
283.1347	2	C18H19O3-
283.1702	15	C19H23O2-
284.1417	17	C18H20O3-
285.1492	3	C18H21O3-
285.1864	1	C19H25O2-
286.1573	4	C18H22O3-
287.1658	1	C18H23O3-
296.1415	2	C19H20O3-
299.1652	7	C19H23O3-
301.1808	31	C19H25O3-
311.1654	296	C20H23O3-
312.1365	4	C19H20O4-
323.1656	1	C21H23O3-
325.1447	1	C20H21O4-
326.1522	39	C20H22O4-
329.1758	580	C20H25O4-
341.1757	9	C21H25O4-
