Mass spectrum: Flusilazole; LC-ESI-ITFT; MS2; CE: 60%; R=15000; [M+H]+
Name: Flusilazole
Name: bis(4-fluorophenyl)-methyl-(1,2,4-triazol-1-ylmethyl)silane
Formula: C16H15F2N3Si
Exact mass: 315.0998
SMILES: n1(cncn1)C[Si](c1ccc(F)cc1)(C)c1ccc(cc1)F
InChI: InChI=1S/C16H15F2N3Si/c1-22(12-21-11-19-10-20-21,15-6-2-13(17)3-7-15)16-8-4-14(18)5-9-16/h2-11H,12H2,1H3
Instrument: LTQ Orbitrap XL Thermo Scientific
Instrument type: LC-ESI-ITFT
Ms type: MS2
Ion mode: POSITIVE
Ionization: ESI
Fragmentation mode: HCD
Collision energy: 60 % (nominal)
Resolution: 15000
Column name: XBridge C18 3.5um, 2.1x50mm, Waters
Retention time: 12.4 min
Base peak: 316.1073
Precursor m/z: 316.1076
Precursor type: [M+H]+
m/z	relative intensity	assigned
53.0385	10	C4H5+
61.0103	12	CH5OSi+
63.006	3	CH4FSi+
64.9853	11	FH2OSi+
77.0386	213	C6H5+
79.0009	55	CH4FOSi+
79.0542	26	C6H7+
80.9966	18	CH3F2Si+
91.0542	42	C7H7+
95.049	19	CH6FN3O+
99.0072	10	CH5F2OSi+
103.0542	24	C8H7+
105.0446	56	C6H5N2+
105.0698	81	C8H9+
109.0447	38	C2H5F2N3+
115.0542	12	C9H7+
123.0056	3	CH3F2N3Si+
125.0217	28	C6H6FSi+
128.0622	11	C10H8+
129.0697	3	C5H8FN3+
131.0604	3	C8H7N2+
139.054	4	C6H6FN3+
141.0165	65	CH5F2N3OSi+
141.0697	34	C6H8FN3+
143.012	4	C6H5F2Si+
149.0214	8	C3H5F2N3Si+
149.042	6	C8H9OSi+
151.0373	75	C8H8FSi+
152.062	59	C12H8+
153.0698	81	C12H9+
155.0602	6	C10H7N2+
155.0856	8	C12H11+
157.0279	65	C7H7F2Si+
159.0268	4	C9H7OSi+
159.0605	10	C11H8F+
164.062	8	C13H8+
165.0699	999	C13H9+
166.0776	92	C8H9FN3+
167.0322	16	C8H8FOSi+
168.0568	5	C7H7FN3O+
169.0478	125	C3H9F2N3OSi+
170.0518	6	C7H6F2N3+
171.0435	72	C8H9F2Si+
175.022	4	C10H3F2N+
175.0389	4	C7H9F2OSi+
178.0777	25	C14H10+
179.0855	26	C14H11+
181.076	11	C12H9N2+
183.0603	65	C8H7F2N3+
184.0685	10	C13H9F+
185.076	187	C8H9F2N3+
193.0763	4	C13H9N2+
199.0378	19	C12H8FSi+
203.0667	3	C13H9F2+
217.0271	5	C12H7F2Si+
217.0478	36	C15H9Si+
219.0434	166	C12H9F2Si+
227.0687	31	C14H12FSi+
231.0428	8	C13H9F2Si+
232.051	8	C13H10F2Si+
235.0386	10	C12H9F2OSi+
237.054	25	C15H10FSi+
245.0587	4	C14H11F2Si+
245.0791	13	C12H12FN3Si+
247.0749	18	C14H13F2Si+
249.054	6	C16H10FSi+
