Mass spectrum: Midazolam; LC-ESI-QFT; MS2; CE: 90; R=35000; [M+H]+
Name: Midazolam
Name: 8-chloranyl-6-(2-fluorophenyl)-1-methyl-4H-imidazo[1,5-a][1,4]benzodiazepine
Formula: C18H13ClFN3
Exact mass: 325.07820
SMILES: CC1=NC=C2N1C3=C(C=C(C=C3)Cl)C(=NC2)C4=CC=CC=C4F
InChI: InChI=1S/C18H13ClFN3/c1-11-21-9-13-10-22-18(14-4-2-3-5-16(14)20)15-8-12(19)6-7-17(15)23(11)13/h2-9H,10H2,1H3
Instrument: Q Exactive Orbitrap Thermo Scientific
Instrument type: LC-ESI-QFT
Ms type: MS2
Ion mode: POSITIVE
Ionization: ESI
Fragmentation mode: HCD
Collision energy: 90 (nominal)
Resolution: 35000
Column name: XBridge C18 3.5um, 2.1x50mm, Waters
Retention time: 6.5 min
Base peak: 326.086
Precursor m/z: 326.0855
Precursor type: [M+H]+
m/z	relative intensity	assigned
54.034	12	C3H4N+
55.0418	11	C3H5N+
68.0496	12	C4H6N+
75.023	41	
91.0541	22	C7H7+
95.0492	12	
95.0605	43	C5H7N2+
102.0465	213	C8H6+
105.0574	11	C7H7N+
108.0556	2	C5H6N3+
109.0448	16	C7H6F+
113.0398	30	C3H9ClFN+
115.0543	29	C9H7+
119.0492	38	
120.037	22	
121.0449	52	C8H6F+
122.04	30	C7H5FN+
122.9996	12	
123.0353	27	C6H4FN2+
127.0417	50	C9H5N+
128.0496	182	C9H6N+
129.0103	21	
129.0448	46	
129.0573	270	C9H7N+
133.0448	4	C9H6F+
133.0523	58	C5H10ClN2+
134.0401	12	
136.0078	4	C8H5Cl+
137.0154	78	C8H6Cl+
138.0106	5	C7H5ClN+
139.0057	25	C6H4ClN2+
140.0496	14	C10H6N+
142.0654	16	C10H8N+
143.0731	11	C10H9N+
144.0448	14	C6H9ClN2+
146.0401	41	C9H5FN+
146.0602	46	C6H11ClN2+
147.048	46	C9H6FN+
148.0558	30	C9H7FN+
151.0427	6	C5H9ClFN2+
152.0261	42	C8H7ClN+
153.0449	30	C10H5N2+
154.0054	10	
154.0399	12	
154.0527	13	C10H6N2+
155.0603	44	C10H7N2+
158.0529	12	
160.0558	6	C10H7FN+
161.0472	14	
162.0106	95	C9H5ClN+
162.0348	5	C6H8ClFN2+
163.0058	101	C8H4ClN2+
163.0183	59	C9H6ClN+
163.0543	11	
164.0011	34	C7H3ClN3+
164.0261	49	C9H7ClN+
164.0508	10	
164.0622	16	
165.0698	5	C13H9+
168.0573	11	C9H11ClN+
168.068	22	C11H8N2+
169.0761	27	C11H9N2+
170.0525	12	
170.0839	36	C11H10N2+
171.0552	12	C7H10ClN3+
173.0509	23	C10H6FN2+
174.059	14	C10H7FN2+
176.0266	5	C10H7ClN+
176.0623	11	
177.0214	26	C9H6ClN2+
177.0574	45	C13H7N+
178.0057	17	C9H5ClNO+
178.042	14	C10H9ClN+
179.0379	7	C9H8ClN2+
180.0212	40	C9H7ClNO+
180.057	29	C10H11ClN+
181.0167	15	C8H6ClN2O+
181.0446	23	C13H6F+
182.0528	96	C13H7F+
183.0606	341	C13H8F+
184.0686	38	C13H9F+
185.0711	5	C8H12ClN3+
186.0477	115	C9H10ClFN+
187.0669	5	C11H8FN2+
189.0215	186	C10H6ClN2+
190.0653	15	
193.0651	18	
194.0526	5	C14H7F+
195.0793	6	C12H9N3+
196.0684	184	C14H9F+
196.0872	19	C12H10N3+
198.0718	15	C13H9FN+
200.0631	28	C10H12ClFN+
201.0575	49	C15H7N+
202.0651	71	C15H8N+
203.0373	16	C11H8ClN2+
203.0729	139	C15H9N+
204.0809	35	C15H10N+
205.0531	5	C11H10ClN2+
208.0558	316	C14H7FN+
209.0637	632	C14H8FN+
210.0715	42	C14H9FN+
211.0791	3	C14H10FN+
214.0427	11	
214.0774	4	C12H9FN3+
215.0859	23	C17H11+
217.0216	112	C13H7ClF+
220.076	59	C12H13ClN2+
221.0633	45	C15H8FN+
222.0715	893	C15H9FN+
223.0793	428	C15H10FN+
224.0263	33	C14H7ClN+
224.0871	29	C15H11FN+
226.0665	60	C11H12ClFN2+
227.0742	39	C11H13ClFN2+
228.0679	23	C16H8N2+
229.0763	152	C16H9N2+
230.0487	11	C12H9ClN3+
230.0834	30	C16H10N2+
231.0557	15	C12H10ClN3+
231.0918	23	C16H11N2+
232.0319	5	C13H8ClFN+
232.0558	30	C16H7FN+
233.0638	28	C16H8FN+
234.0718	15	C16H9FN+
235.0791	19	C16H10FN+
236.0746	22	C15H9FN2+
236.0874	22	C16H11FN+
237.0833	9	C15H10FN2+
237.0951	33	C16H12FN+
238.0423	21	C15H9ClN+
238.0666	17	C12H12ClFN2+
240.0823	16	C12H14ClFN2+
241.0215	18	C15H7ClF+
242.017	18	C14H6ClFN+
242.084	32	C17H10N2+
243.025	11	
243.0919	63	C17H11N2+
244.0326	30	C14H8ClFN+
245.0406	24	C14H9ClFN+
246.0719	11	C17H9FN+
247.0663	15	C16H8FN2+
248.0749	5	C16H9FN2+
248.087	5	C17H11FN+
249.0824	999	C16H10FN2+
250.0902	122	C16H11FN2+
251.0974	7	C16H12FN2+
253.0763	54	C18H9N2+
255.0691	192	C15H12ClN2+
256.0322	22	C15H8ClFN+
256.0869	14	C17H10N3+
257.0279	46	C14H7ClFN2+
257.0405	29	C15H9ClFN+
258.0482	127	C15H10ClFN+
259.0436	4	C14H9ClFN2+
260.0273	2	C17H7ClN+
261.0826	16	C17H10FN2+
262.0906	10	C17H11FN2+
263.0985	31	C17H12FN2+
265.0529	50	C16H10ClN2+
268.0322	16	C16H8ClFN+
269.0399	4	C16H9ClFN+
270.0353	3	C15H8ClFN2+
270.1027	50	C18H12N3+
271.0429	6	C15H9ClFN2+
271.1102	5	C18H13N3+
273.0825	40	C18H10FN2+
274.0901	3	C18H11FN2+
275.0853	4	C17H10FN3+
276.0933	37	C17H11FN3+
282.0474	3	C17H10ClFN+
283.0435	83	C16H9ClFN2+
284.0515	43	C16H10ClFN2+
285.0589	23	C16H11ClFN2+
288.0935	15	C18H11FN3+
289.0298	19	C18H8ClNO+
289.0528	208	C18H10ClN2+
290.1087	48	C18H13FN3+
291.1168	141	C18H14FN3+
297.0596	11	C17H11ClFN2+
304.0641	6	C18H11ClN3+
307.0434	80	C18H9ClFN2+
309.0598	27	C18H11ClFN2+
310.0536	5	C17H10ClFN3+
311.0622	3	C17H11ClFN3+
325.0777	6	C18H13ClFN3+
