Mass spectrum: Methomyl; LC-ESI-ITFT; MS2; CE: 45%; R=15000; [M+H]+
Name: Methomyl
Name: (1E)-N-(methylcarbamoyloxy)ethanimidothioic acid methyl ester
Formula: C5H10N2O2S
Exact mass: 162.0463
SMILES: C/C(=N\OC(=O)NC)SC
InChI: InChI=1S/C5H10N2O2S/c1-4(10-3)7-9-5(8)6-2/h1-3H3,(H,6,8)/b7-4+
Instrument: LTQ Orbitrap XL Thermo Scientific
Instrument type: LC-ESI-ITFT
Ms type: MS2
Ion mode: POSITIVE
Ionization: ESI
Fragmentation mode: HCD
Collision energy: 45 % (nominal)
Resolution: 15000
Column name: XBridge C18 3.5um, 2.1x50mm, Waters
Retention time: 3.6 min
Base peak: 163.0536
Precursor m/z: 163.0536
Precursor type: [M+H]+
m/z	relative intensity	assigned
55.0541	1	C4H7+
56.0495	19	C3H6N+
57.0698	3	C4H9+
58.0287	53	C2H4NO+
61.0106	14	C2H5S+
65.0056	24	CH5OS+
71.9903	1	C2H2NS+
72.998	32	C2H3NS+
88.0215	999	C3H6NS+
89.0595	3	C4H9O2+
106.0321	645	C3H8NOS+
