Mass spectrum: Bisoprolol; LC-ESI-QFT; MS2; CE: 15; R=35000; [M+H]+
Name: Bisoprolol
Name: 1-(propan-2-ylamino)-3-[4-(2-propan-2-yloxyethoxymethyl)phenoxy]-2-propanol
Formula: C18H31NO4
Exact mass: 325.22531
SMILES: O(c1ccc(cc1)COCCOC(C)C)CC(O)CNC(C)C
InChI: InChI=1S/C18H31NO4/c1-14(2)19-11-17(20)13-23-18-7-5-16(6-8-18)12-21-9-10-22-15(3)4/h5-8,14-15,17,19-20H,9-13H2,1-4H3
Instrument: Q Exactive Orbitrap Thermo Scientific
Instrument type: LC-ESI-QFT
Ms type: MS2
Ion mode: POSITIVE
Ionization: ESI
Fragmentation mode: HCD
Collision energy: 15 (nominal)
Resolution: 35000
Column name: XBridge C18 3.5um, 2.1x50mm, Waters
Retention time: 6.1 min
Base peak: 326.2328
Precursor m/z: 326.2326
Precursor type: [M+H]+
m/z	relative intensity	assigned
72.0806	2	C4H10N+
74.0598	4	C3H8NO+
98.0964	1	C6H12N+
116.1069	144	C6H14NO+
204.1382	1	C13H18NO+
222.1489	18	C13H20NO2+
308.221	1	C18H30NO3+
326.2326	999	C18H32NO4+
