Mass spectrum: Exemestane; LC-ESI-ITFT; MS2; CE: 15%; R=15000; [M+H]+
Name: Exemestane
Name: (8R,9S,10R,13S,14S)-10,13-dimethyl-6-methylene-7,8,9,11,12,14,15,16-octahydrocyclopenta[a]phenanthrene-3,17-dione
Formula: C20H24O2
Exact mass: 296.1776
SMILES: CC12CCC3C(C1CCC2=O)CC(=C)C4=CC(=O)C=CC34C
InChI: InChI=1S/C20H24O2/c1-12-10-14-15-4-5-18(22)20(15,3)9-7-16(14)19(2)8-6-13(21)11-17(12)19/h6,8,11,14-16H,1,4-5,7,9-10H2,2-3H3/t14-,15-,16-,19+,20-/m0/s1
Instrument: LTQ Orbitrap XL Thermo Scientific
Instrument type: LC-ESI-ITFT
Ms type: MS2
Ion mode: POSITIVE
Ionization: ESI
Fragmentation mode: HCD
Collision energy: 15 % (nominal)
Resolution: 15000
Column name: XBridge C18 3.5um, 2.1x50mm, Waters
Retention time: 10.1 min
Base peak: 297.1859
Precursor m/z: 297.1849
Precursor type: [M+H]+
m/z	relative intensity	assigned
93.0698	3	C7H9+
105.0699	2	C8H9+
121.0646	5	C8H9O+
121.101	11	C9H13+
131.0855	4	C10H11+
135.0802	5	C9H11O+
145.1009	5	C11H13+
149.0959	30	C10H13O+
163.1116	5	C11H15O+
185.0955	2	C13H13O+
189.1272	3	C13H17O+
239.1422	2	C17H19O+
279.174	71	C20H23O+
297.185	999	C20H25O2+
