Mass spectrum: Atazanavir; LC-ESI-QFT; MS2; CE: 15; R=35000; [M+H]+
Name: Atazanavir
Name: N-[(1S)-1-[[(1S,2S)-1-benzyl-3-[[[(2S)-2-(carbomethoxyamino)-3,3-dimethyl-butanoyl]amino]-[4-(2-pyridyl)benzyl]amino]-2-hydroxy-propyl]carbamoyl]-2,2-dimethyl-propyl]carbamic acid methyl ester
Formula: C38H52N6O7
Exact mass: 704.38975
SMILES: CC(C)(C)C(C(=O)NC(CC1=CC=CC=C1)C(CN(CC2=CC=C(C=C2)C3=CC=CC=N3)NC(=O)C(C(C)(C)C)NC(=O)OC)O)NC(=O)OC
InChI: InChI=1S/C38H52N6O7/c1-37(2,3)31(41-35(48)50-7)33(46)40-29(22-25-14-10-9-11-15-25)30(45)24-44(43-34(47)32(38(4,5)6)42-36(49)51-8)23-26-17-19-27(20-18-26)28-16-12-13-21-39-28/h9-21,29-32,45H,22-24H2,1-8H3,(H,40,46)(H,41,48)(H,42,49)(H,43,47)/t29-,30-,31+,32+/m0/s1
Instrument: Q Exactive Orbitrap Thermo Scientific
Instrument type: LC-ESI-QFT
Ms type: MS2
Ion mode: POSITIVE
Ionization: ESI
Fragmentation mode: HCD
Collision energy: 15 (nominal)
Resolution: 35000
Column name: XBridge C18 3.5um, 2.1x50mm, Waters
Retention time: 11.6 min
Base peak: 705.3972
Precursor m/z: 705.397
Precursor type: [M+H]+
m/z	relative intensity	assigned
144.1021	1	C7H14NO2+
168.0807	20	C12H10N+
311.1759	2	C19H23N2O2+
335.1966	108	C18H27N2O4+
371.2089	3	C22H29NO4+
424.2382	1	C28H30N3O+
499.271	4	C30H35N4O3+
534.3078	56	C30H40N5O4+
612.3539	20	
687.3866	36	C38H51N6O6+
705.3971	999	C38H53N6O7+
