Mass spectrum: Norclozapine; LC-ESI-QFT; MS2; CE: 120; R=35000; [M+H]+
Name: Norclozapine
Name: 3-chloro-6-piperazin-1-yl-5H-benzo[b][1,4]benzodiazepine
Formula: C17H17ClN4
Exact mass: 312.11417
SMILES: C1CN(CCN1)C2=NC3=C(C=CC(=C3)Cl)NC4=CC=CC=C42
InChI: InChI=1S/C17H17ClN4/c18-12-5-6-15-16(11-12)21-17(22-9-7-19-8-10-22)13-3-1-2-4-14(13)20-15/h1-6,11,19-20H,7-10H2
Instrument: Q Exactive Plus Orbitrap Thermo Scientific
Instrument type: LC-ESI-QFT
Ms type: MS2
Ion mode: POSITIVE
Ionization: ESI
Fragmentation mode: HCD
Collision energy: 120 (nominal)
Resolution: 35000
Column name: XBridge C18 3.5um, 2.1x50mm, Waters
Retention time: 5.9 min
Base peak: 313.1204
Precursor m/z: 313.1215
Precursor type: [M+H]+
m/z	relative intensity	assigned
53.0385	2	C4H5+
55.0415	1	C3H5N+
56.0494	8	C3H6N+
62.0148	3	C5H2+
63.0228	33	C5H3+
64.0181	22	C4H2N+
65.0385	11	C5H5+
66.0463	4	C5H6+
68.0494	3	C4H6N+
70.065	16	C4H8N+
71.0603	10	C3H7N2+
72.9839	38	C3H2Cl+
73.9791	2	C2HClN+
75.0227	2	C6H3+
77.0384	2	C6H5+
81.0334	1	C5H5O+
88.018	5	C6H2N+
88.0307	2	C7H4+
89.0384	7	C7H5+
90.0338	58	C6H4N+
90.0463	9	C7H6+
91.0416	1	C6H5N+
92.0494	2	C6H6N+
95.049	3	C6H7O+
96.9839	13	C5H2Cl+
97.979	5	C4HClN+
98.9995	30	C5H4Cl+
104.0493	2	C7H6N+
105.0446	2	C6H5N2+
113.0384	4	C9H5+
114.0337	3	C8H4N+
114.0463	53	C9H6+
115.0413	4	C8H5N+
115.0541	3	C9H7+
116.0493	2	C8H6N+
117.0572	7	C8H7N+
118.0413	3	C5H9ClN+
123.9948	66	C6H3ClN+
126.0463	1	C10H6+
127.0182	2	C6H6ClN+
128.0494	8	C9H6N+
128.0619	6	C10H8+
129.0446	2	C8H5N2+
129.057	1	C9H7N+
130.0399	3	C7H4N3+
131.0491	1	C6H10ClN+
132.0569	9	C6H11ClN+
137.0385	24	C11H5+
138.0344	9	C10H4N+
138.0463	159	C11H6+
139.0417	6	C10H5N+
139.0541	26	C11H7+
140.0493	48	C10H6N+
141.0335	2	C7H8ClN+
141.0451	1	C9H5N2+
141.0572	9	C10H7N+
142.0053	1	C6H5ClNO+
142.0414	8	C7H9ClN+
142.0524	6	C9H6N2+
146.0598	2	C6H11ClN2+
149.0151	1	C9H6Cl+
152.0495	3	C11H6N+
152.062	2	C12H8+
153.0446	4	C10H5N2+
154.0649	2	C11H8N+
155.049	10	C8H10ClN+
156.0568	27	C8H11ClN+
157.052	6	C7H10ClN2+
159.0554	1	C6H10ClN3+
163.0414	5	C12H5N+
164.0493	880	C12H6N+
165.0454	66	C11H5N2+
165.0571	373	C12H7N+
166.0525	22	C11H6N2+
166.0649	32	C12H8N+
167.0603	2	C11H7N2+
167.0726	6	C12H9N+
168.0682	1	C11H8N2+
169.052	23	C8H10ClN2+
170.036	8	C6H7ClN4+
170.0601	2	C8H11ClN2+
173.015	13	C11H6Cl+
174.0104	12	C10H5ClN+
177.0569	4	C13H7N+
178.065	8	C13H8N+
179.0603	7	C12H7N2+
179.0724	5	C13H9N+
180.0678	4	C12H8N2+
180.0806	3	C13H10N+
181.0757	3	C12H9N2+
182.0602	2	C9H11ClN2+
183.056	9	C8H10ClN3+
183.0677	101	C9H12ClN2+
189.0445	6	C13H5N2+
190.0524	12	C13H6N2+
190.0649	8	C14H8N+
191.0602	622	C13H7N2+
192.068	999	C13H8N2+
193.0758	9	C13H9N2+
194.0835	2	C13H10N2+
199.018	2	C12H6ClN+
200.026	12	C12H7ClN+
201.021	1	C11H6ClN2+
201.0339	5	C12H8ClN+
204.0685	2	C14H8N2+
205.0757	11	C14H9N2+
206.0838	5	C14H10N2+
207.0786	1	C13H9N3+
207.0913	4	C14H11N2+
208.0631	3	C10H11ClN3+
209.0709	15	C10H12ClN3+
213.0339	3	C13H8ClN+
215.0369	4	C12H8ClN2+
216.0676	5	C15H8N2+
217.0758	11	C15H9N2+
218.0718	1	C14H8N3+
218.0836	16	C15H10N2+
219.0789	3	C14H9N3+
220.0867	3	C14H10N3+
223.0865	2	C11H14ClN3+
225.0207	2	C13H6ClN2+
226.029	61	C13H7ClN2+
227.0368	2	C13H8ClN2+
228.0444	2	C13H9ClN2+
232.0872	3	C15H10N3+
233.0946	3	C15H11N3+
239.0366	4	C14H8ClN2+
240.0448	2	C14H9ClN2+
244.0868	1	C16H10N3+
252.0446	2	C15H9ClN2+
253.0523	2	C15H10ClN2+
254.0477	3	C14H9ClN3+
