Mass spectrum: Amisulpride N-Oxide; LC-ESI-QFT; MS2; CE: 45; R=35000; [M+H]+
Name: Amisulpride N-Oxide
Name: 4-amino-N-[(1-ethyl-1-oxidopyrrolidin-1-ium-2-yl)methyl]-5-ethylsulfonyl-2-methoxybenzamide
Formula: C17H27N3O5S
Exact mass: 385.16714
SMILES: CC[N+]1(CCCC1CNC(=O)C2=CC(=C(C=C2OC)N)S(=O)(=O)CC)[O-]
InChI: InChI=1S/C17H27N3O5S/c1-4-20(22)8-6-7-12(20)11-19-17(21)13-9-16(26(23,24)5-2)14(18)10-15(13)25-3/h9-10,12H,4-8,11,18H2,1-3H3,(H,19,21)
Instrument: Q Exactive Plus Orbitrap Thermo Scientific
Instrument type: LC-ESI-QFT
Ms type: MS2
Ion mode: POSITIVE
Ionization: ESI
Fragmentation mode: HCD
Collision energy: 45 (nominal)
Resolution: 35000
Column name: XBridge C18 3.5um, 2.1x50mm, Waters
Retention time: 4.2 min
Base peak: 386.1742
Precursor m/z: 386.1744
Precursor type: [M+H]+
m/z	relative intensity	assigned
58.0651	2	C3H8N+
67.0542	2	C5H7+
74.06	10	C3H8NO+
82.065	1	C5H8N+
84.0808	11	C5H10N+
85.0648	1	C5H9O+
98.0964	34	C6H12N+
110.0964	9	C7H12N+
111.1043	1	C7H13N+
127.123	4	C7H15N2+
128.107	7	C7H14NO+
149.0466	7	H11N3O4S+
168.0114	1	C7H6NO2S+
196.0064	58	C14N2+
214.0169	38	C8H8NO4S+
242.0481	999	C10H12NO4S+
259.075	2	C10H15N2O4S+
325.1222	2	C15H21N2O4S+
368.1648	1	C17H26N3O4S+
386.1742	1	C17H28N3O5S+
