Mass spectrum: TCMTB (Busan); LC-ESI-QFT; MS2; CE: 150%; R=17500; [M+H]+
Name: TCMTB (Busan)
Name: 2-(Thiocyanomethylthio)benzothiazole
Name: 1,3-benzothiazol-2-ylsulfanylmethyl thiocyanate
Formula: C9H6N2S3
Exact mass: 237.9693
SMILES: C1=CC=C2C(=C1)N=C(S2)SCSC#N
InChI: InChI=1S/C9H6N2S3/c10-5-12-6-13-9-11-7-3-1-2-4-8(7)14-9/h1-4H,6H2
Instrument: Exploris 240 Orbitrap Thermo Scientific
Instrument type: LC-ESI-QFT
Ms type: MS2
Ion mode: POSITIVE
Ionization: ESI
Fragmentation mode: HCD
Collision energy: 150 % (nominal)
Resolution: 17500
Column name: XBridge C18 3.5um, 2.1x50mm, Waters
Retention time: 8.597 min
Base peak: 238.9763
Precursor m/z: 238.9766
Precursor type: [M+H]+
m/z	relative intensity	assigned
50.0152	25	C4H2+
51.0229	324	C4H3+
53.0386	47	C4H5+
63.0228	94	C5H3+
63.9436	26	S2+
64.0308	27	C5H4+
65.0385	999	C5H5+
68.9793	183	C3HS+
71.9902	115	C2H2NS+
77.0385	390	C6H5+
78.0465	53	C6H6+
89.0386	169	C7H5+
90.0338	37	C6H4N+
91.0417	35	C6H5N+
94.9951	25	C5H3S+
96.0028	88	C5H4S+
103.0418	24	C7H5N+
105.0446	102	C6H5N2+
108.0028	98	C6H4S+
109.0106	772	C6H5S+
116.0497	20	C8H6N+
121.0107	86	C7H5S+
123.0138	47	C6H5NS+
136.0217	146	C7H6NS+
