Mass spectrum: Triclopyr; LC-ESI-ITFT; MS2; CE: 90%; R=30000; [M+H]+
Name: Triclopyr
Name: 2-(3,5,6-trichloropyridin-2-yl)oxyacetic acid
Formula: C7H4Cl3NO3
Exact mass: 254.9257
SMILES: ClC1=C(OCC(O)=O)N=C(Cl)C(Cl)=C1
InChI: InChI=1S/C7H4Cl3NO3/c8-3-1-4(9)7(11-6(3)10)14-2-5(12)13/h1H,2H2,(H,12,13)
Instrument: LTQ Orbitrap XL Thermo Scientific
Instrument type: LC-ESI-ITFT
Ms type: MS2
Ion mode: POSITIVE
Ionization: ESI
Fragmentation mode: HCD
Collision energy: 90 % (nominal)
Resolution: 30000
Column name: XBridge C18 3.5um, 2.1x50mm, Waters
Retention time: 10.3 min
Base peak: 255.9336
Precursor m/z: 255.933
Precursor type: [M+H]+
m/z	relative intensity	assigned
61.9791	44	CHClN+
62.9632	65	CClO+
83.9761	12	C4HCl+
84.9839	42	C4H2Cl+
97.9793	17	C4HClN+
99.9945	15	C7O+
106.9449	397	C3HCl2+
108.9713	31	C5ClN+
109.9791	789	C5HClN+
118.9449	307	C4HCl2+
127.9896	111	C5H3ClNO+
133.9558	98	C4H2Cl2N+
143.9401	481	C5Cl2N+
145.9558	806	C5H2Cl2N+
146.9638	19	C5H3Cl2N+
152.9058	32	C4Cl3+
161.9507	259	C5H2Cl2NO+
163.9663	439	C5H4Cl2NO+
168.9246	12	C4H2Cl3N+
179.9168	999	C5HCl3N+
181.9322	33	C5H3Cl3N+
197.9273	351	C5H3Cl3NO+
