Mass spectrum: Doxepine; LC-ESI-QFT; MS2; CE: 180; R=35000; [M+H]+
Name: Doxepine
Name: Doxepin
Name: 3-(6H-benzo[c][1]benzoxepin-11-ylidene)-N,N-dimethylpropan-1-amine
Formula: C19H21NO
Exact mass: 279.16231
SMILES: CN(C)CCC=C1C2=CC=CC=C2COC3=CC=CC=C31
InChI: InChI=1S/C19H21NO/c1-20(2)13-7-11-17-16-9-4-3-8-15(16)14-21-19-12-6-5-10-18(17)19/h3-6,8-12H,7,13-14H2,1-2H3
Instrument: Q Exactive Plus Orbitrap Thermo Scientific
Instrument type: LC-ESI-QFT
Ms type: MS2
Ion mode: POSITIVE
Ionization: ESI
Fragmentation mode: HCD
Collision energy: 180 (nominal)
Resolution: 35000
Column name: XBridge C18 3.5um, 2.1x50mm, Waters
Retention time: 6.8 min
Base peak: 280.1689
Precursor m/z: 280.1696
Precursor type: [M+H]+
m/z	relative intensity	assigned
50.0151	277	C4H2+
51.023	284	C4H3+
52.0307	2	C4H4+
53.0022	39	C3HO+
53.0386	162	C4H5+
53.9974	7	C2NO+
54.0339	3	C3H4N+
55.0179	34	C3H3O+
56.0495	19	C3H6N+
58.0651	77	C3H8N+
61.0072	14	C5H+
62.0151	61	C5H2+
63.0229	313	C5H3+
65.0386	588	C5H5+
67.0416	2	C4H5N+
67.0542	2	C5H7+
67.9893	6	C3O2+
68.0495	34	C4H6N+
69.0574	1	C4H7N+
70.0651	10	C4H8N+
74.015	35	C6H2+
75.0229	62	C6H3+
76.0307	45	C6H4+
77.0385	295	C6H5+
78.0464	100	C6H6+
79.0542	21	C6H7+
81.0334	21	C5H5O+
84.0808	11	C5H10N+
86.0151	15	C7H2+
87.0229	46	C7H3+
88.0308	11	C7H4+
89.0386	360	C7H5+
90.0464	3	C7H6+
91.0542	295	C7H7+
94.0413	6	C6H6O+
95.0491	342	C6H7O+
98.0151	19	
99.0228	12	
101.0385	3	C8H5+
102.0464	190	C8H6+
103.0542	18	C8H7+
105.0447	226	C6H5N2+
107.0492	3	C7H7O+
113.0385	43	C9H5+
114.0464	16	C9H6+
115.0542	999	C9H7+
116.062	2	C9H8+
119.0491	2	C8H7O+
125.0385	21	C10H5+
126.0464	150	C10H6+
127.0542	50	C10H7+
128.062	216	C10H8+
129.0447	13	C8H5N2+
132.057	2	C9H8O+
137.0385	10	
138.0464	12	C11H6+
139.0542	395	C11H7+
140.062	10	C11H8+
141.0698	20	C11H9+
143.049	2	C10H7O+
145.065	15	C10H9O+
149.0385	14	
150.0464	259	C12H6+
151.0542	110	C12H7+
152.0621	363	C12H8+
155.0603	49	C10H7N2+
162.0462	19	C13H6+
163.0542	478	C13H7+
164.062	263	C13H8+
165.0699	561	C13H9+
167.0492	10	
168.057	101	C12H8O+
169.0648	232	C12H9O+
174.0465	57	C14H6+
175.0543	21	C14H7+
176.0621	330	C14H8+
177.0699	40	C14H9+
178.0776	35	C14H10+
179.0603	85	C12H7N2+
187.0542	142	C15H7+
188.062	90	C15H8+
189.0699	724	C15H9+
190.0777	7	C15H10+
191.086	1	C15H11+
192.057	33	C14H8O+
193.0649	23	C14H9O+
196.0519	32	C13H8O2+
198.0464	18	C16H6+
199.0543	36	C16H7+
200.062	351	C16H8+
201.0699	40	C16H9+
202.0777	62	C16H10+
203.0604	11	C14H7N2+
205.0646	14	C15H9O+
211.0541	15	C17H7+
213.0699	148	C17H9+
214.0778	2	C17H10+
215.0854	14	C17H11+
217.0648	12	C16H9O+
218.0726	3	C16H10O+
219.0804	9	C16H11O+
