Mass spectrum: Cycloxaprid; LC-ESI-QFT; MS2; CE: 15%; R=17500; [M+H]+
Name: Cycloxaprid
Name: 1-((6-chloropyridin-3-yl)methyl)-9-nitro-2,3,5,6,7,8-hexahydro-1H-5,8-epoxyimidazo[1,2-a]azepine
Name: 5-[(6-chloropyridin-3-yl)methyl]-7-nitro-11-oxa-2,5-diazatricyclo[6.2.1.02,6]undec-6-ene
Formula: C14H15ClN4O3
Exact mass: 322.0833
SMILES: C1CC2N3CCN(C3=C(C1O2)[N+](=O)[O-])CC4=CN=C(C=C4)Cl
InChI: InChI=1S/C14H15ClN4O3/c15-11-3-1-9(7-16-11)8-17-5-6-18-12-4-2-10(22-12)13(14(17)18)19(20)21/h1,3,7,10,12H,2,4-6,8H2
Instrument: Exploris 240 Orbitrap Thermo Scientific
Instrument type: LC-ESI-QFT
Ms type: MS2
Ion mode: POSITIVE
Ionization: ESI
Fragmentation mode: HCD
Collision energy: 15 % (nominal)
Resolution: 17500
Column name: XBridge C18 3.5um, 2.1x50mm, Waters
Retention time: 2.935 min
Base peak: 323.0906
Precursor m/z: 323.0905
Precursor type: [M+H]+
m/z	relative intensity	assigned
193.0401	6	C9H8ClN3+
277.0977	309	C14H16ClN3O+
293.0931	10	C14H16ClN3O2+
323.0905	999	C14H16ClN4O3+
