Mass spectrum: Picloram; LC-ESI-QFT; MS2; CE: 15%; R=15000; [M+H]+
Name: Picloram
Name: 4-amino-3,5,6-trichloropyridine-2-carboxylic acid
Formula: C6H3Cl3N2O2
Exact mass: 239.9260104
SMILES: C1(=C(C(=NC(=C1Cl)Cl)C(=O)O)Cl)N
InChI: InChI=1S/C6H3Cl3N2O2/c7-1-3(10)2(8)5(9)11-4(1)6(12)13/h(H2,10,11)(H,12,13)
Instrument: Exploris 240 Thermo Scientific
Instrument type: LC-ESI-QFT
Ms type: MS2
Ion mode: POSITIVE
Ionization: ESI
Fragmentation mode: HCD
Collision energy: 15 % (nominal)
Resolution: 15000
Column name: XBridge C18 3.5um, 2.1x50mm, Waters
Retention time: 3.468 min
Base peak: 240.9333
Precursor m/z: 240.9333
Precursor type: [M+H]+
m/z	relative intensity	assigned
222.9226	39	C6H2Cl3N2O+
240.9332	999	C6H4Cl3N2O2+
