Mass spectrum: Naltrexone; LC-ESI-ITFT; MS2; CE: 75%; R=7500; [M+H]+
Name: Naltrexone
Name: (5alpha)-17-(Cyclopropylmethyl)-3,14-dihydroxy-4,5-epoxymorphinan-6-one
Formula: C20H23NO4
Exact mass: 341.1627
SMILES: c12[C@]34[C@@]5([C@H]([N@](CC6CC6)CC4)Cc2ccc(c1O[C@H]3C(=O)CC5)O)O
InChI: InChI=1S/C20H23NO4/c22-13-4-3-12-9-15-20(24)6-5-14(23)18-19(20,16(12)17(13)25-18)7-8-21(15)10-11-1-2-11/h3-4,11,15,18,22,24H,1-2,5-10H2/t15-,18+,19+,20-/m1/s1
Instrument: LTQ Orbitrap XL Thermo Scientific
Instrument type: LC-ESI-ITFT
Ms type: MS2
Ion mode: POSITIVE
Ionization: ESI
Fragmentation mode: HCD
Collision energy: 75 % (nominal)
Resolution: 7500
Column name: XBridge C18 3.5um, 2.1x50mm, Waters
Retention time: 3.1 min
Base peak: 342.1712
Precursor m/z: 342.17
Precursor type: [M+H]+
m/z	relative intensity	assigned
55.0542	397	C4H7+
118.0648	27	C8H8N+
128.0621	23	C10H8+
129.0693	26	C10H9+
146.0601	43	C9H8NO+
147.0676	43	C9H9NO+
148.0754	48	C9H10NO+
153.0695	67	C12H9+
155.0862	27	C12H11+
160.075	43	C10H10NO+
161.0598	246	C10H9O2+
165.0697	48	C13H9+
167.0861	42	C13H11+
169.0652	35	C12H9O+
171.0801	31	C12H11O+
173.0597	100	C11H9O2+
179.0849	39	C14H11+
181.065	112	C13H9O+
182.0969	42	C13H12N+
183.081	35	C13H11O+
185.0598	102	C12H9O2+
195.0806	48	C14H11O+
197.0592	33	C13H9O2+
198.0667	40	C13H10O2+
199.0755	114	C13H11O2+
200.0709	44	C12H10NO2+
200.1073	67	C13H14NO+
210.091	70	C14H12NO+
212.0706	999	C13H10NO2+
213.0793	178	C13H11NO2+
214.0856	32	C13H12NO2+
225.0911	22	C15H13O2+
226.0863	271	C14H12NO2+
227.0701	59	C14H11O3+
227.0944	28	C14H13NO2+
228.1019	386	C14H14NO2+
238.1221	28	C16H16NO+
241.1107	26	C15H15NO2+
242.1173	46	C15H16NO2+
252.1016	92	C16H14NO2+
267.1253	573	C17H17NO2+
270.1128	229	C16H16NO3+
282.15	89	C18H20NO2+
