Mass spectrum: Spirotetramat BYI08330-enol; LC-ESI-QFT; MS2; CE: 120%; R=17500; [M+H]+
Name: Spirotetramat BYI08330-enol
Name: Cis-3-(2,5-dimethylphenyl)-4-hydroxy-8-methoxy-1-azaspiro(4.5)dec-3-en-2-one
Name: 3-(2,5-dimethylphenyl)-4-hydroxy-8-methoxy-1-azaspiro[4.5]dec-3-en-2-one
Formula: C18H23NO3
Exact mass: 301.1678
SMILES: CC1=CC(=C(C=C1)C)C2=C(C3(CCC(CC3)OC)NC2=O)O
InChI: InChI=1S/C18H23NO3/c1-11-4-5-12(2)14(10-11)15-16(20)18(19-17(15)21)8-6-13(22-3)7-9-18/h4-5,10,13,20H,6-9H2,1-3H3,(H,19,21)
Instrument: Exploris 240 Orbitrap Thermo Scientific
Instrument type: LC-ESI-QFT
Ms type: MS2
Ion mode: POSITIVE
Ionization: ESI
Fragmentation mode: HCD
Collision energy: 120 % (nominal)
Resolution: 17500
Column name: XBridge C18 3.5um, 2.1x50mm, Waters
Retention time: 6.514 min
Base peak: 302.1748
Precursor m/z: 302.1751
Precursor type: [M+H]+
m/z	relative intensity	assigned
53.0386	66	C4H5+
54.034	29	C3H4N+
55.018	52	C3H3O+
55.0544	33	C4H7+
65.0388	83	C5H5+
67.0542	80	C5H7+
77.0385	99	C6H5+
79.0542	203	C6H7+
91.0542	999	C7H7+
95.0493	58	C6H7O+
103.0541	129	C8H7+
104.0623	70	C8H8+
105.0699	527	C8H9+
115.0542	947	C9H7+
116.0619	98	C9H8+
117.0699	489	C9H9+
119.0854	373	C9H11+
128.0621	546	C10H8+
129.0699	476	C10H9+
130.0651	104	C9H8N+
130.0779	412	C10H10+
132.0569	40	C9H8O+
141.07	101	C11H9+
142.0777	53	C11H10+
143.0853	149	C11H11+
144.0808	167	C10H10N+
145.0647	29	C10H9O+
145.0885	149	C10H11N+
145.1015	84	C11H13+
152.0624	67	C12H8+
153.0701	111	C12H9+
155.0861	77	C12H11+
157.0652	55	C11H9O+
157.0888	28	C11H11N+
158.0728	79	C11H10O+
165.0702	58	C13H9+
167.086	65	C13H11+
178.0778	50	C14H10+
