Mass spectrum: Oxazepam; LC-ESI-ITFT; MS2; CE: 60%; R=15000; [M+H]+
Name: Oxazepam
Name: 7-chloranyl-3-oxidanyl-5-phenyl-1,3-dihydro-1,4-benzodiazepin-2-one
Formula: C15H11ClN2O2
Exact mass: 286.0509
SMILES: C1=CC=C(C=C1)C2=NC(C(=O)NC3=C2C=C(C=C3)Cl)O
InChI: InChI=1S/C15H11ClN2O2/c16-10-6-7-12-11(8-10)13(9-4-2-1-3-5-9)18-15(20)14(19)17-12/h1-8,15,20H,(H,17,19)
Instrument: LTQ Orbitrap XL Thermo Scientific
Instrument type: LC-ESI-ITFT
Ms type: MS2
Ion mode: POSITIVE
Ionization: ESI
Fragmentation mode: HCD
Collision energy: 60 % (nominal)
Resolution: 15000
Column name: XBridge C18 3.5um, 2.1x50mm, Waters
Retention time: 9.0 min
Base peak: 287.059
Precursor m/z: 287.0582
Precursor type: [M+H]+
m/z	relative intensity	assigned
93.0573	35	C6H7N+
104.0495	321	C7H6N+
128.0262	142	C6H7ClN+
138.0105	13	C7H5ClN+
153.0214	103	C7H6ClN2+
163.0058	73	C8H4ClN2+
166.0054	31	C8H5ClNO+
172.9768	3	C8ClN3+
195.0915	10	C13H11N2+
207.0679	20	C14H9NO+
214.0418	11	C13H9ClN+
216.0579	6	C13H11ClN+
229.0526	14	C13H10ClN2+
231.0684	247	C13H12ClN2+
241.0529	999	C14H10ClN2+
242.0374	7	C14H9ClNO+
257.0477	25	C14H10ClN2O+
269.0474	53	C15H10ClN2O+
