Mass spectrum: Propyzamide; LC-ESI-QFT; MS2; CE: 60; R=35000; [M+H]+
Name: Propyzamide
Name: 3,5-bis(chloranyl)-N-(2-methylbut-3-yn-2-yl)benzamide
Name: Promamide
Formula: C12H11Cl2NO
Exact mass: 255.02177
SMILES: Clc1cc(C(=O)NC(C#C)(C)C)cc(Cl)c1
InChI: InChI=1S/C12H11Cl2NO/c1-4-12(2,3)15-11(16)8-5-9(13)7-10(14)6-8/h1,5-7H,2-3H3,(H,15,16)
Instrument: Q Exactive Orbitrap Thermo Scientific
Instrument type: LC-ESI-QFT
Ms type: MS2
Ion mode: POSITIVE
Ionization: ESI
Fragmentation mode: HCD
Collision energy: 60 (nominal)
Resolution: 35000
Column name: XBridge C18 3.5um, 2.1x50mm, Waters
Retention time: 11.0 min
Base peak: 256.0295
Precursor m/z: 256.029
Precursor type: [M+H]+
m/z	relative intensity	assigned
53.0025	2	ClH4N+
62.9634	1	CClO+
65.0387	86	C5H5+
67.0543	152	C5H7+
67.9893	1	C3O2+
74.0151	1	C6H2+
84.984	18	C4H2Cl+
86.9632	2	C3ClO+
86.9997	1	C4H4Cl+
108.9838	8	C6H2Cl+
112.9789	3	C5H2ClO+
120.9607	8	C4H3Cl2+
126.9945	14	C6H4ClO+
128.0024	13	C6H5ClO+
129.0102	5	C6H6ClO+
139.0057	20	C9HNO+
144.9606	16	C6H3Cl2+
146.9763	63	C6H5Cl2+
162.9712	41	C6H5Cl2O+
171.9717	12	C7H4Cl2N+
172.9558	999	C7H3Cl2O+
172.9663	245	C9ClNO+
173.9642	1	C7H4Cl2O+
189.9822	194	C7H6Cl2NO+
