Mass spectrum: Pydiflumetofen; LC-ESI-QFT; MS2; CE: 75%; R=17500; [M+H]+
Name: Pydiflumetofen
Name: 3-(Difluoromethyl)-N-methoxy-1-methyl-N-(1-methyl-2-(2,4,6-trichlorophenyl)ethyl)-1H-pyrazole-4-carboxamide
Name: 3-(difluoromethyl)-N-methoxy-1-methyl-N-[1-(2,4,6-trichlorophenyl)propan-2-yl]pyrazole-4-carboxamide
Formula: C16H16Cl3F2N3O2
Exact mass: 425.0276
SMILES: CC(CC1=C(C=C(C=C1Cl)Cl)Cl)N(C(=O)C2=CN(N=C2C(F)F)C)OC
InChI: InChI=1S/C16H16Cl3F2N3O2/c1-8(4-10-12(18)5-9(17)6-13(10)19)24(26-3)16(25)11-7-23(2)22-14(11)15(20)21/h5-8,15H,4H2,1-3H3
Instrument: Exploris 240 Orbitrap Thermo Scientific
Instrument type: LC-ESI-QFT
Ms type: MS2
Ion mode: POSITIVE
Ionization: ESI
Fragmentation mode: HCD
Collision energy: 75 % (nominal)
Resolution: 17500
Column name: XBridge C18 3.5um, 2.1x50mm, Waters
Retention time: 11.996 min
Base peak: 426.0351
Precursor m/z: 426.0349
Precursor type: [M+H]+
m/z	relative intensity	assigned
53.026	16	C3H3N+
54.0338	6	C3H4N+
58.0085	6	C2HFN+
69.0447	7	C3H5N2+
80.0369	38	C4H4N2+
82.0288	26	C4H4NO+
108.0319	64	C5H4N2O+
123.0553	14	C6H7N2O+
134.0348	50	C6H4N3O+
135.0428	70	C6H5N3O+
137.0349	8	C6H5N2O2+
154.0413	63	C11H6O+
156.961	22	C7H3Cl2+
157.9683	20	C2HClF2N2O2+
166.0614	38	C7H8N3O2+
192.9374	999	C7H4Cl3+
