Mass spectrum: Metalaxyl; LC-ESI-ITFT; MS2; CE: 75%; R=15000; [M+H]+
Name: Metalaxyl
Name: 2-(N-(2-methoxy-1-oxoethyl)-2,6-dimethylanilino)propanoic acid methyl ester
Formula: C15H21NO4
Exact mass: 279.1465
SMILES: CC1=C(C(=CC=C1)C)N(C(C)C(=O)OC)C(=O)COC
InChI: InChI=1S/C15H21NO4/c1-10-7-6-8-11(2)14(10)16(13(17)9-19-4)12(3)15(18)20-5/h6-8,12H,9H2,1-5H3
Instrument: LTQ Orbitrap XL Thermo Scientific
Instrument type: LC-ESI-ITFT
Ms type: MS2
Ion mode: POSITIVE
Ionization: ESI
Fragmentation mode: HCD
Collision energy: 75 % (nominal)
Resolution: 15000
Column name: XBridge C18 3.5um, 2.1x50mm, Waters
Retention time: 8.7 min
Base peak: 302.1365
Precursor m/z: 280.1543
Precursor type: [M+H]+
m/z	relative intensity	assigned
91.0541	27	C7H7+
103.0543	10	C8H7+
105.0698	143	C8H9+
107.0854	15	C8H11+
117.0576	18	C8H7N+
118.065	38	C8H8N+
119.0731	6	C8H9N+
119.0854	34	C9H11+
120.0806	10	C8H10N+
121.0886	32	C8H11N+
130.065	68	C9H8N+
131.0729	43	C9H9N+
132.0807	337	C9H10N+
133.0885	220	C9H11N+
134.0964	427	C9H12N+
135.1045	6	C9H13N+
144.0809	50	C10H10N+
145.0886	368	C10H11N+
146.0964	105	C10H12N+
147.1047	13	C10H13N+
148.112	363	C10H14N+
150.0912	48	C9H12NO+
158.0962	14	C11H12N+
159.1048	5	C11H13N+
160.1121	999	C11H14N+
161.1196	10	C11H15N+
162.1277	216	C11H16N+
164.107	33	C10H14NO+
192.1381	52	C12H18NO+
220.1331	18	C13H18NO2+
