Mass spectrum: Penciclovir; LC-ESI-QFT; MS2; CE: 90; R=35000; [M-H]-
Name: Penciclovir
Name: 2-amino-9-[4-hydroxy-3-(hydroxymethyl)butyl]-3H-purin-6-one
Formula: C10H15N5O3
Exact mass: 253.11749
SMILES: C1=NC2=C(N1CCC(CO)CO)N=C(NC2=O)N
InChI: InChI=1S/C10H15N5O3/c11-10-13-8-7(9(18)14-10)12-5-15(8)2-1-6(3-16)4-17/h5-6,16-17H,1-4H2,(H3,11,13,14,18)
Instrument: Q Exactive Orbitrap Thermo Scientific
Instrument type: LC-ESI-QFT
Ms type: MS2
Ion mode: NEGATIVE
Ionization: ESI
Fragmentation mode: HCD
Collision energy: 90 (nominal)
Resolution: 35000
Column name: XBridge C18 3.5um, 2.1x50mm, Waters
Retention time: 1.1 min
Base peak: 252.1103
Precursor m/z: 252.1102
Precursor type: [M-H]-
m/z	relative intensity	assigned
64.0067	26	C3N2-
65.0145	138	C3HN2-
65.9985	65	C3NO-
66.0097	429	C2N3-
67.0301	13	C3H3N2-
68.0255	4	C2H2N3-
69.0094	7	C2HN2O-
71.025	6	C2H3N2O-
78.0098	84	C3N3-
79.0176	38	C3HN3-
80.0255	11	C3H2N3-
81.0094	2	C3HN2O-
82.0173	13	C3H2N2O-
82.0411	61	C3H4N3-
90.0098	49	C4N3-
92.0254	5	C4H2N3-
96.0454	1	C5H6NO-
105.0207	17	C4HN4-
106.0285	488	C4H2N4-
107.0126	77	C4HN3O-
107.0363	140	C4H3N4-
108.0203	390	C4H2N3O-
109.0519	1	C4H5N4-
119.0363	28	C5H3N4-
119.0613	1	C7H7N2-
120.0202	4	C5H2N3O-
121.0156	10	C4HN4O-
122.023	2	C4H2N4O-
125.0468	18	C4H5N4O-
126.0309	243	C4H4N3O2-
131.0238	4	C5HN5-
132.0317	9	C5H2N5-
133.0156	999	C5HN4O-
135.0313	1	C5H3N4O-
149.0342	47	C5H3N5O-
150.042	87	C5H4N5O-
151.026	13	C5H3N4O2-
162.042	24	C6H4N5O-
