Mass spectrum: Resmethrin; LC-ESI-QFT; MS2; CE: 45%; R=17500; [M+H]+
Name: Resmethrin
Name: (5-benzylfuran-3-yl)methyl 2,2-dimethyl-3-(2-methylprop-1-enyl)cyclopropane-1-carboxylate
Formula: C22H26O3
Exact mass: 338.1882
SMILES: CC(=CC1C(C1(C)C)C(=O)OCC2=COC(=C2)CC3=CC=CC=C3)C
InChI: InChI=1S/C22H26O3/c1-15(2)10-19-20(22(19,3)4)21(23)25-14-17-12-18(24-13-17)11-16-8-6-5-7-9-16/h5-10,12-13,19-20H,11,14H2,1-4H3
Instrument: Exploris 240 Orbitrap Thermo Scientific
Instrument type: LC-ESI-QFT
Ms type: MS2
Ion mode: POSITIVE
Ionization: ESI
Fragmentation mode: HCD
Collision energy: 45 % (nominal)
Resolution: 17500
Column name: XBridge C18 3.5um, 2.1x50mm, Waters
Retention time: 15.698 min
Base peak: 339.1952
Precursor m/z: 339.1955
Precursor type: [M+H]+
m/z	relative intensity	assigned
55.0543	25	C4H7+
59.0491	23	C3H7O+
67.0542	12	C5H7+
69.0701	26	C5H9+
81.07	56	C6H9+
83.049	23	C5H7O+
85.0646	14	C5H9O+
91.0542	449	C7H7+
93.07	36	C7H9+
95.0856	68	C7H11+
105.0335	182	C7H5O+
105.0702	26	C8H9+
107.0857	47	C8H11+
109.0647	19	C7H9O+
115.0543	45	C9H7+
117.0698	59	C9H9+
119.0858	30	C9H11+
121.0651	54	C8H9O+
121.1011	228	C9H13+
123.1168	50	C9H15+
125.0595	13	C7H9O2+
128.062	195	C10H8+
129.0698	22	C10H9+
133.1014	19	C10H13+
135.0806	29	C9H11O+
135.1168	56	C10H15+
139.1116	37	C9H15O+
141.0701	18	C11H9+
141.0913	12	C8H13O2+
143.0855	999	C11H11+
147.0807	22	C10H11O+
149.0963	110	C10H13O+
153.0701	27	C12H9+
157.1011	16	C12H13+
159.0811	15	C11H11O+
161.0964	21	C11H13O+
161.1318	12	C12H17+
171.0804	818	C12H11O+
173.0969	10	C12H13O+
173.1327	24	C13H17+
175.1481	25	C13H19+
185.0953	21	C13H13O+
197.1322	35	C15H17+
199.1121	57	C14H15O+
203.1427	18	C14H19O+
225.1272	34	C16H17O+
233.1324	12	C18H17+
237.1266	21	C17H17O+
239.1433	23	C17H19O+
247.1339	14	C15H19O3+
251.144	26	C18H19O+
293.1899	29	C21H25O+
