Mass spectrum: Furathiocarb; LC-ESI-QFT; MS2; CE: 45%; R=17500; [M+H]+
Name: Furathiocarb
Name: (2,2-dimethyl-3H-1-benzofuran-7-yl) N-[butoxycarbonyl(methyl)amino]sulfanyl-N-methylcarbamate
Formula: C18H26N2O5S
Exact mass: 382.1562
SMILES: CCCCOC(=O)N(C)SN(C)C(=O)OC1=CC=CC2=C1OC(C2)(C)C
InChI: InChI=1S/C18H26N2O5S/c1-6-7-11-23-16(21)19(4)26-20(5)17(22)24-14-10-8-9-13-12-18(2,3)25-15(13)14/h8-10H,6-7,11-12H2,1-5H3
Instrument: Exploris 240 Orbitrap Thermo Scientific
Instrument type: LC-ESI-QFT
Ms type: MS2
Ion mode: POSITIVE
Ionization: ESI
Fragmentation mode: HCD
Collision energy: 45 % (nominal)
Resolution: 17500
Column name: XBridge C18 3.5um, 2.1x50mm, Waters
Retention time: 13.069 min
Base peak: 383.1633
Precursor m/z: 383.1635
Precursor type: [M+H]+
m/z	relative intensity	assigned
55.0178	10	C3H3O+
57.0699	70	C4H9+
62.0059	67	CH4NS+
76.0392	16	C2H6NO2+
85.0105	6	C4H5S+
87.0263	27	C4H7S+
90.037	50	C3H8NS+
105.0365	11	C4H9OS+
107.0491	17	C7H7O+
107.0854	20	C8H11+
125.0054	41	C6H5OS+
133.0646	29	C9H9O+
135.0804	92	C9H11O+
139.0579	10	C8H11S+
146.0725	14	C10H10O+
149.042	25	C9H9S+
149.0595	34	C9H9O2+
153.0367	21	C8H9OS+
161.0595	60	C10H9O2+
162.0676	193	C10H10O2+
163.0752	12	C2H15N2O4S+
164.0831	361	C10H12O2+
165.0908	12	C2H17N2O4S+
167.0525	516	C9H11OS+
177.0368	134	C10H9OS+
195.0474	999	C10H11O2S+
252.0688	7	C12H14NO3S+
