Mass spectrum: Flunixine; LC-ESI-QFT; MS2; CE: 120; R=35000; [M-H]-
Name: Flunixine
Name: Banamine
Name: 2-[2-methyl-3-(trifluoromethyl)anilino]pyridine-3-carboxylic acid
Formula: C14H11F3N2O2
Exact mass: 296.07726
SMILES: CC1=C(C=CC=C1NC2=C(C=CC=N2)C(=O)O)C(F)(F)F
InChI: InChI=1S/C14H11F3N2O2/c1-8-10(14(15,16)17)5-2-6-11(8)19-12-9(13(20)21)4-3-7-18-12/h2-7H,1H3,(H,18,19)(H,20,21)
Instrument: Q Exactive Plus Orbitrap Thermo Scientific
Instrument type: LC-ESI-QFT
Ms type: MS2
Ion mode: NEGATIVE
Ionization: ESI
Fragmentation mode: HCD
Collision energy: 120 (nominal)
Resolution: 35000
Column name: XBridge C18 3.5um, 2.1x50mm, Waters
Retention time: 11.0 min
Base peak: 295.0694
Precursor m/z: 295.07
Precursor type: [M-H]-
m/z	relative intensity	assigned
50.0035	45	C3N-
63.024	11	C5H3-
64.0193	36	C4H2N-
65.0145	10	C3HN2-
66.0349	19	C4H4N-
68.9959	21	CF3-
73.0084	5	C6H-
74.0037	29	C5N-
76.0193	9	C5H2N-
87.0112	3	C6HN-
87.0239	18	C7H3-
88.0193	16	C6H2N-
89.0144	2	C5HN2-
90.0349	16	C6H4N-
91.0303	31	C5H3N2-
93.0458	35	C5H5N2-
97.0083	20	C8H-
98.0036	5	C7N-
107.0301	4	C7H4F-
112.0192	10	C8H2N-
113.027	15	C8H3N-
114.0349	361	C8H4N-
115.03	18	C7H3N2-
117.0458	10	C7H5N2-
132.0257	12	C8H3FN-
134.0411	22	C8H5FN-
137.027	2	C10H3N-
138.0349	107	C10H4N-
139.0302	56	C9H3N2-
140.0505	16	C10H6N-
141.0458	77	C9H5N2-
142.0531	2	C9H6N2-
162.035	61	C12H4N-
163.0303	66	C11H3N2-
163.0424	23	C12H5N-
164.0381	14	C11H4N2-
164.0506	108	C12H6N-
165.0458	282	C11H5N2-
166.0535	30	C11H6N2-
169.0407	2	C10H5N2O-
174.0349	48	C13H4N-
175.0304	22	C12H3N2-
176.0381	2	C12H4N2-
182.041	9	C12H5FN-
183.0363	10	C11H4FN2-
184.0568	18	C12H7FN-
187.0299	18	C13H3N2-
188.0381	22	C13H4N2-
189.0458	999	C13H5N2-
190.0537	88	C13H6N2-
191.0615	125	C13H7N2-
193.0408	4	C12H5N2O-
194.041	4	C13H5FN-
195.0365	5	C12H4FN2-
209.0521	273	C13H6FN2-
