Mass spectrum: Flumequine; LC-ESI-QFT; MS2; CE: 150; R=35000; [M+H]+
Name: Flumequine
Name: 9-Fluoro-5-methyl-1-oxo-6,7-dihydro-1H,5H-pyrido[3,2,1-ij]quinoline-2-carboxylic acid
Formula: C14H12FNO3
Exact mass: 261.08012
SMILES: CC1CCC2=C3N1C=C(C(=O)C3=CC(=C2)F)C(=O)O
InChI: InChI=1S/C14H12FNO3/c1-7-2-3-8-4-9(15)5-10-12(8)16(7)6-11(13(10)17)14(18)19/h4-7H,2-3H2,1H3,(H,18,19)
Instrument: Q Exactive Plus Orbitrap Thermo Scientific
Instrument type: LC-ESI-QFT
Ms type: MS2
Ion mode: POSITIVE
Ionization: ESI
Fragmentation mode: HCD
Collision energy: 150 (nominal)
Resolution: 35000
Column name: XBridge C18 3.5um, 2.1x50mm, Waters
Retention time: 7.3 min
Base peak: 262.0868
Precursor m/z: 262.0874
Precursor type: [M+H]+
m/z	relative intensity	assigned
50.0151	41	C4H2+
51.0229	26	C4H3+
52.0182	8	C3H2N+
53.0022	227	C3HO+
57.0134	8	C3H2F+
61.0071	3	C5H+
62.015	1	C5H2+
63.0229	14	C5H3+
65.0022	4	C4HO+
65.0385	6	C5H5+
69.0135	4	C4H2F+
70.0213	6	C4H3F+
71.0292	7	C4H4F+
74.0151	68	C6H2+
75.0229	555	C6H3+
76.0181	79	C5H2N+
77.0021	171	C5HO+
77.0385	9	C6H5+
81.0135	11	C5H2F+
83.0291	19	C5H4F+
84.037	1	C5H5F+
85.0071	1	C7H+
86.0151	1	C7H2+
87.0228	3	C7H3+
89.0386	178	C7H5+
90.0338	1	C6H4N+
92.0256	2	C6H4O+
93.0135	69	C6H2F+
94.0213	13	C6H3F+
95.0291	28	C6H4F+
95.0492	4	C6H7O+
96.0244	1	C5H3FN+
96.037	23	C6H5F+
97.0323	1	C5H4FN+
98.0151	219	C8H2+
99.0229	999	C8H3+
100.0181	822	C7H2N+
101.0386	1	C8H5+
102.0338	16	C7H4N+
105.0135	3	C7H2F+
105.0448	1	C6H5N2+
106.0087	1	C6HFN+
106.0212	7	C7H3F+
107.0291	33	C7H4F+
108.0244	1	C6H3FN+
108.037	8	C7H5F+
109.0448	25	C7H6F+
112.032	1	C6H5FO+
113.0396	33	C6H6FO+
114.0351	8	C5H5FNO+
115.0542	3	C9H7+
116.0495	8	C8H6N+
117.0334	3	C8H5O+
118.0214	6	C8H3F+
118.0287	87	C7H4NO+
119.0292	89	C8H4F+
120.0245	72	C7H3FN+
120.037	102	C8H5F+
121.0322	9	C7H4FN+
121.0446	1	C8H6F+
122.04	4	C7H5FN+
123.0353	70	C6H4FN2+
124.0182	3	C9H2N+
125.0386	16	C10H5+
126.0338	278	C9H4N+
127.0417	5	C9H5N+
128.0494	3	C9H6N+
128.062	3	C10H8+
129.0447	5	C8H5N2+
130.0401	3	C7H4N3+
131.0292	36	C9H4F+
132.0242	5	C8H3FN+
132.0369	11	C9H5F+
133.0448	45	C9H6F+
134.0401	3	C8H5FN+
135.0239	1	C8H4FO+
135.0478	4	C8H6FN+
137.0397	11	C8H6FO+
138.0349	22	C7H5FNO+
140.0492	2	C10H6N+
143.0491	1	C10H7O+
144.0373	3	C10H5F+
144.0444	43	C9H6NO+
145.0323	43	C9H4FN+
145.0447	4	C10H6F+
146.0401	116	C9H5FN+
146.0523	8	C10H7F+
147.0353	99	C8H4FN2+
147.0476	8	C9H6FN+
148.0304	4	C12H4+
148.0556	3	C9H7FN+
152.0496	11	C11H6N+
153.0446	2	C10H5N2+
154.04	238	C9H4N3+
155.0604	1	C10H7N2+
158.04	27	C10H5FN+
158.0601	1	C10H8NO+
159.0479	10	C10H6FN+
160.0556	1	C10H7FN+
161.0634	1	C10H8FN+
164.0506	12	C9H7FNO+
170.04	2	C11H5FN+
171.0478	4	C11H6FN+
172.0557	46	C11H7FN+
173.051	6	C10H6FN2+
174.0351	19	C10H5FNO+
184.0556	1	C12H7FN+
192.0454	1	C10H7FNO2+
200.0505	4	C12H7FNO+
