Mass spectrum: Spirotetramat Metabolite BYI08330 Enol-Glucoside; LC-ESI-QFT; MS2; CE: 75%; R=17500; [M+H]+
Name: Spirotetramat Metabolite BYI08330 Enol-Glucoside
Name: 3-(2,5-dimethylphenyl)-8-methoxy-4-[3,4,5-trihydroxy-6-(hydroxymethyl)oxan-2-yl]oxy-1-azaspiro[4.5]dec-3-en-2-one
Formula: C24H33NO8
Exact mass: 463.2206
SMILES: CC1=CC(=C(C=C1)C)C2=C(C3(CCC(CC3)OC)NC2=O)OC4C(C(C(C(O4)CO)O)O)O
InChI: InChI=1S/C24H33NO8/c1-12-4-5-13(2)15(10-12)17-21(24(25-22(17)30)8-6-14(31-3)7-9-24)33-23-20(29)19(28)18(27)16(11-26)32-23/h4-5,10,14,16,18-20,23,26-29H,6-9,11H2,1-3H3,(H,25,30)
Instrument: Exploris 240 Orbitrap Thermo Scientific
Instrument type: LC-ESI-QFT
Ms type: MS2
Ion mode: POSITIVE
Ionization: ESI
Fragmentation mode: HCD
Collision energy: 75 % (nominal)
Resolution: 17500
Column name: XBridge C18 3.5um, 2.1x50mm, Waters
Retention time: 3.587 min
Base peak: 464.2275
Precursor m/z: 464.2279
Precursor type: [M+H]+
m/z	relative intensity	assigned
67.0541	16	C5H7+
79.0544	10	C6H7+
81.0698	12	C6H9+
91.0541	26	C7H7+
96.0806	18	C6H10N+
105.0701	35	C8H9+
115.0541	20	C9H7+
117.0698	255	C9H9+
119.0854	116	C9H11+
128.0618	9	C10H8+
129.0696	15	C10H9+
130.0775	26	C10H10+
131.0854	25	C10H11+
133.0648	7	C9H9O+
143.0854	68	C11H11+
145.0649	26	C10H9O+
145.0882	22	C10H11N+
145.1009	112	C11H13+
155.0857	73	C12H11+
160.1117	30	C11H14N+
167.086	9	C13H11+
169.1014	23	C13H13+
172.1113	6	C12H14N+
173.0595	42	C11H9O2+
179.0847	7	C14H11+
182.1087	14	C14H14+
183.1169	9	C14H15+
188.107	51	C12H14NO+
197.1324	24	C15H17+
207.1159	9	C16H15+
216.1019	999	C13H14NO2+
270.1491	49	C17H20NO2+
