Mass spectrum: Rimsulfuron; LC-ESI-ITFT; MS2; CE: 45%; R=15000; [M+H]+
Name: Rimsulfuron
Name: 1-(4,6-dimethoxy-2-pyrimidinyl)-3-[(3-ethylsulfonyl-2-pyridinyl)sulfonyl]urea
Formula: C14H17N5O7S2
Exact mass: 431.0569
SMILES: CCS(=O)(=O)c1cccnc1S(=O)(=O)NC(=O)Nc1nc(OC)cc(OC)n1
InChI: InChI=1S/C14H17N5O7S2/c1-4-27(21,22)9-6-5-7-15-12(9)28(23,24)19-14(20)18-13-16-10(25-2)8-11(17-13)26-3/h5-8H,4H2,1-3H3,(H2,16,17,18,19,20)
Instrument: LTQ Orbitrap XL Thermo Scientific
Instrument type: LC-ESI-ITFT
Ms type: MS2
Ion mode: POSITIVE
Ionization: ESI
Fragmentation mode: HCD
Collision energy: 45 % (nominal)
Resolution: 15000
Column name: XBridge C18 3.5um, 2.1x50mm, Waters
Retention time: 7.9 min
Base peak: 454.0471
Precursor m/z: 432.0642
Precursor type: [M+H]+
m/z	relative intensity	assigned
83.0239	33	C3H3N2O+
106.065	175	C7H8N+
139.0501	22	C6H7N2O2+
141.9954	35	C5H4NO2S+
156.0767	71	C6H10N3O2+
157.0604	29	C6H9N2O3+
181.0721	19	C7H9N4O2+
182.0558	999	C7H8N3O3+
217.0716	23	C10H17OS2+
231.0871	24	C10H15O6+
325.0968	37	C13H17N4O4S+
