Mass spectrum: 1-Hydroxybenzotriazole; LC-ESI-QFT; MS2; CE: 60; R=35000; [M+H]+
Name: 1-Hydroxybenzotriazole
Formula: C6H5N3O
Exact mass: 135.04326
SMILES: C1=CC=C2C(=C1)N=NN2O
InChI: InChI=1S/C6H5N3O/c10-9-6-4-2-1-3-5(6)7-8-9/h1-4,10H
Instrument: Q Exactive Plus Orbitrap Thermo Scientific
Instrument type: LC-ESI-QFT
Ms type: MS2
Ion mode: POSITIVE
Ionization: ESI
Fragmentation mode: HCD
Collision energy: 60 (nominal)
Resolution: 35000
Column name: XBridge C18 3.5um, 2.1x50mm, Waters
Retention time: 3.0 min
Base peak: 136.0506
Precursor m/z: 136.0505
Precursor type: [M+H]+
m/z	relative intensity	assigned
50.0151	1	C4H2+
51.0229	1	C4H3+
52.018	2	C3H2N+
53.0386	79	C4H5+
54.0339	3	C3H4N+
54.0465	3	C4H6+
63.0228	8	C5H3+
64.0308	18	C5H4+
65.026	3	C4H3N+
65.0386	5	C5H5+
77.0386	5	C6H5+
78.0464	52	C6H6+
79.0417	1	C5H5N+
80.0495	87	C5H6N+
81.0335	7	C5H5O+
90.034	7	C6H4N+
91.0417	829	C6H5N+
92.037	1	C5H4N2+
105.0448	9	C6H5N2+
106.0526	6	C6H6N2+
108.0444	3	C6H6NO+
109.0523	28	
119.0479	206	C6H5N3+
136.0507	999	C6H6N3O+
