Mass spectrum: Oxypurinol; LC-ESI-QFT; MS2; CE: 60%; R=15000; [M-H]-
Name: Oxypurinol
Name: 1,2-dihydropyrazolo[3,4-d]pyrimidine-4,6-dione
Formula: C5H4N4O2
Exact mass: 152.0334
SMILES: C1=C2C(=NC(=O)NC2=O)NN1
InChI: InChI=1S/C5H4N4O2/c10-4-2-1-6-9-3(2)7-5(11)8-4/h1H,(H3,6,7,8,9,10,11)
Instrument: Orbitrap Exploris 240 Thermo Scientific
Instrument type: LC-ESI-QFT
Ms type: MS2
Ion mode: NEGATIVE
Ionization: ESI
Fragmentation mode: HCD
Collision energy: 60 % (nominal)
Resolution: 15000
Column name: Atlantis C18 3um, 3.0x150mm, Waters
Retention time: 8.004 min
Base peak: 151.0261
Precursor m/z: 151.0261
Precursor type: [M-H]-
Precursor intensity: 60627600
m/z	relative intensity	assigned
40.0193	4	C2H2N-
41.9985	999	CNO-
52.0193	8	C3H2N-
65.9986	16	C3NO-
82.0412	17	
95.0246	5	C4H3N2O-
108.0204	113	C4H2N3O-
108.029	6	
126.0313	5	
151.0262	659	C5H3N4O2-
