Mass spectrum: Benzyl-butyl-phthalate; LC-ESI-QFT; MS2; CE: 15; R=35000; [M+H]+
Name: Benzyl-butyl-phthalate
Name: Butylbenzyl phthalate
Name: 1,2-Benzenedicarboxylic acid, butyl phenylmethyl ester
Formula: C19H20O4
Exact mass: 312.13616
SMILES: CCCCOC(=O)C1=CC=CC=C1C(=O)OCC2=CC=CC=C2
InChI: InChI=1S/C19H20O4/c1-2-3-13-22-18(20)16-11-7-8-12-17(16)19(21)23-14-15-9-5-4-6-10-15/h4-12H,2-3,13-14H2,1H3
Instrument: Q Exactive Plus Orbitrap Thermo Scientific
Instrument type: LC-ESI-QFT
Ms type: MS2
Ion mode: POSITIVE
Ionization: ESI
Fragmentation mode: HCD
Collision energy: 15 (nominal)
Resolution: 35000
Column name: XBridge C18 3.5um, 2.1x50mm, Waters
Retention time: 14.2 min
Base peak: 313.1424
Precursor m/z: 313.1434
Precursor type: [M+H]+
m/z	relative intensity	assigned
51.0228	1	C4H3+
57.0697	4	C4H9+
65.0383	3	C5H5+
91.0542	999	C7H7+
149.0232	653	C8H5O3+
163.0389	1	C9H7O3+
181.0496	1	C9H9O4+
205.0859	168	C12H13O3+
