Mass spectrum: Dehydroepiandrosterone (DHEA); LC-ESI-QFT; MS2; CE: 75; R=35000; [M+H]+
Name: Dehydroepiandrosterone (DHEA)
Name: trans-Dehydroandosterone
Name: (3S,8R,9S,10R,13S,14S)-10,13-dimethyl-3-oxidanyl-1,2,3,4,7,8,9,11,12,14,15,16-dodecahydrocyclopenta[a]phenanthren-17-one
Formula: C19H28O2
Exact mass: 288.20893
SMILES: O=C3[C@]2(CC[C@@H]1[C@@]4(C(=C/C[C@H]1[C@@H]2CC3)\C[C@@H](O)CC4)C)C
InChI: InChI=1S/C19H28O2/c1-18-9-7-13(20)11-12(18)3-4-14-15-5-6-17(21)19(15,2)10-8-16(14)18/h3,13-16,20H,4-11H2,1-2H3/t13-,14-,15-,16-,18-,19-/m0/s1
Instrument: Q Exactive Orbitrap Thermo Scientific
Instrument type: LC-ESI-QFT
Ms type: MS2
Ion mode: POSITIVE
Ionization: ESI
Fragmentation mode: HCD
Collision energy: 75 (nominal)
Resolution: 35000
Column name: XBridge C18 3.5um, 2.1x50mm, Waters
Retention time: 11.2 min
Base peak: 271.2057
Precursor m/z: 289.2162
Precursor type: [M+H]+
m/z	relative intensity	assigned
51.0228	4	C4H3+
57.0699	3	C4H9+
65.0386	32	C5H5+
67.0542	442	C5H7+
69.0699	118	C5H9+
71.0491	36	C4H7O+
77.0383	6	C6H5+
78.0462	4	C6H6+
79.0542	590	C6H7+
81.0699	999	C6H9+
83.0492	27	C5H7O+
83.0855	46	C6H11+
85.0648	8	C5H9O+
91.0542	991	C7H7+
93.0698	525	C7H9+
95.0491	118	C6H7O+
95.0855	300	C7H11+
97.0648	192	C6H9O+
103.0542	40	C8H7+
105.0699	989	C8H9+
107.0855	268	C8H11+
109.0648	43	C7H9O+
109.1012	72	C8H13+
111.0804	5	C7H11O+
115.0542	105	C9H7+
116.0621	45	C9H8+
117.0698	463	C9H9+
118.0777	13	C9H10+
119.0855	392	C9H11+
121.0648	7	C8H9O+
121.1012	113	C9H13+
123.0804	29	C8H11O+
128.062	161	C10H8+
129.0699	468	C10H9+
130.0777	135	C10H10+
131.0855	757	C10H11+
132.0933	7	C10H12+
133.1011	510	C10H13+
135.1168	102	C10H15+
141.0698	207	C11H9+
142.0778	345	C11H10+
143.0856	568	C11H11+
144.0934	118	C11H12+
145.1012	778	C11H13+
146.073	4	C10H10O+
147.1168	276	C11H15+
149.0957	4	C10H13O+
149.133	3	C11H17+
152.0613	5	C12H8+
153.0698	56	C12H9+
154.0779	70	C12H10+
155.0855	395	C12H11+
156.0934	190	C12H12+
157.1012	861	C12H13+
158.1092	33	C12H14+
159.1168	405	C12H15+
161.096	14	C11H13O+
161.1326	20	C12H17+
163.1115	7	C11H15O+
165.0696	4	C13H9+
167.0855	129	C13H11+
168.0934	124	C13H12+
169.1011	406	C13H13+
170.1089	58	C13H14+
171.1167	595	C13H15+
172.1244	40	C13H16+
173.1324	137	C13H17+
175.1481	5	C13H19+
181.1012	84	C14H13+
182.109	221	C14H14+
183.1169	432	C14H15+
184.1246	63	C14H16+
185.1325	220	C14H17+
187.1481	20	C14H19+
195.1169	46	C15H15+
196.1245	68	C15H16+
197.1324	347	C15H17+
198.1403	125	C15H18+
199.1486	22	C15H19+
209.1324	48	C16H17+
210.1402	17	C16H18+
211.1481	120	C16H19+
212.156	4	C16H20+
213.1637	281	C16H21+
223.1483	64	C17H19+
224.1559	17	C17H20+
225.1638	56	C17H21+
237.1639	7	C18H21+
238.1721	28	C18H22+
253.1951	28	C19H25+
