Mass spectrum: Triflumizole FM-6-1; LC-ESI-QFT; MS2; CE: 60%; R=17500; [M+H]+
Name: Triflumizole FM-6-1
Name: Ethanimidamide, N-(4-chloro-2-(trifluoromethyl)phenyl)-2-propoxy-
Name: N`-[4-chloro-2-(trifluoromethyl)phenyl]-2-propoxyethanimidamide
Formula: C12H14ClF3N2O
Exact mass: 294.0747
SMILES: CCCOCC(=NC1=C(C=C(C=C1)Cl)C(F)(F)F)N
InChI: InChI=1S/C12H14ClF3N2O/c1-2-5-19-7-11(17)18-10-4-3-8(13)6-9(10)12(14,15)16/h3-4,6H,2,5,7H2,1H3,(H2,17,18)
Instrument: Exploris 240 Orbitrap Thermo Scientific
Instrument type: LC-ESI-QFT
Ms type: MS2
Ion mode: POSITIVE
Ionization: ESI
Fragmentation mode: HCD
Collision energy: 60 % (nominal)
Resolution: 17500
Column name: XBridge C18 3.5um, 2.1x50mm, Waters
Retention time: 5.242 min
Base peak: 295.0817
Precursor m/z: 295.082
Precursor type: [M+H]+
m/z	relative intensity	assigned
55.0543	722	C4H7+
73.0649	136	C4H9O+
150.0102	67	C11H2O+
163.0057	288	C8H4ClN2+
176.0075	807	C7H5ClF2N+
180.0499	101	C9H6F2N2+
185.9913	115	C8H3ClF2N+
188.0075	296	C8H5ClF2N+
195.0123	622	C9H5ClFN2+
200.0561	198	C9H7F3N2+
205.9983	393	C8H4ClF3N+
213.0223	347	C9H7ClFN2O+
215.0183	999	C12H3F2NO+
233.0298	72	C9H8ClF2N2O+
253.0347	103	C9H9ClF3N2O+
