Mass spectrum: Terbutryn; LC-ESI-ITFT; MS2; CE: 15%; R=15000; [M+H]+
Name: Terbutryn
Name: 2-N-tert-butyl-4-N-ethyl-6-methylsulfanyl-1,3,5-triazine-2,4-diamine
Formula: C10H19N5S
Exact mass: 241.1356
SMILES: c1(nc(nc(n1)SC)NCC)NC(C)(C)C
InChI: InChI=1S/C10H19N5S/c1-6-11-7-12-8(15-10(2,3)4)14-9(13-7)16-5/h6H2,1-5H3,(H2,11,12,13,14,15)
Instrument: LTQ Orbitrap XL Thermo Scientific
Instrument type: LC-ESI-ITFT
Ms type: MS2
Ion mode: POSITIVE
Ionization: ESI
Fragmentation mode: HCD
Collision energy: 15 % (nominal)
Resolution: 15000
Column name: XBridge C18 3.5um, 2.1x50mm, Waters
Retention time: 8.5 min
Base peak: 242.1438
Precursor m/z: 242.1434
Precursor type: [M+H]+
m/z	relative intensity	assigned
186.0812	23	C6H12N5S+
227.1205	1	C9H17N5S+
242.1435	999	C10H20N5S+
