Mass spectrum: Fenfuram; LC-ESI-QFT; MS2; CE: 15%; R=17500; [M+H]+
Name: Fenfuram
Name: 2-methyl-N-phenylfuran-3-carboxamide
Formula: C12H11NO2
Exact mass: 201.0790
SMILES: CC1=C(C=CO1)C(=O)NC2=CC=CC=C2
InChI: InChI=1S/C12H11NO2/c1-9-11(7-8-15-9)12(14)13-10-5-3-2-4-6-10/h2-8H,1H3,(H,13,14)
Instrument: Exploris 240 Orbitrap Thermo Scientific
Instrument type: LC-ESI-QFT
Ms type: MS2
Ion mode: POSITIVE
Ionization: ESI
Fragmentation mode: HCD
Collision energy: 15 % (nominal)
Resolution: 17500
Column name: XBridge C18 3.5um, 2.1x50mm, Waters
Retention time: 6.105 min
Base peak: 202.0861
Precursor m/z: 202.0863
Precursor type: [M+H]+
m/z	relative intensity	assigned
83.049	5	C5H7O+
109.0283	23	C6H5O2+
202.0861	999	C12H12NO2+
