Mass spectrum: Sulfamethazine; LC-ESI-ITFT; MS2; CE: 60%; R=15000; [M+H]+
Name: Sulfamethazine
Name: 4-amino-N-(4,6-dimethylpyrimidin-2-yl)benzenesulfonamide
Name: 4-amino-N-(4,6-dimethyl-2-pyrimidinyl)benzenesulfonamide
Formula: C12H14N4O2S
Exact mass: 278.0837
SMILES: c1(S(Nc2nc(cc(n2)C)C)(=O)=O)ccc(N)cc1
InChI: InChI=1S/C12H14N4O2S/c1-8-7-9(2)15-12(14-8)16-19(17,18)11-5-3-10(13)4-6-11/h3-7H,13H2,1-2H3,(H,14,15,16)
Instrument: LTQ Orbitrap XL Thermo Scientific
Instrument type: LC-ESI-ITFT
Ms type: MS2
Ion mode: POSITIVE
Ionization: ESI
Fragmentation mode: HCD
Collision energy: 60 % (nominal)
Resolution: 15000
Column name: XBridge C18 3.5um, 2.1x50mm, Waters
Retention time: 3.9 min
Base peak: 279.0918
Precursor m/z: 279.091
Precursor type: [M+H]+
m/z	relative intensity	assigned
65.0386	129	C5H5+
68.0495	88	C4H6N+
80.0494	12	C5H6N+
81.0448	31	C4H5N2+
92.0495	534	C6H6N+
93.0574	19	C6H7N+
95.0604	98	C5H7N2+
96.0446	17	C5H6NO+
108.0444	833	C6H6NO+
110.0601	43	C6H8NO+
122.0713	72	C6H8N3+
123.0791	42	C6H9N3+
124.0869	999	C6H10N3+
149.0232	51	C8H5O3+
156.0114	216	C6H6NO2S+
186.0332	307	C6H8N3O2S+
204.0438	128	C12H4N4+
213.1134	125	C12H13N4+
