Mass spectrum: Irbesartan; LC-ESI-ITFT; MS2; CE: 60%; R=7500; [M+H]+
Name: Irbesartan
Name: 8-butyl-7-[4-[2-(2H-tetrazol-5-yl)phenyl]benzyl]-7,9-diazaspiro[4.4]non-8-en-6-one
Formula: C25H28N6O
Exact mass: 428.2325
SMILES: C12(C(N(Cc3ccc(c4c(c5[nH]nnn5)cccc4)cc3)C(=N1)CCCC)=O)CCCC2
InChI: InChI=1S/C25H28N6O/c1-2-3-10-22-26-25(15-6-7-16-25)24(32)31(22)17-18-11-13-19(14-12-18)20-8-4-5-9-21(20)23-27-29-30-28-23/h4-5,8-9,11-14H,2-3,6-7,10,15-17H2,1H3,(H,27,28,29,30)
Instrument: LTQ Orbitrap XL Thermo Scientific
Instrument type: LC-ESI-ITFT
Ms type: MS2
Ion mode: POSITIVE
Ionization: ESI
Fragmentation mode: HCD
Collision energy: 60 % (nominal)
Resolution: 7500
Column name: XBridge C18 3.5um, 2.1x50mm, Waters
Retention time: 9.2 min
Base peak: 429.2411
Precursor m/z: 429.2397
Precursor type: [M+H]+
m/z	relative intensity	assigned
77.0382	4	C6H5+
79.0542	12	C6H7+
80.0495	15	C5H6N+
84.0808	114	C5H10N+
112.0752	4	C6H10NO+
129.0448	6	C8H5N2+
140.0491	7	C10H6N+
152.062	12	C12H8+
153.0697	28	C12H9+
165.0702	16	C13H9+
166.0656	11	C12H8N+
166.0772	8	C13H10+
167.0732	15	C12H9N+
167.1543	24	C10H19N2+
178.0649	40	C13H8N+
179.0727	22	C13H9N+
180.0806	322	C13H10N+
182.0602	3	C12H8NO+
190.065	62	C14H8N+
191.0732	9	C14H9N+
194.0607	13	C13H8NO+
195.1492	64	C11H19N2O+
196.0756	20	C13H10NO+
205.0759	93	C14H9N2+
206.0837	264	C14H10N2+
207.0916	999	C14H11N2+
208.0757	15	C14H10NO+
