Mass spectrum: Gabapentin; LC-ESI-ITFT; MS2; CE: 90%; R=30000; [M+H]+
Name: Gabapentin
Name: 1-(Aminomethyl)cyclohexaneacetic acid
Name: 2-[1-(aminomethyl)cyclohexyl]acetic acid
Formula: C9H17NO2
Exact mass: 171.1259
SMILES: NCC1(CC(O)=O)CCCCC1
InChI: InChI=1S/C9H17NO2/c10-7-9(6-8(11)12)4-2-1-3-5-9/h1-7,10H2,(H,11,12)
Instrument: LTQ Orbitrap XL Thermo Scientific
Instrument type: LC-ESI-ITFT
Ms type: MS2
Ion mode: POSITIVE
Ionization: ESI
Fragmentation mode: HCD
Collision energy: 90 % (nominal)
Resolution: 30000
Column name: XBridge C18 3.5um, 2.1x50mm, Waters
Retention time: 3.6 min
Base peak: 172.1336
Precursor m/z: 172.1332
Precursor type: [M+H]+
m/z	relative intensity	assigned
55.0179	169	C3H3O+
55.0543	9	C4H7+
65.0386	16	C5H5+
67.0543	498	C5H7+
69.0699	20	C5H9+
71.0492	8	C4H7O+
77.0386	21	C6H5+
79.0543	19	C6H7+
80.0496	10	C5H6N+
81.0699	69	C6H9+
83.0492	9	C5H7O+
83.0856	7	C6H11+
91.0543	363	C7H7+
93.0699	256	C7H9+
95.0856	999	C7H11+
107.0855	11	C8H11+
109.1012	224	C8H13+
110.0965	55	C7H12N+
112.1122	11	C7H14N+
117.0699	14	C9H9+
119.0856	204	C9H11+
126.1279	14	C8H16N+
136.1121	59	C9H14N+
137.0962	117	C9H13O+
154.1227	104	C9H16NO+
