Mass spectrum: Mebendazole; LC-ESI-QFT; MS2; CE: 60; R=35000; [M+H]+
Name: Mebendazole
Name: methyl N-(6-benzoyl-1H-benzimidazol-2-yl)carbamate
Formula: C16H13N3O3
Exact mass: 295.09569
SMILES: COC(=O)NC1=NC2=C(N1)C=C(C=C2)C(=O)C3=CC=CC=C3
InChI: InChI=1S/C16H13N3O3/c1-22-16(21)19-15-17-12-8-7-11(9-13(12)18-15)14(20)10-5-3-2-4-6-10/h2-9H,1H3,(H2,17,18,19,21)
Instrument: Q Exactive Plus Orbitrap Thermo Scientific
Instrument type: LC-ESI-QFT
Ms type: MS2
Ion mode: POSITIVE
Ionization: ESI
Fragmentation mode: HCD
Collision energy: 60 (nominal)
Resolution: 35000
Column name: XBridge C18 3.5um, 2.1x50mm, Waters
Retention time: 7.6 min
Base peak: 296.1024
Precursor m/z: 296.103
Precursor type: [M+H]+
m/z	relative intensity	assigned
50.015	1	C4H2+
51.0228	1	C4H3+
53.0386	20	C4H5+
55.0179	1	C3H3O+
77.0385	42	C6H5+
81.0335	1	C5H5O+
94.0413	1	C6H6O+
95.0492	59	C6H7O+
105.0336	587	C7H5O+
105.0447	37	C6H5N2+
130.04	1	C7H4N3+
159.0425	5	C8H5N3O+
160.0506	7	C8H6N3O+
166.0651	2	C12H8N+
167.073	1	C12H9N+
186.0299	37	C9H4N3O2+
186.0411	9	C8H4N5O+
191.0327	1	C8H5N3O3+
208.087	6	C13H10N3+
236.082	7	C14H10N3O+
246.0669	1	C15H8N3O+
264.0769	999	C15H10N3O2+
