Mass spectrum: Diethyl-phthalate; LC-ESI-QFT; MS2; CE: 180; R=35000; [M+H]+
Name: Diethyl-phthalate
Name: Diethyl phthalate
Name: Diethyl benzene-1,2-dicarboxylate
Formula: C12H14O4
Exact mass: 222.08921
SMILES: CCOC(=O)C1=CC=CC=C1C(=O)OCC
InChI: InChI=1S/C12H14O4/c1-3-15-11(13)9-7-5-6-8-10(9)12(14)16-4-2/h5-8H,3-4H2,1-2H3
Instrument: Q Exactive Plus Orbitrap Thermo Scientific
Instrument type: LC-ESI-QFT
Ms type: MS2
Ion mode: POSITIVE
Ionization: ESI
Fragmentation mode: HCD
Collision energy: 180 (nominal)
Resolution: 35000
Column name: XBridge C18 3.5um, 2.1x50mm, Waters
Retention time: 8.7 min
Base peak: 223.0959
Precursor m/z: 223.0965
Precursor type: [M+H]+
m/z	relative intensity	assigned
50.0151	20	C4H2+
51.023	27	C4H3+
52.0181	2	C3H2N+
53.0022	216	C3HO+
53.9975	46	C2NO+
54.01	7	C3H2O+
63.0229	22	C5H3+
64.0308	8	C5H4+
65.0386	999	C5H5+
67.9893	51	C3O2+
74.0151	19	
75.0229	17	C6H3+
92.0258	7	C6H4O+
111.044	3	C6H7O2+
121.0398	8	C6H5N2O+
