Mass spectrum: MCYR; LC-ESI-QFT; MS2; CE: 30%; R=17500; [M+H]+
Name: MCYR
Name: Microcystin YR
Name: (5R,8S,11R,12S,15S,18S,19S,22R)-15-[3-(diaminomethylideneamino)propyl]-8-[(4-hydroxyphenyl)methyl]-18-[(1E,3E,5S,6S)-6-methoxy-3,5-dimethyl-7-phenylhepta-1,3-dienyl]-1,5,12,19-tetramethyl-2-methylidene-3,6,9,13,16,20,25-heptaoxo-1,4,7,10,14,17,21-heptazacyclopentacosane-11,22-dicarboxylic acid
Class: NA
Formula: C52H72N10O13
Exact mass: 1044.5280
SMILES: CO[C@@H](Cc1ccccc1)[C@@H](C)\C=C(C)\C=C\[C@@H]2NC(=O)[C@H](CCCNC(N)=N)NC(=O)[C@@H](C)[C@@H](NC(=O)[C@H](Cc3ccc(O)cc3)NC(=O)[C@@H](C)NC(=O)C(=C)N(C)C(=O)CC[C@@H](NC(=O)[C@H]2C)C(O)=O)C(O)=O
InChI: InChI=1S/C52H72N10O13/c1-28(25-29(2)41(75-8)27-34-13-10-9-11-14-34)16-21-37-30(3)44(65)59-39(50(71)72)22-23-42(64)62(7)33(6)47(68)56-32(5)46(67)60-40(26-35-17-19-36(63)20-18-35)49(70)61-43(51(73)74)31(4)45(66)58-38(48(69)57-37)15-12-24-55-52(53)54/h9-11,13-14,16-21,25,29-32,37-41,43,63H,6,12,15,22-24,26-27H2,1-5,7-8H3,(H,56,68)(H,57,69)(H,58,66)(H,59,65)(H,60,67)(H,61,70)(H,71,72)(H,73,74)(H4,53,54,55)/b21-16+,28-25+/t29-,30-,31-,32+,37-,38-,39+,40-,41-,43+/m0/s1
Instrument: Q Exactive Plus Orbitrap Thermo Scientific
Instrument type: LC-ESI-QFT
Ms type: MS2
Ion mode: POSITIVE
Ionization: ESI
Fragmentation mode: HCD
Collision energy: 30 % (nominal)
Resolution: 17500
Column name: XBridge C18 3.5um, 2.1x50mm, Waters
Retention time: 8.039 min
Base peak: 523.2719
Precursor m/z: 1045.5353
Precursor type: [M+H]+
m/z	relative intensity	assigned
84.0443	11	C4H6NO+
91.054	10	C7H7+
93.0701	5	C7H9+
103.0544	13	C8H7+
105.0698	12	C8H9+
107.0855	65	C8H11+
112.0869	62	C5H10N3+
115.0866	20	C5H11N2O+
117.0701	8	C9H9+
124.0757	2	C7H10NO+
124.1124	13	C8H14N+
127.0866	38	C6H11N2O+
129.1138	6	C5H13N4+
130.05	3	C5H8NO3+
130.0977	2	C5H12N3O+
131.0858	5	C10H11+
135.0804	185	C9H11O+
135.1167	68	C10H15+
136.0757	114	C8H10NO+
138.0554	8	C7H8NO2+
139.0979	11	C6H11N4+
140.0821	6	C6H10N3O+
141.066	2	C6H9N2O2+
145.1017	4	C11H13+
155.0815	81	C7H11N2O2+
156.1244	41	C6H14N5+
157.1085	60	C6H13N4O+
158.0922	11	C6H12N3O2+
161.0956	8	C11H13O+
162.1282	2	C11H16N+
163.1118	99	C11H15O+
167.0817	9	C8H11N2O2+
168.0652	2	C8H10NO3+
173.0966	3	C12H13O+
174.135	113	C6H16N5O+
175.1192	8	C6H15N4O2+
182.0819	4	C9H12NO3+
182.1042	2	C7H12N5O+
183.0882	7	C7H11N4O2+
195.0773	18	C9H11N2O3+
195.1178	2	CH17N5O6+
198.1244	5	C11H18O3+
200.1145	49	C7H14N5O2+
201.0985	10	C7H13N4O3+
206.0935	2	C12H14O3+
207.1134	6	C11H15N2O2+
209.1335	7	C2H19N5O6+
210.1361	5	C11H18N2O2+
213.0873	157	C9H13N2O4+
213.1336	14	C8H21O6+
217.1341	2	H25O12+
218.1544	15	H22N6O7+
223.1213	13	H21N3O10+
224.1037	5	C12H16O4+
225.1352	10	C10H17N4O2+
226.1602	8	C2H22N6O6+
235.1096	4	H19N4O10+
237.164	24	C18H21+
239.0666	17	C10H11N2O5+
240.1457	13	C10H18N5O2+
241.1296	25	C10H17N4O3+
243.1463	8	C12H21NO4+
244.1298	30	C10H18N3O4+
246.1493	34	CH22N6O8+
257.1727	9	C10H21N6O2+
258.1567	10	C12H22N2O4+
258.1862	30	C3H26N6O7+
259.1085	6	H17N7O9+
264.1605	5	CH24N6O9+
267.1579	7	C13H21N3O3+
268.141	22	C11H18N5O3+
269.1256	47	C12H13N8+
276.1811	2	C13H26NO5+
282.1851	10	C19H24NO+
285.1671	77	C11H21N6O3+
286.1513	64	C11H20N5O4+
287.1037	21	C16H11N6+
290.1471	3	C11H16N9O+
292.1555	13	C17H18N5+
293.1133	16	C14H17N2O5+
297.1865	5	C7H23N9O4+
300.1352	9	C18H20O4+
303.1782	34	C11H23N6O4+
310.1051	4	CH20N5O13+
310.1374	3	C11H22N2O8+
314.1467	3	C13H16N9O+
318.1449	42	C16H20N3O4+
329.1858	12	C19H25N2O3+
331.202	2	C5H29N7O9+
336.1561	4	C2H24N8O11+
347.1966	33	C19H27N2O4+
365.2348	3	C24H31NO2+
371.1712	4	C19H23N4O4+
375.1915	146	C20H27N2O5+
388.1988	4	C5H28N10O10+
389.1816	13	C19H25N4O5+
397.2616	8	C11H37N6O9+
400.2243	3	C23H26N7+
415.1628	3	C22H25NO7+
432.1876	55	C20H26N5O6+
446.2298	33	C24H28N7O2+
447.1874	21	C21H27N4O7+
449.214	41	C34H27N+
465.2802	4	C20H35N9O4+
488.3231	27	C26H42N5O4+
495.3116	4	C32H39N4O+
502.2422	7	C25H34N4O7+
519.2662	13	C22H39N4O10+
520.2502	31	C22H38N3O11+
537.2811	8	C27H41N2O9+
542.2725	4	C27H42O11+
560.2804	9	C23H40N6O10+
571.3594	51	C29H51N2O9+
575.2952	28	C28H41N5O8+
582.3266	9	C29H42N8O5+
584.2957	4	C29H40N6O7+
585.278	11	C28H43NO12+
597.3418	5	C34H43N7O3+
599.3556	94	C31H47N6O6+
602.3048	59	C28H46N2O12+
603.2884	105	C27H39N8O8+
609.2945	4	C35H39N5O5+
617.3677	6	C33H51N3O8+
620.3155	63	C43H42NO3+
625.3362	18	C34H47N3O8+
643.3415	2	C42H41N7+
669.3022	6	C35H45N2O11+
682.3932	19	C37H54N4O8+
686.326	8	C31H44N9O9+
700.4061	7	C39H58NO10+
710.3865	15	C50H50N2O2+
713.342	5	C39H47N5O8+
714.3216	4	C48H44NO5+
725.4334	5	C36H61N4O11+
726.3906	6	C32H54N8O11+
728.3986	21	C38H56N4O10+
731.3483	17	C34H49N7O11+
758.3129	11	C36H42N10O9+
760.3626	3	C34H50N9O11+
775.3365	32	C47H45N5O6+
788.3607	7	C38H48N10O9+
851.4494	4	C51H59N6O6+
854.4764	4	C42H64N9O10+
866.438	12	C52H54N10O3+
876.4256	5	C43H58N9O11+
882.4791	6	C52H68NO11+
894.4345	39	C43H60N9O12+
911.463	53	C45H65N7O13+
915.5077	41	C46H71N6O13+
916.4883	17	C44H68N8O13+
934.4988	16	C51H66N8O9+
957.5539	3	C50H73N10O9+
960.4808	70	C48H66N9O12+
973.55	61	C50H73N10O10+
983.5353	8	C51H71N10O10+
996.4899	12	C52H68N8O12+
999.5298	20	C51H71N10O11+
1000.5142	35	C51H70N9O12+
1017.5401	155	C51H73N10O12+
1027.5244	46	C52H71N10O12+
1028.5091	41	C52H70N9O13+
1045.5355	999	C52H73N10O13+
