Mass spectrum: Cyclophosphamide; LC-ESI-ITFT; MS2; CE: 75%; R=7500; [M+H]+
Name: Cyclophosphamide
Name: N,N-bis(2-chloroethyl)-2-oxidanylidene-1,3,2$l^{5}-oxazaphosphinan-2-amine
Formula: C7H15Cl2N2O2P
Exact mass: 260.0248
SMILES: ClCCN(CCCl)P1(=O)NCCCO1
InChI: InChI=1S/C7H15Cl2N2O2P/c8-2-5-11(6-3-9)14(12)10-4-1-7-13-14/h1-7H2,(H,10,12)
Instrument: LTQ Orbitrap XL Thermo Scientific
Instrument type: LC-ESI-ITFT
Ms type: MS2
Ion mode: POSITIVE
Ionization: ESI
Fragmentation mode: HCD
Collision energy: 75 % (nominal)
Resolution: 7500
Column name: XBridge C18 3.5um, 2.1x50mm, Waters
Retention time: 6.3 min
Base peak: 261.0328
Precursor m/z: 261.0321
Precursor type: [M+H]+
m/z	relative intensity	assigned
54.0339	2	C3H4N+
56.0495	119	C3H6N+
57.0573	2	C3H7N+
58.0651	66	C3H8N+
62.9996	186	C2H4Cl+
64.9785	4	H2O2P+
66.9943	2	H4O2P+
70.0652	28	C4H8N+
78.0105	49	C2H5ClN+
87.9948	2	C3H3ClN+
91.9896	27	CH3NO2P+
94.0052	24	C5H2O2+
102.0103	34	C3H5NOP+
104.0262	44	C4H7ClN+
106.0418	161	C4H9ClN+
110.0001	34	C2H5ClNO2+
111.9718	9	C2H4Cl2N+
112.0157	34	C2H7ClNO2+
113.9871	8	CH6ClNOP+
114.0104	4	C4H5NOP+
120.0209	191	C3H7NO2P+
124.0156	9	C3H7ClNO2+
138.0315	85	C4H9ClNO2+
140.0029	999	C4H8Cl2N+
141.9821	64	C3H6Cl2NO+
142.0184	233	C4H10Cl2N+
155.9981	2	C4H8Cl2NO+
