Mass spectrum: Diphenylamine; LC-ESI-QFT; MS2; CE: 45; R=35000; [M+H]+
Name: Diphenylamine
Name: N-phenylaniline
Formula: C12H11N
Exact mass: 169.08915
SMILES: c1(Nc2ccccc2)ccccc1
InChI: InChI=1S/C12H11N/c1-3-7-11(8-4-1)13-12-9-5-2-6-10-12/h1-10,13H
Instrument: Q Exactive Orbitrap Thermo Scientific
Instrument type: LC-ESI-QFT
Ms type: MS2
Ion mode: POSITIVE
Ionization: ESI
Fragmentation mode: HCD
Collision energy: 45 (nominal)
Resolution: 35000
Column name: XBridge C18 3.5um, 2.1x50mm, Waters
Retention time: 11.3 min
Base peak: 170.0964
Precursor m/z: 170.0964
Precursor type: [M+H]+
m/z	relative intensity	assigned
65.0385	5	C5H5+
66.0464	1	C5H6+
77.0383	1	C6H5+
92.0495	191	C6H6N+
93.0572	204	C6H7N+
95.0491	1	C6H7O+
110.06	1	C6H8NO+
128.062	2	C10H8+
129.07	1	C10H9+
143.0856	6	C11H11+
152.0622	3	C12H8+
153.0699	19	C12H9+
155.0728	5	C11H9N+
168.081	2	C12H10N+
169.0892	6	C12H11N+
170.0964	999	C12H12N+
