Mass spectrum: Dapsone; LC-ESI-QFT; MS2; CE: 75; R=35000; [M+H]+
Name: Dapsone
Name: 4-(4-aminophenyl)sulfonylaniline
Formula: C12H12N2O2S
Exact mass: 248.06195
SMILES: C1=CC(=CC=C1N)S(=O)(=O)C2=CC=C(C=C2)N
InChI: InChI=1S/C12H12N2O2S/c13-9-1-5-11(6-2-9)17(15,16)12-7-3-10(14)4-8-12/h1-8H,13-14H2
Instrument: Q Exactive Plus Orbitrap Thermo Scientific
Instrument type: LC-ESI-QFT
Ms type: MS2
Ion mode: POSITIVE
Ionization: ESI
Fragmentation mode: HCD
Collision energy: 75 (nominal)
Resolution: 35000
Column name: XBridge C18 3.5um, 2.1x50mm, Waters
Retention time: 3.8 min
Base peak: 249.0685
Precursor m/z: 249.0692
Precursor type: [M+H]+
m/z	relative intensity	assigned
53.0021	1	C3HO+
53.0385	2	C4H5+
54.0338	1	C3H4N+
55.0178	1	C3H3O+
65.0385	639	C5H5+
66.0338	4	C4H4N+
66.0463	19	C5H6+
68.0494	24	C4H6N+
69.0335	1	C4H5O+
78.0337	3	C5H4N+
79.0178	4	C5H3O+
80.0494	178	C5H6N+
83.049	1	C5H7O+
90.0339	1	C6H4N+
92.0494	999	C6H6N+
93.0572	307	C6H7N+
96.0443	3	C5H6NO+
108.0443	898	C6H6NO+
109.0522	3	C6H7NO+
110.06	115	C6H8NO+
120.0556	6	C6H6N3+
124.0215	2	C6H6NS+
140.0161	2	C6H6NOS+
156.0113	7	C6H6NO2S+
