Mass spectrum: Cefaclor; LC-ESI-QFT; MS2; CE: 60; R=35000; [M+H]+
Name: Cefaclor
Name: CEFACLOR
Name: (6R,7R)-7-[[(2R)-2-amino-1-oxo-2-phenylethyl]amino]-3-chloro-8-oxo-5-thia-1-azabicyclo[4.2.0]oct-2-ene-2-carboxylic acid
Formula: C15H14ClN3O4S
Exact mass: 367.03935
SMILES: O=C2N1/C(=C(/Cl)CS[C@@H]1[C@@H]2NC(=O)[C@@H](c3ccccc3)N)C(=O)O
InChI: InChI=1S/C15H14ClN3O4S/c16-8-6-24-14-10(13(21)19(14)11(8)15(22)23)18-12(20)9(17)7-4-2-1-3-5-7/h1-5,9-10,14H,6,17H2,(H,18,20)(H,22,23)/t9-,10-,14-/m1/s1
Instrument: Q Exactive Orbitrap Thermo Scientific
Instrument type: LC-ESI-QFT
Ms type: MS2
Ion mode: POSITIVE
Ionization: ESI
Fragmentation mode: HCD
Collision energy: 60 (nominal)
Resolution: 35000
Column name: XBridge C18 3.5um, 2.1x50mm, Waters
Retention time: 4.1 min
Base peak: 368.0469
Precursor m/z: 368.0466
Precursor type: [M+H]+
m/z	relative intensity	assigned
58.9951	6	C2H3S+
60.984	3	C2H2Cl+
65.0384	1	C5H5+
66.0464	8	C5H6+
70.0287	19	C3H4NO+
72.9981	9	C2H3NS+
74.0059	29	C2H4NS+
77.0384	1	C6H5+
79.0542	140	C6H7+
86.0059	41	C3H4NS+
87.9949	51	C3H3ClN+
89.0384	5	C7H5+
90.0105	5	C3H5ClN+
90.0464	17	C7H6+
91.0542	139	C7H7+
93.0447	4	C5H5N2+
95.0491	5	C6H7O+
100.0217	1	C4H6NS+
102.0105	1	C4H5ClN+
103.0543	13	C8H7+
104.0494	2	C7H6N+
106.0652	999	C7H8N+
108.057	1	C7H8O+
110.0057	1	C5H4NS+
114.0008	141	C4H4NOS+
115.0543	6	C9H7+
116.0494	1	C8H6N+
117.0573	72	C8H7N+
118.0413	472	C8H6O+
118.0651	331	C8H8N+
119.0491	40	C8H7O+
120.081	1	C8H10N+
121.0106	24	C7H5S+
123.0263	54	C7H7S+
125.0166	1	C5H5N2S+
127.0324	3	C5H7N2S+
128.0494	4	C9H6N+
129.0215	8	C5H6ClN2+
130.0652	18	C9H8N+
131.0492	4	C9H7O+
131.0734	2	C9H9N+
132.0446	1	C8H6NO+
132.0808	3	C9H10N+
134.0602	5	C8H8NO+
135.0265	3	C8H7S+
137.017	1	C6H5N2S+
137.0421	8	C8H9S+
144.0112	1	C5H6NO2S+
145.9826	4	C5H5ClNS+
146.0601	85	C9H8NO+
147.0264	26	C9H7S+
150.0373	53	C8H8NS+
155.0005	1	C6H4ClN2O+
158.0003	7	C6H5ClNO2+
158.0601	12	C10H8NO+
159.068	3	C10H9NO+
159.9797	1	C5H3ClNO3+
160.9936	5	C5H6ClN2S+
162.0372	36	C9H8NS+
163.045	1	C9H9NS+
164.0528	28	C9H10NS+
171.9621	1	C6H3ClNOS+
174.0373	24	C10H8NS+
174.055	84	C10H8NO2+
177.9724	108	C5H5ClNO2S+
178.0322	10	C9H8NOS+
182.084	2	C12H10N2+
189.9726	2	C6H5ClNO2S+
190.0322	5	C10H8NOS+
191.0399	36	C10H9NOS+
198.0377	1	C12H8NS+
215.0639	1	C12H11N2S+
225.0485	1	C13H9N2S+
