Mass spectrum: Deferasirox; LC-ESI-QFT; MS2; CE: 75; R=35000; [M+H]+
Name: Deferasirox
Formula: C21H15N3O4
Exact mass: 373.10626
SMILES: OC(=O)c1ccc(cc1)n2nc(nc2c3ccccc3O)c4ccccc4O
InChI: InChI=1S/C21H15N3O4/c25-17-7-3-1-5-15(17)19-22-20(16-6-2-4-8-18(16)26)24(23-19)14-11-9-13(10-12-14)21(27)28/h1-12,25-26H,(H,27,28)
Instrument: Q Exactive Orbitrap Thermo Scientific
Instrument type: LC-ESI-QFT
Ms type: MS2
Ion mode: POSITIVE
Ionization: ESI
Fragmentation mode: HCD
Collision energy: 75 (nominal)
Resolution: 35000
Column name: XBridge C18 3.5um, 2.1x50mm, Waters
Retention time: 13.1 min
Base peak: 374.1137
Precursor m/z: 374.1135
Precursor type: [M+H]+
m/z	relative intensity	assigned
53.0024	2	C3HO+
53.0387	10	C4H5+
63.023	39	C5H3+
65.0386	451	C5H5+
66.0466	3	C5H6+
68.0131	12	C3H2NO+
75.023	4	C6H3+
77.0386	5	C6H5+
78.0464	109	C6H6+
79.0418	4	C5H5N+
80.0495	365	C5H6N+
81.0336	166	C5H5O+
90.0339	157	C6H4N+
91.0417	13	C6H5N+
92.0495	292	C6H6N+
93.0335	24	C6H5O+
93.0573	16	C6H7N+
94.0288	17	C5H4NO+
94.0412	3	C6H6O+
94.0651	2	C6H8N+
95.0492	59	C6H7O+
96.0444	10	C5H6NO+
102.034	3	C7H4N+
104.0495	14	C7H6N+
105.0335	26	C7H5O+
105.0448	14	C6H5N2+
106.0414	16	C7H6O+
107.0492	21	C7H7O+
107.0605	9	C6H7N2+
108.0444	999	C6H6NO+
109.0284	5	C6H5O2+
109.0525	4	C6H7NO+
110.0601	5	C6H8NO+
111.0441	36	C6H7O2+
115.0542	53	C9H7+
116.0494	2	C8H6N+
117.0574	9	C8H7N+
118.0287	95	C7H4NO+
118.0525	27	C7H6N2+
119.0366	51	C7H5NO+
119.0606	10	C7H7N2+
120.0444	581	C7H6NO+
121.0284	37	C7H5O2+
121.0396	15	C6H5N2O+
124.052	20	C7H8O2+
127.054	3	C10H7+
128.0621	55	C10H8+
129.0699	143	C10H9+
130.04	15	C7H4N3+
130.0653	5	C9H8N+
131.0603	4	C8H7N2+
132.0445	4	C8H6NO+
134.0477	9	C7H6N2O+
135.0314	4	C7H5NO2+
135.0552	9	C7H7N2O+
136.0394	270	C7H6NO2+
137.0472	47	C7H7NO2+
138.0549	4	C7H8NO2+
139.0389	23	C7H7O3+
139.0542	50	C11H7+
140.0497	20	C10H6N+
141.0699	12	C11H9+
142.0652	3	C10H8N+
143.0731	11	C10H9N+
145.0399	3	C8H5N2O+
145.0648	24	C10H9O+
148.0394	32	C8H6NO2+
149.0346	31	C7H5N2O2+
152.0621	63	C12H8+
153.0699	129	C12H9+
154.0499	38	C7H8NO3+
154.0651	91	C11H8N+
154.0777	44	C12H10+
155.0495	3	C11H7O+
155.0604	27	C10H7N2+
155.0728	24	C11H9N+
155.0856	15	C12H11+
156.068	15	C10H8N2+
156.0809	111	C11H10N+
163.05	3	C8H7N2O2+
164.0494	9	C12H6N+
165.0699	53	C13H9+
166.0652	192	C12H8N+
167.073	130	C12H9N+
168.0572	3	C12H8O+
168.0682	52	C11H8N2+
168.0806	30	C12H10N+
169.0647	16	C12H9O+
169.0759	20	C11H9N2+
170.06	10	C11H8NO+
171.0805	3	C12H11O+
178.065	13	C13H8N+
179.06	10	C12H7N2+
179.0733	12	C13H9N+
180.0571	3	C13H8O+
180.0679	9	C12H8N2+
180.0807	11	C13H10N+
181.0648	153	C13H9O+
181.076	161	C12H9N2+
182.0603	62	C12H8NO+
182.0839	288	C12H10N2+
183.068	70	C12H9NO+
183.0918	172	C12H11N2+
184.0757	163	C12H10NO+
191.0604	11	C13H7N2+
192.0681	60	C13H8N2+
193.052	9	C13H7NO+
193.0762	20	C13H9N2+
194.0601	52	C13H8NO+
194.0838	2	C13H10N2+
195.0554	5	C12H7N2O+
195.0682	5	C13H9NO+
196.0756	126	C13H10NO+
197.0599	4	C13H9O2+
197.0835	10	C13H11NO+
199.0863	3	C12H11N2O+
200.0704	17	C12H10NO2+
206.0601	4	C14H8NO+
207.0683	19	C14H9NO+
208.0632	36	C13H8N2O+
208.0757	9	C14H10NO+
209.071	149	C13H9N2O+
210.0553	26	C13H8NO2+
210.0788	79	C13H10N2O+
211.0629	136	C13H9NO2+
211.0865	90	C13H11N2O+
212.0705	32	C13H10NO2+
213.0659	4	C12H9N2O2+
221.0714	3	C14H9N2O+
222.0551	28	C14H8NO2+
224.0709	29	C14H10NO2+
225.0549	3	C14H9O3+
225.0669	4	C13H9N2O2+
225.0783	40	C14H11NO2+
225.0897	16	C13H11N3O+
226.074	21	C13H10N2O2+
227.0816	46	C13H11N2O2+
228.0656	9	C13H10NO3+
237.0659	53	C14H9N2O2+
238.0735	2	C14H10N2O2+
239.0577	79	C14H9NO3+
240.0656	400	C14H10NO3+
253.0732	3	C15H11NO3+
253.0848	18	C14H11N3O2+
254.0683	4	C14H10N2O3+
254.0938	15	C16H14O3+
255.0767	72	C14H11N2O3+
257.108	3	C18H13N2+
272.1069	17	C19H14NO+
282.1028	3	C19H12N3+
283.1104	4	C19H13N3+
287.1179	4	C19H15N2O+
299.1072	4	C21H15O2+
300.114	24	C21H16O2+
301.1097	4	C20H15NO2+
302.1281	11	C19H16N3O+
303.1126	19	C19H15N2O2+
310.0975	10	C20H12N3O+
318.1236	15	C19H16N3O2+
327.1001	10	C20H13N3O2+
328.1087	21	C20H14N3O2+
330.1242	5	C20H16N3O2+
331.1082	40	C20H15N2O3+
332.1039	3	C21H16O4+
344.1032	11	C20H14N3O3+
346.1187	167	C20H16N3O3+
374.1137	208	C21H16N3O4+
