Mass spectrum: D617; LC-ESI-ITFT; MS2; CE: 90%; R=7500; [M+H]+
Name: D617
Name: Verapamil metabolite D617
Name: 2-(3,4-dimethoxyphenyl)-2-isopropyl-5-(methylamino)valeronitrile
Formula: C17H26N2O2
Exact mass: 290.1994
SMILES: CC(C)C(CCCNC)(C#N)C1=CC(=C(C=C1)OC)OC
InChI: InChI=1S/C17H26N2O2/c1-13(2)17(12-18,9-6-10-19-3)14-7-8-15(20-4)16(11-14)21-5/h7-8,11,13,19H,6,9-10H2,1-5H3
Instrument: LTQ Orbitrap XL Thermo Scientific
Instrument type: LC-ESI-ITFT
Ms type: MS2
Ion mode: POSITIVE
Ionization: ESI
Fragmentation mode: HCD
Collision energy: 90 % (nominal)
Resolution: 7500
Column name: XBridge C18 3.5um, 2.1x50mm, Waters
Retention time: 6.3 min
Base peak: 291.2077
Precursor m/z: 291.2067
Precursor type: [M+H]+
m/z	relative intensity	assigned
65.0387	33	C5H5+
67.0544	121	C5H7+
70.0652	183	C4H8N+
77.0388	97	C6H5+
78.0464	52	C6H6+
79.0543	152	C6H7+
80.0495	40	C5H6N+
81.0572	27	C5H7N+
91.0542	329	C7H7+
93.0698	54	C7H9+
94.0415	29	C6H6O+
94.0653	41	C6H8N+
95.0491	220	C6H7O+
96.081	23	C6H10N+
103.0543	155	C8H7+
105.0336	24	C7H5O+
105.07	192	C8H9+
106.0647	35	C7H8N+
107.0492	486	C7H7O+
108.0569	169	C7H8O+
109.0285	31	C6H5O2+
109.0644	22	C7H9O+
115.0543	95	C9H7+
116.0615	35	C9H8+
117.0699	135	C9H9+
118.0413	47	C8H6O+
119.049	120	C8H7O+
120.057	32	C8H8O+
121.0649	258	C8H9O+
122.0362	32	C7H6O2+
123.0442	148	C7H7O2+
124.0519	125	C7H8O2+
128.0496	34	C9H6N+
129.0697	65	C10H9+
131.0492	192	C9H7O+
132.0566	33	C9H8O+
133.065	166	C9H9O+
134.0726	168	C9H10O+
135.044	275	C8H7O2+
135.0805	27	C9H11O+
136.052	251	C8H8O2+
137.0597	220	C8H9O2+
138.0675	243	C8H10O2+
139.0757	32	C8H11O2+
144.0575	74	C10H8O+
144.0807	60	C10H10N+
145.0649	128	C10H9O+
146.0602	309	C9H8NO+
146.0726	404	C10H10O+
146.0969	43	C10H12N+
147.0805	75	C10H11O+
149.0599	102	C9H9O2+
149.0968	35	C10H13O+
150.0675	256	C9H10O2+
151.0754	999	C9H11O2+
155.0605	34	C10H7N2+
156.0807	29	C11H10N+
159.0678	62	C10H9NO+
159.0803	86	C11H11O+
160.0759	184	C10H10NO+
161.0597	38	C10H9O2+
161.0956	52	C11H13O+
164.0827	54	C10H12O2+
165.0912	219	C10H13O2+
172.0757	191	C11H10NO+
174.0915	185	C11H12NO+
175.0753	31	C11H11O2+
176.0705	57	C10H10NO2+
176.0838	41	C11H12O2+
177.091	144	C11H13O2+
186.0919	44	C12H12NO+
187.0992	47	C12H13NO+
188.0704	71	C11H10NO2+
190.0858	27	C11H12NO2+
202.0865	120	C12H12NO2+
203.0934	44	C12H13NO2+
214.1221	62	C14H16NO+
