Mass spectrum: Triflusulfuron-methyl; LC-ESI-QFT; MS2; CE: 60; R=35000; [M-H]-
Name: Triflusulfuron-methyl
Name: 2-[[4-(dimethylamino)-6-(2,2,2-trifluoroethoxy)-s-triazin-2-yl]carbamoylsulfamoyl]-3-methyl-benzoic acid methyl ester
Formula: C17H19F3N6O6S
Exact mass: 492.10389
SMILES: O=C(OC)c1cccc(c1S(=O)(=O)NC(=O)Nc2nc(nc(OCC(F)(F)F)n2)N(C)C)C
InChI: InChI=1S/C17H19F3N6O6S/c1-9-6-5-7-10(12(27)31-4)11(9)33(29,30)25-15(28)22-13-21-14(26(2)3)24-16(23-13)32-8-17(18,19)20/h5-7H,8H2,1-4H3,(H2,21,22,23,24,25,28)
Instrument: Q Exactive Orbitrap Thermo Scientific
Instrument type: LC-ESI-QFT
Ms type: MS2
Ion mode: NEGATIVE
Ionization: ESI
Fragmentation mode: HCD
Collision energy: 60 (nominal)
Resolution: 35000
Column name: XBridge C18 3.5um, 2.1x50mm, Waters
Retention time: 10.8 min
Base peak: 491.0971
Precursor m/z: 491.0966
Precursor type: [M-H]-
m/z	relative intensity	assigned
58.9939	6	C2FO-
61.9707	5	NOS-
66.0097	44	C2N3-
68.9957	78	CF3-
71.0051	11	C2FN2-
78.0098	2	C3N3-
79.0001	43	C2HF2O-
90.0099	7	C4N3-
99.0063	2	C2H2F3O-
100.0077	13	C3HFN2O-
104.013	2	C4N4-
105.9605	9	CNO3S-
106.0046	10	C4N3O-
106.0284	10	C4H2N4-
107.0363	9	C4H3N4-
111.0112	22	C3FN4-
111.0676	15	C4H7N4-
118.0162	1	C4N5-
118.0285	1	C5H2N4-
120.0441	2	C5H4N4-
121.0521	16	C5H5N4-
123.0113	5	C4FN4-
124.019	12	C4HFN4-
126.0108	17	C4HFN3O-
128.063	21	C5H7FN3-
132.0315	6	C5H2N5-
133.0155	2	C5HN4O-
133.0394	39	C5H3N5-
134.0234	7	C5H2N4O-
135.0314	8	C5H3N4O-
136.0628	26	C5H6N5-
138.0222	6	C4HFN5-
138.0785	107	C5H8N5-
147.0313	6	C6H3N4O-
148.0391	14	C6H4N4O-
148.0629	60	C6H6N5-
149.0469	12	C6H5N4O-
151.0061	71	C5FN4O-
152.0139	109	C5HFN4O-
152.0378	32	C5H3FN5-
153.0218	2	C5H2FN4O-
160.0265	115	C6H2N5O-
161.0343	999	C6H3N5O-
166.0733	308	C6H8N5O-
167.0612	47	C6H6FN5-
168.0689	2	C3H12N4O2S-
169.0531	29	C6H6FN4O-
176.0576	761	C3H11FNO6-
181.0406	25	C6H4FN5O-
196.0074	142	C8H6NO3S-
196.064	417	C7H7FN5O-
216.0701	38	C7H8F2N5O-
236.0767	24	
