Mass spectrum: 3-[(4-chlorobenzoyl)amino]propanoic acid; LC-ESI-QFT; MS2; CE: 75; R=35000; [M+H]+
Name: 3-[(4-chlorobenzoyl)amino]propanoic acid
Name: N-(4-Chlorobenzoyl)-Beta-alanine
Formula: C10H10ClNO3
Exact mass: 227.03492
SMILES: C1=CC(=CC=C1C(=O)NCCC(=O)O)Cl
InChI: InChI=1S/C10H10ClNO3/c11-8-3-1-7(2-4-8)10(15)12-6-5-9(13)14/h1-4H,5-6H2,(H,12,15)(H,13,14)
Instrument: Q Exactive Plus Orbitrap Thermo Scientific
Instrument type: LC-ESI-QFT
Ms type: MS2
Ion mode: POSITIVE
Ionization: ESI
Fragmentation mode: HCD
Collision energy: 75 (nominal)
Resolution: 35000
Column name: XBridge C18 3.5um, 2.1x50mm, Waters
Retention time: 6.2 min
Base peak: 228.0421
Precursor m/z: 228.0422
Precursor type: [M+H]+
m/z	relative intensity	assigned
50.0151	5	C4H2+
51.0229	4	C4H3+
53.0021	1	C3HO+
55.0178	12	C3H3O+
72.0443	10	C3H6NO+
73.0284	2	C3H5O2+
75.0228	13	C6H3+
79.0178	5	C5H3O+
80.0256	2	C5H4O+
86.9996	38	C4H4Cl+
93.0335	14	C6H5O+
94.0413	5	C6H6O+
110.9995	21	C6H4Cl+
111.044	6	C6H7O2+
113.0152	1	C6H6Cl+
114.9945	4	C5H4ClO+
121.0397	2	C6H5N2O+
129.0101	144	C6H6ClO+
138.0108	1	C7H5ClN+
138.9945	999	C7H4ClO+
139.0055	397	C9HNO+
140.0028	2	C7H5ClO+
156.021	4	C7H7ClNO+
