Mass spectrum: Valsartan acid; LC-ESI-QFT; MS2; CE: 180; R=35000; [M+H]+
Name: Valsartan acid
Name: 4-[2-(2H-1,2,3,4-tetrazol-5-yl)phenyl]benzoic acid
Formula: C14H10N4O2
Exact mass: 266.08038
SMILES: C1=CC=C(C(=C1)C2=CC=C(C=C2)C(=O)O)C3=NNN=N3
InChI: InChI=1S/C14H10N4O2/c19-14(20)10-7-5-9(6-8-10)11-3-1-2-4-12(11)13-15-17-18-16-13/h1-8H,(H,19,20)(H,15,16,17,18)
Instrument: Q Exactive Plus Orbitrap Thermo Scientific
Instrument type: LC-ESI-QFT
Ms type: MS2
Ion mode: POSITIVE
Ionization: ESI
Fragmentation mode: HCD
Collision energy: 180 (nominal)
Resolution: 35000
Column name: XBridge C18 3.5um, 2.1x50mm, Waters
Retention time: 6.8 min
Base peak: 267.0873
Precursor m/z: 267.0877
Precursor type: [M+H]+
m/z	relative intensity	assigned
50.0151	130	C4H2+
51.0229	93	C4H3+
53.0386	40	C4H5+
55.0178	3	C3H3O+
61.0072	6	C5H+
62.015	8	C5H2+
63.0229	44	C5H3+
65.0022	10	C4HO+
65.0385	10	C5H5+
66.0464	4	C5H6+
74.015	133	C6H2+
75.0229	274	C6H3+
76.0181	12	C5H2N+
76.0307	75	C6H4+
77.0385	102	C6H5+
78.0464	29	C6H6+
81.0335	6	C5H5O+
86.015	14	C7H2+
87.0229	37	C7H3+
88.0182	5	C6H2N+
88.0307	3	C7H4+
89.0386	26	C7H5+
90.0337	1	C6H4N+
90.0464	6	C7H6+
91.0543	3	C7H7+
94.0413	3	C6H6O+
95.0491	136	C6H7O+
98.0151	149	C8H2+
99.0229	249	C8H3+
100.0181	13	C7H2N+
100.0307	56	C8H4+
101.0386	14	C8H5+
102.0338	6	C7H4N+
102.0464	51	C8H6+
103.0415	3	C7H5N+
105.0447	73	C6H5N2+
110.0151	22	C9H2+
111.0229	26	C9H3+
113.0385	25	C9H5+
114.0339	5	C8H4N+
114.0461	1	C9H6+
115.0542	21	C9H7+
119.0491	9	C8H7O+
122.015	34	C10H2+
123.0229	48	C10H3+
124.0183	5	C9H2N+
124.0307	59	C10H4+
125.0386	105	C10H5+
126.0464	98	C10H6+
127.0417	33	C9H5N+
127.0541	6	C10H7+
128.0619	1	C10H8+
129.0447	20	C8H5N2+
130.0398	4	C7H4N3+
137.0385	11	C11H5+
138.0337	4	C10H4N+
138.0462	2	C11H6+
139.0542	20	C11H7+
140.0494	9	C10H6N+
143.0492	16	C10H7O+
145.0649	2	C10H9O+
148.0306	7	C12H4+
149.0386	82	C12H5+
150.0464	999	C12H6+
151.0416	61	C11H5N+
151.0542	26	C12H7+
152.062	51	C12H8+
153.0337	4	C11H5O+
153.0446	10	C10H5N2+
153.0574	1	C11H7N+
155.0604	5	C10H7N2+
163.0542	5	C13H7+
164.0494	15	C12H6N+
167.0491	28	C12H7O+
168.0444	1	C11H6NO+
168.0568	2	C12H8O+
169.0647	80	C12H9O+
170.06	1	C11H8NO+
175.0416	57	C13H5N+
176.0494	10	C13H6N+
177.0572	60	C13H7N+
179.0603	24	C12H7N2+
185.0597	20	C12H9O2+
194.0601	28	C13H8NO+
195.055	3	C12H7N2O+
204.0557	21	C13H6N3+
