Mass spectrum: Azinphos-methyl; LC-ESI-QFT; MS2; CE: 15; R=35000; [M+H]+
Name: Azinphos-methyl
Name: Azinphosmethyl
Name: 3-(dimethoxyphosphinothioylsulfanylmethyl)-1,2,3-benzotriazin-4-one
Formula: C10H12N3O3PS2
Exact mass: 317.00577
SMILES: COP(=S)(OC)SCN1C(=O)C2=CC=CC=C2N=N1
InChI: InChI=1S/C10H12N3O3PS2/c1-15-17(18,16-2)19-7-13-10(14)8-5-3-4-6-9(8)11-12-13/h3-6H,7H2,1-2H3
Instrument: Q Exactive Plus Orbitrap Thermo Scientific
Instrument type: LC-ESI-QFT
Ms type: MS2
Ion mode: POSITIVE
Ionization: ESI
Fragmentation mode: HCD
Collision energy: 15 (nominal)
Resolution: 35000
Column name: XBridge C18 3.5um, 2.1x50mm, Waters
Retention time: 9.2 min
Base peak: 318.0126
Precursor m/z: 318.013
Precursor type: [M+H]+
m/z	relative intensity	assigned
51.0228	1	C4H3+
77.0382	7	C6H5+
93.0101	16	C2H6O2P+
95.0492	3	C6H7O+
104.0495	28	C7H6N+
105.0336	21	C7H5O+
110.9662	1	CH4O2PS+
120.0446	8	C3H9N2OP+
124.9822	122	C2H6O2PS+
132.0445	999	C8H6NO+
135.0442	14	C8H7O2+
135.9973	1	C7H4OS+
137.0059	1	C3H8NOPS+
142.9928	790	C2H8O3PS+
144.9974	1	H7N3O2S2+
148.0217	28	C4H9N2PS+
150.0552	127	C4H11N2O2P+
154.0088	8	C3H9NO2PS+
157.0085	12	C3H10O3PS+
160.0507	557	C8H6N3O+
167.0163	209	C4H10NO2PS+
170.97	252	C3H8O2PS2+
182.9935	78	C4H10NOPS2+
260.9807	624	C9H10O3PS2+
