Mass spectrum: 3-[(4-chlorobenzoyl)amino]propanoic acid; LC-ESI-QFT; MS2; CE: 120; R=35000; [M+H]+
Name: 3-[(4-chlorobenzoyl)amino]propanoic acid
Name: N-(4-Chlorobenzoyl)-Beta-alanine
Formula: C10H10ClNO3
Exact mass: 227.03492
SMILES: C1=CC(=CC=C1C(=O)NCCC(=O)O)Cl
InChI: InChI=1S/C10H10ClNO3/c11-8-3-1-7(2-4-8)10(15)12-6-5-9(13)14/h1-4H,5-6H2,(H,12,15)(H,13,14)
Instrument: Q Exactive Plus Orbitrap Thermo Scientific
Instrument type: LC-ESI-QFT
Ms type: MS2
Ion mode: POSITIVE
Ionization: ESI
Fragmentation mode: HCD
Collision energy: 120 (nominal)
Resolution: 35000
Column name: XBridge C18 3.5um, 2.1x50mm, Waters
Retention time: 6.2 min
Base peak: 228.0421
Precursor m/z: 228.0422
Precursor type: [M+H]+
m/z	relative intensity	assigned
50.0151	24	C4H2+
51.0229	18	C4H3+
53.0022	53	C3HO+
55.0179	34	C3H3O+
60.9839	2	C2H2Cl+
61.0072	1	C5H+
62.9632	1	CClO+
65.0386	15	C5H5+
72.0443	4	C3H6NO+
73.0284	2	C3H5O2+
74.0151	68	C6H2+
75.0229	842	C6H3+
76.0306	9	C6H4+
77.0386	1	C6H5+
79.0178	14	C5H3O+
80.0256	8	C5H4O+
84.9839	59	C4H2Cl+
86.9996	119	C4H4Cl+
88.9787	1	C3H2ClO+
93.0335	39	C6H5O+
94.0413	14	C6H6O+
98.0363	1	C5H6O2+
110.9996	203	C6H4Cl+
111.044	22	C6H7O2+
114.9946	11	C5H4ClO+
121.0396	7	C6H5N2O+
128.002	3	C6H5ClO+
129.0102	468	C6H6ClO+
138.9947	148	C7H4ClO+
139.0057	999	C9HNO+
140.0028	7	C7H5ClO+
