Mass spectrum: Dimethomorph; LC-ESI-ITFT; MS2; CE: 90%; R=30000; [M+H]+
Name: Dimethomorph
Name: (Z)-3-(4-chlorophenyl)-3-(3,4-dimethoxyphenyl)-1-(4-morpholinyl)-2-propen-1-one
Formula: C21H22ClNO4
Exact mass: 387.1237
SMILES: COC1=C(C=C(C=C1)/C(=C/C(=O)N2CCOCC2)/C3=CC=C(C=C3)Cl)OC
InChI: InChI=1S/C21H22ClNO4/c1-25-19-8-5-16(13-20(19)26-2)18(15-3-6-17(22)7-4-15)14-21(24)23-9-11-27-12-10-23/h3-8,13-14H,9-12H2,1-2H3/b18-14+
Instrument: LTQ Orbitrap XL Thermo Scientific
Instrument type: LC-ESI-ITFT
Ms type: MS2
Ion mode: POSITIVE
Ionization: ESI
Fragmentation mode: HCD
Collision energy: 90 % (nominal)
Resolution: 30000
Column name: XBridge C18 3.5um, 2.1x50mm, Waters
Retention time: 10.8 min
Base peak: 388.1318
Precursor m/z: 388.131
Precursor type: [M+H]+
m/z	relative intensity	assigned
51.0229	8	C4H3+
53.0385	21	C4H5+
65.0386	23	C5H5+
66.0464	124	C5H6+
69.0335	8	C4H5O+
70.0287	291	C3H4NO+
77.0386	220	C6H5+
79.0542	152	C6H7+
81.0698	39	C6H9+
86.9996	29	C4H4Cl+
89.0385	39	C7H5+
90.0464	6	C7H6+
91.0543	24	C7H7+
92.0256	45	C6H4O+
94.0413	116	C6H6O+
95.0491	20	C6H7O+
98.9995	20	C5H4Cl+
102.0464	19	C8H6+
105.0334	26	C7H5O+
105.0447	112	C6H5N2+
107.0126	23	C6H3O2+
107.0492	28	C4H10ClN+
109.0284	31	C6H5O2+
109.0647	149	C7H9O+
110.9995	82	C6H4Cl+
114.0548	15	C5H8NO2+
117.0337	13	C8H5O+
118.0413	14	C8H6O+
121.0284	127	C7H5O2+
122.0362	369	C7H6O2+
125.0152	571	C7H6Cl+
126.0312	6	C6H6O3+
129.0101	17	C6H6ClO+
131.0492	18	C9H7O+
133.0282	8	C8H5O2+
135.0439	13	C8H7O2+
137.015	36	C8H6Cl+
137.0596	203	C8H9O2+
138.9945	529	C7H4ClO+
139.0057	447	C9HNO+
146.0361	8	C9H6O2+
149.0152	21	C9H6Cl+
150.0312	17	C8H6O3+
151.0381	8	C6H5N3O2+
151.054	46	C12H7+
152.062	929	C12H8+
153.0697	17	C12H9+
155.0702	15	C8H11O3+
162.9944	48	C9H4ClO+
163.054	24	C13H7+
164.0618	38	C13H8+
165.0546	656	C9H9O3+
165.0697	634	C13H9+
166.0776	249	C13H10+
167.0854	380	C13H11+
168.0566	20	C12H8O+
176.0619	142	C14H8+
177.0697	258	C14H9+
178.0776	332	C14H10+
179.0602	25	C12H7N2+
179.0853	64	C14H11+
180.0568	147	C13H8O+
181.0647	29	C13H9O+
187.0308	277	C12H8Cl+
192.0569	70	C14H8O+
193.0645	50	C11H12ClN+
193.076	13	C13H9N2+
194.0725	191	C14H10O+
195.0803	334	C14H11O+
198.0236	11	C13H7Cl+
199.0308	886	C13H8Cl+
200.0387	20	C13H9Cl+
201.0464	53	C13H10Cl+
205.0647	62	C15H9O+
205.0758	28	C14H9N2+
206.0725	15	C15H10O+
207.0805	43	C15H11O+
208.0519	35	C11H11ClNO+
208.0884	15	C15H12O+
211.0308	30	C14H8Cl+
212.0386	248	C14H9Cl+
213.0464	35	C14H10Cl+
215.0257	573	C13H8ClO+
220.0528	12	C15H8O2+
221.0595	29	C15H9O2+
222.0678	17	C15H10O2+
223.0752	166	C15H11O2+
226.0178	37	C14H7ClO+
227.0257	999	C14H8ClO+
228.0335	129	C14H9ClO+
229.0413	74	C14H10ClO+
230.0489	11	C14H11ClO+
235.0752	64	C16H11O2+
238.0988	36	C16H14O2+
239.0256	29	C15H8ClO+
240.0342	7	C15H9ClO+
241.0414	112	C15H10ClO+
242.0491	454	C15H11ClO+
243.0206	423	C14H8ClO2+
255.0205	11	C15H8ClO2+
257.0363	85	C15H10ClO2+
258.0439	78	C15H11ClO2+
283.0169	6	C16H8ClO3+
285.0309	7	C16H10ClO3+
388.1316	7	C21H23ClNO4+
