Mass spectrum: Thiamphenicol; LC-ESI-QFT; MS2; CE: 15; R=35000; [M+H]+
Name: Thiamphenicol
Name: 2,2-dichloro-N-[1,3-dihydroxy-1-(4-methylsulfonylphenyl)propan-2-yl]acetamide
Formula: C12H15Cl2NO5S
Exact mass: 355.00480
SMILES: CS(=O)(=O)C1=CC=C(C=C1)C(C(CO)NC(=O)C(Cl)Cl)O
InChI: InChI=1S/C12H15Cl2NO5S/c1-21(19,20)8-4-2-7(3-5-8)10(17)9(6-16)15-12(18)11(13)14/h2-5,9-11,16-17H,6H2,1H3,(H,15,18)
Instrument: Q Exactive Plus Orbitrap Thermo Scientific
Instrument type: LC-ESI-QFT
Ms type: MS2
Ion mode: POSITIVE
Ionization: ESI
Fragmentation mode: HCD
Collision energy: 15 (nominal)
Resolution: 35000
Column name: XBridge C18 3.5um, 2.1x50mm, Waters
Retention time: 3.7 min
Base peak: 373.0381
Precursor m/z: 356.0121
Precursor type: [M+H]+
m/z	relative intensity	assigned
82.9453	3	CHCl2+
127.9663	2	C2H4Cl2NO+
146.0602	1	C9H8NO+
169.0318	1	C8H9O2S+
198.0579	3	C9H12NO2S+
199.0421	3	C9H11O3S+
211.0424	11	C10H11O3S+
229.0054	11	C10H9Cl2NO+
241.0057	121	C11H9Cl2NO+
307.991	999	C11H12Cl2NO3S+
319.9909	20	C12H12Cl2NO3S+
326.0015	9	C11H14Cl2NO4S+
338.0015	724	C12H14Cl2NO4S+
340.0168	2	C12H16Cl2NO4S+
