Mass spectrum: Dienogest; LC-ESI-QFT; MS2; CE: 30; R=35000; [M+H]+
Name: Dienogest
Name: 2-[(8S,13S,14S,17R)-17-hydroxy-13-methyl-3-oxo-1,2,6,7,8,11,12,14,15,16-decahydrocyclopenta[a]phenanthren-17-yl]acetonitrile
Formula: C20H25NO2
Exact mass: 311.18853
SMILES: C[C@]12CCC3=C4CCC(=O)C=C4CC[C@H]3[C@@H]1CC[C@]2(CC#N)O
InChI: InChI=1S/C20H25NO2/c1-19-8-6-16-15-5-3-14(22)12-13(15)2-4-17(16)18(19)7-9-20(19,23)10-11-21/h12,17-18,23H,2-10H2,1H3/t17-,18+,19+,20-/m1/s1
Instrument: Q Exactive Orbitrap Thermo Scientific
Instrument type: LC-ESI-QFT
Ms type: MS2
Ion mode: POSITIVE
Ionization: ESI
Fragmentation mode: HCD
Collision energy: 30 (nominal)
Resolution: 35000
Column name: XBridge C18 3.5um, 2.1x50mm, Waters
Retention time: 8.2 min
Base peak: 312.1959
Precursor m/z: 312.1958
Precursor type: [M+H]+
m/z	relative intensity	assigned
81.0699	1	C6H9+
91.0542	1	C7H7+
93.0699	2	C7H9+
105.0698	1	C8H9+
107.049	2	C7H7O+
107.0856	2	C8H11+
119.0854	2	C9H11+
120.0809	1	C8H10N+
131.0856	1	C10H11+
132.0808	3	C9H10N+
133.0648	5	C9H9O+
133.1011	1	C10H13+
134.0964	5	C9H12N+
135.0804	19	C9H11O+
141.0698	1	C11H9+
143.0857	2	C11H11+
145.1012	1	C11H13+
146.0964	2	C10H12N+
147.0804	2	C10H11O+
148.1121	3	C10H14N+
149.0961	1	C10H13O+
157.0648	2	C11H9O+
158.0965	2	C11H12N+
159.0805	30	C11H11O+
161.0961	38	C11H13O+
162.1037	1	C11H14O+
172.1121	1	C12H14N+
173.0961	3	C12H13O+
175.112	1	C12H15O+
176.1071	3	C11H14NO+
184.112	1	C13H14N+
195.1169	1	C15H15+
211.1122	1	C15H15O+
211.1478	1	C16H19+
213.1274	1	C15H17O+
225.127	1	C16H17O+
229.159	1	C16H21O+
235.1481	2	C18H19+
242.1547	1	C16H20NO+
251.1427	2	C18H19O+
252.1746	1	C18H22N+
253.1587	12	C18H21O+
254.1537	1	C17H20NO+
254.1666	1	C18H22O+
266.1542	1	C18H20NO+
267.1744	1	C19H23O+
269.154	2	C18H21O2+
271.1693	7	C18H23O2+
276.1756	2	C20H22N+
277.1587	1	C20H21O+
294.1854	49	C20H24NO+
295.1697	1	C20H23O2+
312.1958	999	C20H26NO2+
