Mass spectrum: Trifloxystrobin; LC-ESI-QFT; MS2; CE: 75; R=35000; [M+H]+
Name: Trifloxystrobin
Name: Benzeneacetic acid, alpha-(methoxyimino)-2-((((1-(3-(trifluoromethyl)phenyl)ethylidene)amino)oxy)methyl)-, methyl ester, (E,E)-
Name: (2Z)-2-methoxyimino-2-[2-[[(E)-1-[3-(trifluoromethyl)phenyl]ethylideneamino]oxymethyl]phenyl]acetic acid methyl ester
Formula: C20H19F3N2O4
Exact mass: 408.12969
SMILES: c1(C(F)(F)F)cc(ccc1)\C(=N\OCc1c(cccc1)\C(C(=O)OC)=N\OC)C
InChI: InChI=1S/C20H19F3N2O4/c1-13(14-8-6-9-16(11-14)20(21,22)23)24-29-12-15-7-4-5-10-17(15)18(25-28-3)19(26)27-2/h4-11H,12H2,1-3H3/b24-13+,25-18-
Instrument: Q Exactive Orbitrap Thermo Scientific
Instrument type: LC-ESI-QFT
Ms type: MS2
Ion mode: POSITIVE
Ionization: ESI
Fragmentation mode: HCD
Collision energy: 75 (nominal)
Resolution: 35000
Column name: XBridge C18 3.5um, 2.1x50mm, Waters
Retention time: 14.7 min
Base peak: 409.1362
Precursor m/z: 409.137
Precursor type: [M+H]+
m/z	relative intensity	assigned
63.0228	6	C5H3+
65.0385	10	C5H5+
66.0463	5	C5H6+
71.029	2	C4H4F+
74.015	1	C6H2+
75.0039	2	C3HF2+
75.0226	6	C6H3+
77.0382	3	C6H5+
78.0462	3	C6H6+
79.054	10	C6H7+
89.0383	113	C7H5+
90.0336	3	C6H4N+
90.0461	31	C7H6+
91.054	68	C7H7+
95.0101	2	C3H2F3+
95.0287	6	C6H4F+
95.0488	5	C6H7O+
101.0195	3	C5H3F2+
103.054	15	C8H7+
104.0492	3	C7H6N+
104.0618	8	C8H8+
105.0444	2	C6H5N2+
105.0696	13	C8H9+
109.0445	3	C7H6F+
109.0645	1	C7H9O+
113.0394	19	C6H6FO+
115.0414	7	C8H5N+
115.054	4	C9H7+
116.0492	193	C8H6N+
117.057	72	C8H7N+
118.0648	68	C8H8N+
119.01	1	C5H2F3+
119.0489	10	C8H7O+
123.0349	35	C6H4FN2+
125.0194	21	C7H3F2+
128.0493	2	C9H6N+
130.0648	97	C9H8N+
131.0726	128	C9H9N+
132.044	17	C8H6NO+
132.0804	18	C9H10N+
133.0518	2	C8H7NO+
134.0597	5	C8H8NO+
143.0299	1	C7H5F2O+
143.0359	1	C9H5NO+
145.0256	999	C7H4F3+
146.0595	21	C9H8NO+
147.0674	2	C9H9NO+
159.041	2	C8H6F3+
161.0466	9	C9H7NO2+
163.036	9	C7H6F3O+
173.0316	70	C7H4F3N2+
186.052	73	C9H7F3N+
