Mass spectrum: Cycloxydim-TP BH 517-TSO E/Z-isomer; LC-ESI-QFT; MS2; CE: 60%; R=17500; [M-H]-
Name: Cycloxydim-TP BH 517-TSO E/Z-isomer
Name: Cycloxydim sulfoxide
Formula: C17H27NO4S
Exact mass: 341.1661
SMILES: CCC\C(=N/OCC)C1=C(O)CC(CC1=O)C1CCCS(=O)C1
InChI: InChI=1S/C17H27NO4S/c1-3-6-14(18-22-4-2)17-15(19)9-13(10-16(17)20)12-7-5-8-23(21)11-12/h12-13,19H,3-11H2,1-2H3/b18-14+
Instrument: Q Exactive Plus Orbitrap Thermo Scientific
Instrument type: LC-ESI-QFT
Ms type: MS2
Ion mode: NEGATIVE
Ionization: ESI
Fragmentation mode: HCD
Collision energy: 60 % (nominal)
Resolution: 17500
Column name: XBridge C18 3.5um, 2.1x50mm, Waters
Retention time: 7.752 min
Base peak: 340.1587
Precursor m/z: 340.1588
Precursor type: [M-H]-
m/z	relative intensity	assigned
58.9961	26	C2H3S-
59.0139	8	C2H3O2-
65.9985	153	C3NO-
82.0299	53	C4H4NO-
90.9859	10	C2H3O2S-
99.0274	167	C5H7S-
108.0217	19	C6H4O2-
108.0457	6	C6H6NO-
109.0294	24	C6H5O2-
110.0612	26	C6H8NO-
120.009	26	C6H2NO2-
121.0166	7	C6H3NO2-
125.0429	16	C7H9S-
133.0169	8	C7H3NO2-
133.0658	7	C9H9O-
134.0248	620	C7H4NO2-
135.0328	22	C7H5NO2-
136.0404	7	C7H6NO2-
139.0586	19	C8H11S-
141.0017	5	C6H5O2S-
146.0612	17	C9H8NO-
147.0322	4	C8H5NO2-
151.0222	11	C8H7OS-
158.0614	34	C10H8NO-
160.0403	24	C9H6NO2-
160.0766	47	C10H10NO-
162.056	51	C9H8NO2-
165.9967	64	C7H4NO2S-
172.077	12	C11H10NO-
174.0562	51	C10H8NO2-
174.0923	17	C11H12NO-
175.0635	11	C10H9NO2-
176.0721	23	C10H10NO2-
178.0871	10	C10H12NO2-
188.0714	29	C11H10NO2-
190.0875	39	C11H12NO2-
192.049	8	C10H10NOS-
200.0716	82	C12H10NO2-
201.0796	17	C12H11NO2-
202.0874	131	C12H12NO2-
204.103	35	C12H14NO2-
206.1192	5	C12H16NO2-
208.0442	5	C10H10NO2S-
218.0825	5	C12H12NO3-
234.0595	263	C12H12NO2S-
252.07	999	C12H14NO3S-
