Mass spectrum: Efavirenz; LC-ESI-QFT; MS2; CE: 15; R=35000; [M-H]-
Name: Efavirenz
Name: (4S)-6-chloro-4-(2-cyclopropylethynyl)-4-(trifluoromethyl)-1H-3,1-benzoxazin-2-one
Formula: C14H9ClF3NO2
Exact mass: 315.02739
SMILES: C1CC1C#C[C@]2(C3=C(C=CC(=C3)Cl)NC(=O)O2)C(F)(F)F
InChI: InChI=1S/C14H9ClF3NO2/c15-9-3-4-11-10(7-9)13(14(16,17)18,21-12(20)19-11)6-5-8-1-2-8/h3-4,7-8H,1-2H2,(H,19,20)/t13-/m0/s1
Instrument: Q Exactive Orbitrap Thermo Scientific
Instrument type: LC-ESI-QFT
Ms type: MS2
Ion mode: NEGATIVE
Ionization: ESI
Fragmentation mode: HCD
Collision energy: 15 (nominal)
Resolution: 35000
Column name: XBridge C18 3.5um, 2.1x50mm, Waters
Retention time: 12.9 min
Base peak: 314.0206
Precursor m/z: 314.0201
Precursor type: [M-H]-
m/z	relative intensity	assigned
65.0396	2	C5H5-
68.9957	117	CF3-
111.0064	6	C3H2F3O-
126.0116	2	C6H5ClN-
149.0217	1	C6H4F3O-
151.9907	2	C7H3ClNO-
161.022	14	C7H4F3O-
200.0274	20	C12H7ClN-
201.0111	1	C12H6ClO-
202.0068	1	C11H5ClNO-
208.0406	1	C13H6NO2-
210.0115	3	C13H5ClN-
214.0475	28	C13H6F2N-
216.0222	15	C12H7ClNO-
221.9934	2	C11H3ClF2N-
226.0065	2	C13H5ClNO-
230.0179	123	C13H6ClFN-
241.9991	108	C11H4ClF3N-
244.0171	192	C13H7ClNO2-
245.0247	2	C13H8ClNO2-
245.9938	2	C10H4ClF3NO-
246.0127	5	C13H6ClFNO-
247.9728	2	C9H2ClF3NO2-
250.0241	61	C13H7ClF2N-
254.0015	4	C14H5ClNO2-
264.0234	3	C13H8ClFNO2-
270.0303	36	C13H8ClF3N-
274.0077	12	C14H6ClFNO2-
278.0429	1	C14H7F3NO2-
286.0258	1	C13H8ClF3NO-
294.0138	6	C14H7ClF2NO2-
296.0097	7	C14H6ClF3NO-
314.0203	999	C14H8ClF3NO2-
