Mass spectrum: Olanzapine; LC-ESI-QFT; MS2; CE: 150; R=35000; [M+H]+
Name: Olanzapine
Name: 2-methyl-4-(4-methylpiperazin-1-yl)-5H-thieno[3,2-c][1,5]benzodiazepine
Formula: C17H20N4S
Exact mass: 312.14087
SMILES: CC1=CC2=C(NC3=CC=CC=C3N=C2S1)N4CCN(CC4)C
InChI: InChI=1S/C17H20N4S/c1-12-11-13-16(21-9-7-20(2)8-10-21)18-14-5-3-4-6-15(14)19-17(13)22-12/h3-6,11,18H,7-10H2,1-2H3
Instrument: Q Exactive Plus Orbitrap Thermo Scientific
Instrument type: LC-ESI-QFT
Ms type: MS2
Ion mode: POSITIVE
Ionization: ESI
Fragmentation mode: HCD
Collision energy: 150 (nominal)
Resolution: 35000
Column name: XBridge C18 3.5um, 2.1x50mm, Waters
Retention time: 3.1 min
Base peak: 313.1474
Precursor m/z: 313.1481
Precursor type: [M+H]+
m/z	relative intensity	assigned
50.0151	40	C4H2+
51.0229	28	C4H3+
52.0182	10	C3H2N+
52.0307	1	C4H4+
53.0022	17	C3HO+
53.0386	50	C4H5+
53.9975	2	C2NO+
54.0339	6	C3H4N+
55.0179	3	C3H3O+
56.0495	28	C3H6N+
57.0573	6	C3H7N+
57.9872	18	C2H2S+
58.0651	67	C3H8N+
58.995	99	C2H3S+
59.9665	10	COS+
59.9903	6	CH2NS+
61.0072	2	C5H+
62.015	18	C5H2+
63.0229	71	C5H3+
64.0182	20	C4H2N+
64.0308	6	C5H4+
65.0386	321	C5H5+
66.0338	6	C4H4N+
66.0464	13	C5H6+
67.0417	14	C4H5N+
68.0495	9	C4H6N+
68.9793	224	C3HS+
69.9746	23	C2NS+
69.9872	16	C3H2S+
70.0652	3	C4H8N+
70.995	40	C3H3S+
74.0151	30	C6H2+
75.0229	126	C6H3+
76.0181	23	C5H2N+
76.0307	42	C6H4+
77.0385	68	C6H5+
78.0338	38	C5H4N+
78.0464	22	C6H6+
79.0417	9	C5H5N+
79.0543	6	C6H7+
80.0495	12	C5H6N+
81.0335	8	C5H5O+
81.9872	18	C4H2S+
82.0651	2	C5H8N+
82.9951	10	C4H3S+
83.0603	2	C4H7N2+
84.0029	2	C4H4S+
85.0107	9	C4H5S+
85.0761	7	C4H9N2+
87.0229	15	C7H3+
88.0183	11	C6H2N+
88.0308	26	C7H4+
89.0386	308	C7H5+
90.0339	38	C6H4N+
90.0465	66	C7H6+
91.0417	27	C6H5N+
91.0543	47	C7H7+
92.0495	32	C6H6N+
92.9794	11	C5HS+
93.0574	5	C6H7N+
93.9746	10	C4NS+
93.9873	5	C5H2S+
94.0415	1	C6H6O+
94.995	11	C5H3S+
95.0492	117	C6H7O+
95.9903	58	C4H2NS+
96.0029	21	C5H4S+
96.0444	20	C5H6NO+
97.0108	5	C5H5S+
98.0152	6	C8H2+
99.0229	47	C8H3+
100.0181	17	C7H2N+
100.0308	33	C8H4+
101.026	8	C7H3N+
101.0386	20	C8H5+
102.0339	50	C7H4N+
102.0464	465	C8H6+
103.0417	40	C7H5N+
103.0543	11	C8H7+
104.0495	27	C7H6N+
105.0448	89	C6H5N2+
106.9951	6	C6H3S+
108.0028	39	C6H4S+
109.0107	133	C6H5S+
110.006	2	C5H4NS+
113.0386	94	C9H5+
114.0339	84	C8H4N+
114.0465	39	C9H6+
115.0417	62	C8H5N+
115.0543	999	C9H7+
116.0495	191	C8H6N+
116.062	18	C9H8+
117.0573	68	C8H7N+
117.9872	6	C7H2S+
118.0414	13	C8H6O+
118.0524	10	C7H6N2+
118.0652	8	C8H8N+
118.9951	12	C7H3S+
119.0492	18	C8H7O+
119.0604	10	C7H7N2+
120.0029	25	C7H4S+
120.0209	1	H4N6S+
120.0445	18	C7H6NO+
120.9981	6	C6H3NS+
121.0107	17	C7H5S+
122.0061	11	C6H4NS+
122.0186	22	C7H6S+
125.0387	144	C10H5+
126.0338	24	C9H4N+
126.0465	130	C10H6+
127.0417	493	C9H5N+
127.0542	52	C10H7+
128.037	8	C8H4N2+
128.0495	98	C9H6N+
128.0621	23	C10H8+
129.0447	114	C8H5N2+
129.0573	23	C9H7N+
130.0401	90	C7H4N3+
130.0652	10	C9H8N+
131.0605	12	C8H7N2+
132.003	1	C8H4S+
132.0444	3	C8H6NO+
132.057	19	C9H8O+
132.9981	9	C7H3NS+
133.0522	8	C8H7NO+
134.006	20	C7H4NS+
134.0185	15	C8H6S+
134.0601	18	C8H8NO+
135.0138	5	C7H5NS+
136.0217	7	C7H6NS+
138.0339	12	C10H4N+
139.0417	5	C10H5N+
139.0542	15	C11H7+
140.0495	476	C10H6N+
141.0451	14	C9H5N2+
141.0574	123	C10H7N+
142.0527	132	C9H6N2+
142.0651	50	C10H8N+
143.0492	26	C10H7O+
143.0605	28	C9H7N2+
143.0731	6	C10H9N+
143.9905	1	C8H2NS+
144.003	18	C9H4S+
144.0445	8	C9H6NO+
144.0559	1	C8H6N3+
144.9987	14	C8H3NS+
145.0107	157	C9H5S+
145.0648	36	C10H9O+
146.006	100	C8H4NS+
146.0185	143	C9H6S+
146.06	21	C9H8NO+
147.0138	7	C8H5NS+
147.055	3	C8H7N2O+
148.0218	2	C8H6NS+
149.0058	9	C8H5OS+
150.0137	11	C8H6OS+
150.0466	2	C12H6+
151.0416	27	C11H5N+
152.0496	138	C11H6N+
153.0448	166	C10H5N2+
153.0574	83	C11H7N+
154.0401	44	C9H4N3+
154.0526	61	C10H6N2+
154.0652	83	C11H8N+
155.0604	133	C10H7N2+
156.0686	7	C10H8N2+
157.0106	3	C10H5S+
157.0525	11	C10H7NO+
157.0765	1	C10H9N2+
158.0186	30	C10H6S+
158.0478	3	C9H6N2O+
159.0139	15	C9H5NS+
159.0264	17	C10H7S+
159.0555	7	C9H7N2O+
160.0215	7	C9H6NS+
160.0343	10	C10H8S+
160.076	3	C10H10NO+
161.0166	5	C8H5N2S+
162.0124	1	C7H4N3S+
164.0494	10	C12H6N+
165.0449	20	C11H5N2+
165.0573	3	C12H7N+
166.0528	23	C11H6N2+
166.0649	17	C12H8N+
167.0605	67	C11H7N2+
167.0726	18	C12H9N+
168.0683	137	C11H8N2+
169.011	2	C11H5S+
169.0646	6	C12H9O+
169.0761	37	C11H9N2+
170.006	254	C10H4NS+
170.0601	207	C11H8NO+
171.0138	69	C10H5NS+
171.0553	34	C10H7N2O+
172.0216	39	C10H6NS+
173.017	8	C9H5N2S+
173.0294	6	C10H7NS+
174.0246	2	C9H6N2S+
175.0089	1	C9H5NOS+
177.0448	2	C12H5N2+
177.0574	3	C13H7N+
178.0528	17	C12H6N2+
178.0653	7	C13H8N+
179.0605	337	C12H7N2+
180.0557	70	C11H6N3+
180.0677	14	C12H8N2+
181.0639	3	C11H7N3+
181.0762	24	C12H9N2+
182.0717	6	C11H8N3+
182.0839	2	C12H10N2+
183.014	8	C11H5NS+
184.0216	56	C11H6NS+
185.0166	6	C10H5N2S+
185.0294	51	C11H7NS+
185.071	6	C11H9N2O+
186.0366	42	C11H8NS+
187.0323	1	C10H7N2S+
189.0243	6	C10H7NOS+
191.0606	3	C13H7N2+
192.0681	24	C13H8N2+
193.0636	8	C12H7N3+
193.0763	19	C13H9N2+
194.0714	27	C12H8N3+
194.0837	2	C13H10N2+
195.0794	2	C12H9N3+
195.0919	6	C13H11N2+
196.0218	8	C12H6NS+
196.0867	3	C12H10N3+
197.017	200	C11H5N2S+
198.0247	71	C11H6N2S+
198.037	13	C12H8NS+
199.0328	2	C11H7N2S+
199.0457	2	C12H9NS+
200.0407	1	C11H8N2S+
202.032	11	C11H8NOS+
203.0604	1	C14H7N2+
205.0765	13	C14H9N2+
206.0715	23	C13H8N3+
206.0837	3	C14H10N2+
207.0793	25	C13H9N3+
208.0871	2	C13H10N3+
210.0249	15	C12H6N2S+
211.0326	115	C12H7N2S+
212.0406	10	C12H8N2S+
213.0481	6	C12H9N2S+
218.0719	5	C14H8N3+
219.0797	3	C14H9N3+
220.0869	25	C14H10N3+
221.0948	2	C14H11N3+
222.1028	2	C14H12N3+
223.0329	3	C13H7N2S+
224.0403	9	C13H8N2S+
225.0482	7	C13H9N2S+
237.0485	2	C14H9N2S+
238.0438	2	C13H8N3S+
