Mass spectrum: Tembotrione; LC-ESI-QFT; MS2; CE: 30; R=35000; [M+H]+
Name: Tembotrione
Name: 2-{2-Chloro-4-(methylsulfonyl)-3-[(2,2,2-trifluoroethoxy)methyl]benzoyl}-1,3-cyclohexanedione
Formula: C17H16ClF3O6S
Exact mass: 440.03082
SMILES: O=C(c1ccc(c(c1Cl)COCC(F)(F)F)S(=O)(=O)C)C2C(=O)CCCC2=O
InChI: InChI=1S/C17H16ClF3O6S/c1-28(25,26)13-6-5-9(15(18)10(13)7-27-8-17(19,20)21)16(24)14-11(22)3-2-4-12(14)23/h5-6,14H,2-4,7-8H2,1H3
Instrument: Q Exactive Orbitrap Thermo Scientific
Instrument type: LC-ESI-QFT
Ms type: MS2
Ion mode: POSITIVE
Ionization: ESI
Fragmentation mode: HCD
Collision energy: 30 (nominal)
Resolution: 35000
Column name: XBridge C18 3.5um, 2.1x50mm, Waters
Retention time: 9.9 min
Base peak: 458.0644
Precursor m/z: 441.0381
Precursor type: [M+H]+
m/z	relative intensity	assigned
184.9999	2	C6H8ClF2S+
230.0573	18	C13H10O4+
233.0362	6	C13H10ClO2+
241.0857	86	C13H15F2S+
242.0572	5	C12H12F2OS+
242.0933	9	C13H16F2S+
243.065	18	C12H13F2OS+
245.0444	15	C13H9O5+
245.0784	1	C12H12F3O2+
246.0343	26	C13H10O3S+
259.0602	10	C14H11O5+
260.0234	6	C14H9ClO3+
261.0312	493	C14H10ClO3+
262.0389	999	C12H13ClF2S+
277.0261	25	C12H12ClF2OS+
289.016	1	C14H9O5S+
290.0241	20	C14H10O5S+
305.0475	531	C15H13O5S+
306.055	2	C15H14O5S+
341.0242	206	C15H14ClO5S+
