Mass spectrum: Methiocarb Sulfone; LC-ESI-QFT; MS2; CE: 90%; R=17500; [M+H]+
Name: Methiocarb Sulfone
Name: (3,5-dimethyl-4-methylsulfonylphenyl) N-methylcarbamate
Formula: C11H15NO4S
Exact mass: 257.0722
SMILES: CC1=CC(=CC(=C1S(=O)(=O)C)C)OC(=O)NC
InChI: InChI=1S/C11H15NO4S/c1-7-5-9(16-11(13)12-3)6-8(2)10(7)17(4,14)15/h5-6H,1-4H3,(H,12,13)
Instrument: Exploris 240 Orbitrap Thermo Scientific
Instrument type: LC-ESI-QFT
Ms type: MS2
Ion mode: POSITIVE
Ionization: ESI
Fragmentation mode: HCD
Collision energy: 90 % (nominal)
Resolution: 17500
Column name: XBridge C18 3.5um, 2.1x50mm, Waters
Retention time: 4.261 min
Base peak: 132.9582
Precursor m/z: 258.0795
Precursor type: [M+H]+
m/z	relative intensity	assigned
79.0542	136	C6H7+
107.0492	999	C7H7O+
121.065	251	C8H9O+
122.0728	485	C8H10O+
