Mass spectrum: Cyanazine; LC-ESI-ITFT; MS2; CE: 35%; R=7500; [M+H]+
Name: Cyanazine
Name: 2-[[4-chloranyl-6-(ethylamino)-1,3,5-triazin-2-yl]amino]-2-methyl-propanenitrile
Formula: C9H13ClN6
Exact mass: 240.0890
SMILES: CCNC1=NC(=NC(=N1)Cl)NC(C)(C)C#N
InChI: InChI=1S/C9H13ClN6/c1-4-12-7-13-6(10)14-8(15-7)16-9(2,3)5-11/h4H2,1-3H3,(H2,12,13,14,15,16)
Instrument: LTQ Orbitrap XL Thermo Scientific
Instrument type: LC-ESI-ITFT
Ms type: MS2
Ion mode: POSITIVE
Ionization: ESI
Fragmentation mode: CID
Collision energy: 35 % (nominal)
Resolution: 7500
Column name: XBridge C18 3.5um, 2.1x50mm, Waters
Retention time: 6.6 min
Base peak: 241.0971
Precursor m/z: 241.0963
Precursor type: [M+H]+
m/z	relative intensity	assigned
96.0556	6	C4H6N3+
104.0013	1	C2H3ClN3+
110.0714	2	C5H8N3+
163.0979	13	C8H11N4+
171.0437	2	C6H8ClN4+
174.0541	17	C5H9ClN5+
177.089	2	C7H9N6+
178.1084	3	C8H12N5+
186.0539	2	C6H9ClN5+
205.1197	146	C9H13N6+
214.0857	999	C8H13ClN5+
