Mass spectrum: Atrazine-desisopropyl; LC-ESI-ITFT; MS2; CE: 35%; R=7500; [M+H]+
Name: Atrazine-desisopropyl
Name: Deisopropylatrazine
Name: (4-amino-6-chloro-s-triazin-2-yl)-ethyl-amine
Formula: C5H8ClN5
Exact mass: 173.0468
SMILES: c1(nc(nc(n1)Cl)N)NCC
InChI: InChI=1S/C5H8ClN5/c1-2-8-5-10-3(6)9-4(7)11-5/h2H2,1H3,(H3,7,8,9,10,11)
Instrument: LTQ Orbitrap XL Thermo Scientific
Instrument type: LC-ESI-ITFT
Ms type: MS2
Ion mode: POSITIVE
Ionization: ESI
Fragmentation mode: CID
Collision energy: 35 % (nominal)
Resolution: 7500
Column name: XBridge C18 3.5um, 2.1x50mm, Waters
Retention time: 4.3 min
Base peak: 174.0541
Precursor m/z: 174.0541
Precursor type: [M+H]+
m/z	relative intensity	assigned
68.0242	10	C2H2N3+
79.0058	137	CH4ClN2+
96.0556	93	C4H6N3+
104.001	16	C2H3ClN3+
110.0458	8	C3H4N5+
132.0323	220	C4H7ClN3+
138.0775	76	C5H8N5+
146.0228	274	C3H5ClN5+
174.0542	999	C5H9ClN5+
