Mass spectrum: Sulfurol; LC-ESI-QFT; MS2; CE: 30%; R=17500; [M+H]+
Name: Sulfurol
Name: 4-Methyl-5-thiazoleethanol
Name: 2-(4-methyl-1,3-thiazol-5-yl)ethanol
Formula: C6H9NOS
Exact mass: 143.0404849
SMILES: CC1=C(SC=N1)CCO
InChI: InChI=1S/C6H9NOS/c1-5-6(2-3-8)9-4-7-5/h4,8H,2-3H2,1H3
Instrument: Exploris 240 Orbitrap Thermo Scientific
Instrument type: LC-ESI-QFT
Ms type: MS2
Ion mode: POSITIVE
Ionization: ESI
Fragmentation mode: HCD
Collision energy: 30 % (nominal)
Resolution: 17500
Column name: XBridge C18 3.5um, 2.1x50mm, Waters
Retention time: 1.742 min
Base peak: 144.0476
Precursor m/z: 144.0478
Precursor type: [M+H]+
m/z	relative intensity	assigned
113.0295	5	C5H7NS+
114.0367	1	C5H8NS+
126.0371	7	C6H8NS+
144.0476	999	C6H10NOS+
