Mass spectrum: Nafcillin; LC-ESI-QFT; MS2; CE: 180; R=35000; [M+H]+
Name: Nafcillin
Name: (2S,5R,6R)-6-[(2-ethoxynaphthalene-1-carbonyl)amino]-3,3-dimethyl-7-oxo-4-thia-1-azabicyclo[3.2.0]heptane-2-carboxylic acid
Formula: C21H22N2O5S
Exact mass: 414.12494
SMILES: CCOC1=C(C(=O)N[C@H]2[C@H]3SC(C)(C)[C@@H](N3C2=O)C(O)=O)C2=CC=CC=C2C=C1
InChI: InChI=1S/C21H22N2O5S/c1-4-28-13-10-9-11-7-5-6-8-12(11)14(13)17(24)22-15-18(25)23-16(20(26)27)21(2,3)29-19(15)23/h5-10,15-16,19H,4H2,1-3H3,(H,22,24)(H,26,27)/t15-,16+,19-/m1/s1
Instrument: Q Exactive Plus Orbitrap Thermo Scientific
Instrument type: LC-ESI-QFT
Ms type: MS2
Ion mode: POSITIVE
Ionization: ESI
Fragmentation mode: HCD
Collision energy: 180 (nominal)
Resolution: 35000
Column name: XBridge C18 3.5um, 2.1x50mm, Waters
Retention time: 9.4 min
Base peak: 415.1318
Precursor m/z: 415.1322
Precursor type: [M+H]+
m/z	relative intensity	assigned
50.0151	25	C4H2+
51.0229	20	C4H3+
53.0022	24	C3HO+
53.0386	17	C4H5+
53.9974	5	C2NO+
57.9872	3	C2H2S+
58.995	15	C2H3S+
61.0072	26	C5H+
62.0151	135	C5H2+
63.0229	703	C5H3+
64.0306	5	C5H4+
65.0386	521	C5H5+
66.0464	1	C5H6+
67.9892	1	C3O2+
74.015	60	C6H2+
75.0229	117	C6H3+
76.0307	15	C6H4+
77.0385	28	C6H5+
78.0464	9	C6H6+
80.0494	5	C5H6N+
81.0333	1	C5H5O+
86.0151	30	C7H2+
87.0229	66	C7H3+
88.0307	66	C7H4+
89.0385	999	C7H5+
90.0464	18	C7H6+
91.0542	7	C7H7+
92.0256	1	C6H4O+
95.0491	64	C6H7O+
99.0229	14	C8H3+
100.0306	5	C8H4+
101.0386	5	C8H5+
102.0464	19	C8H6+
103.0541	4	C8H7+
105.0447	35	C6H5N2+
113.0385	85	C9H5+
114.0464	48	C9H6+
115.0542	592	C9H7+
118.0412	8	C8H6O+
119.0491	7	C8H7O+
120.0206	7	C7H4O2+
125.0386	9	C10H5+
126.0464	68	C2H10N2O2S+
127.0542	31	C10H7+
128.062	16	C10H8+
129.0446	15	C8H5N2+
131.0491	1	C9H7O+
132.0569	26	C9H8O+
139.0541	27	C11H7+
140.0495	25	C10H6N+
143.049	1	C10H7O+
145.0647	15	C10H9O+
150.0464	11	C12H6+
151.0541	3	C12H7+
152.0495	1	C11H6N+
152.062	23	C12H8+
153.0448	1	C10H5N2+
153.057	5	C11H7N+
154.0648	1	C11H8N+
155.0603	27	C10H7N2+
163.0541	2	C13H7+
164.0493	5	C12H6N+
166.0652	4	C12H8N+
169.0647	10	C12H9O+
170.0599	6	C11H8NO+
179.0602	4	C12H7N2+
182.06	1	C12H8NO+
