Mass spectrum: Penconazole; LC-ESI-QFT; MS2; CE: 90; R=35000; [M+H]+
Name: Penconazole
Name: 1-[2-(2,4-dichlorophenyl)pentyl]-1,2,4-triazole
Formula: C13H15Cl2N3
Exact mass: 283.06430
SMILES: Clc1ccc(c(Cl)c1)C(CCC)Cn2ncnc2
InChI: InChI=1S/C13H15Cl2N3/c1-2-3-10(7-18-9-16-8-17-18)12-5-4-11(14)6-13(12)15/h4-6,8-10H,2-3,7H2,1H3
Instrument: Q Exactive Plus Orbitrap Thermo Scientific
Instrument type: LC-ESI-QFT
Ms type: MS2
Ion mode: POSITIVE
Ionization: ESI
Fragmentation mode: HCD
Collision energy: 90 (nominal)
Resolution: 35000
Column name: XBridge C18 3.5um, 2.1x50mm, Waters
Retention time: 12.7 min
Base peak: 284.0713
Precursor m/z: 284.0716
Precursor type: [M+H]+
m/z	relative intensity	assigned
63.0229	1	C5H3+
65.0385	1	C5H5+
70.0399	983	C2H4N3+
72.9838	7	C3H2Cl+
74.9995	1	C3H4Cl+
75.0228	3	C6H3+
77.0385	1	C6H5+
89.0385	45	C7H5+
91.0541	3	C7H7+
96.9839	4	C5H2Cl+
98.9995	54	C5H4Cl+
101.0385	4	C8H5+
102.0464	63	C8H6+
103.0541	2	C8H7+
119.0491	7	C5H10ClN+
122.9995	241	C7H4Cl+
124.0074	84	C7H5Cl+
129.0446	26	C8H5N2+
132.9606	33	C5H3Cl2+
137.0152	33	C8H6Cl+
138.023	8	C8H7Cl+
158.9762	999	C7H5Cl2+
172.9918	7	C8H7Cl2+
