Mass spectrum: 6-2-PAP; LC-ESI-QFT; MS2; CE: 150%; R=17500; [M+H]+
Name: 6-2-PAP
Name: Perfluorooctyl phosphate
Name: 3,3,4,4,5,5,6,6,7,7,8,8,8-tridecafluorooctyl dihydrogen phosphate
Formula: C8H6F13O4P
Exact mass: 443.979612162
SMILES: C(COP(=O)(O)O)C(C(C(C(C(C(F)(F)F)(F)F)(F)F)(F)F)(F)F)(F)F
InChI: InChI=1S/C8H6F13O4P/c9-3(10,1-2-25-26(22,23)24)4(11,12)5(13,14)6(15,16)7(17,18)8(19,20)21/h1-2H2,(H2,22,23,24)
Instrument: Exploris 240 Orbitrap Thermo Scientific
Instrument type: LC-ESI-QFT
Ms type: MS2
Ion mode: POSITIVE
Ionization: ESI
Fragmentation mode: HCD
Collision energy: 150 % (nominal)
Resolution: 17500
Column name: XBridge C18 3.5um, 2.1x50mm, Waters
Retention time: 9.545 min
Base peak: 444.9865
Precursor m/z: 444.9869
Precursor type: [M+H]+
m/z	relative intensity	assigned
51.004	6	CHF2+
62.963	221	O2P+
65.0199	3	C2H3F2+
68.9947	25	CF3+
80.9736	207	H2O3P+
98.9841	999	H4O4P+
112.9999	6	CH6O4P+
