Mass spectrum: Mycophenolic acid; LC-ESI-ITFT; MS2; CE: 75%; R=7500; [M+H]+
Name: Mycophenolic acid
Name: (E)-6-(4-hydroxy-3-keto-6-methoxy-7-methyl-phthalan-5-yl)-4-methyl-hex-4-enoic acid
Formula: C17H20O6
Exact mass: 320.1260
SMILES: c12c(c(c(C\C=C(\CCC(O)=O)C)c(c1C)OC)O)C(=O)OC2
InChI: InChI=1S/C17H20O6/c1-9(5-7-13(18)19)4-6-11-15(20)14-12(8-23-17(14)21)10(2)16(11)22-3/h4,20H,5-8H2,1-3H3,(H,18,19)/b9-4+
Instrument: LTQ Orbitrap XL Thermo Scientific
Instrument type: LC-ESI-ITFT
Ms type: MS2
Ion mode: POSITIVE
Ionization: ESI
Fragmentation mode: HCD
Collision energy: 75 % (nominal)
Resolution: 7500
Column name: XBridge C18 3.5um, 2.1x50mm, Waters
Retention time: 9.9 min
Base peak: 321.1329
Precursor m/z: 321.1333
Precursor type: [M+H]+
m/z	relative intensity	assigned
67.054	1	C5H7+
77.0386	34	C6H5+
79.0542	5	C6H7+
81.0699	12	C6H9+
91.0542	181	C7H7+
93.0699	3	C7H9+
95.0493	3	C6H7O+
97.0646	1	C6H9O+
102.0464	2	C8H6+
103.0543	154	C8H7+
105.0334	2	C7H5O+
105.0447	9	C6H5N2+
105.0697	3	C8H9+
107.0496	1	C7H7O+
109.0648	2	C7H9O+
117.0333	7	C8H5O+
121.0648	3	C8H9O+
131.0491	67	C9H7O+
133.0654	3	C9H9O+
135.0804	15	C9H11O+
136.0518	3	C8H8O2+
139.0755	3	C8H11O2+
145.0647	5	C10H9O+
147.0443	1	C9H7O2+
149.0596	15	C9H9O2+
159.0439	999	C10H7O2+
161.0595	3	C10H9O2+
163.0387	1	C9H7O3+
165.0548	1	C9H9O3+
175.0753	9	C11H11O2+
177.0545	147	C10H9O3+
179.0702	32	C10H11O3+
185.0963	2	C13H13O+
189.0915	2	C12H13O2+
191.0702	3	C11H11O3+
192.0419	1	C10H8O4+
193.0494	3	C10H9O4+
195.0651	15	C10H11O4+
207.0652	221	C11H11O4+
215.1062	4	C14H15O2+
221.08	2	C12H13O4+
