Mass spectrum: Triadimefon; LC-ESI-QFT; MS2; CE: 75%; R=17500; [M+H]+
Name: Triadimefon
Name: 1-(4-chlorophenoxy)-3,3-dimethyl-1-(1,2,4-triazol-1-yl)butan-2-one
Formula: C14H16ClN3O2
Exact mass: 293.0931
SMILES: CC(C)(C)C(=O)C(N1C=NC=N1)OC2=CC=C(C=C2)Cl
InChI: InChI=1S/C14H16ClN3O2/c1-14(2,3)12(19)13(18-9-16-8-17-18)20-11-6-4-10(15)5-7-11/h4-9,13H,1-3H3
Instrument: Exploris 240 Orbitrap Thermo Scientific
Instrument type: LC-ESI-QFT
Ms type: MS2
Ion mode: POSITIVE
Ionization: ESI
Fragmentation mode: HCD
Collision energy: 75 % (nominal)
Resolution: 17500
Column name: XBridge C18 3.5um, 2.1x50mm, Waters
Retention time: 8.986 min
Base peak: 294.1001
Precursor m/z: 294.1004
Precursor type: [M+H]+
m/z	relative intensity	assigned
55.0542	134	C4H7+
57.0699	999	C4H9+
67.0542	39	C5H7+
69.0699	848	C5H9+
70.0777	274	C5H10+
77.0386	37	C6H5+
91.0545	29	C7H7+
98.9996	282	C5H4Cl+
111.0001	27	C6H4Cl+
113.0153	93	C6H6Cl+
126.9945	335	C6H4ClO+
129.0101	150	C6H6ClO+
139.0057	168	C6H4ClN2+
141.01	185	C7H6ClO+
155.0257	73	C8H8ClO+
