Mass spectrum: Imazamox; LC-ESI-ITFT; MS2; CE: 60%; R=15000; [M+H]+
Name: Imazamox
Name: 2-(4-isopropyl-5-keto-4-methyl-2-imidazolin-2-yl)-5-(methoxymethyl)nicotinic acid
Formula: C15H19N3O4
Exact mass: 305.1376
SMILES: O=C(O)c1c(ncc(c1)COC)/C2=N/C(C(=O)N2)(C(C)C)C
InChI: InChI=1S/C15H19N3O4/c1-8(2)15(3)14(21)17-12(18-15)11-10(13(19)20)5-9(6-16-11)7-22-4/h5-6,8H,7H2,1-4H3,(H,19,20)(H,17,18,21)
Instrument: LTQ Orbitrap XL Thermo Scientific
Instrument type: LC-ESI-ITFT
Ms type: MS2
Ion mode: POSITIVE
Ionization: ESI
Fragmentation mode: HCD
Collision energy: 60 % (nominal)
Resolution: 15000
Column name: XBridge C18 3.5um, 2.1x50mm, Waters
Retention time: 5.7 min
Base peak: 306.1456
Precursor m/z: 306.1448
Precursor type: [M+H]+
m/z	relative intensity	assigned
58.0652	6	C3H8N+
67.0542	9	C5H7+
69.0699	307	C5H9+
71.0728	2	C4H9N+
86.0965	818	C5H12N+
97.0648	21	C6H9O+
109.0649	3	C7H9O+
114.0918	2	C6H12NO+
118.0528	3	C7H6N2+
119.0604	8	C7H7N2+
120.0447	2	C7H6NO+
121.0393	4	C6H5N2O+
122.06	14	C7H8NO+
135.0547	2	C7H7N2O+
140.0707	3	C7H10NO2+
145.0396	26	C8H5N2O+
147.0551	7	C8H7N2O+
148.0631	37	C8H8N2O+
149.071	140	C8H9N2O+
150.0428	3	C7H6N2O2+
150.0548	4	C8H8NO2+
151.0866	4	C8H11N2O+
159.0552	6	C9H7N2O+
160.0508	4	C8H6N3O+
161.0585	14	C8H7N3O+
161.071	26	C9H9N2O+
162.0423	15	C8H6N2O2+
162.0661	7	C8H8N3O+
163.0502	465	C8H7N2O2+
165.0655	4	C8H9N2O2+
168.0654	6	C8H10NO3+
175.0502	142	C9H7N2O2+
177.0659	47	C9H9N2O2+
177.1022	8	C10H13N2O+
180.0653	7	C9H10NO3+
187.0739	9	C10H9N3O+
187.0868	7	C11H11N2O+
188.0819	6	C10H10N3O+
189.1019	5	C11H13N2O+
191.0816	274	C10H11N2O2+
192.0768	352	C9H10N3O2+
193.0609	999	C9H9N2O3+
195.0766	2	C9H11N2O3+
203.0686	5	C10H9N3O2+
204.089	2	C11H12N2O2+
205.0609	4	C10H9N2O3+
212.094	8	C13H12N2O+
213.1024	5	C13H13N2O+
215.0689	22	C11H9N3O2+
216.077	18	C11H10N3O2+
217.0845	23	C11H11N3O2+
217.1335	46	C13H17N2O+
218.0925	628	C11H12N3O2+
219.1128	55	C12H15N2O2+
220.0968	10	C12H14NO3+
220.1079	19	C11H14N3O2+
221.0918	12	C11H13N2O3+
228.0894	2	C13H12N2O2+
235.0951	48	C11H13N3O3+
243.1129	116	C14H15N2O2+
245.0793	40	C12H11N3O3+
246.0874	662	C12H12N3O3+
260.139	47	C14H18N3O2+
261.1233	199	C14H17N2O3+
263.09	22	C12H13N3O4+
264.0979	77	C12H14N3O4+
