Mass spectrum: Ranitidine; LC-ESI-ITFT; MS2; CE: 45%; R=15000; [M+H]+
Name: Ranitidine
Name: 1,1-Ethenediamine, N-(2-(((5-((dimethylamino)methyl)-2-furanyl)methyl)thio)ethyl)-N'-methyl-2-nitro-
Name: 1-N'-[2-[[5-(dimethylaminomethyl)furan-2-yl]methylsulfanyl]ethyl]-1-N-methyl-2-nitroethene-1,1-diamine
Formula: C13H22N4O3S
Exact mass: 314.1413
SMILES: CN\C(NCCSCC1=CC=C(CN(C)C)O1)=C/[N+]([O-])=O
InChI: InChI=1S/C13H22N4O3S/c1-14-13(9-17(18)19)15-6-7-21-10-12-5-4-11(20-12)8-16(2)3/h4-5,9,14-15H,6-8,10H2,1-3H3/b13-9+
Instrument: LTQ Orbitrap XL Thermo Scientific
Instrument type: LC-ESI-ITFT
Ms type: MS2
Ion mode: POSITIVE
Ionization: ESI
Fragmentation mode: HCD
Collision energy: 45 % (nominal)
Resolution: 15000
Column name: XBridge C18 3.5um, 2.1x50mm, Waters
Retention time: 1.9 min
Base peak: 315.1494
Precursor m/z: 315.1485
Precursor type: [M+H]+
m/z	relative intensity	assigned
55.0416	10	C3H5N+
56.0495	9	C3H6N+
60.9981	7	CH3NS+
71.0603	13	C3H7N2+
81.0335	170	C5H5O+
83.0603	37	C4H7N2+
84.0682	31	C4H8N2+
88.0215	42	C3H6NS+
95.0491	57	C6H7O+
97.076	168	C5H9N2+
98.0838	426	C5H10N2+
101.0295	16	C4H7NS+
102.0372	841	C4H8NS+
107.0489	19	C7H7O+
110.0599	14	C6H8NO+
110.0964	93	C7H12N+
114.0785	18	C5H10N2O+
115.0323	14	C4H7N2S+
117.0481	21	C4H9N2S+
118.032	29	C4H8NOS+
121.076	14	C7H9N2+
124.0756	110	C7H10NO+
125.0056	805	C6H5OS+
129.048	38	C5H9N2S+
130.0559	571	C5H10N2S+
135.0262	11	C8H7S+
135.0917	32	C8H11N2+
138.0913	49	C8H12NO+
144.0765	46	C5H10N3O2+
145.0429	26	C5H9N2OS+
148.0756	74	C9H10NO+
149.0709	12	C8H9N2O+
153.0368	54	C8H9OS+
163.0864	26	C9H11N2O+
164.0943	45	C9H12N2O+
165.1021	174	C9H13N2O+
167.0637	74	C8H11N2S+
170.0634	89	C8H12NOS+
176.0488	999	C5H10N3O2S+
177.1021	82	C10H13N2O+
178.032	12	C9H8NOS+
178.11	34	C10H14N2O+
181.0793	125	C9H13N2S+
191.1178	248	C11H15N2O+
192.0477	40	C10H10NOS+
193.0554	92	C10H11NOS+
194.0639	8	C10H12NOS+
223.0903	13	C11H15N2OS+
224.0977	120	C11H16N2OS+
