Mass spectrum: Candesartan; LC-ESI-ITFT; MS2; CE: 60%; R=15000; [M-H]-
Name: Candesartan
Name: 2-ethoxy-3-[4-[2-(2H-tetrazol-5-yl)phenyl]benzyl]benzimidazole-4-carboxylic acid
Formula: C24H20N6O3
Exact mass: 440.1597
SMILES: c1(ccccc1c1ccc(Cn2c(nc3c2c(C(=O)O)ccc3)OCC)cc1)c1nnn[nH]1
InChI: InChI=1S/C24H20N6O3/c1-2-33-24-25-20-9-5-8-19(23(31)32)21(20)30(24)14-15-10-12-16(13-11-15)17-6-3-4-7-18(17)22-26-28-29-27-22/h3-13H,2,14H2,1H3,(H,31,32)(H,26,27,28,29)
Instrument: LTQ Orbitrap XL Thermo Scientific
Instrument type: LC-ESI-ITFT
Ms type: MS2
Ion mode: NEGATIVE
Ionization: ESI
Fragmentation mode: HCD
Collision energy: 60 % (nominal)
Resolution: 15000
Column name: XBridge C18 3.5um, 2.1x50mm, Waters
Retention time: 9.3 min
Base peak: 439.1519
Precursor m/z: 439.1524
Precursor type: [M-H]-
m/z	relative intensity	assigned
117.0454	69	C7H5N2-
132.0329	999	C7H4N2O-
133.0406	743	C7H5N2O-
147.0201	225	C7H3N2O2-
161.0725	50	C9H9N2O-
190.0663	145	C14H8N-
281.1086	87	C20H13N2-
292.1006	137	C21H12N2-
293.108	73	C21H13N2-
309.1033	270	C21H13N2O-
