Mass spectrum: Diazoxon; LC-ESI-ITFT; MS2; CE: 90%; R=7500; [M+H]+
Name: Diazoxon
Name: diethyl (6-methyl-2-propan-2-yl-pyrimidin-4-yl) phosphate
Formula: C12H21N2O4P
Exact mass: 288.1239
SMILES: O(c1nc(nc(c1)C)C(C)C)P(OCC)(OCC)=O
InChI: InChI=1S/C12H21N2O4P/c1-6-16-19(15,17-7-2)18-11-8-10(5)13-12(14-11)9(3)4/h8-9H,6-7H2,1-5H3
Instrument: LTQ Orbitrap XL Thermo Scientific
Instrument type: LC-ESI-ITFT
Ms type: MS2
Ion mode: POSITIVE
Ionization: ESI
Fragmentation mode: HCD
Collision energy: 90 % (nominal)
Resolution: 7500
Column name: XBridge C18 3.5um, 2.1x50mm, Waters
Retention time: 9.5 min
Base peak: 289.1316
Precursor m/z: 289.1312
Precursor type: [M+H]+
m/z	relative intensity	assigned
52.0181	4	C3H2N+
64.9787	3	H2O2P+
66.0339	77	C4H4N+
70.0652	115	C4H8N+
80.9737	30	H2O3P+
84.0444	999	C4H6NO+
90.9943	15	C2H4O2P+
93.0447	39	C5H5N2+
98.9842	104	H4O4P+
109.005	64	C2H6O3P+
112.0757	3	C6H10NO+
135.0915	6	C8H11N2+
137.0714	10	C7H9N2O+
138.0787	15	C7H10N2O+
153.1021	536	C8H13N2O+
