Mass spectrum: Oseltamivir; LC-ESI-ITFT; MS2; CE: 90%; R=7500; [M+H]+
Name: Oseltamivir
Name: (3R,4R,5S)-4-acetamido-5-amino-3-(1-ethylpropoxy)cyclohexene-1-carboxylic acid ethyl ester
Formula: C16H28N2O4
Exact mass: 312.2049
SMILES: CCC(CC)OC1C=C(CC(C1NC(=O)C)N)C(=O)OCC
InChI: InChI=1S/C16H28N2O4/c1-5-12(6-2)22-14-9-11(16(20)21-7-3)8-13(17)15(14)18-10(4)19/h9,12-15H,5-8,17H2,1-4H3,(H,18,19)/t13-,14+,15+/m0/s1
Instrument: LTQ Orbitrap XL Thermo Scientific
Instrument type: LC-ESI-ITFT
Ms type: MS2
Ion mode: POSITIVE
Ionization: ESI
Fragmentation mode: HCD
Collision energy: 90 % (nominal)
Resolution: 7500
Column name: XBridge C18 3.5um, 2.1x50mm, Waters
Retention time: 7.0 min
Base peak: 313.2132
Precursor m/z: 313.2122
Precursor type: [M+H]+
m/z	relative intensity	assigned
53.0387	14	C4H5+
65.0386	360	C5H5+
66.0464	15	C5H6+
67.0416	10	C4H5N+
67.0543	175	C5H7+
68.0494	37	C4H6N+
77.0387	122	C6H5+
80.0496	159	C5H6N+
82.0652	133	C5H8N+
83.049	23	C5H7O+
92.0496	581	C6H6N+
93.0336	299	C6H5O+
93.0574	270	C6H7N+
94.0652	773	C6H8N+
95.0489	34	C6H7O+
105.045	35	C6H5N2+
106.0653	18	C7H8N+
108.044	20	C6H6NO+
108.0687	17	C6H8N2+
109.0761	215	C6H9N2+
110.0601	237	C6H8NO+
119.0604	78	C7H7N2+
120.0445	999	C7H6NO+
133.0761	19	C8H9N2+
134.0603	11	C8H8NO+
137.0473	94	C7H7NO2+
137.0711	109	C7H9N2O+
138.055	211	C7H8NO2+
166.0871	41	C9H12NO2+
225.1251	17	C14H15N3+
