Mass spectrum: 2-Aminosulfonyl-benzoic acid methyl ester; LC-ESI-ITFT; MS2; CE: 30%; R=7500; [M+H]+
Name: 2-Aminosulfonyl-benzoic acid methyl ester
Name: Methyl 2-(aminosulfonyl)benzoate
Name: 2-sulfamoylbenzoic acid methyl ester
Formula: C8H9NO4S
Exact mass: 215.0252
SMILES: COC(C1=C(S(=O)(N)=O)C=CC=C1)=O
InChI: InChI=1S/C8H9NO4S/c1-13-8(10)6-4-2-3-5-7(6)14(9,11)12/h2-5H,1H3,(H2,9,11,12)
Instrument: LTQ Orbitrap XL Thermo Scientific
Instrument type: LC-ESI-ITFT
Ms type: MS2
Ion mode: POSITIVE
Ionization: ESI
Fragmentation mode: HCD
Collision energy: 30 % (nominal)
Resolution: 7500
Column name: XBridge C18 3.5um, 2.1x50mm, Waters
Retention time: 4.5 min
Base peak: 199.0063
Precursor m/z: 216.0325
Precursor type: [M+H]+
m/z	relative intensity	assigned
77.0384	6	C6H5+
130.0397	14	C7H4N3+
135.044	207	C8H7O2+
142.9965	11	C3HN3O4+
165.9957	23	C7H4NO2S+
184.0061	116	C7H6NO3S+
199.0058	999	C8H7O4S+
216.0322	40	C8H10NO4S+
