Mass spectrum: Repaglinide; LC-ESI-QFT; MS2; CE: 45; R=35000; [M-H]-
Name: Repaglinide
Name: 2-ethoxy-4-[2-[[3-methyl-1-(2-piperidin-1-ylphenyl)butyl]amino]-2-oxoethyl]benzoic acid
Formula: C27H36N2O4
Exact mass: 452.26751
SMILES: CCOC1=C(C=CC(=C1)CC(=O)NC(CC(C)C)C2=CC=CC=C2N3CCCCC3)C(=O)O
InChI: InChI=1S/C27H36N2O4/c1-4-33-25-17-20(12-13-22(25)27(31)32)18-26(30)28-23(16-19(2)3)21-10-6-7-11-24(21)29-14-8-5-9-15-29/h6-7,10-13,17,19,23H,4-5,8-9,14-16,18H2,1-3H3,(H,28,30)(H,31,32)
Instrument: Q Exactive Plus Orbitrap Thermo Scientific
Instrument type: LC-ESI-QFT
Ms type: MS2
Ion mode: NEGATIVE
Ionization: ESI
Fragmentation mode: HCD
Collision energy: 45 (nominal)
Resolution: 35000
Column name: XBridge C18 3.5um, 2.1x50mm, Waters
Retention time: 9.9 min
Base peak: 497.2656
Precursor m/z: 451.2602
Precursor type: [M-H]-
m/z	relative intensity	assigned
65.0397	4	C5H5-
79.0554	3	C6H7-
82.0059	2	C4H2O2-
83.0504	1	C5H7O-
91.0554	19	C7H7-
92.0268	45	C6H4O-
93.0346	15	C6H5O-
95.0139	5	C5H3O2-
106.0425	244	C7H6O-
107.0503	999	C7H7O-
108.0216	14	C6H4O2-
109.0294	6	C6H5O2-
111.0454	1	C6H7O2-
117.0709	4	C9H9-
119.0503	1	C8H7O-
120.0214	2	C7H4O2-
121.0296	211	C7H5O2-
133.066	2	C9H9O-
134.0373	1	C8H6O2-
135.0816	652	C9H11O-
136.0163	3	C7H4O3-
137.0243	11	C7H5O3-
137.0607	1	C8H9O2-
150.0324	1	C8H6O3-
161.0609	1	C10H9O2-
179.0714	32	C10H11O3-
379.2393	200	C24H31N2O2-
