Mass spectrum: Propyzamide; LC-ESI-QFT; MS2; CE: 60; R=35000; [M-H]-
Name: Propyzamide
Name: 3,5-bis(chloranyl)-N-(2-methylbut-3-yn-2-yl)benzamide
Name: Promamide
Formula: C12H11Cl2NO
Exact mass: 255.02177
SMILES: Clc1cc(C(=O)NC(C#C)(C)C)cc(Cl)c1
InChI: InChI=1S/C12H11Cl2NO/c1-4-12(2,3)15-11(16)8-5-9(13)7-10(14)6-8/h1,5-7H,2-3H3,(H,15,16)
Instrument: Q Exactive Orbitrap Thermo Scientific
Instrument type: LC-ESI-QFT
Ms type: MS2
Ion mode: NEGATIVE
Ionization: ESI
Fragmentation mode: HCD
Collision energy: 60 (nominal)
Resolution: 35000
Column name: XBridge C18 3.5um, 2.1x50mm, Waters
Retention time: 10.9 min
Base peak: 218.0312
Precursor m/z: 254.0145
Precursor type: [M-H]-
m/z	relative intensity	assigned
65.0396	3	C5H5-
97.0659	39	C6H9O-
129.9944	6	CH6Cl2N3-
137.0608	5	C8H9O2-
144.9617	999	C6H3Cl2-
145.9894	393	CH6Cl2N3O-
146.9858	208	C2H7Cl2NO2-
148.0052	17	CH8Cl2N3O-
164	73	CH8Cl2N3O2-
165.9954	4	C6H8Cl2O-
171.9859	87	C8H6Cl2-
176.9989	6	C9H4ClNO-
186.9723	95	C8H5Cl2O-
188.9519	32	C7H3Cl2O2-
189.9965	53	C8H8Cl2O-
192.022	3	C10H7ClNO-
212.9754	48	C9H5Cl2NO-
227.9989	82	C10H8Cl2NO-
