Mass spectrum: Fosinopril; LC-ESI-QFT; MS2; CE: 75; R=35000; [M+H]+
Name: Fosinopril
Name: (2S,4S)-4-cyclohexyl-1-[2-[(2-methyl-1-propanoyloxypropoxy)-(4-phenylbutyl)phosphoryl]acetyl]pyrrolidine-2-carboxylic acid
Formula: C30H46NO7P
Exact mass: 563.30119
SMILES: O=C(CP(=O)(CCCCc1ccccc1)OC(OC(=O)CC)C(C)C)N2C[C@@H](C[C@H]2C(O)=O)C3CCCCC3
InChI: InChI=1S/C30H46NO7P/c1-4-28(33)37-30(22(2)3)38-39(36,18-12-11-15-23-13-7-5-8-14-23)21-27(32)31-20-25(19-26(31)29(34)35)24-16-9-6-10-17-24/h5,7-8,13-14,22,24-26,30H,4,6,9-12,15-21H2,1-3H3,(H,34,35)/t25-,26+,30?,39?/m1/s1
Instrument: Q Exactive Orbitrap Thermo Scientific
Instrument type: LC-ESI-QFT
Ms type: MS2
Ion mode: POSITIVE
Ionization: ESI
Fragmentation mode: HCD
Collision energy: 75 (nominal)
Resolution: 35000
Column name: XBridge C18 3.5um, 2.1x50mm, Waters
Retention time: 16.6 min
Base peak: 564.3085
Precursor m/z: 564.3085
Precursor type: [M+H]+
m/z	relative intensity	assigned
55.0542	5	C4H7+
56.0495	9	C3H6N+
64.9787	3	H2O2P+
65.0386	2	C5H5+
67.0542	75	C5H7+
68.0493	5	C4H6N+
69.0698	3	C5H9+
70.0651	67	C4H8N+
79.0542	13	C6H7+
81.0699	52	C6H9+
83.0855	27	C6H11+
84.0808	3	C5H10N+
91.0542	62	C7H7+
93.0698	19	C7H9+
94.0652	4	C6H8N+
95.0855	3	C7H11+
105.0698	1	C8H9+
107.0855	11	C8H11+
109.1012	80	C8H13+
110.0964	2	C7H12N+
115.0543	3	C9H7+
117.0699	18	C9H9+
119.0255	3	C4H8O2P+
121.1011	6	C9H13+
122.9841	2	C2H4O4P+
123.1168	7	C9H15+
128.0618	6	C10H8+
129.0698	18	C10H9+
131.0855	13	C10H11+
133.0202	13	C8H6P+
135.1168	6	C10H15+
137.0151	2	C7H6OP+
142.0779	4	C7H13NP+
143.0856	2	C11H11+
151.031	1	C8H8OP+
152.1434	999	C10H18N+
157.1011	2	C12H13+
161.0363	2	C6H10O3P+
161.0514	33	C10H10P+
179.062	29	C10H12OP+
194.1541	5	C12H20NO+
197.0725	37	C10H14O2P+
198.1491	1	C11H20NO2+
203.0618	1	C12H12OP+
221.0724	3	C12H14O2P+
