Mass spectrum: Nitrazepam; LC-ESI-QFT; MS2; CE: 75; R=35000; [M-H]-
Name: Nitrazepam
Name: 7-nitro-5-phenyl-1,3-dihydro-1,4-benzodiazepin-2-one
Formula: C15H11N3O3
Exact mass: 281.08004
SMILES: C1C(=O)NC2=C(C=C(C=C2)[N+](=O)[O-])C(=N1)C3=CC=CC=C3
InChI: InChI=1S/C15H11N3O3/c19-14-9-16-15(10-4-2-1-3-5-10)12-8-11(18(20)21)6-7-13(12)17-14/h1-8H,9H2,(H,17,19)
Instrument: Q Exactive Plus Orbitrap Thermo Scientific
Instrument type: LC-ESI-QFT
Ms type: MS2
Ion mode: NEGATIVE
Ionization: ESI
Fragmentation mode: HCD
Collision energy: 75 (nominal)
Resolution: 35000
Column name: XBridge C18 3.5um, 2.1x50mm, Waters
Retention time: 7.7 min
Base peak: 280.0723
Precursor m/z: 280.0728
Precursor type: [M-H]-
m/z	relative intensity	assigned
50.0036	1	C3N-
64.0193	3	C4H2N-
65.0146	2	C3HN2-
65.9986	4	C3NO-
68.0143	2	C3H2NO-
101.0396	8	C8H5-
115.0555	3	C9H7-
117.0347	3	C8H5O-
140.0508	2	C10H6N-
141.0346	5	C10H5O-
146.0247	2	C8H4NO2-
152.0509	2	C11H6N-
155.0253	7	C9H3N2O-
164.0508	2	C12H6N-
165.0583	3	C12H7N-
166.0663	375	C12H8N-
167.05	4	C12H7O-
177.0588	2	C13H7N-
178.0661	3	C13H8N-
181.0535	6	C12H7NO-
182.0611	5	C12H8NO-
192.0457	2	C13H6NO-
193.053	2	C13H7NO-
194.0612	999	C13H8NO-
195.0563	35	C12H7N2O-
205.0532	20	C14H7NO-
206.0612	54	C14H8NO-
207.0564	3	C13H7N2O-
207.0688	5	C14H9NO-
209.048	7	C13H7NO2-
210.0559	12	C13H8NO2-
221.0482	7	C14H7NO2-
222.0562	964	C14H8NO2-
223.0516	3	C13H7N2O2-
223.064	13	C14H9NO2-
224.0717	38	C14H10NO2-
232.0642	2	C15H8N2O-
235.0508	5	C14H7N2O2-
236.0592	2	C14H8N2O2-
248.0597	2	C15H8N2O2-
251.0463	31	C14H7N2O3-
252.0541	241	C14H8N2O3-
253.0614	5	C14H9N2O3-
278.0568	6	C15H8N3O3-
