Mass spectrum: Losartan; LC-ESI-QFT; MS2; CE: 75; R=35000; [M+H]+
Name: Losartan
Name: [2-butyl-5-chloranyl-3-[[4-[2-(2H-1,2,3,4-tetrazol-5-yl)phenyl]phenyl]methyl]imidazol-4-yl]methanol
Formula: C22H23ClN6O
Exact mass: 421.15436
SMILES: Clc1nc(n(c1CO)Cc4ccc(c2ccccc2c3[nH]nnn3)cc4)CCCC
InChI: InChI=1S/C22H23ClN6O/c1-2-3-8-20-24-21(23)19(14-30)29(20)13-15-9-11-16(12-10-15)17-6-4-5-7-18(17)22-25-27-28-26-22/h4-7,9-12,30H,2-3,8,13-14H2,1H3,(H,25,26,27,28)
Instrument: Q Exactive Plus Orbitrap Thermo Scientific
Instrument type: LC-ESI-QFT
Ms type: MS2
Ion mode: POSITIVE
Ionization: ESI
Fragmentation mode: HCD
Collision energy: 75 (nominal)
Resolution: 35000
Column name: XBridge C18 3.5um, 2.1x50mm, Waters
Retention time: 8.9 min
Base peak: 423.1691
Precursor m/z: 423.1695
Precursor type: [M+H]+
m/z	relative intensity	assigned
50.0151	4	C4H2+
51.0229	4	C4H3+
52.0181	1	C3H2N+
53.0386	23	C4H5+
54.0337	5	C3H4N+
55.0542	25	C4H7+
57.0699	6	C4H9+
60.9839	3	C2H2Cl+
63.0228	1	C5H3+
65.0385	3	C5H5+
67.0416	3	C4H5N+
67.0542	10	C5H7+
74.9995	1	C3H4Cl+
75.9947	1	C2H3ClN+
77.0385	27	C6H5+
78.0338	3	C5H4N+
79.0291	3	C4H3N2+
79.0542	34	C6H7+
80.0494	84	C5H6N+
81.0335	1	C5H5O+
81.0698	9	C6H9+
82.0651	2	C5H8N+
83.0854	7	C6H11+
84.0807	4	C5H10N+
87.9948	6	C3H3ClN+
89.0027	7	C3H4ClN+
89.0384	1	C7H5+
91.0541	7	C7H7+
93.0447	3	C5H5N2+
93.0573	2	C6H7N+
94.0649	1	C6H8N+
95.0491	66	C6H7O+
96.0444	10	C5H6NO+
102.0105	22	C4H5ClN+
103.0542	3	C8H7+
104.0495	8	C7H6N+
105.0447	38	C6H5N2+
107.0603	5	C6H7N2+
108.0807	22	C7H10N+
115.0058	5	C4H4ClN2+
115.0541	15	C9H7+
116.0495	6	C8H6N+
117.0572	8	C8H7N+
120.0444	1	C7H6NO+
122.06	3	C7H8NO+
127.0543	5	C10H7+
128.0134	1	C5H5ClN2+
128.0496	6	C9H6N+
128.062	4	C10H8+
129.0213	20	C5H6ClN2+
129.0446	38	C8H5N2+
129.0699	4	C10H9+
130.0398	9	C7H4N3+
130.0651	1	C9H8N+
131.0602	1	C8H7N2+
135.0917	13	C8H11N2+
139.0541	16	C11H7+
140.0494	69	C10H6N+
141.0213	4	C6H6ClN2+
141.0573	5	C10H7N+
141.0698	3	C11H9+
142.0292	152	C6H7ClN2+
144.0575	8	C7H11ClN+
145.0647	9	C10H9O+
146.0601	1	C9H8NO+
147.0551	1	C8H7N2O+
150.0459	1	C12H6+
151.0541	48	C12H7+
152.062	394	C12H8+
153.0698	256	C12H9+
154.0651	28	C11H8N+
155.0603	21	C10H7N2+
155.0853	6	C12H11+
163.0542	100	C13H7+
164.0494	28	C12H6N+
164.0619	20	C13H8+
165.0575	23	C12H7N+
165.0699	273	C13H9+
166.0652	40	C12H8N+
166.0775	18	C13H10+
167.0729	80	C12H9N+
168.0572	7	C12H8O+
168.0682	18	C11H8N2+
169.0648	149	C12H9O+
170.0596	7	C11H8NO+
171.0683	41	C8H12ClN2+
177.0573	59	C13H7N+
178.0651	144	C13H8N+
178.0773	58	C14H10+
179.0609	73	C12H7N2+
179.0729	338	C13H9N+
180.0807	737	C13H10N+
181.0759	22	C12H9N2+
181.0887	4	C13H11N+
182.06	11	C12H8NO+
183.0677	10	C12H9NO+
183.0801	1	C13H11O+
188.0494	3	C14H6N+
189.0571	19	C14H7N+
189.07	4	C15H9+
190.0651	413	C14H8N+
191.0602	16	C13H7N2+
191.0729	56	C14H9N+
192.0681	351	C13H8N2+
192.0806	89	C14H10N+
193.0521	4	C13H7NO+
194.06	53	C13H8NO+
196.0756	74	C13H10NO+
201.0577	1	C15H7N+
202.0658	1	C15H8N+
203.0727	1	C15H9N+
204.0554	3	C13H6N3+
204.0678	1	C14H8N2+
204.0814	6	C15H10N+
205.0761	999	C14H9N2+
206.0839	342	C14H10N2+
207.0916	119	C14H11N2+
208.0757	31	C14H10NO+
211.0629	13	C10H12ClN2O+
213.0569	1	C16H7N+
214.065	77	C16H8N+
215.0603	9	C15H7N2+
215.0725	5	C16H9N+
216.0806	22	C16H10N+
217.0887	6	C16H11N+
218.0834	9	C15H10N2+
218.0943	1	C10H17ClNO2+
219.092	5	C15H11N2+
220.0757	4	C15H10NO+
221.0469	1	C11H10ClN2O+
229.0759	3	C16H9N2+
230.0842	1	C16H10N2+
231.0916	5	C16H11N2+
239.0604	8	C17H7N2+
240.0683	10	C17H8N2+
241.076	24	C17H9N2+
242.0836	15	C17H10N2+
243.0794	1	C16H9N3+
243.0911	6	C17H11N2+
253.0761	1	C18H9N2+
254.0606	1	C15H11ClN2+
256.0864	2	C17H10N3+
257.0947	3	C17H11N3+
258.1028	6	C17H12N3+
259.0863	10	C17H11N2O+
267.0786	1	C18H9N3+
270.1025	1	C18H12N3+
280.087	9	C19H10N3+
281.0948	10	C19H11N3+
294.1025	3	C20H12N3+
297.1131	4	C19H13N4+
298.1212	1	C19H14N4+
