Mass spectrum: Ranitidine N-oxide; LC-ESI-ITFT; MS2; CE: 90%; R=7500; [M+H]+
Name: Ranitidine N-oxide
Name: 1,1-Ethenediamine, N-(2-(((5-((dimethylamino)methyl)-2-furanyl)methyl)thio)ethyl)-N'-methyl-2-nitro-, N-oxide
Formula: C13H22N4O4S
Exact mass: 330.1362
SMILES: c1(oc(CSCCN\C(=C\[N+](=O)[O-])NC)cc1)CN(C)(C)=O
InChI: InChI=1S/C13H22N4O4S/c1-14-13(8-16(18)19)15-6-7-22-10-12-5-4-11(21-12)9-17(2,3)20/h4-5,8,14-15H,6-7,9-10H2,1-3H3/b13-8+
Instrument: LTQ Orbitrap XL Thermo Scientific
Instrument type: LC-ESI-ITFT
Ms type: MS2
Ion mode: POSITIVE
Ionization: ESI
Fragmentation mode: HCD
Collision energy: 90 % (nominal)
Resolution: 7500
Column name: XBridge C18 3.5um, 2.1x50mm, Waters
Retention time: 2.4 min
Base peak: 331.1444
Precursor m/z: 331.1435
Precursor type: [M+H]+
m/z	relative intensity	assigned
56.0495	84	C3H6N+
61.0105	100	C2H5S+
68.0497	48	C4H6N+
77.0387	25	C6H5+
81.0334	999	C5H5O+
83.0602	64	C4H7N2+
94.0651	46	C6H8N+
95.0488	46	C6H7O+
97.0106	63	C5H5S+
97.076	702	C5H9N2+
98.0838	100	C5H10N2+
102.0371	984	C4H8NS+
104.0495	62	C7H6N+
107.0491	365	C7H7O+
108.0572	35	C7H8O+
118.0652	58	C8H8N+
121.0759	155	C7H9N2+
125.0055	447	C6H5OS+
129.0477	57	C5H9N2S+
130.0559	85	C5H10N2S+
132.0443	173	H10N3O3S+
133.0519	137	C8H7NO+
135.0916	168	C8H11N2+
148.0755	157	C9H10NO+
149.0703	37	C8H9N2O+
151.0203	34	C6H5N3S+
163.087	45	C9H11N2O+
177.1016	44	C2H17N4O3S+
