Mass spectrum: Dexamethasone acetate; LC-ESI-QFT; MS2; CE: 45; R=35000; [M+H]+
Name: Dexamethasone acetate
Name: Dexamethason-21-acetate
Name: [2-(9-fluoro-11,17-dihydroxy-10,13,16-trimethyl-3-oxo-6,7,8,11,12,14,15,16-octahydrocyclopenta[a]phenanthren-17-yl)-2-oxoethyl] acetate
Formula: C24H31FO6
Exact mass: 434.21047
SMILES: CC1CC2C3CCC4=CC(=O)C=CC4(C3(C(CC2(C1(C(=O)COC(=O)C)O)C)O)F)C
InChI: InChI=1S/C24H31FO6/c1-13-9-18-17-6-5-15-10-16(27)7-8-21(15,3)23(17,25)19(28)11-22(18,4)24(13,30)20(29)12-31-14(2)26/h7-8,10,13,17-19,28,30H,5-6,9,11-12H2,1-4H3
Instrument: Q Exactive Plus Orbitrap Thermo Scientific
Instrument type: LC-ESI-QFT
Ms type: MS2
Ion mode: POSITIVE
Ionization: ESI
Fragmentation mode: HCD
Collision energy: 45 (nominal)
Resolution: 35000
Column name: XBridge C18 3.5um, 2.1x50mm, Waters
Retention time: 10.2 min
Base peak: 435.2176
Precursor m/z: 435.2177
Precursor type: [M+H]+
m/z	relative intensity	assigned
51.0227	2	C4H3+
53.0385	3	C4H5+
55.0178	8	C3H3O+
55.0542	28	C4H7+
57.0335	13	C3H5O+
57.0699	4	C4H9+
59.0492	2	C3H7O+
61.0284	40	C2H5O2+
65.0385	4	C5H5+
67.0542	48	C5H7+
69.0335	46	C4H5O+
69.0699	58	C5H9+
71.0491	11	C4H7O+
75.044	14	C3H7O2+
77.0384	9	C6H5+
79.0542	40	C6H7+
81.0699	61	C6H9+
83.0491	21	C5H7O+
83.0855	13	C6H11+
85.0648	16	C5H9O+
91.0543	46	C7H7+
93.07	114	C7H9+
95.0492	44	C6H7O+
95.0856	97	C7H11+
97.0648	52	C6H9O+
99.0442	4	C5H7O2+
99.0805	8	C6H11O+
101.0234	61	C4H5O3+
101.0597	22	C5H9O2+
105.0699	113	C8H9+
107.0491	15	C7H7O+
107.0856	272	C8H11+
109.0649	65	C7H9O+
109.1012	56	C8H13+
111.0441	8	C6H7O2+
111.0805	35	C7H11O+
113.0598	12	C6H9O2+
115.054	17	C9H7+
115.0752	15	C6H11O2+
117.0547	27	C5H9O3+
117.07	27	C9H9+
119.0856	167	C9H11+
121.0649	380	C8H9O+
121.1012	114	C9H13+
123.0442	4	C7H7O2+
123.0804	82	C8H11O+
123.1168	17	C9H15+
125.0401	2	C7H6FO+
125.0598	24	C7H9O2+
125.0961	32	C8H13O+
127.0752	2	C7H11O2+
128.062	17	C10H8+
129.0699	27	C10H9+
131.0856	124	C10H11+
132.057	8	C9H8O+
133.0649	79	C9H9O+
133.1012	82	C10H13+
135.0805	254	C9H11O+
137.0596	14	C8H9O2+
137.0962	52	C9H13O+
139.0754	13	C8H11O2+
139.1118	2	C9H15O+
141.0544	1	C7H9O3+
141.0702	21	C11H9+
143.0857	89	C11H11+
144.0572	3	C10H8O+
145.0649	107	C10H9O+
145.1012	68	C11H13+
146.0727	4	C10H10O+
147.0805	999	C10H11O+
149.0962	145	C10H13O+
151.0755	26	C9H11O2+
151.1121	20	C10H15O+
153.091	68	C9H13O2+
154.0778	2	C12H10+
155.0703	3	C8H11O3+
155.0855	28	C12H11+
157.0649	11	C11H9O+
157.1013	39	C12H13+
158.0728	39	C11H10O+
159.0805	331	C11H11O+
160.0883	4	C11H12O+
161.0598	31	C10H9O2+
161.0962	204	C11H13O+
163.0754	28	C10H11O2+
163.1118	19	C11H15O+
165.0701	11	C13H9+
165.0911	14	C10H13O2+
166.0783	2	C13H10+
167.0703	22	C9H11O3+
167.0857	31	C13H11+
167.1067	43	C10H15O2+
168.0566	3	C12H8O+
169.0649	44	C12H9O+
169.1011	27	C13H13+
170.0727	9	C12H10O+
170.1096	2	C13H14+
171.0805	482	C12H11O+
172.0882	18	C12H12O+
173.0962	294	C12H13O+
175.0754	14	C11H11O2+
175.1119	27	C12H15O+
177.0911	47	C11H13O2+
178.0777	4	C14H10+
179.0856	37	C14H11+
179.1066	3	C11H15O2+
180.0937	11	C14H12+
181.065	9	C13H9O+
181.0863	3	C10H13O3+
181.1013	27	C14H13+
182.0728	9	C13H10O+
183.0806	69	C13H11O+
183.1169	26	C14H15+
184.0882	8	C13H12O+
185.0962	308	C13H13O+
186.1039	8	C13H14O+
187.0754	122	C12H11O2+
187.1118	72	C13H15O+
189.0699	4	C15H9+
189.0909	21	C12H13O2+
190.0775	8	C15H10+
191.0861	10	C15H11+
191.1065	4	C12H15O2+
192.0934	16	C15H12+
193.0862	13	C11H13O3+
193.1013	52	C15H13+
194.0723	3	C14H10O+
194.1089	30	C15H14+
195.0806	52	C14H11O+
195.1023	14	C11H15O3+
195.1169	39	C15H15+
196.0885	54	C14H12O+
197.0961	186	C14H13O+
197.1323	12	C15H17+
198.1041	18	C14H14O+
199.0756	11	C13H11O2+
199.1119	75	C14H15O+
201.091	11	C13H13O2+
201.1276	16	C14H17O+
202.0779	3	C16H10+
203.0856	10	C16H11+
203.1066	10	C13H15O2+
204.0935	53	C16H12+
205.1013	26	C16H13+
206.1094	18	C16H14+
207.0805	15	C15H11O+
207.117	56	C16H15+
208.0883	58	C15H12O+
209.0962	130	C15H13O+
209.1326	80	C16H17+
210.104	55	C15H14O+
211.1119	266	C15H15O+
212.1198	72	C15H16O+
213.0912	24	C14H13O2+
213.1275	132	C15H17O+
215.1069	21	C14H15O2+
216.0933	11	C17H12+
217.1016	13	C17H13+
218.1088	16	C17H14+
219.0806	9	C16H11O+
219.117	107	C17H15+
220.0887	18	C16H12O+
220.1251	7	C17H16+
221.0962	143	C16H13O+
221.1324	28	C17H17+
222.104	258	C16H14O+
223.1119	214	C16H15O+
224.083	3	C15H12O2+
224.1197	51	C16H16O+
225.0911	22	C15H13O2+
225.1275	207	C16H17O+
226.0989	14	C15H14O2+
226.1351	9	C16H18O+
227.1069	24	C15H15O2+
227.1431	346	C16H19O+
228.0923	2	C18H12+
229.1016	4	C18H13+
229.1225	4	C15H17O2+
230.1093	18	C18H14+
231.1169	21	C18H15+
232.0888	4	C17H12O+
232.125	15	C18H16+
233.0966	27	C17H13O+
233.1325	11	C18H17+
234.1043	40	C17H14O+
234.14	3	C18H18+
235.1118	320	C17H15O+
235.1477	18	C18H19+
236.1197	48	C17H16O+
237.1275	513	C17H17O+
238.0989	11	C16H14O2+
238.1356	26	C17H18O+
239.1069	37	C16H15O2+
239.1431	137	C17H19O+
241.1223	38	C16H17O2+
242.1088	7	C19H14+
243.1027	4	C12H16FO4+
243.1167	17	C19H15+
244.1243	16	C19H16+
245.0961	23	C18H13O+
245.1326	22	C19H17+
246.104	38	C18H14O+
246.1399	2	C19H18+
247.1116	53	C18H15O+
247.148	17	C19H19+
248.1197	77	C18H16O+
249.1275	143	C18H17O+
249.1634	19	C19H21+
250.1356	11	C18H18O+
251.1069	16	C17H15O2+
251.1431	95	C18H19O+
252.1505	14	C18H20O+
253.1224	75	C17H17O2+
253.1588	132	C18H21O+
255.1176	3	C20H15+
255.1378	43	C17H19O2+
256.1245	3	C20H16+
257.0965	9	C19H13O+
257.1327	18	C20H17+
258.104	9	C19H14O+
258.1404	22	C20H18+
259.112	35	C19H15O+
259.1483	20	C20H19+
260.1197	45	C19H16O+
261.1275	114	C19H17O+
261.164	8	C20H21+
262.0986	11	
262.1353	113	C19H18O+
263.1066	15	C18H15O2+
263.1431	162	C19H19O+
264.1144	11	C18H16O2+
264.1505	16	C19H20O+
265.1222	11	C18H17O2+
265.1588	28	C19H21O+
266.1668	12	
267.138	29	C18H19O2+
267.1743	19	C19H23O+
268.1248	3	C21H16+
271.1119	38	C20H15O+
272.1199	33	C20H16O+
273.1274	23	C20H17O+
273.1637	20	C21H21+
274.1353	18	C20H18O+
275.1067	5	C19H15O2+
275.1431	62	C20H19O+
276.151	124	C20H20O+
277.1224	25	C16H18FO3+
277.1589	115	C20H21O+
278.1666	50	C20H22O+
279.1386	14	C16H20FO3+
279.1746	73	C20H23O+
281.1544	17	C16H22FO3+
281.1899	11	C20H25O+
283.1339	4	C15H20FO4+
283.1487	12	C19H20FO+
285.1278	12	C21H17O+
286.1354	98	C21H18O+
287.1432	3	C21H19O+
289.1223	11	C20H17O2+
289.1589	24	C21H21O+
290.1308	16	C20H18O2+
291.1386	10	
291.1744	142	C21H23O+
293.154	14	C20H21O2+
294.1616	3	C20H22O2+
295.1689	25	C20H23O2+
296.1773	4	C20H24O2+
297.1853	8	C20H25O2+
301.1588	93	C22H21O+
304.1459	23	C21H20O2+
307.1695	24	C21H23O2+
309.1855	27	
311.1644	4	C20H23O3+
319.1696	64	C22H23O2+
325.1802	8	C21H25O3+
337.1796	23	C22H25O3+
351.1957	10	C23H27O3+
