Mass spectrum: 4-Aminoantipyrine; LC-ESI-ITFT; MS2; CE: 30%; R=7500; [M+H]+
Name: 4-Aminoantipyrine
Name: 4-amino-1,5-dimethyl-2-phenyl-3-pyrazolin-3-one
Formula: C11H13N3O
Exact mass: 203.1059
SMILES: c(ccc1N(N(C=2C)C)C(=O)C2N)cc1
InChI: InChI=1S/C11H13N3O/c1-8-10(12)11(15)14(13(8)2)9-6-4-3-5-7-9/h3-7H,12H2,1-2H3
Instrument: LTQ Orbitrap XL Thermo Scientific
Instrument type: LC-ESI-ITFT
Ms type: MS2
Ion mode: POSITIVE
Ionization: ESI
Fragmentation mode: HCD
Collision energy: 30 % (nominal)
Resolution: 7500
Column name: XBridge C18 3.5um, 2.1x50mm, Waters
Retention time: 2.6 min
Base peak: 204.1138
Precursor m/z: 204.1131
Precursor type: [M+H]+
m/z	relative intensity	assigned
56.0495	241	C3H6N+
58.0652	4	C3H8N+
68.0494	3	C4H6N+
77.0386	3	C6H5+
83.0605	107	C4H7N2+
85.0761	58	C4H9N2+
94.0652	74	C6H8N+
104.0493	6	C7H6N+
111.0552	20	C5H7N2O+
118.0651	4	C8H8N+
145.0763	18	C9H9N2+
146.0601	38	C9H8NO+
158.0604	6	C10H8NO+
159.0918	170	C10H11N2+
173.0712	52	C10H9N2O+
176.1185	8	C10H14N3+
187.0867	192	C11H11N2O+
189.0897	30	C10H11N3O+
204.1135	999	C11H14N3O+
