Mass spectrum: Metalaxyl; LC-ESI-ITFT; MS2; CE: 45%; R=15000; [M+H]+
Name: Metalaxyl
Name: 2-(N-(2-methoxy-1-oxoethyl)-2,6-dimethylanilino)propanoic acid methyl ester
Formula: C15H21NO4
Exact mass: 279.1465
SMILES: CC1=C(C(=CC=C1)C)N(C(C)C(=O)OC)C(=O)COC
InChI: InChI=1S/C15H21NO4/c1-10-7-6-8-11(2)14(10)16(13(17)9-19-4)12(3)15(18)20-5/h6-8,12H,9H2,1-5H3
Instrument: LTQ Orbitrap XL Thermo Scientific
Instrument type: LC-ESI-ITFT
Ms type: MS2
Ion mode: POSITIVE
Ionization: ESI
Fragmentation mode: HCD
Collision energy: 45 % (nominal)
Resolution: 15000
Column name: XBridge C18 3.5um, 2.1x50mm, Waters
Retention time: 8.7 min
Base peak: 302.1365
Precursor m/z: 280.1543
Precursor type: [M+H]+
m/z	relative intensity	assigned
121.0887	4	C8H11N+
132.0808	5	C9H10N+
133.0885	31	C9H11N+
134.0963	49	C9H12N+
145.0884	13	C10H11N+
146.0963	43	C10H12N+
148.112	152	C10H14N+
150.0911	5	C9H12NO+
160.1121	717	C11H14N+
162.1276	106	C11H16N+
164.1069	2	C10H14NO+
165.1147	42	C10H15NO+
188.107	9	C12H14NO+
192.1383	999	C12H18NO+
208.1336	2	C12H18NO2+
220.133	253	C13H18NO2+
248.1292	8	C14H18NO3+
