Mass spectrum: Cymiazole; LC-ESI-QFT; MS2; CE: 30%; R=17500; [M+H]+
Name: Cymiazole
Name: N-(2,4-dimethylphenyl)-3-methyl-1,3-thiazol-2-imine
Formula: C12H14N2S
Exact mass: 218.0878
SMILES: CC1=CC(=C(C=C1)N=C2N(C=CS2)C)C
InChI: InChI=1S/C12H14N2S/c1-9-4-5-11(10(2)8-9)13-12-14(3)6-7-15-12/h4-8H,1-3H3
Instrument: Exploris 240 Orbitrap Thermo Scientific
Instrument type: LC-ESI-QFT
Ms type: MS2
Ion mode: POSITIVE
Ionization: ESI
Fragmentation mode: HCD
Collision energy: 30 % (nominal)
Resolution: 17500
Column name: XBridge C18 3.5um, 2.1x50mm, Waters
Retention time: 4.141 min
Base peak: 219.095
Precursor m/z: 219.095
Precursor type: [M+H]+
m/z	relative intensity	assigned
219.0951	999	C12H15N2S+
