Mass spectrum: Flumioxazin; LC-ESI-QFT; MS2; CE: 75; R=35000; [M+H]+
Name: Flumioxazin
Name: 2-(7-fluoranyl-3-oxidanylidene-4-prop-2-ynyl-1,4-benzoxazin-6-yl)-4,5,6,7-tetrahydroisoindole-1,3-dione
Formula: C19H15FN2O4
Exact mass: 354.10159
SMILES: O=C3\C4=C(/C(=O)N3c2c(F)cc1OCC(=O)N(c1c2)CC#C)CCCC4
InChI: InChI=1S/C19H15FN2O4/c1-2-7-21-15-9-14(13(20)8-16(15)26-10-17(21)23)22-18(24)11-5-3-4-6-12(11)19(22)25/h1,8-9H,3-7,10H2
Instrument: Q Exactive Orbitrap Thermo Scientific
Instrument type: LC-ESI-QFT
Ms type: MS2
Ion mode: POSITIVE
Ionization: ESI
Fragmentation mode: HCD
Collision energy: 75 (nominal)
Resolution: 35000
Column name: XBridge C18 3.5um, 2.1x50mm, Waters
Retention time: 9.7 min
Base peak: 355.1088
Precursor m/z: 355.1089
Precursor type: [M+H]+
m/z	relative intensity	assigned
51.0232	7	C4H3+
53.0388	26	C4H5+
65.0387	23	C5H5+
66.0465	4	C5H6+
67.0179	14	C4H3O+
67.0417	21	C4H5N+
67.0543	42	C5H7+
68.0257	5	C4H4O+
68.0495	39	C4H6N+
69.0335	15	C4H5O+
75.0228	39	C6H3+
76.0181	7	C5H2N+
77.0385	219	C6H5+
78.0338	44	C5H4N+
78.0464	5	C6H6+
79.0542	999	C6H7+
80.0495	6	C5H6N+
80.062	93	C6H8+
81.0335	37	C5H5O+
81.0699	97	C6H9+
83.0292	21	C5H4F+
89.0386	7	C7H5+
91.0542	98	C7H7+
92.0495	4	C6H6N+
93.0571	4	C6H7N+
95.0491	364	C6H7O+
96.0245	6	C5H3FN+
96.0444	8	C5H6NO+
97.0448	3	C6H6F+
97.0649	13	C6H9O+
99.0605	4	C6H8F+
101.0386	47	C8H5+
102.0336	5	C7H4N+
103.0542	6	C8H7+
104.0494	26	C7H6N+
105.0336	26	C7H5O+
105.0447	242	C6H5N2+
106.0287	24	C6H4NO+
106.065	17	C7H8N+
107.0292	56	C7H4F+
107.0491	583	C7H7O+
108.0243	8	C6H3FN+
108.0368	4	C7H5F+
108.057	42	C7H8O+
109.0447	17	C7H6F+
109.0651	5	C7H9O+
110.0401	15	C6H5FN+
111.0242	4	C6H4FO+
115.0542	14	C9H7+
116.0496	28	C8H6N+
117.0571	8	C8H7N+
118.0286	18	C7H4NO+
118.0649	21	C8H8N+
119.0492	46	C8H7O+
120.0369	14	C8H5F+
121.0448	490	C8H6F+
122.04	70	C7H5FN+
123.0239	14	C7H4FO+
123.0353	5	C6H4FN2+
124.0193	57	C6H3FNO+
124.0555	7	C7H7FN+
126.0346	17	C6H5FNO+
127.0554	4	C7H8FO+
128.0494	170	C9H6N+
129.0446	229	C8H5N2+
130.065	15	C9H8N+
132.0444	23	C8H6NO+
133.0449	28	C9H6F+
134.0235	17	C7H4NO2+
134.04	152	C8H5FN+
134.06	22	C8H8NO+
135.0239	8	C8H4FO+
135.043	35	C6H5N3O+
135.0482	75	C8H6FN+
136.0192	19	C7H3FNO+
136.0318	7	C8H5FO+
136.0559	34	C8H7FN+
137.0269	8	C7H4FNO+
138.0349	138	C7H5FNO+
139.0542	15	C11H7+
140.0495	27	C10H6N+
141.0448	7	C9H5N2+
141.0571	4	C10H7N+
141.0696	8	C11H9+
142.0525	4	C9H6N2+
142.0654	4	C10H8N+
143.0602	18	C9H7N2+
144.0443	14	C9H6NO+
146.04	64	C9H5FN+
146.0528	5	C10H7F+
146.0599	60	C9H8NO+
147.0354	4	C8H4FN2+
147.0481	32	C9H6FN+
148.0556	858	C9H7FN+
149.0397	133	C9H6FO+
149.0508	48	C8H6FN2+
149.0635	97	C9H8FN+
150.0349	109	C8H5FNO+
151.0303	51	C7H4FN2O+
151.0425	14	C8H6FNO+
152.0141	101	C7H3FNO2+
152.0384	5	C7H5FN2O+
152.0505	32	C8H7FNO+
153.0456	21	C7H6FN2O+
153.0573	5	C11H7N+
153.0698	8	C12H9+
154.0298	7	C7H5FNO2+
154.0398	14	C9H4N3+
154.065	54	C11H8N+
155.0602	28	C10H7N2+
155.0729	7	C11H9N+
156.0443	69	C10H6NO+
156.0681	4	C10H8N2+
156.0807	17	C11H10N+
157.0521	5	C10H7NO+
157.076	8	C10H9N2+
158.0399	8	C10H5FN+
158.06	6	C10H8NO+
159.0482	3	C10H6FN+
159.0606	6	C11H8F+
160.0434	29	C9H5FN2+
160.0557	26	C10H7FN+
161.0514	27	C9H6FN2+
161.0636	22	C10H8FN+
162.0349	55	C9H5FNO+
162.0586	8	C9H7FN2+
162.0711	5	C10H9FN+
163.0302	67	C8H4FN2O+
163.0425	41	C9H6FNO+
163.0663	28	C9H8FN2+
164.0504	74	C9H7FNO+
165.0457	38	C8H6FN2O+
165.0697	21	C13H9+
166.0297	30	C8H5FNO2+
166.0657	58	C9H9FNO+
167.0729	41	C12H9N+
168.0448	8	C11H6NO+
168.0807	45	C12H10N+
169.0648	5	C12H9O+
169.0755	6	C11H9N2+
170.0598	14	C11H8NO+
171.0355	4	C10H4FN2+
171.0483	8	C11H6FN+
171.0547	51	C10H7N2O+
172.0558	34	C11H7FN+
173.0512	40	C10H6FN2+
173.0633	21	C11H8FN+
174.0351	25	C10H5FNO+
174.0545	4	C10H8NO2+
174.0591	4	C10H7FN2+
174.071	39	C11H9FN+
175.0428	45	C10H6FNO+
175.0665	22	C10H8FN2+
176.0379	18	C9H5FN2O+
176.0505	330	C10H7FNO+
177.046	86	C9H6FN2O+
177.0581	102	C10H8FNO+
178.0297	16	C9H5FNO2+
178.0533	16	C9H7FN2O+
178.0654	17	C13H8N+
179.025	154	C8H4FN2O2+
179.0607	22	C9H8FN2O+
180.0451	8	C9H7FNO2+
180.0681	6	C12H8N2+
180.0806	23	C13H10N+
181.0759	36	C12H9N2+
181.0881	4	C13H11N+
182.06	28	C12H8NO+
182.0836	8	C12H10N2+
182.0964	8	C13H12N+
183.0553	22	C11H7N2O+
183.068	14	C12H9NO+
184.0392	14	C11H6NO2+
184.0557	16	C12H7FN+
184.0757	7	C12H10NO+
185.0634	49	C12H8FN+
185.0706	9	C11H9N2O+
186.0589	25	C11H7FN2+
186.0715	34	C12H9FN+
187.0664	21	C11H8FN2+
187.079	7	C12H10FN+
188.0506	70	C11H7FNO+
188.0871	8	C12H11FN+
189.0458	118	C10H6FN2O+
189.0588	13	C11H8FNO+
190.0295	16	C10H5FNO2+
190.0536	57	C10H7FN2O+
190.0655	17	C14H8N+
191.025	68	C9H4FN2O2+
191.0613	61	C10H8FN2O+
191.0725	16	C14H9N+
192.0686	46	C13H8N2+
192.0805	17	C14H10N+
193.0412	8	C9H6FN2O2+
193.0763	34	C13H9N2+
194.0605	27	C10H9FNO2+
194.0838	6	C13H10N2+
194.0964	6	C14H12N+
195.055	19	C12H7N2O+
195.0914	49	C13H11N2+
196.0554	7	C13H7FN+
196.0757	37	C13H10NO+
197.0507	6	C12H6FN2+
197.0631	5	C13H8FN+
197.0711	14	C12H9N2O+
198.0713	61	C13H9FN+
199.0498	40	C11H7N2O2+
199.0665	22	C12H8FN2+
200.0505	24	C12H7FNO+
200.0745	16	C12H9FN2+
200.0866	39	C13H11FN+
201.0457	51	C11H6FN2O+
201.0583	34	C12H8FNO+
201.0823	20	C12H10FN2+
202.0545	32	C11H7FN2O+
202.0658	39	C12H9FNO+
202.1026	4	C13H13FN+
203.0377	10	C11H6FNO2+
203.0614	80	C11H8FN2O+
204.0456	92	C11H7FNO2+
204.0816	34	C12H11FNO+
205.0408	108	C10H6FN2O2+
205.0762	48	C14H9N2+
206.0598	6	C14H8NO+
206.0837	16	C14H10N2+
206.0969	4	C15H12N+
207.0687	4	C11H10FNO2+
207.0917	14	C14H11N2+
208.0631	19	C13H8N2O+
208.0993	4	C14H12N2+
209.071	51	C13H9N2O+
209.1071	4	C14H13N2+
210.0583	41	C13H7FN2+
210.0918	6	C14H12NO+
211.0507	30	C12H7N2O2+
211.0666	36	C13H8FN2+
212.0498	30	C13H7FNO+
212.0869	145	C14H11FN+
213.046	30	C12H6FN2O+
213.0825	30	C13H10FN2+
214.0663	29	C13H9FNO+
215.0615	49	C12H8FN2O+
216.0454	22	C12H7FNO2+
216.0693	30	C12H9FN2O+
216.0818	23	C13H11FNO+
217.0408	15	C11H6FN2O2+
217.077	31	C12H10FN2O+
218.0609	7	C12H9FNO2+
218.0841	19	C15H10N2+
219.0565	229	C11H8FN2O2+
219.0919	16	C15H11N2+
220.0758	21	C15H10NO+
221.071	52	C14H9N2O+
221.1071	4	C15H13N2+
222.0551	15	C14H8NO2+
222.0785	17	C14H10N2O+
223.0508	38	C13H7N2O2+
223.0667	59	C14H8FN2+
223.0863	46	C14H11N2O+
224.058	6	C13H8N2O2+
224.0734	17	C14H9FN2+
225.0569	6	C17H7N+
225.0664	6	C10H10FN2O3+
225.0823	14	C14H10FN2+
226.0535	34	C13H7FN2O+
226.0659	15	C14H9FNO+
226.1017	3	C15H13FN+
227.062	26	C13H8FN2O+
228.0459	4	C13H7FNO2+
228.0691	8	C13H9FN2O+
228.0817	5	C14H11FNO+
229.0522	5	C13H8FNO2+
229.0772	39	C13H10FN2O+
230.0609	56	C13H9FNO2+
231.0564	91	C12H8FN2O2+
231.092	24	C16H11N2+
232.0404	72	C12H7FNO3+
232.0755	4	C16H10NO+
233.071	6	C15H9N2O+
235.0661	6	C15H8FN2+
235.0867	23	C15H11N2O+
236.0739	27	C15H9FN2+
237.0659	48	C14H9N2O2+
237.0819	7	C15H10FN2+
237.1023	4	C15H13N2O+
238.0858	4	C15H12NO2+
239.0615	131	C14H8FN2O+
240.069	35	C14H9FN2O+
240.0818	59	C15H11FNO+
241.0773	33	C14H10FN2O+
242.0608	16	C14H9FNO2+
243.0566	49	C13H8FN2O2+
243.0925	31	C14H12FN2O+
244.0764	7	C14H11FNO2+
245.0718	20	C13H10FN2O2+
246.0558	15	C13H9FNO3+
247.0507	5	C12H8FN2O3+
247.0867	7	C16H11N2O+
249.0657	22	C15H9N2O2+
249.0824	7	C16H10FN2+
249.1022	4	C16H13N2O+
250.0734	14	C15H10N2O2+
251.0612	24	C15H8FN2O+
251.0816	84	C15H11N2O2+
252.0692	43	C15H9FN2O+
253.0773	83	C15H10FN2O+
255.0931	20	C15H12FN2O+
257.072	84	C14H10FN2O2+
258.0558	6	C14H9FNO3+
258.0928	4	C15H13FNO2+
259.0513	549	C13H8FN2O3+
265.0771	42	C16H10FN2O+
266.0847	16	C16H11FN2O+
267.0929	5	C16H12FN2O+
269.0716	24	C15H10FN2O2+
270.0565	35	C15H9FNO3+
271.0513	76	C14H8FN2O3+
271.0877	57	C15H12FN2O2+
273.0673	27	C14H10FN2O3+
275.0825	7	C14H12FN2O3+
279.0765	67	C16H11N2O3+
281.0716	5	C16H10FN2O2+
285.0667	81	C15H10FN2O3+
287.0826	88	C15H12FN2O3+
297.0675	17	C16H10FN2O3+
298.088	6	C17H13FNO3+
299.0826	189	C16H12FN2O3+
