Mass spectrum: Iomeprol; LC-ESI-ITFT; MS2; CE: 60%; R=7500; [M+H]+
Name: Iomeprol
Name: 1-N,3-N-bis(2,3-dihydroxypropyl)-5-[(2-hydroxyacetyl)-methylamino]-2,4,6-triiodobenzene-1,3-dicarboxamide
Formula: C17H22I3N3O8
Exact mass: 776.8541
SMILES: Ic1c(c(I)c(c(I)c1N(C)C(=O)CO)C(=O)NCC(O)CO)C(=O)NCC(O)CO
InChI: InChI=1S/C17H22I3N3O8/c1-23(9(29)6-26)15-13(19)10(16(30)21-2-7(27)4-24)12(18)11(14(15)20)17(31)22-3-8(28)5-25/h7-8,24-28H,2-6H2,1H3,(H,21,30)(H,22,31)
Instrument: LTQ Orbitrap XL Thermo Scientific
Instrument type: LC-ESI-ITFT
Ms type: MS2
Ion mode: POSITIVE
Ionization: ESI
Fragmentation mode: HCD
Collision energy: 60 % (nominal)
Resolution: 7500
Column name: XBridge C18 3.5um, 2.1x50mm, Waters
Retention time: 1.6 min
Base peak: 132.9578
Precursor m/z: 777.8614
Precursor type: [M+H]+
m/z	relative intensity	assigned
108.0443	11	C6H6NO+
119.0367	15	C7H5NO+
132.0447	19	C8H6NO+
146.0231	6	C8H4NO2+
148.039	18	C8H6NO2+
149.047	15	C8H7NO2+
160.0388	10	C9H6NO2+
161.0471	38	C9H7NO2+
162.0553	16	C9H8NO2+
164.0337	16	C8H6NO3+
166.0497	12	C8H8NO3+
175.0256	16	C9H5NO3+
176.0341	14	C9H6NO3+
177.0418	50	C9H7NO3+
193.0369	22	C9H7NO4+
194.0446	17	C9H8NO4+
195.0525	26	C9H9NO4+
204.0291	19	C10H6NO4+
217.0605	14	C11H9N2O3+
245.9412	25	C7H5INO+
247.0702	14	C12H11N2O4+
257.9412	52	C8H5INO+
273.9357	94	C8H5INO2+
277.081	39	C13H13N2O5+
287.9514	999	C9H7INO2+
290.9619	8	C8H8IN2O2+
291.946	33	C8H7INO3+
293.9037	21	C10HINO2+
301.9307	43	C9H5INO3+
303.947	20	C9H7INO3+
305.9629	24	C9H9INO3+
330.9571	10	C10H8IN2O3+
331.941	173	C10H7INO4+
349.9517	40	C10H9INO5+
404.9939	169	C13H14IN2O5+
