Mass spectrum: Emtricitabine; LC-ESI-QFT; MS2; CE: 15; R=35000; [M-H]-
Name: Emtricitabine
Name: 4-amino-5-fluoro-1-[(2R,5S)-2-(hydroxymethyl)-1,3-oxathiolan-5-yl]-2-pyrimidinone
Formula: C8H10FN3O3S
Exact mass: 247.04269
SMILES: FC=1\C(=N/C(=O)N(C=1)[C@H]2O[C@H](SC2)CO)\N
InChI: InChI=1S/C8H10FN3O3S/c9-4-1-12(8(14)11-7(4)10)5-3-16-6(2-13)15-5/h1,5-6,13H,2-3H2,(H2,10,11,14)/t5-,6+/m0/s1
Instrument: Q Exactive Orbitrap Thermo Scientific
Instrument type: LC-ESI-QFT
Ms type: MS2
Ion mode: NEGATIVE
Ionization: ESI
Fragmentation mode: HCD
Collision energy: 15 (nominal)
Resolution: 35000
Column name: XBridge C18 3.5um, 2.1x50mm, Waters
Retention time: 2.1 min
Base peak: 235.9261
Precursor m/z: 246.0354
Precursor type: [M-H]-
m/z	relative intensity	assigned
57.9757	1	CNS-
74.9911	1	C2H3OS-
104.0252	9	C5H2N3-
107.0251	4	C5H3N2O-
110.0161	13	C4HFN3-
111.0024	5	C4H3N2S-
115.0209	5	C3H5N3S-
123.0022	8	C5H3N2S-
132.0203	6	C6H2N3O-
138.013	9	C5H4N3S-
138.997	11	C5H3N2OS-
140.0272	1	C5H3FN3O-
143.0084	15	C5H4FN2S-
152.0265	999	C6H3FN3O-
158.0195	1	C5H5FN3S-
166.008	132	C6H4N3OS-
170.0371	82	C6H5FN3O2-
186.0143	284	C6H5FN3OS-
216.0385	9	C8H9FN2O2S-
218.0309	1	C8H4N5O3-
