Mass spectrum: Dinoterb; LC-ESI-QFT; MS2; CE: 90; R=35000; [M-H]-
Name: Dinoterb
Name: 2-tert-butyl-4,6-dinitro-phenol
Name: Phenol, 2-(1,1-dimethylethyl)-4,6-dinitro-
Formula: C10H12N2O5
Exact mass: 240.07462
SMILES: [O-][N+](=O)c1cc(cc(c1O)C(C)(C)C)[N+]([O-])=O
InChI: InChI=1S/C10H12N2O5/c1-10(2,3)7-4-6(11(14)15)5-8(9(7)13)12(16)17/h4-5,13H,1-3H3
Instrument: Q Exactive Orbitrap Thermo Scientific
Instrument type: LC-ESI-QFT
Ms type: MS2
Ion mode: NEGATIVE
Ionization: ESI
Fragmentation mode: HCD
Collision energy: 90 (nominal)
Resolution: 35000
Column name: XBridge C18 3.5um, 2.1x50mm, Waters
Retention time: 13.3 min
Base peak: 239.0675
Precursor m/z: 239.0673
Precursor type: [M-H]-
m/z	relative intensity	assigned
55.0189	2	C3H3O-
65.0397	3	C5H5-
65.9985	3	C3NO-
68.9982	1	C3HO2-
79.0554	2	C6H7-
80.0269	8	C5H4O-
81.0347	2	C5H5O-
81.071	8	C6H9-
91.0553	50	C7H7-
93.0346	7	C6H5O-
95.0139	3	C5H3O2-
107.0503	8	C7H7O-
107.0867	25	C8H11-
108.0217	6	C6H4O2-
109.0169	14	C5H3NO2-
109.0293	1	C6H5O2-
119.0503	3	C8H7O-
121.0296	11	C7H5O2-
123.0327	120	C6H5NO2-
134.0248	44	C7H4NO2-
135.0452	40	C8H7O2-
136.053	95	C8H8O2-
146.0375	9	C9H6O2-
147.0451	14	C9H7O2-
148.0405	115	C8H6NO2-
149.0482	529	C8H7NO2-
150.056	245	C8H8NO2-
151.0275	31	C7H5NO3-
151.0764	182	C9H11O2-
160.0405	15	C9H6NO2-
162.0197	181	C8H4NO3-
163.0404	14	C9H7O3-
164.0355	54	C8H6NO3-
164.0479	15	C9H8O3-
164.0718	224	C9H10NO2-
166.0509	11	C8H8NO3-
176.0353	838	C9H6NO3-
177.043	583	C9H7NO3-
178.0509	137	C9H8NO3-
179.0713	26	C10H11O3-
192.0666	27	C10H10NO3-
193.038	3	C9H7NO4-
193.0743	7	C10H11NO3-
194.0458	43	C9H8NO4-
207.0411	999	C9H7N2O4-
208.0615	29	C10H10NO4-
209.0697	6	C10H11NO4-
223.036	11	C9H7N2O5-
239.0674	25	C10H11N2O5-
