Mass spectrum: Tepraloxydim; LC-ESI-QFT; MS2; CE: 90; R=35000; [M-H]-
Name: Tepraloxydim
Name: E-Tepraloxydim
Formula: C17H24ClNO4
Exact mass: 341.13939
SMILES: CC/C(=N\OC\C=C\Cl)/C=1C(=O)CC(CC=1O)C2CCOCC2
InChI: InChI=1S/C17H24ClNO4/c1-2-14(19-23-7-3-6-18)17-15(20)10-13(11-16(17)21)12-4-8-22-9-5-12/h3,6,12-13,20H,2,4-5,7-11H2,1H3/b6-3+,19-14+
Instrument: Q Exactive Orbitrap Thermo Scientific
Instrument type: LC-ESI-QFT
Ms type: MS2
Ion mode: NEGATIVE
Ionization: ESI
Fragmentation mode: HCD
Collision energy: 90 (nominal)
Resolution: 35000
Column name: XBridge C18 3.5um, 2.1x50mm, Waters
Retention time: 11.5 min
Base peak: 340.1324
Precursor m/z: 340.1321
Precursor type: [M-H]-
m/z	relative intensity	assigned
57.0345	16	C3H5O-
65.0397	8	C5H5-
65.9985	782	C3NO-
66.0349	41	C4H4N-
67.0189	21	C4H3O-
82.0298	49	C4H4NO-
83.0139	4	C4H3O2-
83.0503	5	C5H7O-
90.0349	8	C6H4N-
92.0506	52	C6H6N-
93.0346	6	C6H5O-
94.0297	13	C5H4NO-
96.0455	5	C5H6NO-
105.0219	5	C6H3NO-
106.0297	3	C6H4NO-
107.0377	19	C6H5NO-
107.0503	15	C7H7O-
108.0217	19	C6H4O2-
108.0454	15	C6H6NO-
109.0295	175	C6H5O2-
118.0301	14	C7H4NO-
120.0091	322	C6H2NO2-
120.0455	34	C7H6NO-
120.0819	16	C8H10N-
123.0816	7	C8H11O-
126.02	3	C5H4NO3-
134.0248	999	C7H4NO2-
135.0326	66	C7H5NO2-
135.0453	5	C8H7O2-
136.0404	14	C7H6NO2-
137.0609	3	C8H9O2-
147.0325	9	C8H5NO2-
150.0196	16	C7H4NO3-
153.092	6	C9H13O2-
162.0559	40	C9H8NO2-
164.0716	3	C9H10NO2-
167.0226	18	C7H5NO4-
178.0872	84	C10H12NO2-
220.0979	510	C12H14NO3-
233.1062	7	C13H15NO3-
