Mass spectrum: Chlorthal-dimethyl; LC-ESI-QFT; MS2; CE: 150; R=35000; [M+H]+
Name: Chlorthal-dimethyl
Name: Dimethyl 2,3,5,6-tetrachloroterephthalate
Name: Dimethyl 2,3,5,6-tetrachlorobenzene-1,4-dicarboxylate
Formula: C10H6Cl4O4
Exact mass: 329.90202
SMILES: COC(=O)C1=C(C(=C(C(=C1Cl)Cl)C(=O)OC)Cl)Cl
InChI: InChI=1S/C10H6Cl4O4/c1-17-9(15)3-5(11)7(13)4(10(16)18-2)8(14)6(3)12/h1-2H3
Instrument: Q Exactive Plus Orbitrap Thermo Scientific
Instrument type: LC-ESI-QFT
Ms type: MS2
Ion mode: POSITIVE
Ionization: ESI
Fragmentation mode: HCD
Collision energy: 150 (nominal)
Resolution: 35000
Column name: XBridge C18 3.5um, 2.1x50mm, Waters
Retention time: 13.4 min
Base peak: 245.1745
Precursor m/z: 330.9093
Precursor type: [M+H]+
m/z	relative intensity	assigned
51.0231	1	C4H3+
53.0022	3	C3HO+
53.0387	1	C4H5+
55.0543	2	C4H7+
62.9631	10	CClO+
65.0387	4	C5H5+
67.0543	1	C5H7+
72.984	5	C3H2Cl+
74.0153	4	C6H2+
79.0543	1	C6H7+
80.9737	4	CH2ClO2+
82.945	8	CHCl2+
86.9632	3	C3ClO+
91.0544	5	C7H7+
94.9684	7	C5Cl+
95.0493	4	C6H7O+
95.9762	4	C5HCl+
96.9841	1	C5H2Cl+
98.9843	999	CH4ClO3+
105.0449	1	C6H5N2+
105.9371	1	C3Cl2+
106.9451	6	C3HCl2+
107.9762	12	C6HCl+
108.984	5	C6H2Cl+
110.9632	3	C5ClO+
115.0543	3	C9H7+
117.9373	2	C4Cl2+
129.9373	142	C5Cl2+
130.9452	9	C5HCl2+
140.9061	4	C3Cl3+
141.9373	54	C6Cl2+
142.9451	14	C6HCl2+
144.9608	1	C6H3Cl2+
156.9612	2	C7H3Cl2+
164.9062	96	C5Cl3+
176.9062	2	C6Cl3+
177.9139	3	C6HCl3+
