Mass spectrum: Thiacloprid; LC-ESI-ITFT; MS2; CE: 35%; R=15000; [M+H]+
Name: Thiacloprid
Name: (Z)-[3-[(6-Chloro-3-pyridinyl)methyl]-2-thiazolidinylidene]cyanamide
Name: Calypso
Formula: C10H9ClN4S
Exact mass: 252.0236
SMILES: C1CSC(=NC#N)N1CC2=CN=C(C=C2)Cl
InChI: InChI=1S/C10H9ClN4S/c11-9-2-1-8(5-13-9)6-15-3-4-16-10(15)14-7-12/h1-2,5H,3-4,6H2
Instrument: LTQ Orbitrap XL Thermo Scientific
Instrument type: LC-ESI-ITFT
Ms type: MS2
Ion mode: POSITIVE
Ionization: ESI
Fragmentation mode: CID
Collision energy: 35 % (nominal)
Resolution: 15000
Column name: XBridge C18 3.5um, 2.1x50mm, Waters
Retention time: 5.8 min
Base peak: 253.0312
Precursor m/z: 253.0309
Precursor type: [M+H]+
m/z	relative intensity	assigned
90.0339	5	C6H4N+
98.9995	1	C5H4Cl+
103.0324	1	C3H7N2S+
126.0106	999	C6H5ClN+
128.0263	4	C6H7ClN+
144.0212	1	C2H4N6S+
151.0058	33	C7H4ClN2+
157.0509	16	C8H5N4+
158.0713	2	C9H8N3+
166.0168	3	C7H5ClN3+
182.978	2	C7H4ClN2S+
186.0139	539	C8H9ClNS+
190.0434	25	C9H8N3S+
193.0275	49	C8H6ClN4+
194.048	30	C9H9ClN3+
205.0276	16	C9H6ClN4+
209.9882	1	C8H5ClN3S+
211.0092	167	C9H8ClN2S+
217.0543	219	C10H9N4S+
218.062	5	C10H10N4S+
220.0505	1	C10H9ClN4+
224.9996	3	C8H6ClN4S+
226.0201	404	C9H9ClN3S+
236.0044	92	C10H7ClN3S+
253.0314	2	C10H10ClN4S+
