Mass spectrum: Nodularin; LC-ESI-QFT; MS2; CE: 45; R=35000; [M-H]-
Name: Nodularin
Name: (2Z,5R,6S,9S,12S,13S,16R)-9-[3-(diaminomethylideneamino)propyl]-2-ethylidene-12-[(1E,3E,5S,6S)-6-methoxy-3,5-dimethyl-7-phenylhepta-1,3-dienyl]-1,6,13-trimethyl-3,7,10,14,19-pentaoxo-1,4,8,11,15-pentazacyclononadecane-5,16-dicarboxylic acid
Formula: C41H60N8O10
Exact mass: 824.44324
SMILES: NC(=N)NCCC[C@@H]2NC(=O)[C@@H](C)[C@@H](NC(=O)C(=C\C)\N(C)C(=O)CC[C@@H](NC(=O)[C@@H](C)[C@H](/C=C/C(/C)=C/[C@H](C)[C@H](Cc1ccccc1)OC)NC2=O)C(=O)O)C(O)=O
InChI: InChI=1S/C41H60N8O10/c1-8-31-38(54)48-34(40(57)58)26(5)36(52)46-29(15-12-20-44-41(42)43)37(53)45-28(25(4)35(51)47-30(39(55)56)18-19-33(50)49(31)6)17-16-23(2)21-24(3)32(59-7)22-27-13-10-9-11-14-27/h8-11,13-14,16-17,21,24-26,28-30,32,34H,12,15,18-20,22H2,1-7H3,(H,45,53)(H,46,52)(H,47,51)(H,48,54)(H,55,56)(H,57,58)(H4,42,43,44)/b17-16+,23-21+,31-8-/t24-,25-,26-,28-,29-,30+,32-,34+/m0/s1
Instrument: Q Exactive Orbitrap Thermo Scientific
Instrument type: LC-ESI-QFT
Ms type: MS2
Ion mode: NEGATIVE
Ionization: ESI
Fragmentation mode: HCD
Collision energy: 45 (nominal)
Resolution: 35000
Column name: XBridge C18 3.5um, 2.1x50mm, Waters
Retention time: 9.7 min
Base peak: 823.4366
Precursor m/z: 823.436
Precursor type: [M-H]-
m/z	relative intensity	assigned
58.0298	25	C2H4NO-
58.0411	9	CH4N3-
66.0349	29	C4H4N-
67.0189	3	C4H3O-
67.0302	23	C3H3N2-
69.0346	3	C4H5O-
70.0299	4	C3H4NO-
70.0662	3	C4H8N-
71.0503	2	C4H7O-
72.0092	8	C2H2NO2-
72.0455	93	C3H6NO-
73.0295	44	C3H5O2-
74.0247	137	C2H4NO2-
80.0506	11	C5H6N-
81.022	3	C4H3NO-
81.0459	4	C4H5N2-
82.0298	134	C4H4NO-
83.0615	11	C4H7N2-
84.0455	261	C4H6NO-
85.0295	11	C4H5O2-
86.0248	3	C3H4NO2-
86.0612	13	C4H8NO-
91.0554	16	C7H7-
94.0298	7	C5H4NO-
94.0663	3	C6H8N-
95.0378	10	C5H5NO-
95.0614	3	C5H7N2-
96.0455	38	C5H6NO-
96.082	4	C6H10N-
97.0408	3	C4H5N2O-
98.0247	8	C4H4NO2-
98.0612	53	C5H8NO-
100.0041	16	C3H2NO3-
100.0405	10	C4H6NO2-
101.072	21	C4H9N2O-
102.056	23	C4H8NO2-
106.0661	4	C7H8N-
107.0249	2	C5H3N2O-
107.0502	2	C7H7O-
108.0455	18	C6H6NO-
108.0567	3	C5H6N3-
108.0819	16	C7H10N-
109.0407	16	C5H5N2O-
110.0248	405	C5H4NO2-
110.0612	23	C6H8NO-
111.0326	20	C5H5NO2-
111.0563	16	C5H7N2O-
112.0404	213	C5H6NO2-
112.0768	31	C6H10NO-
112.088	14	C5H10N3-
113.0721	400	C5H9N2O-
114.0561	22	C5H8NO2-
121.0406	7	C6H5N2O-
121.0532	13	C7H7NO-
122.0486	45	C6H6N2O-
122.0611	25	C7H8NO-
122.0975	14	C8H12N-
123.0325	21	C6H5NO2-
123.0565	10	C6H7N2O-
124.0404	41	C6H6NO2-
124.0767	13	C7H10NO-
125.0355	2	C5H5N2O2-
125.0719	2	C6H9N2O-
126.0559	3	C6H8NO2-
127.0513	52	C5H7N2O2-
128.0353	999	C5H6NO3-
129.0389	2	H7N3O5-
130.0509	35	C5H8NO3-
130.0986	17	C5H12N3O-
131.0866	98	C10H11-
135.0564	10	C7H7N2O-
136.0403	3	C7H6NO2-
136.0516	10	C6H6N3O-
136.0767	23	C8H10NO-
137.072	233	C7H9N2O-
138.056	138	C7H8NO2-
138.0672	64	C6H8N3O-
139.0513	74	C6H7N2O2-
139.0876	14	C7H11N2O-
140.0717	27	C7H10NO2-
140.0827	14	C6H10N3O-
141.0668	16	C6H9N2O2-
142.0509	7	C6H8NO3-
145.0616	4	C5H9N2O3-
146.0459	3	C5H8NO4-
149.0719	43	C8H9N2O-
150.0558	13	C8H8NO2-
150.0924	3	C9H12NO-
151.0877	21	C8H11N2O-
152.0718	11	C8H10NO2-
153.1031	17	C8H13N2O-
154.0985	17	C7H12N3O-
155.0825	19	C7H11N2O2-
155.0937	3	C6H11N4O-
156.0779	10	C6H10N3O2-
163.0875	17	C9H11N2O-
164.0717	22	C9H10NO2-
166.0744	2	C8H10N2O2-
168.1139	25	C8H14N3O-
169.0978	2	C8H13N2O2-
171.118	3	C13H15-
176.108	8	C11H14NO-
178.0984	8	C9H12N3O-
179.0825	8	C9H11N2O2-
180.1143	39	C9H14N3O-
181.0982	52	C9H13N2O2-
198.1246	8	C9H16N3O2-
206.0937	2	C10H12N3O2-
