Mass spectrum: Brodifacoum; LC-ESI-QFT; MS2; CE: 75%; R=17500; [M+H]+
Name: Brodifacoum
Name: 3-[3-[4-(4-bromophenyl)phenyl]-1,2,3,4-tetrahydronaphthalen-1-yl]-4-hydroxychromen-2-one
Formula: C31H23BrO3
Exact mass: 522.0831
SMILES: C1C(CC2=CC=CC=C2C1C3=C(C4=CC=CC=C4OC3=O)O)C5=CC=C(C=C5)C6=CC=C(C=C6)Br
InChI: InChI=1S/C31H23BrO3/c32-24-15-13-20(14-16-24)19-9-11-21(12-10-19)23-17-22-5-1-2-6-25(22)27(18-23)29-30(33)26-7-3-4-8-28(26)35-31(29)34/h1-16,23,27,33H,17-18H2
Instrument: Exploris 240 Orbitrap Thermo Scientific
Instrument type: LC-ESI-QFT
Ms type: MS2
Ion mode: POSITIVE
Ionization: ESI
Fragmentation mode: HCD
Collision energy: 75 % (nominal)
Resolution: 17500
Column name: XBridge C18 3.5um, 2.1x50mm, Waters
Retention time: 16.530 min
Base peak: 523.0906
Precursor m/z: 523.0903
Precursor type: [M+H]+
m/z	relative intensity	assigned
65.0384	18	C5H5+
69.0334	8	C4H5O+
77.0387	26	C6H5+
79.0543	108	C6H7+
91.0542	377	C7H7+
95.0491	53	C6H7O+
103.0542	81	C8H7+
107.0491	216	C7H7O+
115.054	24	C9H7+
117.0698	17	C9H9+
121.0284	173	C7H5O2+
128.0621	52	C10H8+
129.0698	34	C10H9+
141.0699	48	C11H9+
143.0854	11	C11H11+
152.0616	7	C12H8+
164.0622	13	C13H8+
165.0699	803	C13H9+
168.9649	22	C7H6Br+
171.0803	6	C12H11O+
175.0389	130	C10H7O3+
177.0697	7	C14H9+
178.0777	999	C14H10+
179.0855	241	C14H11+
191.0855	8	C15H11+
202.0782	9	C16H10+
215.0853	26	C17H11+
228.0932	26	C18H12+
229.101	12	C18H13+
239.0856	139	C19H11+
240.0933	212	C19H12+
241.1011	479	C19H13+
242.9806	178	C13H8Br+
244.9961	35	C13H10Br+
253.1009	84	C20H13+
254.1088	73	C20H14+
255.1169	550	C20H15+
256.1245	145	C20H16+
256.9961	11	C14H10Br+
