Mass spectrum: Forchlorfenuron; LC-ESI-QFT; MS2; CE: 180; R=35000; [M-H]-
Name: Forchlorfenuron
Name: N-(2-chloro-4-pyridyl)-N`-phenylurea
Name: 1-(2-chloropyridin-4-yl)-3-phenylurea
Formula: C12H10ClN3O
Exact mass: 247.05124
SMILES: C1=CC=C(C=C1)NC(=O)NC2=CC(=NC=C2)Cl
InChI: InChI=1S/C12H10ClN3O/c13-11-8-10(6-7-14-11)16-12(17)15-9-4-2-1-3-5-9/h1-8H,(H2,14,15,16,17)
Instrument: Q Exactive Plus Orbitrap Thermo Scientific
Instrument type: LC-ESI-QFT
Ms type: MS2
Ion mode: NEGATIVE
Ionization: ESI
Fragmentation mode: HCD
Collision energy: 180 (nominal)
Resolution: 35000
Column name: XBridge C18 3.5um, 2.1x50mm, Waters
Retention time: 8.8 min
Base peak: 246.0435
Precursor m/z: 246.044
Precursor type: [M-H]-
m/z	relative intensity	assigned
50.0036	999	C3N-
64.0192	99	C4H2N-
65.0145	97	C3HN2-
65.0397	664	C5H5-
65.9985	13	C3NO-
66.035	24	C4H4N-
75.0242	16	C6H3-
90.0348	61	C6H4N-
92.0506	970	C6H6N-
