Mass spectrum: Sulcotrione; LC-ESI-ITFT; MS2; CE: 35%; R=30000; [M+H]+
Name: Sulcotrione
Name: 2-(2-chloranyl-4-methylsulfonyl-phenyl)carbonylcyclohexane-1,3-dione
Formula: C14H13ClO5S
Exact mass: 328.0167
SMILES: O=C1CCCC(=O)C1C(=O)c1ccc(S(=O)(=O)C)cc1Cl
InChI: InChI=1S/C14H13ClO5S/c1-21(19,20)8-5-6-9(10(15)7-8)14(18)13-11(16)3-2-4-12(13)17/h5-7,13H,2-4H2,1H3
Instrument: LTQ Orbitrap XL Thermo Scientific
Instrument type: LC-ESI-ITFT
Ms type: MS2
Ion mode: POSITIVE
Ionization: ESI
Fragmentation mode: CID
Collision energy: 35 % (nominal)
Resolution: 30000
Column name: XBridge C18 3.5um, 2.1x50mm, Waters
Retention time: 6.8 min
Base peak: 351.0066
Precursor m/z: 329.0245
Precursor type: [M+H]+
m/z	relative intensity	assigned
111.044	113	C6H7O2+
139.0389	999	C7H7O3+
157.0494	31	C7H9O4+
190.9927	24	C7H8ClO2S+
249.0308	12	C13H10ClO3+
252.9971	11	C11H8ClNO2S+
293.0473	236	C14H13O5S+
