Mass spectrum: Hexaconazole; LC-ESI-QFT; MS2; CE: 150%; R=17500; [M+H]+
Name: Hexaconazole
Name: 2-(2,4-dichlorophenyl)-1-(1,2,4-triazol-1-yl)hexan-2-ol
Formula: C14H17Cl2N3O
Exact mass: 313.0749
SMILES: CCCCC(CN1C=NC=N1)(C2=C(C=C(C=C2)Cl)Cl)O
InChI: InChI=1S/C14H17Cl2N3O/c1-2-3-6-14(20,8-19-10-17-9-18-19)12-5-4-11(15)7-13(12)16/h4-5,7,9-10,20H,2-3,6,8H2,1H3
Instrument: Exploris 240 Orbitrap Thermo Scientific
Instrument type: LC-ESI-QFT
Ms type: MS2
Ion mode: POSITIVE
Ionization: ESI
Fragmentation mode: HCD
Collision energy: 150 % (nominal)
Resolution: 17500
Column name: XBridge C18 3.5um, 2.1x50mm, Waters
Retention time: 11.635 min
Base peak: 320.1519
Precursor m/z: 314.0821
Precursor type: [M+H]+
m/z	relative intensity	assigned
63.0229	23	C5H3+
70.0399	999	C2H4N3+
72.9839	40	C3H2Cl+
75.0228	61	C6H3+
88.0306	14	C7H4+
89.0385	125	C7H5+
96.9839	9	C5H2Cl+
98.9998	42	C5H4Cl+
99.0229	24	C8H3+
115.0543	69	C9H7+
122.9995	58	C7H4Cl+
124.0074	21	C7H5Cl+
125.015	8	C7H6Cl+
132.9608	15	C5H3Cl2+
136.0076	10	C8H5Cl+
139.006	9	C6H4ClN2+
158.9764	26	C7H5Cl2+
