Mass spectrum: Dinoseb; LC-ESI-ITFT; MS2; CE: 75%; R=15000; [M-H]-
Name: Dinoseb
Name: 2,4-dinitro-6-sec-butyl-phenol
Formula: C10H12N2O5
Exact mass: 240.0746
SMILES: OC1=C([N+]([O-])=O)C=C([N+]([O-])=O)C=C1C(C)CC
InChI: InChI=1S/C10H12N2O5/c1-3-6(2)8-4-7(11(14)15)5-9(10(8)13)12(16)17/h4-6,13H,3H2,1-2H3
Instrument: LTQ Orbitrap XL Thermo Scientific
Instrument type: LC-ESI-ITFT
Ms type: MS2
Ion mode: NEGATIVE
Ionization: ESI
Fragmentation mode: HCD
Collision energy: 75 % (nominal)
Resolution: 15000
Column name: XBridge C18 3.5um, 2.1x50mm, Waters
Retention time: 13.0 min
Base peak: 239.0673
Precursor m/z: 239.0673
Precursor type: [M-H]-
m/z	relative intensity	assigned
121.0294	33	C7H5O2-
134.0245	98	C7H4NO2-
136.0403	51	C7H6NO2-
149.0246	30	C8H5O3-
150.056	22	C8H8NO2-
151.0764	71	C9H11O2-
162.02	43	C8H4NO3-
163.0276	24	C8H5NO3-
164.0354	37	C8H6NO3-
164.0479	67	C9H8O3-
176.0351	133	C9H6NO3-
177.0429	73	C9H7NO3-
178.0508	156	C9H8NO3-
180.0301	29	C8H6NO4-
190.0505	19	C10H8NO3-
192.0663	221	C10H10NO3-
193.0253	999	C8H5N2O4-
194.0457	393	C9H8NO4-
207.0409	126	C9H7N2O4-
209.0202	208	C8H5N2O5-
