Mass spectrum: N4-Acetylsulfadimethoxine; LC-ESI-ITFT; MS2; CE: 45%; R=15000; [M+H]+
Name: N4-Acetylsulfadimethoxine
Name: N-[4-[(4,6-dimethoxy-2-pyrimidinyl)sulfamoyl]phenyl]acetamide
Formula: C14H16N4O5S
Exact mass: 352.0841
SMILES: C(C)(=O)Nc1ccc(cc1)S(=O)(=O)Nc1nc(cc(n1)OC)OC
InChI: InChI=1S/C14H16N4O5S/c1-9(19)15-10-4-6-11(7-5-10)24(20,21)18-14-16-12(22-2)8-13(17-14)23-3/h4-8H,1-3H3,(H,15,19)(H,16,17,18)
Instrument: LTQ Orbitrap XL Thermo Scientific
Instrument type: LC-ESI-ITFT
Ms type: MS2
Ion mode: POSITIVE
Ionization: ESI
Fragmentation mode: HCD
Collision energy: 45 % (nominal)
Resolution: 15000
Column name: XBridge C18 3.5um, 2.1x50mm, Waters
Retention time: 6.3 min
Base peak: 353.0926
Precursor m/z: 353.0914
Precursor type: [M+H]+
m/z	relative intensity	assigned
65.0387	97	C5H5+
92.0495	18	C6H6N+
93.0336	61	C6H5O+
93.0573	14	C6H7N+
108.0445	412	C6H6NO+
116.0498	11	C8H6N+
124.0222	10	H4N4O4+
125.0585	53	C5H7N3O+
126.0663	58	C5H8N3O+
127.0504	53	C5H7N2O2+
133.0524	8	C8H7NO+
134.0602	999	C8H8NO+
136.0757	13	C8H10NO+
140.0456	32	C5H6N3O2+
142.0611	6	C5H8N3O2+
148.0757	21	C9H10NO+
150.055	25	C8H8NO2+
154.0613	490	C6H8N3O2+
155.0691	664	C6H9N3O2+
156.0115	61	C6H6NO2S+
156.0769	753	C6H10N3O2+
157.0482	40	C5H7N3O3+
159.0554	16	C9H7N2O+
162.0664	107	C8H8N3O+
164.0707	64	C9H10NO2+
170.0558	21	C6H8N3O3+
173.0586	28	C9H7N3O+
198.0221	274	C8H8NO3S+
212.0377	17	C9H10NO3S+
215.0692	89	C11H9N3O2+
218.0232	164	C6H8N3O4S+
230.08	24	C11H10N4O2+
245.1035	52	C12H13N4O2+
257.1034	26	C13H13N4O2+
272.0909	34	C13H12N4O3+
287.1141	310	C14H15N4O3+
321.0651	32	C13H13N4O4S+
353.092	242	C14H17N4O5S+
