Mass spectrum: Ranitidine N-oxide; LC-ESI-ITFT; MS2; CE: 30%; R=7500; [M+H]+
Name: Ranitidine N-oxide
Name: 1,1-Ethenediamine, N-(2-(((5-((dimethylamino)methyl)-2-furanyl)methyl)thio)ethyl)-N'-methyl-2-nitro-, N-oxide
Formula: C13H22N4O4S
Exact mass: 330.1362
SMILES: c1(oc(CSCCN\C(=C\[N+](=O)[O-])NC)cc1)CN(C)(C)=O
InChI: InChI=1S/C13H22N4O4S/c1-14-13(8-16(18)19)15-6-7-22-10-12-5-4-11(21-12)9-17(2,3)20/h4-5,8,14-15H,6-7,9-10H2,1-3H3/b13-8+
Instrument: LTQ Orbitrap XL Thermo Scientific
Instrument type: LC-ESI-ITFT
Ms type: MS2
Ion mode: POSITIVE
Ionization: ESI
Fragmentation mode: HCD
Collision energy: 30 % (nominal)
Resolution: 7500
Column name: XBridge C18 3.5um, 2.1x50mm, Waters
Retention time: 2.4 min
Base peak: 331.1444
Precursor m/z: 331.1435
Precursor type: [M+H]+
m/z	relative intensity	assigned
81.0335	24	C5H5O+
83.0607	6	C4H7N2+
88.0216	28	C3H6NS+
95.049	11	C6H7O+
97.0761	25	C5H9N2+
98.0839	170	C5H10N2+
102.0372	81	C4H8NS+
113.0707	8	C5H9N2O+
114.0788	13	C5H10N2O+
117.0478	11	C4H9N2S+
118.0321	11	C4H8NOS+
124.0758	206	C7H10NO+
125.0057	172	C6H5OS+
130.056	279	C5H10N2S+
131.0636	17	C5H11N2S+
144.0769	155	C5H10N3O2+
145.0436	15	C5H9N2OS+
147.0592	14	C5H11N2OS+
153.0371	31	C8H9OS+
154.0557	5	C7H10N2S+
164.0939	17	CH16N4O3S+
165.1023	64	C9H13N2O+
167.0639	23	C8H11N2S+
170.0634	60	C8H12NOS+
176.049	999	C5H10N3O2S+
177.1018	9	C2H17N4O3S+
178.1108	9	C10H14N2O+
181.0791	30	C9H13N2S+
191.1179	89	C11H15N2O+
193.0557	33	C10H11NOS+
195.0713	10	C10H13NOS+
224.098	217	C11H16N2OS+
225.106	11	C11H17N2OS+
241.0998	10	C11H17N2O2S+
270.0909	132	C11H16N3O3S+
