Mass spectrum: Metolachlor-TP SYN542490; LC-ESI-QFT; MS2; CE: 75%; R=17500; [M+H]+
Name: Metolachlor-TP SYN542490
Formula: C15H21NO6S
Exact mass: 343.1090
SMILES: O=S(=O)(O)CC(=O)N(C(C)COC)c1c(C)cccc1C(C)=O
InChI: InChI=1S/C15H21NO6S/c1-10-6-5-7-13(12(3)17)15(10)16(11(2)8-22-4)14(18)9-23(19,20)21/h5-7,11H,8-9H2,1-4H3,(H,19,20,21)
Instrument: Exploris 240 Orbitrap Thermo Scientific
Instrument type: LC-ESI-QFT
Ms type: MS2
Ion mode: POSITIVE
Ionization: ESI
Fragmentation mode: HCD
Collision energy: 75 % (nominal)
Resolution: 17500
Column name: XBridge C18 3.5um, 2.1x50mm, Waters
Retention time: 4.668 min
Base peak: 344.1159
Precursor m/z: 344.1162
Precursor type: [M+H]+
m/z	relative intensity	assigned
73.0647	186	C4H9O+
105.0699	142	C8H9+
106.0653	88	C7H8N+
107.073	41	C7H9N+
108.0808	90	C7H10N+
117.0572	46	C8H7N+
118.0651	84	C8H8N+
120.0806	123	C8H10N+
128.0624	20	C10H8+
129.0698	234	C10H9+
130.0649	54	C9H8N+
131.073	212	C9H9N+
132.0808	376	C9H10N+
134.0964	69	C9H12N+
144.0811	88	C10H10N+
145.0885	112	C10H11N+
146.0963	283	C10H12N+
148.1122	172	C10H14N+
154.0652	43	C11H8N+
156.0807	544	C11H10N+
157.0887	129	C11H11N+
158.097	62	C5H18O3S+
160.0756	433	C10H10NO+
160.1118	166	C11H14N+
162.092	35	C4H18O4S+
170.0966	211	C12H12N+
171.1044	67	C12H13N+
172.1121	999	C12H14N+
173.0833	154	C11H11NO+
174.0913	731	C11H12NO+
175.0992	101	C11H13NO+
188.1072	244	C12H14NO+
198.091	77	C13H12NO+
210.058	18	C10H12NO2S+
214.1226	201	C14H16NO+
216.1012	118	C13H14NO2+
