Mass spectrum: Mexiletine; LC-ESI-QFT; MS2; CE: 30; R=35000; [M+H]+
Name: Mexiletine
Name: 1-(2,6-dimethylphenoxy)-2-propanamine
Formula: C11H17NO
Exact mass: 179.13101
SMILES: O(c1c(cccc1C)C)CC(N)C
InChI: InChI=1S/C11H17NO/c1-8-5-4-6-9(2)11(8)13-7-10(3)12/h4-6,10H,7,12H2,1-3H3
Instrument: Q Exactive Orbitrap Thermo Scientific
Instrument type: LC-ESI-QFT
Ms type: MS2
Ion mode: POSITIVE
Ionization: ESI
Fragmentation mode: HCD
Collision energy: 30 (nominal)
Resolution: 35000
Column name: XBridge C18 3.5um, 2.1x50mm, Waters
Retention time: 5.7 min
Base peak: 180.1382
Precursor m/z: 180.1383
Precursor type: [M+H]+
m/z	relative intensity	assigned
58.0652	999	C3H8N+
79.0542	1	C6H7+
105.0699	29	C8H9+
107.0855	8	C8H11+
121.0648	68	C8H9O+
123.0804	20	C8H11O+
133.0761	5	C8H9N2+
135.0804	24	C9H11O+
135.1169	6	C10H15+
145.1012	2	C11H13+
163.1117	103	C11H15O+
180.1382	140	C11H18NO+
