Mass spectrum: Diatrizoate; LC-ESI-ITFT; MS2; CE: 90%; R=7500; [M+H]+
Name: Diatrizoate
Name: Diatrizoic acid
Name: 3,5-diacetamido-2,4,6-triiodo-benzoic acid
Formula: C11H9I3N2O4
Exact mass: 613.7697
SMILES: CC(=O)NC1=C(I)C(C(O)=O)=C(I)C(NC(C)=O)=C1I
InChI: InChI=1S/C11H9I3N2O4/c1-3(17)15-9-6(12)5(11(19)20)7(13)10(8(9)14)16-4(2)18/h1-2H3,(H,15,17)(H,16,18)(H,19,20)
Instrument: LTQ Orbitrap XL Thermo Scientific
Instrument type: LC-ESI-ITFT
Ms type: MS2
Ion mode: POSITIVE
Ionization: ESI
Fragmentation mode: HCD
Collision energy: 90 % (nominal)
Resolution: 7500
Column name: XBridge C18 3.5um, 2.1x50mm, Waters
Retention time: 1.6 min
Base peak: 631.8031
Precursor m/z: 614.7769
Precursor type: [M+H]+
m/z	relative intensity	assigned
77.0261	112	C5H3N+
78.0339	121	C5H4N+
79.0176	81	C5H3O+
79.0418	140	C5H5N+
91.0417	152	C6H5N+
106.0289	113	C6H4NO+
107.0365	318	C6H5NO+
118.0524	270	C7H6N2+
119.0603	101	C7H7N2+
120.0443	339	C7H6NO+
120.0687	83	C7H8N2+
145.0394	169	C8H5N2O+
146.0474	451	C8H6N2O+
147.0552	96	C8H7N2O+
148.0392	999	C8H6NO2+
148.0629	228	C8H8N2O+
159.0548	246	C9H7N2O+
165.042	171	C8H7NO3+
180.0523	403	C8H8N2O3+
187.0505	98	C10H7N2O2+
189.0664	75	C10H9N2O2+
192.053	318	C9H8N2O3+
203.9302	103	C5H3IN+
205.0605	313	C10H9N2O3+
219.0402	126	C10H7N2O4+
233.0547	262	C11H9N2O4+
293.9022	204	C7H3IO5+
