Mass spectrum: Spiroxamine; LC-ESI-ITFT; MS2; CE: 45%; R=15000; [M+H]+
Name: Spiroxamine
Name: (8-tert-butyl-1,4-dioxaspiro[4.5]decan-3-yl)methyl-ethyl-propyl-amine
Formula: C18H35NO2
Exact mass: 297.2668
SMILES: CCCN(CC)CC1COC2(O1)CCC(CC2)C(C)(C)C
InChI: InChI=1S/C18H35NO2/c1-6-12-19(7-2)13-16-14-20-18(21-16)10-8-15(9-11-18)17(3,4)5/h15-16H,6-14H2,1-5H3
Instrument: LTQ Orbitrap XL Thermo Scientific
Instrument type: LC-ESI-ITFT
Ms type: MS2
Ion mode: POSITIVE
Ionization: ESI
Fragmentation mode: HCD
Collision energy: 45 % (nominal)
Resolution: 15000
Column name: XBridge C18 3.5um, 2.1x50mm, Waters
Retention time: 10.1 min
Base peak: 298.2748
Precursor m/z: 298.2741
Precursor type: [M+H]+
m/z	relative intensity	assigned
58.0651	3	C3H8N+
72.0808	21	C4H10N+
84.0808	1	C5H10N+
86.0965	1	C5H12N+
100.1121	239	C6H14N+
102.0914	3	C5H12NO+
126.1278	3	C8H16N+
144.1384	999	C8H18NO+
160.1333	4	C8H18NO2+
298.2741	89	C18H36NO2+
