Mass spectrum: Pyrithione; LC-ESI-QFT; MS2; CE: 150%; R=17500; [M+H]+
Name: Pyrithione
Name: 1-hydroxypyridine-2-thione
Formula: C5H5NOS
Exact mass: 127.0092
SMILES: C1=CC(=S)N(C=C1)O
InChI: InChI=1S/C5H5NOS/c7-6-4-2-1-3-5(6)8/h1-4,7H
Instrument: Exploris 240 Orbitrap Thermo Scientific
Instrument type: LC-ESI-QFT
Ms type: MS2
Ion mode: POSITIVE
Ionization: ESI
Fragmentation mode: HCD
Collision energy: 150 % (nominal)
Resolution: 17500
Column name: XBridge C18 3.5um, 2.1x50mm, Waters
Retention time: 2.993 min
Base peak: 128.0164
Precursor m/z: 128.0165
Precursor type: [M+H]+
m/z	relative intensity	assigned
41.026	21	C2H3N+
44.9793	8	CHS+
51.023	52	C4H3+
52.0182	4	C3H2N+
57.9872	5	C2H2S+
66.0338	12	C4H4N+
67.0417	999	C4H5N+
68.9794	29	C3HS+
78.0339	88	C5H4N+
82.995	89	C4H3S+
83.9902	23	C3H2NS+
84.0028	5	C4H4S+
96.0444	53	C5H6NO+
110.0059	35	C5H4NS+
111.0137	27	C5H5NS+
