Mass spectrum: Tetrazepam; LC-ESI-QFT; MS2; CE: 60; R=35000; [M+H]+
Name: Tetrazepam
Name: 7-chloro-5-(cyclohexen-1-yl)-1-methyl-3H-1,4-benzodiazepin-2-one
Formula: C16H17ClN2O
Exact mass: 288.10294
SMILES: CN1C(=O)CN=C(C2=C1C=CC(=C2)Cl)C3=CCCCC3
InChI: InChI=1S/C16H17ClN2O/c1-19-14-8-7-12(17)9-13(14)16(18-10-15(19)20)11-5-3-2-4-6-11/h5,7-9H,2-4,6,10H2,1H3
Instrument: Q Exactive Orbitrap Thermo Scientific
Instrument type: LC-ESI-QFT
Ms type: MS2
Ion mode: POSITIVE
Ionization: ESI
Fragmentation mode: HCD
Collision energy: 60 (nominal)
Resolution: 35000
Column name: XBridge C18 3.5um, 2.1x50mm, Waters
Retention time: 10.1 min
Base peak: 289.1101
Precursor m/z: 289.1102
Precursor type: [M+H]+
m/z	relative intensity	assigned
56.0496	3	C3H6N+
58.0288	19	C2H4NO+
65.0385	21	C5H5+
66.0465	2	C5H6+
67.0541	191	C5H7+
68.0494	8	C4H6N+
69.0698	14	C5H9+
70.065	4	C4H8N+
77.0384	9	C6H5+
79.0541	183	C6H7+
80.0494	11	C5H6N+
81.0698	672	C6H9+
82.065	37	C5H8N+
83.0854	9	C6H11+
91.0541	28	C7H7+
93.0698	40	C7H9+
94.065	3	C6H8N+
95.049	13	C6H7O+
95.073	8	C6H9N+
95.0854	124	C7H11+
96.0807	71	C6H10N+
103.0541	3	C8H7+
105.0448	3	C6H5N2+
105.0698	3	C8H9+
106.0651	3	C7H8N+
108.0807	4	C7H10N+
109.0648	16	C7H9O+
110.0964	74	C7H12N+
116.0492	2	C8H6N+
117.0571	49	C8H7N+
118.0648	13	C8H8N+
119.0602	2	C7H7N2+
119.0728	8	C8H9N+
120.0806	16	C8H10N+
125.0152	10	C7H6Cl+
126.0227	2	C7H7Cl+
127.0307	2	C7H8Cl+
128.0617	2	C10H8+
130.065	17	C9H8N+
131.0728	31	C9H9N+
132.068	11	C8H8N2+
139.0181	3	C7H6ClN+
140.0259	36	C10H4O+
142.065	2	C10H8N+
143.0602	16	C9H7N2+
143.0729	17	C10H9N+
144.0682	11	C9H8N2+
144.0807	20	C10H10N+
145.076	2	C9H9N2+
145.0889	2	C10H11N+
146.0836	9	C9H10N2+
147.0679	29	C9H9NO+
148.0756	4	C9H10NO+
150.0103	13	C8H5ClN+
151.0182	10	C8H6ClN+
152.026	95	C8H7ClN+
154.0417	345	C8H9ClN+
155.0727	14	C11H9N+
155.0856	3	C12H11+
156.0675	2	C10H8N2+
156.0805	12	C11H10N+
157.0759	9	C10H9N2+
157.0884	10	C11H11N+
158.0837	2	C10H10N2+
158.0968	2	C11H12N+
159.0915	4	C10H11N2+
160.0993	8	C10H12N2+
162.0105	2	C9H5ClN+
164.0259	156	C9H7ClN+
165.0216	14	C8H6ClN2+
165.0337	13	C9H8ClN+
165.0697	11	C13H9+
166.0416	50	C9H9ClN+
166.0773	3	C13H10+
167.0131	98	C8H6ClNO+
167.0368	14	C8H8ClN2+
167.073	27	C12H9N+
167.0854	8	C13H11+
168.0212	3	C8H7ClNO+
168.0808	58	C12H10N+
168.0925	2	C13H12+
169.0769	16	C11H9N2+
169.0884	115	C12H11N+
170.0839	9	C11H10N2+
170.096	18	C12H12N+
171.0915	54	C11H11N2+
171.104	8	C12H13N+
172.0629	85	C10H8N2O+
172.0993	86	C11H12N2+
175.0305	3	C11H8Cl+
176.0258	2	C13H4O+
177.0337	13	C10H8ClN+
178.0416	164	C10H9ClN+
179.0369	113	C9H8ClN2+
179.0497	9	C10H10ClN+
179.0852	9	C14H11+
180.0209	58	C9H7ClNO+
180.0449	25	C9H9ClN2+
180.0573	3	C10H11ClN+
180.0805	33	C13H10N+
180.0934	8	C14H12+
181.0527	13	C9H10ClN2+
181.0757	10	C12H9N2+
181.0885	76	C13H11N+
182.0365	124	C9H9ClNO+
182.0841	35	C12H10N2+
182.0963	98	C13H12N+
183.0917	96	C12H11N2+
183.1039	75	C13H13N+
184.0994	46	C12H12N2+
184.1116	18	C13H14N+
185.1072	59	C12H13N2+
185.1197	8	C13H15N+
189.0341	2	C11H8ClN+
190.0417	45	C11H9ClN+
191.0495	39	C11H10ClN+
192.0447	7	C10H9ClN2+
192.0571	25	C14H8O+
193.0526	41	C10H10ClN2+
193.0882	5	C14H11N+
194.0367	10	C10H9ClNO+
194.0963	65	C14H12N+
195.0683	20	C10H12ClN2+
195.0914	9	C13H11N2+
195.1041	55	C14H13N+
196.0994	12	C13H12N2+
196.1119	172	C14H14N+
197.1072	396	C13H13N2+
197.1197	615	C14H15N+
198.115	149	C13H14N2+
198.1275	280	C14H16N+
199.0863	87	C12H11N2O+
199.1354	10	C14H17N+
200.0942	100	C12H12N2O+
201.0337	10	C12H8ClN+
202.0415	60	C15H6O+
203.0368	25	C11H8ClN2+
203.0492	43	C15H7O+
204.045	10	C11H9ClN2+
204.0573	134	C12H11ClN+
205.0529	16	C14H7NO+
206.0367	3	C11H9ClNO+
206.0601	8	C11H11ClN2+
207.0683	85	C11H12ClN2+
207.1041	8	C15H13N+
208.112	76	C15H14N+
209.0471	35	C10H10ClN2O+
209.1073	17	C14H13N2+
209.1198	53	C15H15N+
210.079	2	C13H10N2O+
210.1151	31	C14H14N2+
210.127	9	C15H16N+
211.0862	27	C13H11N2O+
211.1228	63	C14H15N2+
212.0942	48	C13H12N2O+
213.102	210	C13H13N2O+
214.0415	11	
215.0499	18	C13H10ClN+
216.0574	56	C13H11ClN+
217.0527	58	C12H10ClN2+
217.0653	84	C13H12ClN+
218.0605	114	C12H11ClN2+
218.0729	45	C13H13ClN+
219.0683	31	C12H12ClN2+
220.0887	12	C13H15ClN+
221.0471	8	C11H10ClN2O+
222.0907	2	C15H12NO+
223.0634	2	C11H12ClN2O+
223.1225	23	C15H15N2+
224.0941	2	C14H12N2O+
224.1054	2	C13H12N4+
224.1308	3	C15H16N2+
225.1021	999	C14H13N2O+
225.1384	609	C15H17N2+
226.1098	463	C14H14N2O+
226.1462	224	C15H18N2+
228.0568	21	C14H11ClN+
229.0648	10	C14H12ClN+
230.0729	80	C14H13ClN+
231.0684	28	C13H12ClN2+
231.0806	23	C14H14ClN+
232.0885	443	C14H15ClN+
233.0473	7	C12H10ClN2O+
233.084	137	C16H11NO+
233.0962	46	C14H16ClN+
234.1043	8	C14H17ClN+
235.063	227	C12H12ClN2O+
236.1065	11	C16H14NO+
237.1141	14	C16H15NO+
239.1174	66	C15H15N2O+
242.073	8	C15H13ClN+
243.0691	2	C14H12ClN2+
244.0528	3	C14H11ClNO+
244.0886	52	C15H15ClN+
245.0603	4	C14H12ClNO+
245.0837	75	C14H14ClN2+
246.0919	72	C14H15ClN2+
247.0628	22	C13H12ClN2O+
253.1333	741	C16H17N2O+
254.1411	216	C16H18N2O+
259.063	9	C14H12ClN2O+
259.0992	27	C15H16ClN2+
260.0831	3	C15H15ClNO+
261.0787	185	C14H14ClN2O+
261.115	190	C15H18ClN2+
272.0841	2	C16H15ClNO+
273.0782	4	C15H14ClN2O+
274.0868	3	C15H15ClN2O+
289.1099	593	C16H18ClN2O+
