Mass spectrum: Nilotinib; LC-ESI-QFT; MS2; CE: 120; R=35000; [M+H]+
Name: Nilotinib
Name: 4-methyl-N-(3-(4-methylimidazol-1-yl)-5-(trifluoromethyl)phenyl)-3-((4-pyridin-3-ylpyrimidin-2-yl)amino)benzamide
Formula: C28H22F3N7O
Exact mass: 529.18379
SMILES: CC1=C(C=C(C=C1)C(=O)NC2=CC(=CC(=C2)N3C=C(N=C3)C)C(F)(F)F)NC4=NC=CC(=N4)C5=CN=CC=C5
InChI: InChI=1S/C28H22F3N7O/c1-17-5-6-19(10-25(17)37-27-33-9-7-24(36-27)20-4-3-8-32-14-20)26(39)35-22-11-21(28(29,30)31)12-23(13-22)38-15-18(2)34-16-38/h3-16H,1-2H3,(H,35,39)(H,33,36,37)
Instrument: Q Exactive Plus Orbitrap Thermo Scientific
Instrument type: LC-ESI-QFT
Ms type: MS2
Ion mode: POSITIVE
Ionization: ESI
Fragmentation mode: HCD
Collision energy: 120 (nominal)
Resolution: 35000
Column name: XBridge C18 3.5um, 2.1x50mm, Waters
Retention time: 8.2 min
Base peak: 530.1902
Precursor m/z: 530.1911
Precursor type: [M+H]+
m/z	relative intensity	assigned
50.0151	28	C4H2+
51.0229	33	C4H3+
52.0182	8	C3H2N+
52.0308	4	C4H4+
53.0022	4	C3HO+
53.0134	6	C2HN2+
53.0386	49	C4H5+
54.0339	13	C3H4N+
54.0463	1	C4H6+
55.0178	2	C3H3O+
55.0416	1	C3H5N+
56.0495	23	C3H6N+
57.0134	2	C3H2F+
62.0151	11	C5H2+
63.0229	61	C5H3+
64.0181	4	C4H2N+
64.0307	6	C5H4+
65.026	8	C4H3N+
65.0386	87	C5H5+
66.0464	7	C5H6+
67.0416	5	C4H5N+
68.0494	1	C4H6N+
68.9945	1	CF3+
74.015	5	C6H2+
75.004	2	C3HF2+
75.0229	41	C6H3+
76.018	12	FHN4+
76.0307	10	C6H4+
77.0385	68	CH4FN3+
78.0338	106	C5H4N+
78.0464	8	C6H6+
79.0416	44	C5H5N+
79.0542	39	C6H7+
80.0367	1	C4H4N2+
80.0494	16	FH5N4+
81.0134	2	C5H2F+
81.0335	9	C5H5O+
81.0447	13	C4H5N2+
82.0525	2	C4H6N2+
83.0291	6	C5H4F+
83.0603	10	C4H7N2+
88.0181	11	C6H2N+
88.0306	15	
89.0385	197	C7H5+
90.0338	32	C6H4N+
90.0464	25	C7H6+
91.0416	37	C6H5N+
91.0542	74	C7H7+
92.0368	4	C5H4N2+
92.0495	49	C6H6N+
93.0574	2	C6H7N+
95.0491	165	C6H7O+
96.0443	157	C5H6NO+
97.0397	1	C4H5N2O+
98.0151	1	C8H2+
99.0041	1	C5HF2+
100.0181	1	C7H2N+
101.0196	2	C5H3F2+
101.0386	5	C8H5+
102.0338	53	C7H4N+
102.0464	40	C8H6+
103.029	7	C6H3N2+
103.0416	40	C7H5N+
103.0542	27	C8H7+
104.0494	440	C7H6N+
105.0447	146	C6H5N2+
106.0528	7	C6H6N2+
106.0651	41	C7H8N+
107.0291	10	C7H4F+
107.0729	1	C7H9N+
108.0245	1	C6H3FN+
108.0443	1	C6H6NO+
109.0323	1	C6H4FN+
110.0599	8	CH7FN4O+
111.0314	11	C5H5NO2+
113.0197	2	C6H3F2+
113.0387	4	C9H5+
114.0338	55	C8H4N+
115.0416	94	C8H5N+
115.0542	11	C9H7+
116.0369	41	C7H4N2+
116.0494	85	C8H6N+
117.0447	12	C7H5N2+
117.0572	59	C8H7N+
118.0525	23	C7H6N2+
118.065	27	C8H8N+
119.0488	4	C3H6FN3O+
119.0603	10	C7H7N2+
120.037	6	C8H5F+
120.0444	36	C7H6NO+
121.0323	1	C7H4FN+
121.0396	16	C6H5N2O+
121.0447	5	C3H5F2N3+
122.04	1	C7H5FN+
123.0352	4	CH3F2N5+
124.0182	5	C9H2N+
125.0197	20	C7H3F2+
125.0389	1	C10H5+
126.0276	19	C7H4F2+
126.0342	1	C9H4N+
127.0353	11	C7H5F2+
127.0416	6	C9H5N+
127.0539	1	C5H6FN3+
128.0494	63	C9H6N+
129.0447	200	C8H5N2+
129.0571	16	C4H6FN4+
130.04	97	C7H4N3+
130.0525	29	C8H6N2+
130.0651	24	C9H8N+
131.0603	206	C3H6FN5+
132.0182	9	C6H3F3+
132.0444	2	C8H6NO+
132.0681	6	C8H8N2+
133.026	5	C6H4F3+
133.0522	8	C8H7NO+
134.0399	7	C3H4F2N4+
134.0475	30	C7H6N2O+
134.06	16	C8H8NO+
135.0552	5	C7H7N2O+
139.0228	20	C2H2F3N4+
139.0353	7	C8H5F2+
139.0541	10	C11H7+
140.0306	30	C7H4F2N+
140.0493	31	C5H5FN4+
141.0258	10	C6H3F2N2+
141.0451	8	C9H5N2+
141.0572	5	C10H7N+
142.0525	88	C9H6N2+
143.0103	2	C7H2F3+
143.0478	28	C8H5N3+
143.0603	36	C9H7N2+
144.0445	1	C9H6NO+
144.0557	9	C8H6N3+
144.0681	19	C9H8N2+
145.0259	38	C7H4F3+
145.0639	2	C8H7N3+
145.076	31	
146.0345	1	C2H3FN6O+
146.0402	5	C9H5FN+
146.06	25	C9H8NO+
147.0552	88	C8H7N2O+
148.0305	2	C7H3FN3+
148.0556	11	C4H6F2N4+
149.0713	1	C8H9N2O+
150.0465	1	C12H6+
151.0353	51	C9H5F2+
152.0306	14	C8H4F2N+
152.0498	2	C11H6N+
152.062	7	C12H8+
153.0386	47	C8H5F2N+
153.0447	7	C10H5N2+
154.04	5	C9H4N3+
154.0525	6	C10H6N2+
154.0651	8	C11H8N+
155.0603	106	C10H7N2+
156.0556	190	C9H6N3+
156.0681	14	C5H7FN5+
157.0261	1	C8H4F3+
157.0522	2	C10H7NO+
157.0636	8	C9H7N3+
157.0761	6	C10H9N2+
158.04	14	C10H5FN+
158.0713	6	C9H8N3+
159.0289	1	C7H4F3N+
159.0551	7	C4H6FN5O+
160.0368	8	C7H5F3N+
161.0207	5	C5HN6O+
162.0422	10	C3H5FN5O2+
163.0543	5	C13H7+
164.0494	32	C12H6N+
165.0448	6	C11H5N2+
165.057	13	C7H6FN4+
165.07	1	C13H9+
166.0463	25	C9H6F2N+
166.0526	9	C11H6N2+
166.0651	19	C12H8N+
167.0477	2	C5H4FN6+
167.0539	4	C4H6F3N4+
167.0604	13	C11H7N2+
167.0729	6	C12H9N+
168.0559	13	C10H6N3+
168.0682	15	C11H8N2+
169.026	1	C9H4F3+
169.0521	1	C11H7NO+
169.0637	20	
170.0711	18	C5H7FN6+
171.0553	16	C10H7N2O+
171.079	8	C5H8FN6+
172.0369	18	C8H5F3N+
173.0323	1	C7H4F3N2+
173.051	12	C10H6FN2+
174.0591	2	C10H7FN2+
174.066	18	C4H7FN6O+
176.0308	4	C10H4F2N+
178.0462	6	C10H6F2N+
178.0533	1	C12H6N2+
179.0603	25	C12H7N2+
179.0727	2	C8H8FN4+
180.0488	1	C4H5F3N5+
180.0556	9	C11H6N3+
180.068	6	C7H7FN5+
180.0807	5	C13H10N+
181.0637	8	C11H7N3+
181.0759	11	C7H8FN5+
182.0712	33	C11H8N3+
183.0555	2	C11H7N2O+
183.0671	6	C2H7F2N7O+
183.0794	7	C11H9N3+
186.016	7	C6N7O+
186.0428	3	C10H6N2O2+
186.0526	10	C9H7F3N+
187.0478	5	C8H6F3N2+
188.0496	4	C14H6N+
189.0451	3	C13H5N2+
190.0525	7	C13H6N2+
190.0649	18	C9H7FN4+
191.0602	48	C8H6FN5+
191.0728	13	C9H8FN4+
192.0681	84	
193.057	42	C5H6F3N5+
193.0637	31	C12H7N3+
193.0761	29	C13H9N2+
194.0646	16	C5H7F3N5+
194.0714	41	C12H8N3+
195.0554	4	C12H7N2O+
195.0726	12	C5H8F3N5+
195.0803	3	C9H10FN3O+
196.0369	2	C10H5F3N+
197.0448	2	C10H6F3N+
197.0705	1	C7H8FN5O+
199.0478	11	C9H6F3N2+
200.0557	5	C9H7F3N2+
201.0523	2	C10H8F3O+
202.053	1	C14H6N2+
203.0604	10	C6H7F2N5O+
204.0559	14	C13H6N3+
204.0679	8	C9H7FN5+
205.0639	5	C13H7N3+
205.0761	59	C14H9N2+
206.0713	39	C13H8N3+
206.0837	11	C9H9FN5+
207.0669	6	C7H6FN7+
207.0791	19	C13H9N3+
208.0636	2	C13H8N2O+
208.087	29	C13H10N3+
209.0709	9	C13H9N2O+
213.0636	20	C10H8F3N2+
214.072	3	C10H9F3N2+
215.0603	11	C15H7N2+
216.0559	6	C14H6N3+
216.0682	36	C15H8N2+
217.0635	95	C14H7N3+
217.0759	18	C10H8FN5+
218.0713	131	C14H8N3+
218.0835	17	C10H9FN5+
219.0669	9	C13H7N4+
219.0791	61	C14H9N3+
219.0913	7	C10H10FN5+
220.0868	55	C9H9FN6+
221.0819	10	C8H8FN7+
223.0478	11	C11H6F3N2+
225.0523	2	C12H8F3O+
229.0507	1	C9H4FN7+
230.0712	39	C10H7FN6+
231.0668	8	C14H7N4+
231.0789	51	C10H8FN6+
232.0868	119	C15H10N3+
233.0821	17	C9H8FN7+
233.0947	16	C15H11N3+
234.0664	10	C14H8N3O+
234.0901	4	C14H10N4+
234.1026	9	C15H12N3+
241.0631	5	C11H6FN6+
242.0709	10	C11H7FN6+
243.0665	54	C15H7N4+
243.0792	44	C16H9N3+
244.0744	999	C15H8N4+
245.0822	298	C15H9N4+
246.09	48	C10H9FN7+
247.0976	10	C10H10FN7+
256.0742	11	C11H7FN7+
257.0821	416	C16H9N4+
258.09	305	C16H10N4+
259.0978	909	C11H10FN7+
260.1057	10	C16H12N4+
276.0634	4	C15H9F3NO+
