Mass spectrum: Dioxacarb; LC-ESI-QFT; MS2; CE: 15%; R=17500; [M+H]+
Name: Dioxacarb
Name: [2-(1,3-dioxolan-2-yl)phenyl] N-methylcarbamate
Formula: C11H13NO4
Exact mass: 223.0845
SMILES: CNC(=O)OC1=CC=CC=C1C2OCCO2
InChI: InChI=1S/C11H13NO4/c1-12-11(13)16-9-5-3-2-4-8(9)10-14-6-7-15-10/h2-5,10H,6-7H2,1H3,(H,12,13)
Instrument: Exploris 240 Orbitrap Thermo Scientific
Instrument type: LC-ESI-QFT
Ms type: MS2
Ion mode: POSITIVE
Ionization: ESI
Fragmentation mode: HCD
Collision energy: 15 % (nominal)
Resolution: 17500
Column name: XBridge C18 3.5um, 2.1x50mm, Waters
Retention time: 3.997 min
Base peak: 167.0701
Precursor m/z: 224.0917
Precursor type: [M+H]+
m/z	relative intensity	assigned
73.0283	1	C3H5O2+
102.0548	10	C4H8NO2+
123.044	96	C7H7O2+
162.0549	130	C9H8NO2+
167.0701	999	C9H11O3+
