Mass spectrum: Torsemide; LC-ESI-QFT; MS2; CE: 90; R=35000; [M-H]-
Name: Torsemide
Name: SMR000466313
Name: 1-[4-(3-methylanilino)pyridin-3-yl]sulfonyl-3-propan-2-ylurea
Formula: C16H20N4O3S
Exact mass: 348.12561
SMILES: O=S(=O)(c2c(Nc1cc(ccc1)C)ccnc2)NC(=O)NC(C)C
InChI: InChI=1S/C16H20N4O3S/c1-11(2)18-16(21)20-24(22,23)15-10-17-8-7-14(15)19-13-6-4-5-12(3)9-13/h4-11H,1-3H3,(H,17,19)(H2,18,20,21)
Instrument: Q Exactive Orbitrap Thermo Scientific
Instrument type: LC-ESI-QFT
Ms type: MS2
Ion mode: NEGATIVE
Ionization: ESI
Fragmentation mode: HCD
Collision energy: 90 (nominal)
Resolution: 35000
Column name: XBridge C18 3.5um, 2.1x50mm, Waters
Retention time: 6.8 min
Base peak: 347.1184
Precursor m/z: 347.1183
Precursor type: [M-H]-
m/z	relative intensity	assigned
56.9804	6	C2HS-
57.9757	128	CNS-
60.9753	77	CHOS-
61.9706	63	NOS-
63.9624	82	O2S-
65.0145	43	C3HN2-
66.0349	5	C4H4N-
67.0302	6	C3H3N2-
68.0141	4	C3H2NO-
77.9655	999	NO2S-
78.9734	126	HNO2S-
79.9812	33	H2NO2S-
90.0349	3	C6H4N-
91.0302	204	C5H3N2-
92.038	341	C5H4N2-
93.0458	219	C5H5N2-
93.9604	5	NO3S-
94.0298	14	C5H4NO-
95.0251	13	C4H3N2O-
96.9992	11	C4H3NS-
105.0332	26	
105.0584	76	C7H7N-
106.0663	25	C7H8N-
107.0489	85	C5H5N3-
108.0329	463	C5H4N2O-
109.0409	22	C5H5N2O-
117.0458	2	C7H5N2-
118.0413	11	C6H4N3-
120.9992	11	C6H3NS-
123.0023	16	C5H3N2S-
124.01	20	C5H4N2S-
124.9943	4	C5H3NOS-
125.0178	12	C5H5N2S-
130.0658	3	C9H8N-
131.049	35	C7H5N3-
131.0617	3	C8H7N2-
132.0567	21	C7H6N3-
135.0026	22	C6H3N2S-
149.0053	24	C6H3N3S-
149.0177	13	C7H5N2S-
150.013	13	C6H4N3S-
150.9971	48	C6H3N2OS-
153.0004	20	C5H3N3OS-
154.0665	4	C11H8N-
154.992	11	C5H3N2O2S-
155.0614	34	C10H7N2-
156	15	C5H4N2O2S-
156.082	15	
167.0613	14	C11H7N2-
168.0567	7	C10H6N3-
169.0646	5	C10H7N3-
169.0771	17	C11H9N2-
170.0722	5	C10H8N3-
180.0569	4	C11H6N3-
180.0693	54	C12H8N2-
181.0653	108	C5H13N2O3S-
181.0771	872	C4H13N4O2S-
182.0724	61	C11H8N3-
183.0926	300	C4H15N4O2S-
192.0567	38	C12H6N3-
193.0644	3	C12H7N3-
194.0723	88	C12H8N3-
195.0801	489	C12H9N3-
196.0879	161	C12H10N3-
197.0718	4	C12H9N2O-
198.1035	58	C12H12N3-
199.0333	20	C11H7N2S-
199.0878	15	C12H11N2O-
200.0289	17	C10H6N3S-
210.0674	20	C12H8N3O-
224.0286	17	C12H6N3S-
225.0362	10	C12H7N3S-
226.0444	84	C12H8N3S-
227.0523	6	C12H9N3S-
242.0388	5	C12H8N3OS-
243.0472	11	C12H9N3OS-
262.0658	20	C12H12N3O2S-
