Mass spectrum: Tiapride; LC-ESI-QFT; MS2; CE: 75; R=35000; [M+H]+
Name: Tiapride
Name: N-(2-diethylaminoethyl)-2-methoxy-5-methylsulfonyl-benzamide
Formula: C15H24N2O4S
Exact mass: 328.14568
SMILES: CCN(CC)CCNC(=O)C1=C(C=CC(=C1)S(=O)(=O)C)OC
InChI: InChI=1S/C15H24N2O4S/c1-5-17(6-2)10-9-16-15(18)13-11-12(22(4,19)20)7-8-14(13)21-3/h7-8,11H,5-6,9-10H2,1-4H3,(H,16,18)
Instrument: Q Exactive Orbitrap Thermo Scientific
Instrument type: LC-ESI-QFT
Ms type: MS2
Ion mode: POSITIVE
Ionization: ESI
Fragmentation mode: HCD
Collision energy: 75 (nominal)
Resolution: 35000
Column name: XBridge C18 3.5um, 2.1x50mm, Waters
Retention time: 2.6 min
Base peak: 329.1529
Precursor m/z: 329.153
Precursor type: [M+H]+
m/z	relative intensity	assigned
65.0386	11	C5H5+
66.0464	1	C5H6+
67.0542	3	C5H7+
72.0807	19	C4H10N+
74.0963	24	C4H12N+
77.0385	1	C6H5+
78.0463	26	C6H6+
78.9848	13	CH3O2S+
79.0541	7	C6H7+
81.0335	2	C5H5O+
86.0964	3	C5H12N+
91.0542	7	C7H7+
93.0336	1	C6H5O+
94.0413	7	C6H6O+
95.0491	6	C6H7O+
99.0263	2	C5H7S+
100.112	33	C6H14N+
104.0495	13	C7H6N+
105.0335	9	C7H5O+
105.0572	34	C7H7N+
106.0412	14	C7H6O+
106.065	3	C7H8N+
107.0127	4	C6H3O2+
107.0491	16	C7H7O+
108.0205	3	C6H4O2+
109.0105	9	C6H5S+
109.0284	1	C6H5O2+
110.0183	1	C6H6S+
121.0646	3	C8H9O+
122.0235	4	C6H4NO2+
122.036	9	C7H6O2+
123.0076	16	C6H3O3+
123.0439	7	C7H7O2+
124.0516	5	C7H8O2+
132.0443	13	C8H6NO+
133.0521	241	C8H7NO+
134.0361	122	C8H6O2+
134.0599	54	C8H8NO+
136.0395	1	C7H6NO2+
137.0234	3	C7H5O3+
148.0392	1	C8H6NO2+
148.0755	6	C9H10NO+
150.0311	4	C8H6O3+
153.0003	1	C7H5O2S+
154.0081	1	C7H6O2S+
154.9795	3	C6H3O3S+
162.0548	54	C9H8NO2+
165.042	17	C8H7NO3+
166.0259	78	C8H6O4+
170.003	3	C7H6O3S+
173.0264	10	C7H9O3S+
177.0783	223	C10H11NO2+
178.0497	43	C9H8NO3+
180.0654	6	C9H10NO3+
181.9903	3	C7H4NO3S+
183.0223	32	C7H7N2O2S+
185.0266	47	C8H9O3S+
197.0138	3	C8H7NO3S+
209.0682	122	C10H11NO4+
212.0375	302	C9H10NO3S+
213.0214	999	C9H9O4S+
216.0086	4	C14H2NO2+
226.0167	38	C9H8NO4S+
230.048	21	C9H12NO4S+
241.0401	57	C10H11NO4S+
256.0636	185	C11H14NO4S+
