Mass spectrum: Sulcotrione; LC-ESI-ITFT; MS2; CE: 60%; R=15000; [M+H]+
Name: Sulcotrione
Name: 2-(2-chloranyl-4-methylsulfonyl-phenyl)carbonylcyclohexane-1,3-dione
Formula: C14H13ClO5S
Exact mass: 328.0167
SMILES: O=C1CCCC(=O)C1C(=O)c1ccc(S(=O)(=O)C)cc1Cl
InChI: InChI=1S/C14H13ClO5S/c1-21(19,20)8-5-6-9(10(15)7-8)14(18)13-11(16)3-2-4-12(13)17/h5-7,13H,2-4H2,1H3
Instrument: LTQ Orbitrap XL Thermo Scientific
Instrument type: LC-ESI-ITFT
Ms type: MS2
Ion mode: POSITIVE
Ionization: ESI
Fragmentation mode: HCD
Collision energy: 60 % (nominal)
Resolution: 15000
Column name: XBridge C18 3.5um, 2.1x50mm, Waters
Retention time: 6.8 min
Base peak: 351.0066
Precursor m/z: 329.0245
Precursor type: [M+H]+
m/z	relative intensity	assigned
55.0177	16	C3H3O+
68.9971	654	C3HO2+
97.0283	26	C5H5O2+
98.9842	20	CH4ClO3+
111.044	999	C6H7O2+
139.0389	470	C7H7O3+
157.0494	112	C7H9O4+
202.0624	16	C12H10O3+
214.0622	83	C13H10O3+
230.0574	8	C13H10O4+
240.9721	47	C10H6ClO3S+
246.0523	34	C13H10O5+
249.031	9	C13H10ClO3+
283.019	10	C13H12ClO3S+
293.0475	34	C14H13O5S+
