Mass spectrum: Spirotetramat BYI08330-enol; LC-ESI-QFT; MS2; CE: 180%; R=17500; [M+H]+
Name: Spirotetramat BYI08330-enol
Name: Cis-3-(2,5-dimethylphenyl)-4-hydroxy-8-methoxy-1-azaspiro(4.5)dec-3-en-2-one
Name: 3-(2,5-dimethylphenyl)-4-hydroxy-8-methoxy-1-azaspiro[4.5]dec-3-en-2-one
Formula: C18H23NO3
Exact mass: 301.1678
SMILES: CC1=CC(=C(C=C1)C)C2=C(C3(CCC(CC3)OC)NC2=O)O
InChI: InChI=1S/C18H23NO3/c1-11-4-5-12(2)14(10-11)15-16(20)18(19-17(15)21)8-6-13(22-3)7-9-18/h4-5,10,13,20H,6-9H2,1-3H3,(H,19,21)
Instrument: Exploris 240 Orbitrap Thermo Scientific
Instrument type: LC-ESI-QFT
Ms type: MS2
Ion mode: POSITIVE
Ionization: ESI
Fragmentation mode: HCD
Collision energy: 180 % (nominal)
Resolution: 17500
Column name: XBridge C18 3.5um, 2.1x50mm, Waters
Retention time: 6.514 min
Base peak: 302.1748
Precursor m/z: 302.1751
Precursor type: [M+H]+
m/z	relative intensity	assigned
51.023	160	C4H3+
53.0386	188	C4H5+
65.0386	485	C5H5+
77.0387	388	C6H5+
78.0464	154	C6H6+
79.0542	96	C6H7+
89.0386	153	C7H5+
91.0542	763	C7H7+
95.0492	114	C6H7O+
102.0463	182	C8H6+
103.0542	209	C8H7+
104.0623	51	C8H8+
105.0698	50	C8H9+
115.0543	999	C9H7+
116.0619	30	C9H8+
117.07	61	C9H9+
127.0541	106	C10H7+
128.0621	608	C10H8+
129.0698	173	C10H9+
130.0651	87	C9H8N+
139.0544	72	C11H7+
141.07	57	C11H9+
144.0811	79	C10H10N+
145.0648	42	C10H9O+
152.0624	123	C12H8+
165.0703	61	C13H9+
