Mass spectrum: Tetrazepam; LC-ESI-QFT; MS2; CE: 15; R=35000; [M+H]+
Name: Tetrazepam
Name: 7-chloro-5-(cyclohexen-1-yl)-1-methyl-3H-1,4-benzodiazepin-2-one
Formula: C16H17ClN2O
Exact mass: 288.10294
SMILES: CN1C(=O)CN=C(C2=C1C=CC(=C2)Cl)C3=CCCCC3
InChI: InChI=1S/C16H17ClN2O/c1-19-14-8-7-12(17)9-13(14)16(18-10-15(19)20)11-5-3-2-4-6-11/h5,7-9H,2-4,6,10H2,1H3
Instrument: Q Exactive Orbitrap Thermo Scientific
Instrument type: LC-ESI-QFT
Ms type: MS2
Ion mode: POSITIVE
Ionization: ESI
Fragmentation mode: HCD
Collision energy: 15 (nominal)
Resolution: 35000
Column name: XBridge C18 3.5um, 2.1x50mm, Waters
Retention time: 10.1 min
Base peak: 289.1101
Precursor m/z: 289.1102
Precursor type: [M+H]+
m/z	relative intensity	assigned
289.1099	999	C16H18ClN2O+
