Mass spectrum: Atenolol; LC-ESI-ITFT; MS2; CE: 35%; R=7500; [M+H]+
Name: Atenolol
Name: 2-[4-[2-hydroxy-3-(isopropylamino)propoxy]phenyl]acetamide
Formula: C14H22N2O3
Exact mass: 266.1630
SMILES: CC(C)NCC(O)COc1ccc(cc1)CC(N)=O
InChI: InChI=1S/C14H22N2O3/c1-10(2)16-8-12(17)9-19-13-5-3-11(4-6-13)7-14(15)18/h3-6,10,12,16-17H,7-9H2,1-2H3,(H2,15,18)
Instrument: LTQ Orbitrap XL Thermo Scientific
Instrument type: LC-ESI-ITFT
Ms type: MS2
Ion mode: POSITIVE
Ionization: ESI
Fragmentation mode: CID
Collision energy: 35 % (nominal)
Resolution: 7500
Column name: XBridge C18 3.5um, 2.1x50mm, Waters
Retention time: 2.0 min
Base peak: 267.171
Precursor m/z: 267.1703
Precursor type: [M+H]+
m/z	relative intensity	assigned
74.06	40	C3H8NO+
98.0964	43	C6H12N+
116.1069	215	C6H14NO+
145.0648	123	C10H9O+
152.0695	3	C6H8N4O+
162.0913	106	C10H12NO+
164.0705	18	C9H10NO2+
173.0596	46	C11H9O2+
178.0862	29	C10H12NO2+
180.1019	58	C10H14NO2+
190.0863	939	C11H12NO2+
204.1382	32	C13H18NO+
207.1126	40	C11H15N2O2+
208.0968	350	C11H14NO3+
222.1493	5	C13H20NO2+
225.1234	999	C11H17N2O3+
232.1331	32	C14H18NO2+
249.1594	78	C14H21N2O2+
250.1436	94	C14H20NO3+
