Mass spectrum: Bufexamac; LC-ESI-QFT; MS2; CE: 45; R=35000; [M+H]+
Name: Bufexamac
Name: 2-(4-butoxyphenyl)-N-hydroxyacetamide
Formula: C12H17NO3
Exact mass: 223.12084
SMILES: CCCCOC1=CC=C(C=C1)CC(=O)NO
InChI: InChI=1S/C12H17NO3/c1-2-3-8-16-11-6-4-10(5-7-11)9-12(14)13-15/h4-7,15H,2-3,8-9H2,1H3,(H,13,14)
Instrument: Q Exactive Orbitrap Thermo Scientific
Instrument type: LC-ESI-QFT
Ms type: MS2
Ion mode: POSITIVE
Ionization: ESI
Fragmentation mode: HCD
Collision energy: 45 (nominal)
Resolution: 35000
Column name: XBridge C18 3.5um, 2.1x50mm, Waters
Retention time: 8.4 min
Base peak: 224.1282
Precursor m/z: 224.1281
Precursor type: [M+H]+
m/z	relative intensity	assigned
57.0699	13	C4H9+
77.0385	1	C6H5+
79.0542	3	C6H7+
94.0651	9	C6H8N+
95.0491	13	C6H7O+
104.0496	2	C7H6N+
105.0447	1	C6H5N2+
107.0491	999	C7H7O+
108.0442	12	C6H6NO+
122.06	49	C7H8NO+
132.0443	2	C8H6NO+
133.0522	1	C8H7NO+
135.044	5	C8H7O2+
150.055	17	C8H8NO2+
163.1117	108	C11H15O+
168.0655	10	C8H10NO3+
224.1284	1	C12H18NO3+
