Mass spectrum: Norfenfluramine; LC-ESI-QFT; MS2; CE: 150; R=35000; [M+H]+
Name: Norfenfluramine
Name: 1-[3-(trifluoromethyl)phenyl]propan-2-amine
Formula: C10H12F3N
Exact mass: 203.09218
SMILES: CC(CC1=CC(=CC=C1)C(F)(F)F)N
InChI: InChI=1S/C10H12F3N/c1-7(14)5-8-3-2-4-9(6-8)10(11,12)13/h2-4,6-7H,5,14H2,1H3
Instrument: Q Exactive Plus Orbitrap Thermo Scientific
Instrument type: LC-ESI-QFT
Ms type: MS2
Ion mode: POSITIVE
Ionization: ESI
Fragmentation mode: HCD
Collision energy: 150 (nominal)
Resolution: 35000
Column name: XBridge C18 3.5um, 2.1x50mm, Waters
Retention time: 5.8 min
Base peak: 204.0993
Precursor m/z: 204.0995
Precursor type: [M+H]+
m/z	relative intensity	assigned
50.0151	2	C4H2+
51.0229	2	C4H3+
53.0022	4	C3HO+
57.0135	68	C3H2F+
59.0291	42	C3H4F+
62.015	10	C5H2+
63.0229	105	C5H3+
64.0307	12	C5H4+
65.0385	5	C5H5+
66.0464	4	C5H6+
68.9946	4	CF3+
69.0134	2	C4H2F+
74.015	9	C6H2+
75.004	8	C3HF2+
75.0229	35	C6H3+
77.0021	42	C5HO+
81.0135	8	C5H2F+
83.0291	591	C5H4F+
87.0229	2	C7H3+
89.0385	285	C7H5+
90.0464	70	C7H6+
91.0541	4	C7H7+
93.0135	35	C6H2F+
95.0102	1	C3H2F3+
95.0291	6	C6H4F+
95.0491	3	C6H7O+
98.0151	68	C8H2+
99.0229	259	C8H3+
101.0197	1	C5H3F2+
102.0463	2	C8H6+
107.0291	11	C7H4F+
108.0369	7	C7H5F+
109.0448	999	C7H6F+
111.0241	2	C6H4FO+
113.0197	14	C6H3F2+
113.0396	3	C6H6FO+
114.0276	2	C6H4F2+
115.0542	7	C9H7+
119.0292	49	C8H4F+
120.0369	2	C8H5F+
123.0352	6	C6H4FN2+
125.0196	2	C7H3F2+
127.0354	3	C7H5F2+
131.0301	6	CH4F3N3O+
132.0181	7	C6H3F3+
133.0259	8	C6H4F3+
137.0397	6	C8H6FO+
138.0275	12	C8H4F2+
139.0353	12	C8H5F2+
141.0258	29	C6H3F2N2+
146.0526	8	C10H7F+
147.0353	70	C8H4FN2+
151.0355	2	C9H5F2+
158.0338	7	C8H5F3+
159.0416	18	C8H6F3+
