Mass spectrum: Furathiocarb; LC-ESI-QFT; MS2; CE: 90%; R=17500; [M+H]+
Name: Furathiocarb
Name: (2,2-dimethyl-3H-1-benzofuran-7-yl) N-[butoxycarbonyl(methyl)amino]sulfanyl-N-methylcarbamate
Formula: C18H26N2O5S
Exact mass: 382.1562
SMILES: CCCCOC(=O)N(C)SN(C)C(=O)OC1=CC=CC2=C1OC(C2)(C)C
InChI: InChI=1S/C18H26N2O5S/c1-6-7-11-23-16(21)19(4)26-20(5)17(22)24-14-10-8-9-13-12-18(2,3)25-15(13)14/h8-10H,6-7,11-12H2,1-5H3
Instrument: Exploris 240 Orbitrap Thermo Scientific
Instrument type: LC-ESI-QFT
Ms type: MS2
Ion mode: POSITIVE
Ionization: ESI
Fragmentation mode: HCD
Collision energy: 90 % (nominal)
Resolution: 17500
Column name: XBridge C18 3.5um, 2.1x50mm, Waters
Retention time: 13.069 min
Base peak: 383.1633
Precursor m/z: 383.1635
Precursor type: [M+H]+
m/z	relative intensity	assigned
53.0386	97	C4H5+
55.0178	75	C3H3O+
55.0543	64	C4H7+
57.07	75	C4H9+
58.0287	49	C2H4NO+
58.9949	102	C2H3S+
62.0058	172	CH4NS+
65.0388	50	C5H5+
67.0543	46	C5H7+
77.0387	60	C6H5+
79.0542	176	C6H7+
81.0337	31	C5H5O+
81.07	57	C6H9+
84.9742	211	C3HOS+
90.0374	42	C3H8NS+
91.0542	283	C7H7+
93.07	62	C7H9+
94.0413	68	C6H6O+
95.0489	42	C6H7O+
97.0106	999	C5H5S+
103.0543	313	C8H7+
105.0447	32	C6H5N2+
105.0697	364	C8H9+
107.0494	80	C7H7O+
109.0284	363	C6H5O2+
109.0648	49	C7H9O+
115.0544	280	C9H7+
116.062	308	C9H8+
117.0697	148	C9H9+
118.0774	35	C9H10+
119.0495	50	C8H7O+
121.0648	272	C8H9O+
122.0358	194	C7H6O2+
123.0441	242	C7H7O2+
125.0055	946	C6H5OS+
131.0491	416	C9H7O+
134.0186	121	C8H6S+
134.0728	40	C9H10O+
139.0212	84	C7H7OS+
143.0494	26	C10H7O+
144.0568	286	C10H8O+
145.065	80	C10H9O+
146.0727	62	C10H10O+
147.0441	289	C9H7O2+
149.0426	78	C9H9S+
149.0599	430	C9H9O2+
161.0599	83	C10H9O2+
162.0676	299	C10H10O2+
164.0833	51	C10H12O2+
167.0525	151	C9H11OS+
177.0365	85	C10H9OS+
