Mass spectrum: Acetochlor; LC-ESI-ITFT; MS2; CE: 45%; R=15000; [M+H]+
Name: Acetochlor
Name: 2-chloranyl-N-(ethoxymethyl)-N-(2-ethyl-6-methyl-phenyl)ethanamide
Formula: C14H20ClNO2
Exact mass: 269.1177
SMILES: CCOCN(C(=O)CCl)C1=C(C)C=CC=C1CC
InChI: InChI=1S/C14H20ClNO2/c1-4-12-8-6-7-11(3)14(12)16(10-18-5-2)13(17)9-15/h6-8H,4-5,9-10H2,1-3H3
Instrument: LTQ Orbitrap XL Thermo Scientific
Instrument type: LC-ESI-ITFT
Ms type: MS2
Ion mode: POSITIVE
Ionization: ESI
Fragmentation mode: HCD
Collision energy: 45 % (nominal)
Resolution: 15000
Column name: XBridge C18 3.5um, 2.1x50mm, Waters
Retention time: 11.7 min
Base peak: 292.1079
Precursor m/z: 270.1255
Precursor type: [M+H]+
m/z	relative intensity	assigned
59.0491	65	C3H7O+
90.0105	79	C3H5ClN+
131.0855	52	C10H11+
132.0808	13	C9H10N+
133.0888	33	C9H11N+
146.0966	23	C10H12N+
147.1037	16	C10H13N+
148.112	999	C10H14N+
149.096	81	C10H13O+
158.0958	20	C11H12N+
188.1064	13	C12H14NO+
194.0731	18	C11H13ClN+
206.0726	34	C12H13ClN+
224.0837	253	C12H15ClNO+
