Mass spectrum: Asulam-TP Sulfanilamide; LC-ESI-QFT; MS2; CE: 150%; R=17500; [M+H]+
Name: Asulam-TP Sulfanilamide
Name: Sulfanilamide
Name: 4-aminobenzenesulfonamide
Formula: C6H8N2O2S
Exact mass: 172.0306
SMILES: C1=C(C=CC(=C1)S(=O)(=O)N)N
InChI: InChI=1S/C6H8N2O2S/c7-5-1-3-6(4-2-5)11(8,9)10/h1-4H,7H2,(H2,8,9,10)
Instrument: Q Exactive Plus Orbitrap Thermo Scientific
Instrument type: LC-ESI-QFT
Ms type: MS2
Ion mode: POSITIVE
Ionization: ESI
Fragmentation mode: HCD
Collision energy: 150 % (nominal)
Resolution: 17500
Column name: XBridge C18 3.5um, 2.1x50mm, Waters
Retention time: 1.130 min
Base peak: 156.0115
Precursor m/z: 173.0379
Precursor type: [M+H]+
m/z	relative intensity	assigned
50.0151	494	C4H2+
51.0229	39	C4H3+
52.0181	7	C3H2N+
53.0022	63	C3HO+
53.0386	62	C4H5+
53.9973	10	C2NO+
54.0338	25	C3H4N+
55.018	7	C3H3O+
56.0495	9	
63.0229	26	C5H3+
65.0023	29	
65.0386	999	C5H5+
66.01	7	
66.0339	15	
66.0464	601	C5H6+
67.0416	35	C4H5N+
74.0151	206	C6H2+
75.0229	402	C6H3+
76.0307	848	C6H4+
78.0338	26	C5H4N+
79.0177	7	C5H3O+
80.0495	146	C5H6N+
81.0336	27	C5H5O+
91.0179	16	C6H3O+
92.0495	193	C6H6N+
93.0574	317	C6H7N+
94.0415	16	C6H6O+
95.0494	10	C6H7O+
108.0442	11	C6H6NO+
125.0471	97	C6H7NO2+
