Mass spectrum: 3-[(4-chlorobenzoyl)amino]propanoic acid; LC-ESI-QFT; MS2; CE: 90; R=35000; [M+H]+
Name: 3-[(4-chlorobenzoyl)amino]propanoic acid
Name: N-(4-Chlorobenzoyl)-Beta-alanine
Formula: C10H10ClNO3
Exact mass: 227.03492
SMILES: C1=CC(=CC=C1C(=O)NCCC(=O)O)Cl
InChI: InChI=1S/C10H10ClNO3/c11-8-3-1-7(2-4-8)10(15)12-6-5-9(13)14/h1-4H,5-6H2,(H,12,15)(H,13,14)
Instrument: Q Exactive Plus Orbitrap Thermo Scientific
Instrument type: LC-ESI-QFT
Ms type: MS2
Ion mode: POSITIVE
Ionization: ESI
Fragmentation mode: HCD
Collision energy: 90 (nominal)
Resolution: 35000
Column name: XBridge C18 3.5um, 2.1x50mm, Waters
Retention time: 6.2 min
Base peak: 228.0421
Precursor m/z: 228.0422
Precursor type: [M+H]+
m/z	relative intensity	assigned
50.0151	15	C4H2+
51.0229	16	C4H3+
53.0022	9	C3HO+
55.0179	26	C3H3O+
60.984	1	C2H2Cl+
62.9632	2	CClO+
65.0385	3	C5H5+
72.0444	8	C3H6NO+
73.0284	4	C3H5O2+
74.015	5	C6H2+
75.0229	112	C6H3+
79.0178	15	C5H3O+
80.0256	8	C5H4O+
84.9839	4	C4H2Cl+
86.9996	103	C4H4Cl+
93.0335	40	C6H5O+
94.0413	11	C6H6O+
98.0362	1	C5H6O2+
110.9996	83	C6H4Cl+
111.044	19	C6H7O2+
113.0152	2	C6H6Cl+
114.9945	12	C5H4ClO+
121.0396	6	C6H5N2O+
128.0025	3	C6H5ClO+
129.0102	403	C6H6ClO+
138.0106	2	C7H5ClN+
138.9946	855	C7H4ClO+
139.0056	999	C9HNO+
140.0027	8	C7H5ClO+
156.021	2	C7H7ClNO+
