Mass spectrum: Diazinon; LC-ESI-ITFT; MS2; CE: 35%; R=30000; [M+H]+
Name: Diazinon
Name: diethoxy-(2-isopropyl-6-methyl-pyrimidin-4-yl)oxy-thioxo-phosphorane
Formula: C12H21N2O3PS
Exact mass: 304.1011
SMILES: O(c1nc(nc(c1)C)C(C)C)P(OCC)(OCC)=S
InChI: InChI=1S/C12H21N2O3PS/c1-6-15-18(19,16-7-2)17-11-8-10(5)13-12(14-11)9(3)4/h8-9H,6-7H2,1-5H3
Instrument: LTQ Orbitrap XL Thermo Scientific
Instrument type: LC-ESI-ITFT
Ms type: MS2
Ion mode: POSITIVE
Ionization: ESI
Fragmentation mode: CID
Collision energy: 35 % (nominal)
Resolution: 30000
Column name: XBridge C18 3.5um, 2.1x50mm, Waters
Retention time: 13.0 min
Base peak: 305.1095
Precursor m/z: 305.1083
Precursor type: [M+H]+
m/z	relative intensity	assigned
96.9511	2	H2O2PS+
100.0214	2	C4H6NS+
153.1023	524	C8H13N2O+
169.0795	999	C8H13N2S+
181.1336	3	C10H17N2O+
197.1106	2	C10H17N2S+
206.0937	1	C12H14O3+
249.0457	6	C8H14N2O3PS+
277.0771	48	C10H18N2O3PS+
