Mass spectrum: Flocoumafen; LC-ESI-QFT; MS2; CE: 150%; R=17500; [M+H]+
Name: Flocoumafen
Name: 4-hydroxy-3-[3-[4-[[4-(trifluoromethyl)phenyl]methoxy]phenyl]-1,2,3,4-tetrahydronaphthalen-1-yl]chromen-2-one
Formula: C33H25F3O4
Exact mass: 542.1705
SMILES: C1C(CC2=CC=CC=C2C1C3=C(C4=CC=CC=C4OC3=O)O)C5=CC=C(C=C5)OCC6=CC=C(C=C6)C(F)(F)F
InChI: InChI=1S/C33H25F3O4/c34-33(35,36)24-13-9-20(10-14-24)19-39-25-15-11-21(12-16-25)23-17-22-5-1-2-6-26(22)28(18-23)30-31(37)27-7-3-4-8-29(27)40-32(30)38/h1-16,23,28,37H,17-19H2
Instrument: Exploris 240 Orbitrap Thermo Scientific
Instrument type: LC-ESI-QFT
Ms type: MS2
Ion mode: POSITIVE
Ionization: ESI
Fragmentation mode: HCD
Collision energy: 150 % (nominal)
Resolution: 17500
Column name: XBridge C18 3.5um, 2.1x50mm, Waters
Retention time: 15.796 min
Base peak: 543.1776
Precursor m/z: 543.1778
Precursor type: [M+H]+
m/z	relative intensity	assigned
59.0292	23	C3H4F+
62.0151	6	C5H2+
63.0229	70	C5H3+
64.0307	5	C5H4+
65.0386	187	C5H5+
75.0231	28	C6H3+
77.0021	24	C5HO+
77.0386	105	C6H5+
79.0544	18	C6H7+
83.0292	441	C5H4F+
89.0386	177	C7H5+
90.0465	59	C7H6+
91.0543	89	C7H7+
93.0137	22	C6H2F+
93.0334	9	C6H5O+
95.0492	67	C6H7O+
98.0151	37	C8H2+
99.023	178	C8H3+
102.0465	8	C8H6+
107.0291	4	C7H4F+
109.0448	999	C7H6F+
115.0541	42	C9H7+
119.0291	59	C8H4F+
121.0285	11	C7H5O2+
127.0546	10	C10H7+
128.062	69	C10H8+
133.0263	8	C6H4F3+
139.0356	9	C8H5F2+
152.0621	27	C12H8+
159.0417	20	C8H6F3+
165.0699	19	C13H9+
