Mass spectrum: Diphenyl-phthalate; LC-ESI-QFT; MS2; CE: 45; R=35000; [M+H]+
Name: Diphenyl-phthalate
Name: Diphenyl phthalate
Name: Diphenyl benzene-1,2-dicarboxylate
Formula: C20H14O4
Exact mass: 318.08921
SMILES: C1=CC=C(C=C1)OC(=O)C2=CC=CC=C2C(=O)OC3=CC=CC=C3
InChI: InChI=1S/C20H14O4/c21-19(23-15-9-3-1-4-10-15)17-13-7-8-14-18(17)20(22)24-16-11-5-2-6-12-16/h1-14H
Instrument: Q Exactive Plus Orbitrap Thermo Scientific
Instrument type: LC-ESI-QFT
Ms type: MS2
Ion mode: POSITIVE
Ionization: ESI
Fragmentation mode: HCD
Collision energy: 45 (nominal)
Resolution: 35000
Column name: XBridge C18 3.5um, 2.1x50mm, Waters
Retention time: 12.9 min
Base peak: 225.054
Precursor m/z: 319.0965
Precursor type: [M+H]+
m/z	relative intensity	assigned
50.015	2	C4H2+
51.0229	11	C4H3+
53.0386	83	C4H5+
55.0178	5	C3H3O+
77.0385	168	C6H5+
81.0335	9	C5H5O+
94.0413	5	C6H6O+
95.0491	246	C6H7O+
105.0335	21	C7H5O+
105.0447	177	C6H5N2+
106.0417	1	C7H6O+
141.0698	9	C11H9+
152.062	11	C12H8+
153.0699	137	C12H9+
169.0647	20	C12H9O+
179.0488	1	C13H7O+
181.0647	20	C13H9O+
183.0441	19	C12H7O2+
197.0597	73	C13H9O2+
207.0439	3	C14H7O2+
225.0546	999	C14H9O3+
