Mass spectrum: Secbumeton; LC-ESI-ITFT; MS2; CE: 90%; R=30000; [M+H]+
Name: Secbumeton
Name: 2-N-butan-2-yl-4-N-ethyl-6-methoxy-1,3,5-triazine-2,4-diamine
Formula: C10H19N5O
Exact mass: 225.1590
SMILES: c1(nc(nc(n1)OC)NCC)NC(CC)C
InChI: InChI=1S/C10H19N5O/c1-5-7(3)12-9-13-8(11-6-2)14-10(15-9)16-4/h7H,5-6H2,1-4H3,(H2,11,12,13,14,15)
Instrument: LTQ Orbitrap XL Thermo Scientific
Instrument type: LC-ESI-ITFT
Ms type: MS2
Ion mode: POSITIVE
Ionization: ESI
Fragmentation mode: HCD
Collision energy: 90 % (nominal)
Resolution: 30000
Column name: XBridge C18 3.5um, 2.1x50mm, Waters
Retention time: 6.7 min
Base peak: 226.1668
Precursor m/z: 226.1662
Precursor type: [M+H]+
m/z	relative intensity	assigned
57.0447	308	C2H5N2+
57.0698	23	C4H9+
58.0287	52	C2H4NO+
68.0243	632	C2H2N3+
69.0084	529	C2HN2O+
71.0604	179	C3H7N2+
75.0553	409	C2H7N2O+
82.04	30	C3H4N3+
83.024	83	C3H3N2O+
85.076	120	C4H9N2+
86.0349	301	C2H4N3O+
96.0556	235	C4H6N3+
97.0396	68	C4H5N2O+
99.0665	26	C3H7N4+
100.0505	999	C3H6N3O+
114.0662	177	C4H8N3O+
128.0819	215	C5H10N3O+
138.0773	44	C5H8N5+
142.0724	290	C4H8N5O+
168.0879	18	C6H10N5O+
170.1037	315	C6H12N5O+
