Mass spectrum: Chloramphenicol; LC-ESI-QFT; MS2; CE: 60; R=35000; [M+H]+
Name: Chloramphenicol
Name: CLM
Name: 2,2-bis(chloranyl)-N-[(1R,2R)-1-(4-nitrophenyl)-1,3-bis(oxidanyl)propan-2-yl]ethanamide
Formula: C11H12Cl2N2O5
Exact mass: 322.01233
SMILES: c1cc(ccc1[C@H]([C@@H](CO)NC(=O)C(Cl)Cl)O)[N+](=O)[O-]
InChI: InChI=1S/C11H12Cl2N2O5/c12-10(13)11(18)14-8(5-16)9(17)6-1-3-7(4-2-6)15(19)20/h1-4,8-10,16-17H,5H2,(H,14,18)/t8-,9-/m1/s1
Instrument: Q Exactive Orbitrap Thermo Scientific
Instrument type: LC-ESI-QFT
Ms type: MS2
Ion mode: POSITIVE
Ionization: ESI
Fragmentation mode: HCD
Collision energy: 60 (nominal)
Resolution: 35000
Column name: XBridge C18 3.5um, 2.1x50mm, Waters
Retention time: 5.8 min
Base peak: 305.0091
Precursor m/z: 323.0196
Precursor type: [M+H]+
m/z	relative intensity	assigned
63.9948	7	CH3ClN+
65.0385	1	C5H5+
74.0237	1	C2H4NO2+
78.0464	7	C6H6+
82.945	355	CHCl2+
90.0463	4	C7H6+
91.0542	21	C7H7+
92.0494	3	C6H6N+
92.062	10	C7H8+
95.049	2	C6H7O+
102.0462	5	C8H6+
103.0542	13	C8H7+
104.0621	8	C8H8+
105.0335	3	C7H5O+
106.0413	4	C7H6O+
106.065	5	C7H8N+
107.0492	3	C7H7O+
107.0729	3	C7H9N+
109.9557	3	C2H2Cl2N+
115.0542	31	C9H7+
117.0572	25	C8H7N+
118.0412	7	C8H6O+
118.0651	69	C8H8N+
119.0729	203	C8H9N+
120.0569	32	C8H8O+
121.0523	4	C7H7NO+
122.06	3	C7H8NO+
125.0151	3	C7H6Cl+
127.9664	12	C2H4Cl2NO+
128.062	15	C10H8+
129.0573	3	C9H7N+
130.0651	44	C9H8N+
131.0367	3	C8H5NO+
131.0492	18	C9H7O+
131.0729	26	C9H9N+
132.057	70	C9H8O+
133.0285	5	C8H5O2+
134.0601	14	C8H8NO+
135.0678	2	C8H9NO+
136.0392	3	C7H6NO2+
136.0756	3	C8H10NO+
137.0153	4	C8H6Cl+
138.0231	18	C8H7Cl+
138.0549	3	C7H8NO2+
139.9665	1	C3H4Cl2NO+
142.0653	8	C10H8N+
145.0522	24	C9H7NO+
145.0647	8	C10H9O+
146.0601	26	C9H8NO+
147.0551	1	C8H7N2O+
148.0391	4	C8H6NO2+
148.0631	30	C8H8N2O+
149.0154	13	C9H6Cl+
149.0472	29	C8H7NO2+
150.0231	28	C9H7Cl+
151.0628	49	C8H9NO2+
154.0179	3	C8H7ClO+
155.0606	6	C10H7N2+
157.0523	1	C10H7NO+
158.0601	4	C10H8NO+
160.0629	2	C9H8N2O+
161.0473	5	C9H7NO2+
162.0547	1	C9H8NO2+
163.031	18	C10H8Cl+
164.0262	80	C9H7ClN+
164.058	31	C8H8N2O2+
165.0659	999	C8H9N2O2+
166.0497	4	C8H8NO3+
170.06	47	C11H8NO+
171.0678	1	C11H9NO+
175.0502	3	C9H7N2O2+
177.0216	1	C9H6ClN2+
177.0339	2	C10H8ClN+
177.0419	19	C9H7NO3+
177.0659	9	C9H9N2O2+
179.0133	4	C9H6ClNO+
184.0161	4	C8H7ClNO2+
192.0212	1	C10H7ClNO+
193.0291	2	C10H8ClNO+
194.0367	2	C10H9ClNO+
206.0368	34	C11H9ClNO+
211.0269	2	C9H8ClN2O2+
227.9977	48	C10H8Cl2NO+
229.0057	35	C10H9Cl2NO+
239.9981	7	C11H8Cl2NO+
241.0054	6	C11H9Cl2NO+
256.004	3	C10H8Cl2N3O+
257.9958	258	C10H8Cl2N2O2+
258.0081	14	C11H10Cl2NO2+
259.9877	2	C10H8Cl2NO3+
269.9959	4	C11H8Cl2N2O2+
274.9985	19	C10H9Cl2N2O3+
