Mass spectrum: Isoxathion; LC-ESI-QFT; MS2; CE: 30%; R=17500; [M+H]+
Name: Isoxathion
Name: diethoxy-[(5-phenyl-1,2-oxazol-3-yl)oxy]-sulfanylidene-lambda5-phosphane
Formula: C13H16NO4PS
Exact mass: 313.0538
SMILES: CCOP(=S)(OCC)OC1=NOC(=C1)C2=CC=CC=C2
InChI: InChI=1S/C13H16NO4PS/c1-3-15-19(20,16-4-2)18-13-10-12(17-14-13)11-8-6-5-7-9-11/h5-10H,3-4H2,1-2H3
Instrument: Exploris 240 Orbitrap Thermo Scientific
Instrument type: LC-ESI-QFT
Ms type: MS2
Ion mode: POSITIVE
Ionization: ESI
Fragmentation mode: HCD
Collision energy: 30 % (nominal)
Resolution: 17500
Column name: XBridge C18 3.5um, 2.1x50mm, Waters
Retention time: 11.540 min
Base peak: 398.0878
Precursor m/z: 314.061
Precursor type: [M+H]+
m/z	relative intensity	assigned
61.0106	15	C2H5S+
93.01	45	C2H6O2P+
96.9507	46	H2O2PS+
98.9841	14	H4O4P+
105.0335	999	C7H5O+
109.0047	11	C2H6O3P+
112.9459	27	H2O3PS+
113.9534	72	H3O3PS+
114.9612	61	H4O3PS+
124.9821	54	C2H6O2PS+
125.9899	81	C2H7O2PS+
130.9564	49	H4O4PS+
135.0264	6	C8H7S+
140.9769	71	C2H6O3PS+
141.9849	133	C2H7O3PS+
142.9927	27	C2H8O3PS+
151.0215	23	C4H10NOPS+
153.0131	34	C4H10O2PS+
160.0216	48	C9H6NS+
162.0554	75	C9H8NO2+
169.0078	40	C4H10O3PS+
170.0162	365	C4H11O3PS+
178.0323	121	C9H8NOS+
187.0188	18	C4H12O4PS+
206.0634	14	C11H12NOS+
216.9721	27	C7H6O4PS+
245.0037	18	C9H10O4PS+
257.9987	106	C9H9NO4PS+
