Mass spectrum: Flubendiamide; LC-ESI-QFT; MS2; CE: 75%; R=17500; [M+H]+
Name: Flubendiamide
Name: 1-N-[4-(1,1,1,2,3,3,3-heptafluoropropan-2-yl)-2-methylphenyl]-3-iodo-2-N-(2-methyl-1-methylsulfonylpropan-2-yl)benzene-1,2-dicarboxamide
Formula: C23H22F7IN2O4S
Exact mass: 682.0233
SMILES: CC1=C(C=CC(=C1)C(C(F)(F)F)(C(F)(F)F)F)NC(=O)C2=C(C(=CC=C2)I)C(=O)NC(C)(C)CS(=O)(=O)C
InChI: InChI=1S/C23H22F7IN2O4S/c1-12-10-13(21(24,22(25,26)27)23(28,29)30)8-9-16(12)32-18(34)14-6-5-7-15(31)17(14)19(35)33-20(2,3)11-38(4,36)37/h5-10H,11H2,1-4H3,(H,32,34)(H,33,35)
Instrument: Exploris 240 Orbitrap Thermo Scientific
Instrument type: LC-ESI-QFT
Ms type: MS2
Ion mode: POSITIVE
Ionization: ESI
Fragmentation mode: HCD
Collision energy: 75 % (nominal)
Resolution: 17500
Column name: XBridge C18 3.5um, 2.1x50mm, Waters
Retention time: 10.934 min
Base peak: 328.0976
Precursor m/z: 683.0306
Precursor type: [M+H]+
m/z	relative intensity	assigned
73.0647	65	C4H9O+
76.0308	87	C6H4+
77.0258	17	C5H3N+
79.0415	94	C5H5N+
91.0415	121	C6H5N+
92.0257	36	C6H4O+
92.037	28	C5H4N2+
101.0257	105	C7H3N+
103.0416	394	C7H5N+
104.0257	270	C7H4O+
119.0128	167	C7H3O2+
119.0365	119	C7H5NO+
129.0213	52	C2H9O4S+
147.0315	543	C8H5NO2+
179.021	85	C6H7F2NOS+
245.9406	60	C7H5INO+
255.9254	999	C2H9IO4S+
273.9361	536	C8H5INO2+
287.9522	26	C4H10F3INS+
