Mass spectrum: Isofenphos-Methyl; LC-ESI-QFT; MS2; CE: 60%; R=17500; [M+H]+
Name: Isofenphos-Methyl
Name: propan-2-yl 2-[methoxy-(propan-2-ylamino)phosphinothioyl]oxybenzoate
Formula: C14H22NO4PS
Exact mass: 331.1007
SMILES: CC(C)NP(=S)(OC)OC1=CC=CC=C1C(=O)OC(C)C
InChI: InChI=1S/C14H22NO4PS/c1-10(2)15-20(21,17-5)19-13-9-7-6-8-12(13)14(16)18-11(3)4/h6-11H,1-5H3,(H,15,21)
Instrument: Exploris 240 Orbitrap Thermo Scientific
Instrument type: LC-ESI-QFT
Ms type: MS2
Ion mode: POSITIVE
Ionization: ESI
Fragmentation mode: HCD
Collision energy: 60 % (nominal)
Resolution: 17500
Column name: XBridge C18 3.5um, 2.1x50mm, Waters
Retention time: 10.780 min
Base peak: 230.9875
Precursor m/z: 332.108
Precursor type: [M+H]+
m/z	relative intensity	assigned
109.0106	75	C6H5S+
109.9822	367	CH5NOPS+
137.0055	904	C7H5OS+
138.9947	37	C6H4O2P+
153.0006	44	C7H5O2S+
154.9712	91	C6H4OPS+
157.0053	66	C6H6O3P+
186.9978	50	C7H8O2PS+
189.031	74	C7H10O4P+
198.9616	446	C7H4O3PS+
216.9722	409	C7H6O4PS+
230.9876	999	C8H8O4PS+
