Mass spectrum: Iodocarb; LC-ESI-ITFT; MS2; CE: 35%; R=7500; [M+H]+
Name: Iodocarb
Name: Iodopropynyl butylcarbamate (IPBC)
Name: 3-iodanylprop-2-ynyl N-butylcarbamate
Formula: C8H12INO2
Exact mass: 280.9913
SMILES: N(C(OCC#CI)=O)CCCC
InChI: InChI=1S/C8H12INO2/c1-2-3-6-10-8(11)12-7-4-5-9/h2-3,6-7H2,1H3,(H,10,11)
Instrument: LTQ Orbitrap XL Thermo Scientific
Instrument type: LC-ESI-ITFT
Ms type: MS2
Ion mode: POSITIVE
Ionization: ESI
Fragmentation mode: CID
Collision energy: 35 % (nominal)
Resolution: 7500
Column name: XBridge C18 3.5um, 2.1x50mm, Waters
Retention time: 8.4 min
Base peak: 281.9991
Precursor m/z: 281.9986
Precursor type: [M+H]+
m/z	relative intensity	assigned
74.0237	7	C2H4NO2+
82.0651	12	C5H8N+
86.0967	14	C5H12N+
96.0807	66	C6H10N+
100.0757	43	C5H10NO+
110.0964	58	C7H12N+
111.1042	44	C7H13N+
116.0707	76	C5H10NO2+
154.9352	68	C2H4I+
155.0941	760	C8H13NO2+
164.9196	983	C3H2I+
181.9463	112	C3H5IN+
182.9302	512	C3H4IO+
195.9619	122	C4H7IN+
238.0087	999	C7H13IN+
251.9884	60	C7H11INO+
