Mass spectrum: Fenoxycarb; LC-ESI-ITFT; MS2; CE: 60%; R=15000; [M+H]+
Name: Fenoxycarb
Name: N-[2-(4-phenoxyphenoxy)ethyl]carbamic acid ethyl ester
Formula: C17H19NO4
Exact mass: 301.1314
SMILES: O=C(OCC)NCCOc2ccc(Oc1ccccc1)cc2
InChI: InChI=1S/C17H19NO4/c1-2-20-17(19)18-12-13-21-14-8-10-16(11-9-14)22-15-6-4-3-5-7-15/h3-11H,2,12-13H2,1H3,(H,18,19)
Instrument: LTQ Orbitrap XL Thermo Scientific
Instrument type: LC-ESI-ITFT
Ms type: MS2
Ion mode: POSITIVE
Ionization: ESI
Fragmentation mode: HCD
Collision energy: 60 % (nominal)
Resolution: 15000
Column name: XBridge C18 3.5um, 2.1x50mm, Waters
Retention time: 12.6 min
Base peak: 302.1394
Precursor m/z: 302.1387
Precursor type: [M+H]+
m/z	relative intensity	assigned
65.0385	1	C5H5+
66.0464	7	C5H6+
70.0288	21	C3H4NO+
72.0808	2	C4H10N+
77.0386	1	C6H5+
88.0393	999	C3H6NO2+
91.0542	4	C7H7+
92.0621	1	C7H8+
94.0413	12	C6H6O+
105.0335	1	C7H5O+
107.0492	6	C7H7O+
116.0707	26	C5H10NO2+
118.0414	5	C8H6O+
119.0493	2	C8H7O+
119.0729	1	C8H9N+
120.057	15	C8H8O+
129.0699	9	C10H9+
134.0362	3	C8H6O2+
141.0699	9	C11H9+
152.0622	2	C12H8+
157.0649	3	C11H9O+
163.0628	4	C9H9NO2+
165.0698	4	C13H9+
167.0856	4	C13H11+
169.0648	5	C12H9O+
170.0725	1	C12H10O+
177.0703	1	C14H9+
183.0804	4	C13H11O+
185.0597	12	C12H9O2+
186.0675	19	C12H10O2+
187.0755	1	C12H11O2+
193.0755	1	C13H9N2+
195.0804	2	C14H11O+
198.0672	1	C13H10O2+
211.0756	1	C14H11O2+
213.0547	19	C13H9O3+
238.0859	1	C15H12NO2+
256.0967	2	C15H14NO3+
