Mass spectrum: Metribuzin-desamino; LC-ESI-QFT; MS2; CE: 45; R=35000; [M-H]-
Name: Metribuzin-desamino
Name: Deaminometribuzin
Name: 6-tert-butyl-3-(methylthio)-2H-1,2,4-triazin-5-one
Formula: C8H13N3OS
Exact mass: 199.27332
SMILES: CC(C)(C)C1=NNC(=NC1=O)SC
InChI: InChI=1S/C8H13N3OS/c1-8(2,3)5-6(12)9-7(13-4)11-10-5/h1-4H3,(H,9,11,12)
Instrument: Q Exactive Plus Orbitrap Thermo Scientific
Instrument type: LC-ESI-QFT
Ms type: MS2
Ion mode: NEGATIVE
Ionization: ESI
Fragmentation mode: HCD
Collision energy: 45 (nominal)
Resolution: 35000
Column name: XBridge C18 3.5um, 2.1x50mm, Waters
Retention time: 7.3 min
Base peak: 198.0703
Precursor m/z: 198.0707
Precursor type: [M-H]-
m/z	relative intensity	assigned
56.0015	1	CN2O-
57.9756	30	CNS-
59.9914	1	CH2NS-
68.0016	27	C2N2O-
70.9836	1	C2HNS-
71.9789	1	CN2S-
71.9914	2	C2H2NS-
87.0021	3	C2H3N2S-
94.0046	16	C3N3O-
97.0658	12	C6H9O-
127.0876	2	C6H11N2O-
136.0515	5	C6H6N3O-
152.083	3	C7H10N3O-
156.0491	1	C7H10NOS-
168.0239	1	C6H6N3OS-
183.0471	17	C7H9N3OS-
198.0705	999	C8H12N3OS-
