Mass spectrum: Cloethocarb; LC-ESI-QFT; MS2; CE: 60%; R=17500; [M+H]+
Name: Cloethocarb
Name: [2-(2-chloro-1-methoxyethoxy)phenyl] N-methylcarbamate
Formula: C11H14ClNO4
Exact mass: 259.0611
SMILES: CNC(=O)OC1=CC=CC=C1OC(CCl)OC
InChI: InChI=1S/C11H14ClNO4/c1-13-11(14)17-9-6-4-3-5-8(9)16-10(7-12)15-2/h3-6,10H,7H2,1-2H3,(H,13,14)
Instrument: Exploris 240 Orbitrap Thermo Scientific
Instrument type: LC-ESI-QFT
Ms type: MS2
Ion mode: POSITIVE
Ionization: ESI
Fragmentation mode: HCD
Collision energy: 60 % (nominal)
Resolution: 17500
Column name: XBridge C18 3.5um, 2.1x50mm, Waters
Retention time: 4.885 min
Base peak: 116.0528
Precursor m/z: 260.0684
Precursor type: [M+H]+
m/z	relative intensity	assigned
65.0387	15	C5H5+
80.0496	19	C5H6N+
93.0574	10	C6H7N+
98.9999	14	C5H4Cl+
108.0444	127	C6H6NO+
111.9951	28	C5H3ClN+
113.0154	17	C6H6Cl+
123.0678	209	C7H9NO+
126.0105	34	C6H5ClN+
133.0523	39	C8H7NO+
136.0397	15	C7H6NO2+
139.9898	102	C6H3ClNO+
140.9745	27	C6H2ClO2+
143.0133	164	C6H6ClNO+
143.0263	23	C7H8ClO+
154.005	23	C10H2O2+
155.9844	25	C9O3+
155.9975	31	C7H5ClO2+
158.0003	30	C6H5ClNO2+
164.0341	19	C8H6NO3+
170.0004	636	C7H5ClNO2+
171.0081	134	C7H6ClNO2+
183.9945	999	C11H3ClN+
197.0237	71	C9H8ClNO2+
202.0029	68	C8H7ClO4+
