Mass spectrum: 2-Toluenesulfonamide; LC-ESI-QFT; MS2; CE: 45; R=35000; [M+H]+
Name: 2-Toluenesulfonamide
Name: o-Toluenesulfonamide
Name: 2-methylbenzenesulfonamide
Formula: C7H9NO2S
Exact mass: 171.03540
SMILES: CC1=CC=CC=C1S(=O)(=O)N
InChI: InChI=1S/C7H9NO2S/c1-6-4-2-3-5-7(6)11(8,9)10/h2-5H,1H3,(H2,8,9,10)
Instrument: Q Exactive Plus Orbitrap Thermo Scientific
Instrument type: LC-ESI-QFT
Ms type: MS2
Ion mode: POSITIVE
Ionization: ESI
Fragmentation mode: HCD
Collision energy: 45 (nominal)
Resolution: 35000
Column name: XBridge C18 3.5um, 2.1x50mm, Waters
Retention time: 4.6 min
Base peak: 189.0689
Precursor m/z: 172.0427
Precursor type: [M+H]+
m/z	relative intensity	assigned
51.0228	1	C4H3+
55.0179	2	C3H3O+
65.0386	26	C5H5+
67.0542	8	C5H7+
77.0385	2	C6H5+
78.0464	1	C6H6+
91.0542	999	C7H7+
93.0699	1	C7H9+
95.0492	3	C6H7O+
105.0447	1	C6H5N2+
106.0413	49	C7H6O+
107.0491	39	C7H7O+
108.0569	2	C7H8O+
109.0648	257	C7H9O+
119.0604	276	C7H7N2+
124.0519	10	C7H8O2+
155.0161	22	C7H7O2S+
