Mass spectrum: Clozapine; LC-ESI-ITFT; MS2; CE: 90%; R=30000; [M+H]+
Name: Clozapine
Name: 8-chloro-11-(4-methylpiperazin-1-yl)-5H-dibenzo[b,e][1,4]diazepine
Formula: C18H19ClN4
Exact mass: 326.1298
SMILES: C1(=Nc2c(Nc3c1cccc3)ccc(c2)Cl)N1CCN(CC1)C
InChI: InChI=1S/C18H19ClN4/c1-22-8-10-23(11-9-22)18-14-4-2-3-5-15(14)20-16-7-6-13(19)12-17(16)21-18/h2-7,12,20H,8-11H2,1H3
Instrument: LTQ Orbitrap XL Thermo Scientific
Instrument type: LC-ESI-ITFT
Ms type: MS2
Ion mode: POSITIVE
Ionization: ESI
Fragmentation mode: HCD
Collision energy: 90 % (nominal)
Resolution: 30000
Column name: XBridge C18 3.5um, 2.1x50mm, Waters
Retention time: 6.4 min
Base peak: 327.1383
Precursor m/z: 327.1371
Precursor type: [M+H]+
m/z	relative intensity	assigned
58.0651	18	C3H8N+
82.0652	3	C5H8N+
84.0808	19	C5H10N+
85.0761	2	C4H9N2+
90.0339	13	C6H4N+
98.9996	3	C5H4Cl+
117.0572	2	C8H7N+
123.9949	24	C6H3ClN+
126.0105	1	C6H5ClN+
132.068	1	C8H8N2+
164.0495	25	C12H6N+
165.0574	14	C12H7N+
183.0681	4	C9H12ClN2+
191.0605	28	C13H7N2+
192.0684	999	C13H8N2+
193.0761	5	C13H9N2+
194.0839	7	C13H10N2+
200.0262	18	C12H7ClN+
205.0762	7	C14H9N2+
206.084	8	C14H10N2+
207.0917	7	C14H11N2+
208.0996	5	C14H12N2+
209.0708	6	C10H12ClN3+
213.0344	2	C13H8ClN+
214.0419	2	C13H9ClN+
215.0372	10	C12H8ClN2+
217.0762	3	C15H9N2+
218.0839	17	C15H10N2+
219.0664	6	C13H7N4+
220.087	13	C14H10N3+
226.0293	84	C13H7ClN2+
227.0371	41	C13H8ClN2+
228.0448	15	C13H9ClN2+
229.0527	3	C13H10ClN2+
233.0951	5	C15H11N3+
234.1026	18	C15H12N3+
235.1105	6	C15H13N3+
239.0371	6	C14H8ClN2+
240.0448	7	C14H9ClN2+
241.0529	4	C14H10ClN2+
246.1023	2	C16H12N3+
252.0448	4	C15H9ClN2+
253.0528	18	C15H10ClN2+
254.0481	8	C14H9ClN3+
254.0607	2	C15H11ClN2+
255.0562	3	C14H10ClN3+
268.0638	4	C15H11ClN3+
270.0792	40	C15H13ClN3+
280.0638	3	C16H11ClN3+
294.0797	3	C17H13ClN3+
296.0948	2	C17H15ClN3+
