Mass spectrum: C.I. Solvent Red 49; LC-ESI-QFT; MS2; CE: 120%; R=15000; [M+H]+
Name: C.I. Solvent Red 49
Name: Rhodamine B base
Name: 3`,6`-bis(diethylamino)spiro[2-benzofuran-3,9`-xanthene]-1-one
Formula: C28H30N2O3
Exact mass: 442.2256428
SMILES: CCN(CC)C1=CC=C2C(OC3=CC(=CC=C3C22OC(=O)C3=CC=CC=C23)N(CC)CC)=C1
InChI: InChI=1S/C28H30N2O3/c1-5-29(6-2)19-13-15-23-25(17-19)32-26-18-20(30(7-3)8-4)14-16-24(26)28(23)22-12-10-9-11-21(22)27(31)33-28/h9-18H,5-8H2,1-4H3
Instrument: Exploris 240 Thermo Scientific
Instrument type: LC-ESI-QFT
Ms type: MS2
Ion mode: POSITIVE
Ionization: ESI
Fragmentation mode: HCD
Collision energy: 120 % (nominal)
Resolution: 15000
Column name: XBridge C18 3.5um, 2.1x50mm, Waters
Retention time: 8.694 min
Base peak: 443.2326
Precursor m/z: 443.2329
Precursor type: [M+H]+
m/z	relative intensity	assigned
202.0777	596	C16H10+
226.0778	174	C18H10+
243.0812	64	C18H11O+
255.0801	243	C19H11O+
282.0916	929	C20H12NO+
311.1187	278	C21H15N2O+
326.0813	380	C21H12NO3+
327.0892	254	C21H13NO3+
341.1053	427	C22H15NO3+
355.108	999	C22H15N2O3+
