Mass spectrum: Flonicamid; LC-ESI-ITFT; MS2; CE: 60%; R=7500; [M+H]+
Name: Flonicamid
Name: N-(cyanomethyl)-4-(trifluoromethyl)-3-pyridinecarboxamide
Formula: C9H6F3N3O
Exact mass: 229.0463
SMILES: O=C(NCC#N)c1cnccc1C(F)(F)F
InChI: InChI=1S/C9H6F3N3O/c10-9(11,12)7-1-3-14-5-6(7)8(16)15-4-2-13/h1,3,5H,4H2,(H,15,16)
Instrument: LTQ Orbitrap XL Thermo Scientific
Instrument type: LC-ESI-ITFT
Ms type: MS2
Ion mode: POSITIVE
Ionization: ESI
Fragmentation mode: HCD
Collision energy: 60 % (nominal)
Resolution: 7500
Column name: XBridge C18 3.5um, 2.1x50mm, Waters
Retention time: 3.9 min
Base peak: 230.0537
Precursor m/z: 230.0536
Precursor type: [M+H]+
m/z	relative intensity	assigned
79.0414	4	C5H5N+
98.04	78	C5H5FN+
115.0223	2	C5H3F2N+
126.035	13	C6H5FNO+
128.0306	76	C6H4F2N+
129.0385	68	C6H5F2N+
131.0238	13	C7H3N2O+
134.0474	42	C7H6N2O+
135.0352	11	C7H4FN2+
136.0431	5	C7H5FN2+
140.0313	3	C7H4F2N+
144.0257	37	C6H4F2NO+
146.0213	121	C6H3F3N+
147.0291	34	C6H4F3N+
148.0369	999	C6H5F3N+
153.0458	9	C7H6FN2O+
155.0415	82	C7H5F2N2+
156.0249	6	C7H4F2NO+
160.0376	3	C7H5F3N+
162.0465	5	C8H5FN3+
163.0302	8	C8H4FN2O+
164.0317	12	C6H5F3NO+
173.0315	3	C7H4F3N2+
174.0162	717	C7H3F3NO+
175.0478	32	C7H6F3N2+
176.0318	650	C7H5F3NO+
179.0188	23	C6H4F3NO2+
183.0364	358	C8H5F2N2O+
185.0317	7	C8H4F3N2+
190.042	4	C9H5FN3O+
192.0269	2	C7H5F3NO2+
203.0428	982	C8H6F3N2O+
