Mass spectrum: Imidaclothiz; LC-ESI-QFT; MS2; CE: 180%; R=17500; [M-H]-
Name: Imidaclothiz
Name: N-[1-[(2-chloro-1,3-thiazol-5-yl)methyl]-4,5-dihydroimidazol-2-yl]nitramide
Formula: C7H8ClN5O2S
Exact mass: 261.0087
SMILES: C1CN(C(=N1)N[N+](=O)[O-])CC2=CN=C(S2)Cl
InChI: InChI=1S/C7H8ClN5O2S/c8-6-10-3-5(16-6)4-12-2-1-9-7(12)11-13(14)15/h3H,1-2,4H2,(H,9,11)
Instrument: Exploris 240 Orbitrap Thermo Scientific
Instrument type: LC-ESI-QFT
Ms type: MS2
Ion mode: NEGATIVE
Ionization: ESI
Fragmentation mode: HCD
Collision energy: 180 % (nominal)
Resolution: 17500
Column name: XBridge C18 3.5um, 2.1x50mm, Waters
Retention time: 3.905 min
Base peak: 260.0014
Precursor m/z: 260.0014
Precursor type: [M-H]-
m/z	relative intensity	assigned
56.9805	63	C2HS-
57.9757	999	CNS-
