Mass spectrum: 2,4-Dimethylaniline; LC-ESI-QFT; MS2; CE: 180%; R=17500; [M+H]+
Name: 2,4-Dimethylaniline
Formula: C8H11N
Exact mass: 121.0891
SMILES: CC1=CC(=C(C=C1)N)C
InChI: InChI=1S/C8H11N/c1-6-3-4-8(9)7(2)5-6/h3-5H,9H2,1-2H3
Instrument: Exploris 240 Orbitrap Thermo Scientific
Instrument type: LC-ESI-QFT
Ms type: MS2
Ion mode: POSITIVE
Ionization: ESI
Fragmentation mode: HCD
Collision energy: 180 % (nominal)
Resolution: 17500
Column name: XBridge C18 3.5um, 2.1x50mm, Waters
Retention time: 2.610 min
Base peak: 122.0964
Precursor m/z: 122.0964
Precursor type: [M+H]+
m/z	relative intensity	assigned
50.0152	22	C4H2+
51.0229	999	C4H3+
53.0386	248	C4H5+
63.0229	12	C5H3+
65.0386	112	C5H5+
66.0464	25	C5H6+
77.0386	872	C6H5+
78.0465	21	C6H6+
79.0542	235	C6H7+
80.0493	16	C5H6N+
89.0385	43	C7H5+
103.0544	76	C8H7+
106.0652	337	C7H8N+
107.073	20	C7H9N+
