Mass spectrum: Imazamox; LC-ESI-ITFT; MS2; CE: 45%; R=7500; [M+H]+
Name: Imazamox
Name: 2-(4-isopropyl-5-keto-4-methyl-2-imidazolin-2-yl)-5-(methoxymethyl)nicotinic acid
Formula: C15H19N3O4
Exact mass: 305.1376
SMILES: O=C(O)c1c(ncc(c1)COC)/C2=N/C(C(=O)N2)(C(C)C)C
InChI: InChI=1S/C15H19N3O4/c1-8(2)15(3)14(21)17-12(18-15)11-10(13(19)20)5-9(6-16-11)7-22-4/h5-6,8H,7H2,1-4H3,(H,19,20)(H,17,18,21)
Instrument: LTQ Orbitrap XL Thermo Scientific
Instrument type: LC-ESI-ITFT
Ms type: MS2
Ion mode: POSITIVE
Ionization: ESI
Fragmentation mode: HCD
Collision energy: 45 % (nominal)
Resolution: 7500
Column name: XBridge C18 3.5um, 2.1x50mm, Waters
Retention time: 5.7 min
Base peak: 306.1456
Precursor m/z: 306.1448
Precursor type: [M+H]+
m/z	relative intensity	assigned
58.0652	4	C3H8N+
69.0699	103	C5H9+
86.0965	395	C5H12N+
97.0649	16	C6H9O+
114.0917	5	C6H12NO+
149.071	70	C8H9N2O+
163.0502	47	C8H7N2O2+
175.0502	16	C9H7N2O2+
176.1067	4	C11H14NO+
177.1021	2	C10H13N2O+
187.0861	5	C11H11N2O+
191.0815	45	C10H11N2O2+
192.0768	142	C9H10N3O2+
193.0608	542	C9H9N2O3+
195.0768	4	C9H11N2O3+
205.0604	4	C10H9N2O3+
210.0874	8	C9H12N3O3+
217.1336	130	C13H17N2O+
218.0923	127	C11H12N3O2+
219.1126	34	C12H15N2O2+
220.1076	25	C11H14N3O2+
221.0922	7	C11H13N2O3+
234.1597	7	C13H20N3O+
235.0951	33	C11H13N3O3+
236.1026	2	C11H14N3O3+
243.1128	101	C14H15N2O2+
245.0794	18	C12H11N3O3+
246.0875	591	C12H12N3O3+
260.1395	240	C14H18N3O2+
261.1235	999	C14H17N2O3+
262.1545	5	C14H20N3O2+
263.09	40	C12H13N3O4+
264.0979	485	C12H14N3O4+
278.1498	199	C14H20N3O3+
288.1341	26	C15H18N3O3+
306.145	493	C15H20N3O4+
