Mass spectrum: R-Deprenyl N-Oxide; LC-ESI-QFT; MS2; CE: 150; R=35000; [M+H]+
Name: R-Deprenyl N-Oxide
Name: Methyl(1-phenyl-2-propanyl)2-propyn-1-ylamine oxide
Name: N-methyl-1-phenyl-N-prop-2-ynylpropan-2-amine oxide
Formula: C13H17NO
Exact mass: 203.13101
SMILES: CC(CC1=CC=CC=C1)[N+](C)(CC#C)[O-]
InChI: InChI=1S/C13H17NO/c1-4-10-14(3,15)12(2)11-13-8-6-5-7-9-13/h1,5-9,12H,10-11H2,2-3H3
Instrument: Q Exactive Plus Orbitrap Thermo Scientific
Instrument type: LC-ESI-QFT
Ms type: MS2
Ion mode: POSITIVE
Ionization: ESI
Fragmentation mode: HCD
Collision energy: 150 (nominal)
Resolution: 35000
Column name: XBridge C18 3.5um, 2.1x50mm, Waters
Retention time: 4.9 min
Base peak: 204.1383
Precursor m/z: 204.1383
Precursor type: [M+H]+
m/z	relative intensity	assigned
50.0151	9	C4H2+
51.023	8	C4H3+
53.0022	16	C3HO+
53.0386	3	C4H5+
53.9975	3	C2NO+
56.0495	4	C3H6N+
62.0151	6	C5H2+
63.023	50	C5H3+
65.0386	842	C5H5+
67.9893	3	C3O2+
68.0495	28	C4H6N+
74.06	1	C3H8NO+
77.0386	7	C6H5+
78.0464	6	C6H6+
79.0542	2	C6H7+
89.0385	4	C7H5+
90.0463	1	C7H6+
91.0543	999	C7H7+
95.0492	9	C6H7O+
103.0542	5	C8H7+
105.0448	5	C6H5N2+
115.0542	3	C9H7+
