Mass spectrum: Sulfadimethoxine; LC-ESI-ITFT; MS2; CE: 45%; R=7500; [M-H]-
Name: Sulfadimethoxine
Name: 4-amino-N-(2,6-dimethoxy-4-pyrimidinyl)benzenesulfonamide
Formula: C12H14N4O4S
Exact mass: 310.0736
SMILES: c1(NS(c2ccc(N)cc2)(=O)=O)cc(nc(n1)OC)OC
InChI: InChI=1S/C12H14N4O4S/c1-19-11-7-10(14-12(15-11)20-2)16-21(17,18)9-5-3-8(13)4-6-9/h3-7H,13H2,1-2H3,(H,14,15,16)
Instrument: LTQ Orbitrap XL Thermo Scientific
Instrument type: LC-ESI-ITFT
Ms type: MS2
Ion mode: NEGATIVE
Ionization: ESI
Fragmentation mode: HCD
Collision energy: 45 % (nominal)
Resolution: 7500
Column name: XBridge C18 3.5um, 2.1x50mm, Waters
Retention time: 5.7 min
Base peak: 309.0653
Precursor m/z: 309.0663
Precursor type: [M-H]-
m/z	relative intensity	assigned
65.0146	35	C3HN2-
65.9985	26	C3NO-
66.0098	229	C2N3-
122.0363	61	C5H4N3O-
124.0148	26	C4H2N3O2-
130.0535	22	C8H6N2-
131.0487	20	C7H5N3-
131.0618	35	C8H7N2-
144.0574	19	C8H6N3-
154.0616	75	C6H8N3O2-
171.0233	54	C6H7N2O2S-
173.0596	18	C9H7N3O-
174.0673	71	C9H8N3O-
195.023	77	C8H7N2O2S-
199.0619	59	C10H7N4O-
215.0572	118	C10H7N4O2-
229.0722	80	C11H9N4O2-
230.0807	123	C11H10N4O2-
309.0662	999	C12H13N4O4S-
