Mass spectrum: 2-(Dimethylamino)ethyl methacrylate; LC-ESI-QFT; MS2; CE: 180%; R=15000; [M+H]+
Name: 2-(Dimethylamino)ethyl methacrylate
Name: 2-(N,N-Dimethylamino)ethyl methacrylate
Name: 2-(dimethylamino)ethyl 2-methylprop-2-enoate
Formula: C8H15NO2
Exact mass: 157.1102787
SMILES: CC(=C)C(=O)OCCN(C)C
InChI: InChI=1S/C8H15NO2/c1-7(2)8(10)11-6-5-9(3)4/h1,5-6H2,2-4H3
Instrument: Exploris 240 Thermo Scientific
Instrument type: LC-ESI-QFT
Ms type: MS2
Ion mode: POSITIVE
Ionization: ESI
Fragmentation mode: HCD
Collision energy: 180 % (nominal)
Resolution: 15000
Column name: XBridge C18 3.5um, 2.1x50mm, Waters
Retention time: 1.559 min
Base peak: 158.1175
Precursor m/z: 158.1176
Precursor type: [M+H]+
m/z	relative intensity	assigned
41.0386	655	C3H5+
42.0338	999	C2H4N+
44.0495	312	C2H6N+
56.0495	815	C3H6N+
57.0573	213	C3H7N+
69.0334	120	C4H5O+
70.0652	155	C4H8N+
72.0809	165	C4H10N+
