Mass spectrum: Mephedrone; LC-ESI-ITFT; MS2; CE: 60%; R=15000; [M+H]+
Name: Mephedrone
Name: 2-(Methylamino)-1-(4-methylphenyl)-1-propanone
Name: 4-methylmethcathinone
Formula: C11H15NO
Exact mass: 177.1154
SMILES: Cc1ccc(cc1)C(=O)C(C)NC
InChI: InChI=1S/C11H15NO/c1-8-4-6-10(7-5-8)11(13)9(2)12-3/h4-7,9,12H,1-3H3
Instrument: LTQ Orbitrap XL Thermo Scientific
Instrument type: LC-ESI-ITFT
Ms type: MS2
Ion mode: POSITIVE
Ionization: ESI
Fragmentation mode: HCD
Collision energy: 60 % (nominal)
Resolution: 15000
Column name: XBridge C18 3.5um, 2.1x50mm, Waters
Retention time: 4.3 min
Base peak: 178.1231
Precursor m/z: 178.1226
Precursor type: [M+H]+
m/z	relative intensity	assigned
58.0651	8	C3H8N+
91.0542	9	C7H7+
93.07	2	C7H9+
117.0699	8	C9H9+
119.0856	175	C9H11+
129.0699	6	C10H9+
130.065	8	C9H8N+
131.0856	5	C10H11+
144.0808	50	C10H10N+
145.0887	999	C10H11N+
147.0804	28	C10H11O+
158.0964	5	C11H12N+
159.1045	4	C11H13N+
160.1122	785	C11H14N+
