Mass spectrum: Sulfanilic acid; LC-ESI-ITFT; MS2; CE: 60%; R=15000; [M+H]+
Name: Sulfanilic acid
Name: 4-aminobenzenesulfonic acid
Formula: C6H7NO3S
Exact mass: 173.0147
SMILES: S(c1ccc(N)cc1)(O)(=O)=O
InChI: InChI=1S/C6H7NO3S/c7-5-1-3-6(4-2-5)11(8,9)10/h1-4H,7H2,(H,8,9,10)
Instrument: LTQ Orbitrap XL Thermo Scientific
Instrument type: LC-ESI-ITFT
Ms type: MS2
Ion mode: POSITIVE
Ionization: ESI
Fragmentation mode: HCD
Collision energy: 60 % (nominal)
Resolution: 15000
Column name: XBridge C18 3.5um, 2.1x50mm, Waters
Retention time: 0.9 min
Base peak: 174.0217
Precursor m/z: 174.0219
Precursor type: [M+H]+
m/z	relative intensity	assigned
65.0386	20	C5H5+
68.0495	14	C4H6N+
79.0178	1	C5H3O+
92.0495	110	C6H6N+
93.0573	999	C6H7N+
94.0652	3	C6H8N+
96.0443	3	C5H6NO+
108.0444	122	C6H6NO+
109.0284	4	C6H5O2+
109.0521	2	C6H7NO+
110.0601	19	C6H8NO+
120.0555	1	C6H6N3+
125.0472	18	C6H7NO2+
156.0115	24	C6H6NO2S+
174.022	156	C6H8NO3S+
