Mass spectrum: p-Toluenesulfonic acid; LC-ESI-QFT; MS2; CE: 45%; R=15000; [M+H]+
Name: p-Toluenesulfonic acid
Name: 4-methylbenzenesulfonic acid
Formula: C7H8O3S
Exact mass: 172.0194
SMILES: CC1=CC=C(C=C1)S(=O)(=O)O
InChI: InChI=1S/C7H8O3S/c1-6-2-4-7(5-3-6)11(8,9)10/h2-5H,1H3,(H,8,9,10)
Instrument: Orbitrap Exploris 240 Thermo Scientific
Instrument type: LC-ESI-QFT
Ms type: MS2
Ion mode: POSITIVE
Ionization: ESI
Fragmentation mode: HCD
Collision energy: 45 % (nominal)
Resolution: 15000
Column name: Atlantis C18 3um, 3.0x150mm, Waters
Retention time: 13.497 min
Base peak: 132.9582
Precursor m/z: 173.0267
Precursor type: [M+H]+
Precursor intensity: 12440807
m/z	relative intensity	assigned
65.0386	17	C5H5+
67.0542	19	C5H7+
91.0542	673	C7H7+
92.062	286	C7H8+
93.0698	133	C7H9+
108.0569	35	C7H8O+
109.0648	357	C7H9O+
119.0604	999	
155.0161	245	C7H7O2S+
173.0271	157	C7H9O3S+
