Mass spectrum: Nafcillin; LC-ESI-QFT; MS2; CE: 75; R=35000; [M+H]+
Name: Nafcillin
Name: (2S,5R,6R)-6-[(2-ethoxynaphthalene-1-carbonyl)amino]-3,3-dimethyl-7-oxo-4-thia-1-azabicyclo[3.2.0]heptane-2-carboxylic acid
Formula: C21H22N2O5S
Exact mass: 414.12494
SMILES: CCOC1=C(C(=O)N[C@H]2[C@H]3SC(C)(C)[C@@H](N3C2=O)C(O)=O)C2=CC=CC=C2C=C1
InChI: InChI=1S/C21H22N2O5S/c1-4-28-13-10-9-11-7-5-6-8-12(11)14(13)17(24)22-15-18(25)23-16(20(26)27)21(2,3)29-19(15)23/h5-10,15-16,19H,4H2,1-3H3,(H,22,24)(H,26,27)/t15-,16+,19-/m1/s1
Instrument: Q Exactive Plus Orbitrap Thermo Scientific
Instrument type: LC-ESI-QFT
Ms type: MS2
Ion mode: POSITIVE
Ionization: ESI
Fragmentation mode: HCD
Collision energy: 75 (nominal)
Resolution: 35000
Column name: XBridge C18 3.5um, 2.1x50mm, Waters
Retention time: 9.4 min
Base peak: 415.1318
Precursor m/z: 415.1322
Precursor type: [M+H]+
m/z	relative intensity	assigned
54.0338	2	C3H4N+
55.0178	1	C3H3O+
58.995	2	C2H3S+
63.0228	2	C5H3+
70.065	1	C4H8N+
87.0263	6	C4H7S+
89.0384	3	C7H5+
94.0651	2	C6H8N+
102.0008	1	C3H4NOS+
103.0542	1	C8H7+
113.0293	1	C5H7NS+
114.0372	14	C5H8NS+
114.0462	1	C9H6+
115.0542	672	C9H7+
117.0698	2	C9H9+
126.046	1	C2H10N2O2S+
127.054	3	C10H7+
128.0619	15	C10H8+
129.0698	13	C10H9+
130.0412	7	C9H6O+
141.0697	9	C11H9+
142.0412	1	C10H6O+
143.0491	644	C10H7O+
144.0569	2	C10H8O+
145.0647	10	C10H9O+
152.0621	10	C12H8+
153.0572	4	C11H7N+
153.0698	16	C12H9+
154.065	14	C11H8N+
154.0778	1	C12H10+
155.0493	3	C11H7O+
155.0602	12	C10H7N2+
155.0854	6	C12H11+
156.0807	1	C11H10N+
157.0647	6	C11H9O+
165.0698	3	C13H9+
166.0651	1	C12H8N+
167.0729	3	C12H9N+
168.0568	3	C12H8O+
169.0523	7	C11H7NO+
169.0647	4	C12H9O+
169.0758	1	C11H9N2+
170.0597	2	C11H8NO+
171.0439	999	C3H11N2O4S+
181.0647	66	C13H9O+
182.06	140	C12H8NO+
182.0835	11	C12H10N2+
183.0443	2	C12H7O2+
183.0678	20	C12H9NO+
183.0915	11	C12H11N2+
184.0755	1	C12H10NO+
193.0761	1	C13H9N2+
195.0917	2	C13H11N2+
196.0755	1	C13H10NO+
198.0548	1	C12H8NO2+
199.0755	3	C13H11O2+
206.0839	1	C14H10N2+
208.0628	1	C13H8N2O+
209.0709	37	C13H9N2O+
210.0788	12	C13H10N2O+
210.0911	1	C14H12NO+
211.0864	5	C13H11N2O+
221.0708	3	C14H9N2O+
222.079	2	C14H10N2O+
223.0865	1	C14H11N2O+
228.0657	1	C13H10NO3+
249.1023	1	C16H13N2O+
