Mass spectrum: Flunixine; LC-ESI-QFT; MS2; CE: 45; R=35000; [M+H]+
Name: Flunixine
Name: Banamine
Name: 2-[2-methyl-3-(trifluoromethyl)anilino]pyridine-3-carboxylic acid
Formula: C14H11F3N2O2
Exact mass: 296.07726
SMILES: CC1=C(C=CC=C1NC2=C(C=CC=N2)C(=O)O)C(F)(F)F
InChI: InChI=1S/C14H11F3N2O2/c1-8-10(14(15,16)17)5-2-6-11(8)19-12-9(13(20)21)4-3-7-18-12/h2-7H,1H3,(H,18,19)(H,20,21)
Instrument: Q Exactive Plus Orbitrap Thermo Scientific
Instrument type: LC-ESI-QFT
Ms type: MS2
Ion mode: POSITIVE
Ionization: ESI
Fragmentation mode: HCD
Collision energy: 45 (nominal)
Resolution: 35000
Column name: XBridge C18 3.5um, 2.1x50mm, Waters
Retention time: 10.9 min
Base peak: 297.0837
Precursor m/z: 297.0845
Precursor type: [M+H]+
m/z	relative intensity	assigned
159.0415	1	C8H6F3+
210.0786	9	C13H10N2O+
211.0667	5	C13H8FN2+
239.0615	21	C14H8FN2O+
251.0796	1	C13H10F3N2+
257.0721	19	C14H10FN2O2+
259.0678	39	C11H10F3N2O2+
262.0549	1	C13H8F2N2O2+
264.0505	54	C13H7F3N2O+
277.0783	14	C14H11F2N2O2+
278.0668	1	C14H9F3N2O+
279.0738	999	C14H10F3N2O+
280.0759	1	C12H10F2N4O2+
297.0844	136	C14H12F3N2O2+
