Mass spectrum: O-desmethylvenlafaxine; LC-ESI-ITFT; MS2; CE: 45%; R=7500; [M+H]+
Name: O-desmethylvenlafaxine
Name: Desvenlafaxine
Name: 4-[2-(dimethylamino)-1-(1-hydroxycyclohexyl)ethyl]phenol
Formula: C16H25NO2
Exact mass: 263.1885
SMILES: CN(C)CC(C1=CC=C(C=C1)O)C2(CCCCC2)O
InChI: InChI=1S/C16H25NO2/c1-17(2)12-15(13-6-8-14(18)9-7-13)16(19)10-4-3-5-11-16/h6-9,15,18-19H,3-5,10-12H2,1-2H3
Instrument: LTQ Orbitrap XL Thermo Scientific
Instrument type: LC-ESI-ITFT
Ms type: MS2
Ion mode: POSITIVE
Ionization: ESI
Fragmentation mode: HCD
Collision energy: 45 % (nominal)
Resolution: 7500
Column name: XBridge C18 3.5um, 2.1x50mm, Waters
Retention time: 4.8 min
Base peak: 264.1971
Precursor m/z: 264.1958
Precursor type: [M+H]+
m/z	relative intensity	assigned
58.0652	999	C3H8N+
81.0699	12	C6H9+
107.0492	186	C7H7O+
121.0649	9	C8H9O+
133.0649	141	C9H9O+
145.0651	34	C10H9O+
159.0804	44	C11H11O+
164.1073	9	C10H14NO+
173.0959	6	C12H13O+
201.1275	142	C14H17O+
246.1849	98	C16H24NO+
