Mass spectrum: Nicosulfuron-TP AUSN; LC-ESI-QFT; MS2; CE: 150%; R=17500; [M-H]-
Name: Nicosulfuron-TP AUSN
Name: 2-(diaminomethylidenecarbamoylsulfamoyl)-N,N-dimethylpyridine-3-carboxamide
Formula: C10H14N6O4S
Exact mass: 314.0797
SMILES: CN(C)C(=O)C1=CC=CN=C1S(=O)(=O)NC(=O)NC(N)=N
InChI: InChI=1S/C10H14N6O4S/c1-16(2)8(17)6-4-3-5-13-7(6)21(19,20)15-10(18)14-9(11)12/h3-5H,1-2H3,(H5,11,12,14,15,18)
Instrument: Q Exactive Plus Orbitrap Thermo Scientific
Instrument type: LC-ESI-QFT
Ms type: MS2
Ion mode: NEGATIVE
Ionization: ESI
Fragmentation mode: HCD
Collision energy: 150 % (nominal)
Resolution: 17500
Column name: XBridge C18 3.5um, 2.1x50mm, Waters
Retention time: 1.351 min
Base peak: 313.0724
Precursor m/z: 313.0724
Precursor type: [M-H]-
m/z	relative intensity	assigned
50.0036	70	C3N-
61.9706	522	NOS-
63.9625	999	O2S-
64.0191	29	
65.9983	26	C3NO-
66.0348	67	C4H4N-
74.0038	20	C5N-
77.9655	372	NO2S-
78.9733	136	HNO2S-
91.0301	54	C5H3N2-
92.0141	29	C5H2NO-
93.0458	33	C5H5N2-
94.0299	110	C5H4NO-
