Mass spectrum: Albendazole sulfone; LC-ESI-QFT; MS2; CE: 90; R=35000; [M-H]-
Name: Albendazole sulfone
Name: methyl N-(6-propylsulfonyl-1H-benzimidazol-2-yl)carbamate
Formula: C12H15N3O4S
Exact mass: 297.07833
SMILES: CCCS(=O)(=O)C1=CC2=C(C=C1)N=C(N2)NC(=O)OC
InChI: InChI=1S/C12H15N3O4S/c1-3-6-20(17,18)8-4-5-9-10(7-8)14-11(13-9)15-12(16)19-2/h4-5,7H,3,6H2,1-2H3,(H2,13,14,15,16)
Instrument: Q Exactive Plus Orbitrap Thermo Scientific
Instrument type: LC-ESI-QFT
Ms type: MS2
Ion mode: NEGATIVE
Ionization: ESI
Fragmentation mode: HCD
Collision energy: 90 (nominal)
Resolution: 35000
Column name: XBridge C18 3.5um, 2.1x50mm, Waters
Retention time: 5.7 min
Base peak: 264.0444
Precursor m/z: 296.0711
Precursor type: [M-H]-
m/z	relative intensity	assigned
64.0067	4	C3N2-
65.0145	28	C3HN2-
65.9985	21	C3NO-
68.0016	8	C2N2O-
78.0224	1	C4H2N2-
79.0063	1	C4HNO-
87.0114	3	C6HN-
89.0145	8	C5HN2-
89.9985	1	C5NO-
90.0223	26	C5H2N2-
91.0063	4	C5HNO-
92.0254	25	C4H2N3-
93.0093	7	C4HN2O-
93.0218	1	C5H3NO-
95.025	53	C4H3N2O-
102.0223	16	C6H2N2-
103.0175	3	C5HN3-
105.0332	7	C5H3N3-
106.0172	174	C5H2N2O-
108.0204	1	C4H2N3O-
114.0224	4	C7H2N2-
115.0302	114	C7H3N2-
116.0254	1	C6H2N3-
118.0174	4	C6H2N2O-
119.0252	1	C6H3N2O-
120.0091	11	C6H2NO2-
129.0333	339	C7H3N3-
130.0172	1	C7H2N2O-
132.0203	19	C6H2N3O-
133.0282	510	C6H3N3O-
134.0123	6	C6H2N2O2-
136.0151	22	C5H2N3O2-
144.0203	2	C7H2N3O-
145.0281	29	C7H3N3O-
146.036	1	C7H4N3O-
147.02	4	C7H3N2O2-
148.0152	2	C6H2N3O2-
149.023	93	C6H3N3O2-
156.0205	8	C8H2N3O-
157.0281	999	C8H3N3O-
158.0359	92	C8H4N3O-
160.0152	207	C7H2N3O2-
161.0231	4	C7H3N3O2-
164.0105	1	C6H2N3O3-
173.023	114	C8H3N3O2-
174.0306	1	C8H4N3O2-
188.0102	6	C8H2N3O3-
