Mass spectrum: Oxacillin; LC-ESI-QFT; MS2; CE: 150; R=35000; [M-H]-
Name: Oxacillin
Name: (2S,5R,6R)-3,3-dimethyl-6-[(5-methyl-3-phenyl-1,2-oxazole-4-carbonyl)amino]-7-oxo-4-thia-1-azabicyclo[3.2.0]heptane-2-carboxylic acid
Formula: C19H19N3O5S
Exact mass: 401.10454
SMILES: CC1=C(C(=O)N[C@H]2[C@H]3SC(C)(C)[C@@H](N3C2=O)C(O)=O)C(=NO1)C1=CC=CC=C1
InChI: InChI=1S/C19H19N3O5S/c1-9-11(12(21-27-9)10-7-5-4-6-8-10)15(23)20-13-16(24)22-14(18(25)26)19(2,3)28-17(13)22/h4-8,13-14,17H,1-3H3,(H,20,23)(H,25,26)/t13-,14+,17-/m1/s1
Instrument: Q Exactive Plus Orbitrap Thermo Scientific
Instrument type: LC-ESI-QFT
Ms type: MS2
Ion mode: NEGATIVE
Ionization: ESI
Fragmentation mode: HCD
Collision energy: 150 (nominal)
Resolution: 35000
Column name: XBridge C18 3.5um, 2.1x50mm, Waters
Retention time: 8.4 min
Base peak: 400.097
Precursor m/z: 400.0973
Precursor type: [M-H]-
m/z	relative intensity	assigned
50.0035	43	C3N-
55.0189	33	C3H3O-
56.9805	126	C2HS-
57.9757	191	CNS-
58.9962	67	C2H3S-
60.9753	39	CHOS-
64.0067	38	C3N2-
64.0193	47	C4H2N-
65.0146	108	C3HN2-
65.9986	999	C3NO-
70.9836	292	C2HNS-
71.9914	16	C2H2NS-
72.9993	83	C2H3NS-
74.9911	45	C2H3OS-
82.0299	54	C4H4NO-
83.014	64	C4H3O2-
101.0398	26	C8H5-
