Mass spectrum: Teflubenzuron; LC-ESI-ITFT; MS2; CE: 30%; R=7500; [M-H]-
Name: Teflubenzuron
Name: N-[(3,5-dichloro-2,4-difluoro-phenyl)carbamoyl]-2,6-difluoro-benzamide
Formula: C14H6Cl2F4N2O2
Exact mass: 379.9742
SMILES: Clc1cc(c(F)c(Cl)c1F)NC(=O)NC(=O)c2c(F)cccc2F
InChI: InChI=1S/C14H6Cl2F4N2O2/c15-5-4-8(12(20)10(16)11(5)19)21-14(24)22-13(23)9-6(17)2-1-3-7(9)18/h1-4H,(H2,21,22,23,24)
Instrument: LTQ Orbitrap XL Thermo Scientific
Instrument type: LC-ESI-ITFT
Ms type: MS2
Ion mode: NEGATIVE
Ionization: ESI
Fragmentation mode: HCD
Collision energy: 30 % (nominal)
Resolution: 7500
Column name: XBridge C18 3.5um, 2.1x50mm, Waters
Retention time: 16.1 min
Base peak: 218.0319
Precursor m/z: 378.967
Precursor type: [M-H]-
m/z	relative intensity	assigned
218.0316	999	C8H5F3N2O2-
