Mass spectrum: Triclopyr; LC-ESI-ITFT; MS2; CE: 75%; R=15000; [M+H]+
Name: Triclopyr
Name: 2-(3,5,6-trichloropyridin-2-yl)oxyacetic acid
Formula: C7H4Cl3NO3
Exact mass: 254.9257
SMILES: ClC1=C(OCC(O)=O)N=C(Cl)C(Cl)=C1
InChI: InChI=1S/C7H4Cl3NO3/c8-3-1-4(9)7(11-6(3)10)14-2-5(12)13/h1H,2H2,(H,12,13)
Instrument: LTQ Orbitrap XL Thermo Scientific
Instrument type: LC-ESI-ITFT
Ms type: MS2
Ion mode: POSITIVE
Ionization: ESI
Fragmentation mode: HCD
Collision energy: 75 % (nominal)
Resolution: 15000
Column name: XBridge C18 3.5um, 2.1x50mm, Waters
Retention time: 10.3 min
Base peak: 255.9336
Precursor m/z: 255.933
Precursor type: [M+H]+
m/z	relative intensity	assigned
62.9632	63	CClO+
84.9841	11	C4H2Cl+
99.9945	11	C7O+
106.945	166	C3HCl2+
108.971	7	C5ClN+
109.9792	266	C5HClN+
118.9449	48	C4HCl2+
127.9896	49	C5H3ClNO+
133.9558	85	C4H2Cl2N+
143.9401	128	C5Cl2N+
145.9558	986	C5H2Cl2N+
146.9634	24	C5H3Cl2N+
161.9507	111	C5H2Cl2NO+
163.9663	718	C5H4Cl2NO+
179.9168	999	C5HCl3N+
179.961	50	C5H4Cl2NO2+
181.9325	221	C5H3Cl3N+
197.9274	607	C5H3Cl3NO+
