Mass spectrum: MCLY; LC-ESI-QFT; MS2; CE: 180%; R=17500; [M+H]+
Name: MCLY
Name: Microcystin LY
Name: (5R,8S,11R,12S,15S,18S,19S,22R)-15-[(4-hydroxyphenyl)methyl]-18-[(1E,3E,5S,6S)-6-methoxy-3,5-dimethyl-7-phenylhepta-1,3-dienyl]-1,5,12,19-tetramethyl-2-methylidene-8-(2-methylpropyl)-3,6,9,13,16,20,25-heptaoxo-1,4,7,10,14,17,21-heptazacyclopentacosane-11,22-dicarboxylic acid
Class: NA
Formula: C52H71N7O13
Exact mass: 1001.5110
SMILES: COC(Cc1ccccc1)C(C)\C=C(C)\C=C/C2NC(=O)C(Cc3ccc(O)cc3)NC(=O)C(C)C(NC(=O)C(CC(C)C)NC(=O)C(C)NC(=O)C(=C)N(C)C(=O)CCC(NC(=O)C2C)C(O)=O)C(O)=O
InChI: InChI=1S/C52H71N7O13/c1-28(2)24-40-50(67)58-44(52(70)71)32(6)46(63)56-41(26-36-17-19-37(60)20-18-36)49(66)54-38(21-16-29(3)25-30(4)42(72-10)27-35-14-12-11-13-15-35)31(5)45(62)55-39(51(68)69)22-23-43(61)59(9)34(8)48(65)53-33(7)47(64)57-40/h11-21,25,28,30-33,38-42,44,60H,8,22-24,26-27H2,1-7,9-10H3,(H,53,65)(H,54,66)(H,55,62)(H,56,63)(H,57,64)(H,58,67)(H,68,69)(H,70,71)/b21-16-,29-25+
Instrument: Q Exactive Plus Orbitrap Thermo Scientific
Instrument type: LC-ESI-QFT
Ms type: MS2
Ion mode: POSITIVE
Ionization: ESI
Fragmentation mode: HCD
Collision energy: 180 % (nominal)
Resolution: 17500
Column name: XBridge C18 3.5um, 2.1x50mm, Waters
Retention time: 10.738 min
Base peak: 164.9846
Precursor m/z: 1002.5183
Precursor type: [M+H]+
m/z	relative intensity	assigned
74.0237	9	C2H4NO2+
77.0385	41	C6H5+
78.0466	5	C6H6+
79.0542	217	C6H7+
80.0495	53	C5H6N+
81.0334	3	C5H5O+
81.0574	5	C5H7N+
81.0699	15	C6H9+
82.0288	18	C4H4NO+
82.0651	67	C5H8N+
84.0444	95	C4H6NO+
85.0283	15	C4H5O2+
86.0599	6	C4H8NO+
86.0964	42	C5H12N+
89.0384	6	C7H5+
91.0543	999	C7H7+
92.0621	21	C7H8+
93.0575	4	C6H7N+
93.0699	70	C7H9+
94.0652	35	C6H8N+
95.0492	340	C6H7O+
95.0855	11	
96.0447	5	C5H6NO+
96.0808	6	C6H10N+
99.0916	27	C5H11N2+
102.0465	24	C8H6+
103.0542	583	C8H7+
105.0448	111	C6H5N2+
105.0699	279	C8H9+
106.0528	8	C6H6N2+
107.0492	41	C7H7O+
107.0855	204	C8H11+
108.0683	10	C6H8N2+
108.0809	6	C7H10N+
109.0648	56	C7H9O+
110.0602	13	C6H8NO+
113.0232	21	C5H5O3+
115.0542	93	C9H7+
116.062	16	C9H8+
117.0574	8	C8H7N+
117.0698	41	C9H9+
118.0653	14	C8H8N+
119.0492	74	C8H7O+
119.0603	33	C7H7N2+
119.0855	15	C9H11+
120.0568	11	C8H8O+
120.0806	15	C8H10N+
120.0933	5	C9H12+
121.0759	66	C7H9N2+
127.0866	90	C6H11N2O+
128.062	46	C10H8+
129.0697	29	C10H9+
130.0652	8	C9H8N+
130.0777	8	C10H10+
131.0855	20	C10H11+
133.1013	5	C10H13+
134.0596	3	C8H8NO+
135.0802	10	C9H11O+
136.0757	45	C8H10NO+
139.0868	4	C7H11N2O+
141.0699	14	C11H9+
143.0852	5	C11H11+
144.0805	2	C10H10N+
145.0645	7	C10H9O+
146.0603	11	C9H8NO+
146.0963	7	C10H12N+
149.071	11	C8H9N2O+
152.0617	6	C12H8+
153.07	4	C12H9+
155.0604	6	C10H7N2+
159.0682	5	C10H9NO+
165.07	27	C13H9+
167.082	16	C8H11N2O2+
178.0777	10	C14H10+
179.0857	11	C14H11+
