Mass spectrum: Exemestane; LC-ESI-ITFT; MS2; CE: 60%; R=7500; [M+H]+
Name: Exemestane
Name: (8R,9S,10R,13S,14S)-10,13-dimethyl-6-methylene-7,8,9,11,12,14,15,16-octahydrocyclopenta[a]phenanthrene-3,17-dione
Formula: C20H24O2
Exact mass: 296.1776
SMILES: CC12CCC3C(C1CCC2=O)CC(=C)C4=CC(=O)C=CC34C
InChI: InChI=1S/C20H24O2/c1-12-10-14-15-4-5-18(22)20(15,3)9-7-16(14)19(2)8-6-13(21)11-17(12)19/h6,8,11,14-16H,1,4-5,7,9-10H2,2-3H3/t14-,15-,16-,19+,20-/m0/s1
Instrument: LTQ Orbitrap XL Thermo Scientific
Instrument type: LC-ESI-ITFT
Ms type: MS2
Ion mode: POSITIVE
Ionization: ESI
Fragmentation mode: HCD
Collision energy: 60 % (nominal)
Resolution: 7500
Column name: XBridge C18 3.5um, 2.1x50mm, Waters
Retention time: 10.1 min
Base peak: 297.1859
Precursor m/z: 297.1849
Precursor type: [M+H]+
m/z	relative intensity	assigned
67.0543	44	C5H7+
77.0389	40	C6H5+
79.0543	458	C6H7+
81.07	68	C6H9+
91.0543	294	C7H7+
93.0699	999	C7H9+
95.0487	20	C6H7O+
95.0854	107	C7H11+
97.0648	133	C6H9O+
105.07	558	C8H9+
107.0495	34	C7H7O+
107.0856	486	C8H11+
109.0651	42	C7H9O+
117.0699	96	C9H9+
119.0855	231	C9H11+
121.0649	923	C8H9O+
121.1012	728	C9H13+
123.0807	29	C8H11O+
129.0701	84	C10H9+
130.0783	34	C10H10+
131.0856	225	C10H11+
132.0565	31	C9H8O+
133.0651	50	C9H9O+
133.1013	80	C10H13+
135.0805	352	C9H11O+
135.1173	33	C10H15+
143.0858	67	C11H11+
145.0648	87	C10H9O+
145.1013	238	C11H13+
147.0805	400	C10H11O+
147.1174	57	C11H15+
149.0962	418	C10H13O+
157.1014	33	C12H13+
159.0803	132	C11H11O+
161.096	130	C11H13O+
163.1125	30	C11H15O+
171.0809	68	C12H11O+
171.1177	39	C13H15+
173.0963	102	C12H13O+
185.0964	178	C13H13O+
187.1116	42	C13H15O+
199.1116	48	C14H15O+
211.1108	36	C15H15O+
223.1122	52	C16H15O+
