Mass spectrum: Sulfamethazine; LC-ESI-ITFT; MS2; CE: 75%; R=15000; [M+H]+
Name: Sulfamethazine
Name: 4-amino-N-(4,6-dimethylpyrimidin-2-yl)benzenesulfonamide
Name: 4-amino-N-(4,6-dimethyl-2-pyrimidinyl)benzenesulfonamide
Formula: C12H14N4O2S
Exact mass: 278.0837
SMILES: c1(S(Nc2nc(cc(n2)C)C)(=O)=O)ccc(N)cc1
InChI: InChI=1S/C12H14N4O2S/c1-8-7-9(2)15-12(14-8)16-19(17,18)11-5-3-10(13)4-6-11/h3-7H,13H2,1-2H3,(H,14,15,16)
Instrument: LTQ Orbitrap XL Thermo Scientific
Instrument type: LC-ESI-ITFT
Ms type: MS2
Ion mode: POSITIVE
Ionization: ESI
Fragmentation mode: HCD
Collision energy: 75 % (nominal)
Resolution: 15000
Column name: XBridge C18 3.5um, 2.1x50mm, Waters
Retention time: 3.9 min
Base peak: 279.0918
Precursor m/z: 279.091
Precursor type: [M+H]+
m/z	relative intensity	assigned
65.0386	320	C5H5+
68.0494	99	C4H6N+
80.0495	35	C5H6N+
81.0447	33	C4H5N2+
92.0495	740	C6H6N+
93.0575	29	C6H7N+
95.0604	122	C5H7N2+
96.0683	31	C5H8N2+
107.0603	28	C6H7N2+
108.0444	831	C6H6NO+
110.06	48	C6H8NO+
122.0712	32	C6H8N3+
123.0794	33	C6H9N3+
124.0869	999	C6H10N3+
125.0708	36	C6H9N2O+
149.0235	39	C8H5O3+
156.011	24	C6H6NO2S+
186.0337	41	C6H8N3O2S+
204.0428	15	C12H4N4+
213.1132	54	C12H13N4+
