Mass spectrum: Doxycycline; LC-ESI-QFT; MS2; CE: 45; R=35000; [M-H]-
Name: Doxycycline
Name: 8-carbamoyl-10-(dimethylazaniumyl)-4,6a,7,11-tetrahydroxy-12-methyl-6,9-dioxo-10a,11,11a,12-tetrahydro-10H-tetracen-5-olate
Formula: C22H24N2O8
Exact mass: 444.15327
SMILES: CC1C2C(C3C(C(=O)C(=C(C3(C(=O)C2=C(C4=C1C=CC=C4O)O)O)O)C(=O)N)N(C)C)O
InChI: InChI=1S/C22H24N2O8/c1-7-8-5-4-6-9(25)11(8)16(26)12-10(7)17(27)14-15(24(2)3)18(28)13(21(23)31)20(30)22(14,32)19(12)29/h4-7,10,14-15,17,25-27,30,32H,1-3H3,(H2,23,31)
Instrument: Q Exactive Plus Orbitrap Thermo Scientific
Instrument type: LC-ESI-QFT
Ms type: MS2
Ion mode: NEGATIVE
Ionization: ESI
Fragmentation mode: HCD
Collision energy: 45 (nominal)
Resolution: 35000
Column name: XBridge C18 3.5um, 2.1x50mm, Waters
Retention time: 6.3 min
Base peak: 443.1457
Precursor m/z: 443.146
Precursor type: [M-H]-
m/z	relative intensity	assigned
58.0298	1	C2H4NO-
63.024	2	C5H3-
65.0032	1	C4HO-
65.0396	1	C5H5-
65.9986	10	C3NO-
67.0189	1	C4H3O-
68.0141	1	C3H2NO-
68.9983	9	C3HO2-
69.0346	4	C4H5O-
71.0139	4	C3H3O2-
72.9933	1	C2HO3-
79.0189	1	C5H3O-
80.0266	1	C5H4O-
81.0346	4	C5H5O-
83.0139	6	C4H3O2-
83.0503	1	C5H7O-
84.009	31	C3H2NO2-
85.0295	4	C4H5O2-
86.0247	3	C3H4NO2-
91.019	1	C6H3O-
93.0345	11	C6H5O-
94.0299	1	C5H4NO-
95.0138	78	C5H3O2-
96.009	6	C4H2NO2-
96.0217	1	C5H4O2-
96.0455	1	C5H6NO-
96.993	17	C4HO3-
97.0294	15	C5H5O2-
99.0088	13	C4H3O3-
100.0768	8	C5H10NO-
102.056	1	C4H8NO2-
107.0138	8	C6H3O2-
107.0503	3	C7H7O-
108.0217	17	C6H4O2-
109.0295	85	C6H5O2-
110.0611	5	C6H8NO-
111.0087	10	C5H3O3-
112.0405	5	C5H6NO2-
112.0768	1	C6H10NO-
117.0345	1	C8H5O-
119.0138	46	C7H3O2-
119.0502	25	C8H7O-
120.0218	5	C7H4O2-
121.0293	3	C7H5O2-
121.0533	1	C7H7NO-
121.0659	17	C8H9O-
122.0373	1	C7H6O2-
123.0088	43	C6H3O3-
124.0165	24	C6H4O3-
124.0404	1	C6H6NO2-
124.0769	3	C7H10NO-
124.9881	19	C5HO4-
125.0244	17	C6H5O3-
125.072	57	C6H9N2O-
126.0195	7	C5H4NO3-
126.0561	45	C6H8NO2-
134.0248	24	C7H4NO2-
135.0088	78	C7H3O3-
135.0453	4	C8H7O2-
136.0166	3	C7H4O3-
136.0403	4	C7H6NO2-
136.0767	15	C8H10NO-
136.988	4	C6HO4-
137.0244	36	C7H5O3-
137.0481	6	C7H7NO2-
138.0195	4	C6H4NO3-
138.0323	10	C7H6O3-
138.056	18	C7H8NO2-
138.0925	1	C8H12NO-
139.015	11	C5H3N2O3-
139.0274	1	C6H5NO3-
140.0355	10	C6H6NO3-
140.0718	14	C7H10NO2-
141.0193	11	C6H5O4-
141.0667	3	C6H9N2O2-
142.0145	77	C5H4NO4-
142.9985	57	C5H3O5-
143.0826	12	C6H11N2O2-
146.0374	1	C9H6O2-
147.0451	28	C9H7O2-
149.0121	3	C7H3NO3-
149.0237	1	C8H5O3-
149.0481	6	C8H7NO2-
149.0607	19	C9H9O2-
150.0197	36	C7H4NO3-
151.0038	11	C7H3O4-
151.0276	5	C7H5NO3-
152.0115	3	C7H4O4-
152.0353	55	C7H6NO3-
152.0717	32	C8H10NO2-
153.0196	7	C7H5O4-
153.0434	1	C7H7NO3-
154.0384	12	C6H6N2O3-
154.0874	10	C8H12NO2-
157.0659	5	C11H9O-
158.0371	5	C10H6O2-
159.0451	17	C10H7O2-
159.0815	19	C11H11O-
161.0245	15	C9H5O3-
161.0608	19	C10H9O2-
162.0197	12	C8H4NO3-
163.0038	55	C8H3O4-
163.0275	8	C8H5NO3-
163.0765	5	C10H11O2-
164.0117	21	C8H4O4-
164.0355	5	C8H6NO3-
164.0592	3	C8H8N2O2-
164.0717	29	C9H10NO2-
165.0193	1	C8H5O4-
165.0432	4	C8H7NO3-
166.0146	1	C7H4NO4-
166.0511	1	C8H8NO3-
167.0224	14	C7H5NO4-
167.0463	4	C7H7N2O3-
168.0303	46	C7H6NO4-
168.0666	52	C8H10NO3-
169.0142	1	C7H5O5-
169.0254	19	C6H5N2O4-
169.0616	23	C7H9N2O3-
171.0454	1	C11H7O2-
171.0818	5	C12H11O-
172.0529	15	C11H8O2-
173.0607	288	C11H9O2-
174.0323	1	C10H6O3-
175.0403	1	C10H7O3-
175.0765	3	C11H11O2-
177.0304	5	C8H5N2O3-
177.0669	1	C9H9N2O2-
178.0145	21	C8H4NO4-
178.0508	3	C9H8NO3-
178.9987	10	C8H3O5-
179.0826	8	C9H11N2O2-
180.0302	26	C8H6NO4-
180.0666	31	C9H10NO3-
181.0382	9	C8H7NO4-
181.0614	8	C8H9N2O3-
182.0821	18	C9H12NO3-
185.0607	12	C12H9O2-
186.0688	10	C12H10O2-
187.04	20	C11H7O3-
187.0764	106	C12H11O2-
188.048	4	C11H8O3-
189.0563	1	C11H9O3-
189.067	4	C10H9N2O2-
189.0921	1	C12H13O2-
192.0542	8	C9H8N2O3-
194.0735	1	C14H10O-
195.041	4	C8H7N2O4-
195.0775	7	C9H11N2O3-
196.0252	10	C8H6NO5-
196.0531	22	C13H8O2-
196.0616	3	C9H10NO4-
197.0608	9	C13H9O2-
197.0927	19	C9H13N2O3-
198.0771	3	C9H12NO4-
199.0399	6	C12H7O3-
199.0764	13	C13H11O2-
200.0482	1	C12H8O3-
201.0558	25	C12H9O3-
201.0924	4	C13H13O2-
203.0715	47	C12H11O3-
204.0422	1	C11H8O4-
207.0774	36	C10H11N2O3-
208.0611	7	C10H10NO4-
209.0608	13	C14H9O2-
210.0687	21	C14H10O2-
211.0403	15	C13H7O3-
211.0765	70	C14H11O2-
212.0479	8	C13H8O3-
213.0556	18	C13H9O3-
213.0919	13	C14H13O2-
214.0273	7	C12H6O4-
214.0638	4	C13H10O3-
215.0346	1	C12H7O4-
215.0714	5	C13H11O3-
217.0506	246	C12H9O4-
218.0588	1	C12H10O4-
219.0813	3	C16H11O-
221.0614	1	C15H9O2-
221.0974	6	C16H13O-
222.0686	5	C15H10O2-
223.0767	30	C15H11O2-
224.048	19	C14H8O3-
224.0843	3	C15H12O2-
225.056	18	C14H9O3-
225.0922	32	C15H13O2-
226.0635	12	C14H10O3-
226.0728	3	C10H12NO5-
226.0875	1	C14H12NO2-
227.0351	3	C13H7O4-
227.0714	43	C14H11O3-
229.0506	51	C13H9O4-
229.087	27	C14H13O3-
231.0665	7	C13H11O4-
232.0523	1	C16H8O2-
233.0607	3	C16H9O2-
234.0686	12	C16H10O2-
235.0765	9	C16H11O2-
236.0472	6	C15H8O3-
237.056	13	C15H9O3-
237.0921	20	C16H13O2-
238.0635	17	C15H10O3-
238.0874	3	C15H12NO2-
239.0714	70	C15H11O3-
240.0429	610	C14H8O4-
241.0509	12	C14H9O4-
241.0871	97	C15H13O3-
243.1026	7	C15H15O3-
244.0377	1	C13H8O5-
247.0762	17	C17H11O2-
248.0479	3	C16H8O3-
248.0719	7	C16H10NO2-
248.0839	1	C17H12O2-
249.0554	10	C16H9O3-
249.0918	14	C17H13O2-
250.0635	23	C16H10O3-
251.0713	42	C16H11O3-
252.0427	1	C15H8O4-
252.0669	1	C15H10NO3-
252.0792	5	C16H12O3-
252.103	3	C16H14NO2-
253.0515	8	C15H9O4-
253.0869	21	C16H13O3-
254.0583	20	C15H10O4-
255.0664	999	C15H11O4-
256.0979	3	C15H14NO3-
256.1343	3	C16H18NO2-
257.0459	12	C14H9O5-
257.0817	14	C15H13O4-
258.1139	1	C15H16NO3-
258.15	11	C16H20NO2-
260.0475	13	C17H8O3-
261.0555	12	C17H9O3-
262.0873	5	C17H12NO2-
263.0712	18	C17H11O3-
264.0428	7	C16H8O4-
264.0787	2	C17H12O3-
264.1029	4	C17H14NO2-
265.0502	3	C16H9O4-
265.087	50	C17H13O3-
266.0584	4	C16H10O4-
266.0952	5	C17H14O3-
267.0663	34	C16H11O4-
267.1029	4	C17H15O3-
268.0741	1	C16H12O4-
268.0979	3	C16H14NO3-
268.1345	12	C17H18NO2-
269.0819	68	C16H13O4-
270.1132	1	C16H16NO3-
270.1491	3	C17H20NO2-
271.0616	1	C15H11O5-
271.0976	5	C16H15O4-
273.0769	148	C15H13O5-
275.0715	32	C18H11O3-
276.0427	4	C17H8O4-
276.0653	1	C17H10NO3-
276.0795	4	C18H12O3-
276.1036	1	C18H14NO2-
277.0505	18	C17H9O4-
277.0867	4	C18H13O3-
277.1104	1	C18H15NO2-
278.0585	28	C17H10O4-
278.0823	2	C17H12NO3-
278.1188	9	C18H16NO2-
279.0661	26	C17H11O4-
280.0379	3	C16H8O5-
280.0745	1	C17H12O4-
280.0978	14	C17H14NO3-
281.082	32	C17H13O4-
281.1053	11	C17H15NO3-
282.0533	4	C16H10O5-
282.0765	1	C16H12NO4-
282.1135	4	C17H16NO3-
283.097	10	C17H15O4-
284.1291	11	C17H18NO3-
285.0768	18	C16H13O5-
286.1445	4	C17H20NO3-
288.067	1	C18H10NO3-
290.0222	20	C17H6O5-
290.0822	11	C18H12NO3-
291.0664	30	C18H11O4-
292.037	1	C17H8O5-
292.0746	10	C18H12O4-
292.0976	1	C18H14NO3-
292.1341	5	C19H18NO2-
293.0459	4	C17H9O5-
293.0821	45	C18H13O4-
294.0537	3	C17H10O5-
294.0899	11	C18H14O4-
294.1142	9	C18H16NO3-
294.1499	7	C19H20NO2-
295.061	14	C17H11O5-
295.0977	2	C18H15O4-
296.093	1	C17H14NO4-
296.1292	32	C18H18NO3-
297.0768	41	C17H13O5-
300.1244	7	C17H18NO4-
304.0372	1	C18H8O5-
304.0614	4	C18H10NO4-
304.0976	1	C19H14NO3-
305.0454	25	C18H9O5-
305.1051	7	C19H15NO3-
306.0761	6	C18H12NO4-
307.0612	5	C18H11O5-
308.093	17	C18H14NO4-
308.1294	6	C19H18NO3-
309.0767	30	C18H13O5-
310.145	26	C19H20NO3-
311.0928	7	C18H15O5-
312.1242	10	C18H18NO4-
313.0722	1	C17H13O6-
314.1395	1	C18H20NO4-
318.0772	4	C19H12NO4-
318.1138	2	C20H16NO3-
319.0621	9	C19H11O5-
320.0695	4	C19H12O5-
320.1285	6	C20H18NO3-
321.0629	1	C18H11NO5-
321.1008	3	C19H15NO4-
322.0485	11	C18H10O6-
322.1093	3	C19H16NO4-
323.1178	3	C19H17NO4-
324.0874	1	C18H14NO5-
326.1037	1	C18H16NO5-
326.1396	15	C19H20NO4-
328.156	5	C19H22NO4-
334.072	4	C19H12NO5-
335.0555	3	C19H11O6-
335.1397	1	C20H19N2O3-
336.0874	3	C19H14NO5-
336.1241	18	C20H18NO4-
337.0722	8	C19H13O6-
337.095	1	C19H15NO5-
338.0799	3	C19H14O6-
338.1401	13	C20H20NO4-
340.1191	11	C19H18NO5-
349.0963	1	C20H15NO5-
353.1509	4	C20H21N2O4-
354.1349	15	C20H20NO5-
356.1501	1	C20H22NO5-
358.1297	341	C19H20NO6-
362.068	1	C20H12NO6-
363.0506	1	C20H11O7-
364.1194	1	C21H18NO5-
371.1619	4	C20H23N2O5-
382.1298	6	C21H20NO6-
400.1405	2	C21H22NO7-
408.1088	4	C22H18NO7-
