Mass spectrum: Olopatadine; LC-ESI-QFT; MS2; CE: 45; R=35000; [M+H]+
Name: Olopatadine
Name: 2-[(11Z)-11-[3-(dimethylazaniumyl)propylidene]-6H-benzo[c][1]benzoxepin-2-yl]acetate
Formula: C21H23NO3
Exact mass: 337.16779
SMILES: CN(C)CC/C=C\1/C2=CC=CC=C2COC3=C1C=C(C=C3)CC(=O)O
InChI: InChI=1S/C21H23NO3/c1-22(2)11-5-8-18-17-7-4-3-6-16(17)14-25-20-10-9-15(12-19(18)20)13-21(23)24/h3-4,6-10,12H,5,11,13-14H2,1-2H3,(H,23,24)/b18-8-
Instrument: Q Exactive Orbitrap Thermo Scientific
Instrument type: LC-ESI-QFT
Ms type: MS2
Ion mode: POSITIVE
Ionization: ESI
Fragmentation mode: HCD
Collision energy: 45 (nominal)
Resolution: 35000
Column name: XBridge C18 3.5um, 2.1x50mm, Waters
Retention time: 7.1 min
Base peak: 338.1752
Precursor m/z: 338.1751
Precursor type: [M+H]+
m/z	relative intensity	assigned
58.0652	317	C3H8N+
70.0651	63	C4H8N+
71.0729	5	C4H9N+
72.0807	17	C4H10N+
77.0383	2	C6H5+
81.0334	1	C5H5O+
81.0697	2	C6H9+
82.065	6	C5H8N+
84.0807	476	C5H10N+
85.0885	61	C5H11N+
86.0964	1	C5H12N+
91.0542	134	C7H7+
93.0699	21	C7H9+
95.0492	10	C6H7O+
103.0541	1	C8H7+
105.0447	1	C6H5N2+
105.0699	10	C8H9+
107.0492	4	C7H7O+
109.0648	23	C7H9O+
114.0913	1	C6H12NO+
115.0542	119	C9H7+
117.0698	263	C9H9+
119.0491	22	C8H7O+
120.0568	1	C8H8O+
121.0648	14	C8H9O+
123.044	106	C7H7O2+
128.0619	8	C10H8+
129.0698	109	C10H9+
131.0491	28	C9H7O+
131.0855	2	C10H11+
135.0441	4	C8H7O2+
137.0597	158	C8H9O2+
141.0698	234	C11H9+
142.0778	20	C11H10+
143.0856	24	C11H11+
145.0647	4	C10H9O+
147.0439	5	C9H7O2+
149.0597	11	C9H9O2+
153.0699	1	C12H9+
155.0851	1	C12H11+
157.0649	5	C11H9O+
158.0967	2	C11H12N+
159.0804	1	C11H11O+
161.0597	14	C10H9O2+
165.0546	999	C9H9O3+
166.0771	1	C13H10+
167.0855	2	C13H11+
169.0646	9	C12H9O+
171.1044	4	C12H13N+
172.1122	3	C12H14N+
173.1199	29	C12H15N+
174.128	2	C12H16N+
177.0544	5	C10H9O3+
178.0773	14	C14H10+
179.0699	4	C10H11O3+
179.0855	75	C14H11+
181.1013	4	C14H13+
185.1201	1	C13H15N+
186.1279	15	C13H16N+
187.0754	5	C12H11O2+
189.0546	20	C11H9O3+
190.0773	2	C15H10+
191.0854	26	C15H11+
192.093	1	C15H12+
193.1011	29	C15H13+
195.0801	1	C14H11O+
202.0774	6	C16H10+
203.0853	23	C16H11+
204.0934	39	C16H12+
205.0647	10	C15H9O+
205.1012	50	C16H13+
206.0731	10	C15H10O+
206.1088	1	C16H14+
207.0804	45	C15H11O+
207.1172	2	C16H15+
208.0881	3	C15H12O+
208.097	9	C11H14NO3+
209.0962	7	C15H13O+
215.0701	5	C13H11O3+
215.0855	24	C17H11+
216.0936	5	C17H12+
217.1013	21	C17H13+
218.0725	8	C16H10O+
218.109	1	C17H14+
219.0805	85	C16H11O+
219.1168	120	C17H15+
220.0882	2	C16H12O+
221.0961	169	C16H13O+
223.0756	7	C15H11O2+
223.1113	2	C16H15O+
225.091	2	C15H13O2+
228.093	8	C18H12+
229.1012	173	C18H13+
230.109	4	C18H14+
231.0803	31	C17H11O+
231.1171	5	C18H15+
232.0883	208	C17H12O+
233.0961	47	C17H13O+
234.1039	109	C17H14O+
235.1115	2	C17H15O+
236.0824	1	C16H12O2+
237.0907	1	C16H13O2+
239.0852	1	C19H11+
245.0968	9	C18H13O+
246.1042	6	C18H14O+
247.1118	973	C18H15O+
249.0916	9	C17H13O2+
249.127	17	C18H17O+
252.0781	40	C16H12O3+
253.0859	94	C16H13O3+
257.0964	6	C19H13O+
265.086	11	C17H13O3+
265.1219	4	C18H17O2+
267.1015	1	C17H15O3+
275.1065	4	C19H15O2+
277.123	1	C19H17O2+
278.0936	6	C18H14O3+
293.1172	64	C19H17O3+
308.1284	4	C19H18NO3+
338.175	259	C21H24NO3+
