Mass spectrum: Albendazole; LC-ESI-QFT; MS2; CE: 120; R=35000; [M+H]+
Name: Albendazole
Name: Methyl N-(6-propylsulfanyl-1H-benzimidazol-2-yl)carbamate
Formula: C12H15N3O2S
Exact mass: 265.08850
SMILES: CCCSC1=CC2=C(C=C1)N=C(N2)NC(=O)OC
InChI: InChI=1S/C12H15N3O2S/c1-3-6-18-8-4-5-9-10(7-8)14-11(13-9)15-12(16)17-2/h4-5,7H,3,6H2,1-2H3,(H2,13,14,15,16)
Instrument: Q Exactive Plus Orbitrap Thermo Scientific
Instrument type: LC-ESI-QFT
Ms type: MS2
Ion mode: POSITIVE
Ionization: ESI
Fragmentation mode: HCD
Collision energy: 120 (nominal)
Resolution: 35000
Column name: XBridge C18 3.5um, 2.1x50mm, Waters
Retention time: 7.8 min
Base peak: 266.0953
Precursor m/z: 266.0958
Precursor type: [M+H]+
m/z	relative intensity	assigned
50.0151	4	C4H2+
51.023	2	C4H3+
52.0181	4	C3H2N+
52.0307	4	C4H4+
53.0022	2	C3HO+
53.026	3	C3H3N+
54.0339	5	C3H4N+
57.9872	7	C2H2S+
58.9824	2	CHNS+
59.9903	4	CH2NS+
63.0228	5	C5H3+
64.018	6	C4H2N+
64.0307	1	C5H4+
65.026	6	C4H3N+
65.0386	4	C5H5+
66.0464	6	C5H6+
67.0417	8	C4H5N+
68.9793	12	C3HS+
69.0083	15	C2HN2O+
69.9872	32	C3H2S+
70.9825	1	C2HNS+
70.995	2	C3H3S+
71.9665	1	C2OS+
71.9903	2	C2H2NS+
76.0182	13	C5H2N+
77.026	123	C5H3N+
78.0339	24	C5H4N+
79.029	7	C4H3N2+
79.0417	76	C5H5N+
80.0369	6	C4H4N2+
80.0495	7	C5H6N+
81.9872	16	C4H2S+
82.0288	3	C4H4NO+
82.9824	9	C3HNS+
83.9903	10	C3H2NS+
84.0028	2	C4H4S+
84.9854	1	C2HN2S+
84.9981	5	C3H3NS+
85.9821	4	C3H2OS+
90.0339	25	C6H4N+
91.0417	9	C6H5N+
92.037	163	C5H4N2+
92.9794	5	C5HS+
93.0449	13	C5H5N2+
93.9873	45	C5H2S+
94.0527	6	C5H6N2+
94.9824	2	C4HNS+
94.9951	20	C5H3S+
95.0366	17	C5H5NO+
95.9904	4	C4H2NS+
96.0029	83	C5H4S+
96.0444	18	C5H6NO+
96.9982	9	C4H3NS+
97.0108	7	C5H5S+
97.0523	7	C5H7NO+
103.0291	24	C6H3N2+
103.0417	45	C7H5N+
104.0369	340	C6H4N2+
105.0448	72	C6H5N2+
106.0289	1	C6H4NO+
106.04	1	C5H4N3+
106.0526	16	C6H6N2+
108.0028	2	C6H4S+
108.9982	176	C5H3NS+
109.9934	14	C4H2N2S+
110.0059	19	C5H4NS+
110.0474	1	C5H6N2O+
111.0138	18	C5H5NS+
112.0215	5	C5H6NS+
114.0009	2	C4H4NOS+
116.0369	8	C7H4N2+
117.0447	1	C7H5N2+
118.04	3	C6H4N3+
118.0526	12	C7H6N2+
119.0479	473	C6H5N3+
119.9904	10	C6H2NS+
120.032	8	C6H4N2O+
120.0557	31	C6H6N3+
120.9982	184	C6H3NS+
122.006	167	C6H4NS+
123.0138	56	C6H5NS+
123.9853	6	C5H2NOS+
124.0216	1	C6H6NS+
127.9927	3	C5H4O2S+
130.0401	128	C7H4N3+
131.0479	648	C7H5N3+
132.0319	5	C7H4N2O+
132.0557	25	C7H6N3+
133.0635	32	C7H7N3+
134.035	1	C6H4N3O+
134.0474	7	C7H6N2O+
134.0711	6	C7H8N3+
135.0011	25	C6H3N2S+
136.0091	499	C6H4N2S+
136.0266	29	C6H4N2O2+
136.9931	8	C6H3NOS+
137.0169	42	C6H5N2S+
138.0249	3	C6H6N2S+
146.0349	6	C7H4N3O+
146.0712	6	C8H8N3+
147.0428	110	C7H5N3O+
148.009	13	C7H4N2S+
148.0509	1	C7H6N3O+
149.017	21	C7H5N2S+
150.0246	8	C7H6N2S+
152.9882	8	C6H3NO2S+
158.0351	72	C8H4N3O+
159.0428	999	C8H5N3O+
160.0507	27	C8H6N3O+
162.0121	53	C7H4N3S+
163.02	316	C7H5N3S+
164.0039	8	C7H4N2OS+
164.0277	47	C7H6N3S+
164.9993	2	C6H3N3OS+
165.0118	4	C7H5N2OS+
165.0358	5	C7H7N3S+
166.0197	6	C7H6N2OS+
176.0276	1	C8H6N3S+
186.0413	1	C8H4N5O+
190.007	53	C8H4N3OS+
191.0149	306	C8H5N3OS+
192.0226	11	C8H6N3OS+
204.0227	6	C9H6N3OS+
