Mass spectrum: Eprosartan; LC-ESI-ITFT; MS2; CE: 75%; R=7500; [M+H]+
Name: Eprosartan
Name: 4-[[2-butyl-5-[(E)-3-hydroxy-3-keto-2-(2-thenyl)prop-1-enyl]imidazol-1-yl]methyl]benzoic acid
Formula: C23H24N2O4S
Exact mass: 424.1457
SMILES: CCCCC1=NC=C(N1CC2=CC=C(C=C2)C(=O)O)/C=C(\CC3=CC=CS3)/C(=O)O
InChI: InChI=1S/C23H24N2O4S/c1-2-3-6-21-24-14-19(12-18(23(28)29)13-20-5-4-11-30-20)25(21)15-16-7-9-17(10-8-16)22(26)27/h4-5,7-12,14H,2-3,6,13,15H2,1H3,(H,26,27)(H,28,29)/b18-12+
Instrument: LTQ Orbitrap XL Thermo Scientific
Instrument type: LC-ESI-ITFT
Ms type: MS2
Ion mode: POSITIVE
Ionization: ESI
Fragmentation mode: HCD
Collision energy: 75 % (nominal)
Resolution: 7500
Column name: XBridge C18 3.5um, 2.1x50mm, Waters
Retention time: 6.3 min
Base peak: 425.154
Precursor m/z: 425.153
Precursor type: [M+H]+
m/z	relative intensity	assigned
77.0385	11	C6H5+
78.0338	60	C5H4N+
79.0543	16	C6H7+
80.0495	102	C5H6N+
84.0808	16	C5H10N+
91.0539	14	C7H7+
97.0106	101	C5H5S+
106.0286	26	C6H4NO+
107.0491	999	C7H7O+
119.0603	33	C7H7N2+
120.068	57	C7H8N2+
135.0264	29	C8H7S+
135.044	471	C8H7O2+
153.1025	16	C8H13N2O+
161.0294	42	C9H7NS+
162.0369	44	C9H8NS+
163.1227	80	C10H15N2+
164.0581	24	C8H8N2O2+
169.0763	10	C11H9N2+
174.0373	55	C10H8NS+
201.048	117	C11H9N2S+
202.056	40	C11H10N2S+
207.1122	25	C11H15N2O2+
215.0643	16	C12H11N2S+
