Mass spectrum: Metalaxyl-M-TP CGA108906; LC-ESI-QFT; MS2; CE: 15%; R=17500; [M-H]-
Name: Metalaxyl-M-TP CGA108906
Name: 2-[1-carboxyethyl-(2-methoxyacetyl)amino]-3-methylbenzoic acid
Formula: C14H17NO6
Exact mass: 295.1056
SMILES: COCC(=O)N(C(C)C(O)=O)C1=C(C=CC=C1C)C(O)=O
InChI: InChI=1S/C14H17NO6/c1-8-5-4-6-10(14(19)20)12(8)15(9(2)13(17)18)11(16)7-21-3/h4-6,9H,7H2,1-3H3,(H,17,18)(H,19,20)
Instrument: Q Exactive Plus Orbitrap Thermo Scientific
Instrument type: LC-ESI-QFT
Ms type: MS2
Ion mode: NEGATIVE
Ionization: ESI
Fragmentation mode: HCD
Collision energy: 15 % (nominal)
Resolution: 17500
Column name: XBridge C18 3.5um, 2.1x50mm, Waters
Retention time: 5.743 min
Base peak: 294.0983
Precursor m/z: 294.0983
Precursor type: [M-H]-
m/z	relative intensity	assigned
89.0245	357	C3H5O3-
106.0662	14	C7H8N-
107.0504	3	C7H7O-
130.066	4	C9H8N-
142.051	2	C6H8NO3-
145.0526	12	C9H7NO-
160.0768	132	C10H10NO-
174.0563	14	C10H8NO2-
176.0715	101	C10H10NO2-
178.0871	29	C10H12NO2-
186.056	6	C11H8NO2-
191.0954	8	C11H13NO2-
204.0666	999	C11H10NO3-
206.1183	2	C12H16NO2-
250.1086	61	C13H16NO4-
294.0982	198	C14H16NO6-
