Mass spectrum: Risperidone; LC-ESI-QFT; MS2; CE: 45; R=35000; [M+H]+
Name: Risperidone
Name: 3-[2-[4-(6-fluoro-1,2-benzoxazol-3-yl)piperidin-1-yl]ethyl]-2-methyl-6,7,8,9-tetrahydropyrido[1,2-a]pyrimidin-4-one
Formula: C23H27FN4O2
Exact mass: 410.21180
SMILES: CC1=C(C(=O)N2CCCCC2=N1)CCN3CCC(CC3)C4=NOC5=C4C=CC(=C5)F
InChI: InChI=1S/C23H27FN4O2/c1-15-18(23(29)28-10-3-2-4-21(28)25-15)9-13-27-11-7-16(8-12-27)22-19-6-5-17(24)14-20(19)30-26-22/h5-6,14,16H,2-4,7-13H2,1H3
Instrument: Q Exactive Plus Orbitrap Thermo Scientific
Instrument type: LC-ESI-QFT
Ms type: MS2
Ion mode: POSITIVE
Ionization: ESI
Fragmentation mode: HCD
Collision energy: 45 (nominal)
Resolution: 35000
Column name: XBridge C18 3.5um, 2.1x50mm, Waters
Retention time: 5.4 min
Base peak: 411.2187
Precursor m/z: 411.2191
Precursor type: [M+H]+
m/z	relative intensity	assigned
55.0541	1	C4H7+
69.0334	1	C4H5O+
82.0648	2	FH7N4+
110.06	5	C6H8NO+
148.1119	1	C5H13FN4+
163.1227	2	C10H15N2+
191.1177	999	C11H15N2O+
411.2195	3	C23H28FN4O2+
