Mass spectrum: Pheniramine; LC-ESI-QFT; MS2; CE: 75; R=35000; [M+H]+
Name: Pheniramine
Name: N,N-dimethyl-3-phenyl-3-pyridin-2-ylpropan-1-amine
Formula: C16H20N2
Exact mass: 240.16265
SMILES: CN(C)CCC(C1=CC=CC=C1)C2=CC=CC=N2
InChI: InChI=1S/C16H20N2/c1-18(2)13-11-15(14-8-4-3-5-9-14)16-10-6-7-12-17-16/h3-10,12,15H,11,13H2,1-2H3
Instrument: Q Exactive Plus Orbitrap Thermo Scientific
Instrument type: LC-ESI-QFT
Ms type: MS2
Ion mode: POSITIVE
Ionization: ESI
Fragmentation mode: HCD
Collision energy: 75 (nominal)
Resolution: 35000
Column name: XBridge C18 3.5um, 2.1x50mm, Waters
Retention time: 3.7 min
Base peak: 241.1697
Precursor m/z: 241.1699
Precursor type: [M+H]+
m/z	relative intensity	assigned
65.0385	5	C5H5+
80.0494	3	C5H6N+
91.0542	163	C7H7+
92.0494	5	C6H6N+
93.0573	1	C6H7N+
94.0651	2	C6H8N+
103.0542	2	C8H7+
110.0601	14	C6H8NO+
115.0542	2	C9H7+
117.0573	36	C8H7N+
117.0698	1	C9H9+
118.0651	116	C8H8N+
119.073	30	C8H9N+
129.0697	2	C10H9+
141.0699	1	C11H9+
167.073	647	C12H9N+
168.0808	999	C12H10N+
180.0807	16	C13H10N+
181.0886	17	C13H11N+
193.0885	2	C14H11N+
194.0965	41	C14H12N+
195.1043	13	C14H13N+
196.1121	934	C14H14N+
