Mass spectrum: Pyrazophos; LC-ESI-QFT; MS2; CE: 15%; R=17500; [M+H]+
Name: Pyrazophos
Name: ethyl 2-diethoxyphosphinothioyloxy-5-methylpyrazolo[1,5-a]pyrimidine-6-carboxylate
Formula: C14H20N3O5PS
Exact mass: 373.0861
SMILES: CCOC(=O)C1=CN2C(=CC(=N2)OP(=S)(OCC)OCC)N=C1C
InChI: InChI=1S/C14H20N3O5PS/c1-5-19-14(18)11-9-17-12(15-10(11)4)8-13(16-17)22-23(24,20-6-2)21-7-3/h8-9H,5-7H2,1-4H3
Instrument: Exploris 240 Orbitrap Thermo Scientific
Instrument type: LC-ESI-QFT
Ms type: MS2
Ion mode: POSITIVE
Ionization: ESI
Fragmentation mode: HCD
Collision energy: 15 % (nominal)
Resolution: 17500
Column name: XBridge C18 3.5um, 2.1x50mm, Waters
Retention time: 11.575 min
Base peak: 374.0932
Precursor m/z: 374.0934
Precursor type: [M+H]+
m/z	relative intensity	assigned
222.0876	12	C10H12N3O3+
238.0648	2	C10H12N3O2S+
346.0618	22	C12H17N3O5PS+
374.0933	999	C14H21N3O5PS+
