Mass spectrum: 4-Aminoantipyrine; LC-ESI-ITFT; MS2; CE: 45%; R=15000; [M+H]+
Name: 4-Aminoantipyrine
Name: 4-amino-1,5-dimethyl-2-phenyl-3-pyrazolin-3-one
Formula: C11H13N3O
Exact mass: 203.1059
SMILES: c(ccc1N(N(C=2C)C)C(=O)C2N)cc1
InChI: InChI=1S/C11H13N3O/c1-8-10(12)11(15)14(13(8)2)9-6-4-3-5-7-9/h3-7H,12H2,1-2H3
Instrument: LTQ Orbitrap XL Thermo Scientific
Instrument type: LC-ESI-ITFT
Ms type: MS2
Ion mode: POSITIVE
Ionization: ESI
Fragmentation mode: HCD
Collision energy: 45 % (nominal)
Resolution: 15000
Column name: XBridge C18 3.5um, 2.1x50mm, Waters
Retention time: 2.6 min
Base peak: 204.1138
Precursor m/z: 204.1131
Precursor type: [M+H]+
m/z	relative intensity	assigned
56.0495	999	C3H6N+
58.0651	24	C3H8N+
68.0495	17	C4H6N+
77.0385	10	C6H5+
83.0604	277	C4H7N2+
85.076	172	C4H9N2+
94.0651	357	C6H8N+
104.0495	66	C7H6N+
106.0652	6	C7H8N+
111.0553	45	C5H7N2O+
118.0652	24	C8H8N+
122.0601	4	C7H8NO+
128.0494	5	C9H6N+
130.065	13	C9H8N+
132.0444	7	C8H6NO+
132.081	6	C9H10N+
145.0761	52	C9H9N2+
146.06	149	C9H8NO+
158.06	41	C10H8NO+
159.0917	283	C10H11N2+
173.071	55	C10H9N2O+
185.0709	8	C11H9N2O+
187.0865	203	C11H11N2O+
189.0897	85	C10H11N3O+
204.113	325	C11H14N3O+
