Mass spectrum: Chlorfluazuron; LC-ESI-QFT; MS2; CE: 45%; R=17500; [M-H]-
Name: Chlorfluazuron
Name: N-[[3,5-dichloro-4-[3-chloro-5-(trifluoromethyl)pyridin-2-yl]oxyphenyl]carbamoyl]-2,6-difluorobenzamide
Formula: C20H9Cl3F5N3O3
Exact mass: 538.9630
SMILES: C1=CC(=C(C(=C1)F)C(=O)NC(=O)NC2=CC(=C(C(=C2)Cl)OC3=C(C=C(C=N3)C(F)(F)F)Cl)Cl)F
InChI: InChI=1S/C20H9Cl3F5N3O3/c21-10-5-9(30-19(33)31-17(32)15-13(24)2-1-3-14(15)25)6-11(22)16(10)34-18-12(23)4-8(7-29-18)20(26,27)28/h1-7H,(H2,30,31,32,33)
Instrument: Exploris 240 Orbitrap Thermo Scientific
Instrument type: LC-ESI-QFT
Ms type: MS2
Ion mode: NEGATIVE
Ionization: ESI
Fragmentation mode: HCD
Collision energy: 45 % (nominal)
Resolution: 17500
Column name: XBridge C18 3.5um, 2.1x50mm, Waters
Retention time: 15.232 min
Base peak: 537.9557
Precursor m/z: 537.9557
Precursor type: [M-H]-
m/z	relative intensity	assigned
93.0146	15	C6H2F-
113.0209	167	C6H3F2-
136.0202	18	C7H3FNO-
174.9598	999	C6H3Cl2NO-
179.984	39	C6H2ClF3N-
195.9782	131	C6H2ClF3NO-
199.9551	75	C7H2Cl2N2O-
318.9649	98	C12H4Cl2F3N2O-
354.9427	183	C12H5Cl3F3N2O-
379.9374	110	C16HCl2F3N2O2-
