Mass spectrum: Climbazol; LC-ESI-ITFT; MS2; CE: 60%; R=15000; [M+H]+
Name: Climbazol
Name: Climbazole
Name: 1-(4-chloranylphenoxy)-1-imidazol-1-yl-3,3-dimethyl-butan-2-one
Formula: C15H17ClN2O2
Exact mass: 292.0979
SMILES: CC(C)(C)C(=O)C(N1C=CN=C1)OC2=CC=C(C=C2)Cl
InChI: InChI=1S/C15H17ClN2O2/c1-15(2,3)13(19)14(18-9-8-17-10-18)20-12-6-4-11(16)5-7-12/h4-10,14H,1-3H3
Instrument: LTQ Orbitrap XL Thermo Scientific
Instrument type: LC-ESI-ITFT
Ms type: MS2
Ion mode: POSITIVE
Ionization: ESI
Fragmentation mode: HCD
Collision energy: 60 % (nominal)
Resolution: 15000
Column name: XBridge C18 3.5um, 2.1x50mm, Waters
Retention time: 8.1 min
Base peak: 293.1064
Precursor m/z: 293.1051
Precursor type: [M+H]+
m/z	relative intensity	assigned
55.0542	49	C4H7+
57.0699	283	C4H9+
67.0542	43	C5H7+
69.0699	999	C5H9+
70.0777	121	C5H10+
77.0386	31	C6H5+
81.0447	28	C4H5N2+
82.0525	68	C4H6N2+
91.0545	12	C7H7+
98.9996	174	C5H4Cl+
109.0396	160	C5H5N2O+
113.0152	148	C6H6Cl+
126.9945	519	C6H4ClO+
129.0101	391	C6H6ClO+
137.1072	21	C8H13N2+
139.0057	109	C6H4ClN2+
141.0102	554	C7H6ClO+
155.0258	253	C8H8ClO+
161.0956	17	C11H13O+
197.0728	118	C11H14ClO+
