Mass spectrum: Ciprofloxacin; LC-ESI-ITFT; MS2; CE: 45%; R=7500; [M+H]+
Name: Ciprofloxacin
Name: 1-cyclopropyl-6-fluoro-4-keto-7-piperazin-4-ium-1-yl-quinoline-3-carboxylate
Formula: C17H18FN3O3
Exact mass: 331.1332
SMILES: C(C1)C1N(C=C(C-2=O)C(=O)O)-c(cc(c3F)N(CCN4)CC4)c2c3
InChI: InChI=1S/C17H18FN3O3/c18-13-7-11-14(8-15(13)20-5-3-19-4-6-20)21(10-1-2-10)9-12(16(11)22)17(23)24/h7-10,19H,1-6H2,(H,23,24)
Instrument: LTQ Orbitrap XL Thermo Scientific
Instrument type: LC-ESI-ITFT
Ms type: MS2
Ion mode: POSITIVE
Ionization: ESI
Fragmentation mode: HCD
Collision energy: 45 % (nominal)
Resolution: 7500
Column name: XBridge C18 3.5um, 2.1x50mm, Waters
Retention time: 4.5 min
Base peak: 332.1415
Precursor m/z: 332.1405
Precursor type: [M+H]+
m/z	relative intensity	assigned
70.0653	8	C4H8N+
135.0486	2	C8H6FN+
136.0556	2	C8H7FN+
163.0668	3	C9H8FN2+
176.0738	2	C10H9FN2+
189.0465	2	C10H6FN2O+
189.0829	3	C11H10FN2+
191.0618	16	C10H8FN2O+
192.0691	2	C10H9FN2O+
198.066	4	C11H8N3O+
199.0749	1	C11H9N3O+
203.0619	24	C11H8FN2O+
204.0698	47	C11H9FN2O+
205.0775	43	C11H10FN2O+
212.0811	3	C12H10N3O+
213.1026	1	C13H13N2O+
216.0695	2	C12H9FN2O+
217.0782	9	C12H10FN2O+
217.1138	5	C13H14FN2+
218.0851	9	C12H11FN2O+
219.093	10	C12H12FN2O+
225.103	3	C14H13N2O+
226.0984	4	C10H13FN3O2+
227.1079	6	C12H16FO3+
229.0777	3	C13H10FN2O+
230.0856	4	C13H11FN2O+
231.0567	101	C12H8FN2O2+
231.0931	57	C13H12FN2O+
239.1064	4	C11H14FN3O2+
240.1126	5	C14H14N3O+
243.0929	2	C14H12FN2O+
245.109	438	C14H14FN2O+
252.1129	1	C15H14N3O+
257.1083	2	C15H14FN2O+
260.1195	2	C14H15FN3O+
260.1549	2	C15H19FN3+
266.1295	1	C16H16N3O+
268.1447	63	C16H18N3O+
271.0881	5	C15H12FN2O2+
271.1245	5	C16H16FN2O+
272.0829	2	C14H11FN3O2+
272.1192	2	C15H15FN3O+
273.0914	10	C16H14FO3+
286.1354	22	C16H17FN3O+
288.151	270	C16H19FN3O+
289.0982	2	C15H14FN2O3+
294.1237	28	C17H16N3O2+
312.1331	6	C17H18N3O3+
314.1303	999	C17H17FN3O2+
332.1407	330	C17H19FN3O3+
