Mass spectrum: Galaxolidone; LC-ESI-ITFT; MS2; CE: 75%; R=15000; [M+H]+
Name: Galaxolidone
Name: 1,3,4,6,7,8-Hexahydro-4,6,6,7,8,8-hexamethylcyclopenta[g]-2-benzopyran-1-on
Formula: C18H24O2
Exact mass: 272.1776
SMILES: CC2(C)c1cc3C(=O)OCC(C)c3cc1C(C)(C)C2C
InChI: InChI=1S/C18H24O2/c1-10-9-20-16(19)13-8-15-14(7-12(10)13)17(3,4)11(2)18(15,5)6/h7-8,10-11H,9H2,1-6H3
Instrument: LTQ Orbitrap XL Thermo Scientific
Instrument type: LC-ESI-ITFT
Ms type: MS2
Ion mode: POSITIVE
Ionization: ESI
Fragmentation mode: HCD
Collision energy: 75 % (nominal)
Resolution: 15000
Column name: XBridge C18 3.5um, 2.1x50mm, Waters
Retention time: 14.7 min
Base peak: 295.1677
Precursor m/z: 273.1849
Precursor type: [M+H]+
m/z	relative intensity	assigned
117.07	10	C9H9+
128.0622	14	C10H8+
129.0698	145	C10H9+
131.0855	11	C10H11+
142.0776	69	C11H10+
143.0854	22	C11H11+
155.0856	11	C12H11+
156.0931	9	C12H12+
157.0645	40	C11H9O+
157.1011	315	C12H13+
169.1012	13	C13H13+
170.1089	14	C13H14+
171.1166	29	C13H15+
175.1119	17	C12H15O+
182.1084	15	C14H14+
183.081	9	C13H11O+
183.1167	55	C14H15+
185.096	117	C13H13O+
197.1324	375	C15H17+
198.1401	41	C15H18+
210.1042	16	C15H14O+
211.1117	99	C15H15O+
212.1559	444	C16H20+
213.1641	9	C16H21+
215.1066	9	C14H15O2+
225.1273	999	C16H17O+
226.1355	29	C16H18O+
227.1792	78	C17H23+
239.1431	9	C17H19O+
240.1507	328	C17H20O+
245.1533	8	C16H21O2+
255.1739	217	C18H23O+
