Mass spectrum: Asulam-TP Sulfanilamide; LC-ESI-QFT; MS2; CE: 45%; R=17500; [M+H]+
Name: Asulam-TP Sulfanilamide
Name: Sulfanilamide
Name: 4-aminobenzenesulfonamide
Formula: C6H8N2O2S
Exact mass: 172.0306
SMILES: C1=C(C=CC(=C1)S(=O)(=O)N)N
InChI: InChI=1S/C6H8N2O2S/c7-5-1-3-6(4-2-5)11(8,9)10/h1-4H,7H2,(H2,8,9,10)
Instrument: Q Exactive Plus Orbitrap Thermo Scientific
Instrument type: LC-ESI-QFT
Ms type: MS2
Ion mode: POSITIVE
Ionization: ESI
Fragmentation mode: HCD
Collision energy: 45 % (nominal)
Resolution: 17500
Column name: XBridge C18 3.5um, 2.1x50mm, Waters
Retention time: 1.130 min
Base peak: 156.0115
Precursor m/z: 173.0379
Precursor type: [M+H]+
m/z	relative intensity	assigned
53.0387	2	C4H5+
55.0178	2	C3H3O+
56.9422	4	
65.0386	39	C5H5+
68.0495	31	C4H6N+
69.0334	2	C4H5O+
75.0227	2	C6H3+
78.0338	2	C5H4N+
79.0178	4	C5H3O+
80.0494	4	C5H6N+
80.9453	2	
92.0495	291	C6H6N+
93.0574	468	C6H7N+
94.0651	3	C6H8N+
96.0445	3	C5H6NO+
108.0444	269	C6H6NO+
110.0601	59	C6H8NO+
120.0558	7	
125.0473	29	C6H7NO2+
138.9851	3	C6H3O2S+
156.0114	60	C6H6NO2S+
157.0146	3	
173.038	999	C6H9N2O2S+
174.022	6	
184.0177	4	
