Mass spectrum: Antipyrine; LC-ESI-ITFT; MS2; CE: 90%; R=30000; [M+H]+
Name: Antipyrine
Name: Phenazone
Name: 1,5-dimethyl-2-phenyl-3-pyrazolone
Formula: C11H12N2O
Exact mass: 188.0950
SMILES: CN1N(C(=O)C=C1C)C2=CC=CC=C2
InChI: InChI=1S/C11H12N2O/c1-9-8-11(14)13(12(9)2)10-6-4-3-5-7-10/h3-8H,1-2H3
Instrument: LTQ Orbitrap XL Thermo Scientific
Instrument type: LC-ESI-ITFT
Ms type: MS2
Ion mode: POSITIVE
Ionization: ESI
Fragmentation mode: HCD
Collision energy: 90 % (nominal)
Resolution: 30000
Column name: XBridge C18 3.5um, 2.1x50mm, Waters
Retention time: 4.6 min
Base peak: 189.1027
Precursor m/z: 189.1022
Precursor type: [M+H]+
m/z	relative intensity	assigned
53.0385	31	C4H5+
55.0178	15	C3H3O+
56.0495	892	C3H6N+
58.0651	384	C3H8N+
65.0386	199	C5H5+
68.0495	22	C4H6N+
69.0573	32	C4H7N+
70.0651	13	C4H8N+
77.0386	420	C6H5+
78.0463	13	C6H6+
79.0542	80	C6H7+
81.0447	91	C4H5N2+
91.0542	208	C7H7+
92.0495	60	C6H6N+
93.0336	17	C6H5O+
93.0572	25	C6H7N+
94.0651	48	C6H8N+
95.0491	53	C6H7O+
95.0604	134	C5H7N2+
96.0444	20	C5H6NO+
96.0682	157	C5H8N2+
98.0601	182	C5H8NO+
103.0543	151	C8H7+
104.0495	894	C7H6N+
105.0336	22	C7H5O+
105.0447	138	C6H5N2+
105.0573	26	C7H7N+
105.0698	42	C8H9+
106.0652	999	C7H8N+
115.0542	142	C9H7+
117.0573	175	C8H7N+
117.0699	281	C9H9+
118.0651	315	C8H8N+
120.0443	13	C7H6NO+
120.0808	190	C8H10N+
129.0573	107	C9H7N+
130.0651	499	C9H8N+
131.0604	178	C8H7N2+
131.0729	293	C9H9N+
132.0443	33	C8H6NO+
132.0682	164	C8H8N2+
132.0807	137	C9H10N+
133.0522	79	C8H7NO+
133.076	35	C8H9N2+
134.0964	38	C9H12N+
135.0553	10	C7H7N2O+
143.073	50	C10H9N+
144.0808	198	C10H10N+
145.0648	79	C10H9O+
145.076	257	C9H9N2+
146.0839	225	C9H10N2+
146.0962	25	C10H12N+
147.0917	447	C9H11N2+
148.0758	18	C9H10NO+
149.0709	19	C8H9N2O+
155.0603	23	C10H7N2+
157.0522	48	C10H7NO+
158.0605	13	C10H8NO+
159.0552	38	C9H7N2O+
159.0916	14	C10H11N2+
161.1073	74	C10H13N2+
173.0709	49	C10H9N2O+
174.0788	120	C10H10N2O+
189.1023	281	C11H13N2O+
