Mass spectrum: ortho-Chlorophenylpiperazine; LC-ESI-QFT; MS2; CE: 75; R=35000; [M+H]+
Name: ortho-Chlorophenylpiperazine
Name: 1-(2-Chlorophenyl)piperazine
Name: 1-(2-chlorophenyl)piperazine
Formula: C10H13ClN2
Exact mass: 196.07673
SMILES: c1ccc(c(c1)N2CCNCC2)Cl
InChI: InChI=1S/C10H13ClN2/c11-9-3-1-2-4-10(9)13-7-5-12-6-8-13/h1-4,12H,5-8H2
Instrument: Q Exactive Plus Orbitrap Thermo Scientific
Instrument type: LC-ESI-QFT
Ms type: MS2
Ion mode: POSITIVE
Ionization: ESI
Fragmentation mode: HCD
Collision energy: 75 (nominal)
Resolution: 35000
Column name: XBridge C18 3.5um, 2.1x50mm, Waters
Retention time: 4.9 min
Base peak: 197.0839
Precursor m/z: 197.084
Precursor type: [M+H]+
m/z	relative intensity	assigned
53.0386	3	C4H5+
56.0495	20	C3H6N+
58.0651	11	C3H8N+
65.0384	3	C5H5+
68.0495	3	C4H6N+
70.0651	70	C4H8N+
71.0729	1	C4H9N+
77.0384	8	C6H5+
90.0339	1	C6H4N+
91.0542	84	C7H7+
92.0495	2	C6H6N+
92.062	27	C7H8+
93.0573	5	C6H7N+
95.0491	9	C6H7O+
98.9995	4	C5H4Cl+
104.0494	11	C7H6N+
105.0447	6	C6H5N2+
105.0573	1	C7H7N+
106.065	2	C7H8N+
112.0075	2	C6H5Cl+
117.0573	37	C8H7N+
118.0651	665	C8H8N+
119.0729	814	C8H9N+
120.0807	34	C8H10N+
126.0105	15	C6H5ClN+
127.0183	21	C6H6ClN+
128.0262	5	C6H7ClN+
132.0681	2	C8H8N2+
132.081	2	C9H10N+
137.0154	2	C8H6Cl+
138.0105	16	C7H5ClN+
139.0056	2	C6H4ClN2+
140.0261	89	C7H7ClN+
152.0263	6	C8H7ClN+
154.0417	999	C8H9ClN+
162.1151	3	C10H14N2+
166.0418	19	C9H9ClN+
167.0369	4	C8H8ClN2+
168.0573	2	C9H11ClN+
195.0683	18	C10H12ClN2+
197.084	34	C10H14ClN2+
