Mass spectrum: Difloxacin; LC-ESI-QFT; MS2; CE: 180; R=35000; [M+H]+
Name: Difloxacin
Name: 6-fluoro-1-(4-fluorophenyl)-7-(4-methylpiperazin-1-yl)-4-oxoquinoline-3-carboxylic acid
Name: 6-fluoro-1-(4-fluorophenyl)-7-(4-methylpiperazin-4-ium-1-yl)-4-oxoquinoline-3-carboxylate
Formula: C21H19F2N3O3
Exact mass: 399.1394479
SMILES: CN1CCN(CC1)C2=C(C=C3C(=C2)N(C=C(C3=O)C(=O)O)C4=CC=C(C=C4)F)F
InChI: InChI=1S/C21H19F2N3O3/c1-24-6-8-25(9-7-24)19-11-18-15(10-17(19)23)20(27)16(21(28)29)12-26(18)14-4-2-13(22)3-5-14/h2-5,10-12H,6-9H2,1H3,(H,28,29)
Instrument: Q Exactive Plus Orbitrap Thermo Scientific
Instrument type: LC-ESI-QFT
Ms type: MS2
Ion mode: POSITIVE
Ionization: ESI
Fragmentation mode: HCD
Collision energy: 180 (nominal)
Resolution: 35000
Column name: XBridge C18 3.5um, 2.1x50mm, Waters
Retention time: 4.5 min
Base peak: 400.1461
Precursor m/z: 400.1467
Precursor type: [M+H]+
m/z	relative intensity	assigned
50.0152	143	C4H2+
51.023	157	C4H3+
52.0183	5	C3H2N+
53.0022	62	C3HO+
53.0386	37	C4H5+
53.9975	3	C2NO+
54.0339	15	C3H4N+
55.0416	3	C3H5N+
56.0495	96	C3H6N+
57.0136	546	C3H2F+
58.0652	72	C3H8N+
59.0292	23	C3H4F+
61.0073	79	C5H+
62.0151	178	C5H2+
63.023	413	C5H3+
64.0183	30	C4H2N+
65.0261	5	C4H3N+
65.0386	43	C5H5+
67.0417	37	C4H5N+
68.0057	22	C4HF+
68.0496	5	C4H6N+
69.0136	23	C4H2F+
70.0214	44	C4H3F+
70.0652	14	C4H8N+
74.0151	501	C6H2+
75.023	999	C6H3+
76.0182	51	C5H2N+
76.0308	55	C6H4+
77.0022	15	C5HO+
77.0386	51	C6H5+
78.0339	25	C5H4N+
78.0465	19	C6H6+
80.0495	6	C5H6N+
81.0136	341	C5H2F+
82.0087	28	C4HFN+
82.0214	22	C5H3F+
82.0651	22	C5H8N+
83.0292	262	C5H4F+
84.0371	14	C5H5F+
85.0074	35	C7H+
86.0152	94	C7H2+
87.0104	23	C6HN+
87.023	147	C7H3+
88.0182	58	C6H2N+
88.0308	41	C7H4+
89.0386	253	C7H5+
90.0341	5	C6H4N+
90.0465	17	C7H6+
91.0544	7	C7H7+
92.0257	3	C6H4O+
93.0137	29	C6H2F+
94.0215	83	C6H3F+
95.0293	37	C6H4F+
95.0493	94	C6H7O+
96.0371	27	C6H5F+
96.0444	28	C5H6NO+
97.0448	3	C6H6F+
98.0152	147	C8H2+
99.0104	21	C7HN+
99.023	180	C8H3+
100.0182	81	C7H2N+
100.0309	27	C8H4+
101.0387	30	C8H5+
102.034	21	C7H4N+
102.0465	71	C8H6+
103.0416	6	C7H5N+
104.0495	13	C7H6N+
105.0136	128	C7H2F+
105.0448	62	C6H5N2+
106.0089	19	C6HFN+
106.0214	59	C7H3F+
107.0292	684	C7H4F+
108.0245	27	C6H3FN+
108.037	31	C7H5F+
109.0449	40	C7H6F+
110.0152	43	
111.0229	50	C9H3+
112.0183	27	C8H2N+
112.0319	7	C6H5FO+
113.0262	4	C8H3N+
113.0391	71	CH5F2N3O+
114.0339	50	C8H4N+
115.0418	16	C8H5N+
115.0543	63	C9H7+
116.0495	4	C8H6N+
117.0574	3	C8H7N+
118.0214	14	C8H3F+
119.0294	5	C8H4F+
119.0493	21	C8H7O+
120.0371	79	C8H5F+
120.0444	6	C7H6NO+
121.0324	14	C7H4FN+
122.0152	46	
122.0402	26	C7H5FN+
123.0105	18	
123.023	111	C10H3+
123.0354	74	C6H4FN2+
124.0184	41	C9H2N+
125.0199	25	C7H3F2+
125.0386	26	C10H5+
126.0344	30	C9H4N+
126.0466	13	C10H6+
127.0417	7	C9H5N+
127.0544	3	C10H7+
128.0496	67	C9H6N+
128.0623	3	C10H8+
129.0136	36	
129.0448	86	C8H5N2+
130.0402	14	C7H4N3+
130.0654	4	C9H8N+
131.0293	214	C9H4F+
132.0246	62	C8H3FN+
132.0374	17	C9H5F+
133.0326	7	C8H4FN+
133.0449	107	C9H6F+
134.0401	26	C8H5FN+
135.0481	14	C8H6FN+
137.0389	37	C11H5+
138.0341	16	C10H4N+
139.0543	15	C11H7+
140.0496	33	C10H6N+
141.0576	21	C10H7N+
142.0527	4	C9H6N2+
143.0293	22	C10H4F+
144.0371	61	C10H5F+
144.0447	5	C9H6NO+
145.0326	15	C9H4FN+
145.0448	3	C10H6F+
146.0152	22	
146.0402	36	C9H5FN+
146.0529	5	C10H7F+
147.023	36	
147.0354	16	C8H4FN2+
148.0183	19	C11H2N+
148.031	7	C12H4+
148.0558	14	C9H7FN+
149.02	54	C9H3F2+
149.0389	49	C4H5F2N3O+
150.0467	62	C12H6+
151.0356	57	C9H5F2+
151.0415	7	C11H5N+
152.05	11	C8H7FNO+
153.0447	3	C10H5N2+
153.0577	3	C11H7N+
154.0402	33	C9H4N3+
155.0293	172	C11H4F+
155.0606	18	C10H7N2+
156.0246	32	C10H3FN+
156.037	32	C11H5F+
157.045	84	C11H6F+
158.0402	96	C10H5FN+
160.0558	4	C10H7FN+
161.0388	149	C13H5+
162.0275	20	C10H4F2+
162.0342	16	C9H5FNO+
162.0462	24	C8H5FN3+
163.0544	57	C13H7+
164.0496	27	
167.0294	31	C12H4F+
167.0493	14	C12H7O+
168.0372	225	C12H5F+
169.0326	16	C11H4FN+
169.045	18	C12H6F+
169.065	11	C12H9O+
170.0403	22	C11H5FN+
170.0526	44	C12H7F+
170.0599	4	C11H8NO+
171.048	5	C11H6FN+
173.0199	39	C11H3F2+
173.0389	16	C14H5+
173.0515	13	C10H6FN2+
174.0277	6	C11H4F2+
174.0344	13	C10H5FNO+
174.0466	59	C14H6+
175.0355	83	C11H5F2+
175.0422	35	C13H5N+
176.0309	43	C10H4F2N+
176.0501	7	C10H7FNO+
177.0453	4	C9H6FN2O+
177.0577	8	C13H7N+
179.0294	330	C13H4F+
180.0251	31	
180.0372	133	C13H5F+
181.045	526	C13H6F+
182.0402	142	C12H5FN+
182.0529	13	C13H7F+
183.0608	14	C13H8F+
184.0319	5	C12H5FO+
184.0559	14	C12H7FN+
186.0267	38	C12H4F2+
186.0352	39	C11H5FNO+
187.0554	46	C12H8FO+
188.0432	12	C12H6F2+
188.05	127	C11H7FNO+
189.0575	17	C14H7N+
190.0655	7	C14H8N+
192.037	64	C14H5F+
192.0446	8	C13H6NO+
193.0327	37	C13H4FN+
193.0453	5	C14H6F+
193.0649	13	C14H9O+
194.0402	19	C13H5FN+
194.0528	62	C14H7F+
194.0608	10	C10H9FNO2+
195.0481	66	C13H6FN+
196.0559	16	C13H7FN+
197.02	25	C13H3F2+
197.051	18	C12H6FN2+
198.0278	47	C13H4F2+
199.0354	440	C13H5F2+
200.0308	76	C12H4F2N+
200.0431	16	C13H6F2+
200.0509	6	C12H7FNO+
201.0499	35	
201.0579	24	
202.0464	15	C12H6F2N+
202.0653	8	C12H9FNO+
204.0246	19	
204.038	15	C12H6F2O+
204.0557	4	C13H6N3+
205.0324	27	C14H4FN+
205.0451	42	C15H6F+
206.0404	374	C14H5FN+
207.0481	59	C14H6FN+
207.061	20	C15H8F+
208.0559	108	C14H7FN+
209.0639	7	C14H8FN+
210.0281	4	C14H4F2+
211.0443	3	C10H7F2NO2+
212.0276	28	C10H6F2O3+
212.0417	24	C6H6N5O4+
212.0506	17	C13H7FNO+
213.0386	16	C13H5F2N+
214.0455	4	C13H6F2N+
215.0423	6	C12H5F2N2+
218.0399	6	C15H5FN+
218.0599	7	C15H8NO+
219.048	53	C15H6FN+
220.0561	40	C15H7FN+
221.0512	14	C11H7F2N2O+
221.0636	17	C15H8FN+
222.0465	19	C10H6F2N3O+
222.0712	7	C15H9FN+
224.0309	75	C14H4F2N+
225.0393	28	C14H5F2N+
225.0494	5	C7H7N5O4+
226.0465	140	C14H6F2N+
227.0534	4	C14H7F2N+
228.0559	15	C15H6N3+
230.0405	14	C13H6F2NO+
232.0558	20	C16H7FN+
233.0514	7	C15H6FN2+
233.0632	5	C16H8FN+
234.0589	4	C15H7FN2+
237.0387	4	C15H5F2N+
238.046	13	C15H6F2N+
238.0667	4	C15H9FNO+
239.0543	6	C15H7F2N+
257.0293	5	C14H5F2NO2+
