Mass spectrum: Pramoxine; LC-ESI-QFT; MS2; CE: 75; R=35000; [M+H]+
Name: Pramoxine
Name: 4-[3-(4-butoxyphenoxy)propyl]morpholine
Formula: C17H27NO3
Exact mass: 293.19909
SMILES: CCCCOC1=CC=C(C=C1)OCCCN2CCOCC2
InChI: InChI=1S/C17H27NO3/c1-2-3-12-20-16-5-7-17(8-6-16)21-13-4-9-18-10-14-19-15-11-18/h5-8H,2-4,9-15H2,1H3
Instrument: Q Exactive Plus Orbitrap Thermo Scientific
Instrument type: LC-ESI-QFT
Ms type: MS2
Ion mode: POSITIVE
Ionization: ESI
Fragmentation mode: HCD
Collision energy: 75 (nominal)
Resolution: 35000
Column name: XBridge C18 3.5um, 2.1x50mm, Waters
Retention time: 7.3 min
Base peak: 294.206
Precursor m/z: 294.2064
Precursor type: [M+H]+
m/z	relative intensity	assigned
55.0178	3	C3H3O+
55.0542	1	C4H7+
56.0495	77	C3H6N+
57.0573	3	C3H7N+
57.0699	8	C4H9+
58.0651	16	C3H8N+
65.0386	8	C5H5+
67.0542	19	C5H7+
68.0495	1	C4H6N+
68.9971	2	C3HO2+
69.0699	1	C5H9+
70.0651	117	C4H8N+
72.0807	53	C4H10N+
77.0384	1	C6H5+
79.0542	3	C6H7+
81.0335	3	C5H5O+
82.0651	2	C5H8N+
84.0808	6	C5H10N+
85.0522	2	C4H7NO+
86.06	73	C4H8NO+
87.0679	1	C4H9NO+
88.0757	8	C4H10NO+
93.0333	1	C6H5O+
95.0491	37	C6H7O+
98.06	2	C5H8NO+
98.0964	9	C6H12N+
100.0756	999	C5H10NO+
102.0913	5	C5H12NO+
105.0447	1	C6H5N2+
105.0699	4	C8H9+
107.0491	1	C7H7O+
109.0284	8	C6H5O2+
110.0363	4	C6H6O2+
111.044	8	C6H7O2+
114.0913	1	C6H12NO+
121.0396	13	C6H5N2O+
123.044	143	C7H7O2+
126.0914	1	C7H12NO+
128.107	41	C7H14NO+
151.0753	14	C9H11O2+
179.1065	1	C11H15O2+
