Mass spectrum: Metolachlor-TP SYN542490; LC-ESI-QFT; MS2; CE: 150%; R=17500; [M+H]+
Name: Metolachlor-TP SYN542490
Formula: C15H21NO6S
Exact mass: 343.1090
SMILES: O=S(=O)(O)CC(=O)N(C(C)COC)c1c(C)cccc1C(C)=O
InChI: InChI=1S/C15H21NO6S/c1-10-6-5-7-13(12(3)17)15(10)16(11(2)8-22-4)14(18)9-23(19,20)21/h5-7,11H,8-9H2,1-4H3,(H,19,20,21)
Instrument: Exploris 240 Orbitrap Thermo Scientific
Instrument type: LC-ESI-QFT
Ms type: MS2
Ion mode: POSITIVE
Ionization: ESI
Fragmentation mode: HCD
Collision energy: 150 % (nominal)
Resolution: 17500
Column name: XBridge C18 3.5um, 2.1x50mm, Waters
Retention time: 4.668 min
Base peak: 344.1159
Precursor m/z: 344.1162
Precursor type: [M+H]+
m/z	relative intensity	assigned
51.0229	92	C4H3+
53.0387	109	C4H5+
65.0386	345	C5H5+
77.0387	544	C6H5+
79.0543	344	C6H7+
89.0387	190	C7H5+
90.0464	161	C7H6+
91.0542	999	C7H7+
93.0575	98	C6H7N+
95.0492	274	C6H7O+
102.0464	41	C8H6+
103.0542	414	C8H7+
106.0651	110	C7H8N+
115.0543	640	C9H7+
116.0495	178	C8H6N+
117.0573	701	C8H7N+
118.0653	149	C8H8N+
127.0543	68	C10H7+
128.0505	73	C3H12O3S+
128.0618	436	C10H8+
129.0701	106	C10H9+
130.0652	909	C9H8N+
131.0725	199	C9H9N+
132.0808	63	C9H10N+
140.0496	102	C10H6N+
141.0576	82	C10H7N+
142.065	120	C10H8N+
143.073	82	C10H9N+
144.0807	488	C10H10N+
145.0888	50	C10H11N+
154.065	183	C11H8N+
156.081	241	C11H10N+
170.0967	51	C12H12N+
