Mass spectrum: N4-Acetylsulfathiazole; LC-ESI-ITFT; MS2; CE: 30%; R=15000; [M+H]+
Name: N4-Acetylsulfathiazole
Name: N-[4-(1,3-thiazol-2-ylsulfamoyl)phenyl]acetamide
Formula: C11H11N3O3S2
Exact mass: 297.0242
SMILES: c1(ccc(NC(=O)C)cc1)S(=O)(NC2=NC=CS2)=O
InChI: InChI=1S/C11H11N3O3S2/c1-8(15)13-9-2-4-10(5-3-9)19(16,17)14-11-12-6-7-18-11/h2-7H,1H3,(H,12,14)(H,13,15)
Instrument: LTQ Orbitrap XL Thermo Scientific
Instrument type: LC-ESI-ITFT
Ms type: MS2
Ion mode: POSITIVE
Ionization: ESI
Fragmentation mode: HCD
Collision energy: 30 % (nominal)
Resolution: 15000
Column name: XBridge C18 3.5um, 2.1x50mm, Waters
Retention time: 4.1 min
Base peak: 162.9914
Precursor m/z: 298.0315
Precursor type: [M+H]+
m/z	relative intensity	assigned
101.0168	111	C3H5N2S+
108.0444	173	C6H6NO+
134.06	245	C8H8NO+
162.0657	86	C8H8N3O+
198.0217	999	C8H8NO3S+
298.0312	984	C11H12N3O3S2+
