Mass spectrum: Bensulfuron-Methyl; LC-ESI-QFT; MS2; CE: 150%; R=17500; [M+H]+
Name: Bensulfuron-Methyl
Name: methyl 2-[(4,6-dimethoxypyrimidin-2-yl)carbamoylsulfamoylmethyl]benzoate
Formula: C16H18N4O7S
Exact mass: 410.0896
SMILES: COC1=CC(=NC(=N1)NC(=O)NS(=O)(=O)CC2=CC=CC=C2C(=O)OC)OC
InChI: InChI=1S/C16H18N4O7S/c1-25-12-8-13(26-2)18-15(17-12)19-16(22)20-28(23,24)9-10-6-4-5-7-11(10)14(21)27-3/h4-8H,9H2,1-3H3,(H2,17,18,19,20,22)
Instrument: Exploris 240 Orbitrap Thermo Scientific
Instrument type: LC-ESI-QFT
Ms type: MS2
Ion mode: POSITIVE
Ionization: ESI
Fragmentation mode: HCD
Collision energy: 150 % (nominal)
Resolution: 17500
Column name: XBridge C18 3.5um, 2.1x50mm, Waters
Retention time: 7.850 min
Base peak: 411.0967
Precursor m/z: 411.0969
Precursor type: [M+H]+
m/z	relative intensity	assigned
50.015	8	C4H2+
51.0229	26	C4H3+
56.0131	23	C2H2NO+
57.0446	22	C2H5N2+
63.0229	39	C5H3+
65.0386	999	C5H5+
68.0134	33	C3H2NO+
68.9971	16	C3HO2+
69.0083	27	C2HN2O+
77.0386	38	C6H5+
78.0461	13	C6H6+
82.0287	11	C4H4NO+
83.024	92	C3H3N2O+
89.0388	28	C7H5+
91.0542	845	C7H7+
93.0084	46	C4HN2O+
105.0449	9	C6H5N2+
