Mass spectrum: Mandestrobin; LC-ESI-QFT; MS2; CE: 45%; R=17500; [M+H]+
Name: Mandestrobin
Name: 2-[2-[(2,5-dimethylphenoxy)methyl]phenyl]-2-methoxy-N-methylacetamide
Formula: C19H23NO3
Exact mass: 313.1678
SMILES: CC1=CC(=C(C=C1)C)OCC2=CC=CC=C2C(C(=O)NC)OC
InChI: InChI=1S/C19H23NO3/c1-13-9-10-14(2)17(11-13)23-12-15-7-5-6-8-16(15)18(22-4)19(21)20-3/h5-11,18H,12H2,1-4H3,(H,20,21)
Instrument: Exploris 240 Orbitrap Thermo Scientific
Instrument type: LC-ESI-QFT
Ms type: MS2
Ion mode: POSITIVE
Ionization: ESI
Fragmentation mode: HCD
Collision energy: 45 % (nominal)
Resolution: 17500
Column name: XBridge C18 3.5um, 2.1x50mm, Waters
Retention time: 11.127 min
Base peak: 314.1748
Precursor m/z: 314.1751
Precursor type: [M+H]+
m/z	relative intensity	assigned
91.0542	79	C7H7+
103.0543	13	C8H7+
119.0491	999	C8H7O+
132.0807	939	C9H10N+
134.0968	26	C9H12N+
160.0756	988	C10H10NO+
161.0835	18	C10H11NO+
162.0912	24	C10H12NO+
164.1069	11	C10H14NO+
192.102	254	C11H14NO2+
195.1168	58	C15H15+
208.0878	18	C15H12O+
223.1116	91	C16H15O+
