Mass spectrum: Telmisartan; LC-ESI-ITFT; MS2; CE: 90%; R=7500; [M+H]+
Name: Telmisartan
Name: 4'-[(1,7'-dimethyl-2'-propyl-1H,3'H-2,5'-bibenzimidazol-3'-yl)methyl]biphenyl-2-carboxylic acid
Name: 2-[4-[[4-methyl-6-(1-methyl-2-benzimidazolyl)-2-propyl-1-benzimidazolyl]methyl]phenyl]benzoic acid
Formula: C33H30N4O2
Exact mass: 514.2369
SMILES: n1(c(nc2c1cccc2)c1cc(c2c(n(c(CCC)n2)Cc2ccc(cc2)c2c(cccc2)C(O)=O)c1)C)C
InChI: InChI=1S/C33H30N4O2/c1-4-9-30-35-31-21(2)18-24(32-34-27-12-7-8-13-28(27)36(32)3)19-29(31)37(30)20-22-14-16-23(17-15-22)25-10-5-6-11-26(25)33(38)39/h5-8,10-19H,4,9,20H2,1-3H3,(H,38,39)
Instrument: LTQ Orbitrap XL Thermo Scientific
Instrument type: LC-ESI-ITFT
Ms type: MS2
Ion mode: POSITIVE
Ionization: ESI
Fragmentation mode: HCD
Collision energy: 90 % (nominal)
Resolution: 7500
Column name: XBridge C18 3.5um, 2.1x50mm, Waters
Retention time: 9.2 min
Base peak: 515.2452
Precursor m/z: 515.2442
Precursor type: [M+H]+
m/z	relative intensity	assigned
65.0387	5	C5H5+
77.0386	10	C6H5+
79.0544	26	C6H7+
91.0538	2	C7H7+
92.0496	29	C6H6N+
104.0494	10	C7H6N+
105.0338	7	C7H5O+
105.0447	4	C6H5N2+
106.0652	93	C7H8N+
115.0542	20	C9H7+
116.0496	3	C8H6N+
117.0573	3	C8H7N+
118.0654	2	C8H8N+
119.0606	10	C7H7N2+
120.0685	3	C7H8N2+
128.0622	13	C10H8+
129.0447	6	C8H5N2+
129.0701	16	C10H9+
131.0605	29	C8H7N2+
132.0687	8	C8H8N2+
133.0284	21	C8H5O2+
133.0762	25	C8H9N2+
139.0546	4	C11H7+
141.0699	16	C11H9+
142.053	3	C9H6N2+
143.0605	30	C9H7N2+
144.0684	12	C9H8N2+
145.0762	19	C9H9N2+
147.0555	4	C8H7N2O+
151.0538	2	C12H7+
152.0622	74	C12H8+
153.0702	37	C12H9+
154.0779	19	C12H10+
155.0604	13	C10H7N2+
155.0857	39	C12H11+
156.0685	4	C10H8N2+
157.0761	20	C10H9N2+
158.0838	15	C10H10N2+
165.07	243	C13H9+
167.0862	11	C13H11+
168.0569	22	C12H8O+
168.0805	2	C12H10N+
169.0761	6	C11H9N2+
170.0714	21	C10H8N3+
171.0918	16	C11H11N2+
176.0581	7	C9H8N2O2+
181.0651	7	C13H9O+
183.0808	17	C13H11O+
184.0876	6	C11H10N3+
185.1077	4	C12H13N2+
192.0681	2	C13H8N2+
193.0653	85	C14H9O+
195.0918	8	C13H11N2+
198.1025	3	C12H12N3+
206.0839	17	C14H10N2+
207.0914	25	C14H11N2+
209.1074	4	C14H13N2+
211.0754	48	C14H11O2+
220.0871	54	C14H10N3+
221.1048	30	C12H15NO3+
222.1145	12	C15H14N2+
231.0796	13	C15H9N3+
232.0871	25	C15H10N3+
233.095	27	C15H11N3+
234.1028	93	C15H12N3+
235.1109	6	C15H13N3+
236.118	9	C15H14N3+
244.0869	7	C16H10N3+
247.1093	34	C16H13N3+
248.1171	17	C16H14N3+
254.1042	5	C15H14N2O2+
259.0978	49	C16H11N4+
260.1058	165	C16H12N4+
261.1137	999	C18H15NO+
262.1201	55	C16H14N4+
263.1294	4	C16H15N4+
272.1049	10	C17H12N4+
273.1134	97	C17H13N4+
274.1215	152	C17H14N4+
275.1292	433	C17H15N4+
276.1371	458	C17H16N4+
277.1412	19	C12H17N6O2+
279.0996	6	C16H13N3O2+
286.1209	7	C18H14N4+
287.1291	86	C18H15N4+
288.1372	38	C18H16N4+
289.1449	238	C18H17N4+
301.1447	22	C19H17N4+
303.1604	96	C19H19N4+
305.1762	7	C19H21N4+
409.1452	4	C28H17N4+
423.1585	8	C29H19N4+
424.1665	5	C29H20N4+
425.1747	10	C29H21N4+
437.1415	3	C29H17N4O+
439.1904	5	C30H23N4+
451.1558	8	C30H19N4O+
465.1689	5	C31H21N4O+
469.1667	4	C30H21N4O2+
483.1808	8	C31H23N4O2+
497.2588	12	C33H31N5+
