Mass spectrum: Fluometuron; LC-ESI-QFT; MS2; CE: 180; R=35000; [M-H]-
Name: Fluometuron
Name: 1,1-dimethyl-3-[3-(trifluoromethyl)phenyl]urea
Formula: C10H11F3N2O
Exact mass: 232.08235
SMILES: CN(C)C(=O)NC1=CC=CC(=C1)C(F)(F)F
InChI: InChI=1S/C10H11F3N2O/c1-15(2)9(16)14-8-5-3-4-7(6-8)10(11,12)13/h3-6H,1-2H3,(H,14,16)
Instrument: Q Exactive Plus Orbitrap Thermo Scientific
Instrument type: LC-ESI-QFT
Ms type: MS2
Ion mode: NEGATIVE
Ionization: ESI
Fragmentation mode: HCD
Collision energy: 180 (nominal)
Resolution: 35000
Column name: XBridge C18 3.5um, 2.1x50mm, Waters
Retention time: 8.0 min
Base peak: 231.0748
Precursor m/z: 231.0751
Precursor type: [M-H]-
m/z	relative intensity	assigned
50.0036	108	C3N-
65.0032	8	C4HO-
65.9985	10	C3NO-
66.9989	12	C4F-
68.9957	41	CF3-
72.0006	42	C6-
73.0084	48	C6H-
74.0037	128	C5N-
90.9989	9	C6F-
98.0036	999	C7N-
112.0067	15	C7N2-
