Mass spectrum: Clarithromycin N-Oxide; LC-ESI-QFT; MS2; CE: 45; R=35000; [M+H]+
Name: Clarithromycin N-Oxide
Name: (2S,3R,4S,6R)-2-[[(3R,4S,5S,6R,7R,9R,11R,12R,13S,14R)-14-ethyl-12,13-dihydroxy-4-[(2R,4R,5S,6S)-5-hydroxy-4-methoxy-4,6-dimethyloxan-2-yl]oxy-7-methoxy-3,5,7,9,11,13-hexamethyl-2,10-dioxo-oxacyclotetradec-6-yl]oxy]-3-hydroxy-N,N,6-trimethyloxan-4-amine oxide
Formula: C38H69NO14
Exact mass: 763.47181
SMILES: [O-][N+](C)(C)[C@H]3C[C@@H](C)O[C@@H](O[C@@H]2[C@@H](C)[C@H](O[C@H]1C[C@@](C)(OC)[C@@H](O)[C@H](C)O1)[C@@H](C)C(=O)O[C@H](CC)[C@@](C)(O)[C@H](O)[C@@H](C)C(=O)[C@H](C)C[C@@]2(C)OC)[C@@H]3O
InChI: InChI=1S/C38H69NO14/c1-15-26-38(10,45)31(42)21(4)28(40)19(2)17-37(9,48-14)33(53-35-29(41)25(39(11,12)46)16-20(3)49-35)22(5)30(23(6)34(44)51-26)52-27-18-36(8,47-13)32(43)24(7)50-27/h19-27,29-33,35,41-43,45H,15-18H2,1-14H3/t19-,20-,21+,22+,23-,24+,25+,26-,27+,29-,30+,31-,32+,33-,35+,36-,37-,38-/m1/s1
Instrument: Q Exactive Plus Orbitrap Thermo Scientific
Instrument type: LC-ESI-QFT
Ms type: MS2
Ion mode: POSITIVE
Ionization: ESI
Fragmentation mode: HCD
Collision energy: 45 (nominal)
Resolution: 35000
Column name: XBridge C18 3.5um, 2.1x50mm, Waters
Retention time: 9.7 min
Base peak: 764.4783
Precursor m/z: 764.4791
Precursor type: [M+H]+
m/z	relative intensity	assigned
55.0178	2	C3H3O+
55.0542	27	C4H7+
56.0495	2	C3H6N+
57.0335	36	C3H5O+
57.0699	18	C4H9+
58.0651	14	C3H8N+
59.0491	5	C3H7O+
60.0444	5	C2H6NO+
62.06	16	C2H8NO+
65.0385	6	C5H5+
67.0542	75	C5H7+
69.0334	25	C4H5O+
69.0698	106	C5H9+
70.0651	55	C4H8N+
71.0491	8	C4H7O+
71.0729	5	C4H9N+
71.0855	2	C5H11+
72.0443	7	C3H6NO+
72.0807	15	C4H10N+
73.0647	6	C4H9O+
74.06	2	C3H8NO+
75.044	1	C3H7O2+
79.0541	8	C6H7+
81.0699	23	C6H9+
82.065	2	C5H8N+
83.0491	246	C5H7O+
84.0807	44	C5H10N+
85.0284	29	C4H5O2+
85.0647	38	C5H9O+
86.06	28	C4H8NO+
87.0441	3	C4H7O2+
87.0678	1	C4H9NO+
87.0805	2	C5H11O+
88.0756	8	C4H10NO+
91.0542	5	C7H7+
93.0699	16	C7H9+
95.0491	67	C6H7O+
95.0855	34	C7H11+
97.0648	161	C6H9O+
98.06	2	C5H8NO+
98.0964	18	C6H12N+
99.044	1	C5H7O2+
99.0804	12	C6H11O+
99.1042	4	C6H13N+
100.0757	1	C5H10NO+
100.112	29	C6H14N+
101.0234	3	C4H5O3+
101.0597	1	C5H9O2+
102.0913	9	C5H12NO+
103.0389	2	C4H7O3+
105.0699	12	C8H9+
107.0855	36	C8H11+
109.0648	111	C7H9O+
109.1012	108	C8H13+
110.0964	2	C7H12N+
111.044	17	C6H7O2+
111.0804	18	C7H11O+
111.1167	7	C8H15+
113.0596	245	C6H9O2+
113.096	14	C7H13O+
114.0913	59	C6H12NO+
115.0753	17	C6H11O2+
116.0706	9	C5H10NO2+
116.107	15	C6H14NO+
117.0545	1	C5H9O3+
117.0697	1	C9H9+
119.0855	34	C9H11+
121.1012	236	C9H13+
123.0803	999	C8H11O+
125.0597	21	C7H9O2+
125.0961	92	C8H13O+
126.0911	2	C7H12NO+
127.0753	31	C7H11O2+
127.1117	14	C8H15O+
128.1069	64	C7H14NO+
129.0546	7	C6H9O3+
129.091	3	C7H13O2+
129.1147	3	C7H15NO+
131.0855	2	C10H11+
132.0655	22	C5H10NO3+
133.1011	14	C10H13+
135.0804	13	C9H11O+
135.1167	22	C10H15+
137.0961	182	C9H13O+
139.0753	10	C8H11O2+
139.1117	23	C9H15O+
140.1069	5	C8H14NO+
141.0546	4	C7H9O3+
141.0909	5	C8H13O2+
143.0703	13	C7H11O3+
145.1012	8	C11H13+
146.1174	3	C7H16NO2+
147.0804	7	C10H11O+
147.1168	37	C11H15+
149.0961	12	C10H13O+
149.1325	65	C11H17+
151.0753	41	C9H11O2+
151.1117	25	C10H15O+
151.148	2	C11H19+
153.0909	48	C9H13O2+
153.1271	3	C10H17O+
155.0703	1	C8H11O3+
155.1065	15	C9H15O2+
156.1019	15	C8H14NO2+
157.0858	5	C8H13O3+
157.1011	6	C12H13+
158.1175	12	C8H16NO2+
159.1168	39	C12H15+
161.0959	6	C11H13O+
161.1324	4	C12H17+
163.0751	3	C10H11O2+
163.1117	37	C11H15O+
163.1481	2	C12H19+
164.1193	1	C11H16O+
165.091	74	C10H13O2+
165.1274	36	C11H17O+
167.1066	4	C10H15O2+
167.143	20	C11H19O+
169.0859	10	C9H13O3+
169.1222	1	C10H17O2+
171.1016	11	C9H15O3+
171.1166	5	C13H15+
172.1247	2	C13H16+
173.096	2	C12H13O+
173.1325	9	C13H17+
174.1125	45	C8H16NO3+
175.1117	39	C12H15O+
175.1481	3	C13H19+
177.1273	65	C12H17O+
179.1065	9	C11H15O2+
179.1431	4	C12H19O+
181.0859	11	C10H13O3+
181.1222	11	C11H17O2+
183.1016	38	C10H15O3+
183.1376	3	C11H19O2+
185.1323	6	C14H17+
187.1113	3	C13H15O+
187.1481	32	C14H19+
189.1272	7	C13H17O+
189.1637	4	C14H21+
191.1065	4	C12H15O2+
191.1428	6	C13H19O+
192.1229	12	C8H18NO4+
193.1223	87	C12H17O2+
195.1379	38	C12H19O2+
197.1174	8	C11H17O3+
197.132	3	C15H17+
199.0964	2	C10H15O4+
199.148	3	C15H19+
201.1271	2	C14H17O+
201.1638	4	C15H21+
203.1065	9	C13H15O2+
203.1429	10	C14H19O+
205.1224	3	C13H17O2+
205.1587	26	C14H21O+
207.1379	3	C13H19O2+
209.1534	1	C13H21O2+
211.1328	10	C12H19O3+
211.1481	1	C16H19+
213.127	1	C15H17O+
215.143	11	C15H19O+
217.1592	2	C15H21O+
217.1949	2	C16H25+
219.1742	2	C15H23O+
221.1172	20	C13H17O3+
221.1535	10	C14H21O2+
223.1328	1	C13H19O3+
223.1692	2	C14H23O2+
225.1638	4	C17H21+
227.1793	2	C17H23+
229.1586	7	C16H21O+
231.1379	8	C15H19O2+
233.1535	34	C15H21O2+
235.1325	1	C14H19O3+
235.1692	1	C15H23O2+
239.1278	6	C13H19O4+
243.1742	5	C17H23O+
245.1899	13	C17H25O+
247.1688	3	C16H23O2+
249.1483	6	C15H21O3+
251.1642	16	C15H23O3+
253.1586	3	C18H21O+
259.1324	2	C16H19O3+
261.1486	1	C16H21O3+
261.1842	2	C17H25O2+
263.2004	4	C17H27O2+
265.1795	1	C16H25O3+
267.1584	1	C15H23O4+
271.169	8	C18H23O2+
277.1433	1	C16H21O4+
279.159	4	C16H23O4+
289.1797	14	C18H25O3+
291.1951	1	C18H27O3+
303.2319	1	C20H31O2+
307.1902	4	C18H27O4+
329.2112	4	C21H29O3+
347.2221	4	C21H31O4+
365.2311	1	C21H33O5+
393.2258	1	C22H33O6+
