Mass spectrum: 4-Isopropylaniline; LC-ESI-ITFT; MS2; CE: 90%; R=7500; [M+H]+
Name: 4-Isopropylaniline
Name: 4-propan-2-ylaniline
Formula: C9H13N
Exact mass: 135.1048
SMILES: c1(C(C)C)ccc(N)cc1
InChI: InChI=1S/C9H13N/c1-7(2)8-3-5-9(10)6-4-8/h3-7H,10H2,1-2H3
Instrument: LTQ Orbitrap XL Thermo Scientific
Instrument type: LC-ESI-ITFT
Ms type: MS2
Ion mode: POSITIVE
Ionization: ESI
Fragmentation mode: HCD
Collision energy: 90 % (nominal)
Resolution: 7500
Column name: XBridge C18 3.5um, 2.1x50mm, Waters
Retention time: 5.2 min
Base peak: 136.112
Precursor m/z: 136.1121
Precursor type: [M+H]+
m/z	relative intensity	assigned
65.0386	13	C5H5+
77.0385	179	C6H5+
78.0464	25	C6H6+
79.0542	66	C6H7+
91.0541	953	C7H7+
93.0573	35	C6H7N+
93.0697	37	C7H9+
94.065	999	C6H8N+
95.0491	19	C6H7O+
103.0541	97	C8H7+
104.0619	196	C8H8+
105.0446	44	C6H5N2+
115.0542	40	C9H7+
117.0697	111	C9H9+
119.0857	28	C9H11+
120.0804	92	C8H10N+
121.0884	108	C8H11N+
136.1119	552	C9H14N+
147.0918	55	C9H11N2+
