Mass spectrum: 4`-Hydroxy Diclofenac; LC-ESI-QFT; MS2; CE: 180; R=35000; [M+H]+
Name: 4`-Hydroxy Diclofenac
Name: 4`-hydroxydiclofenac
Name: 2-[2-(2,6-dichloro-4-hydroxyanilino)phenyl]acetic acid
Formula: C14H11Cl2NO3
Exact mass: 311.01160
SMILES: C1=CC=C(C(=C1)CC(=O)O)NC2=C(C=C(C=C2Cl)O)Cl
InChI: InChI=1S/C14H11Cl2NO3/c15-10-6-9(18)7-11(16)14(10)17-12-4-2-1-3-8(12)5-13(19)20/h1-4,6-7,17-18H,5H2,(H,19,20)
Instrument: Q Exactive Plus Orbitrap Thermo Scientific
Instrument type: LC-ESI-QFT
Ms type: MS2
Ion mode: POSITIVE
Ionization: ESI
Fragmentation mode: HCD
Collision energy: 180 (nominal)
Resolution: 35000
Column name: XBridge C18 3.5um, 2.1x50mm, Waters
Retention time: 10.0 min
Base peak: 312.0187
Precursor m/z: 312.0189
Precursor type: [M+H]+
m/z	relative intensity	assigned
50.0151	27	C4H2+
51.0229	15	C4H3+
52.0182	7	C3H2N+
53.0022	8	C3HO+
53.0386	8	C4H5+
60.984	9	C2H2Cl+
61.0072	10	C5H+
61.9791	1	CHClN+
62.0151	27	C5H2+
63.0229	187	C5H3+
65.0386	82	C5H5+
66.0464	2	C5H6+
72.9839	8	C3H2Cl+
74.015	19	C6H2+
75.0229	37	C6H3+
76.0181	10	C5H2N+
76.0306	9	C6H4+
77.0385	15	C6H5+
78.0339	5	C5H4N+
78.0463	4	C6H6+
81.0335	3	C5H5O+
84.9839	19	C4H2Cl+
86.015	13	C7H2+
86.9996	3	C4H4Cl+
87.0229	72	C7H3+
88.0182	21	C6H2N+
88.0307	20	C7H4+
89.0386	321	C7H5+
90.0338	17	C6H4N+
90.0464	17	C7H6+
91.0542	19	C7H7+
95.0491	29	C6H7O+
98.0151	12	C8H2+
99.0229	19	C8H3+
101.0386	4	C8H5+
102.0464	18	C8H6+
103.0542	1	C8H7+
104.0496	3	C7H6N+
105.0447	15	C6H5N2+
113.0386	431	C9H5+
114.0338	60	C8H4N+
114.0464	26	C9H6+
115.0542	237	C9H7+
116.0494	72	C8H6N+
117.0572	13	C8H7N+
118.0412	5	C8H6O+
119.0491	5	C8H7O+
123.0228	14	C10H3+
125.0385	7	C10H5+
126.0464	39	C10H6+
127.0417	8	C9H5N+
127.054	6	C10H7+
128.0494	32	C9H6N+
129.0447	16	C8H5N2+
132.0443	9	C8H6NO+
132.0571	11	C9H8O+
134.0601	4	C8H8NO+
137.0386	35	C11H5+
138.0464	41	C11H6+
139.0542	999	C11H7+
140.0494	819	C10H6N+
141.0572	7	C10H7N+
141.0698	4	C11H9+
142.0412	3	C10H6O+
143.0492	1	C10H7O+
145.0647	4	C10H9O+
146.0598	5	C9H8NO+
149.0385	9	C12H5+
150.0464	39	C12H6+
151.0417	8	C11H5N+
151.0541	1	C12H7+
152.0494	3	C11H6N+
152.0619	1	C12H8+
153.0572	1	C11H7N+
154.0651	4	C11H8N+
155.0603	6	C10H7N2+
156.0571	4	C11H8O+
158.06	3	C10H8NO+
164.0494	90	C12H6N+
165.0573	42	C12H7N+
166.0651	498	C12H8N+
167.0729	178	C12H9N+
169.0526	1	C11H7NO+
169.0647	7	C12H9O+
170.036	4	C11H6O2+
170.0601	2	C11H8NO+
175.0414	11	C13H5N+
176.0495	3	C13H6N+
177.0573	20	C13H7N+
178.0652	6	C13H8N+
179.0605	1	C12H7N2+
183.0682	1	C12H9NO+
184.0753	4	C12H10NO+
185.0597	1	C12H9O2+
194.0604	6	C13H8NO+
195.0678	3	C13H9NO+
204.0555	3	C13H6N3+
