Mass spectrum: 1-(3-(Trifluoromethyl)phenyl)piperazine; LC-ESI-ITFT; MS2; CE: 60%; R=15000; [M+H]+
Name: 1-(3-(Trifluoromethyl)phenyl)piperazine
Formula: C11H13F3N2
Exact mass: 230.1031
SMILES: c1c(C(F)(F)F)cccc1N1CCNCC1
InChI: InChI=1S/C11H13F3N2/c12-11(13,14)9-2-1-3-10(8-9)16-6-4-15-5-7-16/h1-3,8,15H,4-7H2
Instrument: LTQ Orbitrap XL Thermo Scientific
Instrument type: LC-ESI-ITFT
Ms type: MS2
Ion mode: POSITIVE
Ionization: ESI
Fragmentation mode: HCD
Collision energy: 60 % (nominal)
Resolution: 15000
Column name: XBridge C18 3.5um, 2.1x50mm, Waters
Retention time: 5.9 min
Base peak: 231.1108
Precursor m/z: 231.1104
Precursor type: [M+H]+
m/z	relative intensity	assigned
56.0495	3	C3H6N+
58.0651	2	C3H8N+
70.0652	22	C4H8N+
119.073	39	C8H9N+
127.0354	2	C7H5F2+
141.051	4	C8H7F2+
148.0554	9	C9H7FN+
162.0532	1	C7H7F3N+
166.0463	12	C9H6F2N+
168.0619	23	C9H8F2N+
172.0367	9	C8H5F3N+
174.0527	20	C8H7F3N+
186.0526	20	C9H7F3N+
188.0684	999	C9H9F3N+
200.0683	15	C10H9F3N+
201.0641	2	C9H8F3N2+
202.084	5	C10H11F3N+
211.1043	6	C11H13F2N2+
214.0839	16	C11H11F3N+
229.0949	59	C11H12F3N2+
231.1108	334	C11H14F3N2+
