Mass spectrum: Metribuzin; LC-ESI-ITFT; MS2; CE: 15%; R=7500; [M+H]+
Name: Metribuzin
Name: 1,2,4-Triazin-5(4H)-one, 4-amino-6-(1,1-dimethylethyl)-3-(methylthio)-
Name: 4-amino-6-tert-butyl-3-(methylthio)-1,2,4-triazin-5-one
Formula: C8H14N4OS
Exact mass: 214.0883
SMILES: S(C)C(=NN=C1C(C)(C)C)N(N)C1=O
InChI: InChI=1S/C8H14N4OS/c1-8(2,3)5-6(13)12(9)7(14-4)11-10-5/h9H2,1-4H3
Instrument: LTQ Orbitrap XL Thermo Scientific
Instrument type: LC-ESI-ITFT
Ms type: MS2
Ion mode: POSITIVE
Ionization: ESI
Fragmentation mode: HCD
Collision energy: 15 % (nominal)
Resolution: 7500
Column name: XBridge C18 3.5um, 2.1x50mm, Waters
Retention time: 6.9 min
Base peak: 215.0964
Precursor m/z: 215.0961
Precursor type: [M+H]+
m/z	relative intensity	assigned
215.0963	999	C8H15N4OS+
