Mass spectrum: 3,4-Methylenedioxyamphetamine (MDA); LC-ESI-QFT; MS2; CE: 120; R=35000; [M+H]+
Name: 3,4-Methylenedioxyamphetamine (MDA)
Name: 1-(3,4-Methylenedioxyphenyl)-2-aminopropane
Name: 1-(1,3-benzodioxol-5-yl)propan-2-amine
Formula: C10H13NO2
Exact mass: 179.09463
SMILES: CC(CC1=CC2=C(C=C1)OCO2)N
InChI: InChI=1S/C10H13NO2/c1-7(11)4-8-2-3-9-10(5-8)13-6-12-9/h2-3,5,7H,4,6,11H2,1H3
Instrument: Q Exactive Plus Orbitrap Thermo Scientific
Instrument type: LC-ESI-QFT
Ms type: MS2
Ion mode: POSITIVE
Ionization: ESI
Fragmentation mode: HCD
Collision energy: 120 (nominal)
Resolution: 35000
Column name: XBridge C18 3.5um, 2.1x50mm, Waters
Retention time: 3.6 min
Base peak: 180.1013
Precursor m/z: 180.1019
Precursor type: [M+H]+
m/z	relative intensity	assigned
50.0151	70	C4H2+
51.0229	101	C4H3+
53.0385	243	C4H5+
55.0178	78	C3H3O+
63.0228	2	C5H3+
65.0385	215	C5H5+
66.0462	6	C5H6+
67.0541	8	C5H7+
68.997	1	C3HO2+
77.0384	701	C6H5+
78.0463	13	C6H6+
79.0541	999	C6H7+
81.0334	28	C5H5O+
89.0384	19	C7H5+
90.0463	6	C7H6+
91.0541	40	C7H7+
93.0334	22	C6H5O+
94.0412	8	C6H6O+
95.049	693	C6H7O+
102.0463	16	C8H6+
103.0541	584	C8H7+
104.0619	10	C8H8+
105.0334	88	C7H5O+
105.0446	462	C6H5N2+
105.0697	349	C8H9+
106.0416	2	C7H6O+
107.049	7	C7H7O+
111.0438	8	C6H7O2+
115.0541	26	C9H7+
118.0411	2	C8H6O+
121.0282	64	C7H5O2+
122.0361	10	C7H6O2+
131.0492	1	C9H7O+
133.0646	10	C9H9O+
135.0439	206	C8H7O2+
147.0439	81	C9H7O2+
148.0517	9	C9H8O2+
