Mass spectrum: Dexamethasone acetate; LC-ESI-QFT; MS2; CE: 90; R=35000; [M+H]+
Name: Dexamethasone acetate
Name: Dexamethason-21-acetate
Name: [2-(9-fluoro-11,17-dihydroxy-10,13,16-trimethyl-3-oxo-6,7,8,11,12,14,15,16-octahydrocyclopenta[a]phenanthren-17-yl)-2-oxoethyl] acetate
Formula: C24H31FO6
Exact mass: 434.21047
SMILES: CC1CC2C3CCC4=CC(=O)C=CC4(C3(C(CC2(C1(C(=O)COC(=O)C)O)C)O)F)C
InChI: InChI=1S/C24H31FO6/c1-13-9-18-17-6-5-15-10-16(27)7-8-21(15,3)23(17,25)19(28)11-22(18,4)24(13,30)20(29)12-31-14(2)26/h7-8,10,13,17-19,28,30H,5-6,9,11-12H2,1-4H3
Instrument: Q Exactive Plus Orbitrap Thermo Scientific
Instrument type: LC-ESI-QFT
Ms type: MS2
Ion mode: POSITIVE
Ionization: ESI
Fragmentation mode: HCD
Collision energy: 90 (nominal)
Resolution: 35000
Column name: XBridge C18 3.5um, 2.1x50mm, Waters
Retention time: 10.2 min
Base peak: 435.2176
Precursor m/z: 435.2177
Precursor type: [M+H]+
m/z	relative intensity	assigned
50.0151	12	C4H2+
51.0229	16	C4H3+
53.0022	9	C3HO+
53.0386	75	C4H5+
55.0179	43	C3H3O+
55.0543	84	C4H7+
57.0335	24	C3H5O+
59.0491	4	C3H7O+
61.0284	18	C2H5O2+
63.0228	5	C5H3+
65.0386	85	C5H5+
66.0466	2	C5H6+
67.0542	140	C5H7+
67.9894	2	C3O2+
69.0335	44	C4H5O+
69.0699	28	C5H9+
71.0128	21	C3H3O2+
71.0492	18	C4H7O+
77.0385	73	C6H5+
78.0464	12	C6H6+
79.0542	281	C6H7+
80.0619	2	C6H8+
81.0335	16	C5H5O+
81.0699	79	C6H9+
83.0492	15	C5H7O+
91.0543	999	C7H7+
92.0622	4	C7H8+
93.07	167	C7H9+
94.0414	4	C6H6O+
95.0492	250	C6H7O+
95.0856	44	C7H11+
97.0649	18	C6H9O+
102.0464	4	C8H6+
103.0542	130	C8H7+
104.062	26	C8H8+
105.0448	112	C6H5N2+
105.0699	411	C8H9+
107.0492	118	C7H7O+
107.0855	81	C8H11+
108.0569	12	C7H8O+
109.0448	8	C7H6F+
109.0648	46	C7H9O+
109.1011	11	C8H13+
111.0805	4	C7H11O+
115.0543	361	C9H7+
116.0621	112	C9H8+
117.0699	202	C9H9+
119.0605	18	C7H7N2+
119.0856	275	C9H11+
120.0571	4	C8H8O+
121.0648	402	C8H9O+
123.0606	3	C8H8F+
123.0804	20	C8H11O+
125.04	2	C7H6FO+
125.0598	10	C7H9O2+
127.0541	25	C10H7+
128.0621	498	C10H8+
129.0699	215	C10H9+
130.0778	60	C10H10+
131.0492	84	C9H7O+
131.0856	90	C10H11+
132.057	196	C9H8O+
133.0648	30	C9H9O+
133.0762	3	C8H9N2+
133.1013	24	C10H13+
134.0729	2	C9H10O+
135.0804	37	C9H11O+
137.0598	3	C8H9O2+
139.0547	4	C11H7+
140.062	4	C11H8+
141.0699	197	C11H9+
142.0778	97	C11H10+
143.0856	97	C11H11+
144.057	113	C10H8O+
145.0649	199	C10H9O+
145.1012	23	C11H13+
146.0526	9	C10H7F+
146.0728	55	C10H10O+
147.0805	175	C10H11O+
151.0544	4	C12H7+
152.0621	80	C12H8+
153.0699	124	C12H9+
154.0778	46	C12H10+
155.0496	15	C11H7O+
155.0604	63	C10H7N2+
155.0855	94	C12H11+
156.0571	23	C11H8O+
156.0933	17	C12H12+
157.065	58	C11H9O+
157.101	16	C12H13+
158.0727	138	C11H10O+
159.0805	101	C11H11O+
160.0883	4	C11H12O+
161.06	2	C10H9O2+
161.0962	13	C11H13O+
163.0547	3	C13H7+
163.0752	2	C10H11O2+
164.0622	3	C13H8+
165.07	258	C13H9+
166.0778	76	C13H10+
167.0856	93	C13H11+
168.0571	41	C12H8O+
168.0933	16	C13H12+
169.0649	78	C12H9O+
169.0757	5	C11H9N2+
169.1011	19	C13H13+
170.0727	51	C12H10O+
171.0805	152	C12H11O+
172.0883	23	C12H12O+
173.0961	21	C12H13O+
176.0623	4	C14H8+
177.0698	30	C14H9+
178.0777	253	C14H10+
179.0856	392	C14H11+
180.0935	44	C14H12+
181.0648	170	C13H9O+
181.1012	36	C14H13+
182.0727	79	C13H10O+
183.0805	66	C13H11O+
184.0883	18	C13H12O+
185.0962	34	C13H13O+
187.076	2	C12H11O2+
189.0699	184	C15H9+
190.0777	86	C15H10+
191.0856	163	C15H11+
192.0934	102	C15H12+
193.1013	101	C15H13+
194.0727	67	C14H10O+
194.1092	30	C15H14+
195.0805	161	C14H11O+
195.1168	13	C15H15+
196.0884	55	C14H12O+
197.0962	59	C14H13O+
198.1041	3	C14H14O+
199.1116	2	C14H15O+
201.0696	3	C16H9+
202.0777	121	C16H10+
203.0855	170	C16H11+
204.0935	60	C16H12+
205.065	63	C15H9O+
205.1014	81	C16H13+
206.0727	38	C15H10O+
206.109	28	C16H14+
207.0806	171	C15H11O+
207.1168	20	C16H15+
208.0884	91	C15H12O+
209.0963	98	C15H13O+
210.1039	20	C15H14O+
211.0753	10	C14H11O2+
211.112	19	C15H15O+
212.1188	2	C15H16O+
214.0778	3	C17H10+
215.0857	126	C17H11+
216.0935	40	C17H12+
217.1013	47	C17H13+
218.0727	52	C16H10O+
218.1091	13	C17H14+
219.0806	93	C16H11O+
219.1169	23	C17H15+
220.0886	39	C16H12O+
220.1247	8	C17H16+
221.0962	145	C16H13O+
222.1041	84	C16H14O+
223.1119	27	C16H15O+
225.0908	2	C15H13O2+
225.128	3	C16H17O+
226.0775	13	C18H10+
227.0856	39	C18H11+
228.0934	66	C18H12+
229.1014	93	C18H13+
230.1091	21	C18H14+
231.0805	82	C17H11O+
231.1169	19	C18H15+
232.0884	71	C17H12O+
233.0962	73	C17H13O+
233.1325	8	C18H17+
234.1041	33	C17H14O+
235.1119	42	C17H15O+
236.1198	3	C17H16O+
237.1274	8	C17H17O+
238.0981	3	C16H14O2+
239.0854	9	C19H11+
240.0933	4	C19H12+
241.1014	18	C19H13+
242.0726	4	C18H10O+
242.1091	16	C19H14+
243.0805	3	C18H11O+
243.1171	35	C19H15+
244.089	16	
245.0962	68	C18H13O+
245.1319	4	C19H17+
246.1042	55	C18H14O+
247.1118	52	C18H15O+
248.1198	19	C18H16O+
249.1277	4	C18H17O+
252.0935	9	C20H12+
253.1013	16	C20H13+
254.1085	3	C20H14+
255.0807	16	C19H11O+
255.1158	2	C20H15+
256.0885	20	C19H12O+
257.0955	5	C19H13O+
257.1315	2	C20H17+
258.1036	11	C19H14O+
259.1119	16	C19H15O+
260.1194	8	C19H16O+
261.1272	26	C19H17O+
263.1424	2	C19H19O+
269.096	3	C20H13O+
270.1038	13	C20H14O+
271.1114	19	C20H15O+
273.1268	2	C20H17O+
274.0979	2	C19H14O2+
275.1431	4	C20H19O+
285.1279	3	C21H17O+
