Mass spectrum: Warfarin; LC-ESI-QFT; MS2; CE: 45; R=35000; [M-H]-
Name: Warfarin
Name: 2-hydroxy-3-(3-oxo-1-phenylbutyl)chromen-4-one
Name: Coumafen
Formula: C19H16O4
Exact mass: 308.10486
SMILES: O=C\1c3c(OC(/O)=C/1C(c2ccccc2)CC(=O)C)cccc3
InChI: InChI=1S/C19H16O4/c1-12(20)11-15(13-7-3-2-4-8-13)17-18(21)14-9-5-6-10-16(14)23-19(17)22/h2-10,15,22H,11H2,1H3
Instrument: Q Exactive Orbitrap Thermo Scientific
Instrument type: LC-ESI-QFT
Ms type: MS2
Ion mode: NEGATIVE
Ionization: ESI
Fragmentation mode: HCD
Collision energy: 45 (nominal)
Resolution: 35000
Column name: XBridge C18 3.5um, 2.1x50mm, Waters
Retention time: 10.6 min
Base peak: 307.0978
Precursor m/z: 307.0976
Precursor type: [M-H]-
m/z	relative intensity	assigned
57.0346	177	C3H5O-
83.0139	13	C4H3O2-
93.0346	21	C6H5O-
101.0397	1	C8H5-
108.0219	1	C6H4O2-
117.0348	213	C8H5O-
119.0502	3	C8H7O-
130.0424	4	C9H6O-
133.066	14	C9H9O-
135.0455	1	C8H7O2-
157.0661	12	C11H9O-
161.0245	880	C9H5O3-
187.0766	4	C12H11O2-
193.0659	1	C14H9O-
195.0818	6	C14H11O-
205.0658	1	C15H9O-
206.0737	34	C15H10O-
219.0816	2	C16H11O-
221.0612	9	C15H9O2-
221.0974	9	C16H13O-
222.0687	10	C15H10O2-
223.0765	40	C15H11O2-
245.0974	1	C18H13O-
247.0765	1	C17H11O2-
248.0844	3	C17H12O2-
250.0637	999	C16H10O3-
261.0921	10	C18H13O2-
263.1084	1	C18H15O2-
282.0538	3	C16H10O5-
289.0872	3	C19H13O3-
307.0978	46	C19H15O4-
