Mass spectrum: Triclocarban; LC-ESI-ITFT; MS2; CE: 90%; R=15000; [M+H]+
Name: Triclocarban
Name: 1-(4-chlorophenyl)-3-(3,4-dichlorophenyl)urea
Formula: C13H9Cl3N2O
Exact mass: 313.9780
SMILES: Clc2ccc(NC(=O)Nc1ccc(Cl)cc1)cc2Cl
InChI: InChI=1S/C13H9Cl3N2O/c14-8-1-3-9(4-2-8)17-13(19)18-10-5-6-11(15)12(16)7-10/h1-7H,(H2,17,18,19)
Instrument: LTQ Orbitrap XL Thermo Scientific
Instrument type: LC-ESI-ITFT
Ms type: MS2
Ion mode: POSITIVE
Ionization: ESI
Fragmentation mode: HCD
Collision energy: 90 % (nominal)
Resolution: 15000
Column name: XBridge C18 3.5um, 2.1x50mm, Waters
Retention time: 14.8 min
Base peak: 314.9854
Precursor m/z: 314.9853
Precursor type: [M+H]+
m/z	relative intensity	assigned
65.0385	3	C5H5+
86.9997	3	C4H4Cl+
90.0338	3	C6H4N+
91.0417	4	C6H5N+
92.0494	10	C6H6N+
93.0572	421	C6H7N+
98.9995	44	C5H4Cl+
100.0073	11	C5H5Cl+
123.9947	3	C9O+
125.0026	21	C6H4ClN+
126.0104	117	C6H5ClN+
127.0182	999	C6H6ClN+
132.9605	46	C5H3Cl2+
139.0057	17	C6H4ClN2+
159.9713	51	C6H4Cl2N+
172.9668	9	C9ClNO+
314.9862	4	C13H10Cl3N2O+
