Mass spectrum: 2-Chlorobenzenesulfonamide; LC-ESI-QFT; MS2; CE: 90; R=35000; [M+H]+
Name: 2-Chlorobenzenesulfonamide
Name: 2-chlorobenzenesulfonamide
Formula: C6H6ClNO2S
Exact mass: 190.98078
SMILES: C1=CC=C(C(=C1)S(=O)(=O)N)Cl
InChI: InChI=1S/C6H6ClNO2S/c7-5-3-1-2-4-6(5)11(8,9)10/h1-4H,(H2,8,9,10)
Instrument: Q Exactive Orbitrap Thermo Scientific
Instrument type: LC-ESI-QFT
Ms type: MS2
Ion mode: POSITIVE
Ionization: ESI
Fragmentation mode: HCD
Collision energy: 90 (nominal)
Resolution: 35000
Column name: XBridge C18 3.5um, 2.1x50mm, Waters
Retention time: 4.4 min
Base peak: 191.988
Precursor m/z: 191.9881
Precursor type: [M+H]+
m/z	relative intensity	assigned
50.0152	3	C4H2+
53.0022	16	C3HO+
60.9839	1	C2H2Cl+
65.0385	33	C5H5+
74.0151	74	C6H2+
75.0229	999	C6H3+
76.0307	14	C6H4+
79.0178	4	C5H3O+
80.0257	1	C5H4O+
84.9839	75	C4H2Cl+
86.9996	42	C4H4Cl+
93.0334	20	C6H5O+
94.0412	22	C6H6O+
98.0362	1	C5H6O2+
98.9996	8	C5H4Cl+
101.0154	1	C5H6Cl+
110.9995	242	C6H4Cl+
111.044	75	C6H7O2+
114.9943	4	C5H4ClO+
121.0396	11	C6H5N2O+
126.9943	1	C6H4ClO+
129.0101	577	C6H6ClO+
139.0057	615	C6H4ClN2+
