Mass spectrum: Benzisothiazolone (BIT); LC-ESI-ITFT; MS2; CE: 90%; R=15000; [M+H]+
Name: Benzisothiazolone (BIT)
Name: 1,2-Benzisothiazol-3(2H)-one
Name: 1,2-benzothiazol-3-one
Formula: C7H5NOS
Exact mass: 151.0092
SMILES: c12c(cccc2)s[nH]c1=O
InChI: InChI=1S/C7H5NOS/c9-7-5-3-1-2-4-6(5)10-8-7/h1-4H,(H,8,9)
Instrument: LTQ Orbitrap XL Thermo Scientific
Instrument type: LC-ESI-ITFT
Ms type: MS2
Ion mode: POSITIVE
Ionization: ESI
Fragmentation mode: HCD
Collision energy: 90 % (nominal)
Resolution: 15000
Column name: XBridge C18 3.5um, 2.1x50mm, Waters
Retention time: 5.1 min
Base peak: 152.0163
Precursor m/z: 152.0165
Precursor type: [M+H]+
m/z	relative intensity	assigned
53.0386	10	C4H5+
63.0229	11	C5H3+
65.0386	13	C5H5+
68.9793	2	C3HS+
77.0386	23	C6H5+
80.0495	121	C5H6N+
81.0335	3	C5H5O+
90.0339	99	C6H4N+
92.9793	3	C5HS+
97.0107	15	C5H5S+
105.0336	488	C7H5O+
106.9951	28	C6H3S+
108.003	5	C6H4S+
109.0108	643	C6H5S+
119.0368	1	C7H5NO+
124.0216	20	C6H6NS+
132.9982	9	C7H3NS+
134.006	796	C7H4NS+
135.0013	6	C6H3N2S+
135.9978	16	C7H4OS+
152.0166	999	C7H6NOS+
