Mass spectrum: Uvinul-LR; LC-ESI-QFT; MS2; CE: 90%; R=17500; [M+H]+
Name: Uvinul-LR
Name: 2-ethoxyethyl 2-cyano-2-[3-(3-methoxypropylamino)cyclohex-2-en-1-ylidene]acetate
Formula: C17H26N2O4
Exact mass: 322.1893
SMILES: CCOCCOC(=O)C(=C1CCCC(=C1)NCCCOC)C#N
InChI: InChI=1S/C17H26N2O4/c1-3-22-10-11-23-17(20)16(13-18)14-6-4-7-15(12-14)19-8-5-9-21-2/h12,19H,3-11H2,1-2H3
Instrument: Exploris 240 Orbitrap Thermo Scientific
Instrument type: LC-ESI-QFT
Ms type: MS2
Ion mode: POSITIVE
Ionization: ESI
Fragmentation mode: HCD
Collision energy: 90 % (nominal)
Resolution: 17500
Column name: XBridge C18 3.5um, 2.1x50mm, Waters
Retention time: 6.721 min
Base peak: 233.1283
Precursor m/z: 323.1965
Precursor type: [M+H]+
m/z	relative intensity	assigned
54.0339	42	C3H4N+
73.0649	87	C4H9O+
77.0387	59	C6H5+
79.0542	243	C6H7+
89.0384	156	C7H5+
91.0542	651	C7H7+
92.0497	57	C6H6N+
103.0543	62	C8H7+
104.0492	167	C7H6N+
105.0446	169	C6H5N2+
106.0657	119	C7H8N+
116.0495	999	C8H6N+
117.0448	76	C7H5N2+
117.0574	213	C8H7N+
118.065	445	C8H8N+
120.0445	56	C7H6NO+
120.0811	52	C8H10N+
128.0501	58	C9H6N+
130.0651	44	C9H8N+
131.0606	65	C8H7N2+
132.0444	66	C8H6NO+
132.0685	63	C8H8N2+
133.0764	61	C8H9N2+
135.0553	71	C7H7N2O+
143.0604	91	C9H7N2+
144.0444	81	C9H6NO+
145.0761	470	C9H9N2+
146.06	216	C9H8NO+
147.0919	211	C9H11N2+
161.0713	74	C9H9N2O+
173.071	714	C10H9N2O+
173.1072	75	C11H13N2+
201.1025	324	C12H13N2O+
