Mass spectrum: Bufexamac; LC-ESI-QFT; MS2; CE: 75; R=35000; [M-H]-
Name: Bufexamac
Name: 2-(4-butoxyphenyl)-N-hydroxyacetamide
Formula: C12H17NO3
Exact mass: 223.12084
SMILES: CCCCOC1=CC=C(C=C1)CC(=O)NO
InChI: InChI=1S/C12H17NO3/c1-2-3-8-16-11-6-4-10(5-7-11)9-12(14)13-15/h4-7,15H,2-3,8-9H2,1H3,(H,13,14)
Instrument: Q Exactive Orbitrap Thermo Scientific
Instrument type: LC-ESI-QFT
Ms type: MS2
Ion mode: NEGATIVE
Ionization: ESI
Fragmentation mode: HCD
Collision energy: 75 (nominal)
Resolution: 35000
Column name: XBridge C18 3.5um, 2.1x50mm, Waters
Retention time: 8.4 min
Base peak: 222.1136
Precursor m/z: 222.1136
Precursor type: [M-H]-
m/z	relative intensity	assigned
57.9934	327	CNO2-
82.006	21	C4H2O2-
90.035	5	C6H4N-
92.0268	146	C6H4O-
93.0345	38	C6H5O-
95.0139	116	C5H3O2-
95.0502	27	C6H7O-
102.035	11	C7H4N-
108.0217	123	C6H4O2-
118.03	999	C7H4NO-
120.0455	95	C7H6NO-
121.0296	5	C7H5O2-
123.0087	19	C6H3O3-
123.0452	48	C7H7O2-
146.0247	96	C8H4NO2-
147.0327	5	C8H5NO2-
148.0403	8	C8H6NO2-
