Mass spectrum: Flumequine; LC-ESI-QFT; MS2; CE: 15; R=35000; [M+H]+
Name: Flumequine
Name: 9-Fluoro-5-methyl-1-oxo-6,7-dihydro-1H,5H-pyrido[3,2,1-ij]quinoline-2-carboxylic acid
Formula: C14H12FNO3
Exact mass: 261.08012
SMILES: CC1CCC2=C3N1C=C(C(=O)C3=CC(=C2)F)C(=O)O
InChI: InChI=1S/C14H12FNO3/c1-7-2-3-8-4-9(15)5-10-12(8)16(7)6-11(13(10)17)14(18)19/h4-7H,2-3H2,1H3,(H,18,19)
Instrument: Q Exactive Plus Orbitrap Thermo Scientific
Instrument type: LC-ESI-QFT
Ms type: MS2
Ion mode: POSITIVE
Ionization: ESI
Fragmentation mode: HCD
Collision energy: 15 (nominal)
Resolution: 35000
Column name: XBridge C18 3.5um, 2.1x50mm, Waters
Retention time: 7.3 min
Base peak: 262.0868
Precursor m/z: 262.0874
Precursor type: [M+H]+
m/z	relative intensity	assigned
244.0769	300	C14H11FNO2+
262.0874	999	C14H13FNO3+
