Mass spectrum: Fenthion Oxon Sulfone; LC-ESI-QFT; MS2; CE: 60%; R=17500; [M+H]+
Name: Fenthion Oxon Sulfone
Name: dimethyl (3-methyl-4-methylsulfonylphenyl) phosphate
Formula: C10H15O6PS
Exact mass: 294.0327
SMILES: CC1=C(C=CC(=C1)OP(=O)(OC)OC)S(=O)(=O)C
InChI: InChI=1S/C10H15O6PS/c1-8-7-9(16-17(11,14-2)15-3)5-6-10(8)18(4,12)13/h5-7H,1-4H3
Instrument: Exploris 240 Orbitrap Thermo Scientific
Instrument type: LC-ESI-QFT
Ms type: MS2
Ion mode: POSITIVE
Ionization: ESI
Fragmentation mode: HCD
Collision energy: 60 % (nominal)
Resolution: 17500
Column name: XBridge C18 3.5um, 2.1x50mm, Waters
Retention time: 4.335 min
Base peak: 295.0397
Precursor m/z: 295.04
Precursor type: [M+H]+
m/z	relative intensity	assigned
65.0385	77	C5H5+
67.0542	13	C5H7+
77.0385	35	C6H5+
78.0464	292	C6H6+
78.9849	50	CH3O2S+
78.9944	18	CH4O2P+
79.0543	80	C6H7+
89.0388	16	C7H5+
90.0463	40	C7H6+
91.0542	431	C7H7+
93.0334	15	C6H5O+
93.0699	206	C7H9+
94.0416	22	C6H6O+
95.9971	46	CH5O3P+
103.0543	164	C8H7+
104.062	999	C8H8+
105.0698	159	C8H9+
107.049	58	C7H7O+
108.0573	20	C7H8O+
109.0048	104	C2H6O3P+
109.0651	26	C7H9O+
113.0002	16	CH6O4P+
117.0699	30	C9H9+
121.0648	264	C8H9O+
122.073	61	C8H10O+
123.0442	41	C7H7O2+
127.0155	382	C2H8O4P+
139.021	15	C7H7OS+
141.031	41	C3H10O4P+
155.0257	22	C7H8O2P+
184.0284	16	C8H9O3P+
185.0365	64	C8H10O3P+
201.0587	37	C9H13O3S+
215.0472	18	C9H12O4P+
216.0551	55	C9H13O4P+
217.0625	633	C9H14O4P+
263.0148	22	C9H12O5PS+
