Mass spectrum: O-desmethylvenlafaxine; LC-ESI-ITFT; MS2; CE: 75%; R=15000; [M+H]+
Name: O-desmethylvenlafaxine
Name: Desvenlafaxine
Name: 4-[2-(dimethylamino)-1-(1-hydroxycyclohexyl)ethyl]phenol
Formula: C16H25NO2
Exact mass: 263.1885
SMILES: CN(C)CC(C1=CC=C(C=C1)O)C2(CCCCC2)O
InChI: InChI=1S/C16H25NO2/c1-17(2)12-15(13-6-8-14(18)9-7-13)16(19)10-4-3-5-11-16/h6-9,15,18-19H,3-5,10-12H2,1-2H3
Instrument: LTQ Orbitrap XL Thermo Scientific
Instrument type: LC-ESI-ITFT
Ms type: MS2
Ion mode: POSITIVE
Ionization: ESI
Fragmentation mode: HCD
Collision energy: 75 % (nominal)
Resolution: 15000
Column name: XBridge C18 3.5um, 2.1x50mm, Waters
Retention time: 4.8 min
Base peak: 264.1971
Precursor m/z: 264.1958
Precursor type: [M+H]+
m/z	relative intensity	assigned
58.0652	999	C3H8N+
67.0542	6	C5H7+
77.0383	5	C6H5+
79.0542	38	C6H7+
81.0699	68	C6H9+
91.0543	10	C7H7+
99.0805	6	C6H11O+
105.0699	44	C8H9+
107.0492	552	C7H7O+
121.0649	23	C8H9O+
131.049	6	C9H7O+
131.0859	8	C10H11+
133.0648	236	C9H9O+
144.0569	11	C10H8O+
145.0648	48	C10H9O+
147.0807	5	C10H11O+
149.0835	11	C9H11NO+
159.0805	67	C11H11O+
163.0994	10	C10H13NO+
