Mass spectrum: Triallate; LC-ESI-QFT; MS2; CE: 15; R=35000; [M+H]+
Name: Triallate
Name: S-(2,3,3-trichloroprop-2-enyl) N,N-di(propan-2-yl)carbamothioate
Formula: C10H16Cl3NOS
Exact mass: 303.00182
SMILES: CC(C)N(C(C)C)C(=O)SCC(=C(Cl)Cl)Cl
InChI: InChI=1S/C10H16Cl3NOS/c1-6(2)14(7(3)4)10(15)16-5-8(11)9(12)13/h6-7H,5H2,1-4H3
Instrument: Q Exactive Plus Orbitrap Thermo Scientific
Instrument type: LC-ESI-QFT
Ms type: MS2
Ion mode: POSITIVE
Ionization: ESI
Fragmentation mode: HCD
Collision energy: 15 (nominal)
Resolution: 35000
Column name: XBridge C18 3.5um, 2.1x50mm, Waters
Retention time: 15.9 min
Base peak: 279.1584
Precursor m/z: 304.0091
Precursor type: [M+H]+
m/z	relative intensity	assigned
86.06	145	C4H8NO+
111.1168	8	C8H15+
128.1069	134	C7H14NO+
140.9326	4	C3H3Cl2S+
142.9212	14	C3H2Cl3+
176.9093	2	C3H4Cl3S+
218.9564	2	C6H10Cl3S+
261.9621	56	C7H11Cl3NOS+
304.0089	999	C10H17Cl3NOS+
