Mass spectrum: Etaconazole; LC-ESI-QFT; MS2; CE: 180%; R=17500; [M+H]+
Name: Etaconazole
Name: 1-[[2-(2,4-dichlorophenyl)-4-ethyl-1,3-dioxolan-2-yl]methyl]-1,2,4-triazole
Formula: C14H15Cl2N3O2
Exact mass: 327.0541
SMILES: CCC1COC(O1)(CN2C=NC=N2)C3=C(C=C(C=C3)Cl)Cl
InChI: InChI=1S/C14H15Cl2N3O2/c1-2-11-6-20-14(21-11,7-19-9-17-8-18-19)12-4-3-10(15)5-13(12)16/h3-5,8-9,11H,2,6-7H2,1H3
Instrument: Exploris 240 Orbitrap Thermo Scientific
Instrument type: LC-ESI-QFT
Ms type: MS2
Ion mode: POSITIVE
Ionization: ESI
Fragmentation mode: HCD
Collision energy: 180 % (nominal)
Resolution: 17500
Column name: XBridge C18 3.5um, 2.1x50mm, Waters
Retention time: 9.806 min
Base peak: 328.0612
Precursor m/z: 328.0614
Precursor type: [M+H]+
m/z	relative intensity	assigned
53.0386	15	C4H5+
55.0542	22	C4H7+
62.0152	65	C5H2+
63.0229	278	C5H3+
70.04	25	C2H4N3+
72.9839	563	C3H2Cl+
74.0151	196	C6H2+
75.023	43	C6H3+
88.0307	64	C7H4+
89.0385	999	C7H5+
96.9839	142	C5H2Cl+
98.9996	154	C5H4Cl+
108.9838	172	C6H2Cl+
122.9994	157	C7H4Cl+
124.0077	38	C7H5Cl+
132.9608	53	C5H3Cl2+
