Mass spectrum: 1-Methyluric acid; LC-ESI-QFT; MS2; CE: 15%; R=17500; [M-H]-
Name: 1-Methyluric acid
Name: 1-methyl-7,9-dihydro-3H-purine-2,6,8-trione
Formula: C6H6N4O3
Exact mass: 182.0439901
SMILES: CN1C(=O)C2=C(NC(=O)N2)NC1=O
InChI: InChI=1S/C6H6N4O3/c1-10-4(11)2-3(9-6(10)13)8-5(12)7-2/h1H3,(H,9,13)(H2,7,8,12)
Instrument: Exploris 240 Orbitrap Thermo Scientific
Instrument type: LC-ESI-QFT
Ms type: MS2
Ion mode: NEGATIVE
Ionization: ESI
Fragmentation mode: HCD
Collision energy: 15 % (nominal)
Resolution: 17500
Column name: XBridge C18 3.5um, 2.1x50mm, Waters
Retention time: 1.504 min
Base peak: 181.0367
Precursor m/z: 181.0367
Precursor type: [M-H]-
m/z	relative intensity	assigned
138.0308	12	C5H4N3O2-
181.0368	999	C6H5N4O3-
