Mass spectrum: Fluoxastrobin; LC-ESI-QFT; MS2; CE: 15; R=35000; [M+H]+
Name: Fluoxastrobin
Name: (E)-[[2-[6-(2-chlorophenoxy)-5-fluoro-pyrimidin-4-yl]oxyphenyl]-(5,6-dihydro-1,4,2-dioxazin-3-yl)methylene]-methoxy-amine
Formula: C21H16ClFN4O5
Exact mass: 458.07933
SMILES: Clc4ccccc4Oc3ncnc(Oc2ccccc2C(=N\OC)/C=1OCCON=1)c3F
InChI: InChI=1S/C21H16ClFN4O5/c1-28-26-18(21-27-30-11-10-29-21)13-6-2-4-8-15(13)31-19-17(23)20(25-12-24-19)32-16-9-5-3-7-14(16)22/h2-9,12H,10-11H2,1H3/b26-18+
Instrument: Q Exactive Orbitrap Thermo Scientific
Instrument type: LC-ESI-QFT
Ms type: MS2
Ion mode: POSITIVE
Ionization: ESI
Fragmentation mode: HCD
Collision energy: 15 (nominal)
Resolution: 35000
Column name: XBridge C18 3.5um, 2.1x50mm, Waters
Retention time: 11.5 min
Base peak: 459.0867
Precursor m/z: 459.0866
Precursor type: [M+H]+
m/z	relative intensity	assigned
188.038	3	C10H5FN2O+
231.0197	1	C11H4FN2O3+
246.0309	1	C11H5FN3O3+
383.0341	12	C18H9ClFN4O3+
427.0602	999	C20H13ClFN4O4+
459.0865	865	C21H17ClFN4O5+
