Mass spectrum: Isopropalin; LC-ESI-QFT; MS2; CE: 90%; R=17500; [M+H]+
Name: Isopropalin
Name: 2,6-dinitro-4-propan-2-yl-N,N-dipropylaniline
Formula: C15H23N3O4
Exact mass: 309.1689
SMILES: CCCN(CCC)C1=C(C=C(C=C1[N+](=O)[O-])C(C)C)[N+](=O)[O-]
InChI: InChI=1S/C15H23N3O4/c1-5-7-16(8-6-2)15-13(17(19)20)9-12(11(3)4)10-14(15)18(21)22/h9-11H,5-8H2,1-4H3
Instrument: Exploris 240 Orbitrap Thermo Scientific
Instrument type: LC-ESI-QFT
Ms type: MS2
Ion mode: POSITIVE
Ionization: ESI
Fragmentation mode: HCD
Collision energy: 90 % (nominal)
Resolution: 17500
Column name: XBridge C18 3.5um, 2.1x50mm, Waters
Retention time: 15.043 min
Base peak: 310.1757
Precursor m/z: 310.1761
Precursor type: [M+H]+
m/z	relative intensity	assigned
57.0335	91	C3H5O+
65.0386	191	C5H5+
67.054	108	C5H7+
77.0386	238	C6H5+
78.0338	130	C5H4N+
79.0542	326	C6H7+
80.0496	147	C5H6N+
91.0541	999	C7H7+
92.0494	203	C6H6N+
93.0574	88	C6H7N+
94.0653	134	C6H8N+
103.0544	139	C8H7+
104.0496	309	C7H6N+
105.045	262	C6H5N2+
105.0698	150	C8H9+
106.065	402	C7H8N+
116.0495	459	C8H6N+
117.0574	372	C8H7N+
118.0652	864	C8H8N+
119.0608	89	C7H7N2+
119.0729	91	C8H9N+
120.0811	148	C8H10N+
130.0651	250	C9H8N+
131.0606	291	C8H7N2+
132.0573	111	C9H8O+
132.0686	380	C8H8N2+
132.0812	230	C9H10N+
133.0764	606	C8H9N2+
133.0881	143	C9H11N+
134.0476	161	C7H6N2O+
134.0961	114	C9H12N+
135.0556	106	C7H7N2O+
143.0603	124	C9H7N2+
144.0682	239	C9H8N2+
145.0761	643	C9H9N2+
146.0838	137	C9H10N2+
157.0763	189	C10H9N2+
159.0917	235	C10H11N2+
160.063	138	C9H8N2O+
160.0993	467	C10H12N2+
161.071	458	C9H9N2O+
164.0584	279	C8H8N2O2+
171.0918	438	C11H11N2+
172.0997	360	C11H12N2+
173.1075	276	C11H13N2+
175.087	103	C10H11N2O+
176.0943	152	C10H12N2O+
187.1228	158	C12H15N2+
188.131	490	C12H16N2+
190.0615	133	C9H8N3O2+
194.0562	231	C8H8N3O3+
