Mass spectrum: Octocrylene; LC-ESI-QFT; MS2; CE: 180; R=35000; [M+H]+
Name: Octocrylene
Name: [(2R)-2-ethylhexyl] 2-cyano-3,3-diphenylprop-2-enoate
Formula: C24H27NO2
Exact mass: 361.20418
SMILES: C(\c1ccccc1)(c1ccccc1)=C(/C(OC[C@@H](CCCC)CC)=O)C#N
InChI: InChI=1S/C24H27NO2/c1-3-5-12-19(4-2)18-27-24(26)22(17-25)23(20-13-8-6-9-14-20)21-15-10-7-11-16-21/h6-11,13-16,19H,3-5,12,18H2,1-2H3/t19-/m1/s1
Instrument: Q Exactive Plus Orbitrap Thermo Scientific
Instrument type: LC-ESI-QFT
Ms type: MS2
Ion mode: POSITIVE
Ionization: ESI
Fragmentation mode: HCD
Collision energy: 180 (nominal)
Resolution: 35000
Column name: XBridge C18 3.5um, 2.1x50mm, Waters
Retention time: 17.2 min
Base peak: 250.086
Precursor m/z: 362.2115
Precursor type: [M+H]+
m/z	relative intensity	assigned
50.0151	448	C4H2+
51.023	999	C4H3+
52.0182	4	C3H2N+
52.0308	14	C4H4+
53.0022	32	C3HO+
53.0386	98	C4H5+
53.9974	6	C2NO+
61.0073	13	
62.0151	14	
63.023	63	C5H3+
65.0022	26	C4HO+
65.0385	15	C5H5+
68.997	6	C3HO2+
74.0151	250	C6H2+
75.0229	348	C6H3+
76.0181	17	C5H2N+
76.0307	103	C6H4+
77.0385	260	C6H5+
78.0464	50	C6H6+
81.0334	3	C5H5O+
86.015	31	
87.0229	61	C7H3+
89.0386	37	C7H5+
91.0544	3	C7H7+
95.0492	315	C6H7O+
98.0152	207	C8H2+
99.0103	15	
99.0229	131	C8H3+
100.0181	17	C7H2N+
100.0308	49	C8H4+
101.0385	5	C8H5+
102.0464	141	C8H6+
105.0448	185	C6H5N2+
110.0154	29	C9H2+
111.0228	25	C9H3+
113.0386	15	C9H5+
115.0544	39	C9H7+
122.0151	44	C10H2+
123.0229	65	C10H3+
124.0308	33	C10H4+
125.0387	62	C10H5+
126.0464	205	C10H6+
127.0417	13	C9H5N+
127.0542	18	C10H7+
128.0621	38	C10H8+
129.034	3	C9H5O+
129.0447	20	C8H5N2+
137.0387	15	C11H5+
139.0542	44	C11H7+
140.0498	4	C10H6N+
145.0651	4	C10H9O+
149.0387	86	C12H5+
150.0465	970	C12H6+
151.0419	25	C11H5N+
151.0543	52	C12H7+
152.0621	94	C12H8+
153.0572	4	C11H7N+
155.0602	16	C10H7N2+
162.0465	7	C13H6+
163.0543	46	C13H7+
164.0501	4	C12H6N+
167.0491	48	C12H7O+
169.0648	184	C12H9O+
173.0387	12	
174.0465	286	C14H6+
175.0419	64	C13H5N+
175.054	49	C14H7+
176.0621	328	C14H8+
177.0574	36	C13H7N+
177.0695	5	C14H9+
179.0487	5	C13H7O+
179.0605	61	C12H7N2+
185.0599	47	C12H9O2+
193.0648	111	C14H9O+
194.0602	28	C13H8NO+
201.0574	120	C15H7N+
202.0647	3	C15H8N+
203.0605	35	C14H7N2+
204.0557	29	C13H6N3+
