Mass spectrum: Timolol; LC-ESI-QFT; MS2; CE: 45; R=35000; [M+H]+
Name: Timolol
Name: 1-(tert-butylamino)-3-[(4-morpholin-4-yl-1,2,5-thiadiazol-3-yl)oxy]propan-2-ol
Formula: C13H24N4O3S
Exact mass: 316.15691
SMILES: CC(C)(C)NCC(O)COC1=NSN=C1N1CCOCC1
InChI: InChI=1S/C13H24N4O3S/c1-13(2,3)14-8-10(18)9-20-12-11(15-21-16-12)17-4-6-19-7-5-17/h10,14,18H,4-9H2,1-3H3
Instrument: Q Exactive Plus Orbitrap Thermo Scientific
Instrument type: LC-ESI-QFT
Ms type: MS2
Ion mode: POSITIVE
Ionization: ESI
Fragmentation mode: HCD
Collision energy: 45 (nominal)
Resolution: 35000
Column name: XBridge C18 3.5um, 2.1x50mm, Waters
Retention time: 4.9 min
Base peak: 317.164
Precursor m/z: 317.1642
Precursor type: [M+H]+
m/z	relative intensity	assigned
56.0495	126	C3H6N+
57.0699	123	C4H9+
74.06	999	C3H8NO+
86.06	13	C4H8NO+
100.0756	1	C5H10NO+
104.0165	1	C3H6NOS+
113.0708	33	C5H9N2O+
118.0321	2	C4H8NOS+
130.1227	9	C7H16NO+
132.0114	1	C4H6NO2S+
144.0226	42	C4H6N3OS+
145.043	22	C5H9N2OS+
158.0924	5	C6H12N3O2+
159.0223	8	C5H7N2O2S+
170.0385	2	C6H8N3OS+
172.0539	13	C6H10N3OS+
175.0534	1	C6H11N2O2S+
188.0488	383	C6H10N3O2S+
200.0488	19	C7H10N3O2S+
214.0644	3	C8H12N3O2S+
232.0749	1	C8H14N3O3S+
243.0911	25	C9H15N4O2S+
244.0751	432	C9H14N3O3S+
261.1016	122	C9H17N4O3S+
317.1642	4	C13H25N4O3S+
