Mass spectrum: 1-Hydroxybenzotriazole; LC-ESI-QFT; MS2; CE: 180; R=35000; [M+H]+
Name: 1-Hydroxybenzotriazole
Formula: C6H5N3O
Exact mass: 135.04326
SMILES: C1=CC=C2C(=C1)N=NN2O
InChI: InChI=1S/C6H5N3O/c10-9-6-4-2-1-3-5(6)7-8-9/h1-4,10H
Instrument: Q Exactive Plus Orbitrap Thermo Scientific
Instrument type: LC-ESI-QFT
Ms type: MS2
Ion mode: POSITIVE
Ionization: ESI
Fragmentation mode: HCD
Collision energy: 180 (nominal)
Resolution: 35000
Column name: XBridge C18 3.5um, 2.1x50mm, Waters
Retention time: 3.0 min
Base peak: 136.0506
Precursor m/z: 136.0505
Precursor type: [M+H]+
m/z	relative intensity	assigned
50.0152	20	C4H2+
51.0104	3	C3HN+
51.023	26	C4H3+
52.0183	213	C3H2N+
53.0023	12	C3HO+
53.0386	7	C4H5+
53.9975	4	C2NO+
54.0339	1	C3H4N+
54.0465	18	C4H6+
61.0073	17	C5H+
62.0152	95	C5H2+
63.023	999	C5H3+
64.0182	14	
64.0308	174	C5H4+
65.0261	147	C4H3N+
67.9893	2	C3O2+
75.0104	5	C5HN+
76.0182	42	C5H2N+
77.0386	11	C6H5+
78.0339	2	C5H4N+
78.0464	10	C6H6+
81.0336	4	C5H5O+
90.0339	10	C6H4N+
91.0418	37	C6H5N+
92.037	1	C5H4N2+
105.0448	5	C6H5N2+
