Mass spectrum: Enoxastrobin; LC-ESI-QFT; MS2; CE: 180%; R=17500; [M+H]+
Name: Enoxastrobin
Name: methyl 2-[2-[[4-(4-chlorophenyl)but-3-en-2-ylideneamino]oxymethyl]phenyl]-3-methoxyprop-2-enoate
Formula: C22H22ClNO4
Exact mass: 399.1237
SMILES: CC(=NOCC1=CC=CC=C1C(=COC)C(=O)OC)C=CC2=CC=C(C=C2)Cl
InChI: InChI=1S/C22H22ClNO4/c1-16(8-9-17-10-12-19(23)13-11-17)24-28-14-18-6-4-5-7-20(18)21(15-26-2)22(25)27-3/h4-13,15H,14H2,1-3H3
Instrument: Exploris 240 Orbitrap Thermo Scientific
Instrument type: LC-ESI-QFT
Ms type: MS2
Ion mode: POSITIVE
Ionization: ESI
Fragmentation mode: HCD
Collision energy: 180 % (nominal)
Resolution: 17500
Column name: XBridge C18 3.5um, 2.1x50mm, Waters
Retention time: 13.142 min
Base peak: 400.1307
Precursor m/z: 400.131
Precursor type: [M+H]+
m/z	relative intensity	assigned
50.0151	221	C4H2+
51.0229	212	C4H3+
52.0308	50	C4H4+
53.0387	41	C4H5+
63.0229	136	C5H3+
65.0385	132	C5H5+
74.0151	391	C6H2+
75.0229	763	C6H3+
76.0307	515	C6H4+
77.0386	155	C6H5+
78.0463	28	C6H6+
89.0386	70	C7H5+
91.0542	112	C7H7+
95.0493	61	C6H7O+
101.0387	14	C8H5+
102.0464	999	C8H6+
103.0543	121	C8H7+
115.0543	110	C9H7+
