Mass spectrum: Chlordiazepoxide; LC-ESI-QFT; MS2; CE: 90; R=35000; [M-H]-
Name: Chlordiazepoxide
Name: Zetran
Name: 7-chloro-4-hydroxy-N-methyl-5-phenyl-3H-1,4-benzodiazepin-2-imine
Formula: C16H14ClN3O
Exact mass: 299.08254
SMILES: CN=C1CN(C(=C2C=C(C=CC2=N1)Cl)C3=CC=CC=C3)O
InChI: InChI=1S/C16H14ClN3O/c1-18-15-10-20(21)16(11-5-3-2-4-6-11)13-9-12(17)7-8-14(13)19-15/h2-9,21H,10H2,1H3
Instrument: Q Exactive Plus Orbitrap Thermo Scientific
Instrument type: LC-ESI-QFT
Ms type: MS2
Ion mode: NEGATIVE
Ionization: ESI
Fragmentation mode: HCD
Collision energy: 90 (nominal)
Resolution: 35000
Column name: XBridge C18 3.5um, 2.1x50mm, Waters
Retention time: 6.2 min
Base peak: 298.0748
Precursor m/z: 298.0753
Precursor type: [M-H]-
m/z	relative intensity	assigned
55.0301	58	C2H3N2-
65.9985	5	C3NO-
141.0455	3	C9H5N2-
145.0407	25	C8H5N2O-
190.0662	98	C14H8N-
191.0619	6	C13H7N2-
202.0534	60	C14H6N2-
215.0613	191	C15H7N2-
217.077	288	C15H9N2-
219.0564	15	C14H7N2O-
224.027	17	C14H7ClN-
226.0428	80	C14H9ClN-
238.0302	999	C14H7ClN2-
239.0384	24	C14H8ClN2-
251.038	284	C15H8ClN2-
253.0536	191	C15H10ClN2-
