Mass spectrum: Rosuvastatin; LC-ESI-ITFT; MS2; CE: 35%; R=7500; [M+H]+
Name: Rosuvastatin
Name: (E,3R,5S)-7-[4-(4-fluorophenyl)-2-[methyl(methylsulfonyl)amino]-6-propan-2-ylpyrimidin-5-yl]-3,5-dihydroxyhept-6-enoic acid
Formula: C22H28FN3O6S
Exact mass: 481.16828
SMILES: CC(C)C1=NC(=NC(=C1/C=C/[C@H](C[C@H](CC(=O)O)O)O)C2=CC=C(C=C2)F)N(C)S(=O)(=O)C
InChI: InChI=1S/C22H28FN3O6S/c1-13(2)20-18(10-9-16(27)11-17(28)12-19(29)30)21(14-5-7-15(23)8-6-14)25-22(24-20)26(3)33(4,31)32/h5-10,13,16-17,27-28H,11-12H2,1-4H3,(H,29,30)/b10-9+/t16-,17-/m1/s1
Instrument: LTQ Orbitrap XL Thermo Scientific
Instrument type: LC-ESI-ITFT
Ms type: MS2
Ion mode: POSITIVE
Ionization: ESI
Fragmentation mode: CID
Collision energy: 35 % (nominal)
Resolution: 7500
Column name: XBridge C18 3.5um, 2.1x50mm, Waters
Retention time: 9.2 min
Base peak: 482.1762
Precursor m/z: 482.1756
Precursor type: [M+H]+
m/z	relative intensity	assigned
217.1003	21	C12H12FN3+
242.1088	4	C14H13FN3+
243.1167	8	C14H14FN3+
246.1396	9	C11H22N2O2S+
254.1093	5	C12H18N2O2S+
255.1184	6	C9H20FN2O3S+
256.1241	45	C12H20N2O2S+
257.132	32	C12H21N2O2S+
258.14	141	C15H17FN3+
268.1245	17	C16H15FN3+
270.14	176	C16H17FN3+
271.1481	23	C13H23N2O2S+
272.1555	86	C16H19FN3+
282.1397	44	C14H22N2O2S+
296.1564	17	C18H19FN3+
298.1362	3	C17H17FN3O+
298.1723	5	C12H27FN2O3S+
300.151	26	C22H20O+
308.1558	48	C19H19FN3+
314.1671	32	C18H21FN3O+
322.1692	8	C11H29FNO6S+
334.102	22	C16H17FN3O2S+
350.1332	56	C17H21FN3O2S+
367.1683	60	C18H27N2O4S+
368.1767	45	C21H23FN3O2+
376.1489	387	C19H23FN3O2S+
378.1277	29	C18H21FN3O3S+
386.1875	15	C21H25FN3O3+
400.1488	41	C21H23FN3O2S+
402.1638	246	C21H25FN3O2S+
404.1426	21	C20H23FN3O3S+
404.1978	139	C21H27FN3O4+
420.175	146	C21H27FN3O3S+
422.1543	200	C20H25FN3O4S+
428.1435	9	C22H23FN3O3S+
446.1541	999	C22H25FN3O4S+
464.1648	647	C22H27FN3O5S+
