Mass spectrum: Proquinazid; LC-ESI-QFT; MS2; CE: 90; R=35000; [M+H]+
Name: Proquinazid
Name: 6-Iodo-2-propoxy-3-propylquinazolin-4-one
Formula: C14H17IN2O2
Exact mass: 372.03348
SMILES: CCCN1C(=O)C2=C(C=CC(=C2)I)N=C1OCCC
InChI: InChI=1S/C14H17IN2O2/c1-3-7-17-13(18)11-9-10(15)5-6-12(11)16-14(17)19-8-4-2/h5-6,9H,3-4,7-8H2,1-2H3
Instrument: Q Exactive Plus Orbitrap Thermo Scientific
Instrument type: LC-ESI-QFT
Ms type: MS2
Ion mode: POSITIVE
Ionization: ESI
Fragmentation mode: HCD
Collision energy: 90 (nominal)
Resolution: 35000
Column name: XBridge C18 3.5um, 2.1x50mm, Waters
Retention time: 16.6 min
Base peak: 373.0401
Precursor m/z: 373.0408
Precursor type: [M+H]+
m/z	relative intensity	assigned
52.0308	1	C4H4+
53.0022	2	C3HO+
61.0073	1	C5H+
62.0151	25	C5H2+
63.0103	1	C4HN+
63.0229	3	C5H3+
64.0308	4	C5H4+
65.026	7	C4H3N+
66.0101	19	C4H2O+
67.0417	1	C4H5N+
76.0182	1	C5H2N+
77.0259	1	C5H3N+
79.0417	9	C5H5N+
88.0182	17	C6H2N+
89.026	76	C6H3N+
90.0339	3	C6H4N+
91.0417	29	C6H5N+
92.0257	44	C6H4O+
93.021	1	C5H3NO+
101.0262	2	C7H3N+
107.0365	2	C6H5NO+
116.037	57	C7H4N2+
117.021	264	C7H3NO+
118.0525	1	C7H6N2+
119.0367	74	C7H5NO+
121.0159	6	C6H3NO2+
135.0316	7	C7H5NO2+
137.0473	34	C7H7NO2+
140.9198	3	CH2I+
144.032	28	C8H4N2O+
145.016	231	C8H3NO2+
146.0238	9	C8H4NO2+
148.0031	3	C7H2NO3+
151.0629	1	C8H9NO2+
162.0425	80	C8H6N2O2+
163.0264	1	C8H5NO3+
164.9198	9	C3H2I+
176.0219	15	C8H4N2O3+
177.0058	164	
188.9198	6	C5H2I+
190.9353	1	C5H4I+
194.0325	36	
215.9307	999	C6H3IN+
217.9463	10	C6H5IN+
242.9416	24	C7H4IN2+
245.9413	1	C7H5INO+
270.9365	35	C8H4IN2O+
271.9205	260	C8H3INO2+
288.947	11	C8H6IN2O2+
303.9474	2	C9H7INO3+
