Mass spectrum: Irgarol; LC-ESI-ITFT; MS2; CE: 75%; R=7500; [M+H]+
Name: Irgarol
Name: 2-N-tert-butyl-4-N-cyclopropyl-6-methylsulfanyl-1,3,5-triazine-2,4-diamine
Formula: C11H19N5S
Exact mass: 253.1356
SMILES: c1(nc(NC(C)(C)C)nc(n1)SC)NC1CC1
InChI: InChI=1S/C11H19N5S/c1-11(2,3)16-9-13-8(12-7-5-6-7)14-10(15-9)17-4/h7H,5-6H2,1-4H3,(H2,12,13,14,15,16)
Instrument: LTQ Orbitrap XL Thermo Scientific
Instrument type: LC-ESI-ITFT
Ms type: MS2
Ion mode: POSITIVE
Ionization: ESI
Fragmentation mode: HCD
Collision energy: 75 % (nominal)
Resolution: 7500
Column name: XBridge C18 3.5um, 2.1x50mm, Waters
Retention time: 9.2 min
Base peak: 254.1437
Precursor m/z: 254.1434
Precursor type: [M+H]+
m/z	relative intensity	assigned
54.0339	15	C3H4N+
55.029	24	C2H3N2+
56.0494	418	C3H6N+
57.0699	17	C4H9+
58.065	67	C3H8N+
68.0242	261	C2H2N3+
70.0399	21	C2H4N3+
74.0058	319	C2H4NS+
81.0447	152	C4H5N2+
83.0603	792	C4H7N2+
85.0507	31	C2H5N4+
87.0262	82	C4H7S+
91.0324	853	C2H7N2S+
108.0555	863	C5H6N3+
114.037	108	C5H8NS+
116.0276	303	C3H6N3S+
125.0821	279	C5H9N4+
150.0773	208	C6H8N5+
152.0931	10	C6H10N5+
156.0341	33	C4H6N5S+
156.0589	368	C6H10N3S+
158.049	32	C4H8N5S+
168.0333	28	C5H6N5S+
170.0494	75	C5H8N5S+
171.0697	23	C6H11N4S+
198.0804	999	C7H12N5S+
