Mass spectrum: Olanzapine; LC-ESI-QFT; MS2; CE: 120; R=35000; [M+H]+
Name: Olanzapine
Name: 2-methyl-4-(4-methylpiperazin-1-yl)-5H-thieno[3,2-c][1,5]benzodiazepine
Formula: C17H20N4S
Exact mass: 312.14087
SMILES: CC1=CC2=C(NC3=CC=CC=C3N=C2S1)N4CCN(CC4)C
InChI: InChI=1S/C17H20N4S/c1-12-11-13-16(21-9-7-20(2)8-10-21)18-14-5-3-4-6-15(14)19-17(13)22-12/h3-6,11,18H,7-10H2,1-2H3
Instrument: Q Exactive Plus Orbitrap Thermo Scientific
Instrument type: LC-ESI-QFT
Ms type: MS2
Ion mode: POSITIVE
Ionization: ESI
Fragmentation mode: HCD
Collision energy: 120 (nominal)
Resolution: 35000
Column name: XBridge C18 3.5um, 2.1x50mm, Waters
Retention time: 3.1 min
Base peak: 313.1474
Precursor m/z: 313.1481
Precursor type: [M+H]+
m/z	relative intensity	assigned
50.0151	13	C4H2+
51.0229	12	C4H3+
52.0182	5	C3H2N+
53.0022	2	C3HO+
53.0386	34	C4H5+
54.0338	8	C3H4N+
55.0542	3	C4H7+
56.0495	38	C3H6N+
57.0573	3	C3H7N+
57.9871	6	C2H2S+
58.0651	123	C3H8N+
58.995	66	C2H3S+
59.9665	2	COS+
59.9902	2	CH2NS+
63.0228	18	C5H3+
64.0181	11	C4H2N+
64.0306	1	C5H4+
65.0386	173	C5H5+
66.0338	3	C4H4N+
66.0464	3	C5H6+
67.0417	15	C4H5N+
68.0494	7	C4H6N+
68.9793	90	C3HS+
69.0573	10	C4H7N+
69.9746	10	C2NS+
69.9872	10	C3H2S+
70.0652	11	C4H8N+
70.995	49	C3H3S+
72.0807	6	C4H10N+
74.015	2	C6H2+
75.0228	21	C6H3+
76.0181	2	C5H2N+
76.0307	3	C6H4+
77.0385	36	C6H5+
78.0338	19	C5H4N+
78.0464	7	C6H6+
79.0417	2	C5H5N+
79.0542	8	C6H7+
80.0494	15	C5H6N+
81.0334	3	C5H5O+
81.9871	1	C4H2S+
82.0651	11	C5H8N+
82.995	22	C4H3S+
84.0028	2	C4H4S+
84.0808	20	C5H10N+
85.0107	20	C4H5S+
85.076	31	C4H9N2+
88.0308	2	C7H4+
89.0386	75	C7H5+
90.0339	23	C6H4N+
90.0464	23	C7H6+
91.0417	8	C6H5N+
91.0542	31	C7H7+
92.0495	42	C6H6N+
93.0573	8	C6H7N+
93.9743	1	C4NS+
94.0649	3	C6H8N+
95.0491	54	C6H7O+
95.9902	39	C4H2NS+
96.0028	9	C5H4S+
96.0444	19	C5H6NO+
97.0107	7	C5H5S+
99.023	6	C8H3+
100.0307	3	C8H4+
101.0386	9	C8H5+
102.0337	20	C7H4N+
102.0464	190	C8H6+
103.0416	17	C7H5N+
103.0542	13	C8H7+
104.0494	43	C7H6N+
105.0447	49	C6H5N2+
106.0652	9	C7H8N+
106.9948	1	C6H3S+
108.0028	21	C6H4S+
109.0107	160	C6H5S+
110.006	10	C5H4NS+
111.0263	2	C6H7S+
113.0386	15	C9H5+
114.034	22	C8H4N+
114.0463	13	C9H6+
115.0542	999	C9H7+
116.0495	143	C8H6N+
116.0618	11	C9H8+
117.0573	73	C8H7N+
117.0698	7	C9H9+
118.0413	2	C8H6O+
118.0525	18	C7H6N2+
118.065	17	C8H8N+
119.0491	7	C8H7O+
119.0604	15	C7H7N2+
120.0028	16	C7H4S+
120.0443	7	C7H6NO+
120.998	9	C6H3NS+
121.0108	15	C7H5S+
122.0059	18	C6H4NS+
122.0185	72	C7H6S+
123.0135	1	C6H5NS+
124.0215	1	C6H6NS+
125.0386	44	C10H5+
126.0339	2	C9H4N+
126.0464	47	C10H6+
127.0417	254	C9H5N+
127.0542	29	C10H7+
128.0495	98	C9H6N+
128.062	28	C10H8+
129.0447	62	C8H5N2+
129.0573	26	C9H7N+
130.04	40	C7H4N3+
130.0652	14	C9H8N+
131.0605	20	C8H7N2+
132.0445	1	C8H6NO+
132.057	3	C9H8O+
132.0682	10	C8H8N2+
132.9978	2	C7H3NS+
133.0521	2	C8H7NO+
133.076	1	C8H9N2+
134.0058	15	C7H4NS+
134.0185	8	C8H6S+
134.06	15	C8H8NO+
135.0137	2	C7H5NS+
136.0216	18	C7H6NS+
137.0171	2	C6H5N2S+
139.0416	1	C10H5N+
139.0543	9	C11H7+
140.0495	283	C10H6N+
141.0446	10	C9H5N2+
141.0573	89	C10H7N+
142.0527	100	C9H6N2+
142.0652	203	C10H8N+
143.0489	7	C10H7O+
143.0605	77	C9H7N2+
143.0729	7	C10H9N+
144.0029	8	C9H4S+
144.0443	6	C9H6NO+
144.056	2	C8H6N3+
144.9982	10	C8H3NS+
145.0106	52	C9H5S+
145.0648	27	C10H9O+
145.0761	2	C9H9N2+
146.006	129	C8H4NS+
146.0185	398	C9H6S+
146.06	28	C9H8NO+
147.0138	26	C8H5NS+
147.0553	3	C8H7N2O+
148.0215	13	C8H6NS+
149.0055	12	C8H5OS+
149.0169	1	C7H5N2S+
149.0296	2	C8H7NS+
150.0135	33	C8H6OS+
151.0417	8	C11H5N+
152.0495	88	C11H6N+
153.0448	86	C10H5N2+
153.0573	139	C11H7N+
154.04	8	C9H4N3+
154.0526	122	C10H6N2+
154.0651	147	C11H8N+
155.0604	141	C10H7N2+
156.0682	14	C10H8N2+
157.0524	7	C10H7NO+
157.076	9	C10H9N2+
158.0186	20	C10H6S+
158.0474	7	C9H6N2O+
159.0137	9	C9H5NS+
159.026	16	C10H7S+
159.0554	3	C9H7N2O+
160.0218	17	C9H6NS+
160.0341	45	C10H8S+
160.0757	20	C10H10NO+
161.0168	12	C8H5N2S+
162.0125	2	C7H4N3S+
162.0373	2	C9H8NS+
165.0449	19	C11H5N2+
165.057	2	C12H7N+
166.0526	19	C11H6N2+
166.0648	18	C12H8N+
167.0604	66	C11H7N2+
167.0727	26	C12H9N+
168.0682	298	C11H8N2+
169.076	287	C11H9N2+
170.0059	98	C10H4NS+
170.0601	158	C11H8NO+
171.0137	197	C10H5NS+
171.0551	27	C10H7N2O+
172.0215	51	C10H6NS+
173.0169	29	C9H5N2S+
173.0292	30	C10H7NS+
174.0247	21	C9H6N2S+
175.0087	17	C9H5NOS+
177.0569	2	C13H7N+
178.0528	13	C12H6N2+
178.0653	7	C13H8N+
179.0604	878	C12H7N2+
180.0558	77	C11H6N3+
180.0681	98	C12H8N2+
181.0633	5	C11H7N3+
181.076	85	C12H9N2+
182.0715	17	C11H8N3+
182.0839	13	C12H10N2+
183.014	1	C11H5NS+
183.0794	10	C11H9N3+
183.0917	6	C12H11N2+
184.0216	42	C11H6NS+
184.0873	3	C11H10N3+
185.0163	7	C10H5N2S+
185.0294	144	C11H7NS+
185.0711	16	C11H9N2O+
186.0368	198	C11H8NS+
187.0325	7	C10H7N2S+
187.045	17	C11H9NS+
188.0164	5	C10H6NOS+
189.0242	33	C10H7NOS+
191.06	2	C13H7N2+
192.0683	17	C13H8N2+
193.0636	13	C12H7N3+
193.076	31	C13H9N2+
194.0714	108	C12H8N3+
195.0791	19	C12H9N3+
195.0917	31	C13H11N2+
196.0217	10	C12H6NS+
196.087	29	C12H10N3+
197.0169	296	C11H5N2S+
197.0709	16	C12H9N2O+
198.0247	737	C11H6N2S+
199.0326	11	C11H7N2S+
199.0452	18	C12H9NS+
199.0866	9	C12H11N2O+
200.0404	11	C11H8N2S+
200.0528	6	C12H10NS+
201.0482	16	C11H9N2S+
202.0319	12	C11H8NOS+
203.0599	1	C14H7N2+
205.0762	27	C14H9N2+
206.0712	26	C13H8N3+
206.084	13	C14H10N2+
207.0792	89	C13H9N3+
208.0871	21	C13H10N3+
209.0952	1	C13H11N3+
210.0245	7	C12H6N2S+
210.037	2	C13H8NS+
210.1026	1	C13H12N3+
211.0325	325	C12H7N2S+
212.0403	97	C12H8N2S+
213.0481	47	C12H9N2S+
214.0558	6	C12H10N2S+
218.0716	1	C14H8N3+
219.0792	9	C14H9N3+
220.0871	53	C14H10N3+
221.0949	16	C14H11N3+
222.1026	53	C14H12N3+
223.0325	10	C13H7N2S+
224.0405	19	C13H8N2S+
225.048	24	C13H9N2S+
226.0432	9	C12H8N3S+
226.0558	11	C13H10N2S+
227.0637	8	C13H11N2S+
228.0588	2	C12H10N3S+
232.0867	3	C15H10N3+
233.0952	2	C15H11N3+
237.0481	15	C14H9N2S+
238.0434	7	C13H8N3S+
238.0559	7	C14H10N2S+
239.0511	13	C13H9N3S+
239.0636	6	C14H11N2S+
240.059	24	C13H10N3S+
252.0586	2	C14H10N3S+
254.0746	6	C14H12N3S+
266.075	1	C15H12N3S+
