Mass spectrum: Prothioconazole-desethio; LC-ESI-QFT; MS2; CE: 75; R=35000; [M+H]+
Name: Prothioconazole-desethio
Name: 1H-1,2,4-Triazole-1-ethanol, alpha-(1-chlorocyclopropyl)-alpha-((2-chlorophenyl)methyl)-
Name: 2-(1-chloranylcyclopropyl)-1-(2-chlorophenyl)-3-(1,2,4-triazol-1-yl)propan-2-ol
Formula: C14H15Cl2N3O
Exact mass: 311.05922
SMILES: Clc1ccccc1CC(O)(C2(Cl)CC2)Cn3ncnc3
InChI: InChI=1S/C14H15Cl2N3O/c15-12-4-2-1-3-11(12)7-14(20,13(16)5-6-13)8-19-10-17-9-18-19/h1-4,9-10,20H,5-8H2
Instrument: Q Exactive Orbitrap Thermo Scientific
Instrument type: LC-ESI-QFT
Ms type: MS2
Ion mode: POSITIVE
Ionization: ESI
Fragmentation mode: HCD
Collision energy: 75 (nominal)
Resolution: 35000
Column name: XBridge C18 3.5um, 2.1x50mm, Waters
Retention time: 12.1 min
Base peak: 312.0669
Precursor m/z: 312.0665
Precursor type: [M+H]+
m/z	relative intensity	assigned
63.023	2	C5H3+
65.0387	9	C5H5+
67.0544	3	C5H7+
70.04	999	C2H4N3+
74.9996	4	C3H4Cl+
77.0386	2	C6H5+
89.0386	45	C7H5+
90.0464	9	C7H6+
91.0542	3	C7H7+
95.049	3	C6H7O+
98.9997	18	C5H4Cl+
102.0466	3	C8H6+
103.0543	30	C8H7+
105.0448	1	C6H5N2+
113.0155	1	C6H6Cl+
115.0543	22	C9H7+
116.0621	27	C9H8+
125.0153	639	C7H6Cl+
128.062	13	C10H8+
129.0699	12	C10H9+
130.0779	4	C10H10+
137.0154	4	C8H6Cl+
139.0309	8	C8H8Cl+
141.0699	14	C11H9+
142.0778	20	C11H10+
143.0607	1	C9H7N2+
149.0153	8	C9H6Cl+
151.0312	5	C9H8Cl+
152.062	13	C12H8+
153.07	30	C12H9+
154.0777	21	C12H10+
155.0604	3	C10H7N2+
155.0856	3	C12H11+
158.9761	4	C7H5Cl2+
162.023	6	C10H7Cl+
163.0312	2	C10H8Cl+
189.0466	1	C12H10Cl+
