Mass spectrum: Aliskiren; LC-ESI-QFT; MS2; CE: 90; R=35000; [M-H]-
Name: Aliskiren
Name: (2S,4S,5S,7S)-5-amino-N-(3-amino-2,2-dimethyl-3-oxopropyl)-4-hydroxy-7-[[4-methoxy-3-(3-methoxypropoxy)phenyl]methyl]-8-methyl-2-propan-2-ylnonanamide
Formula: C30H53N3O6
Exact mass: 551.39344
SMILES: COCCCOC1=C(OC)C=CC(C[C@@H](C[C@H](N)[C@@H](O)C[C@@H](C(C)C)C(=O)NCC(C)(C)C(N)=O)C(C)C)=C1
InChI: InChI=1S/C30H53N3O6/c1-19(2)22(14-21-10-11-26(38-8)27(15-21)39-13-9-12-37-7)16-24(31)25(34)17-23(20(3)4)28(35)33-18-30(5,6)29(32)36/h10-11,15,19-20,22-25,34H,9,12-14,16-18,31H2,1-8H3,(H2,32,36)(H,33,35)/t22-,23-,24-,25-/m0/s1
Instrument: Q Exactive Orbitrap Thermo Scientific
Instrument type: LC-ESI-QFT
Ms type: MS2
Ion mode: NEGATIVE
Ionization: ESI
Fragmentation mode: HCD
Collision energy: 90 (nominal)
Resolution: 35000
Column name: XBridge C18 3.5um, 2.1x50mm, Waters
Retention time: 9.6 min
Base peak: 596.3925
Precursor m/z: 550.3862
Precursor type: [M-H]-
m/z	relative intensity	assigned
84.0455	57	C4H6NO-
86.0612	271	C4H8NO-
93.0346	211	C6H5O-
94.0298	10	C5H4NO-
107.0502	8	C7H7O-
109.0296	8	C6H5O2-
114.0925	8	C6H12NO-
115.0878	10	C5H11N2O-
121.0296	999	C7H5O2-
122.0374	40	C7H6O2-
124.0769	12	C7H10NO-
134.0376	11	C8H6O2-
135.0452	55	C8H7O2-
140.0716	13	C7H10NO2-
147.0451	53	C9H7O2-
148.053	76	C9H8O2-
149.0605	14	C9H9O2-
161.0605	33	C10H9O2-
162.0688	54	C10H10O2-
163.0768	9	C10H11O2-
176.0845	14	C11H12O2-
177.0922	58	C11H13O2-
