Mass spectrum: Di-n-butyl phthalate; LC-ESI-QFT; MS2; CE: 60; R=35000; [M+H]+
Name: Di-n-butyl phthalate
Name: Dibutyl phthalate
Name: dibutyl benzene-1,2-dicarboxylate
Formula: C16H22O4
Exact mass: 278.15181
SMILES: CCCCOC(=O)C1=CC=CC=C1C(=O)OCCCC
InChI: InChI=1S/C16H22O4/c1-3-5-11-19-15(17)13-9-7-8-10-14(13)16(18)20-12-6-4-2/h7-10H,3-6,11-12H2,1-2H3
Instrument: Q Exactive Plus Orbitrap Thermo Scientific
Instrument type: LC-ESI-QFT
Ms type: MS2
Ion mode: POSITIVE
Ionization: ESI
Fragmentation mode: HCD
Collision energy: 60 (nominal)
Resolution: 35000
Column name: XBridge C18 3.5um, 2.1x50mm, Waters
Retention time: 14.2 min
Base peak: 279.1587
Precursor m/z: 279.1591
Precursor type: [M+H]+
m/z	relative intensity	assigned
53.0022	1	C3HO+
57.0699	49	C4H9+
65.0386	16	C5H5+
80.0256	1	C5H4O+
93.0336	9	C6H5O+
111.0442	4	C6H7O2+
121.0285	114	C7H5O2+
121.0397	20	C6H5N2O+
149.0235	999	C8H5O3+
163.039	3	C9H7O3+
167.0342	2	C8H7O4+
181.0499	2	C9H9O4+
