Mass spectrum: Citalopram; LC-ESI-ITFT; MS2; CE: 90%; R=7500; [M+H]+
Name: Citalopram
Name: 1-[3-(dimethylamino)propyl]-1-(4-fluorophenyl)-3H-2-benzofuran-5-carbonitrile
Formula: C20H21FN2O
Exact mass: 324.1638
SMILES: Fc1ccc(cc1)C3(OCc2cc(C#N)ccc23)CCCN(C)C
InChI: InChI=1S/C20H21FN2O/c1-23(2)11-3-10-20(17-5-7-18(21)8-6-17)19-9-4-15(13-22)12-16(19)14-24-20/h4-9,12H,3,10-11,14H2,1-2H3
Instrument: LTQ Orbitrap XL Thermo Scientific
Instrument type: LC-ESI-ITFT
Ms type: MS2
Ion mode: POSITIVE
Ionization: ESI
Fragmentation mode: HCD
Collision energy: 90 % (nominal)
Resolution: 7500
Column name: XBridge C18 3.5um, 2.1x50mm, Waters
Retention time: 6.6 min
Base peak: 325.1719
Precursor m/z: 325.1711
Precursor type: [M+H]+
m/z	relative intensity	assigned
58.0651	49	C3H8N+
83.0292	43	C5H4F+
84.081	12	C5H10N+
89.0385	35	C7H5+
103.0544	21	C8H7+
109.0449	999	C7H6F+
115.0541	15	C9H7+
116.0495	196	C8H6N+
121.0452	12	C8H6F+
123.0244	10	C7H4FO+
129.0445	11	C8H5N2+
129.0696	17	C10H9+
133.0451	16	C9H6F+
139.0545	18	C11H7+
140.0495	114	C10H6N+
141.0575	6	C10H7N+
142.0656	10	C10H8N+
146.053	14	C10H7F+
154.0652	15	C11H8N+
155.0609	19	C10H7N2+
156.0803	7	C11H10N+
159.0604	7	C11H8F+
166.0652	80	C12H8N+
183.0603	19	C13H8F+
190.0654	46	C14H8N+
202.078	11	C16H10+
207.0606	49	C15H8F+
208.0562	61	C14H7FN+
209.076	6	C15H10F+
214.066	34	C16H8N+
215.0853	34	C17H11+
218.0602	20	C15H8NO+
219.0479	11	C15H6FN+
220.0676	83	C16H9F+
221.0637	154	C15H8FN+
222.0711	18	C15H9FN+
226.0661	9	C17H8N+
227.073	160	C17H9N+
228.0804	12	C17H10N+
232.0563	13	C16H7FN+
233.0764	39	C17H10F+
234.0713	127	C16H9FN+
235.0791	33	C16H10FN+
237.058	17	C15H8FNO+
238.066	10	C15H9FNO+
240.0807	72	C18H10N+
241.0892	19	C18H11N+
245.0634	52	C17H8FN+
246.0713	243	C17H9FN+
247.0792	123	C17H10FN+
248.0858	7	C17H11FN+
259.078	14	C18H10FN+
260.0862	21	C18H11FN+
261.0944	18	C18H12FN+
