Mass spectrum: Sulpiride; LC-ESI-QFT; MS2; CE: 60; R=35000; [M+H]+
Name: Sulpiride
Name: Sulpirid
Name: N-[(1-ethyl-2-pyrrolidinyl)methyl]-2-methoxy-5-sulfamoylbenzamide
Formula: C15H23N3O4S
Exact mass: 341.14093
SMILES: CCN1CCCC1CNC(=O)C2=C(C=CC(=C2)S(=O)(=O)N)OC
InChI: InChI=1S/C15H23N3O4S/c1-3-18-8-4-5-11(18)10-17-15(19)13-9-12(23(16,20)21)6-7-14(13)22-2/h6-7,9,11H,3-5,8,10H2,1-2H3,(H,17,19)(H2,16,20,21)
Instrument: Q Exactive Orbitrap Thermo Scientific
Instrument type: LC-ESI-QFT
Ms type: MS2
Ion mode: POSITIVE
Ionization: ESI
Fragmentation mode: HCD
Collision energy: 60 (nominal)
Resolution: 35000
Column name: XBridge C18 3.5um, 2.1x50mm, Waters
Retention time: 1.7 min
Base peak: 342.1483
Precursor m/z: 342.1482
Precursor type: [M+H]+
m/z	relative intensity	assigned
56.0495	2	C3H6N+
58.0652	132	C3H8N+
65.0386	1	C5H5+
67.0542	9	C5H7+
69.0699	5	C5H9+
70.0651	6	C4H8N+
82.0652	4	C5H8N+
84.0807	198	C5H10N+
95.0491	1	C6H7O+
97.0884	2	C6H11N+
98.0964	126	C6H12N+
108.0444	1	C6H6NO+
110.0964	14	C7H12N+
112.112	999	C7H14N+
127.123	1	C7H15N2+
134.036	3	C8H6O2+
138.9848	1	C6H3O2S+
174.0217	1	C6H8NO3S+
184.0174	4	C6H6N3O2S+
199.0061	1	C8H7O4S+
214.0168	546	C14H2N2O+
231.0434	2	C8H11N2O4S+
297.0901	1	C13H17N2O4S+
342.1483	19	C15H24N3O4S+
