Mass spectrum: Spirotetramat Metabolite BYI08330 Enol-Glucoside; LC-ESI-QFT; MS2; CE: 150%; R=17500; [M+H]+
Name: Spirotetramat Metabolite BYI08330 Enol-Glucoside
Name: 3-(2,5-dimethylphenyl)-8-methoxy-4-[3,4,5-trihydroxy-6-(hydroxymethyl)oxan-2-yl]oxy-1-azaspiro[4.5]dec-3-en-2-one
Formula: C24H33NO8
Exact mass: 463.2206
SMILES: CC1=CC(=C(C=C1)C)C2=C(C3(CCC(CC3)OC)NC2=O)OC4C(C(C(C(O4)CO)O)O)O
InChI: InChI=1S/C24H33NO8/c1-12-4-5-13(2)15(10-12)17-21(24(25-22(17)30)8-6-14(31-3)7-9-24)33-23-20(29)19(28)18(27)16(11-26)32-23/h4-5,10,14,16,18-20,23,26-29H,6-9,11H2,1-3H3,(H,25,30)
Instrument: Exploris 240 Orbitrap Thermo Scientific
Instrument type: LC-ESI-QFT
Ms type: MS2
Ion mode: POSITIVE
Ionization: ESI
Fragmentation mode: HCD
Collision energy: 150 % (nominal)
Resolution: 17500
Column name: XBridge C18 3.5um, 2.1x50mm, Waters
Retention time: 3.587 min
Base peak: 464.2275
Precursor m/z: 464.2279
Precursor type: [M+H]+
m/z	relative intensity	assigned
51.023	73	C4H3+
53.0386	78	C4H5+
55.0179	29	C3H3O+
65.0385	226	C5H5+
77.0386	214	C6H5+
78.0464	94	C6H6+
79.0543	167	C6H7+
89.0388	35	C7H5+
91.0542	910	C7H7+
95.0493	73	C6H7O+
102.0465	91	C8H6+
103.0542	200	C8H7+
104.0621	64	C8H8+
105.0699	177	C8H9+
115.0542	999	C9H7+
116.0623	71	C9H8+
117.0694	168	C9H9+
119.0856	76	C9H11+
127.0542	97	C10H7+
128.062	597	C10H8+
129.0698	343	C10H9+
130.0654	112	C9H8N+
130.078	88	C10H10+
131.049	47	C9H7O+
141.0695	108	C11H9+
144.0806	129	C10H10N+
152.0623	81	C12H8+
153.0702	51	C12H9+
154.0656	47	C11H8N+
156.0809	22	C11H10N+
157.0652	62	C11H9O+
165.07	77	C13H9+
178.0783	62	C14H10+
