Mass spectrum: 5-Methoxy-2H-benzotriazole; LC-ESI-QFT; MS2; CE: 45%; R=15000; [M+H]+
Name: 5-Methoxy-2H-benzotriazole
Name: 5-methoxy-2H-benzo[d][1,2,3]triazole
Formula: C7H7N3O
Exact mass: 149.0589
SMILES: COC1=CC2=NNN=C2C=C1
InChI: InChI=1S/C7H7N3O/c1-11-5-2-3-6-7(4-5)9-10-8-6/h2-4H,1H3,(H,8,9,10)
Instrument: Orbitrap Exploris 240 Thermo Scientific
Instrument type: LC-ESI-QFT
Ms type: MS2
Ion mode: POSITIVE
Ionization: ESI
Fragmentation mode: HCD
Collision energy: 45 % (nominal)
Resolution: 15000
Column name: Atlantis C18 3um, 3.0x150mm, Waters
Retention time: 14.536 min
Base peak: 150.0662
Precursor m/z: 150.0662
Precursor type: [M+H]+
Precursor intensity: 805775616
m/z	relative intensity	assigned
53.0386	3	C4H5+
65.0385	6	C5H5+
67.0543	6	C5H7+
79.0417	4	C5H5N+
90.0338	4	C6H4N+
92.0494	9	C6H6N+
93.0574	2	C6H7N+
94.0651	3	C6H8N+
95.0492	58	C6H7O+
107.0366	32	C6H5NO+
122.0602	43	C7H8NO+
135.0428	7	C6H5N3O+
150.0663	999	C7H8N3O+
