Mass spectrum: Diazoxon; LC-ESI-ITFT; MS2; CE: 75%; R=15000; [M+H]+
Name: Diazoxon
Name: diethyl (6-methyl-2-propan-2-yl-pyrimidin-4-yl) phosphate
Formula: C12H21N2O4P
Exact mass: 288.1239
SMILES: O(c1nc(nc(c1)C)C(C)C)P(OCC)(OCC)=O
InChI: InChI=1S/C12H21N2O4P/c1-6-16-19(15,17-7-2)18-11-8-10(5)13-12(14-11)9(3)4/h8-9H,6-7H2,1-5H3
Instrument: LTQ Orbitrap XL Thermo Scientific
Instrument type: LC-ESI-ITFT
Ms type: MS2
Ion mode: POSITIVE
Ionization: ESI
Fragmentation mode: HCD
Collision energy: 75 % (nominal)
Resolution: 15000
Column name: XBridge C18 3.5um, 2.1x50mm, Waters
Retention time: 9.5 min
Base peak: 289.1316
Precursor m/z: 289.1312
Precursor type: [M+H]+
m/z	relative intensity	assigned
52.0182	7	C3H2N+
66.0338	41	C4H4N+
70.0651	42	C4H8N+
80.9736	13	H2O3P+
84.0444	509	C4H6NO+
90.9942	4	C2H4O2P+
93.0447	37	C5H5N2+
98.9841	40	H4O4P+
108.0808	2	C7H10N+
109.005	39	C2H6O3P+
135.0917	25	C8H11N2+
136.0755	1	C8H10NO+
138.079	3	C7H10N2O+
153.1022	999	C8H13N2O+
215.0577	1	C8H12N2O3P+
233.0687	3	C8H14N2O4P+
