Mass spectrum: Nystatin; LC-ESI-QFT; MS2; CE: 30; R=35000; [M+H]+
Name: Nystatin
Name: (1S,3R,4R,7R,9R,11R,15S,16R,17R,18S,19E,21E,25E,27E,29E,31E,33R,35S,36R,37S)-33-[(3-Amino-3,6-dideoxy-?-D-mannopyranosyl)oxy]-1,3,4,7,9,11,17,37-octahydroxy-15,16,18-trimethyl-13-oxo-14,39-dioxabic yclo[33.3.1]nonatriaconta-19,21,25,27,29,31-hexaene-36-carboxylic acid
Formula: C47H75NO17
Exact mass: 925.50350
SMILES: CC1C=CC=CCCC=CC=CC=CC=CC(CC2C(C(CC(O2)(CC(C(CCC(CC(CC(CC(=O)OC(C(C1O)C)C)O)O)O)O)O)O)O)C(=O)O)OC3C(C(C(C(O3)C)O)N)O
InChI: InChI=1S/C47H75NO17/c1-27-17-15-13-11-9-7-5-6-8-10-12-14-16-18-34(64-46-44(58)41(48)43(57)30(4)63-46)24-38-40(45(59)60)37(54)26-47(61,65-38)25-36(53)35(52)20-19-31(49)21-32(50)22-33(51)23-39(55)62-29(3)28(2)42(27)56/h5-6,8,10-18,27-38,40-44,46,49-54,56-58,61H,7,9,19-26,48H2,1-4H3,(H,59,60)/b6-5+,10-8+,13-11+,14-12+,17-15+,18-16+/t27-,28-,29-,30+,31+,32+,33+,34-,35+,36+,37-,38-,40+,41-,42+,43+,44-,46-,47+/m0/s1
Instrument: Q Exactive Orbitrap Thermo Scientific
Instrument type: LC-ESI-QFT
Ms type: MS2
Ion mode: POSITIVE
Ionization: ESI
Fragmentation mode: HCD
Collision energy: 30 (nominal)
Resolution: 35000
Column name: XBridge C18 3.5um, 2.1x50mm, Waters
Retention time: 11.6 min
Base peak: 926.5109
Precursor m/z: 926.5108
Precursor type: [M+H]+
m/z	relative intensity	assigned
65.0384	35	C5H5+
67.0542	337	C5H7+
69.0334	84	C4H5O+
69.0698	202	C5H9+
71.0127	16	C3H3O2+
71.0491	260	C4H7O+
73.0283	6	C3H5O2+
74.0963	4	C4H12N+
77.0386	24	C6H5+
79.0542	496	C6H7+
81.0334	284	C5H5O+
81.0698	364	C6H9+
83.0491	76	C5H7O+
83.0855	71	C6H11+
84.0444	22	C4H6NO+
85.0283	110	C4H5O2+
85.0648	96	C5H9O+
87.0441	17	C4H7O2+
89.0233	36	C3H5O3+
91.0541	534	C7H7+
93.0698	842	C7H9+
95.0126	36	C5H3O2+
95.0491	464	C6H7O+
95.0855	410	C7H11+
97.0283	156	C5H5O2+
97.0647	112	C6H9O+
97.1011	108	C7H13+
99.044	273	C5H7O2+
100.0476	5	H8N2O4+
101.0233	6	C4H5O3+
101.0597	48	C5H9O2+
103.0541	39	C8H7+
105.0698	713	C8H9+
106.0733	8	C3H10N2O2+
107.0491	295	C7H7O+
107.0855	999	C8H11+
108.0888	27	C3H12N2O2+
109.0647	114	C7H9O+
109.1011	650	C8H13+
110.1045	25	C3H14N2O2+
111.044	135	C6H7O2+
111.0804	107	C7H11O+
113.0232	55	C5H5O3+
113.0596	199	C6H9O2+
113.0959	64	C7H13O+
115.0389	60	C5H7O3+
115.054	52	C9H7+
116.0618	4	C9H8+
117.0697	541	C9H9+
118.0733	27	C4H10N2O2+
119.0491	80	C8H7O+
119.0855	585	C9H11+
120.089	30	C4H12N2O2+
121.0284	43	C7H5O2+
121.0647	275	C8H9O+
121.1011	455	C9H13+
122.068	9	C3H10N2O3+
122.1044	7	C4H14N2O2+
123.0439	351	C7H7O2+
123.0803	171	C8H11O+
123.1167	209	C9H15+
125.0232	25	C6H5O3+
125.0596	86	C7H9O2+
125.096	225	C8H13O+
127.0391	30	C6H7O3+
127.0752	35	C7H11O2+
128.0617	42	C10H8+
129.0546	76	C6H9O3+
129.0698	392	C10H9+
130.0732	19	C5H10N2O2+
130.0774	10	C10H10+
131.0491	78	C9H7O+
131.0855	587	C10H11+
132.0888	23	C5H12N2O2+
133.0647	318	C9H9O+
133.1011	407	C10H13+
134.068	8	C4H10N2O3+
134.1044	16	C5H14N2O2+
135.044	85	C8H7O2+
135.0804	271	C9H11O+
135.1167	698	C10H15+
136.0838	9	C4H12N2O3+
136.1201	33	C5H16N2O2+
137.0596	219	C8H9O2+
137.0961	98	C9H13O+
137.1324	42	C10H17+
139.0389	80	C7H7O3+
139.0753	192	C8H11O2+
139.1118	45	C9H15O+
141.0546	164	C7H9O3+
141.0697	149	C11H9+
141.091	27	C8H13O2+
142.078	9	C11H10+
143.0856	398	C11H11+
144.089	16	C6H12N2O2+
144.0936	5	C11H12+
145.0648	137	C10H9O+
145.1012	513	C11H13+
146.0679	7	C5H10N2O3+
146.0813	27	C6H12NO3+
146.1044	6	C6H14N2O2+
147.0441	85	C9H7O2+
147.0805	315	C10H11O+
147.1168	253	C11H15+
148.0837	8	C5H12N2O3+
148.1201	6	C6H16N2O2+
149.0598	171	C9H9O2+
149.0961	122	C10H13O+
149.1325	76	C11H17+
151.039	98	C8H7O3+
151.0753	292	C9H11O2+
151.1117	237	C10H15O+
152.1151	4	C5H16N2O3+
153.0546	55	C8H9O3+
153.0698	36	C12H9+
153.091	43	C9H13O2+
153.1274	5	C10H17O+
155.0703	149	C8H11O3+
155.0855	309	C12H11+
156.0888	17	C7H12N2O2+
156.0941	12	C12H12+
157.0648	127	C11H9O+
157.086	21	C8H13O3+
157.1012	354	C12H13+
159.044	21	C10H7O2+
159.0655	29	C7H11O4+
159.0804	140	C11H11O+
159.1168	299	C12H15+
161.0597	126	C10H9O2+
161.096	107	C11H13O+
161.1324	556	C12H17+
162.0629	6	C5H10N2O4+
162.136	33	C7H18N2O2+
163.0391	40	C9H7O3+
163.0753	216	C10H11O2+
163.1116	66	C11H15O+
163.148	40	C12H19+
165.0547	93	C9H9O3+
165.0691	38	C13H9+
165.091	170	C10H13O2+
165.1277	8	C11H17O+
166.0779	6	C13H10+
167.0703	361	C9H11O3+
167.0854	173	C13H11+
168.0939	8	C13H12+
169.0647	31	C12H9O+
169.0859	88	C9H13O3+
169.1011	376	C13H13+
171.0804	168	C12H11O+
171.1167	341	C13H15+
173.0596	104	C11H9O2+
173.0961	183	C12H13O+
173.1324	206	C13H17+
174.0994	6	C7H14N2O3+
175.0391	30	C10H7O3+
175.0753	274	C11H11O2+
175.1115	56	C12H15O+
175.148	89	C13H19+
176.0787	18	C6H12N2O4+
177.0548	47	C10H9O3+
177.091	83	C11H13O2+
177.1274	72	C12H17O+
177.1635	5	C13H21+
178.0778	6	C14H10+
179.0703	145	C10H11O3+
179.0855	112	C14H11+
179.1432	54	C12H19O+
181.0496	21	C9H9O4+
181.0645	36	C13H9O+
181.086	96	C10H13O3+
181.1011	258	C14H13+
183.0804	115	C13H11O+
183.1019	24	C10H15O3+
183.1168	283	C14H15+
184.1201	20	C9H16N2O2+
185.0595	40	C12H9O2+
185.0811	60	C9H13O4+
185.0962	142	C13H13O+
185.1325	247	C14H17+
186.1354	15	C9H18N2O2+
187.0753	113	C12H11O2+
187.1118	111	C13H15O+
187.1481	133	C14H19+
189.0547	35	C11H9O3+
189.091	215	C12H13O2+
189.1277	36	C13H17O+
189.1639	24	C14H21+
190.0943	7	C7H14N2O4+
191.0703	184	C11H11O3+
191.1065	161	C12H15O2+
192.0935	7	C15H12+
193.0859	283	C11H13O3+
193.1007	128	C15H13+
194.0892	14	C6H14N2O5+
194.1098	6	C15H14+
195.0654	21	C10H11O4+
195.0806	68	C14H11O+
195.1018	22	C11H15O3+
195.1168	238	C15H15+
196.0889	5	C14H12O+
197.0597	17	C13H9O2+
197.0811	141	C10H13O4+
197.096	190	C14H13O+
197.1325	213	C15H17+
198.0993	6	C9H14N2O3+
199.0753	135	C13H11O2+
199.0965	51	C10H15O4+
199.1117	103	C14H15O+
199.1481	216	C15H19+
200.151	7	C10H20N2O2+
201.0546	31	C12H9O3+
201.091	152	C13H13O2+
201.1273	53	C14H17O+
201.1636	92	C15H21+
203.0703	65	C12H11O3+
203.0853	15	C16H11+
203.1064	45	C13H15O2+
203.1434	17	C14H19O+
203.18	6	C15H23+
204.0936	4	C16H12+
205.0864	51	C12H13O3+
205.1011	115	C16H13+
205.1224	23	C13H17O2+
206.1095	7	C16H14+
207.0654	51	C11H11O4+
207.0807	38	C15H11O+
207.1018	170	C12H15O3+
207.1167	179	C16H15+
208.0885	5	C15H12O+
208.1241	7	C16H16+
209.0809	253	C11H13O4+
209.0959	86	C15H13O+
209.1175	71	C12H17O3+
209.1324	176	C16H17+
210.1403	6	C16H18+
211.0755	49	C14H11O2+
211.0966	128	C11H15O4+
211.1117	95	C15H15O+
211.1481	163	C16H19+
212.1558	9	C16H20+
213.0911	105	C14H13O2+
213.1274	48	C15H17O+
213.1637	146	C16H21+
214.1714	4	C16H22+
215.0701	26	C13H11O3+
215.0919	29	C10H15O5+
215.1067	205	C14H15O2+
215.1431	11	C15H19O+
215.1796	41	C16H23+
216.0938	5	C17H12+
217.0859	181	C13H13O3+
217.1013	59	C17H13+
217.1222	36	C14H17O2+
217.1585	16	C15H21O+
218.0897	8	C8H14N2O5+
219.0651	36	C12H11O4+
219.0803	16	C16H11O+
219.1017	176	C13H15O3+
219.117	124	C17H15+
221.0808	20	C12H13O4+
221.0962	88	C16H13O+
221.1325	185	C17H17+
223.075	34	C15H11O2+
223.0961	8	C12H15O4+
223.1118	95	C16H15O+
223.1482	135	C17H19+
225.0911	141	C15H13O2+
225.1121	167	C12H17O4+
225.1275	66	C16H17O+
225.1637	137	C17H21+
226.1155	6	C7H18N2O6+
227.07	26	C14H11O3+
227.1066	118	C15H15O2+
227.1279	8	C12H19O4+
227.143	46	C16H19O+
227.1795	68	C17H23+
229.0862	50	C14H13O3+
229.1225	42	C15H17O2+
229.1587	24	C16H21O+
229.1949	5	C17H25+
230.11	6	C18H14+
231.1016	65	C14H15O3+
231.1167	76	C18H15+
231.1747	6	C16H23O+
232.1245	8	C18H16+
233.0809	15	C13H13O4+
233.097	58	C17H13O+
233.1172	183	C14H17O3+
233.1323	117	C18H17+
235.0759	21	C16H11O2+
235.0965	152	C13H15O4+
235.1117	77	C17H15O+
235.1329	57	C14H19O3+
235.148	110	C18H19+
237.091	59	C16H13O2+
237.1122	76	C13H17O4+
237.1273	68	C17H17O+
237.1637	92	C18H21+
238.0941	4	C11H14N2O4+
239.0703	14	C15H11O3+
239.1067	132	C16H15O2+
239.143	61	C17H19O+
239.1795	82	C18H23+
240.1103	7	C11H16N2O4+
241.0859	61	C15H13O3+
241.1221	73	C16H17O2+
241.1586	25	C17H21O+
241.195	23	C18H25+
243.1018	195	C15H15O3+
243.1167	36	C19H15+
243.1379	15	C16H19O2+
243.174	28	C17H23O+
244.105	18	C10H16N2O5+
244.1245	9	C19H16+
245.0963	20	C18H13O+
245.1174	52	C15H17O3+
245.1325	70	C19H17+
247.0969	23	C14H15O4+
247.1119	61	C18H15O+
247.1482	91	C19H19+
249.0913	45	C17H13O2+
249.1125	40	C14H17O4+
249.1275	77	C18H17O+
249.1638	90	C19H21+
251.1068	91	C17H15O2+
251.1278	110	C14H19O4+
251.1429	57	C18H19O+
251.1793	81	C19H23+
253.087	28	C16H13O3+
253.1072	73	C13H17O5+
253.1225	73	C17H17O2+
253.1585	30	C18H21O+
253.1952	38	C19H25+
255.1019	57	C16H15O3+
255.1221	44	C13H19O5+
255.1379	29	C17H19O2+
255.1741	20	C18H23O+
256.1248	5	C20H16+
257.0813	13	C15H13O4+
257.1172	112	C16H17O3+
257.1327	53	C20H17+
257.1533	6	C17H21O2+
257.19	8	C18H25O+
258.1396	7	C20H18+
259.0967	42	C15H15O4+
259.1118	42	C19H15O+
259.133	29	C16H19O3+
259.1483	90	C20H19+
260.1551	15	C20H20+
261.0906	26	C18H13O2+
261.1125	469	C15H17O4+
261.1272	92	C19H17O+
261.1635	82	C20H21+
262.1161	30	C10H18N2O6+
263.1067	77	C18H15O2+
263.1281	23	C15H19O4+
263.1432	70	C19H19O+
263.1796	79	C20H23+
265.0858	8	C17H13O3+
265.1224	91	C18H17O2+
265.1587	39	C19H21O+
265.195	67	C20H25+
267.1017	136	C17H15O3+
267.1167	6	C21H15+
267.1231	12	C14H19O5+
267.1373	67	C18H19O2+
267.1742	35	C19H23O+
267.2114	31	C20H27+
269.138	93	C14H21O5+
269.1538	27	C18H21O2+
269.1904	23	C19H25O+
270.1399	4	C21H18+
271.0967	25	C16H15O4+
271.1329	27	C17H19O3+
271.1481	44	C21H19+
273.1278	40	C20H17O+
273.1495	6	C17H21O3+
273.1634	50	C21H21+
275.1064	21	C19H15O2+
275.128	46	C16H19O4+
275.1434	58	C20H19O+
275.1792	57	C21H23+
277.1071	55	C15H17O5+
277.1226	79	C19H17O2+
277.1586	47	C20H21O+
277.1947	37	C21H25+
279.1229	743	C15H19O5+
279.1381	71	C19H19O2+
281.1171	55	C18H17O3+
281.1533	39	C19H21O2+
281.1898	9	C20H25O+
282.1412	5	C22H18+
283.1329	49	C18H19O3+
283.1485	40	C22H19+
283.1688	16	C19H23O2+
283.2049	7	C20H27O+
285.1124	160	C17H17O4+
285.1278	26	C21H17O+
285.1479	15	C18H21O3+
285.1639	62	C22H21+
286.1159	5	C12H18N2O6+
287.1071	16	C20H15O2+
287.1276	39	C17H19O4+
287.1434	42	C21H19O+
287.1793	34	C22H23+
289.1068	24	C16H17O5+
289.1227	52	C20H17O2+
289.1434	9	C17H21O4+
289.1585	46	C21H21O+
289.1946	46	C22H25+
291.1019	6	C19H15O3+
291.1379	67	C20H19O2+
291.1744	39	C21H23O+
291.2108	60	C22H27+
293.1177	39	C19H17O3+
293.1369	22	C16H21O5+
293.1526	43	C20H21O2+
293.1901	26	C21H25O+
293.2268	23	C22H29+
295.0965	18	C18H15O4+
295.1169	13	C15H19O6+
295.1331	64	C19H19O3+
295.1491	22	C23H19+
295.1695	26	C20H23O2+
295.2056	8	C21H27O+
297.1333	972	C15H21O6+
298.1367	85	C10H22N2O8+
299.1279	30	C18H19O4+
299.1796	34	C23H23+
301.1071	43	C17H17O5+
301.1229	35	C21H17O2+
301.1434	23	C18H21O4+
301.1586	51	C22H21O+
301.1951	26	C23H25+
302.1625	6	C17H22N2O3+
303.1225	180	C17H19O5+
303.1382	59	C21H19O2+
303.1743	46	C22H23O+
305.1172	23	C20H17O3+
305.1377	20	C17H21O5+
305.1539	46	C21H21O2+
305.1899	30	C22H25O+
305.2264	16	C23H29+
307.1328	50	C20H19O3+
307.1486	9	C24H19+
307.169	33	C21H23O2+
307.2063	5	C22H27O+
309.1486	35	C20H21O3+
309.1644	26	C24H21+
309.1836	5	C21H25O2+
309.2212	26	C22H29O+
311.1272	28	C19H19O4+
311.1436	19	C23H19O+
311.1641	21	C20H23O3+
311.1798	28	C24H23+
311.199	7	C21H27O2+
311.2379	5	C22H31O+
313.107	54	C18H17O5+
313.1234	14	C22H17O2+
313.143	41	C19H21O4+
313.1593	37	C23H21O+
313.1955	34	C24H25+
315.139	30	C22H19O2+
315.1753	26	C23H23O+
316.1452	7	C22H20O2+
317.138	8	C18H21O5+
317.1539	62	C22H21O2+
317.1906	28	C23H25O+
317.2268	29	C24H29+
319.1173	58	C17H19O6+
319.1334	30	C21H19O3+
319.1689	51	C22H23O2+
319.2409	6	C24H31+
321.1329	204	C17H21O6+
321.1489	26	C21H21O3+
321.1649	10	C25H21+
323.1269	15	C20H19O4+
323.1644	23	C21H23O3+
323.1809	15	C25H23+
323.1998	4	C22H27O2+
325.1234	7	C23H17O2+
325.1433	21	C20H21O4+
325.1587	23	C24H21O+
325.1948	17	C25H25+
327.1383	25	C23H19O2+
327.1584	24	C20H23O4+
327.1759	31	C24H23O+
327.2103	7	C25H27+
329.1376	14	C19H21O5+
329.1539	42	C23H21O2+
329.1904	17	C24H25O+
329.2261	7	C25H29+
331.1169	90	C18H19O6+
331.1702	48	C23H23O2+
333.1855	29	C23H25O2+
333.2215	18	C24H29O+
335.1644	20	C22H23O3+
335.2359	38	C24H31O+
337.1278	69	C17H21O7+
337.1441	24	C21H21O4+
337.1799	20	C22H25O3+
337.251	8	C24H33O+
339.1434	41	C17H23O7+
339.1596	22	C21H23O4+
339.1756	12	C25H23O+
339.2122	5	C26H27+
341.1371	14	C20H21O5+
341.1542	27	C24H21O2+
341.1745	17	C21H25O4+
341.2256	9	C26H29+
343.1342	5	C23H19O3+
343.1708	42	C24H23O2+
343.2059	19	C25H27O+
343.2426	15	C26H31+
345.1502	35	C26H19N+
345.1853	24	C24H25O2+
345.2204	16	C25H29O+
347.1638	40	C23H23O3+
347.1991	27	C24H27O2+
349.1275	132	C18H21O7+
349.1785	28	C23H25O3+
349.2147	9	C24H29O2+
350.1324	7	C13H22N2O9+
351.1594	19	C22H23O4+
353.1749	16	C22H25O4+
353.2477	24	C24H33O2+
355.2412	7	C27H31+
357.1325	16	C20H21O6+
359.1663	28	C27H21N+
359.2006	25	C25H27O2+
359.2367	23	C26H31O+
361.18	39	C24H25O3+
361.216	16	C25H29O2+
361.2531	5	C26H33O+
363.1592	27	C23H23O4+
363.1957	18	C24H27O3+
365.1743	27	C23H25O4+
367.137	47	C18H23O8+
369.2216	24	C27H29O+
371.202	27	C26H27O2+
373.1806	21	C25H25O3+
373.2156	8	C26H29O2+
375.1956	8	C25H27O3+
375.2316	11	C26H31O2+
377.2481	37	C26H33O2+
379.1537	16	C23H23O5+
379.1895	12	C24H27O4+
379.263	6	C26H35O2+
381.1686	6	C23H25O5+
385.2538	8	C28H33O+
387.1962	23	C26H27O3+
387.2316	33	C27H31O2+
389.2479	8	C27H33O2+
391.1536	7	C24H23O5+
391.1891	9	C25H27O4+
393.2042	6	C25H29O4+
393.2423	4	C26H33O3+
397.1641	17	C23H25O6+
397.2186	12	C16H33N2O9+
397.253	6	C29H33O+
399.2323	17	C28H31O2+
399.2688	8	C29H35O+
401.2119	19	C30H27N+
401.2476	9	C28H33O2+
403.2279	7	C27H31O3+
403.2639	4	C28H35O2+
405.1694	9	C25H25O5+
405.2426	29	C27H33O3+
413.2109	17	C28H29O3+
413.2471	21	C29H33O2+
415.2274	21	C28H31O3+
423.1796	4	C25H27O6+
425.2485	12	C30H33O2+
427.2634	14	C30H35O2+
429.1927	19	C24H29O7+
429.278	5	C30H37O2+
431.2221	9	C28H31O4+
431.2566	5	C29H35O3+
439.2634	20	C31H35O2+
441.242	22	C30H33O3+
443.257	6	C30H35O3+
445.1878	6	C24H29O8+
445.2752	5	C30H37O3+
453.2777	7	C32H37O2+
455.2565	6	C31H35O3+
455.2937	5	C32H39O2+
459.2532	7	C30H35O4+
471.2531	6	C31H35O4+
475.2138	5	C29H31O6+
477.2292	7	C32H31NO3+
477.2645	8	C30H37O5+
481.2733	8	C33H37O3+
483.2523	4	C32H35O4+
483.2909	7	C33H39O3+
485.267	6	C32H37O4+
493.2219	8	C29H33O7+
499.2835	19	C33H39O4+
501.2997	5	C33H41O4+
507.2889	9	C20H45NO13+
509.3047	7	C35H41O3+
515.2418	5	C32H35O6+
517.2956	6	C33H41O5+
525.2991	26	C35H41O4+
527.3141	6	C35H43O4+
535.2839	6	C21H45NO14+
537.2981	5	C21H47NO14+
543.3113	7	C35H43O5+
553.2948	8	C36H41O5+
555.3141	4	C39H41NO2+
571.3044	24	C36H43O6+
581.2872	5	C22H47NO16+
589.3166	5	C36H45O7+
601.3303	5	C26H51NO14+
611.3359	16	C24H53NO16+
627.3673	7	C40H51O6+
629.3852	17	C43H51NO3+
673.3737	49	C41H53O8+
674.3773	7	C33H56NO13+
691.383	24	C41H55O9+
