Mass spectrum: Heptenophos; LC-ESI-QFT; MS2; CE: 45; R=35000; [M-H]-
Name: Heptenophos
Name: (6-chloranyl-7-bicyclo[3.2.0]hepta-3,6-dienyl) dimethyl phosphate
Name: Ragadan
Formula: C9H12ClO4P
Exact mass: 250.01617
SMILES: COP(=O)(OC)OC1=C(Cl)C2C=CCC12
InChI: InChI=1S/C9H12ClO4P/c1-12-15(11,13-2)14-9-7-5-3-4-6(7)8(9)10/h3-4,6-7H,5H2,1-2H3
Instrument: Q Exactive Orbitrap Thermo Scientific
Instrument type: LC-ESI-QFT
Ms type: MS2
Ion mode: NEGATIVE
Ionization: ESI
Fragmentation mode: HCD
Collision energy: 45 (nominal)
Resolution: 35000
Column name: XBridge C18 3.5um, 2.1x50mm, Waters
Retention time: 9.3 min
Base peak: 218.0311
Precursor m/z: 249.0089
Precursor type: [M-H]-
m/z	relative intensity	assigned
88.0087	36	C4H5Cl-
93.0345	90	C6H5O-
131.0137	999	C8H3O2-
159.0084	25	C9H3O3-
175.0204	277	C6H9ClN2P-
203.0153	44	C7H9ClN2OP-
203.0348	30	C7H10NO4P-
221.0253	43	C7H11ClN2O2P-
231.0293	35	C8H10NO5P-
