Mass spectrum: Primaquine; LC-ESI-QFT; MS2; CE: 75; R=35000; [M+H]+
Name: Primaquine
Name: (4-amino-1-methyl-butyl)-(6-methoxy-8-quinolyl)amine
Formula: C15H21N3O
Exact mass: 259.16846
SMILES: O(c1cc(NC(C)CCCN)c2ncccc2c1)C
InChI: InChI=1S/C15H21N3O/c1-11(5-3-7-16)18-14-10-13(19-2)9-12-6-4-8-17-15(12)14/h4,6,8-11,18H,3,5,7,16H2,1-2H3
Instrument: Q Exactive Orbitrap Thermo Scientific
Instrument type: LC-ESI-QFT
Ms type: MS2
Ion mode: POSITIVE
Ionization: ESI
Fragmentation mode: HCD
Collision energy: 75 (nominal)
Resolution: 35000
Column name: XBridge C18 3.5um, 2.1x50mm, Waters
Retention time: 6.4 min
Base peak: 260.1758
Precursor m/z: 260.1757
Precursor type: [M+H]+
m/z	relative intensity	assigned
53.0024	12	C3HO+
53.9977	1	C2NO+
67.0542	20	C5H7+
67.9894	1	C3O2+
69.0699	648	C5H9+
86.0964	858	C5H12N+
117.0573	2	C8H7N+
130.0647	2	C9H8N+
131.0602	16	C8H7N2+
132.0682	331	C8H8N2+
143.0604	15	C9H7N2+
144.0682	113	C9H8N2+
145.076	64	C9H9N2+
157.0758	12	C10H9N2+
159.0679	19	C10H9NO+
160.0631	272	C9H8N2O+
161.0715	1	C9H9N2O+
172.063	34	C10H8N2O+
173.0709	14	C10H9N2O+
174.0549	8	C10H8NO2+
174.0788	153	C10H10N2O+
175.0865	999	C10H11N2O+
185.0711	2	C11H9N2O+
186.0787	28	C11H10N2O+
187.0866	206	C11H11N2O+
198.0791	1	C12H10N2O+
198.115	6	C13H14N2+
199.0866	7	C12H11N2O+
200.0944	7	C12H12N2O+
201.1023	11	C12H13N2O+
213.1029	2	C13H13N2O+
215.1182	1	C13H15N2O+
226.1106	13	C14H14N2O+
227.1179	2	C14H15N2O+
241.1335	112	C15H17N2O+
243.1493	15	C15H19N2O+
