Mass spectrum: 2-(3-Hydroxycyclohexyl)-5-(2-methyl-2-octanyl)phenol; LC-ESI-QFT; MS2; CE: 90; R=35000; [M+H]+
Name: 2-(3-Hydroxycyclohexyl)-5-(2-methyl-2-octanyl)phenol
Name: CP47.497
Name: 2-(3-hydroxycyclohexyl)-5-(2-methyloctan-2-yl)phenol
Formula: C21H34O2
Exact mass: 318.25588
SMILES: CCCCCCC(C)(C)C1=CC(=C(C=C1)C2CCCC(C2)O)O
InChI: InChI=1S/C21H34O2/c1-4-5-6-7-13-21(2,3)17-11-12-19(20(23)15-17)16-9-8-10-18(22)14-16/h11-12,15-16,18,22-23H,4-10,13-14H2,1-3H3
Instrument: Q Exactive Plus Orbitrap Thermo Scientific
Instrument type: LC-ESI-QFT
Ms type: MS2
Ion mode: POSITIVE
Ionization: ESI
Fragmentation mode: HCD
Collision energy: 90 (nominal)
Resolution: 35000
Column name: XBridge C18 3.5um, 2.1x50mm, Waters
Retention time: 17.2 min
Base peak: 391.2833
Precursor m/z: 319.2632
Precursor type: [M+H]+
m/z	relative intensity	assigned
50.0151	3	C4H2+
51.0228	12	C4H3+
53.0022	43	C3HO+
53.0386	78	C4H5+
53.9974	10	C2NO+
55.0178	11	C3H3O+
55.0542	43	C4H7+
57.0698	302	C4H9+
65.0385	9	C5H5+
66.0464	1	C5H6+
67.0542	10	C5H7+
67.9893	3	C3O2+
69.0335	1	C4H5O+
69.0698	10	C5H9+
71.0855	74	C5H11+
77.0384	50	C6H5+
78.0464	6	C6H6+
79.0542	357	C6H7+
81.0335	6	C5H5O+
81.0698	97	C6H9+
85.1011	7	C6H13+
91.0542	285	C7H7+
92.062	15	C7H8+
93.0699	143	C7H9+
94.0413	7	C6H6O+
95.0491	178	C6H7O+
103.0542	40	C8H7+
105.0447	141	C6H5N2+
105.0698	186	C8H9+
106.0776	7	C8H10+
107.0491	696	C7H7O+
108.0568	3	C7H8O+
109.0648	25	C7H9O+
115.0543	17	C9H7+
116.062	6	C9H8+
117.0699	7	C9H9+
119.0491	9	C8H7O+
119.0605	2	C7H7N2+
119.0855	20	C9H11+
120.0569	36	C8H8O+
120.0934	30	C9H12+
121.0648	542	C8H9O+
123.0804	8	C8H11O+
129.0699	8	C10H9+
131.0855	18	C10H11+
132.0569	2	C9H8O+
133.0647	999	C9H9O+
134.0725	32	C9H10O+
135.0804	14	C9H11O+
147.0804	77	C10H11O+
148.0882	159	C10H12O+
149.096	16	C10H13O+
161.0964	2	C11H13O+
