Mass spectrum: Cycloxaprid; LC-ESI-QFT; MS2; CE: 75%; R=17500; [M+H]+
Name: Cycloxaprid
Name: 1-((6-chloropyridin-3-yl)methyl)-9-nitro-2,3,5,6,7,8-hexahydro-1H-5,8-epoxyimidazo[1,2-a]azepine
Name: 5-[(6-chloropyridin-3-yl)methyl]-7-nitro-11-oxa-2,5-diazatricyclo[6.2.1.02,6]undec-6-ene
Formula: C14H15ClN4O3
Exact mass: 322.0833
SMILES: C1CC2N3CCN(C3=C(C1O2)[N+](=O)[O-])CC4=CN=C(C=C4)Cl
InChI: InChI=1S/C14H15ClN4O3/c15-11-3-1-9(7-16-11)8-17-5-6-18-12-4-2-10(22-12)13(14(17)18)19(20)21/h1,3,7,10,12H,2,4-6,8H2
Instrument: Exploris 240 Orbitrap Thermo Scientific
Instrument type: LC-ESI-QFT
Ms type: MS2
Ion mode: POSITIVE
Ionization: ESI
Fragmentation mode: HCD
Collision energy: 75 % (nominal)
Resolution: 17500
Column name: XBridge C18 3.5um, 2.1x50mm, Waters
Retention time: 2.935 min
Base peak: 323.0906
Precursor m/z: 323.0905
Precursor type: [M+H]+
m/z	relative intensity	assigned
67.0417	18	C4H5N+
67.054	11	C5H7+
68.0495	14	C4H6N+
80.0494	24	C5H6N+
80.0621	14	C6H8+
81.0445	20	C4H5N2+
81.0572	33	C5H7N+
82.0524	10	C4H6N2+
82.0651	50	C5H8N+
83.0602	22	C4H7N2+
84.068	31	C4H8N2+
85.076	10	C4H9N2+
90.0337	41	C6H4N+
94.0651	93	C6H8N+
95.0604	39	C5H7N2+
95.0729	76	C6H9N+
98.9998	13	C5H4Cl+
106.0651	30	C7H8N+
107.0731	35	C7H9N+
108.0679	20	C6H8N2+
108.0807	39	C7H10N+
109.0762	31	C6H9N2+
109.0885	51	C7H11N+
121.076	176	C7H9N2+
122.0836	59	C7H10N2+
123.0917	404	C7H11N2+
126.0105	999	C6H5ClN+
133.0764	30	C8H9N2+
136.087	23	C7H10N3+
137.1072	17	C8H13N2+
138.066	16	C6H8N3O+
151.0866	385	C8H11N2O+
164.0265	19	C9H7ClN+
165.0208	10	C11H3NO+
167.0374	27	C8H8ClN2+
184.0868	14	C11H10N3+
185.0947	33	C11H11N3+
191.0373	17	C10H8ClN2+
192.0321	21	C9H7ClN3+
194.048	28	C9H9ClN3+
206.0484	25	C10H9ClN3+
208.0637	117	C10H11ClN3+
214.1339	21	C13H16N3+
220.0637	322	C11H11ClN3+
232.0641	12	C14H13ClO+
234.0799	97	C12H13ClN3+
248.059	79	C14H13ClO2+
248.095	318	C13H15ClN3+
276.0903	215	C14H15ClN3O+
