Mass spectrum: Metolachlor morpholinone; LC-ESI-ITFT; MS2; CE: 35%; R=7500; [M+H]+
Name: Metolachlor morpholinone
Name: 4-(2-ethyl-6-methylphenyl)-5-methylmorpholin-3-one
Formula: C14H19NO2
Exact mass: 233.1416
SMILES: O=C2N(c1c(cccc1C)CC)C(C)COC2
InChI: InChI=1S/C14H19NO2/c1-4-12-7-5-6-10(2)14(12)15-11(3)8-17-9-13(15)16/h5-7,11H,4,8-9H2,1-3H3
Instrument: LTQ Orbitrap XL Thermo Scientific
Instrument type: LC-ESI-ITFT
Ms type: MS2
Ion mode: POSITIVE
Ionization: ESI
Fragmentation mode: CID
Collision energy: 35 % (nominal)
Resolution: 7500
Column name: XBridge C18 3.5um, 2.1x50mm, Waters
Retention time: 8.2 min
Base peak: 234.1493
Precursor m/z: 234.1489
Precursor type: [M+H]+
m/z	relative intensity	assigned
70.0652	6	C4H8N+
91.0539	7	C7H7+
99.0678	88	C5H9NO+
105.0697	10	C8H9+
116.0709	6	C5H10NO2+
118.0652	35	C8H8N+
119.0856	173	C9H11+
120.0807	149	C8H10N+
131.0731	8	C9H9N+
131.0859	10	C10H11+
132.0807	21	C9H10N+
133.0888	12	C9H11N+
134.0965	21	C9H12N+
135.0805	6	C9H11O+
135.1043	15	C9H13N+
145.0887	5	C10H11N+
146.0965	685	C10H12N+
147.0679	24	C9H9NO+
147.1043	17	C10H13N+
147.1172	15	C11H15+
148.0756	335	C9H10NO+
148.1121	999	C10H14N+
149.0956	14	C10H13O+
158.0964	73	C11H12N+
159.104	47	C11H13N+
160.112	636	C11H14N+
172.1119	11	C12H14N+
173.1199	10	C12H15N+
174.1275	36	C12H16N+
175.1355	615	C12H17N+
176.1068	204	C11H14NO+
176.1434	351	C12H18N+
177.1148	51	C11H15NO+
186.1273	17	C13H16N+
188.1433	462	C13H18N+
192.1011	17	C11H14NO2+
193.1097	86	C11H15NO2+
204.1383	21	C13H18NO+
205.1098	31	C12H15NO2+
206.1175	740	C12H16NO2+
206.1532	61	C13H20NO+
216.1381	134	C14H18NO+
219.1254	8	C13H17NO2+
234.1486	128	C14H20NO2+
