Mass spectrum: Coumaphos; LC-ESI-QFT; MS2; CE: 75%; R=17500; [M+H]+
Name: Coumaphos
Name: 3-chloro-7-diethoxyphosphinothioyloxy-4-methylchromen-2-one
Formula: C14H16ClO5PS
Exact mass: 362.0145
SMILES: CCOP(=S)(OCC)OC1=CC2=C(C=C1)C(=C(C(=O)O2)Cl)C
InChI: InChI=1S/C14H16ClO5PS/c1-4-17-21(22,18-5-2)20-10-6-7-11-9(3)13(15)14(16)19-12(11)8-10/h6-8H,4-5H2,1-3H3
Instrument: Exploris 240 Orbitrap Thermo Scientific
Instrument type: LC-ESI-QFT
Ms type: MS2
Ion mode: POSITIVE
Ionization: ESI
Fragmentation mode: HCD
Collision energy: 75 % (nominal)
Resolution: 17500
Column name: XBridge C18 3.5um, 2.1x50mm, Waters
Retention time: 10.877 min
Base peak: 363.0214
Precursor m/z: 363.0217
Precursor type: [M+H]+
m/z	relative intensity	assigned
91.0543	50	C7H7+
96.9507	302	H2O2PS+
102.0467	15	C8H6+
103.0541	69	C8H7+
109.0049	19	C3H6ClO2+
114.9614	106	H4O3PS+
115.0542	269	C9H7+
119.0492	23	C8H7O+
131.0491	225	C9H7O+
132.0571	113	C9H8O+
135.0264	94	C8H7S+
147.0264	243	C9H7S+
147.0436	43	C9H7O2+
148.0339	48	C9H8S+
148.0517	63	C9H8O2+
155.0264	39	C8H8ClO+
159.0439	39	C10H7O2+
162.0134	14	C9H6OS+
163.0212	118	C9H7OS+
164.029	182	C9H8OS+
165.0099	47	C8H6O2P+
171.0035	49	C8H8ClS+
175.0387	20	C10H7O3+
182.0126	41	C8H7O3P+
191.0164	73	C10H7O2S+
192.0237	18	C10H8O2S+
193.0053	12	ClH15O5PS+
194.0129	231	C10H7ClO2+
196.9826	42	C9H6ClOS+
197.9901	11	C9H7ClOS+
209.0005	11	C10H6ClO3+
211.0157	348	C10H8ClO3+
224.977	49	C9H6O3PS+
225.9849	439	C10H7ClO2S+
226.9928	999	C10H8ClO2S+
256.977	67	C10H7ClO4P+
270.9377	14	C10H5ClO3PS+
272.9707	19	C10H7ClO5P+
288.9493	71	C10H7ClO4PS+
