Mass spectrum: Forchlorfenuron; LC-ESI-QFT; MS2; CE: 150; R=35000; [M+H]+
Name: Forchlorfenuron
Name: N-(2-chloro-4-pyridyl)-N`-phenylurea
Name: 1-(2-chloropyridin-4-yl)-3-phenylurea
Formula: C12H10ClN3O
Exact mass: 247.05124
SMILES: C1=CC=C(C=C1)NC(=O)NC2=CC(=NC=C2)Cl
InChI: InChI=1S/C12H10ClN3O/c13-11-8-10(6-7-14-11)16-12(17)15-9-4-2-1-3-5-9/h1-8H,(H2,14,15,16,17)
Instrument: Q Exactive Plus Orbitrap Thermo Scientific
Instrument type: LC-ESI-QFT
Ms type: MS2
Ion mode: POSITIVE
Ionization: ESI
Fragmentation mode: HCD
Collision energy: 150 (nominal)
Resolution: 35000
Column name: XBridge C18 3.5um, 2.1x50mm, Waters
Retention time: 8.8 min
Base peak: 248.0579
Precursor m/z: 248.0585
Precursor type: [M+H]+
m/z	relative intensity	assigned
50.0151	29	C4H2+
51.023	60	C4H3+
52.0182	99	C3H2N+
53.0022	76	C3HO+
53.0386	13	C4H5+
53.9975	28	C2NO+
54.01	4	C3H2O+
54.0339	6	C3H4N+
55.0179	9	C3H3O+
56.0495	309	C3H6N+
60.9839	1	C2H2Cl+
61.9793	4	CHClN+
64.0182	103	C4H2N+
65.026	4	C4H3N+
65.0386	61	C5H5+
66.0338	999	C4H4N+
67.0291	124	C3H3N2+
67.0417	81	C4H5N+
67.9892	23	C3O2+
68.0131	1	C3H2NO+
68.0495	9	C4H6N+
68.997	1	C3HO2+
69.0084	9	C2HN2O+
75.0104	15	C5HN+
76.0181	165	C5H2N+
77.0385	46	C6H5+
78.0087	3	C3N3+
81.0446	8	C4H5N2+
82.0287	87	C4H4NO+
84.0444	32	C4H6NO+
84.984	6	C4H2Cl+
91.0291	26	C5H3N2+
92.0131	2	C5H2NO+
92.0371	4	C5H4N2+
92.0494	12	C6H6N+
93.0448	259	C5H5N2+
94.0285	2	C5H4NO+
94.0526	39	C5H6N2+
95.0492	59	C6H7O+
98.0601	11	C5H8NO+
105.0448	33	C6H5N2+
110.0475	6	C5H6N2O+
111.0553	450	C5H7N2O+
111.995	2	C5H3ClN+
112.0393	5	C2H9ClN2O+
119.024	19	C6H3N2O+
125.071	2	C6H9N2O+
126.0423	9	C2H9ClN3O+
129.0214	26	C5H6ClN2+
137.0347	19	C3H8ClN3O+
