Mass spectrum: Clomipramine; LC-ESI-QFT; MS2; CE: 150; R=35000; [M+H]+
Name: Clomipramine
Name: 3-(2-chloro-5,6-dihydrobenzo[b][1]benzazepin-11-yl)-N,N-dimethylpropan-1-amine
Formula: C19H23ClN2
Exact mass: 314.15498
SMILES: CN(C)CCCN1C2=CC=CC=C2CCC3=C1C=C(C=C3)Cl
InChI: InChI=1S/C19H23ClN2/c1-21(2)12-5-13-22-18-7-4-3-6-15(18)8-9-16-10-11-17(20)14-19(16)22/h3-4,6-7,10-11,14H,5,8-9,12-13H2,1-2H3
Instrument: Q Exactive Plus Orbitrap Thermo Scientific
Instrument type: LC-ESI-QFT
Ms type: MS2
Ion mode: POSITIVE
Ionization: ESI
Fragmentation mode: HCD
Collision energy: 150 (nominal)
Resolution: 35000
Column name: XBridge C18 3.5um, 2.1x50mm, Waters
Retention time: 9.2 min
Base peak: 315.1618
Precursor m/z: 315.1623
Precursor type: [M+H]+
m/z	relative intensity	assigned
51.023	2	C4H3+
53.0387	1	C4H5+
56.0495	70	C3H6N+
57.0574	4	C3H7N+
58.0652	999	C3H8N+
62.0151	1	C5H2+
63.023	9	C5H3+
65.0386	12	C5H5+
70.0652	2	C4H8N+
71.073	10	C4H9N+
75.023	3	C6H3+
77.0386	2	C6H5+
86.0965	8	C5H12N+
89.0386	55	C7H5+
90.0465	6	C7H6+
91.0543	11	C7H7+
95.0492	6	C3H10ClN+
98.9996	3	C5H4Cl+
102.0466	2	C8H6+
103.0543	3	C8H7+
105.0449	3	C6H5N2+
113.039	1	C9H5+
114.0465	2	C9H6+
115.0544	23	C9H7+
116.0496	2	C8H6N+
117.0573	3	C8H7N+
124.0077	1	C7H5Cl+
126.0463	1	C10H6+
127.0417	1	C9H5N+
128.0496	7	C9H6N+
128.0621	2	C10H8+
129.0448	3	C8H5N2+
130.0653	5	C9H8N+
139.0544	31	C11H7+
140.0497	18	C10H6N+
140.062	2	C11H8+
149.0156	1	C9H6Cl+
150.0466	4	C12H6+
151.0545	2	C12H7+
152.0623	18	C12H8+
153.0575	2	C11H7N+
163.0544	38	C13H7+
164.0622	37	C13H8+
165.0701	126	C13H9+
166.0654	32	C12H8N+
167.0732	4	C12H9N+
168.0571	16	C9H11ClN+
169.065	6	C9H12ClN+
176.0623	10	C14H8+
177.0576	12	C13H7N+
177.0697	6	C14H9+
178.0779	29	C14H10+
179.0606	2	C12H7N2+
179.0728	4	C13H9N+
180.081	4	C13H10N+
189.0576	3	C14H7N+
189.07	5	C15H9+
190.0653	125	C14H8N+
191.0731	213	C14H9N+
192.081	25	C14H10N+
193.0888	2	C14H11N+
194.0602	2	C10H11ClN2+
196.0522	3	C10H11ClNO+
199.0311	9	C13H8Cl+
200.0266	5	C12H7ClN+
201.0345	4	C12H8ClN+
203.0733	4	C15H9N+
204.0811	47	C15H10N+
205.0889	3	C15H11N+
206.0967	4	C15H12N+
216.0812	2	C16H10N+
217.0889	6	C16H11N+
218.0966	3	C16H12N+
225.0344	8	C14H8ClN+
226.042	9	C14H9ClN+
227.0504	1	C14H10ClN+
