Mass spectrum: Metoprolol; LC-ESI-ITFT; MS2; CE: 45%; R=7500; [M+H]+
Name: Metoprolol
Name: 1-(isopropylamino)-3-[4-(2-methoxyethyl)phenoxy]propan-2-ol
Formula: C15H25NO3
Exact mass: 267.1834
SMILES: COCCC1=CC=C(OCC(O)CNC(C)C)C=C1
InChI: InChI=1S/C15H25NO3/c1-12(2)16-10-14(17)11-19-15-6-4-13(5-7-15)8-9-18-3/h4-7,12,14,16-17H,8-11H2,1-3H3
Instrument: LTQ Orbitrap XL Thermo Scientific
Instrument type: LC-ESI-ITFT
Ms type: MS2
Ion mode: POSITIVE
Ionization: ESI
Fragmentation mode: HCD
Collision energy: 45 % (nominal)
Resolution: 7500
Column name: XBridge C18 3.5um, 2.1x50mm, Waters
Retention time: 5.1 min
Base peak: 268.1916
Precursor m/z: 268.1907
Precursor type: [M+H]+
m/z	relative intensity	assigned
56.0495	126	C3H6N+
58.0651	31	C3H8N+
72.0808	274	C4H10N+
74.0601	416	C3H8NO+
93.0696	8	C7H9+
98.0964	372	C6H12N+
100.1125	10	C6H14N+
105.0699	31	C8H9+
116.107	620	C6H14NO+
121.0648	331	C8H9O+
131.0856	43	C10H11+
133.0648	321	C9H9O+
135.0808	12	C9H11O+
141.0699	10	C11H9+
147.0805	43	C10H11O+
148.0756	62	C9H10NO+
159.0805	396	C11H11O+
161.0958	23	C11H13O+
163.1119	17	C11H15O+
165.091	90	C10H13O2+
169.0758	8	C11H9N2+
176.107	153	C11H14NO+
177.0909	93	C11H13O2+
179.1066	21	C11H15O2+
191.1067	394	C12H15O2+
194.1175	43	C11H16NO2+
218.1539	70	C14H20NO+
226.1438	122	C12H20NO3+
250.1797	38	C15H24NO2+
268.1904	999	C15H26NO3+
