Mass spectrum: Trimipramine; LC-ESI-ITFT; MS2; CE: 90%; R=30000; [M+H]+
Name: Trimipramine
Name: 3-(5,6-dihydrobenzo[b][1]benzazepin-11-yl)-N,N,2-trimethyl-1-propanamine
Formula: C20H26N2
Exact mass: 294.2096
SMILES: CC(CN1C2=CC=CC=C2CCC3=CC=CC=C31)CN(C)C
InChI: InChI=1S/C20H26N2/c1-16(14-21(2)3)15-22-19-10-6-4-8-17(19)12-13-18-9-5-7-11-20(18)22/h4-11,16H,12-15H2,1-3H3
Instrument: LTQ Orbitrap XL Thermo Scientific
Instrument type: LC-ESI-ITFT
Ms type: MS2
Ion mode: POSITIVE
Ionization: ESI
Fragmentation mode: HCD
Collision energy: 90 % (nominal)
Resolution: 30000
Column name: XBridge C18 3.5um, 2.1x50mm, Waters
Retention time: 8.7 min
Base peak: 295.2178
Precursor m/z: 295.2169
Precursor type: [M+H]+
m/z	relative intensity	assigned
56.0493	5	C3H6N+
58.0651	999	C3H8N+
70.0651	5	C4H8N+
71.073	17	C4H9N+
85.0886	21	C5H11N+
91.0542	7	C7H7+
100.1121	395	C6H14N+
180.0809	9	C13H10N+
192.0806	40	C14H10N+
193.0885	668	C14H11N+
194.0964	9	C14H12N+
206.0965	11	C15H12N+
207.1038	10	C15H13N+
208.1119	125	C15H14N+
234.1277	17	C17H16N+
