Mass spectrum: Thiacloprid; LC-ESI-ITFT; MS2; CE: 30%; R=7500; [M+H]+
Name: Thiacloprid
Name: (Z)-[3-[(6-Chloro-3-pyridinyl)methyl]-2-thiazolidinylidene]cyanamide
Name: Calypso
Formula: C10H9ClN4S
Exact mass: 252.0236
SMILES: C1CSC(=NC#N)N1CC2=CN=C(C=C2)Cl
InChI: InChI=1S/C10H9ClN4S/c11-9-2-1-8(5-13-9)6-15-3-4-16-10(15)14-7-12/h1-2,5H,3-4,6H2
Instrument: LTQ Orbitrap XL Thermo Scientific
Instrument type: LC-ESI-ITFT
Ms type: MS2
Ion mode: POSITIVE
Ionization: ESI
Fragmentation mode: HCD
Collision energy: 30 % (nominal)
Resolution: 7500
Column name: XBridge C18 3.5um, 2.1x50mm, Waters
Retention time: 5.8 min
Base peak: 253.0312
Precursor m/z: 253.0309
Precursor type: [M+H]+
m/z	relative intensity	assigned
90.0338	3	C6H4N+
98.9997	1	C5H4Cl+
126.0105	809	C6H5ClN+
151.0056	6	C7H4ClN2+
186.0139	67	C8H9ClNS+
190.0441	1	C9H8N3S+
193.0278	2	C8H6ClN4+
211.0092	13	C9H8ClN2S+
217.0542	14	C10H9N4S+
226.02	18	C9H9ClN3S+
236.0047	7	C10H7ClN3S+
253.031	999	C10H10ClN4S+
