Mass spectrum: Haloxyfop; LC-ESI-QFT; MS2; CE: 150; R=35000; [M+H]+
Name: Haloxyfop
Name: 2-[4-[3-chloro-5-(trifluoromethyl)pyridin-2-yl]oxyphenoxy]propanoic acid
Formula: C15H11ClF3NO4
Exact mass: 361.03287
SMILES: CC(C(=O)O)OC1=CC=C(C=C1)OC2=C(C=C(C=N2)C(F)(F)F)Cl
InChI: InChI=1S/C15H11ClF3NO4/c1-8(14(21)22)23-10-2-4-11(5-3-10)24-13-12(16)6-9(7-20-13)15(17,18)19/h2-8H,1H3,(H,21,22)
Instrument: Q Exactive Plus Orbitrap Thermo Scientific
Instrument type: LC-ESI-QFT
Ms type: MS2
Ion mode: POSITIVE
Ionization: ESI
Fragmentation mode: HCD
Collision energy: 150 (nominal)
Resolution: 35000
Column name: XBridge C18 3.5um, 2.1x50mm, Waters
Retention time: 13.6 min
Base peak: 391.2839
Precursor m/z: 362.0401
Precursor type: [M+H]+
m/z	relative intensity	assigned
50.0152	82	C4H2+
51.0042	16	CHF2+
51.023	108	C4H3+
52.0182	9	C3H2N+
52.0308	20	C4H4+
53.0023	91	C3HO+
53.0387	101	C4H5+
53.9975	14	C2NO+
54.0465	22	C4H6+
55.0179	48	C3H3O+
55.0543	5	C4H7+
57.0136	63	C3H2F+
61.0073	30	C5H+
62.0152	122	C5H2+
63.023	999	C5H3+
64.0182	29	C4H2N+
64.0308	102	C5H4+
65.0387	838	C5H5+
66.0465	56	C5H6+
66.9746	32	CHClF+
67.0543	4	C5H7+
68.0057	3	C4HF+
68.9947	145	CF3+
68.997	8	C3HO2+
72.984	82	C3H2Cl+
74.0152	363	C6H2+
75.0041	145	C3HF2+
75.0104	51	C5HN+
75.023	304	C6H3+
76.0182	54	C5H2N+
76.0308	23	C6H4+
77.0022	9	C5HO+
77.0386	44	C6H5+
78.034	4	C5H4N+
78.0465	16	C6H6+
79.0179	36	C5H3O+
79.0544	9	C6H7+
81.0135	22	C5H2F+
81.0336	168	C5H5O+
82.0089	4	C4HFN+
83.0292	9	C5H4F+
84.9652	98	CClF2+
84.984	22	C4H2Cl+
86.0151	24	C7H2+
87.023	40	C7H3+
88.0121	11	C4H2F2+
88.0183	19	C6H2N+
88.0309	10	C7H4+
89.0387	35	C7H5+
90.0341	4	C6H4N+
90.0468	2	C7H6+
90.9746	50	C3HClF+
91.0544	118	C7H7+
92.0258	29	C6H4O+
92.0369	2	C5H4N2+
92.9949	10	C3F3+
93.0137	4	C6H2F+
93.0336	3	C6H5O+
94.009	2	C5HFN+
94.0215	3	C6H3F+
94.0414	28	C6H6O+
95.0493	87	C6H7O+
96.0247	5	C5H3FN+
96.0446	3	C5H6NO+
96.9843	4	C5H2Cl+
98.0151	17	C8H2+
98.9842	17	CH4ClO3+
99.0042	61	C5HF2+
99.0232	11	C8H3+
99.9994	39	C4F2N+
100.0184	12	C7H2N+
101.0027	4	C4H4ClN+
101.0198	30	C5H3F2+
101.0389	13	C8H5+
102.0465	125	C8H6+
103.042	5	C7H5N+
103.0544	3	C8H7+
104.0132	13	C6H2NO+
105.0137	20	C7H2F+
105.0338	13	C4H8ClN+
105.0448	62	C6H5N2+
106.0216	3	C7H3F+
107.0105	12	C4H2F3+
107.0293	22	C7H4F+
108.0372	11	C7H5F+
108.9652	144	C3ClF2+
109.9793	166	C5HClN+
111.0041	2	C6HF2+
111.023	58	C9H3+
111.9948	3	C5H3ClN+
112.0122	9	C6H2F2+
112.0185	15	C8H2N+
112.0309	8	C9H4+
113.0387	153	C9H5+
114.034	30	C8H4N+
114.9993	3	C2H4ClF2N+
115.0418	4	C8H5N+
115.0544	3	C9H7+
116.0496	2	C8H6N+
117.0137	9	C8H2F+
119.0105	49	C5H2F3+
120.0374	14	C8H5F+
120.0448	10	C7H6NO+
121.0398	10	C6H5N2O+
122.0154	6	C10H2+
122.9998	3	C7H4Cl+
123.0043	5	C7HF2+
123.0105	4	C9HN+
123.0234	10	C10H3+
123.9998	14	C6F2N+
124.0185	4	C9H2N+
125.0077	11	C6HF2N+
125.0199	28	C7H3F2+
126.0152	31	C6H2F2N+
127.0421	12	C9H5N+
127.9899	24	C5H3ClNO+
128.0496	71	C9H6N+
129.0448	56	C8H5N2+
129.9859	6	C5H2ClFN+
131.0293	116	C9H4F+
132.0186	14	C6H3F3+
132.0249	19	C5H4F2NO+
132.0373	9	C9H5F+
132.9654	22	C5ClF2+
133.0451	11	C9H6F+
134.0406	3	C8H5FN+
135.0045	3	C8HF2+
135.032	3	C7H5NO2+
136.0124	3	C8H2F2+
137.0202	3	C8H3F2+
137.9744	11	C6HClNO+
138.0111	5	C7H3FO2+
138.028	11	C8H4F2+
138.0343	36	C10H4N+
139.0421	25	C10H5N+
139.0546	3	C11H7+
140.0497	77	C10H6N+
141.0138	4	C10H2F+
141.0576	5	C10H7N+
142.0101	5	C6H2F2NO+
143.0295	3	C10H4F+
144.026	9	C6H4F2NO+
144.0449	14	C9H6NO+
145.0264	9	C7H4F3+
146.0214	3	C2H9ClNO4+
146.0604	9	C9H8NO+
147.0104	21	C11HN+
147.9963	4	C5H4ClFNO+
148.0185	25	C11H2N+
149.02	15	C9H3F2+
149.04	18	C6H9ClFN+
149.992	5	C5HF3O2+
150.0351	4	C8H5FNO+
151.0356	153	C9H5F2+
152.0311	2	C8H4F2N+
152.9718	15	C5HClF3+
154.0655	4	C11H8N+
156.0184	13	C4H9ClO4+
156.0243	3	C10H3FN+
156.0444	29	C10H6NO+
157.0527	13	C10H7NO+
157.9806	8	C6H2ClFNO+
158.0403	74	C10H5FN+
159.048	24	C10H6FN+
159.9761	33	C6HClF2N+
161.0202	10	C10H3F2+
162.0163	2	C6H3F3NO+
162.028	42	C10H4F2+
162.0347	6	C9H5FNO+
163.0235	5	C6H4F3NO+
164.0314	5	C6H5F3NO+
164.0498	4	C12H6N+
168.0247	3	C11H3FN+
168.0451	10	C11H6NO+
169.0263	23	C5H10ClO4+
169.033	12	C11H4FN+
170.0406	9	C11H5FN+
175.0185	3	C10H6ClN+
176.0311	25	C10H4F2N+
177.0392	14	C10H5F2N+
177.9871	3	C6HF3O3+
178.0465	3	C10H6F2N+
179.9825	9	C6H2ClF3N+
180.0384	2	C10H6F2O+
182.0343	11	C6H11ClO4+
184.0396	11	C11H6NO2+
187.0232	8	C11H3F2N+
188.0315	13	C8H5F3NO+
188.0504	2	C11H7FNO+
189.0391	15	C11H5F2N+
190.0464	23	C11H6F2N+
191.0418	4	C10H5F2N2+
196.0379	2	C6H11ClNO4+
197.9933	10	C6H4ClF3NO+
207.03	3	C7H10ClNO4+
208.0379	9	C7H11ClNO4+
