Mass spectrum: Fexofenadine; LC-ESI-QFT; MS2; CE: 15; R=35000; [M-H]-
Name: Fexofenadine
Name: 2-[4-[1-hydroxy-4-[4-[hydroxy(diphenyl)methyl]-1-piperidinyl]butyl]phenyl]-2-methylpropanoic acid
Formula: C32H39NO4
Exact mass: 501.28791
SMILES: CC(C)(C1=CC=C(C=C1)C(CCCN2CCC(CC2)C(C3=CC=CC=C3)(C4=CC=CC=C4)O)O)C(=O)O
InChI: InChI=1S/C32H39NO4/c1-31(2,30(35)36)25-17-15-24(16-18-25)29(34)14-9-21-33-22-19-28(20-23-33)32(37,26-10-5-3-6-11-26)27-12-7-4-8-13-27/h3-8,10-13,15-18,28-29,34,37H,9,14,19-23H2,1-2H3,(H,35,36)
Instrument: Q Exactive Orbitrap Thermo Scientific
Instrument type: LC-ESI-QFT
Ms type: MS2
Ion mode: NEGATIVE
Ionization: ESI
Fragmentation mode: HCD
Collision energy: 15 (nominal)
Resolution: 35000
Column name: XBridge C18 3.5um, 2.1x50mm, Waters
Retention time: 8.2 min
Base peak: 500.2812
Precursor m/z: 500.2806
Precursor type: [M-H]-
m/z	relative intensity	assigned
147.0817	1	C10H11O-
182.1187	1	C10H16NO2-
183.0815	9	C13H11O-
188.108	2	C12H14NO-
230.155	9	C15H20NO-
258.15	27	C16H20NO2-
266.1551	6	C18H20NO-
302.2127	4	C19H28NO2-
360.2319	1	C25H30NO-
378.2438	553	C25H32NO2-
456.2909	999	C31H38NO2-
