Mass spectrum: Flurtamone; LC-ESI-QFT; MS2; CE: 150; R=35000; [M-H]-
Name: Flurtamone
Name: 5-(methylamino)-2-phenyl-4-[3-(trifluoromethyl)phenyl]furan-3-one
Formula: C18H14F3NO2
Exact mass: 333.09766
SMILES: CNC1=C(C(=O)C(O1)C2=CC=CC=C2)C3=CC(=CC=C3)C(F)(F)F
InChI: InChI=1S/C18H14F3NO2/c1-22-17-14(12-8-5-9-13(10-12)18(19,20)21)15(23)16(24-17)11-6-3-2-4-7-11/h2-10,16,22H,1H3
Instrument: Q Exactive Plus Orbitrap Thermo Scientific
Instrument type: LC-ESI-QFT
Ms type: MS2
Ion mode: NEGATIVE
Ionization: ESI
Fragmentation mode: HCD
Collision energy: 150 (nominal)
Resolution: 35000
Column name: XBridge C18 3.5um, 2.1x50mm, Waters
Retention time: 10.1 min
Base peak: 332.0898
Precursor m/z: 332.0904
Precursor type: [M-H]-
m/z	relative intensity	assigned
50.0036	172	C3N-
65.0033	4	C4HO-
66.999	28	C4F-
68.9958	43	CF3-
70.9939	12	C3FO-
73.0084	60	C6H-
74.0037	15	C5N-
75.0241	5	C6H3-
85.0083	6	C7H-
90.9989	3	C6F-
94.9939	4	C5FO-
96.0005	29	C8-
97.0083	999	C8H-
98.0036	11	C7N-
99.024	33	C8H3-
101.0396	17	C8H5-
108.0005	6	C9-
109.0083	110	C9H-
109.9974	20	C6F2-
113.0272	3	C8H3N-
114.0349	4	C8H4N-
117.0147	147	C8H2F-
122.0036	311	C9N-
123.0115	6	C9HN-
129.0146	45	C9H2F-
135.0053	19	C8HF2-
136.013	53	C8H2F2-
137.0209	15	C8H3F2-
142.0098	93	C9HFN-
143.0176	3	C9H2FN-
145.0095	100	C9H2FO-
149.0205	12	C9H3F2-
156.0194	62	C8H3F3-
162.0162	47	C9H2F2N-
165.0158	55	C9H3F2O-
169.0269	5	C9H4F3-
180.026	3	C9H4F2NO-
182.0222	44	C9H3F3N-
185.0219	42	C9H4F3O-
