Mass spectrum: Zonisamide; LC-ESI-QFT; MS2; CE: 60; R=35000; [M-H]-
Name: Zonisamide
Name: AD-810
Name: 1,2-benzoxazol-3-ylmethanesulfonamide
Formula: C8H8N2O3S
Exact mass: 212.02556
SMILES: O=S(=O)(N)Cc2noc1ccccc12
InChI: InChI=1S/C8H8N2O3S/c9-14(11,12)5-7-6-3-1-2-4-8(6)13-10-7/h1-4H,5H2,(H2,9,11,12)
Instrument: Q Exactive Orbitrap Thermo Scientific
Instrument type: LC-ESI-QFT
Ms type: MS2
Ion mode: NEGATIVE
Ionization: ESI
Fragmentation mode: HCD
Collision energy: 60 (nominal)
Resolution: 35000
Column name: XBridge C18 3.5um, 2.1x50mm, Waters
Retention time: 4.3 min
Base peak: 211.0183
Precursor m/z: 211.0183
Precursor type: [M-H]-
m/z	relative intensity	assigned
61.9706	5	NOS-
63.9624	25	O2S-
64.9703	2	HO2S-
65.0397	7	C5H5-
77.9655	14	NO2S-
78.9733	83	HNO2S-
79.9813	3	H2NO2S-
90.035	22	C6H4N-
91.0553	35	C7H7-
93.0346	71	C6H5O-
93.9604	3	NO3S-
107.0503	44	C7H7O-
117.0348	102	C8H5O-
118.0301	699	C7H4NO-
119.0502	999	C8H7O-
120.0454	2	C7H6NO-
130.0298	2	C8H4NO-
131.0375	2	C8H5NO-
132.0455	5	C8H6NO-
147.0563	5	C8H7N2O-
