Mass spectrum: Permethrin; LC-ESI-QFT; MS2; CE: 90; R=35000; [M+H]+
Name: Permethrin
Name: [3-(phenyloxy)phenyl]methyl 3-(2,2-dichloroethenyl)-2,2-dimethylcyclopropanecarboxylate
Name: (3-phenoxyphenyl)methyl 3-(2,2-dichloroethenyl)-2,2-dimethylcyclopropane-1-carboxylate
Formula: C21H20Cl2O3
Exact mass: 390.07895
SMILES: Cl/C(Cl)=C/C3C(C(=O)OCc2cccc(Oc1ccccc1)c2)C3(C)C
InChI: InChI=1S/C21H20Cl2O3/c1-21(2)17(12-18(22)23)19(21)20(24)25-13-14-7-6-10-16(11-14)26-15-8-4-3-5-9-15/h3-12,17,19H,13H2,1-2H3
Instrument: Q Exactive Orbitrap Thermo Scientific
Instrument type: LC-ESI-QFT
Ms type: MS2
Ion mode: POSITIVE
Ionization: ESI
Fragmentation mode: HCD
Collision energy: 90 (nominal)
Resolution: 35000
Column name: XBridge C18 3.5um, 2.1x50mm, Waters
Retention time: 18.0 min
Base peak: 183.0804
Precursor m/z: 391.0862
Precursor type: [M+H]+
m/z	relative intensity	assigned
57.0699	59	C4H9+
59.0491	1	C3H7O+
65.0386	320	C5H5+
67.0542	5	C5H7+
71.0855	27	C5H11+
77.0152	4	C3H6Cl+
77.0385	2	C6H5+
89.0386	3	C7H5+
90.0463	1	C7H6+
93.0335	97	C6H5O+
95.0492	16	C6H7O+
98.0362	7	C5H6O2+
111.0441	98	C6H7O2+
115.0542	24	C9H7+
116.0621	1	C9H8+
121.0284	500	C7H5O2+
121.0395	149	C6H5N2O+
128.0621	19	C10H8+
129.0697	9	C10H9+
139.0543	19	C11H7+
140.062	18	C11H8+
141.07	7	C11H9+
144.0571	1	C10H8O+
145.0648	6	C10H9O+
149.0234	999	C8H5O3+
152.062	16	C12H8+
153.07	20	C12H9+
154.0776	6	C12H10+
155.0603	6	C10H7N2+
155.0855	4	C12H11+
157.0649	5	C11H9O+
162.0231	7	C10H7Cl+
165.0699	69	C13H9+
166.0776	15	C13H10+
167.034	5	C8H7O4+
167.0855	24	C13H11+
168.057	22	C12H8O+
175.031	1	C11H8Cl+
178.0779	6	C14H10+
179.0853	8	C14H11+
180.0931	2	C14H12+
181.0497	1	C9H9O4+
181.0645	12	C13H9O+
181.1012	4	C14H13+
182.0726	4	C13H10O+
189.07	2	C15H9+
191.0856	3	C15H11+
205.0651	2	C15H9O+
207.0801	1	C15H11O+
215.0861	1	C17H11+
218.0725	4	C16H10O+
219.0802	1	C16H11O+
231.0805	1	C17H11O+
