Mass spectrum: 2,6-Dichlorobenzamide; LC-ESI-ITFT; MS2; CE: 75%; R=7500; [M+H]+
Name: 2,6-Dichlorobenzamide
Name: 2,6-bis(chloranyl)benzamide
Formula: C7H5Cl2NO
Exact mass: 188.9748
SMILES: ClC1=C(C(N)=O)C(Cl)=CC=C1
InChI: InChI=1S/C7H5Cl2NO/c8-4-2-1-3-5(9)6(4)7(10)11/h1-3H,(H2,10,11)
Instrument: LTQ Orbitrap XL Thermo Scientific
Instrument type: LC-ESI-ITFT
Ms type: MS2
Ion mode: POSITIVE
Ionization: ESI
Fragmentation mode: HCD
Collision energy: 75 % (nominal)
Resolution: 7500
Column name: XBridge C18 3.5um, 2.1x50mm, Waters
Retention time: 4.0 min
Base peak: 189.9823
Precursor m/z: 189.9821
Precursor type: [M+H]+
m/z	relative intensity	assigned
84.9837	9	C4H2Cl+
86.963	5	C3ClO+
90.0336	8	C6H4N+
108.9838	17	C6H2Cl+
110.9993	2	C6H4Cl+
118.029	4	C7H4NO+
120.9606	6	C4H3Cl2+
126.9945	4	C6H4ClO+
128.002	2	C6H5ClO+
139.0055	11	C6H4ClN2+
144.9604	16	C6H3Cl2+
146.9759	2	C6H5Cl2+
154.0047	2	C7H5ClNO+
162.9713	3	C6H5Cl2O+
164.0007	40	C7H3ClN3+
171.9714	62	C7H4Cl2N+
172.9559	999	C7H3Cl2O+
189.9822	29	C7H6Cl2NO+
