Mass spectrum: Diprogulic Acid; LC-ESI-QFT; MS2; CE: 90%; R=17500; [M+H]+
Name: Diprogulic Acid
Name: (-)-Diacetone-2-keto-L-gulonic acid monohydrate
Name: 4,4,11,11-tetramethyl-3,5,7,10,12-pentaoxatricyclo[6.4.0.02,6]dodecane-6-carboxylic acid
Formula: C12H18O7
Exact mass: 274.1053
SMILES: CC1(OCC2C(O1)C3C(O2)(OC(O3)(C)C)C(=O)O)C
InChI: InChI=1S/C12H18O7/c1-10(2)15-5-6-7(17-10)8-12(16-6,9(13)14)19-11(3,4)18-8/h6-8H,5H2,1-4H3,(H,13,14)
Instrument: Exploris 240 Orbitrap Thermo Scientific
Instrument type: LC-ESI-QFT
Ms type: MS2
Ion mode: POSITIVE
Ionization: ESI
Fragmentation mode: HCD
Collision energy: 90 % (nominal)
Resolution: 17500
Column name: XBridge C18 3.5um, 2.1x50mm, Waters
Retention time: 4.742 min
Base peak: 275.1123
Precursor m/z: 275.1125
Precursor type: [M+H]+
m/z	relative intensity	assigned
53.0385	9	C4H5+
55.0179	47	C3H3O+
57.0335	77	C3H5O+
59.0491	999	C3H7O+
67.0176	10	C4H3O+
68.997	64	C3HO2+
69.0335	132	C4H5O+
71.0128	105	C3H3O2+
85.0284	37	C4H5O2+
87.0075	50	C3H3O3+
95.0127	169	C5H3O2+
97.0285	26	C5H5O2+
111.0075	14	C5H3O3+
115.0025	37	C4H3O4+
