Mass spectrum: Fluazifop; LC-ESI-ITFT; MS2; CE: 90%; R=7500; [M+H]+
Name: Fluazifop
Name: 2-[4-[5-(trifluoromethyl)pyridin-2-yl]oxyphenoxy]propanoic acid
Formula: C15H12F3NO4
Exact mass: 327.0724
SMILES: CC(C(=O)O)OC1=CC=C(C=C1)OC2=NC=C(C=C2)C(F)(F)F
InChI: InChI=1S/C15H12F3NO4/c1-9(14(20)21)22-11-3-5-12(6-4-11)23-13-7-2-10(8-19-13)15(16,17)18/h2-9H,1H3,(H,20,21)
Instrument: LTQ Orbitrap XL Thermo Scientific
Instrument type: LC-ESI-ITFT
Ms type: MS2
Ion mode: POSITIVE
Ionization: ESI
Fragmentation mode: HCD
Collision energy: 90 % (nominal)
Resolution: 7500
Column name: XBridge C18 3.5um, 2.1x50mm, Waters
Retention time: 10.9 min
Base peak: 328.0794
Precursor m/z: 328.0791
Precursor type: [M+H]+
m/z	relative intensity	assigned
63.023	42	C5H3+
64.0308	59	C5H4+
65.0386	752	C5H5+
75.0229	77	C6H3+
77.0386	45	C6H5+
78.0335	29	C5H4N+
81.0331	33	C5H5O+
91.0542	820	C7H7+
92.0256	115	C6H4O+
93.0332	57	C6H5O+
94.0413	109	C6H6O+
103.0541	29	C8H7+
104.0131	34	C6H2NO+
109.0283	46	C6H5O2+
110.0359	40	C6H6O2+
111.0437	30	C6H7O2+
119.0491	16	C8H7O+
120.0438	46	C7H6NO+
121.0279	19	C7H5O2+
121.0393	51	C6H5N2O+
126.0147	55	C6H2F2N+
127.0229	104	C6H3F2N+
130.0651	122	C9H8N+
131.0491	325	C9H7O+
133.0452	30	C9H6F+
140.0495	47	C10H6N+
141.0572	481	C10H7N+
142.0423	17	C7H7FO2+
145.033	46	C6H5F2NO+
146.0211	239	C6H3F3N+
147.029	370	C6H4F3N+
148.0369	26	C6H5F3N+
151.0357	25	C9H5F2+
152.0437	33	C9H6F2+
158.06	279	C10H8NO+
159.0478	35	C10H6FN+
163.0241	68	C6H4F3NO+
164.0317	810	C6H5F3NO+
168.0441	103	C11H6NO+
169.0519	49	C11H7NO+
177.0584	27	C10H8FNO+
178.0471	42	C10H6F2N+
179.0188	556	C6H4F3NO2+
180.0383	106	C10H6F2O+
185.0456	62	C9H6F3N+
187.0423	31	C11H6FNO+
188.0508	94	C11H7FNO+
190.0462	159	C11H6F2N+
198.0523	238	C10H7F3N+
199.0359	20	C10H6F3O+
199.0605	19	C10H8F3N+
206.0398	25	C14H5FN+
207.049	83	C11H7F2NO+
208.0573	49	C11H8F2NO+
209.0445	134	C11H6F3N+
210.0526	86	C11H7F3N+
211.0605	49	C11H8F3N+
218.0413	243	C12H6F2NO+
226.0472	133	C11H7F3NO+
227.0549	470	C11H8F3NO+
235.0621	26	C15H9NO2+
238.0472	629	C12H7F3NO+
254.0422	999	C12H7F3NO2+
256.0592	29	C12H9F3NO2+
