Mass spectrum: Varenicline; LC-ESI-QFT; MS2; CE: 150; R=35000; [M+H]+
Name: Varenicline
Name: 7,8,9,10-tetrahydro-6h-6,10-methanoazepino[4,5-g]quinoxaline
Name: 7,8,9,10-tetrahydro-6,10-Methano-6H-pyrazino[2,3-h][3]benzazepine
Formula: C13H13N3
Exact mass: 211.11095
SMILES: C1C2CNCC1C3=CC4=NC=CN=C4C=C23
InChI: InChI=1S/C13H13N3/c1-2-16-13-5-11-9-3-8(6-14-7-9)10(11)4-12(13)15-1/h1-2,4-5,8-9,14H,3,6-7H2
Instrument: Q Exactive Plus Orbitrap Thermo Scientific
Instrument type: LC-ESI-QFT
Ms type: MS2
Ion mode: POSITIVE
Ionization: ESI
Fragmentation mode: HCD
Collision energy: 150 (nominal)
Resolution: 35000
Column name: XBridge C18 3.5um, 2.1x50mm, Waters
Retention time: 2.7 min
Base peak: 212.118
Precursor m/z: 212.1182
Precursor type: [M+H]+
m/z	relative intensity	assigned
50.015	10	C4H2+
51.0229	8	C4H3+
52.0183	1	C3H2N+
53.0022	1	C3HO+
53.0386	11	C4H5+
61.0072	1	C5H+
62.0151	11	C5H2+
63.0229	49	C5H3+
64.018	1	C4H2N+
64.0306	1	C5H4+
65.0386	69	C5H5+
66.0464	1	C5H6+
74.015	12	C6H2+
75.0229	23	C6H3+
76.0181	1	C5H2N+
76.0307	20	C6H4+
77.0385	22	C6H5+
78.0339	1	C5H4N+
78.0464	10	C6H6+
86.015	4	C7H2+
87.0229	6	C7H3+
88.0307	39	C7H4+
89.0386	173	C7H5+
90.0338	10	C6H4N+
90.0464	89	C7H6+
91.0543	72	C7H7+
92.0256	7	C6H4O+
92.0494	2	C6H6N+
95.0492	30	C6H7O+
98.0151	4	C8H2+
99.0229	9	C8H3+
100.0307	7	C8H4+
101.0385	6	C8H5+
102.0339	9	C7H4N+
102.0464	34	C8H6+
103.0416	6	C7H5N+
103.0542	15	C8H7+
104.0494	1	C7H6N+
105.0448	19	C6H5N2+
113.0386	80	C9H5+
114.0465	279	C9H6+
115.0543	999	C9H7+
116.0495	67	C8H6N+
117.0335	12	C8H5O+
117.0447	10	C7H5N2+
117.0573	9	C8H7N+
117.0697	1	C9H9+
118.0413	56	C8H6O+
119.0491	9	C8H7O+
120.0444	4	C7H6NO+
125.0387	18	C10H5+
126.0464	650	C10H6+
127.0416	10	C9H5N+
127.0542	51	C10H7+
128.0495	41	C9H6N+
128.062	177	C10H8+
129.0447	35	C8H5N2+
129.0574	7	C9H7N+
129.0697	7	C10H9+
130.0402	1	C7H4N3+
130.0651	8	C9H8N+
131.0492	2	C9H7O+
131.0603	1	C8H7N2+
132.057	130	C9H8O+
133.0522	2	C8H7NO+
133.0647	5	C9H9O+
134.0601	7	C8H8NO+
135.0552	3	C7H7N2O+
138.0339	1	C10H4N+
139.0543	118	C11H7+
140.0495	180	C10H6N+
140.0618	28	C11H8+
141.0573	132	C10H7N+
141.0697	45	C11H9+
142.0526	38	C9H6N2+
142.0651	12	C10H8N+
143.0605	59	C9H7N2+
144.0569	1	C10H8O+
145.0648	43	C10H9O+
146.06	15	C9H8NO+
151.0418	1	C11H5N+
152.0495	14	C11H6N+
153.0573	53	C11H7N+
154.0651	46	C11H8N+
155.0604	130	C10H7N2+
156.0681	6	C10H8N2+
157.0523	6	C10H7NO+
157.0758	2	C10H9N2+
159.0804	1	C11H11O+
161.0709	4	C9H9N2O+
164.0495	3	C12H6N+
165.0574	5	C12H7N+
166.0526	4	C11H6N2+
166.0651	28	C12H8N+
167.0604	66	C11H7N2+
167.0722	12	C12H9N+
168.0682	313	C11H8N2+
169.076	70	C11H9N2+
170.0601	16	C11H8NO+
170.0839	2	C11H10N2+
171.0913	3	C11H11N2+
179.0605	12	C12H7N2+
180.056	7	C11H6N3+
180.0683	19	C12H8N2+
181.076	87	C12H9N2+
182.0718	2	C11H8N3+
182.0838	13	C12H10N2+
183.0916	1	C12H11N2+
185.0709	2	C11H9N2O+
192.0682	35	C13H8N2+
193.0762	41	C13H9N2+
194.0837	1	C13H10N2+
