Mass spectrum: Cycloxydim-TP BH 517-TSO E/Z-isomer; LC-ESI-QFT; MS2; CE: 60%; R=17500; [M+H]+
Name: Cycloxydim-TP BH 517-TSO E/Z-isomer
Name: Cycloxydim sulfoxide
Formula: C17H27NO4S
Exact mass: 341.1661
SMILES: CCC\C(=N/OCC)C1=C(O)CC(CC1=O)C1CCCS(=O)C1
InChI: InChI=1S/C17H27NO4S/c1-3-6-14(18-22-4-2)17-15(19)9-13(10-16(17)20)12-7-5-8-23(21)11-12/h12-13,19H,3-11H2,1-2H3/b18-14+
Instrument: Q Exactive Plus Orbitrap Thermo Scientific
Instrument type: LC-ESI-QFT
Ms type: MS2
Ion mode: POSITIVE
Ionization: ESI
Fragmentation mode: HCD
Collision energy: 60 % (nominal)
Resolution: 17500
Column name: XBridge C18 3.5um, 2.1x50mm, Waters
Retention time: 7.731 min
Base peak: 342.1734
Precursor m/z: 342.1734
Precursor type: [M+H]+
m/z	relative intensity	assigned
53.0386	17	C4H5+
55.0179	65	C3H3O+
55.0543	66	C4H7+
56.0494	30	C3H6N+
57.0334	56	C3H5O+
58.995	141	C2H3S+
62.9899	215	CH3OS+
65.0386	53	C5H5+
67.0542	246	C5H7+
68.0495	96	C4H6N+
69.0334	74	C4H5O+
70.065	120	C4H8N+
73.0105	34	C3H5S+
77.0055	24	C2H5OS+
79.0542	203	C6H7+
80.0492	36	C5H6N+
81.0333	64	C5H5O+
81.0699	100	C6H9+
82.0651	166	C5H8N+
84.0807	26	C5H10N+
85.0105	31	C4H5S+
87.0263	517	C4H7S+
91.0542	229	C7H7+
93.0334	33	C6H5O+
93.0699	146	C7H9+
94.0649	43	C6H8N+
95.0126	35	C5H3O2+
95.0491	95	C6H7O+
95.0854	29	C7H11+
96.0446	24	C5H6NO+
96.0807	30	C6H10N+
97.0107	38	C5H5S+
99.0261	39	C5H7S+
101.0419	712	C5H9S+
103.0542	30	C8H7+
105.0698	300	C8H9+
107.0491	340	C7H7O+
107.0854	55	C8H11+
108.0445	127	C6H6NO+
108.0806	54	C7H10N+
109.0282	34	C6H5O2+
109.0649	90	C7H9O+
110.06	402	C6H8NO+
111.0266	28	C6H7S+
111.0438	79	C6H7O2+
112.0757	589	C6H10NO+
113.0417	40	C6H9S+
115.0542	207	C9H7+
116.0617	17	C9H8+
117.0699	188	C9H9+
119.0855	53	C9H11+
120.0803	22	C8H10N+
121.0648	117	C8H9O+
122.0598	40	C7H8NO+
122.0964	236	C8H12N+
123.0259	17	C7H7S+
123.0442	63	C7H7O2+
123.0806	22	C8H11O+
124.076	76	C7H10NO+
125.0418	35	C7H9S+
128.0617	37	C10H8+
128.0704	27	C6H10NO2+
129.0368	197	C6H9OS+
129.0698	101	C10H9+
131.0854	58	C10H11+
132.0444	96	C8H6NO+
132.0806	74	C9H10N+
133.0647	196	C9H9O+
134.0597	29	C8H8NO+
134.096	38	C9H12N+
135.0441	37	C8H7O2+
135.0802	85	C9H11O+
136.0393	204	C7H6NO2+
136.0758	92	C8H10NO+
137.0597	37	C8H9O2+
138.0549	29	C7H8NO2+
138.0915	25	C8H12NO+
139.057	16	C8H11S+
142.0774	17	C11H10+
143.0853	44	C11H11+
144.0809	19	C10H10N+
145.0645	61	C10H9O+
145.1015	24	C11H13+
146.0602	110	C9H8NO+
146.0964	37	C10H12N+
147.0806	69	C10H11O+
148.0753	33	C9H10NO+
149.0476	230	C8H7NO2+
149.0591	24	C9H9O2+
150.0913	373	C9H12NO+
152.0708	24	C8H10NO2+
152.1068	39	C9H14NO+
153.0368	57	C8H9OS+
155.0854	18	C12H11+
158.0722	25	C11H10O+
159.068	45	C10H9NO+
159.0804	59	C11H11O+
160.0758	101	C10H10NO+
161.0597	363	C10H9O2+
162.0546	40	C9H8NO2+
162.0913	70	C10H12NO+
163.063	16	C9H9NO2+
163.0753	101	C10H11O2+
164.0703	30	C9H10NO2+
166.0867	27	C9H12NO2+
171.0473	41	C8H11O2S+
173.0959	41	C12H13O+
174.0915	109	C11H12NO+
175.0754	152	C11H11O2+
175.0985	70	C11H13NO+
176.1066	56	C11H14NO+
177.0912	50	C11H13O2+
177.1148	56	C11H15NO+
178.0862	999	C10H12NO2+
180.1019	215	C10H14NO2+
181.1093	28	C10H15NO2+
194.1172	33	C11H16NO2+
201.0913	15	C13H13O2+
202.1226	62	C13H16NO+
204.1379	41	C13H18NO+
238.1267	22	C13H20NOS+
246.1491	27	C15H20NO2+
252.1413	56	C14H22NOS+
263.1099	74	C15H19O2S+
280.1365	787	C15H22NO2S+
