Mass spectrum: Imidacloprid-urea; LC-ESI-ITFT; MS2; CE: 60%; R=7500; [M+H]+
Name: Imidacloprid-urea
Name: 1-[(6-Chloropyridin-3-yl)methyl]imidazolidin-2-one
Formula: C9H10ClN3O
Exact mass: 211.0512
SMILES: Clc2ncc(CN1CCNC1=O)cc2
InChI: InChI=1S/C9H10ClN3O/c10-8-2-1-7(5-12-8)6-13-4-3-11-9(13)14/h1-2,5H,3-4,6H2,(H,11,14)
Instrument: LTQ Orbitrap XL Thermo Scientific
Instrument type: LC-ESI-ITFT
Ms type: MS2
Ion mode: POSITIVE
Ionization: ESI
Fragmentation mode: HCD
Collision energy: 60 % (nominal)
Resolution: 7500
Column name: XBridge C18 3.5um, 2.1x50mm, Waters
Retention time: 4.6 min
Base peak: 212.0588
Precursor m/z: 212.0585
Precursor type: [M+H]+
m/z	relative intensity	assigned
56.0495	7	C3H6N+
65.0388	2	C5H5+
70.0287	4	C3H4NO+
71.0604	4	C3H7N2+
85.0396	7	C3H5N2O+
90.0338	3	C6H4N+
92.0496	14	C6H6N+
93.0574	11	C6H7N+
99.0553	219	C4H7N2O+
106.0651	3	C7H8N+
107.0604	8	C6H7N2+
110.0602	5	C6H8NO+
114.0105	40	C5H5ClN+
118.053	1	C7H6N2+
120.0681	1	C7H8N2+
121.0756	1	C7H9N2+
123.0554	3	C6H7N2O+
126.0105	379	C6H5ClN+
127.0184	18	C6H6ClN+
128.0262	999	C6H7ClN+
133.076	20	C8H9N2+
135.0553	1	C4H10ClN3+
141.0217	1	C6H6ClN2+
142.0056	7	C6H5ClNO+
142.029	3	C6H7ClN2+
144.0212	4	C6H7ClNO+
148.0872	1	C8H10N3+
154.0056	1	C7H5ClNO+
156.0447	1	C7H9ClN2+
167.0372	2	C8H8ClN2+
168.0213	1	C8H7ClNO+
169.0164	6	C7H6ClN2O+
169.0528	15	C8H10ClN2+
176.0819	43	C9H10N3O+
177.0893	1	C9H11N3O+
194.048	12	C9H9ClN3+
195.0321	26	C9H8ClN2O+
212.0587	172	C9H11ClN3O+
214.0626	1	C8H11ClN4O+
