Mass spectrum: Azoxystrobin; LC-ESI-ITFT; MS2; CE: 60%; R=15000; [M+H]+
Name: Azoxystrobin
Name: Methyl (E)-2-[2-[6-(2-cyanophenoxy)pyrimidin-4-YL]oxyphenyl]-3-methoxy-prop-2-enoate
Formula: C22H17N3O5
Exact mass: 403.1168206
SMILES: CO/C=C(\C1=CC=CC=C1OC2=NC=NC(=C2)OC3=CC=CC=C3C#N)/C(=O)OC
InChI: InChI=1S/C22H17N3O5/c1-27-13-17(22(26)28-2)16-8-4-6-10-19(16)30-21-11-20(24-14-25-21)29-18-9-5-3-7-15(18)12-23/h3-11,13-14H,1-2H3/b17-13+
Instrument: LTQ Orbitrap XL Thermo Scientific
Instrument type: LC-ESI-ITFT
Ms type: MS2
Ion mode: POSITIVE
Ionization: ESI
Fragmentation mode: HCD
Collision energy: 60 % (nominal)
Resolution: 15000
Column name: XBridge C18 3.5um, 2.1x50mm, Waters
Retention time: 9.9 min
Base peak: 404.1245
Precursor m/z: 404.1241
Precursor type: [M+H]+
m/z	relative intensity	assigned
77.0385	6	C6H5+
89.0386	23	C7H5+
91.0539	8	C7H7+
105.0335	9	C7H5O+
106.0653	8	C7H8N+
107.0492	19	C7H7O+
114.0338	24	C8H4N+
116.0497	11	C8H6N+
117.0573	7	C8H7N+
119.0365	11	C7H5NO+
120.0444	46	C7H6NO+
121.0647	11	C8H9O+
127.0414	8	C9H5N+
128.049	6	C9H6N+
129.0337	16	C9H5O+
129.0447	83	C8H5N2+
130.04	60	C7H4N3+
131.0491	10	C9H7O+
131.0605	6	C8H7N2+
132.0441	11	C8H6NO+
133.0287	10	C8H5O2+
133.0522	75	C8H7NO+
134.0601	170	C8H8NO+
141.0448	53	C9H5N2+
142.0521	5	C9H6N2+
143.0366	32	C9H5NO+
143.0604	85	C9H7N2+
144.0443	10	C9H6NO+
145.0284	35	C9H5O2+
145.0522	68	C9H7NO+
155.0605	26	C10H7N2+
156.0444	268	C10H6NO+
157.0282	26	C10H5O2+
159.0552	8	C9H7N2O+
160.0391	12	C9H6NO2+
161.0709	11	C9H9N2O+
169.0396	87	C10H5N2O+
170.0477	28	C10H6N2O+
171.0317	11	C10H5NO2+
171.0552	71	C10H7N2O+
172.0393	339	C10H6NO2+
173.0471	38	C10H7NO2+
177.0546	41	C10H9O3+
182.0473	35	C11H6N2O+
182.0713	17	C11H8N3+
183.0553	562	C11H7N2O+
184.0392	13	C11H6NO2+
186.055	10	C11H8NO2+
187.0503	19	C10H7N2O2+
197.0347	7	C11H5N2O2+
199.0502	118	C11H7N2O2+
200.0342	209	C11H6NO3+
201.042	185	C11H7NO3+
201.0661	27	C11H9N2O2+
210.0424	126	C12H6N2O2+
210.066	21	C12H8N3O+
211.0501	46	C12H7N2O2+
216.0654	78	C12H10NO3+
227.0454	9	C12H7N2O3+
233.0715	10	C15H9N2O+
242.0322	46	C12H6N2O4+
244.0873	16	C16H10N3+
245.071	20	C16H9N2O+
246.0788	23	C16H10N2O+
247.0872	11	C16H11N2O+
257.0719	7	C17H9N2O+
259.0868	15	C17H11N2O+
261.0784	14	C17H11NO2+
262.0854	7	C17H12NO2+
272.0817	158	C17H10N3O+
273.0657	100	C17H9N2O2+
273.0894	88	C17H11N3O+
274.0734	39	C17H10N2O2+
275.0812	28	C17H11N2O2+
284.0827	15	C20H12O2+
287.0814	24	C18H11N2O2+
288.0664	11	C18H10NO3+
300.0766	158	C18H10N3O2+
301.0844	318	C18H11N3O2+
312.0768	11	C19H10N3O2+
315.1015	7	C19H13N3O2+
316.1083	11	C19H14N3O2+
317.09	7	C16H15NO6+
328.0713	387	C19H10N3O3+
329.0792	999	C19H11N3O3+
344.1026	97	C20H14N3O3+
