Mass spectrum: Nystatin; LC-ESI-QFT; MS2; CE: 75; R=35000; [M+H]+
Name: Nystatin
Name: (1S,3R,4R,7R,9R,11R,15S,16R,17R,18S,19E,21E,25E,27E,29E,31E,33R,35S,36R,37S)-33-[(3-Amino-3,6-dideoxy-?-D-mannopyranosyl)oxy]-1,3,4,7,9,11,17,37-octahydroxy-15,16,18-trimethyl-13-oxo-14,39-dioxabic yclo[33.3.1]nonatriaconta-19,21,25,27,29,31-hexaene-36-carboxylic acid
Formula: C47H75NO17
Exact mass: 925.50350
SMILES: CC1C=CC=CCCC=CC=CC=CC=CC(CC2C(C(CC(O2)(CC(C(CCC(CC(CC(CC(=O)OC(C(C1O)C)C)O)O)O)O)O)O)O)C(=O)O)OC3C(C(C(C(O3)C)O)N)O
InChI: InChI=1S/C47H75NO17/c1-27-17-15-13-11-9-7-5-6-8-10-12-14-16-18-34(64-46-44(58)41(48)43(57)30(4)63-46)24-38-40(45(59)60)37(54)26-47(61,65-38)25-36(53)35(52)20-19-31(49)21-32(50)22-33(51)23-39(55)62-29(3)28(2)42(27)56/h5-6,8,10-18,27-38,40-44,46,49-54,56-58,61H,7,9,19-26,48H2,1-4H3,(H,59,60)/b6-5+,10-8+,13-11+,14-12+,17-15+,18-16+/t27-,28-,29-,30+,31+,32+,33+,34-,35+,36+,37-,38-,40+,41-,42+,43+,44-,46-,47+/m0/s1
Instrument: Q Exactive Orbitrap Thermo Scientific
Instrument type: LC-ESI-QFT
Ms type: MS2
Ion mode: POSITIVE
Ionization: ESI
Fragmentation mode: HCD
Collision energy: 75 (nominal)
Resolution: 35000
Column name: XBridge C18 3.5um, 2.1x50mm, Waters
Retention time: 11.6 min
Base peak: 926.5109
Precursor m/z: 926.5108
Precursor type: [M+H]+
m/z	relative intensity	assigned
128.0621	997	C10H8+
129.0699	999	C10H9+
130.0732	39	C5H10N2O2+
130.0778	107	C10H10+
131.0492	197	C9H7O+
131.0855	424	C10H11+
132.057	22	C9H8O+
132.0889	11	C5H12N2O2+
132.0936	7	C10H12+
133.0285	28	C8H5O2+
133.0648	264	C9H9O+
133.1012	112	C10H13+
134.0681	6	C4H10N2O3+
134.0727	6	C9H10O+
135.0441	103	C8H7O2+
135.0805	86	C9H11O+
135.1169	10	C10H15+
137.0598	66	C8H9O2+
137.0961	10	C9H13O+
139.039	34	C7H7O3+
139.0541	17	C11H7+
139.0753	13	C8H11O2+
141.0699	638	C11H9+
142.0733	22	C6H10N2O2+
142.0779	208	C11H10+
143.0492	24	C10H7O+
143.0857	361	C11H11+
144.0571	61	C10H8O+
144.0888	18	C6H12N2O2+
144.0936	38	C11H12+
145.0649	322	C10H9O+
145.1013	187	C11H13+
146.0729	9	C10H10O+
147.0442	180	C9H7O2+
147.0805	184	C10H11O+
147.1169	20	C11H15+
148.0473	4	C4H8N2O4+
149.0234	8	C8H5O3+
149.0599	91	C9H9O2+
149.096	21	C10H13O+
151.0391	143	C8H7O3+
151.0755	39	C9H11O2+
152.0622	268	C12H8+
153.07	468	C12H9+
154.0779	254	C12H10+
155.0496	34	C11H7O+
155.0604	129	C10H7N2+
155.0856	486	C12H11+
156.0569	5	C11H8O+
156.0941	63	C12H12+
157.0649	186	C11H9O+
157.1013	155	C12H13+
158.0727	26	C11H10O+
158.1096	7	C12H14+
159.044	48	C10H7O2+
159.0805	81	C11H11O+
159.1168	41	C12H15+
160.052	4	C10H8O2+
161.0598	56	C10H9O2+
161.0962	34	C11H13O+
161.1323	6	C12H17+
163.0389	22	C9H7O3+
163.0539	6	C13H7+
163.0753	31	C10H11O2+
164.0618	7	C13H8+
165.07	675	C13H9+
166.078	262	C13H10+
167.0857	403	C13H11+
168.0569	25	C12H8O+
168.087	6	C5H14NO5+
168.094	91	C13H12+
169.065	123	C12H9O+
169.1013	203	C13H13+
170.0726	26	C12H10O+
170.1091	19	C13H14+
171.0439	7	C11H7O2+
171.0805	131	C12H11O+
171.1168	70	C13H15+
173.0598	67	C11H9O2+
173.0962	58	C12H13O+
173.1325	6	C13H17+
175.0392	57	C10H7O3+
175.0753	65	C11H11O2+
175.112	3	C12H15O+
176.0618	17	C14H8+
177.0545	18	C10H9O3+
177.0701	31	C14H9+
178.0778	402	C14H10+
179.0858	386	C14H11+
180.0938	98	C14H12+
181.0648	136	C13H9O+
181.1012	250	C14H13+
182.0733	44	C13H10O+
183.0807	109	C13H11O+
183.1172	84	C14H15+
184.0885	6	C13H12O+
184.1252	5	C14H16+
185.06	51	C12H9O2+
185.0963	40	C13H13O+
185.1326	22	C14H17+
187.0754	22	C12H11O2+
187.1117	8	C13H15O+
187.1481	3	C14H19+
189.055	11	C11H9O3+
189.0702	94	C15H9+
189.0909	21	C12H13O2+
190.0778	116	C15H10+
191.0857	234	C15H11+
192.0937	145	C15H12+
193.0863	16	C11H13O3+
193.1014	202	C15H13+
194.0726	42	C14H10O+
194.1096	42	C15H14+
195.0806	115	C14H11O+
195.117	96	C15H15+
196.088	23	C14H12O+
196.1243	8	C15H16+
197.0598	30	C13H9O2+
197.0963	80	C14H13O+
197.1322	28	C15H17+
199.0752	36	C13H11O2+
199.1115	8	C14H15O+
199.1478	6	C15H19+
201.0546	21	C12H9O3+
201.0908	21	C13H13O2+
202.0778	213	C16H10+
203.0857	251	C16H11+
204.0939	140	C16H12+
205.0651	22	C15H9O+
205.1014	178	C16H13+
206.0725	10	C15H10O+
206.1094	56	C16H14+
207.0807	71	C15H11O+
207.1171	98	C16H15+
208.089	32	C15H12O+
208.1247	7	C16H16+
209.0597	8	C14H9O2+
209.0965	52	C15H13O+
209.1323	28	C16H17+
210.0679	17	C14H10O2+
211.0751	19	C14H11O2+
211.1116	21	C15H15O+
211.1479	5	C16H19+
212.0837	4	C14H12O2+
213.0546	5	C13H9O3+
213.091	10	C14H13O2+
215.0857	157	C17H11+
216.0939	102	C17H12+
217.1014	153	C17H13+
218.0726	26	C16H10O+
218.1096	59	C17H14+
219.0806	65	C16H11O+
219.1169	98	C17H15+
220.0879	20	C16H12O+
220.1244	7	C17H16+
221.0962	71	C16H13O+
221.1328	49	C17H17+
222.14	5	C17H18+
223.0755	34	C15H11O2+
223.1116	30	C16H15O+
223.1479	9	C17H19+
225.0909	10	C15H13O2+
225.1266	4	C16H17O+
226.0774	27	C18H10+
227.0697	3	C14H11O3+
227.0856	47	C18H11+
227.107	4	C15H15O2+
228.0934	69	C18H12+
229.1014	122	C18H13+
230.1095	47	C18H14+
231.0803	48	C17H11O+
231.117	63	C18H15+
232.0882	26	C17H12O+
232.1251	35	C18H16+
233.0961	45	C17H13O+
233.1332	46	C18H17+
234.0672	4	C16H10O2+
234.104	17	C17H14O+
235.0755	7	C16H11O2+
235.1116	24	C17H15O+
235.148	10	C18H19+
236.1563	4	C18H20+
237.0908	9	C16H13O2+
237.1274	10	C17H17O+
239.0855	52	C19H11+
240.0929	30	C19H12+
241.0864	8	C15H13O3+
241.1014	80	C19H13+
242.1093	54	C19H14+
243.0803	5	C18H11O+
243.117	68	C19H15+
244.0882	9	C18H12O+
244.1238	25	C19H16+
245.0963	38	C18H13O+
245.1327	43	C19H17+
246.1038	10	C18H14O+
246.1401	8	C19H18+
247.0749	10	C17H11O2+
247.1122	32	C18H15O+
247.1474	6	C19H19+
249.0908	10	C17H13O2+
249.1265	7	C18H17O+
251.1071	13	C17H15O2+
252.094	31	C20H12+
253.1015	56	C20H13+
254.1087	29	C20H14+
255.117	57	C20H15+
257.0956	23	C19H13O+
257.1324	39	C20H17+
258.1035	8	C19H14O+
258.1399	4	C20H18+
259.1116	26	C19H15O+
259.1478	17	C20H19+
261.0908	5	C18H13O2+
261.1268	7	C19H17O+
261.1633	7	C20H21+
263.1064	7	C18H15O2+
265.1013	25	C21H13+
266.1083	19	C21H14+
267.1168	40	C21H15+
268.1242	10	C21H16+
269.0961	10	C20H13O+
269.1324	24	C21H17+
270.1397	8	C21H18+
271.1115	10	C20H15O+
271.1484	10	C21H19+
272.1189	4	C20H16O+
273.0915	6	C19H13O2+
275.1426	6	C20H19O+
279.1163	24	C22H15+
280.1242	7	C22H16+
281.1325	8	C22H17+
282.1398	5	C22H18+
283.1477	7	C22H19+
285.1281	6	C21H17O+
287.1419	4	C21H19O+
293.1326	6	C23H17+
295.1477	5	C23H19+
297.1638	4	C23H21+
305.1329	6	C24H17+
