Mass spectrum: Niclosamide; LC-ESI-QFT; MS2; CE: 30; R=35000; [M-H]-
Name: Niclosamide
Name: 5-chloro-N-(2-chloro-4-nitrophenyl)-2-hydroxybenzamide
Formula: C13H8Cl2N2O4
Exact mass: 325.98611
SMILES: C1=CC(=C(C=C1[N+](=O)[O-])Cl)NC(=O)C2=C(C=CC(=C2)Cl)O
InChI: InChI=1S/C13H8Cl2N2O4/c14-7-1-4-12(18)9(5-7)13(19)16-11-3-2-8(17(20)21)6-10(11)15/h1-6,18H,(H,16,19)
Instrument: Q Exactive Orbitrap Thermo Scientific
Instrument type: LC-ESI-QFT
Ms type: MS2
Ion mode: NEGATIVE
Ionization: ESI
Fragmentation mode: HCD
Collision energy: 30 (nominal)
Resolution: 35000
Column name: XBridge C18 3.5um, 2.1x50mm, Waters
Retention time: 15.6 min
Base peak: 324.9794
Precursor m/z: 324.9788
Precursor type: [M-H]-
m/z	relative intensity	assigned
80.0462	1	H6N3O2-
105.0221	1	C6H3NO-
126.9957	1	C6H4ClO-
135.02	4	C6H3N2O2-
140.9987	1	C6H4ClNO-
151.9908	6	C7H3ClNO-
170.9968	999	C6H4ClN2O2-
171.9809	7	C6H3ClNO3-
179.0098	14	C7H3N2O4-
215.0144	14	C12H6ClNO-
216.0098	3	C11H5ClN2O-
223.0276	8	C13H5NO3-
228.0101	1	C12H5ClN2O-
231.0095	6	C12H6ClNO2-
243.0093	12	C13H6ClNO2-
245.0127	6	C12H6ClN2O2-
257.9963	1	C13H5ClNO3-
259.0043	5	C13H6ClNO3-
289.0023	928	C13H6ClN2O4-
324.9791	233	C13H7Cl2N2O4-
