Mass spectrum: Ecgonine-methyl-ester (EME); LC-ESI-QFT; MS2; CE: 120; R=35000; [M+H]+
Name: Ecgonine-methyl-ester (EME)
Name: Ecgonine methyl ester
Name: Methyl 3-hydroxy-8-methyl-8-azabicyclo[3.2.1]octane-4-carboxylate
Formula: C10H17NO3
Exact mass: 199.12084
SMILES: CN1C2CCC1C(C(C2)O)C(=O)OC
InChI: InChI=1S/C10H17NO3/c1-11-6-3-4-7(11)9(8(12)5-6)10(13)14-2/h6-9,12H,3-5H2,1-2H3
Instrument: Q Exactive Plus Orbitrap Thermo Scientific
Instrument type: LC-ESI-QFT
Ms type: MS2
Ion mode: POSITIVE
Ionization: ESI
Fragmentation mode: HCD
Collision energy: 120 (nominal)
Resolution: 35000
Column name: XBridge C18 3.5um, 2.1x50mm, Waters
Retention time: 0.8 min
Base peak: 200.1275
Precursor m/z: 200.1281
Precursor type: [M+H]+
m/z	relative intensity	assigned
50.0151	3	C4H2+
51.0229	3	C4H3+
53.0022	7	C3HO+
53.0385	34	C4H5+
53.9975	1	C2NO+
54.0338	2	C3H4N+
54.0463	3	C4H6+
55.0178	6	C3H3O+
55.0416	2	C3H5N+
55.0542	30	C4H7+
56.0494	38	C3H6N+
57.0572	47	C3H7N+
58.0286	5	C2H4NO+
58.0651	1	C3H8N+
59.0126	1	C2H3O2+
59.0491	1	C3H7O+
65.0385	334	C5H5+
66.0463	13	C5H6+
67.0416	178	C4H5N+
67.0542	73	C5H7+
68.0494	338	C4H6N+
69.0334	58	C4H5O+
69.0698	3	C5H9+
70.065	33	C4H8N+
71.0127	38	C3H3O2+
71.0491	6	C4H7O+
72.0806	1	C4H10N+
77.0384	23	C6H5+
78.0337	1	C5H4N+
78.0463	2	C6H6+
79.0541	101	C6H7+
80.0494	57	C5H6N+
81.0334	7	C5H5O+
81.0572	33	C5H7N+
81.0698	20	C6H9+
82.065	999	C5H8N+
83.0728	135	C5H9N+
84.0443	5	C4H6NO+
84.0807	47	C5H10N+
89.0384	2	C7H5+
90.0464	11	C7H6+
91.0542	258	C7H7+
92.0494	2	C6H6N+
93.0334	43	C6H5O+
93.0572	11	C6H7N+
93.0698	12	C7H9+
94.065	273	C6H8N+
95.049	46	C6H7O+
95.0729	8	C6H9N+
96.0443	7	C5H6NO+
96.0806	50	C6H10N+
97.0647	22	C6H9O+
100.0756	22	C5H10NO+
103.0541	1	C8H7+
105.0446	24	C6H5N2+
105.0697	3	C8H9+
106.065	19	C7H8N+
107.049	7	C7H7O+
107.0728	20	C7H9N+
108.0568	4	C7H8O+
108.0806	25	C7H10N+
109.0648	1	C7H9O+
110.0599	3	C6H8NO+
117.0571	11	C8H7N+
118.0412	9	C8H6O+
118.0649	2	C8H8N+
119.0491	17	C8H7O+
120.0807	3	C8H10N+
122.06	8	C7H8NO+
122.0963	13	C8H12N+
124.112	2	C8H14N+
125.0594	1	C7H9O2+
132.0805	1	C9H10N+
134.0599	2	C8H8NO+
135.0677	5	C8H9NO+
138.0547	6	C7H8NO2+
150.0909	1	C9H12NO+
152.0705	4	C8H10NO2+
154.0859	3	C8H12NO2+
182.1172	2	C10H16NO2+
