Mass spectrum: Metrafenone; LC-ESI-QFT; MS2; CE: 75; R=35000; [M+H]+
Name: Metrafenone
Name: (3-bromo-6-methoxy-2-methylphenyl)(2,3,4-trimethoxy-6-methylphenyl)methanone
Name: (3-bromanyl-6-methoxy-2-methyl-phenyl)-(2,3,4-trimethoxy-6-methyl-phenyl)methanone
Formula: C19H21BrO5
Exact mass: 408.05724
SMILES: Brc2ccc(OC)c(C(=O)c1c(cc(OC)c(OC)c1OC)C)c2C
InChI: InChI=1S/C19H21BrO5/c1-10-9-14(23-4)18(24-5)19(25-6)15(10)17(21)16-11(2)12(20)7-8-13(16)22-3/h7-9H,1-6H3
Instrument: Q Exactive Orbitrap Thermo Scientific
Instrument type: LC-ESI-QFT
Ms type: MS2
Ion mode: POSITIVE
Ionization: ESI
Fragmentation mode: HCD
Collision energy: 75 (nominal)
Resolution: 35000
Column name: XBridge C18 3.5um, 2.1x50mm, Waters
Retention time: 13.7 min
Base peak: 411.0623
Precursor m/z: 409.0645
Precursor type: [M+H]+
m/z	relative intensity	assigned
63.0229	6	C5H3+
65.0386	34	C5H5+
66.0464	62	C5H6+
67.0543	26	C5H7+
77.0384	19	C6H5+
78.0464	28	C6H6+
79.0542	38	C6H7+
80.0621	16	C6H8+
81.0336	3	C5H5O+
81.07	5	C6H9+
89.0386	189	C7H5+
90.0464	619	C7H6+
91.0542	570	C7H7+
92.062	268	C7H8+
93.0335	4	C6H5O+
93.0699	6	C7H9+
94.0413	28	C6H6O+
95.0492	173	C6H7O+
102.0468	2	C8H6+
105.0335	322	C7H5O+
105.0448	29	C6H5N2+
106.0415	36	C7H6O+
107.0492	70	C7H7O+
108.057	98	C7H8O+
109.0648	75	C7H9O+
118.0414	29	C8H6O+
119.0492	100	C8H7O+
120.057	373	C8H8O+
121.0285	20	C7H5O2+
121.0649	20	C8H9O+
122.0362	15	C7H6O2+
122.0727	3	C8H10O+
123.044	135	C7H7O2+
124.052	12	C7H8O2+
133.0283	24	C8H5O2+
134.0364	30	C8H6O2+
135.0441	165	C8H7O2+
136.052	193	C8H8O2+
137.0598	109	C8H9O2+
138.0677	20	C8H10O2+
142.9493	4	C5H4Br+
147.0441	49	C9H7O2+
148.0519	257	C9H8O2+
149.0596	25	C9H9O2+
150.0313	18	C8H6O3+
151.039	308	C8H7O3+
153.0547	35	C8H9O3+
155.957	43	C6H5Br+
163.0391	84	C9H7O3+
164.0469	27	C9H8O3+
165.0548	701	C9H9O3+
166.0625	508	C9H10O3+
168.0418	27	C8H8O4+
168.9648	999	C7H6Br+
170.9801	21	C7H8Br+
176.0468	74	C10H8O3+
177.0545	4	C10H9O3+
179.034	86	C9H7O4+
181.0496	214	C9H9O4+
182.9441	212	C7H4BrO+
183.9519	886	C7H5BrO+
186.9754	103	C7H8BrO+
191.0335	5	C10H7O4+
193.0497	64	C10H9O4+
194.0575	118	C10H10O4+
196.9709	224	C7H6BrN2+
198.9753	5	C8H8BrO+
209.081	167	C11H13O4+
211.9468	114	C8H5BrO2+
226.9703	698	C9H8BrO2+
229.9575	280	C8H7BrO3+
