Mass spectrum: Pyrithione; LC-ESI-QFT; MS2; CE: 45%; R=17500; [M+H]+
Name: Pyrithione
Name: 1-hydroxypyridine-2-thione
Formula: C5H5NOS
Exact mass: 127.0092
SMILES: C1=CC(=S)N(C=C1)O
InChI: InChI=1S/C5H5NOS/c7-6-4-2-1-3-5(6)8/h1-4,7H
Instrument: Exploris 240 Orbitrap Thermo Scientific
Instrument type: LC-ESI-QFT
Ms type: MS2
Ion mode: POSITIVE
Ionization: ESI
Fragmentation mode: HCD
Collision energy: 45 % (nominal)
Resolution: 17500
Column name: XBridge C18 3.5um, 2.1x50mm, Waters
Retention time: 2.993 min
Base peak: 128.0164
Precursor m/z: 128.0165
Precursor type: [M+H]+
m/z	relative intensity	assigned
67.0418	2	C4H5N+
82.9952	13	C4H3S+
110.0059	141	C5H4NS+
111.0137	47	C5H5NS+
128.0164	999	C5H6NOS+
