Mass spectrum: Thiodicarb; LC-ESI-QFT; MS2; CE: 30%; R=17500; [M+H]+
Name: Thiodicarb
Name: Larvin
Name: methyl N-[methyl-[methyl-(1-methylsulfanylethylideneamino)oxycarbonylamino]sulfanylcarbamoyl]oxyethanimidothioate
Formula: C10H18N4O4S3
Exact mass: 354.0490
SMILES: CC(=NOC(=O)N(C)SN(C)C(=O)ON=C(C)SC)SC
InChI: InChI=1S/C10H18N4O4S3/c1-7(19-5)11-17-9(15)13(3)21-14(4)10(16)18-12-8(2)20-6/h1-6H3
Instrument: Exploris 240 Orbitrap Thermo Scientific
Instrument type: LC-ESI-QFT
Ms type: MS2
Ion mode: POSITIVE
Ionization: ESI
Fragmentation mode: HCD
Collision energy: 30 % (nominal)
Resolution: 17500
Column name: XBridge C18 3.5um, 2.1x50mm, Waters
Retention time: 6.183 min
Base peak: 355.0563
Precursor m/z: 355.0563
Precursor type: [M+H]+
m/z	relative intensity	assigned
56.0494	9	C3H6N+
59.9901	4	CH2NS+
61.0107	5	C2H5S+
62.0058	21	CH4NS+
65.0055	6	CH5OS+
72.9983	7	C2H3NS+
74.0061	3	C2H4NS+
78.967	56	CH3S2+
80.9827	5	CH5S2+
88.0215	999	C3H6NS+
106.0318	13	C3H8NOS+
107.9935	357	C2H6NS2+
122.0269	5	C3H8NO2S+
149.0201	26	C4H9N2S2+
163.0536	5	C5H11N2O2S+
190.9575	20	C4H3N2O3S2+
