Mass spectrum: Mirtazapine; LC-ESI-QFT; MS2; CE: 30; R=35000; [M+H]+
Name: Mirtazapine
Name: 2-Methyl-1,2,3,4,10,14b-hexahydropyrazino[2,1-a]pyrido[2,3-c][2]benzazepine
Formula: C17H19N3
Exact mass: 265.15790
SMILES: CN1CCN2C(C1)C3=CC=CC=C3CC4=C2N=CC=C4
InChI: InChI=1S/C17H19N3/c1-19-9-10-20-16(12-19)15-7-3-2-5-13(15)11-14-6-4-8-18-17(14)20/h2-8,16H,9-12H2,1H3
Instrument: Q Exactive Plus Orbitrap Thermo Scientific
Instrument type: LC-ESI-QFT
Ms type: MS2
Ion mode: POSITIVE
Ionization: ESI
Fragmentation mode: HCD
Collision energy: 30 (nominal)
Resolution: 35000
Column name: XBridge C18 3.5um, 2.1x50mm, Waters
Retention time: 4.7 min
Base peak: 266.1642
Precursor m/z: 266.1652
Precursor type: [M+H]+
m/z	relative intensity	assigned
70.0651	1	C4H8N+
72.0806	413	C4H10N+
194.0836	1	C13H10N2+
195.0915	345	C13H11N2+
209.1071	74	C14H13N2+
223.1228	17	C15H15N2+
235.1227	14	C16H15N2+
264.1492	13	C17H18N3+
266.1648	999	C17H20N3+
