Mass spectrum: Metrafenone; LC-ESI-QFT; MS2; CE: 30; R=35000; [M+H]+
Name: Metrafenone
Name: (3-bromo-6-methoxy-2-methylphenyl)(2,3,4-trimethoxy-6-methylphenyl)methanone
Name: (3-bromanyl-6-methoxy-2-methyl-phenyl)-(2,3,4-trimethoxy-6-methyl-phenyl)methanone
Formula: C19H21BrO5
Exact mass: 408.05724
SMILES: Brc2ccc(OC)c(C(=O)c1c(cc(OC)c(OC)c1OC)C)c2C
InChI: InChI=1S/C19H21BrO5/c1-10-9-14(23-4)18(24-5)19(25-6)15(10)17(21)16-11(2)12(20)7-8-13(16)22-3/h7-9H,1-6H3
Instrument: Q Exactive Orbitrap Thermo Scientific
Instrument type: LC-ESI-QFT
Ms type: MS2
Ion mode: POSITIVE
Ionization: ESI
Fragmentation mode: HCD
Collision energy: 30 (nominal)
Resolution: 35000
Column name: XBridge C18 3.5um, 2.1x50mm, Waters
Retention time: 13.7 min
Base peak: 411.0623
Precursor m/z: 409.0645
Precursor type: [M+H]+
m/z	relative intensity	assigned
91.0542	2	C7H7+
120.057	1	C8H8O+
148.0517	3	C9H8O2+
165.0547	3	C9H9O3+
166.0625	14	C9H10O3+
168.9647	2	C7H6Br+
176.0471	3	C10H8O3+
181.0495	4	C9H9O4+
183.9519	2	C7H5BrO+
194.0575	23	C10H10O4+
196.9713	3	C7H6BrN2+
209.0809	999	C11H13O4+
226.9702	812	C9H8BrO2+
