Mass spectrum: Iodosulfuron-methyl; LC-ESI-QFT; MS2; CE: 60; R=35000; [M+H]+
Name: Iodosulfuron-methyl
Name: Methyl 4-iodo-2-(N-(4-methoxy-6-methyl-1,3,5-triazin-2-ylcarbamoyl)sulfamoyl)benzoate
Name: Methyl 4-iodo-2-[(4-methoxy-6-methyl-1,3,5-triazin-2-yl)carbamoylsulfamoyl]benzoate
Formula: C14H14IN5O6S
Exact mass: 506.97095
SMILES: Cc2nc(NC(=O)NS(=O)(=O)c1cc(I)ccc1C(=O)OC)nc(OC)n2
InChI: InChI=1S/C14H14IN5O6S/c1-7-16-12(19-14(17-7)26-3)18-13(22)20-27(23,24)10-6-8(15)4-5-9(10)11(21)25-2/h4-6H,1-3H3,(H2,16,17,18,19,20,22)
Instrument: Q Exactive Plus Orbitrap Thermo Scientific
Instrument type: LC-ESI-QFT
Ms type: MS2
Ion mode: POSITIVE
Ionization: ESI
Fragmentation mode: HCD
Collision energy: 60 (nominal)
Resolution: 35000
Column name: XBridge C18 3.5um, 2.1x50mm, Waters
Retention time: 9.3 min
Base peak: 507.9772
Precursor m/z: 507.9782
Precursor type: [M+H]+
m/z	relative intensity	assigned
56.0495	547	C3H6N+
57.0448	60	C2H5N2+
58.0288	340	C2H4NO+
67.0291	24	C3H3N2+
68.0244	4	C2H2N3+
69.0084	252	C2HN2O+
73.0761	1	C3H9N2+
76.0307	13	C6H4+
78.0464	29	C6H6+
78.9848	12	CH3O2S+
82.04	2	C3H4N3+
83.024	405	C3H3N2O+
84.0557	3	C3H6N3+
85.0397	15	C3H5N2O+
91.0179	2	C6H3O+
91.0417	4	C6H5N+
94.0414	9	C6H6O+
100.0506	18	C3H6N3O+
101.0261	3	C7H3N+
104.0258	1	C7H4O+
105.0336	10	C7H5O+
106.0413	6	C7H6O+
110.0349	7	C4H4N3O+
117.021	7	C7H3NO+
119.0128	4	C7H3O2+
119.0367	21	C7H5NO+
120.0205	1	C7H4O2+
125.0348	3	C5H5N2O2+
134.0363	137	C8H6O2+
141.0772	155	C5H9N4O+
145.016	29	C8H3NO2+
151.0264	7	C7H5NO3+
166.0262	94	C8H6O4+
167.0565	999	C6H7N4O2+
177.0057	23	C8H3NO4+
215.9307	35	C6H3IN+
217.9226	40	C6H3IO+
217.9457	3	C6H5IN+
220.9459	7	C6H6IO+
230.9301	4	C7H4IO+
230.9415	16	C6H4IN2+
232.9455	1	C7H6IO+
245.9175	8	C7H3IO2+
245.9412	13	C7H5INO+
246.9254	5	C7H4IO2+
255.9366	5	C7H3IN3+
260.9409	93	C8H6IO2+
263.9278	8	C7H5IO3+
271.9205	21	C8H3INO2+
309.9035	4	C7H5INO3S+
324.9026	8	C8H6IO4S+
335.8823	6	C8H3INO4S+
