Mass spectrum: MCLR; LC-ESI-QFT; MS2; CE: 45%; R=17500; [M-H]-
Name: MCLR
Name: Microcystin LR
Name: (5R,8S,11R,12S,15S,18S,19S,22R)-15-[3-(diaminomethylideneamino)propyl]-18-[(1E,3E,5S,6S)-6-methoxy-3,5-dimethyl-7-phenylhepta-1,3-dienyl]-1,5,12,19-tetramethyl-2-methylidene-8-(2-methylpropyl)-3,6,9,13,16,20,25-heptaoxo-1,4,7,10,14,17,21-heptazacyclopentacosane-11,22-dicarboxylic acid
Class: NA
Formula: C49H74N10O12
Exact mass: 994.5488
SMILES: CO[C@@H](Cc1ccccc1)[C@@H](C)/C=C(C)/C=C/[C@@H]2NC(=O)[C@H](CCCNC(N)=N)NC(=O)[C@@H](C)[C@@H](NC(=O)[C@H](CC(C)C)NC(=O)[C@@H](C)NC(=O)C(=C)N(C)C(=O)CC[C@@H](NC(=O)[C@H]2C)C(O)=O)C(O)=O
InChI: InChI=1S/C49H74N10O12/c1-26(2)23-37-46(66)58-40(48(69)70)30(6)42(62)55-35(17-14-22-52-49(50)51)45(65)54-34(19-18-27(3)24-28(4)38(71-10)25-33-15-12-11-13-16-33)29(5)41(61)56-36(47(67)68)20-21-39(60)59(9)32(8)44(64)53-31(7)43(63)57-37/h11-13,15-16,18-19,24,26,28-31,34-38,40H,8,14,17,20-23,25H2,1-7,9-10H3,(H,53,64)(H,54,65)(H,55,62)(H,56,61)(H,57,63)(H,58,66)(H,67,68)(H,69,70)(H4,50,51,52)/b19-18+,27-24+/t28-,29-,30-,31+,34-,35-,36+,37-,38-,40+/m0/s1
Instrument: Q Exactive Plus Orbitrap Thermo Scientific
Instrument type: LC-ESI-QFT
Ms type: MS2
Ion mode: NEGATIVE
Ionization: ESI
Fragmentation mode: HCD
Collision energy: 45 % (nominal)
Resolution: 17500
Column name: XBridge C18 3.5um, 2.1x50mm, Waters
Retention time: 8.567 min
Base peak: 190.9277
Precursor m/z: 993.5415
Precursor type: [M-H]-
m/z	relative intensity	assigned
72.0456	15	C3H6NO-
73.0296	19	C3H5O2-
74.0247	45	C2H4NO2-
82.0297	25	C4H4NO-
84.0455	33	C4H6NO-
87.0563	14	C3H7N2O-
98.0612	15	C5H8NO-
99.0564	78	C4H7N2O-
100.0405	21	C4H6NO2-
110.0247	133	C5H4NO2-
110.0611	10	C6H8NO-
112.0403	64	C5H6NO2-
123.0563	30	C6H7N2O-
124.0403	99	C6H6NO2-
125.072	28	C6H9N2O-
127.0513	36	C5H7N2O2-
127.0876	15	C6H11N2O-
128.0353	999	C5H6NO3-
129.1032	140	C6H13N2O-
130.0871	20	C6H12NO2-
130.0975	7	C3H10N6-
131.086	42	C10H11-
136.1133	7	C9H14N-
138.0438	11	C6H6N2O2-
138.0566	11	C7H8NO2-
139.0876	101	C7H11N2O-
150.0558	47	C8H8NO2-
153.0668	159	C7H9N2O2-
153.1025	18	C6H11N5-
154.0989	14	C7H12N3O-
155.0824	69	C7H11N2O2-
155.1184	16	C8H15N2O-
163.0867	12	C7H9N5-
165.0662	10	
165.1029	233	C9H13N2O-
167.0823	46	C8H11N2O2-
168.1136	21	C6H12N6-
170.0932	39	C7H12N3O2-
171.1145	18	C8H15N2O2-
180.114	122	C9H14N3O-
181.0618	21	C8H9N2O3-
181.0977	62	C9H13N2O2-
182.1293	159	C9H16N3O-
183.1129	34	C7H13N5O-
186.1246	9	C8H16N3O2-
198.1239	55	C7H14N6O-
200.1396	179	C7H16N6O-
206.0923	37	C8H10N6O-
208.1084	35	C8H12N6O-
211.0717	35	C7H9N5O3-
212.1397	15	C8H16N6O-
222.1224	19	C8H18N2O5-
226.1187	46	C8H14N6O2-
248.1141	22	C10H18NO6-
265.1656	502	C11H19N7O-
280.1703	11	C19H22NO-
283.1761	155	C11H21N7O2-
293.1602	23	C12H19N7O2-
313.1803	27	C4H25N8O8-
338.2225	26	C19H26N6-
