Mass spectrum: Iodosulfuron-methyl; LC-ESI-QFT; MS2; CE: 120; R=35000; [M-H]-
Name: Iodosulfuron-methyl
Name: Methyl 4-iodo-2-(N-(4-methoxy-6-methyl-1,3,5-triazin-2-ylcarbamoyl)sulfamoyl)benzoate
Name: Methyl 4-iodo-2-[(4-methoxy-6-methyl-1,3,5-triazin-2-yl)carbamoylsulfamoyl]benzoate
Formula: C14H14IN5O6S
Exact mass: 506.97095
SMILES: Cc2nc(NC(=O)NS(=O)(=O)c1cc(I)ccc1C(=O)OC)nc(OC)n2
InChI: InChI=1S/C14H14IN5O6S/c1-7-16-12(19-14(17-7)26-3)18-13(22)20-27(23,24)10-6-8(15)4-5-9(10)11(21)25-2/h4-6H,1-3H3,(H2,16,17,18,19,20,22)
Instrument: Q Exactive Plus Orbitrap Thermo Scientific
Instrument type: LC-ESI-QFT
Ms type: MS2
Ion mode: NEGATIVE
Ionization: ESI
Fragmentation mode: HCD
Collision energy: 120 (nominal)
Resolution: 35000
Column name: XBridge C18 3.5um, 2.1x50mm, Waters
Retention time: 9.2 min
Base peak: 505.9636
Precursor m/z: 505.9637
Precursor type: [M-H]-
m/z	relative intensity	assigned
55.0302	78	C2H3N2-
61.9706	12	NOS-
64.0067	24	C3N2-
65.0146	945	C3HN2-
66.0099	999	C2N3-
81.0333	5	C3H3N3-
82.0411	85	C3H4N3-
92.0132	2	C3N4-
98.0359	1	C3H4N3O-
107.0364	396	C4H3N4-
109.052	8	C4H5N4-
124.0392	9	C4H4N4O-
125.047	28	C4H5N4O-
126.9051	63	I-
139.0626	22	C5H7N4O-
180.9841	4	C7H3NO3S-
