Mass spectrum: Flecainide; LC-ESI-QFT; MS2; CE: 90; R=35000; [M+H]+
Name: Flecainide
Name: N-(2-piperidinylmethyl)-2,5-bis(2,2,2-trifluoroethoxy)benzamide
Formula: C17H20F6N2O3
Exact mass: 414.13781
SMILES: C1CCNC(C1)CNC(=O)C2=C(C=CC(=C2)OCC(F)(F)F)OCC(F)(F)F
InChI: InChI=1S/C17H20F6N2O3/c18-16(19,20)9-27-12-4-5-14(28-10-17(21,22)23)13(7-12)15(26)25-8-11-3-1-2-6-24-11/h4-5,7,11,24H,1-3,6,8-10H2,(H,25,26)
Instrument: Q Exactive Orbitrap Thermo Scientific
Instrument type: LC-ESI-QFT
Ms type: MS2
Ion mode: POSITIVE
Ionization: ESI
Fragmentation mode: HCD
Collision energy: 90 (nominal)
Resolution: 35000
Column name: XBridge C18 3.5um, 2.1x50mm, Waters
Retention time: 6.7 min
Base peak: 415.1452
Precursor m/z: 415.1451
Precursor type: [M+H]+
m/z	relative intensity	assigned
65.0387	18	C5H5+
66.0465	25	C5H6+
68.0495	7	C4H6N+
69.0574	3	C4H7N+
69.0699	39	C5H9+
70.0651	59	C4H8N+
77.0386	4	C6H5+
79.0178	238	C5H3O+
79.0542	451	C6H7+
80.0495	12	C5H6N+
81.0699	439	C6H9+
82.0652	189	C5H8N+
83.0101	3	C2H2F3+
83.0292	59	C5H4F+
84.0808	195	C5H10N+
91.0542	13	C7H7+
92.0256	76	C6H4O+
95.0493	34	C6H7O+
96.0809	34	C6H10N+
97.0887	50	C6H11N+
98.0965	300	C6H12N+
99.0241	64	C5H4FO+
101.0197	24	
105.0333	4	C7H5O+
105.0448	7	C6H5N2+
107.0128	680	C6H3O2+
109.0284	14	C6H5O2+
110.0163	6	C6H3FO+
111.0241	30	C6H4FO+
114.0276	49	C6H4F2+
127.019	202	C6H4FO2+
127.0354	42	C7H5F2+
129.0146	26	C6H3F2O+
135.0076	77	C7H3O3+
142.0225	40	C7H4F2O+
152.0341	3	C7H6NO3+
153.0183	999	C7H5O4+
170.0173	6	C8H4F2O2+
171.0248	34	C8H5F2O2+
175.0365	17	C8H6F3O+
181.0272	101	C7H5F4O+
187.0366	20	C9H6F3O+
188.1065	4	C12H14NO+
189.0158	7	C8H4F3O2+
189.0519	15	C9H8F3O+
190.0237	155	C8H5F3O2+
198.0123	3	C9H4F2O3+
203.0316	35	C9H6F3O2+
204.1021	11	C12H14NO2+
207.0431	17	C9H7F4O+
209.0221	848	C8H5F4O2+
215.0312	5	C10H6F3O2+
217.0117	4	C9H4F3O3+
218.0184	8	C9H5F3O3+
219.0264	82	C9H6F3O3+
221.0218	13	C9H5F4O2+
225.0334	255	C9H6F5O+
232.0969	178	C13H14NO3+
236.0292	413	C9H7F3O4+
237.0172	113	C9H5F4O3+
253.0285	95	C10H6F5O2+
254.0357	13	C10H7F5O2+
281.0229	29	C11H6F5O3+
298.1049	12	C15H15F3NO2+
301.0296	101	C14H6F5O2+
