Mass spectrum: Trospium; LC-ESI-QFT; MS2; CE: 30; R=35000; [M]+
Name: Trospium
Name: spiro[8-azoniabicyclo[3.2.1]octane-8,1`-azolidin-1-ium]-3-yl 2-hydroxy-2,2-diphenylacetate
Formula: [C25H30NO3]+
Exact mass: 392.22257
SMILES: OC(C(=O)OC1CC2CCC(C1)[N+]21CCCC1)(C1=CC=CC=C1)C1=CC=CC=C1
InChI: InChI=1S/C25H30NO3/c27-24(25(28,19-9-3-1-4-10-19)20-11-5-2-6-12-20)29-23-17-21-13-14-22(18-23)26(21)15-7-8-16-26/h1-6,9-12,21-23,28H,7-8,13-18H2/q+1
Instrument: Q Exactive Orbitrap Thermo Scientific
Instrument type: LC-ESI-QFT
Ms type: MS2
Ion mode: POSITIVE
Ionization: ESI
Fragmentation mode: HCD
Collision energy: 30 (nominal)
Resolution: 35000
Column name: XBridge C18 3.5um, 2.1x50mm, Waters
Retention time: 6.1 min
Base peak: 392.2208
Precursor m/z: 392.222
Precursor type: [M]+
m/z	relative intensity	assigned
93.0695	2	C7H9+
164.1428	196	C11H18N+
165.1506	1	C11H19N+
182.1533	105	C11H20NO+
392.2207	999	C25H30NO3+
