Mass spectrum: Metribuzin; LC-ESI-ITFT; MS2; CE: 90%; R=30000; [M+H]+
Name: Metribuzin
Name: 1,2,4-Triazin-5(4H)-one, 4-amino-6-(1,1-dimethylethyl)-3-(methylthio)-
Name: 4-amino-6-tert-butyl-3-(methylthio)-1,2,4-triazin-5-one
Formula: C8H14N4OS
Exact mass: 214.0883
SMILES: S(C)C(=NN=C1C(C)(C)C)N(N)C1=O
InChI: InChI=1S/C8H14N4OS/c1-8(2,3)5-6(13)12(9)7(14-4)11-10-5/h9H2,1-4H3
Instrument: LTQ Orbitrap XL Thermo Scientific
Instrument type: LC-ESI-ITFT
Ms type: MS2
Ion mode: POSITIVE
Ionization: ESI
Fragmentation mode: HCD
Collision energy: 90 % (nominal)
Resolution: 30000
Column name: XBridge C18 3.5um, 2.1x50mm, Waters
Retention time: 6.9 min
Base peak: 215.0964
Precursor m/z: 215.0961
Precursor type: [M+H]+
m/z	relative intensity	assigned
57.0698	151	C4H9+
58.0399	377	CH4N3+
59.9902	383	CH2NS+
60.998	40	CH3NS+
62.0058	187	CH4NS+
68.0494	71	C4H6N+
69.0084	30	C2HN2O+
69.0699	40	C5H9+
70.0651	26	C4H8N+
74.0059	999	C2H4NS+
76.0215	16	C2H6NS+
82.0651	72	C5H8N+
84.0807	313	C5H10N+
87.0011	33	C2H3N2S+
88.0089	14	C2H4N2S+
89.0168	85	C2H5N2S+
108.0681	21	C6H8N2+
109.0761	13	C6H9N2+
125.0707	18	C6H9N2O+
125.082	24	C5H9N4+
130.0307	38	C3H6N4S+
131.0385	244	C3H7N4S+
140.0402	17	C6H8N2S+
143.0635	15	C6H11N2S+
145.054	15	C4H9N4S+
156.0588	167	C6H10N3S+
171.0585	94	C7H11N2OS+
172.0777	31	C6H12N4S+
184.0539	62	C7H10N3OS+
187.1011	189	C7H15N4S+
