Mass spectrum: Zonisamide; LC-ESI-QFT; MS2; CE: 15; R=35000; [M-H]-
Name: Zonisamide
Name: AD-810
Name: 1,2-benzoxazol-3-ylmethanesulfonamide
Formula: C8H8N2O3S
Exact mass: 212.02556
SMILES: O=S(=O)(N)Cc2noc1ccccc12
InChI: InChI=1S/C8H8N2O3S/c9-14(11,12)5-7-6-3-1-2-4-8(6)13-10-7/h1-4H,5H2,(H2,9,11,12)
Instrument: Q Exactive Orbitrap Thermo Scientific
Instrument type: LC-ESI-QFT
Ms type: MS2
Ion mode: NEGATIVE
Ionization: ESI
Fragmentation mode: HCD
Collision energy: 15 (nominal)
Resolution: 35000
Column name: XBridge C18 3.5um, 2.1x50mm, Waters
Retention time: 4.3 min
Base peak: 211.0183
Precursor m/z: 211.0183
Precursor type: [M-H]-
m/z	relative intensity	assigned
63.9624	3	O2S-
77.9655	2	NO2S-
78.9733	6	HNO2S-
91.0554	1	C7H7-
93.0346	6	C6H5O-
107.0503	14	C7H7O-
117.0348	7	C8H5O-
118.0301	325	C7H4NO-
119.0503	999	C8H7O-
120.0453	12	C7H6NO-
135.0452	5	C8H7O2-
147.0564	559	C8H7N2O-
211.0182	103	C8H7N2O3S-
