Mass spectrum: Nateglinide; LC-ESI-QFT; MS2; CE: 75; R=35000; [M-H]-
Name: Nateglinide
Formula: C19H27NO3
Exact mass: 317.19909
SMILES: CC([C@H]1CC[C@@H](CC1)C(=O)N[C@@H](C(=O)O)CC2=CC=CC=C2)C
InChI: InChI=1S/C19H27NO3/c1-13(2)15-8-10-16(11-9-15)18(21)20-17(19(22)23)12-14-6-4-3-5-7-14/h3-7,13,15-17H,8-12H2,1-2H3,(H,20,21)(H,22,23)/t15-,16-,17-/m1/s1
Instrument: Q Exactive Orbitrap Thermo Scientific
Instrument type: LC-ESI-QFT
Ms type: MS2
Ion mode: NEGATIVE
Ionization: ESI
Fragmentation mode: HCD
Collision energy: 75 (nominal)
Resolution: 35000
Column name: XBridge C18 3.5um, 2.1x50mm, Waters
Retention time: 13.6 min
Base peak: 316.1918
Precursor m/z: 316.1918
Precursor type: [M-H]-
m/z	relative intensity	assigned
72.0091	563	C2H2NO2-
91.0553	999	C7H7-
103.0553	143	C8H7-
116.0505	20	C8H6N-
118.0663	131	C8H8N-
119.0502	13	C8H7O-
147.0451	615	C9H7O2-
148.1131	46	C10H14N-
164.0717	133	C9H10NO2-
166.1235	47	C10H16NO-
168.1392	269	C10H18NO-
194.1553	17	C12H20NO-
270.1872	47	C18H24NO-
