Mass spectrum: Dichlofluanid; LC-ESI-QFT; MS2; CE: 30; R=35000; [M+H]+
Name: Dichlofluanid
Name: 1,1-dichloro-N-(dimethylsulfamoyl)-1-fluoro-N-phenylmethanesulfenamide
Formula: C9H11Cl2FN2O2S2
Exact mass: 331.96230
SMILES: N(c1ccccc1)(S(N(C)C)(=O)=O)SC(F)(Cl)Cl
InChI: InChI=1S/C9H11Cl2FN2O2S2/c1-13(2)18(15,16)14(17-9(10,11)12)8-6-4-3-5-7-8/h3-7H,1-2H3
Instrument: Q Exactive Orbitrap Thermo Scientific
Instrument type: LC-ESI-QFT
Ms type: MS2
Ion mode: POSITIVE
Ionization: ESI
Fragmentation mode: HCD
Collision energy: 30 (nominal)
Resolution: 35000
Column name: XBridge C18 3.5um, 2.1x50mm, Waters
Retention time: 11.6 min
Base peak: 223.9499
Precursor m/z: 332.9696
Precursor type: [M+H]+
m/z	relative intensity	assigned
77.0385	4	C6H5+
92.0164	1	C2H6NOS+
95.0491	2	C6H7O+
98.9842	7	CH4ClO3+
110.0167	5	C3H6ClFN+
121.0886	24	C8H11N+
122.0059	1	C6H4NS+
123.0137	999	C6H5NS+
125.9871	15	C3H6Cl2N+
142.9717	1	C6H4ClS+
143.9794	1	C6H5ClS+
153.0041	5	C7H4FNS+
187.9732	5	CH12Cl2NOS2+
188.9809	12	C7H5ClFNS+
223.9498	608	C7H5Cl2FNS+
