Mass spectrum: Olopatadine; LC-ESI-QFT; MS2; CE: 60; R=35000; [M-H]-
Name: Olopatadine
Name: 2-[(11Z)-11-[3-(dimethylazaniumyl)propylidene]-6H-benzo[c][1]benzoxepin-2-yl]acetate
Formula: C21H23NO3
Exact mass: 337.16779
SMILES: CN(C)CC/C=C\1/C2=CC=CC=C2COC3=C1C=C(C=C3)CC(=O)O
InChI: InChI=1S/C21H23NO3/c1-22(2)11-5-8-18-17-7-4-3-6-16(17)14-25-20-10-9-15(12-19(18)20)13-21(23)24/h3-4,6-10,12H,5,11,13-14H2,1-2H3,(H,23,24)/b18-8-
Instrument: Q Exactive Orbitrap Thermo Scientific
Instrument type: LC-ESI-QFT
Ms type: MS2
Ion mode: NEGATIVE
Ionization: ESI
Fragmentation mode: HCD
Collision energy: 60 (nominal)
Resolution: 35000
Column name: XBridge C18 3.5um, 2.1x50mm, Waters
Retention time: 7.0 min
Base peak: 336.1606
Precursor m/z: 336.1605
Precursor type: [M-H]-
m/z	relative intensity	assigned
81.0347	16	C5H5O-
93.0346	223	C6H5O-
95.0503	9	C6H7O-
106.0424	34	C7H6O-
107.0502	218	C7H7O-
115.0554	68	C9H7-
121.0657	13	C8H9O-
123.0453	12	C7H7O2-
132.058	11	C9H8O-
141.0712	15	C11H9-
143.0502	9	C10H7O-
153.0707	8	C12H9-
165.0709	246	C13H9-
177.0707	11	C14H9-
178.0784	31	C14H10-
179.0867	37	C14H11-
180.0579	12	C13H8O-
189.0711	8	C15H9-
191.0866	699	C15H11-
192.0944	11	C15H12-
193.0659	152	C14H9O-
202.0788	14	C16H10-
203.0866	44	C16H11-
204.0948	14	C16H12-
205.1022	151	C16H13-
206.0737	129	C15H10O-
207.0814	314	C15H11O-
215.0869	36	C17H11-
216.0941	17	C17H12-
217.0659	177	C16H9O-
217.1019	11	C17H13-
218.0735	63	C16H10O-
219.0814	999	C16H11O-
220.0896	57	C16H12O-
221.097	113	C16H13O-
229.1021	377	C18H13-
230.0741	31	C17H10O-
231.0815	159	C17H11O-
232.0891	125	C17H12O-
233.0971	235	C17H13O-
245.0975	56	C18H13O-
246.1046	13	C18H14O-
247.1126	305	C18H15O-
264.1756	18	C19H22N-
292.1704	11	C20H22NO-
