Mass spectrum: Phenylephrine; LC-ESI-QFT; MS2; CE: 60; R=35000; [M+H]+
Name: Phenylephrine
Name: 3-[(1R)-1-hydroxy-2-(methylamino)ethyl]phenol
Formula: C9H13NO2
Exact mass: 167.09463
SMILES: CNC[C@@H](C1=CC(=CC=C1)O)O
InChI: InChI=1S/C9H13NO2/c1-10-6-9(12)7-3-2-4-8(11)5-7/h2-5,9-12H,6H2,1H3/t9-/m0/s1
Instrument: Q Exactive Orbitrap Thermo Scientific
Instrument type: LC-ESI-QFT
Ms type: MS2
Ion mode: POSITIVE
Ionization: ESI
Fragmentation mode: HCD
Collision energy: 60 (nominal)
Resolution: 35000
Column name: XBridge C18 3.5um, 2.1x50mm, Waters
Retention time: 0.9 min
Base peak: 150.0914
Precursor m/z: 168.1019
Precursor type: [M+H]+
m/z	relative intensity	assigned
56.0496	5	C3H6N+
57.0573	26	C3H7N+
65.0385	10	C5H5+
77.0385	6	C6H5+
79.0542	17	C6H7+
80.0495	1	C5H6N+
80.0621	1	C6H8+
81.0698	99	C6H9+
82.0652	1	C5H8N+
89.0383	1	C7H5+
91.0542	774	C7H7+
93.0698	42	C7H9+
94.0413	21	C6H6O+
94.065	4	C6H8N+
95.0491	15	C6H7O+
103.0542	23	C8H7+
105.0448	5	C6H5N2+
105.0698	15	C8H9+
106.0652	8	C7H8N+
107.0491	136	C7H7O+
107.0729	15	C7H9N+
108.057	22	C7H8O+
108.0808	9	C7H10N+
109.0648	598	C7H9O+
115.0542	1	C9H7+
117.0572	72	C8H7N+
118.0413	13	C8H6O+
118.0651	37	C8H8N+
119.0491	197	C8H7O+
120.0444	17	C7H6NO+
121.0647	119	C8H9O+
122.0599	1	C7H8NO+
122.0963	25	C8H12N+
130.0651	4	C9H8N+
131.0729	2	C9H9N+
132.0807	47	C9H10N+
133.0649	1	C9H9O+
133.0886	7	C9H11N+
134.06	64	C8H8NO+
135.0678	692	C8H9NO+
148.0755	2	C9H10NO+
149.0835	8	C9H11NO+
150.0913	999	C9H12NO+
