Mass spectrum: Fenson; LC-ESI-QFT; MS2; CE: 120%; R=17500; [M+H]+
Name: Fenson
Name: (4-chlorophenyl) benzenesulfonate
Formula: C12H9ClO3S
Exact mass: 267.9961
SMILES: C1=CC=C(C=C1)S(=O)(=O)OC2=CC=C(C=C2)Cl
InChI: InChI=1S/C12H9ClO3S/c13-10-6-8-11(9-7-10)16-17(14,15)12-4-2-1-3-5-12/h1-9H
Instrument: Exploris 240 Orbitrap Thermo Scientific
Instrument type: LC-ESI-QFT
Ms type: MS2
Ion mode: POSITIVE
Ionization: ESI
Fragmentation mode: HCD
Collision energy: 120 % (nominal)
Resolution: 17500
Column name: XBridge C18 3.5um, 2.1x50mm, Waters
Retention time: 9.705 min
Base peak: 170.0965
Precursor m/z: 269.0034
Precursor type: [M+H]+
m/z	relative intensity	assigned
50.0151	69	C4H2+
51.0229	997	C4H3+
53.0386	405	C4H5+
63.023	63	C5H3+
65.0385	122	C5H5+
72.9839	510	C3H2Cl+
75.0232	82	C6H3+
77.0386	999	C6H5+
81.0337	21	C5H5O+
94.0412	38	C6H6O+
95.0492	520	C6H7O+
98.9996	677	C5H4Cl+
128.0025	45	C6H5ClO+
