Mass spectrum: N-desmethylpheniramine; LC-ESI-QFT; MS2; CE: 90; R=35000; [M+H]+
Name: N-desmethylpheniramine
Name: N-methyl-3-phenyl-3-pyridin-2-ylpropan-1-amine
Formula: C15H18N2
Exact mass: 226.14700
SMILES: CNCCC(C1=CC=CC=C1)C2=CC=CC=N2
InChI: InChI=1S/C15H18N2/c1-16-12-10-14(13-7-3-2-4-8-13)15-9-5-6-11-17-15/h2-9,11,14,16H,10,12H2,1H3
Instrument: Q Exactive Plus Orbitrap Thermo Scientific
Instrument type: LC-ESI-QFT
Ms type: MS2
Ion mode: POSITIVE
Ionization: ESI
Fragmentation mode: HCD
Collision energy: 90 (nominal)
Resolution: 35000
Column name: XBridge C18 3.5um, 2.1x50mm, Waters
Retention time: 3.6 min
Base peak: 227.154
Precursor m/z: 227.1543
Precursor type: [M+H]+
m/z	relative intensity	assigned
65.0385	16	C5H5+
78.0337	2	C5H4N+
79.0542	1	C6H7+
80.0493	3	C5H6N+
91.0542	225	C7H7+
92.0494	10	C6H6N+
93.0573	8	C6H7N+
94.0652	2	C6H8N+
96.0442	3	C5H6NO+
103.0541	5	C8H7+
104.0495	2	C7H6N+
105.0573	1	C7H7N+
110.06	17	C6H8NO+
115.0542	7	C9H7+
116.0495	1	C8H6N+
117.0572	73	C8H7N+
117.0697	4	C9H9+
118.065	180	C8H8N+
119.0729	37	C8H9N+
128.0494	2	C9H6N+
128.0621	1	C10H8+
129.0698	2	C10H9+
139.054	1	C11H7+
140.0619	1	C11H8+
141.0699	6	C11H9+
152.062	1	C12H8+
166.065	8	C12H8N+
167.0729	999	C12H9N+
168.0807	667	C12H10N+
178.0776	1	C14H10+
180.0806	28	C13H10N+
181.0885	9	C13H11N+
193.0884	7	C14H11N+
194.0964	55	C14H12N+
195.1041	7	C14H13N+
196.1121	155	C14H14N+
