Mass spectrum: Fluazifop; LC-ESI-ITFT; MS2; CE: 45%; R=7500; [M+H]+
Name: Fluazifop
Name: 2-[4-[5-(trifluoromethyl)pyridin-2-yl]oxyphenoxy]propanoic acid
Formula: C15H12F3NO4
Exact mass: 327.0724
SMILES: CC(C(=O)O)OC1=CC=C(C=C1)OC2=NC=C(C=C2)C(F)(F)F
InChI: InChI=1S/C15H12F3NO4/c1-9(14(20)21)22-11-3-5-12(6-4-11)23-13-7-2-10(8-19-13)15(16,17)18/h2-9H,1H3,(H,20,21)
Instrument: LTQ Orbitrap XL Thermo Scientific
Instrument type: LC-ESI-ITFT
Ms type: MS2
Ion mode: POSITIVE
Ionization: ESI
Fragmentation mode: HCD
Collision energy: 45 % (nominal)
Resolution: 7500
Column name: XBridge C18 3.5um, 2.1x50mm, Waters
Retention time: 10.9 min
Base peak: 328.0794
Precursor m/z: 328.0791
Precursor type: [M+H]+
m/z	relative intensity	assigned
65.0386	18	C5H5+
91.0542	397	C7H7+
93.0333	8	C6H5O+
119.0491	78	C8H7O+
121.0285	23	C7H5O2+
121.0643	4	C8H9O+
147.0285	6	C6H4F3N+
164.0316	21	C6H5F3NO+
179.0186	13	C6H4F3NO2+
213.0788	10	C13H11NO2+
226.0838	18	C12H11F3N+
227.0551	112	C11H8F3NO+
236.0673	13	C13H9F3N+
238.0472	257	C12H7F3NO+
239.0555	4	C12H8F3NO+
254.0424	219	C12H7F3NO2+
254.0786	443	C13H11F3NO+
255.05	402	C12H8F3NO2+
256.0577	312	C12H9F3NO2+
264.0627	9	C14H9F3NO+
282.0735	999	C14H11F3NO2+
328.0785	92	C15H13F3NO4+
