Mass spectrum: Atenolol acid; LC-ESI-ITFT; MS2; CE: 60%; R=7500; [M+H]+
Name: Atenolol acid
Name: Metoprolol acid
Name: 4-(2-Hydroxy-3-((1-methylethyl)amino)propoxy)benzeneacetic acid
Formula: C14H21NO4
Exact mass: 267.1471
SMILES: CC(C)NCC(O)COc1ccc(cc1)CC(=O)O
InChI: InChI=1S/C14H21NO4/c1-10(2)15-8-12(16)9-19-13-5-3-11(4-6-13)7-14(17)18/h3-6,10,12,15-16H,7-9H2,1-2H3,(H,17,18)
Instrument: LTQ Orbitrap XL Thermo Scientific
Instrument type: LC-ESI-ITFT
Ms type: MS2
Ion mode: POSITIVE
Ionization: ESI
Fragmentation mode: HCD
Collision energy: 60 % (nominal)
Resolution: 7500
Column name: XBridge C18 3.5um, 2.1x50mm, Waters
Retention time: 3.8 min
Base peak: 268.1553
Precursor m/z: 268.1543
Precursor type: [M+H]+
m/z	relative intensity	assigned
56.0495	225	C3H6N+
58.0651	24	C3H8N+
72.0809	187	C4H10N+
74.0601	225	C3H8NO+
79.0543	34	C6H7+
89.0387	8	C7H5+
91.0543	108	C7H7+
95.0493	29	C6H7O+
98.0965	142	C6H12N+
107.0493	45	C7H7O+
109.0648	45	C7H9O+
116.1071	133	C6H14NO+
117.0702	33	C9H9+
119.0492	91	C8H7O+
123.0442	19	C7H7O2+
133.065	27	C9H9O+
137.0598	92	C8H9O2+
145.0649	999	C10H9O+
162.0915	13	C10H12NO+
163.0503	131	C8H7N2O2+
163.0755	35	C10H11O2+
165.0547	235	C9H9O3+
179.0701	19	C10H11O3+
191.0702	254	C11H11O3+
226.1077	30	C11H16NO4+
