Mass spectrum: Isoxathion; LC-ESI-QFT; MS2; CE: 60%; R=17500; [M+H]+
Name: Isoxathion
Name: diethoxy-[(5-phenyl-1,2-oxazol-3-yl)oxy]-sulfanylidene-lambda5-phosphane
Formula: C13H16NO4PS
Exact mass: 313.0538
SMILES: CCOP(=S)(OCC)OC1=NOC(=C1)C2=CC=CC=C2
InChI: InChI=1S/C13H16NO4PS/c1-3-15-19(20,16-4-2)18-13-10-12(17-14-13)11-8-6-5-7-9-11/h5-10H,3-4H2,1-2H3
Instrument: Exploris 240 Orbitrap Thermo Scientific
Instrument type: LC-ESI-QFT
Ms type: MS2
Ion mode: POSITIVE
Ionization: ESI
Fragmentation mode: HCD
Collision energy: 60 % (nominal)
Resolution: 17500
Column name: XBridge C18 3.5um, 2.1x50mm, Waters
Retention time: 11.540 min
Base peak: 398.0878
Precursor m/z: 314.061
Precursor type: [M+H]+
m/z	relative intensity	assigned
61.0105	37	C2H5S+
64.9787	174	H2O2P+
77.0387	85	C2H8NP+
80.9737	20	H2O3P+
91.0543	85	C7H7+
93.0099	131	C2H6O2P+
95.0493	22	C6H7O+
96.9507	694	H2O2PS+
98.9841	36	H4O4P+
105.0335	999	C7H5O+
106.0651	25	C7H8N+
110.9667	22	CH4O2PS+
112.9456	167	H2O3PS+
113.9535	531	H3O3PS+
114.9614	522	H4O3PS+
116.0499	45	C8H6N+
124.9821	36	C2H6O2PS+
125.9901	26	C2H7O2PS+
130.9563	117	H4O4PS+
137.006	10	C3H8NOPS+
140.9766	10	C2H6O3PS+
142.9926	44	C2H8O3PS+
151.0215	26	C4H10NOPS+
162.055	209	C9H8NO2+
