Mass spectrum: Trospium; LC-ESI-QFT; MS2; CE: 45; R=35000; [M]+
Name: Trospium
Name: spiro[8-azoniabicyclo[3.2.1]octane-8,1`-azolidin-1-ium]-3-yl 2-hydroxy-2,2-diphenylacetate
Formula: [C25H30NO3]+
Exact mass: 392.22257
SMILES: OC(C(=O)OC1CC2CCC(C1)[N+]21CCCC1)(C1=CC=CC=C1)C1=CC=CC=C1
InChI: InChI=1S/C25H30NO3/c27-24(25(28,19-9-3-1-4-10-19)20-11-5-2-6-12-20)29-23-17-21-13-14-22(18-23)26(21)15-7-8-16-26/h1-6,9-12,21-23,28H,7-8,13-18H2/q+1
Instrument: Q Exactive Orbitrap Thermo Scientific
Instrument type: LC-ESI-QFT
Ms type: MS2
Ion mode: POSITIVE
Ionization: ESI
Fragmentation mode: HCD
Collision energy: 45 (nominal)
Resolution: 35000
Column name: XBridge C18 3.5um, 2.1x50mm, Waters
Retention time: 6.1 min
Base peak: 392.2208
Precursor m/z: 392.222
Precursor type: [M]+
m/z	relative intensity	assigned
84.0805	3	C5H10N+
91.0538	9	C7H7+
93.0695	53	C7H9+
95.0487	2	C6H7O+
95.0852	21	C7H11+
96.0804	2	C6H10N+
97.0882	6	C6H11N+
105.033	1	C7H5O+
110.096	3	C7H12N+
122.0958	6	C8H12N+
123.1038	9	C8H13N+
136.1118	5	C9H14N+
138.1272	4	C9H16N+
164.1429	999	C11H18N+
165.1506	12	C11H19N+
182.1534	865	C11H20NO+
183.08	4	C13H11O+
392.2208	305	C25H30NO3+
