Mass spectrum: Fenamidone; LC-ESI-QFT; MS2; CE: 45; R=35000; [M+H]+
Name: Fenamidone
Name: (5S)-3-anilino-5-methyl-2-(methylthio)-5-phenyl-2-imidazolin-4-one
Formula: C17H17N3OS
Exact mass: 311.10923
SMILES: O=C2N(Nc1ccccc1)C(\SC)=N/[C@]2(c3ccccc3)C
InChI: InChI=1S/C17H17N3OS/c1-17(13-9-5-3-6-10-13)15(21)20(16(18-17)22-2)19-14-11-7-4-8-12-14/h3-12,19H,1-2H3/t17-/m0/s1
Instrument: Q Exactive Orbitrap Thermo Scientific
Instrument type: LC-ESI-QFT
Ms type: MS2
Ion mode: POSITIVE
Ionization: ESI
Fragmentation mode: HCD
Collision energy: 45 (nominal)
Resolution: 35000
Column name: XBridge C18 3.5um, 2.1x50mm, Waters
Retention time: 10.3 min
Base peak: 312.1166
Precursor m/z: 312.1165
Precursor type: [M+H]+
m/z	relative intensity	assigned
65.0386	148	C5H5+
74.0058	15	C2H4NS+
74.9899	1	C2H3OS+
92.0494	999	C6H6N+
93.0572	2	C6H7N+
95.0491	2	C6H7O+
103.0542	159	C8H7+
104.0495	6	C7H6N+
109.0759	5	C6H9N2+
110.0599	1	C6H8NO+
118.0524	2	C7H6N2+
119.0603	2	C7H7N2+
120.0807	69	C8H10N+
124.0757	1	C7H10NO+
131.0492	1	C9H7O+
133.0635	4	C7H7N3+
133.076	26	C8H9N2+
134.0712	101	C7H8N3+
138.0371	7	C7H8NS+
145.0761	2	C9H9N2+
146.0601	2	C9H8NO+
148.0756	2	C9H10NO+
150.0247	23	C7H6N2S+
150.037	3	C8H8NS+
151.0575	4	C9H11S+
158.0713	14	C9H8N3+
161.0709	14	C9H9N2O+
162.0371	2	C9H8NS+
165.048	68	C8H9N2S+
170.0962	9	C12H12N+
179.0724	1	C13H9N+
189.0482	1	C10H9N2S+
193.0794	7	C10H13N2S+
194.0964	25	C14H12N+
195.0914	3	C13H11N2+
205.043	2	C10H9N2OS+
205.0795	1	C11H13N2S+
206.0836	4	C14H10N2+
207.0677	2	C14H9NO+
211.1229	25	C14H15N2+
219.0919	5	C15H11N2+
220.0991	4	C15H12N2+
221.0742	13	C11H13N2OS+
221.0949	13	C14H11N3+
221.1072	5	C15H13N2+
222.0914	13	C15H12NO+
224.0942	1	C14H12N2O+
236.1181	255	C15H14N3+
237.0479	5	C14H9N2S+
239.118	1	C15H15N2O+
252.0717	5	C15H12N2S+
264.1132	4	C16H14N3O+
267.0949	6	C16H15N2S+
