Mass spectrum: Chlordiazepoxide; LC-ESI-QFT; MS2; CE: 60; R=35000; [M+H]+
Name: Chlordiazepoxide
Name: Zetran
Name: 7-chloro-4-hydroxy-N-methyl-5-phenyl-3H-1,4-benzodiazepin-2-imine
Formula: C16H14ClN3O
Exact mass: 299.08254
SMILES: CN=C1CN(C(=C2C=C(C=CC2=N1)Cl)C3=CC=CC=C3)O
InChI: InChI=1S/C16H14ClN3O/c1-18-15-10-20(21)16(11-5-3-2-4-6-11)13-9-12(17)7-8-14(13)19-15/h2-9,21H,10H2,1H3
Instrument: Q Exactive Plus Orbitrap Thermo Scientific
Instrument type: LC-ESI-QFT
Ms type: MS2
Ion mode: POSITIVE
Ionization: ESI
Fragmentation mode: HCD
Collision energy: 60 (nominal)
Resolution: 35000
Column name: XBridge C18 3.5um, 2.1x50mm, Waters
Retention time: 6.2 min
Base peak: 300.0888
Precursor m/z: 300.0898
Precursor type: [M+H]+
m/z	relative intensity	assigned
57.0447	158	C2H5N2+
60.0443	2	C2H6NO+
77.0383	1	C6H5+
91.0541	1	C7H7+
93.0572	1	C6H7N+
95.049	1	C6H7O+
104.0493	10	C7H6N+
105.0334	4	C7H5O+
105.0446	1	C6H5N2+
124.0073	4	C7H5Cl+
128.026	1	C6H7ClN+
129.0445	1	C8H5N2+
138.0104	11	C7H5ClN+
139.0056	4	C6H4ClN2+
140.026	1	C7H7ClN+
151.0181	3	C8H6ClN+
152.0262	3	C8H7ClN+
153.0213	1	C7H6ClN2+
163.0056	32	C8H4ClN2+
164.0135	1	C8H5ClN2+
164.026	1	C9H7ClN+
165.0213	12	C8H6ClN2+
165.0696	14	C13H9+
177.0214	2	C9H6ClN2+
179.0369	2	C9H8ClN2+
179.0727	1	C13H9N+
180.0447	26	C9H9ClN2+
181.0159	1	C8H6ClN2O+
190.0647	2	C14H8N+
191.0727	2	C14H9N+
192.0805	73	C14H10N+
193.0524	1	C13H7NO+
194.0478	1	C9H9ClN3+
199.0306	1	C13H8Cl+
203.0731	1	C15H9N+
205.0759	8	C14H9N2+
206.0837	12	C14H10N2+
207.0913	2	C14H11N2+
208.0997	1	C14H12N2+
216.0681	3	C15H8N2+
217.0768	1	C15H9N2+
218.0837	9	C15H10N2+
219.0915	13	C15H11N2+
220.0993	12	C15H12N2+
221.1067	1	C15H13N2+
224.0261	5	C14H7ClN+
225.0336	1	C14H8ClN+
226.0416	13	C14H9ClN+
227.0494	999	C14H10ClN+
232.0869	1	C15H10N3+
238.0415	11	C15H9ClN+
239.0367	2	C14H8ClN2+
240.0447	1	C14H9ClN2+
240.0573	3	C15H11ClN+
241.0525	170	C14H10ClN2+
242.06	3	C14H11ClN2+
246.1023	15	C16H12N3+
247.1101	61	C16H13N3+
248.1178	2	C16H14N3+
250.0739	2	C12H13ClN3O+
251.0368	35	C15H8ClN2+
252.0446	18	C15H9ClN2+
253.0524	8	C15H10ClN2+
254.0603	5	C15H11ClN2+
255.068	76	C15H12ClN2+
256.0528	2	C15H11ClNO+
256.0757	7	C15H13ClN2+
265.0525	2	C16H10ClN2+
266.0602	12	C16H11ClN2+
267.0553	12	C15H10ClN3+
267.0683	2	C16H12ClN2+
268.0632	2	C15H11ClN3+
269.0836	34	C16H14ClN2+
282.079	203	C16H13ClN3+
