Mass spectrum: Formothion; LC-ESI-QFT; MS2; CE: 30%; R=17500; [M+H]+
Name: Formothion
Name: 2-dimethoxyphosphinothioylsulfanyl-N-formyl-N-methylacetamide
Formula: C6H12NO4PS2
Exact mass: 256.9945
SMILES: CN(C=O)C(=O)CSP(=S)(OC)OC
InChI: InChI=1S/C6H12NO4PS2/c1-7(5-8)6(9)4-14-12(13,10-2)11-3/h5H,4H2,1-3H3
Instrument: Exploris 240 Orbitrap Thermo Scientific
Instrument type: LC-ESI-QFT
Ms type: MS2
Ion mode: POSITIVE
Ionization: ESI
Fragmentation mode: HCD
Collision energy: 30 % (nominal)
Resolution: 17500
Column name: XBridge C18 3.5um, 2.1x50mm, Waters
Retention time: 5.214 min
Base peak: 198.9647
Precursor m/z: 258.0018
Precursor type: [M+H]+
m/z	relative intensity	assigned
60.0443	4	C2H6NO+
88.0216	37	C3H6NS+
100.0393	319	C4H6NO2+
116.0165	80	C4H6NOS+
124.9821	443	C2H6O2PS+
142.9927	211	C2H8O3PS+
156.9542	107	C2H6O2PS2+
157.0083	27	C3H10O3PS+
170.9698	999	C3H8O2PS2+
184.9492	39	C3H6O3PS2+
198.9648	558	C4H8O3PS2+
