Mass spectrum: Ephedrine; LC-ESI-ITFT; MS2; CE: 90%; R=30000; [M+H]+
Name: Ephedrine
Name: (1R,2S)-2-(methylamino)-1-phenyl-1-propanol
Formula: C10H15NO
Exact mass: 165.1154
SMILES: c1([C@H]([C@@H](NC)C)O)ccccc1
InChI: InChI=1S/C10H15NO/c1-8(11-2)10(12)9-6-4-3-5-7-9/h3-8,10-12H,1-2H3/t8-,10-/m0/s1
Instrument: LTQ Orbitrap XL Thermo Scientific
Instrument type: LC-ESI-ITFT
Ms type: MS2
Ion mode: POSITIVE
Ionization: ESI
Fragmentation mode: HCD
Collision energy: 90 % (nominal)
Resolution: 30000
Column name: XBridge C18 3.5um, 2.1x50mm, Waters
Retention time: 2.9 min
Base peak: 166.123
Precursor m/z: 166.1226
Precursor type: [M+H]+
m/z	relative intensity	assigned
56.0494	137	C3H6N+
70.0651	72	C4H8N+
77.0386	5	C6H5+
79.0542	14	C6H7+
91.0542	520	C7H7+
92.062	9	C7H8+
93.0698	21	C7H9+
104.062	74	C8H8+
105.0698	36	C8H9+
115.0542	730	C9H7+
116.062	86	C9H8+
117.0698	679	C9H9+
118.065	60	C8H8N+
120.0807	4	C8H10N+
130.0651	8	C9H8N+
132.0808	358	C9H10N+
133.0886	999	C9H11N+
146.0964	6	C10H12N+
148.112	408	C10H14N+
166.1234	5	C10H16NO+
