Mass spectrum: Trichlorfon; LC-ESI-QFT; MS2; CE: 120%; R=17500; [M+H]+
Name: Trichlorfon
Name: 2,2,2-trichloro-1-dimethoxyphosphorylethanol
Formula: C4H8Cl3O4P
Exact mass: 255.9226
SMILES: COP(=O)(C(C(Cl)(Cl)Cl)O)OC
InChI: InChI=1S/C4H8Cl3O4P/c1-10-12(9,11-2)3(8)4(5,6)7/h3,8H,1-2H3
Instrument: Exploris 240 Orbitrap Thermo Scientific
Instrument type: LC-ESI-QFT
Ms type: MS2
Ion mode: POSITIVE
Ionization: ESI
Fragmentation mode: HCD
Collision energy: 120 % (nominal)
Resolution: 17500
Column name: XBridge C18 3.5um, 2.1x50mm, Waters
Retention time: 4.036 min
Base peak: 288.0486
Precursor m/z: 256.9299
Precursor type: [M+H]+
m/z	relative intensity	assigned
62.9994	140	CH4OP+
64.9788	21	CH2ClO+
78.9943	677	CH4O2P+
82.945	999	CHCl2+
93.01	29	C2H6O2P+
97.005	27	CH6O3P+
109.0046	30	C2H6O3P+
127.0153	85	C2H8O4P+
