Mass spectrum: 4-Piperidinecarboxamide; LC-ESI-QFT; MS2; CE: 45; R=35000; [M+H]+
Name: 4-Piperidinecarboxamide
Name: 4-piperidinecarboxamide
Formula: C6H12N2O
Exact mass: 128.09496
SMILES: O=C(N)C1CCNCC1
InChI: InChI=1S/C6H12N2O/c7-6(9)5-1-3-8-4-2-5/h5,8H,1-4H2,(H2,7,9)
Instrument: Q Exactive Orbitrap Thermo Scientific
Instrument type: LC-ESI-QFT
Ms type: MS2
Ion mode: POSITIVE
Ionization: ESI
Fragmentation mode: HCD
Collision energy: 45 (nominal)
Resolution: 35000
Column name: XBridge C18 3.5um, 2.1x50mm, Waters
Retention time: 0.8 min
Base peak: 129.1023
Precursor m/z: 129.1022
Precursor type: [M+H]+
m/z	relative intensity	assigned
55.0542	1	C4H7+
56.0494	1	C3H6N+
67.0542	1	C5H7+
68.0494	5	C4H6N+
69.0335	2	C4H5O+
82.065	1	C5H8N+
84.0807	194	C5H10N+
94.0651	13	C6H8N+
112.0757	999	C6H10NO+
129.1022	385	C6H13N2O+
