Mass spectrum: 2,6-Di-tert-butylpyridine; LC-ESI-QFT; MS2; CE: 90; R=35000; [M+H]+
Name: 2,6-Di-tert-butylpyridine
Name: 2,6-ditert-butylpyridine
Name: 2,6-Bis(2-methyl-2-propanyl)pyridine
Formula: C13H21N
Exact mass: 191.16740
SMILES: CC(C)(C)C1=NC(=CC=C1)C(C)(C)C
InChI: InChI=1S/C13H21N/c1-12(2,3)10-8-7-9-11(14-10)13(4,5)6/h7-9H,1-6H3
Instrument: Q Exactive Plus Orbitrap Thermo Scientific
Instrument type: LC-ESI-QFT
Ms type: MS2
Ion mode: POSITIVE
Ionization: ESI
Fragmentation mode: HCD
Collision energy: 90 (nominal)
Resolution: 35000
Column name: XBridge C18 3.5um, 2.1x50mm, Waters
Retention time: 5.5 min
Base peak: 164.9844
Precursor m/z: 192.1747
Precursor type: [M+H]+
m/z	relative intensity	assigned
55.0179	1	C3H3O+
55.0543	18	C4H7+
57.0698	2	C4H9+
67.0542	1	C5H7+
69.0699	6	C5H9+
79.0541	4	C6H7+
80.0493	1	C5H6N+
81.0335	1	C5H5O+
82.0651	3	C5H8N+
83.0855	4	C6H11+
91.0542	4	C7H7+
93.0699	2	C7H9+
95.0491	1	C6H7O+
96.0443	2	C5H6NO+
103.0543	1	C8H7+
105.0699	8	C8H9+
106.0651	13	C7H8N+
107.0729	11	C7H9N+
108.0444	1	C6H6NO+
108.0807	2	C7H10N+
109.0648	2	C7H9O+
110.06	1	C6H8NO+
119.0492	1	C8H7O+
119.073	2	C8H9N+
120.0808	13	C8H10N+
121.0886	98	C8H11N+
122.06	17	C7H8NO+
123.0678	4	C7H9NO+
132.0805	14	C9H10N+
133.0886	32	C9H11N+
134.0964	10	C9H12N+
135.1042	6	C9H13N+
136.1121	5	C9H14N+
146.0964	26	C10H12N+
147.1043	94	C10H13N+
148.1121	195	C10H14N+
149.1199	74	C10H15N+
150.0913	23	C9H12NO+
160.1118	1	C11H14N+
161.1199	5	C11H15N+
162.1277	999	C11H16N+
163.1355	126	C11H17N+
176.1434	577	C12H18N+
177.1512	176	C12H19N+
192.1747	62	C13H22N+
