Mass spectrum: Darunavir; LC-ESI-QFT; MS2; CE: 75; R=35000; [M+H]+
Name: Darunavir
Name: N-[(1S,2R)-1-benzyl-2-hydroxy-3-[isobutyl(sulfanilyl)amino]propyl]carbamic acid [(3aS,4R,6aR)-2,3,3a,4,5,6a-hexahydrofuro[2,3-b]furan-4-yl] ester
Formula: C27H37N3O7S
Exact mass: 547.23522
SMILES: CC(C)CN(CC(C(CC1=CC=CC=C1)NC(=O)OC2COC3C2CCO3)O)S(=O)(=O)C4=CC=C(C=C4)N
InChI: InChI=1S/C27H37N3O7S/c1-18(2)15-30(38(33,34)21-10-8-20(28)9-11-21)16-24(31)23(14-19-6-4-3-5-7-19)29-27(32)37-25-17-36-26-22(25)12-13-35-26/h3-11,18,22-26,31H,12-17,28H2,1-2H3,(H,29,32)/t22-,23-,24+,25-,26+/m0/s1
Instrument: Q Exactive Orbitrap Thermo Scientific
Instrument type: LC-ESI-QFT
Ms type: MS2
Ion mode: POSITIVE
Ionization: ESI
Fragmentation mode: HCD
Collision energy: 75 (nominal)
Resolution: 35000
Column name: XBridge C18 3.5um, 2.1x50mm, Waters
Retention time: 8.7 min
Base peak: 548.2426
Precursor m/z: 548.2425
Precursor type: [M+H]+
m/z	relative intensity	assigned
80.0495	73	C5H6N+
83.0491	13	C5H7O+
85.0283	7	C4H5O2+
85.0648	11	C5H9O+
86.0964	52	C5H12N+
91.0542	93	C7H7+
92.0495	823	C6H6N+
93.0697	11	C7H9+
94.0652	7	C6H8N+
95.0492	73	C6H7O+
96.0445	8	C5H6NO+
100.1125	5	C6H14N+
103.0543	57	C8H7+
105.0696	6	C8H9+
108.0444	999	C6H6NO+
110.06	236	C6H8NO+
113.0597	22	C6H9O2+
114.1152	5	C6H14N2+
117.0698	27	C9H9+
120.0555	12	C6H6N3+
120.0808	200	C8H10N+
127.1229	9	C7H15N2+
128.0494	10	C9H6N+
128.062	31	C10H8+
129.0699	221	C10H9+
131.0855	6	C10H11+
134.0966	8	C9H12N+
144.0809	16	C10H10N+
145.0645	6	C10H9O+
146.06	26	C9H8NO+
146.0965	30	C10H12N+
156.0114	223	C6H6NO2S+
202.1589	6	C14H20N+
