Mass spectrum: Metribuzin; LC-ESI-ITFT; MS2; CE: 60%; R=15000; [M+H]+
Name: Metribuzin
Name: 1,2,4-Triazin-5(4H)-one, 4-amino-6-(1,1-dimethylethyl)-3-(methylthio)-
Name: 4-amino-6-tert-butyl-3-(methylthio)-1,2,4-triazin-5-one
Formula: C8H14N4OS
Exact mass: 214.0883
SMILES: S(C)C(=NN=C1C(C)(C)C)N(N)C1=O
InChI: InChI=1S/C8H14N4OS/c1-8(2,3)5-6(13)12(9)7(14-4)11-10-5/h9H2,1-4H3
Instrument: LTQ Orbitrap XL Thermo Scientific
Instrument type: LC-ESI-ITFT
Ms type: MS2
Ion mode: POSITIVE
Ionization: ESI
Fragmentation mode: HCD
Collision energy: 60 % (nominal)
Resolution: 15000
Column name: XBridge C18 3.5um, 2.1x50mm, Waters
Retention time: 6.9 min
Base peak: 215.0964
Precursor m/z: 215.0961
Precursor type: [M+H]+
m/z	relative intensity	assigned
57.0698	37	C4H9+
58.0399	75	CH4N3+
59.9902	30	CH2NS+
60.9981	6	CH3NS+
62.0059	40	CH4NS+
69.0083	12	C2HN2O+
69.0699	22	C5H9+
70.065	3	C4H8N+
74.0059	79	C2H4NS+
76.0215	24	C2H6NS+
82.0652	30	C5H8N+
84.0808	117	C5H10N+
87.0011	15	C2H3N2S+
88.0089	3	C2H4N2S+
89.0168	55	C2H5N2S+
97.0648	19	C6H9O+
99.0917	9	C5H11N2+
104.0277	12	C2H6N3S+
108.0681	4	C6H8N2+
110.0601	10	C6H8NO+
114.9961	33	C3H3N2OS+
127.0866	8	C6H11N2O+
130.0686	4	C6H12NS+
131.0278	11	C4H7N2OS+
131.0386	162	C3H7N4S+
139.0863	4	C7H11N2O+
140.1059	6	C6H12N4+
145.0543	45	C4H9N4S+
153.0772	4	C6H9N4O+
155.0635	7	C7H11N2S+
156.059	14	C6H10N3S+
157.0429	6	C6H9N2OS+
159.0339	4	C4H7N4OS+
171.0587	88	C7H11N2OS+
172.0777	21	C6H12N4S+
183.0461	7	C7H9N3OS+
184.0539	31	C7H10N3OS+
186.0821	34	C8H14N2OS+
187.1012	999	C7H15N4S+
215.0963	469	C8H15N4OS+
