Mass spectrum: Efavirenz; LC-ESI-QFT; MS2; CE: 45; R=35000; [M+H]+
Name: Efavirenz
Name: (4S)-6-chloro-4-(2-cyclopropylethynyl)-4-(trifluoromethyl)-1H-3,1-benzoxazin-2-one
Formula: C14H9ClF3NO2
Exact mass: 315.02739
SMILES: C1CC1C#C[C@]2(C3=C(C=CC(=C3)Cl)NC(=O)O2)C(F)(F)F
InChI: InChI=1S/C14H9ClF3NO2/c15-9-3-4-11-10(7-9)13(14(16,17)18,21-12(20)19-11)6-5-8-1-2-8/h3-4,7-8H,1-2H2,(H,19,20)/t13-/m0/s1
Instrument: Q Exactive Orbitrap Thermo Scientific
Instrument type: LC-ESI-QFT
Ms type: MS2
Ion mode: POSITIVE
Ionization: ESI
Fragmentation mode: HCD
Collision energy: 45 (nominal)
Resolution: 35000
Column name: XBridge C18 3.5um, 2.1x50mm, Waters
Retention time: 13.0 min
Base peak: 316.0348
Precursor m/z: 316.0347
Precursor type: [M+H]+
m/z	relative intensity	assigned
50.0153	8	C4H2+
51.0231	9	C4H3+
53.0387	135	C4H5+
77.0197	1	C3H3F2+
115.0539	2	C9H7+
141.0697	3	C11H9+
142.0778	9	C11H10+
151.0183	47	C8H6ClN+
153.0573	2	C11H7N+
154.0649	3	C11H8N+
162.0107	1	C9H5ClN+
164.0261	41	C9H7ClN+
166.0653	16	C12H8N+
167.073	205	C12H9N+
168.0808	999	C12H10N+
170.0525	7	C12H7F+
172.0555	7	C11H7FN+
172.9961	2	C8H4ClF2+
174.0105	6	C10H5ClN+
175.0184	28	C10H6ClN+
177.0573	10	C13H7N+
180.9715	2	C11ClN+
182.0165	6	C9H6ClFN+
182.0338	2	C10H5F3+
183.9961	2	C8H4ClFNO+
185.0448	58	C9H6F3N+
185.0638	20	C12H8FN+
185.9918	2	C8H3ClF2N+
186.0716	5	C12H9FN+
188.0262	182	C11H7ClN+
189.0385	49	C11H5F2N+
190.0463	2	C11H6F2N+
192.0012	7	C10H4ClFN+
193.0519	5	C13H7NO+
194.0596	3	C13H8NO+
195.0481	10	C13H6FN+
196.0557	13	C13H7FN+
197.0635	60	C13H8FN+
198.0524	11	C10H7F3N+
198.0715	9	C13H9FN+
200.0072	38	C9H5ClF2N+
200.0257	2	C12H7ClN+
201.0339	239	C12H8ClN+
202.0416	234	C12H9ClN+
203.0495	155	C12H10ClN+
204.0016	7	C11H2F2O2+
204.0217	2	C11H7ClNO+
204.0626	2	C12H8F2N+
205.0221	1	C9H8ClF2O+
206.0169	8	C11H6ClFN+
206.0413	3	C11H6F2NO+
207.0242	2	C14H4FO+
208.0371	2	C11H5F3N+
209.0447	41	C11H6F3N+
210.0117	6	C10H6ClFNO+
212.0074	149	C10H5ClF2N+
213.0587	2	C13H8FNO+
214.0461	8	C13H6F2N+
214.0662	2	C13H9FNO+
215.0541	58	C13H7F2N+
216.062	90	C13H8F2N+
217.0027	9	C10H5ClF3+
217.0698	113	C13H9F2N+
218.0364	6	C12H9ClNO+
218.0773	1	C13H10F2N+
219.0248	24	C12H7ClFN+
220.0137	52	C9H6ClF3N+
222.0526	211	C12H7F3N+
223.0426	5	C14H6FNO+
224.0073	798	C11H5ClF2N+
226.0231	2	C11H7ClF2N+
228.0208	3	C13H7ClNO+
229.0291	14	C13H8ClNO+
230.0169	75	C13H6ClFN+
231.0246	3	C13H7ClFN+
232.0138	443	C10H6ClF3N+
232.032	278	C13H8ClFN+
234.0531	3	C13H7F3N+
234.0724	2	C13H10F2NO+
235.0603	84	C13H8F3N+
236.0682	121	C13H9F3N+
237.0151	92	C12H6ClF2N+
237.0761	83	C13H10F3N+
239.0305	7	C12H8ClF2N+
242.0177	2	C11H7ClF2NO+
243.0054	1	C14H2F3O+
243.0492	3	C14H7F2NO+
244.0136	684	C11H6ClF3N+
246.0316	2	C13H9ClNO2+
247.0405	1	C13H10ClNO2+
248.0274	8	C13H8ClFNO+
250.023	294	C13H7ClF2N+
251.0313	5	C13H8ClF2N+
252.0386	25	C13H9ClF2N+
256.0133	16	C12H6ClF3N+
257.0209	8	C12H7ClF3N+
258.0119	12	C14H6ClFNO+
263.0552	12	C14H8F3NO+
265.0104	1	C13H6ClF2NO+
269.0203	2	C13H7ClF3N+
270.0295	17	C13H8ClF3N+
272.0442	5	C13H10ClF3N+
278.0177	19	C14H7ClF2NO+
298.0252	2	C14H8ClF3NO+
