Mass spectrum: Etrimfos; LC-ESI-QFT; MS2; CE: 90%; R=17500; [M+H]+
Name: Etrimfos
Name: (6-ethoxy-2-ethylpyrimidin-4-yl)oxy-dimethoxy-sulfanylidene-lambda5-phosphane
Formula: C10H17N2O4PS
Exact mass: 292.0647
SMILES: CCC1=NC(=CC(=N1)OP(=S)(OC)OC)OCC
InChI: InChI=1S/C10H17N2O4PS/c1-5-8-11-9(15-6-2)7-10(12-8)16-17(18,13-3)14-4/h7H,5-6H2,1-4H3
Instrument: Exploris 240 Orbitrap Thermo Scientific
Instrument type: LC-ESI-QFT
Ms type: MS2
Ion mode: POSITIVE
Ionization: ESI
Fragmentation mode: HCD
Collision energy: 90 % (nominal)
Resolution: 17500
Column name: XBridge C18 3.5um, 2.1x50mm, Waters
Retention time: 10.931 min
Base peak: 293.0719
Precursor m/z: 293.0719
Precursor type: [M+H]+
m/z	relative intensity	assigned
56.0495	378	C3H6N+
62.0186	110	C2H6S+
68.0131	242	C3H2NO+
78.9943	999	CH4O2P+
93.0103	47	C2H6O2P+
100.0395	23	H9N2O2P+
109.0051	115	C2H6O3P+
110.9665	181	CH4O2PS+
124.9821	787	C2H6O2PS+
127.0155	195	C2H8O4P+
128.9773	65	CH6O3PS+
142.9927	252	C2H8O3PS+
157.0083	47	C3H10O3PS+
