Mass spectrum: Isopropalin; LC-ESI-QFT; MS2; CE: 30%; R=17500; [M+H]+
Name: Isopropalin
Name: 2,6-dinitro-4-propan-2-yl-N,N-dipropylaniline
Formula: C15H23N3O4
Exact mass: 309.1689
SMILES: CCCN(CCC)C1=C(C=C(C=C1[N+](=O)[O-])C(C)C)[N+](=O)[O-]
InChI: InChI=1S/C15H23N3O4/c1-5-7-16(8-6-2)15-13(17(19)20)9-12(11(3)4)10-14(15)18(21)22/h9-11H,5-8H2,1-4H3
Instrument: Exploris 240 Orbitrap Thermo Scientific
Instrument type: LC-ESI-QFT
Ms type: MS2
Ion mode: POSITIVE
Ionization: ESI
Fragmentation mode: HCD
Collision energy: 30 % (nominal)
Resolution: 17500
Column name: XBridge C18 3.5um, 2.1x50mm, Waters
Retention time: 15.043 min
Base peak: 310.1757
Precursor m/z: 310.1761
Precursor type: [M+H]+
m/z	relative intensity	assigned
57.0335	33	C3H5O+
131.0605	14	C8H7N2+
146.0835	21	C9H10N2+
164.0946	19	C9H12N2O+
176.0939	37	C10H12N2O+
180.0405	21	C7H6N3O3+
180.0898	13	C9H12N2O2+
188.1307	22	C12H16N2+
189.1028	21	C11H13N2O+
194.0925	215	C9H12N3O2+
204.1259	72	C12H16N2O+
206.0923	264	C10H12N3O2+
208.0716	76	C9H10N3O3+
210.0873	289	C9H12N3O3+
218.0921	75	C11H12N3O2+
222.0873	292	C10H12N3O3+
226.0821	494	C9H12N3O4+
233.1164	48	C12H15N3O2+
234.1238	91	C12H16N3O2+
250.1187	188	C12H16N3O3+
264.1342	206	C13H18N3O3+
268.1291	454	C12H18N3O4+
276.171	164	C15H22N3O2+
292.1656	19	C15H22N3O3+
310.176	999	C15H24N3O4+
