Mass spectrum: 6-2-8-2-diPAP; LC-ESI-QFT; MS2; CE: 15%; R=17500; [M+H]+
Name: 6-2-8-2-diPAP
Name: 6:2/8:2 Fluorotelomer phosphate diester
Name: 3,3,4,4,5,5,6,6,7,7,8,8,9,9,10,10,10-heptadecafluorodecyl 3,3,4,4,5,5,6,6,7,7,8,8,8-tridecafluorooctyl hydrogen phosphate
Formula: C18H9F30O4P
Exact mass: 889.975941998
SMILES: C(COP(=O)(O)OCCC(C(C(C(C(C(F)(F)F)(F)F)(F)F)(F)F)(F)F)(F)F)C(C(C(C(C(C(C(C(F)(F)F)(F)F)(F)F)(F)F)(F)F)(F)F)(F)F)(F)F
InChI: InChI=1S/C18H9F30O4P/c19-5(20,7(23,24)9(27,28)11(31,32)12(33,34)14(37,38)16(41,42)18(46,47)48)1-3-51-53(49,50)52-4-2-6(21,22)8(25,26)10(29,30)13(35,36)15(39,40)17(43,44)45/h1-4H2,(H,49,50)
Instrument: Exploris 240 Orbitrap Thermo Scientific
Instrument type: LC-ESI-QFT
Ms type: MS2
Ion mode: POSITIVE
Ionization: ESI
Fragmentation mode: HCD
Collision energy: 15 % (nominal)
Resolution: 17500
Column name: XBridge C18 3.5um, 2.1x50mm, Waters
Retention time: 15.397 min
Base peak: 475.2086
Precursor m/z: 890.9832
Precursor type: [M+H]+
m/z	relative intensity	assigned
890.9826	999	C18H10F30O4P+
