Mass spectrum: Chlorophacinone; LC-ESI-QFT; MS2; CE: 30%; R=17500; [M+H]+
Name: Chlorophacinone
Name: 2-[2-(4-chlorophenyl)-2-phenylacetyl]indene-1,3-dione
Formula: C23H15ClO3
Exact mass: 374.0710
SMILES: C1=CC=C(C=C1)C(C2=CC=C(C=C2)Cl)C(=O)C3C(=O)C4=CC=CC=C4C3=O
InChI: InChI=1S/C23H15ClO3/c24-16-12-10-15(11-13-16)19(14-6-2-1-3-7-14)23(27)20-21(25)17-8-4-5-9-18(17)22(20)26/h1-13,19-20H
Instrument: Exploris 240 Orbitrap Thermo Scientific
Instrument type: LC-ESI-QFT
Ms type: MS2
Ion mode: POSITIVE
Ionization: ESI
Fragmentation mode: HCD
Collision energy: 30 % (nominal)
Resolution: 17500
Column name: XBridge C18 3.5um, 2.1x50mm, Waters
Retention time: 14.480 min
Base peak: 375.0783
Precursor m/z: 375.0782
Precursor type: [M+H]+
m/z	relative intensity	assigned
105.0335	12	C7H5O+
138.9946	28	C7H4ClO+
201.0462	59	C13H10Cl+
207.0803	66	C15H11O+
217.0648	66	C16H9O+
219.0798	9	C16H11O+
229.0413	23	C14H10ClO+
235.0752	999	C16H11O2+
241.0411	26	C15H10ClO+
245.0595	16	C17H9O2+
251.0255	20	C16H8ClO+
261.0547	8	C17H9O3+
262.0625	9	C17H10O3+
263.0701	387	C17H11O3+
269.0363	610	C16H10ClO2+
278.1091	17	C22H14+
297.0311	83	C17H10ClO3+
321.0903	40	C23H13O2+
322.0986	82	C23H14O2+
339.0578	19	C23H12ClO+
357.0673	276	C23H14ClO2+
