Mass spectrum: Aminocarb; LC-ESI-QFT; MS2; CE: 150%; R=17500; [M+H]+
Name: Aminocarb
Name: [4-(dimethylamino)-3-methylphenyl] N-methylcarbamate
Formula: C11H16N2O2
Exact mass: 208.1212
SMILES: CC1=C(C=CC(=C1)OC(=O)NC)N(C)C
InChI: InChI=1S/C11H16N2O2/c1-8-7-9(15-11(14)12-2)5-6-10(8)13(3)4/h5-7H,1-4H3,(H,12,14)
Instrument: Exploris 240 Orbitrap Thermo Scientific
Instrument type: LC-ESI-QFT
Ms type: MS2
Ion mode: POSITIVE
Ionization: ESI
Fragmentation mode: HCD
Collision energy: 150 % (nominal)
Resolution: 17500
Column name: XBridge C18 3.5um, 2.1x50mm, Waters
Retention time: 1.684 min
Base peak: 209.1283
Precursor m/z: 209.1285
Precursor type: [M+H]+
m/z	relative intensity	assigned
51.0229	13	C4H3+
53.0386	41	C4H5+
54.0338	12	C3H4N+
55.0178	36	C3H3O+
65.0385	39	C5H5+
67.0542	129	C5H7+
77.0386	176	C6H5+
79.0542	44	C6H7+
91.0544	44	C7H7+
93.0576	41	C6H7N+
94.0413	14	C6H6O+
94.0651	195	C6H8N+
95.0492	113	C6H7O+
105.0448	54	C6H5N2+
107.0492	84	C7H7O+
108.057	91	C7H8O+
108.0807	27	C7H10N+
109.0648	20	C7H9O+
120.0567	9	C8H8O+
120.0811	22	C8H10N+
122.0601	999	C7H8NO+
136.0757	283	C8H10NO+
137.0837	54	C8H11NO+
