Mass spectrum: Metolachlor ESA; LC-ESI-ITFT; MS2; CE: 45%; R=15000; [M+H]+
Name: Metolachlor ESA
Name: 2-[(2-Ethyl-6-methylphenyl)(1-methoxy-2-propanyl)amino]-2-oxoethanesulfonic acid
Formula: C15H23NO5S
Exact mass: 329.1297
SMILES: O=S(O)(CC(N(C(C)COC)C1=C(CC)C=CC=C1C)=O)=O
InChI: InChI=1S/C15H23NO5S/c1-5-13-8-6-7-11(2)15(13)16(12(3)9-21-4)14(17)10-22(18,19)20/h6-8,12H,5,9-10H2,1-4H3,(H,18,19,20)
Instrument: LTQ Orbitrap XL Thermo Scientific
Instrument type: LC-ESI-ITFT
Ms type: MS2
Ion mode: POSITIVE
Ionization: ESI
Fragmentation mode: HCD
Collision energy: 45 % (nominal)
Resolution: 15000
Column name: XBridge C18 3.5um, 2.1x50mm, Waters
Retention time: 7.8 min
Base peak: 374.1017
Precursor m/z: 330.137
Precursor type: [M+H]+
m/z	relative intensity	assigned
73.0648	71	C4H9O+
136.1122	54	C9H14N+
144.0808	28	C10H10N+
146.0965	40	C10H12N+
160.1121	286	C11H14N+
174.1276	138	C12H16N+
175.1355	100	C12H17N+
176.1432	219	C12H18N+
202.1225	766	C13H16NO+
298.1105	999	C14H20NO4S+
