Mass spectrum: Chloridazon; LC-ESI-ITFT; MS2; CE: 45%; R=15000; [M+H]+
Name: Chloridazon
Name: 5-amino-4-chloro-2-phenyl-3-pyridazinone
Formula: C10H8ClN3O
Exact mass: 221.0350
SMILES: ClC(=C(N)C=N1)C(=O)N1-c(ccc2)cc2
InChI: InChI=1S/C10H8ClN3O/c11-9-8(12)6-13-14(10(9)15)7-4-2-1-3-5-7/h1-6H,12H2
Instrument: LTQ Orbitrap XL Thermo Scientific
Instrument type: LC-ESI-ITFT
Ms type: MS2
Ion mode: POSITIVE
Ionization: ESI
Fragmentation mode: HCD
Collision energy: 45 % (nominal)
Resolution: 15000
Column name: XBridge C18 3.5um, 2.1x50mm, Waters
Retention time: 5.2 min
Base peak: 222.0432
Precursor m/z: 222.0429
Precursor type: [M+H]+
m/z	relative intensity	assigned
65.0386	1	C5H5+
77.0385	7	C6H5+
92.0495	22	C6H6N+
94.0652	9	C6H8N+
104.0495	59	C7H6N+
105.0445	2	C6H5N2+
119.0602	1	C7H7N2+
128.9852	8	C4H2ClN2O+
146.0116	6	C4H5ClN3O+
159.0551	2	C9H7N2O+
186.0663	7	C10H8N3O+
193.0286	4	C10H8ClNO+
195.0317	1	C9H8ClN2O+
205.0164	4	C10H6ClN2O+
222.0431	999	C10H9ClN3O+
