Mass spectrum: Dexamethasone; LC-ESI-ITFT; MS2; CE: 90%; R=7500; [M+H]+
Name: Dexamethasone
Name: (8S,9R,10S,11S,13S,14S,16R,17R)-9-fluoranyl-10,13,16-trimethyl-11,17-bis(oxidanyl)-17-(2-oxidanylethanoyl)-6,7,8,11,12,14,15,16-octahydrocyclopenta[a]phenanthren-3-one
Formula: C22H29FO5
Exact mass: 392.1999
SMILES: [H][C@@]12C[C@@H](C)[C@](O)(C(=O)CO)[C@@]1(C)C[C@H](O)[C@@]3(F)[C@@]2([H])CCC4=CC(=O)C=C[C@]34C
InChI: InChI=1S/C22H29FO5/c1-12-8-16-15-5-4-13-9-14(25)6-7-19(13,2)21(15,23)17(26)10-20(16,3)22(12,28)18(27)11-24/h6-7,9,12,15-17,24,26,28H,4-5,8,10-11H2,1-3H3/t12-,15+,16+,17+,19+,20+,21+,22+/m1/s1
Instrument: LTQ Orbitrap XL Thermo Scientific
Instrument type: LC-ESI-ITFT
Ms type: MS2
Ion mode: POSITIVE
Ionization: ESI
Fragmentation mode: HCD
Collision energy: 90 % (nominal)
Resolution: 7500
Column name: XBridge C18 3.5um, 2.1x50mm, Waters
Retention time: 9.5 min
Base peak: 393.2068
Precursor m/z: 393.2072
Precursor type: [M+H]+
m/z	relative intensity	assigned
77.0387	186	C6H5+
79.0541	239	C6H7+
91.0543	900	C7H7+
93.0701	197	C7H9+
95.0855	89	C7H11+
97.0651	59	C6H9O+
103.0543	162	C8H7+
105.0699	617	C8H9+
107.0493	74	C7H7O+
107.0855	149	C8H11+
115.0541	327	C9H7+
117.0702	223	C9H9+
119.0856	547	C9H11+
121.0648	999	C8H9O+
128.0621	616	C10H8+
129.0697	270	C10H9+
131.0495	93	C9H7O+
131.0862	216	C10H11+
132.0571	328	C9H8O+
141.0703	353	C11H9+
142.0778	200	C11H10+
143.0855	304	C11H11+
144.0563	159	C10H8O+
145.0651	306	C10H9O+
146.0728	137	C10H10O+
147.0806	466	C10H11O+
155.0601	102	C10H7N2+
155.0858	156	C12H11+
158.0728	243	C11H10O+
159.08	122	C11H11O+
161.0958	89	C11H13O+
165.0698	270	C13H9+
166.0777	110	C13H10+
167.0848	90	C13H11+
169.0649	88	C12H9O+
171.08	325	C12H11O+
178.0778	313	C14H10+
179.0854	485	C14H11+
181.065	145	C13H9O+
181.1004	94	C14H13+
182.0724	125	C13H10O+
189.0695	196	C15H9+
190.078	122	C15H10+
191.0856	311	C15H11+
192.0942	86	C15H12+
193.1004	132	C15H13+
194.0743	71	C11H11FO2+
194.1107	88	C12H15FO+
196.0883	76	C14H12O+
197.0968	95	C14H13O+
202.0777	143	C16H10+
203.0855	151	C16H11+
207.0803	242	C15H11O+
208.0881	189	C15H12O+
209.0961	237	C15H13O+
215.0847	122	C17H11+
219.0808	150	C16H11O+
221.0956	277	C16H13O+
222.1043	183	C16H14O+
233.0951	167	C17H13O+
246.1033	100	C18H14O+
247.1114	117	C18H15O+
248.1207	79	C18H16O+
