Mass spectrum: Mianserin; LC-ESI-QFT; MS2; CE: 75; R=35000; [M+H]+
Name: Mianserin
Name: 2-Methyl-1,2,3,4,10,14b-hexahydrodibenzo[c,f]pyrazino[1,2-a]azepine
Formula: C18H20N2
Exact mass: 264.16265
SMILES: CN1CCN2C(C1)C3=CC=CC=C3CC4=CC=CC=C42
InChI: InChI=1S/C18H20N2/c1-19-10-11-20-17-9-5-3-7-15(17)12-14-6-2-4-8-16(14)18(20)13-19/h2-9,18H,10-13H2,1H3
Instrument: Q Exactive Plus Orbitrap Thermo Scientific
Instrument type: LC-ESI-QFT
Ms type: MS2
Ion mode: POSITIVE
Ionization: ESI
Fragmentation mode: HCD
Collision energy: 75 (nominal)
Resolution: 35000
Column name: XBridge C18 3.5um, 2.1x50mm, Waters
Retention time: 6.5 min
Base peak: 265.1696
Precursor m/z: 265.1699
Precursor type: [M+H]+
m/z	relative intensity	assigned
51.0229	1	C4H3+
53.0386	2	C4H5+
56.0495	59	C3H6N+
57.0573	4	C3H7N+
58.0651	999	C3H8N+
65.0385	16	C5H5+
70.0651	158	C4H8N+
72.0807	16	C4H10N+
77.0384	8	C6H5+
79.0542	18	C6H7+
80.0494	2	C5H6N+
82.0651	5	C5H8N+
85.076	45	C4H9N2+
89.0384	1	C7H5+
90.0464	1	C7H6+
91.0542	378	C7H7+
92.0495	21	C6H6N+
93.0573	5	C6H7N+
93.0699	9	C7H9+
94.0651	4	C6H8N+
95.0491	11	C6H7O+
97.0759	1	C5H9N2+
98.0837	5	C5H10N2+
103.0542	39	C8H7+
104.0494	7	C7H6N+
104.0619	1	C8H8+
105.0448	6	C6H5N2+
105.0699	86	C8H9+
106.0651	99	C7H8N+
107.0728	6	C7H9N+
109.0649	5	C7H9O+
115.0542	151	C9H7+
116.0494	21	C8H6N+
116.062	23	C9H8+
117.0573	79	C8H7N+
117.0698	113	C9H9+
118.0651	293	C8H8N+
119.0606	5	C7H7N2+
119.0729	12	C8H9N+
119.0856	8	C9H11+
120.0808	133	C8H10N+
128.062	18	C10H8+
129.0698	48	C10H9+
130.0651	115	C9H8N+
131.0602	2	C8H7N2+
131.0729	43	C9H9N+
131.0855	12	C10H11+
132.0807	46	C9H10N+
133.0761	1	C8H9N2+
133.0886	4	C9H11N+
134.06	1	C8H8NO+
134.0964	1	C9H12N+
141.0699	3	C11H9+
142.0652	4	C10H8N+
143.0729	13	C10H9N+
144.0808	107	C10H10N+
145.0647	1	C10H9O+
145.0763	2	C9H9N2+
145.0886	18	C10H11N+
146.0964	94	C10H12N+
147.1041	7	C10H13N+
148.112	3	C10H14N+
153.0698	1	C12H9+
154.0651	1	C11H8N+
155.0603	4	C10H7N2+
156.0807	7	C11H10N+
157.0886	26	C11H11N+
158.0964	73	C11H12N+
159.0915	9	C10H11N2+
159.1041	7	C11H13N+
160.112	7	C11H14N+
161.1073	77	C10H13N2+
165.0698	17	C13H9+
166.0776	23	C13H10+
167.073	1	C12H9N+
167.0853	5	C13H11+
170.0962	2	C12H12N+
171.0915	1	C11H11N2+
172.112	9	C12H14N+
173.1074	11	C11H13N2+
174.1152	10	C11H14N2+
178.0777	58	C14H10+
179.0855	53	C14H11+
180.0808	7	C13H10N+
181.1011	20	C14H13+
189.0697	1	C15H9+
190.0776	3	C15H10+
191.0853	10	C15H11+
192.0807	44	C14H10N+
192.0935	5	C15H12+
193.0886	291	C14H11N+
194.0964	54	C14H12N+
202.0776	5	C16H10+
203.0854	7	C16H11+
204.0808	32	C15H10N+
205.0887	17	C15H11N+
205.1012	1	C16H13+
206.0965	78	C15H12N+
207.1043	73	C15H13N+
208.1121	263	C15H14N+
217.0887	11	C16H11N+
218.0964	39	C16H12N+
219.0916	3	C15H11N2+
219.1042	16	C16H13N+
220.112	56	C16H14N+
221.1198	5	C16H15N+
222.1277	40	C16H16N+
231.1046	1	C17H13N+
232.112	12	C17H14N+
233.1075	11	C16H13N2+
234.1278	10	C17H16N+
235.1228	9	C16H15N2+
247.1228	13	C17H15N2+
248.1307	40	C17H16N2+
249.1384	6	C17H17N2+
250.1464	11	C17H18N2+
261.1385	3	C18H17N2+
262.1463	4	C18H18N2+
263.1541	22	C18H19N2+
265.1696	5	C18H21N2+
