Mass spectrum: 2-Naphthylamine; LC-ESI-QFT; MS2; CE: 45%; R=15000; [M+H]+
Name: 2-Naphthylamine
Name: naphthalen-2-amine
Formula: C10H9N
Exact mass: 143.0734993
SMILES: NC1=CC2=C(C=CC=C2)C=C1
InChI: InChI=1S/C10H9N/c11-10-6-5-8-3-1-2-4-9(8)7-10/h1-7H,11H2
Instrument: Exploris 240 Thermo Scientific
Instrument type: LC-ESI-QFT
Ms type: MS2
Ion mode: POSITIVE
Ionization: ESI
Fragmentation mode: HCD
Collision energy: 45 % (nominal)
Resolution: 15000
Column name: XBridge C18 3.5um, 2.1x50mm, Waters
Retention time: 4.261 min
Base peak: 144.0806
Precursor m/z: 144.0808
Precursor type: [M+H]+
m/z	relative intensity	assigned
117.0696	13	C9H9+
143.0728	16	C10H9N+
144.0806	999	C10H10N+
