Mass spectrum: Demeton-S-Methyl Sulfone; LC-ESI-QFT; MS2; CE: 90%; R=17500; [M+H]+
Name: Demeton-S-Methyl Sulfone
Name: Demeton-S-methylsulphon
Name: 1-dimethoxyphosphorylsulfanyl-2-ethylsulfonylethane
Formula: C6H15O5PS2
Exact mass: 262.0099
SMILES: CCS(=O)(=O)CCSP(=O)(OC)OC
InChI: InChI=1S/C6H15O5PS2/c1-4-14(8,9)6-5-13-12(7,10-2)11-3/h4-6H2,1-3H3
Instrument: Exploris 240 Orbitrap Thermo Scientific
Instrument type: LC-ESI-QFT
Ms type: MS2
Ion mode: POSITIVE
Ionization: ESI
Fragmentation mode: HCD
Collision energy: 90 % (nominal)
Resolution: 17500
Column name: XBridge C18 3.5um, 2.1x50mm, Waters
Retention time: 2.945 min
Base peak: 263.0169
Precursor m/z: 263.0171
Precursor type: [M+H]+
m/z	relative intensity	assigned
58.9948	37	C2H3S+
61.0107	25	C2H5S+
62.0184	13	C2H6S+
64.969	17	HO2S+
78.9943	488	CH4O2P+
80.9461	13	HOS2+
93.0005	47	C2H5O2S+
97.0051	12	CH6O3P+
109.0049	510	C2H6O3P+
110.9664	102	CH4O2PS+
112.9996	11	CH6O4P+
124.9821	242	C2H6O2PS+
127.0154	999	C2H8O4P+
128.977	37	CH6O3PS+
141.031	22	C3H10O4P+
142.9926	65	C2H8O3PS+
