Mass spectrum: Iomeprol; LC-ESI-ITFT; MS2; CE: 35%; R=7500; [M+H]+
Name: Iomeprol
Name: 1-N,3-N-bis(2,3-dihydroxypropyl)-5-[(2-hydroxyacetyl)-methylamino]-2,4,6-triiodobenzene-1,3-dicarboxamide
Formula: C17H22I3N3O8
Exact mass: 776.8541
SMILES: Ic1c(c(I)c(c(I)c1N(C)C(=O)CO)C(=O)NCC(O)CO)C(=O)NCC(O)CO
InChI: InChI=1S/C17H22I3N3O8/c1-23(9(29)6-26)15-13(19)10(16(30)21-2-7(27)4-24)12(18)11(14(15)20)17(31)22-3-8(28)5-25/h7-8,24-28H,2-6H2,1H3,(H,21,30)(H,22,31)
Instrument: LTQ Orbitrap XL Thermo Scientific
Instrument type: LC-ESI-ITFT
Ms type: MS2
Ion mode: POSITIVE
Ionization: ESI
Fragmentation mode: CID
Collision energy: 35 % (nominal)
Resolution: 7500
Column name: XBridge C18 3.5um, 2.1x50mm, Waters
Retention time: 1.6 min
Base peak: 132.9578
Precursor m/z: 777.8614
Precursor type: [M+H]+
m/z	relative intensity	assigned
404.9927	6	C13H14IN2O5+
531.8976	53	C13H14I2N2O5+
540.8752	8	C14H11I2N2O5+
558.8853	540	C14H13I2N2O6+
613.9238	1	C12H18I2N5O8+
631.9385	87	C17H20I2N3O7+
632.9221	20	C17H19I2N2O8+
649.9477	27	C17H22I2N3O8+
668.7865	14	C14H12I3N2O5+
686.7981	999	C17H12I3N3O3+
704.808	69	C14H16I3N2O7+
741.8395	8	C17H19I3N3O6+
759.8509	511	C17H21I3N3O7+
760.8375	16	C17H20I3N2O8+
