Mass spectrum: Valganciclovir; LC-ESI-QFT; MS2; CE: 30; R=35000; [M-H]-
Name: Valganciclovir
Name: (2S)-2-amino-3-methyl-butyric acid [2-[(2-amino-6-keto-3H-purin-9-yl)methoxy]-3-hydroxy-propyl] ester
Formula: C14H22N6O5
Exact mass: 354.16517
SMILES: O=C(OCC(OCn1c2N\C(=N/C(=O)c2nc1)N)CO)[C@@H](N)C(C)C
InChI: InChI=1S/C14H22N6O5/c1-7(2)9(15)13(23)24-4-8(3-21)25-6-20-5-17-10-11(20)18-14(16)19-12(10)22/h5,7-9,21H,3-4,6,15H2,1-2H3,(H3,16,18,19,22)/t8?,9-/m0/s1
Instrument: Q Exactive Orbitrap Thermo Scientific
Instrument type: LC-ESI-QFT
Ms type: MS2
Ion mode: NEGATIVE
Ionization: ESI
Fragmentation mode: HCD
Collision energy: 30 (nominal)
Resolution: 35000
Column name: XBridge C18 3.5um, 2.1x50mm, Waters
Retention time: 1.2 min
Base peak: 353.158
Precursor m/z: 353.1579
Precursor type: [M-H]-
m/z	relative intensity	assigned
65.0145	1	C3HN2-
66.0098	5	C2N3-
82.0411	1	C3H4N3-
92.0253	2	C4H2N3-
107.0363	22	C4H3N4-
108.0203	4	C4H2N3O-
116.0718	999	C5H10NO2-
119.0362	17	C5H3N4-
120.0201	1	C5H2N3O-
120.0566	1	C6H6N3-
126.0309	24	C4H4N3O2-
133.0156	96	C5HN4O-
134.036	34	C6H4N3O-
135.0313	1	C5H3N4O-
150.0421	691	C5H4N5O-
151.026	8	C5H3N4O2-
162.0421	164	C6H4N5O-
163.0626	1	C7H7N4O-
164.0574	1	C6H6N5O-
176.0576	92	C7H6N5O-
188.0577	20	C8H6N5O-
206.0682	310	C8H8N5O2-
236.0788	521	C9H10N5O3-
254.0894	82	C9H12N5O4-
353.1577	107	C14H21N6O5-
