Mass spectrum: Flufenacet; LC-ESI-ITFT; MS2; CE: 75%; R=7500; [M+H]+
Name: Flufenacet
Name: N-(4-fluorophenyl)-N-isopropyl-2-[[5-(trifluoromethyl)-1,3,4-thiadiazol-2-yl]oxy]acetamide
Formula: C14H13F4N3O2S
Exact mass: 363.0670
SMILES: O=C(COc1nnc(s1)C(F)(F)F)N(c2ccc(F)cc2)C(C)C
InChI: InChI=1S/C14H13F4N3O2S/c1-8(2)21(10-5-3-9(15)4-6-10)11(22)7-23-13-20-19-12(24-13)14(16,17)18/h3-6,8H,7H2,1-2H3
Instrument: LTQ Orbitrap XL Thermo Scientific
Instrument type: LC-ESI-ITFT
Ms type: MS2
Ion mode: POSITIVE
Ionization: ESI
Fragmentation mode: HCD
Collision energy: 75 % (nominal)
Resolution: 7500
Column name: XBridge C18 3.5um, 2.1x50mm, Waters
Retention time: 11.7 min
Base peak: 386.0556
Precursor m/z: 364.0737
Precursor type: [M+H]+
m/z	relative intensity	assigned
83.0289	5	F2H3N3+
96.0372	7	C6H5F+
97.0447	227	CH5F2N3+
104.0495	23	C7H6N+
105.0447	4	C6H5N2+
109.0447	276	C7H6F+
110.04	17	C3H10O2S+
111.0478	2	C6H6FN+
112.0557	9	C6H7FN+
115.054	7	C4H6FN3+
123.024	67	C7H4FO+
123.0357	9	C6H4FN2+
124.0556	999	C7H7FN+
125.0398	11	C7H6FO+
132.0439	10	C8H6NO+
133.0445	4	C9H6F+
134.0398	21	C8H5FN+
135.0607	6	C9H8F+
136.0555	5	C8H7FN+
137.0635	12	C8H8FN+
151.0423	4	C8H6FNO+
152.0505	234	C8H7FNO+
152.0869	101	C9H11FN+
