Mass spectrum: Mefentrifluconazole; LC-ESI-QFT; MS2; CE: 180%; R=17500; [M+H]+
Name: Mefentrifluconazole
Name: 2-[4-(4-chlorophenoxy)-2-(trifluoromethyl)phenyl]-1-(1,2,4-triazol-1-yl)propan-2-ol
Formula: C18H15ClF3N3O2
Exact mass: 397.0805
SMILES: CC(CN1C=NC=N1)(C2=C(C=C(C=C2)OC3=CC=C(C=C3)Cl)C(F)(F)F)O
InChI: InChI=1S/C18H15ClF3N3O2/c1-17(26,9-25-11-23-10-24-25)15-7-6-14(8-16(15)18(20,21)22)27-13-4-2-12(19)3-5-13/h2-8,10-11,26H,9H2,1H3
Instrument: Exploris 240 Orbitrap Thermo Scientific
Instrument type: LC-ESI-QFT
Ms type: MS2
Ion mode: POSITIVE
Ionization: ESI
Fragmentation mode: HCD
Collision energy: 180 % (nominal)
Resolution: 17500
Column name: XBridge C18 3.5um, 2.1x50mm, Waters
Retention time: 11.563 min
Base peak: 398.0878
Precursor m/z: 398.0878
Precursor type: [M+H]+
m/z	relative intensity	assigned
70.04	999	C2H4N3+
72.984	30	C3H2Cl+
75.0229	53	C6H3+
89.0385	44	C2H4FN3+
93.0135	14	C6H2F+
99.023	70	C8H3+
107.0291	15	C7H4F+
115.0544	41	C9H7+
133.0446	77	C9H6F+
147.0354	21	C8H4FN2+
