Mass spectrum: Clarithromycin N-Oxide; LC-ESI-QFT; MS2; CE: 60; R=35000; [M+H]+
Name: Clarithromycin N-Oxide
Name: (2S,3R,4S,6R)-2-[[(3R,4S,5S,6R,7R,9R,11R,12R,13S,14R)-14-ethyl-12,13-dihydroxy-4-[(2R,4R,5S,6S)-5-hydroxy-4-methoxy-4,6-dimethyloxan-2-yl]oxy-7-methoxy-3,5,7,9,11,13-hexamethyl-2,10-dioxo-oxacyclotetradec-6-yl]oxy]-3-hydroxy-N,N,6-trimethyloxan-4-amine oxide
Formula: C38H69NO14
Exact mass: 763.47181
SMILES: [O-][N+](C)(C)[C@H]3C[C@@H](C)O[C@@H](O[C@@H]2[C@@H](C)[C@H](O[C@H]1C[C@@](C)(OC)[C@@H](O)[C@H](C)O1)[C@@H](C)C(=O)O[C@H](CC)[C@@](C)(O)[C@H](O)[C@@H](C)C(=O)[C@H](C)C[C@@]2(C)OC)[C@@H]3O
InChI: InChI=1S/C38H69NO14/c1-15-26-38(10,45)31(42)21(4)28(40)19(2)17-37(9,48-14)33(53-35-29(41)25(39(11,12)46)16-20(3)49-35)22(5)30(23(6)34(44)51-26)52-27-18-36(8,47-13)32(43)24(7)50-27/h19-27,29-33,35,41-43,45H,15-18H2,1-14H3/t19-,20-,21+,22+,23-,24+,25+,26-,27+,29-,30+,31-,32+,33-,35+,36-,37-,38-/m1/s1
Instrument: Q Exactive Plus Orbitrap Thermo Scientific
Instrument type: LC-ESI-QFT
Ms type: MS2
Ion mode: POSITIVE
Ionization: ESI
Fragmentation mode: HCD
Collision energy: 60 (nominal)
Resolution: 35000
Column name: XBridge C18 3.5um, 2.1x50mm, Waters
Retention time: 9.7 min
Base peak: 764.4783
Precursor m/z: 764.4791
Precursor type: [M+H]+
m/z	relative intensity	assigned
55.0178	6	C3H3O+
55.0542	71	C4H7+
56.0495	7	C3H6N+
57.0335	60	C3H5O+
57.0699	34	C4H9+
58.0651	23	C3H8N+
59.0491	11	C3H7O+
60.0444	8	C2H6NO+
62.06	14	C2H8NO+
65.0386	16	C5H5+
67.0542	186	C5H7+
67.9893	1	C3O2+
68.0494	2	C4H6N+
69.0335	46	C4H5O+
69.0699	166	C5H9+
70.0651	62	C4H8N+
71.0491	16	C4H7O+
71.073	8	C4H9N+
71.0855	3	C5H11+
72.0443	13	C3H6NO+
72.0807	25	C4H10N+
73.0284	2	C3H5O2+
73.0522	2	C3H7NO+
73.0647	10	C4H9O+
74.06	3	C3H8NO+
77.0383	4	C6H5+
79.0542	35	C6H7+
81.0699	74	C6H9+
82.0652	5	C5H8N+
83.0491	374	C5H7O+
84.0808	64	C5H10N+
85.0284	37	C4H5O2+
85.0648	41	C5H9O+
86.06	28	C4H8NO+
87.0441	6	C4H7O2+
87.0679	3	C4H9NO+
87.0805	2	C5H11O+
88.0757	20	C4H10NO+
91.0542	27	C7H7+
93.0699	47	C7H9+
95.0491	97	C6H7O+
95.0855	88	C7H11+
97.0284	7	C5H5O2+
97.0648	120	C6H9O+
98.0601	2	C5H8NO+
98.0964	28	C6H12N+
99.0441	2	C5H7O2+
99.0804	12	C6H11O+
99.1041	2	C6H13N+
100.0757	3	C5H10NO+
100.112	29	C6H14N+
101.0234	3	C4H5O3+
101.0597	5	C5H9O2+
102.0913	5	C5H12NO+
103.0542	3	C8H7+
105.0699	55	C8H9+
106.0777	2	C8H10+
107.0855	79	C8H11+
108.0569	1	C7H8O+
109.0648	145	C7H9O+
109.1012	147	C8H13+
110.0964	1	C7H12N+
111.044	17	C6H7O2+
111.0804	23	C7H11O+
111.1169	2	C8H15+
113.0597	117	C6H9O2+
113.0961	13	C7H13O+
114.0914	22	C6H12NO+
115.0754	8	C6H11O2+
116.0706	7	C5H10NO2+
116.1069	5	C6H14NO+
117.0698	6	C9H9+
119.0856	88	C9H11+
121.1012	249	C9H13+
122.0727	3	C8H10O+
123.0804	999	C8H11O+
124.0883	2	C8H12O+
125.0597	18	C7H9O2+
125.0961	72	C8H13O+
126.0913	1	C7H12NO+
127.0753	19	C7H11O2+
127.1117	8	C8H15O+
128.107	26	C7H14NO+
129.0547	1	C6H9O3+
129.0698	3	C10H9+
129.091	1	C7H13O2+
129.1147	2	C7H15NO+
131.0855	13	C10H11+
132.0655	27	C5H10NO3+
133.0759	5	C8H9N2+
133.1011	24	C10H13+
135.0804	20	C9H11O+
135.1167	24	C10H15+
136.0883	4	C9H12O+
137.0961	187	C9H13O+
139.0753	10	C8H11O2+
139.1117	14	C9H15O+
140.107	5	C8H14NO+
141.0545	3	C7H9O3+
141.091	3	C8H13O2+
142.0777	3	C11H10+
143.0703	2	C7H11O3+
143.0857	3	C11H11+
144.0934	6	C11H12+
145.1011	20	C11H13+
147.0804	14	C10H11O+
147.1168	49	C11H15+
149.0961	14	C10H13O+
149.1325	35	C11H17+
150.1041	1	C10H14O+
151.0754	37	C9H11O2+
151.1118	28	C10H15O+
152.0831	1	C9H12O2+
153.091	19	C9H13O2+
153.1274	3	C10H17O+
155.1066	6	C9H15O2+
156.0933	2	C12H12+
156.102	3	C8H14NO2+
157.1012	16	C12H13+
158.1091	4	C12H14+
158.1174	2	C8H16NO2+
159.1168	39	C12H15+
160.0881	3	C11H12O+
161.0961	8	C11H13O+
161.1324	8	C12H17+
163.0753	4	C10H11O2+
163.1117	39	C11H15O+
163.1481	2	C12H19+
164.1196	6	C11H16O+
165.091	33	C10H13O2+
165.1274	27	C11H17O+
167.1069	1	C10H15O2+
167.1427	3	C11H19O+
169.0858	2	C9H13O3+
169.1012	2	C13H13+
170.1092	4	C13H14+
171.1015	1	C9H15O3+
171.1167	6	C13H15+
172.1247	7	C13H16+
173.096	3	C12H13O+
173.1326	12	C13H17+
174.1042	2	C12H14O+
174.1124	9	C8H16NO3+
175.1118	36	C12H15O+
175.148	2	C13H19+
176.1194	2	C12H16O+
177.1274	29	C12H17O+
179.1068	6	C11H15O2+
179.1428	1	C12H19O+
181.0858	4	C10H13O3+
181.1222	4	C11H17O2+
183.1017	3	C10H15O3+
183.1166	1	C14H15+
185.1324	6	C14H17+
187.1119	2	C13H15O+
187.1481	17	C14H19+
188.1197	1	C13H16O+
189.1273	5	C13H17O+
191.1068	3	C12H15O2+
191.1428	2	C13H19O+
193.1224	21	C12H17O2+
195.1379	5	C12H19O2+
197.1325	2	C15H17+
199.1484	1	C15H19+
200.1194	2	C14H16O+
201.1275	3	C14H17O+
201.1638	2	C15H21+
203.1065	4	C13H15O2+
203.1429	5	C14H19O+
205.159	7	C14H21O+
210.1404	2	C16H18+
211.1328	2	C12H19O3+
213.1273	1	C15H17O+
215.1431	4	C15H19O+
221.1169	2	C13H17O3+
221.1537	2	C14H21O2+
225.1636	2	C17H21+
229.1587	2	C16H21O+
231.1379	1	C15H19O2+
233.1531	4	C15H21O2+
249.1485	1	C15H21O3+
251.164	1	C15H23O3+
