Mass spectrum: Uniconazole; LC-ESI-QFT; MS2; CE: 120; R=35000; [M+H]+
Name: Uniconazole
Name: 1-(4-chlorophenyl)-4,4-dimethyl-2-(1,2,4-triazol-1-yl)pent-1-en-3-ol
Formula: C15H18ClN3O
Exact mass: 291.11384
SMILES: CC(C)(C)C(C(=CC1=CC=C(C=C1)Cl)N2C=NC=N2)O
InChI: InChI=1S/C15H18ClN3O/c1-15(2,3)14(20)13(19-10-17-9-18-19)8-11-4-6-12(16)7-5-11/h4-10,14,20H,1-3H3
Instrument: Q Exactive Plus Orbitrap Thermo Scientific
Instrument type: LC-ESI-QFT
Ms type: MS2
Ion mode: POSITIVE
Ionization: ESI
Fragmentation mode: HCD
Collision energy: 120 (nominal)
Resolution: 35000
Column name: XBridge C18 3.5um, 2.1x50mm, Waters
Retention time: 11.8 min
Base peak: 292.1207
Precursor m/z: 292.1211
Precursor type: [M+H]+
m/z	relative intensity	assigned
51.0229	1	C4H3+
53.0022	3	C3HO+
53.0386	4	C4H5+
57.0699	4	C4H9+
59.0491	2	C3H7O+
63.0229	7	C5H3+
65.0385	4	C5H5+
69.0699	4	C5H9+
70.04	999	C2H4N3+
72.9839	4	C3H2Cl+
74.0151	1	C6H2+
74.9996	1	C3H4Cl+
75.0229	26	C6H3+
77.0385	6	C6H5+
78.0463	2	C6H6+
86.9996	2	C4H4Cl+
89.0386	50	C7H5+
90.0465	15	C7H6+
91.0543	8	C7H7+
95.0492	11	C6H7O+
98.9996	24	C5H4Cl+
101.0386	2	C8H5+
102.0464	14	C8H6+
103.0542	14	C8H7+
104.0621	1	C8H8+
105.0448	7	C6H5N2+
110.9997	4	C6H4Cl+
114.0464	2	C9H6+
115.0543	35	C9H7+
116.0621	5	C9H8+
119.0492	1	C8H7O+
125.0153	58	C7H6Cl+
126.0466	1	C10H6+
127.0542	4	C10H7+
128.0496	1	C9H6N+
128.0621	29	C10H8+
129.0101	7	C6H6ClO+
129.0447	5	C8H5N2+
129.0574	1	C9H7N+
129.0699	9	C10H9+
130.0778	1	C10H10+
131.0491	5	C9H7O+
132.0571	1	C9H8O+
136.0076	1	C8H5Cl+
137.0155	1	C8H6Cl+
139.0057	18	C6H4ClN2+
139.0544	2	C11H7+
140.0498	1	C10H6N+
140.0622	1	C11H8+
141.0699	23	C11H9+
142.0779	1	C11H10+
145.0648	4	C10H9O+
149.0153	6	C9H6Cl+
152.062	4	C12H8+
153.0699	14	C12H9+
154.0777	5	C12H10+
155.0604	9	C10H7N2+
155.0855	10	C12H11+
175.0311	2	C11H8Cl+
