Mass spectrum: Tritosulfuron; LC-ESI-ITFT; MS2; CE: 75%; R=7500; [M+H]+
Name: Tritosulfuron
Name: N-{[4-methoxy-6-(trifluoromethyl)-1,3,5-triazin-2-yl]carbamoyl}-2-(trifluoromethyl)benzenesulfonamide
Formula: C13H9F6N5O4S
Exact mass: 445.0279
SMILES: c1c(S(=O)(=O)NC(Nc2nc(nc(n2)C(F)(F)F)OC)=O)c(C(F)(F)F)ccc1
InChI: InChI=1S/C13H9F6N5O4S/c1-28-11-21-8(13(17,18)19)20-9(23-11)22-10(25)24-29(26,27)7-5-3-2-4-6(7)12(14,15)16/h2-5H,1H3,(H2,20,21,22,23,24,25)
Instrument: LTQ Orbitrap XL Thermo Scientific
Instrument type: LC-ESI-ITFT
Ms type: MS2
Ion mode: POSITIVE
Ionization: ESI
Fragmentation mode: HCD
Collision energy: 75 % (nominal)
Resolution: 7500
Column name: XBridge C18 3.5um, 2.1x50mm, Waters
Retention time: 10.8 min
Base peak: 446.0345
Precursor m/z: 446.0352
Precursor type: [M+H]+
m/z	relative intensity	assigned
68.9946	20	CF3+
69.0084	36	C2HN2O+
75.9993	4	C2F2N+
83.024	41	C3H3N2O+
91.0102	11	C2HF2N2+
91.9942	23	C2F2NO+
95.0293	6	C6H4F+
110.0212	684	C3H3F3N+
123.0352	36	C6H4FN2+
125.0197	16	C7H3F2+
127.0478	118	C3H6F3N2+
130.04	79	C4H6F4+
133.021	8	C4H3F2N2O+
138.0275	11	C8H4F2+
140.0308	12	C7H4F2N+
144.0004	18	C4F2N3O+
145.0259	999	C7H4F3+
148.0191	7	C3H2F2N4O+
148.0312	11	CH9FN2O3S+
168.0255	46	C8H4F2NO+
175.0416	3	C2H10FN3O3S+
193.0529	5	C5H7F2N4O2+
195.049	47	C10H7F2NO+
196.0754	2	C8H9FN4O+
221.0282	23	C11H5F2NO2+
