Mass spectrum: 10phiC10SPC; LC-ESI-QFT; MS2; CE: 45; R=35000; [M-H]-
Name: 10phiC10SPC
Name: Decacarboxy sulfophenyl carboxylic acid
Name: 10-(4-sulfophenyl)octanoic acid
Formula: C16H24O5S
Exact mass: 328.13444
SMILES: OS(=O)(=O)c1ccc(CCCCCCCCCC(=O)O)cc1
InChI: InChI=1S/C16H24O5S/c17-16(18)9-7-5-3-1-2-4-6-8-14-10-12-15(13-11-14)22(19,20)21/h10-13H,1-9H2,(H,17,18)(H,19,20,21)
Instrument: Q Exactive Plus Orbitrap Thermo Scientific
Instrument type: LC-ESI-QFT
Ms type: MS2
Ion mode: NEGATIVE
Ionization: ESI
Fragmentation mode: HCD
Collision energy: 45 (nominal)
Resolution: 35000
Column name: XBridge C18 3.5um, 2.1x50mm, Waters
Retention time: 10.9 min
Base peak: 327.1268
Precursor m/z: 327.1272
Precursor type: [M-H]-
m/z	relative intensity	assigned
79.9573	20	O3S-
170.0043	124	C7H6O3S-
183.0119	7	C8H7O3S-
184.0197	1	C8H8O3S-
197.0281	1	C9H9O3S-
201.9942	2	C7H6O5S-
245.1547	5	C16H21O2-
263.1663	1	C16H23O3-
283.1374	5	C15H23O3S-
309.1166	63	C16H21O4S-
327.1271	999	C16H23O5S-
