Mass spectrum: Fluroxypyr; LC-ESI-ITFT; MS2; CE: 35%; R=7500; [M-H]-
Name: Fluroxypyr
Name: 2-(4-amino-3,5-dichloro-6-fluoropyridin-2-yl)oxyacetic acid
Formula: C7H5Cl2FN2O3
Exact mass: 253.9667
SMILES: c1(c(c(c(Cl)c(n1)F)N)Cl)OCC(O)=O
InChI: InChI=1S/C7H5Cl2FN2O3/c8-3-5(11)4(9)7(12-6(3)10)15-1-2(13)14/h1H2,(H2,11,12)(H,13,14)
Instrument: LTQ Orbitrap XL Thermo Scientific
Instrument type: LC-ESI-ITFT
Ms type: MS2
Ion mode: NEGATIVE
Ionization: ESI
Fragmentation mode: CID
Collision energy: 35 % (nominal)
Resolution: 7500
Column name: XBridge C18 3.5um, 2.1x50mm, Waters
Retention time: 6.9 min
Base peak: 252.9583
Precursor m/z: 252.9588
Precursor type: [M-H]-
m/z	relative intensity	assigned
172.9925	15	C6H3ClFN2O-
188.9623	5	C6H3Cl2N2O-
194.9535	999	C5H2Cl2FN2O-
216.9821	72	C7H3ClFN2O3-
232.9527	820	C7H3Cl2N2O3-
