Mass spectrum: Citalopram; LC-ESI-ITFT; MS2; CE: 75%; R=15000; [M+H]+
Name: Citalopram
Name: 1-[3-(dimethylamino)propyl]-1-(4-fluorophenyl)-3H-2-benzofuran-5-carbonitrile
Formula: C20H21FN2O
Exact mass: 324.1638
SMILES: Fc1ccc(cc1)C3(OCc2cc(C#N)ccc23)CCCN(C)C
InChI: InChI=1S/C20H21FN2O/c1-23(2)11-3-10-20(17-5-7-18(21)8-6-17)19-9-4-15(13-22)12-16(19)14-24-20/h4-9,12H,3,10-11,14H2,1-2H3
Instrument: LTQ Orbitrap XL Thermo Scientific
Instrument type: LC-ESI-ITFT
Ms type: MS2
Ion mode: POSITIVE
Ionization: ESI
Fragmentation mode: HCD
Collision energy: 75 % (nominal)
Resolution: 15000
Column name: XBridge C18 3.5um, 2.1x50mm, Waters
Retention time: 6.6 min
Base peak: 325.1719
Precursor m/z: 325.1711
Precursor type: [M+H]+
m/z	relative intensity	assigned
58.0651	53	C3H8N+
72.0806	8	C4H10N+
83.0291	9	C5H4F+
84.0808	9	C5H10N+
89.0384	11	C7H5+
103.0541	5	C8H7+
109.0448	999	C7H6F+
115.0543	7	C9H7+
116.0494	191	C8H6N+
121.0447	20	C8H6F+
123.024	10	C7H4FO+
123.0605	8	C8H8F+
129.0443	4	C8H5N2+
129.0697	31	C10H9+
130.0653	7	C9H8N+
133.0448	12	C9H6F+
139.0539	8	C11H7+
140.0493	67	C10H6N+
141.0571	4	C10H7N+
142.0647	13	C10H8N+
146.0526	5	C10H7F+
153.0573	4	C11H7N+
154.0653	16	C11H8N+
155.06	8	C10H7N2+
156.0807	21	C11H10N+
159.0603	8	C11H8F+
166.065	124	C12H8N+
190.0647	21	C14H8N+
195.0601	4	C14H8F+
196.0691	6	C14H9F+
202.0652	5	C15H8N+
202.0774	7	C16H10+
203.0723	9	C15H9N+
207.0601	18	C15H8F+
208.0555	16	C14H7FN+
209.0754	5	C15H10F+
214.0648	10	C16H8N+
215.0853	42	C17H11+
216.0803	7	C16H10N+
218.06	31	C15H8NO+
220.0553	20	C15H7FN+
220.068	58	C16H9F+
221.0634	131	C15H8FN+
222.0712	47	C15H9FN+
227.0728	137	C17H9N+
228.0804	8	C17H10N+
232.0559	4	C16H7FN+
233.0628	6	C16H8FN+
233.0759	22	C17H10F+
234.0712	221	C16H9FN+
235.0791	30	C16H10FN+
237.0584	8	C15H8FNO+
238.0663	16	C15H9FNO+
240.0807	36	C18H10N+
241.0885	30	C18H11N+
242.0963	19	C18H12N+
244.0687	8	C18H9F+
245.0636	9	C17H8FN+
245.0759	6	C18H10F+
246.0711	171	C17H9FN+
247.079	238	C17H10FN+
250.1027	15	C17H13FN+
259.0797	4	C18H10FN+
260.0865	20	C18H11FN+
261.0948	28	C18H12FN+
262.1021	43	C18H13FN+
