Mass spectrum: Terbinafine; LC-ESI-QFT; MS2; CE: 30; R=35000; [M+H]+
Name: Terbinafine
Name: Terbinex
Name: N,6,6-trimethyl-N-(naphthalen-1-ylmethyl)hept-2-en-4-yn-1-amine
Formula: C21H25N
Exact mass: 291.19870
SMILES: CC(C)(C)C#CC=CCN(C)CC1=CC=CC2=CC=CC=C21
InChI: InChI=1S/C21H25N/c1-21(2,3)15-8-5-9-16-22(4)17-19-13-10-12-18-11-6-7-14-20(18)19/h5-7,9-14H,16-17H2,1-4H3
Instrument: Q Exactive Plus Orbitrap Thermo Scientific
Instrument type: LC-ESI-QFT
Ms type: MS2
Ion mode: POSITIVE
Ionization: ESI
Fragmentation mode: HCD
Collision energy: 30 (nominal)
Resolution: 35000
Column name: XBridge C18 3.5um, 2.1x50mm, Waters
Retention time: 8.8 min
Base peak: 292.2054
Precursor m/z: 292.206
Precursor type: [M+H]+
m/z	relative intensity	assigned
55.0543	1	C4H7+
57.0699	7	C4H9+
63.0228	1	C5H3+
70.0651	1	C4H8N+
77.0385	1	C6H5+
79.0542	14	C6H7+
83.0855	1	C6H11+
91.0542	11	C7H7+
93.0699	127	C7H9+
95.0492	1	C6H7O+
105.0448	1	C6H5N2+
105.0699	17	C8H9+
106.0778	1	C8H10+
115.0539	1	C9H7+
119.0856	4	C9H11+
121.1012	16	C9H13+
123.0803	3	C8H11O+
133.0761	3	C8H9N2+
139.0541	1	C11H7+
140.0618	1	C11H8+
141.0698	999	C11H9+
150.1277	15	C10H16N+
165.0698	2	C13H9+
170.0964	25	C12H12N+
179.0854	4	C14H11+
191.0854	2	C15H11+
193.1008	2	C15H13+
203.0856	1	C16H11+
205.1012	13	C16H13+
207.117	1	C16H15+
219.1168	2	C17H15+
236.1433	3	C17H18N+
249.1641	1	C19H21+
261.164	6	C20H21+
292.206	51	C21H26N+
