Mass spectrum: Normianserin; LC-ESI-QFT; MS2; CE: 75; R=35000; [M+H]+
Name: Normianserin
Name: N-desmethylmianserin
Name: 1,2,3,4,10,14b-Hexahydrodibenzo[c,f]pyrazino[1,2-a]azepine
Formula: C17H18N2
Exact mass: 250.14700
SMILES: C3c1ccccc1C2CNCCN2c4ccccc34
InChI: InChI=1S/C17H18N2/c1-3-7-15-13(5-1)11-14-6-2-4-8-16(14)19-10-9-18-12-17(15)19/h1-8,17-18H,9-12H2
Instrument: Q Exactive Plus Orbitrap Thermo Scientific
Instrument type: LC-ESI-QFT
Ms type: MS2
Ion mode: POSITIVE
Ionization: ESI
Fragmentation mode: HCD
Collision energy: 75 (nominal)
Resolution: 35000
Column name: XBridge C18 3.5um, 2.1x50mm, Waters
Retention time: 6.7 min
Base peak: 251.1539
Precursor m/z: 251.1543
Precursor type: [M+H]+
m/z	relative intensity	assigned
50.0149	4	C4H2+
51.0228	6	C4H3+
53.0386	19	C4H5+
54.0338	2	C3H4N+
56.0494	64	C3H6N+
58.0651	11	C3H8N+
63.0226	1	C5H3+
65.0385	34	C5H5+
67.0542	1	C5H7+
68.0494	2	C4H6N+
71.0603	53	C3H7N2+
77.0384	38	C6H5+
78.0463	12	C6H6+
79.0541	71	C6H7+
80.0494	12	C5H6N+
83.0602	6	C4H7N2+
84.0681	6	C4H8N2+
89.0385	2	C7H5+
90.0463	2	C7H6+
91.0542	742	C7H7+
92.0494	81	C6H6N+
93.0573	61	C6H7N+
93.0699	54	C7H9+
94.041	1	C6H6O+
94.0651	19	C6H8N+
95.0491	60	C6H7O+
102.0463	1	C8H6+
103.0542	200	C8H7+
104.0494	19	C7H6N+
104.0619	1	C8H8+
105.0447	24	C6H5N2+
105.0698	237	C8H9+
106.0651	140	C7H8N+
107.0728	8	C7H9N+
109.0646	7	C7H9O+
110.0601	4	C6H8NO+
115.0542	304	C9H7+
116.0494	36	C8H6N+
116.062	64	C9H8+
117.0572	142	C8H7N+
117.0698	158	C9H9+
118.065	999	C8H8N+
119.0604	11	C7H7N2+
119.0729	48	C8H9N+
119.0855	13	C9H11+
120.0807	715	C8H10N+
127.0541	1	C10H7+
128.0493	6	C9H6N+
128.062	33	C10H8+
129.0698	108	C10H9+
130.0651	334	C9H8N+
131.0604	7	C8H7N2+
131.0729	42	C9H9N+
131.0855	15	C10H11+
132.0807	516	C9H10N+
133.0759	1	C8H9N2+
133.0886	1	C9H11N+
134.06	5	C8H8NO+
134.0964	14	C9H12N+
141.0697	14	C11H9+
142.065	7	C10H8N+
143.0728	68	C10H9N+
144.0807	112	C10H10N+
145.0647	5	C10H9O+
145.0759	18	C9H9N2+
145.0886	13	C10H11N+
146.0599	3	C9H8NO+
146.0963	58	C10H12N+
147.0916	250	C9H11N2+
152.0615	1	C12H8+
153.0696	2	C12H9+
155.0602	7	C10H7N2+
156.0807	11	C11H10N+
157.0884	7	C11H11N+
158.0964	55	C11H12N+
159.0915	15	C10H11N2+
160.0994	16	C10H12N2+
165.0696	22	C13H9+
166.0776	50	C13H10+
167.0728	7	C12H9N+
167.0853	13	C13H11+
168.0806	1	C12H10N+
177.0694	2	C14H9+
178.0776	90	C14H10+
179.0854	83	C14H11+
180.0807	17	C13H10N+
180.0933	1	C14H12+
181.0884	7	C13H11N+
181.101	60	C14H13+
190.0775	4	C15H10+
191.0723	1	C14H9N+
191.0855	19	C15H11+
192.0804	13	C14H10N+
192.0931	7	C15H12+
193.0885	612	C14H11N+
194.0964	54	C14H12N+
196.1119	20	C14H14N+
202.0779	8	C16H10+
203.0853	5	C16H11+
204.0808	69	C15H10N+
205.0884	24	C15H11N+
206.0964	91	C15H12N+
207.1042	69	C15H13N+
208.112	666	C15H14N+
210.1273	1	C15H16N+
217.0888	19	C16H11N+
218.0964	83	C16H12N+
219.1041	30	C16H13N+
220.112	26	C16H14N+
221.1074	15	C15H13N2+
222.1275	18	C16H16N+
223.1226	1	C15H15N2+
230.0971	1	C17H12N+
232.1117	16	C17H14N+
233.1074	2	C16H13N2+
233.1188	1	C17H15N+
234.1156	2	C16H14N2+
234.1273	18	C17H16N+
235.1229	4	C16H15N2+
249.1386	27	C17H17N2+
251.1539	8	C17H19N2+
