Mass spectrum: Triclocarban; LC-ESI-ITFT; MS2; CE: 30%; R=7500; [M+H]+
Name: Triclocarban
Name: 1-(4-chlorophenyl)-3-(3,4-dichlorophenyl)urea
Formula: C13H9Cl3N2O
Exact mass: 313.9780
SMILES: Clc2ccc(NC(=O)Nc1ccc(Cl)cc1)cc2Cl
InChI: InChI=1S/C13H9Cl3N2O/c14-8-1-3-9(4-2-8)17-13(19)18-10-5-6-11(15)12(16)7-10/h1-7H,(H2,17,18,19)
Instrument: LTQ Orbitrap XL Thermo Scientific
Instrument type: LC-ESI-ITFT
Ms type: MS2
Ion mode: POSITIVE
Ionization: ESI
Fragmentation mode: HCD
Collision energy: 30 % (nominal)
Resolution: 7500
Column name: XBridge C18 3.5um, 2.1x50mm, Waters
Retention time: 14.8 min
Base peak: 314.9854
Precursor m/z: 314.9853
Precursor type: [M+H]+
m/z	relative intensity	assigned
93.0571	17	C6H7N+
126.0104	26	C6H5ClN+
127.0183	73	C6H6ClN+
128.0261	542	C6H7ClN+
154.0054	50	C7H5ClNO+
159.9714	10	C6H4Cl2N+
161.9871	621	C6H6Cl2N+
187.9662	29	C7H4Cl2NO+
314.9852	999	C13H10Cl3N2O+
