Mass spectrum: Fonofos; LC-ESI-QFT; MS2; CE: 90; R=35000; [M+H]+
Name: Fonofos
Name: ethoxy-ethyl-(phenylthio)-sulfanylidenephosphorane
Formula: C10H15OPS2
Exact mass: 246.03019
SMILES: S=P(Sc1ccccc1)(OCC)CC
InChI: InChI=1S/C10H15OPS2/c1-3-11-12(13,4-2)14-10-8-6-5-7-9-10/h5-9H,3-4H2,1-2H3
Instrument: Q Exactive Orbitrap Thermo Scientific
Instrument type: LC-ESI-QFT
Ms type: MS2
Ion mode: POSITIVE
Ionization: ESI
Fragmentation mode: HCD
Collision energy: 90 (nominal)
Resolution: 35000
Column name: XBridge C18 3.5um, 2.1x50mm, Waters
Retention time: 12.9 min
Base peak: 247.0377
Precursor m/z: 247.0375
Precursor type: [M+H]+
m/z	relative intensity	assigned
62.9453	965	PS+
64.9786	6	H2O2P+
77.0151	6	C2H6OP+
77.0385	6	C6H5+
78.0464	5	C6H6+
80.9558	999	H2OPS+
90.9765	20	C2H4PS+
94.9173	76	PS2+
95.0491	72	C6H7O+
105.0447	16	C6H5N2+
108.9871	458	C2H6OPS+
110.0184	8	C6H6S+
111.0263	39	C6H7S+
126.9977	724	C2H8O2PS+
138.9765	8	C6H4PS+
140.9595	1	C2H6OPS2+
141.0134	2	C3H10O2PS+
145.008	1	C8H4NP+
156.9868	1	C6H6OPS+
170.9485	16	C6H4PS2+
174.9977	7	C6H8O2PS+
