Mass spectrum: Pioglitazone; LC-ESI-QFT; MS2; CE: 75; R=35000; [M-H]-
Name: Pioglitazone
Name: 5-[[4-[2-(5-ethylpyridin-2-yl)ethoxy]phenyl]methyl]-1,3-thiazolidine-2,4-dione
Formula: C19H20N2O3S
Exact mass: 356.11946
SMILES: CCC1=CN=C(C=C1)CCOC2=CC=C(C=C2)CC3C(=O)NC(=O)S3
InChI: InChI=1S/C19H20N2O3S/c1-2-13-3-6-15(20-12-13)9-10-24-16-7-4-14(5-8-16)11-17-18(22)21-19(23)25-17/h3-8,12,17H,2,9-11H2,1H3,(H,21,22,23)
Instrument: Q Exactive Orbitrap Thermo Scientific
Instrument type: LC-ESI-QFT
Ms type: MS2
Ion mode: NEGATIVE
Ionization: ESI
Fragmentation mode: HCD
Collision energy: 75 (nominal)
Resolution: 35000
Column name: XBridge C18 3.5um, 2.1x50mm, Waters
Retention time: 6.0 min
Base peak: 355.1125
Precursor m/z: 355.1122
Precursor type: [M-H]-
m/z	relative intensity	assigned
56.9805	15	C2HS-
71.9676	144	C2OS-
106.0424	27	C7H6O-
114.9733	15	C3HNO2S-
116.0269	21	C8H4O-
117.0347	890	C8H5O-
118.0426	77	C8H6O-
119.0503	361	C8H7O-
121.0296	33	C7H5O2-
145.0295	32	C9H5O2-
147.999	20	C8H4OS-
149.0067	705	C8H5OS-
150.0145	999	C8H6OS-
151.0225	17	C8H7OS-
