Mass spectrum: 4-Acetamidoantipyrine; LC-ESI-ITFT; MS2; CE: 90%; R=7500; [M+H]+
Name: 4-Acetamidoantipyrine
Name: N-(1,5-dimethyl-3-oxidanylidene-2-phenyl-pyrazol-4-yl)ethanamide
Formula: C13H15N3O2
Exact mass: 245.1164
SMILES: CC(=O)NC=2C(=O)N(c1ccccc1)N(C)C=2C
InChI: InChI=1S/C13H15N3O2/c1-9-12(14-10(2)17)13(18)16(15(9)3)11-7-5-4-6-8-11/h4-8H,1-3H3,(H,14,17)
Instrument: LTQ Orbitrap XL Thermo Scientific
Instrument type: LC-ESI-ITFT
Ms type: MS2
Ion mode: POSITIVE
Ionization: ESI
Fragmentation mode: HCD
Collision energy: 90 % (nominal)
Resolution: 7500
Column name: XBridge C18 3.5um, 2.1x50mm, Waters
Retention time: 3.7 min
Base peak: 246.1244
Precursor m/z: 246.1237
Precursor type: [M+H]+
m/z	relative intensity	assigned
53.0386	12	C4H5+
56.0495	260	C3H6N+
58.0651	9	C3H8N+
77.0386	137	C6H5+
83.0605	999	C4H7N2+
92.0495	7	C6H6N+
94.0652	90	C6H8N+
95.0491	15	C6H7O+
104.0495	358	C7H6N+
105.0448	37	C6H5N2+
118.0651	12	C8H8N+
119.0603	6	C7H7N2+
128.0493	11	C9H6N+
130.0652	8	C9H8N+
131.061	8	C8H7N2+
132.0805	12	C9H10N+
144.0677	14	C9H8N2+
144.0805	13	C10H10N+
145.0758	6	C9H9N2+
146.0597	14	C9H8NO+
159.0921	38	C10H11N2+
171.0548	13	C10H7N2O+
172.0629	6	C10H8N2O+
