Mass spectrum: Cycloxydim-TP BH 517-TSO E/Z-isomer; LC-ESI-QFT; MS2; CE: 120%; R=17500; [M-H]-
Name: Cycloxydim-TP BH 517-TSO E/Z-isomer
Name: Cycloxydim sulfoxide
Formula: C17H27NO4S
Exact mass: 341.1661
SMILES: CCC\C(=N/OCC)C1=C(O)CC(CC1=O)C1CCCS(=O)C1
InChI: InChI=1S/C17H27NO4S/c1-3-6-14(18-22-4-2)17-15(19)9-13(10-16(17)20)12-7-5-8-23(21)11-12/h12-13,19H,3-11H2,1-2H3/b18-14+
Instrument: Q Exactive Plus Orbitrap Thermo Scientific
Instrument type: LC-ESI-QFT
Ms type: MS2
Ion mode: NEGATIVE
Ionization: ESI
Fragmentation mode: HCD
Collision energy: 120 % (nominal)
Resolution: 17500
Column name: XBridge C18 3.5um, 2.1x50mm, Waters
Retention time: 7.752 min
Base peak: 340.1587
Precursor m/z: 340.1588
Precursor type: [M-H]-
m/z	relative intensity	assigned
50.0035	13	C3N-
56.9803	3	C2HS-
58.9961	6	C2H3S-
64.0193	12	C4H2N-
65.9986	999	C3NO-
67.019	10	C4H3O-
68.0143	5	C3H2NO-
82.03	11	C4H4NO-
90.0352	10	C6H4N-
93.0349	4	C6H5O-
95.0505	9	C6H7O-
99.0275	10	C5H7S-
105.0221	9	C6H3NO-
120.0091	138	C6H2NO2-
120.0458	4	
131.0376	8	C8H5NO-
133.0174	16	C7H3NO2-
134.0248	207	C7H4NO2-
134.0613	6	
146.0247	5	C8H4NO2-
156.0462	6	C4H12O4S-
160.0409	20	C9H6NO2-
162.0561	32	C9H8NO2-
174.057	12	C10H8NO2-
