Mass spectrum: 3,5-Dibromo-4-hydroxybenzoic acid; LC-ESI-ITFT; MS2; CE: 75%; R=15000; [M-H]-
Name: 3,5-Dibromo-4-hydroxybenzoic acid
Name: 3,5-bis(bromanyl)-4-oxidanyl-benzoic acid
Formula: C7H4Br2O3
Exact mass: 293.8527
SMILES: O=C(O)c1cc(c(O)c(Br)c1)Br
InChI: InChI=1S/C7H4Br2O3/c8-4-1-3(7(11)12)2-5(9)6(4)10/h1-2,10H,(H,11,12)
Instrument: LTQ Orbitrap XL Thermo Scientific
Instrument type: LC-ESI-ITFT
Ms type: MS2
Ion mode: NEGATIVE
Ionization: ESI
Fragmentation mode: HCD
Collision energy: 75 % (nominal)
Resolution: 15000
Column name: XBridge C18 3.5um, 2.1x50mm, Waters
Retention time: 7.3 min
Base peak: 294.8423
Precursor m/z: 292.8454
Precursor type: [M-H]-
m/z	relative intensity	assigned
78.9188	999	Br-
189.8272	46	Br2O2-
248.8552	81	C6H3Br2O-
