Mass spectrum: Cotinine; LC-ESI-QFT; MS2; CE: 45; R=35000; [M+H]+
Name: Cotinine
Name: (5S)-1-methyl-5-pyridin-3-ylpyrrolidin-2-one
Formula: C10H12N2O
Exact mass: 176.09496
SMILES: CN1[C@@H](CCC1=O)c2cccnc2
InChI: InChI=1S/C10H12N2O/c1-12-9(4-5-10(12)13)8-3-2-6-11-7-8/h2-3,6-7,9H,4-5H2,1H3/t9-/m0/s1
Instrument: Q Exactive Plus Orbitrap Thermo Scientific
Instrument type: LC-ESI-QFT
Ms type: MS2
Ion mode: POSITIVE
Ionization: ESI
Fragmentation mode: HCD
Collision energy: 45 (nominal)
Resolution: 35000
Column name: XBridge C18 3.5um, 2.1x50mm, Waters
Retention time: 1.1 min
Base peak: 177.1022
Precursor m/z: 177.1022
Precursor type: [M+H]+
m/z	relative intensity	assigned
70.0651	3	C4H8N+
80.0494	399	C5H6N+
94.0652	1	C6H8N+
98.0601	170	C5H8NO+
106.0651	1	C7H8N+
118.0651	12	C8H8N+
119.073	1	C8H9N+
120.0808	8	C8H10N+
146.0601	54	C9H8NO+
148.0759	1	C9H10NO+
149.071	10	C8H9N2O+
159.0917	4	C10H11N2+
160.0755	1	C10H10NO+
177.1023	999	C10H13N2O+
