Mass spectrum: Oxytetracycline; LC-ESI-QFT; MS2; CE: 90; R=35000; [M+H]+
Name: Oxytetracycline
Name: (4S,4aR,5S,5aR,6S,12aS)-4-(Dimethylamino)-3,5,6,10,12,12a-hexahydroxy-6-methyl-1,11-dioxo-1,4,4a,5,5a,6,11,12a-octahydro-2-tetracenecarboxamide
Name: 2-carbamoyl-4-(dimethylazaniumyl)-5,6,10,11,12a-pentahydroxy-6-methyl-3,12-dioxo-4,4a,5,5a-tetrahydrotetracen-1-olate
Formula: C22H24N2O9
Exact mass: 460.14818
SMILES: CC1(C2C(C3C(C(=O)C(=C(C3(C(=O)C2=C(C4=C1C=CC=C4O)O)O)O)C(=O)N)N(C)C)O)O
InChI: InChI=1S/C22H24N2O9/c1-21(32)7-5-4-6-8(25)9(7)15(26)10-12(21)17(28)13-14(24(2)3)16(27)11(20(23)31)19(30)22(13,33)18(10)29/h4-6,12-14,17,25-26,28,30,32-33H,1-3H3,(H2,23,31)
Instrument: Q Exactive Plus Orbitrap Thermo Scientific
Instrument type: LC-ESI-QFT
Ms type: MS2
Ion mode: POSITIVE
Ionization: ESI
Fragmentation mode: HCD
Collision energy: 90 (nominal)
Resolution: 35000
Column name: XBridge C18 3.5um, 2.1x50mm, Waters
Retention time: 4.3 min
Base peak: 461.1547
Precursor m/z: 461.1555
Precursor type: [M+H]+
m/z	relative intensity	assigned
50.0151	7	C4H2+
51.023	5	C4H3+
53.0022	24	C3HO+
53.0386	23	C4H5+
54.0339	1	C3H4N+
55.0179	125	C3H3O+
55.0416	10	C3H5N+
55.0543	7	C4H7+
56.0495	38	C3H6N+
57.0335	2	C3H5O+
57.0573	2	C3H7N+
58.0652	402	C3H8N+
62.015	1	C5H2+
63.0228	1	C5H3+
65.0386	13	C5H5+
67.0178	13	C4H3O+
67.0417	4	C4H5N+
67.0543	2	C5H7+
68.0495	40	C4H6N+
68.9971	95	C3HO2+
69.0335	18	C4H5O+
70.0651	192	C4H8N+
71.0127	30	C3H3O2+
71.0366	33	C3H5NO+
72.0444	23	C3H6NO+
72.0808	6	C4H10N+
74.0601	6	C3H8NO+
77.0021	3	C5HO+
77.0383	13	C6H5+
79.0179	48	C5H3O+
79.0542	8	C6H7+
80.0495	17	C5H6N+
81.0335	23	C5H5O+
81.0574	3	C5H7N+
82.0652	40	C5H8N+
83.0128	93	C4H3O2+
83.0366	15	C4H5NO+
84.0444	21	C4H6NO+
84.0809	1	C5H10N+
85.0285	2	C4H5O2+
86.0601	67	C4H8NO+
89.0385	2	C7H5+
91.0543	55	C7H7+
92.0257	2	C6H4O+
93.0575	1	C6H7N+
94.0653	10	C6H8N+
95.0128	45	C5H3O2+
95.0492	12	C6H7O+
96.0444	2	C5H6NO+
96.0809	5	C6H10N+
97.0285	18	C5H5O2+
97.0524	5	C5H7NO+
98.0601	375	C5H8NO+
99.0077	5	C4H3O3+
100.0758	5	C5H10NO+
102.0465	2	C8H6+
103.0542	37	C8H7+
105.0337	8	C7H5O+
105.0448	6	C6H5N2+
106.0655	2	C7H8N+
107.0128	25	C6H3O2+
107.0493	10	C7H7O+
108.0445	5	C6H6NO+
109.0285	22	C6H5O2+
110.0601	10	C6H8NO+
111.0078	2	C5H3O3+
113.0383	1	C9H5+
114.0464	1	C9H6+
115.0543	248	C9H7+
116.0621	14	C9H8+
117.0699	169	C9H9+
119.0127	5	C7H3O2+
119.0493	6	C8H7O+
121.0286	12	C7H5O2+
121.0649	1	C8H9O+
122.0603	2	C7H8NO+
123.0077	32	C6H3O3+
124.0395	1	C6H6NO2+
124.0758	3	C7H10NO+
125.0235	15	C6H5O3+
125.0387	1	C10H5+
126.0464	20	C10H6+
126.0551	9	C6H8NO2+
127.0543	764	C10H7+
128.0621	268	C10H8+
129.0699	314	C10H9+
130.0417	2	C9H6O+
130.0779	1	C10H10+
131.0492	31	C9H7O+
131.0855	19	C10H11+
132.0569	2	C9H8O+
133.065	1	C9H9O+
134.0599	1	C8H8NO+
135.0076	9	C7H3O3+
137.0234	32	C7H5O3+
138.0552	2	C7H8NO2+
139.0263	3	C6H5NO3+
139.0542	37	C11H7+
140.0621	13	C11H8+
140.0705	1	C7H10NO2+
141.0699	72	C11H9+
142.0413	2	C10H6O+
142.078	2	C11H10+
143.0493	6	C10H7O+
143.0857	15	C11H11+
144.0571	35	C10H8O+
145.0649	700	C10H9O+
147.0444	2	C9H7O2+
147.0805	11	C10H11O+
151.0026	7	C7H3O4+
151.0542	2	C12H7+
152.0621	123	C12H8+
153.0183	25	C7H5O4+
153.07	99	C12H9+
154.05	3	C7H8NO3+
154.0777	16	C12H10+
155.0496	99	C11H7O+
155.0604	276	C10H7N2+
155.0855	39	C12H11+
156.057	60	C11H8O+
157.0649	149	C11H9O+
158.0365	10	C10H6O2+
158.0727	8	C11H10O+
159.0444	3	C10H7O2+
159.0805	53	C11H11O+
160.0521	25	C10H8O2+
161.0597	9	C10H9O2+
163.0392	9	C9H7O3+
163.054	7	C13H7+
164.0623	10	C13H8+
165.07	210	C13H9+
166.078	18	C13H10+
167.0489	10	C12H7O+
167.0857	24	C13H11+
168.0571	151	C12H8O+
169.0133	7	C7H5O5+
169.0649	79	C12H9O+
169.0764	8	C11H9N2+
170.0363	5	C11H6O2+
170.0728	10	C12H10O+
171.0442	27	C11H7O2+
171.0554	2	C10H7N2O+
171.0805	42	C12H11O+
172.0523	11	C11H8O2+
173.0598	51	C11H9O2+
174.0676	20	C11H10O2+
175.0753	5	C11H11O2+
176.0621	48	C14H8+
177.07	40	C14H9+
178.0778	78	C14H10+
179.0494	2	C13H7O+
179.0606	5	C12H7N2+
179.0856	26	C14H11+
180.0569	21	C13H8O+
181.0649	110	C13H9O+
182.0728	49	C13H10O+
183.0444	10	C12H7O2+
183.0554	37	C11H7N2O+
183.0806	34	C13H11O+
184.052	999	C12H8O2+
185.0598	76	C12H9O2+
186.0312	38	C11H6O3+
186.0675	17	C12H10O2+
187.0391	100	C11H7O3+
187.0755	36	C12H11O2+
188.0472	1	C11H8O3+
189.0546	6	C11H9O3+
189.0699	44	C15H9+
190.078	8	C15H10+
191.0856	2	C15H11+
192.0571	26	C14H8O+
193.065	38	C14H9O+
194.0728	32	C14H10O+
195.0805	47	C14H11O+
196.0521	110	C13H8O2+
197.0599	68	C13H9O2+
198.0676	53	C13H10O2+
199.0391	6	C12H7O3+
199.0752	16	C13H11O2+
200.0467	10	C12H8O3+
201.0547	288	C12H9O3+
202.0778	2	C16H10+
204.0423	8	C11H8O4+
204.0569	2	C15H8O+
205.065	48	C15H9O+
206.073	10	C15H10O+
207.0443	2	C14H7O2+
207.0807	20	C15H11O+
208.052	43	C14H8O2+
209.0599	35	C14H9O2+
210.0678	37	C14H10O2+
211.0389	12	C13H7O3+
211.0755	138	C14H11O2+
212.047	868	C13H8O3+
213.0548	104	C13H9O3+
214.0628	23	C13H10O3+
217.0651	7	C16H9O+
218.0575	1	C12H10O4+
218.0727	10	C16H10O+
219.0808	3	C16H11O+
220.0521	24	C15H8O2+
221.0599	46	C15H9O2+
222.0676	12	C15H10O2+
223.0756	34	C15H11O2+
224.047	31	C14H8O3+
225.0548	19	C14H9O3+
226.0626	76	C14H10O3+
227.0338	32	C13H7O4+
227.0705	31	C14H11O3+
228.0419	9	C13H8O4+
229.0496	6	C13H9O4+
233.0599	18	C16H9O2+
234.0678	8	C16H10O2+
235.0753	24	C16H11O2+
236.0469	47	C15H8O3+
237.0548	73	C15H9O3+
238.0627	25	C15H10O3+
239.0342	11	C14H7O4+
239.0704	21	C15H11O3+
240.0419	154	C14H8O4+
241.05	13	C14H9O4+
242.0575	137	C14H10O4+
247.0747	2	C17H11O2+
248.0466	9	C16H8O3+
249.0545	17	C16H9O3+
250.0632	12	C16H10O3+
251.0705	22	C16H11O3+
252.0417	21	C15H8O4+
253.0495	6	C15H9O4+
254.0575	92	C15H10O4+
255.0289	22	C14H7O5+
255.0652	8	C15H11O4+
256.0372	5	C14H8O5+
257.0447	11	C14H9O5+
258.0524	49	C14H10O5+
261.0541	10	C17H9O3+
262.0621	2	C17H10O3+
263.0701	6	C17H11O3+
264.0415	11	C16H8O4+
265.0496	37	C16H9O4+
266.0573	29	C16H10O4+
267.0288	1	C15H7O5+
268.0367	138	C15H8O5+
270.052	11	C15H10O5+
275.0707	1	C18H11O3+
277.05	5	C17H9O4+
278.058	2	C17H10O4+
279.0653	10	C17H11O4+
280.0372	1	C16H8O5+
281.0443	1	C16H9O5+
283.0596	8	C16H11O5+
289.049	1	C18H9O4+
292.036	4	C17H8O5+
294.0525	16	C17H10O5+
305.0451	2	C18H9O5+
321.0393	6	C18H9O6+
322.0469	7	C18H10O6+
350.043	5	C19H10O7+
