Mass spectrum: Sulfamethazine; LC-ESI-ITFT; MS2; CE: 90%; R=7500; [M+H]+
Name: Sulfamethazine
Name: 4-amino-N-(4,6-dimethylpyrimidin-2-yl)benzenesulfonamide
Name: 4-amino-N-(4,6-dimethyl-2-pyrimidinyl)benzenesulfonamide
Formula: C12H14N4O2S
Exact mass: 278.0837
SMILES: c1(S(Nc2nc(cc(n2)C)C)(=O)=O)ccc(N)cc1
InChI: InChI=1S/C12H14N4O2S/c1-8-7-9(2)15-12(14-8)16-19(17,18)11-5-3-10(13)4-6-11/h3-7H,13H2,1-2H3,(H,14,15,16)
Instrument: LTQ Orbitrap XL Thermo Scientific
Instrument type: LC-ESI-ITFT
Ms type: MS2
Ion mode: POSITIVE
Ionization: ESI
Fragmentation mode: HCD
Collision energy: 90 % (nominal)
Resolution: 7500
Column name: XBridge C18 3.5um, 2.1x50mm, Waters
Retention time: 3.9 min
Base peak: 279.0918
Precursor m/z: 279.091
Precursor type: [M+H]+
m/z	relative intensity	assigned
65.0386	656	C5H5+
68.0496	90	C4H6N+
80.0494	187	C5H6N+
81.0446	23	C4H5N2+
82.0652	60	C5H8N+
92.0494	917	C6H6N+
93.0573	66	C6H7N+
95.0603	120	C5H7N2+
96.068	45	C5H8N2+
107.0603	119	C6H7N2+
108.0443	922	C6H6NO+
110.0602	86	C6H8NO+
123.0788	32	C6H9N3+
124.0869	999	C6H10N3+
125.0709	135	C6H9N2O+
186.0351	39	C8H10O3S+
213.1138	19	C12H13N4+
