Mass spectrum: Alachlor OXA; LC-ESI-ITFT; MS2; CE: 15%; R=15000; [M-H]-
Name: Alachlor OXA
Name: 2-[(2,6-diethylphenyl)-(methoxymethyl)amino]-2-oxidanylidene-ethanoic acid
Formula: C14H19NO4
Exact mass: 265.1314
SMILES: CCc1cccc(CC)c1N(COC)C(=O)C(O)=O
InChI: InChI=1S/C14H19NO4/c1-4-10-7-6-8-11(5-2)12(10)15(9-19-3)13(16)14(17)18/h6-8H,4-5,9H2,1-3H3,(H,17,18)
Instrument: LTQ Orbitrap XL Thermo Scientific
Instrument type: LC-ESI-ITFT
Ms type: MS2
Ion mode: NEGATIVE
Ionization: ESI
Fragmentation mode: HCD
Collision energy: 15 % (nominal)
Resolution: 15000
Column name: XBridge C18 3.5um, 2.1x50mm, Waters
Retention time: 7.4 min
Base peak: 264.1234
Precursor m/z: 264.1241
Precursor type: [M-H]-
m/z	relative intensity	assigned
148.1131	5	C10H14N-
158.0974	9	C11H12N-
160.1132	999	C11H14N-
162.092	13	C10H12NO-
192.1394	6	C12H18NO-
264.1236	22	C14H18NO4-
