Mass spectrum: Forchlorfenuron; LC-ESI-QFT; MS2; CE: 120; R=35000; [M+H]+
Name: Forchlorfenuron
Name: N-(2-chloro-4-pyridyl)-N`-phenylurea
Name: 1-(2-chloropyridin-4-yl)-3-phenylurea
Formula: C12H10ClN3O
Exact mass: 247.05124
SMILES: C1=CC=C(C=C1)NC(=O)NC2=CC(=NC=C2)Cl
InChI: InChI=1S/C12H10ClN3O/c13-11-8-10(6-7-14-11)16-12(17)15-9-4-2-1-3-5-9/h1-8H,(H2,14,15,16,17)
Instrument: Q Exactive Plus Orbitrap Thermo Scientific
Instrument type: LC-ESI-QFT
Ms type: MS2
Ion mode: POSITIVE
Ionization: ESI
Fragmentation mode: HCD
Collision energy: 120 (nominal)
Resolution: 35000
Column name: XBridge C18 3.5um, 2.1x50mm, Waters
Retention time: 8.8 min
Base peak: 248.0579
Precursor m/z: 248.0585
Precursor type: [M+H]+
m/z	relative intensity	assigned
50.0151	6	C4H2+
51.023	7	C4H3+
52.0182	29	C3H2N+
53.0022	25	C3HO+
53.0386	10	C4H5+
53.9975	7	C2NO+
55.0179	4	C3H3O+
56.0495	217	C3H6N+
64.0182	32	C4H2N+
65.0386	17	C5H5+
66.0338	698	C4H4N+
67.029	29	C3H3N2+
67.0416	17	C4H5N+
67.9893	9	C3O2+
68.0494	5	C4H6N+
69.0083	3	C2HN2O+
75.0103	1	C5HN+
76.0181	54	C5H2N+
77.0385	26	C6H5+
81.0447	5	C4H5N2+
82.0287	87	C4H4NO+
84.0444	19	C4H6NO+
91.0291	17	C5H3N2+
92.0132	1	C5H2NO+
92.0368	1	C5H4N2+
92.0495	17	C6H6N+
93.0447	419	C5H5N2+
94.0288	3	C5H4NO+
94.0526	21	C5H6N2+
94.0651	4	C6H8N+
95.0491	37	C6H7O+
97.0396	1	C4H5N2O+
98.0601	10	C5H8NO+
105.0447	20	C6H5N2+
110.0475	3	C5H6N2O+
111.0553	999	C5H7N2O+
111.9948	1	C5H3ClN+
112.0392	11	C5H6NO2+
113.0595	1	C6H9O2+
119.024	49	C6H3N2O+
125.0711	7	C6H9N2O+
126.0423	4	C2H9ClN3O+
129.0214	135	C5H6ClN2+
130.0055	1	C5H5ClNO+
137.0346	81	C3H8ClN3O+
155.0006	7	C6H4ClN2O+
