Mass spectrum: Propranolol; LC-ESI-ITFT; MS2; CE: 75%; R=7500; [M+H]+
Name: Propranolol
Name: 1-(1-naphthalenyloxy)-3-(propan-2-ylamino)-2-propanol
Formula: C16H21NO2
Exact mass: 259.1572
SMILES: CC(C)NCC(COC1=CC=CC2=CC=CC=C21)O
InChI: InChI=1S/C16H21NO2/c1-12(2)17-10-14(18)11-19-16-9-5-7-13-6-3-4-8-15(13)16/h3-9,12,14,17-18H,10-11H2,1-2H3
Instrument: LTQ Orbitrap XL Thermo Scientific
Instrument type: LC-ESI-ITFT
Ms type: MS2
Ion mode: POSITIVE
Ionization: ESI
Fragmentation mode: HCD
Collision energy: 75 % (nominal)
Resolution: 7500
Column name: XBridge C18 3.5um, 2.1x50mm, Waters
Retention time: 6.6 min
Base peak: 260.165
Precursor m/z: 260.1645
Precursor type: [M+H]+
m/z	relative intensity	assigned
56.0494	492	C3H6N+
58.0651	395	C3H8N+
72.0807	393	C4H10N+
74.06	692	C3H8NO+
84.0808	60	C5H10N+
98.0964	189	C6H12N+
100.112	302	C6H14N+
115.0542	149	C9H7+
116.1069	345	C6H14NO+
117.07	57	C9H9+
128.0618	103	C10H8+
129.0698	645	C10H9+
141.0696	104	C11H9+
143.0858	18	C11H11+
144.0571	30	C10H8O+
145.0647	224	C10H9O+
153.0697	279	C12H9+
154.0774	75	C12H10+
155.0602	327	C10H7N2+
155.0855	999	C12H11+
157.0646	541	C11H9O+
165.0696	328	C13H9+
168.0567	100	C12H8O+
183.0801	129	C13H11O+
