Mass spectrum: Dimethenamide ESA; LC-ESI-ITFT; MS2; CE: 90%; R=7500; [M+H]+
Name: Dimethenamide ESA
Name: 2-[(2,4-Dimethyl-3-thienyl)(1-methoxy-2-propanyl)amino]-2-oxoethanesulfonic acid
Formula: C12H19NO5S2
Exact mass: 321.0705
SMILES: S(C=C1C)C(C)=C1N(C(=O)CS(=O)(=O)O)C(COC)C
InChI: InChI=1S/C12H19NO5S2/c1-8-6-19-10(3)12(8)13(9(2)5-18-4)11(14)7-20(15,16)17/h6,9H,5,7H2,1-4H3,(H,15,16,17)
Instrument: LTQ Orbitrap XL Thermo Scientific
Instrument type: LC-ESI-ITFT
Ms type: MS2
Ion mode: POSITIVE
Ionization: ESI
Fragmentation mode: HCD
Collision energy: 90 % (nominal)
Resolution: 7500
Column name: XBridge C18 3.5um, 2.1x50mm, Waters
Retention time: 6.7 min
Base peak: 322.0788
Precursor m/z: 322.0777
Precursor type: [M+H]+
m/z	relative intensity	assigned
58.9951	14	C2H3S+
65.0386	13	C5H5+
67.0543	22	C5H7+
70.995	11	C3H3S+
73.0649	48	C4H9O+
77.0387	19	C6H5+
79.0543	30	C6H7+
80.0496	23	C5H6N+
81.0571	4	C5H7N+
82.0651	17	C5H8N+
83.0492	10	C5H7O+
85.0107	16	C4H5S+
91.0543	54	C7H7+
93.0574	29	C6H7N+
93.0699	35	C7H9+
94.0652	96	C6H8N+
95.073	118	C6H9N+
97.0107	88	C5H5S+
98.0184	11	C5H6S+
99.0264	55	C5H7S+
104.0494	15	C7H6N+
105.0449	7	C6H5N2+
105.0574	34	C7H7N+
105.0698	30	C8H9+
106.0652	29	C7H8N+
107.0731	16	C7H9N+
107.0855	12	C8H11+
108.0808	60	C7H10N+
110.0186	11	C6H6S+
111.0264	424	C6H7S+
112.0216	25	C5H6NS+
112.0342	94	C6H8S+
113.0294	34	C5H7NS+
113.042	40	C6H9S+
114.0372	17	C5H8NS+
115.0545	19	C9H7+
117.0574	16	C8H7N+
117.0699	36	C9H9+
118.0652	96	C8H8N+
119.073	216	C8H9N+
120.0808	91	C8H10N+
121.0889	11	C8H11N+
122.0966	31	C8H12N+
123.0265	18	C7H7S+
124.0216	50	C6H6NS+
124.0343	27	C7H8S+
124.0755	7	C7H10NO+
125.0295	134	C6H7NS+
125.0421	231	C7H9S+
126.0373	707	C6H8NS+
127.0213	24	C6H7OS+
127.0451	68	C6H9NS+
128.053	59	C6H10NS+
132.0808	74	C9H10N+
133.0886	126	C9H11N+
134.0965	407	C9H12N+
135.0264	115	C8H7S+
135.1043	31	C9H13N+
136.0214	18	C7H6NS+
136.0346	6	C8H8S+
137.0295	82	C7H7NS+
137.0426	11	C8H9S+
138.0373	416	C7H8NS+
139.0451	27	C7H9NS+
139.0576	12	C8H11S+
140.0529	46	C7H10NS+
148.0209	6	C8H6NS+
148.1122	14	C10H14N+
149.042	105	C9H9S+
150.0373	168	C8H8NS+
150.0505	24	C9H10S+
151.0451	194	C8H9NS+
152.0166	519	C7H6NOS+
152.0529	999	C8H10NS+
153.0361	5	C8H9OS+
153.0609	34	C8H11NS+
154.0319	6	C7H8NOS+
154.0681	12	C8H12NS+
162.0915	10	C10H12NO+
164.053	20	C3H16O3S2+
166.0321	137	C8H8NOS+
166.0686	429	C9H12NS+
167.0395	5	C8H9NOS+
167.0764	20	C9H13NS+
168.0478	18	C8H10NOS+
168.0843	40	C9H14NS+
176.1069	22	C11H14NO+
194.0634	34	C10H12NOS+
208.0789	14	C11H14NOS+
210.0975	9	C8H20NOS2+
290.0727	4	C8H20NO6S2+
