Mass spectrum: Chloridazon; LC-ESI-ITFT; MS2; CE: 35%; R=7500; [M-H]-
Name: Chloridazon
Name: 5-amino-4-chloro-2-phenyl-3-pyridazinone
Formula: C10H8ClN3O
Exact mass: 221.0350
SMILES: ClC(=C(N)C=N1)C(=O)N1-c(ccc2)cc2
InChI: InChI=1S/C10H8ClN3O/c11-9-8(12)6-13-14(10(9)15)7-4-2-1-3-5-7/h1-6H,12H2
Instrument: LTQ Orbitrap XL Thermo Scientific
Instrument type: LC-ESI-ITFT
Ms type: MS2
Ion mode: NEGATIVE
Ionization: ESI
Fragmentation mode: CID
Collision energy: 35 % (nominal)
Resolution: 7500
Column name: XBridge C18 3.5um, 2.1x50mm, Waters
Retention time: 5.2 min
Base peak: 220.0281
Precursor m/z: 220.0283
Precursor type: [M-H]-
m/z	relative intensity	assigned
65.0145	156	C3HN2-
65.9985	34	C3NO-
73.9803	368	C2HClN-
74.9644	39	C2ClO-
100.9674	239	C3ClNO-
100.9912	345	C3H2ClN2-
117.0459	91	C7H5N2-
126.9703	114	C4ClN2O-
144.0565	176	C8H6N3-
150.0116	282	C8H5ClN-
177.0219	29	C9H6ClN2-
184.0517	324	C10H6N3O-
193.0172	59	C9H6ClN2O-
220.0284	999	C10H7ClN3O-
