Mass spectrum: Venlafaxine; LC-ESI-QFT; MS2; CE: 60; R=35000; [M+H]+
Name: Venlafaxine
Name: 1-[2-(dimethylamino)-1-(4-methoxyphenyl)ethyl]-1-cyclohexanol
Formula: C17H27NO2
Exact mass: 277.20418
SMILES: CN(C)CC(C1=CC=C(C=C1)OC)C2(CCCCC2)O
InChI: InChI=1S/C17H27NO2/c1-18(2)13-16(17(19)11-5-4-6-12-17)14-7-9-15(20-3)10-8-14/h7-10,16,19H,4-6,11-13H2,1-3H3
Instrument: Q Exactive Orbitrap Thermo Scientific
Instrument type: LC-ESI-QFT
Ms type: MS2
Ion mode: POSITIVE
Ionization: ESI
Fragmentation mode: HCD
Collision energy: 60 (nominal)
Resolution: 35000
Column name: XBridge C18 3.5um, 2.1x50mm, Waters
Retention time: 6.2 min
Base peak: 278.2118
Precursor m/z: 278.2115
Precursor type: [M+H]+
m/z	relative intensity	assigned
56.0496	1	C3H6N+
58.0652	999	C3H8N+
67.0544	4	C5H7+
69.0699	9	C5H9+
79.0543	13	C6H7+
81.07	16	C6H9+
91.0543	19	C7H7+
93.0699	10	C7H9+
99.0805	1	C6H11O+
105.0702	1	C8H9+
107.0492	3	C7H7O+
107.0856	12	C8H11+
109.0649	4	C7H9O+
117.0699	1	C9H9+
119.0857	2	C9H11+
121.0649	286	C8H9O+
131.0494	1	C9H7O+
132.0571	7	C9H8O+
133.065	1	C9H9O+
135.0805	16	C9H11O+
141.0701	2	C11H9+
144.0572	3	C10H8O+
145.0649	3	C10H9O+
147.0805	127	C10H11O+
152.1436	2	C10H18N+
158.0727	7	C11H10O+
159.0806	35	C11H11O+
160.0883	1	C11H12O+
161.0963	4	C11H13O+
163.0992	4	C10H13NO+
173.0962	45	C12H13O+
177.115	6	C11H15NO+
178.123	4	C11H16NO+
183.1172	2	C14H15+
187.1124	4	C13H15O+
215.1432	14	C15H19O+
