Mass spectrum: Normianserin; LC-ESI-QFT; MS2; CE: 45; R=35000; [M+H]+
Name: Normianserin
Name: N-desmethylmianserin
Name: 1,2,3,4,10,14b-Hexahydrodibenzo[c,f]pyrazino[1,2-a]azepine
Formula: C17H18N2
Exact mass: 250.14700
SMILES: C3c1ccccc1C2CNCCN2c4ccccc34
InChI: InChI=1S/C17H18N2/c1-3-7-15-13(5-1)11-14-6-2-4-8-16(14)19-10-9-18-12-17(15)19/h1-8,17-18H,9-12H2
Instrument: Q Exactive Plus Orbitrap Thermo Scientific
Instrument type: LC-ESI-QFT
Ms type: MS2
Ion mode: POSITIVE
Ionization: ESI
Fragmentation mode: HCD
Collision energy: 45 (nominal)
Resolution: 35000
Column name: XBridge C18 3.5um, 2.1x50mm, Waters
Retention time: 6.7 min
Base peak: 251.1539
Precursor m/z: 251.1543
Precursor type: [M+H]+
m/z	relative intensity	assigned
56.0494	15	C3H6N+
58.0651	2	C3H8N+
71.0603	19	C3H7N2+
77.0383	2	C6H5+
83.0603	1	C4H7N2+
84.068	1	C4H8N2+
91.0541	37	C7H7+
92.0493	1	C6H6N+
93.0572	1	C6H7N+
93.0698	1	C7H9+
103.0542	4	C8H7+
105.0698	33	C8H9+
106.065	15	C7H8N+
115.0541	10	C9H7+
116.0619	1	C9H8+
117.0572	4	C8H7N+
117.0698	25	C9H9+
118.065	266	C8H8N+
119.073	5	C8H9N+
119.0854	4	C9H11+
120.0807	280	C8H10N+
122.0963	2	C8H12N+
129.0698	19	C10H9+
130.0651	27	C9H8N+
131.0728	2	C9H9N+
131.0855	1	C10H11+
132.0807	264	C9H10N+
134.0963	36	C9H12N+
143.0728	4	C10H9N+
144.0807	54	C10H10N+
145.076	4	C9H9N2+
145.0885	8	C10H11N+
146.0963	16	C10H12N+
147.0916	125	C9H11N2+
156.0807	4	C11H10N+
158.0963	62	C11H12N+
159.0919	3	C10H11N2+
160.0994	14	C10H12N2+
178.0773	5	C14H10+
179.0854	20	C14H11+
181.1012	2	C14H13+
191.0851	3	C15H11+
193.0883	15	C14H11N+
193.1013	2	C15H13+
194.0963	16	C14H12N+
196.112	39	C14H14N+
204.081	4	C15H10N+
205.0885	12	C15H11N+
206.0964	16	C15H12N+
207.1041	4	C15H13N+
208.112	999	C15H14N+
217.1011	1	C17H13+
218.096	5	C16H12N+
219.1042	13	C16H13N+
220.112	12	C16H14N+
222.1276	33	C16H16N+
223.1228	13	C15H15N2+
232.1119	6	C17H14N+
234.1276	91	C17H16N+
249.1385	63	C17H17N2+
251.1541	603	C17H19N2+
