Mass spectrum: Bexarotene; LC-ESI-QFT; MS2; CE: 45; R=35000; [M+H]+
Name: Bexarotene
Name: 4-[1-(3,5,5,8,8-pentamethyl-6,7-dihydronaphthalen-2-yl)ethenyl]benzoic acid
Formula: C24H28O2
Exact mass: 348.20893
SMILES: CC1=CC2=C(C=C1C(=C)C3=CC=C(C=C3)C(=O)O)C(CCC2(C)C)(C)C
InChI: InChI=1S/C24H28O2/c1-15-13-20-21(24(5,6)12-11-23(20,3)4)14-19(15)16(2)17-7-9-18(10-8-17)22(25)26/h7-10,13-14H,2,11-12H2,1,3-6H3,(H,25,26)
Instrument: Q Exactive Orbitrap Thermo Scientific
Instrument type: LC-ESI-QFT
Ms type: MS2
Ion mode: POSITIVE
Ionization: ESI
Fragmentation mode: HCD
Collision energy: 45 (nominal)
Resolution: 35000
Column name: XBridge C18 3.5um, 2.1x50mm, Waters
Retention time: 19.0 min
Base peak: 349.2162
Precursor m/z: 349.2162
Precursor type: [M+H]+
m/z	relative intensity	assigned
55.0543	1	C4H7+
57.0699	10	C4H9+
67.0542	10	C5H7+
69.0698	510	C5H9+
71.0855	1	C5H11+
79.0542	6	C6H7+
81.07	1	C6H9+
83.0855	31	C6H11+
91.0541	23	C7H7+
95.0855	4	C7H11+
97.1012	2	C7H13+
103.0542	29	C8H7+
105.0698	65	C8H9+
107.0491	2	C7H7O+
107.0855	2	C8H11+
109.1012	11	C8H13+
111.1168	210	C8H15+
115.0541	20	C9H7+
117.0698	28	C9H9+
119.049	1	C8H7O+
119.0855	17	C9H11+
121.1009	1	C9H13+
128.0621	9	C10H8+
129.0698	67	C10H9+
131.0491	11	C9H7O+
131.0855	27	C10H11+
133.0283	5	C8H5O2+
133.1012	12	C10H13+
135.0439	96	C8H7O2+
141.0697	1	C11H9+
142.0778	11	C11H10+
143.0855	60	C11H11+
144.0932	6	C11H12+
145.1012	42	C11H13+
147.044	397	C9H7O2+
149.0597	64	C9H9O2+
155.0856	3	C12H11+
156.0933	2	C12H12+
157.1011	88	C12H13+
158.1092	10	C12H14+
159.1168	9	C12H15+
163.0753	7	C10H11O2+
165.07	2	C13H9+
167.0851	3	C13H11+
169.1009	2	C13H13+
170.1086	1	C13H14+
171.1168	59	C13H15+
172.1243	2	C13H16+
173.0597	5	C11H9O2+
173.1323	1	C13H17+
178.0775	15	C14H10+
179.0855	21	C14H11+
180.093	2	C14H12+
181.1014	2	C14H13+
183.1169	7	C14H15+
185.1327	9	C14H17+
187.0751	5	C12H11O2+
187.1482	5	C14H19+
189.0693	1	C15H9+
191.0853	8	C15H11+
192.0933	60	C15H12+
193.1011	61	C15H13+
194.0726	1	C14H10O+
194.1091	2	C15H14+
195.1167	11	C15H15+
197.1327	11	C15H17+
199.0752	1	C13H11O2+
199.1481	10	C15H19+
200.156	3	C15H20+
201.0908	7	C13H13O2+
201.164	1	C15H21+
204.0932	1	C16H12+
205.1012	11	C16H13+
206.1089	18	C16H14+
207.1168	74	C16H15+
209.1327	1	C16H17+
212.1559	32	C16H20+
213.091	1	C14H13O2+
217.1011	1	C17H13+
218.1088	1	C17H14+
219.0805	7	C16H11O+
219.1169	14	C17H15+
220.1246	17	C17H16+
221.0961	21	C16H13O+
221.1324	18	C17H17+
223.0752	2	C15H11O2+
225.0911	6	C15H13O2+
227.1794	139	C17H23+
231.1177	1	C18H15+
232.1245	2	C18H16+
233.0963	16	C17H13O+
233.1323	10	C18H17+
234.1404	18	C18H18+
235.1119	15	C17H15O+
235.1482	43	C18H19+
236.0826	9	C16H12O2+
237.0909	33	C16H13O2+
238.0984	2	C16H14O2+
239.1066	29	C16H15O2+
247.1117	14	C18H15O+
247.148	13	C19H19+
248.1559	2	C19H20+
249.0906	4	C17H13O2+
249.1277	9	C18H17O+
249.1641	9	C19H21+
250.0991	10	C17H14O2+
251.1067	494	C17H15O2+
253.1225	4	C17H17O2+
257.1322	1	C20H17+
261.1273	31	C19H17O+
263.1066	8	C18H15O2+
263.1431	1	C19H19O+
264.1143	14	C18H16O2+
265.1223	337	C18H17O2+
267.1375	1	C18H19O2+
275.1431	16	C20H19O+
275.1799	1	C21H23+
277.1227	12	C19H17O2+
278.1305	11	C19H18O2+
279.1379	999	C19H19O2+
280.1454	19	C19H20O2+
281.1535	17	C19H21O2+
287.1427	1	C21H19O+
288.1865	1	C22H24+
289.1589	5	C21H21O+
289.1949	17	C22H25+
290.1302	1	C20H18O2+
291.1379	64	C20H19O2+
293.1535	151	C20H21O2+
305.1535	100	C21H21O2+
305.1901	13	C22H25O+
306.1619	1	C21H22O2+
307.1694	6	C21H23O2+
319.1693	105	C22H23O2+
331.2059	32	C24H27O+
333.1848	12	C23H25O2+
334.1926	288	C23H26O2+
349.2162	717	C24H29O2+
