Mass spectrum: Tramadol N-Oxide; LC-ESI-QFT; MS2; CE: 90; R=35000; [M+H]+
Name: Tramadol N-Oxide
Name: 1-[(1R,2R)-2-hydroxy-2-(3-methoxyphenyl)cyclohexyl]-N,N-dimethylmethanamine oxide
Formula: C16H25NO3
Exact mass: 279.18344
SMILES: [O-][N+](C)(C)C[C@H]2CCCC[C@]2(O)c1cc(OC)ccc1
InChI: InChI=1S/C16H25NO3/c1-17(2,19)12-14-7-4-5-10-16(14,18)13-8-6-9-15(11-13)20-3/h6,8-9,11,14,18H,4-5,7,10,12H2,1-3H3/t14-,16+/m1/s1
Instrument: Q Exactive Plus Orbitrap Thermo Scientific
Instrument type: LC-ESI-QFT
Ms type: MS2
Ion mode: POSITIVE
Ionization: ESI
Fragmentation mode: HCD
Collision energy: 90 (nominal)
Resolution: 35000
Column name: XBridge C18 3.5um, 2.1x50mm, Waters
Retention time: 5.1 min
Base peak: 280.1904
Precursor m/z: 280.1907
Precursor type: [M+H]+
m/z	relative intensity	assigned
50.0151	9	C4H2+
51.0229	6	C4H3+
53.0386	94	C4H5+
54.0464	1	C4H6+
55.0178	23	C3H3O+
55.0542	65	C4H7+
56.0495	38	C3H6N+
57.0335	8	C3H5O+
57.0573	5	C3H7N+
58.0651	999	C3H8N+
62.06	17	C2H8NO+
63.0228	8	C5H3+
64.0308	8	C5H4+
65.0386	38	C5H5+
66.0463	1	C5H6+
67.0417	8	C4H5N+
67.0542	52	C5H7+
67.9891	1	C3O2+
68.0256	4	C4H4O+
68.0495	10	C4H6N+
69.0335	1	C4H5O+
69.0698	18	C5H9+
70.0651	29	C4H8N+
71.0729	24	C4H9N+
72.0807	9	C4H10N+
74.06	6	C3H8NO+
77.0385	184	C6H5+
78.0463	21	C6H6+
79.0542	118	C6H7+
80.0494	11	C5H6N+
81.0335	13	C5H5O+
81.0573	13	C5H7N+
81.0699	18	C6H9+
82.0651	34	C5H8N+
83.0492	3	C5H7O+
83.0855	14	C6H11+
84.0808	79	C5H10N+
91.0542	336	C7H7+
92.0257	255	C6H4O+
93.0699	31	C7H9+
94.0413	33	C6H6O+
94.0652	46	C6H8N+
95.0491	321	C6H7O+
95.073	28	C6H9N+
96.0206	1	C5H4O2+
96.0807	3	C6H10N+
97.0887	1	C6H11N+
102.0465	3	C8H6+
103.0542	23	C8H7+
104.062	4	C8H8+
105.0447	178	C6H5N2+
105.0699	27	C8H9+
106.0414	16	C7H6O+
107.0491	94	C7H7O+
108.057	1	C7H8O+
108.0807	16	C7H10N+
109.0648	46	C7H9O+
110.0965	21	C7H12N+
111.0441	1	C6H7O2+
115.0542	52	C9H7+
116.062	33	C9H8+
117.0698	22	C9H9+
118.0413	2	C8H6O+
119.0492	3	C8H7O+
119.0603	8	C7H7N2+
119.0855	5	C9H11+
120.0569	4	C8H8O+
121.0648	350	C8H9O+
124.052	1	C7H8O2+
125.0597	298	C7H9O2+
127.0542	4	C10H7+
128.062	43	C10H8+
129.0699	53	C10H9+
130.0413	6	C9H6O+
130.0777	6	C10H10+
131.0492	24	C9H7O+
132.0569	14	C9H8O+
133.0647	10	C9H9O+
135.044	187	C8H7O2+
135.0552	142	C7H7N2O+
135.0804	24	C9H11O+
136.0521	1	C8H8O2+
141.0698	13	C11H9+
142.0778	4	C11H10+
143.0491	5	C10H7O+
143.0857	5	C11H11+
144.057	124	C10H8O+
145.0648	63	C10H9O+
146.0727	15	C10H10O+
147.0804	27	C10H11O+
153.07	1	C12H9+
154.0777	1	C12H10+
155.0604	24	C10H7N2+
157.0648	11	C11H9O+
158.0726	49	C11H10O+
159.0804	112	C11H11O+
160.0883	24	C11H12O+
161.0958	1	C11H13O+
171.0805	10	C12H11O+
172.0883	11	C12H12O+
173.0961	12	C12H13O+
183.0811	1	C13H11O+
184.0881	1	C13H12O+
185.0963	1	C13H13O+
186.1036	1	C13H14O+
