Mass spectrum: Brodifacoum; LC-ESI-QFT; MS2; CE: 150%; R=17500; [M+H]+
Name: Brodifacoum
Name: 3-[3-[4-(4-bromophenyl)phenyl]-1,2,3,4-tetrahydronaphthalen-1-yl]-4-hydroxychromen-2-one
Formula: C31H23BrO3
Exact mass: 522.0831
SMILES: C1C(CC2=CC=CC=C2C1C3=C(C4=CC=CC=C4OC3=O)O)C5=CC=C(C=C5)C6=CC=C(C=C6)Br
InChI: InChI=1S/C31H23BrO3/c32-24-15-13-20(14-16-24)19-9-11-21(12-10-19)23-17-22-5-1-2-6-25(22)27(18-23)29-30(33)26-7-3-4-8-28(26)35-31(29)34/h1-16,23,27,33H,17-18H2
Instrument: Exploris 240 Orbitrap Thermo Scientific
Instrument type: LC-ESI-QFT
Ms type: MS2
Ion mode: POSITIVE
Ionization: ESI
Fragmentation mode: HCD
Collision energy: 150 % (nominal)
Resolution: 17500
Column name: XBridge C18 3.5um, 2.1x50mm, Waters
Retention time: 16.530 min
Base peak: 523.0906
Precursor m/z: 523.0903
Precursor type: [M+H]+
m/z	relative intensity	assigned
63.023	53	C5H3+
65.0386	650	C5H5+
76.0307	16	C6H4+
77.0385	355	C6H5+
78.0466	26	C6H6+
79.0542	44	C6H7+
89.0386	92	C7H5+
90.0463	20	C7H6+
91.0542	377	C7H7+
93.0337	22	C6H5O+
95.0492	300	C6H7O+
102.0468	83	C8H6+
103.0541	53	C8H7+
115.0543	409	C9H7+
121.0288	37	C7H5O2+
126.0462	57	C10H6+
127.0547	67	C10H7+
128.0621	299	C10H8+
139.0543	240	C11H7+
150.0462	108	C12H6+
151.0542	178	C12H7+
152.0621	778	C12H8+
153.0699	167	C12H9+
154.0778	27	C12H10+
163.0542	380	C13H7+
164.0622	260	C13H8+
165.0699	553	C13H9+
168.0569	32	C12H8O+
169.0647	246	C12H9O+
176.0621	794	C14H8+
177.07	256	C14H9+
178.0778	634	C14H10+
189.0697	114	C15H9+
202.0777	98	C16H10+
215.0857	88	C17H11+
226.0776	125	C18H10+
227.0858	25	C18H11+
228.0931	32	C18H12+
237.0703	80	C19H9+
238.0781	87	C19H10+
239.0856	999	C19H11+
250.0784	56	C20H10+
251.0859	19	C20H11+
252.0933	565	C20H12+
253.1004	116	C20H13+
254.11	44	C20H14+
