Mass spectrum: Mesosulfuron-methyl; LC-ESI-QFT; MS2; CE: 75; R=35000; [M-H]-
Name: Mesosulfuron-methyl
Name: 2-[(4,6-dimethoxypyrimidin-2-yl)carbamoylsulfamoyl]-4-(methanesulfonamidomethyl)benzoic acid methyl ester
Formula: C17H21N5O9S2
Exact mass: 503.07807
SMILES: O=C(Nc1nc(cc(OC)n1)OC)NS(=O)(=O)c2cc(CNS(C)(=O)=O)ccc2C(=O)OC
InChI: InChI=1S/C17H21N5O9S2/c1-29-13-8-14(30-2)20-16(19-13)21-17(24)22-33(27,28)12-7-10(9-18-32(4,25)26)5-6-11(12)15(23)31-3/h5-8,18H,9H2,1-4H3,(H2,19,20,21,22,24)
Instrument: Q Exactive Orbitrap Thermo Scientific
Instrument type: LC-ESI-QFT
Ms type: MS2
Ion mode: NEGATIVE
Ionization: ESI
Fragmentation mode: HCD
Collision energy: 75 (nominal)
Resolution: 35000
Column name: XBridge C18 3.5um, 2.1x50mm, Waters
Retention time: 8.9 min
Base peak: 502.0713
Precursor m/z: 502.0708
Precursor type: [M-H]-
m/z	relative intensity	assigned
61.9705	251	NOS-
63.9624	999	O2S-
65.0144	204	C3HN2-
65.9985	324	C3NO-
75.024	16	C6H3-
78.9733	37	HNO2S-
78.9859	533	CH3O2S-
82.0172	22	C3H2N2O-
89.0271	2	C6H3N-
90.0098	33	C4N3-
92.0506	9	C6H6N-
93.9968	104	CH4NO2S-
97.0408	16	C4H5N2O-
102.035	19	C7H4N-
105.9604	97	CNO3S-
107.0125	208	C4HN3O-
108.0204	18	C4H2N3O-
109.0282	2	C4H3N3O-
116.0381	2	C7H4N2-
117.022	10	C7H3NO-
118.0299	15	C7H4NO-
120.0091	12	C6H2NO2-
120.0454	4	C7H6NO-
122.036	245	C5H4N3O-
124.0515	24	C5H6N3O-
139.0387	132	C5H5N3O2-
143.0252	3	C8H3N2O-
145.0408	17	C8H5N2O-
146.025	16	C8H4NO2-
148.0403	3	C8H6NO2-
154.0622	153	C6H8N3O2-
176.0351	8	C9H6NO3-
180.984	86	C7H3NO3S-
181.9918	11	C7H4NO3S-
182.0282	38	C8H8NO2S-
194.9996	69	C8H5NO3S-
201.0305	4	C10H5N2O3-
204.0301	2	C10H6NO4-
209.0026	557	C8H5N2O3S-
210.0107	8	C8H6N2O3S-
211.0184	29	C8H7N2O3S-
239.9973	143	C9H6NO5S-
264.992	17	
267.0082	22	C10H7N2O5S-
288.9957	30	C9H9N2O5S2-
