Mass spectrum: Hydrochlorothiazide; LC-ESI-ITFT; MS2; CE: 75%; R=7500; [M-H]-
Name: Hydrochlorothiazide
Name: 6-Chloro-3,4-dihydro-2H-1,2,4-benzothiadiazine-7-sulfonamide 1,1-dioxide
Name: 6-chloranyl-1,1-bis(oxidanylidene)-3,4-dihydro-2H-1$l^{6},2,4-benzothiadiazine-7-sulfonamide
Formula: C7H8ClN3O4S2
Exact mass: 296.9645
SMILES: NS(=O)(=O)C1=CC2=C(NCNS2(=O)=O)C=C1Cl
InChI: InChI=1S/C7H8ClN3O4S2/c8-4-1-5-7(2-6(4)16(9,12)13)17(14,15)11-3-10-5/h1-2,10-11H,3H2,(H2,9,12,13)
Instrument: LTQ Orbitrap XL Thermo Scientific
Instrument type: LC-ESI-ITFT
Ms type: MS2
Ion mode: NEGATIVE
Ionization: ESI
Fragmentation mode: HCD
Collision energy: 75 % (nominal)
Resolution: 7500
Column name: XBridge C18 3.5um, 2.1x50mm, Waters
Retention time: 2.2 min
Base peak: 295.9563
Precursor m/z: 295.9572
Precursor type: [M-H]-
m/z	relative intensity	assigned
77.9656	999	NO2S-
121.0406	244	C6H5N2O-
123.9961	85	C6H3ClN-
126.0116	450	C6H5ClN-
202.9679	131	C6H4ClN2O2S-
204.9845	104	C6H6ClN2O2S-
