Mass spectrum: Lidocaine-N-Oxide; LC-ESI-QFT; MS2; CE: 180; R=35000; [M+H]+
Name: Lidocaine-N-Oxide
Name: Lignocaine N-oxide
Name: 2-(2,6-dimethylanilino)-N,N-diethyl-2-oxoethanamine oxide
Formula: C14H22N2O2
Exact mass: 250.16813
SMILES: CC[N+](CC)(CC(=O)NC1=C(C=CC=C1C)C)[O-]
InChI: InChI=1S/C14H22N2O2/c1-5-16(18,6-2)10-13(17)15-14-11(3)8-7-9-12(14)4/h7-9H,5-6,10H2,1-4H3,(H,15,17)
Instrument: Q Exactive Plus Orbitrap Thermo Scientific
Instrument type: LC-ESI-QFT
Ms type: MS2
Ion mode: POSITIVE
Ionization: ESI
Fragmentation mode: HCD
Collision energy: 180 (nominal)
Resolution: 35000
Column name: XBridge C18 3.5um, 2.1x50mm, Waters
Retention time: 4.8 min
Base peak: 251.1752
Precursor m/z: 251.1754
Precursor type: [M+H]+
m/z	relative intensity	assigned
50.0151	214	C4H2+
51.023	829	C4H3+
52.0307	11	
53.0386	416	C4H5+
54.0338	11	C3H4N+
55.0179	5	C3H3O+
56.0495	119	C3H6N+
58.0651	290	C3H8N+
60.0444	57	C2H6NO+
63.0229	60	C5H3+
65.0386	632	C5H5+
66.0464	40	C5H6+
67.0416	26	C4H5N+
67.0542	9	C5H7+
68.0494	6	C4H6N+
74.0599	28	C3H8NO+
75.0229	10	
77.0385	546	C6H5+
78.0464	138	C6H6+
79.0542	301	C6H7+
80.0494	171	C5H6N+
81.0335	30	C5H5O+
81.0573	6	C5H7N+
86.0964	82	C5H12N+
89.0386	132	C7H5+
90.0464	41	C7H6+
91.0542	876	C7H7+
92.0494	56	C6H6N+
93.0573	70	C6H7N+
93.0699	23	C7H9+
94.0413	13	C6H6O+
94.0651	9	C6H8N+
95.0491	999	C6H7O+
96.0442	25	C5H6NO+
102.0464	36	C8H6+
103.0542	157	C8H7+
104.0495	303	C7H6N+
105.0448	551	C6H5N2+
105.0574	31	C7H7N+
106.0651	725	C7H8N+
107.049	7	C7H7O+
107.073	65	C7H9N+
109.0649	9	C7H9O+
110.0599	7	C6H8NO+
115.0542	59	C9H7+
116.0494	6	C8H6N+
117.0573	62	C8H7N+
118.0651	150	C8H8N+
119.073	11	C8H9N+
120.0808	78	C8H10N+
130.0652	104	C9H8N+
133.0522	27	C8H7NO+
