Mass spectrum: Isoxaben; LC-ESI-QFT; MS2; CE: 120; R=35000; [M+H]+
Name: Isoxaben
Name: 2,6-dimethoxy-N-[3-(3-methylpentan-3-yl)-1,2-oxazol-5-yl]benzamide
Formula: C18H24N2O4
Exact mass: 332.17361
SMILES: CCC(C)(CC)C1=NOC(=C1)NC(=O)C2=C(C=CC=C2OC)OC
InChI: InChI=1S/C18H24N2O4/c1-6-18(3,7-2)14-11-15(24-20-14)19-17(21)16-12(22-4)9-8-10-13(16)23-5/h8-11H,6-7H2,1-5H3,(H,19,21)
Instrument: Q Exactive Plus Orbitrap Thermo Scientific
Instrument type: LC-ESI-QFT
Ms type: MS2
Ion mode: POSITIVE
Ionization: ESI
Fragmentation mode: HCD
Collision energy: 120 (nominal)
Resolution: 35000
Column name: XBridge C18 3.5um, 2.1x50mm, Waters
Retention time: 10.5 min
Base peak: 333.1799
Precursor m/z: 333.1809
Precursor type: [M+H]+
m/z	relative intensity	assigned
50.0151	14	C4H2+
51.0228	9	C4H3+
53.0021	13	C3HO+
53.0386	15	C4H5+
54.0464	3	C4H6+
55.0178	61	C3H3O+
63.0229	17	C5H3+
64.0307	18	C5H4+
65.0386	9	C5H5+
66.0464	12	C5H6+
68.9971	4	C3HO2+
74.015	1	C6H2+
75.0228	49	C6H3+
77.0385	39	C6H5+
78.0463	2	C6H6+
79.0178	79	C5H3O+
79.0542	8	C6H7+
81.0334	4	C5H5O+
82.0413	1	C5H6O+
90.01	1	C6H2O+
92.0256	78	C6H4O+
93.0335	1	C6H5O+
94.0413	7	C6H6O+
95.0491	45	C6H7O+
103.0179	1	C7H3O+
105.0447	28	C6H5N2+
107.0127	999	C6H3O2+
109.0647	1	C7H9O+
119.0127	6	C7H3O2+
120.0206	9	C7H4O2+
121.0283	4	C7H5O2+
122.0362	176	C7H6O2+
125.0233	14	C6H5O3+
135.0439	3	C8H7O2+
139.0388	3	C7H7O3+
150.0311	25	C8H6O3+
165.0547	3	C9H9O3+
168.0416	5	C8H8O4+
