Mass spectrum: Omethoate; LC-ESI-QFT; MS2; CE: 90%; R=17500; [M+H]+
Name: Omethoate
Name: 2-dimethoxyphosphorylsulfanyl-N-methylacetamide
Formula: C5H12NO4PS
Exact mass: 213.0225
SMILES: CNC(=O)CSP(=O)(OC)OC
InChI: InChI=1S/C5H12NO4PS/c1-6-5(7)4-12-11(8,9-2)10-3/h4H2,1-3H3,(H,6,7)
Instrument: Exploris 240 Orbitrap Thermo Scientific
Instrument type: LC-ESI-QFT
Ms type: MS2
Ion mode: POSITIVE
Ionization: ESI
Fragmentation mode: HCD
Collision energy: 90 % (nominal)
Resolution: 17500
Column name: XBridge C18 3.5um, 2.1x50mm, Waters
Retention time: 1.956 min
Base peak: 214.0296
Precursor m/z: 214.0297
Precursor type: [M+H]+
m/z	relative intensity	assigned
61.0107	48	C2H5S+
62.0185	27	C2H6S+
72.0445	39	C3H6NO+
76.0215	79	C2H6NS+
78.9943	372	CH4O2P+
104.0165	40	C3H6NOS+
109.0049	522	C2H6O3P+
111.0207	9	C2H8O3P+
124.9821	826	C2H6O2PS+
127.0155	999	C2H8O4P+
142.9926	222	C2H8O3PS+
