Mass spectrum: Lauroyl Lysine; LC-ESI-QFT; MS2; CE: 90%; R=17500; [M+H]+
Name: Lauroyl Lysine
Name: N6-Dodecanoyllysine
Name: 2-amino-6-(dodecanoylamino)hexanoic acid
Formula: C18H36N2O3
Exact mass: 328.2726
SMILES: CCCCCCCCCCCC(=O)NCCCCC(C(=O)O)N
InChI: InChI=1S/C18H36N2O3/c1-2-3-4-5-6-7-8-9-10-14-17(21)20-15-12-11-13-16(19)18(22)23/h16H,2-15,19H2,1H3,(H,20,21)(H,22,23)
Instrument: Exploris 240 Orbitrap Thermo Scientific
Instrument type: LC-ESI-QFT
Ms type: MS2
Ion mode: POSITIVE
Ionization: ESI
Fragmentation mode: HCD
Collision energy: 90 % (nominal)
Resolution: 17500
Column name: XBridge C18 3.5um, 2.1x50mm, Waters
Retention time: 12.161 min
Base peak: 329.2798
Precursor m/z: 329.2799
Precursor type: [M+H]+
m/z	relative intensity	assigned
55.0543	27	C4H7+
56.0495	65	C3H6N+
57.0699	88	C4H9+
67.0542	40	C5H7+
71.0855	12	C5H11+
81.0698	11	C6H9+
84.0808	999	C5H10N+
85.0651	3	C5H9O+
95.0853	14	C7H11+
130.0862	3	C6H12NO2+
