Mass spectrum: Dinoterb; LC-ESI-QFT; MS2; CE: 45; R=35000; [M-H]-
Name: Dinoterb
Name: 2-tert-butyl-4,6-dinitro-phenol
Name: Phenol, 2-(1,1-dimethylethyl)-4,6-dinitro-
Formula: C10H12N2O5
Exact mass: 240.07462
SMILES: [O-][N+](=O)c1cc(cc(c1O)C(C)(C)C)[N+]([O-])=O
InChI: InChI=1S/C10H12N2O5/c1-10(2,3)7-4-6(11(14)15)5-8(9(7)13)12(16)17/h4-5,13H,1-3H3
Instrument: Q Exactive Orbitrap Thermo Scientific
Instrument type: LC-ESI-QFT
Ms type: MS2
Ion mode: NEGATIVE
Ionization: ESI
Fragmentation mode: HCD
Collision energy: 45 (nominal)
Resolution: 35000
Column name: XBridge C18 3.5um, 2.1x50mm, Waters
Retention time: 13.3 min
Base peak: 239.0675
Precursor m/z: 239.0673
Precursor type: [M-H]-
m/z	relative intensity	assigned
107.0867	9	C8H11-
123.0327	8	C6H5NO2-
136.0532	1	C8H8O2-
149.048	2	C8H7NO2-
150.056	9	C8H8NO2-
151.0274	9	C7H5NO3-
151.0764	32	C9H11O2-
153.0068	2	C6H3NO4-
164.0718	6	C9H10NO2-
166.0509	4	C8H8NO3-
167.0227	1	C7H5NO4-
176.0352	8	C9H6NO3-
177.0431	8	C9H7NO3-
178.051	14	C9H8NO3-
179.0714	46	C10H11O3-
192.0667	1	C10H10NO3-
193.0743	13	C10H11NO3-
194.0459	27	C9H8NO4-
206.0333	2	C9H6N2O4-
207.0411	310	C9H7N2O4-
208.0615	15	C10H10NO4-
209.0693	50	C10H11NO4-
223.0359	2	C9H7N2O5-
224.0439	29	C9H8N2O5-
239.0674	999	C10H11N2O5-
