Mass spectrum: Norsertraline; LC-ESI-QFT; MS2; CE: 90; R=35000; [M+H]+
Name: Norsertraline
Name: 1-Naphthalenamine, 4-(3,4-dichlorophenyl)-1,2,3,4-tetrahydro-
Name: 4-(3,4-dichlorophenyl)-1,2,3,4-tetrahydronaphthalen-1-amine
Formula: C16H15Cl2N
Exact mass: 291.05815
SMILES: C1CC(C2=CC=CC=C2C1C3=CC(=C(C=C3)Cl)Cl)N
InChI: InChI=1S/C16H15Cl2N/c17-14-7-5-10(9-15(14)18)11-6-8-16(19)13-4-2-1-3-12(11)13/h1-5,7,9,11,16H,6,8,19H2
Instrument: Q Exactive Plus Orbitrap Thermo Scientific
Instrument type: LC-ESI-QFT
Ms type: MS2
Ion mode: POSITIVE
Ionization: ESI
Fragmentation mode: HCD
Collision energy: 90 (nominal)
Resolution: 35000
Column name: XBridge C18 3.5um, 2.1x50mm, Waters
Retention time: 9.6 min
Base peak: 275.0379
Precursor m/z: 292.0654
Precursor type: [M+H]+
m/z	relative intensity	assigned
63.0228	3	C5H3+
65.0385	5	C5H5+
72.9838	12	C3H2Cl+
88.0306	1	C7H4+
89.0384	68	C7H5+
91.0541	46	C7H7+
96.9839	5	C5H2Cl+
98.9995	67	C5H4Cl+
102.0463	1	C8H6+
103.054	1	C8H7+
115.0542	7	C9H7+
122.9994	353	C7H4Cl+
124.0073	118	C7H5Cl+
125.0151	6	C7H6Cl+
126.0463	1	C10H6+
127.054	7	C10H7+
128.0619	163	C10H8+
129.0697	96	C10H9+
132.9605	45	C5H3Cl2+
145.0647	13	C7H12ClN+
155.0602	31	C10H7N2+
158.9761	999	C7H5Cl2+
162.0229	20	C10H7Cl+
189.0696	3	C15H9+
190.0775	8	C15H10+
202.0772	4	C16H10+
203.0851	8	C16H11+
204.0932	10	C16H12+
205.1012	8	C16H13+
212.0382	4	C14H9Cl+
225.0465	10	C15H10Cl+
246	1	C14H8Cl2+
