Mass spectrum: Cefazolin; LC-ESI-QFT; MS2; CE: 15; R=35000; [M+H]+
Name: Cefazolin
Name: 3-[(5-methyl-1,3,4-thiadiazol-2-yl)sulfanylmethyl]-8-oxo-7-[[2-(tetrazol-1-yl)acetyl]amino]-5-thia-1-azabicyclo[4.2.0]oct-2-ene-2-carboxylic acid
Formula: C14H14N8O4S3
Exact mass: 454.03001
SMILES: CC1=NN=C(S1)SCC2=C(N3C(C(C3=O)NC(=O)CN4C=NN=N4)SC2)C(=O)O
InChI: InChI=1S/C14H14N8O4S3/c1-6-17-18-14(29-6)28-4-7-3-27-12-9(11(24)22(12)10(7)13(25)26)16-8(23)2-21-5-15-19-20-21/h5,9,12H,2-4H2,1H3,(H,16,23)(H,25,26)
Instrument: Q Exactive Plus Orbitrap Thermo Scientific
Instrument type: LC-ESI-QFT
Ms type: MS2
Ion mode: POSITIVE
Ionization: ESI
Fragmentation mode: HCD
Collision energy: 15 (nominal)
Resolution: 35000
Column name: XBridge C18 3.5um, 2.1x50mm, Waters
Retention time: 4.5 min
Base peak: 455.0367
Precursor m/z: 455.0373
Precursor type: [M+H]+
m/z	relative intensity	assigned
55.0293	1	C2H3N2+
57.0448	1	C2H5N2+
68.0494	2	C4H6N+
69.0447	1	C3H5N2+
71.0353	11	CH3N4+
72.0556	1	C2H6N3+
80.0495	1	C5H6N+
84.0556	1	C3H6N3+
85.0106	3	C4H5S+
85.0397	3	C3H5N2O+
96.0557	8	C4H6N3+
100.0216	8	C4H6NS+
100.0506	44	C3H6N3O+
107.0603	3	C6H7N2+
111.0553	3	C5H7N2O+
112.0216	8	C5H6NS+
112.0393	7	C5H6NO2+
112.0506	3	C4H6N3O+
113.0167	2	C4H5N2S+
113.0294	3	C5H7NS+
120.0681	1	C7H8N2+
124.0217	11	C6H6NS+
124.0507	11	C5H6N3O+
125.0057	1	C6H5OS+
126.0011	1	C5H4NOS+
126.0373	10	C6H8NS+
128.0278	5	C4H6N3S+
132.989	72	C3H5N2S2+
136.087	1	C7H10N3+
138.0661	1	C6H8N3O+
139.0327	5	C6H7N2S+
140.0165	1	C6H6NOS+
140.0455	13	C5H6N3O2+
141.0116	2	C5H5N2OS+
141.0482	5	C6H9N2S+
144.0115	3	C5H6NO2S+
147.0793	1	C8H9N3+
149.0824	1	C7H9N4+
151.0326	4	C7H7N2S+
152.0166	24	C7H6NOS+
152.0455	1	C6H6N3O2+
153.0483	52	C7H9N2S+
156.0115	608	C6H6NO2S+
157.0194	5	C6H7NO2S+
157.0303	3	C5H7N3OS+
158.0271	3	C6H8NO2S+
161.0822	4	C8H9N4+
162.0663	11	C8H8N3O+
162.0904	2	C8H10N4+
163.0325	2	C8H7N2S+
164.0822	1	C8H10N3O+
166.0435	17	C7H8N3S+
167.0275	1	C7H7N2OS+
168.0115	3	C7H6NO2S+
168.0229	1	C6H6N3OS+
168.0519	9	C5H6N5O2+
168.0591	1	C7H10N3S+
177.0773	1	C8H9N4O+
178.0435	23	C8H8N3S+
180.0591	7	C8H10N3S+
181.0433	3	C2H15NO4S2+
183.0225	1	C7H7N2O2S+
189.0773	2	C9H9N4O+
190.0612	1	C9H8N3O2+
190.085	5	C9H10N4O+
194.0384	2	C8H8N3OS+
195.0223	2	C8H7N2O2S+
195.0702	9	C8H11N4S+
196.0543	3	C8H10N3OS+
197.038	1	C8H9N2O2S+
205.0725	1	C9H9N4O2+
206.0385	18	C9H8N3OS+
207.0225	2	C9H7N2O2S+
208.0543	4	C9H10N3OS+
210.0336	2	C8H8N3O2S+
221.0495	3	C9H9N4OS+
223.065	18	C9H11N4OS+
224.0491	1	C9H10N3O2S+
233.0671	2	C10H9N4O3+
239.0604	2	C9H11N4O2S+
249.0442	4	C10H9N4O2S+
251.0712	2	C9H11N6OS+
252.0439	23	C10H10N3O3S+
267.055	6	C10H11N4O3S+
270.0004	3	C9H8N3O3S2+
280.0391	1	C11H10N3O4S+
295.0612	243	C10H11N6O3S+
323.0559	999	C11H11N6O4S+
