Mass spectrum: Methsuximide; LC-ESI-QFT; MS2; CE: 60; R=35000; [M+H]+
Name: Methsuximide
Name: 1,3-dimethyl-3-phenylpyrrolidine-2,5-dione
Formula: C12H13NO2
Exact mass: 203.09463
SMILES: CC1(CC(=O)N(C1=O)C)C2=CC=CC=C2
InChI: InChI=1S/C12H13NO2/c1-12(9-6-4-3-5-7-9)8-10(14)13(2)11(12)15/h3-7H,8H2,1-2H3
Instrument: Q Exactive Orbitrap Thermo Scientific
Instrument type: LC-ESI-QFT
Ms type: MS2
Ion mode: POSITIVE
Ionization: ESI
Fragmentation mode: HCD
Collision energy: 60 (nominal)
Resolution: 35000
Column name: XBridge C18 3.5um, 2.1x50mm, Waters
Retention time: 6.8 min
Base peak: 204.1021
Precursor m/z: 204.1019
Precursor type: [M+H]+
m/z	relative intensity	assigned
53.0023	6	C3HO+
53.9975	2	C2NO+
56.0496	5	C3H6N+
58.0288	546	C2H4NO+
67.9893	1	C3O2+
69.0335	425	C4H5O+
77.0385	7	C6H5+
79.0542	311	C6H7+
80.0495	1	C5H6N+
90.0464	1	C7H6+
91.0542	762	C7H7+
95.0492	12	C6H7O+
98.06	18	C5H8NO+
103.0543	16	C8H7+
105.0334	7	C7H5O+
105.0448	5	C6H5N2+
105.0699	2	C8H9+
107.0491	2	C7H7O+
115.0542	14	C9H7+
117.0699	84	C9H9+
119.0855	999	C9H11+
120.0806	2	C8H10N+
121.0648	67	C8H9O+
126.055	166	C6H8NO2+
128.0619	2	C10H8+
129.0699	48	C10H9+
134.0964	92	C9H12N+
143.0731	16	C10H9N+
144.0808	8	C10H10N+
145.0649	226	C10H9O+
147.0681	5	C9H9NO+
147.0805	22	C10H11O+
148.1121	1	C10H14N+
155.0602	2	C10H7N2+
158.0965	60	C11H12N+
160.0753	1	C10H10NO+
160.1125	4	C11H14N+
162.0914	17	C10H12NO+
171.0677	12	C11H9NO+
173.06	5	C11H9O2+
176.1071	2	C11H14NO+
186.0914	28	C12H12NO+
189.0786	2	C11H11NO2+
204.102	41	C12H14NO2+
