Mass spectrum: Dialifos; LC-ESI-QFT; MS2; CE: 60%; R=17500; [M+H]+
Name: Dialifos
Name: Dialifor
Name: 2-(2-chloro-1-diethoxyphosphinothioylsulfanylethyl)isoindole-1,3-dione
Formula: C14H17ClNO4PS2
Exact mass: 393.0025
SMILES: CCOP(=S)(OCC)SC(CCl)N1C(=O)C2=CC=CC=C2C1=O
InChI: InChI=1S/C14H17ClNO4PS2/c1-3-19-21(22,20-4-2)23-12(9-15)16-13(17)10-7-5-6-8-11(10)14(16)18/h5-8,12H,3-4,9H2,1-2H3
Instrument: Exploris 240 Orbitrap Thermo Scientific
Instrument type: LC-ESI-QFT
Ms type: MS2
Ion mode: POSITIVE
Ionization: ESI
Fragmentation mode: HCD
Collision energy: 60 % (nominal)
Resolution: 17500
Column name: XBridge C18 3.5um, 2.1x50mm, Waters
Retention time: 11.982 min
Base peak: 439.042
Precursor m/z: 394.0098
Precursor type: [M+H]+
m/z	relative intensity	assigned
60.984	44	C2H2Cl+
89.0385	198	C7H5+
94.9173	19	PS2+
96.9507	554	H2O2PS+
104.0256	84	C7H4O+
105.0336	138	C7H5O+
112.9281	63	CH2ClS2+
114.9613	295	H4O3PS+
116.0495	118	C8H6N+
117.0333	116	C8H5O+
125.0153	120	C7H6Cl+
130.0289	194	C8H4NO+
130.9384	751	H4O2PS2+
137.0154	41	C8H6Cl+
138.9945	35	C7H4ClO+
144.0442	219	C9H6NO+
145.0282	107	C9H5O2+
145.0522	33	C9H7NO+
153.0102	148	C4H9ClNOP+
158.9698	52	C2H8O2PS2+
166.9893	253	C8H4ClO2+
172.0392	234	C10H6NO2+
180.0211	159	C9H7ClNO+
181.005	999	C9H6ClO2+
208.016	785	C10H7ClNO2+
