Mass spectrum: Chloramphenicol; LC-ESI-QFT; MS2; CE: 15; R=35000; [M-H]-
Name: Chloramphenicol
Name: CLM
Name: 2,2-bis(chloranyl)-N-[(1R,2R)-1-(4-nitrophenyl)-1,3-bis(oxidanyl)propan-2-yl]ethanamide
Formula: C11H12Cl2N2O5
Exact mass: 322.01233
SMILES: c1cc(ccc1[C@H]([C@@H](CO)NC(=O)C(Cl)Cl)O)[N+](=O)[O-]
InChI: InChI=1S/C11H12Cl2N2O5/c12-10(13)11(18)14-8(5-16)9(17)6-1-3-7(4-2-6)15(19)20/h1-4,8-10,16-17H,5H2,(H,14,18)/t8-,9-/m1/s1
Instrument: Q Exactive Orbitrap Thermo Scientific
Instrument type: LC-ESI-QFT
Ms type: MS2
Ion mode: NEGATIVE
Ionization: ESI
Fragmentation mode: HCD
Collision energy: 15 (nominal)
Resolution: 35000
Column name: XBridge C18 3.5um, 2.1x50mm, Waters
Retention time: 5.8 min
Base peak: 321.0054
Precursor m/z: 321.0051
Precursor type: [M-H]-
m/z	relative intensity	assigned
61.9884	1	NO3-
70.9461	7	Cl2H-
82.9461	4	CHCl2-
84.0092	13	C3H2NO2-
86.0248	2	C3H4NO2-
98.0249	1	C4H4NO2-
121.0296	42	C7H5O2-
122.0245	9	C6H4NO2-
125.9519	39	C2H2Cl2NO-
126.936	39	C2HCl2O2-
134.0015	9	C4H5ClNO2-
148.0405	11	C8H6NO2-
150.0196	9	C7H4NO3-
151.0275	125	C7H5NO3-
152.0353	837	C7H6NO3-
159.0324	2	C9H5NO2-
160.0405	5	C9H6NO2-
164.0356	2	C8H6NO3-
166.0147	1	C7H4NO4-
175.0515	1	C9H7N2O2-
176.0353	175	C9H6NO3-
179.0461	1	C8H7N2O3-
191.0468	1	C9H7N2O3-
194.0458	382	C9H8NO4-
207.0411	15	C9H7N2O4-
219.041	22	C10H7N2O4-
237.0517	43	C10H9N2O5-
249.0517	112	C11H9N2O5-
257.0335	654	C10H10ClN2O4-
321.0051	999	C11H11Cl2N2O5-
