Mass spectrum: Diethyl-phthalate; LC-ESI-QFT; MS2; CE: 45; R=35000; [M-H]-
Name: Diethyl-phthalate
Name: Diethyl phthalate
Name: Diethyl benzene-1,2-dicarboxylate
Formula: C12H14O4
Exact mass: 222.08921
SMILES: CCOC(=O)C1=CC=CC=C1C(=O)OCC
InChI: InChI=1S/C12H14O4/c1-3-15-11(13)9-7-5-6-8-10(9)12(14)16-4-2/h5-8H,3-4H2,1-2H3
Instrument: Q Exactive Plus Orbitrap Thermo Scientific
Instrument type: LC-ESI-QFT
Ms type: MS2
Ion mode: NEGATIVE
Ionization: ESI
Fragmentation mode: HCD
Collision energy: 45 (nominal)
Resolution: 35000
Column name: XBridge C18 3.5um, 2.1x50mm, Waters
Retention time: 8.7 min
Base peak: 112.9857
Precursor m/z: 221.0819
Precursor type: [M-H]-
m/z	relative intensity	assigned
69.0346	392	C4H5O-
71.0503	999	C4H7O-
73.066	2	C4H9O-
75.0241	15	C6H3-
77.0396	3	C6H5-
93.0345	27	C6H5O-
99.0453	6	C5H7O2-
107.0502	52	C7H7O-
108.0219	4	C6H4O2-
119.0141	4	C7H3O2-
121.0296	491	C7H5O2-
134.0374	183	C8H6O2-
135.0453	11	C8H7O2-
147.0087	82	C8H3O3-
147.0817	58	C10H11O-
149.0971	19	C10H13O-
165.0192	29	C8H5O4-
175.0764	11	C11H11O2-
177.0922	12	C11H13O2-
179.0349	4	C9H7O4-
190.9984	27	C9H3O5-
193.0868	4	C11H13O3-
221.0822	5	C12H13O4-
