Mass spectrum: Chloramphenicol; LC-ESI-QFT; MS2; CE: 45; R=35000; [M-H]-
Name: Chloramphenicol
Name: CLM
Name: 2,2-bis(chloranyl)-N-[(1R,2R)-1-(4-nitrophenyl)-1,3-bis(oxidanyl)propan-2-yl]ethanamide
Formula: C11H12Cl2N2O5
Exact mass: 322.01233
SMILES: c1cc(ccc1[C@H]([C@@H](CO)NC(=O)C(Cl)Cl)O)[N+](=O)[O-]
InChI: InChI=1S/C11H12Cl2N2O5/c12-10(13)11(18)14-8(5-16)9(17)6-1-3-7(4-2-6)15(19)20/h1-4,8-10,16-17H,5H2,(H,14,18)/t8-,9-/m1/s1
Instrument: Q Exactive Orbitrap Thermo Scientific
Instrument type: LC-ESI-QFT
Ms type: MS2
Ion mode: NEGATIVE
Ionization: ESI
Fragmentation mode: HCD
Collision energy: 45 (nominal)
Resolution: 35000
Column name: XBridge C18 3.5um, 2.1x50mm, Waters
Retention time: 5.8 min
Base peak: 321.0054
Precursor m/z: 321.0051
Precursor type: [M-H]-
m/z	relative intensity	assigned
61.9883	2	NO3-
70.9461	9	Cl2H-
71.0139	5	C3H3O2-
78.0349	120	C5H4N-
79.019	2	C5H3O-
82.9461	96	CHCl2-
84.0092	34	C3H2NO2-
86.0249	4	C3H4NO2-
92.0267	4	C6H4O-
93.0348	2	C6H5O-
98.0248	6	C4H4NO2-
105.0221	10	C6H3NO-
106.0299	12	C6H4NO-
117.0348	6	C8H5O-
118.0426	15	C8H6O-
121.0296	707	C7H5O2-
122.0249	32	C6H4NO2-
123.0325	8	C6H5NO2-
124.0402	8	C6H6NO2-
125.9518	9	C2H2Cl2NO-
126.936	36	C2HCl2O2-
135.0327	18	C7H5NO2-
136.0405	13	C7H6NO2-
146.0374	14	C9H6O2-
148.0405	94	C8H6NO2-
150.0197	11	C7H4NO3-
151.0275	587	C7H5NO3-
152.0353	999	C7H6NO3-
153.0544	2	C6H7N3O2-
159.0326	33	C9H5NO2-
161.0357	12	C8H5N2O2-
162.0197	15	C8H4NO3-
164.0354	4	C8H6NO3-
166.0145	4	C7H4NO4-
175.0508	2	C9H7N2O2-
176.0352	60	C9H6NO3-
179.0462	24	C8H7N2O3-
192.03	2	C9H6NO4-
194.0459	3	C9H8NO4-
219.0413	2	C10H7N2O4-
