Mass spectrum: Myclobutanil; LC-ESI-ITFT; MS2; CE: 75%; R=15000; [M+H]+
Name: Myclobutanil
Name: MYC
Name: 2-(4-chlorophenyl)-2-(1,2,4-triazol-1-ylmethyl)hexanenitrile
Formula: C15H17ClN4
Exact mass: 288.1142
SMILES: Clc1ccc(cc1)C(C#N)(CCCC)Cn2ncnc2
InChI: InChI=1S/C15H17ClN4/c1-2-3-8-15(9-17,10-20-12-18-11-19-20)13-4-6-14(16)7-5-13/h4-7,11-12H,2-3,8,10H2,1H3
Instrument: LTQ Orbitrap XL Thermo Scientific
Instrument type: LC-ESI-ITFT
Ms type: MS2
Ion mode: POSITIVE
Ionization: ESI
Fragmentation mode: HCD
Collision energy: 75 % (nominal)
Resolution: 15000
Column name: XBridge C18 3.5um, 2.1x50mm, Waters
Retention time: 11.2 min
Base peak: 289.1218
Precursor m/z: 289.1215
Precursor type: [M+H]+
m/z	relative intensity	assigned
57.0699	2	C4H9+
70.04	673	C2H4N3+
79.0542	1	C6H7+
81.0698	4	C6H9+
82.04	11	C3H4N3+
82.065	2	C5H8N+
83.0478	8	C3H5N3+
89.0386	9	C7H5+
94.0653	3	C6H8N+
95.0732	2	C6H9N+
98.9996	3	C5H4Cl+
102.0465	2	C8H6+
103.0544	2	C8H7+
115.0543	21	C9H7+
116.0621	33	C9H8+
125.0153	999	C7H6Cl+
128.0495	23	C9H6N+
128.0619	2	C10H8+
129.0448	2	C8H5N2+
129.0696	3	C10H9+
130.0652	15	C9H8N+
130.0777	2	C10H10+
131.0727	4	C9H9N+
137.0152	15	C8H6Cl+
139.0309	4	C8H8Cl+
142.0777	3	C11H10+
143.0603	6	C9H7N2+
143.073	6	C10H9N+
143.0855	3	C11H11+
146.0597	2	C9H8NO+
149.0153	10	C9H6Cl+
150.0105	28	C8H5ClN+
151.0309	106	C9H8Cl+
153.0697	8	C12H9+
156.0556	2	C9H6N3+
156.081	4	C11H10N+
158.1088	1	C12H14+
163.0188	1	C9H6ClN+
163.0308	1	C10H8Cl+
164.0262	51	C9H7ClN+
165.0341	4	C9H8ClN+
165.0461	3	C10H10Cl+
166.042	3	C9H9ClN+
167.0853	4	C13H11+
168.0938	3	C13H12+
170.0962	1	C12H12N+
175.0308	4	C11H8Cl+
178.0418	12	C10H9ClN+
184.1117	3	C13H14N+
190.042	1	C11H9ClN+
