Mass spectrum: Fludrocortisone; LC-ESI-QFT; MS2; CE: 30; R=35000; [M+H]+
Name: Fludrocortisone
Name: [2-[(8S,9R,10S,11S,13S,14S,17R)-9-fluoro-11,17-dihydroxy-10,13-dimethyl-3-oxo-1,2,6,7,8,11,12,14,15,16-decahydrocyclopenta[a]phenanthren-17-yl]-2-oxoethyl] acetate
Formula: C23H31FO6
Exact mass: 422.21047
SMILES: O=C(OCC(=O)[C@]3(O)[C@]2(C[C@H](O)[C@]4(F)[C@@]1(/C(=C\C(=O)CC1)CC[C@H]4[C@@H]2CC3)C)C)C
InChI: InChI=1S/C23H31FO6/c1-13(25)30-12-19(28)22(29)9-7-16-17-5-4-14-10-15(26)6-8-20(14,2)23(17,24)18(27)11-21(16,22)3/h10,16-18,27,29H,4-9,11-12H2,1-3H3/t16-,17-,18-,20-,21-,22-,23-/m0/s1
Instrument: Q Exactive Orbitrap Thermo Scientific
Instrument type: LC-ESI-QFT
Ms type: MS2
Ion mode: POSITIVE
Ionization: ESI
Fragmentation mode: HCD
Collision energy: 30 (nominal)
Resolution: 35000
Column name: XBridge C18 3.5um, 2.1x50mm, Waters
Retention time: 9.4 min
Base peak: 423.2179
Precursor m/z: 423.2177
Precursor type: [M+H]+
m/z	relative intensity	assigned
61.0285	15	C2H5O2+
69.0337	1	C4H5O+
69.0699	1	C5H9+
71.0491	1	C4H7O+
79.0544	1	C6H7+
81.0699	5	C6H9+
83.0493	7	C5H7O+
85.0648	1	C5H9O+
91.0541	1	C7H7+
93.07	11	C7H9+
95.0491	4	C6H7O+
95.0856	8	C7H11+
97.0648	23	C6H9O+
99.0441	6	C5H7O2+
101.0234	52	C4H5O3+
101.0398	8	C5H6FO+
105.07	10	C8H9+
107.0493	1	C7H7O+
107.0855	6	C8H11+
109.0648	8	C7H9O+
111.0804	1	C7H11O+
115.0388	1	C5H7O3+
117.07	1	C9H9+
119.0854	9	C9H11+
121.0648	40	C8H9O+
121.1011	2	C9H13+
123.0605	2	C8H8F+
123.0804	21	C8H11O+
125.0596	1	C7H9O2+
125.0963	1	C8H13O+
129.0697	1	C10H9+
131.0856	11	C10H11+
133.065	8	C9H9O+
133.1013	6	C10H13+
135.0804	22	C9H11O+
135.1171	1	C10H15+
137.0596	1	C8H9O2+
137.0961	10	C9H13O+
139.0751	2	C8H11O2+
141.0697	1	C11H9+
143.0857	21	C11H11+
145.065	1	C10H9O+
145.1013	19	C11H13+
147.0805	27	C10H11O+
147.1168	1	C11H15+
149.0963	10	C10H13O+
151.0757	1	C9H11O2+
153.0909	4	C9H13O2+
155.0855	7	C12H11+
157.1012	17	C12H13+
159.0802	13	C11H11O+
159.117	7	C12H15+
161.0961	37	C11H13O+
163.0755	7	C10H11O2+
163.1118	31	C11H15O+
165.0909	6	C10H13O2+
165.1071	10	C11H14F+
167.0855	2	C13H11+
169.101	10	C13H13+
171.0803	14	C12H11O+
171.1168	13	C13H15+
173.096	20	C12H13O+
175.0752	1	C11H11O2+
175.1119	9	C12H15O+
179.1068	1	C11H15O2+
181.1022	82	C11H14FO+
183.0803	1	C13H11O+
183.1019	1	C10H15O3+
183.117	16	C14H15+
185.0962	22	C13H13O+
185.1324	8	C14H17+
187.0751	1	C12H11O2+
187.1118	12	C13H15O+
189.091	34	C12H13O2+
189.1276	8	C13H17O+
191.107	4	C12H15O2+
193.1012	2	C15H13+
195.1168	20	C15H15+
197.0962	12	C14H13O+
197.1322	21	C15H17+
199.1115	18	C14H15O+
199.1479	3	C15H19+
201.091	4	C13H13O2+
201.1273	8	C14H17O+
203.1064	16	C13H15O2+
205.086	1	C12H13O3+
205.1017	4	C16H13+
205.1223	1	C13H17O2+
207.1019	2	C12H15O3+
207.1174	13	C16H15+
209.0961	5	C15H13O+
209.1326	13	C16H17+
210.1044	1	C15H14O+
211.1115	18	C15H15O+
211.1482	16	C16H19+
213.1274	44	C15H17O+
215.1067	1	C14H15O2+
215.1428	4	C15H19O+
217.1224	12	C14H17O2+
219.1168	6	C17H15+
221.1324	48	C17H17+
223.1117	17	C16H15O+
223.1482	22	C17H19+
224.1191	1	C16H16O+
225.1276	15	C16H17O+
225.1635	9	C17H21+
227.1065	1	C15H15O2+
227.1428	17	C16H19O+
229.1224	12	C15H17O2+
229.1582	1	C16H21O+
231.1172	4	C18H15+
232.1244	1	C18H16+
233.1325	4	C18H17+
235.1482	7	C18H19+
237.1272	26	C17H17O+
237.1635	13	C18H21+
239.143	200	C17H19O+
241.1222	17	C16H17O2+
241.1584	30	C17H21O+
243.138	13	C16H19O2+
245.1186	1	C12H18FO4+
245.1329	8	C19H17+
245.1536	2	C16H21O2+
247.1344	2	C12H20FO4+
247.1481	39	C19H19+
248.1556	1	C19H20+
249.1274	14	C18H17O+
249.1638	9	C19H21+
251.1428	10	C18H19O+
251.1796	4	C19H23+
253.1227	2	C17H17O2+
253.1587	6	C18H21O+
255.1379	26	C17H19O2+
255.1742	7	C18H23O+
256.1251	1	C20H16+
257.1536	59	C17H21O2+
258.1605	1	C17H22O2+
261.1274	1	C19H17O+
261.1488	5	C13H22FO4+
261.1637	23	C20H21+
263.1431	15	C19H19O+
264.1509	2	C19H20O+
265.1586	98	C19H21O+
267.1382	14	C18H19O2+
267.1744	58	C19H23O+
269.1534	4	C18H21O2+
271.1481	10	C21H19+
277.1586	8	C20H21O+
279.1383	4	C19H19O2+
279.1744	53	C20H23O+
281.1533	8	C19H21O2+
283.1691	62	C19H23O2+
284.1772	20	C19H24O2+
285.148	4	C18H21O3+
285.1652	10	C19H22FO+
285.1847	24	C19H25O2+
287.1804	6	C19H24FO+
289.1586	47	C21H21O+
292.1454	1	C20H20O2+
294.1623	1	C20H22O2+
295.1692	26	C20H23O2+
297.1497	2	C16H22FO4+
297.185	24	C20H25O2+
299.1641	13	C19H23O3+
299.1803	3	C20H24FO+
301.1796	11	C19H25O3+
303.1753	1	C19H24FO2+
305.191	4	C19H26FO2+
307.1693	136	C21H23O2+
309.1655	4	C21H22FO+
313.1796	26	C20H25O3+
315.1757	5	C20H24FO2+
315.1961	7	C17H28FO4+
317.1912	2	C20H26FO2+
319.1706	1	C19H24FO3+
325.1799	223	C21H25O3+
327.1755	18	C21H24FO2+
333.1857	4	C20H26FO3+
341.1749	14	C21H25O4+
342.1824	5	C21H26O4+
343.1905	215	C21H27O4+
345.1868	20	C21H26FO3+
349.1799	5	C23H25O3+
357.2066	4	C22H29O4+
361.2011	17	C21H29O5+
363.1973	12	C21H28FO4+
367.1909	31	C23H27O4+
385.2013	60	C23H29O5+
403.212	23	C23H31O6+
405.2079	9	C23H30FO5+
423.2181	999	C23H32FO6+
