Mass spectrum: Warfarin; LC-ESI-QFT; MS2; CE: 60; R=35000; [M+H]+
Name: Warfarin
Name: 2-hydroxy-3-(3-oxo-1-phenylbutyl)chromen-4-one
Name: Coumafen
Formula: C19H16O4
Exact mass: 308.10486
SMILES: O=C\1c3c(OC(/O)=C/1C(c2ccccc2)CC(=O)C)cccc3
InChI: InChI=1S/C19H16O4/c1-12(20)11-15(13-7-3-2-4-8-13)17-18(21)14-9-5-6-10-16(14)23-19(17)22/h2-10,15,22H,11H2,1H3
Instrument: Q Exactive Orbitrap Thermo Scientific
Instrument type: LC-ESI-QFT
Ms type: MS2
Ion mode: POSITIVE
Ionization: ESI
Fragmentation mode: HCD
Collision energy: 60 (nominal)
Resolution: 35000
Column name: XBridge C18 3.5um, 2.1x50mm, Waters
Retention time: 10.6 min
Base peak: 309.112
Precursor m/z: 309.1121
Precursor type: [M+H]+
m/z	relative intensity	assigned
65.0385	6	C5H5+
68.997	6	C3HO2+
89.0383	1	C7H5+
91.0542	25	C7H7+
93.0334	1	C6H5O+
95.0491	54	C6H7O+
103.0542	13	C8H7+
105.0334	8	C7H5O+
105.0447	5	C6H5N2+
105.0698	6	C8H9+
107.049	1	C7H7O+
111.0439	4	C6H7O2+
119.0491	8	C8H7O+
121.0283	218	C7H5O2+
128.062	8	C10H8+
129.0698	77	C10H9+
131.049	85	C9H7O+
139.0388	11	C7H7O3+
143.0854	3	C11H11+
145.0284	5	C9H5O2+
147.0804	104	C10H11O+
153.0696	3	C12H9+
155.0854	142	C12H11+
157.0283	14	C10H5O2+
163.0388	999	C9H7O3+
165.0696	18	C13H9+
167.0854	41	C13H11+
171.0804	15	C12H11O+
173.023	7	C10H5O3+
175.0388	25	C10H7O3+
177.0697	2	C14H9+
178.0774	23	C14H10+
179.0854	24	C14H11+
181.0644	5	C13H9O+
183.0804	255	C13H11O+
189.0546	23	C11H9O3+
191.0337	474	C10H7O4+
193.076	1	C13H9N2+
195.0802	20	C14H11O+
205.0647	33	C15H9O+
206.0728	1	C15H10O+
207.0801	7	C15H11O+
223.0752	127	C15H11O2+
233.0595	48	C16H9O2+
249.0541	9	C16H9O3+
251.0701	718	C16H11O3+
