Mass spectrum: Procymidone; LC-ESI-QFT; MS2; CE: 15; R=35000; [M+H]+
Name: Procymidone
Name: 3-(3,5-dichlorophenyl)-1,5-dimethyl-3-azabicyclo[3.1.0]hexane-2,4-dione
Formula: C13H11Cl2NO2
Exact mass: 283.01668
SMILES: Clc1cc(cc(Cl)c1)N2C(=O)C3(CC3(C2=O)C)C
InChI: InChI=1S/C13H11Cl2NO2/c1-12-6-13(12,2)11(18)16(10(12)17)9-4-7(14)3-8(15)5-9/h3-5H,6H2,1-2H3
Instrument: Q Exactive Orbitrap Thermo Scientific
Instrument type: LC-ESI-QFT
Ms type: MS2
Ion mode: POSITIVE
Ionization: ESI
Fragmentation mode: HCD
Collision energy: 15 (nominal)
Resolution: 35000
Column name: XBridge C18 3.5um, 2.1x50mm, Waters
Retention time: 11.5 min
Base peak: 284.0241
Precursor m/z: 284.024
Precursor type: [M+H]+
m/z	relative intensity	assigned
67.0543	1	C5H7+
95.049	2	C6H7O+
113.0597	3	C6H9O2+
228.0343	2	C11H12Cl2N+
256.029	84	C12H12Cl2NO+
284.0239	999	C13H12Cl2NO2+
