Mass spectrum: Cortisone; LC-ESI-QFT; MS2; CE: 150; R=35000; [M-H]-
Name: Cortisone
Name: 17,21-Dihydroxypregn-4-ene-3,11,20-trione
Name: (8S,9S,10R,13S,14S,17R)-17-hydroxy-17-(2-hydroxyacetyl)-10,13-dimethyl-1,2,6,7,8,9,12,14,15,16-decahydrocyclopenta[a]phenanthrene-3,11-dione
Formula: C21H28O5
Exact mass: 360.19367
SMILES: O=C(CO)[C@@]3(O)CC[C@H]2[C@@H]4CC\C1=C\C(=O)CC[C@]1(C)[C@H]4C(=O)C[C@@]23C
InChI: InChI=1S/C21H28O5/c1-19-7-5-13(23)9-12(19)3-4-14-15-6-8-21(26,17(25)11-22)20(15,2)10-16(24)18(14)19/h9,14-15,18,22,26H,3-8,10-11H2,1-2H3/t14-,15-,18+,19-,20-,21-/m0/s1
Instrument: Q Exactive Plus Orbitrap Thermo Scientific
Instrument type: LC-ESI-QFT
Ms type: MS2
Ion mode: NEGATIVE
Ionization: ESI
Fragmentation mode: HCD
Collision energy: 150 (nominal)
Resolution: 35000
Column name: XBridge C18 3.5um, 2.1x50mm, Waters
Retention time: 7.4 min
Base peak: 405.1915
Precursor m/z: 359.1864
Precursor type: [M-H]-
m/z	relative intensity	assigned
55.0189	73	C3H3O-
57.0346	999	C3H5O-
59.0139	32	C2H3O2-
65.0033	13	C4HO-
65.0397	188	C5H5-
67.019	52	C4H3O-
69.0345	44	C4H5O-
71.0139	9	C3H3O2-
77.0395	12	C6H5-
79.0553	105	C6H7-
80.0267	32	C5H4O-
81.0344	35	C5H5O-
89.0396	46	C7H5-
91.0553	95	C7H7-
93.0345	219	C6H5O-
95.0138	9	C5H3O2-
95.0502	113	C6H7O-
101.0397	58	C8H5-
102.0473	11	C8H6-
103.0553	16	C8H7-
105.0348	11	C7H5O-
105.071	14	C8H9-
106.0424	62	C7H6O-
107.0502	410	C7H7O-
108.0217	117	C6H4O2-
109.0294	8	C6H5O2-
109.0659	126	C7H9O-
115.0552	69	C9H7-
117.0348	34	C8H5O-
117.071	11	C9H9-
119.0502	321	C8H7O-
121.0295	232	C7H5O2-
121.0659	70	C8H9O-
122.0374	298	C7H6O2-
123.0452	129	C7H7O2-
129.0347	100	C9H5O-
129.0711	9	C10H9-
130.0423	130	C9H6O-
131.0502	59	C9H7O-
133.0661	12	C9H9O-
134.0374	70	C8H6O2-
135.0453	78	C8H7O2-
136.0529	32	C8H8O2-
137.0604	7	C8H9O2-
143.0502	133	C10H7O-
144.0579	29	C10H8O-
145.0294	44	C9H5O2-
145.0658	153	C10H9O-
146.0373	52	C9H6O2-
147.0452	455	C9H7O2-
148.053	67	C9H8O2-
149.0608	133	C9H9O2-
156.0579	11	C11H8O-
157.0656	13	C11H9O-
158.0374	14	C10H6O2-
159.0451	63	C10H7O2-
159.0822	6	C11H11O-
169.0659	11	C12H9O-
173.0604	7	C11H9O2-
