Mass spectrum: Fenamidone; LC-ESI-QFT; MS2; CE: 15; R=35000; [M+H]+
Name: Fenamidone
Name: (5S)-3-anilino-5-methyl-2-(methylthio)-5-phenyl-2-imidazolin-4-one
Formula: C17H17N3OS
Exact mass: 311.10923
SMILES: O=C2N(Nc1ccccc1)C(\SC)=N/[C@]2(c3ccccc3)C
InChI: InChI=1S/C17H17N3OS/c1-17(13-9-5-3-6-10-13)15(21)20(16(18-17)22-2)19-14-11-7-4-8-12-14/h3-12,19H,1-2H3/t17-/m0/s1
Instrument: Q Exactive Orbitrap Thermo Scientific
Instrument type: LC-ESI-QFT
Ms type: MS2
Ion mode: POSITIVE
Ionization: ESI
Fragmentation mode: HCD
Collision energy: 15 (nominal)
Resolution: 35000
Column name: XBridge C18 3.5um, 2.1x50mm, Waters
Retention time: 10.3 min
Base peak: 312.1166
Precursor m/z: 312.1165
Precursor type: [M+H]+
m/z	relative intensity	assigned
65.0385	13	C5H5+
74.0058	4	C2H4NS+
77.0382	1	C6H5+
91.0323	5	C2H7N2S+
92.0494	298	C6H6N+
103.0542	167	C8H7+
120.0807	51	C8H10N+
131.0491	75	C9H7O+
133.0632	1	C7H7N3+
133.0758	1	C8H9N2+
134.0708	9	C7H8N3+
138.037	1	C7H8NS+
143.0273	16	C5H7N2OS+
148.0756	1	C9H10NO+
150.0241	1	C7H6N2S+
151.0574	4	C9H11S+
161.0708	31	C9H9N2O+
165.048	175	C8H9N2S+
170.0963	10	C12H12N+
191.0636	1	C10H11N2S+
193.0792	16	C10H13N2S+
194.0961	5	C14H12N+
205.0795	5	C11H13N2S+
211.123	75	C14H15N2+
219.0585	7	C11H11N2OS+
221.0743	12	C11H13N2OS+
221.1073	11	C15H13N2+
222.0912	40	C15H12NO+
236.1181	999	C15H14N3+
239.1178	200	C15H15N2O+
264.1131	434	C16H14N3O+
265.1213	12	C16H15N3O+
267.095	69	C16H15N2S+
284.1218	11	C16H18N3S+
295.09	36	C17H15N2OS+
312.1163	704	C17H18N3OS+
