Mass spectrum: Losartan; LC-ESI-QFT; MS2; CE: 15; R=35000; [M-H]-
Name: Losartan
Name: [2-butyl-5-chloranyl-3-[[4-[2-(2H-1,2,3,4-tetrazol-5-yl)phenyl]phenyl]methyl]imidazol-4-yl]methanol
Formula: C22H23ClN6O
Exact mass: 421.15436
SMILES: Clc1nc(n(c1CO)Cc4ccc(c2ccccc2c3[nH]nnn3)cc4)CCCC
InChI: InChI=1S/C22H23ClN6O/c1-2-3-8-20-24-21(23)19(14-30)29(20)13-15-9-11-16(12-10-15)17-6-4-5-7-18(17)22-25-27-28-26-22/h4-7,9-12,30H,2-3,8,13-14H2,1H3,(H,25,26,27,28)
Instrument: Q Exactive Plus Orbitrap Thermo Scientific
Instrument type: LC-ESI-QFT
Ms type: MS2
Ion mode: NEGATIVE
Ionization: ESI
Fragmentation mode: HCD
Collision energy: 15 (nominal)
Resolution: 35000
Column name: XBridge C18 3.5um, 2.1x50mm, Waters
Retention time: 9.0 min
Base peak: 421.1545
Precursor m/z: 421.1549
Precursor type: [M-H]-
m/z	relative intensity	assigned
155.0381	9	C7H8ClN2-
156.046	10	C7H9ClN2-
179.0865	18	C14H11-
187.0641	18	C8H12ClN2O-
188.0359	1	C7H9ClN2O2-
195.0813	4	C14H11O-
272.1447	2	C20H18N-
299.155	2	C21H19N2-
320.1086	1	C20H17ClN2-
335.1319	33	C21H20ClN2-
363.1382	9	C21H20ClN4-
393.1487	13	C22H22ClN4O-
421.1548	999	C22H22ClN6O-
