Mass spectrum: Dicloxacillin; LC-ESI-QFT; MS2; CE: 150; R=35000; [M+H]+
Name: Dicloxacillin
Name: 6-[[3-(2,6-dichlorophenyl)-5-methyl-1,2-oxazole-4-carbonyl]amino]-3,3-dimethyl-7-oxo-4-thia-1-azabicyclo[3.2.0]heptane-2-carboxylic acid
Formula: C19H17Cl2N3O5S
Exact mass: 469.02660
SMILES: CC1=C(C(=NO1)C2=C(C=CC=C2Cl)Cl)C(=O)NC3C4N(C3=O)C(C(S4)(C)C)C(=O)O
InChI: InChI=1S/C19H17Cl2N3O5S/c1-7-10(12(23-29-7)11-8(20)5-4-6-9(11)21)15(25)22-13-16(26)24-14(18(27)28)19(2,3)30-17(13)24/h4-6,13-14,17H,1-3H3,(H,22,25)(H,27,28)
Instrument: Q Exactive Plus Orbitrap Thermo Scientific
Instrument type: LC-ESI-QFT
Ms type: MS2
Ion mode: POSITIVE
Ionization: ESI
Fragmentation mode: HCD
Collision energy: 150 (nominal)
Resolution: 35000
Column name: XBridge C18 3.5um, 2.1x50mm, Waters
Retention time: 9.6 min
Base peak: 470.0332
Precursor m/z: 470.0339
Precursor type: [M+H]+
m/z	relative intensity	assigned
50.0151	17	C4H2+
51.023	15	C4H3+
52.0183	16	C3H2N+
53.0022	16	C3HO+
53.0386	159	C4H5+
53.9975	5	C2NO+
54.0339	21	C3H4N+
55.0179	3	C3H3O+
55.0543	15	C4H7+
56.0495	7	C3H6N+
57.0574	1	C3H7N+
57.9872	13	C2H2S+
58.995	252	C2H3S+
59.9665	32	COS+
59.9903	2	CH2NS+
60.9841	5	C2H2Cl+
61.0073	21	C5H+
62.0059	15	CH4NS+
62.0151	48	C5H2+
63.023	146	C5H3+
64.0182	29	C4H2N+
65.0022	1	C4HO+
65.0387	12	C5H5+
66.0339	2	C4H4N+
67.0417	3	C4H5N+
68.013	1	C3H2NO+
68.0495	3	C4H6N+
69.0448	13	C3H5N2+
70.0652	90	C4H8N+
70.995	14	C3H3S+
71.9761	2	C3HCl+
72.0028	1	C3H4S+
72.984	395	C3H2Cl+
74.0151	999	C6H2+
75.0229	198	C6H3+
76.0181	12	C5H2N+
76.0308	2	C6H4+
77.0022	6	C5HO+
77.0385	2	C6H5+
78.0339	1	C5H4N+
79.0178	1	C5H3O+
79.029	1	C4H3N2+
80.0495	25	C5H6N+
81.0335	2	C5H5O+
81.0448	11	C4H5N2+
81.0573	1	C5H7N+
82.0651	1	C5H8N+
82.945	70	CHCl2+
83.9762	20	C4HCl+
84.984	34	C4H2Cl+
85.0075	2	C7H+
85.0107	25	C4H5S+
86.006	2	C3H4NS+
86.0151	28	C7H2+
86.9633	58	C3ClO+
87.0105	24	C6HN+
87.023	114	C7H3+
87.0263	53	C4H7S+
88.0182	111	C6H2N+
89.0023	7	C6HO+
89.0386	34	C7H5+
90.0341	1	C6H4N+
90.0465	5	C7H6+
92.0257	8	C6H4O+
92.0496	1	C6H6N+
93.0448	2	C5H5N2+
94.0653	2	C6H8N+
95.0493	4	C6H7O+
95.9761	10	C5HCl+
96.0443	1	C5H6NO+
96.9841	200	C5H2Cl+
97.9793	56	C4HClN+
97.9919	7	C5H3Cl+
98.0152	15	C8H2+
98.9996	11	C5H4Cl+
99.0105	18	C7HN+
99.023	29	C8H3+
100.0183	74	C7H2N+
100.0216	10	C4H6NS+
100.0307	7	C8H4+
101.0261	1	C7H3N+
102.0338	2	C7H4N+
102.0466	1	C8H6+
105.0448	5	C6H5N2+
106.945	118	C3HCl2+
107.9761	2	C6HCl+
108.9841	603	C6H2Cl+
109.9919	46	C6H3Cl+
112.0182	8	C8H2N+
112.0217	7	C5H6NS+
113.0261	7	C8H3N+
113.0295	1	C5H7NS+
113.0387	5	C9H5+
114.0339	425	C8H4N+
115.0417	1	C8H5N+
115.0544	2	C9H7+
116.0497	2	C8H6N+
118.0287	12	C7H4NO+
118.9452	5	C4HCl2+
120.9841	28	C7H2Cl+
121.9794	11	C6HClN+
121.9919	32	C7H3Cl+
122.9997	18	C7H4Cl+
123.0106	2	C9HN+
123.995	44	C6H3ClN+
127.0417	10	C9H5N+
128.0024	7	C6H5ClO+
128.0496	7	C9H6N+
129.0448	7	C8H5N2+
130.9451	25	C5HCl2+
132.0445	8	C8H6NO+
132.9607	32	C5H3Cl2+
135.9951	6	C7H3ClN+
136.0076	5	C8H5Cl+
140.0495	7	C10H6N+
142.0055	2	C6H5ClNO+
144.9608	11	C6H3Cl2+
145.0162	1	C5H6ClN2O+
147.995	34	C8H3ClN+
149.0028	47	C8H4ClN+
153.982	15	C4H6Cl2NO+
154.0401	2	C9H4N3+
156.9608	240	C7H3Cl2+
157.956	8	C6H2Cl2N+
164.0011	7	C4H6NO4S+
166.0055	2	C8H5ClNO+
170.9638	1	C7H3Cl2N+
172.9669	26	C3H6ClO4S+
