Mass spectrum: Aerucyclamide A; LC-ESI-QFT; MS2; CE: 120%; R=17500; [M+H]+
Name: Aerucyclamide A
Name: (1S,4S,7R,8S,18R)-4,18-bis[(2S)-butan-2-yl]-7-methyl-6-oxa-13,20-dithia-3,10,17,22,23,24-hexazatetracyclo[17.2.1.15,8.112,15]tetracosa-5(24),12(23),14,19(22)-tetraene-2,9,16-trione
Class: NA
Formula: C24H34N6O4S2
Exact mass: 534.2083
SMILES: CC[C@H](C)[C@@H]1NC(=O)[C@H]2CSC(=N2)[C@H](NC(=O)c3csc(CNC(=O)[C@H]4N=C1O[C@@H]4C)n3)[C@@H](C)CC
InChI: InChI=1S/C24H34N6O4S2/c1-6-11(3)17-23-30-19(13(5)34-23)22(33)25-8-16-26-14(9-35-16)20(31)29-18(12(4)7-2)24-27-15(10-36-24)21(32)28-17/h9,11-13,15,17-19H,6-8,10H2,1-5H3,(H,25,33)(H,28,32)(H,29,31)/t11-,12-,13+,15+,17-,18+,19-/m0/s1
Instrument: Q Exactive Plus Orbitrap Thermo Scientific
Instrument type: LC-ESI-QFT
Ms type: MS2
Ion mode: POSITIVE
Ionization: ESI
Fragmentation mode: HCD
Collision energy: 120 % (nominal)
Resolution: 17500
Column name: XBridge C18 3.5um, 2.1x50mm, Waters
Retention time: 10.697 min
Base peak: 164.9845
Precursor m/z: 535.2156
Precursor type: [M+H]+
m/z	relative intensity	assigned
53.0022	79	C3HO+
53.0387	55	C4H5+
54.0339	259	C3H4N+
56.0132	271	C2H2NO+
56.0495	573	C3H6N+
56.9794	233	C2HS+
57.0575	44	C3H7N+
57.9872	197	C2H2S+
58.0652	27	C3H8N+
58.995	999	C2H3S+
65.0385	61	C5H5+
67.0415	61	C4H5N+
67.0542	32	C5H7+
68.0495	76	C4H6N+
68.9795	45	C3HS+
69.0447	79	C3H5N2+
69.0698	174	C5H9+
69.9872	72	C3H2S+
70.995	134	C3H3S+
71.9902	172	C2H2NS+
72.998	74	C2H3NS+
79.0542	63	C6H7+
80.0494	134	C5H6N+
81.0573	37	C5H7N+
84.0445	71	C4H6NO+
84.9744	41	C3HOS+
86.0058	625	C3H4NS+
86.0965	60	C5H12N+
91.0542	46	C7H7+
94.0651	60	C6H8N+
95.0492	64	C6H7O+
95.0603	75	C5H7N2+
95.9904	30	C4H2NS+
96.0442	78	C5H6NO+
97.0107	80	C5H5S+
98.0059	345	C4H4NS+
99.0137	208	C4H5NS+
99.9852	87	C3H2NOS+
106.0651	61	C7H8N+
110.0059	73	C5H4NS+
111.0011	41	C4H3N2S+
111.9964	63	C3H2N3S+
112.0213	164	C5H6NS+
113.0168	31	C4H5N2S+
116.0164	96	C4H6NOS+
120.0804	38	H14N3O2S+
123.0137	46	C6H5NS+
124.0214	130	C6H6NS+
129.9956	693	C4H4NO2S+
141.0115	32	C5H5N2OS+
144.0113	116	C5H6NO2S+
157.0064	78	C5H5N2O2S+
167.0022	59	C5H3N4OS+
185.0014	78	C6H5N2O3S+
