Mass spectrum: 1-Methyl-1,2,3-benzotriazole; LC-ESI-QFT; MS2; CE: 120; R=35000; [M+H]+
Name: 1-Methyl-1,2,3-benzotriazole
Name: 1-methylbenzotriazole
Formula: C7H7N3
Exact mass: 133.06400
SMILES: CN1C2=CC=CC=C2N=N1
InChI: InChI=1S/C7H7N3/c1-10-7-5-3-2-4-6(7)8-9-10/h2-5H,1H3
Instrument: Q Exactive Plus Orbitrap Thermo Scientific
Instrument type: LC-ESI-QFT
Ms type: MS2
Ion mode: POSITIVE
Ionization: ESI
Fragmentation mode: HCD
Collision energy: 120 (nominal)
Resolution: 35000
Column name: XBridge C18 3.5um, 2.1x50mm, Waters
Retention time: 2.7 min
Base peak: 164.9845
Precursor m/z: 134.0713
Precursor type: [M+H]+
m/z	relative intensity	assigned
51.023	180	C4H3+
53.0385	187	C4H5+
55.018	86	C3H3O+
65.0385	384	C5H5+
72.0444	139	C3H6NO+
78.0338	79	C5H4N+
79.0543	703	C6H7+
89.0387	101	C7H5+
95.0492	999	C6H7O+
105.0448	591	C6H5N2+
106.0653	167	C7H8N+
