Mass spectrum: Cotinine; LC-ESI-QFT; MS2; CE: 180; R=35000; [M+H]+
Name: Cotinine
Name: (5S)-1-methyl-5-pyridin-3-ylpyrrolidin-2-one
Formula: C10H12N2O
Exact mass: 176.09496
SMILES: CN1[C@@H](CCC1=O)c2cccnc2
InChI: InChI=1S/C10H12N2O/c1-12-9(4-5-10(12)13)8-3-2-6-11-7-8/h2-3,6-7,9H,4-5H2,1H3/t9-/m0/s1
Instrument: Q Exactive Plus Orbitrap Thermo Scientific
Instrument type: LC-ESI-QFT
Ms type: MS2
Ion mode: POSITIVE
Ionization: ESI
Fragmentation mode: HCD
Collision energy: 180 (nominal)
Resolution: 35000
Column name: XBridge C18 3.5um, 2.1x50mm, Waters
Retention time: 1.1 min
Base peak: 177.1022
Precursor m/z: 177.1022
Precursor type: [M+H]+
m/z	relative intensity	assigned
50.0152	20	C4H2+
51.023	65	C4H3+
52.0309	7	C4H4+
53.0386	455	C4H5+
53.9975	1	C2NO+
54.0339	25	C3H4N+
55.0179	5	C3H3O+
55.0417	12	C3H5N+
56.0494	1	C3H6N+
58.0288	4	C2H4NO+
65.0386	28	C5H5+
66.0464	1	C5H6+
67.0417	3	C4H5N+
68.0495	18	C4H6N+
69.0336	4	C4H5O+
70.0651	71	C4H8N+
77.0386	5	C6H5+
78.0339	37	C5H4N+
79.0417	20	C5H5N+
80.0495	999	C5H6N+
83.0365	1	C4H5NO+
89.0386	22	C7H5+
90.0464	12	C7H6+
91.0543	23	C7H7+
92.0496	5	C6H6N+
93.0573	9	C6H7N+
95.0491	5	C6H7O+
96.0444	93	C5H6NO+
98.0601	13	C5H8NO+
104.0494	2	C7H6N+
105.0447	4	C6H5N2+
106.0652	1	C7H8N+
117.0574	22	C8H7N+
118.0652	11	C8H8N+
