Mass spectrum: Cortisone; LC-ESI-QFT; MS2; CE: 90; R=35000; [M-H]-
Name: Cortisone
Name: 17,21-Dihydroxypregn-4-ene-3,11,20-trione
Name: (8S,9S,10R,13S,14S,17R)-17-hydroxy-17-(2-hydroxyacetyl)-10,13-dimethyl-1,2,6,7,8,9,12,14,15,16-decahydrocyclopenta[a]phenanthrene-3,11-dione
Formula: C21H28O5
Exact mass: 360.19367
SMILES: O=C(CO)[C@@]3(O)CC[C@H]2[C@@H]4CC\C1=C\C(=O)CC[C@]1(C)[C@H]4C(=O)C[C@@]23C
InChI: InChI=1S/C21H28O5/c1-19-7-5-13(23)9-12(19)3-4-14-15-6-8-21(26,17(25)11-22)20(15,2)10-16(24)18(14)19/h9,14-15,18,22,26H,3-8,10-11H2,1-2H3/t14-,15-,18+,19-,20-,21-/m0/s1
Instrument: Q Exactive Plus Orbitrap Thermo Scientific
Instrument type: LC-ESI-QFT
Ms type: MS2
Ion mode: NEGATIVE
Ionization: ESI
Fragmentation mode: HCD
Collision energy: 90 (nominal)
Resolution: 35000
Column name: XBridge C18 3.5um, 2.1x50mm, Waters
Retention time: 7.4 min
Base peak: 405.1915
Precursor m/z: 359.1864
Precursor type: [M-H]-
m/z	relative intensity	assigned
55.0189	7	C3H3O-
57.0346	520	C3H5O-
59.0139	16	C2H3O2-
65.0397	16	C5H5-
67.0189	6	C4H3O-
67.0553	1	C5H7-
69.0346	16	C4H5O-
71.014	8	C3H3O2-
71.0503	4	C4H7O-
73.0296	3	C3H5O2-
77.0398	1	C6H5-
79.0553	35	C6H7-
80.0268	15	C5H4O-
81.0346	25	C5H5O-
83.0137	1	C4H3O2-
83.0503	15	C5H7O-
85.0295	6	C4H5O2-
91.0554	21	C7H7-
93.0346	31	C6H5O-
93.0709	13	C7H9-
94.0424	25	C6H6O-
95.014	7	C5H3O2-
95.0503	118	C6H7O-
96.0217	1	C5H4O2-
97.0659	86	C6H9O-
99.0451	6	C5H7O2-
105.0345	3	C7H5O-
105.071	12	C8H9-
106.0424	19	C7H6O-
107.0503	271	C7H7O-
107.0866	18	C8H11-
108.0217	71	C6H4O2-
109.0659	367	C7H9O-
110.0373	3	C6H6O2-
111.0087	1	C5H3O3-
111.0452	3	C6H7O2-
111.0815	4	C7H11O-
115.0551	1	C9H7-
117.0709	3	C9H9-
119.0502	109	C8H7O-
120.0581	15	C8H8O-
121.0295	25	C7H5O2-
121.0659	108	C8H9O-
122.0374	676	C7H6O2-
123.0452	228	C7H7O2-
123.0816	91	C8H11O-
124.0166	39	C6H4O3-
125.0244	1	C6H5O3-
125.0608	27	C7H9O2-
129.0346	5	C9H5O-
129.071	6	C10H9-
130.0423	10	C9H6O-
131.0502	12	C9H7O-
132.0582	3	C9H8O-
133.0659	23	C9H9O-
133.1023	2	C10H13-
134.0373	55	C8H6O2-
135.0452	79	C8H7O2-
135.0816	57	C9H11O-
136.0164	11	C7H4O3-
136.0529	173	C8H8O2-
137.0244	86	C7H5O3-
137.0608	685	C8H9O2-
138.0322	11	C7H6O3-
143.0502	15	C10H7O-
143.0865	1	C11H11-
144.0578	1	C10H8O-
145.0659	49	C10H9O-
146.0375	7	C9H6O2-
146.0738	10	C10H10O-
147.0452	82	C9H7O2-
147.0816	21	C10H11O-
148.0531	105	C9H8O2-
149.0608	999	C9H9O2-
150.0323	7	C8H6O3-
150.0688	1	C9H10O2-
151.0401	32	C8H7O3-
151.0766	3	C9H11O2-
153.0193	8	C7H5O4-
154.0272	38	C7H6O4-
156.058	1	C11H8O-
157.0659	10	C11H9O-
158.0374	1	C10H6O2-
159.0452	26	C10H7O2-
159.0815	21	C11H11O-
160.0531	8	C10H8O2-
161.0609	25	C10H9O2-
161.0972	50	C11H13O-
162.0684	10	C10H10O2-
163.0765	24	C10H11O2-
163.1128	1	C11H15O-
164.084	1	C10H12O2-
167.0349	4	C8H7O4-
168.0429	4	C8H8O4-
169.0655	1	C12H9O-
171.0816	8	C12H11O-
172.0531	1	C11H8O2-
173.0608	21	C11H9O2-
173.0971	1	C12H13O-
174.0685	3	C11H10O2-
175.0764	25	C11H11O2-
175.1128	9	C12H15O-
176.084	3	C11H12O2-
177.0556	4	C10H9O3-
177.0917	2	C11H13O2-
183.0816	2	C13H11O-
185.0606	1	C12H9O2-
185.0973	2	C13H13O-
187.0765	34	C12H11O2-
187.113	6	C13H15O-
189.0921	4	C12H13O2-
191.0714	1	C11H11O3-
197.0976	1	C14H13O-
198.068	2	C13H10O2-
199.0765	11	C13H11O2-
199.1129	1	C14H15O-
200.0847	1	C13H12O2-
201.0925	1	C13H13O2-
201.1282	5	C14H17O-
209.0969	1	C15H13O-
211.0763	3	C14H11O2-
211.1132	1	C15H15O-
213.0921	9	C14H13O2-
214.0999	8	C14H14O2-
215.1073	1	C14H15O2-
223.076	1	C15H11O2-
225.0919	1	C15H13O2-
225.1286	1	C16H17O-
227.1077	3	C15H15O2-
229.1227	2	C15H17O2-
237.0925	3	C16H13O2-
239.1078	1	C16H15O2-
241.0864	1	C15H13O3-
253.1233	4	C17H17O2-
255.1023	4	C16H15O3-
256.1099	1	C16H16O3-
267.1393	1	C18H19O2-
269.1547	13	C18H21O2-
271.1344	5	C17H19O3-
