Mass spectrum: Chlordiazepoxide; LC-ESI-QFT; MS2; CE: 75; R=35000; [M-H]-
Name: Chlordiazepoxide
Name: Zetran
Name: 7-chloro-4-hydroxy-N-methyl-5-phenyl-3H-1,4-benzodiazepin-2-imine
Formula: C16H14ClN3O
Exact mass: 299.08254
SMILES: CN=C1CN(C(=C2C=C(C=CC2=N1)Cl)C3=CC=CC=C3)O
InChI: InChI=1S/C16H14ClN3O/c1-18-15-10-20(21)16(11-5-3-2-4-6-11)13-9-12(17)7-8-14(13)19-15/h2-9,21H,10H2,1H3
Instrument: Q Exactive Plus Orbitrap Thermo Scientific
Instrument type: LC-ESI-QFT
Ms type: MS2
Ion mode: NEGATIVE
Ionization: ESI
Fragmentation mode: HCD
Collision energy: 75 (nominal)
Resolution: 35000
Column name: XBridge C18 3.5um, 2.1x50mm, Waters
Retention time: 6.2 min
Base peak: 298.0748
Precursor m/z: 298.0753
Precursor type: [M-H]-
m/z	relative intensity	assigned
55.0301	43	C2H3N2-
102.0349	2	C7H4N-
111.0007	3	C6H4Cl-
116.0143	3	C7H2NO-
145.0406	17	C8H5N2O-
151.9907	10	C7H3ClNO-
190.0661	47	C14H8N-
191.0613	9	C13H7N2-
193.077	2	C13H9N2-
202.0535	4	C14H6N2-
215.0615	48	C15H7N2-
217.0769	266	C15H9N2-
218.0846	3	C15H10N2-
219.0561	6	C14H7N2O-
221.0719	32	C14H9N2O-
222.0789	2	C14H10N2O-
224.0271	35	C14H7ClN-
226.0428	110	C14H9ClN-
227.0382	4	C13H8ClN2-
238.0302	999	C14H7ClN2-
239.0382	47	C14H8ClN2-
240.0464	3	C14H9ClN2-
241.0301	2	C14H8ClNO-
249.0669	6	C12H12ClN3O-
251.038	284	C15H8ClN2-
253.0536	978	C15H10ClN2-
255.0333	5	C14H8ClN2O-
