Mass spectrum: MCYR; LC-ESI-QFT; MS2; CE: 150%; R=17500; [M+H]+
Name: MCYR
Name: Microcystin YR
Name: (5R,8S,11R,12S,15S,18S,19S,22R)-15-[3-(diaminomethylideneamino)propyl]-8-[(4-hydroxyphenyl)methyl]-18-[(1E,3E,5S,6S)-6-methoxy-3,5-dimethyl-7-phenylhepta-1,3-dienyl]-1,5,12,19-tetramethyl-2-methylidene-3,6,9,13,16,20,25-heptaoxo-1,4,7,10,14,17,21-heptazacyclopentacosane-11,22-dicarboxylic acid
Class: NA
Formula: C52H72N10O13
Exact mass: 1044.5280
SMILES: CO[C@@H](Cc1ccccc1)[C@@H](C)\C=C(C)\C=C\[C@@H]2NC(=O)[C@H](CCCNC(N)=N)NC(=O)[C@@H](C)[C@@H](NC(=O)[C@H](Cc3ccc(O)cc3)NC(=O)[C@@H](C)NC(=O)C(=C)N(C)C(=O)CC[C@@H](NC(=O)[C@H]2C)C(O)=O)C(O)=O
InChI: InChI=1S/C52H72N10O13/c1-28(25-29(2)41(75-8)27-34-13-10-9-11-14-34)16-21-37-30(3)44(65)59-39(50(71)72)22-23-42(64)62(7)33(6)47(68)56-32(5)46(67)60-40(26-35-17-19-36(63)20-18-35)49(70)61-43(51(73)74)31(4)45(66)58-38(48(69)57-37)15-12-24-55-52(53)54/h9-11,13-14,16-21,25,29-32,37-41,43,63H,6,12,15,22-24,26-27H2,1-5,7-8H3,(H,56,68)(H,57,69)(H,58,66)(H,59,65)(H,60,67)(H,61,70)(H,71,72)(H,73,74)(H4,53,54,55)/b21-16+,28-25+/t29-,30-,31-,32+,37-,38-,39+,40-,41-,43+/m0/s1
Instrument: Q Exactive Plus Orbitrap Thermo Scientific
Instrument type: LC-ESI-QFT
Ms type: MS2
Ion mode: POSITIVE
Ionization: ESI
Fragmentation mode: HCD
Collision energy: 150 % (nominal)
Resolution: 17500
Column name: XBridge C18 3.5um, 2.1x50mm, Waters
Retention time: 8.039 min
Base peak: 523.2719
Precursor m/z: 1045.5353
Precursor type: [M+H]+
m/z	relative intensity	assigned
74.0239	3	C2H4NO2+
77.0385	62	C6H5+
79.0542	154	C6H7+
80.0495	44	C5H6N+
81.0334	8	C5H5O+
81.07	7	C6H9+
82.0287	23	C4H4NO+
82.0651	48	C5H8N+
84.0444	95	C4H6NO+
85.0283	12	C4H5O2+
85.0761	13	C4H9N2+
86.0601	6	C4H8NO+
89.0386	5	C7H5+
91.0543	817	C7H7+
92.0622	8	C7H8+
93.0573	7	C6H7N+
93.0699	49	C7H9+
94.0415	4	C6H6O+
94.0652	22	C6H8N+
95.0492	505	C6H7O+
95.0604	35	C5H7N2+
96.0445	14	C5H6NO+
96.0809	5	C6H10N+
97.0761	35	C5H9N2+
98.06	49	C5H8NO+
99.0191	11	C3H3N2O2+
99.0915	20	C5H11N2+
102.0464	40	C8H6+
103.0542	999	C8H7+
105.0448	179	C6H5N2+
105.0699	268	C8H9+
106.0525	6	C6H6N2+
106.0649	8	C7H8N+
107.0492	46	C7H7O+
107.0855	103	C8H11+
108.0686	7	C6H8N2+
108.0811	4	C7H10N+
109.0649	35	C7H9O+
110.06	9	C6H8NO+
112.087	25	C5H10N3+
113.023	19	C5H5O3+
115.0542	136	C9H7+
115.0866	9	C5H11N2O+
116.062	12	C9H8+
117.0575	8	C8H7N+
117.0699	42	C9H9+
118.065	11	C8H8N+
119.0492	70	C8H7O+
119.0604	16	C7H7N2+
119.0854	16	C9H11+
120.0571	15	C8H8O+
120.0809	11	C8H10N+
121.0759	43	C7H9N2+
125.0711	4	C6H9N2O+
127.0866	73	C6H11N2O+
128.0619	14	C10H8+
129.0697	11	C10H9+
130.0653	6	C9H8N+
131.0857	9	C10H11+
135.0804	14	C9H11O+
136.0758	41	C8H10NO+
149.0712	10	C8H9N2O+
162.0553	4	C9H8NO2+
165.07	12	C13H9+
167.0814	15	C8H11N2O2+
