Mass spectrum: Morphine; LC-ESI-ITFT; MS2; CE: 35%; R=30000; [M+H]+
Name: Morphine
Name: (4R,4aR,7S,7aR,12bS)-3-methyl-2,4,4a,7,7a,13-hexahydro-1H-4,12-methanobenzofuro[3,2-e]isoquinoline-7,9-diol
Formula: C17H19NO3
Exact mass: 285.1364935
SMILES: CN1CC[C@]23[C@@H]4[C@H]1CC5=C2C(=C(C=C5)O)O[C@H]3[C@H](C=C4)O
InChI: InChI=1S/C17H19NO3/c1-18-7-6-17-10-3-5-13(20)16(17)21-15-12(19)4-2-9(14(15)17)8-11(10)18/h2-5,10-11,13,16,19-20H,6-8H2,1H3/t10-,11+,13-,16-,17-/m0/s1
Instrument: LTQ Orbitrap XL Thermo Scientific
Instrument type: LC-ESI-ITFT
Ms type: MS2
Ion mode: POSITIVE
Ionization: ESI
Fragmentation mode: CID
Collision energy: 35 % (nominal)
Resolution: 30000
Column name: XBridge C18 3.5um, 2.1x50mm, Waters
Retention time: 1.1 min
Base peak: 286.1448
Precursor m/z: 286.1438
Precursor type: [M+H]+
m/z	relative intensity	assigned
107.0492	2	C7H7O+
117.0698	3	C9H9+
121.0649	19	C8H9O+
123.0441	23	C7H7O2+
132.0808	3	C9H10N+
137.0597	4	C8H9O2+
143.0492	2	C10H7O+
144.0811	3	C10H10N+
145.0648	24	C10H9O+
146.0965	5	C10H12N+
147.0441	75	C9H7O2+
149.0599	3	C9H9O2+
153.0699	8	C12H9+
154.0777	2	C12H10+
155.0856	76	C12H11+
157.0648	8	C11H9O+
158.0966	7	C11H12N+
160.0518	3	C10H8O2+
160.0759	3	C10H10NO+
161.0599	16	C10H9O2+
162.0914	28	C10H12NO+
164.107	10	C10H14NO+
165.07	41	C13H9+
166.0863	32	C9H12NO2+
169.0647	3	C12H9O+
171.0444	6	C11H7O2+
173.0597	116	C11H9O2+
173.0962	24	C12H13O+
178.0863	51	C10H12NO2+
179.0857	4	C14H11+
181.0649	19	C13H9O+
181.1014	3	C14H13+
183.0805	227	C13H11O+
185.0598	125	C12H9O2+
187.0754	16	C12H11O2+
191.0856	42	C15H11+
193.0648	80	C14H9O+
193.1011	21	C15H13+
195.0807	6	C14H11O+
197.096	6	C14H13O+
199.0754	34	C13H11O2+
201.0912	999	C13H13O2+
202.0778	2	C16H10+
203.0856	13	C16H11+
205.1013	6	C16H13+
207.0805	16	C15H11O+
208.0881	6	C15H12O+
209.0598	52	C14H9O2+
209.0962	32	C15H13O+
211.0755	324	C14H11O2+
213.0547	3	C13H9O3+
213.0912	4	C14H13O2+
218.0722	3	C16H10O+
219.0805	82	C16H11O+
221.0962	60	C16H13O+
222.068	2	C15H10O2+
223.1118	15	C16H15O+
225.091	19	C15H13O2+
227.0702	32	C14H11O3+
227.1067	14	C15H15O2+
229.0861	577	C14H13O3+
237.091	64	C16H13O2+
239.1067	74	C16H15O2+
240.1383	6	C16H18NO+
243.1013	5	C15H15O3+
250.1227	9	C17H16NO+
252.102	2	C16H14NO2+
253.1097	4	C16H15NO2+
255.1015	16	C16H15O3+
268.1333	335	C17H18NO2+
