Mass spectrum: Dimethomorph; LC-ESI-ITFT; MS2; CE: 45%; R=7500; [M+H]+
Name: Dimethomorph
Name: (Z)-3-(4-chlorophenyl)-3-(3,4-dimethoxyphenyl)-1-(4-morpholinyl)-2-propen-1-one
Formula: C21H22ClNO4
Exact mass: 387.1237
SMILES: COC1=C(C=C(C=C1)/C(=C/C(=O)N2CCOCC2)/C3=CC=C(C=C3)Cl)OC
InChI: InChI=1S/C21H22ClNO4/c1-25-19-8-5-16(13-20(19)26-2)18(15-3-6-17(22)7-4-15)14-21(24)23-9-11-27-12-10-23/h3-8,13-14H,9-12H2,1-2H3/b18-14+
Instrument: LTQ Orbitrap XL Thermo Scientific
Instrument type: LC-ESI-ITFT
Ms type: MS2
Ion mode: POSITIVE
Ionization: ESI
Fragmentation mode: HCD
Collision energy: 45 % (nominal)
Resolution: 7500
Column name: XBridge C18 3.5um, 2.1x50mm, Waters
Retention time: 10.8 min
Base peak: 388.1318
Precursor m/z: 388.131
Precursor type: [M+H]+
m/z	relative intensity	assigned
70.0288	36	C3H4NO+
88.0757	1	C4H10NO+
114.055	66	C5H8NO2+
125.0153	7	C7H6Cl+
138.9946	132	C7H4ClO+
165.0548	562	C9H9O3+
208.0522	1	C11H11ClNO+
215.0258	1	C13H8ClO+
223.0756	3	C12H14ClNO+
238.0988	14	C16H14O2+
240.0325	1	C15H9ClO+
242.0494	19	C15H11ClO+
243.0211	3	C14H8ClO2+
243.0562	2	C15H12ClO+
257.0356	4	C15H10ClO2+
258.0442	35	C15H11ClO2+
261.0679	2	C15H14ClO2+
266.0936	10	C17H14O3+
270.044	17	C16H11ClO2+
271.051	1	C16H12ClO2+
273.0678	194	C16H14ClO2+
286.039	16	C16H11ClO3+
301.063	999	C17H14ClO3+
