Mass spectrum: Imazaquin; LC-ESI-QFT; MS2; CE: 180; R=35000; [M+H]+
Name: Imazaquin
Name: 2-(4-methyl-5-oxo-4-propan-2-yl-1H-imidazol-2-yl)quinoline-3-carboxylic acid
Formula: C17H17N3O3
Exact mass: 311.12699
SMILES: CC(C)C1(C(=O)NC(=N1)C2=NC3=CC=CC=C3C=C2C(=O)O)C
InChI: InChI=1S/C17H17N3O3/c1-9(2)17(3)16(23)19-14(20-17)13-11(15(21)22)8-10-6-4-5-7-12(10)18-13/h4-9H,1-3H3,(H,21,22)(H,19,20,23)
Instrument: Q Exactive Plus Orbitrap Thermo Scientific
Instrument type: LC-ESI-QFT
Ms type: MS2
Ion mode: POSITIVE
Ionization: ESI
Fragmentation mode: HCD
Collision energy: 180 (nominal)
Resolution: 35000
Column name: XBridge C18 3.5um, 2.1x50mm, Waters
Retention time: 7.0 min
Base peak: 312.1336
Precursor m/z: 312.1343
Precursor type: [M+H]+
m/z	relative intensity	assigned
50.0151	75	C4H2+
51.023	80	C4H3+
52.0182	10	C3H2N+
53.0022	30	C3HO+
53.0386	36	C4H5+
53.9975	5	C2NO+
55.0179	3	C3H3O+
56.0495	65	C3H6N+
58.0651	3	C3H8N+
61.0073	3	C5H+
62.0151	9	C5H2+
63.0229	49	C5H3+
65.0022	6	C4HO+
65.0386	11	C5H5+
66.0464	6	C5H6+
67.0543	3	C5H7+
67.9893	3	C3O2+
69.0698	3	C5H9+
70.0651	113	C4H8N+
71.073	17	C4H9N+
74.0151	188	C6H2+
75.0229	999	C6H3+
76.0181	25	C5H2N+
76.0307	53	C6H4+
77.0022	6	C5HO+
77.0385	65	C6H5+
78.0339	3	C5H4N+
78.0464	22	C6H6+
79.0417	1	C5H5N+
81.0335	6	C5H5O+
87.0229	7	C7H3+
88.0183	4	C6H2N+
89.0386	117	C7H5+
90.0339	3	C6H4N+
90.0464	19	C7H6+
91.0543	24	C7H7+
94.0414	2	C6H6O+
95.0492	104	C6H7O+
98.0151	9	C8H2+
99.0104	14	C7HN+
99.0229	32	C8H3+
100.0182	65	C7H2N+
100.0308	46	C8H4+
101.026	10	
101.0386	105	C8H5+
102.0339	26	C7H4N+
102.0464	60	C8H6+
103.0417	10	C7H5N+
103.0543	3	C8H7+
105.0448	63	C6H5N2+
113.0386	3	C9H5+
114.0339	3	C8H4N+
115.0543	13	C9H7+
116.0495	14	C8H6N+
117.0574	1	C8H7N+
118.0288	4	C7H4NO+
118.0412	1	C8H6O+
119.0492	65	C8H7O+
120.0445	6	C7H6NO+
126.0339	16	C9H4N+
127.0417	99	C9H5N+
128.0495	62	C9H6N+
129.0447	201	C8H5N2+
130.0401	27	C7H4N3+
139.0543	1	C11H7+
140.0496	7	C10H6N+
141.0572	1	C10H7N+
144.0445	5	C9H6NO+
146.0601	28	C9H8NO+
152.062	1	C12H8+
153.0449	14	C10H5N2+
154.0401	20	C9H4N3+
155.0607	3	C10H7N2+
