Mass spectrum: 4-Acetamidoantipyrine; LC-ESI-ITFT; MS2; CE: 60%; R=15000; [M+H]+
Name: 4-Acetamidoantipyrine
Name: N-(1,5-dimethyl-3-oxidanylidene-2-phenyl-pyrazol-4-yl)ethanamide
Formula: C13H15N3O2
Exact mass: 245.1164
SMILES: CC(=O)NC=2C(=O)N(c1ccccc1)N(C)C=2C
InChI: InChI=1S/C13H15N3O2/c1-9-12(14-10(2)17)13(18)16(15(9)3)11-7-5-4-6-8-11/h4-8H,1-3H3,(H,14,17)
Instrument: LTQ Orbitrap XL Thermo Scientific
Instrument type: LC-ESI-ITFT
Ms type: MS2
Ion mode: POSITIVE
Ionization: ESI
Fragmentation mode: HCD
Collision energy: 60 % (nominal)
Resolution: 15000
Column name: XBridge C18 3.5um, 2.1x50mm, Waters
Retention time: 3.7 min
Base peak: 246.1244
Precursor m/z: 246.1237
Precursor type: [M+H]+
m/z	relative intensity	assigned
56.0495	219	C3H6N+
58.0651	4	C3H8N+
68.0494	5	C4H6N+
77.0386	50	C6H5+
83.0604	999	C4H7N2+
85.076	36	C4H9N2+
94.0651	91	C6H8N+
96.0808	5	C6H10N+
104.0495	715	C7H6N+
105.0447	10	C6H5N2+
106.0651	4	C7H8N+
111.0553	11	C5H7N2O+
118.0649	11	C8H8N+
119.0604	8	C7H7N2+
130.0654	6	C9H8N+
131.0602	10	C8H7N2+
132.0444	8	C8H6NO+
144.0688	4	C9H8N2+
144.0809	8	C10H10N+
145.076	31	C9H9N2+
145.0887	11	C10H11N+
146.06	41	C9H8NO+
158.0605	9	C10H8NO+
159.0553	18	C9H7N2O+
159.0917	174	C10H11N2+
171.0557	9	C10H7N2O+
171.0915	7	C11H11N2+
172.0632	36	C10H8N2O+
173.071	36	C10H9N2O+
185.0709	17	C11H9N2O+
186.0784	9	C11H10N2O+
187.0865	61	C11H11N2O+
189.0896	16	C10H11N3O+
200.1176	5	C12H14N3+
204.1131	107	C11H14N3O+
213.0895	19	C12H11N3O+
226.0974	6	C13H12N3O+
228.1131	112	C13H14N3O+
