Mass spectrum: 1-Chlorobenzotriazole; LC-ESI-QFT; MS2; CE: 150; R=35000; [M+H]+
Name: 1-Chlorobenzotriazole
Name: 1-chloro-benzotriazole
Name: Chlorobenzotriazole
Formula: C6H4ClN3
Exact mass: 153.00937
SMILES: C1=CC=C2C(=C1)N=NN2Cl
InChI: InChI=1S/C6H4ClN3/c7-10-6-4-2-1-3-5(6)8-9-10/h1-4H
Instrument: Q Exactive Plus Orbitrap Thermo Scientific
Instrument type: LC-ESI-QFT
Ms type: MS2
Ion mode: POSITIVE
Ionization: ESI
Fragmentation mode: HCD
Collision energy: 150 (nominal)
Resolution: 35000
Column name: XBridge C18 3.5um, 2.1x50mm, Waters
Retention time: 6.4 min
Base peak: 154.0164
Precursor m/z: 154.0167
Precursor type: [M+H]+
m/z	relative intensity	assigned
50.0151	1	C4H2+
52.0182	13	C3H2N+
53.0022	7	C3HO+
53.9974	1	C2NO+
55.0178	4	C3H3O+
61.0073	8	C5H+
61.9792	23	CHClN+
62.0151	53	C5H2+
63.0229	401	C5H3+
64.0182	107	C4H2N+
64.0307	59	C5H4+
65.026	16	C4H3N+
66.0338	3	C4H4N+
72.9839	999	C3H2Cl+
74.0151	1	C6H2+
74.9996	1	C3H4Cl+
75.0103	3	C5HN+
75.9947	2	C2H3ClN+
76.0181	16	C5H2N+
76.99	2	CH2ClN2+
81.0335	3	C5H5O+
84.9839	1	C4H2Cl+
89.0259	3	C6H3N+
90.0339	53	C6H4N+
91.0417	77	C6H5N+
92.0369	3	C5H4N2+
97.9917	1	C5H3Cl+
98.9996	266	C5H4Cl+
119.0478	19	C6H5N3+
125.0026	8	C6H4ClN+
126.0105	1	C6H5ClN+
154.0167	1	C6H5ClN3+
