Mass spectrum: Oxytetracycline; LC-ESI-QFT; MS2; CE: 180; R=35000; [M-H]-
Name: Oxytetracycline
Name: (4S,4aR,5S,5aR,6S,12aS)-4-(Dimethylamino)-3,5,6,10,12,12a-hexahydroxy-6-methyl-1,11-dioxo-1,4,4a,5,5a,6,11,12a-octahydro-2-tetracenecarboxamide
Name: 2-carbamoyl-4-(dimethylazaniumyl)-5,6,10,11,12a-pentahydroxy-6-methyl-3,12-dioxo-4,4a,5,5a-tetrahydrotetracen-1-olate
Formula: C22H24N2O9
Exact mass: 460.14818
SMILES: CC1(C2C(C3C(C(=O)C(=C(C3(C(=O)C2=C(C4=C1C=CC=C4O)O)O)O)C(=O)N)N(C)C)O)O
InChI: InChI=1S/C22H24N2O9/c1-21(32)7-5-4-6-8(25)9(7)15(26)10-12(21)17(28)13-14(24(2)3)16(27)11(20(23)31)19(30)22(13,33)18(10)29/h4-6,12-14,17,25-26,28,30,32-33H,1-3H3,(H2,23,31)
Instrument: Q Exactive Plus Orbitrap Thermo Scientific
Instrument type: LC-ESI-QFT
Ms type: MS2
Ion mode: NEGATIVE
Ionization: ESI
Fragmentation mode: HCD
Collision energy: 180 (nominal)
Resolution: 35000
Column name: XBridge C18 3.5um, 2.1x50mm, Waters
Retention time: 4.3 min
Base peak: 459.1405
Precursor m/z: 459.1409
Precursor type: [M-H]-
m/z	relative intensity	assigned
50.0035	132	C3N-
51.0239	9	C4H3-
53.0033	60	C3HO-
55.0188	12	C3H3O-
63.024	32	C5H3-
64.0192	18	C4H2N-
65.0033	308	C4HO-
65.0397	131	C5H5-
65.9985	999	C3NO-
67.0189	33	C4H3O-
68.0143	10	C3H2NO-
68.9982	190	C3HO2-
69.0344	10	C4H5O-
79.0189	11	C5H3O-
89.0397	138	C7H5-
91.0189	68	C6H3O-
93.0346	128	C6H5O-
95.0138	48	C5H3O2-
96.0092	8	C4H2NO2-
108.0217	67	C6H4O2-
113.0396	36	C9H5-
115.0553	43	C9H7-
117.0347	131	C8H5O-
120.0088	18	C6H2NO2-
130.042	26	C9H6O-
139.0551	8	C11H7-
141.0344	28	C10H5O-
143.0501	94	C10H7O-
145.0294	43	C9H5O2-
167.0502	32	C12H7O-
169.0291	14	C11H5O2-
171.0452	15	C11H7O2-
