Mass spectrum: Alfuzosin; LC-ESI-QFT; MS2; CE: 30; R=35000; [M+H]+
Name: Alfuzosin
Name: N-{3-[(4-Amino-6,7-dimethoxy-2-quinazolinyl)(methyl)amino]propyl}tetrahydro-2-furancarboxamide
Name: N-[3-[(4-amino-6,7-dimethoxyquinazolin-2-yl)-methylamino]propyl]oxolane-2-carboxamide
Formula: C19H27N5O4
Exact mass: 389.20630
SMILES: CN(CCCNC(=O)C1CCCO1)C2=NC3=CC(=C(C=C3C(=N2)N)OC)OC
InChI: InChI=1S/C19H27N5O4/c1-24(8-5-7-21-18(25)14-6-4-9-28-14)19-22-13-11-16(27-3)15(26-2)10-12(13)17(20)23-19/h10-11,14H,4-9H2,1-3H3,(H,21,25)(H2,20,22,23)
Instrument: Q Exactive Plus Orbitrap Thermo Scientific
Instrument type: LC-ESI-QFT
Ms type: MS2
Ion mode: POSITIVE
Ionization: ESI
Fragmentation mode: HCD
Collision energy: 30 (nominal)
Resolution: 35000
Column name: XBridge C18 3.5um, 2.1x50mm, Waters
Retention time: 5.3 min
Base peak: 390.2132
Precursor m/z: 390.2136
Precursor type: [M+H]+
m/z	relative intensity	assigned
71.049	14	C4H7O+
86.0599	1	C4H8NO+
100.0756	2	C5H10NO+
128.0705	3	C6H10NO2+
156.1019	161	C8H14NO2+
235.1189	160	C11H15N4O2+
247.1184	1	C12H15N4O2+
275.1501	14	C14H19N4O2+
292.1768	5	C14H22N5O2+
375.1899	1	C18H25N5O4+
390.2134	999	C19H28N5O4+
