Mass spectrum: Pheniramine-N-oxide; LC-ESI-QFT; MS2; CE: 90; R=35000; [M+H]+
Name: Pheniramine-N-oxide
Name: N,N-dimethyl-3-phenyl-3-pyridin-2-ylpropan-1-amine oxide
Formula: C16H20N2O
Exact mass: 256.15756
SMILES: C[N+](C)(CCC(c1ccccc1)c2ccccn2)[O-]
InChI: InChI=1S/C16H20N2O/c1-18(2,19)13-11-15(14-8-4-3-5-9-14)16-10-6-7-12-17-16/h3-10,12,15H,11,13H2,1-2H3
Instrument: Q Exactive Plus Orbitrap Thermo Scientific
Instrument type: LC-ESI-QFT
Ms type: MS2
Ion mode: POSITIVE
Ionization: ESI
Fragmentation mode: HCD
Collision energy: 90 (nominal)
Resolution: 35000
Column name: XBridge C18 3.5um, 2.1x50mm, Waters
Retention time: 4.2 min
Base peak: 257.1646
Precursor m/z: 257.1648
Precursor type: [M+H]+
m/z	relative intensity	assigned
65.0386	16	C5H5+
78.0339	2	C5H4N+
80.0494	3	C5H6N+
91.0542	231	C7H7+
92.0495	11	C6H6N+
93.0573	7	C6H7N+
94.0652	3	C6H8N+
96.0444	3	C5H6NO+
103.0542	5	C8H7+
104.0494	1	C7H6N+
105.0573	1	C7H7N+
110.0601	23	C6H8NO+
115.0542	7	C9H7+
117.0573	69	C8H7N+
118.0651	186	C8H8N+
119.073	35	C8H9N+
128.0492	2	C9H6N+
128.0621	1	C10H8+
129.0697	1	C10H9+
130.0653	1	C9H8N+
141.0699	6	C11H9+
166.0651	7	C12H8N+
167.073	999	C12H9N+
168.0808	769	C12H10N+
178.0769	1	C14H10+
180.0808	25	C13H10N+
181.0886	10	C13H11N+
193.0885	7	C14H11N+
194.0965	52	C14H12N+
195.1043	9	C14H13N+
196.1122	219	C14H14N+
