Mass spectrum: Tolfenpyrad; LC-ESI-QFT; MS2; CE: 150%; R=17500; [M+H]+
Name: Tolfenpyrad
Name: 4-chloro-5-ethyl-2-methyl-N-[[4-(4-methylphenoxy)phenyl]methyl]pyrazole-3-carboxamide
Formula: C21H22ClN3O2
Exact mass: 383.1401
SMILES: CCC1=NN(C(=C1Cl)C(=O)NCC2=CC=C(C=C2)OC3=CC=C(C=C3)C)C
InChI: InChI=1S/C21H22ClN3O2/c1-4-18-19(22)20(25(3)24-18)21(26)23-13-15-7-11-17(12-8-15)27-16-9-5-14(2)6-10-16/h5-12H,4,13H2,1-3H3,(H,23,26)
Instrument: Exploris 240 Orbitrap Thermo Scientific
Instrument type: LC-ESI-QFT
Ms type: MS2
Ion mode: POSITIVE
Ionization: ESI
Fragmentation mode: HCD
Collision energy: 150 % (nominal)
Resolution: 17500
Column name: XBridge C18 3.5um, 2.1x50mm, Waters
Retention time: 13.456 min
Base peak: 308.0038
Precursor m/z: 384.1473
Precursor type: [M+H]+
m/z	relative intensity	assigned
51.0229	27	C4H3+
53.0386	11	C4H5+
54.0338	29	C3H4N+
61.9793	9	CHClN+
62.9996	12	C2H4Cl+
63.0229	48	C5H3+
65.0386	999	C5H5+
74.9872	15	C2H2ClN+
75.9948	100	C2H3ClN+
77.0385	34	C6H5+
79.0545	13	C6H7+
81.0447	19	C4H5N2+
91.0542	328	C7H7+
95.0606	13	C5H7N2+
105.0445	17	C6H5N2+
107.0492	48	C7H7O+
115.006	22	C4H4ClN2+
115.0544	67	C9H7+
117.0218	12	C4H6ClN2+
127.0537	13	C10H7+
128.0621	77	C10H8+
139.0546	10	C11H7+
141.0704	16	C11H9+
151.0549	17	C12H7+
152.0621	163	C12H8+
153.0699	174	C12H9+
154.0776	12	C12H10+
