Mass spectrum: 3,4-Methylenedioxy-N-methylamphetamine (MDMA); LC-ESI-QFT; MS2; CE: 75; R=35000; [M+H]+
Name: 3,4-Methylenedioxy-N-methylamphetamine (MDMA)
Name: N-Methyl-3,4-methylenedioxyamphetamine
Name: 1-(1,3-benzodioxol-5-yl)-N-methylpropan-2-amine
Formula: C11H15NO2
Exact mass: 193.11028
SMILES: CC(CC1=CC2=C(C=C1)OCO2)NC
InChI: InChI=1S/C11H15NO2/c1-8(12-2)5-9-3-4-10-11(6-9)14-7-13-10/h3-4,6,8,12H,5,7H2,1-2H3
Instrument: Q Exactive Plus Orbitrap Thermo Scientific
Instrument type: LC-ESI-QFT
Ms type: MS2
Ion mode: POSITIVE
Ionization: ESI
Fragmentation mode: HCD
Collision energy: 75 (nominal)
Resolution: 35000
Column name: XBridge C18 3.5um, 2.1x50mm, Waters
Retention time: 3.6 min
Base peak: 194.117
Precursor m/z: 194.1176
Precursor type: [M+H]+
m/z	relative intensity	assigned
50.015	1	C4H2+
51.0228	3	C4H3+
53.0385	8	C4H5+
55.0178	39	C3H3O+
56.0494	1	C3H6N+
58.0651	88	C3H8N+
65.0385	9	C5H5+
77.0384	34	C6H5+
79.0541	236	C6H7+
81.0334	1	C5H5O+
91.0541	9	C7H7+
93.0334	14	C6H5O+
95.0491	35	C6H7O+
103.0542	139	C8H7+
105.0698	999	C8H9+
107.049	3	C7H7O+
111.044	4	C6H7O2+
115.0542	12	C9H7+
121.0282	6	C7H5O2+
122.0361	21	C7H6O2+
131.0491	2	C9H7O+
133.0647	347	C9H9O+
135.0439	590	C8H7O2+
145.0646	1	C10H9O+
147.0442	2	C9H7O2+
148.0517	7	C9H8O2+
151.0751	4	C9H11O2+
163.0752	46	C10H11O2+
