Mass spectrum: MCLW; LC-ESI-QFT; MS2; CE: 150%; R=17500; [M+H]+
Name: MCLW
Name: Microcystin LW
Name: (5R,8S,11R,12S,15S,18S,19S,22R)-15-(1H-indol-3-ylmethyl)-18-[(1E,3E,5S,6S)-6-methoxy-3,5-dimethyl-7-phenylhepta-1,3-dienyl]-1,5,12,19-tetramethyl-2-methylidene-8-(2-methylpropyl)-3,6,9,13,16,20,25-heptaoxo-1,4,7,10,14,17,21-heptazacyclopentacosane-11,22-dicarboxylic acid
Class: NA
Formula: C54H72N8O12
Exact mass: 1024.5270
SMILES: CO[C@@H](Cc1ccccc1)[C@@H](C)/C=C(C)/C=C/[C@@H]2NC(=O)[C@H](Cc3c[nH]c4ccccc34)NC(=O)[C@@H](C)[C@@H](NC(=O)[C@H](CC(C)C)NC(=O)[C@@H](C)NC(=O)C(=C)N(C)C(=O)CC[C@@H](NC(=O)[C@H]2C)C(O)=O)C(O)=O
InChI: InChI=1S/C54H72N8O12/c1-29(2)24-42-52(69)61-46(54(72)73)33(6)48(65)59-43(27-37-28-55-40-19-15-14-18-38(37)40)51(68)57-39(21-20-30(3)25-31(4)44(74-10)26-36-16-12-11-13-17-36)32(5)47(64)58-41(53(70)71)22-23-45(63)62(9)35(8)50(67)56-34(7)49(66)60-42/h11-21,25,28-29,31-34,39,41-44,46,55H,8,22-24,26-27H2,1-7,9-10H3,(H,56,67)(H,57,68)(H,58,64)(H,59,65)(H,60,66)(H,61,69)(H,70,71)(H,72,73)/b21-20+,30-25+/t31-,32-,33-,34+,39-,41+,42-,43-,44-,46+/m0/s1
Instrument: Q Exactive Plus Orbitrap Thermo Scientific
Instrument type: LC-ESI-QFT
Ms type: MS2
Ion mode: POSITIVE
Ionization: ESI
Fragmentation mode: HCD
Collision energy: 150 % (nominal)
Resolution: 17500
Column name: XBridge C18 3.5um, 2.1x50mm, Waters
Retention time: 11.761 min
Base peak: 164.9846
Precursor m/z: 1025.5342
Precursor type: [M+H]+
m/z	relative intensity	assigned
74.0236	12	C2H4NO2+
77.0385	52	C6H5+
78.0464	9	C6H6+
79.0542	295	C6H7+
80.0494	78	C5H6N+
81.0335	10	C5H5O+
81.0447	6	C4H5N2+
81.0572	6	C5H7N+
81.07	15	C6H9+
82.0287	30	C4H4NO+
82.0651	121	C5H8N+
84.0444	141	C4H6NO+
84.0808	4	
85.0284	21	C4H5O2+
86.0601	15	C4H8NO+
86.0964	62	C5H12N+
89.0385	9	C7H5+
90.0461	5	C7H6+
91.0543	999	C7H7+
92.0494	7	C6H6N+
92.062	26	C7H8+
93.0574	7	C6H7N+
93.0699	116	C7H9+
94.041	7	C6H6O+
94.0652	50	C6H8N+
95.0491	463	C6H7O+
95.0855	12	
96.0444	9	C5H6NO+
96.0683	5	C5H8N2+
96.0808	10	C6H10N+
99.0916	53	C5H11N2+
102.0463	28	C8H6+
103.0542	890	C8H7+
104.0494	3	C7H6N+
104.0618	6	C8H8+
105.0447	174	C6H5N2+
105.0699	434	C8H9+
106.0529	17	C6H6N2+
106.0653	12	C7H8N+
106.0776	5	C8H10+
107.0491	6	
107.0855	313	C8H11+
108.0443	2	C6H6NO+
108.0684	16	C6H8N2+
108.0805	6	C7H10N+
109.0648	80	C7H9O+
109.0761	3	
110.0601	20	C6H8NO+
111.0552	19	C5H7N2O+
113.0233	40	C5H5O3+
115.0542	305	C9H7+
116.0494	10	C8H6N+
116.0621	20	C9H8+
117.0572	148	C8H7N+
117.0699	62	C9H9+
118.0651	47	C8H8N+
119.0604	46	C7H7N2+
119.0855	33	C9H11+
120.0569	10	C8H8O+
120.0805	17	C8H10N+
120.0934	12	C9H12+
121.0662	3	
121.076	84	C7H9N2+
122.06	11	C7H8NO+
122.0837	7	C7H10N2+
123.0916	7	C7H11N2+
127.0545	4	
127.0865	169	C6H11N2O+
128.062	69	C10H8+
129.0697	44	C10H9+
130.0652	265	C9H8N+
131.073	10	C9H9N+
131.0855	40	C10H11+
132.0808	241	C9H10N+
133.1013	8	C10H13+
134.0597	3	C8H8NO+
134.0965	6	C9H12N+
135.0804	17	C9H11O+
135.1166	11	C10H15+
139.0862	7	C7H11N2O+
140.0496	20	C10H6N+
141.0699	16	C11H9+
142.0652	83	C10H8N+
142.0765	5	C11H10+
143.0729	34	C10H9N+
144.0808	51	C10H10N+
144.0921	3	C11H12+
145.065	6	C10H9O+
145.076	8	C9H9N2+
145.101	3	C11H13+
146.0605	12	C9H8NO+
146.0961	6	C10H12N+
149.071	23	C8H9N2O+
152.0613	9	C12H8+
153.0696	9	C12H9+
154.0648	14	C11H8N+
154.0764	4	C12H10+
155.0603	11	C10H7N2+
156.0687	3	C10H8N2+
156.0806	3	C11H10N+
157.0761	17	C10H9N2+
158.084	34	C10H10N2+
158.0962	4	C11H12N+
159.0809	4	C11H11O+
159.0918	62	C10H11N2+
160.0756	30	C10H10NO+
165.07	38	C13H9+
166.0778	9	C13H10+
167.06	9	C11H7N2+
167.0711	6	C9H11O3+
167.0843	20	C13H11+
168.0672	9	C11H8N2+
168.081	15	C12H10N+
169.0761	90	C11H9N2+
170.0599	19	C11H8NO+
170.0962	3	C12H12N+
171.0922	3	C11H11N2+
178.0775	15	C14H10+
179.086	16	H13N5O6+
180.0809	6	C13H10N+
180.0948	3	C2H16N2O7+
182.084	18	C12H10N2+
185.0714	13	C11H9N2O+
193.102	4	CH15N5O6+
195.0919	6	C13H11N2+
197.1076	7	C13H13N2+
202.0791	6	C4H14N2O7+
206.0837	31	C14H10N2+
207.0926	11	CH19O11+
235.0869	10	CH13N7O7+
