Mass spectrum: Metoprolol; LC-ESI-ITFT; MS2; CE: 90%; R=30000; [M+H]+
Name: Metoprolol
Name: 1-(isopropylamino)-3-[4-(2-methoxyethyl)phenoxy]propan-2-ol
Formula: C15H25NO3
Exact mass: 267.1834
SMILES: COCCC1=CC=C(OCC(O)CNC(C)C)C=C1
InChI: InChI=1S/C15H25NO3/c1-12(2)16-10-14(17)11-19-15-6-4-13(5-7-15)8-9-18-3/h4-7,12,14,16-17H,8-11H2,1-3H3
Instrument: LTQ Orbitrap XL Thermo Scientific
Instrument type: LC-ESI-ITFT
Ms type: MS2
Ion mode: POSITIVE
Ionization: ESI
Fragmentation mode: HCD
Collision energy: 90 % (nominal)
Resolution: 30000
Column name: XBridge C18 3.5um, 2.1x50mm, Waters
Retention time: 5.1 min
Base peak: 268.1916
Precursor m/z: 268.1907
Precursor type: [M+H]+
m/z	relative intensity	assigned
53.0385	12	C4H5+
56.0495	295	C3H6N+
58.0651	65	C3H8N+
72.0808	172	C4H10N+
74.06	400	C3H8NO+
77.0386	169	C6H5+
79.0542	241	C6H7+
84.0808	41	C5H10N+
91.0542	487	C7H7+
93.0699	92	C7H9+
98.0965	28	C6H12N+
100.112	41	C6H14N+
103.0542	999	C8H7+
104.0621	39	C8H8+
105.0446	58	C6H5N2+
105.0699	599	C8H9+
107.0491	28	C7H7O+
115.0542	131	C9H7+
116.062	96	C9H8+
116.107	74	C6H14NO+
117.07	33	C9H9+
119.0491	17	C8H7O+
119.0854	13	C9H11+
120.0569	45	C8H8O+
121.0648	423	C8H9O+
129.0699	37	C10H9+
131.0491	26	C9H7O+
131.0855	53	C10H11+
133.0647	292	C9H9O+
135.0804	52	C9H11O+
141.0698	39	C11H9+
144.0569	108	C10H8O+
147.0805	16	C10H11O+
148.0756	75	C9H10NO+
159.0803	28	C11H11O+
163.0866	87	C9H11N2O+
