Mass spectrum: Haloxyfop; LC-ESI-QFT; MS2; CE: 45; R=35000; [M-H]-
Name: Haloxyfop
Name: 2-[4-[3-chloro-5-(trifluoromethyl)pyridin-2-yl]oxyphenoxy]propanoic acid
Formula: C15H11ClF3NO4
Exact mass: 361.03287
SMILES: CC(C(=O)O)OC1=CC=C(C=C1)OC2=C(C=C(C=N2)C(F)(F)F)Cl
InChI: InChI=1S/C15H11ClF3NO4/c1-8(14(21)22)23-10-2-4-11(5-3-10)24-13-12(16)6-9(7-20-13)15(17,18)19/h2-8H,1H3,(H,21,22)
Instrument: Q Exactive Plus Orbitrap Thermo Scientific
Instrument type: LC-ESI-QFT
Ms type: MS2
Ion mode: NEGATIVE
Ionization: ESI
Fragmentation mode: HCD
Collision energy: 45 (nominal)
Resolution: 35000
Column name: XBridge C18 3.5um, 2.1x50mm, Waters
Retention time: 13.6 min
Base peak: 277.1447
Precursor m/z: 360.0256
Precursor type: [M-H]-
m/z	relative intensity	assigned
61.9884	8	NO3-
71.014	645	C3H3O2-
108.0219	170	C6H4O2-
162.0175	70	C6H3F3NO-
170.022	9	C8H3F3N-
179.9837	368	C6H2ClF3N-
184.0209	7	C11H3FNO-
195.9785	306	C6H2ClF3NO-
196.0383	31	C10H5F3N-
197.9943	72	C6H4ClF3NO-
204.0265	10	C11H4F2NO-
208.0379	27	C11H5F3N-
223.9734	47	C7H2ClF3NO2-
224.0334	70	C11H5F3NO-
242.0438	10	C11H7F3NO2-
252.0282	999	C12H5F3NO2-
253.0361	43	C12H6F3NO2-
288.005	638	C12H6ClF3NO2-
