Mass spectrum: Norephedrine; LC-ESI-QFT; MS2; CE: 60; R=35000; [M+H]+
Name: Norephedrine
Name: Phenylpropanolamine
Name: 2-amino-1-phenylpropan-1-ol
Formula: C9H13NO
Exact mass: 151.09971
SMILES: CC(C(C1=CC=CC=C1)O)N
InChI: InChI=1S/C9H13NO/c1-7(10)9(11)8-5-3-2-4-6-8/h2-7,9,11H,10H2,1H3
Instrument: Q Exactive Plus Orbitrap Thermo Scientific
Instrument type: LC-ESI-QFT
Ms type: MS2
Ion mode: POSITIVE
Ionization: ESI
Fragmentation mode: HCD
Collision energy: 60 (nominal)
Resolution: 35000
Column name: XBridge C18 3.5um, 2.1x50mm, Waters
Retention time: 2.4 min
Base peak: 152.1067
Precursor m/z: 152.107
Precursor type: [M+H]+
m/z	relative intensity	assigned
56.0495	108	C3H6N+
57.0335	10	C3H5O+
77.0385	1	C6H5+
79.0542	4	C6H7+
91.0543	85	C7H7+
93.07	16	C7H9+
105.0698	1	C8H9+
106.0652	7	C7H8N+
107.0857	1	C8H11+
115.0543	332	C9H7+
116.0622	5	C9H8+
117.0699	999	C9H9+
118.0649	2	C8H8N+
119.073	42	C8H9N+
134.0965	631	C9H12N+
135.0804	2	C9H11O+
