Mass spectrum: 2',2'-Difluoro-2'-deoxyuridine; LC-ESI-ITFT; MS2; CE: 75%; R=15000; [M+H]+
Name: 2',2'-Difluoro-2'-deoxyuridine
Formula: C9H10F2N2O5
Exact mass: 264.0558
SMILES: O=C/1NC(=O)N(\C=C\1)[C@@H]2O[C@@H]([C@@H](O)C2(F)F)CO
InChI: InChI=1S/C9H10F2N2O5/c10-9(11)6(16)4(3-14)18-7(9)13-2-1-5(15)12-8(13)17/h1-2,4,6-7,14,16H,3H2,(H,12,15,17)/t4-,6-,7-/m1/s1
Instrument: LTQ Orbitrap XL Thermo Scientific
Instrument type: LC-ESI-ITFT
Ms type: MS2
Ion mode: POSITIVE
Ionization: ESI
Fragmentation mode: HCD
Collision energy: 75 % (nominal)
Resolution: 15000
Column name: XBridge C18 3.5um, 2.1x50mm, Waters
Retention time: 1.7 min
Base peak: 162.9915
Precursor m/z: 265.0631
Precursor type: [M+H]+
m/z	relative intensity	assigned
59.0292	105	C3H4F+
70.0288	232	C3H4NO+
79.0354	37	C3H5F2+
87.0241	102	C4H4FO+
95.0236	16	C4H3N2O+
96.008	199	C4H2NO2+
113.0346	999	C4H5N2O2+
