Mass spectrum: Ifosfamide; LC-ESI-ITFT; MS2; CE: 45%; R=15000; [M+H]+
Name: Ifosfamide
Name: Isophosphamide
Name: N,3-Bis(2-chloroethyl)-1,3,2-oxazaphosphinan-2-amine 2-oxide
Formula: C7H15Cl2N2O2P
Exact mass: 260.0248
SMILES: ClCCN(P(OC1)(=O)NCCCl)CC1
InChI: InChI=1S/C7H15Cl2N2O2P/c8-2-4-10-14(12)11(6-3-9)5-1-7-13-14/h1-7H2,(H,10,12)
Instrument: LTQ Orbitrap XL Thermo Scientific
Instrument type: LC-ESI-ITFT
Ms type: MS2
Ion mode: POSITIVE
Ionization: ESI
Fragmentation mode: HCD
Collision energy: 45 % (nominal)
Resolution: 15000
Column name: XBridge C18 3.5um, 2.1x50mm, Waters
Retention time: 6.3 min
Base peak: 261.0321
Precursor m/z: 261.0321
Precursor type: [M+H]+
m/z	relative intensity	assigned
56.0495	11	C3H6N+
62.9996	24	C2H4Cl+
72.0442	5	C3H6NO+
78.0105	332	C2H5ClN+
80.0261	8	C2H7ClN+
82.0653	3	C5H8N+
92.0262	999	C3H7ClN+
115.9665	8	ClH4NO2P+
116.9504	14	CH3Cl2O2+
118.0419	21	CH12ClN2P+
120.0575	235	C5H11ClN+
124.016	6	C3H7ClNO2+
125.9506	26	C2H2Cl2NO+
126.9709	5	C2H5ClO2P+
127.9663	28	CH4ClNO2P+
128.0259	13	C5H7NOP+
136.0159	5	C4H7ClNO2+
140.9869	3	C4H7Cl2O+
141.982	35	C2H6ClNO2P+
146.0365	78	C5H9NO2P+
153.9819	966	C3H6ClNO2P+
164.048	4	C2H14ClN2O2P+
182.0133	508	C5H10ClNO2P+
185.0239	5	C4H11ClN2O2P+
200.0238	85	C6H12Cl2NO2+
217.9899	5	C5H11Cl2NO2P+
233.0008	601	C5H12Cl2N2O2P+
261.0321	784	C7H16Cl2N2O2P+
