Mass spectrum: Fluvastatin; LC-ESI-QFT; MS2; CE: 90; R=35000; [M+H]+
Name: Fluvastatin
Name: (3R,5S)-7-[3-(4-fluorophenyl)-1-isopropyl-2-indolyl]-3,5-dihydroxy-6-heptenoic acid
Formula: C24H26FNO4
Exact mass: 411.18459
SMILES: O=C(O)C[C@H](O)C[C@H](O)/C=C/c2c(c1ccccc1n2C(C)C)c3ccc(F)cc3
InChI: InChI=1S/C24H26FNO4/c1-15(2)26-21-6-4-3-5-20(21)24(16-7-9-17(25)10-8-16)22(26)12-11-18(27)13-19(28)14-23(29)30/h3-12,15,18-19,27-28H,13-14H2,1-2H3,(H,29,30)/b12-11+/t18-,19-/m1/s1
Instrument: Q Exactive Orbitrap Thermo Scientific
Instrument type: LC-ESI-QFT
Ms type: MS2
Ion mode: POSITIVE
Ionization: ESI
Fragmentation mode: HCD
Collision energy: 90 (nominal)
Resolution: 35000
Column name: XBridge C18 3.5um, 2.1x50mm, Waters
Retention time: 13.5 min
Base peak: 412.1916
Precursor m/z: 412.1919
Precursor type: [M+H]+
m/z	relative intensity	assigned
65.0385	4	C5H5+
67.0542	23	C5H7+
69.0335	12	C4H5O+
71.0126	11	C3H3O2+
71.0491	9	C4H7O+
73.0284	1	C3H5O2+
77.0386	1	C6H5+
81.0334	11	C5H5O+
85.0284	2	C4H5O2+
91.0542	5	C7H7+
95.0491	40	C6H7O+
97.0285	2	C5H5O2+
99.0441	1	C5H7O2+
105.0447	5	C6H5N2+
109.0448	7	C7H6F+
115.054	13	C9H7+
121.0447	5	C8H6F+
122.04	19	C7H5FN+
123.0438	1	C7H7O2+
128.0494	29	C9H6N+
128.0621	1	C10H8+
130.0651	1	C9H8N+
133.0447	5	C9H6F+
146.04	19	C9H5FN+
146.0599	24	C9H8NO+
153.0698	4	C12H9+
154.0651	4	C11H8N+
164.0505	36	C9H7FNO+
165.0699	18	C13H9+
168.0809	6	C12H10N+
169.0647	10	C12H9O+
176.062	72	C14H8+
177.0698	379	C14H9+
181.0645	2	C13H9O+
183.0605	14	C13H8F+
185.0761	2	C13H10F+
191.0728	4	C14H9N+
192.0807	1	C14H10N+
194.0528	5	C14H7F+
195.0607	16	C14H8F+
195.0806	8	C14H11O+
196.0682	999	C14H9F+
197.076	607	C14H10F+
198.0711	6	C13H9FN+
203.0727	21	C15H9N+
204.0808	265	C15H10N+
205.0892	1	C15H11N+
207.0603	6	C15H8F+
209.0635	34	C14H8FN+
211.0791	43	C14H10FN+
212.0868	11	C14H11FN+
217.0886	9	C16H11N+
218.0965	5	C16H12N+
220.0681	10	C16H9F+
221.0764	5	C16H10F+
222.0713	649	C15H9FN+
223.0791	299	C15H10FN+
224.0869	289	C15H11FN+
233.0769	1	C17H10F+
235.0793	30	C16H10FN+
236.087	26	C16H11FN+
237.0947	8	C16H12FN+
238.1025	19	C16H13FN+
248.0869	43	C17H11FN+
249.0948	9	C17H12FN+
250.1028	21	C17H13FN+
251.1109	2	C17H14FN+
254.0959	1	C19H12N+
260.0865	2	C18H11FN+
261.0948	9	C18H12FN+
262.1026	10	C18H13FN+
264.0829	1	C17H11FNO+
272.0868	9	C19H11FN+
274.1023	7	C19H13FN+
288.1183	1	C20H15FN+
