Mass spectrum: Warfarin; LC-ESI-QFT; MS2; CE: 75; R=35000; [M-H]-
Name: Warfarin
Name: 2-hydroxy-3-(3-oxo-1-phenylbutyl)chromen-4-one
Name: Coumafen
Formula: C19H16O4
Exact mass: 308.10486
SMILES: O=C\1c3c(OC(/O)=C/1C(c2ccccc2)CC(=O)C)cccc3
InChI: InChI=1S/C19H16O4/c1-12(20)11-15(13-7-3-2-4-8-13)17-18(21)14-9-5-6-10-16(14)23-19(17)22/h2-10,15,22H,11H2,1H3
Instrument: Q Exactive Orbitrap Thermo Scientific
Instrument type: LC-ESI-QFT
Ms type: MS2
Ion mode: NEGATIVE
Ionization: ESI
Fragmentation mode: HCD
Collision energy: 75 (nominal)
Resolution: 35000
Column name: XBridge C18 3.5um, 2.1x50mm, Waters
Retention time: 10.6 min
Base peak: 307.0978
Precursor m/z: 307.0976
Precursor type: [M-H]-
m/z	relative intensity	assigned
57.0346	413	C3H5O-
83.0139	19	C4H3O2-
91.0554	1	C7H7-
92.0267	6	C6H4O-
93.0346	54	C6H5O-
95.0137	1	C5H3O2-
101.0398	20	C8H5-
108.0216	2	C6H4O2-
115.0554	6	C9H7-
117.0348	999	C8H5O-
119.0503	8	C8H7O-
130.0424	18	C9H6O-
133.0659	2	C9H9O-
135.0453	2	C8H7O2-
141.071	7	C11H9-
143.0503	8	C10H7O-
145.0297	2	C9H5O2-
145.0659	3	C10H9O-
157.066	7	C11H9O-
161.0245	325	C9H5O3-
193.0661	12	C14H9O-
195.0817	25	C14H11O-
205.0661	13	C15H9O-
206.0738	61	C15H10O-
219.0819	11	C16H11O-
221.0612	10	C15H9O2-
221.0976	3	C16H13O-
222.0695	6	C15H10O2-
223.077	7	C15H11O2-
233.098	2	C17H13O-
249.056	10	C16H9O3-
250.0636	104	C16H10O3-
261.0928	3	C18H13O2-
