Mass spectrum: Oxadixyl; LC-ESI-QFT; MS2; CE: 45; R=35000; [M+H]+
Name: Oxadixyl
Name: N-(2,6-dimethylphenyl)-2-methoxy-N-(2-oxidanylidene-1,3-oxazolidin-3-yl)ethanamide
Formula: C14H18N2O4
Exact mass: 278.12666
SMILES: O=C2OCCN2N(C(=O)COC)c1c(cccc1C)C
InChI: InChI=1S/C14H18N2O4/c1-10-5-4-6-11(2)13(10)16(12(17)9-19-3)15-7-8-20-14(15)18/h4-6H,7-9H2,1-3H3
Instrument: Q Exactive Orbitrap Thermo Scientific
Instrument type: LC-ESI-QFT
Ms type: MS2
Ion mode: POSITIVE
Ionization: ESI
Fragmentation mode: HCD
Collision energy: 45 (nominal)
Resolution: 35000
Column name: XBridge C18 3.5um, 2.1x50mm, Waters
Retention time: 6.4 min
Base peak: 279.1343
Precursor m/z: 279.1339
Precursor type: [M+H]+
m/z	relative intensity	assigned
56.0496	1	C3H6N+
58.0652	26	C3H8N+
70.0288	1	C3H4NO+
77.0383	1	C6H5+
79.0543	4	C6H7+
88.0393	91	C3H6NO2+
91.0542	14	C7H7+
93.0699	8	C7H9+
95.0491	5	C6H7O+
100.0395	3	C4H6NO2+
102.055	197	C4H8NO2+
103.0541	1	C8H7+
105.07	45	C8H9+
107.0856	7	C8H11+
113.0346	4	C4H5N2O2+
115.0543	5	C9H7+
117.0573	145	C8H7N+
118.0652	64	C8H8N+
119.0856	222	C9H11+
120.0808	92	C8H10N+
121.0648	70	C8H9O+
123.0805	9	C8H11O+
130.065	4	C9H8N+
131.0731	5	C9H9N+
132.0809	728	C9H10N+
133.0887	999	C9H11N+
134.0964	65	C9H12N+
135.1041	1	C9H13N+
137.0961	3	C9H13O+
145.0762	1	C9H9N2+
146.0838	1	C9H10N2+
146.0965	7	C10H12N+
147.0919	15	C9H11N2+
147.1045	9	C10H13N+
148.0758	3	C9H10NO+
148.1122	3	C10H14N+
149.0235	14	C8H5O3+
160.0758	26	C10H10NO+
160.0996	20	C10H12N2+
164.1071	22	C10H14NO+
165.115	1	C10H15NO+
175.0866	1	C10H11N2O+
175.1231	7	C11H15N2+
176.0944	8	C10H12N2O+
189.1021	3	C11H13N2O+
191.0942	52	C11H13NO2+
192.1021	8	C11H14NO2+
204.0895	1	C11H12N2O2+
219.113	144	C12H15N2O2+
