Mass spectrum: Valsartan acid; LC-ESI-QFT; MS2; CE: 30; R=35000; [M-H]-
Name: Valsartan acid
Name: 4-[2-(2H-1,2,3,4-tetrazol-5-yl)phenyl]benzoic acid
Formula: C14H10N4O2
Exact mass: 266.08038
SMILES: C1=CC=C(C(=C1)C2=CC=C(C=C2)C(=O)O)C3=NNN=N3
InChI: InChI=1S/C14H10N4O2/c19-14(20)10-7-5-9(6-8-10)11-3-1-2-4-12(11)13-15-17-18-16-13/h1-8H,(H,19,20)(H,15,16,17,18)
Instrument: Q Exactive Plus Orbitrap Thermo Scientific
Instrument type: LC-ESI-QFT
Ms type: MS2
Ion mode: NEGATIVE
Ionization: ESI
Fragmentation mode: HCD
Collision energy: 30 (nominal)
Resolution: 35000
Column name: XBridge C18 3.5um, 2.1x50mm, Waters
Retention time: 6.7 min
Base peak: 265.0728
Precursor m/z: 265.0731
Precursor type: [M-H]-
m/z	relative intensity	assigned
164.0631	13	C13H8-
165.0709	999	C13H9-
167.0501	2	C12H7O-
178.0665	3	C13H8N-
193.0771	89	C13H9N2-
195.0455	2	C13H7O2-
208.053	14	C14H8O2-
209.0608	1	C14H9O2-
221.0833	2	C13H9N4-
222.056	5	C14H8NO2-
237.067	22	C14H9N2O2-
265.0731	53	C14H9N4O2-
