Mass spectrum: Rifaximin; LC-ESI-QFT; MS2; CE: 120; R=35000; [M-H]-
Name: Rifaximin
Name: (7S,9E,11S,12R,13S,14R,15R,16R,17S,18S,19E,21Z)-2,15,17,36-Tetrahydroxy-11-methoxy-3,7,12,14,16,18,22,30-octamethyl-6,23-dioxo-8,37-dioxa-24,27,33-triazahexacyclo[23.10.1.14,7.05,35.026,34.027, 32]heptatriaconta-1(35),2,4,9,19,21,25(36),26(34),28,30,32-undecaen-13-yl acetate
Formula: C43H51N3O11
Exact mass: 785.35236
SMILES: CC1C=CC=C(C(=O)NC2=C(C3=C(C4=C(C(=C3O)C)OC(C4=O)(OC=CC(C(C(C(C(C(C1O)C)O)C)OC(=O)C)C)OC)C)C5=C2N6C=CC(=CC6=N5)C)O)C
InChI: InChI=1S/C43H51N3O11/c1-19-14-16-46-28(18-19)44-32-29-30-37(50)25(7)40-31(29)41(52)43(9,57-40)55-17-15-27(54-10)22(4)39(56-26(8)47)24(6)36(49)23(5)35(48)20(2)12-11-13-21(3)42(53)45-33(34(32)46)38(30)51/h11-18,20,22-24,27,35-36,39,48-51H,1-10H3,(H,45,53)
Instrument: Q Exactive Plus Orbitrap Thermo Scientific
Instrument type: LC-ESI-QFT
Ms type: MS2
Ion mode: NEGATIVE
Ionization: ESI
Fragmentation mode: HCD
Collision energy: 120 (nominal)
Resolution: 35000
Column name: XBridge C18 3.5um, 2.1x50mm, Waters
Retention time: 10.9 min
Base peak: 784.3448
Precursor m/z: 784.3451
Precursor type: [M-H]-
m/z	relative intensity	assigned
55.0188	174	C3H3O-
59.0138	999	C2H3O2-
64.0067	393	C3N2-
65.0032	27	C4HO-
65.0145	159	C3HN2-
65.0396	42	C5H5-
65.9985	607	C3NO-
66.035	46	C4H4N-
68.9982	40	C3HO2-
71.0139	167	C3H3O2-
74.0036	38	C5N-
79.0188	34	C5H3O-
79.0554	34	C6H7-
89.0146	52	C5HN2-
90.0348	49	C6H4N-
104.0505	125	C7H6N-
105.0457	42	C6H5N2-
108.0455	148	C6H6NO-
114.0349	148	C8H4N-
115.0301	55	C7H3N2-
118.0299	36	C7H4NO-
121.0661	48	C8H9O-
128.0505	44	C9H6N-
129.0459	52	C8H5N2-
139.0302	38	C9H3N2-
140.0506	47	C10H6N-
141.0458	138	C9H5N2-
142.0301	30	C9H4NO-
144.0453	99	C9H6NO-
155.0614	59	C10H7N2-
156.0452	38	C10H6NO-
156.0566	269	C9H6N3-
157.0406	56	C9H5N2O-
168.0455	47	C11H6NO-
169.0409	165	C10H5N2O-
180.0323	33	C11H4N2O-
180.057	50	C11H6N3-
184.0402	42	C11H6NO2-
193.0408	65	C12H5N2O-
196.0402	61	C12H6NO2-
197.0356	25	C11H5N2O2-
200.0347	56	C11H6NO3-
205.0768	104	C14H9N2-
206.0485	36	C13H6N2O-
209.0353	52	C12H5N2O2-
216.0558	32	C14H6N3-
217.0764	36	C15H9N2-
219.0564	124	C14H7N2O-
221.0719	38	C14H9N2O-
222.0438	26	C13H6N2O2-
229.0654	33	C15H7N3-
230.0719	56	C15H8N3-
231.0575	25	C15H7N2O-
231.0804	58	C15H9N3-
231.0924	33	C16H11N2-
232.0644	44	C15H8N2O-
232.0882	58	C15H10N3-
233.072	138	C15H9N2O-
235.0513	41	C14H7N2O2-
235.0877	31	C15H11N2O-
245.0602	26	C17H9O2-
245.0725	48	C16H9N2O-
246.0676	64	C15H8N3O-
246.0801	101	C16H10N2O-
247.0756	28	C15H9N3O-
247.0876	146	C16H11N2O-
248.0588	26	C15H8N2O2-
248.0833	47	C15H10N3O-
249.0674	36	C15H9N2O2-
256.0874	33	C17H10N3-
257.0719	47	C17H9N2O-
258.0665	45	C16H8N3O-
259.0747	111	C16H9N3O-
259.0874	45	C17H11N2O-
260.0826	56	C16H10N3O-
261.0664	34	C16H9N2O2-
272.0833	102	C17H10N3O-
273.0674	31	C17H9N2O2-
276.0781	43	C16H10N3O2-
287.0695	93	C17H9N3O2-
288.0781	52	C17H10N3O2-
300.0768	54	C18H10N3O2-
330.088	62	C19H12N3O3-
