Mass spectrum: Fenpropidin; LC-ESI-ITFT; MS2; CE: 60%; R=15000; [M+H]+
Name: Fenpropidin
Name: 1-[3-(4-tert-butylphenyl)-2-methyl-propyl]piperidine
Formula: C19H31N
Exact mass: 273.2457
SMILES: c1cc(ccc1CC(CN2CCCCC2)C)C(C)(C)C
InChI: InChI=1S/C19H31N/c1-16(15-20-12-6-5-7-13-20)14-17-8-10-18(11-9-17)19(2,3)4/h8-11,16H,5-7,12-15H2,1-4H3
Instrument: LTQ Orbitrap XL Thermo Scientific
Instrument type: LC-ESI-ITFT
Ms type: MS2
Ion mode: POSITIVE
Ionization: ESI
Fragmentation mode: HCD
Collision energy: 60 % (nominal)
Resolution: 15000
Column name: XBridge C18 3.5um, 2.1x50mm, Waters
Retention time: 9.5 min
Base peak: 274.253
Precursor m/z: 274.2529
Precursor type: [M+H]+
m/z	relative intensity	assigned
57.0699	34	C4H9+
69.0698	3	C5H9+
84.0808	9	C5H10N+
85.0884	3	C5H11N+
86.0964	401	C5H12N+
91.0542	15	C7H7+
98.0964	4	C6H12N+
105.0699	34	C8H9+
107.0857	3	C8H11+
117.0701	1	C9H9+
119.0855	34	C9H11+
131.0855	2	C10H11+
132.0933	21	C10H12+
133.101	3	C10H13+
145.1014	1	C11H13+
147.1168	959	C11H15+
161.1325	22	C12H17+
174.1402	1	C13H18+
189.1638	27	C14H21+
218.1905	9	C15H24N+
259.2293	4	C18H29N+
274.2529	999	C19H32N+
