Mass spectrum: Enoxacin; LC-ESI-QFT; MS2; CE: 75; R=35000; [M+H]+
Name: Enoxacin
Name: 1-Ethyl-6-fluoro-1,4-dihydro-4-oxo-7-(1-piperazinyl)-1,8-naphthyridine-3-carboxylic acid
Name: 1-ethyl-6-fluoranyl-4-oxidanylidene-7-piperazin-1-yl-1,8-naphthyridine-3-carboxylic acid
Formula: C15H17FN4O3
Exact mass: 320.12847
SMILES: Fc1c(nc2c(c1)C(=O)C(\C(=O)O)=C/N2CC)N3CCNCC3
InChI: InChI=1S/C15H17FN4O3/c1-2-19-8-10(15(22)23)12(21)9-7-11(16)14(18-13(9)19)20-5-3-17-4-6-20/h7-8,17H,2-6H2,1H3,(H,22,23)
Instrument: Q Exactive Orbitrap Thermo Scientific
Instrument type: LC-ESI-QFT
Ms type: MS2
Ion mode: POSITIVE
Ionization: ESI
Fragmentation mode: HCD
Collision energy: 75 (nominal)
Resolution: 35000
Column name: XBridge C18 3.5um, 2.1x50mm, Waters
Retention time: 4.2 min
Base peak: 321.136
Precursor m/z: 321.1357
Precursor type: [M+H]+
m/z	relative intensity	assigned
68.0494	19	C4H6N+
70.0651	156	C4H8N+
83.0605	2	C4H7N2+
84.0683	3	C4H8N2+
99.0354	1	C4H4FN2+
105.0447	2	C6H5N2+
114.0351	6	C5H5FNO+
117.0448	8	C7H5N2+
122.0401	6	C7H5FN+
123.0352	3	C6H4FN2+
125.0509	1	C6H6FN2+
128.0507	14	C6H7FNO+
129.0451	11	C8H5N2+
133.0401	1	C7H5N2O+
135.0352	6	C7H4FN2+
135.0554	30	C7H7N2O+
136.0433	15	C7H5FN2+
136.0557	3	C8H7FN+
137.051	35	C7H6FN2+
139.0302	2	C6H4FN2O+
143.0605	2	C9H7N2+
144.0557	2	C8H6N3+
145.0398	12	C8H5N2O+
149.0512	25	C8H6FN2+
150.0592	2	C8H7FN2+
151.0305	27	C7H4FN2O+
151.0666	9	C8H8FN2+
153.0459	16	C7H6FN2O+
154.0408	2	C6H5FN3O+
155.0614	13	C7H8FN2O+
156.0557	46	C9H6N3+
157.0635	10	C9H7N3+
158.0715	7	C9H8N3+
160.0505	1	C8H6N3O+
160.0872	2	C9H10N3+
162.0588	2	C9H7FN2+
163.0302	8	C8H4FN2O+
163.0667	10	C9H8FN2+
164.0381	7	C8H5FN2O+
164.0619	9	C8H7FN3+
165.0459	22	C8H6FN2O+
166.0537	2	C8H7FN2O+
166.0777	11	C13H10+
170.0715	2	C10H8N3+
172.087	11	C10H10N3+
175.0539	11	
176.062	91	C14H8+
177.0464	12	C9H6FN2O+
177.0697	125	C9H8FN3+
178.0421	13	C13H6O+
178.0537	67	C9H7FN2O+
178.0775	60	C9H9FN3+
179.0499	26	C10H8FO2+
179.0616	211	C9H8FN2O+
180.0569	92	
180.0931	10	
181.041	3	C8H6FN2O2+
182.0723	7	C8H9FN3O+
184.0505	11	C10H6N3O+
184.0873	3	C11H10N3+
185.0586	7	C10H7N3O+
186.0663	116	C10H8N3O+
187.0614	9	C9H7N4O+
187.0741	2	C10H9N3O+
188.062	17	
190.0407	3	C9H5FN3O+
190.0777	30	C15H10+
191.0489	6	C9H6FN3O+
191.0616	9	C10H8FN2O+
191.0855	15	
192.0567	34	C9H7FN3O+
192.0691	18	C10H9FN2O+
192.093	7	C10H11FN3+
194.0723	3	C9H9FN3O+
196.0288	1	C8H5FN2O3+
197.0818	2	C11H9N4+
198.0657	2	C11H8N3O+
199.0616	10	C10H7N4O+
199.0979	11	C11H11N4+
200.0694	18	C10H8N4O+
200.0823	2	C11H10N3O+
201.0776	3	C10H9N4O+
202.0413	6	C15H6O+
202.0775	2	C11H9FN3+
203.0853	3	C11H10FN3+
204.057	590	C15H8O+
205.0647	298	C15H9O+
205.1011	34	C11H12FN3+
206.0726	399	C15H10O+
206.0841	20	C14H10N2+
207.0811	1	C15H11O+
207.093	2	C11H12FN2O+
208.0883	13	
209.0361	21	C9H6FN2O3+
210.066	2	C12H8N3O+
211.0978	6	C12H11N4+
212.0458	7	C11H6N3O2+
212.1055	11	C12H12N4+
213.0771	8	C11H9N4O+
214.0851	3	C8H11FN4O2+
214.0975	6	C12H12N3O+
215.0489	2	C11H6FN3O+
217.0884	7	C11H10FN4+
218.0727	8	C11H9FN3O+
218.0963	7	C11H11FN4+
219.0803	3	C11H10FN3O+
220.0882	15	C11H11FN3O+
223.0515	12	C10H8FN2O3+
224.0468	68	C14H8O3+
227.0927	27	C12H11N4O+
227.1293	10	C13H15N4+
228.1003	2	C12H12N4O+
229.1085	23	C12H13N4O+
230.036	7	C11H5FN3O2+
230.0558	11	C11H8N3O3+
230.0727	34	C12H9FN3O+
231.0816	2	C14H12FO2+
232.0518	596	C11H7FN3O2+
234.1039	73	C12H13FN3O+
236.0469	18	C15H8O3+
237.0672	8	C11H10FN2O3+
245.0668	2	C11H9N4O3+
247.099	3	C12H12FN4O+
247.1345	3	C13H16FN4+
248.047	7	C11H7FN3O3+
250.0624	999	C11H9FN3O3+
255.0873	13	C13H11N4O2+
255.1246	7	C14H15N4O+
258.0673	57	C13H9FN3O2+
259.1355	11	C14H16FN4+
260.0829	3	C13H11FN3O2+
264.0782	16	C12H11FN3O3+
273.0981	15	C13H13N4O3+
275.0938	27	C13H12FN4O2+
275.1304	19	C14H16FN4O+
276.0781	86	C13H11FN3O3+
278.0936	8	C13H13FN3O3+
291.0892	2	C13H12FN4O3+
293.1046	75	C13H14FN4O3+
301.1294	26	C15H17N4O3+
303.1242	18	C15H16FN4O2+
321.1359	385	C15H18FN4O3+
