Mass spectrum: Imiprothrin; LC-ESI-QFT; MS2; CE: 45; R=35000; [M+H]+
Name: Imiprothrin
Name: (2,5-dioxo-3-prop-2-ynylimidazolidin-1-yl)methyl 2,2-dimethyl-3-(2-methylprop-1-enyl)cyclopropane-1-carboxylate
Formula: C17H22N2O4
Exact mass: 318.15796
SMILES: O=C(OCN1C(=O)CN(C1=O)CC#C)C2C(\C=C(/C)C)C2(C)C
InChI: InChI=1S/C17H22N2O4/c1-6-7-18-9-13(20)19(16(18)22)10-23-15(21)14-12(8-11(2)3)17(14,4)5/h1,8,12,14H,7,9-10H2,2-5H3
Instrument: Q Exactive Orbitrap Thermo Scientific
Instrument type: LC-ESI-QFT
Ms type: MS2
Ion mode: POSITIVE
Ionization: ESI
Fragmentation mode: HCD
Collision energy: 45 (nominal)
Resolution: 35000
Column name: XBridge C18 3.5um, 2.1x50mm, Waters
Retention time: 11.7 min
Base peak: 341.1472
Precursor m/z: 319.1652
Precursor type: [M+H]+
m/z	relative intensity	assigned
53.0024	2	C3HO+
53.0386	3	C4H5+
55.0179	17	C3H3O+
55.0544	3	C4H7+
56.0132	14	C2H2NO+
57.07	43	C4H9+
59.0492	30	C3H7O+
65.0386	3	C5H5+
67.0543	139	C5H7+
68.0495	33	C4H6N+
69.0335	55	C4H5O+
69.0699	45	C5H9+
79.0543	66	C6H7+
80.0495	78	C5H6N+
81.0699	978	C6H9+
82.0286	1	C4H4NO+
83.0492	9	C5H7O+
83.0856	8	C6H11+
91.0542	41	C7H7+
93.0699	159	C7H9+
94.0288	10	C5H4NO+
95.0491	48	C6H7O+
95.0855	196	C7H11+
96.0443	16	C5H6NO+
105.0699	66	C8H9+
107.0855	215	C8H11+
108.0934	7	C8H12+
109.0648	131	C7H9O+
109.1012	72	C8H13+
110.0726	2	C7H10O+
111.0553	37	C5H7N2O+
113.0597	94	C6H9O2+
114.063	58	CH10N2O4+
117.0699	8	C9H9+
119.0604	2	C7H7N2+
119.0857	22	C9H11+
120.0933	2	C9H12+
121.0648	34	C8H9O+
121.1012	261	C9H13+
123.0553	141	C6H7N2O+
123.0804	53	C8H11O+
123.1168	999	C9H15+
124.0757	3	C7H10NO+
127.0753	11	C7H11O2+
130.0775	12	C10H10+
131.0705	1	C6H11O3+
131.0857	3	C10H11+
133.1012	38	C10H13+
135.0805	55	C9H11O+
135.1168	502	C10H15+
136.0887	3	C9H12O+
137.0963	3	C9H13O+
137.1326	2	C10H17+
139.0502	70	C6H7N2O2+
143.0858	2	C11H11+
145.1012	69	C11H13+
147.0804	8	C10H11O+
151.1118	106	C10H15O+
163.1117	275	C11H15O+
169.0607	2	C7H9N2O3+
236.0323	3	C12H4N4O2+
