Mass spectrum: Pinoxaden; LC-ESI-ITFT; MS2; CE: 90%; R=30000; [M+H]+
Name: Pinoxaden
Name: 8-(2,6-diethyl-4-methylphenyl)-1,2,4,5-tetrahydro-7-oxo-7H-pyrazolo(1,2-d)(1,4,5)oxadiazepin-9-yl 2,2-dimethylpropanoate
Formula: C23H32N2O4
Exact mass: 400.2368
SMILES: CC(C)(C)C(=O)O/C2=C(/C(=O)N1CCOCCN12)c3c(CC)cc(C)cc3CC
InChI: InChI=1S/C23H32N2O4/c1-7-16-13-15(3)14-17(8-2)18(16)19-20(26)24-9-11-28-12-10-25(24)21(19)29-22(27)23(4,5)6/h13-14H,7-12H2,1-6H3
Instrument: LTQ Orbitrap XL Thermo Scientific
Instrument type: LC-ESI-ITFT
Ms type: MS2
Ion mode: POSITIVE
Ionization: ESI
Fragmentation mode: HCD
Collision energy: 90 % (nominal)
Resolution: 30000
Column name: XBridge C18 3.5um, 2.1x50mm, Waters
Retention time: 13.7 min
Base peak: 401.2442
Precursor m/z: 401.2435
Precursor type: [M+H]+
m/z	relative intensity	assigned
57.0698	595	C4H9+
71.0603	167	C3H7N2+
85.0396	54	C3H5N2O+
91.0542	214	C7H7+
93.0699	100	C7H9+
101.0709	70	C4H9N2O+
102.0786	26	C4H10N2O+
103.0541	65	C8H7+
105.0698	297	C8H9+
115.0542	76	C9H7+
116.0619	70	C9H8+
117.0698	262	C9H9+
118.0651	56	C8H8N+
119.0855	264	C9H11+
128.062	70	C10H8+
129.0698	225	C10H9+
130.065	92	C9H8N+
130.0777	154	C10H10+
131.0729	146	C9H9N+
131.0855	999	C10H11+
132.0568	81	C9H8O+
132.0807	30	C9H10N+
132.0933	44	C10H12+
133.1011	246	C10H13+
141.0697	46	C11H9+
142.0652	42	C10H8N+
142.0776	51	C11H10+
143.0727	35	C10H9N+
143.0854	80	C11H11+
144.0807	100	C10H10N+
144.0933	53	C11H12+
145.0647	183	C10H9O+
145.0886	113	C10H11N+
145.1011	103	C11H13+
146.06	162	C9H8NO+
146.0964	272	C10H12N+
147.0803	67	C10H11O+
147.1168	28	C11H15+
148.112	20	C10H14N+
155.0852	19	C12H11+
156.0807	102	C11H10N+
157.0886	70	C11H11N+
157.1012	36	C12H13+
158.0598	18	C10H8NO+
158.0726	56	C11H10O+
158.0964	98	C11H12N+
159.0679	70	C10H9NO+
159.0804	218	C11H11O+
159.1043	48	C11H13N+
159.1168	172	C12H15+
160.0755	91	C10H10NO+
160.0882	164	C11H12O+
160.112	50	C11H14N+
161.1074	21	C10H13N2+
161.1323	28	C12H17+
170.0964	42	C12H12N+
171.104	31	C12H13N+
172.0631	33	C10H8N2O+
172.0756	40	C11H10NO+
172.1121	38	C12H14N+
173.0836	48	C11H11NO+
173.096	42	C12H13O+
173.1325	25	C13H17+
174.0554	21	C10H8NO2+
174.0913	251	C11H12NO+
174.1277	63	C12H16N+
185.0708	96	C11H9N2O+
186.0548	42	C11H8NO2+
186.0675	37	C12H10O2+
186.0914	42	C12H12NO+
187.0751	86	C12H11O2+
187.1119	26	C13H15O+
188.1068	73	C12H14NO+
189.1384	28	C12H17N2+
198.0911	70	C13H12NO+
202.1228	37	C13H16NO+
215.0812	23	C12H11N2O2+
216.0891	17	C12H12N2O2+
229.0969	72	C13H13N2O2+
244.1207	21	C14H16N2O2+
271.144	111	C16H19N2O2+
289.1541	26	C16H21N2O3+
