Mass spectrum: Efavirenz; LC-ESI-QFT; MS2; CE: 30; R=35000; [M+H]+
Name: Efavirenz
Name: (4S)-6-chloro-4-(2-cyclopropylethynyl)-4-(trifluoromethyl)-1H-3,1-benzoxazin-2-one
Formula: C14H9ClF3NO2
Exact mass: 315.02739
SMILES: C1CC1C#C[C@]2(C3=C(C=CC(=C3)Cl)NC(=O)O2)C(F)(F)F
InChI: InChI=1S/C14H9ClF3NO2/c15-9-3-4-11-10(7-9)13(14(16,17)18,21-12(20)19-11)6-5-8-1-2-8/h3-4,7-8H,1-2H2,(H,19,20)/t13-/m0/s1
Instrument: Q Exactive Orbitrap Thermo Scientific
Instrument type: LC-ESI-QFT
Ms type: MS2
Ion mode: POSITIVE
Ionization: ESI
Fragmentation mode: HCD
Collision energy: 30 (nominal)
Resolution: 35000
Column name: XBridge C18 3.5um, 2.1x50mm, Waters
Retention time: 13.0 min
Base peak: 316.0348
Precursor m/z: 316.0347
Precursor type: [M+H]+
m/z	relative intensity	assigned
50.0152	4	C4H2+
51.023	9	C4H3+
53.0386	114	C4H5+
81.0334	7	C5H5O+
142.0777	5	C11H10+
151.0182	7	C8H6ClN+
154.0648	1	C11H8N+
164.0262	6	C9H7ClN+
167.0729	50	C12H9N+
168.0807	537	C12H10N+
185.0447	13	C9H6F3N+
185.0633	1	C12H8FN+
188.0261	76	C11H7ClN+
189.0384	1	C11H5F2N+
194.0595	2	C13H8NO+
195.0476	1	C13H6FN+
197.0635	11	C13H8FN+
200.0077	13	C9H3F3O2+
201.0339	128	C12H8ClN+
202.0416	99	C12H9ClN+
203.0494	281	C12H10ClN+
209.0446	4	C11H6F3N+
212.0072	11	C10H5ClF2N+
215.0537	5	C13H7F2N+
216.0619	28	C13H8F2N+
217.0698	104	C13H9F2N+
218.0368	1	C12H9ClNO+
219.025	7	C12H5F2O2+
220.0135	115	C9H6ClF3N+
222.0525	140	C12H7F3N+
223.0424	2	C14H6FNO+
224.0072	139	C11H5ClF2N+
226.0229	4	C11H7ClF2N+
228.0207	5	C13H7ClNO+
229.0289	15	C13H8ClNO+
230.0167	25	C13H6ClFN+
232.0137	409	C10H6ClF3N+
232.0319	209	C13H8ClFN+
233.9924	2	C9H4ClF3NO+
235.0603	50	C13H8F3N+
236.0681	107	C13H9F3N+
237.015	33	C12H6ClF2N+
237.0759	269	C13H10F3N+
239.0305	10	C12H8ClF2N+
243.0491	1	C14H7F2NO+
244.0135	999	C11H6ClF3N+
247.04	3	C13H10ClNO2+
248.0269	6	C13H8ClFNO+
250.0229	152	C13H7ClF2N+
251.0307	4	C13H8ClF2N+
252.0385	151	C13H9ClF2N+
256.0138	8	C12H6ClF3N+
257.0214	17	C12H7ClF3N+
258.0113	14	C14H6ClFNO+
263.0552	22	C14H8F3NO+
265.0088	1	C13H6ClF2NO+
270.0291	73	C13H8ClF3N+
272.0447	84	C13H10ClF3N+
276.0221	7	C14H8ClFNO2+
278.0177	100	C14H7ClF2NO+
288.0393	1	C13H10ClF3NO+
298.024	22	C14H8ClF3NO+
316.0346	4	C14H10ClF3NO2+
