Mass spectrum: Cymiazole; LC-ESI-QFT; MS2; CE: 120%; R=17500; [M+H]+
Name: Cymiazole
Name: N-(2,4-dimethylphenyl)-3-methyl-1,3-thiazol-2-imine
Formula: C12H14N2S
Exact mass: 218.0878
SMILES: CC1=CC(=C(C=C1)N=C2N(C=CS2)C)C
InChI: InChI=1S/C12H14N2S/c1-9-4-5-11(10(2)8-9)13-12-14(3)6-7-15-12/h4-8H,1-3H3
Instrument: Exploris 240 Orbitrap Thermo Scientific
Instrument type: LC-ESI-QFT
Ms type: MS2
Ion mode: POSITIVE
Ionization: ESI
Fragmentation mode: HCD
Collision energy: 120 % (nominal)
Resolution: 17500
Column name: XBridge C18 3.5um, 2.1x50mm, Waters
Retention time: 4.141 min
Base peak: 219.095
Precursor m/z: 219.095
Precursor type: [M+H]+
m/z	relative intensity	assigned
51.023	80	C4H3+
53.0387	133	C4H5+
56.0494	32	C3H6N+
57.9874	31	C2H2S+
58.995	271	C2H3S+
65.0386	82	C5H5+
70.9951	44	C3H3S+
72.0029	130	C3H4S+
72.9983	26	C2H3NS+
77.0386	657	C6H5+
79.0543	459	C6H7+
80.0492	45	C5H6N+
86.006	216	C3H4NS+
88.0218	32	C3H6NS+
91.0543	428	C7H7+
93.0576	50	C6H7N+
93.07	116	C7H9+
100.0217	259	C4H6NS+
103.0543	407	C8H7+
105.0451	229	C6H5N2+
105.07	552	C8H9+
116.0496	46	C8H6N+
117.0576	114	C8H7N+
118.0655	107	C8H8N+
120.0808	372	C8H10N+
129.0574	74	C9H7N+
130.0652	861	C9H8N+
131.0727	247	C9H9N+
132.0807	55	C9H10N+
142.0654	134	C10H8N+
143.0732	205	C10H9N+
144.0809	999	C10H10N+
145.0762	87	C9H9N2+
155.0607	59	C10H7N2+
156.0682	369	C10H8N2+
162.0366	124	C9H8NS+
171.092	118	C11H11N2+
173.03	114	C10H7NS+
176.0531	48	C10H10NS+
189.0487	88	C10H9N2S+
203.0646	63	C11H11N2S+
