Mass spectrum: 4,5-dihydro-5,5-diphenyl-1,2-oxazole-3-carboxylic acid, ethyl ester; LC-ESI-QFT; MS2; CE: 15; R=35000; [M+H]+
Name: 4,5-dihydro-5,5-diphenyl-1,2-oxazole-3-carboxylic acid, ethyl ester
Name: 5,5-diphenyl-2-isoxazoline-3-carboxylic acid ethyl ester
Formula: C18H17NO3
Exact mass: 295.12084
SMILES: C1(C(OCC)=O)=NOC(C1)(c1ccccc1)c1ccccc1
InChI: InChI=1S/C18H17NO3/c1-2-21-17(20)16-13-18(22-19-16,14-9-5-3-6-10-14)15-11-7-4-8-12-15/h3-12H,2,13H2,1H3
Instrument: Q Exactive Orbitrap Thermo Scientific
Instrument type: LC-ESI-QFT
Ms type: MS2
Ion mode: POSITIVE
Ionization: ESI
Fragmentation mode: HCD
Collision energy: 15 (nominal)
Resolution: 35000
Column name: XBridge C18 3.5um, 2.1x50mm, Waters
Retention time: 12.7 min
Base peak: 296.1281
Precursor m/z: 296.1281
Precursor type: [M+H]+
m/z	relative intensity	assigned
70.0651	21	C4H8N+
77.0383	4	C6H5+
103.0542	6	C8H7+
104.0494	1	C7H6N+
105.0334	149	C7H5O+
146.0599	1	C9H8NO+
165.0694	5	C13H9+
167.086	1	C13H11+
176.0615	3	C14H8+
178.0769	5	C14H10+
179.0856	8	C14H11+
181.1013	3	C14H13+
183.0804	418	C13H11O+
191.0854	15	C15H11+
193.1004	1	C15H13+
194.0965	1	C14H12N+
202.0775	1	C16H10+
203.0728	3	C15H9N+
204.0808	96	C15H10N+
206.0964	113	C15H12N+
207.0805	13	C15H11O+
219.104	1	C16H13N+
222.0913	110	C15H12NO+
232.0757	780	C16H10NO+
233.0838	6	C16H11NO+
234.1278	19	C17H16N+
235.0752	7	C16H11O2+
235.1117	15	C17H15O+
250.0862	739	C16H12NO2+
263.1066	999	C18H15O2+
268.0967	12	C16H14NO3+
278.1175	3	C18H16NO2+
296.128	382	C18H18NO3+
