Mass spectrum: Allopurinol; LC-ESI-QFT; MS2; CE: 60; R=35000; [M+H]+
Name: Allopurinol
Name: 1,2-dihydropyrazolo[3,4-d]pyrimidin-4-one
Formula: C5H4N4O
Exact mass: 136.03851
SMILES: C1=NNC2=C1C(=NC=N2)O
InChI: InChI=1S/C5H4N4O/c10-5-3-1-8-9-4(3)6-2-7-5/h1-2H,(H2,6,7,8,9,10)
Instrument: Q Exactive Orbitrap Thermo Scientific
Instrument type: LC-ESI-QFT
Ms type: MS2
Ion mode: POSITIVE
Ionization: ESI
Fragmentation mode: HCD
Collision energy: 60 (nominal)
Resolution: 35000
Column name: XBridge C18 3.5um, 2.1x50mm, Waters
Retention time: 1.2 min
Base peak: 137.0458
Precursor m/z: 137.0458
Precursor type: [M+H]+
m/z	relative intensity	assigned
54.0339	13	C3H4N+
67.0291	2	C3H3N2+
68.013	1	C3H2NO+
81.0447	26	C4H5N2+
82.0288	4	C4H4NO+
94.04	100	C4H4N3+
109.0396	30	C5H5N2O+
109.051	4	C4H5N4+
110.0349	241	C4H4N3O+
119.0353	9	C5H3N4+
120.0192	47	C5H2N3O+
137.0458	999	C5H5N4O+
