Mass spectrum: Valsartan; LC-ESI-ITFT; MS2; CE: 30%; R=15000; [M-H]-
Name: Valsartan
Name: (2S)-3-methyl-2-[1-oxopentyl-[[4-[2-(2H-tetrazol-5-yl)phenyl]phenyl]methyl]amino]butanoic acid
Formula: C24H29N5O3
Exact mass: 435.2270
SMILES: CCCCC(=O)N(CC1=CC=C(C=C1)C2=C(C=CC=C2)C3=NN=NN3)[C@@H](C(C)C)C(O)=O
InChI: InChI=1S/C24H29N5O3/c1-4-5-10-21(30)29(22(16(2)3)24(31)32)15-17-11-13-18(14-12-17)19-8-6-7-9-20(19)23-25-27-28-26-23/h6-9,11-14,16,22H,4-5,10,15H2,1-3H3,(H,31,32)(H,25,26,27,28)/t22-/m0/s1
Instrument: LTQ Orbitrap XL Thermo Scientific
Instrument type: LC-ESI-ITFT
Ms type: MS2
Ion mode: NEGATIVE
Ionization: ESI
Fragmentation mode: HCD
Collision energy: 30 % (nominal)
Resolution: 15000
Column name: XBridge C18 3.5um, 2.1x50mm, Waters
Retention time: 11.0 min
Base peak: 434.2193
Precursor m/z: 434.2198
Precursor type: [M-H]-
m/z	relative intensity	assigned
116.0718	108	C5H10NO2-
141.1286	116	C9H17O-
156.1394	98	C9H18NO-
178.0792	19	C14H10-
179.0866	999	C14H11-
192.082	123	C14H10N-
200.1296	16	C10H18NO3-
207.0931	22	C14H11N2-
235.0988	145	C14H11N4-
248.1449	23	C18H18N-
276.1499	58	C18H18N3-
294.1494	28	C19H20NO2-
304.1564	216	C18H18N5-
307.1451	55	C19H19N2O2-
332.1981	24	C18H26N3O3-
350.162	476	C19H20N5O2-
390.2311	34	C23H28N5O-
391.2028	130	C22H25N5O2-
434.2199	130	C24H28N5O3-
