Mass spectrum: Meperidine; LC-ESI-QFT; MS2; CE: 90; R=35000; [M+H]+
Name: Meperidine
Name: ethyl 1-methyl-4-phenylpiperidine-4-carboxylate
Formula: C15H21NO2
Exact mass: 247.15723
SMILES: CCOC(=O)C1(CCN(CC1)C)C2=CC=CC=C2
InChI: InChI=1S/C15H21NO2/c1-3-18-14(17)15(9-11-16(2)12-10-15)13-7-5-4-6-8-13/h4-8H,3,9-12H2,1-2H3
Instrument: Q Exactive Orbitrap Thermo Scientific
Instrument type: LC-ESI-QFT
Ms type: MS2
Ion mode: POSITIVE
Ionization: ESI
Fragmentation mode: HCD
Collision energy: 90 (nominal)
Resolution: 35000
Column name: XBridge C18 3.5um, 2.1x50mm, Waters
Retention time: 5.4 min
Base peak: 248.1647
Precursor m/z: 248.1645
Precursor type: [M+H]+
m/z	relative intensity	assigned
53.0387	1	C4H5+
56.0496	1	C3H6N+
57.0573	12	C3H7N+
58.0652	16	C3H8N+
65.0386	16	C5H5+
67.0542	8	C5H7+
68.0496	7	C4H6N+
69.0699	2	C5H9+
70.0651	999	C4H8N+
71.0491	1	C4H7O+
71.0729	7	C4H9N+
77.0385	9	C6H5+
79.0542	30	C6H7+
80.0494	1	C5H6N+
81.0336	16	C5H5O+
81.0573	5	C5H7N+
82.0651	64	C5H8N+
83.073	32	C5H9N+
84.0808	5	C5H10N+
91.0542	753	C7H7+
94.0652	14	C6H8N+
95.0492	20	C6H7O+
96.0808	95	C6H10N+
97.0887	24	C6H11N+
98.0965	57	C6H12N+
99.0441	40	C5H7O2+
102.0462	1	C8H6+
103.0543	556	C8H7+
105.0336	19	C7H5O+
105.0446	11	C6H5N2+
105.0699	85	C8H9+
107.073	7	C7H9N+
112.0756	2	C6H10NO+
115.0543	142	C9H7+
116.0621	117	C9H8+
117.0699	125	C9H9+
128.0621	55	C10H8+
129.0699	122	C10H9+
130.0778	29	C10H10+
131.0856	273	C10H11+
132.0807	1	C9H10N+
133.0647	9	C9H9O+
140.0707	1	C7H10NO2+
141.0699	5	C11H9+
142.0864	2	C7H12NO2+
143.0605	1	C9H7N2+
143.0733	1	C10H9N+
143.0856	12	C11H11+
144.0809	1	C10H10N+
145.065	9	C10H9O+
145.1013	4	C11H13+
146.0967	5	C10H12N+
155.0603	11	C10H7N2+
157.0887	3	C11H11N+
158.0967	14	C11H12N+
159.0804	1	C11H11O+
159.1041	9	C11H13N+
160.1121	5	C11H14N+
168.0811	8	C12H10N+
169.0884	5	C12H11N+
172.1121	23	C12H14N+
174.1278	301	C12H16N+
176.1435	22	C12H18N+
182.0964	2	C13H12N+
183.1045	6	C13H13N+
184.1119	8	C13H14N+
218.1183	1	C13H16NO2+
220.1334	46	C13H18NO2+
