Mass spectrum: Methiocarb; LC-ESI-ITFT; MS2; CE: 60%; R=7500; [M+H]+
Name: Methiocarb
Name: (3,5-dimethyl-4-methylsulfanyl-phenyl) N-methylcarbamate
Formula: C11H15NO2S
Exact mass: 225.0823
SMILES: O=C(Oc1cc(c(SC)c(c1)C)C)NC
InChI: InChI=1S/C11H15NO2S/c1-7-5-9(14-11(13)12-3)6-8(2)10(7)15-4/h5-6H,1-4H3,(H,12,13)
Instrument: LTQ Orbitrap XL Thermo Scientific
Instrument type: LC-ESI-ITFT
Ms type: MS2
Ion mode: POSITIVE
Ionization: ESI
Fragmentation mode: HCD
Collision energy: 60 % (nominal)
Resolution: 7500
Column name: XBridge C18 3.5um, 2.1x50mm, Waters
Retention time: 10.4 min
Base peak: 226.0902
Precursor m/z: 226.0896
Precursor type: [M+H]+
m/z	relative intensity	assigned
53.0384	2	C4H5+
67.0542	3	C5H7+
77.0386	36	C6H5+
79.0544	1	C6H7+
91.0543	90	C7H7+
93.07	183	C7H9+
94.0777	1	C7H10+
95.0491	2	C6H7O+
95.0855	1	C7H11+
103.0543	3	C8H7+
105.0448	12	C6H5N2+
105.0697	1	C8H9+
107.0492	31	C7H7O+
109.0647	2	C7H9O+
121.0649	999	C8H9O+
122.0727	471	C8H10O+
123.0804	14	C8H11O+
125.0418	1	C7H9S+
141.0734	1	C8H13S+
153.0369	14	C8H9OS+
154.0447	30	C8H10OS+
169.0677	50	C9H13OS+
