Mass spectrum: Candesartan; LC-ESI-ITFT; MS2; CE: 35%; R=30000; [M+H]+
Name: Candesartan
Name: 2-ethoxy-3-[4-[2-(2H-tetrazol-5-yl)phenyl]benzyl]benzimidazole-4-carboxylic acid
Formula: C24H20N6O3
Exact mass: 440.1597
SMILES: c1(ccccc1c1ccc(Cn2c(nc3c2c(C(=O)O)ccc3)OCC)cc1)c1nnn[nH]1
InChI: InChI=1S/C24H20N6O3/c1-2-33-24-25-20-9-5-8-19(23(31)32)21(20)30(24)14-15-10-12-16(13-11-15)17-6-3-4-7-18(17)22-26-28-29-27-22/h3-13H,2,14H2,1H3,(H,31,32)(H,26,27,28,29)
Instrument: LTQ Orbitrap XL Thermo Scientific
Instrument type: LC-ESI-ITFT
Ms type: MS2
Ion mode: POSITIVE
Ionization: ESI
Fragmentation mode: CID
Collision energy: 35 % (nominal)
Resolution: 30000
Column name: XBridge C18 3.5um, 2.1x50mm, Waters
Retention time: 9.3 min
Base peak: 441.1683
Precursor m/z: 441.167
Precursor type: [M+H]+
m/z	relative intensity	assigned
165.0699	2	C13H9+
178.0772	1	C14H10+
192.0808	17	C14H10N+
193.0886	3	C14H11N+
194.0964	9	C14H12N+
206.1088	2	C16H14+
208.1121	9	C15H14N+
210.0914	4	C14H12NO+
218.0964	3	C16H12N+
220.0995	7	C15H12N2+
234.1155	4	C16H14N2+
235.123	26	C16H15N2+
263.1294	999	C18H17NO+
350.0894	1	C20H10N6O+
395.1501	5	C24H19N4O2+
413.1609	7	C24H21N4O3+
423.157	975	C24H19N6O2+
441.1668	2	C24H21N6O3+
