Mass spectrum: S-Methoprene; LC-ESI-QFT; MS2; CE: 45%; R=17500; [M+H]+
Name: S-Methoprene
Name: (+)-Methoprene;(7S)-Methoprene;ZR 2458
Name: propan-2-yl 11-methoxy-3,7,11-trimethyldodeca-2,4-dienoate
Formula: C19H34O3
Exact mass: 310.2508
SMILES: CC(C)OC(=O)C=C(C)C=CCC(C)CCCC(C)(C)OC
InChI: InChI=1S/C19H34O3/c1-15(2)22-18(20)14-17(4)11-8-10-16(3)12-9-13-19(5,6)21-7/h8,11,14-16H,9-10,12-13H2,1-7H3
Instrument: Exploris 240 Orbitrap Thermo Scientific
Instrument type: LC-ESI-QFT
Ms type: MS2
Ion mode: POSITIVE
Ionization: ESI
Fragmentation mode: HCD
Collision energy: 45 % (nominal)
Resolution: 17500
Column name: XBridge C18 3.5um, 2.1x50mm, Waters
Retention time: 16.124 min
Base peak: 279.2317
Precursor m/z: 311.2581
Precursor type: [M+H]+
m/z	relative intensity	assigned
55.0543	160	C4H7+
57.0699	164	C4H9+
67.0543	145	C5H7+
69.0699	702	C5H9+
71.0857	38	C5H11+
79.0541	209	C6H7+
81.0699	999	C6H9+
83.0855	284	C6H11+
85.0649	101	C5H9O+
93.0699	382	C7H9+
95.0855	924	C7H11+
97.065	108	C6H9O+
97.101	264	C7H13+
107.0854	555	C8H11+
109.0648	81	C7H9O+
109.1011	533	C8H13+
111.0806	75	C7H11O+
121.065	73	C8H9O+
121.1013	717	C9H13+
123.081	60	C8H11O+
123.1168	275	C9H15+
125.0596	150	C7H9O2+
127.0756	43	C7H11O2+
135.0805	74	C9H11O+
135.1168	780	C10H15+
137.0966	55	C9H13O+
137.1323	425	C10H17+
139.0757	134	C8H11O2+
145.1016	116	C11H13+
149.1322	170	C11H17+
159.117	55	C12H15+
163.1119	122	C11H15O+
177.1633	216	C13H21+
191.1791	327	C14H23+
219.1742	67	C15H23O+
