Mass spectrum: Metoprolol; LC-ESI-ITFT; MS2; CE: 35%; R=30000; [M+H]+
Name: Metoprolol
Name: 1-(isopropylamino)-3-[4-(2-methoxyethyl)phenoxy]propan-2-ol
Formula: C15H25NO3
Exact mass: 267.1834
SMILES: COCCC1=CC=C(OCC(O)CNC(C)C)C=C1
InChI: InChI=1S/C15H25NO3/c1-12(2)16-10-14(17)11-19-15-6-4-13(5-7-15)8-9-18-3/h4-7,12,14,16-17H,8-11H2,1-3H3
Instrument: LTQ Orbitrap XL Thermo Scientific
Instrument type: LC-ESI-ITFT
Ms type: MS2
Ion mode: POSITIVE
Ionization: ESI
Fragmentation mode: CID
Collision energy: 35 % (nominal)
Resolution: 30000
Column name: XBridge C18 3.5um, 2.1x50mm, Waters
Retention time: 5.1 min
Base peak: 268.1916
Precursor m/z: 268.1907
Precursor type: [M+H]+
m/z	relative intensity	assigned
74.0601	9	C3H8NO+
98.0964	161	C6H12N+
105.0699	5	C8H9+
116.107	972	C6H14NO+
119.0855	4	C9H11+
121.0648	177	C8H9O+
131.0855	19	C10H11+
133.0647	84	C9H9O+
135.0803	6	C9H11O+
141.07	6	C11H9+
147.0803	13	C10H11O+
159.0804	344	C11H11O+
161.096	75	C11H13O+
163.1116	32	C11H15O+
165.0909	30	C10H13O2+
169.0763	4	C11H9N2+
176.1069	172	C11H14NO+
177.0909	94	C11H13O2+
179.1066	12	C11H15O2+
191.1067	999	C12H15O2+
194.1174	144	C11H16NO2+
201.1273	18	C14H17O+
218.1539	497	C14H20NO+
226.1437	319	C12H20NO3+
233.1535	14	C15H21O2+
250.18	169	C15H24NO2+
