Mass spectrum: Morphine; LC-ESI-ITFT; MS2; CE: 45%; R=7500; [M+H]+
Name: Morphine
Name: (4R,4aR,7S,7aR,12bS)-3-methyl-2,4,4a,7,7a,13-hexahydro-1H-4,12-methanobenzofuro[3,2-e]isoquinoline-7,9-diol
Formula: C17H19NO3
Exact mass: 285.1364935
SMILES: CN1CC[C@]23[C@@H]4[C@H]1CC5=C2C(=C(C=C5)O)O[C@H]3[C@H](C=C4)O
InChI: InChI=1S/C17H19NO3/c1-18-7-6-17-10-3-5-13(20)16(17)21-15-12(19)4-2-9(14(15)17)8-11(10)18/h2-5,10-11,13,16,19-20H,6-8H2,1H3/t10-,11+,13-,16-,17-/m0/s1
Instrument: LTQ Orbitrap XL Thermo Scientific
Instrument type: LC-ESI-ITFT
Ms type: MS2
Ion mode: POSITIVE
Ionization: ESI
Fragmentation mode: HCD
Collision energy: 45 % (nominal)
Resolution: 7500
Column name: XBridge C18 3.5um, 2.1x50mm, Waters
Retention time: 1.1 min
Base peak: 286.1448
Precursor m/z: 286.1438
Precursor type: [M+H]+
m/z	relative intensity	assigned
58.0651	9	C3H8N+
121.0644	4	C8H9O+
123.0447	2	C7H7O2+
147.044	6	C9H7O2+
155.0857	5	C12H11+
161.0605	1	C10H9O2+
165.0701	3	C13H9+
173.0599	12	C11H9O2+
173.0959	2	C12H13O+
181.0645	3	C13H9O+
183.0806	15	C13H11O+
185.0599	16	C12H9O2+
191.0859	3	C15H11+
193.0648	8	C14H9O+
199.0761	4	C13H11O2+
201.0911	65	C13H13O2+
209.0599	11	C14H9O2+
209.0959	4	C15H13O+
211.0751	24	C14H11O2+
219.0808	3	C16H11O+
221.0952	4	C16H13O+
227.0702	11	C14H11O3+
229.0861	52	C14H13O3+
237.0912	7	C16H13O2+
239.107	3	C16H15O2+
255.1013	2	C16H15O3+
268.133	20	C17H18NO2+
286.1439	999	C17H20NO3+
