Mass spectrum: 4-Formylaminoantipyrine; LC-ESI-ITFT; MS2; CE: 45%; R=15000; [M+H]+
Name: 4-Formylaminoantipyrine
Name: N-(1,5-dimethyl-3-oxidanylidene-2-phenyl-pyrazol-4-yl)methanamide
Formula: C12H13N3O2
Exact mass: 231.1008
SMILES: O=C2C(\NC=O)=C(\C)N(C)N2c1ccccc1
InChI: InChI=1S/C12H13N3O2/c1-9-11(13-8-16)12(17)15(14(9)2)10-6-4-3-5-7-10/h3-8H,1-2H3,(H,13,16)
Instrument: LTQ Orbitrap XL Thermo Scientific
Instrument type: LC-ESI-ITFT
Ms type: MS2
Ion mode: POSITIVE
Ionization: ESI
Fragmentation mode: HCD
Collision energy: 45 % (nominal)
Resolution: 15000
Column name: XBridge C18 3.5um, 2.1x50mm, Waters
Retention time: 3.7 min
Base peak: 232.1088
Precursor m/z: 232.1081
Precursor type: [M+H]+
m/z	relative intensity	assigned
56.0495	545	C3H6N+
58.0651	13	C3H8N+
68.0494	8	C4H6N+
77.0386	71	C6H5+
83.0604	999	C4H7N2+
85.076	97	C4H9N2+
94.0651	150	C6H8N+
104.0495	970	C7H6N+
105.0448	11	C6H5N2+
111.0553	36	C5H7N2O+
118.0652	11	C8H8N+
130.0651	8	C9H8N+
145.0761	39	C9H9N2+
146.06	72	C9H8NO+
158.06	21	C10H8NO+
159.0917	196	C10H11N2+
169.0762	7	C11H9N2+
171.0551	7	C10H7N2O+
172.0636	5	C10H8N2O+
173.0709	69	C10H9N2O+
176.1187	6	C10H14N3+
185.071	7	C11H9N2O+
186.102	6	C11H12N3+
187.0866	215	C11H11N2O+
189.0897	53	C10H11N3O+
199.0736	18	C11H9N3O+
204.1131	504	C11H14N3O+
214.0975	809	C12H12N3O+
232.1083	272	C12H14N3O2+
