Mass spectrum: Celiprolol; LC-ESI-QFT; MS2; CE: 90; R=35000; [M+H]+
Name: Celiprolol
Name: 3-[3-acetyl-4-[3-(tert-butylamino)-2-hydroxy-propoxy]phenyl]-1,1-diethyl-urea
Formula: C20H33N3O4
Exact mass: 379.24711
SMILES: CCN(CC)C(=O)NC1=CC(=C(C=C1)OCC(CNC(C)(C)C)O)C(=O)C
InChI: InChI=1S/C20H33N3O4/c1-7-23(8-2)19(26)22-15-9-10-18(17(11-15)14(3)24)27-13-16(25)12-21-20(4,5)6/h9-11,16,21,25H,7-8,12-13H2,1-6H3,(H,22,26)
Instrument: Q Exactive Orbitrap Thermo Scientific
Instrument type: LC-ESI-QFT
Ms type: MS2
Ion mode: POSITIVE
Ionization: ESI
Fragmentation mode: HCD
Collision energy: 90 (nominal)
Resolution: 35000
Column name: XBridge C18 3.5um, 2.1x50mm, Waters
Retention time: 5.6 min
Base peak: 380.2546
Precursor m/z: 380.2544
Precursor type: [M+H]+
m/z	relative intensity	assigned
56.0496	695	C3H6N+
57.0699	99	C4H9+
72.0444	416	C3H6NO+
74.0601	999	C3H8NO+
74.0964	685	C4H12N+
100.0757	147	C5H10NO+
110.0599	15	
115.0542	27	C9H7+
120.0443	46	
120.0809	7	C8H10N+
130.0652	38	C9H8N+
132.0445	94	C8H6NO+
134.0601	8	C8H8NO+
136.0394	16	C7H6NO2+
142.0652	4	C10H8N+
146.0601	39	C9H8NO+
148.0393	429	C8H6NO2+
150.0551	56	C8H8NO2+
158.0602	21	C10H8NO+
160.0394	7	C9H6NO2+
160.0761	4	C10H10NO+
162.0185	14	C8H4NO3+
162.0551	6	C9H8NO2+
170.0602	5	C11H8NO+
172.0396	14	C10H6NO2+
174.0549	3	C10H8NO2+
176.0707	28	C10H10NO2+
186.0551	73	C11H8NO2+
204.0654	6	C11H10NO3+
