Mass spectrum: Tepraloxydim; LC-ESI-QFT; MS2; CE: 60; R=35000; [M+H]+
Name: Tepraloxydim
Name: E-Tepraloxydim
Formula: C17H24ClNO4
Exact mass: 341.13939
SMILES: CC/C(=N\OC\C=C\Cl)/C=1C(=O)CC(CC=1O)C2CCOCC2
InChI: InChI=1S/C17H24ClNO4/c1-2-14(19-23-7-3-6-18)17-15(20)10-13(11-16(17)21)12-4-8-22-9-5-12/h3,6,12-13,20H,2,4-5,7-11H2,1H3/b6-3+,19-14+
Instrument: Q Exactive Orbitrap Thermo Scientific
Instrument type: LC-ESI-QFT
Ms type: MS2
Ion mode: POSITIVE
Ionization: ESI
Fragmentation mode: HCD
Collision energy: 60 (nominal)
Resolution: 35000
Column name: XBridge C18 3.5um, 2.1x50mm, Waters
Retention time: 11.5 min
Base peak: 342.1471
Precursor m/z: 342.1467
Precursor type: [M+H]+
m/z	relative intensity	assigned
56.0497	17	C3H6N+
57.0575	2	C3H7N+
57.0701	6	C4H9+
58.0653	17	C3H8N+
65.0386	33	C5H5+
66.034	2	C4H4N+
67.018	12	C4H3O+
67.0417	24	C4H5N+
67.0543	201	C5H7+
68.0495	77	C4H6N+
68.9972	4	C3HO2+
69.0335	52	C4H5O+
69.0699	37	C5H9+
70.0288	3	C3H4NO+
70.0652	49	C4H8N+
71.0127	3	C3H3O2+
71.0491	5	C4H7O+
71.0729	15	C4H9N+
72.0444	45	C3H6NO+
72.0808	21	C4H10N+
74.9996	216	C3H4Cl+
77.0386	40	C6H5+
79.0542	230	C6H7+
80.0495	32	C5H6N+
80.062	6	C6H8+
81.0335	48	C5H5O+
81.0699	142	C6H9+
82.0651	87	C5H8N+
83.0491	289	C5H7O+
84.0444	16	C4H6NO+
84.0807	18	C5H10N+
85.0649	12	C5H9O+
91.0542	410	C7H7+
92.0495	5	C6H6N+
92.0621	5	C7H8+
93.0572	25	C6H7N+
93.0699	321	C7H9+
94.0651	160	C6H8N+
95.0492	186	C6H7O+
95.0855	58	C7H11+
96.0444	518	C5H6NO+
96.0808	32	C6H10N+
97.0522	32	C5H7NO+
97.0649	32	C6H9O+
97.0885	2	C6H11N+
98.0601	999	C5H8NO+
103.0542	104	C8H7+
104.0497	3	C7H6N+
105.0447	42	C6H5N2+
105.0699	234	C8H9+
106.0652	25	C7H8N+
107.0492	63	C7H7O+
107.0855	80	C8H11+
108.0444	49	C6H6NO+
108.0808	285	C7H10N+
109.0284	14	C6H5O2+
109.0648	97	C7H9O+
109.0887	18	C7H11N+
109.1011	17	C8H13+
110.0601	344	C6H8NO+
110.0965	46	C7H12N+
111.0441	110	C6H7O2+
111.0679	98	C6H9NO+
111.0803	17	C7H11O+
112.0758	25	C6H10NO+
113.0835	40	C6H11NO+
114.0913	42	C6H12NO+
115.0542	39	C9H7+
116.0621	13	C9H8+
117.0574	11	C8H7N+
117.0699	118	C9H9+
118.0652	29	C8H8N+
118.0776	2	C9H10+
119.0491	45	C8H7O+
119.0603	6	C7H7N2+
119.073	21	C8H9N+
119.0856	99	C9H11+
120.0447	11	C7H6NO+
120.057	5	C8H8O+
120.0808	57	C8H10N+
121.0648	391	C8H9O+
122.06	128	C7H8NO+
122.0964	21	C8H12N+
123.044	21	C7H7O2+
123.0679	4	C7H9NO+
123.0803	24	C8H11O+
124.0393	79	C6H6NO2+
124.0756	58	C7H10NO+
126.055	77	C6H8NO2+
128.0621	42	C10H8+
129.0699	58	C10H9+
130.0654	23	C9H8N+
130.0778	19	C10H10+
131.0492	14	C9H7O+
131.073	11	C9H9N+
131.0856	82	C10H11+
132.0571	4	C9H8O+
132.0808	46	C9H10N+
133.0648	46	C9H9O+
133.0888	4	C9H11N+
133.1013	34	C10H13+
134.0599	15	C8H8NO+
134.0964	32	C9H12N+
135.0442	4	C8H7O2+
135.068	3	C8H9NO+
135.0804	33	C9H11O+
135.1168	3	C10H15+
136.0757	360	C8H10NO+
137.0598	49	C8H9O2+
137.0836	27	C8H11NO+
138.055	43	C7H8NO2+
138.0913	315	C8H12NO+
139.0628	31	C7H9NO2+
139.0756	5	C8H11O2+
140.0706	19	C7H10NO2+
141.0698	27	C11H9+
142.0499	91	C6H8NO3+
142.065	4	C10H8N+
142.0777	13	C11H10+
143.0731	11	C10H9N+
143.0856	41	C11H11+
144.057	4	C10H8O+
144.081	25	C10H10N+
144.0935	12	C11H12+
145.0648	29	C10H9O+
145.0888	20	C10H11N+
145.101	31	C11H13+
146.0601	43	C9H8NO+
146.0966	27	C10H12N+
147.0441	38	C9H7O2+
147.0678	26	C9H9NO+
147.0805	18	C10H11O+
147.1041	2	C10H13N+
147.117	4	C11H15+
148.0757	102	C9H10NO+
148.1121	14	C10H14N+
149.0598	376	C9H9O2+
150.055	8	C8H8NO2+
150.0915	29	C9H12NO+
150.1281	3	C10H16N+
151.0751	3	C9H11O2+
152.0706	35	C8H10NO2+
153.0698	4	C12H9+
154.0779	19	C12H10+
155.0603	4	C10H7N2+
156.0811	2	C11H10N+
157.0886	6	C11H11N+
157.1012	6	C12H13+
158.0727	6	C11H10O+
158.0965	36	C11H12N+
159.0802	20	C11H11O+
159.117	7	C12H15+
160.0757	42	C10H10NO+
160.1121	29	C11H14N+
161.0596	29	C10H9O2+
161.0836	5	C10H11NO+
161.0962	30	C11H13O+
162.0913	40	C10H12NO+
162.1276	3	C11H16N+
163.0629	5	C9H9NO2+
163.0749	6	C10H11O2+
163.0992	3	C10H13NO+
163.1117	6	C11H15O+
164.0705	212	C9H10NO2+
164.1071	12	C10H14NO+
165.0909	4	C10H13O2+
166.0862	849	C9H12NO2+
167.094	12	C9H13NO2+
169.1011	6	C13H13+
170.0965	12	C12H12N+
171.1045	6	C12H13N+
172.0759	4	C11H10NO+
173.0835	5	C11H11NO+
173.0959	7	C12H13O+
174.0912	19	C11H12NO+
175.0991	5	C11H13NO+
176.0708	17	C10H10NO2+
176.1069	18	C11H14NO+
177.0911	5	C11H13O2+
178.1228	6	C11H16NO+
180.1383	12	C11H18NO+
186.1276	4	C13H16N+
187.1119	6	C13H15O+
188.1069	14	C12H14NO+
190.0865	5	C11H12NO2+
190.1221	4	C12H16NO+
192.1019	4	C11H14NO2+
194.1177	11	C11H16NO2+
198.0909	5	C13H12NO+
204.102	5	C12H14NO2+
204.1385	11	C13H18NO+
206.1539	2	C13H20NO+
208.1336	6	C12H18NO2+
222.1488	18	C13H20NO2+
234.1491	66	C14H20NO2+
250.1438	17	C14H20NO3+
