Mass spectrum: Fipronil-TP RPA 200761; LC-ESI-QFT; MS2; CE: 45%; R=17500; [M+H]+
Name: Fipronil-TP RPA 200761
Name: 5-amino-1-[2,6-dichloro-4-(trifluoromethyl)phenyl]-4-(trifluoromethylsulfinyl)pyrazole-3-carboxylic acid
Formula: C12H5Cl2F6N3O3S
Exact mass: 454.9333
SMILES: NC1=C(C(=NN1C1=C(Cl)C=C(C=C1Cl)C(F)(F)F)C(O)=O)S(=O)C(F)(F)F
InChI: InChI=1S/C12H5Cl2F6N3O3S/c13-4-1-3(11(15,16)17)2-5(14)7(4)23-9(21)8(6(22-23)10(24)25)27(26)12(18,19)20/h1-2H,21H2,(H,24,25)
Instrument: Q Exactive Plus Orbitrap Thermo Scientific
Instrument type: LC-ESI-QFT
Ms type: MS2
Ion mode: POSITIVE
Ionization: ESI
Fragmentation mode: HCD
Collision energy: 45 % (nominal)
Resolution: 17500
Column name: XBridge C18 3.5um, 2.1x50mm, Waters
Retention time: 8.085 min
Base peak: 455.9408
Precursor m/z: 455.9406
Precursor type: [M+H]+
m/z	relative intensity	assigned
59.9903	6	CH2NS+
67.0194	3	CH4FO2+
68.9949	2	CF3+
69.9924	3	C2NO2+
88.993	4	C2H3NOS+
127.9776	10	C2HF3NS+
212.9479	3	C2HCl2F4N3+
220.0001	2	C8H6F2O3S+
221.0085	8	C11H2F3NO+
223.9774	6	CH5Cl2F5N3+
227.9583	10	C10ClF3O+
228.9672	2	C2HClF5N3O2+
237.9693	4	C2H5Cl2F5N2O+
239.9582	9	C11ClF3O+
240.9539	3	C7H2Cl2F3N2+
249.9698	6	C9H4ClF3NS+
252.9674	7	C9H2ClF4O2+
253.9612	2	C8H5ClF2O3S+
254.9697	798	C9HF6S+
257.9283	4	
258.0039	214	C10H4ClF3N3+
262.965	129	C8H5Cl2F4O+
264.9809	23	C3H4ClF6N2O3+
277.9624	7	C10HClF4NO2+
280.9762	14	C9H3F4NO3S+
284.9385	12	C12HClF3OS+
289.976	999	C10H4ClF3N3S+
290.9854	8	C7H6ClF4N3OS+
291.9648	2	C11F6NS+
292.9727	44	C11HF6NS+
305.9706	7	C9H6Cl2F4NO2+
307.9858	8	C12H5ClF4O3+
325.9548	4	C7H4ClF5N2O3S+
368.9349	82	C11H4Cl2F3N3O2S+
