Mass spectrum: Torsemide; LC-ESI-QFT; MS2; CE: 30; R=35000; [M+H]+
Name: Torsemide
Name: SMR000466313
Name: 1-[4-(3-methylanilino)pyridin-3-yl]sulfonyl-3-propan-2-ylurea
Formula: C16H20N4O3S
Exact mass: 348.12561
SMILES: O=S(=O)(c2c(Nc1cc(ccc1)C)ccnc2)NC(=O)NC(C)C
InChI: InChI=1S/C16H20N4O3S/c1-11(2)18-16(21)20-24(22,23)15-10-17-8-7-14(15)19-13-6-4-5-12(3)9-13/h4-11H,1-3H3,(H,17,19)(H2,18,20,21)
Instrument: Q Exactive Orbitrap Thermo Scientific
Instrument type: LC-ESI-QFT
Ms type: MS2
Ion mode: POSITIVE
Ionization: ESI
Fragmentation mode: HCD
Collision energy: 30 (nominal)
Resolution: 35000
Column name: XBridge C18 3.5um, 2.1x50mm, Waters
Retention time: 6.7 min
Base peak: 349.1332
Precursor m/z: 349.1329
Precursor type: [M+H]+
m/z	relative intensity	assigned
122.0601	1	C7H8NO+
125.0169	5	C5H5N2S+
168.0673	3	C3H12N4O2S+
182.084	1	C12H10N2+
183.0914	17	C4H15N4O2S+
198.0788	2	C12H10N2O+
199.0866	2	C12H11N2O+
201.0487	2	C11H9N2S+
219.0588	9	C11H11N2OS+
230.051	5	C12H10N2OS+
247.0537	10	C12H11N2O2S+
264.0804	999	C12H14N3O2S+
290.0596	143	C13H12N3O3S+
