Mass spectrum: Phenylephrine; LC-ESI-QFT; MS2; CE: 15; R=35000; [M+H]+
Name: Phenylephrine
Name: 3-[(1R)-1-hydroxy-2-(methylamino)ethyl]phenol
Formula: C9H13NO2
Exact mass: 167.09463
SMILES: CNC[C@@H](C1=CC(=CC=C1)O)O
InChI: InChI=1S/C9H13NO2/c1-10-6-9(12)7-3-2-4-8(11)5-7/h2-5,9-12H,6H2,1H3/t9-/m0/s1
Instrument: Q Exactive Orbitrap Thermo Scientific
Instrument type: LC-ESI-QFT
Ms type: MS2
Ion mode: POSITIVE
Ionization: ESI
Fragmentation mode: HCD
Collision energy: 15 (nominal)
Resolution: 35000
Column name: XBridge C18 3.5um, 2.1x50mm, Waters
Retention time: 0.9 min
Base peak: 150.0914
Precursor m/z: 168.1019
Precursor type: [M+H]+
m/z	relative intensity	assigned
81.0698	1	C6H9+
91.0542	18	C7H7+
107.0488	2	C7H7O+
109.0647	28	C7H9O+
117.0573	1	C8H7N+
119.0491	19	C8H7O+
121.0647	7	C8H9O+
122.0962	1	C8H12N+
132.0808	2	C9H10N+
135.0678	18	C8H9NO+
150.0915	999	C9H12NO+
168.1018	29	C9H14NO2+
