Mass spectrum: Pinoxaden-TP NOA 407854; LC-ESI-QFT; MS2; CE: 15%; R=17500; [M+H]+
Name: Pinoxaden-TP NOA 407854
Name: 8-(2,6-Diethyl-4-methylphenyl)tetrahydropyrazolo(1,2-d)(1,4,5)oxadiazepine-7,9-dione
Formula: C18H24N2O3
Exact mass: 316.1787
SMILES: CCC1=CC(C)=CC(CC)=C1C1C(=O)N2CCOCCN2C1=O
InChI: InChI=1S/C18H24N2O3/c1-4-13-10-12(3)11-14(5-2)15(13)16-17(21)19-6-8-23-9-7-20(19)18(16)22/h10-11,16H,4-9H2,1-3H3
Instrument: Q Exactive Plus Orbitrap Thermo Scientific
Instrument type: LC-ESI-QFT
Ms type: MS2
Ion mode: POSITIVE
Ionization: ESI
Fragmentation mode: HCD
Collision energy: 15 % (nominal)
Resolution: 17500
Column name: XBridge C18 3.5um, 2.1x50mm, Waters
Retention time: 7.136 min
Base peak: 317.186
Precursor m/z: 317.186
Precursor type: [M+H]+
m/z	relative intensity	assigned
101.0711	1	C4H9N2O+
147.1168	5	C11H15+
171.0764	33	C7H11N2O3+
289.1571	1	C16H21N2O3+
289.1914	5	C17H25N2O2+
317.186	999	C18H25N2O3+
