Mass spectrum: Fenamiphos-sulfone; LC-ESI-QFT; MS2; CE: 30; R=35000; [M+H]+
Name: Fenamiphos-sulfone
Name: Fenamiphos sulphone
Name: Ethyl 3-methyl-4-(methylsulfonyl)phenyl isopropylphosphoramidate
Formula: C13H22NO5PS
Exact mass: 335.09563
SMILES: CCOP(=O)(NC(C)C)OC1=CC(=C(C=C1)S(=O)(=O)C)C
InChI: InChI=1S/C13H22NO5PS/c1-6-18-20(15,14-10(2)3)19-12-7-8-13(11(4)9-12)21(5,16)17/h7-10H,6H2,1-5H3,(H,14,15)
Instrument: Q Exactive Plus Orbitrap Thermo Scientific
Instrument type: LC-ESI-QFT
Ms type: MS2
Ion mode: POSITIVE
Ionization: ESI
Fragmentation mode: HCD
Collision energy: 30 (nominal)
Resolution: 35000
Column name: XBridge C18 3.5um, 2.1x50mm, Waters
Retention time: 7.5 min
Base peak: 336.1023
Precursor m/z: 336.1029
Precursor type: [M+H]+
m/z	relative intensity	assigned
58.0651	1	C3H8N+
60.0808	2	C3H10N+
98.0001	1	H5NO3P+
108.0565	6	C7H8O+
118.0778	1	C9H10+
139.0212	4	C7H7OS+
140.0471	1	C3H11NO3P+
167.0528	1	C5H14NOPS+
187.0423	18	
188.0472	140	C11H8O3+
202.0628	4	C8H13NO3P+
214.063	3	C9H13NO3P+
216.0786	7	C9H15NO3P+
218.9877	31	C7H8O4PS+
229.0855	1	C10H16NO3P+
230.0941	10	C10H17NO3P+
242.0944	1	C11H17NO3P+
247.0192	2	C9H12O4PS+
248.9983	60	C8H10O5PS+
266.0247	999	C8H13NO5PS+
267.0084	6	C8H12O6PS+
277.0296	5	C10H14O5PS+
284.0353	6	C8H15NO6PS+
294.0559	26	C10H17NO5PS+
298.051	3	C9H17NO6PS+
308.0716	586	C11H19NO5PS+
336.1029	44	C13H23NO5PS+
