Mass spectrum: Diuron; LC-ESI-ITFT; MS2; CE: 60%; R=7500; [M-H]-
Name: Diuron
Name: 3-(3,4-dichlorophenyl)-1,1-dimethyl-urea
Formula: C9H10Cl2N2O
Exact mass: 232.0165
SMILES: c1(c(ccc(c1)NC(N(C)C)=O)Cl)Cl
InChI: InChI=1S/C9H10Cl2N2O/c1-13(2)9(14)12-6-3-4-7(10)8(11)5-6/h3-5H,1-2H3,(H,12,14)
Instrument: LTQ Orbitrap XL Thermo Scientific
Instrument type: LC-ESI-ITFT
Ms type: MS2
Ion mode: NEGATIVE
Ionization: ESI
Fragmentation mode: HCD
Collision energy: 60 % (nominal)
Resolution: 7500
Column name: XBridge C18 3.5um, 2.1x50mm, Waters
Retention time: 9.0 min
Base peak: 231.0093
Precursor m/z: 231.0097
Precursor type: [M-H]-
m/z	relative intensity	assigned
149.9751	465	C7HClNO-
185.9519	999	C7H2Cl2NO-
231.01	167	C9H9Cl2N2O-
