Mass spectrum: Florfenicol; LC-ESI-QFT; MS2; CE: 30; R=35000; [M-H]-
Name: Florfenicol
Name: 2,2-dichloro-N-{3-fluoro-1-hydroxy-1-[4-(methylsulfonyl)phenyl]propan-2-yl}acetamide
Name: 2,2-dichloro-N-[3-fluoro-1-hydroxy-1-(4-methylsulfonylphenyl)propan-2-yl]acetamide
Formula: C12H14Cl2FNO4S
Exact mass: 357.00046
SMILES: CS(=O)(=O)C1=CC=C(C=C1)C(C(CF)NC(=O)C(Cl)Cl)O
InChI: InChI=1S/C12H14Cl2FNO4S/c1-21(19,20)8-4-2-7(3-5-8)10(17)9(6-15)16-12(18)11(13)14/h2-5,9-11,17H,6H2,1H3,(H,16,18)
Instrument: Q Exactive Plus Orbitrap Thermo Scientific
Instrument type: LC-ESI-QFT
Ms type: MS2
Ion mode: NEGATIVE
Ionization: ESI
Fragmentation mode: HCD
Collision energy: 30 (nominal)
Resolution: 35000
Column name: XBridge C18 3.5um, 2.1x50mm, Waters
Retention time: 4.6 min
Base peak: 355.9929
Precursor m/z: 355.9932
Precursor type: [M-H]-
m/z	relative intensity	assigned
63.9623	3	O2S-
70.9461	2	Cl2H-
78.9859	61	CH3O2S-
82.9461	15	CHCl2-
88.0204	10	C3H3FNO-
107.9414	4	C2Cl2N-
115.9908	2	C4H3ClNO-
119.0503	402	C8H7O-
121.0295	4	C7H5O2-
125.9519	7	C2H2Cl2NO-
126.9359	2	C2HCl2O2-
145.0659	11	C10H9O-
151.9676	106	C4H4Cl2NO-
155.0173	8	C7H7O2S-
168.9964	9	C7H5O3S-
170.004	2	C7H6O3S-
181.0329	5	C9H9O2S-
183.0121	204	C8H7O3S-
184.0199	26	C8H8O3S-
185.0278	999	C8H9O3S-
199.0069	2	C8H7O4S-
200.0718	3	C12H10NO2-
209.0278	19	C10H9O3S-
216.973	2	C8H6ClO3S-
218.9887	5	C8H8ClO3S-
221.0275	3	C11H9O3S-
224.0388	9	C10H10NO3S-
227.0384	29	C10H11O4S-
252.0336	19	C11H10NO4S-
264.0336	9	C12H10NO4S-
272.0395	6	C11H11FNO4S-
335.987	16	C12H12Cl2NO4S-
