Mass spectrum: Cefadroxil; LC-ESI-QFT; MS2; CE: 180; R=35000; [M-H]-
Name: Cefadroxil
Name: 7-[[2-azaniumyl-2-(4-hydroxyphenyl)acetyl]amino]-3-methyl-8-oxo-5-thia-1-azabicyclo[4.2.0]oct-2-ene-2-carboxylate
Formula: C16H17N3O5S
Exact mass: 363.08889
SMILES: CC1=C(N2C(C(C2=O)NC(=O)C(C3=CC=C(C=C3)O)N)SC1)C(=O)O
InChI: InChI=1S/C16H17N3O5S/c1-7-6-25-15-11(14(22)19(15)12(7)16(23)24)18-13(21)10(17)8-2-4-9(20)5-3-8/h2-5,10-11,15,20H,6,17H2,1H3,(H,18,21)(H,23,24)
Instrument: Q Exactive Plus Orbitrap Thermo Scientific
Instrument type: LC-ESI-QFT
Ms type: MS2
Ion mode: NEGATIVE
Ionization: ESI
Fragmentation mode: HCD
Collision energy: 180 (nominal)
Resolution: 35000
Column name: XBridge C18 3.5um, 2.1x50mm, Waters
Retention time: 2.3 min
Base peak: 362.0818
Precursor m/z: 362.0816
Precursor type: [M-H]-
m/z	relative intensity	assigned
50.0037	413	C3N-
56.9805	584	C2HS-
57.9757	780	CNS-
60.9754	201	CHOS-
63.9624	36	O2S-
64.0066	20	C3N2-
65.0146	217	C3HN2-
65.0398	380	C5H5-
65.9986	169	C3NO-
67.0301	22	C3H3N2-
70.9837	357	C2HNS-
75.0241	32	C6H3-
81.9757	74	C3NS-
89.0397	41	C7H5-
90.035	458	C6H4N-
91.0302	127	C5H3N2-
92.0142	24	C5H2NO-
93.0347	937	C6H5O-
95.0502	27	C6H7O-
117.0347	24	C8H5O-
118.0301	999	C7H4NO-
