Mass spectrum: Mandestrobin; LC-ESI-QFT; MS2; CE: 90%; R=17500; [M+H]+
Name: Mandestrobin
Name: 2-[2-[(2,5-dimethylphenoxy)methyl]phenyl]-2-methoxy-N-methylacetamide
Formula: C19H23NO3
Exact mass: 313.1678
SMILES: CC1=CC(=C(C=C1)C)OCC2=CC=CC=C2C(C(=O)NC)OC
InChI: InChI=1S/C19H23NO3/c1-13-9-10-14(2)17(11-13)23-12-15-7-5-6-8-16(15)18(22-4)19(21)20-3/h5-11,18H,12H2,1-4H3,(H,20,21)
Instrument: Exploris 240 Orbitrap Thermo Scientific
Instrument type: LC-ESI-QFT
Ms type: MS2
Ion mode: POSITIVE
Ionization: ESI
Fragmentation mode: HCD
Collision energy: 90 % (nominal)
Resolution: 17500
Column name: XBridge C18 3.5um, 2.1x50mm, Waters
Retention time: 11.127 min
Base peak: 314.1748
Precursor m/z: 314.1751
Precursor type: [M+H]+
m/z	relative intensity	assigned
58.0286	8	C2H4NO+
65.0384	24	C5H5+
79.0542	11	C6H7+
91.0541	999	C7H7+
103.0541	86	C8H7+
105.0697	87	C8H9+
106.0416	10	C7H6O+
109.0643	18	C7H9O+
115.0543	35	C9H7+
117.0572	282	C8H7N+
118.0417	9	C8H6O+
118.0654	35	C8H8N+
119.0492	670	C8H7O+
130.0653	14	C9H8N+
131.0728	85	C9H9N+
132.0807	608	C9H10N+
144.081	11	C10H10N+
145.0522	15	C9H7NO+
147.068	27	C9H9NO+
160.0759	53	C10H10NO+
165.0701	44	C13H9+
180.0933	21	C14H12+
208.0886	27	C15H12O+
