Mass spectrum: 5-Chloro-2-methyl-3(2H)-isothiazolone; LC-ESI-QFT; MS2; CE: 45%; R=15000; [M+H]+
Name: 5-Chloro-2-methyl-3(2H)-isothiazolone
Name: 5-Chloro-2-methyl-4-isothiazolin-3-one
Name: 5-chloro-2-methyl-1,2-thiazol-3-one
Formula: C4H4ClNOS
Exact mass: 148.9702124
SMILES: CN1SC(Cl)=CC1=O
InChI: InChI=1S/C4H4ClNOS/c1-6-4(7)2-3(5)8-6/h2H,1H3
Instrument: Q Exactive Plus
Instrument type: LC-ESI-QFT
Ms type: MS2
Ion mode: POSITIVE
Ionization: ESI
Fragmentation mode: HCD
Collision energy: 45 % (nominal)
Resolution: 15000
Column name: XBridge C18 3.5um, 2.1x50mm, Waters
Retention time: 3.393 min
Base peak: 149.9776
Precursor m/z: 149.9775
Precursor type: [M+H]+
Precursor intensity: 734386484.33
m/z	relative intensity	assigned
95.9904	11	C4H2NS+
104.9562	11	C3H2ClS+
106.9716	12	C3H4ClS+
115.0086	30	C4H5NOS+
118.9352	14	C3ClOS+
120.9509	11	C3H2ClOS+
149.9775	999	C4H5ClNOS+
