Mass spectrum: Dithiopyr; LC-ESI-QFT; MS2; CE: 30%; R=17500; [M+H]+
Name: Dithiopyr
Name: 3-S,5-S-dimethyl 2-(difluoromethyl)-4-(2-methylpropyl)-6-(trifluoromethyl)pyridine-3,5-dicarbothioate
Formula: C15H16F5NO2S2
Exact mass: 401.0543
SMILES: CC(C)CC1=C(C(=NC(=C1C(=O)SC)C(F)(F)F)C(F)F)C(=O)SC
InChI: InChI=1S/C15H16F5NO2S2/c1-6(2)5-7-8(13(22)24-3)10(12(16)17)21-11(15(18,19)20)9(7)14(23)25-4/h6,12H,5H2,1-4H3
Instrument: Exploris 240 Orbitrap Thermo Scientific
Instrument type: LC-ESI-QFT
Ms type: MS2
Ion mode: POSITIVE
Ionization: ESI
Fragmentation mode: HCD
Collision energy: 30 % (nominal)
Resolution: 17500
Column name: XBridge C18 3.5um, 2.1x50mm, Waters
Retention time: 12.694 min
Base peak: 334.1679
Precursor m/z: 402.0615
Precursor type: [M+H]+
m/z	relative intensity	assigned
286.0491	94	C13H15FO2S2+
287.0566	14	C13H9F4NO2+
288.0465	18	C13H10F4NS+
296.0351	90	C14H9F3NOS+
312.0103	99	C11H7F5NO2S+
314.0462	116	C14H11F3NO2S+
320.0018	34	C12H9F3NO2S2+
334.0518	185	C14H12F4NO2S+
336.0469	78	C14H11F5NOS+
340.0084	123	C12H10F4NO2S2+
354.0582	999	C14H13F5NO2S+
360.0151	179	C12H11F5NO2S2+
382.0554	190	C15H16F4NO2S2+
402.0619	561	C15H17F5NO2S2+
