Mass spectrum: Difloxacin; LC-ESI-QFT; MS2; CE: 60; R=35000; [M+H]+
Name: Difloxacin
Name: 6-fluoro-1-(4-fluorophenyl)-7-(4-methylpiperazin-1-yl)-4-oxoquinoline-3-carboxylic acid
Name: 6-fluoro-1-(4-fluorophenyl)-7-(4-methylpiperazin-4-ium-1-yl)-4-oxoquinoline-3-carboxylate
Formula: C21H19F2N3O3
Exact mass: 399.1394479
SMILES: CN1CCN(CC1)C2=C(C=C3C(=C2)N(C=C(C3=O)C(=O)O)C4=CC=C(C=C4)F)F
InChI: InChI=1S/C21H19F2N3O3/c1-24-6-8-25(9-7-24)19-11-18-15(10-17(19)23)20(27)16(21(28)29)12-26(18)14-4-2-13(22)3-5-14/h2-5,10-12H,6-9H2,1H3,(H,28,29)
Instrument: Q Exactive Plus Orbitrap Thermo Scientific
Instrument type: LC-ESI-QFT
Ms type: MS2
Ion mode: POSITIVE
Ionization: ESI
Fragmentation mode: HCD
Collision energy: 60 (nominal)
Resolution: 35000
Column name: XBridge C18 3.5um, 2.1x50mm, Waters
Retention time: 4.5 min
Base peak: 400.1461
Precursor m/z: 400.1467
Precursor type: [M+H]+
m/z	relative intensity	assigned
56.0495	41	C3H6N+
57.0573	5	C3H7N+
58.0652	331	C3H8N+
67.0417	3	C4H5N+
68.0131	3	C3H2NO+
68.0495	2	C4H6N+
70.0652	207	C4H8N+
71.073	10	C4H9N+
72.0808	51	C4H10N+
80.0495	1	C5H6N+
82.0652	60	C5H8N+
83.0604	8	C4H7N2+
83.073	1	C5H9N+
84.0808	18	C5H10N+
85.0761	7	C4H9N2+
85.0886	7	C5H11N+
89.0386	2	C7H5+
95.0603	1	C5H7N2+
97.0761	32	C5H9N2+
98.0839	24	C5H10N2+
99.0917	4	C5H11N2+
103.0543	1	C8H7+
107.0292	1	C7H4F+
109.0449	16	C7H6F+
110.0402	4	C6H5FN+
115.0543	4	C9H7+
116.0495	8	C8H6N+
117.0572	7	C8H7N+
121.045	8	C8H6F+
122.0402	6	C7H5FN+
123.024	4	C7H4FO+
123.0354	1	C6H4FN2+
123.0606	3	C8H8F+
124.0559	1	C7H7FN+
128.0496	16	C9H6N+
130.0652	9	C9H8N+
131.0606	1	C8H7N2+
133.0449	9	C9H6F+
134.0401	15	C8H5FN+
134.0601	6	C8H8NO+
135.048	11	C8H6FN+
136.0559	27	C8H7FN+
137.0637	1	C8H8FN+
138.0352	4	C7H5FNO+
141.0578	1	C10H7N+
142.0654	4	C10H8N+
144.0449	1	C9H6NO+
144.0559	4	C8H6N3+
144.0809	11	C10H10N+
145.0762	1	C9H9N2+
146.0401	1	C9H5FN+
147.0246	1	C9H4FO+
148.0558	52	C9H7FN+
149.0401	1	C4H5F2N3O+
149.0511	1	C8H6FN2+
149.0635	3	C9H8FN+
150.0353	3	C8H5FNO+
150.0717	5	C9H9FN+
151.0671	1	C8H8FN2+
152.0505	5	C8H7FNO+
154.0657	4	C11H8N+
155.0605	26	C10H7N2+
156.0444	7	C10H6NO+
156.0684	1	C10H8N2+
156.0812	5	C11H10N+
157.0761	6	C10H9N2+
158.0404	6	C10H5FN+
158.0966	1	C11H12N+
160.0559	5	C10H7FN+
161.0512	8	C9H6FN2+
162.0353	10	C9H5FNO+
162.0716	6	C10H9FN+
164.0507	10	C9H7FNO+
165.0826	10	C9H10FN2+
169.0763	3	C11H9N2+
170.0841	6	C11H10N2+
172.0999	5	C11H12N2+
173.0511	3	C10H6FN2+
173.1073	7	C11H13N2+
174.0592	5	C10H7FN2+
175.0668	27	C10H8FN2+
176.0508	13	C10H7FNO+
176.0749	1	C10H9FN2+
176.0873	1	C11H11FN+
177.0462	1	C9H6FN2O+
177.0827	1	C10H10FN2+
178.0664	1	C10H9FNO+
178.0904	1	C10H11FN2+
180.0457	24	C9H7FNO2+
181.0765	1	C12H9N2+
183.092	1	C12H11N2+
184.0564	2	C12H7FN+
184.0633	1	C11H8N2O+
185.0509	8	C11H6FN2+
185.1075	146	C12H13N2+
186.0347	1	C11H5FNO+
186.059	4	C11H7FN2+
186.0717	1	C12H9FN+
187.067	1	C11H8FN2+
189.046	1	C10H6FN2O+
189.0825	1	C11H10FN2+
190.0653	3	C14H8N+
191.098	12	C11H12FN2+
192.106	5	C11H13FN2+
194.0616	1	C10H9FNO2+
196.0997	33	C13H12N2+
197.0766	1	C14H10F+
198.0716	5	C13H9FN+
201.0518	8	C13H7F2+
201.0661	20	C11H9N2O2+
203.0617	40	C11H8FN2O+
204.0813	3	C15H10N+
205.0766	1	C14H9N2+
205.1139	9	C12H14FN2+
209.0639	29	C14H8FN+
210.0716	21	C14H9FN+
211.0795	7	C14H10FN+
213.1021	1	C13H13N2O+
216.0622	5	C13H8F2N+
219.0569	3	C11H8FN2O2+
219.093	7	C12H12FN2O+
220.0554	1	C15H7FN+
221.0725	15	C8H11F2N2O3+
222.0716	23	C15H9FN+
223.067	13	C14H8FN2+
223.0793	4	C15H10FN+
224.087	20	C15H11FN+
225.0825	28	C14H10FN2+
226.0468	3	C14H6F2N+
227.0542	21	C14H7F2N+
228.0622	32	C14H8F2N+
229.0699	39	C14H9F2N+
230.0661	1	C13H8F2N2+
230.0781	4	C14H10F2N+
231.049	1	C13H7F2NO+
231.0732	1	C13H9F2N2+
234.0716	10	C16H9FN+
235.0672	4	C15H8FN2+
235.0795	8	C16H10FN+
236.0509	11	C15H7FNO+
236.0623	1	C19H8+
236.0747	9	C15H9FN2+
236.0873	11	C16H11FN+
237.0586	5	C15H8FNO+
237.0827	28	C15H10FN2+
237.0944	2	C16H12FN+
238.0667	42	C15H9FNO+
239.0545	3	C15H7F2N+
239.0745	2	C15H10FNO+
240.0622	24	C15H8F2N+
241.0579	3	C14H7F2N2+
241.0698	47	C15H9F2N+
242.0777	52	C15H10F2N+
243.0733	17	C14H9F2N2+
243.0922	1	C17H11N2+
244.0809	3	C14H10F2N2+
245.0645	1	C14H9F2NO+
248.0748	8	C16H9FN2+
248.0874	2	C17H11FN+
249.0699	3	C20H9+
249.0824	34	C16H10FN2+
250.066	3	C16H9FNO+
250.0777	6	C20H10+
250.0904	36	C16H11FN2+
251.0743	3	C16H10FNO+
251.0982	45	C16H12FN2+
252.0821	10	C16H11FNO+
252.1049	1	C16H13FN2+
253.0776	5	C15H10FN2O+
254.0653	3	C15H8F2N2+
254.078	7	C16H10F2N+
255.0495	10	C15H7F2NO+
255.0729	23	C15H9F2N2+
255.086	8	C16H11F2N+
256.0571	117	C15H8F2NO+
256.0805	10	C15H10F2N2+
257.065	53	C15H9F2NO+
257.0881	25	C15H11F2N2+
258.0728	41	C15H10F2NO+
259.0867	4	C17H11N2O+
260.0747	8	C17H9FN2+
261.0826	30	C17H10FN2+
262.0779	8	C21H10+
262.0906	12	C17H11FN2+
263.0853	27	C16H10FN3+
263.0983	59	C17H12FN2+
264.046	17	C16H7FNO2+
264.0697	2	C16H9FN2O+
264.1056	26	C17H13FN2+
265.0777	12	C16H10FN2O+
265.1009	10	C16H12FN3+
265.114	18	C17H14FN2+
267.0728	7	C16H9F2N2+
268.0573	4	C16H8F2NO+
268.0805	7	C16H10F2N2+
269.0646	4	C16H9F2NO+
269.0888	48	C16H11F2N2+
270.0598	5	C15H8F2N2O+
270.0728	12	C16H10F2NO+
270.0964	32	C16H12F2N2+
271.0675	9	C15H9F2N2O+
271.0805	62	C16H11F2NO+
271.1048	10	C16H13F2N2+
272.0754	7	C15H10F2N2O+
272.0886	30	C16H12F2NO+
273.0833	10	C15H11F2N2O+
274.0903	3	C18H11FN2+
275.0852	1	C17H10FN3+
275.0982	6	C18H12FN2+
276.0695	3	C17H9FN2O+
276.0934	11	C17H11FN3+
276.1065	5	C15H14F2N2O+
277.0632	1	C19H7N3+
277.0776	18	C17H10FN2O+
277.1012	27	C17H12FN3+
277.1143	7	C15H15F2N2O+
278.0726	18	
278.0853	12	C17H11FN2O+
278.109	70	C17H13FN3+
279.0931	209	C17H12FN2O+
280.1247	25	C17H15FN3+
281.0887	88	C17H11F2N2+
282.0564	19	C16H9FNO3+
282.0726	22	C17H10F2NO+
282.0972	3	C17H12F2N2+
283.068	71	C16H9F2N2O+
283.1041	12	C17H13F2N2+
284.0522	21	C16H8F2NO2+
284.0757	27	C16H10F2N2O+
285.0837	148	C16H11F2N2O+
288.0937	1	C18H11FN3+
289.0546	5	C15H9F2NO3+
289.0773	4	C18H10FN2O+
290.0725	9	C17H9FN3O+
290.1089	44	C18H13FN3+
291.0803	34	C17H10FN3O+
291.0935	14	C15H13F2N2O2+
291.1169	63	C18H14FN3+
292.0883	16	C17H11FN3O+
292.1016	2	C15H14F2N2O2+
292.1243	7	C18H15FN3+
293.0724	11	C17H10FN2O2+
293.0958	17	
293.1092	9	C15H15F2N2O2+
294.1039	1	C17H13FN3O+
296.0758	1	C17H10F2N2O+
297.0837	70	C17H11F2N2O+
298.0914	4	C17H12F2N2O+
299.0994	999	C17H13F2N2O+
302.0626	20	C16H10F2NO3+
303.0931	4	C19H12FN2O+
304.0882	11	C18H11FN3O+
304.1246	20	C19H15FN3+
305.0726	22	C18H10FN2O2+
305.095	11	C21H11N3+
305.1112	1	C13H15N5O4+
305.1327	36	C19H16FN3+
306.0675	28	C17H9FN3O2+
306.104	88	C18H13FN3O+
306.1404	169	C19H17FN3+
307.0879	5	C18H12FN2O2+
307.1484	6	C19H18FN3+
308.1198	10	C18H15FN3O+
309.0842	1	C18H11F2N2O+
310.0782	5	C17H10F2N3O+
311.0626	28	C17H9F2N2O2+
311.0851	31	C20H10FN3+
311.0998	14	C18H13F2N2O+
311.1216	9	C18H15F2N3+
313.0777	1	C17H11F2N2O2+
313.1151	8	C18H15F2N2O+
315.07	1	C17H11F2NO3+
317.073	8	C16H11F2N2O3+
318.0676	18	C18H9FN3O2+
318.1038	11	C19H13FN3O+
318.1403	4	C20H17FN3+
319.0727	14	C21H9N3O+
320.083	1	C18H11FN3O2+
320.1195	9	C19H15FN3O+
323.0827	9	C18H12FN2O3+
324.0778	14	
324.0949	6	C18H12F2N3O+
324.1128	14	
325.079	35	C18H11F2N2O2+
325.099	5	C18H14FN2O3+
326.1101	4	C18H14F2N3O+
326.1468	12	C19H18F2N3+
329.0736	28	C17H11F2N2O3+
332.0836	3	C16H12F2N3O3+
332.1202	5	C17H16F2N3O2+
333.1273	9	C20H16FN3O+
334.0991	41	C19H13FN3O2+
334.135	43	C20H17FN3O+
335.0827	4	C19H12FN2O3+
336.0781	11	C18H11FN3O3+
336.1507	4	C20H19FN3O+
338.074	9	C21H9FN3O+
338.111	1	C19H14F2N3O+
338.1466	18	C20H18F2N3+
339.0816	63	C18H11F2N3O2+
339.1166	21	C19H15F2N3O+
343.0892	26	C18H13F2N2O3+
346.0983	4	C20H13FN3O2+
352.0892	18	C19H12F2N3O2+
352.1096	16	C19H15FN3O3+
353.0976	7	C19H13F2N3O2+
354.1052	32	C19H14F2N3O2+
356.1568	3	C20H20F2N3O+
362.1304	23	C21H17FN3O2+
367.1124	4	C20H15F2N3O2+
380.1411	9	C21H19FN3O3+
382.1364	123	C21H18F2N3O2+
400.1471	171	C21H20F2N3O3+
