Mass spectrum: Cycloxydim-TP BH 517-TSO E/Z-isomer; LC-ESI-QFT; MS2; CE: 90%; R=17500; [M+H]+
Name: Cycloxydim-TP BH 517-TSO E/Z-isomer
Name: Cycloxydim sulfoxide
Formula: C17H27NO4S
Exact mass: 341.1661
SMILES: CCC\C(=N/OCC)C1=C(O)CC(CC1=O)C1CCCS(=O)C1
InChI: InChI=1S/C17H27NO4S/c1-3-6-14(18-22-4-2)17-15(19)9-13(10-16(17)20)12-7-5-8-23(21)11-12/h12-13,19H,3-11H2,1-2H3/b18-14+
Instrument: Q Exactive Plus Orbitrap Thermo Scientific
Instrument type: LC-ESI-QFT
Ms type: MS2
Ion mode: POSITIVE
Ionization: ESI
Fragmentation mode: HCD
Collision energy: 90 % (nominal)
Resolution: 17500
Column name: XBridge C18 3.5um, 2.1x50mm, Waters
Retention time: 7.731 min
Base peak: 342.1734
Precursor m/z: 342.1734
Precursor type: [M+H]+
m/z	relative intensity	assigned
51.0229	30	C4H3+
53.0021	45	C3HO+
53.0386	209	C4H5+
54.0338	21	C3H4N+
55.0179	184	C3H3O+
55.0542	189	C4H7+
56.0495	84	C3H6N+
57.0334	45	C3H5O+
58.995	379	C2H3S+
61.0106	69	C2H5S+
62.9899	320	CH3OS+
65.0386	420	C5H5+
66.0463	36	C5H6+
67.0177	54	C4H3O+
67.0417	61	C4H5N+
67.0542	624	C5H7+
68.0131	56	C3H2NO+
68.0495	197	C4H6N+
68.9972	42	C3HO2+
69.0335	218	C4H5O+
69.0699	35	C5H9+
70.0651	188	C4H8N+
73.0108	59	C3H5S+
77.0054	29	C2H5OS+
79.0542	667	C6H7+
80.0495	148	C5H6N+
81.0335	197	C5H5O+
81.0573	40	C5H7N+
81.0699	178	C6H9+
82.0652	259	C5H8N+
85.0108	101	C4H5S+
87.0263	676	C4H7S+
91.0543	999	C7H7+
93.0336	54	C6H5O+
93.0575	157	C6H7N+
93.07	192	C7H9+
94.0412	52	C6H6O+
94.0651	169	C6H8N+
95.0127	54	C5H3O2+
95.0491	416	C6H7O+
95.086	41	C7H11+
96.0443	46	C5H6NO+
96.0809	35	C6H10N+
97.0107	93	C5H5S+
99.0262	36	C5H7S+
101.0419	354	C5H9S+
103.0543	261	C8H7+
104.0491	59	C7H6N+
104.0623	40	C8H8+
105.0336	39	C7H5O+
105.0448	148	H11NO3S+
105.07	751	C8H9+
106.0651	61	C7H8N+
107.0491	704	C7H7O+
107.0852	27	
108.0444	102	C6H6NO+
108.0805	80	C7H10N+
109.0649	96	C7H9O+
110.0601	317	C6H8NO+
111.0439	114	C6H7O2+
112.0757	383	C6H10NO+
115.0542	484	C9H7+
116.062	74	C9H8+
117.0574	95	C8H7N+
117.07	174	C9H9+
118.0653	61	C8H8N+
119.0855	55	C9H11+
120.0806	89	C8H10N+
121.0519	31	C7H7NO+
121.0648	122	C8H9O+
122.0364	101	C7H6O2+
122.0604	47	CH14O4S+
122.0964	190	C8H12N+
123.0441	180	C7H7O2+
124.0757	61	C7H10NO+
127.0573	26	C7H11S+
128.062	169	C10H8+
129.0371	129	C6H9OS+
129.0699	146	C10H9+
130.0649	61	C9H8N+
131.0493	94	C9H7O+
131.073	46	C9H9N+
131.0852	47	C10H11+
132.0442	60	C8H6NO+
132.0568	23	C9H8O+
132.0806	96	C9H10N+
133.0647	206	C9H9O+
134.0601	59	C8H8NO+
135.0258	28	C8H7S+
135.0437	32	C8H7O2+
135.0803	46	C9H11O+
136.0392	76	C7H6NO2+
136.0756	70	C8H10NO+
141.07	68	C11H9+
143.0727	23	C10H9N+
144.0571	53	C10H8O+
144.0806	55	C10H10N+
145.0649	119	C10H9O+
146.0603	169	C9H8NO+
147.0443	54	C9H7O2+
147.0804	46	C10H11O+
149.0472	393	C8H7NO2+
149.0589	48	C9H9O2+
150.0917	115	C3H18O4S+
153.0704	31	C12H9+
155.0611	44	C4H13NO3S+
157.0646	38	C11H9O+
158.073	25	C11H10O+
159.0675	70	C10H9NO+
160.0518	190	C10H8O2+
160.0752	100	C10H10NO+
161.0597	180	C10H9O2+
162.0548	78	C9H8NO2+
162.0912	44	C10H12NO+
163.0754	68	C10H11O2+
164.0704	31	C9H10NO2+
173.0595	31	C11H9O2+
175.0626	33	C10H9NO2+
175.076	119	C11H11O2+
178.0864	108	C10H12NO2+
