Mass spectrum: Chlorophacinone; LC-ESI-QFT; MS2; CE: 90%; R=17500; [M+H]+
Name: Chlorophacinone
Name: 2-[2-(4-chlorophenyl)-2-phenylacetyl]indene-1,3-dione
Formula: C23H15ClO3
Exact mass: 374.0710
SMILES: C1=CC=C(C=C1)C(C2=CC=C(C=C2)Cl)C(=O)C3C(=O)C4=CC=CC=C4C3=O
InChI: InChI=1S/C23H15ClO3/c24-16-12-10-15(11-13-16)19(14-6-2-1-3-7-14)23(27)20-21(25)17-8-4-5-9-18(17)22(20)26/h1-13,19-20H
Instrument: Exploris 240 Orbitrap Thermo Scientific
Instrument type: LC-ESI-QFT
Ms type: MS2
Ion mode: POSITIVE
Ionization: ESI
Fragmentation mode: HCD
Collision energy: 90 % (nominal)
Resolution: 17500
Column name: XBridge C18 3.5um, 2.1x50mm, Waters
Retention time: 14.480 min
Base peak: 375.0783
Precursor m/z: 375.0782
Precursor type: [M+H]+
m/z	relative intensity	assigned
53.0385	20	C4H5+
77.0386	53	C6H5+
89.0385	18	C7H5+
91.0541	15	C7H7+
95.0491	91	C6H7O+
101.0385	28	C8H5+
103.0543	39	C8H7+
105.0335	175	C7H5O+
119.0491	23	C8H7O+
125.0148	15	C7H6Cl+
129.0334	151	C9H5O+
131.0496	36	C9H7O+
133.0284	37	C8H5O2+
137.0154	27	C8H6Cl+
138.9945	22	C7H4ClO+
165.0099	14	C9H6ClO+
165.07	163	C13H9+
166.0774	74	C13H10+
169.0645	11	C12H9O+
176.062	91	C14H8+
177.0697	64	C14H9+
178.0777	999	C14H10+
179.0852	142	C14H11+
188.0623	27	C15H8+
189.0698	373	C15H9+
190.0776	17	C15H10+
205.0644	114	C15H9O+
206.0726	56	C15H10O+
207.0801	70	C15H11O+
217.0643	108	C16H9O+
223.0311	64	C15H8Cl+
233.0597	170	C16H9O2+
234.0681	23	C16H10O2+
235.0757	12	C16H11O2+
251.0258	16	C16H8ClO+
263.0859	50	C21H11+
264.0935	25	C21H12+
265.1011	270	C21H13+
274.0781	14	C22H10+
275.0848	12	C22H11+
276.0932	200	C22H12+
277.1014	31	C22H13+
292.0888	82	C22H12O+
293.0969	67	C22H13O+
320.0837	28	C23H12O2+
321.0904	61	C23H13O2+
