Mass spectrum: Metolachlor OXA; LC-ESI-ITFT; MS2; CE: 45%; R=15000; [M+H]+
Name: Metolachlor OXA
Name: 2-(2-ethyl-N-(2-methoxy-1-methyl-ethyl)-6-methyl-anilino)-2-keto-acetic acid
Formula: C15H21NO4
Exact mass: 279.1471
SMILES: CC1=CC=CC(CC)=C1N(C(C)COC)C(C(O)=O)=O
InChI: InChI=1S/C15H21NO4/c1-5-12-8-6-7-10(2)13(12)16(11(3)9-20-4)14(17)15(18)19/h6-8,11H,5,9H2,1-4H3,(H,18,19)
Instrument: LTQ Orbitrap XL Thermo Scientific
Instrument type: LC-ESI-ITFT
Ms type: MS2
Ion mode: POSITIVE
Ionization: ESI
Fragmentation mode: HCD
Collision energy: 45 % (nominal)
Resolution: 15000
Column name: XBridge C18 3.5um, 2.1x50mm, Waters
Retention time: 9.3 min
Base peak: 280.1539
Precursor m/z: 280.1543
Precursor type: [M+H]+
m/z	relative intensity	assigned
73.0648	64	C4H9O+
91.0541	1	C7H7+
93.0699	2	C7H9+
117.0697	2	C9H9+
118.0652	7	C8H8N+
119.0854	10	C9H11+
120.0804	2	C8H10N+
129.0701	1	C10H9+
131.0729	21	C9H9N+
132.0808	15	C9H10N+
133.0885	6	C9H11N+
134.06	7	C8H8NO+
134.0964	35	C9H12N+
135.0806	1	C9H11O+
144.0808	39	C10H10N+
145.0886	9	C10H11N+
146.0964	202	C10H12N+
147.1041	4	C10H13N+
148.112	127	C10H14N+
149.023	2	C8H5O3+
150.0268	1	C3H6N2O5+
158.0965	1	C11H12N+
159.1043	3	C11H13N+
160.0756	12	C10H10NO+
160.1121	24	C11H14N+
162.0913	49	C10H12NO+
163.0761	1	C10H11O2+
171.1045	1	C12H13N+
174.0911	7	C11H12NO+
174.1276	33	C12H16N+
175.135	1	C12H17N+
176.1433	113	C12H18N+
184.112	3	C13H14N+
202.1226	28	C13H16NO+
204.1382	20	C13H18NO+
206.1543	3	C13H20NO+
208.0975	1	C11H14NO3+
220.1332	41	C13H18NO2+
248.1279	999	C14H18NO3+
