Mass spectrum: N-Nitrosopyrrolidine (NPYR); LC-ESI-QFT; MS2; CE: 90; R=70000; [M+H]+
Name: N-Nitrosopyrrolidine (NPYR)
Name: 1-nitrosopyrrolidine
Formula: C4H8N2O
Exact mass: 100.06366
SMILES: C1CCN(C1)N=O
InChI: InChI=1S/C4H8N2O/c7-5-6-3-1-2-4-6/h1-4H2
Instrument: Q Exactive Plus Orbitrap Thermo Scientific
Instrument type: LC-ESI-QFT
Ms type: MS2
Ion mode: POSITIVE
Ionization: ESI
Fragmentation mode: HCD
Collision energy: 90 (nominal)
Resolution: 70000
Column name: XBridge C18 3.5um, 2.1x50mm, Waters
Retention time: 2.2 min
Base peak: 101.071
Precursor m/z: 101.0709
Precursor type: [M+H]+
m/z	relative intensity	assigned
53.0022	9	C3HO+
53.0386	35	C4H5+
53.9975	1	C2NO+
55.0542	999	C4H7+
56.062	27	C4H8+
58.0413	2	C3H6O+
59.024	75	CH3N2O+
67.9893	1	C3O2+
70.0651	4	C4H8N+
101.0709	736	C4H9N2O+
