Mass spectrum: Iprobenfos; LC-ESI-QFT; MS2; CE: 15%; R=17500; [M+H]+
Name: Iprobenfos
Name: di(propan-2-yloxy)phosphorylsulfanylmethylbenzene
Formula: C13H21O3PS
Exact mass: 288.0949
SMILES: CC(C)OP(=O)(OC(C)C)SCC1=CC=CC=C1
InChI: InChI=1S/C13H21O3PS/c1-11(2)15-17(14,16-12(3)4)18-10-13-8-6-5-7-9-13/h5-9,11-12H,10H2,1-4H3
Instrument: Exploris 240 Orbitrap Thermo Scientific
Instrument type: LC-ESI-QFT
Ms type: MS2
Ion mode: POSITIVE
Ionization: ESI
Fragmentation mode: HCD
Collision energy: 15 % (nominal)
Resolution: 17500
Column name: XBridge C18 3.5um, 2.1x50mm, Waters
Retention time: 10.650 min
Base peak: 289.1021
Precursor m/z: 289.1022
Precursor type: [M+H]+
m/z	relative intensity	assigned
91.0543	209	C7H7+
205.0083	999	C7H10O3PS+
