Mass spectrum: Amisulpride; LC-ESI-ITFT; MS2; CE: 60%; R=7500; [M+H]+
Name: Amisulpride
Name: 4-amino-5-esyl-N-[(1-ethylpyrrolidin-2-yl)methyl]-2-methoxy-benzamide
Formula: C17H27N3O4S
Exact mass: 369.1722
SMILES: CCN1CCCC1CNC(=O)C2=CC(=C(C=C2OC)N)S(=O)(=O)CC
InChI: InChI=1S/C17H27N3O4S/c1-4-20-8-6-7-12(20)11-19-17(21)13-9-16(25(22,23)5-2)14(18)10-15(13)24-3/h9-10,12H,4-8,11,18H2,1-3H3,(H,19,21)
Instrument: LTQ Orbitrap XL Thermo Scientific
Instrument type: LC-ESI-ITFT
Ms type: MS2
Ion mode: POSITIVE
Ionization: ESI
Fragmentation mode: HCD
Collision energy: 60 % (nominal)
Resolution: 7500
Column name: XBridge C18 3.5um, 2.1x50mm, Waters
Retention time: 3.8 min
Base peak: 370.1806
Precursor m/z: 370.1795
Precursor type: [M+H]+
m/z	relative intensity	assigned
58.0652	4	C3H8N+
84.0808	15	C5H10N+
98.0965	9	C6H12N+
112.1121	230	C7H14N+
129.1383	3	C7H17N2+
138.0181	4	C6H4NO3+
147.0308	4	C8H5NO2+
149.047	28	H11N3O4S+
150.0548	5	C8H8NO2+
155.1184	4	C8H15N2O+
168.0115	16	C7H6NO2S+
177.9953	2	C8H4NO2S+
196.0063	359	C8H6NO3S+
214.0167	125	C8H8NO4S+
242.0481	999	C10H12NO4S+
