Mass spectrum: Thymol; LC-ESI-QFT; MS2; CE: 30%; R=17500; [M+H]+
Name: Thymol
Name: 5-methyl-2-propan-2-ylphenol
Formula: C10H14O
Exact mass: 150.1045
SMILES: CC1=CC(=C(C=C1)C(C)C)O
InChI: InChI=1S/C10H14O/c1-7(2)9-5-4-8(3)6-10(9)11/h4-7,11H,1-3H3
Instrument: Exploris 240 Orbitrap Thermo Scientific
Instrument type: LC-ESI-QFT
Ms type: MS2
Ion mode: POSITIVE
Ionization: ESI
Fragmentation mode: HCD
Collision energy: 30 % (nominal)
Resolution: 17500
Column name: XBridge C18 3.5um, 2.1x50mm, Waters
Retention time: 12.711 min
Base peak: 334.1344
Precursor m/z: 151.1117
Precursor type: [M+H]+
m/z	relative intensity	assigned
81.07	266	C6H9+
95.0854	92	C7H11+
109.0653	130	C7H9O+
123.1169	999	C9H15+
151.1117	862	C10H15O+
