Mass spectrum: Normianserin; LC-ESI-QFT; MS2; CE: 180; R=35000; [M+H]+
Name: Normianserin
Name: N-desmethylmianserin
Name: 1,2,3,4,10,14b-Hexahydrodibenzo[c,f]pyrazino[1,2-a]azepine
Formula: C17H18N2
Exact mass: 250.14700
SMILES: C3c1ccccc1C2CNCCN2c4ccccc34
InChI: InChI=1S/C17H18N2/c1-3-7-15-13(5-1)11-14-6-2-4-8-16(14)19-10-9-18-12-17(15)19/h1-8,17-18H,9-12H2
Instrument: Q Exactive Plus Orbitrap Thermo Scientific
Instrument type: LC-ESI-QFT
Ms type: MS2
Ion mode: POSITIVE
Ionization: ESI
Fragmentation mode: HCD
Collision energy: 180 (nominal)
Resolution: 35000
Column name: XBridge C18 3.5um, 2.1x50mm, Waters
Retention time: 6.7 min
Base peak: 251.1539
Precursor m/z: 251.1543
Precursor type: [M+H]+
m/z	relative intensity	assigned
50.0151	222	C4H2+
51.0229	318	C4H3+
53.0022	31	C3HO+
53.0386	107	C4H5+
54.0338	6	C3H4N+
55.0178	9	C3H3O+
56.0495	8	C3H6N+
61.0072	9	C5H+
62.0151	38	C5H2+
63.0229	252	C5H3+
64.0307	23	C5H4+
65.0386	999	C5H5+
66.0464	55	C5H6+
67.0416	9	C4H5N+
67.0542	3	C5H7+
71.0603	7	C3H7N2+
74.015	16	C6H2+
75.0228	52	C6H3+
76.0306	16	C6H4+
77.0385	293	C6H5+
78.0337	11	C5H4N+
78.0464	87	C6H6+
79.0542	56	C6H7+
80.0494	10	C5H6N+
81.0335	13	C5H5O+
83.0603	3	C4H7N2+
87.0229	10	C7H3+
89.0386	677	C7H5+
90.0464	191	C7H6+
91.0542	683	C7H7+
92.0494	21	C6H6N+
93.0573	40	C6H7N+
94.0412	8	C6H6O+
95.0491	453	C6H7O+
96.0443	9	C5H6NO+
101.0385	7	C8H5+
102.0464	72	C8H6+
103.0542	133	C8H7+
104.0494	30	C7H6N+
105.0447	227	C6H5N2+
105.0699	12	C8H9+
106.0651	16	C7H8N+
109.065	1	C7H9O+
113.0386	9	C9H5+
114.0463	2	C9H6+
115.0542	560	C9H7+
116.0494	19	C8H6N+
116.0619	7	C9H8+
117.0572	146	C8H7N+
118.0651	52	C8H8N+
119.049	3	C8H7O+
126.0464	41	C10H6+
127.0541	18	C10H7+
128.0494	18	C9H6N+
128.062	91	C10H8+
129.0446	14	C8H5N2+
129.0571	2	C9H7N+
130.0651	94	C9H8N+
131.0605	19	C8H7N2+
139.0542	98	C11H7+
140.0495	21	C10H6N+
140.062	3	C11H8+
141.0571	7	C10H7N+
141.0698	4	C11H9+
142.065	4	C10H8N+
143.0728	3	C10H9N+
144.0804	1	C10H10N+
145.0646	10	C10H9O+
146.06	6	C9H8NO+
150.0464	71	C12H6+
151.0543	31	C12H7+
152.062	177	C12H8+
153.0569	2	C11H7N+
153.0698	3	C12H9+
154.0651	3	C11H8N+
155.0603	21	C10H7N2+
163.0542	100	C13H7+
164.062	84	C13H8+
165.0699	346	C13H9+
166.0651	16	C12H8N+
167.0728	7	C12H9N+
168.0568	32	C12H8O+
169.0648	105	C12H9O+
175.0545	3	C14H7+
176.062	185	C14H8+
177.0579	14	C13H7N+
177.0699	50	C14H9+
178.0649	10	
178.0777	94	C14H10+
179.0604	28	C12H7N2+
179.0728	2	C13H9N+
180.0807	7	C13H10N+
187.054	14	
188.062	10	
189.0699	79	C15H9+
190.0651	60	C14H8N+
191.0729	40	C14H9N+
192.0805	10	C14H10N+
196.0521	12	
200.062	10	C16H8+
201.0573	3	C15H7N+
201.0691	1	C16H9+
202.0776	11	C16H10+
203.0726	17	C15H9N+
204.0808	48	C15H10N+
205.0758	2	C14H9N2+
214.065	14	C16H8N+
215.0728	9	C16H9N+
216.0807	40	C16H10N+
217.0883	8	C16H11N+
218.0844	2	C15H10N2+
