Mass spectrum: Spirotetramat BYI08330-enol; LC-ESI-QFT; MS2; CE: 150%; R=17500; [M+H]+
Name: Spirotetramat BYI08330-enol
Name: Cis-3-(2,5-dimethylphenyl)-4-hydroxy-8-methoxy-1-azaspiro(4.5)dec-3-en-2-one
Name: 3-(2,5-dimethylphenyl)-4-hydroxy-8-methoxy-1-azaspiro[4.5]dec-3-en-2-one
Formula: C18H23NO3
Exact mass: 301.1678
SMILES: CC1=CC(=C(C=C1)C)C2=C(C3(CCC(CC3)OC)NC2=O)O
InChI: InChI=1S/C18H23NO3/c1-11-4-5-12(2)14(10-11)15-16(20)18(19-17(15)21)8-6-13(22-3)7-9-18/h4-5,10,13,20H,6-9H2,1-3H3,(H,19,21)
Instrument: Exploris 240 Orbitrap Thermo Scientific
Instrument type: LC-ESI-QFT
Ms type: MS2
Ion mode: POSITIVE
Ionization: ESI
Fragmentation mode: HCD
Collision energy: 150 % (nominal)
Resolution: 17500
Column name: XBridge C18 3.5um, 2.1x50mm, Waters
Retention time: 6.514 min
Base peak: 302.1748
Precursor m/z: 302.1751
Precursor type: [M+H]+
m/z	relative intensity	assigned
51.023	41	C4H3+
53.0386	92	C4H5+
54.0339	28	C3H4N+
55.0179	19	C3H3O+
65.0386	212	C5H5+
67.0541	32	C5H7+
77.0385	239	C6H5+
78.0462	82	C6H6+
79.0543	155	C6H7+
89.0387	33	C7H5+
91.0542	877	C7H7+
95.0494	64	C6H7O+
102.0464	83	C8H6+
103.0543	194	C8H7+
104.0622	69	C8H8+
105.0695	161	C8H9+
115.0542	999	C9H7+
116.0622	68	C9H8+
117.0701	147	C9H9+
119.0858	72	C9H11+
127.0543	93	C10H7+
128.062	540	C10H8+
129.0698	358	C10H9+
130.0653	121	C9H8N+
130.0777	80	C10H10+
139.0541	28	C11H7+
141.0695	99	C11H9+
144.0808	138	C10H10N+
152.0621	110	C12H8+
153.0704	60	C12H9+
157.0649	26	C11H9O+
165.07	75	C13H9+
178.0782	29	C14H10+
