Mass spectrum: N,N-Didesmethylvenlafaxine; LC-ESI-ITFT; MS2; CE: 45%; R=7500; [M+H]+
Name: N,N-Didesmethylvenlafaxine
Name: 1-[2-Amino-1-(4-methoxyphenyl)ethyl]cyclohexanol
Formula: C15H23NO2
Exact mass: 249.1729
SMILES: OC2(C(c1ccc(OC)cc1)CN)CCCCC2
InChI: InChI=1S/C15H23NO2/c1-18-13-7-5-12(6-8-13)14(11-16)15(17)9-3-2-4-10-15/h5-8,14,17H,2-4,9-11,16H2,1H3
Instrument: LTQ Orbitrap XL Thermo Scientific
Instrument type: LC-ESI-ITFT
Ms type: MS2
Ion mode: POSITIVE
Ionization: ESI
Fragmentation mode: HCD
Collision energy: 45 % (nominal)
Resolution: 7500
Column name: XBridge C18 3.5um, 2.1x50mm, Waters
Retention time: 6.3 min
Base peak: 250.1814
Precursor m/z: 250.1802
Precursor type: [M+H]+
m/z	relative intensity	assigned
69.0699	9	C5H9+
79.0543	41	C6H7+
81.0699	41	C6H9+
91.0542	49	C7H7+
93.0701	36	C7H9+
107.0857	58	C8H11+
121.065	999	C8H9O+
124.1119	19	C8H14N+
132.0571	31	C9H8O+
135.0805	62	C9H11O+
147.0806	706	C10H11O+
150.0912	9	C9H12NO+
159.0806	181	C11H11O+
173.0962	242	C12H13O+
183.1174	21	C14H15+
187.1124	14	C13H15O+
201.1277	28	C14H17O+
203.1422	22	C14H19O+
215.1431	778	C15H19O+
