Mass spectrum: Isoxaflutole; LC-ESI-QFT; MS2; CE: 90; R=35000; [M+H]+
Name: Isoxaflutole
Name: (5-cyclopropyl-1,2-oxazol-4-yl)-[2-methylsulfonyl-4-(trifluoromethyl)phenyl]methanone
Formula: C15H12F3NO4S
Exact mass: 359.04391
SMILES: O=C(c1c(onc1)C2CC2)c3ccc(cc3S(=O)(=O)C)C(F)(F)F
InChI: InChI=1S/C15H12F3NO4S/c1-24(21,22)12-6-9(15(16,17)18)4-5-10(12)13(20)11-7-19-23-14(11)8-2-3-8/h4-8H,2-3H2,1H3
Instrument: Q Exactive Plus Orbitrap Thermo Scientific
Instrument type: LC-ESI-QFT
Ms type: MS2
Ion mode: POSITIVE
Ionization: ESI
Fragmentation mode: HCD
Collision energy: 90 (nominal)
Resolution: 35000
Column name: XBridge C18 3.5um, 2.1x50mm, Waters
Retention time: 8.7 min
Base peak: 360.0506
Precursor m/z: 360.0512
Precursor type: [M+H]+
m/z	relative intensity	assigned
50.0151	10	C4H2+
51.0041	3	CHF2+
51.0229	12	C4H3+
53.0023	20	C3HO+
53.0386	3	C4H5+
53.9974	2	C2NO+
55.0179	11	C3H3O+
57.0134	17	C3H2F+
58.9951	7	C2H3S+
59.0292	3	C3H4F+
59.9664	18	COS+
62.0152	1	C5H2+
62.97	23	CFS+
62.9899	157	CH3OS+
63.0229	62	C5H3+
65.0385	6	C5H5+
66.0101	2	C4H2O+
66.0464	4	C5H6+
67.0177	1	C4H3O+
67.9894	2	C3O2+
68.0058	1	C4HF+
68.9793	39	C3HS+
68.9946	16	CF3+
69.0335	75	C4H5O+
70.0213	90	C4H3F+
70.995	8	C3H3S+
71.0291	10	C4H4F+
73.0085	1	C3H2FO+
75.004	27	C3HF2+
75.0229	76	C6H3+
76.012	2	C3H2F2+
77.0022	8	C5HO+
77.0197	8	C3H3F2+
77.0386	7	C6H5+
78.0464	2	C6H6+
78.9848	47	CH3O2S+
79.0178	123	C5H3O+
80.0494	3	C5H6N+
81.0133	2	C5H2F+
81.0335	3	C5H5O+
81.9872	2	C4H2S+
82.0213	8	C5H3F+
83.0292	146	C5H4F+
88.012	4	C4H2F2+
88.9856	2	C3H2FS+
89.0197	9	C4H3F2+
89.0387	18	C7H5+
90.0278	3	C4H4F2+
90.0465	6	C7H6+
90.9991	34	C3HF2O+
94.0214	20	C6H3F+
94.9951	183	C5H3S+
95.0103	12	C3H2F3+
95.0292	10	C6H4F+
95.0492	18	C6H7O+
96.0028	8	C5H4S+
96.037	13	C6H5F+
97.0108	38	C5H5S+
97.0449	3	C6H6F+
98.016	3	C5H3FO+
98.0188	11	C5H6S+
99.004	2	C5HF2+
99.0233	36	C8H3+
100.012	11	C5H2F2+
101.0198	846	C5H3F2+
101.9936	2	C4H3FS+
102.0276	7	C5H4F2+
103.0354	9	C5H5F2+
105.0335	3	C7H5O+
105.0448	10	C6H5N2+
106.9763	3	C3HF2S+
107.01	1	C4H2F3+
107.0131	1	C6H3O2+
107.0293	2	C7H4F+
108.0028	93	C6H4S+
109.0449	657	C7H6F+
110.016	77	C6H3FO+
111.0242	9	C6H4FO+
112.0319	272	C6H5FO+
113.0198	82	C6H3F2+
113.0397	8	C6H6FO+
113.9935	47	C5H3FS+
114.0276	54	C6H4F2+
115.0013	336	C5H4FS+
115.0354	25	C6H5F2+
117.0145	2	C5H3F2O+
118.0226	10	C5H4F2O+
119.0104	86	C5H2F3+
119.0293	35	C8H4F+
120.0182	589	C5H3F3+
121.026	157	C5H4F3+
123.0055	2	C4H2F3O+
123.0353	24	C3H9NO2S+
124.012	3	C7H2F2+
125.0198	193	C7H3F2+
125.9935	3	C6H3FS+
126.0278	2	C7H4F2+
127.0355	385	C7H5F2+
128.0064	2	C6H2F2O+
128.0269	20	C6H5FO2+
128.0621	1	C10H8+
129.0146	212	C6H3F2O+
130.0225	8	C6H4F2O+
131.0305	30	C6H5F2O+
132.0182	999	C6H3F3+
133.026	246	C6H4F3+
134.0339	22	C6H5F3+
137.0398	2	C8H6FO+
139.0013	23	C7H4FS+
139.0355	34	C8H5F2+
139.0543	8	C11H7+
141.0147	416	C7H3F2O+
141.0259	175	C3H8FNO2S+
142.0226	38	C7H4F2O+
143.0105	150	C7H2F3+
143.0304	144	C7H5F2O+
143.984	35	
144.0183	267	C7H3F3+
144.9919	161	C6H3F2S+
145.0261	219	C7H4F3+
145.9834	6	C5H3FO2S+
146.0172	11	C6H4F2O2+
146.0339	9	C7H5F3+
147.0077	30	C8H3O3+
147.0253	11	C6H5F2O2+
147.0354	70	C2H10FNO3S+
147.0415	8	C7H6F3+
148.0131	27	C6H3F3O+
149.021	252	C6H4F3O+
151.0357	3	C9H5F2+
151.9904	9	C7HFO3+
155.0609	2	C4H13NO3S+
156.992	409	C9HO3+
158.0343	6	C8H5F3+
159.0055	24	C7H2F3O+
159.0255	14	C7H5F2O2+
159.0418	67	C8H6F3+
160.0132	660	C7H3F3O+
161.021	569	C7H4F3O+
162.0288	521	C7H5F3O+
162.9825	10	C8FO3+
163.0364	2	C7H6F3O+
163.9903	875	C6H3F3S+
164.9982	339	C8H2FO3+
166.0238	34	C6H5F3O2+
167.0313	19	C6H6F3O2+
171.0078	2	C10H3O3+
172.0132	353	C8H3F3O+
172.0241	94	C4H8F2NO2S+
173.0211	57	C8H4F3O+
173.0323	44	C4H9F2NO2S+
174.0164	112	C7H3F3NO+
175.0366	33	C8H6F3O+
175.9904	37	C9HFO3+
176.0081	83	C7H3F3O2+
176.9983	80	C9H2FO3+
177.0159	44	C7H4F3O2+
178.0237	62	C7H5F3O2+
179.0138	74	C7H6F3S+
183.0418	2	C10H6F3+
188.0078	2	C8H3F3O2+
189.0159	152	C8H4F3O2+
192.0268	18	C7H5F3NO2+
192.9931	93	C9H2FO4+
194.0187	35	C7H5F3O3+
195.0263	27	C7H6F3O3+
195.9802	127	C6H3F3O2S+
203.9855	23	C10HFO4+
204.0145	35	C4H8F2NO4S+
204.9931	38	C10H2FO4+
206.0188	33	C8H5F3O3+
219.9803	765	C8H3F3O2S+
220.9881	56	C8H4F3O2S+
250.9987	52	C9H6F3O3S+
