Mass spectrum: Famphur; LC-ESI-QFT; MS2; CE: 75%; R=17500; [M+H]+
Name: Famphur
Name: 4-dimethoxyphosphinothioyloxy-N,N-dimethylbenzenesulfonamide
Formula: C10H16NO5PS2
Exact mass: 325.0208
SMILES: CN(C)S(=O)(=O)C1=CC=C(C=C1)OP(=S)(OC)OC
InChI: InChI=1S/C10H16NO5PS2/c1-11(2)19(12,13)10-7-5-9(6-8-10)16-17(18,14-3)15-4/h5-8H,1-4H3
Instrument: Exploris 240 Orbitrap Thermo Scientific
Instrument type: LC-ESI-QFT
Ms type: MS2
Ion mode: POSITIVE
Ionization: ESI
Fragmentation mode: HCD
Collision energy: 75 % (nominal)
Resolution: 17500
Column name: XBridge C18 3.5um, 2.1x50mm, Waters
Retention time: 6.830 min
Base peak: 326.0278
Precursor m/z: 326.028
Precursor type: [M+H]+
m/z	relative intensity	assigned
62.9994	165	CH4OP+
67.054	7	C5H7+
78.9944	47	CH4O2P+
81.0101	14	CH6O2P+
89.0385	5	C7H5+
93.0099	999	C2H6O2P+
95.0489	13	C6H7O+
96.003	13	C5H4S+
111.0271	15	C2H10NPS+
121.0107	10	C7H5S+
123.0264	7	C7H7S+
123.9975	19	C6H4OS+
124.982	150	C2H6O2PS+
127.0154	169	C2H8O4P+
138.0136	15	C3H9NOPS+
139.0211	14	C7H7OS+
142.9922	29	C2H8O3PS+
154.9715	118	C6H4OPS+
169.9585	28	C6H3O2PS+
171.9744	125	C6H5O2PS+
172.9828	12	C6H6O2PS+
184.9817	50	C7H6O2PS+
201.9852	51	C7H7O3PS+
202.9927	5	C7H8O3PS+
217.0082	12	C8H10O3PS+
