Mass spectrum: Diuron-desdimethyl; LC-ESI-ITFT; MS2; CE: 90%; R=15000; [M+H]+
Name: Diuron-desdimethyl
Name: Urea, (3,4-dichlorophenyl)-
Name: (3,4-dichlorophenyl)urea
Formula: C7H6Cl2N2O
Exact mass: 203.9857
SMILES: c1(cc(c(Cl)cc1)Cl)NC(N)=O
InChI: InChI=1S/C7H6Cl2N2O/c8-5-2-1-4(3-6(5)9)11-7(10)12/h1-3H,(H3,10,11,12)
Instrument: LTQ Orbitrap XL Thermo Scientific
Instrument type: LC-ESI-ITFT
Ms type: MS2
Ion mode: POSITIVE
Ionization: ESI
Fragmentation mode: HCD
Collision energy: 90 % (nominal)
Resolution: 15000
Column name: XBridge C18 3.5um, 2.1x50mm, Waters
Retention time: 8.3 min
Base peak: 204.9933
Precursor m/z: 204.993
Precursor type: [M+H]+
m/z	relative intensity	assigned
65.0386	1	C5H5+
84.9839	1	C4H2Cl+
86.9632	1	C3ClO+
90.0339	2	C6H4N+
91.0417	2	C6H5N+
92.0496	7	C6H6N+
98.9998	3	C5H4Cl+
100.0075	9	C5H5Cl+
108.984	6	C6H2Cl+
123.995	3	C6H3ClN+
125.0028	16	C6H4ClN+
126.0106	2	C6H5ClN+
127.0185	999	C6H6ClN+
132.9608	43	C5H3Cl2+
144.9608	1	C6H3Cl2+
152.9979	1	C4H7Cl2N2+
159.9717	54	C6H4Cl2N+
161.9873	12	C6H6Cl2N+
172.9669	15	C6H3Cl2N2+
