Mass spectrum: Flubendiamide; LC-ESI-QFT; MS2; CE: 60%; R=17500; [M-H]-
Name: Flubendiamide
Name: 1-N-[4-(1,1,1,2,3,3,3-heptafluoropropan-2-yl)-2-methylphenyl]-3-iodo-2-N-(2-methyl-1-methylsulfonylpropan-2-yl)benzene-1,2-dicarboxamide
Formula: C23H22F7IN2O4S
Exact mass: 682.0233
SMILES: CC1=C(C=CC(=C1)C(C(F)(F)F)(C(F)(F)F)F)NC(=O)C2=C(C(=CC=C2)I)C(=O)NC(C)(C)CS(=O)(=O)C
InChI: InChI=1S/C23H22F7IN2O4S/c1-12-10-13(21(24,22(25,26)27)23(28,29)30)8-9-16(12)32-18(34)14-6-5-7-15(31)17(14)19(35)33-20(2,3)11-38(4,36)37/h5-10H,11H2,1-4H3,(H,32,34)(H,33,35)
Instrument: Exploris 240 Orbitrap Thermo Scientific
Instrument type: LC-ESI-QFT
Ms type: MS2
Ion mode: NEGATIVE
Ionization: ESI
Fragmentation mode: HCD
Collision energy: 60 % (nominal)
Resolution: 17500
Column name: XBridge C18 3.5um, 2.1x50mm, Waters
Retention time: 10.966 min
Base peak: 681.0162
Precursor m/z: 681.016
Precursor type: [M-H]-
m/z	relative intensity	assigned
116.9959	8	C5F3-
126.905	518	I-
194.0224	999	C10H3F3N-
205.0279	34	C9H5F4O-
207.0235	16	C9H7N2O2S-
214.0286	907	C10H4F4N-
234.0351	112	C18H4N-
254.041	382	F5H18IN-
271.9214	158	C8H3INO2-
