Mass spectrum: Paichongding; LC-ESI-QFT; MS2; CE: 60%; R=17500; [M+H]+
Name: Paichongding
Name: 1-[(6-chloropyridin-3-yl)methyl]-7-methyl-8-nitro-5-propoxy-3,5,6,7-tetrahydro-2H-imidazo[1,2-a]pyridine
Formula: C17H23ClN4O3
Exact mass: 366.1459
SMILES: CCCOC1CC(C(=C2N1CCN2CC3=CN=C(C=C3)Cl)[N+](=O)[O-])C
InChI: InChI=1S/C17H23ClN4O3/c1-3-8-25-15-9-12(2)16(22(23)24)17-20(6-7-21(15)17)11-13-4-5-14(18)19-10-13/h4-5,10,12,15H,3,6-9,11H2,1-2H3
Instrument: Exploris 240 Orbitrap Thermo Scientific
Instrument type: LC-ESI-QFT
Ms type: MS2
Ion mode: POSITIVE
Ionization: ESI
Fragmentation mode: HCD
Collision energy: 60 % (nominal)
Resolution: 17500
Column name: XBridge C18 3.5um, 2.1x50mm, Waters
Retention time: 5.460 min
Base peak: 367.1531
Precursor m/z: 367.1531
Precursor type: [M+H]+
m/z	relative intensity	assigned
71.0491	142	C4H7O+
96.0681	11	C5H8N2+
107.0603	22	C6H7N2+
109.0763	13	C6H9N2+
110.0836	12	C6H10N2+
113.0962	22	C7H13O+
120.0681	14	C7H8N2+
121.0761	49	C7H9N2+
126.0105	154	C6H5ClN+
133.0765	10	C8H9N2+
135.0917	19	C8H11N2+
137.1073	897	C8H13N2+
150.103	36	C8H12N3+
167.0364	8	C11H5NO+
169.0528	16	C8H10ClN2+
206.0481	10	C13H6N2O+
208.063	45	C13H8N2O+
209.072	17	C10H12ClN3+
220.0637	24	C11H11ClN3+
234.079	39	C12H13ClN3+
236.0586	27	C11H11ClN3O+
236.0939	34	C15H12N2O+
246.0793	251	C13H13ClN3+
247.0747	24	C12H12ClN4+
248.0952	47	C13H15ClN3+
264.0898	176	C13H15ClN3O+
306.1369	999	C16H21ClN3O+
320.1526	54	C17H23ClN3O+
