Mass spectrum: Atenolol-desisopropyl; LC-ESI-ITFT; MS2; CE: 60%; R=7500; [M+H]+
Name: Atenolol-desisopropyl
Name: 4-(3-Amino-2-hydroxypropoxy)phenylacetamide
Formula: C11H16N2O3
Exact mass: 224.1161
SMILES: c1cc(ccc1CC(=O)N)OCC(CN)O
InChI: InChI=1S/C11H16N2O3/c12-6-9(14)7-16-10-3-1-8(2-4-10)5-11(13)15/h1-4,9,14H,5-7,12H2,(H2,13,15)
Instrument: LTQ Orbitrap XL Thermo Scientific
Instrument type: LC-ESI-ITFT
Ms type: MS2
Ion mode: POSITIVE
Ionization: ESI
Fragmentation mode: HCD
Collision energy: 60 % (nominal)
Resolution: 7500
Column name: XBridge C18 3.5um, 2.1x50mm, Waters
Retention time: 1.0 min
Base peak: 225.124
Precursor m/z: 225.1234
Precursor type: [M+H]+
m/z	relative intensity	assigned
56.0495	139	C3H6N+
74.0601	505	C3H8NO+
77.0383	6	C6H5+
79.054	7	C6H7+
91.0542	54	C7H7+
93.07	44	C7H9+
105.0699	46	C8H9+
106.0653	34	C7H8N+
107.0492	71	C7H7O+
117.0701	40	C9H9+
119.0492	82	C8H7O+
121.0648	147	C8H9O+
122.06	22	C7H8NO+
131.0494	9	C9H7O+
133.0649	455	C9H9O+
134.06	57	C8H8NO+
145.0649	999	C10H9O+
147.0441	78	C9H7O2+
152.0705	36	C8H10NO2+
161.0597	16	C10H9O2+
162.0662	78	C8H8N3O+
162.0913	57	C10H12NO+
163.0754	25	C10H11O2+
164.0706	116	C9H10NO2+
173.0596	69	C11H9O2+
178.0863	211	C10H12NO2+
190.0862	145	C11H12NO2+
208.0968	29	C11H14NO3+
