Mass spectrum: Fenpropimorph; LC-ESI-ITFT; MS2; CE: 60%; R=15000; [M+H]+
Name: Fenpropimorph
Name: (2S,6R)-4-[3-(4-tert-butylphenyl)-2-methyl-propyl]-2,6-dimethyl-morpholine
Formula: C20H33NO
Exact mass: 303.2557
SMILES: CC1CN(CC(O1)C)CC(C)CC2=CC=C(C=C2)C(C)(C)C
InChI: InChI=1S/C20H33NO/c1-15(12-21-13-16(2)22-17(3)14-21)11-18-7-9-19(10-8-18)20(4,5)6/h7-10,15-17H,11-14H2,1-6H3/t15?,16-,17+
Instrument: LTQ Orbitrap XL Thermo Scientific
Instrument type: LC-ESI-ITFT
Ms type: MS2
Ion mode: POSITIVE
Ionization: ESI
Fragmentation mode: HCD
Collision energy: 60 % (nominal)
Resolution: 15000
Column name: XBridge C18 3.5um, 2.1x50mm, Waters
Retention time: 9.4 min
Base peak: 304.2639
Precursor m/z: 304.2635
Precursor type: [M+H]+
m/z	relative intensity	assigned
56.0494	4	C3H6N+
57.0698	43	C4H9+
58.065	5	C3H8N+
59.0491	4	C3H7O+
70.0651	9	C4H8N+
72.0807	10	C4H10N+
81.0698	6	C6H9+
86.0964	5	C5H12N+
88.0756	5	C4H10NO+
91.0542	21	C7H7+
98.0964	234	C6H12N+
100.1121	2	C6H14N+
102.0914	10	C5H12NO+
105.0699	57	C8H9+
107.0856	10	C8H11+
112.1122	7	C7H14N+
114.0914	3	C6H12NO+
116.107	183	C6H14NO+
117.0698	7	C9H9+
119.0855	66	C9H11+
130.1226	222	C7H16NO+
131.0856	5	C10H11+
132.0933	43	C10H12+
145.101	3	C11H13+
147.1168	999	C11H15+
161.1324	31	C12H17+
189.1636	25	C14H21+
248.201	5	C16H26NO+
304.2644	311	C20H34NO+
