Mass spectrum: Flufenacet; LC-ESI-ITFT; MS2; CE: 45%; R=7500; [M+H]+
Name: Flufenacet
Name: N-(4-fluorophenyl)-N-isopropyl-2-[[5-(trifluoromethyl)-1,3,4-thiadiazol-2-yl]oxy]acetamide
Formula: C14H13F4N3O2S
Exact mass: 363.0670
SMILES: O=C(COc1nnc(s1)C(F)(F)F)N(c2ccc(F)cc2)C(C)C
InChI: InChI=1S/C14H13F4N3O2S/c1-8(2)21(10-5-3-9(15)4-6-10)11(22)7-23-13-20-19-12(24-13)14(16,17)18/h3-6,8H,7H2,1-2H3
Instrument: LTQ Orbitrap XL Thermo Scientific
Instrument type: LC-ESI-ITFT
Ms type: MS2
Ion mode: POSITIVE
Ionization: ESI
Fragmentation mode: HCD
Collision energy: 45 % (nominal)
Resolution: 7500
Column name: XBridge C18 3.5um, 2.1x50mm, Waters
Retention time: 11.7 min
Base peak: 386.0556
Precursor m/z: 364.0737
Precursor type: [M+H]+
m/z	relative intensity	assigned
57.0699	3	C4H9+
97.0447	9	C6H6F+
104.0496	1	C7H6N+
109.0448	137	C7H6F+
110.0395	2	C3H10O2S+
124.0557	417	C7H7FN+
125.0393	1	C2H5F2N3O+
132.0438	2	C8H6NO+
152.0507	999	C8H7FNO+
152.087	144	C9H11FN+
166.1026	20	C10H13FN+
194.0976	24	C11H13FNO+
