Mass spectrum: Thiamethoxam; LC-ESI-ITFT; MS2; CE: 15%; R=7500; [M+H]+
Name: Thiamethoxam
Name: 3-((2-Chloro-5-thiazolyl)methyl)tetrahydro-5-methyl-N-nitro-4H-1,3,5-oxadiazin-4-imine
Formula: C8H10ClN5O3S
Exact mass: 291.0193
SMILES: Clc1ncc(s1)CN2\C(=N\[N+]([O-])=O)N(C)COC2
InChI: InChI=1S/C8H10ClN5O3S/c1-12-4-17-5-13(8(12)11-14(15)16)3-6-2-10-7(9)18-6/h2H,3-5H2,1H3/b11-8+
Instrument: LTQ Orbitrap XL Thermo Scientific
Instrument type: LC-ESI-ITFT
Ms type: MS2
Ion mode: POSITIVE
Ionization: ESI
Fragmentation mode: HCD
Collision energy: 15 % (nominal)
Resolution: 7500
Column name: XBridge C18 3.5um, 2.1x50mm, Waters
Retention time: 4.1 min
Base peak: 292.0274
Precursor m/z: 292.0266
Precursor type: [M+H]+
m/z	relative intensity	assigned
69.0448	3	C3H5N2+
122.071	3	C6H8N3+
131.9669	126	C4H3ClNS+
138.0118	2	C5H4N3S+
160.9938	2	C5H6ClN2S+
172.9801	1	C8HN2OS+
174.9726	4	C5H4ClN2OS+
179.0393	1	C7H7N4S+
180.0463	21	C7H8N4S+
181.0541	43	C7H9N4S+
182.0615	1	C7H10N4S+
186.9968	1	C6H6ClN3S+
210.057	259	C8H10N4OS+
211.065	999	C8H11N4OS+
215.0138	1	C8H3N6S+
216.0236	1	C7H9ClN4S+
245.0257	15	C8H10ClN4OS+
246.0336	96	C8H11ClN4OS+
248.0254	28	C8H11ClN3O2S+
262.0155	2	C7H9ClN5O2S+
292.0264	271	C8H11ClN5O3S+
