Mass spectrum: Chlorthiophos; LC-ESI-QFT; MS2; CE: 90%; R=17500; [M+H]+
Name: Chlorthiophos
Name: (2,5-dichloro-4-methylsulfanylphenoxy)-diethoxy-sulfanylidene-lambda5-phosphane
Formula: C11H15Cl2O3PS2
Exact mass: 359.9577
SMILES: CCOP(=S)(OCC)OC1=CC(=C(C=C1Cl)SC)Cl
InChI: InChI=1S/C11H15Cl2O3PS2/c1-4-14-17(18,15-5-2)16-10-6-9(13)11(19-3)7-8(10)12/h6-7H,4-5H2,1-3H3
Instrument: Exploris 240 Orbitrap Thermo Scientific
Instrument type: LC-ESI-QFT
Ms type: MS2
Ion mode: POSITIVE
Ionization: ESI
Fragmentation mode: HCD
Collision energy: 90 % (nominal)
Resolution: 17500
Column name: XBridge C18 3.5um, 2.1x50mm, Waters
Retention time: 14.135 min
Base peak: 360.9648
Precursor m/z: 360.965
Precursor type: [M+H]+
m/z	relative intensity	assigned
62.9453	56	PS+
64.9788	87	H2O2P+
78.967	156	CH3S2+
96.9507	580	H2O2PS+
97.0108	80	C5H5S+
98.984	148	CH4ClO3+
98.9998	94	C5H4Cl+
108.0032	45	C6H4S+
114.9948	44	C5H4ClO+
121.0107	79	C7H5S+
122.9996	49	C7H4Cl+
125.0154	42	C7H6Cl+
128.003	43	C6H5ClO+
129.9641	134	C5H3ClS+
141.0105	80	C7H6ClO+
141.9639	617	C6H3ClS+
142.9715	248	C5H4OPS+
143.9794	178	C5H5OPS+
145.9688	573	C6H4Cl2+
152.9824	67	C7H5S2+
154.9717	150	C7H4ClS+
156.9516	57	C6H2ClOS+
156.9876	166	C7H6ClS+
160.9557	725	C6H3Cl2O+
160.9818	578	C5H6O2PS+
161.9634	999	C6H4Cl2O+
164.9327	131	C5H3Cl2S+
172.9281	208	C6H2ClS2+
173.9358	112	C5H3OPS2+
173.99	665	C7H7ClOS+
175.9247	366	C5H2ClOPS+
176.9326	895	C5H3ClOPS+
177.9408	371	C6H4Cl2S+
178.9486	305	C6H5Cl2S+
186.9438	601	C7H4ClS2+
188.9766	67	C6H6O3PS+
189.9669	162	C6H7OPS2+
192.9278	138	C5H3ClO2PS+
206.9428	140	C6H5ClO2PS+
207.8974	182	C6H2Cl2S2+
221.9305	58	C7H4Cl2O2S+
