Mass spectrum: Ranitidine-S-oxide; LC-ESI-ITFT; MS2; CE: 60%; R=7500; [M+H]+
Name: Ranitidine-S-oxide
Name: 1,1-Ethenediamine, N-(2-(((5-((dimethylamino)methyl)-2-furanyl)methyl)sulfinyl)ethyl)-N'-methyl-2-nitro-
Formula: C13H22N4O4S
Exact mass: 330.1362
SMILES: [O-][N+](=O)\C=C(/NC)NCCS(=O)Cc1oc(cc1)CN(C)C
InChI: InChI=1S/C13H22N4O4S/c1-14-13(9-17(18)19)15-6-7-22(20)10-12-5-4-11(21-12)8-16(2)3/h4-5,9,14-15H,6-8,10H2,1-3H3/b13-9+
Instrument: LTQ Orbitrap XL Thermo Scientific
Instrument type: LC-ESI-ITFT
Ms type: MS2
Ion mode: POSITIVE
Ionization: ESI
Fragmentation mode: HCD
Collision energy: 60 % (nominal)
Resolution: 7500
Column name: XBridge C18 3.5um, 2.1x50mm, Waters
Retention time: 0.8 min
Base peak: 331.1445
Precursor m/z: 331.1435
Precursor type: [M+H]+
m/z	relative intensity	assigned
55.0416	7	C3H5N+
56.0494	8	C3H6N+
58.0651	57	C3H8N+
65.0385	5	C5H5+
66.0466	7	C5H6+
67.0543	11	C5H7+
68.0495	41	C4H6N+
81.0699	26	C6H9+
82.0651	67	C5H8N+
84.0683	10	C4H8N2+
93.0699	18	C7H9+
94.0414	384	C6H6O+
94.0652	19	C6H8N+
95.0491	75	C6H7O+
95.0729	37	C6H9N+
96.057	9	C6H8O+
97.076	34	C5H9N2+
98.0838	34	C5H10N2+
99.055	6	C4H7N2O+
102.037	15	C4H8NS+
108.0808	78	C7H10N+
110.0965	999	C7H12N+
125.0055	5	C6H5OS+
130.0559	15	C5H10N2S+
138.0913	144	C8H12NO+
143.0159	8	C6H7O2S+
146.0508	7	C5H10N2OS+
