Mass spectrum: 1-(Methoxymethyl)-1H-benzotriazole; LC-ESI-QFT; MS2; CE: 120; R=35000; [M+H]+
Name: 1-(Methoxymethyl)-1H-benzotriazole
Name: 1-(methoxymethyl)benzotriazole
Formula: C8H9N3O
Exact mass: 163.07456
SMILES: n1nn(c2ccccc12)COC
InChI: InChI=1S/C8H9N3O/c1-12-6-11-8-5-3-2-4-7(8)9-10-11/h2-5H,6H2,1H3
Instrument: Q Exactive Plus Orbitrap Thermo Scientific
Instrument type: LC-ESI-QFT
Ms type: MS2
Ion mode: POSITIVE
Ionization: ESI
Fragmentation mode: HCD
Collision energy: 120 (nominal)
Resolution: 35000
Column name: XBridge C18 3.5um, 2.1x50mm, Waters
Retention time: 5.4 min
Base peak: 164.0818
Precursor m/z: 164.0818
Precursor type: [M+H]+
m/z	relative intensity	assigned
50.0151	148	C4H2+
51.023	907	C4H3+
52.0182	15	C3H2N+
53.0386	368	C4H5+
54.0465	9	C4H6+
55.0179	8	C3H3O+
63.0229	77	C5H3+
64.0308	109	C5H4+
65.0261	48	C4H3N+
65.0386	149	C5H5+
66.0464	34	C5H6+
77.0386	896	C6H5+
78.0339	155	C5H4N+
78.0464	262	C6H6+
79.0542	209	C6H7+
80.0495	10	C5H6N+
81.0335	43	C5H5O+
91.0417	423	C6H5N+
92.0495	12	C6H6N+
93.0336	25	C6H5O+
93.0575	47	C6H7N+
94.0413	12	C6H6O+
95.0492	999	C6H7O+
96.0444	11	C5H6NO+
104.0494	34	C7H6N+
105.0448	554	C6H5N2+
106.0653	57	C7H8N+
111.0441	7	C6H7O2+
120.0445	110	C7H6NO+
134.0714	81	C7H8N3+
