Mass spectrum: Coumoxystrobin; LC-ESI-QFT; MS2; CE: 120%; R=17500; [M+H]+
Name: Coumoxystrobin
Name: methyl 2-[2-[(3-butyl-4-methyl-2-oxochromen-7-yl)oxymethyl]phenyl]-3-methoxyprop-2-enoate
Formula: C26H28O6
Exact mass: 436.1886
SMILES: CCCCC1=C(C2=C(C=C(C=C2)OCC3=CC=CC=C3C(=COC)C(=O)OC)OC1=O)C
InChI: InChI=1S/C26H28O6/c1-5-6-10-21-17(2)20-13-12-19(14-24(20)32-26(21)28)31-15-18-9-7-8-11-22(18)23(16-29-3)25(27)30-4/h7-9,11-14,16H,5-6,10,15H2,1-4H3
Instrument: Exploris 240 Orbitrap Thermo Scientific
Instrument type: LC-ESI-QFT
Ms type: MS2
Ion mode: POSITIVE
Ionization: ESI
Fragmentation mode: HCD
Collision energy: 120 % (nominal)
Resolution: 17500
Column name: XBridge C18 3.5um, 2.1x50mm, Waters
Retention time: 13.421 min
Base peak: 332.3312
Precursor m/z: 437.1959
Precursor type: [M+H]+
m/z	relative intensity	assigned
51.0229	6	C4H3+
53.0385	12	C4H5+
65.0385	33	C5H5+
74.0149	6	C6H2+
76.0308	29	C6H4+
77.0385	51	C6H5+
78.0465	7	C6H6+
89.0387	37	C7H5+
91.0542	258	C7H7+
95.0492	12	C6H7O+
102.0464	999	C8H6+
103.0543	284	C8H7+
104.0617	10	C8H8+
115.0542	474	C9H7+
116.0622	29	C9H8+
117.0699	53	C9H9+
128.0623	25	C10H8+
130.0413	84	C9H6O+
131.049	40	C9H7O+
145.0655	12	C10H9O+
178.0779	16	C14H10+
191.0851	6	C15H11+
203.0851	12	C16H11+
215.0853	11	C17H11+
231.0805	10	C17H11O+
