Mass spectrum: Thiram; LC-ESI-QFT; MS2; CE: 45; R=35000; [M+H]+
Name: Thiram
Name: Dimethylcarbamothioylsulfanyl N,N-dimethylcarbamodithioate
Formula: C6H12N2S4
Exact mass: 239.98833
SMILES: CN(C)C(=S)SSC(=S)N(C)C
InChI: InChI=1S/C6H12N2S4/c1-7(2)5(9)11-12-6(10)8(3)4/h1-4H3
Instrument: Q Exactive Plus Orbitrap Thermo Scientific
Instrument type: LC-ESI-QFT
Ms type: MS2
Ion mode: POSITIVE
Ionization: ESI
Fragmentation mode: HCD
Collision energy: 45 (nominal)
Resolution: 35000
Column name: XBridge C18 3.5um, 2.1x50mm, Waters
Retention time: 6.5 min
Base peak: 240.995
Precursor m/z: 240.9956
Precursor type: [M+H]+
m/z	relative intensity	assigned
56.0495	6	C3H6N+
58.0651	4	C3H8N+
61.0106	1	C2H5S+
63.9435	1	S2+
69.0698	1	C5H9+
71.9901	1	C2H2NS+
72.998	12	C2H3NS+
76.0215	18	C2H6NS+
76.9513	3	CHS2+
81.0699	1	C6H9+
88.0215	999	C3H6NS+
119.9936	619	C3H6NS2+
151.9656	2	C3H6NS3+
195.9377	1	C4H6NS4+
