Mass spectrum: Difenoconazole; LC-ESI-ITFT; MS2; CE: 30%; R=7500; [M+H]+
Name: Difenoconazole
Name: 1-[[2-[2-chloranyl-4-(4-chloranylphenoxy)phenyl]-4-methyl-1,3-dioxolan-2-yl]methyl]-1,2,4-triazole
Formula: C19H17Cl2N3O3
Exact mass: 405.0647
SMILES: Clc4ccc(Oc1ccc(c(Cl)c1)C2(OCC(O2)C)Cn3ncnc3)cc4
InChI: InChI=1S/C19H17Cl2N3O3/c1-13-9-25-19(27-13,10-24-12-22-11-23-24)17-7-6-16(8-18(17)21)26-15-4-2-14(20)3-5-15/h2-8,11-13H,9-10H2,1H3
Instrument: LTQ Orbitrap XL Thermo Scientific
Instrument type: LC-ESI-ITFT
Ms type: MS2
Ion mode: POSITIVE
Ionization: ESI
Fragmentation mode: HCD
Collision energy: 30 % (nominal)
Resolution: 7500
Column name: XBridge C18 3.5um, 2.1x50mm, Waters
Retention time: 14.1 min
Base peak: 406.0724
Precursor m/z: 406.072
Precursor type: [M+H]+
m/z	relative intensity	assigned
70.0402	2	C2H4N3+
139.0307	2	C8H8Cl+
163.0315	1	C10H8Cl+
164.0385	5	C10H9Cl+
188.0252	1	C14H4O+
188.0413	1	C4H6N5O4+
210.0455	1	C8H14Cl2NO+
251.0026	999	C13H9Cl2O+
264.9823	2	C13H7Cl2O2+
279.0343	3	C15H13Cl2O+
291.0337	54	C16H13Cl2O+
295.999	1	C12H8Cl2N3O2+
309.0077	2	C15H11Cl2O3+
309.0459	1	C16H15Cl2O2+
323.0232	22	C16H13Cl2O3+
337.0391	236	C15H13Cl2N3O2+
348.0292	1	C19H9ClN2O3+
406.073	217	C19H18Cl2N3O3+
408.0765	1	C18H18Cl2N4O3+
