Mass spectrum: Difenoconazole; LC-ESI-ITFT; MS2; CE: 75%; R=15000; [M+H]+
Name: Difenoconazole
Name: 1-[[2-[2-chloranyl-4-(4-chloranylphenoxy)phenyl]-4-methyl-1,3-dioxolan-2-yl]methyl]-1,2,4-triazole
Formula: C19H17Cl2N3O3
Exact mass: 405.0647
SMILES: Clc4ccc(Oc1ccc(c(Cl)c1)C2(OCC(O2)C)Cn3ncnc3)cc4
InChI: InChI=1S/C19H17Cl2N3O3/c1-13-9-25-19(27-13,10-24-12-22-11-23-24)17-7-6-16(8-18(17)21)26-15-4-2-14(20)3-5-15/h2-8,11-13H,9-10H2,1H3
Instrument: LTQ Orbitrap XL Thermo Scientific
Instrument type: LC-ESI-ITFT
Ms type: MS2
Ion mode: POSITIVE
Ionization: ESI
Fragmentation mode: HCD
Collision energy: 75 % (nominal)
Resolution: 15000
Column name: XBridge C18 3.5um, 2.1x50mm, Waters
Retention time: 14.1 min
Base peak: 406.0724
Precursor m/z: 406.072
Precursor type: [M+H]+
m/z	relative intensity	assigned
50.0151	2	C4H2+
51.0229	10	C4H3+
70.04	6	C2H4N3+
75.0229	15	C6H3+
77.0385	4	C6H5+
79.0178	4	C5H3O+
80.0257	3	C5H4O+
86.9996	40	C4H4Cl+
88.9789	5	C3H2ClO+
89.0386	2	C7H5+
93.0335	5	C6H5O+
98.9995	11	C5H4Cl+
103.0541	2	C8H7+
105.0331	2	C7H5O+
110.9996	98	C6H4Cl+
114.9945	4	C5H4ClO+
115.0541	3	C9H7+
116.0615	2	C9H8+
117.0697	5	C9H9+
124.0075	3	C7H5Cl+
125.0153	5	C7H6Cl+
126.9945	6	C6H4ClO+
128.0621	8	C10H8+
129.0101	24	C6H6ClO+
129.0698	53	C10H9+
139.0058	724	C6H4ClN2+
140.0029	6	C4H8Cl2N+
141.0102	372	C7H6ClO+
149.0151	14	C9H6Cl+
151.0542	17	C12H7+
152.062	436	C12H8+
153.0698	324	C12H9+
154.9894	8	C7H4ClO2+
162.0227	3	C10H7Cl+
163.0307	5	C10H8Cl+
173.0151	13	C11H6Cl+
174.0231	6	C11H7Cl+
179.0602	17	C12H7N2+
180.0572	5	C13H8O+
181.0648	271	C13H9O+
182.9761	17	C9H5Cl2+
186.023	5	C12H7Cl+
187.0309	184	C12H8Cl+
188.0388	999	C12H9Cl+
202.0179	85	C12H7ClO+
208.9918	46	C11H7Cl2+
215.0257	151	C13H8ClO+
215.0375	9	C12H8ClN2+
216.0336	68	C13H9ClO+
223.0075	384	C12H9Cl2+
228.0339	4	C14H9ClO+
232.9914	4	C13H7Cl2+
236.9868	8	C12H7Cl2O+
251.0025	969	C13H9Cl2O+
261.9939	7	C14H8Cl2O+
264.9817	266	C13H7Cl2O2+
273.0302	2	C15H10ClO3+
337.0277	1	C16H13Cl2NO3+
337.0459	7	C11H15Cl2N4O4+
339.0338	1	C18H11Cl2N3+
