Mass spectrum: Etrimfos; LC-ESI-QFT; MS2; CE: 150%; R=17500; [M+H]+
Name: Etrimfos
Name: (6-ethoxy-2-ethylpyrimidin-4-yl)oxy-dimethoxy-sulfanylidene-lambda5-phosphane
Formula: C10H17N2O4PS
Exact mass: 292.0647
SMILES: CCC1=NC(=CC(=N1)OP(=S)(OC)OC)OCC
InChI: InChI=1S/C10H17N2O4PS/c1-5-8-11-9(15-6-2)7-10(12-8)16-17(18,13-3)14-4/h7H,5-6H2,1-4H3
Instrument: Exploris 240 Orbitrap Thermo Scientific
Instrument type: LC-ESI-QFT
Ms type: MS2
Ion mode: POSITIVE
Ionization: ESI
Fragmentation mode: HCD
Collision energy: 150 % (nominal)
Resolution: 17500
Column name: XBridge C18 3.5um, 2.1x50mm, Waters
Retention time: 10.931 min
Base peak: 293.0719
Precursor m/z: 293.0719
Precursor type: [M+H]+
m/z	relative intensity	assigned
56.0495	558	C3H6N+
62.0184	73	C2H6S+
62.9993	284	CH4OP+
68.0132	638	C3H2NO+
78.9943	999	CH4O2P+
93.01	98	C2H6O2P+
110.9664	77	CH4O2PS+
