Mass spectrum: Rotenone; LC-ESI-QFT; MS2; CE: 180%; R=17500; [M+H]+
Name: Rotenone
Name: 5`beta-Rotenone
Name: 16,17-dimethoxy-6-prop-1-en-2-yl-2,7,20-trioxapentacyclo[11.8.0.03,11.04,8.014,19]henicosa-3(11),4(8),9,14,16,18-hexaen-12-one
Formula: C23H22O6
Exact mass: 394.1416
SMILES: CC(=C)C1CC2=C(O1)C=CC3=C2OC4COC5=CC(=C(C=C5C4C3=O)OC)OC
InChI: InChI=1S/C23H22O6/c1-11(2)16-8-14-15(28-16)6-5-12-22(24)21-13-7-18(25-3)19(26-4)9-17(13)27-10-20(21)29-23(12)14/h5-7,9,16,20-21H,1,8,10H2,2-4H3
Instrument: Exploris 240 Orbitrap Thermo Scientific
Instrument type: LC-ESI-QFT
Ms type: MS2
Ion mode: POSITIVE
Ionization: ESI
Fragmentation mode: HCD
Collision energy: 180 % (nominal)
Resolution: 17500
Column name: XBridge C18 3.5um, 2.1x50mm, Waters
Retention time: 10.235 min
Base peak: 372.0284
Precursor m/z: 395.1489
Precursor type: [M+H]+
m/z	relative intensity	assigned
50.015	176	C4H2+
51.0229	708	C4H3+
52.0308	87	C4H4+
53.0021	115	C3HO+
53.0385	302	C4H5+
55.0179	71	C3H3O+
63.0229	322	C5H3+
64.0308	82	C5H4+
65.0385	999	C5H5+
66.0463	121	C5H6+
68.997	156	C3HO2+
75.0229	61	C6H3+
76.0308	101	C6H4+
77.0385	919	C6H5+
78.0463	408	C6H6+
79.0178	83	C5H3O+
79.0542	207	C6H7+
81.0335	45	C5H5O+
89.0385	682	C7H5+
90.0462	129	C7H6+
91.0542	569	C7H7+
92.0256	62	C6H4O+
94.0414	92	C6H6O+
95.0491	291	C6H7O+
102.0462	192	C8H6+
107.0494	154	C7H7O+
115.0541	637	C9H7+
118.0411	171	C8H6O+
119.0493	26	C8H7O+
126.0463	59	C10H6+
127.0542	37	C10H7+
128.062	109	C10H8+
131.0493	30	C9H7O+
139.0543	77	C11H7+
141.0697	63	C11H9+
147.0444	92	C9H7O2+
152.0621	129	C12H8+
165.0698	59	C13H9+
169.0645	50	C12H9O+
