Mass spectrum: Oxytetracycline; LC-ESI-QFT; MS2; CE: 15; R=35000; [M+H]+
Name: Oxytetracycline
Name: (4S,4aR,5S,5aR,6S,12aS)-4-(Dimethylamino)-3,5,6,10,12,12a-hexahydroxy-6-methyl-1,11-dioxo-1,4,4a,5,5a,6,11,12a-octahydro-2-tetracenecarboxamide
Name: 2-carbamoyl-4-(dimethylazaniumyl)-5,6,10,11,12a-pentahydroxy-6-methyl-3,12-dioxo-4,4a,5,5a-tetrahydrotetracen-1-olate
Formula: C22H24N2O9
Exact mass: 460.14818
SMILES: CC1(C2C(C3C(C(=O)C(=C(C3(C(=O)C2=C(C4=C1C=CC=C4O)O)O)O)C(=O)N)N(C)C)O)O
InChI: InChI=1S/C22H24N2O9/c1-21(32)7-5-4-6-8(25)9(7)15(26)10-12(21)17(28)13-14(24(2)3)16(27)11(20(23)31)19(30)22(13,33)18(10)29/h4-6,12-14,17,25-26,28,30,32-33H,1-3H3,(H2,23,31)
Instrument: Q Exactive Plus Orbitrap Thermo Scientific
Instrument type: LC-ESI-QFT
Ms type: MS2
Ion mode: POSITIVE
Ionization: ESI
Fragmentation mode: HCD
Collision energy: 15 (nominal)
Resolution: 35000
Column name: XBridge C18 3.5um, 2.1x50mm, Waters
Retention time: 4.3 min
Base peak: 461.1547
Precursor m/z: 461.1555
Precursor type: [M+H]+
m/z	relative intensity	assigned
154.0494	1	C7H8NO3+
226.0708	1	C10H12NO5+
243.0975	4	C10H15N2O5+
335.0539	1	C19H11O6+
381.06	5	C20H13O8+
398.0872	31	C20H16NO8+
408.1078	25	C22H18NO7+
426.1184	883	C22H20NO8+
443.1449	999	C22H23N2O8+
444.1289	384	C22H22NO9+
458.1449	1	C21H22N4O8+
461.1553	858	C22H25N2O9+
