Mass spectrum: 10-2-FTS; LC-ESI-QFT; MS2; CE: 180%; R=17500; [M-H]-
Name: 10-2-FTS
Name: 2-(Perfluorodecyl)ethane-1-sulfonic acid
Name: 3,3,4,4,5,5,6,6,7,7,8,8,9,9,10,10,11,11,12,12,12-henicosafluorododecane-1-sulfonic acid
Formula: C12H5F21O3S
Exact mass: 627.96240764
SMILES: C(CS(=O)(=O)O)C(C(C(C(C(C(C(C(C(C(F)(F)F)(F)F)(F)F)(F)F)(F)F)(F)F)(F)F)(F)F)(F)F)(F)F
InChI: InChI=1S/C12H5F21O3S/c13-3(14,1-2-37(34,35)36)4(15,16)5(17,18)6(19,20)7(21,22)8(23,24)9(25,26)10(27,28)11(29,30)12(31,32)33/h1-2H2,(H,34,35,36)
Instrument: Exploris 240 Orbitrap Thermo Scientific
Instrument type: LC-ESI-QFT
Ms type: MS2
Ion mode: NEGATIVE
Ionization: ESI
Fragmentation mode: HCD
Collision energy: 180 % (nominal)
Resolution: 17500
Column name: XBridge C18 3.5um, 2.1x50mm, Waters
Retention time: 13.460 min
Base peak: 626.9549
Precursor m/z: 626.9551
Precursor type: [M-H]-
m/z	relative intensity	assigned
79.9573	999	O3S-
80.9651	339	HO3S-
