Mass spectrum: Acifluorfen; LC-ESI-QFT; MS2; CE: 90; R=35000; [M+H]+
Name: Acifluorfen
Name: 5-[2-chloranyl-4-(trifluoromethyl)phenoxy]-2-nitro-benzoic acid
Formula: C14H7ClF3NO5
Exact mass: 360.99648
SMILES: Clc2cc(ccc2Oc1cc(C(=O)O)c([N+]([O-])=O)cc1)C(F)(F)F
InChI: InChI=1S/C14H7ClF3NO5/c15-10-5-7(14(16,17)18)1-4-12(10)24-8-2-3-11(19(22)23)9(6-8)13(20)21/h1-6H,(H,20,21)
Instrument: Q Exactive Orbitrap Thermo Scientific
Instrument type: LC-ESI-QFT
Ms type: MS2
Ion mode: POSITIVE
Ionization: ESI
Fragmentation mode: HCD
Collision energy: 90 (nominal)
Resolution: 35000
Column name: XBridge C18 3.5um, 2.1x50mm, Waters
Retention time: 12.3 min
Base peak: 379.0305
Precursor m/z: 362.0038
Precursor type: [M+H]+
m/z	relative intensity	assigned
51.0231	9	C4H3+
52.0183	15	C3H2N+
53.0023	47	C3HO+
57.0136	13	C3H2F+
65.026	33	C4H3N+
65.0386	69	C5H5+
67.0178	34	C4H3O+
68.9946	31	CF3+
68.997	35	C3HO2+
75.0229	19	C6H3+
76.0182	167	C5H2N+
77.026	16	C5H3N+
78.0337	43	C5H4N+
80.013	11	C4H2NO+
93.0208	16	C5H3NO+
98.0361	15	C5H6O2+
104.0131	64	C6H2NO+
116.99	14	C5H3ClF+
120.018	34	C5H3F3+
120.9809	10	C2FNO4+
122.0235	10	C6H4NO2+
130.0222	10	C6H4F2O+
132.0182	999	C6H3F3+
140.0495	117	C10H6N+
142.9894	9	C6H4ClO2+
144.0181	59	C7H3F3+
146.9809	129	C6H2ClF2+
158.0399	31	C10H5FN+
158.9807	33	C7H2ClF2+
159.0165	56	C5H5NO5+
161.0206	18	C7H4F3O+
164.9911	48	C6H4ClF2O+
166.9871	174	C6H3ClF3+
169.0323	13	C11H4FN+
174.9754	36	C7H2ClF2O+
174.987	227	C6F3NO2+
176.008	254	C7H3F3O2+
178.987	588	C7H3ClF3+
182.0339	78	C10H5F3+
189.0386	79	C11H5F2N+
194.9818	47	C7H3ClF3O+
207.0415	105	C12H6F3+
210.0284	7	C11H5F3O+
217.0022	8	C10H5ClF3+
222.9772	59	C8H3ClF3O2+
224.9905	8	C11H4ClF2O+
