Mass spectrum: Chlorfluazuron; LC-ESI-QFT; MS2; CE: 150%; R=17500; [M+H]+
Name: Chlorfluazuron
Name: N-[[3,5-dichloro-4-[3-chloro-5-(trifluoromethyl)pyridin-2-yl]oxyphenyl]carbamoyl]-2,6-difluorobenzamide
Formula: C20H9Cl3F5N3O3
Exact mass: 538.9630
SMILES: C1=CC(=C(C(=C1)F)C(=O)NC(=O)NC2=CC(=C(C(=C2)Cl)OC3=C(C=C(C=N3)C(F)(F)F)Cl)Cl)F
InChI: InChI=1S/C20H9Cl3F5N3O3/c21-10-5-9(30-19(33)31-17(32)15-13(24)2-1-3-14(15)25)6-11(22)16(10)34-18-12(23)4-8(7-29-18)20(26,27)28/h1-7H,(H2,30,31,32,33)
Instrument: Exploris 240 Orbitrap Thermo Scientific
Instrument type: LC-ESI-QFT
Ms type: MS2
Ion mode: POSITIVE
Ionization: ESI
Fragmentation mode: HCD
Collision energy: 150 % (nominal)
Resolution: 17500
Column name: XBridge C18 3.5um, 2.1x50mm, Waters
Retention time: 15.243 min
Base peak: 539.9705
Precursor m/z: 539.9702
Precursor type: [M+H]+
m/z	relative intensity	assigned
61.0073	28	C5H+
61.9792	20	CHClN+
62.0151	112	C5H2+
63.0229	999	C5H3+
64.0184	45	C4H2N+
66.9746	43	CHClF+
68.9947	287	CF3+
72.984	400	C3H2Cl+
73.9793	32	C2HClN+
74.0152	64	C6H2+
75.0042	153	C3HF2+
75.0105	179	C5HN+
75.0231	31	C6H3+
76.0182	255	C5H2N+
82.0089	11	C4HFN+
82.9452	53	CHCl2+
83.9762	24	C4HCl+
84.9652	145	CClF2+
84.9842	43	C4H2Cl+
87.0104	12	C6HN+
88.0182	143	C6H2N+
90.9746	123	C3HClF+
92.9947	19	C3F3+
93.0136	131	C6H2F+
95.0164	13	C5H2FN+
95.9764	13	C5HCl+
96.984	294	C5H2Cl+
97.9792	135	C4HClN+
99.0039	27	F3N3+
100.0182	119	C7H2N+
106.945	109	C3HCl2+
108.9651	215	C3ClF2+
109.9793	334	C5HClN+
110.9872	45	C5H2ClN+
111.9951	57	C5H3ClN+
119.0106	14	C5H2F3+
123.9948	873	C6H3ClN+
126.0155	25	C6H2F2N+
127.9895	20	C5H3ClNO+
130.9452	17	C5HCl2+
132.9653	31	C5ClF2+
139.99	18	C6H3ClNO+
141.0261	257	C6H3F2N2+
149.9918	17	C5H3ClF2N+
157.9565	21	C6ClFO2+
158.9635	15	C6H3Cl2N+
159.9761	39	C6HClF2N+
174.0156	12	C10H2F2N+
194.0215	19	C10H3F3N+
201.0267	17	C11H3F2N2+
