Mass spectrum: NOA407475; LC-ESI-QFT; MS2; CE: 45; R=35000; [M+H]+
Name: NOA407475
Name: 3-[(2-chloro-1,3-thiazol-5-yl)methyl]-5-methyl-1,3,5-oxadiazinan-4-imine
Name: 3-(2-chloro-thiazol-5-ylmethyl)-5-methyl-[1,3,5]oxadiazinan-4-ylideneamine
Formula: C8H11ClN4OS
Exact mass: 246.03421
SMILES: Clc2ncc(CN1COCN(C)C1=N)s2
InChI: InChI=1S/C8H11ClN4OS/c1-12-4-14-5-13(8(12)10)3-6-2-11-7(9)15-6/h2,10H,3-5H2,1H3
Instrument: Q Exactive Plus Orbitrap Thermo Scientific
Instrument type: LC-ESI-QFT
Ms type: MS2
Ion mode: POSITIVE
Ionization: ESI
Fragmentation mode: HCD
Collision energy: 45 (nominal)
Resolution: 35000
Column name: XBridge C18 3.5um, 2.1x50mm, Waters
Retention time: 2.3 min
Base peak: 247.0413
Precursor m/z: 247.0415
Precursor type: [M+H]+
m/z	relative intensity	assigned
57.0447	73	C2H5N2+
70.9949	4	C3H3S+
71.0604	3	C3H7N2+
98.0713	2	C4H8N3+
114.0662	9	C4H8N3O+
125.0169	2	C5H5N2S+
131.9669	999	C4H3ClNS+
132.9747	10	C4H4ClNS+
138.0117	1	C5H4N3S+
146.978	2	C4H4ClN2S+
149.9777	4	C4H5ClNOS+
160.9935	656	C5H6ClN2S+
173.9888	160	C5H5ClN3S+
175.0095	1	C6H8ClN2S+
217.031	24	C7H10ClN4S+
247.0416	34	C8H12ClN4OS+
