Mass spectrum: 1H-Benzotriazole, 4(or 5)-methyl-; LC-ESI-QFT; MS2; CE: 180; R=35000; [M+H]+
Name: 1H-Benzotriazole, 4(or 5)-methyl-
Name: 4-methyl-2H-benzotriazole
Formula: C7H7N3
Exact mass: 133.06400
SMILES: n1nc2c(cccc2[nH]1)C
InChI: InChI=1S/C7H7N3/c1-5-3-2-4-6-7(5)9-10-8-6/h2-4H,1H3,(H,8,9,10)
Instrument: Q Exactive Plus Orbitrap Thermo Scientific
Instrument type: LC-ESI-QFT
Ms type: MS2
Ion mode: POSITIVE
Ionization: ESI
Fragmentation mode: HCD
Collision energy: 180 (nominal)
Resolution: 35000
Column name: XBridge C18 3.5um, 2.1x50mm, Waters
Retention time: 5.8 min
Base peak: 134.0712
Precursor m/z: 134.0713
Precursor type: [M+H]+
m/z	relative intensity	assigned
50.0152	409	C4H2+
51.023	999	C4H3+
52.0182	22	C3H2N+
52.0308	8	C4H4+
53.0022	34	C3HO+
53.0386	224	C4H5+
53.9975	6	C2NO+
54.0338	25	C3H4N+
54.0465	2	C4H6+
55.0178	8	C3H3O+
56.0496	2	C3H6N+
62.0151	25	C5H2+
63.0229	133	C5H3+
64.0181	12	C4H2N+
64.0308	25	C5H4+
65.0022	34	C4HO+
65.026	12	C4H3N+
65.0386	62	C5H5+
66.0339	13	C4H4N+
66.0464	23	C5H6+
67.0417	47	C4H5N+
75.0229	9	C6H3+
77.0386	454	C6H5+
78.0338	16	C5H4N+
78.0464	32	C6H6+
79.0542	33	C6H7+
80.0495	26	C5H6N+
81.0335	17	C5H5O+
89.0386	7	C7H5+
91.0417	22	C6H5N+
92.037	1	C5H4N2+
94.0414	7	C6H6O+
95.0492	469	C6H7O+
96.0443	8	C5H6NO+
104.0495	22	C7H6N+
105.0448	259	C6H5N2+
106.0416	1	C7H6O+
