Mass spectrum: Bromazepam; LC-ESI-QFT; MS2; CE: 90; R=35000; [M+H]+
Name: Bromazepam
Name: 7-bromo-5-pyridin-2-yl-1,3-dihydro-1,4-benzodiazepin-2-one
Formula: C14H10BrN3O
Exact mass: 315.00072
SMILES: C1C(=O)NC2=C(C=C(C=C2)Br)C(=N1)C3=CC=CC=N3
InChI: InChI=1S/C14H10BrN3O/c15-9-4-5-11-10(7-9)14(17-8-13(19)18-11)12-3-1-2-6-16-12/h1-7H,8H2,(H,18,19)
Instrument: Q Exactive Plus Orbitrap Thermo Scientific
Instrument type: LC-ESI-QFT
Ms type: MS2
Ion mode: POSITIVE
Ionization: ESI
Fragmentation mode: HCD
Collision energy: 90 (nominal)
Resolution: 35000
Column name: XBridge C18 3.5um, 2.1x50mm, Waters
Retention time: 7.0 min
Base peak: 316.0073
Precursor m/z: 316.008
Precursor type: [M+H]+
m/z	relative intensity	assigned
50.0151	3	C4H2+
51.0228	3	C4H3+
52.0307	3	C4H4+
53.0386	12	C4H5+
54.0338	3	C3H4N+
55.0416	3	C3H5N+
63.0228	1	C5H3+
65.0385	9	C5H5+
67.0416	3	C4H5N+
75.0228	1	C6H3+
76.0305	3	C6H4+
77.0383	7	C6H5+
78.0338	43	C5H4N+
78.0464	36	C6H6+
79.0416	37	C5H5N+
80.0494	168	C5H6N+
81.0572	2	C5H7N+
82.0286	1	C4H4NO+
89.0384	4	C7H5+
90.0338	3	C6H4N+
90.0464	8	C7H6+
91.0415	1	C6H5N+
92.0494	5	C6H6N+
93.0571	3	C6H7N+
95.0365	17	C5H5NO+
95.0491	7	C6H7O+
96.0443	100	C5H6NO+
102.0465	2	C8H6+
103.0416	8	C7H5N+
104.0494	250	C7H6N+
105.0447	30	C6H5N2+
105.0573	207	C7H7N+
107.0603	10	C6H7N2+
110.0601	6	C6H8NO+
111.0314	2	C5H5NO2+
115.0416	3	C8H5N+
115.0542	1	C9H7+
116.0494	3	C8H6N+
117.0446	5	C7H5N2+
117.0572	3	C8H7N+
119.0603	2	C7H7N2+
124.0394	2	C6H6NO2+
127.0415	2	C9H5N+
127.054	1	C10H7+
128.0496	4	C9H6N+
128.0618	4	C10H8+
129.0446	3	C8H5N2+
129.0572	25	C9H7N+
130.0526	35	C8H6N2+
130.0651	176	C9H8N+
131.0603	93	C8H7N2+
133.0521	10	C8H7NO+
137.0471	3	C7H7NO2+
138.0466	1	C11H6+
139.0541	4	C11H7+
140.0492	7	C10H6N+
141.0571	5	C10H7N+
142.0524	3	C9H6N2+
142.0653	5	C10H8N+
144.0444	4	C9H6NO+
145.0645	1	C10H9O+
146.0599	3	C9H8NO+
153.0572	11	C11H7N+
154.0651	234	C11H8N+
155.0603	30	C10H7N2+
155.0729	55	C11H9N+
156.0681	9	C10H8N2+
156.0808	5	C11H10N+
156.9648	3	C6H6Br+
157.076	25	C10H9N2+
158.0475	1	C9H6N2O+
161.0472	6	C9H7NO2+
162.0422	15	C8H6N2O2+
164.0495	8	C12H6N+
165.0572	35	C12H7N+
166.0651	39	C12H8N+
166.949	2	C7H4Br+
167.0607	1	C11H7N2+
167.0729	17	C12H9N+
167.9444	2	C6H3BrN+
168.0683	11	C11H8N2+
168.0806	5	C12H10N+
169.0759	47	C11H9N2+
170.0598	5	C11H8NO+
172.9598	2	C6H6BrO+
179.0603	103	C12H7N2+
180.0682	73	C12H8N2+
181.0759	999	C12H9N2+
182.0838	814	C12H10N2+
182.9551	11	C6H4BrN2+
183.068	4	C12H9NO+
183.0791	1	C11H9N3+
183.0918	4	C12H11N2+
183.9756	132	C7H7BrN+
185.0707	6	C11H9N2O+
191.0602	11	C13H7N2+
192.0681	69	C13H8N2+
193.0761	54	C13H9N2+
193.96	4	C8H5BrN+
194.0713	12	C12H8N3+
194.0838	3	C13H10N2+
194.9679	2	C8H6BrN+
206.0712	8	C13H8N3+
207.0791	209	C13H9N3+
208.0869	551	C13H10N3+
208.9708	94	C8H6BrN2+
209.0717	5	C13H9N2O+
209.0947	60	C13H11N3+
209.9785	5	C8H7BrN2+
210.0787	3	C13H10N2O+
212.0579	13	C12H8N2O2+
214.0737	4	C12H10N2O2+
218.071	3	C14H8N3+
220.9833	3	C10H8BrN+
221.9423	5	C8H3BrN2O+
222.0657	1	C13H8N3O+
231.9759	7	C11H7BrN+
232.9839	2	C11H8BrN+
233.9913	2	C11H9BrN+
236.0816	4	C14H10N3O+
236.9656	3	C9H6BrN2O+
243.9754	4	C12H7BrN+
244.9835	34	C12H8BrN+
246.9865	1	C11H8BrN2+
258.9865	446	C12H8BrN2+
259.9943	163	C12H9BrN2+
261.0021	6	C12H10BrN2+
285.997	8	C13H9BrN3+
287.0045	1	C13H10BrN3+
