Mass spectrum: Candesartan; LC-ESI-ITFT; MS2; CE: 60%; R=7500; [M+H]+
Name: Candesartan
Name: 2-ethoxy-3-[4-[2-(2H-tetrazol-5-yl)phenyl]benzyl]benzimidazole-4-carboxylic acid
Formula: C24H20N6O3
Exact mass: 440.1597
SMILES: c1(ccccc1c1ccc(Cn2c(nc3c2c(C(=O)O)ccc3)OCC)cc1)c1nnn[nH]1
InChI: InChI=1S/C24H20N6O3/c1-2-33-24-25-20-9-5-8-19(23(31)32)21(20)30(24)14-15-10-12-16(13-11-15)17-6-3-4-7-18(17)22-26-28-29-27-22/h3-13H,2,14H2,1H3,(H,31,32)(H,26,27,28,29)
Instrument: LTQ Orbitrap XL Thermo Scientific
Instrument type: LC-ESI-ITFT
Ms type: MS2
Ion mode: POSITIVE
Ionization: ESI
Fragmentation mode: HCD
Collision energy: 60 % (nominal)
Resolution: 7500
Column name: XBridge C18 3.5um, 2.1x50mm, Waters
Retention time: 9.3 min
Base peak: 441.1683
Precursor m/z: 441.167
Precursor type: [M+H]+
m/z	relative intensity	assigned
91.0542	15	C7H7+
115.0541	25	C9H7+
140.0499	60	C10H6N+
152.0621	145	C12H8+
153.07	278	C12H9+
161.0345	233	C8H5N2O2+
163.0539	64	C13H7+
165.07	936	C13H9+
166.0656	47	C12H8N+
166.0773	33	C13H10+
167.0856	107	C13H11+
173.0346	97	C9H5N2O2+
175.0509	37	C9H7N2O2+
177.0576	134	C13H7N+
178.0778	589	C14H10+
179.0459	40	C8H7N2O3+
179.0731	98	C13H9N+
180.0808	858	C13H10N+
189.0656	70	C10H9N2O2+
190.0653	780	C14H8N+
191.0732	404	C14H9N+
192.0802	999	C14H10N+
193.0886	385	C14H11N+
194.0965	518	C14H12N+
196.0758	31	C13H10NO+
205.0759	324	C14H9N2+
206.0839	536	C14H10N2+
207.0917	781	C14H11N2+
208.0761	26	C14H10NO+
208.1115	67	C15H14N+
210.0914	367	C14H12NO+
217.0889	65	C16H11N+
218.0965	75	C16H12N+
219.0919	192	C15H11N2+
220.1001	100	C15H12N2+
233.1072	81	C16H13N2+
234.1154	243	C16H14N2+
235.1227	139	C16H15N2+
282.092	36	C20H12NO+
297.1014	22	C20H13N2O+
308.1173	141	C21H14N3+
309.1023	130	C21H13N2O+
310.1112	49	C21H14N2O+
322.097	50	C21H12N3O+
324.1135	104	C21H14N3O+
334.0963	38	C20H10N6+
337.0958	27	C22H13N2O2+
350.092	46	C22H12N3O2+
351.1018	72	C22H13N3O2+
352.1084	178	C22H14N3O2+
