Mass spectrum: Indapamide; LC-ESI-QFT; MS2; CE: 150; R=35000; [M+H]+
Name: Indapamide
Name: 4-chloro-N-(2-methyl-2,3-dihydroindol-1-yl)-3-sulfamoylbenzamide
Formula: C16H16ClN3O3S
Exact mass: 365.06009
SMILES: CC1CC2=CC=CC=C2N1NC(=O)C3=CC(=C(C=C3)Cl)S(=O)(=O)N
InChI: InChI=1S/C16H16ClN3O3S/c1-10-8-11-4-2-3-5-14(11)20(10)19-16(21)12-6-7-13(17)15(9-12)24(18,22)23/h2-7,9-10H,8H2,1H3,(H,19,21)(H2,18,22,23)
Instrument: Q Exactive Plus Orbitrap Thermo Scientific
Instrument type: LC-ESI-QFT
Ms type: MS2
Ion mode: POSITIVE
Ionization: ESI
Fragmentation mode: HCD
Collision energy: 150 (nominal)
Resolution: 35000
Column name: XBridge C18 3.5um, 2.1x50mm, Waters
Retention time: 6.7 min
Base peak: 366.0667
Precursor m/z: 366.0674
Precursor type: [M+H]+
m/z	relative intensity	assigned
50.0151	23	C4H2+
51.023	19	C4H3+
53.0022	31	C3HO+
53.0386	13	C4H5+
53.9975	7	C2NO+
61.0073	7	C5H+
62.0151	25	C5H2+
63.023	134	C5H3+
64.0308	25	C5H4+
65.0386	999	C5H5+
66.0464	34	C5H6+
67.9892	5	C3O2+
72.9839	9	C3H2Cl+
74.0151	17	C6H2+
75.0229	13	C6H3+
77.0385	25	C6H5+
78.0086	1	C3N3+
78.0464	2	C6H6+
79.0542	24	C6H7+
81.0335	2	C5H5O+
89.0386	521	C7H5+
90.0465	348	C7H6+
91.0542	436	C7H7+
93.0574	1	C6H7N+
94.0413	3	C6H6O+
95.0492	42	C6H7O+
98.9996	10	C5H4Cl+
102.0465	2	C8H6+
103.0542	30	C8H7+
105.0448	32	C6H5N2+
105.0699	7	C8H9+
108.9841	3	C6H2Cl+
109.9918	3	C6H3Cl+
115.0542	5	C9H7+
116.0495	10	C8H6N+
117.0573	260	C8H7N+
118.0651	58	C8H8N+
121.0285	3	C7H5O2+
122.0362	2	C7H6O2+
130.0652	51	C9H8N+
131.0729	5	C9H9N+
