Mass spectrum: Gemfibrozil; LC-ESI-QFT; MS2; CE: 30; R=35000; [M-H]-
Name: Gemfibrozil
Name: 5-[(2,5-dimethylphenyl)oxy]-2,2-dimethylpentanoic acid
Name: 5-(2,5-dimethylphenoxy)-2,2-dimethyl-pentanoic acid
Formula: C15H22O3
Exact mass: 250.15689
SMILES: O=C(O)C(C)(C)CCCOc1cc(ccc1C)C
InChI: InChI=1S/C15H22O3/c1-11-6-7-12(2)13(10-11)18-9-5-8-15(3,4)14(16)17/h6-7,10H,5,8-9H2,1-4H3,(H,16,17)
Instrument: Q Exactive Orbitrap Thermo Scientific
Instrument type: LC-ESI-QFT
Ms type: MS2
Ion mode: NEGATIVE
Ionization: ESI
Fragmentation mode: HCD
Collision energy: 30 (nominal)
Resolution: 35000
Column name: XBridge C18 3.5um, 2.1x50mm, Waters
Retention time: 14.9 min
Base peak: 249.1496
Precursor m/z: 249.1496
Precursor type: [M-H]-
m/z	relative intensity	assigned
121.0659	999	C8H9O-
127.0764	28	C7H11O2-
