Mass spectrum: Nicosulfuron-TP UCSN; LC-ESI-QFT; MS2; CE: 45%; R=17500; [M-H]-
Name: Nicosulfuron-TP UCSN
Name: 2-[(Carbamoylcarbamoyl)sulfamoyl]-N,N-dimethylnicotinamide
Formula: C10H13N5O5S
Exact mass: 315.0637
SMILES: CN(C)C(=O)C1=CC=CN=C1S(=O)(=O)NC(=O)NC(N)=O
InChI: InChI=1S/C10H13N5O5S/c1-15(2)8(16)6-4-3-5-12-7(6)21(19,20)14-10(18)13-9(11)17/h3-5H,1-2H3,(H4,11,13,14,17,18)
Instrument: Q Exactive Plus Orbitrap Thermo Scientific
Instrument type: LC-ESI-QFT
Ms type: MS2
Ion mode: NEGATIVE
Ionization: ESI
Fragmentation mode: HCD
Collision energy: 45 % (nominal)
Resolution: 17500
Column name: XBridge C18 3.5um, 2.1x50mm, Waters
Retention time: 1.525 min
Base peak: 314.0565
Precursor m/z: 314.0565
Precursor type: [M-H]-
m/z	relative intensity	assigned
58.0298	49	C2H4NO-
59.0249	29	CH3N2O-
61.9706	54	NOS-
63.9625	18	O2S-
77.9653	27	NO2S-
78.9732	15	HNO2S-
79.981	24	H2NO2S-
84.0202	23	C2H2N3O-
93.0459	110	C5H5N2-
94.0299	415	C5H4NO-
103.0303	47	C6H3N2-
117.0456	28	C7H5N2-
119.0251	131	C6H3N2O-
121.0406	93	C6H5N2O-
131.049	27	C7H5N3-
133.0407	11	C7H5N2O-
136.0879	48	C7H10N3-
141.9966	18	C5H4NO2S-
144.0565	18	C8H6N3-
146.0724	63	C8H8N3-
147.044	23	C7H5N3O-
147.0564	40	C8H7N2O-
149.0594	269	C7H7N3O-
150.0433	65	C7H6N2O2-
162.0674	289	C8H8N3O-
164.083	684	C8H10N3O-
165.0669	999	C8H9N2O2-
181.0076	180	C7H5N2O2S-
182.9869	416	C6H3N2O3S-
200.0494	11	C7H10N3O2S-
210.0343	641	C8H8N3O2S-
228.0449	647	C8H10N3O3S-
271.0503	26	C9H11N4O4S-
