Mass spectrum: Amoxicillin; LC-ESI-QFT; MS2; CE: 90; R=35000; [M+H]+
Name: Amoxicillin
Name: Amoxicillin anhydrous
Name: (2S,5R,6R)-6-[[(2R)-2-amino-2-(4-hydroxyphenyl)-1-oxoethyl]amino]-3,3-dimethyl-7-oxo-4-thia-1-azabicyclo[3.2.0]heptane-2-carboxylic acid
Formula: C16H19N3O5S
Exact mass: 365.10454
SMILES: CC1(C)S[C@@H]2[C@H](NC(=O)[C@H](N)C3=CC=C(O)C=C3)C(=O)N2[C@H]1C(O)=O
InChI: InChI=1S/C16H19N3O5S/c1-16(2)11(15(23)24)19-13(22)10(14(19)25-16)18-12(21)9(17)7-3-5-8(20)6-4-7/h3-6,9-11,14,20H,17H2,1-2H3,(H,18,21)(H,23,24)/t9-,10-,11+,14-/m1/s1
Instrument: Q Exactive Orbitrap Thermo Scientific
Instrument type: LC-ESI-QFT
Ms type: MS2
Ion mode: POSITIVE
Ionization: ESI
Fragmentation mode: HCD
Collision energy: 90 (nominal)
Resolution: 35000
Column name: XBridge C18 3.5um, 2.1x50mm, Waters
Retention time: 2.3 min
Base peak: 366.1119
Precursor m/z: 366.1118
Precursor type: [M+H]+
m/z	relative intensity	assigned
57.9872	9	C2H2S+
58.995	186	C2H3S+
62.0058	1	CH4NS+
65.0386	18	C5H5+
67.0542	9	C5H7+
68.0131	137	C3H2NO+
68.0495	59	C4H6N+
68.9793	9	C3HS+
69.0447	17	C3H5N2+
70.0288	16	C3H4NO+
70.0651	204	C4H8N+
71.0491	12	C4H7O+
72.0808	7	C4H10N+
74.0059	10	C2H4NS+
77.0386	7	C6H5+
78.0464	18	C6H6+
79.0542	98	C6H7+
81.0335	4	C5H5O+
81.0573	4	C5H7N+
82.0652	18	C5H8N+
84.0807	7	C5H10N+
85.0108	3	C4H5S+
85.0397	3	C3H5N2O+
86.0059	999	C3H4NS+
86.99	10	C3H3OS+
87.0263	108	C4H7S+
89.0385	32	C7H5+
91.0542	91	C7H7+
92.0494	12	C6H6N+
94.0652	50	C6H8N+
95.0491	115	C6H7O+
96.0444	46	C5H6NO+
98.06	1	C5H8NO+
99.044	3	C5H7O2+
103.0542	2	C8H7+
105.0335	34	C7H5O+
105.0448	14	C6H5N2+
106.0414	35	C7H6O+
106.0651	256	C7H8N+
107.0491	653	C7H7O+
108.0445	2	C6H6NO+
109.0106	21	C6H5S+
109.0761	27	C6H9N2+
110.06	12	C6H8NO+
113.0345	2	C4H5N2O2+
114.0008	945	C4H4NOS+
114.0372	233	C5H8NS+
116.0494	45	C8H6N+
117.0572	56	C8H7N+
118.065	8	C8H8N+
119.0491	55	C8H7O+
120.0444	18	C7H6NO+
120.0568	22	C8H8O+
121.0647	4	C8H9O+
122.0599	43	C7H8NO+
123.0259	2	C7H7S+
126.037	5	C6H8NS+
128.0709	3	C6H10NO2+
129.9957	15	C4H4NO2S+
131.0366	2	C8H5NO+
131.0491	7	C9H7O+
132.0444	9	C8H6NO+
132.0572	2	C9H8O+
133.0286	12	C8H5O2+
133.0522	109	C8H7NO+
134.0364	47	C8H6O2+
134.06	714	C8H8NO+
135.0264	10	C8H7S+
135.0678	2	C8H9NO+
136.0756	2	C8H10NO+
137.0056	254	C7H5OS+
137.0709	32	C7H9N2O+
138.0135	3	C7H6OS+
139.0212	26	C7H7OS+
141.048	2	C6H9N2S+
142.0322	3	C6H8NOS+
144.0444	7	C9H6NO+
144.0557	47	C8H6N3+
145.0523	7	C9H7NO+
146.0601	44	C9H8NO+
147.0262	1	C9H7S+
147.0676	2	C9H9NO+
150.0137	1	C8H6OS+
151.0213	21	C8H7OS+
160.0427	7	C6H10NO2S+
161.0709	8	C9H9N2O+
162.0549	47	C9H8NO2+
163.0211	43	C9H7OS+
165.0658	3	C8H9N2O2+
173.0301	2	C10H7NS+
178.0321	20	C9H8NOS+
185.0711	2	C11H9N2O+
189.0246	2	C10H7NOS+
