Mass spectrum: Tembotrione; LC-ESI-QFT; MS2; CE: 15; R=35000; [M+H]+
Name: Tembotrione
Name: 2-{2-Chloro-4-(methylsulfonyl)-3-[(2,2,2-trifluoroethoxy)methyl]benzoyl}-1,3-cyclohexanedione
Formula: C17H16ClF3O6S
Exact mass: 440.03082
SMILES: O=C(c1ccc(c(c1Cl)COCC(F)(F)F)S(=O)(=O)C)C2C(=O)CCCC2=O
InChI: InChI=1S/C17H16ClF3O6S/c1-28(25,26)13-6-5-9(15(18)10(13)7-27-8-17(19,20)21)16(24)14-11(22)3-2-4-12(14)23/h5-6,14H,2-4,7-8H2,1H3
Instrument: Q Exactive Orbitrap Thermo Scientific
Instrument type: LC-ESI-QFT
Ms type: MS2
Ion mode: POSITIVE
Ionization: ESI
Fragmentation mode: HCD
Collision energy: 15 (nominal)
Resolution: 35000
Column name: XBridge C18 3.5um, 2.1x50mm, Waters
Retention time: 9.9 min
Base peak: 458.0644
Precursor m/z: 441.0381
Precursor type: [M+H]+
m/z	relative intensity	assigned
241.0857	12	C13H15F2S+
245.0783	5	C12H12F3O2+
259.0601	2	C14H11O5+
261.0312	519	C14H10ClO3+
262.0389	559	C12H13ClF2S+
277.0263	7	C14H10ClO4+
290.0242	3	C14H10O5S+
305.0476	425	C15H13O5S+
341.0243	999	C15H14ClO5S+
