Mass spectrum: Florfenicol; LC-ESI-QFT; MS2; CE: 45; R=35000; [M-H]-
Name: Florfenicol
Name: 2,2-dichloro-N-{3-fluoro-1-hydroxy-1-[4-(methylsulfonyl)phenyl]propan-2-yl}acetamide
Name: 2,2-dichloro-N-[3-fluoro-1-hydroxy-1-(4-methylsulfonylphenyl)propan-2-yl]acetamide
Formula: C12H14Cl2FNO4S
Exact mass: 357.00046
SMILES: CS(=O)(=O)C1=CC=C(C=C1)C(C(CF)NC(=O)C(Cl)Cl)O
InChI: InChI=1S/C12H14Cl2FNO4S/c1-21(19,20)8-4-2-7(3-5-8)10(17)9(6-15)16-12(18)11(13)14/h2-5,9-11,17H,6H2,1H3,(H,16,18)
Instrument: Q Exactive Plus Orbitrap Thermo Scientific
Instrument type: LC-ESI-QFT
Ms type: MS2
Ion mode: NEGATIVE
Ionization: ESI
Fragmentation mode: HCD
Collision energy: 45 (nominal)
Resolution: 35000
Column name: XBridge C18 3.5um, 2.1x50mm, Waters
Retention time: 4.6 min
Base peak: 355.9929
Precursor m/z: 355.9932
Precursor type: [M-H]-
m/z	relative intensity	assigned
63.9624	54	O2S-
70.9462	1	Cl2H-
78.9859	639	CH3O2S-
82.9461	102	CHCl2-
88.0204	12	C3H3FNO-
107.9413	8	C2Cl2N-
115.9908	1	C4H3ClNO-
117.0709	5	C9H9-
119.0503	999	C8H7O-
121.0295	9	C7H5O2-
121.0659	20	C8H9O-
126.9356	1	C2HCl2O2-
145.0659	25	C10H9O-
151.9676	44	C4H4Cl2NO-
155.0173	70	C7H7O2S-
157.0533	1	C10H7NO-
168.9965	122	C7H5O3S-
170.0043	38	C7H6O3S-
173.0483	5	C10H7NO2-
181.033	23	C9H9O2S-
183.0121	71	C8H7O3S-
184.0198	19	C8H8O3S-
185.0278	976	C8H9O3S-
194.0042	5	C9H6O3S-
197.028	1	C9H9O3S-
199.0072	1	C8H7O4S-
200.0724	1	C12H10NO2-
209.0155	9	C9H7NO3S-
209.0277	22	C10H9O3S-
221.028	4	C11H9O3S-
224.0385	9	C10H10NO3S-
227.0383	4	C10H11O4S-
252.0338	6	C11H10NO4S-
