Mass spectrum: Linezolid; LC-ESI-QFT; MS2; CE: 60; R=35000; [M+H]+
Name: Linezolid
Name: N-[[(5S)-3-(3-fluoro-4-morpholin-4-ylphenyl)-2-oxo-1,3-oxazolidin-5-yl]methyl]acetamide
Formula: C16H20FN3O4
Exact mass: 337.14378
SMILES: CC(=O)NC[C@H]1CN(C(=O)O1)C2=CC(=C(C=C2)N3CCOCC3)F
InChI: InChI=1S/C16H20FN3O4/c1-11(21)18-9-13-10-20(16(22)24-13)12-2-3-15(14(17)8-12)19-4-6-23-7-5-19/h2-3,8,13H,4-7,9-10H2,1H3,(H,18,21)/t13-/m0/s1
Instrument: Q Exactive Orbitrap Thermo Scientific
Instrument type: LC-ESI-QFT
Ms type: MS2
Ion mode: POSITIVE
Ionization: ESI
Fragmentation mode: HCD
Collision energy: 60 (nominal)
Resolution: 35000
Column name: XBridge C18 3.5um, 2.1x50mm, Waters
Retention time: 5.6 min
Base peak: 338.1509
Precursor m/z: 338.1511
Precursor type: [M+H]+
m/z	relative intensity	assigned
56.0495	309	C3H6N+
60.0444	26	C2H6NO+
68.0495	2	C4H6N+
70.0651	3	C4H8N+
72.0443	18	C3H6NO+
74.06	10	C3H8NO+
83.029	3	C5H4F+
84.0443	28	C4H6NO+
85.0521	29	C4H7NO+
86.06	9	C4H8NO+
91.0544	2	C7H7+
92.0498	2	C6H6N+
97.0447	3	C6H6F+
98.06	21	C5H8NO+
103.0541	3	C8H7+
104.0495	16	C7H6N+
105.0446	2	C6H5N2+
106.065	5	C7H8N+
107.0288	2	C7H4F+
109.0447	22	C7H6F+
110.04	4	C6H5FN+
110.0526	4	C7H7F+
111.0478	28	C6H6FN+
112.0557	4	C6H7FN+
115.0541	32	C4H6FN3+
116.0495	18	C8H6N+
116.0703	4	C5H10NO2+
117.0571	28	C8H7N+
118.065	19	C8H8N+
122.0399	27	C7H5FN+
122.0527	2	C8H7F+
123.0356	3	C6H4FN2+
123.0478	32	C7H6FN+
123.0603	3	C8H8F+
124.0556	101	C7H7FN+
125.0509	43	C6H6FN2+
125.0633	4	C7H8FN+
126.0587	10	C6H7FN2+
126.0713	11	C7H9FN+
128.0494	3	C9H6N+
129.0574	3	C9H7N+
130.0651	38	C9H8N+
131.0603	46	C8H7N2+
131.0732	2	C9H9N+
132.0683	4	C8H8N2+
132.0807	3	C9H10N+
133.0449	3	C9H6F+
133.076	23	C8H9N2+
134.0401	3	C8H5FN+
134.0601	27	C8H8NO+
135.0478	407	C8H6FN+
136.0556	184	C8H7FN+
137.051	74	C7H6FN2+
137.0634	192	C8H8FN+
138.0587	26	C7H7FN2+
138.0713	47	C8H9FN+
139.0664	54	C7H8FN2+
140.0494	2	C10H6N+
140.0741	4	C7H9FN2+
142.0528	4	C9H6N2+
142.0652	75	C10H8N+
143.0604	35	C9H7N2+
143.073	9	C10H9N+
144.0554	2	C8H6N3+
144.0808	29	C10H10N+
145.0761	16	C9H9N2+
146.0399	23	C9H5FN+
146.0529	3	C10H7F+
147.0481	3	C9H6FN+
147.0602	3	C10H8F+
147.0916	14	C9H11N2+
148.0556	999	C9H7FN+
149.051	210	C8H6FN2+
149.0635	317	C9H8FN+
150.0588	69	C8H7FN2+
150.0713	153	C9H9FN+
151.0666	353	C8H8FN2+
152.0744	159	C8H9FN2+
153.0822	209	C8H10FN2+
154.0651	28	C11H8N+
154.09	12	C8H11FN2+
155.0602	5	C10H7N2+
156.0681	55	C10H8N2+
156.0808	3	C11H10N+
157.0761	42	C10H9N2+
158.0839	9	C10H10N2+
158.0968	3	C11H12N+
159.0916	29	C10H11N2+
160.0434	3	C9H5FN2+
161.0511	21	C9H6FN2+
161.0633	44	C10H8FN+
162.0713	345	C10H9FN+
163.0665	610	C9H8FN2+
163.0789	42	C10H10FN+
164.0505	16	C9H7FNO+
164.0743	53	C9H9FN2+
164.0868	22	C10H11FN+
165.0822	453	C9H10FN2+
166.0899	19	C9H11FN2+
167.0978	46	C9H12FN2+
168.0686	15	C11H8N2+
168.0808	4	C12H10N+
169.0759	383	C11H9N2+
170.0837	35	C11H10N2+
170.0961	3	C12H12N+
171.0916	103	C11H11N2+
172.0556	95	C11H7FN+
173.0634	14	C11H8FN+
173.1074	5	C11H13N2+
174.0587	377	C10H7FN2+
174.0713	33	C11H9FN+
175.0666	64	C10H8FN2+
175.0792	9	C11H10FN+
175.0864	3	C10H11N2O+
176.0745	84	C10H9FN2+
176.0869	12	C11H11FN+
177.0457	27	C9H6FN2O+
177.0822	219	C10H10FN2+
178.0901	34	C10H11FN2+
179.0614	50	C9H8FN2O+
179.0978	151	C10H12FN2+
180.0815	24	C10H11FNO+
180.0931	23	C9H11FN3+
181.0776	37	C9H10FN2O+
181.0896	128	C10H12FNO+
182.0835	9	C12H10N2+
183.0563	5	C8H8FN2O2+
183.0917	11	C12H11N2+
184.0996	3	C12H12N2+
185.1075	46	C12H13N2+
187.0665	117	C11H8FN2+
188.0744	30	C11H9FN2+
188.0873	4	C12H11FN+
189.0822	299	C11H10FN2+
190.09	107	C11H11FN2+
190.1025	6	C12H13FN+
191.0978	469	C11H12FN2+
192.0819	9	C11H11FNO+
192.1054	17	C11H13FN2+
194.0848	8	C10H11FN2O+
195.0927	422	C10H12FN2O+
196.0641	18	C9H9FN2O2+
196.1005	134	C10H13FN2O+
197.0719	73	C9H10FN2O2+
197.108	63	C10H14FN2O+
201.082	13	C12H10FN2+
202.0899	8	C12H11FN2+
203.0978	11	C12H12FN2+
203.1178	11	C12H15N2O+
204.1061	3	C12H13FN2+
205.0773	21	C11H10FN2O+
205.1136	11	C12H14FN2+
206.0854	3	C11H11FN2O+
206.1087	2	C11H13FN3+
207.0929	11	C11H12FN2O+
208.1133	3	C12H15FNO+
208.1246	3	C16H16+
209.1084	152	C11H14FN2O+
210.1116	9	C11H16NO3+
215.1179	109	C13H15N2O+
217.1135	44	C13H14FN2+
221.1085	33	C12H14FN2O+
222.1035	16	C11H13FN3O+
222.1157	4	C15H14N2+
223.0872	23	C11H12FN2O2+
223.1242	31	C12H16FN2O+
233.1086	4	C13H14FN2O+
235.124	113	C13H16FN2O+
238.0984	34	C11H13FN3O2+
239.1192	5	C12H16FN2O2+
241.0983	53	C11H14FN2O3+
244.1441	5	C14H18N3O+
246.1235	9	C13H16N3O2+
249.1273	14	C13H16FN3O+
250.0986	12	C12H13FN3O2+
251.1062	23	C12H14FN3O2+
252.1142	66	C12H15FN3O2+
278.1298	13	C14H17FN3O2+
296.1405	40	C14H19FN3O3+
