Mass spectrum: Chlorthalidone; LC-ESI-QFT; MS2; CE: 15; R=35000; [M+H]+
Name: Chlorthalidone
Name: Chlortalidone
Name: 2-chloranyl-5-(1-oxidanyl-3-oxidanylidene-2H-isoindol-1-yl)benzenesulfonamide
Formula: C14H11ClN2O4S
Exact mass: 338.01281
SMILES: O=S(=O)(N)c1c(Cl)ccc(c1)C2(O)c3ccccc3C(=O)N2
InChI: InChI=1S/C14H11ClN2O4S/c15-11-6-5-8(7-12(11)22(16,20)21)14(19)10-4-2-1-3-9(10)13(18)17-14/h1-7,19H,(H,17,18)(H2,16,20,21)
Instrument: Q Exactive Orbitrap Thermo Scientific
Instrument type: LC-ESI-QFT
Ms type: MS2
Ion mode: POSITIVE
Ionization: ESI
Fragmentation mode: HCD
Collision energy: 15 (nominal)
Resolution: 35000
Column name: XBridge C18 3.5um, 2.1x50mm, Waters
Retention time: 5.6 min
Base peak: 321.9937
Precursor m/z: 339.0201
Precursor type: [M+H]+
m/z	relative intensity	assigned
241.0054	2	C14H6ClO2+
242.0118	2	C6H11ClN2O4S+
243.0209	3	C14H8ClO2+
304.9685	1	C14H6ClO4S+
321.9936	999	C14H9ClNO4S+
