Mass spectrum: Meptazinol; LC-ESI-QFT; MS2; CE: 60; R=35000; [M+H]+
Name: Meptazinol
Name: 3-(3-ethyl-1-methylazepan-3-yl)phenol
Formula: C15H23NO
Exact mass: 233.17796
SMILES: CCC1(CCCCN(C1)C)C2=CC(=CC=C2)O
InChI: InChI=1S/C15H23NO/c1-3-15(9-4-5-10-16(2)12-15)13-7-6-8-14(17)11-13/h6-8,11,17H,3-5,9-10,12H2,1-2H3
Instrument: Q Exactive Orbitrap Thermo Scientific
Instrument type: LC-ESI-QFT
Ms type: MS2
Ion mode: POSITIVE
Ionization: ESI
Fragmentation mode: HCD
Collision energy: 60 (nominal)
Resolution: 35000
Column name: XBridge C18 3.5um, 2.1x50mm, Waters
Retention time: 4.9 min
Base peak: 234.1853
Precursor m/z: 234.1852
Precursor type: [M+H]+
m/z	relative intensity	assigned
58.0651	15	C3H8N+
65.0386	1	C5H5+
67.0542	50	C5H7+
69.0698	10	C5H9+
70.0651	17	C4H8N+
72.0806	1	C4H10N+
77.0384	7	C6H5+
79.0542	20	C6H7+
81.0698	14	C6H9+
83.0855	23	C6H11+
84.0807	27	C5H10N+
86.0964	14	C5H12N+
91.0542	22	C7H7+
93.0698	11	C7H9+
95.049	11	C6H7O+
95.0855	38	C7H11+
98.0964	7	C6H12N+
103.0542	6	C8H7+
105.0448	3	C6H5N2+
105.0699	39	C8H9+
107.0491	999	C7H7O+
109.1011	27	C8H13+
115.054	2	C9H7+
117.0698	2	C9H9+
119.0491	7	C8H7O+
119.0855	17	C9H11+
121.0647	107	C8H9O+
126.1277	28	C8H16N+
128.0619	2	C10H8+
129.0697	2	C10H9+
131.049	1	C9H7O+
132.0569	9	C9H8O+
133.0647	204	C9H9O+
135.0803	25	C9H11O+
140.1433	3	C9H18N+
143.0854	3	C11H11+
145.0645	4	C10H9O+
146.0726	18	C10H10O+
147.0804	133	C10H11O+
157.0757	1	C10H9N2+
159.0806	4	C11H11O+
160.0882	1	C11H12O+
161.096	122	C11H13O+
175.1115	7	C12H15O+
177.1272	2	C12H17O+
203.1432	3	C14H19O+
234.1852	135	C15H24NO+
