Mass spectrum: Candesartan; LC-ESI-ITFT; MS2; CE: 45%; R=15000; [M+H]+
Name: Candesartan
Name: 2-ethoxy-3-[4-[2-(2H-tetrazol-5-yl)phenyl]benzyl]benzimidazole-4-carboxylic acid
Formula: C24H20N6O3
Exact mass: 440.1597
SMILES: c1(ccccc1c1ccc(Cn2c(nc3c2c(C(=O)O)ccc3)OCC)cc1)c1nnn[nH]1
InChI: InChI=1S/C24H20N6O3/c1-2-33-24-25-20-9-5-8-19(23(31)32)21(20)30(24)14-15-10-12-16(13-11-15)17-6-3-4-7-18(17)22-26-28-29-27-22/h3-13H,2,14H2,1H3,(H,31,32)(H,26,27,28,29)
Instrument: LTQ Orbitrap XL Thermo Scientific
Instrument type: LC-ESI-ITFT
Ms type: MS2
Ion mode: POSITIVE
Ionization: ESI
Fragmentation mode: HCD
Collision energy: 45 % (nominal)
Resolution: 15000
Column name: XBridge C18 3.5um, 2.1x50mm, Waters
Retention time: 9.3 min
Base peak: 441.1683
Precursor m/z: 441.167
Precursor type: [M+H]+
m/z	relative intensity	assigned
140.0494	14	C10H6N+
141.0706	6	C11H9+
152.0621	14	C12H8+
153.07	49	C12H9+
161.0346	62	C8H5N2O2+
163.0544	17	C13H7+
165.07	165	C13H9+
166.0647	11	C12H8N+
167.0725	14	C12H9N+
167.0856	58	C13H11+
173.0347	43	C9H5N2O2+
175.0504	11	C9H7N2O2+
177.0573	12	C13H7N+
178.0779	186	C14H10+
179.0451	24	C8H7N2O3+
179.0736	14	C13H9N+
179.0854	34	C14H11+
180.0808	392	C13H10N+
189.0659	103	C10H9N2O2+
190.0652	275	C14H8N+
191.0453	24	C9H7N2O3+
191.073	78	C14H9N+
192.0684	53	C13H8N2+
192.0808	595	C14H10N+
193.0887	233	C14H11N+
194.0965	470	C14H12N+
205.076	65	C14H9N2+
206.0839	224	C14H10N2+
206.1096	16	C16H14+
207.0917	999	C14H11N2+
208.0765	13	C14H10NO+
208.112	105	C15H14N+
210.0914	551	C14H12NO+
217.088	15	C16H11N+
218.0964	100	C16H12N+
219.0916	59	C15H11N2+
220.0995	113	C15H12N2+
233.1074	37	C16H13N2+
234.1151	187	C16H14N2+
235.0977	42	C14H11N4+
235.123	476	C16H15N2+
263.1295	88	C18H17NO+
308.1184	40	C21H14N3+
309.1025	76	C21H13N2O+
310.1118	19	C10H14N8O4+
324.1142	23	C23H16O2+
337.098	42	C22H13N2O2+
338.1049	47	C22H14N2O2+
349.1082	71	C22H13N4O+
350.0925	112	C22H12N3O2+
351.0999	11	C22H13N3O2+
352.1082	457	C22H14N3O2+
366.1122	14	C24H16NO3+
367.12	30	C24H17NO3+
380.1393	25	C24H18N3O2+
395.151	24	C24H19N4O2+
423.1635	11	C20H21N7O4+
