Mass spectrum: Normianserin; LC-ESI-QFT; MS2; CE: 90; R=35000; [M+H]+
Name: Normianserin
Name: N-desmethylmianserin
Name: 1,2,3,4,10,14b-Hexahydrodibenzo[c,f]pyrazino[1,2-a]azepine
Formula: C17H18N2
Exact mass: 250.14700
SMILES: C3c1ccccc1C2CNCCN2c4ccccc34
InChI: InChI=1S/C17H18N2/c1-3-7-15-13(5-1)11-14-6-2-4-8-16(14)19-10-9-18-12-17(15)19/h1-8,17-18H,9-12H2
Instrument: Q Exactive Plus Orbitrap Thermo Scientific
Instrument type: LC-ESI-QFT
Ms type: MS2
Ion mode: POSITIVE
Ionization: ESI
Fragmentation mode: HCD
Collision energy: 90 (nominal)
Resolution: 35000
Column name: XBridge C18 3.5um, 2.1x50mm, Waters
Retention time: 6.7 min
Base peak: 251.1539
Precursor m/z: 251.1543
Precursor type: [M+H]+
m/z	relative intensity	assigned
50.015	6	C4H2+
51.0227	10	C4H3+
53.0386	33	C4H5+
54.0337	3	C3H4N+
56.0494	43	C3H6N+
58.0651	5	C3H8N+
63.0227	4	C5H3+
65.0385	88	C5H5+
66.0463	1	C5H6+
67.0542	3	C5H7+
68.0133	4	C3H2NO+
68.0494	1	C4H6N+
71.0603	32	C3H7N2+
77.0384	80	C6H5+
78.0463	22	C6H6+
79.0541	107	C6H7+
80.0493	11	C5H6N+
81.0335	1	C5H5O+
83.0603	4	C4H7N2+
84.0681	5	C4H8N2+
89.0384	17	C7H5+
90.0464	9	C7H6+
91.0542	999	C7H7+
92.0494	91	C6H6N+
92.062	6	C7H8+
93.0572	67	C6H7N+
93.0698	46	C7H9+
94.0651	27	C6H8N+
95.049	145	C6H7O+
96.0444	1	C5H6NO+
102.0463	4	C8H6+
103.0541	263	C8H7+
104.0494	22	C7H6N+
104.0619	3	C8H8+
105.0447	71	C6H5N2+
105.0698	204	C8H9+
106.065	151	C7H8N+
107.0728	5	C7H9N+
109.0647	10	C7H9O+
110.0599	2	C6H8NO+
115.0541	407	C9H7+
116.0494	58	C8H6N+
116.0619	81	C9H8+
117.0572	220	C8H7N+
117.0697	115	C9H9+
118.065	722	C8H8N+
119.0602	10	C7H7N2+
119.0728	39	C8H9N+
119.0852	7	C9H11+
120.0807	324	C8H10N+
127.0543	1	C10H7+
128.0494	10	C9H6N+
128.0619	62	C10H8+
129.0697	60	C10H9+
130.0651	316	C9H8N+
131.0604	9	C8H7N2+
131.0728	45	C9H9N+
131.0854	5	C10H11+
132.0681	23	C8H8N2+
132.0806	266	C9H10N+
133.0761	1	C8H9N2+
134.0601	8	C8H8NO+
134.0963	2	C9H12N+
141.0697	17	C11H9+
142.065	6	C10H8N+
143.0728	72	C10H9N+
144.0806	80	C10H10N+
145.0649	6	C10H9O+
145.0759	14	C9H9N2+
145.0883	2	C10H11N+
146.0596	7	C9H8NO+
146.0962	23	C10H12N+
147.0915	105	C9H11N2+
152.0618	10	C12H8+
153.0696	8	C12H9+
154.0649	1	C11H8N+
155.0602	12	C10H7N2+
156.0807	8	C11H10N+
157.0885	8	C11H11N+
158.0963	21	C11H12N+
159.0915	14	C10H11N2+
160.0994	4	C10H12N2+
165.0697	66	C13H9+
166.0776	68	C13H10+
167.0732	8	C12H9N+
167.0853	9	C13H11+
168.0807	1	C12H10N+
169.0643	1	C12H9O+
176.0618	1	C14H8+
177.0697	6	C14H9+
178.0775	132	C14H10+
179.0853	54	C14H11+
180.0806	21	C13H10N+
180.0929	1	C14H12+
181.0884	2	C13H11N+
181.1009	23	C14H13+
189.0699	8	C15H9+
190.0777	7	C15H10+
191.0724	5	C14H9N+
191.0852	21	C15H11+
192.0805	47	C14H10N+
192.0934	4	C15H12+
193.0885	636	C14H11N+
194.0963	32	C14H12N+
196.1121	2	C14H14N+
202.0777	11	C16H10+
203.085	5	C16H11+
204.0807	82	C15H10N+
205.0887	15	C15H11N+
206.0963	93	C15H12N+
207.1042	55	C15H13N+
208.1119	124	C15H14N+
216.0808	1	C16H10N+
217.0884	34	C16H11N+
218.0963	79	C16H12N+
219.0911	4	C15H11N2+
219.1039	14	C16H13N+
220.1119	12	C16H14N+
221.1073	6	C15H13N2+
222.1275	3	C16H16N+
230.0959	1	C17H12N+
232.1115	7	C17H14N+
233.1072	5	C16H13N2+
234.1145	2	C16H14N2+
235.1225	1	C16H15N2+
249.1383	4	C17H17N2+
