Mass spectrum: Pyrimethanil; LC-ESI-ITFT; MS2; CE: 35%; R=7500; [M+H]+
Name: Pyrimethanil
Name: (4,6-dimethylpyrimidin-2-yl)-phenyl-amine
Formula: C12H13N3
Exact mass: 199.1109
SMILES: c(ccc1N-c(nc(c2)C)nc2C)cc1
InChI: InChI=1S/C12H13N3/c1-9-8-10(2)14-12(13-9)15-11-6-4-3-5-7-11/h3-8H,1-2H3,(H,13,14,15)
Instrument: LTQ Orbitrap XL Thermo Scientific
Instrument type: LC-ESI-ITFT
Ms type: MS2
Ion mode: POSITIVE
Ionization: ESI
Fragmentation mode: CID
Collision energy: 35 % (nominal)
Resolution: 7500
Column name: XBridge C18 3.5um, 2.1x50mm, Waters
Retention time: 7.6 min
Base peak: 200.1185
Precursor m/z: 200.1182
Precursor type: [M+H]+
m/z	relative intensity	assigned
80.0497	3	C5H6N+
82.0652	6	C5H8N+
107.0604	43	C6H7N2+
118.0654	3	C8H8N+
143.0604	8	C9H7N2+
159.0919	7	C10H11N2+
183.0916	30	C12H11N2+
185.0947	4	C11H11N3+
200.1184	999	C12H14N3+
