Mass spectrum: Chlorpyrifos-methyl; LC-ESI-ITFT; MS2; CE: 90%; R=15000; [M+H]+
Name: Chlorpyrifos-methyl
Name: dimethoxy-sulfanylidene-(3,5,6-trichloropyridin-2-yl)oxy-{5}-phosphane
Formula: C7H7Cl3NO3PS
Exact mass: 320.8950
SMILES: Clc1c(OP(=S)(OC)OC)nc(Cl)c(Cl)c1
InChI: InChI=1S/C7H7Cl3NO3PS/c1-12-15(16,13-2)14-7-5(9)3-4(8)6(10)11-7/h3H,1-2H3
Instrument: LTQ Orbitrap XL Thermo Scientific
Instrument type: LC-ESI-ITFT
Ms type: MS2
Ion mode: POSITIVE
Ionization: ESI
Fragmentation mode: HCD
Collision energy: 90 % (nominal)
Resolution: 15000
Column name: XBridge C18 3.5um, 2.1x50mm, Waters
Retention time: 14.0 min
Base peak: 321.9026
Precursor m/z: 321.9023
Precursor type: [M+H]+
m/z	relative intensity	assigned
62.0185	36	C2H6S+
78.9943	999	CH4O2P+
93.01	140	C2H6O2P+
97.0046	37	CH6O3P+
106.9448	53	C2HClOP+
124.982	470	C2H6O2PS+
127.0154	178	C3H8ClO3+
142.9926	511	C2H8O3PS+
161.9503	64	C4H2ClNO2P+
167.9169	114	C4HCl3N+
176.9201	218	C5HCl2NS+
179.9166	33	C4HCl2NOP+
211.8894	75	C5HCl3NS+
289.8804	48	C5H2Cl3N2O4P+
