Mass spectrum: Isofenphos; LC-ESI-QFT; MS2; CE: 45%; R=17500; [M+H]+
Name: Isofenphos
Name: propan-2-yl 2-[ethoxy-(propan-2-ylamino)phosphinothioyl]oxybenzoate
Formula: C15H24NO4PS
Exact mass: 345.1164
SMILES: CCOP(=S)(NC(C)C)OC1=CC=CC=C1C(=O)OC(C)C
InChI: InChI=1S/C15H24NO4PS/c1-6-18-21(22,16-11(2)3)20-14-10-8-7-9-13(14)15(17)19-12(4)5/h7-12H,6H2,1-5H3,(H,16,22)
Instrument: Exploris 240 Orbitrap Thermo Scientific
Instrument type: LC-ESI-QFT
Ms type: MS2
Ion mode: POSITIVE
Ionization: ESI
Fragmentation mode: HCD
Collision energy: 45 % (nominal)
Resolution: 17500
Column name: XBridge C18 3.5um, 2.1x50mm, Waters
Retention time: 11.726 min
Base peak: 245.0031
Precursor m/z: 346.1236
Precursor type: [M+H]+
m/z	relative intensity	assigned
95.9668	33	H3NOPS+
121.0284	101	C3H8NO2P+
137.0056	32	C7H5OS+
138.0135	52	C3H9NOPS+
157.0046	6	C6H6O3P+
175.0155	4	C6H8O4P+
182.9844	5	C7H4O4P+
198.9613	9	C7H4O3PS+
216.9718	999	C7H6O4PS+
245.0036	57	C9H10O4PS+
