Mass spectrum: Triphenylphosphine oxide; LC-ESI-QFT; MS2; CE: 120; R=35000; [M+H]+
Name: Triphenylphosphine oxide
Name: Triphenylphosphineoxide
Name: (diphenylphosphoroso)benzene
Formula: C18H15OP
Exact mass: 278.08605
SMILES: C1=CC=C(C=C1)P(=O)(C2=CC=CC=C2)C3=CC=CC=C3
InChI: InChI=1S/C18H15OP/c19-20(16-10-4-1-5-11-16,17-12-6-2-7-13-17)18-14-8-3-9-15-18/h1-15H
Instrument: Q Exactive Plus Orbitrap Thermo Scientific
Instrument type: LC-ESI-QFT
Ms type: MS2
Ion mode: POSITIVE
Ionization: ESI
Fragmentation mode: HCD
Collision energy: 120 (nominal)
Resolution: 35000
Column name: XBridge C18 3.5um, 2.1x50mm, Waters
Retention time: 9.4 min
Base peak: 391.2839
Precursor m/z: 279.0933
Precursor type: [M+H]+
m/z	relative intensity	assigned
50.0151	5	C4H2+
51.023	12	C4H3+
53.0022	21	C3HO+
53.0386	10	C4H5+
53.9975	4	C2NO+
55.0179	4	C3H3O+
55.0542	2	C4H7+
57.0699	10	C4H9+
59.0492	1	C3H7O+
65.0386	999	C5H5+
67.0542	3	C5H7+
68.9889	2	C3H2P+
77.0385	15	C6H5+
79.0542	3	C6H7+
81.0336	2	C5H5O+
83.0491	4	C5H7O+
91.0543	3	C7H7+
93.0335	36	C6H5O+
95.0045	10	C5H4P+
95.0491	32	C6H7O+
97.0076	1	C8H+
98.0362	3	C5H6O2+
105.0447	23	C6H5N2+
107.0045	1	C6H4P+
111.044	49	C6H7O2+
115.0543	2	C9H7+
121.0284	72	C7H5O2+
121.0396	110	C6H5N2O+
128.062	9	C10H8+
129.0699	2	C10H9+
133.0202	3	C8H6P+
141.0699	2	C11H9+
152.062	5	C12H8+
153.0699	5	C12H9+
154.0778	1	C12H10+
157.0202	1	C10H6P+
170.0279	4	C11H7P+
171.036	4	C11H8P+
183.0359	3	C12H8P+
