Mass spectrum: Indomethacin; LC-ESI-ITFT; MS2; CE: 90%; R=7500; [M+H]+
Name: Indomethacin
Name: 2-[1-(4-chlorobenzoyl)-5-methoxy-2-methyl-indol-3-yl]acetic acid
Formula: C19H16ClNO4
Exact mass: 357.0768
SMILES: COC1=CC2=C(C=C1)N(C(=O)C3=CC=C(Cl)C=C3)C(C)=C2CC(O)=O
InChI: InChI=1S/C19H16ClNO4/c1-11-15(10-18(22)23)16-9-14(25-2)7-8-17(16)21(11)19(24)12-3-5-13(20)6-4-12/h3-9H,10H2,1-2H3,(H,22,23)
Instrument: LTQ Orbitrap XL Thermo Scientific
Instrument type: LC-ESI-ITFT
Ms type: MS2
Ion mode: POSITIVE
Ionization: ESI
Fragmentation mode: HCD
Collision energy: 90 % (nominal)
Resolution: 7500
Column name: XBridge C18 3.5um, 2.1x50mm, Waters
Retention time: 12.9 min
Base peak: 358.0852
Precursor m/z: 358.0841
Precursor type: [M+H]+
m/z	relative intensity	assigned
50.0151	9	C4H2+
51.0229	34	C4H3+
55.0178	1	C3H3O+
62.9633	1	CClO+
74.0151	1	C6H2+
75.023	52	C6H3+
79.0179	16	C5H3O+
80.0258	12	C5H4O+
84.9839	2	C4H2Cl+
86.9997	142	C4H4Cl+
88.9787	2	C3H2ClO+
93.0335	6	C6H5O+
94.0419	1	C3H9ClN+
108.0208	1	C6H4O2+
110.9996	105	C6H4Cl+
113.987	2	C5H3ClO+
114.9945	17	C5H4ClO+
129.0102	33	C6H6ClO+
130.0652	1	C9H8N+
131.073	17	C9H9N+
138.9947	516	C7H4ClO+
139.0057	999	C9HNO+
140.003	7	C7H5ClO+
159.0686	4	C10H9NO+
