Mass spectrum: Azoxystrobin (free acid); LC-ESI-ITFT; MS2; CE: 90%; R=15000; [M+H]+
Name: Azoxystrobin (free acid)
Formula: C21H15N3O5
Exact mass: 389.1012
SMILES: O=C(O)/C(=C\OC)c3ccccc3Oc2cc(Oc1ccccc1C#N)ncn2
InChI: InChI=1S/C21H15N3O5/c1-27-12-16(21(25)26)15-7-3-5-9-18(15)29-20-10-19(23-13-24-20)28-17-8-4-2-6-14(17)11-22/h2-10,12-13H,1H3,(H,25,26)/b16-12-
Instrument: LTQ Orbitrap XL Thermo Scientific
Instrument type: LC-ESI-ITFT
Ms type: MS2
Ion mode: POSITIVE
Ionization: ESI
Fragmentation mode: HCD
Collision energy: 90 % (nominal)
Resolution: 15000
Column name: XBridge C18 3.5um, 2.1x50mm, Waters
Retention time: 8.8 min
Base peak: 390.1088
Precursor m/z: 390.1084
Precursor type: [M+H]+
m/z	relative intensity	assigned
51.0228	4	C4H3+
53.0385	4	C4H5+
63.023	2	C5H3+
65.0386	4	C5H5+
66.0464	4	C5H6+
68.0131	3	C3H2NO+
68.9972	8	C3HO2+
77.0385	15	C6H5+
78.0338	11	C5H4N+
78.0464	11	C6H6+
79.0417	2	C5H5N+
79.0543	5	C6H7+
82.0287	2	C4H4NO+
89.0386	91	C7H5+
90.0465	6	C7H6+
91.0417	19	C6H5N+
91.0543	12	C7H7+
92.0256	5	C6H4O+
92.0495	5	C6H6N+
95.0493	6	C6H7O+
102.0339	21	C7H4N+
102.0465	11	C8H6+
103.0417	14	C7H5N+
103.0543	15	C8H7+
104.0495	94	C7H6N+
105.0336	31	C7H5O+
105.0448	8	C6H5N2+
105.0573	5	C7H7N+
106.0414	3	C7H6O+
106.0651	4	C7H8N+
107.0492	7	C7H7O+
108.0442	3	C6H6NO+
114.0339	61	C8H4N+
115.0417	13	C8H5N+
115.0543	9	C9H7+
116.0495	125	C8H6N+
117.0336	14	C8H5O+
117.0573	16	C8H7N+
118.0289	3	C7H4NO+
118.0414	21	C8H6O+
118.0653	2	C8H8N+
119.0367	26	C7H5NO+
119.0493	2	C8H7O+
120.0445	43	C7H6NO+
121.0287	2	C7H5O2+
121.0648	4	C8H9O+
127.0417	47	C9H5N+
128.0495	70	C9H6N+
129.0338	17	C9H5O+
129.0448	141	C8H5N2+
130.0289	47	C8H4NO+
130.04	151	C7H4N3+
131.0369	2	C8H5NO+
131.0491	6	C9H7O+
131.0604	6	C8H7N2+
132.0445	29	C8H6NO+
133.0285	28	C8H5O2+
133.0523	52	C8H7NO+
134.0362	11	C8H6O2+
134.0601	60	C8H8NO+
140.0494	9	C10H6N+
141.0448	25	C9H5N2+
142.0524	10	C9H6N2+
143.0366	19	C9H5NO+
143.0605	24	C9H7N2+
144.0445	154	C9H6NO+
145.0285	14	C9H5O2+
145.0523	23	C9H7NO+
146.0237	26	C8H4NO2+
146.06	12	C9H8NO+
147.0554	2	C8H7N2O+
153.0444	3	C10H5N2+
154.0289	10	C10H4NO+
154.0526	10	C10H6N2+
155.0365	7	C10H5NO+
155.0604	39	C10H7N2+
156.0444	499	C10H6NO+
157.0284	3	C10H5O2+
157.0522	11	C10H7NO+
158.0361	2	C10H6O2+
159.0314	6	C9H5NO2+
159.0552	8	C9H7N2O+
160.0397	4	C9H6NO2+
161.0479	2	C9H7NO2+
162.0313	5	C9H6O3+
162.0549	5	C9H8NO2+
169.0396	8	C10H5N2O+
170.0235	3	C10H4NO2+
170.0476	33	C10H6N2O+
171.0553	88	C10H7N2O+
172.0394	999	C10H6NO2+
173.0475	1	C10H7NO2+
181.0398	20	C11H5N2O+
182.0475	31	C11H6N2O+
182.0711	2	C11H8N3+
183.0553	39	C11H7N2O+
184.0392	4	C11H6NO2+
186.0432	2	C10H6N2O2+
186.0548	3	C11H8NO2+
187.0505	4	C10H7N2O2+
190.0652	12	C14H8N+
195.0557	1	C12H7N2O+
197.0347	8	C11H5N2O2+
197.0701	1	C12H9N2O+
199.0503	44	C11H7N2O2+
200.0343	92	C11H6NO3+
201.0422	4	C11H7NO3+
204.0808	5	C15H10N+
205.076	7	C14H9N2+
210.0423	6	C12H6N2O2+
211.0501	9	C12H7N2O2+
217.076	12	C15H9N2+
218.084	8	C15H10N2+
220.0757	6	C15H10NO+
227.0445	3	C12H7N2O3+
229.0762	7	C16H9N2+
231.0912	3	C16H11N2+
232.0756	4	C16H10NO+
232.0877	2	C17H12O+
233.0712	9	C15H9N2O+
242.0322	12	C12H6N2O4+
244.0869	17	C16H10N3+
245.071	43	C16H9N2O+
246.0787	4	C16H10N2O+
247.0869	4	C16H11N2O+
256.0874	2	C19H12O+
257.0721	4	C17H9N2O+
259.0859	2	C17H11N2O+
260.0719	1	C17H10NO2+
261.0791	2	C17H11NO2+
271.0875	3	C18H11N2O+
272.0819	44	C17H10N3O+
273.0662	16	C17H9N2O2+
273.0905	2	C17H11N3O+
274.0734	6	C17H10N2O2+
275.0813	3	C17H11N2O2+
283.074	3	C18H9N3O+
300.0768	35	C18H10N3O2+
328.0719	36	C19H10N3O3+
372.1085	10	C20H14N5O3+
