Mass spectrum: Dichlofenthion; LC-ESI-QFT; MS2; CE: 75%; R=17500; [M+H]+
Name: Dichlofenthion
Name: (2,4-dichlorophenoxy)-diethoxy-sulfanylidene-lambda5-phosphane
Formula: C10H13Cl2O3PS
Exact mass: 313.9700
SMILES: CCOP(=S)(OCC)OC1=C(C=C(C=C1)Cl)Cl
InChI: InChI=1S/C10H13Cl2O3PS/c1-3-13-16(17,14-4-2)15-10-6-5-8(11)7-9(10)12/h5-7H,3-4H2,1-2H3
Instrument: Exploris 240 Orbitrap Thermo Scientific
Instrument type: LC-ESI-QFT
Ms type: MS2
Ion mode: POSITIVE
Ionization: ESI
Fragmentation mode: HCD
Collision energy: 75 % (nominal)
Resolution: 17500
Column name: XBridge C18 3.5um, 2.1x50mm, Waters
Retention time: 13.510 min
Base peak: 314.9773
Precursor m/z: 314.9773
Precursor type: [M+H]+
m/z	relative intensity	assigned
62.9454	45	PS+
64.9787	45	H2O2P+
78.9404	35	OPS+
96.9508	999	H2O2PS+
98.9842	76	CH4ClO3+
98.9997	242	C5H4Cl+
108.0027	30	C6H4S+
110.9665	67	C2H4ClOS+
114.9613	987	H4O3PS+
126.9945	363	C6H4ClO+
128.0023	642	C6H5ClO+
130.9717	89	C5H4ClS+
142.9722	190	C6H4ClS+
142.9896	905	C6H4ClO2+
143.9794	655	C6H5ClS+
158.9661	149	C5H4O2PS+
160.9555	346	C6H3Cl2O+
176.9326	574	C6H3Cl2S+
178.9484	310	C6H5Cl2S+
206.9613	64	C7H5Cl2O3+
222.8943	93	C6H2Cl2OPS+
224.9266	35	C6H4Cl2O3P+
258.9141	63	C6H6Cl2O3PS+
