Mass spectrum: Ceftazidime; LC-ESI-QFT; MS2; CE: 15; R=35000; [M-H]-
Name: Ceftazidime
Name: (6R,7R)-7-[[(2Z)-2-(2-amino-1,3-thiazol-4-yl)-2-(2-carboxypropan-2-yloxyimino)acetyl]amino]-8-oxo-3-(pyridin-1-ium-1-ylmethyl)-5-thia-1-azabicyclo[4.2.0]oct-2-ene-2-carboxylate
Formula: C22H22N6O7S2
Exact mass: 546.09914
SMILES: O=C2N1/C(=C(\CS[C@@H]1[C@@H]2NC(=O)C(=N\OC(C(=O)O)(C)C)/c3nc(sc3)N)C[n+]4ccccc4)C([O-])=O
InChI: InChI=1S/C22H22N6O7S2/c1-22(2,20(33)34)35-26-13(12-10-37-21(23)24-12)16(29)25-14-17(30)28-15(19(31)32)11(9-36-18(14)28)8-27-6-4-3-5-7-27/h3-7,10,14,18H,8-9H2,1-2H3,(H4-,23,24,25,29,31,32,33,34)/b26-13-/t14-,18-/m1/s1
Instrument: Q Exactive Orbitrap Thermo Scientific
Instrument type: LC-ESI-QFT
Ms type: MS2
Ion mode: NEGATIVE
Ionization: ESI
Fragmentation mode: HCD
Collision energy: 15 (nominal)
Resolution: 35000
Column name: XBridge C18 3.5um, 2.1x50mm, Waters
Retention time: 3.3 min
Base peak: 235.9261
Precursor m/z: 545.0919
Precursor type: [M-H]-
m/z	relative intensity	assigned
57.0346	14	C3H5O-
57.9756	107	CNS-
65.0145	2	C3HN2-
81.0094	16	C3HN2O-
83.0251	3	C3H3N2O-
96.9866	54	C3HN2S-
99.002	3	C3H3N2S-
100.0227	3	C4H6NS-
103.04	999	C4H7O3-
108.0203	79	C4H2N3O-
117.0458	10	C7H5N2-
123.9974	304	C4H2N3S-
135.0312	13	C5H3N4O-
151.0334	11	C7H7N2S-
151.9922	6	C5H2N3OS-
163.0082	5	C6H3N4S-
165.0238	5	C6H5N4S-
165.9955	10	C5H2N4OS-
167.0033	3	C5H3N4OS-
209.0138	13	C7H5N4O2S-
