Mass spectrum: Iodosulfuron-methyl; LC-ESI-QFT; MS2; CE: 90; R=35000; [M+H]+
Name: Iodosulfuron-methyl
Name: Methyl 4-iodo-2-(N-(4-methoxy-6-methyl-1,3,5-triazin-2-ylcarbamoyl)sulfamoyl)benzoate
Name: Methyl 4-iodo-2-[(4-methoxy-6-methyl-1,3,5-triazin-2-yl)carbamoylsulfamoyl]benzoate
Formula: C14H14IN5O6S
Exact mass: 506.97095
SMILES: Cc2nc(NC(=O)NS(=O)(=O)c1cc(I)ccc1C(=O)OC)nc(OC)n2
InChI: InChI=1S/C14H14IN5O6S/c1-7-16-12(19-14(17-7)26-3)18-13(22)20-27(23,24)10-6-8(15)4-5-9(10)11(21)25-2/h4-6H,1-3H3,(H2,16,17,18,19,20,22)
Instrument: Q Exactive Plus Orbitrap Thermo Scientific
Instrument type: LC-ESI-QFT
Ms type: MS2
Ion mode: POSITIVE
Ionization: ESI
Fragmentation mode: HCD
Collision energy: 90 (nominal)
Resolution: 35000
Column name: XBridge C18 3.5um, 2.1x50mm, Waters
Retention time: 9.3 min
Base peak: 507.9772
Precursor m/z: 507.9782
Precursor type: [M+H]+
m/z	relative intensity	assigned
50.0151	18	C4H2+
51.023	6	C4H3+
52.0309	3	C4H4+
53.0022	4	C3HO+
53.0386	7	C4H5+
55.0291	10	C2H3N2+
56.0131	40	C2H2NO+
56.0495	756	C3H6N+
57.0448	129	C2H5N2+
58.0288	918	C2H4NO+
61.0073	1	C5H+
62.0151	33	C5H2+
63.023	70	C5H3+
64.0308	7	C5H4+
65.026	3	C4H3N+
66.0101	8	C4H2O+
66.0465	3	C5H6+
67.0291	43	C3H3N2+
68.0243	23	C2H2N3+
69.0084	999	C2HN2O+
69.9924	1	C2NO2+
74.0152	1	C6H2+
75.0103	4	C5HN+
76.0307	225	C6H4+
77.0385	9	C6H5+
78.0464	116	C6H6+
78.9849	8	CH3O2S+
79.0179	6	C5H3O+
79.0417	3	C5H5N+
80.0256	1	C5H4O+
81.0336	24	C5H5O+
82.04	5	C3H4N3+
83.024	493	C3H3N2O+
84.0558	3	C3H6N3+
85.0397	20	C3H5N2O+
88.0182	7	C6H2N+
89.026	45	C6H3N+
91.0179	40	C6H3O+
91.0417	40	C6H5N+
92.0257	5	C6H4O+
94.0036	2	C3N3O+
94.0414	25	C6H6O+
95.0492	15	C6H7O+
100.0506	15	C3H6N3O+
101.0261	47	C7H3N+
104.0257	15	C7H4O+
105.0336	64	C7H5O+
105.0449	9	C6H5N2+
106.0414	1	C7H6O+
107.0127	1	C6H3O2+
107.0364	1	C6H5NO+
110.0349	2	C4H4N3O+
117.021	75	C7H3NO+
119.0129	29	C7H3O2+
119.0239	7	C6H3N2O+
119.0367	33	C7H5NO+
120.0209	1	C7H4O2+
133.0285	2	C8H5O2+
134.0363	106	C8H6O2+
136.0156	5	C7H4O3+
140.9196	1	CH2I+
141.0772	20	C5H9N4O+
145.016	30	C8H3NO2+
151.0264	13	C7H5NO3+
152.0105	4	C7H4O4+
154.8988	2	CIO+
164.9196	6	C3H2I+
166.0262	91	C8H6O4+
167.0565	75	C6H7N4O2+
177.0057	26	C8H3NO4+
188.9195	2	C5H2I+
215.9307	94	C6H3IN+
217.9226	103	C6H3IO+
220.9458	6	C6H6IO+
230.9308	2	C7H4IO+
230.9415	13	C6H4IN2+
245.9408	1	C7H5INO+
255.9361	1	C7H3IN3+
263.9275	1	C7H5IO3+
