Mass spectrum: Citalopram; LC-ESI-ITFT; MS2; CE: 35%; R=7500; [M+H]+
Name: Citalopram
Name: 1-[3-(dimethylamino)propyl]-1-(4-fluorophenyl)-3H-2-benzofuran-5-carbonitrile
Formula: C20H21FN2O
Exact mass: 324.1638
SMILES: Fc1ccc(cc1)C3(OCc2cc(C#N)ccc23)CCCN(C)C
InChI: InChI=1S/C20H21FN2O/c1-23(2)11-3-10-20(17-5-7-18(21)8-6-17)19-9-4-15(13-22)12-16(19)14-24-20/h4-9,12H,3,10-11,14H2,1-2H3
Instrument: LTQ Orbitrap XL Thermo Scientific
Instrument type: LC-ESI-ITFT
Ms type: MS2
Ion mode: POSITIVE
Ionization: ESI
Fragmentation mode: CID
Collision energy: 35 % (nominal)
Resolution: 7500
Column name: XBridge C18 3.5um, 2.1x50mm, Waters
Retention time: 6.6 min
Base peak: 325.1719
Precursor m/z: 325.1711
Precursor type: [M+H]+
m/z	relative intensity	assigned
109.0448	271	C7H6F+
116.0495	57	C8H6N+
123.0239	9	C7H4FO+
144.0442	4	C9H6NO+
156.0807	18	C11H10N+
159.0602	7	C11H8F+
166.065	32	C12H8N+
168.0812	3	C12H10N+
184.0753	9	C12H10NO+
221.0635	9	C15H8FN+
222.0707	2	C15H9FN+
224.0873	4	C15H11FN+
234.0711	45	C16H9FN+
235.0924	8	C17H12F+
236.0865	6	C16H11FN+
242.0954	5	C18H12N+
247.08	6	C17H10FN+
250.1024	6	C17H13FN+
262.1028	999	C18H13FN+
280.1131	216	C18H15FNO+
307.1605	146	C20H20FN2+
325.1703	8	C20H22FN2O+
