Mass spectrum: Triallate; LC-ESI-QFT; MS2; CE: 90; R=35000; [M+H]+
Name: Triallate
Name: S-(2,3,3-trichloroprop-2-enyl) N,N-di(propan-2-yl)carbamothioate
Formula: C10H16Cl3NOS
Exact mass: 303.00182
SMILES: CC(C)N(C(C)C)C(=O)SCC(=C(Cl)Cl)Cl
InChI: InChI=1S/C10H16Cl3NOS/c1-6(2)14(7(3)4)10(15)16-5-8(11)9(12)13/h6-7H,5H2,1-4H3
Instrument: Q Exactive Plus Orbitrap Thermo Scientific
Instrument type: LC-ESI-QFT
Ms type: MS2
Ion mode: POSITIVE
Ionization: ESI
Fragmentation mode: HCD
Collision energy: 90 (nominal)
Resolution: 35000
Column name: XBridge C18 3.5um, 2.1x50mm, Waters
Retention time: 15.9 min
Base peak: 279.1584
Precursor m/z: 304.0091
Precursor type: [M+H]+
m/z	relative intensity	assigned
53.0022	10	C3HO+
53.9975	1	C2NO+
55.0542	3	C4H7+
58.0651	56	C3H8N+
59.9903	1	CH2NS+
60.9839	3	C2H2Cl+
68.9794	2	C3HS+
69.0698	5	C5H9+
78.9403	13	CClS+
78.9946	1	C2H4ClO+
80.9561	3	CH2ClS+
82.9449	999	CHCl2+
86.0599	1	C4H8NO+
91.0542	9	C7H7+
93.07	1	C7H9+
96.9607	51	C2H3Cl2+
104.956	17	C3H2ClS+
106.945	5	C3HCl2+
118.0321	6	C4H8NOS+
140.9327	8	C3H3Cl2S+
142.9217	349	C3H2Cl3+
