Mass spectrum: Captan; LC-ESI-QFT; MS2; CE: 15; R=35000; [M+H]+
Name: Captan
Name: 1,2,3,6-tetrahydro-N-(trichloromethylthio)phthalimide
Name: (3aS,7aR)-2-(trichloromethylsulfanyl)-3a,4,7,7a-tetrahydroisoindole-1,3-dione
Formula: C9H8Cl3NO2S
Exact mass: 298.93413
SMILES: N1(C([C@@H]2CC=CC[C@@H]2C1=O)=O)SC(Cl)(Cl)Cl
InChI: InChI=1S/C9H8Cl3NO2S/c10-9(11,12)16-13-7(14)5-3-1-2-4-6(5)8(13)15/h1-2,5-6H,3-4H2/t5-,6+
Instrument: Q Exactive Orbitrap Thermo Scientific
Instrument type: LC-ESI-QFT
Ms type: MS2
Ion mode: POSITIVE
Ionization: ESI
Fragmentation mode: HCD
Collision energy: 15 (nominal)
Resolution: 35000
Column name: XBridge C18 3.5um, 2.1x50mm, Waters
Retention time: 9.4 min
Base peak: 149.0234
Precursor m/z: 299.9414
Precursor type: [M+H]+
m/z	relative intensity	assigned
77.0385	1	C6H5+
79.0542	119	C6H7+
81.0699	14	C6H9+
94.9352	9	CClOS+
95.9669	1	CH3ClNS+
104.0496	4	C7H6N+
106.0651	61	C7H8N+
113.0153	5	C6H6Cl+
125.0151	4	C7H6Cl+
127.0309	3	C7H8Cl+
129.9281	2	CH2Cl2NS+
131.9669	2	C4H3ClNS+
134.06	72	C8H8NO+
136.0215	7	C7H6NS+
140.0262	6	C7H7ClN+
145.9826	4	C5H5ClNS+
147.9714	16	C5H4Cl2N+
155.907	4	C2Cl2NOS+
156.9875	1	C7H6ClS+
168.021	1	C8H7ClNO+
171.9982	20	C7H7ClNS+
176.0028	1	C7H8Cl2N+
179.9436	30	C5H4Cl2NS+
203.9979	59	C8H8Cl2NO+
207.9751	11	C7H8Cl2NS+
235.9699	470	C8H8Cl2NOS+
263.9648	999	C9H8Cl2NO2S+
