Mass spectrum: Levofloxacin; LC-ESI-QFT; MS2; CE: 60; R=35000; [M+H]+
Name: Levofloxacin
Name: (3S)-9-Fluoro-3-methyl-10-(4-methyl-1-piperazinyl)-7-oxo-2,3-dihydro-7H-[1,4]oxazino[2,3,4-ij]quinoline-6-carboxylic acid
Formula: C18H20FN3O4
Exact mass: 361.14378
SMILES: C[C@H]1COc2c3n1cc(c(=O)c3cc(c2N4CCN(CC4)C)F)C(=O)O
InChI: InChI=1S/C18H20FN3O4/c1-10-9-26-17-14-11(16(23)12(18(24)25)8-22(10)14)7-13(19)15(17)21-5-3-20(2)4-6-21/h7-8,10H,3-6,9H2,1-2H3,(H,24,25)/t10-/m0/s1
Instrument: Q Exactive Orbitrap Thermo Scientific
Instrument type: LC-ESI-QFT
Ms type: MS2
Ion mode: POSITIVE
Ionization: ESI
Fragmentation mode: HCD
Collision energy: 60 (nominal)
Resolution: 35000
Column name: XBridge C18 3.5um, 2.1x50mm, Waters
Retention time: 4.3 min
Base peak: 362.1511
Precursor m/z: 362.1511
Precursor type: [M+H]+
m/z	relative intensity	assigned
56.0496	4	C3H6N+
58.0652	147	C3H8N+
67.0543	3	C5H7+
69.0699	6	C5H9+
70.0651	105	C4H8N+
71.073	1	C4H9N+
72.0807	53	C4H10N+
82.0651	14	C5H8N+
83.0603	1	C4H7N2+
84.0808	21	C5H10N+
85.0886	10	C5H11N+
97.076	1	C5H9N2+
104.0494	1	C7H6N+
122.04	15	C7H5FN+
132.0444	1	C8H6NO+
144.0807	1	C10H10N+
146.0596	1	C9H8NO+
148.0393	2	C8H6NO2+
148.0556	3	C9H7FN+
149.051	3	C8H6FN2+
150.0349	21	C8H5FNO+
151.0426	4	C8H6FNO+
152.0505	1	C8H7FNO+
156.068	1	C10H8N2+
157.0395	3	C9H5N2O+
157.076	1	C10H9N2+
158.0237	14	C9H4NO2+
160.0396	1	C9H6NO2+
160.0556	5	C10H7FN+
162.0712	1	C10H9FN+
163.0426	4	C9H6FNO+
164.0504	7	C9H7FNO+
165.0456	6	C8H6FN2O+
170.0603	1	C11H8NO+
171.0551	21	C10H7N2O+
173.0707	3	C10H9N2O+
174.0711	3	C11H9FN+
175.0497	1	C9H7N2O2+
175.0666	3	C10H8FN2+
176.0341	3	C9H6NO3+
176.0504	4	C10H7FNO+
176.074	1	C10H9FN2+
177.0459	1	C9H6FN2O+
177.0581	1	C10H8FNO+
178.0297	53	C9H5FNO2+
179.0375	66	C9H6FNO2+
179.0612	4	C9H8FN2O+
180.0453	25	C9H7FNO2+
184.0631	4	C11H8N2O+
185.0338	1	C10H5N2O2+
185.0709	3	C11H9N2O+
187.0667	1	C11H8FN2+
188.0506	19	C11H7FNO+
189.0459	3	C10H6FN2O+
190.0294	1	C10H5FNO2+
190.0536	1	C10H7FN2O+
190.0662	4	C11H9FNO+
191.0375	9	C10H6FNO2+
191.0615	12	C10H8FN2O+
192.0453	37	C10H7FNO2+
193.0165	5	C9H4FNO3+
193.0405	64	C9H6FN2O2+
194.0245	54	C9H5FNO3+
194.0483	25	C9H7FN2O2+
194.0609	32	C10H9FNO2+
195.0561	10	C9H8FN2O2+
196.0402	1	C9H7FNO3+
197.0711	1	C12H9N2O+
198.0551	1	C12H8NO2+
198.0783	3	C12H10N2O+
199.0498	53	C11H7N2O2+
200.0576	13	C11H8N2O2+
201.0576	3	C15H7N+
201.0655	16	C11H9N2O2+
202.0659	24	C12H9FNO+
203.0376	7	C11H6FNO2+
203.061	23	C11H8FN2O+
204.0455	32	C11H7FNO2+
204.0694	6	C11H9FN2O+
204.0819	1	C12H11FNO+
205.0407	175	C10H6FN2O2+
205.077	102	C11H10FN2O+
206.0485	8	C10H7FN2O2+
206.0611	5	C11H9FNO2+
207.0567	8	C10H8FN2O2+
211.0499	1	C12H7N2O2+
211.0863	1	C13H11N2O+
213.0658	6	C12H9N2O2+
213.1019	1	C13H13N2O+
214.0533	1	C12H7FN2O+
214.0854	1	C13H12NO2+
215.0615	7	C12H8FN2O+
216.0454	3	C12H7FNO2+
216.0699	1	C12H9FN2O+
216.0816	1	C13H11FNO+
217.0405	15	C11H6FN2O2+
217.0769	5	C12H10FN2O+
218.0486	16	C11H7FN2O2+
218.0611	13	C12H9FNO2+
218.0855	1	C12H11FN2O+
219.0563	271	C11H8FN2O2+
219.0683	19	C15H9NO+
220.064	35	C11H9FN2O2+
220.0765	12	C12H11FNO2+
221.0719	374	C11H10FN2O2+
223.0858	3	C14H11N2O+
224.0705	1	C14H10NO2+
225.0647	1	C13H9N2O2+
226.0734	4	C13H10N2O2+
226.0978	1	C13H12N3O+
227.0811	1	C13H11N2O2+
228.0686	1	C16H8N2+
229.0769	1	C13H10FN2O+
231.0207	1	C11H4FN2O3+
231.0562	18	C12H8FN2O2+
231.0925	4	C13H12FN2O+
232.0641	8	C12H9FN2O2+
232.0768	7	C13H11FNO2+
233.0718	46	C12H10FN2O2+
233.0844	14	C16H11NO+
233.1084	3	C13H14FN2O+
234.0797	11	C12H11FN2O2+
234.0923	8	C16H12NO+
235.0874	5	C12H12FN2O2+
240.0768	3	C13H10N3O2+
241.0967	31	C14H13N2O2+
243.0928	7	C14H12FN2O+
244.0766	11	C14H11FNO2+
245.0718	37	C13H10FN2O2+
246.0795	7	C13H11FN2O2+
247.0874	69	C13H12FN2O2+
253.097	1	C15H13N2O2+
253.1204	8	C15H15N3O+
254.0923	4	C14H12N3O2+
255.1001	14	C14H13N3O2+
255.1126	2	C15H15N2O2+
256.1081	1	C14H14N3O2+
261.1031	999	C14H14FN2O2+
268.1078	7	C15H14N3O2+
268.1439	5	C16H18N3O+
269.1154	3	C15H15N3O2+
270.1234	9	C15H16N3O2+
273.0895	1	C17H11N3O+
273.103	21	C15H14FN2O2+
275.1184	8	C18H15N2O+
286.0622	1	C14H9FN3O3+
286.0819	4	C14H12N3O4+
286.0975	1	C15H13FN3O2+
286.1177	6	C15H16N3O3+
296.1024	1	C16H14N3O3+
296.1396	2	C17H18N3O2+
298.1551	3	C17H20N3O2+
301.0856	13	C18H11N3O2+
301.1219	40	C16H16FN3O2+
305.0931	3	C15H14FN2O4+
313.0812	1	C11H12FN5O5+
314.1135	3	C16H16N3O4+
314.1502	1	C17H20N3O3+
316.1089	5	C16H15FN3O3+
316.1454	7	C17H19FN3O2+
318.1608	17	C17H21FN3O2+
344.1401	1	C18H19FN3O3+
362.1511	13	C18H21FN3O4+
