Mass spectrum: Gemfibrozil; LC-ESI-QFT; MS2; CE: 15; R=35000; [M+H]+
Name: Gemfibrozil
Name: 5-[(2,5-dimethylphenyl)oxy]-2,2-dimethylpentanoic acid
Name: 5-(2,5-dimethylphenoxy)-2,2-dimethyl-pentanoic acid
Formula: C15H22O3
Exact mass: 250.15689
SMILES: O=C(O)C(C)(C)CCCOc1cc(ccc1C)C
InChI: InChI=1S/C15H22O3/c1-11-6-7-12(2)13(10-11)18-9-5-8-15(3,4)14(16)17/h6-7,10H,5,8-9H2,1-4H3,(H,16,17)
Instrument: Q Exactive Orbitrap Thermo Scientific
Instrument type: LC-ESI-QFT
Ms type: MS2
Ion mode: POSITIVE
Ionization: ESI
Fragmentation mode: HCD
Collision energy: 15 (nominal)
Resolution: 35000
Column name: XBridge C18 3.5um, 2.1x50mm, Waters
Retention time: 14.9 min
Base peak: 233.1536
Precursor m/z: 251.1642
Precursor type: [M+H]+
m/z	relative intensity	assigned
53.0386	4	C4H5+
55.0543	40	C4H7+
57.0336	1	C3H5O+
57.0699	13	C4H9+
59.0492	21	C3H7O+
69.0699	1	C5H9+
71.0491	6	C4H7O+
73.0648	13	C4H9O+
83.0855	799	C6H11+
87.0441	1	C4H7O2+
101.0961	6	C6H13O+
111.0804	4	C7H11O+
123.0804	174	C8H11O+
129.091	999	C7H13O2+
135.0803	8	C9H11O+
161.0962	14	C11H13O+
191.1795	1	C14H23+
205.1588	98	C14H21O+
233.1536	73	C15H21O2+
