Mass spectrum: Metolachlor-TP SYN547977; LC-ESI-QFT; MS2; CE: 120%; R=17500; [M+H]+
Name: Metolachlor-TP SYN547977
Formula: C15H20ClNO3
Exact mass: 297.1132
SMILES: ClCC(=O)N(C(C)COC)c1c(C)cccc1C(C)=O
InChI: InChI=1S/C15H20ClNO3/c1-10-6-5-7-13(12(3)18)15(10)17(14(19)8-16)11(2)9-20-4/h5-7,11H,8-9H2,1-4H3
Instrument: Exploris 240 Orbitrap Thermo Scientific
Instrument type: LC-ESI-QFT
Ms type: MS2
Ion mode: POSITIVE
Ionization: ESI
Fragmentation mode: HCD
Collision energy: 120 % (nominal)
Resolution: 17500
Column name: XBridge C18 3.5um, 2.1x50mm, Waters
Retention time: 6.762 min
Base peak: 298.1202
Precursor m/z: 298.1204
Precursor type: [M+H]+
m/z	relative intensity	assigned
53.0386	147	C4H5+
65.0385	62	C5H5+
73.065	71	C4H9O+
77.0385	506	C6H5+
79.0542	896	C6H7+
91.0542	797	C7H7+
93.0573	276	C6H7N+
95.0491	230	C6H7O+
103.0543	548	C8H7+
105.0698	663	C8H9+
106.0652	231	C7H8N+
107.0728	107	C7H9N+
108.0808	133	C7H10N+
115.0544	491	C9H7+
116.0621	231	C9H8+
117.0572	509	C8H7N+
118.0652	159	C8H8N+
119.0732	162	C8H9N+
120.0804	269	C8H10N+
128.0626	118	C10H8+
129.0699	152	C10H9+
130.0651	522	C9H8N+
131.0729	236	C9H9N+
132.0808	254	C9H10N+
134.0596	71	C8H8NO+
142.0653	197	C10H8N+
143.073	70	C10H9N+
144.0808	233	C10H10N+
154.0654	252	C11H8N+
156.081	561	C11H10N+
157.0886	999	C11H11N+
170.0961	194	C12H12N+
171.1046	273	C12H13N+
172.1122	601	C12H14N+
