Mass spectrum: Tritosulfuron; LC-ESI-ITFT; MS2; CE: 90%; R=7500; [M+H]+
Name: Tritosulfuron
Name: N-{[4-methoxy-6-(trifluoromethyl)-1,3,5-triazin-2-yl]carbamoyl}-2-(trifluoromethyl)benzenesulfonamide
Formula: C13H9F6N5O4S
Exact mass: 445.0279
SMILES: c1c(S(=O)(=O)NC(Nc2nc(nc(n2)C(F)(F)F)OC)=O)c(C(F)(F)F)ccc1
InChI: InChI=1S/C13H9F6N5O4S/c1-28-11-21-8(13(17,18)19)20-9(23-11)22-10(25)24-29(26,27)7-5-3-2-4-6(7)12(14,15)16/h2-5H,1H3,(H2,20,21,22,23,24,25)
Instrument: LTQ Orbitrap XL Thermo Scientific
Instrument type: LC-ESI-ITFT
Ms type: MS2
Ion mode: POSITIVE
Ionization: ESI
Fragmentation mode: HCD
Collision energy: 90 % (nominal)
Resolution: 7500
Column name: XBridge C18 3.5um, 2.1x50mm, Waters
Retention time: 10.8 min
Base peak: 446.0345
Precursor m/z: 446.0352
Precursor type: [M+H]+
m/z	relative intensity	assigned
68.9947	56	CF3+
69.0083	33	C2HN2O+
75.9992	7	C2F2N+
83.0241	32	C3H3N2O+
91.0102	15	C2HF2N2+
91.9943	28	C2F2NO+
95.0292	22	C6H4F+
102.0339	13	C7H4N+
110.0213	628	C3H3F3N+
114.0276	19	C6H4F2+
119.0107	5	C5H2F3+
123.0354	151	C6H4FN2+
125.0198	62	C7H3F2+
127.0478	38	C3H6F3N2+
130.04	80	C4H6F4+
133.0213	6	C4H3F2N2O+
137.0272	4	C4H9O3S+
138.0269	7	C3H3F3N3+
140.0307	14	C7H4F2N+
141.0254	3	C6H3F2N2+
144.0006	13	C9HFO+
145.026	999	C7H4F3+
148.0191	4	C3H2F2N4O+
148.0311	12	CH9FN2O3S+
168.0256	16	C8H4F2NO+
195.0482	8	C5H6F3N4O+
325.9665	3	C9HF5N3O3S+
