Mass spectrum: N-Methyl-N-nitrosotoluene-4-sulphonamide (NTOLS); LC-ESI-QFT; MS2; CE: 60; R=70000; [M+H]+
Name: N-Methyl-N-nitrosotoluene-4-sulphonamide (NTOLS)
Name: N,4-dimethyl-N-nitrosobenzenesulfonamide
Formula: C8H10N2O3S
Exact mass: 214.04121
SMILES: O=S(=O)(c1ccc(cc1)C)N(N=O)C
InChI: InChI=1S/C8H10N2O3S/c1-7-3-5-8(6-4-7)14(12,13)10(2)9-11/h3-6H,1-2H3
Instrument: Q Exactive Plus Orbitrap Thermo Scientific
Instrument type: LC-ESI-QFT
Ms type: MS2
Ion mode: POSITIVE
Ionization: ESI
Fragmentation mode: HCD
Collision energy: 60 (nominal)
Resolution: 70000
Column name: XBridge C18 3.5um, 2.1x50mm, Waters
Retention time: 8.3 min
Base peak: 186.0583
Precursor m/z: 215.0485
Precursor type: [M+H]+
m/z	relative intensity	assigned
53.0386	213	C4H5+
55.0178	110	C3H3O+
55.0542	736	C4H7+
57.0335	32	C3H5O+
57.0699	203	C4H9+
59.0491	120	C3H7O+
65.0386	65	C5H5+
67.0542	354	C5H7+
68.9971	21	C3HO2+
69.0335	35	C4H5O+
69.0699	403	C5H9+
71.0491	70	C4H7O+
71.0855	20	C5H11+
72.0445	23	C3H6NO+
77.0385	25	C6H5+
79.0542	165	C6H7+
81.0335	25	C5H5O+
81.0699	257	C6H9+
83.0491	382	C5H7O+
83.0855	134	C6H11+
85.0648	88	C5H9O+
88.0215	20	C3H6NS+
88.0756	26	C4H10NO+
91.0542	265	C7H7+
93.0699	113	C7H9+
95.0492	999	C6H7O+
95.0855	364	C7H11+
96.0525	886	CH8N2O3+
101.0597	322	C5H9O2+
105.0448	239	C6H5N2+
105.07	156	C8H9+
106.0481	212	CH6N4O2+
107.0854	63	C8H11+
109.0648	104	C7H9O+
111.044	162	C6H7O2+
121.0284	726	C7H5O2+
121.0397	39	C6H5N2O+
123.0803	29	C8H11O+
125.0598	19	C7H9O2+
129.0546	211	C6H9O3+
130.9818	25	C7HNS+
141.0006	82	C6H5O2S+
142.0038	108	C7N3O+
145.0511	20	C7H5N4+
155.0116	24	C8HN3O+
169.0272	22	C3H9N2O4S+
171.0266	17	C5H5N3O4+
173.0221	242	C8H3N3O2+
175.0013	72	C7HN3O3+
179.0603	136	C4H11N4O2S+
189.017	26	C8H3N3O3+
198.0499	489	C7H8N3O4+
