Mass spectrum: Cefalexin; LC-ESI-QFT; MS2; CE: 45; R=35000; [M+H]+
Name: Cefalexin
Name: 7-[(2-amino-1-oxo-2-phenylethyl)amino]-3-methyl-8-oxo-5-thia-1-azabicyclo[4.2.0]oct-2-ene-2-carboxylic acid
Formula: C16H17N3O4S
Exact mass: 347.09398
SMILES: CC1=C(N2C(C(C2=O)NC(=O)C(C3=CC=CC=C3)N)SC1)C(=O)O
InChI: InChI=1S/C16H17N3O4S/c1-8-7-24-15-11(14(21)19(15)12(8)16(22)23)18-13(20)10(17)9-5-3-2-4-6-9/h2-6,10-11,15H,7,17H2,1H3,(H,18,20)(H,22,23)
Instrument: Q Exactive Orbitrap Thermo Scientific
Instrument type: LC-ESI-QFT
Ms type: MS2
Ion mode: POSITIVE
Ionization: ESI
Fragmentation mode: HCD
Collision energy: 45 (nominal)
Resolution: 35000
Column name: XBridge C18 3.5um, 2.1x50mm, Waters
Retention time: 4.4 min
Base peak: 348.1015
Precursor m/z: 348.1013
Precursor type: [M+H]+
m/z	relative intensity	assigned
58.995	2	C2H3S+
62.0059	1	CH4NS+
68.0495	271	C4H6N+
69.0335	1	C4H5O+
70.0288	1	C3H4NO+
70.0651	15	C4H8N+
72.9981	25	C2H3NS+
74.0059	32	C2H4NS+
79.0542	66	C6H7+
82.0651	11	C5H8N+
85.0108	1	C4H5S+
86.0059	16	C3H4NS+
91.0542	97	C7H7+
95.0492	2	C6H7O+
97.0103	1	C5H5S+
97.0285	1	C5H5O2+
98.0601	1	C5H8NO+
103.0541	7	C8H7+
104.0491	1	C7H6N+
105.0336	1	C7H5O+
106.0651	999	C7H8N+
109.0759	1	C6H9N2+
112.0216	43	C5H6NS+
114.0008	189	C4H4NOS+
114.0549	11	C5H8NO2+
115.0542	1	C9H7+
116.0529	3	C5H10NS+
117.0573	17	C8H7N+
118.0413	52	C8H6O+
118.0651	254	C8H8N+
119.0492	42	C8H7O+
121.0106	12	C7H5S+
123.0262	17	C7H7S+
126.0372	6	C6H8NS+
126.055	6	C6H8NO2+
128.0496	1	C9H6N+
130.0652	12	C9H8N+
131.0491	4	C9H7O+
131.073	1	C9H9N+
132.0808	4	C9H10N+
133.0763	8	C8H9N2+
134.06	8	C8H8NO+
135.0263	2	C8H7S+
137.042	6	C8H9S+
139.0324	5	C6H7N2S+
139.0504	1	C6H7N2O2+
140.0163	6	C6H6NOS+
140.0342	13	C6H6NO3+
141.0481	7	C6H9N2S+
146.0601	85	C9H8NO+
147.0264	19	C9H7S+
150.0373	30	C8H8NS+
151.0212	1	C8H7OS+
158.0271	920	C6H8NO2S+
159.0681	1	C10H9NO+
160.0311	1	C13H4+
160.0425	5	C6H10NO2S+
161.071	1	C9H9N2O+
162.0372	27	C9H8NS+
164.0529	62	C9H10NS+
167.0272	2	C7H7N2OS+
170.0965	1	C12H12N+
174.055	262	C10H8NO2+
178.0321	16	C9H8NOS+
185.0381	3	C7H9N2O2S+
185.1072	1	C12H13N2+
186.0457	12	C7H10N2O2S+
187.0539	4	C7H11N2O2S+
190.0322	12	C10H8NOS+
191.0399	17	C10H9NOS+
192.0478	35	C10H10NOS+
196.0765	1	C7H16O4S+
211.0865	1	C13H11N2O+
214.0686	5	C13H12NS+
214.086	2	C13H12NO2+
218.0272	4	C11H8NO2S+
229.0802	7	C13H13N2S+
229.0964	1	C13H13N2O2+
257.074	1	C14H13N2OS+
287.0852	1	C15H15N2O2S+
