Mass spectrum: Mianserin; LC-ESI-QFT; MS2; CE: 30; R=35000; [M+H]+
Name: Mianserin
Name: 2-Methyl-1,2,3,4,10,14b-hexahydrodibenzo[c,f]pyrazino[1,2-a]azepine
Formula: C18H20N2
Exact mass: 264.16265
SMILES: CN1CCN2C(C1)C3=CC=CC=C3CC4=CC=CC=C42
InChI: InChI=1S/C18H20N2/c1-19-10-11-20-17-9-5-3-7-15(17)12-14-6-2-4-8-16(14)18(20)13-19/h2-9,18H,10-13H2,1H3
Instrument: Q Exactive Plus Orbitrap Thermo Scientific
Instrument type: LC-ESI-QFT
Ms type: MS2
Ion mode: POSITIVE
Ionization: ESI
Fragmentation mode: HCD
Collision energy: 30 (nominal)
Resolution: 35000
Column name: XBridge C18 3.5um, 2.1x50mm, Waters
Retention time: 6.5 min
Base peak: 265.1696
Precursor m/z: 265.1699
Precursor type: [M+H]+
m/z	relative intensity	assigned
58.0651	82	C3H8N+
70.065	20	C4H8N+
85.0759	3	C4H9N2+
91.0538	1	C7H7+
106.065	1	C7H8N+
118.065	10	C8H8N+
120.0806	2	C8H10N+
132.0809	1	C9H10N+
146.0963	6	C10H12N+
148.112	5	C10H14N+
158.0963	2	C11H12N+
161.1072	5	C10H13N2+
172.1121	2	C12H14N+
174.115	3	C11H14N2+
179.0854	1	C14H11+
208.1121	127	C15H14N+
222.1276	14	C16H16N+
234.1277	12	C17H16N+
250.1462	9	C17H18N2+
263.1543	51	C18H19N2+
265.1697	999	C18H21N2+
