Mass spectrum: Cyanofenphos; LC-ESI-QFT; MS2; CE: 75%; R=17500; [M+H]+
Name: Cyanofenphos
Name: 4-[ethoxy(phenyl)phosphinothioyl]oxybenzonitrile
Formula: C15H14NO2PS
Exact mass: 303.0483
SMILES: CCOP(=S)(C1=CC=CC=C1)OC2=CC=C(C=C2)C#N
InChI: InChI=1S/C15H14NO2PS/c1-2-17-19(20,15-6-4-3-5-7-15)18-14-10-8-13(12-16)9-11-14/h3-11H,2H2,1H3
Instrument: Exploris 240 Orbitrap Thermo Scientific
Instrument type: LC-ESI-QFT
Ms type: MS2
Ion mode: POSITIVE
Ionization: ESI
Fragmentation mode: HCD
Collision energy: 75 % (nominal)
Resolution: 17500
Column name: XBridge C18 3.5um, 2.1x50mm, Waters
Retention time: 10.835 min
Base peak: 363.0217
Precursor m/z: 304.0556
Precursor type: [M+H]+
m/z	relative intensity	assigned
51.0228	10	C4H3+
53.0385	40	C4H5+
62.9453	602	PS+
65.0385	62	C5H5+
75.0229	16	C6H3+
77.0386	224	C2H8NP+
78.0464	126	C6H6+
79.0543	56	C6H7+
91.0543	21	C7H7+
92.0495	327	C6H6N+
95.0492	126	C6H7O+
102.0337	96	C7H4N+
109.0107	11	C2H8NPS+
110.0185	417	C6H6S+
119.0367	15	C7H5NO+
120.0444	353	C7H6NO+
134.0059	132	C7H4NS+
136.0216	73	C7H6NS+
138.9766	210	C6H4PS+
139.9843	76	C6H5PS+
141.0096	40	C6H6O2P+
156.9871	999	C6H6OPS+
179.9669	136	C7H3NOPS+
189.0135	44	C7H10O2PS+
197.9776	11	C7H5NO2PS+
198.0475	10	C12H9NP+
224.0255	18	C13H7NOP+
242.0366	26	C13H9NO2P+
