Mass spectrum: Sulfapyridine; LC-ESI-ITFT; MS2; CE: 75%; R=7500; [M+H]+
Name: Sulfapyridine
Name: 2-Sulfapyridine
Name: 4-amino-N-(2-pyridinyl)benzenesulfonamide
Formula: C11H11N3O2S
Exact mass: 249.0572
SMILES: c1(S(Nc2ccccn2)(=O)=O)ccc(N)cc1
InChI: InChI=1S/C11H11N3O2S/c12-9-4-6-10(7-5-9)17(15,16)14-11-3-1-2-8-13-11/h1-8H,12H2,(H,13,14)
Instrument: LTQ Orbitrap XL Thermo Scientific
Instrument type: LC-ESI-ITFT
Ms type: MS2
Ion mode: POSITIVE
Ionization: ESI
Fragmentation mode: HCD
Collision energy: 75 % (nominal)
Resolution: 7500
Column name: XBridge C18 3.5um, 2.1x50mm, Waters
Retention time: 2.9 min
Base peak: 250.0651
Precursor m/z: 250.0645
Precursor type: [M+H]+
m/z	relative intensity	assigned
65.0386	341	C5H5+
67.0416	33	C4H5N+
68.0494	81	C4H6N+
78.0337	20	C5H4N+
79.0176	13	C5H3O+
80.0494	36	C5H6N+
92.0495	917	C6H6N+
93.0447	63	C5H5N2+
93.0572	79	C6H7N+
94.0525	134	C5H6N2+
95.0603	446	C5H7N2+
96.0445	28	C5H6NO+
108.0444	999	C6H6NO+
110.06	84	C6H8NO+
120.0554	7	C6H6N3+
156.0117	53	C6H6NO2S+
157.0068	14	C5H5N2O2S+
167.0604	79	C11H7N2+
168.0686	17	C11H8N2+
183.0793	22	C11H9N3+
184.0868	346	C11H10N3+
