Mass spectrum: Sulpiride; LC-ESI-QFT; MS2; CE: 90; R=35000; [M+H]+
Name: Sulpiride
Name: Sulpirid
Name: N-[(1-ethyl-2-pyrrolidinyl)methyl]-2-methoxy-5-sulfamoylbenzamide
Formula: C15H23N3O4S
Exact mass: 341.14093
SMILES: CCN1CCCC1CNC(=O)C2=C(C=CC(=C2)S(=O)(=O)N)OC
InChI: InChI=1S/C15H23N3O4S/c1-3-18-8-4-5-11(18)10-17-15(19)13-9-12(23(16,20)21)6-7-14(13)22-2/h6-7,9,11H,3-5,8,10H2,1-2H3,(H,17,19)(H2,16,20,21)
Instrument: Q Exactive Orbitrap Thermo Scientific
Instrument type: LC-ESI-QFT
Ms type: MS2
Ion mode: POSITIVE
Ionization: ESI
Fragmentation mode: HCD
Collision energy: 90 (nominal)
Resolution: 35000
Column name: XBridge C18 3.5um, 2.1x50mm, Waters
Retention time: 1.7 min
Base peak: 342.1483
Precursor m/z: 342.1482
Precursor type: [M+H]+
m/z	relative intensity	assigned
55.0543	13	C4H7+
56.0495	44	C3H6N+
58.0652	279	C3H8N+
63.9852	4	H2NOS+
65.0386	177	C5H5+
67.0542	70	C5H7+
68.0494	14	C4H6N+
69.0699	19	C5H9+
70.0651	73	C4H8N+
71.0729	8	C4H9N+
75.0229	94	C6H3+
76.0308	12	C6H4+
77.0386	24	C6H5+
78.0464	62	C6H6+
79.0416	27	C5H5N+
79.0542	13	C6H7+
80.0495	12	C5H6N+
81.0335	8	C5H5O+
82.0651	58	C5H8N+
82.995	10	
83.073	4	C5H9N+
84.0808	999	C5H10N+
92.0494	31	C6H6N+
94.0651	14	C6H8N+
95.0491	56	C6H7O+
96.0808	8	C6H10N+
97.0885	7	C6H11N+
98.0964	365	C6H12N+
105.0335	14	C7H5O+
106.0412	13	C7H6O+
107.0128	23	C6H3O2+
107.0365	70	C6H5NO+
107.0492	21	C7H7O+
108.0205	10	
108.0444	115	C6H6NO+
109.0284	78	C6H5O2+
110.0058	3	C5H4NS+
110.0964	58	C7H12N+
112.1121	873	C7H14N+
120.0443	4	C7H6NO+
122.06	8	C7H8NO+
123.0076	12	C6H3O3+
124.0519	3	C7H8O2+
133.0284	35	C8H5O2+
134.0362	83	C8H6O2+
138.9849	71	C6H3O2S+
151.039	60	C8H7O3+
154.9797	25	C6H3O3S+
156.9953	2	C6H5O3S+
166.0261	66	C8H6O4+
170.9984	41	C6H5NO3S+
174.0221	29	C6H8NO3S+
184.0175	81	C6H6N3O2S+
186.0219	2	C7H8NO3S+
214.0168	729	C14H2N2O+
217.004	43	C13HN2O2+
