Mass spectrum: Ranitidine; LC-ESI-ITFT; MS2; CE: 30%; R=15000; [M+H]+
Name: Ranitidine
Name: 1,1-Ethenediamine, N-(2-(((5-((dimethylamino)methyl)-2-furanyl)methyl)thio)ethyl)-N'-methyl-2-nitro-
Name: 1-N'-[2-[[5-(dimethylaminomethyl)furan-2-yl]methylsulfanyl]ethyl]-1-N-methyl-2-nitroethene-1,1-diamine
Formula: C13H22N4O3S
Exact mass: 314.1413
SMILES: CN\C(NCCSCC1=CC=C(CN(C)C)O1)=C/[N+]([O-])=O
InChI: InChI=1S/C13H22N4O3S/c1-14-13(9-17(18)19)15-6-7-21-10-12-5-4-11(20-12)8-16(2)3/h4-5,9,14-15H,6-8,10H2,1-3H3/b13-9+
Instrument: LTQ Orbitrap XL Thermo Scientific
Instrument type: LC-ESI-ITFT
Ms type: MS2
Ion mode: POSITIVE
Ionization: ESI
Fragmentation mode: HCD
Collision energy: 30 % (nominal)
Resolution: 15000
Column name: XBridge C18 3.5um, 2.1x50mm, Waters
Retention time: 1.9 min
Base peak: 315.1494
Precursor m/z: 315.1485
Precursor type: [M+H]+
m/z	relative intensity	assigned
81.0335	18	C5H5O+
83.0603	6	C4H7N2+
88.0215	38	C3H6NS+
95.0491	17	C6H7O+
97.076	15	C5H9N2+
98.0838	166	C5H10N2+
101.0293	5	C4H7NS+
102.0372	63	C4H8NS+
110.0598	4	C6H8NO+
110.0963	15	C7H12N+
113.0708	7	C5H9N2O+
114.0787	12	C5H10N2O+
117.0482	11	C4H9N2S+
118.032	10	C4H8NOS+
124.0757	220	C7H10NO+
125.0055	122	C6H5OS+
130.0559	254	C5H10N2S+
135.0916	6	C8H11N2+
138.0913	33	C8H12NO+
144.0767	158	C5H10N3O2+
145.0434	7	C5H9N2OS+
147.0223	5	C4H7N2O2S+
153.0368	25	C8H9OS+
154.0559	3	C7H10N2S+
164.0943	11	C9H12N2O+
165.1021	46	C9H13N2O+
167.0638	17	C8H11N2S+
170.0634	54	C8H12NOS+
176.0488	999	C5H10N3O2S+
177.1023	4	C10H13N2O+
178.1102	8	C10H14N2O+
181.0794	23	C9H13N2S+
188.0488	2	C6H10N3O2S+
191.1178	66	C11H15N2O+
193.0556	34	C10H11NOS+
195.0714	8	C10H13NOS+
196.0426	6	C9H10NO2S+
215.1212	6	C10H19N2OS+
224.0977	188	C11H16N2OS+
270.0906	95	C11H16N3O3S+
315.1484	158	C13H23N4O3S+
