Mass spectrum: Neotame; LC-ESI-ITFT; MS2; CE: 30%; R=15000; [M-H]-
Name: Neotame
Name: (3S)-3-(3,3-dimethylbutylamino)-4-[[(2S)-1-methoxy-1-oxidanylidene-3-phenyl-propan-2-yl]amino]-4-oxidanylidene-butanoic acid
Formula: C20H30N2O5
Exact mass: 378.2155
SMILES: CC(C)(C)CCN[C@@H](CC(=O)O)C(=O)N[C@@H](CC1=CC=CC=C1)C(=O)OC
InChI: InChI=1S/C20H30N2O5/c1-20(2,3)10-11-21-15(13-17(23)24)18(25)22-16(19(26)27-4)12-14-8-6-5-7-9-14/h5-9,15-16,21H,10-13H2,1-4H3,(H,22,25)(H,23,24)/t15-,16-/m0/s1
Instrument: LTQ Orbitrap XL Thermo Scientific
Instrument type: LC-ESI-ITFT
Ms type: MS2
Ion mode: NEGATIVE
Ionization: ESI
Fragmentation mode: HCD
Collision energy: 30 % (nominal)
Resolution: 15000
Column name: XBridge C18 3.5um, 2.1x50mm, Waters
Retention time: 9.0 min
Base peak: 377.2074
Precursor m/z: 377.2082
Precursor type: [M-H]-
m/z	relative intensity	assigned
118.0667	16	C8H8N-
126.1289	48	C8H16N-
174.0559	69	C10H8NO2-
182.1193	38	C10H16NO2-
197.1287	30	C10H17N2O2-
200.0718	999	C12H10NO2-
230.1552	238	C15H20NO-
257.2023	170	C17H25N2-
283.1814	62	C18H23N2O-
285.1611	129	C17H21N2O2-
301.1923	377	C18H25N2O2-
317.187	125	C18H25N2O3-
327.1717	127	C19H23N2O3-
345.1823	111	C19H25N2O4-
359.1975	174	C20H27N2O4-
377.2084	203	C20H29N2O5-
