Mass spectrum: Oxypurinol; LC-ESI-QFT; MS2; CE: 150%; R=15000; [M-H]-
Name: Oxypurinol
Name: 1,2-dihydropyrazolo[3,4-d]pyrimidine-4,6-dione
Formula: C5H4N4O2
Exact mass: 152.0334
SMILES: C1=C2C(=NC(=O)NC2=O)NN1
InChI: InChI=1S/C5H4N4O2/c10-4-2-1-6-9-3(2)7-5(11)8-4/h1H,(H3,6,7,8,9,10,11)
Instrument: Orbitrap Exploris 240 Thermo Scientific
Instrument type: LC-ESI-QFT
Ms type: MS2
Ion mode: NEGATIVE
Ionization: ESI
Fragmentation mode: HCD
Collision energy: 150 % (nominal)
Resolution: 15000
Column name: Atlantis C18 3um, 3.0x150mm, Waters
Retention time: 8.004 min
Base peak: 151.0261
Precursor m/z: 151.0261
Precursor type: [M-H]-
Precursor intensity: 60627600
m/z	relative intensity	assigned
40.0193	22	C2H2N-
41.0145	19	CHN2-
41.9985	999	CNO-
50.0035	18	C3N-
52.0193	53	C3H2N-
64.0065	5	C3N2-
65.0145	30	C3HN2-
65.9986	83	C3NO-
