Mass spectrum: N4-Acetylsulfadimethoxine; LC-ESI-ITFT; MS2; CE: 75%; R=15000; [M+H]+
Name: N4-Acetylsulfadimethoxine
Name: N-[4-[(4,6-dimethoxy-2-pyrimidinyl)sulfamoyl]phenyl]acetamide
Formula: C14H16N4O5S
Exact mass: 352.0841
SMILES: C(C)(=O)Nc1ccc(cc1)S(=O)(=O)Nc1nc(cc(n1)OC)OC
InChI: InChI=1S/C14H16N4O5S/c1-9(19)15-10-4-6-11(7-5-10)24(20,21)18-14-16-12(22-2)8-13(17-14)23-3/h4-8H,1-3H3,(H,15,19)(H,16,17,18)
Instrument: LTQ Orbitrap XL Thermo Scientific
Instrument type: LC-ESI-ITFT
Ms type: MS2
Ion mode: POSITIVE
Ionization: ESI
Fragmentation mode: HCD
Collision energy: 75 % (nominal)
Resolution: 15000
Column name: XBridge C18 3.5um, 2.1x50mm, Waters
Retention time: 6.3 min
Base peak: 353.0926
Precursor m/z: 353.0914
Precursor type: [M+H]+
m/z	relative intensity	assigned
57.0447	12	C2H5N2+
58.029	7	C2H4NO+
65.0386	808	C5H5+
67.0291	52	C3H3N2+
69.0447	22	C3H5N2+
72.0446	12	C3H6NO+
79.0542	30	C6H7+
81.0448	37	C4H5N2+
82.0288	17	C4H4NO+
84.0319	31	C3H4N2O+
85.0395	22	C3H5N2O+
86.0238	11	C3H4NO2+
92.0495	142	C6H6N+
93.0335	63	C6H5O+
93.0573	30	C6H7N+
94.065	10	C6H8N+
95.0242	9	C4H3N2O+
95.0478	10	C4H5N3+
96.0555	31	C4H6N3+
97.0636	23	C4H7N3+
98.0477	11	C4H6N2O+
98.0711	16	C4H8N3+
99.019	17	C3H3N2O2+
99.0554	36	C4H7N2O+
106.0652	59	C7H8N+
108.0444	524	C6H6NO+
109.0397	36	C5H5N2O+
110.0349	136	C4H4N3O+
110.0601	16	C6H8NO+
111.0189	16	C4H3N2O2+
111.0555	16	C5H7N2O+
116.0499	10	C8H6N+
124.0505	28	C5H6N3O+
125.0584	132	C5H7N3O+
126.0662	175	C5H8N3O+
127.0379	10	C4H5N3O2+
127.0502	45	C5H7N2O2+
134.06	480	C8H8NO+
139.0375	10	C5H5N3O2+
140.0454	65	C5H6N3O2+
141.0532	86	C5H7N3O2+
145.0627	10	C8H7N3+
154.0611	999	C6H8N3O2+
155.0689	58	C6H9N3O2+
156.0767	262	C6H10N3O2+
157.0482	146	C5H7N3O3+
162.0665	11	C8H8N3O+
164.0705	30	C9H10NO2+
172.0504	25	C9H6N3O+
172.0749	15	C3H14N3O3S+
173.0584	219	C9H7N3O+
173.0816	11	C9H9N4+
230.0803	16	C5H16N3O5S+
