Mass spectrum: Paichongding; LC-ESI-QFT; MS2; CE: 150%; R=17500; [M+H]+
Name: Paichongding
Name: 1-[(6-chloropyridin-3-yl)methyl]-7-methyl-8-nitro-5-propoxy-3,5,6,7-tetrahydro-2H-imidazo[1,2-a]pyridine
Formula: C17H23ClN4O3
Exact mass: 366.1459
SMILES: CCCOC1CC(C(=C2N1CCN2CC3=CN=C(C=C3)Cl)[N+](=O)[O-])C
InChI: InChI=1S/C17H23ClN4O3/c1-3-8-25-15-9-12(2)16(22(23)24)17-20(6-7-21(15)17)11-13-4-5-14(18)19-10-13/h4-5,10,12,15H,3,6-9,11H2,1-2H3
Instrument: Exploris 240 Orbitrap Thermo Scientific
Instrument type: LC-ESI-QFT
Ms type: MS2
Ion mode: POSITIVE
Ionization: ESI
Fragmentation mode: HCD
Collision energy: 150 % (nominal)
Resolution: 17500
Column name: XBridge C18 3.5um, 2.1x50mm, Waters
Retention time: 5.460 min
Base peak: 367.1531
Precursor m/z: 367.1531
Precursor type: [M+H]+
m/z	relative intensity	assigned
51.0229	21	C4H3+
53.0386	68	C4H5+
54.0337	34	C3H4N+
55.0415	17	C3H5N+
56.0495	214	C3H6N+
63.0229	331	C5H3+
64.0182	46	C4H2N+
65.0385	60	C5H5+
67.0416	51	C4H5N+
67.0542	17	C5H7+
68.0494	93	C4H6N+
71.0492	35	C4H7O+
72.9839	801	C3H2Cl+
77.0388	22	C6H5+
78.0337	178	C5H4N+
80.0494	118	C5H6N+
81.0447	34	C4H5N2+
82.0526	53	C4H6N2+
82.0653	36	C5H8N+
84.0681	56	C4H8N2+
90.0338	854	C6H4N+
91.0417	234	C6H5N+
94.0654	43	C6H8N+
96.0443	67	C5H6NO+
98.9996	999	C5H4Cl+
107.0605	50	C6H7N2+
108.0684	47	C6H8N2+
109.076	101	C6H9N2+
117.057	36	C8H7N+
119.0603	173	C7H7N2+
121.076	190	C7H9N2+
126.0105	550	C6H5ClN+
144.0212	25	C6H7ClNO+
