Mass spectrum: LSD; LC-ESI-QFT; MS2; CE: 120; R=35000; [M+H]+
Name: LSD
Name: D-Lysergic acid N,N-diethylamide
Name: N,N-diethyl-7-methyl-6,6a,8,9-tetrahydro-4H-indolo[4,3-fg]quinoline-9-carboxamide
Formula: C20H25N3O
Exact mass: 323.19976
SMILES: CCN(CC)C(=O)C1CN(C2CC3=CNC4=CC=CC(=C34)C2=C1)C
InChI: InChI=1S/C20H25N3O/c1-4-23(5-2)20(24)14-9-16-15-7-6-8-17-19(15)13(11-21-17)10-18(16)22(3)12-14/h6-9,11,14,18,21H,4-5,10,12H2,1-3H3
Instrument: Q Exactive Plus Orbitrap Thermo Scientific
Instrument type: LC-ESI-QFT
Ms type: MS2
Ion mode: POSITIVE
Ionization: ESI
Fragmentation mode: HCD
Collision energy: 120 (nominal)
Resolution: 35000
Column name: XBridge C18 3.5um, 2.1x50mm, Waters
Retention time: 5.6 min
Base peak: 324.2062
Precursor m/z: 324.207
Precursor type: [M+H]+
m/z	relative intensity	assigned
51.0228	1	C4H3+
54.0338	4	C3H4N+
55.0179	14	C3H3O+
55.0542	1	C4H7+
56.0495	10	C3H6N+
63.0228	2	C5H3+
68.0494	2	C4H6N+
70.0651	3	C4H8N+
72.0443	11	C3H6NO+
72.0808	4	C4H10N+
74.0964	23	C4H12N+
77.0385	3	C6H5+
86.0964	1	C5H12N+
89.0384	1	C7H5+
91.0543	1	C7H7+
94.065	1	C6H8N+
95.0491	3	C6H7O+
103.0542	8	C8H7+
105.0447	3	C6H5N2+
115.0542	48	C9H7+
116.062	8	C9H8+
117.0573	7	C8H7N+
126.0465	11	C10H6+
127.0542	27	C10H7+
128.062	44	C10H8+
129.0573	1	C9H7N+
129.0698	22	C10H9+
130.0652	12	C9H8N+
139.0542	98	C11H7+
140.0499	10	C10H6N+
140.062	77	C11H8+
141.0574	4	C10H7N+
141.0699	19	C11H9+
142.0653	3	C10H8N+
143.0726	1	C10H9N+
144.0573	2	C10H8O+
145.0648	28	C10H9O+
150.0466	8	C12H6+
151.0542	40	C12H7+
152.062	999	C12H8+
153.0573	34	C11H7N+
153.0699	356	C12H9+
154.0651	161	C11H8N+
155.0603	81	C10H7N2+
155.0729	16	C11H9N+
156.0572	1	C11H8O+
156.0808	6	C11H10N+
163.0542	60	C13H7+
164.062	160	C13H8+
165.0699	144	C13H9+
166.0651	110	C12H8N+
167.0729	180	C12H9N+
168.0569	63	C12H8O+
168.0807	16	C12H10N+
169.0648	83	C12H9O+
170.0599	8	C11H8NO+
171.0804	6	C12H11O+
172.0519	4	C11H8O2+
176.0617	1	C14H8+
177.0571	4	C13H7N+
177.07	1	C14H9+
178.0651	215	C13H8N+
179.0605	59	C12H7N2+
179.0728	79	C13H9N+
180.057	69	C13H8O+
180.0807	280	C13H10N+
181.0648	20	C13H9O+
181.076	50	C12H9N2+
181.0882	24	C13H11N+
182.0839	23	C12H10N2+
182.0966	2	C13H12N+
183.0683	1	C12H9NO+
184.0519	20	C12H8O2+
184.0755	12	C12H10NO+
185.0471	7	C11H7NO2+
189.0575	4	C14H7N+
190.0651	49	C14H8N+
191.0729	140	C14H9N+
192.0681	60	C13H8N2+
192.0807	60	C14H10N+
193.0761	62	C13H9N2+
193.0886	8	C14H11N+
194.0603	3	C13H8NO+
194.0837	3	C13H10N2+
194.0965	43	C14H12N+
195.0922	2	C13H11N2+
195.1042	2	C14H13N+
196.0519	17	C13H8O2+
196.0758	1	C13H10NO+
198.0913	5	C13H12NO+
204.0811	2	C15H10N+
205.0761	77	C14H9N2+
206.0602	20	C14H8NO+
206.0839	120	C14H10N2+
207.0683	44	C14H9NO+
207.0917	344	C14H11N2+
208.0759	1	C14H10NO+
208.0998	9	C14H12N2+
211.0628	4	C13H9NO2+
212.0465	10	C11H6N3O2+
219.0917	4	C15H11N2+
220.0995	11	C15H12N2+
221.1073	20	C15H13N2+
223.1232	2	C15H15N2+
