Mass spectrum: Metalaxyl-M-TP CGA108906; LC-ESI-QFT; MS2; CE: 180%; R=17500; [M+H]+
Name: Metalaxyl-M-TP CGA108906
Name: 2-[1-carboxyethyl-(2-methoxyacetyl)amino]-3-methylbenzoic acid
Formula: C14H17NO6
Exact mass: 295.1056
SMILES: COCC(=O)N(C(C)C(O)=O)C1=C(C=CC=C1C)C(O)=O
InChI: InChI=1S/C14H17NO6/c1-8-5-4-6-10(14(19)20)12(8)15(9(2)13(17)18)11(16)7-21-3/h4-6,9H,7H2,1-3H3,(H,17,18)(H,19,20)
Instrument: Q Exactive Plus Orbitrap Thermo Scientific
Instrument type: LC-ESI-QFT
Ms type: MS2
Ion mode: POSITIVE
Ionization: ESI
Fragmentation mode: HCD
Collision energy: 180 % (nominal)
Resolution: 17500
Column name: XBridge C18 3.5um, 2.1x50mm, Waters
Retention time: 5.723 min
Base peak: 296.1129
Precursor m/z: 296.1129
Precursor type: [M+H]+
m/z	relative intensity	assigned
50.0151	42	C4H2+
51.023	131	C4H3+
53.0022	49	C3HO+
53.0386	27	C4H5+
62.0152	38	C5H2+
63.0229	206	C5H3+
64.0307	30	C5H4+
65.0386	999	C5H5+
66.0463	11	C5H6+
67.6591	57	
75.0228	13	C6H3+
77.0385	26	C6H5+
89.0386	387	C7H5+
90.0464	85	C7H6+
91.0543	177	C7H7+
95.049	83	C6H7O+
102.0465	11	C8H6+
103.0543	20	C8H7+
104.0495	16	C7H6N+
105.0448	38	
115.0543	28	C9H7+
116.0497	15	C8H6N+
117.0574	37	C8H7N+
130.0654	39	C9H8N+
