Mass spectrum: Triphenyl phosphate (TPP); LC-ESI-QFT; MS2; CE: 120; R=35000; [M+H]+
Name: Triphenyl phosphate (TPP)
Name: Triphenyl phosphate
Name: Triphenoxyphosphine oxide
Formula: C18H15O4P
Exact mass: 326.07080
SMILES: C1=CC=C(C=C1)OP(=O)(OC2=CC=CC=C2)OC3=CC=CC=C3
InChI: InChI=1S/C18H15O4P/c19-23(20-16-10-4-1-5-11-16,21-17-12-6-2-7-13-17)22-18-14-8-3-9-15-18/h1-15H
Instrument: Q Exactive Plus Orbitrap Thermo Scientific
Instrument type: LC-ESI-QFT
Ms type: MS2
Ion mode: POSITIVE
Ionization: ESI
Fragmentation mode: HCD
Collision energy: 120 (nominal)
Resolution: 35000
Column name: XBridge C18 3.5um, 2.1x50mm, Waters
Retention time: 13.1 min
Base peak: 327.0775
Precursor m/z: 327.0781
Precursor type: [M+H]+
m/z	relative intensity	assigned
50.0152	273	C4H2+
51.023	187	C4H3+
53.0386	129	C4H5+
55.0179	8	C3H3O+
56.9888	4	C2H2P+
63.023	2	C5H3+
65.0022	24	C4HO+
65.0386	50	C5H5+
66.01	4	C4H2O+
66.0464	3	C5H6+
67.0543	3	C5H7+
68.9971	1	C3HO2+
74.0151	4	C6H2+
75.0229	13	C6H3+
76.0307	3	C6H4+
77.0386	477	C6H5+
78.0464	14	C6H6+
81.0335	15	C5H5O+
89.0385	1	C7H5+
90.0466	1	C7H6+
91.0543	3	C7H7+
92.0257	22	C6H4O+
94.0414	15	C6H6O+
95.0492	399	C6H7O+
98.9842	15	H4O4P+
99.023	2	C8H3+
101.0153	2	C4H6OP+
101.0387	3	C8H5+
102.0464	28	C8H6+
103.0542	4	C8H7+
105.0448	275	C6H5N2+
106.0419	2	C3H9NOP+
107.0046	2	C6H4P+
109.065	1	C7H9O+
114.0465	3	C9H6+
115.0543	52	C9H7+
118.0413	2	C8H6O+
119.0493	2	C8H7O+
125.0386	15	C10H5+
126.0465	77	C10H6+
127.0543	37	C10H7+
128.0621	7	C10H8+
129.0448	8	C8H5N2+
133.0202	24	C8H6P+
138.9946	9	C6H4O2P+
139.0543	169	C11H7+
140.0621	26	C11H8+
141.0699	14	C11H9+
143.0494	2	C10H7O+
145.0648	13	C10H9O+
149.0387	2	C12H5+
150.0465	113	C12H6+
151.0543	98	C12H7+
152.0621	999	C12H8+
153.0701	2	C12H9+
155.0604	36	C10H7N2+
157.0054	1	C6H6O3P+
157.0203	5	C10H6P+
159.0359	2	C10H8P+
168.0571	204	C12H8O+
169.0649	190	C12H9O+
175.0155	2	C6H8O4P+
179.0605	82	C12H7N2+
183.0805	2	C13H11O+
186.0232	6	C11H7OP+
187.0309	2	C11H8OP+
189.0699	3	C15H9+
200.0623	8	C16H8+
201.0698	9	C16H9+
202.0778	25	C16H10+
205.0649	2	C15H9O+
213.0701	5	C17H9+
215.0858	4	C17H11+
219.0804	2	C16H11O+
224.0622	2	C18H8+
225.0701	4	C18H9+
226.0779	125	C18H10+
227.086	4	C18H11+
228.0933	1	C18H12+
243.0809	2	C18H11O+
