Mass spectrum: Triallate; LC-ESI-QFT; MS2; CE: 45; R=35000; [M+H]+
Name: Triallate
Name: S-(2,3,3-trichloroprop-2-enyl) N,N-di(propan-2-yl)carbamothioate
Formula: C10H16Cl3NOS
Exact mass: 303.00182
SMILES: CC(C)N(C(C)C)C(=O)SCC(=C(Cl)Cl)Cl
InChI: InChI=1S/C10H16Cl3NOS/c1-6(2)14(7(3)4)10(15)16-5-8(11)9(12)13/h6-7H,5H2,1-4H3
Instrument: Q Exactive Plus Orbitrap Thermo Scientific
Instrument type: LC-ESI-QFT
Ms type: MS2
Ion mode: POSITIVE
Ionization: ESI
Fragmentation mode: HCD
Collision energy: 45 (nominal)
Resolution: 35000
Column name: XBridge C18 3.5um, 2.1x50mm, Waters
Retention time: 15.9 min
Base peak: 279.1584
Precursor m/z: 304.0091
Precursor type: [M+H]+
m/z	relative intensity	assigned
53.0022	12	C3HO+
53.9975	3	C2NO+
55.0542	2	C4H7+
57.0698	1	C4H9+
58.0651	17	C3H8N+
69.0699	20	C5H9+
71.0854	1	C5H11+
72.9838	1	C3H2Cl+
78.9404	2	CClS+
80.0494	1	C5H6N+
80.956	2	CH2ClS+
82.9449	49	CHCl2+
86.06	385	C4H8NO+
88.0757	1	C4H10NO+
91.0542	8	C7H7+
96.9606	4	C2H3Cl2+
104.956	4	C3H2ClS+
111.1168	14	C8H15+
113.0597	1	C6H9O2+
118.0321	15	C4H8NOS+
128.107	19	C7H14NO+
140.9327	132	C3H3Cl2S+
142.9217	999	C3H2Cl3+
159.9483	1	C3H5Cl3N+
160.0791	9	C7H14NOS+
176.9094	10	C3H4Cl3S+
201.9044	1	C4H3Cl3NS+
219.9152	3	C4H5Cl3NOS+
261.9622	12	C7H11Cl3NOS+
304.0096	3	C10H17Cl3NOS+
