Mass spectrum: Ethiofencarb Sulfoxide; LC-ESI-QFT; MS2; CE: 180%; R=17500; [M+H]+
Name: Ethiofencarb Sulfoxide
Name: 2-(Ethylsulfinylmethyl)phenyl methylcarbamate
Name: [2-(ethylsulfinylmethyl)phenyl] N-methylcarbamate
Formula: C11H15NO3S
Exact mass: 241.0773
SMILES: CCS(=O)CC1=CC=CC=C1OC(=O)NC
InChI: InChI=1S/C11H15NO3S/c1-3-16(14)8-9-6-4-5-7-10(9)15-11(13)12-2/h4-7H,3,8H2,1-2H3,(H,12,13)
Instrument: Exploris 240 Orbitrap Thermo Scientific
Instrument type: LC-ESI-QFT
Ms type: MS2
Ion mode: POSITIVE
Ionization: ESI
Fragmentation mode: HCD
Collision energy: 180 % (nominal)
Resolution: 17500
Column name: XBridge C18 3.5um, 2.1x50mm, Waters
Retention time: 3.584 min
Base peak: 242.0845
Precursor m/z: 242.0845
Precursor type: [M+H]+
m/z	relative intensity	assigned
50.0151	139	C4H2+
51.0229	999	C4H3+
53.0386	294	C4H5+
55.0179	17	C3H3O+
58.0287	46	C2H4NO+
77.0386	867	C6H5+
78.0466	15	C6H6+
79.0543	83	C6H7+
81.0334	23	C5H5O+
94.0416	27	C6H6O+
95.0491	248	C6H7O+
