Mass spectrum: N-Desmethyltramadol; LC-ESI-QFT; MS2; CE: 120; R=35000; [M+H]+
Name: N-Desmethyltramadol
Name: N-demethyltramadol
Name: 1-(3-methoxyphenyl)-2-(methylaminomethyl)cyclohexan-1-ol
Formula: C15H23NO2
Exact mass: 249.17288
SMILES: CNCC1CCCCC1(c2cccc(c2)OC)O
InChI: InChI=1S/C15H23NO2/c1-16-11-13-6-3-4-9-15(13,17)12-7-5-8-14(10-12)18-2/h5,7-8,10,13,16-17H,3-4,6,9,11H2,1-2H3
Instrument: Q Exactive Plus Orbitrap Thermo Scientific
Instrument type: LC-ESI-QFT
Ms type: MS2
Ion mode: POSITIVE
Ionization: ESI
Fragmentation mode: HCD
Collision energy: 120 (nominal)
Resolution: 35000
Column name: XBridge C18 3.5um, 2.1x50mm, Waters
Retention time: 5.2 min
Base peak: 250.1799
Precursor m/z: 250.1802
Precursor type: [M+H]+
m/z	relative intensity	assigned
53.0385	79	C4H5+
65.0385	435	C5H5+
70.0651	87	C4H8N+
77.0385	126	C6H5+
78.0463	454	C6H6+
79.054	109	
91.0543	999	C7H7+
95.0491	358	C6H7O+
103.0542	90	C8H7+
105.0445	106	C6H5N2+
115.0542	468	C9H7+
116.0619	135	C9H8+
121.0648	319	C8H9O+
128.0619	259	C10H8+
129.0696	110	
144.0567	63	C10H8O+
