Mass spectrum: 4-Isopropylaniline; LC-ESI-ITFT; MS2; CE: 60%; R=15000; [M+H]+
Name: 4-Isopropylaniline
Name: 4-propan-2-ylaniline
Formula: C9H13N
Exact mass: 135.1048
SMILES: c1(C(C)C)ccc(N)cc1
InChI: InChI=1S/C9H13N/c1-7(2)8-3-5-9(10)6-4-8/h3-7H,10H2,1-2H3
Instrument: LTQ Orbitrap XL Thermo Scientific
Instrument type: LC-ESI-ITFT
Ms type: MS2
Ion mode: POSITIVE
Ionization: ESI
Fragmentation mode: HCD
Collision energy: 60 % (nominal)
Resolution: 15000
Column name: XBridge C18 3.5um, 2.1x50mm, Waters
Retention time: 5.2 min
Base peak: 136.112
Precursor m/z: 136.1121
Precursor type: [M+H]+
m/z	relative intensity	assigned
77.0385	2	C6H5+
79.0541	2	C6H7+
91.0541	37	C7H7+
93.0571	2	C6H7N+
94.0651	341	C6H8N+
103.0544	2	C8H7+
117.0698	8	C9H9+
119.0855	5	C9H11+
120.0803	4	C8H10N+
121.0884	23	C8H11N+
136.112	999	C9H14N+
147.0915	23	C9H11N2+
