Mass spectrum: Atenolol acid; LC-ESI-ITFT; MS2; CE: 60%; R=15000; [M+H]+
Name: Atenolol acid
Name: Metoprolol acid
Name: 4-(2-Hydroxy-3-((1-methylethyl)amino)propoxy)benzeneacetic acid
Formula: C14H21NO4
Exact mass: 267.1471
SMILES: CC(C)NCC(O)COc1ccc(cc1)CC(=O)O
InChI: InChI=1S/C14H21NO4/c1-10(2)15-8-12(16)9-19-13-5-3-11(4-6-13)7-14(17)18/h3-6,10,12,15-16H,7-9H2,1-2H3,(H,17,18)
Instrument: LTQ Orbitrap XL Thermo Scientific
Instrument type: LC-ESI-ITFT
Ms type: MS2
Ion mode: POSITIVE
Ionization: ESI
Fragmentation mode: HCD
Collision energy: 60 % (nominal)
Resolution: 15000
Column name: XBridge C18 3.5um, 2.1x50mm, Waters
Retention time: 3.8 min
Base peak: 268.1553
Precursor m/z: 268.1543
Precursor type: [M+H]+
m/z	relative intensity	assigned
56.0495	205	C3H6N+
58.0651	23	C3H8N+
67.0543	5	C5H7+
72.0808	170	C4H10N+
74.0601	188	C3H8NO+
79.0542	32	C6H7+
81.0698	10	C6H9+
84.0808	9	C5H10N+
89.0386	9	C7H5+
91.0542	119	C7H7+
93.0699	8	C7H9+
95.0492	36	C6H7O+
98.0964	137	C6H12N+
100.1121	20	C6H14N+
105.0698	10	C8H9+
107.0491	45	C7H7O+
109.0648	51	C7H9O+
116.107	130	C6H14NO+
117.0698	39	C9H9+
119.0491	98	C8H7O+
121.0647	5	C8H9O+
123.044	35	C7H7O2+
133.0648	23	C9H9O+
135.0439	12	C8H7O2+
137.0597	84	C8H9O2+
145.0649	999	C10H9O+
147.0444	6	C9H7O2+
162.0915	13	C10H12NO+
163.0502	124	C8H7N2O2+
163.0754	37	C10H11O2+
165.0547	234	C9H9O3+
179.0699	10	C10H11O3+
191.0702	252	C11H11O3+
226.1072	30	C11H16NO4+
268.1549	34	C14H22NO4+
