Mass spectrum: Rosuvastatin; LC-ESI-ITFT; MS2; CE: 75%; R=15000; [M+H]+
Name: Rosuvastatin
Name: (E,3R,5S)-7-[4-(4-fluorophenyl)-2-[methyl(methylsulfonyl)amino]-6-propan-2-ylpyrimidin-5-yl]-3,5-dihydroxyhept-6-enoic acid
Formula: C22H28FN3O6S
Exact mass: 481.16828
SMILES: CC(C)C1=NC(=NC(=C1/C=C/[C@H](C[C@H](CC(=O)O)O)O)C2=CC=C(C=C2)F)N(C)S(=O)(=O)C
InChI: InChI=1S/C22H28FN3O6S/c1-13(2)20-18(10-9-16(27)11-17(28)12-19(29)30)21(14-5-7-15(23)8-6-14)25-22(24-20)26(3)33(4,31)32/h5-10,13,16-17,27-28H,11-12H2,1-4H3,(H,29,30)/b10-9+/t16-,17-/m1/s1
Instrument: LTQ Orbitrap XL Thermo Scientific
Instrument type: LC-ESI-ITFT
Ms type: MS2
Ion mode: POSITIVE
Ionization: ESI
Fragmentation mode: HCD
Collision energy: 75 % (nominal)
Resolution: 15000
Column name: XBridge C18 3.5um, 2.1x50mm, Waters
Retention time: 9.2 min
Base peak: 482.1762
Precursor m/z: 482.1756
Precursor type: [M+H]+
m/z	relative intensity	assigned
108.0809	72	C7H10N+
109.0761	64	C6H9N2+
122.04	162	C7H5FN+
133.0447	798	C9H6F+
148.0556	88	C9H7FN+
149.1072	141	C9H13N2+
160.0554	100	C7H12O2S+
174.0711	130	C11H9FN+
186.058	58	C11H7FN2+
186.0713	76	C4H13FN3O2S+
187.079	68	C12H10FN+
189.0824	273	C11H10FN2+
189.9753	55	C9HFNOS+
198.0709	74	C10H14O2S+
200.0867	153	C10H16O2S+
201.0826	160	C12H10FN2+
203.0977	197	C12H12FN2+
214.1024	295	C14H13FN+
216.0934	131	C17H12+
217.1009	156	C12H12FN3+
226.0895	101	C11H16NO2S+
227.0977	184	C11H17NO2S+
228.0927	259	C10H16N2O2S+
229.1131	93	C11H19NO2S+
230.109	279	C18H14+
238.0893	71	C12H16NO2S+
239.0957	92	C12H14FNO3+
241.1004	143	C11H17N2O2S+
242.1086	872	C14H13FN3+
243.1162	185	C11H19N2O2S+
244.1116	75	C18H14N+
244.1251	72	C8H21FN2O3S+
254.1087	481	C12H18N2O2S+
255.1165	379	C9H20FN2O3S+
256.1243	999	C15H15FN3+
257.132	122	C12H21N2O2S+
258.1399	606	C12H22N2O2S+
268.1248	267	C16H15FN3+
270.1398	468	C13H22N2O2S+
272.1557	333	C16H19FN3+
282.1394	107	C14H22N2O2S+
300.1494	148	C17H19FN3O+
