Mass spectrum: 7-amino-flunitrazepam; LC-ESI-QFT; MS2; CE: 45; R=35000; [M+H]+
Name: 7-amino-flunitrazepam
Name: 7-aminoflunitrazepam
Name: 7-amino-5-(2-fluorophenyl)-1-methyl-3H-1,4-benzodiazepin-2-one
Formula: C16H14FN3O
Exact mass: 283.11209
SMILES: CN1C(=O)CN=C(C2=C1C=CC(=C2)N)C3=CC=CC=C3F
InChI: InChI=1S/C16H14FN3O/c1-20-14-7-6-10(18)8-12(14)16(19-9-15(20)21)11-4-2-3-5-13(11)17/h2-8H,9,18H2,1H3
Instrument: Q Exactive Plus Orbitrap Thermo Scientific
Instrument type: LC-ESI-QFT
Ms type: MS2
Ion mode: POSITIVE
Ionization: ESI
Fragmentation mode: HCD
Collision energy: 45 (nominal)
Resolution: 35000
Column name: XBridge C18 3.5um, 2.1x50mm, Waters
Retention time: 4.9 min
Base peak: 284.1182
Precursor m/z: 284.1194
Precursor type: [M+H]+
m/z	relative intensity	assigned
93.0571	1	C6H7N+
94.0649	4	C6H8N+
106.0649	5	C7H8N+
107.0728	2	C7H9N+
108.0806	2	C7H10N+
109.0446	3	C7H6F+
120.0443	1	C7H6NO+
120.068	1	C7H8N2+
121.0759	5	C7H9N2+
122.0399	7	C7H5FN+
123.0238	57	C7H4FO+
124.0556	1	C7H7FN+
131.0602	12	C8H7N2+
132.0442	6	C8H6NO+
132.0678	1	C8H8N2+
133.0758	7	C8H9N2+
134.0398	1	C8H5FN+
135.0914	465	C8H11N2+
136.0555	1	C8H7FN+
145.0757	2	C9H9N2+
146.0598	18	C9H8NO+
146.0709	4	C8H8N3+
146.0835	1	C9H10N2+
147.0789	7	C8H9N3+
148.0628	109	C8H8N2O+
149.0707	1	C8H9N2O+
160.0866	7	C9H10N3+
161.0707	47	C9H9N2O+
161.0943	7	C9H11N3+
162.0348	2	C9H5FNO+
163.0863	109	C9H11N2O+
180.0804	3	C13H10N+
183.0599	1	C13H8F+
195.0912	8	C13H11N2+
198.0704	2	C13H9FN+
200.0867	2	C13H11FN+
206.0837	3	C14H10N2+
207.0914	35	C14H11N2+
208.0992	18	C14H12N2+
209.1072	5	C14H13N2+
210.0711	9	C14H9FN+
211.0789	6	C14H10FN+
214.0661	1	C13H9FNO+
215.0976	25	C13H12FN2+
219.0912	5	C15H11N2+
220.0863	1	C14H10N3+
220.099	1	C15H12N2+
221.0946	2	C14H11N3+
225.0819	13	C14H10FN2+
226.0897	84	C14H11FN2+
227.0976	267	C14H12FN2+
229.1132	10	C14H14FN2+
234.1025	1	C15H12N3+
236.1179	115	C15H14N3+
237.1018	1	C15H13N2O+
239.0974	9	C15H12FN2+
240.0927	32	C14H11FN3+
240.1053	7	C15H13FN2+
241.1006	29	C14H12FN3+
242.1083	4	C14H13FN3+
247.0865	1	C16H11N2O+
249.0894	1	C15H11N3O+
253.0766	1	C15H10FN2O+
254.1083	37	C15H13FN3+
255.0926	6	C15H12FN2O+
255.1161	6	C15H14FN3+
256.124	235	C15H15FN3+
257.1078	1	C15H14FN2O+
264.1127	96	C16H14N3O+
268.0873	1	C15H11FN3O+
269.0955	9	C15H12FN3O+
284.1188	999	C16H15FN3O+
