Mass spectrum: Nilotinib; LC-ESI-QFT; MS2; CE: 90; R=35000; [M-H]-
Name: Nilotinib
Name: 4-methyl-N-(3-(4-methylimidazol-1-yl)-5-(trifluoromethyl)phenyl)-3-((4-pyridin-3-ylpyrimidin-2-yl)amino)benzamide
Formula: C28H22F3N7O
Exact mass: 529.18379
SMILES: CC1=C(C=C(C=C1)C(=O)NC2=CC(=CC(=C2)N3C=C(N=C3)C)C(F)(F)F)NC4=NC=CC(=N4)C5=CN=CC=C5
InChI: InChI=1S/C28H22F3N7O/c1-17-5-6-19(10-25(17)37-27-33-9-7-24(36-27)20-4-3-8-32-14-20)26(39)35-22-11-21(28(29,30)31)12-23(13-22)38-15-18(2)34-16-38/h3-16H,1-2H3,(H,35,39)(H,33,36,37)
Instrument: Q Exactive Plus Orbitrap Thermo Scientific
Instrument type: LC-ESI-QFT
Ms type: MS2
Ion mode: NEGATIVE
Ionization: ESI
Fragmentation mode: HCD
Collision energy: 90 (nominal)
Resolution: 35000
Column name: XBridge C18 3.5um, 2.1x50mm, Waters
Retention time: 8.5 min
Base peak: 528.1775
Precursor m/z: 528.1765
Precursor type: [M-H]-
m/z	relative intensity	assigned
50.0036	64	C3N-
52.0193	59	C3H2N-
64.0067	6	C3N2-
64.0192	11	C4H2N-
65.0145	115	C3HN2-
65.9985	44	C3NO-
67.0302	99	C3H3N2-
68.9959	68	CF3-
74.0037	34	C5N-
79.0302	75	C4H3N2-
81.0458	999	C4H5N2-
90.0352	6	C6H4N-
92.0255	131	C4H2N3-
98.0036	74	C7N-
100.0191	11	C2HFN4-
103.0302	96	C6H3N2-
105.0458	58	C6H5N2-
112.0067	12	C7N2-
115.0302	10	C7H3N2-
116.0507	116	C8H6N-
118.0099	73	C7HFN-
129.0583	11	C9H7N-
130.0171	9	C2HFN5O-
130.0409	9	C2H3FN6-
130.0538	11	C8H6N2-
130.0661	138	C9H8N-
131.0614	182	C8H7N2-
136.0196	11	C10H2N-
138.0162	13	C7H2F2N-
139.0304	9	C9H3N2-
141.0458	45	C9H5N2-
143.0048	15	C8FN2-
144.0566	118	C3H5FN6-
151.0301	100	C10H3N2-
153.0458	177	C10H5N2-
155.049	271	C9H5N3-
156.0256	28	C10H3FN-
157.0405	7	C4H4FN5O-
157.0767	14	C5H8FN5-
160.0379	109	C7H5F3N-
163.03	40	C6H2FN5-
169.0519	27	C9H5N4-
170.0718	8	C5H7FN6-
171.0365	88	C10H4FN2-
171.0676	707	C9H7N4-
175.0485	10	C7H6F3N2-
176.0313	27	C5H3F3N4-
177.0264	9	C4H2F3N5-
178.041	100	C11H4N3-
179.0248	28	C6H2FN5O-
179.0489	13	C11H5N3-
180.0567	69	C11H6N3-
183.0172	10	C8H2F3N2-
183.0363	26	C11H4FN2-
185.0153	8	C10H2FN2O-
185.0332	128	C8H4F3N2-
186.0167	21	C6N7O-
187.0485	46	C8H6F3N2-
191.0427	30	C10H5F2N2-
193.0583	215	C10H7F2N2-
193.0769	49	C8H8FN5-
196.0382	15	C10H5F3N-
196.0511	7	C6H5FN6O-
198.0407	151	C9H5F3N2-
198.0483	12	C16H6-
199.0319	65	C11H4FN2O-
199.0489	7	C9H6F3N2-
200.0442	11	C13H6F2-
200.0635	11	C16H8-
211.0127	69	C9H2F3N2O-
211.049	78	C10H6F3N2-
212.0331	13	C10H5F3NO-
212.0569	11	C10H6N5O-
213.0646	210	C10H8F3N2-
218.0538	67	C16H7F-
219.0376	33	C11H5F2N2O-
220.0692	9	C11H8F2N3-
222.0419	10	C11H5F3N2-
223.0364	57	C15H5F2-
223.0486	33	C11H6F3N2-
224.0202	59	C10H3F3N2O-
236.0444	30	C16H6F2-
237.0274	10	C11H4F3N2O-
239.0437	28	C11H6F3N2O-
240.0754	246	C11H9F3N3-
241.0584	14	C11H8F3N2O-
259.0983	7	C11H10FN7-
266.0544	32	C12H7F3N3O-
