Mass spectrum: Difenacoum; LC-ESI-QFT; MS2; CE: 30%; R=17500; [M-H]-
Name: Difenacoum
Name: 4-hydroxy-3-[3-(4-phenylphenyl)-1,2,3,4-tetrahydronaphthalen-1-yl]chromen-2-one
Formula: C31H24O3
Exact mass: 444.1725
SMILES: C1C(CC2=CC=CC=C2C1C3=C(C4=CC=CC=C4OC3=O)O)C5=CC=C(C=C5)C6=CC=CC=C6
InChI: InChI=1S/C31H24O3/c32-30-26-12-6-7-13-28(26)34-31(33)29(30)27-19-24(18-23-10-4-5-11-25(23)27)22-16-14-21(15-17-22)20-8-2-1-3-9-20/h1-17,24,27,32H,18-19H2
Instrument: Exploris 240 Orbitrap Thermo Scientific
Instrument type: LC-ESI-QFT
Ms type: MS2
Ion mode: NEGATIVE
Ionization: ESI
Fragmentation mode: HCD
Collision energy: 30 % (nominal)
Resolution: 17500
Column name: XBridge C18 3.5um, 2.1x50mm, Waters
Retention time: 15.439 min
Base peak: 443.1649
Precursor m/z: 443.1653
Precursor type: [M-H]-
m/z	relative intensity	assigned
135.0452	4	C8H7O2-
187.0398	2	C11H7O3-
293.1342	5	C23H17-
399.1741	8	C30H23O-
443.1653	999	C31H23O3-
