Mass spectrum: Nornicotine; LC-ESI-QFT; MS2; CE: 120; R=35000; [M+H]+
Name: Nornicotine
Name: 3-pyrrolidin-2-ylpyridine
Formula: C9H12N2
Exact mass: 148.10005
SMILES: c1cc(cnc1)C2CCCN2
InChI: InChI=1S/C9H12N2/c1-3-8(7-10-5-1)9-4-2-6-11-9/h1,3,5,7,9,11H,2,4,6H2
Instrument: Q Exactive Plus Orbitrap Thermo Scientific
Instrument type: LC-ESI-QFT
Ms type: MS2
Ion mode: POSITIVE
Ionization: ESI
Fragmentation mode: HCD
Collision energy: 120 (nominal)
Resolution: 35000
Column name: XBridge C18 3.5um, 2.1x50mm, Waters
Retention time: 1.0 min
Base peak: 149.1072
Precursor m/z: 149.1073
Precursor type: [M+H]+
m/z	relative intensity	assigned
50.015	8	C4H2+
51.023	13	C4H3+
53.0386	102	C4H5+
54.0338	6	C3H4N+
65.0386	127	C5H5+
66.0464	19	C5H6+
67.0417	12	C4H5N+
68.0495	10	C4H6N+
70.0651	385	C4H8N+
77.0385	47	C6H5+
78.0338	42	C5H4N+
79.0416	12	C5H5N+
79.0542	29	C6H7+
80.0494	888	C5H6N+
81.0336	1	C5H5O+
89.0385	84	C7H5+
90.0464	225	C7H6+
91.0542	58	C7H7+
92.0495	108	C6H6N+
93.0573	64	C6H7N+
94.0652	4	C6H8N+
95.0491	75	C6H7O+
96.0444	71	C5H6NO+
102.0464	10	C8H6+
103.0542	161	C8H7+
104.0493	7	C7H6N+
105.0447	40	C6H5N2+
105.0699	10	C8H9+
106.0651	115	C7H8N+
110.0601	19	C6H8NO+
115.0542	55	C9H7+
116.0494	11	C8H6N+
117.0573	999	C8H7N+
118.0651	206	C8H8N+
120.081	12	C8H10N+
128.0494	11	C9H6N+
130.0652	539	C9H8N+
131.0729	18	C9H9N+
132.0809	10	C9H10N+
146.06	7	C9H8NO+
