Mass spectrum: Methiocarb-sulfoxide; LC-ESI-ITFT; MS2; CE: 15%; R=7500; [M+H]+
Name: Methiocarb-sulfoxide
Name: Mesurol sulfoxide
Name: (3,5-dimethyl-4-methylsulfinyl-phenyl) N-methylcarbamate
Formula: C11H15NO3S
Exact mass: 241.0773
SMILES: O=C(Oc1cc(c(c(c1)C)S(=O)C)C)NC
InChI: InChI=1S/C11H15NO3S/c1-7-5-9(15-11(13)12-3)6-8(2)10(7)16(4)14/h5-6H,1-4H3,(H,12,13)
Instrument: LTQ Orbitrap XL Thermo Scientific
Instrument type: LC-ESI-ITFT
Ms type: MS2
Ion mode: POSITIVE
Ionization: ESI
Fragmentation mode: HCD
Collision energy: 15 % (nominal)
Resolution: 7500
Column name: XBridge C18 3.5um, 2.1x50mm, Waters
Retention time: 4.9 min
Base peak: 242.0846
Precursor m/z: 242.0845
Precursor type: [M+H]+
m/z	relative intensity	assigned
122.0728	3	C8H10O+
168.0604	2	C9H12OS+
170.0382	3	C6H8N3OS+
185.0632	955	C9H13O2S+
242.0846	999	C11H16NO3S+
