Mass spectrum: Metolachlor morpholinone; LC-ESI-ITFT; MS2; CE: 60%; R=15000; [M+H]+
Name: Metolachlor morpholinone
Name: 4-(2-ethyl-6-methylphenyl)-5-methylmorpholin-3-one
Formula: C14H19NO2
Exact mass: 233.1416
SMILES: O=C2N(c1c(cccc1C)CC)C(C)COC2
InChI: InChI=1S/C14H19NO2/c1-4-12-7-5-6-10(2)14(12)15-11(3)8-17-9-13(15)16/h5-7,11H,4,8-9H2,1-3H3
Instrument: LTQ Orbitrap XL Thermo Scientific
Instrument type: LC-ESI-ITFT
Ms type: MS2
Ion mode: POSITIVE
Ionization: ESI
Fragmentation mode: HCD
Collision energy: 60 % (nominal)
Resolution: 15000
Column name: XBridge C18 3.5um, 2.1x50mm, Waters
Retention time: 8.2 min
Base peak: 234.1493
Precursor m/z: 234.1489
Precursor type: [M+H]+
m/z	relative intensity	assigned
59.0491	5	C3H7O+
70.0651	14	C4H8N+
91.0542	46	C7H7+
93.0699	34	C7H9+
99.0679	66	C5H9NO+
103.0542	13	C8H7+
105.0698	41	C8H9+
109.0648	13	C7H9O+
117.07	19	C9H9+
118.0652	60	C8H8N+
119.0729	16	C8H9N+
119.0855	133	C9H11+
120.0808	458	C8H10N+
129.07	4	C10H9+
130.0647	11	C9H8N+
131.073	15	C9H9N+
131.0856	17	C10H11+
132.0808	43	C9H10N+
133.0523	28	C8H7NO+
133.0887	35	C9H11N+
133.1012	11	C10H13+
134.0964	67	C9H12N+
135.1042	41	C9H13N+
136.1121	5	C9H14N+
143.0728	8	C10H9N+
144.0811	7	C10H10N+
145.0884	10	C10H11N+
146.0965	343	C10H12N+
147.0679	164	C9H9NO+
147.1043	32	C10H13N+
148.0757	421	C9H10NO+
148.1121	388	C10H14N+
149.096	8	C10H13O+
158.0964	62	C11H12N+
159.1041	6	C11H13N+
160.1121	343	C11H14N+
161.0836	22	C10H11NO+
162.0914	39	C10H12NO+
162.1281	5	C11H16N+
174.1277	21	C12H16N+
175.0991	8	C11H13NO+
175.1356	80	C12H17N+
176.107	59	C11H14NO+
176.1434	91	C12H18N+
177.115	5	C11H15NO+
186.1274	13	C13H16N+
187.0994	5	C12H13NO+
188.1434	40	C13H18N+
193.1095	9	C11H15NO2+
204.1381	5	C13H18NO+
205.1102	5	C12H15NO2+
206.1175	257	C12H16NO2+
234.1489	999	C14H20NO2+
