Mass spectrum: Losartan; LC-ESI-QFT; MS2; CE: 75; R=35000; [M-H]-
Name: Losartan
Name: [2-butyl-5-chloranyl-3-[[4-[2-(2H-1,2,3,4-tetrazol-5-yl)phenyl]phenyl]methyl]imidazol-4-yl]methanol
Formula: C22H23ClN6O
Exact mass: 421.15436
SMILES: Clc1nc(n(c1CO)Cc4ccc(c2ccccc2c3[nH]nnn3)cc4)CCCC
InChI: InChI=1S/C22H23ClN6O/c1-2-3-8-20-24-21(23)19(14-30)29(20)13-15-9-11-16(12-10-15)17-6-4-5-7-18(17)22-25-27-28-26-22/h4-7,9-12,30H,2-3,8,13-14H2,1H3,(H,25,26,27,28)
Instrument: Q Exactive Plus Orbitrap Thermo Scientific
Instrument type: LC-ESI-QFT
Ms type: MS2
Ion mode: NEGATIVE
Ionization: ESI
Fragmentation mode: HCD
Collision energy: 75 (nominal)
Resolution: 35000
Column name: XBridge C18 3.5um, 2.1x50mm, Waters
Retention time: 9.0 min
Base peak: 421.1545
Precursor m/z: 421.1549
Precursor type: [M-H]-
m/z	relative intensity	assigned
91.0302	3	C5H3N2-
93.0344	5	C6H5O-
100.991	2	C3H2ClN2-
113.999	244	C4H3ClN2-
115.007	1	C4H4ClN2-
117.0459	1	C7H5N2-
127.0068	999	C5H4ClN2-
140.0146	8	C6H5ClN2-
141.0223	1	C6H6ClN2-
141.994	11	C5H3ClN2O-
145.9888	8	C4H3ClN2O2-
155.0019	9	C6H4ClN2O-
155.0383	4	C7H8ClN2-
157.0537	245	C7H10ClN2-
164.0629	2	C13H8-
165.0708	14	C13H9-
178.0787	15	C14H10-
179.0866	55	C14H11-
180.058	1	C13H8O-
185.0487	6	C8H10ClN2O-
187.0643	23	C8H12ClN2O-
193.0657	25	C14H9O-
195.0814	2	C14H11O-
204.0819	1	C15H10N-
215.0613	6	C15H7N2-
216.0819	5	C16H10N-
228.0695	1	C16H8N2-
229.077	5	C16H9N2-
229.0887	1	C17H11N-
241.0767	4	C17H9N2-
242.0727	2	C16H8N3-
254.0852	2	C18H10N2-
255.093	3	C18H11N2-
277.0537	2	C17H10ClN2-
290.0616	1	C18H11ClN2-
291.0698	10	C18H12ClN2-
