Mass spectrum: Tributylphosphine oxide; LC-ESI-QFT; MS2; CE: 75; R=35000; [M+H]+
Name: Tributylphosphine oxide
Name: Tri-n-butylphosphine oxide
Formula: C12H27OP
Exact mass: 218.17995
SMILES: CCCCP(=O)(CCCC)CCCC
InChI: InChI=1S/C12H27OP/c1-4-7-10-14(13,11-8-5-2)12-9-6-3/h4-12H2,1-3H3
Instrument: Q Exactive Plus Orbitrap Thermo Scientific
Instrument type: LC-ESI-QFT
Ms type: MS2
Ion mode: POSITIVE
Ionization: ESI
Fragmentation mode: HCD
Collision energy: 75 (nominal)
Resolution: 35000
Column name: XBridge C18 3.5um, 2.1x50mm, Waters
Retention time: 11.0 min
Base peak: 219.1869
Precursor m/z: 219.1872
Precursor type: [M+H]+
m/z	relative intensity	assigned
50.9995	1	H4OP+
53.0022	5	C3HO+
55.0542	34	C4H7+
56.9889	6	C2H2P+
57.0699	100	C4H9+
59.0045	11	C2H4P+
61.0202	68	C2H6P+
62.9994	153	CH4OP+
64.0072	77	CH5OP+
64.9787	3	H2O2P+
65.0151	1	CH6OP+
67.9893	3	C3O2+
69.0699	2	C5H9+
73.0201	1	C3H6P+
75.0358	8	C3H8P+
77.0151	23	C2H6OP+
78.0229	895	C2H7OP+
78.9943	13	CH4O2P+
79.0308	5	C2H8OP+
83.0856	1	C6H11+
87.0358	17	C4H8P+
89.0515	63	C4H10P+
91.0308	28	C3H8OP+
92.0386	679	C3H9OP+
93.01	47	C2H6O2P+
95.0256	38	C2H8O2P+
103.0671	36	C5H12P+
105.0464	52	C4H10OP+
106.0542	35	C4H11OP+
107.062	120	C4H12OP+
119.0621	15	C5H12OP+
120.0699	30	C5H13OP+
121.0413	3	C4H10O2P+
121.0776	4	C5H14OP+
133.0777	82	C6H14OP+
134.0857	4	C6H15OP+
135.057	20	C5H12O2P+
135.0933	22	C6H16OP+
145.1141	9	C8H18P+
147.0933	99	C7H16OP+
149.0728	3	C6H14O2P+
161.109	72	C8H18OP+
162.1167	1	C8H19OP+
163.1246	391	C8H20OP+
175.1247	63	C9H20OP+
177.1403	21	C9H22OP+
189.1402	2	C10H22OP+
191.1559	74	C10H24OP+
219.1873	999	C12H28OP+
