Mass spectrum: Pirimiphos-Ethyl; LC-ESI-QFT; MS2; CE: 45%; R=17500; [M+H]+
Name: Pirimiphos-Ethyl
Name: 4-diethoxyphosphinothioyloxy-N,N-diethyl-6-methylpyrimidin-2-amine
Formula: C13H24N3O3PS
Exact mass: 333.1276
SMILES: CCN(CC)C1=NC(=CC(=N1)OP(=S)(OCC)OCC)C
InChI: InChI=1S/C13H24N3O3PS/c1-6-16(7-2)13-14-11(5)10-12(15-13)19-20(21,17-8-3)18-9-4/h10H,6-9H2,1-5H3
Instrument: Exploris 240 Orbitrap Thermo Scientific
Instrument type: LC-ESI-QFT
Ms type: MS2
Ion mode: POSITIVE
Ionization: ESI
Fragmentation mode: HCD
Collision energy: 45 % (nominal)
Resolution: 17500
Column name: XBridge C18 3.5um, 2.1x50mm, Waters
Retention time: 12.748 min
Base peak: 334.1347
Precursor m/z: 334.1349
Precursor type: [M+H]+
m/z	relative intensity	assigned
95.0601	3	C5H7N2+
96.9508	24	H2O2PS+
99.0917	4	C5H11N2+
108.0558	6	C5H6N3+
114.9614	11	H4O3PS+
124.9823	8	C2H6O2PS+
154.0977	13	C7H12N3O+
157.0797	10	C3H16N3PS+
164.1184	23	C9H14N3+
170.0748	57	C7H12N3S+
182.129	288	C9H16N3O+
198.1061	999	C9H16N3S+
260.0614	21	C13H12N2O2S+
306.1047	14	C11H21N3O3PS+
334.1364	18	C13H25N3O3PS+
