Mass spectrum: Atenolol-desisopropyl; LC-ESI-ITFT; MS2; CE: 30%; R=15000; [M+H]+
Name: Atenolol-desisopropyl
Name: 4-(3-Amino-2-hydroxypropoxy)phenylacetamide
Formula: C11H16N2O3
Exact mass: 224.1161
SMILES: c1cc(ccc1CC(=O)N)OCC(CN)O
InChI: InChI=1S/C11H16N2O3/c12-6-9(14)7-16-10-3-1-8(2-4-10)5-11(13)15/h1-4,9,14H,5-7,12H2,(H2,13,15)
Instrument: LTQ Orbitrap XL Thermo Scientific
Instrument type: LC-ESI-ITFT
Ms type: MS2
Ion mode: POSITIVE
Ionization: ESI
Fragmentation mode: HCD
Collision energy: 30 % (nominal)
Resolution: 15000
Column name: XBridge C18 3.5um, 2.1x50mm, Waters
Retention time: 1.0 min
Base peak: 225.124
Precursor m/z: 225.1234
Precursor type: [M+H]+
m/z	relative intensity	assigned
56.0495	13	C3H6N+
74.0601	154	C3H8NO+
133.0648	7	C9H9O+
145.0648	40	C10H9O+
147.0442	2	C9H7O2+
152.0704	3	C8H10NO2+
161.0598	2	C10H9O2+
162.0914	27	C10H12NO+
163.0749	1	C10H11O2+
164.0708	10	C9H10NO2+
173.0599	21	C11H9O2+
178.0863	59	C10H12NO2+
180.1019	15	C10H14NO2+
190.0863	228	C11H12NO2+
208.0969	167	C11H14NO3+
225.1237	999	C11H17N2O3+
