Mass spectrum: Terbuthylazine-TP CSCD692760 (LM3); LC-ESI-QFT; MS2; CE: 120%; R=17500; [M+H]+
Name: Terbuthylazine-TP CSCD692760 (LM3)
Name: 6-Hydroxy-7,7-dimethyl-7,8-dihydroimidazo[1,2-a][1,3,5]triazine-2,4(3H,6H)-dione
Formula: C7H10N4O3
Exact mass: 198.0753
SMILES: CC1(C)NC2=NC(O)=NC(=O)N2C1O
InChI: InChI=1S/C7H10N4O3/c1-7(2)3(12)11-4(10-7)8-5(13)9-6(11)14/h3,12H,1-2H3,(H2,8,9,10,13,14)
Instrument: Q Exactive Plus Orbitrap Thermo Scientific
Instrument type: LC-ESI-QFT
Ms type: MS2
Ion mode: POSITIVE
Ionization: ESI
Fragmentation mode: HCD
Collision energy: 120 % (nominal)
Resolution: 17500
Column name: XBridge C18 3.5um, 2.1x50mm, Waters
Retention time: 1.307 min
Base peak: 199.0826
Precursor m/z: 199.0826
Precursor type: [M+H]+
m/z	relative intensity	assigned
53.0022	48	C3HO+
53.0386	198	C4H5+
54.0338	40	C3H4N+
55.0177	20	C3H3O+
55.0291	27	C2H3N2+
58.0652	20	C3H8N+
67.9893	18	C3O2+
68.0495	35	C4H6N+
69.0083	948	C2HN2O+
69.0448	32	
69.9923	999	C2NO2+
70.0651	159	C4H8N+
71.0491	32	C4H7O+
72.0442	15	C3H6NO+
86.0349	410	C2H4N3O+
87.0189	647	C2H3N2O2+
110.071	55	C5H8N3+
129.0405	32	C3H5N4O2+
138.066	42	C6H8N3O+
