Mass spectrum: Sulfapyridine; LC-ESI-ITFT; MS2; CE: 45%; R=15000; [M+H]+
Name: Sulfapyridine
Name: 2-Sulfapyridine
Name: 4-amino-N-(2-pyridinyl)benzenesulfonamide
Formula: C11H11N3O2S
Exact mass: 249.0572
SMILES: c1(S(Nc2ccccn2)(=O)=O)ccc(N)cc1
InChI: InChI=1S/C11H11N3O2S/c12-9-4-6-10(7-5-9)17(15,16)14-11-3-1-2-8-13-11/h1-8H,12H2,(H,13,14)
Instrument: LTQ Orbitrap XL Thermo Scientific
Instrument type: LC-ESI-ITFT
Ms type: MS2
Ion mode: POSITIVE
Ionization: ESI
Fragmentation mode: HCD
Collision energy: 45 % (nominal)
Resolution: 15000
Column name: XBridge C18 3.5um, 2.1x50mm, Waters
Retention time: 2.9 min
Base peak: 250.0651
Precursor m/z: 250.0645
Precursor type: [M+H]+
m/z	relative intensity	assigned
65.0386	48	C5H5+
67.0418	5	C4H5N+
68.0495	47	C4H6N+
78.0339	7	C5H4N+
79.0177	6	C5H3O+
80.0495	5	C5H6N+
92.0495	366	C6H6N+
93.0446	9	C5H5N2+
93.0573	32	C6H7N+
94.0526	57	C5H6N2+
94.0649	5	C6H8N+
95.0604	383	C5H7N2+
96.0443	11	C5H6NO+
108.0444	760	C6H6NO+
110.0599	4	C6H8NO+
120.0556	4	C6H6N3+
156.0114	999	C6H6NO2S+
157.0066	114	C5H5N2O2S+
169.0766	8	C11H9N2+
184.087	641	C11H10N3+
186.1026	14	C11H12N3+
250.0641	222	C11H12N3O2S+
