Mass spectrum: Flufenacet; LC-ESI-ITFT; MS2; CE: 75%; R=15000; [M+H]+
Name: Flufenacet
Name: N-(4-fluorophenyl)-N-isopropyl-2-[[5-(trifluoromethyl)-1,3,4-thiadiazol-2-yl]oxy]acetamide
Formula: C14H13F4N3O2S
Exact mass: 363.0670
SMILES: O=C(COc1nnc(s1)C(F)(F)F)N(c2ccc(F)cc2)C(C)C
InChI: InChI=1S/C14H13F4N3O2S/c1-8(2)21(10-5-3-9(15)4-6-10)11(22)7-23-13-20-19-12(24-13)14(16,17)18/h3-6,8H,7H2,1-2H3
Instrument: LTQ Orbitrap XL Thermo Scientific
Instrument type: LC-ESI-ITFT
Ms type: MS2
Ion mode: POSITIVE
Ionization: ESI
Fragmentation mode: HCD
Collision energy: 75 % (nominal)
Resolution: 15000
Column name: XBridge C18 3.5um, 2.1x50mm, Waters
Retention time: 11.7 min
Base peak: 386.0556
Precursor m/z: 364.0737
Precursor type: [M+H]+
m/z	relative intensity	assigned
77.0385	11	C6H5+
83.0289	3	F2H3N3+
95.0487	2	CH6FN3O+
96.0368	11	CH4F2N3+
97.0447	212	CH5F2N3+
104.0493	19	C7H6N+
109.0447	259	C2H5F2N3+
110.0399	19	C3H10O2S+
111.048	3	C6H6FN+
112.0555	6	C6H7FN+
115.0542	5	C9H7+
123.0239	61	C2H3F2N3O+
123.0351	9	C6H4FN2+
124.0556	999	C7H7FN+
125.0394	11	C2H5F2N3O+
132.0442	9	C8H6NO+
133.0446	4	C9H6F+
135.0478	2	C8H6FN+
135.0603	5	C4H7F2N3+
136.0556	6	C8H7FN+
137.0633	10	C8H8FN+
147.0386	2	C5H8FN2S+
151.0429	6	C8H6FNO+
152.0504	226	C8H7FNO+
152.0868	94	C9H11FN+
160.0497	3	C8H7F3+
194.1022	5	C8H13F3N2+
