Mass spectrum: Dronedarone; LC-ESI-ITFT; MS2; CE: 75%; R=7500; [M+H]+
Name: Dronedarone
Name: N-[2-butyl-3-[4-[3-(dibutylamino)propoxy]benzoyl]-1-benzofuran-5-yl]methanesulfonamide
Formula: C31H44N2O5S
Exact mass: 556.2971
SMILES: CS(=O)(=O)Nc1cc2c(c(oc2cc1)CCCC)C(c1ccc(cc1)OCCCN(CCCC)CCCC)=O
InChI: InChI=1S/C31H44N2O5S/c1-5-8-12-29-30(27-23-25(32-39(4,35)36)15-18-28(27)38-29)31(34)24-13-16-26(17-14-24)37-22-11-21-33(19-9-6-2)20-10-7-3/h13-18,23,32H,5-12,19-22H2,1-4H3
Instrument: LTQ Orbitrap XL Thermo Scientific
Instrument type: LC-ESI-ITFT
Ms type: MS2
Ion mode: POSITIVE
Ionization: ESI
Fragmentation mode: HCD
Collision energy: 75 % (nominal)
Resolution: 7500
Column name: XBridge C18 3.5um, 2.1x50mm, Waters
Retention time: 11.5 min
Base peak: 557.3051
Precursor m/z: 557.3044
Precursor type: [M+H]+
m/z	relative intensity	assigned
57.0699	33	C4H9+
58.0651	999	C3H8N+
70.065	25	C4H8N+
72.0808	36	C4H10N+
84.0806	13	C5H10N+
86.0964	79	C5H12N+
100.1121	965	C6H14N+
112.1119	15	C7H14N+
114.1277	120	C7H16N+
118.0414	12	C8H6O+
121.0284	79	C7H5O2+
128.1434	58	C8H18N+
133.0283	6	C8H5O2+
142.159	101	C9H20N+
145.0523	31	C9H7NO+
146.0601	22	C9H8NO+
147.0441	35	C9H7O2+
159.0681	7	C10H9NO+
161.0595	59	C10H9O2+
173.0469	51	C10H7NO2+
174.055	53	C10H8NO2+
186.0544	15	C11H8NO2+
196.0752	6	C13H10NO+
205.0655	4	C15H9O+
215.0935	33	C13H13NO2+
216.1031	15	C7H20O5S+
220.0762	7	C15H10NO+
222.0916	7	C15H12NO+
236.0709	10	C15H10NO2+
238.0862	12	C15H12NO2+
249.0791	12	C16H11NO2+
250.086	23	C16H12NO2+
252.1011	7	C16H14NO2+
262.0858	6	C17H12NO2+
265.0725	23	C16H11NO3+
266.0808	6	C16H12NO3+
278.0818	5	C17H12NO3+
435.2716	19	C29H39OS+
