Mass spectrum: Tetraconazole; LC-ESI-QFT; MS2; CE: 120; R=35000; [M+H]+
Name: Tetraconazole
Name: 1-[2-(2,4-dichlorophenyl)-3-(1,1,2,2-tetrafluoroethoxy)propyl]-1,2,4-triazole
Formula: C13H11Cl2F4N3O
Exact mass: 371.02153
SMILES: C1=CC(=C(C=C1Cl)Cl)C(CN2C=NC=N2)COC(C(F)F)(F)F
InChI: InChI=1S/C13H11Cl2F4N3O/c14-9-1-2-10(11(15)3-9)8(4-22-7-20-6-21-22)5-23-13(18,19)12(16)17/h1-3,6-8,12H,4-5H2
Instrument: Q Exactive Plus Orbitrap Thermo Scientific
Instrument type: LC-ESI-QFT
Ms type: MS2
Ion mode: POSITIVE
Ionization: ESI
Fragmentation mode: HCD
Collision energy: 120 (nominal)
Resolution: 35000
Column name: XBridge C18 3.5um, 2.1x50mm, Waters
Retention time: 11.8 min
Base peak: 372.0281
Precursor m/z: 372.0288
Precursor type: [M+H]+
m/z	relative intensity	assigned
51.0041	31	CHF2+
61.0073	3	C5H+
62.0151	18	C5H2+
63.0229	81	C5H3+
64.0307	3	C5H4+
65.0386	8	C5H5+
70.04	707	C2H4N3+
71.976	1	C3HCl+
72.9839	274	C3H2Cl+
74.9995	13	C3H4Cl+
76.0307	1	C6H4+
79.0179	1	C5H3O+
82.945	12	CHCl2+
83.0291	1	C5H4F+
87.0229	12	C7H3+
88.0307	45	C7H4+
89.0386	999	C2H4FN3+
90.0464	8	C7H6+
92.0256	4	C6H4O+
93.0336	5	C6H5O+
95.0491	1	C6H7O+
96.984	102	C5H2Cl+
98.9996	426	C5H4Cl+
100.0074	5	C5H5Cl+
103.0542	1	C8H7+
106.945	5	C3HCl2+
107.0292	15	C7H4F+
108.9607	3	C3H3Cl2+
113.0385	11	C9H5+
114.0465	17	C9H6+
115.0542	365	C9H7+
116.9901	3	C5H3ClF+
118.0413	4	C8H6O+
120.0206	8	C4H7ClNO+
122.9996	988	C7H4Cl+
124.0075	331	C7H5Cl+
125.0155	6	C7H6Cl+
128.0023	1	C6H5ClO+
132.057	11	C9H8O+
132.9606	194	C5H3Cl2+
133.0448	16	C9H6F+
139.0057	1	C6H4ClN2+
140.9903	7	C7H3ClF+
141.9982	4	C7H4ClF+
149.0153	32	C9H6Cl+
155.9972	5	C4H8Cl2NO+
158.9763	585	C2H4Cl2FN3+
176.9668	12	C7H4Cl2F+
