Mass spectrum: 2-(Methylsulfanyl)-1,3-benzothiazole; LC-ESI-QFT; MS2; CE: 90; R=35000; [M+H]+
Name: 2-(Methylsulfanyl)-1,3-benzothiazole
Name: 2-(Methylthio)benzothiazole (2-Me-S-Benzothiazole)
Name: 2-Methylmercaptobenzothiazole
Formula: C8H7NS2
Exact mass: 181.00199
SMILES: CSC1=NC2=CC=CC=C2S1
InChI: InChI=1S/C8H7NS2/c1-10-8-9-6-4-2-3-5-7(6)11-8/h2-5H,1H3
Instrument: Q Exactive Plus Orbitrap Thermo Scientific
Instrument type: LC-ESI-QFT
Ms type: MS2
Ion mode: POSITIVE
Ionization: ESI
Fragmentation mode: HCD
Collision energy: 90 (nominal)
Resolution: 35000
Column name: XBridge C18 3.5um, 2.1x50mm, Waters
Retention time: 10.0 min
Base peak: 182.0086
Precursor m/z: 182.0093
Precursor type: [M+H]+
m/z	relative intensity	assigned
63.0227	1	C5H3+
63.9435	34	S2+
64.0306	2	C5H4+
65.0385	7	C5H5+
78.9668	1	CH3S2+
84.0027	3	C4H4S+
91.0415	63	C6H5N+
96.0027	10	C5H4S+
101.9464	1	C2NS2+
103.0415	15	C7H5N+
108.0026	8	C6H4S+
109.0105	104	C6H5S+
109.0521	16	C6H7NO+
111.0261	1	C6H7S+
122.0058	2	C6H4NS+
123.0135	119	C6H5NS+
124.034	1	C7H8S+
134.0056	1	C7H4NS+
135.0135	71	C7H5NS+
136.0214	5	C7H6NS+
139.9747	25	C6H4S2+
140.9698	1	C5H3NS2+
149.0293	2	C8H7NS+
150.0367	1	C8H8NS+
165.978	4	C7H4NS2+
166.9855	999	C7H5NS2+
182.009	41	C8H8NS2+
