Mass spectrum: MCYR; LC-ESI-QFT; MS2; CE: 75%; R=17500; [M+H]+
Name: MCYR
Name: Microcystin YR
Name: (5R,8S,11R,12S,15S,18S,19S,22R)-15-[3-(diaminomethylideneamino)propyl]-8-[(4-hydroxyphenyl)methyl]-18-[(1E,3E,5S,6S)-6-methoxy-3,5-dimethyl-7-phenylhepta-1,3-dienyl]-1,5,12,19-tetramethyl-2-methylidene-3,6,9,13,16,20,25-heptaoxo-1,4,7,10,14,17,21-heptazacyclopentacosane-11,22-dicarboxylic acid
Class: NA
Formula: C52H72N10O13
Exact mass: 1044.5280
SMILES: CO[C@@H](Cc1ccccc1)[C@@H](C)\C=C(C)\C=C\[C@@H]2NC(=O)[C@H](CCCNC(N)=N)NC(=O)[C@@H](C)[C@@H](NC(=O)[C@H](Cc3ccc(O)cc3)NC(=O)[C@@H](C)NC(=O)C(=C)N(C)C(=O)CC[C@@H](NC(=O)[C@H]2C)C(O)=O)C(O)=O
InChI: InChI=1S/C52H72N10O13/c1-28(25-29(2)41(75-8)27-34-13-10-9-11-14-34)16-21-37-30(3)44(65)59-39(50(71)72)22-23-42(64)62(7)33(6)47(68)56-32(5)46(67)60-40(26-35-17-19-36(63)20-18-35)49(70)61-43(51(73)74)31(4)45(66)58-38(48(69)57-37)15-12-24-55-52(53)54/h9-11,13-14,16-21,25,29-32,37-41,43,63H,6,12,15,22-24,26-27H2,1-5,7-8H3,(H,56,68)(H,57,69)(H,58,66)(H,59,65)(H,60,67)(H,61,70)(H,71,72)(H,73,74)(H4,53,54,55)/b21-16+,28-25+/t29-,30-,31-,32+,37-,38-,39+,40-,41-,43+/m0/s1
Instrument: Q Exactive Plus Orbitrap Thermo Scientific
Instrument type: LC-ESI-QFT
Ms type: MS2
Ion mode: POSITIVE
Ionization: ESI
Fragmentation mode: HCD
Collision energy: 75 % (nominal)
Resolution: 17500
Column name: XBridge C18 3.5um, 2.1x50mm, Waters
Retention time: 8.039 min
Base peak: 523.2719
Precursor m/z: 1045.5353
Precursor type: [M+H]+
m/z	relative intensity	assigned
74.0235	3	C2H4NO2+
77.0385	51	C6H5+
79.0542	127	C6H7+
80.0495	36	C5H6N+
81.0335	6	C5H5O+
81.07	6	C6H9+
82.0287	28	C4H4NO+
82.0651	58	C5H8N+
84.0444	153	C4H6NO+
85.0284	15	C4H5O2+
85.076	13	C4H9N2+
86.06	15	C4H8NO+
87.0792	7	C3H9N3+
91.0543	620	C7H7+
92.062	8	C7H8+
93.0699	90	C7H9+
94.065	24	C6H8N+
95.0492	312	C6H7O+
95.0597	41	C5H7N2+
95.0855	7	
96.0444	11	C5H6NO+
96.0808	8	C6H10N+
96.7392	8	
97.0761	59	C5H9N2+
98.0601	89	C5H8NO+
99.019	29	C3H3N2O2+
99.0917	54	C5H11N2+
102.0464	29	C8H6+
102.0545	6	C4H8NO2+
103.0543	999	C8H7+
105.0448	98	C6H5N2+
105.0699	406	C8H9+
107.0492	42	C7H7O+
107.0855	280	C8H11+
108.0681	5	C6H8N2+
108.0811	7	C7H10N+
109.0648	39	C7H9O+
111.0551	3	C5H7N2O+
112.0869	81	C5H10N3+
113.0234	27	C5H5O3+
113.0709	24	C5H9N2O+
114.0552	13	C5H8NO2+
114.1025	8	C5H12N3+
115.0542	152	C9H7+
115.0867	41	C5H11N2O+
116.062	6	C9H8+
117.0572	6	C8H7N+
117.0698	107	C9H9+
118.0652	11	C8H8N+
119.0492	85	C8H7O+
119.0603	20	C7H7N2+
119.0855	24	C9H11+
120.0568	18	C8H8O+
120.0809	22	C8H10N+
121.0674	4	
121.076	37	C7H9N2+
122.0708	4	C6H8N3+
123.0554	4	C6H7N2O+
123.0917	9	C7H11N2+
125.0708	8	C6H9N2O+
127.0866	273	C6H11N2O+
128.062	13	C10H8+
128.0704	3	C6H10NO2+
129.0696	12	C10H9+
130.0498	12	C5H8NO3+
130.0649	5	C9H8N+
130.0782	3	C10H10+
131.0852	25	C10H11+
132.0814	3	C9H10N+
133.1012	9	C10H13+
135.0805	114	C9H11O+
135.1167	39	C10H15+
136.0757	186	C8H10NO+
138.0554	8	C7H8NO2+
138.066	7	C6H8N3O+
139.0871	7	C7H11N2O+
140.0819	15	C6H10N3O+
141.0657	46	C6H9N2O2+
143.086	6	C11H11+
145.1012	8	C11H13+
146.0597	9	C9H8NO+
147.0437	10	C9H7O2+
149.0709	32	C8H9N2O+
151.0868	7	C8H11N2O+
153.1023	5	C8H13N2O+
157.1079	4	C6H13N4O+
160.0756	6	C10H10NO+
160.1115	6	C11H14N+
165.0698	10	C13H9+
167.0816	78	C8H11N2O2+
168.0656	9	C8H10NO3+
172.1125	6	C12H14N+
178.0988	4	C11H14O2+
195.077	21	C9H11N2O3+
201.0991	6	C9H15NO4+
213.0872	9	C9H13N2O4+
