Mass spectrum: Anabaenopeptin NZ857; LC-ESI-QFT; MS2; CE: 15%; R=17500; [M+H]+
Name: Anabaenopeptin NZ857
Name: 2-[[12-butan-2-yl-3,9-bis[2-(4-hydroxyphenyl)ethyl]-7-methyl-2,5,8,11,14-pentaoxo-1,4,7,10,13-pentazacyclononadec-15-yl]carbamoylamino]-3-phenylpropanoic acid
Formula: C45H59N7O10
Exact mass: 857.4323
SMILES: CCC(C)C1C(=O)NC(C(=O)N(CC(=O)NC(C(=O)NCCCCC(C(=O)N1)NC(=O)NC(CC2=CC=CC=C2)C(=O)O)CCC3=CC=C(C=C3)O)C)CCC4=CC=C(C=C4)O
InChI: InChI=1S/C45H59N7O10/c1-4-28(2)39-42(58)48-36(24-18-30-15-21-33(54)22-16-30)43(59)52(3)27-38(55)47-35(23-17-29-13-19-32(53)20-14-29)40(56)46-25-9-8-12-34(41(57)51-39)49-45(62)50-37(44(60)61)26-31-10-6-5-7-11-31/h5-7,10-11,13-16,19-22,28,34-37,39,53-54H,4,8-9,12,17-18,23-27H2,1-3H3,(H,46,56)(H,47,55)(H,48,58)(H,51,57)(H,60,61)(H2,49,50,62)
Instrument: Q Exactive Plus Orbitrap Thermo Scientific
Instrument type: LC-ESI-QFT
Ms type: MS2
Ion mode: POSITIVE
Ionization: ESI
Fragmentation mode: HCD
Collision energy: 15 % (nominal)
Resolution: 17500
Column name: XBridge C18 3.5um, 2.1x50mm, Waters
Retention time: 7.905 min
Base peak: 164.9845
Precursor m/z: 858.4396
Precursor type: [M+H]+
m/z	relative intensity	assigned
84.0808	14	C5H10N+
114.0546	2	C5H8NO2+
231.1494	2	C14H19N2O+
233.1289	1	C13H17N2O2+
263.1401	12	H21N7O9+
316.2054	5	C8H32N2O10+
376.2271	5	C25H30NO2+
379.2387	5	C10H33N7O8+
405.2189	5	C13H33N4O10+
439.2072	1	C21H31N2O8+
455.2387	2	C22H35N2O8+
465.2193	1	C18H33N4O10+
494.2632	4	C26H34N6O4+
523.2921	4	C29H39N4O5+
539.2862	2	C29H39N4O6+
540.2816	8	C28H38N5O6+
550.2656	22	C43H34+
568.2765	20	C29H38N5O7+
578.2968	3	C45H38+
596.3073	2	C45H40O+
606.3645	2	C34H48N5O5+
626.3171	2	C44H40N3O+
651.386	106	C35H51N6O6+
659.3582	2	C40H51O8+
663.3492	12	C35H47N6O7+
677.3656	105	C36H49N6O7+
681.361	38	C35H49N6O8+
695.3769	4	C36H51N6O8+
711.3688	1	C45H49N3O5+
745.3651	1	C40H51N5O9+
755.3748	2	C41H51N6O8+
812.4407	4	C45H60N6O8+
830.4444	41	C44H60N7O9+
840.428	45	C45H58N7O9+
858.4391	999	C45H60N7O10+
