Mass spectrum: Thiamphenicol; LC-ESI-QFT; MS2; CE: 45; R=35000; [M+H]+
Name: Thiamphenicol
Name: 2,2-dichloro-N-[1,3-dihydroxy-1-(4-methylsulfonylphenyl)propan-2-yl]acetamide
Formula: C12H15Cl2NO5S
Exact mass: 355.00480
SMILES: CS(=O)(=O)C1=CC=C(C=C1)C(C(CO)NC(=O)C(Cl)Cl)O
InChI: InChI=1S/C12H15Cl2NO5S/c1-21(19,20)8-4-2-7(3-5-8)10(17)9(6-16)15-12(18)11(13)14/h2-5,9-11,16-17H,6H2,1H3,(H,15,18)
Instrument: Q Exactive Plus Orbitrap Thermo Scientific
Instrument type: LC-ESI-QFT
Ms type: MS2
Ion mode: POSITIVE
Ionization: ESI
Fragmentation mode: HCD
Collision energy: 45 (nominal)
Resolution: 35000
Column name: XBridge C18 3.5um, 2.1x50mm, Waters
Retention time: 3.7 min
Base peak: 373.0381
Precursor m/z: 356.0121
Precursor type: [M+H]+
m/z	relative intensity	assigned
63.9949	2	CH3ClN+
78.9848	9	CH3O2S+
82.945	125	CHCl2+
91.0541	14	C7H7+
92.062	1	C7H8+
102.0463	5	C8H6+
103.0541	11	C8H7+
104.0622	2	C8H8+
105.0699	5	C8H9+
107.0491	18	C7H7O+
109.9558	2	C2H2Cl2N+
115.0543	12	C9H7+
117.0572	3	C8H7N+
117.0699	4	C9H9+
118.0651	83	C8H8N+
119.0492	24	C8H7O+
119.073	107	C8H9N+
120.057	180	C8H8O+
120.0808	12	C8H10N+
121.065	2	C8H9O+
127.9664	14	C2H4Cl2NO+
128.0495	1	C9H6N+
128.0621	3	C10H8+
129.0574	3	C9H7N+
130.0652	19	C9H8N+
131.0492	10	C9H7O+
131.073	13	C9H9N+
132.057	80	C9H8O+
133.0648	8	C9H9O+
134.0964	1	C9H12N+
138.0231	13	C8H7Cl+
139.9665	2	C3H4Cl2NO+
142.0653	1	C10H8N+
146.0601	115	C9H8NO+
150.0232	50	C9H7Cl+
151.031	6	C9H8Cl+
155.0259	23	C8H8ClO+
155.0604	2	C4H13NO3S+
158.0601	15	C10H8NO+
163.0309	11	C10H8Cl+
165.034	2	C9H8ClN+
166.0419	3	C9H9ClN+
169.0319	1	C8H9O2S+
170.0601	46	C11H8NO+
176.0262	9	C10H7ClN+
177.0341	4	C10H8ClN+
181.0318	8	C9H9O2S+
184.0428	1	C8H10NO2S+
193.029	9	C10H8ClNO+
194.0368	20	C10H9ClNO+
197.0506	36	C9H11NO2S+
198.0584	908	C9H12NO2S+
199.0422	7	C9H11O3S+
205.0289	1	C11H8ClNO+
206.0369	113	C11H9ClNO+
208.0428	11	C10H10NO2S+
210.0584	14	C10H12NO2S+
211.0424	5	C10H11O3S+
212.0027	2	C10H8Cl2N+
217.0085	12	C9H10ClO2S+
227.9979	2	C10H8Cl2NO+
229.0057	999	C10H9Cl2NO+
230.0136	1	C10H10Cl2NO+
236.0377	1	C11H10NO3S+
241.0057	85	C11H9Cl2NO+
244.0193	5	C10H11ClNO2S+
254.0038	7	C11H9ClNO2S+
289.98	3	C11H10Cl2NO2S+
307.991	95	C11H12Cl2NO3S+
