Mass spectrum: Metalaxyl; LC-ESI-ITFT; MS2; CE: 90%; R=7500; [M+H]+
Name: Metalaxyl
Name: 2-(N-(2-methoxy-1-oxoethyl)-2,6-dimethylanilino)propanoic acid methyl ester
Formula: C15H21NO4
Exact mass: 279.1465
SMILES: CC1=C(C(=CC=C1)C)N(C(C)C(=O)OC)C(=O)COC
InChI: InChI=1S/C15H21NO4/c1-10-7-6-8-11(2)14(10)16(13(17)9-19-4)12(3)15(18)20-5/h6-8,12H,9H2,1-5H3
Instrument: LTQ Orbitrap XL Thermo Scientific
Instrument type: LC-ESI-ITFT
Ms type: MS2
Ion mode: POSITIVE
Ionization: ESI
Fragmentation mode: HCD
Collision energy: 90 % (nominal)
Resolution: 7500
Column name: XBridge C18 3.5um, 2.1x50mm, Waters
Retention time: 8.7 min
Base peak: 302.1365
Precursor m/z: 280.1543
Precursor type: [M+H]+
m/z	relative intensity	assigned
77.0384	22	C6H5+
79.0542	67	C6H7+
91.0542	136	C7H7+
103.0544	45	C8H7+
105.0699	439	C8H9+
106.0654	17	C7H8N+
106.0778	40	C8H10+
107.0854	20	C8H11+
115.0542	25	C9H7+
117.0574	83	C8H7N+
117.0696	31	C9H9+
118.0651	136	C8H8N+
119.0853	70	C9H11+
120.0806	85	C8H10N+
121.0885	41	C8H11N+
130.065	309	C9H8N+
131.0729	104	C9H9N+
132.0807	999	C9H10N+
133.0886	279	C9H11N+
133.1005	22	C10H13+
134.0964	765	C9H12N+
135.0685	24	C8H9NO+
144.0806	243	C10H10N+
145.0887	592	C10H11N+
146.0962	141	C10H12N+
148.1121	383	C10H14N+
149.0836	24	C9H11NO+
150.0911	64	C9H12NO+
160.112	666	C11H14N+
162.128	149	C11H16N+
164.1068	32	C10H14NO+
