Mass spectrum: 1-(3-Chlorophenyl)piperazine; LC-ESI-ITFT; MS2; CE: 60%; R=15000; [M+H]+
Name: 1-(3-Chlorophenyl)piperazine
Formula: C10H13ClN2
Exact mass: 196.0767
SMILES: c1c(Cl)cccc1N1CCNCC1
InChI: InChI=1S/C10H13ClN2/c11-9-2-1-3-10(8-9)13-6-4-12-5-7-13/h1-3,8,12H,4-7H2
Instrument: LTQ Orbitrap XL Thermo Scientific
Instrument type: LC-ESI-ITFT
Ms type: MS2
Ion mode: POSITIVE
Ionization: ESI
Fragmentation mode: HCD
Collision energy: 60 % (nominal)
Resolution: 15000
Column name: XBridge C18 3.5um, 2.1x50mm, Waters
Retention time: 5.2 min
Base peak: 197.0847
Precursor m/z: 197.084
Precursor type: [M+H]+
m/z	relative intensity	assigned
58.0651	3	C3H8N+
70.0652	20	C4H8N+
91.0541	2	C7H7+
117.0572	5	C8H7N+
118.0651	55	C8H8N+
119.073	263	C8H9N+
120.0808	2	C8H10N+
130.0649	1	C9H8N+
138.0104	4	C7H5ClN+
140.0261	25	C7H7ClN+
144.0811	5	C10H10N+
145.0886	12	C10H11N+
151.0186	1	C8H6ClN+
152.0261	12	C8H7ClN+
154.0419	999	C8H9ClN+
160.0997	1	C10H12N2+
162.1151	1	C10H14N2+
166.0418	10	C9H9ClN+
167.0371	2	C8H8ClN2+
168.0445	2	C8H9ClN2+
168.0573	4	C9H11ClN+
180.0575	28	C10H11ClN+
195.0684	86	C10H12ClN2+
197.0842	631	C10H14ClN2+
