Mass spectrum: Sulisobenzone; LC-ESI-QFT; MS2; CE: 75%; R=15000; [M+H]+
Name: Sulisobenzone
Name: 5-benzoyl-4-hydroxy-2-methoxybenzenesulfonic acid
Formula: C14H12O6S
Exact mass: 308.0355
SMILES: COC1=C(C=C(C(=C1)O)C(=O)C2=CC=CC=C2)S(=O)(=O)O
InChI: InChI=1S/C14H12O6S/c1-20-12-8-11(15)10(7-13(12)21(17,18)19)14(16)9-5-3-2-4-6-9/h2-8,15H,1H3,(H,17,18,19)
Instrument: Orbitrap Exploris 240 Thermo Scientific
Instrument type: LC-ESI-QFT
Ms type: MS2
Ion mode: POSITIVE
Ionization: ESI
Fragmentation mode: HCD
Collision energy: 75 % (nominal)
Resolution: 15000
Column name: Atlantis C18 3um, 3.0x150mm, Waters
Retention time: 21.459 min
Base peak: 301.141
Precursor m/z: 309.0427
Precursor type: [M+H]+
Precursor intensity: 2643682.25
m/z	relative intensity	assigned
55.0178	110	C3H3O+
68.997	108	C3HO2+
77.0386	76	C6H5+
79.0179	271	C5H3O+
94.0413	46	C6H6O+
95.0492	105	C6H7O+
97.0284	265	C5H5O2+
105.0336	356	C7H5O+
105.0445	116	
107.0127	289	C6H3O2+
121.0283	171	C7H5O2+
125.0232	84	C6H5O3+
134	43	C7H2O3+
135.0077	999	C7H3O3+
141.0701	49	C11H9+
149.0234	74	C8H5O3+
151.0387	123	C8H7O3+
152.011	51	C7H4O4+
198.9694	326	C7H3O5S+
230.9957	518	C8H7O6S+
