Mass spectrum: Flutriafol; LC-ESI-QFT; MS2; CE: 150; R=35000; [M+H]+
Name: Flutriafol
Name: 1-(2-fluorophenyl)-1-(4-fluorophenyl)-2-(1,2,4-triazol-1-yl)ethanol
Formula: C16H13F2N3O
Exact mass: 301.10267
SMILES: C1=CC=C(C(=C1)C(CN2C=NC=N2)(C3=CC=C(C=C3)F)O)F
InChI: InChI=1S/C16H13F2N3O/c17-13-7-5-12(6-8-13)16(22,9-21-11-19-10-20-21)14-3-1-2-4-15(14)18/h1-8,10-11,22H,9H2
Instrument: Q Exactive Plus Orbitrap Thermo Scientific
Instrument type: LC-ESI-QFT
Ms type: MS2
Ion mode: POSITIVE
Ionization: ESI
Fragmentation mode: HCD
Collision energy: 150 (nominal)
Resolution: 35000
Column name: XBridge C18 3.5um, 2.1x50mm, Waters
Retention time: 8.6 min
Base peak: 302.1094
Precursor m/z: 302.1099
Precursor type: [M+H]+
m/z	relative intensity	assigned
50.0151	9	C4H2+
51.023	8	C4H3+
53.0022	27	C3HO+
57.0135	85	C3H2F+
59.0292	27	C3H4F+
62.0151	6	C5H2+
63.0229	45	C5H3+
65.0386	10	C5H5+
69.0135	19	C4H2F+
70.04	997	C2H4N3+
71.0291	20	C4H4F+
74.0151	213	C6H2+
75.0229	999	CH2FN3+
79.0178	8	C5H3O+
81.0135	3	C5H2F+
83.0291	266	C5H4F+
89.0386	20	C7H5+
91.0545	1	C7H7+
93.0336	3	C6H5O+
95.0292	129	C6H4F+
98.0151	4	C8H2+
99.023	8	C8H3+
107.0291	3	C7H4F+
109.0448	92	C7H6F+
111.0441	2	C6H7O2+
113.0397	145	C6H6FO+
115.0542	1	C9H7+
120.0369	3	C8H5F+
121.0398	1	C6H5N2O+
122.0152	2	C10H2+
123.0233	19	C2H3F2N3O+
123.0353	303	C6H4FN2+
124.0325	1	C7H5FO+
125.0386	2	C10H5+
126.0466	1	C10H6+
133.0448	6	C9H6F+
139.0542	3	C11H7+
144.0372	3	C10H5F+
149.0386	7	C12H5+
157.0448	2	C11H6F+
163.0542	11	C13H7+
164.0621	4	C13H8+
165.07	5	C13H9+
167.0495	2	C12H7O+
168.037	24	C12H5F+
168.057	1	C12H8O+
170.0526	4	C12H7F+
174.0464	16	C14H6+
181.045	3	C13H6F+
183.0605	10	C13H8F+
187.0554	2	C12H8FO+
188.0433	5	C12H6F2+
192.0369	4	C14H5F+
193.045	3	C14H6F+
193.065	1	C14H9O+
194.0528	17	C14H7F+
211.0558	3	C14H8FO+
212.043	4	C14H6F2+
221.0503	1	C14H6FN2+
