Mass spectrum: Didanosine; LC-ESI-QFT; MS2; CE: 75; R=35000; [M+H]+
Name: Didanosine
Name: 9-[(2R,5S)-5-(hydroxymethyl)-2-oxolanyl]-3H-purin-6-one
Formula: C10H12N4O3
Exact mass: 236.09094
SMILES: O=C3/N=C\Nc1c3ncn1[C@@H]2O[C@@H](CC2)CO
InChI: InChI=1S/C10H12N4O3/c15-3-6-1-2-7(17-6)14-5-13-8-9(14)11-4-12-10(8)16/h4-7,15H,1-3H2,(H,11,12,16)/t6-,7+/m0/s1
Instrument: Q Exactive Orbitrap Thermo Scientific
Instrument type: LC-ESI-QFT
Ms type: MS2
Ion mode: POSITIVE
Ionization: ESI
Fragmentation mode: HCD
Collision energy: 75 (nominal)
Resolution: 35000
Column name: XBridge C18 3.5um, 2.1x50mm, Waters
Retention time: 2.3 min
Base peak: 137.0459
Precursor m/z: 237.0982
Precursor type: [M+H]+
m/z	relative intensity	assigned
55.0292	5	C2H3N2+
55.0543	7	C4H7+
57.0336	34	C3H5O+
57.0699	2	C4H9+
59.0492	8	C3H7O+
67.029	3	C3H3N2+
67.0543	2	C5H7+
73.0648	7	C4H9O+
79.0543	1	C6H7+
81.0699	3	C6H9+
82.04	11	C3H4N3+
83.0241	1	C3H3N2O+
83.0492	5	C5H7O+
91.0542	2	C7H7+
92.0243	2	C4H2N3+
93.0698	1	C7H9+
94.04	39	C4H4N3+
95.0855	2	C7H11+
101.0598	4	C5H9O2+
105.0698	1	C8H9+
110.0349	87	C4H4N3O+
112.0506	6	C4H6N3O+
119.0353	59	C5H3N4+
128.0454	5	C4H6N3O2+
137.0459	999	C5H5N4O+
138.0299	3	C5H4N3O2+
