Mass spectrum: Niclosamide; LC-ESI-QFT; MS2; CE: 90; R=35000; [M-H]-
Name: Niclosamide
Name: 5-chloro-N-(2-chloro-4-nitrophenyl)-2-hydroxybenzamide
Formula: C13H8Cl2N2O4
Exact mass: 325.98611
SMILES: C1=CC(=C(C=C1[N+](=O)[O-])Cl)NC(=O)C2=C(C=CC(=C2)Cl)O
InChI: InChI=1S/C13H8Cl2N2O4/c14-7-1-4-12(18)9(5-7)13(19)16-11-3-2-8(17(20)21)6-10(11)15/h1-6,18H,(H,16,19)
Instrument: Q Exactive Orbitrap Thermo Scientific
Instrument type: LC-ESI-QFT
Ms type: MS2
Ion mode: NEGATIVE
Ionization: ESI
Fragmentation mode: HCD
Collision energy: 90 (nominal)
Resolution: 35000
Column name: XBridge C18 3.5um, 2.1x50mm, Waters
Retention time: 15.6 min
Base peak: 324.9794
Precursor m/z: 324.9788
Precursor type: [M-H]-
m/z	relative intensity	assigned
65.9986	17	C3NO-
88.0193	24	C6H2N-
89.0272	41	C6H3N-
105.0221	999	C6H3NO-
116.0141	19	C7H2NO-
120.0091	5	C6H2NO2-
121.017	19	C6H3NO2-
133.0169	4	C7H3NO2-
135.0202	805	C6H3N2O2-
140.9989	62	C6H4ClNO-
149.0118	18	C7H3NO3-
151.9909	177	C7H3ClNO-
170.9968	761	C6H4ClN2O2-
179.0099	15	C7H3N2O4-
