Mass spectrum: Triamterene; LC-ESI-QFT; MS2; CE: 180; R=35000; [M+H]+
Name: Triamterene
Name: 6-phenylpteridine-2,4,7-triamine
Formula: C12H11N7
Exact mass: 253.10759
SMILES: C1=CC=C(C=C1)C2=NC3=C(N=C2N)N=C(N=C3N)N
InChI: InChI=1S/C12H11N7/c13-9-7(6-4-2-1-3-5-6)16-8-10(14)18-12(15)19-11(8)17-9/h1-5H,(H6,13,14,15,17,18,19)
Instrument: Q Exactive Plus Orbitrap Thermo Scientific
Instrument type: LC-ESI-QFT
Ms type: MS2
Ion mode: POSITIVE
Ionization: ESI
Fragmentation mode: HCD
Collision energy: 180 (nominal)
Resolution: 35000
Column name: XBridge C18 3.5um, 2.1x50mm, Waters
Retention time: 4.5 min
Base peak: 254.1144
Precursor m/z: 254.1149
Precursor type: [M+H]+
m/z	relative intensity	assigned
50.0152	128	C4H2+
51.023	166	C4H3+
52.0182	2	C3H2N+
52.0307	3	C4H4+
53.0386	129	C4H5+
53.9975	48	C2NO+
55.0179	6	C3H3O+
55.0291	33	C2H3N2+
61.0072	15	C5H+
62.0151	51	C5H2+
63.023	471	C5H3+
64.0182	30	C4H2N+
65.0135	125	C3HN2+
65.0386	27	C5H5+
66.0213	9	C3H2N2+
66.0464	29	C5H6+
67.0291	13	C3H3N2+
67.0542	1	C5H7+
68.0244	32	C2H2N3+
74.0151	9	C6H2+
75.0229	28	C6H3+
76.0181	14	C5H2N+
76.0308	59	C6H4+
77.0386	260	C6H5+
79.0543	47	C6H7+
80.0243	32	C3H2N3+
81.0335	13	C5H5O+
87.023	24	C7H3+
88.0182	61	C6H2N+
88.0308	32	C7H4+
89.0386	999	C7H5+
90.0088	42	C4N3+
90.0339	27	C6H4N+
90.0465	31	C7H6+
91.0417	2	C6H5N+
91.0543	8	C7H7+
92.0244	44	C4H2N3+
94.0414	9	C6H6O+
95.0492	364	C6H7O+
99.023	2	C8H3+
100.0183	9	C7H2N+
101.0261	1	C7H3N+
102.0341	11	C7H4N+
103.0417	84	C7H5N+
104.0495	274	C7H6N+
105.0448	250	C6H5N2+
106.0652	1	C7H8N+
112.0183	6	C8H2N+
114.0339	169	C8H4N+
115.0417	63	C8H5N+
116.0495	54	C8H6N+
117.0572	12	C8H7N+
119.0367	1	C7H5NO+
120.0448	1	C7H6NO+
127.0416	1	C9H5N+
128.037	1	C8H4N2+
129.0449	4	C8H5N2+
130.0401	11	C7H4N3+
131.0606	5	C8H7N2+
132.0444	4	C8H6NO+
133.0522	4	C8H7NO+
134.06	1	C8H8NO+
139.0291	6	C9H3N2+
140.037	1	C9H4N2+
141.0447	36	C9H5N2+
142.0527	21	C9H6N2+
