Mass spectrum: Fluconazole; LC-ESI-ITFT; MS2; CE: 75%; R=15000; [M-H]-
Name: Fluconazole
Name: 2-(2,4-difluorophenyl)-1,3-bis(1,2,4-triazol-1-yl)-2-propanol
Formula: C13H12F2N6O
Exact mass: 306.1041
SMILES: OC(CN1C=NC=N1)(CN2C=NC=N2)C3=C(F)C=C(F)C=C3
InChI: InChI=1S/C13H12F2N6O/c14-10-1-2-11(12(15)3-10)13(22,4-20-8-16-6-18-20)5-21-9-17-7-19-21/h1-3,6-9,22H,4-5H2
Instrument: LTQ Orbitrap XL Thermo Scientific
Instrument type: LC-ESI-ITFT
Ms type: MS2
Ion mode: NEGATIVE
Ionization: ESI
Fragmentation mode: HCD
Collision energy: 75 % (nominal)
Resolution: 15000
Column name: XBridge C18 3.5um, 2.1x50mm, Waters
Retention time: 5.2 min
Base peak: 351.1016
Precursor m/z: 305.0968
Precursor type: [M-H]-
m/z	relative intensity	assigned
68.0255	999	C2H2N3-
93.0144	26	C6H2F-
94.041	33	C4H4N3-
108.02	25	C4H2N3O-
113.0207	11	C6H3F2-
