Mass spectrum: Fenthion-sulfone; LC-ESI-QFT; MS2; CE: 150; R=35000; [M+H]+
Name: Fenthion-sulfone
Name: Fenthione sulphone
Name: O,O-Dimethyl O-[3-methyl-4-(methylsulfonyl)phenyl] phosphorothioate
Formula: C10H15O5PS2
Exact mass: 310.00985
SMILES: CC1=C(C=CC(=C1)OP(=S)(OC)OC)S(=O)(=O)C
InChI: InChI=1S/C10H15O5PS2/c1-8-7-9(15-16(17,13-2)14-3)5-6-10(8)18(4,11)12/h5-7H,1-4H3
Instrument: Q Exactive Plus Orbitrap Thermo Scientific
Instrument type: LC-ESI-QFT
Ms type: MS2
Ion mode: POSITIVE
Ionization: ESI
Fragmentation mode: HCD
Collision energy: 150 (nominal)
Resolution: 35000
Column name: XBridge C18 3.5um, 2.1x50mm, Waters
Retention time: 7.8 min
Base peak: 311.0163
Precursor m/z: 311.0171
Precursor type: [M+H]+
m/z	relative intensity	assigned
50.0151	329	C4H2+
51.0229	508	C4H3+
52.0308	52	C4H4+
53.0022	90	C3HO+
53.0386	253	C4H5+
53.9974	15	C2NO+
55.0178	96	C3H3O+
56.9888	6	C2H2P+
57.9871	59	C2H2S+
58.995	57	C2H3S+
59.9664	125	COS+
61.0072	22	C5H+
61.0107	4	C2H5S+
62.0151	86	C5H2+
62.0185	46	C2H6S+
62.9453	451	PS+
62.9899	66	CH3OS+
62.9994	177	CH4OP+
63.0229	509	C5H3+
63.9435	4	S2+
64.0307	66	C5H4+
65.0386	999	C5H5+
66.0464	279	C5H6+
67.0542	134	C5H7+
67.9892	6	C3O2+
68.9793	237	C3HS+
68.9888	14	C3H2P+
69.9871	41	C3H2S+
70.995	128	C3H3S+
74.015	15	C6H2+
75.0229	25	C6H3+
76.0307	16	C6H4+
77.0385	405	C6H5+
78.0464	508	C6H6+
78.9943	487	CH4O2P+
79.0178	28	C5H3O+
79.0542	154	C6H7+
79.948	21	HOPS+
81.0099	20	CH6O2P+
81.0336	37	C5H5O+
81.0699	3	C6H9+
81.9871	38	C4H2S+
82.9949	17	C4H3S+
84.0027	39	C4H4S+
84.9743	6	C3HOS+
85.0106	22	C4H5S+
89.0385	533	C7H5+
90.0465	17	C7H6+
91.0542	576	C7H7+
92.0619	3	C7H8+
92.9792	8	C5HS+
93.01	80	C2H6O2P+
93.0335	7	C6H5O+
94.0413	56	C6H6O+
94.995	37	C5H3S+
95.0491	645	C6H7O+
96.0028	21	C5H4S+
96.0123	20	C5H5P+
97.0051	29	CH6O3P+
97.0106	171	C5H5S+
98.9841	18	H4O4P+
102.0464	8	C8H6+
103.0542	80	C8H7+
105.0335	34	C7H5O+
105.0447	406	C6H5N2+
106.0415	7	C7H6O+
107.0044	47	C6H4P+
107.0127	3	C6H3O2+
107.0491	51	C7H7O+
108.0028	67	C6H4S+
108.0126	3	C6H5P+
109.0106	102	C6H5S+
110.0185	7	C6H6S+
110.9898	5	C5H3OS+
111.0205	6	C2H8O3P+
111.0263	3	C6H7S+
121.0106	663	C7H5S+
122.0184	68	C7H6S+
123.0262	4	C7H7S+
123.9977	7	C6H4OS+
125.0055	7	C6H5OS+
127.0154	15	C2H8O4P+
134.0184	18	C8H6S+
135.0262	20	C8H7S+
136.0075	5	C7H5OP+
137.0054	23	C7H5OS+
138.9766	57	C6H4PS+
154.9711	4	C6H4OPS+
167.9787	3	C7H5OPS+
168.9871	37	C7H6OPS+
278.9909	3	C9H12O4PS2+
