Mass spectrum: Thiamphenicol; LC-ESI-QFT; MS2; CE: 60; R=35000; [M-H]-
Name: Thiamphenicol
Name: 2,2-dichloro-N-[1,3-dihydroxy-1-(4-methylsulfonylphenyl)propan-2-yl]acetamide
Formula: C12H15Cl2NO5S
Exact mass: 355.00480
SMILES: CS(=O)(=O)C1=CC=C(C=C1)C(C(CO)NC(=O)C(Cl)Cl)O
InChI: InChI=1S/C12H15Cl2NO5S/c1-21(19,20)8-4-2-7(3-5-8)10(17)9(6-16)15-12(18)11(13)14/h2-5,9-11,16-17H,6H2,1H3,(H,15,18)
Instrument: Q Exactive Plus Orbitrap Thermo Scientific
Instrument type: LC-ESI-QFT
Ms type: MS2
Ion mode: NEGATIVE
Ionization: ESI
Fragmentation mode: HCD
Collision energy: 60 (nominal)
Resolution: 35000
Column name: XBridge C18 3.5um, 2.1x50mm, Waters
Retention time: 3.5 min
Base peak: 353.9974
Precursor m/z: 353.9975
Precursor type: [M-H]-
m/z	relative intensity	assigned
63.9625	291	O2S-
68.0141	1	C3H2NO-
70.0299	11	C3H4NO-
70.9462	1	Cl2H-
71.014	5	C3H3O2-
78.986	999	CH3O2S-
82.9461	100	CHCl2-
84.0091	59	C3H2NO2-
86.0248	9	C3H4NO2-
98.0249	2	C4H4NO2-
105.0344	14	C7H5O-
117.0712	19	C9H9-
119.0503	544	C8H7O-
121.0296	151	C7H5O2-
121.066	34	C8H9O-
126.936	9	C2HCl2O2-
130.0424	11	C9H6O-
131.0379	4	C8H5NO-
133.0534	7	C8H7NO-
139.994	9	C6H4O2S-
144.0458	1	C9H6NO-
145.066	33	C10H9O-
146.0374	9	C9H6O2-
148.0406	22	C8H6NO2-
149.0246	1	C8H5O3-
151.9938	1	C7H4O2S-
154.0096	4	C7H6O2S-
155.0174	135	C7H7O2S-
166.0093	1	C8H6O2S-
168.9966	424	C7H5O3S-
170.0044	64	C7H6O3S-
179.005	3	C8H5NO2S-
181.033	15	C9H9O2S-
183.0122	11	C8H7O3S-
184.0198	11	C8H8O3S-
185.0278	128	C8H9O3S-
192.0126	1	C9H6NO2S-
194.0041	5	C9H6O3S-
194.0281	5	C9H8NO2S-
195.012	9	C9H7O3S-
196.0079	7	C8H6NO3S-
197.0154	39	C8H7NO3S-
212.0387	37	C9H10NO3S-
