Mass spectrum: Cycloxydim-TP BH 517-TSO E/Z-isomer; LC-ESI-QFT; MS2; CE: 15%; R=17500; [M+H]+
Name: Cycloxydim-TP BH 517-TSO E/Z-isomer
Name: Cycloxydim sulfoxide
Formula: C17H27NO4S
Exact mass: 341.1661
SMILES: CCC\C(=N/OCC)C1=C(O)CC(CC1=O)C1CCCS(=O)C1
InChI: InChI=1S/C17H27NO4S/c1-3-6-14(18-22-4-2)17-15(19)9-13(10-16(17)20)12-7-5-8-23(21)11-12/h12-13,19H,3-11H2,1-2H3/b18-14+
Instrument: Q Exactive Plus Orbitrap Thermo Scientific
Instrument type: LC-ESI-QFT
Ms type: MS2
Ion mode: POSITIVE
Ionization: ESI
Fragmentation mode: HCD
Collision energy: 15 % (nominal)
Resolution: 17500
Column name: XBridge C18 3.5um, 2.1x50mm, Waters
Retention time: 7.731 min
Base peak: 342.1734
Precursor m/z: 342.1734
Precursor type: [M+H]+
m/z	relative intensity	assigned
101.0419	16	C5H9S+
110.0599	10	C6H8NO+
112.0755	16	C6H10NO+
117.0367	3	C5H9OS+
153.037	3	C8H9OS+
155.0525	2	C8H11OS+
162.0912	3	C10H12NO+
171.0472	6	C8H11O2S+
174.0917	4	C5H18O4S+
178.0862	80	C10H12NO2+
180.1017	4	C10H14NO2+
213.0579	3	C10H13O3S+
222.0945	2	C12H16NOS+
227.1064	6	C15H15O2+
227.1296	4	C15H17NO+
228.1383	11	C15H18NO+
229.1225	12	C15H17O2+
234.0943	3	C13H16NOS+
236.1098	6	C13H18NOS+
251.1094	5	C14H19O2S+
252.1045	10	C13H18NO2S+
252.1419	1	C14H22NOS+
254.0842	68	C12H16NO3S+
254.1207	10	C13H20NO2S+
261.0942	6	C15H17O2S+
278.1207	126	C15H20NO2S+
279.1043	16	C15H19O3S+
280.1363	64	C15H22NO2S+
296.1314	449	C15H22NO3S+
297.1392	18	C15H23NO3S+
298.147	41	C15H24NO3S+
342.1733	999	C17H28NO4S+
