Mass spectrum: Thifensulfuron-methyl; LC-ESI-ITFT; MS2; CE: 75%; R=15000; [M+H]+
Name: Thifensulfuron-methyl
Name: 3-[(4-methoxy-6-methyl-s-triazin-2-yl)carbamoylsulfamoyl]thiophene-2-carboxylic acid methyl ester
Formula: C12H13N5O6S2
Exact mass: 387.0307
SMILES: COC(=O)C1=C(C=CS1)S(=O)(=O)NC(=O)NC1=NC(C)=NC(OC)=N1
InChI: InChI=1S/C12H13N5O6S2/c1-6-13-10(16-12(14-6)23-3)15-11(19)17-25(20,21)7-4-5-24-8(7)9(18)22-2/h4-5H,1-3H3,(H2,13,14,15,16,17,19)
Instrument: LTQ Orbitrap XL Thermo Scientific
Instrument type: LC-ESI-ITFT
Ms type: MS2
Ion mode: POSITIVE
Ionization: ESI
Fragmentation mode: HCD
Collision energy: 75 % (nominal)
Resolution: 15000
Column name: XBridge C18 3.5um, 2.1x50mm, Waters
Retention time: 7.2 min
Base peak: 388.0375
Precursor m/z: 388.038
Precursor type: [M+H]+
m/z	relative intensity	assigned
67.0292	3	C3H3N2+
69.0083	76	C2HN2O+
69.9871	28	C3H2S+
70.9948	5	C3H3S+
73.0104	3	C3H5S+
78.9848	75	CH3O2S+
82.9951	11	C4H3S+
83.024	200	C3H3N2O+
85.0106	21	C4H5S+
85.0396	12	C3H5N2O+
86.9899	19	C3H3OS+
97.9821	139	C4H2OS+
100.0506	28	C3H6N3O+
107.9902	7	C5H2NS+
110.9899	17	C5H3OS+
111.0011	13	C4H3N2S+
113.0053	4	C5H5OS+
114.9846	5	C4H3O2S+
123.9852	16	C5H2NOS+
125.977	999	C5H2O2S+
126.9847	18	C5H3O2S+
141.0005	211	C6H5O2S+
141.0771	207	C5H9N4O+
143.9875	38	C5H4O3S+
151.9801	11	C6H2NO2S+
167.0563	531	C6H7N4O2+
171.9517	3	C5H2NO2S2+
174.9518	84	C5H3O3S2+
189.9627	25	C5H4NO3S2+
204.9623	243	C6H5O4S2+
215.9419	20	C6H2NO4S2+
325.9697	4	C8H2N6O7S+
