Mass spectrum: Fenthion-sulfoxide; LC-ESI-QFT; MS2; CE: 45; R=35000; [M+H]+
Name: Fenthion-sulfoxide
Name: Mesulfenos
Name: O,O-Dimethyl O-[3-methyl-4-(methylsulfinyl)phenyl] phosphorothioate
Formula: C10H15O4PS2
Exact mass: 294.01494
SMILES: CC1=C(C=CC(=C1)OP(=S)(OC)OC)S(=O)C
InChI: InChI=1S/C10H15O4PS2/c1-8-7-9(5-6-10(8)17(4)11)14-15(16,12-2)13-3/h5-7H,1-4H3
Instrument: Q Exactive Plus Orbitrap Thermo Scientific
Instrument type: LC-ESI-QFT
Ms type: MS2
Ion mode: POSITIVE
Ionization: ESI
Fragmentation mode: HCD
Collision energy: 45 (nominal)
Resolution: 35000
Column name: XBridge C18 3.5um, 2.1x50mm, Waters
Retention time: 7.4 min
Base peak: 295.0216
Precursor m/z: 295.0222
Precursor type: [M+H]+
m/z	relative intensity	assigned
53.0385	1	C4H5+
64.9786	1	H2O2P+
77.0385	3	C6H5+
78.0464	18	C6H6+
78.9943	26	CH4O2P+
79.0542	7	C6H7+
80.0621	1	C6H8+
90.0464	4	C7H6+
91.0542	19	C7H7+
92.0621	6	C7H8+
93.0101	103	C2H6O2P+
95.0491	3	C6H7O+
103.0542	2	C8H7+
104.0621	109	C8H8+
105.0699	204	C8H9+
107.0492	7	C7H7O+
108.0568	1	C7H8O+
109.0045	17	C2H6O3P+
109.0106	16	C6H5S+
110.0128	5	C2H7O3P+
110.0184	15	C6H6S+
111.0263	100	C6H7S+
112.9997	6	CH6O4P+
117.0697	1	C9H9+
119.0859	2	C9H11+
121.0105	14	C7H5S+
121.0649	20	C8H9O+
122.0185	21	C7H6S+
122.0727	11	C8H10O+
123.0263	27	C7H7S+
124.0342	11	C7H8S+
124.9822	99	C2H6O2PS+
127.0155	918	C2H8O4P+
127.9749	2	C5H4S2+
134.0186	22	C8H6S+
135.0263	48	C8H7S+
136.0342	44	C8H8S+
136.052	7	C8H8O2+
137.0056	20	C7H5OS+
137.042	70	C8H9S+
138.0135	53	C7H6OS+
138.0498	22	C8H10S+
139.0213	137	C7H7OS+
140.0291	1	C7H8OS+
140.9827	1	C6H5S2+
141.0312	3	C3H10O4P+
141.9848	12	C2H7O3PS+
141.9907	9	C6H6S2+
142.9928	171	C2H8O3PS+
149.042	3	C9H9S+
150.0498	2	C9H10S+
151.0577	37	C9H11S+
151.975	7	C7H4S2+
152.0291	2	C8H8OS+
152.9828	116	C7H5S2+
153.0369	13	C8H9OS+
153.9906	224	C7H6S2+
154.0447	69	C8H10OS+
154.9983	4	C7H7S2+
155.0161	8	C7H7O2S+
156.0062	3	C7H8S2+
157.0082	2	C3H10O3PS+
165.9907	21	C8H6S2+
166.9985	38	C8H7S2+
168.0062	24	C8H8S2+
168.0604	6	C9H12OS+
168.9778	17	C7H5OS2+
168.9866	7	C7H6OPS+
169.0141	72	C8H9S2+
169.9855	142	C7H6OS2+
170.0219	140	C8H10S2+
170.9933	45	C7H7OS2+
184.001	3	C8H8OS2+
184.0375	19	C9H12S2+
185.0091	9	C8H9OS2+
185.0361	2	C8H10O3P+
186.0169	38	C8H10OS2+
186.9978	1	C7H8O2PS+
199.052	48	C9H12O3P+
200.0056	117	C8H9O2PS+
201.0135	6	C8H10O2PS+
201.0403	16	C9H13OS2+
202.9925	1	C7H8O3PS+
204.9542	1	C6H6O2PS2+
213.0135	1	C9H10O2PS+
214.9932	5	C8H8O3PS+
215.9467	5	C7H5O2PS2+
216.0009	4	C8H9O3PS+
217.0085	15	C8H10O3PS+
217.0627	7	C9H14O4P+
217.9619	1	C7H7O2PS2+
218.0166	3	C8H11O3PS+
219.024	6	C8H12O3PS+
229.0085	21	C9H10O3PS+
229.9622	14	C8H7O2PS2+
230.0164	1	C9H11O3PS+
230.9702	5	C8H8O2PS2+
231.024	21	C9H12O3PS+
231.9779	35	C8H9O2PS2+
232.0319	321	C9H13O3PS+
232.9495	2	C7H6O3PS2+
232.9856	3	C8H10O2PS2+
233.0397	8	C9H14O3PS+
245.0398	47	C10H14O3PS+
245.9933	25	C9H11O2PS2+
246.9648	65	C8H8O3PS2+
247.019	13	C9H12O4PS+
247.9727	53	C8H9O3PS2+
248.9805	10	C8H10O3PS2+
249.9885	19	C8H11O3PS2+
261.9883	217	C9H11O3PS2+
262.9961	145	C9H12O3PS2+
264.004	75	C9H13O3PS2+
264.0208	5	C9H13O5PS+
264.9753	34	C8H10O4PS2+
265.9829	8	C8H11O4PS2+
278.0197	412	C10H15O3PS2+
279.9989	999	C9H13O4PS2+
281.0067	6	C9H14O4PS2+
295.0224	45	C10H16O4PS2+
