Mass spectrum: Diniconazole; LC-ESI-QFT; MS2; CE: 60%; R=17500; [M+H]+
Name: Diniconazole
Name: 1-(2,4-dichlorophenyl)-4,4-dimethyl-2-(1,2,4-triazol-1-yl)pent-1-en-3-ol
Formula: C15H17Cl2N3O
Exact mass: 325.0749
SMILES: CC(C)(C)C(C(=CC1=C(C=C(C=C1)Cl)Cl)N2C=NC=N2)O
InChI: InChI=1S/C15H17Cl2N3O/c1-15(2,3)14(21)13(20-9-18-8-19-20)6-10-4-5-11(16)7-12(10)17/h4-9,14,21H,1-3H3
Instrument: Exploris 240 Orbitrap Thermo Scientific
Instrument type: LC-ESI-QFT
Ms type: MS2
Ion mode: POSITIVE
Ionization: ESI
Fragmentation mode: HCD
Collision energy: 60 % (nominal)
Resolution: 17500
Column name: XBridge C18 3.5um, 2.1x50mm, Waters
Retention time: 12.153 min
Base peak: 326.0822
Precursor m/z: 326.0821
Precursor type: [M+H]+
m/z	relative intensity	assigned
57.07	19	C4H9+
69.0699	8	C5H9+
70.04	999	C2H4N3+
87.0805	8	C5H11O+
158.9764	66	C7H5Cl2+
169.1016	4	C13H13+
170.9767	6	C8H5Cl2+
172.9554	17	C7H3Cl2O+
172.9924	4	C8H7Cl2+
176.039	6	C11H9Cl+
204.07	8	C13H13Cl+
