Mass spectrum: Valsartan; LC-ESI-ITFT; MS2; CE: 45%; R=15000; [M+H]+
Name: Valsartan
Name: (2S)-3-methyl-2-[1-oxopentyl-[[4-[2-(2H-tetrazol-5-yl)phenyl]phenyl]methyl]amino]butanoic acid
Formula: C24H29N5O3
Exact mass: 435.2270
SMILES: CCCCC(=O)N(CC1=CC=C(C=C1)C2=C(C=CC=C2)C3=NN=NN3)[C@@H](C(C)C)C(O)=O
InChI: InChI=1S/C24H29N5O3/c1-4-5-10-21(30)29(22(16(2)3)24(31)32)15-17-11-13-18(14-12-17)19-8-6-7-9-20(19)23-25-27-28-26-23/h6-9,11-14,16,22H,4-5,10,15H2,1-3H3,(H,31,32)(H,25,26,27,28)/t22-/m0/s1
Instrument: LTQ Orbitrap XL Thermo Scientific
Instrument type: LC-ESI-ITFT
Ms type: MS2
Ion mode: POSITIVE
Ionization: ESI
Fragmentation mode: HCD
Collision energy: 45 % (nominal)
Resolution: 15000
Column name: XBridge C18 3.5um, 2.1x50mm, Waters
Retention time: 11.2 min
Base peak: 436.2337
Precursor m/z: 436.2343
Precursor type: [M+H]+
m/z	relative intensity	assigned
79.0542	2	C6H7+
80.0494	2	C5H6N+
84.0809	3	C5H10N+
98.06	3	C5H8NO+
115.0541	3	C9H7+
129.045	2	C8H5N2+
140.0495	9	C10H6N+
153.0699	29	C12H9+
163.054	4	C13H7+
165.0701	5	C13H9+
166.0652	3	C12H8N+
167.073	7	C12H9N+
167.0854	1	C13H11+
178.065	7	C13H8N+
178.0778	60	C14H10+
179.0727	3	C13H9N+
179.0855	15	C14H11+
180.0808	235	C13H10N+
181.065	1	C13H9O+
181.0761	1	C12H9N2+
190.0652	170	C14H8N+
191.0731	19	C14H9N+
192.0682	36	C13H8N2+
192.0807	40	C14H10N+
193.0884	6	C14H11N+
194.0964	45	C14H12N+
195.0805	5	C14H11O+
196.076	3	C13H10NO+
205.0762	13	C14H9N2+
206.0839	112	C14H10N2+
207.0917	999	C14H11N2+
208.0756	70	C14H10NO+
209.1072	33	C14H13N2+
210.0912	46	C14H12NO+
221.1074	1	C15H13N2+
235.0977	163	C14H11N4+
263.1543	2	C18H19N2+
273.1382	1	C19H17N2+
290.1406	3	C17H16N5+
291.1492	161	C19H19N2O+
306.1712	6	C18H20N5+
