Mass spectrum: Pymetrozine-TP CGA294849; LC-ESI-QFT; MS2; CE: 30%; R=17500; [M+H]+
Name: Pymetrozine-TP CGA294849
Name: 4-amino-6-methyl-2H-1,2,4-triazine-3,5-dione
Formula: C4H6N4O2
Exact mass: 142.0491
SMILES: CC1=NNC(=O)N(N)C1=O
InChI: InChI=1S/C4H6N4O2/c1-2-3(9)8(5)4(10)7-6-2/h5H2,1H3,(H,7,10)
Instrument: Q Exactive Plus Orbitrap Thermo Scientific
Instrument type: LC-ESI-QFT
Ms type: MS2
Ion mode: POSITIVE
Ionization: ESI
Fragmentation mode: HCD
Collision energy: 30 % (nominal)
Resolution: 17500
Column name: XBridge C18 3.5um, 2.1x50mm, Waters
Retention time: 1.128 min
Base peak: 143.0565
Precursor m/z: 143.0564
Precursor type: [M+H]+
m/z	relative intensity	assigned
59.0239	43	CH3N2O+
83.024	385	C3H3N2O+
101.0345	18	C3H5N2O2+
114.0425	62	C4H6N2O2+
115.0614	95	C3H7N4O+
143.0564	999	C4H7N4O2+
