Mass spectrum: EDDP; LC-ESI-ITFT; MS2; CE: 35%; R=7500; [M+H]+
Name: EDDP
Name: (2E)-2-ethylidene-1,5-dimethyl-3,3-diphenyl-pyrrolidine
Formula: C20H23N
Exact mass: 277.1830
SMILES: C/C=C/1\C(CC(N1C)C)(C2=CC=CC=C2)C3=CC=CC=C3
InChI: InChI=1S/C20H23N/c1-4-19-20(15-16(2)21(19)3,17-11-7-5-8-12-17)18-13-9-6-10-14-18/h4-14,16H,15H2,1-3H3/b19-4+
Instrument: LTQ Orbitrap XL Thermo Scientific
Instrument type: LC-ESI-ITFT
Ms type: MS2
Ion mode: POSITIVE
Ionization: ESI
Fragmentation mode: CID
Collision energy: 35 % (nominal)
Resolution: 7500
Column name: XBridge C18 3.5um, 2.1x50mm, Waters
Retention time: 6.5 min
Base peak: 278.1909
Precursor m/z: 278.1903
Precursor type: [M+H]+
m/z	relative intensity	assigned
118.0648	1	C8H8N+
172.1113	3	C12H14N+
186.1281	2	C13H16N+
200.1432	15	C14H18N+
201.1511	9	C14H19N+
219.1042	1	C16H13N+
234.1277	177	C17H16N+
236.1433	1	C17H18N+
248.1438	25	C18H18N+
249.1515	999	C18H19N+
250.1593	8	C18H20N+
263.1663	5	C19H21N+
