Mass spectrum: Normianserin; LC-ESI-QFT; MS2; CE: 120; R=35000; [M+H]+
Name: Normianserin
Name: N-desmethylmianserin
Name: 1,2,3,4,10,14b-Hexahydrodibenzo[c,f]pyrazino[1,2-a]azepine
Formula: C17H18N2
Exact mass: 250.14700
SMILES: C3c1ccccc1C2CNCCN2c4ccccc34
InChI: InChI=1S/C17H18N2/c1-3-7-15-13(5-1)11-14-6-2-4-8-16(14)19-10-9-18-12-17(15)19/h1-8,17-18H,9-12H2
Instrument: Q Exactive Plus Orbitrap Thermo Scientific
Instrument type: LC-ESI-QFT
Ms type: MS2
Ion mode: POSITIVE
Ionization: ESI
Fragmentation mode: HCD
Collision energy: 120 (nominal)
Resolution: 35000
Column name: XBridge C18 3.5um, 2.1x50mm, Waters
Retention time: 6.7 min
Base peak: 251.1539
Precursor m/z: 251.1543
Precursor type: [M+H]+
m/z	relative intensity	assigned
50.0151	23	C4H2+
51.0229	24	C4H3+
53.0386	66	C4H5+
54.0338	3	C3H4N+
55.0178	3	C3H3O+
56.0495	16	C3H6N+
58.0651	1	C3H8N+
62.015	1	C5H2+
63.0228	12	C5H3+
65.0385	303	C5H5+
66.0464	14	C5H6+
67.0542	1	C5H7+
68.0494	1	C4H6N+
71.0603	18	C3H7N2+
75.0229	1	C6H3+
77.0385	147	C6H5+
78.0337	3	C5H4N+
78.0463	41	C6H6+
79.0542	105	C6H7+
80.0494	10	C5H6N+
81.0334	9	C5H5O+
83.0603	4	C4H7N2+
84.068	1	C4H8N2+
89.0385	95	C7H5+
90.0464	82	C7H6+
91.0542	999	C7H7+
92.0494	37	C6H6N+
92.062	4	C7H8+
93.0573	73	C6H7N+
93.0698	11	C7H9+
94.0413	5	C6H6O+
94.065	13	C6H8N+
95.0491	248	C6H7O+
96.0443	5	C5H6NO+
102.0464	13	C8H6+
103.0542	209	C8H7+
104.0494	25	C7H6N+
104.0621	4	C8H8+
105.0447	138	C6H5N2+
105.0698	95	C8H9+
106.0651	75	C7H8N+
109.0648	1	C7H9O+
114.0466	1	C9H6+
115.0542	422	C9H7+
116.0494	38	C8H6N+
116.062	57	C9H8+
117.0572	274	C8H7N+
117.0697	28	C9H9+
118.065	247	C8H8N+
119.0603	3	C7H7N2+
119.0729	17	C8H9N+
119.0854	1	C9H11+
120.0807	37	C8H10N+
126.0463	1	C10H6+
127.0542	6	C10H7+
128.0494	18	C9H6N+
128.062	83	C10H8+
129.0447	4	C8H5N2+
129.0573	4	C9H7N+
129.0698	12	C10H9+
130.0651	216	C9H8N+
131.0603	13	C8H7N2+
131.0729	20	C9H9N+
132.0682	12	C8H8N2+
132.0807	42	C9H10N+
134.0599	3	C8H8NO+
139.0543	1	C11H7+
140.0496	1	C10H6N+
140.0618	1	C11H8+
141.0697	12	C11H9+
142.0651	11	C10H8N+
143.0729	27	C10H9N+
144.0807	24	C10H10N+
145.0648	8	C10H9O+
145.076	4	C9H9N2+
146.0601	8	C9H8NO+
146.0962	1	C10H12N+
147.0916	10	C9H11N2+
151.0542	1	C12H7+
152.062	37	C12H8+
153.0697	10	C12H9+
154.0647	1	C11H8N+
155.0602	15	C10H7N2+
156.0807	4	C11H10N+
159.0915	3	C10H11N2+
164.062	4	C13H8+
165.0698	244	C13H9+
166.0653	3	C12H8N+
166.0776	33	C13H10+
167.0729	18	C12H9N+
167.0851	1	C13H11+
168.0811	1	C12H10N+
169.0645	6	C12H9O+
176.062	27	C14H8+
177.0578	1	C13H7N+
177.0697	26	C14H9+
178.0776	164	C14H10+
179.0733	6	C13H9N+
179.0854	26	C14H11+
180.0806	20	C13H10N+
189.0697	21	C15H9+
190.0649	4	C14H8N+
190.0775	6	C15H10+
191.0729	23	C14H9N+
191.0853	14	C15H11+
192.0806	88	C14H10N+
193.0885	192	C14H11N+
194.0963	6	C14H12N+
202.0774	10	C16H10+
203.0724	4	C15H9N+
203.086	1	C16H11+
204.0807	67	C15H10N+
205.0759	1	C14H9N2+
205.0883	5	C15H11N+
206.0964	51	C15H12N+
207.1042	11	C15H13N+
208.1123	1	C15H14N+
216.0807	14	C16H10N+
217.0885	61	C16H11N+
218.0848	2	C15H10N2+
218.0962	18	C16H12N+
219.0916	5	C15H11N2+
219.104	1	C16H13N+
220.1121	1	C16H14N+
230.0962	1	C17H12N+
233.1071	1	C16H13N2+
