Mass spectrum: Irbesartan; LC-ESI-ITFT; MS2; CE: 60%; R=15000; [M+H]+
Name: Irbesartan
Name: 8-butyl-7-[4-[2-(2H-tetrazol-5-yl)phenyl]benzyl]-7,9-diazaspiro[4.4]non-8-en-6-one
Formula: C25H28N6O
Exact mass: 428.2325
SMILES: C12(C(N(Cc3ccc(c4c(c5[nH]nnn5)cccc4)cc3)C(=N1)CCCC)=O)CCCC2
InChI: InChI=1S/C25H28N6O/c1-2-3-10-22-26-25(15-6-7-16-25)24(32)31(22)17-18-11-13-19(14-12-18)20-8-4-5-9-21(20)23-27-29-30-28-23/h4-5,8-9,11-14H,2-3,6-7,10,15-17H2,1H3,(H,27,28,29,30)
Instrument: LTQ Orbitrap XL Thermo Scientific
Instrument type: LC-ESI-ITFT
Ms type: MS2
Ion mode: POSITIVE
Ionization: ESI
Fragmentation mode: HCD
Collision energy: 60 % (nominal)
Resolution: 15000
Column name: XBridge C18 3.5um, 2.1x50mm, Waters
Retention time: 9.2 min
Base peak: 429.2411
Precursor m/z: 429.2397
Precursor type: [M+H]+
m/z	relative intensity	assigned
67.0542	3	C5H7+
77.0385	5	C6H5+
79.0542	10	C6H7+
80.0495	12	C5H6N+
84.0808	123	C5H10N+
112.0758	3	C6H10NO+
129.0445	10	C8H5N2+
140.0493	7	C10H6N+
151.0538	2	C12H7+
152.062	11	C12H8+
153.0698	28	C12H9+
163.0544	4	C13H7+
165.0698	17	C13H9+
166.065	10	C12H8N+
166.0777	9	C13H10+
167.073	12	C12H9N+
167.1542	23	C10H19N2+
178.0652	41	C13H8N+
179.0603	3	C12H7N2+
179.0729	27	C13H9N+
180.0807	316	C13H10N+
181.0756	5	C12H9N2+
182.0599	5	C12H8NO+
190.0651	65	C14H8N+
191.0728	7	C14H9N+
192.0682	74	C13H8N2+
192.0807	123	C14H10N+
194.0601	12	C13H8NO+
195.1491	65	C11H19N2O+
196.0755	29	C13H10NO+
205.076	96	C14H9N2+
206.0839	255	C14H10N2+
207.0918	999	C14H11N2+
208.0755	14	C14H10NO+
211.0629	3	C13H9NO2+
