Mass spectrum: Fluacrypyrim; LC-ESI-QFT; MS2; CE: 75%; R=17500; [M+H]+
Name: Fluacrypyrim
Name: Methyl 3-methoxy-2-[2-(2-isopropoxy-6-trifluoromethylpyrimidin-4-yloxymethyl) phenyl]acrylate
Name: methyl 3-methoxy-2-[2-[[2-propan-2-yloxy-6-(trifluoromethyl)pyrimidin-4-yl]oxymethyl]phenyl]prop-2-enoate
Formula: C20H21F3N2O5
Exact mass: 426.1403
SMILES: CC(C)OC1=NC(=CC(=N1)OCC2=CC=CC=C2C(=COC)C(=O)OC)C(F)(F)F
InChI: InChI=1S/C20H21F3N2O5/c1-12(2)30-19-24-16(20(21,22)23)9-17(25-19)29-10-13-7-5-6-8-14(13)15(11-27-3)18(26)28-4/h5-9,11-12H,10H2,1-4H3
Instrument: Exploris 240 Orbitrap Thermo Scientific
Instrument type: LC-ESI-QFT
Ms type: MS2
Ion mode: POSITIVE
Ionization: ESI
Fragmentation mode: HCD
Collision energy: 75 % (nominal)
Resolution: 17500
Column name: XBridge C18 3.5um, 2.1x50mm, Waters
Retention time: 12.205 min
Base peak: 326.0822
Precursor m/z: 427.1475
Precursor type: [M+H]+
m/z	relative intensity	assigned
91.0542	148	C7H7+
102.0464	213	C8H6+
103.0541	108	C8H7+
115.0541	785	C9H7+
116.0624	31	C9H8+
117.0698	688	C9H9+
128.0625	22	C10H8+
129.0702	19	C10H9+
130.0413	251	C9H6O+
131.0491	86	C9H7O+
131.0854	11	C10H11+
145.0647	999	C10H9O+
146.0724	83	C10H10O+
