Mass spectrum: Azinphos-ethyl; LC-ESI-QFT; MS2; CE: 90; R=35000; [M+H]+
Name: Azinphos-ethyl
Name: Azinphos ethyl
Name: 3-(diethoxyphosphinothioylsulfanylmethyl)-1,2,3-benzotriazin-4-one
Formula: C12H16N3O3PS2
Exact mass: 345.03707
SMILES: CCOP(=S)(OCC)SCN1C(=O)C2=CC=CC=C2N=N1
InChI: InChI=1S/C12H16N3O3PS2/c1-3-17-19(20,18-4-2)21-9-15-12(16)10-7-5-6-8-11(10)13-14-15/h5-8H,3-4,9H2,1-2H3
Instrument: Q Exactive Plus Orbitrap Thermo Scientific
Instrument type: LC-ESI-QFT
Ms type: MS2
Ion mode: POSITIVE
Ionization: ESI
Fragmentation mode: HCD
Collision energy: 90 (nominal)
Resolution: 35000
Column name: XBridge C18 3.5um, 2.1x50mm, Waters
Retention time: 11.4 min
Base peak: 346.0438
Precursor m/z: 346.0443
Precursor type: [M+H]+
m/z	relative intensity	assigned
50.0152	55	C4H2+
51.023	205	C4H3+
53.0386	106	C4H5+
55.0179	6	C3H3O+
59.9665	1	COS+
62.9453	1	PS+
63.023	1	C5H3+
64.9788	163	H2O2P+
65.0386	102	C5H5+
67.0543	4	C5H7+
68.9794	12	C3HS+
75.0229	28	C6H3+
76.0182	4	C5H2N+
77.0386	218	C6H5+
78.0339	6	C5H4N+
78.0465	6	C6H6+
78.9402	30	OPS+
81.0335	12	C5H5O+
92.0257	7	C6H4O+
94.0414	6	C6H6O+
95.0492	372	C6H7O+
96.0444	5	C5H6NO+
96.9509	109	H2O2PS+
97.0108	10	CH8NPS+
98.9842	15	H4O4P+
102.0339	33	C7H4N+
103.0543	5	C8H7+
104.0496	70	C7H6N+
105.0336	35	C7H5O+
105.0449	223	C6H5N2+
108.0029	26	C6H4S+
109.0108	428	C6H5S+
110.9667	1	CH4O2PS+
114.9615	999	H4O3PS+
120.0444	12	C7H6NO+
121.0106	2	C7H5S+
121.0282	1	C7H5O2+
128.9772	13	CH6O3PS+
130.0401	46	C7H4N3+
132.0445	5	C8H6NO+
132.972	5	H6O4PS+
135.998	28	C3H7NOPS+
136.0217	1	C3H9N2PS+
137.0057	103	C3H8NOPS+
142.9385	9	CH4O2PS2+
153.0008	10	C3H8NO2PS+
154.9715	5	C6H4OPS+
170.9488	6	C6H4PS2+
