Mass spectrum: N-ethyl-4-methoxybenzamide; LC-ESI-QFT; MS2; CE: 15; R=35000; [M+H]+
Name: N-ethyl-4-methoxybenzamide
Formula: C10H13NO2
Exact mass: 179.09463
SMILES: O=C(c1ccc(OC)cc1)NCC
InChI: InChI=1S/C10H13NO2/c1-3-11-10(12)8-4-6-9(13-2)7-5-8/h4-7H,3H2,1-2H3,(H,11,12)
Instrument: Q Exactive Orbitrap Thermo Scientific
Instrument type: LC-ESI-QFT
Ms type: MS2
Ion mode: POSITIVE
Ionization: ESI
Fragmentation mode: HCD
Collision energy: 15 (nominal)
Resolution: 35000
Column name: XBridge C18 3.5um, 2.1x50mm, Waters
Retention time: 5.6 min
Base peak: 180.1017
Precursor m/z: 180.1019
Precursor type: [M+H]+
m/z	relative intensity	assigned
72.0443	33	C3H6NO+
77.0383	2	C6H5+
92.0254	2	C6H4O+
94.0412	7	C6H6O+
95.0492	2	C6H7O+
109.0647	126	C7H9O+
135.0439	773	C8H7O2+
180.1018	999	C10H14NO2+
