Mass spectrum: Minocycline; LC-ESI-QFT; MS2; CE: 120; R=35000; [M-H]-
Name: Minocycline
Name: Minocin
Name: (4S,4aS,5aR,12aS)-4,7-Bis(dimethylamino)-3,10,12,12a-tetrahydroxy-1,11-dioxo-1,4,4a,5,5a,6,11,12a-octahydro-2-tetracenecarboxamide
Formula: C23H27N3O7
Exact mass: 457.18490
SMILES: [H][C@@]12CC3=C(C(O)=CC=C3N(C)C)C(=O)C1=C(O)[C@]1(O)C(=O)C(C(N)=O)=C(O)[C@@H](N(C)C)[C@]1([H])C2
InChI: InChI=1S/C23H27N3O7/c1-25(2)12-5-6-13(27)15-10(12)7-9-8-11-17(26(3)4)19(29)16(22(24)32)21(31)23(11,33)20(30)14(9)18(15)28/h5-6,9,11,17,27,29-30,33H,7-8H2,1-4H3,(H2,24,32)/t9-,11-,17-,23-/m0/s1
Instrument: Q Exactive Plus Orbitrap Thermo Scientific
Instrument type: LC-ESI-QFT
Ms type: MS2
Ion mode: NEGATIVE
Ionization: ESI
Fragmentation mode: HCD
Collision energy: 120 (nominal)
Resolution: 35000
Column name: XBridge C18 3.5um, 2.1x50mm, Waters
Retention time: 3.6 min
Base peak: 456.1772
Precursor m/z: 456.1776
Precursor type: [M-H]-
m/z	relative intensity	assigned
50.0035	27	C3N-
55.0189	4	C3H3O-
63.024	86	C5H3-
64.0193	3	C4H2N-
65.0033	56	C4HO-
65.0396	14	C5H5-
65.9985	195	C3NO-
67.019	13	C4H3O-
68.0142	21	C3H2NO-
68.9982	60	C3HO2-
71.0139	4	C3H3O2-
76.0192	3	C5H2N-
78.0349	4	C5H4N-
79.0189	16	C5H3O-
81.0345	2	C5H5O-
82.0299	3	C4H4NO-
84.009	46	C3H2NO2-
90.0349	4	C6H4N-
91.0188	8	C6H3O-
93.0345	16	C6H5O-
95.0139	11	C5H3O2-
96.0091	98	C4H2NO2-
107.0134	2	C6H3O2-
107.0501	9	C7H7O-
108.0216	4	C6H4O2-
109.0294	33	C6H5O2-
114.0351	3	C8H4N-
116.0506	13	C8H6N-
117.0346	11	C8H5O-
118.0299	4	C7H4NO-
119.0137	8	C7H3O2-
120.0088	3	C6H2NO2-
120.0455	12	C7H6NO-
121.0294	3	C7H5O2-
122.0247	2	C6H4NO2-
122.0373	2	C7H6O2-
123.0452	4	C7H7O2-
128.0505	3	C9H6N-
130.0423	9	C9H6O-
131.0376	13	C8H5NO-
131.0501	4	C9H7O-
132.0455	9	C8H6NO-
134.0247	37	C7H4NO2-
134.0611	34	C8H8NO-
135.0088	10	C7H3O3-
135.0688	4	C8H9NO-
137.024	3	C7H5O3-
139.0149	40	C5H3N2O3-
140.0504	1	C10H6N-
143.0502	3	C10H7O-
144.0454	211	C9H6NO-
145.0295	44	C9H5O2-
146.0248	9	C8H4NO2-
146.0618	2	C9H8NO-
149.0355	10	C7H5N2O2-
150.0194	4	C7H4NO3-
155.0374	11	C10H5NO-
156.0456	16	C10H6NO-
157.053	3	C10H7NO-
158.0372	24	C10H6O2-
158.061	14	C10H8NO-
159.0324	8	C9H5NO2-
159.0451	36	C10H7O2-
160.0402	2	C9H6NO2-
162.0196	13	C8H4NO3-
166.0657	3	C12H8N-
167.0503	15	C12H7O-
168.0455	15	C11H6NO-
170.061	10	C11H8NO-
171.045	3	C11H7O2-
171.0687	3	C11H9NO-
172.0404	999	C10H6NO2-
173.048	234	C10H7NO2-
177.0304	3	C8H5N2O3-
180.0581	4	C13H8O-
181.0534	19	C12H7NO-
181.0664	3	C13H9O-
182.0372	2	C12H6O2-
182.0611	8	C12H8NO-
183.0324	2	C11H5NO2-
183.0453	9	C12H7O2-
184.0402	83	C11H6NO2-
185.048	10	C11H7NO2-
186.0559	172	C11H8NO2-
187.0635	15	C11H9NO2-
188.0717	4	C11H10NO2-
192.0454	8	C13H6NO-
194.061	16	C13H8NO-
195.0448	17	C13H7O2-
196.0403	12	C12H6NO2-
196.0525	9	C13H8O2-
196.0761	2	C13H10NO-
197.0481	13	C12H7NO2-
197.0612	4	C13H9O2-
198.0559	37	C12H8NO2-
199.0635	3	C12H9NO2-
200.0718	4	C12H10NO2-
201.0427	2	C11H7NO3-
204.0579	2	C15H8O-
205.0533	13	C14H7NO-
206.061	8	C14H8NO-
207.0684	2	C14H9NO-
208.0406	3	C13H6NO2-
208.0527	4	C14H8O2-
208.0765	7	C14H10NO-
209.0483	29	C13H7NO2-
209.0606	16	C14H9O2-
210.0559	50	C13H8NO2-
211.0398	12	C13H7O3-
211.0639	9	C13H9NO2-
212.0355	4	C12H6NO3-
212.0716	13	C13H10NO2-
214.0509	81	C12H8NO3-
215.0584	3	C12H9NO3-
218.0608	11	C15H8NO-
219.0691	2	C15H9NO-
220.0402	10	C14H6NO2-
220.0765	3	C15H10NO-
221.0481	27	C14H7NO2-
222.0559	44	C14H8NO2-
223.0401	15	C14H7O3-
223.0633	15	C14H9NO2-
224.0478	18	C14H8O3-
224.0715	27	C14H10NO2-
225.0432	21	C13H7NO3-
225.0549	4	C14H9O3-
226.051	17	C13H8NO3-
226.0879	2	C14H12NO2-
227.0588	16	C13H9NO3-
228.066	3	C13H10NO3-
233.0481	4	C15H7NO2-
234.0559	30	C15H8NO2-
235.0643	7	C15H9NO2-
236.0357	16	C14H6NO3-
236.0716	24	C15H10NO2-
237.0431	40	C14H7NO3-
237.0549	3	C15H9O3-
237.079	2	C15H11NO2-
238.0508	88	C14H8NO3-
239.0583	13	C14H9NO3-
240.0663	15	C14H10NO3-
242.082	9	C14H12NO3-
246.0563	9	C16H8NO2-
247.0641	8	C16H9NO2-
248.0716	3	C16H10NO2-
249.0431	15	C15H7NO3-
249.0552	2	C16H9O3-
249.0789	2	C16H11NO2-
250.0509	68	C15H8NO3-
251.0584	18	C15H9NO3-
252.0666	33	C15H10NO3-
253.0378	9	C14H7NO4-
254.0457	113	C14H8NO4-
254.0822	7	C15H12NO3-
255.0535	10	C14H9NO4-
258.0554	7	C17H8NO2-
260.0719	2	C17H10NO2-
262.0509	11	C16H8NO3-
263.0586	4	C16H9NO3-
264.0668	10	C16H10NO3-
265.0747	3	C16H11NO3-
266.0454	2	C15H8NO4-
267.0524	2	C15H9NO4-
268.0613	10	C15H10NO4-
278.0822	2	C17H12NO3-
