Mass spectrum: Metoclopramide; LC-ESI-ITFT; MS2; CE: 45%; R=15000; [M+H]+
Name: Metoclopramide
Name: 4-amino-5-chloro-N-(2-diethylaminoethyl)-2-methoxy-benzamide
Formula: C14H22ClN3O2
Exact mass: 299.1401
SMILES: c1(cc(C(=O)NCCN(CC)CC)c(cc1N)OC)Cl
InChI: InChI=1S/C14H22ClN3O2/c1-4-18(5-2)7-6-17-14(19)10-8-11(15)12(16)9-13(10)20-3/h8-9H,4-7,16H2,1-3H3,(H,17,19)
Instrument: LTQ Orbitrap XL Thermo Scientific
Instrument type: LC-ESI-ITFT
Ms type: MS2
Ion mode: POSITIVE
Ionization: ESI
Fragmentation mode: HCD
Collision energy: 45 % (nominal)
Resolution: 15000
Column name: XBridge C18 3.5um, 2.1x50mm, Waters
Retention time: 4.3 min
Base peak: 300.1485
Precursor m/z: 300.1473
Precursor type: [M+H]+
m/z	relative intensity	assigned
100.1121	11	C6H14N+
183.0318	28	C8H8ClN2O+
184.016	288	C8H7ClNO2+
212.0346	20	C9H9ClN2O2+
227.0583	999	C10H12ClN2O2+
