Mass spectrum: Propranolol; LC-ESI-QFT; MS2; CE: 45; R=35000; [M+H]+
Name: Propranolol
Name: 1-(1-naphthalenyloxy)-3-(propan-2-ylamino)-2-propanol
Formula: C16H21NO2
Exact mass: 259.15723
SMILES: CC(C)NCC(COC1=CC=CC2=CC=CC=C21)O
InChI: InChI=1S/C16H21NO2/c1-12(2)17-10-14(18)11-19-16-9-5-7-13-6-3-4-8-15(13)16/h3-9,12,14,17-18H,10-11H2,1-2H3
Instrument: Q Exactive Orbitrap Thermo Scientific
Instrument type: LC-ESI-QFT
Ms type: MS2
Ion mode: POSITIVE
Ionization: ESI
Fragmentation mode: HCD
Collision energy: 45 (nominal)
Resolution: 35000
Column name: XBridge C18 3.5um, 2.1x50mm, Waters
Retention time: 6.6 min
Base peak: 260.1646
Precursor m/z: 260.1645
Precursor type: [M+H]+
m/z	relative intensity	assigned
56.0496	204	C3H6N+
58.0652	428	C3H8N+
60.0808	25	C3H10N+
72.0808	652	C4H10N+
74.06	783	C3H8NO+
84.0807	28	C5H10N+
86.0965	74	C5H12N+
90.055	4	C3H8NO2+
91.0542	2	C7H7+
98.0964	473	C6H12N+
100.112	88	C6H14N+
102.0913	3	C5H12NO+
115.0541	17	C9H7+
116.1069	999	C6H14NO+
128.062	7	C10H8+
129.0699	76	C10H9+
132.1021	5	C6H14NO2+
141.0697	81	C11H9+
143.0493	23	C10H7O+
145.0648	77	C10H9O+
153.0699	46	C12H9+
154.0776	3	C12H10+
155.0855	417	C12H11+
157.0648	472	C11H9O+
165.0699	120	C13H9+
168.0568	29	C12H8O+
171.0799	21	C12H11O+
181.0645	4	C13H9O+
182.0726	2	C13H10O+
183.0805	753	C13H11O+
185.0966	2	C13H13O+
218.1175	52	C13H16NO2+
242.1539	2	C16H20NO+
260.1644	262	C16H22NO2+
