Mass spectrum: Azoxystrobin (free acid); LC-ESI-ITFT; MS2; CE: 60%; R=7500; [M+H]+
Name: Azoxystrobin (free acid)
Formula: C21H15N3O5
Exact mass: 389.1012
SMILES: O=C(O)/C(=C\OC)c3ccccc3Oc2cc(Oc1ccccc1C#N)ncn2
InChI: InChI=1S/C21H15N3O5/c1-27-12-16(21(25)26)15-7-3-5-9-18(15)29-20-10-19(23-13-24-20)28-17-8-4-2-6-14(17)11-22/h2-10,12-13H,1H3,(H,25,26)/b16-12-
Instrument: LTQ Orbitrap XL Thermo Scientific
Instrument type: LC-ESI-ITFT
Ms type: MS2
Ion mode: POSITIVE
Ionization: ESI
Fragmentation mode: HCD
Collision energy: 60 % (nominal)
Resolution: 7500
Column name: XBridge C18 3.5um, 2.1x50mm, Waters
Retention time: 8.8 min
Base peak: 390.1088
Precursor m/z: 390.1084
Precursor type: [M+H]+
m/z	relative intensity	assigned
65.0385	3	C5H5+
68.9971	4	C3HO2+
79.0542	5	C6H7+
89.0387	23	C7H5+
91.0546	10	C7H7+
102.0466	3	C8H6+
103.054	12	C8H7+
104.0496	14	C7H6N+
105.0335	8	C7H5O+
106.0653	11	C7H8N+
107.0493	23	C7H7O+
114.034	18	C8H4N+
116.0495	18	C8H6N+
117.0571	5	C8H7N+
118.0415	15	C8H6O+
119.0365	11	C7H5NO+
120.0446	63	C7H6NO+
121.0648	15	C8H9O+
127.0419	8	C9H5N+
128.0495	6	C9H6N+
129.0335	25	C9H5O+
129.0448	115	C8H5N2+
130.029	12	C8H4NO+
130.0401	65	C7H4N3+
130.0527	10	C8H6N2+
131.0494	12	C9H7O+
131.061	7	C8H7N2+
132.0447	18	C8H6NO+
133.0281	18	C8H5O2+
133.0523	111	C8H7NO+
134.0601	201	C8H8NO+
140.0497	4	C10H6N+
141.0448	70	C9H5N2+
143.0368	26	C9H5NO+
143.0605	101	C9H7N2+
144.0445	23	C9H6NO+
145.0285	49	C9H5O2+
145.0523	74	C9H7NO+
146.0237	14	C8H4NO2+
146.0607	13	C9H8NO+
147.0429	5	C7H5N3O+
148.0521	7	C9H8O2+
155.0606	34	C10H7N2+
156.0445	319	C10H6NO+
157.0283	28	C10H5O2+
157.0518	5	C10H7NO+
158.0354	6	C8H4N3O+
159.0308	6	C9H5NO2+
159.0554	25	C9H7N2O+
160.0396	16	C9H6NO2+
161.0709	13	C9H9N2O+
162.0317	8	C9H6O3+
162.0556	7	C9H8NO2+
168.0444	6	C11H6NO+
169.0398	98	C10H5N2O+
170.0481	24	C10H6N2O+
170.0604	7	C11H8NO+
171.0317	12	C10H5NO2+
171.0555	80	C10H7N2O+
172.0394	400	C10H6NO2+
173.0474	38	C10H7NO2+
177.0545	37	C10H9O3+
182.0476	44	C11H6N2O+
182.0716	31	C11H8N3+
183.0553	676	C11H7N2O+
184.0397	12	C11H6NO2+
185.0262	8	C14H3N+
186.0554	25	C11H8NO2+
187.0506	30	C10H7N2O2+
196.0514	6	C11H6N3O+
197.0341	14	C11H5N2O2+
197.0705	10	C12H9N2O+
199.0503	164	C11H7N2O2+
200.0343	259	C11H6NO3+
201.0421	218	C11H7NO3+
201.0657	34	C11H9N2O2+
207.0552	10	C13H7N2O+
210.0424	82	C12H6N2O2+
210.0666	29	C12H8N3O+
211.0503	48	C12H7N2O2+
212.0345	6	C12H6NO3+
216.0656	69	C12H10NO3+
218.0841	6	C15H10N2+
227.045	13	C12H7N2O3+
229.0749	5	C16H9N2+
231.091	11	C16H11N2+
232.075	8	C16H10NO+
233.0698	10	C15H9N2O+
235.0636	5	C15H9NO2+
242.0324	133	C12H6N2O4+
244.0876	17	C16H10N3+
245.0712	26	C16H9N2O+
245.097	15	C18H13O+
246.0786	28	C16H10N2O+
247.0872	8	C16H11N2O+
257.0703	11	C17H9N2O+
258.0793	14	C17H10N2O+
259.0862	13	C17H11N2O+
261.0784	12	C17H11NO2+
262.0868	9	C17H12NO2+
272.0822	176	C17H10N3O+
273.0666	136	C17H9N2O2+
273.0892	116	C17H11N3O+
274.0735	42	C17H10N2O2+
275.0816	41	C17H11N2O2+
284.0819	12	C18H10N3O+
285.0876	6	C15H13N2O4+
287.0814	26	C18H11N2O2+
288.1126	8	C18H14N3O+
289.0967	6	C18H13N2O2+
300.077	193	C18H10N3O2+
301.0845	354	C18H11N3O2+
303.0773	4	C18H11N2O3+
312.0767	10	C19H10N3O2+
314.0927	10	C19H12N3O2+
315.0985	10	C16H15N2O5+
316.1052	7	C16H16N2O5+
328.0718	511	C19H10N3O3+
329.0795	999	C21H13O4+
344.1033	81	C20H14N3O3+
