Mass spectrum: Triamterene; LC-ESI-QFT; MS2; CE: 120; R=35000; [M+H]+
Name: Triamterene
Name: 6-phenylpteridine-2,4,7-triamine
Formula: C12H11N7
Exact mass: 253.10759
SMILES: C1=CC=C(C=C1)C2=NC3=C(N=C2N)N=C(N=C3N)N
InChI: InChI=1S/C12H11N7/c13-9-7(6-4-2-1-3-5-6)16-8-10(14)18-12(15)19-11(8)17-9/h1-5H,(H6,13,14,15,17,18,19)
Instrument: Q Exactive Plus Orbitrap Thermo Scientific
Instrument type: LC-ESI-QFT
Ms type: MS2
Ion mode: POSITIVE
Ionization: ESI
Fragmentation mode: HCD
Collision energy: 120 (nominal)
Resolution: 35000
Column name: XBridge C18 3.5um, 2.1x50mm, Waters
Retention time: 4.5 min
Base peak: 254.1144
Precursor m/z: 254.1149
Precursor type: [M+H]+
m/z	relative intensity	assigned
50.0151	8	C4H2+
51.0229	9	C4H3+
53.0386	40	C4H5+
53.9975	6	C2NO+
55.0179	3	C3H3O+
55.0291	36	C2H3N2+
62.015	1	C5H2+
63.0229	14	C5H3+
65.0135	44	C3HN2+
65.0386	4	C5H5+
66.0464	4	C5H6+
67.0291	15	C3H3N2+
68.0244	14	C2H2N3+
75.0229	3	C6H3+
76.0183	1	C5H2N+
76.0307	2	C6H4+
77.0386	82	C6H5+
79.0542	48	C6H7+
80.0243	55	C3H2N3+
81.0337	6	C5H5O+
82.04	13	C3H4N3+
89.0386	398	C7H5+
90.0087	16	C4N3+
90.0339	8	C6H4N+
90.0465	7	C7H6+
91.0416	2	C6H5N+
91.0543	9	C7H7+
92.0244	147	C4H2N3+
94.0413	1	C6H6O+
95.0492	125	C6H7O+
102.034	5	C7H4N+
103.0417	77	C7H5N+
104.0495	999	C7H6N+
105.0448	83	C6H5N2+
106.0651	5	C7H8N+
107.0353	11	C4H3N4+
114.0339	84	C8H4N+
115.0418	15	C8H5N+
116.0495	498	C8H6N+
117.0196	3	C5HN4+
117.0573	31	C8H7N+
120.0443	3	C7H6NO+
122.0601	1	C7H8NO+
126.0339	1	C9H4N+
128.037	18	C8H4N2+
129.0448	37	C8H5N2+
130.0401	13	C7H4N3+
131.0605	77	C8H7N2+
132.0445	9	C8H6NO+
133.0526	2	C8H7NO+
134.0601	24	C8H8NO+
139.0291	15	C9H3N2+
141.0448	721	C9H5N2+
142.0527	119	C9H6N2+
143.0605	41	C9H7N2+
144.0559	4	C8H6N3+
153.0449	12	C10H5N2+
154.0402	3	C9H4N3+
156.0557	6	C9H6N3+
157.0399	2	C9H5N2O+
158.0714	1	C9H8N3+
159.0555	10	C9H7N2O+
166.04	20	C10H4N3+
167.0479	7	C10H5N3+
168.0558	104	C10H6N3+
169.0511	4	C9H5N4+
169.0635	8	C10H7N3+
183.0668	18	C10H7N4+
184.0505	5	C10H6N3O+
184.0742	2	C10H8N4+
185.0824	5	C10H9N4+
193.0512	15	C11H5N4+
194.0466	1	C10H4N5+
195.0667	24	C11H7N4+
210.0776	12	C11H8N5+
235.0724	1	C12H7N6+
237.0884	2	C12H9N6+
