Mass spectrum: Aminopyrine; LC-ESI-ITFT; MS2; CE: 90%; R=30000; [M+H]+
Name: Aminopyrine
Name: 4-(dimethylamino)-1,5-dimethyl-2-phenyl-3-pyrazolin-3-one
Formula: C13H17N3O
Exact mass: 231.1372
SMILES: c(ccc1N(N(C=2C)C)C(=O)C2N(C)C)cc1
InChI: InChI=1S/C13H17N3O/c1-10-12(14(2)3)13(17)16(15(10)4)11-8-6-5-7-9-11/h5-9H,1-4H3
Instrument: LTQ Orbitrap XL Thermo Scientific
Instrument type: LC-ESI-ITFT
Ms type: MS2
Ion mode: POSITIVE
Ionization: ESI
Fragmentation mode: HCD
Collision energy: 90 % (nominal)
Resolution: 30000
Column name: XBridge C18 3.5um, 2.1x50mm, Waters
Retention time: 2.6 min
Base peak: 232.1453
Precursor m/z: 232.1444
Precursor type: [M+H]+
m/z	relative intensity	assigned
56.0495	440	C3H6N+
58.0652	491	C3H8N+
68.0495	9	C4H6N+
70.0652	244	C4H8N+
72.0808	197	C4H10N+
77.0386	32	C6H5+
79.0543	12	C6H7+
82.0652	27	C5H8N+
83.0604	29	C4H7N2+
84.0444	4	C4H6NO+
84.0681	6	C4H8N2+
84.0808	30	C5H10N+
96.0682	6	C5H8N2+
97.0761	999	C5H9N2+
98.0839	52	C5H10N2+
104.0495	10	C7H6N+
106.0652	124	C7H8N+
111.0917	87	C6H11N2+
113.1074	10	C6H13N2+
118.0652	21	C8H8N+
123.0554	16	C6H7N2O+
128.0495	9	C9H6N+
130.0652	5	C9H8N+
132.0445	14	C8H6NO+
132.0807	10	C9H10N+
133.0759	5	C8H9N2+
159.0917	12	C10H11N2+
199.0866	7	C12H11N2O+
