Mass spectrum: Pyridaphenthion; LC-ESI-QFT; MS2; CE: 75%; R=17500; [M+H]+
Name: Pyridaphenthion
Name: 6-diethoxyphosphinothioyloxy-2-phenylpyridazin-3-one
Formula: C14H17N2O4PS
Exact mass: 340.0647
SMILES: CCOP(=S)(OCC)OC1=NN(C(=O)C=C1)C2=CC=CC=C2
InChI: InChI=1S/C14H17N2O4PS/c1-3-18-21(22,19-4-2)20-13-10-11-14(17)16(15-13)12-8-6-5-7-9-12/h5-11H,3-4H2,1-2H3
Instrument: Exploris 240 Orbitrap Thermo Scientific
Instrument type: LC-ESI-QFT
Ms type: MS2
Ion mode: POSITIVE
Ionization: ESI
Fragmentation mode: HCD
Collision energy: 75 % (nominal)
Resolution: 17500
Column name: XBridge C18 3.5um, 2.1x50mm, Waters
Retention time: 9.373 min
Base peak: 341.0719
Precursor m/z: 341.0719
Precursor type: [M+H]+
m/z	relative intensity	assigned
65.0386	204	C5H5+
70.0287	8	C3H4NO+
92.0495	999	C6H6N+
93.0335	25	C6H5O+
93.0572	28	C6H7N+
96.9508	300	H2O2PS+
102.001	10	C3H4NOS+
104.0498	18	C3H9N2P+
109.011	33	C2H8NPS+
109.0522	19	C6H7NO+
110.9665	17	CH4O2PS+
111.9852	16	C4H2NOS+
114.9614	94	H4O3PS+
116.0497	27	C4H9N2P+
119.0603	15	C7H7N2+
130.0646	9	C9H8N+
143.0605	164	C9H7N2+
144.0446	121	C5H9N2OP+
144.0678	11	C9H8N2+
146.0602	11	C5H11N2OP+
147.0552	13	C8H7N2O+
159.0679	15	C10H9NO+
160.022	18	C5H9N2PS+
161.0708	13	C9H9N2O+
171.0553	67	C10H7N2O+
172.0395	71	C10H6NO2+
177.0479	26	C9H9N2S+
188.0167	10	C6H9N2OPS+
189.0659	358	C10H9N2O2+
205.0433	78	C10H9N2OS+
