Mass spectrum: Linuron; LC-ESI-ITFT; MS2; CE: 90%; R=7500; [M+H]+
Name: Linuron
Name: 3-(3,4-dichlorophenyl)-1-methoxy-1-methyl-urea
Formula: C9H10Cl2N2O2
Exact mass: 248.0114
SMILES: c1(cc(c(Cl)cc1)Cl)NC(N(OC)C)=O
InChI: InChI=1S/C9H10Cl2N2O2/c1-13(15-2)9(14)12-6-3-4-7(10)8(11)5-6/h3-5H,1-2H3,(H,12,14)
Instrument: LTQ Orbitrap XL Thermo Scientific
Instrument type: LC-ESI-ITFT
Ms type: MS2
Ion mode: POSITIVE
Ionization: ESI
Fragmentation mode: HCD
Collision energy: 90 % (nominal)
Resolution: 7500
Column name: XBridge C18 3.5um, 2.1x50mm, Waters
Retention time: 10.0 min
Base peak: 249.0194
Precursor m/z: 249.0192
Precursor type: [M+H]+
m/z	relative intensity	assigned
60.0444	16	C2H6NO+
63.023	6	C5H3+
72.9838	31	C3H2Cl+
82.9449	12	CHCl2+
90.0338	44	C6H4N+
98.9996	31	C5H4Cl+
106.9448	7	C3HCl2+
118.053	9	C7H6N2+
119.0606	7	C7H7N2+
123.9947	69	C9O+
125.0026	503	C6H4ClN+
126.0103	59	C6H5ClN+
132.9606	999	C5H3Cl2+
133.9683	33	C5H4Cl2+
142.0061	14	C6H5ClNO+
153.0213	339	C7H6ClN2+
159.9715	228	C6H4Cl2N+
160.9793	537	C6H5Cl2N+
163.0053	16	C8H4ClN2+
165.0218	17	C8H6ClN2+
167	8	C7H4ClN2O+
173.9872	14	C7H6Cl2N+
181.0163	94	C8H6ClN2O+
182.0243	57	C8H7ClN2O+
201.9687	9	C7H4Cl2N2O+
216.9921	21	C8H7Cl2N2O+
