Mass spectrum: Methylprednisolone; LC-ESI-ITFT; MS2; CE: 75%; R=7500; [M+H]+
Name: Methylprednisolone
Name: (6alpha,11beta)-11,17,21-trihydroxy-6-methylpregna-1,4-diene-3,20-dione
Name: (6S,8S,9S,10R,11S,13S,14S,17R)-11,17-dihydroxy-17-(2-hydroxy-1-oxoethyl)-6,10,13-trimethyl-7,8,9,11,12,14,15,16-octahydro-6H-cyclopenta[a]phenanthren-3-one
Formula: C22H30O5
Exact mass: 374.2093
SMILES: [H][C@@]12CC[C@](O)(C(=O)CO)[C@@]1(C)C[C@H](O)[C@@]3([H])[C@@]2([H])C[C@]([H])(C)C4=CC(=O)C=C[C@]34C
InChI: InChI=1S/C22H30O5/c1-12-8-14-15-5-7-22(27,18(26)11-23)21(15,3)10-17(25)19(14)20(2)6-4-13(24)9-16(12)20/h4,6,9,12,14-15,17,19,23,25,27H,5,7-8,10-11H2,1-3H3/t12-,14-,15-,17-,19+,20-,21-,22-/m0/s1
Instrument: LTQ Orbitrap XL Thermo Scientific
Instrument type: LC-ESI-ITFT
Ms type: MS2
Ion mode: POSITIVE
Ionization: ESI
Fragmentation mode: HCD
Collision energy: 75 % (nominal)
Resolution: 7500
Column name: XBridge C18 3.5um, 2.1x50mm, Waters
Retention time: 9.2 min
Base peak: 375.2176
Precursor m/z: 375.2166
Precursor type: [M+H]+
m/z	relative intensity	assigned
91.0544	416	C7H7+
93.07	303	C7H9+
105.0699	900	C8H9+
107.0857	447	C8H11+
115.0538	318	C9H7+
117.0693	507	C9H9+
119.0857	252	C9H11+
121.0648	999	C8H9O+
135.0803	750	C9H11O+
142.0778	323	C11H10+
158.073	323	C11H10O+
159.0802	409	C11H11O+
161.0961	843	C11H13O+
171.0803	272	C12H11O+
185.0965	537	C13H13O+
187.1118	252	C13H15O+
195.0812	258	C14H11O+
196.0875	339	C14H12O+
209.0951	514	C15H13O+
211.1109	269	C15H15O+
223.1128	234	C16H15O+
