Mass spectrum: Triadimefon; LC-ESI-QFT; MS2; CE: 180%; R=17500; [M+H]+
Name: Triadimefon
Name: 1-(4-chlorophenoxy)-3,3-dimethyl-1-(1,2,4-triazol-1-yl)butan-2-one
Formula: C14H16ClN3O2
Exact mass: 293.0931
SMILES: CC(C)(C)C(=O)C(N1C=NC=N1)OC2=CC=C(C=C2)Cl
InChI: InChI=1S/C14H16ClN3O2/c1-14(2,3)12(19)13(18-9-16-8-17-18)20-11-6-4-10(15)5-7-11/h4-9,13H,1-3H3
Instrument: Exploris 240 Orbitrap Thermo Scientific
Instrument type: LC-ESI-QFT
Ms type: MS2
Ion mode: POSITIVE
Ionization: ESI
Fragmentation mode: HCD
Collision energy: 180 % (nominal)
Resolution: 17500
Column name: XBridge C18 3.5um, 2.1x50mm, Waters
Retention time: 8.986 min
Base peak: 294.1001
Precursor m/z: 294.1004
Precursor type: [M+H]+
m/z	relative intensity	assigned
50.0151	146	C4H2+
51.0229	198	C4H3+
55.0543	138	C4H7+
63.0231	93	C5H3+
65.0386	123	C5H5+
72.984	559	C3H2Cl+
74.0151	538	C6H2+
75.0229	999	C6H3+
77.0384	56	C6H5+
84.9839	131	C4H2Cl+
98.9997	124	C5H4Cl+
