Mass spectrum: Sotalol; LC-ESI-ITFT; MS2; CE: 90%; R=7500; [M+H]+
Name: Sotalol
Name: N-[4-[1-hydroxy-2-(isopropylamino)ethyl]phenyl]methanesulfonamide
Formula: C12H20N2O3S
Exact mass: 272.1195
SMILES: CC(C)NCC(C1=CC=C(C=C1)NS(=O)(=O)C)O
InChI: InChI=1S/C12H20N2O3S/c1-9(2)13-8-12(15)10-4-6-11(7-5-10)14-18(3,16)17/h4-7,9,12-15H,8H2,1-3H3
Instrument: LTQ Orbitrap XL Thermo Scientific
Instrument type: LC-ESI-ITFT
Ms type: MS2
Ion mode: POSITIVE
Ionization: ESI
Fragmentation mode: HCD
Collision energy: 90 % (nominal)
Resolution: 7500
Column name: XBridge C18 3.5um, 2.1x50mm, Waters
Retention time: 1.6 min
Base peak: 273.1277
Precursor m/z: 273.1267
Precursor type: [M+H]+
m/z	relative intensity	assigned
77.0385	9	C6H5+
79.0542	63	C6H7+
80.0495	12	C5H6N+
81.0573	8	C5H7N+
89.0385	7	C7H5+
92.0495	10	C6H6N+
93.0574	19	C6H7N+
106.0652	631	C7H8N+
107.073	327	C7H9N+
116.0495	87	C8H6N+
117.0573	102	C8H7N+
118.0525	9	C7H6N2+
118.0651	87	C8H8N+
119.0602	52	C7H7N2+
132.0683	101	C8H8N2+
133.0761	999	C8H9N2+
134.0601	33	C8H8NO+
134.0838	99	C8H10N2+
144.0555	25	C8H6N3+
161.1071	4	C10H13N2+
176.13	6	C11H16N2+
255.1212	21	C11H17N3O4+
