Mass spectrum: Benzenesulfonamide; LC-ESI-QFT; MS2; CE: 180; R=35000; [M+H]+
Name: Benzenesulfonamide
Name: Benzenesulfonimidic acid
Formula: C6H7NO2S
Exact mass: 157.01975
SMILES: c1ccc(cc1)S(=N)(=O)O
InChI: InChI=1S/C6H7NO2S/c7-10(8,9)6-4-2-1-3-5-6/h1-5H,(H2,7,8,9)
Instrument: Q Exactive Plus Orbitrap Thermo Scientific
Instrument type: LC-ESI-QFT
Ms type: MS2
Ion mode: POSITIVE
Ionization: ESI
Fragmentation mode: HCD
Collision energy: 180 (nominal)
Resolution: 35000
Column name: XBridge C18 3.5um, 2.1x50mm, Waters
Retention time: 3.1 min
Base peak: 158.0266
Precursor m/z: 158.027
Precursor type: [M+H]+
m/z	relative intensity	assigned
50.0151	554	C4H2+
51.0229	999	C4H3+
53.0022	10	C3HO+
53.0386	30	C4H5+
55.0177	1	C3H3O+
65.0021	43	C4HO+
65.0385	3	C5H5+
66.01	6	C4H2O+
74.015	12	C6H2+
75.0228	11	C6H3+
77.0385	133	C6H5+
81.0334	4	C5H5O+
95.0491	93	C6H7O+
105.0447	65	C6H5N2+
