Mass spectrum: Amisulpride N-Oxide; LC-ESI-QFT; MS2; CE: 120; R=35000; [M-H]-
Name: Amisulpride N-Oxide
Name: 4-amino-N-[(1-ethyl-1-oxidopyrrolidin-1-ium-2-yl)methyl]-5-ethylsulfonyl-2-methoxybenzamide
Formula: C17H27N3O5S
Exact mass: 385.16714
SMILES: CC[N+]1(CCCC1CNC(=O)C2=CC(=C(C=C2OC)N)S(=O)(=O)CC)[O-]
InChI: InChI=1S/C17H27N3O5S/c1-4-20(22)8-6-7-12(20)11-19-17(21)13-9-16(26(23,24)5-2)14(18)10-15(13)25-3/h9-10,12H,4-8,11,18H2,1-3H3,(H,19,21)
Instrument: Q Exactive Plus Orbitrap Thermo Scientific
Instrument type: LC-ESI-QFT
Ms type: MS2
Ion mode: NEGATIVE
Ionization: ESI
Fragmentation mode: HCD
Collision energy: 120 (nominal)
Resolution: 35000
Column name: XBridge C18 3.5um, 2.1x50mm, Waters
Retention time: 4.2 min
Base peak: 430.1652
Precursor m/z: 384.1599
Precursor type: [M-H]-
m/z	relative intensity	assigned
50.0036	23	C3N-
63.9625	999	O2S-
64.9703	18	HO2S-
65.0033	3	C4HO-
65.0398	7	C5H5-
65.9986	90	C3NO-
66.035	20	C4H4N-
67.0189	4	C4H3O-
68.0144	1	C3H2NO-
68.0506	4	C4H6N-
68.9982	1	C3HO2-
76.0194	6	C5H2N-
78.035	3	C5H4N-
80.0268	53	C5H4O-
88.0193	13	C6H2N-
89.0269	1	C6H3N-
90.0349	103	C6H4N-
91.0191	3	C6H3O-
91.0427	25	C6H5N-
92.0142	50	C5H2NO-
92.0506	281	C6H6N-
93.0016	56	C2H5O2S-
93.0347	7	C6H5O-
94.0298	20	C5H4NO-
95.014	5	C5H3O2-
96.0455	1	C5H6NO-
102.0349	3	C7H4N-
103.0428	1	C7H5N-
104.0142	17	C6H2NO-
104.0381	5	C6H4N2-
104.0507	1	C7H6N-
105.022	25	C6H3NO-
106.0299	8	C6H4NO-
107.0377	373	C6H5NO-
108.0219	1	C6H4O2-
108.0456	8	C6H6NO-
115.0302	5	C7H3N2-
117.046	3	C7H5N2-
118.0299	38	C7H4NO-
119.0377	1	C7H5NO-
120.0455	271	C7H6NO-
121.0296	1	C7H5O2-
122.0247	21	C6H4NO2-
122.0611	13	C7H8NO-
123.0327	3	C6H5NO2-
131.0378	2	C8H5NO-
132.0092	7	C7H2NO2-
132.0329	9	C7H4N2O-
132.0454	1	C8H6NO-
133.017	7	C7H3NO2-
133.0408	13	C7H5N2O-
133.0533	1	C8H7NO-
134.0247	21	C7H4NO2-
134.0614	4	C8H8NO-
135.0327	18	C7H5NO2-
136.0405	12	C7H6NO2-
143.0251	1	C8H3N2O-
144.0455	7	C9H6NO-
145.0408	15	C8H5N2O-
146.0248	25	C8H4NO2-
146.0486	1	C8H6N2O-
146.0613	1	C9H8NO-
147.0325	6	C2H11O5S-
147.0566	11	C8H7N2O-
148.0405	71	C8H6NO2-
150.0196	10	C7H4NO3-
152.0353	9	C7H6NO3-
156.0128	3	C6H6NO2S-
158.0488	3	C9H6N2O-
159.02	1	C8H3N2O2-
159.0564	1	C9H7N2O-
160.0281	3	C8H4N2O2-
161.0358	35	C8H5N2O2-
162.0437	11	C8H6N2O2-
163.0275	1	C8H5NO3-
171.0566	1	C10H7N2O-
175.0512	1	C9H7N2O2-
183.0564	1	C11H7N2O-
