Mass spectrum: Thiophanate; LC-ESI-QFT; MS2; CE: 15%; R=17500; [M+H]+
Name: Thiophanate
Name: CID 31991
Name: N`-ethoxycarbonyl-N-[2-[(N-ethoxycarbonyl-C-sulfanylcarbonimidoyl)amino]phenyl]carbamimidothioic acid
Formula: C14H18N4O4S2
Exact mass: 370.0769
SMILES: CCOC(=O)NC(=S)NC1=CC=CC=C1NC(=S)NC(=O)OCC
InChI: InChI=1S/C14H18N4O4S2/c1-3-21-13(19)17-11(23)15-9-7-5-6-8-10(9)16-12(24)18-14(20)22-4-2/h5-8H,3-4H2,1-2H3,(H2,15,17,19,23)(H2,16,18,20,24)
Instrument: Exploris 240 Orbitrap Thermo Scientific
Instrument type: LC-ESI-QFT
Ms type: MS2
Ion mode: POSITIVE
Ionization: ESI
Fragmentation mode: HCD
Collision energy: 15 % (nominal)
Resolution: 17500
Column name: XBridge C18 3.5um, 2.1x50mm, Waters
Retention time: 7.280 min
Base peak: 295.0398
Precursor m/z: 371.0842
Precursor type: [M+H]+
m/z	relative intensity	assigned
151.0324	848	C7H7N2S+
194.0386	18	C8H8N3OS+
206.0922	71	C10H12N3O2+
223.0534	21	C10H11N2O2S+
235.9951	57	C9H6N3OS2+
240.0802	469	C10H14N3O2S+
265.0762	40	C11H13N4O2S+
279.001	14	C10H7N4O2S2+
282.0365	569	C11H12N3O2S2+
291.0545	15	C12H11N4O3S+
325.0424	999	C12H13N4O3S2+
