Mass spectrum: Clindamycin; LC-ESI-ITFT; MS2; CE: 35%; R=7500; [M+H]+
Name: Clindamycin
Name: (2S,4R)-N-[2-chloranyl-1-[(2R,3R,4S,5R,6R)-6-methylsulfanyl-3,4,5-tris(oxidanyl)oxan-2-yl]propyl]-1-methyl-4-propyl-pyrrolidine-2-carboxamide
Formula: C18H33ClN2O5S
Exact mass: 424.1799
SMILES: CCC[C@@H]1C[C@H](N(C1)C)C(=O)NC([C@@H]2[C@@H]([C@@H]([C@H]([C@H](O2)SC)O)O)O)C(C)Cl
InChI: InChI=1S/C18H33ClN2O5S/c1-5-6-10-7-11(21(3)8-10)17(25)20-12(9(2)19)16-14(23)13(22)15(24)18(26-16)27-4/h9-16,18,22-24H,5-8H2,1-4H3,(H,20,25)/t9?,10-,11+,12?,13+,14-,15-,16-,18-/m1/s1
Instrument: LTQ Orbitrap XL Thermo Scientific
Instrument type: LC-ESI-ITFT
Ms type: MS2
Ion mode: POSITIVE
Ionization: ESI
Fragmentation mode: CID
Collision energy: 35 % (nominal)
Resolution: 7500
Column name: XBridge C18 3.5um, 2.1x50mm, Waters
Retention time: 6.7 min
Base peak: 425.1886
Precursor m/z: 425.1871
Precursor type: [M+H]+
m/z	relative intensity	assigned
126.1275	277	C8H16N+
172.1328	15	C9H18NO2+
299.1963	24	C15H27N2O4+
323.1956	3	C17H27N2O4+
335.173	97	C15H28ClN2O4+
341.2067	53	C17H29N2O5+
353.1889	4	C18H29N2O3S+
371.1997	31	C18H31N2O4S+
377.1834	999	C17H30ClN2O5+
389.21	240	C18H33N2O5S+
407.1759	238	C18H32ClN2O4S+
