Mass spectrum: Imicyafos; LC-ESI-QFT; MS2; CE: 45%; R=17500; [M+H]+
Name: Imicyafos
Name: [1-[ethoxy(propylsulfanyl)phosphoryl]-3-ethylimidazolidin-2-ylidene]cyanamide
Formula: C11H21N4O2PS
Exact mass: 304.1123
SMILES: CCCSP(=O)(N1CCN(C1=NC#N)CC)OCC
InChI: InChI=1S/C11H21N4O2PS/c1-4-9-19-18(16,17-6-3)15-8-7-14(5-2)11(15)13-10-12/h4-9H2,1-3H3
Instrument: Exploris 240 Orbitrap Thermo Scientific
Instrument type: LC-ESI-QFT
Ms type: MS2
Ion mode: POSITIVE
Ionization: ESI
Fragmentation mode: HCD
Collision energy: 45 % (nominal)
Resolution: 17500
Column name: XBridge C18 3.5um, 2.1x50mm, Waters
Retention time: 5.301 min
Base peak: 305.1193
Precursor m/z: 305.1196
Precursor type: [M+H]+
m/z	relative intensity	assigned
96.9506	13	H2O2PS+
112.0867	57	C5H10N3+
139.0978	223	C6H11N4+
140.0818	32	C6H10N3O+
158.0476	5	C9H6N2O+
173.0223	12	C4H6N4O2P+
176.0582	43	C5H11N3O2P+
192.0355	108	C5H11N3OPS+
201.0535	999	C6H10N4O2P+
217.0307	91	C6H10N4OPS+
218.0151	18	C6H9N3O2PS+
229.0843	21	C8H14N4O2P+
235.0412	223	C6H12N4O2PS+
263.0729	13	C8H16N4O2PS+
277.0884	15	C9H18N4O2PS+
305.1198	18	C11H22N4O2PS+
