Mass spectrum: Flunixine; LC-ESI-QFT; MS2; CE: 90; R=35000; [M+H]+
Name: Flunixine
Name: Banamine
Name: 2-[2-methyl-3-(trifluoromethyl)anilino]pyridine-3-carboxylic acid
Formula: C14H11F3N2O2
Exact mass: 296.07726
SMILES: CC1=C(C=CC=C1NC2=C(C=CC=N2)C(=O)O)C(F)(F)F
InChI: InChI=1S/C14H11F3N2O2/c1-8-10(14(15,16)17)5-2-6-11(8)19-12-9(13(20)21)4-3-7-18-12/h2-7H,1H3,(H,18,19)(H,20,21)
Instrument: Q Exactive Plus Orbitrap Thermo Scientific
Instrument type: LC-ESI-QFT
Ms type: MS2
Ion mode: POSITIVE
Ionization: ESI
Fragmentation mode: HCD
Collision energy: 90 (nominal)
Resolution: 35000
Column name: XBridge C18 3.5um, 2.1x50mm, Waters
Retention time: 10.9 min
Base peak: 297.0837
Precursor m/z: 297.0845
Precursor type: [M+H]+
m/z	relative intensity	assigned
50.015	4	C4H2+
51.0228	4	C4H3+
52.0181	1	C3H2N+
53.0022	1	C3HO+
57.0134	1	C3H2F+
63.0228	1	C5H3+
65.0385	3	C5H5+
66.0337	1	C4H4N+
67.0416	1	C4H5N+
75.0228	13	C6H3+
77.0021	12	C5HO+
78.0338	45	C5H4N+
79.0416	8	C5H5N+
80.0493	2	C5H6N+
83.0291	37	C5H4F+
89.0385	19	C7H5+
90.0464	4	C7H6+
92.0494	1	C6H6N+
93.0447	10	C5H5N2+
95.0292	4	C6H4F+
95.0365	3	C5H5NO+
96.0443	67	C5H6NO+
98.015	1	C8H2+
99.0229	27	C8H3+
106.0651	23	C7H8N+
107.029	1	C7H4F+
109.0448	999	C7H6F+
110.0482	1	C2H7FN2O2+
110.0601	1	C6H8NO+
112.0393	1	C5H6NO2+
115.0542	3	C9H7+
117.0571	1	C8H7N+
119.0291	48	C8H4F+
121.0396	17	C6H5N2O+
123.0352	4	C6H4FN2+
127.0353	3	C7H5F2+
128.0619	3	C10H8+
129.0569	1	C9H7N+
133.0259	6	C6H4F3+
133.0448	1	C9H6F+
134.0401	4	C8H5FN+
137.0396	9	C8H6FO+
139.0353	71	C8H5F2+
140.0494	99	C10H6N+
141.0259	1	C6H3F2N2+
142.0525	10	C9H6N2+
145.0258	7	C7H4F3+
147.0352	153	C8H4FN2+
151.0356	1	C9H5F2+
153.0571	4	C11H7N+
154.0651	33	C11H8N+
155.0603	6	C10H7N2+
155.0729	10	C11H9N+
156.0682	1	C10H8N2+
157.0448	21	C11H6F+
158.0338	6	C8H5F3+
158.0401	16	C10H5FN+
159.0416	178	C8H6F3+
164.0494	41	C12H6N+
165.0383	8	C9H5F2N+
165.0447	8	C11H5N2+
165.0569	4	C12H7N+
166.0463	1	C9H6F2N+
166.0528	2	C11H6N2+
166.0651	10	C12H8N+
167.0603	61	C11H7N2+
168.0443	1	C11H6NO+
168.0683	3	C11H8N2+
171.0477	1	C11H6FN+
172.0366	1	C8H5F3N+
174.0525	5	C8H7F3N+
175.0604	7	C8H8F3N+
176.0307	3	C10H4F2N+
177.0511	8	C11H7F2+
179.0602	10	C12H7N2+
180.0681	27	C12H8N2+
181.076	379	C12H9N2+
182.0332	5	C10H5F3+
182.0606	6	C12H8NO+
182.0838	65	C12H10N2+
183.0476	3	C12H6FN+
183.0555	5	C11H7N2O+
183.0681	4	C12H9NO+
184.0557	258	C12H7FN+
185.0447	12	C9H6F3N+
185.0513	3	C11H6FN2+
185.0634	4	C12H8FN+
185.0707	16	C11H9N2O+
186.0587	120	C11H7FN2+
187.0351	1	C12H5F2+
187.0429	4	C11H6FNO+
188.0431	1	C12H6F2+
188.0506	8	C11H7FNO+
189.0384	40	C11H5F2N+
190.0457	9	C11H6F2N+
190.0536	1	C10H7FN2O+
191.0603	59	C13H7N2+
192.0443	4	C13H6NO+
192.0681	38	C13H8N2+
193.033	1	C13H4FN+
193.0763	4	C13H9N2+
195.0553	32	C12H7N2O+
196.043	3	C12H5FN2+
197.0507	21	C12H6FN2+
198.0589	3	C12H7FN2+
199.0664	1	C12H8FN2+
200.0443	2	C10H7F3O+
202.0462	6	C12H6F2N+
202.0663	2	C12H9FNO+
203.0539	11	C12H7F2N+
204.0495	1	C11H6F2N2+
204.0618	16	C12H8F2N+
205.0461	3	C12H7F2O+
206.0334	1	C12H5F3+
206.0419	1	C11H6F2NO+
207.0416	2	C12H6F3+
208.0367	7	C11H5F3N+
208.0631	7	C13H8N2O+
209.0444	48	C11H6F3N+
209.071	204	C13H9N2O+
210.0395	7	C10H5F3N2+
210.0589	125	C13H7FN2+
210.0788	106	C13H10N2O+
211.0666	141	C13H8FN2+
212.032	3	C10H5F3NO+
212.0503	15	C13H7FNO+
212.0742	9	C13H9FN2+
213.0384	4	C13H5F2N+
213.0661	6	C12H9N2O2+
214.0448	14	
214.0555	11	C9H8F2N2O2+
215.0415	23	C12H5F2N2+
216.0495	66	C12H6F2N2+
216.0614	7	C13H8F2N+
217.0572	82	C12H7F2N2+
219.0554	17	C14H7N2O+
219.0657	1	C13H7N4+
220.0506	3	C13H6N3O+
221.051	15	C14H6FN2+
224.0678	3	C12H9F3N+
227.062	3	C13H8FN2O+
228.0495	1	C13H6F2N2+
229.0575	18	C13H7F2N2+
229.077	4	C13H10FN2O+
230.065	35	C13H8F2N2+
231.0728	48	C13H9F2N2+
232.0568	10	C13H8F2NO+
233.053	7	C9H8F3N2O2+
234.052	23	C13H7F3N+
235.0478	73	C12H6F3N2+
235.0595	4	C13H8F3N+
236.0556	793	C12H7F3N2+
237.0394	53	C12H6F3NO+
237.0639	5	C12H8F3N2+
238.0538	8	C14H7FN2O+
239.0614	87	C14H8FN2O+
241.0571	56	C14H7F2N2+
244.0439	7	C13H6F2N2O+
245.0521	6	C13H7F2N2O+
248.0387	1	C12H6F2N2O2+
248.0557	4	C13H7F3N2+
249.0634	56	C13H8F3N2+
250.0712	10	C13H9F3N2+
251.0425	17	C12H6F3N2O+
251.0788	7	C13H10F3N2+
252.0623	4	C13H9F3NO+
253.0581	9	C12H8F3N2O+
257.052	24	C14H7F2N2O+
258.0599	32	C14H8F2N2O+
259.0677	71	C11H10F3N2O2+
260.0555	4	C14H7F3N2+
261.0631	4	C14H8F3N2+
262.0552	2	C13H8F2N2O2+
263.0426	65	C13H6F3N2O+
264.0505	858	C13H7F3N2O+
265.0542	1	C8H8F3N4O3+
268.045	7	C12H7F3N2O2+
277.0583	20	C14H8F3N2O+
277.0777	2	C14H11F2N2O2+
278.0656	7	C14H9F3N2O+
279.0739	53	C14H10F3N2O+
281.0531	17	C13H8F3N2O2+
