Mass spectrum: Pipemidic acid; LC-ESI-QFT; MS2; CE: 45; R=35000; [M+H]+
Name: Pipemidic acid
Name: 5,8-Dihydro-8-ethyl-5-oxo-2-(1-piperazinyl)pyrido(2,3-d)pyrimidine-6-carboxylic acid
Name: 8-ethyl-5-keto-2-piperazin-4-ium-1-yl-pyrido[2,3-d]pyrimidine-6-carboxylate
Formula: C14H17N5O3
Exact mass: 303.13314
SMILES: O=C(O)\C2=C\N(c1nc(ncc1C2=O)N3CCNCC3)CC
InChI: InChI=1S/C14H17N5O3/c1-2-18-8-10(13(21)22)11(20)9-7-16-14(17-12(9)18)19-5-3-15-4-6-19/h7-8,15H,2-6H2,1H3,(H,21,22)
Instrument: Q Exactive Orbitrap Thermo Scientific
Instrument type: LC-ESI-QFT
Ms type: MS2
Ion mode: POSITIVE
Ionization: ESI
Fragmentation mode: HCD
Collision energy: 45 (nominal)
Resolution: 35000
Column name: XBridge C18 3.5um, 2.1x50mm, Waters
Retention time: 3.6 min
Base peak: 304.1405
Precursor m/z: 304.1404
Precursor type: [M+H]+
m/z	relative intensity	assigned
70.0651	28	C4H8N+
148.0505	11	C7H6N3O+
162.066	8	C8H8N3O+
163.0616	4	C7H7N4O+
176.0818	13	C9H10N3O+
187.0615	3	C9H7N4O+
188.0693	5	C9H8N4O+
189.0771	192	C9H9N4O+
190.0974	7	C10H12N3O+
191.0927	28	C9H11N4O+
202.0849	3	C10H10N4O+
203.0928	1	C10H11N4O+
215.0565	19	C10H7N4O2+
215.093	18	C11H11N4O+
217.1084	999	C11H13N4O+
233.0669	41	C10H9N4O3+
235.0825	2	C10H11N4O3+
241.0723	1	C12H9N4O2+
243.1241	64	C13H15N4O+
258.0988	6	C12H12N5O2+
258.1349	4	C13H16N5O+
259.0828	2	C12H11N4O3+
260.1508	11	C13H18N5O+
261.0982	22	C12H13N4O3+
276.1091	23	C12H14N5O3+
286.1288	12	C14H16N5O2+
304.1404	578	C14H18N5O3+
