Mass spectrum: 4,6-dinitro-o-cresol; LC-ESI-QFT; MS2; CE: 90; R=35000; [M-H]-
Name: 4,6-dinitro-o-cresol
Name: DNOC
Name: 2-methyl-4,6-dinitro-phenol
Formula: C7H6N2O5
Exact mass: 198.02767
SMILES: [O-][N+](=O)c1cc([N+]([O-])=O)cc(c1O)C
InChI: InChI=1S/C7H6N2O5/c1-4-2-5(8(11)12)3-6(7(4)10)9(13)14/h2-3,10H,1H3
Instrument: Q Exactive Orbitrap Thermo Scientific
Instrument type: LC-ESI-QFT
Ms type: MS2
Ion mode: NEGATIVE
Ionization: ESI
Fragmentation mode: HCD
Collision energy: 90 (nominal)
Resolution: 35000
Column name: XBridge C18 3.5um, 2.1x50mm, Waters
Retention time: 8.0 min
Base peak: 197.0207
Precursor m/z: 197.0204
Precursor type: [M-H]-
m/z	relative intensity	assigned
63.0115	2	C4HN-
63.0241	13	C5H3-
64.0193	37	C4H2N-
65.0033	11	C4HO-
65.0145	13	C3HN2-
65.0397	88	C5H5-
65.9985	38	C3NO-
66.035	12	C4H4N-
67.0189	46	C4H3O-
68.9982	28	C3HO2-
76.0193	3	C5H2N-
78.035	3	C5H4N-
80.0267	5	C5H4O-
81.0346	21	C5H5O-
88.0192	10	C6H2N-
93.0346	71	C6H5O-
95.0139	2	C5H3O2-
108.0217	34	C6H4O2-
109.0296	904	C6H5O2-
110.0248	36	C5H4NO2-
120.0216	3	C7H4O2-
121.0296	40	C7H5O2-
122.0249	160	C6H4NO2-
123.0327	463	C6H5NO2-
134.0247	31	C7H4NO2-
136.0166	4	C7H4O3-
137.0244	211	C7H5O3-
138.0197	109	C6H4NO3-
139.0274	21	C6H5NO3-
140.0354	999	
150.0197	224	C7H4NO3-
151.0275	40	C7H5NO3-
166.0146	32	C7H4NO4-
167.0223	18	C7H5NO4-
180.0177	184	C7H4N2O4-
197.0204	19	C7H5N2O5-
