Mass spectrum: Imazaquin; LC-ESI-QFT; MS2; CE: 75; R=35000; [M+H]+
Name: Imazaquin
Name: 2-(4-methyl-5-oxo-4-propan-2-yl-1H-imidazol-2-yl)quinoline-3-carboxylic acid
Formula: C17H17N3O3
Exact mass: 311.12699
SMILES: CC(C)C1(C(=O)NC(=N1)C2=NC3=CC=CC=C3C=C2C(=O)O)C
InChI: InChI=1S/C17H17N3O3/c1-9(2)17(3)16(23)19-14(20-17)13-11(15(21)22)8-10-6-4-5-7-12(10)18-13/h4-9H,1-3H3,(H,21,22)(H,19,20,23)
Instrument: Q Exactive Plus Orbitrap Thermo Scientific
Instrument type: LC-ESI-QFT
Ms type: MS2
Ion mode: POSITIVE
Ionization: ESI
Fragmentation mode: HCD
Collision energy: 75 (nominal)
Resolution: 35000
Column name: XBridge C18 3.5um, 2.1x50mm, Waters
Retention time: 7.0 min
Base peak: 312.1336
Precursor m/z: 312.1343
Precursor type: [M+H]+
m/z	relative intensity	assigned
51.0228	1	C4H3+
53.0022	24	C3HO+
53.9975	6	C2NO+
56.0495	9	C3H6N+
58.0652	15	C3H8N+
67.0542	18	C5H7+
67.9893	5	C3O2+
69.0699	553	C5H9+
70.0651	20	C4H8N+
71.0729	42	C4H9N+
71.0855	4	C5H11+
72.0443	3	C3H6NO+
75.0226	1	C6H3+
84.0809	4	C5H10N+
86.0964	472	C5H12N+
91.0417	1	C6H5N+
94.0653	1	C6H8N+
97.0648	7	C6H9O+
105.0574	2	C7H7N+
115.0417	14	C8H5N+
115.0542	4	C9H7+
116.0494	12	C8H6N+
119.0493	1	C8H7O+
127.0415	2	C9H5N+
128.0495	117	C9H6N+
129.0447	6	C8H5N2+
129.0572	17	C9H7N+
130.0526	18	C8H6N2+
130.0653	7	C9H8N+
142.0526	1	C9H6N2+
142.0653	13	C10H8N+
143.0367	20	C9H5NO+
143.0604	10	C9H7N2+
144.0445	12	C9H6NO+
146.0601	242	C9H8NO+
153.0448	186	C10H5N2+
154.0526	90	C10H6N2+
154.0652	12	C11H8N+
155.0604	94	C10H7N2+
156.0442	4	C10H6NO+
156.068	2	C10H8N2+
156.0809	1	C11H10N+
157.076	12	C10H9N2+
158.0476	11	C9H6N2O+
158.0601	10	C10H8NO+
160.0757	14	C10H10NO+
161.0472	8	C9H7NO2+
161.0708	3	C9H9N2O+
162.0551	1	C9H8NO2+
167.0732	9	C12H9N+
168.0688	1	C11H8N2+
169.0762	4	C11H9N2+
171.0553	162	C10H7N2O+
174.055	75	C10H8NO2+
179.0604	5	C12H7N2+
180.0554	3	C11H6N3+
180.0808	14	C13H10N+
181.0397	999	C11H5N2O+
182.0713	2	C11H8N3+
182.0838	3	C12H10N2+
182.0963	2	C13H12N+
183.0554	131	C11H7N2O+
184.0755	3	C12H10NO+
185.0708	1	C11H9N2O+
186.0552	4	C11H8NO2+
194.0966	4	C14H12N+
195.0788	2	C12H9N3+
196.087	7	C12H10N3+
197.071	515	C12H9N2O+
198.0663	226	C11H8N3O+
199.0503	495	C11H7N2O2+
204.0805	3	C15H10N+
206.0838	8	C14H10N2+
207.0551	3	C13H7N2O+
207.0917	5	C14H11N2+
208.0756	1	C14H10NO+
208.0996	2	C14H12N2+
209.0584	2	C12H7N3O+
209.0712	2	C13H9N2O+
210.0788	21	C13H10N2O+
213.0659	4	C12H9N2O2+
220.0999	1	C15H12N2+
221.1074	6	C15H13N2+
222.0661	9	C13H8N3O+
222.091	5	C15H12NO+
223.0739	5	C13H9N3O+
223.085	1	C12H9N5+
223.1228	1	C15H15N2+
224.0819	125	C13H10N3O+
225.1023	24	C14H13N2O+
232.0755	1	C16H10NO+
233.0715	4	C15H9N2O+
234.0788	20	C15H10N2O+
236.0821	5	C14H10N3O+
241.0846	2	C13H11N3O2+
248.0939	1	C16H12N2O+
249.1024	18	C16H13N2O+
251.0684	3	C14H9N3O2+
252.0768	62	C14H10N3O2+
