Mass spectrum: Mycophenolic acid; LC-ESI-ITFT; MS2; CE: 75%; R=15000; [M+H]+
Name: Mycophenolic acid
Name: (E)-6-(4-hydroxy-3-keto-6-methoxy-7-methyl-phthalan-5-yl)-4-methyl-hex-4-enoic acid
Formula: C17H20O6
Exact mass: 320.1260
SMILES: c12c(c(c(C\C=C(\CCC(O)=O)C)c(c1C)OC)O)C(=O)OC2
InChI: InChI=1S/C17H20O6/c1-9(5-7-13(18)19)4-6-11-15(20)14-12(8-23-17(14)21)10(2)16(11)22-3/h4,20H,5-8H2,1-3H3,(H,18,19)/b9-4+
Instrument: LTQ Orbitrap XL Thermo Scientific
Instrument type: LC-ESI-ITFT
Ms type: MS2
Ion mode: POSITIVE
Ionization: ESI
Fragmentation mode: HCD
Collision energy: 75 % (nominal)
Resolution: 15000
Column name: XBridge C18 3.5um, 2.1x50mm, Waters
Retention time: 9.9 min
Base peak: 321.1329
Precursor m/z: 321.1333
Precursor type: [M+H]+
m/z	relative intensity	assigned
65.0385	2	C5H5+
67.0541	1	C5H7+
77.0386	31	C6H5+
79.0542	4	C6H7+
81.0699	10	C6H9+
91.0542	184	C7H7+
93.0698	1	C7H9+
95.0491	2	C6H7O+
102.0466	3	C8H6+
103.0543	157	C8H7+
105.0336	2	C7H5O+
105.0448	8	C6H5N2+
105.0699	3	C8H9+
109.0647	2	C7H9O+
117.0335	7	C8H5O+
119.0856	2	C9H11+
121.0648	4	C8H9O+
131.0492	60	C9H7O+
135.0805	15	C9H11O+
136.0519	2	C8H8O2+
139.0754	2	C8H11O2+
145.0649	5	C10H9O+
147.044	2	C9H7O2+
149.0596	14	C9H9O2+
159.0441	999	C10H7O2+
161.0594	3	C10H9O2+
173.0594	2	C11H9O2+
175.0754	8	C11H11O2+
177.0546	144	C10H9O3+
179.0702	30	C10H11O3+
185.0959	1	C13H13O+
189.0907	2	C12H13O2+
191.0699	1	C11H11O3+
192.0425	1	C10H8O4+
193.0493	3	C10H9O4+
195.0652	14	C10H11O4+
207.0653	219	C11H11O4+
215.1073	2	C14H15O2+
221.0803	1	C12H13O4+
239.1055	1	C16H15O2+
241.0865	2	C15H13O3+
255.0646	1	C15H11O4+
270.0892	1	C16H14O4+
