Mass spectrum: Progesterone; LC-ESI-QFT; MS2; CE: 75; R=35000; [M+H]+
Name: Progesterone
Name: (8S,9S,10R,13S,14S,17S)-17-acetyl-10,13-dimethyl-1,2,6,7,8,9,11,12,14,15,16,17-dodecahydrocyclopenta[a]phenanthren-3-one
Formula: C21H30O2
Exact mass: 314.22458
SMILES: O=C4\C=C2/[C@]([C@H]1CC[C@@]3([C@@H](C(=O)C)CC[C@H]3[C@@H]1CC2)C)(C)CC4
InChI: InChI=1S/C21H30O2/c1-13(22)17-6-7-18-16-5-4-14-12-15(23)8-10-20(14,2)19(16)9-11-21(17,18)3/h12,16-19H,4-11H2,1-3H3/t16-,17+,18-,19-,20-,21+/m0/s1
Instrument: Q Exactive Orbitrap Thermo Scientific
Instrument type: LC-ESI-QFT
Ms type: MS2
Ion mode: POSITIVE
Ionization: ESI
Fragmentation mode: HCD
Collision energy: 75 (nominal)
Resolution: 35000
Column name: XBridge C18 3.5um, 2.1x50mm, Waters
Retention time: 13.1 min
Base peak: 315.232
Precursor m/z: 315.2319
Precursor type: [M+H]+
m/z	relative intensity	assigned
53.0023	2	C3HO+
53.0385	1	C4H5+
55.0179	5	C3H3O+
57.0335	1	C3H5O+
65.0386	14	C5H5+
66.0464	2	C5H6+
67.0542	78	C5H7+
69.0335	8	C4H5O+
69.0699	51	C5H9+
71.0491	15	C4H7O+
77.0386	6	C6H5+
78.0461	1	C6H6+
79.0543	332	C6H7+
81.0699	279	C6H9+
82.0412	1	C5H6O+
83.0491	50	C5H7O+
85.0649	8	C5H9O+
91.0542	106	C7H7+
93.0699	74	C7H9+
94.0413	9	C6H6O+
95.0492	55	C6H7O+
95.0856	80	C7H11+
97.0648	999	C6H9O+
103.0543	2	C8H7+
105.0447	12	C6H5N2+
105.0699	98	C8H9+
107.0493	13	C7H7O+
107.0856	41	C8H11+
108.0568	1	C7H8O+
109.0648	972	C7H9O+
111.0804	1	C7H11O+
115.0541	5	C9H7+
117.0699	25	C9H9+
119.0856	57	C9H11+
121.0648	15	C8H9O+
121.1012	20	C9H13+
123.0804	120	C8H11O+
128.062	5	C10H8+
129.0699	16	C10H9+
130.0778	6	C10H10+
131.0856	44	C10H11+
133.1013	29	C10H13+
135.0803	1	C9H11O+
135.1169	5	C10H15+
137.0962	5	C9H13O+
141.0698	5	C11H9+
142.0778	8	C11H10+
143.0856	18	C11H11+
144.0933	5	C11H12+
145.1012	27	C11H13+
147.1169	11	C11H15+
148.0884	2	C10H12O+
149.0962	8	C10H13O+
149.1324	1	C11H17+
153.0702	2	C12H9+
155.0854	6	C12H11+
156.0933	4	C12H12+
157.1012	11	C12H13+
158.1091	2	C12H14+
159.117	17	C12H15+
161.1323	4	C12H17+
163.1116	6	C11H15O+
167.0854	1	C13H11+
168.0935	2	C13H12+
169.1012	8	C13H13+
170.1092	1	C13H14+
171.1171	9	C13H15+
172.1245	1	C13H16+
173.1324	8	C13H17+
175.1118	1	C12H15O+
177.1274	2	C12H17O+
181.1014	2	C14H13+
182.1091	2	C14H14+
183.1168	7	C14H15+
185.1329	2	C14H17+
197.1327	1	C15H17+
199.1483	4	C15H19+
211.1484	1	C16H19+
