Mass spectrum: Kresoxim-methyl acid; LC-ESI-QFT; MS2; CE: 60; R=35000; [M-H]-
Name: Kresoxim-methyl acid
Name: (2E)-2-methoxyimino-2-[2-[(2-methylphenoxy)methyl]phenyl]acetic acid
Formula: C17H17NO4
Exact mass: 299.11576
SMILES: O=C(O)\C(=N\OC)c2ccccc2COc1ccccc1C
InChI: InChI=1S/C17H17NO4/c1-12-7-3-6-10-15(12)22-11-13-8-4-5-9-14(13)16(17(19)20)18-21-2/h3-10H,11H2,1-2H3,(H,19,20)/b18-16+
Instrument: Q Exactive Plus Orbitrap Thermo Scientific
Instrument type: LC-ESI-QFT
Ms type: MS2
Ion mode: NEGATIVE
Ionization: ESI
Fragmentation mode: HCD
Collision energy: 60 (nominal)
Resolution: 35000
Column name: XBridge C18 3.5um, 2.1x50mm, Waters
Retention time: 11.2 min
Base peak: 222.0921
Precursor m/z: 298.1085
Precursor type: [M-H]-
m/z	relative intensity	assigned
91.0553	28	C7H7-
102.0349	999	C7H4N-
107.0502	210	C7H7O-
116.0506	818	C8H6N-
146.0246	104	C8H4NO2-
