Mass spectrum: Meclofenamic Acid; LC-ESI-QFT; MS2; CE: 150; R=35000; [M+H]+
Name: Meclofenamic Acid
Name: 2-(2,6-dichloro-3-methylanilino)benzoic acid
Formula: C14H11Cl2NO2
Exact mass: 295.01668
SMILES: CC1=C(C(=C(C=C1)Cl)NC2=CC=CC=C2C(=O)O)Cl
InChI: InChI=1S/C14H11Cl2NO2/c1-8-6-7-10(15)13(12(8)16)17-11-5-3-2-4-9(11)14(18)19/h2-7,17H,1H3,(H,18,19)
Instrument: Q Exactive Plus Orbitrap Thermo Scientific
Instrument type: LC-ESI-QFT
Ms type: MS2
Ion mode: POSITIVE
Ionization: ESI
Fragmentation mode: HCD
Collision energy: 150 (nominal)
Resolution: 35000
Column name: XBridge C18 3.5um, 2.1x50mm, Waters
Retention time: 14.0 min
Base peak: 296.0233
Precursor m/z: 296.024
Precursor type: [M+H]+
m/z	relative intensity	assigned
50.0151	49	C4H2+
51.0229	31	C4H3+
52.0182	1	C3H2N+
52.0308	1	C4H4+
53.0386	32	C4H5+
55.0179	1	C3H3O+
61.0072	1	C5H+
62.0151	8	C5H2+
63.0229	41	C5H3+
64.0307	4	C5H4+
65.0022	4	C4HO+
65.0386	5	C5H5+
66.0464	9	C5H6+
72.9839	4	C3H2Cl+
74.015	20	C6H2+
75.0229	81	C6H3+
76.0181	8	C5H2N+
76.0307	36	C6H4+
77.0385	92	C6H5+
78.0338	3	C5H4N+
78.0464	22	C6H6+
79.018	1	C5H3O+
81.0335	4	C5H5O+
86.0149	1	C7H2+
87.0228	7	C7H3+
88.018	1	C6H2N+
88.0307	3	C7H4+
89.0385	54	C7H5+
90.0465	10	C7H6+
91.0542	8	C7H7+
92.0256	5	C6H4O+
94.0413	4	C6H6O+
95.0491	100	C6H7O+
98.0151	6	C8H2+
98.9996	5	C5H4Cl+
99.0229	26	C8H3+
100.0181	4	C7H2N+
100.0306	7	C8H4+
101.0385	16	C8H5+
102.0338	14	C7H4N+
102.0464	49	C8H6+
103.0416	10	C7H5N+
103.0543	8	C8H7+
104.0495	4	C7H6N+
105.0447	68	C6H5N2+
111.023	1	C9H3+
113.0386	34	C9H5+
114.0339	9	C8H4N+
114.0465	5	C9H6+
115.0542	24	C9H7+
116.0494	4	C8H6N+
117.0209	1	C7H3NO+
117.0572	7	C8H7N+
117.0699	1	C9H9+
119.0492	17	C8H7O+
120.0444	4	C7H6NO+
122.9997	1	C7H4Cl+
123.0229	3	C10H3+
124.0307	1	C10H4+
125.0386	83	C10H5+
126.0464	151	C10H6+
127.0417	25	C9H5N+
127.0542	54	C10H7+
128.0495	119	C9H6N+
128.0621	30	C10H8+
129.0447	57	C8H5N2+
129.0573	16	C9H7N+
130.0288	4	C8H4NO+
130.04	20	C7H4N3+
130.0652	4	C9H8N+
137.0386	21	C11H5+
138.0339	3	C10H4N+
138.0466	7	C11H6+
139.0058	1	C9HNO+
139.0543	21	C11H7+
140.0495	67	C10H6N+
141.0574	13	C10H7N+
143.0493	11	C10H7O+
144.0443	1	C9H6NO+
145.0649	28	C10H9O+
146.0601	34	C9H8NO+
146.9995	1	C9H4Cl+
149.0387	20	C12H5+
150.0465	430	C12H6+
151.0419	21	C11H5N+
151.0542	258	C12H7+
152.0495	119	C11H6N+
152.062	755	C12H8+
153.0447	10	C10H5N2+
153.0573	116	C11H7N+
153.0698	32	C12H9+
154.0651	35	C11H8N+
155.0493	7	C11H7O+
155.0603	77	C10H7N2+
156.0444	1	C10H6NO+
157.0525	3	C10H7NO+
161.0386	3	C13H5+
161.0469	1	C9H7NO2+
163.0542	7	C13H7+
164.0495	58	C12H6N+
165.0572	11	C12H7N+
166.0653	1	C12H8N+
167.0491	3	C12H7O+
168.0567	5	C12H8O+
169.0648	547	C12H9O+
170.0601	68	C11H8NO+
173.0152	7	C11H6Cl+
174.0106	8	C10H5ClN+
175.0418	9	C13H5N+
176.0495	15	C13H6N+
177.0574	459	C13H7N+
178.0651	999	C13H8N+
179.0604	249	C12H7N2+
179.0729	326	C13H9N+
180.0557	16	C11H6N3+
180.0807	79	C13H10N+
181.0521	3	C12H7NO+
182.0604	5	C12H8NO+
183.068	3	C12H9NO+
183.0805	7	C13H11O+
184.0758	1	C12H10NO+
185.0471	13	C11H7NO2+
185.0598	4	C12H9O2+
186.0233	3	C12H7Cl+
188.0262	3	C11H7ClN+
188.0497	7	C14H6N+
190.0651	3	C14H8N+
194.0601	25	C13H8NO+
196.0758	15	C13H10NO+
200.0262	3	C12H7ClN+
204.0558	23	C13H6N3+
206.0601	8	C14H8NO+
207.0677	5	C14H9NO+
209.0472	6	C13H7NO2+
211.0629	12	C13H9NO2+
212.0261	5	C13H7ClN+
213.0341	29	C13H8ClN+
214.0419	25	C13H9ClN+
216.0212	4	C12H7ClNO+
241.0292	1	C14H8ClNO+
245.0239	4	C13H8ClNO2+
