Mass spectrum: Propetamphos; LC-ESI-QFT; MS2; CE: 90%; R=17500; [M+H]+
Name: Propetamphos
Name: 1-Methylethyl 3-[[(ethylamino)methoxyphosphinothioyl]oxy]-2-butenoate
Name: propan-2-yl 3-[ethylamino(methoxy)phosphinothioyl]oxybut-2-enoate
Formula: C10H20NO4PS
Exact mass: 281.0851
SMILES: CCNP(=S)(OC)OC(=CC(=O)OC(C)C)C
InChI: InChI=1S/C10H20NO4PS/c1-6-11-16(17,13-5)15-9(4)7-10(12)14-8(2)3/h7-8H,6H2,1-5H3,(H,11,17)
Instrument: Exploris 240 Orbitrap Thermo Scientific
Instrument type: LC-ESI-QFT
Ms type: MS2
Ion mode: POSITIVE
Ionization: ESI
Fragmentation mode: HCD
Collision energy: 90 % (nominal)
Resolution: 17500
Column name: XBridge C18 3.5um, 2.1x50mm, Waters
Retention time: 9.418 min
Base peak: 341.072
Precursor m/z: 282.0923
Precursor type: [M+H]+
m/z	relative intensity	assigned
63.9947	797	H3NOP+
67.0179	133	H6NOP+
78.0104	19	CH5NOP+
85.0284	70	C4H5O2+
91.9719	47	CH3NPS+
94.0053	195	CH5NO2P+
95.9668	154	H3NOPS+
109.9825	999	CH5NOPS+
110.9664	84	CH4O2PS+
112.0159	250	CH7NO3P+
122.0367	25	C3H9NO2P+
123.9981	129	C2H7NOPS+
127.9932	32	CH7NO2PS+
128.9769	48	CH6O3PS+
138.0138	239	C3H9NOPS+
