Mass spectrum: Halosulfuron-Methyl; LC-ESI-QFT; MS2; CE: 180%; R=17500; [M+H]+
Name: Halosulfuron-Methyl
Name: methyl 3-chloro-5-[(4,6-dimethoxypyrimidin-2-yl)carbamoylsulfamoyl]-1-methylpyrazole-4-carboxylate
Formula: C13H15ClN6O7S
Exact mass: 434.0411
SMILES: CN1C(=C(C(=N1)Cl)C(=O)OC)S(=O)(=O)NC(=O)NC2=NC(=CC(=N2)OC)OC
InChI: InChI=1S/C13H15ClN6O7S/c1-20-10(8(9(14)18-20)11(21)27-4)28(23,24)19-13(22)17-12-15-6(25-2)5-7(16-12)26-3/h5H,1-4H3,(H2,15,16,17,19,22)
Instrument: Exploris 240 Orbitrap Thermo Scientific
Instrument type: LC-ESI-QFT
Ms type: MS2
Ion mode: POSITIVE
Ionization: ESI
Fragmentation mode: HCD
Collision energy: 180 % (nominal)
Resolution: 17500
Column name: XBridge C18 3.5um, 2.1x50mm, Waters
Retention time: 10.024 min
Base peak: 435.048
Precursor m/z: 435.0484
Precursor type: [M+H]+
m/z	relative intensity	assigned
52.0181	149	C3H2N+
53.0021	49	C3HO+
55.0291	151	C2H3N2+
56.0131	474	C2H2NO+
57.0448	38	C2H5N2+
62.9633	108	CClO+
65.0134	361	C3HN2+
66.0212	88	C3H2N2+
67.0053	118	C3HNO+
68.0132	172	C3H2NO+
68.9972	262	C3HO2+
69.0083	801	C2HN2O+
69.9924	52	C2NO2+
79.0294	88	C4H3N2+
83.024	999	C3H3N2O+
86.9631	82	C3ClO+
93.0082	639	C4HN2O+
