Mass spectrum: Sulfadimethoxine; LC-ESI-ITFT; MS2; CE: 45%; R=15000; [M+H]+
Name: Sulfadimethoxine
Name: 4-amino-N-(2,6-dimethoxy-4-pyrimidinyl)benzenesulfonamide
Formula: C12H14N4O4S
Exact mass: 310.0736
SMILES: c1(NS(c2ccc(N)cc2)(=O)=O)cc(nc(n1)OC)OC
InChI: InChI=1S/C12H14N4O4S/c1-19-11-7-10(14-12(15-11)20-2)16-21(17,18)9-5-3-8(13)4-6-9/h3-7H,13H2,1-2H3,(H,14,15,16)
Instrument: LTQ Orbitrap XL Thermo Scientific
Instrument type: LC-ESI-ITFT
Ms type: MS2
Ion mode: POSITIVE
Ionization: ESI
Fragmentation mode: HCD
Collision energy: 45 % (nominal)
Resolution: 15000
Column name: XBridge C18 3.5um, 2.1x50mm, Waters
Retention time: 5.7 min
Base peak: 311.0817
Precursor m/z: 311.0809
Precursor type: [M+H]+
m/z	relative intensity	assigned
65.0385	44	C5H5+
68.0494	36	C4H6N+
92.0494	266	C6H6N+
93.0572	26	C6H7N+
96.044	11	C5H6NO+
108.0443	538	C6H6NO+
127.0499	27	C5H7N2O2+
154.0609	63	C6H8N3O2+
155.0689	111	C6H9N3O2+
156.0113	561	C6H6NO2S+
156.0767	999	C6H10N3O2+
173.0583	54	C9H7N3O+
218.0228	99	C6H8N3O4S+
230.0796	55	C11H10N4O2+
245.1031	190	C12H13N4O2+
311.0806	92	C12H15N4O4S+
