Mass spectrum: Spirotetramat BYI08330-ketohydroxy; LC-ESI-QFT; MS2; CE: 90%; R=17500; [M+H]+
Name: Spirotetramat BYI08330-ketohydroxy
Name: 3-(2,5-Dimethylphenyl)-3-hydroxy-8-methoxy-1-azaspiro(4.5)decane-2,4-dione
Name: 3-(2,5-dimethylphenyl)-3-hydroxy-8-methoxy-1-azaspiro[4.5]decane-2,4-dione
Formula: C18H23NO4
Exact mass: 317.1627
SMILES: CC1=CC(=C(C=C1)C)C2(C(=O)C3(CCC(CC3)OC)NC2=O)O
InChI: InChI=1S/C18H23NO4/c1-11-4-5-12(2)14(10-11)18(22)15(20)17(19-16(18)21)8-6-13(23-3)7-9-17/h4-5,10,13,22H,6-9H2,1-3H3,(H,19,21)
Instrument: Exploris 240 Orbitrap Thermo Scientific
Instrument type: LC-ESI-QFT
Ms type: MS2
Ion mode: POSITIVE
Ionization: ESI
Fragmentation mode: HCD
Collision energy: 90 % (nominal)
Resolution: 17500
Column name: XBridge C18 3.5um, 2.1x50mm, Waters
Retention time: 7.435 min
Base peak: 318.1698
Precursor m/z: 318.17
Precursor type: [M+H]+
m/z	relative intensity	assigned
53.0385	35	C4H5+
54.0338	60	C3H4N+
67.0543	132	C5H7+
77.0386	49	C6H5+
79.0541	151	C6H7+
81.0335	32	C5H5O+
81.0698	42	C6H9+
91.0542	257	C7H7+
94.0653	68	C6H8N+
95.0496	33	C6H7O+
96.0809	40	C6H10N+
105.0701	89	C8H9+
107.0491	33	C7H7O+
115.0543	451	C9H7+
116.0625	29	C9H8+
117.0699	999	C9H9+
119.0856	29	C9H11+
122.0605	17	C7H8NO+
128.0621	476	C10H8+
129.0697	112	C10H9+
130.0653	28	C9H8N+
131.0856	145	C10H11+
141.0703	69	C11H9+
142.0653	35	C10H8N+
143.0732	41	C10H9N+
143.0855	505	C11H11+
144.0812	36	C10H10N+
145.0648	224	C10H9O+
153.0705	30	C12H9+
155.0858	95	C12H11+
156.0572	17	C11H8O+
158.0963	103	C11H12N+
159.0805	81	C11H11O+
165.0698	131	C13H9+
171.0807	421	C12H11O+
179.0862	32	C14H11+
186.0912	56	C12H12NO+
214.0868	223	C13H12NO2+
234.0919	30	C16H12NO+
235.0991	52	C16H13NO+
