Mass spectrum: Tributylphosphine oxide; LC-ESI-QFT; MS2; CE: 120; R=35000; [M+H]+
Name: Tributylphosphine oxide
Name: Tri-n-butylphosphine oxide
Formula: C12H27OP
Exact mass: 218.17995
SMILES: CCCCP(=O)(CCCC)CCCC
InChI: InChI=1S/C12H27OP/c1-4-7-10-14(13,11-8-5-2)12-9-6-3/h4-12H2,1-3H3
Instrument: Q Exactive Plus Orbitrap Thermo Scientific
Instrument type: LC-ESI-QFT
Ms type: MS2
Ion mode: POSITIVE
Ionization: ESI
Fragmentation mode: HCD
Collision energy: 120 (nominal)
Resolution: 35000
Column name: XBridge C18 3.5um, 2.1x50mm, Waters
Retention time: 11.0 min
Base peak: 219.1869
Precursor m/z: 219.1872
Precursor type: [M+H]+
m/z	relative intensity	assigned
50.9995	3	H4OP+
53.0022	14	C3HO+
53.0386	1	C4H5+
53.9974	3	C2NO+
55.0543	29	C4H7+
56.9889	31	C2H2P+
57.0699	38	C4H9+
59.0045	34	C2H4P+
61.0202	52	C2H6P+
62.9995	999	CH4OP+
64.0073	151	CH5OP+
64.9787	4	H2O2P+
65.0151	5	CH6OP+
67.9892	4	C3O2+
73.0202	12	C3H6P+
74.9994	3	C2H4OP+
75.0359	2	C3H8P+
77.0151	235	C2H6OP+
78.0229	591	C2H7OP+
78.9943	18	CH4O2P+
79.0307	5	C2H8OP+
81.01	7	CH6O2P+
85.0202	2	C4H6P+
87.0359	6	C4H8P+
89.0514	3	C4H10P+
90.0229	1	C3H7OP+
91.0308	43	C3H8OP+
92.0386	267	C3H9OP+
93.0101	74	C2H6O2P+
95.0257	319	C2H8O2P+
105.0464	43	C4H10OP+
107.062	8	C4H12OP+
109.0413	5	C3H10O2P+
117.0461	2	C5H10OP+
119.062	8	C5H12OP+
133.0777	36	C6H14OP+
147.0933	25	C7H16OP+
161.109	7	C8H18OP+
163.1245	3	C8H20OP+
175.1247	6	C9H20OP+
