Mass spectrum: Trinexapac-ethyl; LC-ESI-ITFT; MS2; CE: 75%; R=7500; [M+H]+
Name: Trinexapac-ethyl
Name: 4-[cyclopropyl(hydroxy)methylene]-3,5-diketo-cyclohexanecarboxylic acid ethyl ester
Formula: C13H16O5
Exact mass: 252.0992
SMILES: CCOC(=O)C1CC(=O)C(=C(C2CC2)O)C(=O)C1
InChI: InChI=1S/C13H16O5/c1-2-18-13(17)8-5-9(14)11(10(15)6-8)12(16)7-3-4-7/h7-8,16H,2-6H2,1H3/b12-11-
Instrument: LTQ Orbitrap XL Thermo Scientific
Instrument type: LC-ESI-ITFT
Ms type: MS2
Ion mode: POSITIVE
Ionization: ESI
Fragmentation mode: HCD
Collision energy: 75 % (nominal)
Resolution: 7500
Column name: XBridge C18 3.5um, 2.1x50mm, Waters
Retention time: 8.9 min
Base peak: 253.1073
Precursor m/z: 253.1071
Precursor type: [M+H]+
m/z	relative intensity	assigned
68.9971	275	C3HO2+
69.0335	999	C4H5O+
71.0128	8	C3H3O2+
81.0335	52	C5H5O+
83.0494	24	C5H7O+
85.0284	113	C4H5O2+
95.0129	35	C5H3O2+
97.0284	14	C5H5O2+
99.0079	32	C4H3O3+
105.0703	17	C8H9+
107.049	18	C7H7O+
109.0284	46	C6H5O2+
109.0646	8	C7H9O+
111.044	228	C6H7O2+
113.0232	31	C5H5O3+
121.0282	16	C7H5O2+
123.0077	83	C6H3O3+
123.0442	26	C7H7O2+
133.0651	18	C9H9O+
137.0234	217	C7H5O3+
139.0391	102	C7H7O3+
155.0336	46	C7H7O4+
165.0186	42	C8H5O4+
179.0704	17	C10H11O3+
183.0289	15	C8H7O5+
