Mass spectrum: N4-Acetylsulfamethazine; LC-ESI-ITFT; MS2; CE: 30%; R=15000; [M+H]+
Name: N4-Acetylsulfamethazine
Name: N-[4-[(4,6-dimethyl-2-pyrimidinyl)sulfamoyl]phenyl]acetamide
Formula: C14H16N4O3S
Exact mass: 320.0943
SMILES: O=S(=O)(c1ccc(cc1)NC(=O)C)Nc1nc(cc(n1)C)C
InChI: InChI=1S/C14H16N4O3S/c1-9-8-10(2)16-14(15-9)18-22(20,21)13-6-4-12(5-7-13)17-11(3)19/h4-8H,1-3H3,(H,17,19)(H,15,16,18)
Instrument: LTQ Orbitrap XL Thermo Scientific
Instrument type: LC-ESI-ITFT
Ms type: MS2
Ion mode: POSITIVE
Ionization: ESI
Fragmentation mode: HCD
Collision energy: 30 % (nominal)
Resolution: 15000
Column name: XBridge C18 3.5um, 2.1x50mm, Waters
Retention time: 4.5 min
Base peak: 321.1027
Precursor m/z: 321.1016
Precursor type: [M+H]+
m/z	relative intensity	assigned
93.0335	2	C6H5O+
108.0444	20	C6H6NO+
118.0652	13	C8H8N+
124.0869	79	C6H10N3+
134.06	40	C8H8NO+
136.0757	15	C8H10NO+
150.055	7	C8H8NO2+
156.0114	4	C6H6NO2S+
162.0662	13	C8H8N3O+
186.0332	150	C6H8N3O2S+
198.0219	75	C8H8NO3S+
204.0437	55	C6H10N3O3S+
255.1239	52	C14H15N4O+
321.1019	999	C14H17N4O3S+
