Mass spectrum: O-Des[2-aminoethyl]-O-carboxymethyl dehydroamlodipine; LC-ESI-QFT; MS2; CE: 30%; R=15000; [M-H]-
Name: O-Des[2-aminoethyl]-O-carboxymethyl dehydroamlodipine
Name: 2-((4-(2-Chlorophenyl)-3-ethoxycarbonyl-5-methoxycarbonyl-6-methyl-2-pyridyl)methoxy)acetic acid
Name: 2-[[4-(2-chlorophenyl)-3-ethoxycarbonyl-5-methoxycarbonyl-6-methylpyridin-2-yl]methoxy]acetic acid
Formula: C20H20ClNO7
Exact mass: 421.0928
SMILES: CCOC(=O)C1=C(C(=C(N=C1COCC(=O)O)C)C(=O)OC)C2=CC=CC=C2Cl
InChI: InChI=1S/C20H20ClNO7/c1-4-29-20(26)18-14(9-28-10-15(23)24)22-11(2)16(19(25)27-3)17(18)12-7-5-6-8-13(12)21/h5-8H,4,9-10H2,1-3H3,(H,23,24)
Instrument: Orbitrap Exploris 240 Thermo Scientific
Instrument type: LC-ESI-QFT
Ms type: MS2
Ion mode: NEGATIVE
Ionization: ESI
Fragmentation mode: HCD
Collision energy: 30 % (nominal)
Resolution: 15000
Column name: Atlantis C18 3um, 3.0x150mm, Waters
Retention time: 18.423 min
Base peak: 420.0855
Precursor m/z: 420.0856
Precursor type: [M-H]-
Precursor intensity: 14212248
m/z	relative intensity	assigned
59.0138	999	C2H3O2-
224.0729	6	C14H10NO2-
228.0579	8	C17H8O-
242.0381	13	C14H9ClNO-
254.0379	264	C15H9ClNO-
255.0455	10	C15H10ClNO-
256.0173	13	C14H7ClNO2-
256.0536	52	C15H11ClNO-
270.0333	13	C15H9ClNO2-
274.0641	110	C15H13ClNO2-
295.0857	6	C17H13NO4-
302.0607	9	C16H13ClNO3-
316.0365	7	C13H13ClO7-
330.0547	7	C17H13ClNO4-
346.0868	12	C18H17ClNO4-
360.0635	16	C18H15ClNO5-
361.0741	8	C18H16ClNO5-
362.0799	4	C18H17ClNO5-
