Mass spectrum: Quinalphos; LC-ESI-QFT; MS2; CE: 15%; R=17500; [M+H]+
Name: Quinalphos
Name: diethoxy-quinoxalin-2-yloxy-sulfanylidene-lambda5-phosphane
Formula: C12H15N2O3PS
Exact mass: 298.0541
SMILES: CCOP(=S)(OCC)OC1=NC2=CC=CC=C2N=C1
InChI: InChI=1S/C12H15N2O3PS/c1-3-15-18(19,16-4-2)17-12-9-13-10-7-5-6-8-11(10)14-12/h5-9H,3-4H2,1-2H3
Instrument: Exploris 240 Orbitrap Thermo Scientific
Instrument type: LC-ESI-QFT
Ms type: MS2
Ion mode: POSITIVE
Ionization: ESI
Fragmentation mode: HCD
Collision energy: 15 % (nominal)
Resolution: 17500
Column name: XBridge C18 3.5um, 2.1x50mm, Waters
Retention time: 10.502 min
Base peak: 299.061
Precursor m/z: 299.0614
Precursor type: [M+H]+
m/z	relative intensity	assigned
147.0553	17	C8H7N2O+
153.0131	13	C4H10O2PS+
163.0326	7	C8H7N2S+
271.0302	77	C10H12N2O3PS+
299.0614	999	C12H16N2O3PS+
