Mass spectrum: Metolachlor-TP SYN547977; LC-ESI-QFT; MS2; CE: 30%; R=17500; [M+H]+
Name: Metolachlor-TP SYN547977
Formula: C15H20ClNO3
Exact mass: 297.1132
SMILES: ClCC(=O)N(C(C)COC)c1c(C)cccc1C(C)=O
InChI: InChI=1S/C15H20ClNO3/c1-10-6-5-7-13(12(3)18)15(10)17(14(19)8-16)11(2)9-20-4/h5-7,11H,8-9H2,1-4H3
Instrument: Exploris 240 Orbitrap Thermo Scientific
Instrument type: LC-ESI-QFT
Ms type: MS2
Ion mode: POSITIVE
Ionization: ESI
Fragmentation mode: HCD
Collision energy: 30 % (nominal)
Resolution: 17500
Column name: XBridge C18 3.5um, 2.1x50mm, Waters
Retention time: 6.762 min
Base peak: 298.1202
Precursor m/z: 298.1204
Precursor type: [M+H]+
m/z	relative intensity	assigned
73.0647	5	C4H9O+
172.112	17	C12H14N+
186.1273	12	C13H16N+
190.1227	34	C12H16NO+
208.0532	5	C11H11ClNO+
266.0942	999	C14H17ClNO2+
