Mass spectrum: Atenolol acid; LC-ESI-ITFT; MS2; CE: 45%; R=15000; [M+H]+
Name: Atenolol acid
Name: Metoprolol acid
Name: 4-(2-Hydroxy-3-((1-methylethyl)amino)propoxy)benzeneacetic acid
Formula: C14H21NO4
Exact mass: 267.1471
SMILES: CC(C)NCC(O)COc1ccc(cc1)CC(=O)O
InChI: InChI=1S/C14H21NO4/c1-10(2)15-8-12(16)9-19-13-5-3-11(4-6-13)7-14(17)18/h3-6,10,12,15-16H,7-9H2,1-2H3,(H,17,18)
Instrument: LTQ Orbitrap XL Thermo Scientific
Instrument type: LC-ESI-ITFT
Ms type: MS2
Ion mode: POSITIVE
Ionization: ESI
Fragmentation mode: HCD
Collision energy: 45 % (nominal)
Resolution: 15000
Column name: XBridge C18 3.5um, 2.1x50mm, Waters
Retention time: 3.8 min
Base peak: 268.1553
Precursor m/z: 268.1543
Precursor type: [M+H]+
m/z	relative intensity	assigned
56.0495	170	C3H6N+
58.0651	24	C3H8N+
72.0808	206	C4H10N+
74.0601	186	C3H8NO+
91.0542	21	C7H7+
95.0492	7	C6H7O+
98.0965	246	C6H12N+
107.0492	7	C7H7O+
109.065	8	C7H9O+
116.107	324	C6H14NO+
117.0702	6	C9H9+
119.0492	34	C8H7O+
123.044	11	C7H7O2+
133.0647	15	C9H9O+
137.0598	44	C8H9O2+
145.0648	589	C10H9O+
162.0914	19	C10H12NO+
163.0497	9	C8H7N2O2+
163.0754	32	C10H11O2+
165.0547	220	C9H9O3+
179.07	21	C10H11O3+
191.0703	911	C11H11O3+
208.0962	10	C11H14NO3+
226.1073	307	C11H16NO4+
233.1178	10	C14H17O3+
250.1439	63	C14H20NO3+
268.1545	999	C14H22NO4+
