Mass spectrum: Coumaphos; LC-ESI-QFT; MS2; CE: 60%; R=17500; [M+H]+
Name: Coumaphos
Name: 3-chloro-7-diethoxyphosphinothioyloxy-4-methylchromen-2-one
Formula: C14H16ClO5PS
Exact mass: 362.0145
SMILES: CCOP(=S)(OCC)OC1=CC2=C(C=C1)C(=C(C(=O)O2)Cl)C
InChI: InChI=1S/C14H16ClO5PS/c1-4-17-21(22,18-5-2)20-10-6-7-11-9(3)13(15)14(16)19-12(11)8-10/h6-8H,4-5H2,1-3H3
Instrument: Exploris 240 Orbitrap Thermo Scientific
Instrument type: LC-ESI-QFT
Ms type: MS2
Ion mode: POSITIVE
Ionization: ESI
Fragmentation mode: HCD
Collision energy: 60 % (nominal)
Resolution: 17500
Column name: XBridge C18 3.5um, 2.1x50mm, Waters
Retention time: 10.877 min
Base peak: 363.0214
Precursor m/z: 363.0217
Precursor type: [M+H]+
m/z	relative intensity	assigned
96.9508	67	H2O2PS+
103.0541	6	C8H7+
109.0047	9	C3H6ClO2+
114.9614	30	H4O3PS+
115.0541	30	C9H7+
131.0491	23	C9H7O+
132.057	18	C9H8O+
135.0262	9	C8H7S+
147.0263	42	C9H7S+
148.0343	11	C9H8S+
149.0151	2	C9H6Cl+
150.0231	39	C9H7Cl+
163.021	21	C9H7OS+
164.0293	24	C9H8OS+
165.0099	6	C8H6O2P+
166.0183	13	C9H7ClO+
191.0154	16	C10H7O2S+
194.0131	51	C10H7ClO2+
209.0005	5	C10H6ClO3+
210.008	8	C10H7ClO3+
211.0157	239	C10H8ClO3+
225.985	138	C10H7ClO2S+
226.9928	999	C10H8ClO2S+
256.9763	11	C10H7ClO4P+
270.9381	5	C10H5ClO3PS+
272.9705	20	C10H7ClO5P+
288.9486	153	C10H7ClO4PS+
306.9599	9	C10H9ClO5PS+
