Mass spectrum: Coumaphos; LC-ESI-QFT; MS2; CE: 120%; R=17500; [M+H]+
Name: Coumaphos
Name: 3-chloro-7-diethoxyphosphinothioyloxy-4-methylchromen-2-one
Formula: C14H16ClO5PS
Exact mass: 362.0145
SMILES: CCOP(=S)(OCC)OC1=CC2=C(C=C1)C(=C(C(=O)O2)Cl)C
InChI: InChI=1S/C14H16ClO5PS/c1-4-17-21(22,18-5-2)20-10-6-7-11-9(3)13(15)14(16)19-12(11)8-10/h6-8H,4-5H2,1-3H3
Instrument: Exploris 240 Orbitrap Thermo Scientific
Instrument type: LC-ESI-QFT
Ms type: MS2
Ion mode: POSITIVE
Ionization: ESI
Fragmentation mode: HCD
Collision energy: 120 % (nominal)
Resolution: 17500
Column name: XBridge C18 3.5um, 2.1x50mm, Waters
Retention time: 10.877 min
Base peak: 363.0214
Precursor m/z: 363.0217
Precursor type: [M+H]+
m/z	relative intensity	assigned
51.0229	18	C4H3+
53.0385	36	C4H5+
64.9786	203	H2O2P+
65.0385	175	C5H5+
68.9794	110	C3HS+
68.9973	33	C3HO2+
75.0229	50	C6H3+
77.0386	289	C6H5+
78.9401	172	OPS+
90.0465	70	C7H6+
91.0542	999	C7H7+
95.0491	78	C6H7O+
96.9507	674	H2O2PS+
101.0387	31	C8H5+
102.0464	459	C8H6+
103.0542	535	C8H7+
114.0463	52	C9H6+
114.9612	241	H4O3PS+
115.0542	635	C9H7+
118.0414	49	C8H6O+
119.0491	261	C8H7O+
120.0568	80	C8H8O+
121.0105	103	C7H5S+
125.0155	53	C7H6Cl+
130.0411	36	C9H6O+
131.0492	810	C9H7O+
132.0566	78	C9H8O+
134.0184	215	C8H6S+
135.0262	258	C8H7S+
137.0156	44	C8H6Cl+
138.0232	19	C8H7Cl+
145.0104	30	C9H5S+
147.0267	190	C9H7S+
147.0441	401	C9H7O2+
148.0517	110	C9H8O2+
159.044	67	C10H7O2+
162.0135	37	C9H6OS+
163.0211	381	C9H7OS+
164.0294	82	C9H8OS+
166.0182	49	C9H7ClO+
182.0125	117	C8H7O3P+
