Mass spectrum: N-Nitrosopiperidine (NPIP); LC-ESI-QFT; MS2; CE: 75; R=70000; [M+H]+
Name: N-Nitrosopiperidine (NPIP)
Name: 1-nitrosopiperidine
Formula: C5H10N2O
Exact mass: 114.07931
SMILES: O=NN1CCCCC1
InChI: InChI=1S/C5H10N2O/c8-6-7-4-2-1-3-5-7/h1-5H2
Instrument: Q Exactive Plus Orbitrap Thermo Scientific
Instrument type: LC-ESI-QFT
Ms type: MS2
Ion mode: POSITIVE
Ionization: ESI
Fragmentation mode: HCD
Collision energy: 75 (nominal)
Resolution: 70000
Column name: XBridge C18 3.5um, 2.1x50mm, Waters
Retention time: 4.1 min
Base peak: 115.0866
Precursor m/z: 115.0866
Precursor type: [M+H]+
m/z	relative intensity	assigned
52.0182	1	C3H2N+
53.0022	50	C3HO+
53.9974	9	C2NO+
54.01	2	C3H2O+
55.0542	14	C4H7+
59.024	11	CH3N2O+
67.0542	31	C5H7+
67.9893	9	C3O2+
69.0699	999	C5H9+
70.0651	28	C4H8N+
70.0777	2	C5H10+
78.0087	1	C3N3+
84.0808	4	C5H10N+
115.0866	651	C5H11N2O+
