Mass spectrum: Emtricitabine; LC-ESI-QFT; MS2; CE: 45; R=35000; [M-H]-
Name: Emtricitabine
Name: 4-amino-5-fluoro-1-[(2R,5S)-2-(hydroxymethyl)-1,3-oxathiolan-5-yl]-2-pyrimidinone
Formula: C8H10FN3O3S
Exact mass: 247.04269
SMILES: FC=1\C(=N/C(=O)N(C=1)[C@H]2O[C@H](SC2)CO)\N
InChI: InChI=1S/C8H10FN3O3S/c9-4-1-12(8(14)11-7(4)10)5-3-16-6(2-13)15-5/h1,5-6,13H,2-3H2,(H2,10,11,14)/t5-,6+/m0/s1
Instrument: Q Exactive Orbitrap Thermo Scientific
Instrument type: LC-ESI-QFT
Ms type: MS2
Ion mode: NEGATIVE
Ionization: ESI
Fragmentation mode: HCD
Collision energy: 45 (nominal)
Resolution: 35000
Column name: XBridge C18 3.5um, 2.1x50mm, Waters
Retention time: 2.1 min
Base peak: 235.9261
Precursor m/z: 246.0354
Precursor type: [M-H]-
m/z	relative intensity	assigned
57.9756	13	CNS-
65.0145	5	C3HN2-
77.0146	2	C4HN2-
83.0052	2	C3FN2-
85.0207	1	C3H2FN2-
95.9787	1	C3N2S-
95.9912	2	C4H2NS-
104.0254	116	C5H2N3-
105.0331	16	C5H3N3-
107.0251	5	C5H3N2O-
110.016	35	C4HFN3-
111.0022	27	C4H3N2S-
112.0318	2	C4H3FN3-
115.0209	7	C3H5N3S-
122.0359	1	C5H4N3O-
123.0024	13	C5H3N2S-
128.0266	18	C4H3FN3O-
132.0203	94	C6H2N3O-
133.0279	2	C6H3N3O-
134.0358	2	C6H4N3O-
138.0129	11	C5H4N3S-
138.9971	9	C5H3N2OS-
140.0266	2	C5H3FN3O-
142.0419	4	C5H5FN3O-
143.0084	25	C5H4FN2S-
152.0265	999	C6H3FN3O-
158.0194	2	C5H5FN3S-
166.008	29	C6H4N3OS-
170.0369	14	C6H5FN3O2-
186.0141	2	C6H5FN3OS-
