Mass spectrum: Verapamil; LC-ESI-ITFT; MS2; CE: 45%; R=15000; [M+H]+
Name: Verapamil
Name: 2-(3,4-dimethoxyphenyl)-5-[2-(3,4-dimethoxyphenyl)ethyl-methyl-amino]-2-propan-2-yl-pentanenitrile
Formula: C27H38N2O4
Exact mass: 454.2832
SMILES: COC1=C(OC)C=CC(C(C(C)C)(C#N)CCCN(CCC2=CC(OC)=C(OC)C=C2)C)=C1
InChI: InChI=1S/C27H38N2O4/c1-20(2)27(19-28,22-10-12-24(31-5)26(18-22)33-7)14-8-15-29(3)16-13-21-9-11-23(30-4)25(17-21)32-6/h9-12,17-18,20H,8,13-16H2,1-7H3
Instrument: LTQ Orbitrap XL Thermo Scientific
Instrument type: LC-ESI-ITFT
Ms type: MS2
Ion mode: POSITIVE
Ionization: ESI
Fragmentation mode: HCD
Collision energy: 45 % (nominal)
Resolution: 15000
Column name: XBridge C18 3.5um, 2.1x50mm, Waters
Retention time: 7.3 min
Base peak: 455.292
Precursor m/z: 455.2904
Precursor type: [M+H]+
m/z	relative intensity	assigned
58.0651	11	C3H8N+
79.0543	2	C6H7+
86.0966	3	C5H12N+
95.0856	1	C7H11+
96.0809	2	C6H10N+
103.0542	2	C8H7+
105.0699	13	C8H9+
121.0648	2	C8H9O+
122.0965	8	C8H12N+
131.0491	2	C9H7O+
133.065	16	C9H9O+
134.0728	4	C9H10O+
135.044	4	C8H7O2+
135.0805	12	C9H11O+
136.0521	2	C8H8O2+
139.0755	4	C8H11O2+
149.0598	2	C9H9O2+
150.0676	140	C9H10O2+
151.0754	18	C9H11O2+
152.0831	1	C9H12O2+
164.0837	2	C10H12O2+
165.0912	999	C10H13O2+
177.0911	19	C11H13O2+
194.1176	2	C11H16NO2+
217.1104	3	C13H15NO2+
218.1175	9	C13H16NO2+
233.1547	3	C15H21O2+
243.138	5	C16H19O2+
245.1417	3	C15H19NO2+
260.1647	78	C16H22NO2+
261.16	33	C15H21N2O2+
303.2069	152	C18H27N2O2+
455.2899	4	C27H39N2O4+
