Mass spectrum: Diethyl-phthalate; LC-ESI-QFT; MS2; CE: 90; R=35000; [M+H]+
Name: Diethyl-phthalate
Name: Diethyl phthalate
Name: Diethyl benzene-1,2-dicarboxylate
Formula: C12H14O4
Exact mass: 222.08921
SMILES: CCOC(=O)C1=CC=CC=C1C(=O)OCC
InChI: InChI=1S/C12H14O4/c1-3-15-11(13)9-7-5-6-8-10(9)12(14)16-4-2/h5-8H,3-4H2,1-2H3
Instrument: Q Exactive Plus Orbitrap Thermo Scientific
Instrument type: LC-ESI-QFT
Ms type: MS2
Ion mode: POSITIVE
Ionization: ESI
Fragmentation mode: HCD
Collision energy: 90 (nominal)
Resolution: 35000
Column name: XBridge C18 3.5um, 2.1x50mm, Waters
Retention time: 8.7 min
Base peak: 223.0959
Precursor m/z: 223.0965
Precursor type: [M+H]+
m/z	relative intensity	assigned
51.0227	1	C4H3+
53.0021	4	C3HO+
53.9974	1	C2NO+
55.0179	7	C3H3O+
63.0227	2	C5H3+
65.0385	999	C5H5+
67.9893	1	C3O2+
68.997	4	C3HO2+
79.0178	2	C5H3O+
80.0256	16	C5H4O+
93.0335	225	C6H5O+
98.0361	8	C5H6O2+
111.044	156	C6H7O2+
121.0284	889	C7H5O2+
121.0396	530	C6H5N2O+
122.0366	3	C7H6O2+
149.0233	944	C8H5O3+
167.0337	2	C8H7O4+
