Mass spectrum: Fenoxycarb; LC-ESI-ITFT; MS2; CE: 35%; R=30000; [M+H]+
Name: Fenoxycarb
Name: N-[2-(4-phenoxyphenoxy)ethyl]carbamic acid ethyl ester
Formula: C17H19NO4
Exact mass: 301.1314
SMILES: O=C(OCC)NCCOc2ccc(Oc1ccccc1)cc2
InChI: InChI=1S/C17H19NO4/c1-2-20-17(19)18-12-13-21-14-8-10-16(11-9-14)22-15-6-4-3-5-7-15/h3-11H,2,12-13H2,1H3,(H,18,19)
Instrument: LTQ Orbitrap XL Thermo Scientific
Instrument type: LC-ESI-ITFT
Ms type: MS2
Ion mode: POSITIVE
Ionization: ESI
Fragmentation mode: CID
Collision energy: 35 % (nominal)
Resolution: 30000
Column name: XBridge C18 3.5um, 2.1x50mm, Waters
Retention time: 12.6 min
Base peak: 302.1394
Precursor m/z: 302.1387
Precursor type: [M+H]+
m/z	relative intensity	assigned
88.0394	335	C3H6NO2+
116.0706	999	C5H10NO2+
213.0908	2	C14H13O2+
230.1174	2	C14H16NO2+
256.0969	685	C15H14NO3+
258.1486	3	C16H20NO2+
