Mass spectrum: Dicloxacillin; LC-ESI-QFT; MS2; CE: 45; R=35000; [M+H]+
Name: Dicloxacillin
Name: 6-[[3-(2,6-dichlorophenyl)-5-methyl-1,2-oxazole-4-carbonyl]amino]-3,3-dimethyl-7-oxo-4-thia-1-azabicyclo[3.2.0]heptane-2-carboxylic acid
Formula: C19H17Cl2N3O5S
Exact mass: 469.02660
SMILES: CC1=C(C(=NO1)C2=C(C=CC=C2Cl)Cl)C(=O)NC3C4N(C3=O)C(C(S4)(C)C)C(=O)O
InChI: InChI=1S/C19H17Cl2N3O5S/c1-7-10(12(23-29-7)11-8(20)5-4-6-9(11)21)15(25)22-13-16(26)24-14(18(27)28)19(2,3)30-17(13)24/h4-6,13-14,17H,1-3H3,(H,22,25)(H,27,28)
Instrument: Q Exactive Plus Orbitrap Thermo Scientific
Instrument type: LC-ESI-QFT
Ms type: MS2
Ion mode: POSITIVE
Ionization: ESI
Fragmentation mode: HCD
Collision energy: 45 (nominal)
Resolution: 35000
Column name: XBridge C18 3.5um, 2.1x50mm, Waters
Retention time: 9.6 min
Base peak: 470.0332
Precursor m/z: 470.0339
Precursor type: [M+H]+
m/z	relative intensity	assigned
53.0385	2	C4H5+
54.0338	1	C3H4N+
56.0494	2	C3H6N+
58.9949	2	C2H3S+
68.0495	1	C4H6N+
69.0447	6	C3H5N2+
70.0651	9	C4H8N+
72.0444	13	C3H6NO+
85.0107	1	C4H5S+
87.0263	47	C4H7S+
96.0444	2	C5H6NO+
98.0601	6	C5H8NO+
99.0441	2	C5H7O2+
100.0393	16	C4H6NO2+
108.9839	1	C6H2Cl+
114.0372	999	C5H8NS+
115.021	1	C5H7OS+
126.0371	4	C6H8NS+
128.0529	5	C6H10NS+
142.0322	47	C6H8NOS+
144.0478	1	C6H10NOS+
144.9606	1	C6H3Cl2+
156.9599	1	C7H3Cl2+
160.0427	781	C6H10NO2S+
170.9765	2	C8H5Cl2+
171.9714	5	C7H4Cl2N+
183.9715	20	C8H4Cl2N+
185.9873	18	C8H6Cl2N+
189.0217	1	C7H9O4S+
190.029	4	C10H7ClN2+
195.9717	109	C9H4Cl2N+
197.9872	531	C12H3ClO+
203.0371	2	C11H8ClN2+
209.9872	25	C10H6Cl2N+
211.9666	495	C9H4Cl2NO+
212.9985	1	C6H10ClO4S+
213.9822	59	C9H6Cl2NO+
222.9824	3	C10H5Cl2N2+
224.9982	30	C10H7Cl2N2+
227.9978	2	C10H8Cl2NO+
231.032	1	C12H8ClN2O+
237.9821	19	C11H6Cl2NO+
239.9978	157	C11H8Cl2NO+
240.9933	4	C7H10ClO5S+
253.9769	6	C11H6Cl2NO2+
255.9927	122	C6H9ClN2O5S+
264.993	13	C12H7Cl2N2O+
267.0087	23	
268.988	17	C11H7Cl2N2O2+
283.0037	1	C12H9Cl2N2O2+
292.988	2	C13H7Cl2N2O2+
310.9985	31	C13H9Cl2N2O3+
