Mass spectrum: N4-Acetylsulfamethoxazole; LC-ESI-ITFT; MS2; CE: 45%; R=15000; [M+H]+
Name: N4-Acetylsulfamethoxazole
Name: N-[4-[(5-methyl-1,2-oxazol-3-yl)sulfamoyl]phenyl]acetamide
Formula: C12H13N3O4S
Exact mass: 295.0627
SMILES: c1(ccc(cc1)NC(C)=O)S(Nc1cc(C)on1)(=O)=O
InChI: InChI=1S/C12H13N3O4S/c1-8-7-12(14-19-8)15-20(17,18)11-5-3-10(4-6-11)13-9(2)16/h3-7H,1-2H3,(H,13,16)(H,14,15)
Instrument: LTQ Orbitrap XL Thermo Scientific
Instrument type: LC-ESI-ITFT
Ms type: MS2
Ion mode: POSITIVE
Ionization: ESI
Fragmentation mode: HCD
Collision energy: 45 % (nominal)
Resolution: 15000
Column name: XBridge C18 3.5um, 2.1x50mm, Waters
Retention time: 5.5 min
Base peak: 318.0528
Precursor m/z: 296.07
Precursor type: [M+H]+
m/z	relative intensity	assigned
65.0385	93	C5H5+
92.0494	37	C6H6N+
93.0335	50	C6H5O+
93.0572	95	C6H7N+
94.0653	17	C6H8N+
99.0552	86	C4H7N2O+
107.0604	14	C6H7N2+
108.0443	357	C6H6NO+
134.06	999	C8H8NO+
135.0675	8	C8H9NO+
136.0756	166	C8H10NO+
146.0712	78	C8H8N3+
147.0789	55	C8H9N3+
148.0871	17	C8H10N3+
150.0547	28	C8H8NO2+
156.0113	78	C6H6NO2S+
160.0868	164	C9H10N3+
161.0015	18	C4H5N2O3S+
162.0662	129	C8H8N3O+
176.0274	14	C8H6N3S+
188.0817	131	C10H10N3O+
189.0896	29	C10H11N3O+
190.0972	40	C10H12N3O+
194.038	83	C8H8N3OS+
198.0218	324	C8H8NO3S+
201.0658	9	C11H9N2O2+
218.0375	11	C10H8N3OS+
236.0494	14	C10H10N3O2S+
296.0697	40	C12H14N3O4S+
