Mass spectrum: Pencycuron; LC-ESI-QFT; MS2; CE: 15; R=35000; [M-H]-
Name: Pencycuron
Name: 1-(4-chlorobenzyl)-1-cyclopentyl-3-phenyl-urea
Formula: C19H21ClN2O
Exact mass: 328.13424
SMILES: Clc1ccc(cc1)CN(C(=O)Nc2ccccc2)C3CCCC3
InChI: InChI=1S/C19H21ClN2O/c20-16-12-10-15(11-13-16)14-22(18-8-4-5-9-18)19(23)21-17-6-2-1-3-7-17/h1-3,6-7,10-13,18H,4-5,8-9,14H2,(H,21,23)
Instrument: Q Exactive Orbitrap Thermo Scientific
Instrument type: LC-ESI-QFT
Ms type: MS2
Ion mode: NEGATIVE
Ionization: ESI
Fragmentation mode: HCD
Collision energy: 15 (nominal)
Resolution: 35000
Column name: XBridge C18 3.5um, 2.1x50mm, Waters
Retention time: 13.8 min
Base peak: 327.1271
Precursor m/z: 327.127
Precursor type: [M-H]-
m/z	relative intensity	assigned
92.0505	29	C6H6N-
98.0611	2	C5H8NO-
111.0006	56	C6H4Cl-
118.03	9	C7H4NO-
126.0115	8	C6H5ClN-
135.9959	3	C7H3ClN-
151.9908	4	C7H3ClNO-
154.9906	1	C7H4ClO2-
166.0065	21	C8H5ClNO-
186.0922	1	C12H12NO-
206.0742	9	C12H13ClN-
208.0898	20	C12H15ClN-
220.0533	4	C12H11ClNO-
258.0563	1	C14H11ClN2O-
259.0643	11	C14H12ClN2O-
327.1269	999	C19H20ClN2O-
