Mass spectrum: Microcystin-RR; LC-ESI-QFT; MS2; CE: 45; R=35000; [M+H]+
Name: Microcystin-RR
Name: (5R,8R,11R,12S,15S,18S,19S,22R)-8,15-bis[3-(diaminomethylideneamino)propyl]-18-[(1E,3E,5S,6S)-6-methoxy-3,5-dimethyl-7-phenylhepta-1,3-dienyl]-1,5,12,19-tetramethyl-2-methylidene-3,6,9,13,16,20,25-heptaoxo-1,4,7,10,14,17,21-heptazacyclopentacosane-11,22-dicarboxylic acid
Formula: C49H75N13O12
Exact mass: 1037.56581
SMILES: O=C2N[C@@H](\C=C\C(=C\[C@H](C)[C@@H](OC)Cc1ccccc1)C)[C@@H](C(=O)N[C@@H](C(=O)O)CCC(=O)N(/C(=C)C(=O)N[C@@H](C(=O)N[C@@H](C(=O)N[C@@H](C(=O)O)[C@@H](C(=O)N[C@H]2CCC/N=C(\N)N)C)CCC/N=C(\N)N)C)C)C
InChI: InChI=1S/C49H75N13O12/c1-26(24-27(2)37(74-8)25-32-14-10-9-11-15-32)18-19-33-28(3)40(64)60-36(46(70)71)20-21-38(63)62(7)31(6)43(67)56-30(5)42(66)59-35(17-13-23-55-49(52)53)45(69)61-39(47(72)73)29(4)41(65)58-34(44(68)57-33)16-12-22-54-48(50)51/h9-11,14-15,18-19,24,27-30,33-37,39H,6,12-13,16-17,20-23,25H2,1-5,7-8H3,(H,56,67)(H,57,68)(H,58,65)(H,59,66)(H,60,64)(H,61,69)(H,70,71)(H,72,73)(H4,50,51,54)(H4,52,53,55)/b19-18+,26-24+/t27-,28-,29-,30+,33-,34-,35+,36+,37-,39+/m0/s1
Instrument: Q Exactive Orbitrap Thermo Scientific
Instrument type: LC-ESI-QFT
Ms type: MS2
Ion mode: POSITIVE
Ionization: ESI
Fragmentation mode: HCD
Collision energy: 45 (nominal)
Resolution: 35000
Column name: XBridge C18 3.5um, 2.1x50mm, Waters
Retention time: 9.1 min
Base peak: 519.7909
Precursor m/z: 1038.5731
Precursor type: [M+H]+
m/z	relative intensity	assigned
72.0808	1	C4H10N+
77.0386	4	C6H5+
79.0543	25	C6H7+
82.0288	5	C4H4NO+
82.0652	12	C5H8N+
83.0605	2	C4H7N2+
84.0445	102	C4H6NO+
85.0761	9	C4H9N2+
86.0602	5	C4H8NO+
87.0792	11	C3H9N3+
91.0542	99	C7H7+
93.07	77	C7H9+
94.0653	3	C6H8N+
95.0492	37	C6H7O+
95.0605	14	C5H7N2+
95.0857	14	C7H11+
96.0443	3	C5H6NO+
96.081	8	C6H10N+
97.0761	34	C5H9N2+
98.0601	31	C5H8NO+
99.0917	18	C5H11N2+
100.0757	3	C5H10NO+
100.087	5	C4H10N3+
101.0712	3	C4H9N2O+
102.0467	2	C8H6+
102.055	13	C4H8NO2+
103.0543	209	C8H7+
104.0577	2	C3H8N2O2+
105.07	199	C8H9+
107.0856	374	C8H11+
108.0889	4	C3H12N2O2+
109.0649	10	C7H9O+
109.0762	2	C6H9N2+
110.0601	5	C6H8NO+
110.0716	2	C5H8N3+
112.087	307	C5H10N3+
113.071	76	C5H9N2O+
114.0551	3	C5H8NO2+
114.0663	4	C4H8N3O+
114.1027	48	C5H12N3+
115.0544	34	C9H7+
115.0867	233	C5H11N2O+
116.0707	17	C5H10NO2+
117.07	95	C9H9+
119.0691	3	C3H9N3O2+
119.0857	21	C9H11+
120.057	3	C8H8O+
120.0808	29	C8H10N+
121.0647	3	C8H9O+
121.1012	4	C9H13+
123.0916	9	C7H11N2+
124.076	13	C7H10NO+
124.0872	3	C6H10N3+
124.1123	27	C8H14N+
125.0711	17	C6H9N2O+
126.0662	3	C5H8N3O+
127.0867	663	C6H11N2O+
128.0707	3	C6H10NO2+
128.0899	4	CH12N4O3+
129.0702	4	C10H9+
129.1135	8	C5H13N4+
130.05	25	C5H8NO3+
130.0976	18	C5H12N3O+
131.0857	36	C10H11+
132.081	2	C9H10N+
133.1014	17	C10H13+
135.0805	999	C9H11O+
135.1169	300	C10H15+
136.0838	5	C4H12N2O3+
136.1119	2	C9H14N+
137.0709	3	C7H9N2O+
137.1077	3	C8H13N2+
138.055	46	C7H8NO2+
138.0664	9	C6H8N3O+
138.0914	3	C8H12NO+
139.0866	16	C7H11N2O+
139.0977	22	C6H11N4+
139.1231	10	C8H15N2+
140.0708	6	C7H10NO2+
140.0818	69	C6H10N3O+
141.0658	33	C6H9N2O2+
141.1021	5	C7H13N2O+
142.0976	2	C6H12N3O+
143.0859	11	C11H11+
145.1014	23	C11H13+
146.1093	2	C11H14+
147.0808	3	C10H11O+
149.0712	13	C8H9N2O+
150.1029	14	C8H12N3+
150.1279	3	C10H16N+
151.0867	17	C8H11N2O+
152.0707	21	C8H10NO2+
152.0812	2	C7H10N3O+
152.1182	5	C8H14N3+
153.1023	27	C8H13N2O+
154.0976	4	C7H12N3O+
155.0816	241	C7H11N2O2+
156.1246	31	C6H14N5+
157.1085	164	C6H13N4O+
158.0924	68	C6H12N3O2+
159.1169	3	C12H15+
160.1121	3	C11H14N+
161.0963	14	C11H13O+
162.1032	3	C9H12N3+
162.1277	13	C11H16N+
163.0867	10	C9H11N2O+
163.1118	151	C11H15O+
164.0708	3	C9H10NO2+
164.1187	4	C9H14N3+
165.1024	15	C9H13N2O+
166.0864	4	C9H12NO2+
166.0976	4	C8H12N3O+
167.0816	114	C8H11N2O2+
168.0652	17	C8H10NO3+
169.0966	15	C8H13N2O2+
171.1124	21	C8H15N2O2+
173.0967	4	C12H13O+
174.1351	105	C6H16N5O+
175.119	83	C6H15N4O2+
178.0974	17	C9H12N3O+
179.0811	3	C9H11N2O2+
180.1132	13	C9H14N3O+
181.0972	8	C9H13N2O2+
181.1446	2	C9H17N4+
182.0818	2	C9H12NO3+
182.1039	17	C7H12N5O+
182.1295	3	C9H16N3O+
183.0878	48	C7H11N4O2+
185.1398	4	C8H17N4O+
186.1242	3	C8H16N3O2+
188.1071	2	C12H14NO+
190.0977	9	C10H12N3O+
191.0816	15	C10H11N2O2+
192.1135	2	C10H14N3O+
193.0972	18	C10H13N2O2+
194.0925	4	C9H12N3O2+
194.1287	3	C10H16N3O+
195.0765	84	C9H11N2O3+
195.1169	7	C15H15+
195.1244	7	C9H15N4O+
196.0599	18	C9H10NO4+
196.1082	22	C9H14N3O2+
197.1398	32	C9H17N4O+
198.1237	21	C9H16N3O2+
199.1075	4	C9H15N2O3+
200.1141	121	C7H14N5O2+
201.0982	35	C7H13N4O3+
205.0975	2	C11H13N2O2+
206.0927	12	C10H12N3O2+
208.1081	27	C10H14N3O2+
209.0922	34	C10H13N2O3+
209.1324	24	C16H17+
210.124	19	C10H16N3O2+
211.0715	21	C9H11N2O4+
211.1191	70	C9H15N4O2+
212.1035	3	C9H14N3O3+
212.1513	4	C9H18N5O+
213.0871	325	C9H13N2O4+
213.1346	63	C9H17N4O2+
214.1342	3	C13H16N3+
214.1667	8	C9H20N5O+
217.1336	15	C13H17N2O+
218.1539	25	C14H20NO+
219.1239	3	C11H15N4O+
220.1085	10	C11H14N3O2+
221.0923	12	C11H13N2O3+
222.1241	22	C11H16N3O2+
223.1083	11	C11H15N2O3+
223.1193	46	C10H15N4O2+
224.103	23	C10H14N3O3+
225.1347	39	C10H17N4O2+
226.1187	72	C10H16N3O3+
226.1589	28	C16H20N+
227.1028	18	C10H15N2O4+
228.146	5	C9H18N5O2+
229.1305	4	C9H17N4O3+
234.1242	10	C12H16N3O2+
237.1637	32	C18H21+
238.1187	35	C11H16N3O3+
239.0664	104	C10H11N2O5+
240.1453	15	C10H18N5O2+
241.1293	16	C10H17N4O3+
243.1452	4	C10H19N4O3+
244.1293	16	C10H18N3O4+
244.1409	3	C9H18N5O3+
246.1488	20	C15H20NO2+
248.1033	3	C12H14N3O3+
250.1302	11	C11H16N5O2+
251.1143	13	C11H15N4O3+
251.1504	13	C12H19N4O2+
252.0976	6	C11H14N3O4+
252.1341	9	C12H18N3O3+
258.1564	13	C10H20N5O3+
258.1858	18	C3H26N6O7+
263.1141	11	C12H15N4O3+
263.1867	10	C14H23N4O+
265.1587	12	C19H21O+
267.1568	9	C11H19N6O2+
268.1406	36	C11H18N5O3+
269.1248	56	C11H17N4O4+
269.1612	9	C12H21N4O3+
272.1354	2	C10H18N5O4+
277.1302	3	C13H17N4O3+
278.1501	5	C14H20N3O3+
280.1408	3	C12H18N5O3+
280.2131	29	C14H26N5O+
282.1855	11	C19H24NO+
283.1879	13	C12H23N6O2+
285.1673	36	C11H21N6O3+
285.2035	11	C12H25N6O2+
286.1511	34	C11H20N5O4+
294.1563	71	C13H20N5O3+
303.1774	30	C11H23N6O4+
311.1829	49	C13H23N6O3+
312.1671	13	C13H22N5O4+
328.2098	10	C13H26N7O3+
329.1935	69	C13H25N6O4+
345.1921	4	C18H25N4O3+
347.1976	12	C20H23N6+
357.1889	9	H27N11O11+
365.1936	27	C2H27N11O10+
368.2409	68	C2H32N12O9+
383.2035	3	C15H21N13+
389.2065	2	C3H27N13O9+
408.2003	9	C3H28N12O11+
469.3293	17	C12H43N11O8+
488.3234	10	C26H42N5O4+
523.2641	9	C38H35O2+
571.3606	14	C16H49N11O11+
659.3913	3	C36H55N2O9+
