Mass spectrum: Trinexapac; LC-ESI-ITFT; MS2; CE: 60%; R=15000; [M-H]-
Name: Trinexapac
Name: 4-[Cyclopropyl(hydroxy)methylene]-3,5-dioxocyclohexanecarboxylic acid
Formula: C11H12O5
Exact mass: 224.0685
SMILES: C(C1)C1C(O)=C(C(=O)CC2C(=O)O)C(=O)C2
InChI: InChI=1S/C11H12O5/c12-7-3-6(11(15)16)4-8(13)9(7)10(14)5-1-2-5/h5-6,14H,1-4H2,(H,15,16)/b10-9-
Instrument: LTQ Orbitrap XL Thermo Scientific
Instrument type: LC-ESI-ITFT
Ms type: MS2
Ion mode: NEGATIVE
Ionization: ESI
Fragmentation mode: HCD
Collision energy: 60 % (nominal)
Resolution: 15000
Column name: XBridge C18 3.5um, 2.1x50mm, Waters
Retention time: 6.9 min
Base peak: 223.0619
Precursor m/z: 223.0612
Precursor type: [M-H]-
m/z	relative intensity	assigned
83.0504	253	C5H7O-
93.0347	89	C6H5O-
95.0141	120	C5H3O2-
111.045	132	C6H7O2-
125.061	284	C7H9O2-
133.0659	154	C9H9O-
135.0815	765	C9H11O-
161.0608	292	C10H9O2-
163.0402	118	C9H7O3-
179.0716	999	C10H11O3-
205.0507	244	C11H9O4-
