Mass spectrum: Anabaenopeptin A; LC-ESI-QFT; MS2; CE: 90%; R=17500; [M+H]+
Name: Anabaenopeptin A
Name: 2-[[3-benzyl-9-[2-(4-hydroxyphenyl)ethyl]-6,7-dimethyl-2,5,8,11,14-pentaoxo-12-propan-2-yl-1,4,7,10,13-pentazacyclononadec-15-yl]carbamoylamino]-3-(4-hydroxyphenyl)propanoic acid
Formula: C44H57N7O10
Exact mass: 843.4167
SMILES: CC1C(=O)NC(C(=O)NCCCCC(C(=O)NC(C(=O)NC(C(=O)N1C)CCC2=CC=C(C=C2)O)C(C)C)NC(=O)NC(CC3=CC=C(C=C3)O)C(=O)O)CC4=CC=CC=C4
InChI: InChI=1S/C44H57N7O10/c1-26(2)37-41(57)46-34(22-17-28-13-18-31(52)19-14-28)42(58)51(4)27(3)38(54)47-35(24-29-10-6-5-7-11-29)39(55)45-23-9-8-12-33(40(56)50-37)48-44(61)49-36(43(59)60)25-30-15-20-32(53)21-16-30/h5-7,10-11,13-16,18-21,26-27,33-37,52-53H,8-9,12,17,22-25H2,1-4H3,(H,45,55)(H,46,57)(H,47,54)(H,50,56)(H,59,60)(H2,48,49,61)
Instrument: Q Exactive Plus Orbitrap Thermo Scientific
Instrument type: LC-ESI-QFT
Ms type: MS2
Ion mode: POSITIVE
Ionization: ESI
Fragmentation mode: HCD
Collision energy: 90 % (nominal)
Resolution: 17500
Column name: XBridge C18 3.5um, 2.1x50mm, Waters
Retention time: 7.249 min
Base peak: 164.9844
Precursor m/z: 844.424
Precursor type: [M+H]+
m/z	relative intensity	assigned
65.0387	7	C5H5+
67.0542	40	C5H7+
68.0494	6	C4H6N+
69.0574	4	C4H7N+
69.0697	7	C5H9+
70.0651	7	C4H8N+
71.049	3	C4H7O+
72.0808	63	C4H10N+
77.0384	3	C6H5+
79.0542	14	C6H7+
80.0495	4	C5H6N+
82.0288	4	C4H4NO+
82.0651	21	C5H8N+
84.0808	999	C5H10N+
86.06	88	C4H8NO+
91.0542	96	C7H7+
93.0698	31	C7H9+
94.0651	8	C6H8N+
95.0491	47	C6H7O+
96.0807	5	C6H10N+
98.0599	4	C5H8NO+
99.0188	6	C3H3N2O2+
100.0757	4	C5H10NO+
103.0542	141	C8H7+
105.0448	11	C6H5N2+
105.0698	42	C8H9+
107.0491	263	C7H7O+
108.0806	2	C7H10N+
109.0757	1	C6H9N2+
110.0601	13	C6H8NO+
111.0917	7	C6H11N2+
112.0755	3	C6H10NO+
114.0547	5	C5H8NO2+
115.0543	3	C9H7+
117.0572	2	C8H7N+
117.0694	2	C9H9+
118.0648	7	C8H8N+
119.0491	23	C8H7O+
120.0807	339	C8H10N+
121.0649	4	C8H9O+
123.044	15	C7H7O2+
127.0864	3	C6H11N2O+
128.0616	2	C10H8+
128.0705	4	C6H10NO2+
129.0693	6	C10H9+
129.1021	4	C6H13N2O+
130.0648	5	C9H8N+
131.0487	3	C9H7O+
133.0646	3	C9H9O+
134.0594	5	C8H8NO+
135.0678	4	C8H9NO+
136.0755	18	C8H10NO+
138.1272	5	C9H16N+
140.0704	8	C7H10NO2+
146.0597	12	C9H8NO+
155.0813	4	C7H11N2O2+
162.0544	4	C9H8NO2+
