Mass spectrum: Vildagliptin; LC-ESI-QFT; MS2; CE: 30; R=35000; [M+H]+
Name: Vildagliptin
Name: (2S)-1-[2-[(3-hydroxy-1-adamantyl)amino]-1-oxoethyl]-2-pyrrolidinecarbonitrile
Name: Equa
Formula: C17H25N3O2
Exact mass: 303.19468
SMILES: N#C[C@H]4N(C(=O)CNC13CC2CC(C1)CC(O)(C2)C3)CCC4
InChI: InChI=1S/C17H25N3O2/c18-9-14-2-1-3-20(14)15(21)10-19-16-5-12-4-13(6-16)8-17(22,7-12)11-16/h12-14,19,22H,1-8,10-11H2/t12?,13?,14-,16?,17?/m0/s1
Instrument: Q Exactive Orbitrap Thermo Scientific
Instrument type: LC-ESI-QFT
Ms type: MS2
Ion mode: POSITIVE
Ionization: ESI
Fragmentation mode: HCD
Collision energy: 30 (nominal)
Resolution: 35000
Column name: XBridge C18 3.5um, 2.1x50mm, Waters
Retention time: 2.2 min
Base peak: 304.202
Precursor m/z: 304.202
Precursor type: [M+H]+
m/z	relative intensity	assigned
59.0492	2	C3H7O+
70.0651	29	C4H8N+
93.0698	19	C7H9+
95.049	7	C6H7O+
97.076	74	C5H9N2+
107.0855	8	C8H11+
109.0648	1	C7H9O+
127.0865	16	C6H11N2O+
133.1012	7	C10H13+
151.1119	184	C10H15O+
154.0976	999	C7H12N3O+
304.2021	201	C17H26N3O2+
