Mass spectrum: Azoxystrobin (free acid); LC-ESI-ITFT; MS2; CE: 75%; R=15000; [M+H]+
Name: Azoxystrobin (free acid)
Formula: C21H15N3O5
Exact mass: 389.1012
SMILES: O=C(O)/C(=C\OC)c3ccccc3Oc2cc(Oc1ccccc1C#N)ncn2
InChI: InChI=1S/C21H15N3O5/c1-27-12-16(21(25)26)15-7-3-5-9-18(15)29-20-10-19(23-13-24-20)28-17-8-4-2-6-14(17)11-22/h2-10,12-13H,1H3,(H,25,26)/b16-12-
Instrument: LTQ Orbitrap XL Thermo Scientific
Instrument type: LC-ESI-ITFT
Ms type: MS2
Ion mode: POSITIVE
Ionization: ESI
Fragmentation mode: HCD
Collision energy: 75 % (nominal)
Resolution: 15000
Column name: XBridge C18 3.5um, 2.1x50mm, Waters
Retention time: 8.8 min
Base peak: 390.1088
Precursor m/z: 390.1084
Precursor type: [M+H]+
m/z	relative intensity	assigned
65.0387	4	C5H5+
68.9971	6	C3HO2+
77.0385	9	C6H5+
78.0338	9	C5H4N+
78.0464	8	C6H6+
79.0417	3	C5H5N+
79.0544	6	C6H7+
82.0288	3	C4H4NO+
89.0386	51	C7H5+
90.0466	4	C7H6+
91.0416	9	C6H5N+
91.0541	12	C7H7+
92.0494	4	C6H6N+
102.0338	5	C7H4N+
102.0464	7	C8H6+
103.0415	10	C7H5N+
103.0542	14	C8H7+
104.0495	39	C7H6N+
105.0334	19	C7H5O+
105.0574	4	C7H7N+
106.0653	5	C7H8N+
107.0492	10	C7H7O+
114.0338	40	C8H4N+
115.0415	6	C8H5N+
115.0544	8	C9H7+
116.0495	53	C8H6N+
117.0336	13	C8H5O+
117.0574	12	C8H7N+
118.0414	25	C8H6O+
118.0654	3	C8H8N+
119.0366	25	C7H5NO+
119.049	6	C8H7O+
120.0444	64	C7H6NO+
121.0286	4	C7H5O2+
121.0648	8	C8H9O+
127.0417	22	C9H5N+
128.0495	40	C9H6N+
129.0338	23	C9H5O+
129.0447	146	C8H5N2+
130.029	27	C8H4NO+
130.04	140	C7H4N3+
131.0362	3	C8H5NO+
131.0491	8	C9H7O+
131.0602	8	C8H7N2+
132.0444	30	C8H6NO+
133.0285	22	C8H5O2+
133.0522	144	C8H7NO+
134.0361	13	C8H6O2+
134.0601	130	C8H8NO+
140.0496	11	C10H6N+
141.0447	54	C9H5N2+
142.0528	8	C9H6N2+
143.0366	27	C9H5NO+
143.0604	57	C9H7N2+
144.0444	72	C9H6NO+
145.0283	20	C9H5O2+
145.0522	76	C9H7NO+
146.0237	38	C8H4NO2+
146.0599	8	C9H8NO+
147.0444	5	C9H7O2+
148.0522	3	C9H8O2+
154.0285	11	C10H4NO+
154.0525	8	C10H6N2+
155.0364	8	C10H5NO+
155.0604	56	C10H7N2+
156.0443	659	C10H6NO+
157.0284	10	C10H5O2+
157.052	12	C10H7NO+
158.0365	5	C10H6O2+
159.0316	11	C9H5NO2+
159.0551	16	C9H7N2O+
160.0393	11	C9H6NO2+
162.0311	12	C9H6O3+
168.0438	4	C11H6NO+
169.0395	33	C10H5N2O+
170.0233	3	C10H4NO2+
170.0474	48	C10H6N2O+
170.0595	5	C11H8NO+
171.0552	110	C10H7N2O+
172.0393	999	C10H6NO2+
173.0471	11	C10H7NO2+
177.0547	11	C10H9O3+
181.0394	14	C11H5N2O+
182.0473	36	C11H6N2O+
182.0716	9	C11H8N3+
183.0552	254	C11H7N2O+
184.0393	17	C11H6NO2+
186.0425	4	C10H6N2O2+
186.055	13	C11H8NO2+
187.0503	11	C10H7N2O2+
197.0346	14	C11H5N2O2+
198.0428	7	C11H6N2O2+
199.0502	158	C11H7N2O2+
200.0342	296	C11H6NO3+
201.0421	42	C11H7NO3+
201.0656	4	C11H9N2O2+
204.0807	3	C15H10N+
205.0759	4	C14H9N2+
210.0423	24	C12H6N2O2+
210.0666	3	C12H8N3O+
211.0501	38	C12H7N2O2+
216.0657	3	C12H10NO3+
217.0761	5	C15H9N2+
218.0839	17	C15H10N2+
220.0749	4	C15H10NO+
227.0448	10	C12H7N2O3+
229.0766	9	C16H9N2+
231.0901	3	C13H13NO3+
232.0749	7	C16H10NO+
232.0877	4	C17H12O+
233.0705	17	C15H9N2O+
242.0322	45	C12H6N2O4+
244.0867	25	C16H10N3+
245.0709	48	C16H9N2O+
246.0786	15	C16H10N2O+
247.0867	7	C16H11N2O+
256.0882	5	C19H12O+
257.0708	8	C17H9N2O+
258.0793	8	C17H10N2O+
259.0868	9	C17H11N2O+
260.0698	2	C17H10NO2+
261.0793	4	C17H11NO2+
262.0867	3	C17H12NO2+
272.0818	125	C17H10N3O+
273.0659	60	C17H9N2O2+
273.0893	22	C17H11N3O+
274.0732	31	C17H10N2O2+
275.0811	20	C17H11N2O2+
283.0744	5	C18H9N3O+
284.0818	6	C18H10N3O+
287.0811	8	C18H11N2O2+
288.0649	3	C18H10NO3+
300.0767	162	C18H10N3O2+
301.0844	55	C18H11N3O2+
328.0716	249	C19H10N3O3+
329.0799	41	C21H13O4+
372.1096	14	C20H14N5O3+
390.11	3	C21H16N3O5+
