Mass spectrum: N4-Acetylsulfadimethoxine; LC-ESI-ITFT; MS2; CE: 30%; R=15000; [M+H]+
Name: N4-Acetylsulfadimethoxine
Name: N-[4-[(4,6-dimethoxy-2-pyrimidinyl)sulfamoyl]phenyl]acetamide
Formula: C14H16N4O5S
Exact mass: 352.0841
SMILES: C(C)(=O)Nc1ccc(cc1)S(=O)(=O)Nc1nc(cc(n1)OC)OC
InChI: InChI=1S/C14H16N4O5S/c1-9(19)15-10-4-6-11(7-5-10)24(20,21)18-14-16-12(22-2)8-13(17-14)23-3/h4-8H,1-3H3,(H,15,19)(H,16,17,18)
Instrument: LTQ Orbitrap XL Thermo Scientific
Instrument type: LC-ESI-ITFT
Ms type: MS2
Ion mode: POSITIVE
Ionization: ESI
Fragmentation mode: HCD
Collision energy: 30 % (nominal)
Resolution: 15000
Column name: XBridge C18 3.5um, 2.1x50mm, Waters
Retention time: 6.3 min
Base peak: 353.0926
Precursor m/z: 353.0914
Precursor type: [M+H]+
m/z	relative intensity	assigned
65.0386	3	C5H5+
92.0494	1	C6H6N+
93.0336	2	C6H5O+
108.0444	31	C6H6NO+
134.06	51	C8H8NO+
136.0754	3	C8H10NO+
148.0759	3	C9H10NO+
150.0552	9	C8H8NO2+
154.0612	13	C6H8N3O2+
155.0689	56	C6H9N3O2+
156.0768	129	C6H10N3O2+
162.0662	14	C8H8N3O+
164.0708	6	C9H10NO2+
170.056	4	C6H8N3O3+
198.022	91	C8H8NO3S+
212.0377	9	C9H10NO3S+
218.0231	35	C6H8N3O4S+
245.1036	2	C12H13N4O2+
257.1037	8	C13H13N4O2+
287.1138	79	C14H15N4O3+
321.0653	23	C13H13N4O4S+
353.0918	999	C14H17N4O5S+
