Mass spectrum: Sulfentrazon; LC-ESI-QFT; MS2; CE: 150; R=35000; [M+H]+
Name: Sulfentrazon
Name: N-(2,4-dichloro-5-(4-(difluoromethyl)-4,5-dihydro-3-methyl-5-oxo-1H-1,2,4-triazol-1-yl)phenyl)methanesulfonamide
Name: N-[2,4-dichloro-5-[4-(difluoromethyl)-3-methyl-5-oxo-1,2,4-triazol-1-yl]phenyl]methanesulfonamide
Formula: C11H10Cl2F2N4O3S
Exact mass: 385.98187
SMILES: O=S(=O)(Nc2c(Cl)cc(Cl)c(N1/N=C(\N(C1=O)C(F)F)C)c2)C
InChI: InChI=1S/C11H10Cl2F2N4O3S/c1-5-16-19(11(20)18(5)10(14)15)9-4-8(17-23(2,21)22)6(12)3-7(9)13/h3-4,10,17H,1-2H3
Instrument: Q Exactive Plus Orbitrap Thermo Scientific
Instrument type: LC-ESI-QFT
Ms type: MS2
Ion mode: POSITIVE
Ionization: ESI
Fragmentation mode: HCD
Collision energy: 150 (nominal)
Resolution: 35000
Column name: XBridge C18 3.5um, 2.1x50mm, Waters
Retention time: 7.4 min
Base peak: 386.989
Precursor m/z: 386.9891
Precursor type: [M+H]+
m/z	relative intensity	assigned
50.0151	5	C4H2+
51.0041	3	CHF2+
51.0103	1	C3HN+
52.0182	24	C3H2N+
53.0022	9	C3HO+
53.9975	1	C2NO+
55.0178	1	C3H3O+
56.0369	2	C2H4N2+
58.0087	2	C2HFN+
59.9761	4	C2HCl+
60.9839	16	C2H2Cl+
61.0073	3	C5H+
61.9792	382	CHClN+
62.9632	13	CClO+
63.0103	4	C4HN+
63.0229	9	C5H3+
64.0182	35	C4H2N+
65.0022	6	C4HO+
65.026	3	C4H3N+
66.01	1	C4H2O+
66.0212	2	C3H2N2+
66.0338	16	C4H4N+
66.9746	2	CHClF+
67.0291	12	C3H3N2+
67.0417	1	C4H5N+
68.0131	4	C3H2NO+
68.0243	4	C2H2N3+
70.9682	2	C3Cl+
71.9761	3	C3HCl+
72.9839	72	C3H2Cl+
73.9792	7	C2HClN+
74.0037	15	C2HFNO+
75.0103	999	C5HN+
76.0181	632	C5H2N+
77.0134	13	C4HN2+
77.0259	21	C5H3N+
77.9975	1	C4NO+
78.0338	18	C5H4N+
79.0291	1	C4H3N2+
81.9371	1	CCl2+
82.0287	6	C4H4NO+
82.9449	61	CHCl2+
83.9761	89	C4HCl+
84.9839	168	C4H2Cl+
85.9792	52	C3HClN+
86.9632	3	C3ClO+
87.0104	3	C6HN+
87.9949	6	C3H3ClN+
88.0182	10	C6H2N+
89.0385	9	C7H5+
89.9974	10	C5NO+
90.0105	6	C3H5ClN+
90.0339	6	C6H4N+
90.0464	2	C7H6+
91.0053	4	C5HNO+
91.0291	13	C5H3N2+
91.0417	1	C6H5N+
92.0131	7	C5H2NO+
92.0369	11	C5H4N2+
92.0495	2	C6H6N+
94.0287	7	C5H4NO+
95.9761	4	C5HCl+
96.0444	1	C5H6NO+
96.984	7	C5H2Cl+
97.9792	118	C4HClN+
98.987	2	C4H2ClN+
98.9996	3	C5H4Cl+
99.9948	30	C4H3ClN+
100.0056	68	C6N2+
101.0134	157	C6HN2+
102.0213	1	C6H2N2+
103.029	40	C6H3N2+
105.0447	6	C6H5N2+
105.9371	4	C3Cl2+
106.945	32	C3HCl2+
107.9402	3	C2Cl2N+
108.0444	1	C6H6NO+
108.9714	22	C5ClN+
109.9792	804	C5HClN+
110.987	7	C5H2ClN+
111.9948	226	C5H3ClN+
112.99	8	C4H2ClN2+
113.9741	2	C4HClNO+
116.0494	1	C8H6N+
117.0449	1	C7H5N2+
117.0572	5	C8H7N+
118.0399	5	C6H4N3+
118.0526	1	C7H6N2+
118.945	31	C4HCl2+
119.024	8	C6H3N2O+
119.0605	1	C7H7N2+
119.9526	3	C4H2Cl2+
120.9606	8	C4H3Cl2+
121.0397	4	C6H5N2O+
121.9793	1	C6HClN+
123.9949	4	C6H3ClN+
125.0028	1	C6H4ClN+
125.998	3	C5H3ClN2+
127.0058	5	C5H4ClN2+
127.9897	45	C5H3ClNO+
130.0054	25	C5H5ClNO+
130.9449	2	C5HCl2+
136.9901	9	C6H2ClN2+
139.0057	39	C6H4ClN2+
142.0051	1	CH4ClFN4O+
145.9558	8	C5H2Cl2N+
147.9715	12	C5H4Cl2N+
151.0185	1	C8H6ClN+
154.0166	35	C6H5ClN3+
155.0007	2	C6H4ClN2O+
157.9559	2	C6H2Cl2N+
163.9665	1	C5H4Cl2NO+
172.9669	2	C6H3Cl2N2+
182.0116	2	C7H5ClN3O+
