Mass spectrum: Niflumic acid; LC-ESI-QFT; MS2; CE: 120; R=35000; [M-H]-
Name: Niflumic acid
Name: 2-[3-(trifluoromethyl)anilino]pyridine-3-carboxylic acid
Formula: C13H9F3N2O2
Exact mass: 282.06161
SMILES: C1=CC(=CC(=C1)NC2=C(C=CC=N2)C(=O)O)C(F)(F)F
InChI: InChI=1S/C13H9F3N2O2/c14-13(15,16)8-3-1-4-9(7-8)18-11-10(12(19)20)5-2-6-17-11/h1-7H,(H,17,18)(H,19,20)
Instrument: Q Exactive Plus Orbitrap Thermo Scientific
Instrument type: LC-ESI-QFT
Ms type: MS2
Ion mode: NEGATIVE
Ionization: ESI
Fragmentation mode: HCD
Collision energy: 120 (nominal)
Resolution: 35000
Column name: XBridge C18 3.5um, 2.1x50mm, Waters
Retention time: 12.9 min
Base peak: 281.0538
Precursor m/z: 281.0543
Precursor type: [M-H]-
m/z	relative intensity	assigned
50.0035	140	C3N-
64.0192	10	C4H2N-
66.0349	219	C4H4N-
67.0302	2	C3H3N2-
68.9958	78	CF3-
72.0006	2	C6-
73.0084	189	C6H-
74.0037	101	C5N-
76.0193	5	C5H2N-
90.035	4	C6H4N-
91.0302	155	C5H3N2-
93.0458	627	C5H5N2-
97.0082	33	C8H-
98.0036	106	C7N-
99.0115	4	C7HN-
100.0192	38	C7H2N-
102.0348	37	C7H4N-
103.0302	19	C6H3N2-
114.035	19	C8H4N-
115.0302	4	C7H3N2-
116.9959	2	C5F3-
118.0099	3	C7HFN-
120.0255	58	C7H3FN-
121.0084	4	C10H-
122.0036	9	C9N-
123.0238	3	C10H3-
124.0192	18	C9H2N-
126.035	5	C9H4N-
127.0302	20	C8H3N2-
139.0302	9	C9H3N2-
140.0506	2	C10H6N-
141.0459	27	C9H5N2-
142.0535	26	C9H6N2-
144.0255	12	C9H3FN-
148.0193	22	C11H2N-
149.0147	18	C10HN2-
149.0271	10	C11H3N-
150.0349	125	C11H4N-
151.0302	44	C10H3N2-
155.0382	3	C10H5NO-
160.038	58	C7H5F3N-
165.0458	213	C11H5N2-
166.0536	107	C11H6N2-
167.0615	51	C11H7N2-
168.0256	11	C11H3FN-
169.0208	19	C10H2FN2-
169.0408	29	C10H5N2O-
170.0413	18	C11H5FN-
171.0365	2	C10H4FN2-
174.0222	3	C12H2N2-
175.0301	999	C12H3N2-
176.0379	92	C12H4N2-
177.0458	378	C12H5N2-
180.0329	17	C11H4N2O-
182.0489	5	C11H6N2O-
184.0372	3	C9H5F3N-
185.0334	2	C8H4F3N2-
189.0271	2	C10H3F2N2-
189.04	3	C11H5F2N-
194.0284	10	C12H3FN2-
195.0363	509	C12H4FN2-
196.044	15	C12H5FN2-
197.0526	3	C12H6FN2-
200.0393	5	C11H5FN2O-
209.033	4	C10H4F3N2-
214.0346	10	C12H4F2N2-
215.0424	18	C12H5F2N2-
216.0503	17	C12H6F2N2-
228.0341	5	C12H5FN2O2-
233.0335	2	C12H4F3N2-
235.0489	61	C12H6F3N2-
