Mass spectrum: Diuron-desmethyl; LC-ESI-ITFT; MS2; CE: 75%; R=15000; [M-H]-
Name: Diuron-desmethyl
Name: DCPMU
Name: 1-(3,4-dichlorophenyl)-3-methyl-urea
Formula: C8H8Cl2N2O
Exact mass: 218.0014
SMILES: c1(cc(c(Cl)cc1)Cl)NC(NC)=O
InChI: InChI=1S/C8H8Cl2N2O/c1-11-8(13)12-5-2-3-6(9)7(10)4-5/h2-4H,1H3,(H2,11,12,13)
Instrument: LTQ Orbitrap XL Thermo Scientific
Instrument type: LC-ESI-ITFT
Ms type: MS2
Ion mode: NEGATIVE
Ionization: ESI
Fragmentation mode: HCD
Collision energy: 75 % (nominal)
Resolution: 15000
Column name: XBridge C18 3.5um, 2.1x50mm, Waters
Retention time: 8.8 min
Base peak: 216.9939
Precursor m/z: 216.9941
Precursor type: [M-H]-
m/z	relative intensity	assigned
159.9725	999	C6H4Cl2N-
