Mass spectrum: Aminopyrine; LC-ESI-ITFT; MS2; CE: 15%; R=15000; [M+H]+
Name: Aminopyrine
Name: 4-(dimethylamino)-1,5-dimethyl-2-phenyl-3-pyrazolin-3-one
Formula: C13H17N3O
Exact mass: 231.1372
SMILES: c(ccc1N(N(C=2C)C)C(=O)C2N(C)C)cc1
InChI: InChI=1S/C13H17N3O/c1-10-12(14(2)3)13(17)16(15(10)4)11-8-6-5-7-9-11/h5-9H,1-4H3
Instrument: LTQ Orbitrap XL Thermo Scientific
Instrument type: LC-ESI-ITFT
Ms type: MS2
Ion mode: POSITIVE
Ionization: ESI
Fragmentation mode: HCD
Collision energy: 15 % (nominal)
Resolution: 15000
Column name: XBridge C18 3.5um, 2.1x50mm, Waters
Retention time: 2.6 min
Base peak: 232.1453
Precursor m/z: 232.1444
Precursor type: [M+H]+
m/z	relative intensity	assigned
56.0493	6	C3H6N+
58.0651	4	C3H8N+
70.0651	6	C4H8N+
72.0808	5	C4H10N+
87.0915	2	C4H11N2+
97.076	5	C5H9N2+
98.0839	15	C5H10N2+
99.0917	4	C5H11N2+
111.0917	41	C6H11N2+
113.1074	106	C6H13N2+
118.0652	2	C8H8N+
127.0865	1	C6H11N2O+
139.0867	13	C7H11N2O+
146.0601	3	C9H8NO+
147.0912	1	C9H11N2+
149.1074	5	C9H13N2+
159.0917	9	C10H11N2+
175.0865	2	C10H11N2O+
177.1021	1	C10H13N2O+
187.0866	29	C11H11N2O+
188.0945	5	C11H12N2O+
204.1495	2	C12H18N3+
217.1213	1	C12H15N3O+
232.1447	999	C13H18N3O+
