Mass spectrum: Deprenyl; LC-ESI-QFT; MS2; CE: 90; R=35000; [M+H]+
Name: Deprenyl
Name: Selegiline
Name: (2R)-N-methyl-1-phenyl-N-prop-2-ynylpropan-2-amine
Formula: C13H17N
Exact mass: 187.13610
SMILES: C[C@H](Cc1ccccc1)N(C)CC#C
InChI: InChI=1S/C13H17N/c1-4-10-14(3)12(2)11-13-8-6-5-7-9-13/h1,5-9,12H,10-11H2,2-3H3/t12-/m1/s1
Instrument: Q Exactive Plus Orbitrap Thermo Scientific
Instrument type: LC-ESI-QFT
Ms type: MS2
Ion mode: POSITIVE
Ionization: ESI
Fragmentation mode: HCD
Collision energy: 90 (nominal)
Resolution: 35000
Column name: XBridge C18 3.5um, 2.1x50mm, Waters
Retention time: 4.1 min
Base peak: 188.1433
Precursor m/z: 188.1434
Precursor type: [M+H]+
m/z	relative intensity	assigned
65.0386	29	C5H5+
70.0651	8	C4H8N+
79.0542	1	C6H7+
91.0542	999	C7H7+
