Mass spectrum: Enoxacin; LC-ESI-QFT; MS2; CE: 60; R=35000; [M+H]+
Name: Enoxacin
Name: 1-Ethyl-6-fluoro-1,4-dihydro-4-oxo-7-(1-piperazinyl)-1,8-naphthyridine-3-carboxylic acid
Name: 1-ethyl-6-fluoranyl-4-oxidanylidene-7-piperazin-1-yl-1,8-naphthyridine-3-carboxylic acid
Formula: C15H17FN4O3
Exact mass: 320.12847
SMILES: Fc1c(nc2c(c1)C(=O)C(\C(=O)O)=C/N2CC)N3CCNCC3
InChI: InChI=1S/C15H17FN4O3/c1-2-19-8-10(15(22)23)12(21)9-7-11(16)14(18-13(9)19)20-5-3-17-4-6-20/h7-8,17H,2-6H2,1H3,(H,22,23)
Instrument: Q Exactive Orbitrap Thermo Scientific
Instrument type: LC-ESI-QFT
Ms type: MS2
Ion mode: POSITIVE
Ionization: ESI
Fragmentation mode: HCD
Collision energy: 60 (nominal)
Resolution: 35000
Column name: XBridge C18 3.5um, 2.1x50mm, Waters
Retention time: 4.2 min
Base peak: 321.136
Precursor m/z: 321.1357
Precursor type: [M+H]+
m/z	relative intensity	assigned
68.0496	4	C4H6N+
70.0651	54	C4H8N+
71.0605	1	C3H7N2+
135.0553	1	C7H7N2O+
137.0511	6	C7H6FN2+
145.0396	1	C8H5N2O+
149.051	1	C8H6FN2+
151.0303	3	C7H4FN2O+
155.0617	2	C7H8FN2O+
158.0715	1	C9H8N3+
163.0671	1	C9H8FN2+
164.0617	1	C8H7FN3+
165.046	5	C8H6FN2O+
172.0873	1	C10H10N3+
176.062	4	C14H8+
177.07	14	C14H9+
178.0539	12	C9H7FN2O+
178.0775	20	C9H9FN3+
179.0497	10	C13H7O+
179.0615	46	C9H8FN2O+
180.0568	25	C8H7FN3O+
185.0587	1	C10H7N3O+
186.0663	36	C10H8N3O+
187.0615	4	C9H7N4O+
187.0741	1	C10H9N3O+
188.0618	1	C10H7FN3+
191.0616	3	C10H8FN2O+
191.0853	3	C10H10FN3+
192.0568	11	C9H7FN3O+
192.0696	8	C10H9FN2O+
192.0932	1	C10H11FN3+
193.0773	1	C10H10FN2O+
199.0615	1	C10H7N4O+
199.0981	3	C11H11N4+
200.0692	11	C10H8N4O+
201.0771	3	C10H9N4O+
204.057	84	C15H8O+
205.0647	202	C15H9O+
206.0726	307	C15H10O+
206.0843	22	C14H10N2+
207.0806	6	C15H11O+
207.093	3	C11H12FN2O+
208.0881	17	C10H11FN3O+
209.0356	1	C9H6FN2O3+
212.1056	1	C12H12N4+
213.077	3	C11H9N4O+
214.0851	6	C8H11FN4O2+
214.0975	4	C12H12N3O+
215.093	1	C11H11N4O+
215.1049	1	C12H13N3O+
218.0966	1	C11H11FN4+
219.0804	3	C11H10FN3O+
220.0883	17	C11H11FN3O+
221.096	2	C11H12FN3O+
224.0468	19	C14H8O3+
224.0583	1	C10H9FN2O3+
227.0927	10	C12H11N4O+
227.1289	5	C13H15N4+
228.1007	7	C12H12N4O+
229.1086	55	C12H13N4O+
230.073	2	C12H9FN3O+
232.0518	196	C11H7FN3O2+
234.1038	200	C12H13FN3O+
237.0676	3	C11H10FN2O3+
247.099	1	C12H12FN4O+
247.1357	3	C13H16FN4+
250.0624	321	C11H9FN3O3+
255.0875	8	C13H11N4O2+
255.1238	3	C14H15N4O+
257.1397	22	C14H17N4O+
258.0675	15	C13H9FN3O2+
259.1358	4	C14H16FN4+
264.0782	1	C12H11FN3O3+
273.0981	11	C13H13N4O3+
275.094	35	C13H12FN4O2+
275.1303	14	C14H16FN4O+
276.0783	28	C13H11FN3O3+
277.1456	3	C14H18FN4O+
278.0937	11	C13H13FN3O3+
283.1193	3	C15H15N4O2+
293.1045	85	C13H14FN4O3+
301.1297	34	C15H17N4O3+
303.1246	44	C15H16FN4O2+
321.1359	999	C15H18FN4O3+
323.1396	1	C14H18FN5O3+
