Mass spectrum: Hydrochlorothiazide; LC-ESI-ITFT; MS2; CE: 75%; R=15000; [M+H]+
Name: Hydrochlorothiazide
Name: 6-Chloro-3,4-dihydro-2H-1,2,4-benzothiadiazine-7-sulfonamide 1,1-dioxide
Name: 6-chloranyl-1,1-bis(oxidanylidene)-3,4-dihydro-2H-1$l^{6},2,4-benzothiadiazine-7-sulfonamide
Formula: C7H8ClN3O4S2
Exact mass: 296.9645
SMILES: NS(=O)(=O)C1=CC2=C(NCNS2(=O)=O)C=C1Cl
InChI: InChI=1S/C7H8ClN3O4S2/c8-4-1-5-7(2-6(4)16(9,12)13)17(14,15)11-3-10-5/h1-2,10-11H,3H2,(H2,9,12,13)
Instrument: LTQ Orbitrap XL Thermo Scientific
Instrument type: LC-ESI-ITFT
Ms type: MS2
Ion mode: POSITIVE
Ionization: ESI
Fragmentation mode: HCD
Collision energy: 75 % (nominal)
Resolution: 15000
Column name: XBridge C18 3.5um, 2.1x50mm, Waters
Retention time: 2.2 min
Base peak: 163.1326
Precursor m/z: 297.9718
Precursor type: [M+H]+
m/z	relative intensity	assigned
63.023	15	C5H3+
85.9792	34	C3HClN+
89.026	15	C6H3N+
90.0338	88	C6H4N+
91.0179	32	C6H3O+
91.0416	33	C6H5N+
97.9791	40	C4HClN+
98.9996	93	C5H4Cl+
104.9563	31	C3H2ClS+
107.9903	332	C5H2NS+
108.9839	31	C6H2Cl+
111.995	52	C5H3ClN+
113.974	53	C4HClNO+
114.0106	49	C5H5ClN+
117.0448	132	C7H5N2+
118.0527	88	C7H6N2+
123.9949	139	C6H3ClN+
125.0027	231	C6H4ClN+
126.0105	13	C6H5ClN+
129.0213	30	C5H6ClN2+
130.0052	20	C5H5ClNO+
131.9669	28	C7OS+
139.9898	999	C6H3ClNO+
141.9514	85	C5HClNS+
142.0055	130	C6H5ClNO+
142.9592	121	C5H2ClNS+
143.9669	31	C5H3ClNS+
152.0134	46	C7H5ClN2+
152.9974	59	C7H4ClNO+
155.0006	28	C6H4ClN2O+
155.9848	41	C6H3ClNO2+
157.0165	20	C6H6ClN2O+
158.0003	19	C6H5ClNO2+
169.0162	32	C7H6ClN2O+
169.9465	29	C6HClNOS+
171.9619	137	C6H3ClNOS+
203.9518	71	C6H3ClNO3S+
