Mass spectrum: Dioxabenzofos; LC-ESI-QFT; MS2; CE: 45%; R=17500; [M+H]+
Name: Dioxabenzofos
Name: 2-methoxy-2-sulfanylidene-4H-1,3,2lambda5-benzodioxaphosphinine
Formula: C8H9O3PS
Exact mass: 216.0010
SMILES: COP1(=S)OCC2=CC=CC=C2O1
InChI: InChI=1S/C8H9O3PS/c1-9-12(13)10-6-7-4-2-3-5-8(7)11-12/h2-5H,6H2,1H3
Instrument: Exploris 240 Orbitrap Thermo Scientific
Instrument type: LC-ESI-QFT
Ms type: MS2
Ion mode: POSITIVE
Ionization: ESI
Fragmentation mode: HCD
Collision energy: 45 % (nominal)
Resolution: 17500
Column name: XBridge C18 3.5um, 2.1x50mm, Waters
Retention time: 7.127 min
Base peak: 217.0083
Precursor m/z: 217.0083
Precursor type: [M+H]+
m/z	relative intensity	assigned
79.0543	16	C6H7+
107.0492	999	C7H7O+
109.0108	16	C6H5S+
110.9665	23	CH4O2PS+
121.0109	25	C7H5S+
121.0644	12	C8H9O+
123.0264	935	C7H7S+
128.9769	10	CH6O3PS+
137.042	62	C8H9S+
186.9979	94	C7H8O2PS+
198.9972	5	C8H8O2PS+
202.9928	75	C7H8O3PS+
205.0077	30	C7H10O3PS+
217.0084	553	C8H10O3PS+
