Mass spectrum: Metominostrobin; LC-ESI-QFT; MS2; CE: 150%; R=17500; [M+H]+
Name: Metominostrobin
Name: N-methyl-2-(2-phenoxyphenyl)-2-methoxyiminoacetamide
Name: 2-methoxyimino-N-methyl-2-(2-phenoxyphenyl)acetamide
Formula: C16H16N2O3
Exact mass: 284.1161
SMILES: CNC(=O)C(=NOC)C1=CC=CC=C1OC2=CC=CC=C2
InChI: InChI=1S/C16H16N2O3/c1-17-16(19)15(18-20-2)13-10-6-7-11-14(13)21-12-8-4-3-5-9-12/h3-11H,1-2H3,(H,17,19)
Instrument: Exploris 240 Orbitrap Thermo Scientific
Instrument type: LC-ESI-QFT
Ms type: MS2
Ion mode: POSITIVE
Ionization: ESI
Fragmentation mode: HCD
Collision energy: 150 % (nominal)
Resolution: 17500
Column name: XBridge C18 3.5um, 2.1x50mm, Waters
Retention time: 7.515 min
Base peak: 285.1232
Precursor m/z: 285.1234
Precursor type: [M+H]+
m/z	relative intensity	assigned
50.0151	141	C4H2+
51.0229	532	C4H3+
53.0385	37	C4H5+
58.0288	144	C2H4NO+
63.0229	425	C5H3+
64.0307	99	C5H4+
65.0385	177	C5H5+
75.0231	26	C6H3+
76.0307	112	C6H4+
77.0386	273	C6H5+
78.0465	58	C6H6+
87.0231	113	C7H3+
88.0181	23	C6H2N+
89.0386	422	C7H5+
90.0339	82	C6H4N+
91.054	21	C7H7+
92.0257	91	C6H4O+
95.0491	53	C6H7O+
105.0449	60	C6H5N2+
113.0386	863	C9H5+
114.034	131	C8H4N+
115.0542	331	C9H7+
116.0499	82	C8H6N+
126.0467	29	C10H6+
137.0388	45	C11H5+
138.0464	91	C11H6+
139.0542	787	C11H7+
140.0495	999	C10H6N+
164.0497	216	C12H6N+
166.0652	38	C12H8N+
