Mass spectrum: Terbinafine; LC-ESI-QFT; MS2; CE: 120; R=35000; [M+H]+
Name: Terbinafine
Name: Terbinex
Name: N,6,6-trimethyl-N-(naphthalen-1-ylmethyl)hept-2-en-4-yn-1-amine
Formula: C21H25N
Exact mass: 291.19870
SMILES: CC(C)(C)C#CC=CCN(C)CC1=CC=CC2=CC=CC=C21
InChI: InChI=1S/C21H25N/c1-21(2,3)15-8-5-9-16-22(4)17-19-13-10-12-18-11-6-7-14-20(18)19/h5-7,9-14H,16-17H2,1-4H3
Instrument: Q Exactive Plus Orbitrap Thermo Scientific
Instrument type: LC-ESI-QFT
Ms type: MS2
Ion mode: POSITIVE
Ionization: ESI
Fragmentation mode: HCD
Collision energy: 120 (nominal)
Resolution: 35000
Column name: XBridge C18 3.5um, 2.1x50mm, Waters
Retention time: 8.8 min
Base peak: 292.2054
Precursor m/z: 292.206
Precursor type: [M+H]+
m/z	relative intensity	assigned
50.0151	7	C4H2+
51.0229	7	C4H3+
53.0022	1	C3HO+
53.0386	14	C4H5+
55.0542	2	C4H7+
62.0151	3	C5H2+
63.0229	24	C5H3+
65.0386	27	C5H5+
67.0542	1	C5H7+
77.0385	37	C6H5+
78.0464	4	C6H6+
79.0542	12	C6H7+
81.0336	1	C5H5O+
89.0386	24	C7H5+
91.0543	114	C7H7+
93.0699	1	C7H9+
95.0492	44	C6H7O+
102.0464	5	C8H6+
103.0542	3	C8H7+
105.0448	30	C6H5N2+
105.0698	1	C8H9+
114.0465	2	C9H6+
115.0542	999	C9H7+
126.0463	1	C10H6+
139.0543	19	C11H7+
140.0621	5	C11H8+
141.0699	225	C11H9+
165.0697	1	C13H9+
178.0777	1	C14H10+
189.07	1	C15H9+
202.0776	1	C16H10+
