Mass spectrum: MCLY; LC-ESI-QFT; MS2; CE: 75%; R=17500; [M-H]-
Name: MCLY
Name: Microcystin LY
Name: (5R,8S,11R,12S,15S,18S,19S,22R)-15-[(4-hydroxyphenyl)methyl]-18-[(1E,3E,5S,6S)-6-methoxy-3,5-dimethyl-7-phenylhepta-1,3-dienyl]-1,5,12,19-tetramethyl-2-methylidene-8-(2-methylpropyl)-3,6,9,13,16,20,25-heptaoxo-1,4,7,10,14,17,21-heptazacyclopentacosane-11,22-dicarboxylic acid
Class: NA
Formula: C52H71N7O13
Exact mass: 1001.5110
SMILES: COC(Cc1ccccc1)C(C)\C=C(C)\C=C/C2NC(=O)C(Cc3ccc(O)cc3)NC(=O)C(C)C(NC(=O)C(CC(C)C)NC(=O)C(C)NC(=O)C(=C)N(C)C(=O)CCC(NC(=O)C2C)C(O)=O)C(O)=O
InChI: InChI=1S/C52H71N7O13/c1-28(2)24-40-50(67)58-44(52(70)71)32(6)46(63)56-41(26-36-17-19-37(60)20-18-36)49(66)54-38(21-16-29(3)25-30(4)42(72-10)27-35-14-12-11-13-15-35)31(5)45(62)55-39(51(68)69)22-23-43(61)59(9)34(8)48(65)53-33(7)47(64)57-40/h11-21,25,28,30-33,38-42,44,60H,8,22-24,26-27H2,1-7,9-10H3,(H,53,65)(H,54,66)(H,55,62)(H,56,63)(H,57,64)(H,58,67)(H,68,69)(H,70,71)/b21-16-,29-25+
Instrument: Q Exactive Plus Orbitrap Thermo Scientific
Instrument type: LC-ESI-QFT
Ms type: MS2
Ion mode: NEGATIVE
Ionization: ESI
Fragmentation mode: HCD
Collision energy: 75 % (nominal)
Resolution: 17500
Column name: XBridge C18 3.5um, 2.1x50mm, Waters
Retention time: 10.715 min
Base peak: 190.9277
Precursor m/z: 1000.5037
Precursor type: [M-H]-
m/z	relative intensity	assigned
71.025	46	C2H3N2O-
72.009	43	C2H2NO2-
72.0456	180	C3H6NO-
73.0294	42	C3H5O2-
74.0249	223	C2H4NO2-
80.0506	80	C5H6N-
82.03	193	C4H4NO-
82.0663	223	C5H8N-
84.0457	181	C4H6NO-
87.0564	219	C3H7N2O-
93.0345	114	C6H5O-
94.0663	46	C6H8N-
95.025	63	C4H3N2O-
96.0455	133	C5H6NO-
96.082	36	C6H10N-
97.0405	76	C4H5N2O-
99.0568	192	C4H7N2O-
108.0328	81	C5H4N2O-
109.0168	90	C5H3NO2-
109.0406	161	C5H5N2O-
110.0248	999	C5H4NO2-
111.0198	98	C4H3N2O2-
111.0567	67	C5H7N2O-
112.0404	138	C5H6NO2-
112.0767	174	C6H10NO-
113.0355	132	C4H5N2O2-
117.0347	149	C8H5O-
119.0503	856	C8H7O-
120.046	54	C7H6NO-
122.0486	53	C6H6N2O-
123.033	70	C6H5NO2-
123.0437	69	C5H5N3O-
123.0565	119	C6H7N2O-
124.0403	483	C6H6NO2-
125.0593	147	C5H7N3O-
125.0719	38	C6H9N2O-
127.0515	243	C5H7N2O2-
128.0353	849	C5H6NO3-
129.1032	394	C6H13N2O-
134.0611	75	C8H8NO-
138.0432	135	C6H6N2O2-
138.0549	51	C5H6N4O-
139.0875	298	C7H11N2O-
144.0454	38	C9H6NO-
145.0293	126	C9H5O2-
150.0559	129	C8H8NO2-
153.0673	49	C7H9N2O2-
153.1028	86	C8H13N2O-
155.1183	75	C8H15N2O-
165.103	297	C9H13N2O-
180.1137	128	C9H14N3O-
182.1291	631	C7H14N6-
200.1401	59	C9H18N3O2-
