Mass spectrum: Thifensulfuron-methyl; LC-ESI-ITFT; MS2; CE: 75%; R=7500; [M+H]+
Name: Thifensulfuron-methyl
Name: 3-[(4-methoxy-6-methyl-s-triazin-2-yl)carbamoylsulfamoyl]thiophene-2-carboxylic acid methyl ester
Formula: C12H13N5O6S2
Exact mass: 387.0307
SMILES: COC(=O)C1=C(C=CS1)S(=O)(=O)NC(=O)NC1=NC(C)=NC(OC)=N1
InChI: InChI=1S/C12H13N5O6S2/c1-6-13-10(16-12(14-6)23-3)15-11(19)17-25(20,21)7-4-5-24-8(7)9(18)22-2/h4-5H,1-3H3,(H2,13,14,15,16,17,19)
Instrument: LTQ Orbitrap XL Thermo Scientific
Instrument type: LC-ESI-ITFT
Ms type: MS2
Ion mode: POSITIVE
Ionization: ESI
Fragmentation mode: HCD
Collision energy: 75 % (nominal)
Resolution: 7500
Column name: XBridge C18 3.5um, 2.1x50mm, Waters
Retention time: 7.2 min
Base peak: 388.0375
Precursor m/z: 388.038
Precursor type: [M+H]+
m/z	relative intensity	assigned
67.0293	7	C3H3N2+
69.0083	91	C2HN2O+
69.9871	36	C3H2S+
73.0104	6	C3H5S+
78.9848	94	CH3O2S+
82.9949	13	C4H3S+
83.024	214	C3H3N2O+
85.0107	32	C4H5S+
85.0398	17	C3H5N2O+
86.9899	30	C3H3OS+
95.9903	7	C4H2NS+
97.9821	134	C4H2OS+
100.0505	35	C3H6N3O+
107.99	8	C5H2NS+
110.9899	20	C5H3OS+
111.0012	16	C4H3N2S+
123.9851	14	C5H2NOS+
125.977	999	C5H2O2S+
126.9847	15	C5H3O2S+
141.0006	207	C6H5O2S+
141.0772	207	C5H9N4O+
143.9876	51	C5H4O3S+
151.9806	13	C6H2NO2S+
167.0563	541	C6H7N4O2+
174.9518	84	C5H3O3S2+
189.963	33	C5H4NO3S2+
204.9624	261	C6H5O4S2+
215.9414	23	C6H2NO4S2+
