Mass spectrum: Trimethoprim; LC-ESI-ITFT; MS2; CE: 75%; R=15000; [M+H]+
Name: Trimethoprim
Name: 2,4-Diamino-5-(3,4,5-trimethoxybenzyl)pyrimidine
Name: 5-[(3,4,5-trimethoxyphenyl)methyl]pyrimidine-2,4-diamine
Formula: C14H18N4O3
Exact mass: 290.1379
SMILES: c1(Cc2c(nc(N)nc2)N)cc(c(OC)c(c1)OC)OC
InChI: InChI=1S/C14H18N4O3/c1-19-10-5-8(6-11(20-2)12(10)21-3)4-9-7-17-14(16)18-13(9)15/h5-7H,4H2,1-3H3,(H4,15,16,17,18)
Instrument: LTQ Orbitrap XL Thermo Scientific
Instrument type: LC-ESI-ITFT
Ms type: MS2
Ion mode: POSITIVE
Ionization: ESI
Fragmentation mode: HCD
Collision energy: 75 % (nominal)
Resolution: 15000
Column name: XBridge C18 3.5um, 2.1x50mm, Waters
Retention time: 3.8 min
Base peak: 291.1463
Precursor m/z: 291.1452
Precursor type: [M+H]+
m/z	relative intensity	assigned
60.0557	13	CH6N3+
68.0367	10	C3H4N2+
72.0318	10	C2H4N2O+
81.0448	211	C4H5N2+
83.0479	12	C3H5N3+
86.0586	8	C2H6N4+
106.04	10	C5H4N3+
109.0508	16	C4H5N4+
110.0588	217	C4H6N4+
111.0666	150	C4H7N4+
113.0462	10	C3H5N4O+
120.057	9	C8H8O+
123.0441	94	C7H7O2+
123.0667	999	C5H7N4+
124.0745	86	C5H8N4+
135.0445	6	C8H7O2+
135.0667	23	C6H7N4+
137.0598	53	C8H9O2+
142.0655	9	C10H8N+
146.06	15	C9H8NO+
146.0714	9	C8H8N3+
148.0517	13	C9H8O2+
148.0738	9	C7H8N4+
149.0236	7	C8H5O3+
149.0711	59	C8H9N2O+
149.0822	23	C7H9N4+
151.0391	81	C8H7O3+
156.0448	18	C10H6NO+
158.0602	6	C10H8NO+
159.0919	12	C10H11N2+
161.0822	67	C8H9N4+
162.0902	32	C8H10N4+
163.0984	10	C8H11N4+
165.0547	28	C9H9O3+
170.0598	19	C11H8NO+
170.0712	10	C10H8N3+
173.0711	9	C10H9N2O+
173.0822	21	C9H9N4+
174.0553	26	C10H8NO2+
174.0663	115	C9H8N3O+
175.0621	8	C8H7N4O+
175.0978	27	C9H11N4+
176.0694	9	C8H8N4O+
181.0862	20	C10H13O3+
184.0865	15	C11H10N3+
186.0549	14	C11H8NO2+
186.0906	9	C10H10N4+
187.0873	16	C11H11N2O+
187.0979	177	C10H11N4+
188.1053	11	C10H12N4+
189.0777	12	C9H9N4O+
190.0852	40	C9H10N4O+
191.0929	75	C9H11N4O+
198.0663	8	C11H8N3O+
199.098	51	C11H11N4+
200.1062	19	C11H12N4+
201.0776	25	C12H11NO2+
201.1136	321	C11H13N4+
202.05	12	C11H8NO3+
202.1213	38	C11H14N4+
203.0928	51	C10H11N4O+
205.1089	9	C10H13N4O+
212.0821	15	C12H10N3O+
213.0767	8	C11H9N4O+
213.1136	10	C12H13N4+
214.085	16	C11H10N4O+
215.0693	13	C11H9N3O2+
215.093	55	C11H11N4O+
216.0769	22	C11H10N3O2+
216.1007	24	C11H12N4O+
217.0611	8	C11H9N2O3+
217.1084	46	C11H13N4O+
218.0798	17	C10H10N4O2+
219.076	12	C11H11N2O3+
227.0924	11	C12H11N4O+
228.1009	10	C12H12N4O+
229.1086	495	C12H13N4O+
230.1163	174	C12H14N4O+
231.0878	92	C11H11N4O2+
232.0956	256	C11H12N4O2+
233.1034	502	C11H13N4O2+
242.0553	12	C12H8N3O3+
243.0882	19	C12H11N4O2+
244.0715	11	C12H10N3O3+
245.1034	445	C12H13N4O2+
246.111	12	C12H14N4O2+
247.0826	128	C11H11N4O3+
247.1192	70	C12H15N4O2+
255.0878	12	C13H11N4O2+
257.1035	568	C13H13N4O2+
258.1112	6	C13H14N4O2+
259.0827	118	C12H11N4O3+
259.1192	11	C13H15N4O2+
261.0983	642	C12H13N4O3+
273.0981	11	C13H13N4O3+
275.114	405	C13H15N4O3+
