Mass spectrum: Epoxiconazole; LC-ESI-ITFT; MS2; CE: 15%; R=15000; [M+H]+
Name: Epoxiconazole
Name: 1-[[(2S,3R)-3-(2-chlorophenyl)-2-(4-fluorophenyl)-2-oxiranyl]methyl]-1,2,4-triazole
Formula: C17H13ClFN3O
Exact mass: 329.0726
SMILES: C1=CC=C(C(=C1)C2C(O2)(CN3C=NC=N3)C4=CC=C(C=C4)F)Cl
InChI: InChI=1S/C17H13ClFN3O/c18-15-4-2-1-3-14(15)16-17(23-16,9-22-11-20-10-21-22)12-5-7-13(19)8-6-12/h1-8,10-11,16H,9H2/t16-,17-/m1/s1
Instrument: LTQ Orbitrap XL Thermo Scientific
Instrument type: LC-ESI-ITFT
Ms type: MS2
Ion mode: POSITIVE
Ionization: ESI
Fragmentation mode: HCD
Collision energy: 15 % (nominal)
Resolution: 15000
Column name: XBridge C18 3.5um, 2.1x50mm, Waters
Retention time: 11.7 min
Base peak: 330.0812
Precursor m/z: 330.0804
Precursor type: [M+H]+
m/z	relative intensity	assigned
70.0399	4	C2H4N3+
121.0447	58	C8H6F+
123.024	34	C7H4FO+
138.9951	1	C7H4ClO+
141.0102	11	C7H6ClO+
330.0806	999	C17H14ClFN3O+
