Mass spectrum: Fenthion Oxon; LC-ESI-QFT; MS2; CE: 150%; R=17500; [M+H]+
Name: Fenthion Oxon
Name: dimethyl (3-methyl-4-methylsulfanylphenyl) phosphate
Formula: C10H15O4PS
Exact mass: 262.0429
SMILES: CC1=C(C=CC(=C1)OP(=O)(OC)OC)SC
InChI: InChI=1S/C10H15O4PS/c1-8-7-9(5-6-10(8)16-4)14-15(11,12-2)13-3/h5-7H,1-4H3
Instrument: Exploris 240 Orbitrap Thermo Scientific
Instrument type: LC-ESI-QFT
Ms type: MS2
Ion mode: POSITIVE
Ionization: ESI
Fragmentation mode: HCD
Collision energy: 150 % (nominal)
Resolution: 17500
Column name: XBridge C18 3.5um, 2.1x50mm, Waters
Retention time: 7.813 min
Base peak: 263.0501
Precursor m/z: 263.0501
Precursor type: [M+H]+
m/z	relative intensity	assigned
50.015	38	C4H2+
51.023	371	C4H3+
52.0309	86	C4H4+
53.0386	483	C4H5+
58.995	352	C2H3S+
63.023	83	C5H3+
65.0386	725	C5H5+
66.0464	265	C5H6+
68.9795	97	C3HS+
70.995	70	C3H3S+
77.0386	999	C6H5+
78.0464	897	C6H6+
79.0545	44	C6H7+
89.0384	84	C7H5+
91.0542	614	C7H7+
95.049	195	C6H7O+
97.0106	335	C5H5S+
103.0542	199	C8H7+
107.0488	47	C7H7O+
109.0104	73	C6H5S+
121.0106	919	C7H5S+
122.0182	63	C7H6S+
