Mass spectrum: 4-Chlorophenol; LC-ESI-QFT; MS2; CE: 75; R=35000; [M+H]+
Name: 4-Chlorophenol
Name: 4-chloranylphenol
Formula: C6H5ClO
Exact mass: 128.00289
SMILES: Oc1ccc(Cl)cc1
InChI: InChI=1S/C6H5ClO/c7-5-1-3-6(8)4-2-5/h1-4,8H
Instrument: Q Exactive Orbitrap Thermo Scientific
Instrument type: LC-ESI-QFT
Ms type: MS2
Ion mode: POSITIVE
Ionization: ESI
Fragmentation mode: HCD
Collision energy: 75 (nominal)
Resolution: 35000
Column name: XBridge C18 3.5um, 2.1x50mm, Waters
Retention time: 7.3 min
Base peak: 116.9859
Precursor m/z: 129.0102
Precursor type: [M+H]+
m/z	relative intensity	assigned
53.0023	365	C3HO+
53.0387	272	C4H5+
55.0179	483	C3H3O+
56.013	69	C2H2NO+
57.0335	299	C3H5O+
65.0386	630	C5H5+
69.0335	999	C4H5O+
70.0286	88	C3H4NO+
73.0284	103	C3H5O2+
85.0284	144	C4H5O2+
94.0413	935	C6H6O+
97.0283	93	C5H5O2+
121.0399	83	C6H5N2O+
129.0103	362	C6H6ClO+
