Mass spectrum: Azithromycin; LC-ESI-ITFT; MS2; CE: 30%; R=15000; [M+H]+
Name: Azithromycin
Name: (2R,3S,4R,5R,8R,10R,11R,13S,14R)-11-[(2S,3R,4S,6R)-4-(dimethylamino)-3-hydroxy-6-methyloxan-2-yl]oxy-2-ethyl-3,4,10-trihydroxy-13-[(2R,4R,5S,6S)-5-hydroxy-4-methoxy-4,6-dimethyloxan-2-yl]oxy-3,5,6,8,10,12,14-heptamethyl-1-oxa-6-azacyclopentadecan-15-one
Formula: C38H72N2O12
Exact mass: 748.5085
SMILES: CC[C@H]1OC(=O)[C@H](C)[C@@H](O[C@H]2C[C@@](C)(OC)[C@@H](O)[C@H](C)O2)C(C)[C@@H](O[C@@H]3O[C@H](C)C[C@@H]([C@H]3O)N(C)C)[C@](C)(O)C[C@@H](C)CN(C)[C@H](C)[C@@H](O)[C@]1(C)O
InChI: InChI=1S/C38H72N2O12/c1-15-27-38(10,46)31(42)24(6)40(13)19-20(2)17-36(8,45)33(52-35-29(41)26(39(11)12)16-21(3)48-35)22(4)30(23(5)34(44)50-27)51-28-18-37(9,47-14)32(43)25(7)49-28/h20-33,35,41-43,45-46H,15-19H2,1-14H3/t20-,21-,22?,23-,24-,25+,26+,27-,28+,29-,30+,31-,32+,33-,35+,36-,37-,38-/m1/s1
Instrument: LTQ Orbitrap XL Thermo Scientific
Instrument type: LC-ESI-ITFT
Ms type: MS2
Ion mode: POSITIVE
Ionization: ESI
Fragmentation mode: HCD
Collision energy: 30 % (nominal)
Resolution: 15000
Column name: XBridge C18 3.5um, 2.1x50mm, Waters
Retention time: 5.9 min
Base peak: 375.2626
Precursor m/z: 749.5158
Precursor type: [M+H]+
m/z	relative intensity	assigned
55.0542	12	C4H7+
72.0807	155	C4H10N+
83.0491	705	C5H7O+
98.0963	98	C6H12N+
113.0596	78	C6H9O2+
116.0705	123	C5H10NO2+
116.1068	640	C6H14NO+
127.0751	22	C7H11O2+
158.1173	999	C8H16NO2+
186.149	30	C10H20NO2+
375.2736	14	C20H39O6+
398.289	52	C22H40NO5+
416.3005	18	C22H42NO6+
434.3103	64	C22H44NO7+
573.4106	140	C30H57N2O8+
591.4209	512	C30H59N2O9+
749.5152	47	C38H73N2O12+
