Mass spectrum: Linoleic acid; LC-ESI-QFT; MS2; CE: 15; R=35000; [M+H]+
Name: Linoleic acid
Name: (9Z,12Z)-octadeca-9,12-dienoic acid
Formula: C18H32O2
Exact mass: 280.24023
SMILES: CCCCC/C=C\C/C=C\CCCCCCCC(=O)O
InChI: InChI=1S/C18H32O2/c1-2-3-4-5-6-7-8-9-10-11-12-13-14-15-16-17-18(19)20/h6-7,9-10H,2-5,8,11-17H2,1H3,(H,19,20)/b7-6-,10-9-
Instrument: Q Exactive Orbitrap Thermo Scientific
Instrument type: LC-ESI-QFT
Ms type: MS2
Ion mode: POSITIVE
Ionization: ESI
Fragmentation mode: HCD
Collision energy: 15 (nominal)
Resolution: 35000
Column name: XBridge C18 3.5um, 2.1x50mm, Waters
Retention time: 19.4 min
Base peak: 298.274
Precursor m/z: 281.2475
Precursor type: [M+H]+
m/z	relative intensity	assigned
55.0542	11	C4H7+
57.0699	62	C4H9+
59.0492	8	C3H7O+
67.0542	35	C5H7+
69.0698	206	C5H9+
71.0491	8	C4H7O+
71.0854	79	C5H11+
73.0648	1	C4H9O+
74.0965	4	C4H12N+
79.0542	4	C6H7+
81.0698	115	C6H9+
83.0855	327	C6H11+
85.0285	2	C4H5O2+
85.0648	13	C5H9O+
85.1011	37	C6H13+
87.0439	3	C4H7O2+
89.0597	2	C4H9O2+
91.0542	5	C7H7+
93.0699	18	C7H9+
95.0854	133	C7H11+
97.0648	35	C6H9O+
97.1011	479	C7H13+
99.044	10	C5H7O2+
99.0803	31	C6H11O+
101.0596	30	C5H9O2+
101.0962	4	C6H13O+
105.0698	24	C8H9+
107.0855	38	C8H11+
109.0647	10	C7H9O+
109.1011	113	C8H13+
111.0803	29	C7H11O+
111.1168	313	C8H15+
113.0596	11	C6H9O2+
113.096	18	C7H13O+
115.0752	35	C6H11O2+
115.1116	2	C7H15O+
119.0854	46	C9H11+
121.1011	88	C9H13+
123.0803	56	C8H11O+
123.1167	82	C9H15+
125.096	40	C8H13O+
125.1324	166	C9H17+
127.0753	13	C7H11O2+
127.1118	12	C8H15O+
129.0909	42	C7H13O2+
133.1011	91	C10H13+
135.1168	79	C10H15+
137.0598	15	C8H9O2+
137.096	62	C9H13O+
137.1324	47	C10H17+
139.0753	8	C8H11O2+
139.1117	53	C9H15O+
139.148	57	C10H19+
141.091	26	C8H13O2+
141.1272	20	C9H17O+
143.0856	2	C11H11+
143.1067	35	C8H15O2+
147.1167	99	C11H15+
149.0233	126	C8H5O3+
149.1325	110	C11H17+
151.1117	98	C10H15O+
151.1481	43	C11H19+
153.0911	9	C9H13O2+
153.1273	67	C10H17O+
153.1638	19	C11H21+
155.1065	39	C9H15O2+
155.1431	4	C10H19O+
157.1222	28	C9H17O2+
159.1164	3	C12H15+
161.0964	8	C11H13O+
161.1324	112	C12H17+
163.1481	96	C12H19+
165.1274	143	C11H17O+
165.1636	57	C12H21+
167.143	74	C11H19O+
169.086	13	C9H13O3+
169.1221	47	C10H17O2+
171.1166	3	C13H15+
171.1379	34	C10H19O2+
173.1317	2	C13H17+
175.1116	8	C12H15O+
175.1481	102	C13H19+
177.1637	19	C13H21+
179.1059	10	C11H15O2+
179.143	146	C12H19O+
179.1794	66	C13H23+
181.1585	50	C12H21O+
183.1016	4	C10H15O3+
183.1379	40	C11H19O2+
183.1747	4	C12H23O+
185.1324	3	C14H17+
185.1536	51	C11H21O2+
189.1637	87	C14H21+
191.1068	3	C12H15O2+
191.1796	16	C14H23+
193.1224	15	C12H17O2+
193.1586	128	C13H21O+
195.1744	4	C13H23O+
197.1536	50	C12H21O2+
197.19	12	C13H25O+
199.169	30	C12H23O2+
203.1066	3	C13H15O2+
203.143	9	C14H19O+
203.1795	27	C15H23+
205.0857	7	C12H13O3+
205.1224	3	C13H17O2+
205.1953	13	C15H25+
207.0919	13	C14H11N2+
207.1018	8	C12H15O3+
207.1744	94	C14H23O+
211.1691	39	C13H23O2+
217.1222	4	C14H17O2+
217.1588	3	C15H21O+
217.1954	17	C16H25+
219.211	26	C16H27+
221.1169	18	C13H17O3+
221.1533	13	C14H21O2+
221.1901	30	C15H25O+
221.2264	116	C16H29+
223.1333	3	C13H19O3+
225.1849	32	C14H25O2+
231.1374	7	C15H19O2+
235.1326	22	C14H19O3+
235.1692	8	C15H23O2+
235.242	9	C17H31+
245.2264	723	C18H29+
246.1003	4	C13H14N2O3+
249.1477	17	C15H21O3+
249.1847	13	C16H25O2+
253.2529	28	C17H33O+
263.2369	999	C18H31O+
281.2466	305	C18H33O2+
