Mass spectrum: Benzenesulfonamide; LC-ESI-QFT; MS2; CE: 60; R=35000; [M+H]+
Name: Benzenesulfonamide
Name: Benzenesulfonimidic acid
Formula: C6H7NO2S
Exact mass: 157.01975
SMILES: c1ccc(cc1)S(=N)(=O)O
InChI: InChI=1S/C6H7NO2S/c7-10(8,9)6-4-2-1-3-5-6/h1-5H,(H2,7,8,9)
Instrument: Q Exactive Plus Orbitrap Thermo Scientific
Instrument type: LC-ESI-QFT
Ms type: MS2
Ion mode: POSITIVE
Ionization: ESI
Fragmentation mode: HCD
Collision energy: 60 (nominal)
Resolution: 35000
Column name: XBridge C18 3.5um, 2.1x50mm, Waters
Retention time: 3.1 min
Base peak: 158.0266
Precursor m/z: 158.027
Precursor type: [M+H]+
m/z	relative intensity	assigned
50.0151	14	C4H2+
51.0229	13	C4H3+
53.0386	271	C4H5+
55.0178	20	C3H3O+
68.997	3	C3HO2+
77.0384	408	C6H5+
79.0541	1	C6H7+
79.98	1	H2NO2S+
81.0334	36	C5H5O+
94.0413	6	C6H6O+
95.0491	999	C6H7O+
98.0362	1	C5H6O2+
105.0447	699	C6H5N2+
141.0004	25	C6H5O2S+
