Mass spectrum: Fipronil-TP RPA 200761; LC-ESI-QFT; MS2; CE: 180%; R=17500; [M+H]+
Name: Fipronil-TP RPA 200761
Name: 5-amino-1-[2,6-dichloro-4-(trifluoromethyl)phenyl]-4-(trifluoromethylsulfinyl)pyrazole-3-carboxylic acid
Formula: C12H5Cl2F6N3O3S
Exact mass: 454.9333
SMILES: NC1=C(C(=NN1C1=C(Cl)C=C(C=C1Cl)C(F)(F)F)C(O)=O)S(=O)C(F)(F)F
InChI: InChI=1S/C12H5Cl2F6N3O3S/c13-4-1-3(11(15,16)17)2-5(14)7(4)23-9(21)8(6(22-23)10(24)25)27(26)12(18,19)20/h1-2H,21H2,(H,24,25)
Instrument: Q Exactive Plus Orbitrap Thermo Scientific
Instrument type: LC-ESI-QFT
Ms type: MS2
Ion mode: POSITIVE
Ionization: ESI
Fragmentation mode: HCD
Collision energy: 180 % (nominal)
Resolution: 17500
Column name: XBridge C18 3.5um, 2.1x50mm, Waters
Retention time: 8.085 min
Base peak: 455.9408
Precursor m/z: 455.9406
Precursor type: [M+H]+
m/z	relative intensity	assigned
51.004	77	CHF2+
52.0181	48	C3H2N+
53.0023	22	C3HO+
53.9974	16	C2NO+
57.0134	111	C3H2F+
59.9665	35	COS+
61.0072	246	C5H+
61.9792	216	CHClN+
62.0151	171	C5H2+
62.97	57	CFS+
62.9871	31	CH2ClN+
63.0229	106	C5H3+
63.9851	40	H2NOS+
64.0182	17	C4H2N+
65.002	24	C4HO+
66.9745	294	CHClF+
68.0057	38	C4HF+
68.9794	147	C3HS+
68.9946	999	CF3+
69.9746	597	C2NS+
72.9839	126	C3H2Cl+
74.0151	153	C6H2+
75.004	564	C3HF2+
75.0106	68	C5HN+
75.0229	31	C6H3+
76.0181	49	C5H2N+
78.9403	17	CClS+
80.0057	38	C5HF+
81.0135	719	C5H2F+
81.9871	18	C4H2S+
82.0026	71	C2HF3+
82.0087	105	C4HFN+
82.945	32	CHCl2+
83.0291	27	C5H4F+
83.9761	41	C4HCl+
84.9651	237	CClF2+
86.0025	55	C6N+
86.97	70	C3FS+
87.0104	429	C6HN+
88.0123	64	C4H2F2+
88.0181	980	C6H2N+
90.9746	313	C3HClF+
92.0058	130	C6HF+
92.9793	37	C5HS+
92.9947	272	C3F3+
93.0005	29	C2H5O2S+
93.0135	218	C6H2F+
94.0216	23	C6H3F+
95.9761	36	C5HCl+
96.9839	296	C5H2Cl+
97.9794	42	C4HClN+
99.0041	310	C5HF2+
99.0104	272	C7HN+
99.9993	57	C4F2N+
100.0181	187	C7H2N+
100.9357	18	CCl2F+
102.9978	20	C7F+
104.9794	48	F3O3+
105.9874	92	F3HO3+
106.0024	80	C4HF3+
106.0088	293	C6HFN+
106.9449	25	C3HCl2+
107.0166	34	C6H2FN+
107.9762	186	C6HCl+
108.0246	74	C6H3FN+
108.9652	134	C3ClF2+
108.984	47	C6H2Cl+
111.0041	53	C6HF2+
111.0108	23	C8HN+
112.0119	54	C6H2F2+
112.0184	37	C8H2N+
114.9746	131	C5HClF+
116.9947	148	C5F3+
118.0086	68	C7HFN+
118.0289	33	C7H4NO+
119.0166	68	C7H2FN+
121.9793	142	C6HClN+
123.0041	171	C7HF2+
124.0063	23	C2H6NO3S+
125.0127	73	F5H2N2+
126.9745	24	C6HClF+
127.9824	58	C6H2ClF+
130.0022	158	CF4N3+
130.0224	19	CH3F3N3O+
131.0102	137	CHF4N3+
132.0182	36	C6H3F3+
132.965	25	C5ClF2+
133.9793	24	C7HClN+
137.0072	125	C7HF2N+
138.0152	44	C7H2F2N+
139.0228	36	C7H3F2N+
141.9855	28	C6H2ClFN+
143.0103	479	C7H2F3+
143.0224	23	
145.9724	38	CClF3N3+
148.0134	46	C3H6ClF3N+
150.015	48	C8H2F2N+
156.9647	19	C7ClF2+
157.0132	352	C7H2F3N+
159.0167	79	C6H2F3N2+
165.9791	316	C6H2ClF3+
168.005	28	F3H5N3O2S+
172.9844	28	C7F3O2+
173.9913	40	C10F2O+
