Mass spectrum: Cortisone; LC-ESI-QFT; MS2; CE: 60; R=35000; [M-H]-
Name: Cortisone
Name: 17,21-Dihydroxypregn-4-ene-3,11,20-trione
Name: (8S,9S,10R,13S,14S,17R)-17-hydroxy-17-(2-hydroxyacetyl)-10,13-dimethyl-1,2,6,7,8,9,12,14,15,16-decahydrocyclopenta[a]phenanthrene-3,11-dione
Formula: C21H28O5
Exact mass: 360.19367
SMILES: O=C(CO)[C@@]3(O)CC[C@H]2[C@@H]4CC\C1=C\C(=O)CC[C@]1(C)[C@H]4C(=O)C[C@@]23C
InChI: InChI=1S/C21H28O5/c1-19-7-5-13(23)9-12(19)3-4-14-15-6-8-21(26,17(25)11-22)20(15,2)10-16(24)18(14)19/h9,14-15,18,22,26H,3-8,10-11H2,1-2H3/t14-,15-,18+,19-,20-,21-/m0/s1
Instrument: Q Exactive Plus Orbitrap Thermo Scientific
Instrument type: LC-ESI-QFT
Ms type: MS2
Ion mode: NEGATIVE
Ionization: ESI
Fragmentation mode: HCD
Collision energy: 60 (nominal)
Resolution: 35000
Column name: XBridge C18 3.5um, 2.1x50mm, Waters
Retention time: 7.4 min
Base peak: 405.1915
Precursor m/z: 359.1864
Precursor type: [M-H]-
m/z	relative intensity	assigned
57.0346	119	C3H5O-
59.0138	5	C2H3O2-
69.0346	3	C4H5O-
71.0139	1	C3H3O2-
71.0503	1	C4H7O-
79.0553	6	C6H7-
81.0345	9	C5H5O-
83.0139	1	C4H3O2-
83.0503	6	C5H7O-
85.0295	3	C4H5O2-
91.0553	2	C7H7-
93.0345	3	C6H5O-
93.0709	2	C7H9-
94.0423	2	C6H6O-
95.0138	2	C5H3O2-
95.0502	21	C6H7O-
96.0217	1	C5H4O2-
97.0659	27	C6H9O-
99.0451	6	C5H7O2-
106.0425	1	C7H6O-
107.0503	46	C7H7O-
107.0866	7	C8H11-
108.0217	4	C6H4O2-
109.0659	206	C7H9O-
111.0451	3	C6H7O2-
111.0816	3	C7H11O-
119.0502	18	C8H7O-
119.0866	1	C9H11-
120.0583	1	C8H8O-
121.0296	1	C7H5O2-
121.0659	18	C8H9O-
121.1023	1	C9H13-
122.0374	130	C7H6O2-
123.0452	100	C7H7O2-
123.0816	76	C8H11O-
124.0166	8	C6H4O3-
125.0243	3	C6H5O3-
125.0607	54	C7H9O2-
133.0659	3	C9H9O-
133.1024	2	C10H13-
134.0375	1	C8H6O2-
135.0452	26	C8H7O2-
135.0816	56	C9H11O-
136.053	113	C8H8O2-
137.0607	999	C8H9O2-
138.0322	15	C7H6O3-
138.0684	1	C8H10O2-
139.04	2	C7H7O3-
145.0659	5	C10H9O-
145.1024	1	C11H13-
146.0734	3	C10H10O-
147.0452	6	C9H7O2-
147.0816	16	C10H11O-
148.0529	10	C9H8O2-
149.0607	210	C9H9O2-
150.0322	8	C8H6O3-
150.0684	2	C9H10O2-
151.04	46	C8H7O3-
151.0765	6	C9H11O2-
153.0196	3	C7H5O4-
154.0271	6	C7H6O4-
159.0453	1	C10H7O2-
159.0815	3	C11H11O-
160.0526	1	C10H8O2-
161.0609	3	C10H9O2-
161.0972	28	C11H13O-
162.0686	13	C10H10O2-
163.0765	42	C10H11O2-
163.113	2	C11H15O-
164.0842	2	C10H12O2-
165.0193	1	C8H5O4-
165.0919	3	C10H13O2-
167.035	9	C8H7O4-
168.0428	8	C8H8O4-
173.0605	2	C11H9O2-
173.0971	2	C12H13O-
175.0764	11	C11H11O2-
175.1127	22	C12H15O-
176.0842	10	C11H12O2-
177.092	4	C11H13O2-
179.1078	4	C11H15O2-
187.0764	7	C12H11O2-
187.1127	3	C13H15O-
188.084	1	C12H12O2-
189.0924	2	C12H13O2-
191.0716	1	C11H11O3-
191.1077	2	C12H15O2-
201.0921	1	C13H13O2-
203.1075	6	C13H15O2-
205.1231	1	C13H17O2-
214.0999	1	C14H14O2-
215.1079	1	C14H15O2-
215.1441	1	C15H19O-
227.1081	1	C15H15O2-
228.1154	1	C15H16O2-
229.1233	3	C15H17O2-
233.1179	3	C14H17O3-
239.1077	1	C16H15O2-
239.1438	1	C17H19O-
241.1233	2	C16H17O2-
242.1309	1	C16H18O2-
243.1387	3	C16H19O2-
253.1235	4	C17H17O2-
256.1103	3	C16H16O3-
257.1546	17	C17H21O2-
259.1338	13	C16H19O3-
269.1546	7	C18H21O2-
271.1339	28	C17H19O3-
283.1702	7	C19H23O2-
284.1417	5	C18H20O3-
285.15	3	C18H21O3-
287.1657	1	C18H23O3-
299.1654	1	C19H23O3-
311.1654	26	C20H23O3-
326.1528	3	C20H22O4-
329.1759	26	C20H25O4-
