Mass spectrum: Thifensulfuron-methyl; LC-ESI-ITFT; MS2; CE: 90%; R=7500; [M+H]+
Name: Thifensulfuron-methyl
Name: 3-[(4-methoxy-6-methyl-s-triazin-2-yl)carbamoylsulfamoyl]thiophene-2-carboxylic acid methyl ester
Formula: C12H13N5O6S2
Exact mass: 387.0307
SMILES: COC(=O)C1=C(C=CS1)S(=O)(=O)NC(=O)NC1=NC(C)=NC(OC)=N1
InChI: InChI=1S/C12H13N5O6S2/c1-6-13-10(16-12(14-6)23-3)15-11(19)17-25(20,21)7-4-5-24-8(7)9(18)22-2/h4-5H,1-3H3,(H2,13,14,15,16,17,19)
Instrument: LTQ Orbitrap XL Thermo Scientific
Instrument type: LC-ESI-ITFT
Ms type: MS2
Ion mode: POSITIVE
Ionization: ESI
Fragmentation mode: HCD
Collision energy: 90 % (nominal)
Resolution: 7500
Column name: XBridge C18 3.5um, 2.1x50mm, Waters
Retention time: 7.2 min
Base peak: 388.0375
Precursor m/z: 388.038
Precursor type: [M+H]+
m/z	relative intensity	assigned
67.0289	7	C3H3N2+
68.9793	12	C3HS+
69.0083	113	C2HN2O+
69.9871	110	C3H2S+
70.995	13	C3H3S+
78.9848	68	CH3O2S+
82.9949	14	C4H3S+
83.0239	185	C3H3N2O+
85.0105	30	C4H5S+
85.0398	12	C3H5N2O+
86.9899	23	C3H3OS+
95.9902	10	C4H2NS+
97.9821	319	C4H2OS+
100.0508	18	C3H6N3O+
107.99	6	C5H2NS+
110.9899	37	C5H3OS+
111.0011	16	C4H3N2S+
123.9847	22	C5H2NOS+
125.977	999	C5H2O2S+
126.9849	21	C5H3O2S+
141.0005	76	C6H5O2S+
141.0771	50	C5H9N4O+
143.9877	53	C5H4O3S+
151.9802	5	C6H2NO2S+
167.0563	101	C6H7N4O2+
174.9516	28	C5H3O3S2+
204.9625	36	C6H5O4S2+
