Mass spectrum: Aspirin; LC-ESI-QFT; MS2; CE: 45; R=35000; [M-H]-
Name: Aspirin
Name: Acetyl salicilic acid
Name: 2-acetyloxybenzoic acid
Formula: C9H8O4
Exact mass: 180.04226
SMILES: CC(=O)OC1=CC=CC=C1C(=O)O
InChI: InChI=1S/C9H8O4/c1-6(10)13-8-5-3-2-4-7(8)9(11)12/h2-5H,1H3,(H,11,12)
Instrument: Q Exactive Plus Orbitrap Thermo Scientific
Instrument type: LC-ESI-QFT
Ms type: MS2
Ion mode: NEGATIVE
Ionization: ESI
Fragmentation mode: HCD
Collision energy: 45 (nominal)
Resolution: 35000
Column name: XBridge C18 3.5um, 2.1x50mm, Waters
Retention time: 5.5 min
Base peak: 137.0242
Precursor m/z: 179.035
Precursor type: [M-H]-
m/z	relative intensity	assigned
59.0138	333	C2H3O2-
93.0345	961	C6H5O-
94.038	6	CH6N2O3-
107.0503	7	C7H7O-
121.0296	7	C7H5O2-
137.0244	999	C7H5O3-
138.0278	8	C2H6N2O5-
