Mass spectrum: Oxolinic acid; LC-ESI-QFT; MS2; CE: 45; R=35000; [M+H]+
Name: Oxolinic acid
Name: 5-ethyl-8-oxo-[1,3]dioxolo[4,5-g]quinoline-7-carboxylic acid
Formula: C13H11NO5
Exact mass: 261.06372
SMILES: CCN1C=C(C(=O)C2=CC3=C(C=C21)OCO3)C(=O)O
InChI: InChI=1S/C13H11NO5/c1-2-14-5-8(13(16)17)12(15)7-3-10-11(4-9(7)14)19-6-18-10/h3-5H,2,6H2,1H3,(H,16,17)
Instrument: Q Exactive Plus Orbitrap Thermo Scientific
Instrument type: LC-ESI-QFT
Ms type: MS2
Ion mode: POSITIVE
Ionization: ESI
Fragmentation mode: HCD
Collision energy: 45 (nominal)
Resolution: 35000
Column name: XBridge C18 3.5um, 2.1x50mm, Waters
Retention time: 0.9 min
Base peak: 262.0705
Precursor m/z: 262.071
Precursor type: [M+H]+
m/z	relative intensity	assigned
118.0651	1	C8H8N+
146.06	2	C9H8NO+
148.0392	3	C8H6NO2+
158.0601	4	C10H8NO+
160.039	1	C9H6NO2+
172.0391	1	C10H6NO2+
176.0707	2	C10H10NO2+
186.0547	1	C11H8NO2+
188.0345	1	C10H6NO3+
188.0705	2	C11H10NO2+
200.0705	5	C12H10NO2+
201.0421	1	C11H7NO3+
215.0206	3	C11H5NO4+
216.0292	11	C11H6NO4+
216.0655	13	C12H10NO3+
229.0374	1	C12H7NO4+
234.0398	22	C11H8NO5+
244.0605	496	C13H10NO4+
262.0709	999	C13H12NO5+
