Mass spectrum: Imidacloprid; LC-ESI-ITFT; MS2; CE: 75%; R=7500; [M+H]+
Name: Imidacloprid
Name: N-[1-[(6-chloranylpyridin-3-yl)methyl]-4,5-dihydroimidazol-2-yl]nitramide
Formula: C9H10ClN5O2
Exact mass: 255.0523
SMILES: Cl-c(ncc1CN(CC2)C(N2)=NN(=O)=O)cc1
InChI: InChI=1S/C9H10ClN5O2/c10-8-2-1-7(5-12-8)6-14-4-3-11-9(14)13-15(16)17/h1-2,5H,3-4,6H2,(H,11,13)
Instrument: LTQ Orbitrap XL Thermo Scientific
Instrument type: LC-ESI-ITFT
Ms type: MS2
Ion mode: POSITIVE
Ionization: ESI
Fragmentation mode: HCD
Collision energy: 75 % (nominal)
Resolution: 7500
Column name: XBridge C18 3.5um, 2.1x50mm, Waters
Retention time: 4.8 min
Base peak: 256.0596
Precursor m/z: 256.0596
Precursor type: [M+H]+
m/z	relative intensity	assigned
56.0494	11	C3H6N+
65.0387	2	C5H5+
69.0449	4	C3H5N2+
71.0604	7	C3H7N2+
80.0497	5	C5H6N+
84.0556	136	C3H6N3+
90.0339	11	C6H4N+
92.0495	8	C6H6N+
93.0572	8	C6H7N+
97.0635	4	C4H7N3+
98.0712	12	C4H8N3+
98.9995	7	C5H4Cl+
99.0552	18	C4H7N2O+
104.0492	3	C7H6N+
105.0447	19	C6H5N2+
106.0651	29	C7H8N+
107.0602	28	C6H7N2+
108.0681	4	C6H8N2+
110.0602	5	C6H8NO+
113.0026	5	C5H4ClN+
114.0106	15	C5H5ClN+
117.0453	2	C7H5N2+
118.0524	3	C7H6N2+
119.0479	9	C6H5N3+
119.0604	25	C7H7N2+
120.0559	15	C6H6N3+
120.0681	4	C7H8N2+
121.0757	3	C7H9N2+
122.0711	7	C6H8N3+
123.0551	4	C6H7N2O+
126.0105	125	C6H5ClN+
127.0185	20	C6H6ClN+
128.0261	95	C6H7ClN+
131.0603	21	C8H7N2+
132.0555	16	C7H6N3+
132.0682	5	C8H8N2+
133.0634	48	C7H7N3+
133.0761	62	C8H9N2+
134.0712	41	C7H8N3+
135.0554	4	C7H7N2O+
135.0793	8	C7H9N3+
138.0103	5	C7H5ClN+
139.0056	11	C6H4ClN2+
139.0187	4	C7H6ClN+
140.0139	5	C6H5ClN2+
140.026	8	C7H7ClN+
141.0214	51	C6H6ClN2+
144.0207	7	C9H4O2+
144.9921	9	C5H4ClNO2+
145.051	4	C7H5N4+
146.0583	24	C7H6N4+
146.0712	132	C8H8N3+
147.0665	153	C7H7N4+
148.074	3	C7H8N4+
148.0869	69	C8H10N3+
151.0182	6	C8H6ClN+
153.0214	7	C7H6ClN2+
154.0164	4	C9H2N2O+
155.0376	5	C7H8ClN2+
157.0635	6	C9H7N3+
158.0712	69	C9H8N3+
159.066	15	C8H7N4+
159.0791	96	C9H9N3+
160.0747	3	C8H8N4+
160.0876	5	C9H10N3+
166.0168	14	C7H5ClN3+
167.0371	44	C8H8ClN2+
173.0822	183	C9H9N4+
174.09	158	C9H10N4+
175.0977	983	C9H11N4+
180.0325	11	C8H7ClN3+
181.0276	56	C7H6ClN4+
182.0478	2	C8H9ClN3+
191.0927	20	C9H11N4O+
194.0478	28	C9H9ClN3+
207.0426	5	C9H8ClN4+
208.051	25	C9H9ClN4+
209.0588	999	C9H10ClN4+
212.0585	4	C9H11ClN3O+
