Mass spectrum: MCLW; LC-ESI-QFT; MS2; CE: 45%; R=17500; [M+H]+
Name: MCLW
Name: Microcystin LW
Name: (5R,8S,11R,12S,15S,18S,19S,22R)-15-(1H-indol-3-ylmethyl)-18-[(1E,3E,5S,6S)-6-methoxy-3,5-dimethyl-7-phenylhepta-1,3-dienyl]-1,5,12,19-tetramethyl-2-methylidene-8-(2-methylpropyl)-3,6,9,13,16,20,25-heptaoxo-1,4,7,10,14,17,21-heptazacyclopentacosane-11,22-dicarboxylic acid
Class: NA
Formula: C54H72N8O12
Exact mass: 1024.5270
SMILES: CO[C@@H](Cc1ccccc1)[C@@H](C)/C=C(C)/C=C/[C@@H]2NC(=O)[C@H](Cc3c[nH]c4ccccc34)NC(=O)[C@@H](C)[C@@H](NC(=O)[C@H](CC(C)C)NC(=O)[C@@H](C)NC(=O)C(=C)N(C)C(=O)CC[C@@H](NC(=O)[C@H]2C)C(O)=O)C(O)=O
InChI: InChI=1S/C54H72N8O12/c1-29(2)24-42-52(69)61-46(54(72)73)33(6)48(65)59-43(27-37-28-55-40-19-15-14-18-38(37)40)51(68)57-39(21-20-30(3)25-31(4)44(74-10)26-36-16-12-11-13-17-36)32(5)47(64)58-41(53(70)71)22-23-45(63)62(9)35(8)50(67)56-34(7)49(66)60-42/h11-21,25,28-29,31-34,39,41-44,46,55H,8,22-24,26-27H2,1-7,9-10H3,(H,56,67)(H,57,68)(H,58,64)(H,59,65)(H,60,66)(H,61,69)(H,70,71)(H,72,73)/b21-20+,30-25+/t31-,32-,33-,34+,39-,41+,42-,43-,44-,46+/m0/s1
Instrument: Q Exactive Plus Orbitrap Thermo Scientific
Instrument type: LC-ESI-QFT
Ms type: MS2
Ion mode: POSITIVE
Ionization: ESI
Fragmentation mode: HCD
Collision energy: 45 % (nominal)
Resolution: 17500
Column name: XBridge C18 3.5um, 2.1x50mm, Waters
Retention time: 11.761 min
Base peak: 164.9846
Precursor m/z: 1025.5342
Precursor type: [M+H]+
m/z	relative intensity	assigned
79.0541	77	C6H7+
80.0494	7	C5H6N+
81.0699	8	C6H9+
82.0287	6	C4H4NO+
82.0651	52	C5H8N+
84.0444	320	C4H6NO+
84.0808	7	
86.0603	4	
86.0964	730	C5H12N+
91.0542	286	C7H7+
93.0699	140	C7H9+
94.0651	11	C6H8N+
95.0491	54	C6H7O+
95.0855	32	C7H11+
96.0807	12	C6H10N+
98.0599	4	C5H8NO+
99.0916	48	C5H11N2+
101.0709	6	C4H9N2O+
102.055	36	C4H8NO2+
103.0541	253	C8H7+
105.0447	19	C6H5N2+
105.0698	273	C8H9+
107.0855	999	C8H11+
108.0806	6	C7H10N+
109.0648	22	C7H9O+
109.1012	5	C8H13+
110.06	44	C6H8NO+
110.0961	8	C7H12N+
111.0554	28	C5H7N2O+
112.0394	8	C5H6NO2+
112.0757	9	C6H10NO+
113.0232	10	C5H5O3+
113.0709	9	C5H9N2O+
115.0542	41	C9H7+
117.0573	8	C8H7N+
117.0698	121	C9H9+
118.0651	11	C8H8N+
119.0606	6	C7H7N2+
119.0855	38	C9H11+
120.0568	4	C8H8O+
120.0809	11	C8H10N+
121.0649	11	C8H9O+
121.0759	12	C7H9N2+
121.1011	24	C9H13+
122.0602	5	C7H8NO+
122.0964	18	C8H12N+
123.0804	9	C8H11O+
123.0918	13	C7H11N2+
124.0757	49	C7H10NO+
124.112	65	C8H14N+
125.0707	11	C6H9N2O+
126.0551	12	C6H8NO2+
127.0865	894	C6H11N2O+
128.0616	14	C10H8+
128.0706	26	C6H10NO2+
129.0697	24	C10H9+
130.0501	42	C5H8NO3+
130.065	130	C9H8N+
131.0854	90	C10H11+
131.1177	8	C6H15N2O+
132.0807	152	C9H10N+
133.0649	8	C9H9O+
133.1011	52	C10H13+
134.0963	5	C9H12N+
135.0803	945	C9H11O+
135.1167	772	C10H15+
136.0753	11	C8H10NO+
138.0549	207	C7H8NO2+
139.0863	11	C7H11N2O+
140.0703	20	C7H10NO2+
141.1021	6	C7H13N2O+
143.0856	62	C11H11+
144.0805	35	C10H10N+
145.0759	12	C9H9N2+
145.1012	66	C11H13+
146.0597	9	C9H8NO+
146.0965	43	C10H12N+
146.1089	19	C11H14+
147.0786	8	C8H9N3+
147.1168	3	C11H15+
149.071	50	C8H9N2O+
150.0542	4	C6H6N4O+
150.091	6	C9H12NO+
150.1281	11	C10H16N+
151.0863	15	C8H11N2O+
152.0707	16	C8H10NO2+
152.107	7	C9H14NO+
153.0662	6	C7H9N2O2+
154.0662	3	C11H8N+
155.0814	509	C7H11N2O2+
157.0607	253	C6H9N2O3+
157.101	8	
157.1335	87	C8H17N2O+
158.0839	80	C10H10N2+
158.0959	9	C11H12N+
159.0916	634	C10H11N2+
159.1171	28	
160.0756	12	C10H10NO+
161.0959	50	C11H13O+
161.1322	10	C12H17+
162.1277	36	C11H16N+
163.1117	428	C11H15O+
164.1062	4	C8H12N4+
167.0815	265	C8H11N2O2+
168.0654	19	C8H10NO3+
168.0808	13	C12H10N+
169.076	101	C11H9N2+
169.0992	16	
169.1326	3	
170.0599	34	C11H8NO+
170.0815	11	C8H12NO3+
170.0959	6	C12H12N+
171.0795	12	C10H9N3+
171.0924	7	C11H11N2+
171.1166	16	C13H15+
171.149	7	C9H19N2O+
173.0962	37	C12H13O+
176.1072	10	C11H14NO+
178.1224	10	C11H16NO+
178.1358	5	C12H18O+
179.0838	8	C14H11+
181.1011	31	C14H13+
181.1339	41	C10H17N2O+
182.0817	10	C9H12NO3+
182.0962	7	C13H12N+
185.071	46	C11H9N2O+
185.0929	5	C8H13N2O3+
185.1072	37	C12H13N2+
186.0908	6	C12H12NO+
187.0867	151	C11H11N2O+
187.1113	22	C13H15O+
188.0709	37	C11H10NO2+
188.1072	14	C12H14NO+
188.143	18	C13H18N+
190.123	21	C12H16NO+
190.159	10	C13H20N+
193.0981	20	C10H13N2O2+
194.1096	4	CH16N5O6+
194.1652	13	C11H20N3+
195.0765	180	C9H11N2O3+
195.1163	39	H21NO10+
196.0607	40	C9H10NO4+
197.1074	27	C13H13N2+
197.1292	14	C10H17N2O2+
198.091	10	C13H12NO+
200.144	8	H20N6O6+
204.1375	7	C11H16N4+
205.0976	20	C11H13N2O2+
207.1167	11	C16H15+
209.1087	7	C2H17N4O7+
209.1301	78	H17N8O5+
211.0715	12	C9H11N2O4+
213.0872	695	C9H13N2O4+
214.0713	10	C9H12NO5+
215.0824	42	C12H11N2O2+
215.1179	9	C13H15N2O+
218.1542	82	H22N6O7+
220.1089	12	C13H16O3+
221.0924	9	C11H13N2O3+
222.1602	11	C12H20N3O+
225.1033	33	CH21O12+
226.1592	98	C16H20N+
227.1191	6	CH23O12+
227.1548	21	CH21N7O6+
228.1383	10	C15H18NO+
231.0767	14	C12H11N2O3+
234.1271	5	C2H22N2O10+
235.0874	38	C2H19O12+
235.1479	4	C18H19+
237.1018	10	H19N3O11+
237.1242	20	C12H17N2O3+
237.1637	70	C18H21+
239.0663	66	C10H11N2O5+
239.1028	14	C11H15N2O4+
242.1296	17	CH24NO12+
243.1126	40	C14H15N2O2+
243.1349	32	C12H15N6+
244.1119	13	C18H14N+
246.149	65	C15H20NO2+
247.149	10	C5H21N5O6+
248.1428	6	C3H24N2O10+
250.1554	9	C13H20N3O2+
253.0967	38	H19N3O12+
255.113	6	C15H15N2O2+
258.1861	13	C3H26N6O7+
259.1802	10	C16H23N2O+
265.1586	25	C19H21O+
267.097	4	C12H15N2O5+
268.1665	17	C15H24O4+
270.1237	125	C15H16N3O2+
271.108	78	CH17N7O9+
281.0927	7	C2H15N7O9+
282.1853	10	C19H24NO+
288.1345	236	C15H18N3O3+
293.1139	19	H19N7O11+
298.119	56	C2H18N8O9+
298.191	23	C18H24N3O+
299.1026	54	C16H15N2O4+
316.1291	19	C16H18N3O4+
320.2009	8	C22H26NO+
329.1858	13	C19H25N2O3+
347.1954	17	C17H25N5O3+
375.1906	27	C18H25N5O4+
384.2275	15	C20H28N6O2+
