Mass spectrum: Chlordiazepoxide; LC-ESI-QFT; MS2; CE: 15; R=35000; [M-H]-
Name: Chlordiazepoxide
Name: Zetran
Name: 7-chloro-4-hydroxy-N-methyl-5-phenyl-3H-1,4-benzodiazepin-2-imine
Formula: C16H14ClN3O
Exact mass: 299.08254
SMILES: CN=C1CN(C(=C2C=C(C=CC2=N1)Cl)C3=CC=CC=C3)O
InChI: InChI=1S/C16H14ClN3O/c1-18-15-10-20(21)16(11-5-3-2-4-6-11)13-9-12(17)7-8-14(13)19-15/h2-9,21H,10H2,1H3
Instrument: Q Exactive Plus Orbitrap Thermo Scientific
Instrument type: LC-ESI-QFT
Ms type: MS2
Ion mode: NEGATIVE
Ionization: ESI
Fragmentation mode: HCD
Collision energy: 15 (nominal)
Resolution: 35000
Column name: XBridge C18 3.5um, 2.1x50mm, Waters
Retention time: 6.2 min
Base peak: 298.0748
Precursor m/z: 298.0753
Precursor type: [M-H]-
m/z	relative intensity	assigned
135.9959	1	C7H3ClN-
193.0176	2	C9H6ClN2O-
211.0277	1	C9H8ClN2O2-
241.0312	1	C14H8ClNO-
253.0534	9	C15H10ClN2-
254.0615	774	C15H11ClN2-
255.0325	1	C14H8ClN2O-
255.0694	1	C15H12ClN2-
270.0565	1	C15H11ClN2O-
298.075	999	C16H13ClN3O-
