Mass spectrum: Fipronil-TP RPA 200761; LC-ESI-QFT; MS2; CE: 30%; R=17500; [M+H]+
Name: Fipronil-TP RPA 200761
Name: 5-amino-1-[2,6-dichloro-4-(trifluoromethyl)phenyl]-4-(trifluoromethylsulfinyl)pyrazole-3-carboxylic acid
Formula: C12H5Cl2F6N3O3S
Exact mass: 454.9333
SMILES: NC1=C(C(=NN1C1=C(Cl)C=C(C=C1Cl)C(F)(F)F)C(O)=O)S(=O)C(F)(F)F
InChI: InChI=1S/C12H5Cl2F6N3O3S/c13-4-1-3(11(15,16)17)2-5(14)7(4)23-9(21)8(6(22-23)10(24)25)27(26)12(18,19)20/h1-2H,21H2,(H,24,25)
Instrument: Q Exactive Plus Orbitrap Thermo Scientific
Instrument type: LC-ESI-QFT
Ms type: MS2
Ion mode: POSITIVE
Ionization: ESI
Fragmentation mode: HCD
Collision energy: 30 % (nominal)
Resolution: 17500
Column name: XBridge C18 3.5um, 2.1x50mm, Waters
Retention time: 8.085 min
Base peak: 455.9408
Precursor m/z: 455.9406
Precursor type: [M+H]+
m/z	relative intensity	assigned
67.0143	2	
67.0178	14	C4H3O+
69.9922	3	C2NO2+
127.9777	8	CH4Cl2N3+
139.9782	1	C2H2ClFN2O2+
154.9884	8	C3H2F3N2S+
198.9777	10	C4H4ClF2N3S+
223.9779	2	C6H6Cl2F4+
239.9589	9	C8H3Cl2F3N+
253.961	2	C8H5ClF2O3S+
254.9696	117	C9HF6S+
258.0038	84	C10H4ClF3N3+
262.9656	4	C11HClFN2O3+
264.9792	7	C6H5Cl2F4N3+
280.976	4	C9H5ClF3N2OS+
284.9389	4	C3H3Cl2F6NO3+
289.9759	346	C9H6Cl2F4NO+
292.9728	79	C11HF6NS+
301.9936	3	C11H4ClF3N3O2+
307.9864	13	C10H6ClF3N3OS+
310.9617	1	C10H5ClF3NO3S+
325.9538	2	C7H6Cl2F4N3OS+
326.938	2	C7H5Cl2F4N2O2S+
333.9659	6	C11H4ClF3N3O2S+
340.9401	2	C10H4Cl2F3N3OS+
342.9555	54	C10H6Cl2F3N3OS+
358.9728	3	C11H4ClF6N3S+
368.9348	999	C11H4Cl2F3N3O2S+
369.9427	1	C11H5Cl2F3N3O2S+
386.9451	65	C11H6Cl2F3N3O3S+
437.9298	56	C12H4Cl2F6N3O2S+
