Mass spectrum: N-Nitrosodiethylamine (NDEA); LC-ESI-QFT; MS2; CE: 60; R=70000; [M+H]+
Name: N-Nitrosodiethylamine (NDEA)
Name: N,N-diethylnitrous amide
Formula: C4H10N2O
Exact mass: 102.07931
SMILES: O=NN(CC)CC
InChI: InChI=1S/C4H10N2O/c1-3-6(4-2)5-7/h3-4H2,1-2H3
Instrument: Q Exactive Plus Orbitrap Thermo Scientific
Instrument type: LC-ESI-QFT
Ms type: MS2
Ion mode: POSITIVE
Ionization: ESI
Fragmentation mode: HCD
Collision energy: 60 (nominal)
Resolution: 70000
Column name: XBridge C18 3.5um, 2.1x50mm, Waters
Retention time: 3.7 min
Base peak: 103.0866
Precursor m/z: 103.0866
Precursor type: [M+H]+
m/z	relative intensity	assigned
57.0448	11	C2H5N2+
75.0553	999	C2H7N2O+
103.0866	918	C4H11N2O+
