Mass spectrum: Monolinuron; LC-ESI-QFT; MS2; CE: 15; R=35000; [M+H]+
Name: Monolinuron
Name: 3-(4-chlorophenyl)-1-methoxy-1-methyl-urea
Formula: C9H11ClN2O2
Exact mass: 214.05091
SMILES: Clc1ccc(NC(=O)N(OC)C)cc1
InChI: InChI=1S/C9H11ClN2O2/c1-12(14-2)9(13)11-8-5-3-7(10)4-6-8/h3-6H,1-2H3,(H,11,13)
Instrument: Q Exactive Orbitrap Thermo Scientific
Instrument type: LC-ESI-QFT
Ms type: MS2
Ion mode: POSITIVE
Ionization: ESI
Fragmentation mode: HCD
Collision energy: 15 (nominal)
Resolution: 35000
Column name: XBridge C18 3.5um, 2.1x50mm, Waters
Retention time: 8.0 min
Base peak: 215.0581
Precursor m/z: 215.0582
Precursor type: [M+H]+
m/z	relative intensity	assigned
60.0445	59	C2H6NO+
62.0601	209	C2H8NO+
72.9836	1	C3H2Cl+
88.0391	43	C3H6NO2+
98.9994	11	C5H4Cl+
106.0498	4	C3H8NO3+
119.0602	2	C7H7N2+
126.0103	708	C6H5ClN+
127.018	70	C9H3O+
141.0337	1	C7H8ClN+
147.055	4	C8H7N2O+
148.0628	628	C8H8N2O+
154.0052	25	C7H5ClNO+
155.0368	4	C7H8ClN2+
158.0365	2	C7H9ClNO+
168.0083	1	C7H5ClN2O+
183.0318	48	C8H8ClN2O+
184.0396	60	C8H9ClN2O+
215.0579	999	C9H12ClN2O2+
