Mass spectrum: 2-(Methylsulfanyl)-1,3-benzothiazole; LC-ESI-QFT; MS2; CE: 120; R=35000; [M+H]+
Name: 2-(Methylsulfanyl)-1,3-benzothiazole
Name: 2-(Methylthio)benzothiazole (2-Me-S-Benzothiazole)
Name: 2-Methylmercaptobenzothiazole
Formula: C8H7NS2
Exact mass: 181.00199
SMILES: CSC1=NC2=CC=CC=C2S1
InChI: InChI=1S/C8H7NS2/c1-10-8-9-6-4-2-3-5-7(6)11-8/h2-5H,1H3
Instrument: Q Exactive Plus Orbitrap Thermo Scientific
Instrument type: LC-ESI-QFT
Ms type: MS2
Ion mode: POSITIVE
Ionization: ESI
Fragmentation mode: HCD
Collision energy: 120 (nominal)
Resolution: 35000
Column name: XBridge C18 3.5um, 2.1x50mm, Waters
Retention time: 10.0 min
Base peak: 182.0086
Precursor m/z: 182.0093
Precursor type: [M+H]+
m/z	relative intensity	assigned
50.0149	4	C4H2+
51.0228	1	C4H3+
52.0181	1	C3H2N+
52.0307	1	C4H4+
53.0385	6	C4H5+
54.0463	8	C4H6+
57.9871	11	C2H2S+
63.0228	39	C5H3+
63.9435	226	S2+
64.0307	67	C5H4+
65.0385	337	C5H5+
66.0463	17	C5H6+
68.9792	52	C3HS+
69.9871	14	C3H2S+
70.9949	8	C3H3S+
72.0027	3	C3H4S+
76.0306	11	C6H4+
77.0384	11	C6H5+
78.9669	3	CH3S2+
79.0415	12	C5H5N+
81.0333	2	C5H5O+
81.987	28	C4H2S+
82.9948	4	C4H3S+
84.0027	38	C4H4S+
90.0337	8	C6H4N+
91.0415	407	C6H5N+
92.0369	2	C5H4N2+
92.9792	3	C5HS+
94.0412	4	C6H6O+
94.9949	11	C5H3S+
95.049	18	C6H7O+
96.0027	287	C5H4S+
97.0105	3	C5H5S+
98.0058	1	C4H4NS+
101.9465	9	C2NS2+
103.0415	108	C7H5N+
105.0446	14	C6H5N2+
106.9949	3	C6H3S+
108.0027	147	C6H4S+
109.0105	876	C6H5S+
109.0521	59	C6H7NO+
110.0058	1	C5H4NS+
111.0261	3	C6H7S+
121.0108	2	C7H5S+
122.0057	42	C6H4NS+
123.0135	748	C6H5NS+
127.0211	3	C6H7OS+
127.9925	17	
134.0057	20	C7H4NS+
135.0135	358	C7H5NS+
136.0215	5	C7H6NS+
137.0166	4	C6H5N2S+
138.9668	5	C6H3S2+
139.9747	164	C6H4S2+
140.9699	16	C5H3NS2+
152.0163	1	C7H6NOS+
165.9778	31	C7H4NS2+
166.9856	999	C7H5NS2+
182.0091	4	C8H8NS2+
