Mass spectrum: Clarithromycin N-Oxide; LC-ESI-QFT; MS2; CE: 75; R=35000; [M+H]+
Name: Clarithromycin N-Oxide
Name: (2S,3R,4S,6R)-2-[[(3R,4S,5S,6R,7R,9R,11R,12R,13S,14R)-14-ethyl-12,13-dihydroxy-4-[(2R,4R,5S,6S)-5-hydroxy-4-methoxy-4,6-dimethyloxan-2-yl]oxy-7-methoxy-3,5,7,9,11,13-hexamethyl-2,10-dioxo-oxacyclotetradec-6-yl]oxy]-3-hydroxy-N,N,6-trimethyloxan-4-amine oxide
Formula: C38H69NO14
Exact mass: 763.47181
SMILES: [O-][N+](C)(C)[C@H]3C[C@@H](C)O[C@@H](O[C@@H]2[C@@H](C)[C@H](O[C@H]1C[C@@](C)(OC)[C@@H](O)[C@H](C)O1)[C@@H](C)C(=O)O[C@H](CC)[C@@](C)(O)[C@H](O)[C@@H](C)C(=O)[C@H](C)C[C@@]2(C)OC)[C@@H]3O
InChI: InChI=1S/C38H69NO14/c1-15-26-38(10,45)31(42)21(4)28(40)19(2)17-37(9,48-14)33(53-35-29(41)25(39(11,12)46)16-20(3)49-35)22(5)30(23(6)34(44)51-26)52-27-18-36(8,47-13)32(43)24(7)50-27/h19-27,29-33,35,41-43,45H,15-18H2,1-14H3/t19-,20-,21+,22+,23-,24+,25+,26-,27+,29-,30+,31-,32+,33-,35+,36-,37-,38-/m1/s1
Instrument: Q Exactive Plus Orbitrap Thermo Scientific
Instrument type: LC-ESI-QFT
Ms type: MS2
Ion mode: POSITIVE
Ionization: ESI
Fragmentation mode: HCD
Collision energy: 75 (nominal)
Resolution: 35000
Column name: XBridge C18 3.5um, 2.1x50mm, Waters
Retention time: 9.7 min
Base peak: 764.4783
Precursor m/z: 764.4791
Precursor type: [M+H]+
m/z	relative intensity	assigned
53.9975	2	C2NO+
55.0178	13	C3H3O+
55.0542	196	C4H7+
56.0495	16	C3H6N+
57.0335	82	C3H5O+
57.0699	42	C4H9+
58.0651	49	C3H8N+
59.0491	19	C3H7O+
60.0444	10	C2H6NO+
62.06	15	C2H8NO+
65.0386	44	C5H5+
67.0542	375	C5H7+
67.9893	1	C3O2+
68.0495	4	C4H6N+
69.0335	73	C4H5O+
69.0699	214	C5H9+
70.0651	80	C4H8N+
71.0491	26	C4H7O+
71.0729	12	C4H9N+
71.0856	3	C5H11+
72.0444	25	C3H6NO+
72.0807	41	C4H10N+
73.0284	4	C3H5O2+
73.0522	3	C3H7NO+
73.0648	13	C4H9O+
74.0599	6	C3H8NO+
75.0441	1	C3H7O2+
77.0384	6	C6H5+
79.0542	109	C6H7+
80.062	1	C6H8+
81.0699	147	C6H9+
82.0651	8	C5H8N+
83.0491	522	C5H7O+
84.0808	100	C5H10N+
85.0284	43	C4H5O2+
85.0648	39	C5H9O+
86.06	29	C4H8NO+
87.0441	7	C4H7O2+
87.0679	6	C4H9NO+
87.0805	1	C5H11O+
88.0757	34	C4H10NO+
91.0542	101	C7H7+
93.0699	104	C7H9+
95.0492	108	C6H7O+
95.0855	150	C7H11+
97.0284	6	C5H5O2+
97.0648	89	C6H9O+
98.0602	4	C5H8NO+
98.0964	40	C6H12N+
99.0442	1	C5H7O2+
99.0804	11	C6H11O+
99.1043	2	C6H13N+
100.0757	3	C5H10NO+
100.1121	34	C6H14N+
101.0234	1	C4H5O3+
101.0597	9	C5H9O2+
102.0914	3	C5H12NO+
103.0542	16	C8H7+
104.062	1	C8H8+
105.0448	10	C6H5N2+
105.0699	166	C8H9+
106.0777	5	C8H10+
107.0492	6	C7H7O+
107.0855	101	C8H11+
108.0569	8	C7H8O+
108.0934	1	C8H12+
109.0648	169	C7H9O+
109.1012	140	C8H13+
110.0725	1	C7H10O+
111.044	15	C6H7O2+
111.0804	23	C7H11O+
113.0597	45	C6H9O2+
113.096	8	C7H13O+
114.0913	11	C6H12NO+
115.0542	4	C9H7+
115.0753	3	C6H11O2+
116.0707	2	C5H10NO2+
116.107	2	C6H14NO+
117.0698	20	C9H9+
119.0856	138	C9H11+
120.0935	2	C9H12+
121.0648	12	C8H9O+
121.1012	198	C9H13+
122.0726	15	C8H10O+
123.0804	999	C8H11O+
124.0883	3	C8H12O+
125.0597	14	C7H9O2+
125.0961	48	C8H13O+
127.0754	8	C7H11O2+
127.1117	2	C8H15O+
128.0619	4	C10H8+
128.107	9	C7H14NO+
129.0698	11	C10H9+
130.0778	3	C10H10+
131.0855	23	C10H11+
132.0656	11	C5H10NO3+
133.0648	4	C9H9O+
133.076	11	C8H9N2+
133.1012	33	C10H13+
134.109	1	C10H14+
135.0804	26	C9H11O+
135.1168	14	C10H15+
136.0883	10	C9H12O+
137.0961	120	C9H13O+
139.0753	7	C8H11O2+
139.1117	8	C9H15O+
140.1069	5	C8H14NO+
142.0777	11	C11H10+
143.0856	9	C11H11+
144.0934	16	C11H12+
145.0648	3	C10H9O+
145.1011	25	C11H13+
146.0727	1	C10H10O+
147.0804	13	C10H11O+
147.1168	40	C11H15+
149.0962	15	C10H13O+
149.1326	11	C11H17+
150.1039	1	C10H14O+
151.0754	13	C9H11O2+
151.1117	14	C10H15O+
152.0832	3	C9H12O2+
153.091	5	C9H13O2+
155.0856	4	C12H11+
155.1065	1	C9H15O2+
156.0935	6	C12H12+
157.1012	23	C12H13+
158.1089	7	C12H14+
159.0805	4	C11H11O+
159.1168	26	C12H15+
160.0883	6	C11H12O+
161.0961	9	C11H13O+
161.1327	2	C12H17+
162.1041	1	C11H14O+
163.0751	3	C10H11O2+
163.1117	25	C11H15O+
164.1197	6	C11H16O+
165.0911	12	C10H13O2+
165.1275	10	C11H17O+
168.0935	1	C13H12+
169.1011	3	C13H13+
170.1092	7	C13H14+
171.1169	5	C13H15+
172.0882	2	C12H12O+
172.1246	8	C13H16+
173.0959	3	C12H13O+
173.1323	7	C13H17+
174.104	2	C12H14O+
174.1121	1	C8H16NO3+
175.1118	17	C12H15O+
176.1197	1	C12H16O+
177.1274	13	C12H17O+
179.1066	4	C11H15O2+
181.0855	1	C10H13O3+
181.101	1	C14H13+
183.117	1	C14H15+
185.1326	3	C14H17+
186.1036	1	C13H14O+
187.1119	3	C13H15O+
187.148	3	C14H19+
188.1194	1	C13H16O+
189.1273	3	C13H17O+
193.1222	4	C12H17O2+
195.1168	3	C15H15+
197.1325	1	C15H17+
201.1272	3	C14H17O+
203.1429	1	C14H19O+
213.1271	1	C15H17O+
215.1429	1	C15H19O+
