Mass spectrum: Fluensulfone; LC-ESI-QFT; MS2; CE: 30%; R=17500; [M+H]+
Name: Fluensulfone
Name: 5-chloro-2-(3,4,4-trifluorobut-3-enylsulfonyl)-1,3-thiazole
Formula: C7H5ClF3NO2S2
Exact mass: 290.9402
SMILES: C1=C(SC(=N1)S(=O)(=O)CCC(=C(F)F)F)Cl
InChI: InChI=1S/C7H5ClF3NO2S2/c8-5-3-12-7(15-5)16(13,14)2-1-4(9)6(10)11/h3H,1-2H2
Instrument: Exploris 240 Orbitrap Thermo Scientific
Instrument type: LC-ESI-QFT
Ms type: MS2
Ion mode: POSITIVE
Ionization: ESI
Fragmentation mode: HCD
Collision energy: 30 % (nominal)
Resolution: 17500
Column name: XBridge C18 3.5um, 2.1x50mm, Waters
Retention time: 6.848 min
Base peak: 326.0275
Precursor m/z: 291.9475
Precursor type: [M+H]+
m/z	relative intensity	assigned
65.0196	46	C2H3F2+
89.0197	165	C4H3F2+
109.0258	640	C4H4F3+
119.9667	141	C3H3ClNS+
132.9744	55	C7HOS+
165.9181	961	C3HClNOS2+
187.973	78	C7H4ClFNS+
227.9852	112	C7H6ClF3NS+
291.9472	999	C7H6ClF3NO2S2+
