Mass spectrum: ortho-Chlorophenylpiperazine; LC-ESI-QFT; MS2; CE: 90; R=35000; [M+H]+
Name: ortho-Chlorophenylpiperazine
Name: 1-(2-Chlorophenyl)piperazine
Name: 1-(2-chlorophenyl)piperazine
Formula: C10H13ClN2
Exact mass: 196.07673
SMILES: c1ccc(c(c1)N2CCNCC2)Cl
InChI: InChI=1S/C10H13ClN2/c11-9-3-1-2-4-10(9)13-7-5-12-6-8-13/h1-4,12H,5-8H2
Instrument: Q Exactive Plus Orbitrap Thermo Scientific
Instrument type: LC-ESI-QFT
Ms type: MS2
Ion mode: POSITIVE
Ionization: ESI
Fragmentation mode: HCD
Collision energy: 90 (nominal)
Resolution: 35000
Column name: XBridge C18 3.5um, 2.1x50mm, Waters
Retention time: 4.9 min
Base peak: 197.0839
Precursor m/z: 197.084
Precursor type: [M+H]+
m/z	relative intensity	assigned
50.015	3	C4H2+
51.0228	2	C4H3+
53.0386	8	C4H5+
56.0495	20	C3H6N+
58.0651	7	C3H8N+
65.0386	11	C5H5+
68.0494	4	C4H6N+
70.0651	37	C4H8N+
77.0385	20	C6H5+
86.9995	1	C4H4Cl+
90.0339	2	C6H4N+
90.0464	1	C7H6+
91.0542	168	C7H7+
92.0494	4	C6H6N+
92.062	53	C7H8+
93.0573	7	C6H7N+
95.0491	32	C6H7O+
98.9996	13	C5H4Cl+
102.0464	3	C8H6+
104.0494	28	C7H6N+
105.0447	17	C6H5N2+
105.0573	4	C7H7N+
106.0651	1	C7H8N+
112.0074	8	C6H5Cl+
113.0152	1	C6H6Cl+
116.0496	1	C8H6N+
117.0573	61	C8H7N+
118.0651	999	C8H8N+
119.0729	538	C8H9N+
120.0807	27	C8H10N+
125.0152	1	C7H6Cl+
126.0105	21	C6H5ClN+
127.0183	35	C6H6ClN+
128.0261	6	C6H7ClN+
129.0102	2	C6H6ClO+
130.065	2	C9H8N+
132.0683	1	C8H8N2+
132.0809	1	C9H10N+
138.0105	23	C7H5ClN+
139.0057	7	C6H4ClN2+
140.0261	85	C7H7ClN+
152.0261	2	C8H7ClN+
154.0418	335	C8H9ClN+
166.0418	7	C9H9ClN+
167.0373	2	C8H8ClN2+
195.0681	2	C10H12ClN2+
197.084	2	C10H14ClN2+
