Mass spectrum: Atrazine-desethyl-2-hydroxy; LC-ESI-ITFT; MS2; CE: 45%; R=7500; [M+H]+
Name: Atrazine-desethyl-2-hydroxy
Name: 2-amino-6-(isopropylamino)-1H-s-triazin-4-one
Name: Prometon-Hydroxy-Desisopropyl
Formula: C6H11N5O
Exact mass: 169.0964
SMILES: n(c(nc1NC(C)C)O)c(n1)N
InChI: InChI=1S/C6H11N5O/c1-3(2)8-5-9-4(7)10-6(12)11-5/h3H,1-2H3,(H4,7,8,9,10,11,12)
Instrument: LTQ Orbitrap XL Thermo Scientific
Instrument type: LC-ESI-ITFT
Ms type: MS2
Ion mode: POSITIVE
Ionization: ESI
Fragmentation mode: HCD
Collision energy: 45 % (nominal)
Resolution: 7500
Column name: XBridge C18 3.5um, 2.1x50mm, Waters
Retention time: 1.4 min
Base peak: 170.1037
Precursor m/z: 170.1036
Precursor type: [M+H]+
m/z	relative intensity	assigned
69.0084	4	C2HN2O+
85.0509	3	C2H5N4+
86.035	77	C2H4N3O+
128.0568	862	C3H6N5O+
170.1037	999	C6H12N5O+
