Mass spectrum: Codeine; LC-ESI-ITFT; MS2; CE: 75%; R=7500; [M+H]+
Name: Codeine
Name: (5,6)-3-Methoxy-17-methyl-7,8-didehydro-4,5-epoxymorphinan-6-ol
Name: Methylmorphine
Formula: C18H21NO3
Exact mass: 299.1521
SMILES: CN1CC[C@]23[C@@H]4[C@H]1CC5=C2C(=C(C=C5)OC)O[C@H]3[C@H](C=C4)O
InChI: InChI=1S/C18H21NO3/c1-19-8-7-18-11-4-5-13(20)17(18)22-16-14(21-2)6-3-10(15(16)18)9-12(11)19/h3-6,11-13,17,20H,7-9H2,1-2H3/t11-,12+,13-,17-,18-/m0/s1
Instrument: LTQ Orbitrap XL Thermo Scientific
Instrument type: LC-ESI-ITFT
Ms type: MS2
Ion mode: POSITIVE
Ionization: ESI
Fragmentation mode: HCD
Collision energy: 75 % (nominal)
Resolution: 7500
Column name: XBridge C18 3.5um, 2.1x50mm, Waters
Retention time: 2.8 min
Base peak: 300.1595
Precursor m/z: 300.1594
Precursor type: [M+H]+
m/z	relative intensity	assigned
57.0333	16	C3H5O+
58.0651	148	C3H8N+
67.0541	13	C5H7+
69.0336	30	C4H5O+
71.0493	10	C4H7O+
79.0543	28	C6H7+
81.0335	24	C5H5O+
83.0491	24	C5H7O+
91.0542	51	C7H7+
93.0698	19	C7H9+
95.0491	18	C6H7O+
103.0544	41	C8H7+
105.0695	23	C8H9+
107.0488	10	C7H7O+
115.054	77	C9H7+
117.0695	16	C9H9+
121.0648	66	C8H9O+
122.0364	12	C7H6O2+
128.0621	90	C10H8+
129.0699	79	C10H9+
131.0492	27	C9H7O+
131.0853	19	C10H11+
132.0806	9	C9H10N+
137.0597	186	C8H9O2+
141.0698	237	C11H9+
142.0782	29	C11H10+
143.0494	30	C10H7O+
143.0861	21	C11H11+
144.0569	232	C10H8O+
145.0646	45	C10H9O+
146.0605	9	C9H8NO+
146.0728	14	C10H10O+
147.0801	19	C10H11O+
152.0618	85	C12H8+
153.0698	656	C12H9+
154.0778	128	C12H10+
155.0494	57	C11H7O+
155.0601	33	C10H7N2+
155.0855	598	C12H11+
156.057	152	C11H8O+
157.0646	78	C11H9O+
158.0724	164	C11H10O+
159.0439	46	C10H7O2+
159.0803	245	C11H11O+
160.0757	24	C10H10NO+
161.0596	437	C10H9O2+
162.0918	9	C10H12NO+
163.0752	12	C10H11O2+
164.0712	13	C9H10NO2+
165.0699	999	C13H9+
166.0779	131	C13H10+
167.0856	100	C13H11+
168.057	207	C12H8O+
169.0649	93	C12H9O+
169.1009	16	C13H13+
170.0726	98	C12H10O+
171.0439	49	C11H7O2+
171.0804	636	C12H11O+
172.0519	97	C11H8O2+
172.0884	132	C12H12O+
173.0594	29	C11H9O2+
173.0965	51	C12H13O+
174.0674	93	C11H10O2+
175.0752	90	C11H11O2+
177.0701	40	C14H9+
178.0776	92	C14H10+
179.0857	105	C14H11+
180.0566	54	C13H8O+
181.0648	777	C13H9O+
182.0726	267	C13H10O+
183.0434	75	C12H7O2+
183.0804	487	C13H11O+
184.0517	89	C12H8O2+
184.0882	55	C13H12O+
185.0596	284	C12H9O2+
185.0963	96	C13H13O+
186.0676	141	C12H10O2+
187.0754	244	C12H11O2+
187.1118	88	C13H15O+
189.0702	21	C15H9+
190.0777	59	C15H10+
191.0855	167	C15H11+
193.0656	252	C14H9O+
193.101	36	C15H13+
194.0726	326	C14H10O+
195.0804	122	C14H11O+
196.0525	14	C13H8O2+
196.0876	19	C14H12O+
197.0596	143	C13H9O2+
197.096	107	C14H13O+
198.0675	317	C13H10O2+
199.0753	866	C13H11O2+
200.0829	170	C13H12O2+
201.0555	21	C12H9O3+
201.0903	52	C13H13O2+
202.0779	18	C16H10+
203.0857	16	C16H11+
205.0645	41	C15H9O+
207.0801	55	C15H11O+
208.0517	38	C14H8O2+
208.0883	57	C15H12O+
209.0596	225	C14H9O2+
209.0963	55	C15H13O+
210.0675	214	C14H10O2+
210.1036	12	C15H14O+
211.0753	142	C14H11O2+
212.0828	160	C14H12O2+
213.0542	20	C13H9O3+
213.0909	227	C14H13O2+
215.1064	392	C14H15O2+
216.1009	11	C13H14NO2+
218.0719	30	C16H10O+
219.0804	82	C16H11O+
220.0876	51	C16H12O+
220.1115	38	C16H14N+
221.0598	61	C15H9O2+
221.096	43	C16H13O+
222.128	15	C16H16N+
223.0753	228	C15H11O2+
224.0831	33	C15H12O2+
225.0908	360	C15H13O2+
226.0626	42	C14H10O3+
226.099	17	C15H14O2+
227.0698	20	C14H11O3+
228.0784	18	C14H12O3+
228.1022	18	C14H14NO2+
235.0759	32	C16H11O2+
236.0831	60	C16H12O2+
237.0911	17	C16H13O2+
238.0983	24	C16H14O2+
239.0704	15	C15H11O3+
239.1066	18	C16H15O2+
241.0859	321	C15H13O3+
241.1224	17	C16H17O2+
243.1018	112	C15H15O3+
250.1226	34	C17H16NO+
252.102	27	C16H14NO2+
266.1175	100	C17H16NO2+
267.1252	26	C17H17NO2+
282.1477	26	C18H20NO2+
