Mass spectrum: Paracetamol; LC-ESI-ITFT; MS2; CE: 60%; R=7500; [M+H]+
Name: Paracetamol
Name: Acetaminophen
Name: N-(4-hydroxyphenyl)acetamide
Formula: C8H9NO2
Exact mass: 151.0633
SMILES: CC(=O)NC1=CC=C(O)C=C1
InChI: InChI=1S/C8H9NO2/c1-6(10)9-7-2-4-8(11)5-3-7/h2-5,11H,1H3,(H,9,10)
Instrument: LTQ Orbitrap XL Thermo Scientific
Instrument type: LC-ESI-ITFT
Ms type: MS2
Ion mode: POSITIVE
Ionization: ESI
Fragmentation mode: HCD
Collision energy: 60 % (nominal)
Resolution: 7500
Column name: XBridge C18 3.5um, 2.1x50mm, Waters
Retention time: 2.2 min
Base peak: 152.0707
Precursor m/z: 152.0706
Precursor type: [M+H]+
m/z	relative intensity	assigned
65.0386	30	C5H5+
82.0651	9	C5H8N+
92.0495	31	C6H6N+
93.0335	29	C6H5O+
110.0601	999	C6H8NO+
111.0441	10	C6H7O2+
134.0599	27	C8H8NO+
152.0706	385	C8H10NO2+
