Mass spectrum: Mephedrone; LC-ESI-ITFT; MS2; CE: 35%; R=30000; [M+H]+
Name: Mephedrone
Name: 2-(Methylamino)-1-(4-methylphenyl)-1-propanone
Name: 4-methylmethcathinone
Formula: C11H15NO
Exact mass: 177.1154
SMILES: Cc1ccc(cc1)C(=O)C(C)NC
InChI: InChI=1S/C11H15NO/c1-8-4-6-10(7-5-8)11(13)9(2)12-3/h4-7,9,12H,1-3H3
Instrument: LTQ Orbitrap XL Thermo Scientific
Instrument type: LC-ESI-ITFT
Ms type: MS2
Ion mode: POSITIVE
Ionization: ESI
Fragmentation mode: CID
Collision energy: 35 % (nominal)
Resolution: 30000
Column name: XBridge C18 3.5um, 2.1x50mm, Waters
Retention time: 4.3 min
Base peak: 178.1231
Precursor m/z: 178.1226
Precursor type: [M+H]+
m/z	relative intensity	assigned
144.0804	1	C10H10N+
145.0881	1	C10H11N+
147.0805	44	C10H11O+
160.1122	999	C11H14N+
178.1227	21	C11H16NO+
