Mass spectrum: Mexiletine; LC-ESI-QFT; MS2; CE: 45; R=35000; [M+H]+
Name: Mexiletine
Name: 1-(2,6-dimethylphenoxy)-2-propanamine
Formula: C11H17NO
Exact mass: 179.13101
SMILES: O(c1c(cccc1C)C)CC(N)C
InChI: InChI=1S/C11H17NO/c1-8-5-4-6-9(2)11(8)13-7-10(3)12/h4-6,10H,7,12H2,1-3H3
Instrument: Q Exactive Orbitrap Thermo Scientific
Instrument type: LC-ESI-QFT
Ms type: MS2
Ion mode: POSITIVE
Ionization: ESI
Fragmentation mode: HCD
Collision energy: 45 (nominal)
Resolution: 35000
Column name: XBridge C18 3.5um, 2.1x50mm, Waters
Retention time: 5.7 min
Base peak: 180.1382
Precursor m/z: 180.1383
Precursor type: [M+H]+
m/z	relative intensity	assigned
53.0023	3	C3HO+
58.0652	999	C3H8N+
77.0384	2	C6H5+
79.0542	11	C6H7+
91.0541	3	C7H7+
93.0698	4	C7H9+
95.0492	4	C6H7O+
103.0542	5	C8H7+
105.0699	164	C8H9+
107.0855	15	C8H11+
121.0648	138	C8H9O+
122.0727	2	C8H10O+
123.0804	48	C8H11O+
133.076	13	C8H9N2+
135.0804	39	C9H11O+
135.1168	4	C10H15+
145.1012	2	C11H13+
163.1117	30	C11H15O+
180.1383	8	C11H18NO+
