Mass spectrum: Oseltamivir; LC-ESI-ITFT; MS2; CE: 35%; R=30000; [M+H]+
Name: Oseltamivir
Name: (3R,4R,5S)-4-acetamido-5-amino-3-(1-ethylpropoxy)cyclohexene-1-carboxylic acid ethyl ester
Formula: C16H28N2O4
Exact mass: 312.2049
SMILES: CCC(CC)OC1C=C(CC(C1NC(=O)C)N)C(=O)OCC
InChI: InChI=1S/C16H28N2O4/c1-5-12(6-2)22-14-9-11(16(20)21-7-3)8-13(17)15(14)18-10(4)19/h9,12-15H,5-8,17H2,1-4H3,(H,18,19)/t13-,14+,15+/m0/s1
Instrument: LTQ Orbitrap XL Thermo Scientific
Instrument type: LC-ESI-ITFT
Ms type: MS2
Ion mode: POSITIVE
Ionization: ESI
Fragmentation mode: CID
Collision energy: 35 % (nominal)
Resolution: 30000
Column name: XBridge C18 3.5um, 2.1x50mm, Waters
Retention time: 7.0 min
Base peak: 313.2132
Precursor m/z: 313.2122
Precursor type: [M+H]+
m/z	relative intensity	assigned
94.0654	1	C6H8N+
120.0445	2	C7H6NO+
136.0757	3	C8H10NO+
137.0708	1	C7H9N2O+
140.0707	1	C7H10NO2+
162.055	5	C9H8NO2+
166.0863	114	C9H12NO2+
179.0815	11	C9H11N2O2+
180.0656	1	C9H10NO3+
208.097	250	C11H14NO3+
225.1235	999	C11H17N2O3+
226.1074	4	C11H16NO4+
243.1339	80	C11H19N2O4+
296.1856	105	C16H26NO4+
