Mass spectrum: Diazepam; LC-ESI-ITFT; MS2; CE: 35%; R=7500; [M+H]+
Name: Diazepam
Name: 7-chloranyl-1-methyl-5-phenyl-3H-1,4-benzodiazepin-2-one
Formula: C16H13ClN2O
Exact mass: 284.0716
SMILES: CN1C2=C(C=C(Cl)C=C2)C(=NCC1=O)C3=CC=CC=C3
InChI: InChI=1S/C16H13ClN2O/c1-19-14-8-7-12(17)9-13(14)16(18-10-15(19)20)11-5-3-2-4-6-11/h2-9H,10H2,1H3
Instrument: LTQ Orbitrap XL Thermo Scientific
Instrument type: LC-ESI-ITFT
Ms type: MS2
Ion mode: POSITIVE
Ionization: ESI
Fragmentation mode: CID
Collision energy: 35 % (nominal)
Resolution: 7500
Column name: XBridge C18 3.5um, 2.1x50mm, Waters
Retention time: 10.1 min
Base peak: 285.0798
Precursor m/z: 285.0789
Precursor type: [M+H]+
m/z	relative intensity	assigned
91.0544	5	C7H7+
105.0335	127	C7H5O+
147.0676	13	C9H9NO+
152.0266	5	C8H7ClN+
154.0419	443	C8H9ClN+
167.0131	33	C8H6ClNO+
172.0626	10	C10H8N2O+
180.0212	36	C9H7ClNO+
182.0367	285	C9H9ClNO+
193.0885	109	C14H11N+
204.0802	6	C15H10N+
207.0321	8	C10H8ClN2O+
220.0997	17	C15H12N2+
221.1073	54	C15H13N2+
222.1152	353	C15H14N2+
228.0575	313	C14H11ClN+
230.0737	6	C14H13ClN+
240.057	5	C15H11ClN+
241.053	7	C14H10ClN2+
242.0603	5	C14H11ClN2+
243.0679	5	C14H12ClN2+
255.0686	16	C15H12ClN2+
256.0768	9	C15H13ClN2+
257.0842	999	C15H14ClN2+
