Mass spectrum: Benzoximate; LC-ESI-QFT; MS2; CE: 75%; R=17500; [M+H]+
Name: Benzoximate
Name: [C-(3-chloro-2,6-dimethoxyphenyl)-N-ethoxycarbonimidoyl] benzoate
Formula: C18H18ClNO5
Exact mass: 363.0874
SMILES: CCON=C(C1=C(C=CC(=C1OC)Cl)OC)OC(=O)C2=CC=CC=C2
InChI: InChI=1S/C18H18ClNO5/c1-4-24-20-17(25-18(21)12-8-6-5-7-9-12)15-14(22-2)11-10-13(19)16(15)23-3/h5-11H,4H2,1-3H3
Instrument: Exploris 240 Orbitrap Thermo Scientific
Instrument type: LC-ESI-QFT
Ms type: MS2
Ion mode: POSITIVE
Ionization: ESI
Fragmentation mode: HCD
Collision energy: 75 % (nominal)
Resolution: 17500
Column name: XBridge C18 3.5um, 2.1x50mm, Waters
Retention time: 11.695 min
Base peak: 276.2181
Precursor m/z: 364.0946
Precursor type: [M+H]+
m/z	relative intensity	assigned
51.0229	53	C4H3+
53.0385	183	C4H5+
55.0179	9	C3H3O+
77.0385	595	C6H5+
81.0335	11	C5H5O+
94.0411	23	C6H6O+
95.0491	222	C6H7O+
105.0336	999	C7H5O+
109.0652	5	C7H9O+
112.9787	45	C5H2ClO+
125.987	17	C6H3ClO+
140.9737	314	C6H2ClO2+
149.0232	27	C8H5O3+
154.006	7	C7H5ClNO+
154.989	42	C7H4ClO2+
155.9973	100	C7H5ClO2+
183.9922	622	C8H5ClO3+
199.0156	81	C9H8ClO3+
202.003	41	C8H7ClO4+
216.0188	10	C9H9ClO4+
