Mass spectrum: Clenbuterol; LC-ESI-QFT; MS2; CE: 90; R=35000; [M+H]+
Name: Clenbuterol
Name: 1-(4-amino-3,5-dichlorophenyl)-2-(tert-butylamino)ethanol
Formula: C12H18Cl2N2O
Exact mass: 276.07962
SMILES: CC(C)(C)NCC(C1=CC(=C(C(=C1)Cl)N)Cl)O
InChI: InChI=1S/C12H18Cl2N2O/c1-12(2,3)16-6-10(17)7-4-8(13)11(15)9(14)5-7/h4-5,10,16-17H,6,15H2,1-3H3
Instrument: Q Exactive Plus Orbitrap Thermo Scientific
Instrument type: LC-ESI-QFT
Ms type: MS2
Ion mode: POSITIVE
Ionization: ESI
Fragmentation mode: HCD
Collision energy: 90 (nominal)
Resolution: 35000
Column name: XBridge C18 3.5um, 2.1x50mm, Waters
Retention time: 4.6 min
Base peak: 277.0862
Precursor m/z: 277.0869
Precursor type: [M+H]+
m/z	relative intensity	assigned
51.0228	1	C4H3+
53.0022	2	C3HO+
57.0699	133	C4H9+
60.0443	1	C2H6NO+
77.0384	4	C6H5+
78.0463	2	C6H6+
79.0416	2	C5H5N+
80.0494	7	C5H6N+
89.0386	1	C7H5+
92.0493	3	C6H6N+
93.0573	4	C6H7N+
95.049	3	C6H7O+
96.0443	1	C5H6NO+
104.0494	111	C7H6N+
105.0448	4	C6H5N2+
105.0573	53	C7H7N+
106.0651	52	C7H8N+
113.0151	11	C6H6Cl+
115.0415	1	C8H5N+
116.0493	8	C8H6N+
117.0572	9	C8H7N+
122.9997	1	C7H4Cl+
124.0074	1	C7H5Cl+
127.0182	7	C6H6ClN+
131.0604	205	C8H7N2+
132.0682	999	C8H8N2+
133.076	171	C8H9N2+
134.06	12	C8H8NO+
140.0261	403	C7H7ClN+
141.0339	36	C7H8ClN+
144.0557	2	C8H6N3+
145.9685	2	C6H4Cl2+
150.0105	4	C8H5ClN+
151.0183	132	C8H6ClN+
152.0261	30	C8H7ClN+
153.0213	24	C7H6ClN2+
158.9761	2	C7H5Cl2+
160.9793	15	C9H2ClO+
161.9872	1	C6H6Cl2N+
166.0294	3	C8H7ClN2+
167.037	263	C8H8ClN2+
168.0448	546	C11H6NO+
173.9631	3	C7H4Cl2O+
173.9871	28	C10H3ClO+
185.987	2	C8H6Cl2N+
189.9818	7	C7H6Cl2NO+
190.9895	4	C7H7Cl2NO+
