Mass spectrum: Dimethenamid OXA; LC-ESI-ITFT; MS2; CE: 45%; R=7500; [M-H]-
Name: Dimethenamid OXA
Name: [(2,4-dimethylthiophen-3-yl)(1-methoxypropan-2-yl)amino](oxo)acetic acid
Formula: C12H17NO4S
Exact mass: 271.0878
SMILES: S(C=C1C)C(C)=C1N(C(=O)C(=O)O)C(COC)C
InChI: InChI=1S/C12H17NO4S/c1-7-6-18-9(3)10(7)13(8(2)5-17-4)11(14)12(15)16/h6,8H,5H2,1-4H3,(H,15,16)
Instrument: LTQ Orbitrap XL Thermo Scientific
Instrument type: LC-ESI-ITFT
Ms type: MS2
Ion mode: NEGATIVE
Ionization: ESI
Fragmentation mode: HCD
Collision energy: 45 % (nominal)
Resolution: 7500
Column name: XBridge C18 3.5um, 2.1x50mm, Waters
Retention time: 7.2 min
Base peak: 270.0801
Precursor m/z: 270.0806
Precursor type: [M-H]-
m/z	relative intensity	assigned
73.0118	26	C3H5S-
83.9912	29	C3H2NS-
97.0113	31	C5H5S-
98.0067	130	C4H4NS-
122.0069	37	C6H4NS-
124.0226	33	C6H6NS-
150.0379	104	C8H8NS-
152.0536	157	C8H10NS-
164.0539	73	C9H10NS-
166.0697	999	C9H12NS-
198.0953	353	C10H16NOS-
