Mass spectrum: Dimethachlor ESA; LC-ESI-ITFT; MS2; CE: 30%; R=15000; [M+H]+
Name: Dimethachlor ESA
Name: 2-[(2,6-dimethylphenyl)(2-methoxyethyl)amino]-2-oxoethanesulfonic acid
Formula: C13H19NO5S
Exact mass: 301.0984
SMILES: CC1=C(N(C(CS(O)(=O)=O)=O)CCOC)C(C)=CC=C1
InChI: InChI=1S/C13H19NO5S/c1-10-5-4-6-11(2)13(10)14(7-8-19-3)12(15)9-20(16,17)18/h4-6H,7-9H2,1-3H3,(H,16,17,18)
Instrument: LTQ Orbitrap XL Thermo Scientific
Instrument type: LC-ESI-ITFT
Ms type: MS2
Ion mode: POSITIVE
Ionization: ESI
Fragmentation mode: HCD
Collision energy: 30 % (nominal)
Resolution: 15000
Column name: XBridge C18 3.5um, 2.1x50mm, Waters
Retention time: 5.9 min
Base peak: 302.1064
Precursor m/z: 302.1057
Precursor type: [M+H]+
m/z	relative intensity	assigned
132.0805	2	C9H10N+
147.1044	18	C10H13N+
148.1122	4	C10H14N+
174.0913	11	C11H12NO+
189.1149	10	C12H15NO+
206.1178	3	C12H16NO2+
252.0694	1	C12H14NO3S+
270.0796	999	C12H16NO4S+
302.1059	12	C13H20NO5S+
