Mass spectrum: Disulfoton-sulfoxide; LC-ESI-QFT; MS2; CE: 150%; R=17500; [M+H]+
Name: Disulfoton-sulfoxide
Name: Oxydisulfoton
Name: diethoxy-(2-ethylsulfinylethylsulfanyl)-sulfanylidene-lambda5-phosphane
Formula: C8H19O3PS3
Exact mass: 290.0234
SMILES: CCOP(=S)(OCC)SCCS(=O)CC
InChI: InChI=1S/C8H19O3PS3/c1-4-10-12(13,11-5-2)14-7-8-15(9)6-3/h4-8H2,1-3H3
Instrument: Exploris 240 Orbitrap Thermo Scientific
Instrument type: LC-ESI-QFT
Ms type: MS2
Ion mode: POSITIVE
Ionization: ESI
Fragmentation mode: HCD
Collision energy: 150 % (nominal)
Resolution: 17500
Column name: XBridge C18 3.5um, 2.1x50mm, Waters
Retention time: 6.653 min
Base peak: 282.279
Precursor m/z: 291.0307
Precursor type: [M+H]+
m/z	relative intensity	assigned
58.995	44	C2H3S+
61.0106	247	C2H5S+
64.9786	999	H2O2P+
78.9401	453	OPS+
94.9174	32	PS2+
96.9506	609	H2O2PS+
114.9614	201	H4O3PS+
128.9233	27	H2O2PS2+
