Mass spectrum: Thiamphenicol; LC-ESI-QFT; MS2; CE: 150; R=35000; [M-H]-
Name: Thiamphenicol
Name: 2,2-dichloro-N-[1,3-dihydroxy-1-(4-methylsulfonylphenyl)propan-2-yl]acetamide
Formula: C12H15Cl2NO5S
Exact mass: 355.00480
SMILES: CS(=O)(=O)C1=CC=C(C=C1)C(C(CO)NC(=O)C(Cl)Cl)O
InChI: InChI=1S/C12H15Cl2NO5S/c1-21(19,20)8-4-2-7(3-5-8)10(17)9(6-16)15-12(18)11(13)14/h2-5,9-11,16-17H,6H2,1H3,(H,15,18)
Instrument: Q Exactive Plus Orbitrap Thermo Scientific
Instrument type: LC-ESI-QFT
Ms type: MS2
Ion mode: NEGATIVE
Ionization: ESI
Fragmentation mode: HCD
Collision energy: 150 (nominal)
Resolution: 35000
Column name: XBridge C18 3.5um, 2.1x50mm, Waters
Retention time: 3.5 min
Base peak: 353.9974
Precursor m/z: 353.9975
Precursor type: [M-H]-
m/z	relative intensity	assigned
56.9804	1	C2HS-
63.9625	999	O2S-
65.0397	3	C5H5-
78.986	42	CH3O2S-
82.9462	3	CHCl2-
91.019	6	C6H3O-
92.0268	6	C6H4O-
93.0346	14	C6H5O-
95.0139	6	C5H3O2-
105.0347	11	C7H5O-
108.0218	12	C6H4O2-
117.0342	1	C8H5O-
120.0218	1	C7H4O2-
121.0296	114	C7H5O2-
