Mass spectrum: Betamethasone 21; LC-ESI-QFT; MS2; CE: 60; R=35000; [M+H]+
Name: Betamethasone 21
Name: [2-[(8S,9R,10S,11S,13S,14S,16S,17R)-9-fluoro-11,17-dihydroxy-10,13,16-trimethyl-3-oxo-6,7,8,11,12,14,15,16-octahydrocyclopenta[a]phenanthren-17-yl]-2-oxoethyl] acetate
Formula: C24H31FO6
Exact mass: 434.21047
SMILES: O=C(OCC(=O)[C@]3(O)[C@]2(C[C@H](O)[C@]4(F)[C@@]/1(\C(=C/C(=O)\C=C\1)CC[C@H]4[C@@H]2C[C@@H]3C)C)C)C
InChI: InChI=1S/C24H31FO6/c1-13-9-18-17-6-5-15-10-16(27)7-8-21(15,3)23(17,25)19(28)11-22(18,4)24(13,30)20(29)12-31-14(2)26/h7-8,10,13,17-19,28,30H,5-6,9,11-12H2,1-4H3/t13-,17-,18-,19-,21-,22-,23-,24-/m0/s1
Instrument: Q Exactive Orbitrap Thermo Scientific
Instrument type: LC-ESI-QFT
Ms type: MS2
Ion mode: POSITIVE
Ionization: ESI
Fragmentation mode: HCD
Collision energy: 60 (nominal)
Resolution: 35000
Column name: XBridge C18 3.5um, 2.1x50mm, Waters
Retention time: 10.5 min
Base peak: 435.2171
Precursor m/z: 435.2177
Precursor type: [M+H]+
m/z	relative intensity	assigned
55.0542	7	C4H7+
59.0491	7	C3H7O+
61.0284	94	C2H5O2+
65.0384	27	C5H5+
67.0542	135	C5H7+
69.0334	45	C4H5O+
69.0698	54	C5H9+
71.0127	6	C3H3O2+
71.049	26	C4H7O+
77.0383	8	C6H5+
79.0541	157	C6H7+
81.0698	98	C6H9+
83.049	12	C5H7O+
83.0853	9	C6H11+
91.0541	362	C7H7+
93.0697	211	C7H9+
95.049	99	C6H7O+
95.0854	187	C7H11+
97.0646	29	C6H9O+
101.023	12	C4H5O3+
103.0541	41	C8H7+
105.0698	356	C8H9+
107.049	54	C7H7O+
107.0854	330	C8H11+
109.0647	68	C7H9O+
109.1011	83	C8H13+
111.0439	9	C6H7O2+
111.0802	25	C7H11O+
115.0389	9	C5H7O3+
115.054	72	C9H7+
115.0755	6	C6H11O2+
116.0618	33	C9H8+
117.0697	113	C9H9+
119.0854	449	C9H11+
121.0646	617	C8H9O+
121.1011	111	C9H13+
123.0802	98	C8H11O+
125.0595	32	C7H9O2+
128.0619	177	C10H8+
129.0697	113	C10H9+
130.0776	13	C10H10+
131.0854	215	C10H11+
132.0569	93	C9H8O+
133.0646	72	C9H9O+
133.101	105	C10H13+
135.0802	229	C9H11O+
137.0592	11	C8H9O2+
137.0958	26	C9H13O+
141.0697	115	C11H9+
142.0776	76	C11H10+
143.0854	269	C11H11+
144.057	63	C10H8O+
144.0931	5	C11H12+
145.0647	247	C10H9O+
145.101	118	C11H13+
146.0724	53	C10H10O+
147.0802	999	C10H11O+
149.0959	86	C10H13O+
151.075	45	C9H11O2+
152.0615	9	C12H8+
153.0695	34	C12H9+
153.0908	21	C9H13O2+
154.0773	22	C12H10+
155.0853	122	C12H11+
156.0567	8	C11H8O+
156.0931	12	C12H12+
157.0642	7	C11H9O+
157.1009	60	C12H13+
158.0724	192	C11H10O+
159.0802	462	C11H11O+
160.0879	10	C11H12O+
161.0958	203	C11H13O+
163.0749	27	C10H11O2+
165.0697	47	C13H9+
166.0775	10	C13H10+
167.0854	66	C13H11+
167.1062	29	C10H15O2+
168.0565	10	C12H8O+
168.0929	22	C13H12+
169.0644	64	C12H9O+
169.1008	48	C13H13+
170.0721	34	C12H10O+
171.0801	551	C12H11O+
172.0881	53	C12H12O+
173.0958	218	C12H13O+
175.075	10	C11H11O2+
175.1115	21	C12H15O+
178.0775	92	C14H10+
179.0852	165	C14H11+
180.0927	46	C14H12+
181.0647	46	C13H9O+
181.1008	52	C14H13+
182.0724	64	C13H10O+
183.0798	68	C13H11O+
183.1167	40	C14H15+
184.0879	41	C13H12O+
185.0958	209	C13H13O+
187.0752	65	C12H11O2+
187.1112	42	C13H15O+
189.0694	37	C15H9+
189.0904	7	C12H13O2+
190.0769	26	C15H10+
191.0854	60	C15H11+
192.093	70	C15H12+
193.1009	119	C15H13+
194.0725	43	C14H10O+
194.1086	50	C15H14+
195.0801	115	C14H11O+
195.1162	38	C15H15+
196.0878	119	C14H12O+
197.0956	233	C14H13O+
198.1034	45	C14H14O+
199.075	8	C13H11O2+
199.1116	48	C14H15O+
202.077	13	C16H10+
203.0848	64	C16H11+
204.0931	95	C16H12+
205.0647	12	C15H9O+
205.101	59	C16H13+
206.0728	6	C15H10O+
206.1083	31	C16H14+
207.0804	42	C15H11O+
207.1169	63	C16H15+
208.0881	142	C15H12O+
209.0958	196	C15H13O+
209.132	29	C16H17+
210.1037	90	C15H14O+
211.1114	134	C15H15O+
212.119	75	C15H16O+
213.1271	47	C15H17O+
215.0853	38	C17H11+
215.106	31	C14H15O2+
216.0929	39	C17H12+
217.1011	45	C17H13+
218.0725	10	C16H10O+
218.1082	13	C17H14+
219.0805	51	C16H11O+
219.1164	73	C17H15+
220.0879	56	C16H12O+
220.1241	9	C17H16+
221.0958	169	C16H13O+
221.1319	25	C17H17+
222.1035	298	C16H14O+
223.1114	146	C16H15O+
224.0826	9	C15H12O2+
224.1193	53	C16H16O+
225.0904	9	C15H13O2+
225.1268	66	C16H17O+
227.0857	5	C18H11+
227.1429	43	C16H19O+
228.0931	13	C18H12+
229.1007	71	C18H13+
230.1088	41	C18H14+
231.0801	28	C17H11O+
231.1164	44	C18H15+
232.088	28	C17H12O+
232.1236	6	C18H16+
233.0957	95	C17H13O+
233.1318	31	C18H17+
234.1034	105	C17H14O+
234.1396	12	C18H18+
235.1113	232	C17H15O+
235.1477	30	C18H19+
236.1191	56	C17H16O+
236.1551	10	C18H20+
237.1268	150	C17H17O+
238.1348	10	C17H18O+
239.1065	8	C16H15O2+
239.1425	35	C17H19O+
241.1003	11	C19H13+
242.1085	7	C19H14+
243.116	64	C19H15+
244.0879	7	C18H12O+
244.1244	28	C19H16+
245.0957	65	C18H13O+
245.1318	36	C19H17+
246.1037	74	C18H14O+
247.1112	180	C18H15O+
248.1192	136	C18H16O+
249.1268	99	C18H17O+
249.1634	6	C19H21+
250.1344	29	C18H18O+
251.1061	8	C17H15O2+
251.1425	30	C18H19O+
252.1504	25	C18H20O+
253.1008	9	C20H13+
253.1578	9	C18H21O+
256.0879	7	C19H12O+
257.1321	10	C20H17+
258.1037	12	C19H14O+
258.1402	9	C20H18+
259.1112	49	C19H15O+
259.1473	10	C20H19+
260.1193	37	C19H16O+
261.1267	167	C19H17O+
261.1637	9	C20H21+
262.1348	112	C19H18O+
263.1426	164	C19H19O+
264.1509	15	C19H20O+
265.1584	9	C19H21O+
267.1157	8	C21H15+
271.1112	60	C20H15O+
272.1189	35	C20H16O+
273.1266	13	C20H17O+
274.0984	6	C19H14O2+
274.1348	12	C20H18O+
275.1059	21	C19H15O2+
275.1421	36	C20H19O+
276.1145	6	C19H16O2+
276.1504	43	C20H20O+
277.1222	9	C19H17O2+
277.1577	45	C20H21O+
278.1657	12	C20H22O+
279.1733	22	C20H23O+
285.1269	30	C21H17O+
286.1345	61	C21H18O+
289.1213	26	C20H17O2+
289.1581	7	C21H21O+
290.1294	7	C20H18O2+
291.1373	13	C20H19O2+
301.1581	9	C22H21O+
304.1444	7	C21H20O2+
