Mass spectrum: Oxyfluorfen; LC-ESI-QFT; MS2; CE: 45; R=35000; [M+H]+
Name: Oxyfluorfen
Name: 2-chloranyl-1-(3-ethoxy-4-nitro-phenoxy)-4-(trifluoromethyl)benzene
Formula: C15H11ClF3NO4
Exact mass: 361.03287
SMILES: Clc2cc(ccc2Oc1ccc([N+]([O-])=O)c(OCC)c1)C(F)(F)F
InChI: InChI=1S/C15H11ClF3NO4/c1-2-23-14-8-10(4-5-12(14)20(21)22)24-13-6-3-9(7-11(13)16)15(17,18)19/h3-8H,2H2,1H3
Instrument: Q Exactive Orbitrap Thermo Scientific
Instrument type: LC-ESI-QFT
Ms type: MS2
Ion mode: POSITIVE
Ionization: ESI
Fragmentation mode: HCD
Collision energy: 45 (nominal)
Resolution: 35000
Column name: XBridge C18 3.5um, 2.1x50mm, Waters
Retention time: 15.5 min
Base peak: 362.0402
Precursor m/z: 362.0401
Precursor type: [M+H]+
m/z	relative intensity	assigned
53.0024	7	C3HO+
65.026	7	C4H3N+
68.9946	5	CF3+
68.9971	4	C3HO2+
76.0182	23	C5H2N+
78.0337	1	C5H4N+
79.0178	7	C5H3O+
88.9787	1	C3H2ClO+
93.0209	73	C5H3NO+
93.9922	1	C4NO2+
94.0286	1	C5H4NO+
95.0126	2	C5H3O2+
95.0364	1	C5H5NO+
96.0081	7	C4H2NO2+
104.013	1	C6H2NO+
107.0128	2	C6H3O2+
120.008	5	C6H2NO2+
121.0647	4	C8H9O+
124.0392	5	C6H6NO2+
132.0183	13	C6H3F3+
140.0494	88	C10H6N+
149.0153	3	C9H6Cl+
156.0445	2	C10H6NO+
157.0257	1	C8H4F3+
158.04	21	C10H5FN+
164.9912	6	C6H4ClF2O+
166.9869	62	C6H3ClF3+
168.0012	1	C8H4ClFN+
168.0445	4	C11H6NO+
169.0257	1	C9H4F3+
169.0323	1	C11H4FN+
170.0336	7	C9H5F3+
172.0314	8	C11H5FO+
174.0104	13	C10H5ClN+
174.9869	4	C6F3NO2+
175.0184	22	C10H6ClN+
176.0023	9	C10H5ClO+
176.0301	1	C10H4F2N+
176.991	14	C7H4ClF2O+
177.0389	1	C10H5F2N+
178.9869	69	C7H3ClF3+
181.0259	2	C10H4F3+
182.0338	28	C10H5F3+
183.0297	1	C5H10ClNO4+
183.0416	3	C10H6F3+
184.052	12	C12H8O2+
184.9965	1	C9H4ClF2+
186.0291	4	C9H5F3O+
186.0552	4	C11H8NO2+
187.0428	49	C11H6FNO+
188.0305	2	C11H4F2N+
189.0384	120	C11H5F2N+
190.9869	6	C8H3ClF3+
192.0014	6	C10H4ClFN+
193.0029	5	C8H5ClF3+
194.982	20	C7H3ClF3O+
195.0415	2	C11H6F3+
196.0375	10	C6H11ClNO4+
196.9967	1	C10H4ClF2+
197.0449	10	C6H12ClNO4+
197.0589	2	C13H9O2+
198.004	1	C10H5ClF2+
198.0353	14	C12H5FNO+
199.0363	1	C10H6F3O+
200.0323	1	C9H5F3NO+
200.044	2	C10H7F3O+
200.9979	14	C11H4ClNO+
202.0057	1	C11H5ClNO+
203.0132	237	C11H6ClNO+
203.9824	1	C8H2ClF3N+
204.0215	12	C11H5FO3+
205.0027	1	C9H5ClF3+
205.034	4	C11H5F2NO+
205.9983	2	C8H4ClF3N+
206.0416	13	C11H6F2NO+
206.9932	5	C10F3NO+
207.0123	4	C10H3F2NO2+
207.0292	26	C7H10ClNO4+
208.037	42	C11H5F3N+
209.0448	52	C11H6F3N+
210.0165	8	C10H3F3NO+
210.0287	54	C11H5F3O+
211.0237	4	C10H4F3NO+
212.0316	1	C10H5F3NO+
212.9923	6	C7H5ClF3O2+
216.0257	7	C12H4F2NO+
216.0371	4	C13H6F2O+
217.0027	90	C10H5ClF3+
217.0331	11	C12H5F2NO+
217.9983	13	C9H4ClF3N+
218.0414	48	C12H6F2NO+
219.008	4	C11H6ClNO2+
219.0324	1	C11H6FNO3+
220.9813	6	C8H4ClF2O3+
221.993	5	C8H4ClF3NO+
222.0117	12	C11H6ClFNO+
222.9769	107	C8H3ClF3O2+
223.0365	32	C12H6F3O+
224.0074	45	C11H5ClF2N+
224.0317	24	C11H5F3NO+
224.9913	14	C11H4ClF2O+
225.0397	41	C11H6F3NO+
225.0519	4	C12H8F3O+
225.9866	4	C10H3ClF2NO+
229.0344	2	C10H6F3NO2+
230.0004	41	C12H5ClNO2+
230.0108	12	C11H6ClF3+
232.9976	14	C10H5ClF3O+
233.0284	3	C12H5F2NO2+
233.0407	10	C13H7F2O2+
235.024	42	C12H4F3NO+
236.0317	30	C12H5F3NO+
237.0396	999	C12H6F3NO+
238.0475	53	C12H7F3NO+
240.0024	6	C11H5ClF2NO+
241.9978	30	C11H4ClF3N+
244.0141	4	C11H6ClF3N+
244.9976	4	C11H5ClF3O+
245.9929	198	C10H4ClF3NO+
246.9768	1	C10H3ClF3O2+
248.0104	8	C15H4O4+
249.0519	2	C14H8F3O+
249.9866	17	C12H3ClF2NO+
251.0312	20	C13H6F3O2+
252.0023	179	C12H5ClF2NO+
253.0345	46	C12H6F3NO2+
253.0471	197	C13H8F3O2+
254.0424	20	C12H7F3NO2+
256.9977	1	C12H5ClF3O+
258.0056	6	C12H6ClF3O+
260.0083	6	C11H6ClF3NO+
263.0423	3	C15H10ClF2+
266.0548	7	C14H9F3O2+
269.9929	76	C12H4ClF3NO+
271.0008	13	C12H5ClF3NO+
272.0085	24	C12H6ClF3NO+
272.9925	8	C12H5ClF3O2+
273.9877	60	C11H4ClF3NO2+
274.0239	36	C12H8ClF3NO+
279.997	5	C13H5ClF2NO2+
281.0301	2	C13H6F3NO3+
281.0786	4	C15H12F3O2+
282.0368	7	C13H7F3NO3+
284.9928	4	C13H5ClF3O2+
286.0003	99	C13H6ClF3O2+
288.0172	12	C13H8ClF3O2+
290.019	22	C12H8ClF3NO2+
297.9878	120	C13H4ClF3NO2+
298.9955	4	C13H5ClF3NO2+
300.0033	143	C13H6ClF3NO2+
301.0238	146	C14H9ClF3O2+
302.0192	7	C13H8ClF3NO2+
303.0266	5	C13H9ClF3NO2+
310.0692	1	C15H11F3NO3+
314.003	4	C13H7ClF2NO4+
315.9977	8	C13H6ClF3NO3+
317.006	14	C13H7ClF3NO3+
318.0137	6	C13H8ClF3NO3+
