Mass spectrum: Cycloxydim-TP BH 517-TSO E/Z-isomer; LC-ESI-QFT; MS2; CE: 120%; R=17500; [M+H]+
Name: Cycloxydim-TP BH 517-TSO E/Z-isomer
Name: Cycloxydim sulfoxide
Formula: C17H27NO4S
Exact mass: 341.1661
SMILES: CCC\C(=N/OCC)C1=C(O)CC(CC1=O)C1CCCS(=O)C1
InChI: InChI=1S/C17H27NO4S/c1-3-6-14(18-22-4-2)17-15(19)9-13(10-16(17)20)12-7-5-8-23(21)11-12/h12-13,19H,3-11H2,1-2H3/b18-14+
Instrument: Q Exactive Plus Orbitrap Thermo Scientific
Instrument type: LC-ESI-QFT
Ms type: MS2
Ion mode: POSITIVE
Ionization: ESI
Fragmentation mode: HCD
Collision energy: 120 % (nominal)
Resolution: 17500
Column name: XBridge C18 3.5um, 2.1x50mm, Waters
Retention time: 7.731 min
Base peak: 342.1734
Precursor m/z: 342.1734
Precursor type: [M+H]+
m/z	relative intensity	assigned
50.015	49	C4H2+
51.0228	123	C4H3+
53.0022	58	C3HO+
53.0386	404	C4H5+
54.0337	38	C3H4N+
55.0178	175	C3H3O+
55.0542	150	C4H7+
56.0495	68	C3H6N+
58.995	286	C2H3S+
61.0105	37	C2H5S+
62.99	233	CH3OS+
63.0231	42	C5H3+
65.0386	646	C5H5+
66.0464	129	C5H6+
67.0178	58	C4H3O+
67.0416	112	C4H5N+
67.0542	460	C5H7+
68.013	83	C3H2NO+
68.0494	134	C4H6N+
68.997	40	C3HO2+
69.0335	88	C4H5O+
70.0651	103	C4H8N+
73.0107	48	C3H5S+
77.0385	225	C6H5+
78.0463	67	C6H6+
79.0542	739	C6H7+
80.0495	187	C5H6N+
81.0334	157	C5H5O+
81.057	19	C5H7N+
81.0697	73	C6H9+
82.0653	134	C5H8N+
85.0105	65	C4H5S+
87.0263	348	C4H7S+
89.0384	46	C7H5+
91.0543	999	C7H7+
92.0494	54	C6H6N+
93.0335	77	C6H5O+
93.0574	207	C6H7N+
93.0698	77	C7H9+
94.0412	116	C6H6O+
94.0652	126	C6H8N+
95.0492	768	C6H7O+
96.0443	57	C5H6NO+
97.0105	100	C5H5S+
101.042	80	C5H9S+
103.0543	309	C8H7+
104.0621	50	C8H8+
105.0448	323	H11NO3S+
105.07	290	C8H9+
106.0651	96	C7H8N+
107.0491	410	C7H7O+
107.0726	50	C7H9N+
108.0805	32	C7H10N+
110.0598	72	C6H8NO+
111.0438	25	C6H7O2+
112.0756	71	C6H10NO+
115.0542	596	C9H7+
116.062	60	C9H8+
117.0573	94	C8H7N+
117.0696	89	C9H9+
118.0651	59	C8H8N+
120.0807	59	C8H10N+
121.0649	34	C8H9O+
122.0363	127	C7H6O2+
122.0965	32	C8H12N+
123.044	36	C7H7O2+
128.0621	229	C10H8+
129.07	94	C10H9+
130.0654	54	C9H8N+
131.0492	126	C9H7O+
132.0573	34	C9H8O+
132.0805	40	C9H10N+
133.0647	63	C9H9O+
134.0603	28	C8H8NO+
141.0701	22	C11H9+
144.0806	47	C10H10N+
145.0649	73	C10H9O+
146.0601	54	C9H8NO+
147.0445	35	C9H7O2+
149.0477	101	C8H7NO2+
153.0696	44	C12H9+
155.06	28	C4H13NO3S+
157.0644	20	C11H9O+
160.0523	133	C10H8O2+
160.0749	20	C10H10NO+
161.0591	31	C10H9O2+
