Mass spectrum: O-Des[2-aminoethyl]-O-carboxymethyl dehydroamlodipine; LC-ESI-QFT; MS2; CE: 45%; R=15000; [M-H]-
Name: O-Des[2-aminoethyl]-O-carboxymethyl dehydroamlodipine
Name: 2-((4-(2-Chlorophenyl)-3-ethoxycarbonyl-5-methoxycarbonyl-6-methyl-2-pyridyl)methoxy)acetic acid
Name: 2-[[4-(2-chlorophenyl)-3-ethoxycarbonyl-5-methoxycarbonyl-6-methylpyridin-2-yl]methoxy]acetic acid
Formula: C20H20ClNO7
Exact mass: 421.0928
SMILES: CCOC(=O)C1=C(C(=C(N=C1COCC(=O)O)C)C(=O)OC)C2=CC=CC=C2Cl
InChI: InChI=1S/C20H20ClNO7/c1-4-29-20(26)18-14(9-28-10-15(23)24)22-11(2)16(19(25)27-3)17(18)12-7-5-6-8-13(12)21/h5-8H,4,9-10H2,1-3H3,(H,23,24)
Instrument: Orbitrap Exploris 240 Thermo Scientific
Instrument type: LC-ESI-QFT
Ms type: MS2
Ion mode: NEGATIVE
Ionization: ESI
Fragmentation mode: HCD
Collision energy: 45 % (nominal)
Resolution: 15000
Column name: Atlantis C18 3um, 3.0x150mm, Waters
Retention time: 18.423 min
Base peak: 420.0855
Precursor m/z: 420.0856
Precursor type: [M-H]-
Precursor intensity: 14212248
m/z	relative intensity	assigned
59.0138	999	C2H3O2-
218.0613	16	C15H8NO-
220.0768	9	C15H10NO-
228.0219	10	C16H4O2-
241.0306	5	C14H8ClNO-
242.0378	22	C14H9ClNO-
254.0378	109	C15H9ClNO-
256.0174	38	C14H7ClNO2-
256.0518	12	C12H13ClO4-
258.0324	6	C17H6O3-
274.063	10	C18H10O3-
