Mass spectrum: Chloridazon; LC-ESI-ITFT; MS2; CE: 75%; R=15000; [M+H]+
Name: Chloridazon
Name: 5-amino-4-chloro-2-phenyl-3-pyridazinone
Formula: C10H8ClN3O
Exact mass: 221.0350
SMILES: ClC(=C(N)C=N1)C(=O)N1-c(ccc2)cc2
InChI: InChI=1S/C10H8ClN3O/c11-9-8(12)6-13-14(10(9)15)7-4-2-1-3-5-7/h1-6H,12H2
Instrument: LTQ Orbitrap XL Thermo Scientific
Instrument type: LC-ESI-ITFT
Ms type: MS2
Ion mode: POSITIVE
Ionization: ESI
Fragmentation mode: HCD
Collision energy: 75 % (nominal)
Resolution: 15000
Column name: XBridge C18 3.5um, 2.1x50mm, Waters
Retention time: 5.2 min
Base peak: 222.0432
Precursor m/z: 222.0429
Precursor type: [M+H]+
m/z	relative intensity	assigned
53.0385	23	C4H5+
55.029	38	C2H3N2+
63.9949	21	CH3ClN+
65.0386	214	C5H5+
66.0214	10	C3H2N2+
67.0289	10	C3H3N2+
75.9949	16	C2H3ClN+
77.0386	457	C6H5+
83.0241	18	C3H3N2O+
87.9949	90	C3H3ClN+
92.0495	999	C6H6N+
93.0573	58	C6H7N+
94.0652	271	C6H8N+
95.0493	52	C6H7O+
100.9902	101	C3H2ClN2+
101.9742	16	C3HClNO+
104.0495	824	C7H6N+
105.0447	131	C6H5N2+
116.9976	22	C4H4ClNO+
119.0604	22	C7H7N2+
125.0152	11	C7H6Cl+
128.9851	304	C4H2ClN2O+
130.0652	68	C9H8N+
131.0604	27	C8H7N2+
132.0445	36	C8H6NO+
132.0682	8	C8H8N2+
146.0116	281	C4H5ClN3O+
149.0152	21	C9H6Cl+
150.0106	59	C8H5ClN+
158.0599	12	C10H8NO+
158.0716	10	C9H8N3+
159.0554	26	C9H7N2O+
159.0796	11	C9H9N3+
160.0631	9	C9H8N2O+
178.0057	10	C9H5ClNO+
186.0662	37	C10H8N3O+
193.029	113	C10H8ClNO+
195.0322	15	C9H8ClN2O+
205.0163	9	C10H6ClN2O+
222.0428	521	C10H9ClN3O+
