Mass spectrum: Rotenone; LC-ESI-QFT; MS2; CE: 60%; R=17500; [M+H]+
Name: Rotenone
Name: 5`beta-Rotenone
Name: 16,17-dimethoxy-6-prop-1-en-2-yl-2,7,20-trioxapentacyclo[11.8.0.03,11.04,8.014,19]henicosa-3(11),4(8),9,14,16,18-hexaen-12-one
Formula: C23H22O6
Exact mass: 394.1416
SMILES: CC(=C)C1CC2=C(O1)C=CC3=C2OC4COC5=CC(=C(C=C5C4C3=O)OC)OC
InChI: InChI=1S/C23H22O6/c1-11(2)16-8-14-15(28-16)6-5-12-22(24)21-13-7-18(25-3)19(26-4)9-17(13)27-10-20(21)29-23(12)14/h5-7,9,16,20-21H,1,8,10H2,2-4H3
Instrument: Exploris 240 Orbitrap Thermo Scientific
Instrument type: LC-ESI-QFT
Ms type: MS2
Ion mode: POSITIVE
Ionization: ESI
Fragmentation mode: HCD
Collision energy: 60 % (nominal)
Resolution: 17500
Column name: XBridge C18 3.5um, 2.1x50mm, Waters
Retention time: 10.235 min
Base peak: 372.0284
Precursor m/z: 395.1489
Precursor type: [M+H]+
m/z	relative intensity	assigned
77.0388	48	C6H5+
79.0543	112	C6H7+
81.0699	39	C6H9+
91.0542	92	C7H7+
94.0412	46	C6H6O+
105.0698	58	C8H9+
107.0494	70	C7H7O+
108.0569	86	C7H8O+
109.0645	118	C7H9O+
115.054	25	C9H7+
119.0489	30	C8H7O+
119.0859	32	C9H11+
121.0648	128	C8H9O+
122.0366	34	C7H6O2+
124.0518	247	C7H8O2+
128.0623	32	C10H8+
129.0696	59	C10H9+
133.0286	26	C8H5O2+
133.0644	197	C9H9O+
135.0439	176	C8H7O2+
135.0807	34	C9H11O+
136.052	75	C8H8O2+
137.0598	161	C8H9O2+
139.0751	501	C8H11O2+
142.0784	38	C11H10+
147.0438	164	C9H7O2+
147.0802	229	C10H11O+
148.0521	99	C9H8O2+
149.0235	76	C8H5O3+
149.0599	54	C9H9O2+
150.0672	57	C9H10O2+
151.0753	566	C9H11O2+
157.065	24	C11H9O+
159.0433	117	C10H7O2+
161.0232	222	C9H5O3+
161.0594	221	C10H9O2+
162.0678	220	C10H10O2+
163.0391	51	C9H7O3+
165.0906	155	C10H13O2+
167.0703	158	C9H11O3+
167.0855	31	C13H11+
170.0729	153	C12H10O+
171.0803	86	C12H11O+
173.0595	44	C11H9O2+
175.0386	28	C10H7O3+
175.0755	57	C11H11O2+
176.0471	59	C10H8O3+
177.0544	583	C10H9O3+
178.0621	63	C10H10O3+
179.0703	332	C10H11O3+
185.0597	111	C12H9O2+
185.0956	45	C13H13O+
189.0908	82	C12H13O2+
191.0702	999	C11H11O3+
192.078	795	C11H12O3+
193.0858	59	C11H13O3+
195.0804	750	C14H11O+
198.0674	609	C13H10O2+
203.0702	489	C12H11O3+
213.0908	880	C14H13O2+
219.0652	21	C12H11O4+
220.0724	30	C12H12O4+
223.0745	46	C15H11O2+
241.0856	56	C15H13O3+
321.1123	42	C20H17O4+
