Mass spectrum: Norfentanyl; LC-ESI-QFT; MS2; CE: 90; R=35000; [M+H]+
Name: Norfentanyl
Name: N-phenyl-N-piperidin-4-ylpropanamide
Formula: C14H20N2O
Exact mass: 232.15756
SMILES: CCC(=O)N(C1CCNCC1)C2=CC=CC=C2
InChI: InChI=1S/C14H20N2O/c1-2-14(17)16(12-6-4-3-5-7-12)13-8-10-15-11-9-13/h3-7,13,15H,2,8-11H2,1H3
Instrument: Q Exactive Plus Orbitrap Thermo Scientific
Instrument type: LC-ESI-QFT
Ms type: MS2
Ion mode: POSITIVE
Ionization: ESI
Fragmentation mode: HCD
Collision energy: 90 (nominal)
Resolution: 35000
Column name: XBridge C18 3.5um, 2.1x50mm, Waters
Retention time: 4.7 min
Base peak: 233.1641
Precursor m/z: 233.1648
Precursor type: [M+H]+
m/z	relative intensity	assigned
53.0021	1	C3HO+
53.0385	28	C4H5+
55.0542	999	C4H7+
56.0494	650	C3H6N+
57.0334	84	C3H5O+
57.0698	15	C4H9+
65.0386	8	C5H5+
67.0542	84	C5H7+
68.0494	1	C4H6N+
69.0573	8	C4H7N+
77.0384	5	C6H5+
80.0493	1	C5H6N+
82.065	34	C5H8N+
84.0807	570	C5H10N+
94.065	178	C6H8N+
95.0491	8	C6H7O+
105.0446	4	C6H5N2+
106.0649	1	C7H8N+
117.0572	6	C8H7N+
120.0805	7	C8H10N+
130.0648	1	C9H8N+
132.0807	15	C9H10N+
150.0912	11	C9H12NO+
