Mass spectrum: 2,6-Dichlorobenzamide; LC-ESI-ITFT; MS2; CE: 90%; R=7500; [M+H]+
Name: 2,6-Dichlorobenzamide
Name: 2,6-bis(chloranyl)benzamide
Formula: C7H5Cl2NO
Exact mass: 188.9748
SMILES: ClC1=C(C(N)=O)C(Cl)=CC=C1
InChI: InChI=1S/C7H5Cl2NO/c8-4-2-1-3-5(9)6(4)7(10)11/h1-3H,(H2,10,11)
Instrument: LTQ Orbitrap XL Thermo Scientific
Instrument type: LC-ESI-ITFT
Ms type: MS2
Ion mode: POSITIVE
Ionization: ESI
Fragmentation mode: HCD
Collision energy: 90 % (nominal)
Resolution: 7500
Column name: XBridge C18 3.5um, 2.1x50mm, Waters
Retention time: 4.0 min
Base peak: 189.9823
Precursor m/z: 189.9821
Precursor type: [M+H]+
m/z	relative intensity	assigned
62.9632	11	CClO+
63.0228	92	C5H3+
74.015	78	C6H2+
75.0228	27	C6H3+
84.9839	133	C4H2Cl+
86.9632	252	C3ClO+
90.0338	93	C6H4N+
99	22	C5H4Cl+
100.0181	113	C7H2N+
108.9838	999	C6H2Cl+
109.9912	19	C6H3Cl+
110.9997	26	C6H4Cl+
112.9786	22	C5H2ClO+
118.0284	64	C7H4NO+
120.9604	70	C4H3Cl2+
126.9942	54	C6H4ClO+
128.0024	42	C6H5ClO+
135.9945	87	C7H3ClN+
139.0056	73	C6H4ClN2+
144.9604	453	C6H3Cl2+
146.9766	15	C6H5Cl2+
154.0047	27	C7H5ClNO+
162.971	81	C6H5Cl2O+
164.0009	515	C7H3ClN3+
171.9714	277	C7H4Cl2N+
189.9817	24	C7H6Cl2NO+
