Mass spectrum: Olanzapine; LC-ESI-QFT; MS2; CE: 90; R=35000; [M+H]+
Name: Olanzapine
Name: 2-methyl-4-(4-methylpiperazin-1-yl)-5H-thieno[3,2-c][1,5]benzodiazepine
Formula: C17H20N4S
Exact mass: 312.14087
SMILES: CC1=CC2=C(NC3=CC=CC=C3N=C2S1)N4CCN(CC4)C
InChI: InChI=1S/C17H20N4S/c1-12-11-13-16(21-9-7-20(2)8-10-21)18-14-5-3-4-6-15(14)19-17(13)22-12/h3-6,11,18H,7-10H2,1-2H3
Instrument: Q Exactive Plus Orbitrap Thermo Scientific
Instrument type: LC-ESI-QFT
Ms type: MS2
Ion mode: POSITIVE
Ionization: ESI
Fragmentation mode: HCD
Collision energy: 90 (nominal)
Resolution: 35000
Column name: XBridge C18 3.5um, 2.1x50mm, Waters
Retention time: 3.1 min
Base peak: 313.1474
Precursor m/z: 313.1481
Precursor type: [M+H]+
m/z	relative intensity	assigned
53.0386	3	C4H5+
54.0338	1	C3H4N+
55.0543	4	C4H7+
56.0495	13	C3H6N+
58.0651	76	C3H8N+
58.995	14	C2H3S+
65.0386	20	C5H5+
67.0416	3	C4H5N+
68.0495	3	C4H6N+
68.9793	8	C3HS+
69.0573	6	C4H7N+
70.0652	4	C4H8N+
70.995	17	C3H3S+
72.0808	6	C4H10N+
77.0384	3	C6H5+
78.0338	4	C5H4N+
79.0542	4	C6H7+
80.0495	3	C5H6N+
82.0651	9	C5H8N+
82.995	4	C4H3S+
83.0603	1	C4H7N2+
84.0808	81	C5H10N+
85.0106	8	C4H5S+
85.076	25	C4H9N2+
89.0385	4	C7H5+
90.0338	4	C6H4N+
91.0543	4	C7H7+
92.0495	24	C6H6N+
93.0574	2	C6H7N+
94.0654	4	C6H8N+
95.0491	5	C6H7O+
95.9902	1	C4H2NS+
96.0445	3	C5H6NO+
97.0107	3	C5H5S+
99.0916	1	C5H11N2+
101.1074	3	C5H13N2+
102.0465	3	C8H6+
103.0543	2	C8H7+
104.0495	16	C7H6N+
105.0448	2	C6H5N2+
106.0652	13	C7H8N+
107.0605	1	C6H7N2+
109.0107	24	C6H5S+
110.0059	10	C5H4NS+
111.0264	2	C6H7S+
115.0543	131	C9H7+
116.0495	14	C8H6N+
117.0573	21	C8H7N+
117.0701	2	C9H9+
118.0525	8	C7H6N2+
118.0651	9	C8H8N+
119.0605	12	C7H7N2+
120.0808	2	C8H10N+
121.0108	1	C7H5S+
122.006	2	C6H4NS+
122.0185	11	C7H6S+
123.0137	1	C6H5NS+
127.0417	7	C9H5N+
128.0495	12	C9H6N+
128.0621	5	C10H8+
129.0448	6	C8H5N2+
129.0573	4	C9H7N+
130.0402	2	C7H4N3+
130.0653	2	C9H8N+
131.0603	7	C8H7N2+
132.0683	13	C8H8N2+
133.076	3	C8H9N2+
134.0059	1	C7H4NS+
134.06	5	C8H8NO+
136.0216	4	C7H6NS+
140.0495	30	C10H6N+
141.0574	5	C10H7N+
142.0532	7	C9H6N2+
142.0652	96	C10H8N+
143.0604	16	C9H7N2+
143.0729	4	C10H9N+
144.0559	1	C8H6N3+
145.0108	1	C9H5S+
145.0648	2	C10H9O+
145.0762	2	C9H9N2+
146.006	14	C8H4NS+
146.0185	59	C9H6S+
146.0599	4	C9H8NO+
147.014	4	C8H5NS+
147.0553	1	C8H7N2O+
148.0214	6	C8H6NS+
149.0057	2	C8H5OS+
149.0295	1	C8H7NS+
150.0135	6	C8H6OS+
152.0496	11	C11H6N+
153.0445	7	C10H5N2+
153.0574	27	C11H7N+
154.0527	11	C10H6N2+
154.0652	41	C11H8N+
155.0604	39	C10H7N2+
155.0731	3	C11H9N+
156.0681	5	C10H8N2+
157.0524	2	C10H7NO+
157.0759	2	C10H9N2+
158.0839	2	C10H10N2+
159.0264	5	C10H7S+
160.0219	4	C9H6NS+
160.0341	7	C10H8S+
160.0759	9	C10H10NO+
161.017	4	C8H5N2S+
162.0371	2	C9H8NS+
166.0521	1	C11H6N2+
166.0651	3	C12H8N+
167.0605	21	C11H7N2+
167.0725	5	C12H9N+
168.0683	62	C11H8N2+
169.0761	465	C11H9N2+
170.0059	2	C10H4NS+
170.0601	15	C11H8NO+
170.0711	1	C10H8N3+
170.084	2	C11H10N2+
171.0138	28	C10H5NS+
171.0553	2	C10H7N2O+
172.0217	6	C10H6NS+
173.017	32	C9H5N2S+
173.0292	24	C10H7NS+
174.0248	7	C9H6N2S+
175.0091	2	C9H5NOS+
179.0604	278	C12H7N2+
180.0683	243	C12H8N2+
181.076	38	C12H9N2+
182.0716	8	C11H8N3+
182.0839	16	C12H10N2+
183.0792	8	C11H9N3+
183.0917	7	C12H11N2+
184.0216	2	C11H6NS+
184.0871	11	C11H10N3+
185.0295	34	C11H7NS+
185.071	14	C11H9N2O+
186.0372	222	C11H8NS+
187.0324	6	C10H7N2S+
187.045	13	C11H9NS+
188.0167	1	C10H6NOS+
189.0243	7	C10H7NOS+
192.068	5	C13H8N2+
193.0636	1	C12H7N3+
193.0762	10	C13H9N2+
194.0714	42	C12H8N3+
194.084	3	C13H10N2+
195.0792	56	C12H9N3+
195.0918	24	C13H11N2+
196.0212	5	C12H6NS+
196.0871	30	C12H10N3+
196.0995	7	C13H12N2+
197.0169	36	C11H5N2S+
197.0293	6	C12H7NS+
197.071	6	C12H9N2O+
197.095	4	C12H11N3+
197.1074	3	C13H13N2+
198.0247	999	C11H6N2S+
199.0329	3	C11H7N2S+
199.045	13	C12H9NS+
199.0865	9	C12H11N2O+
200.0403	9	C11H8N2S+
200.0529	14	C12H10NS+
201.048	27	C11H9N2S+
202.0326	1	C11H8NOS+
205.0762	9	C14H9N2+
206.0716	5	C13H8N3+
206.0838	8	C14H10N2+
207.0793	29	C13H9N3+
207.0913	3	C14H11N2+
208.0872	22	C13H10N3+
209.095	8	C13H11N3+
210.1028	1	C13H12N3+
211.0326	85	C12H7N2S+
212.0404	207	C12H8N2S+
213.0482	91	C12H9N2S+
214.056	20	C12H10N2S+
215.0639	5	C12H11N2S+
220.0871	21	C14H10N3+
221.0951	13	C14H11N3+
221.1064	2	C15H13N2+
222.1027	142	C14H12N3+
223.0326	2	C13H7N2S+
223.1106	12	C14H13N3+
224.0405	15	C13H8N2S+
224.1184	19	C14H14N3+
225.0483	15	C13H9N2S+
226.0434	9	C12H8N3S+
226.056	26	C13H10N2S+
227.0523	2	C12H9N3S+
227.0637	21	C13H11N2S+
228.059	14	C12H10N3S+
228.0717	3	C13H12N2S+
229.0437	1	C12H9N2OS+
229.067	2	C12H11N3S+
229.0789	2	C13H13N2S+
233.0947	1	C15H11N3+
234.1029	4	C15H12N3+
237.0482	6	C14H9N2S+
238.0432	2	C13H8N3S+
238.0561	6	C14H10N2S+
239.0512	5	C13H9N3S+
239.0639	19	C14H11N2S+
240.0592	51	C13H10N3S+
241.067	13	C13H11N3S+
241.0787	1	C14H13N2S+
248.1184	8	C16H14N3+
250.1338	4	C16H16N3+
252.0589	3	C14H10N3S+
253.0667	1	C14H11N3S+
254.0748	20	C14H12N3S+
255.0821	4	C14H13N3S+
256.0904	43	C14H14N3S+
266.0747	10	C15H12N3S+
280.0905	1	C16H14N3S+
282.1058	6	C16H16N3S+
