Mass spectrum: Fluvastatin; LC-ESI-QFT; MS2; CE: 30; R=35000; [M+H]+
Name: Fluvastatin
Name: (3R,5S)-7-[3-(4-fluorophenyl)-1-isopropyl-2-indolyl]-3,5-dihydroxy-6-heptenoic acid
Formula: C24H26FNO4
Exact mass: 411.18459
SMILES: O=C(O)C[C@H](O)C[C@H](O)/C=C/c2c(c1ccccc1n2C(C)C)c3ccc(F)cc3
InChI: InChI=1S/C24H26FNO4/c1-15(2)26-21-6-4-3-5-20(21)24(16-7-9-17(25)10-8-16)22(26)12-11-18(27)13-19(28)14-23(29)30/h3-12,15,18-19,27-28H,13-14H2,1-2H3,(H,29,30)/b12-11+/t18-,19-/m1/s1
Instrument: Q Exactive Orbitrap Thermo Scientific
Instrument type: LC-ESI-QFT
Ms type: MS2
Ion mode: POSITIVE
Ionization: ESI
Fragmentation mode: HCD
Collision energy: 30 (nominal)
Resolution: 35000
Column name: XBridge C18 3.5um, 2.1x50mm, Waters
Retention time: 13.5 min
Base peak: 412.1916
Precursor m/z: 412.1919
Precursor type: [M+H]+
m/z	relative intensity	assigned
55.0179	2	C3H3O+
71.0491	2	C4H7O+
81.0335	4	C5H5O+
89.0233	3	C3H5O3+
95.0491	19	C6H7O+
97.0283	9	C5H5O2+
115.0389	3	C5H7O3+
123.0439	63	C7H7O2+
141.0545	41	C7H9O3+
159.0652	2	C7H11O4+
196.0677	4	C14H9F+
197.0761	5	C14H10F+
204.0802	3	C15H10N+
211.0793	1	C14H10FN+
212.087	19	C14H11FN+
222.0705	5	C15H9FN+
223.0792	29	C15H10FN+
224.087	941	C15H11FN+
238.1026	26	C16H13FN+
248.0864	1	C17H11FN+
250.1027	1	C17H13FN+
253.1265	11	C17H16FN+
254.1339	19	C17H17FN+
264.1184	19	C18H15FN+
266.1339	999	C18H17FN+
267.1375	1	C18H19O2+
274.1016	4	C19H13FN+
280.1495	46	C19H19FN+
281.1535	5	C19H21O2+
288.1183	1	C20H15FN+
290.1332	5	C20H17FN+
292.1497	5	C20H19FN+
306.165	26	C21H21FN+
334.1236	10	C21H17FNO2+
351.1268	5	C21H18FNO3+
352.1339	8	C21H19FNO3+
369.1366	7	C21H20FNO4+
370.1454	4	C21H21FNO4+
376.1707	22	C24H23FNO2+
394.1813	28	C24H25FNO3+
412.1915	4	C24H27FNO4+
