Mass spectrum: Diethofencarb; LC-ESI-QFT; MS2; CE: 120%; R=15000; [M+H]+
Name: Diethofencarb
Name: propan-2-yl N-(3,4-diethoxyphenyl)carbamate
Formula: C14H21NO4
Exact mass: 267.1470582
SMILES: CCOC1=C(C=C(C=C1)NC(=O)OC(C)C)OCC
InChI: InChI=1S/C14H21NO4/c1-5-17-12-8-7-11(9-13(12)18-6-2)15-14(16)19-10(3)4/h7-10H,5-6H2,1-4H3,(H,15,16)
Instrument: Exploris 240 Thermo Scientific
Instrument type: LC-ESI-QFT
Ms type: MS2
Ion mode: POSITIVE
Ionization: ESI
Fragmentation mode: HCD
Collision energy: 120 % (nominal)
Resolution: 15000
Column name: XBridge C18 3.5um, 2.1x50mm, Waters
Retention time: 8.416 min
Base peak: 226.1072
Precursor m/z: 268.1543
Precursor type: [M+H]+
m/z	relative intensity	assigned
51.0229	85	C4H3+
53.0386	296	C4H5+
68.0493	76	C4H6N+
79.018	122	C5H3O+
80.0131	299	C4H2NO+
80.0495	525	C5H6N+
81.0335	106	C5H5O+
96.0443	232	C5H6NO+
97.0284	663	C5H5O2+
106.0287	320	C6H4NO+
108.0443	103	C6H6NO+
124.0393	999	C6H6NO2+
