Mass spectrum: Doxycycline; LC-ESI-QFT; MS2; CE: 60; R=35000; [M+H]+
Name: Doxycycline
Name: 8-carbamoyl-10-(dimethylazaniumyl)-4,6a,7,11-tetrahydroxy-12-methyl-6,9-dioxo-10a,11,11a,12-tetrahydro-10H-tetracen-5-olate
Formula: C22H24N2O8
Exact mass: 444.15327
SMILES: CC1C2C(C3C(C(=O)C(=C(C3(C(=O)C2=C(C4=C1C=CC=C4O)O)O)O)C(=O)N)N(C)C)O
InChI: InChI=1S/C22H24N2O8/c1-7-8-5-4-6-9(25)11(8)16(26)12-10(7)17(27)14-15(24(2)3)18(28)13(21(23)31)20(30)22(14,32)19(12)29/h4-7,10,14-15,17,25-27,30,32H,1-3H3,(H2,23,31)
Instrument: Q Exactive Plus Orbitrap Thermo Scientific
Instrument type: LC-ESI-QFT
Ms type: MS2
Ion mode: POSITIVE
Ionization: ESI
Fragmentation mode: HCD
Collision energy: 60 (nominal)
Resolution: 35000
Column name: XBridge C18 3.5um, 2.1x50mm, Waters
Retention time: 6.4 min
Base peak: 445.1595
Precursor m/z: 445.1605
Precursor type: [M+H]+
m/z	relative intensity	assigned
53.0022	2	C3HO+
53.0386	2	C4H5+
55.0179	53	C3H3O+
56.0495	32	C3H6N+
57.0335	1	C3H5O+
57.0573	1	C3H7N+
58.0651	356	C3H8N+
65.0385	2	C5H5+
67.0178	7	C4H3O+
68.0494	16	C4H6N+
68.9971	26	C3HO2+
69.0336	9	C4H5O+
70.0651	73	C4H8N+
71.0127	1	C3H3O2+
71.0366	1	C3H5NO+
71.0729	1	C4H9N+
72.0444	59	C3H6NO+
72.0807	11	C4H10N+
74.06	7	C3H8NO+
77.0383	1	C6H5+
79.0178	2	C5H3O+
80.0495	2	C5H6N+
81.0335	13	C5H5O+
81.0573	1	C5H7N+
82.0651	21	C5H8N+
83.0127	34	C4H3O2+
83.0366	2	C4H5NO+
84.0444	100	C4H6NO+
84.0808	21	C5H10N+
85.0284	7	C4H5O2+
85.0522	2	C4H7NO+
86.0601	24	C4H8NO+
91.0542	7	C7H7+
93.0335	5	C6H5O+
93.07	2	C7H9+
94.0652	11	C6H8N+
95.0128	35	C5H3O2+
96.0444	5	C5H6NO+
96.0808	2	C6H10N+
97.0285	8	C5H5O2+
97.0522	1	C5H7NO+
98.0601	999	C5H8NO+
99.0076	19	C4H3O3+
100.0757	49	C5H10NO+
103.0543	2	C8H7+
105.0698	1	C8H9+
107.0127	7	C6H3O2+
107.0492	10	C7H7O+
108.0444	8	C6H6NO+
108.0808	5	C7H10N+
109.0284	17	C6H5O2+
110.0601	10	C6H8NO+
111.0077	22	C5H3O3+
111.0441	2	C6H7O2+
112.0756	8	C6H10NO+
114.055	7	C5H8NO2+
115.054	8	C9H7+
117.0697	17	C9H9+
118.0652	1	C8H8N+
119.0129	1	C7H3O2+
119.0494	5	C8H7O+
119.0856	2	C9H11+
121.0284	26	C7H5O2+
121.0648	23	C8H9O+
122.0601	7	C7H8NO+
123.0076	20	C6H3O3+
123.0441	2	C7H7O2+
124.0393	37	C6H6NO2+
124.0757	6	C7H10NO+
125.0234	10	C6H5O3+
126.055	162	C6H8NO2+
127.0026	7	C5H3O4+
127.0544	5	C10H7+
128.062	4	C10H8+
128.0705	6	C6H10NO2+
129.0697	16	C10H9+
131.0491	22	C9H7O+
131.0857	7	C10H11+
133.0283	4	C8H5O2+
133.065	11	C9H9O+
134.06	2	C8H8NO+
135.0076	5	C7H3O3+
136.0758	18	C8H10NO+
137.0233	59	C7H5O3+
138.0553	5	C7H8NO2+
139.0263	10	C6H5NO3+
139.0388	12	C7H7O3+
139.0541	1	C11H7+
140.0706	5	C7H10NO2+
141.0699	7	C11H9+
142.0499	4	C6H8NO3+
143.0855	2	C11H11+
144.0569	4	C10H8O+
144.0658	1	C6H10NO3+
145.0648	161	C10H9O+
147.0077	5	C8H3O3+
147.0441	15	C9H7O2+
147.0805	52	C10H11O+
148.0521	1	C9H8O2+
149.0234	15	C8H5O3+
149.0597	18	C9H9O2+
150.055	5	C8H8NO2+
151.0029	1	C7H3O4+
151.039	5	C8H7O3+
152.0342	18	C7H6NO3+
152.0617	2	C12H8+
152.0705	9	C8H10NO2+
153.0182	24	C7H5O4+
153.07	3	C12H9+
154.0499	187	C7H8NO3+
155.0338	2	C7H7O4+
155.049	5	C11H7O+
155.0604	17	C10H7N2+
155.0853	4	C12H11+
157.037	7	C6H7NO4+
157.0649	36	C11H9O+
157.1014	2	C12H13+
158.0726	9	C11H10O+
159.044	14	C10H7O2+
159.0805	38	C11H11O+
160.0519	19	C10H8O2+
161.0235	8	C9H5O3+
161.0598	15	C10H9O2+
162.0553	2	C9H8NO2+
163.0025	14	C8H3O4+
163.039	5	C9H7O3+
163.0627	2	C9H9NO2+
164.0707	19	C9H10NO2+
165.0183	67	C8H5O4+
165.07	9	C13H9+
166.05	2	C8H8NO3+
166.0776	1	C13H10+
166.0861	1	C9H12NO2+
167.0341	12	C8H7O4+
167.0858	17	C13H11+
168.0568	6	C12H8O+
169.0648	11	C12H9O+
169.1012	4	C13H13+
170.0448	5	C7H8NO4+
170.0728	2	C12H10O+
171.0805	43	C12H11O+
172.0604	4	C7H10NO4+
173.0233	5	C10H5O3+
173.0598	85	C11H9O2+
174.0676	53	C11H10O2+
175.0754	158	C11H11O2+
177.0182	1	C9H5O4+
177.0698	9	C14H9+
178.0499	6	C9H8NO3+
178.0778	10	C14H10+
178.9974	2	C8H3O5+
179.0341	7	C9H7O4+
179.0855	30	C14H11+
180.0578	2	C13H8O+
180.0655	14	C9H10NO3+
181.0132	12	C8H5O5+
181.037	2	C8H7NO4+
181.065	13	C13H9O+
181.1013	5	C14H13+
182.0444	2	C8H8NO4+
182.0727	10	C13H10O+
182.0812	23	C9H12NO3+
183.0291	9	C8H7O5+
183.0806	26	C13H11O+
185.0597	29	C12H9O2+
185.0961	31	C13H13O+
186.0677	5	C12H10O2+
187.0754	192	C12H11O2+
189.0183	5	C10H5O4+
189.0546	2	C11H9O3+
189.0701	2	C15H9+
190.05	6	C10H8NO3+
190.0776	2	C15H10+
190.998	1	C9H3O5+
191.0339	7	C10H7O4+
191.0857	14	C15H11+
192.0653	11	C10H10NO3+
193.0134	10	C9H5O5+
193.0651	10	C14H9O+
193.1014	2	C15H13+
194.0447	1	C9H8NO4+
194.0727	12	C14H10O+
195.0805	122	C14H11O+
196.0522	9	C13H8O2+
196.0602	2	C9H10NO4+
197.0599	18	C13H9O2+
197.0961	36	C14H13O+
198.0676	42	C13H10O2+
199.0754	93	C13H11O2+
200.0467	2	C12H8O3+
201.0547	698	C12H9O3+
202.078	1	C16H10+
203.0342	1	C11H7O4+
203.0703	8	C12H11O3+
203.0858	4	C16H11+
204.0655	5	C11H10NO3+
205.0494	7	C11H9O4+
205.0654	9	C15H9O+
206.0444	1	C10H8NO4+
206.0726	6	C15H10O+
207.0806	40	C15H11O+
208.0516	5	C14H8O2+
208.0607	6	C10H10NO4+
209.0084	2	C9H5O6+
209.0597	13	C14H9O2+
209.0963	21	C15H13O+
210.0676	29	C14H10O2+
210.0765	6	C10H12NO4+
211.0754	197	C14H11O2+
212.047	7	C13H8O3+
212.0831	6	C14H12O2+
213.0549	31	C13H9O3+
213.091	129	C14H13O2+
214.0626	1	C13H10O3+
215.07	16	C13H11O3+
217.0135	1	C11H5O5+
217.0496	2	C12H9O4+
217.0655	9	C16H9O+
218.0724	1	C16H10O+
219.0289	15	C11H7O5+
219.0653	38	C12H11O4+
219.0806	34	C16H11O+
220.0516	1	C15H8O2+
221.0598	29	C15H9O2+
221.0704	2	C14H9N2O+
221.0962	8	C16H13O+
222.0674	14	C15H10O2+
222.0764	1	C11H12NO4+
223.0754	131	C15H11O2+
224.0469	38	C14H8O3+
224.0832	7	C15H12O2+
225.0542	16	C14H9O3+
225.0911	100	C15H13O2+
226.0625	173	C14H10O3+
227.0704	79	C14H11O3+
229.0501	11	C13H9O4+
229.0637	1	C17H9O+
229.0858	10	C14H13O3+
231.0654	5	C13H11O4+
231.0803	10	C17H11O+
232.0607	6	C12H10NO4+
233.0596	9	C16H9O2+
233.0809	1	C13H13O4+
234.0677	14	C16H10O2+
235.0754	76	C16H11O2+
236.047	11	C15H8O3+
236.0833	5	C16H12O2+
237.0549	17	C15H9O3+
237.0911	64	C16H13O2+
238.0625	45	C15H10O3+
239.0703	260	C15H11O3+
240.0416	5	C14H8O4+
240.0782	42	C15H12O3+
241.086	280	C15H13O3+
242.0574	69	C14H10O4+
243.0654	9	C14H11O4+
243.1018	11	C15H15O3+
245.0599	2	C17H9O2+
246.0677	1	C17H10O2+
247.0756	58	C17H11O2+
248.0468	4	C16H8O3+
248.0829	4	C17H12O2+
249.0547	40	C16H9O3+
249.0909	26	C17H13O2+
250.0624	80	C16H10O3+
251.0703	104	C16H11O3+
252.0418	443	C15H8O4+
253.0496	10	C15H9O4+
253.0859	123	C16H13O3+
254.0575	39	C15H10O4+
255.0653	46	C15H11O4+
257.0597	2	C18H9O2+
257.0809	34	C15H13O4+
259.0753	9	C18H11O2+
259.0964	2	C15H15O4+
260.0465	5	C17H8O3+
261.0548	10	C17H9O3+
262.0626	15	C17H10O3+
263.0704	69	C17H11O3+
264.078	8	C17H12O3+
265.0493	7	C16H9O4+
265.086	105	C17H13O3+
266.0576	12	C16H10O4+
267.0652	651	C16H11O4+
268.0368	21	C15H8O5+
268.0723	1	C16H12O4+
268.1332	10	C17H18NO2+
269.0809	153	C16H13O4+
270.0525	21	C15H10O5+
271.06	14	C15H11O5+
273.0544	9	C18H9O3+
275.0702	57	C18H11O3+
276.0409	10	C17H8O4+
277.0496	6	C17H9O4+
277.0858	29	C18H13O3+
278.0574	128	C17H10O4+
279.0652	64	C17H11O4+
279.0894	4	C17H13NO3+
280.0731	17	C17H12O4+
280.0962	4	C17H14NO3+
281.0811	33	C17H13O4+
281.1045	33	C17H15NO3+
282.0519	9	C16H10O5+
282.1122	1	C17H16NO3+
283.0598	12	C16H11O5+
283.0966	7	C17H15O4+
284.0684	2	C16H12O5+
285.0758	120	C16H13O5+
286.144	1	C17H20NO3+
287.0928	1	C16H15O5+
289.0502	1	C18H9O4+
290.0576	10	C18H10O4+
291.0652	55	C18H11O4+
292.0729	10	C18H12O4+
292.0974	1	C18H14NO3+
293.0808	206	C18H13O4+
294.0524	19	C17H10O5+
294.1125	10	C18H16NO3+
295.0602	8	C17H11O5+
295.0957	2	C18H15O4+
296.1283	19	C18H18NO3+
297.0754	8	C17H13O5+
298.1075	6	C17H16NO4+
299.0919	8	C17H15O5+
301.0496	1	C19H9O4+
303.0653	63	C19H11O4+
304.0361	5	C18H8O5+
305.0443	4	C18H9O5+
305.0805	2	C19H13O4+
305.1047	6	C19H15NO3+
306.0524	153	C18H10O5+
307.0599	6	C18H11O5+
308.0675	6	C18H12O5+
308.1277	5	C19H18NO3+
309.0759	12	C18H13O5+
311.091	9	C18H15O5+
314.1384	2	C18H20NO4+
315.0873	1	C17H15O6+
318.1124	2	C20H16NO3+
319.0599	31	C19H11O5+
321.0758	173	C19H13O5+
321.0984	13	C19H15NO4+
322.0469	13	C18H10O6+
324.0631	1	C18H12O6+
331.0595	6	C20H11O5+
334.0472	145	C19H10O6+
336.1229	5	C20H18NO4+
337.0709	20	C19H13O6+
339.086	17	C19H15O6+
347.0549	6	C20H11O6+
349.0702	27	C20H13O6+
349.0937	5	C20H15NO5+
350.0418	6	C19H10O7+
352.057	6	C19H12O7+
364.1179	2	C21H18NO5+
367.0816	18	C20H15O7+
377.088	1	C21H15NO6+
