Mass spectrum: Nortriptyline; LC-ESI-QFT; MS2; CE: 30; R=35000; [M+H]+
Name: Nortriptyline
Name: 3-(5,6-dihydrodibenzo[2,1-b:2`,1`-f][7]annulen-11-ylidene)-N-methylpropan-1-amine
Formula: C19H21N
Exact mass: 263.16740
SMILES: CNCCC=C1C2=CC=CC=C2CCC3=CC=CC=C31
InChI: InChI=1S/C19H21N/c1-20-14-6-11-19-17-9-4-2-7-15(17)12-13-16-8-3-5-10-18(16)19/h2-5,7-11,20H,6,12-14H2,1H3
Instrument: Q Exactive Plus Orbitrap Thermo Scientific
Instrument type: LC-ESI-QFT
Ms type: MS2
Ion mode: POSITIVE
Ionization: ESI
Fragmentation mode: HCD
Collision energy: 30 (nominal)
Resolution: 35000
Column name: XBridge C18 3.5um, 2.1x50mm, Waters
Retention time: 8.5 min
Base peak: 264.1741
Precursor m/z: 264.1747
Precursor type: [M+H]+
m/z	relative intensity	assigned
55.0542	1	C4H7+
70.0651	67	C4H8N+
91.0542	435	C7H7+
105.0699	387	C8H9+
115.0539	3	C9H7+
117.0698	352	C9H9+
129.0698	28	C10H9+
141.0698	13	C11H9+
155.0855	117	C12H11+
167.0855	1	C13H11+
178.0777	26	C14H10+
179.0855	35	C14H11+
191.0855	178	C15H11+
192.0933	4	C15H12+
193.1012	11	C15H13+
202.0775	1	C16H10+
203.0851	1	C16H11+
204.0935	13	C16H12+
205.1013	63	C16H13+
207.1169	20	C16H15+
217.1013	1	C17H13+
218.109	57	C17H14+
231.117	8	C18H15+
233.1325	999	C18H17+
264.1747	631	C19H22N+
