Mass spectrum: Corticosterone; LC-ESI-QFT; MS2; CE: 150; R=35000; [M+H]+
Name: Corticosterone
Name: 11b,21-Dihydroxyprogesterone
Name: (8S,9S,10R,11S,13S,14S,17S)-11-hydroxy-17-(2-hydroxyacetyl)-10,13-dimethyl-1,2,6,7,8,9,11,12,14,15,16,17-dodecahydrocyclopenta[a]phenanthren-3-one
Formula: C21H30O4
Exact mass: 346.21441
SMILES: O=C4\C=C2/[C@]([C@H]1[C@@H](O)C[C@@]3([C@@H](C(=O)CO)CC[C@H]3[C@@H]1CC2)C)(C)CC4
InChI: InChI=1S/C21H30O4/c1-20-8-7-13(23)9-12(20)3-4-14-15-5-6-16(18(25)11-22)21(15,2)10-17(24)19(14)20/h9,14-17,19,22,24H,3-8,10-11H2,1-2H3/t14-,15-,16+,17-,19+,20-,21-/m0/s1
Instrument: Q Exactive Plus Orbitrap Thermo Scientific
Instrument type: LC-ESI-QFT
Ms type: MS2
Ion mode: POSITIVE
Ionization: ESI
Fragmentation mode: HCD
Collision energy: 150 (nominal)
Resolution: 35000
Column name: XBridge C18 3.5um, 2.1x50mm, Waters
Retention time: 8.9 min
Base peak: 347.2214
Precursor m/z: 347.2217
Precursor type: [M+H]+
m/z	relative intensity	assigned
50.0151	80	C4H2+
51.023	104	C4H3+
52.0309	1	C4H4+
53.0022	43	C3HO+
53.0386	258	C4H5+
53.9975	8	C2NO+
55.0179	100	C3H3O+
55.0542	162	C4H7+
57.0335	17	C3H5O+
62.0151	2	C5H2+
63.0229	34	C5H3+
65.0386	522	C5H5+
66.01	2	C4H2O+
66.0464	27	C5H6+
67.0542	192	C5H7+
67.9892	7	C3O2+
68.997	1	C3HO2+
69.0335	17	C4H5O+
69.0699	13	C5H9+
74.0148	1	C6H2+
75.0229	5	C6H3+
76.0308	1	C6H4+
77.0385	237	C6H5+
78.0464	90	C6H6+
79.0542	418	C6H7+
80.062	8	C6H8+
81.0335	40	C5H5O+
81.0699	52	C6H9+
82.0413	10	C5H6O+
83.0491	33	C5H7O+
89.0386	39	C7H5+
90.0464	6	C7H6+
91.0542	999	C7H7+
92.062	7	C7H8+
93.0699	28	C7H9+
94.0413	32	C6H6O+
95.0492	620	C6H7O+
97.0648	32	C6H9O+
102.0464	40	C8H6+
103.0542	175	C8H7+
104.062	27	C8H8+
105.0448	356	C6H5N2+
105.0699	153	C8H9+
106.0416	1	C7H6O+
107.0491	43	C7H7O+
108.057	5	C7H8O+
109.0649	15	C7H9O+
113.0385	1	C9H5+
115.0542	615	C9H7+
116.0621	52	C9H8+
117.0699	85	C9H9+
119.0491	7	C8H7O+
119.0609	1	C7H7N2+
119.0856	13	C9H11+
120.0572	2	C8H8O+
121.0649	13	C8H9O+
123.0801	1	C8H11O+
126.0464	13	C10H6+
127.0542	35	C10H7+
128.0621	443	C10H8+
129.0699	122	C10H9+
130.0778	11	C10H10+
131.0492	29	C9H7O+
131.0856	13	C10H11+
132.0571	8	C9H8O+
133.0648	12	C9H9O+
139.0541	12	C11H7+
140.0618	2	C11H8+
141.0699	194	C11H9+
142.0778	18	C11H10+
143.0856	9	C11H11+
144.057	7	C10H8O+
145.0648	39	C10H9O+
147.0805	24	C10H11O+
148.0883	5	C10H12O+
150.0463	1	C12H6+
151.0544	2	C12H7+
152.0621	124	C12H8+
153.0699	90	C12H9+
154.0775	10	C12H10+
155.0604	70	C10H7N2+
155.0855	18	C12H11+
156.0932	1	C12H12+
157.0648	6	C11H9O+
159.0803	1	C11H11O+
163.0542	2	C13H7+
164.0619	6	C13H8+
165.0699	125	C13H9+
166.0778	14	C13H10+
167.0856	13	C13H11+
168.0568	1	C12H8O+
169.0647	12	C12H9O+
176.0621	8	C14H8+
177.0698	8	C14H9+
178.0777	54	C14H10+
179.0603	2	C12H7N2+
179.0856	9	C14H11+
181.065	2	C13H9O+
189.0699	19	C15H9+
190.0777	9	C15H10+
191.0856	13	C15H11+
192.0932	3	C15H12+
202.0776	11	C16H10+
203.0856	2	C16H11+
215.0856	2	C17H11+
