Mass spectrum: Perfluoropropanesulfonic Acid; LC-ESI-QFT; MS2; CE: 15%; R=15000; [M-H]-
Name: Perfluoropropanesulfonic Acid
Name: 1,1,2,2,3,3,3-Heptafluoro-1-propanesulfonic acid
Name: 1,1,2,2,3,3,3-heptafluoropropane-1-sulfonic acid
Formula: C3HF7O3S
Exact mass: 249.9535
SMILES: C(C(F)(F)F)(C(F)(F)S(=O)(=O)O)(F)F
InChI: InChI=1S/C3HF7O3S/c4-1(5,2(6,7)8)3(9,10)14(11,12)13/h(H,11,12,13)
Instrument: Orbitrap Exploris 240 Thermo Scientific
Instrument type: LC-ESI-QFT
Ms type: MS2
Ion mode: NEGATIVE
Ionization: ESI
Fragmentation mode: HCD
Collision energy: 15 % (nominal)
Resolution: 15000
Column name: Atlantis C18 3um, 3.0x150mm, Waters
Retention time: 19.265 min
Base peak: 248.9461
Precursor m/z: 248.9462
Precursor type: [M-H]-
Precursor intensity: 742265984
m/z	relative intensity	assigned
248.9462	999	C3F7O3S-
