Mass spectrum: Pinoxaden-TP NOA 407854; LC-ESI-QFT; MS2; CE: 150%; R=17500; [M+H]+
Name: Pinoxaden-TP NOA 407854
Name: 8-(2,6-Diethyl-4-methylphenyl)tetrahydropyrazolo(1,2-d)(1,4,5)oxadiazepine-7,9-dione
Formula: C18H24N2O3
Exact mass: 316.1787
SMILES: CCC1=CC(C)=CC(CC)=C1C1C(=O)N2CCOCCN2C1=O
InChI: InChI=1S/C18H24N2O3/c1-4-13-10-12(3)11-14(5-2)15(13)16-17(21)19-6-8-23-9-7-20(19)18(16)22/h10-11,16H,4-9H2,1-3H3
Instrument: Q Exactive Plus Orbitrap Thermo Scientific
Instrument type: LC-ESI-QFT
Ms type: MS2
Ion mode: POSITIVE
Ionization: ESI
Fragmentation mode: HCD
Collision energy: 150 % (nominal)
Resolution: 17500
Column name: XBridge C18 3.5um, 2.1x50mm, Waters
Retention time: 7.136 min
Base peak: 317.186
Precursor m/z: 317.186
Precursor type: [M+H]+
m/z	relative intensity	assigned
50.015	23	C4H2+
51.0229	69	C4H3+
53.0386	62	C4H5+
55.0179	10	C3H3O+
57.0447	12	C2H5N2+
63.0228	26	C5H3+
65.0386	235	C5H5+
66.0465	8	C5H6+
68.997	8	C3HO2+
71.0603	16	C3H7N2+
75.0229	8	C6H3+
77.0386	69	C6H5+
78.0464	134	C6H6+
79.0542	74	C6H7+
85.0398	15	C3H5N2O+
89.0386	131	C7H5+
90.0464	32	C7H6+
91.0543	743	C7H7+
93.0699	5	C7H9+
95.0492	208	C6H7O+
102.0463	76	C8H6+
103.0542	271	C8H7+
104.0621	50	C8H8+
105.0448	123	C6H5N2+
105.0699	66	C8H9+
115.0543	999	C9H7+
116.0496	46	C8H6N+
116.062	175	C9H8+
117.0573	57	C8H7N+
117.0698	108	C9H9+
118.0649	16	C8H8N+
119.0497	8	C8H7O+
119.0855	9	C9H11+
126.0463	14	C10H6+
127.0543	39	C10H7+
128.0621	376	C10H8+
129.0449	12	C8H5N2+
129.0596	8	
129.0698	106	C10H9+
130.0652	134	C9H8N+
130.076	6	
131.0494	15	C9H7O+
131.0853	35	C10H11+
139.0545	10	C11H7+
140.0495	33	C10H6N+
141.0586	10	C10H7N+
141.0698	56	C11H9+
142.065	21	C10H8N+
143.073	36	C10H9N+
144.0573	12	C10H8O+
144.0807	41	C10H10N+
145.065	44	C10H9O+
146.0601	9	C9H8NO+
152.062	21	C12H8+
153.0698	10	C12H9+
154.0653	20	C11H8N+
155.0603	70	C10H7N2+
156.0809	13	C11H10N+
157.0651	8	C11H9O+
158.0968	6	C11H12N+
167.0729	7	C12H9N+
