Mass spectrum: Nafcillin; LC-ESI-QFT; MS2; CE: 90; R=35000; [M+H]+
Name: Nafcillin
Name: (2S,5R,6R)-6-[(2-ethoxynaphthalene-1-carbonyl)amino]-3,3-dimethyl-7-oxo-4-thia-1-azabicyclo[3.2.0]heptane-2-carboxylic acid
Formula: C21H22N2O5S
Exact mass: 414.12494
SMILES: CCOC1=C(C(=O)N[C@H]2[C@H]3SC(C)(C)[C@@H](N3C2=O)C(O)=O)C2=CC=CC=C2C=C1
InChI: InChI=1S/C21H22N2O5S/c1-4-28-13-10-9-11-7-5-6-8-12(11)14(13)17(24)22-15-18(25)23-16(20(26)27)21(2,3)29-19(15)23/h5-10,15-16,19H,4H2,1-3H3,(H,22,24)(H,26,27)/t15-,16+,19-/m1/s1
Instrument: Q Exactive Plus Orbitrap Thermo Scientific
Instrument type: LC-ESI-QFT
Ms type: MS2
Ion mode: POSITIVE
Ionization: ESI
Fragmentation mode: HCD
Collision energy: 90 (nominal)
Resolution: 35000
Column name: XBridge C18 3.5um, 2.1x50mm, Waters
Retention time: 9.4 min
Base peak: 415.1318
Precursor m/z: 415.1322
Precursor type: [M+H]+
m/z	relative intensity	assigned
53.0386	1	C4H5+
54.0338	1	C3H4N+
58.995	2	C2H3S+
65.0385	4	C5H5+
69.0447	1	C3H5N2+
70.065	1	C4H8N+
87.0263	6	C4H7S+
89.0385	13	C7H5+
94.0651	1	C6H8N+
102.0008	1	C3H4NOS+
103.0541	2	C8H7+
114.0373	6	C5H8NS+
114.0461	2	C9H6+
115.0542	999	C9H7+
117.0697	2	C9H9+
126.0462	2	C2H10N2O2S+
127.0542	4	C10H7+
128.062	15	C10H8+
129.0698	8	C10H9+
130.0413	3	C9H6O+
139.0541	1	C11H7+
140.0496	1	C10H6N+
140.0619	1	C11H8+
141.0573	2	C10H7N+
141.0698	7	C11H9+
142.0413	5	C10H6O+
143.0491	452	C10H7O+
144.0565	2	C2H12N2O3S+
145.0647	11	C10H9O+
152.062	14	C12H8+
153.0572	5	C11H7N+
153.0698	13	C12H9+
154.065	19	C11H8N+
154.0778	1	C12H10+
155.0497	4	C11H7O+
155.0603	22	C10H7N2+
155.0854	2	C12H11+
157.0647	2	C11H9O+
165.0696	2	C13H9+
166.0653	1	C12H8N+
167.0731	3	C12H9N+
168.0568	2	C12H8O+
169.0522	9	C11H7NO+
169.0644	2	C4H13N2O3S+
169.0758	2	C11H9N2+
170.06	2	C11H8NO+
171.044	246	C3H11N2O4S+
181.0647	20	C13H9O+
181.0759	3	C12H9N2+
182.06	84	C12H8NO+
182.0836	9	C12H10N2+
183.0678	6	C12H9NO+
183.0916	5	C12H11N2+
193.076	2	C13H9N2+
195.0917	1	C13H11N2+
196.0754	1	C13H10NO+
206.0838	1	C14H10N2+
207.0554	1	C13H7N2O+
209.0709	28	C13H9N2O+
210.0787	1	C13H10N2O+
221.071	6	C14H9N2O+
222.0784	1	C14H10N2O+
