Mass spectrum: Isoproturon-monodemethyl; LC-ESI-ITFT; MS2; CE: 45%; R=7500; [M+H]+
Name: Isoproturon-monodemethyl
Name: 1-(4-Isoprophenyl)-3-methylurea
Formula: C11H16N2O
Exact mass: 192.1263
SMILES: N(C(=O)Nc1ccc(cc1)C(C)C)C
InChI: InChI=1S/C11H16N2O/c1-8(2)9-4-6-10(7-5-9)13-11(14)12-3/h4-8H,1-3H3,(H2,12,13,14)
Instrument: LTQ Orbitrap XL Thermo Scientific
Instrument type: LC-ESI-ITFT
Ms type: MS2
Ion mode: POSITIVE
Ionization: ESI
Fragmentation mode: HCD
Collision energy: 45 % (nominal)
Resolution: 7500
Column name: XBridge C18 3.5um, 2.1x50mm, Waters
Retention time: 8.6 min
Base peak: 193.1341
Precursor m/z: 193.1335
Precursor type: [M+H]+
m/z	relative intensity	assigned
58.0285	10	C2H4NO+
77.0389	7	C6H5+
93.0571	3	C6H7N+
94.0652	736	C6H8N+
134.0965	29	C9H12N+
136.1122	546	C9H14N+
151.0867	999	C8H11N2O+
162.0913	22	C10H12NO+
193.133	407	C11H17N2O+
