Mass spectrum: Gabapentin Related Compound E; LC-ESI-QFT; MS2; CE: 75; R=35000; [M-H]-
Name: Gabapentin Related Compound E
Name: 1-(carboxymethyl)cyclohexanecarboxylic acid
Name: 1-(carboxymethyl)cyclohexane-1-carboxylic acid
Formula: C9H14O4
Exact mass: 186.08921
SMILES: C1CC[C@@](CC1)(C(=O)O)CC(=O)O
InChI: InChI=1S/C9H14O4/c10-7(11)6-9(8(12)13)4-2-1-3-5-9/h1-6H2,(H,10,11)(H,12,13)
Instrument: Q Exactive Plus Orbitrap Thermo Scientific
Instrument type: LC-ESI-QFT
Ms type: MS2
Ion mode: NEGATIVE
Ionization: ESI
Fragmentation mode: HCD
Collision energy: 75 (nominal)
Resolution: 35000
Column name: XBridge C18 3.5um, 2.1x50mm, Waters
Retention time: 6.9 min
Base peak: 185.0817
Precursor m/z: 185.0819
Precursor type: [M-H]-
m/z	relative intensity	assigned
123.0817	13	C8H11O-
141.0923	999	C8H13O2-
167.0715	14	C9H11O3-
185.0819	16	C9H13O4-
