Mass spectrum: Tritosulfuron; LC-ESI-ITFT; MS2; CE: 30%; R=7500; [M+H]+
Name: Tritosulfuron
Name: N-{[4-methoxy-6-(trifluoromethyl)-1,3,5-triazin-2-yl]carbamoyl}-2-(trifluoromethyl)benzenesulfonamide
Formula: C13H9F6N5O4S
Exact mass: 445.0279
SMILES: c1c(S(=O)(=O)NC(Nc2nc(nc(n2)C(F)(F)F)OC)=O)c(C(F)(F)F)ccc1
InChI: InChI=1S/C13H9F6N5O4S/c1-28-11-21-8(13(17,18)19)20-9(23-11)22-10(25)24-29(26,27)7-5-3-2-4-6(7)12(14,15)16/h2-5H,1H3,(H2,20,21,22,23,24,25)
Instrument: LTQ Orbitrap XL Thermo Scientific
Instrument type: LC-ESI-ITFT
Ms type: MS2
Ion mode: POSITIVE
Ionization: ESI
Fragmentation mode: HCD
Collision energy: 30 % (nominal)
Resolution: 7500
Column name: XBridge C18 3.5um, 2.1x50mm, Waters
Retention time: 10.8 min
Base peak: 446.0345
Precursor m/z: 446.0352
Precursor type: [M+H]+
m/z	relative intensity	assigned
83.024	2	C3H3N2O+
110.0212	5	C3H3F3N+
127.0478	9	C3H6F3N2+
145.0261	158	C7H4F3+
173.0322	2	C7H4F3N2+
186.0024	16	C2H4F2N4O2S+
195.049	999	C10H7F2NO+
206.0083	11	C5F4N5+
208.9881	243	C7H4F3O2S+
220.0445	10	C11H6F2N2O+
221.0282	409	C11H5F2NO2+
231.9876	27	C8H4F2NO3S+
363.0169	6	C12H7F4N4O3S+
403.0303	8	C12H9F6N4O3S+
446.0351	8	C13H10F6N5O4S+
