Mass spectrum: Anabaenopeptin NZ857; LC-ESI-QFT; MS2; CE: 90%; R=17500; [M+H]+
Name: Anabaenopeptin NZ857
Name: 2-[[12-butan-2-yl-3,9-bis[2-(4-hydroxyphenyl)ethyl]-7-methyl-2,5,8,11,14-pentaoxo-1,4,7,10,13-pentazacyclononadec-15-yl]carbamoylamino]-3-phenylpropanoic acid
Formula: C45H59N7O10
Exact mass: 857.4323
SMILES: CCC(C)C1C(=O)NC(C(=O)N(CC(=O)NC(C(=O)NCCCCC(C(=O)N1)NC(=O)NC(CC2=CC=CC=C2)C(=O)O)CCC3=CC=C(C=C3)O)C)CCC4=CC=C(C=C4)O
InChI: InChI=1S/C45H59N7O10/c1-4-28(2)39-42(58)48-36(24-18-30-15-21-33(54)22-16-30)43(59)52(3)27-38(55)47-35(23-17-29-13-19-32(53)20-14-29)40(56)46-25-9-8-12-34(41(57)51-39)49-45(62)50-37(44(60)61)26-31-10-6-5-7-11-31/h5-7,10-11,13-16,19-22,28,34-37,39,53-54H,4,8-9,12,17-18,23-27H2,1-3H3,(H,46,56)(H,47,55)(H,48,58)(H,51,57)(H,60,61)(H2,49,50,62)
Instrument: Q Exactive Plus Orbitrap Thermo Scientific
Instrument type: LC-ESI-QFT
Ms type: MS2
Ion mode: POSITIVE
Ionization: ESI
Fragmentation mode: HCD
Collision energy: 90 % (nominal)
Resolution: 17500
Column name: XBridge C18 3.5um, 2.1x50mm, Waters
Retention time: 7.905 min
Base peak: 164.9845
Precursor m/z: 858.4396
Precursor type: [M+H]+
m/z	relative intensity	assigned
65.0388	6	C5H5+
67.0542	35	C5H7+
68.0496	4	C4H6N+
69.0574	6	C4H7N+
69.0699	30	C5H9+
70.0651	4	C4H8N+
71.0491	5	C4H7O+
79.0543	16	C6H7+
80.0495	3	C5H6N+
82.0651	17	C5H8N+
84.0808	999	C5H10N+
86.06	87	C4H8NO+
86.0964	41	C5H12N+
91.0543	101	C7H7+
93.0699	23	C7H9+
94.0653	6	C6H8N+
95.0492	49	C6H7O+
96.0805	6	C6H10N+
99.0186	4	C3H3N2O2+
100.0756	3	C5H10NO+
101.0347	6	C3H5N2O2+
103.0543	130	C8H7+
105.0447	14	C6H5N2+
105.0699	30	C8H9+
106.0655	2	C7H8N+
107.0492	214	C7H7O+
109.076	2	C6H9N2+
110.0602	13	C6H8NO+
111.0916	8	C6H11N2+
112.0754	6	C6H10NO+
114.0548	4	C5H8NO2+
115.0539	2	C9H7+
118.0652	8	C8H8N+
119.0493	24	C8H7O+
120.0808	322	C8H10N+
121.0648	5	C8H9O+
123.0441	19	C7H7O2+
127.0863	5	C6H11N2O+
128.0709	3	C6H10NO2+
129.0694	2	C10H9+
129.1022	8	C6H13N2O+
130.0652	4	C9H8N+
133.0648	4	C9H9O+
135.0678	5	C8H9NO+
136.0758	26	C8H10NO+
140.0702	10	C7H10NO2+
144.0449	2	C9H6NO+
146.0601	15	C9H8NO+
152.1437	2	C10H18N+
155.0814	5	C7H11N2O2+
160.0755	3	C10H10NO+
