Mass spectrum: Amoxicillin; LC-ESI-QFT; MS2; CE: 15; R=35000; [M+H]+
Name: Amoxicillin
Name: Amoxicillin anhydrous
Name: (2S,5R,6R)-6-[[(2R)-2-amino-2-(4-hydroxyphenyl)-1-oxoethyl]amino]-3,3-dimethyl-7-oxo-4-thia-1-azabicyclo[3.2.0]heptane-2-carboxylic acid
Formula: C16H19N3O5S
Exact mass: 365.10454
SMILES: CC1(C)S[C@@H]2[C@H](NC(=O)[C@H](N)C3=CC=C(O)C=C3)C(=O)N2[C@H]1C(O)=O
InChI: InChI=1S/C16H19N3O5S/c1-16(2)11(15(23)24)19-13(22)10(14(19)25-16)18-12(21)9(17)7-3-5-8(20)6-4-7/h3-6,9-11,14,20H,17H2,1-2H3,(H,18,21)(H,23,24)/t9-,10-,11+,14-/m1/s1
Instrument: Q Exactive Orbitrap Thermo Scientific
Instrument type: LC-ESI-QFT
Ms type: MS2
Ion mode: POSITIVE
Ionization: ESI
Fragmentation mode: HCD
Collision energy: 15 (nominal)
Resolution: 35000
Column name: XBridge C18 3.5um, 2.1x50mm, Waters
Retention time: 2.3 min
Base peak: 366.1119
Precursor m/z: 366.1118
Precursor type: [M+H]+
m/z	relative intensity	assigned
70.0287	2	C3H4NO+
70.0651	24	C4H8N+
86.0058	2	C3H4NS+
96.0444	2	C5H6NO+
114.0007	501	C4H4NOS+
116.0705	7	C5H10NO2+
122.0599	2	C7H8NO+
128.0705	2	C6H10NO2+
134.0357	1	C8H6O2+
137.0052	5	C7H5OS+
139.0213	4	C7H7OS+
139.0865	1	C7H11N2O+
142.0499	8	C6H8NO3+
160.0426	103	C6H10NO2S+
165.0659	3	C8H9N2O2+
167.0814	6	C8H11N2O2+
180.0476	33	C9H10NOS+
183.0762	4	C8H11N2O3+
185.0922	1	C8H13N2O3+
190.0498	27	C10H8NO3+
193.0609	11	C9H9N2O3+
206.0268	3	C10H8NO2S+
208.0427	852	C10H10NO2S+
211.0712	105	C9H11N2O4+
215.0484	11	C8H11N2O3S+
216.102	11	C13H14NO2+
220.0966	1	C12H14NO3+
227.0486	2	C9H11N2O3S+
228.0324	3	C9H10NO4S+
234.0218	60	C11H8NO3S+
252.032	1	C11H10NO4S+
255.0435	23	C10H11N2O4S+
260.0738	1	C14H14NO2S+
275.0849	3	C14H15N2O2S+
277.1007	23	C14H17N2O2S+
280.0643	1	C13H14NO4S+
303.0802	12	C15H15N2O3S+
303.0962	1	C15H15N2O5+
305.0953	61	C15H17N2O3S+
321.0903	65	C15H17N2O4S+
331.0748	14	
349.0852	999	C16H17N2O5S+
