Mass spectrum: Prothioconazole-desethio; LC-ESI-QFT; MS2; CE: 75; R=35000; [M-H]-
Name: Prothioconazole-desethio
Name: 1H-1,2,4-Triazole-1-ethanol, alpha-(1-chlorocyclopropyl)-alpha-((2-chlorophenyl)methyl)-
Name: 2-(1-chloranylcyclopropyl)-1-(2-chlorophenyl)-3-(1,2,4-triazol-1-yl)propan-2-ol
Formula: C14H15Cl2N3O
Exact mass: 311.05922
SMILES: Clc1ccccc1CC(O)(C2(Cl)CC2)Cn3ncnc3
InChI: InChI=1S/C14H15Cl2N3O/c15-12-4-2-1-3-11(12)7-14(20,13(16)5-6-13)8-19-10-17-9-18-19/h1-4,9-10,20H,5-8H2
Instrument: Q Exactive Orbitrap Thermo Scientific
Instrument type: LC-ESI-QFT
Ms type: MS2
Ion mode: NEGATIVE
Ionization: ESI
Fragmentation mode: HCD
Collision energy: 75 (nominal)
Resolution: 35000
Column name: XBridge C18 3.5um, 2.1x50mm, Waters
Retention time: 12.2 min
Base peak: 356.0576
Precursor m/z: 310.0519
Precursor type: [M-H]-
m/z	relative intensity	assigned
68.0254	999	C2H2N3-
68.0271	51	CH7ClN-
95.0138	60	C5H3O2-
125.0161	57	C7H6Cl-
130.0174	45	C7H2N2O-
151.04	306	Cl2H11N5-
151.0763	54	C6H14ClNO-
