Mass spectrum: Venlafaxine N-Oxide; LC-ESI-QFT; MS2; CE: 30; R=35000; [M+H]+
Name: Venlafaxine N-Oxide
Name: 2-(1-hydroxycyclohexyl)-2-(4-methoxyphenyl)-N,N-dimethylethanamine oxide
Formula: C17H27NO3
Exact mass: 293.19909
SMILES: OC1(C(C2=CC=C(OC)C=C2)C[N+](C)(C)[O-])CCCCC1
InChI: InChI=1S/C17H27NO3/c1-18(2,20)13-16(17(19)11-5-4-6-12-17)14-7-9-15(21-3)10-8-14/h7-10,16,19H,4-6,11-13H2,1-3H3
Instrument: Q Exactive Plus Orbitrap Thermo Scientific
Instrument type: LC-ESI-QFT
Ms type: MS2
Ion mode: POSITIVE
Ionization: ESI
Fragmentation mode: HCD
Collision energy: 30 (nominal)
Resolution: 35000
Column name: XBridge C18 3.5um, 2.1x50mm, Waters
Retention time: 6.6 min
Base peak: 294.206
Precursor m/z: 294.2064
Precursor type: [M+H]+
m/z	relative intensity	assigned
58.0651	1	C3H8N+
62.06	17	C2H8NO+
81.0697	1	C6H9+
99.0804	9	C6H11O+
121.0647	999	C8H9O+
122.0682	1	C3H10N2O3+
135.0804	18	C9H11O+
147.0804	6	C10H11O+
151.0755	1	C9H11O2+
159.0805	1	C11H11O+
163.099	1	C10H13NO+
173.0959	2	C12H13O+
178.1226	77	C11H16NO+
215.143	64	C15H19O+
233.1536	28	C15H21O2+
276.1959	6	C17H26NO2+
294.2063	208	C17H28NO3+
