Mass spectrum: Imidacloprid-urea; LC-ESI-ITFT; MS2; CE: 90%; R=7500; [M+H]+
Name: Imidacloprid-urea
Name: 1-[(6-Chloropyridin-3-yl)methyl]imidazolidin-2-one
Formula: C9H10ClN3O
Exact mass: 211.0512
SMILES: Clc2ncc(CN1CCNC1=O)cc2
InChI: InChI=1S/C9H10ClN3O/c10-8-2-1-7(5-12-8)6-13-4-3-11-9(13)14/h1-2,5H,3-4,6H2,(H,11,14)
Instrument: LTQ Orbitrap XL Thermo Scientific
Instrument type: LC-ESI-ITFT
Ms type: MS2
Ion mode: POSITIVE
Ionization: ESI
Fragmentation mode: HCD
Collision energy: 90 % (nominal)
Resolution: 7500
Column name: XBridge C18 3.5um, 2.1x50mm, Waters
Retention time: 4.6 min
Base peak: 212.0588
Precursor m/z: 212.0585
Precursor type: [M+H]+
m/z	relative intensity	assigned
56.0495	47	C3H6N+
63.023	9	C5H3+
65.0386	79	C5H5+
67.0542	4	C5H7+
70.0288	45	C3H4NO+
71.0605	12	C3H7N2+
72.9837	7	C3H2Cl+
78.0339	24	C5H4N+
79.0543	12	C6H7+
80.0495	16	C5H6N+
85.0397	12	C3H5N2O+
90.0339	124	C6H4N+
91.0416	31	C6H5N+
92.0496	200	C6H6N+
93.0574	158	C6H7N+
96.0445	82	C5H6NO+
98.9997	89	C5H4Cl+
99.0554	393	C4H7N2O+
101.0153	9	C5H6Cl+
104.0494	4	C7H6N+
105.045	6	C6H5N2+
106.0652	30	C7H8N+
107.0604	43	C6H7N2+
109.0524	21	C6H7NO+
110.0601	51	C6H8NO+
114.0106	245	C5H5ClN+
116.0499	3	C8H6N+
118.0525	10	C7H6N2+
120.0684	14	C7H8N2+
121.0762	7	C7H9N2+
123.0554	21	C6H7N2O+
126.0106	848	C6H5ClN+
127.0185	214	C6H6ClN+
128.0262	999	C6H7ClN+
131.0605	10	C8H7N2+
132.0685	13	C8H8N2+
133.0761	39	C8H9N2+
140.0268	3	C7H7ClN+
141.0215	31	C6H6ClN2+
142.0054	17	C6H5ClNO+
142.0293	11	C6H7ClN2+
144.0212	47	C6H7ClNO+
151.0063	7	C7H4ClN2+
153.0214	3	C7H6ClN2+
154.0295	5	C7H7ClN2+
167.0371	2	C8H8ClN2+
169.0161	8	C7H6ClN2O+
169.0528	5	C8H10ClN2+
176.082	12	C9H10N3O+
194.0484	15	C9H9ClN3+
195.0319	4	C9H8ClN2O+
