Mass spectrum: Rifaximin; LC-ESI-QFT; MS2; CE: 90; R=35000; [M-H]-
Name: Rifaximin
Name: (7S,9E,11S,12R,13S,14R,15R,16R,17S,18S,19E,21Z)-2,15,17,36-Tetrahydroxy-11-methoxy-3,7,12,14,16,18,22,30-octamethyl-6,23-dioxo-8,37-dioxa-24,27,33-triazahexacyclo[23.10.1.14,7.05,35.026,34.027, 32]heptatriaconta-1(35),2,4,9,19,21,25(36),26(34),28,30,32-undecaen-13-yl acetate
Formula: C43H51N3O11
Exact mass: 785.35236
SMILES: CC1C=CC=C(C(=O)NC2=C(C3=C(C4=C(C(=C3O)C)OC(C4=O)(OC=CC(C(C(C(C(C(C1O)C)O)C)OC(=O)C)C)OC)C)C5=C2N6C=CC(=CC6=N5)C)O)C
InChI: InChI=1S/C43H51N3O11/c1-19-14-16-46-28(18-19)44-32-29-30-37(50)25(7)40-31(29)41(52)43(9,57-40)55-17-15-27(54-10)22(4)39(56-26(8)47)24(6)36(49)23(5)35(48)20(2)12-11-13-21(3)42(53)45-33(34(32)46)38(30)51/h11-18,20,22-24,27,35-36,39,48-51H,1-10H3,(H,45,53)
Instrument: Q Exactive Plus Orbitrap Thermo Scientific
Instrument type: LC-ESI-QFT
Ms type: MS2
Ion mode: NEGATIVE
Ionization: ESI
Fragmentation mode: HCD
Collision energy: 90 (nominal)
Resolution: 35000
Column name: XBridge C18 3.5um, 2.1x50mm, Waters
Retention time: 10.9 min
Base peak: 784.3448
Precursor m/z: 784.3451
Precursor type: [M-H]-
m/z	relative intensity	assigned
55.0189	44	C3H3O-
57.0345	22	C3H5O-
59.0138	999	C2H3O2-
64.0067	24	C3N2-
65.0144	11	C3HN2-
65.0397	18	C5H5-
65.9986	167	C3NO-
68.9982	18	C3HO2-
71.0139	184	C3H3O2-
81.0345	16	C5H5O-
83.0503	82	C5H7O-
85.0295	18	C4H5O2-
104.0505	25	C7H6N-
105.0707	16	C8H9-
106.0423	14	C7H6O-
107.0502	75	C7H7O-
107.0614	16	C6H7N2-
108.0455	177	C6H6NO-
121.0533	52	C7H7NO-
121.0658	128	C8H9O-
123.0813	13	C8H11O-
131.0617	18	C8H7N2-
136.0766	22	C8H10NO-
155.0378	52	C10H5NO-
156.0566	197	C9H6N3-
157.0406	14	C9H5N2O-
168.0457	14	C11H6NO-
169.0408	21	C10H5N2O-
184.0402	15	C11H6NO2-
196.0406	42	C12H6NO2-
197.0355	10	C11H5N2O2-
200.0354	14	C11H6NO3-
205.0769	23	C14H9N2-
217.0774	14	C15H9N2-
218.072	10	C14H8N3-
220.0647	10	C14H8N2O-
220.0884	19	C14H10N3-
221.0717	14	C14H9N2O-
222.0445	13	C13H6N2O2-
222.0676	11	C13H8N3O-
223.0521	14	C13H7N2O2-
224.0351	22	C13H6NO3-
226.0509	18	C13H8NO3-
231.0927	19	C16H11N2-
232.0877	62	C15H10N3-
233.0724	80	C15H9N2O-
234.08	60	C15H10N2O-
235.0507	16	C14H7N2O2-
235.0749	68	C14H9N3O-
235.0876	127	C15H11N2O-
237.0308	11	C13H5N2O3-
239.0463	22	C13H7N2O3-
241.0615	96	C13H9N2O3-
244.0878	21	C16H10N3-
245.0603	12	C17H9O2-
245.072	40	C16H9N2O-
246.0673	21	C15H8N3O-
246.0799	69	C16H10N2O-
247.0755	21	C15H9N3O-
247.0877	120	C16H11N2O-
248.0588	22	C15H8N2O2-
248.0831	90	C15H10N3O-
249.0675	72	C15H9N2O2-
249.0908	102	C15H11N3O-
249.1027	17	C16H13N2O-
250.0989	119	C15H12N3O-
251.0465	38	C14H7N2O3-
256.0884	11	C17H10N3-
258.0671	14	C16H8N3O-
258.1032	90	C17H12N3-
259.0747	74	C16H9N3O-
259.0876	124	C17H11N2O-
260.0829	146	C16H10N3O-
260.095	23	C17H12N2O-
261.0669	73	C16H9N2O2-
261.0906	68	C16H11N3O-
261.1031	22	C17H13N2O-
262.062	18	C15H8N3O2-
262.0747	144	C16H10N2O2-
262.0985	202	C16H12N3O-
263.0707	118	C15H9N3O2-
263.0811	108	
265.0615	39	C15H9N2O3-
267.0407	13	C14H7N2O4-
271.0746	15	C17H9N3O-
271.0876	21	C18H11N2O-
272.083	86	C17H10N3O-
273.0674	42	C17H9N2O2-
273.0908	54	C17H11N3O-
274.0747	17	C17H10N2O2-
274.0991	54	C17H12N3O-
275.0827	173	C17H11N2O2-
276.0775	161	C16H10N3O2-
276.0906	71	C17H12N2O2-
276.1134	20	C17H14N3O-
277.0853	204	C16H11N3O2-
277.0985	77	C17H13N2O2-
278.0694	15	C16H10N2O3-
278.0934	149	C16H12N3O2-
279.0774	134	C16H11N2O3-
285.0905	63	C18H11N3O-
286.0754	24	C18H10N2O2-
286.0986	248	C18H12N3O-
287.0691	68	C17H9N3O2-
287.0828	104	C18H11N2O2-
288.0778	159	C17H10N3O2-
288.0916	22	C18H12N2O2-
288.1145	41	C18H14N3O-
289.0617	46	C17H9N2O3-
289.0854	128	C17H11N3O2-
289.0987	20	C18H13N2O2-
290.0698	13	C17H10N2O3-
290.0933	146	C17H12N3O2-
291.0772	50	C17H11N2O3-
292.1078	11	C17H14N3O2-
293.0566	16	C16H9N2O4-
294.0884	18	C16H12N3O3-
298.099	21	C19H12N3O-
299.0826	43	C19H11N2O2-
300.0767	81	C18H10N3O2-
301.0843	17	C18H11N3O2-
301.0994	23	C19H13N2O2-
302.0936	155	C18H12N3O2-
303.0779	102	C18H11N2O3-
303.1017	19	C18H13N3O2-
304.0719	101	C17H10N3O3-
304.1091	152	C18H14N3O2-
305.0942	79	C18H13N2O3-
306.0882	306	C17H12N3O3-
313.085	52	C19H11N3O2-
314.0936	121	C19H12N3O2-
315.079	123	C19H11N2O3-
316.0718	148	
317.0791	20	C15H13N2O6-
318.0648	15	C18H10N2O4-
319.0731	24	C18H11N2O4-
330.0884	888	C19H12N3O3-
331.0719	144	C19H11N2O4-
332.1039	70	C19H14N3O3-
333.0884	19	C19H13N2O4-
334.0837	47	C18H12N3O4-
342.0889	24	C20H12N3O3-
343.073	48	C20H11N2O4-
343.096	62	C20H13N3O3-
344.0668	15	C19H10N3O4-
344.103	36	C20H14N3O3-
345.0891	156	C20H13N2O4-
358.0832	109	C20H12N3O4-
359.092	84	C20H13N3O4-
360.0994	118	C20H14N3O4-
382.12	15	C23H16N3O3-
