Mass spectrum: Flufenacet OXA; LC-ESI-ITFT; MS2; CE: 45%; R=7500; [M+H]+
Name: Flufenacet OXA
Name: [(4-Fluorophenyl)(isopropyl)amino](oxo)acetic acid
Formula: C11H12FNO3
Exact mass: 225.0801
SMILES: Fc1ccc(cc1)N(C(C)C)C(=O)C(O)=O
InChI: InChI=1S/C11H12FNO3/c1-7(2)13(10(14)11(15)16)9-5-3-8(12)4-6-9/h3-7H,1-2H3,(H,15,16)
Instrument: LTQ Orbitrap XL Thermo Scientific
Instrument type: LC-ESI-ITFT
Ms type: MS2
Ion mode: POSITIVE
Ionization: ESI
Fragmentation mode: HCD
Collision energy: 45 % (nominal)
Resolution: 7500
Column name: XBridge C18 3.5um, 2.1x50mm, Waters
Retention time: 6.2 min
Base peak: 226.0871
Precursor m/z: 226.0874
Precursor type: [M+H]+
m/z	relative intensity	assigned
83.0291	5	C5H4F+
95.0294	1	C6H4F+
110.0401	750	C6H5FN+
122.0401	12	C7H5FN+
138.035	999	C7H5FNO+
152.0877	1	C9H11FN+
156.0461	1	C7H7FNO2+
180.0821	16	C10H11FNO+
184.0404	22	C8H7FNO3+
