Mass spectrum: Triphenyl phosphate (TPP); LC-ESI-QFT; MS2; CE: 90; R=35000; [M+H]+
Name: Triphenyl phosphate (TPP)
Name: Triphenyl phosphate
Name: Triphenoxyphosphine oxide
Formula: C18H15O4P
Exact mass: 326.07080
SMILES: C1=CC=C(C=C1)OP(=O)(OC2=CC=CC=C2)OC3=CC=CC=C3
InChI: InChI=1S/C18H15O4P/c19-23(20-16-10-4-1-5-11-16,21-17-12-6-2-7-13-17)22-18-14-8-3-9-15-18/h1-15H
Instrument: Q Exactive Plus Orbitrap Thermo Scientific
Instrument type: LC-ESI-QFT
Ms type: MS2
Ion mode: POSITIVE
Ionization: ESI
Fragmentation mode: HCD
Collision energy: 90 (nominal)
Resolution: 35000
Column name: XBridge C18 3.5um, 2.1x50mm, Waters
Retention time: 13.1 min
Base peak: 327.0775
Precursor m/z: 327.0781
Precursor type: [M+H]+
m/z	relative intensity	assigned
50.0151	68	C4H2+
51.023	40	C4H3+
53.0386	136	C4H5+
55.0179	7	C3H3O+
56.9889	1	C2H2P+
65.0022	6	C4HO+
65.0386	36	C5H5+
67.0543	3	C5H7+
74.015	2	C6H2+
75.0227	2	C6H3+
77.0385	408	C6H5+
81.0335	16	C5H5O+
91.0543	1	C7H7+
92.0257	9	C6H4O+
93.0335	3	C6H5O+
94.0413	12	C6H6O+
95.0492	434	C6H7O+
98.9842	8	H4O4P+
101.0151	2	C4H6OP+
103.0543	2	C8H7+
105.0448	299	C6H5N2+
106.0419	1	C3H9NOP+
109.0649	2	C7H9O+
111.0443	1	C6H7O2+
115.0542	18	C9H7+
121.0285	2	C7H5O2+
125.0385	1	C10H5+
126.0465	3	C10H6+
127.0543	15	C10H7+
128.0621	4	C10H8+
133.0202	16	C8H6P+
138.9944	14	C6H4O2P+
139.0543	11	C11H7+
140.0023	2	C6H5O2P+
140.0622	6	C11H8+
141.0699	18	C11H9+
142.0779	2	C11H10+
145.0648	10	C10H9O+
150.0465	17	C12H6+
151.0543	48	C12H7+
152.0621	999	C12H8+
153.0699	30	C12H9+
155.0604	26	C10H7N2+
157.005	5	C6H6O3P+
157.0202	1	C10H6P+
159.0358	8	C10H8P+
168.057	354	C12H8O+
169.0648	76	C12H9O+
170.0725	2	C12H10O+
175.0155	22	C6H8O4P+
179.0604	36	C12H7N2+
186.0232	5	C11H7OP+
187.0308	29	C11H8OP+
200.0622	1	C16H8+
202.0778	32	C16H10+
213.0697	2	C17H9+
215.0257	27	C12H8O2P+
215.0857	2	C17H11+
226.0778	64	C18H10+
227.0856	37	C18H11+
228.0934	28	C18H12+
233.0364	13	C12H10O3P+
244.0885	3	C18H12O+
251.0463	1	C12H12O4P+
