Mass spectrum: Benzophenone-3; LC-ESI-ITFT; MS2; CE: 15%; R=7500; [M+H]+
Name: Benzophenone-3
Name: 2-Hydroxy-4-methoxybenzophenone
Name: (2-hydroxy-4-methoxy-phenyl)-phenyl-methanone
Formula: C14H12O3
Exact mass: 228.0786
SMILES: c1(C(c2ccccc2)=O)c(cc(OC)cc1)O
InChI: InChI=1S/C14H12O3/c1-17-11-7-8-12(13(15)9-11)14(16)10-5-3-2-4-6-10/h2-9,15H,1H3
Instrument: LTQ Orbitrap XL Thermo Scientific
Instrument type: LC-ESI-ITFT
Ms type: MS2
Ion mode: POSITIVE
Ionization: ESI
Fragmentation mode: HCD
Collision energy: 15 % (nominal)
Resolution: 7500
Column name: XBridge C18 3.5um, 2.1x50mm, Waters
Retention time: 12.1 min
Base peak: 229.0859
Precursor m/z: 229.0859
Precursor type: [M+H]+
m/z	relative intensity	assigned
105.0335	3	C7H5O+
151.0388	9	C8H7O3+
229.0859	999	C14H13O3+
