Mass spectrum: Rosuvastatin; LC-ESI-ITFT; MS2; CE: 75%; R=7500; [M+H]+
Name: Rosuvastatin
Name: (E,3R,5S)-7-[4-(4-fluorophenyl)-2-[methyl(methylsulfonyl)amino]-6-propan-2-ylpyrimidin-5-yl]-3,5-dihydroxyhept-6-enoic acid
Formula: C22H28FN3O6S
Exact mass: 481.16828
SMILES: CC(C)C1=NC(=NC(=C1/C=C/[C@H](C[C@H](CC(=O)O)O)O)C2=CC=C(C=C2)F)N(C)S(=O)(=O)C
InChI: InChI=1S/C22H28FN3O6S/c1-13(2)20-18(10-9-16(27)11-17(28)12-19(29)30)21(14-5-7-15(23)8-6-14)25-22(24-20)26(3)33(4,31)32/h5-10,13,16-17,27-28H,11-12H2,1-4H3,(H,29,30)/b10-9+/t16-,17-/m1/s1
Instrument: LTQ Orbitrap XL Thermo Scientific
Instrument type: LC-ESI-ITFT
Ms type: MS2
Ion mode: POSITIVE
Ionization: ESI
Fragmentation mode: HCD
Collision energy: 75 % (nominal)
Resolution: 7500
Column name: XBridge C18 3.5um, 2.1x50mm, Waters
Retention time: 9.2 min
Base peak: 482.1762
Precursor m/z: 482.1756
Precursor type: [M+H]+
m/z	relative intensity	assigned
108.0812	43	C7H10N+
109.076	72	C6H9N2+
122.0402	160	C7H5FN+
133.0447	816	C9H6F+
147.0607	114	C10H8F+
148.056	122	C9H7FN+
149.1074	210	C9H13N2+
155.0596	45	C10H7N2+
160.0556	71	C7H12O2S+
173.0515	40	C4H12FNO3S+
174.0718	159	C11H9FN+
175.0561	54	C11H8FO+
175.0818	50	C8H14FNS+
183.0607	42	C13H8F+
186.0711	127	C4H13FN3O2S+
189.0824	226	C11H10FN2+
198.0709	41	C10H14O2S+
199.0776	76	C5H14FN3O2S+
202.1027	163	C13H13FN+
211.0783	64	C6H14FN3O2S+
214.1009	214	C9H16N3OS+
215.0987	66	C13H12FN2+
216.093	168	C12H11FN3+
217.1019	74	C12H12FN3+
225.0823	48	C8H16FNO3S+
226.0895	121	C11H16NO2S+
227.0974	153	C11H17NO2S+
228.0933	240	C18H12+
230.1084	271	C10H18N2O2S+
238.0898	41	C12H16NO2S+
240.093	136	C14H11FN3+
241.1015	155	
242.1088	944	C14H13FN3+
243.1163	201	C11H19N2O2S+
244.1254	98	C8H21FN2O3S+
254.109	502	C12H18N2O2S+
255.1166	286	C9H20FN2O3S+
256.1243	999	C15H15FN3+
257.1311	192	C12H21N2O2S+
258.1404	627	
266.1091	79	C21H14+
268.1243	259	C16H15FN3+
270.1405	460	
272.1557	253	C16H19FN3+
282.1385	70	C14H22N2O2S+
298.1358	65	C17H17FN3O+
300.152	189	C22H20O+
