Mass spectrum: Sulfotep; LC-ESI-QFT; MS2; CE: 180%; R=17500; [M+H]+
Name: Sulfotep
Name: diethoxyphosphinothioyloxy-diethoxy-sulfanylidene-lambda5-phosphane
Formula: C8H20O5P2S2
Exact mass: 322.0227
SMILES: CCOP(=S)(OCC)OP(=S)(OCC)OCC
InChI: InChI=1S/C8H20O5P2S2/c1-5-9-14(16,10-6-2)13-15(17,11-7-3)12-8-4/h5-8H2,1-4H3
Instrument: Exploris 240 Orbitrap Thermo Scientific
Instrument type: LC-ESI-QFT
Ms type: MS2
Ion mode: POSITIVE
Ionization: ESI
Fragmentation mode: HCD
Collision energy: 180 % (nominal)
Resolution: 17500
Column name: XBridge C18 3.5um, 2.1x50mm, Waters
Retention time: 10.996 min
Base peak: 284.0713
Precursor m/z: 323.03
Precursor type: [M+H]+
m/z	relative intensity	assigned
62.9629	113	O2P+
64.9786	999	H2O2P+
78.9402	492	OPS+
80.9736	103	H2O3P+
94.9176	21	PS2+
96.9507	349	H2O2PS+
98.9842	276	H4O4P+
110.9666	37	CH4O2PS+
114.9612	159	H4O3PS+
