Mass spectrum: Olopatadine; LC-ESI-QFT; MS2; CE: 90; R=35000; [M+H]+
Name: Olopatadine
Name: 2-[(11Z)-11-[3-(dimethylazaniumyl)propylidene]-6H-benzo[c][1]benzoxepin-2-yl]acetate
Formula: C21H23NO3
Exact mass: 337.16779
SMILES: CN(C)CC/C=C\1/C2=CC=CC=C2COC3=C1C=C(C=C3)CC(=O)O
InChI: InChI=1S/C21H23NO3/c1-22(2)11-5-8-18-17-7-4-3-6-16(17)14-25-20-10-9-15(12-19(18)20)13-21(23)24/h3-4,6-10,12H,5,11,13-14H2,1-2H3,(H,23,24)/b18-8-
Instrument: Q Exactive Orbitrap Thermo Scientific
Instrument type: LC-ESI-QFT
Ms type: MS2
Ion mode: POSITIVE
Ionization: ESI
Fragmentation mode: HCD
Collision energy: 90 (nominal)
Resolution: 35000
Column name: XBridge C18 3.5um, 2.1x50mm, Waters
Retention time: 7.1 min
Base peak: 338.1752
Precursor m/z: 338.1751
Precursor type: [M+H]+
m/z	relative intensity	assigned
53.0387	2	C4H5+
56.0495	2	C3H6N+
58.0652	319	C3H8N+
63.0229	3	C5H3+
65.0386	114	C5H5+
67.0542	99	C5H7+
68.0494	2	C4H6N+
69.0335	9	C4H5O+
69.0573	9	C4H7N+
70.0651	171	C4H8N+
71.0127	18	C3H3O2+
71.0729	4	C4H9N+
72.0808	17	C4H10N+
77.0386	58	C6H5+
78.0464	10	C6H6+
79.0542	76	C6H7+
81.0336	9	C5H5O+
81.0699	71	C6H9+
82.0651	28	C5H8N+
84.0808	310	C5H10N+
85.0886	11	C5H11N+
89.0386	11	C7H5+
91.0542	999	C7H7+
92.062	20	C7H8+
93.0698	34	C7H9+
94.0413	29	C6H6O+
95.0491	253	C6H7O+
102.0464	5	C8H6+
103.0542	48	C8H7+
104.0621	13	C8H8+
105.0447	74	C6H5N2+
105.0699	30	C8H9+
107.0492	36	C7H7O+
109.0648	79	C7H9O+
115.0542	796	C9H7+
116.0619	26	C9H8+
117.0698	230	C9H9+
119.0492	77	C8H7O+
120.057	47	C8H8O+
121.0647	28	C8H9O+
123.044	251	C7H7O2+
127.054	11	C10H7+
128.062	222	C10H8+
129.0699	121	C10H9+
131.0492	110	C9H7O+
133.0647	4	C9H9O+
137.0597	80	C8H9O2+
141.0698	314	C11H9+
142.0778	16	C11H10+
143.0731	3	C10H9N+
144.057	41	C10H8O+
145.0648	44	C10H9O+
147.044	9	C9H7O2+
152.0621	38	C12H8+
153.0699	25	C12H9+
154.0776	3	C12H10+
155.0605	42	C10H7N2+
155.0855	4	C12H11+
156.0807	2	C11H10N+
158.0964	3	C11H12N+
161.0599	8	C10H9O2+
164.0616	4	C13H8+
165.0548	32	C9H9O3+
165.0699	178	C13H9+
166.0777	37	C13H10+
167.0854	11	C13H11+
169.0647	10	C12H9O+
170.0964	4	C12H12N+
172.1124	3	C12H14N+
176.0617	19	C14H8+
177.0699	35	C14H9+
178.0777	607	C14H10+
179.0855	277	C14H11+
180.0933	2	C14H12+
181.065	3	C13H9O+
181.1012	3	C14H13+
189.0699	275	C15H9+
190.0777	199	C15H10+
191.0855	219	C15H11+
192.0933	19	C15H12+
193.0646	2	C14H9O+
193.101	10	C15H13+
194.0726	25	C14H10O+
195.0804	4	C14H11O+
201.0696	20	C16H9+
202.0777	347	C16H10+
203.0855	565	C16H11+
204.0935	190	C16H12+
205.0649	90	C15H9O+
205.1011	31	C16H13+
206.0726	20	C15H10O+
207.0805	169	C15H11O+
208.0887	3	C15H12O+
213.0699	27	C17H9+
214.0777	27	C17H10+
215.0856	324	C17H11+
216.0938	17	C17H12+
217.0644	4	C16H9O+
217.101	34	C17H13+
218.0727	114	C16H10O+
219.0805	115	C16H11O+
220.0885	14	C16H12O+
221.0967	9	C16H13O+
226.0777	37	C18H10+
227.0855	123	C18H11+
228.0933	305	C18H12+
229.1013	133	C18H13+
230.1091	2	C18H14+
231.0805	581	C17H11O+
232.0883	108	C17H12O+
233.0961	36	C17H13O+
245.0963	23	C18H13O+
246.1042	4	C18H14O+
263.0712	2	C17H11O3+
