Mass spectrum: 1H-Benzotriazole; LC-ESI-ITFT; MS2; CE: 35%; R=7500; [M-H]-
Name: 1H-Benzotriazole
Formula: C6H5N3
Exact mass: 119.0483
SMILES: c12c(nn[nH]1)cccc2
InChI: InChI=1S/C6H5N3/c1-2-4-6-5(3-1)7-9-8-6/h1-4H,(H,7,8,9)
Instrument: LTQ Orbitrap XL Thermo Scientific
Instrument type: LC-ESI-ITFT
Ms type: MS2
Ion mode: NEGATIVE
Ionization: ESI
Fragmentation mode: CID
Collision energy: 35 % (nominal)
Resolution: 7500
Column name: XBridge C18 3.5um, 2.1x50mm, Waters
Retention time: 4.4 min
Base peak: 174.9561
Precursor m/z: 118.0411
Precursor type: [M-H]-
m/z	relative intensity	assigned
90.0348	2	C6H4N-
118.0412	999	C6H4N3-
