Mass spectrum: Fenofibrate; LC-ESI-ITFT; MS2; CE: 30%; R=7500; [M+H]+
Name: Fenofibrate
Name: isopropyl 2-[4-(4-chlorobenzoyl)phenoxy]-2-methylpropanoate
Name: 2-[4-(4-chlorobenzoyl)phenoxy]-2-methyl-propionic acid isopropyl ester
Formula: C20H21ClO4
Exact mass: 360.1128
SMILES: CC(C)OC(=O)C(C)(C)OC1=CC=C(C=C1)C(=O)C2=CC=C(C=C2)Cl
InChI: InChI=1S/C20H21ClO4/c1-13(2)24-19(23)20(3,4)25-17-11-7-15(8-12-17)18(22)14-5-9-16(21)10-6-14/h5-13H,1-4H3
Instrument: LTQ Orbitrap XL Thermo Scientific
Instrument type: LC-ESI-ITFT
Ms type: MS2
Ion mode: POSITIVE
Ionization: ESI
Fragmentation mode: HCD
Collision energy: 30 % (nominal)
Resolution: 7500
Column name: XBridge C18 3.5um, 2.1x50mm, Waters
Retention time: 15.7 min
Base peak: 361.1212
Precursor m/z: 361.1201
Precursor type: [M+H]+
m/z	relative intensity	assigned
121.0283	44	C7H5O2+
138.9945	117	C7H4ClO+
233.0364	999	C13H10ClO2+
361.12	30	C20H22ClO4+
