Mass spectrum: Lovastatin; LC-ESI-QFT; MS2; CE: 15; R=35000; [M+H]+
Name: Lovastatin
Name: (1S,3R,7S,8S,8aR)-8-{2-[(2R,4R)-4-hydroxy-6-oxotetrahydro-2H-pyran-2-yl]ethyl}-3,7-dimethyl-1,2,3,7,8,8a-hexahydronaphthalen-1-yl (2S)-2-methylbutanoate
Name: (2S)-2-methylbutanoic acid [(1S,3R,7S,8S,8aR)-8-[2-[(2R,4R)-4-hydroxy-6-oxo-2-oxanyl]ethyl]-3,7-dimethyl-1,2,3,7,8,8a-hexahydronaphthalen-1-yl] ester
Formula: C24H36O5
Exact mass: 404.25627
SMILES: O=C(O[C@@H]1[C@H]3C(=C/[C@H](C)C1)\C=C/[C@@H]([C@@H]3CC[C@H]2OC(=O)C[C@H](O)C2)C)[C@@H](C)CC
InChI: InChI=1S/C24H36O5/c1-5-15(3)24(27)29-21-11-14(2)10-17-7-6-16(4)20(23(17)21)9-8-19-12-18(25)13-22(26)28-19/h6-7,10,14-16,18-21,23,25H,5,8-9,11-13H2,1-4H3/t14-,15-,16-,18+,19+,20-,21-,23-/m0/s1
Instrument: Q Exactive Orbitrap Thermo Scientific
Instrument type: LC-ESI-QFT
Ms type: MS2
Ion mode: POSITIVE
Ionization: ESI
Fragmentation mode: HCD
Collision energy: 15 (nominal)
Resolution: 35000
Column name: XBridge C18 3.5um, 2.1x50mm, Waters
Retention time: 15.3 min
Base peak: 405.2632
Precursor m/z: 405.2636
Precursor type: [M+H]+
m/z	relative intensity	assigned
79.0542	39	C6H7+
81.0698	25	C6H9+
83.0492	23	C5H7O+
85.0648	2	C5H9O+
89.0232	3	C3H5O3+
93.0699	2	C7H9+
95.0854	4	C7H11+
97.0647	14	C6H9O+
99.0804	3	C6H11O+
105.0698	7	C8H9+
107.0491	29	C7H7O+
107.0856	38	C8H11+
111.0804	4	C7H11O+
119.0854	7	C9H11+
121.1011	4	C9H13+
125.0596	52	C7H9O2+
127.0753	7	C7H11O2+
128.0616	1	C10H8+
131.0856	24	C10H11+
133.101	7	C10H13+
135.1166	3	C10H15+
143.0703	119	C7H11O3+
143.0855	14	C11H11+
145.1012	38	C11H13+
147.1167	3	C11H15+
151.0753	1	C9H11O2+
157.1012	28	C12H13+
159.1168	60	C12H15+
161.1323	3	C12H17+
165.0909	1	C10H13O2+
169.1011	23	C13H13+
171.1168	35	C13H15+
173.1324	390	C13H17+
179.0849	2	C14H11+
181.1009	3	C14H13+
183.1169	7	C14H15+
185.1326	10	C14H17+
187.1118	2	C13H15O+
189.0909	7	C12H13O2+
191.1066	28	C12H15O2+
193.1013	1	C15H13+
193.1223	3	C12H17O2+
197.1322	11	C15H17+
199.1481	999	C15H19+
201.1637	204	C15H21+
203.1065	8	C13H15O2+
205.1223	14	C13H17O2+
207.1175	1	C16H15+
209.1173	28	C12H17O3+
211.1116	2	C15H15O+
211.1478	3	C16H19+
213.164	2	C16H21+
215.1793	18	C16H23+
223.1482	75	C17H19+
225.1637	473	C17H21+
229.1223	18	C15H17O2+
239.1794	119	C18H23+
243.1744	648	C17H23O+
249.1639	164	C19H21+
257.1539	3	C17H21O2+
267.1744	411	C19H23O+
285.185	980	C19H25O2+
303.1955	310	C19H27O3+
321.2058	13	
