Mass spectrum: Ethofumesate; LC-ESI-ITFT; MS2; CE: 90%; R=7500; [M+H]+
Name: Ethofumesate
Name: (2-ethoxy-3,3-dimethyl-2H-1-benzofuran-5-yl) methanesulfonate
Formula: C13H18O5S
Exact mass: 286.0869
SMILES: S(=O)(=O)(C)O-c(ccc1O2)cc1C(C2OCC)(C)C
InChI: InChI=1S/C13H18O5S/c1-5-16-12-13(2,3)10-8-9(18-19(4,14)15)6-7-11(10)17-12/h6-8,12H,5H2,1-4H3
Instrument: LTQ Orbitrap XL Thermo Scientific
Instrument type: LC-ESI-ITFT
Ms type: MS2
Ion mode: POSITIVE
Ionization: ESI
Fragmentation mode: HCD
Collision energy: 90 % (nominal)
Resolution: 7500
Column name: XBridge C18 3.5um, 2.1x50mm, Waters
Retention time: 10.0 min
Base peak: 309.0774
Precursor m/z: 287.0948
Precursor type: [M+H]+
m/z	relative intensity	assigned
53.0385	27	C4H5+
55.0177	22	C3H3O+
62.9898	11	CH3OS+
65.0383	29	C5H5+
68.997	11	C3HO2+
71.0493	11	C4H7O+
77.0386	359	C6H5+
78.0464	14	C6H6+
79.0543	438	C6H7+
81.0004	29	CH5O2S+
81.0335	25	C5H5O+
81.0699	106	C6H9+
91.0543	847	C7H7+
93.0699	190	C7H9+
94.0413	19	C6H6O+
95.0493	81	C6H7O+
103.0543	874	C8H7+
105.0445	99	C6H5N2+
105.0699	999	C8H9+
106.0777	86	C8H10+
107.0492	204	C7H7O+
109.0285	47	C6H5O2+
109.0649	131	C7H9O+
115.0543	558	C9H7+
116.0623	51	C9H8+
117.0699	94	C9H9+
119.0492	130	C8H7O+
121.0648	456	C8H9O+
123.0443	64	C7H7O2+
127.054	17	C10H7+
133.0649	416	C9H9O+
134.0727	246	C9H10O+
135.0804	60	C9H11O+
137.0596	108	C8H9O2+
143.0497	27	C10H7O+
144.0572	29	C10H8O+
145.0649	52	C10H9O+
147.0441	71	C9H7O2+
155.0599	35	C10H7N2+
161.0596	105	C10H9O2+
162.0678	40	C10H10O2+
173.071	26	C10H9N2O+
