Mass spectrum: Torsemide; LC-ESI-QFT; MS2; CE: 75; R=35000; [M+H]+
Name: Torsemide
Name: SMR000466313
Name: 1-[4-(3-methylanilino)pyridin-3-yl]sulfonyl-3-propan-2-ylurea
Formula: C16H20N4O3S
Exact mass: 348.12561
SMILES: O=S(=O)(c2c(Nc1cc(ccc1)C)ccnc2)NC(=O)NC(C)C
InChI: InChI=1S/C16H20N4O3S/c1-11(2)18-16(21)20-24(22,23)15-10-17-8-7-14(15)19-13-6-4-5-12(3)9-13/h4-11H,1-3H3,(H,17,19)(H2,18,20,21)
Instrument: Q Exactive Orbitrap Thermo Scientific
Instrument type: LC-ESI-QFT
Ms type: MS2
Ion mode: POSITIVE
Ionization: ESI
Fragmentation mode: HCD
Collision energy: 75 (nominal)
Resolution: 35000
Column name: XBridge C18 3.5um, 2.1x50mm, Waters
Retention time: 6.7 min
Base peak: 349.1332
Precursor m/z: 349.1329
Precursor type: [M+H]+
m/z	relative intensity	assigned
67.0417	27	C4H5N+
70.9949	1	C3H3S+
79.0417	3	C5H5N+
81.0447	13	C4H5N2+
83.0492	5	C5H7O+
91.0542	5	C7H7+
92.0495	1	C6H6N+
93.0573	1	C6H7N+
94.0651	10	C6H8N+
95.0492	1	C6H7O+
98.0059	22	C4H4NS+
107.0492	1	C7H7O+
110.06	2	C6H8NO+
114.0464	1	C9H6+
115.0542	5	C9H7+
116.0496	3	C8H6N+
117.0574	4	C8H7N+
122.06	28	C7H8NO+
125.0168	186	C5H5N2S+
126.0009	7	C5H4NOS+
126.0247	9	C5H6N2S+
127.0088	4	C5H5NOS+
127.0325	4	C5H7N2S+
128.0163	5	C5H6NOS+
128.0621	10	C10H8+
129.0699	40	C10H9+
137.0168	41	C6H5N2S+
140.0496	7	C10H6N+
141.0572	13	C10H7N+
142.0527	1	C9H6N2+
143.0735	1	C4H15O3S+
144.0808	3	C10H10N+
150.0252	1	C7H6N2S+
150.0375	3	C8H8NS+
153.012	10	C6H5N2OS+
154.0653	8	C11H8N+
155.0604	5	C10H7N2+
155.0732	4	C11H9N+
156.068	6	C10H8N2+
156.0809	32	C11H10N+
157.0762	1	C10H9N2+
158.0601	3	C10H8NO+
158.0841	1	C10H10N2+
166.0524	1	C11H6N2+
166.0652	1	C12H8N+
167.0605	10	C11H7N2+
167.0728	1	C12H9N+
168.0683	999	C3H12N4O2S+
169.0761	24	C11H9N2+
171.0918	10	C11H11N2+
174.0372	2	C10H8NS+
174.0914	4	C11H12NO+
175.0327	8	C9H7N2S+
176.0403	14	C9H8N2S+
177.0484	3	C9H9N2S+
181.0762	74	C12H9N2+
182.0841	290	C12H10N2+
183.0918	969	C4H15N4O2S+
184.0631	8	C11H8N2O+
185.071	22	C11H9N2O+
186.0789	4	C11H10N2O+
187.0325	1	C10H7N2S+
187.0864	1	C11H11N2O+
191.0638	50	C10H11N2S+
192.048	1	C10H10NOS+
197.0714	9	C12H9N2O+
198.0788	77	C12H10N2O+
199.0867	82	C12H11N2O+
200.0407	4	C11H8N2S+
200.0575	2	C11H8N2O2+
201.0481	51	C11H9N2S+
202.0321	2	C11H8NOS+
202.0561	8	C11H10N2S+
204.0351	3	C10H8N2OS+
205.0435	2	C10H9N2OS+
214.0738	4	C12H10N2O2+
218.0509	1	C11H10N2OS+
219.0589	44	C11H11N2OS+
228.0594	1	C12H10N3S+
229.0432	20	C12H9N2OS+
230.0511	89	C12H10N2OS+
232.0303	1	C11H8N2O2S+
247.0538	45	C12H11N2O2S+
264.0804	68	C12H14N3O2S+
290.0596	4	C13H12N3O3S+
