Mass spectrum: Betamethasone 21; LC-ESI-QFT; MS2; CE: 15; R=35000; [M+H]+
Name: Betamethasone 21
Name: [2-[(8S,9R,10S,11S,13S,14S,16S,17R)-9-fluoro-11,17-dihydroxy-10,13,16-trimethyl-3-oxo-6,7,8,11,12,14,15,16-octahydrocyclopenta[a]phenanthren-17-yl]-2-oxoethyl] acetate
Formula: C24H31FO6
Exact mass: 434.21047
SMILES: O=C(OCC(=O)[C@]3(O)[C@]2(C[C@H](O)[C@]4(F)[C@@]/1(\C(=C/C(=O)\C=C\1)CC[C@H]4[C@@H]2C[C@@H]3C)C)C)C
InChI: InChI=1S/C24H31FO6/c1-13-9-18-17-6-5-15-10-16(27)7-8-21(15,3)23(17,25)19(28)11-22(18,4)24(13,30)20(29)12-31-14(2)26/h7-8,10,13,17-19,28,30H,5-6,9,11-12H2,1-4H3/t13-,17-,18-,19-,21-,22-,23-,24-/m0/s1
Instrument: Q Exactive Orbitrap Thermo Scientific
Instrument type: LC-ESI-QFT
Ms type: MS2
Ion mode: POSITIVE
Ionization: ESI
Fragmentation mode: HCD
Collision energy: 15 (nominal)
Resolution: 35000
Column name: XBridge C18 3.5um, 2.1x50mm, Waters
Retention time: 10.5 min
Base peak: 435.2171
Precursor m/z: 435.2177
Precursor type: [M+H]+
m/z	relative intensity	assigned
61.0284	43	C2H5O2+
67.0541	1	C5H7+
79.0388	2	C2H7O3+
81.0698	2	C6H9+
93.0699	3	C7H9+
95.0491	7	C6H7O+
95.0854	11	C7H11+
97.0647	2	C6H9O+
101.0232	50	C4H5O3+
107.0855	24	C8H11+
109.0647	3	C7H9O+
109.1012	15	C8H13+
111.0803	3	C7H11O+
115.0753	5	C6H11O2+
119.0338	9	C4H7O4+
119.0854	9	C9H11+
121.0646	10	C8H9O+
121.101	7	C9H13+
123.0803	8	C8H11O+
123.1165	2	C9H15+
125.0595	1	C7H9O2+
125.0959	3	C8H13O+
131.0851	2	C10H11+
133.101	24	C10H13+
135.0802	45	C9H11O+
137.0595	2	C8H9O2+
137.0958	28	C9H13O+
139.0752	3	C8H11O2+
145.1008	2	C11H13+
147.0802	155	C10H11O+
149.0959	32	C10H13O+
151.075	11	C9H11O2+
151.1116	19	C10H15O+
153.0908	23	C9H13O2+
159.0801	37	C11H11O+
161.0595	3	C10H9O2+
161.0957	47	C11H13O+
163.0751	2	C10H11O2+
163.1114	9	C11H15O+
167.1065	14	C10H15O2+
169.0643	9	C12H9O+
169.0859	2	C9H13O3+
171.0801	55	C12H11O+
173.0958	53	C12H13O+
175.1114	4	C12H15O+
177.0907	39	C11H13O2+
179.1065	3	C11H15O2+
183.0801	7	C13H11O+
185.0958	79	C13H13O+
187.0751	42	C12H11O2+
187.1115	17	C13H15O+
189.0905	7	C12H13O2+
191.1064	2	C12H15O2+
193.1217	3	C12H17O2+
195.1012	31	C11H15O3+
197.0815	2	C10H13O4+
197.0955	21	C14H13O+
199.1112	17	C14H15O+
203.1063	15	C13H15O2+
209.0957	12	C15H13O+
209.1168	27	C12H17O3+
211.0749	3	C14H11O2+
211.096	6	C11H15O4+
211.1114	37	C15H15O+
213.0905	4	C14H13O2+
213.1273	22	C15H17O+
215.1065	25	C14H15O2+
219.1012	3	C13H15O3+
221.0957	17	C16H13O+
223.1114	21	C16H15O+
225.1271	23	C16H17O+
227.1063	6	C15H15O2+
227.1426	67	C16H19O+
235.1112	24	C17H15O+
237.1126	9	C13H17O4+
237.1268	118	C17H17O+
239.1067	13	C16H15O2+
239.1428	24	C17H19O+
241.1219	12	C16H17O2+
241.1579	3	C17H21O+
249.127	11	C18H17O+
251.1059	3	C17H15O2+
251.1425	30	C18H19O+
253.1217	25	C17H17O2+
253.1582	23	C18H21O+
255.1374	21	C17H19O2+
257.1314	1	C20H17+
261.1266	22	C19H17O+
263.1426	45	C19H19O+
265.1217	3	C18H17O2+
265.1583	14	C19H21O+
267.1374	29	C18H19O2+
267.1736	22	C19H23O+
269.1893	22	C19H25O+
273.1629	3	C21H21+
275.1426	53	C20H19O+
276.1502	2	C20H20O+
277.1222	9	C19H17O2+
277.1583	123	C20H21O+
278.1662	12	C20H22O+
279.1739	434	C20H23O+
281.1532	13	C19H21O2+
281.1896	48	C20H25O+
286.1351	2	C21H18O+
289.1581	16	C21H21O+
291.1739	307	C21H23O+
293.1527	14	C20H21O2+
295.1326	13	C19H19O3+
295.1689	56	C20H23O2+
296.177	1	C20H24O2+
297.1844	55	C20H25O2+
301.1583	206	C22H21O+
304.145	1	C21H20O2+
307.1687	23	C21H23O2+
309.1843	471	C21H25O2+
311.1637	3	C20H23O3+
313.1798	3	C20H25O3+
319.1688	605	C22H23O2+
321.1643	3	C22H22FO+
325.1796	28	C21H25O3+
327.1948	101	C21H27O3+
337.1793	582	C22H25O3+
339.1751	15	C22H24FO2+
351.195	27	C23H27O3+
353.1742	66	C22H25O4+
355.19	473	C22H27O4+
357.185	18	C22H26FO3+
361.1791	15	C24H25O3+
369.205	13	C23H29O4+
373.2007	46	C22H29O5+
375.1958	7	C22H28FO4+
379.19	235	C24H27O4+
397.2006	999	C24H29O5+
399.1958	1	C24H28FO4+
415.2111	386	C24H31O6+
417.2072	14	C24H30FO5+
435.2175	79	C24H32FO6+
