Mass spectrum: Microcystin-LR; LC-ESI-ITFT; MS2; CE: 60%; R=7500; [M+H]+
Name: Microcystin-LR
Name: (5R,8R,11R,12S,15S,18S,19S,22R)-15-{3-[(Diaminomethylene)amino]propyl}-8-isobutyl-18-[(1E,3E,5S,6S)-6-methoxy-3,5-dimethyl-7-phenyl-1,3-heptadien-1-yl]-1,5,12,19-tetramethyl-2-methylene-3,6,9,13,16,20 ,25-heptaoxo-1,4,7,10,14,17,21-heptaazacyclopentacosane-11,22-dicarboxylic acid
Name: (5R,8S,11R,12S,15S,18S,19S,22R)-15-(3-guanidinopropyl)-8-isobutyl-3,6,9,13,16,20,25-heptaketo-18-[(1E,3E,5S,6S)-6-methoxy-3,5-dimethyl-7-phenyl-hepta-1,3-dienyl]-1,5,12,19-tetramethyl-2-methylene-1,4,7,10,14,17,21-heptazacyclopentacosane-11,22-dicarboxylic acid
Formula: C49H74N10O12
Exact mass: 994.5488
SMILES: CC1C(NC(=O)C(NC(=O)C(C(NC(=O)C(NC(=O)C(NC(=O)C(=C)N(C(=O)CCC(NC1=O)C(=O)O)C)C)CC(C)C)C(=O)O)C)CCCN=C(N)N)C=CC(=CC(C)C(CC2=CC=CC=C2)OC)C
InChI: InChI=1S/C49H74N10O12/c1-26(2)23-37-46(66)58-40(48(69)70)30(6)42(62)55-35(17-14-22-52-49(50)51)45(65)54-34(19-18-27(3)24-28(4)38(71-10)25-33-15-12-11-13-16-33)29(5)41(61)56-36(47(67)68)20-21-39(60)59(9)32(8)44(64)53-31(7)43(63)57-37/h11-13,15-16,18-19,24,26,28-31,34-38,40H,8,14,17,20-23,25H2,1-7,9-10H3,(H,53,64)(H,54,65)(H,55,62)(H,56,61)(H,57,63)(H,58,66)(H,67,68)(H,69,70)(H4,50,51,52)/b19-18+,27-24+/t28-,29-,30-,31+,34-,35-,36+,37-,38-,40+/m0/s1
Instrument: LTQ Orbitrap XL Thermo Scientific
Instrument type: LC-ESI-ITFT
Ms type: MS2
Ion mode: POSITIVE
Ionization: ESI
Fragmentation mode: HCD
Collision energy: 60 % (nominal)
Resolution: 7500
Column name: XBridge C18 3.5um, 2.1x50mm, Waters
Retention time: 10.2 min
Base peak: 498.2811
Precursor m/z: 995.556
Precursor type: [M+H]+
m/z	relative intensity	assigned
70.0651	324	C4H8N+
79.0542	23	C6H7+
82.0653	17	C5H8N+
84.0443	126	C4H6NO+
86.0964	117	C5H12N+
91.0541	71	C7H7+
93.0697	101	C7H9+
95.0604	25	C5H7N2+
97.076	32	C5H9N2+
98.0598	42	C5H8NO+
99.0916	30	C5H11N2+
103.0541	292	C8H7+
105.0697	356	C8H9+
107.0854	481	C8H11+
112.0868	170	C5H10N3+
113.0714	26	C5H9N2O+
114.1024	50	C5H12N3+
115.0542	46	C9H7+
115.0865	126	C5H11N2O+
117.0698	191	C9H9+
127.0864	720	C6H11N2O+
130.0496	27	C5H8NO3+
130.0975	26	C5H12N3O+
133.1011	23	C10H13+
135.0803	999	C9H11O+
135.1166	335	C10H15+
138.0546	40	C7H8NO2+
140.0815	70	C6H10N3O+
141.0658	105	C6H9N2O2+
149.0709	24	C8H9N2O+
153.1021	25	C8H13N2O+
155.081	118	C7H11N2O2+
157.1079	71	C6H13N4O+
167.0816	98	C8H11N2O2+
174.1342	44	C6H16N5O+
182.1028	36	C7H12N5O+
195.0766	49	C9H11N2O3+
200.114	69	C7H14N5O2+
201.0982	31	C7H13N4O3+
213.0867	166	C9H13N2O4+
239.0667	45	C10H11N2O5+
