Mass spectrum: Metolachlor-TP SYN542490; LC-ESI-QFT; MS2; CE: 30%; R=17500; [M+H]+
Name: Metolachlor-TP SYN542490
Formula: C15H21NO6S
Exact mass: 343.1090
SMILES: O=S(=O)(O)CC(=O)N(C(C)COC)c1c(C)cccc1C(C)=O
InChI: InChI=1S/C15H21NO6S/c1-10-6-5-7-13(12(3)17)15(10)16(11(2)8-22-4)14(18)9-23(19,20)21/h5-7,11H,8-9H2,1-4H3,(H,19,20,21)
Instrument: Exploris 240 Orbitrap Thermo Scientific
Instrument type: LC-ESI-QFT
Ms type: MS2
Ion mode: POSITIVE
Ionization: ESI
Fragmentation mode: HCD
Collision energy: 30 % (nominal)
Resolution: 17500
Column name: XBridge C18 3.5um, 2.1x50mm, Waters
Retention time: 4.668 min
Base peak: 344.1159
Precursor m/z: 344.1162
Precursor type: [M+H]+
m/z	relative intensity	assigned
73.0649	16	C4H9O+
150.0909	7	C9H12NO+
172.1122	17	C12H14N+
174.0915	16	C11H12NO+
190.1226	29	C12H16NO+
214.1226	448	C14H16NO+
222.1488	31	C13H20NO2+
232.1333	136	C14H18NO2+
246.1484	6	C15H20NO2+
252.0689	176	C12H14NO3S+
294.0794	172	C14H16NO4S+
312.09	999	C14H18NO5S+
