Mass spectrum: Norfloxacin; LC-ESI-ITFT; MS2; CE: 75%; R=7500; [M+H]+
Name: Norfloxacin
Name: 1-ethyl-6-fluoro-4-oxo-7-piperazin-1-yl-1,4-dihydroquinoline-3-carboxylic acid
Formula: C16H18FN3O3
Exact mass: 319.1332
SMILES: CCN1C=C(C(O)=O)C(=O)C2=CC(F)=C(C=C12)N3CCNCC3
InChI: InChI=1S/C16H18FN3O3/c1-2-19-9-11(16(22)23)15(21)10-7-12(17)14(8-13(10)19)20-5-3-18-4-6-20/h7-9,18H,2-6H2,1H3,(H,22,23)
Instrument: LTQ Orbitrap XL Thermo Scientific
Instrument type: LC-ESI-ITFT
Ms type: MS2
Ion mode: POSITIVE
Ionization: ESI
Fragmentation mode: HCD
Collision energy: 75 % (nominal)
Resolution: 7500
Column name: XBridge C18 3.5um, 2.1x50mm, Waters
Retention time: 4.4 min
Base peak: 320.1415
Precursor m/z: 320.1405
Precursor type: [M+H]+
m/z	relative intensity	assigned
56.0495	3	C3H6N+
70.0652	17	C4H8N+
109.0446	2	C7H6F+
116.0496	8	C8H6N+
130.0654	8	C9H8N+
135.048	10	C8H6FN+
136.0559	23	C8H7FN+
137.0634	3	C8H8FN+
143.0605	5	C9H7N2+
143.0733	2	C10H9N+
144.0451	6	C9H6NO+
144.056	2	C8H6N3+
144.0809	3	C10H10N+
146.04	2	C9H5FN+
148.0557	21	C9H7FN+
149.0511	2	C8H6FN2+
149.0637	6	C9H8FN+
150.0721	7	C9H9FN+
151.0428	2	C8H6FNO+
151.0671	6	C8H8FN2+
152.0745	40	C8H9FN2+
155.061	8	C10H7N2+
156.0683	15	C10H8N2+
157.0759	16	C10H9N2+
158.06	4	C10H8NO+
159.0542	2	C7H5N5+
159.0922	5	C10H11N2+
160.0562	3	C10H7FN+
161.0512	5	C9H6FN2+
161.064	8	C10H8FN+
162.0354	17	C9H5FNO+
162.0588	3	C9H7FN2+
162.0719	6	C10H9FN+
163.0432	11	C9H6FNO+
163.0668	39	C9H8FN2+
163.0796	2	C10H10FN+
164.0507	24	C9H7FNO+
165.0449	6	C11H5N2+
165.0588	7	C9H8FNO+
165.0825	78	C9H10FN2+
167.0605	5	C11H7N2+
169.0762	7	C11H9N2+
170.0711	3	C10H8N3+
171.055	3	C10H7N2O+
171.0918	29	C11H11N2+
172.0762	8	C11H10NO+
174.0591	8	C10H7FN2+
175.0668	23	C10H8FN2+
176.0502	11	C10H7FNO+
176.0746	118	C10H9FN2+
177.0582	13	C10H8FNO+
177.0823	17	C10H10FN2+
178.0291	2	C12H4NO+
178.0536	14	C9H7FN2O+
178.0667	14	C10H9FNO+
178.0896	3	C10H11FN2+
179.0617	39	C9H8FN2O+
179.0983	44	C10H12FN2+
181.0753	2	C12H9N2+
183.0914	8	C12H11N2+
184.0633	17	C11H8N2O+
184.0873	2	C11H10N3+
185.0712	58	C11H9N2O+
185.1088	5	C9H14FN2O+
186.0583	4	C11H7FN2+
186.1017	2	C11H12N3+
187.0667	31	C11H8FN2+
188.0504	10	C11H7FNO+
188.0744	2	C11H9FN2+
189.0465	13	C10H6FN2O+
189.0824	138	C11H10FN2+
190.0655	25	C11H9FNO+
190.0901	7	C11H11FN2+
191.062	66	C10H8FN2O+
191.0979	14	C11H12FN2+
192.0701	13	C10H9FN2O+
193.0774	14	C10H10FN2O+
195.0331	5	C9H6FNO3+
196.087	7	C12H10N3+
197.0491	7	C9H8FNO3+
197.0708	3	C12H9N2O+
197.0957	10	C12H11N3+
198.0684	17	C10H11FO3+
198.1029	26	C12H12N3+
201.0825	2	C12H10FN2+
202.029	2	C11H5FNO2+
202.0543	4	C11H7FN2O+
202.0893	5	C12H11FN2+
203.0617	223	C11H8FN2O+
204.0696	96	C11H9FN2O+
204.1061	89	C12H13FN2+
205.0776	307	C11H10FN2O+
206.0851	20	C11H11FN2O+
207.093	26	C11H12FN2O+
210.1026	10	C13H12N3+
211.1108	44	C13H13N3+
212.0827	9	C12H10N3O+
213.1016	12	C13H13N2O+
215.026	3	C11H4FN2O2+
215.0984	10	C13H12FN2+
217.041	12	C11H6FN2O2+
217.0772	28	C12H10FN2O+
218.0853	46	C12H11FN2O+
219.0573	4	C11H8FN2O2+
219.093	72	C12H12FN2O+
221.0724	5	C11H10FN2O2+
223.0637	17	C11H10FNO3+
224.0448	3	C12H6N3O2+
224.0823	8	C13H10N3O+
224.1191	2	C14H14N3+
225.0911	15	C15H13O2+
225.1254	6	C14H15N3+
226.0614	18	C12H8N3O2+
226.0977	56	C13H12N3O+
226.1341	17	C14H16N3+
227.0819	4	C13H11N2O2+
228.1133	5	C13H14N3O+
230.1086	9	C13H13FN3+
230.1287	3	C13H16N3O+
231.0567	999	C12H8FN2O2+
232.0645	5	C12H9FN2O2+
233.1085	146	C13H14FN2O+
235.0523	2	C11H8FN2O3+
238.1331	4	C15H16N3+
239.081	3	C14H11N2O2+
239.1048	3	C14H13N3O+
243.0563	4	C13H8FN2O2+
245.0724	34	C13H10FN2O2+
246.1399	5	C14H17FN3+
249.0674	18	C12H10FN2O3+
252.0766	11	C14H10N3O2+
253.0851	18	C14H11N3O2+
254.0925	137	C14H12N3O2+
254.1285	32	C15H16N3O+
256.1337	3	C13H19FNO3+
258.1401	19	C15H17FN3+
259.0882	22	C14H12FN2O2+
263.0814	7	C16H11N2O2+
272.1021	27	C14H14N3O3+
273.0906	2	C14H12FN3O2+
274.0988	61	C14H13FN3O2+
282.1236	135	C16H16N3O2+
292.1094	16	C14H15FN3O3+
300.1342	30	C16H18N3O3+
302.1306	262	C16H17FN3O2+
320.1407	72	C16H19FN3O3+
