Mass spectrum: 2-(3-Hydroxycyclohexyl)-5-(2-methyl-2-octanyl)phenol; LC-ESI-QFT; MS2; CE: 15; R=35000; [M+H]+
Name: 2-(3-Hydroxycyclohexyl)-5-(2-methyl-2-octanyl)phenol
Name: CP47.497
Name: 2-(3-hydroxycyclohexyl)-5-(2-methyloctan-2-yl)phenol
Formula: C21H34O2
Exact mass: 318.25588
SMILES: CCCCCCC(C)(C)C1=CC(=C(C=C1)C2CCCC(C2)O)O
InChI: InChI=1S/C21H34O2/c1-4-5-6-7-13-21(2,3)17-11-12-19(20(23)15-17)16-9-8-10-18(22)14-16/h11-12,15-16,18,22-23H,4-10,13-14H2,1-3H3
Instrument: Q Exactive Plus Orbitrap Thermo Scientific
Instrument type: LC-ESI-QFT
Ms type: MS2
Ion mode: POSITIVE
Ionization: ESI
Fragmentation mode: HCD
Collision energy: 15 (nominal)
Resolution: 35000
Column name: XBridge C18 3.5um, 2.1x50mm, Waters
Retention time: 17.2 min
Base peak: 391.2833
Precursor m/z: 319.2632
Precursor type: [M+H]+
m/z	relative intensity	assigned
57.0698	117	C4H9+
69.0698	2	C5H9+
71.0855	352	C5H11+
81.0698	15	C6H9+
85.1011	248	C6H13+
89.0597	1	C4H9O2+
107.049	109	C7H7O+
121.0648	2	C8H9O+
127.1481	111	C9H19+
133.0644	3	C9H9O+
148.0881	2	C10H12O+
175.1117	999	C12H15O+
191.143	1	C13H19O+
233.1899	822	C16H25O+
266.2559	7	C13H34N2O3+
301.2525	868	C21H33O+
