Mass spectrum: MCLA; LC-ESI-QFT; MS2; CE: 75%; R=17500; [M+H]+
Name: MCLA
Name: Microcystin LA
Name: (5R,8S,11R,12S,15S,18S,19S,22R)-18-[(1E,3E,5S,6S)-6-methoxy-3,5-dimethyl-7-phenylhepta-1,3-dienyl]-1,5,12,15,19-pentamethyl-2-methylidene-8-(2-methylpropyl)-3,6,9,13,16,20,25-heptaoxo-1,4,7,10,14,17,21-heptazacyclopentacosane-11,22-dicarboxylic acid
Class: NA
Formula: C46H67N7O12
Exact mass: 909.4848
SMILES: CO[C@@H](Cc1ccccc1)[C@@H](C)\C=C(C)\C=C\[C@@H]2NC(=O)[C@H](C)NC(=O)[C@@H](C)[C@@H](NC(=O)[C@H](CC(C)C)NC(=O)[C@@H](C)NC(=O)C(=C)N(C)C(=O)CC[C@@H](NC(=O)[C@H]2C)C(O)=O)C(O)=O
InChI: InChI=1S/C46H67N7O12/c1-24(2)21-35-44(60)52-38(46(63)64)28(6)40(56)47-29(7)41(57)49-33(18-17-25(3)22-26(4)36(65-11)23-32-15-13-12-14-16-32)27(5)39(55)50-34(45(61)62)19-20-37(54)53(10)31(9)43(59)48-30(8)42(58)51-35/h12-18,22,24,26-30,33-36,38H,9,19-21,23H2,1-8,10-11H3,(H,47,56)(H,48,59)(H,49,57)(H,50,55)(H,51,58)(H,52,60)(H,61,62)(H,63,64)/b18-17+,25-22+/t26-,27-,28-,29-,30+,33-,34+,35-,36-,38+/m0/s1
Instrument: Q Exactive Plus Orbitrap Thermo Scientific
Instrument type: LC-ESI-QFT
Ms type: MS2
Ion mode: POSITIVE
Ionization: ESI
Fragmentation mode: HCD
Collision energy: 75 % (nominal)
Resolution: 17500
Column name: XBridge C18 3.5um, 2.1x50mm, Waters
Retention time: 10.516 min
Base peak: 164.9846
Precursor m/z: 910.492
Precursor type: [M+H]+
m/z	relative intensity	assigned
65.0385	68	C5H5+
67.0542	38	C5H7+
68.0495	9	C4H6N+
69.0335	65	C4H5O+
69.0698	21	C5H9+
70.0651	16	C4H8N+
74.0236	29	C2H4NO2+
77.0384	28	C6H5+
79.0542	267	C6H7+
80.0495	50	C5H6N+
81.0699	23	C6H9+
82.0288	20	C4H4NO+
82.0651	175	C5H8N+
84.0444	218	C4H6NO+
84.0809	29	C5H10N+
85.0284	19	C4H5O2+
86.06	17	C4H8NO+
86.0964	298	C5H12N+
89.071	6	C3H9N2O+
91.0542	720	C7H7+
93.0699	258	C7H9+
94.0651	37	C6H8N+
95.0491	195	C6H7O+
95.0856	24	C7H11+
96.0806	16	C6H10N+
99.0916	132	C5H11N2+
102.0464	15	C8H6+
102.055	20	C4H8NO2+
103.0542	943	C8H7+
105.0448	68	C6H5N2+
105.0699	611	C8H9+
107.0855	999	C8H11+
108.0679	15	C6H8N2+
108.0807	15	C7H10N+
109.0648	89	C7H9O+
110.0601	67	C6H8NO+
110.0964	12	C7H12N+
112.0393	4	C5H6NO2+
113.0232	47	C5H5O3+
115.0542	128	C9H7+
116.0621	10	C9H8+
117.0698	149	C9H9+
119.0605	51	C7H7N2+
119.0855	63	C9H11+
120.0569	18	C8H8O+
120.0807	20	C8H10N+
120.0934	15	C9H12+
121.0759	87	C7H9N2+
122.0599	15	C7H8NO+
122.0837	13	C7H10N2+
122.0964	13	C8H12N+
123.0917	21	C7H11N2+
124.0761	23	C7H10NO+
124.1121	18	C8H14N+
127.0865	702	C6H11N2O+
128.0619	49	C10H8+
128.0708	18	C6H10NO2+
129.0697	44	C10H9+
130.05	23	C5H8NO3+
130.0652	22	C9H8N+
130.0776	14	C10H10+
131.0855	81	C10H11+
132.0808	9	C9H10N+
133.1009	28	C10H13+
135.0804	184	C9H11O+
135.1167	142	C10H15+
138.0551	42	C7H8NO2+
139.0866	20	C7H11N2O+
141.0699	15	C11H9+
143.0852	30	C11H11+
145.0649	6	C10H9O+
145.1012	44	C11H13+
146.0964	30	C10H12N+
149.071	78	C8H9N2O+
153.0697	5	C12H9+
155.0816	27	C7H11N2O2+
156.0657	15	C7H10NO3+
158.0966	7	C11H12N+
159.0802	13	C11H11O+
162.1272	5	C11H16N+
163.1116	30	C11H15O+
165.0702	24	C13H9+
166.0779	14	C13H10+
167.0815	190	C8H11N2O2+
173.0947	13	C10H11N3+
179.0853	18	C14H11+
180.0937	13	H14N5O6+
195.0767	35	C9H11N2O3+
213.0873	30	C9H13N2O4+
