Mass spectrum: Propham; LC-ESI-QFT; MS2; CE: 45%; R=17500; [M+H]+
Name: Propham
Name: propan-2-yl N-phenylcarbamate
Formula: C10H13NO2
Exact mass: 179.0946
SMILES: CC(C)OC(=O)NC1=CC=CC=C1
InChI: InChI=1S/C10H13NO2/c1-8(2)13-10(12)11-9-6-4-3-5-7-9/h3-8H,1-2H3,(H,11,12)
Instrument: Exploris 240 Orbitrap Thermo Scientific
Instrument type: LC-ESI-QFT
Ms type: MS2
Ion mode: POSITIVE
Ionization: ESI
Fragmentation mode: HCD
Collision energy: 45 % (nominal)
Resolution: 17500
Column name: XBridge C18 3.5um, 2.1x50mm, Waters
Retention time: 6.825 min
Base peak: 138.0549
Precursor m/z: 180.1019
Precursor type: [M+H]+
m/z	relative intensity	assigned
59.0493	2	C3H7O+
77.0385	13	C6H5+
92.0495	86	C6H6N+
94.0652	34	C6H8N+
95.0493	4	C6H7O+
120.0444	999	C7H6NO+
138.0549	818	C7H8NO2+
