Mass spectrum: 4-chloro-N-methylaniline; LC-ESI-QFT; MS2; CE: 90; R=35000; [M+H]+
Name: 4-chloro-N-methylaniline
Formula: C7H8ClN
Exact mass: 141.03453
SMILES: CNC1=CC=C(C=C1)Cl
InChI: InChI=1S/C7H8ClN/c1-9-7-4-2-6(8)3-5-7/h2-5,9H,1H3
Instrument: Q Exactive Plus Orbitrap Thermo Scientific
Instrument type: LC-ESI-QFT
Ms type: MS2
Ion mode: POSITIVE
Ionization: ESI
Fragmentation mode: HCD
Collision energy: 90 (nominal)
Resolution: 35000
Column name: XBridge C18 3.5um, 2.1x50mm, Waters
Retention time: 5.0 min
Base peak: 142.0417
Precursor m/z: 142.0418
Precursor type: [M+H]+
m/z	relative intensity	assigned
65.0385	10	C5H5+
91.0416	3	C6H5N+
92.0494	31	C6H6N+
98.9995	1	C5H4Cl+
100.0074	34	C5H5Cl+
106.0651	7	C7H8N+
107.0729	8	C7H9N+
110.06	1	C6H8NO+
126.0108	1	C6H5ClN+
127.0182	999	C6H6ClN+
142.0417	5	C7H9ClN+
