Mass spectrum: Benfuracarb; LC-ESI-QFT; MS2; CE: 90%; R=17500; [M+H]+
Name: Benfuracarb
Name: ethyl 3-[[(2,2-dimethyl-3H-1-benzofuran-7-yl)oxycarbonyl-methylamino]sulfanyl-propan-2-ylamino]propanoate
Formula: C20H30N2O5S
Exact mass: 410.1875
SMILES: CCOC(=O)CCN(C(C)C)SN(C)C(=O)OC1=CC=CC2=C1OC(C2)(C)C
InChI: InChI=1S/C20H30N2O5S/c1-7-25-17(23)11-12-22(14(2)3)28-21(6)19(24)26-16-10-8-9-15-13-20(4,5)27-18(15)16/h8-10,14H,7,11-13H2,1-6H3
Instrument: Exploris 240 Orbitrap Thermo Scientific
Instrument type: LC-ESI-QFT
Ms type: MS2
Ion mode: POSITIVE
Ionization: ESI
Fragmentation mode: HCD
Collision energy: 90 % (nominal)
Resolution: 17500
Column name: XBridge C18 3.5um, 2.1x50mm, Waters
Retention time: 12.809 min
Base peak: 411.1952
Precursor m/z: 411.1948
Precursor type: [M+H]+
m/z	relative intensity	assigned
53.0387	54	C4H5+
55.0179	164	C3H3O+
56.0496	100	C3H6N+
58.0288	139	C2H4NO+
58.9951	50	C2H3S+
59.9904	38	CH2NS+
67.0178	80	C4H3O+
70.0652	233	C4H8N+
73.0285	256	C3H5O2+
74.0059	778	C2H4NS+
78.0009	32	CH4NOS+
79.0543	90	C6H7+
81.0335	107	C5H5O+
81.07	96	C6H9+
84.9743	532	C3HOS+
90.0372	185	C3H8NS+
91.0544	128	C7H7+
97.0107	471	C5H5S+
102.001	185	C3H4NOS+
103.0545	25	C8H7+
105.0698	176	C8H9+
109.0284	999	C6H5O2+
109.0652	94	C7H9O+
111.0807	36	C7H11O+
115.0542	323	C9H7+
116.0621	607	C9H8+
119.0496	44	C8H7O+
120.0569	44	C8H8O+
123.0443	115	C7H7O2+
125.0058	287	C6H5OS+
133.0649	93	C9H9O+
134.0186	63	C8H6S+
139.0212	32	C7H7OS+
143.0493	65	C10H7O+
144.0572	512	C10H8O+
147.044	207	C9H7O2+
149.0419	61	C9H9S+
153.0372	59	C8H9OS+
161.0597	103	C10H9O2+
162.0677	410	C10H10O2+
167.0524	41	C9H11OS+
177.0371	76	C10H9OS+
195.0475	44	C10H11O2S+
