Mass spectrum: Ampicillin; LC-ESI-QFT; MS2; CE: 45; R=35000; [M+H]+
Name: Ampicillin
Name: 2-amino-1-methyl-5-propylideneimidazol-4-one
Name: 6-[(2-azaniumyl-2-phenylacetyl)amino]-3,3-dimethyl-7-oxo-4-thia-1-azabicyclo[3.2.0]heptane-2-carboxylate
Formula: C16H19N3O4S
Exact mass: 349.10963
SMILES: CC1(C(N2C(S1)C(C2=O)NC(=O)C(C3=CC=CC=C3)N)C(=O)O)C
InChI: InChI=1S/C16H19N3O4S/c1-16(2)11(15(22)23)19-13(21)10(14(19)24-16)18-12(20)9(17)8-6-4-3-5-7-8/h3-7,9-11,14H,17H2,1-2H3,(H,18,20)(H,22,23)
Instrument: Q Exactive Plus Orbitrap Thermo Scientific
Instrument type: LC-ESI-QFT
Ms type: MS2
Ion mode: POSITIVE
Ionization: ESI
Fragmentation mode: HCD
Collision energy: 45 (nominal)
Resolution: 35000
Column name: XBridge C18 3.5um, 2.1x50mm, Waters
Retention time: 4.7 min
Base peak: 350.1165
Precursor m/z: 350.1169
Precursor type: [M+H]+
m/z	relative intensity	assigned
53.0387	1	C4H5+
58.995	1	C2H3S+
62.0059	1	CH4NS+
68.0131	2	C3H2NO+
68.0495	1	C4H6N+
70.0652	84	C4H8N+
71.0492	3	C4H7O+
72.0808	1	C4H10N+
74.0059	23	C2H4NS+
79.0543	49	C6H7+
82.0652	2	C5H8N+
84.0809	1	C5H10N+
86.006	7	C3H4NS+
87.0263	4	C4H7S+
91.0543	34	C7H7+
94.0652	3	C6H8N+
96.0081	1	C4H2NO2+
96.0444	18	C5H6NO+
98.0604	2	C5H8NO+
99.0442	5	C5H7O2+
103.0541	2	C8H7+
106.0652	999	C7H8N+
109.0762	1	C6H9N2+
110.0602	1	C6H8NO+
113.0346	1	C4H5N2O2+
114.0009	183	C4H4NOS+
114.0373	112	C5H8NS+
115.0542	2	C9H7+
116.0707	2	C5H10NO2+
117.0574	2	C8H7N+
118.0652	110	C8H8N+
119.0493	14	C8H7O+
120.0808	1	C8H10N+
121.0108	23	C7H5S+
122.0601	8	C7H8NO+
123.0264	2	C7H7S+
126.0373	1	C6H8NS+
128.0532	3	C6H10NS+
128.0709	3	C6H10NO2+
130.0653	9	C9H8N+
131.0492	1	C9H7O+
131.0731	3	C9H9N+
132.0809	5	C9H10N+
134.0601	1	C8H8NO+
135.0265	3	C8H7S+
137.042	7	C8H9S+
137.0711	19	C7H9N2O+
141.0483	4	C6H9N2S+
142.0323	4	C6H8NOS+
143.0639	1	C6H11N2S+
146.0602	45	C9H8NO+
147.0264	23	C9H7S+
150.0374	2	C8H8NS+
158.0603	2	C10H8NO+
158.0967	1	C11H12N+
159.0681	1	C10H9NO+
160.0428	144	C6H10NO2S+
162.0373	15	C9H8NS+
164.053	84	C9H10NS+
165.066	45	C8H9N2O2+
167.0818	1	C8H11N2O2+
169.0433	3	C7H9N2OS+
174.0552	101	C10H8NO2+
175.0214	2	C10H7OS+
178.0322	2	C9H8NOS+
185.0712	2	C11H9N2O+
187.0538	7	C7H11N2O2S+
188.0615	4	C7H12N2O2S+
189.0695	1	C7H13N2O2S+
190.0323	9	C10H8NOS+
191.04	1	C10H9NOS+
192.0479	56	C10H10NOS+
193.061	9	C9H9N2O3+
197.0382	1	C8H9N2O2S+
200.1073	2	C13H14NO+
206.051	2	C10H10N2OS+
211.0717	4	C9H11N2O4+
214.0686	1	C13H12NS+
216.0842	1	C13H14NS+
218.0272	8	C11H8NO2S+
231.0951	1	C13H15N2S+
236.0377	1	C11H10NO3S+
242.0633	1	C14H12NOS+
259.0903	6	C14H15N2OS+
289.1002	1	C15H17N2O2S+
