Mass spectrum: Acifluorfen; LC-ESI-QFT; MS2; CE: 60; R=35000; [M+H]+
Name: Acifluorfen
Name: 5-[2-chloranyl-4-(trifluoromethyl)phenoxy]-2-nitro-benzoic acid
Formula: C14H7ClF3NO5
Exact mass: 360.99648
SMILES: Clc2cc(ccc2Oc1cc(C(=O)O)c([N+]([O-])=O)cc1)C(F)(F)F
InChI: InChI=1S/C14H7ClF3NO5/c15-10-5-7(14(16,17)18)1-4-12(10)24-8-2-3-11(19(22)23)9(6-8)13(20)21/h1-6H,(H,20,21)
Instrument: Q Exactive Orbitrap Thermo Scientific
Instrument type: LC-ESI-QFT
Ms type: MS2
Ion mode: POSITIVE
Ionization: ESI
Fragmentation mode: HCD
Collision energy: 60 (nominal)
Resolution: 35000
Column name: XBridge C18 3.5um, 2.1x50mm, Waters
Retention time: 12.3 min
Base peak: 379.0305
Precursor m/z: 362.0038
Precursor type: [M+H]+
m/z	relative intensity	assigned
51.023	9	C4H3+
52.0184	5	C3H2N+
53.0023	6	C3HO+
65.026	6	C4H3N+
67.0179	12	C4H3O+
67.0417	7	C4H5N+
68.9971	10	C3HO2+
76.0182	65	C5H2N+
77.0261	6	C5H3N+
78.0339	103	C5H4N+
93.0209	41	C5H3NO+
98.9842	7	CH4ClO3+
104.0132	109	C6H2NO+
120.9808	7	C2FNO4+
122.0236	21	C6H4NO2+
130.0225	7	C6H4F2O+
132.0182	227	C6H3F3+
140.0495	39	C10H6N+
142.9897	47	C6H4ClO2+
144.0178	7	C7H3F3+
146.9808	10	C6H2ClF2+
158.0401	5	C10H5FN+
160.0128	5	C7H3F3O+
162.9958	17	C6H5ClFO2+
164.9914	108	C6H4ClF2O+
166.9871	244	C6H3ClF3+
174.9755	18	C7H2ClF2O+
174.987	75	C6F3NO2+
175.0182	6	C10H6ClN+
176.0078	27	C7H3F3O2+
178.987	765	C7H3ClF3+
182.0337	26	C10H5F3+
189.0384	43	C11H5F2N+
194.982	68	C7H3ClF3O+
203.0133	24	C11H6ClNO+
207.0416	26	C12H6F3+
208.0374	20	C11H5F3N+
209.0444	10	C11H6F3N+
210.0286	8	C11H5F3O+
217.0029	49	C10H5ClF3+
220.9812	111	C8H4ClF2O3+
222.9769	999	C8H3ClF3O2+
224.0074	7	C11H5ClF2N+
231.9963	12	C12H4ClFNO+
237.04	66	C12H6F3NO+
252.0028	51	C12H3F3O3+
272.9928	25	C12H5ClF3O2+
279.9971	21	C13H5ClF2NO2+
300.0036	23	C13H6ClF3NO2+
