Mass spectrum: Propyzamide; LC-ESI-QFT; MS2; CE: 30; R=35000; [M-H]-
Name: Propyzamide
Name: 3,5-bis(chloranyl)-N-(2-methylbut-3-yn-2-yl)benzamide
Name: Promamide
Formula: C12H11Cl2NO
Exact mass: 255.02177
SMILES: Clc1cc(C(=O)NC(C#C)(C)C)cc(Cl)c1
InChI: InChI=1S/C12H11Cl2NO/c1-4-12(2,3)15-11(16)8-5-9(13)7-10(14)6-8/h1,5-7H,2-3H3,(H,15,16)
Instrument: Q Exactive Orbitrap Thermo Scientific
Instrument type: LC-ESI-QFT
Ms type: MS2
Ion mode: NEGATIVE
Ionization: ESI
Fragmentation mode: HCD
Collision energy: 30 (nominal)
Resolution: 35000
Column name: XBridge C18 3.5um, 2.1x50mm, Waters
Retention time: 10.9 min
Base peak: 218.0312
Precursor m/z: 254.0145
Precursor type: [M-H]-
m/z	relative intensity	assigned
144.9617	370	C6H3Cl2-
145.9894	32	CH6Cl2N3O-
146.9858	16	C2H7Cl2NO2-
164.0001	18	CH8Cl2N3O2-
186.9723	63	C8H5Cl2O-
188.9517	10	C7H3Cl2O2-
189.9966	37	C8H8Cl2O-
208.007	27	C8H10Cl2O2-
212.9754	40	C9H5Cl2NO-
227.9989	999	C10H8Cl2NO-
254.0146	128	C12H10Cl2NO-
