Mass spectrum: Uniconazole; LC-ESI-QFT; MS2; CE: 30; R=35000; [M+H]+
Name: Uniconazole
Name: 1-(4-chlorophenyl)-4,4-dimethyl-2-(1,2,4-triazol-1-yl)pent-1-en-3-ol
Formula: C15H18ClN3O
Exact mass: 291.11384
SMILES: CC(C)(C)C(C(=CC1=CC=C(C=C1)Cl)N2C=NC=N2)O
InChI: InChI=1S/C15H18ClN3O/c1-15(2,3)14(20)13(19-10-17-9-18-19)8-11-4-6-12(16)7-5-11/h4-10,14,20H,1-3H3
Instrument: Q Exactive Plus Orbitrap Thermo Scientific
Instrument type: LC-ESI-QFT
Ms type: MS2
Ion mode: POSITIVE
Ionization: ESI
Fragmentation mode: HCD
Collision energy: 30 (nominal)
Resolution: 35000
Column name: XBridge C18 3.5um, 2.1x50mm, Waters
Retention time: 11.8 min
Base peak: 292.1207
Precursor m/z: 292.1211
Precursor type: [M+H]+
m/z	relative intensity	assigned
57.0698	4	C4H9+
59.0491	1	C3H7O+
70.0399	439	C2H4N3+
85.0648	1	C5H9O+
87.0804	2	C5H11O+
97.0649	1	C6H9O+
125.0153	22	C7H6Cl+
137.0152	2	C8H6Cl+
138.9945	11	C7H4ClO+
139.0308	2	C8H8Cl+
163.0308	2	C10H8Cl+
165.0468	1	C10H10Cl+
167.0258	1	C9H8ClO+
169.1013	1	C13H13+
170.109	10	C13H14+
177.0466	5	C11H10Cl+
179.0623	1	C11H12Cl+
181.0416	1	C10H10ClO+
191.0371	2	C10H8ClN2+
191.0622	1	C12H12Cl+
192.0325	1	C9H7ClN3+
205.0779	17	C13H14Cl+
218.048	21	C11H9ClN3+
223.0885	2	C13H16ClO+
231.0557	1	C12H10ClN3+
232.0635	3	C12H11ClN3+
235.0507	10	C11H10ClN3O+
236.058	2	C11H11ClN3O+
274.1107	18	C15H17ClN3+
292.1211	999	C15H19ClN3O+
