Mass spectrum: Pirimiphos-Ethyl; LC-ESI-QFT; MS2; CE: 60%; R=17500; [M+H]+
Name: Pirimiphos-Ethyl
Name: 4-diethoxyphosphinothioyloxy-N,N-diethyl-6-methylpyrimidin-2-amine
Formula: C13H24N3O3PS
Exact mass: 333.1276
SMILES: CCN(CC)C1=NC(=CC(=N1)OP(=S)(OCC)OCC)C
InChI: InChI=1S/C13H24N3O3PS/c1-6-16(7-2)13-14-11(5)10-12(15-13)19-20(21,17-8-3)18-9-4/h10H,6-9H2,1-5H3
Instrument: Exploris 240 Orbitrap Thermo Scientific
Instrument type: LC-ESI-QFT
Ms type: MS2
Ion mode: POSITIVE
Ionization: ESI
Fragmentation mode: HCD
Collision energy: 60 % (nominal)
Resolution: 17500
Column name: XBridge C18 3.5um, 2.1x50mm, Waters
Retention time: 12.748 min
Base peak: 334.1347
Precursor m/z: 334.1349
Precursor type: [M+H]+
m/z	relative intensity	assigned
67.0291	20	C3H3N2+
74.0965	5	C4H12N+
84.0446	30	C4H6NO+
95.0606	22	C5H7N2+
96.9508	127	H2O2PS+
99.0918	107	C5H11N2+
100.0217	36	C4H6NS+
108.0558	78	C5H6N3+
114.9616	40	H4O3PS+
124.9819	11	C2H6O2PS+
126.0665	6	C5H8N3O+
136.087	34	C7H10N3+
137.0711	16	C7H9N2O+
139.1232	24	C4H18N3P+
142.0438	33	C5H8N3S+
153.0486	16	C3H12N3PS+
154.0976	121	C7H12N3O+
157.0796	46	C3H16N3PS+
164.1184	72	C9H14N3+
170.0748	435	C7H12N3S+
182.1289	365	C9H16N3O+
196.0899	12	C9H14N3S+
198.1061	999	C9H16N3S+
