Mass spectrum: Clothianidin; LC-ESI-ITFT; MS2; CE: 60%; R=15000; [M+H]+
Name: Clothianidin
Name: 1-[(2-chloranyl-1,3-thiazol-5-yl)methyl]-2-methyl-3-nitro-guanidine
Name: 1-[(2-chloro-1,3-thiazol-5-yl)methyl]-2-methyl-3-nitroguanidine
Formula: C6H8ClN5O2S
Exact mass: 249.0087
SMILES: Clc1ncc(s1)CN/C(=N/C)N[N+]([O-])=O
InChI: InChI=1S/C6H8ClN5O2S/c1-8-6(11-12(13)14)10-3-4-2-9-5(7)15-4/h2H,3H2,1H3,(H2,8,10,11)
Instrument: LTQ Orbitrap XL Thermo Scientific
Instrument type: LC-ESI-ITFT
Ms type: MS2
Ion mode: POSITIVE
Ionization: ESI
Fragmentation mode: HCD
Collision energy: 60 % (nominal)
Resolution: 15000
Column name: XBridge C18 3.5um, 2.1x50mm, Waters
Retention time: 4.9 min
Base peak: 250.0165
Precursor m/z: 250.016
Precursor type: [M+H]+
m/z	relative intensity	assigned
54.0338	8	C3H4N+
57.0447	7	C2H5N2+
63.9949	4	CH3ClN+
69.0448	1	C3H5N2+
70.995	18	C3H3S+
78.9403	2	CClS+
86.0059	27	C3H4NS+
87.0136	2	C3H5NS+
87.9946	2	C3H3ClN+
96.0554	2	C4H6N3+
97.0636	1	C4H7N3+
108.056	2	C5H6N3+
109.0633	8	C5H7N3+
110.0713	241	C5H8N3+
111.079	96	C5H9N3+
112.0089	5	C4H4N2S+
113.0168	475	C4H5N2S+
118.9592	2	C3H2ClNS+
119.9668	19	C3H3ClNS+
121.9825	4	C3H5ClNS+
125.0821	6	C5H9N4+
126.0118	2	C4H4N3S+
127.0198	14	C4H5N3S+
131.9668	999	C4H3ClNS+
132.9746	16	C4H4ClNS+
135.0665	2	C6H7N4+
138.0125	2	C5H4N3S+
141.0354	3	C5H7N3S+
142.0432	24	C5H8N3S+
143.051	4	C5H9N3S+
145.97	2	C4H3ClN2S+
146.9778	43	C4H4ClN2S+
147.9855	44	C4H5ClN2S+
148.9934	1	C4H6ClN2S+
152.0275	2	C6H6N3S+
153.0229	21	C5H5N4S+
167.0385	20	C6H7N4S+
168.0464	44	C6H8N4S+
169.0542	344	C6H9N4S+
171.9727	6	C5H3ClN3S+
172.9809	14	C5H4ClN3S+
174.9726	41	C5H4ClN2OS+
