Mass spectrum: Norclozapine; LC-ESI-QFT; MS2; CE: 30; R=35000; [M+H]+
Name: Norclozapine
Name: 3-chloro-6-piperazin-1-yl-5H-benzo[b][1,4]benzodiazepine
Formula: C17H17ClN4
Exact mass: 312.11417
SMILES: C1CN(CCN1)C2=NC3=C(C=CC(=C3)Cl)NC4=CC=CC=C42
InChI: InChI=1S/C17H17ClN4/c18-12-5-6-15-16(11-12)21-17(22-9-7-19-8-10-22)13-3-1-2-4-14(13)20-15/h1-6,11,19-20H,7-10H2
Instrument: Q Exactive Plus Orbitrap Thermo Scientific
Instrument type: LC-ESI-QFT
Ms type: MS2
Ion mode: POSITIVE
Ionization: ESI
Fragmentation mode: HCD
Collision energy: 30 (nominal)
Resolution: 35000
Column name: XBridge C18 3.5um, 2.1x50mm, Waters
Retention time: 5.9 min
Base peak: 313.1204
Precursor m/z: 313.1215
Precursor type: [M+H]+
m/z	relative intensity	assigned
70.065	28	C4H8N+
71.0602	1	C3H7N2+
227.0369	10	C13H8ClN2+
229.0522	1	C13H10ClN2+
244.0634	40	C13H11ClN3+
253.0525	59	C15H10ClN2+
270.079	169	C15H13ClN3+
296.0946	23	C17H15ClN3+
311.1048	2	C17H16ClN4+
313.1209	999	C17H18ClN4+
