Mass spectrum: Cyprodinil; LC-ESI-ITFT; MS2; CE: 60%; R=15000; [M+H]+
Name: Cyprodinil
Name: (4-cyclopropyl-6-methyl-pyrimidin-2-yl)-phenyl-amine
Formula: C14H15N3
Exact mass: 225.1260
SMILES: c1ccccc1Nc1nc(C2CC2)cc(C)n1
InChI: InChI=1S/C14H15N3/c1-10-9-13(11-7-8-11)17-14(15-10)16-12-5-3-2-4-6-12/h2-6,9,11H,7-8H2,1H3,(H,15,16,17)
Instrument: LTQ Orbitrap XL Thermo Scientific
Instrument type: LC-ESI-ITFT
Ms type: MS2
Ion mode: POSITIVE
Ionization: ESI
Fragmentation mode: HCD
Collision energy: 60 % (nominal)
Resolution: 15000
Column name: XBridge C18 3.5um, 2.1x50mm, Waters
Retention time: 9.4 min
Base peak: 226.1338
Precursor m/z: 226.1339
Precursor type: [M+H]+
m/z	relative intensity	assigned
65.0387	2	C5H5+
67.0543	3	C5H7+
68.0496	1	C4H6N+
77.0386	1	C6H5+
79.0543	2	C6H7+
80.0495	1	C5H6N+
81.0699	2	C6H9+
82.0653	3	C5H8N+
84.0807	1	C5H10N+
91.0543	10	C7H7+
92.0496	9	C6H6N+
92.0624	1	C7H8+
93.0574	21	C6H7N+
94.0647	1	C6H8N+
104.0495	1	C7H6N+
106.0652	16	C7H8N+
107.0605	1	C6H7N2+
107.0733	1	C7H9N+
108.0682	3	C6H8N2+
108.0809	61	C7H10N+
109.0761	4	C6H9N2+
109.0886	2	C7H11N+
116.0496	3	C8H6N+
117.0572	2	C8H7N+
118.0525	7	C7H6N2+
118.0652	9	C8H8N+
119.0605	20	C7H7N2+
123.0917	7	C7H11N2+
124.076	1	C7H10NO+
131.0605	4	C8H7N2+
132.0684	6	C8H8N2+
133.0761	39	C8H9N2+
134.0603	1	C8H8NO+
142.0655	1	C10H8N+
143.0605	6	C9H7N2+
144.0809	26	C10H10N+
145.0761	6	C9H9N2+
151.0869	1	C8H11N2O+
158.0967	1	C11H12N+
159.0918	10	C10H11N2+
167.0734	2	C12H9N+
168.0679	1	C11H8N2+
168.0809	5	C12H10N+
169.0761	4	C11H9N2+
171.091	1	C11H11N2+
181.0761	1	C12H9N2+
182.0969	1	C13H12N+
183.0801	1	C13H11O+
183.0916	3	C12H11N2+
184.0871	14	C11H10N3+
185.1075	17	C12H13N2+
193.0757	1	C13H9N2+
194.0838	7	C13H10N2+
197.0948	1	C12H11N3+
198.1032	4	C12H12N3+
199.1104	1	C12H13N3+
207.0916	2	C14H11N2+
208.0993	2	C14H12N2+
209.1074	23	C14H13N2+
210.1027	23	C13H12N3+
211.1105	8	C13H13N3+
224.1185	4	C14H14N3+
226.1341	999	C14H16N3+
