Mass spectrum: 3-Hydroxycarbofuran; LC-ESI-QFT; MS2; CE: 15%; R=17500; [M+H]+
Name: 3-Hydroxycarbofuran
Name: (3-hydroxy-2,2-dimethyl-3H-1-benzofuran-7-yl) N-methylcarbamate
Formula: C12H15NO4
Exact mass: 237.1001
SMILES: CC1(C(C2=C(O1)C(=CC=C2)OC(=O)NC)O)C
InChI: InChI=1S/C12H15NO4/c1-12(2)10(14)7-5-4-6-8(9(7)17-12)16-11(15)13-3/h4-6,10,14H,1-3H3,(H,13,15)
Instrument: Exploris 240 Orbitrap Thermo Scientific
Instrument type: LC-ESI-QFT
Ms type: MS2
Ion mode: POSITIVE
Ionization: ESI
Fragmentation mode: HCD
Collision energy: 15 % (nominal)
Resolution: 17500
Column name: XBridge C18 3.5um, 2.1x50mm, Waters
Retention time: 4.051 min
Base peak: 220.0968
Precursor m/z: 238.1074
Precursor type: [M+H]+
m/z	relative intensity	assigned
163.0753	264	C10H11O2+
181.0859	999	C10H13O3+
207.0651	16	C11H11O4+
220.0969	416	C12H14NO3+
238.1075	449	C12H16NO4+
