Mass spectrum: Oxolinic acid; LC-ESI-QFT; MS2; CE: 150; R=35000; [M+H]+
Name: Oxolinic acid
Name: 5-ethyl-8-oxo-[1,3]dioxolo[4,5-g]quinoline-7-carboxylic acid
Formula: C13H11NO5
Exact mass: 261.06372
SMILES: CCN1C=C(C(=O)C2=CC3=C(C=C21)OCO3)C(=O)O
InChI: InChI=1S/C13H11NO5/c1-2-14-5-8(13(16)17)12(15)7-3-10-11(4-9(7)14)19-6-18-10/h3-5H,2,6H2,1H3,(H,16,17)
Instrument: Q Exactive Plus Orbitrap Thermo Scientific
Instrument type: LC-ESI-QFT
Ms type: MS2
Ion mode: POSITIVE
Ionization: ESI
Fragmentation mode: HCD
Collision energy: 150 (nominal)
Resolution: 35000
Column name: XBridge C18 3.5um, 2.1x50mm, Waters
Retention time: 0.9 min
Base peak: 262.0705
Precursor m/z: 262.071
Precursor type: [M+H]+
m/z	relative intensity	assigned
50.0151	176	C4H2+
51.023	115	C4H3+
52.0182	233	C3H2N+
53.0022	101	C3HO+
53.0386	91	C4H5+
53.9975	2	C2NO+
54.0338	13	C3H4N+
55.0179	22	C3H3O+
56.0495	6	C3H6N+
61.0073	17	C5H+
62.0151	70	C5H2+
63.0229	280	C5H3+
64.0181	18	C4H2N+
64.0308	13	C5H4+
65.0386	642	C5H5+
66.01	6	C4H2O+
66.0339	8	C4H4N+
66.0464	35	C5H6+
67.0179	2	C4H3O+
67.0417	2	C4H5N+
67.0542	2	C5H7+
68.0131	84	C3H2NO+
68.9971	21	C3HO2+
74.0151	219	C6H2+
75.0103	125	C5HN+
75.0229	999	C6H3+
76.0181	132	C5H2N+
76.0307	152	C6H4+
77.0022	23	C5HO+
77.0385	266	C6H5+
78.0338	80	C5H4N+
78.0464	18	C6H6+
79.0178	10	C5H3O+
79.0417	2	C5H5N+
79.0543	6	C6H7+
80.0131	17	C4H2NO+
80.0494	3	C5H6N+
81.0335	23	C5H5O+
86.0151	12	C7H2+
87.0229	200	C7H3+
88.0182	96	C6H2N+
88.0307	37	C7H4+
89.0386	247	C7H5+
90.0339	20	C6H4N+
90.0464	45	C7H6+
91.0179	9	C6H3O+
91.0416	23	C6H5N+
91.0542	132	C7H7+
92.0256	7	C6H4O+
92.0495	10	C6H6N+
93.0336	1	C6H5O+
94.0414	14	C6H6O+
95.0492	326	C6H7O+
96.0444	124	C5H6NO+
99.0102	5	C7HN+
100.0182	22	C7H2N+
101.026	220	C7H3N+
102.0338	353	C7H4N+
102.0464	67	C8H6+
103.0178	54	C7H3O+
103.0417	49	C7H5N+
103.0542	175	C8H7+
104.013	6	C6H2NO+
104.0495	114	C7H6N+
105.0335	70	C7H5O+
105.0447	232	C6H5N2+
106.0288	7	C6H4NO+
106.0417	2	C7H6O+
108.0443	1	C6H6NO+
113.0385	10	C9H5+
114.0339	408	C8H4N+
115.0417	33	C8H5N+
115.0542	41	C9H7+
116.0495	67	C8H6N+
117.0573	113	C8H7N+
118.0287	16	C7H4NO+
118.0651	31	C8H8N+
119.0128	83	C7H3O2+
119.0366	30	C7H5NO+
119.0495	5	C8H7O+
120.0206	63	C7H4O2+
120.0444	23	C7H6NO+
121.0285	11	C7H5O2+
121.0398	1	C6H5N2O+
127.0416	2	C9H5N+
128.0131	6	C8H2NO+
128.0495	37	C9H6N+
129.0209	7	C8H3NO+
129.0448	27	C8H5N2+
129.0573	8	C9H7N+
130.0288	115	C8H4NO+
130.04	91	C7H4N3+
130.0651	94	C9H8N+
131.0367	6	C8H5NO+
131.0729	6	C9H9N+
132.0206	28	C8H4O2+
132.0444	93	C8H6NO+
133.0284	217	C8H5O2+
134.0601	7	C8H8NO+
135.0314	5	C7H5NO2+
136.0394	1	C7H6NO2+
139.0389	2	C7H7O3+
140.0495	5	C10H6N+
141.0573	7	C10H7N+
142.0288	28	C9H4NO+
142.0653	6	C10H8N+
143.0366	2	C9H5NO+
144.0444	13	C9H6NO+
145.0284	1	C9H5O2+
146.0364	6	C9H6O2+
146.0602	11	C9H8NO+
148.0394	3	C8H6NO2+
149.0346	12	C7H5N2O2+
151.0265	6	C7H5NO3+
156.0082	3	C9H2NO2+
157.0157	6	C9H3NO2+
158.0237	23	C9H4NO2+
158.0602	3	C10H8NO+
159.0317	3	C9H5NO2+
160.0393	34	C9H6NO2+
161.0473	2	C9H7NO2+
164.0105	13	C8H4O4+
170.035	15	C9H4N3O+
172.0393	141	C10H6NO2+
173.0471	2	C10H7NO2+
176.0337	1	C9H6NO3+
186.0186	96	C10H4NO3+
200.0345	1	C11H6NO3+
214.0136	24	C11H4NO4+
232.0238	1	C11H6NO5+
