Mass spectrum: Kresoxim-methyl acid; LC-ESI-QFT; MS2; CE: 60; R=35000; [M+H]+
Name: Kresoxim-methyl acid
Name: (2E)-2-methoxyimino-2-[2-[(2-methylphenoxy)methyl]phenyl]acetic acid
Formula: C17H17NO4
Exact mass: 299.11576
SMILES: O=C(O)\C(=N\OC)c2ccccc2COc1ccccc1C
InChI: InChI=1S/C17H17NO4/c1-12-7-3-6-10-15(12)22-11-13-8-4-5-9-14(13)16(17(19)20)18-21-2/h3-10H,11H2,1-2H3,(H,19,20)/b18-16+
Instrument: Q Exactive Plus Orbitrap Thermo Scientific
Instrument type: LC-ESI-QFT
Ms type: MS2
Ion mode: POSITIVE
Ionization: ESI
Fragmentation mode: HCD
Collision energy: 60 (nominal)
Resolution: 35000
Column name: XBridge C18 3.5um, 2.1x50mm, Waters
Retention time: 10.9 min
Base peak: 300.1227
Precursor m/z: 300.123
Precursor type: [M+H]+
m/z	relative intensity	assigned
53.0386	2	C4H5+
55.0178	2	C3H3O+
59.0492	3	C3H7O+
63.0228	1	C5H3+
65.0386	28	C5H5+
69.0334	1	C4H5O+
77.0385	6	C6H5+
79.0542	15	C6H7+
89.0386	167	C7H5+
90.0338	3	C6H4N+
90.0464	3	C7H6+
91.0542	209	C7H7+
93.0699	5	C7H9+
95.0491	12	C6H7O+
103.0544	1	C8H7+
104.0495	15	C7H6N+
105.0336	2	C7H5O+
105.0447	7	C6H5N2+
106.0412	2	C7H6O+
107.0491	19	C7H7O+
109.0649	4	C7H9O+
115.0542	2	C9H7+
116.0495	999	C8H6N+
117.0572	63	C8H7N+
118.0413	2	C8H6O+
118.0651	13	C8H8N+
119.0491	10	C8H7O+
119.0604	3	C7H7N2+
121.0648	61	C8H9O+
128.0494	5	C9H6N+
130.0652	3	C9H8N+
132.0444	41	C8H6NO+
133.0522	2	C8H7NO+
134.06	61	C8H8NO+
135.044	27	C8H7O2+
135.0554	3	C7H7N2O+
140.0494	3	C10H6N+
141.0699	8	C11H9+
146.06	34	C9H8NO+
147.0679	1	C9H9NO+
148.0757	5	C9H10NO+
152.062	27	C12H8+
153.0699	18	C12H9+
154.065	6	C11H8N+
154.0778	2	C12H10+
155.0729	2	C11H9N+
156.0807	2	C11H10N+
157.0284	1	C10H5O2+
161.0472	7	C9H7NO2+
163.0538	1	C13H7+
164.0618	1	C13H8+
165.0699	54	C13H9+
166.0653	19	C12H8N+
166.0777	34	C13H10+
167.0732	23	C12H9N+
167.0855	49	C13H11+
168.0808	11	C12H10N+
169.0648	3	C12H9O+
176.0621	14	C14H8+
177.0699	47	C14H9+
178.0777	101	C14H10+
179.0734	25	C13H9N+
179.0855	92	C14H11+
180.0807	127	C13H10N+
181.0647	7	C13H9O+
181.0886	40	C13H11N+
181.1008	14	C14H13+
182.0725	7	C13H10O+
182.0965	2	C13H12N+
183.0805	3	C13H11O+
189.0574	3	C14H7N+
189.0697	9	C15H9+
190.0652	9	C14H8N+
190.0776	10	C15H10+
191.0729	7	C14H9N+
191.0855	23	C15H11+
192.0571	1	C14H8O+
192.0806	12	C14H10N+
192.0935	1	C15H12+
193.0886	71	C14H11N+
194.0727	106	C14H10O+
194.0964	169	C14H12N+
195.0805	38	C14H11O+
195.1043	4	C14H13N+
196.0756	4	C13H10NO+
196.1121	5	C14H14N+
197.0961	1	C14H13O+
203.0729	46	C15H9N+
204.0809	72	C15H10N+
205.0762	8	C14H9N2+
205.0886	9	C15H11N+
206.0601	52	C14H8NO+
206.0964	17	C15H12N+
207.068	164	C14H9NO+
207.0804	122	C15H11O+
207.104	16	C15H13N+
208.0759	14	C14H10NO+
208.0883	35	C15H12O+
209.0836	156	C14H11NO+
210.0677	4	C14H10O2+
210.0915	1	C14H12NO+
211.0752	8	C14H11O2+
220.0756	19	C15H10NO+
221.0835	10	C15H11NO+
222.0914	192	C15H12NO+
223.0992	60	C15H13NO+
224.107	43	C15H14NO+
225.0909	1	C15H13O2+
232.0758	1	C16H10NO+
232.0864	1	C15H10N3+
234.0913	1	C16H12NO+
235.063	6	C15H9NO2+
235.0752	46	C16H11O2+
236.0705	3	C15H10NO2+
236.0831	2	C16H12O2+
250.0862	1	C16H12NO2+
