Mass spectrum: Oxybutynin; LC-ESI-QFT; MS2; CE: 60; R=35000; [M+H]+
Name: Oxybutynin
Name: 2-cyclohexyl-2-hydroxy-2-phenyl-acetic acid 4-(diethylamino)but-2-ynyl ester
Formula: C22H31NO3
Exact mass: 357.23039
SMILES: CCN(CC)CC#CCOC(=O)C(C1CCCCC1)(C2=CC=CC=C2)O
InChI: InChI=1S/C22H31NO3/c1-3-23(4-2)17-11-12-18-26-21(24)22(25,19-13-7-5-8-14-19)20-15-9-6-10-16-20/h5,7-8,13-14,20,25H,3-4,6,9-10,15-18H2,1-2H3
Instrument: Q Exactive Orbitrap Thermo Scientific
Instrument type: LC-ESI-QFT
Ms type: MS2
Ion mode: POSITIVE
Ionization: ESI
Fragmentation mode: HCD
Collision energy: 60 (nominal)
Resolution: 35000
Column name: XBridge C18 3.5um, 2.1x50mm, Waters
Retention time: 8.9 min
Base peak: 358.2382
Precursor m/z: 358.2377
Precursor type: [M+H]+
m/z	relative intensity	assigned
51.0231	2	C4H3+
53.0388	3	C4H5+
54.034	100	C3H4N+
55.0544	8	C4H7+
56.0496	8	C3H6N+
58.0652	364	C3H8N+
59.0492	4	C3H7O+
63.0078	12	CH3O3+
65.0387	4	C5H5+
67.0417	8	C4H5N+
67.0543	55	C5H7+
68.0495	194	C4H6N+
69.0335	196	C4H5O+
69.0699	31	C5H9+
70.0651	24	C4H8N+
71.0492	8	C4H7O+
72.0808	999	C4H10N+
73.0886	21	C4H11N+
74.0965	18	C4H12N+
77.0386	12	C6H5+
79.0543	212	C6H7+
80.0496	64	C5H6N+
81.0574	70	C5H7N+
81.07	56	C6H9+
82.0652	88	C5H8N+
83.0731	2	C5H9N+
83.0856	49	C6H11+
84.0809	20	C5H10N+
86.0965	34	C5H12N+
91.0543	218	C7H7+
93.0573	2	C6H7N+
93.07	15	C7H9+
94.0652	198	C6H8N+
95.0492	71	C6H7O+
95.073	36	C6H9N+
95.0856	4	C7H11+
96.0809	103	C6H10N+
97.0285	281	C5H5O2+
98.0964	3	C6H12N+
99.0805	3	C6H11O+
103.0543	4	C8H7+
105.0336	547	C7H5O+
107.0493	351	C7H7O+
108.0809	82	C7H10N+
109.0888	40	C7H11N+
110.0964	2	C7H12N+
111.0806	2	C7H11O+
113.0233	4	C5H5O3+
114.0913	2	C6H12NO+
115.0542	11	C9H7+
117.0699	28	C9H9+
121.0649	14	C8H9O+
122.0965	25	C8H12N+
124.1123	32	C8H14N+
125.1201	2	C8H15N+
128.0621	13	C10H8+
129.07	146	C10H9+
131.0857	2	C10H11+
141.0699	11	C11H9+
142.1229	718	C8H16NO+
143.0858	35	C11H11+
145.0651	2	C10H9O+
155.0491	2	C11H7O+
155.0607	2	C10H7N2+
155.0861	3	C12H11+
157.065	27	C11H9O+
165.0699	2	C13H9+
166.0773	3	C13H10+
169.1012	2	C13H13+
171.1169	68	C13H15+
173.06	9	C11H9O2+
181.101	8	C14H13+
183.1045	3	C13H13N+
185.0597	4	C12H9O2+
189.1276	84	C13H17O+
199.1119	30	C14H15O+
