Mass spectrum: 4-Formylaminoantipyrine; LC-ESI-ITFT; MS2; CE: 90%; R=7500; [M+H]+
Name: 4-Formylaminoantipyrine
Name: N-(1,5-dimethyl-3-oxidanylidene-2-phenyl-pyrazol-4-yl)methanamide
Formula: C12H13N3O2
Exact mass: 231.1008
SMILES: O=C2C(\NC=O)=C(\C)N(C)N2c1ccccc1
InChI: InChI=1S/C12H13N3O2/c1-9-11(13-8-16)12(17)15(14(9)2)10-6-4-3-5-7-10/h3-8H,1-2H3,(H,13,16)
Instrument: LTQ Orbitrap XL Thermo Scientific
Instrument type: LC-ESI-ITFT
Ms type: MS2
Ion mode: POSITIVE
Ionization: ESI
Fragmentation mode: HCD
Collision energy: 90 % (nominal)
Resolution: 7500
Column name: XBridge C18 3.5um, 2.1x50mm, Waters
Retention time: 3.7 min
Base peak: 232.1088
Precursor m/z: 232.1081
Precursor type: [M+H]+
m/z	relative intensity	assigned
53.0386	82	C4H5+
56.0495	999	C3H6N+
58.0652	35	C3H8N+
77.0387	628	C6H5+
81.045	8	C4H5N2+
83.0605	829	C4H7N2+
85.0762	13	C4H9N2+
91.054	10	C7H7+
94.0652	247	C6H8N+
95.0493	81	C6H7O+
104.0496	434	C7H6N+
105.0448	193	C6H5N2+
118.065	22	C8H8N+
128.05	36	C9H6N+
130.0647	26	C9H8N+
132.0805	27	C9H10N+
145.0761	12	C9H9N2+
146.0596	29	C9H8NO+
