Mass spectrum: Pyraclostrobin; LC-ESI-ITFT; MS2; CE: 15%; R=15000; [M+H]+
Name: Pyraclostrobin
Name: methyl [2-({[1-(4-chlorophenyl)-1H-pyrazol-3-yl]oxy}methyl)phenyl]methoxycarbamate
Formula: C19H18ClN3O4
Exact mass: 387.0986
SMILES: c1(ccc(n2ccc(OCc3c(cccc3)N(OC)C(OC)=O)n2)cc1)Cl
InChI: InChI=1S/C19H18ClN3O4/c1-25-19(24)23(26-2)17-6-4-3-5-14(17)13-27-18-11-12-22(21-18)16-9-7-15(20)8-10-16/h3-12H,13H2,1-2H3
Instrument: LTQ Orbitrap XL Thermo Scientific
Instrument type: LC-ESI-ITFT
Ms type: MS2
Ion mode: POSITIVE
Ionization: ESI
Fragmentation mode: HCD
Collision energy: 15 % (nominal)
Resolution: 15000
Column name: XBridge C18 3.5um, 2.1x50mm, Waters
Retention time: 13.4 min
Base peak: 388.1064
Precursor m/z: 388.1059
Precursor type: [M+H]+
m/z	relative intensity	assigned
118.065	18	C8H8N+
132.0442	28	C8H6NO+
133.0521	14	C8H7NO+
134.0598	36	C8H8NO+
149.047	88	C8H7NO2+
162.0548	182	C9H8NO2+
163.0626	315	C9H9NO2+
164.0705	710	C9H10NO2+
166.0861	11	C9H12NO2+
194.0811	999	C10H12NO3+
216.0651	8	C12H10NO3+
296.0581	327	C19H8N2O2+
298.0723	5	C19H10N2O2+
324.053	44	C17H11ClN3O2+
328.085	8	C17H15ClN3O2+
356.079	183	C18H15ClN3O3+
388.1049	297	C19H19ClN3O4+
