Mass spectrum: Benzenesulfonamide; LC-ESI-QFT; MS2; CE: 15; R=35000; [M+H]+
Name: Benzenesulfonamide
Name: Benzenesulfonimidic acid
Formula: C6H7NO2S
Exact mass: 157.01975
SMILES: c1ccc(cc1)S(=N)(=O)O
InChI: InChI=1S/C6H7NO2S/c7-10(8,9)6-4-2-1-3-5-6/h1-5H,(H2,7,8,9)
Instrument: Q Exactive Plus Orbitrap Thermo Scientific
Instrument type: LC-ESI-QFT
Ms type: MS2
Ion mode: POSITIVE
Ionization: ESI
Fragmentation mode: HCD
Collision energy: 15 (nominal)
Resolution: 35000
Column name: XBridge C18 3.5um, 2.1x50mm, Waters
Retention time: 3.1 min
Base peak: 158.0266
Precursor m/z: 158.027
Precursor type: [M+H]+
m/z	relative intensity	assigned
50.0149	4	C4H2+
51.0227	5	C4H3+
53.0386	169	C4H5+
55.0178	10	C3H3O+
68.997	1	C3HO2+
77.0384	260	C6H5+
81.0334	21	C5H5O+
94.0413	4	C6H6O+
95.049	594	C6H7O+
105.0446	411	C6H5N2+
141.0003	999	C6H5O2S+
158.0269	12	C6H8NO2S+
