Mass spectrum: Napropamid; LC-ESI-ITFT; MS2; CE: 35%; R=7500; [M+H]+
Name: Napropamid
Name: N,N-diethyl-2-(1-naphthalenyloxy)propanamide
Formula: C17H21NO2
Exact mass: 271.1567
SMILES: CCN(CC)C(=O)C(C)OC1=CC=CC2=CC=CC=C21
InChI: InChI=1S/C17H21NO2/c1-4-18(5-2)17(19)13(3)20-16-12-8-10-14-9-6-7-11-15(14)16/h6-13H,4-5H2,1-3H3
Instrument: LTQ Orbitrap XL Thermo Scientific
Instrument type: LC-ESI-ITFT
Ms type: MS2
Ion mode: POSITIVE
Ionization: ESI
Fragmentation mode: CID
Collision energy: 35 % (nominal)
Resolution: 7500
Column name: XBridge C18 3.5um, 2.1x50mm, Waters
Retention time: 11.7 min
Base peak: 272.1651
Precursor m/z: 272.1645
Precursor type: [M+H]+
m/z	relative intensity	assigned
72.0808	29	C4H10N+
100.0757	2	C5H10NO+
100.1121	10	C6H14N+
114.0913	3	C6H12NO+
128.107	94	C7H14NO+
129.1148	52	C7H15NO+
171.0806	130	C12H11O+
199.0756	999	C13H11O2+
