Mass spectrum: Ranitidine-S-oxide; LC-ESI-ITFT; MS2; CE: 90%; R=30000; [M+H]+
Name: Ranitidine-S-oxide
Name: 1,1-Ethenediamine, N-(2-(((5-((dimethylamino)methyl)-2-furanyl)methyl)sulfinyl)ethyl)-N'-methyl-2-nitro-
Formula: C13H22N4O4S
Exact mass: 330.1362
SMILES: [O-][N+](=O)\C=C(/NC)NCCS(=O)Cc1oc(cc1)CN(C)C
InChI: InChI=1S/C13H22N4O4S/c1-14-13(9-17(18)19)15-6-7-22(20)10-12-5-4-11(21-12)8-16(2)3/h4-5,9,14-15H,6-8,10H2,1-3H3/b13-9+
Instrument: LTQ Orbitrap XL Thermo Scientific
Instrument type: LC-ESI-ITFT
Ms type: MS2
Ion mode: POSITIVE
Ionization: ESI
Fragmentation mode: HCD
Collision energy: 90 % (nominal)
Resolution: 30000
Column name: XBridge C18 3.5um, 2.1x50mm, Waters
Retention time: 0.8 min
Base peak: 331.1445
Precursor m/z: 331.1435
Precursor type: [M+H]+
m/z	relative intensity	assigned
55.0416	13	C3H5N+
56.0495	30	C3H6N+
58.0651	263	C3H8N+
65.0386	26	C5H5+
66.0464	68	C5H6+
67.0417	16	C4H5N+
67.0542	67	C5H7+
68.0495	73	C4H6N+
79.0542	47	C6H7+
80.0494	26	C5H6N+
81.0335	32	C5H5O+
81.0573	67	C5H7N+
81.0699	49	C6H9+
82.0651	233	C5H8N+
88.9929	13	C2H3NOS+
91.0543	18	C7H7+
93.0699	23	C7H9+
94.0414	999	C6H6O+
94.0651	261	C6H8N+
95.0492	72	C6H7O+
95.073	219	C6H9N+
96.057	7	C6H8O+
97.076	189	C5H9N2+
98.0838	34	C5H10N2+
99.0553	13	C4H7N2O+
102.0373	13	C4H8NS+
108.0808	174	C7H10N+
110.0965	528	C7H12N+
123.0678	6	C7H9NO+
130.0559	14	C5H10N2S+
162.9948	6	C5HN5S+
