Mass spectrum: Torsemide; LC-ESI-QFT; MS2; CE: 75; R=35000; [M-H]-
Name: Torsemide
Name: SMR000466313
Name: 1-[4-(3-methylanilino)pyridin-3-yl]sulfonyl-3-propan-2-ylurea
Formula: C16H20N4O3S
Exact mass: 348.12561
SMILES: O=S(=O)(c2c(Nc1cc(ccc1)C)ccnc2)NC(=O)NC(C)C
InChI: InChI=1S/C16H20N4O3S/c1-11(2)18-16(21)20-24(22,23)15-10-17-8-7-14(15)19-13-6-4-5-12(3)9-13/h4-11H,1-3H3,(H,17,19)(H2,18,20,21)
Instrument: Q Exactive Orbitrap Thermo Scientific
Instrument type: LC-ESI-QFT
Ms type: MS2
Ion mode: NEGATIVE
Ionization: ESI
Fragmentation mode: HCD
Collision energy: 75 (nominal)
Resolution: 35000
Column name: XBridge C18 3.5um, 2.1x50mm, Waters
Retention time: 6.8 min
Base peak: 347.1184
Precursor m/z: 347.1183
Precursor type: [M-H]-
m/z	relative intensity	assigned
56.9804	5	C2HS-
57.9757	109	CNS-
60.9753	132	CHOS-
61.9706	31	NOS-
63.9624	44	O2S-
65.0145	23	C3HN2-
66.0349	4	C4H4N-
67.0302	3	C3H3N2-
68.0142	3	C3H2NO-
77.9655	709	NO2S-
78.9733	79	HNO2S-
79.9574	5	O3S-
79.9812	25	H2NO2S-
90.035	3	C6H4N-
91.0302	116	C5H3N2-
92.038	462	C5H4N2-
93.0459	144	C5H5N2-
93.9604	3	NO3S-
94.0299	19	C5H4NO-
95.0251	14	C4H3N2O-
96.9992	11	C4H3NS-
105.0584	127	C7H7N-
106.0663	15	C7H8N-
107.0489	49	C5H5N3-
108.0329	684	C5H4N2O-
109.0407	13	C5H5N2O-
117.0457	2	C7H5N2-
118.0412	4	C6H4N3-
120.9993	13	C6H3NS-
123.0023	25	C5H3N2S-
124.0101	23	C5H4N2S-
124.9942	4	C5H3NOS-
125.0179	19	C5H5N2S-
130.0662	6	C9H8N-
131.0489	17	C7H5N3-
132.0567	12	C7H6N3-
135.0024	31	C6H3N2S-
149.0052	18	C6H3N3S-
149.0179	9	C7H5N2S-
150.0132	15	C6H4N3S-
150.9972	111	C6H3N2OS-
153.0002	15	C5H3N3OS-
154.0661	5	C11H8N-
154.992	27	C5H3N2O2S-
155.0614	29	C10H7N2-
156	99	C5H4N2O2S-
165.0003	3	C6H3N3OS-
167.0616	10	C11H7N2-
168.0568	6	C10H6N3-
169.02	6	C7H7NO2S-
169.0646	12	C10H7N3-
169.0772	19	C11H9N2-
170.0724	18	C10H8N3-
175.0335	3	C9H7N2S-
180.0566	3	C11H6N3-
180.0692	14	C12H8N2-
181.0649	206	C5H13N2O3S-
181.0771	545	C4H13N4O2S-
182.0724	73	C11H8N3-
183.0926	362	C4H15N4O2S-
189.049	3	C10H9N2S-
192.0569	30	C12H6N3-
193.0648	3	C12H7N3-
194.0723	108	C12H8N3-
195.0801	999	C12H9N3-
196.0879	573	C12H10N3-
197.0721	6	C12H9N2O-
198.1036	245	C12H12N3-
199.0334	50	C11H7N2S-
199.0875	29	C12H11N2O-
200.0289	19	C10H6N3S-
200.0414	10	C11H8N2S-
210.0672	59	C12H8N3O-
211.0209	3	C11H5N3S-
224.029	22	C12H6N3S-
225.0368	23	C12H7N3S-
226.0444	116	C12H8N3S-
227.0524	30	C12H9N3S-
228.0775	3	C12H10N3O2-
242.0397	5	C12H8N3OS-
243.0472	42	C12H9N3OS-
244.0547	35	C12H10N3OS-
262.0655	277	C12H12N3O2S-
