Mass spectrum: Amiodarone; LC-ESI-QFT; MS2; CE: 30; R=35000; [M+H]+
Name: Amiodarone
Name: (2-butyl-1-benzofuran-3-yl)-[4-(2-diethylaminoethyloxy)-3,5-bis(iodanyl)phenyl]methanone
Formula: C25H29I2NO3
Exact mass: 645.02369
SMILES: Ic1cc(cc(I)c1OCCN(CC)CC)C(=O)c2c3ccccc3oc2CCCC
InChI: InChI=1S/C25H29I2NO3/c1-4-7-11-22-23(18-10-8-9-12-21(18)31-22)24(29)17-15-19(26)25(20(27)16-17)30-14-13-28(5-2)6-3/h8-10,12,15-16H,4-7,11,13-14H2,1-3H3
Instrument: Q Exactive Orbitrap Thermo Scientific
Instrument type: LC-ESI-QFT
Ms type: MS2
Ion mode: POSITIVE
Ionization: ESI
Fragmentation mode: HCD
Collision energy: 30 (nominal)
Resolution: 35000
Column name: XBridge C18 3.5um, 2.1x50mm, Waters
Retention time: 14.4 min
Base peak: 646.0309
Precursor m/z: 646.031
Precursor type: [M+H]+
m/z	relative intensity	assigned
58.0652	999	C3H8N+
70.0652	2	C4H8N+
72.0808	263	C4H10N+
73.0886	76	C4H11N+
74.0964	10	C4H12N+
86.0964	606	C5H12N+
100.1121	697	C6H14N+
131.0492	1	C9H7O+
159.0443	6	C10H7O2+
201.091	62	C13H13O2+
263.1063	3	C18H15O2+
272.9416	1	C9H6IO2+
275.0699	2	C18H11O3+
276.078	34	C18H12O3+
277.0862	19	C18H13O3+
290.0939	7	C19H14O3+
319.1332	21	
359.9649	2	C16H9IO2+
372.8217	4	C7H3I2O2+
398.8377	7	C9H5I2O2+
476.072	16	C22H23INO3+
516.9155	18	C18H15I2O2+
572.9415	26	C21H19I2O3+
646.031	745	C25H30I2NO3+
