Mass spectrum: Oseltamivir; LC-ESI-ITFT; MS2; CE: 90%; R=30000; [M+H]+
Name: Oseltamivir
Name: (3R,4R,5S)-4-acetamido-5-amino-3-(1-ethylpropoxy)cyclohexene-1-carboxylic acid ethyl ester
Formula: C16H28N2O4
Exact mass: 312.2049
SMILES: CCC(CC)OC1C=C(CC(C1NC(=O)C)N)C(=O)OCC
InChI: InChI=1S/C16H28N2O4/c1-5-12(6-2)22-14-9-11(16(20)21-7-3)8-13(17)15(14)18-10(4)19/h9,12-15H,5-8,17H2,1-4H3,(H,18,19)/t13-,14+,15+/m0/s1
Instrument: LTQ Orbitrap XL Thermo Scientific
Instrument type: LC-ESI-ITFT
Ms type: MS2
Ion mode: POSITIVE
Ionization: ESI
Fragmentation mode: HCD
Collision energy: 90 % (nominal)
Resolution: 30000
Column name: XBridge C18 3.5um, 2.1x50mm, Waters
Retention time: 7.0 min
Base peak: 313.2132
Precursor m/z: 313.2122
Precursor type: [M+H]+
m/z	relative intensity	assigned
53.0386	11	C4H5+
60.0444	8	C2H6NO+
65.0386	347	C5H5+
66.0465	15	C5H6+
67.0417	10	C4H5N+
67.0543	158	C5H7+
68.0495	26	C4H6N+
77.0386	102	C6H5+
80.0495	138	C5H6N+
82.0652	145	C5H8N+
83.0491	19	C5H7O+
92.0495	601	C6H6N+
93.0335	303	C6H5O+
93.0573	225	C6H7N+
94.0652	737	C6H8N+
95.0491	25	C6H7O+
105.0447	33	C6H5N2+
105.0699	6	C8H9+
106.0652	8	C7H8N+
108.0444	26	C6H6NO+
108.0682	22	C6H8N2+
109.0761	195	C6H9N2+
110.0601	230	C6H8NO+
111.0441	6	C6H7O2+
119.0604	96	C7H7N2+
120.0444	999	C7H6NO+
121.0283	5	C7H5O2+
126.0548	7	C6H8NO2+
133.0761	6	C8H9N2+
134.0602	8	C8H8NO+
137.0472	90	C7H7NO2+
137.071	103	C7H9N2O+
138.055	194	C7H8NO2+
138.0911	10	C8H12NO+
166.0862	45	C9H12NO2+
