Mass spectrum: Chlorophacinone; LC-ESI-QFT; MS2; CE: 45%; R=17500; [M-H]-
Name: Chlorophacinone
Name: 2-[2-(4-chlorophenyl)-2-phenylacetyl]indene-1,3-dione
Formula: C23H15ClO3
Exact mass: 374.0710
SMILES: C1=CC=C(C=C1)C(C2=CC=C(C=C2)Cl)C(=O)C3C(=O)C4=CC=CC=C4C3=O
InChI: InChI=1S/C23H15ClO3/c24-16-12-10-15(11-13-16)19(14-6-2-1-3-7-14)23(27)20-21(25)17-8-4-5-9-18(17)22(20)26/h1-13,19-20H
Instrument: Exploris 240 Orbitrap Thermo Scientific
Instrument type: LC-ESI-QFT
Ms type: MS2
Ion mode: NEGATIVE
Ionization: ESI
Fragmentation mode: HCD
Collision energy: 45 % (nominal)
Resolution: 17500
Column name: XBridge C18 3.5um, 2.1x50mm, Waters
Retention time: 14.469 min
Base peak: 373.0634
Precursor m/z: 373.0637
Precursor type: [M-H]-
m/z	relative intensity	assigned
116.0271	8	C8H4O-
144.0218	53	C9H4O2-
145.0295	177	C9H5O2-
160.0167	11	C9H4O3-
172.0166	43	C10H4O3-
201.0477	999	C13H10Cl-
373.0636	32	C23H14ClO3-
