Mass spectrum: Pramoxine; LC-ESI-QFT; MS2; CE: 45; R=35000; [M+H]+
Name: Pramoxine
Name: 4-[3-(4-butoxyphenoxy)propyl]morpholine
Formula: C17H27NO3
Exact mass: 293.19909
SMILES: CCCCOC1=CC=C(C=C1)OCCCN2CCOCC2
InChI: InChI=1S/C17H27NO3/c1-2-3-12-20-16-5-7-17(8-6-16)21-13-4-9-18-10-14-19-15-11-18/h5-8H,2-4,9-15H2,1H3
Instrument: Q Exactive Plus Orbitrap Thermo Scientific
Instrument type: LC-ESI-QFT
Ms type: MS2
Ion mode: POSITIVE
Ionization: ESI
Fragmentation mode: HCD
Collision energy: 45 (nominal)
Resolution: 35000
Column name: XBridge C18 3.5um, 2.1x50mm, Waters
Retention time: 7.3 min
Base peak: 294.206
Precursor m/z: 294.2064
Precursor type: [M+H]+
m/z	relative intensity	assigned
56.0494	8	C3H6N+
57.0699	7	C4H9+
58.0651	5	C3H8N+
67.0542	1	C5H7+
70.0651	22	C4H8N+
72.0807	8	C4H10N+
84.0807	5	C5H10N+
86.06	51	C4H8NO+
87.0679	2	C4H9NO+
88.0757	58	C4H10NO+
95.0491	5	C6H7O+
98.06	1	C5H8NO+
98.0964	8	C6H12N+
100.0756	999	C5H10NO+
102.0913	19	C5H12NO+
105.0698	2	C8H9+
107.049	1	C7H7O+
109.0284	4	C6H5O2+
110.0363	2	C6H6O2+
111.044	1	C6H7O2+
114.0913	1	C6H12NO+
123.044	151	C7H7O2+
126.0913	5	C7H12NO+
128.1069	488	C7H14NO+
133.0649	4	C9H9O+
151.0753	245	C9H11O2+
166.0988	2	C10H14O2+
179.1066	74	C11H15O2+
207.138	11	C13H19O2+
237.1353	1	C13H19NO3+
238.1437	8	C13H20NO3+
294.2064	330	C17H28NO3+
