Mass spectrum: N4-Acetylsulfamethazine; LC-ESI-ITFT; MS2; CE: 60%; R=7500; [M+H]+
Name: N4-Acetylsulfamethazine
Name: N-[4-[(4,6-dimethyl-2-pyrimidinyl)sulfamoyl]phenyl]acetamide
Formula: C14H16N4O3S
Exact mass: 320.0943
SMILES: O=S(=O)(c1ccc(cc1)NC(=O)C)Nc1nc(cc(n1)C)C
InChI: InChI=1S/C14H16N4O3S/c1-9-8-10(2)16-14(15-9)18-22(20,21)13-6-4-12(5-7-13)17-11(3)19/h4-8H,1-3H3,(H,17,19)(H,15,16,18)
Instrument: LTQ Orbitrap XL Thermo Scientific
Instrument type: LC-ESI-ITFT
Ms type: MS2
Ion mode: POSITIVE
Ionization: ESI
Fragmentation mode: HCD
Collision energy: 60 % (nominal)
Resolution: 7500
Column name: XBridge C18 3.5um, 2.1x50mm, Waters
Retention time: 4.5 min
Base peak: 321.1027
Precursor m/z: 321.1016
Precursor type: [M+H]+
m/z	relative intensity	assigned
65.0386	417	C5H5+
68.0495	21	C4H6N+
79.0541	5	C6H7+
81.0447	28	C4H5N2+
92.0495	65	C6H6N+
93.0335	64	C6H5O+
93.0573	28	C6H7N+
94.0651	23	C6H8N+
95.0603	94	C5H7N2+
96.0682	64	C5H8N2+
106.0652	12	C7H8N+
107.0601	13	C6H7N2+
108.0444	420	C6H6NO+
122.0714	73	C6H8N3+
123.0791	330	C6H9N3+
124.087	612	C6H10N3+
125.0708	36	C6H9N2O+
134.0601	999	C8H8NO+
136.0757	32	C8H10NO+
150.0556	7	C8H8NO2+
156.0116	45	C6H6NO2S+
162.0659	35	C8H8N3O+
186.0334	196	C6H8N3O2S+
196.0874	8	C12H10N3+
198.022	29	C8H8NO3S+
204.0436	76	C6H10N3O3S+
212.1055	35	C12H12N4+
213.1135	109	C12H13N4+
214.0983	28	C12H12N3O+
255.1241	159	C14H15N4O+
