Mass spectrum: Irgarol; LC-ESI-ITFT; MS2; CE: 45%; R=15000; [M+H]+
Name: Irgarol
Name: 2-N-tert-butyl-4-N-cyclopropyl-6-methylsulfanyl-1,3,5-triazine-2,4-diamine
Formula: C11H19N5S
Exact mass: 253.1356
SMILES: c1(nc(NC(C)(C)C)nc(n1)SC)NC1CC1
InChI: InChI=1S/C11H19N5S/c1-11(2,3)16-9-13-8(12-7-5-6-7)14-10(15-9)17-4/h7H,5-6H2,1-4H3,(H2,12,13,14,15,16)
Instrument: LTQ Orbitrap XL Thermo Scientific
Instrument type: LC-ESI-ITFT
Ms type: MS2
Ion mode: POSITIVE
Ionization: ESI
Fragmentation mode: HCD
Collision energy: 45 % (nominal)
Resolution: 15000
Column name: XBridge C18 3.5um, 2.1x50mm, Waters
Retention time: 9.2 min
Base peak: 254.1437
Precursor m/z: 254.1434
Precursor type: [M+H]+
m/z	relative intensity	assigned
56.0494	3	C3H6N+
68.0243	1	C2H2N3+
74.0057	2	C2H4NS+
81.045	1	C4H5N2+
83.0603	10	C4H7N2+
91.0324	26	C2H7N2S+
108.0556	7	C5H6N3+
114.0371	2	C5H8NS+
116.0277	4	C3H6N3S+
125.0821	11	C5H9N4+
150.0773	4	C6H8N5+
156.0339	4	C4H6N5S+
156.059	8	C6H10N3S+
170.0493	4	C5H8N5S+
171.07	3	C6H11N4S+
198.0807	999	C7H12N5S+
254.1433	136	C11H20N5S+
