Mass spectrum: Phenobarbital; LC-ESI-QFT; MS2; CE: 75; R=35000; [M+H]+
Name: Phenobarbital
Name: 5-ethyl-5-phenyl-1,3-diazinane-2,4,6-trione
Formula: C12H12N2O3
Exact mass: 232.08479
SMILES: CCC1(C(=O)NC(=O)NC1=O)C2=CC=CC=C2
InChI: InChI=1S/C12H12N2O3/c1-2-12(8-6-4-3-5-7-8)9(15)13-11(17)14-10(12)16/h3-7H,2H2,1H3,(H2,13,14,15,16,17)
Instrument: Q Exactive Plus Orbitrap Thermo Scientific
Instrument type: LC-ESI-QFT
Ms type: MS2
Ion mode: POSITIVE
Ionization: ESI
Fragmentation mode: HCD
Collision energy: 75 (nominal)
Resolution: 35000
Column name: XBridge C18 3.5um, 2.1x50mm, Waters
Retention time: 6.0 min
Base peak: 251.1845
Precursor m/z: 233.0921
Precursor type: [M+H]+
m/z	relative intensity	assigned
51.0228	8	C4H3+
53.0385	44	C4H5+
55.0178	55	C3H3O+
55.0542	133	C4H7+
56.0494	111	C3H6N+
57.0334	44	C3H5O+
57.0699	29	C4H9+
59.0491	78	C3H7O+
65.0385	7	C5H5+
67.0542	37	C5H7+
69.0334	28	C4H5O+
69.0698	45	C5H9+
69.9922	7	C2NO2+
71.049	25	C4H7O+
73.0282	18	C3H5O2+
73.0649	3	C4H9O+
76.0393	4	C2H6NO2+
77.0384	17	C6H5+
79.0541	166	C6H7+
81.0334	4	C5H5O+
81.0698	56	C6H9+
83.049	16	C5H7O+
83.0854	7	C6H11+
84.0806	21	C5H10N+
87.0439	5	C4H7O2+
88.0392	9	C3H6NO2+
89.0385	169	C7H5+
91.0542	574	C7H7+
93.0571	9	C6H7N+
93.0698	18	C7H9+
94.0412	4	C6H6O+
95.0491	113	C6H7O+
95.0854	17	C7H11+
97.0074	20	C8H+
98.0963	8	C6H12N+
99.0188	28	C3H3N2O2+
99.044	7	C5H7O2+
103.054	22	C8H7+
104.0494	58	C7H6N+
105.0334	352	C7H5O+
105.0447	87	C6H5N2+
105.0572	25	C7H7N+
105.0698	53	C8H9+
106.065	426	C7H8N+
107.0489	18	C7H7O+
107.0854	8	C8H11+
115.0541	158	C9H7+
116.0494	19	C8H6N+
116.0618	6	C9H8+
117.0333	88	C8H5O+
117.0698	412	C9H9+
118.0649	27	C8H8N+
119.0491	5	C8H7O+
119.0727	7	C8H9N+
119.0854	51	C9H11+
128.0619	38	C10H8+
129.0698	43	C10H9+
131.0854	9	C10H11+
132.0442	25	C8H6NO+
133.0521	999	C8H7NO+
134.0599	177	C8H8NO+
134.0962	115	C9H12N+
135.0802	5	C9H11O+
141.0699	5	C11H9+
143.0728	39	C10H9N+
144.0807	278	C10H10N+
145.0283	64	C9H5O2+
145.0646	32	C10H9O+
146.0599	6	C9H8NO+
154.0649	19	C11H8N+
155.0601	35	C10H7N2+
162.0913	68	C10H12NO+
177.0654	54	C9H9N2O2+
