Mass spectrum: Phenylphosphonic Acid; LC-ESI-QFT; MS2; CE: 90%; R=15000; [M-H]-
Name: Phenylphosphonic Acid
Formula: C6H7O3P
Exact mass: 158.0133
SMILES: C1=CC=C(C=C1)P(=O)(O)O
InChI: InChI=1S/C6H7O3P/c7-10(8,9)6-4-2-1-3-5-6/h1-5H,(H2,7,8,9)
Instrument: Orbitrap Exploris 240 Thermo Scientific
Instrument type: LC-ESI-QFT
Ms type: MS2
Ion mode: NEGATIVE
Ionization: ESI
Fragmentation mode: HCD
Collision energy: 90 % (nominal)
Resolution: 15000
Column name: Atlantis C18 3um, 3.0x150mm, Waters
Retention time: 9.056 min
Base peak: 157.0059
Precursor m/z: 157.006
Precursor type: [M-H]-
Precursor intensity: 66013108
m/z	relative intensity	assigned
78.959	999	O3P-
157.0058	4	C6H6O3P-
