Mass spectrum: Carbamazepine-10,11-epoxide; LC-ESI-ITFT; MS2; CE: 60%; R=7500; [M+H]+
Name: Carbamazepine-10,11-epoxide
Name: 1a,10b-Dihydro-6H-dibenz(b,f)oxiren(d)azepine-6-carboxamide
Formula: C15H12N2O2
Exact mass: 252.0899
SMILES: NC(=O)N2c1ccccc1C4OC4c3ccccc23
InChI: InChI=1S/C15H12N2O2/c16-15(18)17-11-7-3-1-5-9(11)13-14(19-13)10-6-2-4-8-12(10)17/h1-8,13-14H,(H2,16,18)
Instrument: LTQ Orbitrap XL Thermo Scientific
Instrument type: LC-ESI-ITFT
Ms type: MS2
Ion mode: POSITIVE
Ionization: ESI
Fragmentation mode: HCD
Collision energy: 60 % (nominal)
Resolution: 7500
Column name: XBridge C18 3.5um, 2.1x50mm, Waters
Retention time: 6.3 min
Base peak: 275.08
Precursor m/z: 253.0972
Precursor type: [M+H]+
m/z	relative intensity	assigned
165.0698	9	C13H9+
167.0734	26	C12H9N+
180.081	999	C13H10N+
181.0887	42	C13H11N+
182.0967	339	C13H12N+
192.0802	5	C14H10N+
193.0895	6	C14H11N+
208.0759	3	C14H10NO+
210.0916	196	C14H12NO+
236.07	2	C15H10NO2+
253.0979	4	C15H13N2O2+
