Mass spectrum: Naftifine; LC-ESI-QFT; MS2; CE: 120; R=35000; [M+H]+
Name: Naftifine
Name: Suadian
Name: N-methyl-N-(naphthalen-1-ylmethyl)-3-phenylprop-2-en-1-amine
Formula: C21H21N
Exact mass: 287.16740
SMILES: CN(CC=CC1=CC=CC=C1)CC2=CC=CC3=CC=CC=C32
InChI: InChI=1S/C21H21N/c1-22(16-8-11-18-9-3-2-4-10-18)17-20-14-7-13-19-12-5-6-15-21(19)20/h2-15H,16-17H2,1H3
Instrument: Q Exactive Plus Orbitrap Thermo Scientific
Instrument type: LC-ESI-QFT
Ms type: MS2
Ion mode: POSITIVE
Ionization: ESI
Fragmentation mode: HCD
Collision energy: 120 (nominal)
Resolution: 35000
Column name: XBridge C18 3.5um, 2.1x50mm, Waters
Retention time: 7.5 min
Base peak: 288.1741
Precursor m/z: 288.1747
Precursor type: [M+H]+
m/z	relative intensity	assigned
51.0228	1	C4H3+
53.0022	2	C3HO+
62.0149	3	C5H2+
63.0229	19	C5H3+
65.0386	70	C5H5+
77.0384	3	C6H5+
78.0464	2	C6H6+
87.0228	1	C7H3+
89.0386	28	C7H5+
91.0542	511	C7H7+
95.0492	2	C6H7O+
102.0464	6	C8H6+
105.0447	2	C6H5N2+
114.0464	2	C9H6+
115.0542	999	C9H7+
116.062	20	C9H8+
117.0698	48	C9H9+
139.0542	9	C11H7+
140.062	2	C11H8+
141.0698	120	C11H9+
