Mass spectrum: 1H-Benzotriazole, 4(or 5)-methyl-; LC-ESI-QFT; MS2; CE: 120; R=35000; [M+H]+
Name: 1H-Benzotriazole, 4(or 5)-methyl-
Name: 4-methyl-2H-benzotriazole
Formula: C7H7N3
Exact mass: 133.06400
SMILES: n1nc2c(cccc2[nH]1)C
InChI: InChI=1S/C7H7N3/c1-5-3-2-4-6-7(5)9-10-8-6/h2-4H,1H3,(H,8,9,10)
Instrument: Q Exactive Plus Orbitrap Thermo Scientific
Instrument type: LC-ESI-QFT
Ms type: MS2
Ion mode: POSITIVE
Ionization: ESI
Fragmentation mode: HCD
Collision energy: 120 (nominal)
Resolution: 35000
Column name: XBridge C18 3.5um, 2.1x50mm, Waters
Retention time: 5.8 min
Base peak: 134.0712
Precursor m/z: 134.0713
Precursor type: [M+H]+
m/z	relative intensity	assigned
50.0151	101	C4H2+
51.023	126	C4H3+
52.0182	2	C3H2N+
53.0386	310	C4H5+
53.9974	1	C2NO+
54.0339	18	C3H4N+
55.0179	16	C3H3O+
56.0495	3	C3H6N+
63.0229	32	C5H3+
64.0182	1	C4H2N+
64.0307	8	C5H4+
65.0022	4	C4HO+
65.0386	59	C5H5+
66.0338	15	C4H4N+
66.0464	55	C5H6+
67.0417	65	C4H5N+
77.0385	797	C6H5+
78.0338	42	C5H4N+
78.0464	30	C6H6+
79.0542	455	C6H7+
80.0494	59	C5H6N+
81.0335	28	C5H5O+
89.0386	24	C7H5+
90.0339	4	C6H4N+
91.0417	35	C6H5N+
92.0371	1	C5H4N2+
94.0413	12	C6H6O+
95.0492	999	C6H7O+
96.0444	27	C5H6NO+
104.0495	23	C7H6N+
105.0448	509	C6H5N2+
106.0418	3	C7H6O+
106.0651	61	C7H8N+
134.0713	62	C7H8N3+
