Mass spectrum: 4-Piperidinecarboxamide; LC-ESI-QFT; MS2; CE: 90; R=35000; [M+H]+
Name: 4-Piperidinecarboxamide
Name: 4-piperidinecarboxamide
Formula: C6H12N2O
Exact mass: 128.09496
SMILES: O=C(N)C1CCNCC1
InChI: InChI=1S/C6H12N2O/c7-6(9)5-1-3-8-4-2-5/h5,8H,1-4H2,(H2,7,9)
Instrument: Q Exactive Orbitrap Thermo Scientific
Instrument type: LC-ESI-QFT
Ms type: MS2
Ion mode: POSITIVE
Ionization: ESI
Fragmentation mode: HCD
Collision energy: 90 (nominal)
Resolution: 35000
Column name: XBridge C18 3.5um, 2.1x50mm, Waters
Retention time: 0.8 min
Base peak: 129.1023
Precursor m/z: 129.1022
Precursor type: [M+H]+
m/z	relative intensity	assigned
55.0543	1	C4H7+
56.0495	16	C3H6N+
57.07	2	C4H9+
65.0386	3	C5H5+
67.0542	49	C5H7+
68.0495	46	C4H6N+
69.0335	23	C4H5O+
69.0699	5	C5H9+
77.0385	5	C6H5+
80.0494	1	C5H6N+
82.0652	22	C5H8N+
83.0492	3	C5H7O+
84.0808	999	C5H10N+
93.0573	7	C6H7N+
94.0651	166	C6H8N+
95.0491	16	C6H7O+
96.0444	3	C5H6NO+
105.0449	7	C6H5N2+
112.0757	790	C6H10NO+
129.1022	32	C6H13N2O+
