Mass spectrum: Napropamid; LC-ESI-ITFT; MS2; CE: 75%; R=7500; [M+H]+
Name: Napropamid
Name: N,N-diethyl-2-(1-naphthalenyloxy)propanamide
Formula: C17H21NO2
Exact mass: 271.1567
SMILES: CCN(CC)C(=O)C(C)OC1=CC=CC2=CC=CC=C21
InChI: InChI=1S/C17H21NO2/c1-4-18(5-2)17(19)13(3)20-16-12-8-10-14-9-6-7-11-15(14)16/h6-13H,4-5H2,1-3H3
Instrument: LTQ Orbitrap XL Thermo Scientific
Instrument type: LC-ESI-ITFT
Ms type: MS2
Ion mode: POSITIVE
Ionization: ESI
Fragmentation mode: HCD
Collision energy: 75 % (nominal)
Resolution: 7500
Column name: XBridge C18 3.5um, 2.1x50mm, Waters
Retention time: 11.7 min
Base peak: 272.1651
Precursor m/z: 272.1645
Precursor type: [M+H]+
m/z	relative intensity	assigned
57.0334	67	C3H5O+
58.0651	999	C3H8N+
72.0443	142	C3H6NO+
72.0808	770	C4H10N+
74.0964	193	C4H12N+
86.06	51	C4H8NO+
100.0756	222	C5H10NO+
100.112	333	C6H14N+
101.0834	117	C5H11NO+
114.0913	78	C6H12NO+
115.0542	52	C9H7+
116.0619	10	C9H8+
128.062	452	C10H8+
128.1068	52	C7H14NO+
129.07	53	C10H9+
129.1147	65	C7H15NO+
141.0703	34	C11H9+
143.0486	33	C10H7O+
143.0855	434	C11H11+
144.0571	62	C10H8O+
145.0642	27	C10H9O+
152.0619	78	C12H8+
153.07	301	C12H9+
155.0605	150	C10H7N2+
171.0804	529	C12H11O+
181.0761	86	C12H9N2+
