Mass spectrum: Morphothion; LC-ESI-QFT; MS2; CE: 45%; R=17500; [M+H]+
Name: Morphothion
Name: 2-dimethoxyphosphinothioylsulfanyl-1-morpholin-4-ylethanone
Formula: C8H16NO4PS2
Exact mass: 285.0258
SMILES: COP(=S)(OC)SCC(=O)N1CCOCC1
InChI: InChI=1S/C8H16NO4PS2/c1-11-14(15,12-2)16-7-8(10)9-3-5-13-6-4-9/h3-7H2,1-2H3
Instrument: Exploris 240 Orbitrap Thermo Scientific
Instrument type: LC-ESI-QFT
Ms type: MS2
Ion mode: POSITIVE
Ionization: ESI
Fragmentation mode: HCD
Collision energy: 45 % (nominal)
Resolution: 17500
Column name: XBridge C18 3.5um, 2.1x50mm, Waters
Retention time: 4.868 min
Base peak: 286.033
Precursor m/z: 286.0331
Precursor type: [M+H]+
m/z	relative intensity	assigned
78.9944	14	CH4O2P+
86.06	11	C4H8NO+
88.0758	48	C4H10NO+
124.9821	999	C2H6O2PS+
132.0478	19	C5H10NOS+
142.9926	197	C2H8O3PS+
144.0478	171	C6H10NOS+
156.954	122	C2H6O2PS2+
157.0081	34	C3H10O3PS+
160.0426	60	C6H10NO2S+
170.9698	780	C3H8O2PS2+
176.0198	26	C6H10NOS2+
198.9647	247	C4H8O3PS2+
254.0069	24	C7H13NO3PS2+
