Mass spectrum: Ciprofloxacin; LC-ESI-ITFT; MS2; CE: 30%; R=7500; [M+H]+
Name: Ciprofloxacin
Name: 1-cyclopropyl-6-fluoro-4-keto-7-piperazin-4-ium-1-yl-quinoline-3-carboxylate
Formula: C17H18FN3O3
Exact mass: 331.1332
SMILES: C(C1)C1N(C=C(C-2=O)C(=O)O)-c(cc(c3F)N(CCN4)CC4)c2c3
InChI: InChI=1S/C17H18FN3O3/c18-13-7-11-14(8-15(13)20-5-3-19-4-6-20)21(10-1-2-10)9-12(16(11)22)17(23)24/h7-10,19H,1-6H2,(H,23,24)
Instrument: LTQ Orbitrap XL Thermo Scientific
Instrument type: LC-ESI-ITFT
Ms type: MS2
Ion mode: POSITIVE
Ionization: ESI
Fragmentation mode: HCD
Collision energy: 30 % (nominal)
Resolution: 7500
Column name: XBridge C18 3.5um, 2.1x50mm, Waters
Retention time: 4.5 min
Base peak: 332.1415
Precursor m/z: 332.1405
Precursor type: [M+H]+
m/z	relative intensity	assigned
204.069	1	C11H9FN2O+
205.0777	1	C11H10FN2O+
231.0929	8	C13H12FN2O+
245.1088	85	C14H14FN2O+
260.1556	1	C15H19FN3+
268.1451	20	C13H19FN3O2+
286.136	6	C16H17FN3O+
288.1511	627	C16H19FN3O+
289.0988	1	C15H14FN2O3+
314.1304	701	C17H17FN3O2+
332.1411	999	C17H19FN3O3+
