Mass spectrum: Clindamycin; LC-ESI-ITFT; MS2; CE: 75%; R=7500; [M+H]+
Name: Clindamycin
Name: (2S,4R)-N-[2-chloranyl-1-[(2R,3R,4S,5R,6R)-6-methylsulfanyl-3,4,5-tris(oxidanyl)oxan-2-yl]propyl]-1-methyl-4-propyl-pyrrolidine-2-carboxamide
Formula: C18H33ClN2O5S
Exact mass: 424.1799
SMILES: CCC[C@@H]1C[C@H](N(C1)C)C(=O)NC([C@@H]2[C@@H]([C@@H]([C@H]([C@H](O2)SC)O)O)O)C(C)Cl
InChI: InChI=1S/C18H33ClN2O5S/c1-5-6-10-7-11(21(3)8-10)17(25)20-12(9(2)19)16-14(23)13(22)15(24)18(26-16)27-4/h9-16,18,22-24H,5-8H2,1-4H3,(H,20,25)/t9?,10-,11+,12?,13+,14-,15-,16-,18-/m1/s1
Instrument: LTQ Orbitrap XL Thermo Scientific
Instrument type: LC-ESI-ITFT
Ms type: MS2
Ion mode: POSITIVE
Ionization: ESI
Fragmentation mode: HCD
Collision energy: 75 % (nominal)
Resolution: 7500
Column name: XBridge C18 3.5um, 2.1x50mm, Waters
Retention time: 6.7 min
Base peak: 425.1886
Precursor m/z: 425.1871
Precursor type: [M+H]+
m/z	relative intensity	assigned
58.0652	6	C3H8N+
67.0539	3	C5H7+
69.0698	7	C5H9+
70.0651	19	C4H8N+
82.065	11	C5H8N+
83.0729	14	C5H9N+
84.0808	8	C5H10N+
95.0857	9	C7H11+
124.1119	6	C8H14N+
126.1277	999	C8H16N+
