Mass spectrum: N,N-Didesmethylvenlafaxine; LC-ESI-ITFT; MS2; CE: 35%; R=7500; [M+H]+
Name: N,N-Didesmethylvenlafaxine
Name: 1-[2-Amino-1-(4-methoxyphenyl)ethyl]cyclohexanol
Formula: C15H23NO2
Exact mass: 249.1729
SMILES: OC2(C(c1ccc(OC)cc1)CN)CCCCC2
InChI: InChI=1S/C15H23NO2/c1-18-13-7-5-12(6-8-13)14(11-16)15(17)9-3-2-4-10-15/h5-8,14,17H,2-4,9-11,16H2,1H3
Instrument: LTQ Orbitrap XL Thermo Scientific
Instrument type: LC-ESI-ITFT
Ms type: MS2
Ion mode: POSITIVE
Ionization: ESI
Fragmentation mode: CID
Collision energy: 35 % (nominal)
Resolution: 7500
Column name: XBridge C18 3.5um, 2.1x50mm, Waters
Retention time: 6.3 min
Base peak: 250.1814
Precursor m/z: 250.1802
Precursor type: [M+H]+
m/z	relative intensity	assigned
121.0645	9	C8H9O+
124.1124	1	C8H14N+
147.0798	1	C10H11O+
203.1432	17	C14H19O+
215.1434	293	C15H19O+
232.17	999	C15H22NO+
