Mass spectrum: Propranolol; LC-ESI-ITFT; MS2; CE: 75%; R=15000; [M+H]+
Name: Propranolol
Name: 1-(1-naphthalenyloxy)-3-(propan-2-ylamino)-2-propanol
Formula: C16H21NO2
Exact mass: 259.1572
SMILES: CC(C)NCC(COC1=CC=CC2=CC=CC=C21)O
InChI: InChI=1S/C16H21NO2/c1-12(2)17-10-14(18)11-19-16-9-5-7-13-6-3-4-8-15(13)16/h3-9,12,14,17-18H,10-11H2,1-2H3
Instrument: LTQ Orbitrap XL Thermo Scientific
Instrument type: LC-ESI-ITFT
Ms type: MS2
Ion mode: POSITIVE
Ionization: ESI
Fragmentation mode: HCD
Collision energy: 75 % (nominal)
Resolution: 15000
Column name: XBridge C18 3.5um, 2.1x50mm, Waters
Retention time: 6.6 min
Base peak: 260.165
Precursor m/z: 260.1645
Precursor type: [M+H]+
m/z	relative intensity	assigned
56.0494	545	C3H6N+
58.0651	362	C3H8N+
72.0807	388	C4H10N+
74.06	757	C3H8NO+
84.0807	79	C5H10N+
98.0963	165	C6H12N+
100.1119	285	C6H14N+
103.0544	19	C8H7+
115.0541	181	C9H7+
116.1069	332	C6H14NO+
117.0696	73	C9H9+
128.0619	97	C10H8+
129.0697	677	C10H9+
141.0698	127	C11H9+
143.049	46	C10H7O+
145.0646	242	C10H9O+
153.0697	331	C12H9+
154.0776	103	C12H10+
155.0602	296	C10H7N2+
155.0854	999	C12H11+
157.0647	505	C11H9O+
165.0697	361	C13H9+
168.0568	84	C12H8O+
182.0719	35	C13H10O+
183.0803	164	C13H11O+
