Mass spectrum: Simeton; LC-ESI-ITFT; MS2; CE: 35%; R=30000; [M+H]+
Name: Simeton
Name: 2-N,4-N-diethyl-6-methoxy-1,3,5-triazine-2,4-diamine
Formula: C8H15N5O
Exact mass: 197.1271
SMILES: c1(nc(nc(n1)OC)NCC)NCC
InChI: InChI=1S/C8H15N5O/c1-4-9-6-11-7(10-5-2)13-8(12-6)14-3/h4-5H2,1-3H3,(H2,9,10,11,12,13)
Instrument: LTQ Orbitrap XL Thermo Scientific
Instrument type: LC-ESI-ITFT
Ms type: MS2
Ion mode: POSITIVE
Ionization: ESI
Fragmentation mode: CID
Collision energy: 35 % (nominal)
Resolution: 30000
Column name: XBridge C18 3.5um, 2.1x50mm, Waters
Retention time: 4.9 min
Base peak: 198.1352
Precursor m/z: 198.1349
Precursor type: [M+H]+
m/z	relative intensity	assigned
57.0447	2	C2H5N2+
68.0243	3	C2H2N3+
69.0083	12	C2HN2O+
71.0604	12	C3H7N2+
82.04	6	C3H4N3+
83.024	6	C3H3N2O+
85.076	34	C4H9N2+
96.0556	12	C4H6N3+
97.0396	31	C4H5N2O+
99.0915	1	C5H11N2+
100.0505	12	C3H6N3O+
110.0713	35	C5H8N3+
114.0662	467	C4H8N3O+
124.087	219	C6H10N3+
127.098	1	C5H11N4+
128.0819	238	C5H10N3O+
141.1134	5	C6H13N4+
142.0724	6	C4H8N5O+
142.0975	41	C6H12N3O+
166.1087	13	C7H12N5+
170.1037	312	C6H12N5O+
198.135	999	C8H16N5O+
