Mass spectrum: Doxycycline; LC-ESI-QFT; MS2; CE: 15; R=35000; [M-H]-
Name: Doxycycline
Name: 8-carbamoyl-10-(dimethylazaniumyl)-4,6a,7,11-tetrahydroxy-12-methyl-6,9-dioxo-10a,11,11a,12-tetrahydro-10H-tetracen-5-olate
Formula: C22H24N2O8
Exact mass: 444.15327
SMILES: CC1C2C(C3C(C(=O)C(=C(C3(C(=O)C2=C(C4=C1C=CC=C4O)O)O)O)C(=O)N)N(C)C)O
InChI: InChI=1S/C22H24N2O8/c1-7-8-5-4-6-9(25)11(8)16(26)12-10(7)17(27)14-15(24(2)3)18(28)13(21(23)31)20(30)22(14,32)19(12)29/h4-7,10,14-15,17,25-27,30,32H,1-3H3,(H2,23,31)
Instrument: Q Exactive Plus Orbitrap Thermo Scientific
Instrument type: LC-ESI-QFT
Ms type: MS2
Ion mode: NEGATIVE
Ionization: ESI
Fragmentation mode: HCD
Collision energy: 15 (nominal)
Resolution: 35000
Column name: XBridge C18 3.5um, 2.1x50mm, Waters
Retention time: 6.3 min
Base peak: 443.1457
Precursor m/z: 443.146
Precursor type: [M-H]-
m/z	relative intensity	assigned
142.0145	12	C5H4NO4-
152.0354	1	C7H6NO3-
163.0038	1	C8H3O4-
168.0302	8	C7H6NO4-
169.0616	2	C7H9N2O3-
173.0607	14	C11H9O2-
180.03	2	C8H6NO4-
187.0763	5	C12H11O2-
196.0251	2	C8H6NO5-
197.093	2	C9H13N2O3-
207.0774	5	C10H11N2O3-
208.0613	1	C10H10NO4-
217.0506	22	C12H9O4-
225.0881	47	C10H13N2O4-
229.0502	1	C13H9O4-
255.0661	6	C15H11O4-
269.0817	1	C16H13O4-
273.0768	45	C15H13O5-
293.0819	3	C18H13O4-
297.0769	1	C17H13O5-
311.0925	1	C18H15O5-
323.1399	2	C19H19N2O3-
326.1039	1	C18H16NO5-
336.0883	1	C19H14NO5-
337.072	5	C19H13O6-
338.1401	11	C20H20NO4-
354.1339	4	C20H20NO5-
356.1511	4	C20H22NO5-
358.1296	103	C19H20NO6-
363.1353	2	C21H19N2O4-
364.1191	19	C21H18NO5-
371.1612	32	C20H23N2O5-
380.0772	1	C20H14NO7-
381.0612	1	C20H13O8-
381.1455	23	C21H21N2O5-
382.1295	14	C21H20NO6-
399.1562	327	C21H23N2O6-
400.14	139	C21H22NO7-
408.1081	1	C22H18NO7-
425.1354	13	C22H21N2O7-
426.1195	273	C22H20NO8-
443.1461	999	C22H23N2O8-
444.1298	38	C22H22NO9-
