Mass spectrum: Fenarimol; LC-ESI-QFT; MS2; CE: 45%; R=17500; [M+H]+
Name: Fenarimol
Name: (2-chlorophenyl)-(4-chlorophenyl)-pyrimidin-5-ylmethanol
Formula: C17H12Cl2N2O
Exact mass: 330.0327
SMILES: C1=CC=C(C(=C1)C(C2=CC=C(C=C2)Cl)(C3=CN=CN=C3)O)Cl
InChI: InChI=1S/C17H12Cl2N2O/c18-14-7-5-12(6-8-14)17(22,13-9-20-11-21-10-13)15-3-1-2-4-16(15)19/h1-11,22H
Instrument: Exploris 240 Orbitrap Thermo Scientific
Instrument type: LC-ESI-QFT
Ms type: MS2
Ion mode: POSITIVE
Ionization: ESI
Fragmentation mode: HCD
Collision energy: 45 % (nominal)
Resolution: 17500
Column name: XBridge C18 3.5um, 2.1x50mm, Waters
Retention time: 9.833 min
Base peak: 328.0614
Precursor m/z: 331.0399
Precursor type: [M+H]+
m/z	relative intensity	assigned
54.0338	33	C3H4N+
81.0447	694	C4H5N2+
138.9945	184	C7H4ClO+
156.0686	19	C10H8N2+
183.0551	19	C11H7N2O+
189.0699	16	C15H9+
191.0369	21	C10H8ClN2+
219.0324	22	C11H8ClN2O+
223.0312	14	C15H8Cl+
235.0074	39	C13H9Cl2+
238.0418	20	C15H9ClN+
240.057	22	C15H11ClN+
250.0422	21	C16H9ClN+
251.0022	125	C13H9Cl2O+
251.0499	53	C16H10ClN+
252.0337	165	C16H9ClO+
259.0078	393	C15H9Cl2+
268.0524	999	C16H11ClNO+
276.0334	33	C15H12Cl2N+
278.0607	58	C17H11ClN2+
287.0034	22	C16H9Cl2O+
295.0631	26	C17H12ClN2O+
304.0289	114	C16H12Cl2NO+
313.0292	20	C17H11Cl2N2+
331.0398	363	C17H13Cl2N2O+
