Mass spectrum: Mecoprop; LC-ESI-ITFT; MS2; CE: 35%; R=7500; [M-H]-
Name: Mecoprop
Name: 2-(4-chloro-2-methyl-phenoxy)propionic acid
Formula: C10H11ClO3
Exact mass: 214.0397
SMILES: CC1=C(C=CC(=C1)Cl)OC(C)C(=O)O
InChI: InChI=1S/C10H11ClO3/c1-6-5-8(11)3-4-9(6)14-7(2)10(12)13/h3-5,7H,1-2H3,(H,12,13)
Instrument: LTQ Orbitrap XL Thermo Scientific
Instrument type: LC-ESI-ITFT
Ms type: MS2
Ion mode: NEGATIVE
Ionization: ESI
Fragmentation mode: CID
Collision energy: 35 % (nominal)
Resolution: 7500
Column name: XBridge C18 3.5um, 2.1x50mm, Waters
Retention time: 10.8 min
Base peak: 213.0326
Precursor m/z: 213.0324
Precursor type: [M-H]-
m/z	relative intensity	assigned
71.0139	42	C3H3O2-
141.0115	999	C7H6ClO-
169.0429	28	C9H10ClO-
213.0315	1	C10H10ClO3-
