Mass spectrum: Flurtamone; LC-ESI-QFT; MS2; CE: 90; R=35000; [M+H]+
Name: Flurtamone
Name: 5-(methylamino)-2-phenyl-4-[3-(trifluoromethyl)phenyl]furan-3-one
Formula: C18H14F3NO2
Exact mass: 333.09766
SMILES: CNC1=C(C(=O)C(O1)C2=CC=CC=C2)C3=CC(=CC=C3)C(F)(F)F
InChI: InChI=1S/C18H14F3NO2/c1-22-17-14(12-8-5-9-13(10-12)18(19,20)21)15(23)16(24-17)11-6-3-2-4-7-11/h2-10,16,22H,1H3
Instrument: Q Exactive Plus Orbitrap Thermo Scientific
Instrument type: LC-ESI-QFT
Ms type: MS2
Ion mode: POSITIVE
Ionization: ESI
Fragmentation mode: HCD
Collision energy: 90 (nominal)
Resolution: 35000
Column name: XBridge C18 3.5um, 2.1x50mm, Waters
Retention time: 10.1 min
Base peak: 334.1042
Precursor m/z: 334.1049
Precursor type: [M+H]+
m/z	relative intensity	assigned
50.0151	4	C4H2+
51.0229	5	C4H3+
53.0386	30	C4H5+
55.0179	1	C3H3O+
58.0288	73	C2H4NO+
77.0385	57	C6H5+
79.0542	2	C6H7+
81.0335	4	C5H5O+
89.0386	1	C7H5+
90.0464	3	C7H6+
91.0543	13	C7H7+
94.0413	1	C6H6O+
95.0492	103	C6H7O+
102.0464	4	C8H6+
103.0543	29	C8H7+
104.0495	1	C7H6N+
105.0336	153	C7H5O+
105.0448	61	C6H5N2+
109.0449	4	C7H6F+
115.0543	2	C9H7+
118.0413	1	C8H6O+
118.0652	5	C8H8N+
120.0808	35	C8H10N+
126.0462	1	C10H6+
127.0354	2	C7H5F2+
130.065	2	C9H8N+
131.0492	1	C9H7O+
131.0731	2	C9H9N+
133.045	2	C9H6F+
139.0354	1	C8H5F2+
145.026	7	C7H4F3+
147.0352	2	C8H4FN2+
151.0355	25	C9H5F2+
151.0541	1	C12H7+
152.0621	47	C12H8+
159.0418	5	C8H6F3+
165.07	14	C13H9+
167.0303	2	C9H5F2O+
169.0261	34	C9H4F3+
169.0649	2	C12H9O+
171.0416	6	C9H6F3+
173.0321	1	C7H4F3N2+
176.0622	23	C14H8+
177.07	53	C14H9+
178.0778	999	C14H10+
179.0856	4	C14H11+
180.0619	1	C10H8F2N+
183.0416	1	C10H6F3+
183.0606	6	C13H8F+
185.0448	2	C9H6F3N+
186.0524	1	C9H7F3N+
187.0546	2	C15H7+
189.07	12	C15H9+
190.0778	1	C15H10+
196.0684	31	C14H9F+
197.0211	10	C10H4F3O+
197.0319	1	C9H4F3N2+
201.0511	28	C13H7F2+
204.081	2	C15H10N+
205.0653	4	C15H9O+
206.0527	2	C15H7F+
207.0607	253	C15H8F+
208.0684	4	C15H9F+
209.0762	9	C15H10F+
210.0524	1	C11H7F3N+
214.059	11	C14H8F2+
217.0888	1	C16H11N+
218.0965	1	C16H12N+
225.0511	20	C15H7F2+
226.059	10	C15H8F2+
227.0668	373	C15H9F2+
233.0574	2	C14H8F3+
238.0587	1	C16H8F2+
245.0574	7	C15H8F3+
246.0652	59	C15H9F3+
247.073	14	C15H10F3+
259.0731	1	C16H10F3+
275.0679	6	C16H10F3O+
