Mass spectrum: Irgarol; LC-ESI-ITFT; MS2; CE: 60%; R=15000; [M+H]+
Name: Irgarol
Name: 2-N-tert-butyl-4-N-cyclopropyl-6-methylsulfanyl-1,3,5-triazine-2,4-diamine
Formula: C11H19N5S
Exact mass: 253.1356
SMILES: c1(nc(NC(C)(C)C)nc(n1)SC)NC1CC1
InChI: InChI=1S/C11H19N5S/c1-11(2,3)16-9-13-8(12-7-5-6-7)14-10(15-9)17-4/h7H,5-6H2,1-4H3,(H2,12,13,14,15,16)
Instrument: LTQ Orbitrap XL Thermo Scientific
Instrument type: LC-ESI-ITFT
Ms type: MS2
Ion mode: POSITIVE
Ionization: ESI
Fragmentation mode: HCD
Collision energy: 60 % (nominal)
Resolution: 15000
Column name: XBridge C18 3.5um, 2.1x50mm, Waters
Retention time: 9.2 min
Base peak: 254.1437
Precursor m/z: 254.1434
Precursor type: [M+H]+
m/z	relative intensity	assigned
55.029	2	C2H3N2+
56.0494	43	C3H6N+
57.0697	1	C4H9+
58.065	8	C3H8N+
68.0242	20	C2H2N3+
70.0401	1	C2H4N3+
74.0058	24	C2H4NS+
81.0447	16	C4H5N2+
83.0603	98	C4H7N2+
85.0103	1	C4H5S+
87.0262	11	C4H7S+
89.0418	2	C4H9S+
91.0324	169	C2H7N2S+
108.0556	92	C5H6N3+
114.0121	4	C3H4N3S+
114.0371	16	C5H8NS+
116.0276	45	C3H6N3S+
123.0666	2	C5H7N4+
125.0821	81	C5H9N4+
127.0067	1	C3H3N4S+
143.0385	3	C4H7N4S+
150.0773	46	C6H8N5+
152.0932	3	C6H10N5+
156.0337	18	C4H6N5S+
156.0589	91	C6H10N3S+
158.0495	5	C4H8N5S+
168.0336	3	C5H6N5S+
170.0494	24	C5H8N5S+
171.0698	13	C6H11N4S+
198.0807	999	C7H12N5S+
