Mass spectrum: Tepraloxydim; LC-ESI-QFT; MS2; CE: 45; R=35000; [M+H]+
Name: Tepraloxydim
Name: E-Tepraloxydim
Formula: C17H24ClNO4
Exact mass: 341.13939
SMILES: CC/C(=N\OC\C=C\Cl)/C=1C(=O)CC(CC=1O)C2CCOCC2
InChI: InChI=1S/C17H24ClNO4/c1-2-14(19-23-7-3-6-18)17-15(20)10-13(11-16(17)21)12-4-8-22-9-5-12/h3,6,12-13,20H,2,4-5,7-11H2,1H3/b6-3+,19-14+
Instrument: Q Exactive Orbitrap Thermo Scientific
Instrument type: LC-ESI-QFT
Ms type: MS2
Ion mode: POSITIVE
Ionization: ESI
Fragmentation mode: HCD
Collision energy: 45 (nominal)
Resolution: 35000
Column name: XBridge C18 3.5um, 2.1x50mm, Waters
Retention time: 11.5 min
Base peak: 342.1471
Precursor m/z: 342.1467
Precursor type: [M+H]+
m/z	relative intensity	assigned
55.0544	1	C4H7+
56.0497	2	C3H6N+
57.0337	2	C3H5O+
57.07	2	C4H9+
58.0654	8	C3H8N+
65.0387	7	C5H5+
67.0543	68	C5H7+
68.0495	11	C4H6N+
69.0335	15	C4H5O+
69.0699	21	C5H9+
70.0652	25	C4H8N+
71.0491	5	C4H7O+
71.073	8	C4H9N+
72.0444	21	C3H6NO+
72.0808	11	C4H10N+
74.9996	89	C3H4Cl+
77.0384	10	C6H5+
79.0542	79	C6H7+
80.0495	2	C5H6N+
81.0335	11	C5H5O+
81.0699	76	C6H9+
82.0651	28	C5H8N+
83.0492	199	C5H7O+
84.0443	14	C4H6NO+
84.0808	10	C5H10N+
85.0647	13	C5H9O+
86.0601	1	C4H8NO+
91.0542	103	C7H7+
93.0699	182	C7H9+
94.0652	60	C6H8N+
95.0492	63	C6H7O+
95.0856	28	C7H11+
96.0444	241	C5H6NO+
96.0808	15	C6H10N+
97.0522	7	C5H7NO+
97.0648	22	C6H9O+
97.0886	1	C6H11N+
98.0601	335	C5H8NO+
99.0441	5	C5H7O2+
100.0757	2	C5H10NO+
103.0543	18	C8H7+
105.0449	6	C6H5N2+
105.07	100	C8H9+
106.0652	7	C7H8N+
107.0492	27	C7H7O+
107.0856	71	C8H11+
108.0445	12	C6H6NO+
108.0808	73	C7H10N+
109.0284	5	C6H5O2+
109.0649	63	C7H9O+
109.1012	10	C8H13+
110.0601	172	C6H8NO+
111.0441	41	C6H7O2+
111.0679	37	C6H9NO+
111.0804	15	C7H11O+
112.0758	17	C6H10NO+
113.0836	33	C6H11NO+
114.0915	14	C6H12NO+
115.0543	6	C9H7+
116.0618	1	C9H8+
117.0699	58	C9H9+
118.0652	3	C8H8N+
119.0492	12	C8H7O+
119.073	5	C8H9N+
119.0856	63	C9H11+
120.0808	21	C8H10N+
121.0649	114	C8H9O+
121.1011	15	C9H13+
122.06	68	C7H8NO+
122.0964	11	C8H12N+
123.044	10	C7H7O2+
123.0677	2	C7H9NO+
123.0806	20	C8H11O+
124.0394	34	C6H6NO2+
124.0758	31	C7H10NO+
126.055	22	C6H8NO2+
128.0621	10	C10H8+
129.0699	19	C10H9+
130.0652	3	C9H8N+
130.0777	2	C10H10+
131.049	5	C9H7O+
131.0733	3	C9H9N+
131.0857	53	C10H11+
132.0808	21	C9H10N+
133.0648	34	C9H9O+
133.1012	32	C10H13+
134.0599	10	C8H8NO+
134.0965	19	C9H12N+
135.0805	41	C9H11O+
135.1168	9	C10H15+
136.0757	203	C8H10NO+
137.0598	35	C8H9O2+
137.0836	21	C8H11NO+
137.0962	3	C9H13O+
138.055	39	C7H8NO2+
138.0674	15	C8H10O2+
138.0914	195	C8H12NO+
139.0628	40	C7H9NO2+
139.0754	23	C8H11O2+
140.0706	28	C7H10NO2+
141.0698	7	C11H9+
142.0499	17	C6H8NO3+
142.0779	5	C11H10+
143.0731	1	C10H9N+
143.0856	34	C11H11+
144.081	10	C10H10N+
144.0934	8	C11H12+
145.0649	16	C10H9O+
145.0891	3	C10H11N+
145.1013	44	C11H13+
146.0602	15	C9H8NO+
146.0966	20	C10H12N+
147.0441	26	C9H7O2+
147.0681	11	C9H9NO+
147.0804	36	C10H11O+
147.1043	2	C10H13N+
147.1168	6	C11H15+
148.0758	64	C9H10NO+
148.1122	16	C10H14N+
149.0598	91	C9H9O2+
149.0835	5	C9H11NO+
149.0963	11	C10H13O+
150.0549	3	C8H8NO2+
150.0914	27	C9H12NO+
150.1277	3	C10H16N+
151.0754	5	C9H11O2+
152.0706	27	C8H10NO2+
153.0786	3	C8H11NO2+
154.0775	10	C12H10+
155.0858	5	C12H11+
156.0654	7	C7H10NO3+
157.0645	2	C11H9O+
157.089	1	C11H11N+
157.1015	10	C12H13+
158.0721	3	C11H10O+
158.0966	16	C11H12N+
159.0804	18	C11H11O+
159.1043	1	C11H13N+
159.1168	24	C12H15+
160.0758	22	C10H10NO+
160.1121	33	C11H14N+
161.0597	19	C10H9O2+
161.0836	8	C10H11NO+
161.0962	34	C11H13O+
162.0548	5	C9H8NO2+
162.0914	24	C10H12NO+
162.1275	10	C11H16N+
163.0628	7	C9H9NO2+
163.0755	8	C10H11O2+
163.0991	2	C10H13NO+
163.1118	13	C11H15O+
164.0706	227	C9H10NO2+
164.1071	11	C10H14NO+
165.0789	10	C9H11NO2+
165.0912	21	C10H13O2+
166.0863	999	C9H12NO2+
167.0942	16	C9H13NO2+
169.1013	13	C13H13+
170.0965	7	C12H12N+
171.0806	6	C12H11O+
171.1042	8	C12H13N+
171.1168	3	C13H15+
172.0757	2	C11H10NO+
172.1119	9	C12H14N+
173.084	2	C11H11NO+
173.0962	18	C12H13O+
174.0914	11	C11H12NO+
174.1278	7	C12H16N+
175.0756	5	C11H11O2+
175.0995	6	C11H13NO+
175.1119	7	C12H15O+
176.0709	16	C10H10NO2+
176.107	32	C11H14NO+
176.1433	7	C12H18N+
177.091	10	C11H13O2+
177.1274	7	C12H17O+
178.0862	2	C10H12NO2+
178.1226	14	C11H16NO+
180.1383	15	C11H18NO+
181.0867	1	C10H13O3+
186.0916	7	C12H12NO+
186.1278	11	C13H16N+
187.1117	22	C13H15O+
188.107	30	C12H14NO+
189.091	5	C12H13O2+
189.1147	3	C12H15NO+
190.086	9	C11H12NO2+
190.1229	16	C12H16NO+
191.1066	9	C12H15O2+
192.1018	10	C11H14NO2+
192.1383	8	C12H18NO+
194.1177	13	C11H16NO2+
194.1539	6	C12H20NO+
198.091	1	C13H12NO+
202.1228	5	C13H16NO+
204.1022	16	C12H14NO2+
204.1385	41	C13H18NO+
205.1225	26	C13H17O2+
206.1178	6	C12H16NO2+
206.1542	2	C13H20NO+
208.1333	30	C12H18NO2+
210.1487	6	C12H20NO2+
214.1227	3	C14H16NO+
220.1336	1	C13H18NO2+
222.149	104	C13H20NO2+
223.1566	2	C13H21NO2+
224.1282	6	C12H18NO3+
224.1647	7	C13H22NO2+
232.1333	7	C14H18NO2+
233.1173	1	C14H17O3+
234.1489	50	C14H20NO2+
250.1439	95	C14H20NO3+
252.1604	10	C14H22NO3+
