Mass spectrum: Ketoprofen; LC-ESI-ITFT; MS2; CE: 90%; R=7500; [M+H]+
Name: Ketoprofen
Name: 2-(3-benzoylphenyl)propanoic acid
Formula: C16H14O3
Exact mass: 254.0943
SMILES: CC(C1=CC=CC(=C1)C(=O)C2=CC=CC=C2)C(=O)O
InChI: InChI=1S/C16H14O3/c1-11(16(18)19)13-8-5-9-14(10-13)15(17)12-6-3-2-4-7-12/h2-11H,1H3,(H,18,19)
Instrument: LTQ Orbitrap XL Thermo Scientific
Instrument type: LC-ESI-ITFT
Ms type: MS2
Ion mode: POSITIVE
Ionization: ESI
Fragmentation mode: HCD
Collision energy: 90 % (nominal)
Resolution: 7500
Column name: XBridge C18 3.5um, 2.1x50mm, Waters
Retention time: 9.6 min
Base peak: 277.0843
Precursor m/z: 255.1016
Precursor type: [M+H]+
m/z	relative intensity	assigned
53.0385	80	C4H5+
77.0386	824	C6H5+
79.0545	18	C6H7+
81.0333	14	C5H5O+
91.0542	60	C7H7+
93.0698	45	C7H9+
95.0491	111	C6H7O+
103.0542	312	C8H7+
105.0334	999	C7H5O+
105.0447	278	C6H5N2+
121.0646	24	C8H9O+
131.0493	40	C9H7O+
131.0609	22	C8H7N2+
165.0698	85	C13H9+
166.0779	26	C13H10+
177.055	24	C10H9O3+
191.0864	11	C15H11+
194.073	68	C14H10O+
