Mass spectrum: Cetirizine N-Oxide; LC-ESI-QFT; MS2; CE: 15; R=35000; [M+H]+
Name: Cetirizine N-Oxide
Name: (R)-Cetirizine N-Oxide
Name: 2-[2-[4-[(4-chlorophenyl)-phenylmethyl]-1-oxidopiperazin-1-ium-1-yl]ethoxy]acetic acid
Formula: C21H25ClN2O4
Exact mass: 404.15028
SMILES: C1C[N+](CCN1C(C2=CC=CC=C2)C3=CC=C(C=C3)Cl)(CCOCC(=O)O)[O-]
InChI: InChI=1S/C21H25ClN2O4/c22-19-8-6-18(7-9-19)21(17-4-2-1-3-5-17)23-10-12-24(27,13-11-23)14-15-28-16-20(25)26/h1-9,21H,10-16H2,(H,25,26)
Instrument: Q Exactive Plus Orbitrap Thermo Scientific
Instrument type: LC-ESI-QFT
Ms type: MS2
Ion mode: POSITIVE
Ionization: ESI
Fragmentation mode: HCD
Collision energy: 15 (nominal)
Resolution: 35000
Column name: XBridge C18 3.5um, 2.1x50mm, Waters
Retention time: 9.4 min
Base peak: 405.1573
Precursor m/z: 405.1576
Precursor type: [M+H]+
m/z	relative intensity	assigned
99.0916	1	C5H11N2+
112.0994	12	C6H12N2+
146.0811	8	C6H12NO3+
187.1077	11	C8H15N2O3+
188.1154	1	C8H16N2O3+
201.046	22	C13H10Cl+
229.0655	1	C14H12ClN+
241.0654	2	C15H12ClN+
312.139	2	C19H21ClN2+
387.1473	3	C21H24ClN2O3+
388.1549	10	C21H25ClN2O3+
405.1575	999	C21H26ClN2O4+
