Mass spectrum: Lansoprazole; LC-ESI-QFT; MS2; CE: 90; R=35000; [M+H]+
Name: Lansoprazole
Name: 2-[[3-methyl-4-(2,2,2-trifluoroethoxy)pyridin-2-yl]methylsulfinyl]-1H-benzimidazole
Formula: C16H14F3N3O2S
Exact mass: 369.07588
SMILES: Cc1c(ccnc1CS(=O)c2[nH]c3ccccc3n2)OCC(F)(F)F
InChI: InChI=1S/C16H14F3N3O2S/c1-10-13(20-7-6-14(10)24-9-16(17,18)19)8-25(23)15-21-11-4-2-3-5-12(11)22-15/h2-7H,8-9H2,1H3,(H,21,22)
Instrument: Q Exactive Plus Orbitrap Thermo Scientific
Instrument type: LC-ESI-QFT
Ms type: MS2
Ion mode: POSITIVE
Ionization: ESI
Fragmentation mode: HCD
Collision energy: 90 (nominal)
Resolution: 35000
Column name: XBridge C18 3.5um, 2.1x50mm, Waters
Retention time: 7.4 min
Base peak: 370.0829
Precursor m/z: 370.0832
Precursor type: [M+H]+
m/z	relative intensity	assigned
51.0227	2	C4H3+
52.0308	1	C4H4+
53.0022	1	C3HO+
53.0385	12	C4H5+
54.0338	1	C3H4N+
55.0178	1	C3H3O+
55.0416	1	C3H5N+
57.9872	1	C2H2S+
63.0228	5	C5H3+
65.0385	122	C5H5+
66.0464	71	C5H6+
67.0416	11	C4H5N+
67.0542	31	C5H7+
68.0494	1	C4H6N+
68.9792	1	C3HS+
69.9871	5	C3H2S+
72.0027	1	C3H4S+
77.0384	10	CH4FN3+
78.0338	4	C5H4N+
78.0464	1	C6H6+
79.0416	49	C5H5N+
79.0542	125	C6H7+
80.0494	91	C5H6N+
80.062	5	C6H8+
81.0573	24	C5H7N+
81.0698	1	C6H9+
83.0291	1	C5H4F+
90.0339	9	C6H4N+
91.0417	5	C6H5N+
92.0494	249	C6H6N+
93.0573	73	C6H7N+
94.0651	94	C6H8N+
94.995	4	C5H3S+
95.0365	9	C5H5NO+
95.0491	23	C6H7O+
96.0028	49	C5H4S+
96.0443	16	C5H6NO+
97.0107	13	C5H5S+
99.0137	4	C4H5NS+
104.0493	5	C7H6N+
105.0447	19	C6H5N2+
106.0651	689	C7H8N+
107.0729	999	C7H9N+
108.0807	669	C7H10N+
109.0523	23	C6H7NO+
110.0058	13	C5H4NS+
110.0401	6	C6H5FN+
110.06	37	C6H8NO+
111.0314	4	C5H5NO2+
117.0573	3	C8H7N+
118.0522	7	C7H6N2+
118.0651	16	C8H8N+
119.0604	850	C7H7N2+
120.0444	39	C7H6NO+
121.0521	60	C7H7NO+
122.0058	107	C6H4NS+
122.06	302	C7H8NO+
123.0136	165	C6H5NS+
124.0215	24	C6H6NS+
124.0394	7	C6H6NO2+
124.0758	1	C7H10NO+
125.0471	9	C6H7NO2+
126.0713	1	C7H9FN+
127.0259	1	C3H7F2NS+
127.9926	1	C5H4O2S+
134.0059	16	C7H4NS+
134.0474	5	C7H6N2O+
134.0598	1	C8H8NO+
135.068	1	C8H9NO+
136.0757	761	C8H10NO+
137.0635	4	C8H8FN+
140.0505	1	C7H7FNO+
142.0465	4	C7H6F2N+
149.0169	23	C7H5N2S+
150.0008	5	C7H4NOS+
151.0086	698	C7H5NOS+
152.0164	337	C7H6NOS+
162.0526	5	C7H7F3N+
165.0246	1	C8H7NOS+
168.0686	1	C11H8N2+
170.0411	29	C8H6F2NO+
183.0916	4	C12H11N2+
184.0568	5	C9H8F2NO+
190.0474	22	C8H7F3NO+
192.0631	3	C8H9F3NO+
194.0421	2	C7H7F3NO2+
204.0631	93	C9H9F3NO+
207.0791	3	C13H9N3+
208.0579	14	C8H9F3NO2+
214.0134	1	C9H6F2NOS+
220.0581	11	C9H9F3NO2+
234.0195	281	C9H7F3NOS+
235.0273	20	C9H8F3NOS+
236.0817	3	C14H10N3O+
268.0533	1	C14H11F3S+
