Mass spectrum: Fenofibric acid; LC-ESI-ITFT; MS2; CE: 75%; R=7500; [M+H]+
Name: Fenofibric acid
Name: 2-[4-(4-chlorobenzoyl)phenoxy]-2-methyl-propionic acid
Formula: C17H15ClO4
Exact mass: 318.0659
SMILES: c1cc(C(=O)c2ccc(cc2)OC(C(=O)O)(C)C)ccc1Cl
InChI: InChI=1S/C17H15ClO4/c1-17(2,16(20)21)22-14-9-5-12(6-10-14)15(19)11-3-7-13(18)8-4-11/h3-10H,1-2H3,(H,20,21)
Instrument: LTQ Orbitrap XL Thermo Scientific
Instrument type: LC-ESI-ITFT
Ms type: MS2
Ion mode: POSITIVE
Ionization: ESI
Fragmentation mode: HCD
Collision energy: 75 % (nominal)
Resolution: 7500
Column name: XBridge C18 3.5um, 2.1x50mm, Waters
Retention time: 12.6 min
Base peak: 319.074
Precursor m/z: 319.0732
Precursor type: [M+H]+
m/z	relative intensity	assigned
50.0153	4	C4H2+
65.0385	15	C5H5+
75.0229	4	C6H3+
86.9995	14	C4H4Cl+
93.0334	12	C6H5O+
110.9996	19	C6H4Cl+
121.0284	500	C7H5O2+
121.0396	67	C6H5N2O+
138.9946	999	C7H4ClO+
139.006	228	C6H4ClN2+
233.0367	14	C13H10ClO2+
