Mass spectrum: Methadone; LC-ESI-ITFT; MS2; CE: 45%; R=15000; [M+H]+
Name: Methadone
Name: 6-(dimethylamino)-4,4-diphenyl-3-heptanone
Formula: C21H27NO
Exact mass: 309.2093
SMILES: CCC(=O)C(CC(C)N(C)C)(c1ccccc1)c2ccccc2
InChI: InChI=1S/C21H27NO/c1-5-20(23)21(16-17(2)22(3)4,18-12-8-6-9-13-18)19-14-10-7-11-15-19/h6-15,17H,5,16H2,1-4H3
Instrument: LTQ Orbitrap XL Thermo Scientific
Instrument type: LC-ESI-ITFT
Ms type: MS2
Ion mode: POSITIVE
Ionization: ESI
Fragmentation mode: HCD
Collision energy: 45 % (nominal)
Resolution: 15000
Column name: XBridge C18 3.5um, 2.1x50mm, Waters
Retention time: 8.4 min
Base peak: 310.2177
Precursor m/z: 310.2165
Precursor type: [M+H]+
m/z	relative intensity	assigned
57.0335	28	C3H5O+
77.0386	32	C6H5+
91.0542	146	C7H7+
105.0335	999	C7H5O+
105.0699	140	C8H9+
115.0546	5	C9H7+
117.0699	89	C9H9+
129.0699	41	C10H9+
131.0854	17	C10H11+
135.0803	17	C9H11O+
143.0855	22	C11H11+
145.0649	16	C10H9O+
145.1012	12	C11H13+
147.0806	16	C10H11O+
159.0801	19	C11H11O+
159.1168	136	C12H15+
161.0964	5	C11H13O+
167.0856	18	C13H11+
169.1014	14	C13H13+
178.0775	5	C14H10+
179.0859	8	C14H11+
187.1118	65	C13H15O+
191.0852	12	C15H11+
195.0809	10	C14H11O+
195.1168	197	C15H15+
204.093	8	C16H12+
205.1011	44	C16H13+
207.1169	32	C16H15+
218.1091	46	C17H14+
219.1169	300	C17H15+
223.1117	446	C16H15O+
224.1197	10	C16H16O+
232.1247	16	C18H16+
236.1196	23	C17H16O+
247.148	140	C19H19+
265.1589	691	C19H21O+
