Mass spectrum: Metalaxyl-M-TP CGA108906; LC-ESI-QFT; MS2; CE: 150%; R=17500; [M+H]+
Name: Metalaxyl-M-TP CGA108906
Name: 2-[1-carboxyethyl-(2-methoxyacetyl)amino]-3-methylbenzoic acid
Formula: C14H17NO6
Exact mass: 295.1056
SMILES: COCC(=O)N(C(C)C(O)=O)C1=C(C=CC=C1C)C(O)=O
InChI: InChI=1S/C14H17NO6/c1-8-5-4-6-10(14(19)20)12(8)15(9(2)13(17)18)11(16)7-21-3/h4-6,9H,7H2,1-3H3,(H,17,18)(H,19,20)
Instrument: Q Exactive Plus Orbitrap Thermo Scientific
Instrument type: LC-ESI-QFT
Ms type: MS2
Ion mode: POSITIVE
Ionization: ESI
Fragmentation mode: HCD
Collision energy: 150 % (nominal)
Resolution: 17500
Column name: XBridge C18 3.5um, 2.1x50mm, Waters
Retention time: 5.723 min
Base peak: 296.1129
Precursor m/z: 296.1129
Precursor type: [M+H]+
m/z	relative intensity	assigned
50.0151	8	C4H2+
51.023	38	C4H3+
53.0022	20	C3HO+
53.0386	17	C4H5+
63.0229	72	C5H3+
64.0308	8	C5H4+
65.0386	999	C5H5+
66.0463	12	C5H6+
77.0385	17	C6H5+
78.0464	5	C6H6+
79.0542	18	C6H7+
89.0386	191	C7H5+
90.0464	98	C7H6+
91.0543	424	C7H7+
95.0492	42	C6H7O+
103.054	16	C8H7+
104.0493	14	C7H6N+
105.0447	22	
115.0542	41	C9H7+
116.0495	21	C8H6N+
117.0573	104	C8H7N+
130.0649	48	C9H8N+
