Mass spectrum: Thiopental; LC-ESI-ITFT; MS2; CE: 15%; R=15000; [M-H]-
Name: Thiopental
Formula: C11H18N2O2S
Exact mass: 242.1089
SMILES: C1([C@@](C(N=C(N1)S)=O)([C@@H](CCC)C)CC)=O
InChI: InChI=1S/C11H18N2O2S/c1-4-6-7(3)11(5-2)8(14)12-10(16)13-9(11)15/h7H,4-6H2,1-3H3,(H2,12,13,14,15,16)
Instrument: LTQ Orbitrap XL Thermo Scientific
Instrument type: LC-ESI-ITFT
Ms type: MS2
Ion mode: NEGATIVE
Ionization: ESI
Fragmentation mode: HCD
Collision energy: 15 % (nominal)
Resolution: 15000
Column name: XBridge C18 3.5um, 2.1x50mm, Waters
Retention time: 9.0 min
Base peak: 241.1013
Precursor m/z: 241.1016
Precursor type: [M-H]-
m/z	relative intensity	assigned
57.9757	24	CNS-
241.1017	999	C11H17N2O2S-
