Mass spectrum: 3,4-Methylenedioxyamphetamine (MDA); LC-ESI-QFT; MS2; CE: 90; R=35000; [M+H]+
Name: 3,4-Methylenedioxyamphetamine (MDA)
Name: 1-(3,4-Methylenedioxyphenyl)-2-aminopropane
Name: 1-(1,3-benzodioxol-5-yl)propan-2-amine
Formula: C10H13NO2
Exact mass: 179.09463
SMILES: CC(CC1=CC2=C(C=C1)OCO2)N
InChI: InChI=1S/C10H13NO2/c1-7(11)4-8-2-3-9-10(5-8)13-6-12-9/h2-3,5,7H,4,6,11H2,1H3
Instrument: Q Exactive Plus Orbitrap Thermo Scientific
Instrument type: LC-ESI-QFT
Ms type: MS2
Ion mode: POSITIVE
Ionization: ESI
Fragmentation mode: HCD
Collision energy: 90 (nominal)
Resolution: 35000
Column name: XBridge C18 3.5um, 2.1x50mm, Waters
Retention time: 3.6 min
Base peak: 180.1013
Precursor m/z: 180.1019
Precursor type: [M+H]+
m/z	relative intensity	assigned
50.015	7	C4H2+
51.0227	10	C4H3+
53.0385	54	C4H5+
55.0178	67	C3H3O+
65.0385	54	C5H5+
67.0541	2	C5H7+
77.0384	189	C6H5+
78.0462	1	C6H6+
79.0541	674	C6H7+
81.0333	7	C5H5O+
91.0541	18	C7H7+
93.0334	31	C6H5O+
94.0411	1	C6H6O+
95.049	176	C6H7O+
102.0462	1	C8H6+
103.0541	408	C8H7+
104.0618	4	C8H8+
105.0334	54	C7H5O+
105.0446	113	C6H5N2+
105.0697	999	C8H9+
107.0488	5	C7H7O+
111.0439	13	C6H7O2+
115.0541	21	C9H7+
121.0282	23	C7H5O2+
122.0361	23	C7H6O2+
131.049	3	C9H7O+
133.0646	141	C9H9O+
135.0438	532	C8H7O2+
147.0439	16	C9H7O2+
148.0516	16	C9H8O2+
163.0752	6	C10H11O2+
