Mass spectrum: Amisulpride; LC-ESI-ITFT; MS2; CE: 75%; R=15000; [M+H]+
Name: Amisulpride
Name: 4-amino-5-esyl-N-[(1-ethylpyrrolidin-2-yl)methyl]-2-methoxy-benzamide
Formula: C17H27N3O4S
Exact mass: 369.1722
SMILES: CCN1CCCC1CNC(=O)C2=CC(=C(C=C2OC)N)S(=O)(=O)CC
InChI: InChI=1S/C17H27N3O4S/c1-4-20-8-6-7-12(20)11-19-17(21)13-9-16(25(22,23)5-2)14(18)10-15(13)24-3/h9-10,12H,4-8,11,18H2,1-3H3,(H,19,21)
Instrument: LTQ Orbitrap XL Thermo Scientific
Instrument type: LC-ESI-ITFT
Ms type: MS2
Ion mode: POSITIVE
Ionization: ESI
Fragmentation mode: HCD
Collision energy: 75 % (nominal)
Resolution: 15000
Column name: XBridge C18 3.5um, 2.1x50mm, Waters
Retention time: 3.8 min
Base peak: 370.1806
Precursor m/z: 370.1795
Precursor type: [M+H]+
m/z	relative intensity	assigned
58.0651	8	C3H8N+
66.0464	15	C5H6+
69.0571	2	C4H7N+
78.0337	3	C5H4N+
84.0808	53	C5H10N+
85.0104	5	C4H5S+
92.0496	4	C6H6N+
93.0573	4	C6H7N+
95.0366	8	C5H5NO+
96.0444	14	C5H6NO+
97.0524	3	C5H7NO+
98.0965	18	C6H12N+
107.0367	3	C6H5NO+
107.9903	8	C5H2NS+
108.0444	15	C6H6NO+
110.0059	15	C5H4NS+
112.1121	213	C7H14N+
121.0521	11	C7H7NO+
122.0362	16	C7H6O2+
124.0394	14	C6H6NO2+
132.0079	10	C7H2NO2+
135.0315	4	C7H5NO2+
136.0394	6	C7H6NO2+
138.0013	5	C6H4NOS+
138.0186	25	C6H4NO3+
140.0165	25	C6H6NOS+
147.0315	59	C8H5NO2+
149.0471	180	H11N3O4S+
150.0005	3	C7H4NOS+
150.055	24	C8H8NO2+
152.0342	8	C7H6NO3+
158.0268	3	C6H8NO2S+
168.0114	148	C7H6NO2S+
177.9957	44	C8H4NO2S+
196.0064	999	C8H6NO3S+
197.014	3	C8H7NO3S+
199.0298	4	C8H9NO3S+
214.0167	116	C8H8NO4S+
242.048	363	C10H12NO4S+
