Mass spectrum: Benodanil; LC-ESI-QFT; MS2; CE: 45%; R=17500; [M+H]+
Name: Benodanil
Name: 2-iodo-N-phenylbenzamide
Formula: C13H10INO
Exact mass: 322.9807
SMILES: C1=CC=C(C=C1)NC(=O)C2=CC=CC=C2I
InChI: InChI=1S/C13H10INO/c14-12-9-5-4-8-11(12)13(16)15-10-6-2-1-3-7-10/h1-9H,(H,15,16)
Instrument: Exploris 240 Orbitrap Thermo Scientific
Instrument type: LC-ESI-QFT
Ms type: MS2
Ion mode: POSITIVE
Ionization: ESI
Fragmentation mode: HCD
Collision energy: 45 % (nominal)
Resolution: 17500
Column name: XBridge C18 3.5um, 2.1x50mm, Waters
Retention time: 6.793 min
Base peak: 216.1009
Precursor m/z: 323.988
Precursor type: [M+H]+
m/z	relative intensity	assigned
94.0413	17	C6H6O+
105.0334	80	C7H5O+
120.0443	25	C7H6NO+
197.0827	3	C13H11NO+
202.9352	31	C6H4I+
230.9301	999	C7H4IO+
323.988	67	C13H11INO+
