Mass spectrum: Spinetoram L; LC-ESI-QFT; MS2; CE: 45%; R=17500; [M+H]+
Name: Spinetoram L
Name: 3-Ethoxy-spinosyn L
Name: 15-[5-(dimethylamino)-6-methyloxan-2-yl]oxy-7-(4-ethoxy-3,5-dimethoxy-6-methyloxan-2-yl)oxy-19-ethyl-4,14-dimethyl-20-oxatetracyclo[10.10.0.02,10.05,9]docosa-3,11-diene-13,21-dione
Formula: C43H69NO10
Exact mass: 759.4921
SMILES: CCC1CCCC(C(C(=O)C2=CC3C4CC(CC4C(=CC3C2CC(=O)O1)C)OC5C(C(C(C(O5)C)OC)OCC)OC)C)OC6CCC(C(O6)C)N(C)C
InChI: InChI=1S/C43H69NO10/c1-11-27-14-13-15-36(54-38-17-16-35(44(7)8)25(5)50-38)24(4)39(46)34-21-32-30(33(34)22-37(45)52-27)18-23(3)29-19-28(20-31(29)32)53-43-42(48-10)41(49-12-2)40(47-9)26(6)51-43/h18,21,24-33,35-36,38,40-43H,11-17,19-20,22H2,1-10H3
Instrument: Exploris 240 Orbitrap Thermo Scientific
Instrument type: LC-ESI-QFT
Ms type: MS2
Ion mode: POSITIVE
Ionization: ESI
Fragmentation mode: HCD
Collision energy: 45 % (nominal)
Resolution: 17500
Column name: XBridge C18 3.5um, 2.1x50mm, Waters
Retention time: 12.856 min
Base peak: 760.5001
Precursor m/z: 760.4994
Precursor type: [M+H]+
m/z	relative intensity	assigned
81.0698	8	C6H9+
83.0493	12	C5H7O+
83.0855	12	C6H11+
84.081	2	C5H10N+
85.0648	17	C5H9O+
87.044	16	C4H7O2+
89.0598	5	C4H9O2+
95.0491	10	C6H7O+
95.0854	8	C7H11+
97.0648	135	C6H9O+
98.0965	350	C6H12N+
99.0442	40	C5H7O2+
99.0805	96	C6H11O+
101.0597	8	C5H9O2+
109.065	4	C7H9O+
111.0441	11	C6H7O2+
113.0602	5	C6H9O2+
115.0754	51	C6H11O2+
124.112	13	C8H14N+
125.0598	36	C7H9O2+
127.0754	26	C7H11O2+
129.0915	9	C7H13O2+
142.1227	999	C8H16NO+
157.0861	25	C8H13O3+
159.1018	13	C8H15O3+
160.1335	24	C8H18NO2+
169.1014	6	C13H13+
171.1016	4	C9H15O3+
183.1163	4	C14H15+
211.1118	8	C15H15O+
213.0905	8	C14H13O2+
