Mass spectrum: Norsertraline; LC-ESI-QFT; MS2; CE: 60; R=35000; [M+H]+
Name: Norsertraline
Name: 1-Naphthalenamine, 4-(3,4-dichlorophenyl)-1,2,3,4-tetrahydro-
Name: 4-(3,4-dichlorophenyl)-1,2,3,4-tetrahydronaphthalen-1-amine
Formula: C16H15Cl2N
Exact mass: 291.05815
SMILES: C1CC(C2=CC=CC=C2C1C3=CC(=C(C=C3)Cl)Cl)N
InChI: InChI=1S/C16H15Cl2N/c17-14-7-5-10(9-15(14)18)11-6-8-16(19)13-4-2-1-3-12(11)13/h1-5,7,9,11,16H,6,8,19H2
Instrument: Q Exactive Plus Orbitrap Thermo Scientific
Instrument type: LC-ESI-QFT
Ms type: MS2
Ion mode: POSITIVE
Ionization: ESI
Fragmentation mode: HCD
Collision energy: 60 (nominal)
Resolution: 35000
Column name: XBridge C18 3.5um, 2.1x50mm, Waters
Retention time: 9.6 min
Base peak: 275.0379
Precursor m/z: 292.0654
Precursor type: [M+H]+
m/z	relative intensity	assigned
91.0541	33	C7H7+
115.054	3	C9H7+
122.9995	14	C7H4Cl+
124.0073	2	C7H5Cl+
125.0151	2	C7H6Cl+
128.0619	15	C10H8+
129.0697	145	C10H9+
132.9604	1	C5H3Cl2+
155.0602	3	C10H7N2+
158.9761	999	C7H5Cl2+
162.0229	10	C10H7Cl+
196.9915	6	C10H7Cl2+
204.093	1	C16H12+
205.1009	11	C16H13+
212.0383	2	C14H9Cl+
225.0462	4	C15H10Cl+
240.0696	7	C16H13Cl+
