Mass spectrum: Phenthoate; LC-ESI-QFT; MS2; CE: 75%; R=17500; [M+H]+
Name: Phenthoate
Name: ethyl 2-dimethoxyphosphinothioylsulfanyl-2-phenylacetate
Formula: C12H17O4PS2
Exact mass: 320.0306
SMILES: CCOC(=O)C(C1=CC=CC=C1)SP(=S)(OC)OC
InChI: InChI=1S/C12H17O4PS2/c1-4-16-12(13)11(10-8-6-5-7-9-10)19-17(18,14-2)15-3/h5-9,11H,4H2,1-3H3
Instrument: Exploris 240 Orbitrap Thermo Scientific
Instrument type: LC-ESI-QFT
Ms type: MS2
Ion mode: POSITIVE
Ionization: ESI
Fragmentation mode: HCD
Collision energy: 75 % (nominal)
Resolution: 17500
Column name: XBridge C18 3.5um, 2.1x50mm, Waters
Retention time: 10.719 min
Base peak: 275.0712
Precursor m/z: 321.0379
Precursor type: [M+H]+
m/z	relative intensity	assigned
53.0386	6	C4H5+
62.0186	9	C2H6S+
77.0385	31	C6H5+
78.9943	74	CH4O2P+
79.0542	999	C6H7+
91.0542	315	C7H7+
95.0493	11	C6H7O+
107.0491	421	C7H7O+
124.9821	183	C2H6O2PS+
135.044	81	C8H7O2+
142.9926	48	C2H8O3PS+
157.0078	9	C3H10O3PS+
