Mass spectrum: Clomipramine; LC-ESI-QFT; MS2; CE: 75; R=35000; [M+H]+
Name: Clomipramine
Name: 3-(2-chloro-5,6-dihydrobenzo[b][1]benzazepin-11-yl)-N,N-dimethylpropan-1-amine
Formula: C19H23ClN2
Exact mass: 314.15498
SMILES: CN(C)CCCN1C2=CC=CC=C2CCC3=C1C=C(C=C3)Cl
InChI: InChI=1S/C19H23ClN2/c1-21(2)12-5-13-22-18-7-4-3-6-15(18)8-9-16-10-11-17(20)14-19(16)22/h3-4,6-7,10-11,14H,5,8-9,12-13H2,1-2H3
Instrument: Q Exactive Plus Orbitrap Thermo Scientific
Instrument type: LC-ESI-QFT
Ms type: MS2
Ion mode: POSITIVE
Ionization: ESI
Fragmentation mode: HCD
Collision energy: 75 (nominal)
Resolution: 35000
Column name: XBridge C18 3.5um, 2.1x50mm, Waters
Retention time: 9.2 min
Base peak: 315.1618
Precursor m/z: 315.1623
Precursor type: [M+H]+
m/z	relative intensity	assigned
56.0495	9	C3H6N+
57.0574	1	C3H7N+
58.0652	999	C3H8N+
71.073	12	C4H9N+
84.0808	1	C5H10N+
86.0965	415	C5H12N+
91.0543	2	C7H7+
125.0155	1	C7H6Cl+
130.0653	1	C9H8N+
158.0965	1	C11H12N+
165.0701	1	C13H9+
179.0859	1	C14H11+
191.0731	1	C14H9N+
192.081	16	C14H10N+
201.0344	1	C12H8ClN+
204.0811	1	C15H10N+
206.0968	12	C15H12N+
207.1045	23	C15H13N+
212.0392	1	C14H9Cl+
214.0421	2	C13H9ClN+
220.1123	25	C16H14N+
226.0417	2	C14H9ClN+
227.0499	162	C14H10ClN+
228.0577	1	C14H11ClN+
234.128	9	C17H16N+
235.1357	2	C17H17N+
240.0578	1	C15H11ClN+
241.0659	1	C15H12ClN+
242.0733	41	C15H13ClN+
254.0736	3	C16H13ClN+
