Mass spectrum: Metaxalone; LC-ESI-QFT; MS2; CE: 30; R=35000; [M+H]+
Name: Metaxalone
Name: Methaxalonum
Name: 5-[(3,5-dimethylphenoxy)methyl]-1,3-oxazolidin-2-one
Formula: C12H15NO3
Exact mass: 221.10519
SMILES: CC1=CC(OCC2CNC(=O)O2)=CC(C)=C1
InChI: InChI=1S/C12H15NO3/c1-8-3-9(2)5-10(4-8)15-7-11-6-13-12(14)16-11/h3-5,11H,6-7H2,1-2H3,(H,13,14)
Instrument: Q Exactive Orbitrap Thermo Scientific
Instrument type: LC-ESI-QFT
Ms type: MS2
Ion mode: POSITIVE
Ionization: ESI
Fragmentation mode: HCD
Collision energy: 30 (nominal)
Resolution: 35000
Column name: XBridge C18 3.5um, 2.1x50mm, Waters
Retention time: 8.1 min
Base peak: 222.1126
Precursor m/z: 222.1125
Precursor type: [M+H]+
m/z	relative intensity	assigned
55.0179	79	C3H3O+
56.0496	968	C3H6N+
74.0237	249	C2H4NO2+
100.0392	89	C4H6NO2+
119.0854	69	C9H11+
123.0805	129	C8H11O+
133.1013	145	C10H13+
135.0805	280	C9H11O+
143.0857	23	C11H11+
146.0729	37	C10H10O+
149.0964	67	C10H13O+
161.0962	999	C11H13O+
