Mass spectrum: Primaquine; LC-ESI-QFT; MS2; CE: 60; R=35000; [M+H]+
Name: Primaquine
Name: (4-amino-1-methyl-butyl)-(6-methoxy-8-quinolyl)amine
Formula: C15H21N3O
Exact mass: 259.16846
SMILES: O(c1cc(NC(C)CCCN)c2ncccc2c1)C
InChI: InChI=1S/C15H21N3O/c1-11(5-3-7-16)18-14-10-13(19-2)9-12-6-4-8-17-15(12)14/h4,6,8-11,18H,3,5,7,16H2,1-2H3
Instrument: Q Exactive Orbitrap Thermo Scientific
Instrument type: LC-ESI-QFT
Ms type: MS2
Ion mode: POSITIVE
Ionization: ESI
Fragmentation mode: HCD
Collision energy: 60 (nominal)
Resolution: 35000
Column name: XBridge C18 3.5um, 2.1x50mm, Waters
Retention time: 6.4 min
Base peak: 260.1758
Precursor m/z: 260.1757
Precursor type: [M+H]+
m/z	relative intensity	assigned
53.0023	4	C3HO+
67.0542	8	C5H7+
69.0699	448	C5H9+
86.0964	999	C5H12N+
131.0601	3	C8H7N2+
132.0682	41	C8H8N2+
143.0604	1	C9H7N2+
144.0682	18	C9H8N2+
145.0761	10	C9H9N2+
157.0757	1	C10H9N2+
159.0676	1	C10H9NO+
160.063	66	C9H8N2O+
161.0709	1	C9H9N2O+
172.063	4	C10H8N2O+
173.0707	4	C10H9N2O+
174.0788	91	C10H10N2O+
175.0865	867	C10H11N2O+
186.0787	10	C11H10N2O+
187.0866	191	C11H11N2O+
199.0861	1	C12H11N2O+
200.0943	4	C12H12N2O+
201.102	10	C12H13N2O+
213.1023	1	C13H13N2O+
215.118	1	C13H15N2O+
226.1098	3	C14H14N2O+
227.118	1	C14H15N2O+
228.1258	1	C14H16N2O+
241.1334	181	C15H17N2O+
243.1491	102	C15H19N2O+
