Mass spectrum: Edetic acid (EDTA); LC-ESI-QFT; MS2; CE: 30%; R=15000; [M-H]-
Name: Edetic acid (EDTA)
Name: Edetic acid
Name: 2-[2-[bis(carboxymethyl)amino]ethyl-(carboxymethyl)amino]acetic acid
Formula: C10H16N2O8
Exact mass: 292.0907
SMILES: C(CN(CC(=O)O)CC(=O)O)N(CC(=O)O)CC(=O)O
InChI: InChI=1S/C10H16N2O8/c13-7(14)3-11(4-8(15)16)1-2-12(5-9(17)18)6-10(19)20/h1-6H2,(H,13,14)(H,15,16)(H,17,18)(H,19,20)
Instrument: Orbitrap Exploris 240 Thermo Scientific
Instrument type: LC-ESI-QFT
Ms type: MS2
Ion mode: NEGATIVE
Ionization: ESI
Fragmentation mode: HCD
Collision energy: 30 % (nominal)
Resolution: 15000
Column name: Atlantis C18 3um, 3.0x150mm, Waters
Retention time: 4.243 min
Base peak: 291.0834
Precursor m/z: 291.0834
Precursor type: [M-H]-
Precursor intensity: 339100352
m/z	relative intensity	assigned
75.0087	64	C2H3O3-
86.0249	20	C3H4NO2-
88.0404	302	C3H6NO2-
114.056	60	C5H8NO2-
115.0642	10	C5H9NO2-
131.0824	25	C5H11N2O2-
132.0306	56	C4H6NO4-
141.1033	20	C7H13N2O-
143.0827	49	C6H11N2O2-
145.0982	22	C6H13N2O2-
157.0983	344	C7H13N2O2-
159.1139	890	C7H15N2O2-
171.0777	60	C7H11N2O3-
185.0934	91	C8H13N2O3-
187.0725	128	C7H11N2O4-
189.0887	65	C7H13N2O4-
201.0882	318	C8H13N2O4-
203.1038	155	C8H15N2O4-
215.0673	113	C8H11N2O5-
229.0834	58	C9H13N2O5-
233.0784	47	C8H13N2O6-
247.0933	197	C9H15N2O6-
273.0729	577	C10H13N2O7-
291.0836	999	C10H15N2O8-
