Mass spectrum: Neburon; LC-ESI-QFT; MS2; CE: 75%; R=17500; [M+H]+
Name: Neburon
Name: 1-butyl-3-(3,4-dichlorophenyl)-1-methylurea
Formula: C12H16Cl2N2O
Exact mass: 274.0640
SMILES: CCCCN(C)C(=O)NC1=CC(=C(C=C1)Cl)Cl
InChI: InChI=1S/C12H16Cl2N2O/c1-3-4-7-16(2)12(17)15-9-5-6-10(13)11(14)8-9/h5-6,8H,3-4,7H2,1-2H3,(H,15,17)
Instrument: Exploris 240 Orbitrap Thermo Scientific
Instrument type: LC-ESI-QFT
Ms type: MS2
Ion mode: POSITIVE
Ionization: ESI
Fragmentation mode: HCD
Collision energy: 75 % (nominal)
Resolution: 17500
Column name: XBridge C18 3.5um, 2.1x50mm, Waters
Retention time: 10.696 min
Base peak: 289.1021
Precursor m/z: 275.0712
Precursor type: [M+H]+
m/z	relative intensity	assigned
57.0699	999	C4H9+
58.0287	266	C2H4NO+
78.9943	113	C2H4ClO+
88.112	94	C5H14N+
127.0185	25	C6H6ClN+
132.9608	11	C5H3Cl2+
159.9715	139	C6H4Cl2N+
