Mass spectrum: Dexamethasone; LC-ESI-ITFT; MS2; CE: 30%; R=15000; [M+H]+
Name: Dexamethasone
Name: (8S,9R,10S,11S,13S,14S,16R,17R)-9-fluoranyl-10,13,16-trimethyl-11,17-bis(oxidanyl)-17-(2-oxidanylethanoyl)-6,7,8,11,12,14,15,16-octahydrocyclopenta[a]phenanthren-3-one
Formula: C22H29FO5
Exact mass: 392.1999
SMILES: [H][C@@]12C[C@@H](C)[C@](O)(C(=O)CO)[C@@]1(C)C[C@H](O)[C@@]3(F)[C@@]2([H])CCC4=CC(=O)C=C[C@]34C
InChI: InChI=1S/C22H29FO5/c1-12-8-16-15-5-4-13-9-14(25)6-7-19(13,2)21(15,23)17(26)10-20(16,3)22(12,28)18(27)11-24/h6-7,9,12,15-17,24,26,28H,4-5,8,10-11H2,1-3H3/t12-,15+,16+,17+,19+,20+,21+,22+/m1/s1
Instrument: LTQ Orbitrap XL Thermo Scientific
Instrument type: LC-ESI-ITFT
Ms type: MS2
Ion mode: POSITIVE
Ionization: ESI
Fragmentation mode: HCD
Collision energy: 30 % (nominal)
Resolution: 15000
Column name: XBridge C18 3.5um, 2.1x50mm, Waters
Retention time: 9.5 min
Base peak: 393.2068
Precursor m/z: 393.2072
Precursor type: [M+H]+
m/z	relative intensity	assigned
95.0854	77	C7H11+
97.0648	41	C6H9O+
107.0855	142	C8H11+
109.1015	34	C8H13+
119.0855	76	C9H11+
121.0648	104	C8H9O+
121.1011	43	C9H13+
123.0806	72	C8H11O+
125.0599	73	C7H9O2+
131.0852	47	C10H11+
133.1009	36	C10H13+
135.0805	146	C9H11O+
147.0804	657	C10H11O+
149.096	205	C10H13O+
153.091	99	C9H13O2+
159.0805	169	C11H11O+
161.0962	153	C11H13O+
167.1071	74	C10H15O2+
171.0804	333	C12H11O+
173.0959	271	C12H13O+
177.0914	118	C11H13O2+
185.0962	203	C13H13O+
187.0751	107	C12H11O2+
187.112	96	C13H15O+
197.096	83	C14H13O+
199.1127	65	C14H15O+
209.0966	39	C15H13O+
211.1115	202	C15H15O+
213.1273	154	C15H17O+
215.1063	70	C14H15O2+
221.0969	55	C16H13O+
223.1115	203	C16H15O+
225.1271	115	C16H17O+
227.143	94	C16H19O+
235.1116	155	C17H15O+
237.1273	999	C17H17O+
239.1071	48	C16H15O2+
239.1429	330	C17H19O+
241.1224	147	C16H17O2+
249.1269	80	C18H17O+
251.1419	58	C18H19O+
253.1219	155	C17H17O2+
253.1583	89	C18H21O+
255.138	132	C17H19O2+
261.1269	75	C19H17O+
263.1429	129	C19H19O+
265.1581	43	C19H21O+
267.1378	122	C18H19O2+
267.1744	83	C19H23O+
275.143	134	C20H19O+
277.1586	410	C20H21O+
278.1667	128	C20H22O+
279.1742	774	C20H23O+
281.1541	34	C19H21O2+
281.1904	56	C20H25O+
289.159	163	C21H21O+
291.1743	535	C21H23O+
295.1687	164	C20H23O2+
297.1847	112	C20H25O2+
301.1588	187	C22H21O+
307.1688	194	C21H23O2+
309.1848	278	C21H25O2+
319.1694	488	C22H23O2+
325.1807	99	C21H25O3+
327.1961	73	C21H27O3+
337.18	558	C22H25O3+
355.1904	806	C22H27O4+
