Mass spectrum: Topiramate; LC-ESI-QFT; MS2; CE: 15; R=35000; [M+H]+
Name: Topiramate
Name: Topamax
Name: (2,2,7,7-tetramethyl-5,5a,8a,8b-tetrahydrodi[1,3]dioxolo[4,5-a:5`,3`-d]pyran-3a-yl)methyl sulfamate
Formula: C12H21NO8S
Exact mass: 339.09879
SMILES: CC1(OC2COC3(C(C2O1)OC(O3)(C)C)COS(=O)(=O)N)C
InChI: InChI=1S/C12H21NO8S/c1-10(2)18-7-5-16-12(6-17-22(13,14)15)9(8(7)19-10)20-11(3,4)21-12/h7-9H,5-6H2,1-4H3,(H2,13,14,15)
Instrument: Q Exactive Plus Orbitrap Thermo Scientific
Instrument type: LC-ESI-QFT
Ms type: MS2
Ion mode: POSITIVE
Ionization: ESI
Fragmentation mode: HCD
Collision energy: 15 (nominal)
Resolution: 35000
Column name: XBridge C18 3.5um, 2.1x50mm, Waters
Retention time: 6.1 min
Base peak: 357.132
Precursor m/z: 340.1061
Precursor type: [M+H]+
m/z	relative intensity	assigned
55.0179	2	C3H3O+
57.0334	9	C3H5O+
59.0491	51	C3H7O+
69.0334	3	C4H5O+
71.0127	1	C3H3O2+
79.0542	2	C6H7+
81.0334	2	C5H5O+
84.0444	1	C4H6NO+
85.0283	5	C4H5O2+
95.0491	8	C6H7O+
96.0443	2	C5H6NO+
97.0285	6	C5H5O2+
97.0647	1	C6H9O+
98.0601	1	C5H8NO+
99.0077	1	C4H3O3+
99.0441	17	C5H7O2+
101.0597	5	C5H9O2+
103.0391	4	C4H7O3+
107.0492	10	C7H7O+
109.0285	6	C6H5O2+
113.0597	10	C6H9O2+
121.0649	2	C8H9O+
124.0758	28	C7H10NO+
125.0598	15	C7H9O2+
126.0549	9	C6H8NO2+
127.0391	133	C6H7O3+
137.0598	2	C8H9O2+
138.022	5	C3H8NO3S+
139.0754	2	C8H11O2+
140.0012	10	C2H6NO4S+
143.0704	5	C7H11O3+
144.0656	4	C6H10NO3+
145.0496	4	C6H9O4+
149.0598	10	C9H9O2+
157.0861	2	C8H13O3+
164.0011	2	C4H6NO4S+
166.0864	2	C9H12NO2+
167.0704	108	C9H11O3+
176.0012	4	C5H6NO4S+
178.017	8	C5H8NO4S+
184.0969	509	C9H14NO3+
185.081	152	C9H13O4+
188.0012	3	C6H6NO4S+
188.9853	11	C6H5O5S+
204.0327	15	C7H10NO4S+
206.012	55	C6H8NO5S+
206.9963	2	C6H7O6S+
222.0427	1	C7H12NO5S+
224.0225	169	C6H10NO6S+
246.0433	4	C9H12NO5S+
264.0538	999	C9H14NO6S+
282.0644	53	
322.0958	19	
