Mass spectrum: Dinoterb; LC-ESI-QFT; MS2; CE: 75; R=35000; [M-H]-
Name: Dinoterb
Name: 2-tert-butyl-4,6-dinitro-phenol
Name: Phenol, 2-(1,1-dimethylethyl)-4,6-dinitro-
Formula: C10H12N2O5
Exact mass: 240.07462
SMILES: [O-][N+](=O)c1cc(cc(c1O)C(C)(C)C)[N+]([O-])=O
InChI: InChI=1S/C10H12N2O5/c1-10(2,3)7-4-6(11(14)15)5-8(9(7)13)12(16)17/h4-5,13H,1-3H3
Instrument: Q Exactive Orbitrap Thermo Scientific
Instrument type: LC-ESI-QFT
Ms type: MS2
Ion mode: NEGATIVE
Ionization: ESI
Fragmentation mode: HCD
Collision energy: 75 (nominal)
Resolution: 35000
Column name: XBridge C18 3.5um, 2.1x50mm, Waters
Retention time: 13.3 min
Base peak: 239.0675
Precursor m/z: 239.0673
Precursor type: [M-H]-
m/z	relative intensity	assigned
65.0398	1	C5H5-
68.9984	1	C3HO2-
80.0269	1	C5H4O-
81.071	1	C6H9-
91.0554	15	C7H7-
95.014	2	C5H3O2-
107.0504	3	C7H7O-
107.0867	26	C8H11-
108.0217	1	C6H4O2-
109.017	3	C5H3NO2-
109.0296	1	C6H5O2-
119.0504	1	C8H7O-
121.0297	1	C7H5O2-
123.009	5	C6H3O3-
123.0327	63	C6H5NO2-
134.0249	4	C7H4NO2-
135.0453	9	C8H7O2-
136.053	23	C8H8O2-
146.0373	1	C9H6O2-
147.0453	3	C9H7O2-
148.0402	11	C8H6NO2-
149.0482	65	C8H7NO2-
150.056	80	C8H8NO2-
151.0274	25	C7H5NO3-
151.0764	123	C9H11O2-
160.0406	1	C9H6NO2-
162.0197	24	C8H4NO3-
163.04	6	C9H7O3-
164.0354	8	C8H6NO3-
164.048	7	C9H8O3-
164.0718	85	C9H10NO2-
166.0148	1	C7H4NO4-
166.0508	10	C8H8NO3-
176.0352	123	C9H6NO3-
177.0431	196	C9H7NO3-
178.0509	81	C9H8NO3-
179.0713	49	C10H11O3-
192.0667	10	C10H10NO3-
193.0378	1	C9H7NO4-
193.0744	12	C10H11NO3-
194.0458	51	C9H8NO4-
207.0411	999	C9H7N2O4-
208.0614	27	C10H10NO4-
209.0693	18	C10H11NO4-
223.0361	6	C9H7N2O5-
224.0439	10	C9H8N2O5-
239.0674	119	C10H11N2O5-
