Mass spectrum: Lincomycin; LC-ESI-QFT; MS2; CE: 30; R=35000; [M+H]+
Name: Lincomycin
Name: N-[2-hydroxy-1-(3,4,5-trihydroxy-6-methylsulfanyloxan-2-yl)propyl]-1-methyl-4-propylpyrrolidine-2-carboxamide
Formula: C18H34N2O6S
Exact mass: 406.21376
SMILES: CCCC1CC(N(C1)C)C(=O)NC(C2C(C(C(C(O2)SC)O)O)O)C(C)O
InChI: InChI=1S/C18H34N2O6S/c1-5-6-10-7-11(20(3)8-10)17(25)19-12(9(2)21)16-14(23)13(22)15(24)18(26-16)27-4/h9-16,18,21-24H,5-8H2,1-4H3,(H,19,25)
Instrument: Q Exactive Plus Orbitrap Thermo Scientific
Instrument type: LC-ESI-QFT
Ms type: MS2
Ion mode: POSITIVE
Ionization: ESI
Fragmentation mode: HCD
Collision energy: 30 (nominal)
Resolution: 35000
Column name: XBridge C18 3.5um, 2.1x50mm, Waters
Retention time: 3.6 min
Base peak: 407.2201
Precursor m/z: 407.221
Precursor type: [M+H]+
m/z	relative intensity	assigned
82.0647	1	C5H8N+
97.0283	1	C5H5O2+
126.1277	999	C8H16N+
171.1485	1	C9H19N2O+
172.1332	7	C9H18NO2+
198.0765	1	C9H12NO4+
216.0868	2	C9H14NO5+
228.0692	1	C10H14NO3S+
234.0974	2	C9H16NO6+
257.1859	1	C13H25N2O3+
287.1966	2	C14H27N2O4+
299.1964	5	C15H27N2O4+
317.2071	9	C15H29N2O5+
359.2176	101	C17H31N2O6+
389.2104	17	C18H33N2O5S+
407.221	144	C18H35N2O6S+
