Mass spectrum: Dinoseb; LC-ESI-ITFT; MS2; CE: 60%; R=15000; [M-H]-
Name: Dinoseb
Name: 2,4-dinitro-6-sec-butyl-phenol
Formula: C10H12N2O5
Exact mass: 240.0746
SMILES: OC1=C([N+]([O-])=O)C=C([N+]([O-])=O)C=C1C(C)CC
InChI: InChI=1S/C10H12N2O5/c1-3-6(2)8-4-7(11(14)15)5-9(10(8)13)12(16)17/h4-6,13H,3H2,1-2H3
Instrument: LTQ Orbitrap XL Thermo Scientific
Instrument type: LC-ESI-ITFT
Ms type: MS2
Ion mode: NEGATIVE
Ionization: ESI
Fragmentation mode: HCD
Collision energy: 60 % (nominal)
Resolution: 15000
Column name: XBridge C18 3.5um, 2.1x50mm, Waters
Retention time: 13.0 min
Base peak: 239.0673
Precursor m/z: 239.0673
Precursor type: [M-H]-
m/z	relative intensity	assigned
136.0403	36	C7H6NO2-
151.0764	68	C9H11O2-
164.0348	23	C8H6NO3-
164.0476	19	C9H8O3-
176.0355	88	C9H6NO3-
177.043	20	C9H7NO3-
178.0508	64	C9H8NO3-
179.0712	66	C10H11O3-
180.03	33	C8H6NO4-
192.0665	266	C10H10NO3-
193.0253	999	C8H5N2O4-
194.0456	709	C9H8NO4-
207.041	136	C9H7N2O4-
208.061	33	C10H10NO4-
209.0199	106	C8H5N2O5-
209.0688	19	C10H11NO4-
210.0281	26	C8H6N2O5-
221.0565	21	C10H9N2O4-
222.0645	74	C10H10N2O4-
239.0673	295	C10H11N2O5-
