Mass spectrum: Trimipramine; LC-ESI-ITFT; MS2; CE: 45%; R=7500; [M+H]+
Name: Trimipramine
Name: 3-(5,6-dihydrobenzo[b][1]benzazepin-11-yl)-N,N,2-trimethyl-1-propanamine
Formula: C20H26N2
Exact mass: 294.2096
SMILES: CC(CN1C2=CC=CC=C2CCC3=CC=CC=C31)CN(C)C
InChI: InChI=1S/C20H26N2/c1-16(14-21(2)3)15-22-19-10-6-4-8-17(19)12-13-18-9-5-7-11-20(18)22/h4-11,16H,12-15H2,1-3H3
Instrument: LTQ Orbitrap XL Thermo Scientific
Instrument type: LC-ESI-ITFT
Ms type: MS2
Ion mode: POSITIVE
Ionization: ESI
Fragmentation mode: HCD
Collision energy: 45 % (nominal)
Resolution: 7500
Column name: XBridge C18 3.5um, 2.1x50mm, Waters
Retention time: 8.7 min
Base peak: 295.2178
Precursor m/z: 295.2169
Precursor type: [M+H]+
m/z	relative intensity	assigned
58.0651	341	C3H8N+
100.1121	999	C6H14N+
193.0881	7	C14H11N+
208.1121	240	C15H14N+
250.1588	40	C18H20N+
