Mass spectrum: Mesosulfuron-methyl; LC-ESI-QFT; MS2; CE: 75; R=35000; [M+H]+
Name: Mesosulfuron-methyl
Name: 2-[(4,6-dimethoxypyrimidin-2-yl)carbamoylsulfamoyl]-4-(methanesulfonamidomethyl)benzoic acid methyl ester
Formula: C17H21N5O9S2
Exact mass: 503.07807
SMILES: O=C(Nc1nc(cc(OC)n1)OC)NS(=O)(=O)c2cc(CNS(C)(=O)=O)ccc2C(=O)OC
InChI: InChI=1S/C17H21N5O9S2/c1-29-13-8-14(30-2)20-16(19-13)21-17(24)22-33(27,28)12-7-10(9-18-32(4,25)26)5-6-11(12)15(23)31-3/h5-8,18H,9H2,1-4H3,(H2,19,20,21,22,24)
Instrument: Q Exactive Orbitrap Thermo Scientific
Instrument type: LC-ESI-QFT
Ms type: MS2
Ion mode: POSITIVE
Ionization: ESI
Fragmentation mode: HCD
Collision energy: 75 (nominal)
Resolution: 35000
Column name: XBridge C18 3.5um, 2.1x50mm, Waters
Retention time: 8.9 min
Base peak: 504.0852
Precursor m/z: 504.0853
Precursor type: [M+H]+
m/z	relative intensity	assigned
56.0133	5	C2H2NO+
57.0449	23	C2H5N2+
58.0289	9	C2H4NO+
65.0386	1	C5H5+
68.0131	21	C3H2NO+
68.9971	38	C3HO2+
69.0083	4	C2HN2O+
70.0287	1	C3H4NO+
71.0603	70	C3H7N2+
72.0443	9	C3H6NO+
77.0385	13	C6H5+
78.9848	3	CH3O2S+
79.0542	30	C6H7+
81.0447	20	C4H5N2+
82.0287	45	C4H4NO+
83.0239	999	C3H3N2O+
89.0385	3	C7H5+
90.0336	5	C6H4N+
91.0542	2	C7H7+
92.0257	11	C6H4O+
92.0494	4	C6H6N+
93.0083	64	C4HN2O+
95.0491	19	C6H7O+
100.0392	81	C4H6NO2+
104.0494	97	C7H6N+
105.0336	6	C7H5O+
105.0447	14	C6H5N2+
106.0398	1	C5H4N3+
106.0651	20	C7H8N+
107.0242	4	C5H3N2O+
107.0492	6	C7H7O+
109.0271	1	C4H3N3O+
109.0396	16	C5H5N2O+
110.0236	4	C5H4NO2+
111.0427	3	C4H5N3O+
112.0504	3	C4H6N3O+
113.0583	2	C4H7N3O+
114.0549	3	C5H8NO2+
117.0445	8	C7H5N2+
118.0287	12	C7H4NO+
119.0365	20	C7H5NO+
119.0604	5	C7H7N2+
120.0444	3	C7H6NO+
124.0505	20	C5H6N3O+
125.0345	1	C5H5N2O2+
126.0185	4	C5H4NO3+
127.0501	11	C5H7N2O2+
129.0447	2	C8H5N2+
132.0444	13	C8H6NO+
133.0522	2	C8H7NO+
134.0599	14	C8H8NO+
135.0439	41	C8H7O2+
138.0298	7	C5H4N3O2+
138.0661	2	C6H8N3O+
139.0501	374	C6H7N2O2+
140.0453	10	C5H6N3O2+
141.0531	9	C5H7N3O2+
145.0396	1	C8H5N2O+
146.0235	4	C8H4NO2+
147.0313	1	C8H5NO2+
147.0553	11	C8H7N2O+
148.0393	3	C8H6NO2+
150.0298	4	C6H4N3O2+
156.0767	24	C6H10N3O2+
157.0606	387	C6H9N2O3+
162.0548	145	C9H8NO2+
165.0419	4	C8H7NO3+
166.0246	5	C6H4N3O3+
167.0323	6	C6H5N3O3+
173.0345	6	C9H5N2O2+
182.056	194	C7H8N3O3+
