Mass spectrum: Buflomedil; LC-ESI-QFT; MS2; CE: 60; R=35000; [M+H]+
Name: Buflomedil
Name: 4-(1-pyrrolidinyl)-1-(2,4,6-trimethoxyphenyl)-1-butanone
Formula: C17H25NO4
Exact mass: 307.17836
SMILES: O=C(c1c(OC)cc(OC)cc1OC)CCCN2CCCC2
InChI: InChI=1S/C17H25NO4/c1-20-13-11-15(21-2)17(16(12-13)22-3)14(19)7-6-10-18-8-4-5-9-18/h11-12H,4-10H2,1-3H3
Instrument: Q Exactive Orbitrap Thermo Scientific
Instrument type: LC-ESI-QFT
Ms type: MS2
Ion mode: POSITIVE
Ionization: ESI
Fragmentation mode: HCD
Collision energy: 60 (nominal)
Resolution: 35000
Column name: XBridge C18 3.5um, 2.1x50mm, Waters
Retention time: 4.8 min
Base peak: 308.1855
Precursor m/z: 308.1856
Precursor type: [M+H]+
m/z	relative intensity	assigned
68.0494	1	C4H6N+
69.0334	71	C4H5O+
70.065	118	C4H8N+
71.049	55	C4H7O+
72.0807	24	C4H10N+
79.0542	1	C6H7+
83.0491	3	C5H7O+
84.0807	9	C5H10N+
86.0599	11	C4H8NO+
91.054	7	C7H7+
95.049	1	C6H7O+
96.0807	1	C6H10N+
97.0887	3	C6H11N+
98.0599	127	C5H8NO+
103.0542	1	C8H7+
105.0698	11	C8H9+
107.049	1	C7H7O+
108.0807	1	C7H10N+
109.0647	3	C7H9O+
112.112	3	C7H14N+
114.0913	1	C6H12NO+
115.0542	1	C9H7+
117.0698	1	C9H9+
119.0489	3	C8H7O+
121.0646	21	C8H9O+
122.036	1	C7H6O2+
123.0803	15	C8H11O+
125.0596	1	C7H9O2+
133.0646	1	C9H9O+
135.0437	3	C8H7O2+
135.0803	8	C9H11O+
136.0517	16	C8H8O2+
137.0596	8	C8H9O2+
138.0674	1	C8H10O2+
139.0753	29	C8H11O2+
140.1068	247	C8H14NO+
145.0647	1	C10H9O+
146.0724	4	C10H10O+
147.0804	5	C10H11O+
149.0596	4	C9H9O2+
149.0708	1	C8H9N2O+
149.096	1	C10H13O+
150.0674	3	C9H10O2+
151.0752	22	C9H11O2+
152.0466	11	C8H8O3+
153.0545	1	C8H9O3+
153.0909	1	C9H13O2+
155.0701	3	C8H11O3+
159.0801	2	C11H11O+
160.0881	1	C11H12O+
161.0597	1	C10H9O2+
162.0674	3	C10H10O2+
163.0389	3	C9H7O3+
163.0751	4	C10H11O2+
165.0545	6	C9H9O3+
165.0909	22	C10H13O2+
166.0623	1	C9H10O3+
167.0701	20	C9H11O3+
168.0779	10	C9H12O3+
169.0858	12	C9H13O3+
175.0753	7	C11H11O2+
176.0831	3	C11H12O2+
177.0546	3	C10H9O3+
177.0909	40	C11H13O2+
178.0622	38	C10H10O3+
178.0986	19	C11H14O2+
179.0702	10	C10H11O3+
179.1066	9	C11H15O2+
180.0414	29	C9H8O4+
180.0779	4	C10H12O3+
181.0857	272	C10H13O3+
189.0543	6	C11H9O3+
189.0906	1	C12H13O2+
191.0701	55	C11H11O3+
191.1065	4	C12H15O2+
192.0778	1	C11H12O3+
193.0856	3	C11H13O3+
194.0936	9	C11H14O3+
195.065	999	C10H11O4+
195.1011	128	C11H15O3+
198.0519	7	C9H10O5+
204.0779	36	C12H12O3+
207.1016	7	C12H15O3+
209.117	34	C12H17O3+
219.1013	4	C13H15O3+
221.1175	1	C13H17O3+
222.0884	17	C12H14O4+
237.1119	599	C13H17O4+
290.1746	1	C17H24NO3+
