Mass spectrum: ortho-Chlorophenylpiperazine; LC-ESI-QFT; MS2; CE: 150; R=35000; [M+H]+
Name: ortho-Chlorophenylpiperazine
Name: 1-(2-Chlorophenyl)piperazine
Name: 1-(2-chlorophenyl)piperazine
Formula: C10H13ClN2
Exact mass: 196.07673
SMILES: c1ccc(c(c1)N2CCNCC2)Cl
InChI: InChI=1S/C10H13ClN2/c11-9-3-1-2-4-10(9)13-7-5-12-6-8-13/h1-4,12H,5-8H2
Instrument: Q Exactive Plus Orbitrap Thermo Scientific
Instrument type: LC-ESI-QFT
Ms type: MS2
Ion mode: POSITIVE
Ionization: ESI
Fragmentation mode: HCD
Collision energy: 150 (nominal)
Resolution: 35000
Column name: XBridge C18 3.5um, 2.1x50mm, Waters
Retention time: 4.9 min
Base peak: 197.0839
Precursor m/z: 197.084
Precursor type: [M+H]+
m/z	relative intensity	assigned
50.0151	67	C4H2+
51.0229	93	C4H3+
52.0182	1	C3H2N+
53.0022	10	C3HO+
53.0386	42	C4H5+
55.0178	3	C3H3O+
55.0416	2	C3H5N+
56.0495	16	C3H6N+
58.0651	4	C3H8N+
62.0151	1	C5H2+
63.0229	31	C5H3+
64.0182	5	C4H2N+
64.0307	11	C5H4+
65.0386	311	C5H5+
66.0464	15	C5H6+
68.0494	1	C4H6N+
70.0651	4	C4H8N+
72.9839	37	C3H2Cl+
74.0151	21	C6H2+
75.0229	111	C6H3+
76.0306	1	C6H4+
77.0385	139	C6H5+
78.0337	4	C5H4N+
78.0464	12	C6H6+
79.0542	3	C6H7+
80.0494	3	C5H6N+
81.0334	6	C5H5O+
84.9839	7	C4H2Cl+
85.076	1	C4H9N2+
86.9996	3	C4H4Cl+
89.0386	78	C7H5+
90.0339	9	C6H4N+
90.0464	79	C7H6+
91.0542	999	C7H7+
92.0494	23	C6H6N+
92.062	27	C7H8+
93.0573	36	C6H7N+
94.0413	1	C6H6O+
95.0491	151	C6H7O+
96.0443	4	C5H6NO+
98.9996	81	C5H4Cl+
100.0074	10	C5H5Cl+
102.0462	6	C8H6+
103.0541	2	C8H7+
104.0494	58	C7H6N+
105.0447	85	C6H5N2+
105.0573	8	C7H7N+
106.0418	1	C4H9ClN+
106.0652	1	C7H8N+
109.0649	1	C4H12ClN+
110.9996	10	C6H4Cl+
112.0074	15	C6H5Cl+
116.0494	7	C8H6N+
117.0573	186	C8H7N+
118.0651	964	C8H8N+
119.073	18	C8H9N+
120.0809	6	C8H10N+
125.0149	1	C7H6Cl+
126.0107	3	C6H5ClN+
127.0183	47	C6H6ClN+
129.0102	11	C6H6ClO+
130.065	3	C9H8N+
131.0605	1	C8H7N2+
138.0105	5	C7H5ClN+
139.0057	30	C6H4ClN2+
140.0262	8	C7H7ClN+
