Mass spectrum: Pregabalin; LC-ESI-QFT; MS2; CE: 45; R=35000; [M+H]+
Name: Pregabalin
Name: (3S)-3-(aminomethyl)-5-methyl-hexanoic acid
Formula: C8H17NO2
Exact mass: 159.12593
SMILES: CC(C)C[C@H](CN)CC(O)=O
InChI: InChI=1S/C8H17NO2/c1-6(2)3-7(5-9)4-8(10)11/h6-7H,3-5,9H2,1-2H3,(H,10,11)/t7-/m0/s1
Instrument: Q Exactive Orbitrap Thermo Scientific
Instrument type: LC-ESI-QFT
Ms type: MS2
Ion mode: POSITIVE
Ionization: ESI
Fragmentation mode: HCD
Collision energy: 45 (nominal)
Resolution: 35000
Column name: XBridge C18 3.5um, 2.1x50mm, Waters
Retention time: 3.4 min
Base peak: 160.1332
Precursor m/z: 160.1332
Precursor type: [M+H]+
m/z	relative intensity	assigned
53.0387	68	C4H5+
55.0179	438	C3H3O+
55.0543	999	C4H7+
57.0699	101	C4H9+
59.0492	121	C3H7O+
67.0542	11	C5H7+
68.0495	157	C4H6N+
69.0335	79	C4H5O+
69.0699	140	C5H9+
79.0542	24	C6H7+
81.0698	22	C6H9+
82.0651	43	C5H8N+
83.0855	500	C6H11+
97.1012	537	C7H13+
107.0856	73	C8H11+
124.1121	208	C8H14N+
125.0961	119	C8H13O+
142.1227	356	C8H16NO+
143.1067	18	C8H15O2+
