Mass spectrum: Theophyline; LC-ESI-QFT; MS2; CE: 30; R=35000; [M+H]+
Name: Theophyline
Name: Theophylline
Name: 1,3-dimethyl-7H-purine-2,6-dione
Formula: C7H8N4O2
Exact mass: 180.06473
SMILES: CN1C2=C(C(=O)N(C1=O)C)NC=N2
InChI: InChI=1S/C7H8N4O2/c1-10-5-4(8-3-9-5)6(12)11(2)7(10)13/h3H,1-2H3,(H,8,9)
Instrument: Q Exactive Plus Orbitrap Thermo Scientific
Instrument type: LC-ESI-QFT
Ms type: MS2
Ion mode: POSITIVE
Ionization: ESI
Fragmentation mode: HCD
Collision energy: 30 (nominal)
Resolution: 35000
Column name: XBridge C18 3.5um, 2.1x50mm, Waters
Retention time: 3.2 min
Base peak: 181.0717
Precursor m/z: 181.072
Precursor type: [M+H]+
m/z	relative intensity	assigned
69.0444	1	C3H5N2+
96.0557	2	C4H6N3+
124.0507	88	C5H6N3O+
137.0823	2	C6H9N4+
142.0613	1	C5H8N3O2+
181.0721	999	C7H9N4O2+
