Mass spectrum: Dronedarone; LC-ESI-ITFT; MS2; CE: 60%; R=15000; [M+H]+
Name: Dronedarone
Name: N-[2-butyl-3-[4-[3-(dibutylamino)propoxy]benzoyl]-1-benzofuran-5-yl]methanesulfonamide
Formula: C31H44N2O5S
Exact mass: 556.2971
SMILES: CS(=O)(=O)Nc1cc2c(c(oc2cc1)CCCC)C(c1ccc(cc1)OCCCN(CCCC)CCCC)=O
InChI: InChI=1S/C31H44N2O5S/c1-5-8-12-29-30(27-23-25(32-39(4,35)36)15-18-28(27)38-29)31(34)24-13-16-26(17-14-24)37-22-11-21-33(19-9-6-2)20-10-7-3/h13-18,23,32H,5-12,19-22H2,1-4H3
Instrument: LTQ Orbitrap XL Thermo Scientific
Instrument type: LC-ESI-ITFT
Ms type: MS2
Ion mode: POSITIVE
Ionization: ESI
Fragmentation mode: HCD
Collision energy: 60 % (nominal)
Resolution: 15000
Column name: XBridge C18 3.5um, 2.1x50mm, Waters
Retention time: 11.5 min
Base peak: 557.3051
Precursor m/z: 557.3044
Precursor type: [M+H]+
m/z	relative intensity	assigned
57.0699	9	C4H9+
58.0651	553	C3H8N+
70.0652	8	C4H8N+
72.0808	18	C4H10N+
84.0807	5	C5H10N+
86.0964	55	C5H12N+
100.112	999	C6H14N+
101.1154	37	
112.1121	14	C7H14N+
114.1277	143	C7H16N+
121.0283	25	C7H5O2+
126.1274	3	C8H16N+
128.1433	74	C8H18N+
130.1589	4	C8H20N+
133.0286	2	C8H5O2+
142.159	270	C9H20N+
144.0807	1	C10H10N+
145.0523	5	C9H7NO+
146.0599	2	C9H8NO+
147.044	21	C9H7O2+
158.0964	1	C11H12N+
159.0677	2	C10H9NO+
161.0597	33	C10H9O2+
170.1902	22	C11H24N+
173.047	15	C10H7NO2+
174.055	7	C10H8NO2+
186.0551	5	C11H8NO2+
186.0916	3	C12H12NO+
214.0861	3	C13H12NO2+
215.094	44	C13H13NO2+
216.1022	18	C13H14NO2+
234.0913	1	C10H18O4S+
238.0862	5	C15H12NO2+
248.0702	2	C10H16O5S+
249.0772	2	C16H11NO2+
250.0859	8	C16H12NO2+
251.0937	1	C10H19O5S+
252.0325	11	C11H10NO4S+
252.1012	3	C16H14NO2+
264.0648	1	C16H10NO3+
264.1028	1	C11H20O5S+
265.0737	7	C16H11NO3+
266.0807	5	C16H12NO3+
278.081	6	C17H12NO3+
279.0883	2	C17H13NO3+
280.0973	7	C17H14NO3+
292.0963	2	C18H14NO3+
293.1412	2	C13H25O5S+
294.0791	17	C20H10N2O+
305.1052	3	C19H15NO3+
306.1132	2	C19H16NO3+
308.1282	3	C19H18NO3+
309.1361	3	C19H19NO3+
310.1435	2	C19H20NO3+
321.1366	1	C20H19NO3+
322.143	2	C20H20NO3+
324.1591	2	C20H22NO3+
336.159	15	C21H22NO3+
