Mass spectrum: Prometryn; LC-ESI-ITFT; MS2; CE: 45%; R=15000; [M+H]+
Name: Prometryn
Name: 6-(methylthio)-N2,N4-di(propan-2-yl)-1,3,5-triazine-2,4-diamine
Formula: C10H19N5S
Exact mass: 241.1356
SMILES: c1(nc(NC(C)C)nc(n1)SC)NC(C)C
InChI: InChI=1S/C10H19N5S/c1-6(2)11-8-13-9(12-7(3)4)15-10(14-8)16-5/h6-7H,1-5H3,(H2,11,12,13,14,15)
Instrument: LTQ Orbitrap XL Thermo Scientific
Instrument type: LC-ESI-ITFT
Ms type: MS2
Ion mode: POSITIVE
Ionization: ESI
Fragmentation mode: HCD
Collision energy: 45 % (nominal)
Resolution: 15000
Column name: XBridge C18 3.5um, 2.1x50mm, Waters
Retention time: 8.5 min
Base peak: 242.1438
Precursor m/z: 242.1434
Precursor type: [M+H]+
m/z	relative intensity	assigned
68.0243	49	C2H2N3+
74.0057	2	C2H4NS+
91.0324	8	C2H7N2S+
110.0461	4	C3H4N5+
110.0713	22	C5H8N3+
116.0277	31	C3H6N3S+
152.0932	9	C6H10N5+
152.1182	15	C8H14N3+
158.0496	569	C4H8N5S+
194.1399	4	C9H16N5+
200.0966	861	C7H14N5S+
242.1435	999	C10H20N5S+
