Mass spectrum: Cimetidine; LC-ESI-QFT; MS2; CE: 180; R=35000; [M+H]+
Name: Cimetidine
Name: 1-cyano-2-methyl-3-[2-[(5-methyl-1H-imidazol-4-yl)methylsulfanyl]ethyl]guanidine
Formula: C10H16N6S
Exact mass: 252.11572
SMILES: CC1=C(N=CN1)CSCCNC(=NC)NC#N
InChI: InChI=1S/C10H16N6S/c1-8-9(16-7-15-8)5-17-4-3-13-10(12-2)14-6-11/h7H,3-5H2,1-2H3,(H,15,16)(H2,12,13,14)
Instrument: Q Exactive Plus Orbitrap Thermo Scientific
Instrument type: LC-ESI-QFT
Ms type: MS2
Ion mode: POSITIVE
Ionization: ESI
Fragmentation mode: HCD
Collision energy: 180 (nominal)
Resolution: 35000
Column name: XBridge C18 3.5um, 2.1x50mm, Waters
Retention time: 2.0 min
Base peak: 253.1222
Precursor m/z: 253.123
Precursor type: [M+H]+
m/z	relative intensity	assigned
50.0151	4	C4H2+
51.0228	22	C4H3+
52.0182	48	C3H2N+
53.0022	172	C3HO+
54.0338	999	C3H4N+
55.029	205	C2H3N2+
57.0447	605	C2H5N2+
58.9824	55	CHNS+
58.995	34	C2H3S+
59.9902	49	CH2NS+
60.0027	10	C2H4S+
61.0106	560	C2H5S+
66.0337	21	C4H4N+
67.0415	5	C4H5N+
68.0243	427	C2H2N3+
68.0494	225	C4H6N+
74.0058	307	C2H4NS+
78.0085	5	C3N3+
81.0446	36	C4H5N2+
82.0399	255	C3H4N3+
84.9853	8	C2HN2S+
95.0603	476	C5H7N2+
117.0481	5	C4H9N2S+
