Mass spectrum: Isoxaflutole; LC-ESI-QFT; MS2; CE: 180; R=35000; [M+H]+
Name: Isoxaflutole
Name: (5-cyclopropyl-1,2-oxazol-4-yl)-[2-methylsulfonyl-4-(trifluoromethyl)phenyl]methanone
Formula: C15H12F3NO4S
Exact mass: 359.04391
SMILES: O=C(c1c(onc1)C2CC2)c3ccc(cc3S(=O)(=O)C)C(F)(F)F
InChI: InChI=1S/C15H12F3NO4S/c1-24(21,22)12-6-9(15(16,17)18)4-5-10(12)13(20)11-7-19-23-14(11)8-2-3-8/h4-8H,2-3H2,1H3
Instrument: Q Exactive Plus Orbitrap Thermo Scientific
Instrument type: LC-ESI-QFT
Ms type: MS2
Ion mode: POSITIVE
Ionization: ESI
Fragmentation mode: HCD
Collision energy: 180 (nominal)
Resolution: 35000
Column name: XBridge C18 3.5um, 2.1x50mm, Waters
Retention time: 8.7 min
Base peak: 360.0506
Precursor m/z: 360.0512
Precursor type: [M+H]+
m/z	relative intensity	assigned
50.0152	110	C4H2+
51.0042	33	CHF2+
51.023	40	C4H3+
53.0022	36	C3HO+
53.0386	9	C4H5+
53.9975	8	C2NO+
55.0179	1	C3H3O+
57.0136	188	C3H2F+
57.9873	8	C2H2S+
58.995	6	C2H3S+
59.0292	11	C3H4F+
59.9665	21	COS+
61.0073	41	C5H+
62.0152	136	C5H2+
63.023	366	C5H3+
65.0022	24	C4HO+
65.0386	11	C5H5+
66.01	1	C4H2O+
66.0464	5	C5H6+
68.0057	136	C4HF+
68.9794	178	C3HS+
68.9947	106	CF3+
69.0136	12	C4H2F+
69.9872	8	C3H2S+
70.0214	98	C4H3F+
70.995	4	C3H3S+
71.0292	9	C4H4F+
74.0151	503	C6H2+
75.0041	330	C3HF2+
75.0229	999	C6H3+
77.0022	4	C5HO+
77.0197	2	C3H3F2+
77.0386	18	C6H5+
78.0464	7	C6H6+
78.9848	1	CH3O2S+
79.018	10	C5H3O+
80.0057	1	C5HF+
80.0496	1	C5H6N+
81.0136	101	C5H2F+
81.9872	10	C4H2S+
82.0025	5	C2HF3+
82.0213	12	C5H3F+
83.0292	89	C5H4F+
84.0029	1	C4H4S+
84.037	1	C5H5F+
86.0151	10	
86.97	9	C3FS+
87.023	37	C7H3+
87.9778	10	C3HFS+
88.0119	13	C4H2F2+
88.9856	1	C3H2FS+
89.0024	8	C6HO+
89.0386	23	C7H5+
90.9989	1	C3HF2O+
92.0257	5	C6H4O+
92.9795	18	C5HS+
92.9948	38	C3F3+
93.0136	60	C6H2F+
94.0214	223	C6H3F+
94.9951	67	C5H3S+
95.0104	5	C3H2F3+
95.0293	7	C6H4F+
95.0492	20	C6H7O+
96.037	7	C6H5F+
97.0108	7	C5H5S+
98.0152	65	C8H2+
99.0042	125	C5HF2+
99.023	26	C8H3+
100.0119	1	C5H2F2+
100.0182	1	C7H2N+
101.0198	74	C5H3F2+
101.9936	1	C4H3FS+
102.0464	5	C8H6+
105.0136	22	C7H2F+
105.0449	15	C6H5N2+
106.0025	6	C4HF3+
106.9762	2	C3HF2S+
107.0292	26	C7H4F+
108.003	6	C6H4S+
108.0368	1	C7H5F+
109.0106	1	C6H5S+
109.045	11	C7H6F+
110.016	1	C6H3FO+
112.0121	11	C6H2F2+
112.0319	3	C6H5FO+
112.9857	22	C5H2FS+
113.0197	10	C6H3F2+
113.0393	7	C6H6FO+
113.9935	1	C5H3FS+
114.0275	4	C6H4F2+
115.0013	6	C5H4FS+
115.0545	1	C9H7+
116.9949	12	C5F3+
117.0137	4	C8H2F+
118.0026	7	C5HF3+
119.0105	26	C5H2F3+
120.0181	1	C5H3F3+
123.0042	68	C7HF2+
123.0354	13	C3H9NO2S+
124.012	1	C7H2F2+
124.0183	8	C9H2N+
125.0199	314	C7H3F2+
125.9933	1	C6H3FS+
126.0466	4	C10H6+
127.0355	7	C7H5F2+
131.0298	5	C6H5F2O+
132.0182	25	C6H3F3+
132.9919	4	C7HO3+
133.045	2	C9H6F+
134.0402	1	C8H5FN+
136.9674	1	C4F3S+
136.9856	1	C7H2FS+
138.0278	2	C8H4F2+
141.0147	4	C7H3F2O+
141.0259	15	C3H8FNO2S+
143.0105	268	C7H2F3+
144.0181	3	C7H3F3+
145.0261	6	C7H4F3+
149.0205	1	C6H4F3O+
151.0354	3	C9H5F2+
152.0622	1	C12H8+
156.9918	12	C7H3F2S+
162.0282	1	C7H5F3O+
175.0359	1	C8H6F3O+
