Mass spectrum: Norlidocaine; LC-ESI-QFT; MS2; CE: 180; R=35000; [M+H]+
Name: Norlidocaine
Name: Monoethylglycinexylidide
Name: N-(2,6-dimethylphenyl)-2-(ethylamino)acetamide
Formula: C12H18N2O
Exact mass: 206.14191
SMILES: CCNCC(=O)NC1=C(C=CC=C1C)C
InChI: InChI=1S/C12H18N2O/c1-4-13-8-11(15)14-12-9(2)6-5-7-10(12)3/h5-7,13H,4,8H2,1-3H3,(H,14,15)
Instrument: Q Exactive Plus Orbitrap Thermo Scientific
Instrument type: LC-ESI-QFT
Ms type: MS2
Ion mode: POSITIVE
Ionization: ESI
Fragmentation mode: HCD
Collision energy: 180 (nominal)
Resolution: 35000
Column name: XBridge C18 3.5um, 2.1x50mm, Waters
Retention time: 3.8 min
Base peak: 207.1491
Precursor m/z: 207.1492
Precursor type: [M+H]+
m/z	relative intensity	assigned
50.0151	70	
51.023	367	C4H3+
53.0386	192	C4H5+
58.0651	999	C3H8N+
63.0229	16	
64.0307	10	
65.0386	125	C5H5+
77.0386	223	C6H5+
79.0542	281	C6H7+
80.0494	40	C5H6N+
81.0337	10	
89.0386	181	C7H5+
90.0465	88	C7H6+
91.0543	167	C7H7+
95.0492	445	C6H7O+
96.0443	15	
103.0541	51	C8H7+
105.0448	277	C6H5N2+
106.0651	982	C7H8N+
107.0491	11	C7H7O+
107.073	50	C7H9N+
117.0572	21	C8H7N+
118.0653	13	C8H8N+
