Mass spectrum: Fentanyl; LC-ESI-QFT; MS2; CE: 60; R=35000; [M+H]+
Name: Fentanyl
Name: N-phenyl-N-[1-(2-phenylethyl)piperidin-4-yl]propanamide
Formula: C22H28N2O
Exact mass: 336.22016
SMILES: CCC(=O)N(C1CCN(CC1)CCC2=CC=CC=C2)C3=CC=CC=C3
InChI: InChI=1S/C22H28N2O/c1-2-22(25)24(20-11-7-4-8-12-20)21-14-17-23(18-15-21)16-13-19-9-5-3-6-10-19/h3-12,21H,2,13-18H2,1H3
Instrument: Q Exactive Plus Orbitrap Thermo Scientific
Instrument type: LC-ESI-QFT
Ms type: MS2
Ion mode: POSITIVE
Ionization: ESI
Fragmentation mode: HCD
Collision energy: 60 (nominal)
Resolution: 35000
Column name: XBridge C18 3.5um, 2.1x50mm, Waters
Retention time: 6.0 min
Base peak: 337.2264
Precursor m/z: 337.2274
Precursor type: [M+H]+
m/z	relative intensity	assigned
51.0228	1	C4H3+
53.0385	1	C4H5+
55.0542	9	C4H7+
56.0495	3	C3H6N+
57.0335	13	C3H5O+
67.0542	4	C5H7+
69.0698	11	C5H9+
77.0384	4	C6H5+
79.0542	18	C6H7+
82.065	1	C5H8N+
84.0807	31	C5H10N+
91.0542	7	C7H7+
94.0651	9	C6H8N+
95.049	3	C6H7O+
96.0806	2	C6H10N+
97.0886	1	C6H11N+
103.0542	16	C8H7+
105.0698	999	C8H9+
115.0544	1	C9H7+
117.0572	1	C8H7N+
117.0699	7	C9H9+
118.065	1	C8H8N+
119.0857	2	C9H11+
120.0807	13	C8H10N+
129.0698	2	C10H9+
130.0649	2	C9H8N+
131.0729	1	C9H9N+
132.0807	57	C9H10N+
134.0964	29	C9H12N+
146.0964	39	C10H12N+
150.0914	4	C9H12NO+
160.112	4	C11H14N+
186.1277	11	C13H16N+
188.1433	353	C13H18N+
216.1382	5	C14H18NO+
