Mass spectrum: Triisopropanolamine borate; LC-ESI-QFT; MS2; CE: 60%; R=15000; [M+H]+
Name: Triisopropanolamine borate
Name: 3,7,10-trimethyl-2,8,9-trioxa-5-aza-1-borabicyclo[3.3.3]undecane
Formula: C9H18BNO3
Exact mass: 199.1380
SMILES: B12OC(CN(CC(O1)C)CC(O2)C)C
InChI: InChI=1S/C9H18BNO3/c1-7-4-11-5-8(2)13-10(12-7)14-9(3)6-11/h7-9H,4-6H2,1-3H3
Instrument: Orbitrap Exploris 240 Thermo Scientific
Instrument type: LC-ESI-QFT
Ms type: MS2
Ion mode: POSITIVE
Ionization: ESI
Fragmentation mode: HCD
Collision energy: 60 % (nominal)
Resolution: 15000
Column name: Atlantis C18 3um, 3.0x150mm, Waters
Retention time: 8.524 min
Base peak: 200.145
Precursor m/z: 200.1453
Precursor type: [M+H]+
Precursor intensity: 514897152
m/z	relative intensity	assigned
55.0543	34	C4H7+
56.0495	45	C3H6N+
57.0697	6	C4H9+
58.0651	26	C3H8N+
59.0491	128	C3H7O+
69.0696	14	C5H9+
70.0652	25	C4H8N+
79.0543	13	C6H7+
81.0698	39	C6H9+
96.0808	10	C6H10N+
98.0963	508	C6H12N+
100.0564	51	C3H7BNO2+
102.0719	12	C3H9BNO2+
103.056	35	C3H8BO3+
112.0563	17	C4H7BNO2+
114.0721	65	C4H9BNO2+
124.0927	23	C6H11BNO+
126.0721	17	C5H9BNO2+
140.0876	176	C6H11BNO2+
141.0952	12	C6H12BNO2+
141.1076	10	C7H14BO2+
142.1033	999	C6H13BNO2+
154.1035	6	C7H13BNO2+
156.138	8	C9H18NO+
182.1346	596	C9H17BNO2+
200.1451	149	C9H19BNO3+
