Mass spectrum: Quinalphos; LC-ESI-QFT; MS2; CE: 180%; R=17500; [M+H]+
Name: Quinalphos
Name: diethoxy-quinoxalin-2-yloxy-sulfanylidene-lambda5-phosphane
Formula: C12H15N2O3PS
Exact mass: 298.0541
SMILES: CCOP(=S)(OCC)OC1=NC2=CC=CC=C2N=C1
InChI: InChI=1S/C12H15N2O3PS/c1-3-15-18(19,16-4-2)17-12-9-13-10-7-5-6-8-11(10)14-12/h5-9H,3-4H2,1-2H3
Instrument: Exploris 240 Orbitrap Thermo Scientific
Instrument type: LC-ESI-QFT
Ms type: MS2
Ion mode: POSITIVE
Ionization: ESI
Fragmentation mode: HCD
Collision energy: 180 % (nominal)
Resolution: 17500
Column name: XBridge C18 3.5um, 2.1x50mm, Waters
Retention time: 10.502 min
Base peak: 299.061
Precursor m/z: 299.0614
Precursor type: [M+H]+
m/z	relative intensity	assigned
51.0229	175	C4H3+
62.9631	73	O2P+
64.9787	835	H2O2P+
65.0385	999	C5H5+
75.0229	382	C6H3+
76.0183	137	C5H2N+
77.0387	36	C6H5+
78.9401	470	OPS+
80.9735	29	H2O3P+
92.0494	230	C6H6N+
96.9508	256	H2O2PS+
102.0338	156	C7H4N+
114.9614	66	H4O3PS+
119.0603	126	C7H7N2+
130.0401	82	CH10N2O3S+
