Mass spectrum: Dimethenamid-P; LC-ESI-ITFT; MS2; CE: 75%; R=15000; [M+H]+
Name: Dimethenamid-P
Name: 2-chloranyl-N-(2,4-dimethylthiophen-3-yl)-N-[(2S)-1-methoxypropan-2-yl]ethanamide
Formula: C12H18ClNO2S
Exact mass: 275.0741
SMILES: CC1=CSC(=C1N(C(C)COC)C(=O)CCl)C
InChI: InChI=1S/C12H18ClNO2S/c1-8-7-17-10(3)12(8)14(11(15)5-13)9(2)6-16-4/h7,9H,5-6H2,1-4H3
Instrument: LTQ Orbitrap XL Thermo Scientific
Instrument type: LC-ESI-ITFT
Ms type: MS2
Ion mode: POSITIVE
Ionization: ESI
Fragmentation mode: HCD
Collision energy: 75 % (nominal)
Resolution: 15000
Column name: XBridge C18 3.5um, 2.1x50mm, Waters
Retention time: 10.0 min
Base peak: 276.0826
Precursor m/z: 276.082
Precursor type: [M+H]+
m/z	relative intensity	assigned
58.9949	25	C2H3S+
65.0384	4	C5H5+
67.0541	15	C5H7+
73.0648	76	C4H9O+
76.9788	51	C2H2ClO+
77.0386	15	C6H5+
78.0465	8	C6H6+
79.0542	18	C6H7+
85.0107	8	C4H5S+
91.0542	19	C7H7+
93.0698	23	C7H9+
94.065	44	C6H8N+
95.0729	71	C6H9N+
97.0106	20	C5H5S+
99.0263	41	C5H7S+
101.0418	16	C5H9S+
104.0492	9	C7H6N+
105.0573	16	C7H7N+
106.0653	6	C7H8N+
107.0851	7	C8H11+
108.0807	35	C7H10N+
110.0185	10	C6H6S+
111.0263	786	C6H7S+
112.0218	8	C5H6NS+
112.0341	52	C6H8S+
113.0294	14	C5H7NS+
113.0419	64	C6H9S+
117.0572	14	C8H7N+
117.0698	25	C9H9+
118.0653	10	C8H8N+
119.0728	13	C8H9N+
120.0808	61	C8H10N+
122.0964	15	C8H12N+
123.0262	20	C7H7S+
124.0217	9	C6H6NS+
124.034	42	C7H8S+
125.0294	22	C6H7NS+
125.0419	103	C7H9S+
126.0372	528	C6H8NS+
127.0212	26	C6H7OS+
127.045	62	C6H9NS+
127.0575	38	C7H11S+
128.0528	172	C6H10NS+
129.0367	34	C6H9OS+
134.0964	61	C9H12N+
135.1042	118	C9H13N+
136.0217	11	C7H6NS+
136.0341	10	C8H8S+
137.0293	82	C7H7NS+
138.0371	260	C7H8NS+
139.0449	7	C7H9NS+
139.0577	15	C8H11S+
140.0527	37	C7H10NS+
144.9874	5	C6H6ClS+
149.0421	9	C9H9S+
150.0371	128	C8H8NS+
151.045	32	C8H9NS+
151.0575	109	C9H11S+
152.0163	94	C7H6NOS+
152.0528	336	C8H10NS+
153.0242	203	C7H7NOS+
153.0606	95	C8H11NS+
154.0321	46	C7H8NOS+
154.0683	25	C8H12NS+
158.0365	14	C7H9ClNO+
159.0031	7	C7H8ClS+
166.0321	60	C8H8NOS+
166.0684	56	C9H12NS+
167.0762	87	C9H13NS+
168.0841	999	C9H14NS+
171.9986	10	C7H7ClNS+
174.014	9	C7H9ClNS+
186.0139	85	C8H9ClNS+
202.0088	17	C8H9ClNOS+
203.0166	35	C8H10ClNOS+
204.0239	19	C11H8O2S+
244.0556	123	C11H15ClNOS+
