Mass spectrum: Pantoprazole; LC-ESI-ITFT; MS2; CE: 75%; R=7500; [M+H]+
Name: Pantoprazole
Name: 6-(difluoromethoxy)-2-[(3,4-dimethoxy-2-pyridinyl)methylsulfinyl]-1H-benzimidazole
Formula: C16H15F2N3O4S
Exact mass: 383.0751
SMILES: COC1=C(C(=NC=C1)CS(=O)C2=NC3=C(N2)C=C(C=C3)OC(F)F)OC
InChI: InChI=1S/C16H15F2N3O4S/c1-23-13-5-6-19-12(14(13)24-2)8-26(22)16-20-10-4-3-9(25-15(17)18)7-11(10)21-16/h3-7,15H,8H2,1-2H3,(H,20,21)
Instrument: LTQ Orbitrap XL Thermo Scientific
Instrument type: LC-ESI-ITFT
Ms type: MS2
Ion mode: POSITIVE
Ionization: ESI
Fragmentation mode: HCD
Collision energy: 75 % (nominal)
Resolution: 7500
Column name: XBridge C18 3.5um, 2.1x50mm, Waters
Retention time: 6.6 min
Base peak: 384.0836
Precursor m/z: 384.0824
Precursor type: [M+H]+
m/z	relative intensity	assigned
65.0385	10	FH4N3+
78.0339	3	C5H4N+
92.0494	36	C6H6N+
93.0572	23	C6H7N+
94.0649	27	C6H8N+
106.065	19	C7H8N+
107.0729	74	C7H9N+
108.0443	24	C6H6NO+
110.0061	6	C5H4NS+
110.06	81	C6H8NO+
122.06	72	C7H8NO+
123.068	6	C7H9NO+
124.0755	11	C7H10NO+
125.047	8	C6H7NO2+
135.0551	4	C7H7N2O+
136.0392	208	C7H6NO2+
138.0549	999	C7H8NO2+
139.0085	9	C6H5NOS+
152.0704	105	C8H10NO2+
153.9956	17	C6H4NO2S+
154.0497	61	C5H10F2NS+
156.0114	10	C6H6NO2S+
165.0116	16	C7H5N2OS+
167.0033	38	C7H5NO2S+
168.0648	10	C6H12F2NS+
182.0275	13	C8H8NO2S+
