Mass spectrum: Fipronil-TP RPA 200761; LC-ESI-QFT; MS2; CE: 120%; R=17500; [M-H]-
Name: Fipronil-TP RPA 200761
Name: 5-amino-1-[2,6-dichloro-4-(trifluoromethyl)phenyl]-4-(trifluoromethylsulfinyl)pyrazole-3-carboxylic acid
Formula: C12H5Cl2F6N3O3S
Exact mass: 454.9333
SMILES: NC1=C(C(=NN1C1=C(Cl)C=C(C=C1Cl)C(F)(F)F)C(O)=O)S(=O)C(F)(F)F
InChI: InChI=1S/C12H5Cl2F6N3O3S/c13-4-1-3(11(15,16)17)2-5(14)7(4)23-9(21)8(6(22-23)10(24)25)27(26)12(18,19)20/h1-2H,21H2,(H,24,25)
Instrument: Q Exactive Plus Orbitrap Thermo Scientific
Instrument type: LC-ESI-QFT
Ms type: MS2
Ion mode: NEGATIVE
Ionization: ESI
Fragmentation mode: HCD
Collision energy: 120 % (nominal)
Resolution: 17500
Column name: XBridge C18 3.5um, 2.1x50mm, Waters
Retention time: 8.064 min
Base peak: 453.926
Precursor m/z: 453.926
Precursor type: [M-H]-
m/z	relative intensity	assigned
57.9755	201	CNS-
64.0067	999	C3N2-
65.0145	174	C3HN2-
68.9956	54	CF3-
85.9707	956	C2NOS-
136.0067	159	C9N2-
162.01	178	C7H2F4-
