Mass spectrum: Tembotrione; LC-ESI-QFT; MS2; CE: 75; R=35000; [M+H]+
Name: Tembotrione
Name: 2-{2-Chloro-4-(methylsulfonyl)-3-[(2,2,2-trifluoroethoxy)methyl]benzoyl}-1,3-cyclohexanedione
Formula: C17H16ClF3O6S
Exact mass: 440.03082
SMILES: O=C(c1ccc(c(c1Cl)COCC(F)(F)F)S(=O)(=O)C)C2C(=O)CCCC2=O
InChI: InChI=1S/C17H16ClF3O6S/c1-28(25,26)13-6-5-9(15(18)10(13)7-27-8-17(19,20)21)16(24)14-11(22)3-2-4-12(14)23/h5-6,14H,2-4,7-8H2,1H3
Instrument: Q Exactive Orbitrap Thermo Scientific
Instrument type: LC-ESI-QFT
Ms type: MS2
Ion mode: POSITIVE
Ionization: ESI
Fragmentation mode: HCD
Collision energy: 75 (nominal)
Resolution: 35000
Column name: XBridge C18 3.5um, 2.1x50mm, Waters
Retention time: 9.9 min
Base peak: 458.0644
Precursor m/z: 441.0381
Precursor type: [M+H]+
m/z	relative intensity	assigned
51.0227	2	C4H3+
55.018	19	C3H3O+
62.99	9	CH3OS+
63.0227	2	C5H3+
65.0386	54	C5H5+
66.01	65	C4H2O+
66.0464	41	C5H6+
67.0178	14	C4H3O+
67.0542	9	C5H7+
68.997	9	C3HO2+
75.0228	10	C6H3+
77.0385	9	C6H5+
79.0178	13	C5H3O+
79.0539	2	C6H7+
81.0334	13	C5H5O+
89.0384	25	C7H5+
91.0541	30	C7H7+
92.0256	13	C6H4O+
93.0334	37	C6H5O+
94.0413	30	C6H6O+
95.0127	2	C5H3O2+
95.0491	37	C6H7O+
98.9996	5	C5H4Cl+
102.0463	4	C8H6+
103.0541	15	C8H7+
105.0334	51	C7H5O+
105.0444	3	C6H5N2+
107.0491	13	C7H7O+
108.0206	4	C6H4O2+
109.0283	12	C6H5O2+
110.9997	20	C6H4Cl+
111.0439	9	C6H7O2+
112.0074	19	C6H5Cl+
113.0152	5	C6H6Cl+
115.0541	118	C9H7+
116.0619	15	C9H8+
117.0697	18	C9H9+
118.041	2	C8H6O+
119.049	33	C8H7O+
120.0203	14	C7H4O2+
121.0282	54	C7H5O2+
122.0361	10	C7H6O2+
124.0073	13	C7H5Cl+
125.0152	9	C7H6Cl+
126.9944	88	C6H4ClO+
128.0619	153	C10H8+
129.0697	103	C10H9+
131.0126	5	C8H3O2+
131.049	23	C9H7O+
131.0854	10	C10H11+
132.0205	14	C8H4O2+
133.0283	60	C8H5O2+
137.0152	3	C8H6Cl+
138.023	2	C8H7Cl+
138.031	3	C5H8F2S+
138.9943	134	C7H4ClO+
139.0055	25	C3H7O4S+
139.054	21	C11H7+
140.0021	72	C7H5ClO+
141.01	50	C7H6ClO+
141.0697	94	C11H9+
142.0776	64	C11H10+
143.0491	29	C10H7O+
143.0855	60	C11H11+
144.0568	22	C10H8O+
145.0647	25	C10H9O+
146.0359	5	C9H6O2+
147.0439	47	C9H7O2+
149.0232	88	C8H5O3+
150.023	19	C9H7Cl+
151.0388	67	C6H9F2S+
152.0022	12	C8H5ClO+
152.0618	56	C12H8+
153.01	10	C8H6ClO+
153.0697	85	C12H9+
154.0776	8	C12H10+
154.9891	11	C7H4ClO2+
155.049	13	C11H7O+
155.06	18	C10H7N2+
156.0567	10	C11H8O+
157.0647	249	C11H9O+
158.036	14	C10H6O2+
158.0724	14	C11H10O+
159.0439	5	C10H7O2+
159.0802	4	C11H11O+
163.0308	13	C10H8Cl+
164.0021	12	C9H5ClO+
165.0101	61	C9H6ClO+
165.0543	22	C7H11F2S+
166.0179	13	C9H7ClO+
166.0258	10	C6H8F2OS+
166.9892	231	C8H4ClO2+
167.0336	28	C6H9F2OS+
167.9969	53	C8H5ClO2+
168.0567	15	C12H8O+
169.0048	51	C8H6ClO2+
169.0647	59	C12H9O+
170.0363	5	C11H6O2+
170.0724	33	C12H10O+
171.0439	39	C11H7O2+
171.0803	113	C12H11O+
172.0515	9	C11H8O2+
173.0594	25	C11H9O2+
174.031	13	
175.0306	17	C11H8Cl+
175.0382	3	C8H9F2S+
177.0101	4	C10H6ClO+
177.0464	4	C11H10Cl+
178.0178	325	C10H7ClO+
178.9891	5	C9H4ClO2+
179.0257	51	C10H8ClO+
181.0646	107	C13H9O+
182.0726	13	C13H10O+
182.9841	10	C6H6ClF2S+
183.0443	3	C12H7O2+
183.0802	2	C13H11O+
184.0518	25	C12H8O2+
184.9999	273	C6H8ClF2S+
185.0596	211	C12H9O2+
186.008	9	C8H7ClO3+
186.0311	4	C11H6O3+
186.0673	5	C12H10O2+
187.031	5	C12H8Cl+
187.0391	9	C11H7O3+
187.0757	5	C12H11O2+
188.0465	14	C9H10F2S+
191.0257	75	C11H8ClO+
191.034	8	C10H7O4+
191.9972	5	C10H5ClO2+
192.0335	64	C11H9ClO+
195.0443	11	C13H7O2+
195.0804	11	C14H11O+
196.0517	11	C13H8O2+
197.0595	125	C13H9O2+
198.0674	44	C13H10O2+
199.0388	55	C10H9F2S+
199.0752	103	C13H11O2+
200.0468	3	C12H8O3+
201.0543	11	C10H11F2S+
202.0623	206	C10H12F2S+
203.0254	10	C12H8ClO+
204.0244	3	C5H7F3O5+
204.042	11	C11H8O4+
205.005	19	C11H6ClO2+
205.0416	48	C12H10ClO+
206.0128	52	C11H7ClO2+
206.0496	3	C12H11ClO+
207.0207	23	C11H8ClO2+
209.0597	50	C14H9O2+
210.007	4	C8H9ClF2S+
211.075	20	C14H11O2+
212.0831	21	C14H12O2+
213.0545	193	C11H11F2S+
214.0624	137	
215.0257	58	C13H8ClO+
215.0702	47	C11H13F2S+
216.0338	8	C13H9ClO+
217.0413	9	C13H10ClO+
219.0206	69	C12H8ClO2+
220.0285	118	C12H9ClO2+
223.0751	15	C15H11O2+
224.0471	3	C14H8O3+
225.0544	244	C12H11F2S+
226.0623	26	C12H12F2S+
227.0339	21	C13H7O4+
227.0701	289	C12H13F2S+
230.0571	2	C11H12F2OS+
231.0208	21	C13H8ClO2+
232.0271	39	C11H8ClF3+
232.038	13	C9H9FO6+
233.0363	111	C13H10ClO2+
234.0441	15	C13H11ClO2+
239.0703	10	C15H11O3+
240.0778	42	C13H14F2S+
241.0493	446	C12H11F2OS+
241.0855	114	C13H15F2S+
242.0572	125	C12H12F2OS+
242.0935	73	C13H16F2S+
243.0214	23	C9H11ClF3S+
243.0651	136	
245.0264	16	C13H9O3S+
246.0343	44	C13H10O3S+
246.0522	42	C13H10O5+
259.0158	16	C14H8ClO3+
260.0234	59	C14H9ClO3+
261.0316	59	C14H10ClO3+
262.039	999	C12H13ClF2S+
271.0055	34	C14H7O4S+
273.0222	4	C14H9O4S+
274.9999	3	C13H7O5S+
277.0261	12	C14H10ClO4+
287.0376	3	C15H11O4S+
289.0163	71	C14H9O5S+
290.0241	6	C14H10O5S+
