Mass spectrum: Dehydroepiandrosterone (DHEA); LC-ESI-QFT; MS2; CE: 60; R=35000; [M+H]+
Name: Dehydroepiandrosterone (DHEA)
Name: trans-Dehydroandosterone
Name: (3S,8R,9S,10R,13S,14S)-10,13-dimethyl-3-oxidanyl-1,2,3,4,7,8,9,11,12,14,15,16-dodecahydrocyclopenta[a]phenanthren-17-one
Formula: C19H28O2
Exact mass: 288.20893
SMILES: O=C3[C@]2(CC[C@@H]1[C@@]4(C(=C/C[C@H]1[C@@H]2CC3)\C[C@@H](O)CC4)C)C
InChI: InChI=1S/C19H28O2/c1-18-9-7-13(20)11-12(18)3-4-14-15-5-6-17(21)19(15,2)10-8-16(14)18/h3,13-16,20H,4-11H2,1-2H3/t13-,14-,15-,16-,18-,19-/m0/s1
Instrument: Q Exactive Orbitrap Thermo Scientific
Instrument type: LC-ESI-QFT
Ms type: MS2
Ion mode: POSITIVE
Ionization: ESI
Fragmentation mode: HCD
Collision energy: 60 (nominal)
Resolution: 35000
Column name: XBridge C18 3.5um, 2.1x50mm, Waters
Retention time: 11.2 min
Base peak: 271.2057
Precursor m/z: 289.2162
Precursor type: [M+H]+
m/z	relative intensity	assigned
57.07	2	C4H9+
65.0386	13	C5H5+
67.0542	243	C5H7+
69.0699	89	C5H9+
71.0491	37	C4H7O+
77.0384	10	C6H5+
79.0542	262	C6H7+
81.0699	704	C6H9+
83.0491	33	C5H7O+
83.0855	66	C6H11+
85.0648	14	C5H9O+
91.0542	411	C7H7+
93.0699	326	C7H9+
95.0493	20	C6H7O+
95.0855	244	C7H11+
97.0648	201	C6H9O+
99.0806	3	C6H11O+
103.0542	10	C8H7+
105.0699	498	C8H9+
107.0855	221	C8H11+
109.0648	25	C7H9O+
109.1012	85	C8H13+
111.0803	12	C7H11O+
115.0541	26	C9H7+
116.0619	10	C9H8+
117.0698	230	C9H9+
119.0855	269	C9H11+
121.1011	138	C9H13+
123.0804	22	C8H11O+
123.1169	6	C9H15+
125.0962	4	C8H13O+
128.0621	35	C10H8+
129.0699	207	C10H9+
130.0778	34	C10H10+
131.0856	544	C10H11+
133.1012	681	C10H13+
135.1168	217	C10H15+
137.0963	20	C9H13O+
141.0698	87	C11H9+
142.0778	85	C11H10+
143.0856	335	C11H11+
144.0934	31	C11H12+
145.1012	776	C11H13+
147.1168	335	C11H15+
149.0961	15	C10H13O+
149.1323	18	C11H17+
151.1117	13	C10H15O+
153.0695	4	C12H9+
154.0776	11	C12H10+
155.0855	238	C12H11+
156.0934	66	C12H12+
157.1012	834	C12H13+
158.109	16	C12H14+
159.1168	506	C12H15+
161.0962	23	C11H13O+
161.1324	34	C12H17+
163.1117	28	C11H15O+
167.0855	28	C13H11+
168.0932	42	C13H12+
169.1011	288	C13H13+
170.1092	25	C13H14+
171.1168	612	C13H15+
172.1247	19	C13H16+
173.1325	229	C13H17+
175.1116	21	C12H15O+
175.1483	18	C13H19+
177.1274	4	C12H17O+
181.1013	17	C14H13+
182.1091	110	C14H14+
183.1169	381	C14H15+
184.1247	39	C14H16+
185.1325	261	C14H17+
186.1403	3	C14H18+
187.1482	49	C14H19+
189.1273	5	C13H17O+
189.1639	3	C14H21+
195.1167	24	C15H15+
196.1248	48	C15H16+
197.1324	653	C15H17+
198.1403	93	C15H18+
199.1483	35	C15H19+
201.1276	4	C14H17O+
201.1636	14	C15H21+
203.1432	4	C14H19O+
209.1328	34	C16H17+
210.1403	13	C16H18+
211.1481	242	C16H19+
212.1561	13	C16H20+
213.1638	999	C16H21+
215.1429	13	C15H19O+
223.1482	37	C17H19+
224.1562	31	C17H20+
225.1638	138	C17H21+
227.1796	11	C17H23+
229.1588	22	C16H21O+
231.1739	20	C16H23O+
238.1717	52	C18H22+
251.1787	2	C19H23+
253.1951	197	C19H25+
271.206	11	C19H27O+
