Mass spectrum: Dinoterb; LC-ESI-QFT; MS2; CE: 15; R=35000; [M-H]-
Name: Dinoterb
Name: 2-tert-butyl-4,6-dinitro-phenol
Name: Phenol, 2-(1,1-dimethylethyl)-4,6-dinitro-
Formula: C10H12N2O5
Exact mass: 240.07462
SMILES: [O-][N+](=O)c1cc(cc(c1O)C(C)(C)C)[N+]([O-])=O
InChI: InChI=1S/C10H12N2O5/c1-10(2,3)7-4-6(11(14)15)5-8(9(7)13)12(16)17/h4-5,13H,1-3H3
Instrument: Q Exactive Orbitrap Thermo Scientific
Instrument type: LC-ESI-QFT
Ms type: MS2
Ion mode: NEGATIVE
Ionization: ESI
Fragmentation mode: HCD
Collision energy: 15 (nominal)
Resolution: 35000
Column name: XBridge C18 3.5um, 2.1x50mm, Waters
Retention time: 13.3 min
Base peak: 239.0675
Precursor m/z: 239.0673
Precursor type: [M-H]-
m/z	relative intensity	assigned
176.0351	1	C9H6NO3-
179.0712	1	C10H11O3-
193.0739	1	C10H11NO3-
207.041	8	C9H7N2O4-
209.0695	1	C10H11NO4-
239.0673	999	C10H11N2O5-
