Mass spectrum: Metribuzin-diketo; LC-ESI-ITFT; MS2; CE: 45%; R=7500; [M+H]+
Name: Metribuzin-diketo
Name: 4-amino-6-tert-butyl-2H-1,2,4-triazine-3,5-dione
Formula: C7H12N4O2
Exact mass: 184.0960
SMILES: O=C(NN=C1C(C)(C)C)N(N)C1=O
InChI: InChI=1S/C7H12N4O2/c1-7(2,3)4-5(12)11(8)6(13)10-9-4/h8H2,1-3H3,(H,10,13)
Instrument: LTQ Orbitrap XL Thermo Scientific
Instrument type: LC-ESI-ITFT
Ms type: MS2
Ion mode: POSITIVE
Ionization: ESI
Fragmentation mode: HCD
Collision energy: 45 % (nominal)
Resolution: 7500
Column name: XBridge C18 3.5um, 2.1x50mm, Waters
Retention time: 5.9 min
Base peak: 185.1036
Precursor m/z: 185.1033
Precursor type: [M+H]+
m/z	relative intensity	assigned
57.0699	21	C4H9+
67.0543	5	C5H7+
68.0493	1	C4H6N+
69.0085	2	C2HN2O+
69.0699	26	C5H9+
70.0288	1	C3H4NO+
82.0653	4	C5H8N+
84.0808	9	C5H10N+
96.0442	1	C5H6NO+
97.0761	2	C5H9N2+
99.0917	1	C5H11N2+
101.0346	22	C3H5N2O2+
110.0601	11	C6H8NO+
111.068	12	C6H9NO+
112.0142	10	C3H2N3O2+
114.0422	1	C4H6N2O2+
125.071	10	C6H9N2O+
127.0867	1	C6H11N2O+
140.0814	1	C6H10N3O+
141.066	26	C6H9N2O2+
141.0902	1	C6H11N3O+
142.0735	1	C6H10N2O2+
143.0817	1	C6H11N2O2+
156.0894	23	C7H12N2O2+
157.1085	272	C6H13N4O+
168.0768	1	C7H10N3O2+
169.0721	20	C6H9N4O2+
185.1033	999	C7H13N4O2+
