Mass spectrum: Proquinazid; LC-ESI-QFT; MS2; CE: 45; R=35000; [M+H]+
Name: Proquinazid
Name: 6-Iodo-2-propoxy-3-propylquinazolin-4-one
Formula: C14H17IN2O2
Exact mass: 372.03348
SMILES: CCCN1C(=O)C2=C(C=CC(=C2)I)N=C1OCCC
InChI: InChI=1S/C14H17IN2O2/c1-3-7-17-13(18)11-9-10(15)5-6-12(11)16-14(17)19-8-4-2/h5-6,9H,3-4,7-8H2,1-2H3
Instrument: Q Exactive Plus Orbitrap Thermo Scientific
Instrument type: LC-ESI-QFT
Ms type: MS2
Ion mode: POSITIVE
Ionization: ESI
Fragmentation mode: HCD
Collision energy: 45 (nominal)
Resolution: 35000
Column name: XBridge C18 3.5um, 2.1x50mm, Waters
Retention time: 16.6 min
Base peak: 373.0401
Precursor m/z: 373.0408
Precursor type: [M+H]+
m/z	relative intensity	assigned
119.0367	11	C7H5NO+
137.0473	4	C7H7NO2+
145.0154	3	C8H3NO2+
162.0425	63	C8H6N2O2+
186.079	2	C11H10N2O+
215.9304	9	C6H3IN+
245.9414	6	C7H5INO+
270.9366	38	C8H4IN2O+
271.9205	526	C8H3INO2+
288.947	999	C8H6IN2O2+
289.9304	2	C8H5INO3+
303.9471	5	C9H7INO3+
312.9826	2	C11H10IN2O+
330.9941	92	C11H12IN2O2+
