Mass spectrum: N-Methyl-N-nitrosotoluene-4-sulphonamide (NTOLS); LC-ESI-QFT; MS2; CE: 15; R=70000; [M+H]+
Name: N-Methyl-N-nitrosotoluene-4-sulphonamide (NTOLS)
Name: N,4-dimethyl-N-nitrosobenzenesulfonamide
Formula: C8H10N2O3S
Exact mass: 214.04121
SMILES: O=S(=O)(c1ccc(cc1)C)N(N=O)C
InChI: InChI=1S/C8H10N2O3S/c1-7-3-5-8(6-4-7)14(12,13)10(2)9-11/h3-6H,1-2H3
Instrument: Q Exactive Plus Orbitrap Thermo Scientific
Instrument type: LC-ESI-QFT
Ms type: MS2
Ion mode: POSITIVE
Ionization: ESI
Fragmentation mode: HCD
Collision energy: 15 (nominal)
Resolution: 70000
Column name: XBridge C18 3.5um, 2.1x50mm, Waters
Retention time: 8.3 min
Base peak: 186.0583
Precursor m/z: 215.0485
Precursor type: [M+H]+
m/z	relative intensity	assigned
57.0334	21	C3H5O+
57.0699	153	C4H9+
67.0542	92	C5H7+
69.0699	343	C5H9+
71.0491	23	C4H7O+
71.0855	66	C5H11+
81.0699	136	C6H9+
83.0854	72	C6H11+
85.0647	97	C5H9O+
87.0439	16	C4H7O2+
88.0756	19	C4H10NO+
91.0542	29	C7H7+
93.0698	19	C7H9+
95.0491	84	C6H7O+
95.0855	482	C7H11+
97.0648	67	C6H9O+
99.0439	59	C5H7O2+
99.0804	113	C6H11O+
101.0598	214	C5H9O2+
103.0753	35	C5H11O2+
105.0699	22	C8H9+
107.0854	36	C8H11+
109.0648	36	C7H9O+
111.044	171	C6H7O2+
111.0804	18	C7H11O+
113.0595	26	C6H9O2+
116.0528	40	C5H10NS+
121.0284	250	C7H5O2+
123.0803	23	C8H11O+
125.0594	28	C7H9O2+
127.0753	85	C7H11O2+
129.0546	557	C6H9O3+
141.0005	536	C6H5O2S+
142.0039	739	C7N3O+
145.0511	22	C7H5N4+
147.0653	440	C6H11O4+
155.0702	84	C8H11O3+
158.0271	763	C6H8NO2S+
159.0305	999	C7H3N4O+
169.0273	19	C3H9N2O4S+
183.0223	36	C7H7N2O2S+
189.017	38	C8H3N3O3+
