Mass spectrum: Trinexapac; LC-ESI-ITFT; MS2; CE: 45%; R=15000; [M+H]+
Name: Trinexapac
Name: 4-[Cyclopropyl(hydroxy)methylene]-3,5-dioxocyclohexanecarboxylic acid
Formula: C11H12O5
Exact mass: 224.0685
SMILES: C(C1)C1C(O)=C(C(=O)CC2C(=O)O)C(=O)C2
InChI: InChI=1S/C11H12O5/c12-7-3-6(11(15)16)4-8(13)9(7)10(14)5-1-2-5/h5-6,14H,1-4H2,(H,15,16)/b10-9-
Instrument: LTQ Orbitrap XL Thermo Scientific
Instrument type: LC-ESI-ITFT
Ms type: MS2
Ion mode: POSITIVE
Ionization: ESI
Fragmentation mode: HCD
Collision energy: 45 % (nominal)
Resolution: 15000
Column name: XBridge C18 3.5um, 2.1x50mm, Waters
Retention time: 6.9 min
Base peak: 225.0758
Precursor m/z: 225.0757
Precursor type: [M+H]+
m/z	relative intensity	assigned
67.0179	1	C4H3O+
69.0335	999	C4H5O+
71.0127	13	C3H3O2+
81.0338	3	C5H5O+
81.0697	2	C6H9+
83.0491	8	C5H7O+
85.0284	167	C4H5O2+
93.0336	4	C6H5O+
95.0127	16	C5H3O2+
97.0285	21	C5H5O2+
99.0076	24	C4H3O3+
105.0697	2	C8H9+
107.0492	30	C7H7O+
109.0285	11	C6H5O2+
109.0647	4	C7H9O+
111.044	667	C6H7O2+
113.0233	228	C5H5O3+
121.0397	3	C6H5N2O+
123.0077	77	C6H3O3+
129.0545	10	C6H9O3+
133.0649	9	C9H9O+
137.0233	82	C7H5O3+
137.0597	11	C8H9O2+
139.039	53	C7H7O3+
141.0182	162	C6H5O4+
151.0753	14	C9H11O2+
155.0338	48	C7H7O4+
157.0495	86	C7H9O4+
159.0289	34	C6H7O5+
161.0598	12	C10H9O2+
165.0182	534	C8H5O4+
179.0702	77	C10H11O3+
183.0288	259	C8H7O5+
189.0545	3	C11H9O3+
197.045	2	C9H9O5+
197.0806	10	C10H13O4+
201.0392	14	C8H9O6+
207.0652	48	C11H11O4+
225.0757	175	C11H13O5+
