Mass spectrum: Vildagliptin; LC-ESI-QFT; MS2; CE: 75; R=35000; [M+H]+
Name: Vildagliptin
Name: (2S)-1-[2-[(3-hydroxy-1-adamantyl)amino]-1-oxoethyl]-2-pyrrolidinecarbonitrile
Name: Equa
Formula: C17H25N3O2
Exact mass: 303.19468
SMILES: N#C[C@H]4N(C(=O)CNC13CC2CC(C1)CC(O)(C2)C3)CCC4
InChI: InChI=1S/C17H25N3O2/c18-9-14-2-1-3-20(14)15(21)10-19-16-5-12-4-13(6-16)8-17(22,7-12)11-16/h12-14,19,22H,1-8,10-11H2/t12?,13?,14-,16?,17?/m0/s1
Instrument: Q Exactive Orbitrap Thermo Scientific
Instrument type: LC-ESI-QFT
Ms type: MS2
Ion mode: POSITIVE
Ionization: ESI
Fragmentation mode: HCD
Collision energy: 75 (nominal)
Resolution: 35000
Column name: XBridge C18 3.5um, 2.1x50mm, Waters
Retention time: 2.2 min
Base peak: 304.202
Precursor m/z: 304.202
Precursor type: [M+H]+
m/z	relative intensity	assigned
55.0292	5	C2H3N2+
59.0492	31	C3H7O+
67.0542	14	C5H7+
69.0335	5	C4H5O+
69.0699	1	C5H9+
70.0651	223	C4H8N+
71.0492	1	C4H7O+
77.0385	11	C6H5+
79.0542	22	C6H7+
81.0699	57	C6H9+
83.0492	1	C5H7O+
91.0542	87	C7H7+
93.0699	661	C7H9+
95.0491	330	C6H7O+
97.076	999	C5H9N2+
105.0448	13	C6H5N2+
105.0699	39	C8H9+
107.0856	191	C8H11+
109.0648	91	C7H9O+
109.1011	9	C8H13+
119.0603	1	C7H7N2+
123.1168	9	C9H15+
127.0866	13	C6H11N2O+
133.1012	85	C10H13+
151.1118	154	C10H15O+
154.0976	104	C7H12N3O+
