Mass spectrum: Fenoxycarb; LC-ESI-ITFT; MS2; CE: 45%; R=7500; [M+H]+
Name: Fenoxycarb
Name: N-[2-(4-phenoxyphenoxy)ethyl]carbamic acid ethyl ester
Formula: C17H19NO4
Exact mass: 301.1314
SMILES: O=C(OCC)NCCOc2ccc(Oc1ccccc1)cc2
InChI: InChI=1S/C17H19NO4/c1-2-20-17(19)18-12-13-21-14-8-10-16(11-9-14)22-15-6-4-3-5-7-15/h3-11H,2,12-13H2,1H3,(H,18,19)
Instrument: LTQ Orbitrap XL Thermo Scientific
Instrument type: LC-ESI-ITFT
Ms type: MS2
Ion mode: POSITIVE
Ionization: ESI
Fragmentation mode: HCD
Collision energy: 45 % (nominal)
Resolution: 7500
Column name: XBridge C18 3.5um, 2.1x50mm, Waters
Retention time: 12.6 min
Base peak: 302.1394
Precursor m/z: 302.1387
Precursor type: [M+H]+
m/z	relative intensity	assigned
66.0464	3	C5H6+
70.0287	16	C3H4NO+
72.0807	2	C4H10N+
88.0392	999	C3H6NO2+
91.0543	1	C7H7+
94.0413	10	C6H6O+
107.0489	1	C7H7O+
116.0706	110	C5H10NO2+
118.0416	2	C8H6O+
118.0649	1	C8H8N+
119.0492	3	C8H7O+
119.0728	1	C8H9N+
120.057	8	C8H8O+
129.0703	1	C10H9+
134.0357	1	C8H6O2+
141.0694	1	C11H9+
146.0595	1	C9H8NO+
163.0628	11	C9H9NO2+
167.0851	2	C13H11+
169.065	3	C12H9O+
183.0804	10	C13H11O+
185.0596	12	C12H9O2+
185.0965	3	C13H13O+
186.0673	11	C12H10O2+
187.0753	5	C12H11O2+
195.0804	5	C14H11O+
211.0752	13	C14H11O2+
213.0545	22	C13H9O3+
213.0909	7	C14H13O2+
238.0865	3	C15H12NO2+
256.0967	57	C15H14NO3+
