Mass spectrum: Doxazosin; LC-ESI-QFT; MS2; CE: 90; R=35000; [M-H]-
Name: Doxazosin
Name: [4-(4-amino-6,7-dimethoxyquinazolin-2-yl)piperazin-1-yl]-(2,3-dihydro-1,4-benzodioxin-3-yl)methanone
Formula: C23H25N5O5
Exact mass: 451.18557
SMILES: COC1=C(C=C2C(=C1)C(=NC(=N2)N3CCN(CC3)C(=O)C4COC5=CC=CC=C5O4)N)OC
InChI: InChI=1S/C23H25N5O5/c1-30-18-11-14-15(12-19(18)31-2)25-23(26-21(14)24)28-9-7-27(8-10-28)22(29)20-13-32-16-5-3-4-6-17(16)33-20/h3-6,11-12,20H,7-10,13H2,1-2H3,(H2,24,25,26)
Instrument: Q Exactive Orbitrap Thermo Scientific
Instrument type: LC-ESI-QFT
Ms type: MS2
Ion mode: NEGATIVE
Ionization: ESI
Fragmentation mode: HCD
Collision energy: 90 (nominal)
Resolution: 35000
Column name: XBridge C18 3.5um, 2.1x50mm, Waters
Retention time: 7.2 min
Base peak: 496.1842
Precursor m/z: 450.1783
Precursor type: [M-H]-
m/z	relative intensity	assigned
64.0192	2	C4H2N-
65.0032	5	C4HO-
65.0145	4	C3HN2-
65.0396	3	C5H5-
65.9985	18	C3NO-
66.0097	6	C2N3-
67.0302	219	C3H3N2-
68.0141	1	C3H2NO-
70.0298	4	C3H4NO-
77.0146	7	C4HN2-
80.0268	1	C5H4O-
81.0346	16	C5H5O-
81.0459	47	C4H5N2-
89.9986	1	C5NO-
90.0099	1	C4N3-
90.0349	11	C6H4N-
91.019	20	C6H3O-
91.0302	4	C5H3N2-
92.0506	68	C6H6N-
93.0346	22	C6H5O-
105.0221	2	C6H3NO-
105.0332	1	C5H3N3-
106.0285	18	C4H2N4-
107.0378	26	C6H5NO-
108.0218	135	C6H4O2-
108.0456	166	C6H6NO-
109.0295	999	C6H5O2-
110.0722	1	C5H8N3-
117.0096	1	C6HN2O-
117.046	3	C7H5N2-
118.03	47	C7H4NO-
119.0251	114	C6H3N2O-
120.033	8	C6H4N2O-
120.0456	11	C7H6NO-
121.0295	3	C7H5O2-
121.0409	5	C6H5N2O-
130.0171	10	C7H2N2O-
131.0252	1	C7H3N2O-
132.0331	3	C7H4N2O-
132.0454	5	C8H6NO-
133.0284	1	C6H3N3O-
133.0407	8	C7H5N2O-
134.0248	29	C7H4NO2-
134.0361	1	C6H4N3O-
134.0611	6	C8H8NO-
135.0452	19	C8H7O2-
142.0412	1	C8H4N3-
143.0255	2	C8H3N2O-
144.0203	99	C7H2N3O-
145.0043	3	C7HN2O2-
145.0282	59	C7H3N3O-
145.0406	27	C8H5N2O-
146.0359	10	C7H4N3O-
147.02	43	C7H3N2O2-
148.0277	8	C7H4N2O2-
157.0282	1	C8H3N3O-
157.0519	3	C8H5N4-
158.0121	10	C8H2N2O2-
158.036	6	C8H4N3O-
159.0202	1	C8H3N2O2-
159.0439	4	C8H5N3O-
159.0565	3	C9H7N2O-
159.0678	1	C8H7N4-
160.0516	19	C8H6N3O-
161.0353	1	C8H5N2O2-
161.047	4	C7H5N4O-
171.0439	3	C9H5N3O-
171.0677	1	C9H7N4-
172.0153	17	C8H2N3O2-
172.0516	82	C9H6N3O-
173.0234	3	C8H3N3O2-
173.0355	1	C9H5N2O2-
173.0468	3	C8H5N4O-
173.0592	19	C9H7N3O-
174.0302	1	C8H4N3O2-
174.0546	17	C8H6N4O-
174.0672	4	C9H8N3O-
184.0522	1	C10H6N3O-
185.0469	22	C9H5N4O-
185.0595	2	C10H7N3O-
185.0833	1	C10H9N4-
186.0547	132	C9H6N4O-
187.0392	3	C9H5N3O2-
187.0626	62	C9H7N4O-
188.0341	1	C8H4N4O2-
188.0468	5	C9H6N3O2-
188.0705	8	C9H8N4O-
189.0418	10	C8H5N4O2-
199.0626	7	C10H7N4O-
200.0703	6	C10H8N4O-
201.042	1	C9H5N4O2-
201.0547	5	C10H7N3O2-
201.0784	10	C10H9N4O-
202.0501	5	C9H6N4O2-
211.0627	1	C11H7N4O-
213.0419	21	C10H5N4O2-
213.0783	13	C11H9N4O-
214.0497	69	C10H6N4O2-
215.0575	41	C10H7N4O2-
216.0655	1	C10H8N4O2-
227.0579	1	C11H7N4O2-
228.0654	1	C11H8N4O2-
228.0896	1	C11H10N5O-
229.0735	1	C11H9N4O2-
229.0971	4	C11H11N5O-
230.1047	11	C11H12N5O-
233.0689	3	C10H9N4O3-
241.0734	1	C12H9N4O2-
258.0998	1	C12H12N5O2-
