Mass spectrum: Imatinib; LC-ESI-QFT; MS2; CE: 60; R=35000; [M-H]-
Name: Imatinib
Name: 4-[(4-methylpiperazin-1-yl)methyl]-N-[4-methyl-3-[(4-pyridin-3-ylpyrimidin-2-yl)amino]phenyl]benzamide
Formula: C29H31N7O
Exact mass: 493.25901
SMILES: CC1=C(C=C(C=C1)NC(=O)C2=CC=C(C=C2)CN3CCN(CC3)C)NC4=NC=CC(=N4)C5=CN=CC=C5
InChI: InChI=1S/C29H31N7O/c1-21-5-10-25(18-27(21)34-29-31-13-11-26(33-29)24-4-3-12-30-19-24)32-28(37)23-8-6-22(7-9-23)20-36-16-14-35(2)15-17-36/h3-13,18-19H,14-17,20H2,1-2H3,(H,32,37)(H,31,33,34)
Instrument: Q Exactive Plus Orbitrap Thermo Scientific
Instrument type: LC-ESI-QFT
Ms type: MS2
Ion mode: NEGATIVE
Ionization: ESI
Fragmentation mode: HCD
Collision energy: 60 (nominal)
Resolution: 35000
Column name: XBridge C18 3.5um, 2.1x50mm, Waters
Retention time: 5.8 min
Base peak: 171.0666
Precursor m/z: 492.2517
Precursor type: [M-H]-
m/z	relative intensity	assigned
65.0145	7	C3HN2-
117.0461	2	C7H5N2-
142.041	8	C8H4N3-
143.0617	1	C9H7N2-
144.0567	9	C8H6N3-
145.0646	12	C8H7N3-
146.0726	5	C8H8N3-
147.0564	23	C8H7N2O-
157.0407	28	C9H5N2O-
158.0359	2	C8H4N3O-
169.052	113	C9H5N4-
171.0441	6	C9H5N3O-
171.0565	80	C10H7N2O-
171.0676	27	C9H7N4-
171.0801	39	C10H9N3-
172.0517	93	C9H6N3O-
182.036	1	C10H4N3O-
195.0674	6	C11H7N4-
196.0517	2	C11H6N3O-
198.0672	296	C11H8N3O-
207.08	5	C13H9N3-
209.0833	14	C12H9N4-
222.0924	3	C15H12NO-
234.0673	48	C14H8N3O-
235.099	2	C14H11N4-
237.1034	27	C15H13N2O-
238.1106	1	C15H14N2O-
247.099	5	C15H11N4-
248.083	2	C15H10N3O-
248.1067	28	C15H12N4-
249.0911	1	C15H11N3O-
249.1035	7	C16H13N2O-
258.0913	5	C16H10N4-
259.0987	82	C16H11N4-
260.0941	42	C15H10N5-
262.0992	2	C16H12N3O-
263.1062	3	C16H13N3O-
264.1142	999	C16H14N3O-
273.0783	3	C16H9N4O-
274.1099	47	C16H12N5-
275.0939	141	C16H11N4O-
275.1169	43	C16H13N5-
276.1257	22	C16H14N5-
277.1101	2	C16H13N4O-
285.0781	25	C17H9N4O-
286.0736	2	C16H8N5O-
287.0933	2	C17H11N4O-
288.0888	2	C16H10N5O-
288.1143	5	C18H14N3O-
289.123	1	C18H15N3O-
302.1048	701	C17H12N5O-
314.1175	1	C19H14N4O-
315.1256	8	C19H15N4O-
335.1883	1	C20H23N4O-
350.1532	5	C23H18N4-
351.1229	1	C20H13N7-
362.1976	2	C21H24N5O-
365.1406	8	C23H17N4O-
374.1406	5	C24H16N5-
377.1419	3	C24H17N4O-
378.1358	22	C23H16N5O-
388.2144	3	C23H26N5O-
392.1518	51	C24H18N5O-
393.1594	83	C24H19N5O-
394.1657	1	C24H20N5O-
419.1613	1	C25H19N6O-
421.1795	4	C25H21N6O-
425.1496	29	C22H17N8O2-
465.2414	1	C28H29N6O-
492.252	6	C29H30N7O-
