Mass spectrum: Picolinafen; LC-ESI-QFT; MS2; CE: 90; R=35000; [M+H]+
Name: Picolinafen
Name: N-(4-fluorophenyl)-6-[3-(trifluoromethyl)phenoxy]pyridine-2-carboxamide
Formula: C19H12F4N2O2
Exact mass: 376.08349
SMILES: C1=CC(=CC(=C1)OC2=CC=CC(=N2)C(=O)NC3=CC=C(C=C3)F)C(F)(F)F
InChI: InChI=1S/C19H12F4N2O2/c20-13-7-9-14(10-8-13)24-18(26)16-5-2-6-17(25-16)27-15-4-1-3-12(11-15)19(21,22)23/h1-11H,(H,24,26)
Instrument: Q Exactive Plus Orbitrap Thermo Scientific
Instrument type: LC-ESI-QFT
Ms type: MS2
Ion mode: POSITIVE
Ionization: ESI
Fragmentation mode: HCD
Collision energy: 90 (nominal)
Resolution: 35000
Column name: XBridge C18 3.5um, 2.1x50mm, Waters
Retention time: 15.4 min
Base peak: 279.1583
Precursor m/z: 377.0908
Precursor type: [M+H]+
m/z	relative intensity	assigned
50.0151	1	C4H2+
51.0229	3	C4H3+
53.0022	25	C3HO+
53.9974	5	C2NO+
56.0494	1	C3H6N+
65.026	1	C4H3N+
65.0386	2	C5H5+
66.0338	3	C4H4N+
67.9892	2	C3O2+
71.0291	5	C4H4F+
73.0083	3	C3H2FO+
74.015	4	C6H2+
75.0039	2	C3HF2+
75.0229	37	C6H3+
78.0087	1	C3N3+
79.0178	1	C5H3O+
90.0464	1	C7H6+
93.021	2	C5H3NO+
94.0287	8	C5H4NO+
95.0104	2	C3H2F3+
95.0291	14	C6H4F+
99.004	1	C5HF2+
101.0197	2	C5H3F2+
113.0397	35	C6H6FO+
119.0102	2	C5H2F3+
123.0353	68	C6H4FN2+
125.0197	30	C7H3F2+
126.0274	1	C7H4F2+
132.057	1	C9H8O+
133.0448	19	C9H6F+
139.0354	1	C8H5F2+
140.0494	11	C10H6N+
141.0573	23	C10H7N+
143.0296	5	C10H4F+
145.0259	999	C7H4F3+
150.0339	1	C11H4N+
163.0357	11	C7H6F3O+
164.0433	1	C10H6F2+
168.0447	2	C11H6NO+
169.0518	2	C11H7NO+
170.0401	6	C11H5FN+
170.0524	1	C12H7F+
171.0361	2	C7H5F2N2O+
171.048	1	C11H6FN+
173.0321	41	C7H4F3N2+
178.0395	1	C8H6F4+
181.0457	4	C10H7F2O+
182.0338	9	C10H5F3+
183.0416	40	C10H6F3+
184.0368	2	C9H5F3N+
188.0506	17	C11H7FNO+
189.0385	5	C11H5F2N+
190.0462	63	C11H6F2N+
191.0414	21	C10H5F2N2+
196.0371	1	C10H5F3N+
197.0509	3	C12H6FN2+
198.0461	3	C16H6+
210.0525	23	C11H7F3N+
212.0318	1	C10H5F3NO+
218.0413	7	C12H6F2NO+
219.0416	1	C13H6F3+
238.0474	29	C15H6F2N+
289.0768	1	C18H10FN2O+
