Mass spectrum: Amiodarone; LC-ESI-QFT; MS2; CE: 45; R=35000; [M+H]+
Name: Amiodarone
Name: (2-butyl-1-benzofuran-3-yl)-[4-(2-diethylaminoethyloxy)-3,5-bis(iodanyl)phenyl]methanone
Formula: C25H29I2NO3
Exact mass: 645.02369
SMILES: Ic1cc(cc(I)c1OCCN(CC)CC)C(=O)c2c3ccccc3oc2CCCC
InChI: InChI=1S/C25H29I2NO3/c1-4-7-11-22-23(18-10-8-9-12-21(18)31-22)24(29)17-15-19(26)25(20(27)16-17)30-14-13-28(5-2)6-3/h8-10,12,15-16H,4-7,11,13-14H2,1-3H3
Instrument: Q Exactive Orbitrap Thermo Scientific
Instrument type: LC-ESI-QFT
Ms type: MS2
Ion mode: POSITIVE
Ionization: ESI
Fragmentation mode: HCD
Collision energy: 45 (nominal)
Resolution: 35000
Column name: XBridge C18 3.5um, 2.1x50mm, Waters
Retention time: 14.4 min
Base peak: 646.0309
Precursor m/z: 646.031
Precursor type: [M+H]+
m/z	relative intensity	assigned
58.0652	999	C3H8N+
70.065	1	C4H8N+
72.0808	208	C4H10N+
73.0886	15	C4H11N+
74.0964	6	C4H12N+
86.0964	241	C5H12N+
100.1121	188	C6H14N+
131.0493	6	C9H7O+
159.0441	29	C10H7O2+
171.044	1	C11H7O2+
201.0911	44	C13H13O2+
205.065	2	C15H9O+
221.0597	10	C15H9O2+
231.081	1	C17H11O+
232.0527	1	C16H8O2+
233.0602	6	C16H9O2+
234.0683	6	C16H10O2+
235.0757	4	C16H11O2+
247.0757	5	C17H11O2+
248.0831	9	C17H12O2+
249.0546	5	C16H9O3+
249.0912	5	C17H13O2+
250.0622	1	C16H10O3+
259.0764	2	C18H11O2+
261.0552	1	C17H9O3+
263.07	1	C17H11O3+
263.1072	4	C18H15O2+
272.9408	2	C9H6IO2+
275.0702	13	C18H11O3+
276.0782	34	C18H12O3+
277.0862	8	C18H13O3+
290.0934	8	C19H14O3+
333.95	1	C14H7IO2+
346.9577	6	C15H8IO2+
347.9654	5	C15H9IO2+
358.9577	4	C16H8IO2+
359.9651	1	C16H9IO2+
372.8216	10	C7H3I2O2+
398.8377	3	C9H5I2O2+
460.854	4	C14H7I2O2+
476.0726	5	C22H23INO3+
516.9162	5	C18H15I2O2+
