Mass spectrum: Prednisone; LC-ESI-QFT; MS2; CE: 75; R=35000; [M-H]-
Name: Prednisone
Name: (8S,9S,10R,13S,14S,17R)-17-hydroxy-17-(2-hydroxyacetyl)-10,13-dimethyl-6,7,8,9,12,14,15,16-octahydrocyclopenta[a]phenanthrene-3,11-dione
Formula: C21H26O5
Exact mass: 358.17802
SMILES: O=C(CO)[C@@]3(O)CC[C@H]2[C@@H]4CC\C1=C\C(=O)\C=C/[C@]1(C)[C@H]4C(=O)C[C@@]23C
InChI: InChI=1S/C21H26O5/c1-19-7-5-13(23)9-12(19)3-4-14-15-6-8-21(26,17(25)11-22)20(15,2)10-16(24)18(14)19/h5,7,9,14-15,18,22,26H,3-4,6,8,10-11H2,1-2H3/t14-,15-,18+,19-,20-,21-/m0/s1
Instrument: Q Exactive Orbitrap Thermo Scientific
Instrument type: LC-ESI-QFT
Ms type: MS2
Ion mode: NEGATIVE
Ionization: ESI
Fragmentation mode: HCD
Collision energy: 75 (nominal)
Resolution: 35000
Column name: XBridge C18 3.5um, 2.1x50mm, Waters
Retention time: 7.5 min
Base peak: 403.1766
Precursor m/z: 357.1707
Precursor type: [M-H]-
m/z	relative intensity	assigned
57.0345	138	C3H5O-
59.0138	6	C2H3O2-
69.0346	11	C4H5O-
79.0554	26	C6H7-
80.0268	15	C5H4O-
81.0347	13	C5H5O-
83.0504	15	C5H7O-
91.0553	9	C7H7-
93.0346	11	C6H5O-
93.0711	7	C7H9-
95.0502	161	C6H7O-
97.066	105	C6H9O-
105.071	8	C8H9-
106.0425	15	C7H6O-
107.0503	236	C7H7O-
108.0216	97	C6H4O2-
109.0295	18	C6H5O2-
109.0659	66	C7H9O-
119.05	52	C8H7O-
120.0582	42	C8H8O-
121.0296	32	C7H5O2-
121.0659	416	C8H9O-
122.0374	346	C7H6O2-
123.0452	999	C7H7O2-
123.0816	154	C8H11O-
124.0166	8	C6H4O3-
125.0607	66	C7H9O2-
130.0424	104	C9H6O-
131.0503	9	C9H7O-
133.0659	163	C9H9O-
134.0372	15	C8H6O2-
135.0452	240	C8H7O2-
135.0816	146	C9H11O-
136.0531	94	C8H8O2-
137.0608	178	C8H9O2-
143.0499	45	C10H7O-
144.0579	10	C10H8O-
145.0659	142	C10H9O-
147.045	25	C9H7O2-
147.0814	9	C10H11O-
148.0532	13	C9H8O2-
149.0606	685	C9H9O2-
151.0764	102	C9H11O2-
154.027	7	C7H6O4-
157.0656	15	C11H9O-
159.0448	14	C10H7O2-
159.0815	11	C11H11O-
161.0607	8	C10H9O2-
162.0686	45	C10H10O2-
163.0763	9	C10H11O2-
185.061	8	C12H9O2-
187.0764	28	C12H11O2-
