Mass spectrum: Sulpiride; LC-ESI-QFT; MS2; CE: 90; R=35000; [M-H]-
Name: Sulpiride
Name: Sulpirid
Name: N-[(1-ethyl-2-pyrrolidinyl)methyl]-2-methoxy-5-sulfamoylbenzamide
Formula: C15H23N3O4S
Exact mass: 341.14093
SMILES: CCN1CCCC1CNC(=O)C2=C(C=CC(=C2)S(=O)(=O)N)OC
InChI: InChI=1S/C15H23N3O4S/c1-3-18-8-4-5-11(18)10-17-15(19)13-9-12(23(16,20)21)6-7-14(13)22-2/h6-7,9,11H,3-5,8,10H2,1-2H3,(H,17,19)(H2,16,20,21)
Instrument: Q Exactive Orbitrap Thermo Scientific
Instrument type: LC-ESI-QFT
Ms type: MS2
Ion mode: NEGATIVE
Ionization: ESI
Fragmentation mode: HCD
Collision energy: 90 (nominal)
Resolution: 35000
Column name: XBridge C18 3.5um, 2.1x50mm, Waters
Retention time: 1.7 min
Base peak: 340.1337
Precursor m/z: 340.1337
Precursor type: [M-H]-
m/z	relative intensity	assigned
61.9706	335	NOS-
63.9624	161	O2S-
77.9655	22	NO2S-
78.9734	24	HNO2S-
79.9812	999	H2NO2S-
80.9651	2	HO3S-
91.0189	2	C6H3O-
92.0506	122	C6H6N-
93.0346	13	C6H5O-
93.9604	14	NO3S-
95.0139	1	C5H3O2-
106.0299	2	C6H4NO-
107.0378	1	C6H5NO-
107.0504	1	C7H7O-
108.0455	1	C6H6NO-
120.0455	28	C7H6NO-
139.9938	5	C6H4O2S-
147.0326	1	C8H5NO2-
148.0404	1	C8H6NO2-
156.0125	116	C6H6NO2S-
163.0514	2	C8H7N2O2-
261.1487	1	C14H19N3O2-
