Mass spectrum: Dichlorophen; LC-ESI-QFT; MS2; CE: 30; R=35000; [M-H]-
Name: Dichlorophen
Name: 4-chloro-2-[(5-chloro-2-hydroxyphenyl)methyl]phenol
Formula: C13H10Cl2O2
Exact mass: 268.00578
SMILES: C1=CC(=C(C=C1Cl)CC2=C(C=CC(=C2)Cl)O)O
InChI: InChI=1S/C13H10Cl2O2/c14-10-1-3-12(16)8(6-10)5-9-7-11(15)2-4-13(9)17/h1-4,6-7,16-17H,5H2
Instrument: Q Exactive Plus Orbitrap Thermo Scientific
Instrument type: LC-ESI-QFT
Ms type: MS2
Ion mode: NEGATIVE
Ionization: ESI
Fragmentation mode: HCD
Collision energy: 30 (nominal)
Resolution: 35000
Column name: XBridge C18 3.5um, 2.1x50mm, Waters
Retention time: 12.4 min
Base peak: 266.9982
Precursor m/z: 266.9985
Precursor type: [M-H]-
m/z	relative intensity	assigned
126.9956	999	C6H4ClO-
231.0218	6	C13H8ClO2-
248.9871	2	C13H7Cl2O-
266.9986	834	C13H9Cl2O2-
