Mass spectrum: Eseroline; LC-ESI-QFT; MS2; CE: 15; R=35000; [M+H]+
Name: Eseroline
Name: 1,3a,8-Trimethyl-1,2,3,3a,8,8a-hexahydropyrrolo[2,3-b]indol-5-ol
Name: 3,4,8b-trimethyl-2,3a-dihydro-1H-pyrrolo[2,3-b]indol-7-ol
Formula: C13H18N2O
Exact mass: 218.14191
SMILES: CC12CCN(C1N(C3=C2C=C(C=C3)O)C)C
InChI: InChI=1S/C13H18N2O/c1-13-6-7-14(2)12(13)15(3)11-5-4-9(16)8-10(11)13/h4-5,8,12,16H,6-7H2,1-3H3
Instrument: Q Exactive Plus Orbitrap Thermo Scientific
Instrument type: LC-ESI-QFT
Ms type: MS2
Ion mode: POSITIVE
Ionization: ESI
Fragmentation mode: HCD
Collision energy: 15 (nominal)
Resolution: 35000
Column name: XBridge C18 3.5um, 2.1x50mm, Waters
Retention time: 2.4 min
Base peak: 164.9844
Precursor m/z: 219.1492
Precursor type: [M+H]+
m/z	relative intensity	assigned
55.0542	3	C4H7+
57.0335	1	C3H5O+
57.0699	9	C4H9+
58.0651	3	C3H8N+
59.0491	9	C3H7O+
60.0444	7	C2H6NO+
69.0699	2	C5H9+
71.0491	3	C4H7O+
71.0855	2	C5H11+
81.0699	5	C6H9+
83.0491	2	C5H7O+
83.0856	1	C6H11+
85.0646	1	C5H9O+
87.0441	12	C4H7O2+
89.0597	13	C4H9O2+
91.0543	1	C7H7+
95.0492	1	C6H7O+
95.0855	3	C7H11+
97.0651	1	C6H9O+
99.0441	2	C5H7O2+
99.0805	3	C6H11O+
101.0597	19	C5H9O2+
105.0697	3	C8H9+
107.0857	3	C8H11+
109.0649	1	C7H9O+
109.1013	6	C8H13+
111.044	10	C6H7O2+
113.0597	3	C6H9O2+
119.0857	6	C9H11+
121.1012	3	C9H13+
123.1167	2	C9H15+
132.102	9	C6H14NO2+
133.1011	2	C10H13+
135.0806	3	C9H11O+
135.1165	2	C10H15+
139.0185	2	C10H3O+
145.1013	11	C11H13+
147.1168	1	C11H15+
149.0961	2	C10H13O+
159.0805	1	C11H11O+
159.1168	8	C12H15+
161.0262	11	C12H3N+
161.1326	26	C12H17+
162.055	58	C9H8NO2+
162.0914	999	C10H12NO+
163.0752	2	C10H11O2+
163.1121	2	C11H15O+
163.1479	2	C12H19+
175.0056	11	C12HNO+
175.0417	7	C13H5N+
175.1482	3	C13H19+
176.107	97	C11H14NO+
177.021	2	C12H3NO+
179.0498	2	C13H7O+
186.0786	2	C11H10N2O+
187.0053	27	C13HNO+
188.071	2	C11H10NO2+
188.1071	22	C12H14NO+
191.0004	23	C12HNO2+
191.0364	2	C13H5NO+
191.1431	3	C13H19O+
201.0915	3	C13H13O2+
201.1019	8	C12H13N2O+
203.1427	2	C12H17N3+
