Mass spectrum: Salicylic acid; LC-ESI-QFT; MS2; CE: 60; R=35000; [M+H]+
Name: Salicylic acid
Name: 2-hydroxybenzoic acid
Formula: C7H6O3
Exact mass: 138.03169
SMILES: C1=CC=C(C(=C1)C(=O)O)O
InChI: InChI=1S/C7H6O3/c8-6-4-2-1-3-5(6)7(9)10/h1-4,8H,(H,9,10)
Instrument: Q Exactive Plus Orbitrap Thermo Scientific
Instrument type: LC-ESI-QFT
Ms type: MS2
Ion mode: POSITIVE
Ionization: ESI
Fragmentation mode: HCD
Collision energy: 60 (nominal)
Resolution: 35000
Column name: XBridge C18 3.5um, 2.1x50mm, Waters
Retention time: 6.4 min
Base peak: 391.2837
Precursor m/z: 139.039
Precursor type: [M+H]+
m/z	relative intensity	assigned
53.0386	2	C4H5+
55.0179	3	C3H3O+
55.0543	5	C4H7+
65.0386	79	C5H5+
67.0543	4	C5H7+
69.0335	17	C4H5O+
79.0542	5	C6H7+
83.0492	9	C5H7O+
91.0542	3	C7H7+
93.0336	33	C6H5O+
93.0448	3	C5H5N2+
95.0492	5	C6H7O+
98.0362	4	C5H6O2+
105.0449	1	C6H5N2+
111.0442	28	C6H7O2+
121.0285	999	C7H5O2+
121.0397	91	C6H5N2O+
122.0475	2	C6H6N2O+
139.0391	11	C7H7O3+
