Mass spectrum: Boscalid; LC-ESI-ITFT; MS2; CE: 75%; R=15000; [M+H]+
Name: Boscalid
Name: 2-chloranyl-N-[2-(4-chlorophenyl)phenyl]pyridine-3-carboxamide
Formula: C18H12Cl2N2O
Exact mass: 342.0327
SMILES: c1ccc(c(c1)c2ccc(cc2)Cl)NC(=O)c3cccnc3Cl
InChI: InChI=1S/C18H12Cl2N2O/c19-13-9-7-12(8-10-13)14-4-1-2-6-16(14)22-18(23)15-5-3-11-21-17(15)20/h1-11H,(H,22,23)
Instrument: LTQ Orbitrap XL Thermo Scientific
Instrument type: LC-ESI-ITFT
Ms type: MS2
Ion mode: POSITIVE
Ionization: ESI
Fragmentation mode: HCD
Collision energy: 75 % (nominal)
Resolution: 15000
Column name: XBridge C18 3.5um, 2.1x50mm, Waters
Retention time: 10.5 min
Base peak: 343.0412
Precursor m/z: 343.0399
Precursor type: [M+H]+
m/z	relative intensity	assigned
76.0183	12	C5H2N+
78.034	215	C5H4N+
94.0289	34	C5H4NO+
96.0445	145	C5H6NO+
111.995	245	C5H3ClN+
112.0393	21	C2H9ClN2O+
113.0028	12	C5H4ClN+
114.0106	64	C5H5ClN+
130.0055	48	C5H5ClNO+
139.9899	170	C6H3ClNO+
140.0012	10	C8N2O+
140.0495	12	C10H6N+
144.9927	6	C2H7Cl2N2O+
152.0622	49	C12H8+
166.0523	2	C11H6N2+
167.0605	17	C11H7N2+
167.0734	2	C12H9N+
168.0685	5	C11H8N2+
177.0575	29	C13H7N+
179.0736	2	C13H9N+
189.0701	6	C15H9+
190.0651	2	C14H8N+
195.0554	5	C12H7N2O+
195.0679	3	C13H9NO+
196.0633	15	C12H8N2O+
199.0305	1	C13H8Cl+
199.0541	1	C16H7+
201.0706	3	C16H9+
202.0658	2	C15H8N+
202.0779	18	C16H10+
203.0731	12	C15H9N+
204.081	12	C15H10N+
212.0263	11	C13H7ClN+
214.0424	3	C13H9ClN+
214.0662	2	C16H8N+
215.0732	4	C16H9N+
216.081	35	C16H10N+
217.0888	36	C16H11N+
218.0841	7	C15H10N2+
218.0961	4	C16H12N+
225.0457	2	C15H10Cl+
225.0565	2	C17H7N+
226.0653	16	C17H8N+
227.0731	65	C17H9N+
228.0688	4	C16H8N2+
228.0809	56	C17H10N+
229.0762	12	C16H9N2+
229.0887	37	C17H11N+
230.0371	6	C10H12Cl2N2+
230.0594	2	C16H8NO+
238.0419	19	C15H9ClN+
240.0578	5	C15H11ClN+
241.0754	2	C17H9N2+
242.084	108	C17H10N2+
243.0919	277	C17H11N2+
244.0769	12	C17H10NO+
244.0996	127	C17H12N2+
245.0709	10	C16H9N2O+
245.0838	11	C17H11NO+
246.079	5	C16H10N2O+
251.0498	2	C16H10ClN+
252.0682	19	C18H8N2+
253.0762	157	C18H9N2+
254.0841	177	C18H10N2+
255.0925	4	C18H11N2+
257.0711	6	C17H9N2O+
258.078	2	C17H10N2O+
262.0419	19	C17H9ClN+
263.037	10	C16H8ClN2+
264.0575	17	C17H11ClN+
269.071	10	C18H9N2O+
270.079	60	C18H10N2O+
271.0869	999	C18H11N2O+
272.0946	617	C18H12N2O+
277.0526	4	C17H10ClN2+
278.0601	6	C17H11ClN2+
279.0684	5	C17H12ClN2+
280.0516	2	C17H11ClNO+
286.0738	2	C18H10N2O2+
288.0441	3	C18H9ClN2+
289.0528	110	C18H10ClN2+
290.0377	2	C15H12Cl2N2+
305.0477	18	C18H10ClN2O+
306.0554	13	C18H11ClN2O+
307.0635	69	C18H12ClN2O+
