Mass spectrum: 4,5-Dichloro-2-n-octyl-3(2H)-isothiazolone (DCOIT); LC-ESI-ITFT; MS2; CE: 90%; R=7500; [M+H]+
Name: 4,5-Dichloro-2-n-octyl-3(2H)-isothiazolone (DCOIT)
Name: 3(2H)-Isothiazolone, 4,5-dichloro-2-octyl-
Name: 4,5-bis(chloranyl)-2-octyl-1,2-thiazol-3-one
Formula: C11H17Cl2NOS
Exact mass: 281.0402
SMILES: O=c1c(Cl)c(Cl)sn1CCCCCCCC
InChI: InChI=1S/C11H17Cl2NOS/c1-2-3-4-5-6-7-8-14-11(15)9(12)10(13)16-14/h2-8H2,1H3
Instrument: LTQ Orbitrap XL Thermo Scientific
Instrument type: LC-ESI-ITFT
Ms type: MS2
Ion mode: POSITIVE
Ionization: ESI
Fragmentation mode: HCD
Collision energy: 90 % (nominal)
Resolution: 7500
Column name: XBridge C18 3.5um, 2.1x50mm, Waters
Retention time: 15.3 min
Base peak: 282.0485
Precursor m/z: 282.0481
Precursor type: [M+H]+
m/z	relative intensity	assigned
57.0698	165	C4H9+
59.9901	27	CH2NS+
78.9405	59	CClS+
82.9449	116	CHCl2+
90.9402	31	C2ClS+
91.9484	24	C2HClS+
107.9403	61	C2Cl2N+
122.9399	24	C3HCl2O+
126.917	176	C2HCl2S+
134.9539	533	C3H2ClNOS+
151.9122	96	C3Cl2NS+
169.9227	999	C3H2Cl2NOS+
