Mass spectrum: Cymiazole; LC-ESI-QFT; MS2; CE: 90%; R=17500; [M+H]+
Name: Cymiazole
Name: N-(2,4-dimethylphenyl)-3-methyl-1,3-thiazol-2-imine
Formula: C12H14N2S
Exact mass: 218.0878
SMILES: CC1=CC(=C(C=C1)N=C2N(C=CS2)C)C
InChI: InChI=1S/C12H14N2S/c1-9-4-5-11(10(2)8-9)13-12-14(3)6-7-15-12/h4-8H,1-3H3
Instrument: Exploris 240 Orbitrap Thermo Scientific
Instrument type: LC-ESI-QFT
Ms type: MS2
Ion mode: POSITIVE
Ionization: ESI
Fragmentation mode: HCD
Collision energy: 90 % (nominal)
Resolution: 17500
Column name: XBridge C18 3.5um, 2.1x50mm, Waters
Retention time: 4.141 min
Base peak: 219.095
Precursor m/z: 219.095
Precursor type: [M+H]+
m/z	relative intensity	assigned
56.0494	29	C3H6N+
58.9951	95	C2H3S+
61.0106	37	C2H5S+
72.0031	47	C3H4S+
72.9982	46	C2H3NS+
77.0386	107	C6H5+
79.0542	193	C6H7+
86.006	83	C3H4NS+
88.0215	180	C3H6NS+
91.0545	86	C7H7+
93.0699	99	C7H9+
100.0215	417	C4H6NS+
103.0545	162	C8H7+
105.0448	49	C6H5N2+
105.0699	840	C8H9+
114.0251	42	C4H6N2S+
117.0577	83	C8H7N+
118.0649	29	C8H8N+
119.0857	36	C9H11+
120.0809	667	C8H10N+
130.0653	261	C9H8N+
131.073	418	C9H9N+
132.0812	62	C9H10N+
142.0653	44	C10H8N+
143.0729	331	C10H9N+
144.0809	999	C10H10N+
145.0762	47	C9H9N2+
156.0681	203	C10H8N2+
162.0372	100	C9H8NS+
163.045	92	C9H9NS+
164.0532	50	C9H10NS+
171.0919	789	C11H11N2+
176.0527	55	C10H10NS+
177.0607	75	C10H11NS+
187.045	50	C11H9NS+
188.0535	114	C11H10NS+
189.0482	194	C10H9N2S+
203.0642	267	C11H11N2S+
219.0952	233	C12H15N2S+
