Mass spectrum: Flumequine; LC-ESI-QFT; MS2; CE: 120; R=35000; [M+H]+
Name: Flumequine
Name: 9-Fluoro-5-methyl-1-oxo-6,7-dihydro-1H,5H-pyrido[3,2,1-ij]quinoline-2-carboxylic acid
Formula: C14H12FNO3
Exact mass: 261.08012
SMILES: CC1CCC2=C3N1C=C(C(=O)C3=CC(=C2)F)C(=O)O
InChI: InChI=1S/C14H12FNO3/c1-7-2-3-8-4-9(15)5-10-12(8)16(7)6-11(13(10)17)14(18)19/h4-7H,2-3H2,1H3,(H,18,19)
Instrument: Q Exactive Plus Orbitrap Thermo Scientific
Instrument type: LC-ESI-QFT
Ms type: MS2
Ion mode: POSITIVE
Ionization: ESI
Fragmentation mode: HCD
Collision energy: 120 (nominal)
Resolution: 35000
Column name: XBridge C18 3.5um, 2.1x50mm, Waters
Retention time: 7.3 min
Base peak: 262.0868
Precursor m/z: 262.0874
Precursor type: [M+H]+
m/z	relative intensity	assigned
50.0151	16	C4H2+
51.0229	11	C4H3+
52.0182	6	C3H2N+
53.0022	161	C3HO+
55.0179	1	C3H3O+
55.0542	2	C4H7+
57.0134	1	C3H2F+
63.0229	4	C5H3+
65.0386	4	C5H5+
71.0292	6	C4H4F+
74.015	10	C6H2+
75.0229	277	C6H3+
76.0181	37	C5H2N+
77.0021	94	C5HO+
77.0385	7	C6H5+
79.0179	1	C5H3O+
83.0291	5	C5H4F+
86.0152	1	C7H2+
89.0386	167	C7H5+
93.0135	8	C6H2F+
94.0212	1	C6H3F+
95.0292	23	C6H4F+
95.0492	2	C6H7O+
96.037	19	C6H5F+
97.0322	1	C5H4FN+
98.015	21	C8H2+
99.0229	332	C8H3+
100.0181	307	C7H2N+
101.0386	1	C8H5+
102.0338	60	C7H4N+
105.0449	1	C6H5N2+
107.0291	13	C7H4F+
108.0369	3	C7H5F+
109.0448	38	C7H6F+
113.0397	30	C6H6FO+
114.0349	4	C5H5FNO+
115.0543	3	C9H7+
116.0495	41	C8H6N+
117.0336	4	C8H5O+
118.0287	31	C7H4NO+
119.0292	125	C8H4F+
120.0245	48	C7H3FN+
120.037	79	C8H5F+
121.0322	7	C7H4FN+
121.0448	1	C8H6F+
122.0401	9	C7H5FN+
123.024	6	C7H4FO+
123.0353	59	C6H4FN2+
125.0386	1	C10H5+
126.0338	710	C9H4N+
127.0417	1	C9H5N+
128.0493	1	C9H6N+
128.062	4	C10H8+
129.0447	5	C8H5N2+
129.0699	2	C10H9+
130.029	7	C8H4NO+
130.04	10	C7H4N3+
131.0291	15	C9H4F+
132.037	5	C9H5F+
133.0448	45	C9H6F+
134.0401	4	C8H5FN+
134.0526	5	C9H7F+
135.0478	5	C8H6FN+
137.0398	18	C8H6FO+
138.035	43	C7H5FNO+
140.0494	8	C10H6N+
143.0366	1	C9H5NO+
144.0445	160	C9H6NO+
145.0323	26	C9H4FN+
146.0401	531	C9H5FN+
147.0353	219	C8H4FN2+
147.0478	57	C9H6FN+
148.031	4	C12H4+
148.0556	14	C9H7FN+
150.0348	1	C8H5FNO+
152.0497	3	C11H6N+
154.04	999	C9H4N3+
155.037	7	C10H5NO+
155.0606	1	C10H7N2+
158.0401	33	C10H5FN+
158.0603	5	C10H8NO+
159.0478	26	C10H6FN+
160.0554	5	C10H7FN+
161.0636	12	C10H8FN+
162.0351	1	C9H5FNO+
164.0506	41	C9H7FNO+
170.0401	4	C11H5FN+
171.0478	3	C11H6FN+
172.0557	62	C11H7FN+
173.0509	1	C10H6FN2+
173.0636	2	C11H8FN+
174.035	342	C10H5FNO+
176.0507	10	C10H7FNO+
178.0301	8	C9H5FNO2+
186.0353	7	C11H5FNO+
188.0506	2	C11H7FNO+
192.0457	11	C10H7FNO2+
200.0506	21	C12H7FNO+
200.0873	1	C13H11FN+
202.0299	69	C11H5FNO2+
206.0613	4	C11H9FNO2+
220.0405	75	C11H7FNO3+
232.0404	3	C12H7FNO3+
234.0568	1	C12H9FNO3+
238.051	18	C14H8NO3+
