Mass spectrum: N,N-Dimethyl-N'-p-tolylsulphamide; LC-ESI-ITFT; MS2; CE: 35%; R=7500; [M+H]+
Name: N,N-Dimethyl-N'-p-tolylsulphamide
Name: 1-(dimethylsulfamoylamino)-4-methyl-benzene
Formula: C9H14N2O2S
Exact mass: 214.0776
SMILES: O=S(=O)(Nc1ccc(C)cc1)N(C)C
InChI: InChI=1S/C9H14N2O2S/c1-8-4-6-9(7-5-8)10-14(12,13)11(2)3/h4-7,10H,1-3H3
Instrument: LTQ Orbitrap XL Thermo Scientific
Instrument type: LC-ESI-ITFT
Ms type: MS2
Ion mode: POSITIVE
Ionization: ESI
Fragmentation mode: CID
Collision energy: 35 % (nominal)
Resolution: 7500
Column name: XBridge C18 3.5um, 2.1x50mm, Waters
Retention time: 7.5 min
Base peak: 237.0675
Precursor m/z: 215.0849
Precursor type: [M+H]+
m/z	relative intensity	assigned
77.0389	1	C6H5+
79.0541	4	C6H7+
92.0165	3	C2H6NOS+
106.0652	635	C7H8N+
107.073	53	C7H9N+
108.0808	49	C7H10N+
136.0994	15	C8H12N2+
151.1231	999	C9H15N2+
