Mass spectrum: Chlorthal-dimethyl; LC-ESI-QFT; MS2; CE: 90; R=35000; [M+H]+
Name: Chlorthal-dimethyl
Name: Dimethyl 2,3,5,6-tetrachloroterephthalate
Name: Dimethyl 2,3,5,6-tetrachlorobenzene-1,4-dicarboxylate
Formula: C10H6Cl4O4
Exact mass: 329.90202
SMILES: COC(=O)C1=C(C(=C(C(=C1Cl)Cl)C(=O)OC)Cl)Cl
InChI: InChI=1S/C10H6Cl4O4/c1-17-9(15)3-5(11)7(13)4(10(16)18-2)8(14)6(3)12/h1-2H3
Instrument: Q Exactive Plus Orbitrap Thermo Scientific
Instrument type: LC-ESI-QFT
Ms type: MS2
Ion mode: POSITIVE
Ionization: ESI
Fragmentation mode: HCD
Collision energy: 90 (nominal)
Resolution: 35000
Column name: XBridge C18 3.5um, 2.1x50mm, Waters
Retention time: 13.4 min
Base peak: 245.1745
Precursor m/z: 330.9093
Precursor type: [M+H]+
m/z	relative intensity	assigned
53.0022	2	C3HO+
55.0543	7	C4H7+
62.9632	1	CClO+
65.0387	1	C5H5+
67.0543	7	C5H7+
79.0543	6	C6H7+
83.0492	1	C5H7O+
86.9634	2	C3ClO+
91.0543	8	C7H7+
95.0492	2	C6H7O+
98.9843	999	CH4ClO3+
102.9582	1	C3ClO2+
106.9451	3	C3HCl2+
117.9373	7	C4Cl2+
129.9373	2	C5Cl2+
130.9451	4	C5HCl2+
140.9061	6	C3Cl3+
141.9373	5	C6Cl2+
142.9453	2	C6HCl2+
152.9062	18	C4Cl3+
156.9609	11	C7H3Cl2+
164.9062	103	C5Cl3+
166.9217	6	C5H2Cl3+
172.9673	2	C6H3Cl2N2+
174.9351	3	C6HCl2O2+
174.9797	1	C6H4ClO4+
176.9061	3	C6Cl3+
177.9141	6	C6HCl3+
178.9217	1	C6H2Cl3+
179.9297	9	C6H3Cl3+
190.922	2	C7H2Cl3+
193.9088	2	C6HCl3O+
199.8752	2	C5Cl4+
204.9013	2	C7Cl3O+
211.875	2	C6Cl4+
212.8828	7	C6HCl4+
220.8961	92	C7Cl3O2+
227.87	20	C6Cl4O+
240.8777	4	C7HCl4O+
240.8891	11	C6HCl4N2+
255.8648	7	C7Cl4O2+
270.8883	2	C8H3Cl4O2+
271.86	2	C7Cl4O3+
