Mass spectrum: Olanzapine; LC-ESI-QFT; MS2; CE: 15; R=35000; [M+H]+
Name: Olanzapine
Name: 2-methyl-4-(4-methylpiperazin-1-yl)-5H-thieno[3,2-c][1,5]benzodiazepine
Formula: C17H20N4S
Exact mass: 312.14087
SMILES: CC1=CC2=C(NC3=CC=CC=C3N=C2S1)N4CCN(CC4)C
InChI: InChI=1S/C17H20N4S/c1-12-11-13-16(21-9-7-20(2)8-10-21)18-14-5-3-4-6-15(14)19-17(13)22-12/h3-6,11,18H,7-10H2,1-2H3
Instrument: Q Exactive Plus Orbitrap Thermo Scientific
Instrument type: LC-ESI-QFT
Ms type: MS2
Ion mode: POSITIVE
Ionization: ESI
Fragmentation mode: HCD
Collision energy: 15 (nominal)
Resolution: 35000
Column name: XBridge C18 3.5um, 2.1x50mm, Waters
Retention time: 3.1 min
Base peak: 313.1474
Precursor m/z: 313.1481
Precursor type: [M+H]+
m/z	relative intensity	assigned
84.0807	3	C5H10N+
230.0757	1	C12H12N3S+
256.09	13	C14H14N3S+
313.148	999	C17H21N4S+
