Mass spectrum: Fenthion-sulfoxide; LC-ESI-QFT; MS2; CE: 30; R=35000; [M+H]+
Name: Fenthion-sulfoxide
Name: Mesulfenos
Name: O,O-Dimethyl O-[3-methyl-4-(methylsulfinyl)phenyl] phosphorothioate
Formula: C10H15O4PS2
Exact mass: 294.01494
SMILES: CC1=C(C=CC(=C1)OP(=S)(OC)OC)S(=O)C
InChI: InChI=1S/C10H15O4PS2/c1-8-7-9(5-6-10(8)17(4)11)14-15(16,12-2)13-3/h5-7H,1-4H3
Instrument: Q Exactive Plus Orbitrap Thermo Scientific
Instrument type: LC-ESI-QFT
Ms type: MS2
Ion mode: POSITIVE
Ionization: ESI
Fragmentation mode: HCD
Collision energy: 30 (nominal)
Resolution: 35000
Column name: XBridge C18 3.5um, 2.1x50mm, Waters
Retention time: 7.4 min
Base peak: 295.0216
Precursor m/z: 295.0222
Precursor type: [M+H]+
m/z	relative intensity	assigned
79.0542	1	C6H7+
91.0542	2	C7H7+
93.0099	3	C2H6O2P+
104.062	20	C8H8+
105.0699	41	C8H9+
107.0492	2	C7H7O+
109.0051	6	C2H6O3P+
111.0262	2	C6H7S+
121.0648	4	C8H9O+
122.0726	1	C8H10O+
123.0263	2	C7H7S+
124.9818	9	C2H6O2PS+
125.0421	1	C7H9S+
127.0155	42	C2H8O4P+
134.0185	1	C8H6S+
135.0264	3	C8H7S+
136.0342	7	C8H8S+
136.052	1	C8H8O2+
137.042	7	C8H9S+
138.0135	6	C7H6OS+
138.0499	2	C8H10S+
139.0213	11	C7H7OS+
141.9851	1	C2H7O3PS+
142.9928	11	C2H8O3PS+
152.9826	6	C7H5S2+
153.0369	7	C8H9OS+
153.9906	21	C7H6S2+
154.0447	19	C8H10OS+
165.9906	1	C8H6S2+
166.9985	5	C8H7S2+
168.0605	2	C9H12OS+
169.0139	7	C8H9S2+
169.9855	4	C7H6OS2+
170.0219	38	C8H10S2+
170.9933	1	C7H7OS2+
185.009	3	C8H9OS2+
186.0165	3	C8H10OS2+
199.0519	7	C9H12O3P+
200.0058	8	C8H9O2PS+
201.0404	75	C9H13OS2+
216.0548	1	C9H13O4P+
217.0088	2	C8H10O3PS+
217.0627	11	C9H14O4P+
219.0244	2	C8H12O3PS+
229.0086	1	C9H10O3PS+
231.0241	2	C9H12O3PS+
231.9779	6	C8H9O2PS2+
232.0319	117	C9H13O3PS+
233.0397	23	C9H14O3PS+
245.0395	3	C10H14O3PS+
245.9933	1	C9H11O2PS2+
246.9647	5	C8H8O3PS2+
247.0193	4	C9H12O4PS+
247.973	4	C8H9O3PS2+
249.9876	3	C8H11O3PS2+
261.9883	49	C9H11O3PS2+
262.9961	38	C9H12O3PS2+
264.004	223	C9H13O3PS2+
264.975	3	C8H10O4PS2+
265.9824	1	C8H11O4PS2+
277.0114	2	C10H14O3PS2+
278.0197	204	C10H15O3PS2+
279.9988	999	C9H13O4PS2+
281.0066	8	C9H14O4PS2+
295.0223	736	C10H16O4PS2+
