Mass spectrum: Dinoseb; LC-ESI-ITFT; MS2; CE: 90%; R=30000; [M-H]-
Name: Dinoseb
Name: 2,4-dinitro-6-sec-butyl-phenol
Formula: C10H12N2O5
Exact mass: 240.0746
SMILES: OC1=C([N+]([O-])=O)C=C([N+]([O-])=O)C=C1C(C)CC
InChI: InChI=1S/C10H12N2O5/c1-3-6(2)8-4-7(11(14)15)5-9(10(8)13)12(16)17/h4-6,13H,3H2,1-2H3
Instrument: LTQ Orbitrap XL Thermo Scientific
Instrument type: LC-ESI-ITFT
Ms type: MS2
Ion mode: NEGATIVE
Ionization: ESI
Fragmentation mode: HCD
Collision energy: 90 % (nominal)
Resolution: 30000
Column name: XBridge C18 3.5um, 2.1x50mm, Waters
Retention time: 13.0 min
Base peak: 239.0673
Precursor m/z: 239.0673
Precursor type: [M-H]-
m/z	relative intensity	assigned
121.029	65	C7H5O2-
126.0116	22	C9H2O-
134.0246	999	C7H4NO2-
136.0399	54	C7H6NO2-
148.0406	41	C8H6NO2-
149.0241	69	C8H5O3-
150.0561	43	C8H8NO2-
151.077	38	C9H11O2-
162.0195	157	C8H4NO3-
164.0475	54	C9H8O3-
176.0348	117	C9H6NO3-
177.0426	46	C9H7NO3-
178.0511	60	C9H8NO3-
192.0673	57	C10H10NO3-
193.0252	355	C8H5N2O4-
194.0458	102	C9H8NO4-
207.0407	37	C9H7N2O4-
209.0202	110	C8H5N2O5-
239.0671	39	C10H11N2O5-
