Mass spectrum: Benzoylecgonine; LC-ESI-ITFT; MS2; CE: 60%; R=15000; [M+H]+
Name: Benzoylecgonine
Name: 3-benzoyloxy-8-methyl-8-azabicyclo[3.2.1]octane-4-carboxylic acid
Formula: C16H19NO4
Exact mass: 289.1314
SMILES: CN1C2CCC1C(C(C2)OC(=O)C3=CC=CC=C3)C(=O)O
InChI: InChI=1S/C16H19NO4/c1-17-11-7-8-12(17)14(15(18)19)13(9-11)21-16(20)10-5-3-2-4-6-10/h2-6,11-14H,7-9H2,1H3,(H,18,19)
Instrument: LTQ Orbitrap XL Thermo Scientific
Instrument type: LC-ESI-ITFT
Ms type: MS2
Ion mode: POSITIVE
Ionization: ESI
Fragmentation mode: HCD
Collision energy: 60 % (nominal)
Resolution: 15000
Column name: XBridge C18 3.5um, 2.1x50mm, Waters
Retention time: 4.6 min
Base peak: 290.1395
Precursor m/z: 290.1387
Precursor type: [M+H]+
m/z	relative intensity	assigned
65.0386	5	C5H5+
67.0543	19	C5H7+
68.0495	18	C4H6N+
77.0386	61	C6H5+
79.0541	5	C6H7+
81.0698	16	C6H9+
82.0652	243	C5H8N+
83.0492	8	C5H7O+
83.073	46	C5H9N+
84.0807	12	C5H10N+
91.0542	108	C7H7+
93.0699	57	C7H9+
94.065	21	C6H8N+
96.0807	32	C6H10N+
100.0756	43	C5H10NO+
105.0335	879	C7H5O+
108.0807	24	C7H10N+
109.0651	8	C7H9O+
119.0492	130	C8H7O+
122.0964	89	C8H12N+
124.1121	80	C8H14N+
132.0808	23	C9H10N+
135.068	13	C8H9NO+
140.0705	24	C7H10NO2+
150.0914	152	C9H12NO+
168.1019	999	C9H14NO2+
272.1284	7	C16H18NO3+
