Mass spectrum: Fensulfothion; LC-ESI-QFT; MS2; CE: 150%; R=17500; [M+H]+
Name: Fensulfothion
Name: diethoxy-(4-methylsulfinylphenoxy)-sulfanylidene-lambda5-phosphane
Formula: C11H17O4PS2
Exact mass: 308.0306
SMILES: CCOP(=S)(OCC)OC1=CC=C(C=C1)S(=O)C
InChI: InChI=1S/C11H17O4PS2/c1-4-13-16(17,14-5-2)15-10-6-8-11(9-7-10)18(3)12/h6-9H,4-5H2,1-3H3
Instrument: Exploris 240 Orbitrap Thermo Scientific
Instrument type: LC-ESI-QFT
Ms type: MS2
Ion mode: POSITIVE
Ionization: ESI
Fragmentation mode: HCD
Collision energy: 150 % (nominal)
Resolution: 17500
Column name: XBridge C18 3.5um, 2.1x50mm, Waters
Retention time: 7.188 min
Base peak: 309.0377
Precursor m/z: 309.0379
Precursor type: [M+H]+
m/z	relative intensity	assigned
51.0229	34	C4H3+
53.0386	156	C4H5+
62.9631	68	O2P+
64.9788	310	H2O2P+
65.0386	451	C5H5+
66.0464	627	C5H6+
67.0543	83	C5H7+
68.9794	76	C3HS+
69.9872	72	C3H2S+
70.9949	37	C3H3S+
77.0385	201	C6H5+
78.0465	63	C6H6+
78.9402	217	OPS+
80.9736	116	H2O3P+
81.0336	266	C5H5O+
84.003	53	C4H4S+
85.0108	53	C4H5S+
94.0413	999	C6H6O+
94.9952	76	C5H3S+
95.0492	41	C6H7O+
96.0029	111	C5H4S+
96.9507	299	H2O2PS+
97.0106	481	C5H5S+
98.9842	155	H4O4P+
108.0028	282	C6H4S+
109.0108	116	C6H5S+
110.0185	227	C6H6S+
113.0056	86	C5H5OS+
114.9613	67	H4O3PS+
125.0056	729	C6H5OS+
139.0217	76	C7H7OS+
139.9752	53	C6H4S2+
140.0292	68	C7H8OS+
140.983	204	C6H5S2+
141.0006	76	C6H5O2S+
