Mass spectrum: Aspartame; LC-ESI-ITFT; MS2; CE: 75%; R=7500; [M+H]+
Name: Aspartame
Name: 3-amino-4-[(1-benzyl-2-keto-2-methoxy-ethyl)amino]-4-keto-butyric acid
Formula: C14H18N2O5
Exact mass: 294.1216
SMILES: COC(=O)C(CC1=CC=CC=C1)NC(=O)C(CC(=O)O)N
InChI: InChI=1S/C14H18N2O5/c1-21-14(20)11(7-9-5-3-2-4-6-9)16-13(19)10(15)8-12(17)18/h2-6,10-11H,7-8,15H2,1H3,(H,16,19)(H,17,18)/t10-,11-/m0/s1
Instrument: LTQ Orbitrap XL Thermo Scientific
Instrument type: LC-ESI-ITFT
Ms type: MS2
Ion mode: POSITIVE
Ionization: ESI
Fragmentation mode: HCD
Collision energy: 75 % (nominal)
Resolution: 7500
Column name: XBridge C18 3.5um, 2.1x50mm, Waters
Retention time: 4.8 min
Base peak: 295.1297
Precursor m/z: 295.1288
Precursor type: [M+H]+
m/z	relative intensity	assigned
70.0288	39	C3H4NO+
77.0389	5	C6H5+
88.0393	69	C3H6NO2+
91.0542	150	C7H7+
93.0699	16	C7H9+
98.0237	6	C4H4NO2+
103.0542	99	C8H7+
117.0702	4	C9H9+
118.0649	6	C8H8N+
119.0733	3	C8H9N+
120.0808	999	C8H10N+
121.0648	101	C8H9O+
129.0697	12	C10H9+
130.0651	63	C9H8N+
135.0805	6	C9H11O+
144.0807	28	C10H10N+
147.0912	9	C9H11N2+
154.0651	14	C11H8N+
155.0608	3	C10H7N2+
157.0644	6	C11H9O+
172.0755	16	C11H10NO+
175.0871	4	C10H11N2O+
182.0604	19	C12H8NO+
200.0703	7	C12H10NO2+
