Mass spectrum: Noscapine; LC-ESI-QFT; MS2; CE: 60; R=35000; [M+H]+
Name: Noscapine
Name: (-)-Noscapine
Name: 6,7-dimethoxy-3-(4-methoxy-6-methyl-7,8-dihydro-5H-[1,3]dioxol[4,5-g]isoquinolin-5-yl)phthalide
Formula: C22H23NO7
Exact mass: 413.14745
SMILES: CN1CCC2=CC3=C(C(=C2[C@@H]1[C@@H]4C5=C(C(=C(C=C5)OC)OC)C(=O)O4)OC)OCO3
InChI: InChI=1S/C22H23NO7/c1-23-8-7-11-9-14-20(29-10-28-14)21(27-4)15(11)17(23)18-12-5-6-13(25-2)19(26-3)16(12)22(24)30-18/h5-6,9,17-18H,7-8,10H2,1-4H3/t17-,18+/m1/s1
Instrument: Q Exactive Orbitrap Thermo Scientific
Instrument type: LC-ESI-QFT
Ms type: MS2
Ion mode: POSITIVE
Ionization: ESI
Fragmentation mode: HCD
Collision energy: 60 (nominal)
Resolution: 35000
Column name: XBridge C18 3.5um, 2.1x50mm, Waters
Retention time: 5.4 min
Base peak: 414.1545
Precursor m/z: 414.1547
Precursor type: [M+H]+
m/z	relative intensity	assigned
91.0541	18	C7H7+
93.0697	5	C7H9+
95.0489	1	C6H7O+
103.054	6	C8H7+
119.049	7	C8H7O+
121.0646	34	C8H9O+
131.049	5	C9H7O+
132.0569	2	C9H8O+
133.0646	4	C9H9O+
134.0362	4	C8H6O2+
135.0437	1	C8H7O2+
136.0517	1	C8H8O2+
137.0595	1	C8H9O2+
148.0756	1	C9H10NO+
149.0596	7	C9H9O2+
151.0751	2	C9H11O2+
160.0516	2	C10H8O2+
161.0595	4	C10H9O2+
162.0908	2	C10H12NO+
163.0387	3	C9H7O3+
164.0466	5	C9H8O3+
165.0545	18	C9H9O3+
165.0694	1	C13H9+
174.0552	1	C10H8NO2+
175.0629	2	C10H9NO2+
176.0462	1	C10H8O3+
176.0705	4	C10H10NO2+
177.0546	8	C10H9O3+
177.0781	2	C10H11NO2+
178.0775	1	C14H10+
179.07	61	C10H11O3+
188.0465	5	C11H8O3+
188.0704	1	C11H10NO2+
189.0544	6	C11H9O3+
189.0693	1	C15H9+
190.0626	2	C11H10O3+
190.0777	1	C15H10+
190.0859	4	C11H12NO2+
191.0575	13	C10H9NO3+
191.0699	11	C11H11O3+
191.0852	1	C15H11+
192.0565	1	C14H8O+
192.0653	1	C10H10NO3+
193.0492	17	C10H9O4+
193.064	1	C14H9O+
194.0724	4	C14H10O+
195.08	1	C14H11O+
196.0884	1	C14H12O+
203.0574	11	C11H9NO3+
204.0568	1	C15H8O+
204.0653	24	C11H10NO3+
205.0732	387	C11H11NO3+
206.0729	7	C15H10O+
206.081	139	C11H12NO3+
207.0803	5	C15H11O+
208.0883	2	C15H12O+
209.059	2	C14H9O2+
209.0959	2	C15H13O+
210.0675	1	C14H10O2+
217.0498	1	C12H9O4+
217.0645	2	C16H9O+
218.0721	5	C16H10O+
218.0813	27	C12H12NO3+
219.0799	8	C16H11O+
219.089	18	C12H13NO3+
220.0966	999	C12H14NO3+
221.0595	8	C15H9O2+
221.0958	2	C16H13O+
222.0668	6	C15H10O2+
223.0747	5	C15H11O2+
224.0829	9	C15H12O2+
225.0904	1	C15H13O2+
232.0517	2	C16H8O2+
233.0596	10	C16H9O2+
234.0673	24	C16H10O2+
235.075	15	C16H11O2+
236.0827	10	C16H12O2+
237.0544	17	C15H9O3+
237.091	5	C16H13O2+
238.0623	1	C15H10O3+
239.0704	8	C15H11O3+
239.1065	4	C16H15O2+
244.0518	1	C17H8O2+
245.0597	2	C17H9O2+
246.0675	11	C17H10O2+
247.075	14	C17H11O2+
248.0465	6	C16H8O3+
248.0827	6	C17H12O2+
249.0543	27	C16H9O3+
249.0906	16	C17H13O2+
250.0625	8	C16H10O3+
251.0701	27	C16H11O3+
252.0781	24	C16H12O3+
253.0857	7	C16H13O3+
254.0936	5	C16H14O3+
255.0652	1	C15H11O4+
260.0466	1	C17H8O3+
260.0825	1	C18H12O2+
261.054	15	C17H9O3+
262.0622	38	C17H10O3+
263.0701	41	C17H11O3+
264.0777	40	C17H12O3+
265.0492	46	C16H9O4+
265.0856	21	C17H13O3+
266.0577	1	C16H10O4+
266.0937	7	C17H14O3+
267.065	15	C16H11O4+
267.1015	19	C17H15O3+
269.08	2	C16H13O4+
269.117	2	C17H17O3+
274.0618	14	C18H10O3+
275.07	21	C18H11O3+
276.0415	2	C17H8O4+
276.078	17	C18H12O3+
277.0492	28	C17H9O4+
277.086	20	C18H13O3+
278.0571	15	C17H10O4+
278.0938	4	C18H14O3+
279.065	47	C17H11O4+
279.1013	6	C18H15O3+
280.0727	152	C17H12O4+
281.0806	29	C17H13O4+
282.0882	12	C17H14O4+
283.0599	2	C16H11O5+
285.0759	1	C16H13O5+
289.0494	13	C18H9O4+
289.0857	1	C19H13O3+
290.0571	19	C18H10O4+
291.065	42	C18H11O4+
292.0726	40	C18H12O4+
293.0442	13	C17H9O5+
293.0806	33	C18H13O4+
294.0527	1	C17H10O5+
294.0765	1	C17H12NO4+
294.0888	14	C18H14O4+
295.0599	46	C17H11O5+
295.0961	112	C18H15O4+
296.1039	6	C18H16O4+
297.0752	13	C17H13O5+
297.1124	4	C18H17O4+
298.0842	1	C17H14O5+
302.0569	16	C19H10O4+
303.0654	8	C19H11O4+
304.0726	12	C19H12O4+
305.0447	10	C18H9O5+
305.0807	30	C19H13O4+
306.0519	49	C18H10O5+
306.0886	7	C19H14O4+
307.0597	112	C18H11O5+
307.0965	7	C19H15O4+
308.0676	32	C18H12O5+
308.1044	5	C19H16O4+
309.0755	48	C18H13O5+
310.0831	55	C18H14O5+
311.0556	1	C17H11O6+
311.091	2	C18H15O5+
312.0985	10	C18H16O5+
313.1072	1	C18H17O5+
317.0437	2	C19H9O5+
319.0598	33	C19H11O5+
320.0675	14	C19H12O5+
320.0914	5	C19H14NO4+
321.0757	22	C19H13O5+
322.0836	61	C19H14O5+
323.0549	36	C18H11O6+
323.0912	112	C19H15O5+
324.0993	13	C19H16O5+
325.07	4	C18H13O6+
325.1067	40	C19H17O5+
332.0686	9	C20H12O5+
333.0754	5	C20H13O5+
334.0835	25	C20H14O5+
334.1043	2	C17H18O7+
335.055	25	C19H11O6+
335.0904	4	C20H15O5+
336.0854	3	C19H14NO5+
337.0705	33	C19H13O6+
338.0784	36	C19H14O6+
338.1018	8	C19H16NO5+
340.0931	1	C19H16O6+
348.0863	6	C20H14NO5+
349.0709	4	C20H13O6+
350.0785	25	C20H14O6+
350.0992	3	C17H18O8+
351.0735	6	C19H13NO6+
352.0936	7	C20H16O6+
352.118	9	C20H18NO5+
353.1014	48	C20H17O6+
365.1024	2	C21H17O6+
366.0969	40	C20H16NO6+
380.1117	1	C21H18NO6+
381.1204	1	C21H19NO6+
