Mass spectrum: Minocycline; LC-ESI-QFT; MS2; CE: 90; R=35000; [M-H]-
Name: Minocycline
Name: Minocin
Name: (4S,4aS,5aR,12aS)-4,7-Bis(dimethylamino)-3,10,12,12a-tetrahydroxy-1,11-dioxo-1,4,4a,5,5a,6,11,12a-octahydro-2-tetracenecarboxamide
Formula: C23H27N3O7
Exact mass: 457.18490
SMILES: [H][C@@]12CC3=C(C(O)=CC=C3N(C)C)C(=O)C1=C(O)[C@]1(O)C(=O)C(C(N)=O)=C(O)[C@@H](N(C)C)[C@]1([H])C2
InChI: InChI=1S/C23H27N3O7/c1-25(2)12-5-6-13(27)15-10(12)7-9-8-11-17(26(3)4)19(29)16(22(24)32)21(31)23(11,33)20(30)14(9)18(15)28/h5-6,9,11,17,27,29-30,33H,7-8H2,1-4H3,(H2,24,32)/t9-,11-,17-,23-/m0/s1
Instrument: Q Exactive Plus Orbitrap Thermo Scientific
Instrument type: LC-ESI-QFT
Ms type: MS2
Ion mode: NEGATIVE
Ionization: ESI
Fragmentation mode: HCD
Collision energy: 90 (nominal)
Resolution: 35000
Column name: XBridge C18 3.5um, 2.1x50mm, Waters
Retention time: 3.6 min
Base peak: 456.1772
Precursor m/z: 456.1776
Precursor type: [M-H]-
m/z	relative intensity	assigned
50.0035	9	C3N-
55.0189	2	C3H3O-
63.024	79	C5H3-
64.0193	2	C4H2N-
65.0032	25	C4HO-
65.0396	7	C5H5-
65.9985	82	C3NO-
67.0189	3	C4H3O-
68.0142	12	C3H2NO-
68.9982	37	C3HO2-
71.0138	2	C3H3O2-
78.0349	3	C5H4N-
79.0189	9	C5H3O-
81.022	6	C4H3NO-
81.0345	2	C5H5O-
83.0136	1	C4H3O2-
84.0091	90	C3H2NO2-
86.0247	5	C3H4NO2-
90.0349	2	C6H4N-
91.0189	10	C6H3O-
93.0345	16	C6H5O-
95.0138	16	C5H3O2-
96.0091	69	C4H2NO2-
96.993	8	C4HO3-
107.0139	21	C6H3O2-
107.0502	10	C7H7O-
108.0218	6	C6H4O2-
109.0294	42	C6H5O2-
117.0343	2	C8H5O-
118.0297	5	C7H4NO-
119.0138	35	C7H3O2-
120.0456	2	C7H6NO-
121.0293	7	C7H5O2-
121.0533	5	C7H7NO-
122.0247	7	C6H4NO2-
123.0452	8	C7H7O2-
124.0041	1	C5H2NO3-
124.0404	1	C6H6NO2-
125.0242	1	C6H5O3-
125.0721	1	C6H9N2O-
126.0196	7	C5H4NO3-
126.056	25	C6H8NO2-
131.0374	2	C8H5NO-
132.0453	3	C8H6NO-
134.0247	68	C7H4NO2-
134.061	11	C8H8NO-
135.0087	79	C7H3O3-
135.0689	26	C8H9NO-
136.0401	9	C7H6NO2-
137.0242	11	C7H5O3-
138.0198	1	C6H4NO3-
138.0316	2	C7H6O3-
139.0149	110	C5H3N2O3-
144.0454	14	C9H6NO-
145.0295	11	C9H5O2-
146.0247	2	C8H4NO2-
146.0611	11	C9H8NO-
147.0323	2	C8H5NO2-
149.0356	3	C7H5N2O2-
150.0198	9	C7H4NO3-
150.0922	1	C9H12NO-
152.0353	2	C7H6NO3-
154.0383	1	C6H6N2O3-
156.0456	2	C10H6NO-
157.0533	1	C10H7NO-
158.0244	2	C9H4NO2-
158.0373	3	C10H6O2-
158.0612	6	C10H8NO-
159.0324	1	C9H5NO2-
159.0451	10	C10H7O2-
160.0404	61	C9H6NO2-
161.0244	2	C9H5O3-
162.0197	35	C8H4NO3-
163.0036	11	C8H3O4-
163.0276	7	C8H5NO3-
164.0117	1	C8H4O4-
164.0356	2	C8H6NO3-
166.066	1	C12H8N-
171.0691	8	C11H9NO-
172.0404	999	C10H6NO2-
173.0481	335	C10H7NO2-
174.0561	12	C10H8NO2-
176.0351	1	C9H6NO3-
177.0305	14	C8H5N2O3-
182.0609	6	C12H8NO-
184.0403	15	C11H6NO2-
185.0479	3	C11H7NO2-
186.056	188	C11H8NO2-
187.0637	85	C11H9NO2-
188.0353	16	C10H6NO3-
188.0716	146	C11H10NO2-
190.0508	26	C10H8NO3-
194.0611	19	C13H8NO-
195.0446	8	C13H7O2-
196.0402	2	C12H6NO2-
196.0533	5	C13H8O2-
196.0762	1	C13H10NO-
197.0484	6	C12H7NO2-
197.0609	3	C13H9O2-
198.0559	21	C12H8NO2-
199.0639	9	C12H9NO2-
200.0717	33	C12H10NO2-
201.043	5	C11H7NO3-
201.0796	5	C12H11NO2-
202.0512	2	C11H8NO3-
202.0873	7	C12H12NO2-
203.059	9	C11H9NO3-
206.0608	2	C14H8NO-
207.0692	1	C14H9NO-
208.0406	1	C13H6NO2-
208.0526	2	C14H8O2-
208.0768	3	C14H10NO-
209.0484	11	C13H7NO2-
209.0608	9	C14H9O2-
210.056	51	C13H8NO2-
211.0401	8	C13H7O3-
211.0639	14	C13H9NO2-
212.0719	30	C13H10NO2-
214.051	70	C12H8NO3-
214.0874	12	C13H12NO2-
215.0587	31	C12H9NO3-
219.0688	2	C15H9NO-
220.041	1	C14H6NO2-
220.0766	12	C15H10NO-
221.0486	10	C14H7NO2-
222.0557	29	C14H8NO2-
223.0403	10	C14H7O3-
223.0638	25	C14H9NO2-
224.0479	22	C14H8O3-
224.0717	67	C14H10NO2-
225.0432	13	C13H7NO3-
225.0557	14	C14H9O3-
225.0794	10	C14H11NO2-
226.0509	6	C13H8NO3-
226.0872	21	C14H12NO2-
227.0353	2	C13H7O4-
227.0588	27	C13H9NO3-
228.0669	12	C13H10NO3-
230.0823	17	C13H12NO3-
234.056	17	C15H8NO2-
235.064	13	C15H9NO2-
236.0715	56	C15H10NO2-
237.0435	31	C14H7NO3-
237.0557	6	C15H9O3-
237.0793	17	C15H11NO2-
238.0509	254	C14H8NO3-
238.087	44	C15H12NO2-
239.0587	29	C14H9NO3-
239.0948	6	C15H13NO2-
240.0673	14	C14H10NO3-
240.103	3	C15H14NO2-
241.051	5	C14H9O4-
241.075	5	C14H11NO3-
242.0822	57	C14H12NO3-
243.0898	5	C14H13NO3-
246.0564	9	C16H8NO2-
247.0638	12	C16H9NO2-
248.0715	31	C16H10NO2-
249.0432	8	C15H7NO3-
249.0793	5	C16H11NO2-
250.0509	48	C15H8NO3-
250.0868	12	C16H12NO2-
251.0589	34	C15H9NO3-
252.0666	244	C15H10NO3-
253.0383	17	C14H7NO4-
253.0744	60	C15H11NO3-
254.0459	78	C14H8NO4-
254.082	30	C15H12NO3-
255.0536	85	C14H9NO4-
255.09	8	C15H13NO3-
256.0978	2	C15H14NO3-
258.0564	2	C17H8NO2-
258.114	2	C15H16NO3-
259.0628	1	C17H9NO2-
260.0718	17	C17H10NO2-
261.0551	1	C17H9O3-
262.0505	10	C16H8NO3-
262.087	10	C17H12NO2-
263.0588	10	C16H9NO3-
263.0709	2	C17H11O3-
264.066	30	C16H10NO3-
265.051	3	C16H9O4-
265.0742	30	C16H11NO3-
266.0455	12	C15H8NO4-
266.0821	51	C16H12NO3-
267.0531	13	C15H9NO4-
267.0903	6	C16H13NO3-
268.0614	58	C15H10NO4-
268.0975	10	C16H14NO3-
269.0698	8	C15H11NO4-
270.0771	80	C15H12NO4-
271.0852	7	C15H13NO4-
274.0513	9	C17H8NO3-
275.0587	2	C17H9NO3-
276.0666	11	C17H10NO3-
277.0749	2	C17H11NO3-
278.046	17	C16H8NO4-
278.0822	21	C17H12NO3-
280.0614	9	C16H10NO4-
280.0985	5	C17H14NO3-
282.0767	15	C16H12NO4-
284.0932	2	C16H14NO4-
285.1011	1	C16H15NO4-
286.1091	1	C16H16NO4-
287.0595	2	C18H9NO3-
288.0664	15	C18H10NO3-
289.0756	2	C18H11NO3-
290.0456	7	C17H8NO4-
290.082	12	C18H12NO3-
291.0535	2	C17H9NO4-
292.0615	18	C17H10NO4-
294.0414	7	C16H8NO5-
294.0775	2	C17H12NO4-
296.057	3	C16H10NO5-
304.062	9	C18H10NO4-
305.069	5	C18H11NO4-
306.077	14	C18H12NO4-
308.0569	6	C17H10NO5-
310.072	1	C17H12NO5-
316.0633	1	C22H8N2O-
