Mass spectrum: Sulfentrazon; LC-ESI-QFT; MS2; CE: 180; R=35000; [M+H]+
Name: Sulfentrazon
Name: N-(2,4-dichloro-5-(4-(difluoromethyl)-4,5-dihydro-3-methyl-5-oxo-1H-1,2,4-triazol-1-yl)phenyl)methanesulfonamide
Name: N-[2,4-dichloro-5-[4-(difluoromethyl)-3-methyl-5-oxo-1,2,4-triazol-1-yl]phenyl]methanesulfonamide
Formula: C11H10Cl2F2N4O3S
Exact mass: 385.98187
SMILES: O=S(=O)(Nc2c(Cl)cc(Cl)c(N1/N=C(\N(C1=O)C(F)F)C)c2)C
InChI: InChI=1S/C11H10Cl2F2N4O3S/c1-5-16-19(11(20)18(5)10(14)15)9-4-8(17-23(2,21)22)6(12)3-7(9)13/h3-4,10,17H,1-2H3
Instrument: Q Exactive Plus Orbitrap Thermo Scientific
Instrument type: LC-ESI-QFT
Ms type: MS2
Ion mode: POSITIVE
Ionization: ESI
Fragmentation mode: HCD
Collision energy: 180 (nominal)
Resolution: 35000
Column name: XBridge C18 3.5um, 2.1x50mm, Waters
Retention time: 7.4 min
Base peak: 386.989
Precursor m/z: 386.9891
Precursor type: [M+H]+
m/z	relative intensity	assigned
50.0151	7	C4H2+
51.0041	3	CHF2+
51.0103	2	C3HN+
52.0182	32	C3H2N+
53.0022	8	C3HO+
53.9975	2	C2NO+
55.0179	2	C3H3O+
56.0369	1	C2H4N2+
58.0088	1	C2HFN+
59.9761	8	C2HCl+
60.984	18	C2H2Cl+
61.0073	7	C5H+
61.9792	278	CHClN+
62.9632	13	CClO+
63.0103	10	C4HN+
63.0229	11	C5H3+
64.0182	35	C4H2N+
65.0022	16	C4HO+
65.026	5	C4H3N+
65.0386	1	C5H5+
66.01	4	C4H2O+
66.0212	2	C3H2N2+
66.0338	7	C4H4N+
66.9745	1	CHClF+
67.0291	7	C3H3N2+
68.013	2	C3H2NO+
68.0243	4	C2H2N3+
70.9683	7	C3Cl+
71.9761	5	C3HCl+
72.9839	52	C3H2Cl+
73.9792	6	C2HClN+
74.0038	4	C2HFNO+
74.015	2	C6H2+
75.0103	999	C5HN+
76.0181	497	C5H2N+
77.0133	11	C4HN2+
77.0259	18	C5H3N+
77.9973	3	C4NO+
78.0338	11	C5H4N+
81.9371	2	CCl2+
82.0287	2	C4H4NO+
82.9449	34	CHCl2+
83.9761	103	C4HCl+
84.9839	109	C4H2Cl+
85.9792	45	C3HClN+
86.9632	2	C3ClO+
87.0103	4	C6HN+
87.9949	3	C3H3ClN+
88.0182	10	C6H2N+
89.0385	8	C7H5+
89.9975	16	C5NO+
90.0105	1	C3H5ClN+
90.0338	2	C6H4N+
90.0464	1	C7H6+
91.0053	8	C5HNO+
91.0291	4	C5H3N2+
91.0417	1	C6H5N+
92.0369	6	C5H4N2+
94.0288	3	C5H4NO+
95.9761	3	C5HCl+
96.984	5	C5H2Cl+
97.9792	61	C4HClN+
98.987	1	C4H2ClN+
98.9996	1	C5H4Cl+
99.9949	10	C4H3ClN+
100.0056	61	C6N2+
101.0134	59	C6HN2+
103.0291	7	C6H3N2+
105.0447	2	C6H5N2+
105.9372	4	C3Cl2+
106.945	16	C3HCl2+
107.9402	2	C2Cl2N+
108.9714	20	C5ClN+
109.9792	230	C5HClN+
110.9871	1	C5H2ClN+
111.9948	50	C5H3ClN+
112.99	1	C4H2ClN2+
118.945	9	C4HCl2+
119.024	2	C6H3N2O+
127.9897	8	C5H3ClNO+
130.0054	5	C5H5ClNO+
139.0057	3	C6H4ClN2+
147.9716	1	C5H4Cl2N+
154.0165	1	C6H5ClN3+
