Mass spectrum: Metoclopramide; LC-ESI-ITFT; MS2; CE: 60%; R=15000; [M+H]+
Name: Metoclopramide
Name: 4-amino-5-chloro-N-(2-diethylaminoethyl)-2-methoxy-benzamide
Formula: C14H22ClN3O2
Exact mass: 299.1401
SMILES: c1(cc(C(=O)NCCN(CC)CC)c(cc1N)OC)Cl
InChI: InChI=1S/C14H22ClN3O2/c1-4-18(5-2)7-6-17-14(19)10-8-11(15)12(16)9-13(10)20-3/h8-9H,4-7,16H2,1-3H3,(H,17,19)
Instrument: LTQ Orbitrap XL Thermo Scientific
Instrument type: LC-ESI-ITFT
Ms type: MS2
Ion mode: POSITIVE
Ionization: ESI
Fragmentation mode: HCD
Collision energy: 60 % (nominal)
Resolution: 15000
Column name: XBridge C18 3.5um, 2.1x50mm, Waters
Retention time: 4.3 min
Base peak: 300.1485
Precursor m/z: 300.1473
Precursor type: [M+H]+
m/z	relative intensity	assigned
93.0571	1	C6H7N+
100.1121	28	C6H14N+
126.0106	4	C9H2O+
128.0263	4	C6H7ClN+
140.9976	11	C6H4ClNO+
147.0554	3	C8H7N2O+
148.0632	9	C8H8N2O+
154.0046	3	C10H2O2+
156.0211	22	C7H7ClNO+
168.0084	16	C7H5ClN2O+
168.9921	8	C7H4ClNO2+
183.032	263	C8H8ClN2O+
184.0161	999	C8H7ClNO2+
211.0273	2	C9H8ClN2O2+
212.0347	254	C9H9ClN2O2+
227.0582	921	C10H12ClN2O2+
