Mass spectrum: Timolol; LC-ESI-QFT; MS2; CE: 90; R=35000; [M+H]+
Name: Timolol
Name: 1-(tert-butylamino)-3-[(4-morpholin-4-yl-1,2,5-thiadiazol-3-yl)oxy]propan-2-ol
Formula: C13H24N4O3S
Exact mass: 316.15691
SMILES: CC(C)(C)NCC(O)COC1=NSN=C1N1CCOCC1
InChI: InChI=1S/C13H24N4O3S/c1-13(2,3)14-8-10(18)9-20-12-11(15-21-16-12)17-4-6-19-7-5-17/h10,14,18H,4-9H2,1-3H3
Instrument: Q Exactive Plus Orbitrap Thermo Scientific
Instrument type: LC-ESI-QFT
Ms type: MS2
Ion mode: POSITIVE
Ionization: ESI
Fragmentation mode: HCD
Collision energy: 90 (nominal)
Resolution: 35000
Column name: XBridge C18 3.5um, 2.1x50mm, Waters
Retention time: 4.9 min
Base peak: 317.164
Precursor m/z: 317.1642
Precursor type: [M+H]+
m/z	relative intensity	assigned
53.0022	10	C3HO+
53.9973	1	C2NO+
54.0339	2	C3H4N+
55.0291	1	C2H3N2+
56.0495	954	C3H6N+
57.0335	22	C3H5O+
57.0699	380	C4H9+
58.0651	28	C3H8N+
58.995	16	C2H3S+
59.9903	80	CH2NS+
62.0059	24	CH4NS+
67.0288	1	C3H3N2+
67.0416	2	C4H5N+
67.9894	1	C3O2+
68.0369	1	C3H4N2+
68.0495	15	C4H6N+
69.0447	191	C3H5N2+
70.0287	2	C3H4NO+
70.0526	19	C3H6N2+
70.0651	1	C4H8N+
71.0604	4	C3H7N2+
71.9902	26	C2H2NS+
72.0444	3	C3H6NO+
74.0059	466	C2H4NS+
74.06	999	C3H8NO+
75.0011	4	CH3N2S+
75.9852	2	CH2NOS+
76.0215	10	C2H6NS+
81.0447	1	C4H5N2+
83.0605	1	C4H7N2+
84.0319	2	C3H4N2O+
84.0445	5	C4H6NO+
84.9856	6	C2HN2S+
85.0396	6	C3H5N2O+
85.0523	5	C4H7NO+
85.9695	30	C2NOS+
86.0059	7	C3H4NS+
86.06	71	C4H8NO+
87.9852	4	C2H2NOS+
88.0216	2	C3H6NS+
88.0757	6	C4H10NO+
90.0372	1	C3H8NS+
95.0603	1	C5H7N2+
99.0012	25	C3H3N2S+
100.0215	4	C4H6NS+
101.0168	50	C3H5N2S+
102.0009	4	C3H4NOS+
102.996	1	C2H3N2OS+
104.0165	8	C3H6NOS+
110.0476	2	C5H6N2O+
111.0553	5	C5H7N2O+
112.0631	5	C5H8N2O+
113.0709	509	C5H9N2O+
114.9962	4	C3H3N2OS+
116.0279	1	C3H6N3S+
117.0119	3	C3H5N2OS+
118.0069	4	C2H4N3OS+
118.0322	5	C4H8NOS+
126.0121	6	C4H4N3S+
126.9961	25	C4H3N2OS+
127.0325	6	C5H7N2S+
127.0503	2	C5H7N2O2+
127.9913	31	C3H2N3OS+
128.0279	1	C4H6N3S+
128.9993	1	C3H3N3OS+
130.0069	13	C3H4N3OS+
132.0115	1	C4H6NO2S+
138.0664	2	C6H8N3O+
142.0072	4	C4H4N3OS+
144.0227	467	C4H6N3OS+
145.0066	38	C4H5N2O2S+
145.0431	53	C5H9N2OS+
146.0018	1	C3H4N3O2S+
154.0611	2	C6H8N3O2+
158.0384	2	C5H8N3OS+
159.0222	9	C5H7N2O2S+
168.0225	1	C6H6N3OS+
170.0384	13	C6H8N3OS+
172.0536	1	C6H10N3OS+
188.0488	71	C6H10N3O2S+
