Mass spectrum: Betamethasone 21; LC-ESI-QFT; MS2; CE: 90; R=35000; [M+H]+
Name: Betamethasone 21
Name: [2-[(8S,9R,10S,11S,13S,14S,16S,17R)-9-fluoro-11,17-dihydroxy-10,13,16-trimethyl-3-oxo-6,7,8,11,12,14,15,16-octahydrocyclopenta[a]phenanthren-17-yl]-2-oxoethyl] acetate
Formula: C24H31FO6
Exact mass: 434.21047
SMILES: O=C(OCC(=O)[C@]3(O)[C@]2(C[C@H](O)[C@]4(F)[C@@]/1(\C(=C/C(=O)\C=C\1)CC[C@H]4[C@@H]2C[C@@H]3C)C)C)C
InChI: InChI=1S/C24H31FO6/c1-13-9-18-17-6-5-15-10-16(27)7-8-21(15,3)23(17,25)19(28)11-22(18,4)24(13,30)20(29)12-31-14(2)26/h7-8,10,13,17-19,28,30H,5-6,9,11-12H2,1-4H3/t13-,17-,18-,19-,21-,22-,23-,24-/m0/s1
Instrument: Q Exactive Orbitrap Thermo Scientific
Instrument type: LC-ESI-QFT
Ms type: MS2
Ion mode: POSITIVE
Ionization: ESI
Fragmentation mode: HCD
Collision energy: 90 (nominal)
Resolution: 35000
Column name: XBridge C18 3.5um, 2.1x50mm, Waters
Retention time: 10.5 min
Base peak: 435.2171
Precursor m/z: 435.2177
Precursor type: [M+H]+
m/z	relative intensity	assigned
51.023	5	C4H3+
53.0022	5	C3HO+
53.0387	20	C4H5+
55.0179	7	C3H3O+
61.0283	41	C2H5O2+
65.0385	84	C5H5+
67.0541	133	C5H7+
69.0334	44	C4H5O+
69.0698	27	C5H9+
71.0491	7	C4H7O+
77.0384	40	C6H5+
78.0462	7	C6H6+
79.0541	282	C6H7+
81.0334	19	C5H5O+
81.0697	55	C6H9+
83.0491	7	C5H7O+
91.0541	999	C7H7+
93.0697	156	C7H9+
95.049	328	C6H7O+
95.0854	56	C7H11+
97.0647	6	C6H9O+
103.0541	144	C8H7+
104.062	40	C8H8+
105.0446	46	C6H5N2+
105.0697	397	C8H9+
107.049	90	C7H7O+
107.0854	66	C8H11+
108.0567	5	C7H8O+
109.0449	4	C7H6F+
109.0646	33	C7H9O+
109.101	8	C8H13+
111.0438	4	C6H7O2+
115.0541	374	C9H7+
116.0619	120	C9H8+
117.0697	172	C9H9+
118.0774	7	C9H10+
119.0854	286	C9H11+
121.0646	349	C8H9O+
123.0804	20	C8H11O+
125.0597	6	C7H9O2+
127.0541	24	C10H7+
128.0618	535	C10H8+
129.0697	207	C10H9+
130.0776	61	C10H10+
131.0489	72	C9H7O+
131.0853	73	C10H11+
132.0568	174	C9H8O+
133.0645	33	C9H9O+
133.101	21	C10H13+
135.0803	48	C9H11O+
141.0695	253	C11H9+
142.0775	134	C11H10+
143.0854	104	C11H11+
144.0568	128	C10H8O+
145.0646	219	C10H9O+
145.101	28	C11H13+
146.0724	50	C10H10O+
147.0802	166	C10H11O+
152.0617	100	C12H8+
153.0696	143	C12H9+
154.0774	50	C12H10+
155.0489	24	C11H7O+
155.06	43	C10H7N2+
155.0851	106	C12H11+
156.0565	10	C11H8O+
156.0931	7	C12H12+
157.0646	83	C11H9O+
157.1007	18	C12H13+
158.0723	151	C11H10O+
159.0802	110	C11H11O+
161.0958	9	C11H13O+
165.0696	250	C13H9+
166.0772	68	C13H10+
167.0852	91	C13H11+
168.057	38	C12H8O+
168.0931	9	C13H12+
169.0643	72	C12H9O+
169.1008	20	C13H13+
170.0721	41	C12H10O+
171.08	135	C12H11O+
172.0877	13	C12H12O+
173.0961	7	C12H13O+
176.0617	10	C14H8+
177.0694	28	C14H9+
178.0773	298	C14H10+
179.0852	272	C14H11+
180.0927	37	C14H12+
181.0644	162	C13H9O+
181.101	22	C14H13+
182.0723	85	C13H10O+
183.08	66	C13H11O+
184.0882	8	C13H12O+
185.0957	27	C13H13O+
189.0695	126	C15H9+
190.0773	83	C15H10+
191.0852	128	C15H11+
192.093	93	C15H12+
193.0643	5	C14H9O+
193.1006	82	C15H13+
194.0723	59	C14H10O+
194.1088	10	C15H14+
195.0799	145	C14H11O+
196.0881	54	C14H12O+
197.0956	45	C14H13O+
202.0771	129	C16H10+
203.0849	120	C16H11+
204.093	64	C16H12+
205.0648	49	C15H9O+
205.101	83	C16H13+
206.0723	11	C15H10O+
206.1087	10	C16H14+
207.0801	112	C15H11O+
207.1171	8	C16H15+
208.0879	66	C15H12O+
209.0955	71	C15H13O+
210.1038	6	C15H14O+
211.1108	7	C15H15O+
215.0851	145	C17H11+
216.0929	61	C17H12+
217.1007	54	C17H13+
218.0719	55	C16H10O+
218.1089	11	C17H14+
219.08	120	C16H11O+
219.1164	25	C17H15+
220.0877	35	C16H12O+
220.1249	6	C17H16+
221.0956	95	C16H13O+
222.1034	56	C16H14O+
223.1114	25	C16H15O+
226.0774	9	C18H10+
227.085	27	C18H11+
228.0929	90	C18H12+
229.1006	103	C18H13+
230.1089	19	C18H14+
231.0799	69	C17H11O+
231.1164	33	C18H15+
232.0878	82	C17H12O+
233.0957	99	C17H13O+
233.1326	6	C18H17+
234.1037	30	C17H14O+
235.1116	45	C17H15O+
239.0852	10	C19H11+
241.1007	20	C19H13+
242.1087	25	C19H14+
243.1162	37	C19H15+
244.088	24	C18H12O+
245.0956	74	C18H13O+
246.103	56	C18H14O+
247.1112	71	C18H15O+
248.1192	26	C18H16O+
249.1268	8	C18H17O+
252.0926	7	C20H12+
253.1012	10	C20H13+
255.0805	13	C19H11O+
256.0883	6	C19H12O+
257.096	5	C19H13O+
258.1042	5	C19H14O+
259.1112	21	C19H15O+
261.1271	18	C19H17O+
271.1116	11	C20H15O+
285.1269	4	C21H17O+
