Mass spectrum: Flecainide; LC-ESI-QFT; MS2; CE: 30; R=35000; [M-H]-
Name: Flecainide
Name: N-(2-piperidinylmethyl)-2,5-bis(2,2,2-trifluoroethoxy)benzamide
Formula: C17H20F6N2O3
Exact mass: 414.13781
SMILES: C1CCNC(C1)CNC(=O)C2=C(C=CC(=C2)OCC(F)(F)F)OCC(F)(F)F
InChI: InChI=1S/C17H20F6N2O3/c18-16(19,20)9-27-12-4-5-14(28-10-17(21,22)23)13(7-12)15(26)25-8-11-3-1-2-6-24-11/h4-5,7,11,24H,1-3,6,8-10H2,(H,25,26)
Instrument: Q Exactive Orbitrap Thermo Scientific
Instrument type: LC-ESI-QFT
Ms type: MS2
Ion mode: NEGATIVE
Ionization: ESI
Fragmentation mode: HCD
Collision energy: 30 (nominal)
Resolution: 35000
Column name: XBridge C18 3.5um, 2.1x50mm, Waters
Retention time: 6.6 min
Base peak: 459.1364
Precursor m/z: 413.1305
Precursor type: [M-H]-
m/z	relative intensity	assigned
58.0099	2	C2HFN-
95.0139	2	C5H3O2-
108.0217	4	C6H4O2-
123.0088	4	C6H3O3-
125.0244	3	C6H5O3-
135.0088	14	C7H3O3-
136.0166	3	C7H4O3-
139.0877	12	C7H11N2O-
146.0247	12	C8H4NO2-
151.0201	9	C8H4FO2-
151.0274	3	C7H5NO3-
152.0354	2	C7H6NO3-
159.0325	14	C9H5NO2-
160.0162	2	C9H4O3-
160.0405	1	C9H6NO2-
161.0242	1	C9H5O3-
161.0721	1	C9H9N2O-
164.0155	4	C8H3FNO2-
171.0267	3	C8H5F2O2-
172.0406	1	C10H6NO2-
174.0196	7	C9H4NO3-
175.0275	1	C9H5NO3-
179.0826	19	C9H11N2O2-
185.0342	2	C5H5F4N2O-
186.0195	2	C2H5F5NO3-
187.0275	3	C10H5NO3-
188.0352	1	C10H6NO3-
190.0249	2	C8H5F3O2-
192.0103	53	C9H3FNO3-
193.0104	1	C10H3F2O2-
194.0261	1	C9H5FNO3-
197.0055	1	C9H3F2O3-
199.0512	1	C3H8F5N2O2-
199.0889	23	C9H12FN2O2-
200.0717	13	C12H10NO2-
203.0148	1	C11H4FO3-
206.0263	2	C10H5FNO3-
207.0336	1	C10H6FNO3-
210.037	1	C10H6F2NO2-
213.0306	2	C11H5N2O3-
214.0491	1	C7H8F4NO2-
227.0464	4	C12H7N2O3-
227.095	1	C14H13NO2-
228.0666	2	C13H10NO3-
229.0745	1	C13H11NO3-
230.0257	1	C4H6F6NO3-
230.0434	2	C10H7F3NO2-
230.0821	2	C13H12NO3-
231.0899	2	C13H13NO3-
233.0697	1	C10H9F4N2-
235.0088	1	C11H3F2NO3-
241.0983	8	C14H13N2O2-
242.0819	1	C6H13F5NO3-
242.1066	6	C14H14N2O2-
243.0273	3	C11H6F3O3-
243.0899	6	C14H13NO3-
246.101	1	C13H14N2O3-
249.0181	9	C10H5F4O3-
251.0828	1	C15H11N2O2-
252.0905	7	C15H12N2O2-
253.0983	5	C15H13N2O2-
255.0151	1	C11H4F3NO3-
257.0307	5	C11H6F3NO3-
265.0985	3	C16H13N2O2-
269.0936	28	C15H13N2O3-
270.1011	999	C15H14N2O3-
275.0211	7	C11H5F4NO3-
285.1049	2	C16H14FN2O2-
289.0992	2	C7H15F6N2O3-
290.1073	301	C15H15FN2O3-
293.0931	4	C17H13N2O3-
302.0905	3	C16H11F3N3-
305.1106	2	C16H15F2N2O2-
310.1136	28	C15H16F2N2O3-
313.0996	19	C17H14FN2O3-
333.1057	44	C17H15F2N2O3-
353.1119	47	C17H16F3N2O3-
373.1185	4	C17H17F4N2O3-
