Mass spectrum: Losartan; LC-ESI-QFT; MS2; CE: 60; R=35000; [M-H]-
Name: Losartan
Name: [2-butyl-5-chloranyl-3-[[4-[2-(2H-1,2,3,4-tetrazol-5-yl)phenyl]phenyl]methyl]imidazol-4-yl]methanol
Formula: C22H23ClN6O
Exact mass: 421.15436
SMILES: Clc1nc(n(c1CO)Cc4ccc(c2ccccc2c3[nH]nnn3)cc4)CCCC
InChI: InChI=1S/C22H23ClN6O/c1-2-3-8-20-24-21(23)19(14-30)29(20)13-15-9-11-16(12-10-15)17-6-4-5-7-18(17)22-25-27-28-26-22/h4-7,9-12,30H,2-3,8,13-14H2,1H3,(H,25,26,27,28)
Instrument: Q Exactive Plus Orbitrap Thermo Scientific
Instrument type: LC-ESI-QFT
Ms type: MS2
Ion mode: NEGATIVE
Ionization: ESI
Fragmentation mode: HCD
Collision energy: 60 (nominal)
Resolution: 35000
Column name: XBridge C18 3.5um, 2.1x50mm, Waters
Retention time: 9.0 min
Base peak: 421.1545
Precursor m/z: 421.1549
Precursor type: [M-H]-
m/z	relative intensity	assigned
93.0345	2	C6H5O-
100.9911	2	C3H2ClN2-
113.999	137	C4H3ClN2-
127.0068	999	C5H4ClN2-
140.0146	11	C6H5ClN2-
141.9937	6	C5H3ClN2O-
145.9888	3	C4H3ClN2O2-
155.0018	9	C6H4ClN2O-
155.0382	15	C7H8ClN2-
157.0538	398	C7H10ClN2-
164.0632	1	C13H8-
165.0708	12	C13H9-
169.0534	4	C8H10ClN2-
177.071	5	C14H9-
178.0788	13	C14H10-
179.0866	177	C14H11-
180.0582	7	C13H8O-
185.0487	12	C8H10ClN2O-
187.0643	89	C8H12ClN2O-
192.0577	1	C14H8O-
193.0658	36	C14H9O-
195.0815	16	C14H11O-
215.0613	2	C15H7N2-
216.0815	6	C16H10N-
229.0771	3	C16H9N2-
229.0894	3	C17H11N-
230.0976	4	C17H12N-
241.0774	6	C17H9N2-
255.0926	7	C18H11N2-
256.1	1	C18H12N2-
269.1085	1	C19H13N2-
272.1443	6	C20H18N-
277.0537	8	C17H10ClN2-
291.0695	23	C18H12ClN2-
297.1396	1	C21H17N2-
320.1076	1	C20H17ClN2-
