Mass spectrum: Thiamphenicol; LC-ESI-QFT; MS2; CE: 90; R=35000; [M-H]-
Name: Thiamphenicol
Name: 2,2-dichloro-N-[1,3-dihydroxy-1-(4-methylsulfonylphenyl)propan-2-yl]acetamide
Formula: C12H15Cl2NO5S
Exact mass: 355.00480
SMILES: CS(=O)(=O)C1=CC=C(C=C1)C(C(CO)NC(=O)C(Cl)Cl)O
InChI: InChI=1S/C12H15Cl2NO5S/c1-21(19,20)8-4-2-7(3-5-8)10(17)9(6-16)15-12(18)11(13)14/h2-5,9-11,16-17H,6H2,1H3,(H,15,18)
Instrument: Q Exactive Plus Orbitrap Thermo Scientific
Instrument type: LC-ESI-QFT
Ms type: MS2
Ion mode: NEGATIVE
Ionization: ESI
Fragmentation mode: HCD
Collision energy: 90 (nominal)
Resolution: 35000
Column name: XBridge C18 3.5um, 2.1x50mm, Waters
Retention time: 3.5 min
Base peak: 353.9974
Precursor m/z: 353.9975
Precursor type: [M-H]-
m/z	relative intensity	assigned
63.9625	999	O2S-
65.0397	1	C5H5-
70.0299	1	C3H4NO-
77.0398	4	C6H5-
78.986	818	CH3O2S-
82.9462	61	CHCl2-
84.0091	27	C3H2NO2-
91.019	5	C6H3O-
92.0268	2	C6H4O-
93.0345	9	C6H5O-
105.0346	110	C7H5O-
106.0425	2	C7H6O-
108.0216	1	C6H4O2-
116.0507	1	C8H6N-
117.0345	2	C8H5O-
119.0503	229	C8H7O-
121.0296	723	C7H5O2-
123.0452	11	C7H7O2-
123.9987	6	C6H4OS-
128.0507	1	C9H6N-
130.0424	7	C9H6O-
131.0376	11	C8H5NO-
132.0217	4	C8H4O2-
133.0534	13	C8H7NO-
139.9939	22	C6H4O2S-
144.0457	2	C9H6NO-
145.0296	10	C9H5O2-
148.0406	19	C8H6NO2-
149.0246	14	C8H5O3-
150.9861	1	C7H3O2S-
151.9938	2	C7H4O2S-
155.0174	34	C7H7O2S-
168.9966	175	C7H5O3S-
170.0044	1	C7H6O3S-
197.0156	2	C8H7NO3S-
