Mass spectrum: Heptenophos; LC-ESI-QFT; MS2; CE: 75; R=35000; [M+H]+
Name: Heptenophos
Name: (6-chloranyl-7-bicyclo[3.2.0]hepta-3,6-dienyl) dimethyl phosphate
Name: Ragadan
Formula: C9H12ClO4P
Exact mass: 250.01617
SMILES: COP(=O)(OC)OC1=C(Cl)C2C=CCC12
InChI: InChI=1S/C9H12ClO4P/c1-12-15(11,13-2)14-9-7-5-3-4-6(7)8(9)10/h3-4,6-7H,5H2,1-2H3
Instrument: Q Exactive Orbitrap Thermo Scientific
Instrument type: LC-ESI-QFT
Ms type: MS2
Ion mode: POSITIVE
Ionization: ESI
Fragmentation mode: HCD
Collision energy: 75 (nominal)
Resolution: 35000
Column name: XBridge C18 3.5um, 2.1x50mm, Waters
Retention time: 9.1 min
Base peak: 251.0238
Precursor m/z: 251.0234
Precursor type: [M+H]+
m/z	relative intensity	assigned
62.015	3	C5H2+
63.023	28	C5H3+
64.9786	1	H2O2P+
65.0386	15	C5H5+
66.0464	6	C5H6+
72.9839	10	C3H2Cl+
74.9996	7	C3H4Cl+
78.9943	26	CH4O2P+
79.0542	2	C6H7+
89.0386	381	C7H5+
90.0464	113	C7H6+
91.0542	5	C7H7+
95.0491	2	C6H7O+
96.9841	1	C5H2Cl+
97.0049	2	CH6O3P+
98.9996	196	C5H4Cl+
112.9998	124	CH6O4P+
125.0153	334	C7H6Cl+
127.0154	999	C2H8O4P+
145.0262	3	C2H10O5P+
202.9663	1	C7H5ClO3P+
203.974	3	C7H6ClO3P+
