Mass spectrum: Hydrochlorothiazide; LC-ESI-ITFT; MS2; CE: 45%; R=15000; [M+H]+
Name: Hydrochlorothiazide
Name: 6-Chloro-3,4-dihydro-2H-1,2,4-benzothiadiazine-7-sulfonamide 1,1-dioxide
Name: 6-chloranyl-1,1-bis(oxidanylidene)-3,4-dihydro-2H-1$l^{6},2,4-benzothiadiazine-7-sulfonamide
Formula: C7H8ClN3O4S2
Exact mass: 296.9645
SMILES: NS(=O)(=O)C1=CC2=C(NCNS2(=O)=O)C=C1Cl
InChI: InChI=1S/C7H8ClN3O4S2/c8-4-1-5-7(2-6(4)16(9,12)13)17(14,15)11-3-10-5/h1-2,10-11H,3H2,(H2,9,12,13)
Instrument: LTQ Orbitrap XL Thermo Scientific
Instrument type: LC-ESI-ITFT
Ms type: MS2
Ion mode: POSITIVE
Ionization: ESI
Fragmentation mode: HCD
Collision energy: 45 % (nominal)
Resolution: 15000
Column name: XBridge C18 3.5um, 2.1x50mm, Waters
Retention time: 2.2 min
Base peak: 163.1326
Precursor m/z: 297.9718
Precursor type: [M+H]+
m/z	relative intensity	assigned
107.9903	53	C5H2NS+
117.0448	70	C7H5N2+
118.0526	29	C7H6N2+
125.0024	12	C6H4ClN+
126.0105	18	C6H5ClN+
131.967	23	C7OS+
139.9897	134	C6H3ClNO+
141.9512	13	C5HClNS+
142.0054	21	C6H5ClNO+
142.9592	123	C5H2ClNS+
143.0133	13	C6H6ClNO+
143.967	24	C5H3ClNS+
152.0132	14	C7H5ClN2+
152.9976	13	C7H4ClNO+
153.0214	28	C7H6ClN2+
155.9852	12	C6H3ClNO2+
156.0206	21	C7H7ClNO+
157.0159	32	C6H6ClN2O+
158.0005	25	C6H5ClNO2+
169.0165	52	C7H6ClN2O+
169.9468	16	ClH7O4S2+
170.954	80	C6H2ClNOS+
171.962	57	C6H3ClNOS+
187.957	30	C6H3ClNO2S+
188.9646	136	C6H4ClNO2S+
203.9516	252	C6H3ClNO3S+
204.9832	219	C6H6ClN2O2S+
205.9671	56	C6H5ClNO3S+
216.9833	297	C7H6ClN2O2S+
220.9781	125	C6H6ClN2O3S+
232.9782	999	C7H6ClN2O3S+
234.9938	134	C7H8ClN2O3S+
252.9502	73	C6H6ClN2O3S2+
280.9453	100	C7H6ClN2O4S2+
