Mass spectrum: Atraton; LC-ESI-ITFT; MS2; CE: 75%; R=15000; [M+H]+
Name: Atraton
Name: 4-N-ethyl-6-methoxy-2-N-propan-2-yl-1,3,5-triazine-2,4-diamine
Formula: C9H17N5O
Exact mass: 211.1428
SMILES: COc1nc(NCC)nc(NC(C)C)n1
InChI: InChI=1S/C9H17N5O/c1-5-10-7-12-8(11-6(2)3)14-9(13-7)15-4/h6H,5H2,1-4H3,(H2,10,11,12,13,14)
Instrument: LTQ Orbitrap XL Thermo Scientific
Instrument type: LC-ESI-ITFT
Ms type: MS2
Ion mode: POSITIVE
Ionization: ESI
Fragmentation mode: HCD
Collision energy: 75 % (nominal)
Resolution: 15000
Column name: XBridge C18 3.5um, 2.1x50mm, Waters
Retention time: 5.7 min
Base peak: 212.1507
Precursor m/z: 212.1506
Precursor type: [M+H]+
m/z	relative intensity	assigned
57.0447	142	C2H5N2+
58.0287	22	C2H4NO+
68.0243	318	C2H2N3+
69.0083	290	C2HN2O+
71.0603	95	C3H7N2+
75.0553	246	C2H7N2O+
82.0399	11	C3H4N3+
83.024	34	C3H3N2O+
85.0509	9	C2H5N4+
85.076	109	C4H9N2+
86.0349	165	C2H4N3O+
96.0556	258	C4H6N3+
97.0397	84	C4H5N2O+
99.0666	19	C3H7N4+
100.0506	705	C3H6N3O+
113.0822	14	C4H9N4+
114.0662	248	C4H8N3O+
128.0818	224	C5H10N3O+
138.0774	53	C5H8N5+
142.0723	328	C4H8N5O+
168.0883	13	C6H10N5O+
170.1036	999	C6H12N5O+
212.1502	49	C9H18N5O+
