Mass spectrum: Metominostrobin; LC-ESI-QFT; MS2; CE: 90%; R=17500; [M+H]+
Name: Metominostrobin
Name: N-methyl-2-(2-phenoxyphenyl)-2-methoxyiminoacetamide
Name: 2-methoxyimino-N-methyl-2-(2-phenoxyphenyl)acetamide
Formula: C16H16N2O3
Exact mass: 284.1161
SMILES: CNC(=O)C(=NOC)C1=CC=CC=C1OC2=CC=CC=C2
InChI: InChI=1S/C16H16N2O3/c1-17-16(19)15(18-20-2)13-10-6-7-11-14(13)21-12-8-4-3-5-9-12/h3-11H,1-2H3,(H,17,19)
Instrument: Exploris 240 Orbitrap Thermo Scientific
Instrument type: LC-ESI-QFT
Ms type: MS2
Ion mode: POSITIVE
Ionization: ESI
Fragmentation mode: HCD
Collision energy: 90 % (nominal)
Resolution: 17500
Column name: XBridge C18 3.5um, 2.1x50mm, Waters
Retention time: 7.515 min
Base peak: 285.1232
Precursor m/z: 285.1234
Precursor type: [M+H]+
m/z	relative intensity	assigned
51.023	34	C4H3+
53.0386	55	C4H5+
58.0288	164	C2H4NO+
65.0386	36	C5H5+
76.031	15	C6H4+
77.0386	267	C6H5+
78.0465	43	C6H6+
92.0258	31	C6H4O+
95.0492	57	C6H7O+
104.0261	32	C7H4O+
105.045	80	C6H5N2+
115.0541	143	C9H7+
116.0498	25	C8H6N+
139.0543	845	C11H7+
140.0495	999	C10H6N+
166.0652	694	C12H8N+
167.0727	46	C12H9N+
168.0577	15	C12H8O+
193.0523	164	C13H7NO+
194.0603	84	C13H8NO+
196.0761	86	C13H10NO+
197.0607	16	C13H9O2+
210.0911	19	C14H12NO+
