Mass spectrum: Dimethomorph; LC-ESI-ITFT; MS2; CE: 75%; R=7500; [M+H]+
Name: Dimethomorph
Name: (Z)-3-(4-chlorophenyl)-3-(3,4-dimethoxyphenyl)-1-(4-morpholinyl)-2-propen-1-one
Formula: C21H22ClNO4
Exact mass: 387.1237
SMILES: COC1=C(C=C(C=C1)/C(=C/C(=O)N2CCOCC2)/C3=CC=C(C=C3)Cl)OC
InChI: InChI=1S/C21H22ClNO4/c1-25-19-8-5-16(13-20(19)26-2)18(15-3-6-17(22)7-4-15)14-21(24)23-9-11-27-12-10-23/h3-8,13-14H,9-12H2,1-2H3/b18-14+
Instrument: LTQ Orbitrap XL Thermo Scientific
Instrument type: LC-ESI-ITFT
Ms type: MS2
Ion mode: POSITIVE
Ionization: ESI
Fragmentation mode: HCD
Collision energy: 75 % (nominal)
Resolution: 7500
Column name: XBridge C18 3.5um, 2.1x50mm, Waters
Retention time: 10.8 min
Base peak: 388.1318
Precursor m/z: 388.131
Precursor type: [M+H]+
m/z	relative intensity	assigned
53.0384	6	C4H5+
65.0384	2	C5H5+
66.0464	18	C5H6+
70.0288	171	C3H4NO+
77.0386	45	C6H5+
79.0543	43	C6H7+
81.07	12	C6H9+
86.9996	6	C4H4Cl+
88.0758	2	C4H10NO+
89.0385	5	C7H5+
91.0541	7	C7H7+
92.0261	5	C6H4O+
94.0414	24	C6H6O+
105.0334	10	C7H5O+
105.0447	16	C6H5N2+
107.0493	9	C4H10ClN+
109.0284	16	C6H5O2+
109.0648	53	C7H9O+
110.9995	18	C6H4Cl+
114.055	33	C5H8NO2+
121.0285	22	C7H5O2+
122.0363	111	C7H6O2+
125.0153	274	C7H6Cl+
129.0098	4	C6H6ClO+
131.0489	8	C9H7O+
133.028	3	C8H5O2+
133.0651	4	C6H12ClN+
135.0441	5	C8H7O2+
137.0149	17	C8H6Cl+
137.0598	140	C8H9O2+
138.9946	439	C7H4ClO+
139.0056	94	C9HNO+
146.0365	6	C6H9ClNO+
148.0512	3	C9H8O2+
150.0311	10	C8H6O3+
152.062	76	C12H8+
155.0705	11	C8H11O3+
162.9944	19	C9H4ClO+
165.0548	999	C9H9O3+
166.0779	30	C13H10+
167.0856	118	C13H11+
168.0569	2	C12H8O+
176.062	10	C14H8+
177.0699	53	C14H9+
178.0778	58	C14H10+
179.0856	26	C14H11+
180.0567	18	C13H8O+
181.0643	9	C13H9O+
187.0309	58	C12H8Cl+
192.0568	6	C14H8O+
193.0659	15	C11H12ClN+
194.0726	37	C14H10O+
195.0805	161	C14H11O+
199.031	89	C13H8Cl+
200.0386	7	C13H9Cl+
201.0466	33	C13H10Cl+
202.0541	2	C13H11Cl+
206.0722	8	C15H10O+
207.0807	19	C12H14ClN+
208.0516	7	C11H11ClNO+
208.0877	9	C15H12O+
212.0387	45	C14H9Cl+
213.047	20	C14H10Cl+
215.0259	264	C13H8ClO+
220.0515	4	C15H8O2+
221.0602	5	C12H12ClNO+
222.0678	4	C15H10O2+
223.0754	197	C15H11O2+
226.0175	15	C14H7ClO+
227.0259	300	C14H8ClO+
228.0335	59	C14H9ClO+
229.0414	71	C14H10ClO+
230.0497	21	C14H11ClO+
235.0755	63	C16H11O2+
237.0921	6	C13H16ClNO+
238.0989	134	C16H14O2+
239.0256	16	C15H8ClO+
240.034	14	C15H9ClO+
241.0417	55	C15H10ClO+
242.0493	512	C15H11ClO+
243.0207	288	C14H8ClO2+
251.0699	15	C16H11O3+
255.0216	8	C15H8ClO2+
257.0363	91	C15H10ClO2+
258.0441	230	C15H11ClO2+
269.0367	7	C16H10ClO2+
270.0437	18	C16H11ClO2+
273.0675	58	C16H14ClO2+
285.0306	11	C16H10ClO3+
286.0399	7	C16H11ClO3+
303.0431	4	C16H12ClO4+
390.1351	4	C20H23ClN2O4+
