Mass spectrum: Clomipramine; LC-ESI-QFT; MS2; CE: 180; R=35000; [M+H]+
Name: Clomipramine
Name: 3-(2-chloro-5,6-dihydrobenzo[b][1]benzazepin-11-yl)-N,N-dimethylpropan-1-amine
Formula: C19H23ClN2
Exact mass: 314.15498
SMILES: CN(C)CCCN1C2=CC=CC=C2CCC3=C1C=C(C=C3)Cl
InChI: InChI=1S/C19H23ClN2/c1-21(2)12-5-13-22-18-7-4-3-6-15(18)8-9-16-10-11-17(20)14-19(16)22/h3-4,6-7,10-11,14H,5,8-9,12-13H2,1-2H3
Instrument: Q Exactive Plus Orbitrap Thermo Scientific
Instrument type: LC-ESI-QFT
Ms type: MS2
Ion mode: POSITIVE
Ionization: ESI
Fragmentation mode: HCD
Collision energy: 180 (nominal)
Resolution: 35000
Column name: XBridge C18 3.5um, 2.1x50mm, Waters
Retention time: 9.2 min
Base peak: 315.1618
Precursor m/z: 315.1623
Precursor type: [M+H]+
m/z	relative intensity	assigned
50.0152	11	C4H2+
51.023	17	C4H3+
53.0387	6	C4H5+
56.0495	116	C3H6N+
57.0573	10	C3H7N+
58.0652	999	C3H8N+
62.0151	11	C5H2+
63.023	65	C5H3+
65.0387	33	C5H5+
70.0652	7	C4H8N+
71.073	6	C4H9N+
72.984	10	C3H2Cl+
75.023	22	C6H3+
76.0308	1	C6H4+
77.0386	13	C6H5+
78.0465	2	C6H6+
86.0152	2	C7H2+
89.0387	155	C7H5+
90.0465	15	C7H6+
91.0544	20	C7H7+
95.0492	17	C3H10ClN+
98.9997	8	C5H4Cl+
102.0465	15	C8H6+
103.0544	7	C8H7+
105.0449	14	C6H5N2+
113.0387	25	C9H5+
114.0465	4	C9H6+
115.0544	99	C9H7+
116.0498	8	C8H6N+
117.0575	6	C8H7N+
122.9995	1	C7H4Cl+
126.0464	14	C10H6+
127.0417	8	C9H5N+
128.0495	16	C9H6N+
128.062	11	C10H8+
129.0448	10	C8H5N2+
129.0574	1	C9H7N+
130.0653	5	C9H8N+
138.0467	12	
139.0544	128	C11H7+
140.0496	89	C10H6N+
142.0653	1	C10H8N+
146.0602	2	C6H11ClN2+
149.0152	1	C9H6Cl+
150.0466	37	C12H6+
151.0544	10	C12H7+
152.0622	49	C12H8+
153.0574	7	C11H7N+
155.0607	5	C10H7N2+
162.0108	2	C9H5ClN+
162.0468	12	
163.0544	300	C13H7+
164.0497	54	
164.0622	85	C13H8+
165.0583	12	
165.0701	94	C13H9+
166.0653	27	C12H8N+
167.073	4	C12H9N+
168.0571	39	C9H11ClN+
169.065	32	C9H12ClN+
170.0603	5	C8H11ClN2+
176.0623	60	C14H8+
177.0577	22	C13H7N+
177.0701	14	C14H9+
178.0657	12	C13H8N+
178.0779	33	C14H10+
179.0608	13	C12H7N2+
179.073	2	C13H9N+
180.0811	2	C13H10N+
183.0682	1	C9H12ClN2+
188.0497	23	
189.0576	39	C14H7N+
189.0703	10	C15H9+
190.0653	329	C14H8N+
191.0731	145	C14H9N+
192.0809	4	C14H10N+
194.0603	7	C10H11ClN2+
196.0521	21	C10H11ClNO+
199.031	9	C13H8Cl+
200.0269	4	C12H7ClN+
202.0652	8	C15H8N+
203.0733	20	C15H9N+
204.0812	61	C15H10N+
216.0809	12	C16H10N+
217.0892	8	C16H11N+
225.0347	5	C14H8ClN+
238.0418	1	C15H9ClN+
