Mass spectrum: N-desmethylpheniramine; LC-ESI-QFT; MS2; CE: 120; R=35000; [M+H]+
Name: N-desmethylpheniramine
Name: N-methyl-3-phenyl-3-pyridin-2-ylpropan-1-amine
Formula: C15H18N2
Exact mass: 226.14700
SMILES: CNCCC(C1=CC=CC=C1)C2=CC=CC=N2
InChI: InChI=1S/C15H18N2/c1-16-12-10-14(13-7-3-2-4-8-13)15-9-5-6-11-17-15/h2-9,11,14,16H,10,12H2,1H3
Instrument: Q Exactive Plus Orbitrap Thermo Scientific
Instrument type: LC-ESI-QFT
Ms type: MS2
Ion mode: POSITIVE
Ionization: ESI
Fragmentation mode: HCD
Collision energy: 120 (nominal)
Resolution: 35000
Column name: XBridge C18 3.5um, 2.1x50mm, Waters
Retention time: 3.6 min
Base peak: 227.154
Precursor m/z: 227.1543
Precursor type: [M+H]+
m/z	relative intensity	assigned
50.0151	1	C4H2+
51.0229	1	C4H3+
63.0229	1	C5H3+
65.0385	54	C5H5+
66.0463	1	C5H6+
77.0384	2	C6H5+
78.0338	7	C5H4N+
79.0415	1	C5H5N+
80.0493	2	C5H6N+
89.0384	3	C7H5+
90.0464	8	C7H6+
91.0542	171	C7H7+
92.0494	7	C6H6N+
93.0573	15	C6H7N+
94.0651	2	C6H8N+
95.0491	3	C6H7O+
96.0443	9	C5H6NO+
103.0541	6	C8H7+
104.0494	7	C7H6N+
105.0446	2	C6H5N2+
110.06	8	C6H8NO+
115.0542	28	C9H7+
116.0495	2	C8H6N+
116.0621	1	C9H8+
117.0573	100	C8H7N+
118.065	240	C8H8N+
119.0729	11	C8H9N+
128.0494	8	C9H6N+
128.0621	3	C10H8+
129.0447	1	C8H5N2+
130.0651	1	C9H8N+
134.0601	1	C8H8NO+
139.0542	23	C11H7+
140.0496	4	C10H6N+
140.062	22	C11H8+
141.0699	8	C11H9+
146.0598	2	C9H8NO+
152.0619	3	C12H8+
153.07	1	C12H9+
154.0652	1	C11H8N+
165.0579	1	C12H7N+
165.07	1	C13H9+
166.0651	105	C12H8N+
167.0729	999	C12H9N+
168.0807	92	C12H10N+
179.0724	1	C13H9N+
180.0807	25	C13H10N+
181.0885	1	C13H11N+
184.0755	1	C12H10NO+
192.0808	4	C14H10N+
193.0885	11	C14H11N+
194.0964	29	C14H12N+
196.1117	3	C14H14N+
