Mass spectrum: Dicloxacillin; LC-ESI-QFT; MS2; CE: 60; R=35000; [M+H]+
Name: Dicloxacillin
Name: 6-[[3-(2,6-dichlorophenyl)-5-methyl-1,2-oxazole-4-carbonyl]amino]-3,3-dimethyl-7-oxo-4-thia-1-azabicyclo[3.2.0]heptane-2-carboxylic acid
Formula: C19H17Cl2N3O5S
Exact mass: 469.02660
SMILES: CC1=C(C(=NO1)C2=C(C=CC=C2Cl)Cl)C(=O)NC3C4N(C3=O)C(C(S4)(C)C)C(=O)O
InChI: InChI=1S/C19H17Cl2N3O5S/c1-7-10(12(23-29-7)11-8(20)5-4-6-9(11)21)15(25)22-13-16(26)24-14(18(27)28)19(2,3)30-17(13)24/h4-6,13-14,17H,1-3H3,(H,22,25)(H,27,28)
Instrument: Q Exactive Plus Orbitrap Thermo Scientific
Instrument type: LC-ESI-QFT
Ms type: MS2
Ion mode: POSITIVE
Ionization: ESI
Fragmentation mode: HCD
Collision energy: 60 (nominal)
Resolution: 35000
Column name: XBridge C18 3.5um, 2.1x50mm, Waters
Retention time: 9.6 min
Base peak: 470.0332
Precursor m/z: 470.0339
Precursor type: [M+H]+
m/z	relative intensity	assigned
53.0386	10	C4H5+
54.0339	3	C3H4N+
55.0542	1	C4H7+
56.0495	1	C3H6N+
58.995	7	C2H3S+
62.0059	1	CH4NS+
68.0495	2	C4H6N+
69.0447	4	C3H5N2+
70.0651	32	C4H8N+
71.049	1	C4H7O+
72.0444	3	C3H6NO+
75.0263	1	C3H7S+
81.0447	4	C4H5N2+
81.0573	1	C5H7N+
82.0651	1	C5H8N+
84.9839	1	C4H2Cl+
85.0106	5	C4H5S+
87.0263	153	C4H7S+
96.0444	1	C5H6NO+
98.0601	11	C5H8NO+
99.0441	4	C5H7O2+
100.0392	1	C4H6NO2+
108.9839	1	C6H2Cl+
113.0294	1	C5H7NS+
114.0372	999	C5H8NS+
115.0212	1	C5H7OS+
116.0529	1	C5H10NS+
116.0707	1	C5H10NO2+
126.0371	2	C6H8NS+
126.055	3	C6H8NO2+
127.0414	2	C9H5N+
128.0527	3	C6H10NS+
136.0078	2	C8H5Cl+
142.0322	36	C6H8NOS+
144.9607	2	C6H3Cl2+
147.9949	2	C8H3ClN+
151.0183	4	C8H6ClN+
155.0605	3	C10H7N2+
156.9607	19	C7H3Cl2+
158.9762	2	C7H5Cl2+
160.0427	148	C6H10NO2S+
162.0107	5	C9H5ClN+
162.9712	1	C6H5Cl2O+
163.0183	5	C9H6ClN+
164.0011	1	C7H3ClN3+
170.9762	8	C8H5Cl2+
171.9715	27	C7H4Cl2N+
172.9552	1	C7H3Cl2O+
172.9669	20	C3H6ClO4S+
177.0339	1	C10H8ClN+
180.0209	1	C9H7ClNO+
183.9717	143	C8H4Cl2N+
185.9872	29	C8H6Cl2N+
190.0291	7	C10H7ClN2+
192.0208	1	C10H7ClNO+
195.9717	122	C9H4Cl2N+
197.9873	374	C12H3ClO+
201.9822	1	C8H6Cl2NO+
209.9873	45	C10H6Cl2N+
210.9824	1	C9H5Cl2N2+
211.9666	312	C9H4Cl2NO+
212.9982	4	C9H7Cl2N2+
213.9822	81	C9H6Cl2NO+
215.9984	2	C10H4N2O2S+
219.032	1	C11H8ClN2O+
224.9981	9	C10H7Cl2N2+
227.9976	1	C10H8Cl2NO+
231.0318	1	C12H8ClN2O+
237.9822	10	C11H6Cl2NO+
239.9979	7	C11H8Cl2NO+
240.9932	1	C7H10ClO5S+
255.9927	16	C6H9ClN2O5S+
264.993	1	C12H7Cl2N2O+
267.009	3	C9H12ClO5S+
268.9882	3	C11H7Cl2N2O2+
