Mass spectrum: Warfarin; LC-ESI-QFT; MS2; CE: 30; R=35000; [M-H]-
Name: Warfarin
Name: 2-hydroxy-3-(3-oxo-1-phenylbutyl)chromen-4-one
Name: Coumafen
Formula: C19H16O4
Exact mass: 308.10486
SMILES: O=C\1c3c(OC(/O)=C/1C(c2ccccc2)CC(=O)C)cccc3
InChI: InChI=1S/C19H16O4/c1-12(20)11-15(13-7-3-2-4-8-13)17-18(21)14-9-5-6-10-16(14)23-19(17)22/h2-10,15,22H,11H2,1H3
Instrument: Q Exactive Orbitrap Thermo Scientific
Instrument type: LC-ESI-QFT
Ms type: MS2
Ion mode: NEGATIVE
Ionization: ESI
Fragmentation mode: HCD
Collision energy: 30 (nominal)
Resolution: 35000
Column name: XBridge C18 3.5um, 2.1x50mm, Waters
Retention time: 10.6 min
Base peak: 307.0978
Precursor m/z: 307.0976
Precursor type: [M-H]-
m/z	relative intensity	assigned
57.0346	57	C3H5O-
83.014	7	C4H3O2-
93.0346	2	C6H5O-
117.0347	27	C8H5O-
133.066	8	C9H9O-
135.0452	2	C8H7O2-
157.0662	4	C11H9O-
161.0244	999	C9H5O3-
187.0765	3	C12H11O2-
206.074	1	C15H10O-
221.061	1	C15H9O2-
221.0973	3	C16H13O-
223.0765	35	C15H11O2-
247.0766	2	C17H11O2-
250.0636	616	C16H10O3-
261.0918	1	C18H13O2-
263.1078	9	C18H15O2-
282.0541	2	C16H10O5-
289.0871	9	C19H13O3-
307.0977	702	C19H15O4-
