Mass spectrum: Quinmerac; LC-ESI-QFT; MS2; CE: 150; R=35000; [M+H]+
Name: Quinmerac
Name: 7-chloro-3-methyl-quinoline-8-carboxylic acid
Name: 7-chloro-3-methylquinoline-8-carboxylic acid
Formula: C11H8ClNO2
Exact mass: 221.02436
SMILES: CC1=CN=C2C(=C1)C=CC(=C2C(=O)O)Cl
InChI: InChI=1S/C11H8ClNO2/c1-6-4-7-2-3-8(12)9(11(14)15)10(7)13-5-6/h2-5H,1H3,(H,14,15)
Instrument: Q Exactive Plus Orbitrap Thermo Scientific
Instrument type: LC-ESI-QFT
Ms type: MS2
Ion mode: POSITIVE
Ionization: ESI
Fragmentation mode: HCD
Collision energy: 150 (nominal)
Resolution: 35000
Column name: XBridge C18 3.5um, 2.1x50mm, Waters
Retention time: 5.2 min
Base peak: 222.0312
Precursor m/z: 222.0316
Precursor type: [M+H]+
m/z	relative intensity	assigned
50.0149	4	C4H2+
51.0228	1	C4H3+
53.0022	3	C3HO+
53.9974	1	C2NO+
61.0073	9	C5H+
61.9791	2	CHClN+
62.0151	42	C5H2+
63.0229	193	C5H3+
64.0181	10	C4H2N+
64.0307	12	C5H4+
65.0386	48	C5H5+
66.0464	8	C5H6+
72.9839	40	C3H2Cl+
74.015	35	C6H2+
75.0229	12	C6H3+
76.0181	2	C5H2N+
76.0307	26	C6H4+
77.0385	3	C6H5+
78.0464	3	C6H6+
81.0336	2	C5H5O+
85.0073	1	C7H+
86.0151	21	C7H2+
87.0229	98	C7H3+
88.0182	38	C6H2N+
88.0307	334	C7H4+
89.0385	85	C7H5+
90.0339	26	C6H4N+
90.0464	150	C7H6+
92.0257	15	C6H4O+
95.0491	1	C6H7O+
96.984	17	C5H2Cl+
97.9792	4	C4HClN+
98.0151	2	C8H2+
98.9996	47	C5H4Cl+
99.0104	2	C7HN+
99.023	8	C8H3+
100.0181	4	C7H2N+
102.0464	43	C8H6+
105.0447	1	C6H5N2+
108.9839	2	C6H2Cl+
112.0075	2	C6H5Cl+
112.018	4	C8H2N+
112.0308	2	C9H4+
113.0385	808	C9H5+
114.0338	119	C8H4N+
114.0464	552	C9H6+
115.0416	27	C8H5N+
115.0542	22	C9H7+
116.0493	1	C8H6N+
117.0333	11	C8H5O+
118.0413	100	C8H6O+
120.0206	27	C7H4O2+
122.9996	82	C7H4Cl+
123.9948	6	C6H3ClN+
126.0337	2	C9H4N+
131.0492	8	C9H7O+
132.057	245	C9H8O+
133.0522	6	C8H7NO+
136.0077	2	C8H5Cl+
138.034	3	C10H4N+
139.0418	4	C10H5N+
140.0494	999	C10H6N+
141.0572	122	C10H7N+
146.036	2	C9H6O2+
146.9997	2	C9H4Cl+
148.0075	3	C9H5Cl+
149.0153	178	C9H6Cl+
150.0105	8	C8H5ClN+
157.0523	5	C10H7NO+
161.0028	6	C9H4ClN+
174.0108	5	C10H5ClN+
175.0185	4	C10H6ClN+
