Mass spectrum: Triclabendazole; LC-ESI-QFT; MS2; CE: 75; R=35000; [M-H]-
Name: Triclabendazole
Name: Triclabendazol
Name: 6-chloro-5-(2,3-dichlorophenoxy)-2-methylsulfanyl-1H-benzimidazole
Formula: C14H9Cl3N2OS
Exact mass: 357.95012
SMILES: CSc1[nH]c2cc(c(cc2n1)Oc3cccc(c3Cl)Cl)Cl
InChI: InChI=1S/C14H9Cl3N2OS/c1-21-14-18-9-5-8(16)12(6-10(9)19-14)20-11-4-2-3-7(15)13(11)17/h2-6H,1H3,(H,18,19)
Instrument: Q Exactive Plus Orbitrap Thermo Scientific
Instrument type: LC-ESI-QFT
Ms type: MS2
Ion mode: NEGATIVE
Ionization: ESI
Fragmentation mode: HCD
Collision energy: 75 (nominal)
Resolution: 35000
Column name: XBridge C18 3.5um, 2.1x50mm, Waters
Retention time: 14.2 min
Base peak: 358.9395
Precursor m/z: 356.9428
Precursor type: [M-H]-
m/z	relative intensity	assigned
57.9757	114	CNS-
65.9985	5	C3NO-
102.0223	1	C6H2N2-
113.0147	2	C7HN2-
130.0172	5	C7H2N2O-
136.9911	1	C6H2ClN2-
152.9862	8	C6H2ClN2O-
160.9567	10	C6H3Cl2O-
165.9939	27	C7H3ClN2O-
167.0016	1	C7H4ClN2O-
179.0018	9	C8H4ClN2O-
196.9582	999	C7H2ClN2OS-
211.9817	7	C8H5ClN2OS-
341.9192	1	C13H5Cl3N2OS-
