Mass spectrum: N-Nitrosofenfluramine; LC-ESI-QFT; MS2; CE: 150; R=35000; [M+H]+
Name: N-Nitrosofenfluramine
Name: N-Ethyl-N-nitroso-1-[3-(trifluoromethyl)phenyl]-2-propanamine
Formula: C12H15F3N2O
Exact mass: 260.11365
SMILES: CCN(C(C)Cc1cccc(c1)C(F)(F)F)N=O
InChI: InChI=1S/C12H15F3N2O/c1-3-17(16-18)9(2)7-10-5-4-6-11(8-10)12(13,14)15/h4-6,8-9H,3,7H2,1-2H3
Instrument: Q Exactive Plus Orbitrap Thermo Scientific
Instrument type: LC-ESI-QFT
Ms type: MS2
Ion mode: POSITIVE
Ionization: ESI
Fragmentation mode: HCD
Collision energy: 150 (nominal)
Resolution: 35000
Column name: XBridge C18 3.5um, 2.1x50mm, Waters
Retention time: 10.0 min
Base peak: 261.1206
Precursor m/z: 261.1209
Precursor type: [M+H]+
m/z	relative intensity	assigned
50.0151	5	C4H2+
51.0229	3	C4H3+
53.0022	4	C3HO+
53.0385	2	C4H5+
53.9974	1	C2NO+
57.0135	94	C3H2F+
59.0291	54	C3H4F+
61.0072	1	C5H+
62.0151	13	C5H2+
63.0229	135	C5H3+
64.0307	13	C5H4+
65.0386	6	C5H5+
66.0464	3	C5H6+
68.9946	6	CF3+
69.0135	3	C4H2F+
74.0151	12	C6H2+
75.004	10	C3HF2+
75.0229	43	C6H3+
77.0021	44	C5HO+
77.0385	4	C6H5+
81.0135	10	C5H2F+
83.0291	740	C5H4F+
87.0229	3	C7H3+
89.0386	306	C7H5+
90.0464	62	C7H6+
91.0542	6	C7H7+
93.0135	49	C6H2F+
95.0292	5	C6H4F+
95.0491	6	C6H7O+
96.037	1	C6H5F+
98.0151	109	C8H2+
99.0229	321	C8H3+
101.0196	2	C5H3F2+
102.0463	1	C8H6+
103.0543	2	C8H7+
105.0448	3	C6H5N2+
107.0292	15	C7H4F+
108.037	7	C7H5F+
109.0448	999	C7H6F+
111.0239	3	C6H4FO+
112.0118	1	C6H2F2+
113.0197	12	C6H3F2+
113.0397	3	C6H6FO+
114.0274	2	C6H4F2+
115.0542	14	C9H7+
119.0292	48	C8H4F+
120.0369	4	C8H5F+
123.0353	5	C6H4FN2+
125.0198	3	C7H3F2+
125.0387	1	C10H5+
126.0463	1	C10H6+
127.0353	4	C7H5F2+
130.0649	2	C9H8N+
131.0303	5	C6H5F2O+
132.0181	7	C6H3F3+
133.026	7	C6H4F3+
137.0397	7	C8H6FO+
138.0275	15	C8H4F2+
139.0353	10	C8H5F2+
141.0258	32	C6H3F2N2+
146.0526	10	C10H7F+
147.0353	62	C8H4FN2+
151.0353	3	C9H5F2+
158.0338	5	C8H5F3+
159.0415	12	C8H6F3+
164.0433	1	C10H6F2+
166.0465	4	C9H6F2N+
179.0541	2	C10H7F2N+
