Mass spectrum: Chlorophacinone; LC-ESI-QFT; MS2; CE: 75%; R=17500; [M+H]+
Name: Chlorophacinone
Name: 2-[2-(4-chlorophenyl)-2-phenylacetyl]indene-1,3-dione
Formula: C23H15ClO3
Exact mass: 374.0710
SMILES: C1=CC=C(C=C1)C(C2=CC=C(C=C2)Cl)C(=O)C3C(=O)C4=CC=CC=C4C3=O
InChI: InChI=1S/C23H15ClO3/c24-16-12-10-15(11-13-16)19(14-6-2-1-3-7-14)23(27)20-21(25)17-8-4-5-9-18(17)22(20)26/h1-13,19-20H
Instrument: Exploris 240 Orbitrap Thermo Scientific
Instrument type: LC-ESI-QFT
Ms type: MS2
Ion mode: POSITIVE
Ionization: ESI
Fragmentation mode: HCD
Collision energy: 75 % (nominal)
Resolution: 17500
Column name: XBridge C18 3.5um, 2.1x50mm, Waters
Retention time: 14.480 min
Base peak: 375.0783
Precursor m/z: 375.0782
Precursor type: [M+H]+
m/z	relative intensity	assigned
77.0388	30	C6H5+
95.0491	60	C6H7O+
105.0336	276	C7H5O+
125.0152	17	C7H6Cl+
129.0337	188	C9H5O+
131.0491	26	C9H7O+
133.0287	58	C8H5O2+
138.995	43	C7H4ClO+
157.028	67	C10H5O2+
165.0104	14	C9H6ClO+
165.0701	123	C13H9+
166.0779	143	C13H10+
176.0624	22	C14H8+
177.0693	71	C14H9+
178.0778	999	C14H10+
179.0855	439	C14H11+
189.07	252	C15H9+
190.077	21	C15H10+
191.0854	17	C15H11+
193.0647	25	C14H9O+
194.0734	13	C14H10O+
205.0643	143	C15H9O+
206.073	129	C15H10O+
207.0804	357	C15H11O+
213.047	28	C14H10Cl+
216.0575	11	C16H8O+
217.0647	364	C16H9O+
218.0724	22	C16H10O+
223.0312	63	C15H8Cl+
233.0598	353	C16H9O2+
234.0675	124	C16H10O2+
235.0754	155	C16H11O2+
241.0418	79	C15H10ClO+
251.0259	102	C16H8ClO+
262.0615	32	C17H10O3+
265.1012	278	C21H13+
266.1088	31	C21H14+
276.0932	166	C22H12+
277.1006	88	C22H13+
278.1093	56	C22H14+
292.0884	53	C22H12O+
293.0959	141	C22H13O+
294.1033	55	C22H14O+
304.0891	113	C23H12O+
305.0968	32	C23H13O+
321.0913	182	C23H13O2+
