Mass spectrum: Orphenadrine; LC-ESI-QFT; MS2; CE: 180; R=35000; [M+H]+
Name: Orphenadrine
Name: N,N-dimethyl-2-[(2-methylphenyl)-phenylmethoxy]ethanamine
Formula: C18H23NO
Exact mass: 269.17796
SMILES: CC1=CC=CC=C1C(C2=CC=CC=C2)OCCN(C)C
InChI: InChI=1S/C18H23NO/c1-15-9-7-8-12-17(15)18(20-14-13-19(2)3)16-10-5-4-6-11-16/h4-12,18H,13-14H2,1-3H3
Instrument: Q Exactive Plus Orbitrap Thermo Scientific
Instrument type: LC-ESI-QFT
Ms type: MS2
Ion mode: POSITIVE
Ionization: ESI
Fragmentation mode: HCD
Collision energy: 180 (nominal)
Resolution: 35000
Column name: XBridge C18 3.5um, 2.1x50mm, Waters
Retention time: 7.4 min
Base peak: 270.1849
Precursor m/z: 270.1852
Precursor type: [M+H]+
m/z	relative intensity	assigned
50.0151	67	C4H2+
51.0229	101	C4H3+
53.0386	28	C4H5+
55.0179	1	C3H3O+
62.0151	38	C5H2+
63.0229	178	C5H3+
65.0386	137	C5H5+
74.015	18	C6H2+
75.0229	23	C6H3+
76.0307	20	C6H4+
77.0385	69	C6H5+
78.0464	41	C6H6+
79.0541	1	C6H7+
81.0336	2	C5H5O+
86.015	13	C7H2+
87.0229	37	C7H3+
88.0308	4	C7H4+
89.0386	241	C7H5+
91.0542	71	C7H7+
94.0414	1	C6H6O+
95.0491	97	C6H7O+
102.0464	56	C8H6+
103.0542	19	C8H7+
105.0447	56	C6H5N2+
113.0386	39	C9H5+
114.0463	5	C9H6+
115.0542	904	C9H7+
125.0386	3	C10H5+
126.0464	56	C10H6+
127.0542	10	C10H7+
128.0621	50	C10H8+
137.0387	9	C11H5+
138.0464	17	C11H6+
139.0542	471	C11H7+
140.062	11	C11H8+
141.0697	11	C11H9+
145.0647	5	C10H9O+
150.0464	45	C12H6+
151.0541	24	C12H7+
152.0621	154	C12H8+
153.0697	1	C12H9+
155.0602	10	C10H7N2+
162.0462	15	C13H6+
163.0542	545	C13H7+
164.062	418	C13H8+
165.0699	999	C13H9+
168.057	170	C12H8O+
169.0648	79	C12H9O+
176.062	105	C14H8+
177.0699	40	C14H9+
178.0777	63	C14H10+
179.0605	23	C12H7N2+
196.0519	57	C13H8O2+
