Mass spectrum: Valsartan; LC-ESI-ITFT; MS2; CE: 75%; R=7500; [M+H]+
Name: Valsartan
Name: (2S)-3-methyl-2-[1-oxopentyl-[[4-[2-(2H-tetrazol-5-yl)phenyl]phenyl]methyl]amino]butanoic acid
Formula: C24H29N5O3
Exact mass: 435.2270
SMILES: CCCCC(=O)N(CC1=CC=C(C=C1)C2=C(C=CC=C2)C3=NN=NN3)[C@@H](C(C)C)C(O)=O
InChI: InChI=1S/C24H29N5O3/c1-4-5-10-21(30)29(22(16(2)3)24(31)32)15-17-11-13-18(14-12-17)19-8-6-7-9-20(19)23-25-27-28-26-23/h6-9,11-14,16,22H,4-5,10,15H2,1-3H3,(H,31,32)(H,25,26,27,28)/t22-/m0/s1
Instrument: LTQ Orbitrap XL Thermo Scientific
Instrument type: LC-ESI-ITFT
Ms type: MS2
Ion mode: POSITIVE
Ionization: ESI
Fragmentation mode: HCD
Collision energy: 75 % (nominal)
Resolution: 7500
Column name: XBridge C18 3.5um, 2.1x50mm, Waters
Retention time: 11.2 min
Base peak: 436.2337
Precursor m/z: 436.2343
Precursor type: [M+H]+
m/z	relative intensity	assigned
77.0387	26	C6H5+
80.0494	16	C5H6N+
105.0448	19	C6H5N2+
115.0543	17	C9H7+
116.0494	5	C8H6N+
117.0568	5	C8H7N+
129.0448	16	C8H5N2+
129.0696	5	C10H9+
139.0538	8	C11H7+
140.0496	73	C10H6N+
141.0568	4	C10H7N+
141.0696	12	C11H9+
151.0541	46	C12H7+
152.0621	196	C12H8+
153.0699	463	C12H9+
154.0651	21	C11H8N+
155.0604	16	C10H7N2+
163.0544	90	C13H7+
164.0624	19	C13H8+
165.0699	158	C13H9+
166.065	40	C12H8N+
167.0729	46	C12H9N+
168.068	29	C11H8N2+
169.0646	11	C12H9O+
176.0617	5	C14H8+
177.0574	23	C13H7N+
177.0701	18	C14H9+
178.0778	474	C14H10+
179.073	173	C13H9N+
180.0808	999	C13H10N+
183.067	7	C12H9NO+
189.0581	9	C14H7N+
190.0652	665	C14H8N+
191.073	149	C14H9N+
192.0685	361	C13H8N2+
193.0886	41	C14H11N+
194.0609	12	C13H8NO+
194.0967	22	C14H12N+
195.0801	8	C14H11O+
196.0755	25	C13H10NO+
205.0761	443	C14H9N2+
206.0838	448	C14H10N2+
207.0917	308	C14H11N2+
208.0757	88	C14H10NO+
209.1072	6	C14H13N2+
210.0915	20	C14H12NO+
