Mass spectrum: Flurenol; LC-ESI-QFT; MS2; CE: 60; R=35000; [M-H]-
Name: Flurenol
Name: 9-Hydroxyfluorene-9-carboxylic acid
Name: 9-hydroxy-9-fluorenecarboxylic acid
Formula: C14H10O3
Exact mass: 226.06299
SMILES: O=C(O)C3(O)c1ccccc1c2c3cccc2
InChI: InChI=1S/C14H10O3/c15-13(16)14(17)11-7-3-1-5-9(11)10-6-2-4-8-12(10)14/h1-8,17H,(H,15,16)
Instrument: Q Exactive Orbitrap Thermo Scientific
Instrument type: LC-ESI-QFT
Ms type: MS2
Ion mode: NEGATIVE
Ionization: ESI
Fragmentation mode: HCD
Collision energy: 60 (nominal)
Resolution: 35000
Column name: XBridge C18 3.5um, 2.1x50mm, Waters
Retention time: 6.3 min
Base peak: 195.0452
Precursor m/z: 225.0557
Precursor type: [M-H]-
m/z	relative intensity	assigned
141.0707	36	C11H9-
169.0657	126	C12H9O-
180.0581	598	C13H8O-
181.0658	306	C13H9O-
185.0609	43	C12H9O2-
195.0451	874	C13H7O2-
197.0604	106	C13H9O2-
213.0556	999	C13H9O3-
