Mass spectrum: 2,6-Dichlorobenzamide; LC-ESI-ITFT; MS2; CE: 75%; R=15000; [M+H]+
Name: 2,6-Dichlorobenzamide
Name: 2,6-bis(chloranyl)benzamide
Formula: C7H5Cl2NO
Exact mass: 188.9748
SMILES: ClC1=C(C(N)=O)C(Cl)=CC=C1
InChI: InChI=1S/C7H5Cl2NO/c8-4-2-1-3-5(9)6(4)7(10)11/h1-3H,(H2,10,11)
Instrument: LTQ Orbitrap XL Thermo Scientific
Instrument type: LC-ESI-ITFT
Ms type: MS2
Ion mode: POSITIVE
Ionization: ESI
Fragmentation mode: HCD
Collision energy: 75 % (nominal)
Resolution: 15000
Column name: XBridge C18 3.5um, 2.1x50mm, Waters
Retention time: 4.0 min
Base peak: 189.9823
Precursor m/z: 189.9821
Precursor type: [M+H]+
m/z	relative intensity	assigned
63.0229	2	C5H3+
74.0148	1	C6H2+
84.9602	1	CH3Cl2+
84.9839	8	C4H2Cl+
86.9631	4	C3ClO+
90.0338	6	C6H4N+
100.018	2	C7H2N+
108.9838	17	C6H2Cl+
112.9787	2	C5H2ClO+
118.0284	1	C7H4NO+
120.9606	5	C4H3Cl2+
126.9945	2	C6H4ClO+
128.0024	3	C6H5ClO+
135.9949	1	C7H3ClN+
139.0056	11	C6H4ClN2+
144.9604	16	C6H3Cl2+
146.9761	5	C6H5Cl2+
154.0051	2	C7H5ClNO+
155.0007	1	C6H4ClN2O+
162.9708	4	C6H5Cl2O+
164.0009	43	C7H3ClN3+
171.9715	60	C7H4Cl2N+
172.9555	999	C7H3Cl2O+
172.9666	340	C6H3Cl2N2+
173.9635	3	C7H4Cl2O+
189.9819	21	C7H6Cl2NO+
