Mass spectrum: Flunixine; LC-ESI-QFT; MS2; CE: 180; R=35000; [M+H]+
Name: Flunixine
Name: Banamine
Name: 2-[2-methyl-3-(trifluoromethyl)anilino]pyridine-3-carboxylic acid
Formula: C14H11F3N2O2
Exact mass: 296.07726
SMILES: CC1=C(C=CC=C1NC2=C(C=CC=N2)C(=O)O)C(F)(F)F
InChI: InChI=1S/C14H11F3N2O2/c1-8-10(14(15,16)17)5-2-6-11(8)19-12-9(13(20)21)4-3-7-18-12/h2-7H,1H3,(H,18,19)(H,20,21)
Instrument: Q Exactive Plus Orbitrap Thermo Scientific
Instrument type: LC-ESI-QFT
Ms type: MS2
Ion mode: POSITIVE
Ionization: ESI
Fragmentation mode: HCD
Collision energy: 180 (nominal)
Resolution: 35000
Column name: XBridge C18 3.5um, 2.1x50mm, Waters
Retention time: 10.9 min
Base peak: 297.0837
Precursor m/z: 297.0845
Precursor type: [M+H]+
m/z	relative intensity	assigned
50.0151	89	C4H2+
51.0229	49	C4H3+
52.0182	22	C3H2N+
52.0308	7	C4H4+
53.0022	26	C3HO+
53.0386	43	C4H5+
53.9974	10	C2NO+
56.0495	1	C3H6N+
57.0135	582	C3H2F+
59.0292	111	C3H4F+
61.0072	43	C5H+
62.0151	135	C5H2+
63.0229	638	C5H3+
64.0182	26	C4H2N+
64.0307	20	C5H4+
65.0022	13	C4HO+
65.026	13	C4H3N+
65.0386	47	C5H5+
66.0338	12	C4H4N+
66.0463	3	C5H6+
67.0417	13	C4H5N+
67.9893	3	C3O2+
68.9947	34	CF3+
69.0135	21	C4H2F+
74.0151	182	C6H2+
75.004	66	C3HF2+
75.0229	244	C6H3+
76.0181	43	C5H2N+
76.0307	23	C6H4+
77.0021	26	C5HO+
77.0385	68	C6H5+
78.0338	90	C5H4N+
78.0464	17	C6H6+
79.0178	6	C5H3O+
79.0417	14	C5H5N+
79.0542	13	C6H7+
80.0495	6	C5H6N+
81.0135	96	C5H2F+
81.0335	8	C5H5O+
82.0213	7	C5H3F+
83.0291	999	C5H4F+
84.037	8	C5H5F+
85.0071	13	
86.0151	72	C7H2+
87.0229	169	C7H3+
88.0119	23	C4H2F2+
88.0182	61	C6H2N+
88.0307	62	C7H4+
89.0386	300	C7H5+
90.0338	24	C6H4N+
90.0464	17	C7H6+
91.0417	7	C6H5N+
91.0542	6	C7H7+
92.0057	26	C6HF+
92.0256	2	C6H4O+
92.037	18	C5H4N2+
92.0493	2	C6H6N+
93.0135	155	C6H2F+
93.0447	9	C5H5N2+
94.0214	21	C6H3F+
95.0291	12	C6H4F+
95.0491	104	C6H7O+
96.0443	57	C5H6NO+
98.0151	756	C8H2+
99.0041	27	
99.0229	436	C8H3+
100.0181	41	C7H2N+
100.0308	11	C8H4+
101.0197	10	C5H3F2+
101.0386	18	C8H5+
102.0339	18	C7H4N+
102.0464	25	C8H6+
103.0291	6	C6H3N2+
103.0416	3	C7H5N+
103.0542	13	C8H7+
104.0494	16	C7H6N+
105.0135	25	C7H2F+
105.0447	86	C6H5N2+
106.0213	45	C7H3F+
106.0651	15	C7H8N+
107.0292	164	C7H4F+
108.0369	34	C7H5F+
109.0448	217	C7H6F+
110.015	14	
111.0229	42	C9H3+
112.012	18	C6H2F2+
112.0182	26	C8H2N+
112.0308	15	C9H4+
113.0386	359	C9H5+
114.028	14	C6H4F2+
114.0338	117	C8H4N+
114.0464	9	C9H6+
115.0416	26	C8H5N+
115.0542	21	C9H7+
116.0495	6	C8H6N+
117.0134	15	C8H2F+
117.0572	3	C8H7N+
118.0213	14	C8H3F+
118.0525	3	C7H6N2+
119.0101	3	C5H2F3+
119.0292	9	C8H4F+
119.0492	15	C8H7O+
120.0206	2	C7H4O2+
120.0369	8	C8H5F+
120.0444	7	C7H6NO+
122.015	22	C10H2+
123.0103	15	C9HN+
123.0229	45	C10H3+
123.0352	24	C6H4FN2+
124.0182	51	C9H2N+
124.0556	3	C7H7FN+
125.0198	41	C7H3F2+
125.0386	49	C10H5+
126.0464	139	C10H6+
127.0354	21	C7H5F2+
127.0416	25	C9H5N+
127.0542	78	C10H7+
128.0495	55	C9H6N+
128.062	8	C10H8+
129.0447	71	C8H5N2+
130.0401	15	C7H4N3+
131.0292	157	C9H4F+
132.0189	18	
132.0243	28	C8H3FN+
132.037	44	C9H5F+
132.0444	8	C8H6NO+
133.0264	2	C6H4F3+
133.0323	6	C8H4FN+
133.0448	33	C9H6F+
134.0401	7	C8H5FN+
135.0229	2	C11H3+
135.0478	12	C8H6FN+
136.0188	1	C10H2N+
136.0315	13	C8H5FO+
136.0431	1	C7H5FN2+
137.0387	44	C11H5+
138.0276	35	C8H4F2+
138.0338	72	C10H4N+
139.023	3	C7H3F2N+
139.0417	38	C10H5N+
139.054	24	C11H7+
140.0495	261	C10H6N+
141.0135	17	C10H2F+
141.0259	15	C6H3F2N2+
141.0447	7	C9H5N2+
141.0571	3	C10H7N+
142.0213	12	C10H3F+
142.0526	7	C9H6N2+
143.0105	19	C7H2F3+
143.0292	28	C10H4F+
143.0363	3	C9H5NO+
143.0489	12	
144.0246	3	C9H3FN+
144.0369	12	C10H5F+
144.0446	2	C9H6NO+
145.026	21	C7H4F3+
145.0323	3	C9H4FN+
145.0648	36	C10H9O+
146.0151	14	C12H2+
146.0402	6	C9H5FN+
146.06	12	C9H8NO+
147.0103	21	
147.0231	8	C12H3+
147.0353	9	C8H4FN2+
148.0181	35	C11H2N+
148.0305	10	C12H4+
149.0197	11	C9H3F2+
150.0151	5	C8H2F2N+
150.034	10	C11H4N+
150.0475	2	C9H7FO+
151.0354	24	C9H5F2+
151.0417	12	C11H5N+
152.0494	38	C11H6N+
153.0446	14	C10H5N2+
153.0573	73	C11H7N+
154.0652	43	C11H8N+
155.0291	39	C11H4F+
155.0604	109	C10H7N2+
156.0181	8	C8H3F3+
156.0244	12	C10H3FN+
156.037	10	C11H5F+
156.0434	2	C8H4N4+
157.0262	3	C8H4F3+
157.0448	48	C11H6F+
157.0522	28	C10H7NO+
158.0401	165	C10H5FN+
159.0479	6	C10H6FN+
159.0552	3	C9H7N2O+
160.043	3	C9H5FN2+
161.0197	12	C10H3F2+
161.0396	2	C10H6FO+
162.0275	36	C10H4F2+
162.034	18	C12H4N+
163.0227	7	C9H3F2N+
163.0356	2	C10H5F2+
163.0417	9	C12H5N+
164.0307	3	C9H4F2N+
164.0494	51	C12H6N+
165.0383	3	C9H5F2N+
165.0445	23	C11H5N2+
165.0568	2	C12H7N+
166.0462	6	C9H6F2N+
166.0526	61	C11H6N2+
167.0295	2	C12H4F+
167.0415	6	C8H5F2N2+
167.0603	9	C11H7N2+
168.0244	12	C11H3FN+
168.0369	6	C12H5F+
168.0443	7	C11H6NO+
169.0257	5	C9H4F3+
169.0325	9	C11H4FN+
170.0211	10	C8H3F3N+
170.0401	6	C11H5FN+
170.0601	42	C11H8NO+
171.0352	2	C10H4FN2+
171.0482	2	C11H6FN+
172.0306	2	C14H4+
175.0354	15	C11H5F2+
176.0305	10	C10H4F2N+
177.0445	2	C12H5N2+
178.0402	2	C11H4N3+
179.0604	135	C12H7N2+
180.0556	11	C11H6N3+
180.0682	8	C12H8N2+
181.0257	2	C10H4F3+
181.0761	15	C12H9N2+
182.0338	5	C10H5F3+
182.0402	71	C12H5FN+
183.0358	2	C11H4FN2+
183.048	7	C12H6FN+
183.0555	3	C11H7N2O+
184.0553	2	C12H7FN+
186.0276	7	C12H4F2+
186.035	6	C11H5FNO+
186.0592	2	C11H7FN2+
187.0228	6	C11H3F2N+
188.0307	6	C11H4F2N+
188.0506	6	C11H7FNO+
189.0383	9	C11H5F2N+
189.0452	7	C13H5N2+
190.0454	3	C11H6F2N+
190.0528	1	C10H7FN2O+
191.0412	11	C10H5F2N2+
193.0325	7	C13H4FN+
195.0554	2	C12H7N2O+
197.0509	9	C12H6FN2+
200.0307	7	C12H4F2N+
202.0464	2	C12H6F2N+
206.0408	3	C11H6F2NO+
207.029	7	C11H4F3N+
209.0512	9	C13H6FN2+
210.0588	3	C13H7FN2+
215.0413	7	C12H5F2N2+
217.0569	2	C12H7F2N2+
228.0492	3	C13H6F2N2+
235.0476	2	C12H6F3N2+
