Mass spectrum: Theophyline; LC-ESI-QFT; MS2; CE: 120; R=35000; [M-H]-
Name: Theophyline
Name: Theophylline
Name: 1,3-dimethyl-7H-purine-2,6-dione
Formula: C7H8N4O2
Exact mass: 180.06473
SMILES: CN1C2=C(C(=O)N(C1=O)C)NC=N2
InChI: InChI=1S/C7H8N4O2/c1-10-5-4(8-3-9-5)6(12)11(2)7(10)13/h3H,1-2H3,(H,8,9)
Instrument: Q Exactive Plus Orbitrap Thermo Scientific
Instrument type: LC-ESI-QFT
Ms type: MS2
Ion mode: NEGATIVE
Ionization: ESI
Fragmentation mode: HCD
Collision energy: 120 (nominal)
Resolution: 35000
Column name: XBridge C18 3.5um, 2.1x50mm, Waters
Retention time: 3.1 min
Base peak: 179.0573
Precursor m/z: 179.0574
Precursor type: [M-H]-
m/z	relative intensity	assigned
50.0035	1	C3N-
55.0302	49	C2H3N2-
64.0068	7	C3N2-
65.0146	52	C3HN2-
65.9986	999	C3NO-
66.0098	56	C2N3-
67.0302	143	C3H3N2-
68.0142	6	C3H2NO-
69.0095	133	C2HN2O-
79.0177	693	C3HN3-
80.0255	3	C3H2N3-
81.0333	5	C3H3N3-
92.0255	203	C4H2N3-
94.0411	386	C4H4N3-
95.0251	8	C4H3N2O-
107.0126	110	C4HN3O-
108.0204	32	C4H2N3O-
109.0281	15	C4H3N3O-
120.0204	32	C5H2N3O-
121.0283	8	C5H3N3O-
122.0361	164	C5H4N3O-
123.0076	27	C4HN3O2-
124.0154	3	C4H2N3O2-
126.0308	4	C4H4N3O2-
135.0076	169	C5HN3O2-
135.0314	344	C5H3N4O-
136.0391	12	C5H4N4O-
164.0342	78	C6H4N4O2-
