Mass spectrum: Fenhexamid; LC-ESI-QFT; MS2; CE: 75; R=35000; [M-H]-
Name: Fenhexamid
Name: N-(2,3-dichloro-4-hydroxy-phenyl)-1-methyl-cyclohexanecarboxamide
Formula: C14H17Cl2NO2
Exact mass: 301.06363
SMILES: O=C(Nc1ccc(O)c(Cl)c1Cl)C2(C)CCCCC2
InChI: InChI=1S/C14H17Cl2NO2/c1-14(7-3-2-4-8-14)13(19)17-9-5-6-10(18)12(16)11(9)15/h5-6,18H,2-4,7-8H2,1H3,(H,17,19)
Instrument: Q Exactive Orbitrap Thermo Scientific
Instrument type: LC-ESI-QFT
Ms type: MS2
Ion mode: NEGATIVE
Ionization: ESI
Fragmentation mode: HCD
Collision energy: 75 (nominal)
Resolution: 35000
Column name: XBridge C18 3.5um, 2.1x50mm, Waters
Retention time: 11.6 min
Base peak: 300.0566
Precursor m/z: 300.0564
Precursor type: [M-H]-
m/z	relative intensity	assigned
103.0064	24	C6HNO-
120.0091	10	C6H2NO2-
132.0092	15	C7H2NO2-
138.9831	196	C6H2ClNO-
154.9778	14	C6H2ClNO2-
155.9858	101	C6H3ClNO2-
157.0531	36	C10H7NO-
159.0325	19	C9H5NO2-
161.0486	4	C9H7NO2-
166.9779	97	C7H2ClNO2-
167.9857	122	C7H3ClNO2-
168.0818	7	C12H10N-
170.0255	5	C10H4NO2-
172.0402	7	C10H6NO2-
174.9596	63	C6H3Cl2NO-
180.9937	225	C8H4ClNO2-
182.9728	24	C7H2ClNO3-
184.0404	35	C11H6NO2-
184.0767	57	C12H10NO-
185.0482	52	C11H7NO2-
185.0846	115	C12H11NO-
191.986	24	C9H3ClNO2-
192.9936	153	C9H4ClNO2-
194.0014	175	C9H5ClNO2-
195.0093	154	C9H6ClNO2-
198.0559	7	C12H8NO2-
200.0719	21	C12H10NO2-
200.1082	27	C13H14NO-
203.0952	16	C12H13NO2-
206.0012	4	C10H5ClNO2-
207.0091	41	C10H6ClNO2-
208.0171	94	C10H7ClNO2-
212.0717	160	C13H10NO2-
213.0796	115	C13H11NO2-
216.0666	8	C12H10NO3-
220.017	354	C11H7ClNO2-
221.0248	696	C11H8ClNO2-
228.1032	21	C14H14NO2-
234.0324	45	C12H9ClNO2-
248.0484	999	C13H11ClNO2-
249.0562	691	C13H12ClNO2-
264.0797	397	C14H15ClNO2-
