Mass spectrum: Cefalexin; LC-ESI-QFT; MS2; CE: 30; R=35000; [M+H]+
Name: Cefalexin
Name: 7-[(2-amino-1-oxo-2-phenylethyl)amino]-3-methyl-8-oxo-5-thia-1-azabicyclo[4.2.0]oct-2-ene-2-carboxylic acid
Formula: C16H17N3O4S
Exact mass: 347.09398
SMILES: CC1=C(N2C(C(C2=O)NC(=O)C(C3=CC=CC=C3)N)SC1)C(=O)O
InChI: InChI=1S/C16H17N3O4S/c1-8-7-24-15-11(14(21)19(15)12(8)16(22)23)18-13(20)10(17)9-5-3-2-4-6-9/h2-6,10-11,15H,7,17H2,1H3,(H,18,20)(H,22,23)
Instrument: Q Exactive Orbitrap Thermo Scientific
Instrument type: LC-ESI-QFT
Ms type: MS2
Ion mode: POSITIVE
Ionization: ESI
Fragmentation mode: HCD
Collision energy: 30 (nominal)
Resolution: 35000
Column name: XBridge C18 3.5um, 2.1x50mm, Waters
Retention time: 4.4 min
Base peak: 348.1015
Precursor m/z: 348.1013
Precursor type: [M+H]+
m/z	relative intensity	assigned
68.0494	67	C4H6N+
70.0651	6	C4H8N+
72.998	6	C2H3NS+
74.0059	5	C2H4NS+
79.0542	9	C6H7+
82.0651	3	C5H8N+
91.0542	28	C7H7+
106.0651	614	C7H8N+
109.0759	1	C6H9N2+
112.0215	8	C5H6NS+
114.0008	80	C4H4NOS+
114.055	10	C5H8NO2+
117.0571	1	C8H7N+
118.0412	5	C8H6O+
118.0651	44	C8H8N+
119.0491	15	C8H7O+
123.0264	1	C7H7S+
126.0372	5	C6H8NS+
126.0549	8	C6H8NO2+
128.0496	1	C9H6N+
132.081	1	C9H10N+
133.076	7	C8H9N2+
134.06	7	C8H8NO+
139.0325	1	C6H7N2S+
140.0342	35	C6H6NO3+
141.0484	3	C6H9N2S+
142.0559	1	C6H10N2S+
146.06	28	C9H8NO+
147.0265	3	C9H7S+
150.0372	7	C8H8NS+
158.0271	999	C6H8NO2S+
160.0426	12	C6H10NO2S+
161.071	9	C9H9N2O+
162.0371	13	C9H8NS+
164.0528	43	C9H10NS+
167.0273	5	C7H7N2OS+
170.0272	1	C7H8NO2S+
173.0712	3	C10H9N2O+
174.055	574	C10H8NO2+
178.0322	20	C9H8NOS+
185.0378	9	C7H9N2O2S+
186.0457	34	C7H10N2O2S+
187.0538	4	C7H11N2O2S+
190.0321	14	C10H8NOS+
190.0977	3	C10H12N3O+
191.04	26	C10H9NOS+
191.0815	1	C10H11N2O2+
192.0477	125	C10H10NOS+
207.0587	8	C10H11N2OS+
214.0686	5	C13H12NS+
218.0271	4	C11H8NO2S+
229.08	1	C13H13N2S+
229.0977	1	C13H13N2O2+
231.0948	1	C13H15N2S+
242.0636	7	C14H12NOS+
242.1291	3	C14H16N3O+
257.0745	9	C14H13N2OS+
257.0919	5	C14H13N2O3+
259.0905	1	C14H15N2OS+
274.1008	1	C14H16N3OS+
286.0533	6	C15H12NO3S+
286.1193	1	C15H16N3O3+
287.0851	3	C15H15N2O2S+
303.0799	1	C15H15N2O3S+
