Mass spectrum: Pendimethalin; LC-ESI-QFT; MS2; CE: 90; R=35000; [M+H]+
Name: Pendimethalin
Name: (3,4-dimethyl-2,6-dinitro-phenyl)-(1-ethylpropyl)amine
Formula: C13H19N3O4
Exact mass: 281.13756
SMILES: [O-][N+](=O)c1c(c(cc([N+]([O-])=O)c1NC(CC)CC)C)C
InChI: InChI=1S/C13H19N3O4/c1-5-10(6-2)14-12-11(15(17)18)7-8(3)9(4)13(12)16(19)20/h7,10,14H,5-6H2,1-4H3
Instrument: Q Exactive Orbitrap Thermo Scientific
Instrument type: LC-ESI-QFT
Ms type: MS2
Ion mode: POSITIVE
Ionization: ESI
Fragmentation mode: HCD
Collision energy: 90 (nominal)
Resolution: 35000
Column name: XBridge C18 3.5um, 2.1x50mm, Waters
Retention time: 16.0 min
Base peak: 212.0667
Precursor m/z: 282.1448
Precursor type: [M+H]+
m/z	relative intensity	assigned
50.0153	31	C4H2+
51.023	23	C4H3+
52.0183	41	C3H2N+
53.0023	49	C3HO+
53.0387	52	C4H5+
53.9975	20	C2NO+
54.0339	20	C3H4N+
56.0496	9	C3H6N+
63.023	121	C5H3+
64.0182	35	C4H2N+
64.0308	103	C5H4+
65.026	64	C4H3N+
65.0386	990	C5H5+
66.0212	29	C3H2N2+
66.0339	219	C4H4N+
66.0464	279	C5H6+
67.0178	22	C4H3O+
67.0291	21	C3H3N2+
67.0417	167	C4H5N+
67.0542	38	C5H7+
68.0131	37	C3H2NO+
68.0495	56	C4H6N+
69.0083	14	C2HN2O+
69.0336	8	C4H5O+
69.9924	21	C2NO2+
71.0855	9	C5H11+
76.0182	62	C5H2N+
76.0308	49	C6H4+
77.026	140	C5H3N+
77.0386	38	C6H5+
78.0339	439	C5H4N+
78.0464	54	C6H6+
79.0291	34	C4H3N2+
79.0417	73	C5H5N+
79.0543	158	C6H7+
80.0495	441	C5H6N+
81.0335	97	C5H5O+
81.0448	7	C4H5N2+
81.0573	69	C5H7N+
82.0288	11	C4H4NO+
82.0413	7	C5H6O+
83.0366	9	C4H5NO+
83.0492	8	C5H7O+
89.0386	92	C7H5+
90.0338	197	C6H4N+
90.0464	76	C7H6+
91.0417	779	C6H5N+
91.0542	204	C7H7+
92.037	83	C5H4N2+
92.0495	999	C6H6N+
93.0083	33	C4HN2O+
93.0335	11	C6H5O+
93.0448	153	C5H5N2+
93.0573	189	C6H7N+
94.0288	57	C5H4NO+
94.0413	31	C6H6O+
94.0527	11	C5H6N2+
94.0652	107	C6H8N+
95.0492	345	C6H7O+
95.0603	25	C5H7N2+
96.0444	182	C5H6NO+
96.057	62	C6H8O+
97.0522	7	C5H7NO+
98.0599	8	C5H8NO+
102.0339	27	C7H4N+
103.0293	45	C6H3N2+
103.0417	414	C7H5N+
104.0371	62	C6H4N2+
104.0495	391	C7H6N+
105.0447	614	C6H5N2+
106.0287	49	C6H4NO+
106.0411	8	C7H6O+
106.0526	60	C6H6N2+
106.0652	75	C7H8N+
107.0365	23	C6H5NO+
107.0604	54	C6H7N2+
108.0444	89	C6H6NO+
109.0397	44	C5H5N2O+
109.0522	50	C6H7NO+
110.0601	189	C6H8NO+
116.0495	73	C8H6N+
117.0447	175	C7H5N2+
117.0573	59	C8H7N+
118.0525	163	C7H6N2+
118.0651	196	C8H8N+
119.0604	993	C7H7N2+
120.0191	75	C5H2N3O+
120.0444	150	C7H6NO+
120.0558	36	C6H6N3+
120.0682	216	C7H8N2+
121.0034	5	C5HN2O2+
121.0396	102	C6H5N2O+
121.0521	26	C7H7NO+
121.0761	5	C7H9N2+
122.0475	76	C6H6N2O+
122.0601	26	C7H8NO+
123.0554	11	C6H7N2O+
126.055	11	C6H8NO2+
129.0448	227	C8H5N2+
130.0401	100	C7H4N3+
130.0526	45	C8H6N2+
131.0604	258	C8H7N2+
132.032	10	C7H4N2O+
132.0556	105	C7H6N3+
133.0397	79	C7H5N2O+
133.0634	36	C7H7N3+
134.0476	20	C7H6N2O+
134.06	24	C8H8NO+
135.0553	125	C7H7N2O+
136.0392	61	C7H6NO2+
136.0632	22	C7H8N2O+
137.071	8	C7H9N2O+
138.0297	86	C5H4N3O2+
145.04	21	C8H5N2O+
147.0554	237	C8H7N2O+
148.0505	26	C7H6N3O+
148.0631	485	C8H8N2O+
149.0585	37	C7H7N3O+
149.0711	28	C8H9N2O+
150.0425	11	C7H6N2O2+
150.0664	19	C7H8N3O+
151.05	58	C7H7N2O2+
159.0428	6	C8H5N3O+
160.0505	61	C8H6N3O+
162.03	9	C7H4N3O2+
163.0502	206	C8H7N2O2+
164.0586	8	C8H8N2O2+
165.0662	11	C8H9N2O2+
176.0457	41	C8H6N3O2+
177.0532	37	C8H7N3O2+
178.0612	97	C8H8N3O2+
179.0455	7	C8H7N2O3+
194.056	10	C8H8N3O3+
195.0639	5	C8H9N3O3+
