Mass spectrum: Nystatin; LC-ESI-QFT; MS2; CE: 90; R=35000; [M+H]+
Name: Nystatin
Name: (1S,3R,4R,7R,9R,11R,15S,16R,17R,18S,19E,21E,25E,27E,29E,31E,33R,35S,36R,37S)-33-[(3-Amino-3,6-dideoxy-?-D-mannopyranosyl)oxy]-1,3,4,7,9,11,17,37-octahydroxy-15,16,18-trimethyl-13-oxo-14,39-dioxabic yclo[33.3.1]nonatriaconta-19,21,25,27,29,31-hexaene-36-carboxylic acid
Formula: C47H75NO17
Exact mass: 925.50350
SMILES: CC1C=CC=CCCC=CC=CC=CC=CC(CC2C(C(CC(O2)(CC(C(CCC(CC(CC(CC(=O)OC(C(C1O)C)C)O)O)O)O)O)O)O)C(=O)O)OC3C(C(C(C(O3)C)O)N)O
InChI: InChI=1S/C47H75NO17/c1-27-17-15-13-11-9-7-5-6-8-10-12-14-16-18-34(64-46-44(58)41(48)43(57)30(4)63-46)24-38-40(45(59)60)37(54)26-47(61,65-38)25-36(53)35(52)20-19-31(49)21-32(50)22-33(51)23-39(55)62-29(3)28(2)42(27)56/h5-6,8,10-18,27-38,40-44,46,49-54,56-58,61H,7,9,19-26,48H2,1-4H3,(H,59,60)/b6-5+,10-8+,13-11+,14-12+,17-15+,18-16+/t27-,28-,29-,30+,31+,32+,33+,34-,35+,36+,37-,38-,40+,41-,42+,43+,44-,46-,47+/m0/s1
Instrument: Q Exactive Orbitrap Thermo Scientific
Instrument type: LC-ESI-QFT
Ms type: MS2
Ion mode: POSITIVE
Ionization: ESI
Fragmentation mode: HCD
Collision energy: 90 (nominal)
Resolution: 35000
Column name: XBridge C18 3.5um, 2.1x50mm, Waters
Retention time: 11.6 min
Base peak: 926.5109
Precursor m/z: 926.5108
Precursor type: [M+H]+
m/z	relative intensity	assigned
128.0621	999	C10H8+
129.0656	40	
129.0699	611	C10H9+
130.0734	23	C5H10N2O2+
130.0779	60	C10H10+
131.0492	142	C9H7O+
131.0856	182	C10H11+
132.057	25	C9H8O+
132.0888	5	C5H12N2O2+
133.0285	16	C8H5O2+
133.0649	106	C9H9O+
133.1012	25	C10H13+
135.0442	39	C8H7O2+
135.0806	17	C9H11O+
137.0596	7	C8H9O2+
139.0391	16	C7H7O3+
139.0544	15	C11H7+
141.0699	528	C11H9+
142.0732	15	C6H10N2O2+
142.078	136	C11H10+
143.0857	159	C11H11+
144.057	42	C10H8O+
144.0889	2	C6H12N2O2+
144.0937	14	C11H12+
145.065	238	C10H9O+
145.1013	42	C11H13+
146.0682	8	C5H10N2O3+
147.0442	111	C9H7O2+
147.0805	52	C10H11O+
148.0475	3	C4H8N2O4+
149.0234	3	C8H5O3+
149.0601	23	C9H9O2+
149.0964	3	C10H13O+
151.0391	64	C8H7O3+
151.0756	4	C9H11O2+
152.0622	334	C12H8+
153.0701	444	C12H9+
154.078	183	C12H10+
155.0495	21	C11H7O+
155.0605	121	C10H7N2+
155.0856	243	C12H11+
156.0573	4	C11H8O+
156.0941	26	C12H12+
157.0649	91	C11H9O+
157.1014	49	C12H13+
158.0729	7	C11H10O+
159.0443	14	C10H7O2+
159.0806	21	C11H11O+
159.1171	4	C12H15+
160.052	7	C10H8O2+
161.06	20	C10H9O2+
161.0959	3	C11H13O+
163.0388	4	C9H7O3+
163.0542	5	C13H7+
164.0623	16	C13H8+
165.07	677	C13H9+
166.0781	191	C13H10+
167.0857	219	C13H11+
168.0571	26	C12H8O+
168.0941	41	C13H12+
169.0649	89	C12H9O+
169.1013	75	C13H13+
170.073	5	C12H10O+
170.1093	4	C13H14+
171.0806	41	C12H11O+
171.1169	4	C13H15+
173.06	21	C11H9O2+
173.0964	6	C12H13O+
175.0391	26	C10H7O3+
175.0753	12	C11H11O2+
176.062	16	C14H8+
177.0547	5	C10H9O3+
177.07	33	C14H9+
178.0778	422	C14H10+
179.0859	236	C14H11+
180.094	46	C14H12+
181.065	75	C13H9O+
181.1014	88	C14H13+
182.1095	7	C14H14+
183.0807	34	C13H11O+
183.117	19	C14H15+
185.06	19	C12H9O2+
185.0964	5	C13H13O+
187.0757	4	C12H11O2+
189.0701	130	C15H9+
190.078	99	C15H10+
191.0857	210	C15H11+
192.0937	88	C15H12+
193.1015	97	C15H13+
194.0728	25	C14H10O+
194.109	13	C15H14+
195.0807	51	C14H11O+
195.1168	31	C15H15+
196.0889	5	C14H12O+
197.0596	12	C13H9O2+
197.0962	16	C14H13O+
197.1326	4	C15H17+
199.0752	6	C13H11O2+
201.0546	3	C12H9O3+
201.0913	3	C13H13O2+
202.0778	209	C16H10+
203.0857	211	C16H11+
204.094	69	C16H12+
205.065	18	C15H9O+
205.1016	77	C16H13+
206.0727	16	C15H10O+
206.1088	17	C16H14+
207.0808	33	C15H11O+
207.1172	27	C16H15+
208.0883	5	C15H12O+
208.1253	3	C16H16+
209.0595	3	C14H9O2+
209.0963	7	C15H13O+
209.1328	4	C16H17+
210.0677	2	C14H10O2+
211.0752	5	C14H11O2+
213.0545	3	C13H9O3+
215.0858	168	C17H11+
216.094	69	C17H12+
217.1014	88	C17H13+
218.0726	16	C16H10O+
218.1096	22	C17H14+
219.0806	40	C16H11O+
219.1171	25	C17H15+
220.0879	4	C16H12O+
221.096	21	C16H13O+
221.1331	3	C17H17+
223.0756	5	C15H11O2+
223.1115	3	C16H15O+
226.0781	30	C18H10+
227.0701	3	C14H11O3+
227.0856	35	C18H11+
228.0938	74	C18H12+
229.1014	72	C18H13+
230.1089	20	C18H14+
231.0807	18	C17H11O+
231.1169	36	C18H15+
232.0886	13	C17H12O+
233.0958	7	C17H13O+
233.1324	6	C18H17+
235.1117	4	C17H15O+
235.1484	4	C18H19+
237.1271	3	C17H17O+
239.0856	54	C19H11+
240.0934	31	C19H12+
241.1015	53	C19H13+
242.1096	22	C19H14+
243.0806	5	C18H11O+
243.117	19	C19H15+
244.0889	4	C18H12O+
244.1253	5	C19H16+
245.0965	16	C18H13O+
245.1324	8	C19H17+
246.1037	4	C18H14O+
252.0937	38	C20H12+
253.1017	46	C20H13+
254.1079	5	C20H14+
255.1169	26	C20H15+
256.1241	4	C20H16+
257.0965	12	C19H13O+
257.1326	10	C20H17+
259.1121	3	C19H15O+
265.1017	27	C21H13+
266.1093	14	C21H14+
267.1178	23	C21H15+
268.1234	5	C21H16+
269.0957	4	C20H13O+
269.1322	7	C21H17+
271.1109	3	C20H15O+
271.1485	3	C21H19+
278.1085	4	C7H20NO10+
279.1166	14	C22H15+
281.1325	5	C22H17+
283.1104	3	C21H15O+
283.1477	3	C22H19+
