Mass spectrum: Tritosulfuron; LC-ESI-ITFT; MS2; CE: 45%; R=15000; [M+H]+
Name: Tritosulfuron
Name: N-{[4-methoxy-6-(trifluoromethyl)-1,3,5-triazin-2-yl]carbamoyl}-2-(trifluoromethyl)benzenesulfonamide
Formula: C13H9F6N5O4S
Exact mass: 445.0279
SMILES: c1c(S(=O)(=O)NC(Nc2nc(nc(n2)C(F)(F)F)OC)=O)c(C(F)(F)F)ccc1
InChI: InChI=1S/C13H9F6N5O4S/c1-28-11-21-8(13(17,18)19)20-9(23-11)22-10(25)24-29(26,27)7-5-3-2-4-6(7)12(14,15)16/h2-5H,1H3,(H2,20,21,22,23,24,25)
Instrument: LTQ Orbitrap XL Thermo Scientific
Instrument type: LC-ESI-ITFT
Ms type: MS2
Ion mode: POSITIVE
Ionization: ESI
Fragmentation mode: HCD
Collision energy: 45 % (nominal)
Resolution: 15000
Column name: XBridge C18 3.5um, 2.1x50mm, Waters
Retention time: 10.8 min
Base peak: 446.0345
Precursor m/z: 446.0352
Precursor type: [M+H]+
m/z	relative intensity	assigned
58.0286	1	C2H4NO+
68.9946	1	CF3+
69.0084	5	C2HN2O+
83.024	20	C3H3N2O+
110.0212	169	C3H3F3N+
120.0209	4	C7H4O2+
125.0463	3	C4H5N4O+
127.0478	187	C3H6F3N2+
130.04	14	C4H6F4+
138.0274	5	C3H3F3N3+
142.0227	2	C7H4F2O+
144.0006	2	C9HFO+
145.026	762	C7H4F3+
148.0316	6	CH9FN2O3S+
153.0409	3	C5H5N4O2+
165.022	2	C8H4FNO2+
165.996	3	C2H3FN4O2S+
168.0255	32	C8H4F2NO+
173.0469	8	C5H6FN4O2+
175.0426	14	C2H10FN3O3S+
184.0064	8	C7H6NO3S+
186.002	28	C2H4F2N4O2S+
186.9855	1	C2H3F2N3O3S+
193.0534	18	C10H8FNO2+
195.0488	999	C5H6F3N4O+
199.0263	3	C3H6F5NO3+
200.0174	6	C3H6F2N4O2S+
201.0218	4	C6H3F2N4O2+
206.0083	4	C7H6F2NO2S+
208.988	73	C7H4F3O2S+
219.0321	6	C4H7F4N4S+
220.0442	6	C11H6F2N2O+
221.0281	412	C6H4F3N4O2+
231.9874	38	C8H4F2NO3S+
325.964	2	C9HF5N3O3S+
363.0173	6	C12H7F4N4O3S+
