Mass spectrum: Imidacloprid-urea; LC-ESI-ITFT; MS2; CE: 90%; R=15000; [M+H]+
Name: Imidacloprid-urea
Name: 1-[(6-Chloropyridin-3-yl)methyl]imidazolidin-2-one
Formula: C9H10ClN3O
Exact mass: 211.0512
SMILES: Clc2ncc(CN1CCNC1=O)cc2
InChI: InChI=1S/C9H10ClN3O/c10-8-2-1-7(5-12-8)6-13-4-3-11-9(13)14/h1-2,5H,3-4,6H2,(H,11,14)
Instrument: LTQ Orbitrap XL Thermo Scientific
Instrument type: LC-ESI-ITFT
Ms type: MS2
Ion mode: POSITIVE
Ionization: ESI
Fragmentation mode: HCD
Collision energy: 90 % (nominal)
Resolution: 15000
Column name: XBridge C18 3.5um, 2.1x50mm, Waters
Retention time: 4.6 min
Base peak: 212.0588
Precursor m/z: 212.0585
Precursor type: [M+H]+
m/z	relative intensity	assigned
56.0494	43	C3H6N+
63.0229	5	C5H3+
65.0385	74	C5H5+
67.0542	2	C5H7+
70.0287	45	C3H4NO+
71.0603	14	C3H7N2+
72.9839	7	C3H2Cl+
78.0338	24	C5H4N+
79.0542	9	C6H7+
80.0494	15	C5H6N+
85.0396	13	C3H5N2O+
90.0338	115	C6H4N+
91.0417	23	C6H5N+
92.0494	179	C6H6N+
93.0572	149	C6H7N+
96.0443	73	C5H6NO+
98.9995	91	C5H4Cl+
99.0552	406	C4H7N2O+
101.0151	9	C5H6Cl+
104.0495	5	C7H6N+
105.0446	4	C6H5N2+
106.0651	22	C7H8N+
107.0603	34	C6H7N2+
109.0521	16	C6H7NO+
110.06	49	C6H8NO+
114.0104	246	C5H5ClN+
116.0493	5	C8H6N+
118.0524	13	C7H6N2+
120.0682	11	C7H8N2+
121.0759	3	C7H9N2+
123.0552	16	C6H7N2O+
126.0104	879	C6H5ClN+
127.0182	198	C6H6ClN+
128.026	999	C6H7ClN+
131.0604	6	C8H7N2+
132.0681	10	C8H8N2+
133.0759	37	C8H9N2+
135.056	2	C4H10ClN3+
140.0259	3	C7H7ClN+
141.0213	34	C6H6ClN2+
142.0054	18	C6H5ClNO+
142.0291	15	C6H7ClN2+
144.021	46	C6H7ClNO+
149.0709	2	C8H9N2O+
151.0054	7	C7H4ClN2+
153.0216	6	C7H6ClN2+
154.029	6	C7H7ClN2+
156.0452	2	C7H9ClN2+
167.0377	2	C8H8ClN2+
168.0207	2	C8H7ClNO+
169.0169	4	C7H6ClN2O+
169.0531	4	C8H10ClN2+
176.0816	12	C9H10N3O+
177.0895	3	C9H11N3O+
194.0477	14	C9H9ClN3+
195.0322	4	C9H8ClN2O+
212.0581	11	C9H11ClN3O+
