Mass spectrum: Terbinafine; LC-ESI-QFT; MS2; CE: 150; R=35000; [M+H]+
Name: Terbinafine
Name: Terbinex
Name: N,6,6-trimethyl-N-(naphthalen-1-ylmethyl)hept-2-en-4-yn-1-amine
Formula: C21H25N
Exact mass: 291.19870
SMILES: CC(C)(C)C#CC=CCN(C)CC1=CC=CC2=CC=CC=C21
InChI: InChI=1S/C21H25N/c1-21(2,3)15-8-5-9-16-22(4)17-19-13-10-12-18-11-6-7-14-20(18)19/h5-7,9-14H,16-17H2,1-4H3
Instrument: Q Exactive Plus Orbitrap Thermo Scientific
Instrument type: LC-ESI-QFT
Ms type: MS2
Ion mode: POSITIVE
Ionization: ESI
Fragmentation mode: HCD
Collision energy: 150 (nominal)
Resolution: 35000
Column name: XBridge C18 3.5um, 2.1x50mm, Waters
Retention time: 8.8 min
Base peak: 292.2054
Precursor m/z: 292.206
Precursor type: [M+H]+
m/z	relative intensity	assigned
50.0151	19	C4H2+
51.023	22	C4H3+
53.0022	3	C3HO+
53.0386	13	C4H5+
55.0543	1	C4H7+
61.0072	2	C5H+
62.0151	16	C5H2+
63.0229	82	C5H3+
65.0386	113	C5H5+
74.0149	3	C6H2+
75.0229	6	C6H3+
76.0307	3	C6H4+
77.0385	29	C6H5+
78.0464	6	C6H6+
79.0542	7	C6H7+
81.0335	1	C5H5O+
87.0229	5	C7H3+
89.0386	153	C7H5+
91.0542	134	C7H7+
95.0491	33	C6H7O+
102.0464	17	C8H6+
103.0542	2	C8H7+
105.0447	22	C6H5N2+
105.0698	1	C8H9+
113.0386	3	C9H5+
114.0466	4	C9H6+
115.0542	999	C9H7+
126.0463	4	C10H6+
132.0568	1	C9H8O+
139.0542	41	C11H7+
140.062	4	C11H8+
141.0698	32	C11H9+
189.0697	1	C15H9+
