Mass spectrum: Ketamine; LC-ESI-ITFT; MS2; CE: 90%; R=30000; [M+H]+
Name: Ketamine
Name: 2-(2-chlorophenyl)-2-(methylamino)-1-cyclohexanone
Formula: C13H16ClNO
Exact mass: 237.0920
SMILES: CNC1(CCCCC1=O)C2=CC=CC=C2Cl
InChI: InChI=1S/C13H16ClNO/c1-15-13(9-5-4-8-12(13)16)10-6-2-3-7-11(10)14/h2-3,6-7,15H,4-5,8-9H2,1H3
Instrument: LTQ Orbitrap XL Thermo Scientific
Instrument type: LC-ESI-ITFT
Ms type: MS2
Ion mode: POSITIVE
Ionization: ESI
Fragmentation mode: HCD
Collision energy: 90 % (nominal)
Resolution: 30000
Column name: XBridge C18 3.5um, 2.1x50mm, Waters
Retention time: 4.6 min
Base peak: 238.0997
Precursor m/z: 238.0993
Precursor type: [M+H]+
m/z	relative intensity	assigned
67.0542	14	C5H7+
77.0386	7	C6H5+
89.0386	15	C7H5+
90.0464	1	C7H6+
98.9997	6	C5H4Cl+
105.0449	2	C6H5N2+
113.0152	3	C6H6Cl+
115.0542	43	C9H7+
116.0621	67	C9H8+
125.0153	999	C7H6Cl+
127.0542	3	C10H7+
128.0621	80	C10H8+
129.0699	65	C10H9+
130.0777	37	C10H10+
137.0152	4	C8H6Cl+
138.9946	6	C7H4ClO+
139.0058	5	C9HNO+
139.0309	3	C8H8Cl+
141.0102	28	C7H6ClO+
141.0699	9	C11H9+
142.0777	5	C11H10+
143.0605	4	C9H7N2+
143.0855	4	C11H11+
144.0569	5	C10H8O+
144.0934	11	C11H12+
145.0647	2	C7H12ClN+
149.0152	15	C9H6Cl+
150.0231	4	C9H7Cl+
151.0309	36	C9H8Cl+
152.0261	30	C8H7ClN+
152.0621	14	C12H8+
153.0699	31	C12H9+
154.0777	35	C12H10+
155.0604	30	C10H7N2+
155.0854	1	C12H11+
156.0934	5	C12H12+
157.0886	8	C11H11N+
162.023	2	C10H7Cl+
163.0309	41	C10H8Cl+
165.0102	46	C9H6ClO+
165.0466	6	C10H10Cl+
176.0389	1	C11H9Cl+
179.0627	3	C11H12Cl+
184.1119	1	C13H14N+
