Mass spectrum: 4-Amino-6-chloro-1,3-benzenedisulfonamide; LC-ESI-QFT; MS2; CE: 30; R=35000; [M-H]-
Name: 4-Amino-6-chloro-1,3-benzenedisulfonamide
Name: 4-amino-6-chlorobenzene-1,3-disulfonamide
Formula: C6H8ClN3O4S2
Exact mass: 284.96448
SMILES: C1=C(C(=CC(=C1Cl)S(=O)(=O)N)S(=O)(=O)N)N
InChI: InChI=1S/C6H8ClN3O4S2/c7-3-1-4(8)6(16(10,13)14)2-5(3)15(9,11)12/h1-2H,8H2,(H2,9,11,12)(H2,10,13,14)
Instrument: Q Exactive Orbitrap Thermo Scientific
Instrument type: LC-ESI-QFT
Ms type: MS2
Ion mode: NEGATIVE
Ionization: ESI
Fragmentation mode: HCD
Collision energy: 30 (nominal)
Resolution: 35000
Column name: XBridge C18 3.5um, 2.1x50mm, Waters
Retention time: 1.7 min
Base peak: 283.9573
Precursor m/z: 283.9572
Precursor type: [M-H]-
m/z	relative intensity	assigned
61.9706	18	NOS-
63.9624	15	O2S-
67.0303	2	C3H3N2-
77.9655	999	NO2S-
78.9734	9	HNO2S-
79.9812	89	H2NO2S-
90.0349	8	C6H4N-
92.0506	7	C6H6N-
93.0458	7	C5H5N2-
105.022	10	C6H3NO-
105.0459	12	C6H5N2-
110.991	8	C5H3OS-
120.0567	152	C6H6N3-
120.9992	2	C6H3NS-
121.0407	19	C6H5N2O-
123.9959	10	C6H3ClN-
136.0516	122	C6H6N3O-
138.0019	134	C6H4NOS-
153.9968	22	C6H4NO2S-
156.0125	2	C6H6NO2S-
165.9841	3	C6H2N2O2S-
167.9997	3	C6H4N2O2S-
169.0077	117	C6H5N2O2S-
182.987	16	C6H3N2O3S-
183.0108	3	C6H5N3O2S-
184.0187	29	C6H6N3O2S-
200.0139	10	C6H6N3O3S-
204.9843	47	C6H6ClN2O2S-
