Mass spectrum: Nortriptyline; LC-ESI-QFT; MS2; CE: 45; R=35000; [M+H]+
Name: Nortriptyline
Name: 3-(5,6-dihydrodibenzo[2,1-b:2`,1`-f][7]annulen-11-ylidene)-N-methylpropan-1-amine
Formula: C19H21N
Exact mass: 263.16740
SMILES: CNCCC=C1C2=CC=CC=C2CCC3=CC=CC=C31
InChI: InChI=1S/C19H21N/c1-20-14-6-11-19-17-9-4-2-7-15(17)12-13-16-8-3-5-10-18(16)19/h2-5,7-11,20H,6,12-14H2,1H3
Instrument: Q Exactive Plus Orbitrap Thermo Scientific
Instrument type: LC-ESI-QFT
Ms type: MS2
Ion mode: POSITIVE
Ionization: ESI
Fragmentation mode: HCD
Collision energy: 45 (nominal)
Resolution: 35000
Column name: XBridge C18 3.5um, 2.1x50mm, Waters
Retention time: 8.5 min
Base peak: 264.1741
Precursor m/z: 264.1747
Precursor type: [M+H]+
m/z	relative intensity	assigned
55.0542	6	C4H7+
56.0495	1	C3H6N+
58.0651	1	C3H8N+
65.0385	4	C5H5+
67.0542	2	C5H7+
70.0651	180	C4H8N+
71.0728	1	C4H9N+
77.0384	3	C6H5+
79.0542	10	C6H7+
91.0542	999	C7H7+
103.0542	17	C8H7+
105.0699	799	C8H9+
115.0542	24	C9H7+
117.0698	711	C9H9+
128.0619	2	C10H8+
129.0698	107	C10H9+
131.0854	3	C10H11+
141.0699	42	C11H9+
142.0778	3	C11H10+
153.0698	9	C12H9+
154.0775	2	C12H10+
155.0855	259	C12H11+
158.0963	1	C11H12N+
159.1041	2	C11H13N+
165.0698	5	C13H9+
167.0855	5	C13H11+
172.1121	2	C12H14N+
173.1199	3	C12H15N+
178.0777	107	C14H10+
179.0855	127	C14H11+
189.0689	1	C15H9+
190.0774	6	C15H10+
191.0855	498	C15H11+
192.0933	41	C15H12+
193.1012	50	C15H13+
202.0771	3	C16H10+
203.0855	55	C16H11+
204.0934	98	C16H12+
205.1012	281	C16H13+
207.1168	26	C16H15+
216.0937	5	C17H12+
217.1009	7	C17H13+
218.1091	339	C17H14+
231.1168	31	C18H15+
232.1249	2	C18H16+
233.1325	496	C18H17+
264.1747	51	C19H22N+
