Mass spectrum: Warfarin; LC-ESI-QFT; MS2; CE: 90; R=35000; [M-H]-
Name: Warfarin
Name: 2-hydroxy-3-(3-oxo-1-phenylbutyl)chromen-4-one
Name: Coumafen
Formula: C19H16O4
Exact mass: 308.10486
SMILES: O=C\1c3c(OC(/O)=C/1C(c2ccccc2)CC(=O)C)cccc3
InChI: InChI=1S/C19H16O4/c1-12(20)11-15(13-7-3-2-4-8-13)17-18(21)14-9-5-6-10-16(14)23-19(17)22/h2-10,15,22H,11H2,1H3
Instrument: Q Exactive Orbitrap Thermo Scientific
Instrument type: LC-ESI-QFT
Ms type: MS2
Ion mode: NEGATIVE
Ionization: ESI
Fragmentation mode: HCD
Collision energy: 90 (nominal)
Resolution: 35000
Column name: XBridge C18 3.5um, 2.1x50mm, Waters
Retention time: 10.6 min
Base peak: 307.0978
Precursor m/z: 307.0976
Precursor type: [M-H]-
m/z	relative intensity	assigned
57.0346	418	C3H5O-
83.014	13	C4H3O2-
91.0554	1	C7H7-
92.0269	3	C6H4O-
93.0346	56	C6H5O-
95.0138	2	C5H3O2-
101.0398	30	C8H5-
108.0218	4	C6H4O2-
115.0554	10	C9H7-
117.0348	999	C8H5O-
119.0503	8	C8H7O-
129.0712	2	C10H9-
130.0424	4	C9H6O-
141.0711	7	C11H9-
143.0501	7	C10H7O-
145.0296	2	C9H5O2-
145.0661	2	C10H9O-
161.0245	98	C9H5O3-
193.0658	22	C14H9O-
195.0817	4	C14H11O-
205.0665	9	C15H9O-
206.0743	11	C15H10O-
219.0819	8	C16H11O-
221.0615	2	C15H9O2-
245.0964	1	C18H13O-
249.0556	14	C16H9O3-
250.0647	7	C16H10O3-
