Mass spectrum: Difenacoum; LC-ESI-QFT; MS2; CE: 180%; R=17500; [M+H]+
Name: Difenacoum
Name: 4-hydroxy-3-[3-(4-phenylphenyl)-1,2,3,4-tetrahydronaphthalen-1-yl]chromen-2-one
Formula: C31H24O3
Exact mass: 444.1725
SMILES: C1C(CC2=CC=CC=C2C1C3=C(C4=CC=CC=C4OC3=O)O)C5=CC=C(C=C5)C6=CC=CC=C6
InChI: InChI=1S/C31H24O3/c32-30-26-12-6-7-13-28(26)34-31(33)29(30)27-19-24(18-23-10-4-5-11-25(23)27)22-16-14-21(15-17-22)20-8-2-1-3-9-20/h1-17,24,27,32H,18-19H2
Instrument: Exploris 240 Orbitrap Thermo Scientific
Instrument type: LC-ESI-QFT
Ms type: MS2
Ion mode: POSITIVE
Ionization: ESI
Fragmentation mode: HCD
Collision energy: 180 % (nominal)
Resolution: 17500
Column name: XBridge C18 3.5um, 2.1x50mm, Waters
Retention time: 15.423 min
Base peak: 445.1795
Precursor m/z: 445.1798
Precursor type: [M+H]+
m/z	relative intensity	assigned
50.0151	154	C4H2+
51.0229	581	C4H3+
53.0386	105	C4H5+
63.023	168	C5H3+
65.0386	999	C5H5+
75.023	122	C6H3+
77.0386	505	C6H5+
78.0465	62	C6H6+
89.0384	138	C7H5+
91.0542	300	C7H7+
94.0415	42	C6H6O+
95.0491	377	C6H7O+
102.0463	149	C8H6+
103.054	26	C8H7+
115.0542	473	C9H7+
126.0462	109	C10H6+
127.0544	62	C10H7+
128.0621	315	C10H8+
139.0541	319	C11H7+
150.0462	199	C12H6+
151.0542	177	C12H7+
152.062	848	C12H8+
163.0542	334	C13H7+
164.062	178	C13H8+
165.0699	290	C13H9+
169.0648	329	C12H9O+
176.062	731	C14H8+
177.0698	241	C14H9+
178.0777	263	C14H10+
189.0699	44	C15H9+
226.0781	35	C18H10+
239.0858	114	C19H11+
252.0932	49	C20H12+
