Mass spectrum: Norfenfluramine; LC-ESI-QFT; MS2; CE: 90; R=35000; [M+H]+
Name: Norfenfluramine
Name: 1-[3-(trifluoromethyl)phenyl]propan-2-amine
Formula: C10H12F3N
Exact mass: 203.09218
SMILES: CC(CC1=CC(=CC=C1)C(F)(F)F)N
InChI: InChI=1S/C10H12F3N/c1-7(14)5-8-3-2-4-9(6-8)10(11,12)13/h2-4,6-7H,5,14H2,1H3
Instrument: Q Exactive Plus Orbitrap Thermo Scientific
Instrument type: LC-ESI-QFT
Ms type: MS2
Ion mode: POSITIVE
Ionization: ESI
Fragmentation mode: HCD
Collision energy: 90 (nominal)
Resolution: 35000
Column name: XBridge C18 3.5um, 2.1x50mm, Waters
Retention time: 5.8 min
Base peak: 204.0993
Precursor m/z: 204.0995
Precursor type: [M+H]+
m/z	relative intensity	assigned
57.0134	1	C3H2F+
63.0228	1	C5H3+
75.0229	3	C6H3+
83.0291	6	C5H4F+
89.0385	3	C7H5+
90.0464	5	C7H6+
95.0291	1	C6H4F+
99.0229	2	C8H3+
109.0448	604	C7H6F+
119.0291	9	C8H4F+
123.0353	1	C6H4FN2+
133.0258	2	C6H4F3+
137.0397	5	C8H6FO+
139.0353	67	C8H5F2+
146.0527	2	C10H7F+
147.0353	52	C8H4FN2+
155.0604	1	C10H7N2+
158.0338	1	C8H5F3+
159.0415	999	C8H6F3+
