Mass spectrum: Thiophanate; LC-ESI-QFT; MS2; CE: 90%; R=17500; [M+H]+
Name: Thiophanate
Name: CID 31991
Name: N`-ethoxycarbonyl-N-[2-[(N-ethoxycarbonyl-C-sulfanylcarbonimidoyl)amino]phenyl]carbamimidothioic acid
Formula: C14H18N4O4S2
Exact mass: 370.0769
SMILES: CCOC(=O)NC(=S)NC1=CC=CC=C1NC(=S)NC(=O)OCC
InChI: InChI=1S/C14H18N4O4S2/c1-3-21-13(19)17-11(23)15-9-7-5-6-8-10(9)16-12(24)18-14(20)22-4-2/h5-8H,3-4H2,1-2H3,(H2,15,17,19,23)(H2,16,18,20,24)
Instrument: Exploris 240 Orbitrap Thermo Scientific
Instrument type: LC-ESI-QFT
Ms type: MS2
Ion mode: POSITIVE
Ionization: ESI
Fragmentation mode: HCD
Collision energy: 90 % (nominal)
Resolution: 17500
Column name: XBridge C18 3.5um, 2.1x50mm, Waters
Retention time: 7.280 min
Base peak: 295.0398
Precursor m/z: 371.0842
Precursor type: [M+H]+
m/z	relative intensity	assigned
59.9903	562	CH2NS+
62.0237	195	CH4NO2+
65.0387	62	C5H5+
80.0493	12	C5H6N+
85.9696	293	C2NOS+
92.0496	288	C6H6N+
93.0573	704	C6H7N+
103.9802	80	C2H2NO2S+
107.0605	48	C6H7N2+
109.0759	82	C6H9N2+
118.0526	385	C7H6N2+
119.0605	102	C7H7N2+
122.006	37	C6H4NS+
124.0218	21	C6H6NS+
132.0557	21	C7H6N3+
134.0714	97	C7H8N3+
149.017	129	C7H5N2S+
151.0324	999	C7H7N2S+
160.0506	95	C8H6N3O+
