Mass spectrum: Anabaenopeptin NZ857; LC-ESI-QFT; MS2; CE: 75%; R=17500; [M+H]+
Name: Anabaenopeptin NZ857
Name: 2-[[12-butan-2-yl-3,9-bis[2-(4-hydroxyphenyl)ethyl]-7-methyl-2,5,8,11,14-pentaoxo-1,4,7,10,13-pentazacyclononadec-15-yl]carbamoylamino]-3-phenylpropanoic acid
Formula: C45H59N7O10
Exact mass: 857.4323
SMILES: CCC(C)C1C(=O)NC(C(=O)N(CC(=O)NC(C(=O)NCCCCC(C(=O)N1)NC(=O)NC(CC2=CC=CC=C2)C(=O)O)CCC3=CC=C(C=C3)O)C)CCC4=CC=C(C=C4)O
InChI: InChI=1S/C45H59N7O10/c1-4-28(2)39-42(58)48-36(24-18-30-15-21-33(54)22-16-30)43(59)52(3)27-38(55)47-35(23-17-29-13-19-32(53)20-14-29)40(56)46-25-9-8-12-34(41(57)51-39)49-45(62)50-37(44(60)61)26-31-10-6-5-7-11-31/h5-7,10-11,13-16,19-22,28,34-37,39,53-54H,4,8-9,12,17-18,23-27H2,1-3H3,(H,46,56)(H,47,55)(H,48,58)(H,51,57)(H,60,61)(H2,49,50,62)
Instrument: Q Exactive Plus Orbitrap Thermo Scientific
Instrument type: LC-ESI-QFT
Ms type: MS2
Ion mode: POSITIVE
Ionization: ESI
Fragmentation mode: HCD
Collision energy: 75 % (nominal)
Resolution: 17500
Column name: XBridge C18 3.5um, 2.1x50mm, Waters
Retention time: 7.905 min
Base peak: 164.9845
Precursor m/z: 858.4396
Precursor type: [M+H]+
m/z	relative intensity	assigned
65.0386	5	C5H5+
67.0542	19	C5H7+
68.0496	1	C4H6N+
69.0698	27	C5H9+
70.0651	7	C4H8N+
79.0543	9	C6H7+
82.0651	11	C5H8N+
84.0808	999	C5H10N+
86.06	166	C4H8NO+
86.0964	58	C5H12N+
91.0543	48	C7H7+
93.0701	12	C7H9+
94.0652	5	C6H8N+
95.0493	17	C6H7O+
96.0807	6	C6H10N+
99.0191	9	C3H3N2O2+
101.0348	2	C3H5N2O2+
103.0543	62	C8H7+
105.0446	5	C6H5N2+
105.0699	35	C8H9+
107.0492	198	C7H7O+
109.0761	3	C6H9N2+
110.0601	15	C6H8NO+
110.0965	4	C7H12N+
111.0918	11	C6H11N2+
112.0755	6	C6H10NO+
114.0549	10	C5H8NO2+
117.0701	3	C9H9+
118.0651	5	C8H8N+
119.0491	22	C8H7O+
120.0808	392	C8H10N+
121.0649	8	C8H9O+
123.0441	14	C7H7O2+
127.0868	9	C6H11N2O+
128.0702	10	C6H10NO2+
129.0697	7	C10H9+
129.1021	22	C6H13N2O+
130.0651	6	C9H8N+
130.0858	4	C6H12NO2+
131.049	4	C9H7O+
133.0649	7	C9H9O+
135.068	6	C8H9NO+
136.0756	48	C8H10NO+
137.0707	4	C7H9N2O+
139.0868	5	C7H11N2O+
140.0702	12	C7H10NO2+
146.0598	16	C9H8NO+
146.096	6	C10H12N+
147.044	5	C9H7O2+
147.0678	4	C9H9NO+
150.0915	4	C9H12NO+
152.143	6	C10H18N+
155.0812	24	C7H11N2O2+
162.0549	6	C9H8NO2+
165.0548	2	C9H9O3+
173.092	2	C7H13N2O3+
188.1433	5	C13H18N+
240.1707	7	C12H22N3O2+
