Mass spectrum: Molinate; LC-ESI-QFT; MS2; CE: 180; R=35000; [M+H]+
Name: Molinate
Name: S-ethyl azepane-1-carbothioate
Formula: C9H17NOS
Exact mass: 187.10309
SMILES: CCSC(=O)N1CCCCCC1
InChI: InChI=1S/C9H17NOS/c1-2-12-9(11)10-7-5-3-4-6-8-10/h2-8H2,1H3
Instrument: Q Exactive Plus Orbitrap Thermo Scientific
Instrument type: LC-ESI-QFT
Ms type: MS2
Ion mode: POSITIVE
Ionization: ESI
Fragmentation mode: HCD
Collision energy: 180 (nominal)
Resolution: 35000
Column name: XBridge C18 3.5um, 2.1x50mm, Waters
Retention time: 10.5 min
Base peak: 188.11
Precursor m/z: 188.1104
Precursor type: [M+H]+
m/z	relative intensity	assigned
51.023	15	C4H3+
53.0022	164	C3HO+
53.0386	255	C4H5+
53.9975	35	C2NO+
54.0339	7	C3H4N+
55.0543	999	C4H7+
56.0131	182	C2H2NO+
56.0495	98	C3H6N+
58.0289	3	C2H4NO+
58.995	5	C2H3S+
65.0386	25	C5H5+
66.0464	6	C5H6+
67.0416	19	C4H5N+
67.0542	31	C5H7+
67.9893	24	C3O2+
68.0495	46	C4H6N+
70.0651	76	C4H8N+
71.9902	28	C2H2NS+
78.0087	6	C3N3+
79.0542	26	C6H7+
80.0495	7	C5H6N+
82.0651	174	C5H8N+
83.0729	60	C5H9N+
84.0444	54	C4H6NO+
84.0811	3	C5H10N+
95.0492	8	C6H7O+
98.0966	19	C6H12N+
