Mass spectrum: Fenpropidin; LC-ESI-ITFT; MS2; CE: 35%; R=7500; [M+H]+
Name: Fenpropidin
Name: 1-[3-(4-tert-butylphenyl)-2-methyl-propyl]piperidine
Formula: C19H31N
Exact mass: 273.2457
SMILES: c1cc(ccc1CC(CN2CCCCC2)C)C(C)(C)C
InChI: InChI=1S/C19H31N/c1-16(15-20-12-6-5-7-13-20)14-17-8-10-18(11-9-17)19(2,3)4/h8-11,16H,5-7,12-15H2,1-4H3
Instrument: LTQ Orbitrap XL Thermo Scientific
Instrument type: LC-ESI-ITFT
Ms type: MS2
Ion mode: POSITIVE
Ionization: ESI
Fragmentation mode: CID
Collision energy: 35 % (nominal)
Resolution: 7500
Column name: XBridge C18 3.5um, 2.1x50mm, Waters
Retention time: 9.5 min
Base peak: 274.253
Precursor m/z: 274.2529
Precursor type: [M+H]+
m/z	relative intensity	assigned
84.0806	4	C5H10N+
86.0965	234	C5H12N+
91.0543	21	C7H7+
98.0963	4	C6H12N+
103.0543	2	C8H7+
105.0699	51	C8H9+
107.0857	4	C8H11+
117.0696	5	C9H9+
119.0856	76	C9H11+
131.0857	5	C10H11+
132.0934	20	C10H12+
133.1011	9	C10H13+
145.1018	5	C11H13+
147.1169	999	C11H15+
161.1326	44	C12H17+
189.1639	81	C14H21+
216.175	3	C15H22N+
218.1904	129	C15H24N+
232.2057	2	C16H26N+
259.2299	8	C18H29N+
274.253	877	C19H32N+
