Mass spectrum: Florfenicol; LC-ESI-QFT; MS2; CE: 45; R=35000; [M+H]+
Name: Florfenicol
Name: 2,2-dichloro-N-{3-fluoro-1-hydroxy-1-[4-(methylsulfonyl)phenyl]propan-2-yl}acetamide
Name: 2,2-dichloro-N-[3-fluoro-1-hydroxy-1-(4-methylsulfonylphenyl)propan-2-yl]acetamide
Formula: C12H14Cl2FNO4S
Exact mass: 357.00046
SMILES: CS(=O)(=O)C1=CC=C(C=C1)C(C(CF)NC(=O)C(Cl)Cl)O
InChI: InChI=1S/C12H14Cl2FNO4S/c1-21(19,20)8-4-2-7(3-5-8)10(17)9(6-15)16-12(18)11(13)14/h2-5,9-11,17H,6H2,1H3,(H,16,18)
Instrument: Q Exactive Plus Orbitrap Thermo Scientific
Instrument type: LC-ESI-QFT
Ms type: MS2
Ion mode: POSITIVE
Ionization: ESI
Fragmentation mode: HCD
Collision energy: 45 (nominal)
Resolution: 35000
Column name: XBridge C18 3.5um, 2.1x50mm, Waters
Retention time: 4.6 min
Base peak: 390.0331
Precursor m/z: 358.0077
Precursor type: [M+H]+
m/z	relative intensity	assigned
63.0227	1	C5H3+
77.0384	1	C6H5+
78.9848	1	CH3O2S+
82.9449	31	CHCl2+
102.0463	1	C8H6+
103.054	8	C8H7+
104.062	4	C8H8+
107.0491	1	C7H7O+
109.9559	7	C2H2Cl2N+
115.0541	10	C9H7+
127.0538	3	C10H7+
128.062	36	C10H8+
129.0573	15	C9H7N+
129.0698	1	C10H9+
130.0651	126	C9H8N+
131.0491	23	C9H7O+
131.073	130	C9H9N+
132.0569	532	C9H8O+
133.0648	4	C9H9O+
134.0526	17	C9H7F+
141.0572	1	C10H7N+
142.0651	26	C10H8N+
145.0648	9	C10H9O+
150.0231	15	C9H7Cl+
151.079	1	C9H10FN+
152.087	1	C9H11FN+
155.0603	21	C4H13NO3S+
157.0521	1	C10H7NO+
158.06	12	C10H8NO+
162.023	6	C10H7Cl+
163.0309	133	C10H8Cl+
166.042	2	C9H9ClN+
169.0523	2	C11H7NO+
170.06	434	C11H8NO+
171.0679	8	C11H9NO+
176.026	2	C10H7ClN+
177.034	40	C10H8ClN+
178.0179	4	C10H7ClO+
178.0417	9	C10H9ClN+
188.0259	1	C11H7ClN+
189.0099	1	C11H6ClO+
193.0316	2	C10H9O2S+
196.9919	3	C10H7Cl2+
205.0291	17	C11H8ClNO+
206.0367	999	C11H9ClNO+
210.0583	128	C10H12NO2S+
213.0381	2	C10H10FO2S+
220.0425	1	C11H10NO2S+
226.0425	1	C8H15ClO3S+
230.0646	59	C10H13FNO2S+
238.053	2	C11H12NO3S+
241.0055	667	C11H9Cl2NO+
284.0144	8	C12H11ClNO3S+
285.022	4	C12H12ClNO3S+
319.9906	3	C12H12Cl2NO3S+
