Mass spectrum: Citalopram; LC-ESI-ITFT; MS2; CE: 75%; R=7500; [M+H]+
Name: Citalopram
Name: 1-[3-(dimethylamino)propyl]-1-(4-fluorophenyl)-3H-2-benzofuran-5-carbonitrile
Formula: C20H21FN2O
Exact mass: 324.1638
SMILES: Fc1ccc(cc1)C3(OCc2cc(C#N)ccc23)CCCN(C)C
InChI: InChI=1S/C20H21FN2O/c1-23(2)11-3-10-20(17-5-7-18(21)8-6-17)19-9-4-15(13-22)12-16(19)14-24-20/h4-9,12H,3,10-11,14H2,1-2H3
Instrument: LTQ Orbitrap XL Thermo Scientific
Instrument type: LC-ESI-ITFT
Ms type: MS2
Ion mode: POSITIVE
Ionization: ESI
Fragmentation mode: HCD
Collision energy: 75 % (nominal)
Resolution: 7500
Column name: XBridge C18 3.5um, 2.1x50mm, Waters
Retention time: 6.6 min
Base peak: 325.1719
Precursor m/z: 325.1711
Precursor type: [M+H]+
m/z	relative intensity	assigned
58.0651	51	C3H8N+
83.0289	6	C5H4F+
84.0805	7	C5H10N+
89.0386	9	C7H5+
103.0544	9	C8H7+
109.0448	999	C7H6F+
116.0495	187	C8H6N+
121.045	19	C8H6F+
123.024	14	C7H4FO+
128.0622	5	C10H8+
129.0696	23	C10H9+
130.0645	10	C9H8N+
133.0448	16	C9H6F+
139.0538	12	C11H7+
140.0493	56	C10H6N+
142.0645	11	C10H8N+
154.0645	15	C11H8N+
155.0603	7	C10H7N2+
156.0809	21	C11H10N+
159.0606	9	C11H8F+
166.065	124	C12H8N+
183.0599	8	C13H8F+
189.07	5	C15H9+
190.0651	15	C14H8N+
207.0608	12	C15H8F+
208.0557	12	C14H7FN+
214.0657	13	C16H8N+
215.0853	39	C17H11+
218.0604	25	C15H8NO+
221.0635	114	C15H8FN+
222.0716	34	C15H9FN+
227.0729	127	C17H9N+
228.0804	7	C17H10N+
233.0756	27	C17H10F+
234.0712	236	C16H9FN+
235.0787	32	C16H10FN+
238.066	16	C15H9FNO+
240.0812	44	C18H10N+
241.0881	33	C18H11N+
242.0965	18	C18H12N+
245.0646	8	C17H8FN+
246.0711	155	C17H9FN+
247.0791	247	C17H10FN+
250.1034	17	C17H13FN+
261.0948	32	C18H12FN+
262.1019	37	C18H13FN+
