Mass spectrum: 1,3-Dimethylpteridine-2,4-dione; LC-ESI-QFT; MS2; CE: 15; R=35000; [M+H]+
Name: 1,3-Dimethylpteridine-2,4-dione
Name: 1,3-Dimethyllumazine
Formula: C8H8N4O2
Exact mass: 192.06473
SMILES: O=C2c1nccnc1N(C(=O)N2C)C
InChI: InChI=1S/C8H8N4O2/c1-11-6-5(9-3-4-10-6)7(13)12(2)8(11)14/h3-4H,1-2H3
Instrument: Q Exactive Orbitrap Thermo Scientific
Instrument type: LC-ESI-QFT
Ms type: MS2
Ion mode: POSITIVE
Ionization: ESI
Fragmentation mode: HCD
Collision energy: 15 (nominal)
Resolution: 35000
Column name: XBridge C18 3.5um, 2.1x50mm, Waters
Retention time: 3.6 min
Base peak: 193.072
Precursor m/z: 193.072
Precursor type: [M+H]+
m/z	relative intensity	assigned
81.0446	1	C4H5N2+
108.0555	2	C5H6N3+
122.0712	1	C6H8N3+
149.0822	4	C7H9N4+
193.0719	999	C8H9N4O2+
