Mass spectrum: Fonofos; LC-ESI-QFT; MS2; CE: 60; R=35000; [M+H]+
Name: Fonofos
Name: ethoxy-ethyl-(phenylthio)-sulfanylidenephosphorane
Formula: C10H15OPS2
Exact mass: 246.03019
SMILES: S=P(Sc1ccccc1)(OCC)CC
InChI: InChI=1S/C10H15OPS2/c1-3-11-12(13,4-2)14-10-8-6-5-7-9-10/h5-9H,3-4H2,1-2H3
Instrument: Q Exactive Orbitrap Thermo Scientific
Instrument type: LC-ESI-QFT
Ms type: MS2
Ion mode: POSITIVE
Ionization: ESI
Fragmentation mode: HCD
Collision energy: 60 (nominal)
Resolution: 35000
Column name: XBridge C18 3.5um, 2.1x50mm, Waters
Retention time: 12.9 min
Base peak: 247.0377
Precursor m/z: 247.0375
Precursor type: [M+H]+
m/z	relative intensity	assigned
62.9453	120	PS+
64.9785	3	H2O2P+
77.015	2	C2H6OP+
80.9558	259	H2OPS+
90.9765	6	C2H4PS+
94.9173	20	PS2+
95.0491	4	C6H7O+
108.9871	661	C2H6OPS+
111.0262	35	C6H7S+
126.9977	999	C2H8O2PS+
137.0184	13	C4H10OPS+
138.9765	1	C6H4PS+
140.9591	1	C2H6OPS2+
141.0134	5	C3H10O2PS+
155.0287	1	C4H12O2PS+
156.9872	1	C6H6OPS+
170.9485	5	C6H4PS2+
172.9643	10	C6H6PS2+
185.0186	2	C8H10OPS+
200.9956	11	C8H10PS2+
