Mass spectrum: Carbofuran; LC-ESI-QFT; MS2; CE: 75; R=35000; [M+H]+
Name: Carbofuran
Name: (2,2-dimethyl-3H-1-benzofuran-7-yl) N-methylcarbamate
Formula: C12H15NO3
Exact mass: 221.10519
SMILES: CC2(C)CC1=C(C(=CC=C1)OC(NC)=O)O2
InChI: InChI=1S/C12H15NO3/c1-12(2)7-8-5-4-6-9(10(8)16-12)15-11(14)13-3/h4-6H,7H2,1-3H3,(H,13,14)
Instrument: Q Exactive Orbitrap Thermo Scientific
Instrument type: LC-ESI-QFT
Ms type: MS2
Ion mode: POSITIVE
Ionization: ESI
Fragmentation mode: HCD
Collision energy: 75 (nominal)
Resolution: 35000
Column name: XBridge C18 3.5um, 2.1x50mm, Waters
Retention time: 7.2 min
Base peak: 222.1124
Precursor m/z: 222.1125
Precursor type: [M+H]+
m/z	relative intensity	assigned
51.0229	2	C4H3+
53.0387	1	C4H5+
55.0542	5	C4H7+
58.0288	24	C2H4NO+
65.0385	7	C5H5+
67.0542	21	C5H7+
77.0384	5	C6H5+
79.0542	2	C6H7+
81.0334	2	C5H5O+
91.0541	83	C7H7+
93.0335	2	C6H5O+
95.0491	60	C6H7O+
103.0541	2	C8H7+
105.0334	12	C7H5O+
105.0447	3	C6H5N2+
107.0491	6	C7H7O+
109.0283	5	C6H5O2+
109.0648	2	C7H9O+
110.0361	2	C6H6O2+
111.0439	14	C6H7O2+
117.0697	4	C9H9+
119.0491	12	C8H7O+
119.0855	27	C9H11+
123.0439	999	C7H7O2+
129.0697	1	C10H9+
132.0569	2	C9H8O+
137.0596	50	C8H9O2+
147.0803	13	C10H11O+
165.0908	21	C10H13O2+
