Mass spectrum: Oxadixyl; LC-ESI-QFT; MS2; CE: 75; R=35000; [M+H]+
Name: Oxadixyl
Name: N-(2,6-dimethylphenyl)-2-methoxy-N-(2-oxidanylidene-1,3-oxazolidin-3-yl)ethanamide
Formula: C14H18N2O4
Exact mass: 278.12666
SMILES: O=C2OCCN2N(C(=O)COC)c1c(cccc1C)C
InChI: InChI=1S/C14H18N2O4/c1-10-5-4-6-11(2)13(10)16(12(17)9-19-3)15-7-8-20-14(15)18/h4-6H,7-9H2,1-3H3
Instrument: Q Exactive Orbitrap Thermo Scientific
Instrument type: LC-ESI-QFT
Ms type: MS2
Ion mode: POSITIVE
Ionization: ESI
Fragmentation mode: HCD
Collision energy: 75 (nominal)
Resolution: 35000
Column name: XBridge C18 3.5um, 2.1x50mm, Waters
Retention time: 6.4 min
Base peak: 279.1343
Precursor m/z: 279.1339
Precursor type: [M+H]+
m/z	relative intensity	assigned
56.0496	3	C3H6N+
58.0652	19	C3H8N+
65.0387	3	C5H5+
77.0386	4	C6H5+
79.0543	20	C6H7+
88.0394	20	C3H6NO2+
91.0543	52	C7H7+
93.0699	22	C7H9+
95.0492	26	C6H7O+
102.055	53	C4H8NO2+
103.0543	14	C8H7+
104.0622	3	C8H8+
105.0449	6	C6H5N2+
105.07	85	C8H9+
106.0653	1	C7H8N+
106.078	5	C8H10+
107.0855	6	C8H11+
109.065	2	C7H9O+
115.0543	9	C9H7+
116.0496	1	C8H6N+
117.0573	193	C8H7N+
118.0652	147	C8H8N+
119.0733	6	C8H9N+
119.0856	111	C9H11+
120.0808	97	C8H10N+
121.0648	24	C8H9O+
122.0726	1	C8H10O+
123.0805	9	C8H11O+
130.0651	8	C9H8N+
131.0731	8	C9H9N+
132.0809	999	C9H10N+
133.0886	217	C9H11N+
134.0965	31	C9H12N+
137.0964	3	C9H13O+
145.0763	5	C9H9N2+
146.0963	4	C10H12N+
147.0918	7	C9H11N2+
147.1043	1	C10H13N+
148.0759	3	C9H10NO+
149.0236	9	C8H5O3+
149.0836	2	C9H11NO+
159.0917	4	C10H11N2+
160.076	7	C10H10NO+
160.0998	6	C10H12N2+
161.0713	1	C9H9N2O+
164.1069	1	C10H14NO+
176.0946	1	C10H12N2O+
191.0944	4	C11H13NO2+
219.1133	1	C12H15N2O2+
