Mass spectrum: Eicosatrienoic acid; LC-ESI-QFT; MS2; CE: 45%; R=17500; [M+H]+
Name: Eicosatrienoic acid
Name: Eicosa-11,14,17-trienoic acid
Name: icosa-11,14,17-trienoic acid
Formula: C20H34O2
Exact mass: 306.2559
SMILES: CCC=CCC=CCC=CCCCCCCCCCC(=O)O
InChI: InChI=1S/C20H34O2/c1-2-3-4-5-6-7-8-9-10-11-12-13-14-15-16-17-18-19-20(21)22/h3-4,6-7,9-10H,2,5,8,11-19H2,1H3,(H,21,22)
Instrument: Exploris 240 Orbitrap Thermo Scientific
Instrument type: LC-ESI-QFT
Ms type: MS2
Ion mode: POSITIVE
Ionization: ESI
Fragmentation mode: HCD
Collision energy: 45 % (nominal)
Resolution: 17500
Column name: XBridge C18 3.5um, 2.1x50mm, Waters
Retention time: 17.864 min
Base peak: 329.2449
Precursor m/z: 307.2632
Precursor type: [M+H]+
m/z	relative intensity	assigned
55.0542	88	C4H7+
57.0699	32	C4H9+
67.0542	918	C5H7+
69.0698	137	C5H9+
79.0541	28	C6H7+
81.0698	999	C6H9+
83.0855	75	C6H11+
93.0698	33	C7H9+
95.0855	886	C7H11+
97.0645	13	C6H9O+
97.101	64	C7H13+
105.0697	16	C8H9+
107.0852	41	C8H11+
109.1011	615	C8H13+
119.0855	23	C9H11+
121.1013	45	C9H13+
123.1168	249	C9H15+
131.0852	13	C10H11+
133.101	45	C10H13+
135.1172	34	C10H15+
137.0961	14	C9H13O+
137.1323	76	C10H17+
147.1169	21	C11H15+
149.1323	19	C11H17+
