Mass spectrum: Propranolol; LC-ESI-ITFT; MS2; CE: 45%; R=7500; [M+H]+
Name: Propranolol
Name: 1-(1-naphthalenyloxy)-3-(propan-2-ylamino)-2-propanol
Formula: C16H21NO2
Exact mass: 259.1572
SMILES: CC(C)NCC(COC1=CC=CC2=CC=CC=C21)O
InChI: InChI=1S/C16H21NO2/c1-12(2)17-10-14(18)11-19-16-9-5-7-13-6-3-4-8-15(13)16/h3-9,12,14,17-18H,10-11H2,1-2H3
Instrument: LTQ Orbitrap XL Thermo Scientific
Instrument type: LC-ESI-ITFT
Ms type: MS2
Ion mode: POSITIVE
Ionization: ESI
Fragmentation mode: HCD
Collision energy: 45 % (nominal)
Resolution: 7500
Column name: XBridge C18 3.5um, 2.1x50mm, Waters
Retention time: 6.6 min
Base peak: 260.165
Precursor m/z: 260.1645
Precursor type: [M+H]+
m/z	relative intensity	assigned
56.0494	175	C3H6N+
58.0651	228	C3H8N+
72.0807	263	C4H10N+
74.06	402	C3H8NO+
86.0964	56	C5H12N+
98.0964	454	C6H12N+
100.1121	47	C6H14N+
116.1069	999	C6H14NO+
129.0699	33	C10H9+
132.1016	16	C6H14NO2+
141.0697	58	C11H9+
143.0492	23	C10H7O+
145.0649	70	C10H9O+
153.0702	20	C12H9+
155.0854	230	C12H11+
157.0647	434	C11H9O+
165.0699	65	C13H9+
171.0798	15	C12H11O+
183.0803	913	C13H11O+
218.1174	124	C13H16NO2+
260.1645	887	C16H22NO2+
