Mass spectrum: Diphenhydramine; LC-ESI-QFT; MS2; CE: 75; R=35000; [M+H]+
Name: Diphenhydramine
Name: 2-benzhydryloxy-N,N-dimethylethanamine
Formula: C17H21NO
Exact mass: 255.16231
SMILES: CN(C)CCOC(C1=CC=CC=C1)C2=CC=CC=C2
InChI: InChI=1S/C17H21NO/c1-18(2)13-14-19-17(15-9-5-3-6-10-15)16-11-7-4-8-12-16/h3-12,17H,13-14H2,1-2H3
Instrument: Q Exactive Plus Orbitrap Thermo Scientific
Instrument type: LC-ESI-QFT
Ms type: MS2
Ion mode: POSITIVE
Ionization: ESI
Fragmentation mode: HCD
Collision energy: 75 (nominal)
Resolution: 35000
Column name: XBridge C18 3.5um, 2.1x50mm, Waters
Retention time: 6.6 min
Base peak: 256.1694
Precursor m/z: 256.1696
Precursor type: [M+H]+
m/z	relative intensity	assigned
88.0756	1	C4H10NO+
115.0542	3	C9H7+
128.0621	26	C10H8+
141.0699	35	C11H9+
151.0543	19	C12H7+
152.0621	999	C12H8+
164.0619	2	C13H8+
165.07	949	C13H9+
166.0778	329	C13H10+
167.0855	839	C13H11+
169.0648	41	C12H9O+
179.0603	17	C12H7N2+
183.0803	2	C13H11O+
