Mass spectrum: Triclabendazole; LC-ESI-QFT; MS2; CE: 180; R=35000; [M+H]+
Name: Triclabendazole
Name: Triclabendazol
Name: 6-chloro-5-(2,3-dichlorophenoxy)-2-methylsulfanyl-1H-benzimidazole
Formula: C14H9Cl3N2OS
Exact mass: 357.95012
SMILES: CSc1[nH]c2cc(c(cc2n1)Oc3cccc(c3Cl)Cl)Cl
InChI: InChI=1S/C14H9Cl3N2OS/c1-21-14-18-9-5-8(16)12(6-10(9)19-14)20-11-4-2-3-7(15)13(11)17/h2-6H,1H3,(H,18,19)
Instrument: Q Exactive Plus Orbitrap Thermo Scientific
Instrument type: LC-ESI-QFT
Ms type: MS2
Ion mode: POSITIVE
Ionization: ESI
Fragmentation mode: HCD
Collision energy: 180 (nominal)
Resolution: 35000
Column name: XBridge C18 3.5um, 2.1x50mm, Waters
Retention time: 14.2 min
Base peak: 360.954
Precursor m/z: 358.9574
Precursor type: [M+H]+
m/z	relative intensity	assigned
50.0151	104	C4H2+
51.0103	11	C3HN+
51.023	43	C4H3+
52.0182	160	C3H2N+
53.0022	43	C3HO+
53.0386	10	C4H5+
53.9975	2	C2NO+
54.0338	3	C3H4N+
55.0179	33	C3H3O+
56.9794	11	C2HS+
57.9872	16	C2H2S+
58.9949	1	C2H3S+
59.9664	42	COS+
59.9903	27	CH2NS+
60.984	29	C2H2Cl+
61.0073	39	C5H+
61.9792	342	CHClN+
62.0151	148	C5H2+
63.0229	338	C5H3+
64.0182	614	C4H2N+
65.0022	30	C4HO+
65.026	106	C4H3N+
65.0386	13	C5H5+
66.01	3	C4H2O+
66.0212	7	C3H2N2+
66.0339	16	C4H4N+
66.0464	8	C5H6+
67.029	12	C3H3N2+
67.0415	7	C4H5N+
68.0131	29	C3H2NO+
68.9793	192	C3HS+
69.9746	59	C2NS+
69.9872	37	C3H2S+
71.9902	9	C2H2NS+
72.9839	294	C3H2Cl+
73.9792	34	C2HClN+
74.0151	242	C6H2+
75.0103	232	C5HN+
75.0229	345	C6H3+
76.0181	999	C5H2N+
76.0307	85	
77.0021	14	C5HO+
77.0259	68	C5H3N+
77.0385	21	C6H5+
78.0338	363	C5H4N+
78.9403	134	CClS+
79.0178	10	C5H3O+
80.0131	4	C4H2NO+
80.037	2	C4H4N2+
80.9793	25	C4HS+
81.0335	10	C5H5O+
81.9872	59	C4H2S+
82.0287	27	C4H4NO+
82.9824	10	C3HNS+
82.9949	3	C4H3S+
83.0366	1	C4H5NO+
83.9762	7	C4HCl+
83.9902	34	C3H2NS+
84.9839	112	C4H2Cl+
85.9695	39	C2NOS+
85.9792	215	C3HClN+
85.9917	14	C4H3Cl+
86.0151	23	
87.0229	44	C7H3+
87.9948	18	C3H3ClN+
88.0182	62	C6H2N+
88.0307	20	C7H4+
89.026	20	C6H3N+
89.0386	24	C7H5+
90.0105	53	C3H5ClN+
90.0338	90	C6H4N+
91.0291	122	C5H3N2+
91.0417	19	C6H5N+
92.0369	106	C5H4N2+
92.9794	152	C5HS+
93.9746	18	C4NS+
93.9872	107	C5H2S+
94.9824	8	C4HNS+
94.9951	14	C5H3S+
95.0491	44	C6H7O+
95.9902	21	C4H2NS+
96.0029	3	C5H4S+
96.0443	7	C5H6NO+
96.984	70	C5H2Cl+
97.9791	8	C4HClN+
97.9934	30	C3H2N2S+
98.0151	131	C8H2+
99.0229	348	C8H3+
99.9948	197	C4H3ClN+
100.0182	45	
100.0308	35	
101.0022	8	C7HO+
101.0135	6	C6HN2+
101.0386	16	C8H5+
102.0338	18	C7H4N+
102.0464	27	C8H6+
102.9404	28	C3ClS+
103.0291	56	C6H3N2+
103.0417	7	C7H5N+
104.0368	10	C6H4N2+
104.0494	10	C7H6N+
105.0447	23	C6H5N2+
105.9513	14	C2HClNS+
106.9824	7	C5HNS+
107.9902	61	C5H2NS+
108.984	19	C6H2Cl+
108.9981	32	C5H3NS+
109.9792	8	C5HClN+
110.9997	2	C6H4Cl+
111.0229	12	
111.9948	59	C5H3ClN+
112.0183	12	
112.0308	10	
113.0026	7	C5H4ClN+
113.0385	114	C9H5+
113.9742	7	C4HClNO+
114.0339	23	C8H4N+
114.0465	2	C9H6+
115.0415	3	C8H5N+
115.0543	36	C9H7+
116.037	3	C7H4N2+
116.956	9	C4H2ClS+
117.0446	4	C7H5N2+
118.0054	8	C4H5ClNO+
118.0414	2	C8H6O+
118.0525	17	C7H6N2+
119.0492	10	C8H7O+
119.9903	49	C6H2NS+
120.9981	44	C6H3NS+
121.0396	7	C6H5N2O+
122.0151	36	C10H2+
122.9996	8	C7H4Cl+
123.0104	18	C9HN+
123.0229	71	C10H3+
123.9949	4	C6H3ClN+
124.0182	57	C9H2N+
124.0308	84	C10H4+
125.0386	240	C10H5+
126.0464	650	C10H6+
127.0057	83	C5H4ClN2+
127.0417	33	C9H5N+
127.99	1	C5H3ClNO+
128.0495	2	C9H6N+
128.956	55	C5H2ClS+
129.0101	3	C6H6ClO+
129.0446	35	C8H5N2+
129.9512	3	C4HClNS+
130.0053	9	C5H5ClNO+
130.04	13	C7H4N3+
131.9848	2	CH6Cl2N2O+
132.9841	4	C8H2Cl+
135.0007	10	C6H3N2S+
136.0075	33	C8H5Cl+
136.0266	2	C6H4N2O2+
137.0385	21	C11H5+
138.0105	2	C7H5ClN+
138.0338	44	C10H4N+
139.0057	47	C6H4ClN2+
139.0416	19	C10H5N+
140.0495	98	C10H6N+
143.0492	52	C10H7O+
143.9668	12	C5H3ClNS+
145.016	1	C5H6ClN2O+
147.0003	24	
148.009	162	C7H4N2S+
149.0152	2	C9H6Cl+
150.0337	13	C11H4N+
150.0464	7	C12H6+
151.0417	287	C11H5N+
152.0495	66	C11H6N+
153.0333	2	C11H5O+
153.0447	41	C10H5N2+
153.0572	33	C11H7N+
154.0399	11	C9H4N3+
155.9667	3	C6H3ClNS+
156.0024	2	C10H4S+
157.0523	25	C10H7NO+
158.9997	7	C10H4Cl+
160.0074	145	C10H5Cl+
161.0025	10	C9H4ClN+
161.0154	4	C10H6Cl+
162.0339	8	C12H4N+
163.0056	2	C8H4ClN2+
163.0326	2	C8H7N2S+
164.0496	2	C12H6N+
165.0446	4	C11H5N2+
166.0524	3	C11H6N2+
167.0365	4	C11H5NO+
168.0446	16	C11H6NO+
169.052	2	C11H7NO+
169.9683	3	C8H4Cl2+
170.06	60	C11H8NO+
170.9778	21	C9HNOS+
170.9996	7	C11H4Cl+
174.0106	34	C10H5ClN+
176.0021	2	C10H5ClO+
176.0364	2	C12H4N2+
177.0446	2	C12H5N2+
178.0401	2	C11H4N3+
178.0524	14	C12H6N2+
179.0603	19	C12H7N2+
180.0445	13	C12H6NO+
180.0554	8	C11H6N3+
183.0135	23	C11H5NS+
186.0111	2	C11H5ClN+
187.0184	2	C11H6ClN+
189.0214	7	C10H6ClN2+
195.0548	3	C12H7N2O+
204.0203	2	C11H7ClNO+
214.0054	11	C12H5ClNO+
