Mass spectrum: Dexamethasone acetate; LC-ESI-QFT; MS2; CE: 60; R=35000; [M+H]+
Name: Dexamethasone acetate
Name: Dexamethason-21-acetate
Name: [2-(9-fluoro-11,17-dihydroxy-10,13,16-trimethyl-3-oxo-6,7,8,11,12,14,15,16-octahydrocyclopenta[a]phenanthren-17-yl)-2-oxoethyl] acetate
Formula: C24H31FO6
Exact mass: 434.21047
SMILES: CC1CC2C3CCC4=CC(=O)C=CC4(C3(C(CC2(C1(C(=O)COC(=O)C)O)C)O)F)C
InChI: InChI=1S/C24H31FO6/c1-13-9-18-17-6-5-15-10-16(27)7-8-21(15,3)23(17,25)19(28)11-22(18,4)24(13,30)20(29)12-31-14(2)26/h7-8,10,13,17-19,28,30H,5-6,9,11-12H2,1-4H3
Instrument: Q Exactive Plus Orbitrap Thermo Scientific
Instrument type: LC-ESI-QFT
Ms type: MS2
Ion mode: POSITIVE
Ionization: ESI
Fragmentation mode: HCD
Collision energy: 60 (nominal)
Resolution: 35000
Column name: XBridge C18 3.5um, 2.1x50mm, Waters
Retention time: 10.2 min
Base peak: 435.2176
Precursor m/z: 435.2177
Precursor type: [M+H]+
m/z	relative intensity	assigned
50.015	2	C4H2+
53.0022	4	C3HO+
53.0386	19	C4H5+
55.0179	28	C3H3O+
55.0543	51	C4H7+
57.0335	21	C3H5O+
57.0699	11	C4H9+
59.0491	4	C3H7O+
61.0284	48	C2H5O2+
65.0386	17	C5H5+
67.0542	108	C5H7+
69.0335	92	C4H5O+
69.0699	75	C5H9+
71.0128	8	C3H3O2+
71.0491	25	C4H7O+
75.044	3	C3H7O2+
77.0384	20	C6H5+
79.0542	122	C6H7+
81.0699	101	C6H9+
83.0491	22	C5H7O+
83.0856	9	C6H11+
85.0648	12	C5H9O+
91.0543	280	C7H7+
93.07	228	C7H9+
95.0492	89	C6H7O+
95.0856	111	C7H11+
97.0648	46	C6H9O+
99.044	8	C5H7O2+
101.0235	24	C4H5O3+
101.0598	10	C5H9O2+
103.0543	20	C8H7+
104.0623	2	C8H8+
105.0449	17	C6H5N2+
105.07	338	C8H9+
107.0491	38	C7H7O+
107.0856	309	C8H11+
108.057	5	C7H8O+
109.0649	66	C7H9O+
109.1012	56	C8H13+
111.0441	3	C6H7O2+
111.0805	23	C7H11O+
113.0598	5	C6H9O2+
115.0542	62	C9H7+
115.0754	5	C6H11O2+
116.062	18	C9H8+
117.0547	21	C5H9O3+
117.0699	100	C9H9+
119.0605	19	C7H7N2+
119.0856	373	C9H11+
121.0649	614	C8H9O+
121.1012	90	C9H13+
123.0805	80	C8H11O+
123.1168	8	C9H15+
125.0399	2	C7H6FO+
125.0599	30	C7H9O2+
125.0961	17	C8H13O+
128.0621	132	C10H8+
129.0699	91	C10H9+
130.0778	19	C10H10+
131.049	13	C9H7O+
131.0856	200	C10H11+
132.057	51	C9H8O+
133.0649	71	C9H9O+
133.1013	91	C10H13+
134.0726	3	C9H10O+
135.0805	230	C9H11O+
137.06	12	C8H9O2+
137.0963	16	C9H13O+
139.0753	5	C8H11O2+
141.07	82	C11H9+
142.0779	48	C11H10+
143.0856	224	C11H11+
144.0572	39	C10H8O+
144.0936	2	C11H12+
145.0649	225	C10H9O+
145.1012	98	C11H13+
146.0726	35	C10H10O+
147.0805	999	C10H11O+
149.0962	87	C10H13O+
151.0754	25	C9H11O2+
152.0621	12	C12H8+
153.07	22	C12H9+
153.0912	18	C9H13O2+
154.0777	20	C12H10+
155.0605	13	C10H7N2+
155.0855	97	C12H11+
156.0571	11	C11H8O+
156.0934	19	C12H12+
157.0648	26	C11H9O+
157.1013	61	C12H13+
158.0727	144	C11H10O+
159.0805	393	C11H11O+
160.0884	13	C11H12O+
161.0599	29	C10H9O2+
161.0962	147	C11H13O+
163.0752	24	C10H11O2+
163.1118	3	C11H15O+
165.07	55	C13H9+
165.0913	10	C10H13O2+
166.0777	24	C13H10+
167.0705	9	C9H11O3+
167.0856	77	C13H11+
167.1066	13	C10H15O2+
168.057	23	C12H8O+
168.0936	21	C13H12+
169.0649	51	C12H9O+
169.0764	14	C11H9N2+
169.1011	54	C13H13+
170.0726	32	C12H10O+
170.109	4	C13H14+
171.0805	532	C12H11O+
172.0884	49	C12H12O+
173.0962	243	C12H13O+
175.0755	5	C11H11O2+
175.1118	11	C12H15O+
177.0704	2	C14H9+
177.0913	9	C11H13O2+
178.0777	61	C14H10+
179.0856	160	C14H11+
180.0934	43	C14H12+
181.0648	43	C13H9O+
181.1012	64	C14H13+
182.0727	62	C13H10O+
182.1093	14	C14H14+
183.0805	102	C13H11O+
183.117	37	C14H15+
184.0884	30	C13H12O+
185.0962	256	C13H13O+
186.104	9	C13H14O+
187.0753	73	C12H11O2+
187.1117	46	C13H15O+
189.0701	47	C15H9+
189.0912	9	C12H13O2+
190.0777	38	C15H10+
191.0856	55	C15H11+
192.0934	90	C15H12+
193.1013	125	C15H13+
194.0727	27	C14H10O+
194.1091	94	C15H14+
195.0806	116	C14H11O+
195.1169	53	C15H15+
196.0884	134	C14H12O+
197.0962	202	C14H13O+
197.1325	17	C15H17+
198.0677	3	C13H10O2+
198.1041	41	C14H14O+
199.0754	10	C13H11O2+
199.1118	57	C14H15O+
201.0911	11	C13H13O2+
202.0779	29	C16H10+
203.0855	60	C16H11+
204.0935	161	C16H12+
205.0649	15	C15H9O+
205.1011	61	C16H13+
206.0727	12	C15H10O+
206.1093	49	C16H14+
207.0807	57	C15H11O+
207.117	76	C16H15+
208.0884	161	C15H12O+
209.0963	217	C15H13O+
209.1326	46	C16H17+
210.104	118	C15H14O+
211.0753	14	C14H11O2+
211.1119	162	C15H15O+
212.1197	82	C15H16O+
213.091	12	C14H13O2+
213.1275	57	C15H17O+
215.0856	27	C17H11+
215.1069	11	C14H15O2+
216.0933	30	C17H12+
217.1013	34	C17H13+
218.073	4	C16H10O+
218.1092	16	C17H14+
219.0809	39	C16H11O+
219.1169	85	C17H15+
220.0885	63	C16H12O+
220.1249	15	C17H16+
221.0962	183	C16H13O+
221.1325	27	C17H17+
222.1041	459	C16H14O+
223.1119	162	C16H15O+
224.0833	9	C15H12O2+
224.1198	53	C16H16O+
225.0909	14	C15H13O2+
225.1276	87	C16H17O+
226.0769	2	C18H10+
226.0988	18	C15H14O2+
226.1354	11	C16H18O+
227.0858	9	C18H11+
227.1067	10	C15H15O2+
227.1431	79	C16H19O+
228.0932	9	C18H12+
229.1013	49	C18H13+
230.1091	35	C18H14+
231.0805	19	C17H11O+
231.1169	35	C18H15+
232.0884	24	C17H12O+
233.0961	81	C17H13O+
233.133	21	C18H17+
234.104	77	C17H14O+
234.1407	11	C18H18+
235.1119	289	C17H15O+
235.1477	18	C18H19+
236.1197	55	C17H16O+
237.1275	188	C17H17O+
238.099	27	C16H14O2+
238.1354	24	C17H18O+
239.1073	16	
239.1432	37	C17H19O+
240.1144	5	C16H16O2+
241.1015	5	C19H13+
241.1224	8	C16H17O2+
242.1092	17	C19H14+
243.1168	51	C19H15+
244.0888	11	C18H12O+
244.1247	22	C19H16+
245.0962	60	C18H13O+
245.1329	19	C19H17+
246.104	61	C18H14O+
246.1401	10	C19H18+
247.1118	132	C18H15O+
247.1479	9	C19H19+
248.1197	121	C18H16O+
249.091	5	C17H13O2+
249.1275	90	C18H17O+
250.1354	12	C18H18O+
251.1066	5	C17H15O2+
251.1435	29	C18H19O+
252.1512	11	C18H20O+
253.1015	16	C20H13+
253.1222	14	C17H17O2+
253.1591	22	C18H21O+
256.1241	4	C20H16+
257.096	9	C19H13O+
257.132	17	C20H17+
258.1044	15	C19H14O+
258.1407	21	C20H18+
259.1118	60	C19H15O+
259.1482	12	C20H19+
260.1196	46	C19H16O+
261.1275	149	C19H17O+
262.1353	92	C19H18O+
263.1063	10	C18H15O2+
263.1432	97	C19H19O+
264.1509	4	C19H20O+
265.1224	4	C18H17O2+
265.159	9	C19H21O+
267.138	8	C18H19O2+
267.1743	3	C19H23O+
268.1249	4	C21H16+
270.1042	10	C20H14O+
271.1116	64	C20H15O+
272.1191	22	C20H16O+
273.1275	22	C20H17O+
274.0991	4	C19H14O2+
274.1349	15	C20H18O+
275.1071	15	C19H15O2+
275.1432	31	C20H19O+
276.151	49	C20H20O+
277.1222	9	C16H18FO3+
277.1588	24	C20H21O+
278.1665	9	C20H22O+
279.1381	5	C19H19O2+
279.1744	11	C20H23O+
283.1487	4	C19H20FO+
285.1271	27	C21H17O+
286.1354	48	C21H18O+
287.143	3	C21H19O+
289.1223	25	C20H17O2+
289.1587	4	C21H21O+
290.1295	9	C20H18O2+
291.1377	13	
291.1748	18	C21H23O+
301.1587	11	C22H21O+
304.1459	2	C21H20O2+
319.1691	4	C22H23O2+
