Mass spectrum: 2,6-Di-tert-butylpyridine; LC-ESI-QFT; MS2; CE: 150; R=35000; [M+H]+
Name: 2,6-Di-tert-butylpyridine
Name: 2,6-ditert-butylpyridine
Name: 2,6-Bis(2-methyl-2-propanyl)pyridine
Formula: C13H21N
Exact mass: 191.16740
SMILES: CC(C)(C)C1=NC(=CC=C1)C(C)(C)C
InChI: InChI=1S/C13H21N/c1-12(2,3)10-8-7-9-11(14-10)13(4,5)6/h7-9H,1-6H3
Instrument: Q Exactive Plus Orbitrap Thermo Scientific
Instrument type: LC-ESI-QFT
Ms type: MS2
Ion mode: POSITIVE
Ionization: ESI
Fragmentation mode: HCD
Collision energy: 150 (nominal)
Resolution: 35000
Column name: XBridge C18 3.5um, 2.1x50mm, Waters
Retention time: 5.5 min
Base peak: 164.9844
Precursor m/z: 192.1747
Precursor type: [M+H]+
m/z	relative intensity	assigned
50.0151	2	C4H2+
51.0229	4	C4H3+
53.0022	1	C3HO+
53.0386	12	C4H5+
54.0338	4	C3H4N+
55.0543	6	C4H7+
57.0699	5	C4H9+
65.0386	13	C5H5+
66.0464	8	C5H6+
67.0417	2	C4H5N+
67.0542	3	C5H7+
68.0495	2	C4H6N+
77.0384	5	C6H5+
78.0338	14	C5H4N+
78.0464	8	C6H6+
79.0416	3	C5H5N+
79.0542	42	C6H7+
80.0494	21	C5H6N+
80.062	3	C6H8+
81.0335	2	C5H5O+
81.0573	5	C5H7N+
89.0386	2	C7H5+
91.0543	67	C7H7+
92.0495	6	C6H6N+
93.0573	13	C6H7N+
93.0699	26	C7H9+
94.0651	9	C6H8N+
95.0366	5	C5H5NO+
95.0492	35	C6H7O+
95.073	2	C6H9N+
96.0444	39	C5H6NO+
103.0542	10	C8H7+
104.0495	85	C7H6N+
105.0448	23	C6H5N2+
105.0573	9	C7H7N+
105.0699	2	C8H9+
106.0652	107	C7H8N+
107.0729	10	C7H9N+
108.0443	3	C6H6NO+
108.0809	1	C7H10N+
109.0522	3	C6H7NO+
110.06	5	C6H8NO+
115.0541	4	C9H7+
116.0496	1	C8H6N+
117.0573	32	C8H7N+
118.0651	77	C8H8N+
119.073	88	C8H9N+
120.0446	3	C7H6NO+
120.0808	43	C8H10N+
121.0522	6	C7H7NO+
121.0886	13	C8H11N+
122.0601	8	C7H8NO+
128.0622	1	C10H8+
130.0651	9	C9H8N+
131.073	14	C9H9N+
132.0808	611	C9H10N+
133.0886	92	C9H11N+
134.0601	16	C8H8NO+
134.0964	8	C9H12N+
136.0757	20	C8H10NO+
138.0912	1	C8H12NO+
144.0808	6	C10H10N+
145.0886	2	C10H11N+
146.0965	999	C10H12N+
147.1043	191	C10H13N+
148.1121	19	C10H14N+
150.0913	5	C9H12NO+
160.1121	35	C11H14N+
161.12	8	C11H15N+
162.1277	63	C11H16N+
176.1434	19	C12H18N+
