Mass spectrum: Alachlor; LC-ESI-ITFT; MS2; CE: 60%; R=7500; [M+H]+
Name: Alachlor
Name: 2-chloranyl-N-(2,6-diethylphenyl)-N-(methoxymethyl)ethanamide
Formula: C14H20ClNO2
Exact mass: 269.1177
SMILES: CCC1=CC=CC(CC)=C1N(COC)C(=O)CCl
InChI: InChI=1S/C14H20ClNO2/c1-4-11-7-6-8-12(5-2)14(11)16(10-18-3)13(17)9-15/h6-8H,4-5,9-10H2,1-3H3
Instrument: LTQ Orbitrap XL Thermo Scientific
Instrument type: LC-ESI-ITFT
Ms type: MS2
Ion mode: POSITIVE
Ionization: ESI
Fragmentation mode: HCD
Collision energy: 60 % (nominal)
Resolution: 7500
Column name: XBridge C18 3.5um, 2.1x50mm, Waters
Retention time: 11.7 min
Base peak: 292.1079
Precursor m/z: 270.1255
Precursor type: [M+H]+
m/z	relative intensity	assigned
90.0105	115	C3H5ClN+
105.0696	17	C8H9+
131.0736	17	C9H9N+
132.0807	50	C9H10N+
133.0888	16	C9H11N+
134.0962	55	C9H12N+
144.081	31	C10H10N+
145.1017	22	C11H13+
146.0963	85	C10H12N+
147.1042	405	C10H13N+
148.1118	47	C10H14N+
160.1123	14	C11H14N+
161.1203	36	C11H15N+
162.1276	999	C11H16N+
163.1115	209	C11H15O+
170.0959	15	C12H12N+
171.1045	15	C12H13N+
173.0833	20	C11H11NO+
184.1121	15	C13H14N+
206.0727	53	C12H13ClN+
220.0889	43	C13H15ClN+
