Mass spectrum: Methiocarb; LC-ESI-ITFT; MS2; CE: 90%; R=30000; [M+H]+
Name: Methiocarb
Name: (3,5-dimethyl-4-methylsulfanyl-phenyl) N-methylcarbamate
Formula: C11H15NO2S
Exact mass: 225.0823
SMILES: O=C(Oc1cc(c(SC)c(c1)C)C)NC
InChI: InChI=1S/C11H15NO2S/c1-7-5-9(14-11(13)12-3)6-8(2)10(7)15-4/h5-6H,1-4H3,(H,12,13)
Instrument: LTQ Orbitrap XL Thermo Scientific
Instrument type: LC-ESI-ITFT
Ms type: MS2
Ion mode: POSITIVE
Ionization: ESI
Fragmentation mode: HCD
Collision energy: 90 % (nominal)
Resolution: 30000
Column name: XBridge C18 3.5um, 2.1x50mm, Waters
Retention time: 10.4 min
Base peak: 226.0902
Precursor m/z: 226.0896
Precursor type: [M+H]+
m/z	relative intensity	assigned
51.023	3	C4H3+
53.0386	46	C4H5+
55.0179	2	C3H3O+
58.0288	6	C2H4NO+
65.0386	14	C5H5+
67.0542	15	C5H7+
77.0387	592	C6H5+
78.0464	26	C6H6+
79.0543	81	C6H7+
81.0335	11	C5H5O+
91.0543	741	C7H7+
92.0621	4	C7H8+
93.07	544	C7H9+
94.0413	4	C6H6O+
94.0777	25	C7H10+
95.0492	50	C6H7O+
95.0856	5	C7H11+
103.0543	45	C8H7+
104.0621	30	C8H8+
105.0448	277	C6H5N2+
105.07	14	C8H9+
106.0414	3	C7H6O+
107.0492	987	C7H7O+
108.0569	10	C7H8O+
109.0648	15	C7H9O+
111.0263	19	C6H7S+
119.0605	4	C7H7N2+
120.0569	3	C8H8O+
121.0649	999	C8H9O+
122.0727	964	C8H10O+
123.0805	14	C8H11O+
125.0419	8	C7H9S+
126.0498	11	C7H10S+
139.0212	12	C7H7OS+
153.037	8	C8H9OS+
154.0447	66	C8H10OS+
