Mass spectrum: Tritosulfuron; LC-ESI-ITFT; MS2; CE: 35%; R=30000; [M+H]+
Name: Tritosulfuron
Name: N-{[4-methoxy-6-(trifluoromethyl)-1,3,5-triazin-2-yl]carbamoyl}-2-(trifluoromethyl)benzenesulfonamide
Formula: C13H9F6N5O4S
Exact mass: 445.0279
SMILES: c1c(S(=O)(=O)NC(Nc2nc(nc(n2)C(F)(F)F)OC)=O)c(C(F)(F)F)ccc1
InChI: InChI=1S/C13H9F6N5O4S/c1-28-11-21-8(13(17,18)19)20-9(23-11)22-10(25)24-29(26,27)7-5-3-2-4-6(7)12(14,15)16/h2-5H,1H3,(H2,20,21,22,23,24,25)
Instrument: LTQ Orbitrap XL Thermo Scientific
Instrument type: LC-ESI-ITFT
Ms type: MS2
Ion mode: POSITIVE
Ionization: ESI
Fragmentation mode: CID
Collision energy: 35 % (nominal)
Resolution: 30000
Column name: XBridge C18 3.5um, 2.1x50mm, Waters
Retention time: 10.8 min
Base peak: 446.0345
Precursor m/z: 446.0352
Precursor type: [M+H]+
m/z	relative intensity	assigned
110.0212	1	C3H3F3N+
127.0476	3	C3H6F3N2+
145.0262	4	C7H4F3+
148.0317	1	CH9FN2O3S+
164.0067	2	C9H2F2O+
175.0426	6	C2H10FN3O3S+
195.0487	830	C5H6F3N4O+
206.0076	1	C7H6F2NO2S+
208.9878	17	C7H4F3O2S+
220.0443	6	C11H6F2N2O+
221.028	999	
403.0292	63	C12H9F6N4O3S+
426.0287	14	C13H9F5N5O4S+
