Mass spectrum: Marbofloxacin; LC-ESI-QFT; MS2; CE: 120; R=35000; [M+H]+
Name: Marbofloxacin
Name: 9-Fluoro-3-methyl-10-(4-methyl-1-piperazinyl)-7-oxo-2,3-dihydro-7H-[1,3,4]oxadiazino[6,5,4-ij]quinoline-6-carboxylic acid
Formula: C17H19FN4O4
Exact mass: 362.13903
SMILES: CN1CCN(CC1)C2=C(C=C3C4=C2OCN(N4C=C(C3=O)C(=O)O)C)F
InChI: InChI=1S/C17H19FN4O4/c1-19-3-5-21(6-4-19)14-12(18)7-10-13-16(14)26-9-20(2)22(13)8-11(15(10)23)17(24)25/h7-8H,3-6,9H2,1-2H3,(H,24,25)
Instrument: Q Exactive Plus Orbitrap Thermo Scientific
Instrument type: LC-ESI-QFT
Ms type: MS2
Ion mode: POSITIVE
Ionization: ESI
Fragmentation mode: HCD
Collision energy: 120 (nominal)
Resolution: 35000
Column name: XBridge C18 3.5um, 2.1x50mm, Waters
Retention time: 3.7 min
Base peak: 363.1454
Precursor m/z: 363.1463
Precursor type: [M+H]+
m/z	relative intensity	assigned
50.0151	22	C4H2+
51.0229	42	C4H3+
52.0182	14	C3H2N+
53.0022	56	C3HO+
53.0386	16	C4H5+
54.0338	10	C3H4N+
55.0179	2	C3H3O+
55.0416	5	C3H5N+
56.0495	473	C3H6N+
57.0135	47	C3H2F+
57.0573	252	C3H7N+
58.0651	50	C3H8N+
59.0292	3	C3H4F+
61.0073	3	C5H+
62.0151	12	C5H2+
63.0229	78	C5H3+
64.0182	4	C4H2N+
65.0386	24	C5H5+
67.0416	16	C4H5N+
68.0495	18	C4H6N+
70.0651	678	C4H8N+
71.0291	15	C4H4F+
71.0729	30	C4H9N+
72.0807	999	C4H10N+
74.0151	27	C6H2+
75.0229	365	C6H3+
76.0181	65	C5H2N+
76.0307	4	C6H4+
77.0021	17	
77.0385	30	C6H5+
77.9974	3	C4NO+
78.0338	58	C5H4N+
79.0179	5	C5H3O+
79.0415	3	FH4N4+
80.013	9	C4H2NO+
80.0494	4	C5H6N+
81.0135	52	C5H2F+
82.0087	3	C4HFN+
82.0213	5	C5H3F+
82.0651	16	C5H8N+
83.0291	127	C5H4F+
83.0603	10	C4H7N2+
84.0369	12	C5H5F+
85.076	23	C4H9N2+
87.0229	26	C7H3+
88.0182	64	C6H2N+
88.0308	30	C7H4+
89.0386	229	C7H5+
90.0338	28	C6H4N+
90.0464	10	C7H6+
91.0543	11	C7H7+
92.0257	3	C6H4O+
92.0495	23	C6H6N+
93.0135	4	C6H2F+
93.0336	3	C6H5O+
94.0213	31	C6H3F+
95.0292	85	C6H4F+
95.0491	53	C6H7O+
96.0244	47	C5H3FN+
96.0369	25	C6H5F+
96.0444	57	C5H6NO+
97.0323	4	C5H4FN+
97.0448	3	C6H6F+
98.0401	19	C5H5FN+
99.0105	2	C7HN+
99.0229	4	C8H3+
100.0181	55	C7H2N+
101.0386	25	C8H5+
102.0338	179	C7H4N+
102.0463	26	
103.0179	13	C7H3O+
103.0289	4	C6H3N2+
103.0417	3	C7H5N+
103.0542	47	C8H7+
104.0131	35	C6H2NO+
104.0494	33	C7H6N+
105.0136	3	C7H2F+
105.0448	39	C6H5N2+
106.0287	9	C6H4NO+
107.0292	422	C7H4F+
108.0244	58	C6H3FN+
108.0369	77	C7H5F+
109.0448	313	C7H6F+
110.0402	23	C6H5FN+
111.0241	3	C6H4FO+
112.0182	5	C8H2N+
112.0318	2	C6H5FO+
113.0396	109	C6H6FO+
114.0344	87	
115.0417	104	C8H5N+
116.0494	95	C8H6N+
117.0448	11	C7H5N2+
117.0573	22	C8H7N+
118.0287	9	C7H4NO+
119.0164	3	C7H2FN+
119.0491	17	C8H7O+
120.0245	20	C7H3FN+
120.037	13	C8H5F+
120.0444	48	C7H6NO+
121.0323	41	C7H4FN+
121.0396	13	C6H5N2O+
121.0444	17	C8H6F+
122.04	711	C7H5FN+
123.0241	27	C7H4FO+
123.0353	259	C6H4FN2+
124.0192	17	C6H3FNO+
124.0556	2	C7H7FN+
126.0347	23	C6H5FNO+
127.0291	10	C8H3N2+
128.0495	77	C9H6N+
129.0447	189	C8H5N2+
129.0572	31	C9H7N+
130.0288	38	C8H4NO+
130.04	81	C7H4N3+
130.0652	40	C9H8N+
131.029	10	C9H4F+
131.0603	2	C8H7N2+
132.0244	102	C8H3FN+
132.0443	20	C8H6NO+
133.0322	4	C8H4FN+
133.0448	44	C9H6F+
134.0401	120	C8H5FN+
134.06	20	C8H8NO+
135.024	23	C8H4FO+
135.0478	232	C8H6FN+
136.0557	101	C8H7FN+
137.0272	4	C7H4FNO+
138.0349	19	C7H5FNO+
140.027	3	C7H5FO2+
140.0494	39	C5H5FN4+
141.0446	11	C9H5N2+
142.0289	17	C9H4NO+
142.0528	19	C9H6N2+
143.024	3	C8H3N2O+
143.0366	31	C9H5NO+
144.0445	35	C9H6NO+
144.0557	5	C8H6N3+
145.0397	5	C8H5N2O+
146.0399	25	C9H5FN+
147.024	4	C9H4FO+
147.0353	78	C8H4FN2+
147.0476	18	C9H6FN+
148.0195	21	C8H3FNO+
148.0308	31	C12H4+
148.0557	143	C9H7FN+
149.0269	4	C8H4FNO+
149.0397	3	C9H6FO+
149.051	19	C8H6FN2+
150.035	62	C8H5FNO+
151.0302	3	C7H4FN2O+
151.0428	12	C8H6FNO+
152.0506	13	C8H7FNO+
153.0452	4	C7H6FN2O+
154.0399	14	C9H4N3+
155.0604	35	C10H7N2+
156.0443	5	C5H5FN4O+
156.0682	18	C10H8N2+
157.0397	29	C9H5N2O+
157.0521	9	C5H6FN4O+
158.0237	26	C9H4NO2+
158.0401	14	C10H5FN+
158.06	14	C10H8NO+
159.0353	11	C9H4FN2+
159.0482	9	C10H6FN+
159.0549	3	C9H7N2O+
160.0557	10	C10H7FN+
161.0515	3	C9H6FN2+
162.0349	27	C9H5FNO+
163.0301	15	C8H4FN2O+
163.0428	59	C9H6FNO+
164.0506	35	C9H7FNO+
165.0462	2	C8H6FN2O+
166.0296	3	C8H5FNO2+
167.0605	3	C11H7N2+
171.0553	5	C10H7N2O+
173.0509	2	C10H6FN2+
174.0348	9	C10H5FNO+
175.03	5	C9H4FN2O+
175.0429	2	C10H6FNO+
176.038	10	C9H5FN2O+
176.0507	16	C10H7FNO+
179.0375	4	C9H6FNO2+
182.0713	9	C11H8N3+
183.0548	2	C11H7N2O+
184.0625	3	C11H8N2O+
187.0303	10	C10H4FN2O+
187.0663	2	C11H8FN2+
189.0458	23	C10H6FN2O+
190.0295	5	C10H5FNO2+
190.0535	3	C10H7FN2O+
191.038	5	C10H6FNO2+
192.0455	9	C10H7FNO2+
204.046	9	C11H7FNO2+
205.0405	3	C10H6FN2O2+
