Mass spectrum: Oryzalin; LC-ESI-QFT; MS2; CE: 75; R=35000; [M-H]-
Name: Oryzalin
Name: 4-(dipropylamino)-3,5-dinitro-benzenesulfonamide
Formula: C12H18N4O6S
Exact mass: 346.09471
SMILES: [O-][N+](=O)c1cc(cc([N+]([O-])=O)c1N(CCC)CCC)S(=O)(=O)N
InChI: InChI=1S/C12H18N4O6S/c1-3-5-14(6-4-2)12-10(15(17)18)7-9(23(13,21)22)8-11(12)16(19)20/h7-8H,3-6H2,1-2H3,(H2,13,21,22)
Instrument: Q Exactive Orbitrap Thermo Scientific
Instrument type: LC-ESI-QFT
Ms type: MS2
Ion mode: NEGATIVE
Ionization: ESI
Fragmentation mode: HCD
Collision energy: 75 (nominal)
Resolution: 35000
Column name: XBridge C18 3.5um, 2.1x50mm, Waters
Retention time: 12.1 min
Base peak: 345.0875
Precursor m/z: 345.0874
Precursor type: [M-H]-
m/z	relative intensity	assigned
57.9934	4	CNO2-
61.9706	158	NOS-
63.0115	2	C4HN-
63.9625	105	O2S-
64.0067	9	C3N2-
64.0193	25	C4H2N-
65.0145	192	C3HN2-
65.9985	145	C3NO-
67.0302	4	C3H3N2-
68.0143	15	C3H2NO-
73.0296	3	C3H5O2-
74.0038	4	C5N-
76.0193	12	C5H2N-
77.0145	29	C4HN2-
77.9656	999	NO2S-
78.9733	51	HNO2S-
79.9812	207	H2NO2S-
81.022	2	C4H3NO-
88.0067	5	C5N2-
88.0192	3	C6H2N-
89.0146	166	C5HN2-
89.9985	12	C5NO-
90.0098	9	C4N3-
90.0223	3	C5H2N2-
90.035	4	C6H4N-
91.0302	51	C5H3N2-
92.0142	36	C5H2NO-
92.0254	3	C4H2N3-
93.0094	26	C4HN2O-
93.0459	9	C5H5N2-
93.9605	5	NO3S-
94.0299	27	C5H4NO-
95.0139	2	C5H3O2-
96.0091	10	C4H2NO2-
97.0407	4	C4H5N2O-
102.0098	18	C5N3-
102.0223	5	C6H2N2-
103.0304	3	C6H3N2-
104.038	5	C6H4N2-
105.0094	10	C5HN2O-
105.022	13	C6H3NO-
105.0333	12	C5H3N3-
105.046	10	C6H5N2-
106.0174	43	C5H2N2O-
106.0298	3	C6H4NO-
106.0412	2	C5H4N3-
107.0252	41	C5H3N2O-
107.0377	2	C6H5NO-
108.0329	9	C5H4N2O-
108.0455	4	C6H6NO-
108.0567	3	C5H6N3-
109.0409	16	C5H5N2O-
114.0099	11	C6N3-
115.0303	28	C7H3N2-
116.0255	175	C6H2N3-
117.0095	3	C6HN2O-
117.0336	4	C6H3N3-
117.046	15	C7H5N2-
118.0301	5	C7H4NO-
118.0412	33	C6H4N3-
118.0665	2	C8H8N-
119.0251	82	C6H3N2O-
119.0615	4	C7H7N2-
120.0091	10	C6H2NO2-
120.0205	4	C5H2N3O-
120.0329	9	C6H4N2O-
120.0451	2	C7H6NO-
120.0568	28	C6H6N3-
121.0408	97	C6H5N2O-
122.0248	34	C6H4NO2-
122.0486	10	C6H6N2O-
124.0275	3	C5H4N2O2-
129.0333	29	C7H3N3-
130.0171	3	C7H2N2O-
130.0409	5	C7H4N3-
130.0535	9	C8H6N2-
131.025	10	C7H3N2O-
131.0489	58	C7H5N3-
131.0616	9	C8H7N2-
132.0202	11	C6H2N3O-
132.033	68	C7H4N2O-
132.0563	6	C7H6N3-
132.0693	5	C8H8N2-
133.0284	21	C6H3N3O-
133.0408	56	C7H5N2O-
133.077	4	C8H9N2-
134.0249	4	C7H4NO2-
134.036	29	C6H4N3O-
134.0487	4	C7H6N2O-
134.0615	6	C8H8NO-
135.0202	23	C6H3N2O2-
135.0565	12	C7H7N2O-
136.0517	25	C6H6N3O-
136.0639	3	C7H8N2O-
137.0356	5	C6H5N2O2-
142.0412	20	C8H4N3-
143.0615	23	C9H7N2-
144.0202	4	C7H2N3O-
144.0565	17	C8H6N3-
144.0693	5	C9H8N2-
145.0278	16	C7H3N3O-
145.0408	29	C8H5N2O-
145.0644	2	C8H7N3-
145.0771	11	C9H9N2-
146.0361	37	C7H4N3O-
146.0487	28	C8H6N2O-
146.0724	17	C8H8N3-
147.0199	18	C7H3N2O2-
147.0438	130	C7H5N3O-
147.0564	41	C8H7N2O-
148.0278	25	C7H4N2O2-
148.0517	8	C7H6N3O-
149.0356	29	C7H5N2O2-
150.0309	3	C6H4N3O2-
152.0231	3	C6H4N2O3-
156.0569	26	C9H6N3-
157.0519	3	C8H5N4-
157.0645	22	C9H7N3-
158.036	10	C8H4N3O-
158.0486	9	C9H6N2O-
158.0723	9	C9H8N3-
159.0437	5	C8H5N3O-
159.0565	22	C9H7N2O-
159.0804	3	C9H9N3-
160.0393	9	C7H4N4O-
160.0516	33	C8H6N3O-
160.0643	29	C9H8N2O-
161.0231	4	C7H3N3O2-
161.0355	9	C8H5N2O2-
161.0596	2	C8H7N3O-
161.072	23	C9H9N2O-
162.0311	27	C7H4N3O2-
163.015	13	C7H3N2O3-
163.0259	2	C6H3N4O2-
163.0515	5	C8H7N2O2-
165.9844	2	C6H2N2O2S-
169.0518	22	C9H5N4-
170.0595	3	C9H6N4-
171.0678	2	C9H7N4-
172.0517	5	C9H6N3O-
173.0596	12	C9H7N3O-
174.0674	28	C9H8N3O-
175.0262	2	C7H3N4O2-
175.0511	12	C9H7N2O2-
175.0758	2	C9H9N3O-
176.0466	9	C8H6N3O2-
177.0415	10	C7H5N4O2-
182.0209	3	C6H4N3O4-
183.0231	10	C7H7N2O2S-
186.0102	10	C6H6N2O3S-
187.0622	19	C9H7N4O-
188.0467	8	C9H6N3O2-
190.0623	4	C9H8N3O2-
191.0213	4	C7H3N4O3-
192.029	5	C7H4N4O3-
192.995	5	C7H3N3O2S-
194.0032	11	C7H4N3O2S-
194.987	9	C7H3N2O3S-
196.0185	3	C7H6N3O2S-
197.0028	13	C7H5N2O3S-
199.0185	5	C7H7N2O3S-
202.0498	12	C9H6N4O2-
203.0574	5	C9H7N4O2-
204.0654	3	C9H8N4O2-
207.0111	3	C8H5N3O2S-
211.0055	11	C7H5N3O3S-
212.0138	11	C7H6N3O3S-
212.9978	4	C7H5N2O4S-
220.0182	11	C9H6N3O2S-
221.9974	2	C8H4N3O3S-
222.0342	43	C9H8N3O2S-
223.0418	4	C9H9N3O2S-
224.0134	2	C8H6N3O3S-
226.9884	4	C6H3N4O4S-
227.0002	5	C7H5N3O4S-
228.0085	24	C7H6N3O4S-
241.0039	14	C7H5N4O4S-
244.0032	5	C7H6N3O5S-
251.0249	10	C9H7N4O3S-
267.0194	30	C9H7N4O4S-
272.9936	5	C7H5N4O6S-
