Mass spectrum: Simvastatin; LC-ESI-QFT; MS2; CE: 60; R=35000; [M+H]+
Name: Simvastatin
Name: (1S,3R,7S,8S,8aR)-8-{2-[(2R,4R)-4-hydroxy-6-oxotetrahydro-2H-pyran-2-yl]ethyl}-3,7-dimethyl-1,2,3,7,8,8a-hexahydronaphthalen-1-yl 2,2-dimethylbutanoate
Name: 2,2-dimethylbutanoic acid [(1S,3R,7S,8S,8aR)-8-[2-[(2R,4R)-4-hydroxy-6-oxo-2-oxanyl]ethyl]-3,7-dimethyl-1,2,3,7,8,8a-hexahydronaphthalen-1-yl] ester
Formula: C25H38O5
Exact mass: 418.27192
SMILES: O=C(O[C@@H]1[C@H]3C(=C/[C@H](C)C1)\C=C/[C@@H]([C@@H]3CC[C@H]2OC(=O)C[C@H](O)C2)C)C(C)(C)CC
InChI: InChI=1S/C25H38O5/c1-6-25(4,5)24(28)30-21-12-15(2)11-17-8-7-16(3)20(23(17)21)10-9-19-13-18(26)14-22(27)29-19/h7-8,11,15-16,18-21,23,26H,6,9-10,12-14H2,1-5H3/t15-,16-,18+,19+,20-,21-,23-/m0/s1
Instrument: Q Exactive Orbitrap Thermo Scientific
Instrument type: LC-ESI-QFT
Ms type: MS2
Ion mode: POSITIVE
Ionization: ESI
Fragmentation mode: HCD
Collision energy: 60 (nominal)
Resolution: 35000
Column name: XBridge C18 3.5um, 2.1x50mm, Waters
Retention time: 16.0 min
Base peak: 436.3049
Precursor m/z: 419.2792
Precursor type: [M+H]+
m/z	relative intensity	assigned
65.0385	4	C5H5+
67.0541	71	C5H7+
68.997	9	C3HO2+
69.0335	5	C4H5O+
69.0698	68	C5H9+
71.0127	20	C3H3O2+
71.049	17	C4H7O+
71.0854	7	C5H11+
77.0384	6	C6H5+
79.0541	323	C6H7+
81.0698	285	C6H9+
83.049	105	C5H7O+
83.0854	15	C6H11+
85.0646	33	C5H9O+
89.0232	18	C3H5O3+
91.0541	109	C7H7+
93.0697	146	C7H9+
95.049	29	C6H7O+
95.0854	78	C7H11+
97.0647	65	C6H9O+
105.0697	351	C8H9+
107.0854	176	C8H11+
109.0645	25	C7H9O+
109.1011	20	C8H13+
115.054	22	C9H7+
116.0617	3	C9H8+
117.0697	79	C9H9+
119.0853	180	C9H11+
121.0647	3	C8H9O+
121.1009	61	C9H13+
123.08	4	C8H11O+
125.0597	4	C7H9O2+
128.0619	69	C10H8+
129.0697	96	C10H9+
130.0776	26	C10H10+
131.0854	420	C10H11+
133.0645	6	C9H9O+
133.1011	71	C10H13+
135.0805	6	C9H11O+
135.1166	3	C10H15+
141.0696	52	C11H9+
142.0777	117	C11H10+
143.0854	999	C11H11+
144.0933	78	C11H12+
145.101	472	C11H13+
147.0802	5	C10H11O+
147.1168	22	C11H15+
149.096	16	C10H13O+
151.0752	5	C9H11O2+
153.0695	6	C12H9+
154.0774	17	C12H10+
155.0853	212	C12H11+
156.0931	123	C12H12+
157.101	382	C12H13+
158.1088	164	C12H14+
159.1166	398	C12H15+
161.0956	4	C11H13O+
161.1324	13	C12H17+
163.0749	3	C10H11O2+
163.1115	12	C11H15O+
165.0692	5	C13H9+
165.0907	3	C10H13O2+
166.078	4	C13H10+
167.0853	21	C13H11+
168.093	34	C13H12+
169.101	389	C13H13+
170.1086	28	C13H14+
171.1166	328	C13H15+
173.1322	597	C13H17+
177.0907	3	C11H13O2+
179.0854	17	C14H11+
180.0925	5	C14H12+
181.1009	75	C14H13+
182.1087	28	C14H14+
183.1166	261	C14H15+
184.1245	19	C14H16+
185.1325	51	C14H17+
187.1118	6	C13H15O+
191.1065	22	C12H15O2+
192.093	19	C15H12+
193.1007	42	C15H13+
194.1092	12	C15H14+
195.1166	47	C15H15+
196.1245	39	C15H16+
197.1322	159	C15H17+
198.14	6	C15H18+
199.1478	632	C15H19+
201.1635	62	C15H21+
203.1064	3	C13H15O2+
205.1009	14	C16H13+
206.1089	6	C16H14+
207.1166	62	C16H15+
208.1246	7	C16H16+
209.1319	5	C16H17+
210.1397	25	C16H18+
211.1117	13	C15H15O+
211.148	48	C16H19+
213.1636	5	C16H21+
215.1793	13	C16H23+
219.1165	24	C17H15+
220.1249	7	C17H16+
221.132	22	C17H17+
223.148	105	C17H19+
225.1635	311	C17H21+
229.1221	4	C15H17O2+
234.1401	16	C18H18+
239.1438	5	C17H19O+
239.1791	7	C18H23+
243.1745	7	C17H23O+
249.1634	19	C19H21+
