Mass spectrum: Isoxathion; LC-ESI-QFT; MS2; CE: 120%; R=17500; [M+H]+
Name: Isoxathion
Name: diethoxy-[(5-phenyl-1,2-oxazol-3-yl)oxy]-sulfanylidene-lambda5-phosphane
Formula: C13H16NO4PS
Exact mass: 313.0538
SMILES: CCOP(=S)(OCC)OC1=NOC(=C1)C2=CC=CC=C2
InChI: InChI=1S/C13H16NO4PS/c1-3-15-19(20,16-4-2)18-13-10-12(17-14-13)11-8-6-5-7-9-11/h5-10H,3-4H2,1-2H3
Instrument: Exploris 240 Orbitrap Thermo Scientific
Instrument type: LC-ESI-QFT
Ms type: MS2
Ion mode: POSITIVE
Ionization: ESI
Fragmentation mode: HCD
Collision energy: 120 % (nominal)
Resolution: 17500
Column name: XBridge C18 3.5um, 2.1x50mm, Waters
Retention time: 11.540 min
Base peak: 398.0878
Precursor m/z: 314.061
Precursor type: [M+H]+
m/z	relative intensity	assigned
51.023	80	C4H3+
53.0386	121	C4H5+
64.9787	691	H2O2P+
65.0385	86	C5H5+
77.0386	511	C2H8NP+
78.9402	255	OPS+
79.0542	71	C6H7+
80.9736	230	H2O3P+
91.0542	262	C7H7+
95.049	120	C6H7O+
96.9507	999	H2O2PS+
98.9842	342	H4O4P+
110.9665	40	CH4O2PS+
113.9537	68	H3O3PS+
114.9614	394	H4O3PS+
116.0495	95	C8H6N+
117.0576	15	C8H7N+
