Mass spectrum: Ioxitalamic acid; LC-ESI-ITFT; MS2; CE: 60%; R=15000; [M+H]+
Name: Ioxitalamic acid
Name: 3-acetamido-5-(2-hydroxyethylcarbamoyl)-2,4,6-triiodo-benzoic acid
Formula: C12H11I3N2O5
Exact mass: 643.7802
SMILES: CC(=O)NC1=C(I)C(C(O)=O)=C(I)C(C(=O)NCCO)=C1I
InChI: InChI=1S/C12H11I3N2O5/c1-4(19)17-10-8(14)5(11(20)16-2-3-18)7(13)6(9(10)15)12(21)22/h18H,2-3H2,1H3,(H,16,20)(H,17,19)(H,21,22)
Instrument: LTQ Orbitrap XL Thermo Scientific
Instrument type: LC-ESI-ITFT
Ms type: MS2
Ion mode: POSITIVE
Ionization: ESI
Fragmentation mode: HCD
Collision energy: 60 % (nominal)
Resolution: 15000
Column name: XBridge C18 3.5um, 2.1x50mm, Waters
Retention time: 1.3 min
Base peak: 132.958
Precursor m/z: 644.7875
Precursor type: [M+H]+
m/z	relative intensity	assigned
131.0368	21	C8H5NO+
146.0239	19	C8H4NO2+
147.0316	64	C8H5NO2+
158.0239	58	C9H4NO2+
174.0187	68	C9H4NO3+
175.0264	36	C9H5NO3+
195.9873	23	C7H2NO6+
204.9144	21	C5H2IO+
231.9257	110	C6H3INO+
245.9409	74	C7H5INO+
257.9413	137	C8H5INO+
272.9287	33	C8H4INO2+
273.9361	482	C8H5INO2+
301.9311	999	C9H5INO3+
316.9179	14	C9H4INO4+
319.9424	28	C9H7INO4+
