Mass spectrum: Tilidine; LC-ESI-QFT; MS2; CE: 60; R=35000; [M+H]+
Name: Tilidine
Name: ethyl (2R)-2-(dimethylamino)-1-phenylcyclohex-3-ene-1-carboxylate
Formula: C17H23NO2
Exact mass: 273.17288
SMILES: O=C(OCC)C2(c1ccccc1)[C@@H](\C=C/CC2)N(C)C
InChI: InChI=1S/C17H23NO2/c1-4-20-16(19)17(14-10-6-5-7-11-14)13-9-8-12-15(17)18(2)3/h5-8,10-12,15H,4,9,13H2,1-3H3/t15-,17?/m1/s1
Instrument: Q Exactive Orbitrap Thermo Scientific
Instrument type: LC-ESI-QFT
Ms type: MS2
Ion mode: POSITIVE
Ionization: ESI
Fragmentation mode: HCD
Collision energy: 60 (nominal)
Resolution: 35000
Column name: XBridge C18 3.5um, 2.1x50mm, Waters
Retention time: 5.2 min
Base peak: 274.1803
Precursor m/z: 274.1802
Precursor type: [M+H]+
m/z	relative intensity	assigned
65.0386	1	C5H5+
67.0542	4	C5H7+
73.0283	2	C3H5O2+
77.0383	12	C6H5+
78.0464	1	C6H6+
79.0542	38	C6H7+
83.0491	9	C5H7O+
91.0542	110	C7H7+
95.0491	30	C6H7O+
97.0284	1	C5H5O2+
103.0543	5	C8H7+
105.0335	17	C7H5O+
105.0447	10	C6H5N2+
105.0698	3	C8H9+
107.0491	3	C7H7O+
111.0804	1	C7H11O+
115.0542	20	C9H7+
117.0697	5	C9H9+
119.0855	27	C9H11+
123.0441	4	C7H7O2+
128.062	16	C10H8+
129.0698	72	C10H9+
131.0856	1	C10H11+
133.0648	1	C9H9O+
135.0442	3	C8H7O2+
141.0697	8	C11H9+
142.0777	4	C11H10+
143.0855	5	C11H11+
145.0648	3	C10H9O+
145.1012	1	C11H13+
152.0616	1	C12H8+
153.07	83	C12H9+
154.0778	34	C12H10+
155.0855	999	C12H11+
156.0932	16	C12H12+
157.101	4	C12H13+
165.0699	9	C13H9+
173.0598	3	C11H9O2+
173.096	2	C12H13O+
183.0805	6	C13H11O+
