Mass spectrum: Diazepam; LC-ESI-ITFT; MS2; CE: 30%; R=15000; [M+H]+
Name: Diazepam
Name: 7-chloranyl-1-methyl-5-phenyl-3H-1,4-benzodiazepin-2-one
Formula: C16H13ClN2O
Exact mass: 284.0716
SMILES: CN1C2=C(C=C(Cl)C=C2)C(=NCC1=O)C3=CC=CC=C3
InChI: InChI=1S/C16H13ClN2O/c1-19-14-8-7-12(17)9-13(14)16(18-10-15(19)20)11-5-3-2-4-6-11/h2-9H,10H2,1H3
Instrument: LTQ Orbitrap XL Thermo Scientific
Instrument type: LC-ESI-ITFT
Ms type: MS2
Ion mode: POSITIVE
Ionization: ESI
Fragmentation mode: HCD
Collision energy: 30 % (nominal)
Resolution: 15000
Column name: XBridge C18 3.5um, 2.1x50mm, Waters
Retention time: 10.1 min
Base peak: 285.0798
Precursor m/z: 285.0789
Precursor type: [M+H]+
m/z	relative intensity	assigned
105.0336	2	C7H5O+
182.0365	3	C9H9ClNO+
222.1149	2	C15H14N2+
228.057	3	C14H11ClN+
257.084	14	C15H14ClN2+
285.079	999	C16H14ClN2O+
