Mass spectrum: 2-(3-Hydroxycyclohexyl)-5-(2-methyl-2-octanyl)phenol; LC-ESI-QFT; MS2; CE: 75; R=35000; [M+H]+
Name: 2-(3-Hydroxycyclohexyl)-5-(2-methyl-2-octanyl)phenol
Name: CP47.497
Name: 2-(3-hydroxycyclohexyl)-5-(2-methyloctan-2-yl)phenol
Formula: C21H34O2
Exact mass: 318.25588
SMILES: CCCCCCC(C)(C)C1=CC(=C(C=C1)C2CCCC(C2)O)O
InChI: InChI=1S/C21H34O2/c1-4-5-6-7-13-21(2,3)17-11-12-19(20(23)15-17)16-9-8-10-18(22)14-16/h11-12,15-16,18,22-23H,4-10,13-14H2,1-3H3
Instrument: Q Exactive Plus Orbitrap Thermo Scientific
Instrument type: LC-ESI-QFT
Ms type: MS2
Ion mode: POSITIVE
Ionization: ESI
Fragmentation mode: HCD
Collision energy: 75 (nominal)
Resolution: 35000
Column name: XBridge C18 3.5um, 2.1x50mm, Waters
Retention time: 17.2 min
Base peak: 391.2833
Precursor m/z: 319.2632
Precursor type: [M+H]+
m/z	relative intensity	assigned
51.0228	1	C4H3+
53.0022	30	C3HO+
53.0386	27	C4H5+
53.9974	7	C2NO+
55.0178	2	C3H3O+
55.0542	33	C4H7+
57.0699	392	C4H9+
65.0385	1	C5H5+
67.0543	10	C5H7+
67.9893	2	C3O2+
69.0334	4	C4H5O+
69.0699	20	C5H9+
71.0855	191	C5H11+
77.0384	17	C6H5+
79.0542	187	C6H7+
81.0699	105	C6H9+
83.0854	2	C6H11+
85.1011	46	C6H13+
91.0542	128	C7H7+
92.062	2	C7H8+
93.0699	103	C7H9+
95.0491	60	C6H7O+
95.0854	5	C7H11+
103.0542	8	C8H7+
104.0619	1	C8H8+
105.0447	48	C6H5N2+
105.0699	83	C8H9+
106.0775	2	C8H10+
107.0491	999	C7H7O+
109.0647	25	C7H9O+
115.0541	6	C9H7+
116.062	2	C9H8+
117.0699	9	C9H9+
119.0491	5	C8H7O+
119.0855	16	C9H11+
120.057	36	C8H8O+
120.0934	26	C9H12+
121.0648	877	C8H9O+
121.1011	48	C9H13+
123.0803	8	C8H11O+
129.0698	5	C10H9+
130.0778	5	C10H10+
131.0856	18	C10H11+
133.0648	591	C9H9O+
134.0726	38	C9H10O+
135.0804	34	C9H11O+
145.1012	5	C11H13+
147.0804	82	C10H11O+
148.0882	391	C10H12O+
149.0961	70	C10H13O+
159.1167	5	C12H15+
161.096	5	C11H13O+
163.1119	1	C11H15O+
175.1116	2	C12H15O+
191.143	6	C13H19O+
233.1899	7	C16H25O+
