Mass spectrum: Chlormephos; LC-ESI-QFT; MS2; CE: 45%; R=17500; [M+H]+
Name: Chlormephos
Name: chloromethylsulfanyl-diethoxy-sulfanylidene-lambda5-phosphane
Formula: C5H12ClO2PS2
Exact mass: 233.9705
SMILES: CCOP(=S)(OCC)SCCl
InChI: InChI=1S/C5H12ClO2PS2/c1-3-7-9(10,8-4-2)11-5-6/h3-5H2,1-2H3
Instrument: Exploris 240 Orbitrap Thermo Scientific
Instrument type: LC-ESI-QFT
Ms type: MS2
Ion mode: POSITIVE
Ionization: ESI
Fragmentation mode: HCD
Collision energy: 45 % (nominal)
Resolution: 17500
Column name: XBridge C18 3.5um, 2.1x50mm, Waters
Retention time: 9.801 min
Base peak: 132.9583
Precursor m/z: 234.9778
Precursor type: [M+H]+
m/z	relative intensity	assigned
96.9508	410	H2O2PS+
114.9614	642	CH4ClO2S+
124.9824	206	C3H6ClOS+
142.9386	999	CH4O2PS2+
