Mass spectrum: Iobitridol; LC-ESI-ITFT; MS2; CE: 75%; R=7500; [M+H]+
Name: Iobitridol
Name: 1,3-Benzenedicarboxamide, N,N'-bis(2,3-dihydroxypropyl)-5-((5-hydroxy-2-(hydroxymethyl)-1-oxopropyl)amino)-2,4,6-triiodo-N,N'-dimethyl-
Name: 1-N,3-N-bis(2,3-dihydroxypropyl)-5-[[3-hydroxy-2-(hydroxymethyl)propanoyl]amino]-2,4,6-triiodo-1-N,3-N-dimethylbenzene-1,3-dicarboxamide
Formula: C20H28I3N3O9
Exact mass: 834.8960
SMILES: Ic1c(c(I)c(c(I)c1NC(=O)C(CO)CO)C(=O)N(CC(O)CO)C)C(=O)N(CC(O)CO)C
InChI: InChI=1S/C20H28I3N3O9/c1-25(3-10(31)7-29)19(34)12-14(21)13(20(35)26(2)4-11(32)8-30)16(23)17(15(12)22)24-18(33)9(5-27)6-28/h9-11,27-32H,3-8H2,1-2H3,(H,24,33)
Instrument: LTQ Orbitrap XL Thermo Scientific
Instrument type: LC-ESI-ITFT
Ms type: MS2
Ion mode: POSITIVE
Ionization: ESI
Fragmentation mode: HCD
Collision energy: 75 % (nominal)
Resolution: 7500
Column name: XBridge C18 3.5um, 2.1x50mm, Waters
Retention time: 1.6 min
Base peak: 149.0023
Precursor m/z: 835.9032
Precursor type: [M+H]+
m/z	relative intensity	assigned
101.9974	728	C6NO+
103.0419	123	C7H5N+
104.0498	113	C7H6N+
114.034	250	C8H4N+
115.0412	80	C8H5N+
132.0442	153	C8H6NO+
141.0201	146	C7HN4+
142.0282	124	C9H4NO+
144.045	171	C9H6NO+
159.0314	219	C9H5NO2+
160.0031	127	C8H2NO3+
160.039	366	C9H6NO2+
170.0236	999	C10H4NO2+
172.039	163	C10H6NO2+
185.0712	182	C11H9N2O+
188.0338	294	C10H6NO3+
196.1693	114	C12H22NO+
200.0349	154	C11H6NO3+
242.9172	114	C7H2INO+
243.9258	123	C7H3INO+
256.8967	258	C7INO2+
257.9409	253	C8H5INO+
269.9413	302	C9H5INO+
285.9363	460	C9H5INO2+
293.8995	289	C5HIN3O4+
295.9197	214	C10H3INO2+
313.9307	231	C10H5INO3+
325.9323	97	C11H5INO3+
355.8049	228	C3H2I2O4+
