Mass spectrum: 2-(3-Hydroxycyclohexyl)-5-(2-methyl-2-octanyl)phenol; LC-ESI-QFT; MS2; CE: 45; R=35000; [M-H]-
Name: 2-(3-Hydroxycyclohexyl)-5-(2-methyl-2-octanyl)phenol
Name: CP47.497
Name: 2-(3-hydroxycyclohexyl)-5-(2-methyloctan-2-yl)phenol
Formula: C21H34O2
Exact mass: 318.25588
SMILES: CCCCCCC(C)(C)C1=CC(=C(C=C1)C2CCCC(C2)O)O
InChI: InChI=1S/C21H34O2/c1-4-5-6-7-13-21(2,3)17-11-12-19(20(23)15-17)16-9-8-10-18(22)14-16/h11-12,15-16,18,22-23H,4-10,13-14H2,1-3H3
Instrument: Q Exactive Plus Orbitrap Thermo Scientific
Instrument type: LC-ESI-QFT
Ms type: MS2
Ion mode: NEGATIVE
Ionization: ESI
Fragmentation mode: HCD
Collision energy: 45 (nominal)
Resolution: 35000
Column name: XBridge C18 3.5um, 2.1x50mm, Waters
Retention time: 17.0 min
Base peak: 363.2538
Precursor m/z: 317.2486
Precursor type: [M-H]-
m/z	relative intensity	assigned
57.0345	2	C3H5O-
83.0502	9	C5H7O-
213.1286	3	C15H17O-
219.1755	4	C15H23O-
231.1388	5	C15H19O2-
245.1911	222	C17H25O-
246.1257	1	C15H18O3-
247.2068	1	C17H27O-
261.222	3	C18H29O-
271.2067	54	C19H27O-
273.2223	7	C19H29O-
289.2535	3	C20H33O-
295.2068	1	C21H27O-
297.2234	1	C21H29O-
299.2379	943	C21H31O-
313.2163	3	C21H29O2-
315.2327	102	C21H31O2-
317.2483	999	C21H33O2-
