Mass spectrum: N-(2,4-dimethylphenyl)formamide; LC-ESI-QFT; MS2; CE: 180; R=35000; [M+H]+
Name: N-(2,4-dimethylphenyl)formamide
Formula: C9H11NO
Exact mass: 149.08406
SMILES: CC1=C(NC([H])=O)C=CC(C)=C1
InChI: InChI=1S/C9H11NO/c1-7-3-4-9(10-6-11)8(2)5-7/h3-6H,1-2H3,(H,10,11)
Instrument: Q Exactive Plus Orbitrap Thermo Scientific
Instrument type: LC-ESI-QFT
Ms type: MS2
Ion mode: POSITIVE
Ionization: ESI
Fragmentation mode: HCD
Collision energy: 180 (nominal)
Resolution: 35000
Column name: XBridge C18 3.5um, 2.1x50mm, Waters
Retention time: 6.6 min
Base peak: 150.0913
Precursor m/z: 150.0913
Precursor type: [M+H]+
m/z	relative intensity	assigned
50.0151	125	C4H2+
51.023	171	C4H3+
52.0308	2	C4H4+
53.0386	125	C4H5+
54.0338	13	C3H4N+
55.0179	4	C3H3O+
55.0542	4	C4H7+
56.0496	1	C3H6N+
63.0229	55	C5H3+
64.0308	14	C5H4+
65.0386	64	C5H5+
66.0338	5	C4H4N+
66.0464	21	C5H6+
67.0417	39	C4H5N+
67.0542	6	C5H7+
67.9893	1	C3O2+
68.0495	3	C4H6N+
75.0229	6	C6H3+
77.0386	263	C6H5+
78.0338	15	C5H4N+
78.0465	20	C6H6+
79.0542	359	C6H7+
80.0494	70	C5H6N+
80.062	3	C6H8+
81.0335	16	C5H5O+
81.0573	1	C5H7N+
89.0386	204	C7H5+
90.0465	36	C7H6+
91.0543	29	C7H7+
92.0495	7	C6H6N+
93.0573	1	C6H7N+
94.0414	7	C6H6O+
95.0492	422	C6H7O+
96.0444	17	C5H6NO+
102.0464	4	C8H6+
103.0543	23	C8H7+
104.0494	4	C7H6N+
105.0448	232	C6H5N2+
106.0652	999	C7H8N+
107.0491	23	C7H7O+
107.073	20	C7H9N+
108.0569	1	C7H8O+
109.065	1	C7H9O+
117.0572	3	C8H7N+
118.0652	1	C8H8N+
120.0808	3	C8H10N+
