Mass spectrum: Fenthion-sulfone; LC-ESI-QFT; MS2; CE: 180; R=35000; [M+H]+
Name: Fenthion-sulfone
Name: Fenthione sulphone
Name: O,O-Dimethyl O-[3-methyl-4-(methylsulfonyl)phenyl] phosphorothioate
Formula: C10H15O5PS2
Exact mass: 310.00985
SMILES: CC1=C(C=CC(=C1)OP(=S)(OC)OC)S(=O)(=O)C
InChI: InChI=1S/C10H15O5PS2/c1-8-7-9(15-16(17,13-2)14-3)5-6-10(8)18(4,11)12/h5-7H,1-4H3
Instrument: Q Exactive Plus Orbitrap Thermo Scientific
Instrument type: LC-ESI-QFT
Ms type: MS2
Ion mode: POSITIVE
Ionization: ESI
Fragmentation mode: HCD
Collision energy: 180 (nominal)
Resolution: 35000
Column name: XBridge C18 3.5um, 2.1x50mm, Waters
Retention time: 7.8 min
Base peak: 311.0163
Precursor m/z: 311.0171
Precursor type: [M+H]+
m/z	relative intensity	assigned
50.0151	504	C4H2+
51.0229	853	C4H3+
52.0308	88	C4H4+
53.0022	120	C3HO+
53.0386	213	C4H5+
53.9974	15	C2NO+
55.0178	54	C3H3O+
56.9794	7	C2HS+
56.9889	18	C2H2P+
57.9872	57	C2H2S+
58.995	57	C2H3S+
59.9664	144	COS+
61.0073	49	C5H+
61.0106	4	C2H5S+
62.0151	236	C5H2+
62.0185	15	C2H6S+
62.9453	460	PS+
62.9994	114	CH4OP+
63.0229	999	C5H3+
63.9436	6	S2+
64.0307	63	C5H4+
65.0021	46	
65.0386	821	C5H5+
66.0464	136	C5H6+
67.0542	43	C5H7+
67.9893	8	C3O2+
68.9793	384	C3HS+
68.9888	26	C3H2P+
69.9872	41	C3H2S+
70.9949	101	C3H3S+
74.015	36	C6H2+
75.0229	34	C6H3+
76.0306	20	C6H4+
77.0385	348	C6H5+
78.0464	288	C6H6+
78.9943	160	CH4O2P+
79.0177	18	C5H3O+
79.0541	65	C6H7+
79.9479	16	HOPS+
80.9888	16	
81.01	8	CH6O2P+
81.0334	18	C5H5O+
81.9871	46	C4H2S+
82.9949	15	C4H3S+
84.0028	25	C4H4S+
84.9742	4	C3HOS+
89.0385	524	C7H5+
90.0464	9	C7H6+
91.0542	247	C7H7+
92.9793	26	C5HS+
93.0099	16	C2H6O2P+
93.0334	3	C6H5O+
94.0412	15	C6H6O+
94.9949	40	C5H3S+
95.0491	432	C6H7O+
96.0028	18	C5H4S+
97.0106	109	C5H5S+
98.9841	25	H4O4P+
102.0462	3	C8H6+
103.0541	20	C8H7+
105.0447	293	C6H5N2+
107.0045	40	C6H4P+
107.049	18	C7H7O+
108.0027	37	C6H4S+
109.0105	45	C6H5S+
121.0106	408	C7H5S+
122.0185	6	C7H6S+
134.0186	9	C8H6S+
137.0054	6	C7H5OS+
138.9764	7	C6H4PS+
