Mass spectrum: Eprosartan; LC-ESI-ITFT; MS2; CE: 90%; R=30000; [M+H]+
Name: Eprosartan
Name: 4-[[2-butyl-5-[(E)-3-hydroxy-3-keto-2-(2-thenyl)prop-1-enyl]imidazol-1-yl]methyl]benzoic acid
Formula: C23H24N2O4S
Exact mass: 424.1457
SMILES: CCCCC1=NC=C(N1CC2=CC=C(C=C2)C(=O)O)/C=C(\CC3=CC=CS3)/C(=O)O
InChI: InChI=1S/C23H24N2O4S/c1-2-3-6-21-24-14-19(12-18(23(28)29)13-20-5-4-11-30-20)25(21)15-16-7-9-17(10-8-16)22(26)27/h4-5,7-12,14H,2-3,6,13,15H2,1H3,(H,26,27)(H,28,29)/b18-12+
Instrument: LTQ Orbitrap XL Thermo Scientific
Instrument type: LC-ESI-ITFT
Ms type: MS2
Ion mode: POSITIVE
Ionization: ESI
Fragmentation mode: HCD
Collision energy: 90 % (nominal)
Resolution: 30000
Column name: XBridge C18 3.5um, 2.1x50mm, Waters
Retention time: 6.3 min
Base peak: 425.154
Precursor m/z: 425.153
Precursor type: [M+H]+
m/z	relative intensity	assigned
77.0385	42	C6H5+
78.0338	53	C5H4N+
79.0542	39	C6H7+
80.0494	63	C5H6N+
91.0542	20	C7H7+
97.0106	58	C5H5S+
105.0447	15	C6H5N2+
107.0491	999	C7H7O+
119.0603	34	C7H7N2+
120.0682	35	C7H8N2+
121.0102	7	C7H5S+
134.0184	11	C8H6S+
135.0264	18	C8H7S+
135.044	130	C8H7O2+
160.0214	22	C9H6NS+
161.0293	20	C9H7NS+
162.0372	23	C9H8NS+
173.0287	10	C10H7NS+
174.037	74	C10H8NS+
201.048	59	C11H9N2S+
353.1029	6	C23H15NO3+
