Mass spectrum: Chlorthalidone; LC-ESI-QFT; MS2; CE: 75; R=35000; [M-H]-
Name: Chlorthalidone
Name: Chlortalidone
Name: 2-chloranyl-5-(1-oxidanyl-3-oxidanylidene-2H-isoindol-1-yl)benzenesulfonamide
Formula: C14H11ClN2O4S
Exact mass: 338.01281
SMILES: O=S(=O)(N)c1c(Cl)ccc(c1)C2(O)c3ccccc3C(=O)N2
InChI: InChI=1S/C14H11ClN2O4S/c15-11-6-5-8(7-12(11)22(16,20)21)14(19)10-4-2-1-3-9(10)13(18)17-14/h1-7,19H,(H,17,18)(H2,16,20,21)
Instrument: Q Exactive Orbitrap Thermo Scientific
Instrument type: LC-ESI-QFT
Ms type: MS2
Ion mode: NEGATIVE
Ionization: ESI
Fragmentation mode: HCD
Collision energy: 75 (nominal)
Resolution: 35000
Column name: XBridge C18 3.5um, 2.1x50mm, Waters
Retention time: 5.4 min
Base peak: 337.0058
Precursor m/z: 337.0055
Precursor type: [M-H]-
m/z	relative intensity	assigned
57.9757	9	CNS-
61.9706	354	NOS-
63.024	1	C5H3-
63.9624	108	O2S-
65.9986	2	C3NO-
75.0241	2	C6H3-
77.9656	256	NO2S-
78.9734	5	HNO2S-
79.9812	952	H2NO2S-
89.027	1	C6H3N-
90.035	88	C6H4N-
91.019	32	C6H3O-
92.0143	1	C5H2NO-
102.0349	2	C7H4N-
105.0219	8	C6H3NO-
106.0299	2	C6H4NO-
108.0217	10	C6H4O2-
115.0303	31	C7H3N2-
120.0455	2	C7H6NO-
125.9878	8	C6H3ClO-
126.0116	16	C6H5ClN-
126.9958	8	C6H4ClO-
135.9862	1	C6H2NOS-
146.0248	999	C8H4NO2-
153.9969	69	C6H4NO2S-
164.0511	1	C12H6N-
166.0664	6	C12H8N-
173.9545	2	C6H3ClO2S-
189.9739	6	C6H5ClNO2S-
190.054	6	C13H6N2-
191.0616	9	C13H7N2-
192.0454	11	C13H6NO-
193.0407	1	C12H5N2O-
194.0612	13	C13H8NO-
207.0566	2	C13H7N2O-
219.0564	34	C14H7N2O-
220.0406	22	C14H6NO2-
235.0512	10	C14H7N2O2-
