Mass spectrum: Flunixine; LC-ESI-QFT; MS2; CE: 75; R=35000; [M-H]-
Name: Flunixine
Name: Banamine
Name: 2-[2-methyl-3-(trifluoromethyl)anilino]pyridine-3-carboxylic acid
Formula: C14H11F3N2O2
Exact mass: 296.07726
SMILES: CC1=C(C=CC=C1NC2=C(C=CC=N2)C(=O)O)C(F)(F)F
InChI: InChI=1S/C14H11F3N2O2/c1-8-10(14(15,16)17)5-2-6-11(8)19-12-9(13(20)21)4-3-7-18-12/h2-7H,1H3,(H,18,19)(H,20,21)
Instrument: Q Exactive Plus Orbitrap Thermo Scientific
Instrument type: LC-ESI-QFT
Ms type: MS2
Ion mode: NEGATIVE
Ionization: ESI
Fragmentation mode: HCD
Collision energy: 75 (nominal)
Resolution: 35000
Column name: XBridge C18 3.5um, 2.1x50mm, Waters
Retention time: 11.0 min
Base peak: 295.0694
Precursor m/z: 295.07
Precursor type: [M-H]-
m/z	relative intensity	assigned
50.0035	1	C3N-
62.9887	1	CFO2-
64.0192	1	C4H2N-
66.0349	5	C4H4N-
68.9958	24	CF3-
76.0193	5	C5H2N-
91.0302	6	C5H3N2-
93.0457	5	C5H5N2-
114.0349	76	C8H4N-
115.0301	1	C7H3N2-
127.0364	1	C7H5F2-
134.0411	44	C8H5FN-
140.0508	7	C10H6N-
141.0459	12	C9H5N2-
142.0534	1	C9H6N2-
154.0475	1	C8H6F2N-
155.0378	6	C10H5NO-
163.0429	1	C12H5N-
164.0506	106	C12H6N-
165.0457	51	C11H5N2-
166.0536	37	C11H6N2-
169.0406	4	C10H5N2O-
174.0349	8	C13H4N-
178.0535	3	C12H6N2-
180.033	3	C11H4N2O-
180.069	1	C12H8N2-
181.0775	1	C12H9N2-
182.0484	3	C11H6N2O-
184.0567	125	C12H7FN-
185.0521	3	C11H6FN2-
189.046	57	C13H5N2-
190.0537	202	C13H6N2-
191.0616	999	C13H7N2-
193.0406	19	C12H5N2O-
194.041	51	C13H5FN-
194.0483	3	C12H6N2O-
195.0366	6	C12H4FN2-
196.0442	9	C12H5FN2-
200.039	11	C11H5FN2O-
204.063	16	C12H8F2N-
206.0486	1	C13H6N2O-
208.0279	5	C12H4N2O2-
209.0521	978	C13H6FN2-
210.0599	23	C13H7FN2-
211.0677	254	C13H8FN2-
214.0471	7	C13H6F2N-
215.0428	1	C12H5F2N2-
216.0504	38	C12H6F2N2-
222.0442	1	C13H6N2O2-
222.0738	6	C12H10F2NO-
224.0693	109	C12H9F3N-
225.0469	17	C13H6FN2O-
228.0342	14	C12H5FN2O2-
229.0582	49	C13H7F2N2-
230.066	26	C13H8F2N2-
231.0738	100	C13H9F2N2-
234.0536	53	C13H7F3N-
235.0491	23	C12H6F3N2-
249.0645	66	C13H8F3N2-
251.0801	41	C13H10F3N2-
255.0584	1	C14H8FN2O2-
