Mass spectrum: Oxytetracycline; LC-ESI-QFT; MS2; CE: 30; R=35000; [M-H]-
Name: Oxytetracycline
Name: (4S,4aR,5S,5aR,6S,12aS)-4-(Dimethylamino)-3,5,6,10,12,12a-hexahydroxy-6-methyl-1,11-dioxo-1,4,4a,5,5a,6,11,12a-octahydro-2-tetracenecarboxamide
Name: 2-carbamoyl-4-(dimethylazaniumyl)-5,6,10,11,12a-pentahydroxy-6-methyl-3,12-dioxo-4,4a,5,5a-tetrahydrotetracen-1-olate
Formula: C22H24N2O9
Exact mass: 460.14818
SMILES: CC1(C2C(C3C(C(=O)C(=C(C3(C(=O)C2=C(C4=C1C=CC=C4O)O)O)O)C(=O)N)N(C)C)O)O
InChI: InChI=1S/C22H24N2O9/c1-21(32)7-5-4-6-8(25)9(7)15(26)10-12(21)17(28)13-14(24(2)3)16(27)11(20(23)31)19(30)22(13,33)18(10)29/h4-6,12-14,17,25-26,28,30,32-33H,1-3H3,(H2,23,31)
Instrument: Q Exactive Plus Orbitrap Thermo Scientific
Instrument type: LC-ESI-QFT
Ms type: MS2
Ion mode: NEGATIVE
Ionization: ESI
Fragmentation mode: HCD
Collision energy: 30 (nominal)
Resolution: 35000
Column name: XBridge C18 3.5um, 2.1x50mm, Waters
Retention time: 4.3 min
Base peak: 459.1405
Precursor m/z: 459.1409
Precursor type: [M-H]-
m/z	relative intensity	assigned
72.9931	2	C2HO3-
83.0138	1	C4H3O2-
84.009	2	C3H2NO2-
87.0087	12	C3H3O3-
95.0138	7	C5H3O2-
96.009	1	C4H2NO2-
96.993	3	C4HO3-
97.0294	4	C5H5O2-
99.0087	7	C4H3O3-
100.0767	4	C5H10NO-
108.0217	3	C6H4O2-
109.0294	6	C6H5O2-
111.0087	11	C5H3O3-
121.0293	1	C7H5O2-
123.0087	3	C6H3O3-
124.0164	5	C6H4O3-
124.988	6	C5HO4-
125.0243	26	C6H5O3-
125.072	9	C6H9N2O-
126.0559	2	C6H8NO2-
135.0089	4	C7H3O3-
135.045	19	C8H7O2-
136.0403	1	C7H6NO2-
136.0766	2	C8H10NO-
136.9878	2	C6HO4-
137.0244	11	C7H5O3-
138.0323	4	C7H6O3-
140.0353	2	C6H6NO3-
140.0717	6	C7H10NO2-
141.0194	2	C6H5O4-
142.0145	161	C5H4NO4-
142.9985	14	C5H3O5-
147.0451	2	C9H7O2-
150.0197	4	C7H4NO3-
151.0037	7	C7H3O4-
151.0275	27	C7H5NO3-
152.0115	2	C7H4O4-
152.0353	3	C7H6NO3-
152.0717	9	C8H10NO2-
153.0194	7	C7H5O4-
154.0146	2	C6H4NO4-
154.0384	2	C6H6N2O3-
159.045	6	C10H7O2-
161.0244	22	C9H5O3-
161.0608	2	C10H9O2-
162.0197	3	C8H4NO3-
162.0323	2	C9H6O3-
163.0036	12	C8H3O4-
163.0282	6	C8H5NO3-
163.0401	40	C9H7O3-
164.0115	10	C8H4O4-
164.0717	12	C9H10NO2-
165.0558	1	C9H9O3-
166.087	1	C9H12NO2-
167.0223	12	C7H5NO4-
168.0302	44	C7H6NO4-
168.0666	22	C8H10NO3-
169.0143	2	C7H5O5-
169.0257	2	C6H5N2O4-
169.0618	22	C7H9N2O3-
170.0824	2	C8H12NO3-
173.0241	4	C10H5O3-
173.0606	31	C11H9O2-
174.0323	5	C10H6O3-
175.0397	1	C10H7O3-
177.0557	3	C10H9O3-
178.0148	4	C8H4NO4-
178.0509	1	C9H8NO3-
178.9985	2	C8H3O5-
179.0223	3	C8H5NO4-
180.0302	26	C8H6NO4-
180.0666	3	C9H10NO3-
181.0381	85	C8H7NO4-
182.0822	21	C9H12NO3-
184.0251	5	C7H6NO5-
185.0605	2	C12H9O2-
187.04	11	C11H7O3-
187.0765	2	C12H11O2-
188.0477	10	C11H8O3-
189.0192	2	C10H5O4-
189.0558	24	C11H9O3-
190.0509	6	C10H8NO3-
190.0875	2	C11H12NO2-
191.0352	4	C10H7O4-
191.0717	1	C11H11O3-
192.054	2	C9H8N2O3-
192.0667	1	C10H10NO3-
192.103	1	C11H14NO2-
193.0617	2	C9H9N2O3-
195.0774	13	C9H11N2O3-
196.0251	23	C8H6NO5-
196.0613	4	C9H10NO4-
199.0765	12	C13H11O2-
201.0557	88	C12H9O3-
202.0638	1	C12H10O3-
203.0714	53	C12H11O3-
207.0774	28	C10H11N2O3-
208.0614	18	C10H10NO4-
209.0606	6	C14H9O2-
211.0723	11	C9H11N2O4-
212.0481	3	C13H8O3-
213.0559	5	C13H9O3-
215.035	3	C12H7O4-
216.043	1	C12H8O4-
217.0142	3	C11H5O5-
217.0506	4	C12H9O4-
218.0216	2	C11H6O5-
218.0821	2	C12H12NO3-
219.066	8	C12H11O4-
223.0763	5	C15H11O2-
224.0473	1	C14H8O3-
225.0556	3	C14H9O3-
225.0881	21	C10H13N2O4-
227.0352	6	C13H7O4-
227.0713	37	C14H11O3-
228.0425	2	C13H8O4-
229.0505	30	C13H9O4-
230.0583	1	C13H10O4-
231.0659	3	C13H11O4-
233.0454	20	C12H9O5-
235.0761	1	C16H11O2-
237.0556	3	C15H9O3-
237.0918	3	C16H13O2-
239.0715	10	C15H11O3-
241.087	6	C15H13O3-
243.0661	11	C14H11O4-
245.0455	74	C13H9O5-
245.0814	6	C14H13O4-
247.0612	10	C13H11O5-
247.0762	2	C17H11O2-
249.0558	2	C16H9O3-
250.063	1	C16H10O3-
251.0715	3	C16H11O3-
252.0426	1	C15H8O4-
253.0505	31	C15H9O4-
253.0869	10	C16H13O3-
254.0583	3	C15H10O4-
254.1184	2	C16H16NO2-
255.03	2	C14H7O5-
255.0662	19	C15H11O4-
256.0383	4	C14H8O5-
256.1345	3	C16H18NO2-
257.0824	2	C15H13O4-
263.056	2	C13H11O6-
263.0714	8	C17H11O3-
265.0513	1	C16H9O4-
265.087	21	C17H13O3-
266.0584	8	C16H10O4-
266.095	2	C17H14O3-
267.0663	48	C16H11O4-
268.1345	4	C17H18NO2-
269.0811	3	C16H13O4-
270.053	3	C15H10O5-
271.0612	58	C15H11O5-
271.0976	17	C16H15O4-
272.0691	2	C15H12O5-
273.0407	14	C14H9O6-
273.0769	6	C15H13O5-
274.048	6	C14H10O6-
277.0493	1	C17H9O4-
279.0661	5	C17H11O4-
280.098	3	C17H14NO3-
281.0817	14	C17H13O4-
282.1139	3	C17H16NO3-
283.0615	7	C16H11O5-
284.1291	2	C17H18NO3-
285.0766	14	C16H13O5-
289.0717	115	C15H13O6-
291.0663	28	C18H11O4-
292.0745	6	C18H12O4-
292.1346	4	C19H18NO2-
293.0453	3	C17H9O5-
293.0818	1	C18H13O4-
294.0537	7	C17H10O5-
294.1138	4	C18H16NO3-
295.0613	8	C17H11O5-
295.0947	3	C13H15N2O6-
296.0928	6	C17H14NO4-
297.0767	39	C17H13O5-
298.1084	9	C17H16NO4-
300.1236	8	C17H18NO4-
301.0719	7	C16H13O6-
306.077	2	C18H12NO4-
307.0613	15	C18H11O5-
308.0927	3	C18H14NO4-
308.129	5	C19H18NO3-
309.0769	50	C18H13O5-
310.0852	13	C18H14O5-
310.145	18	C19H20NO3-
311.056	31	C17H11O6-
312.1242	33	C18H18NO4-
314.1035	21	C17H16NO5-
316.1189	5	C17H18NO5-
317.0455	5	C19H9O5-
318.077	3	C19H12NO4-
318.1134	2	C20H16NO3-
321.1001	2	C19H15NO4-
323.0558	1	C18H11O6-
324.0877	1	C18H14NO5-
325.0715	10	C18H13O6-
326.1032	2	C18H16NO5-
326.1393	4	C19H20NO4-
327.0876	17	C18H15O6-
328.0951	9	C18H16O6-
330.135	4	C18H20NO5-
334.072	7	C19H12NO5-
335.0562	33	C19H11O6-
335.0798	7	C19H13NO5-
336.0653	4	C19H12O6-
336.0889	2	C19H14NO5-
336.1242	30	C20H18NO4-
338.103	2	C19H16NO5-
342.0982	3	C18H16NO6-
342.1354	2	C19H20NO5-
350.0664	4	C19H12NO6-
351.0514	3	C19H11O7-
352.0832	16	C19H14NO6-
352.1188	19	C20H18NO5-
353.0668	20	C19H13O7-
353.0905	95	C19H15NO6-
354.0747	29	C19H14O7-
354.1347	48	C20H20NO5-
356.1139	18	C19H18NO6-
361.0353	5	C20H9O7-
362.1037	4	C21H16NO5-
368.0772	11	C19H14NO7-
370.0935	11	C19H16NO7-
370.1293	16	C20H20NO6-
371.1009	19	C19H17NO7-
372.1451	24	C20H22NO6-
374.1246	999	C19H20NO7-
378.0621	7	C20H12NO7-
379.0457	6	C20H11O8-
379.1296	7	C21H19N2O5-
380.1138	14	C21H18NO6-
386.0877	1	C19H16NO8-
387.1556	1	C20H23N2O6-
396.0727	9	C20H14NO8-
397.0558	3	C20H13O9-
397.1405	13	C21H21N2O6-
398.1243	59	C21H20NO7-
413.1369	2	C21H21N2O7-
415.1511	16	C21H23N2O7-
416.135	74	C21H22NO8-
424.1035	15	C22H18NO8-
441.1304	4	C22H21N2O8-
442.1141	53	C22H20NO9-
459.1409	25	C22H23N2O9-
460.1249	7	C22H22NO10-
