Mass spectrum: Mebendazole; LC-ESI-QFT; MS2; CE: 90; R=35000; [M+H]+
Name: Mebendazole
Name: methyl N-(6-benzoyl-1H-benzimidazol-2-yl)carbamate
Formula: C16H13N3O3
Exact mass: 295.09569
SMILES: COC(=O)NC1=NC2=C(N1)C=C(C=C2)C(=O)C3=CC=CC=C3
InChI: InChI=1S/C16H13N3O3/c1-22-16(21)19-15-17-12-8-7-11(9-13(12)18-15)14(20)10-5-3-2-4-6-10/h2-9H,1H3,(H2,17,18,19,21)
Instrument: Q Exactive Plus Orbitrap Thermo Scientific
Instrument type: LC-ESI-QFT
Ms type: MS2
Ion mode: POSITIVE
Ionization: ESI
Fragmentation mode: HCD
Collision energy: 90 (nominal)
Resolution: 35000
Column name: XBridge C18 3.5um, 2.1x50mm, Waters
Retention time: 7.6 min
Base peak: 296.1024
Precursor m/z: 296.103
Precursor type: [M+H]+
m/z	relative intensity	assigned
50.0151	22	C4H2+
51.023	15	C4H3+
53.0386	272	C4H5+
55.0179	17	C3H3O+
65.0023	1	C4HO+
68.9972	2	C3HO2+
77.0386	534	C6H5+
79.0417	2	C5H5N+
81.0336	33	C5H5O+
94.0414	13	C6H6O+
95.0492	817	C6H7O+
103.0292	5	C6H3N2+
103.0417	3	C7H5N+
104.037	24	C6H4N2+
105.0336	999	C7H5O+
105.0448	577	C6H5N2+
106.0416	3	C7H6O+
108.0207	2	C6H4O2+
109.065	3	C7H9O+
115.0293	2	C7H3N2+
115.0544	3	C9H7+
121.0397	2	C6H5N2O+
130.0402	112	C7H4N3+
131.0241	25	C7H3N2O+
131.0479	66	C7H5N3+
132.0557	19	C7H6N3+
139.0544	12	C11H7+
140.0496	7	C10H6N+
141.0701	3	C11H9+
145.0398	2	C8H5N2O+
146.0713	1	C8H8N3+
147.0792	2	C8H9N3+
148.0507	2	C7H6N3O+
150.0663	15	C7H8N3O+
154.0653	4	C11H8N+
156.0808	4	C11H10N+
158.0352	8	C8H4N3O+
159.0429	130	C8H5N3O+
160.0507	30	C8H6N3O+
160.0618	2	C7H6N5+
164.0495	2	C12H6N+
166.0653	61	C12H8N+
167.0731	15	C12H9N+
174.03	2	C8H4N3O2+
176.0455	8	C8H6N3O2+
177.0574	1	C13H7N+
181.0762	22	C12H9N2+
182.0604	1	C12H8NO+
186.03	37	C9H4N3O2+
186.0411	90	C8H4N5O+
191.0327	46	C8H5N3O3+
191.0605	9	C13H7N2+
192.0684	4	C13H8N2+
195.0681	2	C13H9NO+
207.0794	3	C13H9N3+
208.0872	16	C13H10N3+
209.071	2	C13H9N2O+
218.0713	1	C14H8N3+
219.0799	1	C14H9N3+
235.0743	2	C14H9N3O+
236.0818	4	C14H10N3O+
246.0669	5	C15H8N3O+
264.0771	53	C15H10N3O2+
