Mass spectrum: CGA62826 (2-[2,6-dimethylphenyl)-methoxyacetylamino]propionic acid; LC-ESI-QFT; MS2; CE: 45; R=35000; [M+H]+
Name: CGA62826 (2-[2,6-dimethylphenyl)-methoxyacetylamino]propionic acid
Name: N-(2,6-Dimethylphenyl)-N-(methoxyacetyl)-L-alanine
Name: (2S)-2-(N-(2-methoxyacetyl)-2,6-dimethylanilino)propanoic acid
Formula: C14H19NO4
Exact mass: 265.13141
SMILES: Cc1cccc(c1N([C@@H](C)C(=O)O)C(=O)COC)C
InChI: InChI=1S/C14H19NO4/c1-9-6-5-7-10(2)13(9)15(11(3)14(17)18)12(16)8-19-4/h5-7,11H,8H2,1-4H3,(H,17,18)/t11-/m0/s1
Instrument: Q Exactive Plus Orbitrap Thermo Scientific
Instrument type: LC-ESI-QFT
Ms type: MS2
Ion mode: POSITIVE
Ionization: ESI
Fragmentation mode: HCD
Collision energy: 45 (nominal)
Resolution: 35000
Column name: XBridge C18 3.5um, 2.1x50mm, Waters
Retention time: 7.8 min
Base peak: 266.1385
Precursor m/z: 266.1387
Precursor type: [M+H]+
m/z	relative intensity	assigned
56.0495	3	C3H6N+
91.0541	2	C7H7+
105.0698	6	C8H9+
107.0856	6	C8H11+
118.0651	3	C8H8N+
119.0856	5	C9H11+
120.0807	3	C8H10N+
121.0886	38	C8H11N+
122.0965	2	C8H12N+
130.0649	1	C9H8N+
131.0729	3	C9H9N+
132.0808	28	C9H10N+
133.0886	188	C9H11N+
134.0964	196	C9H12N+
135.1042	8	C9H13N+
144.0805	1	C10H10N+
145.0886	36	C10H11N+
146.0965	68	C10H12N+
147.1042	1	C10H13N+
148.1121	594	C10H14N+
150.0914	23	C9H12NO+
158.0966	1	C11H12N+
160.1121	999	C11H14N+
161.0835	10	C10H11NO+
161.12	1	C11H15N+
162.1277	150	C11H16N+
164.107	11	C10H14NO+
165.1148	135	C10H15NO+
176.1071	9	C11H14NO+
178.1227	217	C11H16NO+
188.1069	11	C12H14NO+
192.1383	488	C12H18NO+
194.1175	9	C11H16NO2+
206.1176	422	C12H16NO2+
220.1333	50	C13H18NO2+
266.1385	1	C14H20NO4+
