Mass spectrum: Ecgonine-methyl-ester (EME); LC-ESI-QFT; MS2; CE: 45; R=35000; [M+H]+
Name: Ecgonine-methyl-ester (EME)
Name: Ecgonine methyl ester
Name: Methyl 3-hydroxy-8-methyl-8-azabicyclo[3.2.1]octane-4-carboxylate
Formula: C10H17NO3
Exact mass: 199.12084
SMILES: CN1C2CCC1C(C(C2)O)C(=O)OC
InChI: InChI=1S/C10H17NO3/c1-11-6-3-4-7(11)9(8(12)5-6)10(13)14-2/h6-9,12H,3-5H2,1-2H3
Instrument: Q Exactive Plus Orbitrap Thermo Scientific
Instrument type: LC-ESI-QFT
Ms type: MS2
Ion mode: POSITIVE
Ionization: ESI
Fragmentation mode: HCD
Collision energy: 45 (nominal)
Resolution: 35000
Column name: XBridge C18 3.5um, 2.1x50mm, Waters
Retention time: 0.8 min
Base peak: 200.1275
Precursor m/z: 200.1281
Precursor type: [M+H]+
m/z	relative intensity	assigned
59.0126	1	C2H3O2+
65.0385	1	C5H5+
67.0541	1	C5H7+
68.0494	1	C4H6N+
70.065	1	C4H8N+
76.0392	2	C2H6NO2+
79.0541	1	C6H7+
82.065	217	C5H8N+
83.0727	7	C5H9N+
84.0807	7	C5H10N+
91.0541	9	C7H7+
93.0334	6	C6H5O+
93.0698	9	C7H9+
94.065	4	C6H8N+
96.0807	13	C6H10N+
97.0646	1	C6H9O+
100.0755	14	C5H10NO+
105.0698	1	C8H9+
107.049	1	C7H7O+
108.0806	24	C7H10N+
114.0914	1	C6H12NO+
118.041	1	C8H6O+
119.0491	21	C8H7O+
122.0963	11	C8H12N+
124.0756	3	C7H10NO+
124.112	14	C8H14N+
125.0594	2	C7H9O2+
132.0806	2	C9H10N+
133.0646	1	C9H9O+
138.0911	3	C8H12NO+
140.1068	3	C8H14NO+
150.0912	49	C9H12NO+
151.0753	6	C9H11O2+
154.0862	12	C8H12NO2+
156.1018	16	C8H14NO2+
168.1017	35	C9H14NO2+
182.1174	999	C10H16NO2+
200.1279	743	C10H18NO3+
