Mass spectrum: Flunixine; LC-ESI-QFT; MS2; CE: 45; R=35000; [M-H]-
Name: Flunixine
Name: Banamine
Name: 2-[2-methyl-3-(trifluoromethyl)anilino]pyridine-3-carboxylic acid
Formula: C14H11F3N2O2
Exact mass: 296.07726
SMILES: CC1=C(C=CC=C1NC2=C(C=CC=N2)C(=O)O)C(F)(F)F
InChI: InChI=1S/C14H11F3N2O2/c1-8-10(14(15,16)17)5-2-6-11(8)19-12-9(13(20)21)4-3-7-18-12/h2-7H,1H3,(H,18,19)(H,20,21)
Instrument: Q Exactive Plus Orbitrap Thermo Scientific
Instrument type: LC-ESI-QFT
Ms type: MS2
Ion mode: NEGATIVE
Ionization: ESI
Fragmentation mode: HCD
Collision energy: 45 (nominal)
Resolution: 35000
Column name: XBridge C18 3.5um, 2.1x50mm, Waters
Retention time: 11.0 min
Base peak: 295.0694
Precursor m/z: 295.07
Precursor type: [M-H]-
m/z	relative intensity	assigned
62.9888	1	CFO2-
68.9957	6	CF3-
164.0504	1	C12H6N-
182.0486	1	C11H6N2O-
184.0567	4	C12H7FN-
190.0534	2	C13H6N2-
191.0615	117	C13H7N2-
200.0392	2	C11H5FN2O-
204.0629	3	C12H8F2N-
208.0277	1	C12H4N2O2-
209.0521	183	C13H6FN2-
210.0598	5	C13H7FN2-
211.0677	240	C13H8FN2-
216.0503	11	C12H6F2N2-
222.0435	1	C13H6N2O2-
224.0693	140	C12H9F3N-
225.0466	2	C13H6FN2O-
228.034	3	C12H5FN2O2-
229.0582	2	C13H7F2N2-
230.066	37	C13H8F2N2-
231.0739	306	C13H9F2N2-
234.0536	62	C13H7F3N-
235.0488	13	C12H6F3N2-
242.0493	2	C13H7FN2O2-
249.0644	36	C13H8F3N2-
251.0801	999	C13H10F3N2-
255.0572	1	C14H8FN2O2-
278.0428	1	C14H7F3NO2-
295.0696	5	C14H10F3N2O2-
