Mass spectrum: Antipyrine; LC-ESI-ITFT; MS2; CE: 15%; R=15000; [M+H]+
Name: Antipyrine
Name: Phenazone
Name: 1,5-dimethyl-2-phenyl-3-pyrazolone
Formula: C11H12N2O
Exact mass: 188.0950
SMILES: CN1N(C(=O)C=C1C)C2=CC=CC=C2
InChI: InChI=1S/C11H12N2O/c1-9-8-11(14)13(12(9)2)10-6-4-3-5-7-10/h3-8H,1-2H3
Instrument: LTQ Orbitrap XL Thermo Scientific
Instrument type: LC-ESI-ITFT
Ms type: MS2
Ion mode: POSITIVE
Ionization: ESI
Fragmentation mode: HCD
Collision energy: 15 % (nominal)
Resolution: 15000
Column name: XBridge C18 3.5um, 2.1x50mm, Waters
Retention time: 4.6 min
Base peak: 189.1027
Precursor m/z: 189.1022
Precursor type: [M+H]+
m/z	relative intensity	assigned
189.1023	999	C11H13N2O+
