Mass spectrum: Fenthion Oxon; LC-ESI-QFT; MS2; CE: 120%; R=17500; [M+H]+
Name: Fenthion Oxon
Name: dimethyl (3-methyl-4-methylsulfanylphenyl) phosphate
Formula: C10H15O4PS
Exact mass: 262.0429
SMILES: CC1=C(C=CC(=C1)OP(=O)(OC)OC)SC
InChI: InChI=1S/C10H15O4PS/c1-8-7-9(5-6-10(8)16-4)14-15(11,12-2)13-3/h5-7H,1-4H3
Instrument: Exploris 240 Orbitrap Thermo Scientific
Instrument type: LC-ESI-QFT
Ms type: MS2
Ion mode: POSITIVE
Ionization: ESI
Fragmentation mode: HCD
Collision energy: 120 % (nominal)
Resolution: 17500
Column name: XBridge C18 3.5um, 2.1x50mm, Waters
Retention time: 7.813 min
Base peak: 263.0501
Precursor m/z: 263.0501
Precursor type: [M+H]+
m/z	relative intensity	assigned
51.0229	142	C4H3+
53.0386	358	C4H5+
58.995	355	C2H3S+
63.0227	37	C5H3+
65.0385	525	C5H5+
66.0463	157	C5H6+
68.9796	41	C3HS+
70.9953	46	C3H3S+
77.0386	787	C6H5+
78.0464	969	C6H6+
78.9942	84	CH4O2P+
79.0541	73	C6H7+
89.0386	65	C7H5+
91.0542	962	C7H7+
93.0698	52	C7H9+
95.0489	168	C6H7O+
96.0028	45	C5H4S+
97.0107	723	C5H5S+
103.0544	296	C8H7+
104.0621	109	C8H8+
105.0702	38	C8H9+
107.0493	72	C7H7O+
109.0109	121	C6H5S+
110.0183	208	C6H6S+
111.0265	72	C6H7S+
121.0106	999	C7H5S+
122.0186	250	C7H6S+
127.0155	55	C2H8O4P+
135.0265	74	C8H7S+
139.0217	116	C7H7OS+
153.0099	81	C7H6O2P+
168.9872	56	C7H6OPS+
185.9901	63	C7H7O2PS+
