Mass spectrum: Dialifos; LC-ESI-QFT; MS2; CE: 15%; R=17500; [M+H]+
Name: Dialifos
Name: Dialifor
Name: 2-(2-chloro-1-diethoxyphosphinothioylsulfanylethyl)isoindole-1,3-dione
Formula: C14H17ClNO4PS2
Exact mass: 393.0025
SMILES: CCOP(=S)(OCC)SC(CCl)N1C(=O)C2=CC=CC=C2C1=O
InChI: InChI=1S/C14H17ClNO4PS2/c1-3-19-21(22,20-4-2)23-12(9-15)16-13(17)10-7-5-6-8-11(10)14(16)18/h5-8,12H,3-4,9H2,1-2H3
Instrument: Exploris 240 Orbitrap Thermo Scientific
Instrument type: LC-ESI-QFT
Ms type: MS2
Ion mode: POSITIVE
Ionization: ESI
Fragmentation mode: HCD
Collision energy: 15 % (nominal)
Resolution: 17500
Column name: XBridge C18 3.5um, 2.1x50mm, Waters
Retention time: 11.982 min
Base peak: 439.042
Precursor m/z: 394.0098
Precursor type: [M+H]+
m/z	relative intensity	assigned
158.9696	49	C2H8O2PS2+
187.001	999	C4H12O2PS2+
