Mass spectrum: Norsertraline; LC-ESI-QFT; MS2; CE: 150; R=35000; [M+H]+
Name: Norsertraline
Name: 1-Naphthalenamine, 4-(3,4-dichlorophenyl)-1,2,3,4-tetrahydro-
Name: 4-(3,4-dichlorophenyl)-1,2,3,4-tetrahydronaphthalen-1-amine
Formula: C16H15Cl2N
Exact mass: 291.05815
SMILES: C1CC(C2=CC=CC=C2C1C3=CC(=C(C=C3)Cl)Cl)N
InChI: InChI=1S/C16H15Cl2N/c17-14-7-5-10(9-15(14)18)11-6-8-16(19)13-4-2-1-3-12(11)13/h1-5,7,9,11,16H,6,8,19H2
Instrument: Q Exactive Plus Orbitrap Thermo Scientific
Instrument type: LC-ESI-QFT
Ms type: MS2
Ion mode: POSITIVE
Ionization: ESI
Fragmentation mode: HCD
Collision energy: 150 (nominal)
Resolution: 35000
Column name: XBridge C18 3.5um, 2.1x50mm, Waters
Retention time: 9.6 min
Base peak: 275.0379
Precursor m/z: 292.0654
Precursor type: [M+H]+
m/z	relative intensity	assigned
50.0151	10	C4H2+
51.0229	20	C4H3+
53.0385	13	C4H5+
61.0072	8	C5H+
62.015	72	C5H2+
63.0228	211	C5H3+
65.0385	52	C5H5+
72.9838	524	C3H2Cl+
74.0149	3	C6H2+
74.9995	8	C3H4Cl+
75.0228	17	C6H3+
76.0306	3	C6H4+
77.0383	15	C6H5+
78.0463	29	C6H6+
82.9449	50	CHCl2+
86.0149	2	C7H2+
87.0228	22	C7H3+
88.0306	78	C7H4+
89.0384	999	C7H5+
91.0541	21	C7H7+
95.049	32	C6H7O+
96.9838	168	C5H2Cl+
98.9995	191	C5H4Cl+
102.0463	59	C8H6+
103.0542	12	C8H7+
105.0446	28	C6H5N2+
106.9448	21	C3HCl2+
108.9605	3	C3H3Cl2+
115.0541	35	C9H7+
122.9994	353	C7H4Cl+
124.0073	63	C7H5Cl+
125.015	3	C7H6Cl+
126.0462	38	C10H6+
127.0541	55	C10H7+
128.0619	295	C10H8+
129.0445	10	C8H5N2+
132.9605	92	C5H3Cl2+
145.0648	24	C7H12ClN+
152.0621	2	C12H8+
155.0602	53	C10H7N2+
158.9761	34	C7H5Cl2+
163.054	12	C13H7+
164.0617	2	C13H8+
176.0618	18	C14H8+
178.0778	2	C14H10+
188.062	3	C15H8+
189.0698	46	C15H9+
199.0307	3	C13H8Cl+
200.0621	3	C16H8+
201.0697	3	C16H9+
202.0774	48	C16H10+
203.0851	8	C16H11+
