Mass spectrum: Flumorph; LC-ESI-QFT; MS2; CE: 30%; R=17500; [M+H]+
Name: Flumorph
Name: Fumalin
Name: 3-(3,4-dimethoxyphenyl)-3-(4-fluorophenyl)-1-morpholin-4-ylprop-2-en-1-one
Formula: C21H22FNO4
Exact mass: 371.1533
SMILES: COC1=C(C=C(C=C1)C(=CC(=O)N2CCOCC2)C3=CC=C(C=C3)F)OC
InChI: InChI=1S/C21H22FNO4/c1-25-19-8-5-16(13-20(19)26-2)18(15-3-6-17(22)7-4-15)14-21(24)23-9-11-27-12-10-23/h3-8,13-14H,9-12H2,1-2H3
Instrument: Exploris 240 Orbitrap Thermo Scientific
Instrument type: LC-ESI-QFT
Ms type: MS2
Ion mode: POSITIVE
Ionization: ESI
Fragmentation mode: HCD
Collision energy: 30 % (nominal)
Resolution: 17500
Column name: XBridge C18 3.5um, 2.1x50mm, Waters
Retention time: 7.522 min
Base peak: 274.2527
Precursor m/z: 372.1606
Precursor type: [M+H]+
m/z	relative intensity	assigned
70.0287	4	C3H4NO+
114.0549	38	C5H8NO2+
165.0544	22	C9H9O3+
285.0922	999	C17H14FO3+
372.1606	376	C21H23FNO4+
