Mass spectrum: Oxadixyl; LC-ESI-QFT; MS2; CE: 60; R=35000; [M+H]+
Name: Oxadixyl
Name: N-(2,6-dimethylphenyl)-2-methoxy-N-(2-oxidanylidene-1,3-oxazolidin-3-yl)ethanamide
Formula: C14H18N2O4
Exact mass: 278.12666
SMILES: O=C2OCCN2N(C(=O)COC)c1c(cccc1C)C
InChI: InChI=1S/C14H18N2O4/c1-10-5-4-6-11(2)13(10)16(12(17)9-19-3)15-7-8-20-14(15)18/h4-6H,7-9H2,1-3H3
Instrument: Q Exactive Orbitrap Thermo Scientific
Instrument type: LC-ESI-QFT
Ms type: MS2
Ion mode: POSITIVE
Ionization: ESI
Fragmentation mode: HCD
Collision energy: 60 (nominal)
Resolution: 35000
Column name: XBridge C18 3.5um, 2.1x50mm, Waters
Retention time: 6.4 min
Base peak: 279.1343
Precursor m/z: 279.1339
Precursor type: [M+H]+
m/z	relative intensity	assigned
56.0496	3	C3H6N+
58.0652	27	C3H8N+
70.0288	1	C3H4NO+
77.0386	3	C6H5+
79.0543	10	C6H7+
88.0393	55	C3H6NO2+
91.0542	32	C7H7+
93.0699	21	C7H9+
95.0492	10	C6H7O+
100.0394	1	C4H6NO2+
102.055	141	C4H8NO2+
103.0542	7	C8H7+
104.0623	1	C8H8+
105.07	81	C8H9+
107.0855	9	C8H11+
113.0346	1	C4H5N2O2+
115.0543	9	C9H7+
117.0573	205	C8H7N+
118.0652	132	C8H8N+
119.0856	203	C9H11+
120.0808	107	C8H10N+
121.0648	64	C8H9O+
123.0805	14	C8H11O+
130.0653	3	C9H8N+
131.0731	10	C9H9N+
132.0809	999	C9H10N+
133.0886	790	C9H11N+
134.0964	60	C9H12N+
135.1044	1	C9H13N+
137.096	1	C9H13O+
145.0762	4	C9H9N2+
146.0839	1	C9H10N2+
146.0964	7	C10H12N+
147.0918	12	C9H11N2+
147.1043	7	C10H13N+
148.0758	4	C9H10NO+
148.1121	5	C10H14N+
149.0235	11	C8H5O3+
149.0837	1	C9H11NO+
159.0918	4	C10H11N2+
160.0759	17	C10H10NO+
160.0997	14	C10H12N2+
164.107	7	C10H14NO+
165.1152	1	C10H15NO+
175.0865	1	C10H11N2O+
175.1229	3	C11H15N2+
176.0943	6	C10H12N2O+
191.0942	28	C11H13NO2+
204.0892	1	C11H12N2O2+
219.1131	27	C12H15N2O2+
