Mass spectrum: Tiapride; LC-ESI-QFT; MS2; CE: 60; R=35000; [M+H]+
Name: Tiapride
Name: N-(2-diethylaminoethyl)-2-methoxy-5-methylsulfonyl-benzamide
Formula: C15H24N2O4S
Exact mass: 328.14568
SMILES: CCN(CC)CCNC(=O)C1=C(C=CC(=C1)S(=O)(=O)C)OC
InChI: InChI=1S/C15H24N2O4S/c1-5-17(6-2)10-9-16-15(18)13-11-12(22(4,19)20)7-8-14(13)21-3/h7-8,11H,5-6,9-10H2,1-4H3,(H,16,18)
Instrument: Q Exactive Orbitrap Thermo Scientific
Instrument type: LC-ESI-QFT
Ms type: MS2
Ion mode: POSITIVE
Ionization: ESI
Fragmentation mode: HCD
Collision energy: 60 (nominal)
Resolution: 35000
Column name: XBridge C18 3.5um, 2.1x50mm, Waters
Retention time: 2.6 min
Base peak: 329.1529
Precursor m/z: 329.153
Precursor type: [M+H]+
m/z	relative intensity	assigned
72.0807	8	C4H10N+
74.0964	33	C4H12N+
76.0305	1	C6H4+
78.0464	4	C6H6+
78.9848	1	CH3O2S+
100.112	47	C6H14N+
104.0495	3	C7H6N+
105.0572	5	C7H7N+
106.0412	1	C7H6O+
107.0491	1	C7H7O+
123.0074	2	C6H3O3+
132.0443	5	C8H6NO+
133.0522	82	C8H7NO+
134.036	22	C8H6O2+
134.06	30	C8H8NO+
148.0757	3	C9H10NO+
162.0548	8	C9H8NO2+
165.0422	1	C8H7NO3+
166.0259	9	C8H6O4+
177.0783	116	C10H11NO2+
178.0496	7	C9H8NO3+
180.0658	3	C9H10NO3+
183.022	6	C7H7N2O2S+
185.0266	19	C8H9O3S+
197.0136	1	C8H7NO3S+
209.0683	56	C10H11NO4+
212.0376	445	C9H10NO3S+
213.0214	879	C9H9O4S+
226.0167	21	C9H8NO4S+
230.0481	32	C9H12NO4S+
241.0401	63	C10H11NO4S+
256.0637	999	C11H14NO4S+
