Mass spectrum: Oxytetracycline; LC-ESI-QFT; MS2; CE: 150; R=35000; [M-H]-
Name: Oxytetracycline
Name: (4S,4aR,5S,5aR,6S,12aS)-4-(Dimethylamino)-3,5,6,10,12,12a-hexahydroxy-6-methyl-1,11-dioxo-1,4,4a,5,5a,6,11,12a-octahydro-2-tetracenecarboxamide
Name: 2-carbamoyl-4-(dimethylazaniumyl)-5,6,10,11,12a-pentahydroxy-6-methyl-3,12-dioxo-4,4a,5,5a-tetrahydrotetracen-1-olate
Formula: C22H24N2O9
Exact mass: 460.14818
SMILES: CC1(C2C(C3C(C(=O)C(=C(C3(C(=O)C2=C(C4=C1C=CC=C4O)O)O)O)C(=O)N)N(C)C)O)O
InChI: InChI=1S/C22H24N2O9/c1-21(32)7-5-4-6-8(25)9(7)15(26)10-12(21)17(28)13-14(24(2)3)16(27)11(20(23)31)19(30)22(13,33)18(10)29/h4-6,12-14,17,25-26,28,30,32-33H,1-3H3,(H2,23,31)
Instrument: Q Exactive Plus Orbitrap Thermo Scientific
Instrument type: LC-ESI-QFT
Ms type: MS2
Ion mode: NEGATIVE
Ionization: ESI
Fragmentation mode: HCD
Collision energy: 150 (nominal)
Resolution: 35000
Column name: XBridge C18 3.5um, 2.1x50mm, Waters
Retention time: 4.3 min
Base peak: 459.1405
Precursor m/z: 459.1409
Precursor type: [M-H]-
m/z	relative intensity	assigned
50.0035	93	C3N-
51.0239	38	C4H3-
53.0033	59	C3HO-
55.0189	55	C3H3O-
59.0139	9	C2H3O2-
63.024	70	C5H3-
64.0192	16	C4H2N-
65.0033	308	C4HO-
65.0397	252	C5H5-
65.9985	999	C3NO-
67.019	52	C4H3O-
68.0142	44	C3H2NO-
68.9982	341	C3HO2-
69.0346	34	C4H5O-
71.0139	8	C3H3O2-
75.024	11	C6H3-
79.0189	54	C5H3O-
81.0347	7	C5H5O-
82.006	13	C4H2O2-
83.0135	8	C4H3O2-
84.009	47	C3H2NO2-
89.0396	172	C7H5-
90.0349	9	C6H4N-
91.0189	156	C6H3O-
91.0554	9	C7H7-
92.0267	15	C6H4O-
93.0346	357	C6H5O-
95.0139	143	C5H3O2-
96.0092	55	C4H2NO2-
97.0294	13	C5H5O2-
101.0396	15	C8H5-
108.0217	247	C6H4O2-
109.0294	48	C6H5O2-
113.0396	39	C9H5-
115.0554	75	C9H7-
117.0346	316	C8H5O-
119.0501	15	C8H7O-
120.009	31	C6H2NO2-
123.0089	53	C6H3O3-
130.0423	93	C9H6O-
131.0504	12	C9H7O-
134.0247	34	C7H4NO2-
135.045	44	C8H7O2-
139.0146	9	C5H3N2O3-
139.0551	32	C11H7-
141.0343	37	C10H5O-
143.0502	360	C10H7O-
144.0582	14	C10H8O-
145.0295	137	C9H5O2-
147.0455	26	C9H7O2-
148.0037	7	C7H2NO3-
154.0424	46	C11H6O-
155.0504	13	C11H7O-
156.0585	7	C11H8O-
157.0293	10	C10H5O2-
158.0372	97	C10H6O2-
159.045	42	C10H7O2-
161.0242	16	C9H5O3-
167.0502	138	C12H7O-
168.0578	11	C12H8O-
169.0298	16	C11H5O2-
169.0661	15	C12H9O-
171.0451	219	C11H7O2-
172.0531	10	C11H8O2-
173.0243	32	C10H5O3-
173.0601	8	C11H9O2-
180.0581	31	C13H8O-
181.0656	13	C13H9O-
182.0371	44	C12H6O2-
183.045	39	C12H7O2-
187.0399	13	C11H7O3-
191.05	8	C14H7O-
195.0454	49	C13H7O2-
207.0453	9	C14H7O2-
209.0603	12	C14H9O2-
211.04	13	C13H7O3-
224.0475	7	C14H8O3-
226.0265	12	C13H6O4-
