Mass spectrum: 1H-Benzotriazole, 4(or 5)-methyl-; LC-ESI-QFT; MS2; CE: 150; R=35000; [M+H]+
Name: 1H-Benzotriazole, 4(or 5)-methyl-
Name: 4-methyl-2H-benzotriazole
Formula: C7H7N3
Exact mass: 133.06400
SMILES: n1nc2c(cccc2[nH]1)C
InChI: InChI=1S/C7H7N3/c1-5-3-2-4-6-7(5)9-10-8-6/h2-4H,1H3,(H,8,9,10)
Instrument: Q Exactive Plus Orbitrap Thermo Scientific
Instrument type: LC-ESI-QFT
Ms type: MS2
Ion mode: POSITIVE
Ionization: ESI
Fragmentation mode: HCD
Collision energy: 150 (nominal)
Resolution: 35000
Column name: XBridge C18 3.5um, 2.1x50mm, Waters
Retention time: 5.8 min
Base peak: 134.0712
Precursor m/z: 134.0713
Precursor type: [M+H]+
m/z	relative intensity	assigned
50.0151	294	C4H2+
51.023	629	C4H3+
52.0182	9	C3H2N+
52.0308	2	C4H4+
53.0022	21	C3HO+
53.0386	382	C4H5+
53.9975	2	C2NO+
54.0339	27	C3H4N+
54.0465	2	C4H6+
55.0179	12	C3H3O+
56.0495	2	C3H6N+
62.0151	8	C5H2+
63.0229	88	C5H3+
64.0182	9	C4H2N+
64.0308	29	C5H4+
65.0022	15	C4HO+
65.0261	8	C4H3N+
65.0386	91	C5H5+
66.0338	23	C4H4N+
66.0464	57	C5H6+
67.0417	88	C4H5N+
75.0229	4	C6H3+
77.0385	909	C6H5+
78.0338	33	C5H4N+
78.0464	45	C6H6+
79.0542	163	C6H7+
80.0494	45	C5H6N+
81.0335	35	C5H5O+
89.0386	19	C7H5+
90.0338	7	C6H4N+
91.0417	46	C6H5N+
92.037	2	C5H4N2+
94.0413	17	C6H6O+
95.0492	999	C6H7O+
96.0444	13	C5H6NO+
104.0495	35	C7H6N+
105.0448	532	C6H5N2+
106.0417	2	C7H6O+
106.0651	10	C7H8N+
134.0712	7	C7H8N3+
