Mass spectrum: Diltiazem; LC-ESI-QFT; MS2; CE: 45; R=35000; [M+H]+
Name: Diltiazem
Name: 1,5-Benzothiazepin-4(5H)-one, 3-(acetyloxy)-5-[2-(dimethylamino)ethyl]-2,3-dihydro-2-(4-methoxyphenyl)-, (2S-cis)-
Name: [5-(2-dimethylaminoethyl)-2-(4-methoxyphenyl)-4-oxidanylidene-2,3-dihydro-1,5-benzothiazepin-3-yl] ethanoate
Formula: C22H26N2O4S
Exact mass: 414.16133
SMILES: CC(=O)OC1C(SC2=CC=CC=C2N(C1=O)CCN(C)C)C3=CC=C(C=C3)OC
InChI: InChI=1S/C22H26N2O4S/c1-15(25)28-20-21(16-9-11-17(27-4)12-10-16)29-19-8-6-5-7-18(19)24(22(20)26)14-13-23(2)3/h5-12,20-21H,13-14H2,1-4H3
Instrument: Q Exactive Orbitrap Thermo Scientific
Instrument type: LC-ESI-QFT
Ms type: MS2
Ion mode: POSITIVE
Ionization: ESI
Fragmentation mode: HCD
Collision energy: 45 (nominal)
Resolution: 35000
Column name: XBridge C18 3.5um, 2.1x50mm, Waters
Retention time: 7.3 min
Base peak: 415.1692
Precursor m/z: 415.1686
Precursor type: [M+H]+
m/z	relative intensity	assigned
58.0652	7	C3H8N+
72.0808	54	C4H10N+
109.0108	22	C6H5S+
109.0649	1	C7H9O+
118.0651	2	C8H8N+
121.0649	21	C8H9O+
137.0599	45	C8H9O2+
149.0601	1	C9H9O2+
150.0374	212	C8H8NS+
162.0373	2	C9H8NS+
174.0375	5	C10H8NS+
177.0549	2	C10H9O3+
178.0322	999	C9H8NOS+
191.0402	28	C10H9NOS+
192.0478	4	C10H10NOS+
223.0905	1	C11H15N2OS+
234.0582	1	C12H12NO2S+
295.0668	1	C17H13NO2S+
310.0898	30	C18H16NO2S+
312.1059	1	C18H18NO2S+
328.1007	6	C18H18NO3S+
