Mass spectrum: Pantoprazole; LC-ESI-ITFT; MS2; CE: 60%; R=15000; [M-H]-
Name: Pantoprazole
Name: 6-(difluoromethoxy)-2-[(3,4-dimethoxy-2-pyridinyl)methylsulfinyl]-1H-benzimidazole
Formula: C16H15F2N3O4S
Exact mass: 383.0751
SMILES: COC1=C(C(=NC=C1)CS(=O)C2=NC3=C(N2)C=C(C=C3)OC(F)F)OC
InChI: InChI=1S/C16H15F2N3O4S/c1-23-13-5-6-19-12(14(13)24-2)8-26(22)16-20-10-4-3-9(25-15(17)18)7-11(10)21-16/h3-7,15H,8H2,1-2H3,(H,20,21)
Instrument: LTQ Orbitrap XL Thermo Scientific
Instrument type: LC-ESI-ITFT
Ms type: MS2
Ion mode: NEGATIVE
Ionization: ESI
Fragmentation mode: HCD
Collision energy: 60 % (nominal)
Resolution: 15000
Column name: XBridge C18 3.5um, 2.1x50mm, Waters
Retention time: 6.6 min
Base peak: 382.0666
Precursor m/z: 382.0679
Precursor type: [M-H]-
m/z	relative intensity	assigned
115.0301	58	C7H3N2-
161.0156	999	C8H2FN2O-
161.9893	136	C7H2N2OS-
162.0232	150	C5H8NO3S-
178.0185	79	C8H3FN2O2-
178.9914	82	C7H3N2O2S-
209.9896	190	C8H3FN2O2S-
229.9965	711	C8H4F2N2O2S-
