Mass spectrum: Ketoconazole; LC-ESI-QFT; MS2; CE: 180; R=35000; [M+H]+
Name: Ketoconazole
Name: 1-[4-[4-[[(2R,4S)-2-(2,4-dichlorophenyl)-2-(imidazol-1-ylmethyl)-1,3-dioxolan-4-yl]methoxy]phenyl]piperazin-1-yl]ethanone
Formula: C26H28Cl2N4O4
Exact mass: 530.14876
SMILES: CC(=O)N1CCN(CC1)C2=CC=C(C=C2)OC[C@H]3CO[C@](O3)(CN4C=CN=C4)C5=C(C=C(C=C5)Cl)Cl
InChI: InChI=1S/C26H28Cl2N4O4/c1-19(33)31-10-12-32(13-11-31)21-3-5-22(6-4-21)34-15-23-16-35-26(36-23,17-30-9-8-29-18-30)24-7-2-20(27)14-25(24)28/h2-9,14,18,23H,10-13,15-17H2,1H3/t23-,26-/m0/s1
Instrument: Q Exactive Plus Orbitrap Thermo Scientific
Instrument type: LC-ESI-QFT
Ms type: MS2
Ion mode: POSITIVE
Ionization: ESI
Fragmentation mode: HCD
Collision energy: 180 (nominal)
Resolution: 35000
Column name: XBridge C18 3.5um, 2.1x50mm, Waters
Retention time: 7.9 min
Base peak: 531.1558
Precursor m/z: 531.156
Precursor type: [M+H]+
m/z	relative intensity	assigned
50.0151	53	C4H2+
51.023	62	C4H3+
52.0182	15	C3H2N+
53.0022	17	C3HO+
53.0386	56	C4H5+
54.0339	366	C3H4N+
55.0179	9	C3H3O+
55.0291	1	C2H3N2+
55.0416	15	C3H5N+
56.0495	34	C3H6N+
57.0572	1	C3H7N+
61.0073	7	C5H+
62.0151	38	C5H2+
63.0229	132	C5H3+
64.0307	13	C5H4+
65.0386	276	C5H5+
66.0464	29	C5H6+
67.029	6	C3H3N2+
67.0417	6	C4H5N+
67.0542	4	C5H7+
68.0369	10	C3H4N2+
68.0495	1	C4H6N+
69.0447	85	C3H5N2+
70.0651	5	C4H8N+
71.0603	5	C3H7N2+
72.9839	149	C3H2Cl+
74.0151	196	C6H2+
75.0229	91	C6H3+
76.0307	12	C6H4+
77.0022	15	C5HO+
77.0385	73	C6H5+
78.0338	7	C5H4N+
78.0464	28	C6H6+
79.0542	18	C6H7+
80.0494	25	C5H6N+
81.0447	999	C4H5N2+
82.0525	54	C4H6N2+
82.9449	10	CHCl2+
83.0604	5	C4H7N2+
83.9761	6	C4HCl+
84.984	9	C4H2Cl+
86.9632	9	C3ClO+
87.023	13	C7H3+
88.0308	31	C7H4+
89.0386	294	C7H5+
90.0464	24	C7H6+
91.0417	7	C6H5N+
91.0542	80	C7H7+
92.0257	1	C6H4O+
92.0495	9	C6H6N+
93.0572	5	C6H7N+
94.0413	38	C6H6O+
95.0492	168	C6H7O+
96.0444	11	C5H6NO+
96.984	48	C5H2Cl+
98.0151	112	C8H2+
98.9996	34	C5H4Cl+
99.0229	134	C8H3+
100.0307	8	C8H4+
101.0386	6	C8H5+
102.0464	30	C8H6+
103.0542	50	C8H7+
104.0494	18	C7H6N+
104.0619	1	C8H8+
105.0447	98	C6H5N2+
106.0651	6	C7H8N+
107.0491	7	C7H7O+
107.0603	1	C6H7N2+
107.9761	7	C6HCl+
108.984	87	C6H2Cl+
109.0396	4	C5H5N2O+
109.9918	5	C6H3Cl+
111.044	14	C6H7O2+
113.0385	13	C9H5+
114.0464	6	C9H6+
115.0542	132	C9H7+
116.0495	4	C8H6N+
116.0619	4	C9H8+
117.0573	26	C8H7N+
118.065	15	C8H8N+
119.0492	2	C8H7O+
120.0444	28	C7H6NO+
121.0396	17	C6H5N2O+
121.0521	1	C7H7NO+
122.9996	108	C7H4Cl+
124.0074	7	C7H5Cl+
126.0464	4	C10H6+
127.05	4	C5H7N2O2+
127.0541	3	C10H7+
128.0495	4	C9H6N+
128.062	13	C10H8+
129.0097	1	C6H6ClO+
129.0448	14	C8H5N2+
129.0574	1	C9H7N+
130.0652	22	C9H8N+
131.0492	15	C9H7O+
131.0602	1	C8H7N2+
132.0571	4	C9H8O+
132.9606	10	C5H3Cl2+
133.0523	1	C8H7NO+
134.06	1	C8H8NO+
134.9997	2	C8H4Cl+
136.0075	24	C8H5Cl+
140.0492	1	C10H6N+
141.0569	1	C10H7N+
142.0651	4	C10H8N+
143.073	1	C10H9N+
144.0805	1	C10H10N+
144.9607	1	C6H3Cl2+
145.0645	1	C10H9O+
146.0596	1	C9H8NO+
149.0151	5	C9H6Cl+
154.0649	1	C11H8N+
155.0604	4	C10H7N2+
158.06	2	C10H8NO+
158.9762	4	C7H5Cl2+
163.0056	5	C8H4ClN2+
169.9685	2	C8H4Cl2+
172.9667	4	C6H3Cl2N2+
