Mass spectrum: Ethiofencarb Sulfoxide; LC-ESI-QFT; MS2; CE: 60%; R=17500; [M+H]+
Name: Ethiofencarb Sulfoxide
Name: 2-(Ethylsulfinylmethyl)phenyl methylcarbamate
Name: [2-(ethylsulfinylmethyl)phenyl] N-methylcarbamate
Formula: C11H15NO3S
Exact mass: 241.0773
SMILES: CCS(=O)CC1=CC=CC=C1OC(=O)NC
InChI: InChI=1S/C11H15NO3S/c1-3-16(14)8-9-6-4-5-7-10(9)15-11(13)12-2/h4-7H,3,8H2,1-2H3,(H,12,13)
Instrument: Exploris 240 Orbitrap Thermo Scientific
Instrument type: LC-ESI-QFT
Ms type: MS2
Ion mode: POSITIVE
Ionization: ESI
Fragmentation mode: HCD
Collision energy: 60 % (nominal)
Resolution: 17500
Column name: XBridge C18 3.5um, 2.1x50mm, Waters
Retention time: 3.584 min
Base peak: 242.0845
Precursor m/z: 242.0845
Precursor type: [M+H]+
m/z	relative intensity	assigned
77.0387	6	C6H5+
79.0543	26	C6H7+
107.0491	999	C7H7O+
