Mass spectrum: Nafcillin; LC-ESI-QFT; MS2; CE: 75; R=35000; [M-H]-
Name: Nafcillin
Name: (2S,5R,6R)-6-[(2-ethoxynaphthalene-1-carbonyl)amino]-3,3-dimethyl-7-oxo-4-thia-1-azabicyclo[3.2.0]heptane-2-carboxylic acid
Formula: C21H22N2O5S
Exact mass: 414.12494
SMILES: CCOC1=C(C(=O)N[C@H]2[C@H]3SC(C)(C)[C@@H](N3C2=O)C(O)=O)C2=CC=CC=C2C=C1
InChI: InChI=1S/C21H22N2O5S/c1-4-28-13-10-9-11-7-5-6-8-12(11)14(13)17(24)22-15-18(25)23-16(20(26)27)21(2,3)29-19(15)23/h5-10,15-16,19H,4H2,1-3H3,(H,22,24)(H,26,27)/t15-,16+,19-/m1/s1
Instrument: Q Exactive Plus Orbitrap Thermo Scientific
Instrument type: LC-ESI-QFT
Ms type: MS2
Ion mode: NEGATIVE
Ionization: ESI
Fragmentation mode: HCD
Collision energy: 75 (nominal)
Resolution: 35000
Column name: XBridge C18 3.5um, 2.1x50mm, Waters
Retention time: 9.7 min
Base peak: 413.1172
Precursor m/z: 413.1177
Precursor type: [M-H]-
m/z	relative intensity	assigned
56.9804	3	C2HS-
57.9757	24	CNS-
60.9753	3	CHOS-
61.0117	1	C2H5S-
65.9986	2	C3NO-
70.9836	11	C2HNS-
71.9914	14	C2H2NS-
72.9992	999	C2H3NS-
74.0071	36	C2H4NS-
99.9862	43	C3H2NOS-
115.0553	4	C9H7-
143.0502	167	C2H11N2O3S-
152.0507	3	C11H6N-
166.0662	10	C12H8N-
168.0455	34	C11H6NO-
181.0532	2	C12H7NO-
182.0611	21	C12H8NO-
183.0274	1	C12H7S-
186.056	21	C11H8NO2-
192.0454	6	C13H6NO-
194.061	26	C13H8NO-
197.0305	2	C12H7NS-
198.0385	4	C12H8NS-
199.0222	4	C12H7OS-
210.0559	4	C13H8NO2-
224.0177	1	C13H6NOS-
225.0254	14	C13H7NOS-
226.0332	21	C13H8NOS-
