Mass spectrum: Di-n-butyl phthalate; LC-ESI-QFT; MS2; CE: 30; R=35000; [M-H]-
Name: Di-n-butyl phthalate
Name: Dibutyl phthalate
Name: dibutyl benzene-1,2-dicarboxylate
Formula: C16H22O4
Exact mass: 278.15181
SMILES: CCCCOC(=O)C1=CC=CC=C1C(=O)OCCCC
InChI: InChI=1S/C16H22O4/c1-3-5-11-19-15(17)13-9-7-8-10-14(13)16(18)20-12-6-4-2/h7-10H,3-6,11-12H2,1-2H3
Instrument: Q Exactive Plus Orbitrap Thermo Scientific
Instrument type: LC-ESI-QFT
Ms type: MS2
Ion mode: NEGATIVE
Ionization: ESI
Fragmentation mode: HCD
Collision energy: 30 (nominal)
Resolution: 35000
Column name: XBridge C18 3.5um, 2.1x50mm, Waters
Retention time: 13.8 min
Base peak: 277.1444
Precursor m/z: 277.1445
Precursor type: [M-H]-
m/z	relative intensity	assigned
75.024	1	C6H3-
77.0397	9	C6H5-
93.0347	3	C6H5O-
105.0346	4	C7H5O-
107.0504	65	C7H7O-
119.0141	1	C7H3O2-
121.0297	265	C7H5O2-
125.0974	9	C8H13O-
127.113	445	C8H15O-
129.1287	39	C8H17O-
134.0375	999	C8H6O2-
135.0453	39	C8H7O2-
147.009	136	C8H3O3-
149.0246	3	C8H5O3-
155.1079	2	C9H15O2-
165.0192	5	C8H5O4-
173.1187	4	C9H17O3-
179.0351	4	C9H7O4-
190.9989	6	C9H3O5-
203.1444	4	C14H19O-
205.16	34	C14H21O-
231.1394	7	C15H19O2-
233.155	40	C15H21O2-
277.1448	123	C16H21O4-
