Mass spectrum: Ethofumesate-2-keto; LC-ESI-ITFT; MS2; CE: 15%; R=7500; [M+H]+
Name: Ethofumesate-2-keto
Name: 3,3-Dimethyl-2-oxo-2,3-dihydrobenzofurane-5-yl methane sulfonate
Formula: C11H12O5S
Exact mass: 256.0405
SMILES: CS(=O)(=O)Oc1cc2c(cc1)OC(=O)C2(C)C
InChI: InChI=1S/C11H12O5S/c1-11(2)8-6-7(16-17(3,13)14)4-5-9(8)15-10(11)12/h4-6H,1-3H3
Instrument: LTQ Orbitrap XL Thermo Scientific
Instrument type: LC-ESI-ITFT
Ms type: MS2
Ion mode: POSITIVE
Ionization: ESI
Fragmentation mode: HCD
Collision energy: 15 % (nominal)
Resolution: 7500
Column name: XBridge C18 3.5um, 2.1x50mm, Waters
Retention time: 6.0 min
Base peak: 297.0411
Precursor m/z: 257.0478
Precursor type: [M+H]+
m/z	relative intensity	assigned
177.055	30	C10H9O3+
178.0617	5	C10H10O3+
229.0518	5	C10H13O4S+
257.0482	999	C11H13O5S+
