Mass spectrum: Imidacloprid; LC-ESI-ITFT; MS2; CE: 60%; R=15000; [M+H]+
Name: Imidacloprid
Name: N-[1-[(6-chloranylpyridin-3-yl)methyl]-4,5-dihydroimidazol-2-yl]nitramide
Formula: C9H10ClN5O2
Exact mass: 255.0523
SMILES: Cl-c(ncc1CN(CC2)C(N2)=NN(=O)=O)cc1
InChI: InChI=1S/C9H10ClN5O2/c10-8-2-1-7(5-12-8)6-14-4-3-11-9(14)13-15(16)17/h1-2,5H,3-4,6H2,(H,11,13)
Instrument: LTQ Orbitrap XL Thermo Scientific
Instrument type: LC-ESI-ITFT
Ms type: MS2
Ion mode: POSITIVE
Ionization: ESI
Fragmentation mode: HCD
Collision energy: 60 % (nominal)
Resolution: 15000
Column name: XBridge C18 3.5um, 2.1x50mm, Waters
Retention time: 4.8 min
Base peak: 256.0596
Precursor m/z: 256.0596
Precursor type: [M+H]+
m/z	relative intensity	assigned
56.0495	7	C3H6N+
71.0603	4	C3H7N2+
72.0683	1	C3H8N2+
84.0556	102	C3H6N3+
90.0338	1	C6H4N+
92.0494	1	C6H6N+
93.0575	1	C6H7N+
97.0634	6	C4H7N3+
98.0712	10	C4H8N3+
99.0553	17	C4H7N2O+
99.0664	1	C3H7N4+
105.0445	1	C6H5N2+
106.065	2	C7H8N+
107.0603	3	C6H7N2+
110.0596	1	C6H8NO+
113.0028	1	C5H4ClN+
114.0105	5	C5H5ClN+
119.0478	1	C6H5N3+
119.0601	3	C7H7N2+
120.0556	1	C6H6N3+
122.071	1	C6H8N3+
126.0105	76	C6H5ClN+
127.0183	6	C6H6ClN+
128.0261	97	C6H7ClN+
131.0603	2	C8H7N2+
132.0557	2	C7H6N3+
132.0683	1	C8H8N2+
133.0633	6	C7H7N3+
133.076	16	C8H9N2+
134.0712	5	C7H8N3+
139.0058	3	C6H4ClN2+
140.0135	1	C6H5ClN2+
140.0263	1	C7H7ClN+
141.0213	20	C6H6ClN2+
144.0211	2	C6H7ClNO+
144.9925	3	C5H4ClNO2+
146.0587	13	C7H6N4+
146.0712	48	C8H8N3+
147.0665	36	C7H7N4+
147.0788	2	C8H9N3+
148.0869	14	C8H10N3+
151.0183	10	C8H6ClN+
152.0137	2	C7H5ClN2+
153.0213	4	C7H6ClN2+
154.0167	1	C6H5ClN3+
155.0368	1	C7H8ClN2+
158.0711	16	C9H8N3+
159.0666	3	C8H7N4+
159.079	13	C9H9N3+
160.087	2	C9H10N3+
166.0165	1	C7H5ClN3+
166.029	1	C8H7ClN2+
167.0005	1	C7H4ClN2O+
167.0245	5	C7H6ClN3+
167.037	21	C8H8ClN2+
168.032	2	C7H7ClN3+
168.0443	1	C8H9ClN2+
169.052	1	C8H10ClN2+
173.0821	49	C9H9N4+
174.09	123	C9H10N4+
175.0977	999	C9H11N4+
176.0821	2	C9H10N3O+
180.0324	5	C8H7ClN3+
181.0275	23	C7H6ClN4+
181.0397	2	C8H8ClN3+
191.0932	2	C9H11N4O+
192.0322	1	C9H7ClN3+
193.0399	7	C9H8ClN3+
194.0479	13	C9H9ClN3+
195.0321	1	C9H8ClN2O+
195.0433	3	C8H8ClN4+
209.0588	765	C9H10ClN4+
210.0665	9	C9H11ClN4+
212.0583	9	C9H11ClN3O+
