Mass spectrum: Darunavir; LC-ESI-QFT; MS2; CE: 15; R=35000; [M+H]+
Name: Darunavir
Name: N-[(1S,2R)-1-benzyl-2-hydroxy-3-[isobutyl(sulfanilyl)amino]propyl]carbamic acid [(3aS,4R,6aR)-2,3,3a,4,5,6a-hexahydrofuro[2,3-b]furan-4-yl] ester
Formula: C27H37N3O7S
Exact mass: 547.23522
SMILES: CC(C)CN(CC(C(CC1=CC=CC=C1)NC(=O)OC2COC3C2CCO3)O)S(=O)(=O)C4=CC=C(C=C4)N
InChI: InChI=1S/C27H37N3O7S/c1-18(2)15-30(38(33,34)21-10-8-20(28)9-11-21)16-24(31)23(14-19-6-4-3-5-7-19)29-27(32)37-25-17-36-26-22(25)12-13-35-26/h3-11,18,22-26,31H,12-17,28H2,1-2H3,(H,29,32)/t22-,23-,24+,25-,26+/m0/s1
Instrument: Q Exactive Orbitrap Thermo Scientific
Instrument type: LC-ESI-QFT
Ms type: MS2
Ion mode: POSITIVE
Ionization: ESI
Fragmentation mode: HCD
Collision energy: 15 (nominal)
Resolution: 35000
Column name: XBridge C18 3.5um, 2.1x50mm, Waters
Retention time: 8.7 min
Base peak: 548.2426
Precursor m/z: 548.2425
Precursor type: [M+H]+
m/z	relative intensity	assigned
67.0542	11	C5H7+
69.0335	287	C4H5O+
95.0491	2	C6H7O+
113.0597	373	C6H9O2+
120.0809	2	C8H10N+
156.0106	17	C6H6NO2S+
164.1071	3	C10H14NO+
241.1005	26	C11H17N2O2S+
245.1649	18	C15H21N2O+
357.1633	1	C20H25N2O2S+
375.1742	2	C20H27N2O3S+
392.2003	999	C20H30N3O3S+
418.1797	19	
436.1901	26	
