Mass spectrum: Sulfapyridine; LC-ESI-ITFT; MS2; CE: 60%; R=15000; [M+H]+
Name: Sulfapyridine
Name: 2-Sulfapyridine
Name: 4-amino-N-(2-pyridinyl)benzenesulfonamide
Formula: C11H11N3O2S
Exact mass: 249.0572
SMILES: c1(S(Nc2ccccn2)(=O)=O)ccc(N)cc1
InChI: InChI=1S/C11H11N3O2S/c12-9-4-6-10(7-5-9)17(15,16)14-11-3-1-2-8-13-11/h1-8H,12H2,(H,13,14)
Instrument: LTQ Orbitrap XL Thermo Scientific
Instrument type: LC-ESI-ITFT
Ms type: MS2
Ion mode: POSITIVE
Ionization: ESI
Fragmentation mode: HCD
Collision energy: 60 % (nominal)
Resolution: 15000
Column name: XBridge C18 3.5um, 2.1x50mm, Waters
Retention time: 2.9 min
Base peak: 250.0651
Precursor m/z: 250.0645
Precursor type: [M+H]+
m/z	relative intensity	assigned
65.0386	130	C5H5+
66.0336	4	C4H4N+
67.0416	10	C4H5N+
68.0494	87	C4H6N+
69.0334	8	C4H5O+
78.0338	13	C5H4N+
79.0179	12	C5H3O+
80.0495	9	C5H6N+
92.0495	617	C6H6N+
93.0447	31	C5H5N2+
93.0573	54	C6H7N+
94.0525	96	C5H6N2+
95.0604	419	C5H7N2+
96.0443	18	C5H6NO+
108.0444	999	C6H6NO+
110.06	34	C6H8NO+
120.0555	11	C6H6N3+
156.0113	299	C6H6NO2S+
157.0066	40	C5H5N2O2S+
167.0606	6	C11H7N2+
169.076	7	C11H9N2+
184.0868	436	C11H10N3+
186.1027	7	C11H12N3+
