Mass spectrum: Iobitridol; LC-ESI-ITFT; MS2; CE: 60%; R=15000; [M+H]+
Name: Iobitridol
Name: 1,3-Benzenedicarboxamide, N,N'-bis(2,3-dihydroxypropyl)-5-((5-hydroxy-2-(hydroxymethyl)-1-oxopropyl)amino)-2,4,6-triiodo-N,N'-dimethyl-
Name: 1-N,3-N-bis(2,3-dihydroxypropyl)-5-[[3-hydroxy-2-(hydroxymethyl)propanoyl]amino]-2,4,6-triiodo-1-N,3-N-dimethylbenzene-1,3-dicarboxamide
Formula: C20H28I3N3O9
Exact mass: 834.8960
SMILES: Ic1c(c(I)c(c(I)c1NC(=O)C(CO)CO)C(=O)N(CC(O)CO)C)C(=O)N(CC(O)CO)C
InChI: InChI=1S/C20H28I3N3O9/c1-25(3-10(31)7-29)19(34)12-14(21)13(20(35)26(2)4-11(32)8-30)16(23)17(15(12)22)24-18(33)9(5-27)6-28/h9-11,27-32H,3-8H2,1-2H3,(H,24,33)
Instrument: LTQ Orbitrap XL Thermo Scientific
Instrument type: LC-ESI-ITFT
Ms type: MS2
Ion mode: POSITIVE
Ionization: ESI
Fragmentation mode: HCD
Collision energy: 60 % (nominal)
Resolution: 15000
Column name: XBridge C18 3.5um, 2.1x50mm, Waters
Retention time: 1.6 min
Base peak: 149.0023
Precursor m/z: 835.9032
Precursor type: [M+H]+
m/z	relative intensity	assigned
88.0756	148	C4H10NO+
101.9973	145	C6NO+
149.0015	120	C11HO+
160.0396	163	C9H6NO2+
161.0471	97	C9H7NO2+
170.0237	999	C10H4NO2+
171.0554	153	C10H7N2O+
172.0388	165	C10H6NO2+
185.0711	205	C11H9N2O+
186.0188	158	C10H4NO3+
187.0262	326	C10H5NO3+
188.0341	507	C10H6NO3+
196.1675	164	C10H20N4+
200.0342	470	C11H6NO3+
201.042	240	C11H7NO3+
202.0499	135	C11H8NO3+
205.0371	174	C10H7NO4+
213.0659	142	C12H9N2O2+
215.0814	236	C12H11N2O2+
218.0445	319	C11H8NO4+
243.0752	93	C13H11N2O3+
256.8968	125	C7INO2+
269.9402	320	C9H5INO+
273.0875	166	C14H13N2O4+
275.1015	123	C14H15N2O4+
285.9361	652	C9H5INO2+
293.9026	182	C7H3IO5+
295.9199	261	C10H3INO2+
297.9348	137	C10H5INO2+
299.952	174	C10H7INO2+
313.9311	700	C10H5INO3+
317.9626	459	C11N3O9+
325.9319	168	C11H5INO3+
328.9183	325	C10H4INO4+
339.9092	151	C11H3INO4+
343.941	492	C11H7INO4+
357.9199	136	C11H5INO5+
383.8011	554	C7I2NO2+
385.817	179	C7H2I2NO2+
423.8314	238	C10H4I2NO2+
439.7908	445	C9I2NO4+
