Mass spectrum: Timolol; LC-ESI-QFT; MS2; CE: 120; R=35000; [M+H]+
Name: Timolol
Name: 1-(tert-butylamino)-3-[(4-morpholin-4-yl-1,2,5-thiadiazol-3-yl)oxy]propan-2-ol
Formula: C13H24N4O3S
Exact mass: 316.15691
SMILES: CC(C)(C)NCC(O)COC1=NSN=C1N1CCOCC1
InChI: InChI=1S/C13H24N4O3S/c1-13(2,3)14-8-10(18)9-20-12-11(15-21-16-12)17-4-6-19-7-5-17/h10,14,18H,4-9H2,1-3H3
Instrument: Q Exactive Plus Orbitrap Thermo Scientific
Instrument type: LC-ESI-QFT
Ms type: MS2
Ion mode: POSITIVE
Ionization: ESI
Fragmentation mode: HCD
Collision energy: 120 (nominal)
Resolution: 35000
Column name: XBridge C18 3.5um, 2.1x50mm, Waters
Retention time: 4.9 min
Base peak: 317.164
Precursor m/z: 317.1642
Precursor type: [M+H]+
m/z	relative intensity	assigned
53.0022	26	C3HO+
53.0135	4	C2HN2+
53.9975	1	C2NO+
54.0339	15	C3H4N+
55.0291	13	C2H3N2+
55.0543	3	C4H7+
56.0495	999	C3H6N+
57.0335	31	C3H5O+
57.0699	266	C4H9+
57.9746	4	CNS+
57.9872	2	C2H2S+
58.0652	40	C3H8N+
58.9823	2	CHNS+
58.995	35	C2H3S+
59.9903	149	CH2NS+
61.0107	2	C2H5S+
62.0059	27	CH4NS+
67.0291	3	C3H3N2+
67.0417	7	C4H5N+
67.9893	7	C3O2+
68.0369	12	C3H4N2+
68.0495	14	C4H6N+
69.0447	533	C3H5N2+
70.0288	3	C3H4NO+
70.0525	28	C3H6N2+
70.0652	6	C4H8N+
71.0603	3	C3H7N2+
71.9903	38	C2H2NS+
72.0443	4	C3H6NO+
73.9695	25	CNOS+
74.0059	500	C2H4NS+
74.06	446	C3H8NO+
74.9774	3	CHNOS+
75.0012	7	CH3N2S+
75.9852	4	CH2NOS+
76.0215	3	C2H6NS+
81.0447	2	C4H5N2+
83.0604	2	C4H7N2+
84.0319	3	C3H4N2O+
84.0444	2	C4H6NO+
84.9856	24	C2HN2S+
85.0397	10	C3H5N2O+
85.9695	70	C2NOS+
86.0059	9	C3H4NS+
86.0601	37	C4H8NO+
87.9852	8	C2H2NOS+
88.0758	2	C4H10NO+
95.024	1	C4H3N2O+
95.0605	4	C5H7N2+
99.0012	27	C3H3N2S+
101.0169	40	C3H5N2S+
102.0009	4	C3H4NOS+
110.0475	1	C5H6N2O+
111.0555	2	C5H7N2O+
112.0633	3	C5H8N2O+
113.0346	18	C4H5N2O2+
113.071	218	C5H9N2O+
117.0116	1	C3H5N2OS+
118.007	7	C2H4N3OS+
126.0119	3	C4H4N3S+
126.9961	3	C4H3N2OS+
127.9914	26	C3H2N3OS+
130.007	13	C3H4N3OS+
144.0227	91	C4H6N3OS+
145.0068	12	C4H5N2O2S+
145.0431	9	C5H9N2OS+
146.002	2	C3H4N3O2S+
