Mass spectrum: Diclobutrazol; LC-ESI-QFT; MS2; CE: 150%; R=17500; [M+H]+
Name: Diclobutrazol
Name: 1-(2,4-dichlorophenyl)-4,4-dimethyl-2-(1,2,4-triazol-1-yl)pentan-3-ol
Formula: C15H19Cl2N3O
Exact mass: 327.0905
SMILES: CC(C)(C)C(C(CC1=C(C=C(C=C1)Cl)Cl)N2C=NC=N2)O
InChI: InChI=1S/C15H19Cl2N3O/c1-15(2,3)14(21)13(20-9-18-8-19-20)6-10-4-5-11(16)7-12(10)17/h4-5,7-9,13-14,21H,6H2,1-3H3
Instrument: Exploris 240 Orbitrap Thermo Scientific
Instrument type: LC-ESI-QFT
Ms type: MS2
Ion mode: POSITIVE
Ionization: ESI
Fragmentation mode: HCD
Collision energy: 150 % (nominal)
Resolution: 17500
Column name: XBridge C18 3.5um, 2.1x50mm, Waters
Retention time: 10.847 min
Base peak: 328.0979
Precursor m/z: 328.0978
Precursor type: [M+H]+
m/z	relative intensity	assigned
59.049	13	C3H7O+
70.04	999	C2H4N3+
72.9838	35	C3H2Cl+
75.0229	31	C6H3+
88.0308	7	C7H4+
89.0386	120	C7H5+
96.984	9	C5H2Cl+
98.9996	32	C5H4Cl+
102.0466	22	C8H6+
122.9997	56	C7H4Cl+
124.0077	14	C7H5Cl+
128.0622	13	C10H8+
132.9607	12	C5H3Cl2+
158.9767	17	C7H5Cl2+
