Mass spectrum: Flufenacet ESA; LC-ESI-ITFT; MS2; CE: 35%; R=30000; [M-H]-
Name: Flufenacet ESA
Name: 2-[(4-Fluorophenyl)(isopropyl)amino]-2-oxoethanesulfonic acid
Formula: C11H14FNO4S
Exact mass: 275.0628
SMILES: Fc1ccc(cc1)N(C(C)C)C(=O)CS(O)(=O)=O
InChI: InChI=1S/C11H14FNO4S/c1-8(2)13(11(14)7-18(15,16)17)10-5-3-9(12)4-6-10/h3-6,8H,7H2,1-2H3,(H,15,16,17)
Instrument: LTQ Orbitrap XL Thermo Scientific
Instrument type: LC-ESI-ITFT
Ms type: MS2
Ion mode: NEGATIVE
Ionization: ESI
Fragmentation mode: CID
Collision energy: 35 % (nominal)
Resolution: 30000
Column name: XBridge C18 3.5um, 2.1x50mm, Waters
Retention time: 5.9 min
Base peak: 274.0553
Precursor m/z: 274.0555
Precursor type: [M-H]-
m/z	relative intensity	assigned
79.9575	4	O3S-
111.0254	3	C6H4FO-
119.9762	6	C2H2NO3S-
120.9603	999	C2HO4S-
136.0572	1	C8H7FN-
152.0883	62	C9H11FN-
162.0231	17	C5H8NO3S-
168.0463	1	C8H7FNO2-
210.0939	21	C11H13FNO2-
232.0086	108	C8H7FNO4S-
