Mass spectrum: Diphenamid; LC-ESI-QFT; MS2; CE: 90%; R=17500; [M+H]+
Name: Diphenamid
Name: N,N-dimethyl-2,2-diphenylacetamide
Formula: C16H17NO
Exact mass: 239.1310
SMILES: CN(C)C(=O)C(C1=CC=CC=C1)C2=CC=CC=C2
InChI: InChI=1S/C16H17NO/c1-17(2)16(18)15(13-9-5-3-6-10-13)14-11-7-4-8-12-14/h3-12,15H,1-2H3
Instrument: Exploris 240 Orbitrap Thermo Scientific
Instrument type: LC-ESI-QFT
Ms type: MS2
Ion mode: POSITIVE
Ionization: ESI
Fragmentation mode: HCD
Collision energy: 90 % (nominal)
Resolution: 17500
Column name: XBridge C18 3.5um, 2.1x50mm, Waters
Retention time: 7.502 min
Base peak: 274.2526
Precursor m/z: 240.1383
Precursor type: [M+H]+
m/z	relative intensity	assigned
56.0493	8	C3H6N+
72.0444	101	C3H6NO+
91.0542	127	C7H7+
93.0696	5	C7H9+
105.0697	5	C8H9+
118.065	52	C8H8N+
119.0728	23	C8H9N+
128.0621	4	C10H8+
132.0807	11	C9H10N+
134.0964	999	C9H12N+
151.0544	7	C12H7+
152.062	163	C12H8+
165.0699	146	C13H9+
166.0776	62	C13H10+
167.0854	127	C13H11+
