Mass spectrum: Methiocarb-TP methiocarb sulfone phenol (M05); LC-ESI-QFT; MS2; CE: 75%; R=17500; [M-H]-
Name: Methiocarb-TP methiocarb sulfone phenol (M05)
Name: 3,5-dimethyl-4-methylsulfonylphenol
Name: methiocarb sulfone phenol
Formula: C9H12O3S
Exact mass: 200.0507
SMILES: CC1=CC(O)=CC(C)=C1S(C)(=O)=O
InChI: InChI=1S/C9H12O3S/c1-6-4-8(10)5-7(2)9(6)13(3,11)12/h4-5,10H,1-3H3
Instrument: Q Exactive Orbitrap Thermo Scientific
Instrument type: LC-ESI-QFT
Ms type: MS2
Ion mode: NEGATIVE
Ionization: ESI
Fragmentation mode: HCD
Collision energy: 75 % (nominal)
Resolution: 17500
Column name: XBridge C18 3.5um, 2.1x50mm, Waters
Retention time: 4.028 min
Base peak: 199.0434
Precursor m/z: 199.0434
Precursor type: [M-H]-
m/z	relative intensity	assigned
63.9625	65	O2S-
78.9858	52	CH3O2S-
106.0424	275	C7H6O-
109.0295	208	C6H5O2-
120.0581	999	C8H8O-
121.066	30	C8H9O-
122.0374	42	C7H6O2-
123.0452	59	C7H7O2-
134.0374	52	C8H6O2-
135.0451	705	C8H7O2-
136.0528	449	C8H8O2-
137.0242	43	C7H5O3-
149.0251	11	C8H5O3-
151.0399	70	C8H7O3-
164.0478	24	C9H8O3-
184.0202	47	C8H8O3S-
