Mass spectrum: Prothioconazole-desethio; LC-ESI-QFT; MS2; CE: 90; R=35000; [M+H]+
Name: Prothioconazole-desethio
Name: 1H-1,2,4-Triazole-1-ethanol, alpha-(1-chlorocyclopropyl)-alpha-((2-chlorophenyl)methyl)-
Name: 2-(1-chloranylcyclopropyl)-1-(2-chlorophenyl)-3-(1,2,4-triazol-1-yl)propan-2-ol
Formula: C14H15Cl2N3O
Exact mass: 311.05922
SMILES: Clc1ccccc1CC(O)(C2(Cl)CC2)Cn3ncnc3
InChI: InChI=1S/C14H15Cl2N3O/c15-12-4-2-1-3-11(12)7-14(20,13(16)5-6-13)8-19-10-17-9-18-19/h1-4,9-10,20H,5-8H2
Instrument: Q Exactive Orbitrap Thermo Scientific
Instrument type: LC-ESI-QFT
Ms type: MS2
Ion mode: POSITIVE
Ionization: ESI
Fragmentation mode: HCD
Collision energy: 90 (nominal)
Resolution: 35000
Column name: XBridge C18 3.5um, 2.1x50mm, Waters
Retention time: 12.1 min
Base peak: 312.0669
Precursor m/z: 312.0665
Precursor type: [M+H]+
m/z	relative intensity	assigned
63.0231	8	C5H3+
65.0387	14	C5H5+
66.0465	3	C5H6+
67.0543	2	C5H7+
70.04	999	C2H4N3+
72.9839	3	C3H2Cl+
74.9997	6	C3H4Cl+
77.0386	3	C6H5+
89.0386	123	C7H5+
90.0464	35	C7H6+
91.0543	3	C7H7+
95.0492	6	C6H7O+
98.9996	53	C5H4Cl+
102.0464	6	C8H6+
103.0543	29	C8H7+
105.0447	5	C6H5N2+
115.0543	32	C9H7+
116.0621	27	C9H8+
125.0153	620	C7H6Cl+
128.0621	20	C10H8+
129.0699	14	C10H9+
130.0779	2	C10H10+
137.0154	3	C8H6Cl+
139.031	2	C8H8Cl+
141.0698	26	C11H9+
142.0778	9	C11H10+
145.0649	1	C10H9O+
149.0154	10	C9H6Cl+
152.0621	20	C12H8+
153.0699	37	C12H9+
154.0777	12	C12H10+
155.0605	3	C10H7N2+
158.9761	4	C7H5Cl2+
162.0231	5	C10H7Cl+
