Mass spectrum: Nornicotine; LC-ESI-QFT; MS2; CE: 45; R=35000; [M+H]+
Name: Nornicotine
Name: 3-pyrrolidin-2-ylpyridine
Formula: C9H12N2
Exact mass: 148.10005
SMILES: c1cc(cnc1)C2CCCN2
InChI: InChI=1S/C9H12N2/c1-3-8(7-10-5-1)9-4-2-6-11-9/h1,3,5,7,9,11H,2,4,6H2
Instrument: Q Exactive Plus Orbitrap Thermo Scientific
Instrument type: LC-ESI-QFT
Ms type: MS2
Ion mode: POSITIVE
Ionization: ESI
Fragmentation mode: HCD
Collision energy: 45 (nominal)
Resolution: 35000
Column name: XBridge C18 3.5um, 2.1x50mm, Waters
Retention time: 1.0 min
Base peak: 149.1072
Precursor m/z: 149.1073
Precursor type: [M+H]+
m/z	relative intensity	assigned
70.0651	102	C4H8N+
80.0494	363	C5H6N+
92.0495	1	C6H6N+
93.0573	1	C6H7N+
94.0651	1	C6H8N+
105.0699	4	C8H9+
106.0651	221	C7H8N+
115.0542	15	C9H7+
117.0573	173	C8H7N+
118.065	7	C8H8N+
119.0728	7	C8H9N+
120.0807	35	C8H10N+
130.0652	680	C9H8N+
131.0729	4	C9H9N+
132.0807	999	C9H10N+
149.1073	693	C9H13N2+
