Mass spectrum: Metamitron; LC-ESI-ITFT; MS2; CE: 30%; R=7500; [M+H]+
Name: Metamitron
Name: 4-Amino-4,5-dihydro-3-methyl-6-phenyl-1,2,4-triazin-5-one
Name: 4-amino-3-methyl-6-phenyl-1,2,4-triazin-5-one
Formula: C10H10N4O
Exact mass: 202.0860
SMILES: c(ccc1C(=NN=C2C)C(=O)N2N)cc1
InChI: InChI=1S/C10H10N4O/c1-7-12-13-9(10(15)14(7)11)8-5-3-2-4-6-8/h2-6H,11H2,1H3
Instrument: LTQ Orbitrap XL Thermo Scientific
Instrument type: LC-ESI-ITFT
Ms type: MS2
Ion mode: POSITIVE
Ionization: ESI
Fragmentation mode: HCD
Collision energy: 30 % (nominal)
Resolution: 7500
Column name: XBridge C18 3.5um, 2.1x50mm, Waters
Retention time: 4.9 min
Base peak: 203.093
Precursor m/z: 203.0927
Precursor type: [M+H]+
m/z	relative intensity	assigned
57.0447	1	C2H5N2+
72.0445	1	C3H6NO+
79.0544	3	C6H7+
89.0387	1	C7H5+
104.0494	9	C7H6N+
106.0652	8	C7H8N+
120.0805	1	C8H10N+
130.0652	2	C9H8N+
134.0711	1	C7H8N3+
145.0397	3	C8H5N2O+
158.0585	1	C8H6N4+
174.0787	19	C10H10N2O+
175.0976	68	C9H11N4+
186.0661	1	C10H8N3O+
203.093	999	C10H11N4O+
