Mass spectrum: Pretilachlor; LC-ESI-QFT; MS2; CE: 45; R=35000; [M+H]+
Name: Pretilachlor
Name: 2-chloranyl-N-(2,6-diethylphenyl)-N-(2-propoxyethyl)ethanamide
Formula: C17H26ClNO2
Exact mass: 311.16521
SMILES: ClCC(=O)N(c1c(cccc1CC)CC)CCOCCC
InChI: InChI=1S/C17H26ClNO2/c1-4-11-21-12-10-19(16(20)13-18)17-14(5-2)8-7-9-15(17)6-3/h7-9H,4-6,10-13H2,1-3H3
Instrument: Q Exactive Orbitrap Thermo Scientific
Instrument type: LC-ESI-QFT
Ms type: MS2
Ion mode: POSITIVE
Ionization: ESI
Fragmentation mode: HCD
Collision energy: 45 (nominal)
Resolution: 35000
Column name: XBridge C18 3.5um, 2.1x50mm, Waters
Retention time: 14.4 min
Base peak: 312.173
Precursor m/z: 312.1725
Precursor type: [M+H]+
m/z	relative intensity	assigned
76.9789	13	C2H2ClO+
91.0542	4	C7H7+
103.0541	1	C8H7+
105.0699	24	C8H9+
117.0573	2	C8H7N+
118.0651	40	C8H8N+
120.0807	5	C8H10N+
130.0654	2	C9H8N+
131.0855	2	C10H11+
132.081	5	C9H10N+
133.1013	2	C10H13+
134.0965	1	C9H12N+
144.0808	4	C10H10N+
145.0887	11	C10H11N+
146.0965	55	C10H12N+
147.1043	39	C10H13N+
148.1121	25	C10H14N+
149.0963	1	C10H13O+
158.0964	1	C11H12N+
159.1043	1	C11H13N+
160.1122	28	C11H14N+
161.1199	1	C11H15N+
172.1122	4	C12H14N+
174.1279	11	C12H16N+
175.1356	2	C12H17N+
176.1435	384	C12H18N+
182.0731	1	C10H13ClN+
188.107	7	C12H14NO+
196.0525	1	C10H11ClNO+
202.1234	2	C13H16NO+
224.0837	2	C12H15ClNO+
224.1203	9	C13H19ClN+
234.1045	2	C14H17ClN+
252.1151	999	C14H19ClNO+
