Mass spectrum: Ephedrine; LC-ESI-ITFT; MS2; CE: 15%; R=7500; [M+H]+
Name: Ephedrine
Name: (1R,2S)-2-(methylamino)-1-phenyl-1-propanol
Formula: C10H15NO
Exact mass: 165.1154
SMILES: c1([C@H]([C@@H](NC)C)O)ccccc1
InChI: InChI=1S/C10H15NO/c1-8(11-2)10(12)9-6-4-3-5-7-9/h3-8,10-12H,1-2H3/t8-,10-/m0/s1
Instrument: LTQ Orbitrap XL Thermo Scientific
Instrument type: LC-ESI-ITFT
Ms type: MS2
Ion mode: POSITIVE
Ionization: ESI
Fragmentation mode: HCD
Collision energy: 15 % (nominal)
Resolution: 7500
Column name: XBridge C18 3.5um, 2.1x50mm, Waters
Retention time: 2.9 min
Base peak: 166.123
Precursor m/z: 166.1226
Precursor type: [M+H]+
m/z	relative intensity	assigned
117.0702	1	C9H9+
133.0883	1	C9H11N+
148.1121	635	C10H14N+
166.1227	999	C10H16NO+
