Mass spectrum: Nodularin; LC-ESI-QFT; MS2; CE: 45; R=35000; [M+H]+
Name: Nodularin
Name: (2Z,5R,6S,9S,12S,13S,16R)-9-[3-(diaminomethylideneamino)propyl]-2-ethylidene-12-[(1E,3E,5S,6S)-6-methoxy-3,5-dimethyl-7-phenylhepta-1,3-dienyl]-1,6,13-trimethyl-3,7,10,14,19-pentaoxo-1,4,8,11,15-pentazacyclononadecane-5,16-dicarboxylic acid
Formula: C41H60N8O10
Exact mass: 824.44324
SMILES: NC(=N)NCCC[C@@H]2NC(=O)[C@@H](C)[C@@H](NC(=O)C(=C\C)\N(C)C(=O)CC[C@@H](NC(=O)[C@@H](C)[C@H](/C=C/C(/C)=C/[C@H](C)[C@H](Cc1ccccc1)OC)NC2=O)C(=O)O)C(O)=O
InChI: InChI=1S/C41H60N8O10/c1-8-31-38(54)48-34(40(57)58)26(5)36(52)46-29(15-12-20-44-41(42)43)37(53)45-28(25(4)35(51)47-30(39(55)56)18-19-33(50)49(31)6)17-16-23(2)21-24(3)32(59-7)22-27-13-10-9-11-14-27/h8-11,13-14,16-17,21,24-26,28-30,32,34H,12,15,18-20,22H2,1-7H3,(H,45,53)(H,46,52)(H,47,51)(H,48,54)(H,55,56)(H,57,58)(H4,42,43,44)/b17-16+,23-21+,31-8-/t24-,25-,26-,28-,29-,30+,32-,34+/m0/s1
Instrument: Q Exactive Orbitrap Thermo Scientific
Instrument type: LC-ESI-QFT
Ms type: MS2
Ion mode: POSITIVE
Ionization: ESI
Fragmentation mode: HCD
Collision energy: 45 (nominal)
Resolution: 35000
Column name: XBridge C18 3.5um, 2.1x50mm, Waters
Retention time: 9.6 min
Base peak: 825.4499
Precursor m/z: 825.4505
Precursor type: [M+H]+
m/z	relative intensity	assigned
58.0652	1	C3H8N+
59.0478	2	CH5N3+
60.0557	24	CH6N3+
65.0386	1	C5H5+
67.0542	1	C5H7+
68.0493	8	C4H6N+
69.0335	19	C4H5O+
70.0651	815	C4H8N+
71.0491	5	C4H7O+
72.0807	10	C4H10N+
74.0599	1	C3H8NO+
77.0385	5	C6H5+
79.0542	30	C6H7+
80.0493	1	C5H6N+
81.0697	3	C6H9+
82.0651	2	C5H8N+
83.049	6	C5H7O+
84.0444	79	C4H6NO+
85.0284	1	C4H5O2+
85.0762	2	C4H9N2+
86.0601	5	C4H8NO+
87.0791	12	C3H9N3+
91.0542	90	C7H7+
93.0698	95	C7H9+
94.0652	4	C6H8N+
95.0491	23	C6H7O+
95.0604	14	C5H7N2+
95.0855	12	C7H11+
96.0445	5	C5H6NO+
96.0808	6	C6H10N+
97.076	30	C5H9N2+
98.0601	29	C5H8NO+
100.0756	4	C5H10NO+
100.0871	1	C4H10N3+
102.0549	1	C4H8NO2+
103.0542	260	C8H7+
105.0699	249	C8H9+
107.0855	405	C8H11+
108.0806	2	C7H10N+
109.0649	9	C7H9O+
109.0763	1	C6H9N2+
110.0599	2	C6H8NO+
110.0964	2	C7H12N+
112.0869	188	C5H10N3+
113.0232	4	C5H5O3+
113.0709	59	C5H9N2O+
114.0549	2	C5H8NO2+
114.1026	37	C5H12N3+
115.0542	29	C9H7+
115.0866	136	C5H11N2O+
116.0705	42	C5H10NO2+
117.0699	120	C9H9+
119.0855	15	C9H11+
120.0569	7	C8H8O+
120.0808	28	C8H10N+
121.0647	2	C8H9O+
121.101	9	C9H13+
122.0964	1	C8H12N+
124.0757	28	C7H10NO+
124.0871	1	C6H10N3+
124.112	12	C8H14N+
125.0709	38	C6H9N2O+
126.055	11	C6H8NO2+
126.0661	5	C5H8N3O+
126.0913	14	C7H12NO+
127.0865	14	C6H11N2O+
127.0978	1	C5H11N4+
127.123	2	C7H15N2+
128.0818	1	C5H10N3O+
129.0698	6	C10H9+
129.1134	1	C5H13N4+
130.0499	34	C5H8NO3+
130.0975	20	C5H12N3O+
131.0856	22	C10H11+
132.0808	2	C9H10N+
132.1132	1	C5H14N3O+
133.0646	2	C9H9O+
133.1012	13	C10H13+
135.0804	999	C9H11O+
135.1167	335	C10H15+
136.0756	16	C8H10NO+
136.0836	1	C4H12N2O3+
137.1074	8	C8H13N2+
138.0661	1	C6H8N3O+
138.0912	8	C8H12NO+
139.0976	20	C6H11N4+
139.1229	2	C8H15N2+
140.0703	6	C7H10NO2+
140.0817	49	C6H10N3O+
141.0656	38	C6H9N2O2+
142.0861	2	C7H12NO2+
142.0976	1	C6H12N3O+
143.0857	13	C11H11+
145.1012	24	C11H13+
146.0965	4	C10H12N+
146.1087	4	C11H14+
147.0807	2	C10H11O+
147.0917	1	C9H11N2+
147.1166	1	C11H15+
150.0913	4	C9H12NO+
150.1024	1	C8H12N3+
151.0864	5	C8H11N2O+
152.0706	70	C8H10NO2+
153.0656	3	C7H9N2O2+
153.1022	29	C8H13N2O+
154.0863	10	C8H12NO2+
155.0925	2	C6H11N4O+
155.1177	11	C8H15N2O+
156.1245	12	C6H14N5+
157.1083	100	C6H13N4O+
158.0922	19	C6H12N3O2+
159.1167	6	C12H15+
161.0962	10	C11H13O+
162.1027	5	C9H12N3+
163.0865	42	C9H11N2O+
163.1116	169	C11H15O+
164.0705	9	C9H10NO2+
164.118	6	C9H14N3+
165.1022	18	C9H13N2O+
166.0861	12	C9H12NO2+
167.086	1	C13H11+
169.1011	1	C13H13+
170.081	13	C8H12NO3+
170.1287	1	C8H16N3O+
171.0759	4	C7H11N2O3+
171.113	9	C8H15N2O2+
172.0713	1	C6H10N3O3+
172.1119	10	C12H14N+
173.0961	4	C12H13O+
174.1349	84	C6H16N5O+
175.1188	20	C6H15N4O2+
176.1069	1	C11H14NO+
176.1431	1	C12H18N+
178.0972	7	C9H12N3O+
178.1224	2	C11H16NO+
179.0813	2	C9H11N2O2+
180.1131	21	C9H14N3O+
181.097	162	C9H13N2O2+
182.0811	28	C9H12NO3+
182.1036	22	C7H12N5O+
182.1285	12	C9H16N3O+
183.0875	25	C7H11N4O2+
183.1126	67	C9H15N2O2+
184.0967	2	C9H14NO3+
186.0912	8	C12H12NO+
188.107	6	C12H14NO+
190.0976	4	C10H12N3O+
190.1225	4	C12H16NO+
191.0814	1	C10H11N2O2+
192.1131	6	C10H14N3O+
195.1165	12	C15H15+
195.1243	7	C9H15N4O+
196.1077	6	C9H14N3O2+
197.0921	1	C9H13N2O3+
197.107	1	C13H13N2+
198.1232	19	C9H16N3O2+
199.1075	29	C9H15N2O3+
200.1139	105	C7H14N5O2+
201.098	38	C7H13N4O3+
201.1268	4	C14H17O+
204.1382	4	C13H18NO+
205.1088	1	C12H15NO2+
205.1338	1	C12H17N2O+
206.0925	11	C10H12N3O2+
207.0761	6	C10H11N2O3+
207.1241	2	C10H15N4O+
208.1081	19	C10H14N3O2+
209.092	152	C10H13N2O3+
209.1321	12	C16H17+
210.076	24	C10H12NO4+
210.1242	2	C10H16N3O2+
211.1071	2	C10H15N2O3+
212.1506	6	C9H18N5O+
213.1344	24	C9H17N4O2+
214.1339	2	C13H16N3+
217.1336	4	C13H17N2O+
218.1536	9	C14H20NO+
220.1441	2	C12H18N3O+
223.1184	15	C10H15N4O2+
224.1028	11	C10H14N3O3+
224.1505	6	C10H18N5O+
225.0871	26	C10H13N2O4+
225.1344	16	C10H17N4O2+
226.1184	53	C10H16N3O3+
226.1586	12	C16H20N+
227.1024	327	C10H15N2O4+
228.0865	16	
228.138	5	C15H18NO+
232.1698	2	C15H22NO+
237.1238	7	C12H17N2O3+
237.1635	20	C18H21+
240.1451	7	C10H18N5O2+
241.1294	6	C10H17N4O3+
242.1609	5	C10H20N5O2+
244.1284	12	
245.1131	1	C10H17N2O5+
246.1236	2	C13H16N3O2+
246.1488	18	C15H20NO2+
248.139	2	C13H18N3O2+
249.1231	7	C13H17N2O3+
250.1298	5	C11H16N5O2+
250.1555	4	C13H20N3O2+
251.1141	8	C11H15N4O3+
252.0976	8	C11H14N3O4+
253.0816	94	C11H13N2O5+
255.1452	5	C11H19N4O3+
257.1727	3	C12H23N3O3+
258.1565	10	C10H20N5O3+
263.1865	6	C14H23N4O+
267.1345	1	C13H19N2O4+
268.14	11	C11H18N5O3+
269.1242	19	C11H17N4O4+
280.213	10	C14H26N5O+
282.1849	8	C19H24NO+
283.1289	8	C13H19N2O5+
285.1672	15	C11H21N6O3+
286.1506	7	C11H20N5O4+
291.1453	2	C14H19N4O3+
292.1286	10	C14H18N3O4+
293.1132	1	C14H17N2O5+
293.1608	3	C14H21N4O3+
295.1287	6	C14H19N2O5+
295.1762	6	C14H23N4O3+
303.1776	10	C11H23N6O4+
310.1386	2	C14H20N3O5+
319.2133	4	C17H27N4O2+
320.1716	6	C15H22N5O3+
322.1874	11	C15H24N5O3+
323.1715	15	C15H23N4O4+
338.1351	7	C15H20N3O6+
338.1828	2	C15H24N5O4+
339.1185	9	C15H19N2O7+
341.1813	1	C15H25N4O5+
348.167	2	C18H24N2O5+
356.2409	1	C15H30N7O3+
365.1954	1	C18H27N3O5+
366.1771	26	C16H24N5O5+
389.2066	5	C21H29N2O5+
406.2086	2	C19H28N5O5+
409.257	2	C21H35N3O5+
449.216	1	C22H31N3O7+
467.2299	1	C25H31N4O5+
488.3229	1	C26H42N5O4+
