Mass spectrum: Terbumeton; LC-ESI-ITFT; MS2; CE: 45%; R=7500; [M+H]+
Name: Terbumeton
Name: 2-N-tert-butyl-4-N-ethyl-6-methoxy-1,3,5-triazine-2,4-diamine
Name: 1,3,5-Triazine-2,4-diamine, N-(1,1-dimethylethyl)-N'-ethyl-6-methoxy-
Formula: C10H19N5O
Exact mass: 225.1584
SMILES: c1(nc(nc(n1)OC)NCC)NC(C)(C)C
InChI: InChI=1S/C10H19N5O/c1-6-11-7-12-8(15-10(2,3)4)14-9(13-7)16-5/h6H2,1-5H3,(H2,11,12,13,14,15)
Instrument: LTQ Orbitrap XL Thermo Scientific
Instrument type: LC-ESI-ITFT
Ms type: MS2
Ion mode: POSITIVE
Ionization: ESI
Fragmentation mode: HCD
Collision energy: 45 % (nominal)
Resolution: 7500
Column name: XBridge C18 3.5um, 2.1x50mm, Waters
Retention time: 6.7 min
Base peak: 226.1662
Precursor m/z: 226.1662
Precursor type: [M+H]+
m/z	relative intensity	assigned
69.0084	3	C2HN2O+
71.0603	2	C3H7N2+
75.0554	3	C2H7N2O+
85.076	2	C4H9N2+
97.0397	1	C4H5N2O+
100.0508	1	C3H6N3O+
114.0662	12	C4H8N3O+
128.0817	5	C5H10N3O+
142.0724	14	C4H8N5O+
170.1039	999	C6H12N5O+
226.1664	242	C10H20N5O+
