Mass spectrum: Naltrexone; LC-ESI-ITFT; MS2; CE: 60%; R=15000; [M+H]+
Name: Naltrexone
Name: (5alpha)-17-(Cyclopropylmethyl)-3,14-dihydroxy-4,5-epoxymorphinan-6-one
Formula: C20H23NO4
Exact mass: 341.1627
SMILES: c12[C@]34[C@@]5([C@H]([N@](CC6CC6)CC4)Cc2ccc(c1O[C@H]3C(=O)CC5)O)O
InChI: InChI=1S/C20H23NO4/c22-13-4-3-12-9-15-20(24)6-5-14(23)18-19(20,16(12)17(13)25-18)7-8-21(15)10-11-1-2-11/h3-4,11,15,18,22,24H,1-2,5-10H2/t15-,18+,19+,20-/m1/s1
Instrument: LTQ Orbitrap XL Thermo Scientific
Instrument type: LC-ESI-ITFT
Ms type: MS2
Ion mode: POSITIVE
Ionization: ESI
Fragmentation mode: HCD
Collision energy: 60 % (nominal)
Resolution: 15000
Column name: XBridge C18 3.5um, 2.1x50mm, Waters
Retention time: 3.1 min
Base peak: 342.1712
Precursor m/z: 342.17
Precursor type: [M+H]+
m/z	relative intensity	assigned
55.0542	221	C4H7+
56.0495	13	C3H6N+
80.0495	15	C5H6N+
82.0653	20	C5H8N+
134.0962	30	C9H12N+
137.0597	12	C8H9O2+
146.0601	27	C9H8NO+
147.0444	16	C9H7O2+
147.0678	36	C9H9NO+
148.0757	46	C9H10NO+
153.0696	20	C12H9+
157.0646	17	C11H9O+
160.0757	32	C10H10NO+
161.0598	120	C10H9O2+
171.0805	16	C12H11O+
173.0598	95	C11H9O2+
174.0551	18	C10H8NO2+
181.0648	63	C13H9O+
181.1015	12	C14H13+
185.0597	47	C12H9O2+
187.0749	20	C12H11O2+
195.0805	31	C14H11O+
197.0598	21	C13H9O2+
199.0753	89	C13H11O2+
200.1071	42	C13H14NO+
201.0916	20	C13H13O2+
201.1147	24	C13H15NO+
207.0808	13	C15H11O+
209.0965	13	C15H13O+
210.0914	70	C14H12NO+
211.0753	90	C14H11O2+
212.0705	212	C13H10NO2+
213.0786	59	C13H11NO2+
213.0911	49	C14H13O2+
214.0864	29	C13H12NO2+
215.0703	27	C13H11O3+
225.0913	36	C15H13O2+
226.0862	155	C14H12NO2+
227.0703	64	C14H11O3+
227.1057	18	C15H15O2+
228.1019	401	C14H14NO2+
238.1233	16	C16H16NO+
239.1311	24	C16H17NO+
240.102	76	C15H14NO2+
241.0861	34	C15H13O3+
241.1095	45	C15H15NO2+
242.1175	36	C15H16NO2+
252.1019	63	C16H14NO2+
253.1211	16	C17H17O2+
254.1176	68	C16H16NO2+
264.1027	11	C17H14NO2+
264.1381	16	C18H18NO+
266.1182	25	C17H16NO2+
267.1254	999	C17H17NO2+
269.1045	23	C16H15NO3+
270.1123	743	C16H16NO3+
282.1131	64	C17H16NO3+
282.1487	500	C18H20NO2+
296.1641	37	C19H22NO2+
324.1592	828	C20H22NO3+
