Mass spectrum: Thiamethoxam; LC-ESI-ITFT; MS2; CE: 60%; R=7500; [M+H]+
Name: Thiamethoxam
Name: 3-((2-Chloro-5-thiazolyl)methyl)tetrahydro-5-methyl-N-nitro-4H-1,3,5-oxadiazin-4-imine
Formula: C8H10ClN5O3S
Exact mass: 291.0193
SMILES: Clc1ncc(s1)CN2\C(=N\[N+]([O-])=O)N(C)COC2
InChI: InChI=1S/C8H10ClN5O3S/c1-12-4-17-5-13(8(12)11-14(15)16)3-6-2-10-7(9)18-6/h2H,3-5H2,1H3/b11-8+
Instrument: LTQ Orbitrap XL Thermo Scientific
Instrument type: LC-ESI-ITFT
Ms type: MS2
Ion mode: POSITIVE
Ionization: ESI
Fragmentation mode: HCD
Collision energy: 60 % (nominal)
Resolution: 7500
Column name: XBridge C18 3.5um, 2.1x50mm, Waters
Retention time: 4.1 min
Base peak: 292.0274
Precursor m/z: 292.0266
Precursor type: [M+H]+
m/z	relative intensity	assigned
57.0447	4	C2H5N2+
67.0417	21	C4H5N+
69.0448	152	C3H5N2+
70.995	21	C3H3S+
78.9405	1	CClS+
79.029	1	C4H3N2+
81.0448	5	C4H5N2+
81.0572	2	C5H7N+
83.99	1	C3H2NS+
87.9949	1	C3H3ClN+
95.0607	4	C5H7N2+
96.0558	2	C4H6N3+
98.006	17	C4H4NS+
99.0012	72	C3H3N2S+
100.0628	2	C4H8N2O+
108.0557	120	C5H6N3+
112.0216	15	C5H6NS+
113.0168	12	C4H5N2S+
118.9593	2	C3H2ClNS+
122.0713	228	C6H8N3+
123.0791	25	C6H9N3+
124.0084	2	C5H4N2S+
124.0864	1	C6H10N3+
125.0168	91	C5H5N2S+
126.0246	6	C5H6N2S+
127.0327	2	C5H7N2S+
131.967	999	C4H3ClNS+
132.9748	6	C4H4ClNS+
138.0121	37	C5H4N3S+
139.0205	2	C5H5N3S+
139.0325	21	C6H7N2S+
140.0271	3	C5H6N3S+
144.975	5	C5H4ClNS+
145.9703	5	C4H3ClN2S+
146.9782	4	C4H4ClN2S+
147.0665	14	C7H7N4+
151.0199	92	C6H5N3S+
152.0277	364	C6H6N3S+
154.0431	16	C6H8N3S+
155.0507	4	C6H9N3S+
160.9937	6	C5H6ClN2S+
165.0229	12	C6H5N4S+
165.077	3	C7H9N4O+
166.0304	3	C6H6N4S+
171.9729	3	C8N2OS+
172.981	7	C8HN2OS+
174.9728	31	C5H4ClN2OS+
179.0385	12	C7H7N4S+
180.0463	38	C7H8N4S+
181.0542	541	C7H9N4S+
185.9886	3	C6H5ClN3S+
186.9968	3	C6H6ClN3S+
199.0644	3	C7H11N4OS+
211.0644	87	C8H11N4OS+
215.0152	13	C7H8ClN4S+
