Mass spectrum: Cefaclor; LC-ESI-QFT; MS2; CE: 90; R=35000; [M+H]+
Name: Cefaclor
Name: CEFACLOR
Name: (6R,7R)-7-[[(2R)-2-amino-1-oxo-2-phenylethyl]amino]-3-chloro-8-oxo-5-thia-1-azabicyclo[4.2.0]oct-2-ene-2-carboxylic acid
Formula: C15H14ClN3O4S
Exact mass: 367.03935
SMILES: O=C2N1/C(=C(/Cl)CS[C@@H]1[C@@H]2NC(=O)[C@@H](c3ccccc3)N)C(=O)O
InChI: InChI=1S/C15H14ClN3O4S/c16-8-6-24-14-10(13(21)19(14)11(8)15(22)23)18-12(20)9(17)7-4-2-1-3-5-7/h1-5,9-10,14H,6,17H2,(H,18,20)(H,22,23)/t9-,10-,14-/m1/s1
Instrument: Q Exactive Orbitrap Thermo Scientific
Instrument type: LC-ESI-QFT
Ms type: MS2
Ion mode: POSITIVE
Ionization: ESI
Fragmentation mode: HCD
Collision energy: 90 (nominal)
Resolution: 35000
Column name: XBridge C18 3.5um, 2.1x50mm, Waters
Retention time: 4.1 min
Base peak: 368.0469
Precursor m/z: 368.0466
Precursor type: [M+H]+
m/z	relative intensity	assigned
57.9873	7	C2H2S+
58.995	52	C2H3S+
60.984	32	C2H2Cl+
62.006	1	CH4NS+
64.0307	1	C5H4+
65.0386	23	C5H5+
66.0464	113	C5H6+
67.0417	3	C4H5N+
68.0257	9	C4H4O+
70.0287	42	C3H4NO+
72.9981	14	C2H3NS+
74.0059	35	C2H4NS+
77.0385	3	C6H5+
79.0542	682	C6H7+
86.0059	185	C3H4NS+
87.9949	91	C3H3ClN+
89.0385	47	C7H5+
90.0464	314	C7H6+
91.0542	503	C7H7+
93.0447	19	C5H5N2+
94.0413	19	C6H6O+
95.0491	50	C6H7O+
98.0057	2	C4H4NS+
99.9852	10	C3H2NOS+
102.0105	3	C4H5ClN+
102.0463	2	C8H6+
103.0542	58	C8H7+
104.0496	3	C7H6N+
104.956	3	C3H2ClS+
105.0336	3	C7H5O+
105.0448	14	C6H5N2+
106.0651	999	C7H8N+
107.0491	11	C7H7O+
108.0571	13	C7H8O+
110.006	9	C5H4NS+
114.0008	101	C4H4NOS+
115.0543	14	C9H7+
116.0495	4	C8H6N+
117.0573	318	C8H7N+
118.0413	568	C8H6O+
118.065	368	C8H8N+
119.0491	30	C8H7O+
120.0808	3	C8H10N+
121.0106	76	C7H5S+
122.036	14	C7H6O2+
123.0262	115	C7H7S+
125.0165	1	C5H5N2S+
128.0494	36	C9H6N+
129.0214	10	C5H6ClN2+
130.0652	46	C9H8N+
131.0491	3	C9H7O+
135.0264	3	C8H7S+
136.0217	7	C7H6NS+
137.0169	2	C6H5N2S+
137.0421	10	C8H9S+
143.9671	1	C5H3ClNS+
146.0601	91	C9H8NO+
147.0263	27	C9H7S+
150.0374	7	C8H8NS+
162.0372	67	C9H8NS+
173.0295	19	C10H7NS+
174.0372	31	C10H8NS+
177.9726	27	C5H5ClNO2S+
190.0319	2	C10H8NOS+
