Mass spectrum: 2-Mercaptobenzothiazole; LC-ESI-QFT; MS2; CE: 45; R=35000; [M+H]+
Name: 2-Mercaptobenzothiazole
Name: 1,3-Benzothiazole-2(3H)-thione
Name: 3H-1,3-benzothiazole-2-thione
Formula: C7H5NS2
Exact mass: 166.98634
SMILES: S=C2Sc1ccccc1N2
InChI: InChI=1S/C7H5NS2/c9-7-8-5-3-1-2-4-6(5)10-7/h1-4H,(H,8,9)
Instrument: Q Exactive Plus Orbitrap Thermo Scientific
Instrument type: LC-ESI-QFT
Ms type: MS2
Ion mode: POSITIVE
Ionization: ESI
Fragmentation mode: HCD
Collision energy: 45 (nominal)
Resolution: 35000
Column name: XBridge C18 3.5um, 2.1x50mm, Waters
Retention time: 6.7 min
Base peak: 167.9936
Precursor m/z: 167.9936
Precursor type: [M+H]+
m/z	relative intensity	assigned
65.0384	1	C5H5+
92.0495	23	C6H6N+
104.0495	1	C7H6N+
109.0106	14	C6H5S+
110.0185	5	C6H6S+
124.0216	29	C6H6NS+
135.0137	32	C7H5NS+
136.0216	26	C7H6NS+
140.9826	2	C6H5S2+
167.9935	999	C7H6NS2+
