Mass spectrum: Spirotetramat BYI08330-ketohydroxy; LC-ESI-QFT; MS2; CE: 150%; R=17500; [M+H]+
Name: Spirotetramat BYI08330-ketohydroxy
Name: 3-(2,5-Dimethylphenyl)-3-hydroxy-8-methoxy-1-azaspiro(4.5)decane-2,4-dione
Name: 3-(2,5-dimethylphenyl)-3-hydroxy-8-methoxy-1-azaspiro[4.5]decane-2,4-dione
Formula: C18H23NO4
Exact mass: 317.1627
SMILES: CC1=CC(=C(C=C1)C)C2(C(=O)C3(CCC(CC3)OC)NC2=O)O
InChI: InChI=1S/C18H23NO4/c1-11-4-5-12(2)14(10-11)18(22)15(20)17(19-16(18)21)8-6-13(23-3)7-9-17/h4-5,10,13,22H,6-9H2,1-3H3,(H,19,21)
Instrument: Exploris 240 Orbitrap Thermo Scientific
Instrument type: LC-ESI-QFT
Ms type: MS2
Ion mode: POSITIVE
Ionization: ESI
Fragmentation mode: HCD
Collision energy: 150 % (nominal)
Resolution: 17500
Column name: XBridge C18 3.5um, 2.1x50mm, Waters
Retention time: 7.435 min
Base peak: 318.1698
Precursor m/z: 318.17
Precursor type: [M+H]+
m/z	relative intensity	assigned
51.0229	80	C4H3+
53.0385	87	C4H5+
54.0338	43	C3H4N+
63.0231	37	C5H3+
65.0386	261	C5H5+
67.0543	31	C5H7+
75.0227	33	C6H3+
77.0385	213	C6H5+
78.0465	55	C6H6+
79.0543	111	C6H7+
89.0385	72	C7H5+
91.0542	999	C7H7+
95.0492	45	C6H7O+
102.0464	105	C8H6+
103.0543	76	C8H7+
105.0697	28	C8H9+
115.0542	896	C9H7+
116.0618	125	C9H8+
117.07	72	C9H9+
126.0465	23	C10H6+
127.0543	68	C10H7+
128.0621	615	C10H8+
129.0702	29	C10H9+
139.0543	27	C11H7+
141.0701	71	C11H9+
143.0731	37	C10H9N+
152.0624	57	C12H8+
153.0702	37	C12H9+
165.0696	118	C13H9+
178.0782	44	C14H10+
