Mass spectrum: Imazaquin; LC-ESI-QFT; MS2; CE: 45; R=35000; [M+H]+
Name: Imazaquin
Name: 2-(4-methyl-5-oxo-4-propan-2-yl-1H-imidazol-2-yl)quinoline-3-carboxylic acid
Formula: C17H17N3O3
Exact mass: 311.12699
SMILES: CC(C)C1(C(=O)NC(=N1)C2=NC3=CC=CC=C3C=C2C(=O)O)C
InChI: InChI=1S/C17H17N3O3/c1-9(2)17(3)16(23)19-14(20-17)13-11(15(21)22)8-10-6-4-5-7-12(10)18-13/h4-9H,1-3H3,(H,21,22)(H,19,20,23)
Instrument: Q Exactive Plus Orbitrap Thermo Scientific
Instrument type: LC-ESI-QFT
Ms type: MS2
Ion mode: POSITIVE
Ionization: ESI
Fragmentation mode: HCD
Collision energy: 45 (nominal)
Resolution: 35000
Column name: XBridge C18 3.5um, 2.1x50mm, Waters
Retention time: 7.0 min
Base peak: 312.1336
Precursor m/z: 312.1343
Precursor type: [M+H]+
m/z	relative intensity	assigned
53.0022	3	C3HO+
56.0495	1	C3H6N+
58.0651	28	C3H8N+
67.0542	4	C5H7+
69.0699	489	C5H9+
70.0651	7	C4H8N+
71.073	4	C4H9N+
71.0855	16	C5H11+
84.0808	8	C5H10N+
86.0964	675	C5H12N+
97.0648	56	C6H9O+
101.0384	1	C8H5+
114.0915	8	C6H12NO+
116.0492	1	C8H6N+
142.0653	2	C10H8N+
153.0443	2	C10H5N2+
154.0526	3	C10H6N2+
155.0603	48	C10H7N2+
160.0757	4	C10H10NO+
171.0555	1	C10H7N2O+
174.055	1	C10H8NO2+
181.0396	54	C11H5N2O+
182.0965	4	C13H12N+
183.0555	11	C11H7N2O+
183.0918	7	C12H11N2+
184.0392	2	C11H6NO2+
186.0553	3	C11H8NO2+
197.071	150	C12H9N2O+
198.0663	566	C11H8N3O+
199.0502	999	C11H7N2O2+
201.0659	3	C11H9N2O2+
206.0966	1	C15H12N+
211.0503	16	C12H7N2O2+
216.0771	8	C11H10N3O2+
221.1075	1	C15H13N2+
223.0738	8	C13H9N3O+
223.123	94	C15H15N2+
224.0819	251	C13H10N3O+
225.1022	120	C14H13N2O+
226.0862	5	C14H12NO2+
226.0973	28	C13H12N3O+
227.0816	11	C13H11N2O2+
228.0768	4	C12H10N3O2+
240.1009	1	C15H14NO2+
240.1495	2	C15H18N3+
241.0846	13	C13H11N3O2+
242.0927	3	C13H12N3O2+
249.1023	197	C16H13N2O+
251.069	39	C14H9N3O2+
252.0768	886	C14H10N3O2+
266.1288	456	C16H16N3O+
267.1128	988	C16H15N2O2+
268.1443	1	C16H18N3O+
269.0795	41	C14H11N3O3+
270.0873	372	C14H12N3O3+
282.0869	3	C15H12N3O3+
284.1393	88	C16H18N3O2+
294.1236	42	C17H16N3O2+
312.1342	254	C17H18N3O3+
