Mass spectrum: Venlafaxine; LC-ESI-ITFT; MS2; CE: 75%; R=7500; [M+H]+
Name: Venlafaxine
Name: 1-[2-(dimethylamino)-1-(4-methoxyphenyl)ethyl]-1-cyclohexanol
Formula: C17H27NO2
Exact mass: 277.2042
SMILES: CN(C)CC(C1=CC=C(C=C1)OC)C2(CCCCC2)O
InChI: InChI=1S/C17H27NO2/c1-18(2)13-16(17(19)11-5-4-6-12-17)14-7-9-15(20-3)10-8-14/h7-10,16,19H,4-6,11-13H2,1-3H3
Instrument: LTQ Orbitrap XL Thermo Scientific
Instrument type: LC-ESI-ITFT
Ms type: MS2
Ion mode: POSITIVE
Ionization: ESI
Fragmentation mode: HCD
Collision energy: 75 % (nominal)
Resolution: 7500
Column name: XBridge C18 3.5um, 2.1x50mm, Waters
Retention time: 6.2 min
Base peak: 278.2126
Precursor m/z: 278.2115
Precursor type: [M+H]+
m/z	relative intensity	assigned
58.0652	999	C3H8N+
67.0544	6	C5H7+
69.0699	9	C5H9+
77.0386	9	C6H5+
79.0544	32	C6H7+
81.0701	47	C6H9+
91.0543	105	C7H7+
93.0696	14	C7H9+
105.07	13	C8H9+
107.0855	8	C8H11+
117.0696	10	C9H9+
119.0852	10	C9H11+
121.0649	665	C8H9O+
132.0569	24	C9H8O+
135.0805	34	C9H11O+
144.0569	10	C10H8O+
147.0805	223	C10H11O+
158.0729	28	C11H10O+
159.0804	54	C11H11O+
161.0964	7	C11H13O+
162.0917	13	C10H12NO+
173.0963	62	C12H13O+
177.1148	7	C11H15NO+
