Mass spectrum: Bromuconazole; LC-ESI-QFT; MS2; CE: 15; R=35000; [M+H]+
Name: Bromuconazole
Name: 1-[[4-bromo-2-(2,4-dichlorophenyl)oxolan-2-yl]methyl]-1,2,4-triazole
Formula: C13H12BrCl2N3O
Exact mass: 374.95408
SMILES: C1C(COC1(CN2C=NC=N2)C3=C(C=C(C=C3)Cl)Cl)Br
InChI: InChI=1S/C13H12BrCl2N3O/c14-9-4-13(20-5-9,6-19-8-17-7-18-19)11-2-1-10(15)3-12(11)16/h1-3,7-9H,4-6H2
Instrument: Q Exactive Plus Orbitrap Thermo Scientific
Instrument type: LC-ESI-QFT
Ms type: MS2
Ion mode: POSITIVE
Ionization: ESI
Fragmentation mode: HCD
Collision energy: 15 (nominal)
Resolution: 35000
Column name: XBridge C18 3.5um, 2.1x50mm, Waters
Retention time: 10.9 min
Base peak: 377.9586
Precursor m/z: 375.9614
Precursor type: [M+H]+
m/z	relative intensity	assigned
70.04	30	C2H4N3+
158.976	34	C7H5Cl2+
172.9548	2	C7H3Cl2O+
227.0027	8	C11H9Cl2O+
306.9288	9	C11H10BrCl2O+
375.9616	999	C13H13BrCl2N3O+
