Mass spectrum: Corticosterone; LC-ESI-QFT; MS2; CE: 30; R=35000; [M+H]+
Name: Corticosterone
Name: 11b,21-Dihydroxyprogesterone
Name: (8S,9S,10R,11S,13S,14S,17S)-11-hydroxy-17-(2-hydroxyacetyl)-10,13-dimethyl-1,2,6,7,8,9,11,12,14,15,16,17-dodecahydrocyclopenta[a]phenanthren-3-one
Formula: C21H30O4
Exact mass: 346.21441
SMILES: O=C4\C=C2/[C@]([C@H]1[C@@H](O)C[C@@]3([C@@H](C(=O)CO)CC[C@H]3[C@@H]1CC2)C)(C)CC4
InChI: InChI=1S/C21H30O4/c1-20-8-7-13(23)9-12(20)3-4-14-15-5-6-16(18(25)11-22)21(15,2)10-17(24)19(14)20/h9,14-17,19,22,24H,3-8,10-11H2,1-2H3/t14-,15-,16+,17-,19+,20-,21-/m0/s1
Instrument: Q Exactive Plus Orbitrap Thermo Scientific
Instrument type: LC-ESI-QFT
Ms type: MS2
Ion mode: POSITIVE
Ionization: ESI
Fragmentation mode: HCD
Collision energy: 30 (nominal)
Resolution: 35000
Column name: XBridge C18 3.5um, 2.1x50mm, Waters
Retention time: 8.9 min
Base peak: 347.2214
Precursor m/z: 347.2217
Precursor type: [M+H]+
m/z	relative intensity	assigned
53.0385	1	C4H5+
55.0177	1	C3H3O+
55.0541	9	C4H7+
57.0336	1	C3H5O+
61.0284	3	C2H5O2+
67.0542	12	C5H7+
69.0335	5	C4H5O+
69.0698	7	C5H9+
71.0491	5	C4H7O+
73.0647	1	C4H9O+
77.0384	4	C6H5+
79.0541	18	C6H7+
81.0699	58	C6H9+
83.0491	80	C5H7O+
83.0854	6	C6H11+
85.0647	13	C5H9O+
87.044	36	C4H7O2+
91.0542	14	C7H7+
93.0699	61	C7H9+
95.0491	8	C6H7O+
95.0855	64	C7H11+
97.0648	307	C6H9O+
99.0441	18	C5H7O2+
99.0804	5	C6H11O+
101.0597	134	C5H9O2+
105.0699	49	C8H9+
107.0491	11	C7H7O+
107.0855	106	C8H11+
109.0648	125	C7H9O+
109.1012	26	C8H13+
111.044	8	C6H7O2+
111.0804	12	C7H11O+
113.0596	1	C6H9O2+
115.054	1	C9H7+
115.0751	1	C6H11O2+
117.0699	14	C9H9+
119.0855	69	C9H11+
121.0648	681	C8H9O+
121.1012	40	C9H13+
123.0804	245	C8H11O+
125.0598	3	C7H9O2+
125.0963	3	C8H13O+
127.0751	6	C7H11O2+
129.0698	10	C10H9+
131.0855	65	C10H11+
133.0648	11	C9H9O+
133.1011	105	C10H13+
135.0804	177	C9H11O+
135.1168	52	C10H15+
137.0961	44	C9H13O+
139.0753	6	C8H11O2+
139.1119	4	C9H15O+
141.0699	4	C11H9+
142.0776	1	C11H10+
143.0855	48	C11H11+
145.0648	6	C10H9O+
145.1011	97	C11H13+
147.0804	82	C10H11O+
147.1168	79	C11H15+
149.0961	58	C10H13O+
149.1325	26	C11H17+
151.0753	4	C9H11O2+
151.112	9	C10H15O+
153.091	34	C9H13O2+
155.0855	24	C12H11+
156.0934	4	C12H12+
157.1012	110	C12H13+
159.0804	32	C11H11O+
159.1168	96	C12H15+
161.0961	86	C11H13O+
161.1325	31	C12H17+
163.1117	134	C11H15O+
165.0914	6	C10H13O2+
165.1274	6	C11H17O+
167.0855	5	C13H11+
167.1067	7	C10H15O2+
169.1011	74	C13H13+
171.0804	22	C12H11O+
171.1168	147	C13H15+
173.0961	68	C12H13O+
173.1325	50	C13H17+
175.1117	164	C12H15O+
175.1481	14	C13H19+
176.1192	1	C12H16O+
177.0911	3	C11H13O2+
177.1273	69	C12H17O+
179.0853	1	C14H11+
179.1066	15	C11H15O2+
181.101	23	C14H13+
183.1168	56	C14H15+
185.0961	25	C13H13O+
185.1324	77	C14H17+
187.1117	108	C13H15O+
187.1481	38	C14H19+
189.1274	100	C13H17O+
191.1063	6	C12H15O2+
191.143	9	C13H19O+
193.1017	9	C15H13+
193.1223	98	C12H17O2+
195.1169	39	C15H15+
195.138	15	C12H19O2+
197.0961	15	C14H13O+
197.1325	79	C15H17+
199.1117	36	C14H15O+
199.1481	19	C15H19+
201.1273	57	C14H17O+
201.1638	11	C15H21+
203.1064	19	C13H15O2+
203.143	25	C14H19O+
205.1015	2	C16H13+
205.1223	19	C13H17O2+
207.1169	16	C16H15+
207.1379	24	C13H19O2+
209.0968	3	C15H13O+
209.1326	58	C16H17+
211.1118	30	C15H15O+
211.1482	98	C16H19+
213.1273	41	C15H17O+
213.1638	19	C16H21+
215.1431	59	C15H19O+
217.1224	8	C14H17O2+
217.1591	3	C15H21O+
219.1169	12	C17H15+
219.138	23	C14H19O2+
220.1245	1	C17H16+
221.1324	15	C17H17+
221.1537	10	C14H21O2+
223.1117	12	C16H15O+
223.1481	76	C17H19+
225.1274	26	C16H17O+
225.1637	35	C17H21+
227.143	53	C16H19O+
227.1792	6	C17H23+
229.1224	24	C15H17O2+
229.1587	142	C16H21O+
231.1379	9	C15H19O2+
233.1326	19	C18H17+
233.1536	39	C15H21O2+
234.1399	1	C18H18+
235.1482	59	C18H19+
237.1274	32	C17H17O+
237.1638	22	C18H21+
239.143	51	C17H19O+
239.1795	5	C18H23+
241.1587	107	C17H21O+
241.1945	6	C18H25+
243.1382	9	C16H19O2+
243.1745	42	C17H23O+
245.1536	42	C16H21O2+
246.1405	4	C19H18+
247.1485	16	C19H19+
247.169	30	C16H23O2+
249.1636	33	C19H21+
250.1713	4	C19H22+
251.1431	34	C18H19O+
251.1795	90	C19H23+
252.1869	1	C19H24+
253.1587	135	C18H21O+
253.1949	41	C19H25+
255.1379	16	C17H19O2+
255.1744	38	C18H23O+
257.1534	6	C17H21O2+
259.1694	15	C17H23O2+
260.156	8	C20H20+
263.1793	30	C20H23+
265.1587	59	C19H21O+
265.1951	90	C20H25+
267.1743	81	C19H23O+
268.1816	1	C19H24O+
269.154	13	C18H21O2+
269.19	213	C19H25O+
271.1692	58	C18H23O2+
271.2055	60	C19H27O+
275.1793	112	C21H23+
278.1661	4	C20H22O+
281.19	100	C20H25O+
283.1695	35	C19H23O2+
283.2055	60	C20H27O+
285.185	18	C19H25O2+
287.2004	14	C19H27O2+
293.19	433	C21H25O+
299.2006	34	C20H27O2+
301.1795	14	C19H25O3+
301.2162	5	C20H29O2+
303.1949	10	C19H27O3+
311.2005	502	C21H27O2+
314.187	3	C20H26O3+
329.2112	999	C21H29O3+
347.2218	805	C21H31O4+
