Mass spectrum: Ethofumesate-2-hydroxy; LC-ESI-QFT; MS2; CE: 15%; R=17500; [M-H]-
Name: Ethofumesate-2-hydroxy
Name: (2-hydroxy-3,3-dimethyl-2H-1-benzofuran-5-yl) methanesulfonate
Formula: C11H14O5S
Exact mass: 258.0562
SMILES: CC1(C)C(O)OC2=CC=C(OS(C)(=O)=O)C=C12
InChI: InChI=1S/C11H14O5S/c1-11(2)8-6-7(16-17(3,13)14)4-5-9(8)15-10(11)12/h4-6,10,12H,1-3H3
Instrument: Q Exactive Plus Orbitrap Thermo Scientific
Instrument type: LC-ESI-QFT
Ms type: MS2
Ion mode: NEGATIVE
Ionization: ESI
Fragmentation mode: HCD
Collision energy: 15 % (nominal)
Resolution: 17500
Column name: XBridge C18 3.5um, 2.1x50mm, Waters
Retention time: 5.436 min
Base peak: 257.0489
Precursor m/z: 257.0489
Precursor type: [M-H]-
m/z	relative intensity	assigned
63.9625	95	O2S-
78.986	999	CH3O2S-
178.0636	33	C10H10O3-
257.0502	6	C11H13O5S-
