Mass spectrum: Chlorthalidone; LC-ESI-QFT; MS2; CE: 60; R=35000; [M+H]+
Name: Chlorthalidone
Name: Chlortalidone
Name: 2-chloranyl-5-(1-oxidanyl-3-oxidanylidene-2H-isoindol-1-yl)benzenesulfonamide
Formula: C14H11ClN2O4S
Exact mass: 338.01281
SMILES: O=S(=O)(N)c1c(Cl)ccc(c1)C2(O)c3ccccc3C(=O)N2
InChI: InChI=1S/C14H11ClN2O4S/c15-11-6-5-8(7-12(11)22(16,20)21)14(19)10-4-2-1-3-9(10)13(18)17-14/h1-7,19H,(H,17,18)(H2,16,20,21)
Instrument: Q Exactive Orbitrap Thermo Scientific
Instrument type: LC-ESI-QFT
Ms type: MS2
Ion mode: POSITIVE
Ionization: ESI
Fragmentation mode: HCD
Collision energy: 60 (nominal)
Resolution: 35000
Column name: XBridge C18 3.5um, 2.1x50mm, Waters
Retention time: 5.6 min
Base peak: 321.9937
Precursor m/z: 339.0201
Precursor type: [M+H]+
m/z	relative intensity	assigned
63.9852	8	H2NOS+
77.0384	1	C6H5+
79.9801	323	H2NO2S+
95.0493	1	C6H7O+
97.9906	1	H4NO3S+
105.0335	41	C7H5O+
115.0541	1	C9H7+
126.0464	23	C10H6+
127.0542	3	C10H7+
130.0288	9	C8H4NO+
138.9945	3	C7H4ClO+
139.0541	21	C11H7+
140.0495	1	C10H6N+
143.0494	3	C10H7O+
144.0081	13	C8H2NO2+
144.057	1	C10H8O+
145.0649	3	C10H9O+
148.0393	43	C8H6NO2+
149.039	1	C12H5+
150.0463	33	C12H6+
151.0543	20	C12H7+
152.0621	114	C12H8+
153.0335	24	C11H5O+
154.0413	1	C11H6O+
154.9894	1	C7H4ClO2+
155.0603	6	C10H7N2+
161.0153	95	C10H6Cl+
166.0655	5	C12H8N+
167.0492	34	C12H7O+
167.073	9	C12H9N+
168.057	21	C12H8O+
169.0645	6	C12H9O+
175.0307	6	C11H8Cl+
177.0574	9	C13H7N+
179.026	20	C10H8ClO+
179.0492	19	C13H7O+
179.9846	3	C8H3ClNO2+
180.0571	12	C13H8O+
182.0363	20	C12H6O2+
183.0442	2	C12H7O2+
185.0154	396	C12H6Cl+
186.0231	24	C12H7Cl+
187.0308	12	C12H8Cl+
189.0103	61	C11H6ClO+
189.0214	58	C10H6ClN2+
194.06	6	C13H8NO+
195.0442	35	C13H7O2+
195.068	15	C13H9NO+
196.0518	25	C13H8O2+
197.0598	24	C13H9O2+
201.0104	1	C12H6ClO+
203.0258	92	C12H8ClO+
207.0444	42	C11H10ClNO+
207.0555	11	C13H7N2O+
213.0105	159	C13H6ClO+
213.0213	29	C12H6ClN2+
214.018	40	C13H7ClO+
215.0256	10	C13H8ClO+
217.0058	2	C12H6ClO2+
222.055	22	C14H8NO2+
223.0403	6	C11H10ClNO2+
223.0628	90	C14H9NO2+
224.047	19	C14H8O3+
226.05	1	C13H8NO3+
229.0054	3	C13H6ClO2+
230.0367	4	C13H9ClNO+
231.0209	251	C13H8ClO2+
238.0505	4	C11H11ClN2O2+
240.0113	3	C13H6NO2S+
240.0219	3	C14H7ClNO+
241.0054	549	C14H6ClO2+
241.0164	165	C13H6ClN2O+
242.013	24	C6H11ClN2O4S+
243.0208	999	C14H8ClO2+
258.0318	54	C14H9ClNO2+
259.0158	125	C14H8ClO3+
269.0122	3	C14H6ClN2O2+
274.0026	10	C14H7ClO4+
303.9829	3	C14H7ClNO3S+
304.967	38	C14H6ClO4S+
321.9937	74	C14H9ClNO4S+
