Mass spectrum: Cyprodinil; LC-ESI-ITFT; MS2; CE: 75%; R=15000; [M+H]+
Name: Cyprodinil
Name: (4-cyclopropyl-6-methyl-pyrimidin-2-yl)-phenyl-amine
Formula: C14H15N3
Exact mass: 225.1260
SMILES: c1ccccc1Nc1nc(C2CC2)cc(C)n1
InChI: InChI=1S/C14H15N3/c1-10-9-13(11-7-8-11)17-14(15-10)16-12-5-3-2-4-6-12/h2-6,9,11H,7-8H2,1H3,(H,15,16,17)
Instrument: LTQ Orbitrap XL Thermo Scientific
Instrument type: LC-ESI-ITFT
Ms type: MS2
Ion mode: POSITIVE
Ionization: ESI
Fragmentation mode: HCD
Collision energy: 75 % (nominal)
Resolution: 15000
Column name: XBridge C18 3.5um, 2.1x50mm, Waters
Retention time: 9.4 min
Base peak: 226.1338
Precursor m/z: 226.1339
Precursor type: [M+H]+
m/z	relative intensity	assigned
65.0386	30	C5H5+
67.0417	3	C4H5N+
67.0543	27	C5H7+
68.0495	14	C4H6N+
77.0386	30	C6H5+
79.0543	40	C6H7+
80.0495	23	C5H6N+
81.0699	30	C6H9+
82.0652	24	C5H8N+
83.0605	5	C4H7N2+
84.0809	6	C5H10N+
91.0543	101	C7H7+
92.0495	77	C6H6N+
92.0621	14	C7H8+
93.0574	237	C6H7N+
94.0652	23	C6H8N+
95.0491	2	C6H7O+
104.0494	12	C7H6N+
105.0447	11	C6H5N2+
106.0652	131	C7H8N+
107.0604	7	C6H7N2+
107.073	11	C7H9N+
108.0683	30	C6H8N2+
108.0808	297	C7H10N+
109.0761	19	C6H9N2+
109.0885	9	C7H11N+
110.0599	5	C6H8NO+
115.0543	5	C9H7+
116.0495	36	C8H6N+
117.0447	4	C7H5N2+
117.0573	25	C8H7N+
117.0697	4	C9H9+
118.0526	87	C7H6N2+
118.0652	44	C8H8N+
119.0604	122	C7H7N2+
123.0917	16	C7H11N2+
124.0758	11	C7H10NO+
130.0653	4	C9H8N+
131.0604	37	C8H7N2+
132.0683	55	C8H8N2+
133.0761	154	C8H9N2+
134.0602	8	C8H8NO+
140.0491	3	C10H6N+
141.0704	3	C11H9+
142.0651	21	C10H8N+
143.0604	51	C9H7N2+
143.0729	4	C10H9N+
144.0558	4	C8H6N3+
144.0808	81	C10H10N+
145.0761	29	C9H9N2+
148.087	3	C8H10N3+
149.0708	5	C8H9N2O+
151.0865	3	C8H11N2O+
154.0653	4	C11H8N+
156.0681	3	C10H8N2+
157.0761	7	C10H9N2+
158.0961	7	C11H12N+
159.0917	39	C10H11N2+
165.0704	5	C13H9+
167.0729	22	C12H9N+
168.0681	13	C11H8N2+
168.0809	30	C12H10N+
169.0763	16	C11H9N2+
170.0843	5	C11H10N2+
171.0921	5	C11H11N2+
181.0762	7	C12H9N2+
182.084	10	C12H10N2+
182.0961	8	C13H12N+
183.0788	10	C11H9N3+
183.0918	17	C12H11N2+
184.0871	55	C11H10N3+
185.1075	44	C12H13N2+
191.0731	3	C14H9N+
193.076	22	C13H9N2+
193.0882	6	C14H11N+
194.0838	60	C13H10N2+
195.0916	3	C13H11N2+
196.0869	6	C12H10N3+
197.095	11	C12H11N3+
198.1025	17	C12H12N3+
199.1104	7	C12H13N3+
199.1225	4	C13H15N2+
207.0917	21	C14H11N2+
208.0996	19	C14H12N2+
209.1073	86	C14H13N2+
210.1026	104	C13H12N3+
211.1105	23	C13H13N3+
224.1181	26	C14H14N3+
226.1341	999	C14H16N3+
