Mass spectrum: Simvastatin; LC-ESI-QFT; MS2; CE: 15; R=35000; [M+H]+
Name: Simvastatin
Name: (1S,3R,7S,8S,8aR)-8-{2-[(2R,4R)-4-hydroxy-6-oxotetrahydro-2H-pyran-2-yl]ethyl}-3,7-dimethyl-1,2,3,7,8,8a-hexahydronaphthalen-1-yl 2,2-dimethylbutanoate
Name: 2,2-dimethylbutanoic acid [(1S,3R,7S,8S,8aR)-8-[2-[(2R,4R)-4-hydroxy-6-oxo-2-oxanyl]ethyl]-3,7-dimethyl-1,2,3,7,8,8a-hexahydronaphthalen-1-yl] ester
Formula: C25H38O5
Exact mass: 418.27192
SMILES: O=C(O[C@@H]1[C@H]3C(=C/[C@H](C)C1)\C=C/[C@@H]([C@@H]3CC[C@H]2OC(=O)C[C@H](O)C2)C)C(C)(C)CC
InChI: InChI=1S/C25H38O5/c1-6-25(4,5)24(28)30-21-12-15(2)11-17-8-7-16(3)20(23(17)21)10-9-19-13-18(26)14-22(27)29-19/h7-8,11,15-16,18-21,23,26H,6,9-10,12-14H2,1-5H3/t15-,16-,18+,19+,20-,21-,23-/m0/s1
Instrument: Q Exactive Orbitrap Thermo Scientific
Instrument type: LC-ESI-QFT
Ms type: MS2
Ion mode: POSITIVE
Ionization: ESI
Fragmentation mode: HCD
Collision energy: 15 (nominal)
Resolution: 35000
Column name: XBridge C18 3.5um, 2.1x50mm, Waters
Retention time: 16.0 min
Base peak: 436.3049
Precursor m/z: 419.2792
Precursor type: [M+H]+
m/z	relative intensity	assigned
69.0696	1	C5H9+
71.0854	6	C5H11+
79.0541	38	C6H7+
81.0697	20	C6H9+
83.049	15	C5H7O+
83.0853	1	C6H11+
85.0648	2	C5H9O+
89.0232	1	C3H5O3+
95.0854	3	C7H11+
97.0647	14	C6H9O+
99.0803	3	C6H11O+
101.0595	1	C5H9O2+
105.0697	7	C8H9+
107.049	30	C7H7O+
107.0854	29	C8H11+
109.1013	1	C8H13+
111.0802	3	C7H11O+
119.0852	3	C9H11+
121.1009	8	C9H13+
125.0595	44	C7H9O2+
127.0751	6	C7H11O2+
131.0853	16	C10H11+
133.1009	6	C10H13+
143.0701	129	C7H11O3+
143.0851	10	C11H11+
145.101	30	C11H13+
147.1167	3	C11H15+
157.1009	23	C12H13+
159.1166	48	C12H15+
161.1324	3	C12H17+
163.1111	1	C11H15O+
169.1007	18	C13H13+
171.1166	32	C13H15+
173.1322	363	C13H17+
183.1169	6	C14H15+
185.1322	12	C14H17+
187.1115	3	C13H15O+
189.091	7	C12H13O2+
191.1066	21	C12H15O2+
197.1323	8	C15H17+
199.1478	999	C15H19+
201.1634	170	C15H21+
203.1066	3	C13H15O2+
205.1219	11	C13H17O2+
207.1164	2	C16H15+
209.117	25	C12H17O3+
211.1116	3	C15H15O+
211.1477	10	C16H19+
213.1628	2	C16H21+
215.1068	1	C14H15O2+
215.1794	10	C16H23+
217.1218	1	C14H17O2+
223.1478	72	C17H19+
225.1634	432	C17H21+
229.122	11	C15H17O2+
239.1791	112	C18H23+
241.1583	7	C17H21O+
243.1741	628	C17H23O+
249.1635	139	C19H21+
257.1536	9	C17H21O2+
267.1741	393	C19H23O+
285.1846	893	C19H25O2+
303.1951	309	C19H27O3+
