Mass spectrum: Phenthoate; LC-ESI-QFT; MS2; CE: 30%; R=17500; [M+H]+
Name: Phenthoate
Name: ethyl 2-dimethoxyphosphinothioylsulfanyl-2-phenylacetate
Formula: C12H17O4PS2
Exact mass: 320.0306
SMILES: CCOC(=O)C(C1=CC=CC=C1)SP(=S)(OC)OC
InChI: InChI=1S/C12H17O4PS2/c1-4-16-12(13)11(10-8-6-5-7-9-10)19-17(18,14-2)15-3/h5-9,11H,4H2,1-3H3
Instrument: Exploris 240 Orbitrap Thermo Scientific
Instrument type: LC-ESI-QFT
Ms type: MS2
Ion mode: POSITIVE
Ionization: ESI
Fragmentation mode: HCD
Collision energy: 30 % (nominal)
Resolution: 17500
Column name: XBridge C18 3.5um, 2.1x50mm, Waters
Retention time: 10.719 min
Base peak: 275.0712
Precursor m/z: 321.0379
Precursor type: [M+H]+
m/z	relative intensity	assigned
79.0545	32	C6H7+
91.0542	590	C7H7+
107.0491	293	C7H7O+
124.982	830	C2H6O2PS+
135.044	926	C8H7O2+
135.0803	607	C9H11O+
142.9925	175	C2H8O3PS+
151.0213	71	C8H7OS+
157.0086	44	C3H10O3PS+
163.0753	999	C10H11O2+
247.001	666	C9H12O2PS2+
