Mass spectrum: Florfenicol; LC-ESI-QFT; MS2; CE: 150; R=35000; [M-H]-
Name: Florfenicol
Name: 2,2-dichloro-N-{3-fluoro-1-hydroxy-1-[4-(methylsulfonyl)phenyl]propan-2-yl}acetamide
Name: 2,2-dichloro-N-[3-fluoro-1-hydroxy-1-(4-methylsulfonylphenyl)propan-2-yl]acetamide
Formula: C12H14Cl2FNO4S
Exact mass: 357.00046
SMILES: CS(=O)(=O)C1=CC=C(C=C1)C(C(CF)NC(=O)C(Cl)Cl)O
InChI: InChI=1S/C12H14Cl2FNO4S/c1-21(19,20)8-4-2-7(3-5-8)10(17)9(6-15)16-12(18)11(13)14/h2-5,9-11,17H,6H2,1H3,(H,16,18)
Instrument: Q Exactive Plus Orbitrap Thermo Scientific
Instrument type: LC-ESI-QFT
Ms type: MS2
Ion mode: NEGATIVE
Ionization: ESI
Fragmentation mode: HCD
Collision energy: 150 (nominal)
Resolution: 35000
Column name: XBridge C18 3.5um, 2.1x50mm, Waters
Retention time: 4.6 min
Base peak: 355.9929
Precursor m/z: 355.9932
Precursor type: [M-H]-
m/z	relative intensity	assigned
63.9625	999	O2S-
78.986	42	CH3O2S-
82.946	10	CHCl2-
91.019	2	C6H3O-
92.0268	8	C6H4O-
93.0346	11	C6H5O-
95.0139	3	C5H3O2-
105.0345	9	C7H5O-
108.0217	8	C6H4O2-
121.0295	82	C7H5O2-
