Mass spectrum: Proquinazid; LC-ESI-QFT; MS2; CE: 120; R=35000; [M+H]+
Name: Proquinazid
Name: 6-Iodo-2-propoxy-3-propylquinazolin-4-one
Formula: C14H17IN2O2
Exact mass: 372.03348
SMILES: CCCN1C(=O)C2=C(C=CC(=C2)I)N=C1OCCC
InChI: InChI=1S/C14H17IN2O2/c1-3-7-17-13(18)11-9-10(15)5-6-12(11)16-14(17)19-8-4-2/h5-6,9H,3-4,7-8H2,1-2H3
Instrument: Q Exactive Plus Orbitrap Thermo Scientific
Instrument type: LC-ESI-QFT
Ms type: MS2
Ion mode: POSITIVE
Ionization: ESI
Fragmentation mode: HCD
Collision energy: 120 (nominal)
Resolution: 35000
Column name: XBridge C18 3.5um, 2.1x50mm, Waters
Retention time: 16.6 min
Base peak: 373.0401
Precursor m/z: 373.0408
Precursor type: [M+H]+
m/z	relative intensity	assigned
50.0151	11	C4H2+
51.023	3	C4H3+
52.0183	8	C3H2N+
52.0309	6	C4H4+
53.0022	9	C3HO+
53.9975	4	C2NO+
54.0339	6	C3H4N+
54.0465	6	C4H6+
55.0179	1	C3H3O+
61.0073	45	C5H+
62.0152	620	C5H2+
63.0103	11	C4HN+
63.023	37	C5H3+
64.0182	15	C4H2N+
64.0308	38	C5H4+
65.0261	77	C4H3N+
66.0101	171	C4H2O+
67.0053	1	C3HNO+
67.0418	5	C4H5N+
67.9894	3	C3O2+
68.0131	6	C3H2NO+
68.9972	4	C3HO2+
69.9925	1	C2NO2+
74.0152	1	C6H2+
75.0102	2	C5HN+
75.0229	1	C6H3+
76.0182	8	C5H2N+
76.0308	3	C6H4+
77.0023	1	C5HO+
77.026	9	C5H3N+
78.0102	5	C5H2O+
78.0339	14	C5H4N+
79.0179	23	C5H3O+
79.0417	56	C5H5N+
80.0131	3	C4H2NO+
80.0257	3	C5H4O+
81.0335	3	C5H5O+
87.0105	3	C6HN+
88.0183	188	C6H2N+
89.0261	699	C6H3N+
90.0339	25	C6H4N+
91.0417	114	C6H5N+
92.0258	154	C6H4O+
93.0211	1	C5H3NO+
95.0366	1	C5H5NO+
101.026	10	C7H3N+
105.0449	1	C6H5N2+
106.0288	3	C6H4NO+
107.0366	20	C6H5NO+
109.0524	1	C6H7NO+
116.037	168	C7H4N2+
117.021	696	C7H3NO+
118.0525	3	C7H6N2+
119.0367	41	C7H5NO+
121.0157	5	C6H3NO2+
134.0476	3	C7H6N2O+
135.0316	16	C7H5NO2+
137.0473	20	C7H7NO2+
140.9197	45	CH2I+
144.032	22	C8H4N2O+
145.016	154	C8H3NO2+
146.0239	11	C8H4NO2+
148.003	1	C7H2NO3+
162.0425	22	C8H6N2O2+
164.9198	97	C3H2I+
176.022	14	C8H4N2O3+
177.0059	129	
188.9198	42	C5H2I+
189.915	10	C4HIN+
190.9354	3	C5H4I+
194.0325	10	
215.9308	999	C6H3IN+
217.9467	1	C6H5IN+
242.9415	6	C7H4IN2+
270.9368	5	C8H4IN2O+
271.9205	26	C8H3INO2+
