Mass spectrum: Morphine; LC-ESI-ITFT; MS2; CE: 45%; R=15000; [M+H]+
Name: Morphine
Name: (4R,4aR,7S,7aR,12bS)-3-methyl-2,4,4a,7,7a,13-hexahydro-1H-4,12-methanobenzofuro[3,2-e]isoquinoline-7,9-diol
Formula: C17H19NO3
Exact mass: 285.1364935
SMILES: CN1CC[C@]23[C@@H]4[C@H]1CC5=C2C(=C(C=C5)O)O[C@H]3[C@H](C=C4)O
InChI: InChI=1S/C17H19NO3/c1-18-7-6-17-10-3-5-13(20)16(17)21-15-12(19)4-2-9(14(15)17)8-11(10)18/h2-5,10-11,13,16,19-20H,6-8H2,1H3/t10-,11+,13-,16-,17-/m0/s1
Instrument: LTQ Orbitrap XL Thermo Scientific
Instrument type: LC-ESI-ITFT
Ms type: MS2
Ion mode: POSITIVE
Ionization: ESI
Fragmentation mode: HCD
Collision energy: 45 % (nominal)
Resolution: 15000
Column name: XBridge C18 3.5um, 2.1x50mm, Waters
Retention time: 1.1 min
Base peak: 286.1448
Precursor m/z: 286.1438
Precursor type: [M+H]+
m/z	relative intensity	assigned
58.0651	7	C3H8N+
121.0649	2	C8H9O+
145.0646	2	C10H9O+
147.0439	4	C9H7O2+
155.0856	4	C12H11+
162.0915	1	C10H12NO+
165.0696	3	C13H9+
173.0599	12	C11H9O2+
173.0958	2	C12H13O+
178.0859	2	C10H12NO2+
181.0649	4	C13H9O+
183.0805	13	C13H11O+
185.0598	17	C12H9O2+
187.0755	2	C12H11O2+
191.0856	4	C15H11+
193.0648	10	C14H9O+
193.1017	1	C15H13+
199.0753	5	C13H11O2+
200.083	1	C13H12O2+
201.0911	64	C13H13O2+
209.0599	10	C14H9O2+
209.096	2	C15H13O+
211.0755	26	C14H11O2+
219.0804	6	C16H11O+
221.0962	3	C16H13O+
227.0703	11	C14H11O3+
229.086	49	C14H13O3+
237.0913	7	C16H13O2+
239.1063	4	C16H15O2+
255.1008	3	C16H15O3+
268.1332	22	C17H18NO2+
286.1442	999	C17H20NO3+
