Mass spectrum: MCLW; LC-ESI-QFT; MS2; CE: 30%; R=17500; [M+H]+
Name: MCLW
Name: Microcystin LW
Name: (5R,8S,11R,12S,15S,18S,19S,22R)-15-(1H-indol-3-ylmethyl)-18-[(1E,3E,5S,6S)-6-methoxy-3,5-dimethyl-7-phenylhepta-1,3-dienyl]-1,5,12,19-tetramethyl-2-methylidene-8-(2-methylpropyl)-3,6,9,13,16,20,25-heptaoxo-1,4,7,10,14,17,21-heptazacyclopentacosane-11,22-dicarboxylic acid
Class: NA
Formula: C54H72N8O12
Exact mass: 1024.5270
SMILES: CO[C@@H](Cc1ccccc1)[C@@H](C)/C=C(C)/C=C/[C@@H]2NC(=O)[C@H](Cc3c[nH]c4ccccc34)NC(=O)[C@@H](C)[C@@H](NC(=O)[C@H](CC(C)C)NC(=O)[C@@H](C)NC(=O)C(=C)N(C)C(=O)CC[C@@H](NC(=O)[C@H]2C)C(O)=O)C(O)=O
InChI: InChI=1S/C54H72N8O12/c1-29(2)24-42-52(69)61-46(54(72)73)33(6)48(65)59-43(27-37-28-55-40-19-15-14-18-38(37)40)51(68)57-39(21-20-30(3)25-31(4)44(74-10)26-36-16-12-11-13-17-36)32(5)47(64)58-41(53(70)71)22-23-45(63)62(9)35(8)50(67)56-34(7)49(66)60-42/h11-21,25,28-29,31-34,39,41-44,46,55H,8,22-24,26-27H2,1-7,9-10H3,(H,56,67)(H,57,68)(H,58,64)(H,59,65)(H,60,66)(H,61,69)(H,70,71)(H,72,73)/b21-20+,30-25+/t31-,32-,33-,34+,39-,41+,42-,43-,44-,46+/m0/s1
Instrument: Q Exactive Plus Orbitrap Thermo Scientific
Instrument type: LC-ESI-QFT
Ms type: MS2
Ion mode: POSITIVE
Ionization: ESI
Fragmentation mode: HCD
Collision energy: 30 % (nominal)
Resolution: 17500
Column name: XBridge C18 3.5um, 2.1x50mm, Waters
Retention time: 11.761 min
Base peak: 164.9846
Precursor m/z: 1025.5342
Precursor type: [M+H]+
m/z	relative intensity	assigned
79.0543	16	C6H7+
82.0653	9	C5H8N+
84.0444	184	C4H6NO+
86.0964	627	C5H12N+
91.0542	101	C7H7+
93.0698	25	C7H9+
95.049	8	C6H7O+
95.0855	23	C7H11+
96.081	3	C6H10N+
99.0915	8	C5H11N2+
102.0548	22	C4H8NO2+
103.0542	45	C8H7+
105.0698	73	C8H9+
107.0855	433	C8H11+
110.06	8	C6H8NO+
111.055	5	C5H7N2O+
115.0544	12	C9H7+
117.0699	25	C9H9+
119.0855	23	C9H11+
121.0644	7	C8H9O+
121.1009	7	C9H13+
122.0964	4	C8H12N+
123.0803	10	C8H11O+
124.0756	20	C7H10NO+
124.112	111	C8H14N+
127.0865	265	C6H11N2O+
128.0617	3	C10H8+
129.0697	10	C10H9+
130.05	28	C5H8NO3+
130.0647	44	C9H8N+
131.0855	58	C10H11+
131.1179	9	C6H15N2O+
132.0807	35	C9H10N+
133.1008	19	C10H13+
135.0803	971	C9H11O+
135.1167	380	C10H15+
138.0548	132	C7H8NO2+
140.0703	12	C7H10NO2+
143.0855	71	C11H11+
145.1012	37	C11H13+
146.0963	8	C10H12N+
147.0767	19	C5H11N2O3+
147.1165	8	C11H15+
149.0711	11	C8H9N2O+
150.1278	8	C10H16N+
152.0705	22	C8H10NO2+
152.1069	4	C9H14NO+
155.0814	534	C7H11N2O2+
157.0608	105	C6H9N2O3+
157.1009	11	C12H13+
157.1334	97	C8H17N2O+
158.0841	6	C10H10N2+
159.0916	421	C10H11N2+
159.117	18	
161.096	69	C11H13O+
162.128	19	C11H16N+
163.1117	814	C11H15O+
165.091	8	C10H13O2+
167.0815	73	C8H11N2O2+
168.0656	12	C8H10NO3+
169.0755	18	C11H9N2+
170.0811	7	C8H12NO3+
171.117	17	C13H15+
171.1491	11	C9H19N2O+
173.0962	45	C12H13O+
175.1116	16	C12H15O+
178.1224	10	C11H16NO+
180.1377	7	C11H18NO+
181.101	15	C14H13+
181.1346	6	C10H17N2O+
182.0816	9	C9H12NO3+
183.1161	6	C14H15+
185.1095	7	H17N4O7+
185.1287	78	C9H17N2O2+
187.0726	3	
187.0867	93	C11H11N2O+
187.1115	28	C13H15O+
188.0705	11	C11H10NO2+
188.1428	4	C13H18N+
190.1228	20	C12H16NO+
191.106	4	C10H13N3O+
193.0989	6	H19NO10+
195.0767	202	C9H11N2O3+
195.1162	34	H21NO10+
196.0609	21	C9H10NO4+
198.0762	6	C9H12NO4+
200.1436	5	C14H18N+
204.1134	84	C11H14N3O+
205.0972	27	C11H13N2O2+
209.1306	81	H17N8O5+
213.0872	999	C9H13N2O4+
214.0711	9	C9H12NO5+
215.0821	20	C12H11N2O2+
218.1542	116	H22N6O7+
221.0917	13	C11H13N2O3+
222.1606	9	C12H20N3O+
223.1081	34	C11H15N2O3+
225.1268	15	CH23NO11+
226.1593	97	C2H22N6O6+
228.1387	15	CH20N6O7+
231.0766	15	C12H11N2O3+
232.1124	8	C3H16N6O6+
235.0865	9	C15H11N2O+
235.1076	5	C12H15N2O3+
235.1483	7	C18H19+
237.1016	9	
237.1249	95	H21N4O10+
237.1638	235	C18H21+
238.1194	7	C13H18O4+
239.0665	61	C10H11N2O5+
239.1032	8	C11H15N2O4+
240.1713	16	C12H22N3O2+
242.1292	34	H18N8O7+
243.1124	30	C14H15N2O2+
243.1345	91	C11H19N2O4+
244.1114	4	C3H20N2O10+
246.1492	220	CH22N6O8+
247.1487	27	C5H21N5O6+
248.1652	8	CH24N6O8+
250.1566	30	C15H22O3+
251.1026	29	C12H15N2O4+
253.0972	8	C15H13N2O2+
255.1137	5	CH17N7O8+
258.1855	210	C3H26N6O7+
259.181	18	C3H31O12+
260.1604	10	C11H22N3O4+
261.1391	6	C5H25O11+
264.1582	34	C13H20N4O2+
265.1588	173	C19H21O+
266.1152	23	H20N5O11+
268.1659	239	C13H22N3O3+
269.1133	35	C12H17N2O5+
270.1245	155	CH18N8O8+
271.1078	24	C15H15N2O3+
274.1432	32	C16H20NO3+
280.1086	11	C2H16N8O8+
281.0919	28	C16H13N2O3+
282.186	50	C5H26N6O7+
284.1245	23	C12H18N3O5+
285.1942	9	CH29N6O10+
286.1764	6	C13H24N3O4+
287.1496	10	H25N5O12+
287.1773	7	C5H27N4O9+
288.1346	865	CH20N8O9+
290.1397	13	C17H16N5+
292.154	88	C16H22NO4+
293.1134	49	C14H17N2O5+
294.1447	11	C14H20N3O4+
297.1345	8	C16H17N4O2+
297.1846	38	C20H25O2+
298.1189	214	C16H16N3O3+
298.1909	37	C3H30N4O11+
299.1031	99	C2H17N7O10+
303.2067	6	C18H27N2O2+
306.1857	7	C7H26N6O7+
310.1029	19	C13H16N3O6+
314.171	22	C14H24N3O5+
314.211	13	C5H34N2O12+
315.1452	87	C16H19N4O3+
316.1293	518	C16H18N3O4+
319.2011	24	C18H27N2O3+
320.1604	32	C16H22N3O4+
320.2011	32	C22H26NO+
322.14	20	C15H20N3O5+
326.1863	51	C19H24N3O2+
329.1858	100	C19H25N2O3+
331.2028	8	C5H29N7O9+
333.1558	196	C16H21N4O4+
334.1398	11	C16H20N3O5+
334.1763	7	C17H24N3O4+
338.1707	5	C16H24N3O5+
340.1505	11	C15H22N3O6+
341.1824	15	C15H25N4O5+
347.1965	209	C19H27N2O4+
348.1947	34	C21H24N4O+
349.1904	9	C7H31N3O12+
351.2025	54	C17H27N4O4+
357.18	21	C18H23N5O3+
366.2154	17	C5H32N7O11+
375.1914	764	C20H27N2O5+
379.1982	11	C18H27N4O5+
380.2216	10	C24H30NO3+
382.2127	4	C22H28N3O3+
383.2042	22	C16H27N6O5+
384.2295	57	C24H32O4+
387.1651	37	C18H27O9+
390.1813	11	C23H24N3O3+
395.1542	4	C29H19N2+
397.2081	468	C18H29N4O6+
399.1662	6	C20H23N4O5+
400.2229	25	C22H30N3O4+
401.2183	99	C21H29N4O4+
411.2028	44	C22H27N4O4+
418.1778	7	C12H28N5O11+
426.2298	4	C28H30N2O2+
428.2251	63	C17H30N7O6+
429.2136	66	C22H29N4O5+
431.2341	16	C15H35N4O10+
446.231	178	C26H30N4O3+
449.2437	17	C27H33N2O4+
454.2435	11	C22H30N8O3+
455.2275	14	C22H29N7O4+
462.2338	9	C21H36NO10+
463.2578	13	C26H33N5O3+
472.2551	113	C24H34N5O5+
477.2387	71	C28H33N2O5+
481.2666	5	C24H33N8O3+
499.2646	13	C24H39N2O9+
500.25	49	C39H32+
506.2375	10	C24H34N4O8+
509.2677	35	C18H37N8O9+
513.3079	22	C29H37N8O+
517.2769	9	C25H37N6O6+
518.3032	30	C19H44N5O11+
524.2499	12	C41H32+
537.2828	22	C30H39N3O6+
541.3021	10	C29H41N4O6+
552.2421	7	C25H36N4O10+
555.2932	30	C28H39N6O6+
582.3009	14	C26H42N6O9+
583.2883	69	C31H41N3O8+
621.3014	12	C44H37N4+
670.3451	31	C34H48N5O9+
828.4275	4	C41H60N6O12+
