Mass spectrum: Glycyrrhetinic Acid; LC-ESI-QFT; MS2; CE: 90; R=35000; [M-H]-
Name: Glycyrrhetinic Acid
Name: 18-beta-Glycyrrhetin acid
Name: (2S,4aS,6aR,6aS,6bR,8aR,10S,12aS,14bR)-10-hydroxy-2,4a,6a,6b,9,9,12a-heptamethyl-13-oxo-3,4,5,6,6a,7,8,8a,10,11,12,14b-dodecahydro-1H-picene-2-carboxylic acid
Formula: C30H46O4
Exact mass: 470.33961
SMILES: C[C@]1([C@H](CC[C@]2([C@H]1CC[C@@]3([C@@H]2C(=O)C=C4[C@]3(CC[C@@]5([C@H]4C[C@](CC5)(C(=O)O)C)C)C)C)C)O)C
InChI: InChI=1S/C30H46O4/c1-25(2)21-8-11-30(7)23(28(21,5)10-9-22(25)32)20(31)16-18-19-17-27(4,24(33)34)13-12-26(19,3)14-15-29(18,30)6/h16,19,21-23,32H,8-15,17H2,1-7H3,(H,33,34)/t19-,21-,22-,23+,26+,27-,28-,29+,30+/m0/s1
Instrument: Q Exactive Plus Orbitrap Thermo Scientific
Instrument type: LC-ESI-QFT
Ms type: MS2
Ion mode: NEGATIVE
Ionization: ESI
Fragmentation mode: HCD
Collision energy: 90 (nominal)
Resolution: 35000
Column name: XBridge C18 3.5um, 2.1x50mm, Waters
Retention time: 16.9 min
Base peak: 515.3377
Precursor m/z: 469.3323
Precursor type: [M-H]-
m/z	relative intensity	assigned
71.0504	114	C4H7O-
81.0344	9	C5H5O-
99.0452	10	C5H7O2-
107.0501	8	C7H7O-
137.0971	32	C9H13O-
145.0658	19	C10H9O-
147.0817	110	C10H11O-
156.0583	7	C11H8O-
170.0736	40	C12H10O-
171.0815	53	C12H11O-
172.0893	19	C12H12O-
173.0969	59	C12H13O-
183.0812	19	C13H11O-
184.0894	31	C13H12O-
185.0971	116	C13H13O-
197.0969	12	C14H13O-
198.1049	15	C14H14O-
199.113	42	C14H15O-
224.1208	15	C16H16O-
225.1283	44	C16H17O-
233.1543	10	C15H21O2-
237.1282	47	C17H17O-
239.1443	57	C17H19O-
253.16	82	C18H21O-
283.2069	9	C20H27O-
287.2009	10	C19H27O2-
307.2067	64	C22H27O-
309.1855	120	C21H25O2-
321.2219	18	C23H29O-
323.2015	91	C22H27O2-
323.2387	41	C23H31O-
324.2098	108	C22H28O2-
325.2174	999	C22H29O2-
337.2175	10	C23H29O2-
338.2253	11	C23H30O2-
339.2329	217	C23H31O2-
353.2472	36	C24H33O2-
355.2643	987	C24H35O2-
377.2481	52	C26H33O2-
377.2851	11	C27H37O-
379.2646	189	C26H35O2-
391.2639	18	C27H35O2-
393.2803	136	C27H37O2-
407.2954	10	C28H39O2-
409.3106	93	C28H41O2-
