Mass spectrum: Lenacil; LC-ESI-ITFT; MS2; CE: 75%; R=15000; [M+H]+
Name: Lenacil
Name: 3-cyclohexyl-1,5,6,7-tetrahydrocyclopenta[d]pyrimidine-2,4-dione
Formula: C13H18N2O2
Exact mass: 234.1368
SMILES: O=C1\C3=C(/NC(=O)N1C2CCCCC2)CCC3
InChI: InChI=1S/C13H18N2O2/c16-12-10-7-4-8-11(10)14-13(17)15(12)9-5-2-1-3-6-9/h9H,1-8H2,(H,14,17)
Instrument: LTQ Orbitrap XL Thermo Scientific
Instrument type: LC-ESI-ITFT
Ms type: MS2
Ion mode: POSITIVE
Ionization: ESI
Fragmentation mode: HCD
Collision energy: 75 % (nominal)
Resolution: 15000
Column name: XBridge C18 3.5um, 2.1x50mm, Waters
Retention time: 8.6 min
Base peak: 235.1446
Precursor m/z: 235.1441
Precursor type: [M+H]+
m/z	relative intensity	assigned
55.0542	8	C4H7+
65.0386	1	C5H5+
80.0495	3	C5H6N+
82.0652	56	C5H8N+
83.0855	11	C6H11+
108.0444	2	C6H6NO+
109.076	8	C6H9N2+
110.0601	92	C6H8NO+
125.0709	1	C6H9N2O+
135.0553	121	C7H7N2O+
136.0393	207	C7H6NO2+
151.05	1	C7H7N2O2+
153.0658	999	C7H9N2O2+
