Mass spectrum: Pyrimidifen; LC-ESI-QFT; MS2; CE: 90%; R=17500; [M+H]+
Name: Pyrimidifen
Name: 5-chloro-N-[2-[4-(2-ethoxyethyl)-2,3-dimethylphenoxy]ethyl]-6-ethylpyrimidin-4-amine
Formula: C20H28ClN3O2
Exact mass: 377.1870
SMILES: CCC1=C(C(=NC=N1)NCCOC2=C(C(=C(C=C2)CCOCC)C)C)Cl
InChI: InChI=1S/C20H28ClN3O2/c1-5-17-19(21)20(24-13-23-17)22-10-12-26-18-8-7-16(9-11-25-6-2)14(3)15(18)4/h7-8,13H,5-6,9-12H2,1-4H3,(H,22,23,24)
Instrument: Exploris 240 Orbitrap Thermo Scientific
Instrument type: LC-ESI-QFT
Ms type: MS2
Ion mode: POSITIVE
Ionization: ESI
Fragmentation mode: HCD
Collision energy: 90 % (nominal)
Resolution: 17500
Column name: XBridge C18 3.5um, 2.1x50mm, Waters
Retention time: 11.376 min
Base peak: 378.1939
Precursor m/z: 378.1943
Precursor type: [M+H]+
m/z	relative intensity	assigned
56.0496	26	C3H6N+
80.0494	22	C5H6N+
81.0447	47	C4H5N2+
85.9793	47	C3HClN+
86.9995	38	C4H4Cl+
90.0106	21	C3H5ClN+
91.0543	23	C7H7+
94.0652	31	C6H8N+
95.0604	132	C5H7N2+
102.0106	14	C4H5ClN+
103.0183	31	C4H6ClN+
105.0698	23	C8H9+
115.0057	602	C4H4ClN2+
121.0765	21	C7H9N2+
122.0715	77	C6H8N3+
129.0215	42	C5H6ClN2+
130.0293	802	C5H7ClN2+
133.0635	36	C7H7N3+
134.0713	60	C7H8N3+
135.0791	353	C7H9N3+
141.0216	35	C6H6ClN2+
142.0293	154	C6H7ClN2+
143.025	53	C5H6ClN3+
148.0874	101	C8H10N3+
150.1026	999	C8H12N3+
156.0455	17	C7H9ClN2+
158.0479	49	C6H9ClN3+
169.0401	465	C7H8ClN3+
184.0636	582	C8H11ClN3+
