Mass spectrum: Pencycuron; LC-ESI-QFT; MS2; CE: 90; R=35000; [M+H]+
Name: Pencycuron
Name: 1-(4-chlorobenzyl)-1-cyclopentyl-3-phenyl-urea
Formula: C19H21ClN2O
Exact mass: 328.13424
SMILES: Clc1ccc(cc1)CN(C(=O)Nc2ccccc2)C3CCCC3
InChI: InChI=1S/C19H21ClN2O/c20-16-12-10-15(11-13-16)14-22(18-8-4-5-9-18)19(23)21-17-6-2-1-3-7-17/h1-3,6-7,10-13,18H,4-5,8-9,14H2,(H,21,23)
Instrument: Q Exactive Orbitrap Thermo Scientific
Instrument type: LC-ESI-QFT
Ms type: MS2
Ion mode: POSITIVE
Ionization: ESI
Fragmentation mode: HCD
Collision energy: 90 (nominal)
Resolution: 35000
Column name: XBridge C18 3.5um, 2.1x50mm, Waters
Retention time: 13.9 min
Base peak: 329.1417
Precursor m/z: 329.1415
Precursor type: [M+H]+
m/z	relative intensity	assigned
62.0151	1	C5H2+
63.0228	5	C5H3+
65.0386	2	C5H5+
66.0464	1	C5H6+
67.0542	1	C5H7+
69.0699	4	C5H9+
72.9838	3	C3H2Cl+
77.0386	1	C6H5+
79.0542	1	C6H7+
84.0806	1	C5H10N+
89.0385	98	C7H5+
90.0463	20	C7H6+
92.0494	3	C6H6N+
93.0572	1	C6H7N+
94.0651	20	C6H8N+
95.0491	10	C6H7O+
98.9995	46	C5H4Cl+
105.0449	2	C6H5N2+
106.0651	10	C7H8N+
119.0602	2	C7H7N2+
125.0152	999	C7H6Cl+
132.0442	1	C8H6NO+
