Mass spectrum: 4-Formylaminoantipyrine; LC-ESI-ITFT; MS2; CE: 35%; R=30000; [M+H]+
Name: 4-Formylaminoantipyrine
Name: N-(1,5-dimethyl-3-oxidanylidene-2-phenyl-pyrazol-4-yl)methanamide
Formula: C12H13N3O2
Exact mass: 231.1008
SMILES: O=C2C(\NC=O)=C(\C)N(C)N2c1ccccc1
InChI: InChI=1S/C12H13N3O2/c1-9-11(13-8-16)12(17)15(14(9)2)10-6-4-3-5-7-10/h3-8H,1-2H3,(H,13,16)
Instrument: LTQ Orbitrap XL Thermo Scientific
Instrument type: LC-ESI-ITFT
Ms type: MS2
Ion mode: POSITIVE
Ionization: ESI
Fragmentation mode: CID
Collision energy: 35 % (nominal)
Resolution: 30000
Column name: XBridge C18 3.5um, 2.1x50mm, Waters
Retention time: 3.7 min
Base peak: 232.1088
Precursor m/z: 232.1081
Precursor type: [M+H]+
m/z	relative intensity	assigned
56.0495	6	C3H6N+
83.0604	6	C4H7N2+
85.0761	2	C4H9N2+
94.0651	7	C6H8N+
104.0494	3	C7H6N+
111.0553	3	C5H7N2O+
145.076	2	C9H9N2+
146.06	2	C9H8NO+
159.0917	60	C10H11N2+
173.071	24	C10H9N2O+
176.1183	2	C10H14N3+
187.0866	93	C11H11N2O+
189.0898	6	C10H11N3O+
199.0739	1	C11H9N3O+
204.1133	920	C11H14N3O+
214.0976	999	C12H12N3O+
