Mass spectrum: MCYR; LC-ESI-QFT; MS2; CE: 90%; R=17500; [M+H]+
Name: MCYR
Name: Microcystin YR
Name: (5R,8S,11R,12S,15S,18S,19S,22R)-15-[3-(diaminomethylideneamino)propyl]-8-[(4-hydroxyphenyl)methyl]-18-[(1E,3E,5S,6S)-6-methoxy-3,5-dimethyl-7-phenylhepta-1,3-dienyl]-1,5,12,19-tetramethyl-2-methylidene-3,6,9,13,16,20,25-heptaoxo-1,4,7,10,14,17,21-heptazacyclopentacosane-11,22-dicarboxylic acid
Class: NA
Formula: C52H72N10O13
Exact mass: 1044.5280
SMILES: CO[C@@H](Cc1ccccc1)[C@@H](C)\C=C(C)\C=C\[C@@H]2NC(=O)[C@H](CCCNC(N)=N)NC(=O)[C@@H](C)[C@@H](NC(=O)[C@H](Cc3ccc(O)cc3)NC(=O)[C@@H](C)NC(=O)C(=C)N(C)C(=O)CC[C@@H](NC(=O)[C@H]2C)C(O)=O)C(O)=O
InChI: InChI=1S/C52H72N10O13/c1-28(25-29(2)41(75-8)27-34-13-10-9-11-14-34)16-21-37-30(3)44(65)59-39(50(71)72)22-23-42(64)62(7)33(6)47(68)56-32(5)46(67)60-40(26-35-17-19-36(63)20-18-35)49(70)61-43(51(73)74)31(4)45(66)58-38(48(69)57-37)15-12-24-55-52(53)54/h9-11,13-14,16-21,25,29-32,37-41,43,63H,6,12,15,22-24,26-27H2,1-5,7-8H3,(H,56,68)(H,57,69)(H,58,66)(H,59,65)(H,60,67)(H,61,70)(H,71,72)(H,73,74)(H4,53,54,55)/b21-16+,28-25+/t29-,30-,31-,32+,37-,38-,39+,40-,41-,43+/m0/s1
Instrument: Q Exactive Plus Orbitrap Thermo Scientific
Instrument type: LC-ESI-QFT
Ms type: MS2
Ion mode: POSITIVE
Ionization: ESI
Fragmentation mode: HCD
Collision energy: 90 % (nominal)
Resolution: 17500
Column name: XBridge C18 3.5um, 2.1x50mm, Waters
Retention time: 8.039 min
Base peak: 523.2719
Precursor m/z: 1045.5353
Precursor type: [M+H]+
m/z	relative intensity	assigned
73.0635	3	C2H7N3+
74.0236	7	C2H4NO2+
75.0229	4	C6H3+
77.0385	62	C6H5+
78.0462	6	C6H6+
79.0542	160	C6H7+
80.0495	49	C5H6N+
81.0336	9	C5H5O+
81.0699	11	C6H9+
82.0288	26	C4H4NO+
82.0651	54	C5H8N+
84.0445	101	C4H6NO+
85.0286	13	C4H5O2+
85.076	11	C4H9N2+
86.0602	13	C4H8NO+
91.0543	765	C7H7+
92.062	11	C7H8+
93.0699	56	C7H9+
94.0411	4	C6H6O+
94.065	24	C6H8N+
95.0492	446	C6H7O+
95.0603	34	C5H7N2+
95.0857	4	
96.0446	15	C5H6NO+
96.0683	5	C5H8N2+
96.0808	6	C6H10N+
97.0761	45	C5H9N2+
98.0601	52	C5H8NO+
99.0191	19	C3H3N2O2+
99.0916	29	C5H11N2+
102.0464	38	C8H6+
103.0543	999	C8H7+
105.0448	147	C6H5N2+
105.0699	305	C8H9+
106.0524	7	C6H6N2+
107.0492	41	C7H7O+
107.0856	128	C8H11+
108.0683	6	C6H8N2+
108.0808	8	C7H10N+
109.0648	33	C7H9O+
109.0763	5	C6H9N2+
110.0601	10	C6H8NO+
112.0869	36	C5H10N3+
113.0232	22	C5H5O3+
113.0712	11	C5H9N2O+
114.1025	4	C5H12N3+
115.0543	143	C9H7+
115.0867	11	C5H11N2O+
116.062	9	C9H8+
117.0575	7	C8H7N+
117.0698	42	C9H9+
118.0651	12	C8H8N+
119.0492	70	C8H7O+
119.0857	18	C9H11+
120.0568	16	C8H8O+
120.0809	10	C8H10N+
121.0761	39	C7H9N2+
122.0595	5	C7H8NO+
123.0916	5	C7H11N2+
127.0867	94	C6H11N2O+
128.0621	17	C10H8+
129.0704	16	C10H9+
130.0498	5	C5H8NO3+
131.0856	13	C10H11+
135.0803	22	C9H11O+
136.0758	70	C8H10NO+
141.0665	14	C6H9N2O2+
144.0804	3	C10H10N+
145.0643	3	C10H9O+
149.0713	12	C8H9N2O+
165.0703	15	C13H9+
167.0817	23	C8H11N2O2+
170.0968	4	C12H12N+
178.0783	4	H12N5O6+
