Mass spectrum: Nateglinide; LC-ESI-QFT; MS2; CE: 45; R=35000; [M-H]-
Name: Nateglinide
Formula: C19H27NO3
Exact mass: 317.19909
SMILES: CC([C@H]1CC[C@@H](CC1)C(=O)N[C@@H](C(=O)O)CC2=CC=CC=C2)C
InChI: InChI=1S/C19H27NO3/c1-13(2)15-8-10-16(11-9-15)18(21)20-17(19(22)23)12-14-6-4-3-5-7-14/h3-7,13,15-17H,8-12H2,1-2H3,(H,20,21)(H,22,23)/t15-,16-,17-/m1/s1
Instrument: Q Exactive Orbitrap Thermo Scientific
Instrument type: LC-ESI-QFT
Ms type: MS2
Ion mode: NEGATIVE
Ionization: ESI
Fragmentation mode: HCD
Collision energy: 45 (nominal)
Resolution: 35000
Column name: XBridge C18 3.5um, 2.1x50mm, Waters
Retention time: 13.6 min
Base peak: 316.1918
Precursor m/z: 316.1918
Precursor type: [M-H]-
m/z	relative intensity	assigned
72.0091	49	C2H2NO2-
91.0553	999	C7H7-
103.0553	42	C8H7-
118.0662	6	C8H8N-
135.0451	2	C8H7O2-
147.0451	633	C9H7O2-
148.1132	3	C10H14N-
150.1285	3	C10H16N-
164.0717	601	C9H10NO2-
166.1236	31	C10H16NO-
168.1393	843	C10H18NO-
180.1394	53	C11H18NO-
194.1549	15	C12H20NO-
196.134	2	C11H18NO2-
255.1758	5	C18H23O-
270.1862	25	C18H24NO-
272.2021	15	C18H26NO-
316.1917	82	C19H26NO3-
