Mass spectrum: Ethaboxam; LC-ESI-QFT; MS2; CE: 45%; R=17500; [M+H]+
Name: Ethaboxam
Name: N-[cyano(thiophen-2-yl)methyl]-4-ethyl-2-(ethylamino)-1,3-thiazole-5-carboxamide
Formula: C14H16N4OS2
Exact mass: 320.0766
SMILES: CCC1=C(SC(=N1)NCC)C(=O)NC(C#N)C2=CC=CS2
InChI: InChI=1S/C14H16N4OS2/c1-3-9-12(21-14(18-9)16-4-2)13(19)17-10(8-15)11-6-5-7-20-11/h5-7,10H,3-4H2,1-2H3,(H,16,18)(H,17,19)
Instrument: Exploris 240 Orbitrap Thermo Scientific
Instrument type: LC-ESI-QFT
Ms type: MS2
Ion mode: POSITIVE
Ionization: ESI
Fragmentation mode: HCD
Collision energy: 45 % (nominal)
Resolution: 17500
Column name: XBridge C18 3.5um, 2.1x50mm, Waters
Retention time: 6.055 min
Base peak: 321.0838
Precursor m/z: 321.0838
Precursor type: [M+H]+
m/z	relative intensity	assigned
68.0495	142	C4H6N+
85.0106	10	C4H5S+
98.06	12	C5H8NO+
99.0139	12	C4H5NS+
112.0216	61	C5H6NS+
122.0058	32	C6H4NS+
126.0246	27	C5H6N2S+
144.0355	17	C5H8N2OS+
154.0199	14	C6H6N2OS+
154.0557	145	C7H10N2S+
155.0278	18	C6H7N2OS+
155.0637	162	C7H11N2S+
157.0431	48	C6H9N2OS+
157.0793	20	C7H13N2S+
171.0463	96	C6H9N3OS+
181.0436	18	C8H9N2OS+
183.0586	999	C8H11N2OS+
184.0536	108	C7H10N3OS+
198.0696	176	C8H12N3OS+
199.0774	434	C8H13N3OS+
200.0852	880	C8H14N3OS+
208.0255	19	C10H10NS2+
210.0691	39	C9H12N3OS+
237.0806	318	C10H13N4OS+
251.067	72	C12H15N2S2+
294.0728	174	C13H16N3OS2+
321.0841	289	C14H17N4OS2+
