Mass spectrum: Galaxolidone; LC-ESI-ITFT; MS2; CE: 75%; R=7500; [M+H]+
Name: Galaxolidone
Name: 1,3,4,6,7,8-Hexahydro-4,6,6,7,8,8-hexamethylcyclopenta[g]-2-benzopyran-1-on
Formula: C18H24O2
Exact mass: 272.1776
SMILES: CC2(C)c1cc3C(=O)OCC(C)c3cc1C(C)(C)C2C
InChI: InChI=1S/C18H24O2/c1-10-9-20-16(19)13-8-15-14(7-12(10)13)17(3,4)11(2)18(15,5)6/h7-8,10-11H,9H2,1-6H3
Instrument: LTQ Orbitrap XL Thermo Scientific
Instrument type: LC-ESI-ITFT
Ms type: MS2
Ion mode: POSITIVE
Ionization: ESI
Fragmentation mode: HCD
Collision energy: 75 % (nominal)
Resolution: 7500
Column name: XBridge C18 3.5um, 2.1x50mm, Waters
Retention time: 14.7 min
Base peak: 295.1677
Precursor m/z: 273.1849
Precursor type: [M+H]+
m/z	relative intensity	assigned
91.0542	11	C7H7+
115.0537	7	C9H7+
117.07	12	C9H9+
128.062	15	C10H8+
129.0699	153	C10H9+
131.085	12	C10H11+
133.1014	14	C10H13+
142.0777	52	C11H10+
143.0854	27	C11H11+
156.0932	8	C12H12+
157.0642	37	C11H9O+
157.1012	315	C12H13+
169.1015	12	C13H13+
170.1084	9	C13H14+
171.1166	21	C13H15+
175.1109	17	C12H15O+
182.1082	11	C14H14+
183.1167	34	C14H15+
185.0961	110	C13H13O+
197.1324	375	C15H17+
198.1404	27	C15H18+
210.1046	20	C15H14O+
211.1118	62	C15H15O+
212.1559	489	C16H20+
225.1273	999	C16H17O+
226.136	16	C16H18O+
227.1791	81	C17H23+
239.1424	8	C17H19O+
240.1507	330	C17H20O+
255.1742	231	C18H23O+
