Mass spectrum: Chlorthiazide; LC-ESI-QFT; MS2; CE: 75; R=35000; [M-H]-
Name: Chlorthiazide
Name: 6-chloro-1,1-dioxo-4H-1$l^{6},2,4-benzothiadiazine-7-sulfonamide
Formula: C7H6ClN3O4S2
Exact mass: 294.94883
SMILES: C1=C2C(=CC(=C1Cl)S(=O)(=O)N)S(=O)(=O)NC=N2
InChI: InChI=1S/C7H6ClN3O4S2/c8-4-1-5-7(2-6(4)16(9,12)13)17(14,15)11-3-10-5/h1-3H,(H,10,11)(H2,9,12,13)
Instrument: Q Exactive Plus Orbitrap Thermo Scientific
Instrument type: LC-ESI-QFT
Ms type: MS2
Ion mode: NEGATIVE
Ionization: ESI
Fragmentation mode: HCD
Collision energy: 75 (nominal)
Resolution: 35000
Column name: XBridge C18 3.5um, 2.1x50mm, Waters
Retention time: 1.9 min
Base peak: 293.9414
Precursor m/z: 293.9415
Precursor type: [M-H]-
m/z	relative intensity	assigned
50.0035	2	C3N-
57.9757	2	CNS-
61.9707	1	NOS-
63.0115	5	C4HN-
63.9625	2	O2S-
64.0067	4	C3N2-
65.0145	3	C3HN2-
65.9986	24	C3NO-
77.9655	15	NO2S-
79.0064	3	C4HNO-
81.9757	4	C3NS-
82.9836	3	C3HNS-
87.0113	3	C6HN-
89.0146	2	C5HN2-
89.9985	5	C5NO-
90.0223	22	C5H2N2-
91.0063	6	C5HNO-
91.0301	1	C5H3N2-
93.0094	2	C4HN2O-
94.9836	1	C4HNS-
95.0013	1	C4HNO2-
98.9881	2	C4H2ClN-
102.0224	1	C6H2N2-
106.0173	2	C5H2N2O-
113.0146	19	C7HN2-
114.0224	55	C7H2N2-
115.0302	42	C7H3N2-
118.0174	51	C6H2N2O-
119.0013	29	C6HNO2-
119.0251	15	C6H3N2O-
120.0092	16	C6H2NO2-
121.9944	4	C5H2N2S-
122.9785	1	C5HNOS-
122.9882	11	C6H2ClN-
125.9991	5	C5H3ClN2-
126.9831	21	C5H2ClNO-
129.0333	5	C7H3N3-
130.0173	23	C7H2N2O-
134.0122	4	C6H2N2O2-
137.9991	1	C6H3ClN2-
138.9831	11	C6H2ClNO-
142.9782	3	C5H2ClNO2-
146.012	3	C7H2N2O2-
146.0361	8	C7H4N3O-
147.0201	5	C7H3N2O2-
148.9912	27	C7H2ClN2-
149.9991	17	C7H3ClN2-
151.0069	84	C7H4ClN2-
152.9862	11	C6H2ClN2O-
153.9844	1	C5H2N2O2S-
154.9781	25	C6H2ClNO2-
162.9502	5	C4H2ClNO2S-
165.9941	3	C7H3ClN2O-
167.0018	1	C7H4ClN2O-
170.973	2	C6H2ClNO3-
172.9882	1	C6H4ClNO3-
177.9843	27	C7H2N2O2S-
178.9922	538	C7H3N2O2S-
180.9812	3	C7H2ClN2O2-
181.9792	32	C6H2N2O3S-
182.987	51	C6H3N2O3S-
192.995	13	C7H3N3O2S-
201.9613	4	C6H3ClN2O2S-
210.982	9	C7H3N2O4S-
213.961	999	C7H3ClN2O2S-
214.9689	191	C7H4ClN2O2S-
216.9481	19	C6H2ClN2O3S-
229.9558	40	C7H3ClN2O3S-
293.9418	15	C7H5ClN3O4S2-
