Mass spectrum: Diazepam; LC-ESI-ITFT; MS2; CE: 75%; R=15000; [M+H]+
Name: Diazepam
Name: 7-chloranyl-1-methyl-5-phenyl-3H-1,4-benzodiazepin-2-one
Formula: C16H13ClN2O
Exact mass: 284.0716
SMILES: CN1C2=C(C=C(Cl)C=C2)C(=NCC1=O)C3=CC=CC=C3
InChI: InChI=1S/C16H13ClN2O/c1-19-14-8-7-12(17)9-13(14)16(18-10-15(19)20)11-5-3-2-4-6-11/h2-9H,10H2,1H3
Instrument: LTQ Orbitrap XL Thermo Scientific
Instrument type: LC-ESI-ITFT
Ms type: MS2
Ion mode: POSITIVE
Ionization: ESI
Fragmentation mode: HCD
Collision energy: 75 % (nominal)
Resolution: 15000
Column name: XBridge C18 3.5um, 2.1x50mm, Waters
Retention time: 10.1 min
Base peak: 285.0798
Precursor m/z: 285.0789
Precursor type: [M+H]+
m/z	relative intensity	assigned
58.0287	20	C2H4NO+
89.0384	7	C7H5+
91.0542	213	C7H7+
104.0495	30	C7H6N+
105.0334	19	C7H5O+
116.0494	69	C8H6N+
117.0573	105	C8H7N+
118.0651	74	C8H8N+
119.0729	62	C8H9N+
125.0152	121	C7H6Cl+
127.0311	9	C7H8Cl+
131.0606	10	C8H7N2+
138.0105	24	C7H5ClN+
138.9944	10	C7H4ClO+
139.0185	14	C7H6ClN+
140.0258	22	C7H7ClN+
141.034	26	C7H8ClN+
143.0604	62	C9H7N2+
144.0682	46	C9H8N2+
145.0763	18	C9H9N2+
147.0679	36	C9H9NO+
150.0106	45	C8H5ClN+
151.0187	10	C8H6ClN+
152.0262	27	C8H7ClN+
154.0418	774	C8H9ClN+
163.0051	10	C11HNO+
165.0215	14	C8H6ClN2+
165.0699	35	C13H9+
166.0779	13	C13H10+
167.0132	74	C8H6ClNO+
172.0631	125	C10H8N2O+
177.0214	40	C9H6ClN2+
179.037	110	C9H8ClN2+
180.0209	53	C9H7ClNO+
180.0809	29	C13H10N+
181.0886	8	C13H11N+
182.037	21	C9H9ClNO+
191.0729	30	C14H9N+
192.0806	42	C14H10N+
193.0887	999	C14H11N+
194.0964	52	C14H12N+
204.0807	82	C15H10N+
205.0758	9	C14H9N2+
205.0884	20	C15H11N+
206.0837	81	C14H10N2+
207.0917	116	C14H11N2+
208.0992	12	C14H12N2+
214.0418	8	C13H9ClN+
216.0577	45	C13H11ClN+
221.0843	23	C15H11NO+
221.1072	105	C15H13N2+
222.1151	429	C15H14N2+
226.042	12	C14H9ClN+
227.0497	97	C14H10ClN+
228.0574	172	C14H11ClN+
230.0729	17	C14H13ClN+
239.0366	11	C14H8ClN2+
240.058	15	C15H11ClN+
241.0527	319	C14H10ClN2+
242.0603	32	C14H11ClN2+
255.0684	94	C15H12ClN2+
257.0835	44	C15H14ClN2+
269.0474	14	C15H10ClN2O+
285.0793	36	C16H14ClN2O+
