Mass spectrum: Atrazine-2-hydroxy; LC-ESI-ITFT; MS2; CE: 35%; R=30000; [M+H]+
Name: Atrazine-2-hydroxy
Name: 2-Hydroxyatrazine
Name: 2-(ethylamino)-6-(isopropylamino)-1H-s-triazin-4-one
Formula: C8H15N5O
Exact mass: 197.1277
SMILES: c1(nc(nc(n1)O)NCC)NC(C)C
InChI: InChI=1S/C8H15N5O/c1-4-9-6-11-7(10-5(2)3)13-8(14)12-6/h5H,4H2,1-3H3,(H3,9,10,11,12,13,14)
Instrument: LTQ Orbitrap XL Thermo Scientific
Instrument type: LC-ESI-ITFT
Ms type: MS2
Ion mode: POSITIVE
Ionization: ESI
Fragmentation mode: CID
Collision energy: 35 % (nominal)
Resolution: 30000
Column name: XBridge C18 3.5um, 2.1x50mm, Waters
Retention time: 4.4 min
Base peak: 198.1353
Precursor m/z: 198.1349
Precursor type: [M+H]+
m/z	relative intensity	assigned
86.035	43	C2H4N3O+
97.0397	1	C4H5N2O+
113.0823	4	C4H9N4+
114.0663	75	C4H8N3O+
128.082	49	C5H10N3O+
141.0771	1	C5H9N4O+
156.0881	999	C5H10N5O+
170.1038	1	C6H12N5O+
198.1349	4	C8H16N5O+
