Mass spectrum: Pramoxine; LC-ESI-QFT; MS2; CE: 90; R=35000; [M+H]+
Name: Pramoxine
Name: 4-[3-(4-butoxyphenoxy)propyl]morpholine
Formula: C17H27NO3
Exact mass: 293.19909
SMILES: CCCCOC1=CC=C(C=C1)OCCCN2CCOCC2
InChI: InChI=1S/C17H27NO3/c1-2-3-12-20-16-5-7-17(8-6-16)21-13-4-9-18-10-14-19-15-11-18/h5-8H,2-4,9-15H2,1H3
Instrument: Q Exactive Plus Orbitrap Thermo Scientific
Instrument type: LC-ESI-QFT
Ms type: MS2
Ion mode: POSITIVE
Ionization: ESI
Fragmentation mode: HCD
Collision energy: 90 (nominal)
Resolution: 35000
Column name: XBridge C18 3.5um, 2.1x50mm, Waters
Retention time: 7.3 min
Base peak: 294.206
Precursor m/z: 294.2064
Precursor type: [M+H]+
m/z	relative intensity	assigned
53.0023	2	C3HO+
53.0386	2	C4H5+
54.0338	1	C3H4N+
55.0179	11	C3H3O+
55.0542	1	C4H7+
56.0495	180	C3H6N+
57.0573	5	C3H7N+
57.0699	8	C4H9+
58.0651	28	C3H8N+
65.0386	34	C5H5+
67.0542	49	C5H7+
68.0494	4	C4H6N+
68.9971	3	C3HO2+
69.0335	1	C4H5O+
69.0698	2	C5H9+
70.0651	214	C4H8N+
71.0728	1	C4H9N+
72.0807	95	C4H10N+
77.0385	4	C6H5+
79.0542	5	C6H7+
81.0335	9	C5H5O+
82.0651	5	C5H8N+
84.0807	9	C5H10N+
85.0523	3	C4H7NO+
86.06	85	C4H8NO+
88.0757	4	C4H10NO+
91.0543	1	C7H7+
93.0336	2	C6H5O+
95.0491	52	C6H7O+
98.0601	2	C5H8NO+
98.0964	6	C6H12N+
100.0756	999	C5H10NO+
102.0912	3	C5H12NO+
103.0541	1	C8H7+
105.0333	1	C7H5O+
105.0448	2	C6H5N2+
105.0698	5	C8H9+
107.0491	1	C7H7O+
109.0284	8	C6H5O2+
110.0362	7	C6H6O2+
111.044	17	C6H7O2+
121.0396	25	C6H5N2O+
123.044	103	C7H7O2+
128.107	15	C7H14NO+
151.0752	2	C9H11O2+
