Mass spectrum: Phenobarbital; LC-ESI-QFT; MS2; CE: 30; R=35000; [M+H]+
Name: Phenobarbital
Name: 5-ethyl-5-phenyl-1,3-diazinane-2,4,6-trione
Formula: C12H12N2O3
Exact mass: 232.08479
SMILES: CCC1(C(=O)NC(=O)NC1=O)C2=CC=CC=C2
InChI: InChI=1S/C12H12N2O3/c1-2-12(8-6-4-3-5-7-8)9(15)13-11(17)14-10(12)16/h3-7H,2H2,1H3,(H2,13,14,15,16,17)
Instrument: Q Exactive Plus Orbitrap Thermo Scientific
Instrument type: LC-ESI-QFT
Ms type: MS2
Ion mode: POSITIVE
Ionization: ESI
Fragmentation mode: HCD
Collision energy: 30 (nominal)
Resolution: 35000
Column name: XBridge C18 3.5um, 2.1x50mm, Waters
Retention time: 6.0 min
Base peak: 251.1845
Precursor m/z: 233.0921
Precursor type: [M+H]+
m/z	relative intensity	assigned
51.0227	2	C4H3+
55.0178	1	C3H3O+
55.0541	4	C4H7+
56.0494	2	C3H6N+
57.0334	31	C3H5O+
57.0698	13	C4H9+
59.0491	93	C3H7O+
61.0397	2	CH5N2O+
69.0335	2	C4H5O+
69.0697	10	C5H9+
71.049	3	C4H7O+
71.0853	2	C5H11+
73.0283	3	C3H5O2+
73.0647	2	C4H9O+
77.0384	2	C6H5+
79.0542	2	C6H7+
81.0697	10	C6H9+
83.049	2	C5H7O+
83.0854	10	C6H11+
84.0807	27	C5H10N+
87.0439	4	C4H7O2+
87.0552	3	C3H7N2O+
88.0391	3	C3H6NO2+
91.0541	59	C7H7+
93.0698	2	C7H9+
95.0489	3	C6H7O+
95.0855	8	C7H11+
97.0646	2	C6H9O+
98.0962	4	C6H12N+
99.044	17	C5H7O2+
99.0803	28	C6H11O+
101.0596	15	C5H9O2+
105.0334	214	C7H5O+
106.065	20	C7H8N+
107.0853	3	C8H11+
109.1013	8	C8H13+
111.044	2	C6H7O2+
115.0138	8	C3H3N2O3+
115.0752	4	C6H11O2+
117.0697	59	C9H9+
117.0911	4	C6H13O2+
119.0854	126	C9H11+
126.0912	51	C7H12NO+
127.0755	2	C7H11O2+
129.0698	3	C10H9+
131.0854	3	C10H11+
133.0516	4	C8H7NO+
134.0599	12	C8H8NO+
134.0963	38	C9H12N+
137.0959	2	C9H13O+
139.0181	3	C10H3O+
144.0806	43	C10H10N+
145.0647	82	C10H9O+
145.101	4	C11H13+
147.0802	26	C10H11O+
157.1011	1	C12H13+
159.0806	2	C11H11O+
162.0912	999	C10H12NO+
169.0968	16	C8H13N2O2+
172.0754	88	C11H10NO+
173.0959	10	C12H13O+
177.0657	453	C9H9N2O2+
188.0703	3	C11H10NO2+
189.0654	7	C10H9N2O2+
190.086	31	C11H12NO2+
205.0606	152	C10H9N2O3+
205.097	28	C11H13N2O2+
215.0813	46	C12H11N2O2+
233.0918	385	C12H13N2O3+
