Mass spectrum: Ethoprop; LC-ESI-QFT; MS2; CE: 30; R=35000; [M+H]+
Name: Ethoprop
Name: 1-[ethoxy(propylsulfanyl)phosphoryl]sulfanylpropane
Formula: C8H19O2PS2
Exact mass: 242.05641
SMILES: CCCSP(=O)(OCC)SCCC
InChI: InChI=1S/C8H19O2PS2/c1-4-7-12-11(9,10-6-3)13-8-5-2/h4-8H2,1-3H3
Instrument: Q Exactive Plus Orbitrap Thermo Scientific
Instrument type: LC-ESI-QFT
Ms type: MS2
Ion mode: POSITIVE
Ionization: ESI
Fragmentation mode: HCD
Collision energy: 30 (nominal)
Resolution: 35000
Column name: XBridge C18 3.5um, 2.1x50mm, Waters
Retention time: 11.5 min
Base peak: 243.0634
Precursor m/z: 243.0637
Precursor type: [M+H]+
m/z	relative intensity	assigned
53.0022	1	C3HO+
63.0264	3	C2H7S+
64.9787	3	H2O2P+
67.9892	1	C3O2+
77.0419	173	C3H9S+
96.9508	59	H2O2PS+
105.0734	9	C5H13S+
112.9279	4	H2OPS2+
114.9614	380	H4O3PS+
119.0891	3	C6H15S+
120.9873	6	C3H6OPS+
123.0205	2	C3H8O3P+
124.9822	39	C2H6O2PS+
128.9771	3	CH6O3PS+
129.9304	2	H3O2PS2+
130.9386	533	H4O2PS2+
138.9978	162	C3H8O2PS+
148.9491	2	H6O3PS2+
154.975	28	C3H8OPS2+
157.0085	5	C3H10O3PS+
158.9699	58	C2H8O2PS2+
167.0292	38	C5H12O2PS+
172.9856	999	C3H10O2PS2+
183.0066	2	C5H12OPS2+
185.0397	35	C5H14O3PS+
190.9962	1	C3H12O3PS2+
197.0223	2	C6H14OPS2+
201.0169	205	C5H14O2PS2+
215.0326	312	C6H16O2PS2+
243.064	73	C8H20O2PS2+
