Mass spectrum: Nicosulfuron-TP AUSN; LC-ESI-QFT; MS2; CE: 120%; R=17500; [M+H]+
Name: Nicosulfuron-TP AUSN
Name: 2-(diaminomethylidenecarbamoylsulfamoyl)-N,N-dimethylpyridine-3-carboxamide
Formula: C10H14N6O4S
Exact mass: 314.0797
SMILES: CN(C)C(=O)C1=CC=CN=C1S(=O)(=O)NC(=O)NC(N)=N
InChI: InChI=1S/C10H14N6O4S/c1-16(2)8(17)6-4-3-5-13-7(6)21(19,20)15-10(18)14-9(11)12/h3-5H,1-2H3,(H5,11,12,14,15,18)
Instrument: Q Exactive Plus Orbitrap Thermo Scientific
Instrument type: LC-ESI-QFT
Ms type: MS2
Ion mode: POSITIVE
Ionization: ESI
Fragmentation mode: HCD
Collision energy: 120 % (nominal)
Resolution: 17500
Column name: XBridge C18 3.5um, 2.1x50mm, Waters
Retention time: 1.371 min
Base peak: 315.087
Precursor m/z: 315.087
Precursor type: [M+H]+
m/z	relative intensity	assigned
50.0151	65	C4H2+
51.023	274	C4H3+
60.0556	42	CH6N3+
64.0182	19	C4H2N+
65.0386	21	C5H5+
69.0083	801	C2HN2O+
78.0338	999	C5H4N+
81.0447	12	C4H5N2+
82.0287	17	C4H4NO+
86.0349	134	C2H4N3O+
96.0444	95	C5H6NO+
106.0289	36	C6H4NO+
110.0597	3	C6H8NO+
