Mass spectrum: Dibucaine; LC-ESI-QFT; MS2; CE: 90; R=35000; [M+H]+
Name: Dibucaine
Name: 2-butoxy-N-[2-(diethylamino)ethyl]quinoline-4-carboxamide
Formula: C20H29N3O2
Exact mass: 343.22598
SMILES: CCCCOC1=NC2=CC=CC=C2C(=C1)C(=O)NCCN(CC)CC
InChI: InChI=1S/C20H29N3O2/c1-4-7-14-25-19-15-17(16-10-8-9-11-18(16)22-19)20(24)21-12-13-23(5-2)6-3/h8-11,15H,4-7,12-14H2,1-3H3,(H,21,24)
Instrument: Q Exactive Orbitrap Thermo Scientific
Instrument type: LC-ESI-QFT
Ms type: MS2
Ion mode: POSITIVE
Ionization: ESI
Fragmentation mode: HCD
Collision energy: 90 (nominal)
Resolution: 35000
Column name: XBridge C18 3.5um, 2.1x50mm, Waters
Retention time: 8.6 min
Base peak: 344.2337
Precursor m/z: 344.2333
Precursor type: [M+H]+
m/z	relative intensity	assigned
57.0699	8	C4H9+
70.0288	2	C3H4NO+
72.0808	10	C4H10N+
74.0964	7	C4H12N+
86.0964	1	C5H12N+
89.0386	47	C7H5+
91.0543	1	C7H7+
100.1121	8	C6H14N+
103.0542	2	C8H7+
115.0414	1	C8H5N+
115.0545	3	C9H7+
116.0495	999	C8H6N+
117.0572	3	C8H7N+
118.0652	4	C8H8N+
128.0495	14	C9H6N+
129.0447	1	C8H5N2+
130.0652	12	C9H8N+
132.0443	3	C8H6NO+
132.0808	1	C9H10N+
134.06	15	C8H8NO+
142.0653	4	C10H8N+
143.0365	3	C9H5NO+
143.0605	6	C9H7N2+
143.073	3	C10H9N+
144.0445	161	C9H6NO+
145.0524	9	C9H7NO+
146.06	11	C9H8NO+
149.0471	2	C8H7NO2+
153.0448	13	C10H5N2+
154.065	1	C11H8N+
155.0604	1	C10H7N2+
156.0808	1	C11H10N+
157.0888	2	C11H11N+
158.0603	3	C10H8NO+
159.068	2	C10H9NO+
159.0918	1	C10H11N2+
160.0757	5	C10H10NO+
162.0548	1	C9H8NO2+
167.073	2	C12H9N+
168.0808	1	C12H10N+
169.0759	2	C11H9N2+
170.06	6	C11H8NO+
171.0553	54	C10H7N2O+
172.0393	37	C10H6NO2+
177.042	2	C9H7NO3+
182.0967	1	C13H12N+
185.0711	1	C11H9N2O+
186.0789	2	C11H10N2O+
187.0867	4	C11H11N2O+
200.107	1	C13H14NO+
215.0817	13	C12H11N2O2+
