Mass spectrum: Eseroline; LC-ESI-QFT; MS2; CE: 150; R=35000; [M+H]+
Name: Eseroline
Name: 1,3a,8-Trimethyl-1,2,3,3a,8,8a-hexahydropyrrolo[2,3-b]indol-5-ol
Name: 3,4,8b-trimethyl-2,3a-dihydro-1H-pyrrolo[2,3-b]indol-7-ol
Formula: C13H18N2O
Exact mass: 218.14191
SMILES: CC12CCN(C1N(C3=C2C=C(C=C3)O)C)C
InChI: InChI=1S/C13H18N2O/c1-13-6-7-14(2)12(13)15(3)11-5-4-9(16)8-10(11)13/h4-5,8,12,16H,6-7H2,1-3H3
Instrument: Q Exactive Plus Orbitrap Thermo Scientific
Instrument type: LC-ESI-QFT
Ms type: MS2
Ion mode: POSITIVE
Ionization: ESI
Fragmentation mode: HCD
Collision energy: 150 (nominal)
Resolution: 35000
Column name: XBridge C18 3.5um, 2.1x50mm, Waters
Retention time: 2.4 min
Base peak: 164.9844
Precursor m/z: 219.1492
Precursor type: [M+H]+
m/z	relative intensity	assigned
50.0151	59	C4H2+
51.023	241	C4H3+
52.0308	10	C4H4+
53.0022	105	C3HO+
53.0386	275	C4H5+
55.0178	34	C3H3O+
55.0543	103	C4H7+
63.0229	46	C5H3+
65.0386	414	C5H5+
66.0465	25	C5H6+
67.0416	12	C4H5N+
67.0542	55	C5H7+
68.0131	14	C3H2NO+
75.0229	17	C6H3+
77.0385	155	C6H5+
78.0339	16	C5H4N+
78.0464	101	C6H6+
79.0542	303	C6H7+
80.0494	58	C5H6N+
81.0334	17	C5H5O+
81.0573	12	C5H7N+
81.0697	9	C6H9+
89.0387	111	C7H5+
90.0466	14	C7H6+
91.0543	999	C7H7+
92.0495	9	C6H6N+
93.0701	17	C7H9+
94.0654	11	C6H8N+
95.0492	515	C6H7O+
96.0444	19	C5H6NO+
97.0076	87	C8H+
102.0466	16	C8H6+
103.0542	206	C8H7+
104.0495	91	C7H6N+
105.0448	344	C6H5N2+
105.0699	122	C8H9+
106.0652	77	C7H8N+
107.0491	34	C7H7O+
115.0543	412	C9H7+
116.0496	38	C8H6N+
116.0622	39	C9H8+
117.0574	334	C8H7N+
117.0699	69	C9H9+
118.0652	361	C8H8N+
119.0491	10	C8H7O+
127.0542	13	C10H7+
128.0495	46	C9H6N+
128.0621	223	C10H8+
129.0699	83	C10H9+
130.0651	64	C9H8N+
131.0492	46	C9H7O+
131.0732	14	C9H9N+
131.0854	9	C10H11+
132.0445	19	C8H6NO+
132.0809	55	C9H10N+
133.0521	36	C8H7NO+
134.0599	52	C8H8NO+
141.07	20	C11H9+
143.0731	14	C10H9N+
144.0442	13	C9H6NO+
144.0809	39	C10H10N+
145.0524	44	C9H7NO+
145.0649	20	C10H9O+
146.0601	665	C9H8NO+
147.0678	63	C9H9NO+
153.0703	12	C12H9+
154.0655	13	C11H8N+
155.0603	41	C10H7N2+
159.0682	33	C10H9NO+
160.0758	207	C10H10NO+
172.0756	19	C11H10NO+
