Mass spectrum: Pyrimidifen; LC-ESI-QFT; MS2; CE: 180%; R=17500; [M+H]+
Name: Pyrimidifen
Name: 5-chloro-N-[2-[4-(2-ethoxyethyl)-2,3-dimethylphenoxy]ethyl]-6-ethylpyrimidin-4-amine
Formula: C20H28ClN3O2
Exact mass: 377.1870
SMILES: CCC1=C(C(=NC=N1)NCCOC2=C(C(=C(C=C2)CCOCC)C)C)Cl
InChI: InChI=1S/C20H28ClN3O2/c1-5-17-19(21)20(24-13-23-17)22-10-12-26-18-8-7-16(9-11-25-6-2)14(3)15(18)4/h7-8,13H,5-6,9-12H2,1-4H3,(H,22,23,24)
Instrument: Exploris 240 Orbitrap Thermo Scientific
Instrument type: LC-ESI-QFT
Ms type: MS2
Ion mode: POSITIVE
Ionization: ESI
Fragmentation mode: HCD
Collision energy: 180 % (nominal)
Resolution: 17500
Column name: XBridge C18 3.5um, 2.1x50mm, Waters
Retention time: 11.376 min
Base peak: 378.1939
Precursor m/z: 378.1943
Precursor type: [M+H]+
m/z	relative intensity	assigned
51.023	103	C4H3+
52.0182	84	C3H2N+
53.0386	70	C4H5+
54.0338	135	C3H4N+
56.0495	132	C3H6N+
62.9994	14	C2H4Cl+
66.0338	53	C4H4N+
67.0292	52	C3H3N2+
67.0417	50	C4H5N+
68.0495	62	C4H6N+
74.9869	100	C2H2ClN+
77.0386	24	C6H5+
78.034	79	C5H4N+
80.0369	25	C4H4N2+
80.0495	167	C5H6N+
81.0448	72	C4H5N2+
85.9795	33	C3HClN+
86.9996	52	C4H4Cl+
87.9951	57	C3H3ClN+
90.0107	11	C3H5ClN+
91.0545	32	C7H7+
93.0448	120	C5H5N2+
95.0605	52	C5H7N2+
105.0451	41	C6H5N2+
106.0529	25	C6H6N2+
107.0606	86	C6H7N2+
115.0058	999	C4H4ClN2+
129.0215	27	C5H6ClN2+
133.0634	19	C7H7N3+
134.0713	357	C7H8N3+
135.0795	37	C7H9N3+
141.0214	47	C6H6ClN2+
