Mass spectrum: Nicotine; LC-ESI-QFT; MS2; CE: 75; R=35000; [M+H]+
Name: Nicotine
Name: 3-[(2S)-1-methylpyrrolidin-2-yl]pyridine
Name: 3-[(2S)-1-methyl-2-pyrrolidinyl]pyridine
Formula: C10H14N2
Exact mass: 162.11570
SMILES: n1cc(ccc1)[C@H]2N(C)CCC2
InChI: InChI=1S/C10H14N2/c1-12-7-3-5-10(12)9-4-2-6-11-8-9/h2,4,6,8,10H,3,5,7H2,1H3/t10-/m0/s1
Instrument: Q Exactive Orbitrap Thermo Scientific
Instrument type: LC-ESI-QFT
Ms type: MS2
Ion mode: POSITIVE
Ionization: ESI
Fragmentation mode: HCD
Collision energy: 75 (nominal)
Resolution: 35000
Column name: XBridge C18 3.5um, 2.1x50mm, Waters
Retention time: 0.9 min
Base peak: 163.1229
Precursor m/z: 163.123
Precursor type: [M+H]+
m/z	relative intensity	assigned
70.0651	2	C4H8N+
78.0336	1	C5H4N+
79.0542	2	C6H7+
80.0494	111	C5H6N+
82.0651	4	C5H8N+
84.0807	140	C5H10N+
89.0385	1	C7H5+
90.0463	2	C7H6+
91.0541	6	C7H7+
92.0494	21	C6H6N+
93.0571	4	C6H7N+
93.0697	1	C7H9+
94.065	7	C6H8N+
95.0491	3	C6H7O+
96.0443	5	C5H6NO+
103.0541	7	C8H7+
104.0494	2	C7H6N+
105.0698	13	C8H9+
106.065	280	C7H8N+
110.06	6	C6H8NO+
115.0541	44	C9H7+
117.0571	639	C8H7N+
118.065	7	C8H8N+
119.0727	1	C8H9N+
120.0806	143	C8H10N+
130.065	999	C9H8N+
131.0728	18	C9H9N+
132.0806	538	C9H10N+
134.0962	1	C9H12N+
163.1227	50	C10H15N2+
