Mass spectrum: N-Methyl-N-nitrosotoluene-4-sulphonamide (NTOLS); LC-ESI-QFT; MS2; CE: 90; R=70000; [M+H]+
Name: N-Methyl-N-nitrosotoluene-4-sulphonamide (NTOLS)
Name: N,4-dimethyl-N-nitrosobenzenesulfonamide
Formula: C8H10N2O3S
Exact mass: 214.04121
SMILES: O=S(=O)(c1ccc(cc1)C)N(N=O)C
InChI: InChI=1S/C8H10N2O3S/c1-7-3-5-8(6-4-7)14(12,13)10(2)9-11/h3-6H,1-2H3
Instrument: Q Exactive Plus Orbitrap Thermo Scientific
Instrument type: LC-ESI-QFT
Ms type: MS2
Ion mode: POSITIVE
Ionization: ESI
Fragmentation mode: HCD
Collision energy: 90 (nominal)
Resolution: 70000
Column name: XBridge C18 3.5um, 2.1x50mm, Waters
Retention time: 8.3 min
Base peak: 186.0583
Precursor m/z: 215.0485
Precursor type: [M+H]+
m/z	relative intensity	assigned
51.0229	101	C4H3+
53.0022	69	C3HO+
53.0386	229	C4H5+
55.0178	68	C3H3O+
55.0542	908	C4H7+
57.0335	23	C3H5O+
57.0698	36	C4H9+
59.0491	93	C3H7O+
65.0386	411	C5H5+
67.0543	268	C5H7+
68.997	34	C3HO2+
69.0335	18	C4H5O+
69.0699	116	C5H9+
71.049	20	C4H7O+
72.0443	20	C3H6NO+
77.0385	112	C6H5+
79.0542	206	C6H7+
81.0335	33	C5H5O+
81.0699	152	C6H9+
83.0491	168	C5H7O+
83.0855	26	C6H11+
88.0215	17	C3H6NS+
91.0543	371	C7H7+
93.0699	67	C7H9+
95.0492	999	C6H7O+
95.0855	79	C7H11+
96.0525	845	CH8N2O3+
97.0077	25	C8H+
103.0542	28	C8H7+
105.0448	226	C6H5N2+
105.0699	135	C8H9+
106.0481	282	CH6N4O2+
111.0441	174	C6H7O2+
121.0285	166	C7H5O2+
121.0396	71	C6H5N2O+
153.0573	45	C3H11N3O2S+
155.0116	16	C8HN3O+
171.0267	23	C5H5N3O4+
173.0222	295	C8H3N3O2+
175.0016	96	C7HN3O3+
179.0604	365	C4H11N4O2S+
198.05	91	C7H8N3O4+
