Mass spectrum: Chlorpyrifos-methyl; LC-ESI-ITFT; MS2; CE: 60%; R=7500; [M+H]+
Name: Chlorpyrifos-methyl
Name: dimethoxy-sulfanylidene-(3,5,6-trichloropyridin-2-yl)oxy-{5}-phosphane
Formula: C7H7Cl3NO3PS
Exact mass: 320.8950
SMILES: Clc1c(OP(=S)(OC)OC)nc(Cl)c(Cl)c1
InChI: InChI=1S/C7H7Cl3NO3PS/c1-12-15(16,13-2)14-7-5(9)3-4(8)6(10)11-7/h3H,1-2H3
Instrument: LTQ Orbitrap XL Thermo Scientific
Instrument type: LC-ESI-ITFT
Ms type: MS2
Ion mode: POSITIVE
Ionization: ESI
Fragmentation mode: HCD
Collision energy: 60 % (nominal)
Resolution: 7500
Column name: XBridge C18 3.5um, 2.1x50mm, Waters
Retention time: 14.0 min
Base peak: 321.9026
Precursor m/z: 321.9023
Precursor type: [M+H]+
m/z	relative intensity	assigned
62.0185	22	C2H6S+
78.9944	296	CH4O2P+
93.01	6	C2H6O2P+
97.0048	5	CH6O3P+
109.0049	17	C2H6O3P+
110.9665	14	CH4O2PS+
124.9821	999	C2H6O2PS+
127.0156	233	C3H8ClO3+
142.9926	955	C2H8O3PS+
150.918	6	Cl2H4NPS+
167.9175	9	C4HCl3N+
176.9196	20	C4HClNOPS+
179.9171	15	C5HCl3N+
197.9279	26	C5H3Cl3NO+
207.9387	4	C6H4Cl2NOS+
211.889	108	C5HCl3NS+
229.8998	78	C5H3Cl3NOS+
289.8805	85	C5H2Cl3N2O4P+
