Mass spectrum: Fluazifop-butyl; LC-ESI-QFT; MS2; CE: 15; R=35000; [M+H]+
Name: Fluazifop-butyl
Name: 2-[4-[[5-(trifluoromethyl)-2-pyridinyl]oxy]phenoxy]propanoic acid butyl ester
Formula: C19H20F3NO4
Exact mass: 383.13444
SMILES: O=C(OCCCC)C(Oc2ccc(Oc1ncc(cc1)C(F)(F)F)cc2)C
InChI: InChI=1S/C19H20F3NO4/c1-3-4-11-25-18(24)13(2)26-15-6-8-16(9-7-15)27-17-10-5-14(12-23-17)19(20,21)22/h5-10,12-13H,3-4,11H2,1-2H3
Instrument: Q Exactive Orbitrap Thermo Scientific
Instrument type: LC-ESI-QFT
Ms type: MS2
Ion mode: POSITIVE
Ionization: ESI
Fragmentation mode: HCD
Collision energy: 15 (nominal)
Resolution: 35000
Column name: XBridge C18 3.5um, 2.1x50mm, Waters
Retention time: 15.1 min
Base peak: 384.1426
Precursor m/z: 384.1417
Precursor type: [M+H]+
m/z	relative intensity	assigned
91.0543	1	C7H7+
254.0798	1	C13H11F3NO+
255.0506	1	C12H8F3NO2+
256.0588	1	C12H9F3NO2+
282.0742	214	C14H11F3NO2+
310.069	2	C15H11F3NO3+
328.0796	268	C15H13F3NO4+
384.1423	999	C19H21F3NO4+
