Mass spectrum: Midazolam; LC-ESI-QFT; MS2; CE: 30; R=35000; [M+H]+
Name: Midazolam
Name: 8-chloranyl-6-(2-fluorophenyl)-1-methyl-4H-imidazo[1,5-a][1,4]benzodiazepine
Formula: C18H13ClFN3
Exact mass: 325.07820
SMILES: CC1=NC=C2N1C3=C(C=C(C=C3)Cl)C(=NC2)C4=CC=CC=C4F
InChI: InChI=1S/C18H13ClFN3/c1-11-21-9-13-10-22-18(14-4-2-3-5-16(14)20)15-8-12(19)6-7-17(15)23(11)13/h2-9H,10H2,1H3
Instrument: Q Exactive Orbitrap Thermo Scientific
Instrument type: LC-ESI-QFT
Ms type: MS2
Ion mode: POSITIVE
Ionization: ESI
Fragmentation mode: HCD
Collision energy: 30 (nominal)
Resolution: 35000
Column name: XBridge C18 3.5um, 2.1x50mm, Waters
Retention time: 6.5 min
Base peak: 326.086
Precursor m/z: 326.0855
Precursor type: [M+H]+
m/z	relative intensity	assigned
209.064	1	C14H8FN+
244.0326	20	C14H8ClFN+
249.0821	4	C16H10FN2+
250.0903	1	C16H11FN2+
258.0482	2	C15H10ClFN+
285.0591	10	C16H11ClFN2+
290.109	20	C18H13FN3+
291.1168	66	C18H14FN3+
306.0796	1	C18H13ClN3+
309.0598	3	C18H11ClFN2+
325.0788	1	C18H13ClFN3+
326.0856	999	C18H14ClFN3+
