Mass spectrum: Aminopyrine; LC-ESI-ITFT; MS2; CE: 75%; R=7500; [M+H]+
Name: Aminopyrine
Name: 4-(dimethylamino)-1,5-dimethyl-2-phenyl-3-pyrazolin-3-one
Formula: C13H17N3O
Exact mass: 231.1372
SMILES: c(ccc1N(N(C=2C)C)C(=O)C2N(C)C)cc1
InChI: InChI=1S/C13H17N3O/c1-10-12(14(2)3)13(17)16(15(10)4)11-8-6-5-7-9-11/h5-9H,1-4H3
Instrument: LTQ Orbitrap XL Thermo Scientific
Instrument type: LC-ESI-ITFT
Ms type: MS2
Ion mode: POSITIVE
Ionization: ESI
Fragmentation mode: HCD
Collision energy: 75 % (nominal)
Resolution: 7500
Column name: XBridge C18 3.5um, 2.1x50mm, Waters
Retention time: 2.6 min
Base peak: 232.1453
Precursor m/z: 232.1444
Precursor type: [M+H]+
m/z	relative intensity	assigned
56.0495	381	C3H6N+
58.0652	507	C3H8N+
68.0494	8	C4H6N+
70.0652	303	C4H8N+
72.0809	278	C4H10N+
77.0385	11	C6H5+
82.0653	42	C5H8N+
83.0605	27	C4H7N2+
84.0683	9	C4H8N2+
84.0808	46	C5H10N+
96.0684	12	C5H8N2+
97.0761	999	C5H9N2+
98.0839	159	C5H10N2+
99.0917	16	C5H11N2+
106.0652	139	C7H8N+
111.0918	219	C6H11N2+
113.1074	56	C6H13N2+
118.0653	48	C8H8N+
123.0552	11	C6H7N2O+
132.0448	21	C8H6NO+
133.0761	12	C8H9N2+
149.1075	18	C9H13N2+
159.0918	25	C10H11N2+
199.0865	8	C12H11N2O+
