Mass spectrum: Atrazine-desethyl-2-hydroxy; LC-ESI-ITFT; MS2; CE: 15%; R=15000; [M-H]-
Name: Atrazine-desethyl-2-hydroxy
Name: 2-amino-6-(isopropylamino)-1H-s-triazin-4-one
Name: Prometon-Hydroxy-Desisopropyl
Formula: C6H11N5O
Exact mass: 169.0964
SMILES: n(c(nc1NC(C)C)O)c(n1)N
InChI: InChI=1S/C6H11N5O/c1-3(2)8-5-9-4(7)10-6(12)11-5/h3H,1-2H3,(H4,7,8,9,10,11,12)
Instrument: LTQ Orbitrap XL Thermo Scientific
Instrument type: LC-ESI-ITFT
Ms type: MS2
Ion mode: NEGATIVE
Ionization: ESI
Fragmentation mode: HCD
Collision energy: 15 % (nominal)
Resolution: 15000
Column name: XBridge C18 3.5um, 2.1x50mm, Waters
Retention time: 1.5 min
Base peak: 168.0898
Precursor m/z: 168.0891
Precursor type: [M-H]-
m/z	relative intensity	assigned
125.0836	29	C5H9N4-
168.0889	999	C6H10N5O-
