Mass spectrum: 1,3-Dimethylpteridine-2,4-dione; LC-ESI-QFT; MS2; CE: 75; R=35000; [M+H]+
Name: 1,3-Dimethylpteridine-2,4-dione
Name: 1,3-Dimethyllumazine
Formula: C8H8N4O2
Exact mass: 192.06473
SMILES: O=C2c1nccnc1N(C(=O)N2C)C
InChI: InChI=1S/C8H8N4O2/c1-11-6-5(9-3-4-10-6)7(13)12(2)8(11)14/h3-4H,1-2H3
Instrument: Q Exactive Orbitrap Thermo Scientific
Instrument type: LC-ESI-QFT
Ms type: MS2
Ion mode: POSITIVE
Ionization: ESI
Fragmentation mode: HCD
Collision energy: 75 (nominal)
Resolution: 35000
Column name: XBridge C18 3.5um, 2.1x50mm, Waters
Retention time: 3.6 min
Base peak: 193.072
Precursor m/z: 193.072
Precursor type: [M+H]+
m/z	relative intensity	assigned
52.0183	4	C3H2N+
54.0339	7	C3H4N+
56.0495	2	C3H6N+
58.0288	1	C2H4NO+
66.0338	29	C4H4N+
67.029	10	C3H3N2+
68.0131	3	C3H2NO+
68.0369	5	C3H4N2+
68.0495	8	C4H6N+
69.0447	6	C3H5N2+
78.0339	1	C5H4N+
79.029	9	C4H3N2+
80.0369	5	C4H4N2+
81.0447	503	C4H5N2+
82.04	5	C3H4N3+
82.0525	8	C4H6N2+
93.0447	238	C5H5N2+
94.0399	4	C4H4N3+
95.024	4	C4H3N2O+
95.0603	88	C5H7N2+
96.0556	1	C4H6N3+
97.0396	185	C4H5N2O+
105.0447	12	C6H5N2+
106.04	23	C5H4N3+
107.0478	14	C5H5N3+
108.0556	877	C5H6N3+
109.0396	2	C5H5N2O+
110.0349	19	C4H4N3O+
110.0711	5	C5H8N3+
111.0553	45	C5H7N2O+
118.0399	1	C6H4N3+
119.0475	1	C6H5N3+
120.0192	17	C5H2N3O+
120.0556	282	C6H6N3+
121.0507	6	C5H5N4+
121.0633	19	C6H7N3+
122.0712	263	C6H8N3+
123.0552	2	C6H7N2O+
126.0662	7	C5H8N3O+
127.05	2	C5H7N2O2+
132.0557	110	C7H6N3+
133.0508	102	C6H5N4+
134.0587	125	C6H6N4+
136.0505	105	C6H6N3O+
138.0663	2	C6H8N3O+
147.0667	9	C7H7N4+
148.0743	17	C7H8N4+
149.0822	269	C7H9N4+
150.0662	8	C7H8N3O+
151.0616	1	C6H7N4O+
152.0454	2	C6H6N3O2+
161.0458	5	C7H5N4O+
165.0533	13	C7H7N3O2+
179.0563	36	C7H7N4O2+
193.072	999	C8H9N4O2+
