Mass spectrum: 8-Hydroxy Mirtazapine; LC-ESI-QFT; MS2; CE: 75; R=35000; [M+H]+
Name: 8-Hydroxy Mirtazapine
Name: 2-Methyl-1,2,3,4,10,14b-hexahydropyrazino[2,1-a]pyrido[2,3-c][2]benzazepin-8-ol
Formula: C17H19N3O
Exact mass: 281.15281
SMILES: CN1CCN2C(C1)C3=CC=CC=C3CC4=CC(=CN=C42)O
InChI: InChI=1S/C17H19N3O/c1-19-6-7-20-16(11-19)15-5-3-2-4-12(15)8-13-9-14(21)10-18-17(13)20/h2-5,9-10,16,21H,6-8,11H2,1H3
Instrument: Q Exactive Plus Orbitrap Thermo Scientific
Instrument type: LC-ESI-QFT
Ms type: MS2
Ion mode: POSITIVE
Ionization: ESI
Fragmentation mode: HCD
Collision energy: 75 (nominal)
Resolution: 35000
Column name: XBridge C18 3.5um, 2.1x50mm, Waters
Retention time: 4.2 min
Base peak: 282.1591
Precursor m/z: 282.1601
Precursor type: [M+H]+
m/z	relative intensity	assigned
53.0386	11	C4H5+
55.0177	1	C3H3O+
56.0494	6	C3H6N+
57.0572	3	C3H7N+
58.0651	50	C3H8N+
68.013	35	C3H2NO+
70.065	39	C4H8N+
72.0807	294	C4H10N+
78.0337	2	C5H4N+
79.0542	1	C6H7+
80.0494	16	C5H6N+
82.0286	1	C4H4NO+
82.0525	2	C4H6N2+
82.065	1	C5H8N+
85.0759	2	C4H9N2+
91.0541	23	C7H7+
94.065	4	C6H8N+
96.0443	1	C5H6NO+
98.0837	2	C5H10N2+
103.0541	7	C8H7+
104.0494	2	C7H6N+
105.0446	14	C6H5N2+
105.0698	18	C8H9+
108.0443	13	C6H6NO+
109.0396	4	C5H5N2O+
110.0473	6	C5H6N2O+
111.0552	2	C5H7N2O+
112.0392	4	C5H6NO2+
115.0541	49	C9H7+
116.0494	23	C8H6N+
116.062	2	C9H8+
117.0573	3	C8H7N+
117.0697	13	C9H9+
118.0651	1	C8H8N+
119.0602	2	C7H7N2+
121.0759	2	C7H9N2+
122.06	2	C7H8NO+
123.0551	7	C6H7N2O+
124.063	1	C6H8N2O+
126.0549	84	C6H8NO2+
128.0619	4	C10H8+
129.0697	15	C10H9+
130.065	9	C9H8N+
131.0601	1	C8H7N2+
131.0728	18	C9H9N+
132.0443	1	C8H6NO+
132.0806	4	C9H10N+
133.0394	3	C7H5N2O+
133.0885	5	C9H11N+
134.0473	3	C7H6N2O+
134.0599	1	C8H8NO+
135.0551	4	C7H7N2O+
137.0709	2	C7H9N2O+
139.054	7	C11H7+
141.0698	14	C11H9+
142.065	4	C10H8N+
143.0728	3	C10H9N+
143.0853	1	C11H11+
144.0806	24	C10H10N+
145.0885	2	C10H11N+
146.0963	4	C10H12N+
147.0551	14	C8H7N2O+
148.063	1	C8H8N2O+
149.0709	11	C8H9N2O+
151.05	9	C7H7N2O2+
152.062	1	C12H8+
153.0697	6	C12H9+
154.065	4	C11H8N+
155.0603	1	C10H7N2+
155.0727	2	C11H9N+
156.0807	19	C11H10N+
157.0886	1	C11H11N+
158.0964	5	C11H12N+
166.065	203	C12H8N+
167.0728	31	C12H9N+
168.0686	3	C11H8N2+
168.0806	10	C12H10N+
169.0645	2	C12H9O+
169.0759	17	C11H9N2+
170.0962	8	C12H12N+
178.065	2	C13H8N+
179.0851	1	C14H11+
180.0805	9	C13H10N+
181.0648	1	C13H9O+
181.0758	11	C12H9N2+
181.0883	1	C13H11N+
182.0602	3	C12H8NO+
182.0837	35	C12H10N2+
183.0678	25	C12H9NO+
183.0915	32	C12H11N2+
184.0756	17	C12H10NO+
191.0724	2	C14H9N+
192.0675	3	C13H8N2+
193.0758	9	C13H9N2+
194.0602	5	C13H8NO+
194.0837	21	C13H10N2+
195.0677	24	C13H9NO+
195.0915	4	C13H11N2+
196.0756	41	C13H10NO+
197.0708	4	C12H9N2O+
197.083	3	C13H11NO+
197.1073	3	C13H13N2+
198.0913	17	C13H12NO+
204.0805	1	C15H10N+
206.0839	1	C14H10N2+
207.0915	4	C14H11N2+
208.0757	9	C14H10NO+
208.0993	2	C14H12N2+
209.0708	5	C13H9N2O+
209.0834	2	C14H11NO+
210.0787	280	C13H10N2O+
211.0864	999	C13H11N2O+
219.0916	2	C15H11N2+
221.0709	7	C14H9N2O+
221.1068	1	C15H13N2+
222.0785	10	C14H10N2O+
222.0908	2	C15H12NO+
223.0865	29	C14H11N2O+
224.0941	7	C14H12N2O+
225.102	74	C14H13N2O+
233.0832	3	C16H11NO+
234.0788	1	C15H10N2O+
234.0912	2	C16H12NO+
235.0864	44	C15H11N2O+
236.0943	10	C15H12N2O+
237.1021	7	C15H13N2O+
239.1177	10	C15H15N2O+
249.1019	8	C16H13N2O+
250.0975	5	C15H12N3O+
250.1092	1	C16H14N2O+
251.1177	12	C16H15N2O+
253.1334	1	C16H17N2O+
280.1441	4	C17H18N3O+
