Mass spectrum: Naptalam; LC-ESI-QFT; MS2; CE: 45; R=35000; [M+H]+
Name: Naptalam
Name: 2-(1-naphthylcarbamoyl)benzoic acid
Formula: C18H13NO3
Exact mass: 291.08954
SMILES: O=C(O)c1ccccc1C(=O)Nc3cccc2ccccc23
InChI: InChI=1S/C18H13NO3/c20-17(14-9-3-4-10-15(14)18(21)22)19-16-11-5-7-12-6-1-2-8-13(12)16/h1-11H,(H,19,20)(H,21,22)
Instrument: Q Exactive Orbitrap Thermo Scientific
Instrument type: LC-ESI-QFT
Ms type: MS2
Ion mode: POSITIVE
Ionization: ESI
Fragmentation mode: HCD
Collision energy: 45 (nominal)
Resolution: 35000
Column name: XBridge C18 3.5um, 2.1x50mm, Waters
Retention time: 7.2 min
Base peak: 292.0968
Precursor m/z: 292.0968
Precursor type: [M+H]+
m/z	relative intensity	assigned
65.0385	9	C5H5+
93.0334	4	C6H5O+
103.0542	2	C8H7+
105.0335	4	C7H5O+
111.044	2	C6H7O2+
117.0697	9	C9H9+
121.0284	48	C7H5O2+
121.0396	5	C6H5N2O+
127.0541	3	C10H7+
130.0288	6	C8H4NO+
143.073	13	C10H9N+
144.0807	886	C10H10N+
145.0647	24	C10H9O+
149.0233	999	C8H5O3+
155.0602	16	C10H7N2+
167.0338	7	C8H7O4+
196.0397	1	C12H6NO2+
227.0721	1	C17H9N+
228.0803	3	C17H10N+
246.0912	16	C17H12NO+
256.0756	290	C18H10NO+
274.0861	97	C18H12NO2+
