Mass spectrum: Dropropizine; LC-ESI-QFT; MS2; CE: 90; R=35000; [M+H]+
Name: Dropropizine
Name: 3-(4-phenylpiperazin-1-yl)propane-1,2-diol
Formula: C13H20N2O2
Exact mass: 236.15248
SMILES: C1CN(CCN1CC(CO)O)C2=CC=CC=C2
InChI: InChI=1S/C13H20N2O2/c16-11-13(17)10-14-6-8-15(9-7-14)12-4-2-1-3-5-12/h1-5,13,16-17H,6-11H2
Instrument: Q Exactive Orbitrap Thermo Scientific
Instrument type: LC-ESI-QFT
Ms type: MS2
Ion mode: POSITIVE
Ionization: ESI
Fragmentation mode: HCD
Collision energy: 90 (nominal)
Resolution: 35000
Column name: XBridge C18 3.5um, 2.1x50mm, Waters
Retention time: 2.9 min
Base peak: 237.1598
Precursor m/z: 237.1598
Precursor type: [M+H]+
m/z	relative intensity	assigned
50.0153	2	C4H2+
53.0387	12	C4H5+
54.0338	1	C3H4N+
56.0495	109	C3H6N+
57.0335	26	C3H5O+
57.0573	4	C3H7N+
58.0651	39	C3H8N+
65.0386	16	C5H5+
67.0417	4	C4H5N+
67.0543	3	C5H7+
68.0494	42	C4H6N+
69.0448	2	C3H5N2+
70.0651	420	C4H8N+
71.0491	2	C4H7O+
72.0807	36	C4H10N+
74.06	26	C3H8NO+
75.044	10	C3H7O2+
77.0385	102	C6H5+
78.0464	19	C6H6+
79.0542	66	C6H7+
80.0495	20	C5H6N+
81.0335	4	C5H5O+
81.0573	1	C5H7N+
82.0651	39	C5H8N+
83.0604	2	C4H7N2+
84.0807	68	C5H10N+
91.0542	156	C7H7+
92.0494	50	C6H6N+
93.0573	79	C6H7N+
93.0698	58	C7H9+
94.065	40	C6H8N+
95.0491	254	C6H7O+
96.0808	11	C6H10N+
97.076	3	C5H9N2+
100.0757	57	C5H10NO+
103.0542	177	C8H7+
104.0495	637	C7H6N+
105.0447	105	C6H5N2+
105.0573	26	C7H7N+
105.0698	16	C8H9+
106.0651	116	C7H8N+
110.06	4	C6H8NO+
115.0542	11	C9H7+
116.0496	2	C8H6N+
116.0623	3	C9H8+
117.0572	79	C8H7N+
117.0697	7	C9H9+
118.065	369	C8H8N+
118.0862	46	C5H12NO2+
119.0729	58	C8H9N+
120.0807	999	C8H10N+
130.0652	45	C9H8N+
131.0603	33	C8H7N2+
131.0729	34	C9H9N+
132.0807	249	C9H10N+
133.0759	2	C8H9N2+
133.0888	3	C9H11N+
134.0965	13	C9H12N+
143.0732	4	C10H9N+
144.0684	3	C9H8N2+
144.0808	40	C10H10N+
145.076	103	C9H9N2+
146.0965	14	C10H12N+
147.0913	7	C9H11N2+
157.0763	2	C10H9N2+
158.097	1	C11H12N+
159.0917	88	C10H11N2+
160.0995	271	C10H12N2+
171.0916	4	C11H11N2+
173.1074	21	C11H13N2+
174.1152	8	C11H14N2+
185.1077	2	C12H13N2+
186.1152	14	C12H14N2+
