Mass spectrum: Cortisone; LC-ESI-QFT; MS2; CE: 15; R=35000; [M+H]+
Name: Cortisone
Name: 17,21-Dihydroxypregn-4-ene-3,11,20-trione
Name: (8S,9S,10R,13S,14S,17R)-17-hydroxy-17-(2-hydroxyacetyl)-10,13-dimethyl-1,2,6,7,8,9,12,14,15,16-decahydrocyclopenta[a]phenanthrene-3,11-dione
Formula: C21H28O5
Exact mass: 360.19367
SMILES: O=C(CO)[C@@]3(O)CC[C@H]2[C@@H]4CC\C1=C\C(=O)CC[C@]1(C)[C@H]4C(=O)C[C@@]23C
InChI: InChI=1S/C21H28O5/c1-19-7-5-13(23)9-12(19)3-4-14-15-6-8-21(26,17(25)11-22)20(15,2)10-16(24)18(14)19/h9,14-15,18,22,26H,3-8,10-11H2,1-2H3/t14-,15-,18+,19-,20-,21-/m0/s1
Instrument: Q Exactive Plus Orbitrap Thermo Scientific
Instrument type: LC-ESI-QFT
Ms type: MS2
Ion mode: POSITIVE
Ionization: ESI
Fragmentation mode: HCD
Collision energy: 15 (nominal)
Resolution: 35000
Column name: XBridge C18 3.5um, 2.1x50mm, Waters
Retention time: 7.3 min
Base peak: 361.2008
Precursor m/z: 361.201
Precursor type: [M+H]+
m/z	relative intensity	assigned
121.0643	1	C8H9O+
163.1116	7	C11H15O+
283.169	1	C19H23O2+
285.1841	1	C19H25O2+
301.1807	1	C19H25O3+
307.17	1	C21H23O2+
313.1808	1	C20H25O3+
325.1792	2	C21H25O3+
343.1904	9	C21H27O4+
361.2009	999	C21H29O5+
