Mass spectrum: Napropamid; LC-ESI-ITFT; MS2; CE: 75%; R=15000; [M+H]+
Name: Napropamid
Name: N,N-diethyl-2-(1-naphthalenyloxy)propanamide
Formula: C17H21NO2
Exact mass: 271.1567
SMILES: CCN(CC)C(=O)C(C)OC1=CC=CC2=CC=CC=C21
InChI: InChI=1S/C17H21NO2/c1-4-18(5-2)17(19)13(3)20-16-12-8-10-14-9-6-7-11-15(14)16/h6-13H,4-5H2,1-3H3
Instrument: LTQ Orbitrap XL Thermo Scientific
Instrument type: LC-ESI-ITFT
Ms type: MS2
Ion mode: POSITIVE
Ionization: ESI
Fragmentation mode: HCD
Collision energy: 75 % (nominal)
Resolution: 15000
Column name: XBridge C18 3.5um, 2.1x50mm, Waters
Retention time: 11.7 min
Base peak: 272.1651
Precursor m/z: 272.1645
Precursor type: [M+H]+
m/z	relative intensity	assigned
55.0178	15	C3H3O+
57.0334	67	C3H5O+
58.0651	999	C3H8N+
72.0444	123	C3H6NO+
72.0808	704	C4H10N+
74.0964	195	C4H12N+
86.06	48	C4H8NO+
100.0757	208	C5H10NO+
100.1121	292	C6H14N+
101.0835	148	C5H11NO+
103.0541	10	C8H7+
114.0913	86	C6H12NO+
115.0542	41	C9H7+
116.062	11	C9H8+
117.0698	10	C9H9+
128.062	429	C10H8+
128.107	68	C7H14NO+
129.0699	59	C10H9+
129.1148	84	C7H15NO+
141.0701	12	C11H9+
143.0855	435	C11H11+
144.0569	54	C10H8O+
145.0648	20	C10H9O+
152.062	93	C12H8+
153.0699	293	C12H9+
155.0604	155	C10H7N2+
169.0647	11	C12H9O+
170.0721	12	C12H10O+
171.0804	568	C12H11O+
181.0758	75	C12H9N2+
