Mass spectrum: Metosulam; LC-ESI-QFT; MS2; CE: 60; R=35000; [M+H]+
Name: Metosulam
Name: N-(2,6-dichloro-3-methyl-phenyl)-5,7-dimethoxy-[1,2,4]triazolo[1,5-a]pyrimidine-2-sulfonamide
Formula: C14H13Cl2N5O4S
Exact mass: 417.00653
SMILES: Clc1c(ccc(Cl)c1NS(=O)(=O)c2nc3nc(OC)cc(OC)n3n2)C
InChI: InChI=1S/C14H13Cl2N5O4S/c1-7-4-5-8(15)12(11(7)16)20-26(22,23)14-18-13-17-9(24-2)6-10(25-3)21(13)19-14/h4-6,20H,1-3H3
Instrument: Q Exactive Orbitrap Thermo Scientific
Instrument type: LC-ESI-QFT
Ms type: MS2
Ion mode: POSITIVE
Ionization: ESI
Fragmentation mode: HCD
Collision energy: 60 (nominal)
Resolution: 35000
Column name: XBridge C18 3.5um, 2.1x50mm, Waters
Retention time: 7.6 min
Base peak: 418.0141
Precursor m/z: 418.0138
Precursor type: [M+H]+
m/z	relative intensity	assigned
68.9971	1	C3HO2+
70.0288	1	C3H4NO+
77.0384	1	C6H5+
81.0447	1	C4H5N2+
82.0399	5	C3H4N3+
83.0241	2	C3H3N2O+
94.0036	5	C3N3O+
95.024	1	C4H3N2O+
95.0491	1	C6H7O+
96.0556	6	C4H6N3+
100.0393	1	C4H6NO2+
104.0494	8	C7H6N+
105.0447	1	C6H5N2+
105.0573	2	C7H7N+
109.0397	4	C5H5N2O+
112.0075	1	C6H5Cl+
113.0152	5	C6H6Cl+
120.0445	1	C7H6NO+
123.0187	2	C5H3N2O2+
124.0506	1	C5H6N3O+
125.0345	1	C5H5N2O2+
126.0105	1	C6H5ClN+
127.0183	2	C6H6ClN+
128.0261	1	C6H7ClN+
129.0102	2	C6H6ClO+
130.0399	2	C7H4N3+
136.0381	2	C5H4N4O+
137.0348	3	C6H5N2O2+
138.0105	13	C7H5ClN+
139.0059	7	C6H4ClN2+
139.0183	9	C7H6ClN+
139.0499	3	C6H7N2O2+
140.0261	455	C7H7ClN+
146.9763	13	C6H5Cl2+
151.0613	5	C6H7N4O+
152.0452	1	C6H6N3O2+
154.0055	2	C7H5ClNO+
156.0208	1	C7H7ClNO+
157.0611	1	C3H12ClN3O2+
161.9871	2	C6H6Cl2N+
165.0407	10	C6H5N4O2+
173.9873	68	C7H6Cl2N+
174.995	999	C7H7Cl2N+
179.0563	27	C7H7N4O2+
180.0323	4	C8H7ClN3+
180.0403	3	C7H6N3O3+
181.0718	3	C7H9N4O2+
189.9821	36	C7H6Cl2NO+
190.9897	1	C6HN5OS+
194.0478	1	C9H9ClN3+
198.9824	4	C8H5Cl2N2+
205.0276	1	C6H9N2O4S+
207.0433	1	C6H11N2O4S+
224.9979	1	C13H4ClNO+
240.0089	5	C10H8Cl2N3+
243.1002	1	C13H13N3O2+
269.0901	1	C13H11N5O2+
284.1147	2	C14H14N5O2+
304.0596	9	C13H11ClN5O2+
318.0753	1	C14H13ClN5O2+
