Mass spectrum: Anabaenopeptin NZ857; LC-ESI-QFT; MS2; CE: 180%; R=17500; [M+H]+
Name: Anabaenopeptin NZ857
Name: 2-[[12-butan-2-yl-3,9-bis[2-(4-hydroxyphenyl)ethyl]-7-methyl-2,5,8,11,14-pentaoxo-1,4,7,10,13-pentazacyclononadec-15-yl]carbamoylamino]-3-phenylpropanoic acid
Formula: C45H59N7O10
Exact mass: 857.4323
SMILES: CCC(C)C1C(=O)NC(C(=O)N(CC(=O)NC(C(=O)NCCCCC(C(=O)N1)NC(=O)NC(CC2=CC=CC=C2)C(=O)O)CCC3=CC=C(C=C3)O)C)CCC4=CC=C(C=C4)O
InChI: InChI=1S/C45H59N7O10/c1-4-28(2)39-42(58)48-36(24-18-30-15-21-33(54)22-16-30)43(59)52(3)27-38(55)47-35(23-17-29-13-19-32(53)20-14-29)40(56)46-25-9-8-12-34(41(57)51-39)49-45(62)50-37(44(60)61)26-31-10-6-5-7-11-31/h5-7,10-11,13-16,19-22,28,34-37,39,53-54H,4,8-9,12,17-18,23-27H2,1-3H3,(H,46,56)(H,47,55)(H,48,58)(H,51,57)(H,60,61)(H2,49,50,62)
Instrument: Q Exactive Plus Orbitrap Thermo Scientific
Instrument type: LC-ESI-QFT
Ms type: MS2
Ion mode: POSITIVE
Ionization: ESI
Fragmentation mode: HCD
Collision energy: 180 % (nominal)
Resolution: 17500
Column name: XBridge C18 3.5um, 2.1x50mm, Waters
Retention time: 7.905 min
Base peak: 164.9845
Precursor m/z: 858.4396
Precursor type: [M+H]+
m/z	relative intensity	assigned
65.0386	33	C5H5+
67.0415	7	C4H5N+
67.0542	68	C5H7+
68.0495	10	C4H6N+
69.0573	11	C4H7N+
69.0699	22	C5H9+
70.0651	7	C4H8N+
77.0384	15	C6H5+
79.0542	40	C6H7+
80.0495	9	C5H6N+
82.0288	3	C4H4NO+
82.0651	27	C5H8N+
84.0808	999	C5H10N+
86.0599	25	C4H8NO+
86.0964	12	C5H12N+
91.0543	214	C7H7+
93.0699	42	C7H9+
94.0652	10	C6H8N+
95.0492	174	C6H7O+
96.0804	5	C6H10N+
102.0464	6	C8H6+
103.0542	355	C8H7+
105.0448	66	C6H5N2+
105.0697	19	C8H9+
107.0492	265	C7H7O+
110.0601	7	C6H8NO+
115.054	4	C9H7+
117.0573	3	C8H7N+
119.049	16	C8H7O+
119.0729	5	C8H9N+
120.0808	173	C8H10N+
123.0439	5	C7H7O2+
128.062	5	C10H8+
130.0651	7	C9H8N+
136.076	3	C8H10NO+
146.0596	11	C9H8NO+
