Mass spectrum: 4-Acetamidoantipyrine; LC-ESI-ITFT; MS2; CE: 15%; R=15000; [M+H]+
Name: 4-Acetamidoantipyrine
Name: N-(1,5-dimethyl-3-oxidanylidene-2-phenyl-pyrazol-4-yl)ethanamide
Formula: C13H15N3O2
Exact mass: 245.1164
SMILES: CC(=O)NC=2C(=O)N(c1ccccc1)N(C)C=2C
InChI: InChI=1S/C13H15N3O2/c1-9-12(14-10(2)17)13(18)16(15(9)3)11-7-5-4-6-8-11/h4-8H,1-3H3,(H,14,17)
Instrument: LTQ Orbitrap XL Thermo Scientific
Instrument type: LC-ESI-ITFT
Ms type: MS2
Ion mode: POSITIVE
Ionization: ESI
Fragmentation mode: HCD
Collision energy: 15 % (nominal)
Resolution: 15000
Column name: XBridge C18 3.5um, 2.1x50mm, Waters
Retention time: 3.7 min
Base peak: 246.1244
Precursor m/z: 246.1237
Precursor type: [M+H]+
m/z	relative intensity	assigned
104.049	1	C7H6N+
187.0854	1	C9H9N5+
204.1132	51	C11H14N3O+
228.1133	219	C13H14N3O+
246.1239	999	C13H16N3O2+
