Mass spectrum: Iomeprol; LC-ESI-ITFT; MS2; CE: 45%; R=15000; [M+H]+
Name: Iomeprol
Name: 1-N,3-N-bis(2,3-dihydroxypropyl)-5-[(2-hydroxyacetyl)-methylamino]-2,4,6-triiodobenzene-1,3-dicarboxamide
Formula: C17H22I3N3O8
Exact mass: 776.8541
SMILES: Ic1c(c(I)c(c(I)c1N(C)C(=O)CO)C(=O)NCC(O)CO)C(=O)NCC(O)CO
InChI: InChI=1S/C17H22I3N3O8/c1-23(9(29)6-26)15-13(19)10(16(30)21-2-7(27)4-24)12(18)11(14(15)20)17(31)22-3-8(28)5-25/h7-8,24-28H,2-6H2,1H3,(H,21,30)(H,22,31)
Instrument: LTQ Orbitrap XL Thermo Scientific
Instrument type: LC-ESI-ITFT
Ms type: MS2
Ion mode: POSITIVE
Ionization: ESI
Fragmentation mode: HCD
Collision energy: 45 % (nominal)
Resolution: 15000
Column name: XBridge C18 3.5um, 2.1x50mm, Waters
Retention time: 1.6 min
Base peak: 132.9578
Precursor m/z: 777.8614
Precursor type: [M+H]+
m/z	relative intensity	assigned
175.0264	12	C9H5NO3+
176.0339	5	C9H6NO3+
204.0304	6	C11H2N5+
220.0478	13	C10H8N2O4+
222.0397	8	C10H8NO5+
249.0863	15	C12H13N2O4+
273.9355	31	C8H5INO2+
275.9486	6	C5H9IO5+
277.0823	23	C13H13N2O5+
287.9513	213	C9H7INO2+
290.9629	16	C8H8IN2O2+
291.9461	17	C8H7INO3+
293.9057	7	C10HINO2+
293.9211	27	C2H5IN3O6+
301.9311	35	C9H5INO3+
302.9617	11	C9H8IN2O2+
305.962	51	C9H9INO3+
310.0777	6	C12H23IO+
313.9303	10	C10H5INO3+
319.9414	12	C9H7INO4+
330.9574	14	C10H8IN2O3+
331.9412	300	C10H7INO4+
346.9886	30	C11H12IN2O3+
349.9518	56	C10H9INO5+
374.9839	48	C12H12IN2O4+
386.9837	37	C13H12IN2O4+
404.9939	999	C13H14IN2O5+
423.0041	36	C13H16IN2O6+
446.844	19	C6H9I2O7+
