Mass spectrum: Cilastatin; LC-ESI-ITFT; MS2; CE: 75%; R=15000; [M+H]+
Name: Cilastatin
Formula: C16H26N2O5S
Exact mass: 358.1562
SMILES: [H][C@](N)(CSCCCC\C=C(/NC(=O)[C@@]1([H])CC1(C)C)C(O)=O)C(O)=O
InChI: InChI=1S/C16H26N2O5S/c1-16(2)8-10(16)13(19)18-12(15(22)23)6-4-3-5-7-24-9-11(17)14(20)21/h6,10-11H,3-5,7-9,17H2,1-2H3,(H,18,19)(H,20,21)(H,22,23)/b12-6-/t10-,11+/m1/s1
Instrument: LTQ Orbitrap XL Thermo Scientific
Instrument type: LC-ESI-ITFT
Ms type: MS2
Ion mode: POSITIVE
Ionization: ESI
Fragmentation mode: HCD
Collision energy: 75 % (nominal)
Resolution: 15000
Column name: XBridge C18 3.5um, 2.1x50mm, Waters
Retention time: 5.2 min
Base peak: 359.1645
Precursor m/z: 359.1635
Precursor type: [M+H]+
m/z	relative intensity	assigned
67.0542	58	C5H7+
69.0698	249	C5H9+
77.0384	17	C6H5+
79.0542	190	C6H7+
81.0698	18	C6H9+
96.0807	44	C6H10N+
97.0647	999	C6H9O+
98.0964	50	C6H12N+
113.0419	88	C6H9S+
130.0686	34	C6H12NS+
202.0905	19	C9H16NO2S+
