Mass spectrum: Atorvastatin; LC-ESI-ITFT; MS2; CE: 90%; R=7500; [M+H]+
Name: Atorvastatin
Name: (3R,5R)-7-[3-(anilinocarbonyl)-5-(4-fluorophenyl)-2-isopropyl-4-phenyl-1H-pyrrol-1-yl]-3,5-dihydroxyheptanoic acid
Name: (3R,5R)-7-[2-(4-fluorophenyl)-3-phenyl-4-(phenylcarbamoyl)-5-propan-2-yl-pyrrol-1-yl]-3,5-bis(oxidanyl)heptanoic acid
Formula: C33H35FN2O5
Exact mass: 558.2530
SMILES: c1(c(n(CC[C@H](C[C@H](CC(=O)O)O)O)c(c1C(Nc1ccccc1)=O)C(C)C)c1ccc(F)cc1)c1ccccc1
InChI: InChI=1S/C33H35FN2O5/c1-21(2)31-30(33(41)35-25-11-7-4-8-12-25)29(22-9-5-3-6-10-22)32(23-13-15-24(34)16-14-23)36(31)18-17-26(37)19-27(38)20-28(39)40/h3-16,21,26-27,37-38H,17-20H2,1-2H3,(H,35,41)(H,39,40)/t26-,27-/m1/s1
Instrument: LTQ Orbitrap XL Thermo Scientific
Instrument type: LC-ESI-ITFT
Ms type: MS2
Ion mode: POSITIVE
Ionization: ESI
Fragmentation mode: HCD
Collision energy: 90 % (nominal)
Resolution: 7500
Column name: XBridge C18 3.5um, 2.1x50mm, Waters
Retention time: 12.4 min
Base peak: 559.2616
Precursor m/z: 559.2603
Precursor type: [M+H]+
m/z	relative intensity	assigned
77.0387	144	C6H5+
79.0546	69	C6H7+
83.0491	55	C5H7O+
92.0495	143	C6H6N+
103.0543	83	C8H7+
104.0495	116	C7H6N+
109.0445	77	C7H6F+
115.0546	159	C9H7+
117.0571	60	C8H7N+
121.0447	42	C8H6F+
122.0398	122	C7H5FN+
128.0622	107	C10H8+
129.0704	72	C10H9+
133.0448	148	C9H6F+
154.0651	248	C11H8N+
155.0606	312	C10H7N2+
159.061	41	C11H8F+
167.0724	60	C12H9N+
172.056	151	C11H7FN+
173.0514	134	C10H6FN2+
202.0778	229	C16H10+
203.0855	126	C16H11+
209.076	283	C15H10F+
220.0684	197	C16H9F+
221.076	100	C16H10F+
230.0961	132	C17H12N+
233.076	459	C17H10F+
235.0794	688	C16H10FN+
236.0879	110	C16H11FN+
237.0956	94	C16H12FN+
238.1024	58	C16H13FN+
248.087	999	C17H11FN+
249.0948	301	C17H12FN+
250.1027	794	C17H13FN+
260.0862	84	C18H11FN+
261.0948	243	C18H12FN+
262.103	237	C18H13FN+
263.111	61	C18H14FN+
264.0829	53	C17H11FNO+
274.1027	196	C19H13FN+
276.1181	349	C19H15FN+
288.1175	56	C20H15FN+
