Mass spectrum: Hydrocortisone; LC-ESI-QFT; MS2; CE: 180; R=35000; [M+H]+
Name: (8S,9S,10R,11S,13S,14S,17R)-11,17-dihydroxy-17-(2-hydroxyacetyl)-10,13-dimethyl-2,6,7,8,9,11,12,14,15,16-decahydro-1H-cyclopenta[a]phenanthren-3-one
Name: Cortisol
Name: Hydrocortisone
Formula: C21H30O5
Exact mass: 362.20932
SMILES: C[C@]12CCC(=O)C=C1CC[C@@H]3[C@@H]2[C@H](C[C@]4([C@H]3CC[C@@]4(C(=O)CO)O)C)O
InChI: InChI=1S/C21H30O5/c1-19-7-5-13(23)9-12(19)3-4-14-15-6-8-21(26,17(25)11-22)20(15,2)10-16(24)18(14)19/h9,14-16,18,22,24,26H,3-8,10-11H2,1-2H3/t14-,15-,16-,18+,19-,20-,21-/m0/s1
Instrument: Q Exactive Plus Orbitrap Thermo Scientific
Instrument type: LC-ESI-QFT
Ms type: MS2
Ion mode: POSITIVE
Ionization: ESI
Fragmentation mode: HCD
Collision energy: 180 (nominal)
Resolution: 35000
Column name: XBridge C18 3.5um, 2.1x50mm, Waters
Retention time: 7.7 min
Base peak: 363.2164
Precursor m/z: 363.2166
Precursor type: [M+H]+
m/z	relative intensity	assigned
50.0151	202	C4H2+
51.023	293	C4H3+
52.0307	3	C4H4+
53.0022	52	C3HO+
53.0386	228	C4H5+
53.9975	11	C2NO+
55.0179	80	C3H3O+
55.0542	70	C4H7+
57.0335	11	C3H5O+
61.0073	4	C5H+
62.0151	20	C5H2+
63.0229	102	C5H3+
65.0386	736	C5H5+
66.0464	32	C5H6+
67.0542	69	C5H7+
67.9893	8	C3O2+
68.9972	2	C3HO2+
69.0335	9	C4H5O+
74.015	12	C6H2+
75.0229	32	C6H3+
76.0307	22	C6H4+
77.0386	289	C6H5+
78.0464	175	C6H6+
79.0542	231	C6H7+
80.0621	2	C6H8+
81.0335	36	C5H5O+
81.0699	11	C6H9+
82.0413	7	C5H6O+
83.0492	17	C5H7O+
89.0386	137	C7H5+
90.0465	2	C7H6+
91.0543	832	C7H7+
92.062	2	C7H8+
93.0699	9	C7H9+
94.0414	26	C6H6O+
95.0492	624	C6H7O+
97.0648	3	C6H9O+
101.0386	4	C8H5+
102.0464	165	C8H6+
103.0543	141	C8H7+
104.062	14	C8H8+
105.0448	337	C6H5N2+
105.0699	45	C8H9+
107.0492	36	C7H7O+
109.0648	7	C7H9O+
114.0463	3	C9H6+
115.0543	999	C9H7+
116.0621	38	C9H8+
117.0699	35	C9H9+
119.0493	4	C8H7O+
119.0856	7	C9H11+
126.0464	59	C10H6+
127.0543	85	C10H7+
128.0621	607	C10H8+
129.0699	57	C10H9+
131.0492	23	C9H7O+
131.0855	2	C10H11+
132.057	4	C9H8O+
133.0647	3	C9H9O+
139.0543	57	C11H7+
140.0621	2	C11H8+
141.0699	147	C11H9+
142.0777	3	C11H10+
144.0571	3	C10H8O+
145.0649	65	C10H9O+
147.0805	8	C10H11O+
150.0464	23	C12H6+
151.0543	10	C12H7+
152.0621	298	C12H8+
153.0699	71	C12H9+
154.0778	9	C12H10+
155.0604	105	C10H7N2+
157.0651	2	C11H9O+
163.0541	32	C13H7+
164.0621	27	C13H8+
165.07	206	C13H9+
166.078	4	C13H10+
167.0854	3	C13H11+
168.0572	15	C12H8O+
169.0649	64	C12H9O+
176.0621	37	C14H8+
177.0698	20	C14H9+
178.0777	54	C14H10+
179.0604	17	C12H7N2+
179.0856	8	C14H11+
181.065	2	C13H9O+
189.0699	62	C15H9+
190.0779	3	C15H10+
191.0855	7	C15H11+
201.0699	2	C16H9+
202.0777	24	C16H10+
203.0856	2	C16H11+
213.0695	2	C17H9+
215.0857	3	C17H11+
219.0804	2	C16H11O+
