Mass spectrum: Alfuzosin; LC-ESI-QFT; MS2; CE: 60; R=35000; [M-H]-
Name: Alfuzosin
Name: N-{3-[(4-Amino-6,7-dimethoxy-2-quinazolinyl)(methyl)amino]propyl}tetrahydro-2-furancarboxamide
Name: N-[3-[(4-amino-6,7-dimethoxyquinazolin-2-yl)-methylamino]propyl]oxolane-2-carboxamide
Formula: C19H27N5O4
Exact mass: 389.20630
SMILES: CN(CCCNC(=O)C1CCCO1)C2=NC3=CC(=C(C=C3C(=N2)N)OC)OC
InChI: InChI=1S/C19H27N5O4/c1-24(8-5-7-21-18(25)14-6-4-9-28-14)19-22-13-11-16(27-3)15(26-2)10-12(13)17(20)23-19/h10-11,14H,4-9H2,1-3H3,(H,21,25)(H2,20,22,23)
Instrument: Q Exactive Plus Orbitrap Thermo Scientific
Instrument type: LC-ESI-QFT
Ms type: MS2
Ion mode: NEGATIVE
Ionization: ESI
Fragmentation mode: HCD
Collision energy: 60 (nominal)
Resolution: 35000
Column name: XBridge C18 3.5um, 2.1x50mm, Waters
Retention time: 5.3 min
Base peak: 434.2043
Precursor m/z: 388.199
Precursor type: [M-H]-
m/z	relative intensity	assigned
55.0301	26	C2H3N2-
65.9985	2	C3NO-
66.0098	2	C2N3-
69.0346	1	C4H5O-
72.0092	27	C2H2NO2-
77.0145	2	C4HN2-
84.0455	137	C4H6NO-
86.0247	2	C3H4NO2-
92.0143	1	C5H2NO-
94.0298	1	C5H4NO-
96.0455	11	C5H6NO-
114.0561	166	C5H8NO2-
115.0401	12	C5H7O3-
119.0251	94	C6H3N2O-
120.0327	2	C6H4N2O-
121.0409	3	C6H5N2O-
130.017	1	C7H2N2O-
133.0406	2	C7H5N2O-
136.004	1	C6H2NO3-
144.0203	25	C7H2N3O-
145.0282	30	C7H3N3O-
146.036	3	C7H4N3O-
147.0201	86	C7H3N2O2-
147.0439	11	C7H5N3O-
148.0278	2	C7H4N2O2-
148.0516	8	C7H6N3O-
158.0121	14	C8H2N2O2-
158.036	2	C8H4N3O-
159.0439	5	C8H5N3O-
160.0517	184	C8H6N3O-
161.0356	2	C8H5N2O2-
161.0594	4	C8H7N3O-
162.0312	18	C7H4N3O2-
162.0435	68	C8H6N2O2-
163.0514	2	C8H7N2O2-
172.0153	24	C8H2N3O2-
172.0518	1	C9H6N3O-
173.0236	11	C8H3N3O2-
173.0356	33	C9H5N2O2-
173.0465	4	C8H5N4O-
174.0308	10	C8H4N3O2-
174.0547	60	C8H6N4O-
175.0625	190	C8H7N4O-
176.0465	54	C8H6N3O2-
177.0782	11	C8H9N4O-
185.0467	1	C9H5N4O-
186.0307	1	C9H4N3O2-
187.0264	3	C8H3N4O2-
187.0387	25	C9H5N3O2-
187.0624	12	C9H7N4O-
188.0466	100	C9H6N3O2-
188.0702	26	C9H8N4O-
189.0544	16	C9H7N3O2-
189.0781	11	C9H9N4O-
190.0495	2	C8H6N4O2-
190.0622	2	C9H8N3O2-
199.0624	1	C10H7N4O-
200.0463	5	C10H6N3O2-
200.0705	11	C10H8N4O-
201.0419	53	C9H5N4O2-
201.0785	4	C10H9N4O-
202.0498	357	C9H6N4O2-
202.0861	158	C10H10N4O-
203.0575	999	C9H7N4O2-
203.0693	55	C10H9N3O2-
204.0656	5	C9H8N4O2-
204.0773	3	C10H10N3O2-
205.073	10	C9H9N4O2-
213.0419	2	C10H5N4O2-
213.0546	2	C11H7N3O2-
214.0858	1	C11H10N4O-
215.0574	19	C10H7N4O2-
215.0937	48	C11H11N4O-
216.0653	108	C10H8N4O2-
216.0773	11	C11H10N3O2-
216.1012	10	C11H12N4O-
217.0731	220	C10H9N4O2-
218.0809	148	C10H10N4O2-
219.0887	5	C10H11N4O2-
220.06	1	C9H8N4O3-
221.068	15	C9H9N4O3-
228.0654	40	C11H8N4O2-
229.0731	9	C11H9N4O2-
229.1095	6	C12H13N4O-
230.081	496	C11H10N4O2-
231.0887	86	C11H11N4O2-
232.1203	5	C11H14N5O-
233.1041	5	C11H13N4O2-
234.0758	11	C10H10N4O3-
235.0597	2	C10H9N3O4-
242.0809	1	C12H10N4O2-
242.1053	2	C12H12N5O-
243.0886	186	C12H11N4O2-
244.0965	178	C12H12N4O2-
245.1043	161	C12H13N4O2-
257.1042	9	C13H13N4O2-
258.1121	6	C13H14N4O2-
259.1072	12	C12H13N5O2-
259.12	36	C13H15N4O2-
260.1152	36	C12H14N5O2-
261.0996	4	C12H13N4O3-
272.0791	1	C12H10N5O3-
274.1307	1	C13H16N5O2-
275.1386	4	C13H17N5O2-
287.1023	34	C13H13N5O3-
288.123	1	C14H16N4O3-
300.1098	1	C14H14N5O3-
302.1256	14	C14H16N5O3-
303.1461	7	C17H21NO4-
315.135	4	C17H19N2O4-
329.1261	1	C16H17N4O4-
330.1572	114	C16H20N5O3-
331.1413	62	C16H19N4O4-
343.1284	8	C16H17N5O4-
344.1717	1	C17H22N5O3-
358.1522	416	C17H20N5O4-
372.1671	2	C18H22N5O4-
376.1627	8	C17H22N5O5-
