Mass spectrum: Ranitidine N-oxide; LC-ESI-ITFT; MS2; CE: 45%; R=7500; [M+H]+
Name: Ranitidine N-oxide
Name: 1,1-Ethenediamine, N-(2-(((5-((dimethylamino)methyl)-2-furanyl)methyl)thio)ethyl)-N'-methyl-2-nitro-, N-oxide
Formula: C13H22N4O4S
Exact mass: 330.1362
SMILES: c1(oc(CSCCN\C(=C\[N+](=O)[O-])NC)cc1)CN(C)(C)=O
InChI: InChI=1S/C13H22N4O4S/c1-14-13(8-16(18)19)15-6-7-22-10-12-5-4-11(21-12)9-17(2,3)20/h4-5,8,14-15H,6-7,9-10H2,1-3H3/b13-8+
Instrument: LTQ Orbitrap XL Thermo Scientific
Instrument type: LC-ESI-ITFT
Ms type: MS2
Ion mode: POSITIVE
Ionization: ESI
Fragmentation mode: HCD
Collision energy: 45 % (nominal)
Resolution: 7500
Column name: XBridge C18 3.5um, 2.1x50mm, Waters
Retention time: 2.4 min
Base peak: 331.1444
Precursor m/z: 331.1435
Precursor type: [M+H]+
m/z	relative intensity	assigned
55.0414	17	C3H5N+
56.0493	23	C3H6N+
81.0335	215	C5H5O+
83.0602	37	C4H7N2+
84.068	37	C4H8N2+
88.0216	31	C3H6NS+
95.0492	27	C6H7O+
97.076	183	C5H9N2+
98.0838	525	C5H10N2+
102.0372	968	C4H8NS+
107.0489	27	C7H7O+
113.0709	19	C5H9N2O+
114.0783	17	C5H10N2O+
117.0482	30	C4H9N2S+
118.032	29	C4H8NOS+
124.0756	140	C7H10NO+
125.0056	999	C6H5OS+
130.0559	617	C5H10N2S+
135.092	57	C8H11N2+
144.0765	46	C5H10N3O2+
147.0589	35	C5H11N2OS+
148.0759	87	C9H10NO+
153.0372	50	C8H9OS+
154.0555	14	C7H10N2S+
163.0857	20	CH15N4O3S+
164.0945	72	C9H12N2O+
165.1021	253	C9H13N2O+
167.0638	79	C8H11N2S+
170.0632	75	C8H12NOS+
176.0488	903	C5H10N3O2S+
177.1021	133	C10H13N2O+
178.1106	50	C10H14N2O+
181.0793	150	C9H13N2S+
191.1177	356	C11H15N2O+
192.0479	45	C10H10NOS+
193.0552	92	C10H11NOS+
224.0977	134	C11H16N2OS+
