Mass spectrum: N4-Acetylsulfadimethoxine; LC-ESI-ITFT; MS2; CE: 90%; R=30000; [M+H]+
Name: N4-Acetylsulfadimethoxine
Name: N-[4-[(4,6-dimethoxy-2-pyrimidinyl)sulfamoyl]phenyl]acetamide
Formula: C14H16N4O5S
Exact mass: 352.0841
SMILES: C(C)(=O)Nc1ccc(cc1)S(=O)(=O)Nc1nc(cc(n1)OC)OC
InChI: InChI=1S/C14H16N4O5S/c1-9(19)15-10-4-6-11(7-5-10)24(20,21)18-14-16-12(22-2)8-13(17-14)23-3/h4-8H,1-3H3,(H,15,19)(H,16,17,18)
Instrument: LTQ Orbitrap XL Thermo Scientific
Instrument type: LC-ESI-ITFT
Ms type: MS2
Ion mode: POSITIVE
Ionization: ESI
Fragmentation mode: HCD
Collision energy: 90 % (nominal)
Resolution: 30000
Column name: XBridge C18 3.5um, 2.1x50mm, Waters
Retention time: 6.3 min
Base peak: 353.0926
Precursor m/z: 353.0914
Precursor type: [M+H]+
m/z	relative intensity	assigned
56.0495	22	C3H6N+
57.0447	12	C2H5N2+
58.0287	13	C2H4NO+
65.0386	999	C5H5+
67.0291	124	C3H3N2+
68.0131	43	C3H2NO+
68.0369	12	C3H4N2+
69.0448	33	C3H5N2+
72.0444	29	C3H6NO+
77.0386	14	C6H5+
78.0339	17	C5H4N+
79.0542	56	C6H7+
80.0495	46	C5H6N+
81.0447	102	C4H5N2+
82.0288	49	C4H4NO+
84.0318	30	C3H4N2O+
85.0396	21	C3H5N2O+
92.0495	226	C6H6N+
93.0335	29	C6H5O+
93.0573	29	C6H7N+
94.065	12	C6H8N+
95.024	24	C4H3N2O+
95.0479	49	C4H5N3+
96.0556	26	C4H6N3+
97.0634	23	C4H7N3+
98.0476	16	C4H6N2O+
98.0713	55	C4H8N3+
99.0553	51	C4H7N2O+
106.0651	80	C7H8N+
108.0444	480	C6H6NO+
109.0397	88	C5H5N2O+
110.0349	273	C4H4N3O+
110.0602	30	C6H8NO+
111.019	15	C4H3N2O2+
111.0553	63	C5H7N2O+
113.0346	39	C4H5N2O2+
124.0506	43	C5H6N3O+
125.0584	78	C5H7N3O+
126.0662	177	C5H8N3O+
127.0374	15	C4H5N3O2+
127.0502	22	C5H7N2O2+
134.06	119	C8H8NO+
140.0454	48	C5H6N3O2+
141.0532	63	C5H7N3O2+
145.0635	27	C8H7N3+
154.0612	758	C6H8N3O2+
156.0769	101	C6H10N3O2+
157.0482	67	C5H7N3O3+
164.071	8	C9H10NO2+
172.0506	50	C9H6N3O+
173.0584	113	C9H7N3O+
173.083	9	C9H9N4+
