Mass spectrum: Parathion; LC-ESI-QFT; MS2; CE: 60; R=35000; [M+H]+
Name: Parathion
Name: diethoxy-(4-nitrophenoxy)-sulfanylidene-$l^{5}-phosphane
Formula: C10H14NO5PS
Exact mass: 291.03303
SMILES: S=P(Oc1ccc(cc1)[N+]([O-])=O)(OCC)OCC
InChI: InChI=1S/C10H14NO5PS/c1-3-14-17(18,15-4-2)16-10-7-5-9(6-8-10)11(12)13/h5-8H,3-4H2,1-2H3
Instrument: Q Exactive Orbitrap Thermo Scientific
Instrument type: LC-ESI-QFT
Ms type: MS2
Ion mode: POSITIVE
Ionization: ESI
Fragmentation mode: HCD
Collision energy: 60 (nominal)
Resolution: 35000
Column name: XBridge C18 3.5um, 2.1x50mm, Waters
Retention time: 12.6 min
Base peak: 292.0402
Precursor m/z: 292.0403
Precursor type: [M+H]+
m/z	relative intensity	assigned
64.9786	13	H2O2P+
65.0385	19	C5H5+
66.0463	12	C5H6+
75.0228	9	C6H3+
76.0304	1	C6H4+
78.0338	8	C5H4N+
79.0176	1	C5H3O+
79.0543	1	C6H7+
80.0495	1	C5H6N+
80.9734	1	H2O3P+
82.0412	1	C5H6O+
84.0028	2	C4H4S+
92.0256	9	C6H4O+
92.0494	11	C6H6N+
93.0332	4	C6H5O+
94.0412	999	C6H6O+
96.0027	2	C5H4S+
96.9505	8	H2O2PS+
97.0106	7	C5H5S+
98.0057	2	C4H4NS+
98.0185	5	C5H6S+
98.984	32	H4O4P+
105.0699	5	C8H9+
107.0493	2	C7H7O+
108.0028	2	C6H4S+
108.0444	2	C6H6NO+
109.0104	16	C6H5S+
109.0284	6	C6H5O2+
110.0183	596	C6H6S+
111.0439	15	C6H7O2+
114.9612	736	H4O3PS+
120.0569	2	C8H8O+
121.0395	19	C6H5N2O+
122.0235	2	C6H4NO2+
123.0313	673	C6H5NO2+
123.9976	13	C6H4OS+
125.0054	63	C6H5OS+
126.0132	41	C6H6OS+
127.0211	7	C6H7OS+
128.002	1	C5H5O2P+
132.9717	10	H6O4PS+
137.0166	2	C6H5N2S+
138.0008	18	C6H4NOS+
139.0085	71	C6H5NOS+
140.034	529	C6H6NO3+
150.0296	22	C6H4N3O2+
153.9956	33	C6H4NO2S+
154.9713	11	C6H4OPS+
155.9975	13	C6H5O3P+
156.0112	223	C6H6NO2S+
170.9662	3	C6H4O2PS+
171.974	170	C6H5O2PS+
174.0075	184	C6H7O4P+
184.9875	5	C6H4NO4P+
187.969	12	C6H5O3PS+
188.9769	31	C6H6O3PS+
189.9846	309	C6H7O3PS+
198.9724	2	C10HNO2S+
204.9719	14	C6H6O4PS+
205.9797	30	C6H7O4PS+
216.9833	7	C10H3NO3S+
217.967	11	C10H2O4S+
218.9748	79	C6H6NO4PS+
220.0004	50	C6H7NO6P+
221.9746	9	C6H7O5PS+
235.9775	438	C10H4O5S+
253.9879	28	
