Mass spectrum: Telmisartan; LC-ESI-ITFT; MS2; CE: 60%; R=7500; [M+H]+
Name: Telmisartan
Name: 4'-[(1,7'-dimethyl-2'-propyl-1H,3'H-2,5'-bibenzimidazol-3'-yl)methyl]biphenyl-2-carboxylic acid
Name: 2-[4-[[4-methyl-6-(1-methyl-2-benzimidazolyl)-2-propyl-1-benzimidazolyl]methyl]phenyl]benzoic acid
Formula: C33H30N4O2
Exact mass: 514.2369
SMILES: n1(c(nc2c1cccc2)c1cc(c2c(n(c(CCC)n2)Cc2ccc(cc2)c2c(cccc2)C(O)=O)c1)C)C
InChI: InChI=1S/C33H30N4O2/c1-4-9-30-35-31-21(2)18-24(32-34-27-12-7-8-13-28(27)36(32)3)19-29(31)37(30)20-22-14-16-23(17-15-22)25-10-5-6-11-26(25)33(38)39/h5-8,10-19H,4,9,20H2,1-3H3,(H,38,39)
Instrument: LTQ Orbitrap XL Thermo Scientific
Instrument type: LC-ESI-ITFT
Ms type: MS2
Ion mode: POSITIVE
Ionization: ESI
Fragmentation mode: HCD
Collision energy: 60 % (nominal)
Resolution: 7500
Column name: XBridge C18 3.5um, 2.1x50mm, Waters
Retention time: 9.2 min
Base peak: 515.2452
Precursor m/z: 515.2442
Precursor type: [M+H]+
m/z	relative intensity	assigned
106.0653	2	C7H8N+
131.0597	1	C8H7N2+
133.0282	1	C8H5O2+
152.0622	4	C12H8+
153.0706	1	C12H9+
155.0856	5	C12H11+
165.0697	9	C13H9+
167.0856	6	C13H11+
183.0807	6	C13H11O+
193.065	84	C14H9O+
194.0675	3	C7H8N5O2+
211.0755	128	C14H11O2+
212.0786	3	C7H10N5O3+
260.1058	3	C16H12N4+
261.1135	31	C18H15NO+
262.1212	16	C16H14N4+
263.1283	1	C16H15N4+
273.1139	1	C17H13N4+
275.1291	50	C17H15N4+
276.1373	999	C17H16N4+
277.1407	49	C12H17N6O2+
287.1297	3	C18H15N4+
288.1367	9	C18H16N4+
289.1449	228	C18H17N4+
290.1484	12	C13H18N6O2+
301.1451	3	C19H17N4+
302.1527	7	C19H18N4+
303.1605	117	C19H19N4+
304.164	5	C14H20N6O2+
305.176	77	C19H21N4+
306.1797	4	C14H22N6O2+
308.1265	1	C17H16N4O2+
317.176	33	C20H21N4+
318.1803	1	C15H22N6O2+
439.1864	1	C25H23N6O2+
453.1721	4	C32H23NO2+
455.1862	8	C30H23N4O+
467.1867	26	C31H23N4O+
468.192	3	C26H24N6O3+
471.1812	4	C30H23N4O2+
473.1957	1	C30H25N4O2+
485.1973	19	C31H25N4O2+
486.2029	1	C31H26N4O2+
497.232	43	C33H29N4O+
498.2374	5	C28H30N6O3+
