Mass spectrum: Phosphamidon; LC-ESI-QFT; MS2; CE: 30%; R=17500; [M+H]+
Name: Phosphamidon
Name: 2-Chloro-3-(diethylamino)-1-methyl-3-oxo-1-propenyl dimethyl phosphate
Name: [3-chloro-4-(diethylamino)-4-oxobut-2-en-2-yl] dimethyl phosphate
Formula: C10H19ClNO5P
Exact mass: 299.0689
SMILES: CCN(CC)C(=O)C(=C(C)OP(=O)(OC)OC)Cl
InChI: InChI=1S/C10H19ClNO5P/c1-6-12(7-2)10(13)9(11)8(3)17-18(14,15-4)16-5/h6-7H2,1-5H3
Instrument: Exploris 240 Orbitrap Thermo Scientific
Instrument type: LC-ESI-QFT
Ms type: MS2
Ion mode: POSITIVE
Ionization: ESI
Fragmentation mode: HCD
Collision energy: 30 % (nominal)
Resolution: 17500
Column name: XBridge C18 3.5um, 2.1x50mm, Waters
Retention time: 5.169 min
Base peak: 300.076
Precursor m/z: 300.0762
Precursor type: [M+H]+
m/z	relative intensity	assigned
72.0443	56	C3H6NO+
72.0808	44	C4H10N+
74.0964	98	C4H12N+
100.0757	396	C5H10NO+
102.9945	30	C4H4ClO+
103.0309	8	C5H8Cl+
110.0599	34	C6H8NO+
127.0155	999	C2H8O4P+
132.0574	61	C6H11ClN+
138.0916	54	C8H12NO+
146.0369	38	C6H9ClNO+
174.0681	836	C8H13ClNO+
226.9871	506	C6H9ClO5P+
300.0761	143	C10H20ClNO5P+
