Mass spectrum: Alachlor; LC-ESI-ITFT; MS2; CE: 75%; R=7500; [M+H]+
Name: Alachlor
Name: 2-chloranyl-N-(2,6-diethylphenyl)-N-(methoxymethyl)ethanamide
Formula: C14H20ClNO2
Exact mass: 269.1177
SMILES: CCC1=CC=CC(CC)=C1N(COC)C(=O)CCl
InChI: InChI=1S/C14H20ClNO2/c1-4-11-7-6-8-12(5-2)14(11)16(10-18-3)13(17)9-15/h6-8H,4-5,9-10H2,1-3H3
Instrument: LTQ Orbitrap XL Thermo Scientific
Instrument type: LC-ESI-ITFT
Ms type: MS2
Ion mode: POSITIVE
Ionization: ESI
Fragmentation mode: HCD
Collision energy: 75 % (nominal)
Resolution: 7500
Column name: XBridge C18 3.5um, 2.1x50mm, Waters
Retention time: 11.7 min
Base peak: 292.1079
Precursor m/z: 270.1255
Precursor type: [M+H]+
m/z	relative intensity	assigned
76.979	21	C2H2ClO+
90.0104	149	C3H5ClN+
91.0547	23	C7H7+
105.07	38	C8H9+
118.0646	48	C8H8N+
119.073	33	C8H9N+
120.0808	34	C8H10N+
130.0652	34	C9H8N+
131.0729	35	C9H9N+
132.0809	288	C9H10N+
133.0882	48	C9H11N+
134.0963	68	C9H12N+
144.0808	64	C10H10N+
146.0966	176	C10H12N+
147.1043	999	C10H13N+
158.0965	23	C11H12N+
162.1278	652	C11H16N+
163.1117	109	C11H15O+
170.0964	39	C12H12N+
171.1041	39	C12H13N+
