Mass spectrum: Hydrochlorothiazide; LC-ESI-ITFT; MS2; CE: 60%; R=7500; [M+H]+
Name: Hydrochlorothiazide
Name: 6-Chloro-3,4-dihydro-2H-1,2,4-benzothiadiazine-7-sulfonamide 1,1-dioxide
Name: 6-chloranyl-1,1-bis(oxidanylidene)-3,4-dihydro-2H-1$l^{6},2,4-benzothiadiazine-7-sulfonamide
Formula: C7H8ClN3O4S2
Exact mass: 296.9645
SMILES: NS(=O)(=O)C1=CC2=C(NCNS2(=O)=O)C=C1Cl
InChI: InChI=1S/C7H8ClN3O4S2/c8-4-1-5-7(2-6(4)16(9,12)13)17(14,15)11-3-10-5/h1-2,10-11H,3H2,(H2,9,12,13)
Instrument: LTQ Orbitrap XL Thermo Scientific
Instrument type: LC-ESI-ITFT
Ms type: MS2
Ion mode: POSITIVE
Ionization: ESI
Fragmentation mode: HCD
Collision energy: 60 % (nominal)
Resolution: 7500
Column name: XBridge C18 3.5um, 2.1x50mm, Waters
Retention time: 2.2 min
Base peak: 163.1326
Precursor m/z: 297.9718
Precursor type: [M+H]+
m/z	relative intensity	assigned
90.0336	61	C6H4N+
98.9999	55	C5H4Cl+
107.9902	303	C5H2NS+
117.0448	183	C7H5N2+
118.0526	103	C7H6N2+
123.9951	119	C6H3ClN+
125.0027	142	C6H4ClN+
126.0101	63	C6H5ClN+
131.9668	56	C7OS+
139.9899	999	C6H3ClNO+
141.9517	112	C5HClNS+
142.0057	132	C6H5ClNO+
142.9591	324	C5H2ClNS+
152.9976	63	C7H4ClNO+
155.9843	66	C6H3ClNO2+
157.0163	56	C6H6ClN2O+
158.0011	45	C6H5ClNO2+
169.017	53	C7H6ClN2O+
169.9468	83	ClH7O4S2+
170.9534	103	C6H2ClNOS+
171.9616	170	C6H3ClNOS+
188.9647	92	C6H4ClNO2S+
203.9517	555	C6H3ClNO3S+
204.9829	72	C6H6ClN2O2S+
220.9792	62	C6H6ClN2O3S+
232.9778	257	C7H6ClN2O3S+
