Mass spectrum: Emtricitabine; LC-ESI-QFT; MS2; CE: 30; R=35000; [M-H]-
Name: Emtricitabine
Name: 4-amino-5-fluoro-1-[(2R,5S)-2-(hydroxymethyl)-1,3-oxathiolan-5-yl]-2-pyrimidinone
Formula: C8H10FN3O3S
Exact mass: 247.04269
SMILES: FC=1\C(=N/C(=O)N(C=1)[C@H]2O[C@H](SC2)CO)\N
InChI: InChI=1S/C8H10FN3O3S/c9-4-1-12(8(14)11-7(4)10)5-3-16-6(2-13)15-5/h1,5-6,13H,2-3H2,(H2,10,11,14)/t5-,6+/m0/s1
Instrument: Q Exactive Orbitrap Thermo Scientific
Instrument type: LC-ESI-QFT
Ms type: MS2
Ion mode: NEGATIVE
Ionization: ESI
Fragmentation mode: HCD
Collision energy: 30 (nominal)
Resolution: 35000
Column name: XBridge C18 3.5um, 2.1x50mm, Waters
Retention time: 2.1 min
Base peak: 235.9261
Precursor m/z: 246.0354
Precursor type: [M-H]-
m/z	relative intensity	assigned
57.9757	4	CNS-
74.9912	1	C2H3OS-
104.0255	17	C5H2N3-
105.0332	1	C5H3N3-
107.0251	5	C5H3N2O-
110.016	24	C4HFN3-
111.0023	11	C4H3N2S-
115.021	7	C3H5N3S-
122.0363	1	C5H4N3O-
123.0024	14	C5H3N2S-
128.0269	1	C4H3FN3O-
132.0203	14	C6H2N3O-
133.0281	1	C6H3N3O-
134.0361	1	C6H4N3O-
138.013	14	C5H4N3S-
138.9971	11	C5H3N2OS-
140.0265	1	C5H3FN3O-
142.042	1	C5H5FN3O-
143.0084	20	C5H4FN2S-
152.0265	999	C6H3FN3O-
158.0192	2	C5H5FN3S-
166.008	75	C6H4N3OS-
170.0371	39	C6H5FN3O2-
186.0144	50	C6H5FN3OS-
216.0385	4	C8H9FN2O2S-
218.0313	3	C8H4N5O3-
