Mass spectrum: Meclofenamic Acid; LC-ESI-QFT; MS2; CE: 60; R=35000; [M-H]-
Name: Meclofenamic Acid
Name: 2-(2,6-dichloro-3-methylanilino)benzoic acid
Formula: C14H11Cl2NO2
Exact mass: 295.01668
SMILES: CC1=C(C(=C(C=C1)Cl)NC2=CC=CC=C2C(=O)O)Cl
InChI: InChI=1S/C14H11Cl2NO2/c1-8-6-7-10(15)13(12(8)16)17-11-5-3-2-4-9(11)14(18)19/h2-7,17H,1H3,(H,18,19)
Instrument: Q Exactive Plus Orbitrap Thermo Scientific
Instrument type: LC-ESI-QFT
Ms type: MS2
Ion mode: NEGATIVE
Ionization: ESI
Fragmentation mode: HCD
Collision energy: 60 (nominal)
Resolution: 35000
Column name: XBridge C18 3.5um, 2.1x50mm, Waters
Retention time: 13.9 min
Base peak: 294.0091
Precursor m/z: 294.0094
Precursor type: [M-H]-
m/z	relative intensity	assigned
174.9721	60	C7H5Cl2O-
178.0662	684	C13H8N-
194.061	7	C13H8NO-
213.0351	34	C13H8ClN-
214.043	999	C13H9ClN-
222.0559	39	C14H8NO2-
250.0199	14	C13H10Cl2N-
