Mass spectrum: N,O-Didesmethylvenlafaxine; LC-ESI-ITFT; MS2; CE: 60%; R=7500; [M+H]+
Name: N,O-Didesmethylvenlafaxine
Name: 4-[1-(1-Hydroxycyclohexyl)-2-(methylamino)ethyl]phenol
Formula: C15H23NO2
Exact mass: 249.1729
SMILES: OC2(C(c1ccc(O)cc1)CNC)CCCCC2
InChI: InChI=1S/C15H23NO2/c1-16-11-14(12-5-7-13(17)8-6-12)15(18)9-3-2-4-10-15/h5-8,14,16-18H,2-4,9-11H2,1H3
Instrument: LTQ Orbitrap XL Thermo Scientific
Instrument type: LC-ESI-ITFT
Ms type: MS2
Ion mode: POSITIVE
Ionization: ESI
Fragmentation mode: HCD
Collision energy: 60 % (nominal)
Resolution: 7500
Column name: XBridge C18 3.5um, 2.1x50mm, Waters
Retention time: 4.9 min
Base peak: 250.1809
Precursor m/z: 250.1802
Precursor type: [M+H]+
m/z	relative intensity	assigned
69.0698	31	C5H9+
79.0544	60	C6H7+
81.07	109	C6H9+
105.0703	29	C8H9+
107.0492	999	C7H7O+
119.0488	21	C8H7O+
121.0649	46	C8H9O+
133.0649	786	C9H9O+
135.0683	23	C8H9NO+
145.0649	211	C10H9O+
147.0801	24	C10H11O+
150.0913	47	C9H12NO+
159.0805	303	C11H11O+
201.1277	69	C14H17O+
