Mass spectrum: N-Desmethylvenlafaxine; LC-ESI-ITFT; MS2; CE: 45%; R=7500; [M+H]+
Name: N-Desmethylvenlafaxine
Name: 1-[1-(4-methoxyphenyl)-2-(methylamino)ethyl]-1-cyclohexanol
Formula: C16H25NO2
Exact mass: 263.1885
SMILES: CNCC(C1=CC=C(C=C1)OC)C2(CCCCC2)O
InChI: InChI=1S/C16H25NO2/c1-17-12-15(16(18)10-4-3-5-11-16)13-6-8-14(19-2)9-7-13/h6-9,15,17-18H,3-5,10-12H2,1-2H3
Instrument: LTQ Orbitrap XL Thermo Scientific
Instrument type: LC-ESI-ITFT
Ms type: MS2
Ion mode: POSITIVE
Ionization: ESI
Fragmentation mode: HCD
Collision energy: 45 % (nominal)
Resolution: 7500
Column name: XBridge C18 3.5um, 2.1x50mm, Waters
Retention time: 6.3 min
Base peak: 264.1967
Precursor m/z: 264.1958
Precursor type: [M+H]+
m/z	relative intensity	assigned
79.0543	50	C6H7+
81.0699	54	C6H9+
91.0543	47	C7H7+
93.07	54	C7H9+
107.0855	78	C8H11+
121.0648	999	C8H9O+
132.0575	19	C9H8O+
135.0802	57	C9H11O+
138.1276	46	C9H16N+
147.0805	687	C10H11O+
159.0805	186	C11H11O+
164.1066	50	C10H14NO+
173.0959	234	C12H13O+
183.1162	14	C14H15+
215.1431	770	C15H19O+
246.1848	134	C16H24NO+
