Mass spectrum: 8phiC8SPC; LC-ESI-QFT; MS2; CE: 45; R=35000; [M+H]+
Name: 8phiC8SPC
Name: Octacarboxy sulfophenyl carboxylic acid
Name: 8-(4-sulfophenyl)octanoic acid
Formula: C14H20O5S
Exact mass: 300.10314
SMILES: OS(=O)(=O)c1ccc(CCCCCCCC(=O)O)cc1
InChI: InChI=1S/C14H20O5S/c15-14(16)7-5-3-1-2-4-6-12-8-10-13(11-9-12)20(17,18)19/h8-11H,1-7H2,(H,15,16)(H,17,18,19)
Instrument: Q Exactive Plus Orbitrap Thermo Scientific
Instrument type: LC-ESI-QFT
Ms type: MS2
Ion mode: POSITIVE
Ionization: ESI
Fragmentation mode: HCD
Collision energy: 45 (nominal)
Resolution: 35000
Column name: XBridge C18 3.5um, 2.1x50mm, Waters
Retention time: 7.9 min
Base peak: 315.1259
Precursor m/z: 301.1104
Precursor type: [M+H]+
m/z	relative intensity	assigned
50.0149	1	C4H2+
51.0228	1	C4H3+
53.0021	3	C3HO+
55.0178	3	C3H3O+
55.0543	9	C4H7+
57.0699	38	C4H9+
58.995	4	C2H3S+
59.0491	6	C3H7O+
63.0226	1	C5H3+
67.0543	6	C5H7+
69.0699	14	C5H9+
71.0855	91	C5H11+
77.0384	4	C6H5+
79.0542	14	C6H7+
81.0699	14	C6H9+
83.0491	1	C5H7O+
83.0855	4	C6H11+
89.0384	1	C7H5+
90.0463	3	C7H6+
91.0542	36	C7H7+
93.07	8	C7H9+
95.0491	1	C6H7O+
95.0855	1	C7H11+
97.0647	6	C6H9O+
103.0542	46	C8H7+
104.062	166	C8H8+
105.0699	26	C8H9+
107.0491	135	C7H7O+
109.0107	9	C6H5S+
109.065	1	C7H9O+
111.0263	27	C6H7S+
115.0541	5	C9H7+
116.0621	25	C9H8+
117.0699	125	C9H9+
118.0777	45	C9H10+
119.0855	4	C9H11+
121.0648	32	C8H9O+
123.0264	9	C7H7S+
125.0057	3	C6H5OS+
128.0621	1	C10H8+
129.0699	6	C10H9+
130.0778	30	C10H10+
131.0604	16	C8H7N2+
131.0856	148	C10H11+
132.057	17	C9H8O+
132.0934	14	C10H12+
133.0649	14	C9H9O+
133.1011	1	C10H13+
134.0184	6	C8H6S+
135.0263	36	C8H7S+
135.0806	3	C9H11O+
137.0056	14	C7H5OS+
139.0212	41	C7H7OS+
141.0698	4	C11H9+
142.0779	5	C11H10+
143.0855	18	C11H11+
144.057	1	C10H8O+
144.0932	2	C11H12+
145.0649	3	C10H9O+
145.0761	6	C9H9N2+
145.1011	6	C11H13+
146.0728	4	C10H10O+
147.0264	7	C9H7S+
149.042	40	C9H9S+
149.0961	7	C10H13O+
151.0213	54	C8H7OS+
153.0004	11	C7H5O2S+
153.0703	1	C12H9+
154.0777	3	C12H10+
155.0161	1	C7H7O2S+
155.0856	6	C12H11+
157.1011	6	C12H13+
159.0805	5	C11H11O+
159.0917	16	C10H11N2+
159.1171	2	C12H15+
161.0419	3	C10H9S+
163.0213	13	C9H7OS+
163.0576	1	C10H11S+
165.037	11	C9H9OS+
167.0162	111	C8H7O2S+
168.0934	20	C13H12+
169.1011	1	C13H13+
170.109	8	C13H14+
171.0111	999	C7H7O3S+
172.0341	4	C11H8S+
172.1251	5	C13H16+
173.042	4	C11H9S+
173.1326	12	C13H17+
175.0574	1	C11H11S+
177.0369	6	C10H9OS+
179.0523	4	C10H11OS+
181.0318	26	C9H9O2S+
182.1089	1	C14H14+
183.1171	3	C14H15+
184.1247	4	C14H16+
185.0268	927	C8H9O3S+
186.0498	13	C12H10S+
191.1431	3	C13H19O+
195.0475	36	C10H11O2S+
197.0266	5	C9H9O3S+
199.0424	117	C9H11O3S+
201.0733	9	C13H13S+
201.1385	13	C13H17N2+
203.0372	16	C8H11O4S+
213.058	38	C10H13O3S+
217.0529	8	C9H13O4S+
219.0841	5	C13H15OS+
231.0684	5	C10H15O4S+
247.0788	1	C14H15O2S+
255.1049	1	C13H19O3S+
283.0997	1	C14H19O4S+
301.1098	1	C14H21O5S+
