Mass spectrum: Terbuthylazine-TP CSAA036479 (LM2); LC-ESI-QFT; MS2; CE: 75%; R=17500; [M+H]+
Name: Terbuthylazine-TP CSAA036479 (LM2)
Name: 2-[(6-amino-4-oxo-1H-1,3,5-triazin-2-yl)amino]-2-methylpropanoic acid
Formula: C7H11N5O3
Exact mass: 213.0862
SMILES: CC(C)(NC1=NC(N)=NC(O)=N1)C(O)=O
InChI: InChI=1S/C7H11N5O3/c1-7(2,3(13)14)12-5-9-4(8)10-6(15)11-5/h1-2H3,(H,13,14)(H4,8,9,10,11,12,15)
Instrument: Q Exactive Plus Orbitrap Thermo Scientific
Instrument type: LC-ESI-QFT
Ms type: MS2
Ion mode: POSITIVE
Ionization: ESI
Fragmentation mode: HCD
Collision energy: 75 % (nominal)
Resolution: 17500
Column name: XBridge C18 3.5um, 2.1x50mm, Waters
Retention time: 1.352 min
Base peak: 214.0934
Precursor m/z: 214.0935
Precursor type: [M+H]+
m/z	relative intensity	assigned
56.0494	7	C3H6N+
58.0651	192	C3H8N+
59.0491	89	C3H7O+
60.0556	15	CH6N3+
68.0242	28	C2H2N3+
68.3384	16	
69.0083	143	C2HN2O+
69.0334	13	C4H5O+
83.0603	142	C4H7N2+
84.0444	485	C4H6NO+
85.0508	286	C2H5N4+
86.0348	824	C2H4N3O+
87.0442	27	C4H7O2+
108.0556	16	C5H6N3+
109.0396	92	C5H5N2O+
110.0459	11	C3H4N5+
111.0301	39	C3H3N4O+
126.0662	999	C5H8N3O+
127.0616	8	C4H7N4O+
128.0566	322	C3H6N5O+
151.0614	48	C6H7N4O+
168.0879	142	C6H10N5O+
