Mass spectrum: Emtricitabine; LC-ESI-QFT; MS2; CE: 60; R=35000; [M-H]-
Name: Emtricitabine
Name: 4-amino-5-fluoro-1-[(2R,5S)-2-(hydroxymethyl)-1,3-oxathiolan-5-yl]-2-pyrimidinone
Formula: C8H10FN3O3S
Exact mass: 247.04269
SMILES: FC=1\C(=N/C(=O)N(C=1)[C@H]2O[C@H](SC2)CO)\N
InChI: InChI=1S/C8H10FN3O3S/c9-4-1-12(8(14)11-7(4)10)5-3-16-6(2-13)15-5/h1,5-6,13H,2-3H2,(H2,10,11,14)/t5-,6+/m0/s1
Instrument: Q Exactive Orbitrap Thermo Scientific
Instrument type: LC-ESI-QFT
Ms type: MS2
Ion mode: NEGATIVE
Ionization: ESI
Fragmentation mode: HCD
Collision energy: 60 (nominal)
Resolution: 35000
Column name: XBridge C18 3.5um, 2.1x50mm, Waters
Retention time: 2.1 min
Base peak: 235.9261
Precursor m/z: 246.0354
Precursor type: [M-H]-
m/z	relative intensity	assigned
57.9757	21	CNS-
65.0145	23	C3HN2-
71.9914	1	C2H2NS-
77.0145	12	C4HN2-
83.005	12	C3FN2-
85.0208	8	C3H2FN2-
91.0302	6	C5H3N2-
95.9787	8	C3N2S-
95.9913	12	C4H2NS-
104.0254	354	C5H2N3-
105.0332	38	C5H3N3-
107.0251	9	C5H3N2O-
110.0161	42	C4HFN3-
111.0023	43	C4H3N2S-
112.0318	3	C4H3FN3-
115.0208	6	C3H5N3S-
121.9943	2	C5H2N2S-
122.036	2	C5H4N3O-
123.0023	18	C5H3N2S-
128.0266	36	C4H3FN3O-
132.0203	226	C6H2N3O-
133.0281	3	C6H3N3O-
138.0128	15	C5H4N3S-
138.9971	6	C5H3N2OS-
140.0268	3	C5H3FN3O-
143.0085	20	C5H4FN2S-
152.0265	999	C6H3FN3O-
158.0193	3	C5H5FN3S-
166.0077	15	C6H4N3OS-
170.037	2	C6H5FN3O2-
