Mass spectrum: Resmethrin; LC-ESI-QFT; MS2; CE: 120%; R=17500; [M+H]+
Name: Resmethrin
Name: (5-benzylfuran-3-yl)methyl 2,2-dimethyl-3-(2-methylprop-1-enyl)cyclopropane-1-carboxylate
Formula: C22H26O3
Exact mass: 338.1882
SMILES: CC(=CC1C(C1(C)C)C(=O)OCC2=COC(=C2)CC3=CC=CC=C3)C
InChI: InChI=1S/C22H26O3/c1-15(2)10-19-20(22(19,3)4)21(23)25-14-17-12-18(24-13-17)11-16-8-6-5-7-9-16/h5-10,12-13,19-20H,11,14H2,1-4H3
Instrument: Exploris 240 Orbitrap Thermo Scientific
Instrument type: LC-ESI-QFT
Ms type: MS2
Ion mode: POSITIVE
Ionization: ESI
Fragmentation mode: HCD
Collision energy: 120 % (nominal)
Resolution: 17500
Column name: XBridge C18 3.5um, 2.1x50mm, Waters
Retention time: 15.698 min
Base peak: 339.1952
Precursor m/z: 339.1955
Precursor type: [M+H]+
m/z	relative intensity	assigned
51.0229	9	C4H3+
53.0386	57	C4H5+
55.0542	51	C4H7+
59.0492	29	C3H7O+
65.0386	182	C5H5+
67.0541	49	C5H7+
77.0386	139	C6H5+
78.0465	14	C6H6+
79.0542	103	C6H7+
81.07	24	C6H9+
91.0542	805	C7H7+
93.0698	21	C7H9+
95.0491	43	C6H7O+
102.0464	31	C8H6+
103.0542	43	C8H7+
105.0699	48	C8H9+
115.0543	214	C9H7+
117.0701	40	C9H9+
119.0855	17	C9H11+
127.0542	91	C10H7+
128.062	999	C10H8+
129.0697	23	C10H9+
141.0696	68	C11H9+
145.0647	20	C10H9O+
152.0623	45	C12H8+
165.0695	12	C13H9+
