Mass spectrum: Metribuzin-diketo; LC-ESI-ITFT; MS2; CE: 75%; R=15000; [M+H]+
Name: Metribuzin-diketo
Name: 4-amino-6-tert-butyl-2H-1,2,4-triazine-3,5-dione
Formula: C7H12N4O2
Exact mass: 184.0960
SMILES: O=C(NN=C1C(C)(C)C)N(N)C1=O
InChI: InChI=1S/C7H12N4O2/c1-7(2,3)4-5(12)11(8)6(13)10-9-4/h8H2,1-3H3,(H,10,13)
Instrument: LTQ Orbitrap XL Thermo Scientific
Instrument type: LC-ESI-ITFT
Ms type: MS2
Ion mode: POSITIVE
Ionization: ESI
Fragmentation mode: HCD
Collision energy: 75 % (nominal)
Resolution: 15000
Column name: XBridge C18 3.5um, 2.1x50mm, Waters
Retention time: 5.9 min
Base peak: 185.1036
Precursor m/z: 185.1033
Precursor type: [M+H]+
m/z	relative intensity	assigned
53.0385	20	C4H5+
57.0698	746	C4H9+
59.0239	23	CH3N2O+
65.0385	48	C5H5+
67.0415	18	C4H5N+
67.0542	150	C5H7+
68.0495	71	C4H6N+
69.0083	206	C2HN2O+
69.0699	294	C5H9+
70.0286	36	C3H4NO+
70.0412	31	C4H6O+
70.0651	30	C4H8N+
74.0348	25	CH4N3O+
82.0651	126	C5H8N+
83.024	42	C3H3N2O+
83.0604	19	C4H7N2+
83.0729	104	C5H9N+
84.0444	23	C4H6NO+
84.0807	133	C5H10N+
86.0349	16	C2H4N3O+
95.0605	34	C5H7N2+
96.0443	314	C5H6NO+
97.0757	34	C5H9N2+
100.0504	42	C3H6N3O+
101.0346	84	C3H5N2O2+
101.0457	61	C2H5N4O+
110.0599	267	C6H8NO+
111.0678	608	C6H9NO+
112.0141	83	C3H2N3O2+
114.0424	78	C4H6N2O2+
124.0504	22	C5H6N3O+
125.0707	49	C6H9N2O+
126.0662	43	C5H8N3O+
141.0657	405	C6H9N2O2+
141.0895	20	C6H11N3O+
154.0611	33	C6H8N3O2+
156.0891	129	C7H12N2O2+
157.1083	999	C6H13N4O+
169.0718	83	C6H9N4O2+
185.103	559	C7H13N4O2+
