Mass spectrum: Imicyafos; LC-ESI-QFT; MS2; CE: 30%; R=17500; [M+H]+
Name: Imicyafos
Name: [1-[ethoxy(propylsulfanyl)phosphoryl]-3-ethylimidazolidin-2-ylidene]cyanamide
Formula: C11H21N4O2PS
Exact mass: 304.1123
SMILES: CCCSP(=O)(N1CCN(C1=NC#N)CC)OCC
InChI: InChI=1S/C11H21N4O2PS/c1-4-9-19-18(16,17-6-3)15-8-7-14(5-2)11(15)13-10-12/h4-9H2,1-3H3
Instrument: Exploris 240 Orbitrap Thermo Scientific
Instrument type: LC-ESI-QFT
Ms type: MS2
Ion mode: POSITIVE
Ionization: ESI
Fragmentation mode: HCD
Collision energy: 30 % (nominal)
Resolution: 17500
Column name: XBridge C18 3.5um, 2.1x50mm, Waters
Retention time: 5.301 min
Base peak: 305.1193
Precursor m/z: 305.1196
Precursor type: [M+H]+
m/z	relative intensity	assigned
139.0976	133	C6H11N4+
176.0583	40	C5H11N3O2P+
192.0356	26	C5H11N3OPS+
201.0534	909	C6H10N4O2P+
217.0312	40	C6H10N4OPS+
229.0847	41	C8H14N4O2P+
263.0724	119	C8H16N4O2PS+
277.088	239	C9H18N4O2PS+
305.1195	999	C11H22N4O2PS+
