Mass spectrum: DEET; LC-ESI-ITFT; MS2; CE: 45%; R=7500; [M+H]+
Name: DEET
Name: N,N-Diethyl-m-toluamide
Name: N,N-diethyl-3-methyl-benzamide
Formula: C12H17NO
Exact mass: 191.1305
SMILES: c1(C(N(CC)CC)=O)cc(C)ccc1
InChI: InChI=1S/C12H17NO/c1-4-13(5-2)12(14)11-8-6-7-10(3)9-11/h6-9H,4-5H2,1-3H3
Instrument: LTQ Orbitrap XL Thermo Scientific
Instrument type: LC-ESI-ITFT
Ms type: MS2
Ion mode: POSITIVE
Ionization: ESI
Fragmentation mode: HCD
Collision energy: 45 % (nominal)
Resolution: 7500
Column name: XBridge C18 3.5um, 2.1x50mm, Waters
Retention time: 8.6 min
Base peak: 192.1386
Precursor m/z: 192.1383
Precursor type: [M+H]+
m/z	relative intensity	assigned
65.0385	1	C5H5+
72.0444	39	C3H6NO+
72.0811	4	C4H10N+
91.0542	34	C7H7+
100.0757	44	C5H10NO+
119.0492	999	C8H7O+
192.1385	834	C12H18NO+
