Mass spectrum: Iopromide; LC-ESI-ITFT; MS2; CE: 45%; R=7500; [M+H]+
Name: Iopromide
Name: 1-N,3-N-bis(2,3-dihydroxypropyl)-2,4,6-triiodo-5-[(2-methoxyacetyl)amino]-3-N-methylbenzene-1,3-dicarboxamide
Formula: C18H24I3N3O8
Exact mass: 790.8698
SMILES: CN(CC(CO)O)C(=O)C1=C(C(=C(C(=C1I)C(=O)NCC(CO)O)I)NC(=O)COC)I
InChI: InChI=1S/C18H24I3N3O8/c1-24(4-9(28)6-26)18(31)12-13(19)11(17(30)22-3-8(27)5-25)14(20)16(15(12)21)23-10(29)7-32-2/h8-9,25-28H,3-7H2,1-2H3,(H,22,30)(H,23,29)
Instrument: LTQ Orbitrap XL Thermo Scientific
Instrument type: LC-ESI-ITFT
Ms type: MS2
Ion mode: POSITIVE
Ionization: ESI
Fragmentation mode: HCD
Collision energy: 45 % (nominal)
Resolution: 7500
Column name: XBridge C18 3.5um, 2.1x50mm, Waters
Retention time: 2.7 min
Base peak: 132.9579
Precursor m/z: 791.877
Precursor type: [M+H]+
m/z	relative intensity	assigned
70.0654	27	C4H8N+
172.0036	31	C9H2NO3+
255.9253	25	C8H3INO+
259.0713	52	C13H11N2O4+
277.0823	42	C13H13N2O5+
283.9196	23	C9H3INO2+
291.0981	31	C14H15N2O5+
298.9291	61	C6H6INO5+
299.9153	813	C9H3INO3+
312.9468	104	C10H6IN2O2+
313.9309	124	C10H5INO3+
315.9475	30	C10H7INO3+
317.9257	999	C9H5INO4+
325.9428	33	C12H7IO3+
326.9021	175	C10H2INO4+
331.9405	38	C10H7INO4+
344.9119	47	C10H4INO5+
357.9211	108	C11H5INO5+
372.9681	99	C12H10IN2O4+
386.9846	83	C13H12IN2O4+
400.9952	44	C11H16INO7+
404.9954	33	C13H14IN2O5+
413.8119	37	C8H2I2NO3+
423.7967	176	C9I2NO3+
441.8093	138	C12I2N2O+
485.8352	19	C11H6I2NO5+
527.8657	31	C10H12I2NO8+
558.8836	49	C13H22I3+
