Mass spectrum: Metazachlor; LC-ESI-ITFT; MS2; CE: 90%; R=7500; [M+H]+
Name: Metazachlor
Name: 2-chloranyl-N-(2,6-dimethylphenyl)-N-(pyrazol-1-ylmethyl)ethanamide
Formula: C14H16ClN3O
Exact mass: 277.0976
SMILES: N(c1c(cccc1C)C)(Cn1cccn1)C(CCl)=O
InChI: InChI=1S/C14H16ClN3O/c1-11-5-3-6-12(2)14(11)18(13(19)9-15)10-17-8-4-7-16-17/h3-8H,9-10H2,1-2H3
Instrument: LTQ Orbitrap XL Thermo Scientific
Instrument type: LC-ESI-ITFT
Ms type: MS2
Ion mode: POSITIVE
Ionization: ESI
Fragmentation mode: HCD
Collision energy: 90 % (nominal)
Resolution: 7500
Column name: XBridge C18 3.5um, 2.1x50mm, Waters
Retention time: 8.5 min
Base peak: 278.106
Precursor m/z: 278.1055
Precursor type: [M+H]+
m/z	relative intensity	assigned
76.9791	8	C2H2ClO+
77.0387	16	C6H5+
79.0543	63	C6H7+
91.0543	11	C7H7+
103.0543	32	C8H7+
105.07	586	C8H9+
106.0776	11	C8H10+
107.0856	16	C8H11+
117.057	5	C8H7N+
118.0656	3	C8H8N+
119.0732	11	C8H9N+
132.081	19	C9H10N+
133.0758	10	C8H9N2+
134.0966	999	C9H12N+
