Mass spectrum: Chlorpyrifos; LC-ESI-ITFT; MS2; CE: 90%; R=7500; [M+H]+
Name: Chlorpyrifos
Name: diethoxy-sulfanylidene-(3,5,6-trichloropyridin-2-yl)oxy-{5}-phosphane
Formula: C9H11Cl3NO3PS
Exact mass: 348.9263
SMILES: Clc1c(OP(=S)(OCC)OCC)nc(Cl)c(Cl)c1
InChI: InChI=1S/C9H11Cl3NO3PS/c1-3-14-17(18,15-4-2)16-9-7(11)5-6(10)8(12)13-9/h5H,3-4H2,1-2H3
Instrument: LTQ Orbitrap XL Thermo Scientific
Instrument type: LC-ESI-ITFT
Ms type: MS2
Ion mode: POSITIVE
Ionization: ESI
Fragmentation mode: HCD
Collision energy: 90 % (nominal)
Resolution: 7500
Column name: XBridge C18 3.5um, 2.1x50mm, Waters
Retention time: 16.0 min
Base peak: 349.9337
Precursor m/z: 349.9336
Precursor type: [M+H]+
m/z	relative intensity	assigned
64.9787	31	H2O2P+
78.9402	34	OPS+
96.9507	582	H2O2PS+
98.9845	5	CH4ClO3+
106.9449	572	C3HCl2+
110.9663	2	CH4O2PS+
114.9613	999	H4O3PS+
118.9449	19	C3HClOP+
122.9401	2	C3HCl2O+
128.9774	2	C2H6ClO2S+
133.9559	263	C4H2Cl2N+
134.9398	3	C4HCl2O+
141.9509	4	C4HNOPS+
143.9401	10	C4ClNOP+
149.9514	2	C4H2Cl2NO+
150.917	120	C4HCl2S+
161.9508	49	C5H2Cl2NO+
176.9198	12	C4HClNOPS+
177.9279	54	C5H2Cl2NS+
178.9355	8	C4H3ClNOPS+
179.917	121	C5HCl3N+
179.9614	144	C5H4Cl2NO2+
195.9392	5	C5H4Cl2NOS+
197.9273	294	C4H3Cl2NO2P+
211.8887	12	C4HCl2NOPS+
212.8963	9	C4H2Cl2NOPS+
213.9045	39	C4H3Cl2NOPS+
293.8853	3	C9H4Cl3NPS+
321.9201	14	C6H7Cl3N3O4S+
