Mass spectrum: Carbamazepine; LC-ESI-ITFT; MS2; CE: 90%; R=7500; [M+H]+
Name: Carbamazepine
Name: 5H-Dibenz[b,f]azepine-5-carboxamide
Name: 11-benzo[b][1]benzazepinecarboxamide
Formula: C15H12N2O
Exact mass: 236.0950
SMILES: N1(c2c(cccc2)C=Cc2c1cccc2)C(N)=O
InChI: InChI=1S/C15H12N2O/c16-15(18)17-13-7-3-1-5-11(13)9-10-12-6-2-4-8-14(12)17/h1-10H,(H2,16,18)
Instrument: LTQ Orbitrap XL Thermo Scientific
Instrument type: LC-ESI-ITFT
Ms type: MS2
Ion mode: POSITIVE
Ionization: ESI
Fragmentation mode: HCD
Collision energy: 90 % (nominal)
Resolution: 7500
Column name: XBridge C18 3.5um, 2.1x50mm, Waters
Retention time: 7.8 min
Base peak: 237.1026
Precursor m/z: 237.1022
Precursor type: [M+H]+
m/z	relative intensity	assigned
91.0541	26	C7H7+
116.0493	28	C8H6N+
117.0573	25	C8H7N+
151.0544	7	C12H7+
152.0619	89	C12H8+
165.0697	253	C13H9+
166.0649	20	C12H8N+
166.0776	22	C13H10+
167.0729	93	C12H9N+
176.0615	18	C14H8+
177.058	22	C13H7N+
178.0655	38	C13H8N+
179.0728	538	C13H9N+
190.0653	47	C14H8N+
191.0727	179	C14H9N+
192.0806	478	C14H10N+
193.0884	999	C14H11N+
194.0962	897	C14H12N+
