Mass spectrum: Flufenacet; LC-ESI-ITFT; MS2; CE: 90%; R=30000; [M+H]+
Name: Flufenacet
Name: N-(4-fluorophenyl)-N-isopropyl-2-[[5-(trifluoromethyl)-1,3,4-thiadiazol-2-yl]oxy]acetamide
Formula: C14H13F4N3O2S
Exact mass: 363.0670
SMILES: O=C(COc1nnc(s1)C(F)(F)F)N(c2ccc(F)cc2)C(C)C
InChI: InChI=1S/C14H13F4N3O2S/c1-8(2)21(10-5-3-9(15)4-6-10)11(22)7-23-13-20-19-12(24-13)14(16,17)18/h3-6,8H,7H2,1-2H3
Instrument: LTQ Orbitrap XL Thermo Scientific
Instrument type: LC-ESI-ITFT
Ms type: MS2
Ion mode: POSITIVE
Ionization: ESI
Fragmentation mode: HCD
Collision energy: 90 % (nominal)
Resolution: 30000
Column name: XBridge C18 3.5um, 2.1x50mm, Waters
Retention time: 11.7 min
Base peak: 386.0556
Precursor m/z: 364.0737
Precursor type: [M+H]+
m/z	relative intensity	assigned
71.0291	3	C4H4F+
77.0385	52	C6H5+
83.0291	38	C5H4F+
95.049	5	CH6FN3O+
96.0369	46	CH4F2N3+
97.0447	425	C6H6F+
104.0494	50	C7H6N+
105.0446	14	C6H5N2+
107.029	16	C2H3F2N3+
109.0447	338	C7H6F+
110.0399	24	C3H10O2S+
111.0479	5	C6H6FN+
112.0555	10	C6H7FN+
114.0349	5	C5H5FNO+
115.0541	12	C4H6FN3+
123.024	117	C7H4FO+
123.0352	57	C6H4FN2+
124.0556	999	C7H7FN+
125.0397	6	C7H6FO+
132.0444	9	C8H6NO+
133.0447	4	C9H6F+
134.0399	31	C8H5FN+
135.0477	16	C8H6FN+
135.0604	3	C9H8F+
136.0555	21	C8H7FN+
137.0634	11	C8H8FN+
147.0389	2	C5H8FN2S+
151.0426	11	C8H6FNO+
152.0505	84	C8H7FNO+
152.0869	51	C9H11FN+
