Mass spectrum: Sulfapyridine; LC-ESI-ITFT; MS2; CE: 90%; R=30000; [M+H]+
Name: Sulfapyridine
Name: 2-Sulfapyridine
Name: 4-amino-N-(2-pyridinyl)benzenesulfonamide
Formula: C11H11N3O2S
Exact mass: 249.0572
SMILES: c1(S(Nc2ccccn2)(=O)=O)ccc(N)cc1
InChI: InChI=1S/C11H11N3O2S/c12-9-4-6-10(7-5-9)17(15,16)14-11-3-1-2-8-13-11/h1-8H,12H2,(H,13,14)
Instrument: LTQ Orbitrap XL Thermo Scientific
Instrument type: LC-ESI-ITFT
Ms type: MS2
Ion mode: POSITIVE
Ionization: ESI
Fragmentation mode: HCD
Collision energy: 90 % (nominal)
Resolution: 30000
Column name: XBridge C18 3.5um, 2.1x50mm, Waters
Retention time: 2.9 min
Base peak: 250.0651
Precursor m/z: 250.0645
Precursor type: [M+H]+
m/z	relative intensity	assigned
65.0386	660	C5H5+
66.0338	8	C4H4N+
67.0416	80	C4H5N+
68.0495	36	C4H6N+
78.0338	26	C5H4N+
79.0178	5	C5H3O+
80.0495	132	C5H6N+
92.0495	999	C6H6N+
93.0447	38	C5H5N2+
93.0573	103	C6H7N+
94.0525	130	C5H6N2+
95.0604	470	C5H7N2+
96.0444	49	C5H6NO+
108.0444	896	C6H6NO+
110.06	99	C6H8NO+
156.012	4	C6H6NO2S+
157.076	13	C10H9N2+
167.0603	116	C11H7N2+
168.0682	48	C11H8N2+
183.079	46	C11H9N3+
184.0868	135	C11H10N3+
