Mass spectrum: Ketoprofen; LC-ESI-ITFT; MS2; CE: 60%; R=7500; [M+H]+
Name: Ketoprofen
Name: 2-(3-benzoylphenyl)propanoic acid
Formula: C16H14O3
Exact mass: 254.0943
SMILES: CC(C1=CC=CC(=C1)C(=O)C2=CC=CC=C2)C(=O)O
InChI: InChI=1S/C16H14O3/c1-11(16(18)19)13-8-5-9-14(10-13)15(17)12-6-3-2-4-7-12/h2-11H,1H3,(H,18,19)
Instrument: LTQ Orbitrap XL Thermo Scientific
Instrument type: LC-ESI-ITFT
Ms type: MS2
Ion mode: POSITIVE
Ionization: ESI
Fragmentation mode: HCD
Collision energy: 60 % (nominal)
Resolution: 7500
Column name: XBridge C18 3.5um, 2.1x50mm, Waters
Retention time: 9.6 min
Base peak: 277.0843
Precursor m/z: 255.1016
Precursor type: [M+H]+
m/z	relative intensity	assigned
53.0387	10	C4H5+
77.0386	99	C6H5+
93.0697	8	C7H9+
95.0494	9	C6H7O+
103.0543	48	C8H7+
105.0336	999	C7H5O+
121.0648	13	C8H9O+
131.0493	60	C9H7O+
131.0609	5	C8H7N2+
149.0599	6	C9H9O2+
165.07	6	C13H9+
166.0781	8	C13H10+
177.055	158	C10H9O3+
181.1008	9	C14H13+
191.0848	8	C15H11+
194.0727	121	C14H10O+
209.0961	148	C15H13O+
