Mass spectrum: Mebendazole; LC-ESI-QFT; MS2; CE: 150; R=35000; [M+H]+
Name: Mebendazole
Name: methyl N-(6-benzoyl-1H-benzimidazol-2-yl)carbamate
Formula: C16H13N3O3
Exact mass: 295.09569
SMILES: COC(=O)NC1=NC2=C(N1)C=C(C=C2)C(=O)C3=CC=CC=C3
InChI: InChI=1S/C16H13N3O3/c1-22-16(21)19-15-17-12-8-7-11(9-13(12)18-15)14(20)10-5-3-2-4-6-10/h2-9H,1H3,(H2,17,18,19,21)
Instrument: Q Exactive Plus Orbitrap Thermo Scientific
Instrument type: LC-ESI-QFT
Ms type: MS2
Ion mode: POSITIVE
Ionization: ESI
Fragmentation mode: HCD
Collision energy: 150 (nominal)
Resolution: 35000
Column name: XBridge C18 3.5um, 2.1x50mm, Waters
Retention time: 7.6 min
Base peak: 296.1024
Precursor m/z: 296.103
Precursor type: [M+H]+
m/z	relative intensity	assigned
50.0152	449	C4H2+
51.023	377	C4H3+
52.0182	26	C3H2N+
52.0308	6	C4H4+
53.0386	334	C4H5+
53.9975	4	C2NO+
54.0339	2	C3H4N+
55.0179	23	C3H3O+
55.0291	2	C2H3N2+
62.0151	20	C5H2+
63.023	62	C5H3+
64.0182	35	C4H2N+
64.0308	18	C5H4+
65.0022	29	C4HO+
65.026	12	C4H3N+
65.0387	13	C5H5+
66.0101	5	C4H2O+
66.0464	4	C5H6+
67.0417	32	C4H5N+
67.0543	4	C5H7+
68.0257	1	C4H4O+
68.0495	4	C4H6N+
68.9972	1	C3HO2+
69.0084	21	C2HN2O+
74.0151	1	C6H2+
75.0104	8	C5HN+
75.023	12	C6H3+
76.0182	233	C5H2N+
77.026	614	C5H3N+
77.0386	827	C6H5+
78.0339	187	C5H4N+
79.0417	28	C5H5N+
80.037	5	C4H4N2+
81.0336	36	C5H5O+
87.023	1	C7H3+
88.0182	7	C6H2N+
89.0261	12	C6H3N+
89.0387	21	C7H5+
90.034	28	C6H4N+
91.0418	17	C6H5N+
91.0542	7	C7H7+
92.0496	2	C6H6N+
93.0696	1	C7H9+
94.0289	7	C5H4NO+
94.0415	17	C6H6O+
95.0492	944	C6H7O+
96.0445	22	C5H6NO+
102.0338	6	C7H4N+
102.0468	1	C8H6+
103.0292	112	C6H3N2+
103.0417	7	C7H5N+
104.037	317	C6H4N2+
105.0448	999	C6H5N2+
109.065	4	C7H9O+
113.0386	21	C9H5+
114.0339	1	C8H4N+
115.0543	49	C9H7+
116.037	16	C7H4N2+
116.0495	1	C8H6N+
117.045	2	C7H5N2+
118.0528	2	C7H6N2+
119.0604	2	C7H7N2+
120.0321	2	C6H4N2O+
121.0398	27	C6H5N2O+
122.0476	2	C6H6N2O+
125.0387	4	C10H5+
126.0465	6	C10H6+
127.0543	16	C10H7+
128.0493	4	C9H6N+
128.0622	15	C10H8+
129.0447	5	C8H5N2+
130.0402	127	C7H4N3+
131.0241	15	C7H3N2O+
131.048	98	C7H5N3+
132.0557	7	C7H6N3+
135.0553	2	C7H7N2O+
136.0269	25	C6H4N2O2+
137.0385	1	C11H5+
138.0464	2	C11H6+
139.0544	77	C11H7+
140.0496	72	C10H6N+
145.0511	2	C7H5N4+
145.0649	7	C10H9O+
146.0602	2	C9H8NO+
150.0465	7	C12H6+
150.0662	2	C7H8N3O+
151.0544	1	C12H7+
153.0573	13	C11H7N+
154.0651	7	C11H8N+
155.0606	27	C10H7N2+
158.035	4	C8H4N3O+
159.0429	22	C8H5N3O+
164.0496	20	C12H6N+
165.0447	2	C11H5N2+
165.0573	1	C12H7N+
166.0653	18	C12H8N+
167.0732	10	C12H9N+
169.0649	1	C12H9O+
174.0298	1	C8H4N3O2+
177.0574	2	C13H7N+
179.0605	2	C12H7N2+
181.0759	1	C12H9N2+
191.0327	11	C8H5N3O3+
191.0603	4	C13H7N2+
192.0682	2	C13H8N2+
