Mass spectrum: Benzenesulfonamide; LC-ESI-QFT; MS2; CE: 120; R=35000; [M+H]+
Name: Benzenesulfonamide
Name: Benzenesulfonimidic acid
Formula: C6H7NO2S
Exact mass: 157.01975
SMILES: c1ccc(cc1)S(=N)(=O)O
InChI: InChI=1S/C6H7NO2S/c7-10(8,9)6-4-2-1-3-5-6/h1-5H,(H2,7,8,9)
Instrument: Q Exactive Plus Orbitrap Thermo Scientific
Instrument type: LC-ESI-QFT
Ms type: MS2
Ion mode: POSITIVE
Ionization: ESI
Fragmentation mode: HCD
Collision energy: 120 (nominal)
Resolution: 35000
Column name: XBridge C18 3.5um, 2.1x50mm, Waters
Retention time: 3.1 min
Base peak: 158.0266
Precursor m/z: 158.027
Precursor type: [M+H]+
m/z	relative intensity	assigned
50.0151	422	C4H2+
51.0229	620	C4H3+
53.0386	337	C4H5+
55.0178	20	C3H3O+
65.0021	16	C4HO+
65.0385	1	C5H5+
66.0099	1	C4H2O+
67.0542	7	C5H7+
68.9971	3	C3HO2+
75.0229	3	C6H3+
77.0385	891	C6H5+
79.98	3	H2NO2S+
80.0255	1	C5H4O+
81.0334	41	C5H5O+
94.0412	5	C6H6O+
95.0491	999	C6H7O+
105.0447	711	C6H5N2+
