Mass spectrum: Memantine; LC-ESI-QFT; MS2; CE: 90; R=35000; [M+H]+
Name: Memantine
Name: 3,5-dimethyladamantan-1-amine
Formula: C12H21N
Exact mass: 179.16740
SMILES: CC12CC3CC(C1)(CC(C3)(C2)N)C
InChI: InChI=1S/C12H21N/c1-10-3-9-4-11(2,6-10)8-12(13,5-9)7-10/h9H,3-8,13H2,1-2H3
Instrument: Q Exactive Plus Orbitrap Thermo Scientific
Instrument type: LC-ESI-QFT
Ms type: MS2
Ion mode: POSITIVE
Ionization: ESI
Fragmentation mode: HCD
Collision energy: 90 (nominal)
Resolution: 35000
Column name: XBridge C18 3.5um, 2.1x50mm, Waters
Retention time: 6.7 min
Base peak: 180.1746
Precursor m/z: 180.1747
Precursor type: [M+H]+
m/z	relative intensity	assigned
53.0386	3	C4H5+
55.0543	22	C4H7+
57.0699	2	C4H9+
65.0386	11	C5H5+
67.0542	18	C5H7+
69.0699	48	C5H9+
77.0386	7	C6H5+
79.0542	79	C6H7+
81.0699	65	C6H9+
83.0855	13	C6H11+
91.0543	183	C7H7+
92.0621	4	C7H8+
93.07	147	C7H9+
95.0492	9	C6H7O+
95.0856	74	C7H11+
105.07	97	C8H9+
106.0414	2	C7H6O+
107.0855	999	C8H11+
108.0934	1	C8H12+
109.0648	52	C7H9O+
109.1012	3	C8H13+
119.0605	40	C7H7N2+
119.0855	7	C9H11+
121.1012	79	C9H13+
123.0806	1	C8H11O+
135.1169	24	C10H15+
161.1323	1	C12H17+
163.1482	141	C12H19+
