Mass spectrum: Diphenylamine; LC-ESI-QFT; MS2; CE: 30; R=35000; [M+H]+
Name: Diphenylamine
Name: N-phenylaniline
Formula: C12H11N
Exact mass: 169.08915
SMILES: c1(Nc2ccccc2)ccccc1
InChI: InChI=1S/C12H11N/c1-3-7-11(8-4-1)13-12-9-5-2-6-10-12/h1-10,13H
Instrument: Q Exactive Orbitrap Thermo Scientific
Instrument type: LC-ESI-QFT
Ms type: MS2
Ion mode: POSITIVE
Ionization: ESI
Fragmentation mode: HCD
Collision energy: 30 (nominal)
Resolution: 35000
Column name: XBridge C18 3.5um, 2.1x50mm, Waters
Retention time: 11.3 min
Base peak: 170.0964
Precursor m/z: 170.0964
Precursor type: [M+H]+
m/z	relative intensity	assigned
92.0494	24	C6H6N+
93.0571	26	C6H7N+
153.0701	2	C12H9+
169.0886	1	C12H11N+
170.0965	999	C12H12N+
