Mass spectrum: Haloxyfop; LC-ESI-QFT; MS2; CE: 75; R=35000; [M+H]+
Name: Haloxyfop
Name: 2-[4-[3-chloro-5-(trifluoromethyl)pyridin-2-yl]oxyphenoxy]propanoic acid
Formula: C15H11ClF3NO4
Exact mass: 361.03287
SMILES: CC(C(=O)O)OC1=CC=C(C=C1)OC2=C(C=C(C=N2)C(F)(F)F)Cl
InChI: InChI=1S/C15H11ClF3NO4/c1-8(14(21)22)23-10-2-4-11(5-3-10)24-13-12(16)6-9(7-20-13)15(17,18)19/h2-8H,1H3,(H,21,22)
Instrument: Q Exactive Plus Orbitrap Thermo Scientific
Instrument type: LC-ESI-QFT
Ms type: MS2
Ion mode: POSITIVE
Ionization: ESI
Fragmentation mode: HCD
Collision energy: 75 (nominal)
Resolution: 35000
Column name: XBridge C18 3.5um, 2.1x50mm, Waters
Retention time: 13.6 min
Base peak: 391.2839
Precursor m/z: 362.0401
Precursor type: [M+H]+
m/z	relative intensity	assigned
50.015	2	C4H2+
51.023	3	C4H3+
53.0023	4	C3HO+
53.0386	9	C4H5+
54.0465	4	C4H6+
55.0179	19	C3H3O+
55.0543	5	C4H7+
57.0699	1	C4H9+
60.0809	1	C3H10N+
62.0151	1	C5H2+
63.023	40	C5H3+
64.0308	9	C5H4+
65.0386	527	C5H5+
66.0465	4	C5H6+
67.0544	6	C5H7+
69.0336	1	C4H5O+
69.07	1	C5H9+
72.984	4	C3H2Cl+
73.0284	6	C3H5O2+
74.0151	7	C6H2+
75.023	80	C6H3+
77.0386	4	C6H5+
79.0178	3	C5H3O+
79.0543	11	C6H7+
80.0621	3	C6H8+
81.0336	34	C5H5O+
81.07	5	C6H9+
83.0491	3	C5H7O+
90.034	8	C6H4N+
90.0465	1	C7H6+
91.0543	999	C7H7+
92.0258	78	C6H4O+
92.037	4	C5H4N2+
92.0621	11	C7H8+
93.0336	6	C6H5O+
93.07	6	C7H9+
94.0414	33	C6H6O+
95.0493	16	C6H7O+
98.9843	8	CH4ClO3+
102.0464	4	C8H6+
103.0542	1	C8H7+
105.0336	1	C7H5O+
105.0448	11	C6H5N2+
107.0103	1	C4H2F3+
107.0492	1	C7H7O+
108.0444	1	C6H6NO+
109.0285	53	C6H5O2+
109.0649	4	C7H9O+
110.0364	4	C6H6O2+
111.0441	18	C6H7O2+
119.0368	8	C7H5NO+
119.0493	22	C8H7O+
119.0606	3	C7H7N2+
120.0446	7	C7H6NO+
120.057	10	C8H8O+
121.0285	48	C7H5O2+
121.0396	10	C6H5N2O+
121.0648	11	C8H9O+
131.0492	1	C9H7O+
137.9745	1	C6HClNO+
140.0495	13	C10H6N+
141.9793	7	C4H2ClF3+
142.0101	1	C6H2F2NO+
146.0216	1	C2H9ClNO4+
149.0086	1	C5H2F3NO+
149.9919	1	C5H3ClF2N+
150.0166	2	C5H3F3NO+
151.0356	4	C9H5F2+
154.0655	1	C11H8N+
156.0445	7	C10H6NO+
157.0524	10	C10H7NO+
157.9806	4	C6H2ClFNO+
158.0402	9	C10H5FN+
159.0479	3	C10H6FN+
159.9763	3	C6HClF2N+
164.0258	1	C12H4O+
164.0319	1	C6H5F3NO+
165.0104	1	C9H6ClO+
166.0656	4	C12H8N+
168.0446	18	C11H6NO+
168.9904	3	C5H3ClF3N+
169.9743	1	C5H2ClF3O+
171.0415	6	C9H6F3+
175.0185	27	C10H6ClN+
176.0511	1	C10H7FNO+
177.9868	4	C6H3ClF2NO+
178.0465	18	C10H6F2N+
179.0306	1	C7H8ClF2N+
179.9824	16	C6H2ClF3N+
180.9902	1	C6H3ClF3N+
181.9981	5	C6H4ClF3N+
182.0339	8	C10H5F3+
183.0682	1	C12H9NO+
184.0561	1	C12H7FN+
184.0761	1	C12H10NO+
185.0451	7	C5H12ClNO4+
186.0353	3	C11H5FNO+
187.043	7	C11H6FNO+
188.0309	6	C8H5F3NO+
189.0386	25	C11H5F2N+
190.0468	12	C11H6F2N+
192.0212	28	C10H7ClNO+
195.0063	3	C7H5ClF3N+
196.9855	1	C6H3ClF3NO+
197.993	109	C6H4ClF3NO+
198.0526	20	C10H7F3N+
199.0367	40	C10H6F3O+
201.0401	4	C9H6F3NO+
203.0135	23	C11H6ClNO+
204.021	1	C11H7ClNO+
205.9985	5	C8H4ClF3N+
206.0414	45	C11H6F2NO+
208.0371	26	C7H11ClNO4+
209.045	189	C7H12ClNO4+
210.0529	4	C11H7F3N+
212.0082	4	C7H6ClF3NO+
212.0708	1	C13H10NO2+
213.9995	3	C10H5ClF2O+
215.0545	1	C13H7F2N+
216.0259	117	C12H4F2NO+
217.0335	12	C12H5F2NO+
218.0419	15	C12H6F2NO+
219.006	19	C9H5ClF3N+
220.0147	6	C14H4O3+
220.0326	1	C12H8ClFN+
221.0243	1	C11H6FO4+
222.0118	13	C11H6ClFNO+
224.0076	18	C11H5ClF2N+
224.0687	3	C12H9F3N+
225.0399	1	C11H6F3NO+
226.0477	86	C11H7F3NO+
232.0138	29	C10H6ClF3N+
233.9929	1	C9H4ClF3NO+
234.0368	1	C12H6F2NO2+
234.0526	3	C13H7F3N+
235.0031	12	C11H6ClNO3+
235.0605	15	C13H8F3N+
236.0082	3	C12H3F3O2+
236.0321	5	C12H5F3NO+
237.0399	49	C12H6F3NO+
238.0476	3	C12H7F3NO+
243.0059	9	C11H5ClF3N+
244.0139	15	C11H6ClF3N+
245.0218	11	C11H7ClF3N+
246.0316	10	C13H9ClNO2+
247.0396	1	C13H10ClNO2+
248.028	1	C13H6F2O3+
252.0632	6	C13H9F3NO+
254.0426	22	C12H7F3NO2+
260.009	15	C11H6ClF3NO+
260.0454	1	C12H10ClF3N+
261.0166	23	C11H7ClF3NO+
269.9927	1	C12H4ClF3NO+
270.0297	4	C13H8ClF3N+
272.0087	351	C15H3F3O2+
280.0581	1	C14H9F3NO2+
288.0036	486	C12H6ClF3NO2+
289.0115	1	C12H7ClF3NO2+
290.0195	1	C12H8ClF3NO2+
