Mass spectrum: Heptenophos; LC-ESI-QFT; MS2; CE: 45; R=35000; [M+H]+
Name: Heptenophos
Name: (6-chloranyl-7-bicyclo[3.2.0]hepta-3,6-dienyl) dimethyl phosphate
Name: Ragadan
Formula: C9H12ClO4P
Exact mass: 250.01617
SMILES: COP(=O)(OC)OC1=C(Cl)C2C=CCC12
InChI: InChI=1S/C9H12ClO4P/c1-12-15(11,13-2)14-9-7-5-3-4-6(7)8(9)10/h3-4,6-7H,5H2,1-2H3
Instrument: Q Exactive Orbitrap Thermo Scientific
Instrument type: LC-ESI-QFT
Ms type: MS2
Ion mode: POSITIVE
Ionization: ESI
Fragmentation mode: HCD
Collision energy: 45 (nominal)
Resolution: 35000
Column name: XBridge C18 3.5um, 2.1x50mm, Waters
Retention time: 9.1 min
Base peak: 251.0238
Precursor m/z: 251.0234
Precursor type: [M+H]+
m/z	relative intensity	assigned
63.0229	3	C5H3+
65.0387	1	C5H5+
66.0465	1	C5H6+
72.9839	1	C3H2Cl+
78.9944	4	CH4O2P+
79.0542	1	C6H7+
89.0386	142	C7H5+
90.0464	17	C7H6+
91.0542	2	C7H7+
98.9996	42	C5H4Cl+
103.0541	1	C8H7+
105.07	2	C8H9+
112.9998	15	CH6O4P+
121.0647	3	C8H9O+
125.0154	499	C7H6Cl+
127.0155	999	C2H8O4P+
135.0805	1	C9H11O+
145.0263	3	C2H10O5P+
203.9738	2	C7H6ClO3P+
215.0467	2	C9H12O4P+
218.9971	2	C8H9ClO3P+
251.0237	2	C9H13ClO4P+
