Mass spectrum: Metolachlor; LC-ESI-ITFT; MS2; CE: 75%; R=15000; [M+H]+
Name: Metolachlor
Name: 2-chloranyl-N-(2-ethyl-6-methyl-phenyl)-N-(1-methoxypropan-2-yl)ethanamide
Formula: C15H22ClNO2
Exact mass: 283.1334
SMILES: CCC1=CC=CC(=C1N(C(C)COC)C(=O)CCl)C
InChI: InChI=1S/C15H22ClNO2/c1-5-13-8-6-7-11(2)15(13)17(14(18)9-16)12(3)10-19-4/h6-8,12H,5,9-10H2,1-4H3
Instrument: LTQ Orbitrap XL Thermo Scientific
Instrument type: LC-ESI-ITFT
Ms type: MS2
Ion mode: POSITIVE
Ionization: ESI
Fragmentation mode: HCD
Collision energy: 75 % (nominal)
Resolution: 15000
Column name: XBridge C18 3.5um, 2.1x50mm, Waters
Retention time: 11.8 min
Base peak: 306.1236
Precursor m/z: 284.1412
Precursor type: [M+H]+
m/z	relative intensity	assigned
73.0648	96	C4H9O+
76.9789	23	C2H2ClO+
91.0543	125	C7H7+
93.0696	29	C7H9+
105.0701	22	C8H9+
107.0857	16	C8H11+
108.0807	99	C7H10N+
109.0648	31	C7H9O+
117.0699	101	C9H9+
118.0651	35	C8H8N+
119.073	78	C8H9N+
119.0855	100	C9H11+
120.0808	100	C8H10N+
130.065	39	C9H8N+
131.073	59	C9H9N+
132.0807	96	C9H10N+
133.0886	316	C9H11N+
134.0964	612	C9H12N+
136.1125	16	C9H14N+
143.073	47	C10H9N+
144.0809	101	C10H10N+
145.0888	82	C10H11N+
146.0595	17	C9H8NO+
146.0964	294	C10H12N+
147.1043	52	C10H13N+
148.1121	68	C10H14N+
158.0964	138	C11H12N+
159.1043	92	C11H13N+
160.1121	264	C11H14N+
162.0913	59	C10H12NO+
174.1276	19	C12H16N+
176.1434	999	C12H18N+
184.0524	186	C9H11ClNO+
194.0737	28	C11H13ClN+
202.1236	17	C13H16NO+
212.0834	18	C11H15ClNO+
252.1151	157	C14H19ClNO+
