Mass spectrum: Pyrithione; LC-ESI-QFT; MS2; CE: 180%; R=17500; [M+H]+
Name: Pyrithione
Name: 1-hydroxypyridine-2-thione
Formula: C5H5NOS
Exact mass: 127.0092
SMILES: C1=CC(=S)N(C=C1)O
InChI: InChI=1S/C5H5NOS/c7-6-4-2-1-3-5(6)8/h1-4,7H
Instrument: Exploris 240 Orbitrap Thermo Scientific
Instrument type: LC-ESI-QFT
Ms type: MS2
Ion mode: POSITIVE
Ionization: ESI
Fragmentation mode: HCD
Collision energy: 180 % (nominal)
Resolution: 17500
Column name: XBridge C18 3.5um, 2.1x50mm, Waters
Retention time: 2.993 min
Base peak: 128.0164
Precursor m/z: 128.0165
Precursor type: [M+H]+
m/z	relative intensity	assigned
41.026	64	C2H3N+
44.9793	10	CHS+
51.0229	132	C4H3+
52.0182	14	C3H2N+
52.0307	4	C4H4+
57.9871	14	C2H2S+
66.0339	12	C4H4N+
67.0417	999	C4H5N+
68.9794	40	C3HS+
78.0339	105	C5H4N+
82.995	44	C4H3S+
83.9903	17	C3H2NS+
96.0444	49	C5H6NO+
110.0059	21	C5H4NS+
