Mass spectrum: Oseltamivir carboxylate; LC-ESI-ITFT; MS2; CE: 45%; R=7500; [M+H]+
Name: Oseltamivir carboxylate
Name: (3R,4R,5S)-4-acetamido-5-amino-3-pentan-3-yloxycyclohexene-1-carboxylic acid
Formula: C14H24N2O4
Exact mass: 284.1736
SMILES: CCC(CC)O[C@@H]1C=C(C[C@@H]([C@H]1NC(=O)C)N)C(=O)O
InChI: InChI=1S/C14H24N2O4/c1-4-10(5-2)20-12-7-9(14(18)19)6-11(15)13(12)16-8(3)17/h7,10-13H,4-6,15H2,1-3H3,(H,16,17)(H,18,19)/t11-,12+,13+/m0/s1
Instrument: LTQ Orbitrap XL Thermo Scientific
Instrument type: LC-ESI-ITFT
Ms type: MS2
Ion mode: POSITIVE
Ionization: ESI
Fragmentation mode: HCD
Collision energy: 45 % (nominal)
Resolution: 7500
Column name: XBridge C18 3.5um, 2.1x50mm, Waters
Retention time: 5.1 min
Base peak: 285.1822
Precursor m/z: 285.1809
Precursor type: [M+H]+
m/z	relative intensity	assigned
60.0444	25	C2H6NO+
65.0385	11	C5H5+
67.0542	24	C5H7+
68.0495	11	C4H6N+
83.0493	6	C5H7O+
92.0493	13	C6H6N+
93.0335	31	C6H5O+
94.0652	359	C6H8N+
95.049	14	C6H7O+
109.0763	22	C6H9N2+
110.0602	15	C6H8NO+
111.044	36	C6H7O2+
111.0922	3	C6H11N2+
119.0605	12	C7H7N2+
120.0444	296	C7H6NO+
121.0284	8	C7H5O2+
136.0757	31	C8H10NO+
137.071	222	C7H9N2O+
138.0551	999	C7H8NO2+
139.0387	17	C7H7O3+
155.0816	19	C7H11N2O2+
156.0656	34	C7H10NO3+
161.0713	13	C9H9N2O+
162.055	80	C9H8NO2+
179.0815	18	C9H11N2O2+
180.0656	148	C9H10NO3+
197.0925	39	C9H13N2O3+
198.0761	182	C9H12NO4+
215.103	6	C9H15N2O4+
