Mass spectrum: 4-Aminoantipyrine; LC-ESI-ITFT; MS2; CE: 60%; R=7500; [M+H]+
Name: 4-Aminoantipyrine
Name: 4-amino-1,5-dimethyl-2-phenyl-3-pyrazolin-3-one
Formula: C11H13N3O
Exact mass: 203.1059
SMILES: c(ccc1N(N(C=2C)C)C(=O)C2N)cc1
InChI: InChI=1S/C11H13N3O/c1-8-10(12)11(15)14(13(8)2)9-6-4-3-5-7-9/h3-7H,12H2,1-2H3
Instrument: LTQ Orbitrap XL Thermo Scientific
Instrument type: LC-ESI-ITFT
Ms type: MS2
Ion mode: POSITIVE
Ionization: ESI
Fragmentation mode: HCD
Collision energy: 60 % (nominal)
Resolution: 7500
Column name: XBridge C18 3.5um, 2.1x50mm, Waters
Retention time: 2.6 min
Base peak: 204.1138
Precursor m/z: 204.1131
Precursor type: [M+H]+
m/z	relative intensity	assigned
56.0495	999	C3H6N+
58.0652	43	C3H8N+
68.0495	21	C4H6N+
77.0385	19	C6H5+
83.0605	171	C4H7N2+
85.0761	79	C4H9N2+
94.0652	378	C6H8N+
104.0495	99	C7H6N+
111.0554	16	C5H7N2O+
118.0652	30	C8H8N+
128.0499	20	C9H6N+
130.0652	19	C9H8N+
132.0443	13	C8H6NO+
132.0809	18	C9H10N+
142.0648	10	C10H8N+
145.0763	35	C9H9N2+
146.0602	106	C9H8NO+
158.0596	18	C10H8NO+
159.0918	141	C10H11N2+
160.0865	7	C9H10N3+
173.0713	13	C10H9N2O+
187.0871	35	C11H11N2O+
188.0823	6	C10H10N3O+
189.0904	40	C10H11N3O+
