Mass spectrum: Methiocarb; LC-ESI-ITFT; MS2; CE: 90%; R=7500; [M+H]+
Name: Methiocarb
Name: (3,5-dimethyl-4-methylsulfanyl-phenyl) N-methylcarbamate
Formula: C11H15NO2S
Exact mass: 225.0823
SMILES: O=C(Oc1cc(c(SC)c(c1)C)C)NC
InChI: InChI=1S/C11H15NO2S/c1-7-5-9(14-11(13)12-3)6-8(2)10(7)15-4/h5-6H,1-4H3,(H,12,13)
Instrument: LTQ Orbitrap XL Thermo Scientific
Instrument type: LC-ESI-ITFT
Ms type: MS2
Ion mode: POSITIVE
Ionization: ESI
Fragmentation mode: HCD
Collision energy: 90 % (nominal)
Resolution: 7500
Column name: XBridge C18 3.5um, 2.1x50mm, Waters
Retention time: 10.4 min
Base peak: 226.0902
Precursor m/z: 226.0896
Precursor type: [M+H]+
m/z	relative intensity	assigned
51.0228	4	C4H3+
53.0386	49	C4H5+
58.029	7	C2H4NO+
65.0386	9	C5H5+
67.0543	20	C5H7+
77.0386	599	C6H5+
78.0466	23	C6H6+
79.0543	73	C6H7+
81.0335	8	C5H5O+
91.0543	738	C7H7+
92.0622	5	C7H8+
93.0699	516	C7H9+
94.0777	25	C7H10+
95.0492	45	C6H7O+
95.0853	4	C7H11+
103.0542	42	C8H7+
104.0621	26	C8H8+
105.0447	275	C6H5N2+
107.0492	971	C7H7O+
108.0569	10	C7H8O+
109.0647	15	C7H9O+
111.0263	16	C6H7S+
120.0573	2	C8H8O+
121.0649	999	C8H9O+
122.0726	965	C8H10O+
123.0807	12	C8H11O+
125.0414	9	C7H9S+
126.0497	11	C7H10S+
139.0215	10	C7H7OS+
153.036	9	C6H7N3S+
154.0447	66	C8H10OS+
