Mass spectrum: Dronedarone; LC-ESI-ITFT; MS2; CE: 60%; R=7500; [M+H]+
Name: Dronedarone
Name: N-[2-butyl-3-[4-[3-(dibutylamino)propoxy]benzoyl]-1-benzofuran-5-yl]methanesulfonamide
Formula: C31H44N2O5S
Exact mass: 556.2971
SMILES: CS(=O)(=O)Nc1cc2c(c(oc2cc1)CCCC)C(c1ccc(cc1)OCCCN(CCCC)CCCC)=O
InChI: InChI=1S/C31H44N2O5S/c1-5-8-12-29-30(27-23-25(32-39(4,35)36)15-18-28(27)38-29)31(34)24-13-16-26(17-14-24)37-22-11-21-33(19-9-6-2)20-10-7-3/h13-18,23,32H,5-12,19-22H2,1-4H3
Instrument: LTQ Orbitrap XL Thermo Scientific
Instrument type: LC-ESI-ITFT
Ms type: MS2
Ion mode: POSITIVE
Ionization: ESI
Fragmentation mode: HCD
Collision energy: 60 % (nominal)
Resolution: 7500
Column name: XBridge C18 3.5um, 2.1x50mm, Waters
Retention time: 11.5 min
Base peak: 557.3051
Precursor m/z: 557.3044
Precursor type: [M+H]+
m/z	relative intensity	assigned
57.0697	8	C4H9+
58.0651	536	C3H8N+
70.0652	8	C4H8N+
72.0808	16	C4H10N+
84.0806	6	C5H10N+
86.0965	47	C5H12N+
100.1121	999	C6H14N+
101.1154	30	
112.112	15	C7H14N+
114.1277	128	C7H16N+
121.0285	28	C7H5O2+
126.1275	2	C8H16N+
128.1433	70	C8H18N+
130.1586	3	C8H20N+
133.0283	2	C8H5O2+
142.159	238	C9H20N+
145.052	3	C9H7NO+
147.0439	21	C9H7O2+
161.0597	32	C10H9O2+
170.1901	18	C11H24N+
173.0473	12	C10H7NO2+
174.0554	8	C10H8NO2+
186.0547	4	C11H8NO2+
186.0911	3	C12H12NO+
215.094	43	C13H13NO2+
216.1024	20	C7H20O5S+
238.0858	4	C15H12NO2+
249.078	3	C16H11NO2+
250.0863	6	C16H12NO2+
251.0949	2	C10H19O5S+
252.0328	8	C11H10NO4S+
252.1016	2	C16H14NO2+
262.0845	1	C14H14O5+
265.0733	6	C16H11NO3+
266.0816	4	C16H12NO3+
278.0807	8	C17H12NO3+
279.0889	4	C17H13NO3+
280.0957	8	C17H14NO3+
292.0963	2	C18H14NO3+
294.0793	12	C14H16NO4S+
306.1122	2	C19H16NO3+
324.1586	3	C20H22NO3+
336.1589	15	C21H22NO3+
