Mass spectrum: 2-Chlorobenzenesulfonamide; LC-ESI-QFT; MS2; CE: 60; R=35000; [M+H]+
Name: 2-Chlorobenzenesulfonamide
Name: 2-chlorobenzenesulfonamide
Formula: C6H6ClNO2S
Exact mass: 190.98078
SMILES: C1=CC=C(C(=C1)S(=O)(=O)N)Cl
InChI: InChI=1S/C6H6ClNO2S/c7-5-3-1-2-4-6(5)11(8,9)10/h1-4H,(H2,8,9,10)
Instrument: Q Exactive Orbitrap Thermo Scientific
Instrument type: LC-ESI-QFT
Ms type: MS2
Ion mode: POSITIVE
Ionization: ESI
Fragmentation mode: HCD
Collision energy: 60 (nominal)
Resolution: 35000
Column name: XBridge C18 3.5um, 2.1x50mm, Waters
Retention time: 4.4 min
Base peak: 191.988
Precursor m/z: 191.9881
Precursor type: [M+H]+
m/z	relative intensity	assigned
50.0151	3	C4H2+
53.0022	3	C3HO+
59.0491	1	C3H7O+
65.0385	15	C5H5+
74.015	9	C6H2+
75.0229	117	C6H3+
79.0178	6	C5H3O+
80.0256	2	C5H4O+
84.9839	4	C4H2Cl+
86.9996	52	C4H4Cl+
93.0334	49	C6H5O+
94.0413	57	C6H6O+
98.0363	2	C5H6O2+
98.9995	5	C5H4Cl+
101.0152	3	C5H6Cl+
110.9995	91	C6H4Cl+
111.044	177	C6H7O2+
114.9945	4	C5H4ClO+
121.0396	39	C6H5N2O+
126.9946	5	C6H4ClO+
129.0101	674	C6H6ClO+
130.9718	2	C5H4ClS+
131.0143	1	C3H5N3OS+
139.0058	999	C6H4ClN2+
174.9614	18	C6H4ClO2S+
