Mass spectrum: Tenofovir; LC-ESI-QFT; MS2; CE: 30; R=35000; [M-H]-
Name: Tenofovir
Name: [(1R)-2-adenin-9-yl-1-methyl-ethoxy]methylphosphonic acid
Formula: C9H14N5O4P
Exact mass: 287.07834
SMILES: O=P(O)(O)CO[C@H](C)Cn1c2ncnc(c2nc1)N
InChI: InChI=1S/C9H14N5O4P/c1-6(18-5-19(15,16)17)2-14-4-13-7-8(10)11-3-12-9(7)14/h3-4,6H,2,5H2,1H3,(H2,10,11,12)(H2,15,16,17)/t6-/m1/s1
Instrument: Q Exactive Orbitrap Thermo Scientific
Instrument type: LC-ESI-QFT
Ms type: MS2
Ion mode: NEGATIVE
Ionization: ESI
Fragmentation mode: HCD
Collision energy: 30 (nominal)
Resolution: 35000
Column name: XBridge C18 3.5um, 2.1x50mm, Waters
Retention time: 1.0 min
Base peak: 286.0711
Precursor m/z: 286.0711
Precursor type: [M-H]-
m/z	relative intensity	assigned
62.9641	70	O2P-
78.959	12	O3P-
80.9747	113	H2O3P-
92.0253	2	C4H2N3-
92.9747	4	CH2O3P-
107.0365	7	C4H3N4-
110.9853	200	CH4O4P-
134.0472	999	C5H4N5-
151.0165	307	C4H8O4P-
268.0603	3	C9H11N5O3P-
286.0709	569	C9H13N5O4P-
