Mass spectrum: Permethrin; LC-ESI-QFT; MS2; CE: 30; R=35000; [M+H]+
Name: Permethrin
Name: [3-(phenyloxy)phenyl]methyl 3-(2,2-dichloroethenyl)-2,2-dimethylcyclopropanecarboxylate
Name: (3-phenoxyphenyl)methyl 3-(2,2-dichloroethenyl)-2,2-dimethylcyclopropane-1-carboxylate
Formula: C21H20Cl2O3
Exact mass: 390.07895
SMILES: Cl/C(Cl)=C/C3C(C(=O)OCc2cccc(Oc1ccccc1)c2)C3(C)C
InChI: InChI=1S/C21H20Cl2O3/c1-21(2)17(12-18(22)23)19(21)20(24)25-13-14-7-6-10-16(11-14)26-15-8-4-3-5-9-15/h3-12,17,19H,13H2,1-2H3
Instrument: Q Exactive Orbitrap Thermo Scientific
Instrument type: LC-ESI-QFT
Ms type: MS2
Ion mode: POSITIVE
Ionization: ESI
Fragmentation mode: HCD
Collision energy: 30 (nominal)
Resolution: 35000
Column name: XBridge C18 3.5um, 2.1x50mm, Waters
Retention time: 18.0 min
Base peak: 183.0804
Precursor m/z: 391.0862
Precursor type: [M+H]+
m/z	relative intensity	assigned
57.0699	43	C4H9+
65.0383	2	C5H5+
71.0855	119	C5H11+
77.0152	2	C3H6Cl+
113.1324	1	C8H17+
149.0234	999	C8H5O3+
155.0855	1	C12H11+
165.0701	1	C13H9+
167.0339	78	C8H7O4+
168.0568	3	C12H8O+
180.0933	12	C14H12+
181.1011	2	C14H13+
182.1091	9	C14H14+
183.0805	42	C13H11O+
226.099	2	C15H14O2+
233.0961	2	C17H13O+
237.0899	1	C16H13O2+
255.0573	9	C16H12ClO+
261.0911	22	C18H13O2+
268.0651	4	C17H13ClO+
273.1271	7	C20H17O+
275.1431	11	C20H19O+
279.1015	4	C18H15O3+
301.1226	1	C21H17O2+
309.1042	1	C20H18ClO+
319.1332	4	C21H19O3+
