Mass spectrum: Flusilazole; LC-ESI-ITFT; MS2; CE: 30%; R=15000; [M+H]+
Name: Flusilazole
Name: bis(4-fluorophenyl)-methyl-(1,2,4-triazol-1-ylmethyl)silane
Formula: C16H15F2N3Si
Exact mass: 315.0998
SMILES: n1(cncn1)C[Si](c1ccc(F)cc1)(C)c1ccc(cc1)F
InChI: InChI=1S/C16H15F2N3Si/c1-22(12-21-11-19-10-20-21,15-6-2-13(17)3-7-15)16-8-4-14(18)5-9-16/h2-11H,12H2,1H3
Instrument: LTQ Orbitrap XL Thermo Scientific
Instrument type: LC-ESI-ITFT
Ms type: MS2
Ion mode: POSITIVE
Ionization: ESI
Fragmentation mode: HCD
Collision energy: 30 % (nominal)
Resolution: 15000
Column name: XBridge C18 3.5um, 2.1x50mm, Waters
Retention time: 12.4 min
Base peak: 316.1073
Precursor m/z: 316.1076
Precursor type: [M+H]+
m/z	relative intensity	assigned
77.0386	1	C6H5+
79.0008	4	CH4FOSi+
91.0541	16	C2H6FN3+
105.0698	31	C3H8FN3+
109.0441	2	C2H5F2N3+
141.0695	3	C6H8FN3+
149.0414	5	C3H8FN3OSi+
151.0372	13	C8H8FSi+
153.07	4	C12H9+
165.0697	57	C8H8FN3+
166.0776	18	C8H9FN3+
169.0479	412	C8H10FOSi+
171.0436	5	C8H9F2Si+
181.1016	2	C14H13+
183.0639	5	C9H12FOSi+
185.0759	8	C8H9F2N3+
201.0738	4	C12H13OSi+
219.0436	8	C12H9F2Si+
220.0699	12	C10H11FN3Si+
227.0686	3	C9H11F2N3Si+
245.0786	3	C12H12FN3Si+
247.0746	259	C14H13F2Si+
265.0852	17	C12H13F2N3Si+
316.1074	999	C16H16F2N3Si+
