Mass spectrum: 2-Naphthoxyacetic acid; LC-ESI-QFT; MS2; CE: 120; R=35000; [M+H]+
Name: 2-Naphthoxyacetic acid
Name: beta-Naphthoxyacetic acid
Name: (2-Naphthyloxy)acetic acid
Formula: C12H10O3
Exact mass: 202.06299
SMILES: C1=CC=C2C=C(C=CC2=C1)OCC(=O)O
InChI: InChI=1S/C12H10O3/c13-12(14)8-15-11-6-5-9-3-1-2-4-10(9)7-11/h1-7H,8H2,(H,13,14)
Instrument: Q Exactive Plus Orbitrap Thermo Scientific
Instrument type: LC-ESI-QFT
Ms type: MS2
Ion mode: POSITIVE
Ionization: ESI
Fragmentation mode: HCD
Collision energy: 120 (nominal)
Resolution: 35000
Column name: XBridge C18 3.5um, 2.1x50mm, Waters
Retention time: 8.5 min
Base peak: 230.1747
Precursor m/z: 203.0703
Precursor type: [M+H]+
m/z	relative intensity	assigned
50.0151	20	C4H2+
51.0229	17	C4H3+
53.0386	114	C4H5+
55.0179	14	C3H3O+
55.0543	76	C4H7+
59.0491	5	C3H7O+
63.0228	5	C5H3+
65.0386	12	C5H5+
67.0542	10	C5H7+
68.9971	1	C3HO2+
69.0699	9	C5H9+
73.0648	1	C4H9O+
74.015	3	C6H2+
75.0229	52	C6H3+
77.0385	102	C6H5+
78.0464	14	C6H6+
79.0542	12	C6H7+
81.0335	16	C5H5O+
81.0699	2	C6H9+
83.0491	1	C5H7O+
87.023	2	C7H3+
89.0386	13	C7H5+
91.0543	59	C7H7+
93.0699	1	C7H9+
94.0413	7	C6H6O+
95.0492	506	C6H7O+
97.0077	4	C8H+
99.023	1	C8H3+
101.0386	34	C8H5+
102.0464	23	C8H6+
103.0543	105	C8H7+
105.0448	325	C6H5N2+
106.0418	3	C7H6O+
109.0648	1	C7H9O+
113.0383	1	C9H5+
115.0543	321	C9H7+
116.0576	6	C4H8N2O2+
116.062	43	C9H8+
117.0699	31	C9H9+
119.0492	51	C8H7O+
121.0647	2	C8H9O+
125.0385	7	C10H5+
126.0465	414	C10H6+
127.0543	871	C10H7+
128.0621	846	C10H8+
129.0447	135	C8H5N2+
129.0698	38	C10H9+
131.0492	13	C9H7O+
132.057	1	C9H8O+
141.0701	9	C11H9+
142.0776	1	C11H10+
143.0493	1	C10H7O+
144.057	30	C10H8O+
145.0649	471	C10H9O+
153.045	2	C10H5N2+
155.0604	999	C10H7N2+
156.0574	7	C11H8O+
159.0804	4	C11H11O+
161.0599	1	C10H9O2+
