Mass spectrum: Methiocarb; LC-ESI-ITFT; MS2; CE: 75%; R=15000; [M+H]+
Name: Methiocarb
Name: (3,5-dimethyl-4-methylsulfanyl-phenyl) N-methylcarbamate
Formula: C11H15NO2S
Exact mass: 225.0823
SMILES: O=C(Oc1cc(c(SC)c(c1)C)C)NC
InChI: InChI=1S/C11H15NO2S/c1-7-5-9(14-11(13)12-3)6-8(2)10(7)15-4/h5-6H,1-4H3,(H,12,13)
Instrument: LTQ Orbitrap XL Thermo Scientific
Instrument type: LC-ESI-ITFT
Ms type: MS2
Ion mode: POSITIVE
Ionization: ESI
Fragmentation mode: HCD
Collision energy: 75 % (nominal)
Resolution: 15000
Column name: XBridge C18 3.5um, 2.1x50mm, Waters
Retention time: 10.4 min
Base peak: 226.0902
Precursor m/z: 226.0896
Precursor type: [M+H]+
m/z	relative intensity	assigned
53.0386	12	C4H5+
58.0287	2	C2H4NO+
65.0386	2	C5H5+
67.0543	8	C5H7+
77.0387	179	C6H5+
78.0465	4	C6H6+
79.0543	12	C6H7+
81.0335	2	C5H5O+
91.0543	279	C7H7+
93.07	343	C7H9+
94.0413	1	C6H6O+
94.0778	7	C7H10+
95.0492	13	C6H7O+
95.0856	2	C7H11+
103.0543	15	C8H7+
104.0622	4	C8H8+
105.0448	73	C6H5N2+
105.07	4	C8H9+
106.0415	1	C7H6O+
107.0493	225	C7H7O+
108.0569	1	C7H8O+
109.0648	10	C7H9O+
111.0263	3	C6H7S+
119.0602	1	C7H7N2+
121.0648	999	C8H9O+
122.0726	730	C8H10O+
123.0805	15	C8H11O+
125.0419	4	C7H9S+
126.0499	3	C7H10S+
139.0216	2	C7H7OS+
153.037	10	C8H9OS+
154.0447	58	C8H10OS+
169.0681	7	C9H13OS+
