Mass spectrum: Ketoprofen; LC-ESI-ITFT; MS2; CE: 15%; R=15000; [M-H]-
Name: Ketoprofen
Name: 2-(3-benzoylphenyl)propanoic acid
Formula: C16H14O3
Exact mass: 254.0943
SMILES: CC(C1=CC=CC(=C1)C(=O)C2=CC=CC=C2)C(=O)O
InChI: InChI=1S/C16H14O3/c1-11(16(18)19)13-8-5-9-14(10-13)15(17)12-6-3-2-4-7-12/h2-11H,1H3,(H,18,19)
Instrument: LTQ Orbitrap XL Thermo Scientific
Instrument type: LC-ESI-ITFT
Ms type: MS2
Ion mode: NEGATIVE
Ionization: ESI
Fragmentation mode: HCD
Collision energy: 15 % (nominal)
Resolution: 15000
Column name: XBridge C18 3.5um, 2.1x50mm, Waters
Retention time: 9.6 min
Base peak: 209.0971
Precursor m/z: 253.087
Precursor type: [M-H]-
m/z	relative intensity	assigned
169.066	10	C12H9O-
185.061	18	C12H9O2-
197.0609	999	C13H9O2-
241.0866	30	C15H13O3-
