Mass spectrum: Doxazosin; LC-ESI-QFT; MS2; CE: 90; R=35000; [M+H]+
Name: Doxazosin
Name: [4-(4-amino-6,7-dimethoxyquinazolin-2-yl)piperazin-1-yl]-(2,3-dihydro-1,4-benzodioxin-3-yl)methanone
Formula: C23H25N5O5
Exact mass: 451.18557
SMILES: COC1=C(C=C2C(=C1)C(=NC(=N2)N3CCN(CC3)C(=O)C4COC5=CC=CC=C5O4)N)OC
InChI: InChI=1S/C23H25N5O5/c1-30-18-11-14-15(12-19(18)31-2)25-23(26-21(14)24)28-9-7-27(8-10-28)22(29)20-13-32-16-5-3-4-6-17(16)33-20/h3-6,11-12,20H,7-10,13H2,1-2H3,(H2,24,25,26)
Instrument: Q Exactive Orbitrap Thermo Scientific
Instrument type: LC-ESI-QFT
Ms type: MS2
Ion mode: POSITIVE
Ionization: ESI
Fragmentation mode: HCD
Collision energy: 90 (nominal)
Resolution: 35000
Column name: XBridge C18 3.5um, 2.1x50mm, Waters
Retention time: 7.2 min
Base peak: 452.1933
Precursor m/z: 452.1928
Precursor type: [M+H]+
m/z	relative intensity	assigned
53.0387	1	C4H5+
54.034	1	C3H4N+
55.018	66	C3H3O+
56.0496	13	C3H6N+
57.0448	1	C2H5N2+
65.0386	7	C5H5+
67.0417	1	C4H5N+
67.0543	1	C5H7+
68.0496	15	C4H6N+
69.0336	7	C4H5O+
69.0448	2	C3H5N2+
70.0652	46	C4H8N+
71.0128	2	C3H3O2+
71.0604	2	C3H7N2+
77.0387	10	C6H5+
79.0543	42	C6H7+
80.0495	13	C5H6N+
81.0335	19	C5H5O+
81.0573	5	C5H7N+
82.0652	29	C5H8N+
85.0761	5	C4H9N2+
87.0918	4	C4H11N2+
90.0337	1	C6H4N+
91.0417	2	C6H5N+
94.0652	7	C6H8N+
95.0492	37	C6H7O+
96.0444	7	C5H6NO+
96.0808	6	C6H10N+
98.0601	135	C5H8NO+
105.0448	24	C6H5N2+
106.0527	21	C6H6N2+
106.0652	2	C7H8N+
107.0493	24	C7H7O+
109.0285	8	C6H5O2+
118.0526	1	C7H6N2+
119.0367	2	C7H5NO+
120.0446	2	C7H6NO+
120.0557	1	C6H6N3+
121.0284	4	C7H5O2+
121.076	2	C7H9N2+
122.0601	1	C7H8NO+
123.0916	2	C7H11N2+
124.0758	11	C7H10NO+
131.0482	1	C7H5N3+
131.0605	1	C8H7N2+
132.0681	4	C8H8N2+
133.0397	17	C7H5N2O+
133.0635	2	C7H7N3+
133.076	2	C8H9N2+
134.0475	2	C7H6N2O+
134.06	2	C8H8NO+
135.0442	42	C8H7O2+
135.0554	19	C7H7N2O+
144.0559	1	C8H6N3+
145.0397	1	C8H5N2O+
146.0235	1	C8H4NO2+
147.0316	9	C8H5NO2+
147.0555	23	C8H7N2O+
147.0668	7	C7H7N4+
148.0396	1	C8H6NO2+
148.0746	5	C7H8N4+
149.0711	2	C8H9N2O+
149.0823	1	C7H9N4+
150.0551	24	C8H8NO2+
158.0716	2	C9H8N3+
159.0557	9	C9H7N2O+
159.0665	5	C8H7N4+
160.0507	31	C8H6N3O+
160.0744	8	C8H8N4+
161.0349	13	C8H5N2O2+
161.0584	1	C8H7N3O+
161.0711	28	C9H9N2O+
161.0819	2	C8H9N4+
162.0425	2	C8H6N2O2+
162.0539	2	C7H6N4O+
162.0663	5	C8H8N3O+
163.0392	1	C9H7O3+
163.0502	7	C8H7N2O2+
172.0746	5	C9H8N4+
173.0347	4	C9H5N2O2+
173.0587	2	C9H7N3O+
173.0826	9	C9H9N4+
174.0662	5	C9H8N3O+
174.0902	86	C9H10N4+
175.0505	15	C9H7N2O2+
175.0617	14	C8H7N4O+
175.098	4	C9H11N4+
176.0581	7	C9H8N2O2+
176.0695	9	C8H8N4O+
176.0817	3	C9H10N3O+
177.066	78	C9H9N2O2+
177.0772	45	C8H9N4O+
178.0615	10	C8H8N3O2+
184.0506	1	C10H6N3O+
185.0824	28	C10H9N4+
186.0665	20	C10H8N3O+
186.0902	31	C10H10N4+
187.0506	9	C10H7N2O2+
187.098	6	C10H11N4+
188.0456	48	C9H6N3O2+
188.0697	5	C9H8N4O+
189.0539	3	C9H7N3O2+
189.0661	48	C10H9N2O2+
189.0772	39	C9H9N4O+
190.0614	26	C9H8N3O2+
190.0741	1	C10H10N2O2+
190.0849	2	C9H10N4O+
191.0817	32	C10H11N2O2+
191.0916	2	C8H15O5+
199.0982	1	C11H11N4+
200.07	4	C10H8N4O+
200.106	2	C11H12N4+
201.0772	31	C10H9N4O+
202.0612	2	C10H8N3O2+
202.0851	27	C10H10N4O+
203.0928	208	C10H11N4O+
204.0771	106	C10H10N3O2+
205.0723	234	C9H9N4O2+
206.0563	21	C9H8N3O3+
206.0802	31	C9H10N4O2+
206.0927	1	C10H12N3O2+
211.0978	2	C12H11N4+
212.045	1	C11H6N3O2+
213.0779	2	C11H9N4O+
214.0613	18	C11H8N3O2+
214.085	2	C11H10N4O+
215.0566	1	C10H7N4O2+
215.0928	13	C11H11N4O+
216.0774	2	C11H10N3O2+
216.089	2	C10H10N5O+
217.0723	122	C10H9N4O2+
218.0802	44	C10H10N4O2+
219.088	11	C10H11N4O2+
221.1036	48	C10H13N4O2+
222.0875	6	C10H12N3O3+
227.0567	5	C11H7N4O2+
227.0929	5	C12H11N4O+
229.0723	99	C11H9N4O2+
229.1091	7	C12H13N4O+
230.0802	7	C11H10N4O2+
230.0914	1	C12H12N3O2+
231.0879	999	C11H11N4O2+
232.0958	54	C11H12N4O2+
233.1035	73	C11H13N4O2+
243.088	33	C12H11N4O2+
244.0835	12	C11H10N5O2+
244.0947	2	C12H12N4O2+
244.1196	2	C12H14N5O+
245.1035	36	C12H13N4O2+
247.0829	10	C11H11N4O3+
247.1193	58	C12H15N4O2+
252.1248	6	C14H14N5+
253.1324	8	C14H15N5+
255.0877	10	C13H11N4O2+
256.0835	2	C12H10N5O2+
257.1036	42	C13H13N4O2+
258.099	1	C12H12N5O2+
259.12	11	C13H15N4O2+
267.0879	1	C14H11N4O2+
272.1148	12	C13H14N5O2+
274.1302	19	C13H16N5O2+
282.135	5	C15H16N5O+
285.0986	1	C14H13N4O3+
308.1141	1	C16H14N5O2+
310.1301	46	C18H18N2O3+
328.1419	5	C16H18N5O3+
