Mass spectrum: Azinphos-methyl; LC-ESI-QFT; MS2; CE: 180; R=35000; [M+H]+
Name: Azinphos-methyl
Name: Azinphosmethyl
Name: 3-(dimethoxyphosphinothioylsulfanylmethyl)-1,2,3-benzotriazin-4-one
Formula: C10H12N3O3PS2
Exact mass: 317.00577
SMILES: COP(=S)(OC)SCN1C(=O)C2=CC=CC=C2N=N1
InChI: InChI=1S/C10H12N3O3PS2/c1-15-17(18,16-2)19-7-13-10(14)8-5-3-4-6-9(8)11-12-13/h3-6H,7H2,1-2H3
Instrument: Q Exactive Plus Orbitrap Thermo Scientific
Instrument type: LC-ESI-QFT
Ms type: MS2
Ion mode: POSITIVE
Ionization: ESI
Fragmentation mode: HCD
Collision energy: 180 (nominal)
Resolution: 35000
Column name: XBridge C18 3.5um, 2.1x50mm, Waters
Retention time: 9.2 min
Base peak: 318.0126
Precursor m/z: 318.013
Precursor type: [M+H]+
m/z	relative intensity	assigned
50.0152	664	C4H2+
51.023	999	C4H3+
52.0182	17	C3H2N+
52.0309	21	C4H4+
53.0023	27	C3HO+
53.0386	29	C4H5+
59.9665	41	COS+
62.0152	18	C5H2+
62.9453	32	PS+
62.9995	14	CH4OP+
63.023	45	C5H3+
64.0182	2	C4H2N+
64.0307	9	C5H4+
65.0023	64	C4HO+
65.0386	8	C5H5+
66.0101	14	C4H2O+
66.0465	4	C5H6+
68.9794	38	C3HS+
69.9872	13	C3H2S+
74.0151	101	C6H2+
75.0104	20	C5HN+
75.023	63	C6H3+
76.0182	38	C5H2N+
76.0307	14	C6H4+
77.0386	45	C6H5+
78.0338	4	C5H4N+
78.9943	16	CH4O2P+
81.0335	4	C5H5O+
81.9871	4	C4H2S+
94.9949	10	C5H3S+
95.0493	55	C6H7O+
104.0494	4	C7H6N+
105.0448	34	C6H5N2+
108.0026	2	C6H4S+
