Mass spectrum: Gabapentin; LC-ESI-ITFT; MS2; CE: 60%; R=15000; [M+H]+
Name: Gabapentin
Name: 1-(Aminomethyl)cyclohexaneacetic acid
Name: 2-[1-(aminomethyl)cyclohexyl]acetic acid
Formula: C9H17NO2
Exact mass: 171.1259
SMILES: NCC1(CC(O)=O)CCCCC1
InChI: InChI=1S/C9H17NO2/c10-7-9(6-8(11)12)4-2-1-3-5-9/h1-7,10H2,(H,11,12)
Instrument: LTQ Orbitrap XL Thermo Scientific
Instrument type: LC-ESI-ITFT
Ms type: MS2
Ion mode: POSITIVE
Ionization: ESI
Fragmentation mode: HCD
Collision energy: 60 % (nominal)
Resolution: 15000
Column name: XBridge C18 3.5um, 2.1x50mm, Waters
Retention time: 3.6 min
Base peak: 172.1336
Precursor m/z: 172.1332
Precursor type: [M+H]+
m/z	relative intensity	assigned
55.0178	105	C3H3O+
65.0386	3	C5H5+
67.0542	130	C5H7+
77.0385	3	C6H5+
79.0541	6	C6H7+
81.0699	12	C6H9+
91.0542	113	C7H7+
93.0699	106	C7H9+
95.0856	306	C7H11+
109.1012	187	C8H13+
110.0964	27	C7H12N+
112.1121	14	C7H14N+
117.0697	3	C9H9+
119.0856	335	C9H11+
126.1278	25	C8H16N+
136.112	54	C9H14N+
137.0961	465	C9H13O+
154.1227	999	C9H16NO+
155.1066	30	C9H15O2+
172.1331	135	C9H18NO2+
