Mass spectrum: Nicosulfuron; LC-ESI-ITFT; MS2; CE: 35%; R=7500; [M+H]+
Name: Nicosulfuron
Name: 2-[(4,6-dimethoxypyrimidin-2-yl)carbamoylsulfamoyl]-N,N-dimethyl-nicotinamide
Formula: C15H18N6O6S
Exact mass: 410.1009
SMILES: O=C(Nc1nc(cc(OC)n1)OC)NS(=O)(=O)c2ncccc2C(=O)N(C)C
InChI: InChI=1S/C15H18N6O6S/c1-21(2)13(22)9-6-5-7-16-12(9)28(24,25)20-15(23)19-14-17-10(26-3)8-11(18-14)27-4/h5-8H,1-4H3,(H2,17,18,19,20,23)
Instrument: LTQ Orbitrap XL Thermo Scientific
Instrument type: LC-ESI-ITFT
Ms type: MS2
Ion mode: POSITIVE
Ionization: ESI
Fragmentation mode: CID
Collision energy: 35 % (nominal)
Resolution: 7500
Column name: XBridge C18 3.5um, 2.1x50mm, Waters
Retention time: 7.1 min
Base peak: 433.0908
Precursor m/z: 411.1081
Precursor type: [M+H]+
m/z	relative intensity	assigned
156.0767	15	C6H10N3O2+
182.0559	570	C7H8N3O3+
213.0327	775	C8H9N2O3S+
259.0822	30	C4H15N6O5S+
304.1404	94	C14H18N5O3+
366.0502	999	C13H12N5O6S+
