Mass spectrum: Methiocarb; LC-ESI-ITFT; MS2; CE: 60%; R=15000; [M+H]+
Name: Methiocarb
Name: (3,5-dimethyl-4-methylsulfanyl-phenyl) N-methylcarbamate
Formula: C11H15NO2S
Exact mass: 225.0823
SMILES: O=C(Oc1cc(c(SC)c(c1)C)C)NC
InChI: InChI=1S/C11H15NO2S/c1-7-5-9(14-11(13)12-3)6-8(2)10(7)15-4/h5-6H,1-4H3,(H,12,13)
Instrument: LTQ Orbitrap XL Thermo Scientific
Instrument type: LC-ESI-ITFT
Ms type: MS2
Ion mode: POSITIVE
Ionization: ESI
Fragmentation mode: HCD
Collision energy: 60 % (nominal)
Resolution: 15000
Column name: XBridge C18 3.5um, 2.1x50mm, Waters
Retention time: 10.4 min
Base peak: 226.0902
Precursor m/z: 226.0896
Precursor type: [M+H]+
m/z	relative intensity	assigned
53.0386	1	C4H5+
67.0543	2	C5H7+
77.0386	35	C6H5+
79.0544	1	C6H7+
91.0543	80	C7H7+
93.07	166	C7H9+
94.0776	1	C7H10+
95.0491	1	C6H7O+
95.0854	1	C7H11+
103.0542	1	C8H7+
105.0448	11	C6H5N2+
107.0492	30	C7H7O+
109.0648	3	C7H9O+
121.0649	999	C8H9O+
122.0726	435	C8H10O+
123.0804	13	C8H11O+
141.0732	2	C8H13S+
153.0369	11	C8H9OS+
154.0447	26	C8H10OS+
169.0683	49	C9H13OS+
