Mass spectrum: Parathion; LC-ESI-QFT; MS2; CE: 30; R=35000; [M+H]+
Name: Parathion
Name: diethoxy-(4-nitrophenoxy)-sulfanylidene-$l^{5}-phosphane
Formula: C10H14NO5PS
Exact mass: 291.03303
SMILES: S=P(Oc1ccc(cc1)[N+]([O-])=O)(OCC)OCC
InChI: InChI=1S/C10H14NO5PS/c1-3-14-17(18,15-4-2)16-10-7-5-9(6-8-10)11(12)13/h5-8H,3-4H2,1-2H3
Instrument: Q Exactive Orbitrap Thermo Scientific
Instrument type: LC-ESI-QFT
Ms type: MS2
Ion mode: POSITIVE
Ionization: ESI
Fragmentation mode: HCD
Collision energy: 30 (nominal)
Resolution: 35000
Column name: XBridge C18 3.5um, 2.1x50mm, Waters
Retention time: 12.6 min
Base peak: 292.0402
Precursor m/z: 292.0403
Precursor type: [M+H]+
m/z	relative intensity	assigned
92.0494	2	C6H6N+
94.0411	14	C6H6O+
96.9506	1	H2O2PS+
108.0443	1	C6H6NO+
110.0183	9	C6H6S+
114.9612	25	H4O3PS+
123.0312	19	C6H5NO2+
126.0133	1	C6H6OS+
138.0007	2	C6H4NOS+
139.0085	1	C6H5NOS+
140.034	65	C6H6NO3+
156.0112	41	C6H6NO2S+
171.9743	1	C6H5O2PS+
174.0079	1	C6H7O4P+
189.9847	52	C6H7O3PS+
205.9798	1	C6H7O4PS+
217.9667	1	C10H2O4S+
218.975	6	C6H6NO4PS+
220.0004	3	C6H7NO6P+
235.9775	999	C10H4O5S+
253.9881	62	C6H9NO6PS+
264.0088	34	C8H11NO5PS+
292.0403	1	C10H15NO5PS+
