Mass spectrum: Dicloxacillin; LC-ESI-QFT; MS2; CE: 120; R=35000; [M+H]+
Name: Dicloxacillin
Name: 6-[[3-(2,6-dichlorophenyl)-5-methyl-1,2-oxazole-4-carbonyl]amino]-3,3-dimethyl-7-oxo-4-thia-1-azabicyclo[3.2.0]heptane-2-carboxylic acid
Formula: C19H17Cl2N3O5S
Exact mass: 469.02660
SMILES: CC1=C(C(=NO1)C2=C(C=CC=C2Cl)Cl)C(=O)NC3C4N(C3=O)C(C(S4)(C)C)C(=O)O
InChI: InChI=1S/C19H17Cl2N3O5S/c1-7-10(12(23-29-7)11-8(20)5-4-6-9(11)21)15(25)22-13-16(26)24-14(18(27)28)19(2,3)30-17(13)24/h4-6,13-14,17H,1-3H3,(H,22,25)(H,27,28)
Instrument: Q Exactive Plus Orbitrap Thermo Scientific
Instrument type: LC-ESI-QFT
Ms type: MS2
Ion mode: POSITIVE
Ionization: ESI
Fragmentation mode: HCD
Collision energy: 120 (nominal)
Resolution: 35000
Column name: XBridge C18 3.5um, 2.1x50mm, Waters
Retention time: 9.6 min
Base peak: 470.0332
Precursor m/z: 470.0339
Precursor type: [M+H]+
m/z	relative intensity	assigned
50.0151	5	C4H2+
51.0229	9	C4H3+
52.0183	11	C3H2N+
53.0022	20	C3HO+
53.0386	304	C4H5+
53.9975	2	C2NO+
54.0339	25	C3H4N+
55.0543	32	C4H7+
56.0496	6	C3H6N+
57.9872	10	C2H2S+
58.995	263	C2H3S+
59.9665	22	COS+
61.0072	1	C5H+
62.0059	25	CH4NS+
62.0151	9	C5H2+
63.023	57	C5H3+
64.0182	9	C4H2N+
65.0387	10	C5H5+
67.0417	7	C4H5N+
68.0131	3	C3H2NO+
68.0495	3	C4H6N+
69.0448	22	C3H5N2+
70.0652	328	C4H8N+
70.995	7	C3H3S+
71.0492	8	C4H7O+
72.0028	1	C3H4S+
72.0808	2	C4H10N+
72.984	212	C3H2Cl+
74.0151	376	C6H2+
75.0229	69	C6H3+
75.0263	8	C3H7S+
76.0181	7	C5H2N+
77.0022	9	C5HO+
78.0338	1	C5H4N+
79.0291	1	C4H3N2+
80.0495	27	C5H6N+
81.0336	2	C5H5O+
81.0447	25	C4H5N2+
81.0573	8	C5H7N+
82.0652	3	C5H8N+
82.945	29	CHCl2+
83.9761	3	C4HCl+
84.984	32	C4H2Cl+
85.0107	59	C4H5S+
86.0059	2	C3H4NS+
86.0151	5	C7H2+
86.9633	236	C3ClO+
87.0264	447	C4H7S+
88.0182	42	C6H2N+
89.0386	26	C7H5+
90.0465	2	C7H6+
92.0257	9	C6H4O+
92.0495	2	C6H6N+
93.0448	6	C5H5N2+
94.0652	7	C6H8N+
95.0493	2	C6H7O+
96.9841	124	C5H2Cl+
97.9793	25	C4HClN+
97.9918	5	C5H3Cl+
98.0151	2	C8H2+
98.0601	3	C5H8NO+
98.9997	22	C5H4Cl+
99.0106	1	C7HN+
99.023	32	C8H3+
100.0183	63	C7H2N+
100.0215	7	C4H6NS+
100.0307	7	C8H4+
101.0259	2	C7H3N+
101.0386	1	C8H5+
102.0341	1	C7H4N+
104.0496	3	C7H6N+
105.045	2	C6H5N2+
106.945	64	C3HCl2+
108.984	999	C6H2Cl+
109.9918	40	C6H3Cl+
112.0181	6	C8H2N+
112.0217	7	C5H6NS+
112.9789	5	C5H2ClO+
113.0259	5	C8H3N+
113.0295	3	C5H7NS+
114.0339	407	C8H4N+
114.0374	176	C5H8NS+
115.0418	5	C8H5N+
115.0542	3	C9H7+
116.0494	9	C8H6N+
118.0288	15	C7H4NO+
118.9452	2	C4HCl2+
120.9608	8	C4H3Cl2+
120.984	27	C7H2Cl+
121.9793	15	C6HClN+
121.9919	22	C7H3Cl+
122.9997	35	C7H4Cl+
123.995	105	C6H3ClN+
126.0339	8	C9H4N+
126.9946	9	C6H4ClO+
127.0417	43	C9H5N+
128.0023	11	C6H5ClO+
128.0495	19	C9H6N+
129.0447	11	C8H5N2+
130.9451	17	C5HCl2+
132.0444	6	C8H6NO+
132.9607	59	C5H3Cl2+
134.9995	1	C8H4Cl+
135.9952	11	C7H3ClN+
136.0076	31	C8H5Cl+
137.0027	2	C7H4ClN+
139.006	6	C3H7O4S+
140.0495	6	C10H6N+
142.0055	9	C6H5ClNO+
144.9607	85	C6H3Cl2+
145.9685	3	C6H4Cl2+
147.9949	165	C8H3ClN+
149.0028	201	C8H4ClN+
150.0108	2	C8H5ClN+
151.0186	18	C8H6ClN+
154.0054	2	C7H5ClNO+
154.0401	8	C9H4N3+
155.0009	2	C3H7O5S+
155.0604	3	C10H7N2+
156.9608	901	C7H3Cl2+
157.956	29	C6H2Cl2N+
158.9763	11	C7H5Cl2+
161.0028	2	C9H4ClN+
162.0108	6	C9H5ClN+
162.9712	25	C6H5Cl2O+
163.0184	3	C9H6ClN+
164.0011	43	C4H6NO4S+
164.0262	2	C9H7ClN+
166.0054	15	C8H5ClNO+
167.0134	6	C8H6ClNO+
168.0681	1	C11H8N2+
170.9639	7	C7H3Cl2N+
171.9715	15	C7H4Cl2N+
172.967	252	C3H6ClO4S+
183.9718	55	C8H4Cl2N+
185.9874	6	C8H6Cl2N+
189.0216	2	C7H9O4S+
195.9718	13	C9H4Cl2N+
197.9874	2	C12H3ClO+
