Mass spectrum: Candesartan; LC-ESI-ITFT; MS2; CE: 75%; R=15000; [M+H]+
Name: Candesartan
Name: 2-ethoxy-3-[4-[2-(2H-tetrazol-5-yl)phenyl]benzyl]benzimidazole-4-carboxylic acid
Formula: C24H20N6O3
Exact mass: 440.1597
SMILES: c1(ccccc1c1ccc(Cn2c(nc3c2c(C(=O)O)ccc3)OCC)cc1)c1nnn[nH]1
InChI: InChI=1S/C24H20N6O3/c1-2-33-24-25-20-9-5-8-19(23(31)32)21(20)30(24)14-15-10-12-16(13-11-15)17-6-3-4-7-18(17)22-26-28-29-27-22/h3-13H,2,14H2,1H3,(H,31,32)(H,26,27,28,29)
Instrument: LTQ Orbitrap XL Thermo Scientific
Instrument type: LC-ESI-ITFT
Ms type: MS2
Ion mode: POSITIVE
Ionization: ESI
Fragmentation mode: HCD
Collision energy: 75 % (nominal)
Resolution: 15000
Column name: XBridge C18 3.5um, 2.1x50mm, Waters
Retention time: 9.3 min
Base peak: 441.1683
Precursor m/z: 441.167
Precursor type: [M+H]+
m/z	relative intensity	assigned
77.0387	38	C6H5+
80.0496	25	C5H6N+
90.0337	16	C6H4N+
91.0542	23	C7H7+
105.0446	41	C6H5N2+
117.0449	19	C7H5N2+
129.0449	14	C8H5N2+
140.0494	68	C10H6N+
145.0399	32	C8H5N2O+
151.0541	54	C12H7+
152.0621	326	C12H8+
153.0699	329	C12H9+
154.0652	19	C11H8N+
155.0602	19	C10H7N2+
161.0347	170	C8H5N2O2+
163.0543	80	C13H7+
164.0624	33	C13H8+
165.07	999	C13H9+
166.0651	50	C12H8N+
166.0775	48	C13H10+
167.073	42	C12H9N+
167.0856	59	C13H11+
168.0574	15	C12H8O+
168.0684	28	C11H8N2+
169.0653	12	C12H9O+
173.0346	59	C9H5N2O2+
175.0505	11	C9H7N2O2+
176.0623	30	C14H8+
177.0573	206	C13H7N+
177.0701	47	C14H9+
178.0653	116	C13H8N+
178.0778	628	C14H10+
179.0459	19	C8H7N2O3+
179.0607	27	C12H7N2+
179.0731	190	C13H9N+
179.0853	13	C14H11+
180.0808	557	C13H10N+
181.0761	30	C12H9N2+
190.0652	776	C14H8N+
191.073	419	C14H9N+
192.0682	284	C13H8N2+
192.0808	529	C14H10N+
193.0762	21	C13H9N2+
193.0886	248	C14H11N+
194.0965	139	C14H12N+
196.0755	21	C13H10NO+
203.0734	13	C15H9N+
205.076	418	C14H9N2+
206.0839	271	C14H10N2+
207.0916	160	C14H11N2+
210.0912	45	C14H12NO+
216.0813	21	C16H10N+
217.0883	38	C16H11N+
218.0844	11	C15H10N2+
218.0971	18	C16H12N+
219.0918	118	C15H11N2+
220.1004	20	C15H12N2+
233.1078	58	C16H13N2+
234.1153	69	C16H14N2+
254.0966	15	C19H12N+
263.13	18	C18H17NO+
279.0914	33	C20H11N2+
281.1075	21	C20H13N2+
282.0922	22	C20H12NO+
293.095	25	C20H11N3+
294.0789	28	C20H10N2O+
296.1186	19	C20H14N3+
297.1019	31	C20H13N2O+
307.0861	14	C21H11N2O+
308.0954	27	C21H12N2O+
308.1187	23	C21H14N3+
309.1028	44	C21H13N2O+
310.1093	15	C21H14N2O+
322.0963	12	C21H12N3O+
351.0998	36	C22H13N3O2+
