Mass spectrum: Noscapine; LC-ESI-QFT; MS2; CE: 90; R=35000; [M+H]+
Name: Noscapine
Name: (-)-Noscapine
Name: 6,7-dimethoxy-3-(4-methoxy-6-methyl-7,8-dihydro-5H-[1,3]dioxol[4,5-g]isoquinolin-5-yl)phthalide
Formula: C22H23NO7
Exact mass: 413.14745
SMILES: CN1CCC2=CC3=C(C(=C2[C@@H]1[C@@H]4C5=C(C(=C(C=C5)OC)OC)C(=O)O4)OC)OCO3
InChI: InChI=1S/C22H23NO7/c1-23-8-7-11-9-14-20(29-10-28-14)21(27-4)15(11)17(23)18-12-5-6-13(25-2)19(26-3)16(12)22(24)30-18/h5-6,9,17-18H,7-8,10H2,1-4H3/t17-,18+/m1/s1
Instrument: Q Exactive Orbitrap Thermo Scientific
Instrument type: LC-ESI-QFT
Ms type: MS2
Ion mode: POSITIVE
Ionization: ESI
Fragmentation mode: HCD
Collision energy: 90 (nominal)
Resolution: 35000
Column name: XBridge C18 3.5um, 2.1x50mm, Waters
Retention time: 5.4 min
Base peak: 414.1545
Precursor m/z: 414.1547
Precursor type: [M+H]+
m/z	relative intensity	assigned
65.0385	17	C5H5+
78.0463	18	
79.0541	25	C6H7+
91.0541	112	C7H7+
93.0697	6	C7H9+
94.065	25	C6H8N+
95.049	46	C6H7O+
102.0463	21	
103.0541	26	C8H7+
104.0493	14	
105.0335	8	C7H5O+
105.0448	8	C6H5N2+
105.0698	6	C8H9+
106.0411	13	C7H6O+
106.065	39	C7H8N+
107.049	19	C7H7O+
107.0728	25	
115.0539	16	C9H7+
117.0332	16	
118.0411	19	C8H6O+
118.0649	42	C8H8N+
119.049	16	C8H7O+
119.0728	39	
120.0806	45	C8H10N+
121.0282	15	
121.0646	69	C8H9O+
121.0884	43	C8H11N+
122.036	15	C7H6O2+
130.0413	28	C9H6O+
131.049	35	C9H7O+
132.057	28	C9H8O+
133.0283	6	C8H5O2+
133.052	12	C8H7NO+
133.0647	34	C9H9O+
134.036	16	C8H6O2+
134.0598	17	C8H8NO+
135.0439	19	C8H7O2+
135.0677	12	C8H9NO+
139.0536	11	
145.0645	6	C10H9O+
146.0363	30	C9H6O2+
146.0599	32	C9H8NO+
147.044	27	C9H7O2+
147.0677	115	C9H9NO+
148.0755	136	C9H10NO+
149.023	13	
149.0595	16	C9H9O2+
149.0834	28	C9H11NO+
150.0307	5	C8H6O3+
151.039	4	C8H7O3+
152.0619	69	C12H8+
153.0697	70	C12H9+
158.036	23	C10H6O2+
159.0676	21	C10H9NO+
160.0515	19	C10H8O2+
160.0755	14	C10H10NO+
161.06	8	C10H9O2+
162.0311	16	C9H6O3+
162.0549	27	C9H8NO2+
162.0914	4	C10H12NO+
163.0387	15	C9H7O3+
163.0538	40	
164.0465	18	C9H8O3+
164.0617	17	
165.0545	21	C9H9O3+
165.0697	179	C13H9+
166.0774	26	C13H10+
167.0852	18	C13H11+
168.0569	28	
169.0649	21	
174.0312	33	C10H6O3+
174.0549	46	C10H8NO2+
175.0388	5	C10H7O3+
175.0627	54	C10H9NO2+
176.0465	33	C10H8O3+
176.0618	64	C14H8+
176.0704	67	C10H10NO2+
177.0543	106	C10H9O3+
177.0697	44	C14H9+
177.0782	25	C10H11NO2+
178.0775	107	C14H10+
179.0488	16	C13H7O+
179.07	6	C10H11O3+
179.0853	39	C14H11+
180.0563	25	
181.0646	185	C13H9O+
182.0725	13	C13H10O+
183.0802	18	C13H11O+
188.0467	77	C11H8O3+
188.0706	27	C11H10NO2+
189.0544	12	C11H9O3+
189.0698	83	C15H9+
190.0496	17	C10H8NO3+
190.0776	19	C15H10+
191.049	33	C14H7O+
191.0573	230	C10H9NO3+
191.0852	17	C15H11+
192.0569	65	C14H8O+
192.0653	10	C10H10NO3+
193.0647	94	C14H9O+
193.0734	14	C10H11NO3+
194.0724	71	C14H10O+
195.0803	68	C14H11O+
196.0521	21	C13H8O2+
196.0879	6	C14H12O+
197.0599	20	
202.0773	17	C16H10+
203.0488	13	
203.0574	71	C11H9NO3+
203.0854	6	C16H11+
204.0566	50	C15H8O+
204.0654	101	C11H10NO3+
205.0645	172	C15H9O+
205.0732	999	C11H11NO3+
206.0722	54	C15H10O+
206.0809	138	C11H12NO3+
207.0441	40	C14H7O2+
207.0801	47	C15H11O+
208.0516	47	C14H8O2+
208.0878	12	C15H12O+
209.0595	202	C14H9O2+
210.0676	22	C14H10O2+
211.0753	31	C14H11O2+
216.0565	12	C16H8O+
217.0644	25	C16H9O+
218.0723	39	C16H10O+
218.0815	20	C12H12NO3+
219.0438	64	C15H7O2+
219.0806	26	C16H11O+
220.0517	92	C15H8O2+
220.0967	195	C12H14NO3+
221.0595	213	C15H9O2+
222.0311	32	
222.0673	57	C15H10O2+
223.075	89	C15H11O2+
224.0465	16	
224.0828	28	C15H12O2+
225.0549	17	
225.0901	6	C15H13O2+
226.0624	5	C14H10O3+
231.044	11	C16H7O2+
231.0804	5	C17H11O+
232.0517	52	C16H8O2+
233.0595	142	C16H9O2+
234.0674	103	C16H10O2+
235.039	31	C15H7O3+
235.075	84	C16H11O2+
236.0465	121	C15H8O3+
236.0832	13	C16H12O2+
237.0544	300	C15H9O3+
238.0627	27	C15H10O3+
239.07	50	C15H11O3+
244.0517	5	C17H8O2+
245.0596	17	C17H9O2+
246.0305	5	C16H6O3+
246.067	24	C17H10O2+
247.0387	49	C16H7O3+
247.0754	28	C17H11O2+
248.0464	51	C16H8O3+
248.0827	4	C17H12O2+
249.0544	212	C16H9O3+
250.0622	59	C16H10O3+
251.07	124	C16H11O3+
252.0415	30	C15H8O4+
252.0783	32	C16H12O3+
253.0501	10	C15H9O4+
253.0853	24	C16H13O3+
254.0568	11	C15H10O4+
255.0648	18	C15H11O4+
259.0392	4	C17H7O3+
260.0458	4	C17H8O3+
261.0541	70	C17H9O3+
262.0623	60	C17H10O3+
263.0338	19	
263.0703	77	C17H11O3+
264.0416	72	C16H8O4+
264.0657	6	C16H10NO3+
264.078	23	C17H12O3+
265.0493	302	C16H9O4+
265.0856	17	C17H13O3+
266.0573	63	C16H10O4+
266.0806	11	C16H12NO3+
267.0649	38	C16H11O4+
269.081	4	C16H13O4+
273.0543	6	C18H9O3+
275.0699	6	C18H11O3+
276.0416	11	C17H8O4+
277.0491	74	C17H9O4+
278.0571	39	C17H10O4+
279.065	105	C17H11O4+
280.0363	44	C16H8O5+
280.0729	64	C17H12O4+
281.0803	34	C17H13O4+
282.0527	4	C16H10O5+
283.0592	21	C16H11O5+
285.0759	6	C16H13O5+
289.0496	23	C18H9O4+
290.0574	15	C18H10O4+
291.0656	23	C18H11O4+
292.0361	35	C17H8O5+
292.0725	4	C18H12O4+
293.0442	32	C17H9O5+
293.0803	10	C18H13O4+
294.0524	26	C17H10O5+
294.076	14	C17H12NO4+
295.0598	97	C17H11O5+
295.0964	5	C18H15O4+
304.0367	4	C18H8O5+
305.0435	14	C18H9O5+
306.0516	19	C18H10O5+
307.0599	72	C18H11O5+
308.0921	4	C18H14NO4+
309.0754	34	C18H13O5+
310.0839	5	C18H14O5+
313.0702	4	C17H13O6+
319.0602	5	C19H11O5+
322.0473	4	C18H10O6+
322.0702	12	
323.0547	7	C18H11O6+
337.0701	4	C19H13O6+
