Mass spectrum: 4-Amino-6-chloro-1,3-benzenedisulfonamide; LC-ESI-QFT; MS2; CE: 75; R=35000; [M+H]+
Name: 4-Amino-6-chloro-1,3-benzenedisulfonamide
Name: 4-amino-6-chlorobenzene-1,3-disulfonamide
Formula: C6H8ClN3O4S2
Exact mass: 284.96448
SMILES: C1=C(C(=CC(=C1Cl)S(=O)(=O)N)S(=O)(=O)N)N
InChI: InChI=1S/C6H8ClN3O4S2/c7-3-1-4(8)6(16(10,13)14)2-5(3)15(9,11)12/h1-2H,8H2,(H2,9,11,12)(H2,10,13,14)
Instrument: Q Exactive Orbitrap Thermo Scientific
Instrument type: LC-ESI-QFT
Ms type: MS2
Ion mode: POSITIVE
Ionization: ESI
Fragmentation mode: HCD
Collision energy: 75 (nominal)
Resolution: 35000
Column name: XBridge C18 3.5um, 2.1x50mm, Waters
Retention time: 1.7 min
Base peak: 285.9718
Precursor m/z: 285.9718
Precursor type: [M+H]+
m/z	relative intensity	assigned
50.0152	3	C4H2+
52.0181	9	C3H2N+
54.0339	2	C3H4N+
56.0495	3	C3H6N+
61.9792	17	CHClN+
62.0151	12	C5H2+
62.9632	4	CClO+
62.9996	3	C2H4Cl+
63.023	12	C5H3+
63.9852	122	H2NOS+
64.0182	11	C4H2N+
65.026	6	C4H3N+
66.0338	77	C4H4N+
67.029	2	C3H3N2+
67.0416	48	C4H5N+
68.0131	12	C3H2NO+
68.0494	3	C4H6N+
68.9794	5	C3HS+
69.0447	16	C3H5N2+
70.0525	12	C3H6N2+
72.9839	100	C3H2Cl+
74.9996	19	C3H4Cl+
76.0181	55	C5H2N+
77.0022	22	C5HO+
78.0338	225	C5H4N+
78.9404	12	CClS+
79.0178	6	C5H3O+
79.0291	4	C4H3N2+
79.0416	11	C5H5N+
80.0131	32	C4H2NO+
80.0496	5	C5H6N+
81.0335	3	C5H5O+
82.0288	17	C4H4NO+
82.0526	11	C4H6N2+
84.9742	5	C3HOS+
84.984	24	C4H2Cl+
85.9792	27	C3HClN+
86.9996	167	C4H4Cl+
87.9948	41	C3H3ClN+
88.0182	5	C6H2N+
89.026	484	C6H3N+
90.0105	23	C3H5ClN+
90.0337	4	C6H4N+
91.0291	9	C5H3N2+
92.0131	15	C5H2NO+
92.0368	4	C5H4N2+
93.0447	287	C5H5N2+
94.0287	93	C5H4NO+
94.0525	53	C5H6N2+
95.9902	11	C4H2NS+
96.0444	39	C5H6NO+
96.984	213	C5H2Cl+
97.0396	19	C4H5N2O+
97.9792	182	C4HClN+
98.9844	3	CH4ClO3+
98.9996	10	C5H4Cl+
99.9949	134	C4H3ClN+
101.0027	168	C4H4ClN+
102.0105	231	C4H5ClN+
102.9404	37	C3ClS+
104.956	181	C3H2ClS+
105.0447	111	C6H5N2+
106.0287	43	C6H4NO+
106.0526	103	C6H6N2+
106.9824	93	C5HNS+
107.0366	5	C6H5NO+
107.9903	25	C5H2NS+
108.0317	3	C5H4N2O+
108.998	10	C5H3NS+
109.0396	45	C5H5N2O+
110.0475	11	C5H6N2O+
110.9633	11	C5ClO+
111.0315	5	C5H5NO2+
111.0552	29	C5H7N2O+
111.9948	195	C5H3ClN+
112.9789	29	C5H2ClO+
112.99	21	C4H2ClN2+
113.0027	10	C5H4ClN+
114.0105	477	C5H5ClN+
114.9945	41	C5H4ClO+
115.9897	25	C4H3ClNO+
118.0053	5	C4H5ClNO+
120.0079	9	C6H2NO2+
121.0396	90	C6H5N2O+
122.0474	45	C6H6N2O+
123.9949	191	C6H3ClN+
124.0089	25	C5H4N2S+
124.0393	217	C6H6NO2+
125.0026	76	C6H4ClN+
125.0345	14	C5H5N2O2+
125.9979	10	C5H3ClN2+
127.0058	50	C5H4ClN2+
127.9898	89	C5H3ClNO+
128.9975	76	C5H4ClNO+
129.0214	834	C5H6ClN2+
130.0054	647	C5H5ClNO+
131.0008	4	C4H4ClN2O+
131.967	88	C4H3ClNS+
131.9847	127	C4H3ClNO2+
138.0424	2	C6H6N2O2+
139.0057	36	C6H4ClN2+
139.9898	460	C6H3ClNO+
140.9975	40	C6H4ClNO+
141.0214	18	C6H6ClN2+
141.9513	117	C5HClNS+
142.0054	920	C6H5ClNO+
142.959	4	C5H2ClNS+
143.9847	4	C5H3ClNO2+
145.0162	40	C5H6ClN2O+
152.001	16	C6H3ClN3+
153.9927	4	C6H3ClN2O+
155.0006	134	C6H4ClN2O+
155.9846	561	C6H3ClNO2+
157.0163	388	C6H6ClN2O+
158.0003	187	C6H5ClNO2+
159.0325	5	C6H8ClN2O+
160.0159	259	C6H7ClNO2+
169.9462	29	C6HClNOS+
173.0112	959	C6H6ClN2O2+
173.9952	999	C6H5ClNO3+
185.0016	10	C6H5N2O3S+
187.9567	68	C6H3ClNO2S+
188.9642	15	C6H4ClNO2S+
203.9518	19	C6H3ClNO3S+
204.9834	32	C6H6ClN2O2S+
220.9782	70	C6H6ClN2O3S+
