Mass spectrum: Didanosine; LC-ESI-QFT; MS2; CE: 30; R=35000; [M+H]+
Name: Didanosine
Name: 9-[(2R,5S)-5-(hydroxymethyl)-2-oxolanyl]-3H-purin-6-one
Formula: C10H12N4O3
Exact mass: 236.09094
SMILES: O=C3/N=C\Nc1c3ncn1[C@@H]2O[C@@H](CC2)CO
InChI: InChI=1S/C10H12N4O3/c15-3-6-1-2-7(17-6)14-5-13-8-9(14)11-4-12-10(8)16/h4-7,15H,1-3H2,(H,11,12,16)/t6-,7+/m0/s1
Instrument: Q Exactive Orbitrap Thermo Scientific
Instrument type: LC-ESI-QFT
Ms type: MS2
Ion mode: POSITIVE
Ionization: ESI
Fragmentation mode: HCD
Collision energy: 30 (nominal)
Resolution: 35000
Column name: XBridge C18 3.5um, 2.1x50mm, Waters
Retention time: 2.3 min
Base peak: 137.0459
Precursor m/z: 237.0982
Precursor type: [M+H]+
m/z	relative intensity	assigned
55.0543	1	C4H7+
57.0336	2	C3H5O+
59.0492	6	C3H7O+
73.0648	3	C4H9O+
83.0492	5	C5H7O+
83.0856	1	C6H11+
94.04	1	C4H4N3+
95.0856	1	C7H11+
101.0598	30	C5H9O2+
103.0755	1	C5H11O2+
109.1013	1	C8H13+
110.0349	2	C4H4N3O+
119.0354	1	C5H3N4+
137.046	999	C5H5N4O+
