Mass spectrum: Afidopyropen; LC-ESI-QFT; MS2; CE: 90%; R=17500; [M+H]+
Name: Afidopyropen
Name: [5-(cyclopropanecarbonyloxy)-9,18-dihydroxy-2,6,10-trimethyl-16-oxo-14-pyridin-3-yl-11,15-dioxatetracyclo[8.8.0.02,7.012,17]octadeca-12(17),13-dien-6-yl]methyl cyclopropanecarboxylate
Formula: C33H39NO9
Exact mass: 593.2625
SMILES: CC12CCC(C(C1CC(C3(C2C(C4=C(O3)C=C(OC4=O)C5=CN=CC=C5)O)C)O)(C)COC(=O)C6CC6)OC(=O)C7CC7
InChI: InChI=1S/C33H39NO9/c1-31-11-10-24(42-29(38)18-8-9-18)32(2,16-40-28(37)17-6-7-17)22(31)14-23(35)33(3)27(31)26(36)25-21(43-33)13-20(41-30(25)39)19-5-4-12-34-15-19/h4-5,12-13,15,17-18,22-24,26-27,35-36H,6-11,14,16H2,1-3H3
Instrument: Exploris 240 Orbitrap Thermo Scientific
Instrument type: LC-ESI-QFT
Ms type: MS2
Ion mode: POSITIVE
Ionization: ESI
Fragmentation mode: HCD
Collision energy: 90 % (nominal)
Resolution: 17500
Column name: XBridge C18 3.5um, 2.1x50mm, Waters
Retention time: 8.509 min
Base peak: 594.2694
Precursor m/z: 594.2698
Precursor type: [M+H]+
m/z	relative intensity	assigned
65.0386	110	C5H5+
67.0542	20	C5H7+
68.997	53	C3HO2+
69.0335	193	C4H5O+
77.0385	36	C6H5+
78.0338	412	C5H4N+
79.0417	45	C5H5N+
79.0543	48	C6H7+
80.0495	265	C5H6N+
81.0699	29	C6H9+
91.0542	135	C7H7+
92.0495	205	C6H6N+
93.0698	28	C7H9+
95.049	18	C6H7O+
96.0444	31	C5H6NO+
102.034	16	C7H4N+
103.054	23	C8H7+
104.0495	251	C7H6N+
105.0698	78	C8H9+
106.0287	424	C6H4NO+
107.0857	25	C8H11+
110.0598	20	C6H8NO+
115.0541	50	C9H7+
117.07	38	C9H9+
118.0654	21	C8H8N+
119.0853	39	C9H11+
120.0444	184	C7H6NO+
121.0285	16	C7H5O2+
121.0648	16	C8H9O+
122.06	119	C7H8NO+
128.0618	61	C10H8+
129.0698	39	C10H9+
130.0288	77	C8H4NO+
131.0853	31	C10H11+
133.1011	14	C10H13+
134.0601	14	C8H8NO+
141.0698	42	C11H9+
142.0777	31	C11H10+
143.0855	33	C11H11+
145.0644	15	C10H9O+
146.0603	9	C9H8NO+
148.0393	999	C8H6NO2+
153.0698	28	C12H9+
154.0778	13	C12H10+
155.0854	27	C12H11+
156.0933	11	C12H12+
157.1006	9	C12H13+
159.0803	15	C11H11O+
160.0394	11	C9H6NO2+
162.0549	11	C9H8NO2+
165.0697	36	C13H9+
167.0858	34	C13H11+
169.0649	21	C12H9O+
169.1012	18	C13H13+
171.0799	11	C12H11O+
179.0853	33	C14H11+
181.0654	13	C13H9O+
183.0801	10	C13H11O+
195.0801	12	C14H11O+
207.0807	9	C15H11O+
