Mass spectrum: Risperidone; LC-ESI-QFT; MS2; CE: 150; R=35000; [M+H]+
Name: Risperidone
Name: 3-[2-[4-(6-fluoro-1,2-benzoxazol-3-yl)piperidin-1-yl]ethyl]-2-methyl-6,7,8,9-tetrahydropyrido[1,2-a]pyrimidin-4-one
Formula: C23H27FN4O2
Exact mass: 410.21180
SMILES: CC1=C(C(=O)N2CCCCC2=N1)CCN3CCC(CC3)C4=NOC5=C4C=CC(=C5)F
InChI: InChI=1S/C23H27FN4O2/c1-15-18(23(29)28-10-3-2-4-21(28)25-15)9-13-27-11-7-16(8-12-27)22-19-6-5-17(24)14-20(19)30-26-22/h5-6,14,16H,2-4,7-13H2,1H3
Instrument: Q Exactive Plus Orbitrap Thermo Scientific
Instrument type: LC-ESI-QFT
Ms type: MS2
Ion mode: POSITIVE
Ionization: ESI
Fragmentation mode: HCD
Collision energy: 150 (nominal)
Resolution: 35000
Column name: XBridge C18 3.5um, 2.1x50mm, Waters
Retention time: 5.4 min
Base peak: 411.2187
Precursor m/z: 411.2191
Precursor type: [M+H]+
m/z	relative intensity	assigned
50.0151	7	C4H2+
51.023	11	C4H3+
52.0182	7	C3H2N+
53.0022	80	C3HO+
53.0386	108	C4H5+
53.9974	18	C2NO+
54.0339	105	C3H4N+
55.0542	999	C4H7+
56.0495	10	C3H6N+
58.0651	2	C3H8N+
63.0229	12	C5H3+
64.0307	8	C5H4+
65.0386	261	FH4N3+
66.0339	8	C4H4N+
66.0464	29	C5H6+
67.0178	81	C4H3O+
67.0417	210	C4H5N+
67.0542	63	C5H7+
68.0495	484	C4H6N+
69.0335	155	C4H5O+
70.0287	1	C3H4NO+
77.0385	7	C6H5+
78.0087	4	C3N3+
78.0338	17	C5H4N+
79.0417	4	C5H5N+
79.0542	22	C6H7+
80.0494	196	C5H6N+
81.0336	8	C5H5O+
81.0447	5	C4H5N2+
81.0573	19	C5H7N+
82.0651	237	C5H8N+
83.0293	1	C5H4F+
89.0386	5	C7H5+
90.034	4	C6H4N+
91.0418	25	C6H5N+
91.0543	6	C7H7+
92.0495	17	C6H6N+
93.0574	14	C6H7N+
94.0288	10	C5H4NO+
94.0652	79	C6H8N+
95.0491	25	C6H7O+
95.0604	8	C5H7N2+
95.073	10	C6H9N+
96.0443	8	C5H6NO+
97.0395	1	C4H5N2O+
99.0917	2	C5H11N2+
103.0543	2	C8H7+
104.0494	16	C7H6N+
105.0448	49	C6H5N2+
106.0526	8	C6H6N2+
106.0651	28	C7H8N+
107.0604	22	C6H7N2+
107.073	24	C7H9N+
108.0444	11	C6H6NO+
108.0808	2	C7H10N+
110.0601	27	C6H8NO+
117.0572	11	C8H7N+
118.0649	3	C3H7FN4+
119.0604	10	C7H7N2+
120.0684	1	C7H8N2+
120.0808	2	C8H10N+
121.076	29	C7H9N2+
122.084	5	C7H10N2+
123.0679	2	C7H9NO+
125.071	12	C6H9N2O+
130.0656	8	C9H8N+
131.0606	12	C8H7N2+
132.0681	9	C8H8N2+
132.0808	15	C9H10N+
133.0447	4	C9H6F+
133.0761	5	C8H9N2+
134.06	2	C8H8NO+
135.0552	18	C7H7N2O+
147.0919	8	C9H11N2+
149.0709	20	C8H9N2O+
150.0788	21	C8H10N2O+
161.071	8	C9H9N2O+
163.0865	4	C9H11N2O+
175.0867	4	C10H11N2O+
191.1179	2	C11H15N2O+
