Mass spectrum: Formothion; LC-ESI-QFT; MS2; CE: 90%; R=17500; [M+H]+
Name: Formothion
Name: 2-dimethoxyphosphinothioylsulfanyl-N-formyl-N-methylacetamide
Formula: C6H12NO4PS2
Exact mass: 256.9945
SMILES: CN(C=O)C(=O)CSP(=S)(OC)OC
InChI: InChI=1S/C6H12NO4PS2/c1-7(5-8)6(9)4-14-12(13,10-2)11-3/h5H,4H2,1-3H3
Instrument: Exploris 240 Orbitrap Thermo Scientific
Instrument type: LC-ESI-QFT
Ms type: MS2
Ion mode: POSITIVE
Ionization: ESI
Fragmentation mode: HCD
Collision energy: 90 % (nominal)
Resolution: 17500
Column name: XBridge C18 3.5um, 2.1x50mm, Waters
Retention time: 5.214 min
Base peak: 198.9647
Precursor m/z: 258.0018
Precursor type: [M+H]+
m/z	relative intensity	assigned
59.0491	8	C3H7O+
60.0443	16	C2H6NO+
62.0184	135	C2H6S+
62.9993	69	CH4OP+
78.9943	847	CH4O2P+
88.0214	39	C3H6NS+
93.0099	375	C2H6O2P+
100.0393	36	C4H6NO2+
110.9666	53	CH4O2PS+
124.982	999	C2H6O2PS+
127.0155	18	C2H8O4P+
128.9769	48	CH6O3PS+
142.9926	533	C2H8O3PS+
156.9539	47	C2H6O2PS2+
157.0082	62	C3H10O3PS+
