Mass spectrum: Isoproturon-didemethyl; LC-ESI-ITFT; MS2; CE: 60%; R=7500; [M+H]+
Name: Isoproturon-didemethyl
Name: [4-(propan-2-yl)phenyl]urea
Name: 1-(4-Isopropylphenyl)urea
Formula: C10H14N2O
Exact mass: 178.1106
SMILES: N(C(=O)N)c1ccc(cc1)C(C)C
InChI: InChI=1S/C10H14N2O/c1-7(2)8-3-5-9(6-4-8)12-10(11)13/h3-7H,1-2H3,(H3,11,12,13)
Instrument: LTQ Orbitrap XL Thermo Scientific
Instrument type: LC-ESI-ITFT
Ms type: MS2
Ion mode: POSITIVE
Ionization: ESI
Fragmentation mode: HCD
Collision energy: 60 % (nominal)
Resolution: 7500
Column name: XBridge C18 3.5um, 2.1x50mm, Waters
Retention time: 8.0 min
Base peak: 179.1183
Precursor m/z: 179.1179
Precursor type: [M+H]+
m/z	relative intensity	assigned
77.0386	16	C6H5+
91.0544	10	C7H7+
92.0495	66	C6H6N+
94.0652	986	C6H8N+
107.0857	10	C8H11+
117.0704	6	C9H9+
119.0856	5	C9H11+
120.0444	126	C7H6NO+
134.0965	99	C9H12N+
136.1121	102	C9H14N+
137.071	999	C7H9N2O+
147.0921	23	C9H11N2+
162.0911	19	C10H12NO+
179.1181	48	C10H15N2O+
