Mass spectrum: Penciclovir; LC-ESI-QFT; MS2; CE: 60; R=35000; [M+H]+
Name: Penciclovir
Name: 2-amino-9-[4-hydroxy-3-(hydroxymethyl)butyl]-3H-purin-6-one
Formula: C10H15N5O3
Exact mass: 253.11749
SMILES: C1=NC2=C(N1CCC(CO)CO)N=C(NC2=O)N
InChI: InChI=1S/C10H15N5O3/c11-10-13-8-7(9(18)14-10)12-5-15(8)2-1-6(3-16)4-17/h5-6,16-17H,1-4H2,(H3,11,13,14,18)
Instrument: Q Exactive Orbitrap Thermo Scientific
Instrument type: LC-ESI-QFT
Ms type: MS2
Ion mode: POSITIVE
Ionization: ESI
Fragmentation mode: HCD
Collision energy: 60 (nominal)
Resolution: 35000
Column name: XBridge C18 3.5um, 2.1x50mm, Waters
Retention time: 1.1 min
Base peak: 254.1247
Precursor m/z: 254.1248
Precursor type: [M+H]+
m/z	relative intensity	assigned
57.0335	2	C3H5O+
57.0699	19	C4H9+
65.0386	6	C5H5+
67.0542	106	C5H7+
85.0647	16	C5H9O+
109.0508	17	C4H5N4+
110.0348	83	C4H4N3O+
128.0453	30	C4H6N3O2+
134.046	9	C5H4N5+
135.03	224	C5H3N4O+
136.0139	4	C5H2N3O2+
152.0567	999	C5H6N5O+
153.0405	233	C5H5N4O2+
154.0249	3	C5H4N3O3+
