Mass spectrum: Clarithromycin N-Oxide; LC-ESI-QFT; MS2; CE: 150; R=35000; [M+H]+
Name: Clarithromycin N-Oxide
Name: (2S,3R,4S,6R)-2-[[(3R,4S,5S,6R,7R,9R,11R,12R,13S,14R)-14-ethyl-12,13-dihydroxy-4-[(2R,4R,5S,6S)-5-hydroxy-4-methoxy-4,6-dimethyloxan-2-yl]oxy-7-methoxy-3,5,7,9,11,13-hexamethyl-2,10-dioxo-oxacyclotetradec-6-yl]oxy]-3-hydroxy-N,N,6-trimethyloxan-4-amine oxide
Formula: C38H69NO14
Exact mass: 763.47181
SMILES: [O-][N+](C)(C)[C@H]3C[C@@H](C)O[C@@H](O[C@@H]2[C@@H](C)[C@H](O[C@H]1C[C@@](C)(OC)[C@@H](O)[C@H](C)O1)[C@@H](C)C(=O)O[C@H](CC)[C@@](C)(O)[C@H](O)[C@@H](C)C(=O)[C@H](C)C[C@@]2(C)OC)[C@@H]3O
InChI: InChI=1S/C38H69NO14/c1-15-26-38(10,45)31(42)21(4)28(40)19(2)17-37(9,48-14)33(53-35-29(41)25(39(11,12)46)16-20(3)49-35)22(5)30(23(6)34(44)51-26)52-27-18-36(8,47-13)32(43)24(7)50-27/h19-27,29-33,35,41-43,45H,15-18H2,1-14H3/t19-,20-,21+,22+,23-,24+,25+,26-,27+,29-,30+,31-,32+,33-,35+,36-,37-,38-/m1/s1
Instrument: Q Exactive Plus Orbitrap Thermo Scientific
Instrument type: LC-ESI-QFT
Ms type: MS2
Ion mode: POSITIVE
Ionization: ESI
Fragmentation mode: HCD
Collision energy: 150 (nominal)
Resolution: 35000
Column name: XBridge C18 3.5um, 2.1x50mm, Waters
Retention time: 9.7 min
Base peak: 764.4783
Precursor m/z: 764.4791
Precursor type: [M+H]+
m/z	relative intensity	assigned
53.9975	28	C2NO+
54.0339	6	C3H4N+
55.0179	78	C3H3O+
55.0542	999	C4H7+
56.0495	88	C3H6N+
57.0335	93	C3H5O+
57.0573	25	C3H7N+
57.0699	26	C4H9+
58.0287	6	C2H4NO+
58.0651	108	C3H8N+
59.0491	44	C3H7O+
60.0444	12	C2H6NO+
61.0284	1	C2H5O2+
62.06	11	C2H8NO+
63.0228	3	C5H3+
65.0386	391	C5H5+
66.0464	27	C5H6+
67.0542	750	C5H7+
67.9892	4	C3O2+
68.0495	41	C4H6N+
69.0335	79	C4H5O+
69.0573	7	C4H7N+
69.0699	112	C5H9+
70.0651	78	C4H8N+
71.0127	7	C3H3O2+
71.0491	20	C4H7O+
71.0729	34	C4H9N+
72.0443	35	C3H6NO+
72.0807	60	C4H10N+
73.0522	7	C3H7NO+
73.0648	16	C4H9O+
74.06	6	C3H8NO+
75.044	2	C3H7O2+
77.0385	68	C6H5+
78.0087	3	C3N3+
78.0464	25	C6H6+
79.0542	675	C6H7+
80.062	29	C6H8+
81.0334	19	C5H5O+
81.0699	197	C6H9+
82.0413	1	C5H6O+
82.0651	24	C5H8N+
83.0127	45	C4H3O2+
83.0491	361	C5H7O+
84.0808	127	C5H10N+
85.0284	30	C4H5O2+
85.0648	8	C5H9O+
86.0601	12	C4H8NO+
87.0678	3	C4H9NO+
88.0757	2	C4H10NO+
89.0384	3	C7H5+
90.0463	6	C7H6+
91.0542	694	C7H7+
92.062	10	C7H8+
93.0699	120	C7H9+
94.0413	13	C6H6O+
94.0651	1	C6H8N+
94.0777	7	C7H10+
95.0492	415	C6H7O+
95.0855	70	C7H11+
97.0649	16	C6H9O+
98.06	9	C5H8NO+
98.0964	28	C6H12N+
100.112	6	C6H14N+
102.0463	3	C8H6+
103.0542	165	C8H7+
104.0621	34	C8H8+
105.0448	195	C6H5N2+
105.0699	279	C8H9+
106.0775	12	C8H10+
107.0491	93	C7H7O+
107.0855	25	C8H11+
108.057	62	C7H8O+
109.0648	91	C7H9O+
109.1012	13	C8H13+
111.0442	1	C6H7O2+
111.0805	2	C7H11O+
115.0543	98	C9H7+
116.062	21	C9H8+
117.0698	73	C9H9+
119.0604	4	C7H7N2+
119.0856	65	C9H11+
121.0648	29	C8H9O+
121.1011	7	C9H13+
122.0726	22	C8H10O+
123.0804	155	C8H11O+
128.062	90	C10H8+
129.0698	70	C10H9+
130.0777	11	C10H10+
131.0493	4	C9H7O+
131.0855	15	C10H11+
133.0649	3	C9H9O+
133.076	2	C8H9N2+
133.1012	6	C10H13+
135.0804	17	C9H11O+
137.0961	3	C9H13O+
138.0676	2	C8H10O2+
141.0699	56	C11H9+
142.0778	30	C11H10+
143.0857	18	C11H11+
145.0648	15	C10H9O+
145.101	2	C11H13+
146.0722	1	C10H10O+
147.0804	9	C10H11O+
148.0883	2	C10H12O+
149.0962	2	C10H13O+
152.0621	6	C12H8+
153.0696	11	C12H9+
154.0773	2	C12H10+
155.0605	15	C10H7N2+
155.0855	14	C12H11+
156.0936	3	C12H12+
157.0646	1	C11H9O+
157.1012	7	C12H13+
159.0803	11	C11H11O+
163.1117	3	C11H15O+
165.0698	11	C13H9+
167.0857	3	C13H11+
