Mass spectrum: Dithiopyr; LC-ESI-QFT; MS2; CE: 120%; R=17500; [M+H]+
Name: Dithiopyr
Name: 3-S,5-S-dimethyl 2-(difluoromethyl)-4-(2-methylpropyl)-6-(trifluoromethyl)pyridine-3,5-dicarbothioate
Formula: C15H16F5NO2S2
Exact mass: 401.0543
SMILES: CC(C)CC1=C(C(=NC(=C1C(=O)SC)C(F)(F)F)C(F)F)C(=O)SC
InChI: InChI=1S/C15H16F5NO2S2/c1-6(2)5-7-8(13(22)24-3)10(12(16)17)21-11(15(18,19)20)9(7)14(23)25-4/h6,12H,5H2,1-4H3
Instrument: Exploris 240 Orbitrap Thermo Scientific
Instrument type: LC-ESI-QFT
Ms type: MS2
Ion mode: POSITIVE
Ionization: ESI
Fragmentation mode: HCD
Collision energy: 120 % (nominal)
Resolution: 17500
Column name: XBridge C18 3.5um, 2.1x50mm, Waters
Retention time: 12.694 min
Base peak: 334.1679
Precursor m/z: 402.0615
Precursor type: [M+H]+
m/z	relative intensity	assigned
62.9701	74	CFS+
63.0229	179	C5H3+
68.9795	177	C3HS+
68.9948	115	CF3+
75.004	131	C3HF2+
77.0386	135	C6H5+
83.0294	173	C5H4F+
89.0388	86	C7H5+
99.004	78	C5HF2+
101.0198	155	C5H3F2+
103.0419	135	C7H5N+
107.0292	277	C7H4F+
113.02	82	C6H3F2+
115.0545	213	C9H7+
121.0105	142	C7H5S+
122.0056	137	C6H4NS+
122.0405	193	C7H5FN+
124.0187	114	CH10F2S2+
125.02	687	C7H3F2+
127.0547	176	C10H7+
132.0249	381	F3H11S2+
133.0445	592	C9H6F+
139.0014	282	C7H4FS+
140.0302	129	C4H9FO2S+
140.0499	528	C2H14F2S2+
145.0255	189	C7H4F3+
146.0062	931	C8H4NS+
150.0345	165	C3H12F2S2+
152.0304	999	C8H4F2N+
166.0115	435	C5H10O2S2+
170.0398	177	C11H5FN+
171.0272	128	C8H8FOS+
176.0307	242	C10H4F2N+
178.0112	125	C6H10O2S2+
189.0386	181	C3H13F4S2+
190.0466	139	C3H14F4S2+
192.0254	236	C2H12F4OS2+
197.0096	110	C6H10FO2S2+
198.0377	140	C12H8NS+
201.9933	145	C8H3F3NS+
223.9984	225	C10H4F2NOS+
