Mass spectrum: Fluxapyroxad (BAS 700 F)-TP CSCD465008; LC-ESI-QFT; MS2; CE: 75%; R=17500; [M+H]+
Name: Fluxapyroxad (BAS 700 F)-TP CSCD465008
Name: 3-(Difluoromethyl)-1H-pyrazole-4-carboxylic acid
Name: 5-(difluoromethyl)-1H-pyrazole-4-carboxylic acid
Formula: C5H4F2N2O2
Exact mass: 162.0241
SMILES: OC(=O)C1=CNN=C1C(F)F
InChI: InChI=1S/C5H4F2N2O2/c6-4(7)3-2(5(10)11)1-8-9-3/h1,4H,(H,8,9)(H,10,11)
Instrument: Q Exactive Plus Orbitrap Thermo Scientific
Instrument type: LC-ESI-QFT
Ms type: MS2
Ion mode: POSITIVE
Ionization: ESI
Fragmentation mode: HCD
Collision energy: 75 % (nominal)
Resolution: 17500
Column name: XBridge C18 3.5um, 2.1x50mm, Waters
Retention time: 2.043 min
Base peak: 163.0315
Precursor m/z: 163.0314
Precursor type: [M+H]+
m/z	relative intensity	assigned
52.0182	16	C3H2N+
53.0021	11	C3HO+
67.029	3	C3H3N2+
68.0131	999	C3H2NO+
69.0447	2	C3H5N2+
95.024	358	C4H3N2O+
97.0398	3	C4H5N2O+
99.0352	13	C4H4FN2+
123.0189	827	C5H3N2O2+
141.0295	167	
