Mass spectrum: Cimaterol; LC-ESI-QFT; MS2; CE: 180; R=35000; [M+H]+
Name: Cimaterol
Name: 2-amino-5-[1-hydroxy-2-(propan-2-ylamino)ethyl]benzonitrile
Formula: C12H17N3O
Exact mass: 219.13716
SMILES: CC(C)NCC(C1=CC(=C(C=C1)N)C#N)O
InChI: InChI=1S/C12H17N3O/c1-8(2)15-7-12(16)9-3-4-11(14)10(5-9)6-13/h3-5,8,12,15-16H,7,14H2,1-2H3
Instrument: Q Exactive Plus Orbitrap Thermo Scientific
Instrument type: LC-ESI-QFT
Ms type: MS2
Ion mode: POSITIVE
Ionization: ESI
Fragmentation mode: HCD
Collision energy: 180 (nominal)
Resolution: 35000
Column name: XBridge C18 3.5um, 2.1x50mm, Waters
Retention time: 1.5 min
Base peak: 220.1439
Precursor m/z: 220.1444
Precursor type: [M+H]+
m/z	relative intensity	assigned
50.0151	56	C4H2+
51.023	134	C4H3+
52.0182	25	C3H2N+
53.0022	29	C3HO+
53.0386	42	C4H5+
53.9975	8	C2NO+
54.0338	7	C3H4N+
55.0179	2	C3H3O+
61.0073	21	C5H+
62.0151	120	C5H2+
63.0229	940	C5H3+
64.0182	62	C4H2N+
64.0307	49	C5H4+
65.026	27	C4H3N+
65.0386	80	C5H5+
66.0338	11	C4H4N+
66.0464	8	C5H6+
67.0416	14	C4H5N+
67.9892	7	C3O2+
74.015	17	C6H2+
75.0229	42	C6H3+
76.0181	23	C5H2N+
76.0307	8	C6H4+
77.0385	126	C6H5+
78.0338	46	C5H4N+
78.0464	13	C6H6+
79.0417	2	C5H5N+
79.0542	12	C6H7+
80.0494	22	C5H6N+
81.0335	10	C5H5O+
87.023	9	C7H3+
88.0181	29	C6H2N+
88.0307	66	C7H4+
89.0386	999	C7H5+
90.0338	96	C6H4N+
90.0464	25	C7H6+
91.0417	148	C6H5N+
92.0369	4	C5H4N2+
92.0495	8	C6H6N+
93.0574	3	C6H7N+
94.0414	2	C6H6O+
95.0491	130	C6H7O+
96.0444	31	C5H6NO+
98.015	10	
99.0229	8	C8H3+
100.0182	19	C7H2N+
102.0337	9	C7H4N+
103.0417	2	C7H5N+
104.0494	144	C7H6N+
105.0447	97	C6H5N2+
106.0652	5	C7H8N+
108.0444	1	C6H6NO+
114.0338	98	C8H4N+
115.0417	85	C8H5N+
116.0494	77	C8H6N+
117.0448	10	C7H5N2+
117.0574	13	C8H7N+
118.0525	25	C7H6N2+
129.0447	3	C8H5N2+
130.04	8	C7H4N3+
131.0604	48	C8H7N2+
133.0522	7	C8H7NO+
134.0599	5	C8H8NO+
141.0447	2	C9H5N2+
142.0526	37	C9H6N2+
143.0605	1	C9H7N2+
144.0558	1	C8H6N3+
