Mass spectrum: Disulfoton-sulfoxide; LC-ESI-QFT; MS2; CE: 60%; R=17500; [M+H]+
Name: Disulfoton-sulfoxide
Name: Oxydisulfoton
Name: diethoxy-(2-ethylsulfinylethylsulfanyl)-sulfanylidene-lambda5-phosphane
Formula: C8H19O3PS3
Exact mass: 290.0234
SMILES: CCOP(=S)(OCC)SCCS(=O)CC
InChI: InChI=1S/C8H19O3PS3/c1-4-10-12(13,11-5-2)14-7-8-15(9)6-3/h4-8H2,1-3H3
Instrument: Exploris 240 Orbitrap Thermo Scientific
Instrument type: LC-ESI-QFT
Ms type: MS2
Ion mode: POSITIVE
Ionization: ESI
Fragmentation mode: HCD
Collision energy: 60 % (nominal)
Resolution: 17500
Column name: XBridge C18 3.5um, 2.1x50mm, Waters
Retention time: 6.653 min
Base peak: 282.279
Precursor m/z: 291.0307
Precursor type: [M+H]+
m/z	relative intensity	assigned
58.9952	6	C2H3S+
61.0106	109	C2H5S+
64.9789	25	H2O2P+
92.9827	13	C2H5S2+
96.9507	999	H2O2PS+
105.0369	9	C4H9OS+
110.9665	34	CH4O2PS+
114.9613	387	H4O3PS+
124.982	154	C2H6O2PS+
128.9228	733	H2O2PS2+
138.9433	64	C2H4OPS2+
153.0134	13	C4H10O2PS+
156.9541	692	C2H6O2PS2+
184.9859	51	C4H10O2PS2+
