Mass spectrum: Bufexamac; LC-ESI-QFT; MS2; CE: 60; R=35000; [M-H]-
Name: Bufexamac
Name: 2-(4-butoxyphenyl)-N-hydroxyacetamide
Formula: C12H17NO3
Exact mass: 223.12084
SMILES: CCCCOC1=CC=C(C=C1)CC(=O)NO
InChI: InChI=1S/C12H17NO3/c1-2-3-8-16-11-6-4-10(5-7-11)9-12(14)13-15/h4-7,15H,2-3,8-9H2,1H3,(H,13,14)
Instrument: Q Exactive Orbitrap Thermo Scientific
Instrument type: LC-ESI-QFT
Ms type: MS2
Ion mode: NEGATIVE
Ionization: ESI
Fragmentation mode: HCD
Collision energy: 60 (nominal)
Resolution: 35000
Column name: XBridge C18 3.5um, 2.1x50mm, Waters
Retention time: 8.4 min
Base peak: 222.1136
Precursor m/z: 222.1136
Precursor type: [M-H]-
m/z	relative intensity	assigned
57.9934	528	CNO2-
59.0013	20	CHNO2-
71.0504	6	C4H7O-
82.0061	8	C4H2O2-
92.0268	182	C6H4O-
93.0347	60	C6H5O-
95.0139	116	C5H3O2-
102.035	18	C7H4N-
106.0425	11	C7H6O-
108.0217	138	C6H4O2-
118.03	999	C7H4NO-
119.0378	8	C7H5NO-
120.0455	96	C7H6NO-
123.0087	17	C6H3O3-
123.0452	79	C7H7O2-
130.0177	5	C7H2N2O-
134.0246	5	C7H4NO2-
146.0247	103	C8H4NO2-
147.0328	4	C8H5NO2-
148.0405	32	C8H6NO2-
149.0246	4	C8H5O3-
