Mass spectrum: Crotamiton; LC-ESI-QFT; MS2; CE: 180; R=35000; [M+H]+
Name: Crotamiton
Name: N-ethyl-N-(2-methylphenyl)but-2-enamide
Formula: C13H17NO
Exact mass: 203.13101
SMILES: O=C(N(c1ccccc1C)CC)C=CC
InChI: InChI=1S/C13H17NO/c1-4-8-13(15)14(5-2)12-10-7-6-9-11(12)3/h4,6-10H,5H2,1-3H3
Instrument: Q Exactive Plus Orbitrap Thermo Scientific
Instrument type: LC-ESI-QFT
Ms type: MS2
Ion mode: POSITIVE
Ionization: ESI
Fragmentation mode: HCD
Collision energy: 180 (nominal)
Resolution: 35000
Column name: XBridge C18 3.5um, 2.1x50mm, Waters
Retention time: 9.8 min
Base peak: 204.1383
Precursor m/z: 204.1383
Precursor type: [M+H]+
m/z	relative intensity	assigned
50.0151	71	C4H2+
51.023	219	C4H3+
52.0182	15	C3H2N+
53.0022	413	C3HO+
53.0386	125	C4H5+
53.9975	103	C2NO+
54.01	25	C3H2O+
54.0339	16	
55.0179	16	C3H3O+
62.0151	17	C5H2+
63.023	155	C5H3+
64.0308	16	C5H4+
65.0386	999	C5H5+
66.0464	241	C5H6+
67.0417	27	C4H5N+
67.9893	89	C3O2+
68.0495	45	C4H6N+
69.0335	221	C4H5O+
75.0229	16	C6H3+
77.0386	219	C6H5+
78.0086	22	C3N3+
78.0339	20	C5H4N+
78.0464	71	C6H6+
79.0542	268	C6H7+
80.0494	25	C5H6N+
81.0336	11	C5H5O+
89.0386	155	C7H5+
90.034	4	C6H4N+
90.0465	42	C7H6+
91.0418	22	C6H5N+
91.0543	316	C7H7+
92.0495	87	C6H6N+
93.0574	434	C6H7N+
94.0416	5	C6H6O+
95.0492	413	C6H7O+
96.0444	22	C5H6NO+
102.0464	10	C8H6+
103.0543	24	C8H7+
104.0494	22	C7H6N+
105.0448	221	C6H5N2+
106.0652	696	C7H8N+
107.0728	3	C7H9N+
115.0543	72	C9H7+
116.0623	3	C9H8+
117.0575	28	C8H7N+
118.0651	28	C8H8N+
120.0807	5	C8H10N+
128.0493	4	C9H6N+
128.062	11	C10H8+
129.0448	11	
130.0653	24	C9H8N+
