Mass spectrum: Indapamide; LC-ESI-QFT; MS2; CE: 120; R=35000; [M+H]+
Name: Indapamide
Name: 4-chloro-N-(2-methyl-2,3-dihydroindol-1-yl)-3-sulfamoylbenzamide
Formula: C16H16ClN3O3S
Exact mass: 365.06009
SMILES: CC1CC2=CC=CC=C2N1NC(=O)C3=CC(=C(C=C3)Cl)S(=O)(=O)N
InChI: InChI=1S/C16H16ClN3O3S/c1-10-8-11-4-2-3-5-14(11)20(10)19-16(21)12-6-7-13(17)15(9-12)24(18,22)23/h2-7,9-10H,8H2,1H3,(H,19,21)(H2,18,22,23)
Instrument: Q Exactive Plus Orbitrap Thermo Scientific
Instrument type: LC-ESI-QFT
Ms type: MS2
Ion mode: POSITIVE
Ionization: ESI
Fragmentation mode: HCD
Collision energy: 120 (nominal)
Resolution: 35000
Column name: XBridge C18 3.5um, 2.1x50mm, Waters
Retention time: 6.7 min
Base peak: 366.0667
Precursor m/z: 366.0674
Precursor type: [M+H]+
m/z	relative intensity	assigned
50.0151	8	C4H2+
51.0228	5	C4H3+
53.0022	12	C3HO+
53.0386	8	C4H5+
53.9974	2	C2NO+
62.0151	5	C5H2+
63.0229	53	C5H3+
64.0307	6	C5H4+
65.0386	999	C5H5+
66.0464	27	C5H6+
67.9893	2	C3O2+
68.0256	2	C4H4O+
72.9839	5	C3H2Cl+
74.015	4	C6H2+
75.0229	5	C6H3+
77.0385	12	C6H5+
79.0542	36	C6H7+
81.0335	1	C5H5O+
89.0386	177	C7H5+
90.0465	262	C7H6+
91.0542	799	C7H7+
93.0574	2	C6H7N+
94.0414	2	C6H6O+
95.0492	30	C6H7O+
98.9997	19	C5H4Cl+
103.0542	33	C8H7+
105.0448	24	C6H5N2+
105.0699	34	C8H9+
106.0652	2	C7H8N+
108.9839	5	C6H2Cl+
109.0648	1	C7H9O+
109.9918	1	C6H3Cl+
115.0543	11	C9H7+
116.0496	8	C8H6N+
117.0573	631	C8H7N+
118.0651	120	C8H8N+
121.0285	3	C7H5O2+
122.0362	2	C7H6O2+
130.0652	50	C9H8N+
131.0731	13	C9H9N+
132.0807	7	C9H10N+
