Mass spectrum: Isofenphos; LC-ESI-QFT; MS2; CE: 120%; R=17500; [M+H]+
Name: Isofenphos
Name: propan-2-yl 2-[ethoxy-(propan-2-ylamino)phosphinothioyl]oxybenzoate
Formula: C15H24NO4PS
Exact mass: 345.1164
SMILES: CCOP(=S)(NC(C)C)OC1=CC=CC=C1C(=O)OC(C)C
InChI: InChI=1S/C15H24NO4PS/c1-6-18-21(22,16-11(2)3)20-14-10-8-7-9-13(14)15(17)19-12(4)5/h7-12H,6H2,1-5H3,(H,16,22)
Instrument: Exploris 240 Orbitrap Thermo Scientific
Instrument type: LC-ESI-QFT
Ms type: MS2
Ion mode: POSITIVE
Ionization: ESI
Fragmentation mode: HCD
Collision energy: 120 % (nominal)
Resolution: 17500
Column name: XBridge C18 3.5um, 2.1x50mm, Waters
Retention time: 11.726 min
Base peak: 245.0031
Precursor m/z: 346.1236
Precursor type: [M+H]+
m/z	relative intensity	assigned
63.9946	259	H3NOP+
65.0385	999	C5H5+
78.9402	72	OPS+
92.0256	128	C6H4O+
93.0334	116	C6H5O+
95.9668	389	H3NOPS+
109.0107	108	C6H5S+
111.0439	27	C6H7O2+
121.0284	504	C3H8NO2P+
138.9945	23	C6H4O2P+
