Mass spectrum: Sulfadimethoxine; LC-ESI-ITFT; MS2; CE: 35%; R=7500; [M+H]+
Name: Sulfadimethoxine
Name: 4-amino-N-(2,6-dimethoxy-4-pyrimidinyl)benzenesulfonamide
Formula: C12H14N4O4S
Exact mass: 310.0736
SMILES: c1(NS(c2ccc(N)cc2)(=O)=O)cc(nc(n1)OC)OC
InChI: InChI=1S/C12H14N4O4S/c1-19-11-7-10(14-12(15-11)20-2)16-21(17,18)9-5-3-8(13)4-6-9/h3-7H,13H2,1-2H3,(H,14,15,16)
Instrument: LTQ Orbitrap XL Thermo Scientific
Instrument type: LC-ESI-ITFT
Ms type: MS2
Ion mode: POSITIVE
Ionization: ESI
Fragmentation mode: CID
Collision energy: 35 % (nominal)
Resolution: 7500
Column name: XBridge C18 3.5um, 2.1x50mm, Waters
Retention time: 5.7 min
Base peak: 311.0817
Precursor m/z: 311.0809
Precursor type: [M+H]+
m/z	relative intensity	assigned
92.0494	34	C6H6N+
108.0444	185	C6H6NO+
127.0502	10	C5H7N2O2+
141.0529	8	C5H7N3O2+
154.0606	7	C6H8N3O2+
156.0114	746	C6H6NO2S+
156.0768	930	C6H10N3O2+
218.023	674	C6H8N3O4S+
230.0801	14	C11H10N4O2+
245.1032	999	C12H13N4O2+
247.1191	18	C12H15N4O2+
293.0705	54	C12H13N4O3S+
