Mass spectrum: Trinexapac-ethyl; LC-ESI-ITFT; MS2; CE: 15%; R=15000; [M+H]+
Name: Trinexapac-ethyl
Name: 4-[cyclopropyl(hydroxy)methylene]-3,5-diketo-cyclohexanecarboxylic acid ethyl ester
Formula: C13H16O5
Exact mass: 252.0992
SMILES: CCOC(=O)C1CC(=O)C(=C(C2CC2)O)C(=O)C1
InChI: InChI=1S/C13H16O5/c1-2-18-13(17)8-5-9(14)11(10(15)6-8)12(16)7-3-4-7/h7-8,16H,2-6H2,1H3/b12-11-
Instrument: LTQ Orbitrap XL Thermo Scientific
Instrument type: LC-ESI-ITFT
Ms type: MS2
Ion mode: POSITIVE
Ionization: ESI
Fragmentation mode: HCD
Collision energy: 15 % (nominal)
Resolution: 15000
Column name: XBridge C18 3.5um, 2.1x50mm, Waters
Retention time: 8.9 min
Base peak: 253.1073
Precursor m/z: 253.1071
Precursor type: [M+H]+
m/z	relative intensity	assigned
69.0335	95	C4H5O+
111.0442	2	C6H7O2+
139.0389	39	C7H7O3+
165.0181	11	C8H5O4+
179.0701	6	C10H11O3+
185.0809	150	C9H13O4+
207.0652	209	C11H11O4+
253.1071	999	C13H17O5+
