Mass spectrum: Tramadol N-Oxide; LC-ESI-QFT; MS2; CE: 120; R=35000; [M+H]+
Name: Tramadol N-Oxide
Name: 1-[(1R,2R)-2-hydroxy-2-(3-methoxyphenyl)cyclohexyl]-N,N-dimethylmethanamine oxide
Formula: C16H25NO3
Exact mass: 279.18344
SMILES: [O-][N+](C)(C)C[C@H]2CCCC[C@]2(O)c1cc(OC)ccc1
InChI: InChI=1S/C16H25NO3/c1-17(2,19)12-14-7-4-5-10-16(14,18)13-8-6-9-15(11-13)20-3/h6,8-9,11,14,18H,4-5,7,10,12H2,1-3H3/t14-,16+/m1/s1
Instrument: Q Exactive Plus Orbitrap Thermo Scientific
Instrument type: LC-ESI-QFT
Ms type: MS2
Ion mode: POSITIVE
Ionization: ESI
Fragmentation mode: HCD
Collision energy: 120 (nominal)
Resolution: 35000
Column name: XBridge C18 3.5um, 2.1x50mm, Waters
Retention time: 5.1 min
Base peak: 280.1904
Precursor m/z: 280.1907
Precursor type: [M+H]+
m/z	relative intensity	assigned
50.0151	50	C4H2+
51.0229	40	C4H3+
52.0307	1	C4H4+
53.0022	15	C3HO+
53.0386	183	C4H5+
54.0338	2	C3H4N+
54.0464	17	C4H6+
55.0178	34	C3H3O+
55.0542	95	C4H7+
56.0495	83	C3H6N+
57.0335	6	C3H5O+
57.0573	8	C3H7N+
58.0651	999	C3H8N+
60.0444	1	C2H6NO+
62.0151	5	C5H2+
62.06	11	C2H8NO+
63.0229	88	C5H3+
64.0307	104	C5H4+
65.0386	244	C5H5+
66.0464	14	C5H6+
67.0417	13	C4H5N+
67.0542	47	C5H7+
67.9892	2	C3O2+
68.0495	11	C4H6N+
68.9971	1	C3HO2+
69.0335	1	C4H5O+
69.0575	2	C4H7N+
69.0699	11	C5H9+
70.0651	34	C4H8N+
71.0729	13	C4H9N+
72.0808	5	C4H10N+
77.0385	369	C6H5+
78.0464	229	C6H6+
79.0542	119	C6H7+
80.0256	1	C5H4O+
80.0495	15	C5H6N+
81.0335	32	C5H5O+
81.0572	13	C5H7N+
81.0698	13	C6H9+
82.0651	24	C5H8N+
83.0855	2	C6H11+
84.0808	59	C5H10N+
89.0386	8	C7H5+
90.0465	12	C7H6+
91.0542	652	C7H7+
92.0257	846	C6H4O+
93.0699	9	C7H9+
94.0413	68	C6H6O+
94.0652	74	C6H8N+
95.0491	708	C6H7O+
96.0808	2	C6H10N+
98.0966	1	C6H12N+
102.0464	30	C8H6+
103.0542	85	C8H7+
104.0621	11	C8H8+
105.0448	397	C6H5N2+
105.0699	23	C8H9+
106.0413	34	C7H6O+
107.0491	42	C7H7O+
108.057	5	C7H8O+
108.0809	5	C7H10N+
109.0649	16	C7H9O+
110.0964	2	C7H12N+
115.0542	327	C9H7+
116.0621	138	C9H8+
117.0699	57	C9H9+
118.0413	5	C8H6O+
119.0493	5	C8H7O+
119.0605	1	C7H7N2+
119.0857	1	C9H11+
121.0648	182	C8H9O+
125.0597	91	C7H9O2+
126.0465	5	C10H6+
127.0543	25	C10H7+
128.062	170	C10H8+
129.0698	84	C10H9+
130.0414	13	C9H6O+
130.0778	7	C10H10+
131.0491	43	C9H7O+
132.057	12	C9H8O+
133.0648	3	C9H9O+
135.044	11	C8H7O2+
135.0553	41	C7H7N2O+
135.0802	5	C9H11O+
141.0699	27	C11H9+
142.0777	5	C11H10+
143.0493	10	C10H7O+
143.0855	5	C11H11+
144.057	96	C10H8O+
145.0648	59	C10H9O+
146.0728	1	C10H10O+
147.0806	5	C10H11O+
152.0622	5	C12H8+
153.0698	10	C12H9+
154.0778	2	C12H10+
155.0603	53	C10H7N2+
157.0647	11	C11H9O+
158.0728	20	C11H10O+
159.0804	24	C11H11O+
160.0884	1	C11H12O+
165.07	1	C13H9+
171.0804	6	C12H11O+
