Mass spectrum: Fluazifop; LC-ESI-ITFT; MS2; CE: 60%; R=7500; [M+H]+
Name: Fluazifop
Name: 2-[4-[5-(trifluoromethyl)pyridin-2-yl]oxyphenoxy]propanoic acid
Formula: C15H12F3NO4
Exact mass: 327.0724
SMILES: CC(C(=O)O)OC1=CC=C(C=C1)OC2=NC=C(C=C2)C(F)(F)F
InChI: InChI=1S/C15H12F3NO4/c1-9(14(20)21)22-11-3-5-12(6-4-11)23-13-7-2-10(8-19-13)15(16,17)18/h2-9H,1H3,(H,20,21)
Instrument: LTQ Orbitrap XL Thermo Scientific
Instrument type: LC-ESI-ITFT
Ms type: MS2
Ion mode: POSITIVE
Ionization: ESI
Fragmentation mode: HCD
Collision energy: 60 % (nominal)
Resolution: 7500
Column name: XBridge C18 3.5um, 2.1x50mm, Waters
Retention time: 10.9 min
Base peak: 328.0794
Precursor m/z: 328.0791
Precursor type: [M+H]+
m/z	relative intensity	assigned
65.0386	154	C5H5+
91.0543	785	C7H7+
92.0255	15	C6H4O+
93.0335	57	C6H5O+
94.0412	9	C6H6O+
111.0445	11	C6H7O2+
119.0491	96	C8H7O+
121.0284	29	C7H5O2+
121.0648	11	C8H9O+
141.0568	10	C10H7N+
146.0212	13	C6H3F3N+
147.029	75	C6H4F3N+
148.0368	7	C6H5F3N+
158.06	15	C10H8NO+
163.024	22	C6H4F3NO+
164.0317	128	C6H5F3NO+
179.0189	144	C6H4F3NO2+
186.0528	19	C9H7F3N+
198.0522	33	C10H7F3N+
199.0608	7	C10H8F3N+
210.0517	10	C11H7F3N+
211.0601	20	C11H8F3N+
213.0791	16	C13H11NO2+
218.0408	22	C12H6F2NO+
226.0473	34	C11H7F3NO+
226.0838	29	C12H11F3N+
227.0551	624	C11H8F3NO+
235.0612	8	C13H8F3N+
236.0675	33	C13H9F3N+
238.0473	999	C12H7F3NO+
240.0609	9	C15H8F2N+
254.0423	627	C12H7F3NO2+
254.0785	264	C13H11F3NO+
255.0502	191	C12H8F3NO2+
256.0578	386	C12H9F3NO2+
264.0617	10	C11H11F3O4+
282.0736	180	C14H11F3NO2+
