Mass spectrum: Methsuximide; LC-ESI-QFT; MS2; CE: 30; R=35000; [M+H]+
Name: Methsuximide
Name: 1,3-dimethyl-3-phenylpyrrolidine-2,5-dione
Formula: C12H13NO2
Exact mass: 203.09463
SMILES: CC1(CC(=O)N(C1=O)C)C2=CC=CC=C2
InChI: InChI=1S/C12H13NO2/c1-12(9-6-4-3-5-7-9)8-10(14)13(2)11(12)15/h3-7H,8H2,1-2H3
Instrument: Q Exactive Orbitrap Thermo Scientific
Instrument type: LC-ESI-QFT
Ms type: MS2
Ion mode: POSITIVE
Ionization: ESI
Fragmentation mode: HCD
Collision energy: 30 (nominal)
Resolution: 35000
Column name: XBridge C18 3.5um, 2.1x50mm, Waters
Retention time: 6.8 min
Base peak: 204.1021
Precursor m/z: 204.1019
Precursor type: [M+H]+
m/z	relative intensity	assigned
58.0287	29	C2H4NO+
69.0335	73	C4H5O+
79.0542	77	C6H7+
91.0542	14	C7H7+
117.0697	2	C9H9+
119.0855	460	C9H11+
121.0648	11	C8H9O+
126.0549	120	C6H8NO2+
129.0698	2	C10H9+
134.0964	8	C9H12N+
145.0649	82	C10H9O+
147.0805	19	C10H11O+
158.0964	6	C11H12N+
162.0913	3	C10H12NO+
163.0753	2	C10H11O2+
173.0598	2	C11H9O2+
176.1071	30	C11H14NO+
186.0913	11	C12H12NO+
204.102	999	C12H14NO2+
