Mass spectrum: Ethofumesate-2-keto; LC-ESI-ITFT; MS2; CE: 90%; R=30000; [M+H]+
Name: Ethofumesate-2-keto
Name: 3,3-Dimethyl-2-oxo-2,3-dihydrobenzofurane-5-yl methane sulfonate
Formula: C11H12O5S
Exact mass: 256.0405
SMILES: CS(=O)(=O)Oc1cc2c(cc1)OC(=O)C2(C)C
InChI: InChI=1S/C11H12O5S/c1-11(2)8-6-7(16-17(3,13)14)4-5-9(8)15-10(11)12/h4-6H,1-3H3
Instrument: LTQ Orbitrap XL Thermo Scientific
Instrument type: LC-ESI-ITFT
Ms type: MS2
Ion mode: POSITIVE
Ionization: ESI
Fragmentation mode: HCD
Collision energy: 90 % (nominal)
Resolution: 30000
Column name: XBridge C18 3.5um, 2.1x50mm, Waters
Retention time: 6.0 min
Base peak: 297.0411
Precursor m/z: 257.0478
Precursor type: [M+H]+
m/z	relative intensity	assigned
66.0464	149	C5H6+
67.0542	151	C5H7+
77.0386	812	C6H5+
79.0542	928	C6H7+
91.0542	616	C7H7+
93.0699	388	C7H9+
94.0413	505	C6H6O+
95.049	111	C6H7O+
103.0542	999	C8H7+
104.0621	115	C8H8+
105.0447	220	C6H5N2+
105.0699	338	C8H9+
107.0491	784	C7H7O+
121.0648	618	C8H9O+
122.0726	547	C8H10O+
123.044	833	C7H7O2+
131.0491	321	C9H7O+
132.0569	629	C9H8O+
135.044	361	C8H7O2+
149.0597	289	C9H9O2+
160.0521	218	C10H8O2+
163.0389	328	C9H7O3+
