Mass spectrum: Octocrylene; LC-ESI-QFT; MS2; CE: 60; R=35000; [M+H]+
Name: Octocrylene
Name: [(2R)-2-ethylhexyl] 2-cyano-3,3-diphenylprop-2-enoate
Formula: C24H27NO2
Exact mass: 361.20418
SMILES: C(\c1ccccc1)(c1ccccc1)=C(/C(OC[C@@H](CCCC)CC)=O)C#N
InChI: InChI=1S/C24H27NO2/c1-3-5-12-19(4-2)18-27-24(26)22(17-25)23(20-13-8-6-9-14-20)21-15-10-7-11-16-21/h6-11,13-16,19H,3-5,12,18H2,1-2H3/t19-/m1/s1
Instrument: Q Exactive Plus Orbitrap Thermo Scientific
Instrument type: LC-ESI-QFT
Ms type: MS2
Ion mode: POSITIVE
Ionization: ESI
Fragmentation mode: HCD
Collision energy: 60 (nominal)
Resolution: 35000
Column name: XBridge C18 3.5um, 2.1x50mm, Waters
Retention time: 17.2 min
Base peak: 250.086
Precursor m/z: 362.2115
Precursor type: [M+H]+
m/z	relative intensity	assigned
51.0228	1	C4H3+
53.0022	3	C3HO+
53.0386	12	C4H5+
57.0699	115	C4H9+
68.9972	10	C3HO2+
71.0855	52	C5H11+
77.0384	20	C6H5+
95.0492	34	C6H7O+
103.0543	5	C8H7+
104.0495	64	C7H6N+
105.0336	669	C7H5O+
116.0494	1	C8H6N+
128.0494	13	C9H6N+
129.0335	27	C9H5O+
130.0289	3	C8H4NO+
146.06	1	C9H8NO+
147.044	12	C9H7O2+
151.0542	3	C12H7+
153.0699	9	C12H9+
154.0288	11	C10H4NO+
157.0285	21	C10H5O2+
165.0702	11	C13H9+
169.0649	5	C12H9O+
175.0389	3	C10H7O3+
176.0621	72	C14H8+
177.07	286	C14H9+
178.0778	54	C14H10+
179.0605	1	C12H7N2+
179.0856	19	C14H11+
181.065	9	C13H9O+
182.0965	17	C13H12N+
183.0805	1	C13H11O+
195.0806	33	C14H11O+
196.076	4	C13H10NO+
201.0571	3	C15H7N+
202.0653	14	C15H8N+
203.073	285	C15H9N+
204.081	999	C15H10N+
205.0655	6	C15H9O+
205.0761	86	C14H9N2+
206.0966	30	C15H12N+
207.0802	3	C15H11O+
208.0761	1	C14H10NO+
220.0755	9	C15H10NO+
222.0917	13	C15H12NO+
231.0672	1	C16H9NO+
232.0759	644	C16H10NO+
236.1068	1	C16H14NO+
250.0863	31	C16H12NO2+
264.1027	1	C17H14NO2+
