Mass spectrum: Phenobarbital; LC-ESI-QFT; MS2; CE: 120; R=35000; [M+H]+
Name: Phenobarbital
Name: 5-ethyl-5-phenyl-1,3-diazinane-2,4,6-trione
Formula: C12H12N2O3
Exact mass: 232.08479
SMILES: CCC1(C(=O)NC(=O)NC1=O)C2=CC=CC=C2
InChI: InChI=1S/C12H12N2O3/c1-2-12(8-6-4-3-5-7-8)9(15)13-11(17)14-10(12)16/h3-7H,2H2,1H3,(H2,13,14,15,16,17)
Instrument: Q Exactive Plus Orbitrap Thermo Scientific
Instrument type: LC-ESI-QFT
Ms type: MS2
Ion mode: POSITIVE
Ionization: ESI
Fragmentation mode: HCD
Collision energy: 120 (nominal)
Resolution: 35000
Column name: XBridge C18 3.5um, 2.1x50mm, Waters
Retention time: 6.0 min
Base peak: 251.1845
Precursor m/z: 233.0921
Precursor type: [M+H]+
m/z	relative intensity	assigned
50.015	21	C4H2+
51.0228	70	C4H3+
53.0021	23	C3HO+
53.0385	116	C4H5+
55.0177	60	C3H3O+
55.0541	111	C4H7+
56.0494	58	C3H6N+
57.0334	9	C3H5O+
59.049	12	C3H7O+
63.0228	29	C5H3+
65.0385	155	C5H5+
66.0463	10	C5H6+
67.0541	32	C5H7+
69.0333	6	C4H5O+
69.9922	25	C2NO2+
77.0384	76	C6H5+
78.0463	116	C6H6+
79.0541	250	C6H7+
81.0333	11	C5H5O+
81.0697	7	C6H9+
89.0384	584	C7H5+
91.0541	904	C7H7+
93.0571	11	C6H7N+
94.0411	7	C6H6O+
95.049	335	C6H7O+
97.0076	48	C8H+
102.0462	34	C8H6+
103.054	49	C8H7+
104.0493	999	C7H6N+
105.0333	115	C7H5O+
105.0446	243	C6H5N2+
105.0572	107	C7H7N+
105.0695	13	C8H9+
106.065	133	C7H8N+
111.023	9	C9H3+
115.0541	417	C9H7+
116.0493	25	C8H6N+
116.0619	25	C9H8+
117.0572	39	C8H7N+
117.0697	86	C9H9+
118.0649	25	C8H8N+
119.0729	36	C8H9N+
126.0464	10	C10H6+
127.054	29	C10H7+
128.062	78	C10H8+
129.0698	8	C10H9+
132.0443	38	C8H6NO+
133.052	405	C8H7NO+
134.06	20	C8H8NO+
143.073	54	C10H9N+
144.0807	21	C10H10N+
145.0646	27	C10H9O+
146.0596	7	C9H8NO+
155.0603	37	C10H7N2+
