Mass spectrum: Cycloxydim-TP BH 517-TSO E/Z-isomer; LC-ESI-QFT; MS2; CE: 90%; R=17500; [M-H]-
Name: Cycloxydim-TP BH 517-TSO E/Z-isomer
Name: Cycloxydim sulfoxide
Formula: C17H27NO4S
Exact mass: 341.1661
SMILES: CCC\C(=N/OCC)C1=C(O)CC(CC1=O)C1CCCS(=O)C1
InChI: InChI=1S/C17H27NO4S/c1-3-6-14(18-22-4-2)17-15(19)9-13(10-16(17)20)12-7-5-8-23(21)11-12/h12-13,19H,3-11H2,1-2H3/b18-14+
Instrument: Q Exactive Plus Orbitrap Thermo Scientific
Instrument type: LC-ESI-QFT
Ms type: MS2
Ion mode: NEGATIVE
Ionization: ESI
Fragmentation mode: HCD
Collision energy: 90 % (nominal)
Resolution: 17500
Column name: XBridge C18 3.5um, 2.1x50mm, Waters
Retention time: 7.752 min
Base peak: 340.1587
Precursor m/z: 340.1588
Precursor type: [M-H]-
m/z	relative intensity	assigned
58.9961	21	C2H3S-
59.0137	9	C2H3O2-
65.9986	999	C3NO-
68.0142	11	C3H2NO-
81.022	13	C4H3NO-
82.03	30	C4H4NO-
90.0351	12	C6H4N-
95.0503	8	C6H7O-
99.0274	118	C5H7S-
105.0221	10	C6H3NO-
108.022	10	C6H4O2-
109.017	29	C5H3NO2-
109.0295	16	C6H5O2-
110.0614	20	C6H8NO-
118.0297	17	C7H4NO-
120.0091	270	C6H2NO2-
120.0457	14	C7H6NO-
121.0174	16	C6H3NO2-
125.0431	7	C7H9S-
131.0381	30	C2H11O4S-
132.0453	7	C8H6NO-
133.0169	45	C7H3NO2-
134.0248	652	C7H4NO2-
135.0329	37	C7H5NO2-
139.059	29	C8H11S-
146.0616	16	C3H14O4S-
147.0327	13	C8H5NO2-
158.0608	36	C10H8NO-
160.0403	109	C9H6NO2-
162.0561	180	C9H8NO2-
165.9977	26	C7H4NO2S-
174.0559	56	C10H8NO2-
175.0638	11	C10H9NO2-
186.0571	18	C11H8NO2-
188.0721	44	C11H10NO2-
190.0872	22	C11H12NO2-
192.0132	19	C9H6NO2S-
200.0718	32	C12H10NO2-
202.0872	73	C12H12NO2-
204.1029	37	C12H14NO2-
234.0599	45	C12H12NO2S-
