Mass spectrum: Propham; LC-ESI-QFT; MS2; CE: 120%; R=17500; [M+H]+
Name: Propham
Name: propan-2-yl N-phenylcarbamate
Formula: C10H13NO2
Exact mass: 179.0946
SMILES: CC(C)OC(=O)NC1=CC=CC=C1
InChI: InChI=1S/C10H13NO2/c1-8(2)13-10(12)11-9-6-4-3-5-7-9/h3-8H,1-2H3,(H,11,12)
Instrument: Exploris 240 Orbitrap Thermo Scientific
Instrument type: LC-ESI-QFT
Ms type: MS2
Ion mode: POSITIVE
Ionization: ESI
Fragmentation mode: HCD
Collision energy: 120 % (nominal)
Resolution: 17500
Column name: XBridge C18 3.5um, 2.1x50mm, Waters
Retention time: 6.825 min
Base peak: 138.0549
Precursor m/z: 180.1019
Precursor type: [M+H]+
m/z	relative intensity	assigned
41.0385	21	C3H5+
43.0542	22	C3H7+
51.0229	257	C4H3+
53.0386	366	C4H5+
55.0178	12	C3H3O+
65.0386	204	C5H5+
67.0544	17	C5H7+
77.0386	999	C6H5+
81.0336	25	C5H5O+
92.0495	448	C6H6N+
93.0573	65	C6H7N+
94.0412	32	C6H6O+
94.0651	148	C6H8N+
95.0492	381	C6H7O+
109.065	9	C7H9O+
120.0446	29	C7H6NO+
