Mass spectrum: Ametryn; LC-ESI-QFT; MS2; CE: 75; R=35000; [M+H]+
Name: Ametryn
Name: 4-N-ethyl-6-methylsulfanyl-2-N-propan-2-yl-1,3,5-triazine-2,4-diamine
Formula: C9H17N5S
Exact mass: 227.12047
SMILES: S(c1nc(nc(n1)NC(C)C)NCC)C
InChI: InChI=1S/C9H17N5S/c1-5-10-7-12-8(11-6(2)3)14-9(13-7)15-4/h6H,5H2,1-4H3,(H2,10,11,12,13,14)
Instrument: Q Exactive Orbitrap Thermo Scientific
Instrument type: LC-ESI-QFT
Ms type: MS2
Ion mode: POSITIVE
Ionization: ESI
Fragmentation mode: HCD
Collision energy: 75 (nominal)
Resolution: 35000
Column name: XBridge C18 3.5um, 2.1x50mm, Waters
Retention time: 7.2 min
Base peak: 228.128
Precursor m/z: 228.1277
Precursor type: [M+H]+
m/z	relative intensity	assigned
68.0243	742	C2H2N3+
70.0401	2	C2H4N3+
71.0604	574	C3H7N2+
74.0059	207	C2H4NS+
85.0509	118	C2H5N4+
85.0761	18	C4H9N2+
91.0325	700	C2H7N2S+
96.0557	999	C4H6N3+
99.0012	1	C3H3N2S+
102.0372	31	C4H8NS+
110.0462	86	C3H4N5+
110.0714	7	C5H8N3+
113.0822	97	C4H9N4+
116.0277	557	C3H6N3S+
138.0775	302	C5H8N5+
140.0931	3	C5H10N5+
144.0591	243	C5H10N3S+
158.0496	234	C4H8N5S+
169.0544	2	C6H9N4S+
171.0573	7	C5H9N5S+
180.1245	3	C8H14N5+
184.0653	3	C6H10N5S+
186.0809	887	C6H12N5S+
228.1279	33	C9H18N5S+
