Mass spectrum: Pyraclofos; LC-ESI-QFT; MS2; CE: 120%; R=17500; [M+H]+
Name: Pyraclofos
Name: 1-(4-chlorophenyl)-4-[ethoxy(propylsulfanyl)phosphoryl]oxypyrazole
Formula: C14H18ClN2O3PS
Exact mass: 360.0464
SMILES: CCCSP(=O)(OCC)OC1=CN(N=C1)C2=CC=C(C=C2)Cl
InChI: InChI=1S/C14H18ClN2O3PS/c1-3-9-22-21(18,19-4-2)20-14-10-16-17(11-14)13-7-5-12(15)6-8-13/h5-8,10-11H,3-4,9H2,1-2H3
Instrument: Exploris 240 Orbitrap Thermo Scientific
Instrument type: LC-ESI-QFT
Ms type: MS2
Ion mode: POSITIVE
Ionization: ESI
Fragmentation mode: HCD
Collision energy: 120 % (nominal)
Resolution: 17500
Column name: XBridge C18 3.5um, 2.1x50mm, Waters
Retention time: 11.576 min
Base peak: 361.0538
Precursor m/z: 361.0537
Precursor type: [M+H]+
m/z	relative intensity	assigned
51.0228	76	C4H3+
53.0387	12	C4H5+
58.0288	45	C2H4NO+
64.9786	224	H2O2P+
75.0229	240	C6H3+
77.0386	66	C6H5+
78.9402	106	OPS+
86.9997	88	C4H4Cl+
96.9507	392	H2O2PS+
104.0495	91	C7H6N+
105.0446	16	C6H5N2+
105.0572	101	C7H7N+
110.9995	309	C6H4Cl+
112.0077	66	C2H8ClNP+
113.0156	12	C2H9ClNP+
114.0339	29	C8H4N+
115.0417	39	C8H5N+
122.9995	58	C7H4Cl+
129.01	170	C5H6O2P+
131.0607	22	C8H7N2+
138.0105	328	C7H5ClN+
139.0058	999	C6H4ClN2+
142.0523	32	C9H6N2+
149.0288	22	C8H7NS+
150.0106	33	C8H5ClN+
151.0183	15	C8H6ClN+
166.0054	14	C8H5ClNO+
