Mass spectrum: N-Desmethylvenlafaxine; LC-ESI-ITFT; MS2; CE: 60%; R=15000; [M+H]+
Name: N-Desmethylvenlafaxine
Name: 1-[1-(4-methoxyphenyl)-2-(methylamino)ethyl]-1-cyclohexanol
Formula: C16H25NO2
Exact mass: 263.1885
SMILES: CNCC(C1=CC=C(C=C1)OC)C2(CCCCC2)O
InChI: InChI=1S/C16H25NO2/c1-17-12-15(16(18)10-4-3-5-11-16)13-6-8-14(19-2)9-7-13/h6-9,15,17-18H,3-5,10-12H2,1-2H3
Instrument: LTQ Orbitrap XL Thermo Scientific
Instrument type: LC-ESI-ITFT
Ms type: MS2
Ion mode: POSITIVE
Ionization: ESI
Fragmentation mode: HCD
Collision energy: 60 % (nominal)
Resolution: 15000
Column name: XBridge C18 3.5um, 2.1x50mm, Waters
Retention time: 6.3 min
Base peak: 264.1967
Precursor m/z: 264.1958
Precursor type: [M+H]+
m/z	relative intensity	assigned
67.0541	6	C5H7+
69.0699	16	C5H9+
79.0542	60	C6H7+
81.0699	60	C6H9+
91.0542	87	C7H7+
93.0699	42	C7H9+
107.049	8	C7H7O+
107.0854	33	C8H11+
121.0648	999	C8H9O+
132.0569	34	C9H8O+
135.0803	75	C9H11O+
141.0699	6	C11H9+
144.0564	8	C10H8O+
145.0649	16	C10H9O+
147.0804	617	C10H11O+
149.0838	22	C9H11NO+
158.0726	25	C11H10O+
159.0803	138	C11H11O+
161.096	17	C11H13O+
163.0989	23	C10H13NO+
164.1069	41	C10H14NO+
173.096	203	C12H13O+
183.1169	22	C14H15+
187.1126	11	C13H15O+
215.1431	67	C15H19O+
