Mass spectrum: Thiamethoxam; LC-ESI-ITFT; MS2; CE: 90%; R=7500; [M+H]+
Name: Thiamethoxam
Name: 3-((2-Chloro-5-thiazolyl)methyl)tetrahydro-5-methyl-N-nitro-4H-1,3,5-oxadiazin-4-imine
Formula: C8H10ClN5O3S
Exact mass: 291.0193
SMILES: Clc1ncc(s1)CN2\C(=N\[N+]([O-])=O)N(C)COC2
InChI: InChI=1S/C8H10ClN5O3S/c1-12-4-17-5-13(8(12)11-14(15)16)3-6-2-10-7(9)18-6/h2H,3-5H2,1H3/b11-8+
Instrument: LTQ Orbitrap XL Thermo Scientific
Instrument type: LC-ESI-ITFT
Ms type: MS2
Ion mode: POSITIVE
Ionization: ESI
Fragmentation mode: HCD
Collision energy: 90 % (nominal)
Resolution: 7500
Column name: XBridge C18 3.5um, 2.1x50mm, Waters
Retention time: 4.1 min
Base peak: 292.0274
Precursor m/z: 292.0266
Precursor type: [M+H]+
m/z	relative intensity	assigned
54.0337	6	C3H4N+
57.0448	9	C2H5N2+
61.9793	4	CHClN+
66.0339	5	C4H4N+
67.029	14	C3H3N2+
67.0416	79	C4H5N+
68.0494	7	C4H6N+
69.0447	108	C3H5N2+
69.987	3	C3H2S+
70.995	207	C3H3S+
71.9902	9	C2H2NS+
78.9403	20	CClS+
79.0291	17	C4H3N2+
80.0495	5	C5H6N+
81.0447	61	C4H5N2+
81.0573	19	C5H7N+
82.0526	11	C4H6N2+
82.9823	24	C3HNS+
83.9902	50	C3H2NS+
86.0059	6	C3H4NS+
87.9949	31	C3H3ClN+
92.0369	6	C5H4N2+
93.0447	20	C5H5N2+
94.04	5	C4H4N3+
94.0524	28	C5H6N2+
95.0603	31	C5H7N2+
95.99	7	C4H2NS+
96.0557	4	C4H6N3+
97.0395	10	C4H5N2O+
98.0058	158	C4H4NS+
99.0011	34	C3H3N2S+
99.0136	5	C4H5NS+
106.04	6	C5H4N3+
107.048	9	C5H5N3+
108.0556	696	C5H6N3+
110.0712	5	C5H8N3+
111.0011	45	C4H3N2S+
112.0086	4	C4H4N2S+
112.0214	22	C5H6NS+
113.0168	30	C4H5N2S+
118.9593	6	C3H2ClNS+
119.9668	4	C3H3ClNS+
120.0553	4	C6H6N3+
122.0712	179	C6H8N3+
123.0011	11	C5H3N2S+
123.079	65	C6H9N3+
124.0089	59	C5H4N2S+
125.0167	160	C5H5N2S+
126.0245	6	C5H6N2S+
131.9669	999	C4H3ClNS+
132.9747	37	C4H4ClNS+
135.0662	2	C6H7N4+
138.012	81	C5H4N3S+
138.025	9	C6H6N2S+
139.0197	5	C5H5N3S+
139.0328	3	C6H7N2S+
140.0276	4	C5H6N3S+
145.9699	4	C4H3ClN2S+
147.0665	12	C7H7N4+
151.0198	78	C6H5N3S+
152.0276	350	C6H6N3S+
154.0433	14	C6H8N3S+
165.023	36	C6H5N4S+
165.0776	4	C7H9N4O+
166.0309	12	C6H6N4S+
171.9732	6	C8N2OS+
174.9724	12	C8HNO2S+
179.0388	9	C7H7N4S+
180.0464	3	C7H8N4S+
181.0535	37	C7H9N4S+
185.9892	3	C6H5ClN3S+
215.014	4	C8H3N6S+
