Mass spectrum: Atenolol-desisopropyl; LC-ESI-ITFT; MS2; CE: 75%; R=15000; [M+H]+
Name: Atenolol-desisopropyl
Name: 4-(3-Amino-2-hydroxypropoxy)phenylacetamide
Formula: C11H16N2O3
Exact mass: 224.1161
SMILES: c1cc(ccc1CC(=O)N)OCC(CN)O
InChI: InChI=1S/C11H16N2O3/c12-6-9(14)7-16-10-3-1-8(2-4-10)5-11(13)15/h1-4,9,14H,5-7,12H2,(H2,13,15)
Instrument: LTQ Orbitrap XL Thermo Scientific
Instrument type: LC-ESI-ITFT
Ms type: MS2
Ion mode: POSITIVE
Ionization: ESI
Fragmentation mode: HCD
Collision energy: 75 % (nominal)
Resolution: 15000
Column name: XBridge C18 3.5um, 2.1x50mm, Waters
Retention time: 1.0 min
Base peak: 225.124
Precursor m/z: 225.1234
Precursor type: [M+H]+
m/z	relative intensity	assigned
56.0495	159	C3H6N+
74.0601	382	C3H8NO+
77.0385	17	C6H5+
79.0543	40	C6H7+
89.0386	79	C7H5+
91.0542	155	C7H7+
93.0699	101	C7H9+
103.0541	16	C8H7+
105.0338	7	C7H5O+
105.0699	143	C8H9+
106.0652	133	C7H8N+
107.0492	202	C7H7O+
115.0542	54	C9H7+
116.0495	39	C8H6N+
117.0335	37	C8H5O+
117.0572	17	C8H7N+
117.07	128	C9H9+
119.0492	113	C8H7O+
121.0649	146	C8H9O+
122.0601	30	C7H8NO+
131.049	11	C9H7O+
133.0649	657	C9H9O+
134.06	154	C8H8NO+
144.0809	7	C10H10N+
145.0649	999	C10H9O+
147.0441	50	C9H7O2+
152.0708	12	C8H10NO2+
155.0602	12	C10H7N2+
162.0663	101	C8H8N3O+
162.0913	13	C10H12NO+
163.0755	11	C10H11O2+
164.0707	29	C9H10NO2+
173.0603	11	C11H9O2+
178.0865	35	C10H12NO2+
190.0871	13	C11H12NO2+
