Mass spectrum: MCLR; LC-ESI-QFT; MS2; CE: 90%; R=17500; [M+H]+
Name: MCLR
Name: Microcystin LR
Name: (5R,8S,11R,12S,15S,18S,19S,22R)-15-[3-(diaminomethylideneamino)propyl]-18-[(1E,3E,5S,6S)-6-methoxy-3,5-dimethyl-7-phenylhepta-1,3-dienyl]-1,5,12,19-tetramethyl-2-methylidene-8-(2-methylpropyl)-3,6,9,13,16,20,25-heptaoxo-1,4,7,10,14,17,21-heptazacyclopentacosane-11,22-dicarboxylic acid
Class: NA
Formula: C49H74N10O12
Exact mass: 994.5488
SMILES: CO[C@@H](Cc1ccccc1)[C@@H](C)/C=C(C)/C=C/[C@@H]2NC(=O)[C@H](CCCNC(N)=N)NC(=O)[C@@H](C)[C@@H](NC(=O)[C@H](CC(C)C)NC(=O)[C@@H](C)NC(=O)C(=C)N(C)C(=O)CC[C@@H](NC(=O)[C@H]2C)C(O)=O)C(O)=O
InChI: InChI=1S/C49H74N10O12/c1-26(2)23-37-46(66)58-40(48(69)70)30(6)42(62)55-35(17-14-22-52-49(50)51)45(65)54-34(19-18-27(3)24-28(4)38(71-10)25-33-15-12-11-13-16-33)29(5)41(61)56-36(47(67)68)20-21-39(60)59(9)32(8)44(64)53-31(7)43(63)57-37/h11-13,15-16,18-19,24,26,28-31,34-38,40H,8,14,17,20-23,25H2,1-7,9-10H3,(H,53,64)(H,54,65)(H,55,62)(H,56,61)(H,57,63)(H,58,66)(H,67,68)(H,69,70)(H4,50,51,52)/b19-18+,27-24+/t28-,29-,30-,31+,34-,35-,36+,37-,38-,40+/m0/s1
Instrument: Q Exactive Plus Orbitrap Thermo Scientific
Instrument type: LC-ESI-QFT
Ms type: MS2
Ion mode: POSITIVE
Ionization: ESI
Fragmentation mode: HCD
Collision energy: 90 % (nominal)
Resolution: 17500
Column name: XBridge C18 3.5um, 2.1x50mm, Waters
Retention time: 8.590 min
Base peak: 498.282
Precursor m/z: 995.556
Precursor type: [M+H]+
m/z	relative intensity	assigned
69.0334	12	C4H5O+
69.0697	4	C5H9+
70.0651	633	C4H8N+
71.049	12	C4H7O+
72.0807	19	C4H10N+
77.0385	55	C6H5+
79.0542	153	C6H7+
80.0495	47	C5H6N+
81.0336	10	C5H5O+
82.0287	31	C4H4NO+
82.065	53	C5H8N+
84.0444	117	C4H6NO+
84.0807	5	
85.0284	21	C4H5O2+
85.076	15	C4H9N2+
86.06	13	C4H8NO+
86.0964	44	C5H12N+
91.0543	483	C7H7+
92.0621	9	C7H8+
93.0699	62	C7H9+
94.0652	23	C6H8N+
95.0491	446	C6H7O+
95.0603	31	C5H7N2+
95.0854	7	
96.0443	17	C5H6NO+
96.0806	8	C6H10N+
97.076	49	C5H9N2+
98.06	57	C5H8NO+
99.0192	19	C3H3N2O2+
99.0917	38	C5H11N2+
102.0464	34	C8H6+
103.0542	999	C8H7+
105.0447	141	C6H5N2+
105.0699	306	C8H9+
107.0855	149	C8H11+
108.0806	7	C7H10N+
109.0649	32	C7H9O+
110.0602	12	C6H8NO+
112.0869	36	C5H10N3+
113.0231	19	C5H5O3+
113.0708	16	C5H9N2O+
115.0543	138	C9H7+
115.0866	15	C5H11N2O+
116.0622	14	C9H8+
117.0698	56	C9H9+
119.0604	18	C7H7N2+
119.0856	14	C9H11+
120.057	18	C8H8O+
120.0809	20	C8H10N+
121.076	33	C7H9N2+
127.0865	124	C6H11N2O+
128.0621	18	C10H8+
129.0698	12	C10H9+
131.0855	12	C10H11+
135.0804	27	C9H11O+
139.0869	4	C7H11N2O+
141.0669	12	C6H9N2O2+
149.071	17	C8H9N2O+
165.07	10	C13H9+
167.0819	22	C8H11N2O2+
