Mass spectrum: Candesartan; LC-ESI-ITFT; MS2; CE: 30%; R=7500; [M+H]+
Name: Candesartan
Name: 2-ethoxy-3-[4-[2-(2H-tetrazol-5-yl)phenyl]benzyl]benzimidazole-4-carboxylic acid
Formula: C24H20N6O3
Exact mass: 440.1597
SMILES: c1(ccccc1c1ccc(Cn2c(nc3c2c(C(=O)O)ccc3)OCC)cc1)c1nnn[nH]1
InChI: InChI=1S/C24H20N6O3/c1-2-33-24-25-20-9-5-8-19(23(31)32)21(20)30(24)14-15-10-12-16(13-11-15)17-6-3-4-7-18(17)22-26-28-29-27-22/h3-13H,2,14H2,1H3,(H,31,32)(H,26,27,28,29)
Instrument: LTQ Orbitrap XL Thermo Scientific
Instrument type: LC-ESI-ITFT
Ms type: MS2
Ion mode: POSITIVE
Ionization: ESI
Fragmentation mode: HCD
Collision energy: 30 % (nominal)
Resolution: 7500
Column name: XBridge C18 3.5um, 2.1x50mm, Waters
Retention time: 9.3 min
Base peak: 441.1683
Precursor m/z: 441.167
Precursor type: [M+H]+
m/z	relative intensity	assigned
161.0352	15	C8H5N2O2+
178.0779	32	C14H10+
180.0808	49	C13H10N+
189.066	56	C10H9N2O2+
190.0656	42	C14H8N+
191.0455	30	C9H7N2O3+
192.0811	194	C14H10N+
193.0886	58	C14H11N+
194.0966	147	C14H12N+
205.0766	9	C14H9N2+
206.0845	30	C14H10N2+
206.1089	12	C16H14+
207.0917	502	C14H11N2+
208.1123	77	C15H14N+
210.0915	223	C14H12NO+
218.0969	56	C16H12N+
220.0997	61	C15H12N2+
233.1079	18	C16H13N2+
234.1153	46	C16H14N2+
235.0977	209	C14H11N4+
235.1231	613	C16H15N2+
261.1023	8	C17H13N2O+
263.1293	999	C18H17NO+
337.0956	17	C22H13N2O2+
338.106	179	C22H14N2O2+
349.1092	40	C22H13N4O+
350.0921	92	C22H12N3O2+
352.1087	270	C22H14N3O2+
366.1142	8	C24H16NO3+
367.1203	20	C24H17NO3+
380.1399	125	C24H18N3O2+
395.1511	200	C24H19N4O2+
423.1568	124	C24H19N6O2+
