Mass spectrum: Triclabendazole; LC-ESI-QFT; MS2; CE: 120; R=35000; [M+H]+
Name: Triclabendazole
Name: Triclabendazol
Name: 6-chloro-5-(2,3-dichlorophenoxy)-2-methylsulfanyl-1H-benzimidazole
Formula: C14H9Cl3N2OS
Exact mass: 357.95012
SMILES: CSc1[nH]c2cc(c(cc2n1)Oc3cccc(c3Cl)Cl)Cl
InChI: InChI=1S/C14H9Cl3N2OS/c1-21-14-18-9-5-8(16)12(6-10(9)19-14)20-11-4-2-3-7(15)13(11)17/h2-6H,1H3,(H,18,19)
Instrument: Q Exactive Plus Orbitrap Thermo Scientific
Instrument type: LC-ESI-QFT
Ms type: MS2
Ion mode: POSITIVE
Ionization: ESI
Fragmentation mode: HCD
Collision energy: 120 (nominal)
Resolution: 35000
Column name: XBridge C18 3.5um, 2.1x50mm, Waters
Retention time: 14.2 min
Base peak: 360.954
Precursor m/z: 358.9574
Precursor type: [M+H]+
m/z	relative intensity	assigned
50.0151	4	C4H2+
51.0229	4	C4H3+
52.0181	12	C3H2N+
53.0022	4	C3HO+
54.0338	5	C3H4N+
55.0178	1	C3H3O+
57.9871	1	C2H2S+
58.9951	1	C2H3S+
59.9664	5	COS+
59.9902	2	CH2NS+
60.9839	2	C2H2Cl+
61.9792	39	CHClN+
62.0151	4	C5H2+
63.0229	21	C5H3+
64.0182	95	C4H2N+
65.026	5	C4H3N+
65.0386	2	C5H5+
66.0338	7	C4H4N+
68.0131	5	C3H2NO+
68.9793	19	C3HS+
69.9746	4	C2NS+
69.9872	4	C3H2S+
71.9901	1	C2H2NS+
72.9839	49	C3H2Cl+
73.9792	4	C2HClN+
74.015	11	C6H2+
75.0103	5	C5HN+
75.0229	18	C6H3+
76.0181	115	C5H2N+
77.0259	9	C5H3N+
78.0338	74	C5H4N+
78.9403	23	CClS+
79.0179	1	C5H3O+
80.0131	3	C4H2NO+
80.9793	1	C4HS+
81.9871	8	C4H2S+
82.0287	20	C4H4NO+
82.9949	9	C4H3S+
83.0365	4	C4H5NO+
83.9903	10	C3H2NS+
84.9839	12	C4H2Cl+
85.9695	14	C2NOS+
85.9792	24	C3HClN+
86.9996	3	C4H4Cl+
87.9948	3	C3H3ClN+
88.0181	4	C6H2N+
89.026	4	C6H3N+
90.0105	67	C3H5ClN+
90.0339	32	C6H4N+
91.0291	126	C5H3N2+
92.0369	69	C5H4N2+
92.0494	5	C6H6N+
92.9793	7	C5HS+
93.9746	1	C4NS+
93.9872	13	C5H2S+
94.9824	1	C4HNS+
94.9951	1	C5H3S+
95.0493	1	C6H7O+
95.9901	9	C4H2NS+
96.0028	4	C5H4S+
96.0444	1	C5H6NO+
96.9839	28	C5H2Cl+
97.9793	1	C4HClN+
99.0228	1	C8H3+
99.9948	153	C4H3ClN+
101.0135	1	C6HN2+
102.0338	10	C7H4N+
102.0465	4	C8H6+
102.9403	3	C3ClS+
103.0291	56	C6H3N2+
103.0416	8	C7H5N+
104.0368	12	C6H4N2+
104.0495	3	C7H6N+
105.0447	1	C6H5N2+
105.9512	1	C2HClNS+
107.9902	101	C5H2NS+
108.9839	11	C6H2Cl+
108.9981	37	C5H3NS+
109.979	1	C5HClN+
110.0059	5	C5H4NS+
111.0001	1	C6H4Cl+
111.9948	83	C5H3ClN+
113.0026	22	C5H4ClN+
113.0386	1	C9H5+
113.9742	16	C4HClNO+
115.0542	3	C9H7+
116.0368	9	C7H4N2+
116.9561	23	C4H2ClS+
117.0448	15	C7H5N2+
118.0053	7	C4H5ClNO+
118.0525	19	C7H6N2+
119.9903	26	C6H2NS+
120.0444	6	C7H6NO+
120.9981	32	C6H3NS+
121.0397	5	C6H5N2O+
123.0229	2	C10H3+
123.9949	21	C6H3ClN+
124.0308	1	C10H4+
125.0027	21	C6H4ClN+
125.0386	25	C10H5+
126.0464	105	C10H6+
127.0058	750	C5H4ClN2+
127.9897	8	C5H3ClNO+
128.0495	3	C9H6N+
128.956	82	C5H2ClS+
129.0101	14	C6H6ClO+
129.0447	10	C8H5N2+
130.0055	24	C5H5ClNO+
130.0401	16	C7H4N3+
130.0525	12	C8H6N2+
131.0604	4	C8H7N2+
131.9846	5	CH6Cl2N2O+
135.0011	84	C6H3N2S+
136.0079	37	C8H5Cl+
136.0217	2	C7H6NS+
136.0267	1	C6H4N2O2+
136.9902	1	C6H2ClN2+
138.0105	33	C7H5ClN+
138.0342	3	C10H4N+
139.0058	197	C6H4ClN2+
139.9899	14	C6H3ClNO+
140.0495	79	C10H6N+
142.0055	5	C6H5ClNO+
143.0011	1	C5H4ClN2O+
143.0491	7	C10H7O+
143.967	144	C5H3ClNS+
145.0164	8	C5H6ClN2O+
145.0509	4	C7H5N4+
146.9667	5	C5H4ClOS+
147.0012	10	C7H3N2S+
147.055	1	C8H7N2O+
148.009	377	C7H4N2S+
149.0154	6	C9H6Cl+
149.998	6	C7H3ClN2+
150.034	4	C11H4N+
151.0417	87	C11H5N+
152.0137	6	C7H5ClN2+
152.0495	50	C11H6N+
153.012	6	C6H5N2OS+
153.0214	34	C7H6ClN2+
153.0448	5	C10H5N2+
153.0573	79	C11H7N+
154.0402	1	C9H4N3+
155.0005	12	C6H4ClN2O+
155.9669	78	C6H3ClNS+
157.0107	4	C10H5S+
157.0522	5	C10H7NO+
158.9996	5	C10H4Cl+
160.0075	137	C10H5Cl+
161.0027	6	C9H4ClN+
161.0152	25	C10H6Cl+
162.0105	4	C9H5ClN+
162.0424	1	C8H6N2O2+
163.0324	133	C8H7N2S+
164.0036	8	C7H4N2OS+
164.0497	1	C12H6N+
165.0215	27	C8H6ClN2+
165.0447	5	C11H5N2+
166.0525	5	C11H6N2+
167.0364	1	C11H5NO+
167.0604	6	C11H7N2+
168.0445	9	C11H6NO+
169.0102	1	C11H5S+
169.9686	11	C8H4Cl2+
170.0601	61	C11H8NO+
170.9778	999	C9HNOS+
173.0154	5	C11H6Cl+
174.0105	34	C10H5ClN+
176.0023	14	C10H5ClO+
176.0371	2	C12H4N2+
177.0104	1	C10H6ClO+
177.0446	5	C12H5N2+
178.0526	26	C12H6N2+
179.0258	12	C10H8ClO+
179.0493	6	C13H7O+
179.0604	85	C12H7N2+
180.0444	124	C12H6NO+
180.0556	22	C11H6N3+
181.0521	15	C12H7NO+
182.9778	12	C7H4ClN2S+
183.0138	29	C11H5NS+
184.0216	30	C11H6NS+
185.0027	16	C11H4ClN+
185.0161	1	C10H5N2S+
185.0474	1	C8H10ClN2O+
186.0105	31	C11H5ClN+
187.0183	64	C11H6ClN+
188.0262	97	C11H7ClN+
189.0102	192	C11H6ClO+
189.0213	52	C10H6ClN2+
190.0053	4	C10H5ClNO+
191.9794	4	C10H5ClS+
193.9685	17	C10H4Cl2+
194.006	5	C12H4NS+
194.0477	11	C12H6N2O+
194.9765	1	C10H5Cl2+
195.0554	34	C12H7N2O+
195.9841	14	C10H6Cl2+
196.9935	5	C8H6ClN2S+
198.0551	5	C12H8NO2+
198.9725	31	C7H4ClN2OS+
200.0024	7	C12H5ClO+
202.0053	2	C11H5ClNO+
202.0292	11	C11H7ClN2+
203.0131	15	C11H6ClNO+
204.0213	29	C11H7ClNO+
206.0473	9	C13H6N2O+
207.0554	42	C13H7N2O+
209.0167	2	C12H5N2S+
210.0245	11	C12H6N2S+
211.0325	205	C12H7N2S+
212.0165	82	C12H6NOS+
213.0213	36	C12H6ClN2+
214.0055	135	C12H5ClNO+
215.0132	79	C12H6ClNO+
216.0212	53	C12H7ClNO+
216.9745	1	C11H4ClNS+
218.9903	7	C11H6ClNS+
219.9747	9	C11H5ClOS+
220.016	3	C8H10Cl2N2O+
220.9923	1	C12H7Cl2+
221.9873	6	C11H6Cl2N+
222.9712	16	C11H5Cl2O+
223.9789	8	C11H6Cl2O+
229.0164	13	C12H6ClN2O+
233.9635	7	C12H4Cl2O+
237.0118	4	C13H5N2OS+
238.02	7	C13H6N2OS+
239.0274	66	C13H7N2OS+
241.0164	43	C13H6ClN2O+
242.0241	488	C13H7ClN2O+
244.9938	10	C12H6ClN2S+
245.9776	59	C12H5ClNOS+
248.9976	1	C12H7Cl2N2+
249.9821	9	C12H6Cl2NO+
250.9899	39	C12H7Cl2NO+
272.9884	20	C13H6ClN2OS+
273.9962	31	C13H7ClN2OS+
275.985	20	C13H6Cl2N2O+
