Mass spectrum: Neotame; LC-ESI-ITFT; MS2; CE: 35%; R=30000; [M+H]+
Name: Neotame
Name: (3S)-3-(3,3-dimethylbutylamino)-4-[[(2S)-1-methoxy-1-oxidanylidene-3-phenyl-propan-2-yl]amino]-4-oxidanylidene-butanoic acid
Formula: C20H30N2O5
Exact mass: 378.2155
SMILES: CC(C)(C)CCN[C@@H](CC(=O)O)C(=O)N[C@@H](CC1=CC=CC=C1)C(=O)OC
InChI: InChI=1S/C20H30N2O5/c1-20(2,3)10-11-21-15(13-17(23)24)18(25)22-16(19(26)27-4)12-14-8-6-5-7-9-14/h5-9,15-16,21H,10-13H2,1-4H3,(H,22,25)(H,23,24)/t15-,16-/m0/s1
Instrument: LTQ Orbitrap XL Thermo Scientific
Instrument type: LC-ESI-ITFT
Ms type: MS2
Ion mode: POSITIVE
Ionization: ESI
Fragmentation mode: CID
Collision energy: 35 % (nominal)
Resolution: 30000
Column name: XBridge C18 3.5um, 2.1x50mm, Waters
Retention time: 9.0 min
Base peak: 379.2243
Precursor m/z: 379.2227
Precursor type: [M+H]+
m/z	relative intensity	assigned
120.0808	35	C8H10N+
121.065	2	C8H9O+
128.1434	33	C8H18N+
131.0489	1	C9H7O+
154.1227	11	C9H16NO+
163.0754	2	C10H11O2+
172.1334	435	C9H18NO2+
180.102	155	C10H14NO2+
218.0805	1	C12H12NO3+
228.0659	2	C13H10NO3+
259.1808	10	C16H23N2O+
260.0916	8	C14H14NO4+
273.1966	1	C17H25N2O+
278.1023	3	C14H16NO5+
301.1907	4	C18H25N2O2+
319.202	999	C18H27N2O3+
333.217	11	C19H29N2O3+
347.1964	8	C19H27N2O4+
361.2121	204	C20H29N2O4+
