Mass spectrum: Nicosulfuron-TP AUSN; LC-ESI-QFT; MS2; CE: 15%; R=17500; [M-H]-
Name: Nicosulfuron-TP AUSN
Name: 2-(diaminomethylidenecarbamoylsulfamoyl)-N,N-dimethylpyridine-3-carboxamide
Formula: C10H14N6O4S
Exact mass: 314.0797
SMILES: CN(C)C(=O)C1=CC=CN=C1S(=O)(=O)NC(=O)NC(N)=N
InChI: InChI=1S/C10H14N6O4S/c1-16(2)8(17)6-4-3-5-13-7(6)21(19,20)15-10(18)14-9(11)12/h3-5H,1-2H3,(H5,11,12,14,15,18)
Instrument: Q Exactive Plus Orbitrap Thermo Scientific
Instrument type: LC-ESI-QFT
Ms type: MS2
Ion mode: NEGATIVE
Ionization: ESI
Fragmentation mode: HCD
Collision energy: 15 % (nominal)
Resolution: 17500
Column name: XBridge C18 3.5um, 2.1x50mm, Waters
Retention time: 1.351 min
Base peak: 313.0724
Precursor m/z: 313.0724
Precursor type: [M-H]-
m/z	relative intensity	assigned
78.9734	3	HNO2S-
83.0364	18	C2H3N4-
164.0831	13	C8H10N3O-
165.0666	17	H13N4O4S-
210.0343	15	C8H8N3O2S-
228.0449	999	C8H10N3O3S-
271.0506	50	C9H11N4O4S-
313.0724	828	C10H13N6O4S-
