Mass spectrum: N-Nitrosomethylethylamine (NMEA); LC-ESI-QFT; MS2; CE: 60; R=70000; [M+H]+
Name: N-Nitrosomethylethylamine (NMEA)
Name: N-ethyl-N-methylnitrous amide
Formula: C3H8N2O
Exact mass: 88.06366
SMILES: CCN(C)N=O
InChI: InChI=1S/C3H8N2O/c1-3-5(2)4-6/h3H2,1-2H3
Instrument: Q Exactive Plus Orbitrap Thermo Scientific
Instrument type: LC-ESI-QFT
Ms type: MS2
Ion mode: POSITIVE
Ionization: ESI
Fragmentation mode: HCD
Collision energy: 60 (nominal)
Resolution: 70000
Column name: XBridge C18 3.5um, 2.1x50mm, Waters
Retention time: 2.3 min
Base peak: 101.071
Precursor m/z: 89.0709
Precursor type: [M+H]+
m/z	relative intensity	assigned
61.0396	999	CH5N2O+
72.0444	94	C3H6NO+
89.0709	482	C3H9N2O+
