Mass spectrum: Valsartan acid; LC-ESI-QFT; MS2; CE: 60; R=35000; [M+H]+
Name: Valsartan acid
Name: 4-[2-(2H-1,2,3,4-tetrazol-5-yl)phenyl]benzoic acid
Formula: C14H10N4O2
Exact mass: 266.08038
SMILES: C1=CC=C(C(=C1)C2=CC=C(C=C2)C(=O)O)C3=NNN=N3
InChI: InChI=1S/C14H10N4O2/c19-14(20)10-7-5-9(6-8-10)11-3-1-2-4-12(11)13-15-17-18-16-13/h1-8H,(H,19,20)(H,15,16,17,18)
Instrument: Q Exactive Plus Orbitrap Thermo Scientific
Instrument type: LC-ESI-QFT
Ms type: MS2
Ion mode: POSITIVE
Ionization: ESI
Fragmentation mode: HCD
Collision energy: 60 (nominal)
Resolution: 35000
Column name: XBridge C18 3.5um, 2.1x50mm, Waters
Retention time: 6.8 min
Base peak: 267.0873
Precursor m/z: 267.0877
Precursor type: [M+H]+
m/z	relative intensity	assigned
77.0382	2	C6H5+
95.049	1	C6H7O+
127.0541	1	C10H7+
139.0541	18	C11H7+
140.0494	4	C10H6N+
145.0646	2	C10H9O+
150.0462	1	C12H6+
151.0541	45	C12H7+
152.0618	3	C12H8+
153.0698	1	C12H9+
154.0649	2	C11H8N+
155.0488	1	C11H7O+
155.0602	3	C10H7N2+
164.0617	2	C13H8+
165.0697	3	C13H9+
166.0651	63	C12H8N+
167.0728	1	C12H9N+
168.0807	4	C12H10N+
169.0647	82	C12H9O+
170.0596	2	C11H8NO+
177.0572	33	C13H7N+
178.065	690	C13H8N+
179.0603	63	C12H7N2+
180.0806	72	C13H10N+
184.0756	9	C12H10NO+
192.0681	53	C13H8N2+
193.076	20	C13H9N2+
194.0603	3	C13H8NO+
194.0707	2	C12H8N3+
194.0839	1	C13H10N2+
196.0756	311	C13H10NO+
204.0552	2	C13H6N3+
206.0601	999	C14H8NO+
206.0708	152	C13H8N3+
207.0681	1	C14H9NO+
221.0706	2	C14H9N2O+
224.0703	5	C14H10NO2+
