Mass spectrum: Clotrimazole; LC-ESI-ITFT; MS2; CE: 35%; R=30000; [M+H]+
Name: Clotrimazole
Name: 1-(o-Chloro-alpha,alpha-diphenylbenzyl)imidazole
Name: 1-[(2-chlorophenyl)-diphenyl-methyl]imidazole
Formula: C22H17ClN2
Exact mass: 344.1080
SMILES: ClC1=C(C=CC=C1)C(N2C=CN=C2)(C3=CC=CC=C3)C4=CC=CC=C4
InChI: InChI=1S/C22H17ClN2/c23-21-14-8-7-13-20(21)22(25-16-15-24-17-25,18-9-3-1-4-10-18)19-11-5-2-6-12-19/h1-17H
Instrument: LTQ Orbitrap XL Thermo Scientific
Instrument type: LC-ESI-ITFT
Ms type: MS2
Ion mode: POSITIVE
Ionization: ESI
Fragmentation mode: CID
Collision energy: 35 % (nominal)
Resolution: 30000
Column name: XBridge C18 3.5um, 2.1x50mm, Waters
Retention time: 8.8 min
Base peak: 277.079
Precursor m/z: 345.1153
Precursor type: [M+H]+
m/z	relative intensity	assigned
277.0776	999	C19H14Cl+
