Mass spectrum: Fenarimol; LC-ESI-QFT; MS2; CE: 75%; R=17500; [M+H]+
Name: Fenarimol
Name: (2-chlorophenyl)-(4-chlorophenyl)-pyrimidin-5-ylmethanol
Formula: C17H12Cl2N2O
Exact mass: 330.0327
SMILES: C1=CC=C(C(=C1)C(C2=CC=C(C=C2)Cl)(C3=CN=CN=C3)O)Cl
InChI: InChI=1S/C17H12Cl2N2O/c18-14-7-5-12(6-8-14)17(22,13-9-20-11-21-10-13)15-3-1-2-4-16(15)19/h1-11,22H
Instrument: Exploris 240 Orbitrap Thermo Scientific
Instrument type: LC-ESI-QFT
Ms type: MS2
Ion mode: POSITIVE
Ionization: ESI
Fragmentation mode: HCD
Collision energy: 75 % (nominal)
Resolution: 17500
Column name: XBridge C18 3.5um, 2.1x50mm, Waters
Retention time: 9.833 min
Base peak: 328.0614
Precursor m/z: 331.0399
Precursor type: [M+H]+
m/z	relative intensity	assigned
54.0338	244	C3H4N+
81.0447	999	C4H5N2+
128.0498	15	C9H6N+
138.9944	768	C7H4ClO+
139.006	77	C6H4ClN2+
140.0262	10	C7H7ClN+
157.0763	17	C10H9N2+
164.026	16	C12H4O+
165.0694	21	C13H9+
178.078	25	C14H10+
189.0698	370	C15H9+
199.0319	22	C13H8Cl+
204.0811	78	C15H10N+
205.0648	31	C15H9O+
205.0886	20	C15H11N+
212.0387	19	C14H9Cl+
217.0653	14	C13H12ClN+
223.031	152	C15H8Cl+
224.0388	24	C15H9Cl+
232.0762	30	C13H13ClN2+
232.9915	21	C13H7Cl2+
233.0831	68	C16H11NO+
238.0418	64	C15H9ClN+
240.0573	62	C15H11ClN+
241.0413	57	C15H10ClO+
242.0849	13	C17H10N2+
250.0416	28	C16H9ClN+
251.0508	27	C16H10ClN+
252.0337	101	C16H9ClO+
259.0073	87	C15H9Cl2+
266.0365	25	C13H12Cl2N2+
268.0522	98	C16H11ClNO+
278.0618	24	C17H11ClN2+
