Mass spectrum: Fipronil-TP RPA 200761; LC-ESI-QFT; MS2; CE: 15%; R=17500; [M+H]+
Name: Fipronil-TP RPA 200761
Name: 5-amino-1-[2,6-dichloro-4-(trifluoromethyl)phenyl]-4-(trifluoromethylsulfinyl)pyrazole-3-carboxylic acid
Formula: C12H5Cl2F6N3O3S
Exact mass: 454.9333
SMILES: NC1=C(C(=NN1C1=C(Cl)C=C(C=C1Cl)C(F)(F)F)C(O)=O)S(=O)C(F)(F)F
InChI: InChI=1S/C12H5Cl2F6N3O3S/c13-4-1-3(11(15,16)17)2-5(14)7(4)23-9(21)8(6(22-23)10(24)25)27(26)12(18,19)20/h1-2H,21H2,(H,24,25)
Instrument: Q Exactive Plus Orbitrap Thermo Scientific
Instrument type: LC-ESI-QFT
Ms type: MS2
Ion mode: POSITIVE
Ionization: ESI
Fragmentation mode: HCD
Collision energy: 15 % (nominal)
Resolution: 17500
Column name: XBridge C18 3.5um, 2.1x50mm, Waters
Retention time: 8.085 min
Base peak: 455.9408
Precursor m/z: 455.9406
Precursor type: [M+H]+
m/z	relative intensity	assigned
198.9782	3	C4H2F3N2O2S+
289.9772	5	C7H5ClF4N3OS+
292.9724	25	C11HF6NS+
342.9555	70	C10H6Cl2F3N3OS+
358.9732	2	C10H6ClF4N3O3S+
368.9344	100	C11H4Cl2F3N3O2S+
386.9452	209	C11H6Cl2F3N3O3S+
393.9368	1	C11H5Cl2F5N2O2S+
411.9506	19	C11H6Cl2F6N3OS+
437.9299	999	C12H4Cl2F6N3O2S+
455.9405	522	C12H6Cl2F6N3O3S+
469.9574	13	
