Mass spectrum: Nicotine; LC-ESI-QFT; MS2; CE: 15; R=35000; [M+H]+
Name: Nicotine
Name: 3-[(2S)-1-methylpyrrolidin-2-yl]pyridine
Name: 3-[(2S)-1-methyl-2-pyrrolidinyl]pyridine
Formula: C10H14N2
Exact mass: 162.11570
SMILES: n1cc(ccc1)[C@H]2N(C)CCC2
InChI: InChI=1S/C10H14N2/c1-12-7-3-5-10(12)9-4-2-6-11-8-9/h2,4,6,8,10H,3,5,7H2,1H3/t10-/m0/s1
Instrument: Q Exactive Orbitrap Thermo Scientific
Instrument type: LC-ESI-QFT
Ms type: MS2
Ion mode: POSITIVE
Ionization: ESI
Fragmentation mode: HCD
Collision energy: 15 (nominal)
Resolution: 35000
Column name: XBridge C18 3.5um, 2.1x50mm, Waters
Retention time: 0.9 min
Base peak: 163.1229
Precursor m/z: 163.123
Precursor type: [M+H]+
m/z	relative intensity	assigned
80.0494	23	C5H6N+
84.0807	50	C5H10N+
94.065	3	C6H8N+
106.065	93	C7H8N+
117.0572	12	C8H7N+
120.0807	32	C8H10N+
130.0651	93	C9H8N+
132.0807	304	C9H10N+
163.1229	999	C10H15N2+
