Mass spectrum: Atazanavir; LC-ESI-QFT; MS2; CE: 75; R=35000; [M+H]+
Name: Atazanavir
Name: N-[(1S)-1-[[(1S,2S)-1-benzyl-3-[[[(2S)-2-(carbomethoxyamino)-3,3-dimethyl-butanoyl]amino]-[4-(2-pyridyl)benzyl]amino]-2-hydroxy-propyl]carbamoyl]-2,2-dimethyl-propyl]carbamic acid methyl ester
Formula: C38H52N6O7
Exact mass: 704.38975
SMILES: CC(C)(C)C(C(=O)NC(CC1=CC=CC=C1)C(CN(CC2=CC=C(C=C2)C3=CC=CC=N3)NC(=O)C(C(C)(C)C)NC(=O)OC)O)NC(=O)OC
InChI: InChI=1S/C38H52N6O7/c1-37(2,3)31(41-35(48)50-7)33(46)40-29(22-25-14-10-9-11-15-25)30(45)24-44(43-34(47)32(38(4,5)6)42-36(49)51-8)23-26-17-19-27(20-18-26)28-16-12-13-21-39-28/h9-21,29-32,45H,22-24H2,1-8H3,(H,40,46)(H,41,48)(H,42,49)(H,43,47)/t29-,30-,31+,32+/m0/s1
Instrument: Q Exactive Orbitrap Thermo Scientific
Instrument type: LC-ESI-QFT
Ms type: MS2
Ion mode: POSITIVE
Ionization: ESI
Fragmentation mode: HCD
Collision energy: 75 (nominal)
Resolution: 35000
Column name: XBridge C18 3.5um, 2.1x50mm, Waters
Retention time: 11.6 min
Base peak: 705.3972
Precursor m/z: 705.397
Precursor type: [M+H]+
m/z	relative intensity	assigned
100.1121	2	C6H14N+
101.0961	13	C6H13O+
102.0549	2	C4H8NO2+
103.0543	7	C8H7+
105.0699	5	C8H9+
112.0757	26	C6H10NO+
113.0384	2	C9H5+
115.0542	28	C9H7+
116.0491	1	C8H6N+
117.0573	14	C8H7N+
117.0698	5	C9H9+
120.0807	34	C8H10N+
128.0619	6	C10H8+
129.07	14	C10H9+
139.0542	31	C11H7+
140.0494	7	C10H6N+
140.0621	13	C11H8+
141.0576	4	C10H7N+
141.0698	48	C11H9+
142.0653	4	C10H8N+
144.1019	47	C7H14NO2+
146.0964	2	C10H12N+
153.0572	11	C11H7N+
166.0653	58	C12H8N+
167.0731	762	C12H9N+
168.0807	999	C12H10N+
169.0645	1	C12H9O+
169.0884	14	C12H11N+
170.0962	9	C12H12N+
183.0918	1	C12H11N2+
184.0756	2	C12H10NO+
