Mass spectrum: 4-Acetamidoantipyrine; LC-ESI-ITFT; MS2; CE: 45%; R=15000; [M+H]+
Name: 4-Acetamidoantipyrine
Name: N-(1,5-dimethyl-3-oxidanylidene-2-phenyl-pyrazol-4-yl)ethanamide
Formula: C13H15N3O2
Exact mass: 245.1164
SMILES: CC(=O)NC=2C(=O)N(c1ccccc1)N(C)C=2C
InChI: InChI=1S/C13H15N3O2/c1-9-12(14-10(2)17)13(18)16(15(9)3)11-7-5-4-6-8-11/h4-8H,1-3H3,(H,14,17)
Instrument: LTQ Orbitrap XL Thermo Scientific
Instrument type: LC-ESI-ITFT
Ms type: MS2
Ion mode: POSITIVE
Ionization: ESI
Fragmentation mode: HCD
Collision energy: 45 % (nominal)
Resolution: 15000
Column name: XBridge C18 3.5um, 2.1x50mm, Waters
Retention time: 3.7 min
Base peak: 246.1244
Precursor m/z: 246.1237
Precursor type: [M+H]+
m/z	relative intensity	assigned
56.0495	134	C3H6N+
77.0387	34	C6H5+
83.0605	644	C4H7N2+
85.0761	31	C4H9N2+
94.0652	64	C6H8N+
96.0806	7	C6H10N+
104.0496	600	C7H6N+
105.0446	9	C6H5N2+
111.0553	12	C5H7N2O+
132.0448	4	C8H6NO+
144.0809	4	C10H10N+
145.0761	26	C9H9N2+
145.0892	6	C10H11N+
146.06	24	C9H8NO+
147.0552	5	C8H7N2O+
158.0598	8	C10H8NO+
159.0554	12	C9H7N2O+
159.0917	159	C10H11N2+
171.0552	6	C10H7N2O+
171.0915	7	C11H11N2+
172.0631	15	C10H8N2O+
173.071	49	C10H9N2O+
185.071	13	C11H9N2O+
186.0786	8	C11H10N2O+
186.1031	7	C13H14O+
187.0866	139	C11H11N2O+
189.0895	14	C10H11N3O+
200.0816	6	C11H10N3O+
200.1184	11	C12H14N3+
204.1133	611	C11H14N3O+
213.0898	44	C12H11N3O+
226.0978	18	C13H12N3O+
228.1134	999	C13H14N3O+
