Mass spectrum: Valsartan; LC-ESI-ITFT; MS2; CE: 75%; R=15000; [M+H]+
Name: Valsartan
Name: (2S)-3-methyl-2-[1-oxopentyl-[[4-[2-(2H-tetrazol-5-yl)phenyl]phenyl]methyl]amino]butanoic acid
Formula: C24H29N5O3
Exact mass: 435.2270
SMILES: CCCCC(=O)N(CC1=CC=C(C=C1)C2=C(C=CC=C2)C3=NN=NN3)[C@@H](C(C)C)C(O)=O
InChI: InChI=1S/C24H29N5O3/c1-4-5-10-21(30)29(22(16(2)3)24(31)32)15-17-11-13-18(14-12-17)19-8-6-7-9-20(19)23-25-27-28-26-23/h6-9,11-14,16,22H,4-5,10,15H2,1-3H3,(H,31,32)(H,25,26,27,28)/t22-/m0/s1
Instrument: LTQ Orbitrap XL Thermo Scientific
Instrument type: LC-ESI-ITFT
Ms type: MS2
Ion mode: POSITIVE
Ionization: ESI
Fragmentation mode: HCD
Collision energy: 75 % (nominal)
Resolution: 15000
Column name: XBridge C18 3.5um, 2.1x50mm, Waters
Retention time: 11.2 min
Base peak: 436.2337
Precursor m/z: 436.2343
Precursor type: [M+H]+
m/z	relative intensity	assigned
77.0386	16	C6H5+
79.0544	3	C6H7+
80.0494	12	C5H6N+
84.081	3	C5H10N+
95.0491	3	C6H7O+
105.0448	11	C6H5N2+
115.0542	17	C9H7+
116.0496	5	C8H6N+
117.0574	5	C8H7N+
129.0448	15	C8H5N2+
129.0702	6	C10H9+
139.0542	5	C11H7+
140.0495	66	C10H6N+
141.0698	10	C11H9+
151.0542	41	C12H7+
152.062	190	C12H8+
153.0698	433	C12H9+
154.065	22	C11H8N+
155.0602	14	C10H7N2+
163.0542	78	C13H7+
164.0495	5	C12H6N+
164.0622	13	C13H8+
165.0581	10	C12H7N+
165.0698	141	C13H9+
166.0651	40	C12H8N+
166.0776	16	C13H10+
167.0728	52	C12H9N+
167.0852	6	C13H11+
168.0679	21	C11H8N2+
169.0647	9	C12H9O+
176.0616	4	C14H8+
177.0572	25	C13H7N+
177.0699	14	C14H9+
178.0652	87	C13H8N+
178.0777	449	C14H10+
179.0606	30	C12H7N2+
179.0729	148	C13H9N+
179.0851	12	C14H11+
180.0807	999	C13H10N+
181.0646	17	C13H9O+
181.0756	21	C12H9N2+
183.068	5	C12H9NO+
189.0575	7	C14H7N+
190.0651	639	C14H8N+
191.0729	136	C14H9N+
192.0681	355	C13H8N2+
192.0803	53	C14H10N+
193.0885	35	C14H11N+
194.0595	6	C13H8NO+
194.0964	14	C14H12N+
195.0805	5	C14H11O+
196.0757	19	C13H10NO+
205.076	420	C14H9N2+
206.0838	415	C14H10N2+
207.0917	290	C14H11N2+
208.0756	81	C14H10NO+
209.1074	9	C14H13N2+
210.0912	19	C14H12NO+
235.0863	3	C15H11N2O+
