Mass spectrum: Dopamine; LC-ESI-QFT; MS2; CE: 90; R=35000; [M+H]+
Name: Dopamine
Name: 4-(2-aminoethyl)benzene-1,2-diol
Formula: C8H11NO2
Exact mass: 153.07898
SMILES: C1=CC(=C(C=C1CCN)O)O
InChI: InChI=1S/C8H11NO2/c9-4-3-6-1-2-7(10)8(11)5-6/h1-2,5,10-11H,3-4,9H2
Instrument: Q Exactive Orbitrap Thermo Scientific
Instrument type: LC-ESI-QFT
Ms type: MS2
Ion mode: POSITIVE
Ionization: ESI
Fragmentation mode: HCD
Collision energy: 90 (nominal)
Resolution: 35000
Column name: XBridge C18 3.5um, 2.1x50mm, Waters
Retention time: 0.9 min
Base peak: 137.0597
Precursor m/z: 154.0863
Precursor type: [M+H]+
m/z	relative intensity	assigned
63.0228	3	C5H3+
65.0386	182	C5H5+
79.0542	12	C6H7+
81.0699	12	C6H9+
89.0385	2	C7H5+
91.0542	999	C7H7+
94.0412	6	C6H6O+
95.049	2	C6H7O+
107.0491	2	C7H7O+
109.0648	7	C7H9O+
119.0491	105	C8H7O+
137.0597	32	C8H9O2+
