Mass spectrum: Cyprodinil-TP CGA 249287; LC-ESI-QFT; MS2; CE: 180%; R=17500; [M+H]+
Name: Cyprodinil-TP CGA 249287
Name: 4-Cyclopropyl-6-methyl-2-pyrimidinamine
Name: 4-cyclopropyl-6-methylpyrimidin-2-amine
Formula: C8H11N3
Exact mass: 149.0953
SMILES: CC1=NC(N)=NC(=C1)C1CC1
InChI: InChI=1S/C8H11N3/c1-5-4-7(6-2-3-6)11-8(9)10-5/h4,6H,2-3H2,1H3,(H2,9,10,11)
Instrument: Q Exactive Plus Orbitrap Thermo Scientific
Instrument type: LC-ESI-QFT
Ms type: MS2
Ion mode: POSITIVE
Ionization: ESI
Fragmentation mode: HCD
Collision energy: 180 % (nominal)
Resolution: 17500
Column name: XBridge C18 3.5um, 2.1x50mm, Waters
Retention time: 2.394 min
Base peak: 150.1026
Precursor m/z: 150.1026
Precursor type: [M+H]+
m/z	relative intensity	assigned
50.0152	64	C4H2+
51.023	230	C4H3+
52.0182	58	C3H2N+
53.0022	77	
53.0386	143	C4H5+
53.9974	14	
54.0338	42	C3H4N+
54.0463	30	C4H6+
55.029	34	C2H3N2+
62.015	27	C5H2+
63.0229	274	C5H3+
64.0181	36	C4H2N+
64.0307	120	C5H4+
65.0259	30	C4H3N+
65.0386	479	C5H5+
66.0339	62	C4H4N+
66.0464	206	C5H6+
67.0291	999	C3H3N2+
67.0416	167	C4H5N+
67.9891	15	
68.0495	54	C4H6N+
77.0385	91	C6H5+
78.0338	78	C5H4N+
79.0542	70	C6H7+
80.0494	116	C5H6N+
89.0387	47	C7H5+
90.0338	31	C6H4N+
91.0417	200	C6H5N+
91.0543	71	C7H7+
92.0369	24	C5H4N2+
92.0495	162	C6H6N+
93.0573	185	C6H7N+
95.0491	172	
95.0602	44	C5H7N2+
96.0443	57	
104.0496	79	C7H6N+
105.0448	88	C6H5N2+
106.0649	27	C7H8N+
117.0446	24	C7H5N2+
118.0522	59	C7H6N2+
131.0603	90	C8H7N2+
