Mass spectrum: Difethialone; LC-ESI-QFT; MS2; CE: 45%; R=17500; [M+H]+
Name: Difethialone
Name: 3-[3-[4-(4-bromophenyl)phenyl]-1,2,3,4-tetrahydronaphthalen-1-yl]-2-hydroxythiochromen-4-one
Formula: C31H23BrO2S
Exact mass: 538.0602
SMILES: C1C(CC2=CC=CC=C2C1C3=C(SC4=CC=CC=C4C3=O)O)C5=CC=C(C=C5)C6=CC=C(C=C6)Br
InChI: InChI=1S/C31H23BrO2S/c32-24-15-13-20(14-16-24)19-9-11-21(12-10-19)23-17-22-5-1-2-6-25(22)27(18-23)29-30(33)26-7-3-4-8-28(26)35-31(29)34/h1-16,23,27,34H,17-18H2
Instrument: Exploris 240 Orbitrap Thermo Scientific
Instrument type: LC-ESI-QFT
Ms type: MS2
Ion mode: POSITIVE
Ionization: ESI
Fragmentation mode: HCD
Collision energy: 45 % (nominal)
Resolution: 17500
Column name: XBridge C18 3.5um, 2.1x50mm, Waters
Retention time: 17.282 min
Base peak: 541.0654
Precursor m/z: 539.0675
Precursor type: [M+H]+
m/z	relative intensity	assigned
91.0543	160	C7H7+
103.0543	17	C8H7+
109.011	12	C6H5S+
117.0699	15	C9H9+
123.0264	106	C7H7S+
128.0621	6	C10H8+
129.07	35	C10H9+
135.0263	9	C8H7S+
137.0058	31	C7H5OS+
147.0267	11	C9H7S+
163.0219	28	C9H7OS+
165.0699	485	C13H9+
168.9646	8	C7H6Br+
171.0808	14	C12H11O+
175.0218	31	C10H7OS+
178.0777	999	C14H10+
179.0162	28	C9H7O2S+
179.0852	39	C14H11+
191.0161	451	C10H7O2S+
203.0162	29	C11H7O2S+
205.0317	138	C11H9O2S+
228.0933	7	C18H12+
241.1009	48	C19H13+
242.9805	165	C13H8Br+
244.9962	97	C13H10Br+
255.1169	80	C20H15+
256.1246	943	C20H16+
256.9959	45	C14H10Br+
307.0793	33	C19H15O2S+
335.0433	182	C20H16Br+
435.0051	16	C23H16BrO2S+
