Mass spectrum: Cefalexin; LC-ESI-QFT; MS2; CE: 15; R=35000; [M+H]+
Name: Cefalexin
Name: 7-[(2-amino-1-oxo-2-phenylethyl)amino]-3-methyl-8-oxo-5-thia-1-azabicyclo[4.2.0]oct-2-ene-2-carboxylic acid
Formula: C16H17N3O4S
Exact mass: 347.09398
SMILES: CC1=C(N2C(C(C2=O)NC(=O)C(C3=CC=CC=C3)N)SC1)C(=O)O
InChI: InChI=1S/C16H17N3O4S/c1-8-7-24-15-11(14(21)19(15)12(8)16(22)23)18-13(20)10(17)9-5-3-2-4-6-9/h2-6,10-11,15H,7,17H2,1H3,(H,18,20)(H,22,23)
Instrument: Q Exactive Orbitrap Thermo Scientific
Instrument type: LC-ESI-QFT
Ms type: MS2
Ion mode: POSITIVE
Ionization: ESI
Fragmentation mode: HCD
Collision energy: 15 (nominal)
Resolution: 35000
Column name: XBridge C18 3.5um, 2.1x50mm, Waters
Retention time: 4.4 min
Base peak: 348.1015
Precursor m/z: 348.1013
Precursor type: [M+H]+
m/z	relative intensity	assigned
68.0493	8	C4H6N+
70.0651	3	C4H8N+
79.0542	1	C6H7+
91.0542	3	C7H7+
106.0651	250	C7H8N+
112.0213	1	C5H6NS+
114.0007	5	C4H4NOS+
114.0549	4	C5H8NO2+
118.065	4	C8H8N+
126.0374	1	C6H8NS+
126.055	1	C6H8NO2+
133.076	1	C8H9N2+
140.0342	14	C6H6NO3+
146.0601	3	C9H8NO+
158.0271	999	C6H8NO2S+
160.0427	18	C6H10NO2S+
161.071	14	C9H9N2O+
162.0372	2	C9H8NS+
164.0528	4	C9H10NS+
174.055	598	C10H8NO2+
178.0323	6	C9H8NOS+
185.0377	6	C7H9N2O2S+
186.0459	17	C7H10N2O2S+
190.0321	3	C10H8NOS+
190.0975	4	C10H12N3O+
191.0399	5	C10H9NOS+
191.0815	50	C10H11N2O2+
192.0478	122	C10H10NOS+
207.0588	12	C10H11N2OS+
218.0267	5	C11H8NO2S+
231.0949	1	C13H15N2S+
242.0636	9	C14H12NOS+
242.1288	3	C14H16N3O+
257.0744	2	C14H13N2OS+
257.0919	4	C14H13N2O3+
259.0901	8	C14H15N2OS+
286.0534	9	C15H12NO3S+
286.1186	8	C15H16N3O3+
303.0798	16	C15H15N2O3S+
320.1067	14	
