Mass spectrum: Chlorthalidone; LC-ESI-QFT; MS2; CE: 30; R=35000; [M-H]-
Name: Chlorthalidone
Name: Chlortalidone
Name: 2-chloranyl-5-(1-oxidanyl-3-oxidanylidene-2H-isoindol-1-yl)benzenesulfonamide
Formula: C14H11ClN2O4S
Exact mass: 338.01281
SMILES: O=S(=O)(N)c1c(Cl)ccc(c1)C2(O)c3ccccc3C(=O)N2
InChI: InChI=1S/C14H11ClN2O4S/c15-11-6-5-8(7-12(11)22(16,20)21)14(19)10-4-2-1-3-9(10)13(18)17-14/h1-7,19H,(H,17,18)(H2,16,20,21)
Instrument: Q Exactive Orbitrap Thermo Scientific
Instrument type: LC-ESI-QFT
Ms type: MS2
Ion mode: NEGATIVE
Ionization: ESI
Fragmentation mode: HCD
Collision energy: 30 (nominal)
Resolution: 35000
Column name: XBridge C18 3.5um, 2.1x50mm, Waters
Retention time: 5.4 min
Base peak: 337.0058
Precursor m/z: 337.0055
Precursor type: [M-H]-
m/z	relative intensity	assigned
57.9757	5	CNS-
61.9706	16	NOS-
63.9625	4	O2S-
77.9655	21	NO2S-
79.9812	177	H2NO2S-
90.0349	11	C6H4N-
91.019	5	C6H3O-
97.9473	5	ClHNOS-
98.9313	2	ClO2S-
105.022	1	C6H3NO-
106.0298	1	C6H4NO-
108.0216	11	C6H4O2-
120.0454	5	C7H6NO-
122.0248	2	C6H4NO2-
125.9879	10	C6H3ClO-
126.0116	46	C6H5ClN-
126.9956	18	C6H4ClO-
146.0248	999	C8H4NO2-
153.9968	53	C6H4NO2S-
164.0353	1	C8H6NO3-
173.9547	3	C6H3ClO2S-
189.9736	913	C6H5ClNO2S-
191.0617	1	C13H7N2-
194.0612	4	C13H8NO-
210.056	1	C13H8NO2-
219.0564	18	C14H7N2O-
222.0561	1	C14H8NO2-
228.0222	1	C13H7ClNO-
230.0377	3	C13H9ClNO-
233.9634	5	C7H5ClNO4S-
235.0512	12	C14H7N2O2-
237.0666	1	C14H9N2O2-
255.0334	12	C14H8ClN2O-
256.0172	27	C14H7ClNO2-
258.022	10	C13H8NO3S-
283.0181	146	C14H7N2O3S-
284.002	2	C14H6NO4S-
294	8	C13H9ClNO3S-
301.0287	14	C14H9N2O4S-
301.9683	17	C14H5ClNO3S-
302.9768	1	C14H6ClNO3S-
318.9947	117	C14H8ClN2O3S-
319.9787	2	C14H7ClNO4S-
320.9866	8	C14H8ClNO4S-
337.0054	33	C14H10ClN2O4S-
