Mass spectrum: Chinomethionat; LC-ESI-QFT; MS2; CE: 150%; R=17500; [M+H]+
Name: Chinomethionat
Name: 6-methyl-[1,3]dithiolo[4,5-b]quinoxalin-2-one
Formula: C10H6N2OS2
Exact mass: 233.9922
SMILES: CC1=CC2=C(C=C1)N=C3C(=N2)SC(=O)S3
InChI: InChI=1S/C10H6N2OS2/c1-5-2-3-6-7(4-5)12-9-8(11-6)14-10(13)15-9/h2-4H,1H3
Instrument: Exploris 240 Orbitrap Thermo Scientific
Instrument type: LC-ESI-QFT
Ms type: MS2
Ion mode: POSITIVE
Ionization: ESI
Fragmentation mode: HCD
Collision energy: 150 % (nominal)
Resolution: 17500
Column name: XBridge C18 3.5um, 2.1x50mm, Waters
Retention time: 12.419 min
Base peak: 234.9995
Precursor m/z: 234.9994
Precursor type: [M+H]+
m/z	relative intensity	assigned
50.0151	36	C4H2+
51.0229	383	C4H3+
53.0386	123	C4H5+
63.0229	140	C5H3+
65.0386	175	C5H5+
68.9794	119	C3HS+
71.9902	27	C2H2NS+
77.0386	999	C6H5+
78.0339	195	C5H4N+
78.0464	554	C6H6+
89.0386	529	C7H5+
90.0463	85	C7H6+
91.0543	87	C7H7+
92.0495	155	C6H6N+
94.0415	49	C6H6O+
95.0492	287	C6H7O+
96.0445	67	C5H6NO+
104.0494	267	C7H6N+
105.0448	363	C6H5N2+
109.0106	142	C6H5S+
116.0495	81	C8H6N+
117.0575	28	C8H7N+
119.0603	35	C7H7N2+
121.0107	185	C7H5S+
136.0216	462	C7H6NS+
148.0216	108	C8H6NS+
163.0324	50	C8H7N2S+
