Mass spectrum: Vigabatrin; LC-ESI-QFT; MS2; CE: 180; R=35000; [M+H]+
Name: Vigabatrin
Name: 4-aminohex-5-enoic acid
Name: 4-Amino-5-hexenoic acid
Formula: C6H11NO2
Exact mass: 129.07898
SMILES: C=CC(CCC(=O)O)N
InChI: InChI=1S/C6H11NO2/c1-2-5(7)3-4-6(8)9/h2,5H,1,3-4,7H2,(H,8,9)
Instrument: Q Exactive Plus Orbitrap Thermo Scientific
Instrument type: LC-ESI-QFT
Ms type: MS2
Ion mode: POSITIVE
Ionization: ESI
Fragmentation mode: HCD
Collision energy: 180 (nominal)
Resolution: 35000
Column name: XBridge C18 3.5um, 2.1x50mm, Waters
Retention time: 0.9 min
Base peak: 130.0858
Precursor m/z: 130.0863
Precursor type: [M+H]+
m/z	relative intensity	assigned
51.0229	84	C4H3+
53.0022	693	C3HO+
53.0385	583	C4H5+
53.9974	229	C2NO+
65.0385	999	C5H5+
67.0542	755	C5H7+
67.9892	97	C3O2+
71.049	100	C4H7O+
