Mass spectrum: Enrofloxacin; LC-ESI-QFT; MS2; CE: 75; R=35000; [M+H]+
Name: Enrofloxacin
Name: 1-cyclopropyl-7-(4-ethylpiperazin-4-ium-1-yl)-6-fluoro-4-oxoquinoline-3-carboxylate
Formula: C19H22FN3O3
Exact mass: 359.16452
SMILES: CCN1CCN(CC1)C2=C(C=C3C(=C2)N(C=C(C3=O)C(=O)O)C4CC4)F
InChI: InChI=1S/C19H22FN3O3/c1-2-21-5-7-22(8-6-21)17-10-16-13(9-15(17)20)18(24)14(19(25)26)11-23(16)12-3-4-12/h9-12H,2-8H2,1H3,(H,25,26)
Instrument: Q Exactive Plus Orbitrap Thermo Scientific
Instrument type: LC-ESI-QFT
Ms type: MS2
Ion mode: POSITIVE
Ionization: ESI
Fragmentation mode: HCD
Collision energy: 75 (nominal)
Resolution: 35000
Column name: XBridge C18 3.5um, 2.1x50mm, Waters
Retention time: 4.4 min
Base peak: 360.1712
Precursor m/z: 360.1718
Precursor type: [M+H]+
m/z	relative intensity	assigned
53.0022	19	C3HO+
53.0387	2	C4H5+
54.034	2	C3H4N+
55.0179	7	C3H3O+
55.0543	9	C4H7+
56.0495	230	C3H6N+
57.0573	90	C3H7N+
58.0652	122	C3H8N+
65.0386	14	C5H5+
67.0417	3	C4H5N+
67.0542	3	C5H7+
67.9892	3	C3O2+
68.0495	33	C4H6N+
69.0448	3	C3H5N2+
70.0652	657	C4H8N+
71.0729	14	C4H9N+
72.0808	466	C4H10N+
80.0495	3	C5H6N+
82.0288	11	C4H4NO+
82.0652	17	C5H8N+
83.0492	11	C5H7O+
83.0605	11	C4H7N2+
84.0808	511	C5H10N+
85.0887	18	C5H11N+
86.0965	107	C5H12N+
89.0386	15	C7H5+
91.0547	1	C7H7+
92.0496	2	C6H6N+
93.0336	2	C6H5O+
96.0809	10	C6H10N+
97.0761	18	C5H9N2+
98.0839	3	C5H10N2+
98.0966	11	C6H12N+
99.0918	8	C5H11N2+
103.0542	7	C8H7+
104.0495	8	C7H6N+
107.0292	2	C7H4F+
109.0449	46	C7H6F+
110.0404	2	C6H5FN+
111.0917	7	C6H11N2+
112.0995	7	C6H12N2+
115.0417	1	C8H5N+
115.0543	22	C9H7+
116.0496	56	C8H6N+
117.0573	16	C8H7N+
118.0652	2	C8H8N+
120.0446	2	C7H6NO+
121.045	3	C8H6F+
122.0402	11	C7H5FN+
124.0559	10	C7H7FN+
127.0542	3	C10H7+
128.0495	20	C9H6N+
128.0621	31	C10H8+
129.0448	2	C8H5N2+
129.0575	9	C9H7N+
129.0699	20	C10H9+
130.0653	28	C9H8N+
131.0605	22	C8H7N2+
132.0683	7	C8H8N2+
132.0809	2	C9H10N+
133.0448	19	C9H6F+
134.0401	27	C8H5FN+
134.0601	45	C8H8NO+
135.048	174	C8H6FN+
136.0559	172	C8H7FN+
137.051	3	C7H6FN2+
137.0637	4	C8H8FN+
140.0496	7	C10H6N+
141.0447	3	C9H5N2+
141.0576	17	C10H7N+
142.0653	26	C10H8N+
143.0606	18	C9H7N2+
143.0729	2	C10H9N+
144.0445	3	C9H6NO+
144.056	15	C8H6N3+
144.0809	3	C10H10N+
145.0649	2	C10H9O+
146.0404	12	C9H5FN+
146.0528	11	C10H7F+
146.0604	2	C9H8NO+
147.048	23	C9H6FN+
147.0604	18	C10H8F+
148.0558	132	C9H7FN+
149.0511	14	C8H6FN2+
149.064	16	C9H8FN+
150.0354	2	C8H5FNO+
150.059	10	C8H7FN2+
150.0715	17	C9H9FN+
151.0429	6	C8H6FNO+
151.0668	10	C8H8FN2+
152.0509	13	C8H7FNO+
152.0747	7	C8H9FN2+
154.0655	95	C11H8N+
155.0604	64	C10H7N2+
155.0729	22	C11H9N+
156.0683	103	C10H8N2+
156.081	29	C11H10N+
157.0522	1	C10H7NO+
157.0762	21	C10H9N2+
158.0403	8	C10H5FN+
158.06	3	C10H8NO+
159.0482	7	C10H6FN+
159.0605	1	C11H8F+
160.0433	3	C9H5FN2+
160.0559	22	C10H7FN+
161.0512	49	C9H6FN2+
161.0637	28	C10H8FN+
162.0351	62	C9H5FNO+
162.0456	13	C8H5FN3+
162.0593	21	C9H7FN2+
162.0714	48	C10H9FN+
163.043	28	C9H6FNO+
163.0667	39	C9H8FN2+
164.0507	19	C9H7FNO+
166.0656	6	C12H8N+
167.0604	2	C11H7N2+
167.0732	11	C12H9N+
168.0683	19	C11H8N2+
168.0809	11	C12H10N+
169.0522	8	C11H7NO+
169.0762	101	C11H9N2+
170.0602	11	C11H8NO+
170.084	2	C11H10N2+
170.0967	3	C12H12N+
171.0552	3	C10H7N2O+
171.0919	16	C11H11N2+
172.0558	56	C11H7FN+
173.0517	12	C10H6FN2+
173.0637	31	C11H8FN+
173.0711	2	C10H9N2O+
174.0351	21	C10H5FNO+
174.0592	86	C10H7FN2+
174.0714	113	C11H9FN+
175.0435	11	C10H6FNO+
175.0668	142	C10H8FN2+
175.0789	49	C11H10FN+
176.0508	76	C10H7FNO+
176.0746	270	C10H9FN2+
177.0463	2	C9H6FN2O+
177.0586	27	C10H8FNO+
177.0827	12	C10H10FN2+
178.0303	3	C9H5FNO2+
178.054	9	C9H7FN2O+
178.0663	11	C10H9FNO+
179.0382	2	C9H6FNO2+
179.0618	8	C9H8FN2O+
180.0457	26	C9H7FNO2+
180.0809	10	C13H10N+
181.0764	17	C12H9N2+
182.0602	16	C12H8NO+
182.0841	69	C12H10N2+
183.0557	3	C11H7N2O+
183.0681	16	C12H9NO+
183.0917	24	C12H11N2+
184.0634	81	C11H8N2O+
184.0755	16	C12H10NO+
185.0513	15	C11H6FN2+
185.0636	28	C12H8FN+
185.0713	47	C11H9N2O+
186.0591	11	C11H7FN2+
186.0714	15	C12H9FN+
187.0432	14	C11H6FNO+
187.0668	94	C11H8FN2+
187.0798	8	C12H10FN+
188.0143	7	C10H3FNO2+
188.0381	8	C10H5FN2O+
188.0508	55	C11H7FNO+
188.0745	25	C11H9FN2+
188.087	20	C12H11FN+
189.046	534	C10H6FN2O+
189.0824	95	C11H10FN2+
190.0414	14	C14H6O+
190.0538	58	C10H7FN2O+
190.0662	12	C11H9FNO+
190.0905	6	C11H11FN2+
191.0617	49	C10H8FN2O+
191.0982	3	C11H12FN2+
192.0695	3	C10H9FN2O+
193.0764	2	C13H9N2+
195.0562	3	C12H7N2O+
195.0919	14	C13H11N2+
196.0632	7	C12H8N2O+
196.0999	6	C13H12N2+
197.0711	35	C12H9N2O+
197.0943	1	C12H11N3+
197.1076	15	C13H13N2+
198.0793	3	C12H10N2O+
198.0919	3	C13H12NO+
199.0666	7	C12H8FN2+
199.0796	3	C13H10FN+
200.0505	23	C12H7FNO+
200.0591	3	C8H9FN2O3+
200.0747	11	C12H9FN2+
200.087	7	C13H11FN+
201.0585	60	C12H8FNO+
201.0652	3	C11H9N2O2+
201.0825	47	C12H10FN2+
202.03	51	C11H5FNO2+
202.0541	31	C11H7FN2O+
202.0665	187	C12H9FNO+
202.09	33	C12H11FN2+
203.0617	999	C11H8FN2O+
204.0696	293	C11H9FN2O+
205.0774	141	C11H10FN2O+
206.0841	3	C14H10N2+
207.0917	6	C14H11N2+
208.087	10	C13H10N3+
209.0713	19	C13H9N2O+
209.1073	8	C14H13N2+
210.0426	10	C12H6N2O2+
210.0788	11	C13H10N2O+
210.1026	7	C13H12N3+
210.1149	1	C14H14N2+
211.0671	2	C13H8FN2+
211.087	14	C13H11N2O+
212.0825	2	C9H11FN3O2+
213.0593	2	C13H8FNO+
213.0823	6	C13H10FN2+
214.0666	9	C13H9FNO+
214.09	1	C13H11FN2+
215.0253	217	C11H4FN2O2+
215.0617	111	C12H8FN2O+
215.0981	17	C13H12FN2+
216.0333	28	C11H5FN2O2+
216.0697	66	C12H9FN2O+
216.0821	10	C13H11FNO+
216.0929	6	C12H11FN3+
217.0411	239	C11H6FN2O2+
217.0774	83	C12H10FN2O+
217.0899	19	C13H12FNO+
217.1136	17	C13H14FN2+
218.049	6	C11H7FN2O2+
218.0851	11	C12H11FN2O+
218.097	3	C13H13FNO+
219.0929	10	C12H12FN2O+
220.0405	6	C11H7FNO3+
221.0486	7	C11H8FNO3+
221.0721	3	C11H10FN2O2+
222.1026	2	C14H12N3+
223.0865	11	C14H11N2O+
223.1228	2	C15H15N2+
224.0583	9	C10H9FN2O3+
224.0948	3	C14H12N2O+
225.0661	18	C13H9N2O2+
225.0818	2	C14H10FN2+
225.1022	28	C14H13N2O+
227.0619	7	C13H8FN2O+
227.0981	17	C14H12FN2+
228.0692	2	C16H8N2+
228.0812	1	C14H11FNO+
229.0412	17	C12H6FN2O2+
229.0775	175	C13H10FN2O+
230.0493	12	C12H7FN2O2+
230.0726	7	C17H10O+
230.0852	34	C13H11FN2O+
231.0567	37	C12H8FN2O2+
231.093	92	C13H12FN2O+
232.0884	2	C17H12O+
233.0361	14	C11H6FN2O3+
233.0468	1	C15H7NO2+
234.0442	16	C11H7FN2O3+
235.0519	47	C11H8FN2O3+
235.0642	7	C12H10FNO3+
236.0597	1	C11H9FN2O3+
236.082	7	C14H10N3O+
236.1187	7	C15H14N3+
237.1024	3	C15H13N2O+
237.1262	2	C15H15N3+
238.0613	2	C13H8N3O2+
238.0979	11	C14H12N3O+
238.1341	2	C15H16N3+
239.0818	7	C14H11N2O2+
241.0771	9	C14H10FN2O+
243.0567	315	C13H8FN2O2+
243.0924	38	C14H12FN2O+
244.1006	3	C14H13FN2O+
245.1087	470	C14H14FN2O+
247.0514	11	C12H8FN2O3+
252.0764	3	C14H10N3O2+
252.1135	2	C15H14N3O+
255.0569	7	C14H8FN2O2+
256.0516	6	C13H7FN3O2+
257.1083	12	C15H14FN2O+
258.0676	118	C18H10O2+
258.1042	7	C19H14O+
259.0879	6	C14H12FN2O2+
259.124	7	C15H16FN2O+
260.1197	2	C19H16O+
261.0671	22	C13H10FN2O3+
264.1134	2	C16H14N3O+
265.1203	2	C16H15N3O+
266.0929	9	C15H12N3O2+
270.0669	2	C14H9FN3O2+
270.1037	13	C15H13FN3O+
271.0754	174	C19H11O2+
272.0831	2	C19H12O2+
281.1154	2	C16H15N3O2+
284.1193	7	C16H15FN3O+
285.0911	2	C15H12FN3O2+
285.1273	23	C16H16FN3O+
286.0989	295	C15H13FN3O2+
289.0853	2	C14H12FN3O3+
300.1145	57	C16H15FN3O2+
312.1332	1	C17H18N3O3+
342.1614	2	C19H21FN3O2+
360.1717	6	C19H23FN3O3+
