Mass spectrum: Eseroline; LC-ESI-QFT; MS2; CE: 45; R=35000; [M+H]+
Name: Eseroline
Name: 1,3a,8-Trimethyl-1,2,3,3a,8,8a-hexahydropyrrolo[2,3-b]indol-5-ol
Name: 3,4,8b-trimethyl-2,3a-dihydro-1H-pyrrolo[2,3-b]indol-7-ol
Formula: C13H18N2O
Exact mass: 218.14191
SMILES: CC12CCN(C1N(C3=C2C=C(C=C3)O)C)C
InChI: InChI=1S/C13H18N2O/c1-13-6-7-14(2)12(13)15(3)11-5-4-9(16)8-10(11)13/h4-5,8,12,16H,6-7H2,1-3H3
Instrument: Q Exactive Plus Orbitrap Thermo Scientific
Instrument type: LC-ESI-QFT
Ms type: MS2
Ion mode: POSITIVE
Ionization: ESI
Fragmentation mode: HCD
Collision energy: 45 (nominal)
Resolution: 35000
Column name: XBridge C18 3.5um, 2.1x50mm, Waters
Retention time: 2.4 min
Base peak: 164.9844
Precursor m/z: 219.1492
Precursor type: [M+H]+
m/z	relative intensity	assigned
53.0387	6	C4H5+
55.0542	27	C4H7+
57.0699	24	C4H9+
58.0652	18	C3H8N+
59.0492	18	C3H7O+
60.0444	12	C2H6NO+
67.0542	11	C5H7+
69.0334	4	C4H5O+
69.0699	18	C5H9+
71.0491	8	C4H7O+
71.0855	2	C5H11+
74.0965	2	C4H12N+
79.0542	7	C6H7+
81.0699	20	C6H9+
83.0491	23	C5H7O+
83.0855	2	C6H11+
85.0648	3	C5H9O+
86.0964	3	C5H12N+
87.0442	9	C4H7O2+
89.0597	3	C4H9O2+
91.0542	3	C7H7+
93.07	14	C7H9+
95.0492	17	C6H7O+
95.0855	19	C7H11+
97.0076	1	C8H+
97.0647	2	C6H9O+
99.044	3	C5H7O2+
99.0804	1	C6H11O+
101.0598	22	C5H9O2+
105.0448	12	C6H5N2+
105.0699	24	C8H9+
107.0856	18	C8H11+
109.0648	2	C7H9O+
109.1011	13	C8H13+
111.0233	3	C9H3+
111.0441	30	C6H7O2+
111.0804	2	C7H11O+
113.0597	6	C6H9O2+
117.0699	3	C9H9+
119.0856	34	C9H11+
121.0649	9	C8H9O+
121.1013	37	C9H13+
123.0805	7	C8H11O+
123.1166	2	C9H15+
127.0752	2	C7H11O2+
131.0855	12	C10H11+
132.0811	2	C9H10N+
132.1019	8	C6H14NO2+
133.1011	22	C10H13+
134.0601	22	C8H8NO+
134.0964	3	C9H12N+
135.0805	8	C9H11O+
135.1169	6	C10H15+
139.0185	2	C10H3O+
143.0858	2	C11H11+
145.1011	23	C11H13+
147.0678	38	C9H9NO+
147.1168	4	C11H15+
148.0758	12	C9H10NO+
149.0962	6	C10H13O+
151.0052	2	C10HNO+
159.0108	10	C12HN+
159.0803	4	C11H11O+
159.117	12	C12H15+
160.0756	9	C10H10NO+
161.0262	17	C12H3N+
161.0836	30	C10H11NO+
161.0962	12	C11H13O+
161.1327	34	C12H17+
162.055	340	C9H8NO2+
162.0914	999	C10H12NO+
163.0755	4	C10H11O2+
163.1117	9	C11H15O+
163.1484	1	C12H19+
173.0832	7	C11H11NO+
173.0958	3	C12H13O+
173.1329	3	C13H17+
174.0914	2	C11H12NO+
175.0047	2	C12HNO+
175.1483	13	C13H19+
176.0705	21	C10H10NO2+
176.1071	174	C11H14NO+
177.0212	8	C12H3NO+
186.0787	2	C11H10N2O+
187.1119	2	C13H15O+
188.0705	10	C11H10NO2+
188.1071	76	C12H14NO+
189.0207	3	C13H3NO+
190.0864	8	C11H12NO2+
191	1	C12HNO2+
201.1018	1	C12H13N2O+
