Mass spectrum: 10phiC10SPC; LC-ESI-QFT; MS2; CE: 15; R=35000; [M+H]+
Name: 10phiC10SPC
Name: Decacarboxy sulfophenyl carboxylic acid
Name: 10-(4-sulfophenyl)octanoic acid
Formula: C16H24O5S
Exact mass: 328.13444
SMILES: OS(=O)(=O)c1ccc(CCCCCCCCCC(=O)O)cc1
InChI: InChI=1S/C16H24O5S/c17-16(18)9-7-5-3-1-2-4-6-8-14-10-12-15(13-11-14)22(19,20)21/h10-13H,1-9H2,(H,17,18)(H,19,20,21)
Instrument: Q Exactive Plus Orbitrap Thermo Scientific
Instrument type: LC-ESI-QFT
Ms type: MS2
Ion mode: POSITIVE
Ionization: ESI
Fragmentation mode: HCD
Collision energy: 15 (nominal)
Resolution: 35000
Column name: XBridge C18 3.5um, 2.1x50mm, Waters
Retention time: 10.8 min
Base peak: 343.1573
Precursor m/z: 329.1417
Precursor type: [M+H]+
m/z	relative intensity	assigned
57.0699	20	C4H9+
71.0855	13	C5H11+
85.1012	8	C6H13+
105.0699	1	C8H9+
107.0494	2	C7H7O+
117.07	1	C9H9+
131.0855	4	C10H11+
145.1012	6	C11H13+
159.1168	2	C12H15+
169.0318	2	C8H9O2S+
171.0102	3	C7H7O3S+
185.0267	29	C8H9O3S+
195.0474	5	C10H11O2S+
199.0424	36	C9H11O3S+
201.1637	6	C15H21+
209.0633	7	C11H13O2S+
213.0581	45	C10H13O3S+
223.0791	1	C12H15O2S+
227.0737	44	C11H15O3S+
231.0685	2	C10H15O4S+
241.0894	18	C12H17O3S+
245.0843	2	C11H17O4S+
247.1148	4	C15H19OS+
251.0002	66	C11H7O5S+
259.0999	1	C12H19O4S+
265.1259	4	C15H21O2S+
283.1364	13	C15H23O3S+
293.1207	2	C16H21O3S+
301.1467	1	C15H25O4S+
311.1311	245	C16H23O4S+
329.1418	999	C16H25O5S+
