Mass spectrum: Clenbuterol; LC-ESI-QFT; MS2; CE: 45; R=35000; [M+H]+
Name: Clenbuterol
Name: 1-(4-amino-3,5-dichlorophenyl)-2-(tert-butylamino)ethanol
Formula: C12H18Cl2N2O
Exact mass: 276.07962
SMILES: CC(C)(C)NCC(C1=CC(=C(C(=C1)Cl)N)Cl)O
InChI: InChI=1S/C12H18Cl2N2O/c1-12(2,3)16-6-10(17)7-4-8(13)11(15)9(14)5-7/h4-5,10,16-17H,6,15H2,1-3H3
Instrument: Q Exactive Plus Orbitrap Thermo Scientific
Instrument type: LC-ESI-QFT
Ms type: MS2
Ion mode: POSITIVE
Ionization: ESI
Fragmentation mode: HCD
Collision energy: 45 (nominal)
Resolution: 35000
Column name: XBridge C18 3.5um, 2.1x50mm, Waters
Retention time: 4.6 min
Base peak: 277.0862
Precursor m/z: 277.0869
Precursor type: [M+H]+
m/z	relative intensity	assigned
57.0699	113	C4H9+
60.0444	1	C2H6NO+
104.0492	1	C7H6N+
131.0604	124	C8H7N2+
132.0681	442	C8H8N2+
140.026	5	C7H7ClN+
151.0183	13	C8H6ClN+
167.037	207	C8H8ClN2+
168.0448	315	C11H6NO+
169.0289	1	C8H8ClNO+
173.9871	1	C10H3ClO+
176.0033	2	C7H8Cl2N+
185.9871	40	C8H6Cl2N+
203.0136	999	C8H9Cl2N2+
221.0243	9	C8H11Cl2N2O+
259.0762	3	C12H17Cl2N2+
