Mass spectrum: Chlorfenapyr; LC-ESI-QFT; MS2; CE: 15%; R=17500; [M+H]+
Name: Chlorfenapyr
Name: 4-bromo-2-(4-chlorophenyl)-1-(ethoxymethyl)-5-(trifluoromethyl)pyrrole-3-carbonitrile
Formula: C15H11BrClF3N2O
Exact mass: 405.9695
SMILES: CCOCN1C(=C(C(=C1C(F)(F)F)Br)C#N)C2=CC=C(C=C2)Cl
InChI: InChI=1S/C15H11BrClF3N2O/c1-2-23-8-22-13(9-3-5-10(17)6-4-9)11(7-21)12(16)14(22)15(18,19)20/h3-6H,2,8H2,1H3
Instrument: Exploris 240 Orbitrap Thermo Scientific
Instrument type: LC-ESI-QFT
Ms type: MS2
Ion mode: POSITIVE
Ionization: ESI
Fragmentation mode: HCD
Collision energy: 15 % (nominal)
Resolution: 17500
Column name: XBridge C18 3.5um, 2.1x50mm, Waters
Retention time: 12.586 min
Base peak: 430.9566
Precursor m/z: 406.9768
Precursor type: [M+H]+
m/z	relative intensity	assigned
59.0491	999	C3H7O+
271.025	130	C12H7ClF3N2+
327.051	556	C15H11ClF3N2O+
360.9354	195	C13H6BrClF3N2+
376.9668	311	C14H10BrClF3N2+
