Mass spectrum: Diphenamid; LC-ESI-QFT; MS2; CE: 15%; R=17500; [M+H]+
Name: Diphenamid
Name: N,N-dimethyl-2,2-diphenylacetamide
Formula: C16H17NO
Exact mass: 239.1310
SMILES: CN(C)C(=O)C(C1=CC=CC=C1)C2=CC=CC=C2
InChI: InChI=1S/C16H17NO/c1-17(2)16(18)15(13-9-5-3-6-10-13)14-11-7-4-8-12-14/h3-12,15H,1-2H3
Instrument: Exploris 240 Orbitrap Thermo Scientific
Instrument type: LC-ESI-QFT
Ms type: MS2
Ion mode: POSITIVE
Ionization: ESI
Fragmentation mode: HCD
Collision energy: 15 % (nominal)
Resolution: 17500
Column name: XBridge C18 3.5um, 2.1x50mm, Waters
Retention time: 7.502 min
Base peak: 274.2526
Precursor m/z: 240.1383
Precursor type: [M+H]+
m/z	relative intensity	assigned
134.0964	9	C9H12N+
240.1381	999	C16H18NO+
