Mass spectrum: Pinoxaden-TP NOA 407854; LC-ESI-QFT; MS2; CE: 75%; R=17500; [M+H]+
Name: Pinoxaden-TP NOA 407854
Name: 8-(2,6-Diethyl-4-methylphenyl)tetrahydropyrazolo(1,2-d)(1,4,5)oxadiazepine-7,9-dione
Formula: C18H24N2O3
Exact mass: 316.1787
SMILES: CCC1=CC(C)=CC(CC)=C1C1C(=O)N2CCOCCN2C1=O
InChI: InChI=1S/C18H24N2O3/c1-4-13-10-12(3)11-14(5-2)15(13)16-17(21)19-6-8-23-9-7-20(19)18(16)22/h10-11,16H,4-9H2,1-3H3
Instrument: Q Exactive Plus Orbitrap Thermo Scientific
Instrument type: LC-ESI-QFT
Ms type: MS2
Ion mode: POSITIVE
Ionization: ESI
Fragmentation mode: HCD
Collision energy: 75 % (nominal)
Resolution: 17500
Column name: XBridge C18 3.5um, 2.1x50mm, Waters
Retention time: 7.136 min
Base peak: 317.186
Precursor m/z: 317.186
Precursor type: [M+H]+
m/z	relative intensity	assigned
56.0494	20	C3H6N+
57.0448	81	C2H5N2+
59.0604	16	C2H7N2+
65.0386	11	C5H5+
70.0287	40	C3H4NO+
70.065	13	C4H8N+
71.0604	590	C3H7N2+
72.0445	42	C3H6NO+
73.0761	20	C3H9N2+
79.0543	37	C6H7+
85.0397	103	C3H5N2O+
86.0601	22	C4H8NO+
91.0543	444	C7H7+
93.0699	166	C7H9+
99.0557	9	C4H7N2O+
101.071	270	C4H9N2O+
102.0788	53	C4H10N2O+
103.0541	58	C8H7+
103.087	20	C4H11N2O+
104.062	32	C8H8+
105.0699	470	C8H9+
115.0542	84	C9H7+
115.0867	15	C5H11N2O+
116.062	48	C9H8+
117.0571	34	C8H7N+
117.0699	342	C9H9+
118.0651	69	C8H8N+
118.0778	29	C9H10+
119.0491	15	
119.0856	690	C9H11+
120.0933	28	C9H12+
121.1011	14	C9H13+
127.0502	32	C5H7N2O2+
128.0622	105	C10H8+
129.07	283	C10H9+
130.0653	101	C9H8N+
130.0777	135	C10H10+
131.0491	39	
131.0731	148	C9H9N+
131.0856	999	C10H11+
132.057	89	C9H8O+
132.0813	61	C9H10N+
132.0931	37	C10H12+
133.0649	47	C9H9O+
133.1012	331	C10H13+
141.0697	41	C11H9+
142.0655	32	C10H8N+
142.0778	58	C11H10+
143.0733	38	C10H9N+
143.0857	74	C11H11+
144.0569	33	C10H8O+
144.0808	165	C10H10N+
144.0932	46	C11H12+
145.065	205	C10H9O+
145.0886	158	C10H11N+
145.1011	137	C11H13+
146.0603	195	C9H8NO+
146.0718	23	C10H10O+
146.0965	314	C10H12N+
147.0438	16	C9H7O2+
147.0806	58	C10H11O+
147.1055	22	C10H13N+
147.117	83	C11H15+
148.1119	14	C10H14N+
154.0651	21	C11H8N+
156.0808	118	C11H10N+
157.0647	26	C11H9O+
157.0885	77	C11H11N+
157.1013	47	C12H13+
158.0602	30	C10H8NO+
158.0727	100	C11H10O+
158.0963	83	C11H12N+
159.0445	17	C10H7O2+
159.0678	56	C10H9NO+
159.0805	228	C11H11O+
159.1042	45	C11H13N+
159.1169	226	C12H15+
160.0754	88	C10H10NO+
160.0884	179	C11H12O+
160.112	54	C11H14N+
160.1247	33	C12H16+
161.0956	22	C11H13O+
169.0766	15	C11H9N2+
170.059	15	C11H8NO+
170.0962	56	C12H12N+
171.0769	66	C7H11N2O3+
172.0627	32	C10H8N2O+
172.0757	43	C11H10NO+
172.1118	64	C12H14N+
173.0471	26	C10H7NO2+
173.0833	31	C11H11NO+
173.0963	28	C12H13O+
173.1084	18	C11H13N2+
173.133	26	C13H17+
174.0914	298	C11H12NO+
174.1276	71	C12H16N+
175.0989	13	C11H13NO+
184.0745	19	C12H10NO+
185.0716	62	C11H9N2O+
185.0847	13	C12H11NO+
186.055	33	C11H8NO2+
186.0918	30	C12H12NO+
186.128	18	C13H16N+
187.0744	86	C12H11O2+
187.1119	24	C13H15O+
188.1072	123	C12H14NO+
189.1391	49	C12H17N2+
191.0574	12	C10H9NO3+
198.0913	65	C13H12NO+
200.1083	15	C13H14NO+
202.1227	43	C13H16NO+
216.089	29	C12H12N2O2+
229.097	102	C13H13N2O2+
243.1126	13	C14H15N2O2+
244.1203	27	C14H16N2O2+
271.1439	114	C16H19N2O2+
273.1237	32	C15H17N2O3+
287.1386	21	C16H19N2O3+
289.1535	56	C16H21N2O3+
