Mass spectrum: Trinexapac; LC-ESI-ITFT; MS2; CE: 90%; R=15000; [M+H]+
Name: Trinexapac
Name: 4-[Cyclopropyl(hydroxy)methylene]-3,5-dioxocyclohexanecarboxylic acid
Formula: C11H12O5
Exact mass: 224.0685
SMILES: C(C1)C1C(O)=C(C(=O)CC2C(=O)O)C(=O)C2
InChI: InChI=1S/C11H12O5/c12-7-3-6(11(15)16)4-8(13)9(7)10(14)5-1-2-5/h5-6,14H,1-4H2,(H,15,16)/b10-9-
Instrument: LTQ Orbitrap XL Thermo Scientific
Instrument type: LC-ESI-ITFT
Ms type: MS2
Ion mode: POSITIVE
Ionization: ESI
Fragmentation mode: HCD
Collision energy: 90 % (nominal)
Resolution: 15000
Column name: XBridge C18 3.5um, 2.1x50mm, Waters
Retention time: 6.9 min
Base peak: 225.0758
Precursor m/z: 225.0757
Precursor type: [M+H]+
m/z	relative intensity	assigned
53.0022	19	C3HO+
53.0386	15	C4H5+
57.0336	7	C3H5O+
65.0385	31	C5H5+
67.0178	14	C4H3O+
67.0543	11	C5H7+
68.9971	617	C3HO2+
69.0335	650	C4H5O+
71.0128	238	C3H3O2+
77.0386	14	C6H5+
79.0542	35	C6H7+
81.0335	110	C5H5O+
81.0699	9	C6H9+
83.0492	58	C5H7O+
85.0284	999	C4H5O2+
91.0543	36	C7H7+
93.0335	27	C6H5O+
95.0128	320	C5H3O2+
95.0493	18	C6H7O+
97.0284	40	C5H5O2+
99.0077	646	C4H3O3+
103.0543	15	C8H7+
105.0445	8	C6H5N2+
105.0698	42	C8H9+
107.0491	114	C7H7O+
109.0284	56	C6H5O2+
111.044	619	C6H7O2+
113.0233	192	C5H5O3+
115.0544	19	C9H7+
119.0492	7	C8H7O+
121.0284	7	C7H5O2+
121.0396	20	C6H5N2O+
123.0077	309	C6H3O3+
127.0389	9	C6H7O3+
133.0648	20	C9H9O+
137.0233	102	C7H5O3+
141.0183	7	C6H5O4+
151.0391	10	C8H7O3+
155.0338	13	C7H7O4+
161.06	12	C10H9O2+
165.0183	9	C8H5O4+
