Mass spectrum: Sulfadimethoxine; LC-ESI-ITFT; MS2; CE: 75%; R=7500; [M+H]+
Name: Sulfadimethoxine
Name: 4-amino-N-(2,6-dimethoxy-4-pyrimidinyl)benzenesulfonamide
Formula: C12H14N4O4S
Exact mass: 310.0736
SMILES: c1(NS(c2ccc(N)cc2)(=O)=O)cc(nc(n1)OC)OC
InChI: InChI=1S/C12H14N4O4S/c1-19-11-7-10(14-12(15-11)20-2)16-21(17,18)9-5-3-8(13)4-6-9/h3-7H,13H2,1-2H3,(H,14,15,16)
Instrument: LTQ Orbitrap XL Thermo Scientific
Instrument type: LC-ESI-ITFT
Ms type: MS2
Ion mode: POSITIVE
Ionization: ESI
Fragmentation mode: HCD
Collision energy: 75 % (nominal)
Resolution: 7500
Column name: XBridge C18 3.5um, 2.1x50mm, Waters
Retention time: 5.7 min
Base peak: 311.0817
Precursor m/z: 311.0809
Precursor type: [M+H]+
m/z	relative intensity	assigned
65.0385	357	C5H5+
67.0291	37	C3H3N2+
68.0495	86	C4H6N+
80.0492	59	C5H6N+
89.0711	38	C3H9N2O+
92.0495	914	C6H6N+
93.0572	31	C6H7N+
99.0551	43	C4H7N2O+
108.0444	999	C6H6NO+
110.0349	31	C4H4N3O+
110.06	92	C6H8NO+
113.0579	18	C4H7N3O+
124.0506	46	C5H6N3O+
125.0587	32	C5H7N3O+
127.0501	43	C5H7N2O2+
140.0453	21	C5H6N3O2+
141.0533	146	C5H7N3O2+
154.0611	180	C6H8N3O2+
156.0107	32	C6H6NO2S+
156.0767	586	C6H10N3O2+
172.0499	18	C9H6N3O+
173.0585	137	C9H7N3O+
