Mass spectrum: 4-Chloroaniline; LC-ESI-QFT; MS2; CE: 30%; R=15000; [M+H]+
Name: 4-Chloroaniline
Formula: C6H6ClN
Exact mass: 127.0188769
SMILES: NC1=CC=C(Cl)C=C1
InChI: InChI=1S/C6H6ClN/c7-5-1-3-6(8)4-2-5/h1-4H,8H2
Instrument: Q Exactive Plus
Instrument type: LC-ESI-QFT
Ms type: MS2
Ion mode: POSITIVE
Ionization: ESI
Fragmentation mode: HCD
Collision energy: 30 % (nominal)
Resolution: 15000
Column name: XBridge C18 3.5um, 2.1x50mm, Waters
Retention time: 3.190 min
Base peak: 128.0262
Precursor m/z: 128.0262
Precursor type: [M+H]+
Precursor intensity: 610397774.84
m/z	relative intensity	assigned
93.0573	376	C6H7N+
128.0261	999	C6H7ClN+
