Mass spectrum: Anabaenopeptin A; LC-ESI-QFT; MS2; CE: 150%; R=17500; [M+H]+
Name: Anabaenopeptin A
Name: 2-[[3-benzyl-9-[2-(4-hydroxyphenyl)ethyl]-6,7-dimethyl-2,5,8,11,14-pentaoxo-12-propan-2-yl-1,4,7,10,13-pentazacyclononadec-15-yl]carbamoylamino]-3-(4-hydroxyphenyl)propanoic acid
Formula: C44H57N7O10
Exact mass: 843.4167
SMILES: CC1C(=O)NC(C(=O)NCCCCC(C(=O)NC(C(=O)NC(C(=O)N1C)CCC2=CC=C(C=C2)O)C(C)C)NC(=O)NC(CC3=CC=C(C=C3)O)C(=O)O)CC4=CC=CC=C4
InChI: InChI=1S/C44H57N7O10/c1-26(2)37-41(57)46-34(22-17-28-13-18-31(52)19-14-28)42(58)51(4)27(3)38(54)47-35(24-29-10-6-5-7-11-29)39(55)45-23-9-8-12-33(40(56)50-37)48-44(61)49-36(43(59)60)25-30-15-20-32(53)21-16-30/h5-7,10-11,13-16,18-21,26-27,33-37,52-53H,8-9,12,17,22-25H2,1-4H3,(H,45,55)(H,46,57)(H,47,54)(H,50,56)(H,59,60)(H2,48,49,61)
Instrument: Q Exactive Plus Orbitrap Thermo Scientific
Instrument type: LC-ESI-QFT
Ms type: MS2
Ion mode: POSITIVE
Ionization: ESI
Fragmentation mode: HCD
Collision energy: 150 % (nominal)
Resolution: 17500
Column name: XBridge C18 3.5um, 2.1x50mm, Waters
Retention time: 7.249 min
Base peak: 164.9844
Precursor m/z: 844.424
Precursor type: [M+H]+
m/z	relative intensity	assigned
65.0386	40	C5H5+
67.0417	10	C4H5N+
67.0542	71	C5H7+
68.0495	8	C4H6N+
69.0572	14	C4H7N+
69.0698	3	C5H9+
70.0651	5	C4H8N+
72.0808	51	C4H10N+
77.0386	14	C6H5+
79.0542	46	C6H7+
80.0494	11	C5H6N+
82.029	7	C4H4NO+
82.0651	38	C5H8N+
84.0808	999	C5H10N+
86.0601	27	C4H8NO+
89.0383	8	C7H5+
91.0542	224	C7H7+
93.0698	42	C7H9+
94.0651	15	C6H8N+
95.0491	213	C6H7O+
102.0463	8	C8H6+
103.0542	386	C8H7+
105.0447	61	C6H5N2+
105.0698	23	C8H9+
107.0491	332	C7H7O+
110.0601	6	C6H8NO+
115.0546	7	C9H7+
116.0502	3	C8H6N+
117.0574	7	C8H7N+
117.0697	3	C9H9+
118.065	14	C8H8N+
119.049	17	C8H7O+
119.0729	7	C8H9N+
120.0807	183	C8H10N+
128.0622	6	C10H8+
130.065	11	C9H8N+
136.0752	5	C8H10NO+
