Mass spectrum: Pyraclostrobin; LC-ESI-ITFT; MS2; CE: 45%; R=7500; [M+H]+
Name: Pyraclostrobin
Name: methyl [2-({[1-(4-chlorophenyl)-1H-pyrazol-3-yl]oxy}methyl)phenyl]methoxycarbamate
Formula: C19H18ClN3O4
Exact mass: 387.0986
SMILES: c1(ccc(n2ccc(OCc3c(cccc3)N(OC)C(OC)=O)n2)cc1)Cl
InChI: InChI=1S/C19H18ClN3O4/c1-25-19(24)23(26-2)17-6-4-3-5-14(17)13-27-18-11-12-22(21-18)16-9-7-15(20)8-10-16/h3-12H,13H2,1-2H3
Instrument: LTQ Orbitrap XL Thermo Scientific
Instrument type: LC-ESI-ITFT
Ms type: MS2
Ion mode: POSITIVE
Ionization: ESI
Fragmentation mode: HCD
Collision energy: 45 % (nominal)
Resolution: 7500
Column name: XBridge C18 3.5um, 2.1x50mm, Waters
Retention time: 13.4 min
Base peak: 388.1064
Precursor m/z: 388.1059
Precursor type: [M+H]+
m/z	relative intensity	assigned
75.0438	7	C3H7O2+
91.0543	12	C7H7+
104.0495	21	C7H6N+
105.0572	33	C7H7N+
106.0651	13	C7H8N+
107.0728	8	C7H9N+
109.0649	5	C7H9O+
116.049	6	C8H6N+
118.0653	30	C8H8N+
119.0365	50	C7H5NO+
120.0443	27	C7H6NO+
128.0494	9	C9H6N+
130.0293	7	C8H4NO+
132.0444	96	C8H6NO+
133.0522	318	C8H7NO+
134.0599	86	C8H8NO+
146.06	17	C6H11ClN2+
149.0472	349	C8H7NO2+
151.0635	3	C8H9NO2+
162.055	144	C9H8NO2+
163.0629	999	C9H9NO2+
164.0706	133	C9H10NO2+
166.0862	8	C9H12NO2+
179.0575	16	C9H9NO3+
193.0162	6	C9H6ClN2O+
194.0814	17	C10H12NO3+
253.0528	11	C15H10ClN2+
268.0641	4	C17H13ClO+
296.0582	64	C19H8N2O2+
324.0534	5	C17H11ClN3O2+
