Mass spectrum: Imiprothrin; LC-ESI-QFT; MS2; CE: 90; R=35000; [M+H]+
Name: Imiprothrin
Name: (2,5-dioxo-3-prop-2-ynylimidazolidin-1-yl)methyl 2,2-dimethyl-3-(2-methylprop-1-enyl)cyclopropane-1-carboxylate
Formula: C17H22N2O4
Exact mass: 318.15796
SMILES: O=C(OCN1C(=O)CN(C1=O)CC#C)C2C(\C=C(/C)C)C2(C)C
InChI: InChI=1S/C17H22N2O4/c1-6-7-18-9-13(20)19(16(18)22)10-23-15(21)14-12(8-11(2)3)17(14,4)5/h1,8,12,14H,7,9-10H2,2-5H3
Instrument: Q Exactive Orbitrap Thermo Scientific
Instrument type: LC-ESI-QFT
Ms type: MS2
Ion mode: POSITIVE
Ionization: ESI
Fragmentation mode: HCD
Collision energy: 90 (nominal)
Resolution: 35000
Column name: XBridge C18 3.5um, 2.1x50mm, Waters
Retention time: 11.7 min
Base peak: 341.1472
Precursor m/z: 319.1652
Precursor type: [M+H]+
m/z	relative intensity	assigned
53.0023	32	C3HO+
53.0387	35	C4H5+
54.0339	2	C3H4N+
55.018	69	C3H3O+
55.0543	46	C4H7+
56.0132	234	C2H2NO+
57.07	18	C4H9+
59.0492	31	C3H7O+
65.0387	81	C5H5+
66.0465	14	C5H6+
67.0417	48	C4H5N+
67.0543	310	C5H7+
68.0495	68	C4H6N+
69.0336	106	C4H5O+
69.0699	97	C5H9+
77.0386	15	C6H5+
79.0543	593	C6H7+
80.0495	115	C5H6N+
81.07	999	C6H9+
82.0289	6	C4H4NO+
83.0491	8	C5H7O+
83.0857	14	C6H11+
91.0543	435	C7H7+
93.0699	338	C7H9+
94.0288	13	C5H4NO+
94.0413	6	C6H6O+
94.0778	24	C7H10+
95.0492	214	C6H7O+
95.0856	138	C7H11+
96.0445	24	C5H6NO+
103.0543	38	C8H7+
105.0449	41	C6H5N2+
105.07	327	C8H9+
106.0777	13	C8H10+
107.0493	22	C7H7O+
107.0856	234	C8H11+
108.0571	14	C7H8O+
108.0934	18	C8H12+
109.0649	106	C7H9O+
109.1013	14	C8H13+
110.0599	4	C6H8NO+
111.0553	13	C5H7N2O+
113.0597	4	C6H9O2+
115.0541	34	C9H7+
117.07	39	C9H9+
119.0605	12	C7H7N2+
119.0856	93	C9H11+
120.0934	44	C9H12+
121.0649	54	C8H9O+
121.1011	76	C9H13+
122.0727	4	C8H10O+
123.0555	23	C6H7N2O+
123.0804	32	C8H11O+
123.1168	26	C9H15+
128.0622	3	C10H8+
129.0699	19	C10H9+
130.0777	31	C10H10+
133.1012	6	C10H13+
135.0805	46	C9H11O+
135.1169	38	C10H15+
145.1014	11	C11H13+
147.0806	12	C10H11O+
148.0883	14	C10H12O+
161.0965	3	C11H13O+
163.1113	8	C11H15O+
