Mass spectrum: Chloridazon; LC-ESI-ITFT; MS2; CE: 35%; R=7500; [M+H]+
Name: Chloridazon
Name: 5-amino-4-chloro-2-phenyl-3-pyridazinone
Formula: C10H8ClN3O
Exact mass: 221.0350
SMILES: ClC(=C(N)C=N1)C(=O)N1-c(ccc2)cc2
InChI: InChI=1S/C10H8ClN3O/c11-9-8(12)6-13-14(10(9)15)7-4-2-1-3-5-7/h1-6H,12H2
Instrument: LTQ Orbitrap XL Thermo Scientific
Instrument type: LC-ESI-ITFT
Ms type: MS2
Ion mode: POSITIVE
Ionization: ESI
Fragmentation mode: CID
Collision energy: 35 % (nominal)
Resolution: 7500
Column name: XBridge C18 3.5um, 2.1x50mm, Waters
Retention time: 5.2 min
Base peak: 222.0432
Precursor m/z: 222.0429
Precursor type: [M+H]+
m/z	relative intensity	assigned
77.0386	93	C6H5+
92.0496	89	C6H6N+
94.0652	128	C6H8N+
104.0495	999	C7H6N+
128.9851	98	C4H2ClN2O+
130.0651	9	C9H8N+
146.0115	62	C4H5ClN3O+
159.0554	39	C9H7N2O+
177.022	18	C9H6ClN2+
186.0662	162	C10H8N3O+
193.029	138	C10H8ClNO+
195.0328	18	C9H8ClN2O+
205.0163	126	C10H6ClN2O+
222.0428	286	C10H9ClN3O+
