Mass spectrum: Oseltamivir; LC-ESI-ITFT; MS2; CE: 45%; R=7500; [M+H]+
Name: Oseltamivir
Name: (3R,4R,5S)-4-acetamido-5-amino-3-(1-ethylpropoxy)cyclohexene-1-carboxylic acid ethyl ester
Formula: C16H28N2O4
Exact mass: 312.2049
SMILES: CCC(CC)OC1C=C(CC(C1NC(=O)C)N)C(=O)OCC
InChI: InChI=1S/C16H28N2O4/c1-5-12(6-2)22-14-9-11(16(20)21-7-3)8-13(17)15(14)18-10(4)19/h9,12-15H,5-8,17H2,1-4H3,(H,18,19)/t13-,14+,15+/m0/s1
Instrument: LTQ Orbitrap XL Thermo Scientific
Instrument type: LC-ESI-ITFT
Ms type: MS2
Ion mode: POSITIVE
Ionization: ESI
Fragmentation mode: HCD
Collision energy: 45 % (nominal)
Resolution: 7500
Column name: XBridge C18 3.5um, 2.1x50mm, Waters
Retention time: 7.0 min
Base peak: 313.2132
Precursor m/z: 313.2122
Precursor type: [M+H]+
m/z	relative intensity	assigned
60.0442	5	C2H6NO+
65.0385	9	C5H5+
67.0543	14	C5H7+
68.0493	7	C4H6N+
87.055	4	C3H7N2O+
92.0495	28	C6H6N+
93.0335	29	C6H5O+
93.0572	12	C6H7N+
94.0652	156	C6H8N+
95.0491	15	C6H7O+
109.0761	46	C6H9N2+
110.0601	8	C6H8NO+
111.044	25	C6H7O2+
112.0395	8	C5H6NO2+
119.0606	10	C7H7N2+
120.0445	412	C7H6NO+
121.0281	4	C7H5O2+
122.0964	33	C8H12N+
133.0767	3	C8H9N2+
134.0595	4	C8H8NO+
136.0757	97	C8H10NO+
137.071	208	C7H9N2O+
138.055	93	C7H8NO2+
139.0394	12	C7H7O3+
139.0756	13	C8H11O2+
140.0702	8	C7H10NO2+
151.0864	7	C8H11N2O+
161.071	18	C9H9N2O+
162.055	57	C9H8NO2+
166.0864	999	C9H12NO2+
179.0814	25	C9H11N2O2+
180.0656	31	C9H10NO3+
183.113	19	C9H15N2O2+
184.0963	7	C9H14NO3+
208.0966	28	C11H14NO3+
226.1073	21	C11H16NO4+
