Mass spectrum: MCLY; LC-ESI-QFT; MS2; CE: 120%; R=17500; [M+H]+
Name: MCLY
Name: Microcystin LY
Name: (5R,8S,11R,12S,15S,18S,19S,22R)-15-[(4-hydroxyphenyl)methyl]-18-[(1E,3E,5S,6S)-6-methoxy-3,5-dimethyl-7-phenylhepta-1,3-dienyl]-1,5,12,19-tetramethyl-2-methylidene-8-(2-methylpropyl)-3,6,9,13,16,20,25-heptaoxo-1,4,7,10,14,17,21-heptazacyclopentacosane-11,22-dicarboxylic acid
Class: NA
Formula: C52H71N7O13
Exact mass: 1001.5110
SMILES: COC(Cc1ccccc1)C(C)\C=C(C)\C=C/C2NC(=O)C(Cc3ccc(O)cc3)NC(=O)C(C)C(NC(=O)C(CC(C)C)NC(=O)C(C)NC(=O)C(=C)N(C)C(=O)CCC(NC(=O)C2C)C(O)=O)C(O)=O
InChI: InChI=1S/C52H71N7O13/c1-28(2)24-40-50(67)58-44(52(70)71)32(6)46(63)56-41(26-36-17-19-37(60)20-18-36)49(66)54-38(21-16-29(3)25-30(4)42(72-10)27-35-14-12-11-13-15-35)31(5)45(62)55-39(51(68)69)22-23-43(61)59(9)34(8)48(65)53-33(7)47(64)57-40/h11-21,25,28,30-33,38-42,44,60H,8,22-24,26-27H2,1-7,9-10H3,(H,53,65)(H,54,66)(H,55,62)(H,56,63)(H,57,64)(H,58,67)(H,68,69)(H,70,71)/b21-16-,29-25+
Instrument: Q Exactive Plus Orbitrap Thermo Scientific
Instrument type: LC-ESI-QFT
Ms type: MS2
Ion mode: POSITIVE
Ionization: ESI
Fragmentation mode: HCD
Collision energy: 120 % (nominal)
Resolution: 17500
Column name: XBridge C18 3.5um, 2.1x50mm, Waters
Retention time: 10.738 min
Base peak: 164.9846
Precursor m/z: 1002.5183
Precursor type: [M+H]+
m/z	relative intensity	assigned
74.0236	9	C2H4NO2+
77.0385	36	C6H5+
78.0465	7	C6H6+
79.0542	209	C6H7+
80.0495	51	C5H6N+
81.0335	4	C5H5O+
81.0573	6	C5H7N+
81.0699	15	C6H9+
82.0287	22	C4H4NO+
82.0652	77	C5H8N+
84.0444	85	C4H6NO+
85.0284	9	C4H5O2+
86.06	10	C4H8NO+
86.0965	41	C5H12N+
89.0385	4	C7H5+
91.0543	999	C7H7+
92.0621	17	C7H8+
93.0699	72	C7H9+
94.0651	40	C6H8N+
95.0492	375	C6H7O+
95.0854	11	
96.0446	5	C5H6NO+
96.0682	7	C5H8N2+
96.0807	7	C6H10N+
99.0918	33	C5H11N2+
102.0464	24	C8H6+
103.0542	625	C8H7+
104.0622	5	C8H8+
105.0447	131	C6H5N2+
105.0699	289	C8H9+
106.0526	10	C6H6N2+
106.065	7	C7H8N+
107.0491	49	C7H7O+
107.0855	200	C8H11+
108.0683	7	C6H8N2+
108.0802	4	C7H10N+
109.0648	68	C7H9O+
110.06	8	C6H8NO+
113.0234	24	C5H5O3+
115.0542	99	C9H7+
116.0617	15	C9H8+
117.0572	7	C8H7N+
117.0699	38	C9H9+
118.065	16	C8H8N+
119.0491	72	C8H7O+
119.0603	41	C7H7N2+
119.0856	20	C9H11+
120.0809	16	C8H10N+
120.0935	7	C9H12+
121.0662	4	
121.0759	63	C7H9N2+
122.0599	4	C7H8NO+
122.0839	3	C7H10N2+
127.0866	93	C6H11N2O+
128.062	47	C10H8+
129.0697	33	C10H9+
130.0652	14	C9H8N+
130.0772	6	C10H10+
131.0854	22	C10H11+
132.0807	5	C9H10N+
134.0599	3	C8H8NO+
135.0805	12	C9H11O+
135.1169	6	C10H15+
136.0758	47	C8H10NO+
139.0866	3	C7H11N2O+
141.0697	12	C11H9+
142.0775	4	C11H10+
144.0447	6	C9H6NO+
144.0809	5	C10H10N+
145.065	9	C10H9O+
145.1006	3	C11H13+
146.0599	15	C9H8NO+
149.0708	13	C8H9N2O+
153.07	4	C12H9+
155.06	8	C10H7N2+
165.0702	30	C13H9+
166.0777	6	C13H10+
167.0818	16	C8H11N2O2+
178.0778	12	C14H10+
179.0856	11	C14H11+
