Mass spectrum: Azoxystrobin (free acid); LC-ESI-ITFT; MS2; CE: 30%; R=7500; [M+H]+
Name: Azoxystrobin (free acid)
Formula: C21H15N3O5
Exact mass: 389.1012
SMILES: O=C(O)/C(=C\OC)c3ccccc3Oc2cc(Oc1ccccc1C#N)ncn2
InChI: InChI=1S/C21H15N3O5/c1-27-12-16(21(25)26)15-7-3-5-9-18(15)29-20-10-19(23-13-24-20)28-17-8-4-2-6-14(17)11-22/h2-10,12-13H,1H3,(H,25,26)/b16-12-
Instrument: LTQ Orbitrap XL Thermo Scientific
Instrument type: LC-ESI-ITFT
Ms type: MS2
Ion mode: POSITIVE
Ionization: ESI
Fragmentation mode: HCD
Collision energy: 30 % (nominal)
Resolution: 7500
Column name: XBridge C18 3.5um, 2.1x50mm, Waters
Retention time: 8.8 min
Base peak: 390.1088
Precursor m/z: 390.1084
Precursor type: [M+H]+
m/z	relative intensity	assigned
134.0599	3	C8H8NO+
143.0604	3	C9H7N2+
145.0282	1	C9H5O2+
162.0549	1	C9H8NO2+
171.0559	1	C10H7N2O+
172.0395	10	C10H6NO2+
177.0552	2	C10H9O3+
201.0659	6	C11H9N2O2+
203.0815	1	C11H11N2O2+
210.0667	5	C12H8N3O+
216.0652	4	C12H10NO3+
287.0817	5	C18H11N2O2+
289.097	2	C18H13N2O2+
303.0754	6	C18H11N2O3+
312.0781	1	C19H10N3O2+
314.0917	5	C19H12N3O2+
315.0975	3	C16H15N2O5+
316.108	33	C19H14N3O2+
317.0923	4	C19H13N2O3+
328.106	1	C17H16N2O5+
329.0796	26	C21H13O4+
340.07	2	C20H10N3O3+
344.103	339	C20H14N3O3+
346.1186	20	C20H16N3O3+
372.0984	999	C21H14N3O4+
