Mass spectrum: Verapamil; LC-ESI-ITFT; MS2; CE: 90%; R=30000; [M+H]+
Name: Verapamil
Name: 2-(3,4-dimethoxyphenyl)-5-[2-(3,4-dimethoxyphenyl)ethyl-methyl-amino]-2-propan-2-yl-pentanenitrile
Formula: C27H38N2O4
Exact mass: 454.2832
SMILES: COC1=C(OC)C=CC(C(C(C)C)(C#N)CCCN(CCC2=CC(OC)=C(OC)C=C2)C)=C1
InChI: InChI=1S/C27H38N2O4/c1-20(2)27(19-28,22-10-12-24(31-5)26(18-22)33-7)14-8-15-29(3)16-13-21-9-11-23(30-4)25(17-21)32-6/h9-12,17-18,20H,8,13-16H2,1-7H3
Instrument: LTQ Orbitrap XL Thermo Scientific
Instrument type: LC-ESI-ITFT
Ms type: MS2
Ion mode: POSITIVE
Ionization: ESI
Fragmentation mode: HCD
Collision energy: 90 % (nominal)
Resolution: 30000
Column name: XBridge C18 3.5um, 2.1x50mm, Waters
Retention time: 7.3 min
Base peak: 455.292
Precursor m/z: 455.2904
Precursor type: [M+H]+
m/z	relative intensity	assigned
58.0651	83	C3H8N+
66.0465	15	C5H6+
77.0386	197	C6H5+
78.0464	67	C6H6+
79.0543	642	C6H7+
84.0808	64	C5H10N+
86.0964	16	C5H12N+
90.0464	72	C7H6+
91.0543	482	C7H7+
92.0621	55	C7H8+
93.0699	79	C7H9+
94.0651	14	C6H8N+
95.0492	60	C6H7O+
95.0855	20	C7H11+
102.0464	23	C8H6+
103.0543	554	C8H7+
104.0621	179	C8H8+
105.0336	43	C7H5O+
105.0448	54	C6H5N2+
105.0699	580	C8H9+
107.0492	630	C7H7O+
108.0571	36	C7H8O+
109.0648	57	C7H9O+
115.0543	33	C9H7+
118.0413	218	C8H6O+
119.0492	345	C8H7O+
120.057	147	C8H8O+
121.0649	683	C8H9O+
122.0726	127	C8H10O+
123.044	28	C7H7O2+
124.0519	31	C7H8O2+
131.0492	124	C9H7O+
132.0569	27	C9H8O+
133.0648	280	C9H9O+
133.0761	16	C8H9N2+
134.0727	855	C9H10O+
135.0441	999	C8H7O2+
135.0805	71	C9H11O+
136.052	71	C8H8O2+
137.0598	83	C8H9O2+
138.0676	64	C8H10O2+
139.0755	10	C8H11O2+
146.0727	61	C10H10O+
149.0598	150	C9H9O2+
150.0676	884	C9H10O2+
151.0754	175	C9H11O2+
152.0832	20	C9H12O2+
159.0807	17	C11H11O+
160.0885	24	C11H12O+
165.0911	245	C10H13O2+
172.0758	34	C11H10NO+
174.0914	26	C11H12NO+
176.0707	57	C10H10NO2+
177.091	32	C11H13O2+
187.0989	13	C12H13NO+
188.0706	13	C11H10NO2+
202.0866	26	C12H12NO2+
203.0935	12	C12H13NO2+
218.117	14	C13H16NO2+
303.2082	13	C18H27N2O2+
