Mass spectrum: 4-Formylaminoantipyrine; LC-ESI-ITFT; MS2; CE: 30%; R=15000; [M+H]+
Name: 4-Formylaminoantipyrine
Name: N-(1,5-dimethyl-3-oxidanylidene-2-phenyl-pyrazol-4-yl)methanamide
Formula: C12H13N3O2
Exact mass: 231.1008
SMILES: O=C2C(\NC=O)=C(\C)N(C)N2c1ccccc1
InChI: InChI=1S/C12H13N3O2/c1-9-11(13-8-16)12(17)15(14(9)2)10-6-4-3-5-7-10/h3-8H,1-2H3,(H,13,16)
Instrument: LTQ Orbitrap XL Thermo Scientific
Instrument type: LC-ESI-ITFT
Ms type: MS2
Ion mode: POSITIVE
Ionization: ESI
Fragmentation mode: HCD
Collision energy: 30 % (nominal)
Resolution: 15000
Column name: XBridge C18 3.5um, 2.1x50mm, Waters
Retention time: 3.7 min
Base peak: 232.1088
Precursor m/z: 232.1081
Precursor type: [M+H]+
m/z	relative intensity	assigned
56.0494	48	C3H6N+
77.0386	6	C6H5+
83.0604	102	C4H7N2+
85.0761	11	C4H9N2+
94.0651	15	C6H8N+
104.0495	64	C7H6N+
111.0554	5	C5H7N2O+
145.0758	5	C9H9N2+
146.0599	5	C9H8NO+
159.0918	43	C10H11N2+
173.0708	17	C10H9N2O+
186.1023	2	C11H12N3+
187.0866	70	C11H11N2O+
189.0894	7	C10H11N3O+
199.0741	2	C11H9N3O+
204.1133	430	C11H14N3O+
214.0977	589	C12H12N3O+
232.1083	999	C12H14N3O2+
