Mass spectrum: 3-Phenoxybenzoic acid; LC-ESI-ITFT; MS2; CE: 90%; R=7500; [M-H]-
Name: 3-Phenoxybenzoic acid
Formula: C13H10O3
Exact mass: 214.0630
SMILES: c1(cc(ccc1)C(O)=O)Oc1ccccc1
InChI: InChI=1S/C13H10O3/c14-13(15)10-5-4-8-12(9-10)16-11-6-2-1-3-7-11/h1-9H,(H,14,15)
Instrument: LTQ Orbitrap XL Thermo Scientific
Instrument type: LC-ESI-ITFT
Ms type: MS2
Ion mode: NEGATIVE
Ionization: ESI
Fragmentation mode: HCD
Collision energy: 90 % (nominal)
Resolution: 7500
Column name: XBridge C18 3.5um, 2.1x50mm, Waters
Retention time: 11.1 min
Base peak: 213.0552
Precursor m/z: 213.0557
Precursor type: [M-H]-
m/z	relative intensity	assigned
93.0345	999	C6H5O-
