Mass spectrum: Triclopyr; LC-ESI-ITFT; MS2; CE: 90%; R=7500; [M+H]+
Name: Triclopyr
Name: 2-(3,5,6-trichloropyridin-2-yl)oxyacetic acid
Formula: C7H4Cl3NO3
Exact mass: 254.9257
SMILES: ClC1=C(OCC(O)=O)N=C(Cl)C(Cl)=C1
InChI: InChI=1S/C7H4Cl3NO3/c8-3-1-4(9)7(11-6(3)10)14-2-5(12)13/h1H,2H2,(H,12,13)
Instrument: LTQ Orbitrap XL Thermo Scientific
Instrument type: LC-ESI-ITFT
Ms type: MS2
Ion mode: POSITIVE
Ionization: ESI
Fragmentation mode: HCD
Collision energy: 90 % (nominal)
Resolution: 7500
Column name: XBridge C18 3.5um, 2.1x50mm, Waters
Retention time: 10.3 min
Base peak: 255.9336
Precursor m/z: 255.933
Precursor type: [M+H]+
m/z	relative intensity	assigned
61.9791	44	CHClN+
62.9631	57	CClO+
83.9759	11	C4HCl+
84.9839	25	C4H2Cl+
97.979	21	C4HClN+
99.9945	13	C7O+
106.9449	402	C3HCl2+
108.9713	48	C5ClN+
109.9791	788	C5HClN+
118.9449	299	C4HCl2+
127.9897	105	C5H3ClNO+
133.9557	108	C4H2Cl2N+
143.9401	467	C5Cl2N+
145.9558	857	C5H2Cl2N+
146.9633	24	C5H3Cl2N+
152.906	26	C4Cl3+
161.9506	260	C5H2Cl2NO+
163.9663	444	C5H4Cl2NO+
168.9241	22	C4H2Cl3N+
179.9168	999	C5HCl3N+
181.9323	52	C5H3Cl3N+
197.9273	321	C5H3Cl3NO+
237.9303	9	C3H5Cl3N2O4+
