Mass spectrum: Ioxitalamic acid; LC-ESI-ITFT; MS2; CE: 45%; R=15000; [M+H]+
Name: Ioxitalamic acid
Name: 3-acetamido-5-(2-hydroxyethylcarbamoyl)-2,4,6-triiodo-benzoic acid
Formula: C12H11I3N2O5
Exact mass: 643.7802
SMILES: CC(=O)NC1=C(I)C(C(O)=O)=C(I)C(C(=O)NCCO)=C1I
InChI: InChI=1S/C12H11I3N2O5/c1-4(19)17-10-8(14)5(11(20)16-2-3-18)7(13)6(9(10)15)12(21)22/h18H,2-3H2,1H3,(H,16,20)(H,17,19)(H,21,22)
Instrument: LTQ Orbitrap XL Thermo Scientific
Instrument type: LC-ESI-ITFT
Ms type: MS2
Ion mode: POSITIVE
Ionization: ESI
Fragmentation mode: HCD
Collision energy: 45 % (nominal)
Resolution: 15000
Column name: XBridge C18 3.5um, 2.1x50mm, Waters
Retention time: 1.3 min
Base peak: 132.958
Precursor m/z: 644.7875
Precursor type: [M+H]+
m/z	relative intensity	assigned
174.0184	18	C9H4NO3+
195.9858	10	C5N4O5+
231.9252	11	C6H3INO+
257.9411	25	C8H5INO+
272.9282	27	C8H4INO2+
273.936	127	C8H5INO2+
301.931	999	C9H5INO3+
316.9189	12	C9H4INO4+
319.9424	16	C9H7INO4+
455.8218	67	C10H4I2NO4+
