Mass spectrum: Mecarbam; LC-ESI-QFT; MS2; CE: 15%; R=17500; [M+H]+
Name: Mecarbam
Name: ethyl N-(2-diethoxyphosphinothioylsulfanylacetyl)-N-methylcarbamate
Formula: C10H20NO5PS2
Exact mass: 329.0521
SMILES: CCOC(=O)N(C)C(=O)CSP(=S)(OCC)OCC
InChI: InChI=1S/C10H20NO5PS2/c1-5-14-10(13)11(4)9(12)8-19-17(18,15-6-2)16-7-3/h5-8H2,1-4H3
Instrument: Exploris 240 Orbitrap Thermo Scientific
Instrument type: LC-ESI-QFT
Ms type: MS2
Ion mode: POSITIVE
Ionization: ESI
Fragmentation mode: HCD
Collision energy: 15 % (nominal)
Resolution: 17500
Column name: XBridge C18 3.5um, 2.1x50mm, Waters
Retention time: 9.793 min
Base peak: 243.0634
Precursor m/z: 330.0593
Precursor type: [M+H]+
m/z	relative intensity	assigned
116.034	28	C4H6NO3+
132.0111	6	C4H6NO2S+
142.9389	4	CH4O2PS2+
144.0653	105	C6H10NO3+
153.0128	16	C4H10O2PS+
160.0426	18	C6H10NO2S+
170.9692	12	C3H8O2PS2+
198.965	61	C10H2NPS+
199.0007	77	C5H12O2PS2+
226.9957	999	C6H12O3PS2+
