Mass spectrum: Fipronil-sulfone; LC-ESI-ITFT; MS2; CE: 15%; R=15000; [M-H]-
Name: Fipronil-sulfone
Name: 5-amino-1-[2,6-dichloro-4-(trifluoromethyl)phenyl]-4-(trifluoromethylsulfonyl)-3-pyrazolecarbonitrile
Formula: C12H4Cl2F6N4O2S
Exact mass: 451.9336
SMILES: NC1=C(C(=NN1c1c(Cl)cc(cc1Cl)C(F)(F)F)C#N)S(=O)(=O)C(F)(F)F
InChI: InChI=1S/C12H4Cl2F6N4O2S/c13-5-1-4(11(15,16)17)2-6(14)8(5)24-10(22)9(7(3-21)23-24)27(25,26)12(18,19)20/h1-2H,22H2
Instrument: LTQ Orbitrap XL Thermo Scientific
Instrument type: LC-ESI-ITFT
Ms type: MS2
Ion mode: NEGATIVE
Ionization: ESI
Fragmentation mode: HCD
Collision energy: 15 % (nominal)
Resolution: 15000
Column name: XBridge C18 3.5um, 2.1x50mm, Waters
Retention time: 13.5 min
Base peak: 450.9265
Precursor m/z: 450.9263
Precursor type: [M-H]-
m/z	relative intensity	assigned
414.9496	999	C12H2ClF6N4O2S-
450.9262	761	C12H3Cl2F6N4O2S-
