Mass spectrum: Triflumizole FM-6-1; LC-ESI-QFT; MS2; CE: 75%; R=17500; [M+H]+
Name: Triflumizole FM-6-1
Name: Ethanimidamide, N-(4-chloro-2-(trifluoromethyl)phenyl)-2-propoxy-
Name: N`-[4-chloro-2-(trifluoromethyl)phenyl]-2-propoxyethanimidamide
Formula: C12H14ClF3N2O
Exact mass: 294.0747
SMILES: CCCOCC(=NC1=C(C=C(C=C1)Cl)C(F)(F)F)N
InChI: InChI=1S/C12H14ClF3N2O/c1-2-5-19-7-11(17)18-10-4-3-8(13)6-9(10)12(14,15)16/h3-4,6H,2,5,7H2,1H3,(H2,17,18)
Instrument: Exploris 240 Orbitrap Thermo Scientific
Instrument type: LC-ESI-QFT
Ms type: MS2
Ion mode: POSITIVE
Ionization: ESI
Fragmentation mode: HCD
Collision energy: 75 % (nominal)
Resolution: 17500
Column name: XBridge C18 3.5um, 2.1x50mm, Waters
Retention time: 5.242 min
Base peak: 295.0817
Precursor m/z: 295.082
Precursor type: [M+H]+
m/z	relative intensity	assigned
55.0542	639	C4H7+
131.0603	98	C8H7N2+
153.0389	96	C8H5F2N+
160.0426	127	C9H5FN2+
160.9971	225	C7H4ClF2+
163.006	539	C8H4ClN2+
166.0291	264	C8H7ClN2+
168.0011	620	C8H4ClFN+
176.0073	999	C7H5ClF2N+
178.9873	233	C7H3ClF3+
180.0493	355	C9H6F2N2+
183.9962	204	C8H4ClFNO+
185.9917	295	C8H3ClF2N+
188.0075	489	C8H5ClF2N+
195.0121	881	C9H5ClFN2+
200.0563	322	C9H7F3N2+
205.9985	477	C8H4ClF3N+
213.023	293	C9H7ClFN2O+
215.0186	483	C12H3F2NO+
