Mass spectrum: Salicylic acid; LC-ESI-QFT; MS2; CE: 90; R=35000; [M+H]+
Name: Salicylic acid
Name: 2-hydroxybenzoic acid
Formula: C7H6O3
Exact mass: 138.03169
SMILES: C1=CC=C(C(=C1)C(=O)O)O
InChI: InChI=1S/C7H6O3/c8-6-4-2-1-3-5(6)7(9)10/h1-4,8H,(H,9,10)
Instrument: Q Exactive Plus Orbitrap Thermo Scientific
Instrument type: LC-ESI-QFT
Ms type: MS2
Ion mode: POSITIVE
Ionization: ESI
Fragmentation mode: HCD
Collision energy: 90 (nominal)
Resolution: 35000
Column name: XBridge C18 3.5um, 2.1x50mm, Waters
Retention time: 6.4 min
Base peak: 391.2837
Precursor m/z: 139.039
Precursor type: [M+H]+
m/z	relative intensity	assigned
51.0229	1	C4H3+
53.0022	6	C3HO+
53.0386	6	C4H5+
55.0179	11	C3H3O+
55.0543	18	C4H7+
65.0386	999	C5H5+
66.0339	1	C4H4N+
67.0543	15	C5H7+
68.9972	3	C3HO2+
69.0335	19	C4H5O+
71.0127	1	C3H3O2+
77.0386	2	C6H5+
79.0179	1	C5H3O+
79.0543	13	C6H7+
83.0491	12	C5H7O+
91.0544	16	C7H7+
92.0496	1	C6H6N+
93.0336	96	C6H5O+
93.0449	16	C5H5N2+
95.0492	21	C6H7O+
97.0285	3	C5H5O2+
98.0363	12	C5H6O2+
105.0449	8	C6H5N2+
111.0442	122	C6H7O2+
121.0285	643	C7H5O2+
121.0397	303	C6H5N2O+
