Mass spectrum: Trimipramine N-Oxide; LC-ESI-QFT; MS2; CE: 30; R=35000; [M+H]+
Name: Trimipramine N-Oxide
Name: Trimipramine N-oxide, (+/-)-
Name: 3-(5,6-dihydrobenzo[b][1]benzazepin-11-yl)-N,N,2-trimethylpropan-1-amine oxide
Formula: C20H26N2O
Exact mass: 310.20451
SMILES: CC(CN1C2=CC=CC=C2CCC3=CC=CC=C31)C[N+](C)(C)[O-]
InChI: InChI=1S/C20H26N2O/c1-16(15-22(2,3)23)14-21-19-10-6-4-8-17(19)12-13-18-9-5-7-11-20(18)21/h4-11,16H,12-15H2,1-3H3
Instrument: Q Exactive Plus Orbitrap Thermo Scientific
Instrument type: LC-ESI-QFT
Ms type: MS2
Ion mode: POSITIVE
Ionization: ESI
Fragmentation mode: HCD
Collision energy: 30 (nominal)
Resolution: 35000
Column name: XBridge C18 3.5um, 2.1x50mm, Waters
Retention time: 8.9 min
Base peak: 311.2114
Precursor m/z: 311.2118
Precursor type: [M+H]+
m/z	relative intensity	assigned
56.0494	1	C3H6N+
58.0651	35	C3H8N+
60.0443	3	C2H6NO+
71.0729	10	C4H9N+
84.0807	3	C5H10N+
85.0885	1	C5H11N+
86.0964	215	C5H12N+
98.0965	2	C6H12N+
99.1042	3	C6H13N+
100.1121	7	C6H14N+
116.1069	999	C6H14NO+
132.0809	1	C9H10N+
193.0877	2	C14H11N+
194.0962	1	C14H12N+
195.1043	28	C14H13N+
208.1121	252	C15H14N+
226.1225	4	C15H16NO+
249.1511	13	C18H19N+
250.159	141	C18H20N+
311.2117	42	C20H27N2O+
