Mass spectrum: Nystatin; LC-ESI-QFT; MS2; CE: 75; R=35000; [M-H]-
Name: Nystatin
Name: (1S,3R,4R,7R,9R,11R,15S,16R,17R,18S,19E,21E,25E,27E,29E,31E,33R,35S,36R,37S)-33-[(3-Amino-3,6-dideoxy-?-D-mannopyranosyl)oxy]-1,3,4,7,9,11,17,37-octahydroxy-15,16,18-trimethyl-13-oxo-14,39-dioxabic yclo[33.3.1]nonatriaconta-19,21,25,27,29,31-hexaene-36-carboxylic acid
Formula: C47H75NO17
Exact mass: 925.50350
SMILES: CC1C=CC=CCCC=CC=CC=CC=CC(CC2C(C(CC(O2)(CC(C(CCC(CC(CC(CC(=O)OC(C(C1O)C)C)O)O)O)O)O)O)O)C(=O)O)OC3C(C(C(C(O3)C)O)N)O
InChI: InChI=1S/C47H75NO17/c1-27-17-15-13-11-9-7-5-6-8-10-12-14-16-18-34(64-46-44(58)41(48)43(57)30(4)63-46)24-38-40(45(59)60)37(54)26-47(61,65-38)25-36(53)35(52)20-19-31(49)21-32(50)22-33(51)23-39(55)62-29(3)28(2)42(27)56/h5-6,8,10-18,27-38,40-44,46,49-54,56-58,61H,7,9,19-26,48H2,1-4H3,(H,59,60)/b6-5+,10-8+,13-11+,14-12+,17-15+,18-16+/t27-,28-,29-,30+,31+,32+,33+,34-,35+,36+,37-,38-,40+,41-,42+,43+,44-,46-,47+/m0/s1
Instrument: Q Exactive Orbitrap Thermo Scientific
Instrument type: LC-ESI-QFT
Ms type: MS2
Ion mode: NEGATIVE
Ionization: ESI
Fragmentation mode: HCD
Collision energy: 75 (nominal)
Resolution: 35000
Column name: XBridge C18 3.5um, 2.1x50mm, Waters
Retention time: 11.6 min
Base peak: 924.4966
Precursor m/z: 924.4962
Precursor type: [M-H]-
m/z	relative intensity	assigned
129.071	293	C10H9-
130.0422	346	C9H6O-
131.0502	999	C9H7O-
132.0582	91	C9H8O-
133.0658	309	C9H9O-
135.0453	84	C8H7O2-
135.0817	188	C9H11O-
137.0608	863	C8H9O2-
138.0558	33	C7H8NO2-
139.0402	166	C7H7O3-
139.0766	71	C8H11O2-
141.056	34	C7H9O3-
141.0711	73	C11H9-
143.0501	302	C10H7O-
143.0866	93	C11H11-
145.0658	523	C10H9O-
145.1025	54	C11H13-
147.045	529	C9H7O2-
147.0815	201	C10H11O-
148.0531	84	C9H8O2-
149.0606	285	C9H9O2-
155.0863	55	C12H11-
156.0577	39	C11H8O-
157.0659	262	C11H9O-
158.0737	84	C11H10O-
159.0814	50	C11H11O-
160.0533	35	C10H8O2-
161.061	61	C10H9O2-
161.097	37	C11H13O-
163.0764	320	C10H11O2-
165.0556	60	C9H9O3-
165.0924	48	C10H13O2-
169.0658	240	C12H9O-
169.1021	77	C13H13-
171.0815	253	C12H11O-
171.1182	27	C13H15-
173.0607	92	C11H9O2-
173.097	396	C12H13O-
181.0654	31	C13H9O-
181.1023	32	C14H13-
183.0816	205	C13H11O-
184.0892	63	C13H12O-
185.097	60	C13H13O-
187.0767	27	C12H11O2-
191.0718	57	C11H11O3-
195.0815	79	C14H11O-
195.1179	38	C15H15-
197.0971	348	C14H13O-
198.1046	36	C14H14O-
199.1129	54	C14H15O-
211.0762	54	C14H11O2-
239.1071	34	C16H15O2-
