Mass spectrum: Ciprofloxacin; LC-ESI-ITFT; MS2; CE: 75%; R=15000; [M+H]+
Name: Ciprofloxacin
Name: 1-cyclopropyl-6-fluoro-4-keto-7-piperazin-4-ium-1-yl-quinoline-3-carboxylate
Formula: C17H18FN3O3
Exact mass: 331.1332
SMILES: C(C1)C1N(C=C(C-2=O)C(=O)O)-c(cc(c3F)N(CCN4)CC4)c2c3
InChI: InChI=1S/C17H18FN3O3/c18-13-7-11-14(8-15(13)20-5-3-19-4-6-20)21(10-1-2-10)9-12(16(11)22)17(23)24/h7-10,19H,1-6H2,(H,23,24)
Instrument: LTQ Orbitrap XL Thermo Scientific
Instrument type: LC-ESI-ITFT
Ms type: MS2
Ion mode: POSITIVE
Ionization: ESI
Fragmentation mode: HCD
Collision energy: 75 % (nominal)
Resolution: 15000
Column name: XBridge C18 3.5um, 2.1x50mm, Waters
Retention time: 4.5 min
Base peak: 332.1415
Precursor m/z: 332.1405
Precursor type: [M+H]+
m/z	relative intensity	assigned
56.0496	1	C3H6N+
70.0652	5	C4H8N+
109.0449	3	C7H6F+
115.0543	1	C9H7+
116.0497	5	C8H6N+
117.0574	1	C8H7N+
122.0404	1	C7H5FN+
128.0622	1	C10H8+
129.07	1	C10H9+
130.0653	2	C9H8N+
131.0606	2	C8H7N2+
133.0453	1	C9H6F+
134.0402	2	C8H5FN+
135.0481	12	C8H6FN+
136.0559	14	C8H7FN+
137.0634	1	C8H8FN+
141.0576	1	C10H7N+
142.0653	2	C10H8N+
144.0555	1	C8H6N3+
146.0402	1	C9H5FN+
147.0481	1	C9H6FN+
147.0608	1	C10H8F+
148.0559	12	C9H7FN+
149.0511	1	C8H6FN2+
150.0714	1	C9H9FN+
151.067	1	C8H8FN2+
154.0652	5	C11H8N+
155.0606	4	C10H7N2+
155.0732	2	C11H9N+
156.0684	6	C10H8N2+
156.081	2	C11H10N+
157.0764	1	C10H9N2+
160.0558	1	C10H7FN+
161.0514	2	C9H6FN2+
161.0638	2	C10H8FN+
162.0351	5	C9H5FNO+
162.059	2	C9H7FN2+
162.0715	4	C10H9FN+
163.043	2	C9H6FNO+
163.0668	5	C9H8FN2+
164.0507	1	C9H7FNO+
169.0762	7	C11H9N2+
172.0561	3	C11H7FN+
173.0637	2	C11H8FN+
174.0589	6	C10H7FN2+
174.0715	9	C11H9FN+
175.0668	11	C10H8FN2+
175.0793	5	C11H10FN+
176.0509	6	C10H7FNO+
176.0746	25	C10H9FN2+
177.0587	1	C10H8FNO+
177.0825	1	C10H10FN2+
178.0539	5	C9H7FN2O+
179.0619	1	C9H8FN2O+
180.0452	1	C9H7FNO2+
181.0764	1	C12H9N2+
182.084	4	C12H10N2+
183.0679	1	C12H9NO+
183.0919	2	C12H11N2+
184.0634	6	C11H8N2O+
184.0759	2	C12H10NO+
185.071	4	C11H9N2O+
186.0714	1	C12H9FN+
187.0668	10	C11H8FN2+
188.0381	2	C10H5FN2O+
188.051	4	C11H7FNO+
188.0746	3	C11H9FN2+
189.0461	51	C10H6FN2O+
189.0825	12	C11H10FN2+
190.0539	5	C10H7FN2O+
190.0664	1	C11H9FNO+
190.0903	1	C11H11FN2+
191.0617	22	C10H8FN2O+
193.0762	1	C13H9N2+
195.0918	1	C13H11N2+
197.0711	2	C12H9N2O+
198.0663	2	C11H8N3O+
200.0751	1	C12H9FN2+
201.059	3	C12H8FNO+
201.0825	9	C12H10FN2+
202.03	1	C11H5FNO2+
202.0538	4	C11H7FN2O+
202.0665	10	C12H9FNO+
202.0903	5	C12H11FN2+
203.0618	98	C11H8FN2O+
204.0696	31	C11H9FN2O+
205.0774	45	C11H10FN2O+
209.0714	1	C13H9N2O+
212.0816	2	C12H10N3O+
215.0253	3	C11H4FN2O2+
215.0618	9	C12H8FN2O+
215.0981	6	C13H12FN2+
216.0331	2	C11H5FN2O2+
216.0695	5	C12H9FN2O+
216.1057	3	C13H13FN2+
217.0411	5	C11H6FN2O2+
217.0775	10	C12H10FN2O+
217.0897	1	C13H12FNO+
217.1137	3	C13H14FN2+
218.0489	8	C11H7FN2O2+
218.0852	1	C12H11FN2O+
219.0928	2	C12H12FN2O+
220.065	1	C11H9FN2O2+
223.0865	1	C14H11N2O+
224.046	2	C12H6N3O2+
224.0822	1	C13H10N3O+
225.0537	3	C14H9O3+
225.0656	2	C13H9N2O2+
225.1023	2	C14H13N2O+
226.0973	2	C13H12N3O+
227.0984	2	C14H12FN2+
229.0774	16	C13H10FN2O+
230.049	2	C12H7FN2O2+
230.0844	1	C13H11FN2O+
231.0566	999	C12H8FN2O2+
235.0641	3	C12H10FNO3+
238.0975	3	C14H12N3O+
243.0567	2	C13H8FN2O2+
243.0933	5	C14H12FN2O+
245.1087	26	C14H14FN2O+
249.0674	11	C12H10FN2O3+
252.0768	1	C14H10N3O2+
252.1136	1	C15H14N3O+
253.0856	1	C14H11N3O2+
257.1097	1	C15H14FN2O+
266.0929	3	C15H12N3O2+
271.0865	1	C15H12FN2O2+
272.083	1	C14H11FN3O2+
272.1198	2	C15H15FN3O+
274.0992	1	C14H13FN3O2+
286.1353	2	C16H17FN3O+
294.1236	5	C17H16N3O2+
312.1345	1	C17H18N3O3+
314.13	22	C17H17FN3O2+
332.1403	7	C17H19FN3O3+
