Mass spectrum: Tramadol N-Oxide; LC-ESI-QFT; MS2; CE: 30; R=35000; [M+H]+
Name: Tramadol N-Oxide
Name: 1-[(1R,2R)-2-hydroxy-2-(3-methoxyphenyl)cyclohexyl]-N,N-dimethylmethanamine oxide
Formula: C16H25NO3
Exact mass: 279.18344
SMILES: [O-][N+](C)(C)C[C@H]2CCCC[C@]2(O)c1cc(OC)ccc1
InChI: InChI=1S/C16H25NO3/c1-17(2,19)12-14-7-4-5-10-16(14,18)13-8-6-9-15(11-13)20-3/h6,8-9,11,14,18H,4-5,7,10,12H2,1-3H3/t14-,16+/m1/s1
Instrument: Q Exactive Plus Orbitrap Thermo Scientific
Instrument type: LC-ESI-QFT
Ms type: MS2
Ion mode: POSITIVE
Ionization: ESI
Fragmentation mode: HCD
Collision energy: 30 (nominal)
Resolution: 35000
Column name: XBridge C18 3.5um, 2.1x50mm, Waters
Retention time: 5.1 min
Base peak: 280.1904
Precursor m/z: 280.1907
Precursor type: [M+H]+
m/z	relative intensity	assigned
58.0651	535	C3H8N+
62.06	5	C2H8NO+
72.0807	1	C4H10N+
74.06	26	C3H8NO+
81.0699	1	C6H9+
82.065	1	C5H8N+
93.0699	1	C7H9+
107.0493	1	C7H7O+
109.0647	3	C7H9O+
110.0964	107	C7H12N+
111.0803	1	C7H11O+
121.0647	20	C8H9O+
125.0597	1	C7H9O2+
126.1276	3	C8H16N+
135.044	427	C8H7O2+
137.0596	4	C8H9O2+
145.0646	1	C10H9O+
147.0803	4	C10H11O+
159.0804	15	C11H11O+
173.0965	3	C12H13O+
189.1271	2	C13H17O+
191.1065	17	C12H15O2+
199.1114	2	C14H15O+
201.1273	164	C14H17O+
217.1221	5	C14H17O2+
219.1378	6	C14H19O2+
244.1691	1	C16H22NO+
262.1801	999	C16H24NO2+
280.1906	583	C16H26NO3+
