Mass spectrum: Bifenazate-Diazene; LC-ESI-QFT; MS2; CE: 75%; R=17500; [M+H]+
Name: Bifenazate-Diazene
Name: propan-2-yl N-(2-methoxy-5-phenylphenyl)iminocarbamate
Formula: C17H18N2O3
Exact mass: 298.1317
SMILES: CC(C)OC(=O)N=NC1=C(C=CC(=C1)C2=CC=CC=C2)OC
InChI: InChI=1S/C17H18N2O3/c1-12(2)22-17(20)19-18-15-11-14(9-10-16(15)21-3)13-7-5-4-6-8-13/h4-12H,1-3H3
Instrument: Exploris 240 Orbitrap Thermo Scientific
Instrument type: LC-ESI-QFT
Ms type: MS2
Ion mode: POSITIVE
Ionization: ESI
Fragmentation mode: HCD
Collision energy: 75 % (nominal)
Resolution: 17500
Column name: XBridge C18 3.5um, 2.1x50mm, Waters
Retention time: 12.068 min
Base peak: 299.1387
Precursor m/z: 299.139
Precursor type: [M+H]+
m/z	relative intensity	assigned
115.0547	34	C9H7+
128.0616	73	C10H8+
129.0702	31	C10H9+
141.0698	178	C11H9+
152.0619	346	C12H8+
153.07	146	C12H9+
154.0783	18	C12H10+
155.086	20	C12H11+
156.0808	470	C11H10N+
169.0646	313	C12H9O+
170.0728	35	C12H10O+
196.0756	999	C13H10NO+
197.0838	66	C13H11NO+
