Mass spectrum: 8phiC8SPC; LC-ESI-QFT; MS2; CE: 120; R=35000; [M-H]-
Name: 8phiC8SPC
Name: Octacarboxy sulfophenyl carboxylic acid
Name: 8-(4-sulfophenyl)octanoic acid
Formula: C14H20O5S
Exact mass: 300.10314
SMILES: OS(=O)(=O)c1ccc(CCCCCCCC(=O)O)cc1
InChI: InChI=1S/C14H20O5S/c15-14(16)7-5-3-1-2-4-6-12-8-10-13(11-9-12)20(17,18)19/h8-11H,1-7H2,(H,15,16)(H,17,18,19)
Instrument: Q Exactive Plus Orbitrap Thermo Scientific
Instrument type: LC-ESI-QFT
Ms type: MS2
Ion mode: NEGATIVE
Ionization: ESI
Fragmentation mode: HCD
Collision energy: 120 (nominal)
Resolution: 35000
Column name: XBridge C18 3.5um, 2.1x50mm, Waters
Retention time: 8.0 min
Base peak: 299.0956
Precursor m/z: 299.0959
Precursor type: [M-H]-
m/z	relative intensity	assigned
63.9625	87	O2S-
79.9574	999	O3S-
80.9652	22	HO3S-
93.0346	5	C6H5O-
95.0141	1	C5H3O2-
106.0425	1	C7H6O-
119.0503	114	C8H7O-
133.0659	2	C9H9O-
155.9888	15	C6H4O3S-
170.0044	73	C7H6O3S-
183.0121	56	C8H7O3S-
201.9947	1	C7H6O5S-
