Mass spectrum: Carisoprodol; LC-ESI-QFT; MS2; CE: 45; R=35000; [M+H]+
Name: Carisoprodol
Name: [2-(carbamoyloxymethyl)-2-methylpentyl] N-propan-2-ylcarbamate
Formula: C12H24N2O4
Exact mass: 260.17361
SMILES: CCCC(C)(COC(=O)N)COC(=O)NC(C)C
InChI: InChI=1S/C12H24N2O4/c1-5-6-12(4,7-17-10(13)15)8-18-11(16)14-9(2)3/h9H,5-8H2,1-4H3,(H2,13,15)(H,14,16)
Instrument: Q Exactive Orbitrap Thermo Scientific
Instrument type: LC-ESI-QFT
Ms type: MS2
Ion mode: POSITIVE
Ionization: ESI
Fragmentation mode: HCD
Collision energy: 45 (nominal)
Resolution: 35000
Column name: XBridge C18 3.5um, 2.1x50mm, Waters
Retention time: 8.8 min
Base peak: 261.1812
Precursor m/z: 261.1809
Precursor type: [M+H]+
m/z	relative intensity	assigned
53.0387	6	C4H5+
55.0543	23	C4H7+
59.0493	46	C3H7O+
62.0237	999	CH4NO2+
67.0542	1	C5H7+
69.0699	154	C5H9+
71.0856	23	C5H11+
73.0649	19	C4H9O+
86.0601	13	C4H8NO+
97.1013	724	C7H13+
104.0707	103	C4H10NO2+
115.1118	83	C7H15O+
158.1178	66	C8H16NO2+
176.1284	6	C8H18NO3+
200.1647	33	C11H22NO2+
