Mass spectrum: Chloramphenicol; LC-ESI-QFT; MS2; CE: 60; R=35000; [M-H]-
Name: Chloramphenicol
Name: CLM
Name: 2,2-bis(chloranyl)-N-[(1R,2R)-1-(4-nitrophenyl)-1,3-bis(oxidanyl)propan-2-yl]ethanamide
Formula: C11H12Cl2N2O5
Exact mass: 322.01233
SMILES: c1cc(ccc1[C@H]([C@@H](CO)NC(=O)C(Cl)Cl)O)[N+](=O)[O-]
InChI: InChI=1S/C11H12Cl2N2O5/c12-10(13)11(18)14-8(5-16)9(17)6-1-3-7(4-2-6)15(19)20/h1-4,8-10,16-17H,5H2,(H,14,18)/t8-,9-/m1/s1
Instrument: Q Exactive Orbitrap Thermo Scientific
Instrument type: LC-ESI-QFT
Ms type: MS2
Ion mode: NEGATIVE
Ionization: ESI
Fragmentation mode: HCD
Collision energy: 60 (nominal)
Resolution: 35000
Column name: XBridge C18 3.5um, 2.1x50mm, Waters
Retention time: 5.8 min
Base peak: 321.0054
Precursor m/z: 321.0051
Precursor type: [M-H]-
m/z	relative intensity	assigned
65.9987	2	C3NO-
70.9461	5	Cl2H-
71.0139	3	C3H3O2-
78.0349	147	C5H4N-
79.019	11	C5H3O-
82.9461	153	CHCl2-
84.0091	37	C3H2NO2-
86.0248	4	C3H4NO2-
90.0348	2	C6H4N-
92.0267	3	C6H4O-
93.0347	12	C6H5O-
98.0248	3	C4H4NO2-
105.0221	16	C6H3NO-
105.0347	3	C7H5O-
106.0299	26	C6H4NO-
117.0347	14	C8H5O-
118.0426	5	C8H6O-
121.0296	999	C7H5O2-
122.0249	48	C6H4NO2-
123.0324	5	C6H5NO2-
124.0405	13	C6H6NO2-
126.9359	18	C2HCl2O2-
135.0327	29	C7H5NO2-
136.0402	11	C7H6NO2-
146.0373	4	C9H6O2-
148.0406	68	C8H6NO2-
150.0196	4	C7H4NO3-
151.0275	540	C7H5NO3-
152.0353	505	C7H6NO3-
159.0326	34	C9H5NO2-
161.0358	11	C8H5N2O2-
162.0197	15	C8H4NO3-
176.0348	19	C9H6NO3-
179.0461	11	C8H7N2O3-
