Mass spectrum: Oxytetracycline; LC-ESI-QFT; MS2; CE: 180; R=35000; [M+H]+
Name: Oxytetracycline
Name: (4S,4aR,5S,5aR,6S,12aS)-4-(Dimethylamino)-3,5,6,10,12,12a-hexahydroxy-6-methyl-1,11-dioxo-1,4,4a,5,5a,6,11,12a-octahydro-2-tetracenecarboxamide
Name: 2-carbamoyl-4-(dimethylazaniumyl)-5,6,10,11,12a-pentahydroxy-6-methyl-3,12-dioxo-4,4a,5,5a-tetrahydrotetracen-1-olate
Formula: C22H24N2O9
Exact mass: 460.14818
SMILES: CC1(C2C(C3C(C(=O)C(=C(C3(C(=O)C2=C(C4=C1C=CC=C4O)O)O)O)C(=O)N)N(C)C)O)O
InChI: InChI=1S/C22H24N2O9/c1-21(32)7-5-4-6-8(25)9(7)15(26)10-12(21)17(28)13-14(24(2)3)16(27)11(20(23)31)19(30)22(13,33)18(10)29/h4-6,12-14,17,25-26,28,30,32-33H,1-3H3,(H2,23,31)
Instrument: Q Exactive Plus Orbitrap Thermo Scientific
Instrument type: LC-ESI-QFT
Ms type: MS2
Ion mode: POSITIVE
Ionization: ESI
Fragmentation mode: HCD
Collision energy: 180 (nominal)
Resolution: 35000
Column name: XBridge C18 3.5um, 2.1x50mm, Waters
Retention time: 4.3 min
Base peak: 461.1547
Precursor m/z: 461.1555
Precursor type: [M+H]+
m/z	relative intensity	assigned
50.0151	200	C4H2+
51.023	133	C4H3+
52.0308	7	C4H4+
53.0022	81	C3HO+
53.0386	190	C4H5+
54.0339	44	C3H4N+
55.0179	90	C3H3O+
55.0417	58	C3H5N+
56.0495	22	C3H6N+
58.0652	113	C3H8N+
61.0073	18	C5H+
62.0151	82	C5H2+
63.023	351	C5H3+
64.0308	14	C5H4+
65.0386	319	C5H5+
66.01	11	C4H2O+
66.0339	10	C4H4N+
66.0464	10	C5H6+
67.0179	8	C4H3O+
67.0416	13	C4H5N+
67.0541	3	C5H7+
68.0257	2	C4H4O+
68.0495	12	C4H6N+
68.9971	225	C3HO2+
70.0652	15	C4H8N+
71.0127	8	C3H3O2+
74.0151	132	C6H2+
75.0229	443	C6H3+
76.0307	183	C6H4+
77.0021	14	C5HO+
77.0386	272	C6H5+
78.0464	363	C6H6+
79.0178	9	C5H3O+
79.0543	4	C6H7+
80.0495	14	C5H6N+
81.0335	40	C5H5O+
82.0287	2	C4H4NO+
82.0651	4	C5H8N+
83.0366	17	C4H5NO+
86.0151	41	C7H2+
87.023	108	C7H3+
88.0308	62	C7H4+
89.0386	359	C7H5+
90.0465	25	C7H6+
91.0543	280	C7H7+
92.0259	13	C6H4O+
94.0415	8	C6H6O+
94.0652	3	C6H8N+
95.0492	612	C6H7O+
96.0445	2	C5H6NO+
98.0152	36	C8H2+
98.0602	8	C5H8NO+
99.023	44	C8H3+
100.0307	22	C8H4+
101.0387	75	C8H5+
102.0465	946	C8H6+
103.0543	98	C8H7+
105.0448	426	C6H5N2+
107.0492	2	C7H7O+
113.0386	247	C9H5+
114.0465	43	C9H6+
115.0543	999	C9H7+
116.0621	27	C9H8+
117.0334	1	C8H5O+
117.0699	9	C9H9+
118.0411	20	C8H6O+
119.0493	40	C8H7O+
120.0206	10	C7H4O2+
125.0386	35	C10H5+
126.0465	609	C10H6+
127.0543	385	C10H7+
128.0621	775	C10H8+
129.0338	7	C9H5O+
129.0447	143	C8H5N2+
129.0699	8	C10H9+
131.0493	37	C9H7O+
132.057	26	C9H8O+
137.0387	62	C11H5+
138.0465	30	C11H6+
139.0543	903	C11H7+
140.062	21	C11H8+
141.0334	3	C10H5O+
141.07	20	C11H9+
142.0416	3	C10H6O+
143.0493	10	C10H7O+
144.057	7	C10H8O+
145.0649	131	C10H9O+
149.0389	10	C12H5+
150.0465	222	C12H6+
151.0544	40	C12H7+
152.0621	367	C12H8+
153.0699	20	C12H9+
155.0497	94	C11H7O+
155.0604	307	C10H7N2+
156.0571	11	C11H8O+
158.0368	2	C10H6O2+
161.0388	18	C13H5+
162.0464	26	C13H6+
163.0543	263	C13H7+
164.0622	39	C13H8+
165.07	95	C13H9+
167.0493	2	C12H7O+
168.057	47	C12H8O+
169.0649	161	C12H9O+
170.0365	7	C11H6O2+
174.0466	13	C14H6+
175.0543	3	C14H7+
176.0622	66	C14H8+
177.0698	3	C14H9+
178.0778	8	C14H10+
179.0605	58	C12H7N2+
181.0652	3	C13H9O+
183.0442	7	C12H7O2+
185.0597	8	C12H9O2+
187.0543	38	C15H7+
188.0617	2	C15H8+
189.0703	15	C15H9+
193.0651	2	C14H9O+
194.0364	10	C13H6O2+
196.0519	11	C13H8O2+
