Mass spectrum: Atenolol-desisopropyl; LC-ESI-QFT; MS2; CE: 75; R=35000; [M+H]+
Name: Atenolol-desisopropyl
Name: 4-(3-Amino-2-hydroxypropoxy)phenylacetamide
Formula: C11H16N2O3
Exact mass: 224.11609
SMILES: c1cc(ccc1CC(=O)N)OCC(CN)O
InChI: InChI=1S/C11H16N2O3/c12-6-9(14)7-16-10-3-1-8(2-4-10)5-11(13)15/h1-4,9,14H,5-7,12H2,(H2,13,15)
Instrument: Q Exactive Plus Orbitrap Thermo Scientific
Instrument type: LC-ESI-QFT
Ms type: MS2
Ion mode: POSITIVE
Ionization: ESI
Fragmentation mode: HCD
Collision energy: 75 (nominal)
Resolution: 35000
Column name: XBridge C18 3.5um, 2.1x50mm, Waters
Retention time: 1.0 min
Base peak: 225.1233
Precursor m/z: 225.1234
Precursor type: [M+H]+
m/z	relative intensity	assigned
50.015	1	C4H2+
51.0228	1	C4H3+
53.0386	8	C4H5+
54.0338	1	C3H4N+
55.0179	8	C3H3O+
56.0495	661	C3H6N+
57.0335	13	C3H5O+
58.0652	2	C3H8N+
63.0228	2	C5H3+
65.0385	10	C5H5+
67.0542	1	C5H7+
74.06	653	C3H8NO+
77.0385	17	C6H5+
78.0464	1	C6H6+
79.0542	105	C6H7+
80.0494	1	C5H6N+
89.0386	137	C7H5+
91.0543	307	C7H7+
93.0699	115	C7H9+
94.0651	13	C6H8N+
95.0492	27	C6H7O+
103.0542	37	C8H7+
104.0621	2	C8H8+
105.0448	17	C6H5N2+
105.0699	209	C8H9+
106.0652	148	C7H8N+
107.0491	306	C7H7O+
108.0807	3	C7H10N+
109.0648	1	C7H9O+
115.0543	182	C9H7+
116.0495	33	C8H6N+
116.062	5	C9H8+
117.0335	34	C8H5O+
117.0574	16	C8H7N+
117.0699	230	C9H9+
118.0413	1	C8H6O+
119.0492	137	C8H7O+
121.0648	112	C8H9O+
122.06	30	C7H8NO+
127.0542	5	C10H7+
128.0621	1	C10H8+
131.0492	19	C9H7O+
132.0569	3	C9H8O+
133.0648	661	C9H9O+
134.06	156	C8H8NO+
135.0441	19	C8H7O2+
135.0552	5	C7H7N2O+
136.0757	5	C8H10NO+
137.0598	7	C8H9O2+
143.0732	1	C10H9N+
144.0569	17	C10H8O+
144.0808	10	C10H10N+
145.0649	999	C10H9O+
146.0725	1	C10H10O+
147.0441	46	C9H7O2+
147.0804	4	C10H11O+
152.0707	13	C8H10NO2+
155.0604	28	C10H7N2+
161.0597	3	C10H9O2+
162.0662	49	C8H8N3O+
162.0915	11	C10H12NO+
163.0753	5	C10H11O2+
164.0706	9	C9H10NO2+
173.0599	6	C11H9O2+
178.0864	11	C10H12NO2+
182.0813	1	C9H12NO3+
190.0863	6	C11H12NO2+
