Mass spectrum: Methiocarb-sulfoxide; LC-ESI-ITFT; MS2; CE: 60%; R=7500; [M+H]+
Name: Methiocarb-sulfoxide
Name: Mesurol sulfoxide
Name: (3,5-dimethyl-4-methylsulfinyl-phenyl) N-methylcarbamate
Formula: C11H15NO3S
Exact mass: 241.0773
SMILES: O=C(Oc1cc(c(c(c1)C)S(=O)C)C)NC
InChI: InChI=1S/C11H15NO3S/c1-7-5-9(15-11(13)12-3)6-8(2)10(7)16(4)14/h5-6H,1-4H3,(H,12,13)
Instrument: LTQ Orbitrap XL Thermo Scientific
Instrument type: LC-ESI-ITFT
Ms type: MS2
Ion mode: POSITIVE
Ionization: ESI
Fragmentation mode: HCD
Collision energy: 60 % (nominal)
Resolution: 7500
Column name: XBridge C18 3.5um, 2.1x50mm, Waters
Retention time: 4.9 min
Base peak: 242.0846
Precursor m/z: 242.0845
Precursor type: [M+H]+
m/z	relative intensity	assigned
79.0542	2	C6H7+
91.0543	5	C7H7+
93.0696	1	C7H9+
94.078	1	C7H10+
103.0542	2	C8H7+
107.0492	37	C7H7O+
108.0568	1	C7H8O+
109.0649	8	C7H9O+
121.0649	60	C8H9O+
122.0727	668	C8H10O+
123.0443	1	C7H7O2+
123.0808	3	C8H11O+
136.0884	12	C9H12O+
137.0598	6	C8H9O2+
138.0675	17	C8H10O2+
141.0372	4	C7H9OS+
152.0291	20	C8H8OS+
153.0369	122	C8H9OS+
168.0604	640	C9H12OS+
170.0397	999	C8H10O2S+
185.063	561	C9H13O2S+
