Mass spectrum: Trimethoprim; LC-ESI-ITFT; MS2; CE: 60%; R=15000; [M+H]+
Name: Trimethoprim
Name: 2,4-Diamino-5-(3,4,5-trimethoxybenzyl)pyrimidine
Name: 5-[(3,4,5-trimethoxyphenyl)methyl]pyrimidine-2,4-diamine
Formula: C14H18N4O3
Exact mass: 290.1379
SMILES: c1(Cc2c(nc(N)nc2)N)cc(c(OC)c(c1)OC)OC
InChI: InChI=1S/C14H18N4O3/c1-19-10-5-8(6-11(20-2)12(10)21-3)4-9-7-17-14(16)18-13(9)15/h5-7H,4H2,1-3H3,(H4,15,16,17,18)
Instrument: LTQ Orbitrap XL Thermo Scientific
Instrument type: LC-ESI-ITFT
Ms type: MS2
Ion mode: POSITIVE
Ionization: ESI
Fragmentation mode: HCD
Collision energy: 60 % (nominal)
Resolution: 15000
Column name: XBridge C18 3.5um, 2.1x50mm, Waters
Retention time: 3.8 min
Base peak: 291.1463
Precursor m/z: 291.1452
Precursor type: [M+H]+
m/z	relative intensity	assigned
81.0448	51	C4H5N2+
110.0587	78	C4H6N4+
111.0666	43	C4H7N4+
120.057	7	C8H8O+
123.0666	576	C5H7N4+
124.0745	27	C5H8N4+
137.0596	5	C8H9O2+
149.0818	7	C7H9N4+
151.039	16	C8H7O3+
161.0824	8	C8H9N4+
174.0664	7	C9H8N3O+
181.086	28	C10H13O3+
187.0979	52	C10H11N4+
191.0928	11	C9H11N4O+
198.0653	4	C11H8N3O+
200.1057	17	C11H12N4+
201.0784	26	C12H11NO2+
201.1135	98	C11H13N4+
202.1214	70	C11H14N4+
203.0925	5	C10H11N4O+
213.1125	6	C12H13N4+
215.0926	23	C11H11N4O+
216.1005	17	C11H12N4O+
217.1086	35	C11H13N4O+
229.1085	214	C12H13N4O+
230.1163	572	C12H14N4O+
231.0875	9	C11H11N4O2+
232.0955	47	C11H12N4O2+
233.1034	192	C11H13N4O2+
244.0719	11	C12H10N3O3+
245.1034	411	C12H13N4O2+
246.1111	43	C12H14N4O2+
247.0826	15	C11H11N4O3+
247.119	111	C12H15N4O2+
257.1034	375	C13H13N4O2+
258.1111	25	C13H14N4O2+
259.0827	27	C12H11N4O3+
259.1194	15	C13H15N4O2+
261.0984	999	C12H13N4O3+
275.114	650	C13H15N4O3+
291.1458	118	C14H19N4O3+
