Mass spectrum: Ranitidine N-oxide; LC-ESI-ITFT; MS2; CE: 45%; R=15000; [M+H]+
Name: Ranitidine N-oxide
Name: 1,1-Ethenediamine, N-(2-(((5-((dimethylamino)methyl)-2-furanyl)methyl)thio)ethyl)-N'-methyl-2-nitro-, N-oxide
Formula: C13H22N4O4S
Exact mass: 330.1362
SMILES: c1(oc(CSCCN\C(=C\[N+](=O)[O-])NC)cc1)CN(C)(C)=O
InChI: InChI=1S/C13H22N4O4S/c1-14-13(8-16(18)19)15-6-7-22-10-12-5-4-11(21-12)9-17(2,3)20/h4-5,8,14-15H,6-7,9-10H2,1-3H3/b13-8+
Instrument: LTQ Orbitrap XL Thermo Scientific
Instrument type: LC-ESI-ITFT
Ms type: MS2
Ion mode: POSITIVE
Ionization: ESI
Fragmentation mode: HCD
Collision energy: 45 % (nominal)
Resolution: 15000
Column name: XBridge C18 3.5um, 2.1x50mm, Waters
Retention time: 2.4 min
Base peak: 331.1444
Precursor m/z: 331.1435
Precursor type: [M+H]+
m/z	relative intensity	assigned
55.0417	21	C3H5N+
56.0494	19	C3H6N+
81.0335	174	C5H5O+
83.0602	44	C4H7N2+
84.0682	29	C4H8N2+
88.0214	33	C3H6NS+
95.0491	61	C6H7O+
97.076	232	C5H9N2+
98.0838	467	C5H10N2+
101.0293	21	C4H7NS+
102.0372	930	C4H8NS+
110.0602	19	C6H8NO+
115.0324	25	C4H7N2S+
117.0484	15	C4H9N2S+
118.0319	26	C4H8NOS+
124.0757	132	C7H10NO+
125.0056	999	C6H5OS+
129.0479	34	C5H9N2S+
130.0559	635	C5H10N2S+
131.064	27	C5H11N2S+
135.0917	49	C8H11N2+
144.0766	46	C5H10N3O2+
145.0431	25	C5H9N2OS+
147.0589	22	C5H11N2OS+
148.0757	86	C9H10NO+
153.0369	39	C8H9OS+
163.0863	25	C9H11N2O+
164.0944	71	C9H12N2O+
165.1022	214	C9H13N2O+
167.0636	54	C8H11N2S+
170.0634	61	C8H12NOS+
176.0487	917	C5H10N3O2S+
177.1021	87	C10H13N2O+
178.1102	38	C10H14N2O+
181.0792	154	C9H13N2S+
191.1178	364	C11H15N2O+
192.048	28	C10H10NOS+
193.0554	78	C10H11NOS+
223.0903	27	C11H15N2OS+
224.0977	122	C11H16N2OS+
270.0963	18	C10H14N4O5+
