Mass spectrum: Pramoxine; LC-ESI-QFT; MS2; CE: 15; R=35000; [M+H]+
Name: Pramoxine
Name: 4-[3-(4-butoxyphenoxy)propyl]morpholine
Formula: C17H27NO3
Exact mass: 293.19909
SMILES: CCCCOC1=CC=C(C=C1)OCCCN2CCOCC2
InChI: InChI=1S/C17H27NO3/c1-2-3-12-20-16-5-7-17(8-6-16)21-13-4-9-18-10-14-19-15-11-18/h5-8H,2-4,9-15H2,1H3
Instrument: Q Exactive Plus Orbitrap Thermo Scientific
Instrument type: LC-ESI-QFT
Ms type: MS2
Ion mode: POSITIVE
Ionization: ESI
Fragmentation mode: HCD
Collision energy: 15 (nominal)
Resolution: 35000
Column name: XBridge C18 3.5um, 2.1x50mm, Waters
Retention time: 7.3 min
Base peak: 294.206
Precursor m/z: 294.2064
Precursor type: [M+H]+
m/z	relative intensity	assigned
100.0756	3	C5H10NO+
128.1069	2	C7H14NO+
294.2062	999	C17H28NO3+
