Mass spectrum: Dialifos; LC-ESI-QFT; MS2; CE: 90%; R=17500; [M+H]+
Name: Dialifos
Name: Dialifor
Name: 2-(2-chloro-1-diethoxyphosphinothioylsulfanylethyl)isoindole-1,3-dione
Formula: C14H17ClNO4PS2
Exact mass: 393.0025
SMILES: CCOP(=S)(OCC)SC(CCl)N1C(=O)C2=CC=CC=C2C1=O
InChI: InChI=1S/C14H17ClNO4PS2/c1-3-19-21(22,20-4-2)23-12(9-15)16-13(17)10-7-5-6-8-11(10)14(16)18/h5-8,12H,3-4,9H2,1-2H3
Instrument: Exploris 240 Orbitrap Thermo Scientific
Instrument type: LC-ESI-QFT
Ms type: MS2
Ion mode: POSITIVE
Ionization: ESI
Fragmentation mode: HCD
Collision energy: 90 % (nominal)
Resolution: 17500
Column name: XBridge C18 3.5um, 2.1x50mm, Waters
Retention time: 11.982 min
Base peak: 439.042
Precursor m/z: 394.0098
Precursor type: [M+H]+
m/z	relative intensity	assigned
51.0229	19	C4H3+
60.9839	580	C2H2Cl+
64.0306	81	C5H4+
64.9786	82	H2O2P+
65.0386	24	C5H5+
66.0466	23	C5H6+
75.023	47	C6H3+
76.0307	51	C6H4+
77.0386	47	C6H5+
78.9401	88	OPS+
89.0385	999	C7H5+
90.0463	34	C7H6+
94.9174	62	PS2+
96.9507	972	H2O2PS+
102.0336	97	C7H4N+
102.0467	51	C4H9NP+
104.0256	307	C7H4O+
105.0336	152	C7H5O+
110.9662	48	CH4O2PS+
112.9281	82	CH2ClS2+
114.9612	505	H4O3PS+
116.0494	353	C8H6N+
117.0332	76	C8H5O+
117.0568	76	C8H7N+
120.044	44	C7H6NO+
125.0151	361	C6H6OP+
128.9772	21	C2H6ClO2S+
130.0287	690	C8H4NO+
130.9383	93	H4O2PS2+
137.0152	27	C8H6Cl+
139.006	108	C3H7O4S+
144.0442	142	C9H6NO+
145.0285	35	C9H5O2+
145.0523	62	C9H7NO+
172.0394	60	C10H6NO2+
181.0052	110	C9H6ClO2+
