Mass spectrum: Meperidine; LC-ESI-QFT; MS2; CE: 45; R=35000; [M+H]+
Name: Meperidine
Name: ethyl 1-methyl-4-phenylpiperidine-4-carboxylate
Formula: C15H21NO2
Exact mass: 247.15723
SMILES: CCOC(=O)C1(CCN(CC1)C)C2=CC=CC=C2
InChI: InChI=1S/C15H21NO2/c1-3-18-14(17)15(9-11-16(2)12-10-15)13-7-5-4-6-8-13/h4-8H,3,9-12H2,1-2H3
Instrument: Q Exactive Orbitrap Thermo Scientific
Instrument type: LC-ESI-QFT
Ms type: MS2
Ion mode: POSITIVE
Ionization: ESI
Fragmentation mode: HCD
Collision energy: 45 (nominal)
Resolution: 35000
Column name: XBridge C18 3.5um, 2.1x50mm, Waters
Retention time: 5.4 min
Base peak: 248.1647
Precursor m/z: 248.1645
Precursor type: [M+H]+
m/z	relative intensity	assigned
70.0651	230	C4H8N+
82.0651	1	C5H8N+
83.073	1	C5H9N+
91.0541	9	C7H7+
96.0807	6	C6H10N+
97.0886	4	C6H11N+
98.0965	11	C6H12N+
99.0441	7	C5H7O2+
103.0541	7	C8H7+
105.0699	4	C8H9+
117.07	10	C9H9+
127.0753	2	C7H11O2+
129.0695	1	C10H9+
131.0856	35	C10H11+
143.0857	4	C11H11+
145.065	7	C10H9O+
145.1012	16	C11H13+
158.0965	3	C11H12N+
159.1042	1	C11H13N+
172.1123	4	C12H14N+
174.1278	745	C12H16N+
175.1355	4	C12H17N+
176.1434	31	C12H18N+
184.1122	13	C13H14N+
202.1227	55	C13H16NO+
220.1333	999	C13H18NO2+
230.1541	1	C15H20NO+
246.1495	3	C15H20NO2+
248.1646	845	C15H22NO2+
