Mass spectrum: Cycloxaprid; LC-ESI-QFT; MS2; CE: 45%; R=17500; [M+H]+
Name: Cycloxaprid
Name: 1-((6-chloropyridin-3-yl)methyl)-9-nitro-2,3,5,6,7,8-hexahydro-1H-5,8-epoxyimidazo[1,2-a]azepine
Name: 5-[(6-chloropyridin-3-yl)methyl]-7-nitro-11-oxa-2,5-diazatricyclo[6.2.1.02,6]undec-6-ene
Formula: C14H15ClN4O3
Exact mass: 322.0833
SMILES: C1CC2N3CCN(C3=C(C1O2)[N+](=O)[O-])CC4=CN=C(C=C4)Cl
InChI: InChI=1S/C14H15ClN4O3/c15-11-3-1-9(7-16-11)8-17-5-6-18-12-4-2-10(22-12)13(14(17)18)19(20)21/h1,3,7,10,12H,2,4-6,8H2
Instrument: Exploris 240 Orbitrap Thermo Scientific
Instrument type: LC-ESI-QFT
Ms type: MS2
Ion mode: POSITIVE
Ionization: ESI
Fragmentation mode: HCD
Collision energy: 45 % (nominal)
Resolution: 17500
Column name: XBridge C18 3.5um, 2.1x50mm, Waters
Retention time: 2.935 min
Base peak: 323.0906
Precursor m/z: 323.0905
Precursor type: [M+H]+
m/z	relative intensity	assigned
82.0652	45	C5H8N+
84.0682	11	C4H8N2+
94.0653	37	C6H8N+
95.073	52	C6H9N+
107.0732	70	C7H9N+
108.081	17	C7H10N+
109.0885	150	C7H11N+
123.0917	193	C7H11N2+
126.0106	188	C6H5ClN+
136.0873	10	C7H10N3+
138.0668	15	C3H11ClN4+
138.1025	11	C7H12N3+
151.0866	963	C8H11N2O+
155.0374	14	C7H8ClN2+
166.0979	18	C5H15ClN4+
169.0527	16	C8H10ClN2+
182.0926	27	C5H15ClN4O+
192.0327	26	C9H7ClN3+
194.0483	13	C9H9ClN3+
207.0563	29	C10H10ClN3+
214.134	31	C13H16N3+
220.0637	159	C11H11ClN3+
234.0794	139	C12H13ClN3+
242.1292	39	C14H16N3O+
248.0591	426	C14H13ClO2+
248.0954	476	C13H15ClN3+
249.1025	206	C13H16ClN3+
262.0741	79	C13H13ClN3O+
276.09	999	C14H15ClN3O+
277.0979	270	C14H16ClN3O+
289.0846	65	C14H14ClN4O+
323.0917	16	C14H16ClN4O3+
