Mass spectrum: Pinoxaden-TP NOA 407854; LC-ESI-QFT; MS2; CE: 45%; R=17500; [M-H]-
Name: Pinoxaden-TP NOA 407854
Name: 8-(2,6-Diethyl-4-methylphenyl)tetrahydropyrazolo(1,2-d)(1,4,5)oxadiazepine-7,9-dione
Formula: C18H24N2O3
Exact mass: 316.1787
SMILES: CCC1=CC(C)=CC(CC)=C1C1C(=O)N2CCOCCN2C1=O
InChI: InChI=1S/C18H24N2O3/c1-4-13-10-12(3)11-14(5-2)15(13)16-17(21)19-6-8-23-9-7-20(19)18(16)22/h10-11,16H,4-9H2,1-3H3
Instrument: Q Exactive Plus Orbitrap Thermo Scientific
Instrument type: LC-ESI-QFT
Ms type: MS2
Ion mode: NEGATIVE
Ionization: ESI
Fragmentation mode: HCD
Collision energy: 45 % (nominal)
Resolution: 17500
Column name: XBridge C18 3.5um, 2.1x50mm, Waters
Retention time: 7.157 min
Base peak: 315.1715
Precursor m/z: 315.1714
Precursor type: [M-H]-
m/z	relative intensity	assigned
83.025	10	C3H3N2O-
84.0092	14	C3H2NO2-
127.0513	5	C5H7N2O2-
161.1335	2	C12H17-
171.1178	25	C13H15-
172.0894	70	C12H12O-
186.105	33	C13H14O-
186.1288	70	C13H16N-
187.1128	999	C13H15O-
200.1443	18	C14H18N-
212.1444	30	C15H18N-
213.1395	11	C14H17N2-
228.1397	10	C15H18NO-
253.1343	25	C16H17N2O-
257.1297	43	C15H17N2O2-
270.1374	323	C16H18N2O2-
271.1455	6	C16H19N2O2-
285.1605	6	C17H21N2O2-
289.1559	9	C16H21N2O3-
297.1605	7	C18H21N2O2-
315.1715	739	C18H23N2O3-
