Mass spectrum: Coumoxystrobin; LC-ESI-QFT; MS2; CE: 45%; R=17500; [M+H]+
Name: Coumoxystrobin
Name: methyl 2-[2-[(3-butyl-4-methyl-2-oxochromen-7-yl)oxymethyl]phenyl]-3-methoxyprop-2-enoate
Formula: C26H28O6
Exact mass: 436.1886
SMILES: CCCCC1=C(C2=C(C=C(C=C2)OCC3=CC=CC=C3C(=COC)C(=O)OC)OC1=O)C
InChI: InChI=1S/C26H28O6/c1-5-6-10-21-17(2)20-13-12-19(14-24(20)32-26(21)28)31-15-18-9-7-8-11-22(18)23(16-29-3)25(27)30-4/h7-9,11-14,16H,5-6,10,15H2,1-4H3
Instrument: Exploris 240 Orbitrap Thermo Scientific
Instrument type: LC-ESI-QFT
Ms type: MS2
Ion mode: POSITIVE
Ionization: ESI
Fragmentation mode: HCD
Collision energy: 45 % (nominal)
Resolution: 17500
Column name: XBridge C18 3.5um, 2.1x50mm, Waters
Retention time: 13.421 min
Base peak: 332.3312
Precursor m/z: 437.1959
Precursor type: [M+H]+
m/z	relative intensity	assigned
91.0542	6	C7H7+
115.0546	19	C9H7+
117.0699	54	C9H9+
129.0699	5	C10H9+
130.0418	5	C9H6O+
131.049	5	C9H7O+
131.0854	8	C10H11+
145.0648	999	C10H9O+
146.0725	17	C10H10O+
147.0808	7	C10H11O+
173.0597	16	C11H9O2+
177.0909	27	C11H13O2+
205.0855	5	C12H13O3+
259.0971	16	C15H15O4+
317.154	13	C22H21O2+
318.1618	11	C22H22O2+
345.1502	17	C23H21O3+
373.1436	4	C24H21O4+
377.1756	5	C24H25O4+
405.1716	11	C25H25O5+
