Mass spectrum: Chlorothalonil TP SYN548580; LC-ESI-QFT; MS2; CE: 45%; R=15000; [M-H]-
Name: Chlorothalonil TP SYN548580
Name: 2,4,5-trichloro-6-hydroxyisophthalamide
Formula: C8H5Cl3N2O3
Exact mass: 281.9366
SMILES: NC(=O)c1c(O)c(Cl)c(Cl)c(C(=O)N)c1Cl
InChI: InChI=1S/C8H5Cl3N2O3/c9-3-1(7(12)15)4(10)5(11)6(14)2(3)8(13)16/h14H,(H2,12,15)(H2,13,16)
Instrument: Orbitrap Exploris 240 Thermo Scientific
Instrument type: LC-ESI-QFT
Ms type: MS2
Ion mode: NEGATIVE
Ionization: ESI
Fragmentation mode: HCD
Collision energy: 45 % (nominal)
Resolution: 15000
Column name: Atlantis C18 3um, 3.0x150mm, Waters
Retention time: 9.709 min
Base peak: 280.929
Precursor m/z: 280.9293
Precursor type: [M-H]-
Precursor intensity: 50955176
m/z	relative intensity	assigned
65.9986	7	C3NO-
89.9983	3	C5NO-
97.98	14	C4HClN-
121.9801	80	C6HClN-
137.9749	17	C6HClNO-
158.9406	42	C6HCl2O-
165.9699	74	C7HClNO2-
194.9175	999	C6H2Cl3O-
201.9467	75	C7H2Cl2NO2-
219.9121	14	C7HCl3NO-
237.9234	849	C7H3Cl3NO2-
280.9291	9	C8H4Cl3N2O3-
