Mass spectrum: 2-Naphthalenesulfonic acid; LC-ESI-ITFT; MS2; CE: 45%; R=7500; [M+H]+
Name: 2-Naphthalenesulfonic acid
Name: 2-naphthalenesulfonic acid
Formula: C10H8O3S
Exact mass: 208.0194
SMILES: OS(C1=CC2=C(C=CC=C2)C=C1)(=O)=O
InChI: InChI=1S/C10H8O3S/c11-14(12,13)10-6-5-8-3-1-2-4-9(8)7-10/h1-7H,(H,11,12,13)
Instrument: LTQ Orbitrap XL Thermo Scientific
Instrument type: LC-ESI-ITFT
Ms type: MS2
Ion mode: POSITIVE
Ionization: ESI
Fragmentation mode: HCD
Collision energy: 45 % (nominal)
Resolution: 7500
Column name: XBridge C18 3.5um, 2.1x50mm, Waters
Retention time: 5.2 min
Base peak: 149.0023
Precursor m/z: 209.0267
Precursor type: [M+H]+
m/z	relative intensity	assigned
103.0542	17	C8H7+
127.0544	2	C10H7+
128.062	999	C10H8+
144.0564	2	C10H8O+
145.065	19	C10H9O+
155.0604	112	C10H7N2+
195.9904	2	C10N2O3+
209.0275	3	C10H9O3S+
