Mass spectrum: Ethiprole; LC-ESI-QFT; MS2; CE: 90%; R=17500; [M-H]-
Name: Ethiprole
Name: 5-amino-1-[2,6-dichloro-4-(trifluoromethyl)phenyl]-4-ethylsulfinylpyrazole-3-carbonitrile
Formula: C13H9Cl2F3N4OS
Exact mass: 395.9826
SMILES: CCS(=O)C1=C(N(N=C1C#N)C2=C(C=C(C=C2Cl)C(F)(F)F)Cl)N
InChI: InChI=1S/C13H9Cl2F3N4OS/c1-2-24(23)11-9(5-19)21-22(12(11)20)10-7(14)3-6(4-8(10)15)13(16,17)18/h3-4H,2,20H2,1H3
Instrument: Exploris 240 Orbitrap Thermo Scientific
Instrument type: LC-ESI-QFT
Ms type: MS2
Ion mode: NEGATIVE
Ionization: ESI
Fragmentation mode: HCD
Collision energy: 90 % (nominal)
Resolution: 17500
Column name: XBridge C18 3.5um, 2.1x50mm, Waters
Retention time: 8.805 min
Base peak: 394.9752
Precursor m/z: 394.9753
Precursor type: [M-H]-
m/z	relative intensity	assigned
50.0035	105	C3N-
57.9757	805	CNS-
77.0145	58	C4HN2-
81.9759	40	C3NS-
88.0006	39	C3F2N-
90.0102	22	C4N3-
98.0041	32	C7N-
113.0145	403	C7HN2-
143.0052	839	C2H8ClN2OS-
163.0114	999	C8HF2N2-
182.0098	89	C8HF3N2-
183.0176	829	C8H2F3N2-
203.9774	60	C3H8Cl2N3OS-
212.0075	54	C8HF3N3O-
217.9866	25	C8H2ClF3N2-
218.0101	31	C11HF3N2-
243.99	60	C9H2ClF3N3-
261.9586	56	C9H2ClF3N2S-
267.9893	158	C11H2ClF3N3-
271.9855	30	C12H6Cl2F2N-
