Mass spectrum: Azoxystrobin; LC-ESI-ITFT; MS2; CE: 90%; R=30000; [M+H]+
Name: Azoxystrobin
Name: Methyl (E)-2-[2-[6-(2-cyanophenoxy)pyrimidin-4-YL]oxyphenyl]-3-methoxy-prop-2-enoate
Formula: C22H17N3O5
Exact mass: 403.1168206
SMILES: CO/C=C(\C1=CC=CC=C1OC2=NC=NC(=C2)OC3=CC=CC=C3C#N)/C(=O)OC
InChI: InChI=1S/C22H17N3O5/c1-27-13-17(22(26)28-2)16-8-4-6-10-19(16)30-21-11-20(24-14-25-21)29-18-9-5-3-7-15(18)12-23/h3-11,13-14H,1-2H3/b17-13+
Instrument: LTQ Orbitrap XL Thermo Scientific
Instrument type: LC-ESI-ITFT
Ms type: MS2
Ion mode: POSITIVE
Ionization: ESI
Fragmentation mode: HCD
Collision energy: 90 % (nominal)
Resolution: 30000
Column name: XBridge C18 3.5um, 2.1x50mm, Waters
Retention time: 9.9 min
Base peak: 404.1245
Precursor m/z: 404.1241
Precursor type: [M+H]+
m/z	relative intensity	assigned
65.0386	3	C5H5+
68.997	10	C3HO2+
77.0385	32	C6H5+
78.0464	10	C6H6+
89.0386	93	C7H5+
91.0416	16	C6H5N+
91.0542	10	C7H7+
102.0338	14	C7H4N+
102.0465	5	C8H6+
103.0416	18	C7H5N+
103.0541	5	C8H7+
104.0495	87	C7H6N+
105.0335	21	C7H5O+
105.0447	14	C6H5N2+
105.0573	11	C7H7N+
106.0653	5	C7H8N+
107.0491	8	C7H7O+
114.0338	56	C8H4N+
115.0417	17	C8H5N+
115.0542	6	C9H7+
116.0495	92	C8H6N+
117.0335	12	C8H5O+
117.0573	15	C8H7N+
118.0413	13	C8H6O+
119.0365	26	C7H5NO+
120.0444	34	C7H6NO+
121.0647	4	C8H9O+
127.0416	43	C9H5N+
128.0494	67	C9H6N+
129.0336	17	C9H5O+
129.0447	133	C8H5N2+
130.0287	41	C8H4NO+
130.0399	162	C7H4N3+
131.049	5	C9H7O+
131.0604	5	C8H7N2+
132.0445	23	C8H6NO+
133.0284	20	C8H5O2+
133.0522	57	C8H7NO+
134.0362	15	C8H6O2+
134.06	57	C8H8NO+
140.0494	5	C10H6N+
141.0446	22	C9H5N2+
142.0525	8	C9H6N2+
143.0364	19	C9H5NO+
143.0603	27	C9H7N2+
144.0444	129	C9H6NO+
145.0283	9	C9H5O2+
145.0522	35	C9H7NO+
146.0236	22	C8H4NO2+
146.06	8	C9H8NO+
154.0289	7	C10H4NO+
154.0524	11	C10H6N2+
155.0366	8	C10H5NO+
155.0603	39	C10H7N2+
156.0444	473	C10H6NO+
157.0521	8	C10H7NO+
159.0314	6	C9H5NO2+
159.0553	4	C9H7N2O+
162.0314	6	C9H6O3+
169.0396	13	C10H5N2O+
170.0474	31	C10H6N2O+
171.0553	96	C10H7N2O+
172.0394	999	C10H6NO2+
181.0396	16	C11H5N2O+
182.0475	32	C11H6N2O+
183.0552	53	C11H7N2O+
197.0344	5	C11H5N2O2+
199.0501	52	C11H7N2O2+
200.0342	116	C11H6NO3+
204.081	4	C15H10N+
205.0764	6	C14H9N2+
210.0422	8	C12H6N2O2+
211.05	5	C12H7N2O2+
217.0762	5	C15H9N2+
218.0837	11	C15H10N2+
219.0679	5	C15H9NO+
229.0757	8	C16H9N2+
233.0709	10	C15H9N2O+
242.0322	5	C12H6N2O4+
244.0868	19	C16H10N3+
245.0708	34	C16H9N2O+
246.0785	7	C16H10N2O+
247.0864	3	C16H11N2O+
272.0816	52	C17H10N3O+
273.0654	18	C17H9N2O2+
274.0735	4	C17H10N2O2+
275.0807	5	C17H11N2O2+
300.0767	37	C18H10N3O2+
301.0848	5	C18H11N3O2+
328.0711	35	C19H10N3O3+
