Mass spectrum: Thiamphenicol; LC-ESI-QFT; MS2; CE: 30; R=35000; [M+H]+
Name: Thiamphenicol
Name: 2,2-dichloro-N-[1,3-dihydroxy-1-(4-methylsulfonylphenyl)propan-2-yl]acetamide
Formula: C12H15Cl2NO5S
Exact mass: 355.00480
SMILES: CS(=O)(=O)C1=CC=C(C=C1)C(C(CO)NC(=O)C(Cl)Cl)O
InChI: InChI=1S/C12H15Cl2NO5S/c1-21(19,20)8-4-2-7(3-5-8)10(17)9(6-16)15-12(18)11(13)14/h2-5,9-11,16-17H,6H2,1H3,(H,15,18)
Instrument: Q Exactive Plus Orbitrap Thermo Scientific
Instrument type: LC-ESI-QFT
Ms type: MS2
Ion mode: POSITIVE
Ionization: ESI
Fragmentation mode: HCD
Collision energy: 30 (nominal)
Resolution: 35000
Column name: XBridge C18 3.5um, 2.1x50mm, Waters
Retention time: 3.7 min
Base peak: 373.0381
Precursor m/z: 356.0121
Precursor type: [M+H]+
m/z	relative intensity	assigned
82.945	8	CHCl2+
91.0543	1	C7H7+
103.0542	2	C8H7+
107.0491	4	C7H7O+
115.0542	1	C9H7+
118.0647	2	C8H8N+
119.0491	2	C8H7O+
119.0726	3	C8H9N+
120.057	3	C8H8O+
127.9664	9	C2H4Cl2NO+
130.0653	1	C9H8N+
131.0492	3	C9H7O+
132.057	15	C9H8O+
133.0648	2	C9H9O+
139.9666	2	C3H4Cl2NO+
146.0601	36	C9H8NO+
150.0231	9	C9H7Cl+
155.026	2	C8H8ClO+
158.0602	1	C10H8NO+
169.0318	5	C8H9O2S+
170.0601	3	C11H8NO+
176.0263	3	C10H7ClN+
181.0316	3	C9H9O2S+
193.0289	4	C10H8ClNO+
197.0507	9	C9H11NO2S+
198.0584	280	C9H12NO2S+
199.0424	10	C9H11O3S+
206.0368	20	C11H9ClNO+
208.043	5	C10H10NO2S+
210.0584	9	C10H12NO2S+
211.0425	21	C10H11O3S+
212.0027	1	C10H8Cl2N+
217.0086	12	C9H10ClO2S+
227.9978	5	C10H8Cl2NO+
229.0057	566	C10H9Cl2NO+
230.0134	2	C10H10Cl2NO+
236.038	1	C11H10NO3S+
241.0057	205	C11H9Cl2NO+
244.0195	3	C10H11ClNO2S+
254.0036	4	C11H9ClNO2S+
272.0148	2	C11H11ClNO3S+
284.0147	2	C12H11ClNO3S+
289.9805	6	C11H10Cl2NO2S+
307.991	999	C11H12Cl2NO3S+
319.9908	7	C12H12Cl2NO3S+
326.0015	15	C11H14Cl2NO4S+
338.0019	6	C12H14Cl2NO4S+
340.0168	2	C12H16Cl2NO4S+
