Mass spectrum: Metribuzin-diketo; LC-ESI-ITFT; MS2; CE: 35%; R=7500; [M+H]+
Name: Metribuzin-diketo
Name: 4-amino-6-tert-butyl-2H-1,2,4-triazine-3,5-dione
Formula: C7H12N4O2
Exact mass: 184.0960
SMILES: O=C(NN=C1C(C)(C)C)N(N)C1=O
InChI: InChI=1S/C7H12N4O2/c1-7(2,3)4-5(12)11(8)6(13)10-9-4/h8H2,1-3H3,(H,10,13)
Instrument: LTQ Orbitrap XL Thermo Scientific
Instrument type: LC-ESI-ITFT
Ms type: MS2
Ion mode: POSITIVE
Ionization: ESI
Fragmentation mode: CID
Collision energy: 35 % (nominal)
Resolution: 7500
Column name: XBridge C18 3.5um, 2.1x50mm, Waters
Retention time: 5.9 min
Base peak: 185.1036
Precursor m/z: 185.1033
Precursor type: [M+H]+
m/z	relative intensity	assigned
57.0698	21	C4H9+
65.0385	1	C5H5+
67.0542	15	C5H7+
68.0494	5	C4H6N+
69.0699	87	C5H9+
70.0287	3	C3H4NO+
70.0651	6	C4H8N+
82.0651	3	C5H8N+
83.0238	8	C3H3N2O+
84.0807	24	C5H10N+
85.0886	5	C5H11N+
95.0604	3	C5H7N2+
96.0445	5	C5H6NO+
97.076	10	C5H9N2+
99.0917	7	C5H11N2+
100.0503	6	C3H6N3O+
101.0345	378	C3H5N2O2+
110.0599	35	C6H8NO+
111.0678	17	C6H9NO+
112.0141	22	C3H2N3O2+
115.0615	4	C3H7N4O+
125.0709	111	C6H9N2O+
127.0866	5	C6H11N2O+
141.0658	296	C6H9N2O2+
142.0735	4	C6H10N2O2+
143.0815	5	C6H11N2O2+
156.0892	152	C7H12N2O2+
157.1084	999	C6H13N4O+
168.0765	2	C7H10N3O2+
169.0719	148	C6H9N4O2+
