Mass spectrum: Thiamethoxam; LC-ESI-ITFT; MS2; CE: 15%; R=15000; [M+H]+
Name: Thiamethoxam
Name: 3-((2-Chloro-5-thiazolyl)methyl)tetrahydro-5-methyl-N-nitro-4H-1,3,5-oxadiazin-4-imine
Formula: C8H10ClN5O3S
Exact mass: 291.0193
SMILES: Clc1ncc(s1)CN2\C(=N\[N+]([O-])=O)N(C)COC2
InChI: InChI=1S/C8H10ClN5O3S/c1-12-4-17-5-13(8(12)11-14(15)16)3-6-2-10-7(9)18-6/h2H,3-5H2,1H3/b11-8+
Instrument: LTQ Orbitrap XL Thermo Scientific
Instrument type: LC-ESI-ITFT
Ms type: MS2
Ion mode: POSITIVE
Ionization: ESI
Fragmentation mode: HCD
Collision energy: 15 % (nominal)
Resolution: 15000
Column name: XBridge C18 3.5um, 2.1x50mm, Waters
Retention time: 4.1 min
Base peak: 292.0274
Precursor m/z: 292.0266
Precursor type: [M+H]+
m/z	relative intensity	assigned
69.0447	3	C3H5N2+
100.0631	1	C4H8N2O+
122.0712	2	C6H8N3+
131.9669	130	C4H3ClNS+
138.0121	3	C5H4N3S+
151.0201	1	C6H5N3S+
160.9932	2	C5H6ClN2S+
172.9806	1	C8HN2OS+
174.9727	5	C5H4ClN2OS+
179.0389	1	C7H7N4S+
180.0464	21	C7H8N4S+
181.0542	43	C7H9N4S+
182.0625	1	C7H10N4S+
185.0618	1	C7H11N3OS+
210.0571	253	C8H10N4OS+
211.0647	999	C8H11N4OS+
215.0148	1	C7H8ClN4S+
216.0226	2	C7H9ClN4S+
227.0596	2	C8H11N4O2S+
245.0258	16	C8H10ClN4OS+
246.0335	101	C8H11ClN4OS+
248.0254	28	C8H11ClN3O2S+
262.016	2	C7H9ClN5O2S+
262.028	1	C8H11ClN4O2S+
292.0265	266	C8H11ClN5O3S+
