Mass spectrum: Terbuthylazine-TP CSCD692760 (LM3); LC-ESI-QFT; MS2; CE: 15%; R=17500; [M-H]-
Name: Terbuthylazine-TP CSCD692760 (LM3)
Name: 6-Hydroxy-7,7-dimethyl-7,8-dihydroimidazo[1,2-a][1,3,5]triazine-2,4(3H,6H)-dione
Formula: C7H10N4O3
Exact mass: 198.0753
SMILES: CC1(C)NC2=NC(O)=NC(=O)N2C1O
InChI: InChI=1S/C7H10N4O3/c1-7(2)3(12)11-4(10-7)8-5(13)9-6(11)14/h3,12H,1-2H3,(H2,8,9,10,13,14)
Instrument: Q Exactive Plus Orbitrap Thermo Scientific
Instrument type: LC-ESI-QFT
Ms type: MS2
Ion mode: NEGATIVE
Ionization: ESI
Fragmentation mode: HCD
Collision energy: 15 % (nominal)
Resolution: 17500
Column name: XBridge C18 3.5um, 2.1x50mm, Waters
Retention time: 1.287 min
Base peak: 197.0679
Precursor m/z: 197.068
Precursor type: [M-H]-
m/z	relative intensity	assigned
67.03	3	C3H3N2-
83.0614	4	C4H7N2-
84.0204	20	C2H2N3O-
85.0044	11	C2HN2O2-
111.0564	293	C5H7N2O-
112.0599	2	H8N4O3-
125.0831	4	C5H9N4-
127.0262	76	C3H3N4O2-
136.0514	4	C6H6N3O-
154.0623	42	C6H8N3O2-
169.0731	179	C6H9N4O2-
170.0768	2	
179.0574	6	C7H7N4O2-
197.068	999	C7H9N4O3-
198.0713	20	
