Mass spectrum: Bisoprolol; LC-ESI-QFT; MS2; CE: 30; R=35000; [M+H]+
Name: Bisoprolol
Name: 1-(propan-2-ylamino)-3-[4-(2-propan-2-yloxyethoxymethyl)phenoxy]-2-propanol
Formula: C18H31NO4
Exact mass: 325.22531
SMILES: O(c1ccc(cc1)COCCOC(C)C)CC(O)CNC(C)C
InChI: InChI=1S/C18H31NO4/c1-14(2)19-11-17(20)13-23-18-7-5-16(6-8-18)12-21-9-10-22-15(3)4/h5-8,14-15,17,19-20H,9-13H2,1-4H3
Instrument: Q Exactive Orbitrap Thermo Scientific
Instrument type: LC-ESI-QFT
Ms type: MS2
Ion mode: POSITIVE
Ionization: ESI
Fragmentation mode: HCD
Collision energy: 30 (nominal)
Resolution: 35000
Column name: XBridge C18 3.5um, 2.1x50mm, Waters
Retention time: 6.1 min
Base peak: 326.2328
Precursor m/z: 326.2326
Precursor type: [M+H]+
m/z	relative intensity	assigned
56.0494	5	C3H6N+
58.0652	3	C3H8N+
72.0807	69	C4H10N+
74.06	181	C3H8NO+
75.044	5	C3H7O2+
91.0542	15	C7H7+
98.0964	64	C6H12N+
107.0491	12	C7H7O+
116.1069	999	C6H14NO+
119.0491	3	C8H7O+
121.0647	3	C8H9O+
133.0647	10	C9H9O+
145.0648	14	C10H9O+
147.0804	33	C10H11O+
162.0913	20	C10H12NO+
163.0753	7	C10H11O2+
204.1383	35	C13H18NO+
222.1489	23	C13H20NO2+
308.2215	3	C18H30NO3+
326.2326	434	C18H32NO4+
