Mass spectrum: Ampicillin; LC-ESI-QFT; MS2; CE: 180; R=35000; [M-H]-
Name: Ampicillin
Name: 2-amino-1-methyl-5-propylideneimidazol-4-one
Name: 6-[(2-azaniumyl-2-phenylacetyl)amino]-3,3-dimethyl-7-oxo-4-thia-1-azabicyclo[3.2.0]heptane-2-carboxylate
Formula: C16H19N3O4S
Exact mass: 349.10963
SMILES: CC1(C(N2C(S1)C(C2=O)NC(=O)C(C3=CC=CC=C3)N)C(=O)O)C
InChI: InChI=1S/C16H19N3O4S/c1-16(2)11(15(22)23)19-13(21)10(14(19)24-16)18-12(20)9(17)8-6-4-3-5-7-8/h3-7,9-11,14H,17H2,1-2H3,(H,18,20)(H,22,23)
Instrument: Q Exactive Plus Orbitrap Thermo Scientific
Instrument type: LC-ESI-QFT
Ms type: MS2
Ion mode: NEGATIVE
Ionization: ESI
Fragmentation mode: HCD
Collision energy: 180 (nominal)
Resolution: 35000
Column name: XBridge C18 3.5um, 2.1x50mm, Waters
Retention time: 4.7 min
Base peak: 348.1025
Precursor m/z: 348.1024
Precursor type: [M-H]-
m/z	relative intensity	assigned
50.0036	334	C3N-
56.9805	999	C2HS-
58.9961	91	C2H3S-
60.9754	224	CHOS-
63.9625	58	O2S-
70.9837	391	C2HNS-
71.9915	380	C2H2NS-
72.9993	333	C2H3NS-
74.0071	219	C2H4NS-
