Mass spectrum: Flunixine; LC-ESI-QFT; MS2; CE: 60; R=35000; [M-H]-
Name: Flunixine
Name: Banamine
Name: 2-[2-methyl-3-(trifluoromethyl)anilino]pyridine-3-carboxylic acid
Formula: C14H11F3N2O2
Exact mass: 296.07726
SMILES: CC1=C(C=CC=C1NC2=C(C=CC=N2)C(=O)O)C(F)(F)F
InChI: InChI=1S/C14H11F3N2O2/c1-8-10(14(15,16)17)5-2-6-11(8)19-12-9(13(20)21)4-3-7-18-12/h2-7H,1H3,(H,18,19)(H,20,21)
Instrument: Q Exactive Plus Orbitrap Thermo Scientific
Instrument type: LC-ESI-QFT
Ms type: MS2
Ion mode: NEGATIVE
Ionization: ESI
Fragmentation mode: HCD
Collision energy: 60 (nominal)
Resolution: 35000
Column name: XBridge C18 3.5um, 2.1x50mm, Waters
Retention time: 11.0 min
Base peak: 295.0694
Precursor m/z: 295.07
Precursor type: [M-H]-
m/z	relative intensity	assigned
62.9888	3	CFO2-
66.035	4	C4H4N-
68.9958	32	CF3-
91.0302	1	C5H3N2-
114.0349	7	C8H4N-
127.0366	1	C7H5F2-
134.0411	12	C8H5FN-
141.0457	1	C9H5N2-
155.0377	3	C10H5NO-
164.0506	43	C12H6N-
165.0458	10	C11H5N2-
166.0536	19	C11H6N2-
169.0409	1	C10H5N2O-
180.0692	4	C12H8N2-
181.0772	1	C12H9N2-
182.0485	5	C11H6N2O-
184.0567	87	C12H7FN-
185.0517	1	C11H6FN2-
189.0465	5	C13H5N2-
190.0537	81	C13H6N2-
191.0616	999	C13H7N2-
193.0405	8	C12H5N2O-
194.0408	20	C13H5FN-
194.0487	3	C12H6N2O-
196.044	4	C12H5FN2-
200.0393	11	C11H5FN2O-
204.0629	21	C12H8F2N-
208.0281	6	C12H4N2O2-
209.0521	996	C13H6FN2-
210.0599	43	C13H7FN2-
211.0677	772	C13H8FN2-
214.0465	5	C13H6F2N-
216.0503	54	C12H6F2N2-
222.0436	3	C13H6N2O2-
222.0731	5	C12H10F2NO-
224.0693	357	C12H9F3N-
225.0469	32	C13H6FN2O-
228.034	19	C12H5FN2O2-
229.0581	39	C13H7F2N2-
230.066	108	C13H8F2N2-
231.0739	545	C13H9F2N2-
234.0536	178	C13H7F3N-
235.0491	40	C12H6F3N2-
242.0499	4	C13H7FN2O2-
249.0644	134	C13H8F3N2-
251.0801	525	C13H10F3N2-
255.0573	8	C14H8FN2O2-
262.0562	3	C13H8F2N2O2-
278.0437	1	C14H7F3NO2-
