Mass spectrum: Imazaquin; LC-ESI-QFT; MS2; CE: 150; R=35000; [M+H]+
Name: Imazaquin
Name: 2-(4-methyl-5-oxo-4-propan-2-yl-1H-imidazol-2-yl)quinoline-3-carboxylic acid
Formula: C17H17N3O3
Exact mass: 311.12699
SMILES: CC(C)C1(C(=O)NC(=N1)C2=NC3=CC=CC=C3C=C2C(=O)O)C
InChI: InChI=1S/C17H17N3O3/c1-9(2)17(3)16(23)19-14(20-17)13-11(15(21)22)8-10-6-4-5-7-12(10)18-13/h4-9H,1-3H3,(H,21,22)(H,19,20,23)
Instrument: Q Exactive Plus Orbitrap Thermo Scientific
Instrument type: LC-ESI-QFT
Ms type: MS2
Ion mode: POSITIVE
Ionization: ESI
Fragmentation mode: HCD
Collision energy: 150 (nominal)
Resolution: 35000
Column name: XBridge C18 3.5um, 2.1x50mm, Waters
Retention time: 7.0 min
Base peak: 312.1336
Precursor m/z: 312.1343
Precursor type: [M+H]+
m/z	relative intensity	assigned
50.0151	54	C4H2+
51.023	55	C4H3+
52.0182	8	C3H2N+
53.0022	58	C3HO+
53.0386	55	C4H5+
53.9975	15	C2NO+
54.01	1	C3H2O+
55.0179	8	C3H3O+
56.0495	145	C3H6N+
58.0651	9	C3H8N+
61.0071	2	C5H+
62.0151	4	C5H2+
63.0229	25	C5H3+
65.0022	3	C4HO+
65.0386	14	C5H5+
66.0464	8	C5H6+
67.0542	7	C5H7+
67.9893	8	C3O2+
69.0699	38	C5H9+
70.0651	209	C4H8N+
71.073	107	C4H9N+
74.0151	78	C6H2+
75.0229	999	C6H3+
76.0181	15	C5H2N+
76.0307	37	C6H4+
77.0021	11	C5HO+
77.0385	131	C6H5+
78.0087	2	C3N3+
78.0339	5	C5H4N+
78.0464	27	C6H6+
79.0176	3	C5H3O+
79.0417	1	C5H5N+
81.0336	7	C5H5O+
86.0964	6	C5H12N+
87.0229	1	C7H3+
88.018	1	C6H2N+
89.0386	163	C7H5+
90.0339	4	C6H4N+
90.0464	29	C7H6+
91.0543	101	C7H7+
94.0415	2	C6H6O+
95.0492	182	C6H7O+
98.0151	1	C8H2+
99.0104	4	C7HN+
99.023	32	C8H3+
100.0182	61	C7H2N+
100.0308	52	C8H4+
101.0387	277	C8H5+
102.0339	43	C7H4N+
102.0464	92	C8H6+
103.0416	22	C7H5N+
103.0542	17	C8H7+
104.0257	1	C7H4O+
105.0336	7	C7H5O+
105.0448	123	C6H5N2+
113.0386	4	C9H5+
114.034	1	C8H4N+
115.0543	55	C9H7+
116.0495	79	C8H6N+
117.0573	7	C8H7N+
118.0289	4	C7H4NO+
118.0414	5	C8H6O+
119.0492	248	C8H7O+
120.0444	12	C7H6NO+
125.0389	4	C10H5+
126.0339	66	C9H4N+
127.0417	351	C9H5N+
128.0495	381	C9H6N+
129.0448	844	C8H5N2+
129.0573	50	C9H7N+
130.0401	58	C7H4N3+
130.0653	9	C9H8N+
133.0523	1	C8H7NO+
134.0602	2	C8H8NO+
139.0544	4	C11H7+
140.0495	22	C10H6N+
141.0573	2	C10H7N+
142.0527	6	C9H6N2+
142.0654	1	C10H8N+
144.0445	25	C9H6NO+
145.0521	5	C9H7NO+
145.0648	1	C10H9O+
146.0601	283	C9H8NO+
152.0496	2	C11H6N+
152.0623	5	C12H8+
153.0448	133	C10H5N2+
154.0401	127	C9H4N3+
154.0527	16	C10H6N2+
154.0651	11	C11H8N+
155.0603	18	C10H7N2+
160.0757	2	C10H10NO+
161.0472	7	C9H7NO2+
164.0496	1	C12H6N+
166.0652	1	C12H8N+
167.073	5	C12H9N+
168.0684	4	C11H8N2+
169.0648	3	C12H9O+
170.06	4	C11H8NO+
171.0553	18	C10H7N2O+
178.065	7	C13H8N+
179.0604	2	C12H7N2+
179.0732	1	C13H9N+
180.0805	4	C13H10N+
181.0396	2	C11H5N2O+
181.0766	8	C12H9N2+
185.0714	1	C11H9N2O+
191.0723	1	C14H9N+
205.0762	2	C14H9N2+
