Mass spectrum: 2,4-Dichlorophenoxyacetic acid; LC-ESI-QFT; MS2; CE: 75%; R=15000; [M-H]-
Name: 2,4-Dichlorophenoxyacetic acid
Name: 2-(2,4-dichlorophenoxy)acetic acid
Formula: C8H6Cl2O3
Exact mass: 219.9693994
SMILES: OC(=O)COC1=C(Cl)C=C(Cl)C=C1
InChI: InChI=1S/C8H6Cl2O3/c9-5-1-2-7(6(10)3-5)13-4-8(11)12/h1-3H,4H2,(H,11,12)
Instrument: Q Exactive Plus
Instrument type: LC-ESI-QFT
Ms type: MS2
Ion mode: NEGATIVE
Ionization: ESI
Fragmentation mode: HCD
Collision energy: 75 % (nominal)
Resolution: 15000
Column name: XBridge C18 3.5um, 2.1x50mm, Waters
Retention time: 8.113 min
Base peak: 218.9621
Precursor m/z: 218.9621
Precursor type: [M-H]-
Precursor intensity: 150634605
m/z	relative intensity	assigned
89.0033	103	C6HO-
124.98	621	C6H2ClO-
160.9566	999	C6H3Cl2O-
