Mass spectrum: Phenytoin; LC-ESI-QFT; MS2; CE: 15; R=35000; [M+H]+
Name: Phenytoin
Name: 5,5-diphenylimidazolidine-2,4-dione
Formula: C15H12N2O2
Exact mass: 252.08988
SMILES: C1=CC=C(C=C1)C2(C(=O)NC(=O)N2)C3=CC=CC=C3
InChI: InChI=1S/C15H12N2O2/c18-13-15(17-14(19)16-13,11-7-3-1-4-8-11)12-9-5-2-6-10-12/h1-10H,(H2,16,17,18,19)
Instrument: Q Exactive Orbitrap Thermo Scientific
Instrument type: LC-ESI-QFT
Ms type: MS2
Ion mode: POSITIVE
Ionization: ESI
Fragmentation mode: HCD
Collision energy: 15 (nominal)
Resolution: 35000
Column name: XBridge C18 3.5um, 2.1x50mm, Waters
Retention time: 7.6 min
Base peak: 253.0971
Precursor m/z: 253.0972
Precursor type: [M+H]+
m/z	relative intensity	assigned
77.0385	3	C6H5+
104.049	27	C7H6N+
105.0334	15	C7H5O+
132.0441	4	C8H6NO+
175.0501	99	C9H7N2O2+
180.0801	1	C13H10N+
182.0963	999	C13H12N+
208.0757	1	C14H10NO+
210.0912	24	C14H12NO+
225.1021	664	C14H13N2O+
236.0705	21	C15H10NO2+
253.097	812	C15H13N2O2+
