Mass spectrum: Cefalexin; LC-ESI-QFT; MS2; CE: 60; R=35000; [M+H]+
Name: Cefalexin
Name: 7-[(2-amino-1-oxo-2-phenylethyl)amino]-3-methyl-8-oxo-5-thia-1-azabicyclo[4.2.0]oct-2-ene-2-carboxylic acid
Formula: C16H17N3O4S
Exact mass: 347.09398
SMILES: CC1=C(N2C(C(C2=O)NC(=O)C(C3=CC=CC=C3)N)SC1)C(=O)O
InChI: InChI=1S/C16H17N3O4S/c1-8-7-24-15-11(14(21)19(15)12(8)16(22)23)18-13(20)10(17)9-5-3-2-4-6-9/h2-6,10-11,15H,7,17H2,1H3,(H,18,20)(H,22,23)
Instrument: Q Exactive Orbitrap Thermo Scientific
Instrument type: LC-ESI-QFT
Ms type: MS2
Ion mode: POSITIVE
Ionization: ESI
Fragmentation mode: HCD
Collision energy: 60 (nominal)
Resolution: 35000
Column name: XBridge C18 3.5um, 2.1x50mm, Waters
Retention time: 4.4 min
Base peak: 348.1015
Precursor m/z: 348.1013
Precursor type: [M+H]+
m/z	relative intensity	assigned
58.995	5	C2H3S+
62.0059	1	CH4NS+
65.0386	1	C5H5+
68.0495	398	C4H6N+
69.0335	2	C4H5O+
70.0287	2	C3H4NO+
70.0651	15	C4H8N+
72.9981	30	C2H3NS+
74.0059	38	C2H4NS+
79.0542	116	C6H7+
80.0494	1	C5H6N+
82.0652	9	C5H8N+
85.0107	1	C4H5S+
86.0059	36	C3H4NS+
90.0463	2	C7H6+
91.0542	131	C7H7+
94.0651	2	C6H8N+
95.0491	2	C6H7O+
95.0605	1	C5H7N2+
97.0284	3	C5H5O2+
98.0601	1	C5H8NO+
99.0263	1	C5H7S+
99.9852	1	C3H2NOS+
103.0542	12	C8H7+
104.0494	1	C7H6N+
105.0335	1	C7H5O+
106.0651	999	C7H8N+
107.0603	1	C6H7N2+
108.0446	2	C6H6NO+
109.076	1	C6H9N2+
112.0215	56	C5H6NS+
114.0008	177	C4H4NOS+
115.0541	4	C9H7+
116.0527	3	C5H10NS+
117.0573	40	C8H7N+
118.0413	77	C8H6O+
118.0651	351	C8H8N+
119.0491	44	C8H7O+
121.0105	19	C7H5S+
123.0262	25	C7H7S+
124.0213	1	C6H6NS+
126.0372	7	C6H8NS+
126.055	1	C6H8NO2+
128.0494	2	C9H6N+
130.0653	18	C9H8N+
131.0492	4	C9H7O+
131.0728	1	C9H9N+
132.0444	1	C8H6NO+
132.0809	4	C9H10N+
133.0761	4	C8H9N2+
134.06	10	C8H8NO+
135.0265	5	C8H7S+
137.042	10	C8H9S+
139.0326	7	C6H7N2S+
139.0507	1	C6H7N2O2+
140.0161	1	C6H6NOS+
140.0343	5	C6H6NO3+
141.0479	7	C6H9N2S+
146.0601	96	C9H8NO+
147.0263	32	C9H7S+
150.0373	24	C8H8NS+
151.0209	1	C8H7OS+
158.0271	590	C6H8NO2S+
159.0679	5	C10H9NO+
160.0425	1	C6H10NO2S+
162.0372	31	C9H8NS+
164.0528	44	C9H10NS+
167.0274	1	C7H7N2OS+
170.0269	1	C7H8NO2S+
170.0965	1	C12H12N+
174.0375	13	C10H8NS+
174.055	107	C10H8NO2+
178.0321	6	C9H8NOS+
181.0889	1	C13H11N+
183.0915	1	C12H11N2+
190.0319	4	C10H8NOS+
191.0399	6	C10H9NOS+
192.0482	8	C10H10NOS+
211.0868	1	C13H11N2O+
214.0686	2	C13H12NS+
218.0274	1	C11H8NO2S+
229.0796	1	C13H13N2S+
229.0971	2	C13H13N2O2+
