Mass spectrum: Cymiazole; LC-ESI-QFT; MS2; CE: 150%; R=17500; [M+H]+
Name: Cymiazole
Name: N-(2,4-dimethylphenyl)-3-methyl-1,3-thiazol-2-imine
Formula: C12H14N2S
Exact mass: 218.0878
SMILES: CC1=CC(=C(C=C1)N=C2N(C=CS2)C)C
InChI: InChI=1S/C12H14N2S/c1-9-4-5-11(10(2)8-9)13-12-14(3)6-7-15-12/h4-8H,1-3H3
Instrument: Exploris 240 Orbitrap Thermo Scientific
Instrument type: LC-ESI-QFT
Ms type: MS2
Ion mode: POSITIVE
Ionization: ESI
Fragmentation mode: HCD
Collision energy: 150 % (nominal)
Resolution: 17500
Column name: XBridge C18 3.5um, 2.1x50mm, Waters
Retention time: 4.141 min
Base peak: 219.095
Precursor m/z: 219.095
Precursor type: [M+H]+
m/z	relative intensity	assigned
51.0229	332	C4H3+
53.0386	229	C4H5+
57.9874	73	C2H2S+
58.995	377	C2H3S+
65.0387	152	C5H5+
70.9951	135	C3H3S+
72.0029	120	C3H4S+
77.0386	999	C6H5+
78.0466	73	C6H6+
79.0543	454	C6H7+
80.0496	87	C5H6N+
86.006	240	C3H4NS+
89.0386	44	C7H5+
91.0542	547	C7H7+
93.0574	47	C6H7N+
100.0216	92	C4H6NS+
102.0465	72	C8H6+
103.0542	425	C8H7+
104.0497	62	C7H6N+
105.0447	368	C6H5N2+
105.0697	168	C8H9+
115.0542	209	C9H7+
116.0497	80	C8H6N+
117.0572	181	C8H7N+
118.065	124	C8H8N+
120.081	81	C8H10N+
129.0576	84	C9H7N+
130.0651	890	C9H8N+
131.0732	52	C9H9N+
142.0656	122	C10H8N+
143.0728	235	C10H9N+
144.0808	342	C10H10N+
145.0763	80	C9H9N2+
155.0605	113	C10H7N2+
156.0681	165	C10H8N2+
162.0377	46	C9H8NS+
173.0296	59	C10H7NS+
