Mass spectrum: Atrazine; LC-ESI-ITFT; MS2; CE: 60%; R=7500; [M+H]+
Name: Atrazine
Name: 6-chloro-N-ethyl-N'-isopropyl-1,3,5-triazine-2,4-diamine
Name: 6-chloranyl-N4-ethyl-N2-propan-2-yl-1,3,5-triazine-2,4-diamine
Formula: C8H14ClN5
Exact mass: 215.0932
SMILES: c1(nc(nc(n1)Cl)NCC)NC(C)C
InChI: InChI=1S/C8H14ClN5/c1-4-10-7-12-6(9)13-8(14-7)11-5(2)3/h5H,4H2,1-3H3,(H2,10,11,12,13,14)
Instrument: LTQ Orbitrap XL Thermo Scientific
Instrument type: LC-ESI-ITFT
Ms type: MS2
Ion mode: POSITIVE
Ionization: ESI
Fragmentation mode: HCD
Collision energy: 60 % (nominal)
Resolution: 7500
Column name: XBridge C18 3.5um, 2.1x50mm, Waters
Retention time: 8.3 min
Base peak: 216.1012
Precursor m/z: 216.101
Precursor type: [M+H]+
m/z	relative intensity	assigned
61.9793	8	CHClN+
68.0243	177	C2H2N3+
71.0604	34	C3H7N2+
79.0058	137	CH4ClN2+
96.0557	191	C4H6N3+
104.0011	223	C2H3ClN3+
110.046	13	C3H4N5+
132.0325	208	C4H7ClN3+
138.0774	57	C5H8N5+
146.0229	165	C3H5ClN5+
146.048	8	C5H9ClN3+
174.0541	999	C5H9ClN5+
188.0696	7	C6H11ClN5+
216.1017	181	C8H15ClN5+
