Mass spectrum: Clofibrate; LC-ESI-QFT; MS2; CE: 45%; R=15000; [M+H]+
Name: Clofibrate
Name: ethyl 2-(4-chlorophenoxy)-2-methylpropanoate
Formula: C12H15ClO3
Exact mass: 242.070972
SMILES: CCOC(=O)C(C)(C)OC1=CC=C(Cl)C=C1
InChI: InChI=1S/C12H15ClO3/c1-4-15-11(14)12(2,3)16-10-7-5-9(13)6-8-10/h5-8H,4H2,1-3H3
Instrument: Q Exactive Plus
Instrument type: LC-ESI-QFT
Ms type: MS2
Ion mode: POSITIVE
Ionization: ESI
Fragmentation mode: HCD
Collision energy: 45 % (nominal)
Resolution: 15000
Column name: XBridge C18 3.5um, 2.1x50mm, Waters
Retention time: 11.449 min
Base peak: 243.0784
Precursor m/z: 243.0782
Precursor type: [M+H]+
Precursor intensity: 61114957.02
m/z	relative intensity	assigned
59.0491	999	C3H7O+
69.0334	42	C4H5O+
87.0441	658	C4H7O2+
87.0804	360	C5H11O+
115.0755	34	C6H11O2+
129.0101	55	C6H6ClO+
141.0101	652	C7H6ClO+
162.0676	41	C10H10O2+
169.0414	757	C9H10ClO+
179.0259	39	C10H8ClO+
197.0362	131	C10H10ClO2+
