Mass spectrum: Aspirin; LC-ESI-QFT; MS2; CE: 150; R=35000; [M+H]+
Name: Aspirin
Name: Acetyl salicilic acid
Name: 2-acetyloxybenzoic acid
Formula: C9H8O4
Exact mass: 180.04226
SMILES: CC(=O)OC1=CC=CC=C1C(=O)O
InChI: InChI=1S/C9H8O4/c1-6(10)13-8-5-3-2-4-7(8)9(11)12/h2-5H,1H3,(H,11,12)
Instrument: Q Exactive Plus Orbitrap Thermo Scientific
Instrument type: LC-ESI-QFT
Ms type: MS2
Ion mode: POSITIVE
Ionization: ESI
Fragmentation mode: HCD
Collision energy: 150 (nominal)
Resolution: 35000
Column name: XBridge C18 3.5um, 2.1x50mm, Waters
Retention time: 20.3 min
Base peak: 391.2827
Precursor m/z: 181.0495
Precursor type: [M+H]+
m/z	relative intensity	assigned
50.0151	185	C4H2+
51.0229	237	C4H3+
53.0021	87	C3HO+
53.0385	81	C4H5+
54.0463	39	C4H6+
55.0177	6	C3H3O+
61.0071	1	C5H+
62.015	16	C5H2+
63.0228	429	C5H3+
64.0307	290	C5H4+
65.0385	999	C5H5+
66.0099	1	C4H2O+
66.0463	3	C5H6+
67.0541	1	C5H7+
67.9891	14	C3O2+
68.9969	1	C3HO2+
74.0149	3	C6H2+
75.0228	9	C6H3+
77.0384	256	C6H5+
79.0178	1	C5H3O+
79.0541	4	C6H7+
80.0255	3	C5H4O+
81.0334	24	C5H5O+
82.0412	1	C5H6O+
91.0541	1	C7H7+
92.0255	619	C6H4O+
92.0367	52	C5H4N2+
93.0334	4	C6H5O+
94.0411	6	C6H6O+
95.049	262	C6H7O+
98.0361	1	C5H6O2+
105.0446	182	C6H5N2+
106.0416	1	C7H6O+
109.0645	1	C7H9O+
111.0439	6	C6H7O2+
119.0127	1	C7H3O2+
121.0282	3	C7H5O2+
121.0394	13	C6H5N2O+
