Mass spectrum: Isoxathion; LC-ESI-QFT; MS2; CE: 90%; R=17500; [M+H]+
Name: Isoxathion
Name: diethoxy-[(5-phenyl-1,2-oxazol-3-yl)oxy]-sulfanylidene-lambda5-phosphane
Formula: C13H16NO4PS
Exact mass: 313.0538
SMILES: CCOP(=S)(OCC)OC1=NOC(=C1)C2=CC=CC=C2
InChI: InChI=1S/C13H16NO4PS/c1-3-15-19(20,16-4-2)18-13-10-12(17-14-13)11-8-6-5-7-9-11/h5-10H,3-4H2,1-2H3
Instrument: Exploris 240 Orbitrap Thermo Scientific
Instrument type: LC-ESI-QFT
Ms type: MS2
Ion mode: POSITIVE
Ionization: ESI
Fragmentation mode: HCD
Collision energy: 90 % (nominal)
Resolution: 17500
Column name: XBridge C18 3.5um, 2.1x50mm, Waters
Retention time: 11.540 min
Base peak: 398.0878
Precursor m/z: 314.061
Precursor type: [M+H]+
m/z	relative intensity	assigned
53.0386	76	C4H5+
61.0106	29	C2H5S+
64.9787	408	H2O2P+
77.0386	329	C2H8NP+
78.9402	58	OPS+
79.054	58	C6H7+
80.9738	126	H2O3P+
91.0542	247	C7H7+
95.0493	93	C6H7O+
96.9508	999	H2O2PS+
98.9842	172	H4O4P+
106.0654	42	C7H8N+
110.9666	37	CH4O2PS+
112.946	87	H2O3PS+
113.9536	207	H3O3PS+
114.9614	567	H4O3PS+
116.0495	90	C8H6N+
128.9774	22	CH6O3PS+
130.9562	69	H4O4PS+
162.0547	14	C9H8NO2+
