Mass spectrum: Telmisartan; LC-ESI-ITFT; MS2; CE: 45%; R=7500; [M+H]+
Name: Telmisartan
Name: 4'-[(1,7'-dimethyl-2'-propyl-1H,3'H-2,5'-bibenzimidazol-3'-yl)methyl]biphenyl-2-carboxylic acid
Name: 2-[4-[[4-methyl-6-(1-methyl-2-benzimidazolyl)-2-propyl-1-benzimidazolyl]methyl]phenyl]benzoic acid
Formula: C33H30N4O2
Exact mass: 514.2369
SMILES: n1(c(nc2c1cccc2)c1cc(c2c(n(c(CCC)n2)Cc2ccc(cc2)c2c(cccc2)C(O)=O)c1)C)C
InChI: InChI=1S/C33H30N4O2/c1-4-9-30-35-31-21(2)18-24(32-34-27-12-7-8-13-28(27)36(32)3)19-29(31)37(30)20-22-14-16-23(17-15-22)25-10-5-6-11-26(25)33(38)39/h5-8,10-19H,4,9,20H2,1-3H3,(H,38,39)
Instrument: LTQ Orbitrap XL Thermo Scientific
Instrument type: LC-ESI-ITFT
Ms type: MS2
Ion mode: POSITIVE
Ionization: ESI
Fragmentation mode: HCD
Collision energy: 45 % (nominal)
Resolution: 7500
Column name: XBridge C18 3.5um, 2.1x50mm, Waters
Retention time: 9.2 min
Base peak: 515.2452
Precursor m/z: 515.2442
Precursor type: [M+H]+
m/z	relative intensity	assigned
193.0648	78	C14H9O+
194.0679	3	C9H10N2O3+
211.0754	109	C14H11O2+
262.1217	3	C16H14N4+
275.129	14	C17H15N4+
276.137	501	C17H16N4+
277.1407	27	C12H17N6O2+
288.1364	1	C18H16N4+
289.1448	88	C18H17N4+
290.1479	4	C13H18N6O2+
303.1603	53	C19H19N4+
305.1759	112	C19H21N4+
317.1759	54	C20H21N4+
318.1801	3	C15H22N6O2+
453.1724	2	C32H23NO2+
455.187	4	C30H23N4O+
467.1853	16	C31H23N4O+
468.1948	6	C31H24N4O+
471.2549	4	C32H31N4+
483.2176	3	C32H27N4O+
485.1952	7	C31H25N4O2+
497.2339	999	C33H29N4O+
498.237	107	C28H30N6O3+
515.2433	414	C33H31N4O2+
