Mass spectrum: Imicyafos; LC-ESI-QFT; MS2; CE: 120%; R=17500; [M+H]+
Name: Imicyafos
Name: [1-[ethoxy(propylsulfanyl)phosphoryl]-3-ethylimidazolidin-2-ylidene]cyanamide
Formula: C11H21N4O2PS
Exact mass: 304.1123
SMILES: CCCSP(=O)(N1CCN(C1=NC#N)CC)OCC
InChI: InChI=1S/C11H21N4O2PS/c1-4-9-19-18(16,17-6-3)15-8-7-14(5-2)11(15)13-10-12/h4-9H2,1-3H3
Instrument: Exploris 240 Orbitrap Thermo Scientific
Instrument type: LC-ESI-QFT
Ms type: MS2
Ion mode: POSITIVE
Ionization: ESI
Fragmentation mode: HCD
Collision energy: 120 % (nominal)
Resolution: 17500
Column name: XBridge C18 3.5um, 2.1x50mm, Waters
Retention time: 5.301 min
Base peak: 305.1193
Precursor m/z: 305.1196
Precursor type: [M+H]+
m/z	relative intensity	assigned
55.0291	58	C2H3N2+
56.0495	100	C3H6N+
64.9787	81	H2O2P+
68.0243	610	C2H2N3+
69.0447	999	C3H5N2+
70.0651	286	C4H8N+
71.0605	92	C3H7N2+
72.0809	50	C4H10N+
78.9402	41	OPS+
78.9942	141	CH4O2P+
79.9898	80	H3NO2P+
81.0323	37	C3H3N3+
82.0399	53	C3H4N3+
84.0558	144	C3H6N3+
87.9949	65	C2H3NOP+
88.99	69	CH2N2OP+
96.9508	177	H2O2PS+
104.985	64	CH2N2O2P+
106.0055	43	C2H5NO2P+
109.0507	142	C4H5N4+
110.0589	89	C4H6N4+
111.0664	237	C4H7N4+
123.0667	71	C5H7N4+
130.0167	67	C3H5N3OP+
137.0826	98	C6H9N4+
139.0981	108	C6H11N4+
156.0321	72	C5H7N3OP+
