Mass spectrum: Sulpiride; LC-ESI-QFT; MS2; CE: 75; R=35000; [M+H]+
Name: Sulpiride
Name: Sulpirid
Name: N-[(1-ethyl-2-pyrrolidinyl)methyl]-2-methoxy-5-sulfamoylbenzamide
Formula: C15H23N3O4S
Exact mass: 341.14093
SMILES: CCN1CCCC1CNC(=O)C2=C(C=CC(=C2)S(=O)(=O)N)OC
InChI: InChI=1S/C15H23N3O4S/c1-3-18-8-4-5-11(18)10-17-15(19)13-9-12(23(16,20)21)6-7-14(13)22-2/h6-7,9,11H,3-5,8,10H2,1-2H3,(H,17,19)(H2,16,20,21)
Instrument: Q Exactive Orbitrap Thermo Scientific
Instrument type: LC-ESI-QFT
Ms type: MS2
Ion mode: POSITIVE
Ionization: ESI
Fragmentation mode: HCD
Collision energy: 75 (nominal)
Resolution: 35000
Column name: XBridge C18 3.5um, 2.1x50mm, Waters
Retention time: 1.7 min
Base peak: 342.1483
Precursor m/z: 342.1482
Precursor type: [M+H]+
m/z	relative intensity	assigned
55.0544	1	C4H7+
56.0496	14	C3H6N+
58.0652	193	C3H8N+
63.9851	1	H2NOS+
65.0386	22	C5H5+
67.0542	33	C5H7+
68.0494	4	C4H6N+
69.0698	12	C5H9+
70.065	20	C4H8N+
71.0729	1	C4H9N+
75.0228	12	C6H3+
76.0309	1	C6H4+
77.0385	6	C6H5+
78.0464	8	C6H6+
79.0416	1	C5H5N+
79.0542	1	C6H7+
80.0494	1	C5H6N+
81.0335	1	C5H5O+
82.0651	20	C5H8N+
83.073	4	C5H9N+
84.0807	517	C5H10N+
92.0494	7	C6H6N+
94.065	5	C6H8N+
95.0491	14	C6H7O+
96.0808	2	C6H10N+
97.0886	5	C6H11N+
98.0964	234	C6H12N+
105.0335	4	C7H5O+
106.0412	4	C7H6O+
107.0129	2	C6H3O2+
107.0366	8	C6H5NO+
107.0491	7	C7H7O+
108.0444	22	C6H6NO+
109.0284	17	C6H5O2+
110.0059	2	C5H4NS+
110.0964	33	C7H12N+
112.112	999	C7H14N+
120.0444	1	C7H6NO+
122.06	6	C7H8NO+
123.0075	2	C6H3O3+
124.052	1	C7H8O2+
133.0284	8	C8H5O2+
134.036	22	C8H6O2+
138.9849	18	C6H3O2S+
151.039	20	C8H7O3+
154.9796	1	C6H3O3S+
156.9951	1	C6H5O3S+
166.0262	14	C8H6O4+
170.9984	10	C6H5NO3S+
174.0221	14	C6H8NO3S+
184.0175	35	C6H6N3O2S+
186.0218	1	C7H8NO3S+
199.006	4	C8H7O4S+
214.0168	867	C14H2N2O+
217.0036	12	C13HN2O2+
