Mass spectrum: Vigabatrin; LC-ESI-QFT; MS2; CE: 45; R=35000; [M+H]+
Name: Vigabatrin
Name: 4-aminohex-5-enoic acid
Name: 4-Amino-5-hexenoic acid
Formula: C6H11NO2
Exact mass: 129.07898
SMILES: C=CC(CCC(=O)O)N
InChI: InChI=1S/C6H11NO2/c1-2-5(7)3-4-6(8)9/h2,5H,1,3-4,7H2,(H,8,9)
Instrument: Q Exactive Plus Orbitrap Thermo Scientific
Instrument type: LC-ESI-QFT
Ms type: MS2
Ion mode: POSITIVE
Ionization: ESI
Fragmentation mode: HCD
Collision energy: 45 (nominal)
Resolution: 35000
Column name: XBridge C18 3.5um, 2.1x50mm, Waters
Retention time: 0.9 min
Base peak: 130.0858
Precursor m/z: 130.0863
Precursor type: [M+H]+
m/z	relative intensity	assigned
53.0021	1	C3HO+
53.0384	1	C4H5+
65.0384	1	C5H5+
67.0541	85	C5H7+
69.0697	4	C5H9+
70.0651	1	C4H8N+
71.049	999	C4H7O+
85.0645	1	C5H9O+
95.049	30	C6H7O+
112.0756	1	C6H10NO+
113.0595	251	C6H9O2+
130.0861	8	C6H12NO2+
