Mass spectrum: Iminostilbene; LC-ESI-ITFT; MS2; CE: 75%; R=7500; [M+H]+
Name: Iminostilbene
Name: 11H-benzo[b][1]benzazepine
Formula: C14H11N
Exact mass: 193.0891
SMILES: c1cc2Nc3ccccc3\C=C/c2cc1
InChI: InChI=1S/C14H11N/c1-3-7-13-11(5-1)9-10-12-6-2-4-8-14(12)15-13/h1-10,15H
Instrument: LTQ Orbitrap XL Thermo Scientific
Instrument type: LC-ESI-ITFT
Ms type: MS2
Ion mode: POSITIVE
Ionization: ESI
Fragmentation mode: HCD
Collision energy: 75 % (nominal)
Resolution: 7500
Column name: XBridge C18 3.5um, 2.1x50mm, Waters
Retention time: 11.0 min
Base peak: 194.0971
Precursor m/z: 194.0964
Precursor type: [M+H]+
m/z	relative intensity	assigned
91.0542	4	C7H7+
116.0497	7	C8H6N+
117.0572	4	C8H7N+
152.0623	11	C12H8+
165.0702	15	C13H9+
167.0734	20	C12H9N+
167.0857	25	C13H11+
176.0624	5	C14H8+
177.0703	15	C14H9+
178.0777	6	C14H10+
179.0732	185	C13H9N+
191.0721	3	C14H9N+
192.0815	35	C14H10N+
193.0892	363	C14H11N+
194.0969	999	C14H12N+
