Mass spectrum: Cyprodinil; LC-ESI-ITFT; MS2; CE: 60%; R=7500; [M+H]+
Name: Cyprodinil
Name: (4-cyclopropyl-6-methyl-pyrimidin-2-yl)-phenyl-amine
Formula: C14H15N3
Exact mass: 225.1260
SMILES: c1ccccc1Nc1nc(C2CC2)cc(C)n1
InChI: InChI=1S/C14H15N3/c1-10-9-13(11-7-8-11)17-14(15-10)16-12-5-3-2-4-6-12/h2-6,9,11H,7-8H2,1H3,(H,15,16,17)
Instrument: LTQ Orbitrap XL Thermo Scientific
Instrument type: LC-ESI-ITFT
Ms type: MS2
Ion mode: POSITIVE
Ionization: ESI
Fragmentation mode: HCD
Collision energy: 60 % (nominal)
Resolution: 7500
Column name: XBridge C18 3.5um, 2.1x50mm, Waters
Retention time: 9.4 min
Base peak: 226.1338
Precursor m/z: 226.1339
Precursor type: [M+H]+
m/z	relative intensity	assigned
65.0387	2	C5H5+
67.0542	3	C5H7+
68.0497	1	C4H6N+
77.0385	1	C6H5+
79.0544	2	C6H7+
80.0495	2	C5H6N+
81.0701	2	C6H9+
84.0807	1	C5H10N+
91.0543	9	C7H7+
92.0496	8	C6H6N+
93.0573	19	C6H7N+
94.0649	1	C6H8N+
106.0652	17	C7H8N+
107.0599	1	C6H7N2+
108.0684	4	C6H8N2+
108.0808	59	C7H10N+
109.0759	4	C6H9N2+
109.0885	2	C7H11N+
116.0496	3	C8H6N+
117.0574	2	C8H7N+
118.0525	8	C7H6N2+
118.0654	7	C8H8N+
119.0604	23	C7H7N2+
123.092	6	C7H11N2+
124.076	1	C7H10NO+
131.0605	3	C8H7N2+
132.0679	5	C8H8N2+
133.0761	42	C8H9N2+
134.06	2	C8H8NO+
142.0658	1	C10H8N+
143.06	6	C9H7N2+
144.0808	25	C10H10N+
145.076	5	C9H9N2+
151.0871	1	C8H11N2O+
158.0961	2	C11H12N+
159.0918	9	C10H11N2+
167.073	1	C12H9N+
168.0811	5	C12H10N+
169.0757	2	C11H9N2+
171.0918	1	C11H11N2+
182.0842	1	C12H10N2+
183.0912	4	C12H11N2+
184.087	15	C11H10N3+
185.1072	21	C12H13N2+
194.0839	6	C13H10N2+
197.094	2	C12H11N3+
198.1027	7	C12H12N3+
207.0913	2	C14H11N2+
208.1005	2	C14H12N2+
209.1074	28	C14H13N2+
210.1025	24	C13H12N3+
211.1101	6	C13H13N3+
224.1182	5	C14H14N3+
226.1342	999	C14H16N3+
