Mass spectrum: Dihydrocodeine; LC-ESI-QFT; MS2; CE: 90; R=35000; [M+H]+
Name: Dihydrocodeine
Name: (4R,4aR,7S,7aR,12bS)-9-methoxy-3-methyl-2,4,4a,5,6,7,7a,13-octahydro-1H-4,12-methanobenzofuro[3,2-e]isoquinoline-7-ol
Formula: C18H23NO3
Exact mass: 301.16779
SMILES: CN1CC[C@]23[C@@H]4[C@H]1CC5=C2C(=C(C=C5)OC)O[C@H]3[C@H](CC4)O
InChI: InChI=1S/C18H23NO3/c1-19-8-7-18-11-4-5-13(20)17(18)22-16-14(21-2)6-3-10(15(16)18)9-12(11)19/h3,6,11-13,17,20H,4-5,7-9H2,1-2H3/t11-,12+,13-,17-,18-/m0/s1
Instrument: Q Exactive Orbitrap Thermo Scientific
Instrument type: LC-ESI-QFT
Ms type: MS2
Ion mode: POSITIVE
Ionization: ESI
Fragmentation mode: HCD
Collision energy: 90 (nominal)
Resolution: 35000
Column name: XBridge C18 3.5um, 2.1x50mm, Waters
Retention time: 2.6 min
Base peak: 302.1753
Precursor m/z: 302.1751
Precursor type: [M+H]+
m/z	relative intensity	assigned
57.0336	17	C3H5O+
58.0653	10	C3H8N+
65.0385	2	C5H5+
67.0542	22	C5H7+
69.0336	2	C4H5O+
70.0652	3	C4H8N+
71.0491	2	C4H7O+
77.0384	2	C6H5+
78.0465	2	C6H6+
79.0543	24	C6H7+
81.07	10	C6H9+
82.0651	3	C5H8N+
83.0493	14	C5H7O+
91.0543	64	C7H7+
93.0698	3	C7H9+
94.0412	10	C6H6O+
94.065	2	C6H8N+
95.0492	16	C6H7O+
95.0857	2	C7H11+
96.0808	2	C6H10N+
102.0464	4	C8H6+
103.0543	67	C8H7+
105.0448	8	C6H5N2+
105.0699	23	C8H9+
107.0492	17	C7H7O+
109.0647	8	C7H9O+
115.0542	352	C9H7+
116.062	19	C9H8+
117.0699	30	C9H9+
118.0414	18	C8H6O+
119.0491	4	C8H7O+
121.0648	35	C8H9O+
122.0363	19	C7H6O2+
127.0541	9	C10H7+
128.0621	626	C10H8+
129.0699	197	C10H9+
130.0413	3	C9H6O+
130.0778	33	C10H10+
131.0492	59	C9H7O+
131.0857	13	C10H11+
132.0571	9	C9H8O+
133.0647	5	C9H9O+
137.0597	74	C8H9O2+
139.0541	11	C11H7+
140.0622	16	C11H8+
141.0699	659	C11H9+
142.0778	49	C11H10+
143.0493	71	C10H7O+
143.0857	66	C11H11+
144.0571	98	C10H8O+
145.0649	81	C10H9O+
146.0362	29	C9H6O2+
146.0728	17	C10H10O+
147.044	2	C9H7O2+
147.0805	14	C10H11O+
151.0753	5	C9H11O2+
152.0621	182	C12H8+
153.07	204	C12H9+
154.0778	41	C12H10+
155.0494	55	C11H7O+
155.0602	44	C10H7N2+
155.0856	109	C12H11+
156.057	265	C11H8O+
157.0649	88	C11H9O+
157.1011	12	C12H13+
158.0727	525	C11H10O+
159.044	10	C10H7O2+
159.0805	100	C11H11O+
160.0519	12	C10H8O2+
160.0759	3	C10H10NO+
161.0598	207	C10H9O2+
161.0963	21	C11H13O+
162.0676	5	C10H10O2+
163.0754	8	C10H11O2+
164.0613	2	C13H8+
165.07	492	C13H9+
166.0777	65	C13H10+
167.0856	159	C13H11+
168.0571	90	C12H8O+
168.0934	9	C13H12+
169.0649	113	C12H9O+
169.0759	36	C11H9N2+
169.101	7	C13H13+
170.0363	14	C11H6O2+
170.0729	30	C12H10O+
171.0442	58	C11H7O2+
171.0805	999	C12H11O+
172.0519	44	C11H8O2+
172.0884	14	C12H12O+
173.0962	165	C12H13O+
174.0674	20	C11H10O2+
175.0754	31	C11H11O2+
176.0622	33	C14H8+
177.07	76	C14H9+
178.0777	51	C14H10+
179.0605	3	C12H7N2+
179.0855	10	C14H11+
181.0647	80	C13H9O+
182.073	53	C13H10O+
183.0442	72	C12H7O2+
183.0806	135	C13H11O+
184.052	95	C12H8O2+
184.0883	58	C13H12O+
185.0599	68	C12H9O2+
185.0961	27	C13H13O+
186.0677	61	C12H10O2+
187.0754	46	C12H11O2+
188.0832	4	C12H12O2+
189.0696	4	C15H9+
189.091	27	C12H13O2+
190.0779	4	C15H10+
191.0854	3	C15H11+
193.0649	25	C14H9O+
193.076	10	C13H9N2+
193.1009	8	C15H13+
194.0727	67	C14H10O+
195.0805	87	C14H11O+
196.0523	3	C13H8O2+
196.0884	47	C14H12O+
197.0599	56	C13H9O2+
197.0962	15	C14H13O+
198.0676	80	C13H10O2+
199.0754	651	C13H11O2+
200.0834	11	C13H12O2+
201.091	110	C13H13O2+
202.0777	12	C16H10+
202.0864	3	C12H12NO2+
205.0651	2	C15H9O+
207.0804	9	C15H11O+
209.0598	8	C14H9O2+
209.096	4	C15H13O+
210.0676	12	C14H10O2+
211.0754	26	C14H11O2+
212.0835	28	C14H12O2+
213.0911	13	C14H13O2+
214.0625	14	C13H10O3+
215.1067	3	C14H15O2+
221.0959	3	C16H13O+
223.0756	4	C15H11O2+
225.0913	28	C15H13O2+
227.1067	25	C15H15O2+
228.1024	3	C14H14NO2+
243.102	2	C15H15O3+
268.133	3	C17H18NO2+
302.1746	2	C18H24NO3+
