Mass spectrum: Asulam-TP Sulfanilamide; LC-ESI-QFT; MS2; CE: 180%; R=17500; [M+H]+
Name: Asulam-TP Sulfanilamide
Name: Sulfanilamide
Name: 4-aminobenzenesulfonamide
Formula: C6H8N2O2S
Exact mass: 172.0306
SMILES: C1=C(C=CC(=C1)S(=O)(=O)N)N
InChI: InChI=1S/C6H8N2O2S/c7-5-1-3-6(4-2-5)11(8,9)10/h1-4H,7H2,(H2,8,9,10)
Instrument: Q Exactive Plus Orbitrap Thermo Scientific
Instrument type: LC-ESI-QFT
Ms type: MS2
Ion mode: POSITIVE
Ionization: ESI
Fragmentation mode: HCD
Collision energy: 180 % (nominal)
Resolution: 17500
Column name: XBridge C18 3.5um, 2.1x50mm, Waters
Retention time: 1.130 min
Base peak: 156.0115
Precursor m/z: 173.0379
Precursor type: [M+H]+
m/z	relative intensity	assigned
50.0151	999	C4H2+
51.023	53	C4H3+
52.0182	15	C3H2N+
53.0022	115	C3HO+
53.0386	76	C4H5+
53.9974	17	C2NO+
54.0338	40	C3H4N+
55.0178	11	C3H3O+
62.015	11	C5H2+
63.0228	51	C5H3+
65.0022	59	C4HO+
65.0259	15	
65.0386	690	C5H5+
66.01	14	
66.0339	20	C4H4N+
66.0464	321	C5H6+
67.0416	14	C4H5N+
74.0151	504	C6H2+
75.0229	432	C6H3+
76.0307	608	C6H4+
78.0337	30	C5H4N+
80.0494	82	C5H6N+
81.0333	19	C5H5O+
92.0496	96	C6H6N+
93.0573	68	C6H7N+
125.0471	20	C6H7NO2+
