Mass spectrum: Valsartan acid; LC-ESI-QFT; MS2; CE: 150; R=35000; [M+H]+
Name: Valsartan acid
Name: 4-[2-(2H-1,2,3,4-tetrazol-5-yl)phenyl]benzoic acid
Formula: C14H10N4O2
Exact mass: 266.08038
SMILES: C1=CC=C(C(=C1)C2=CC=C(C=C2)C(=O)O)C3=NNN=N3
InChI: InChI=1S/C14H10N4O2/c19-14(20)10-7-5-9(6-8-10)11-3-1-2-4-12(11)13-15-17-18-16-13/h1-8H,(H,19,20)(H,15,16,17,18)
Instrument: Q Exactive Plus Orbitrap Thermo Scientific
Instrument type: LC-ESI-QFT
Ms type: MS2
Ion mode: POSITIVE
Ionization: ESI
Fragmentation mode: HCD
Collision energy: 150 (nominal)
Resolution: 35000
Column name: XBridge C18 3.5um, 2.1x50mm, Waters
Retention time: 6.8 min
Base peak: 267.0873
Precursor m/z: 267.0877
Precursor type: [M+H]+
m/z	relative intensity	assigned
50.0151	43	C4H2+
51.0229	35	C4H3+
53.0386	25	C4H5+
61.0072	1	C5H+
62.015	1	C5H2+
63.0229	10	C5H3+
65.0022	1	C4HO+
65.0385	3	C5H5+
74.015	17	C6H2+
75.0229	76	C6H3+
76.0181	3	C5H2N+
76.0306	10	C6H4+
77.0385	67	C6H5+
78.0464	9	C6H6+
81.0335	3	C5H5O+
86.0149	1	C7H2+
87.0229	6	C7H3+
88.0181	1	C6H2N+
89.0385	13	C7H5+
90.0464	2	C7H6+
91.0542	2	C7H7+
94.0413	1	C6H6O+
95.0491	98	C6H7O+
98.0151	15	C8H2+
99.0229	71	C8H3+
100.0182	2	C7H2N+
100.0307	7	C8H4+
101.0386	10	C8H5+
102.0339	3	C7H4N+
102.0464	17	C8H6+
105.0447	58	C6H5N2+
110.0151	2	C9H2+
111.0229	3	C9H3+
113.0385	17	C9H5+
114.034	2	C8H4N+
115.0542	25	C9H7+
119.0492	7	C8H7O+
122.0151	3	C10H2+
123.0229	13	C10H3+
124.0179	1	C9H2N+
124.0307	11	C10H4+
125.0386	119	C10H5+
126.0464	42	C10H6+
127.0416	16	C9H5N+
127.0542	15	C10H7+
128.062	2	C10H8+
129.0447	19	C8H5N2+
130.0399	4	C7H4N3+
137.0386	4	C11H5+
138.0463	2	C11H6+
139.0542	23	C11H7+
140.0494	15	C10H6N+
143.0491	20	C10H7O+
145.0648	6	C10H9O+
148.0308	1	C12H4+
149.0386	41	C12H5+
150.0464	999	C12H6+
151.0416	37	C11H5N+
151.0542	77	C12H7+
152.0495	9	C11H6N+
152.062	82	C12H8+
153.0339	1	C11H5O+
153.0446	14	C10H5N2+
153.0572	1	C11H7N+
154.04	1	C9H4N3+
155.049	2	C11H7O+
155.0603	15	C10H7N2+
163.0542	5	C13H7+
164.0494	17	C12H6N+
165.0448	1	C11H5N2+
167.0491	14	C12H7O+
168.0443	1	C11H6NO+
168.0569	6	C12H8O+
169.0648	200	C12H9O+
170.06	11	C11H8NO+
175.0416	30	C13H5N+
176.0494	11	C13H6N+
177.0573	246	C13H7N+
178.0652	2	C13H8N+
179.0603	71	C12H7N2+
180.0558	3	C11H6N3+
183.0803	1	C13H11O+
185.0597	11	C12H9O2+
191.0602	2	C13H7N2+
194.06	31	C13H8NO+
195.0551	1	C12H7N2O+
204.0557	30	C13H6N3+
