Mass spectrum: Chlorthal-dimethyl; LC-ESI-QFT; MS2; CE: 30; R=35000; [M+H]+
Name: Chlorthal-dimethyl
Name: Dimethyl 2,3,5,6-tetrachloroterephthalate
Name: Dimethyl 2,3,5,6-tetrachlorobenzene-1,4-dicarboxylate
Formula: C10H6Cl4O4
Exact mass: 329.90202
SMILES: COC(=O)C1=C(C(=C(C(=C1Cl)Cl)C(=O)OC)Cl)Cl
InChI: InChI=1S/C10H6Cl4O4/c1-17-9(15)3-5(11)7(13)4(10(16)18-2)8(14)6(3)12/h1-2H3
Instrument: Q Exactive Plus Orbitrap Thermo Scientific
Instrument type: LC-ESI-QFT
Ms type: MS2
Ion mode: POSITIVE
Ionization: ESI
Fragmentation mode: HCD
Collision energy: 30 (nominal)
Resolution: 35000
Column name: XBridge C18 3.5um, 2.1x50mm, Waters
Retention time: 13.4 min
Base peak: 245.1745
Precursor m/z: 330.9093
Precursor type: [M+H]+
m/z	relative intensity	assigned
79.0542	1	C6H7+
98.9843	999	CH4ClO3+
192.9377	1	C7H4Cl3+
220.896	3	C7Cl3O2+
227.9068	4	C7H4Cl4+
239.9146	1	C7H3Cl3O3+
240.8778	35	C7HCl4O+
254.8935	1	C8H3Cl4O+
270.8881	5	C8H3Cl4O2+
271.8956	4	C8H4Cl4O2+
286.9197	7	C9H7Cl4O2+
298.8835	406	C9H3Cl4O3+
330.9096	54	C10H7Cl4O4+
