Mass spectrum: Ipconazole; LC-ESI-QFT; MS2; CE: 120%; R=17500; [M+H]+
Name: Ipconazole
Name: 2-[(4-chlorophenyl)methyl]-5-propan-2-yl-1-(1,2,4-triazol-1-ylmethyl)cyclopentan-1-ol
Formula: C18H24ClN3O
Exact mass: 333.1608
SMILES: CC(C)C1CCC(C1(CN2C=NC=N2)O)CC3=CC=C(C=C3)Cl
InChI: InChI=1S/C18H24ClN3O/c1-13(2)17-8-5-15(9-14-3-6-16(19)7-4-14)18(17,23)10-22-12-20-11-21-22/h3-4,6-7,11-13,15,17,23H,5,8-10H2,1-2H3
Instrument: Exploris 240 Orbitrap Thermo Scientific
Instrument type: LC-ESI-QFT
Ms type: MS2
Ion mode: POSITIVE
Ionization: ESI
Fragmentation mode: HCD
Collision energy: 120 % (nominal)
Resolution: 17500
Column name: XBridge C18 3.5um, 2.1x50mm, Waters
Retention time: 12.632 min
Base peak: 334.1677
Precursor m/z: 334.1681
Precursor type: [M+H]+
m/z	relative intensity	assigned
67.0542	5	C5H7+
70.0399	999	C2H4N3+
89.0386	41	C7H5+
90.0465	17	C7H6+
98.9996	24	C5H4Cl+
115.0541	11	C9H7+
116.0622	8	C9H8+
125.0152	124	C7H6Cl+
128.0622	10	C10H8+
