Mass spectrum: Triclabendazole; LC-ESI-QFT; MS2; CE: 150; R=35000; [M+H]+
Name: Triclabendazole
Name: Triclabendazol
Name: 6-chloro-5-(2,3-dichlorophenoxy)-2-methylsulfanyl-1H-benzimidazole
Formula: C14H9Cl3N2OS
Exact mass: 357.95012
SMILES: CSc1[nH]c2cc(c(cc2n1)Oc3cccc(c3Cl)Cl)Cl
InChI: InChI=1S/C14H9Cl3N2OS/c1-21-14-18-9-5-8(16)12(6-10(9)19-14)20-11-4-2-3-7(15)13(11)17/h2-6H,1H3,(H,18,19)
Instrument: Q Exactive Plus Orbitrap Thermo Scientific
Instrument type: LC-ESI-QFT
Ms type: MS2
Ion mode: POSITIVE
Ionization: ESI
Fragmentation mode: HCD
Collision energy: 150 (nominal)
Resolution: 35000
Column name: XBridge C18 3.5um, 2.1x50mm, Waters
Retention time: 14.2 min
Base peak: 360.954
Precursor m/z: 358.9574
Precursor type: [M+H]+
m/z	relative intensity	assigned
50.0151	58	C4H2+
51.0104	2	C3HN+
51.0229	28	C4H3+
52.0182	112	C3H2N+
53.0022	42	C3HO+
53.0386	10	C4H5+
53.9975	2	C2NO+
54.0338	17	C3H4N+
55.0179	18	C3H3O+
56.9793	7	C2HS+
57.9871	14	C2H2S+
58.995	4	C2H3S+
59.9665	47	COS+
59.9903	29	CH2NS+
60.984	18	C2H2Cl+
61.0073	17	C5H+
61.9792	295	CHClN+
62.0151	68	C5H2+
63.0229	268	C5H3+
64.0182	729	C4H2N+
65.0022	13	C4HO+
65.026	95	C4H3N+
65.0386	12	C5H5+
66.01	4	C4H2O+
66.0213	3	C3H2N2+
66.0338	44	C4H4N+
66.0464	9	C5H6+
67.0291	13	C3H3N2+
67.0416	2	C4H5N+
68.0131	43	C3H2NO+
68.9793	205	C3HS+
69.9746	38	C2NS+
69.9872	47	C3H2S+
71.9903	17	C2H2NS+
72.9839	327	C3H2Cl+
73.9792	39	C2HClN+
74.015	126	C6H2+
75.0103	100	C5HN+
75.0229	256	C6H3+
76.0181	977	C5H2N+
77.0022	11	C5HO+
77.0259	87	C5H3N+
77.0385	23	C6H5+
78.0338	546	C5H4N+
78.9403	155	CClS+
80.0131	9	C4H2NO+
80.0368	3	C4H4N2+
80.9793	19	C4HS+
81.0335	17	C5H5O+
81.9872	72	C4H2S+
82.0287	76	C4H4NO+
82.9824	11	C3HNS+
82.9949	25	C4H3S+
83.0365	10	C4H5NO+
83.9761	4	C4HCl+
83.9903	53	C3H2NS+
84.9839	141	C4H2Cl+
85.9695	76	C2NOS+
85.9792	218	C3HClN+
85.9915	17	C4H3Cl+
86.9997	5	C4H4Cl+
87.0229	10	C7H3+
87.9948	20	C3H3ClN+
88.0182	52	C6H2N+
88.0307	12	C7H4+
89.026	22	C6H3N+
89.0385	21	C7H5+
90.0105	215	C3H5ClN+
90.0339	166	C6H4N+
91.0291	392	C5H3N2+
91.0417	22	C6H5N+
92.0369	284	C5H4N2+
92.9794	92	C5HS+
93.9747	18	C4NS+
93.9872	126	C5H2S+
94.0288	12	
94.9825	3	C4HNS+
94.995	14	C5H3S+
95.0492	44	C6H7O+
95.9902	37	C4H2NS+
96.0028	5	C5H4S+
96.0444	10	C5H6NO+
96.984	121	C5H2Cl+
97.9792	19	C4HClN+
97.9937	19	C3H2N2S+
98.0152	34	C8H2+
98.9995	10	C5H4Cl+
99.0229	143	C8H3+
99.9948	604	C4H3ClN+
101.0023	5	C7HO+
101.0135	10	C6HN2+
101.0386	11	C8H5+
102.0339	30	C7H4N+
102.0465	33	C8H6+
102.9403	24	C3ClS+
103.0291	151	C6H3N2+
103.0416	18	C7H5N+
104.0369	41	C6H4N2+
104.0495	16	C7H6N+
105.0448	29	C6H5N2+
105.9512	13	C2HClNS+
106.9825	4	C5HNS+
107.9902	230	C5H2NS+
108.9839	24	C6H2Cl+
108.9981	110	C5H3NS+
109.9793	10	C5HClN+
110.006	5	C5H4NS+
110.9998	12	C6H4Cl+
111.9948	203	C5H3ClN+
113.0026	34	C5H4ClN+
113.0386	91	C9H5+
113.9741	35	C4HClNO+
114.0339	18	C8H4N+
114.0464	3	C9H6+
115.0418	4	C8H5N+
115.0542	54	C9H7+
116.0371	21	C7H4N2+
116.956	47	C4H2ClS+
117.0448	23	C7H5N2+
118.0052	24	C4H5ClNO+
118.0411	2	C8H6O+
118.0525	46	C7H6N2+
119.0494	10	C8H7O+
119.9903	75	C6H2NS+
120.0446	9	C7H6NO+
120.9981	138	C6H3NS+
121.0396	17	C6H5N2O+
122.0152	11	C10H2+
122.9997	3	C7H4Cl+
123.0102	3	C9HN+
123.023	69	C10H3+
123.9951	29	C6H3ClN+
124.0182	35	C9H2N+
124.0308	60	C10H4+
125.0028	33	C6H4ClN+
125.0386	338	C10H5+
126.0464	999	C10H6+
127.0058	778	C5H4ClN2+
127.0416	51	C9H5N+
127.9897	18	C5H3ClNO+
128.0496	13	C9H6N+
128.956	193	C5H2ClS+
129.0101	20	C6H6ClO+
129.0447	56	C8H5N2+
129.9514	11	C4HClNS+
130.0054	33	C5H5ClNO+
130.0399	28	C7H4N3+
130.0525	11	C8H6N2+
131.9846	5	CH6Cl2N2O+
132.9838	2	C8H2Cl+
135.0011	87	C6H3N2S+
136.0075	122	C8H5Cl+
136.0268	10	C6H4N2O2+
136.9904	3	C6H2ClN2+
137.0386	29	C11H5+
138.0105	26	C7H5ClN+
138.0339	48	C10H4N+
139.0058	231	C6H4ClN2+
139.0417	19	C10H5N+
140.0495	353	C10H6N+
142.0056	3	C6H5ClNO+
143.0492	88	C10H7O+
143.9669	129	C5H3ClNS+
145.0163	14	C5H6ClN2O+
145.0508	11	C7H5N4+
146.9666	12	C5H4ClOS+
147.0005	40	C7H3N2S+
148.009	677	C7H4N2S+
149.0154	17	C9H6Cl+
149.9981	3	C7H3ClN2+
150.0338	32	C11H4N+
150.0464	5	C12H6+
151.0417	577	C11H5N+
152.0495	229	C11H6N+
153.0214	14	C7H6ClN2+
153.0337	12	C11H5O+
153.0447	63	C10H5N2+
153.0573	192	C11H7N+
154.04	17	C9H4N3+
155.0007	4	C6H4ClN2O+
155.9668	60	C6H3ClNS+
156.003	10	C10H4S+
156.0446	10	
157.0108	15	C10H5S+
157.0522	39	C10H7NO+
158.9996	26	C10H4Cl+
160.0075	476	C10H5Cl+
161.0027	22	C9H4ClN+
161.0151	49	C10H6Cl+
162.0105	14	C9H5ClN+
162.0338	9	C12H4N+
163.0058	12	C8H4ClN2+
163.0325	47	C8H7N2S+
164.0492	10	C12H6N+
165.0215	4	C8H6ClN2+
165.0446	22	C11H5N2+
166.0524	17	C11H6N2+
167.0367	15	C11H5NO+
167.0606	5	C11H7N2+
168.0443	48	C11H6NO+
169.0105	2	C11H5S+
169.0523	4	C11H7NO+
169.9685	24	C8H4Cl2+
170.06	235	C11H8NO+
170.9778	335	C9HNOS+
170.9991	17	C11H4Cl+
173.0158	11	C11H6Cl+
174.0105	138	C10H5ClN+
176.0023	29	C10H5ClO+
176.0373	5	C12H4N2+
177.0101	3	C10H6ClO+
177.0448	13	C12H5N2+
178.0399	12	C11H4N3+
178.0525	47	C12H6N2+
179.0258	20	C10H8ClO+
179.049	13	C13H7O+
179.0604	179	C12H7N2+
180.0444	184	C12H6NO+
180.0556	64	C11H6N3+
181.0521	15	C12H7NO+
183.0137	88	C11H5NS+
184.0217	15	C11H6NS+
185.0027	43	C11H4ClN+
185.0162	5	C10H5N2S+
185.0473	2	C8H10ClN2O+
186.0105	45	C11H5ClN+
187.0183	82	C11H6ClN+
188.0261	49	C11H7ClN+
189.0102	95	C11H6ClO+
189.0213	69	C10H6ClN2+
190.0055	12	C10H5ClNO+
191.9791	5	C10H5ClS+
193.9685	25	C10H4Cl2+
194.0057	9	C12H4NS+
194.0475	5	C12H6N2O+
195.0553	23	C12H7N2O+
195.9842	4	C10H6Cl2+
198.055	3	C12H8NO2+
200.0026	20	C12H5ClO+
202.0053	5	C11H5ClNO+
203.0131	10	C11H6ClNO+
204.021	40	C11H7ClNO+
206.0474	9	C13H6N2O+
207.0551	26	C13H7N2O+
209.0171	3	C12H5N2S+
210.0246	10	C12H6N2S+
211.0326	46	C12H7N2S+
212.0163	22	C12H6NOS+
213.0213	24	C12H6ClN2+
214.0057	95	C12H5ClNO+
214.0167	13	
215.0133	46	C12H6ClNO+
216.021	11	C12H7ClNO+
216.9746	5	C11H4ClNS+
220.016	3	C8H10Cl2N2O+
220.982	3	C11H6ClOS+
222.9712	5	C11H5Cl2O+
229.016	4	C12H6ClN2O+
241.0163	14	C13H6ClN2O+
242.0241	79	C13H7ClN2O+
245.9773	37	C12H5ClNOS+
247.9665	3	C12H4Cl2NO+
