Mass spectrum: Brodifacoum; LC-ESI-QFT; MS2; CE: 30%; R=17500; [M+H]+
Name: Brodifacoum
Name: 3-[3-[4-(4-bromophenyl)phenyl]-1,2,3,4-tetrahydronaphthalen-1-yl]-4-hydroxychromen-2-one
Formula: C31H23BrO3
Exact mass: 522.0831
SMILES: C1C(CC2=CC=CC=C2C1C3=C(C4=CC=CC=C4OC3=O)O)C5=CC=C(C=C5)C6=CC=C(C=C6)Br
InChI: InChI=1S/C31H23BrO3/c32-24-15-13-20(14-16-24)19-9-11-21(12-10-19)23-17-22-5-1-2-6-25(22)27(18-23)29-30(33)26-7-3-4-8-28(26)35-31(29)34/h1-16,23,27,33H,17-18H2
Instrument: Exploris 240 Orbitrap Thermo Scientific
Instrument type: LC-ESI-QFT
Ms type: MS2
Ion mode: POSITIVE
Ionization: ESI
Fragmentation mode: HCD
Collision energy: 30 % (nominal)
Resolution: 17500
Column name: XBridge C18 3.5um, 2.1x50mm, Waters
Retention time: 16.530 min
Base peak: 523.0906
Precursor m/z: 523.0903
Precursor type: [M+H]+
m/z	relative intensity	assigned
91.0543	13	C7H7+
117.0697	8	C9H9+
129.0703	8	C10H9+
163.0389	14	C9H7O3+
165.0699	71	C13H9+
175.039	149	C10H7O3+
178.0777	237	C14H10+
179.0858	7	C14H11+
189.0545	125	C11H9O3+
242.9811	19	C13H8Br+
244.9952	12	C13H10Br+
256.1247	166	C20H16+
256.9965	22	C14H10Br+
291.1017	120	C19H15O3+
335.0431	999	C20H16Br+
361.0602	4	C22H18Br+
419.0281	20	C23H16BrO3+
523.0908	60	C31H24BrO3+
