Mass spectrum: Myclobutanil; LC-ESI-ITFT; MS2; CE: 45%; R=7500; [M+H]+
Name: Myclobutanil
Name: MYC
Name: 2-(4-chlorophenyl)-2-(1,2,4-triazol-1-ylmethyl)hexanenitrile
Formula: C15H17ClN4
Exact mass: 288.1142
SMILES: Clc1ccc(cc1)C(C#N)(CCCC)Cn2ncnc2
InChI: InChI=1S/C15H17ClN4/c1-2-3-8-15(9-17,10-20-12-18-11-19-20)13-4-6-14(16)7-5-13/h4-7,11-12H,2-3,8,10H2,1H3
Instrument: LTQ Orbitrap XL Thermo Scientific
Instrument type: LC-ESI-ITFT
Ms type: MS2
Ion mode: POSITIVE
Ionization: ESI
Fragmentation mode: HCD
Collision energy: 45 % (nominal)
Resolution: 7500
Column name: XBridge C18 3.5um, 2.1x50mm, Waters
Retention time: 11.2 min
Base peak: 289.1218
Precursor m/z: 289.1215
Precursor type: [M+H]+
m/z	relative intensity	assigned
55.0543	1	C4H7+
70.04	999	C2H4N3+
81.07	5	C6H9+
82.04	3	C3H4N3+
82.065	5	C5H8N+
83.0478	7	C3H5N3+
94.0651	1	C6H8N+
95.0729	5	C6H9N+
108.0807	5	C7H10N+
125.0153	631	C7H6Cl+
130.0652	3	C9H8N+
131.0735	1	C9H9N+
137.0155	1	C8H6Cl+
139.0312	6	C8H8Cl+
149.0159	3	C9H6Cl+
150.0106	9	C8H5ClN+
151.031	161	C9H8Cl+
163.0309	5	C10H8Cl+
164.0262	57	C9H7ClN+
165.0342	14	C9H8ClN+
166.0418	22	C9H9ClN+
167.0857	4	C13H11+
168.0933	10	C13H12+
175.0314	4	C11H8Cl+
177.0466	1	C11H10Cl+
178.0419	32	C10H9ClN+
184.1126	3	C13H14N+
185.1201	7	C13H15N+
191.0505	3	C11H10ClN+
192.0577	10	C11H11ClN+
193.078	29	C12H14Cl+
203.062	21	C13H12Cl+
220.089	47	C13H15ClN+
