Mass spectrum: 2-Acetylpyrazine; LC-ESI-QFT; MS2; CE: 120%; R=17500; [M+H]+
Name: 2-Acetylpyrazine
Name: Acetylpyrazine
Name: 1-pyrazin-2-ylethanone
Formula: C6H6N2O
Exact mass: 122.0480128
SMILES: CC(=O)C1=NC=CN=C1
InChI: InChI=1S/C6H6N2O/c1-5(9)6-4-7-2-3-8-6/h2-4H,1H3
Instrument: Exploris 240 Orbitrap Thermo Scientific
Instrument type: LC-ESI-QFT
Ms type: MS2
Ion mode: POSITIVE
Ionization: ESI
Fragmentation mode: HCD
Collision energy: 120 % (nominal)
Resolution: 17500
Column name: XBridge C18 3.5um, 2.1x50mm, Waters
Retention time: 2.489 min
Base peak: 132.9582
Precursor m/z: 123.0553
Precursor type: [M+H]+
m/z	relative intensity	assigned
42.0338	3	C2H4N+
43.0178	87	C2H3O+
51.0229	6	C4H3+
52.0181	45	C3H2N+
53.0259	5	C3H3N+
54.0338	349	C3H4N+
68.0495	10	C4H6N+
78.0337	14	C5H4N+
79.0291	20	C4H3N2+
80.0369	19	C4H4N2+
81.0447	999	C4H5N2+
95.0604	26	C5H7N2+
97.0397	24	C4H5N2O+
105.0446	31	C6H5N2+
123.0551	22	C6H7N2O+
