Mass spectrum: Fexofenadine; LC-ESI-QFT; MS2; CE: 90; R=35000; [M+H]+
Name: Fexofenadine
Name: 2-[4-[1-hydroxy-4-[4-[hydroxy(diphenyl)methyl]-1-piperidinyl]butyl]phenyl]-2-methylpropanoic acid
Formula: C32H39NO4
Exact mass: 501.28791
SMILES: CC(C)(C1=CC=C(C=C1)C(CCCN2CCC(CC2)C(C3=CC=CC=C3)(C4=CC=CC=C4)O)O)C(=O)O
InChI: InChI=1S/C32H39NO4/c1-31(2,30(35)36)25-17-15-24(16-18-25)29(34)14-9-21-33-22-19-28(20-23-33)32(37,26-10-5-3-6-11-26)27-12-7-4-8-13-27/h3-8,10-13,15-18,28-29,34,37H,9,14,19-23H2,1-2H3,(H,35,36)
Instrument: Q Exactive Orbitrap Thermo Scientific
Instrument type: LC-ESI-QFT
Ms type: MS2
Ion mode: POSITIVE
Ionization: ESI
Fragmentation mode: HCD
Collision energy: 90 (nominal)
Resolution: 35000
Column name: XBridge C18 3.5um, 2.1x50mm, Waters
Retention time: 8.2 min
Base peak: 502.2954
Precursor m/z: 502.2952
Precursor type: [M+H]+
m/z	relative intensity	assigned
70.0651	17	C4H8N+
77.0386	4	C6H5+
79.0542	34	C6H7+
80.0495	32	C5H6N+
81.0699	10	C6H9+
82.0651	64	C5H8N+
83.073	15	C5H9N+
84.0809	17	C5H10N+
87.0441	9	C4H7O2+
89.0384	2	C7H5+
91.0542	999	C7H7+
93.07	3	C7H9+
94.0651	34	C6H8N+
95.0491	23	C6H7O+
96.0808	55	C6H10N+
98.0965	43	C6H12N+
103.0543	55	C8H7+
104.0621	2	C8H8+
105.0333	8	C7H5O+
105.0699	100	C8H9+
107.0492	69	C7H7O+
108.0809	2	C7H10N+
110.0966	4	C7H12N+
115.0542	202	C9H7+
116.0621	118	C9H8+
117.0699	172	C9H9+
118.0776	11	C9H10+
119.0856	8	C9H11+
120.0808	15	C8H10N+
121.0284	3	C7H5O2+
121.0646	3	C8H9O+
122.0966	15	C8H12N+
124.1121	12	C8H14N+
128.0621	467	C10H8+
129.0699	476	C10H9+
130.0778	61	C10H10+
131.0856	316	C10H11+
132.0935	9	C10H12+
133.0648	2	C9H9O+
133.1013	10	C10H13+
141.0699	144	C11H9+
142.0779	79	C11H10+
143.0856	414	C11H11+
144.0808	2	C10H10N+
145.0649	46	C10H9O+
145.1012	51	C11H13+
146.0725	28	C10H10O+
146.1091	2	C11H14+
147.0805	3	C10H11O+
150.0677	13	
152.0622	21	C12H8+
153.0699	11	C12H9+
154.0777	12	C12H10+
155.0604	38	C10H7N2+
155.0856	31	C12H11+
156.0934	83	C12H12+
157.1013	13	C12H13+
159.117	4	C12H15+
165.07	31	C13H9+
166.0778	15	C13H10+
167.0855	18	C13H11+
169.1013	20	C13H13+
170.0965	24	C12H12N+
171.1169	170	C13H15+
173.1328	3	C13H17+
177.0914	3	C11H13O2+
178.078	22	C14H10+
179.085	2	C14H11+
181.1011	2	C14H13+
190.0776	9	C15H10+
191.0703	69	C11H11O3+
191.0848	14	C15H11+
202.0776	14	C16H10+
203.0855	41	C16H11+
204.0934	25	C16H12+
205.1011	8	C16H13+
210.1269	2	C15H16N+
215.0858	20	C17H11+
217.1013	14	C17H13+
218.1091	4	C17H14+
231.1162	2	C18H15+
246.1275	3	C18H16N+
