Mass spectrum: Oryzalin; LC-ESI-QFT; MS2; CE: 90; R=35000; [M-H]-
Name: Oryzalin
Name: 4-(dipropylamino)-3,5-dinitro-benzenesulfonamide
Formula: C12H18N4O6S
Exact mass: 346.09471
SMILES: [O-][N+](=O)c1cc(cc([N+]([O-])=O)c1N(CCC)CCC)S(=O)(=O)N
InChI: InChI=1S/C12H18N4O6S/c1-3-5-14(6-4-2)12-10(15(17)18)7-9(23(13,21)22)8-11(12)16(19)20/h7-8H,3-6H2,1-2H3,(H2,13,21,22)
Instrument: Q Exactive Orbitrap Thermo Scientific
Instrument type: LC-ESI-QFT
Ms type: MS2
Ion mode: NEGATIVE
Ionization: ESI
Fragmentation mode: HCD
Collision energy: 90 (nominal)
Resolution: 35000
Column name: XBridge C18 3.5um, 2.1x50mm, Waters
Retention time: 12.1 min
Base peak: 345.0875
Precursor m/z: 345.0874
Precursor type: [M-H]-
m/z	relative intensity	assigned
50.0035	1	C3N-
57.9935	2	CNO2-
61.9706	211	NOS-
63.0114	3	C4HN-
63.9624	151	O2S-
64.0068	14	C3N2-
64.0193	35	C4H2N-
65.0145	182	C3HN2-
65.9985	172	C3NO-
67.0302	10	C3H3N2-
68.0142	18	C3H2NO-
74.0036	8	C5N-
76.0193	19	C5H2N-
77.0146	18	C4HN2-
77.9656	999	NO2S-
78.9734	54	HNO2S-
79.9812	164	H2NO2S-
88.0069	5	C5N2-
89.0146	183	C5HN2-
89.9986	14	C5NO-
90.0098	9	C4N3-
90.0225	4	C5H2N2-
90.035	5	C6H4N-
91.0302	31	C5H3N2-
92.0143	20	C5H2NO-
92.0255	2	C4H2N3-
93.0095	11	C4HN2O-
93.0458	10	C5H5N2-
93.9605	3	NO3S-
94.0299	30	C5H4NO-
95.0138	4	C5H3O2-
97.0407	4	C4H5N2O-
101.0147	2	C6HN2-
102.0098	10	C5N3-
103.0302	2	C6H3N2-
104.0254	2	C5H2N3-
104.038	14	C6H4N2-
105.0096	3	C5HN2O-
105.0221	10	C6H3NO-
105.0333	8	C5H3N3-
105.0458	3	C6H5N2-
106.0173	28	C5H2N2O-
106.0298	3	C6H4NO-
106.0411	3	C5H4N3-
107.0252	29	C5H3N2O-
107.0375	3	C6H5NO-
108.0329	3	C5H4N2O-
108.0456	4	C6H6NO-
109.017	2	C5H3NO2-
109.0408	10	C5H5N2O-
114.0099	3	C6N3-
115.0303	44	C7H3N2-
116.0256	100	C6H2N3-
117.0334	2	C6H3N3-
117.046	21	C7H5N2-
118.0298	4	C7H4NO-
118.0412	20	C6H4N3-
118.0664	3	C8H8N-
119.0251	60	C6H3N2O-
119.0614	11	C7H7N2-
120.009	8	C6H2NO2-
120.0207	2	C5H2N3O-
120.0327	1	C6H4N2O-
120.0455	4	C7H6NO-
120.0568	17	C6H6N3-
121.0408	66	C6H5N2O-
122.0248	16	C6H4NO2-
122.0487	3	C6H6N2O-
123.0561	2	C6H7N2O-
129.0334	29	C7H3N3-
130.0174	7	C7H2N2O-
130.0284	2	C6H2N4-
130.041	10	C7H4N3-
130.0537	14	C8H6N2-
131.0252	21	C7H3N2O-
131.0489	40	C7H5N3-
131.0616	5	C8H7N2-
132.033	68	C7H4N2O-
132.0567	4	C7H6N3-
132.0693	10	C8H8N2-
133.028	7	C6H3N3O-
133.0408	48	C7H5N2O-
134.0248	13	C7H4NO2-
134.036	11	C6H4N3O-
134.0488	3	C7H6N2O-
134.0612	4	C8H8NO-
135.02	13	C6H3N2O2-
135.0564	4	C7H7N2O-
136.0517	9	C6H6N3O-
137.0356	4	C6H5N2O2-
142.041	21	C8H4N3-
143.0615	18	C9H7N2-
144.0205	3	C7H2N3O-
144.0568	16	C8H6N3-
145.0283	4	C7H3N3O-
145.0406	34	C8H5N2O-
145.0772	4	C9H9N2-
146.0361	21	C7H4N3O-
146.0487	25	C8H6N2O-
146.0724	3	C8H8N3-
147.0201	20	C7H3N2O2-
147.0439	61	C7H5N3O-
147.0566	27	C8H7N2O-
148.0279	10	C7H4N2O2-
148.0514	3	C7H6N3O-
149.0355	10	C7H5N2O2-
149.0716	2	H13N4O3S-
156.0567	12	C9H6N3-
157.0644	12	C9H7N3-
158.0358	8	C8H4N3O-
158.0485	2	C9H6N2O-
158.0722	3	C9H8N3-
159.0565	10	C9H7N2O-
159.0795	2	C9H9N3-
160.0515	11	C8H6N3O-
160.0642	9	C9H8N2O-
161.0231	3	C7H3N3O2-
161.0355	9	C8H5N2O2-
161.0722	4	C9H9N2O-
162.0309	10	C7H4N3O2-
163.0149	10	C7H3N2O3-
169.0521	24	C9H5N4-
170.0597	3	C9H6N4-
172.0519	9	C9H6N3O-
173.0593	8	C9H7N3O-
183.0233	5	C7H7N2O2S-
187.0625	4	C9H7N4O-
188.0464	4	C9H6N3O2-
194.9872	4	C7H3N2O3S-
197.0028	3	C7H5N2O3S-
202.0495	3	C9H6N4O2-
203.057	3	C9H7N4O2-
211.0056	2	C7H5N3O3S-
220.0186	11	C9H6N3O2S-
222.0343	28	C9H8N3O2S-
241.0042	2	C7H5N4O4S-
267.0199	10	C9H7N4O4S-
