Mass spectrum: EPN; LC-ESI-QFT; MS2; CE: 45%; R=17500; [M+H]+
Name: EPN
Name: O-Ethyl O-(4-nitrophenyl) phenylphosphonothioate
Name: ethoxy-(4-nitrophenoxy)-phenyl-sulfanylidene-lambda5-phosphane
Formula: C14H14NO4PS
Exact mass: 323.0381
SMILES: CCOP(=S)(C1=CC=CC=C1)OC2=CC=C(C=C2)[N+](=O)[O-]
InChI: InChI=1S/C14H14NO4PS/c1-2-18-20(21,14-6-4-3-5-7-14)19-13-10-8-12(9-11-13)15(16)17/h3-11H,2H2,1H3
Instrument: Exploris 240 Orbitrap Thermo Scientific
Instrument type: LC-ESI-QFT
Ms type: MS2
Ion mode: POSITIVE
Ionization: ESI
Fragmentation mode: HCD
Collision energy: 45 % (nominal)
Resolution: 17500
Column name: XBridge C18 3.5um, 2.1x50mm, Waters
Retention time: 12.283 min
Base peak: 334.1681
Precursor m/z: 324.0454
Precursor type: [M+H]+
m/z	relative intensity	assigned
62.9454	29	PS+
79.0541	20	C6H7+
94.0413	130	C6H6O+
123.0315	77	C6H5NO2+
138.9767	15	C6H4PS+
139.0087	10	C6H5NOS+
140.0342	88	C6H6NO3+
141.0099	21	C6H6O2P+
156.0112	38	C6H6NO2S+
156.9872	999	C6H6OPS+
159.0206	54	C6H8O3P+
171.974	21	C6H5O2PS+
174.9982	6	C6H8O2PS+
189.0135	64	C7H10O2PS+
199.9569	9	C6H3NO3PS+
216.0337	9	C12H9O2P+
217.9665	28	C10H2O4S+
232.01	8	C12H9OPS+
262.0264	59	C12H9NO4P+
278.0037	132	C12H9NO3PS+
296.0135	50	C12H11NO4PS+
310.0302	8	C13H13NO4PS+
