Mass spectrum: Eprosartan; LC-ESI-ITFT; MS2; CE: 30%; R=7500; [M-H]-
Name: Eprosartan
Name: 4-[[2-butyl-5-[(E)-3-hydroxy-3-keto-2-(2-thenyl)prop-1-enyl]imidazol-1-yl]methyl]benzoic acid
Formula: C23H24N2O4S
Exact mass: 424.1457
SMILES: CCCCC1=NC=C(N1CC2=CC=C(C=C2)C(=O)O)/C=C(\CC3=CC=CS3)/C(=O)O
InChI: InChI=1S/C23H24N2O4S/c1-2-3-6-21-24-14-19(12-18(23(28)29)13-20-5-4-11-30-20)25(21)15-16-7-9-17(10-8-16)22(26)27/h4-5,7-12,14H,2-3,6,13,15H2,1H3,(H,26,27)(H,28,29)/b18-12+
Instrument: LTQ Orbitrap XL Thermo Scientific
Instrument type: LC-ESI-ITFT
Ms type: MS2
Ion mode: NEGATIVE
Ionization: ESI
Fragmentation mode: HCD
Collision energy: 30 % (nominal)
Resolution: 7500
Column name: XBridge C18 3.5um, 2.1x50mm, Waters
Retention time: 6.2 min
Base peak: 423.1373
Precursor m/z: 423.1384
Precursor type: [M-H]-
m/z	relative intensity	assigned
97.0119	49	C5H5S-
135.045	88	C8H7O2-
137.1085	60	C8H13N2-
197.0431	39	C13H9S-
199.0584	232	C13H11S-
215.0646	93	C12H11N2S-
237.1396	284	C16H17N2-
244.1041	734	C14H16N2S-
245.1112	69	C14H17N2S-
281.1295	380	C17H17N2O2-
301.1675	39	C18H23NO3-
335.1588	618	C21H23N2S-
379.1489	999	C22H23N2O2S-
405.1278	35	C23H21N2O3S-
