Mass spectrum: Thiazafluron; LC-ESI-QFT; MS2; CE: 75%; R=17500; [M+H]+
Name: Thiazafluron
Name: 1,3-dimethyl-1-[5-(trifluoromethyl)-1,3,4-thiadiazol-2-yl]urea
Formula: C6H7F3N4OS
Exact mass: 240.0293
SMILES: CNC(=O)N(C)C1=NN=C(S1)C(F)(F)F
InChI: InChI=1S/C6H7F3N4OS/c1-10-4(14)13(2)5-12-11-3(15-5)6(7,8)9/h1-2H3,(H,10,14)
Instrument: Exploris 240 Orbitrap Thermo Scientific
Instrument type: LC-ESI-QFT
Ms type: MS2
Ion mode: POSITIVE
Ionization: ESI
Fragmentation mode: HCD
Collision energy: 75 % (nominal)
Resolution: 17500
Column name: XBridge C18 3.5um, 2.1x50mm, Waters
Retention time: 5.836 min
Base peak: 241.0364
Precursor m/z: 241.0365
Precursor type: [M+H]+
m/z	relative intensity	assigned
57.0447	42	C2H5N2+
58.0286	22	C2H4NO+
59.9902	10	CH2NS+
62.0058	18	CH4NS+
68.9947	15	CF3+
74.0059	999	C2H4NS+
91.0101	231	C2HF2N2+
106.9762	9	C3HF2S+
111.0164	124	C2H2F3N2+
112.0368	9	C3H5F3N+
112.9669	23	C2F3S+
142.9886	41	C2H2F3N2S+
164.0087	171	C4H4F2N3S+
184.015	530	C4H5F3N3S+
