Mass spectrum: Ecgonine-methyl-ester (EME); LC-ESI-QFT; MS2; CE: 90; R=35000; [M+H]+
Name: Ecgonine-methyl-ester (EME)
Name: Ecgonine methyl ester
Name: Methyl 3-hydroxy-8-methyl-8-azabicyclo[3.2.1]octane-4-carboxylate
Formula: C10H17NO3
Exact mass: 199.12084
SMILES: CN1C2CCC1C(C(C2)O)C(=O)OC
InChI: InChI=1S/C10H17NO3/c1-11-6-3-4-7(11)9(8(12)5-6)10(13)14-2/h6-9,12H,3-5H2,1-2H3
Instrument: Q Exactive Plus Orbitrap Thermo Scientific
Instrument type: LC-ESI-QFT
Ms type: MS2
Ion mode: POSITIVE
Ionization: ESI
Fragmentation mode: HCD
Collision energy: 90 (nominal)
Resolution: 35000
Column name: XBridge C18 3.5um, 2.1x50mm, Waters
Retention time: 0.8 min
Base peak: 200.1275
Precursor m/z: 200.1281
Precursor type: [M+H]+
m/z	relative intensity	assigned
53.0021	1	C3HO+
53.0385	9	C4H5+
55.0178	3	C3H3O+
55.0542	9	C4H7+
56.0494	11	C3H6N+
57.0573	25	C3H7N+
58.0287	4	C2H4NO+
58.0651	2	C3H8N+
59.0127	1	C2H3O2+
59.0491	3	C3H7O+
65.0385	143	C5H5+
66.0463	3	C5H6+
67.0416	45	C4H5N+
67.0542	40	C5H7+
68.0494	135	C4H6N+
69.0334	32	C4H5O+
69.0697	2	C5H9+
70.065	29	C4H8N+
71.0126	15	C3H3O2+
71.049	7	C4H7O+
76.0392	1	C2H6NO2+
77.0384	8	C6H5+
79.0541	83	C6H7+
80.0494	20	C5H6N+
81.0335	3	C5H5O+
81.0573	13	C5H7N+
81.0698	28	C6H9+
82.065	999	C5H8N+
83.0728	189	C5H9N+
84.0443	6	C4H6NO+
84.0807	47	C5H10N+
85.0646	1	C5H9O+
90.0463	2	C7H6+
91.0542	207	C7H7+
93.0334	115	C6H5O+
93.0698	28	C7H9+
94.065	124	C6H8N+
95.049	12	C6H7O+
95.0729	12	C6H9N+
95.0854	2	C7H11+
96.0807	85	C6H10N+
97.0647	42	C6H9O+
99.044	1	C5H7O2+
100.0756	65	C5H10NO+
103.054	1	C8H7+
105.0446	7	C6H5N2+
105.0698	6	C8H9+
106.0651	4	C7H8N+
107.049	2	C7H7O+
107.0729	15	C7H9N+
108.0569	3	C7H8O+
108.0807	60	C7H10N+
109.0647	5	C7H9O+
109.0884	2	C7H11N+
114.0912	2	C6H12NO+
117.0571	9	C8H7N+
118.0412	20	C8H6O+
118.065	1	C8H8N+
119.0491	77	C8H7O+
120.0806	4	C8H10N+
121.0647	2	C8H9O+
122.0599	15	C7H8NO+
122.0963	54	C8H12N+
123.0802	2	C8H11O+
124.0755	3	C7H10NO+
124.1119	9	C8H14N+
125.0596	8	C7H9O2+
126.0912	2	C7H12NO+
132.0806	7	C9H10N+
135.0677	11	C8H9NO+
138.0913	1	C8H12NO+
140.107	3	C8H14NO+
150.0912	27	C9H12NO+
151.075	2	C9H11O2+
152.0703	4	C8H10NO2+
154.0861	25	C8H12NO2+
156.1018	1	C8H14NO2+
168.1018	2	C9H14NO2+
182.1174	83	C10H16NO2+
200.1279	2	C10H18NO3+
