Mass spectrum: Iprovalicarb; LC-ESI-ITFT; MS2; CE: 90%; R=30000; [M+H]+
Name: Iprovalicarb
Name: Isopropyl (3-methyl-1-{[(1S)-1-(4-methylphenyl)ethyl]amino}-1-oxo-2-butanyl)carbamate
Formula: C18H28N2O3
Exact mass: 320.2100
SMILES: CC(C)OC(=O)NC(C(=O)N[C@@H](C)c1ccc(C)cc1)C(C)C
InChI: InChI=1S/C18H28N2O3/c1-11(2)16(20-18(22)23-12(3)4)17(21)19-14(6)15-9-7-13(5)8-10-15/h7-12,14,16H,1-6H3,(H,19,21)(H,20,22)/t14-,16?/m0/s1
Instrument: LTQ Orbitrap XL Thermo Scientific
Instrument type: LC-ESI-ITFT
Ms type: MS2
Ion mode: POSITIVE
Ionization: ESI
Fragmentation mode: HCD
Collision energy: 90 % (nominal)
Resolution: 30000
Column name: XBridge C18 3.5um, 2.1x50mm, Waters
Retention time: 11.4 min
Base peak: 321.2181
Precursor m/z: 321.2173
Precursor type: [M+H]+
m/z	relative intensity	assigned
53.0386	1	C4H5+
55.0543	15	C4H7+
65.0386	2	C5H5+
72.0808	65	C4H10N+
77.0387	17	C6H5+
78.0464	2	C6H6+
79.0543	23	C6H7+
91.0543	482	C7H7+
93.0699	47	C7H9+
98.0601	29	C5H8NO+
102.0463	1	C8H6+
103.0543	118	C8H7+
104.0621	86	C8H8+
105.0447	8	C6H5N2+
109.0648	1	C7H9O+
115.0542	29	C9H7+
116.0708	13	C5H10NO2+
117.07	339	C9H9+
119.0855	999	C9H11+
120.0889	2	C4H12N2O2+
131.0604	16	C8H7N2+
