Mass spectrum: Lidocaine-N-Oxide; LC-ESI-QFT; MS2; CE: 30; R=35000; [M+H]+
Name: Lidocaine-N-Oxide
Name: Lignocaine N-oxide
Name: 2-(2,6-dimethylanilino)-N,N-diethyl-2-oxoethanamine oxide
Formula: C14H22N2O2
Exact mass: 250.16813
SMILES: CC[N+](CC)(CC(=O)NC1=C(C=CC=C1C)C)[O-]
InChI: InChI=1S/C14H22N2O2/c1-5-16(18,6-2)10-13(17)15-14-11(3)8-7-9-12(14)4/h7-9H,5-6,10H2,1-4H3,(H,15,17)
Instrument: Q Exactive Plus Orbitrap Thermo Scientific
Instrument type: LC-ESI-QFT
Ms type: MS2
Ion mode: POSITIVE
Ionization: ESI
Fragmentation mode: HCD
Collision energy: 30 (nominal)
Resolution: 35000
Column name: XBridge C18 3.5um, 2.1x50mm, Waters
Retention time: 4.8 min
Base peak: 251.1752
Precursor m/z: 251.1754
Precursor type: [M+H]+
m/z	relative intensity	assigned
58.0651	33	C3H8N+
60.0443	4	C2H6NO+
72.0807	31	C4H10N+
73.0885	6	C4H11N+
74.0599	20	C3H8NO+
74.0964	16	C4H12N+
84.0806	2	C5H10N+
86.0963	999	C5H12N+
88.0756	130	C4H10NO+
90.0913	1	C4H12NO+
105.0697	1	C8H9+
112.0756	1	C6H10NO+
120.0807	18	C8H10N+
121.0885	1	C8H11N+
122.0963	6	C8H12N+
123.0804	1	C8H11O+
130.0862	316	C6H12NO2+
132.0806	1	C9H10N+
133.0757	1	C8H9N2+
134.0963	1	C9H12N+
148.0756	54	C9H10NO+
162.0913	1	C10H12NO+
163.099	9	C10H13NO+
164.107	52	C10H14NO+
178.0861	6	C10H12NO2+
179.0941	1	C10H13NO2+
180.1017	1	C10H14NO2+
223.144	12	C12H19N2O2+
233.1649	11	C14H21N2O+
251.1752	645	C14H23N2O2+
