Mass spectrum: Propoxyphene; LC-ESI-QFT; MS2; CE: 180; R=35000; [M+H]+
Name: Propoxyphene
Name: Levopropoxyphene
Name: [4-(dimethylamino)-3-methyl-1,2-diphenylbutan-2-yl] propanoate
Formula: C22H29NO2
Exact mass: 339.21983
SMILES: CCC(=O)OC(CC1=CC=CC=C1)(C2=CC=CC=C2)C(C)CN(C)C
InChI: InChI=1S/C22H29NO2/c1-5-21(24)25-22(18(2)17-23(3)4,20-14-10-7-11-15-20)16-19-12-8-6-9-13-19/h6-15,18H,5,16-17H2,1-4H3
Instrument: Q Exactive Plus Orbitrap Thermo Scientific
Instrument type: LC-ESI-QFT
Ms type: MS2
Ion mode: POSITIVE
Ionization: ESI
Fragmentation mode: HCD
Collision energy: 180 (nominal)
Resolution: 35000
Column name: XBridge C18 3.5um, 2.1x50mm, Waters
Retention time: 7.8 min
Base peak: 340.2269
Precursor m/z: 340.2271
Precursor type: [M+H]+
m/z	relative intensity	assigned
50.0151	30	C4H2+
51.023	81	C4H3+
53.0022	13	C3HO+
53.0386	17	C4H5+
56.0495	87	C3H6N+
57.0573	17	C3H7N+
58.0652	999	C3H8N+
62.0151	10	C5H2+
63.0229	38	C5H3+
65.0386	186	C5H5+
75.0229	11	C6H3+
76.0307	14	
77.0385	29	C6H5+
78.0464	39	C6H6+
89.0386	21	C7H5+
91.0543	81	C7H7+
95.0492	50	C6H7O+
102.0465	75	C8H6+
103.0542	2	C8H7+
105.0448	32	C6H5N2+
115.0542	50	C9H7+
126.0466	17	C10H6+
127.0542	22	C10H7+
128.0621	65	C10H8+
145.065	3	C10H9O+
152.062	12	C12H8+
155.0605	12	C10H7N2+
165.0701	18	C13H9+
169.0651	5	C12H9O+
176.0622	12	C14H8+
189.0699	12	C15H9+
