Mass spectrum: Metoclopramide; LC-ESI-ITFT; MS2; CE: 75%; R=7500; [M+H]+
Name: Metoclopramide
Name: 4-amino-5-chloro-N-(2-diethylaminoethyl)-2-methoxy-benzamide
Formula: C14H22ClN3O2
Exact mass: 299.1401
SMILES: c1(cc(C(=O)NCCN(CC)CC)c(cc1N)OC)Cl
InChI: InChI=1S/C14H22ClN3O2/c1-4-18(5-2)7-6-17-14(19)10-8-11(15)12(16)9-13(10)20-3/h8-9H,4-7,16H2,1-3H3,(H,17,19)
Instrument: LTQ Orbitrap XL Thermo Scientific
Instrument type: LC-ESI-ITFT
Ms type: MS2
Ion mode: POSITIVE
Ionization: ESI
Fragmentation mode: HCD
Collision energy: 75 % (nominal)
Resolution: 7500
Column name: XBridge C18 3.5um, 2.1x50mm, Waters
Retention time: 4.3 min
Base peak: 300.1485
Precursor m/z: 300.1473
Precursor type: [M+H]+
m/z	relative intensity	assigned
63.0228	3	C5H3+
72.0807	3	C4H10N+
90.0338	19	C6H4N+
92.0495	3	C6H6N+
93.0573	14	C6H7N+
100.1121	19	C6H14N+
113.0024	8	C5H4ClN+
126.0105	29	C9H2O+
128.0261	18	C6H7ClN+
129.0103	3	C6H6ClO+
140.9975	98	C6H4ClNO+
144.0211	10	C6H7ClNO+
147.0554	4	C8H7N2O+
148.0632	28	C8H8N2O+
154.0053	20	C10H2O2+
156.021	65	C7H7ClNO+
168.0085	100	C7H5ClN2O+
168.9925	59	C7H4ClNO2+
170	19	C7H5ClNO2+
181.017	5	C8H6ClN2O+
182.0241	12	C8H7ClN2O+
183.032	217	C8H8ClN2O+
184.016	999	C8H7ClNO2+
187.003	17	C7H6ClNO3+
211.027	9	C9H8ClN2O2+
212.0346	278	C9H9ClN2O2+
227.0581	188	C10H12ClN2O2+
