Mass spectrum: Trinexapac-ethyl; LC-ESI-ITFT; MS2; CE: 30%; R=15000; [M+H]+
Name: Trinexapac-ethyl
Name: 4-[cyclopropyl(hydroxy)methylene]-3,5-diketo-cyclohexanecarboxylic acid ethyl ester
Formula: C13H16O5
Exact mass: 252.0992
SMILES: CCOC(=O)C1CC(=O)C(=C(C2CC2)O)C(=O)C1
InChI: InChI=1S/C13H16O5/c1-2-18-13(17)8-5-9(14)11(10(15)6-8)12(16)7-3-4-7/h7-8,16H,2-6H2,1H3/b12-11-
Instrument: LTQ Orbitrap XL Thermo Scientific
Instrument type: LC-ESI-ITFT
Ms type: MS2
Ion mode: POSITIVE
Ionization: ESI
Fragmentation mode: HCD
Collision energy: 30 % (nominal)
Resolution: 15000
Column name: XBridge C18 3.5um, 2.1x50mm, Waters
Retention time: 8.9 min
Base peak: 253.1073
Precursor m/z: 253.1071
Precursor type: [M+H]+
m/z	relative intensity	assigned
69.0335	821	C4H5O+
111.0441	56	C6H7O2+
137.0234	43	C7H5O3+
137.0595	6	C8H9O2+
139.0389	311	C7H7O3+
151.0756	9	C9H11O2+
157.0858	5	C8H13O3+
165.0182	280	C8H5O4+
179.0702	197	C10H11O3+
183.0287	65	C8H7O5+
185.0808	453	C9H13O4+
207.0652	999	C11H11O4+
211.0597	16	C10H11O5+
225.0761	17	C11H13O5+
225.1129	10	C12H17O4+
253.107	643	C13H17O5+
