Mass spectrum: MCYR; LC-ESI-QFT; MS2; CE: 30%; R=17500; [M-H]-
Name: MCYR
Name: Microcystin YR
Name: (5R,8S,11R,12S,15S,18S,19S,22R)-15-[3-(diaminomethylideneamino)propyl]-8-[(4-hydroxyphenyl)methyl]-18-[(1E,3E,5S,6S)-6-methoxy-3,5-dimethyl-7-phenylhepta-1,3-dienyl]-1,5,12,19-tetramethyl-2-methylidene-3,6,9,13,16,20,25-heptaoxo-1,4,7,10,14,17,21-heptazacyclopentacosane-11,22-dicarboxylic acid
Class: NA
Formula: C52H72N10O13
Exact mass: 1044.5280
SMILES: CO[C@@H](Cc1ccccc1)[C@@H](C)\C=C(C)\C=C\[C@@H]2NC(=O)[C@H](CCCNC(N)=N)NC(=O)[C@@H](C)[C@@H](NC(=O)[C@H](Cc3ccc(O)cc3)NC(=O)[C@@H](C)NC(=O)C(=C)N(C)C(=O)CC[C@@H](NC(=O)[C@H]2C)C(O)=O)C(O)=O
InChI: InChI=1S/C52H72N10O13/c1-28(25-29(2)41(75-8)27-34-13-10-9-11-14-34)16-21-37-30(3)44(65)59-39(50(71)72)22-23-42(64)62(7)33(6)47(68)56-32(5)46(67)60-40(26-35-17-19-36(63)20-18-35)49(70)61-43(51(73)74)31(4)45(66)58-38(48(69)57-37)15-12-24-55-52(53)54/h9-11,13-14,16-21,25,29-32,37-41,43,63H,6,12,15,22-24,26-27H2,1-5,7-8H3,(H,56,68)(H,57,69)(H,58,66)(H,59,65)(H,60,67)(H,61,70)(H,71,72)(H,73,74)(H4,53,54,55)/b21-16+,28-25+/t29-,30-,31-,32+,37-,38-,39+,40-,41-,43+/m0/s1
Instrument: Q Exactive Plus Orbitrap Thermo Scientific
Instrument type: LC-ESI-QFT
Ms type: MS2
Ion mode: NEGATIVE
Ionization: ESI
Fragmentation mode: HCD
Collision energy: 30 % (nominal)
Resolution: 17500
Column name: XBridge C18 3.5um, 2.1x50mm, Waters
Retention time: 8.062 min
Base peak: 190.9277
Precursor m/z: 1043.5208
Precursor type: [M-H]-
m/z	relative intensity	assigned
109.0409	59	C5H5N2O-
110.0251	17	C5H4NO2-
113.0358	8	C4H5N2O2-
124.0407	18	C6H6NO2-
127.0515	20	C5H7N2O2-
128.0353	720	C5H6NO3-
144.0779	10	C5H10N3O2-
153.0673	18	C7H9N2O2-
162.0554	47	C7H6N4O-
170.093	23	C7H12N3O2-
179.0821	14	C9H11N2O2-
181.0615	13	C8H9N2O3-
184.0609	29	C8H10NO4-
211.0715	24	C7H9N5O3-
227.1137	43	C8H19O7-
248.1143	18	C10H18NO6-
250.1192	35	C12H16N3O3-
266.1248	16	C10H20NO7-
276.0973	23	C11H12N6O3-
290.114	33	C14H16N3O4-
313.18	13	C4H25N8O8-
315.1456	52	CH25N5O13-
333.1565	319	C16H21N4O4-
343.142	10	C3H21N9O10-
361.1522	101	C3H23N9O11-
370.141	34	C19H20N3O5-
424.2117	10	C23H28N4O4-
444.1876	16	C20H30NO10-
462.1998	65	C7H30N10O13-
518.2266	19	C25H28N9O4-
580.3138	132	C31H42N5O6-
637.3401	21	C24H47N9O11-
691.3438	26	C33H49N5O11-
708.3711	16	C34H48N10O7-
758.3715	51	C34H50N10O10-
773.3985	32	C39H57N4O12-
774.3815	73	C52H48N5O2-
775.4016	25	C39H53N9O8-
931.5112	69	C52H67N8O8-
964.4929	10	C51H66N9O10-
983.4857	47	C51H67N8O12-
1007.4998	19	C52H67N10O11-
1008.487	57	C52H66N9O12-
1025.5104	999	C52H69N10O12-
1043.517	82	C52H71N10O13-
