Mass spectrum: Tiapride; LC-ESI-QFT; MS2; CE: 45; R=35000; [M+H]+
Name: Tiapride
Name: N-(2-diethylaminoethyl)-2-methoxy-5-methylsulfonyl-benzamide
Formula: C15H24N2O4S
Exact mass: 328.14568
SMILES: CCN(CC)CCNC(=O)C1=C(C=CC(=C1)S(=O)(=O)C)OC
InChI: InChI=1S/C15H24N2O4S/c1-5-17(6-2)10-9-16-15(18)13-11-12(22(4,19)20)7-8-14(13)21-3/h7-8,11H,5-6,9-10H2,1-4H3,(H,16,18)
Instrument: Q Exactive Orbitrap Thermo Scientific
Instrument type: LC-ESI-QFT
Ms type: MS2
Ion mode: POSITIVE
Ionization: ESI
Fragmentation mode: HCD
Collision energy: 45 (nominal)
Resolution: 35000
Column name: XBridge C18 3.5um, 2.1x50mm, Waters
Retention time: 2.6 min
Base peak: 329.1529
Precursor m/z: 329.153
Precursor type: [M+H]+
m/z	relative intensity	assigned
72.0807	2	C4H10N+
74.0964	23	C4H12N+
100.112	25	C6H14N+
133.0521	13	C8H7NO+
134.06	5	C8H8NO+
177.078	22	C10H11NO2+
185.0267	2	C8H9O3S+
209.0683	8	C10H11NO4+
212.0375	141	C9H10NO3S+
213.0215	209	C9H9O4S+
226.0171	1	C9H8NO4S+
230.048	9	C9H12NO4S+
241.0402	15	C10H11NO4S+
256.0637	999	C11H14NO4S+
329.1534	2	C15H25N2O4S+
