Mass spectrum: 2-Chlorobenzenesulfonamide; LC-ESI-QFT; MS2; CE: 30; R=35000; [M+H]+
Name: 2-Chlorobenzenesulfonamide
Name: 2-chlorobenzenesulfonamide
Formula: C6H6ClNO2S
Exact mass: 190.98078
SMILES: C1=CC=C(C(=C1)S(=O)(=O)N)Cl
InChI: InChI=1S/C6H6ClNO2S/c7-5-3-1-2-4-6(5)11(8,9)10/h1-4H,(H2,8,9,10)
Instrument: Q Exactive Orbitrap Thermo Scientific
Instrument type: LC-ESI-QFT
Ms type: MS2
Ion mode: POSITIVE
Ionization: ESI
Fragmentation mode: HCD
Collision energy: 30 (nominal)
Resolution: 35000
Column name: XBridge C18 3.5um, 2.1x50mm, Waters
Retention time: 4.4 min
Base peak: 191.988
Precursor m/z: 191.9881
Precursor type: [M+H]+
m/z	relative intensity	assigned
50.0152	1	C4H2+
59.0491	1	C3H7O+
65.0385	5	C5H5+
75.0227	8	C6H3+
86.9996	13	C4H4Cl+
93.0334	33	C6H5O+
94.0413	43	C6H6O+
101.0152	2	C5H6Cl+
110.9992	25	C6H4Cl+
111.044	135	C6H7O2+
121.0396	34	C6H5N2O+
126.9945	10	C6H4ClO+
129.0101	86	C6H6ClO+
130.9718	4	C5H4ClS+
139.0057	552	C6H4ClN2+
145.9668	3	CH5ClNO3S+
174.9614	999	C6H4ClO2S+
191.9878	15	C6H7ClNO2S+
