Mass spectrum: Glycyrrhetinic Acid; LC-ESI-QFT; MS2; CE: 60; R=35000; [M-H]-
Name: Glycyrrhetinic Acid
Name: 18-beta-Glycyrrhetin acid
Name: (2S,4aS,6aR,6aS,6bR,8aR,10S,12aS,14bR)-10-hydroxy-2,4a,6a,6b,9,9,12a-heptamethyl-13-oxo-3,4,5,6,6a,7,8,8a,10,11,12,14b-dodecahydro-1H-picene-2-carboxylic acid
Formula: C30H46O4
Exact mass: 470.33961
SMILES: C[C@]1([C@H](CC[C@]2([C@H]1CC[C@@]3([C@@H]2C(=O)C=C4[C@]3(CC[C@@]5([C@H]4C[C@](CC5)(C(=O)O)C)C)C)C)C)O)C
InChI: InChI=1S/C30H46O4/c1-25(2)21-8-11-30(7)23(28(21,5)10-9-22(25)32)20(31)16-18-19-17-27(4,24(33)34)13-12-26(19,3)14-15-29(18,30)6/h16,19,21-23,32H,8-15,17H2,1-7H3,(H,33,34)/t19-,21-,22-,23+,26+,27-,28-,29+,30+/m0/s1
Instrument: Q Exactive Plus Orbitrap Thermo Scientific
Instrument type: LC-ESI-QFT
Ms type: MS2
Ion mode: NEGATIVE
Ionization: ESI
Fragmentation mode: HCD
Collision energy: 60 (nominal)
Resolution: 35000
Column name: XBridge C18 3.5um, 2.1x50mm, Waters
Retention time: 16.9 min
Base peak: 515.3377
Precursor m/z: 469.3323
Precursor type: [M-H]-
m/z	relative intensity	assigned
71.0504	5	C4H7O-
99.0451	11	C5H7O2-
147.0814	2	C10H11O-
185.097	1	C13H13O-
201.1293	1	C14H17O-
217.1596	8	C15H21O-
253.159	1	C18H21O-
283.2068	1	C20H27O-
287.2015	2	C19H27O2-
289.2174	7	C19H29O2-
299.2375	1	C21H31O-
323.2014	1	C22H27O2-
325.2175	17	C22H29O2-
337.2175	2	C23H29O2-
339.233	28	C23H31O2-
341.2484	15	C23H33O2-
353.2488	30	C24H33O2-
355.2643	886	C24H35O2-
357.281	8	C24H37O2-
379.2645	13	C26H35O2-
391.2633	1	C27H35O2-
393.2799	34	C27H37O2-
395.2945	1	C27H39O2-
407.2951	16	C28H39O2-
409.3113	490	C28H41O2-
423.3269	130	C29H43O2-
425.3427	999	C29H45O2-
469.3324	575	C30H45O4-
