Mass spectrum: Tenofovir; LC-ESI-QFT; MS2; CE: 45; R=35000; [M+H]+
Name: Tenofovir
Name: [(1R)-2-adenin-9-yl-1-methyl-ethoxy]methylphosphonic acid
Formula: C9H14N5O4P
Exact mass: 287.07834
SMILES: O=P(O)(O)CO[C@H](C)Cn1c2ncnc(c2nc1)N
InChI: InChI=1S/C9H14N5O4P/c1-6(18-5-19(15,16)17)2-14-4-13-7-8(10)11-3-12-9(7)14/h3-4,6H,2,5H2,1H3,(H2,10,11,12)(H2,15,16,17)/t6-/m1/s1
Instrument: Q Exactive Orbitrap Thermo Scientific
Instrument type: LC-ESI-QFT
Ms type: MS2
Ion mode: POSITIVE
Ionization: ESI
Fragmentation mode: HCD
Collision energy: 45 (nominal)
Resolution: 35000
Column name: XBridge C18 3.5um, 2.1x50mm, Waters
Retention time: 1.0 min
Base peak: 157.0352
Precursor m/z: 288.0856
Precursor type: [M+H]+
m/z	relative intensity	assigned
59.0492	45	C3H7O+
64.9787	15	H2O2P+
71.0491	3	C4H7O+
82.9892	4	H4O3P+
105.01	1	C3H6O2P+
112.9998	61	CH6O4P+
119.035	1	C5H3N4+
132.0556	3	C7H6N3+
134.0713	3	C7H8N3+
135.0536	4	C5H5N5+
136.0618	268	C5H6N5+
137.0457	1	C5H5N4O+
148.0618	16	C6H6N5+
149.0823	9	C7H9N4+
152.0818	3	C7H10N3O+
153.0311	23	C4H10O4P+
159.0665	101	C8H7N4+
167.0928	1	C7H11N4O+
176.0931	999	C8H10N5+
177.077	31	C8H9N4O+
190.1084	2	C9H12N5+
192.0883	2	C8H10N5O+
194.1037	11	C8H12N5O+
206.1037	251	C9H12N5O+
212.0334	2	C6H7N5O2P+
222.0981	1	C9H12N5O2+
230.0433	2	C6H9N5O3P+
240.0644	113	C8H11N5O2P+
252.0645	22	C9H11N5O2P+
270.075	212	C9H13N5O3P+
288.0855	320	C9H15N5O4P+
