Mass spectrum: Fenthion-sulfoxide; LC-ESI-QFT; MS2; CE: 90; R=35000; [M+H]+
Name: Fenthion-sulfoxide
Name: Mesulfenos
Name: O,O-Dimethyl O-[3-methyl-4-(methylsulfinyl)phenyl] phosphorothioate
Formula: C10H15O4PS2
Exact mass: 294.01494
SMILES: CC1=C(C=CC(=C1)OP(=S)(OC)OC)S(=O)C
InChI: InChI=1S/C10H15O4PS2/c1-8-7-9(5-6-10(8)17(4)11)14-15(16,12-2)13-3/h5-7H,1-4H3
Instrument: Q Exactive Plus Orbitrap Thermo Scientific
Instrument type: LC-ESI-QFT
Ms type: MS2
Ion mode: POSITIVE
Ionization: ESI
Fragmentation mode: HCD
Collision energy: 90 (nominal)
Resolution: 35000
Column name: XBridge C18 3.5um, 2.1x50mm, Waters
Retention time: 7.4 min
Base peak: 295.0216
Precursor m/z: 295.0222
Precursor type: [M+H]+
m/z	relative intensity	assigned
50.0151	4	C4H2+
51.0229	4	C4H3+
53.0386	23	C4H5+
57.9872	1	C2H2S+
58.995	3	C2H3S+
59.9665	6	COS+
62.0185	28	C2H6S+
62.9453	7	PS+
62.9995	25	CH4OP+
63.023	5	C5H3+
63.9436	7	S2+
64.0308	3	C5H4+
64.9787	16	H2O2P+
65.0386	31	C5H5+
66.0464	33	C5H6+
67.0542	4	C5H7+
68.9793	10	C3HS+
69.9872	2	C3H2S+
70.995	1	C3H3S+
76.0307	6	C6H4+
77.0386	32	C6H5+
78.0464	222	C6H6+
78.9943	734	CH4O2P+
80.0022	4	CH5O2P+
81.01	5	CH6O2P+
81.0335	3	C5H5O+
81.9872	1	C4H2S+
84.0028	7	C4H4S+
85.0107	1	C4H5S+
89.0386	34	C7H5+
90.0465	15	C7H6+
91.0543	118	C7H7+
92.0621	21	C7H8+
93.0101	68	C2H6O2P+
93.0336	7	C6H5O+
93.0699	6	C7H9+
94.0414	30	C6H6O+
95.0492	92	C6H7O+
96.0028	6	C5H4S+
97.0051	28	CH6O3P+
97.0107	57	C5H5S+
98.0185	18	C5H6S+
98.9841	7	H4O4P+
102.0464	1	C8H6+
103.0543	38	C8H7+
104.0258	4	C7H4O+
104.0621	16	C8H8+
105.0336	10	C7H5O+
105.0448	46	C6H5N2+
105.07	92	C8H9+
107.0492	16	C7H7O+
108.0029	35	C6H4S+
108.0571	4	C7H8O+
109.0107	181	C6H5S+
110.0185	163	C6H6S+
111.0205	4	C2H8O3P+
111.0264	29	C6H7S+
111.0441	5	C6H7O2+
112.9998	21	CH6O4P+
115.0543	1	C9H7+
119.0494	1	C8H7O+
121.0107	108	C7H5S+
121.0649	14	C8H9O+
122.0186	56	C7H6S+
122.0727	5	C8H10O+
123.0263	41	C7H7S+
124.0343	16	C7H8S+
124.9822	99	C2H6O2PS+
125.0421	16	C7H9S+
126.0136	12	C6H6OS+
127.0155	999	C2H8O4P+
128.9769	3	CH6O3PS+
134.0186	9	C8H6S+
135.0264	44	C8H7S+
135.9978	6	C7H4OS+
136.0342	21	C8H8S+
137.0057	50	C7H5OS+
137.042	10	C8H9S+
138.0135	13	C7H6OS+
138.0498	5	C8H10S+
139.0213	18	C7H7OS+
139.975	4	C6H4S2+
139.9845	2	C6H5PS+
140.9828	38	C6H5S2+
141.0313	3	C3H10O4P+
141.9906	9	C6H6S2+
142.9928	243	C2H8O3PS+
151.0212	1	C8H7OS+
151.0578	7	C9H11S+
151.9751	4	C7H4S2+
151.9843	4	C7H5PS+
152.9828	230	C7H5S2+
153.9906	46	C7H6S2+
154.9715	12	C6H4OPS+
154.9984	11	C7H7S2+
155.0164	1	C7H7O2S+
157.0083	3	C3H10O3PS+
166.9985	9	C8H7S2+
167.9699	2	C7H4OS2+
167.9794	7	C7H5OPS+
168.0058	1	C8H8S2+
168.9779	24	C7H5OS2+
168.9872	159	C7H6OPS+
169.0141	52	C8H9S2+
169.9854	4	C7H6OS2+
169.9951	8	C7H7OPS+
170.0219	4	C8H10S2+
170.9488	1	C6H4PS2+
170.9938	5	C7H7OS2+
180.9876	1	C8H6OPS+
184.9823	5	C7H6O2PS+
185.0366	2	C8H10O3P+
186.9438	2	C6H4OPS2+
186.998	2	C7H8O2PS+
198.9437	11	C7H4OPS2+
198.9982	1	C8H8O2PS+
200.0057	8	C8H9O2PS+
200.959	3	C7H6OPS2+
202.9928	9	C7H8O3PS+
213.0133	1	C9H10O2PS+
214.9386	2	C7H4O2PS2+
214.9926	1	C8H8O3PS+
215.9466	1	C7H5O2PS2+
216.9543	1	C7H6O2PS2+
217.0086	4	C8H10O3PS+
230.9703	3	C8H8O2PS2+
