Mass spectrum: FK-506; LC-ESI-QFT; MS2; CE: 60; R=35000; [M+H]+
Name: FK-506
Name: Tacrolimus
Name: (1R,9S,12S,13R,14S,17R,21S,23S,24R,25S,27R)-17-Allyl-1,14-dihydroxy-12-{(1E)-1-[(1R,3R,4R)-4-hydroxy-3-methoxycyclohexyl]-1-propen-2-yl}-23,25-dimethoxy-13,19,21,27-tetramethyl-11,28-dioxa-4-azatricyc lo[22.3.1.0 4,9]octacos-18-ene-2,3,10,16-tetrone
Formula: C44H69NO12
Exact mass: 803.48198
SMILES: CC1CC(C2C(CC(C(O2)(C(=O)C(=O)N3CCCCC3C(=O)OC(C(C(CC(=O)C(C=C(C1)C)CC=C)O)C)C(=CC4CCC(C(C4)OC)O)C)O)C)OC)OC
InChI: InChI=1S/C44H69NO12/c1-10-13-31-19-25(2)18-26(3)20-37(54-8)40-38(55-9)22-28(5)44(52,57-40)41(49)42(50)45-17-12-11-14-32(45)43(51)56-39(29(6)34(47)24-35(31)48)27(4)21-30-15-16-33(46)36(23-30)53-7/h10,19,21,26,28-34,36-40,46-47,52H,1,11-18,20,22-24H2,2-9H3/b25-19-,27-21+/t26-,28+,29+,30-,31+,32-,33+,34-,36+,37-,38-,39+,40+,44+/m0/s1
Instrument: Q Exactive Plus Orbitrap Thermo Scientific
Instrument type: LC-ESI-QFT
Ms type: MS2
Ion mode: POSITIVE
Ionization: ESI
Fragmentation mode: HCD
Collision energy: 60 (nominal)
Resolution: 35000
Column name: XBridge C18 3.5um, 2.1x50mm, Waters
Retention time: 15.3 min
Base peak: 279.159
Precursor m/z: 804.4893
Precursor type: [M+H]+
m/z	relative intensity	assigned
56.0495	52	C3H6N+
57.0335	9	C3H5O+
57.0699	4	C4H9+
59.0492	16	C3H7O+
65.0386	36	C5H5+
67.0543	242	C5H7+
69.0335	269	C4H5O+
69.0699	75	C5H9+
70.0651	2	C4H8N+
71.0128	34	C3H3O2+
71.0492	48	C4H7O+
73.0648	3	C4H9O+
74.0965	7	C4H12N+
75.0439	1	C3H7O2+
77.0386	8	C6H5+
78.0463	4	C6H6+
79.0542	311	C6H7+
80.0496	2	C5H6N+
81.0335	27	C5H5O+
81.0699	208	C6H9+
82.0288	8	C4H4NO+
82.0651	40	C5H8N+
83.0492	63	C5H7O+
83.0856	10	C6H11+
84.0808	999	C5H10N+
85.0285	9	C4H5O2+
85.0648	97	C5H9O+
87.0442	2	C4H7O2+
91.0543	454	C7H7+
93.07	391	C7H9+
94.0414	3	C6H6O+
94.0778	8	C7H10+
95.0492	191	C6H7O+
95.0856	184	C7H11+
96.0808	3	C6H10N+
97.0649	63	C6H9O+
99.0441	8	C5H7O2+
99.0805	12	C6H11O+
101.0599	4	C5H9O2+
103.0543	23	C8H7+
104.062	2	C8H8+
105.0448	30	C6H5N2+
105.07	451	C8H9+
106.0777	2	C8H10+
107.0492	50	C7H7O+
107.0856	343	C8H11+
108.0571	8	C7H8O+
109.0285	782	C6H5O2+
109.0649	154	C7H9O+
109.1013	51	C8H13+
110.0601	44	C6H8NO+
110.0724	3	C7H10O+
110.0965	2	C7H12N+
111.0441	23	C6H7O2+
111.0805	115	C7H11O+
112.0758	3	C6H10NO+
113.0596	14	C6H9O2+
115.0543	42	C9H7+
116.062	19	C9H8+
117.0699	124	C9H9+
118.0778	2	C9H10+
119.0493	22	C8H7O+
119.0856	375	C9H11+
120.0936	3	C9H12+
121.0285	6	C7H5O2+
121.0649	118	C8H9O+
121.1013	66	C9H13+
123.0441	75	C7H7O2+
123.0805	64	C8H11O+
124.0522	2	C7H8O2+
124.1122	3	C8H14N+
125.0598	40	C7H9O2+
125.0963	11	C8H13O+
127.0389	3	C6H7O3+
127.0759	2	C7H11O2+
128.0623	116	C10H8+
128.0707	268	C6H10NO2+
129.0699	172	C10H9+
130.0782	38	C10H10+
130.0864	114	C6H12NO2+
131.0856	213	C10H11+
132.0566	2	C9H8O+
132.0935	7	C10H12+
133.0649	46	C9H9O+
133.1013	168	C10H13+
134.0727	6	C9H10O+
135.044	33	C8H7O2+
135.0805	90	C9H11O+
135.1168	32	C10H15+
136.1121	25	C9H14N+
137.0235	3	C7H5O3+
137.0598	47	C8H9O2+
137.0963	17	C9H13O+
137.133	2	C10H17+
139.0391	16	C7H7O3+
139.0754	13	C8H11O2+
139.112	2	C9H15O+
141.0548	4	C7H9O3+
141.07	56	C11H9+
141.0909	4	C8H13O2+
142.0778	105	C11H10+
143.0857	297	C11H11+
144.0573	3	C10H8O+
144.0934	40	C11H12+
145.0649	27	C10H9O+
145.1013	231	C11H13+
146.0727	18	C10H10O+
146.1095	3	C11H14+
147.0805	95	C10H11O+
147.1169	60	C11H15+
148.0885	13	C10H12O+
149.0235	4	C8H5O3+
149.0597	31	C9H9O2+
149.0962	40	C10H13O+
149.1327	2	C11H17+
150.0913	2	C9H12NO+
151.0393	7	C8H7O3+
151.0755	20	C9H11O2+
151.112	11	C10H15O+
152.1071	55	C9H14NO+
153.0549	18	C8H9O3+
153.07	24	C12H9+
153.091	2	C9H13O2+
154.0777	22	C12H10+
155.034	15	C7H7O4+
155.0606	10	C10H7N2+
155.0856	95	C12H11+
156.0935	120	C12H12+
157.0648	19	C11H9O+
157.1013	165	C12H13+
158.0728	16	C11H10O+
158.109	26	C12H14+
159.0805	52	C11H11O+
159.1169	102	C12H15+
160.0885	9	C11H12O+
160.1247	4	C12H16+
161.0598	8	C10H9O2+
161.0962	83	C11H13O+
161.1326	55	C12H17+
162.1037	3	C11H14O+
163.0754	19	C10H11O2+
163.1118	24	C11H15O+
164.1071	9	C10H14NO+
165.055	20	C9H9O3+
165.0699	46	C13H9+
165.091	8	C10H13O2+
166.0778	17	C13H10+
167.0703	3	C9H11O3+
167.0856	45	C13H11+
168.0934	43	C13H12+
169.0497	11	C8H9O4+
169.0653	8	C12H9O+
169.1012	79	C13H13+
170.073	1	C12H10O+
170.1091	38	C13H14+
171.0805	34	C12H11O+
171.1169	125	C13H15+
172.0883	20	C12H12O+
172.1246	4	C13H16+
173.0962	49	C12H13O+
173.1326	43	C13H17+
174.0677	2	C11H10O2+
174.1042	13	C12H14O+
175.0755	47	C11H11O2+
175.1117	30	C12H15O+
175.1482	7	C13H19+
177.0911	10	C11H13O2+
177.1274	4	C12H17O+
178.0778	11	C14H10+
178.0855	1	C10H12NO2+
179.0705	4	C10H11O3+
179.0857	36	C14H11+
179.1065	2	C11H15O2+
180.0935	29	C14H12+
180.1019	16	C10H14NO2+
181.0646	7	C13H9O+
181.1013	48	C14H13+
182.0724	2	C13H10O+
182.1093	27	C14H14+
182.117	5	C10H16NO2+
183.0659	4	C9H11O4+
183.0806	23	C13H11O+
183.117	81	C14H15+
184.0884	8	C13H12O+
184.1249	11	C14H16+
185.0962	44	C13H13O+
185.1327	68	C14H17+
186.1039	13	C13H14O+
187.0603	15	C8H11O5+
187.0755	9	C12H11O2+
187.1117	35	C13H15O+
187.1485	7	C14H19+
188.1197	3	C13H16O+
189.091	19	C12H13O2+
189.1274	27	C13H17O+
191.0856	10	C15H11+
191.1066	3	C12H15O2+
191.1429	3	C13H19O+
192.0933	24	C15H12+
192.102	47	C11H14NO2+
193.0868	2	C11H13O3+
193.1012	43	C15H13+
194.1092	22	C15H14+
195.0653	3	C10H11O4+
195.0804	14	C14H11O+
195.1169	61	C15H15+
196.0883	12	C14H12O+
196.0964	2	C10H14NO3+
196.1249	19	C15H16+
197.0962	23	C14H13O+
197.1326	35	C15H17+
198.1042	21	C14H14O+
199.0753	4	C13H11O2+
199.1119	30	C14H15O+
199.1482	10	C15H19+
200.1195	2	C14H16O+
201.0914	8	C13H13O2+
201.1276	20	C14H17O+
203.0856	3	C16H11+
203.1067	3	C13H15O2+
203.1433	15	C14H19O+
204.0936	8	C16H12+
205.0859	2	C12H13O3+
205.1014	21	C16H13+
205.1221	2	C13H17O2+
206.1091	17	C16H14+
207.1171	36	C16H15+
208.0883	9	C15H12O+
208.0969	6	C11H14NO3+
208.125	12	C16H16+
209.0963	23	C15H13O+
209.1325	21	C16H17+
210.104	9	C15H14O+
210.1127	12	C11H16NO3+
211.1119	29	C15H15O+
211.1484	12	C16H19+
212.1198	8	C15H16O+
213.0917	2	C14H13O2+
213.1273	27	C15H17O+
213.1639	2	C16H21+
214.1354	2	C15H18O+
215.0856	2	C17H11+
215.1068	9	C14H15O2+
215.1431	9	C15H19O+
216.0935	2	C17H12+
217.0854	2	C13H13O3+
217.1015	12	C17H13+
217.158	2	C15H21O+
218.1089	4	C17H14+
219.1171	18	C17H15+
220.0881	2	C16H12O+
220.0971	17	C12H14NO3+
220.1247	3	C17H16+
221.0961	8	C16H13O+
221.1329	18	C17H17+
221.1542	3	C14H21O2+
222.1039	4	C16H14O+
222.1405	8	C17H18+
223.0751	2	C15H11O2+
223.1121	15	C16H15O+
223.1482	9	C17H19+
224.1197	7	C16H16O+
225.1276	16	C16H17O+
225.1638	4	C17H21+
226.135	4	C16H18O+
227.1067	8	C15H15O2+
227.1434	9	C16H19O+
227.1791	3	C17H23+
229.1019	3	C18H13+
229.1224	9	C15H17O2+
229.1591	3	C16H21O+
231.1171	8	C18H15+
231.1379	2	C15H19O2+
232.1244	10	C18H16+
233.0965	2	C17H13O+
233.1326	11	C18H17+
234.1134	3	C13H16NO3+
234.1404	7	C18H18+
235.112	11	C17H15O+
235.1483	4	C18H19+
236.1197	3	C17H16O+
237.1274	9	C17H17O+
237.1636	8	C18H21+
239.1065	8	C16H15O2+
239.143	3	C17H19O+
240.1499	1	C17H20O+
241.1229	3	C16H17O2+
241.1587	2	C17H21O+
243.1379	3	C16H19O2+
245.132	2	C19H17+
247.148	7	C19H19+
249.1276	4	C18H17O+
249.1643	2	C19H21+
250.1355	3	C18H18O+
251.143	2	C18H19O+
251.179	2	C19H23+
253.1221	2	C17H17O2+
255.1748	4	C18H23O+
257.1326	3	C20H17+
261.1632	2	C20H21+
265.1587	4	C19H21O+
275.1806	2	C21H23+
283.1684	2	C19H23O2+
293.1524	2	C20H21O2+
