Mass spectrum: Ethaboxam; LC-ESI-QFT; MS2; CE: 60%; R=17500; [M+H]+
Name: Ethaboxam
Name: N-[cyano(thiophen-2-yl)methyl]-4-ethyl-2-(ethylamino)-1,3-thiazole-5-carboxamide
Formula: C14H16N4OS2
Exact mass: 320.0766
SMILES: CCC1=C(SC(=N1)NCC)C(=O)NC(C#N)C2=CC=CS2
InChI: InChI=1S/C14H16N4OS2/c1-3-9-12(21-14(18-9)16-4-2)13(19)17-10(8-15)11-6-5-7-20-11/h5-7,10H,3-4H2,1-2H3,(H,16,18)(H,17,19)
Instrument: Exploris 240 Orbitrap Thermo Scientific
Instrument type: LC-ESI-QFT
Ms type: MS2
Ion mode: POSITIVE
Ionization: ESI
Fragmentation mode: HCD
Collision energy: 60 % (nominal)
Resolution: 17500
Column name: XBridge C18 3.5um, 2.1x50mm, Waters
Retention time: 6.055 min
Base peak: 321.0838
Precursor m/z: 321.0838
Precursor type: [M+H]+
m/z	relative intensity	assigned
56.0495	21	C3H6N+
68.0494	666	C4H6N+
71.0605	61	C3H7N2+
84.0029	54	C4H4S+
85.0106	134	C4H5S+
88.0219	28	C3H6NS+
96.0445	30	C5H6NO+
98.0603	14	C5H8NO+
99.0137	70	C4H5NS+
100.0215	44	C4H6NS+
111.0552	12	C5H7N2O+
112.0214	81	C5H6NS+
114.0372	11	C5H8NS+
122.006	47	C6H4NS+
126.0245	105	C5H6N2S+
127.0327	48	C5H7N2S+
128.0167	41	C5H6NOS+
128.0404	35	C5H8N2S+
129.0482	41	C5H9N2S+
130.0316	76	C5H8NOS+
139.0321	53	C6H7N2S+
141.0482	38	C6H9N2S+
144.0353	29	C5H8N2OS+
153.0119	41	C6H5N2OS+
154.0202	49	C6H6N2OS+
154.0427	20	C6H8N3S+
154.0561	121	C7H10N2S+
155.0276	62	C6H7N2OS+
155.0636	289	C7H11N2S+
157.0426	51	C6H9N2OS+
157.0796	59	C7H13N2S+
170.038	85	C6H8N3OS+
171.0459	90	C6H9N3OS+
172.0538	79	C6H10N3OS+
181.043	81	C8H9N2OS+
182.0748	26	C8H12N3S+
183.0586	772	C8H11N2OS+
184.0536	149	C7H10N3OS+
198.0696	388	C8H12N3OS+
199.077	91	C8H13N3OS+
200.0852	999	C8H14N3OS+
210.0695	31	C9H12N3OS+
237.0802	42	C10H13N4OS+
