Mass spectrum: Sarafloxacin; LC-ESI-QFT; MS2; CE: 120; R=35000; [M+H]+
Name: Sarafloxacin
Name: 6-fluoro-1-(4-fluorophenyl)-4-oxo-7-piperazin-1-ylquinoline-3-carboxylic acid
Formula: C20H17F2N3O3
Exact mass: 385.12380
SMILES: C1CN(CCN1)C2=C(C=C3C(=C2)N(C=C(C3=O)C(=O)O)C4=CC=C(C=C4)F)F
InChI: InChI=1S/C20H17F2N3O3/c21-12-1-3-13(4-2-12)25-11-15(20(27)28)19(26)14-9-16(22)18(10-17(14)25)24-7-5-23-6-8-24/h1-4,9-11,23H,5-8H2,(H,27,28)
Instrument: Q Exactive Plus Orbitrap Thermo Scientific
Instrument type: LC-ESI-QFT
Ms type: MS2
Ion mode: POSITIVE
Ionization: ESI
Fragmentation mode: HCD
Collision energy: 120 (nominal)
Resolution: 35000
Column name: XBridge C18 3.5um, 2.1x50mm, Waters
Retention time: 4.7 min
Base peak: 386.1304
Precursor m/z: 386.1311
Precursor type: [M+H]+
m/z	relative intensity	assigned
50.0151	25	C4H2+
51.0229	28	C4H3+
52.0181	2	C3H2N+
53.0022	52	C3HO+
53.0386	42	C4H5+
54.0338	6	C3H4N+
55.0179	4	C3H3O+
56.0495	106	C3H6N+
57.0135	95	C3H2F+
58.0652	22	C3H8N+
59.0292	13	C3H4F+
62.0151	17	C5H2+
63.023	122	C5H3+
64.0182	3	C4H2N+
65.0386	20	C5H5+
66.0463	2	C5H6+
68.0131	3	C3H2NO+
68.0495	41	C4H6N+
69.0447	6	C3H5N2+
70.0213	4	C4H3F+
70.0652	14	C4H8N+
71.0292	10	C4H4F+
74.0151	45	C6H2+
75.0229	336	C6H3+
76.0181	10	C5H2N+
76.0307	9	C6H4+
77.0022	3	C5HO+
77.0385	60	C6H5+
78.0338	15	C5H4N+
78.0464	12	C6H6+
79.0179	4	C5H3O+
80.0495	5	C5H6N+
81.0135	40	C5H2F+
81.0448	3	C4H5N2+
82.0214	12	C5H3F+
83.0291	300	C5H4F+
84.037	27	C5H5F+
87.0229	23	C7H3+
88.0182	6	C6H2N+
88.0308	17	C7H4+
89.0386	395	C7H5+
90.0339	29	C6H4N+
90.0465	34	C7H6+
91.0543	37	C7H7+
92.0495	11	C6H6N+
93.0136	4	C6H2F+
94.0213	24	C6H3F+
95.0292	57	C6H4F+
95.0492	110	C6H7O+
96.037	57	C6H5F+
96.0444	33	C5H6NO+
97.0324	3	C5H4FN+
97.0449	10	C6H6F+
98.04	5	C5H5FN+
99.0229	30	C8H3+
100.0182	17	C7H2N+
100.0309	4	C8H4+
101.0386	67	C8H5+
102.0339	32	C7H4N+
102.0465	70	C8H6+
103.0417	15	C7H5N+
103.0543	69	C8H7+
104.0495	54	C7H6N+
105.0135	17	C7H2F+
105.0448	72	C6H5N2+
106.0214	19	C7H3F+
107.0292	901	C7H4F+
108.0245	34	C6H3FN+
108.037	197	C7H5F+
109.0449	217	C7H6F+
110.04	31	C6H5FN+
111.0479	3	C6H6FN+
112.0318	10	C6H5FO+
113.0396	74	C6H6FO+
114.034	53	C8H4N+
115.0417	30	C8H5N+
115.0543	69	C9H7+
116.0496	72	C8H6N+
117.0448	5	C7H5N2+
117.0574	45	C8H7N+
118.0289	10	C7H4NO+
118.0653	4	C8H8N+
119.0292	5	C8H4F+
119.0493	56	C8H7O+
120.0371	109	C8H5F+
120.0444	15	C7H6NO+
121.0323	21	C7H4FN+
121.0448	56	C8H6F+
122.0401	173	C7H5FN+
123.0353	163	C6H4FN2+
124.0185	3	C9H2N+
124.0555	3	C7H7FN+
125.0388	6	C10H5+
126.034	42	C9H4N+
127.0418	30	C9H5N+
128.0495	302	C9H6N+
129.0447	262	C8H5N2+
129.0573	49	C9H7N+
130.0401	39	C7H4N3+
130.0652	50	C9H8N+
131.0293	38	C9H4F+
131.0603	17	C8H7N2+
131.0729	3	C9H9N+
132.0245	56	C8H3FN+
132.0371	11	C9H5F+
132.0445	11	C8H6NO+
133.0323	61	C8H4FN+
133.0449	133	C9H6F+
134.0401	247	C8H5FN+
134.06	28	C8H8NO+
135.0479	142	C8H6FN+
136.0196	3	C7H3FNO+
136.0558	33	C8H7FN+
138.0342	9	C10H4N+
138.0467	3	C11H6+
140.0369	5	C9H4N2+
140.0496	39	C10H6N+
141.0448	13	C9H5N2+
141.0572	16	C10H7N+
142.0528	20	C9H6N2+
142.0651	17	C10H8N+
143.0291	4	C10H4F+
143.0603	18	C9H7N2+
143.0729	5	C10H9N+
144.0372	12	C10H5F+
144.0444	14	C9H6NO+
144.0557	19	C8H6N3+
145.0324	6	C9H4FN+
146.0401	192	C9H5FN+
146.06	28	C9H8NO+
147.0242	32	C9H4FO+
147.0354	24	C8H4FN2+
147.0479	42	C9H6FN+
148.0558	270	C9H7FN+
149.0388	17	C4H5F2N3O+
149.0511	17	C8H6FN2+
149.0637	5	C9H8FN+
150.0353	11	C8H5FNO+
150.0466	4	C12H6+
150.0718	3	C9H9FN+
151.0354	22	C9H5F2+
151.0429	11	C8H6FNO+
151.0545	4	C12H7+
152.0505	46	C8H7FNO+
153.0448	42	C10H5N2+
153.0576	2	C11H7N+
154.0401	57	C9H4N3+
154.0529	3	C10H6N2+
154.0657	4	C11H8N+
155.0604	116	C10H7N2+
156.0371	20	C11H5F+
156.0682	40	C10H8N2+
157.0451	78	C11H6F+
157.052	10	C10H7NO+
158.0402	156	C10H5FN+
159.0354	14	C9H4FN2+
159.048	15	C10H6FN+
160.0434	23	C9H5FN2+
160.0555	6	C10H7FN+
161.0391	20	C13H5+
161.0513	20	C9H6FN2+
161.0638	2	C10H8FN+
162.0349	12	C9H5FNO+
162.0464	30	C13H6+
162.0714	3	C10H9FN+
163.0429	4	C9H6FNO+
163.0543	74	C13H7+
164.0502	46	C9H7FNO+
165.0224	2	C8H4FNO2+
165.045	16	C11H5N2+
166.0526	25	C11H6N2+
167.0294	3	C12H4F+
167.0605	5	C11H7N2+
168.0372	29	C12H5F+
168.0441	4	C11H6NO+
168.0557	3	C10H6N3+
168.0682	5	C11H8N2+
169.0448	17	C12H6F+
169.065	23	C12H9O+
169.076	14	C11H9N2+
170.0401	11	C11H5FN+
170.0528	69	C12H7F+
170.0596	5	C11H8NO+
171.0479	16	C11H6FN+
171.0549	7	C10H7N2O+
172.056	21	C11H7FN+
173.0511	305	C10H6FN2+
174.0469	12	C14H6+
174.0589	99	C10H7FN2+
175.0355	63	C11H5F2+
175.042	6	C13H5N+
175.054	14	C9H6FN3+
175.0666	19	C10H8FN2+
176.0308	26	C10H4F2N+
176.0432	9	C11H6F2+
176.0503	22	C10H7FNO+
176.0621	20	C14H8+
177.0454	9	C9H6FN2O+
177.0576	20	C13H7N+
177.0699	5	C14H9+
178.0652	14	C13H8N+
179.0295	4	C13H4F+
179.0379	5	C9H6FNO2+
179.0606	10	C12H7N2+
180.037	34	C13H5F+
180.0456	19	C9H7FNO2+
181.0448	418	C13H6F+
182.0402	111	C12H5FN+
182.0527	82	C13H7F+
183.0487	25	C12H6FN+
183.0606	171	C13H8F+
184.0323	6	C12H5FO+
184.0559	56	C12H7FN+
184.0635	4	C11H8N2O+
185.051	15	C11H6FN2+
185.0637	41	C12H8FN+
185.071	4	C11H9N2O+
186.0478	43	C12H7FO+
186.0589	27	C11H7FN2+
186.0714	3	C12H9FN+
187.0427	4	C11H6FNO+
187.0551	51	
188.043	63	C12H6F2+
188.0499	103	C11H7FNO+
189.0385	10	C11H5F2N+
189.0576	37	C14H7N+
190.0464	5	C11H6F2N+
190.0651	54	C14H8N+
191.073	9	C14H9N+
192.037	10	C14H5F+
192.0452	2	C10H7FNO2+
193.0323	3	C13H4FN+
193.0449	11	C14H6F+
193.0525	3	C13H7NO+
193.0649	19	C14H9O+
194.0402	9	C13H5FN+
194.0526	49	C14H7F+
194.0606	23	C10H9FNO2+
195.048	118	C13H6FN+
195.061	20	C14H8F+
196.0559	114	C13H7FN+
196.0686	30	C14H9F+
197.0511	52	C12H6FN2+
197.0635	24	C13H8FN+
198.0715	31	C10H10F2NO+
199.0354	216	C13H5F2+
200.0306	20	C12H4F2N+
200.0432	185	C13H6F2+
201.051	629	C13H7F2+
202.0463	164	C12H6F2N+
202.0656	27	C15H8N+
203.054	68	C12H7F2N+
203.0615	52	C11H8FN2O+
203.0727	8	C15H9N+
204.0382	112	C12H6F2O+
204.0552	15	C13H6N3+
204.081	9	C15H10N+
205.0453	10	C15H6F+
206.0403	144	C14H5FN+
207.048	121	C14H6FN+
207.0602	20	C10H7F2N3+
208.0559	875	C14H7FN+
209.0637	333	C14H8FN+
210.0586	17	C13H7FN2+
210.0713	22	C14H9FN+
211.0433	25	C13H6FNO+
211.0557	9	C14H8FO+
211.0667	18	C13H8FN2+
211.0784	5	C14H10FN+
212.0416	24	C6H6N5O4+
212.0507	23	C13H7FNO+
213.0383	22	C13H5F2N+
214.046	54	C13H6F2N+
214.0588	25	C14H8F2+
215.0531	61	C13H7F2N+
216.0614	69	C13H8F2N+
217.0329	4	C15H4FN+
218.0607	3	C12H9FNO2+
219.048	57	C15H6FN+
220.056	78	C15H7FN+
221.0512	48	C11H7F2N2O+
221.0636	78	C15H8FN+
222.0465	23	C18H6+
222.0594	18	C11H8F2N2O+
222.0714	235	C15H9FN+
223.0667	91	C14H8FN2+
223.0775	6	C12H12FO3+
224.0312	3	C14H4F2N+
224.0745	12	C14H9FN2+
224.0866	5	C15H11FN+
225.0386	16	C14H5F2N+
225.0494	6	C7H7N5O4+
225.0598	29	C11H9F2NO2+
226.0464	914	C14H6F2N+
227.0542	999	C14H7F2N+
228.0621	187	C14H8F2N+
229.0573	63	C13H7F2N2+
229.0699	39	C14H9F2N+
230.0402	3	C13H6F2NO+
231.0483	2	C16H6FN+
232.0332	51	C13H6F2O2+
232.056	41	C16H7FN+
233.051	36	C12H7F2N2O+
233.0636	23	C16H8FN+
234.0588	112	C15H7FN2+
234.0714	27	C16H9FN+
235.0669	92	C15H8FN2+
235.0787	10	C16H10FN+
236.0503	15	C15H7FNO+
236.0621	13	C19H8+
236.0739	33	C15H9FN2+
237.0386	14	C15H5F2N+
237.0589	12	C15H8FNO+
237.0827	12	C15H10FN2+
238.0469	25	C15H6F2N+
238.0668	46	C15H9FNO+
239.0379	14	C14H6FNO2+
239.0542	87	C15H7F2N+
240.0619	167	C15H8F2N+
241.0575	50	C14H7F2N2+
241.0691	8	C15H9F2N+
242.0648	17	C14H8F2N2+
242.0777	19	C15H10F2N+
243.0487	16	C14H7F2NO+
243.0732	11	C14H9F2N2+
244.0566	18	C14H8F2NO+
244.0807	5	C14H10F2N2+
246.0462	9	C15H5FN3+
246.0719	3	C14H10F2NO+
247.0667	46	C16H8FN2+
248.0746	28	C16H9FN2+
249.0699	4	C20H9+
249.082	38	C16H10FN2+
250.0663	7	C16H9FNO+
250.0902	12	C16H11FN2+
251.0628	2	C12H9F2N2O2+
252.0502	6	C15H6F2N2+
252.0621	26	C16H8F2N+
253.0574	108	C15H7F2N2+
253.07	18	C16H9F2N+
254.0414	13	C15H6F2NO+
254.0652	97	C15H8F2N2+
255.0495	42	C15H7F2NO+
255.0728	58	C15H9F2N2+
256.0569	123	C15H8F2NO+
257.0283	3	C14H5F2NO2+
258.0357	4	C14H6F2NO2+
258.0584	2	C17H7FN2+
259.0439	5	C14H7F2NO2+
259.0667	11	C17H8FN2+
260.0742	19	C17H9FN2+
261.0697	14	C16H8FN3+
261.0827	11	C17H10FN2+
262.0774	22	C16H9FN3+
263.0612	4	C16H8FN2O+
263.0855	10	C16H10FN3+
265.0563	2	C16H7F2N2+
266.0657	4	C16H8F2N2+
267.0726	16	C16H9F2N2+
268.0565	5	C16H8F2NO+
268.0808	5	C16H10F2N2+
269.0645	5	C16H9F2NO+
269.0895	2	C16H11F2N2+
270.0599	8	C15H8F2N2O+
270.0729	9	C16H10F2NO+
271.0678	4	C15H9F2N2O+
275.0849	3	C17H10FN3+
276.0698	3	C17H9FN2O+
277.0774	4	C14H11F2N2O2+
279.0725	2	C17H9F2N2+
283.0684	5	C16H9F2N2O+
297.0822	2	C20H10FN2+
