Mass spectrum: Niflumic acid; LC-ESI-QFT; MS2; CE: 150; R=35000; [M-H]-
Name: Niflumic acid
Name: 2-[3-(trifluoromethyl)anilino]pyridine-3-carboxylic acid
Formula: C13H9F3N2O2
Exact mass: 282.06161
SMILES: C1=CC(=CC(=C1)NC2=C(C=CC=N2)C(=O)O)C(F)(F)F
InChI: InChI=1S/C13H9F3N2O2/c14-13(15,16)8-3-1-4-9(7-8)18-11-10(12(19)20)5-2-6-17-11/h1-7H,(H,17,18)(H,19,20)
Instrument: Q Exactive Plus Orbitrap Thermo Scientific
Instrument type: LC-ESI-QFT
Ms type: MS2
Ion mode: NEGATIVE
Ionization: ESI
Fragmentation mode: HCD
Collision energy: 150 (nominal)
Resolution: 35000
Column name: XBridge C18 3.5um, 2.1x50mm, Waters
Retention time: 12.9 min
Base peak: 281.0538
Precursor m/z: 281.0543
Precursor type: [M-H]-
m/z	relative intensity	assigned
50.0036	568	C3N-
64.0193	45	C4H2N-
66.0349	432	C4H4N-
66.9989	24	C4F-
68.9958	95	CF3-
72.0005	38	C6-
73.0084	574	C6H-
74.0037	494	C5N-
76.0192	11	C5H2N-
89.0145	33	C5HN2-
90.0348	38	C6H4N-
91.0302	220	C5H3N2-
93.0458	528	C5H5N2-
96.0005	6	C8-
97.0083	137	C8H-
98.0036	520	C7N-
99.0115	7	C7HN-
100.0192	88	C7H2N-
102.0349	41	C7H4N-
103.03	7	C6H3N2-
114.0349	220	C8H4N-
115.03	27	C7H3N2-
116.9957	7	C5F3-
118.0099	6	C7HFN-
120.0255	46	C7H3FN-
121.0082	51	C10H-
122.0037	98	C9N-
123.024	5	C10H3-
124.0194	66	C9H2N-
127.0301	33	C8H3N2-
138.0349	80	C10H4N-
139.03	42	C9H3N2-
140.0507	5	C10H6N-
141.0459	37	C9H5N2-
147.0115	5	C11HN-
148.0192	101	C11H2N-
149.0148	45	C10HN2-
149.027	10	C11H3N-
150.0349	42	C11H4N-
151.0299	39	C10H3N2-
160.0379	12	C7H5F3N-
163.0299	11	C11H3N2-
165.0457	606	C11H5N2-
166.0535	42	C11H6N2-
167.0615	10	C11H7N2-
169.0205	26	C10H2FN2-
174.0222	35	C12H2N2-
175.0301	999	C12H3N2-
176.0377	39	C12H4N2-
177.0455	31	C12H5N2-
194.0279	9	C12H3FN2-
195.0362	66	C12H4FN2-
