Mass spectrum: Cortisone; LC-ESI-QFT; MS2; CE: 75; R=35000; [M+H]+
Name: Cortisone
Name: 17,21-Dihydroxypregn-4-ene-3,11,20-trione
Name: (8S,9S,10R,13S,14S,17R)-17-hydroxy-17-(2-hydroxyacetyl)-10,13-dimethyl-1,2,6,7,8,9,12,14,15,16-decahydrocyclopenta[a]phenanthrene-3,11-dione
Formula: C21H28O5
Exact mass: 360.19367
SMILES: O=C(CO)[C@@]3(O)CC[C@H]2[C@@H]4CC\C1=C\C(=O)CC[C@]1(C)[C@H]4C(=O)C[C@@]23C
InChI: InChI=1S/C21H28O5/c1-19-7-5-13(23)9-12(19)3-4-14-15-6-8-21(26,17(25)11-22)20(15,2)10-16(24)18(14)19/h9,14-15,18,22,26H,3-8,10-11H2,1-2H3/t14-,15-,18+,19-,20-,21-/m0/s1
Instrument: Q Exactive Plus Orbitrap Thermo Scientific
Instrument type: LC-ESI-QFT
Ms type: MS2
Ion mode: POSITIVE
Ionization: ESI
Fragmentation mode: HCD
Collision energy: 75 (nominal)
Resolution: 35000
Column name: XBridge C18 3.5um, 2.1x50mm, Waters
Retention time: 7.3 min
Base peak: 361.2008
Precursor m/z: 361.201
Precursor type: [M+H]+
m/z	relative intensity	assigned
50.0151	3	C4H2+
51.0229	9	C4H3+
52.0306	1	C4H4+
53.0022	3	C3HO+
53.0386	42	C4H5+
55.0179	149	C3H3O+
55.0542	142	C4H7+
57.0335	17	C3H5O+
57.0699	3	C4H9+
65.0386	35	C5H5+
67.0542	210	C5H7+
67.9892	2	C3O2+
69.0335	60	C4H5O+
69.0699	115	C5H9+
71.0491	29	C4H7O+
77.0385	53	C6H5+
78.0464	2	C6H6+
79.0542	502	C6H7+
80.062	2	C6H8+
81.0335	29	C5H5O+
81.0699	336	C6H9+
83.0491	304	C5H7O+
85.0647	3	C5H9O+
91.0543	740	C7H7+
92.0621	3	C7H8+
93.0699	758	C7H9+
94.0414	2	C6H6O+
94.0778	2	C7H10+
95.0492	182	C6H7O+
95.0855	152	C7H11+
97.0648	425	C6H9O+
99.044	3	C5H7O2+
103.0542	76	C8H7+
104.0621	10	C8H8+
105.0448	70	C6H5N2+
105.0699	999	C8H9+
106.0778	2	C8H10+
107.0491	137	C7H7O+
107.0855	481	C8H11+
108.0569	9	C7H8O+
109.0648	112	C7H9O+
109.1012	12	C8H13+
111.044	6	C6H7O2+
111.0805	7	C7H11O+
115.0542	109	C9H7+
116.0621	39	C9H8+
117.0699	300	C9H9+
118.0777	3	C9H10+
119.0492	23	C8H7O+
119.0605	24	C7H7N2+
119.0856	397	C9H11+
120.0571	2	C8H8O+
121.0648	765	C8H9O+
121.1012	133	C9H13+
122.0725	3	C8H10O+
123.0804	118	C8H11O+
125.0597	2	C7H9O2+
128.0621	146	C10H8+
129.0699	187	C10H9+
130.0778	127	C10H10+
131.0493	12	C9H7O+
131.0856	227	C10H11+
132.057	20	C9H8O+
132.0934	3	C10H12+
133.0648	100	C9H9O+
133.1012	107	C10H13+
134.0727	15	C9H10O+
135.0805	107	C9H11O+
135.1169	52	C10H15+
137.0597	3	C8H9O2+
137.0962	13	C9H13O+
139.0753	3	C8H11O2+
141.0699	92	C11H9+
142.0778	104	C11H10+
143.0856	231	C11H11+
144.057	23	C10H8O+
144.0935	20	C11H12+
145.0649	65	C10H9O+
145.1012	353	C11H13+
146.0726	31	C10H10O+
146.1089	6	C11H14+
147.0805	151	C10H11O+
147.1169	21	C11H15+
148.0883	341	C10H12O+
149.0599	2	C9H9O2+
149.0961	31	C10H13O+
152.0622	10	C12H8+
153.0699	51	C12H9+
154.0778	46	C12H10+
155.0604	16	C10H7N2+
155.0856	145	C12H11+
156.0934	42	C12H12+
157.0649	33	C11H9O+
157.1013	108	C12H13+
158.0728	30	C11H10O+
158.1091	12	C12H14+
159.0805	85	C11H11O+
159.1169	46	C12H15+
160.0885	13	C11H12O+
160.1251	2	C12H16+
161.0961	77	C11H13O+
162.1035	5	C11H14O+
163.1118	585	C11H15O+
165.0699	77	C13H9+
166.0777	44	C13H10+
167.0855	91	C13H11+
168.0934	53	C13H12+
169.0647	12	C12H9O+
169.1012	121	C13H13+
170.0725	8	C12H10O+
170.109	18	C13H14+
171.0805	47	C12H11O+
171.1168	55	C13H15+
172.088	11	C12H12O+
172.1247	3	C13H16+
173.0961	48	C12H13O+
173.1327	12	C13H17+
174.104	63	C12H14O+
175.1119	27	C12H15O+
176.1193	2	C12H16O+
178.0779	27	C14H10+
179.0856	74	C14H11+
180.0934	52	C14H12+
181.0649	9	C13H9O+
181.1012	97	C14H13+
182.0727	10	C13H10O+
182.1091	35	C14H14+
183.0805	23	C13H11O+
183.1169	93	C14H15+
184.0886	16	C13H12O+
184.1244	11	C14H16+
185.0959	31	C13H13O+
185.1325	59	C14H17+
186.1038	3	C13H14O+
186.1403	11	C14H18+
187.0753	2	C12H11O2+
187.1116	19	C13H15O+
187.1481	3	C14H19+
188.1197	3	C13H16O+
189.0699	2	C15H9+
189.0908	6	C12H13O2+
189.1276	20	C13H17O+
190.0779	7	C15H10+
191.0856	34	C15H11+
192.0934	35	C15H12+
193.1012	54	C15H13+
194.0723	3	C14H10O+
194.1091	26	C15H14+
195.0807	20	C14H11O+
195.1169	63	C15H15+
196.0883	14	C14H12O+
196.1245	15	C15H16+
197.0962	29	C14H13O+
197.1325	44	C15H17+
198.1039	9	C14H14O+
198.1403	8	C15H18+
199.1118	35	C14H15O+
199.148	22	C15H19+
200.1195	7	C14H16O+
200.1562	8	C15H20+
201.1275	10	C14H17O+
202.1351	3	C14H18O+
203.0855	14	C16H11+
203.1431	2	C14H19O+
204.0932	10	C16H12+
205.1013	28	C16H13+
206.1091	29	C16H14+
207.0808	3	C15H11O+
207.1169	37	C16H15+
208.0885	11	C15H12O+
208.1245	15	C16H16+
209.0962	29	C15H13O+
209.1326	37	C16H17+
210.1045	12	C15H14O+
210.1405	3	C16H18+
211.112	31	C15H15O+
211.1484	11	C16H19+
212.1194	2	C15H16O+
212.1562	1	C16H20+
213.1274	20	C15H17O+
213.1636	7	C16H21+
214.1356	3	C15H18O+
215.0849	2	C17H11+
215.1069	3	C14H15O2+
215.1428	7	C15H19O+
216.0931	3	C17H12+
217.1012	18	C17H13+
218.109	9	C17H14+
219.1171	16	C17H15+
220.0883	1	C16H12O+
220.1245	7	C17H16+
221.0962	7	C16H13O+
221.1327	14	C17H17+
222.104	6	C16H14O+
222.14	3	C17H18+
223.1117	14	C16H15O+
223.1481	15	C17H19+
224.1197	12	C16H16O+
224.1561	3	C17H20+
225.1276	46	C16H17O+
225.1637	3	C17H21+
226.1352	49	C16H18O+
227.1431	58	C16H19O+
228.1506	3	C16H20O+
229.1012	5	C18H13+
229.1588	3	C16H21O+
231.1172	11	C18H15+
232.125	2	C18H16+
233.0959	2	C17H13O+
233.1326	6	C18H17+
234.1039	2	C17H14O+
235.1121	11	C17H15O+
235.1478	3	C18H19+
236.1196	3	C17H16O+
237.1274	12	C17H17O+
237.1637	2	C18H21+
238.1351	9	C17H18O+
239.143	15	C17H19O+
240.1512	17	C17H20O+
241.1588	64	C17H21O+
242.1298	3	C16H18O2+
242.1665	20	C17H22O+
243.1381	153	C16H19O2+
247.1113	2	C18H15O+
249.1272	6	C18H17O+
251.1432	23	C18H19O+
252.1512	2	C18H20O+
253.1233	1	C17H17O2+
253.1581	2	C18H21O+
254.1298	10	C17H18O2+
255.1385	2	C17H19O2+
255.1742	10	C18H23O+
256.1825	8	C18H24O+
257.1531	3	C17H21O2+
258.1615	75	C17H22O2+
265.1587	2	C19H21O+
267.1385	1	C18H19O2+
269.1535	47	C18H21O2+
284.1777	3	C19H24O2+
