Mass spectrum: Letrozole; LC-ESI-QFT; MS2; CE: 15; R=35000; [M-H]-
Name: Letrozole
Name: 4-[(4-cyanophenyl)-(1,2,4-triazol-1-yl)methyl]benzonitrile
Formula: C17H11N5
Exact mass: 285.10145
SMILES: C1=CC(=CC=C1C#N)C(C2=CC=C(C=C2)C#N)N3C=NC=N3
InChI: InChI=1S/C17H11N5/c18-9-13-1-5-15(6-2-13)17(22-12-20-11-21-22)16-7-3-14(10-19)4-8-16/h1-8,11-12,17H
Instrument: Q Exactive Plus Orbitrap Thermo Scientific
Instrument type: LC-ESI-QFT
Ms type: MS2
Ion mode: NEGATIVE
Ionization: ESI
Fragmentation mode: HCD
Collision energy: 15 (nominal)
Resolution: 35000
Column name: XBridge C18 3.5um, 2.1x50mm, Waters
Retention time: 6.6 min
Base peak: 284.0946
Precursor m/z: 284.0942
Precursor type: [M-H]-
m/z	relative intensity	assigned
102.0348	3	C7H4N-
127.0296	3	C8H3N2-
242.0726	8	C16H8N3-
256.0884	2	C17H10N3-
257.083	3	C16H9N4-
284.0941	999	C17H10N5-
