Mass spectrum: Sulfathiazole; LC-ESI-ITFT; MS2; CE: 60%; R=15000; [M+H]+
Name: Sulfathiazole
Name: 4-Amino-N-2-thiazolylbenzenesulfonamide
Name: 4-amino-N-(1,3-thiazol-2-yl)benzenesulfonamide
Formula: C9H9N3O2S2
Exact mass: 255.0136
SMILES: c1(S(Nc2nccs2)(=O)=O)ccc(N)cc1
InChI: InChI=1S/C9H9N3O2S2/c10-7-1-3-8(4-2-7)16(13,14)12-9-11-5-6-15-9/h1-6H,10H2,(H,11,12)
Instrument: LTQ Orbitrap XL Thermo Scientific
Instrument type: LC-ESI-ITFT
Ms type: MS2
Ion mode: POSITIVE
Ionization: ESI
Fragmentation mode: HCD
Collision energy: 60 % (nominal)
Resolution: 15000
Column name: XBridge C18 3.5um, 2.1x50mm, Waters
Retention time: 2.8 min
Base peak: 256.0215
Precursor m/z: 256.0209
Precursor type: [M+H]+
m/z	relative intensity	assigned
65.0385	167	C5H5+
68.0495	115	C4H6N+
78.0338	10	C5H4N+
80.0494	18	C5H6N+
92.0495	721	C6H6N+
96.0444	12	C5H6NO+
100.0088	13	C3H4N2S+
101.0168	120	C3H5N2S+
108.0444	999	C6H6NO+
110.0601	62	C6H8NO+
156.0113	227	C6H6NO2S+
