Mass spectrum: Chlortetracycline; LC-ESI-QFT; MS2; CE: 45; R=35000; [M-H]-
Name: Chlortetracycline
Name: 2-carbamoyl-7-chloro-4-(dimethylazaniumyl)-6,10,11,12a-tetrahydroxy-6-methyl-3,12-dioxo-4,4a,5,5a-tetrahydrotetracen-1-olate
Formula: C22H23ClN2O8
Exact mass: 478.11429
SMILES: CC1(C2CC3C(C(=O)C(=C(C3(C(=O)C2=C(C4=C(C=CC(=C41)Cl)O)O)O)O)C(=O)N)N(C)C)O
InChI: InChI=1S/C22H23ClN2O8/c1-21(32)7-6-8-15(25(2)3)17(28)13(20(24)31)19(30)22(8,33)18(29)11(7)16(27)12-10(26)5-4-9(23)14(12)21/h4-5,7-8,15,26-27,30,32-33H,6H2,1-3H3,(H2,24,31)
Instrument: Q Exactive Plus Orbitrap Thermo Scientific
Instrument type: LC-ESI-QFT
Ms type: MS2
Ion mode: NEGATIVE
Ionization: ESI
Fragmentation mode: HCD
Collision energy: 45 (nominal)
Resolution: 35000
Column name: XBridge C18 3.5um, 2.1x50mm, Waters
Retention time: 5.4 min
Base peak: 477.1067
Precursor m/z: 477.107
Precursor type: [M-H]-
m/z	relative intensity	assigned
57.0345	1	C3H5O-
59.0138	24	C2H3O2-
63.0239	1	C5H3-
65.0395	1	C5H5-
65.9985	10	C3NO-
67.007	12	ClH4N2-
68.9981	9	C3HO2-
79.0552	1	C6H7-
81.0218	1	C4H3NO-
81.0345	1	C5H5O-
83.0138	2	C4H3O2-
84.009	36	C3H2NO2-
86.0247	8	C3H4NO2-
87.0087	16	C3H3O3-
91.019	1	C6H3O-
91.0554	1	C7H7-
93.0345	5	C6H5O-
95.0137	2	C5H3O2-
95.0504	1	C6H7O-
96.0091	2	C4H2NO2-
96.9931	7	C4HO3-
97.0294	1	C5H5O2-
99.0088	16	C4H3O3-
100.0767	13	C5H10NO-
102.0561	9	C4H8NO2-
105.0345	2	C7H5O-
107.0501	10	C7H7O-
108.0216	6	C6H4O2-
109.0294	34	C6H5O2-
111.0089	9	C5H3O3-
111.0453	11	C6H7O2-
117.0349	5	C8H5O-
119.0138	6	C7H3O2-
119.0501	3	C8H7O-
120.0454	1	C7H6NO-
121.0294	2	C7H5O2-
121.0658	14	C8H9O-
122.0008	1	C6H2O3-
123.0088	5	C6H3O3-
123.0452	12	C7H7O2-
124.004	8	C5H2NO3-
124.0165	7	C6H4O3-
124.0769	5	C7H10NO-
124.9878	3	C5HO4-
125.072	59	C6H9N2O-
125.9877	2	C6H3ClO-
126.0196	9	C5H4NO3-
126.056	41	C6H8NO2-
126.9956	128	C6H4ClO-
131.0502	3	C9H7O-
133.0295	32	C8H5O2-
134.0245	2	C7H4NO2-
135.0088	51	C7H3O3-
135.0452	28	C8H7O2-
136.0165	3	C7H4O3-
136.0403	23	C7H6NO2-
137.0242	15	C7H5O3-
139.0152	14	C5H3N2O3-
139.0401	1	C7H7O3-
140.0036	2	C7H5ClO-
141.9828	12	C6H3ClO2-
142.0146	26	C5H4NO4-
142.9986	25	C5H3O5-
145.0295	9	C9H5O2-
146.0375	8	C9H6O2-
147.0452	45	C9H7O2-
148.0768	1	C9H10NO-
149.0244	29	C8H5O3-
149.0607	55	C9H9O2-
149.9958	2	C7H2O4-
150.0196	2	C7H4NO3-
151.04	2	C8H7O3-
152.0354	20	C7H6NO3-
152.0719	3	C8H10NO2-
153.0112	13	C8H6ClO-
153.0557	2	C8H9O3-
154.0384	12	C6H6N2O3-
154.9907	6	C7H4ClO2-
160.0166	16	C9H4O3-
161.0243	47	C9H5O3-
162.0196	65	C8H4NO3-
163.0038	93	C8H3O4-
163.0401	18	C9H7O3-
164.0115	9	C8H4O4-
164.0353	8	C8H6NO3-
164.0715	7	C9H10NO2-
165.0429	6	C8H7NO3-
165.0555	2	C9H9O3-
165.067	2	C8H9N2O2-
166.0872	11	C9H12NO2-
166.9905	6	C8H4ClO2-
167.0222	9	C7H5NO4-
169.0062	498	C8H6ClO2-
169.0618	29	C7H9N2O3-
170.9854	60	C7H4ClO3-
173.0241	10	C10H5O3-
174.0323	6	C10H6O3-
175.0036	6	C9H3O4-
175.04	56	C10H7O3-
177.0426	1	C9H7NO3-
178.087	1	C10H12NO2-
178.9906	26	C9H4ClO2-
179.9989	10	C9H5ClO2-
180.0302	135	C8H6NO4-
181.0062	5	C9H6ClO2-
181.0143	6	C8H5O5-
181.0381	7	C8H7NO4-
181.0506	1	C9H9O4-
182.0142	2	C9H7ClO2-
185.0608	3	C12H9O2-
187.0395	1	C11H7O3-
189.0193	6	C10H5O4-
189.0557	2	C11H9O3-
191.0267	2	C11H8ClO-
191.0349	23	C10H7O4-
192.0667	7	C10H10NO3-
192.1031	2	C11H14NO2-
193.0064	22	C10H6ClO2-
193.0505	49	C10H9O4-
194.014	7	C10H7ClO2-
194.9854	714	C9H4ClO3-
195.9926	11	C9H5ClO3-
197.001	301	C9H6ClO3-
199.0398	2	C12H7O3-
199.0764	28	C13H11O2-
203.0271	2	C12H8ClO-
205.0059	6	C11H6ClO2-
206.0139	61	C11H7ClO2-
207.0218	105	C11H8ClO2-
207.9931	30	C10H5ClO3-
209.0608	9	C14H9O2-
209.0931	54	C10H13N2O3-
211.0759	2	C14H11O2-
212.0478	2	C13H8O3-
215.0358	2	C9H10ClNO3-
217.0053	1	C12H6ClO2-
217.0424	34	C13H10ClO-
219.0217	25	C12H8ClO2-
220.0296	44	C12H9ClO2-
221.0012	21	C11H6ClO3-
221.0375	175	C12H10ClO2-
222.0089	9	C11H7ClO3-
223.0166	23	C11H8ClO3-
223.0764	6	C15H11O2-
224.0248	1	C11H9ClO3-
224.0474	2	C14H8O3-
225.0561	3	C11H12ClNO2-
227.0713	19	C14H11O3-
229.0056	3	C13H6ClO2-
229.0427	5	C14H10ClO-
230.014	2	C13H7ClO2-
231.0217	38	C13H8ClO2-
233.0009	1	C12H6ClO3-
233.0373	11	C13H10ClO2-
235.0168	40	C12H8ClO3-
235.0531	252	C13H12ClO2-
236.0479	1	C15H8O3-
236.0929	7	C12H14NO4-
237.0323	5	C12H10ClO3-
237.0555	7	C15H9O3-
238.0039	17	C11H7ClO4-
239.0715	8	C15H11O3-
243.0215	19	C14H8ClO2-
244.0298	3	C14H9ClO2-
245.0374	143	C14H10ClO2-
246.0087	6	C13H7ClO3-
247.0168	41	C13H8ClO3-
247.0525	11	C14H12ClO2-
248.0245	198	C13H9ClO3-
248.9961	2	C12H6ClO4-
249.0325	15	C13H10ClO3-
250.0036	5	C12H7ClO4-
251.0118	10	C12H8ClO4-
251.0351	2	C15H7O4-
252.0428	9	C15H8O4-
253.0508	14	C15H9O4-
254.0219	9	C14H6O5-
255.0207	2	C16H3N2O2-
257.0374	52	C15H10ClO2-
258.0169	8	C10H9ClNO5-
259.0163	13	C14H8ClO3-
259.0533	19	C15H12ClO2-
260.0249	13	C14H9ClO3-
261.0322	39	C14H10ClO3-
263.048	446	C14H12ClO3-
263.9828	6	C12H5ClO5-
264.0197	7	C13H9ClO4-
264.0428	2	C16H8O4-
265.0272	22	C13H10ClO4-
265.0505	1	C16H9O4-
267.0215	2	C16H8ClO2-
267.0665	8	C16H11O4-
270.01	2	C15H7ClO3-
271.0167	92	C15H8ClO3-
271.0527	5	C16H12ClO2-
273.0324	41	C15H10ClO3-
273.0558	5	C18H9O3-
274.0038	21	C14H7ClO4-
275.0118	5	C14H8ClO4-
275.048	49	C15H12ClO3-
276.0428	5	C14H11ClNO3-
276.991	7	C13H6ClO5-
277.0503	2	C17H9O4-
277.9988	2	C13H7ClO5-
278.0222	9	C16H6O5-
279.0066	27	C13H8ClO5-
279.0424	9	C14H12ClO4-
281.0374	13	C17H10ClO2-
283.0166	19	C16H8ClO3-
283.0529	1	C17H12ClO2-
284.0231	5	C17H4N2O3-
285.0323	93	C16H10ClO3-
286.0043	9	C15H7ClO4-
286.0412	2	C16H11ClO3-
287.0117	51	C15H8ClO4-
287.0478	8	C16H12ClO3-
288.0199	13	C15H9ClO4-
288.0796	37	C16H15ClNO2-
289.0273	150	C15H10ClO4-
290.0356	3	C15H11ClO4-
291.0427	17	C15H12ClO4-
292.0143	3	C14H9ClO5-
292.0381	10	C14H11ClNO4-
292.1112	12	C16H19ClNO2-
293.0462	2	C14H12ClNO4-
296.0329	20	C13H11ClNO5-
297.0325	11	C17H10ClO3-
299.0108	2	C16H8ClO4-
299.0481	23	C17H12ClO3-
300.0273	11	C15H8O7-
300.0435	7	C16H11ClNO3-
301.0272	61	C16H10ClO4-
302.0352	9	C16H11ClO4-
303.0428	50	C16H12ClO4-
304.1106	7	C20H16O3-
305.0223	45	C15H10ClO5-
306.0906	20	C16H17ClNO3-
307.0378	245	C15H12ClO5-
309.0324	9	C18H10ClO3-
310.0044	2	C17H7ClO4-
311.0112	12	C17H8ClO4-
312.0195	24	C17H9ClO4-
312.0792	5	C21H12O3-
313.0273	8	C17H10ClO4-
313.9992	6	C16H7ClO5-
314.059	6	C17H13ClNO3-
315.0064	7	C16H8ClO5-
315.0428	2	C17H12ClO4-
318.0536	10	C19H10O5-
319.0377	80	C16H12ClO5-
320.0323	14	C18H8O6-
322.012	2	C17H6O7-
324.0274	5	C17H8O7-
325.0271	32	C18H10ClO4-
327.0067	16	C17H8ClO5-
327.0435	16	C18H12ClO4-
328.0745	33	C18H15ClNO3-
329.0221	55	C17H10ClO5-
329.9935	5	C16H7ClO6-
330.0903	31	C18H17ClNO3-
331.0379	8	C17H12ClO5-
332.0703	2	C17H15ClNO4-
334.0852	2	C17H17ClNO4-
338.0001	3	C21H5ClNO2-
338.043	27	C18H10O7-
341.0256	3	C21H8ClNO2-
341.994	13	C17H7ClO6-
342.0544	7	C18H13ClNO4-
343.0382	28	C18H12ClO5-
344.0461	3	C18H13ClO5-
345.0162	1	C17H10ClO6-
346.0848	8	C21H14O5-
347.0328	50	C17H12ClO6-
348.1008	9	C18H19ClNO4-
351.0069	5	C19H8ClO5-
352.0218	17	C18H8O8-
353.0215	12	C19H10ClO5-
354.0536	5	C19H13ClNO4-
354.0909	2	C20H17ClNO3-
356.0091	12	C18H9ClO6-
356.0704	12	C19H15ClNO4-
356.1139	3	C19H18NO6-
357.989	11	C17H7ClO7-
359.0338	2	C18H12ClO6-
364.0953	23	C21H16O6-
368.0162	3	C15H11ClNO8-
369.0174	11	C19H10ClO6-
370.0331	48	C15H13ClNO8-
370.0855	10	C20H17ClNO4-
371.0324	22	C19H12ClO6-
373.0115	2	C18H10ClO7-
387.0275	12	C19H12ClO7-
388.0954	13	C20H19ClNO5-
389.0432	6	C19H14ClO7-
392.0906	999	C19H19ClNO6-
397.0114	2	C20H10ClO7-
398.0802	1	C21H17ClNO5-
399.0759	3	C20H16ClN2O5-
399.9988	31	C19H9ClO8-
415.0228	10	C20H12ClO8-
416.0908	9	C21H19ClNO6-
460.0812	2	C22H19ClNO8-
