Mass spectrum: Cyclophosphamide; LC-ESI-ITFT; MS2; CE: 90%; R=7500; [M+H]+
Name: Cyclophosphamide
Name: N,N-bis(2-chloroethyl)-2-oxidanylidene-1,3,2$l^{5}-oxazaphosphinan-2-amine
Formula: C7H15Cl2N2O2P
Exact mass: 260.0248
SMILES: ClCCN(CCCl)P1(=O)NCCCO1
InChI: InChI=1S/C7H15Cl2N2O2P/c8-2-5-11(6-3-9)14(12)10-4-1-7-13-14/h1-7H2,(H,10,12)
Instrument: LTQ Orbitrap XL Thermo Scientific
Instrument type: LC-ESI-ITFT
Ms type: MS2
Ion mode: POSITIVE
Ionization: ESI
Fragmentation mode: HCD
Collision energy: 90 % (nominal)
Resolution: 7500
Column name: XBridge C18 3.5um, 2.1x50mm, Waters
Retention time: 6.3 min
Base peak: 261.0328
Precursor m/z: 261.0321
Precursor type: [M+H]+
m/z	relative intensity	assigned
54.0339	9	C3H4N+
56.0494	287	C3H6N+
58.0651	136	C3H8N+
62.9996	757	C2H4Cl+
68.0494	11	C4H6N+
70.065	47	C4H8N+
78.0105	138	C2H5ClN+
79.9895	18	H3NO2P+
80.0262	11	C2H7ClN+
91.9896	115	CH3NO2P+
94.0052	69	C5H2O2+
98.0004	15	CH5ClNO2+
102.0102	75	C3H5NOP+
104.0261	116	C4H7ClN+
106.0052	64	C2H5NO2P+
106.0418	188	C4H9ClN+
110.0002	39	C2H5ClNO2+
111.9715	27	C2H4Cl2N+
112.0158	75	C2H7ClNO2+
113.9873	15	C2H6Cl2N+
114.0104	12	C5H5ClN+
120.0208	233	C3H7NO2P+
123.9713	26	C2H4ClNOP+
124.0157	22	C3H7ClNO2+
127.9666	7	C2H4Cl2NO+
138.0314	56	C4H9ClNO2+
140.0027	999	
141.9818	90	C2H6ClNO2P+
142.0183	209	C3H10ClNOP+
