Mass spectrum: Triclocarban; LC-ESI-ITFT; MS2; CE: 35%; R=15000; [M+H]+
Name: Triclocarban
Name: 1-(4-chlorophenyl)-3-(3,4-dichlorophenyl)urea
Formula: C13H9Cl3N2O
Exact mass: 313.9780
SMILES: Clc2ccc(NC(=O)Nc1ccc(Cl)cc1)cc2Cl
InChI: InChI=1S/C13H9Cl3N2O/c14-8-1-3-9(4-2-8)17-13(19)18-10-5-6-11(15)12(16)7-10/h1-7H,(H2,17,18,19)
Instrument: LTQ Orbitrap XL Thermo Scientific
Instrument type: LC-ESI-ITFT
Ms type: MS2
Ion mode: POSITIVE
Ionization: ESI
Fragmentation mode: CID
Collision energy: 35 % (nominal)
Resolution: 15000
Column name: XBridge C18 3.5um, 2.1x50mm, Waters
Retention time: 14.8 min
Base peak: 314.9854
Precursor m/z: 314.9853
Precursor type: [M+H]+
m/z	relative intensity	assigned
93.0573	37	C6H7N+
126.0105	17	C6H5ClN+
127.0182	139	C6H6ClN+
128.026	688	C6H7ClN+
154.0053	28	C7H5ClNO+
159.9715	4	C6H4Cl2N+
161.987	999	C6H6Cl2N+
187.9661	26	C7H4Cl2NO+
