Mass spectrum: Difenacoum; LC-ESI-QFT; MS2; CE: 45%; R=17500; [M+H]+
Name: Difenacoum
Name: 4-hydroxy-3-[3-(4-phenylphenyl)-1,2,3,4-tetrahydronaphthalen-1-yl]chromen-2-one
Formula: C31H24O3
Exact mass: 444.1725
SMILES: C1C(CC2=CC=CC=C2C1C3=C(C4=CC=CC=C4OC3=O)O)C5=CC=C(C=C5)C6=CC=CC=C6
InChI: InChI=1S/C31H24O3/c32-30-26-12-6-7-13-28(26)34-31(33)29(30)27-19-24(18-23-10-4-5-11-25(23)27)22-16-14-21(15-17-22)20-8-2-1-3-9-20/h1-17,24,27,32H,18-19H2
Instrument: Exploris 240 Orbitrap Thermo Scientific
Instrument type: LC-ESI-QFT
Ms type: MS2
Ion mode: POSITIVE
Ionization: ESI
Fragmentation mode: HCD
Collision energy: 45 % (nominal)
Resolution: 17500
Column name: XBridge C18 3.5um, 2.1x50mm, Waters
Retention time: 15.423 min
Base peak: 445.1795
Precursor m/z: 445.1798
Precursor type: [M+H]+
m/z	relative intensity	assigned
91.0542	59	C7H7+
103.0543	3	C8H7+
107.0492	9	C7H7O+
117.0697	11	C9H9+
121.0287	7	C7H5O2+
129.0699	27	C10H9+
163.039	19	C9H7O3+
165.0699	163	C13H9+
166.0771	4	C13H10+
167.0858	21	C13H11+
171.0807	13	C12H11O+
175.039	227	C10H7O3+
178.0776	16	C14H10+
179.0855	999	C14H11+
189.0548	49	C11H9O3+
242.1086	6	C19H14+
257.1325	163	C20H17+
291.1016	21	C19H15O3+
341.1176	3	C23H17O3+
