Mass spectrum: Dimethoate; LC-ESI-ITFT; MS2; CE: 30%; R=15000; [M+H]+
Name: Dimethoate
Name: 2-(dimethoxyphosphinothioylthio)-N-methylacetamide
Formula: C5H12NO3PS2
Exact mass: 228.9996
SMILES: P(SCC(NC)=O)(OC)(OC)=S
InChI: InChI=1S/C5H12NO3PS2/c1-6-5(7)4-12-10(11,8-2)9-3/h4H2,1-3H3,(H,6,7)
Instrument: LTQ Orbitrap XL Thermo Scientific
Instrument type: LC-ESI-ITFT
Ms type: MS2
Ion mode: POSITIVE
Ionization: ESI
Fragmentation mode: HCD
Collision energy: 30 % (nominal)
Resolution: 15000
Column name: XBridge C18 3.5um, 2.1x50mm, Waters
Retention time: 5.2 min
Base peak: 230.007
Precursor m/z: 230.0069
Precursor type: [M+H]+
m/z	relative intensity	assigned
61.0106	15	C2H5S+
78.9943	10	CH4O2P+
88.0216	288	C3H6NS+
93.01	4	C2H6O2P+
104.0165	4	C3H6NOS+
109.0051	2	C2H6O3P+
110.9663	5	CH4O2PS+
119.9936	14	C3H6NS2+
123.9981	6	C2H7NOPS+
124.9821	664	C2H6O2PS+
127.0155	3	C2H8O4P+
128.9771	2	CH6O3PS+
140.9593	4	C2H6OPS2+
142.9926	436	C2H8O3PS+
155.9702	6	C2H7NOPS2+
156.9541	65	C2H6O2PS2+
158.9699	8	C2H8O2PS2+
169.9855	1	C3H9NOPS2+
170.9698	999	C3H8O2PS2+
197.9808	81	C4H9NO2PS2+
198.9647	795	C4H8O3PS2+
230.0065	16	C5H13NO3PS2+
