Mass spectrum: Ranitidine-S-oxide; LC-ESI-ITFT; MS2; CE: 90%; R=7500; [M+H]+
Name: Ranitidine-S-oxide
Name: 1,1-Ethenediamine, N-(2-(((5-((dimethylamino)methyl)-2-furanyl)methyl)sulfinyl)ethyl)-N'-methyl-2-nitro-
Formula: C13H22N4O4S
Exact mass: 330.1362
SMILES: [O-][N+](=O)\C=C(/NC)NCCS(=O)Cc1oc(cc1)CN(C)C
InChI: InChI=1S/C13H22N4O4S/c1-14-13(9-17(18)19)15-6-7-22(20)10-12-5-4-11(21-12)8-16(2)3/h4-5,9,14-15H,6-8,10H2,1-3H3/b13-9+
Instrument: LTQ Orbitrap XL Thermo Scientific
Instrument type: LC-ESI-ITFT
Ms type: MS2
Ion mode: POSITIVE
Ionization: ESI
Fragmentation mode: HCD
Collision energy: 90 % (nominal)
Resolution: 7500
Column name: XBridge C18 3.5um, 2.1x50mm, Waters
Retention time: 0.8 min
Base peak: 331.1445
Precursor m/z: 331.1435
Precursor type: [M+H]+
m/z	relative intensity	assigned
55.0417	19	C3H5N+
56.0494	33	C3H6N+
58.0651	303	C3H8N+
65.0385	26	C5H5+
66.0464	100	C5H6+
67.0416	14	C4H5N+
67.0542	98	C5H7+
68.0494	77	C4H6N+
79.0543	39	C6H7+
80.0496	34	C5H6N+
81.0336	31	C5H5O+
81.0573	86	C5H7N+
81.0699	67	C6H9+
82.0651	257	C5H8N+
83.0604	15	C4H7N2+
88.9928	16	C2H3NOS+
91.0542	17	C7H7+
93.0696	30	C7H9+
94.0413	999	C6H6O+
94.0652	293	C6H8N+
95.0491	71	C6H7O+
95.0729	234	C6H9N+
96.0552	8	C4H6N3+
97.076	221	C5H9N2+
98.0839	42	C5H10N2+
99.055	15	C4H7N2O+
102.0376	9	C4H8NS+
108.0807	188	C7H10N+
110.0964	592	C7H12N+
130.0558	18	C5H10N2S+
138.0911	17	C8H12NO+
