Mass spectrum: 2-ClPFPECA-1-2; LC-ESI-QFT; MS2; CE: 30%; R=17500; [M-H]-
Name: 2-ClPFPECA-1-2
Name: 2-Chloro-perfluoroethercarboxylate congener 1,2
Name: 2-[1-[1-[1-(2-chloro-1,1,2,3,3,3-hexafluoropropoxy)-1,2,2,2-tetrafluoroethoxy]-1,1,2,3,3,3-hexafluoropropan-2-yl]oxy-1,1,2,3,3,3-hexafluoropropan-2-yl]oxy-2,2-difluoroacetic acid
Formula: C13HClF24O6
Exact mass: 743.907842712
SMILES: C(=O)(C(OC(C(OC(C(OC(C(F)(F)F)(OC(C(C(F)(F)F)(F)Cl)(F)F)F)(F)F)(C(F)(F)F)F)(F)F)(C(F)(F)F)F)(F)F)O
InChI: InChI=1S/C13HClF24O6/c14-3(17,6(20,21)22)10(32,33)43-13(38,9(29,30)31)44-12(36,37)5(19,8(26,27)28)42-11(34,35)4(18,7(23,24)25)41-2(15,16)1(39)40/h(H,39,40)
Instrument: Exploris 240 Orbitrap Thermo Scientific
Instrument type: LC-ESI-QFT
Ms type: MS2
Ion mode: NEGATIVE
Ionization: ESI
Fragmentation mode: HCD
Collision energy: 30 % (nominal)
Resolution: 17500
Column name: XBridge C18 3.5um, 2.1x50mm, Waters
Retention time: 14.092 min
Base peak: 648.9135
Precursor m/z: 742.9006
Precursor type: [M-H]-
m/z	relative intensity	assigned
134.9875	41	C2F5O-
184.9841	101	C3F7O-
200.9546	999	C3ClF6O-
316.943	313	C5ClF10O2-
366.9396	290	C6ClF12O2-
482.9283	133	C8ClF16O3-
