Mass spectrum: Carbendazim; LC-ESI-QFT; MS2; CE: 90; R=35000; [M+H]+
Name: Carbendazim
Name: N-(1H-benzimidazol-2-yl)carbamic acid methyl ester
Formula: C9H9N3O2
Exact mass: 191.06948
SMILES: c12c(cccc1)N=C(NC(OC)=O)N2
InChI: InChI=1S/C9H9N3O2/c1-14-9(13)12-8-10-6-4-2-3-5-7(6)11-8/h2-5H,1H3,(H2,10,11,12,13)
Instrument: Q Exactive Plus Orbitrap Thermo Scientific
Instrument type: LC-ESI-QFT
Ms type: MS2
Ion mode: POSITIVE
Ionization: ESI
Fragmentation mode: HCD
Collision energy: 90 (nominal)
Resolution: 35000
Column name: XBridge C18 3.5um, 2.1x50mm, Waters
Retention time: 3.2 min
Base peak: 192.0767
Precursor m/z: 192.0768
Precursor type: [M+H]+
m/z	relative intensity	assigned
63.0229	1	C5H3+
65.0386	47	C5H5+
78.0337	1	C5H4N+
80.0494	4	C5H6N+
81.0336	2	C5H5O+
90.0339	43	C6H4N+
92.0495	131	C6H6N+
105.0448	168	C6H5N2+
106.0287	1	C6H4NO+
106.0526	9	C6H6N2+
107.0604	4	C6H7N2+
117.0448	10	C7H5N2+
118.0525	5	C7H6N2+
132.0557	510	C7H6N3+
133.0396	5	C7H5N2O+
133.0634	43	C7H7N3+
134.0712	1	C7H8N3+
135.0553	95	C7H7N2O+
159.0426	3	C8H5N3O+
160.0505	999	C8H6N3O+
