Mass spectrum: Iopamidol; LC-ESI-ITFT; MS2; CE: 45%; R=7500; [M+H]+
Name: Iopamidol
Name: 1,3-Benzenedicarboxamide, N,N'-bis(2-hydroxy-1-(hydroxymethyl)ethyl)-5-((2-hydroxy-1-oxopropyl)amino)-2,4,6-triiodo-
Name: 1-N,3-N-bis(1,3-dihydroxypropan-2-yl)-5-(2-hydroxypropanoylamino)-2,4,6-triiodobenzene-1,3-dicarboxamide
Formula: C17H22I3N3O8
Exact mass: 776.8541
SMILES: CC(O)C(=O)NC1=C(I)C(C(=O)NC(CO)CO)=C(I)C(C(=O)NC(CO)CO)=C1I
InChI: InChI=1S/C17H22I3N3O8/c1-6(28)15(29)23-14-12(19)9(16(30)21-7(2-24)3-25)11(18)10(13(14)20)17(31)22-8(4-26)5-27/h6-8,24-28H,2-5H2,1H3,(H,21,30)(H,22,31)(H,23,29)
Instrument: LTQ Orbitrap XL Thermo Scientific
Instrument type: LC-ESI-ITFT
Ms type: MS2
Ion mode: POSITIVE
Ionization: ESI
Fragmentation mode: HCD
Collision energy: 45 % (nominal)
Resolution: 7500
Column name: XBridge C18 3.5um, 2.1x50mm, Waters
Retention time: 1.2 min
Base peak: 132.9578
Precursor m/z: 777.8614
Precursor type: [M+H]+
m/z	relative intensity	assigned
74.0601	142	C3H8NO+
186.019	47	C10H4NO3+
229.0618	69	C12H9N2O3+
259.0348	88	C12H7N2O5+
259.0723	139	C13H11N2O4+
260.0797	190	C13H12N2O4+
269.9403	79	C9H5INO+
277.0825	165	C13H13N2O5+
285.9358	327	C9H5INO2+
293.9457	111	C4H9INO6+
295.0935	50	C13H15N2O6+
297.9359	56	C10H5INO2+
312.9456	106	C10H6IN2O2+
313.9311	892	C10H5INO3+
331.9416	999	C10H7INO4+
332.9714	37	C10H10IN2O3+
368.9726	100	C13H10IN2O3+
386.9834	914	C13H12IN2O4+
396.846	50	C9H5I2NO+
397.8129	95	C5H4I2O5+
404.9941	107	C13H14IN2O5+
422.8122	429	C9HI2N2O2+
438.8437	169	C10H5I2N2O2+
496.8485	44	C12H7I2N2O4+
