Mass spectrum: Valsartan; LC-ESI-ITFT; MS2; CE: 60%; R=7500; [M+H]+
Name: Valsartan
Name: (2S)-3-methyl-2-[1-oxopentyl-[[4-[2-(2H-tetrazol-5-yl)phenyl]phenyl]methyl]amino]butanoic acid
Formula: C24H29N5O3
Exact mass: 435.2270
SMILES: CCCCC(=O)N(CC1=CC=C(C=C1)C2=C(C=CC=C2)C3=NN=NN3)[C@@H](C(C)C)C(O)=O
InChI: InChI=1S/C24H29N5O3/c1-4-5-10-21(30)29(22(16(2)3)24(31)32)15-17-11-13-18(14-12-17)19-8-6-7-9-20(19)23-25-27-28-26-23/h6-9,11-14,16,22H,4-5,10,15H2,1-3H3,(H,31,32)(H,25,26,27,28)/t22-/m0/s1
Instrument: LTQ Orbitrap XL Thermo Scientific
Instrument type: LC-ESI-ITFT
Ms type: MS2
Ion mode: POSITIVE
Ionization: ESI
Fragmentation mode: HCD
Collision energy: 60 % (nominal)
Resolution: 7500
Column name: XBridge C18 3.5um, 2.1x50mm, Waters
Retention time: 11.2 min
Base peak: 436.2337
Precursor m/z: 436.2343
Precursor type: [M+H]+
m/z	relative intensity	assigned
79.0545	5	C6H7+
80.0494	9	C5H6N+
84.0811	3	C5H10N+
105.0447	7	C6H5N2+
115.0539	13	C9H7+
129.0445	11	C8H5N2+
129.0697	3	C10H9+
140.0494	48	C10H6N+
141.0701	6	C11H9+
151.0545	9	C12H7+
152.0621	24	C12H8+
153.0698	247	C12H9+
155.0602	3	C10H7N2+
163.0542	38	C13H7+
165.0699	68	C13H9+
166.065	25	C12H8N+
166.0785	9	C13H10+
167.0733	34	C12H9N+
177.0566	8	C13H7N+
178.0777	285	C14H10+
179.0731	56	C13H9N+
180.0808	911	C13H10N+
190.0651	540	C14H8N+
191.0729	102	C14H9N+
192.0688	230	C13H8N2+
193.0887	40	C14H11N+
194.0607	6	C13H8NO+
194.0965	41	C14H12N+
195.0802	14	C14H11O+
196.0755	26	C13H10NO+
205.0761	156	C14H9N2+
206.0839	455	C14H10N2+
207.0917	999	C14H11N2+
208.0756	192	C14H10NO+
209.1071	38	C14H13N2+
210.0915	52	C14H12NO+
221.1075	4	C15H13N2+
235.0865	32	C15H11N2O+
290.1403	7	C17H16N5+
291.1494	21	C19H19N2O+
