Mass spectrum: Chloridazon; LC-ESI-ITFT; MS2; CE: 45%; R=7500; [M+H]+
Name: Chloridazon
Name: 5-amino-4-chloro-2-phenyl-3-pyridazinone
Formula: C10H8ClN3O
Exact mass: 221.0350
SMILES: ClC(=C(N)C=N1)C(=O)N1-c(ccc2)cc2
InChI: InChI=1S/C10H8ClN3O/c11-9-8(12)6-13-14(10(9)15)7-4-2-1-3-5-7/h1-6H,12H2
Instrument: LTQ Orbitrap XL Thermo Scientific
Instrument type: LC-ESI-ITFT
Ms type: MS2
Ion mode: POSITIVE
Ionization: ESI
Fragmentation mode: HCD
Collision energy: 45 % (nominal)
Resolution: 7500
Column name: XBridge C18 3.5um, 2.1x50mm, Waters
Retention time: 5.2 min
Base peak: 222.0432
Precursor m/z: 222.0429
Precursor type: [M+H]+
m/z	relative intensity	assigned
65.0386	2	C5H5+
77.0384	9	C6H5+
92.0495	22	C6H6N+
94.0652	13	C6H8N+
100.9903	1	C3H2ClN2+
104.0496	59	C7H6N+
105.0446	1	C6H5N2+
128.985	10	C4H2ClN2O+
146.0117	6	C4H5ClN3O+
159.0554	1	C9H7N2O+
159.0784	1	C9H9N3+
186.0663	9	C10H8N3O+
193.0292	5	C10H8ClNO+
195.0322	1	C9H8ClN2O+
205.0161	3	C10H6ClN2O+
222.0431	999	C10H9ClN3O+
