Mass spectrum: Boscalid; LC-ESI-ITFT; MS2; CE: 15%; R=15000; [M+H]+
Name: Boscalid
Name: 2-chloranyl-N-[2-(4-chlorophenyl)phenyl]pyridine-3-carboxamide
Formula: C18H12Cl2N2O
Exact mass: 342.0327
SMILES: c1ccc(c(c1)c2ccc(cc2)Cl)NC(=O)c3cccnc3Cl
InChI: InChI=1S/C18H12Cl2N2O/c19-13-9-7-12(8-10-13)14-4-1-2-6-16(14)22-18(23)15-5-3-11-21-17(15)20/h1-11H,(H,22,23)
Instrument: LTQ Orbitrap XL Thermo Scientific
Instrument type: LC-ESI-ITFT
Ms type: MS2
Ion mode: POSITIVE
Ionization: ESI
Fragmentation mode: HCD
Collision energy: 15 % (nominal)
Resolution: 15000
Column name: XBridge C18 3.5um, 2.1x50mm, Waters
Retention time: 10.5 min
Base peak: 343.0412
Precursor m/z: 343.0399
Precursor type: [M+H]+
m/z	relative intensity	assigned
139.9898	17	C6H3ClNO+
307.0633	34	C18H12ClN2O+
343.0398	999	C18H13Cl2N2O+
