Mass spectrum: Mebendazole; LC-ESI-QFT; MS2; CE: 150; R=35000; [M-H]-
Name: Mebendazole
Name: methyl N-(6-benzoyl-1H-benzimidazol-2-yl)carbamate
Formula: C16H13N3O3
Exact mass: 295.09569
SMILES: COC(=O)NC1=NC2=C(N1)C=C(C=C2)C(=O)C3=CC=CC=C3
InChI: InChI=1S/C16H13N3O3/c1-22-16(21)19-15-17-12-8-7-11(9-13(12)18-15)14(20)10-5-3-2-4-6-10/h2-9H,1H3,(H2,17,18,19,21)
Instrument: Q Exactive Plus Orbitrap Thermo Scientific
Instrument type: LC-ESI-QFT
Ms type: MS2
Ion mode: NEGATIVE
Ionization: ESI
Fragmentation mode: HCD
Collision energy: 150 (nominal)
Resolution: 35000
Column name: XBridge C18 3.5um, 2.1x50mm, Waters
Retention time: 7.5 min
Base peak: 262.0621
Precursor m/z: 294.0884
Precursor type: [M-H]-
m/z	relative intensity	assigned
50.0036	41	C3N-
63.0114	7	C4HN-
64.0194	276	C4H2N-
65.0146	28	C3HN2-
65.9986	11	C3NO-
74.0038	69	C5N-
86.0038	28	C6N-
87.0115	69	C6HN-
88.0068	44	C5N2-
88.0194	159	C6H2N-
89.0148	10	C5HN2-
95.0252	5	C4H3N2O-
101.0146	7	C6HN2-
102.0225	89	C6H2N2-
103.0178	11	C5HN3-
106.0173	35	C5H2N2O-
113.0146	68	C7HN2-
114.0225	6	C7H2N2-
115.0304	999	C7H3N2-
129.0335	697	C7H3N3-
130.0174	5	C7H2N2O-
133.0283	82	C6H3N3O-
149.0228	9	C6H3N3O2-
156.0207	275	C8H2N3O-
157.0285	174	C8H3N3O-
160.0154	38	C7H2N3O2-
173.0232	23	C8H3N3O2-
