Mass spectrum: Ifosfamide; LC-ESI-ITFT; MS2; CE: 45%; R=7500; [M+H]+
Name: Ifosfamide
Name: Isophosphamide
Name: N,3-Bis(2-chloroethyl)-1,3,2-oxazaphosphinan-2-amine 2-oxide
Formula: C7H15Cl2N2O2P
Exact mass: 260.0248
SMILES: ClCCN(P(OC1)(=O)NCCCl)CC1
InChI: InChI=1S/C7H15Cl2N2O2P/c8-2-4-10-14(12)11(6-3-9)5-1-7-13-14/h1-7H2,(H,10,12)
Instrument: LTQ Orbitrap XL Thermo Scientific
Instrument type: LC-ESI-ITFT
Ms type: MS2
Ion mode: POSITIVE
Ionization: ESI
Fragmentation mode: HCD
Collision energy: 45 % (nominal)
Resolution: 7500
Column name: XBridge C18 3.5um, 2.1x50mm, Waters
Retention time: 6.3 min
Base peak: 261.0321
Precursor m/z: 261.0321
Precursor type: [M+H]+
m/z	relative intensity	assigned
56.0495	14	C3H6N+
62.9996	32	C2H4Cl+
67.0542	3	C5H7+
78.0106	342	C2H5ClN+
80.026	11	C2H7ClN+
82.065	6	C5H8N+
84.0806	4	C5H10N+
92.0262	999	C3H7ClN+
115.9661	7	ClH4NO2P+
116.9504	16	CH3Cl2O2+
118.0052	10	C3H5NO2P+
118.0422	27	CH12ClN2P+
120.0575	245	C5H11ClN+
124.0166	4	C3H7ClNO2+
125.9506	30	C2H2Cl2NO+
126.9715	6	C2H5ClO2P+
127.9663	35	CH4ClNO2P+
128.0265	14	C2H10ClN2P+
141.9821	35	C3H6Cl2NO+
146.0366	84	C5H9NO2P+
153.9819	991	C3H6ClNO2P+
155.9969	4	C7H5ClO2+
164.0479	3	C2H14ClN2O2P+
164.9867	6	C5H7ClO2P+
182.0133	524	C5H10ClNO2P+
199.0407	6	C6H13Cl2N2O+
200.0238	88	C6H12Cl2NO2+
217.9908	5	C5H11Cl2NO2P+
233.0009	644	C5H12Cl2N2O2P+
261.0322	834	C7H16Cl2N2O2P+
