Mass spectrum: Propyphenazone; LC-ESI-QFT; MS2; CE: 180%; R=15000; [M+H]+
Name: Propyphenazone
Name: 1,5-dimethyl-2-phenyl-4-propan-2-ylpyrazol-3-one
Formula: C14H18N2O
Exact mass: 230.1419
SMILES: CC1=C(C(=O)N(N1C)C2=CC=CC=C2)C(C)C
InChI: InChI=1S/C14H18N2O/c1-10(2)13-11(3)15(4)16(14(13)17)12-8-6-5-7-9-12/h5-10H,1-4H3
Instrument: Orbitrap Exploris 240 Thermo Scientific
Instrument type: LC-ESI-QFT
Ms type: MS2
Ion mode: POSITIVE
Ionization: ESI
Fragmentation mode: HCD
Collision energy: 180 % (nominal)
Resolution: 15000
Column name: Atlantis C18 3um, 3.0x150mm, Waters
Retention time: 17.440 min
Base peak: 231.149
Precursor m/z: 231.1492
Precursor type: [M+H]+
Precursor intensity: 2162391296
m/z	relative intensity	assigned
50.0152	24	C4H2+
51.0229	284	C4H3+
53.0385	85	C4H5+
56.0495	999	C3H6N+
65.0385	185	C5H5+
67.0416	130	C4H5N+
77.0385	291	C6H5+
80.0495	136	C5H6N+
81.0572	32	C5H7N+
82.0651	91	C5H8N+
89.0386	43	C7H5+
91.0545	43	C7H7+
94.065	70	C6H8N+
95.0492	82	C6H7O+
105.0448	72	C6H5N2+
115.054	43	C9H7+
130.0657	31	C9H8N+
