Mass spectrum: delta9-Tetrahydrocannabinol; LC-ESI-QFT; MS2; CE: 150; R=35000; [M+H]+
Name: delta9-Tetrahydrocannabinol
Name: delta9-THC
Name: 6,6,9-trimethyl-3-pentyl-6a,7,8,10a-tetrahydrobenzo[c]chromen-1-ol
Formula: C21H30O2
Exact mass: 314.22458
SMILES: CCCCCC1=CC2=C(C3C=C(CCC3C(O2)(C)C)C)C(=C1)O
InChI: InChI=1S/C21H30O2/c1-5-6-7-8-15-12-18(22)20-16-11-14(2)9-10-17(16)21(3,4)23-19(20)13-15/h11-13,16-17,22H,5-10H2,1-4H3
Instrument: Q Exactive Plus Orbitrap Thermo Scientific
Instrument type: LC-ESI-QFT
Ms type: MS2
Ion mode: POSITIVE
Ionization: ESI
Fragmentation mode: HCD
Collision energy: 150 (nominal)
Resolution: 35000
Column name: XBridge C18 3.5um, 2.1x50mm, Waters
Retention time: 17.8 min
Base peak: 391.2837
Precursor m/z: 315.2319
Precursor type: [M+H]+
m/z	relative intensity	assigned
50.0152	139	C4H2+
51.023	371	C4H3+
53.0023	169	C3HO+
53.0386	425	C4H5+
53.9975	55	C2NO+
55.0179	257	C3H3O+
55.0543	169	C4H7+
57.0336	3	C3H5O+
59.0492	3	C3H7O+
62.0151	3	C5H2+
63.0229	36	C5H3+
65.0386	838	C5H5+
66.0464	45	C5H6+
67.0543	331	C5H7+
67.9893	22	C3O2+
68.9972	34	C3HO2+
69.0336	27	C4H5O+
69.0699	35	C5H9+
75.0228	5	C6H3+
76.0307	3	C6H4+
77.0386	340	C6H5+
78.0464	120	C6H6+
79.0543	655	C6H7+
80.0621	15	C6H8+
81.0336	62	C5H5O+
81.0699	81	C6H9+
83.0128	14	C4H3O2+
83.0491	4	C5H7O+
89.0386	75	C7H5+
90.0465	25	C7H6+
91.0543	999	C7H7+
92.0621	12	C7H8+
93.07	33	C7H9+
94.0414	49	C6H6O+
95.0492	848	C6H7O+
102.0465	30	C8H6+
103.0543	156	C8H7+
104.0622	14	C8H8+
105.0448	572	C6H5N2+
105.07	123	C8H9+
106.0417	3	C7H6O+
107.0492	162	C7H7O+
108.057	24	C7H8O+
109.065	6	C7H9O+
110.0362	3	C6H6O2+
111.0445	3	C6H7O2+
115.0543	395	C9H7+
116.0621	44	C9H8+
117.0699	43	C9H9+
119.0491	9	C8H7O+
119.0855	5	C9H11+
121.0649	5	C8H9O+
123.0441	34	C7H7O2+
126.0465	11	C10H6+
127.0544	19	C10H7+
128.0622	175	C10H8+
129.07	46	C10H9+
131.0492	78	C9H7O+
132.0572	5	C9H8O+
139.054	21	C11H7+
141.07	65	C11H9+
142.0775	3	C11H10+
144.057	12	C10H8O+
145.0649	40	C10H9O+
147.044	29	C9H7O2+
152.0623	39	C12H8+
153.0701	25	C12H9+
154.0779	3	C12H10+
155.0604	45	C10H7N2+
157.0651	13	C11H9O+
159.0443	2	C10H7O2+
160.052	16	C10H8O2+
161.0599	11	C10H9O2+
165.07	13	C13H9+
168.057	4	C12H8O+
169.0651	3	C12H9O+
173.0598	13	C11H9O2+
178.0779	5	C14H10+
181.065	11	C13H9O+
186.0676	5	C12H10O2+
187.0753	4	C12H11O2+
