Mass spectrum: Flecainide; LC-ESI-QFT; MS2; CE: 75; R=35000; [M-H]-
Name: Flecainide
Name: N-(2-piperidinylmethyl)-2,5-bis(2,2,2-trifluoroethoxy)benzamide
Formula: C17H20F6N2O3
Exact mass: 414.13781
SMILES: C1CCNC(C1)CNC(=O)C2=C(C=CC(=C2)OCC(F)(F)F)OCC(F)(F)F
InChI: InChI=1S/C17H20F6N2O3/c18-16(19,20)9-27-12-4-5-14(28-10-17(21,22)23)13(7-12)15(26)25-8-11-3-1-2-6-24-11/h4-5,7,11,24H,1-3,6,8-10H2,(H,25,26)
Instrument: Q Exactive Orbitrap Thermo Scientific
Instrument type: LC-ESI-QFT
Ms type: MS2
Ion mode: NEGATIVE
Ionization: ESI
Fragmentation mode: HCD
Collision energy: 75 (nominal)
Resolution: 35000
Column name: XBridge C18 3.5um, 2.1x50mm, Waters
Retention time: 6.6 min
Base peak: 459.1364
Precursor m/z: 413.1305
Precursor type: [M-H]-
m/z	relative intensity	assigned
58.0098	29	C2HFN-
58.9939	7	C2FO-
65.0033	3	C4HO-
65.9985	27	C3NO-
68.9957	15	CF3-
69.0345	238	C4H5O-
75.0241	1	C6H3-
79.0001	18	C2HF2O-
79.019	5	C5H3O-
81.0346	10	C5H5O-
88.0192	12	C6H2N-
89.003	1	C6HO-
91.0189	2	C6H3O-
93.0345	7	C6H5O-
95.0138	17	C5H3O2-
97.0294	166	C5H5O2-
98.0173	10	C5H3FO-
99.0242	1	C8H3-
100.0192	4	C7H2N-
102.0348	3	C7H4N-
103.019	17	C7H3O-
103.0427	1	C7H5N-
105.0221	7	C6H3NO-
106.006	6	C6H2O2-
106.0425	2	C7H6O-
107.0139	32	C6H3O2-
107.0614	2	C6H7N2-
108.0216	126	C6H4O2-
109.0295	17	C6H5O2-
110.0173	7	C6H3FO-
114.0349	2	C8H4N-
115.019	1	C8H3O-
116.0141	53	C7H2NO-
117.0147	6	C8H2F-
117.022	14	C7H3NO-
117.0347	7	C8H5O-
118.0299	86	C7H4NO-
120.0091	5	C6H2NO2-
120.0453	10	C7H6NO-
121.0093	2	C7H2FO-
121.0294	26	C7H5O2-
122.0171	3	C7H3FO-
123.0088	11	C6H3O3-
123.045	2	C7H7O2-
125.0243	216	C6H5O3-
126.0122	17	C6H3FO2-
126.0349	7	C9H4N-
130.0296	31	C8H4NO-
131.0137	15	C8H3O2-
131.0375	63	C8H5NO-
132.0216	32	C8H4O2-
132.0455	2	C8H6NO-
133.0168	102	C7H3NO2-
134.0247	7	C7H4NO2-
135.0087	73	C7H3O3-
136.0165	7	C7H4O3-
138.0121	7	C7H3FO2-
139.02	6	C7H4FO2-
139.0877	7	C7H11N2O-
142.0298	40	C9H4NO-
143.05	2	C10H7O-
144.0091	9	C8H2NO2-
144.0455	13	C9H6NO-
145.0094	34	C9H2FO-
145.0168	8	C8H3NO2-
145.0294	6	C9H5O2-
146.0247	405	C8H4NO2-
148.0167	7	C8H4O3-
148.0405	7	C8H6NO2-
149.0044	10	C8H2FO2-
150.012	22	C8H3FO2-
151.02	11	C8H4FO2-
151.0273	18	C7H5NO3-
152.0353	3	C7H6NO3-
154.0071	24	C7H3FO3-
154.0299	10	C10H4NO-
158.0246	26	C9H4NO2-
158.0608	2	C10H8NO-
159.0325	523	C9H5NO2-
160.0159	28	C9H4O3-
160.0403	56	C9H6NO2-
161.0053	2	C6H3F2O3-
161.0118	11	C8H3NO3-
161.0242	17	C9H5O3-
162.0196	2	C8H4NO3-
162.0362	12	C9H5FNO-
163.0207	1	C9H4FO2-
163.0275	8	C8H5NO3-
164.0153	236	C8H3FNO2-
165.0156	3	C9H3F2O-
170.0245	6	C2H5F5NO2-
170.061	10	C11H8NO-
171.0331	2	C10H5NO2-
171.0565	8	C10H7N2O-
172.0404	53	C10H6NO2-
173.0041	6	C10H2FO2-
173.0116	26	C9H3NO3-
173.0479	14	C10H7NO2-
174.0195	78	C9H4NO3-
175.0205	2	C10H4FO2-
175.0274	11	C9H5NO3-
176.015	1	C9H3FNO2-
176.0355	11	C9H6NO3-
176.9991	16	C9H2FO3-
178.007	8	C9H3FO3-
178.0308	3	C9H5FNO2-
178.0514	1	C9H8NO3-
179.0826	87	C9H11N2O2-
183.0558	2	C3H8F5N2O-
184.0403	30	C3H7F5NO2-
185.0354	83	
186.0196	57	C2H5F5NO3-
186.0558	63	C11H8NO2-
187.0274	15	C10H5NO3-
188.0155	3	C10H3FNO2-
188.035	16	C10H6NO3-
189.0434	2	C10H7NO3-
192.0102	999	C9H3FNO3-
193.0104	6	C10H3F2O2-
195.0561	2	C4H8F5N2O-
196.0407	1	C12H6NO2-
197.048	22	C4H8F5NO2-
197.072	10	C12H9N2O-
198.0435	24	C11H6N2O2-
198.0924	6	C13H12NO-
199.0512	26	C3H8F5N2O2-
199.0637	6	C12H9NO2-
200.0716	50	C12H10NO2-
202.0075	13	C11H3FO3-
202.0512	6	C11H8NO3-
202.0868	1	C12H12NO2-
204.0102	2	C10H3FNO3-
206.0256	30	C10H5FNO3-
210.0559	7	C5H9F5NO2-
211.0507	2	C4H8F5N2O2-
212.0357	4	C12H6NO3-
212.0609	1	C9H9FN2O3-
212.0716	19	C5H11F5NO2-
213.0306	70	C11H5N2O3-
213.0669	23	C12H9N2O2-
214.0509	7	C4H9F5NO3-
214.0874	7	C13H12NO2-
215.0031	2	C11H2FNO3-
215.0461	2	C3H8F5N2O3-
216.0667	2	C12H10NO3-
218.0821	7	C12H12NO3-
223.0511	7	C5H8F5N2O2-
223.0875	3	C6H12F5N2O-
224.0588	9	C5H9F5N2O2-
224.07	1	C9H10F4NO-
225.1037	2	C14H13N2O-
226.0384	40	C12H6N2O3-
226.0499	3	C8H8F4NO2-
226.0874	11	C14H12NO2-
227.0462	34	C12H7N2O3-
227.0588	10	C13H9NO3-
227.0836	1	C10H12FN2O3-
228.055	2	C12H8N2O3-
228.0667	7	C13H10NO3-
228.0905	3	C13H12N2O2-
230.0818	9	C13H12NO3-
231.0895	2	C13H13NO3-
233.9979	7	C12F4N-
235.0087	6	C11H3F2NO3-
237.0664	1	C6H10F5N2O2-
238.075	3	C14H10N2O2-
239.0461	2	C5H8F5N2O3-
240.054	11	C13H8N2O3-
241.0621	20	C13H9N2O3-
241.0982	104	C14H13N2O2-
242.082	6	C6H13F5NO3-
242.1061	1	C14H14N2O2-
251.0825	13	C15H11N2O2-
252.09	2	C7H13F5N2O2-
253.0976	13	C7H14F5N2O2-
265.0985	2	C16H13N2O2-
268.0858	2	C15H12N2O3-
269.0931	136	C15H13N2O3-
270.101	84	C15H14N2O3-
273.105	3	C15H14FN2O2-
289.0992	3	C7H15F6N2O3-
