Mass spectrum: Dimethachlor ESA; LC-ESI-ITFT; MS2; CE: 45%; R=15000; [M-H]-
Name: Dimethachlor ESA
Name: 2-[(2,6-dimethylphenyl)(2-methoxyethyl)amino]-2-oxoethanesulfonic acid
Formula: C13H19NO5S
Exact mass: 301.0984
SMILES: CC1=C(N(C(CS(O)(=O)=O)=O)CCOC)C(C)=CC=C1
InChI: InChI=1S/C13H19NO5S/c1-10-5-4-6-11(2)13(10)14(7-8-19-3)12(15)9-20(16,17)18/h4-6H,7-9H2,1-3H3,(H,16,17,18)
Instrument: LTQ Orbitrap XL Thermo Scientific
Instrument type: LC-ESI-ITFT
Ms type: MS2
Ion mode: NEGATIVE
Ionization: ESI
Fragmentation mode: HCD
Collision energy: 45 % (nominal)
Resolution: 15000
Column name: XBridge C18 3.5um, 2.1x50mm, Waters
Retention time: 5.9 min
Base peak: 300.0909
Precursor m/z: 300.0911
Precursor type: [M-H]-
m/z	relative intensity	assigned
76.9701	123	CHO2S-
79.9573	999	O3S-
120.9599	394	C2HO4S-
121.0657	22	C8H9O-
130.0659	21	C9H8N-
144.0826	12	C10H10N-
146.0974	56	C10H12N-
178.0172	17	C5H8NO4S-
178.1234	34	C11H16NO-
300.0906	433	C13H18NO5S-
