Mass spectrum: 4-Toluenesulfonamide; LC-ESI-QFT; MS2; CE: 45; R=35000; [M+H]+
Name: 4-Toluenesulfonamide
Name: p-Toluenesulfonamide
Name: 4-methylbenzenesulfonimidic acid
Formula: C7H9NO2S
Exact mass: 171.03540
SMILES: CC1=CC=C(C=C1)S(=O)(=O)N
InChI: InChI=1S/C7H9NO2S/c1-6-2-4-7(5-3-6)11(8,9)10/h2-5H,1H3,(H2,8,9,10)
Instrument: Q Exactive Plus Orbitrap Thermo Scientific
Instrument type: LC-ESI-QFT
Ms type: MS2
Ion mode: POSITIVE
Ionization: ESI
Fragmentation mode: HCD
Collision energy: 45 (nominal)
Resolution: 35000
Column name: XBridge C18 3.5um, 2.1x50mm, Waters
Retention time: 4.6 min
Base peak: 189.0689
Precursor m/z: 172.0427
Precursor type: [M+H]+
m/z	relative intensity	assigned
51.0228	1	C4H3+
55.0179	11	C3H3O+
65.0386	71	C5H5+
67.0542	34	C5H7+
77.0385	3	C6H5+
91.0542	688	C7H7+
94.0414	1	C6H6O+
95.0492	13	C6H7O+
108.057	2	C7H8O+
109.0649	379	C7H9O+
119.0604	999	C7H7N2+
155.0162	99	C7H7O2S+
