Mass spectrum: Aspartame; LC-ESI-ITFT; MS2; CE: 60%; R=15000; [M+H]+
Name: Aspartame
Name: 3-amino-4-[(1-benzyl-2-keto-2-methoxy-ethyl)amino]-4-keto-butyric acid
Formula: C14H18N2O5
Exact mass: 294.1216
SMILES: COC(=O)C(CC1=CC=CC=C1)NC(=O)C(CC(=O)O)N
InChI: InChI=1S/C14H18N2O5/c1-21-14(20)11(7-9-5-3-2-4-6-9)16-13(19)10(15)8-12(17)18/h2-6,10-11H,7-8,15H2,1H3,(H,16,19)(H,17,18)/t10-,11-/m0/s1
Instrument: LTQ Orbitrap XL Thermo Scientific
Instrument type: LC-ESI-ITFT
Ms type: MS2
Ion mode: POSITIVE
Ionization: ESI
Fragmentation mode: HCD
Collision energy: 60 % (nominal)
Resolution: 15000
Column name: XBridge C18 3.5um, 2.1x50mm, Waters
Retention time: 4.8 min
Base peak: 295.1297
Precursor m/z: 295.1288
Precursor type: [M+H]+
m/z	relative intensity	assigned
70.0288	51	C3H4NO+
88.0394	90	C3H6NO2+
91.0543	117	C7H7+
93.07	3	C7H9+
98.0237	4	C4H4NO2+
99.0075	3	C4H3O3+
103.0543	54	C8H7+
119.0729	6	C8H9N+
120.0809	999	C8H10N+
121.0648	87	C8H9O+
129.0699	7	C10H9+
130.0652	72	C9H8N+
131.0493	13	C9H7O+
135.0804	8	C9H11O+
144.0808	30	C10H10N+
145.0645	2	C10H9O+
147.0917	15	C9H11N2+
154.0653	5	C11H8N+
157.0649	18	C11H9O+
163.0758	4	C10H11O2+
172.0757	45	C11H10NO+
175.0867	62	C10H11N2O+
180.1019	15	C10H14NO2+
182.0601	41	C12H8NO+
190.0862	14	C11H12NO2+
200.0707	36	C12H10NO2+
245.0912	3	C13H13N2O3+
