Mass spectrum: 1-Chlorobenzotriazole; LC-ESI-QFT; MS2; CE: 60; R=35000; [M-H]-
Name: 1-Chlorobenzotriazole
Name: 1-chloro-benzotriazole
Name: Chlorobenzotriazole
Formula: C6H4ClN3
Exact mass: 153.00937
SMILES: C1=CC=C2C(=C1)N=NN2Cl
InChI: InChI=1S/C6H4ClN3/c7-10-6-4-2-1-3-5(6)8-9-10/h1-4H
Instrument: Q Exactive Plus Orbitrap Thermo Scientific
Instrument type: LC-ESI-QFT
Ms type: MS2
Ion mode: NEGATIVE
Ionization: ESI
Fragmentation mode: HCD
Collision energy: 60 (nominal)
Resolution: 35000
Column name: XBridge C18 3.5um, 2.1x50mm, Waters
Retention time: 6.3 min
Base peak: 152.0019
Precursor m/z: 152.0021
Precursor type: [M-H]-
m/z	relative intensity	assigned
88.0192	262	C6H2N-
116.0255	17	C6H2N3-
123.9958	1	C6H3ClN-
152.0021	999	C6H3ClN3-
