Mass spectrum: Florfenicol; LC-ESI-QFT; MS2; CE: 15; R=35000; [M+H]+
Name: Florfenicol
Name: 2,2-dichloro-N-{3-fluoro-1-hydroxy-1-[4-(methylsulfonyl)phenyl]propan-2-yl}acetamide
Name: 2,2-dichloro-N-[3-fluoro-1-hydroxy-1-(4-methylsulfonylphenyl)propan-2-yl]acetamide
Formula: C12H14Cl2FNO4S
Exact mass: 357.00046
SMILES: CS(=O)(=O)C1=CC=C(C=C1)C(C(CF)NC(=O)C(Cl)Cl)O
InChI: InChI=1S/C12H14Cl2FNO4S/c1-21(19,20)8-4-2-7(3-5-8)10(17)9(6-15)16-12(18)11(13)14/h2-5,9-11,17H,6H2,1H3,(H,16,18)
Instrument: Q Exactive Plus Orbitrap Thermo Scientific
Instrument type: LC-ESI-QFT
Ms type: MS2
Ion mode: POSITIVE
Ionization: ESI
Fragmentation mode: HCD
Collision energy: 15 (nominal)
Resolution: 35000
Column name: XBridge C18 3.5um, 2.1x50mm, Waters
Retention time: 4.6 min
Base peak: 390.0331
Precursor m/z: 358.0077
Precursor type: [M+H]+
m/z	relative intensity	assigned
82.945	3	CHCl2+
103.0541	2	C8H7+
130.0651	3	C9H8N+
210.058	1	C10H12NO2S+
230.0644	3	C10H13FNO2S+
239.9978	6	C11H6ClFO3+
241.0055	749	C11H9Cl2NO+
261.0112	1	C8H15Cl2O3S+
319.991	44	C12H12Cl2NO3S+
339.997	999	C12H13Cl2FNO3S+
358.0078	7	C12H15Cl2FNO4S+
