Mass spectrum: Chlorothalonil-TP R471811; LC-ESI-QFT; MS2; CE: 90%; R=17500; [M-H]-
Name: Chlorothalonil-TP R471811
Name: 2,4-dicarbamoyl-3,5,6-trichlorobenzenesulfonic acid
Formula: C8H5Cl3N2O5S
Exact mass: 345.8985
SMILES: NC(=O)C1=C(Cl)C(C(N)=O)=C(C(Cl)=C1Cl)S(O)(=O)=O
InChI: InChI=1S/C8H5Cl3N2O5S/c9-3-1(7(12)14)4(10)5(11)6(19(16,17)18)2(3)8(13)15/h(H2,12,14)(H2,13,15)(H,16,17,18)
Instrument: Q Exactive Plus Orbitrap Thermo Scientific
Instrument type: LC-ESI-QFT
Ms type: MS2
Ion mode: NEGATIVE
Ionization: ESI
Fragmentation mode: HCD
Collision energy: 90 % (nominal)
Resolution: 17500
Column name: XBridge C18 3.5um, 2.1x50mm, Waters
Retention time: 1.041 min
Base peak: 346.8881
Precursor m/z: 344.8912
Precursor type: [M-H]-
m/z	relative intensity	assigned
65.9984	131	C3NO-
74.0036	159	C5N-
79.9574	941	O3S-
86.0035	368	C6N-
94.9694	136	C5Cl-
96.9601	888	HO4S-
97.9801	201	C4HClN-
114.9263	610	ClO3S-
121.9804	264	C6HClN-
122.9643	584	C6ClO-
158.9411	999	C6HCl2O-
194.9181	541	C6H2Cl3O-
