Mass spectrum: N4-Acetylsulfamethazine; LC-ESI-ITFT; MS2; CE: 30%; R=7500; [M+H]+
Name: N4-Acetylsulfamethazine
Name: N-[4-[(4,6-dimethyl-2-pyrimidinyl)sulfamoyl]phenyl]acetamide
Formula: C14H16N4O3S
Exact mass: 320.0943
SMILES: O=S(=O)(c1ccc(cc1)NC(=O)C)Nc1nc(cc(n1)C)C
InChI: InChI=1S/C14H16N4O3S/c1-9-8-10(2)16-14(15-9)18-22(20,21)13-6-4-12(5-7-13)17-11(3)19/h4-8H,1-3H3,(H,17,19)(H,15,16,18)
Instrument: LTQ Orbitrap XL Thermo Scientific
Instrument type: LC-ESI-ITFT
Ms type: MS2
Ion mode: POSITIVE
Ionization: ESI
Fragmentation mode: HCD
Collision energy: 30 % (nominal)
Resolution: 7500
Column name: XBridge C18 3.5um, 2.1x50mm, Waters
Retention time: 4.5 min
Base peak: 321.1027
Precursor m/z: 321.1016
Precursor type: [M+H]+
m/z	relative intensity	assigned
65.0386	2	C5H5+
93.0334	2	C6H5O+
108.0444	24	C6H6NO+
118.0652	17	C8H8N+
123.0785	6	C6H9N3+
124.0869	80	C6H10N3+
134.06	42	C8H8NO+
136.0757	18	C8H10NO+
150.0548	8	C8H8NO2+
162.0663	13	C8H8N3O+
186.0332	156	C6H8N3O2S+
198.0219	86	C8H8NO3S+
204.0437	59	C6H10N3O3S+
255.124	52	C14H15N4O+
279.0911	2	C12H15N4O2S+
303.0921	2	C14H15N4O2S+
321.1017	999	C14H17N4O3S+
