Mass spectrum: Xylometazoline; LC-ESI-QFT; MS2; CE: 90; R=35000; [M+H]+
Name: Xylometazoline
Name: 2-(4-tert-butyl-2,6-dimethyl-benzyl)-2-imidazoline
Formula: C16H24N2
Exact mass: 244.19395
SMILES: CC1=CC(=CC(=C1CC2=NCCN2)C)C(C)(C)C
InChI: InChI=1S/C16H24N2/c1-11-8-13(16(3,4)5)9-12(2)14(11)10-15-17-6-7-18-15/h8-9H,6-7,10H2,1-5H3,(H,17,18)
Instrument: Q Exactive Orbitrap Thermo Scientific
Instrument type: LC-ESI-QFT
Ms type: MS2
Ion mode: POSITIVE
Ionization: ESI
Fragmentation mode: HCD
Collision energy: 90 (nominal)
Resolution: 35000
Column name: XBridge C18 3.5um, 2.1x50mm, Waters
Retention time: 8.0 min
Base peak: 245.2014
Precursor m/z: 245.2012
Precursor type: [M+H]+
m/z	relative intensity	assigned
55.0543	18	C4H7+
57.0699	126	C4H9+
67.0543	3	C5H7+
69.0698	53	C5H9+
71.0604	39	C3H7N2+
77.0384	2	C6H5+
79.0543	17	C6H7+
81.0699	11	C6H9+
83.0855	10	C6H11+
84.0682	153	C4H8N2+
91.0542	63	C7H7+
93.0698	22	C7H9+
95.0855	8	C7H11+
103.0543	10	
105.0699	240	C8H9+
107.0855	45	C8H11+
115.0541	10	C9H7+
117.0698	26	C9H9+
118.0778	20	C9H10+
119.0855	567	C9H11+
120.0934	10	
121.1012	84	C9H13+
128.0619	2	C10H8+
129.0698	14	C10H9+
130.0776	15	C10H10+
131.0856	104	C10H11+
132.0933	14	C10H12+
133.1012	560	C10H13+
134.1089	4	C10H14+
135.1168	65	C10H15+
143.0856	9	C11H11+
144.0808	10	C10H10N+
144.0933	4	C11H12+
145.1012	498	C11H13+
146.0966	22	C10H12N+
146.109	73	C11H14+
147.1169	210	C11H15+
157.0889	2	C11H11N+
158.0963	9	C11H12N+
159.1039	4	C11H13N+
159.1168	54	C12H15+
160.1247	483	C12H16+
161.1324	359	C12H17+
172.1119	3	C12H14N+
173.1073	35	C11H13N2+
173.1322	15	C13H17+
174.1151	12	C11H14N2+
175.1481	321	C13H19+
186.1279	11	C13H16N+
187.1228	21	C12H15N2+
188.1309	35	C12H16N2+
189.1387	475	C12H17N2+
202.1462	18	C13H18N2+
215.1544	140	C14H19N2+
229.17	999	C15H21N2+
230.1778	114	C15H22N2+
245.2013	162	C16H25N2+
