Mass spectrum: Alfuzosin; LC-ESI-QFT; MS2; CE: 90; R=35000; [M-H]-
Name: Alfuzosin
Name: N-{3-[(4-Amino-6,7-dimethoxy-2-quinazolinyl)(methyl)amino]propyl}tetrahydro-2-furancarboxamide
Name: N-[3-[(4-amino-6,7-dimethoxyquinazolin-2-yl)-methylamino]propyl]oxolane-2-carboxamide
Formula: C19H27N5O4
Exact mass: 389.20630
SMILES: CN(CCCNC(=O)C1CCCO1)C2=NC3=CC(=C(C=C3C(=N2)N)OC)OC
InChI: InChI=1S/C19H27N5O4/c1-24(8-5-7-21-18(25)14-6-4-9-28-14)19-22-13-11-16(27-3)15(26-2)10-12(13)17(20)23-19/h10-11,14H,4-9H2,1-3H3,(H,21,25)(H2,20,22,23)
Instrument: Q Exactive Plus Orbitrap Thermo Scientific
Instrument type: LC-ESI-QFT
Ms type: MS2
Ion mode: NEGATIVE
Ionization: ESI
Fragmentation mode: HCD
Collision energy: 90 (nominal)
Resolution: 35000
Column name: XBridge C18 3.5um, 2.1x50mm, Waters
Retention time: 5.3 min
Base peak: 434.2043
Precursor m/z: 388.199
Precursor type: [M-H]-
m/z	relative intensity	assigned
50.0035	5	C3N-
55.0302	432	C2H3N2-
64.0067	1	C3N2-
64.0193	5	C4H2N-
65.0145	53	C3HN2-
65.9986	95	C3NO-
66.0098	62	C2N3-
67.0302	193	C3H3N2-
68.0142	3	C3H2NO-
69.0347	3	C4H5O-
72.0092	53	C2H2NO2-
76.0192	7	C5H2N-
77.0146	65	C4HN2-
78.0224	1	C4H2N2-
78.0349	1	C5H4N-
79.0302	1	C4H3N2-
81.0458	7	C4H5N2-
84.0455	232	C4H6NO-
89.0145	8	C5HN2-
89.9985	6	C5NO-
90.0098	6	C4N3-
90.0224	4	C5H2N2-
90.0349	6	C6H4N-
91.0302	23	C5H3N2-
92.0142	41	C5H2NO-
93.0094	5	C4HN2O-
94.0299	12	C5H4NO-
95.025	3	C4H3N2O-
95.0616	1	C5H7N2-
96.0456	17	C5H6NO-
96.0566	1	C4H6N3-
102.0222	7	C6H2N2-
104.038	4	C6H4N2-
105.0092	1	C5HN2O-
105.022	10	C6H3NO-
105.0333	1	C5H3N3-
105.0459	11	C6H5N2-
106.0173	8	C5H2N2O-
106.0299	6	C6H4NO-
106.041	4	C5H4N3-
107.0252	10	C5H3N2O-
107.0615	1	C6H7N2-
114.0561	83	C5H8NO2-
115.0399	3	C5H7O3-
116.0255	16	C6H2N3-
117.0096	9	C6HN2O-
117.046	4	C7H5N2-
118.0173	6	C6H2N2O-
118.0298	16	C7H4NO-
118.0412	9	C6H4N3-
119.0251	999	C6H3N2O-
120.0091	9	C6H2NO2-
120.0204	14	C5H2N3O-
120.0329	128	C6H4N2O-
121.0284	2	C5H3N3O-
121.0408	33	C6H5N2O-
122.0246	3	C6H4NO2-
122.036	6	C5H4N3O-
129.0333	1	C7H3N3-
130.0173	67	C7H2N2O-
130.041	5	C7H4N3-
131.0251	16	C7H3N2O-
131.0366	1	C6H3N4-
132.0329	37	C7H4N2O-
132.0568	7	C7H6N3-
133.0282	18	C6H3N3O-
133.0408	73	C7H5N2O-
134.0122	1	C6H2N2O2-
134.0248	1	C7H4NO2-
134.0358	6	C6H4N3O-
135.0202	3	C6H3N2O2-
135.0564	1	C7H7N2O-
140.0721	1	C7H10NO2-
142.0411	2	C8H4N3-
143.0251	11	C8H3N2O-
144.0204	445	C7H2N3O-
145.0282	850	C7H3N3O-
146.0123	11	C7H2N2O2-
146.036	107	C7H4N3O-
147.0201	251	C7H3N2O2-
147.0438	124	C7H5N3O-
148.0279	60	C7H4N2O2-
148.0517	71	C7H6N3O-
149.0357	9	C7H5N2O2-
149.0468	4	C6H5N4O-
152.0232	1	C6H4N2O3-
157.0281	7	C8H3N3O-
157.0524	1	C8H5N4-
158.0122	104	C8H2N2O2-
158.036	50	C8H4N3O-
159.0206	8	C8H3N2O2-
159.0313	23	C7H3N4O-
159.0437	18	C8H5N3O-
159.0565	4	C9H7N2O-
159.0676	5	C8H7N4-
160.0517	616	C8H6N3O-
161.0359	15	C8H5N2O2-
161.0468	13	C7H5N4O-
161.0594	32	C8H7N3O-
162.0316	1	C7H4N3O2-
162.0438	7	C8H6N2O2-
162.0546	11	C7H6N4O-
162.0672	4	C8H8N3O-
163.0517	1	C8H7N2O2-
171.0203	1	C9H3N2O2-
171.0316	3	C8H3N4O-
171.0675	1	C9H7N4-
172.0154	29	C8H2N3O2-
172.0395	7	C8H4N4O-
172.0517	39	C9H6N3O-
173.0231	61	C8H3N3O2-
173.0361	12	C9H5N2O2-
173.0469	225	C8H5N4O-
173.0593	22	C9H7N3O-
173.0832	29	C9H9N4-
174.0309	30	C8H4N3O2-
174.0547	564	C8H6N4O-
175.0625	441	C8H7N4O-
176.0465	56	C8H6N3O2-
176.0704	16	C8H8N4O-
177.0781	20	C8H9N4O-
184.0517	5	C10H6N3O-
185.0469	53	C9H5N4O-
186.0309	5	C9H4N3O2-
186.0549	15	C9H6N4O-
186.0672	17	C10H8N3O-
187.0262	63	C8H3N4O2-
187.0626	375	C9H7N4O-
188.034	40	C8H4N4O2-
188.0466	118	C9H6N3O2-
188.0703	134	C9H8N4O-
189.0547	10	C9H7N3O2-
189.0781	16	C9H9N4O-
190.0499	3	C8H6N4O2-
191.0338	3	C8H5N3O3-
198.0548	1	C10H6N4O-
199.0264	6	C9H3N4O2-
199.0627	23	C10H7N4O-
200.034	6	C9H4N4O2-
200.0466	15	C10H6N3O2-
200.0704	38	C10H8N4O-
201.0419	335	C9H5N4O2-
201.0782	111	C10H9N4O-
202.0497	229	C9H6N4O2-
202.0861	399	C10H10N4O-
203.0575	303	C9H7N4O2-
204.0651	4	C9H8N4O2-
206.0445	3	C8H6N4O3-
212.0468	3	C11H6N3O2-
213.0419	38	C10H5N4O2-
213.0779	3	C11H9N4O-
214.05	4	C10H6N4O2-
214.062	6	C11H8N3O2-
214.0861	6	C11H10N4O-
215.0574	38	C10H7N4O2-
215.0937	40	C11H11N4O-
216.0653	40	C10H8N4O2-
216.1018	15	C11H12N4O-
217.073	16	C10H9N4O2-
218.0808	3	C10H10N4O2-
219.029	3	C9H5N3O4-
219.0525	11	C9H7N4O3-
220.0604	2	C9H8N4O3-
221.0679	14	C9H9N4O3-
227.0574	5	C11H7N4O2-
228.0655	16	C11H8N4O2-
229.073	42	C11H9N4O2-
229.1094	2	C12H13N4O-
230.0808	42	C11H10N4O2-
231.0885	2	C11H11N4O2-
232.1202	11	C11H14N5O-
234.0758	23	C10H10N4O3-
243.0888	15	C12H11N4O2-
244.0966	29	C12H12N4O2-
245.1045	1	C12H13N4O2-
260.1149	3	C12H14N5O2-
