Mass spectrum: Sebuthylazine; LC-ESI-ITFT; MS2; CE: 35%; R=7500; [M+H]+
Name: Sebuthylazine
Name: 2-N-butan-2-yl-6-chloro-4-N-ethyl-1,3,5-triazine-2,4-diamine
Formula: C9H16ClN5
Exact mass: 229.1094
SMILES: n1c(nc(Cl)nc1NCC)NC(CC)C
InChI: InChI=1S/C9H16ClN5/c1-4-6(3)12-9-14-7(10)13-8(15-9)11-5-2/h6H,4-5H2,1-3H3,(H2,11,12,13,14,15)
Instrument: LTQ Orbitrap XL Thermo Scientific
Instrument type: LC-ESI-ITFT
Ms type: MS2
Ion mode: POSITIVE
Ionization: ESI
Fragmentation mode: CID
Collision energy: 35 % (nominal)
Resolution: 7500
Column name: XBridge C18 3.5um, 2.1x50mm, Waters
Retention time: 9.8 min
Base peak: 230.1171
Precursor m/z: 230.1167
Precursor type: [M+H]+
m/z	relative intensity	assigned
79.0055	3	CH4ClN2+
96.0555	13	C4H6N3+
104.001	12	C2H3ClN3+
132.032	6	C4H7ClN3+
146.023	10	C3H5ClN5+
152.1181	7	C8H14N3+
160.0637	5	C6H11ClN3+
174.0541	999	C5H9ClN5+
230.1178	5	C9H17ClN5+
