Mass spectrum: Oxyfluorfen; LC-ESI-QFT; MS2; CE: 30; R=35000; [M+H]+
Name: Oxyfluorfen
Name: 2-chloranyl-1-(3-ethoxy-4-nitro-phenoxy)-4-(trifluoromethyl)benzene
Formula: C15H11ClF3NO4
Exact mass: 361.03287
SMILES: Clc2cc(ccc2Oc1ccc([N+]([O-])=O)c(OCC)c1)C(F)(F)F
InChI: InChI=1S/C15H11ClF3NO4/c1-2-23-14-8-10(4-5-12(14)20(21)22)24-13-6-3-9(7-11(13)16)15(17,18)19/h3-8H,2H2,1H3
Instrument: Q Exactive Orbitrap Thermo Scientific
Instrument type: LC-ESI-QFT
Ms type: MS2
Ion mode: POSITIVE
Ionization: ESI
Fragmentation mode: HCD
Collision energy: 30 (nominal)
Resolution: 35000
Column name: XBridge C18 3.5um, 2.1x50mm, Waters
Retention time: 15.5 min
Base peak: 362.0402
Precursor m/z: 362.0401
Precursor type: [M+H]+
m/z	relative intensity	assigned
67.0179	1	C4H3O+
68.9972	2	C3HO2+
76.0182	1	C5H2N+
79.0178	13	C5H3O+
88.9788	3	C3H2ClO+
93.0208	27	C5H3NO+
94.0287	2	C5H4NO+
95.0129	2	C5H3O2+
96.008	2	C4H2NO2+
120.0081	7	C6H2NO2+
121.0648	2	C8H9O+
132.018	2	C6H3F3+
140.0494	12	C10H6N+
149.0156	1	C9H6Cl+
158.0402	3	C10H5FN+
164.9912	2	C6H4ClF2O+
166.9871	24	C6H3ClF3+
174.0103	5	C10H5ClN+
175.0184	27	C10H6ClN+
178.9867	16	C7H3ClF3+
182.0335	2	C10H5F3+
187.0428	2	C11H6FNO+
189.0386	26	C11H5F2N+
191.013	1	C13H3O2+
193.0024	2	C8H5ClF3+
193.9978	11	C7H4ClF3N+
194.9819	52	C7H3ClF3O+
197.0446	2	C10H6F3N+
200.998	1	C11H2FO3+
203.0132	158	C11H6ClNO+
205.003	2	C9H5ClF3+
205.0329	1	C11H5F2NO+
205.9982	1	C8H4ClF3N+
206.041	2	C11H6F2NO+
206.9931	5	C10F3NO+
207.0293	4	C7H10ClNO4+
208.0369	44	C11H5F3N+
209.0448	77	C11H6F3N+
212.9927	6	C7H5ClF3O2+
216.0258	1	C12H4F2NO+
217.0027	81	C10H5ClF3+
217.9985	3	C9H4ClF3N+
218.0411	2	C12H6F2NO+
219.0082	5	C11H6ClNO2+
222.0118	6	C11H6ClFNO+
222.9768	31	C8H3ClF3O2+
224.0075	80	C11H5ClF2N+
224.0317	39	C11H5F3NO+
224.9914	5	C11H4ClF2O+
225.0396	24	C11H6F3NO+
230.0004	114	C12H5ClNO2+
231.9962	6	C12H4ClFNO+
232.9976	8	C10H5ClF3O+
233.0279	5	C12H5F2NO2+
235.0241	5	C12H4F3NO+
236.0319	12	C12H5F3NO+
237.0397	999	C12H6F3NO+
238.0474	33	C12H7F3NO+
240.002	8	C11H5ClF2NO+
240.0263	1	C11H5F3NO2+
241.998	9	C11H4ClF3N+
244.0137	12	C11H6ClF3N+
244.9974	6	C11H5ClF3O+
245.993	145	C10H4ClF3NO+
246.9769	3	C10H3ClF3O2+
248.0103	17	C15H4O4+
249.9863	5	C12H3ClF2NO+
251.0314	7	C13H6F3O2+
252.0023	225	C12H5ClF2NO+
253.0345	124	C12H6F3NO2+
253.0471	141	C13H8F3O2+
254.0425	74	C12H7F3NO2+
258.0063	2	C12H6ClF3O+
260.0084	15	C11H6ClF3NO+
267.997	15	C12H5ClF2NO2+
269.9929	76	C12H4ClF3NO+
271.0009	6	C12H5ClF3NO+
272.0085	77	C12H6ClF3NO+
272.9926	6	C12H5ClF3O2+
273.0162	24	C12H7ClF3NO+
273.9877	486	C11H4ClF3NO2+
279.9974	2	C13H5ClF2NO2+
280.0215	10	C13H5F3NO3+
281.03	13	C13H6F3NO3+
281.0785	61	C15H12F3O2+
286.0003	232	C13H6ClF3O2+
288.0028	31	C15H3F3O3+
288.016	127	C13H8ClF3O2+
290.019	342	C12H8ClF3NO2+
297.9878	427	C13H4ClF3NO2+
298.9944	3	C13H5ClF3NO2+
300.0033	204	C13H6ClF3NO2+
301.0238	202	C14H9ClF3O2+
302.019	39	C13H8ClF3NO2+
303.0268	24	C13H9ClF3NO2+
310.0688	10	C15H11F3NO3+
314.003	18	C13H7ClF2NO4+
315.9983	647	C13H6ClF3NO3+
316.047	54	C15H12ClF3O2+
317.0063	58	C13H7ClF3NO3+
318.014	124	C13H8ClF3NO3+
334.0089	91	C13H8ClF3NO4+
345.0377	7	C15H11ClF3NO3+
362.04	44	C15H12ClF3NO4+
