Mass spectrum: Fluazifop-butyl; LC-ESI-QFT; MS2; CE: 60; R=35000; [M+H]+
Name: Fluazifop-butyl
Name: 2-[4-[[5-(trifluoromethyl)-2-pyridinyl]oxy]phenoxy]propanoic acid butyl ester
Formula: C19H20F3NO4
Exact mass: 383.13444
SMILES: O=C(OCCCC)C(Oc2ccc(Oc1ncc(cc1)C(F)(F)F)cc2)C
InChI: InChI=1S/C19H20F3NO4/c1-3-4-11-25-18(24)13(2)26-15-6-8-16(9-7-15)27-17-10-5-14(12-23-17)19(20,21)22/h5-10,12-13H,3-4,11H2,1-2H3
Instrument: Q Exactive Orbitrap Thermo Scientific
Instrument type: LC-ESI-QFT
Ms type: MS2
Ion mode: POSITIVE
Ionization: ESI
Fragmentation mode: HCD
Collision energy: 60 (nominal)
Resolution: 35000
Column name: XBridge C18 3.5um, 2.1x50mm, Waters
Retention time: 15.1 min
Base peak: 384.1426
Precursor m/z: 384.1417
Precursor type: [M+H]+
m/z	relative intensity	assigned
57.07	27	C4H9+
65.0387	71	C5H5+
73.0285	6	C3H5O2+
75.0231	1	C6H3+
91.0544	999	C7H7+
92.0256	1	C6H4O+
92.0621	1	C7H8+
93.0336	18	C6H5O+
94.0415	4	C6H6O+
95.0491	2	C6H7O+
103.0544	1	C8H7+
107.0493	2	C7H7O+
109.0288	1	C6H5O2+
109.0651	21	C7H9O+
111.0443	27	C6H7O2+
118.0653	6	C8H8N+
119.0494	133	C8H7O+
119.0605	7	C7H7N2+
120.0444	1	C7H6NO+
120.0573	9	C8H8O+
121.0287	39	C7H5O2+
121.065	8	C8H9O+
135.0445	1	C8H7O2+
137.0601	1	C8H9O2+
141.0575	4	C10H7N+
144.0259	3	C6H4F2NO+
146.0211	1	C6H3F3N+
147.0293	13	C6H4F3N+
148.0374	1	C6H5F3N+
157.0891	4	C11H11N+
158.0605	1	C10H8NO+
161.0448	1	C7H6F3N+
163.024	4	C6H4F3NO+
164.0321	74	C6H5F3NO+
167.0733	8	C12H9N+
172.0367	1	C8H5F3N+
176.0324	1	C7H5F3NO+
178.0475	1	C7H7F3NO+
179.0192	27	C6H4F3NO2+
185.0455	3	C9H6F3N+
185.0841	4	C12H11NO+
186.0532	9	C9H7F3N+
186.0718	3	C12H9FN+
190.0468	4	C11H6F2N+
198.0528	19	C10H7F3N+
199.0606	1	C10H8F3N+
200.0318	1	C9H5F3NO+
210.0527	4	C11H7F3N+
211.0609	14	C11H8F3N+
213.079	20	
214.0482	5	C10H7F3NO+
214.0665	6	C13H9FNO+
216.0464	1	C9H8F2NO3+
216.0624	4	C13H8F2N+
218.0416	15	C12H6F2NO+
226.0478	6	C11H7F3NO+
226.0843	31	C12H11F3N+
227.0557	184	C11H8F3NO+
228.0634	2	C11H9F3NO+
234.0726	5	C13H10F2NO+
235.0611	5	C13H8F3N+
236.0688	31	C13H9F3N+
238.048	561	C12H7F3NO+
239.0556	8	C12H8F3NO+
240.0634	12	C12H9F3NO+
253.0349	4	C12H6F3NO2+
253.0715	3	C13H10F3NO+
254.043	255	C12H7F3NO2+
254.0792	342	C13H11F3NO+
255.0507	101	C12H8F3NO2+
256.0585	116	C12H9F3NO2+
262.0676	1	C11H11F3NO3+
264.0635	17	C14H9F3NO+
267.0511	7	C13H8F3NO2+
268.0584	1	C13H9F3NO2+
282.0743	308	C14H11F3NO2+
328.0805	1	C15H13F3NO4+
