Mass spectrum: Phosphamidon; LC-ESI-QFT; MS2; CE: 75%; R=17500; [M+H]+
Name: Phosphamidon
Name: 2-Chloro-3-(diethylamino)-1-methyl-3-oxo-1-propenyl dimethyl phosphate
Name: [3-chloro-4-(diethylamino)-4-oxobut-2-en-2-yl] dimethyl phosphate
Formula: C10H19ClNO5P
Exact mass: 299.0689
SMILES: CCN(CC)C(=O)C(=C(C)OP(=O)(OC)OC)Cl
InChI: InChI=1S/C10H19ClNO5P/c1-6-12(7-2)10(13)9(11)8(3)17-18(14,15-4)16-5/h6-7H2,1-5H3
Instrument: Exploris 240 Orbitrap Thermo Scientific
Instrument type: LC-ESI-QFT
Ms type: MS2
Ion mode: POSITIVE
Ionization: ESI
Fragmentation mode: HCD
Collision energy: 75 % (nominal)
Resolution: 17500
Column name: XBridge C18 3.5um, 2.1x50mm, Waters
Retention time: 5.169 min
Base peak: 300.076
Precursor m/z: 300.0762
Precursor type: [M+H]+
m/z	relative intensity	assigned
65.0385	62	C5H5+
67.0543	14	C5H7+
72.0444	654	C3H6NO+
72.0807	46	C4H10N+
74.0968	15	C4H12N+
74.9996	112	C3H4Cl+
75.9949	242	C2H3ClN+
82.0652	49	C5H8N+
94.9894	14	C2H4ClO2+
100.0758	124	C5H10NO+
104.0263	42	C4H7ClN+
109.0048	93	C2H6O3P+
110.0602	42	C6H8NO+
112.9997	15	CH6O4P+
118.0059	17	C4H5ClNO+
127.0155	999	C2H8O4P+
132.0575	36	C6H11ClN+
