Mass spectrum: MCLF; LC-ESI-QFT; MS2; CE: 45%; R=17500; [M-H]-
Name: MCLF
Name: Microcystin LF
Name: 15-benzyl-18-[(1E,3E)-6-methoxy-3,5-dimethyl-7-phenylhepta-1,3-dienyl]-1,5,12,19-tetramethyl-2-methylidene-8-(2-methylpropyl)-3,6,9,13,16,20,25-heptaoxo-1,4,7,10,14,17,21-heptazacyclopentacosane-11,22-dicarboxylic acid
Class: NA
Formula: C52H71N7O12
Exact mass: 985.5161
SMILES: COC(Cc1ccccc1)C(C)/C=C(C)/C=C/C2NC(=O)C(Cc3ccccc3)NC(=O)C(C)C(NC(=O)C(CC(C)C)NC(=O)C(C)NC(=O)C(=C)N(C)C(=O)CCC(NC(=O)C2C)C(O)=O)C(O)=O
InChI: InChI=1S/C52H71N7O12/c1-29(2)25-40-50(66)58-44(52(69)70)33(6)46(62)56-41(27-36-17-13-11-14-18-36)49(65)54-38(22-21-30(3)26-31(4)42(71-10)28-37-19-15-12-16-20-37)32(5)45(61)55-39(51(67)68)23-24-43(60)59(9)35(8)48(64)53-34(7)47(63)57-40/h11-22,26,29,31-34,38-42,44H,8,23-25,27-28H2,1-7,9-10H3,(H,53,64)(H,54,65)(H,55,61)(H,56,62)(H,57,63)(H,58,66)(H,67,68)(H,69,70)/b22-21+,30-26+
Instrument: Q Exactive Plus Orbitrap Thermo Scientific
Instrument type: LC-ESI-QFT
Ms type: MS2
Ion mode: NEGATIVE
Ionization: ESI
Fragmentation mode: HCD
Collision energy: 45 % (nominal)
Resolution: 17500
Column name: XBridge C18 3.5um, 2.1x50mm, Waters
Retention time: 12.295 min
Base peak: 190.9277
Precursor m/z: 984.5088
Precursor type: [M-H]-
m/z	relative intensity	assigned
72.0454	25	C3H6NO-
73.0296	18	C3H5O2-
74.0249	37	C2H4NO2-
82.0298	21	C4H4NO-
82.0663	28	C5H8N-
84.0455	53	C4H6NO-
87.0568	30	C3H7N2O-
88.0406	5	C3H6NO2-
91.0556	7	C7H7-
96.0455	12	C5H6NO-
98.0249	9	C4H4NO2-
98.0612	9	C5H8NO-
99.0565	109	C4H7N2O-
100.0403	27	C4H6NO2-
109.0406	12	C5H5N2O-
110.0248	542	C5H4NO2-
112.0405	84	C5H6NO2-
112.0768	14	C6H10NO-
113.0357	25	C4H5N2O2-
118.0659	14	C8H8N-
122.0488	7	C6H6N2O-
122.0613	12	C7H8NO-
123.0328	15	C6H5NO2-
123.0566	38	C6H7N2O-
124.0403	124	C6H6NO2-
125.0356	17	C5H5N2O2-
125.0722	21	C6H9N2O-
127.0513	80	C5H7N2O2-
127.0876	10	C6H11N2O-
128.0354	999	C5H6NO3-
129.1034	165	C6H13N2O-
130.0873	20	C6H12NO2-
131.0869	40	C10H11-
136.1131	8	C9H14N-
137.0719	17	C7H9N2O-
138.0435	21	C6H6N2O2-
139.0876	117	C7H11N2O-
141.0672	9	C6H9N2O2-
146.0611	37	C9H8NO-
150.056	28	C8H8NO2-
152.083	6	C7H10N3O-
153.0668	170	C7H9N2O2-
153.1032	16	C8H13N2O-
155.0825	81	C7H11N2O2-
155.1188	15	C8H15N2O-
165.0663	17	C8H9N2O2-
165.1028	229	C9H13N2O-
166.0866	9	C7H10N4O-
166.0993	6	C10H14O2-
167.0823	41	C8H11N2O2-
169.1346	10	C9H17N2O-
170.0931	40	C7H12N3O2-
171.0775	7	C7H11N2O3-
171.1152	18	C8H15N2O2-
180.0774	8	C8H10N3O2-
180.1142	116	C9H14N3O-
181.0617	17	C8H9N2O3-
181.0982	14	C9H13N2O2-
182.1292	196	C7H14N6-
183.1132	52	C7H13N5O-
194.129	8	C8H14N6-
195.1139	11	C10H15N2O2-
198.1237	47	C7H14N6O-
200.1396	198	C7H16N6O-
208.1085	25	C10H14N3O2-
211.0712	30	C7H9N5O3-
212.1401	22	C10H18N3O2-
213.1032	20	C13H13N2O-
214.0868	16	C13H12NO2-
222.1246	24	C11H16N3O2-
222.1608	15	C12H20N3O-
226.119	50	C8H14N6O2-
238.1554	11	C10H18N6O-
240.172	7	C12H22N3O2-
265.1657	487	C12H25O6-
283.1764	118	C12H27O7-
293.1609	19	C13H25O7-
311.175	13	C17H21N5O-
313.1812	19	C20H25O3-
384.233	19	C27H30NO-
