Mass spectrum: Cilastatin; LC-ESI-ITFT; MS2; CE: 45%; R=7500; [M+H]+
Name: Cilastatin
Formula: C16H26N2O5S
Exact mass: 358.1562
SMILES: [H][C@](N)(CSCCCC\C=C(/NC(=O)[C@@]1([H])CC1(C)C)C(O)=O)C(O)=O
InChI: InChI=1S/C16H26N2O5S/c1-16(2)8-10(16)13(19)18-12(15(22)23)6-4-3-5-7-24-9-11(17)14(20)21/h6,10-11H,3-5,7-9,17H2,1-2H3,(H,18,19)(H,20,21)(H,22,23)/b12-6-/t10-,11+/m1/s1
Instrument: LTQ Orbitrap XL Thermo Scientific
Instrument type: LC-ESI-ITFT
Ms type: MS2
Ion mode: POSITIVE
Ionization: ESI
Fragmentation mode: HCD
Collision energy: 45 % (nominal)
Resolution: 7500
Column name: XBridge C18 3.5um, 2.1x50mm, Waters
Retention time: 5.2 min
Base peak: 359.1645
Precursor m/z: 359.1635
Precursor type: [M+H]+
m/z	relative intensity	assigned
55.0178	17	C3H3O+
67.0542	26	C5H7+
69.0699	125	C5H9+
79.0542	102	C6H7+
81.07	4	C6H9+
96.0806	11	C6H10N+
97.0648	999	C6H9O+
98.0964	76	C6H12N+
113.0419	92	C6H9S+
115.0572	4	C6H11S+
122.0968	5	C8H12N+
130.0684	115	C6H12NS+
142.0857	6	C7H12NO2+
156.0839	27	C8H14NS+
174.0589	5	C7H12NO2S+
200.0737	24	C9H14NO2S+
202.0895	33	C9H16NO2S+
219.1162	20	C9H19N2O2S+
