Mass spectrum: Metconazole; LC-ESI-QFT; MS2; CE: 30; R=35000; [M+H]+
Name: Metconazole
Name: 5-(4-chlorobenzyl)-2,2-dimethyl-1-(1,2,4-triazol-1-ylmethyl)cyclopentanol
Formula: C17H22ClN3O
Exact mass: 319.14514
SMILES: Clc1ccc(cc1)CC2C(O)(C(CC2)(C)C)Cn3ncnc3
InChI: InChI=1S/C17H22ClN3O/c1-16(2)8-7-14(9-13-3-5-15(18)6-4-13)17(16,22)10-21-12-19-11-20-21/h3-6,11-12,14,22H,7-10H2,1-2H3
Instrument: Q Exactive Orbitrap Thermo Scientific
Instrument type: LC-ESI-QFT
Ms type: MS2
Ion mode: POSITIVE
Ionization: ESI
Fragmentation mode: HCD
Collision energy: 30 (nominal)
Resolution: 35000
Column name: XBridge C18 3.5um, 2.1x50mm, Waters
Retention time: 13.8 min
Base peak: 320.1528
Precursor m/z: 320.1524
Precursor type: [M+H]+
m/z	relative intensity	assigned
69.07	1	C5H9+
70.04	999	C2H4N3+
81.0699	1	C6H9+
95.0855	9	C7H11+
107.0855	2	C8H11+
125.0152	29	C7H6Cl+
139.031	3	C8H8Cl+
151.0311	2	C9H8Cl+
163.031	3	C10H8Cl+
177.0465	16	C11H10Cl+
191.0621	2	C12H12Cl+
233.1093	16	C15H18Cl+
320.1524	562	C17H23ClN3O+
