Mass spectrum: Cortisone; LC-ESI-QFT; MS2; CE: 120; R=35000; [M-H]-
Name: Cortisone
Name: 17,21-Dihydroxypregn-4-ene-3,11,20-trione
Name: (8S,9S,10R,13S,14S,17R)-17-hydroxy-17-(2-hydroxyacetyl)-10,13-dimethyl-1,2,6,7,8,9,12,14,15,16-decahydrocyclopenta[a]phenanthrene-3,11-dione
Formula: C21H28O5
Exact mass: 360.19367
SMILES: O=C(CO)[C@@]3(O)CC[C@H]2[C@@H]4CC\C1=C\C(=O)CC[C@]1(C)[C@H]4C(=O)C[C@@]23C
InChI: InChI=1S/C21H28O5/c1-19-7-5-13(23)9-12(19)3-4-14-15-6-8-21(26,17(25)11-22)20(15,2)10-16(24)18(14)19/h9,14-15,18,22,26H,3-8,10-11H2,1-2H3/t14-,15-,18+,19-,20-,21-/m0/s1
Instrument: Q Exactive Plus Orbitrap Thermo Scientific
Instrument type: LC-ESI-QFT
Ms type: MS2
Ion mode: NEGATIVE
Ionization: ESI
Fragmentation mode: HCD
Collision energy: 120 (nominal)
Resolution: 35000
Column name: XBridge C18 3.5um, 2.1x50mm, Waters
Retention time: 7.4 min
Base peak: 405.1915
Precursor m/z: 359.1864
Precursor type: [M-H]-
m/z	relative intensity	assigned
55.0189	40	C3H3O-
57.0346	999	C3H5O-
59.0138	22	C2H3O2-
65.0397	76	C5H5-
67.019	20	C4H3O-
69.0346	33	C4H5O-
71.0139	15	C3H3O2-
73.0297	2	C3H5O2-
77.0399	2	C6H5-
79.0553	86	C6H7-
80.0268	49	C5H4O-
81.0346	45	C5H5O-
83.0502	20	C5H7O-
89.0393	2	C7H5-
91.0553	43	C7H7-
93.0345	123	C6H5O-
93.0709	21	C7H9-
94.0425	16	C6H6O-
95.0503	167	C6H7O-
97.0659	30	C6H9O-
101.0397	6	C8H5-
103.0554	20	C8H7-
105.0346	14	C7H5O-
105.071	28	C8H9-
106.0424	57	C7H6O-
107.0503	487	C7H7O-
108.0217	138	C6H4O2-
109.0295	20	C6H5O2-
109.0659	269	C7H9O-
111.045	3	C6H7O2-
115.0554	20	C9H7-
117.0347	10	C8H5O-
117.071	4	C9H9-
119.0502	167	C8H7O-
120.0578	8	C8H8O-
121.0296	118	C7H5O2-
121.0659	187	C8H9O-
122.0374	556	C7H6O2-
123.0452	237	C7H7O2-
123.0816	35	C8H11O-
124.0165	4	C6H4O3-
129.0345	45	C9H5O-
129.0711	6	C10H9-
130.0423	62	C9H6O-
131.0501	50	C9H7O-
133.0659	34	C9H9O-
134.0374	199	C8H6O2-
135.0452	115	C8H7O2-
135.0817	16	C9H11O-
136.0167	6	C7H4O3-
136.0529	122	C8H8O2-
137.0243	41	C7H5O3-
137.0608	115	C8H9O2-
143.0502	72	C10H7O-
144.058	11	C10H8O-
145.0293	10	C9H5O2-
145.0659	168	C10H9O-
146.0375	30	C9H6O2-
147.0452	277	C9H7O2-
148.0531	199	C9H8O2-
149.0608	669	C9H9O2-
151.0401	2	C8H7O3-
154.0272	14	C7H6O4-
156.0581	3	C11H8O-
157.066	26	C11H9O-
158.0374	13	C10H6O2-
159.0451	66	C10H7O2-
159.0815	35	C11H11O-
160.0532	10	C10H8O2-
161.0609	35	C10H9O2-
161.0973	14	C11H13O-
163.0768	4	C10H11O2-
169.0657	5	C12H9O-
171.0816	16	C12H11O-
172.0532	14	C11H8O2-
173.0607	28	C11H9O2-
183.082	4	C13H11O-
185.0607	5	C12H9O2-
187.0765	20	C12H11O2-
193.0659	2	C14H9O-
195.0818	4	C14H11O-
197.0607	10	C13H9O2-
198.069	4	C13H10O2-
199.0766	12	C13H11O2-
211.0766	3	C14H11O2-
213.0922	6	C14H13O2-
223.0766	5	C15H11O2-
227.1082	2	C15H15O2-
