Mass spectrum: 2-Aminobenzimidazole; LC-ESI-ITFT; MS2; CE: 75%; R=7500; [M+H]+
Name: 2-Aminobenzimidazole
Name: 1H-Benzimidazol-2-amine
Formula: C7H7N3
Exact mass: 133.0640
SMILES: NC1=NC2=C(C=CC=C2)N1
InChI: InChI=1S/C7H7N3/c8-7-9-5-3-1-2-4-6(5)10-7/h1-4H,(H3,8,9,10)
Instrument: LTQ Orbitrap XL Thermo Scientific
Instrument type: LC-ESI-ITFT
Ms type: MS2
Ion mode: POSITIVE
Ionization: ESI
Fragmentation mode: HCD
Collision energy: 75 % (nominal)
Resolution: 7500
Column name: XBridge C18 3.5um, 2.1x50mm, Waters
Retention time: 2.7 min
Base peak: 134.0712
Precursor m/z: 134.0713
Precursor type: [M+H]+
m/z	relative intensity	assigned
65.0386	10	C5H5+
92.0495	83	C6H6N+
93.0573	15	C6H7N+
107.0603	19	C6H7N2+
117.0449	2	C7H5N2+
133.0628	2	C7H7N3+
134.0713	999	C7H8N3+
