Mass spectrum: 4-Acetamidoantipyrine; LC-ESI-ITFT; MS2; CE: 60%; R=7500; [M+H]+
Name: 4-Acetamidoantipyrine
Name: N-(1,5-dimethyl-3-oxidanylidene-2-phenyl-pyrazol-4-yl)ethanamide
Formula: C13H15N3O2
Exact mass: 245.1164
SMILES: CC(=O)NC=2C(=O)N(c1ccccc1)N(C)C=2C
InChI: InChI=1S/C13H15N3O2/c1-9-12(14-10(2)17)13(18)16(15(9)3)11-7-5-4-6-8-11/h4-8H,1-3H3,(H,14,17)
Instrument: LTQ Orbitrap XL Thermo Scientific
Instrument type: LC-ESI-ITFT
Ms type: MS2
Ion mode: POSITIVE
Ionization: ESI
Fragmentation mode: HCD
Collision energy: 60 % (nominal)
Resolution: 7500
Column name: XBridge C18 3.5um, 2.1x50mm, Waters
Retention time: 3.7 min
Base peak: 246.1244
Precursor m/z: 246.1237
Precursor type: [M+H]+
m/z	relative intensity	assigned
56.0495	222	C3H6N+
58.0651	6	C3H8N+
77.0386	47	C6H5+
83.0605	999	C4H7N2+
85.0761	36	C4H9N2+
94.0652	90	C6H8N+
104.0496	694	C7H6N+
105.0452	7	C6H5N2+
118.065	12	C8H8N+
119.0601	8	C7H7N2+
130.0654	7	C9H8N+
131.0606	10	C8H7N2+
132.0445	7	C8H6NO+
145.0765	21	C9H9N2+
145.0884	10	C10H11N+
146.0601	34	C9H8NO+
147.0548	4	C8H7N2O+
159.0546	21	C9H7N2O+
159.0917	174	C10H11N2+
172.0634	35	C10H8N2O+
173.0711	35	C10H9N2O+
185.0711	19	C11H9N2O+
186.0784	14	C11H10N2O+
187.0865	67	C11H11N2O+
189.0897	18	C10H11N3O+
204.1131	101	C11H14N3O+
213.0899	23	C12H11N3O+
226.097	11	C13H12N3O+
228.1129	104	C13H14N3O+
