Mass spectrum: Fluxapyroxad (BAS 700 F)-TP CSAA798670; LC-ESI-QFT; MS2; CE: 150%; R=17500; [M+H]+
Name: Fluxapyroxad (BAS 700 F)-TP CSAA798670
Name: 3-(Difluoromethyl)-1-methyl-1H-pyrazole-4-carboxylic acid
Name: 3-(difluoromethyl)-1-methylpyrazole-4-carboxylic acid
Formula: C6H6F2N2O2
Exact mass: 176.0397
SMILES: CN1C=C(C(O)=O)C(=N1)C(F)F
InChI: InChI=1S/C6H6F2N2O2/c1-10-2-3(6(11)12)4(9-10)5(7)8/h2,5H,1H3,(H,11,12)
Instrument: Q Exactive Plus Orbitrap Thermo Scientific
Instrument type: LC-ESI-QFT
Ms type: MS2
Ion mode: POSITIVE
Ionization: ESI
Fragmentation mode: HCD
Collision energy: 150 % (nominal)
Resolution: 17500
Column name: XBridge C18 3.5um, 2.1x50mm, Waters
Retention time: 2.916 min
Base peak: 177.047
Precursor m/z: 177.047
Precursor type: [M+H]+
m/z	relative intensity	assigned
50.0152	43	C4H2+
51.004	105	CHF2+
51.023	213	C4H3+
52.0182	387	C3H2N+
53.0022	551	C3HO+
53.0386	397	C4H5+
54.0339	338	C3H4N+
55.0178	104	C3H3O+
66.0212	499	C3H2N2+
66.0338	91	C4H4N+
67.0179	93	C4H3O+
68.0131	999	C3H2NO+
70.0213	116	C4H3F+
81.0447	70	C4H5N2+
82.0288	310	C4H4NO+
109.0397	204	C5H5N2O+
109.0509	67	
