Mass spectrum: Eseroline; LC-ESI-QFT; MS2; CE: 120; R=35000; [M+H]+
Name: Eseroline
Name: 1,3a,8-Trimethyl-1,2,3,3a,8,8a-hexahydropyrrolo[2,3-b]indol-5-ol
Name: 3,4,8b-trimethyl-2,3a-dihydro-1H-pyrrolo[2,3-b]indol-7-ol
Formula: C13H18N2O
Exact mass: 218.14191
SMILES: CC12CCN(C1N(C3=C2C=C(C=C3)O)C)C
InChI: InChI=1S/C13H18N2O/c1-13-6-7-14(2)12(13)15(3)11-5-4-9(16)8-10(11)13/h4-5,8,12,16H,6-7H2,1-3H3
Instrument: Q Exactive Plus Orbitrap Thermo Scientific
Instrument type: LC-ESI-QFT
Ms type: MS2
Ion mode: POSITIVE
Ionization: ESI
Fragmentation mode: HCD
Collision energy: 120 (nominal)
Resolution: 35000
Column name: XBridge C18 3.5um, 2.1x50mm, Waters
Retention time: 2.4 min
Base peak: 164.9844
Precursor m/z: 219.1492
Precursor type: [M+H]+
m/z	relative intensity	assigned
50.0151	14	C4H2+
51.023	74	C4H3+
53.0022	52	C3HO+
53.0386	126	C4H5+
55.0179	51	C3H3O+
55.0543	205	C4H7+
56.0495	15	C3H6N+
58.0651	13	C3H8N+
59.0492	16	C3H7O+
60.0443	7	C2H6NO+
65.0386	164	C5H5+
67.0542	93	C5H7+
68.0131	10	C3H2NO+
69.0334	13	C4H5O+
69.0699	12	C5H9+
77.0385	96	C6H5+
78.0464	55	C6H6+
79.0542	358	C6H7+
80.0494	13	C5H6N+
81.0335	9	C5H5O+
81.0573	8	C5H7N+
81.0699	34	C6H9+
83.0493	9	C5H7O+
89.0387	23	C7H5+
90.0466	12	C7H6+
91.0543	646	C7H7+
92.0495	9	C6H6N+
93.07	85	C7H9+
94.0652	6	C6H8N+
95.0492	334	C6H7O+
97.0077	62	C8H+
102.0463	11	C8H6+
103.0543	188	C8H7+
104.0494	32	C7H6N+
105.0448	220	C6H5N2+
105.0699	241	C8H9+
106.0652	135	C7H8N+
107.0491	39	C7H7O+
107.0727	9	C7H9N+
107.0855	10	C8H11+
111.0234	8	C9H3+
115.0543	224	C9H7+
116.0495	8	C8H6N+
116.0619	32	C9H8+
117.0574	78	C8H7N+
117.0699	109	C9H9+
118.0652	209	C8H8N+
119.0491	7	C8H7O+
119.073	48	C8H9N+
119.0857	56	C9H11+
121.0648	40	C8H9O+
121.1012	6	C9H13+
127.0543	10	C10H7+
128.0494	11	C9H6N+
128.062	114	C10H8+
129.07	82	C10H9+
130.0652	57	C9H8N+
130.0778	39	C10H10+
131.0493	49	C9H7O+
131.0729	11	C9H9N+
131.0855	42	C10H11+
132.0443	26	C8H6NO+
132.0809	66	C9H10N+
133.0523	42	C8H7NO+
134.06	188	C8H8NO+
141.07	16	C11H9+
142.0779	8	C11H10+
143.0726	7	C10H9N+
143.0857	11	C11H11+
144.0445	10	C9H6NO+
144.0806	62	C10H10N+
145.052	10	C9H7NO+
145.0647	28	C10H9O+
145.1013	14	C11H13+
146.0601	999	C9H8NO+
147.0679	366	C9H9NO+
153.07	13	C12H9+
154.0654	9	C11H8N+
155.0605	40	C10H7N2+
155.0856	10	C12H11+
158.06	13	C10H8NO+
158.0727	8	C11H10O+
160.0757	441	C10H10NO+
161.0836	46	C10H11NO+
172.0756	108	C11H10NO+
173.0838	10	C11H11NO+
