Mass spectrum: Thifensulfuron-methyl; LC-ESI-ITFT; MS2; CE: 15%; R=15000; [M+H]+
Name: Thifensulfuron-methyl
Name: 3-[(4-methoxy-6-methyl-s-triazin-2-yl)carbamoylsulfamoyl]thiophene-2-carboxylic acid methyl ester
Formula: C12H13N5O6S2
Exact mass: 387.0307
SMILES: COC(=O)C1=C(C=CS1)S(=O)(=O)NC(=O)NC1=NC(C)=NC(OC)=N1
InChI: InChI=1S/C12H13N5O6S2/c1-6-13-10(16-12(14-6)23-3)15-11(19)17-25(20,21)7-4-5-24-8(7)9(18)22-2/h4-5H,1-3H3,(H2,13,14,15,16,17,19)
Instrument: LTQ Orbitrap XL Thermo Scientific
Instrument type: LC-ESI-ITFT
Ms type: MS2
Ion mode: POSITIVE
Ionization: ESI
Fragmentation mode: HCD
Collision energy: 15 % (nominal)
Resolution: 15000
Column name: XBridge C18 3.5um, 2.1x50mm, Waters
Retention time: 7.2 min
Base peak: 388.0375
Precursor m/z: 388.038
Precursor type: [M+H]+
m/z	relative intensity	assigned
141.0771	59	C5H9N4O+
167.0563	999	C6H7N4O2+
204.9624	19	C6H5O4S2+
221.9888	2	C6H8NO4S2+
247.9681	1	C7H6NO5S2+
356.0112	3	C11H10N5O5S2+
388.0379	493	C12H14N5O6S2+
