Mass spectrum: Mandestrobin; LC-ESI-QFT; MS2; CE: 15%; R=17500; [M+H]+
Name: Mandestrobin
Name: 2-[2-[(2,5-dimethylphenoxy)methyl]phenyl]-2-methoxy-N-methylacetamide
Formula: C19H23NO3
Exact mass: 313.1678
SMILES: CC1=CC(=C(C=C1)C)OCC2=CC=CC=C2C(C(=O)NC)OC
InChI: InChI=1S/C19H23NO3/c1-13-9-10-14(2)17(11-13)23-12-15-7-5-6-8-16(15)18(22-4)19(21)20-3/h5-11,18H,12H2,1-4H3,(H,20,21)
Instrument: Exploris 240 Orbitrap Thermo Scientific
Instrument type: LC-ESI-QFT
Ms type: MS2
Ion mode: POSITIVE
Ionization: ESI
Fragmentation mode: HCD
Collision energy: 15 % (nominal)
Resolution: 17500
Column name: XBridge C18 3.5um, 2.1x50mm, Waters
Retention time: 11.127 min
Base peak: 314.1748
Precursor m/z: 314.1751
Precursor type: [M+H]+
m/z	relative intensity	assigned
132.0809	7	C9H10N+
160.0755	26	C10H10NO+
192.1017	999	C11H14NO2+
223.1108	17	C16H15O+
251.1061	23	C17H15O2+
