Mass spectrum: Trifluoromethanesulphonic acid; LC-ESI-QFT; MS2; CE: 30%; R=15000; [M-H]-
Name: Trifluoromethanesulphonic acid
Name: trifluoromethanesulfonic acid
Formula: CHF3O3S
Exact mass: 149.9598
SMILES: C(F)(F)(F)S(=O)(=O)O
InChI: InChI=1S/CHF3O3S/c2-1(3,4)8(5,6)7/h(H,5,6,7)
Instrument: Orbitrap Exploris 240 Thermo Scientific
Instrument type: LC-ESI-QFT
Ms type: MS2
Ion mode: NEGATIVE
Ionization: ESI
Fragmentation mode: HCD
Collision energy: 30 % (nominal)
Resolution: 15000
Column name: Atlantis C18 3um, 3.0x150mm, Waters
Retention time: 8.397 min
Base peak: 148.9523
Precursor m/z: 148.9526
Precursor type: [M-H]-
Precursor intensity: 181317808
m/z	relative intensity	assigned
79.9573	25	O3S-
82.9607	3	FO2S-
98.9557	1	FO3S-
148.9524	999	CF3O3S-
