Mass spectrum: Lansoprazole; LC-ESI-QFT; MS2; CE: 45; R=35000; [M+H]+
Name: Lansoprazole
Name: 2-[[3-methyl-4-(2,2,2-trifluoroethoxy)pyridin-2-yl]methylsulfinyl]-1H-benzimidazole
Formula: C16H14F3N3O2S
Exact mass: 369.07588
SMILES: Cc1c(ccnc1CS(=O)c2[nH]c3ccccc3n2)OCC(F)(F)F
InChI: InChI=1S/C16H14F3N3O2S/c1-10-13(20-7-6-14(10)24-9-16(17,18)19)8-25(23)15-21-11-4-2-3-5-12(11)22-15/h2-7H,8-9H2,1H3,(H,21,22)
Instrument: Q Exactive Plus Orbitrap Thermo Scientific
Instrument type: LC-ESI-QFT
Ms type: MS2
Ion mode: POSITIVE
Ionization: ESI
Fragmentation mode: HCD
Collision energy: 45 (nominal)
Resolution: 35000
Column name: XBridge C18 3.5um, 2.1x50mm, Waters
Retention time: 7.4 min
Base peak: 370.0829
Precursor m/z: 370.0832
Precursor type: [M+H]+
m/z	relative intensity	assigned
65.0385	2	C5H5+
92.0495	3	C6H6N+
93.0571	1	C6H7N+
106.0652	12	C7H8N+
107.0729	171	C7H9N+
108.0807	2	C7H10N+
109.0522	3	C6H7NO+
119.0604	892	C7H7N2+
122.06	84	C7H8NO+
134.0059	1	C7H4NS+
135.068	1	C8H9NO+
136.0757	849	C8H10NO+
137.0635	6	C8H8FN+
149.0168	58	C7H5N2S+
151.0086	35	C7H5NOS+
151.0326	4	C7H7N2S+
152.0164	8	C7H6NOS+
153.0244	1	C7H7NOS+
165.0584	4	C9H8FNO+
166.0192	1	C7H6N2OS+
185.0647	40	C9H9F2NO+
190.0474	36	C8H7F3NO+
192.0628	2	C8H9F3NO+
204.0631	292	C9H9F3NO+
205.071	320	C9H10F3NO+
208.058	21	C8H9F3NO2+
210.0197	8	C7H7F3NOS+
211.0865	3	C13H11N2O+
220.058	140	C9H9F3NO2+
222.0737	62	C9H11F3NO2+
234.0195	999	C9H7F3NOS+
235.0273	219	C9H8F3NOS+
236.082	2	C14H10N3O+
252.03	642	C9H9F3NO2S+
268.053	1	C14H11F3S+
293.089	2	C15H12F3N2O+
352.0725	4	C16H13F3N3OS+
