Mass spectrum: Metribuzin; LC-ESI-ITFT; MS2; CE: 75%; R=15000; [M+H]+
Name: Metribuzin
Name: 1,2,4-Triazin-5(4H)-one, 4-amino-6-(1,1-dimethylethyl)-3-(methylthio)-
Name: 4-amino-6-tert-butyl-3-(methylthio)-1,2,4-triazin-5-one
Formula: C8H14N4OS
Exact mass: 214.0883
SMILES: S(C)C(=NN=C1C(C)(C)C)N(N)C1=O
InChI: InChI=1S/C8H14N4OS/c1-8(2,3)5-6(13)12(9)7(14-4)11-10-5/h9H2,1-4H3
Instrument: LTQ Orbitrap XL Thermo Scientific
Instrument type: LC-ESI-ITFT
Ms type: MS2
Ion mode: POSITIVE
Ionization: ESI
Fragmentation mode: HCD
Collision energy: 75 % (nominal)
Resolution: 15000
Column name: XBridge C18 3.5um, 2.1x50mm, Waters
Retention time: 6.9 min
Base peak: 215.0964
Precursor m/z: 215.0961
Precursor type: [M+H]+
m/z	relative intensity	assigned
57.0699	132	C4H9+
58.04	401	CH4N3+
59.9902	243	CH2NS+
60.998	23	CH3NS+
62.0059	172	CH4NS+
68.0495	36	C4H6N+
69.0084	19	C2HN2O+
69.0699	63	C5H9+
74.006	605	C2H4NS+
76.0217	35	C2H6NS+
82.0652	86	C5H8N+
84.0808	404	C5H10N+
87.0012	35	C2H3N2S+
88.0089	14	C2H4N2S+
89.0168	125	C2H5N2S+
94.0652	13	C6H8N+
95.0604	15	C5H7N2+
97.0649	33	C6H9O+
104.0276	17	C2H6N3S+
108.0683	39	C6H8N2+
109.0758	17	C6H9N2+
114.9962	41	C3H3N2OS+
125.0709	14	C6H9N2O+
125.0823	20	C5H9N4+
130.0309	46	C3H6N4S+
131.0387	457	C3H7N4S+
140.0403	18	C6H8N2S+
145.0544	97	C4H9N4S+
153.0775	25	C6H9N4O+
155.064	19	C7H11N2S+
156.0591	147	C6H10N3S+
157.0432	23	C6H9N2OS+
171.0588	215	C7H11N2OS+
172.0779	57	C6H12N4S+
183.0463	17	C7H9N3OS+
184.0539	98	C7H10N3OS+
186.0823	12	C8H14N2OS+
187.1013	999	C7H15N4S+
215.0962	124	C8H15N4OS+
