Mass spectrum: 1,3-Dimethylpteridine-2,4-dione; LC-ESI-QFT; MS2; CE: 90; R=35000; [M+H]+
Name: 1,3-Dimethylpteridine-2,4-dione
Name: 1,3-Dimethyllumazine
Formula: C8H8N4O2
Exact mass: 192.06473
SMILES: O=C2c1nccnc1N(C(=O)N2C)C
InChI: InChI=1S/C8H8N4O2/c1-11-6-5(9-3-4-10-6)7(13)12(2)8(11)14/h3-4H,1-2H3
Instrument: Q Exactive Orbitrap Thermo Scientific
Instrument type: LC-ESI-QFT
Ms type: MS2
Ion mode: POSITIVE
Ionization: ESI
Fragmentation mode: HCD
Collision energy: 90 (nominal)
Resolution: 35000
Column name: XBridge C18 3.5um, 2.1x50mm, Waters
Retention time: 3.6 min
Base peak: 193.072
Precursor m/z: 193.072
Precursor type: [M+H]+
m/z	relative intensity	assigned
52.0183	19	C3H2N+
54.0339	17	C3H4N+
56.0496	9	C3H6N+
58.0288	7	C2H4NO+
66.0338	57	C4H4N+
67.0291	32	C3H3N2+
68.0131	11	C3H2NO+
68.0369	18	C3H4N2+
68.0495	17	C4H6N+
69.0447	7	C3H5N2+
78.0338	5	C5H4N+
79.029	23	C4H3N2+
80.0369	17	C4H4N2+
81.0447	999	C4H5N2+
82.04	7	C3H4N3+
82.0525	9	C4H6N2+
93.0447	381	C5H5N2+
94.0399	7	C4H4N3+
94.0525	3	C5H6N2+
95.024	18	C4H3N2O+
95.0604	109	C5H7N2+
96.0559	1	C4H6N3+
97.0397	506	C4H5N2O+
105.0448	23	C6H5N2+
106.04	67	C5H4N3+
107.0479	30	C5H5N3+
108.0556	903	C5H6N3+
109.0396	5	C5H5N2O+
110.0348	8	C4H4N3O+
111.0553	34	C5H7N2O+
118.04	6	C6H4N3+
119.0479	2	C6H5N3+
120.0191	21	C5H2N3O+
120.0556	254	C6H6N3+
121.0508	6	C5H5N4+
121.0634	25	C6H7N3+
122.0712	194	C6H8N3+
123.0555	1	C6H7N2O+
126.066	3	C5H8N3O+
127.0499	3	C5H7N2O2+
132.0556	89	C7H6N3+
133.0509	160	C6H5N4+
134.0587	143	C6H6N4+
136.0505	80	C6H6N3O+
147.0665	7	C7H7N4+
148.0743	17	C7H8N4+
149.0823	124	C7H9N4+
150.0661	2	C7H8N3O+
151.0614	3	C6H7N4O+
152.0456	1	C6H6N3O2+
161.0458	5	C7H5N4O+
165.0532	9	C7H7N3O2+
165.077	1	C7H9N4O+
179.0565	20	C7H7N4O2+
193.072	313	C8H9N4O2+
