Mass spectrum: Iodosulfuron-methyl; LC-ESI-QFT; MS2; CE: 30; R=35000; [M+H]+
Name: Iodosulfuron-methyl
Name: Methyl 4-iodo-2-(N-(4-methoxy-6-methyl-1,3,5-triazin-2-ylcarbamoyl)sulfamoyl)benzoate
Name: Methyl 4-iodo-2-[(4-methoxy-6-methyl-1,3,5-triazin-2-yl)carbamoylsulfamoyl]benzoate
Formula: C14H14IN5O6S
Exact mass: 506.97095
SMILES: Cc2nc(NC(=O)NS(=O)(=O)c1cc(I)ccc1C(=O)OC)nc(OC)n2
InChI: InChI=1S/C14H14IN5O6S/c1-7-16-12(19-14(17-7)26-3)18-13(22)20-27(23,24)10-6-8(15)4-5-9(10)11(21)25-2/h4-6H,1-3H3,(H2,16,17,18,19,20,22)
Instrument: Q Exactive Plus Orbitrap Thermo Scientific
Instrument type: LC-ESI-QFT
Ms type: MS2
Ion mode: POSITIVE
Ionization: ESI
Fragmentation mode: HCD
Collision energy: 30 (nominal)
Resolution: 35000
Column name: XBridge C18 3.5um, 2.1x50mm, Waters
Retention time: 9.3 min
Base peak: 507.9772
Precursor m/z: 507.9782
Precursor type: [M+H]+
m/z	relative intensity	assigned
56.0495	11	C3H6N+
57.0447	1	C2H5N2+
58.0285	4	C2H4NO+
69.008	6	C2HN2O+
83.0239	6	C3H3N2O+
141.0771	88	C5H9N4O+
167.0564	999	C6H7N4O2+
260.9408	14	C8H6IO2+
309.9028	5	C7H5INO3S+
324.9028	65	C8H6IO4S+
335.8824	11	C8H3INO4S+
