Mass spectrum: Albendazole; LC-ESI-QFT; MS2; CE: 90; R=35000; [M+H]+
Name: Albendazole
Name: Methyl N-(6-propylsulfanyl-1H-benzimidazol-2-yl)carbamate
Formula: C12H15N3O2S
Exact mass: 265.08850
SMILES: CCCSC1=CC2=C(C=C1)N=C(N2)NC(=O)OC
InChI: InChI=1S/C12H15N3O2S/c1-3-6-18-8-4-5-9-10(7-8)14-11(13-9)15-12(16)17-2/h4-5,7H,3,6H2,1-2H3,(H2,13,14,15,16)
Instrument: Q Exactive Plus Orbitrap Thermo Scientific
Instrument type: LC-ESI-QFT
Ms type: MS2
Ion mode: POSITIVE
Ionization: ESI
Fragmentation mode: HCD
Collision energy: 90 (nominal)
Resolution: 35000
Column name: XBridge C18 3.5um, 2.1x50mm, Waters
Retention time: 7.8 min
Base peak: 266.0953
Precursor m/z: 266.0958
Precursor type: [M+H]+
m/z	relative intensity	assigned
69.0083	2	C2HN2O+
77.0258	2	C5H3N+
79.0417	3	C5H5N+
90.0339	1	C6H4N+
92.0369	4	C5H4N2+
95.0366	1	C5H5NO+
96.0028	6	C5H4S+
96.0445	1	C5H6NO+
97.0107	1	C5H5S+
103.0417	4	C7H5N+
104.0369	17	C6H4N2+
105.0448	9	C6H5N2+
106.0527	1	C6H6N2+
108.9981	5	C5H3NS+
111.0137	3	C5H5NS+
112.0216	1	C5H6NS+
118.0524	2	C7H6N2+
119.0479	57	C6H5N3+
120.0319	1	C6H4N2O+
120.0556	3	C6H6N3+
120.9981	21	C6H3NS+
122.0059	19	C6H4NS+
123.0138	11	C6H5NS+
124.0216	1	C6H6NS+
130.0401	12	C7H4N3+
131.0479	85	C7H5N3+
132.0558	5	C7H6N3+
133.0636	7	C7H7N3+
134.0474	2	C7H6N2O+
134.0714	2	C7H8N3+
135.0012	1	C6H3N2S+
136.0091	96	C6H4N2S+
136.993	1	C6H3NOS+
137.0169	9	C6H5N2S+
138.0246	1	C6H6N2S+
146.0712	3	C8H8N3+
147.0428	43	C7H5N3O+
148.0091	4	C7H4N2S+
149.0169	5	C7H5N2S+
150.0247	6	C7H6N2S+
158.0351	11	C8H4N3O+
159.0428	761	C8H5N3O+
160.0506	14	C8H6N3O+
162.0122	7	C7H4N3S+
163.0199	255	C7H5N3S+
164.0041	5	C7H4N2OS+
164.0277	51	C7H6N3S+
165.0357	6	C7H7N3S+
166.0194	4	C7H6N2OS+
172.0506	1	C9H6N3O+
176.0276	1	C8H6N3S+
177.0356	1	C8H7N3S+
178.0434	1	C8H8N3S+
179.0512	2	C8H9N3S+
186.0409	1	C8H4N5O+
186.066	1	C10H8N3O+
190.007	17	C8H4N3OS+
191.0148	999	C8H5N3OS+
192.0226	166	C8H6N3OS+
204.0228	9	C9H6N3OS+
205.0306	1	C9H7N3OS+
234.0698	15	C11H12N3OS+
