Mass spectrum: 2-Mercaptobenzothiazole; LC-ESI-QFT; MS2; CE: 60; R=35000; [M+H]+
Name: 2-Mercaptobenzothiazole
Name: 1,3-Benzothiazole-2(3H)-thione
Name: 3H-1,3-benzothiazole-2-thione
Formula: C7H5NS2
Exact mass: 166.98634
SMILES: S=C2Sc1ccccc1N2
InChI: InChI=1S/C7H5NS2/c9-7-8-5-3-1-2-4-6(5)10-7/h1-4H,(H,8,9)
Instrument: Q Exactive Plus Orbitrap Thermo Scientific
Instrument type: LC-ESI-QFT
Ms type: MS2
Ion mode: POSITIVE
Ionization: ESI
Fragmentation mode: HCD
Collision energy: 60 (nominal)
Resolution: 35000
Column name: XBridge C18 3.5um, 2.1x50mm, Waters
Retention time: 6.7 min
Base peak: 167.9936
Precursor m/z: 167.9936
Precursor type: [M+H]+
m/z	relative intensity	assigned
65.0386	16	C5H5+
77.0382	1	C6H5+
80.0494	2	C5H6N+
92.0495	118	C6H6N+
104.0494	7	C7H6N+
109.0107	88	C6H5S+
110.0185	39	C6H6S+
124.0216	150	C6H6NS+
134.0059	3	C7H4NS+
135.0137	224	C7H5NS+
136.0216	119	C7H6NS+
140.9827	12	C6H5S2+
152.0162	1	C7H6NOS+
166.9858	1	C7H5NS2+
167.9936	999	C7H6NS2+
