Mass spectrum: Flocoumafen; LC-ESI-QFT; MS2; CE: 45%; R=17500; [M+H]+
Name: Flocoumafen
Name: 4-hydroxy-3-[3-[4-[[4-(trifluoromethyl)phenyl]methoxy]phenyl]-1,2,3,4-tetrahydronaphthalen-1-yl]chromen-2-one
Formula: C33H25F3O4
Exact mass: 542.1705
SMILES: C1C(CC2=CC=CC=C2C1C3=C(C4=CC=CC=C4OC3=O)O)C5=CC=C(C=C5)OCC6=CC=C(C=C6)C(F)(F)F
InChI: InChI=1S/C33H25F3O4/c34-33(35,36)24-13-9-20(10-14-24)19-39-25-15-11-21(12-16-25)23-17-22-5-1-2-6-26(22)28(18-23)30-31(37)27-7-3-4-8-29(27)40-32(30)38/h1-16,23,28,37H,17-19H2
Instrument: Exploris 240 Orbitrap Thermo Scientific
Instrument type: LC-ESI-QFT
Ms type: MS2
Ion mode: POSITIVE
Ionization: ESI
Fragmentation mode: HCD
Collision energy: 45 % (nominal)
Resolution: 17500
Column name: XBridge C18 3.5um, 2.1x50mm, Waters
Retention time: 15.796 min
Base peak: 543.1776
Precursor m/z: 543.1778
Precursor type: [M+H]+
m/z	relative intensity	assigned
91.0543	112	C7H7+
105.0698	4	C8H9+
107.0492	31	C7H7O+
117.0699	18	C9H9+
119.049	21	C8H7O+
121.028	11	C7H5O2+
129.0699	34	C10H9+
141.0511	5	C8H7F2+
141.0701	8	C11H9+
143.0856	3	C11H11+
155.0856	6	C12H11+
159.0416	999	C8H6F3+
163.0389	23	C9H7O3+
167.0856	10	C13H11+
171.0807	18	C12H11O+
173.0572	4	C9H8F3+
175.039	288	C10H7O3+
183.08	5	C13H11O+
189.0542	14	C11H9O3+
195.0804	23	C14H11O+
196.0882	14	C14H12O+
235.0736	5	C14H10F3+
249.0887	9	C15H12F3+
277.0834	4	C16H12F3O+
291.1014	28	C19H15O3+
355.1307	40	C22H18F3O+
