Mass spectrum: Hydrocodone; LC-ESI-QFT; MS2; CE: 60; R=35000; [M+H]+
Name: Hydrocodone
Name: (4R,4aR,7aR,12bS)-9-methoxy-3-methyl-1,2,4,4a,5,6,7a,13-octahydro-4,12-methanobenzofuro[3,2-e]isoquinoline-7-one
Formula: C18H21NO3
Exact mass: 299.15214
SMILES: CN1CC[C@]23[C@@H]4[C@H]1CC5=C2C(=C(C=C5)OC)O[C@H]3C(=O)CC4
InChI: InChI=1S/C18H21NO3/c1-19-8-7-18-11-4-5-13(20)17(18)22-16-14(21-2)6-3-10(15(16)18)9-12(11)19/h3,6,11-12,17H,4-5,7-9H2,1-2H3/t11-,12+,17-,18-/m0/s1
Instrument: Q Exactive Orbitrap Thermo Scientific
Instrument type: LC-ESI-QFT
Ms type: MS2
Ion mode: POSITIVE
Ionization: ESI
Fragmentation mode: HCD
Collision energy: 60 (nominal)
Resolution: 35000
Column name: XBridge C18 3.5um, 2.1x50mm, Waters
Retention time: 3.2 min
Base peak: 300.1595
Precursor m/z: 300.1594
Precursor type: [M+H]+
m/z	relative intensity	assigned
55.0179	1	C3H3O+
58.0652	16	C3H8N+
70.0651	2	C4H8N+
79.0543	1	C6H7+
82.0652	1	C5H8N+
83.0491	1	C5H7O+
84.0807	7	C5H10N+
86.06	2	C4H8NO+
91.0541	1	C7H7+
94.0651	2	C6H8N+
96.0807	1	C6H10N+
100.0756	5	C5H10NO+
110.0601	8	C6H8NO+
112.0756	1	C6H10NO+
115.054	5	C9H7+
128.0618	12	C10H8+
129.0699	5	C10H9+
131.0491	1	C9H7O+
131.0855	1	C10H11+
134.0964	2	C9H12N+
137.0596	12	C8H9O2+
141.0698	27	C11H9+
142.0777	2	C11H10+
143.0494	3	C10H7O+
143.0856	7	C11H11+
144.0571	3	C10H8O+
145.0647	2	C10H9O+
148.0757	3	C9H10NO+
149.0834	1	C9H11NO+
150.0913	6	C9H12NO+
151.0753	2	C9H11O2+
152.0619	3	C12H8+
153.0698	43	C12H9+
154.0778	5	C12H10+
155.0493	1	C11H7O+
155.0855	19	C12H11+
156.0569	10	C11H8O+
157.0649	5	C11H9O+
158.0727	4	C11H10O+
159.0804	12	C11H11O+
161.0596	6	C10H9O2+
162.0912	5	C10H12NO+
163.0753	2	C10H11O2+
163.0991	4	C10H13NO+
165.0699	43	C13H9+
166.0777	2	C13H10+
167.0857	5	C13H11+
168.057	4	C12H8O+
169.0645	6	C12H9O+
169.0759	3	C11H9N2+
169.1011	3	C13H13+
170.0726	15	C12H10O+
171.0804	180	C12H11O+
172.0519	2	C11H8O2+
172.0883	1	C12H12O+
173.0962	4	C12H13O+
174.0678	4	C11H10O2+
175.0752	6	C11H11O2+
176.1074	1	C11H14NO+
179.0855	3	C14H11+
181.0647	104	C13H9O+
182.0727	10	C13H10O+
183.0805	108	C13H11O+
184.0519	6	C12H8O2+
184.0882	2	C13H12O+
185.0597	62	C12H9O2+
185.096	31	C13H13O+
186.0676	11	C12H10O2+
187.0754	26	C12H11O2+
187.1117	3	C13H15O+
188.0832	1	C12H12O2+
189.0908	7	C12H13O2+
191.0855	2	C15H11+
193.0648	13	C14H9O+
194.0726	7	C14H10O+
195.0805	9	C14H11O+
197.0599	3	C13H9O2+
197.096	15	C14H13O+
198.0676	22	C13H10O2+
198.1043	1	C14H14O+
199.0752	999	C13H11O2+
200.0826	7	C13H12O2+
201.0907	15	C13H13O2+
203.0942	4	C12H13NO2+
203.1061	4	C13H15O2+
207.0804	3	C15H11O+
208.0885	2	C15H12O+
209.0605	3	C14H9O2+
209.0961	6	C15H13O+
210.0678	6	C14H10O2+
211.0754	22	C14H11O2+
211.1121	2	C15H15O+
212.083	5	C14H12O2+
213.091	166	C14H13O2+
214.0625	2	C13H10O3+
214.0859	1	C13H12NO2+
214.0989	2	C14H14O2+
215.1068	12	C14H15O2+
217.086	1	C13H13O3+
223.0753	4	C15H11O2+
225.091	46	C15H13O2+
226.0868	1	C14H12NO2+
226.0988	2	C15H14O2+
227.0703	1	C14H11O3+
227.1064	4	C15H15O2+
228.0776	3	C14H12O3+
228.102	4	C14H14NO2+
229.1223	4	C15H17O2+
237.0913	1	C16H13O2+
239.1068	2	C16H15O2+
241.0858	165	C15H13O3+
242.0937	2	C15H14O3+
242.1175	2	C15H16NO2+
243.1016	58	C15H15O3+
251.1068	1	C17H15O2+
254.1176	1	C16H16NO2+
255.1019	4	C16H15O3+
256.1327	3	C16H18NO2+
257.1174	17	C16H17O3+
257.1412	2	C16H19NO2+
266.1175	2	C17H16NO2+
267.1257	2	C17H17NO2+
268.1335	3	C17H18NO2+
269.1173	2	C17H17O3+
270.1114	1	C16H16NO3+
272.1284	1	C16H18NO3+
272.1649	1	C17H22NO2+
282.1483	3	C18H20NO2+
284.1277	2	C17H18NO3+
285.1361	17	C17H19NO3+
300.1594	215	C18H22NO3+
