Mass spectrum: Paracetamol; LC-ESI-ITFT; MS2; CE: 60%; R=15000; [M+H]+
Name: Paracetamol
Name: Acetaminophen
Name: N-(4-hydroxyphenyl)acetamide
Formula: C8H9NO2
Exact mass: 151.0633
SMILES: CC(=O)NC1=CC=C(O)C=C1
InChI: InChI=1S/C8H9NO2/c1-6(10)9-7-2-4-8(11)5-3-7/h2-5,11H,1H3,(H,9,10)
Instrument: LTQ Orbitrap XL Thermo Scientific
Instrument type: LC-ESI-ITFT
Ms type: MS2
Ion mode: POSITIVE
Ionization: ESI
Fragmentation mode: HCD
Collision energy: 60 % (nominal)
Resolution: 15000
Column name: XBridge C18 3.5um, 2.1x50mm, Waters
Retention time: 2.2 min
Base peak: 152.0707
Precursor m/z: 152.0706
Precursor type: [M+H]+
m/z	relative intensity	assigned
65.0386	33	C5H5+
82.0651	8	C5H8N+
92.0494	27	C6H6N+
93.0335	28	C6H5O+
109.052	3	C6H7NO+
110.0601	999	C6H8NO+
111.044	9	C6H7O2+
121.0396	1	C6H5N2O+
134.06	24	C8H8NO+
152.0706	363	C8H10NO2+
