Mass spectrum: 4,6-dinitro-o-cresol; LC-ESI-QFT; MS2; CE: 45; R=35000; [M-H]-
Name: 4,6-dinitro-o-cresol
Name: DNOC
Name: 2-methyl-4,6-dinitro-phenol
Formula: C7H6N2O5
Exact mass: 198.02767
SMILES: [O-][N+](=O)c1cc([N+]([O-])=O)cc(c1O)C
InChI: InChI=1S/C7H6N2O5/c1-4-2-5(8(11)12)3-6(7(4)10)9(13)14/h2-3,10H,1H3
Instrument: Q Exactive Orbitrap Thermo Scientific
Instrument type: LC-ESI-QFT
Ms type: MS2
Ion mode: NEGATIVE
Ionization: ESI
Fragmentation mode: HCD
Collision energy: 45 (nominal)
Resolution: 35000
Column name: XBridge C18 3.5um, 2.1x50mm, Waters
Retention time: 8.0 min
Base peak: 197.0207
Precursor m/z: 197.0204
Precursor type: [M-H]-
m/z	relative intensity	assigned
63.0241	1	C5H3-
64.0193	13	C4H2N-
65.0146	5	C3HN2-
65.0397	24	C5H5-
65.9986	4	C3NO-
66.0349	2	C4H4N-
67.019	1	C4H3O-
68.9982	1	C3HO2-
78.035	1	C5H4N-
81.0347	5	C5H5O-
88.0192	8	C6H2N-
93.0346	22	C6H5O-
95.0136	1	C5H3O2-
109.0296	218	C6H5O2-
110.0247	10	C5H4NO2-
120.0218	1	C7H4O2-
121.0295	12	C7H5O2-
122.0249	13	C6H4NO2-
123.0327	63	C6H5NO2-
134.0248	1	C7H4NO2-
137.0244	506	C7H5O3-
138.0196	33	C6H4NO3-
139.0274	2	C6H5NO3-
140.0353	50	
150.0197	67	C7H4NO3-
151.0275	82	C7H5NO3-
166.0147	22	C7H4NO4-
167.0224	270	C7H5NO4-
180.0177	476	C7H4N2O4-
197.0204	999	C7H5N2O5-
212.0074	8	C7H4N2O6-
