Mass spectrum: Ecgonine-methyl-ester (EME); LC-ESI-QFT; MS2; CE: 30; R=35000; [M+H]+
Name: Ecgonine-methyl-ester (EME)
Name: Ecgonine methyl ester
Name: Methyl 3-hydroxy-8-methyl-8-azabicyclo[3.2.1]octane-4-carboxylate
Formula: C10H17NO3
Exact mass: 199.12084
SMILES: CN1C2CCC1C(C(C2)O)C(=O)OC
InChI: InChI=1S/C10H17NO3/c1-11-6-3-4-7(11)9(8(12)5-6)10(13)14-2/h6-9,12H,3-5H2,1-2H3
Instrument: Q Exactive Plus Orbitrap Thermo Scientific
Instrument type: LC-ESI-QFT
Ms type: MS2
Ion mode: POSITIVE
Ionization: ESI
Fragmentation mode: HCD
Collision energy: 30 (nominal)
Resolution: 35000
Column name: XBridge C18 3.5um, 2.1x50mm, Waters
Retention time: 0.8 min
Base peak: 200.1275
Precursor m/z: 200.1281
Precursor type: [M+H]+
m/z	relative intensity	assigned
82.0649	13	C5H8N+
100.0756	1	C5H10NO+
108.0806	1	C7H10N+
124.112	1	C8H14N+
150.0913	3	C9H12NO+
156.1018	3	C8H14NO2+
168.1017	9	C9H14NO2+
182.1174	265	C10H16NO2+
200.1279	999	C10H18NO3+
