Mass spectrum: Cefalexin; LC-ESI-QFT; MS2; CE: 90; R=35000; [M-H]-
Name: Cefalexin
Name: 7-[(2-amino-1-oxo-2-phenylethyl)amino]-3-methyl-8-oxo-5-thia-1-azabicyclo[4.2.0]oct-2-ene-2-carboxylic acid
Formula: C16H17N3O4S
Exact mass: 347.09398
SMILES: CC1=C(N2C(C(C2=O)NC(=O)C(C3=CC=CC=C3)N)SC1)C(=O)O
InChI: InChI=1S/C16H17N3O4S/c1-8-7-24-15-11(14(21)19(15)12(8)16(22)23)18-13(20)10(17)9-5-3-2-4-6-9/h2-6,10-11,15H,7,17H2,1H3,(H,18,20)(H,22,23)
Instrument: Q Exactive Orbitrap Thermo Scientific
Instrument type: LC-ESI-QFT
Ms type: MS2
Ion mode: NEGATIVE
Ionization: ESI
Fragmentation mode: HCD
Collision energy: 90 (nominal)
Resolution: 35000
Column name: XBridge C18 3.5um, 2.1x50mm, Waters
Retention time: 4.4 min
Base peak: 346.0868
Precursor m/z: 346.0867
Precursor type: [M-H]-
m/z	relative intensity	assigned
55.0189	69	C3H3O-
56.9804	129	C2HS-
57.9757	123	CNS-
58.9961	173	C2H3S-
59.9914	36	CH2NS-
60.9754	73	CHOS-
63.9625	11	O2S-
65.0145	192	C3HN2-
65.9985	116	C3NO-
66.035	29	C4H4N-
67.0302	28	C3H3N2-
68.0142	90	C3H2NO-
70.9835	202	C2HNS-
71.9913	152	C2H2NS-
72.0092	15	C2H2NO2-
72.9754	26	C2HOS-
72.9992	58	C2H3NS-
73.0118	89	C3H5S-
74.007	402	C2H4NS-
78.0349	14	C5H4N-
80.0506	38	C5H6N-
81.9757	26	C3NS-
82.0172	14	C3H2N2O-
83.9913	37	C3H2NS-
84.9992	53	C3H3NS-
86.0071	11	C3H4NS-
87.0275	16	C4H7S-
92.0506	13	C6H6N-
93.0459	83	C5H5N2-
96.0456	26	C5H6NO-
96.9993	9	C4H3NS-
97.9946	11	C3H2N2S-
98.007	13	C4H4NS-
99.9863	125	C3H2NOS-
100.0227	14	C4H6NS-
101.0397	42	C8H5-
102.035	47	C7H4N-
104.038	7	C6H4N2-
105.0459	100	C6H5N2-
106.0536	8	C6H6N2-
107.0615	999	C6H7N2-
108.0456	72	C6H6NO-
109.0772	115	C6H9N2-
110.0068	8	C5H4NS-
112.0406	79	C5H6NO2-
114.0386	27	C5H8NS-
116.0508	253	C8H6N-
117.0347	44	C8H5O-
119.0251	11	C6H3N2O-
121.0408	37	C6H5N2O-
121.077	10	C7H9N2-
122.0486	42	C6H6N2O-
123.0565	62	C6H7N2O-
124.0226	37	C6H6NS-
124.0405	7	C6H6NO2-
133.0408	10	C7H5N2O-
134.0612	10	C8H8NO-
135.0565	173	C7H7N2O-
140.0175	9	C6H6NOS-
140.0505	33	C10H6N-
141.0255	16	C6H7NOS-
142.0332	37	C6H8NOS-
143.0614	10	C9H7N2-
155.0617	28	C10H7N2-
156.0695	51	C10H8N2-
161.0353	12	C8H5N2O2-
168.0565	10	C10H6N3-
171.0566	7	C10H7N2O-
172.0406	9	C10H6NO2-
173.048	13	C10H7NO2-
173.072	200	C10H9N2O-
191.0616	98	C13H7N2-
199.0513	9	C11H7N2O2-
207.0928	131	C14H11N2-
208.0882	15	C13H10N3-
