Mass spectrum: Lansoprazole; LC-ESI-QFT; MS2; CE: 180; R=35000; [M+H]+
Name: Lansoprazole
Name: 2-[[3-methyl-4-(2,2,2-trifluoroethoxy)pyridin-2-yl]methylsulfinyl]-1H-benzimidazole
Formula: C16H14F3N3O2S
Exact mass: 369.07588
SMILES: Cc1c(ccnc1CS(=O)c2[nH]c3ccccc3n2)OCC(F)(F)F
InChI: InChI=1S/C16H14F3N3O2S/c1-10-13(20-7-6-14(10)24-9-16(17,18)19)8-25(23)15-21-11-4-2-3-5-12(11)22-15/h2-7H,8-9H2,1H3,(H,21,22)
Instrument: Q Exactive Plus Orbitrap Thermo Scientific
Instrument type: LC-ESI-QFT
Ms type: MS2
Ion mode: POSITIVE
Ionization: ESI
Fragmentation mode: HCD
Collision energy: 180 (nominal)
Resolution: 35000
Column name: XBridge C18 3.5um, 2.1x50mm, Waters
Retention time: 7.4 min
Base peak: 370.0829
Precursor m/z: 370.0832
Precursor type: [M+H]+
m/z	relative intensity	assigned
50.0151	146	C4H2+
51.023	201	C4H3+
52.0182	24	C3H2N+
52.0308	30	C4H4+
53.0022	94	C3HO+
53.0386	232	C4H5+
53.9975	17	C2NO+
54.0338	36	C3H4N+
54.0464	9	C4H6+
55.0179	17	C3H3O+
55.0416	2	C3H5N+
55.0542	2	C4H7+
56.0495	12	C3H6N+
57.0135	3	C3H2F+
57.9871	11	C2H2S+
58.9951	1	C2H3S+
62.0151	21	C5H2+
63.0229	134	C5H3+
64.0182	15	C4H2N+
64.0307	35	C5H4+
65.0386	999	C5H5+
66.0338	14	C4H4N+
66.0464	124	C5H6+
67.0416	142	C4H5N+
67.0542	56	C5H7+
67.9892	6	C3O2+
68.0131	4	C3H2NO+
68.0494	25	C4H6N+
68.9793	98	C3HS+
69.9871	133	C3H2S+
70.0288	7	C3H4NO+
70.0651	8	C4H8N+
70.995	12	C3H3S+
71.9902	15	C2H2NS+
72.0028	2	C3H4S+
75.0229	12	C6H3+
76.0181	7	C5H2N+
77.0385	129	CH4FN3+
78.0338	178	C5H4N+
78.0464	20	C6H6+
79.0416	68	C5H5N+
79.0542	334	C6H7+
80.0494	354	C5H6N+
81.0335	15	C5H5O+
81.0573	2	C5H7N+
81.0699	2	C6H9+
81.9872	13	C4H2S+
82.9949	14	C4H3S+
83.0292	3	C5H4F+
83.9903	2	C3H2NS+
84.0029	3	C4H4S+
89.0385	15	C7H5+
90.0338	15	C6H4N+
91.0417	105	C6H5N+
91.0543	7	C7H7+
92.0495	299	C6H6N+
93.0573	114	C6H7N+
94.0288	4	C5H4NO+
94.0652	27	C6H8N+
94.995	113	C5H3S+
95.0366	18	C5H5NO+
95.0491	368	C6H7O+
95.9903	15	C4H2NS+
96.0028	88	C5H4S+
96.0444	250	C5H6NO+
97.0106	39	C5H5S+
99.0138	6	C4H5NS+
102.0337	2	C7H4N+
104.0494	22	C7H6N+
105.0448	183	C6H5N2+
106.0651	640	C7H8N+
107.0729	79	C7H9N+
108.0807	85	C7H10N+
110.006	17	C5H4NS+
110.0601	58	C6H8NO+
111.0011	6	C4H3N2S+
111.0315	14	C5H5NO2+
112.0392	3	C5H6NO2+
117.0448	1	C7H5N2+
117.0571	2	C8H7N+
118.0525	9	C7H6N2+
119.0604	25	C7H7N2+
120.0446	15	C7H6NO+
122.0059	41	C6H4NS+
123.0137	38	C6H5NS+
127.0265	3	C3H7F2NS+
127.9926	10	C5H4O2S+
134.0059	1	C7H4NS+
136.0214	2	C7H6NS+
140.0496	2	C10H6N+
151.0088	7	C7H5NOS+
179.0605	2	C12H7N2+
