Mass spectrum: Ioxitalamic acid; LC-ESI-ITFT; MS2; CE: 75%; R=15000; [M+H]+
Name: Ioxitalamic acid
Name: 3-acetamido-5-(2-hydroxyethylcarbamoyl)-2,4,6-triiodo-benzoic acid
Formula: C12H11I3N2O5
Exact mass: 643.7802
SMILES: CC(=O)NC1=C(I)C(C(O)=O)=C(I)C(C(=O)NCCO)=C1I
InChI: InChI=1S/C12H11I3N2O5/c1-4(19)17-10-8(14)5(11(20)16-2-3-18)7(13)6(9(10)15)12(21)22/h18H,2-3H2,1H3,(H,16,20)(H,17,19)(H,21,22)
Instrument: LTQ Orbitrap XL Thermo Scientific
Instrument type: LC-ESI-ITFT
Ms type: MS2
Ion mode: POSITIVE
Ionization: ESI
Fragmentation mode: HCD
Collision energy: 75 % (nominal)
Resolution: 15000
Column name: XBridge C18 3.5um, 2.1x50mm, Waters
Retention time: 1.3 min
Base peak: 132.958
Precursor m/z: 644.7875
Precursor type: [M+H]+
m/z	relative intensity	assigned
105.0209	351	C6H3NO+
130.0291	68	C8H4NO+
131.0366	251	C8H5NO+
146.0238	78	C8H4NO2+
147.0315	384	C8H5NO2+
158.0237	120	C9H4NO2+
163.0263	196	C8H5NO3+
174.0185	197	C9H4NO3+
175.0266	116	C9H5NO3+
175.9116	66	C4HI+
195.9884	82	C7H2NO6+
204.9145	238	C5H2IO+
231.9255	585	C6H3INO+
232.9102	57	C6H2IO2+
245.941	203	C7H5INO+
257.9411	532	C8H5INO+
259.9203	121	C7H3INO2+
273.936	961	C8H5INO2+
301.9311	999	C9H5INO3+
