Mass spectrum: NOA407475; LC-ESI-QFT; MS2; CE: 180; R=35000; [M+H]+
Name: NOA407475
Name: 3-[(2-chloro-1,3-thiazol-5-yl)methyl]-5-methyl-1,3,5-oxadiazinan-4-imine
Name: 3-(2-chloro-thiazol-5-ylmethyl)-5-methyl-[1,3,5]oxadiazinan-4-ylideneamine
Formula: C8H11ClN4OS
Exact mass: 246.03421
SMILES: Clc2ncc(CN1COCN(C)C1=N)s2
InChI: InChI=1S/C8H11ClN4OS/c1-12-4-14-5-13(8(12)10)3-6-2-11-7(9)15-6/h2,10H,3-5H2,1H3
Instrument: Q Exactive Plus Orbitrap Thermo Scientific
Instrument type: LC-ESI-QFT
Ms type: MS2
Ion mode: POSITIVE
Ionization: ESI
Fragmentation mode: HCD
Collision energy: 180 (nominal)
Resolution: 35000
Column name: XBridge C18 3.5um, 2.1x50mm, Waters
Retention time: 2.3 min
Base peak: 247.0413
Precursor m/z: 247.0415
Precursor type: [M+H]+
m/z	relative intensity	assigned
54.0339	92	C3H4N+
55.0291	11	C2H3N2+
57.0448	392	C2H5N2+
57.9872	16	C2H2S+
58.995	76	C2H3S+
59.9665	261	COS+
60.984	5	C2H2Cl+
61.9792	390	CHClN+
68.9793	98	C3HS+
69.9747	27	C2NS+
69.9871	34	C3H2S+
70.995	999	C3H3S+
71.9902	30	C2H2NS+
72.0028	19	C3H4S+
75.9948	3	C2H3ClN+
78.9404	691	CClS+
87.9949	115	C3H3ClN+
95.9904	9	C4H2NS+
98.006	130	C4H4NS+
119.9671	20	C3H3ClNS+
131.9671	92	C4H3ClNS+
132.975	24	C4H4ClNS+
