Mass spectrum: Lamotrigine; LC-ESI-ITFT; MS2; CE: 35%; R=7500; [M+H]+
Name: Lamotrigine
Name: 6-(2,3-dichlorophenyl)-1,2,4-triazine-3,5-diamine
Formula: C9H7Cl2N5
Exact mass: 255.0079
SMILES: Cl-c(ccc1)c(Cl)c1-c(nnc2N)c(n2)N
InChI: InChI=1S/C9H7Cl2N5/c10-5-3-1-2-4(6(5)11)7-8(12)14-9(13)16-15-7/h1-3H,(H4,12,13,14,16)
Instrument: LTQ Orbitrap XL Thermo Scientific
Instrument type: LC-ESI-ITFT
Ms type: MS2
Ion mode: POSITIVE
Ionization: ESI
Fragmentation mode: CID
Collision energy: 35 % (nominal)
Resolution: 7500
Column name: XBridge C18 3.5um, 2.1x50mm, Waters
Retention time: 5.4 min
Base peak: 256.016
Precursor m/z: 256.0151
Precursor type: [M+H]+
m/z	relative intensity	assigned
122.9998	33	C7H4Cl+
150.0111	42	C8H5ClN+
151.0182	76	C8H6ClN+
158.9763	247	C7H5Cl2+
165.0214	215	C8H6ClN2+
166.0291	379	C8H7ClN2+
171.9715	134	C7H4Cl2N+
173.9871	172	C7H6Cl2N+
178.0169	20	C8H5ClN3+
179.0246	41	C8H6ClN3+
183.9715	126	C8H4Cl2N+
185.9872	444	C8H6Cl2N+
186.9825	205	C7H5Cl2N2+
193.0402	165	C9H8ClN3+
210.9824	642	C9H5Cl2N2+
213.9934	135	C8H6Cl2N3+
220.0384	521	C9H7ClN5+
221.0462	96	C9H8ClN5+
229.0045	83	C8H7Cl2N4+
256.0146	999	C9H8Cl2N5+
