Mass spectrum: Aminopyrine; LC-ESI-ITFT; MS2; CE: 60%; R=7500; [M+H]+
Name: Aminopyrine
Name: 4-(dimethylamino)-1,5-dimethyl-2-phenyl-3-pyrazolin-3-one
Formula: C13H17N3O
Exact mass: 231.1372
SMILES: c(ccc1N(N(C=2C)C)C(=O)C2N(C)C)cc1
InChI: InChI=1S/C13H17N3O/c1-10-12(14(2)3)13(17)16(15(10)4)11-8-6-5-7-9-11/h5-9H,1-4H3
Instrument: LTQ Orbitrap XL Thermo Scientific
Instrument type: LC-ESI-ITFT
Ms type: MS2
Ion mode: POSITIVE
Ionization: ESI
Fragmentation mode: HCD
Collision energy: 60 % (nominal)
Resolution: 7500
Column name: XBridge C18 3.5um, 2.1x50mm, Waters
Retention time: 2.6 min
Base peak: 232.1453
Precursor m/z: 232.1444
Precursor type: [M+H]+
m/z	relative intensity	assigned
56.0495	358	C3H6N+
58.0652	480	C3H8N+
70.0652	331	C4H8N+
72.0808	353	C4H10N+
82.0652	61	C5H8N+
83.0606	16	C4H7N2+
84.068	14	C4H8N2+
84.0808	76	C5H10N+
87.0915	13	C4H11N2+
96.0687	9	C5H8N2+
97.0761	999	C5H9N2+
98.0839	405	C5H10N2+
99.0917	66	C5H11N2+
106.0652	141	C7H8N+
111.0917	407	C6H11N2+
113.1074	348	C6H13N2+
118.0651	68	C8H8N+
123.0549	10	C6H7N2O+
132.0446	32	C8H6NO+
133.0759	10	C8H9N2+
146.0601	9	C9H8NO+
149.1075	29	C9H13N2+
159.0918	59	C10H11N2+
177.1027	30	C10H13N2O+
187.0858	9	C11H11N2O+
202.0985	8	C11H12N3O+
216.1126	11	C12H14N3O+
