Mass spectrum: Fexofenadine; LC-ESI-QFT; MS2; CE: 60; R=35000; [M-H]-
Name: Fexofenadine
Name: 2-[4-[1-hydroxy-4-[4-[hydroxy(diphenyl)methyl]-1-piperidinyl]butyl]phenyl]-2-methylpropanoic acid
Formula: C32H39NO4
Exact mass: 501.28791
SMILES: CC(C)(C1=CC=C(C=C1)C(CCCN2CCC(CC2)C(C3=CC=CC=C3)(C4=CC=CC=C4)O)O)C(=O)O
InChI: InChI=1S/C32H39NO4/c1-31(2,30(35)36)25-17-15-24(16-18-25)29(34)14-9-21-33-22-19-28(20-23-33)32(37,26-10-5-3-6-11-26)27-12-7-4-8-13-27/h3-8,10-13,15-18,28-29,34,37H,9,14,19-23H2,1-2H3,(H,35,36)
Instrument: Q Exactive Orbitrap Thermo Scientific
Instrument type: LC-ESI-QFT
Ms type: MS2
Ion mode: NEGATIVE
Ionization: ESI
Fragmentation mode: HCD
Collision energy: 60 (nominal)
Resolution: 35000
Column name: XBridge C18 3.5um, 2.1x50mm, Waters
Retention time: 8.2 min
Base peak: 500.2812
Precursor m/z: 500.2806
Precursor type: [M-H]-
m/z	relative intensity	assigned
82.0663	27	C5H8N-
83.0502	145	C5H7O-
84.0454	77	C4H6NO-
84.0818	39	C5H10N-
86.0611	62	C4H8NO-
92.0506	39	C6H6N-
93.035	6	C6H5O-
94.0663	9	C6H8N-
96.0455	25	C5H6NO-
98.0611	12	C5H8NO-
108.0455	56	C6H6NO-
110.0612	484	C6H8NO-
112.0768	313	C6H10NO-
119.0503	84	C8H7O-
120.0456	94	C7H6NO-
121.0294	42	C7H5O2-
124.0768	36	C7H10NO-
130.0423	164	C9H6O-
131.0503	12	C9H7O-
131.0866	9	C10H11-
133.0659	41	C9H9O-
134.0614	8	C8H8NO-
141.0709	14	C11H9-
143.0501	33	C10H7O-
144.058	192	C10H8O-
145.0659	592	C10H9O-
147.0815	168	C10H11O-
152.1078	37	C9H14NO-
154.1239	12	C9H16NO-
157.0658	335	C11H9O-
159.0815	385	C11H11O-
162.0928	48	C10H12NO-
168.0819	7	C12H10N-
169.0655	10	C12H9O-
170.0611	7	C11H8NO-
170.0975	113	C12H12N-
171.0815	52	C12H11O-
180.1032	85	C10H14NO2-
181.0659	13	C13H9O-
182.1179	11	C10H16NO2-
183.0815	11	C13H11O-
185.0846	126	C12H11NO-
186.0925	142	C12H12NO-
187.1129	51	C13H15O-
188.1081	999	C12H14NO-
190.0876	50	C11H12NO2-
228.139	11	C15H18NO-
230.1548	38	C15H20NO-
240.1397	56	C16H18NO-
256.1345	19	C16H18NO2-
258.1499	961	C16H20NO2-
360.2335	9	C25H30NO-
