Mass spectrum: Resmethrin; LC-ESI-QFT; MS2; CE: 30%; R=17500; [M+H]+
Name: Resmethrin
Name: (5-benzylfuran-3-yl)methyl 2,2-dimethyl-3-(2-methylprop-1-enyl)cyclopropane-1-carboxylate
Formula: C22H26O3
Exact mass: 338.1882
SMILES: CC(=CC1C(C1(C)C)C(=O)OCC2=COC(=C2)CC3=CC=CC=C3)C
InChI: InChI=1S/C22H26O3/c1-15(2)10-19-20(22(19,3)4)21(23)25-14-17-12-18(24-13-17)11-16-8-6-5-7-9-16/h5-10,12-13,19-20H,11,14H2,1-4H3
Instrument: Exploris 240 Orbitrap Thermo Scientific
Instrument type: LC-ESI-QFT
Ms type: MS2
Ion mode: POSITIVE
Ionization: ESI
Fragmentation mode: HCD
Collision energy: 30 % (nominal)
Resolution: 17500
Column name: XBridge C18 3.5um, 2.1x50mm, Waters
Retention time: 15.698 min
Base peak: 339.1952
Precursor m/z: 339.1955
Precursor type: [M+H]+
m/z	relative intensity	assigned
55.0543	7	C4H7+
69.0698	5	C5H9+
81.0701	9	C6H9+
83.049	8	C5H7O+
91.0542	133	C7H7+
95.0492	7	C6H7O+
95.0857	26	C7H11+
105.0335	10	C7H5O+
105.0698	5	C8H9+
107.0853	8	C8H11+
119.0853	13	C9H11+
121.101	109	C9H13+
123.1169	30	C9H15+
125.0596	12	C7H9O2+
128.0624	6	C10H8+
135.1168	37	C10H15+
139.1121	27	C9H15O+
141.0911	30	C8H13O2+
143.0854	168	C11H11+
149.0962	60	C10H13O+
159.1171	15	C12H15+
161.133	5	C12H17+
167.1064	51	C10H15O2+
171.0803	999	C12H11O+
173.0964	14	C12H13O+
173.1325	13	C13H17+
175.148	32	C13H19+
185.0958	18	C13H13O+
197.1326	15	C15H17+
199.1117	45	C14H15O+
203.1435	28	C14H19O+
205.1226	11	C13H17O2+
225.1275	56	C16H17O+
237.1268	25	C17H17O+
239.143	35	C17H19O+
247.1327	13	C15H19O3+
251.1425	31	C18H19O+
275.1796	9	C21H23+
293.1901	124	C21H25O+
321.1836	39	C22H25O2+
339.1954	102	C22H27O3+
