Mass spectrum: Mesosulfuron-methyl; LC-ESI-QFT; MS2; CE: 90; R=35000; [M-H]-
Name: Mesosulfuron-methyl
Name: 2-[(4,6-dimethoxypyrimidin-2-yl)carbamoylsulfamoyl]-4-(methanesulfonamidomethyl)benzoic acid methyl ester
Formula: C17H21N5O9S2
Exact mass: 503.07807
SMILES: O=C(Nc1nc(cc(OC)n1)OC)NS(=O)(=O)c2cc(CNS(C)(=O)=O)ccc2C(=O)OC
InChI: InChI=1S/C17H21N5O9S2/c1-29-13-8-14(30-2)20-16(19-13)21-17(24)22-33(27,28)12-7-10(9-18-32(4,25)26)5-6-11(12)15(23)31-3/h5-8,18H,9H2,1-4H3,(H2,19,20,21,22,24)
Instrument: Q Exactive Orbitrap Thermo Scientific
Instrument type: LC-ESI-QFT
Ms type: MS2
Ion mode: NEGATIVE
Ionization: ESI
Fragmentation mode: HCD
Collision energy: 90 (nominal)
Resolution: 35000
Column name: XBridge C18 3.5um, 2.1x50mm, Waters
Retention time: 8.9 min
Base peak: 502.0713
Precursor m/z: 502.0708
Precursor type: [M-H]-
m/z	relative intensity	assigned
61.9705	140	NOS-
63.9624	999	O2S-
65.0144	155	C3HN2-
65.9985	435	C3NO-
75.024	15	C6H3-
78.9733	56	HNO2S-
78.9859	293	CH3O2S-
82.0172	13	C3H2N2O-
89.0271	3	C6H3N-
90.0098	28	C4N3-
93.9968	69	CH4NO2S-
97.0408	3	C4H5N2O-
102.0348	11	C7H4N-
105.9604	25	CNO3S-
107.0125	213	C4HN3O-
108.0203	11	C4H2N3O-
109.0282	2	C4H3N3O-
116.0142	4	C7H2NO-
116.0376	1	C7H4N2-
117.022	2	C7H3NO-
118.0297	11	C7H4NO-
120.0091	3	C6H2NO2-
120.0453	2	C7H6NO-
122.036	120	C5H4N3O-
124.0514	4	C5H6N3O-
139.0387	54	C5H5N3O2-
145.0405	9	C8H5N2O-
146.0247	2	C8H4NO2-
154.0621	26	C6H8N3O2-
180.9839	69	C7H3NO3S-
181.9917	9	C7H4NO3S-
194.9996	40	C8H5NO3S-
209.0026	327	C8H5N2O3S-
211.0183	6	C8H7N2O3S-
