Mass spectrum: Fenthion-sulfoxide; LC-ESI-QFT; MS2; CE: 15; R=35000; [M+H]+
Name: Fenthion-sulfoxide
Name: Mesulfenos
Name: O,O-Dimethyl O-[3-methyl-4-(methylsulfinyl)phenyl] phosphorothioate
Formula: C10H15O4PS2
Exact mass: 294.01494
SMILES: CC1=C(C=CC(=C1)OP(=S)(OC)OC)S(=O)C
InChI: InChI=1S/C10H15O4PS2/c1-8-7-9(5-6-10(8)17(4)11)14-15(16,12-2)13-3/h5-7H,1-4H3
Instrument: Q Exactive Plus Orbitrap Thermo Scientific
Instrument type: LC-ESI-QFT
Ms type: MS2
Ion mode: POSITIVE
Ionization: ESI
Fragmentation mode: HCD
Collision energy: 15 (nominal)
Resolution: 35000
Column name: XBridge C18 3.5um, 2.1x50mm, Waters
Retention time: 7.4 min
Base peak: 295.0216
Precursor m/z: 295.0222
Precursor type: [M+H]+
m/z	relative intensity	assigned
105.0699	1	C8H9+
109.005	1	C2H6O3P+
124.9821	3	C2H6O2PS+
153.0363	1	C8H9OS+
201.0403	11	C9H13OS2+
217.0628	1	C9H14O4P+
232.0317	5	C9H13O3PS+
233.0394	2	C9H14O3PS+
262.9957	3	C9H12O3PS2+
264.0039	25	C9H13O3PS2+
278.0195	7	C10H15O3PS2+
279.9989	40	C9H13O4PS2+
295.0222	999	C10H16O4PS2+
