Mass spectrum: 4-chloro-N-methylaniline; LC-ESI-QFT; MS2; CE: 150; R=35000; [M+H]+
Name: 4-chloro-N-methylaniline
Formula: C7H8ClN
Exact mass: 141.03453
SMILES: CNC1=CC=C(C=C1)Cl
InChI: InChI=1S/C7H8ClN/c1-9-7-4-2-6(8)3-5-7/h2-5,9H,1H3
Instrument: Q Exactive Plus Orbitrap Thermo Scientific
Instrument type: LC-ESI-QFT
Ms type: MS2
Ion mode: POSITIVE
Ionization: ESI
Fragmentation mode: HCD
Collision energy: 150 (nominal)
Resolution: 35000
Column name: XBridge C18 3.5um, 2.1x50mm, Waters
Retention time: 5.0 min
Base peak: 142.0417
Precursor m/z: 142.0418
Precursor type: [M+H]+
m/z	relative intensity	assigned
50.0151	2	C4H2+
51.0229	1	C4H3+
52.0181	5	C3H2N+
53.0022	6	C3HO+
53.9974	1	C2NO+
54.0464	2	C4H6+
56.0494	2	C3H6N+
63.0229	26	C5H3+
64.0307	24	C5H4+
65.0385	999	C5H5+
66.0338	10	C4H4N+
67.0416	9	C4H5N+
72.9839	7	C3H2Cl+
74.0151	4	C6H2+
75.0229	14	C6H3+
76.0181	4	C5H2N+
77.0385	1	C6H5+
79.0542	4	C6H7+
84.9839	1	C4H2Cl+
87.9948	6	C3H3ClN+
90.0338	5	C6H4N+
91.0416	60	C6H5N+
92.0494	463	C6H6N+
95.049	1	C6H7O+
98.9996	48	C5H4Cl+
100.0074	365	C5H5Cl+
101.0026	3	C4H4ClN+
105.0447	2	C6H5N2+
106.0651	21	C7H8N+
110.06	31	C6H8NO+
111.9948	3	C5H3ClN+
126.0105	18	C6H5ClN+
127.0183	735	C6H6ClN+
