Mass spectrum: Trospium; LC-ESI-QFT; MS2; CE: 90; R=35000; [M]+
Name: Trospium
Name: spiro[8-azoniabicyclo[3.2.1]octane-8,1`-azolidin-1-ium]-3-yl 2-hydroxy-2,2-diphenylacetate
Formula: [C25H30NO3]+
Exact mass: 392.22257
SMILES: OC(C(=O)OC1CC2CCC(C1)[N+]21CCCC1)(C1=CC=CC=C1)C1=CC=CC=C1
InChI: InChI=1S/C25H30NO3/c27-24(25(28,19-9-3-1-4-10-19)20-11-5-2-6-12-20)29-23-17-21-13-14-22(18-23)26(21)15-7-8-16-26/h1-6,9-12,21-23,28H,7-8,13-18H2/q+1
Instrument: Q Exactive Orbitrap Thermo Scientific
Instrument type: LC-ESI-QFT
Ms type: MS2
Ion mode: POSITIVE
Ionization: ESI
Fragmentation mode: HCD
Collision energy: 90 (nominal)
Resolution: 35000
Column name: XBridge C18 3.5um, 2.1x50mm, Waters
Retention time: 6.1 min
Base peak: 392.2208
Precursor m/z: 392.222
Precursor type: [M]+
m/z	relative intensity	assigned
65.0384	11	
77.0383	10	
79.0539	5	C6H7+
81.0571	7	C5H7N+
81.0696	7	C6H9+
82.0649	10	C5H8N+
83.0727	1	C5H9N+
83.0853	5	C6H11+
84.0805	25	C5H10N+
91.0539	198	C7H7+
93.0695	292	C7H9+
94.0648	9	C6H8N+
95.0488	112	C6H7O+
95.0852	116	C7H11+
96.0804	58	C6H10N+
97.0883	169	C6H11N+
98.0961	121	C6H12N+
100.0753	5	C5H10NO+
105.0331	40	C7H5O+
105.0444	26	C6H5N2+
108.0804	34	C7H10N+
109.0882	4	C7H11N+
110.0961	41	C7H12N+
111.0801	9	C7H11O+
120.0804	17	C8H10N+
121.0882	1	C8H11N+
122.0959	63	C8H12N+
123.1038	22	C8H13N+
124.1118	5	C8H14N+
134.096	9	C9H12N+
135.1037	6	C9H13N+
136.1117	32	C9H14N+
137.1192	1	C9H15N+
138.1272	211	C9H16N+
150.127	8	C10H16N+
162.1274	1	C11H16N+
164.1429	297	C11H18N+
182.1534	999	C11H20NO+
183.0795	1	C13H11O+
