Mass spectrum: Diazinon; LC-ESI-ITFT; MS2; CE: 45%; R=15000; [M+H]+
Name: Diazinon
Name: diethoxy-(2-isopropyl-6-methyl-pyrimidin-4-yl)oxy-thioxo-phosphorane
Formula: C12H21N2O3PS
Exact mass: 304.1011
SMILES: O(c1nc(nc(c1)C)C(C)C)P(OCC)(OCC)=S
InChI: InChI=1S/C12H21N2O3PS/c1-6-15-18(19,16-7-2)17-11-8-10(5)13-12(14-11)9(3)4/h8-9H,6-7H2,1-5H3
Instrument: LTQ Orbitrap XL Thermo Scientific
Instrument type: LC-ESI-ITFT
Ms type: MS2
Ion mode: POSITIVE
Ionization: ESI
Fragmentation mode: HCD
Collision energy: 45 % (nominal)
Resolution: 15000
Column name: XBridge C18 3.5um, 2.1x50mm, Waters
Retention time: 13.0 min
Base peak: 305.1095
Precursor m/z: 305.1083
Precursor type: [M+H]+
m/z	relative intensity	assigned
84.0443	5	C4H6NO+
96.9508	141	H2O2PS+
98.9842	4	H4O4P+
100.0216	8	C4H6NS+
109.0049	15	C2H6O3P+
114.9614	114	H4O3PS+
124.9821	14	C2H6O2PS+
153.1023	569	C8H13N2O+
169.0795	999	C8H13N2S+
181.1335	28	C10H17N2O+
197.1105	4	C10H17N2S+
231.0352	4	C12H9NO2S+
249.0456	2	C8H14N2O3PS+
305.1085	33	C12H22N2O3PS+
