Mass spectrum: Aminocarb; LC-ESI-QFT; MS2; CE: 180%; R=17500; [M+H]+
Name: Aminocarb
Name: [4-(dimethylamino)-3-methylphenyl] N-methylcarbamate
Formula: C11H16N2O2
Exact mass: 208.1212
SMILES: CC1=C(C=CC(=C1)OC(=O)NC)N(C)C
InChI: InChI=1S/C11H16N2O2/c1-8-7-9(15-11(14)12-2)5-6-10(8)13(3)4/h5-7H,1-4H3,(H,12,14)
Instrument: Exploris 240 Orbitrap Thermo Scientific
Instrument type: LC-ESI-QFT
Ms type: MS2
Ion mode: POSITIVE
Ionization: ESI
Fragmentation mode: HCD
Collision energy: 180 % (nominal)
Resolution: 17500
Column name: XBridge C18 3.5um, 2.1x50mm, Waters
Retention time: 1.684 min
Base peak: 209.1283
Precursor m/z: 209.1285
Precursor type: [M+H]+
m/z	relative intensity	assigned
51.0229	264	C4H3+
53.0386	370	C4H5+
54.0339	123	C3H4N+
55.0179	230	C3H3O+
65.0386	225	C5H5+
67.0543	509	C5H7+
77.0386	876	C6H5+
79.0542	235	C6H7+
91.0542	116	C7H7+
93.0573	184	C6H7N+
94.0415	79	C6H6O+
94.0651	501	C6H8N+
95.0492	422	C6H7O+
105.0447	347	C6H5N2+
107.0491	346	C7H7O+
108.0568	187	C7H8O+
122.0601	999	C7H8NO+
136.0758	187	C8H10NO+
