Mass spectrum: Fenpropidin; LC-ESI-ITFT; MS2; CE: 90%; R=7500; [M+H]+
Name: Fenpropidin
Name: 1-[3-(4-tert-butylphenyl)-2-methyl-propyl]piperidine
Formula: C19H31N
Exact mass: 273.2457
SMILES: c1cc(ccc1CC(CN2CCCCC2)C)C(C)(C)C
InChI: InChI=1S/C19H31N/c1-16(15-20-12-6-5-7-13-20)14-17-8-10-18(11-9-17)19(2,3)4/h8-11,16H,5-7,12-15H2,1-4H3
Instrument: LTQ Orbitrap XL Thermo Scientific
Instrument type: LC-ESI-ITFT
Ms type: MS2
Ion mode: POSITIVE
Ionization: ESI
Fragmentation mode: HCD
Collision energy: 90 % (nominal)
Resolution: 7500
Column name: XBridge C18 3.5um, 2.1x50mm, Waters
Retention time: 9.5 min
Base peak: 274.253
Precursor m/z: 274.2529
Precursor type: [M+H]+
m/z	relative intensity	assigned
55.0542	4	C4H7+
57.0699	60	C4H9+
69.0699	21	C5H9+
79.0543	11	C6H7+
84.0808	34	C5H10N+
85.0886	4	C5H11N+
86.0964	355	C5H12N+
91.0542	96	C7H7+
93.07	12	C7H9+
98.0966	6	C6H12N+
103.0543	5	C8H7+
104.062	29	C8H8+
105.0698	402	C8H9+
107.0855	75	C8H11+
115.0547	3	C9H7+
116.0619	3	C9H8+
117.0699	387	C9H9+
119.0855	566	C9H11+
131.0855	43	C10H11+
132.0933	999	C10H12+
133.1012	2	C10H13+
145.1012	32	C11H13+
146.109	19	C11H14+
147.1168	798	C11H15+
159.117	16	C12H15+
161.1325	18	C12H17+
