Mass spectrum: Orphenadrine; LC-ESI-QFT; MS2; CE: 90; R=35000; [M+H]+
Name: Orphenadrine
Name: N,N-dimethyl-2-[(2-methylphenyl)-phenylmethoxy]ethanamine
Formula: C18H23NO
Exact mass: 269.17796
SMILES: CC1=CC=CC=C1C(C2=CC=CC=C2)OCCN(C)C
InChI: InChI=1S/C18H23NO/c1-15-9-7-8-12-17(15)18(20-14-13-19(2)3)16-10-5-4-6-11-16/h4-12,18H,13-14H2,1-3H3
Instrument: Q Exactive Plus Orbitrap Thermo Scientific
Instrument type: LC-ESI-QFT
Ms type: MS2
Ion mode: POSITIVE
Ionization: ESI
Fragmentation mode: HCD
Collision energy: 90 (nominal)
Resolution: 35000
Column name: XBridge C18 3.5um, 2.1x50mm, Waters
Retention time: 7.4 min
Base peak: 270.1849
Precursor m/z: 270.1852
Precursor type: [M+H]+
m/z	relative intensity	assigned
53.0386	5	C4H5+
77.0385	5	C6H5+
79.0542	3	C6H7+
91.0543	2	C7H7+
95.0491	9	C6H7O+
102.0464	1	C8H6+
103.0542	40	C8H7+
105.0447	5	C6H5N2+
115.0542	42	C9H7+
116.0621	3	C9H8+
128.062	2	C10H8+
129.0699	3	C10H9+
139.0538	2	C11H7+
141.0699	173	C11H9+
142.078	1	C11H10+
152.062	29	C12H8+
153.0698	40	C12H9+
164.0617	5	C13H8+
165.0699	999	C13H9+
166.0777	605	C13H10+
177.0697	1	C14H9+
178.0777	85	C14H10+
179.0855	81	C14H11+
180.0934	8	C14H12+
181.1011	11	C14H13+
183.0805	1	C13H11O+
193.0758	1	C13H9N2+
