Mass spectrum: Spirotetramat BYI08330-ketohydroxy; LC-ESI-QFT; MS2; CE: 30%; R=17500; [M+H]+
Name: Spirotetramat BYI08330-ketohydroxy
Name: 3-(2,5-Dimethylphenyl)-3-hydroxy-8-methoxy-1-azaspiro(4.5)decane-2,4-dione
Name: 3-(2,5-dimethylphenyl)-3-hydroxy-8-methoxy-1-azaspiro[4.5]decane-2,4-dione
Formula: C18H23NO4
Exact mass: 317.1627
SMILES: CC1=CC(=C(C=C1)C)C2(C(=O)C3(CCC(CC3)OC)NC2=O)O
InChI: InChI=1S/C18H23NO4/c1-11-4-5-12(2)14(10-11)18(22)15(20)17(19-16(18)21)8-6-13(23-3)7-9-17/h4-5,10,13,22H,6-9H2,1-3H3,(H,19,21)
Instrument: Exploris 240 Orbitrap Thermo Scientific
Instrument type: LC-ESI-QFT
Ms type: MS2
Ion mode: POSITIVE
Ionization: ESI
Fragmentation mode: HCD
Collision energy: 30 % (nominal)
Resolution: 17500
Column name: XBridge C18 3.5um, 2.1x50mm, Waters
Retention time: 7.435 min
Base peak: 318.1698
Precursor m/z: 318.17
Precursor type: [M+H]+
m/z	relative intensity	assigned
109.0649	2	C7H9O+
173.0592	5	C11H9O2+
214.0863	50	C13H12NO2+
225.1272	3	C16H17O+
240.1374	8	C16H18NO+
268.1332	322	C17H18NO2+
300.1593	999	C18H22NO3+
