Mass spectrum: Ecgonine-methyl-ester (EME); LC-ESI-QFT; MS2; CE: 75; R=35000; [M+H]+
Name: Ecgonine-methyl-ester (EME)
Name: Ecgonine methyl ester
Name: Methyl 3-hydroxy-8-methyl-8-azabicyclo[3.2.1]octane-4-carboxylate
Formula: C10H17NO3
Exact mass: 199.12084
SMILES: CN1C2CCC1C(C(C2)O)C(=O)OC
InChI: InChI=1S/C10H17NO3/c1-11-6-3-4-7(11)9(8(12)5-6)10(13)14-2/h6-9,12H,3-5H2,1-2H3
Instrument: Q Exactive Plus Orbitrap Thermo Scientific
Instrument type: LC-ESI-QFT
Ms type: MS2
Ion mode: POSITIVE
Ionization: ESI
Fragmentation mode: HCD
Collision energy: 75 (nominal)
Resolution: 35000
Column name: XBridge C18 3.5um, 2.1x50mm, Waters
Retention time: 0.8 min
Base peak: 200.1275
Precursor m/z: 200.1281
Precursor type: [M+H]+
m/z	relative intensity	assigned
53.0385	3	C4H5+
55.0178	2	C3H3O+
55.0541	3	C4H7+
56.0494	4	C3H6N+
57.0572	13	C3H7N+
58.0287	3	C2H4NO+
58.065	3	C3H8N+
59.0127	2	C2H3O2+
59.049	2	C3H7O+
65.0385	61	C5H5+
67.0416	18	C4H5N+
67.0541	20	C5H7+
68.0494	55	C4H6N+
69.0334	13	C4H5O+
70.065	20	C4H8N+
71.0126	4	C3H3O2+
71.0489	3	C4H7O+
76.0392	3	C2H6NO2+
77.0384	3	C6H5+
79.0541	51	C6H7+
80.0493	7	C5H6N+
81.0573	5	C5H7N+
81.0698	17	C6H9+
82.065	999	C5H8N+
83.0728	148	C5H9N+
84.0443	5	C4H6NO+
84.0807	38	C5H10N+
85.0646	1	C5H9O+
91.0542	141	C7H7+
93.0334	110	C6H5O+
93.0698	38	C7H9+
94.065	59	C6H8N+
95.049	5	C6H7O+
95.0728	8	C6H9N+
95.0854	1	C7H11+
96.0806	79	C6H10N+
97.0647	35	C6H9O+
99.044	1	C5H7O2+
100.0756	72	C5H10NO+
105.0447	3	C6H5N2+
105.0698	7	C8H9+
106.065	1	C7H8N+
107.049	3	C7H7O+
107.0728	9	C7H9N+
108.0806	84	C7H10N+
109.0647	8	C7H9O+
109.0885	1	C7H11N+
114.0912	4	C6H12NO+
117.0571	4	C8H7N+
118.0412	20	C8H6O+
119.0491	102	C8H7O+
120.0807	2	C8H10N+
121.0646	3	C8H9O+
122.0599	10	C7H8NO+
122.0963	79	C8H12N+
123.0803	4	C8H11O+
124.0756	9	C7H10NO+
124.112	20	C8H14N+
125.0596	14	C7H9O2+
126.0912	2	C7H12NO+
132.0807	10	C9H10N+
133.0645	2	C9H9O+
135.0677	9	C8H9NO+
138.0911	5	C8H12NO+
140.1068	5	C8H14NO+
150.0912	75	C9H12NO+
151.0753	5	C9H11O2+
152.0705	2	C8H10NO2+
154.0861	41	C8H12NO2+
156.1017	8	C8H14NO2+
164.107	1	C10H14NO+
168.1017	9	C9H14NO2+
182.1174	348	C10H16NO2+
200.1279	32	C10H18NO3+
