Mass spectrum: Spiramycin; LC-ESI-QFT; MS2; CE: 15; R=35000; [M+H]+
Name: Spiramycin
Name: 2-[(4R,5S,6S,7R,9R,10R,16R)-6-[4-(dimethylamino)-5-[4,6-dimethyl-4,5-bis(oxidanyl)oxan-2-yl]oxy-6-methyl-3-oxidanyl-oxan-2-yl]oxy-10-[5-(dimethylamino)-6-methyl-oxan-2-yl]oxy-5-methoxy-9,16-dimethyl-4-oxidanyl-2-oxidanylidene-1-oxacyclohexadeca-11,13-dien-7-yl]ethanal
Formula: C43H74N2O14
Exact mass: 842.51400
SMILES: O=CC[C@@H]4[C@H](OC2OC(C(OC1OC(C)C(O)C(O)(C)C1)C(N(C)C)C2O)C)[C@@H](OC)[C@H](O)CC(=O)O[C@H](C)C\C=C\C=C\[C@H](OC3OC(C)C(N(C)C)CC3)[C@H](C)C4
InChI: InChI=1S/C43H74N2O14/c1-24-21-29(19-20-46)39(59-42-37(49)36(45(9)10)38(27(4)56-42)58-35-23-43(6,51)41(50)28(5)55-35)40(52-11)31(47)22-33(48)53-25(2)15-13-12-14-16-32(24)57-34-18-17-30(44(7)8)26(3)54-34/h12-14,16,20,24-32,34-42,47,49-51H,15,17-19,21-23H2,1-11H3/b13-12+,16-14+/t24-,25-,26?,27?,28?,29+,30?,31-,32+,34?,35?,36?,37?,38?,39+,40+,41?,42?,43?/m1/s1
Instrument: Q Exactive Orbitrap Thermo Scientific
Instrument type: LC-ESI-QFT
Ms type: MS2
Ion mode: POSITIVE
Ionization: ESI
Fragmentation mode: HCD
Collision energy: 15 (nominal)
Resolution: 35000
Column name: XBridge C18 3.5um, 2.1x50mm, Waters
Retention time: 5.7 min
Base peak: 438.2777
Precursor m/z: 843.5213
Precursor type: [M+H]+
m/z	relative intensity	assigned
83.0491	4	C5H7O+
101.0597	8	C5H9O2+
127.0753	9	C7H11O2+
132.1017	3	C6H14NO2+
142.1226	47	C8H16NO+
145.0859	19	C7H13O3+
158.1174	1	C8H16NO2+
160.1331	2	C8H18NO2+
174.1124	90	C8H16NO3+
276.1807	2	C13H26NO5+
318.191	29	C15H28NO6+
349.2006	1	C20H29O5+
522.3055	5	C28H44NO8+
540.3166	28	C28H46NO9+
684.3943	16	C35H58NO12+
699.4423	27	C36H63N2O11+
843.5205	999	C43H75N2O14+
