Mass spectrum: Chloramphenicol; LC-ESI-QFT; MS2; CE: 75; R=35000; [M+H]+
Name: Chloramphenicol
Name: CLM
Name: 2,2-bis(chloranyl)-N-[(1R,2R)-1-(4-nitrophenyl)-1,3-bis(oxidanyl)propan-2-yl]ethanamide
Formula: C11H12Cl2N2O5
Exact mass: 322.01233
SMILES: c1cc(ccc1[C@H]([C@@H](CO)NC(=O)C(Cl)Cl)O)[N+](=O)[O-]
InChI: InChI=1S/C11H12Cl2N2O5/c12-10(13)11(18)14-8(5-16)9(17)6-1-3-7(4-2-6)15(19)20/h1-4,8-10,16-17H,5H2,(H,14,18)/t8-,9-/m1/s1
Instrument: Q Exactive Orbitrap Thermo Scientific
Instrument type: LC-ESI-QFT
Ms type: MS2
Ion mode: POSITIVE
Ionization: ESI
Fragmentation mode: HCD
Collision energy: 75 (nominal)
Resolution: 35000
Column name: XBridge C18 3.5um, 2.1x50mm, Waters
Retention time: 5.8 min
Base peak: 305.0091
Precursor m/z: 323.0196
Precursor type: [M+H]+
m/z	relative intensity	assigned
63.0228	1	C5H3+
63.9949	19	CH3ClN+
65.0386	10	C5H5+
66.0464	1	C5H6+
67.0417	1	C4H5N+
77.0385	1	C6H5+
78.0464	25	C6H6+
79.0542	3	C6H7+
80.0494	9	C5H6N+
80.0624	1	C6H8+
82.945	999	CHCl2+
89.0386	6	C7H5+
90.0464	13	C7H6+
91.0542	122	C7H7+
92.0494	10	C6H6N+
92.062	51	C7H8+
93.0572	1	C6H7N+
94.0651	5	C6H8N+
95.0491	2	C6H7O+
102.0464	23	C8H6+
103.0542	95	C8H7+
104.0495	9	C7H6N+
104.0621	23	C8H8+
105.0335	6	C7H5O+
105.0448	1	C6H5N2+
106.0412	2	C7H6O+
106.0651	21	C7H8N+
107.0493	8	C7H7O+
107.073	19	C7H9N+
108.057	2	C7H8O+
109.0648	1	C7H9O+
109.9559	6	C2H2Cl2N+
115.0542	109	C9H7+
116.0494	4	C8H6N+
117.0572	111	C8H7N+
118.0413	19	C8H6O+
118.0651	283	C8H8N+
119.0729	806	C8H9N+
120.0444	2	C7H6NO+
120.0569	31	C8H8O+
121.0521	9	C7H7NO+
122.0599	1	C7H8NO+
125.0152	14	C7H6Cl+
127.9664	11	C2H4Cl2NO+
128.0494	9	C9H6N+
128.0621	46	C10H8+
129.0445	1	C8H5N2+
129.0572	13	C9H7N+
130.0651	150	C9H8N+
131.0364	5	C8H5NO+
131.0492	76	C9H7O+
131.073	53	C9H9N+
132.057	88	C9H8O+
133.0285	2	C8H5O2+
134.06	53	C8H8NO+
135.0678	7	C8H9NO+
136.0395	1	C7H6NO2+
136.0759	13	C8H10NO+
137.0152	23	C8H6Cl+
137.0598	2	C8H9O2+
138.0231	34	C8H7Cl+
138.0549	10	C7H8NO2+
140.0495	1	C10H6N+
142.0652	29	C10H8N+
145.0522	61	C9H7NO+
145.0646	22	C10H9O+
146.0601	34	C9H8NO+
147.0551	8	C8H7N2O+
148.0393	5	C8H6NO2+
148.0631	51	C8H8N2O+
149.0153	51	C9H6Cl+
149.0472	37	C8H7NO2+
150.0231	26	C9H7Cl+
151.0628	252	C8H9NO2+
154.0179	6	C8H7ClO+
155.0604	18	C10H7N2+
157.0524	2	C10H7NO+
158.06	9	C10H8NO+
160.063	2	C9H8N2O+
161.0471	8	C9H7NO2+
162.0231	3	C10H7Cl+
162.055	2	C9H8NO2+
163.0307	16	C10H8Cl+
164.0261	321	C9H7ClN+
164.0577	22	C8H8N2O2+
165.0659	818	C8H9N2O2+
167.0257	1	C9H8ClO+
170.06	60	C11H8NO+
171.0676	1	C11H9NO+
175.0503	1	C9H7N2O2+
177.0214	5	C9H6ClN2+
177.042	53	C9H7NO3+
179.0132	6	C9H6ClNO+
184.0164	1	C5H10Cl2N2O+
192.0211	7	C10H7ClNO+
193.0287	4	C10H8ClNO+
206.0369	13	C11H9ClNO+
227.9976	46	C10H8Cl2NO+
229.0057	8	C10H9Cl2NO+
239.998	6	C11H8Cl2NO+
256.0041	5	C10H8Cl2N3O+
257.9959	72	C10H8Cl2N2O2+
258.0085	11	C11H10Cl2NO2+
259.9881	1	C10H8Cl2NO3+
