Mass spectrum: Flusilazole; LC-ESI-ITFT; MS2; CE: 45%; R=15000; [M+H]+
Name: Flusilazole
Name: bis(4-fluorophenyl)-methyl-(1,2,4-triazol-1-ylmethyl)silane
Formula: C16H15F2N3Si
Exact mass: 315.0998
SMILES: n1(cncn1)C[Si](c1ccc(F)cc1)(C)c1ccc(cc1)F
InChI: InChI=1S/C16H15F2N3Si/c1-22(12-21-11-19-10-20-21,15-6-2-13(17)3-7-15)16-8-4-14(18)5-9-16/h2-11H,12H2,1H3
Instrument: LTQ Orbitrap XL Thermo Scientific
Instrument type: LC-ESI-ITFT
Ms type: MS2
Ion mode: POSITIVE
Ionization: ESI
Fragmentation mode: HCD
Collision energy: 45 % (nominal)
Resolution: 15000
Column name: XBridge C18 3.5um, 2.1x50mm, Waters
Retention time: 12.4 min
Base peak: 316.1073
Precursor m/z: 316.1076
Precursor type: [M+H]+
m/z	relative intensity	assigned
61.0103	3	CH5OSi+
77.0385	103	C6H5+
79.001	62	CH4FOSi+
79.0543	5	C6H7+
80.9966	29	CH3F2Si+
91.0542	33	C7H7+
95.049	7	CH6FN3O+
99.0071	19	CH5F2OSi+
103.054	9	C3H6FN3+
105.0447	23	C6H5N2+
105.0698	67	C8H9+
109.0444	8	C2H5F2N3+
125.0217	7	C6H6FSi+
128.062	6	C10H8+
131.0603	6	C8H7N2+
141.0165	34	CH5F2N3OSi+
141.0698	33	C11H9+
149.0417	8	C8H9OSi+
151.0373	78	C8H8FSi+
152.062	45	C12H8+
153.0698	46	C7H8FN3+
155.0855	6	C12H11+
157.0278	26	C7H7F2Si+
165.0699	999	C13H9+
166.0776	232	C8H9FN3+
167.0324	4	C8H8FOSi+
169.0478	534	C3H9F2N3OSi+
171.0435	89	C8H9F2Si+
178.0775	15	C9H9FN3+
179.0854	34	C14H11+
181.0759	13	C12H9N2+
181.1014	9	C14H13+
183.0601	37	C8H7F2N3+
185.0759	191	C8H9F2N3+
193.0759	15	C13H9N2+
199.0374	13	C12H8FSi+
201.0736	5	C12H13OSi+
217.0283	3	C12H7F2Si+
217.0475	23	C15H9Si+
219.0433	117	C12H9F2Si+
220.0696	8	C10H11FN3Si+
227.0685	44	C9H11F2N3Si+
232.0513	20	C13H10F2Si+
235.0385	9	C15H8FSi+
237.0537	21	C15H10FSi+
245.0593	8	C14H11F2Si+
245.0788	27	C12H12FN3Si+
247.0746	305	C14H13F2Si+
249.0538	7	C16H10FSi+
265.0854	18	C12H13F2N3Si+
316.1074	71	C16H16F2N3Si+
