Mass spectrum: Thiamphenicol; LC-ESI-QFT; MS2; CE: 75; R=35000; [M+H]+
Name: Thiamphenicol
Name: 2,2-dichloro-N-[1,3-dihydroxy-1-(4-methylsulfonylphenyl)propan-2-yl]acetamide
Formula: C12H15Cl2NO5S
Exact mass: 355.00480
SMILES: CS(=O)(=O)C1=CC=C(C=C1)C(C(CO)NC(=O)C(Cl)Cl)O
InChI: InChI=1S/C12H15Cl2NO5S/c1-21(19,20)8-4-2-7(3-5-8)10(17)9(6-16)15-12(18)11(13)14/h2-5,9-11,16-17H,6H2,1H3,(H,15,18)
Instrument: Q Exactive Plus Orbitrap Thermo Scientific
Instrument type: LC-ESI-QFT
Ms type: MS2
Ion mode: POSITIVE
Ionization: ESI
Fragmentation mode: HCD
Collision energy: 75 (nominal)
Resolution: 35000
Column name: XBridge C18 3.5um, 2.1x50mm, Waters
Retention time: 3.7 min
Base peak: 373.0381
Precursor m/z: 356.0121
Precursor type: [M+H]+
m/z	relative intensity	assigned
51.0228	2	C4H3+
53.0386	2	C4H5+
55.0178	1	C3H3O+
62.9899	1	CH3OS+
63.0228	1	C5H3+
63.9949	19	CH3ClN+
65.0385	6	C5H5+
67.0542	1	C5H7+
74.0237	2	C2H4NO2+
77.0383	6	C6H5+
78.0465	5	C6H6+
78.9848	65	CH3O2S+
79.0543	8	C6H7+
80.013	1	C4H2NO+
82.945	807	CHCl2+
89.0385	1	C7H5+
91.0543	386	C7H7+
92.0621	57	C7H8+
93.0573	2	C6H7N+
93.07	8	C7H9+
94.0651	2	C6H8N+
95.0492	9	C6H7O+
102.0465	81	C8H6+
103.0543	252	C8H7+
104.0495	18	C7H6N+
104.0621	20	C8H8+
105.0336	5	C7H5O+
105.0448	5	C6H5N2+
105.0699	14	C8H9+
106.0652	4	C7H8N+
107.0492	51	C7H7O+
109.0106	2	C6H5S+
109.9559	14	C2H2Cl2N+
115.0543	156	C9H7+
116.0495	3	C8H6N+
116.0622	5	C9H8+
117.0574	34	C8H7N+
117.0698	4	C9H9+
118.0652	792	C8H8N+
119.0493	56	C8H7O+
119.073	999	C8H9N+
120.057	203	C8H8O+
120.0808	164	C8H10N+
121.0648	1	C8H9O+
127.0541	4	C10H7+
128.0495	88	C9H6N+
128.0621	61	C10H8+
129.0573	17	C9H7N+
130.0652	190	C9H8N+
131.0492	83	C9H7O+
131.073	54	C9H9N+
132.057	89	C9H8O+
134.06	41	C8H8NO+
134.0965	5	C9H12N+
137.0154	4	C8H6Cl+
138.0231	28	C8H7Cl+
140.0496	2	C10H6N+
141.0576	2	C10H7N+
142.0652	37	C10H8N+
143.0731	1	C10H9N+
145.0523	1	C9H7NO+
145.0649	14	C10H9O+
146.0601	152	C9H8NO+
149.0153	3	C9H6Cl+
150.0232	17	C9H7Cl+
151.0212	2	C8H7OS+
151.031	4	C9H8Cl+
151.0628	25	C8H9NO2+
155.0258	4	C8H8ClO+
155.0605	33	C4H13NO3S+
158.0601	21	C10H8NO+
159.0677	3	C10H9NO+
161.0472	5	C9H7NO2+
162.0232	2	C10H7Cl+
163.031	12	C10H8Cl+
164.0263	4	C9H7ClN+
165.01	4	C9H6ClO+
166.0323	1	C8H8NOS+
166.042	3	C9H9ClN+
167.0262	1	C6H11Cl2N+
169.0316	1	C8H9O2S+
170.0601	66	C11H8NO+
171.0679	3	C11H9NO+
176.0262	8	C10H7ClN+
177.0341	4	C10H8ClN+
181.0316	2	C9H9O2S+
182.0271	3	C8H8NO2S+
188.0263	4	C11H7ClN+
192.0208	1	C10H7ClNO+
194.0367	3	C10H9ClNO+
197.0507	10	C9H11NO2S+
198.0584	195	C9H12NO2S+
206.0368	9	C11H9ClNO+
208.0428	3	C10H10NO2S+
229.0057	16	C10H9Cl2NO+
