Mass spectrum: Eprosartan; LC-ESI-ITFT; MS2; CE: 30%; R=15000; [M-H]-
Name: Eprosartan
Name: 4-[[2-butyl-5-[(E)-3-hydroxy-3-keto-2-(2-thenyl)prop-1-enyl]imidazol-1-yl]methyl]benzoic acid
Formula: C23H24N2O4S
Exact mass: 424.1457
SMILES: CCCCC1=NC=C(N1CC2=CC=C(C=C2)C(=O)O)/C=C(\CC3=CC=CS3)/C(=O)O
InChI: InChI=1S/C23H24N2O4S/c1-2-3-6-21-24-14-19(12-18(23(28)29)13-20-5-4-11-30-20)25(21)15-16-7-9-17(10-8-16)22(26)27/h4-5,7-12,14H,2-3,6,13,15H2,1H3,(H,26,27)(H,28,29)/b18-12+
Instrument: LTQ Orbitrap XL Thermo Scientific
Instrument type: LC-ESI-ITFT
Ms type: MS2
Ion mode: NEGATIVE
Ionization: ESI
Fragmentation mode: HCD
Collision energy: 30 % (nominal)
Resolution: 15000
Column name: XBridge C18 3.5um, 2.1x50mm, Waters
Retention time: 6.2 min
Base peak: 423.1373
Precursor m/z: 423.1384
Precursor type: [M-H]-
m/z	relative intensity	assigned
97.0121	48	C5H5S-
135.0451	130	C8H7O2-
199.0586	249	C13H11S-
215.0642	94	C12H11N2S-
237.1397	347	C16H17N2-
244.1037	926	C14H16N2S-
245.1112	74	C14H17N2S-
281.1294	451	C17H17N2O2-
301.1697	43	C18H23NO3-
335.1583	733	C21H23N2S-
379.1485	999	C22H23N2O2S-
