Mass spectrum: Atenolol-desisopropyl; LC-ESI-ITFT; MS2; CE: 90%; R=30000; [M+H]+
Name: Atenolol-desisopropyl
Name: 4-(3-Amino-2-hydroxypropoxy)phenylacetamide
Formula: C11H16N2O3
Exact mass: 224.1161
SMILES: c1cc(ccc1CC(=O)N)OCC(CN)O
InChI: InChI=1S/C11H16N2O3/c12-6-9(14)7-16-10-3-1-8(2-4-10)5-11(13)15/h1-4,9,14H,5-7,12H2,(H2,13,15)
Instrument: LTQ Orbitrap XL Thermo Scientific
Instrument type: LC-ESI-ITFT
Ms type: MS2
Ion mode: POSITIVE
Ionization: ESI
Fragmentation mode: HCD
Collision energy: 90 % (nominal)
Resolution: 30000
Column name: XBridge C18 3.5um, 2.1x50mm, Waters
Retention time: 1.0 min
Base peak: 225.124
Precursor m/z: 225.1234
Precursor type: [M+H]+
m/z	relative intensity	assigned
56.0495	220	C3H6N+
74.06	428	C3H8NO+
77.0386	78	C6H5+
79.0542	194	C6H7+
89.0386	441	C7H5+
91.0542	558	C7H7+
93.0699	131	C7H9+
103.0542	62	C8H7+
105.0332	16	C7H5O+
105.0699	332	C8H9+
106.0651	276	C7H8N+
107.0491	645	C7H7O+
115.0542	284	C9H7+
116.0495	134	C8H6N+
117.0335	142	C8H5O+
117.0575	32	C8H7N+
117.0699	295	C9H9+
119.0491	138	C8H7O+
121.0648	133	C8H9O+
122.0601	27	C7H8NO+
131.049	32	C9H7O+
133.0648	748	C9H9O+
134.06	144	C8H8NO+
144.057	15	C10H8O+
144.0809	10	C10H10N+
145.0648	999	C10H9O+
147.044	25	C9H7O2+
155.0603	63	C10H7N2+
162.0661	60	C8H8N3O+
162.0916	11	C10H12NO+
