Mass spectrum: Linezolid; LC-ESI-QFT; MS2; CE: 15; R=35000; [M+H]+
Name: Linezolid
Name: N-[[(5S)-3-(3-fluoro-4-morpholin-4-ylphenyl)-2-oxo-1,3-oxazolidin-5-yl]methyl]acetamide
Formula: C16H20FN3O4
Exact mass: 337.14378
SMILES: CC(=O)NC[C@H]1CN(C(=O)O1)C2=CC(=C(C=C2)N3CCOCC3)F
InChI: InChI=1S/C16H20FN3O4/c1-11(21)18-9-13-10-20(16(22)24-13)12-2-3-15(14(17)8-12)19-4-6-23-7-5-19/h2-3,8,13H,4-7,9-10H2,1H3,(H,18,21)/t13-/m0/s1
Instrument: Q Exactive Orbitrap Thermo Scientific
Instrument type: LC-ESI-QFT
Ms type: MS2
Ion mode: POSITIVE
Ionization: ESI
Fragmentation mode: HCD
Collision energy: 15 (nominal)
Resolution: 35000
Column name: XBridge C18 3.5um, 2.1x50mm, Waters
Retention time: 5.6 min
Base peak: 338.1509
Precursor m/z: 338.1511
Precursor type: [M+H]+
m/z	relative intensity	assigned
195.0927	3	C10H12FN2O+
235.124	6	C13H16FN2O+
294.1607	5	C15H21FN3O2+
296.1404	36	C14H19FN3O3+
338.1508	999	C16H21FN3O4+
