Mass spectrum: Losartan; LC-ESI-QFT; MS2; CE: 15; R=35000; [M+H]+
Name: Losartan
Name: [2-butyl-5-chloranyl-3-[[4-[2-(2H-1,2,3,4-tetrazol-5-yl)phenyl]phenyl]methyl]imidazol-4-yl]methanol
Formula: C22H23ClN6O
Exact mass: 421.15436
SMILES: Clc1nc(n(c1CO)Cc4ccc(c2ccccc2c3[nH]nnn3)cc4)CCCC
InChI: InChI=1S/C22H23ClN6O/c1-2-3-8-20-24-21(23)19(14-30)29(20)13-15-9-11-16(12-10-15)17-6-4-5-7-18(17)22-25-27-28-26-22/h4-7,9-12,30H,2-3,8,13-14H2,1H3,(H,25,26,27,28)
Instrument: Q Exactive Plus Orbitrap Thermo Scientific
Instrument type: LC-ESI-QFT
Ms type: MS2
Ion mode: POSITIVE
Ionization: ESI
Fragmentation mode: HCD
Collision energy: 15 (nominal)
Resolution: 35000
Column name: XBridge C18 3.5um, 2.1x50mm, Waters
Retention time: 8.9 min
Base peak: 423.1691
Precursor m/z: 423.1695
Precursor type: [M+H]+
m/z	relative intensity	assigned
171.0683	25	C8H12ClN2+
178.0774	1	C14H10+
183.0682	1	C9H12ClN2+
189.0787	3	C8H14ClN2O+
192.0805	17	C14H10N+
195.0916	1	C13H11N2+
206.0965	1	C15H12N+
207.0916	281	C14H11N2+
235.0977	44	C14H11N4+
253.1081	1	C14H13N4O+
258.1025	5	C17H12N3+
294.0792	3	C17H13ClN3+
324.1494	2	C22H18N3+
341.176	35	C22H21N4+
362.1417	24	C22H21ClN3+
376.1452	1	C22H21ClN4+
377.1528	399	C22H22ClN4+
380.1529	2	C22H23ClN3O+
405.1588	999	C22H22ClN6+
