Mass spectrum: Losartan; LC-ESI-QFT; MS2; CE: 120; R=35000; [M+H]+
Name: Losartan
Name: [2-butyl-5-chloranyl-3-[[4-[2-(2H-1,2,3,4-tetrazol-5-yl)phenyl]phenyl]methyl]imidazol-4-yl]methanol
Formula: C22H23ClN6O
Exact mass: 421.15436
SMILES: Clc1nc(n(c1CO)Cc4ccc(c2ccccc2c3[nH]nnn3)cc4)CCCC
InChI: InChI=1S/C22H23ClN6O/c1-2-3-8-20-24-21(23)19(14-30)29(20)13-15-9-11-16(12-10-15)17-6-4-5-7-18(17)22-25-27-28-26-22/h4-7,9-12,30H,2-3,8,13-14H2,1H3,(H,25,26,27,28)
Instrument: Q Exactive Plus Orbitrap Thermo Scientific
Instrument type: LC-ESI-QFT
Ms type: MS2
Ion mode: POSITIVE
Ionization: ESI
Fragmentation mode: HCD
Collision energy: 120 (nominal)
Resolution: 35000
Column name: XBridge C18 3.5um, 2.1x50mm, Waters
Retention time: 8.9 min
Base peak: 423.1691
Precursor m/z: 423.1695
Precursor type: [M+H]+
m/z	relative intensity	assigned
50.0151	35	C4H2+
51.0229	33	C4H3+
52.0181	5	C3H2N+
53.0386	53	C4H5+
54.0338	28	C3H4N+
55.0179	1	C3H3O+
55.029	1	C2H3N2+
55.0542	20	C4H7+
57.0698	7	C4H9+
60.9839	20	C2H2Cl+
61.0072	2	C5H+
61.9792	7	CHClN+
62.0151	6	C5H2+
63.0228	31	C5H3+
65.0021	1	C4HO+
65.0385	16	C5H5+
66.0337	1	C4H4N+
66.0464	1	C5H6+
67.0416	4	C4H5N+
67.0542	8	C5H7+
74.015	6	C6H2+
74.9995	3	C3H4Cl+
75.0228	37	C6H3+
75.9947	1	C2H3ClN+
76.0181	2	C5H2N+
76.0306	2	C6H4+
77.0385	68	C6H5+
78.0338	21	C5H4N+
78.0464	6	C6H6+
79.0541	7	C6H7+
80.0494	63	C5H6N+
81.0335	5	C5H5O+
81.0698	1	C6H9+
82.0652	1	C5H8N+
84.0808	3	C5H10N+
86.0147	1	C7H2+
87.0229	9	C7H3+
87.9948	10	C3H3ClN+
88.0179	1	C6H2N+
88.0307	4	C7H4+
89.0027	17	C3H4ClN+
89.0385	58	C7H5+
90.0338	1	C6H4N+
90.0463	18	C7H6+
91.0542	15	C7H7+
93.0447	1	C5H5N2+
93.0572	6	C6H7N+
95.0491	130	C6H7O+
96.0443	20	C5H6NO+
99.0229	12	C8H3+
101.0386	9	C8H5+
102.0105	5	C4H5ClN+
102.0338	19	C7H4N+
102.0464	12	C8H6+
103.0541	16	C8H7+
104.0494	6	C7H6N+
105.0447	65	C6H5N2+
107.0603	12	C6H7N2+
108.0807	4	C7H10N+
111.0228	1	C9H3+
113.0385	79	C9H5+
114.0108	1	C5H5ClN+
114.0338	15	C8H4N+
114.0464	17	C9H6+
115.0542	143	C9H7+
116.0494	16	C8H6N+
117.0572	13	C8H7N+
118.0412	2	C8H6O+
119.0492	8	C8H7O+
120.0443	7	C7H6NO+
124.0302	1	C10H4+
125.0385	35	C10H5+
126.0464	57	C10H6+
127.0416	4	C9H5N+
127.0542	70	C10H7+
128.0494	56	C9H6N+
128.062	36	C10H8+
129.0447	35	C8H5N2+
129.0572	7	C9H7N+
130.04	33	C7H4N3+
130.065	3	C9H8N+
131.0608	1	C8H7N2+
132.0445	1	C8H6NO+
132.057	5	C9H8O+
137.0385	43	C11H5+
138.0339	6	C10H4N+
138.0464	47	C11H6+
139.0542	174	C11H7+
140.0494	250	C10H6N+
141.0212	13	C6H6ClN2+
141.0572	20	C10H7N+
141.0698	4	C11H9+
142.0292	24	C6H7ClN2+
142.0412	4	C10H6O+
143.0491	7	C10H7O+
145.0647	48	C10H9O+
146.06	14	C9H8NO+
149.0384	8	C12H5+
150.0464	216	C12H6+
151.0542	164	C12H7+
152.062	999	C12H8+
153.0446	5	C10H5N2+
153.0572	76	C11H7N+
153.0698	42	C12H9+
154.0651	28	C11H8N+
155.0501	13	C8H10ClN+
155.0603	89	C10H7N2+
156.0568	10	C11H8O+
157.0521	6	C10H7NO+
161.0385	7	C13H5+
162.0464	39	C13H6+
163.0542	299	C13H7+
164.0494	276	C12H6N+
164.0617	109	C13H8+
165.0575	40	C12H7N+
165.0698	440	C13H9+
166.0528	4	C11H6N2+
166.0651	79	C12H8N+
167.0491	5	C12H7O+
167.0728	15	C12H9N+
168.0569	40	C12H8O+
168.0685	3	C11H8N2+
169.0647	474	C12H9O+
170.0362	3	C8H9ClNO+
170.06	44	C11H8NO+
175.0417	4	C13H5N+
176.0495	5	C13H6N+
176.0619	30	C14H8+
177.0572	270	C13H7N+
178.0651	425	C13H8N+
179.0604	206	C12H7N2+
179.0726	121	C13H9N+
180.0557	9	C11H6N3+
180.0806	43	C13H10N+
181.0762	4	C12H9N2+
182.06	1	C12H8NO+
183.0551	2	C11H7N2O+
183.0682	6	C9H12ClN2+
183.0805	3	C13H11O+
185.0469	13	C8H10ClN2O+
187.0542	12	C15H7+
188.0494	97	C14H6N+
189.0572	31	C14H7N+
189.07	6	C15H9+
190.065	174	C14H8N+
191.0603	69	C13H7N2+
191.0726	13	C14H9N+
192.0681	38	C13H8N2+
193.0521	13	C13H7NO+
194.0363	5	C10H9ClNO+
194.0601	18	C13H8NO+
196.052	11	C10H11ClNO+
196.0756	131	C13H10NO+
201.0568	4	C15H7N+
202.0653	3	C15H8N+
203.0601	9	C14H7N2+
203.0728	4	C15H9N+
204.0556	16	C13H6N3+
204.0679	8	C14H8N2+
205.076	491	C14H9N2+
206.0835	2	C14H10N2+
207.0678	5	C14H9NO+
211.0627	3	C10H12ClN2O+
212.0493	13	C16H6N+
213.057	1	C16H7N+
214.0652	36	C16H8N+
215.0602	4	C15H7N2+
216.0805	1	C16H10N+
221.0475	7	C11H10ClN2O+
221.0708	5	C14H9N2O+
229.0761	4	C16H9N2+
239.0604	11	C17H7N2+
241.0762	4	C17H9N2+
