Mass spectrum: Norephedrine; LC-ESI-QFT; MS2; CE: 150; R=35000; [M+H]+
Name: Norephedrine
Name: Phenylpropanolamine
Name: 2-amino-1-phenylpropan-1-ol
Formula: C9H13NO
Exact mass: 151.09971
SMILES: CC(C(C1=CC=CC=C1)O)N
InChI: InChI=1S/C9H13NO/c1-7(10)9(11)8-5-3-2-4-6-8/h2-7,9,11H,10H2,1H3
Instrument: Q Exactive Plus Orbitrap Thermo Scientific
Instrument type: LC-ESI-QFT
Ms type: MS2
Ion mode: POSITIVE
Ionization: ESI
Fragmentation mode: HCD
Collision energy: 150 (nominal)
Resolution: 35000
Column name: XBridge C18 3.5um, 2.1x50mm, Waters
Retention time: 2.4 min
Base peak: 152.1067
Precursor m/z: 152.107
Precursor type: [M+H]+
m/z	relative intensity	assigned
50.0152	11	C4H2+
51.023	28	C4H3+
53.0022	10	C3HO+
53.0386	13	C4H5+
53.9975	1	C2NO+
56.0495	15	C3H6N+
57.0335	1	C3H5O+
57.0573	7	C3H7N+
62.0152	3	C5H2+
63.023	41	C5H3+
65.0386	436	C5H5+
67.9893	1	C3O2+
74.0152	1	C6H2+
75.0229	5	C6H3+
76.0307	1	C6H4+
77.0386	37	C6H5+
78.0464	12	C6H6+
79.0542	8	C6H7+
80.0496	1	C5H6N+
81.0335	1	C5H5O+
89.0386	113	C7H5+
90.0465	3	C7H6+
91.0543	999	C7H7+
92.062	5	C7H8+
93.0574	5	C6H7N+
95.0492	40	C6H7O+
102.0465	10	C8H6+
103.0541	1	C8H7+
104.0495	58	C7H6N+
105.0448	30	C6H5N2+
105.0699	1	C8H9+
114.0464	2	C9H6+
115.0543	608	C9H7+
116.0621	27	C9H8+
117.0573	22	C8H7N+
117.0699	5	C9H9+
118.0652	117	C8H8N+
119.073	7	C8H9N+
