Mass spectrum: Iprovalicarb; LC-ESI-ITFT; MS2; CE: 30%; R=7500; [M+H]+
Name: Iprovalicarb
Name: Isopropyl (3-methyl-1-{[(1S)-1-(4-methylphenyl)ethyl]amino}-1-oxo-2-butanyl)carbamate
Formula: C18H28N2O3
Exact mass: 320.2100
SMILES: CC(C)OC(=O)NC(C(=O)N[C@@H](C)c1ccc(C)cc1)C(C)C
InChI: InChI=1S/C18H28N2O3/c1-11(2)16(20-18(22)23-12(3)4)17(21)19-14(6)15-9-7-13(5)8-10-15/h7-12,14,16H,1-6H3,(H,19,21)(H,20,22)/t14-,16?/m0/s1
Instrument: LTQ Orbitrap XL Thermo Scientific
Instrument type: LC-ESI-ITFT
Ms type: MS2
Ion mode: POSITIVE
Ionization: ESI
Fragmentation mode: HCD
Collision energy: 30 % (nominal)
Resolution: 7500
Column name: XBridge C18 3.5um, 2.1x50mm, Waters
Retention time: 11.4 min
Base peak: 321.2181
Precursor m/z: 321.2173
Precursor type: [M+H]+
m/z	relative intensity	assigned
55.0542	1	C4H7+
72.0808	22	C4H10N+
91.0541	4	C7H7+
98.0601	61	C5H8NO+
114.128	1	C7H16N+
116.0707	212	C5H10NO2+
117.0699	7	C9H9+
117.1023	25	C5H13N2O+
119.0854	999	C9H11+
120.0895	1	C4H12N2O2+
144.0656	18	C6H10NO3+
158.1176	8	C8H16NO2+
186.1126	5	C9H16NO3+
203.1438	6	C14H19O+
235.1811	1	C14H23N2O+
