Mass spectrum: Carbamazepine; LC-ESI-ITFT; MS2; CE: 75%; R=7500; [M+H]+
Name: Carbamazepine
Name: 5H-Dibenz[b,f]azepine-5-carboxamide
Name: 11-benzo[b][1]benzazepinecarboxamide
Formula: C15H12N2O
Exact mass: 236.0950
SMILES: N1(c2c(cccc2)C=Cc2c1cccc2)C(N)=O
InChI: InChI=1S/C15H12N2O/c16-15(18)17-13-7-3-1-5-11(13)9-10-12-6-2-4-8-14(12)17/h1-10H,(H2,16,18)
Instrument: LTQ Orbitrap XL Thermo Scientific
Instrument type: LC-ESI-ITFT
Ms type: MS2
Ion mode: POSITIVE
Ionization: ESI
Fragmentation mode: HCD
Collision energy: 75 % (nominal)
Resolution: 7500
Column name: XBridge C18 3.5um, 2.1x50mm, Waters
Retention time: 7.8 min
Base peak: 237.1026
Precursor m/z: 237.1022
Precursor type: [M+H]+
m/z	relative intensity	assigned
91.0541	5	C7H7+
116.0495	10	C8H6N+
117.0575	4	C8H7N+
152.0614	14	C12H8+
165.0698	54	C13H9+
166.0775	4	C13H10+
167.0726	15	C12H9N+
167.0854	34	C13H11+
176.0625	3	C14H8+
177.0695	17	C14H9+
178.0777	7	C14H10+
179.0727	125	C13H9N+
190.0651	10	C14H8N+
191.0731	27	C14H9N+
192.0807	342	C14H10N+
193.0883	281	C14H11N+
194.0962	999	C14H12N+
