Mass spectrum: Benzophenone-3; LC-ESI-ITFT; MS2; CE: 75%; R=15000; [M+H]+
Name: Benzophenone-3
Name: 2-Hydroxy-4-methoxybenzophenone
Name: (2-hydroxy-4-methoxy-phenyl)-phenyl-methanone
Formula: C14H12O3
Exact mass: 228.0786
SMILES: c1(C(c2ccccc2)=O)c(cc(OC)cc1)O
InChI: InChI=1S/C14H12O3/c1-17-11-7-8-12(13(15)9-11)14(16)10-5-3-2-4-6-10/h2-9,15H,1H3
Instrument: LTQ Orbitrap XL Thermo Scientific
Instrument type: LC-ESI-ITFT
Ms type: MS2
Ion mode: POSITIVE
Ionization: ESI
Fragmentation mode: HCD
Collision energy: 75 % (nominal)
Resolution: 15000
Column name: XBridge C18 3.5um, 2.1x50mm, Waters
Retention time: 12.1 min
Base peak: 229.0859
Precursor m/z: 229.0859
Precursor type: [M+H]+
m/z	relative intensity	assigned
51.0228	1	C4H3+
53.0385	20	C4H5+
55.0177	1	C3H3O+
65.0385	9	C5H5+
67.0542	8	C5H7+
68.9971	3	C3HO2+
77.0386	43	C6H5+
79.0179	1	C5H3O+
80.0257	3	C5H4O+
81.0335	4	C5H5O+
93.0334	1	C6H5O+
95.0491	225	C6H7O+
105.0335	416	C7H5O+
105.0446	39	C6H5N2+
108.0206	40	C6H4O2+
110.0357	1	C6H6O2+
121.0396	4	C6H5N2O+
123.0441	36	C7H7O2+
136.0155	5	C7H4O3+
140.0621	1	C11H8+
141.0544	2	C7H9O3+
151.0389	999	C8H7O3+
152.062	1	C12H8+
168.0571	7	C12H8O+
