Mass spectrum: Efavirenz; LC-ESI-QFT; MS2; CE: 60; R=35000; [M-H]-
Name: Efavirenz
Name: (4S)-6-chloro-4-(2-cyclopropylethynyl)-4-(trifluoromethyl)-1H-3,1-benzoxazin-2-one
Formula: C14H9ClF3NO2
Exact mass: 315.02739
SMILES: C1CC1C#C[C@]2(C3=C(C=CC(=C3)Cl)NC(=O)O2)C(F)(F)F
InChI: InChI=1S/C14H9ClF3NO2/c15-9-3-4-11-10(7-9)13(14(16,17)18,21-12(20)19-11)6-5-8-1-2-8/h3-4,7-8H,1-2H2,(H,19,20)/t13-/m0/s1
Instrument: Q Exactive Orbitrap Thermo Scientific
Instrument type: LC-ESI-QFT
Ms type: MS2
Ion mode: NEGATIVE
Ionization: ESI
Fragmentation mode: HCD
Collision energy: 60 (nominal)
Resolution: 35000
Column name: XBridge C18 3.5um, 2.1x50mm, Waters
Retention time: 12.9 min
Base peak: 314.0206
Precursor m/z: 314.0201
Precursor type: [M-H]-
m/z	relative intensity	assigned
65.0397	19	C5H5-
68.9958	999	CF3-
90.0349	5	C6H4N-
91.0189	3	C6H3O-
108.0255	1	C6H3FN-
116.0143	4	C7H2NO-
120.9907	4	C4F3O-
123.9962	1	C6H3ClN-
138.0348	2	C10H4N-
147.996	2	C8H3ClN-
151.9909	9	C7H3ClNO-
152.0505	4	C11H6N-
162.0351	3	C12H4N-
164.0508	5	C12H6N-
166.0297	5	C11H4NO-
170.0609	4	C11H8NO-
174.0114	1	C10H5ClN-
174.0349	4	C13H4N-
179.0377	1	C12H5NO-
180.0457	8	C12H6NO-
188.9986	1	C13HO2-
190.0301	2	C13H4NO-
194.0409	1	C13H5FN-
198.0117	9	C12H5ClN-
198.0563	1	C12H8NO2-
199.0198	2	C12H4FO2-
200.0273	8	C12H7ClN-
202.0067	11	C11H5ClNO-
206.0223	11	C11H3F3N-
208.0405	19	C13H6NO2-
210.0114	4	C13H5ClN-
215.0145	8	C12H6ClNO-
216.0222	7	C12H7ClNO-
218.0012	3	C11H5ClNO2-
221.9928	34	C11H3ClF2N-
226.0068	8	C13H5ClNO-
241.9991	14	C11H4ClF3N-
244.0171	11	C13H7ClNO2-
246.0126	2	C13H6ClFNO-
249.0157	1	C13H6ClF2N-
250.0239	2	C13H7ClF2N-
