Mass spectrum: Cocaine; LC-ESI-ITFT; MS2; CE: 60%; R=7500; [M+H]+
Name: Cocaine
Name: (1S,3S,4R,5R)-3-benzoyloxy-8-methyl-8-azabicyclo[3.2.1]octane-4-carboxylic acid methyl ester
Formula: C17H21NO4
Exact mass: 303.1471
SMILES: CN1C2CCC1C(C(C2)OC(=O)C3=CC=CC=C3)C(=O)OC
InChI: InChI=1S/C17H21NO4/c1-18-12-8-9-13(18)15(17(20)21-2)14(10-12)22-16(19)11-6-4-3-5-7-11/h3-7,12-15H,8-10H2,1-2H3/t12-,13+,14-,15+/m0/s1
Instrument: LTQ Orbitrap XL Thermo Scientific
Instrument type: LC-ESI-ITFT
Ms type: MS2
Ion mode: POSITIVE
Ionization: ESI
Fragmentation mode: HCD
Collision energy: 60 % (nominal)
Resolution: 7500
Column name: XBridge C18 3.5um, 2.1x50mm, Waters
Retention time: 5.0 min
Base peak: 304.1557
Precursor m/z: 304.1543
Precursor type: [M+H]+
m/z	relative intensity	assigned
65.0386	31	C5H5+
67.0542	6	C5H7+
68.0495	29	C4H6N+
70.0653	10	C4H8N+
77.0386	43	C6H5+
79.0543	21	C6H7+
81.0699	15	C6H9+
82.0652	501	C5H8N+
83.073	50	C5H9N+
91.0542	133	C7H7+
93.0335	40	C6H5O+
93.07	37	C7H9+
94.065	25	C6H8N+
96.0808	37	C6H10N+
97.0648	11	C6H9O+
105.0335	538	C7H5O+
107.0491	6	C7H7O+
107.0727	6	C7H9N+
108.0809	143	C7H10N+
118.0415	19	C8H6O+
119.0491	147	C8H7O+
122.0965	119	C8H12N+
125.0593	18	C7H9O2+
132.0804	13	C9H10N+
135.0683	11	C8H9NO+
150.0913	229	C9H12NO+
151.0751	13	C9H11O2+
154.0862	60	C8H12NO2+
182.1176	999	C10H16NO2+
