Mass spectrum: Metconazole; LC-ESI-QFT; MS2; CE: 75; R=35000; [M+H]+
Name: Metconazole
Name: 5-(4-chlorobenzyl)-2,2-dimethyl-1-(1,2,4-triazol-1-ylmethyl)cyclopentanol
Formula: C17H22ClN3O
Exact mass: 319.14514
SMILES: Clc1ccc(cc1)CC2C(O)(C(CC2)(C)C)Cn3ncnc3
InChI: InChI=1S/C17H22ClN3O/c1-16(2)8-7-14(9-13-3-5-15(18)6-4-13)17(16,22)10-21-12-19-11-20-21/h3-6,11-12,14,22H,7-10H2,1-2H3
Instrument: Q Exactive Orbitrap Thermo Scientific
Instrument type: LC-ESI-QFT
Ms type: MS2
Ion mode: POSITIVE
Ionization: ESI
Fragmentation mode: HCD
Collision energy: 75 (nominal)
Resolution: 35000
Column name: XBridge C18 3.5um, 2.1x50mm, Waters
Retention time: 13.8 min
Base peak: 320.1528
Precursor m/z: 320.1524
Precursor type: [M+H]+
m/z	relative intensity	assigned
59.0493	6	C3H7O+
67.0543	5	C5H7+
69.07	2	C5H9+
70.04	999	C2H4N3+
81.07	1	C6H9+
89.0386	7	C7H5+
91.0542	2	C7H7+
93.0699	2	C7H9+
95.0856	10	C7H11+
98.9997	2	C5H4Cl+
103.0543	4	C8H7+
107.0856	1	C8H11+
115.0542	5	C9H7+
116.0621	4	C9H8+
125.0153	187	C7H6Cl+
128.062	4	C10H8+
129.07	1	C10H9+
139.0309	4	C8H8Cl+
141.0698	2	C11H9+
142.0778	11	C11H10+
151.0309	4	C9H8Cl+
155.0603	1	C10H7N2+
156.0935	1	C12H12+
163.0307	3	C10H8Cl+
177.0467	4	C11H10Cl+
