Mass spectrum: Chlorothalonil-TP R471811; LC-ESI-QFT; MS2; CE: 60%; R=17500; [M+H]+
Name: Chlorothalonil-TP R471811
Name: 2,4-dicarbamoyl-3,5,6-trichlorobenzenesulfonic acid
Formula: C8H5Cl3N2O5S
Exact mass: 345.8985
SMILES: NC(=O)C1=C(Cl)C(C(N)=O)=C(C(Cl)=C1Cl)S(O)(=O)=O
InChI: InChI=1S/C8H5Cl3N2O5S/c9-3-1(7(12)14)4(10)5(11)6(19(16,17)18)2(3)8(13)15/h(H2,12,14)(H2,13,15)(H,16,17,18)
Instrument: Q Exactive Plus Orbitrap Thermo Scientific
Instrument type: LC-ESI-QFT
Ms type: MS2
Ion mode: POSITIVE
Ionization: ESI
Fragmentation mode: HCD
Collision energy: 60 % (nominal)
Resolution: 17500
Column name: XBridge C18 3.5um, 2.1x50mm, Waters
Retention time: 1.062 min
Base peak: 346.906
Precursor m/z: 346.9058
Precursor type: [M+H]+
m/z	relative intensity	assigned
62.9632	9	CClO+
72.9841	24	C3H2Cl+
82.9449	14	CHCl2+
86.9633	28	C3ClO+
101.9742	19	C3HClNO+
106.9449	101	C3HCl2+
118.9449	36	C4HCl2+
128.9738	59	C5H2ClO2+
130.9448	74	C5HCl2+
140.9737	22	C6H2ClO2+
145.956	28	C5H2Cl2N+
146.9403	30	C2H4Cl3N+
157.9556	13	C6H2Cl2N+
158.9397	42	C6HCl2O+
159.9477	20	C6H2Cl2O+
166.9217	999	C5H2Cl3+
173.9512	74	C3H5Cl3N2+
174.9352	37	C3H4Cl3NO+
185.9505	8	C7H2Cl2NO+
186.9347	326	C7HCl2O2+
191.9175	16	C6HCl3N+
192.9007	11	C6Cl3O+
194.9163	30	C6H2Cl3O+
201.9456	22	C7H2Cl2NO2+
203.9169	10	C7HCl3N+
204.9011	312	C7Cl3O+
204.9438	12	
221.9274	201	C7H3Cl3NO+
222.9115	589	C7H2Cl3O2+
229.9408	100	C8H2Cl2NO3+
248.8915	24	C8Cl3O3+
265.9177	8	C8H3Cl3NO3+
266.9016	107	C8H2Cl3O4+
312.853	50	C8Cl3O5S+
