Mass spectrum: Mycophenolic acid; LC-ESI-ITFT; MS2; CE: 45%; R=7500; [M+H]+
Name: Mycophenolic acid
Name: (E)-6-(4-hydroxy-3-keto-6-methoxy-7-methyl-phthalan-5-yl)-4-methyl-hex-4-enoic acid
Formula: C17H20O6
Exact mass: 320.1260
SMILES: c12c(c(c(C\C=C(\CCC(O)=O)C)c(c1C)OC)O)C(=O)OC2
InChI: InChI=1S/C17H20O6/c1-9(5-7-13(18)19)4-6-11-15(20)14-12(8-23-17(14)21)10(2)16(11)22-3/h4,20H,5-8H2,1-3H3,(H,18,19)/b9-4+
Instrument: LTQ Orbitrap XL Thermo Scientific
Instrument type: LC-ESI-ITFT
Ms type: MS2
Ion mode: POSITIVE
Ionization: ESI
Fragmentation mode: HCD
Collision energy: 45 % (nominal)
Resolution: 7500
Column name: XBridge C18 3.5um, 2.1x50mm, Waters
Retention time: 9.9 min
Base peak: 321.1329
Precursor m/z: 321.1333
Precursor type: [M+H]+
m/z	relative intensity	assigned
79.054	1	C6H7+
81.0699	7	C6H9+
91.0541	3	C7H7+
97.0644	1	C6H9O+
103.054	1	C8H7+
109.0648	4	C7H9O+
131.0488	1	C9H7O+
135.0808	3	C9H11O+
159.0439	59	C10H7O2+
175.0752	3	C11H11O2+
177.0546	12	C10H9O3+
179.0704	1	C10H11O3+
195.0652	38	C10H11O4+
207.0651	999	C11H11O4+
215.1067	4	C14H15O2+
219.065	5	C12H11O4+
221.0815	3	C12H13O4+
223.0603	7	C11H11O5+
233.0805	1	C13H13O4+
239.1061	2	C16H15O2+
241.1234	1	C16H17O2+
247.0971	2	C14H15O4+
259.0961	4	C15H15O4+
261.112	8	C15H17O4+
275.1277	34	C16H19O4+
285.1122	26	C17H17O4+
303.1231	11	C17H19O5+
