Mass spectrum: TCMTB (Busan); LC-ESI-QFT; MS2; CE: 120%; R=17500; [M+H]+
Name: TCMTB (Busan)
Name: 2-(Thiocyanomethylthio)benzothiazole
Name: 1,3-benzothiazol-2-ylsulfanylmethyl thiocyanate
Formula: C9H6N2S3
Exact mass: 237.9693
SMILES: C1=CC=C2C(=C1)N=C(S2)SCSC#N
InChI: InChI=1S/C9H6N2S3/c10-5-12-6-13-9-11-7-3-1-2-4-8(7)14-9/h1-4H,6H2
Instrument: Exploris 240 Orbitrap Thermo Scientific
Instrument type: LC-ESI-QFT
Ms type: MS2
Ion mode: POSITIVE
Ionization: ESI
Fragmentation mode: HCD
Collision energy: 120 % (nominal)
Resolution: 17500
Column name: XBridge C18 3.5um, 2.1x50mm, Waters
Retention time: 8.597 min
Base peak: 238.9763
Precursor m/z: 238.9766
Precursor type: [M+H]+
m/z	relative intensity	assigned
51.0229	87	C4H3+
53.0386	45	C4H5+
63.0229	17	C5H3+
63.9436	24	S2+
65.0385	348	C5H5+
68.9795	31	C3HS+
71.9902	154	C2H2NS+
77.0385	359	C6H5+
89.0386	160	C7H5+
91.0416	61	C6H5N+
96.0029	48	C5H4S+
103.0418	24	C7H5N+
105.0449	129	C6H5N2+
108.0029	40	C6H4S+
109.0106	999	C6H5S+
116.0494	92	C8H6N+
121.0104	79	C7H5S+
123.0137	85	C6H5NS+
135.0141	37	C7H5NS+
136.0215	729	C7H6NS+
166.9861	49	C7H5NS2+
