Mass spectrum: Propyzamide; LC-ESI-QFT; MS2; CE: 45; R=35000; [M-H]-
Name: Propyzamide
Name: 3,5-bis(chloranyl)-N-(2-methylbut-3-yn-2-yl)benzamide
Name: Promamide
Formula: C12H11Cl2NO
Exact mass: 255.02177
SMILES: Clc1cc(C(=O)NC(C#C)(C)C)cc(Cl)c1
InChI: InChI=1S/C12H11Cl2NO/c1-4-12(2,3)15-11(16)8-5-9(13)7-10(14)6-8/h1,5-7H,2-3H3,(H,15,16)
Instrument: Q Exactive Orbitrap Thermo Scientific
Instrument type: LC-ESI-QFT
Ms type: MS2
Ion mode: NEGATIVE
Ionization: ESI
Fragmentation mode: HCD
Collision energy: 45 (nominal)
Resolution: 35000
Column name: XBridge C18 3.5um, 2.1x50mm, Waters
Retention time: 10.9 min
Base peak: 218.0312
Precursor m/z: 254.0145
Precursor type: [M-H]-
m/z	relative intensity	assigned
65.0397	1	C5H5-
97.0659	7	C6H9O-
144.9617	999	C6H3Cl2-
145.9894	88	CH6Cl2N3O-
146.9858	43	C2H7Cl2NO2-
148.0049	3	CH8Cl2N3O-
158.9772	1	C7H5Cl2-
164.0001	48	CH8Cl2N3O2-
171.986	16	C8H6Cl2-
176.9986	3	C9H4ClNO-
186.9723	140	C8H5Cl2O-
188.9517	29	C7H3Cl2O2-
189.9965	59	C8H8Cl2O-
192.0217	2	C10H7ClNO-
208.0073	2	C8H10Cl2O2-
212.9754	88	C9H5Cl2NO-
227.9989	403	C10H8Cl2NO-
254.0143	5	C12H10Cl2NO-
