Mass spectrum: 5-Methyl-1H-benzotriazole; LC-ESI-ITFT; MS2; CE: 90%; R=30000; [M+H]+
Name: 5-Methyl-1H-benzotriazole
Formula: C7H7N3
Exact mass: 133.0640
SMILES: c12c(cc(C)cc2)nn[nH]1
InChI: InChI=1S/C7H7N3/c1-5-2-3-6-7(4-5)9-10-8-6/h2-4H,1H3,(H,8,9,10)
Instrument: LTQ Orbitrap XL Thermo Scientific
Instrument type: LC-ESI-ITFT
Ms type: MS2
Ion mode: POSITIVE
Ionization: ESI
Fragmentation mode: HCD
Collision energy: 90 % (nominal)
Resolution: 30000
Column name: XBridge C18 3.5um, 2.1x50mm, Waters
Retention time: 5.8 min
Base peak: 134.0712
Precursor m/z: 134.0713
Precursor type: [M+H]+
m/z	relative intensity	assigned
53.0386	16	C4H5+
63.023	3	C5H3+
65.0386	5	C5H5+
66.0464	11	C5H6+
67.0417	16	C4H5N+
77.0386	701	C6H5+
78.0339	13	C5H4N+
78.0464	3	C6H6+
79.0543	671	C6H7+
80.0495	32	C5H6N+
81.0335	3	C5H5O+
89.0386	26	C7H5+
91.0417	39	C6H5N+
95.0492	73	C6H7O+
96.0444	16	C5H6NO+
104.0494	7	C7H6N+
105.0448	177	C6H5N2+
106.0652	288	C7H8N+
134.0713	999	C7H8N3+
