Mass spectrum: [D-Asp3,E-Dhb7]-Microcystin-RR; LC-ESI-QFT; MS2; CE: 60%; R=17500; [M-H]-
Name: [D-Asp3,E-Dhb7]-Microcystin-RR
Name: 8,15-bis[3-(diaminomethylideneamino)propyl]-2-ethylidene-18-(6-methoxy-3,5-dimethyl-7-phenylhepta-1,3-dienyl)-5,19-dimethyl-3,6,9,13,16,20,25-heptaoxo-1,4,7,10,14,17,21-heptazacyclopentacosane-11,22-dicarboxylic acid
Formula: C48H73N13O12
Exact mass: 1023.5502
SMILES: CC=C1C(=O)NC(C(=O)NC(C(=O)NC(CC(=O)NC(C(=O)NC(C(C(=O)NC(CCC(=O)N1)C(=O)O)C)C=CC(=CC(C)C(CC2=CC=CC=C2)OC)C)CCCN=C(N)N)C(=O)O)CCCN=C(N)N)C
InChI: InChI=1S/C48H73N13O12/c1-7-31-42(66)55-29(5)41(65)59-34(16-12-22-54-48(51)52)44(68)61-36(46(71)72)25-39(63)57-33(15-11-21-53-47(49)50)43(67)58-32(28(4)40(64)60-35(45(69)70)19-20-38(62)56-31)18-17-26(2)23-27(3)37(73-6)24-30-13-9-8-10-14-30/h7-10,13-14,17-18,23,27-29,32-37H,11-12,15-16,19-22,24-25H2,1-6H3,(H,55,66)(H,56,62)(H,57,63)(H,58,67)(H,59,65)(H,60,64)(H,61,68)(H,69,70)(H,71,72)(H4,49,50,53)(H4,51,52,54)
Instrument: Q Exactive Plus Orbitrap Thermo Scientific
Instrument type: LC-ESI-QFT
Ms type: MS2
Ion mode: NEGATIVE
Ionization: ESI
Fragmentation mode: HCD
Collision energy: 60 % (nominal)
Resolution: 17500
Column name: XBridge C18 3.5um, 2.1x50mm, Waters
Retention time: 7.057 min
Base peak: 190.928
Precursor m/z: 1022.5429
Precursor type: [M-H]-
m/z	relative intensity	assigned
82.0297	146	C4H4NO-
84.0456	123	C4H6NO-
87.0566	303	C3H7N2O-
96.0089	244	C4H2NO2-
98.0247	196	C4H4NO2-
109.0408	112	C5H5N2O-
110.0721	87	C5H8N3-
111.0201	69	C4H3N2O2-
113.0354	131	C4H5N2O2-
113.0722	134	C5H9N2O-
125.0353	189	C5H5N2O2-
125.0591	74	C5H7N3O-
127.0512	180	C5H7N2O2-
128.0353	803	C5H6NO3-
130.0986	333	C5H12N3O-
137.072	364	C7H9N2O-
138.0562	114	C7H8NO2-
139.087	138	C7H11N2O-
140.0829	169	C6H10N3O-
149.072	171	C8H9N2O-
153.0667	204	C7H9N2O2-
154.0982	82	C7H12N3O-
156.078	155	C6H10N3O2-
156.114	115	C7H14N3O-
158.1297	131	C7H16N3O-
166.0981	999	C8H12N3O-
167.0818	196	C6H9N5O-
181.1086	118	C7H17O5-
183.1244	718	C7H19O5-
184.1088	221	C8H14N3O2-
201.1355	512	C8H17N4O2-
208.1198	109	C9H14N5O-
266.1624	164	C12H20N5O2-
