Mass spectrum: Promecarb; LC-ESI-QFT; MS2; CE: 180%; R=17500; [M+H]+
Name: Promecarb
Name: (3-methyl-5-propan-2-ylphenyl) N-methylcarbamate
Formula: C12H17NO2
Exact mass: 207.1259
SMILES: CC1=CC(=CC(=C1)OC(=O)NC)C(C)C
InChI: InChI=1S/C12H17NO2/c1-8(2)10-5-9(3)6-11(7-10)15-12(14)13-4/h5-8H,1-4H3,(H,13,14)
Instrument: Exploris 240 Orbitrap Thermo Scientific
Instrument type: LC-ESI-QFT
Ms type: MS2
Ion mode: POSITIVE
Ionization: ESI
Fragmentation mode: HCD
Collision energy: 180 % (nominal)
Resolution: 17500
Column name: XBridge C18 3.5um, 2.1x50mm, Waters
Retention time: 8.894 min
Base peak: 208.1331
Precursor m/z: 208.1332
Precursor type: [M+H]+
m/z	relative intensity	assigned
51.0229	107	C4H3+
53.0387	90	C4H5+
55.0178	67	C3H3O+
58.0289	56	C2H4NO+
63.023	62	C5H3+
65.0386	999	C5H5+
66.0464	355	C5H6+
77.0388	98	C6H5+
79.0543	72	C6H7+
91.0543	229	C7H7+
94.0413	583	C6H6O+
107.0489	31	C7H7O+
