Mass spectrum: Mefenpyr-diethyl; LC-ESI-QFT; MS2; CE: 90; R=35000; [M+H]+
Name: Mefenpyr-diethyl
Name: 1-(2,4-Dichlorophenyl)-4,5-dihydro-5-methyl-1H-pyrazole-3,5-dicarboxylic acid diethyl ester
Name: 1-(2,4-dichlorophenyl)-5-methyl-2-pyrazoline-3,5-dicarboxylic acid diethyl ester
Formula: C16H18Cl2N2O4
Exact mass: 372.06436
SMILES: Clc1cc(Cl)c(cc1)N2/N=C(/C(=O)OCC)CC2(C(=O)OCC)C
InChI: InChI=1S/C16H18Cl2N2O4/c1-4-23-14(21)12-9-16(3,15(22)24-5-2)20(19-12)13-7-6-10(17)8-11(13)18/h6-8H,4-5,9H2,1-3H3
Instrument: Q Exactive Orbitrap Thermo Scientific
Instrument type: LC-ESI-QFT
Ms type: MS2
Ion mode: POSITIVE
Ionization: ESI
Fragmentation mode: HCD
Collision energy: 90 (nominal)
Resolution: 35000
Column name: XBridge C18 3.5um, 2.1x50mm, Waters
Retention time: 13.5 min
Base peak: 373.0724
Precursor m/z: 373.0716
Precursor type: [M+H]+
m/z	relative intensity	assigned
62.9634	1	CClO+
63.023	4	C5H3+
66.034	2	C4H4N+
69.0336	3	C4H5O+
72.984	32	C3H2Cl+
74.0152	38	C6H2+
75.023	3	C6H3+
82.9451	33	CHCl2+
84.9841	21	C4H2Cl+
86.9633	85	C3ClO+
90.0339	4	C6H4N+
94.0289	1	C2H7ClN2+
96.984	7	C5H2Cl+
98.9997	46	C5H4Cl+
106.9451	10	C3HCl2+
108.9841	262	C6H2Cl+
112.979	3	C5H2ClO+
113.9868	1	C5H3ClO+
120.9607	10	C4H3Cl2+
122.9998	2	C7H4Cl+
123.995	36	C6H3ClN+
125.0028	78	C6H4ClN+
126.0107	3	C6H5ClN+
126.9947	18	C6H4ClO+
127.0418	7	C9H5N+
128.0025	16	C6H5ClO+
128.0496	11	C9H6N+
129.045	1	C8H5N2+
130.0653	4	C9H8N+
132.9608	999	C5H3Cl2+
136.0076	5	C8H5Cl+
138.0106	2	C7H5ClN+
139.006	3	C6H4ClN2+
139.0183	1	C7H6ClN+
142.0057	5	C3H8Cl2N2+
144.9608	86	C6H3Cl2+
147.995	7	C8H3ClN+
149.0031	4	C8H4ClN+
151.0185	26	C8H6ClN+
152.0136	2	C7H5ClN2+
155.0009	2	C6H4ClN2O+
155.0605	34	C10H7N2+
156.0684	3	C10H8N2+
156.9608	11	C7H3Cl2+
158.9764	12	C7H5Cl2+
159.9717	133	C6H4Cl2N+
160.9795	33	C6H5Cl2N+
162.0109	5	C9H5ClN+
162.0231	1	C10H7Cl+
162.9713	41	C6H5Cl2O+
163.0184	35	C9H6ClN+
164.0263	44	C9H7ClN+
165.0219	1	C8H6ClN2+
165.034	7	C9H8ClN+
166.0294	2	C8H7ClN2+
171.0553	1	C10H7N2O+
171.9719	4	C7H4Cl2N+
172.967	413	C6H3Cl2N2+
173.9641	1	C7H4Cl2O+
173.9878	6	C7H6Cl2N+
175.0057	1	C9H4ClN2+
177.9821	5	C6H6Cl2NO+
180.0213	1	C6H10Cl2N2+
183.9718	14	C8H4Cl2N+
184.9666	1	C7H3Cl2N2+
184.9796	3	C8H5Cl2N+
185.9875	257	C11H3ClO+
189.0216	119	C10H6ClN2+
190.0295	34	C10H7ClN2+
191.0373	3	C10H8ClN2+
192.0453	1	C10H9ClN2+
195.0084	1	C9H6ClNO2+
197.9875	5	C9H6Cl2N+
209.9753	3	C9H4Cl2N2+
217.0167	2	C11H6ClN2O+
218.0244	3	C11H7ClN2O+
223.9906	1	C10H6Cl2N2+
224.9984	3	C10H7Cl2N2+
271.0038	3	C11H9Cl2N2O2+
