Mass spectrum: Chlorcyclizine; LC-ESI-QFT; MS2; CE: 120; R=35000; [M+H]+
Name: Chlorcyclizine
Name: 1-[(4-chlorophenyl)-phenylmethyl]-4-methylpiperazine
Formula: C18H21ClN2
Exact mass: 300.13933
SMILES: CN1CCN(CC1)C(C2=CC=CC=C2)C3=CC=C(C=C3)Cl
InChI: InChI=1S/C18H21ClN2/c1-20-11-13-21(14-12-20)18(15-5-3-2-4-6-15)16-7-9-17(19)10-8-16/h2-10,18H,11-14H2,1H3
Instrument: Q Exactive Plus Orbitrap Thermo Scientific
Instrument type: LC-ESI-QFT
Ms type: MS2
Ion mode: POSITIVE
Ionization: ESI
Fragmentation mode: HCD
Collision energy: 120 (nominal)
Resolution: 35000
Column name: XBridge C18 3.5um, 2.1x50mm, Waters
Retention time: 8.2 min
Base peak: 301.1464
Precursor m/z: 301.1466
Precursor type: [M+H]+
m/z	relative intensity	assigned
63.0228	3	C5H3+
65.0386	6	C5H5+
72.9839	4	C3H2Cl+
89.0386	2	C7H5+
91.0542	1	C7H7+
98.9996	9	C5H4Cl+
115.0542	31	C9H7+
125.0152	1	C7H6Cl+
126.0464	1	C10H6+
136.0073	1	C8H5Cl+
139.0542	28	C11H7+
140.062	1	C11H8+
149.0154	6	C9H6Cl+
152.0619	2	C12H8+
163.0543	21	C13H7+
164.0621	51	C13H8+
165.0699	999	C13H9+
166.0777	31	C13H10+
168.0569	18	C9H11ClN+
186.0229	1	C12H7Cl+
196.0519	7	C10H11ClNO+
199.0309	7	C13H8Cl+
