Mass spectrum: Iopamidol; LC-ESI-ITFT; MS2; CE: 90%; R=15000; [M+H]+
Name: Iopamidol
Name: 1,3-Benzenedicarboxamide, N,N'-bis(2-hydroxy-1-(hydroxymethyl)ethyl)-5-((2-hydroxy-1-oxopropyl)amino)-2,4,6-triiodo-
Name: 1-N,3-N-bis(1,3-dihydroxypropan-2-yl)-5-(2-hydroxypropanoylamino)-2,4,6-triiodobenzene-1,3-dicarboxamide
Formula: C17H22I3N3O8
Exact mass: 776.8541
SMILES: CC(O)C(=O)NC1=C(I)C(C(=O)NC(CO)CO)=C(I)C(C(=O)NC(CO)CO)=C1I
InChI: InChI=1S/C17H22I3N3O8/c1-6(28)15(29)23-14-12(19)9(16(30)21-7(2-24)3-25)11(18)10(13(14)20)17(31)22-8(4-26)5-27/h6-8,24-28H,2-5H2,1H3,(H,21,30)(H,22,31)(H,23,29)
Instrument: LTQ Orbitrap XL Thermo Scientific
Instrument type: LC-ESI-ITFT
Ms type: MS2
Ion mode: POSITIVE
Ionization: ESI
Fragmentation mode: HCD
Collision energy: 90 % (nominal)
Resolution: 15000
Column name: XBridge C18 3.5um, 2.1x50mm, Waters
Retention time: 1.2 min
Base peak: 132.9578
Precursor m/z: 777.8614
Precursor type: [M+H]+
m/z	relative intensity	assigned
86.0025	118	C6N+
88.0183	165	C6H2N+
102.0339	275	C7H4N+
103.0416	999	C7H5N+
113.0133	286	C7HN2+
113.9972	297	C7NO+
115.0417	274	C8H5N+
115.9889	400	C7O2+
116.0132	143	C7H2NO+
129.0446	190	C8H5N2+
130.0288	158	C8H4NO+
131.0364	234	C8H5NO+
132.0446	176	C8H6NO+
134.0238	272	C7H4NO2+
141.008	292	C8HN2O+
141.9925	288	C8NO2+
143.037	132	C9H5NO+
144.008	325	C8H2NO2+
144.0442	206	C9H6NO+
154.8987	151	CIO+
159.0315	372	C9H5NO2+
162.0193	132	C8H4NO3+
185.0337	315	C10H5N2O2+
200.9072	194	C5IN+
204.9143	324	C5H2IO+
212.9065	296	C6IN+
257.9402	233	C8H5INO+
259.9196	202	C7H3INO2+
269.9408	310	C9H5INO+
285.936	156	C9H5INO2+
293.9103	372	C3H5INO7+
293.9276	332	C10H3IN2O+
325.9681	240	C13N3O8+
341.8263	143	C6H2I2N+
