Mass spectrum: Amoxicillin; LC-ESI-QFT; MS2; CE: 45; R=35000; [M+H]+
Name: Amoxicillin
Name: Amoxicillin anhydrous
Name: (2S,5R,6R)-6-[[(2R)-2-amino-2-(4-hydroxyphenyl)-1-oxoethyl]amino]-3,3-dimethyl-7-oxo-4-thia-1-azabicyclo[3.2.0]heptane-2-carboxylic acid
Formula: C16H19N3O5S
Exact mass: 365.10454
SMILES: CC1(C)S[C@@H]2[C@H](NC(=O)[C@H](N)C3=CC=C(O)C=C3)C(=O)N2[C@H]1C(O)=O
InChI: InChI=1S/C16H19N3O5S/c1-16(2)11(15(23)24)19-13(22)10(14(19)25-16)18-12(21)9(17)7-3-5-8(20)6-4-7/h3-6,9-11,14,20H,17H2,1-2H3,(H,18,21)(H,23,24)/t9-,10-,11+,14-/m1/s1
Instrument: Q Exactive Orbitrap Thermo Scientific
Instrument type: LC-ESI-QFT
Ms type: MS2
Ion mode: POSITIVE
Ionization: ESI
Fragmentation mode: HCD
Collision energy: 45 (nominal)
Resolution: 35000
Column name: XBridge C18 3.5um, 2.1x50mm, Waters
Retention time: 2.3 min
Base peak: 366.1119
Precursor m/z: 366.1118
Precursor type: [M+H]+
m/z	relative intensity	assigned
58.9949	5	C2H3S+
68.0131	6	C3H2NO+
68.0494	4	C4H6N+
69.0448	1	C3H5N2+
70.0651	115	C4H8N+
71.0491	8	C4H7O+
72.0808	1	C4H10N+
74.006	1	C2H4NS+
79.0543	1	C6H7+
81.0336	1	C5H5O+
82.0652	4	C5H8N+
84.0809	5	C5H10N+
86.0059	54	C3H4NS+
87.0264	3	C4H7S+
91.0542	1	C7H7+
94.065	6	C6H8N+
95.0491	3	C6H7O+
96.0444	21	C5H6NO+
98.0601	1	C5H8NO+
99.0441	5	C5H7O2+
102.0009	1	C3H4NOS+
106.0651	12	C7H8N+
107.0491	24	C7H7O+
109.076	3	C6H9N2+
110.06	3	C6H8NO+
111.0917	1	C6H11N2+
112.0758	1	C6H10NO+
113.0345	6	C4H5N2O2+
114.0008	999	C4H4NOS+
114.0371	85	C5H8NS+
116.0704	2	C5H10NO2+
119.0491	9	C8H7O+
120.0445	1	C7H6NO+
121.0647	4	C8H9O+
122.06	33	C7H8NO+
126.0371	3	C6H8NS+
128.0529	3	C6H10NS+
128.0707	5	C6H10NO2+
129.9958	1	C4H4NO2S+
131.0491	3	C9H7O+
133.0284	10	C8H5O2+
133.0524	5	C8H7NO+
134.06	397	C8H8NO+
135.044	7	C8H7O2+
137.0056	71	C7H5OS+
137.071	46	C7H9N2O+
139.0212	16	C7H7OS+
139.0866	4	C7H11N2O+
141.048	2	C6H9N2S+
142.0324	4	C6H8NOS+
144.0559	1	C8H6N3+
146.06	8	C9H8NO+
147.068	4	C9H9NO+
148.0755	3	C9H10NO+
151.0212	4	C8H7OS+
153.037	8	C8H9OS+
160.0427	98	C6H10NO2S+
161.071	2	C9H9N2O+
162.0549	46	C9H8NO2+
163.0212	23	C9H7OS+
165.0659	91	C8H9N2O2+
166.0321	5	C8H8NOS+
167.0813	3	C8H11N2O2+
169.043	3	C7H9N2OS+
174.055	4	C10H8NO2+
174.0913	2	C11H12NO+
178.0321	45	C9H8NOS+
180.0477	50	C9H10NOS+
181.043	4	C8H9N2OS+
183.0585	1	C8H11N2OS+
183.0763	1	C8H11N2O3+
185.0923	1	C8H13N2O3+
188.0166	1	C10H6NOS+
190.0325	2	C10H8NOS+
190.0498	15	C10H8NO3+
191.0161	3	C10H7O2S+
193.0608	18	C9H9N2O3+
194.0271	3	C9H8NO2S+
201.0419	2	C11H7NO3+
206.027	16	C10H8NO2S+
207.0348	1	C10H9NO2S+
208.0427	6	C10H10NO2S+
209.0379	3	C9H9N2O2S+
211.0543	4	C9H11N2O2S+
211.0713	9	C9H11N2O4+
215.0484	1	C8H11N2O3S+
222.0456	3	C10H10N2O2S+
227.0486	1	C9H11N2O3S+
234.0221	16	C11H8NO3S+
247.09	1	C13H15N2OS+
275.0851	6	C14H15N2O2S+
277.1002	1	C14H17N2O2S+
305.0954	3	C15H17N2O3S+
