Mass spectrum: Procymidone; LC-ESI-QFT; MS2; CE: 45; R=35000; [M+H]+
Name: Procymidone
Name: 3-(3,5-dichlorophenyl)-1,5-dimethyl-3-azabicyclo[3.1.0]hexane-2,4-dione
Formula: C13H11Cl2NO2
Exact mass: 283.01668
SMILES: Clc1cc(cc(Cl)c1)N2C(=O)C3(CC3(C2=O)C)C
InChI: InChI=1S/C13H11Cl2NO2/c1-12-6-13(12,2)11(18)16(10(12)17)9-4-7(14)3-8(15)5-9/h3-5H,6H2,1-2H3
Instrument: Q Exactive Orbitrap Thermo Scientific
Instrument type: LC-ESI-QFT
Ms type: MS2
Ion mode: POSITIVE
Ionization: ESI
Fragmentation mode: HCD
Collision energy: 45 (nominal)
Resolution: 35000
Column name: XBridge C18 3.5um, 2.1x50mm, Waters
Retention time: 11.5 min
Base peak: 284.0241
Precursor m/z: 284.024
Precursor type: [M+H]+
m/z	relative intensity	assigned
55.0178	1	C3H3O+
57.0698	1	C4H9+
65.0386	36	C5H5+
67.0542	541	C5H7+
69.0698	134	C5H9+
71.0491	1	C4H7O+
85.0648	47	C5H9O+
94.0651	1	C6H8N+
95.0491	649	C6H7O+
96.0569	23	C6H8O+
97.0647	1	C6H9O+
113.0597	233	C6H9O2+
123.044	14	C7H7O2+
126.995	1	C6H4ClO+
127.0184	7	C6H6ClN+
144.9599	4	C6H3Cl2+
151.0184	14	C8H6ClN+
152.9975	1	C7H4ClNO+
157.0887	6	C11H11N+
158.0965	5	C11H12N+
158.9767	1	C7H5Cl2+
159.9714	13	C6H4Cl2N+
160.9794	8	C9H2ClO+
161.9871	39	C6H6Cl2N+
162.9711	5	C6H5Cl2O+
164.0264	9	C9H7ClN+
165.034	16	C9H8ClN+
167.073	2	C12H9N+
168.0808	9	C12H10N+
171.9715	165	C7H4Cl2N+
172.9668	8	C9ClNO+
173.9872	23	C7H6Cl2N+
176.039	2	C11H9Cl+
178.0417	81	C10H9ClN+
179.0132	5	C9H6ClNO+
179.0496	22	C10H10ClN+
180.0209	2	C9H7ClNO+
185.0835	5	C12H11NO+
185.9872	255	C8H6Cl2N+
187.9664	41	C7H4Cl2NO+
188.0028	2	C8H8Cl2N+
188.0261	6	C11H7ClN+
192.0574	49	C11H11ClN+
193.0653	61	C11H12ClN+
197.9871	66	C9H6Cl2N+
198.995	17	C9H7Cl2N+
199.9665	26	C8H4Cl2NO+
200.0027	32	C9H8Cl2N+
202.0184	7	C9H10Cl2N+
202.0417	23	C12H9ClN+
203.0496	62	C12H10ClN+
206.0366	12	C11H9ClNO+
210.9951	1	C10H7Cl2N+
212.0028	156	C10H8Cl2N+
213.0103	14	
213.9821	47	C9H6Cl2NO+
214.0184	59	C10H10Cl2N+
214.9898	2	C9H7Cl2NO+
220.0524	17	C12H11ClNO+
221.0602	54	C12H12ClNO+
224.003	1	C11H8Cl2N+
225.9824	1	C10H6Cl2NO+
227.9978	104	C10H8Cl2NO+
228.034	306	C11H12Cl2N+
231.0447	4	C13H10ClNO+
238.0184	210	C12H10Cl2N+
239.0262	44	C12H11Cl2N+
240.0341	10	C12H12Cl2N+
241.0056	48	C11H9Cl2NO+
256.029	999	C12H12Cl2NO+
266.0134	8	C13H10Cl2NO+
284.0239	241	C13H12Cl2NO2+
