Mass spectrum: Ketoprofen; LC-ESI-ITFT; MS2; CE: 35%; R=7500; [M-H]-
Name: Ketoprofen
Name: 2-(3-benzoylphenyl)propanoic acid
Formula: C16H14O3
Exact mass: 254.0943
SMILES: CC(C1=CC=CC(=C1)C(=O)C2=CC=CC=C2)C(=O)O
InChI: InChI=1S/C16H14O3/c1-11(16(18)19)13-8-5-9-14(10-13)15(17)12-6-3-2-4-7-12/h2-11H,1H3,(H,18,19)
Instrument: LTQ Orbitrap XL Thermo Scientific
Instrument type: LC-ESI-ITFT
Ms type: MS2
Ion mode: NEGATIVE
Ionization: ESI
Fragmentation mode: CID
Collision energy: 35 % (nominal)
Resolution: 7500
Column name: XBridge C18 3.5um, 2.1x50mm, Waters
Retention time: 9.6 min
Base peak: 209.0971
Precursor m/z: 253.087
Precursor type: [M-H]-
m/z	relative intensity	assigned
169.0653	2	C12H9O-
185.0609	6	C12H9O2-
197.0611	394	C13H9O2-
209.0974	999	C15H13O-
213.0916	2	C14H13O2-
223.0764	4	C15H11O2-
241.0872	2	C15H13O3-
