Mass spectrum: Nornicotine; LC-ESI-QFT; MS2; CE: 30; R=35000; [M+H]+
Name: Nornicotine
Name: 3-pyrrolidin-2-ylpyridine
Formula: C9H12N2
Exact mass: 148.10005
SMILES: c1cc(cnc1)C2CCCN2
InChI: InChI=1S/C9H12N2/c1-3-8(7-10-5-1)9-4-2-6-11-9/h1,3,5,7,9,11H,2,4,6H2
Instrument: Q Exactive Plus Orbitrap Thermo Scientific
Instrument type: LC-ESI-QFT
Ms type: MS2
Ion mode: POSITIVE
Ionization: ESI
Fragmentation mode: HCD
Collision energy: 30 (nominal)
Resolution: 35000
Column name: XBridge C18 3.5um, 2.1x50mm, Waters
Retention time: 1.0 min
Base peak: 149.1072
Precursor m/z: 149.1073
Precursor type: [M+H]+
m/z	relative intensity	assigned
70.065	34	C4H8N+
80.0494	113	C5H6N+
106.0651	118	C7H8N+
115.0543	3	C9H7+
117.0572	28	C8H7N+
119.0729	1	C8H9N+
120.0808	14	C8H10N+
130.0652	252	C9H8N+
132.0807	695	C9H10N+
149.1073	999	C9H13N2+
