Mass spectrum: N-Methyl-N-nitrosotoluene-4-sulphonamide (NTOLS); LC-ESI-QFT; MS2; CE: 75; R=70000; [M+H]+
Name: N-Methyl-N-nitrosotoluene-4-sulphonamide (NTOLS)
Name: N,4-dimethyl-N-nitrosobenzenesulfonamide
Formula: C8H10N2O3S
Exact mass: 214.04121
SMILES: O=S(=O)(c1ccc(cc1)C)N(N=O)C
InChI: InChI=1S/C8H10N2O3S/c1-7-3-5-8(6-4-7)14(12,13)10(2)9-11/h3-6H,1-2H3
Instrument: Q Exactive Plus Orbitrap Thermo Scientific
Instrument type: LC-ESI-QFT
Ms type: MS2
Ion mode: POSITIVE
Ionization: ESI
Fragmentation mode: HCD
Collision energy: 75 (nominal)
Resolution: 70000
Column name: XBridge C18 3.5um, 2.1x50mm, Waters
Retention time: 8.3 min
Base peak: 186.0583
Precursor m/z: 215.0485
Precursor type: [M+H]+
m/z	relative intensity	assigned
51.023	64	C4H3+
53.0022	26	C3HO+
53.0386	246	C4H5+
55.0178	77	C3H3O+
55.0542	926	C4H7+
57.0335	36	C3H5O+
57.0699	124	C4H9+
59.0491	197	C3H7O+
65.0386	115	C5H5+
67.0542	396	C5H7+
69.0699	254	C5H9+
71.0491	70	C4H7O+
72.0444	25	C3H6NO+
77.0385	76	C6H5+
79.0542	199	C6H7+
81.0335	64	C5H5O+
81.0699	188	C6H9+
83.0491	396	C5H7O+
83.0854	71	C6H11+
88.0215	29	C3H6NS+
91.0543	414	C7H7+
93.0699	89	C7H9+
95.0492	977	C6H7O+
95.0855	178	C7H11+
96.0525	999	CH8N2O3+
97.0077	27	C8H+
99.0805	19	C6H11O+
101.0598	96	C5H9O2+
103.0543	22	C8H7+
105.0448	262	C6H5N2+
105.0699	161	C8H9+
106.0481	238	CH6N4O2+
109.0649	38	C7H9O+
111.044	153	C6H7O2+
121.0284	428	C7H5O2+
121.0396	73	C6H5N2O+
123.0806	31	C8H11O+
129.0546	32	C6H9O3+
130.9819	35	C7HNS+
142.0037	18	C7N3O+
153.0574	29	C3H11N3O2S+
155.0116	32	C8HN3O+
173.0222	371	C8H3N3O2+
175.0014	83	C7HN3O3+
179.0605	495	C4H11N4O2S+
189.0171	29	C8H3N3O3+
