Mass spectrum: Aerucyclamide A; LC-ESI-QFT; MS2; CE: 30%; R=17500; [M+H]+
Name: Aerucyclamide A
Name: (1S,4S,7R,8S,18R)-4,18-bis[(2S)-butan-2-yl]-7-methyl-6-oxa-13,20-dithia-3,10,17,22,23,24-hexazatetracyclo[17.2.1.15,8.112,15]tetracosa-5(24),12(23),14,19(22)-tetraene-2,9,16-trione
Class: NA
Formula: C24H34N6O4S2
Exact mass: 534.2083
SMILES: CC[C@H](C)[C@@H]1NC(=O)[C@H]2CSC(=N2)[C@H](NC(=O)c3csc(CNC(=O)[C@H]4N=C1O[C@@H]4C)n3)[C@@H](C)CC
InChI: InChI=1S/C24H34N6O4S2/c1-6-11(3)17-23-30-19(13(5)34-23)22(33)25-8-16-26-14(9-35-16)20(31)29-18(12(4)7-2)24-27-15(10-36-24)21(32)28-17/h9,11-13,15,17-19H,6-8,10H2,1-5H3,(H,25,33)(H,28,32)(H,29,31)/t11-,12-,13+,15+,17-,18+,19-/m0/s1
Instrument: Q Exactive Plus Orbitrap Thermo Scientific
Instrument type: LC-ESI-QFT
Ms type: MS2
Ion mode: POSITIVE
Ionization: ESI
Fragmentation mode: HCD
Collision energy: 30 % (nominal)
Resolution: 17500
Column name: XBridge C18 3.5um, 2.1x50mm, Waters
Retention time: 10.697 min
Base peak: 164.9845
Precursor m/z: 535.2156
Precursor type: [M+H]+
m/z	relative intensity	assigned
84.0444	64	C4H6NO+
86.0964	123	C5H12N+
130.0685	5	C6H12NS+
131.0269	30	C4H7N2OS+
135.0803	6	C9H11O+
152.107	39	C9H14NO+
154.0684	92	C8H12NS+
158.0384	18	C5H8N3OS+
172.0791	21	C8H14NOS+
181.0796	9	C9H13N2S+
182.0633	24	C9H12NOS+
184.0172	13	C6H6N3O2S+
184.0536	22	C7H10N3OS+
199.0903	84	C3H21NO4S2+
208.0904	16	C10H14N3S+
209.0742	10	C10H13N2OS+
220.1449	6	C6H24N2O4S+
225.0446	49	C16H5N2+
226.1012	64	C10H16N3OS+
241.0753	16	C9H13N4O2S+
252.1171	17	C6H24N2O4S2+
266.095	17	C4H20N5O4S2+
267.154	31	C9H25N5S2+
269.0705	58	C10H13N4O3S+
282.1286	5	C15H22O3S+
292.1132	8	C9H20N6OS2+
293.1084	32	C15H19NO3S+
309.1378	39	C14H21N4O2S+
321.083	10	C14H17N4OS2+
337.1336	48	C23H17N2O+
339.0964	8	C16H13N5O4+
354.1605	18	C17H26N2O4S+
356.1203	20	C14H22N5O2S2+
360.1739	6	C19H26N3O2S+
361.1691	17	C18H25N4O2S+
364.1431	15	C22H16N6+
366.104	7	C20H18N2O3S+
377.2024	6	C21H31NO3S+
378.1059	16	C24H16N3S+
379.0882	14	C22H13N5S+
390.1588	19	C24H18N6+
404.1207	32	C18H22N5O2S2+
406.099	12	C23H14N6S+
406.1659	31	C19H26N4O4S+
407.1567	12	C19H27N4O2S2+
416.1384	23	C19H22N5O4S+
422.1293	41	C23H22N2O4S+
424.1835	277	C19H30N5O2S2+
432.1087	37	C23H20N4OS2+
432.2045	56	C24H26N5O3+
434.1684	47	C20H28N5O2S2+
461.1434	72	C22H27N3O4S2+
464.1786	56	C21H30N5O3S2+
467.1519	19	C19H27N6O4S2+
473.235	13	C23H33N6O3S+
479.1524	7	C20H27N6O4S2+
489.2107	22	C23H33N6O2S2+
490.1936	96	C23H32N5O3S2+
491.1861	47	C22H31N6O3S2+
501.2273	47	C24H33N6O4S+
507.2206	68	C23H35N6O3S2+
508.2016	24	C23H34N5O4S2+
517.2048	708	C24H33N6O3S2+
535.2153	999	C24H35N6O4S2+
