Mass spectrum: Genistein; LC-ESI-QFT; MS2; CE: 180; R=35000; [M-H]-
Name: Genistein
Name: 5,7-dihydroxy-3-(4-hydroxyphenyl)chromen-4-one
Formula: C15H10O5
Exact mass: 270.05282
SMILES: C1=CC(=CC=C1C2=COC3=CC(=CC(=C3C2=O)O)O)O
InChI: InChI=1S/C15H10O5/c16-9-3-1-8(2-4-9)11-7-20-13-6-10(17)5-12(18)14(13)15(11)19/h1-7,16-18H
Instrument: Q Exactive Plus Orbitrap Thermo Scientific
Instrument type: LC-ESI-QFT
Ms type: MS2
Ion mode: NEGATIVE
Ionization: ESI
Fragmentation mode: HCD
Collision energy: 180 (nominal)
Resolution: 35000
Column name: XBridge C18 3.5um, 2.1x50mm, Waters
Retention time: 7.7 min
Base peak: 269.0453
Precursor m/z: 269.0455
Precursor type: [M-H]-
m/z	relative intensity	assigned
51.024	3	C4H3-
61.0084	26	C5H-
62.0162	19	C5H2-
63.0241	182	C5H3-
63.9955	125	C4O-
65.0033	999	C4HO-
67.0191	3	C4H3O-
68.9983	5	C3HO2-
73.0084	16	C6H-
77.0034	5	C5HO-
77.0397	9	C6H5-
79.9905	4	C4O2-
83.0139	2	C4H3O2-
88.0318	33	C7H4-
89.0034	5	C6HO-
89.0398	9	C7H5-
91.019	14	C6H3O-
92.0269	4	C6H4O-
93.0347	9	C6H5O-
95.0503	19	C6H7O-
103.0191	4	C7H3O-
104.0269	10	C7H4O-
112.0319	18	C9H4-
116.0268	51	C8H4O-
117.0346	23	C8H5O-
123.0454	10	C7H7O2-
128.0269	11	C9H4O-
130.0427	3	C9H6O-
132.0217	72	C8H4O2-
134.0377	9	C8H6O2-
140.0268	9	C10H4O-
141.0346	3	C10H5O-
