Mass spectrum: Phenmedipham; LC-ESI-ITFT; MS2; CE: 90%; R=7500; [M+H]+
Name: Phenmedipham
Name: 3-[(methoxycarbonyl)amino]phenyl (3-methylphenyl)carbamate
Formula: C16H16N2O4
Exact mass: 300.1116
SMILES: c1c(OC(Nc2cc(ccc2)C)=O)cccc1NC(OC)=O
InChI: InChI=1S/C16H16N2O4/c1-11-5-3-6-12(9-11)18-16(20)22-14-8-4-7-13(10-14)17-15(19)21-2/h3-10H,1-2H3,(H,17,19)(H,18,20)
Instrument: LTQ Orbitrap XL Thermo Scientific
Instrument type: LC-ESI-ITFT
Ms type: MS2
Ion mode: POSITIVE
Ionization: ESI
Fragmentation mode: HCD
Collision energy: 90 % (nominal)
Resolution: 7500
Column name: XBridge C18 3.5um, 2.1x50mm, Waters
Retention time: 9.5 min
Base peak: 323.1005
Precursor m/z: 301.1183
Precursor type: [M+H]+
m/z	relative intensity	assigned
65.0386	999	C5H5+
80.0495	435	C5H6N+
81.0334	220	C5H5O+
93.0335	692	C6H5O+
108.0444	896	C6H6NO+
111.0438	228	C6H7O2+
121.0396	733	C6H5N2O+
136.0393	581	C7H6NO2+
