Mass spectrum: D617; LC-ESI-ITFT; MS2; CE: 35%; R=30000; [M+H]+
Name: D617
Name: Verapamil metabolite D617
Name: 2-(3,4-dimethoxyphenyl)-2-isopropyl-5-(methylamino)valeronitrile
Formula: C17H26N2O2
Exact mass: 290.1994
SMILES: CC(C)C(CCCNC)(C#N)C1=CC(=C(C=C1)OC)OC
InChI: InChI=1S/C17H26N2O2/c1-13(2)17(12-18,9-6-10-19-3)14-7-8-15(20-4)16(11-14)21-5/h7-8,11,13,19H,6,9-10H2,1-5H3
Instrument: LTQ Orbitrap XL Thermo Scientific
Instrument type: LC-ESI-ITFT
Ms type: MS2
Ion mode: POSITIVE
Ionization: ESI
Fragmentation mode: CID
Collision energy: 35 % (nominal)
Resolution: 30000
Column name: XBridge C18 3.5um, 2.1x50mm, Waters
Retention time: 6.3 min
Base peak: 291.2077
Precursor m/z: 291.2067
Precursor type: [M+H]+
m/z	relative intensity	assigned
96.0808	2	C6H10N+
110.0965	3	C7H12N+
122.0965	16	C8H12N+
126.1278	2	C8H16N+
136.0519	4	C8H8O2+
137.0598	2	C8H9O2+
139.0755	4	C8H11O2+
151.0754	34	C9H11O2+
153.1387	6	C9H17N2+
163.0754	5	C10H11O2+
165.0911	9	C10H13O2+
175.0754	6	C11H11O2+
176.0707	6	C10H10NO2+
177.0911	50	C11H13O2+
179.1069	1	C11H15O2+
190.0863	2	C11H12NO2+
201.091	2	C13H13O2+
203.1065	1	C13H15O2+
204.1019	1	C12H14NO2+
212.12	2	C15H16O+
215.1068	2	C14H15O2+
217.1096	4	C13H15NO2+
217.1226	3	C14H17O2+
218.1177	17	C13H16NO2+
219.1381	2	C14H19O2+
220.1333	2	C13H18NO2+
228.1145	3	C15H16O2+
229.1455	2	C15H19NO+
231.1382	2	C15H19O2+
232.1333	7	C14H18NO2+
233.1284	11	C13H17N2O2+
233.1537	33	C15H21O2+
243.1381	49	C16H19O2+
245.1411	10	C15H19NO2+
247.1442	18	C14H19N2O2+
248.1522	999	C14H20N2O2+
249.1597	28	C14H21N2O2+
260.1648	895	C16H22NO2+
264.1958	22	C16H26NO2+
