Mass spectrum: Cilastatin; LC-ESI-ITFT; MS2; CE: 35%; R=7500; [M+H]+
Name: Cilastatin
Formula: C16H26N2O5S
Exact mass: 358.1562
SMILES: [H][C@](N)(CSCCCC\C=C(/NC(=O)[C@@]1([H])CC1(C)C)C(O)=O)C(O)=O
InChI: InChI=1S/C16H26N2O5S/c1-16(2)8-10(16)13(19)18-12(15(22)23)6-4-3-5-7-24-9-11(17)14(20)21/h6,10-11H,3-5,7-9,17H2,1-2H3,(H,18,19)(H,20,21)(H,22,23)/b12-6-/t10-,11+/m1/s1
Instrument: LTQ Orbitrap XL Thermo Scientific
Instrument type: LC-ESI-ITFT
Ms type: MS2
Ion mode: POSITIVE
Ionization: ESI
Fragmentation mode: CID
Collision energy: 35 % (nominal)
Resolution: 7500
Column name: XBridge C18 3.5um, 2.1x50mm, Waters
Retention time: 5.2 min
Base peak: 359.1645
Precursor m/z: 359.1635
Precursor type: [M+H]+
m/z	relative intensity	assigned
113.0417	9	C6H9S+
114.0917	2	C6H12NO+
115.0575	64	C6H11S+
130.0684	34	C6H12NS+
142.0863	16	C7H12NO2+
156.084	50	C8H14NS+
159.0471	14	C7H11O2S+
166.0862	43	C9H12NO2+
174.0581	26	C7H12NO2S+
182.0637	16	C9H12NOS+
184.0966	44	C9H14NO3+
194.1534	6	C12H20NO+
200.074	43	C9H14NO2S+
202.0897	999	C9H16NO2S+
217.1001	51	C9H17N2O2S+
219.1158	83	C9H19N2O2S+
220.1327	4	C13H18NO2+
226.1261	23	C12H20NOS+
227.0848	7	C10H15N2O2S+
238.1435	66	C13H20NO3+
245.0948	16	C10H17N2O3S+
246.0791	102	C10H16NO4S+
252.106	5	C13H18NO2S+
263.1058	100	C10H19N2O4S+
270.1152	25	C13H20NO3S+
272.1305	11	C13H22NO3S+
297.1628	18	C15H25N2O2S+
298.1466	16	C15H24NO3S+
313.1576	53	C15H25N2O3S+
315.1734	447	C15H27N2O3S+
323.1413	15	C16H23N2O3S+
324.1256	16	C16H22NO4S+
341.1527	217	C16H25N2O4S+
342.1366	581	C16H24NO5S+
