Mass spectrum: Thiophanate; LC-ESI-QFT; MS2; CE: 30%; R=17500; [M+H]+
Name: Thiophanate
Name: CID 31991
Name: N`-ethoxycarbonyl-N-[2-[(N-ethoxycarbonyl-C-sulfanylcarbonimidoyl)amino]phenyl]carbamimidothioic acid
Formula: C14H18N4O4S2
Exact mass: 370.0769
SMILES: CCOC(=O)NC(=S)NC1=CC=CC=C1NC(=S)NC(=O)OCC
InChI: InChI=1S/C14H18N4O4S2/c1-3-21-13(19)17-11(23)15-9-7-5-6-8-10(9)16-12(24)18-14(20)22-4-2/h5-8H,3-4H2,1-2H3,(H2,15,17,19,23)(H2,16,18,20,24)
Instrument: Exploris 240 Orbitrap Thermo Scientific
Instrument type: LC-ESI-QFT
Ms type: MS2
Ion mode: POSITIVE
Ionization: ESI
Fragmentation mode: HCD
Collision energy: 30 % (nominal)
Resolution: 17500
Column name: XBridge C18 3.5um, 2.1x50mm, Waters
Retention time: 7.280 min
Base peak: 295.0398
Precursor m/z: 371.0842
Precursor type: [M+H]+
m/z	relative intensity	assigned
59.9902	23	CH2NS+
62.0236	5	CH4NO2+
85.9693	12	C2NOS+
90.055	16	C3H8NO2+
103.9802	4	C2H2NO2S+
132.0113	12	C4H6NO2S+
134.0711	9	C7H8N3+
135.0553	3	C7H7N2O+
151.0323	999	C7H7N2S+
160.0507	19	C8H6N3O+
176.0281	3	C8H6N3S+
178.0616	9	C8H8N3O2+
194.0382	52	C8H8N3OS+
206.0923	48	C10H12N3O2+
219.0338	27	C9H7N4OS+
223.0535	4	C10H11N2O2S+
235.9949	62	C9H6N3OS2+
240.0807	10	C10H14N3O2S+
265.0752	18	C11H13N4O2S+
282.0368	45	C11H12N3O2S2+
291.0552	11	C12H11N4O3S+
325.042	29	C12H13N4O3S2+
