Mass spectrum: Valganciclovir; LC-ESI-QFT; MS2; CE: 90; R=35000; [M-H]-
Name: Valganciclovir
Name: (2S)-2-amino-3-methyl-butyric acid [2-[(2-amino-6-keto-3H-purin-9-yl)methoxy]-3-hydroxy-propyl] ester
Formula: C14H22N6O5
Exact mass: 354.16517
SMILES: O=C(OCC(OCn1c2N\C(=N/C(=O)c2nc1)N)CO)[C@@H](N)C(C)C
InChI: InChI=1S/C14H22N6O5/c1-7(2)9(15)13(23)24-4-8(3-21)25-6-20-5-17-10-11(20)18-14(16)19-12(10)22/h5,7-9,21H,3-4,6,15H2,1-2H3,(H3,16,18,19,22)/t8?,9-/m0/s1
Instrument: Q Exactive Orbitrap Thermo Scientific
Instrument type: LC-ESI-QFT
Ms type: MS2
Ion mode: NEGATIVE
Ionization: ESI
Fragmentation mode: HCD
Collision energy: 90 (nominal)
Resolution: 35000
Column name: XBridge C18 3.5um, 2.1x50mm, Waters
Retention time: 1.2 min
Base peak: 353.158
Precursor m/z: 353.1579
Precursor type: [M-H]-
m/z	relative intensity	assigned
65.0145	399	C3HN2-
65.9985	116	C3NO-
66.0098	459	C2N3-
67.0302	252	C3H3N2-
71.0251	7	C2H3N2O-
78.0098	61	C3N3-
82.0411	78	C3H4N3-
90.0098	67	C4N3-
92.0254	804	C4H2N3-
93.0094	19	C4HN2O-
94.0411	10	C4H4N3-
106.0048	6	C4N3O-
106.0285	47	C4H2N4-
106.041	40	C5H4N3-
107.0364	131	C4H3N4-
108.0204	183	C4H2N3O-
116.0718	722	C5H10NO2-
118.0411	25	C6H4N3-
119.0363	969	C5H3N4-
120.0203	53	C5H2N3O-
120.0568	5	C6H6N3-
126.0309	789	C4H4N3O2-
132.0315	8	C5H2N5-
133.0156	999	C5HN4O-
134.0361	515	C6H4N3O-
135.0312	6	C5H3N4O-
144.0315	66	C6H2N5-
150.0421	114	C5H4N5O-
151.0261	116	C5H3N4O2-
162.0421	273	C6H4N5O-
