Mass spectrum: Sotalol; LC-ESI-ITFT; MS2; CE: 90%; R=30000; [M+H]+
Name: Sotalol
Name: N-[4-[1-hydroxy-2-(isopropylamino)ethyl]phenyl]methanesulfonamide
Formula: C12H20N2O3S
Exact mass: 272.1195
SMILES: CC(C)NCC(C1=CC=C(C=C1)NS(=O)(=O)C)O
InChI: InChI=1S/C12H20N2O3S/c1-9(2)13-8-12(15)10-4-6-11(7-5-10)14-18(3,16)17/h4-7,9,12-15H,8H2,1-3H3
Instrument: LTQ Orbitrap XL Thermo Scientific
Instrument type: LC-ESI-ITFT
Ms type: MS2
Ion mode: POSITIVE
Ionization: ESI
Fragmentation mode: HCD
Collision energy: 90 % (nominal)
Resolution: 30000
Column name: XBridge C18 3.5um, 2.1x50mm, Waters
Retention time: 1.6 min
Base peak: 273.1277
Precursor m/z: 273.1267
Precursor type: [M+H]+
m/z	relative intensity	assigned
77.0385	8	C6H5+
79.0542	60	C6H7+
80.0495	13	C5H6N+
81.0573	6	C5H7N+
89.0386	8	C7H5+
92.0494	9	C6H6N+
93.0573	14	C6H7N+
106.0652	631	C7H8N+
107.073	366	C7H9N+
116.0495	73	C8H6N+
117.0573	95	C8H7N+
118.0526	9	C7H6N2+
118.0651	73	C8H8N+
119.0604	50	C7H7N2+
119.0729	3	C8H9N+
132.0682	100	C8H8N2+
133.0761	999	C8H9N2+
134.06	28	C8H8NO+
134.0838	97	C8H10N2+
144.0556	22	C2H12N2O3S+
161.1077	3	C10H13N2+
172.9781	2	C5H3NO4S+
213.0692	4	C9H13N2O2S+
