Mass spectrum: Citalopram; LC-ESI-ITFT; MS2; CE: 45%; R=7500; [M+H]+
Name: Citalopram
Name: 1-[3-(dimethylamino)propyl]-1-(4-fluorophenyl)-3H-2-benzofuran-5-carbonitrile
Formula: C20H21FN2O
Exact mass: 324.1638
SMILES: Fc1ccc(cc1)C3(OCc2cc(C#N)ccc23)CCCN(C)C
InChI: InChI=1S/C20H21FN2O/c1-23(2)11-3-10-20(17-5-7-18(21)8-6-17)19-9-4-15(13-22)12-16(19)14-24-20/h4-9,12H,3,10-11,14H2,1-2H3
Instrument: LTQ Orbitrap XL Thermo Scientific
Instrument type: LC-ESI-ITFT
Ms type: MS2
Ion mode: POSITIVE
Ionization: ESI
Fragmentation mode: HCD
Collision energy: 45 % (nominal)
Resolution: 7500
Column name: XBridge C18 3.5um, 2.1x50mm, Waters
Retention time: 6.6 min
Base peak: 325.1719
Precursor m/z: 325.1711
Precursor type: [M+H]+
m/z	relative intensity	assigned
58.0651	51	C3H8N+
84.0809	11	C5H10N+
109.0448	999	C7H6F+
116.0494	137	C8H6N+
121.045	6	C8H6F+
123.024	9	C7H4FO+
130.0647	7	C9H8N+
142.0654	6	C10H8N+
144.0448	11	C9H6NO+
154.0658	6	C11H8N+
156.0807	47	C11H10N+
166.065	112	C12H8N+
168.0802	7	C12H10N+
184.0749	7	C12H10NO+
221.0635	56	C15H8FN+
222.0717	29	C15H9FN+
227.0729	18	C17H9N+
234.0713	188	C16H9FN+
235.0915	39	C17H12F+
236.0865	31	C16H11FN+
238.0664	41	C15H9FNO+
242.0963	78	C18H12N+
245.077	5	C18H10F+
247.079	119	C17H10FN+
250.1027	40	C17H13FN+
260.0864	15	C18H11FN+
262.1025	611	C18H13FN+
280.1131	19	C18H15FNO+
307.1604	46	C20H20FN2+
325.1713	245	C20H22FN2O+
