Mass spectrum: MCLA; LC-ESI-QFT; MS2; CE: 75%; R=17500; [M-H]-
Name: MCLA
Name: Microcystin LA
Name: (5R,8S,11R,12S,15S,18S,19S,22R)-18-[(1E,3E,5S,6S)-6-methoxy-3,5-dimethyl-7-phenylhepta-1,3-dienyl]-1,5,12,15,19-pentamethyl-2-methylidene-8-(2-methylpropyl)-3,6,9,13,16,20,25-heptaoxo-1,4,7,10,14,17,21-heptazacyclopentacosane-11,22-dicarboxylic acid
Class: NA
Formula: C46H67N7O12
Exact mass: 909.4848
SMILES: CO[C@@H](Cc1ccccc1)[C@@H](C)\C=C(C)\C=C\[C@@H]2NC(=O)[C@H](C)NC(=O)[C@@H](C)[C@@H](NC(=O)[C@H](CC(C)C)NC(=O)[C@@H](C)NC(=O)C(=C)N(C)C(=O)CC[C@@H](NC(=O)[C@H]2C)C(O)=O)C(O)=O
InChI: InChI=1S/C46H67N7O12/c1-24(2)21-35-44(60)52-38(46(63)64)28(6)40(56)47-29(7)41(57)49-33(18-17-25(3)22-26(4)36(65-11)23-32-15-13-12-14-16-32)27(5)39(55)50-34(45(61)62)19-20-37(54)53(10)31(9)43(59)48-30(8)42(58)51-35/h12-18,22,24,26-30,33-36,38H,9,19-21,23H2,1-8,10-11H3,(H,47,56)(H,48,59)(H,49,57)(H,50,55)(H,51,58)(H,52,60)(H,61,62)(H,63,64)/b18-17+,25-22+/t26-,27-,28-,29-,30+,33-,34+,35-,36-,38+/m0/s1
Instrument: Q Exactive Plus Orbitrap Thermo Scientific
Instrument type: LC-ESI-QFT
Ms type: MS2
Ion mode: NEGATIVE
Ionization: ESI
Fragmentation mode: HCD
Collision energy: 75 % (nominal)
Resolution: 17500
Column name: XBridge C18 3.5um, 2.1x50mm, Waters
Retention time: 10.539 min
Base peak: 190.9277
Precursor m/z: 908.4775
Precursor type: [M-H]-
m/z	relative intensity	assigned
66.0349	100	C4H4N-
72.0093	40	C2H2NO2-
72.0455	246	C3H6NO-
74.0248	256	C2H4NO2-
80.0506	58	C5H6N-
82.0298	140	C4H4NO-
82.0662	184	C5H8N-
84.0457	404	C4H6NO-
87.0566	342	C3H7N2O-
96.0455	96	C5H6NO-
96.0817	94	C6H10N-
97.0407	186	C4H5N2O-
99.0566	213	C4H7N2O-
108.0329	104	C5H4N2O-
109.0166	55	C5H3NO2-
109.0409	144	C5H5N2O-
110.0248	791	C5H4NO2-
111.0199	78	C4H3N2O2-
111.0566	77	C5H7N2O-
112.0401	226	C5H6NO2-
112.0767	195	C6H10NO-
113.036	215	C4H5N2O2-
123.0327	149	C6H5NO2-
123.0564	107	C6H7N2O-
124.0406	312	C6H6NO2-
125.0594	159	C5H7N3O-
125.0721	108	C6H9N2O-
127.0509	50	C5H7N2O2-
128.0353	999	C5H6NO3-
129.1033	437	C6H13N2O-
137.0719	128	C7H9N2O-
138.0434	158	C6H6N2O2-
138.0561	129	C7H8NO2-
139.0874	252	C7H11N2O-
150.0557	147	C8H8NO2-
153.1031	51	C8H13N2O-
155.0828	72	C7H11N2O2-
155.1192	59	C8H15N2O-
167.0819	68	C8H11N2O2-
180.1135	184	C7H12N6-
182.1289	663	C7H14N6-
