Mass spectrum: Boscalid; LC-ESI-QFT; MS2; CE: 15%; R=15000; [M+H]+
Name: Boscalid
Name: 2-chloro-N-[2-(4-chlorophenyl)phenyl]pyridine-3-carboxamide
Formula: C18H12Cl2N2O
Exact mass: 342.0326684
SMILES: ClC1=CC=C(C=C1)C1=C(NC(=O)C2=C(Cl)N=CC=C2)C=CC=C1
InChI: InChI=1S/C18H12Cl2N2O/c19-13-9-7-12(8-10-13)14-4-1-2-6-16(14)22-18(23)15-5-3-11-21-17(15)20/h1-11H,(H,22,23)
Instrument: Q Exactive Plus
Instrument type: LC-ESI-QFT
Ms type: MS2
Ion mode: POSITIVE
Ionization: ESI
Fragmentation mode: HCD
Collision energy: 15 % (nominal)
Resolution: 15000
Column name: XBridge C18 3.5um, 2.1x50mm, Waters
Retention time: 9.173 min
Base peak: 343.0403
Precursor m/z: 343.0399
Precursor type: [M+H]+
Precursor intensity: 188620855.64
m/z	relative intensity	assigned
139.9898	61	C6H3ClNO+
307.0633	120	C18H12ClN2O+
343.0401	999	C18H13Cl2N2O+
