Mass spectrum: Atenolol-desisopropyl; LC-ESI-ITFT; MS2; CE: 30%; R=7500; [M+H]+
Name: Atenolol-desisopropyl
Name: 4-(3-Amino-2-hydroxypropoxy)phenylacetamide
Formula: C11H16N2O3
Exact mass: 224.1161
SMILES: c1cc(ccc1CC(=O)N)OCC(CN)O
InChI: InChI=1S/C11H16N2O3/c12-6-9(14)7-16-10-3-1-8(2-4-10)5-11(13)15/h1-4,9,14H,5-7,12H2,(H2,13,15)
Instrument: LTQ Orbitrap XL Thermo Scientific
Instrument type: LC-ESI-ITFT
Ms type: MS2
Ion mode: POSITIVE
Ionization: ESI
Fragmentation mode: HCD
Collision energy: 30 % (nominal)
Resolution: 7500
Column name: XBridge C18 3.5um, 2.1x50mm, Waters
Retention time: 1.0 min
Base peak: 225.124
Precursor m/z: 225.1234
Precursor type: [M+H]+
m/z	relative intensity	assigned
56.0495	13	C3H6N+
74.0601	161	C3H8NO+
133.0649	7	C9H9O+
145.0648	38	C10H9O+
152.07	3	C8H10NO2+
162.0914	29	C10H12NO+
163.0749	2	C10H11O2+
164.0705	8	C9H10NO2+
173.0597	19	C11H9O2+
178.0863	68	C10H12NO2+
180.1022	14	C10H14NO2+
190.0863	255	C11H12NO2+
208.0968	182	C11H14NO3+
225.1234	999	C11H17N2O3+
