Mass spectrum: Metribuzin-desamino; LC-ESI-QFT; MS2; CE: 45; R=35000; [M+H]+
Name: Metribuzin-desamino
Name: Deaminometribuzin
Name: 6-tert-butyl-3-(methylthio)-2H-1,2,4-triazin-5-one
Formula: C8H13N3OS
Exact mass: 199.27332
SMILES: CC(C)(C)C1=NNC(=NC1=O)SC
InChI: InChI=1S/C8H13N3OS/c1-8(2,3)5-6(12)9-7(13-4)11-10-5/h1-4H3,(H,9,11,12)
Instrument: Q Exactive Plus Orbitrap Thermo Scientific
Instrument type: LC-ESI-QFT
Ms type: MS2
Ion mode: POSITIVE
Ionization: ESI
Fragmentation mode: HCD
Collision energy: 45 (nominal)
Resolution: 35000
Column name: XBridge C18 3.5um, 2.1x50mm, Waters
Retention time: 7.3 min
Base peak: 200.085
Precursor m/z: 200.0852
Precursor type: [M+H]+
m/z	relative intensity	assigned
57.0699	223	C4H9+
69.0698	1	C5H9+
74.0058	28	C2H4NS+
74.9899	1	C2H3OS+
82.065	1	C5H8N+
84.0807	34	C5H10N+
89.0168	52	C2H5N2S+
97.0647	8	C6H9O+
112.0756	6	C6H10NO+
114.9961	2	C3H3N2OS+
116.0277	158	C3H6N3S+
124.0869	5	C6H10N3+
126.1026	2	C6H12N3+
127.0864	2	C6H11N2O+
130.0433	27	C4H8N3S+
142.0431	2	C5H8N3S+
144.0226	15	C4H6N3OS+
156.0586	4	C6H10N3S+
157.0668	71	C6H11N3S+
172.0902	846	C7H14N3S+
185.0617	9	C7H11N3OS+
200.0851	999	C8H14N3OS+
