Mass spectrum: Flubendazole; LC-ESI-QFT; MS2; CE: 150; R=35000; [M+H]+
Name: Flubendazole
Name: Methyl N-[6-(4-fluorobenzoyl)-1H-benzimidazol-2-yl]carbamate
Formula: C16H12FN3O3
Exact mass: 313.08627
SMILES: COC(=O)NC1=NC2=C(N1)C=C(C=C2)C(=O)C3=CC=C(C=C3)F
InChI: InChI=1S/C16H12FN3O3/c1-23-16(22)20-15-18-12-7-4-10(8-13(12)19-15)14(21)9-2-5-11(17)6-3-9/h2-8H,1H3,(H2,18,19,20,22)
Instrument: Q Exactive Plus Orbitrap Thermo Scientific
Instrument type: LC-ESI-QFT
Ms type: MS2
Ion mode: POSITIVE
Ionization: ESI
Fragmentation mode: HCD
Collision energy: 150 (nominal)
Resolution: 35000
Column name: XBridge C18 3.5um, 2.1x50mm, Waters
Retention time: 8.1 min
Base peak: 314.093
Precursor m/z: 314.0935
Precursor type: [M+H]+
m/z	relative intensity	assigned
50.0151	13	C4H2+
51.0229	5	C4H3+
52.0182	5	C3H2N+
52.0308	1	C4H4+
53.0022	25	C3HO+
53.026	1	C3H3N+
54.0339	1	C3H4N+
55.0179	1	C3H3O+
57.0136	1	C3H2F+
61.0073	2	C5H+
62.0151	6	C5H2+
63.023	19	C5H3+
64.0182	10	C4H2N+
64.0308	5	C5H4+
65.0022	2	C4HO+
65.026	4	C4H3N+
65.0386	8	C5H5+
66.01	1	C4H2O+
66.0464	1	C5H6+
67.0417	8	C4H5N+
68.0495	1	C4H6N+
69.0084	6	C2HN2O+
69.0135	21	C4H2F+
71.0292	26	C4H4F+
74.0151	245	C6H2+
75.0229	999	C6H3+
76.0182	63	C5H2N+
77.026	185	C5H3N+
78.0338	60	C5H4N+
79.0179	9	C5H3O+
79.0417	7	C5H5N+
80.0369	2	C4H4N2+
83.0292	3	C5H4F+
89.0022	1	C6HO+
89.026	2	C6H3N+
90.0339	8	C6H4N+
91.0418	3	C6H5N+
92.0495	1	C6H6N+
93.0337	5	C6H5O+
94.0288	1	C5H4NO+
95.0292	137	C6H4F+
95.0363	7	C5H5NO+
96.0444	7	C5H6NO+
99.0237	5	C5H4FO+
103.0291	24	C6H3N2+
103.0417	1	C7H5N+
104.037	89	C6H4N2+
105.0448	96	C6H5N2+
107.0293	4	C7H4F+
109.0449	1	C7H6F+
111.0441	1	C6H7O2+
112.0319	1	C6H5FO+
113.0398	158	C6H6FO+
116.037	4	C7H4N2+
117.0447	1	C7H5N2+
121.0398	4	C6H5N2O+
123.0354	382	C6H4FN2+
124.0325	2	C7H5FO+
125.0387	6	C10H5+
130.0401	23	C7H4N3+
131.024	2	C7H3N2O+
131.0293	5	C9H4F+
131.0479	24	C7H5N3+
132.0559	1	C7H6N3+
133.0449	14	C9H6F+
136.0269	6	C6H4N2O2+
137.0387	2	C11H5+
139.0542	2	C11H7+
140.0495	1	C10H6N+
144.037	2	C10H5F+
145.0449	1	C10H6F+
146.0527	4	C10H7F+
150.0662	1	C7H8N3O+
153.0447	1	C10H5N2+
157.045	20	C11H6F+
158.0402	15	C10H5FN+
159.0429	4	C8H5N3O+
164.0497	3	C12H6N+
168.0372	2	C12H5F+
171.0479	2	C11H6FN+
173.0512	3	C10H6FN2+
182.0402	5	C12H5FN+
184.0558	4	C12H7FN+
185.0637	1	C12H8FN+
191.0331	2	C8H5N3O3+
195.0477	1	C13H6FN+
