Mass spectrum: Ethiprole; LC-ESI-QFT; MS2; CE: 90%; R=17500; [M+H]+
Name: Ethiprole
Name: 5-amino-1-[2,6-dichloro-4-(trifluoromethyl)phenyl]-4-ethylsulfinylpyrazole-3-carbonitrile
Formula: C13H9Cl2F3N4OS
Exact mass: 395.9826
SMILES: CCS(=O)C1=C(N(N=C1C#N)C2=C(C=C(C=C2Cl)C(F)(F)F)Cl)N
InChI: InChI=1S/C13H9Cl2F3N4OS/c1-2-24(23)11-9(5-19)21-22(12(11)20)10-7(14)3-6(4-8(10)15)13(16,17)18/h3-4H,2,20H2,1H3
Instrument: Exploris 240 Orbitrap Thermo Scientific
Instrument type: LC-ESI-QFT
Ms type: MS2
Ion mode: POSITIVE
Ionization: ESI
Fragmentation mode: HCD
Collision energy: 90 % (nominal)
Resolution: 17500
Column name: XBridge C18 3.5um, 2.1x50mm, Waters
Retention time: 8.795 min
Base peak: 396.9896
Precursor m/z: 396.9899
Precursor type: [M+H]+
m/z	relative intensity	assigned
69.9748	14	C2NS+
166.9868	20	C6H3ClF3+
177.9792	50	C7H2ClF3+
183.0169	27	C2H10ClF2N2OS+
189.9866	44	C7H3ClF2NO+
191.9822	374	C7H2ClF3N+
192.9907	75	C7H3ClF3N+
200.948	313	C6H2Cl2F3+
207.9528	124	C7H2Cl2F2N+
209.9931	20	C13H3FS+
212.948	577	C7H2Cl2F3+
218.9939	30	C8H3ClF3N2+
220.0006	195	C11HF3NO+
227.9589	999	C7H3Cl2F3N+
244.9958	23	C9H3ClF3N3+
254.9698	837	C8H4Cl2F3N2+
261.9569	16	C11H2Cl2N3O+
