Mass spectrum: Genistein; LC-ESI-QFT; MS2; CE: 150; R=35000; [M-H]-
Name: Genistein
Name: 5,7-dihydroxy-3-(4-hydroxyphenyl)chromen-4-one
Formula: C15H10O5
Exact mass: 270.05282
SMILES: C1=CC(=CC=C1C2=COC3=CC(=CC(=C3C2=O)O)O)O
InChI: InChI=1S/C15H10O5/c16-9-3-1-8(2-4-9)11-7-20-13-6-10(17)5-12(18)14(13)15(11)19/h1-7,16-18H
Instrument: Q Exactive Plus Orbitrap Thermo Scientific
Instrument type: LC-ESI-QFT
Ms type: MS2
Ion mode: NEGATIVE
Ionization: ESI
Fragmentation mode: HCD
Collision energy: 150 (nominal)
Resolution: 35000
Column name: XBridge C18 3.5um, 2.1x50mm, Waters
Retention time: 7.7 min
Base peak: 269.0453
Precursor m/z: 269.0455
Precursor type: [M-H]-
m/z	relative intensity	assigned
51.0241	2	C4H3-
61.0084	19	C5H-
62.0162	12	C5H2-
63.0241	315	C5H3-
63.9955	111	C4O-
65.0033	999	C4HO-
67.019	9	C4H3O-
68.9983	10	C3HO2-
73.0084	2	C6H-
75.0241	2	C6H3-
77.0033	3	C5HO-
77.0397	12	C6H5-
79.9904	1	C4O2-
83.0138	13	C4H3O2-
88.0318	11	C7H4-
89.0033	14	C6HO-
89.0397	19	C7H5-
91.019	38	C6H3O-
92.0267	8	C6H4O-
93.0344	10	C6H5O-
95.0136	2	C5H3O2-
95.0502	33	C6H7O-
101.0394	7	C8H5-
103.0187	2	C7H3O-
104.0268	25	C7H4O-
107.0135	7	C6H3O2-
108.0215	2	C6H4O2-
112.0318	5	C9H4-
115.055	8	C9H7-
116.0268	51	C8H4O-
117.0346	50	C8H5O-
119.05	3	C8H7O-
120.0213	9	C7H4O2-
123.0452	14	C7H7O2-
125.0394	1	C10H5-
128.0268	28	C9H4O-
129.0348	12	C9H5O-
130.042	5	C9H6O-
132.0217	235	C8H4O2-
133.0296	25	C8H5O2-
134.0374	70	C8H6O2-
135.045	2	C8H7O2-
140.0266	14	C10H4O-
141.0346	16	C10H5O-
143.05	2	C10H7O-
145.0291	1	C9H5O2-
154.0422	5	C11H6O-
155.0495	2	C11H7O-
156.0211	2	C10H4O2-
167.0503	11	C12H7O-
169.0287	1	C11H5O2-
195.0445	2	C13H7O2-
