Mass spectrum: Metalaxyl; LC-ESI-ITFT; MS2; CE: 30%; R=7500; [M+H]+
Name: Metalaxyl
Name: 2-(N-(2-methoxy-1-oxoethyl)-2,6-dimethylanilino)propanoic acid methyl ester
Formula: C15H21NO4
Exact mass: 279.1465
SMILES: CC1=C(C(=CC=C1)C)N(C(C)C(=O)OC)C(=O)COC
InChI: InChI=1S/C15H21NO4/c1-10-7-6-8-11(2)14(10)16(13(17)9-19-4)12(3)15(18)20-5/h6-8,12H,9H2,1-5H3
Instrument: LTQ Orbitrap XL Thermo Scientific
Instrument type: LC-ESI-ITFT
Ms type: MS2
Ion mode: POSITIVE
Ionization: ESI
Fragmentation mode: HCD
Collision energy: 30 % (nominal)
Resolution: 7500
Column name: XBridge C18 3.5um, 2.1x50mm, Waters
Retention time: 8.7 min
Base peak: 302.1365
Precursor m/z: 280.1543
Precursor type: [M+H]+
m/z	relative intensity	assigned
133.0883	3	C9H11N+
134.096	7	C9H12N+
146.0961	5	C10H12N+
148.112	104	C10H14N+
160.112	196	C11H14N+
162.1275	16	C11H16N+
165.1149	19	C10H15NO+
188.1068	9	C12H14NO+
192.1384	999	C12H18NO+
208.1329	7	C12H18NO2+
220.1333	934	C13H18NO2+
248.1278	114	C14H18NO3+
252.1584	5	C14H22NO3+
280.1541	51	C15H22NO4+
