Mass spectrum: N-Bisdesmethyl Tramadol; LC-ESI-QFT; MS2; CE: 60; R=35000; [M+H]+
Name: N-Bisdesmethyl Tramadol
Name: 2-(aminomethyl)-1-(3-methoxyphenyl)cyclohexan-1-ol
Formula: C14H21NO2
Exact mass: 235.15723
SMILES: COC1=CC=CC(=C1)C2(CCCCC2CN)O
InChI: InChI=1S/C14H21NO2/c1-17-13-7-4-6-11(9-13)14(16)8-3-2-5-12(14)10-15/h4,6-7,9,12,16H,2-3,5,8,10,15H2,1H3
Instrument: Q Exactive Plus Orbitrap Thermo Scientific
Instrument type: LC-ESI-QFT
Ms type: MS2
Ion mode: POSITIVE
Ionization: ESI
Fragmentation mode: HCD
Collision energy: 60 (nominal)
Resolution: 35000
Column name: XBridge C18 3.5um, 2.1x50mm, Waters
Retention time: 5.2 min
Base peak: 236.1644
Precursor m/z: 236.1645
Precursor type: [M+H]+
m/z	relative intensity	assigned
53.0385	1	C4H5+
55.0542	3	C4H7+
67.0541	3	C5H7+
77.0383	1	C6H5+
78.0463	3	C6H6+
79.0542	10	C6H7+
81.0699	104	C6H9+
91.0542	17	C7H7+
93.0699	9	C7H9+
95.0492	1	C6H7O+
106.0412	1	C7H6O+
109.0647	8	C7H9O+
119.0603	1	C7H7N2+
121.0648	999	C8H9O+
135.0804	6	C9H11O+
144.057	3	C10H8O+
145.0647	2	C10H9O+
147.0805	40	C10H11O+
158.0726	3	C11H10O+
159.0804	11	C11H11O+
160.0884	1	C11H12O+
173.0963	2	C12H13O+
189.1274	110	C13H17O+
201.1276	1	C14H17O+
