Mass spectrum: Methiocarb-sulfoxide; LC-ESI-ITFT; MS2; CE: 75%; R=15000; [M+H]+
Name: Methiocarb-sulfoxide
Name: Mesurol sulfoxide
Name: (3,5-dimethyl-4-methylsulfinyl-phenyl) N-methylcarbamate
Formula: C11H15NO3S
Exact mass: 241.0773
SMILES: O=C(Oc1cc(c(c(c1)C)S(=O)C)C)NC
InChI: InChI=1S/C11H15NO3S/c1-7-5-9(15-11(13)12-3)6-8(2)10(7)16(4)14/h5-6H,1-4H3,(H,12,13)
Instrument: LTQ Orbitrap XL Thermo Scientific
Instrument type: LC-ESI-ITFT
Ms type: MS2
Ion mode: POSITIVE
Ionization: ESI
Fragmentation mode: HCD
Collision energy: 75 % (nominal)
Resolution: 15000
Column name: XBridge C18 3.5um, 2.1x50mm, Waters
Retention time: 4.9 min
Base peak: 242.0846
Precursor m/z: 242.0845
Precursor type: [M+H]+
m/z	relative intensity	assigned
53.0385	2	C4H5+
77.0385	4	C6H5+
79.0542	7	C6H7+
91.0542	15	C7H7+
93.07	4	C7H9+
94.0778	3	C7H10+
95.0494	3	C6H7O+
103.0543	9	C8H7+
104.0622	1	C8H8+
105.0447	4	C6H5N2+
107.0491	114	C7H7O+
108.0568	3	C7H8O+
109.0648	55	C7H9O+
121.0648	91	C8H9O+
122.0726	999	C8H10O+
123.0441	4	C7H7O2+
123.0804	3	C8H11O+
125.0419	4	C7H9S+
135.0806	2	C9H11O+
136.0882	6	C9H12O+
137.0598	3	C8H9O2+
138.0675	16	C8H10O2+
139.0574	1	C8H11S+
151.0209	5	C8H7OS+
152.0291	59	C8H8OS+
153.0369	456	C8H9OS+
168.0604	443	C9H12OS+
170.0396	608	C8H10O2S+
185.063	81	C9H13O2S+
