Mass spectrum: Chlorthiazide; LC-ESI-QFT; MS2; CE: 180; R=35000; [M+H]+
Name: Chlorthiazide
Name: 6-chloro-1,1-dioxo-4H-1$l^{6},2,4-benzothiadiazine-7-sulfonamide
Formula: C7H6ClN3O4S2
Exact mass: 294.94883
SMILES: C1=C2C(=CC(=C1Cl)S(=O)(=O)N)S(=O)(=O)NC=N2
InChI: InChI=1S/C7H6ClN3O4S2/c8-4-1-5-7(2-6(4)16(9,12)13)17(14,15)11-3-10-5/h1-3H,(H,10,11)(H2,9,12,13)
Instrument: Q Exactive Plus Orbitrap Thermo Scientific
Instrument type: LC-ESI-QFT
Ms type: MS2
Ion mode: POSITIVE
Ionization: ESI
Fragmentation mode: HCD
Collision energy: 180 (nominal)
Resolution: 35000
Column name: XBridge C18 3.5um, 2.1x50mm, Waters
Retention time: 1.9 min
Base peak: 295.956
Precursor m/z: 295.9561
Precursor type: [M+H]+
m/z	relative intensity	assigned
50.0151	57	C4H2+
51.0104	4	C3HN+
51.023	37	C4H3+
52.0182	192	C3H2N+
53.0022	39	C3HO+
53.9975	10	C2NO+
54.0339	7	C3H4N+
55.0179	12	C3H3O+
55.0292	1	C2H3N2+
56.9793	5	C2HS+
57.9871	1	C2H2S+
59.9665	3	COS+
59.9903	1	CH2NS+
60.984	19	C2H2Cl+
61.0073	209	C5H+
61.9792	85	CHClN+
62.0151	779	C5H2+
63.0229	999	C5H3+
63.9851	36	H2NOS+
64.0182	196	C4H2N+
65.0022	14	C4HO+
65.026	73	C4H3N+
66.0338	24	C4H4N+
67.029	3	C3H3N2+
67.0417	11	C4H5N+
68.0131	25	C3H2NO+
68.9793	94	C3HS+
69.9746	5	C2NS+
69.9873	7	C3H2S+
70.9683	5	C3Cl+
71.9761	2	C3HCl+
71.9903	1	C2H2NS+
72.9839	214	C3H2Cl+
73.9792	20	C2HClN+
74.0151	46	C6H2+
74.987	13	C2H2ClN+
74.9996	6	C3H4Cl+
75.0103	50	C5HN+
75.0229	12	C6H3+
76.0181	142	C5H2N+
77.0022	42	C5HO+
77.026	2	C5H3N+
78.0101	8	C5H2O+
78.0338	55	C5H4N+
78.9403	21	CClS+
79.0178	16	C5H3O+
79.0291	1	C4H3N2+
79.0416	6	C5H5N+
79.98	5	H2NO2S+
80.013	1	C4H2NO+
80.0494	3	C5H6N+
80.9793	24	C4HS+
81.0209	4	C4H3NO+
81.0335	10	C5H5O+
81.9871	3	C4H2S+
82.9825	1	C3HNS+
83.9664	4	C3OS+
83.9762	5	C4HCl+
84.9839	40	C4H2Cl+
85.9792	93	C3HClN+
86.9633	10	C3ClO+
86.9996	5	C4H4Cl+
87.9948	10	C3H3ClN+
88.0182	74	C6H2N+
89.026	143	C6H3N+
90.0339	207	C6H4N+
91.0177	1	C6H3O+
91.0292	1	C5H3N2+
91.0417	2	C6H5N+
92.0133	1	C5H2NO+
92.9794	14	C5HS+
93.0447	8	C5H5N2+
95.9664	30	C4OS+
95.9762	9	C5HCl+
95.9903	1	C4H2NS+
96.984	178	C5H2Cl+
97.9792	60	C4HClN+
97.9918	3	C5H3Cl+
99.9949	7	C4H3ClN+
102.0105	3	C4H5ClN+
102.9404	10	C3ClS+
104.9561	13	C3H2ClS+
105.0447	4	C6H5N2+
105.9746	32	C5NS+
106.0288	3	C6H4NO+
106.9824	91	C5HNS+
107.9773	5	C4N2S+
107.9902	4	C5H2NS+
108.0443	7	C6H6NO+
110.9632	17	C5ClO+
111.9948	3	C5H3ClN+
114.0105	1	C5H5ClN+
116.0371	3	C7H4N2+
117.0447	64	C7H5N2+
118.0287	2	C7H4NO+
123.9947	4	C6H3ClN+
125.0026	1	C6H4ClN+
129.0212	1	C5H6ClN2+
