Mass spectrum: Fenoxycarb; LC-ESI-ITFT; MS2; CE: 45%; R=15000; [M+H]+
Name: Fenoxycarb
Name: N-[2-(4-phenoxyphenoxy)ethyl]carbamic acid ethyl ester
Formula: C17H19NO4
Exact mass: 301.1314
SMILES: O=C(OCC)NCCOc2ccc(Oc1ccccc1)cc2
InChI: InChI=1S/C17H19NO4/c1-2-20-17(19)18-12-13-21-14-8-10-16(11-9-14)22-15-6-4-3-5-7-15/h3-11H,2,12-13H2,1H3,(H,18,19)
Instrument: LTQ Orbitrap XL Thermo Scientific
Instrument type: LC-ESI-ITFT
Ms type: MS2
Ion mode: POSITIVE
Ionization: ESI
Fragmentation mode: HCD
Collision energy: 45 % (nominal)
Resolution: 15000
Column name: XBridge C18 3.5um, 2.1x50mm, Waters
Retention time: 12.6 min
Base peak: 302.1394
Precursor m/z: 302.1387
Precursor type: [M+H]+
m/z	relative intensity	assigned
66.0464	2	C5H6+
70.0288	15	C3H4NO+
72.0808	2	C4H10N+
88.0393	999	C3H6NO2+
91.0543	1	C7H7+
94.0413	10	C6H6O+
107.049	1	C7H7O+
116.0706	104	C5H10NO2+
118.0414	3	C8H6O+
119.0492	1	C8H7O+
119.073	1	C8H9N+
120.0569	7	C8H8O+
129.0695	1	C10H9+
141.0699	1	C11H9+
146.0599	1	C9H8NO+
163.0628	13	C9H9NO2+
165.0697	1	C13H9+
167.0856	2	C13H11+
169.065	2	C12H9O+
183.0805	9	C13H11O+
185.0597	11	C12H9O2+
185.0961	2	C13H13O+
186.0675	9	C12H10O2+
187.0754	5	C12H11O2+
195.0805	4	C14H11O+
198.0673	1	C13H10O2+
211.0754	13	C14H11O2+
213.0546	21	C13H9O3+
213.0911	6	C14H13O2+
238.0869	3	C15H12NO2+
256.0969	48	C15H14NO3+
