Mass spectrum: Methacrifos; LC-ESI-QFT; MS2; CE: 90%; R=17500; [M+H]+
Name: Methacrifos
Name: Methyl 3-((dimethoxyphosphinothioyl)oxy)methacrylate
Name: methyl 3-dimethoxyphosphinothioyloxy-2-methylprop-2-enoate
Formula: C7H13O5PS
Exact mass: 240.0221
SMILES: CC(=COP(=S)(OC)OC)C(=O)OC
InChI: InChI=1S/C7H13O5PS/c1-6(7(8)9-2)5-12-13(14,10-3)11-4/h5H,1-4H3
Instrument: Exploris 240 Orbitrap Thermo Scientific
Instrument type: LC-ESI-QFT
Ms type: MS2
Ion mode: POSITIVE
Ionization: ESI
Fragmentation mode: HCD
Collision energy: 90 % (nominal)
Resolution: 17500
Column name: XBridge C18 3.5um, 2.1x50mm, Waters
Retention time: 7.717 min
Base peak: 209.0029
Precursor m/z: 241.0294
Precursor type: [M+H]+
m/z	relative intensity	assigned
56.0256	10	C3H4O+
59.0128	6	C2H3O2+
59.049	38	C3H7O+
62.0184	118	C2H6S+
62.9994	36	CH4OP+
67.0178	72	C4H3O+
70.9949	91	C3H3S+
78.9943	999	CH4O2P+
93.01	84	C2H6O2P+
94.9714	5	CH4OPS+
97.0049	15	CH6O3P+
98.9899	82	C4H3OS+
99.044	6	C5H7O2+
103.0211	7	C4H7OS+
109.0049	145	C2H6O3P+
110.9665	40	CH4O2PS+
124.982	694	C2H6O2PS+
127.0155	297	C2H8O4P+
128.977	19	CH6O3PS+
131.016	9	C5H7O2S+
141.0309	10	C3H10O4P+
142.9927	184	C2H8O3PS+
157.0082	32	C3H10O3PS+
