Mass spectrum: Penciclovir; LC-ESI-QFT; MS2; CE: 60; R=35000; [M-H]-
Name: Penciclovir
Name: 2-amino-9-[4-hydroxy-3-(hydroxymethyl)butyl]-3H-purin-6-one
Formula: C10H15N5O3
Exact mass: 253.11749
SMILES: C1=NC2=C(N1CCC(CO)CO)N=C(NC2=O)N
InChI: InChI=1S/C10H15N5O3/c11-10-13-8-7(9(18)14-10)12-5-15(8)2-1-6(3-16)4-17/h5-6,16-17H,1-4H2,(H3,11,13,14,18)
Instrument: Q Exactive Orbitrap Thermo Scientific
Instrument type: LC-ESI-QFT
Ms type: MS2
Ion mode: NEGATIVE
Ionization: ESI
Fragmentation mode: HCD
Collision energy: 60 (nominal)
Resolution: 35000
Column name: XBridge C18 3.5um, 2.1x50mm, Waters
Retention time: 1.1 min
Base peak: 252.1103
Precursor m/z: 252.1102
Precursor type: [M-H]-
m/z	relative intensity	assigned
64.0067	2	C3N2-
65.0145	67	C3HN2-
65.9985	13	C3NO-
66.0097	28	C2N3-
67.0302	6	C3H3N2-
78.0098	9	C3N3-
79.0176	3	C3HN3-
80.0254	2	C3H2N3-
82.0411	37	C3H4N3-
83.0252	1	C3H3N2O-
90.0099	7	C4N3-
92.0254	1	C4H2N3-
96.0202	1	C3H2N3O-
96.0454	2	C5H6NO-
105.0207	2	C4HN4-
106.0285	111	C4H2N4-
107.0126	23	C4HN3O-
107.0363	155	C4H3N4-
108.0203	300	C4H2N3O-
109.0519	1	C4H5N4-
110.0361	4	C4H4N3O-
119.0363	1	C5H3N4-
119.0614	6	C7H7N2-
121.0155	1	C4HN4O-
124.0389	1	C4H4N4O-
125.0469	62	C4H5N4O-
126.0309	170	C4H4N3O2-
132.0317	1	C5H2N5-
133.0156	999	C5HN4O-
137.072	6	C7H9N2O-
149.0343	100	C5H3N5O-
150.042	830	C5H4N5O-
151.026	13	C5H3N4O2-
152.0576	1	C5H6N5O-
161.0832	1	C8H9N4-
162.0422	8	C6H4N5O-
176.0579	1	C7H6N5O-
180.0781	1	C8H10N3O2-
190.0622	1	C9H8N3O2-
204.0887	1	C9H10N5O-
209.1045	4	C9H13N4O2-
210.0884	17	C9H12N3O3-
220.084	1	C9H10N5O2-
252.1101	26	C10H14N5O3-
