Mass spectrum: Benserazide; LC-ESI-QFT; MS2; CE: 60; R=35000; [M+H]+
Name: Benserazide
Name: 2-amino-3-hydroxy-N`-(2,3,4-trihydroxybenzyl)propionohydrazide
Formula: C10H15N3O5
Exact mass: 257.10117
SMILES: O=C(NNCc1c(O)c(O)c(O)cc1)C(N)CO
InChI: InChI=1S/C10H15N3O5/c11-6(4-14)10(18)13-12-3-5-1-2-7(15)9(17)8(5)16/h1-2,6,12,14-17H,3-4,11H2,(H,13,18)
Instrument: Q Exactive Orbitrap Thermo Scientific
Instrument type: LC-ESI-QFT
Ms type: MS2
Ion mode: POSITIVE
Ionization: ESI
Fragmentation mode: HCD
Collision energy: 60 (nominal)
Resolution: 35000
Column name: XBridge C18 3.5um, 2.1x50mm, Waters
Retention time: 0.8 min
Base peak: 182.9024
Precursor m/z: 258.1084
Precursor type: [M+H]+
m/z	relative intensity	assigned
57.0448	12	C2H5N2+
59.024	18	CH3N2O+
60.0444	107	C2H6NO+
61.0397	35	CH5N2O+
65.0386	47	C5H5+
68.013	4	C3H2NO+
70.0287	3	C3H4NO+
71.0127	4	C3H3O2+
73.0283	1	C3H5O2+
85.0396	927	C3H5N2O+
93.0334	9	C6H5O+
103.0502	260	C3H7N2O2+
111.044	65	C6H7O2+
120.0767	48	C3H10N3O2+
121.0283	54	C7H5O2+
139.0389	999	C7H7O3+
