Mass spectrum: Mecarbam; LC-ESI-QFT; MS2; CE: 60%; R=17500; [M+H]+
Name: Mecarbam
Name: ethyl N-(2-diethoxyphosphinothioylsulfanylacetyl)-N-methylcarbamate
Formula: C10H20NO5PS2
Exact mass: 329.0521
SMILES: CCOC(=O)N(C)C(=O)CSP(=S)(OCC)OCC
InChI: InChI=1S/C10H20NO5PS2/c1-5-14-10(13)11(4)9(12)8-19-17(18,15-6-2)16-7-3/h5-8H2,1-4H3
Instrument: Exploris 240 Orbitrap Thermo Scientific
Instrument type: LC-ESI-QFT
Ms type: MS2
Ion mode: POSITIVE
Ionization: ESI
Fragmentation mode: HCD
Collision energy: 60 % (nominal)
Resolution: 17500
Column name: XBridge C18 3.5um, 2.1x50mm, Waters
Retention time: 9.793 min
Base peak: 243.0634
Precursor m/z: 330.0593
Precursor type: [M+H]+
m/z	relative intensity	assigned
58.0287	124	C2H4NO+
64.9787	9	H2O2P+
74.9898	16	C2H3OS+
75.026	13	C3H7S+
96.9507	999	H2O2PS+
110.9661	28	CH4O2PS+
114.9612	418	H4O3PS+
116.0341	511	C4H6NO3+
124.982	205	C2H6O2PS+
126.9437	13	CH4OPS2+
128.9228	268	H2O2PS2+
128.9771	19	CH6O3PS+
132.0112	29	C4H6NO2S+
142.9384	777	CH4O2PS2+
153.0133	39	C4H10O2PS+
156.9541	87	C2H6O2PS2+
170.9328	57	C2H4O3PS2+
170.9695	43	C3H8O2PS2+
184.9856	6	C4H10O2PS2+
