Mass spectrum: Spirotetramat BYI08330-enol; LC-ESI-QFT; MS2; CE: 45%; R=17500; [M+H]+
Name: Spirotetramat BYI08330-enol
Name: Cis-3-(2,5-dimethylphenyl)-4-hydroxy-8-methoxy-1-azaspiro(4.5)dec-3-en-2-one
Name: 3-(2,5-dimethylphenyl)-4-hydroxy-8-methoxy-1-azaspiro[4.5]dec-3-en-2-one
Formula: C18H23NO3
Exact mass: 301.1678
SMILES: CC1=CC(=C(C=C1)C)C2=C(C3(CCC(CC3)OC)NC2=O)O
InChI: InChI=1S/C18H23NO3/c1-11-4-5-12(2)14(10-11)15-16(20)18(19-17(15)21)8-6-13(22-3)7-9-18/h4-5,10,13,20H,6-9H2,1-3H3,(H,19,21)
Instrument: Exploris 240 Orbitrap Thermo Scientific
Instrument type: LC-ESI-QFT
Ms type: MS2
Ion mode: POSITIVE
Ionization: ESI
Fragmentation mode: HCD
Collision energy: 45 % (nominal)
Resolution: 17500
Column name: XBridge C18 3.5um, 2.1x50mm, Waters
Retention time: 6.514 min
Base peak: 302.1748
Precursor m/z: 302.1751
Precursor type: [M+H]+
m/z	relative intensity	assigned
96.0806	14	C6H10N+
117.07	40	C9H9+
119.0857	26	C9H11+
124.0756	11	C7H10NO+
131.0854	9	C10H11+
136.0759	9	C8H10NO+
143.0857	18	C11H11+
145.0649	17	C10H9O+
147.0798	10	C10H11O+
155.0855	34	C12H11+
171.0802	9	C12H11O+
173.0597	112	C11H9O2+
183.1169	19	C14H15+
197.1323	52	C15H17+
207.1164	17	C16H15+
214.1596	11	C15H20N+
216.1019	861	C13H14NO2+
225.1271	58	C16H17O+
228.1021	13	C14H14NO2+
253.1225	100	C17H17O2+
270.1489	999	C17H20NO2+
302.1751	642	C18H24NO3+
