Mass spectrum: Fosinopril; LC-ESI-QFT; MS2; CE: 30; R=35000; [M+H]+
Name: Fosinopril
Name: (2S,4S)-4-cyclohexyl-1-[2-[(2-methyl-1-propanoyloxypropoxy)-(4-phenylbutyl)phosphoryl]acetyl]pyrrolidine-2-carboxylic acid
Formula: C30H46NO7P
Exact mass: 563.30119
SMILES: O=C(CP(=O)(CCCCc1ccccc1)OC(OC(=O)CC)C(C)C)N2C[C@@H](C[C@H]2C(O)=O)C3CCCCC3
InChI: InChI=1S/C30H46NO7P/c1-4-28(33)37-30(22(2)3)38-39(36,18-12-11-15-23-13-7-5-8-14-23)21-27(32)31-20-25(19-26(31)29(34)35)24-16-9-6-10-17-24/h5,7-8,13-14,22,24-26,30H,4,6,9-12,15-21H2,1-3H3,(H,34,35)/t25-,26+,30?,39?/m1/s1
Instrument: Q Exactive Orbitrap Thermo Scientific
Instrument type: LC-ESI-QFT
Ms type: MS2
Ion mode: POSITIVE
Ionization: ESI
Fragmentation mode: HCD
Collision energy: 30 (nominal)
Resolution: 35000
Column name: XBridge C18 3.5um, 2.1x50mm, Waters
Retention time: 16.6 min
Base peak: 564.3085
Precursor m/z: 564.3085
Precursor type: [M+H]+
m/z	relative intensity	assigned
152.1434	567	C10H18N+
176.1434	5	C12H18N+
179.0615	1	C10H12OP+
194.1539	7	C12H20NO+
197.0726	8	C10H14O2P+
198.1488	10	C11H20NO2+
221.0726	34	C12H14O2P+
222.1487	1	C13H20NO2+
239.0829	5	C12H16O3P+
348.209	11	C20H31NO2P+
372.2087	128	C22H31NO2P+
390.2192	999	C22H33NO3P+
418.214	177	C23H33NO4P+
436.2245	138	
