Mass spectrum: Metolachlor-TP SYN542490; LC-ESI-QFT; MS2; CE: 75%; R=17500; [M-H]-
Name: Metolachlor-TP SYN542490
Formula: C15H21NO6S
Exact mass: 343.1090
SMILES: O=S(=O)(O)CC(=O)N(C(C)COC)c1c(C)cccc1C(C)=O
InChI: InChI=1S/C15H21NO6S/c1-10-6-5-7-13(12(3)17)15(10)16(11(2)8-22-4)14(18)9-23(19,20)21/h5-7,11H,8-9H2,1-4H3,(H,19,20,21)
Instrument: Exploris 240 Orbitrap Thermo Scientific
Instrument type: LC-ESI-QFT
Ms type: MS2
Ion mode: NEGATIVE
Ionization: ESI
Fragmentation mode: HCD
Collision energy: 75 % (nominal)
Resolution: 17500
Column name: XBridge C18 3.5um, 2.1x50mm, Waters
Retention time: 4.678 min
Base peak: 342.1014
Precursor m/z: 342.1017
Precursor type: [M-H]-
m/z	relative intensity	assigned
59.0138	24	C2H3O2-
76.9703	207	CHO2S-
79.9574	999	O3S-
80.9649	6	HO3S-
93.9729	27	CH2O3S-
94.9809	14	CH3O3S-
107.0503	109	C7H7O-
118.9682	130	C2HNO3S-
119.9761	37	C2H2NO3S-
120.9601	96	C2HO4S-
149.0607	317	C9H9O2-
170.0976	17	C12H12N-
172.0767	6	C11H10NO-
