Mass spectrum: Acifluorfen; LC-ESI-QFT; MS2; CE: 60; R=35000; [M-H]-
Name: Acifluorfen
Name: 5-[2-chloranyl-4-(trifluoromethyl)phenoxy]-2-nitro-benzoic acid
Formula: C14H7ClF3NO5
Exact mass: 360.99648
SMILES: Clc2cc(ccc2Oc1cc(C(=O)O)c([N+]([O-])=O)cc1)C(F)(F)F
InChI: InChI=1S/C14H7ClF3NO5/c15-10-5-7(14(16,17)18)1-4-12(10)24-8-2-3-11(19(22)23)9(6-8)13(20)21/h1-6H,(H,20,21)
Instrument: Q Exactive Orbitrap Thermo Scientific
Instrument type: LC-ESI-QFT
Ms type: MS2
Ion mode: NEGATIVE
Ionization: ESI
Fragmentation mode: HCD
Collision energy: 60 (nominal)
Resolution: 35000
Column name: XBridge C18 3.5um, 2.1x50mm, Waters
Retention time: 12.3 min
Base peak: 315.9994
Precursor m/z: 359.9892
Precursor type: [M-H]-
m/z	relative intensity	assigned
65.9986	3	C3NO-
69.0346	31	C4H5O-
79.0189	1	C5H3O-
81.0345	1	C5H5O-
95.0139	3	C5H3O2-
97.0295	23	C5H5O2-
107.0139	14	C6H3O2-
123.0086	3	C6H3O3-
125.0244	22	C6H5O3-
137.0118	43	C6H3NO3-
159.0063	13	C7H2F3O-
174.9767	65	C7H2ClF2O-
182.0175	3	C12H3FO-
194.9831	999	C7H3ClF3O-
198.0295	11	C10H5F3O-
202.0234	13	C12H4F2O-
222.0298	141	C12H5F3O-
240.0405	1	C12H6N3O3-
284.9935	2	C13H5ClF3O2-
