Mass spectrum: Lorazepam; LC-ESI-QFT; MS2; CE: 30; R=35000; [M+H]+
Name: Lorazepam
Name: 2H-1,4-Benzodiazepin-2-one, 7-chloro-5-(2-chlorophenyl)-1,3-dihydro-3-hydroxy-
Name: 7-chloranyl-5-(2-chlorophenyl)-3-oxidanyl-1,3-dihydro-1,4-benzodiazepin-2-one
Formula: C15H10Cl2N2O2
Exact mass: 320.01193
SMILES: Clc3ccccc3C/2=N/C(O)C(=O)Nc1c\2cc(Cl)cc1
InChI: InChI=1S/C15H10Cl2N2O2/c16-8-5-6-12-10(7-8)13(19-15(21)14(20)18-12)9-3-1-2-4-11(9)17/h1-7,15,21H,(H,18,20)
Instrument: Q Exactive Orbitrap Thermo Scientific
Instrument type: LC-ESI-QFT
Ms type: MS2
Ion mode: POSITIVE
Ionization: ESI
Fragmentation mode: HCD
Collision energy: 30 (nominal)
Resolution: 35000
Column name: XBridge C18 3.5um, 2.1x50mm, Waters
Retention time: 8.9 min
Base peak: 321.0195
Precursor m/z: 321.0192
Precursor type: [M+H]+
m/z	relative intensity	assigned
128.026	6	C6H7ClN+
138.0105	7	C7H5ClN+
156.0211	3	C7H7ClNO+
163.0055	2	C8H4ClN2+
166.0053	9	C8H5ClNO+
229.0528	74	C13H10ClN2+
250.0186	8	C13H10Cl2N+
265.0295	52	C13H11Cl2N2+
275.0137	999	C14H9Cl2N2+
275.9978	6	C14H8Cl2NO+
285.043	1	C15H10ClN2O2+
292.0164	4	C14H10Cl2N2O+
303.0086	543	C15H9Cl2N2O+
321.0191	173	C15H11Cl2N2O2+
