Mass spectrum: Fluroxypyr; LC-ESI-ITFT; MS2; CE: 90%; R=7500; [M+H]+
Name: Fluroxypyr
Name: 2-(4-amino-3,5-dichloro-6-fluoropyridin-2-yl)oxyacetic acid
Formula: C7H5Cl2FN2O3
Exact mass: 253.9667
SMILES: c1(c(c(c(Cl)c(n1)F)N)Cl)OCC(O)=O
InChI: InChI=1S/C7H5Cl2FN2O3/c8-3-5(11)4(9)7(12-6(3)10)15-1-2(13)14/h1H2,(H2,11,12)(H,13,14)
Instrument: LTQ Orbitrap XL Thermo Scientific
Instrument type: LC-ESI-ITFT
Ms type: MS2
Ion mode: POSITIVE
Ionization: ESI
Fragmentation mode: HCD
Collision energy: 90 % (nominal)
Resolution: 7500
Column name: XBridge C18 3.5um, 2.1x50mm, Waters
Retention time: 6.9 min
Base peak: 276.9555
Precursor m/z: 254.9734
Precursor type: [M+H]+
m/z	relative intensity	assigned
90.9745	681	C3HClF+
106.9449	256	C3HCl2+
110.0276	106	C5H3FN2+
115.9897	63	C4H3ClNO+
117.9855	384	C4H2ClFN+
124.9354	613	C3Cl2F+
124.9904	146	C5H2ClN2+
125.9979	151	C5H3ClN2+
133.9559	777	C4H2Cl2N+
143.9885	478	C5H2ClFN2+
144.9966	314	C5H3ClFN2+
146.0042	999	C5H4ClFN2+
151.9465	962	C4HCl2FN+
160.9667	351	C5H3Cl2N2+
163.0068	782	C5H5ClFN2O+
178.9575	678	C5H2Cl2FN2+
178.9774	381	C5H5Cl2N2O+
180.9729	832	C5H4Cl2FN2+
196.9678	641	C5H4Cl2FN2O+
