Mass spectrum: Pyridaphenthion; LC-ESI-QFT; MS2; CE: 180%; R=17500; [M+H]+
Name: Pyridaphenthion
Name: 6-diethoxyphosphinothioyloxy-2-phenylpyridazin-3-one
Formula: C14H17N2O4PS
Exact mass: 340.0647
SMILES: CCOP(=S)(OCC)OC1=NN(C(=O)C=C1)C2=CC=CC=C2
InChI: InChI=1S/C14H17N2O4PS/c1-3-18-21(22,19-4-2)20-13-10-11-14(17)16(15-13)12-8-6-5-7-9-12/h5-11H,3-4H2,1-2H3
Instrument: Exploris 240 Orbitrap Thermo Scientific
Instrument type: LC-ESI-QFT
Ms type: MS2
Ion mode: POSITIVE
Ionization: ESI
Fragmentation mode: HCD
Collision energy: 180 % (nominal)
Resolution: 17500
Column name: XBridge C18 3.5um, 2.1x50mm, Waters
Retention time: 9.373 min
Base peak: 341.0719
Precursor m/z: 341.0719
Precursor type: [M+H]+
m/z	relative intensity	assigned
50.0152	114	C4H2+
51.023	380	C4H3+
52.0183	60	C3H2N+
53.0024	18	C3HO+
53.0386	63	C4H5+
55.018	24	C3H3O+
64.9788	394	H2O2P+
65.0386	999	C5H5+
75.023	27	C6H3+
77.0386	176	C6H5+
78.9402	188	OPS+
80.0133	24	H5N2OP+
80.0496	49	C5H6N+
89.0387	93	C7H5+
91.0418	18	C2H8N2P+
93.0574	37	C6H7N+
95.049	45	C6H7O+
96.9508	122	H2O2PS+
105.0448	52	C6H5N2+
114.9612	45	H4O3PS+
