Mass spectrum: Dehydroepiandrosterone (DHEA); LC-ESI-QFT; MS2; CE: 15; R=35000; [M+H]+
Name: Dehydroepiandrosterone (DHEA)
Name: trans-Dehydroandosterone
Name: (3S,8R,9S,10R,13S,14S)-10,13-dimethyl-3-oxidanyl-1,2,3,4,7,8,9,11,12,14,15,16-dodecahydrocyclopenta[a]phenanthren-17-one
Formula: C19H28O2
Exact mass: 288.20893
SMILES: O=C3[C@]2(CC[C@@H]1[C@@]4(C(=C/C[C@H]1[C@@H]2CC3)\C[C@@H](O)CC4)C)C
InChI: InChI=1S/C19H28O2/c1-18-9-7-13(20)11-12(18)3-4-14-15-5-6-17(21)19(15,2)10-8-16(14)18/h3,13-16,20H,4-11H2,1-2H3/t13-,14-,15-,16-,18-,19-/m0/s1
Instrument: Q Exactive Orbitrap Thermo Scientific
Instrument type: LC-ESI-QFT
Ms type: MS2
Ion mode: POSITIVE
Ionization: ESI
Fragmentation mode: HCD
Collision energy: 15 (nominal)
Resolution: 35000
Column name: XBridge C18 3.5um, 2.1x50mm, Waters
Retention time: 11.2 min
Base peak: 271.2057
Precursor m/z: 289.2162
Precursor type: [M+H]+
m/z	relative intensity	assigned
71.049	1	C4H7O+
81.0699	24	C6H9+
83.0491	1	C5H7O+
83.0855	12	C6H11+
85.0648	1	C5H9O+
91.0539	1	C7H7+
93.0699	2	C7H9+
95.0854	5	C7H11+
97.0648	20	C6H9O+
105.0698	3	C8H9+
107.0855	11	C8H11+
109.0648	1	C7H9O+
109.1012	9	C8H13+
117.0699	4	C9H9+
119.0853	5	C9H11+
121.1011	8	C9H13+
123.1168	4	C9H15+
125.0964	1	C8H13O+
131.0855	16	C10H11+
133.1011	28	C10H13+
135.1168	12	C10H15+
137.0964	5	C9H13O+
139.1117	4	C9H15O+
143.0855	14	C11H11+
145.1011	23	C11H13+
147.1169	16	C11H15+
149.1325	5	C11H17+
151.1116	17	C10H15O+
155.0853	2	C12H11+
157.1011	24	C12H13+
159.1168	33	C12H15+
161.1326	3	C12H17+
163.1118	16	C11H15O+
169.1011	8	C13H13+
171.1168	55	C13H15+
173.1325	19	C13H17+
175.1118	5	C12H15O+
175.1481	23	C13H19+
177.1276	3	C12H17O+
183.1169	12	C14H15+
185.1325	13	C14H17+
187.1483	7	C14H19+
189.1276	5	C13H17O+
189.1637	10	C14H21+
191.143	5	C13H19O+
197.1325	81	C15H17+
199.1481	3	C15H19+
201.1638	11	C15H21+
203.1432	1	C14H19O+
205.159	1	C14H21O+
211.1481	37	C16H19+
213.1638	226	C16H21+
215.1429	14	C15H19O+
225.1638	73	C17H21+
227.1795	8	C17H23+
229.1587	21	C16H21O+
229.1947	2	C17H25+
231.1744	224	C16H23O+
243.2106	1	C18H27+
253.1951	964	C19H25+
271.2056	999	C19H27O+
272.2092	1	C14H28N2O3+
289.2162	316	C19H29O2+
