Mass spectrum: Methiocarb; LC-ESI-ITFT; MS2; CE: 45%; R=15000; [M+H]+
Name: Methiocarb
Name: (3,5-dimethyl-4-methylsulfanyl-phenyl) N-methylcarbamate
Formula: C11H15NO2S
Exact mass: 225.0823
SMILES: O=C(Oc1cc(c(SC)c(c1)C)C)NC
InChI: InChI=1S/C11H15NO2S/c1-7-5-9(14-11(13)12-3)6-8(2)10(7)15-4/h5-6H,1-4H3,(H,12,13)
Instrument: LTQ Orbitrap XL Thermo Scientific
Instrument type: LC-ESI-ITFT
Ms type: MS2
Ion mode: POSITIVE
Ionization: ESI
Fragmentation mode: HCD
Collision energy: 45 % (nominal)
Resolution: 15000
Column name: XBridge C18 3.5um, 2.1x50mm, Waters
Retention time: 10.4 min
Base peak: 226.0902
Precursor m/z: 226.0896
Precursor type: [M+H]+
m/z	relative intensity	assigned
77.0386	10	C6H5+
91.0543	32	C7H7+
93.07	93	C7H9+
95.0856	1	C7H11+
105.0448	3	C6H5N2+
107.0494	5	C7H7O+
121.0649	999	C8H9O+
122.0727	252	C8H10O+
123.0804	12	C8H11O+
141.0733	4	C8H13S+
153.0369	11	C8H9OS+
154.0447	10	C8H10OS+
169.0683	341	C9H13OS+
