Mass spectrum: Naftifine; LC-ESI-QFT; MS2; CE: 15; R=35000; [M+H]+
Name: Naftifine
Name: Suadian
Name: N-methyl-N-(naphthalen-1-ylmethyl)-3-phenylprop-2-en-1-amine
Formula: C21H21N
Exact mass: 287.16740
SMILES: CN(CC=CC1=CC=CC=C1)CC2=CC=CC3=CC=CC=C32
InChI: InChI=1S/C21H21N/c1-22(16-8-11-18-9-3-2-4-10-18)17-20-14-7-13-19-12-5-6-15-21(19)20/h2-15H,16-17H2,1H3
Instrument: Q Exactive Plus Orbitrap Thermo Scientific
Instrument type: LC-ESI-QFT
Ms type: MS2
Ion mode: POSITIVE
Ionization: ESI
Fragmentation mode: HCD
Collision energy: 15 (nominal)
Resolution: 35000
Column name: XBridge C18 3.5um, 2.1x50mm, Waters
Retention time: 7.5 min
Base peak: 288.1741
Precursor m/z: 288.1747
Precursor type: [M+H]+
m/z	relative intensity	assigned
91.0541	2	C7H7+
115.0538	5	C9H7+
117.0698	999	C9H9+
141.0698	252	C11H9+
146.0964	9	C10H12N+
165.0699	4	C13H9+
170.0964	64	C12H12N+
257.1323	4	C20H17+
288.1746	668	C21H22N+
