Mass spectrum: Dexamethasone acetate; LC-ESI-QFT; MS2; CE: 75; R=35000; [M-H]-
Name: Dexamethasone acetate
Name: Dexamethason-21-acetate
Name: [2-(9-fluoro-11,17-dihydroxy-10,13,16-trimethyl-3-oxo-6,7,8,11,12,14,15,16-octahydrocyclopenta[a]phenanthren-17-yl)-2-oxoethyl] acetate
Formula: C24H31FO6
Exact mass: 434.21047
SMILES: CC1CC2C3CCC4=CC(=O)C=CC4(C3(C(CC2(C1(C(=O)COC(=O)C)O)C)O)F)C
InChI: InChI=1S/C24H31FO6/c1-13-9-18-17-6-5-15-10-16(27)7-8-21(15,3)23(17,25)19(28)11-22(18,4)24(13,30)20(29)12-31-14(2)26/h7-8,10,13,17-19,28,30H,5-6,9,11-12H2,1-4H3
Instrument: Q Exactive Plus Orbitrap Thermo Scientific
Instrument type: LC-ESI-QFT
Ms type: MS2
Ion mode: NEGATIVE
Ionization: ESI
Fragmentation mode: HCD
Collision energy: 75 (nominal)
Resolution: 35000
Column name: XBridge C18 3.5um, 2.1x50mm, Waters
Retention time: 10.3 min
Base peak: 479.2081
Precursor m/z: 433.2032
Precursor type: [M-H]-
m/z	relative intensity	assigned
55.0189	1	C3H3O-
59.0138	999	C2H3O2-
71.0139	2	C3H3O2-
71.0502	1	C4H7O-
73.0296	5	C3H5O2-
81.0345	1	C5H5O-
83.0502	2	C5H7O-
93.0346	1	C6H5O-
95.0502	1	C6H7O-
97.0659	1	C6H9O-
99.045	2	C5H7O2-
101.0243	1	C4H5O3-
107.0502	3	C7H7O-
109.0658	1	C7H9O-
119.0502	3	C8H7O-
121.0295	2	C7H5O2-
121.0658	15	C8H9O-
122.0373	1	C7H6O2-
123.0451	3	C7H7O2-
123.0814	1	C8H11O-
130.0423	2	C9H6O-
131.0501	4	C9H7O-
133.0658	13	C9H9O-
135.0451	2	C8H7O2-
135.0816	1	C9H11O-
136.0527	1	C8H8O2-
137.0607	3	C8H9O2-
143.0502	5	C10H7O-
144.0578	2	C10H8O-
145.0659	5	C10H9O-
147.0451	2	C9H7O2-
147.0815	7	C10H11O-
148.0529	1	C9H8O2-
149.0607	7	C9H9O2-
151.0764	2	C9H11O2-
156.0579	1	C11H8O-
157.0658	6	C11H9O-
158.0372	2	C10H6O2-
159.045	2	C10H7O2-
159.0815	3	C11H11O-
160.0529	1	C10H8O2-
161.0608	5	C10H9O2-
163.0765	1	C10H11O2-
167.0863	1	C13H11-
169.0658	4	C12H9O-
171.0452	4	C11H7O2-
171.0815	4	C12H11O-
172.053	4	C11H8O2-
173.0607	4	C11H9O2-
173.0969	1	C12H13O-
174.0683	1	C11H10O2-
175.04	10	C10H7O3-
175.0764	3	C11H11O2-
176.0477	1	C10H8O3-
181.0654	1	C13H9O-
183.0814	1	C13H11O-
185.0607	7	C12H9O2-
186.0686	4	C12H10O2-
187.0765	2	C12H11O2-
189.0557	4	C11H9O3-
189.0918	1	C12H13O2-
190.0634	2	C11H10O3-
191.0714	1	C11H11O3-
193.0658	1	C14H9O-
194.0736	2	C14H10O-
195.0814	3	C14H11O-
197.0606	5	C13H9O2-
197.0971	1	C14H13O-
199.0763	1	C13H11O2-
203.0713	3	C12H11O3-
206.0735	1	C15H10O-
207.0815	3	C15H11O-
208.0891	1	C15H12O-
209.0972	3	C15H13O-
210.0685	1	C14H10O2-
211.0766	1	C14H11O2-
220.0892	1	C16H12O-
221.0971	2	C16H13O-
223.0763	3	C15H11O2-
223.1129	1	C16H15O-
224.0841	1	C15H12O2-
225.0921	1	C15H13O2-
232.089	1	C17H12O-
233.097	2	C17H13O-
235.1126	1	C17H15O-
237.0921	1	C16H13O2-
239.1076	1	C16H15O2-
245.0968	1	C18H13O-
246.1048	1	C18H14O-
247.0762	1	C17H11O2-
247.1127	4	C18H15O-
249.092	4	C17H13O2-
249.1282	2	C18H17O-
251.1074	1	C17H15O2-
259.0765	1	C18H11O2-
260.084	3	C18H12O2-
261.0919	2	C18H13O2-
261.1282	1	C19H17O-
262.0997	1	C18H14O2-
263.1075	5	C18H15O2-
264.1157	1	C18H16O2-
265.1233	4	C18H17O2-
273.0922	2	C19H13O2-
274.0998	1	C19H14O2-
275.1076	4	C19H15O2-
276.079	2	C18H12O3-
277.0869	37	C18H13O3-
277.1226	4	C19H17O2-
279.1025	1	C18H15O3-
279.1388	1	C19H19O2-
281.118	1	C18H17O3-
289.0873	1	C19H13O3-
289.1236	1	C20H17O2-
290.0951	1	C19H14O3-
291.1027	19	C19H15O3-
292.1105	8	C19H16O3-
293.1183	6	C19H17O3-
295.1336	3	C19H19O3-
296.1416	1	C19H20O3-
305.1183	4	C20H17O3-
307.1336	2	C20H19O3-
309.1132	2	C19H17O4-
309.1498	1	C20H21O3-
311.1291	2	C19H19O4-
323.1286	1	C20H19O4-
325.1448	1	C20H21O4-
337.1449	2	C21H21O4-
