Mass spectrum: Xylometazoline; LC-ESI-QFT; MS2; CE: 60; R=35000; [M+H]+
Name: Xylometazoline
Name: 2-(4-tert-butyl-2,6-dimethyl-benzyl)-2-imidazoline
Formula: C16H24N2
Exact mass: 244.19395
SMILES: CC1=CC(=CC(=C1CC2=NCCN2)C)C(C)(C)C
InChI: InChI=1S/C16H24N2/c1-11-8-13(16(3,4)5)9-12(2)14(11)10-15-17-6-7-18-15/h8-9H,6-7,10H2,1-5H3,(H,17,18)
Instrument: Q Exactive Orbitrap Thermo Scientific
Instrument type: LC-ESI-QFT
Ms type: MS2
Ion mode: POSITIVE
Ionization: ESI
Fragmentation mode: HCD
Collision energy: 60 (nominal)
Resolution: 35000
Column name: XBridge C18 3.5um, 2.1x50mm, Waters
Retention time: 8.0 min
Base peak: 245.2014
Precursor m/z: 245.2012
Precursor type: [M+H]+
m/z	relative intensity	assigned
57.0699	22	C4H9+
69.0699	2	C5H9+
71.0603	1	C3H7N2+
83.0604	1	C4H7N2+
84.0682	9	C4H8N2+
105.0699	5	C8H9+
119.0855	14	C9H11+
121.1012	2	C9H13+
133.1013	14	C10H13+
135.1168	2	C10H15+
143.0855	1	C11H11+
145.1011	3	C11H13+
146.0965	4	C10H12N+
146.109	1	C11H14+
147.1167	6	C11H15+
160.1247	8	C12H16+
161.1324	63	C12H17+
173.1074	2	C11H13N2+
175.1481	82	C13H19+
188.1308	5	C12H16N2+
189.1386	280	C12H17N2+
202.1464	2	C13H18N2+
215.1541	6	C14H19N2+
229.17	41	C15H21N2+
230.1779	65	C15H22N2+
245.2012	999	C16H25N2+
