Mass spectrum: Fipronil-TP RPA 200761; LC-ESI-QFT; MS2; CE: 75%; R=17500; [M+H]+
Name: Fipronil-TP RPA 200761
Name: 5-amino-1-[2,6-dichloro-4-(trifluoromethyl)phenyl]-4-(trifluoromethylsulfinyl)pyrazole-3-carboxylic acid
Formula: C12H5Cl2F6N3O3S
Exact mass: 454.9333
SMILES: NC1=C(C(=NN1C1=C(Cl)C=C(C=C1Cl)C(F)(F)F)C(O)=O)S(=O)C(F)(F)F
InChI: InChI=1S/C12H5Cl2F6N3O3S/c13-4-1-3(11(15,16)17)2-5(14)7(4)23-9(21)8(6(22-23)10(24)25)27(26)12(18,19)20/h1-2H,21H2,(H,24,25)
Instrument: Q Exactive Plus Orbitrap Thermo Scientific
Instrument type: LC-ESI-QFT
Ms type: MS2
Ion mode: POSITIVE
Ionization: ESI
Fragmentation mode: HCD
Collision energy: 75 % (nominal)
Resolution: 17500
Column name: XBridge C18 3.5um, 2.1x50mm, Waters
Retention time: 8.085 min
Base peak: 455.9408
Precursor m/z: 455.9406
Precursor type: [M+H]+
m/z	relative intensity	assigned
59.9902	16	CH2NS+
63.9851	6	H2NOS+
67.0202	16	
67.0242	31	
68.9945	38	CF3+
69.9747	51	C2NS+
96.7464	7	
157.0133	71	C7H2F3N+
165.979	32	CHClF4N3+
166.9868	7	CH2ClF4N3+
167.9849	40	F4H2N3OS+
172.984	30	C7H2ClF2N+
178.97	15	C6H4Cl2FN+
185.9745	34	C8HF3S+
187.991	17	C7H4ClFNO2+
189.986	24	C10F2O2+
191.9821	157	C7H2ClF3N+
192.0266	14	C7H5F3NO2+
192.9904	29	C2F5N3O2+
193.9707	13	C8HFNO2S+
193.9978	13	C7H4ClF3N+
195.017	22	C9H2F3N2+
198.9524	31	C6H3Cl2F2O+
198.9863	6	C8H4FO3S+
199.9813	11	C7H3FNO3S+
200.9479	167	CHCl2F4N3+
201.9926	5	C2H4ClF5N2O+
203.9823	24	C8H2ClF3N+
207.9527	101	C7H2Cl2F2N+
209.9927	56	C7H4ClF3NO+
210.9865	13	C9H2ClF2N2+
212.9479	64	C2HCl2F4N3+
215.982	11	C9H2ClF3N+
218.9925	22	C11F3NO+
220.0008	150	C8H4ClF3N2+
221.0085	18	C11H2F3NO+
222.0271	17	C10H3F3N3+
223.0351	28	C10H4F3N3+
223.9771	11	C4H2ClF5N2O+
226.9883	134	C8H4ClF4O+
227.9588	833	C7H3Cl2F3N+
228.9664	27	C10HClF3O+
230.993	78	C9H3ClF3N2+
234.9632	20	C11ClF2NO+
236.962	20	C8H3ClF3NS+
237.9694	20	C11HF3OS+
239.9587	13	C8H3Cl2F3N+
242.9589	99	C9H2ClF2N2S+
245.9695	91	C7H5Cl2F3NO+
249.0038	65	C9H5ClF3N2O+
253.964	16	C5H2ClF5NO3+
254.9697	842	C9HF6S+
258.0039	655	C10H4ClF3N3+
262.965	999	C9H3ClF3N2S+
263.9732	7	C11H2ClFN2O3+
277.9617	72	C11F6S+
289.9757	53	C9H6Cl2F4NO+
292.9714	6	C10H6ClF2NO3S+
