Mass spectrum: Methoxyfenozide; LC-ESI-ITFT; MS2; CE: 75%; R=15000; [M+H]+
Name: Methoxyfenozide
Name: N'-tert-butyl-N'-(3,5-dimethylbenzoyl)-3-methoxy-2-methyl-benzohydrazide
Formula: C22H28N2O3
Exact mass: 368.2100
SMILES: O=C(c1cc(cc(c1)C)C)N(NC(=O)c2cccc(OC)c2C)C(C)(C)C
InChI: InChI=1S/C22H28N2O3/c1-14-11-15(2)13-17(12-14)21(26)24(22(4,5)6)23-20(25)18-9-8-10-19(27-7)16(18)3/h8-13H,1-7H3,(H,23,25)
Instrument: LTQ Orbitrap XL Thermo Scientific
Instrument type: LC-ESI-ITFT
Ms type: MS2
Ion mode: POSITIVE
Ionization: ESI
Fragmentation mode: HCD
Collision energy: 75 % (nominal)
Resolution: 15000
Column name: XBridge C18 3.5um, 2.1x50mm, Waters
Retention time: 10.9 min
Base peak: 369.2178
Precursor m/z: 369.2173
Precursor type: [M+H]+
m/z	relative intensity	assigned
65.0384	25	C5H5+
77.0384	77	C6H5+
79.0542	96	C6H7+
91.0541	999	C7H7+
93.0698	191	C7H9+
103.0542	121	C8H7+
105.0445	38	C6H5N2+
105.0697	742	C8H9+
109.0645	30	C7H9O+
119.0602	339	C7H7N2+
121.0647	39	C8H9O+
123.0805	27	C8H11O+
133.0647	378	C9H9O+
133.0758	274	C8H9N2+
149.0595	597	C9H9O2+
313.147	24	C22H19NO+
