Mass spectrum: Oryzalin; LC-ESI-QFT; MS2; CE: 30; R=35000; [M+H]+
Name: Oryzalin
Name: 4-(dipropylamino)-3,5-dinitro-benzenesulfonamide
Formula: C12H18N4O6S
Exact mass: 346.09471
SMILES: [O-][N+](=O)c1cc(cc([N+]([O-])=O)c1N(CCC)CCC)S(=O)(=O)N
InChI: InChI=1S/C12H18N4O6S/c1-3-5-14(6-4-2)12-10(15(17)18)7-9(23(13,21)22)8-11(12)16(19)20/h7-8H,3-6H2,1-2H3,(H2,13,21,22)
Instrument: Q Exactive Orbitrap Thermo Scientific
Instrument type: LC-ESI-QFT
Ms type: MS2
Ion mode: POSITIVE
Ionization: ESI
Fragmentation mode: HCD
Collision energy: 30 (nominal)
Resolution: 35000
Column name: XBridge C18 3.5um, 2.1x50mm, Waters
Retention time: 12.1 min
Base peak: 347.1021
Precursor m/z: 347.102
Precursor type: [M+H]+
m/z	relative intensity	assigned
52.0184	1	C3H2N+
53.0024	5	C3HO+
56.0132	26	C2H2NO+
57.0335	18	C3H5O+
63.9853	1	H2NOS+
65.026	2	C4H3N+
67.0418	1	C4H5N+
79.0293	1	C4H3N2+
84.0443	12	C4H6NO+
92.0371	5	C5H4N2+
93.0209	5	C5H3NO+
93.0448	2	C5H5N2+
95.0241	1	C4H3N2O+
105.0449	5	C6H5N2+
105.0572	1	C7H7N+
108.032	1	C5H4N2O+
109.0159	2	C5H3NO2+
109.0395	1	C5H5N2O+
110.0473	1	C5H6N2O+
117.0573	10	C8H7N+
118.0524	1	C7H6N2+
120.0806	1	C8H10N+
121.0395	1	C6H5N2O+
123.0192	1	C5H3N2O2+
131.0605	2	C8H7N2+
131.0725	1	C9H9N+
132.0318	14	C7H4N2O+
132.0808	4	C9H10N+
133.0397	5	C7H5N2O+
133.0524	6	C8H7NO+
134.0476	8	C7H6N2O+
135.0189	2	C6H3N2O2+
135.0429	1	C6H5N3O+
136.0267	2	C6H4N2O2+
143.0601	1	C9H7N2+
145.0397	32	C8H5N2O+
148.0506	2	C7H6N3O+
148.0756	4	C9H10NO+
149.0344	5	C7H5N2O2+
149.0584	1	C7H7N3O+
150.0298	7	C6H4N3O2+
151.0377	1	C6H5N3O2+
152.0215	1	C6H4N2O3+
153.0297	4	C6H5N2O3+
159.0553	3	C9H7N2O+
160.0632	1	C9H8N2O+
161.0708	9	C9H9N2O+
163.0503	3	C8H7N2O2+
165.0167	1	C6H3N3O3+
165.0294	2	C7H5N2O3+
167.0452	6	C7H7N2O3+
167.0563	2	C6H7N4O2+
171.0217	1	C6H7N2O2S+
176.0817	1	C9H10N3O+
177.0659	18	C9H9N2O2+
178.0247	7	C7H4N3O3+
178.0738	11	C9H10N2O2+
179.0327	4	C7H5N3O3+
180.0405	11	C7H6N3O3+
182.0199	4	C6H4N3O4+
184.0356	13	C6H6N3O4+
190.0614	1	C9H8N3O2+
194.9857	1	C7H3N2O3S+
196.0353	10	C7H6N3O4+
197.0017	2	C7H5N2O3S+
197.0253	1	C7H7N3O2S+
198.0145	57	C6H4N3O5+
201.0204	10	C6H7N3O3S+
206.0311	19	CH10N4O6S+
207.0643	5	C9H9N3O3+
213.0203	74	C7H7N3O3S+
214.0156	1	C6H6N4O3S+
217.0152	26	C6H7N3O4S+
224.0666	44	C9H10N3O4+
225.0566	18	C9H11N3O2S+
227.0228	1	C7H7N4O3S+
227.9706	2	C6H2N3O5S+
228.0075	40	C7H6N3O4S+
230.0113	2	C8H8NO5S+
230.0228	2	C7H8N3O4S+
231.0183	58	C6H7N4O4S+
232.0023	17	C6H6N3O5S+
240.0615	265	C9H10N3O5+
241.0516	39	C9H11N3O3S+
241.9868	7	C7H4N3O5S+
242.0106	27	C7H6N4O4S+
243.0183	219	C7H7N4O4S+
244.9975	21	C6H5N4O5S+
245.9816	318	C6H4N3O6S+
247.0132	369	C6H7N4O5S+
255.0181	2	C8H7N4O4S+
256.0387	26	C9H10N3O4S+
259.0133	252	C7H7N4O5S+
263.0081	357	C6H7N4O6S+
269.034	16	C9H9N4O4S+
270.0418	30	C9H10N4O4S+
271.0496	37	C9H11N4O4S+
277.0242	4	C7H9N4O6S+
287.0446	118	C9H11N4O5S+
288.0285	999	C9H10N3O6S+
301.0602	128	C10H13N4O5S+
305.055	226	C9H13N4O6S+
313.0963	28	C12H17N4O4S+
347.1019	85	C12H19N4O6S+
