Mass spectrum: Difloxacin; LC-ESI-QFT; MS2; CE: 45; R=35000; [M+H]+
Name: Difloxacin
Name: 6-fluoro-1-(4-fluorophenyl)-7-(4-methylpiperazin-1-yl)-4-oxoquinoline-3-carboxylic acid
Name: 6-fluoro-1-(4-fluorophenyl)-7-(4-methylpiperazin-4-ium-1-yl)-4-oxoquinoline-3-carboxylate
Formula: C21H19F2N3O3
Exact mass: 399.1394479
SMILES: CN1CCN(CC1)C2=C(C=C3C(=C2)N(C=C(C3=O)C(=O)O)C4=CC=C(C=C4)F)F
InChI: InChI=1S/C21H19F2N3O3/c1-24-6-8-25(9-7-24)19-11-18-15(10-17(19)23)20(27)16(21(28)29)12-26(18)14-4-2-13(22)3-5-14/h2-5,10-12H,6-9H2,1H3,(H,28,29)
Instrument: Q Exactive Plus Orbitrap Thermo Scientific
Instrument type: LC-ESI-QFT
Ms type: MS2
Ion mode: POSITIVE
Ionization: ESI
Fragmentation mode: HCD
Collision energy: 45 (nominal)
Resolution: 35000
Column name: XBridge C18 3.5um, 2.1x50mm, Waters
Retention time: 4.5 min
Base peak: 400.1461
Precursor m/z: 400.1467
Precursor type: [M+H]+
m/z	relative intensity	assigned
56.0495	6	C3H6N+
58.0652	145	C3H8N+
70.0652	56	C4H8N+
72.0808	20	C4H10N+
82.0652	7	C5H8N+
84.0808	12	C5H10N+
85.0761	1	C4H9N2+
85.0886	6	C5H11N+
97.0762	1	C5H9N2+
98.084	2	C5H10N2+
99.0918	1	C5H11N2+
136.0557	1	C8H7FN+
148.0559	1	C9H7FN+
155.0607	1	C10H7N2+
165.0826	2	C9H10FN2+
173.1074	1	C11H13N2+
185.1075	8	C12H13N2+
196.0998	1	C13H12N2+
201.0662	1	C11H9N2O2+
203.0618	4	C11H8FN2O+
219.0926	3	C12H12FN2O+
221.0724	1	C8H11F2N2O3+
225.0827	1	C14H10FN2+
237.0828	1	C15H10FN2+
238.0662	5	C15H9FNO+
242.078	3	C15H10F2N+
243.0733	3	C14H9F2N2+
249.0825	1	C16H10FN2+
251.0983	3	C16H12FN2+
256.056	3	C15H8F2NO+
257.0648	4	C15H9F2NO+
257.0893	2	C15H11F2N2+
258.0728	12	C15H10F2NO+
263.0983	6	C17H12FN2+
264.1056	2	C17H13FN2+
265.1139	2	C17H14FN2+
269.089	2	C16H11F2N2+
270.073	1	C16H10F2NO+
270.0967	1	C16H12F2N2+
271.0805	15	C16H11F2NO+
272.0887	3	C16H12F2NO+
273.0835	4	C15H11F2N2O+
277.101	3	C17H12FN3+
278.0725	1	C16H9FN3O+
278.1089	10	C17H13FN3+
279.0931	31	C17H12FN2O+
280.1243	4	C17H15FN3+
281.0885	22	C17H11F2N2+
282.0564	1	C16H9FNO3+
282.073	2	C17H10F2NO+
283.0679	13	C16H9F2N2O+
284.0521	2	C16H8F2NO2+
284.0761	3	C16H10F2N2O+
285.0836	92	C16H11F2N2O+
290.1091	2	C18H13FN3+
291.0804	1	C17H10FN3O+
291.0941	3	C15H13F2N2O2+
291.1166	9	C18H14FN3+
292.0883	4	C17H11FN3O+
293.0716	1	C17H10FN2O2+
293.0949	5	C20H11N3+
293.1101	4	C15H15F2N2O2+
297.0836	12	C17H11F2N2O+
299.0993	999	C17H13F2N2O+
302.0635	2	C16H10F2NO3+
304.1247	3	C19H15FN3+
305.0725	4	C18H10FN2O2+
305.0946	3	C21H11N3+
305.133	3	C19H16FN3+
306.1039	26	C18H13FN3O+
306.1402	103	C19H17FN3+
307.0877	1	C18H12FN2O2+
307.111	3	C18H14FN3O+
307.1481	2	C19H18FN3+
308.1197	17	C18H15FN3O+
311.0853	2	C20H10FN3+
311.0995	36	C18H13F2N2O+
313.115	13	C18H15F2N2O+
317.0727	1	C16H11F2N2O3+
318.1042	1	C19H13FN3O+
318.1386	2	C20H17FN3+
319.0747	1	C21H9N3O+
320.1191	3	C19H15FN3O+
323.0823	1	C18H12FN2O3+
325.0797	3	C18H11F2N2O2+
325.0973	1	C18H14FN2O3+
325.1153	2	C19H15F2N2O+
326.1101	2	C18H14F2N3O+
326.146	4	C19H18F2N3+
329.0731	1	C17H11F2N2O3+
333.1264	3	C20H16FN3O+
334.0992	19	
334.1351	54	C20H17FN3O+
336.1509	25	C20H19FN3O+
338.1469	3	C20H18F2N3+
339.0816	24	C18H11F2N3O2+
339.1177	17	C19H15F2N3O+
343.0892	1	C18H13F2N2O3+
352.089	4	C19H12F2N3O2+
352.1096	11	C19H15FN3O3+
353.0974	2	C19H13F2N3O2+
354.1054	47	C19H14F2N3O2+
354.1408	34	C20H18F2N3O+
356.1571	124	C20H20F2N3O+
362.1301	32	C21H17FN3O2+
367.1131	2	C20H15F2N3O2+
380.1411	15	C21H19FN3O3+
382.1365	457	C21H18F2N3O2+
400.147	681	C21H20F2N3O3+
