Mass spectrum: Flumequine; LC-ESI-QFT; MS2; CE: 75; R=35000; [M+H]+
Name: Flumequine
Name: 9-Fluoro-5-methyl-1-oxo-6,7-dihydro-1H,5H-pyrido[3,2,1-ij]quinoline-2-carboxylic acid
Formula: C14H12FNO3
Exact mass: 261.08012
SMILES: CC1CCC2=C3N1C=C(C(=O)C3=CC(=C2)F)C(=O)O
InChI: InChI=1S/C14H12FNO3/c1-7-2-3-8-4-9(15)5-10-12(8)16(7)6-11(13(10)17)14(18)19/h4-7H,2-3H2,1H3,(H,18,19)
Instrument: Q Exactive Plus Orbitrap Thermo Scientific
Instrument type: LC-ESI-QFT
Ms type: MS2
Ion mode: POSITIVE
Ionization: ESI
Fragmentation mode: HCD
Collision energy: 75 (nominal)
Resolution: 35000
Column name: XBridge C18 3.5um, 2.1x50mm, Waters
Retention time: 7.3 min
Base peak: 262.0868
Precursor m/z: 262.0874
Precursor type: [M+H]+
m/z	relative intensity	assigned
53.002	7	C3HO+
55.0542	1	C4H7+
99.0227	1	C8H3+
102.0338	1	C7H4N+
116.0495	1	C8H6N+
126.0338	7	C9H4N+
133.0446	1	C9H6F+
135.0477	2	C8H6FN+
144.0446	3	C9H6NO+
146.0401	64	C9H5FN+
147.0352	1	C8H4FN2+
147.0478	5	C9H6FN+
148.0557	16	C9H7FN+
149.0761	1	C10H10F+
154.04	30	C9H4N3+
158.0397	1	C10H5FN+
159.048	1	C10H6FN+
160.0557	1	C10H7FN+
161.0635	4	C10H8FN+
164.0506	6	C9H7FNO+
172.0555	3	C11H7FN+
173.0639	2	C11H8FN+
174.035	260	C10H5FNO+
175.0427	2	C10H6FNO+
176.0507	2	C10H7FNO+
176.0871	17	C11H11FN+
187.0427	3	C11H6FNO+
188.0505	5	C11H7FNO+
192.0455	6	C10H7FNO2+
200.0507	3	C12H7FNO+
200.0871	18	C13H11FN+
201.0585	6	C12H8FNO+
202.0298	999	C11H5FNO2+
203.0378	5	C11H6FNO2+
206.0613	3	C11H9FNO2+
214.0302	1	C12H5FNO2+
216.0456	6	C12H7FNO2+
216.0821	7	C13H11FNO+
220.0405	934	C11H7FNO3+
221.0482	9	C11H8FNO3+
229.053	1	C13H8FNO2+
232.0405	2	C12H7FNO3+
234.0562	27	C12H9FNO3+
238.0511	192	C11H9FNO4+
244.0769	270	C14H11FNO2+
252.0667	15	C12H11FNO4+
262.0874	191	C14H13FNO3+
