Mass spectrum: Fosinopril; LC-ESI-QFT; MS2; CE: 45; R=35000; [M-H]-
Name: Fosinopril
Name: (2S,4S)-4-cyclohexyl-1-[2-[(2-methyl-1-propanoyloxypropoxy)-(4-phenylbutyl)phosphoryl]acetyl]pyrrolidine-2-carboxylic acid
Formula: C30H46NO7P
Exact mass: 563.30119
SMILES: O=C(CP(=O)(CCCCc1ccccc1)OC(OC(=O)CC)C(C)C)N2C[C@@H](C[C@H]2C(O)=O)C3CCCCC3
InChI: InChI=1S/C30H46NO7P/c1-4-28(33)37-30(22(2)3)38-39(36,18-12-11-15-23-13-7-5-8-14-23)21-27(32)31-20-25(19-26(31)29(34)35)24-16-9-6-10-17-24/h5,7-8,13-14,22,24-26,30H,4,6,9-12,15-21H2,1-3H3,(H,34,35)/t25-,26+,30?,39?/m1/s1
Instrument: Q Exactive Orbitrap Thermo Scientific
Instrument type: LC-ESI-QFT
Ms type: MS2
Ion mode: NEGATIVE
Ionization: ESI
Fragmentation mode: HCD
Collision energy: 45 (nominal)
Resolution: 35000
Column name: XBridge C18 3.5um, 2.1x50mm, Waters
Retention time: 16.6 min
Base peak: 562.2942
Precursor m/z: 562.2939
Precursor type: [M-H]-
m/z	relative intensity	assigned
62.9642	3	O2P-
73.0295	147	C3H5O2-
78.9591	2	O3P-
97.0295	39	C5H5O2-
110.0247	15	C5H4NO2-
179.0632	15	C10H12OP-
192.1393	1	C12H18NO-
195.0581	11	C10H12O2P-
196.1343	26	C11H18NO2-
198.1054	3	C10H17NOP-
213.0687	46	C10H14O3P-
220.1342	999	C13H18NO2-
221.0737	1	C12H14O2P-
237.0686	15	C12H14O3P-
240.1159	6	C12H19NO2P-
249.1048	1	C14H18O2P-
291.1153	1	C16H20O3P-
330.1992	4	C20H29NOP-
372.2098	20	C22H31NO2P-
