Mass spectrum: Propoxyphene; LC-ESI-QFT; MS2; CE: 120; R=35000; [M+H]+
Name: Propoxyphene
Name: Levopropoxyphene
Name: [4-(dimethylamino)-3-methyl-1,2-diphenylbutan-2-yl] propanoate
Formula: C22H29NO2
Exact mass: 339.21983
SMILES: CCC(=O)OC(CC1=CC=CC=C1)(C2=CC=CC=C2)C(C)CN(C)C
InChI: InChI=1S/C22H29NO2/c1-5-21(24)25-22(18(2)17-23(3)4,20-14-10-7-11-15-20)16-19-12-8-6-9-13-19/h6-15,18H,5,16-17H2,1-4H3
Instrument: Q Exactive Plus Orbitrap Thermo Scientific
Instrument type: LC-ESI-QFT
Ms type: MS2
Ion mode: POSITIVE
Ionization: ESI
Fragmentation mode: HCD
Collision energy: 120 (nominal)
Resolution: 35000
Column name: XBridge C18 3.5um, 2.1x50mm, Waters
Retention time: 7.8 min
Base peak: 340.2269
Precursor m/z: 340.2271
Precursor type: [M+H]+
m/z	relative intensity	assigned
51.023	1	C4H3+
53.0386	2	C4H5+
56.0495	26	C3H6N+
57.0573	4	C3H7N+
58.0652	999	C3H8N+
65.0386	35	C5H5+
77.0386	4	C6H5+
79.0542	4	C6H7+
91.0543	79	C7H7+
95.0492	8	C6H7O+
102.0467	3	C8H6+
103.0543	7	C8H7+
105.0448	5	C6H5N2+
105.0701	2	C8H9+
115.0543	11	C9H7+
126.0467	1	C10H6+
127.0543	3	C10H7+
128.0621	58	C10H8+
129.0702	1	C10H9+
141.0703	1	C11H9+
145.0651	2	C10H9O+
155.0604	3	C10H7N2+
165.0701	7	C13H9+
178.0777	3	C14H10+
191.0859	1	C15H11+
