Mass spectrum: Ranitidine N-oxide; LC-ESI-ITFT; MS2; CE: 15%; R=15000; [M+H]+
Name: Ranitidine N-oxide
Name: 1,1-Ethenediamine, N-(2-(((5-((dimethylamino)methyl)-2-furanyl)methyl)thio)ethyl)-N'-methyl-2-nitro-, N-oxide
Formula: C13H22N4O4S
Exact mass: 330.1362
SMILES: c1(oc(CSCCN\C(=C\[N+](=O)[O-])NC)cc1)CN(C)(C)=O
InChI: InChI=1S/C13H22N4O4S/c1-14-13(8-16(18)19)15-6-7-22-10-12-5-4-11(21-12)9-17(2,3)20/h4-5,8,14-15H,6-7,9-10H2,1-3H3/b13-8+
Instrument: LTQ Orbitrap XL Thermo Scientific
Instrument type: LC-ESI-ITFT
Ms type: MS2
Ion mode: POSITIVE
Ionization: ESI
Fragmentation mode: HCD
Collision energy: 15 % (nominal)
Resolution: 15000
Column name: XBridge C18 3.5um, 2.1x50mm, Waters
Retention time: 2.4 min
Base peak: 331.1444
Precursor m/z: 331.1435
Precursor type: [M+H]+
m/z	relative intensity	assigned
88.0216	26	C3H6NS+
98.0838	38	C5H10N2+
102.0374	12	C4H8NS+
124.0756	281	C7H10NO+
125.0053	6	C6H5OS+
130.0558	43	C5H10N2S+
131.0637	8	C5H11N2S+
144.0768	89	C5H10N3O2+
170.0633	13	C8H12NOS+
176.0487	436	C5H10N3O2S+
188.0484	11	C6H10N3O2S+
191.1182	9	C11H15N2O+
224.0977	71	C11H16N2OS+
225.1053	18	C11H17N2OS+
241.1004	9	C11H17N2O2S+
270.0906	483	C11H16N3O3S+
331.1433	999	C13H23N4O4S+
