Mass spectrum: 2-Toluenesulfonamide; LC-ESI-QFT; MS2; CE: 15; R=35000; [M+H]+
Name: 2-Toluenesulfonamide
Name: o-Toluenesulfonamide
Name: 2-methylbenzenesulfonamide
Formula: C7H9NO2S
Exact mass: 171.03540
SMILES: CC1=CC=CC=C1S(=O)(=O)N
InChI: InChI=1S/C7H9NO2S/c1-6-4-2-3-5-7(6)11(8,9)10/h2-5H,1H3,(H2,8,9,10)
Instrument: Q Exactive Plus Orbitrap Thermo Scientific
Instrument type: LC-ESI-QFT
Ms type: MS2
Ion mode: POSITIVE
Ionization: ESI
Fragmentation mode: HCD
Collision energy: 15 (nominal)
Resolution: 35000
Column name: XBridge C18 3.5um, 2.1x50mm, Waters
Retention time: 4.6 min
Base peak: 189.0689
Precursor m/z: 172.0427
Precursor type: [M+H]+
m/z	relative intensity	assigned
53.0386	1	C4H5+
55.0179	6	C3H3O+
63.0227	1	C5H3+
65.0386	39	C5H5+
67.0542	29	C5H7+
77.0385	9	C6H5+
78.0464	6	C6H6+
91.0542	999	C7H7+
93.0699	2	C7H9+
94.0414	1	C6H6O+
95.0492	10	C6H7O+
105.0446	3	C6H5N2+
106.0413	163	C7H6O+
107.0491	136	C7H7O+
108.057	7	C7H8O+
109.0648	851	C7H9O+
119.0604	859	C7H7N2+
124.0519	34	C7H8O2+
155.0161	687	C7H7O2S+
172.0427	11	C7H10NO2S+
