Mass spectrum: Genistein; LC-ESI-QFT; MS2; CE: 75; R=35000; [M+H]+
Name: Genistein
Name: 5,7-dihydroxy-3-(4-hydroxyphenyl)chromen-4-one
Formula: C15H10O5
Exact mass: 270.05282
SMILES: C1=CC(=CC=C1C2=COC3=CC(=CC(=C3C2=O)O)O)O
InChI: InChI=1S/C15H10O5/c16-9-3-1-8(2-4-9)11-7-20-13-6-10(17)5-12(18)14(13)15(11)19/h1-7,16-18H
Instrument: Q Exactive Plus Orbitrap Thermo Scientific
Instrument type: LC-ESI-QFT
Ms type: MS2
Ion mode: POSITIVE
Ionization: ESI
Fragmentation mode: HCD
Collision energy: 75 (nominal)
Resolution: 35000
Column name: XBridge C18 3.5um, 2.1x50mm, Waters
Retention time: 7.6 min
Base peak: 271.0599
Precursor m/z: 271.0601
Precursor type: [M+H]+
m/z	relative intensity	assigned
50.015	2	C4H2+
51.0228	2	C4H3+
53.0022	2	C3HO+
53.0386	6	C4H5+
55.0179	17	C3H3O+
63.0229	6	C5H3+
65.0386	157	C5H5+
67.0179	112	C4H3O+
68.9971	223	C3HO2+
69.0335	38	C4H5O+
71.0127	8	C3H3O2+
77.0384	6	C6H5+
78.0465	1	C6H6+
79.0178	7	C5H3O+
79.0543	8	C6H7+
81.0335	29	C5H5O+
83.0127	9	C4H3O2+
85.0283	4	C4H5O2+
89.0386	47	C7H5+
90.0465	1	C7H6+
91.0543	999	C7H7+
92.9972	2	C5HO2+
93.0336	4	C6H5O+
94.0414	5	C6H6O+
95.0128	30	C5H3O2+
95.0492	11	C6H7O+
97.0285	26	C5H5O2+
103.0542	37	C8H7+
105.0335	19	C7H5O+
105.0448	5	C6H5N2+
105.0699	9	C8H9+
106.0412	5	C7H6O+
107.0492	96	C7H7O+
108.0206	3	C6H4O2+
109.0285	22	C6H5O2+
109.0649	4	C7H9O+
111.0077	24	C5H3O3+
111.044	7	C6H7O2+
115.0543	104	C9H7+
116.0621	7	C9H8+
117.0335	7	C8H5O+
117.0699	37	C9H9+
118.0413	7	C8H6O+
119.0492	184	C8H7O+
119.0857	9	C9H11+
121.0285	130	C7H5O2+
121.0398	7	C6H5N2O+
122.0363	1	C7H6O2+
123.0076	4	C6H3O3+
123.044	3	C7H7O2+
124.0157	1	C6H4O3+
125.0234	6	C6H5O3+
126.0312	2	C6H6O3+
127.039	2	C6H7O3+
127.0543	8	C10H7+
128.0621	32	C10H8+
129.0699	29	C10H9+
131.0492	96	C9H7O+
131.0856	31	C10H11+
132.0572	3	C9H8O+
133.0286	6	C8H5O2+
133.0648	8	C9H9O+
134.0363	7	C8H6O2+
135.0441	45	C8H7O2+
136.0157	1	C7H4O3+
137.0234	34	C7H5O3+
139.0545	4	C11H7+
141.0699	276	C11H9+
143.049	2	C10H7O+
144.0571	36	C10H8O+
145.0285	82	C9H5O2+
145.0649	52	C10H9O+
147.0441	42	C9H7O2+
147.0805	25	C10H11O+
149.0234	152	C8H5O3+
150.0312	23	C8H6O3+
151.0541	5	C12H7+
152.0621	28	C12H8+
153.0183	753	C7H5O4+
155.0492	44	C11H7O+
155.0601	16	C10H7N2+
156.0571	3	C11H8O+
157.0649	15	C11H9O+
158.0726	1	C11H10O+
159.0441	77	C10H7O2+
159.0805	35	C11H11O+
160.0519	2	C10H8O2+
161.0599	3	C10H9O2+
163.039	16	C9H7O3+
165.0183	42	C8H5O4+
167.0338	3	C8H7O4+
167.0494	1	C12H7O+
168.0572	23	C12H8O+
169.0649	237	C12H9O+
170.0728	2	C12H10O+
171.029	1	C7H7O5+
171.0442	6	C11H7O2+
171.055	1	C10H7N2O+
171.0799	1	C12H11O+
172.0519	8	C11H8O2+
173.0598	33	C11H9O2+
174.0676	7	C11H10O2+
175.0754	23	C11H11O2+
178.026	9	C9H6O4+
179.049	9	C13H7O+
179.0605	5	C12H7N2+
181.0649	9	C13H9O+
183.0292	12	C8H7O5+
183.0442	32	C12H7O2+
184.052	6	C12H8O2+
185.0598	20	C12H9O2+
186.0679	3	C12H10O2+
187.0391	19	C11H7O3+
187.0754	41	C12H11O2+
191.034	18	C10H7O4+
195.0553	2	C12H7N2O+
196.0519	5	C13H8O2+
197.0598	239	C13H9O2+
198.0676	10	C13H10O2+
199.0386	1	C12H7O3+
200.0469	52	C12H8O3+
201.0547	23	C12H9O3+
203.0338	5	C11H7O4+
207.0443	3	C14H7O2+
208.0525	1	C14H8O2+
209.0449	2	C10H9O5+
211.0391	13	C13H7O3+
213.0547	35	C13H9O3+
214.0627	6	C13H10O3+
215.0704	199	C13H11O3+
216.0416	4	C12H8O4+
219.0655	4	C12H11O4+
224.0471	5	C14H8O3+
225.0548	28	C14H9O3+
226.0625	10	C14H10O3+
227.0341	1	C13H7O4+
227.0705	5	C14H11O3+
228.0419	15	C13H8O4+
229.0496	4	C13H9O4+
235.039	3	C15H7O3+
241.0498	6	C14H9O4+
242.0574	17	C14H10O4+
243.0653	88	C14H11O4+
252.042	1	C15H8O4+
253.0497	85	C15H9O4+
271.0602	57	C15H11O5+
