Mass spectrum: MCLF; LC-ESI-QFT; MS2; CE: 30%; R=17500; [M+H]+
Name: MCLF
Name: Microcystin LF
Name: 15-benzyl-18-[(1E,3E)-6-methoxy-3,5-dimethyl-7-phenylhepta-1,3-dienyl]-1,5,12,19-tetramethyl-2-methylidene-8-(2-methylpropyl)-3,6,9,13,16,20,25-heptaoxo-1,4,7,10,14,17,21-heptazacyclopentacosane-11,22-dicarboxylic acid
Class: NA
Formula: C52H71N7O12
Exact mass: 985.5161
SMILES: COC(Cc1ccccc1)C(C)/C=C(C)/C=C/C2NC(=O)C(Cc3ccccc3)NC(=O)C(C)C(NC(=O)C(CC(C)C)NC(=O)C(C)NC(=O)C(=C)N(C)C(=O)CCC(NC(=O)C2C)C(O)=O)C(O)=O
InChI: InChI=1S/C52H71N7O12/c1-29(2)25-40-50(66)58-44(52(69)70)33(6)46(62)56-41(27-36-17-13-11-14-18-36)49(65)54-38(22-21-30(3)26-31(4)42(71-10)28-37-19-15-12-16-20-37)32(5)45(61)55-39(51(67)68)23-24-43(60)59(9)35(8)48(64)53-34(7)47(63)57-40/h11-22,26,29,31-34,38-42,44H,8,23-25,27-28H2,1-7,9-10H3,(H,53,64)(H,54,65)(H,55,61)(H,56,62)(H,57,63)(H,58,66)(H,67,68)(H,69,70)/b22-21+,30-26+
Instrument: Q Exactive Plus Orbitrap Thermo Scientific
Instrument type: LC-ESI-QFT
Ms type: MS2
Ion mode: POSITIVE
Ionization: ESI
Fragmentation mode: HCD
Collision energy: 30 % (nominal)
Resolution: 17500
Column name: XBridge C18 3.5um, 2.1x50mm, Waters
Retention time: 12.318 min
Base peak: 164.9846
Precursor m/z: 986.5233
Precursor type: [M+H]+
m/z	relative intensity	assigned
69.0334	4	C4H5O+
79.0542	15	C6H7+
82.0652	12	C5H8N+
84.0443	70	C4H6NO+
86.0964	670	C5H12N+
91.0542	85	C7H7+
93.0698	18	C7H9+
95.0855	20	C7H11+
96.0809	7	C6H10N+
102.0549	22	C4H8NO2+
103.0541	51	C8H7+
105.0698	81	C8H9+
107.0855	448	C8H11+
117.07	34	C9H9+
119.0857	15	C9H11+
120.0807	265	C8H10N+
121.1006	6	C9H13+
123.0805	10	C8H11O+
124.0755	23	C7H10NO+
124.1121	124	C8H14N+
126.0553	5	C6H8NO2+
127.0866	246	C6H11N2O+
129.0703	7	C10H9+
130.0498	31	C5H8NO3+
131.0854	55	C10H11+
131.1177	14	C6H15N2O+
133.1012	16	C10H13+
135.0804	956	C9H11O+
135.1167	383	C10H15+
138.0549	134	C7H8NO2+
140.0706	7	C7H10NO2+
143.0856	59	C11H11+
145.1013	32	C11H13+
147.1173	8	C11H15+
150.1276	6	C10H16N+
152.0702	12	C8H10NO2+
155.0814	510	C7H11N2O2+
157.1012	12	C12H13+
157.1335	103	C8H17N2O+
159.1167	17	C12H15+
161.0961	76	C11H13O+
162.1276	21	C11H16N+
163.1117	798	C11H15O+
165.0906	10	C10H13O2+
165.1026	58	C9H13N2O+
166.0858	11	C9H12NO2+
167.0813	58	C8H11N2O2+
168.0658	14	C8H10NO3+
169.1003	19	C13H13+
171.0803	18	C12H11O+
171.1169	23	C13H15+
173.0961	55	C12H13O+
175.1118	17	C12H15O+
178.1229	15	C11H16NO+
180.1386	15	C11H18NO+
182.0809	5	C9H12NO3+
185.0924	16	C8H13N2O3+
185.1289	73	C9H17N2O2+
187.1117	25	C13H15O+
188.1071	9	C12H14NO+
190.123	31	C12H16NO+
195.0767	181	C9H11N2O3+
195.1165	27	C15H15+
196.0608	23	C9H10NO4+
197.129	24	C10H17N2O2+
198.0761	10	C9H12NO4+
203.1191	31	H19N4O8+
204.1021	10	C12H14NO2+
204.1385	7	C13H18NO+
209.1308	80	CH23NO10+
213.0873	999	C9H13N2O4+
214.0712	12	C9H12NO5+
218.1193	7	CH20N3O9+
218.1541	105	C14H20NO+
221.0924	11	C11H13N2O3+
223.1091	32	C14H13N3+
226.1593	103	C2H22N6O6+
228.1384	15	C15H18NO+
231.1131	112	C13H15N2O2+
232.0979	21	CH18N3O10+
237.1249	105	H21N4O10+
237.1639	225	C18H21+
239.0667	76	C10H11N2O5+
239.1028	7	C11H15N2O4+
243.1339	107	C11H19N2O4+
246.1491	220	CH22N6O8+
247.148	23	C19H19+
248.1395	16	C13H18N3O2+
249.1237	818	C13H17N2O3+
250.1559	32	C15H22O3+
251.1027	23	C12H15N2O4+
257.1288	18	CH19N7O8+
258.1857	198	C3H26N6O7+
259.1083	26	H17N7O9+
259.1815	44	C3H31O12+
263.2124	7	C3H35O12+
265.159	146	C5H23N5O7+
266.114	19	C12H16N3O4+
268.166	248	C13H22N3O3+
269.1135	34	C12H17N2O5+
269.1896	15	C19H25O+
276.1349	62	C14H18N3O3+
277.1187	400	H19N7O10+
282.185	61	C19H24NO+
284.1241	19	C12H18N3O5+
287.1765	48	C3H25N7O8+
290.1388	9	C16H20NO4+
292.1541	90	C16H22NO4+
293.1139	48	H19N7O11+
294.1452	255	C14H20N3O4+
306.1818	8	C16H24N3O3+
310.1032	22	C13H16N3O6+
314.1717	16	C15H20N7O+
320.1609	30	C16H22N3O4+
320.2013	33	C8H28N6O7+
322.1399	16	C15H20N3O5+
327.2057	9	C5H33N3O12+
329.1857	93	C19H25N2O3+
340.1496	11	C13H20N6O5+
344.1969	47	C19H26N3O3+
347.1967	187	C19H27N2O4+
348.1547	33	C17H22N3O5+
348.1961	30	C9H28N6O8+
351.2044	26	C5H31N6O11+
352.1873	9	C17H26N3O5+
357.18	20	C18H23N5O3+
360.1562	15	C19H18N7O+
362.2075	61	C19H28N3O4+
373.1762	13	C6H27N7O11+
375.1915	686	C20H27N2O5+
380.2225	10	C10H32N6O9+
384.2285	50	C22H30N3O3+
389.2196	30	C22H31NO5+
390.203	67	C20H28N3O5+
397.2082	331	C18H29N4O6+
407.2288	60	C20H31N4O5+
416.2195	14	C24H32O6+
428.2182	33	C23H30N3O5+
446.2288	120	C23H32N3O6+
456.247	27	C22H36N2O8+
461.2402	17	C25H35NO7+
477.2387	48	C28H33N2O5+
478.2669	13	C25H38N2O7+
498.2697	17	C25H40NO9+
508.2405	13	C23H34N5O8+
509.2683	30	C34H37O4+
513.3056	17	C26H39N7O4+
516.2817	19	C26H38N5O6+
626.3545	13	C47H46O+
670.3437	23	C48H46O3+
