Mass spectrum: N-Desmethyltramadol; LC-ESI-QFT; MS2; CE: 60; R=35000; [M+H]+
Name: N-Desmethyltramadol
Name: N-demethyltramadol
Name: 1-(3-methoxyphenyl)-2-(methylaminomethyl)cyclohexan-1-ol
Formula: C15H23NO2
Exact mass: 249.17288
SMILES: CNCC1CCCCC1(c2cccc(c2)OC)O
InChI: InChI=1S/C15H23NO2/c1-16-11-13-6-3-4-9-15(13,17)12-7-5-8-14(10-12)18-2/h5,7-8,10,13,16-17H,3-4,6,9,11H2,1-2H3
Instrument: Q Exactive Plus Orbitrap Thermo Scientific
Instrument type: LC-ESI-QFT
Ms type: MS2
Ion mode: POSITIVE
Ionization: ESI
Fragmentation mode: HCD
Collision energy: 60 (nominal)
Resolution: 35000
Column name: XBridge C18 3.5um, 2.1x50mm, Waters
Retention time: 5.2 min
Base peak: 250.1799
Precursor m/z: 250.1802
Precursor type: [M+H]+
m/z	relative intensity	assigned
67.0543	37	C5H7+
81.0699	87	C6H9+
121.0648	999	C8H9O+
144.0572	73	C10H8O+
158.0731	38	
159.0805	172	C11H11O+
160.0882	63	C11H12O+
189.1274	39	C13H17O+
