Mass spectrum: MCLA; LC-ESI-QFT; MS2; CE: 45%; R=17500; [M-H]-
Name: MCLA
Name: Microcystin LA
Name: (5R,8S,11R,12S,15S,18S,19S,22R)-18-[(1E,3E,5S,6S)-6-methoxy-3,5-dimethyl-7-phenylhepta-1,3-dienyl]-1,5,12,15,19-pentamethyl-2-methylidene-8-(2-methylpropyl)-3,6,9,13,16,20,25-heptaoxo-1,4,7,10,14,17,21-heptazacyclopentacosane-11,22-dicarboxylic acid
Class: NA
Formula: C46H67N7O12
Exact mass: 909.4848
SMILES: CO[C@@H](Cc1ccccc1)[C@@H](C)\C=C(C)\C=C\[C@@H]2NC(=O)[C@H](C)NC(=O)[C@@H](C)[C@@H](NC(=O)[C@H](CC(C)C)NC(=O)[C@@H](C)NC(=O)C(=C)N(C)C(=O)CC[C@@H](NC(=O)[C@H]2C)C(O)=O)C(O)=O
InChI: InChI=1S/C46H67N7O12/c1-24(2)21-35-44(60)52-38(46(63)64)28(6)40(56)47-29(7)41(57)49-33(18-17-25(3)22-26(4)36(65-11)23-32-15-13-12-14-16-32)27(5)39(55)50-34(45(61)62)19-20-37(54)53(10)31(9)43(59)48-30(8)42(58)51-35/h12-18,22,24,26-30,33-36,38H,9,19-21,23H2,1-8,10-11H3,(H,47,56)(H,48,59)(H,49,57)(H,50,55)(H,51,58)(H,52,60)(H,61,62)(H,63,64)/b18-17+,25-22+/t26-,27-,28-,29-,30+,33-,34+,35-,36-,38+/m0/s1
Instrument: Q Exactive Plus Orbitrap Thermo Scientific
Instrument type: LC-ESI-QFT
Ms type: MS2
Ion mode: NEGATIVE
Ionization: ESI
Fragmentation mode: HCD
Collision energy: 45 % (nominal)
Resolution: 17500
Column name: XBridge C18 3.5um, 2.1x50mm, Waters
Retention time: 10.539 min
Base peak: 190.9277
Precursor m/z: 908.4775
Precursor type: [M-H]-
m/z	relative intensity	assigned
72.0454	21	C3H6NO-
73.0295	11	C3H5O2-
74.0249	39	C2H4NO2-
82.0297	19	C4H4NO-
82.0662	16	C5H8N-
84.0454	45	C4H6NO-
87.0564	37	C3H7N2O-
97.0406	21	C4H5N2O-
99.0564	94	C4H7N2O-
100.0041	8	C3H2NO3-
100.0403	32	C4H6NO2-
109.0406	14	C5H5N2O-
110.0248	93	C5H4NO2-
111.0565	55	C5H7N2O-
112.0405	47	C5H6NO2-
112.0769	17	C6H10NO-
113.0358	57	C4H5N2O2-
123.033	12	C6H5NO2-
123.0562	39	C6H7N2O-
124.0404	110	C6H6NO2-
125.0719	36	C6H9N2O-
127.0515	39	C5H7N2O2-
127.088	20	C6H11N2O-
128.0353	999	C5H6NO3-
129.1032	142	C6H13N2O-
130.0874	22	C6H12NO2-
131.0866	39	C10H11-
135.0565	7	C7H7N2O-
137.0718	75	C7H9N2O-
138.056	82	C7H8NO2-
139.0512	9	C6H7N2O2-
139.0876	137	C7H11N2O-
140.0718	14	C7H10NO2-
150.056	31	C8H8NO2-
151.0873	10	C8H11N2O-
152.0823	9	C7H10N3O-
153.0667	145	C7H9N2O2-
153.1028	11	C8H13N2O-
155.0823	111	C7H11N2O2-
155.1186	15	C8H15N2O-
163.0508	36	C8H7N2O2-
165.0663	22	C8H9N2O2-
165.1029	226	C9H13N2O-
166.0986	9	C8H12N3O-
167.0823	42	C8H11N2O2-
170.0934	26	C7H12N3O2-
180.1141	103	C9H14N3O-
181.061	53	C6H7N5O2-
182.1291	163	C7H14N6-
183.1136	36	C9H15N2O2-
195.1135	12	C10H15N2O2-
198.1241	51	C9H16N3O2-
200.1396	173	C7H16N6O-
208.1085	26	C10H14N3O2-
211.0715	19	C7H9N5O3-
212.1399	26	C10H18N3O2-
222.1245	25	C11H16N3O2-
222.1599	15	C10H18N6-
225.1114	8	C10H15N3O3-
226.1187	27	C8H14N6O2-
240.1705	9	C10H20N6O-
265.1656	447	C11H19N7O-
283.1762	115	C11H21N7O2-
311.172	14	C14H23N4O4-
313.181	24	C20H25O3-
327.207	35	C5H33N3O12-
