Mass spectrum: Propranolol; LC-ESI-ITFT; MS2; CE: 35%; R=7500; [M+H]+
Name: Propranolol
Name: 1-(1-naphthalenyloxy)-3-(propan-2-ylamino)-2-propanol
Formula: C16H21NO2
Exact mass: 259.1572
SMILES: CC(C)NCC(COC1=CC=CC2=CC=CC=C21)O
InChI: InChI=1S/C16H21NO2/c1-12(2)17-10-14(18)11-19-16-9-5-7-13-6-3-4-8-15(13)16/h3-9,12,14,17-18H,10-11H2,1-2H3
Instrument: LTQ Orbitrap XL Thermo Scientific
Instrument type: LC-ESI-ITFT
Ms type: MS2
Ion mode: POSITIVE
Ionization: ESI
Fragmentation mode: CID
Collision energy: 35 % (nominal)
Resolution: 7500
Column name: XBridge C18 3.5um, 2.1x50mm, Waters
Retention time: 6.6 min
Base peak: 260.165
Precursor m/z: 260.1645
Precursor type: [M+H]+
m/z	relative intensity	assigned
86.0964	45	C5H12N+
90.055	8	C3H8NO2+
98.0964	171	C6H12N+
116.107	819	C6H14NO+
129.0697	26	C10H9+
132.1018	66	C6H14NO2+
141.0699	54	C11H9+
155.0854	34	C12H11+
157.0647	336	C11H9O+
165.0698	18	C13H9+
171.0808	4	C12H11O+
183.0805	999	C13H11O+
200.1076	15	C13H14NO+
218.1175	241	C13H16NO2+
225.1268	7	C16H17O+
242.1538	76	C16H20NO+
