Mass spectrum: Iodocarb; LC-ESI-ITFT; MS2; CE: 30%; R=7500; [M+H]+
Name: Iodocarb
Name: Iodopropynyl butylcarbamate (IPBC)
Name: 3-iodanylprop-2-ynyl N-butylcarbamate
Formula: C8H12INO2
Exact mass: 280.9913
SMILES: N(C(OCC#CI)=O)CCCC
InChI: InChI=1S/C8H12INO2/c1-2-3-6-10-8(11)12-7-4-5-9/h2-3,6-7H2,1H3,(H,10,11)
Instrument: LTQ Orbitrap XL Thermo Scientific
Instrument type: LC-ESI-ITFT
Ms type: MS2
Ion mode: POSITIVE
Ionization: ESI
Fragmentation mode: HCD
Collision energy: 30 % (nominal)
Resolution: 7500
Column name: XBridge C18 3.5um, 2.1x50mm, Waters
Retention time: 8.4 min
Base peak: 281.9991
Precursor m/z: 281.9986
Precursor type: [M+H]+
m/z	relative intensity	assigned
55.0179	6	C3H3O+
57.0699	52	C4H9+
74.0237	2	C2H4NO2+
86.0965	3	C5H12N+
96.0808	1	C6H10N+
116.0709	1	C5H10NO2+
126.904	2	I+
155.0944	7	C8H13NO2+
164.9197	999	C3H2I+
181.9459	4	C3H5IN+
182.9304	5	C3H4IO+
