Mass spectrum: Cefazolin; LC-ESI-QFT; MS2; CE: 120; R=35000; [M-H]-
Name: Cefazolin
Name: 3-[(5-methyl-1,3,4-thiadiazol-2-yl)sulfanylmethyl]-8-oxo-7-[[2-(tetrazol-1-yl)acetyl]amino]-5-thia-1-azabicyclo[4.2.0]oct-2-ene-2-carboxylic acid
Formula: C14H14N8O4S3
Exact mass: 454.03001
SMILES: CC1=NN=C(S1)SCC2=C(N3C(C(C3=O)NC(=O)CN4C=NN=N4)SC2)C(=O)O
InChI: InChI=1S/C14H14N8O4S3/c1-6-17-18-14(29-6)28-4-7-3-27-12-9(11(24)22(12)10(7)13(25)26)16-8(23)2-21-5-15-19-20-21/h5,9,12H,2-4H2,1H3,(H,16,23)(H,25,26)
Instrument: Q Exactive Plus Orbitrap Thermo Scientific
Instrument type: LC-ESI-QFT
Ms type: MS2
Ion mode: NEGATIVE
Ionization: ESI
Fragmentation mode: HCD
Collision energy: 120 (nominal)
Resolution: 35000
Column name: XBridge C18 3.5um, 2.1x50mm, Waters
Retention time: 4.4 min
Base peak: 321.0411
Precursor m/z: 453.0227
Precursor type: [M-H]-
m/z	relative intensity	assigned
50.0036	3	C3N-
52.0192	2	C3H2N-
56.9805	13	C2HS-
57.9758	999	CNS-
60.9755	26	CHOS-
64.0193	3	C4H2N-
65.0146	15	C3HN2-
65.9987	5	C3NO-
67.0304	4	C3H3N2-
69.0208	291	CHN4-
70.9837	5	C2HNS-
81.9759	3	C3NS-
105.0459	6	C6H5N2-
