Mass spectrum: Isoxaflutole; LC-ESI-QFT; MS2; CE: 150; R=35000; [M+H]+
Name: Isoxaflutole
Name: (5-cyclopropyl-1,2-oxazol-4-yl)-[2-methylsulfonyl-4-(trifluoromethyl)phenyl]methanone
Formula: C15H12F3NO4S
Exact mass: 359.04391
SMILES: O=C(c1c(onc1)C2CC2)c3ccc(cc3S(=O)(=O)C)C(F)(F)F
InChI: InChI=1S/C15H12F3NO4S/c1-24(21,22)12-6-9(15(16,17)18)4-5-10(12)13(20)11-7-19-23-14(11)8-2-3-8/h4-8H,2-3H2,1H3
Instrument: Q Exactive Plus Orbitrap Thermo Scientific
Instrument type: LC-ESI-QFT
Ms type: MS2
Ion mode: POSITIVE
Ionization: ESI
Fragmentation mode: HCD
Collision energy: 150 (nominal)
Resolution: 35000
Column name: XBridge C18 3.5um, 2.1x50mm, Waters
Retention time: 8.7 min
Base peak: 360.0506
Precursor m/z: 360.0512
Precursor type: [M+H]+
m/z	relative intensity	assigned
50.0152	66	C4H2+
51.0042	26	CHF2+
51.023	31	C4H3+
53.0023	28	C3HO+
53.0386	16	C4H5+
53.9975	2	C2NO+
57.0136	138	C3H2F+
57.9872	7	C2H2S+
58.995	7	C2H3S+
59.0292	13	C3H4F+
59.9665	25	COS+
61.0073	14	C5H+
62.0152	68	C5H2+
62.99	45	CH3OS+
63.023	430	C5H3+
65.0022	8	C4HO+
65.0387	8	C5H5+
66.0464	10	C5H6+
68.0057	55	C4HF+
68.9794	166	C3HS+
68.9947	63	CF3+
69.0135	11	C4H2F+
69.9872	11	C3H2S+
70.0214	164	C4H3F+
70.9951	6	C3H3S+
71.0292	18	C4H4F+
73.0085	1	C3H2FO+
74.0152	196	C6H2+
75.0041	222	C3HF2+
75.0229	999	C6H3+
77.0023	4	C5HO+
77.0198	13	C3H3F2+
77.0386	24	C6H5+
78.0465	10	C6H6+
79.0179	28	C5H3O+
80.0056	1	C5HF+
80.0258	1	C5H4O+
81.0136	68	C5H2F+
81.9872	14	C4H2S+
82.0025	6	C2HF3+
82.0214	16	C5H3F+
83.0292	203	C5H4F+
84.0028	4	C4H4S+
84.0371	6	C5H5F+
86.9701	7	C3FS+
87.023	18	C7H3+
87.9778	10	C3HFS+
88.012	20	C4H2F2+
88.9857	7	C3H2FS+
89.0024	1	C6HO+
89.02	1	C4H3F2+
89.0386	32	C7H5+
90.9991	5	C3HF2O+
92.0257	6	C6H4O+
92.9795	14	C5HS+
92.9948	17	C3F3+
93.0136	32	C6H2F+
94.0215	348	C6H3F+
94.9951	225	C5H3S+
95.0492	37	C6H7O+
96.0028	1	C5H4S+
96.037	13	C6H5F+
97.0084	2	C5H2FO+
97.0109	24	C5H5S+
98.0152	43	C8H2+
99.0042	76	C5HF2+
99.023	53	C8H3+
100.012	7	C5H2F2+
100.018	1	C7H2N+
101.0199	256	C5H3F2+
101.9935	5	C4H3FS+
102.0464	1	C8H6+
105.0136	8	C7H2F+
105.0448	25	C6H5N2+
106.0026	9	C4HF3+
106.9762	1	C3HF2S+
107.0292	28	C7H4F+
108.0029	21	C6H4S+
108.0373	1	C7H5F+
109.0108	6	C6H5S+
109.0449	55	C7H6F+
110.016	7	C6H3FO+
111.0238	1	C6H4FO+
112.012	29	C6H2F2+
112.032	19	C6H5FO+
112.9857	29	C5H2FS+
113.0198	34	C6H3F2+
113.0397	12	C6H6FO+
113.9935	30	C5H3FS+
114.0277	15	C6H4F2+
115.0015	29	C5H4FS+
115.0545	2	C9H7+
116.9949	4	C5F3+
117.0139	1	C8H2F+
118.0026	15	C5HF3+
119.0104	70	C5H2F3+
120.0183	35	C5H3F3+
121.026	3	C5H4F3+
123.0042	29	C7HF2+
123.0354	30	C3H9NO2S+
124.0122	11	C7H2F2+
124.0185	5	C9H2N+
125.0199	651	C7H3F2+
125.9936	4	C6H3FS+
126.0468	4	C10H6+
127.0355	44	C7H5F2+
128.0622	6	C10H8+
129.0145	3	C6H3F2O+
130.023	3	C6H4F2O+
131.0303	8	C6H5F2O+
132.0183	127	C6H3F3+
132.992	12	C7HO3+
133.0258	1	C6H4F3+
133.0449	4	C9H6F+
134.0401	4	C8H5FN+
136.9668	2	C4F3S+
136.9857	1	C7H2FS+
138.0277	4	C8H4F2+
139.0016	2	C7H4FS+
139.0544	6	C11H7+
140.0497	1	C10H6N+
141.0148	29	C7H3F2O+
141.026	52	C3H8FNO2S+
142.0229	1	C7H4F2O+
143.0105	564	C7H2F3+
143.9844	8	C8O3+
144.0183	44	C7H3F3+
145.0261	38	C7H4F3+
145.9832	4	C5H3FO2S+
147.0357	1	C2H10FNO3S+
149.0207	2	C6H4F3O+
151.0354	2	C9H5F2+
152.0619	1	C12H8+
154.0658	1	C11H8N+
155.0606	1	C4H13NO3S+
156.992	43	C9HO3+
159.0257	1	C7H5F2O2+
160.0133	2	C7H3F3O+
161.021	6	C7H4F3O+
162.0289	35	C7H5F3O+
162.9826	6	C8FO3+
163.9903	6	C8HFO3+
165.0265	1	C2H9F2NO3S+
169.0262	4	C9H4F3+
172.0246	2	C4H8F2NO2S+
174.0168	7	C7H3F3NO+
174.9826	2	C9FO3+
176.0082	18	C7H3F3O2+
177.0161	1	C7H4F3O2+
194.0189	1	C7H5F3O3+
195.0265	3	C7H6F3O3+
204.0143	1	C4H8F2NO4S+
