Mass spectrum: Medazepam; LC-ESI-QFT; MS2; CE: 45; R=35000; [M+H]+
Name: Medazepam
Name: 7-chloranyl-1-methyl-5-phenyl-2,3-dihydro-1,4-benzodiazepine
Formula: C16H15ClN2
Exact mass: 270.09238
SMILES: CN1CCN=C(C2=C1C=CC(=C2)Cl)C3=CC=CC=C3
InChI: InChI=1S/C16H15ClN2/c1-19-10-9-18-16(12-5-3-2-4-6-12)14-11-13(17)7-8-15(14)19/h2-8,11H,9-10H2,1H3
Instrument: Q Exactive Orbitrap Thermo Scientific
Instrument type: LC-ESI-QFT
Ms type: MS2
Ion mode: POSITIVE
Ionization: ESI
Fragmentation mode: HCD
Collision energy: 45 (nominal)
Resolution: 35000
Column name: XBridge C18 3.5um, 2.1x50mm, Waters
Retention time: 6.5 min
Base peak: 271.0999
Precursor m/z: 271.0997
Precursor type: [M+H]+
m/z	relative intensity	assigned
65.0385	6	C5H5+
79.0543	5	C6H7+
91.0542	553	C7H7+
103.0542	1	C8H7+
105.0698	4	C8H9+
106.0651	28	C7H8N+
117.0572	20	C8H7N+
118.0651	5	C8H8N+
120.0806	3	C8H10N+
125.0149	6	C7H6Cl+
130.0652	5	C9H8N+
131.073	20	C9H9N+
132.0809	4	C9H10N+
140.0263	7	C7H7ClN+
151.0182	2	C8H6ClN+
152.0261	25	C8H7ClN+
153.034	1	C8H8ClN+
154.0417	7	C8H9ClN+
164.0263	12	C9H7ClN+
165.0214	98	C8H6ClN2+
166.0418	34	C9H9ClN+
168.0573	3	C9H11ClN+
178.0779	5	C14H10+
179.0371	26	C9H8ClN2+
179.0855	4	C14H11+
180.0448	386	C9H9ClN2+
181.088	1	C13H11N+
193.0526	8	C10H10ClN2+
193.0888	27	C14H11N+
194.0967	3	C14H12N+
195.1043	5	C14H13N+
201.0468	3	C13H10Cl+
204.0806	5	C15H10N+
205.0888	4	C15H11N+
206.0964	16	C15H12N+
207.1043	384	C15H13N+
208.1122	1	C15H14N+
213.0467	1	C14H10Cl+
214.0418	10	C13H9ClN+
216.0575	4	C13H11ClN+
218.0963	20	C16H12N+
219.1043	62	C16H13N+
221.1076	4	C15H13N2+
227.0496	21	C14H10ClN+
228.0574	133	C14H11ClN+
230.0732	85	C14H13ClN+
235.123	9	C16H15N2+
236.131	12	C16H16N2+
239.0502	1	C15H10ClN+
240.0569	6	C15H11ClN+
241.0519	1	C14H10ClN2+
241.0646	1	C15H12ClN+
242.0731	403	C15H13ClN+
243.0808	15	C15H14ClN+
244.0889	16	C15H15ClN+
252.0575	1	C16H11ClN+
254.0731	104	C16H13ClN+
255.0684	6	C15H12ClN2+
256.0763	12	C15H13ClN2+
269.084	4	C16H14ClN2+
271.0996	999	C16H16ClN2+
