Mass spectrum: Minocycline; LC-ESI-QFT; MS2; CE: 120; R=35000; [M+H]+
Name: Minocycline
Name: Minocin
Name: (4S,4aS,5aR,12aS)-4,7-Bis(dimethylamino)-3,10,12,12a-tetrahydroxy-1,11-dioxo-1,4,4a,5,5a,6,11,12a-octahydro-2-tetracenecarboxamide
Formula: C23H27N3O7
Exact mass: 457.18490
SMILES: [H][C@@]12CC3=C(C(O)=CC=C3N(C)C)C(=O)C1=C(O)[C@]1(O)C(=O)C(C(N)=O)=C(O)[C@@H](N(C)C)[C@]1([H])C2
InChI: InChI=1S/C23H27N3O7/c1-25(2)12-5-6-13(27)15-10(12)7-9-8-11-17(26(3)4)19(29)16(22(24)32)21(31)23(11,33)20(30)14(9)18(15)28/h5-6,9,11,17,27,29-30,33H,7-8H2,1-4H3,(H2,24,32)/t9-,11-,17-,23-/m0/s1
Instrument: Q Exactive Plus Orbitrap Thermo Scientific
Instrument type: LC-ESI-QFT
Ms type: MS2
Ion mode: POSITIVE
Ionization: ESI
Fragmentation mode: HCD
Collision energy: 120 (nominal)
Resolution: 35000
Column name: XBridge C18 3.5um, 2.1x50mm, Waters
Retention time: 3.7 min
Base peak: 229.5995
Precursor m/z: 458.1922
Precursor type: [M+H]+
m/z	relative intensity	assigned
50.0151	6	C4H2+
51.0227	7	C4H3+
52.0181	14	C3H2N+
53.0022	26	C3HO+
53.0385	18	C4H5+
54.0339	10	C3H4N+
55.0178	27	C3H3O+
55.0416	12	C3H5N+
55.0542	2	C4H7+
56.0494	13	C3H6N+
58.0651	84	C3H8N+
63.0227	9	C5H3+
65.0385	52	C5H5+
66.0338	7	C4H4N+
66.0463	6	C5H6+
67.0178	5	C4H3O+
67.0416	6	C4H5N+
67.0542	8	C5H7+
68.0128	1	C3H2NO+
68.0494	21	C4H6N+
68.997	40	C3HO2+
69.0334	6	C4H5O+
70.065	38	C4H8N+
71.0127	2	C3H3O2+
72.0443	11	C3H6NO+
75.0226	1	C6H3+
76.0306	6	C6H4+
77.0021	2	C5HO+
77.0383	13	C6H5+
78.0463	47	C6H6+
79.0178	7	C5H3O+
79.0415	1	C5H5N+
79.0542	16	C6H7+
80.013	121	C4H2NO+
80.0494	12	C5H6N+
81.0334	6	C5H5O+
81.0572	5	C5H7N+
82.0286	1	C4H4NO+
82.0651	12	C5H8N+
83.0129	1	C4H3O2+
83.0365	5	C4H5NO+
84.0444	1	C4H6NO+
84.0808	18	C5H10N+
89.0385	45	C7H5+
90.0338	1	C6H4N+
90.0464	8	C7H6+
91.0178	5	C6H3O+
91.0542	56	C7H7+
92.0494	7	C6H6N+
93.0335	5	C6H5O+
93.0572	9	C6H7N+
94.0412	2	C6H6O+
94.0651	12	C6H8N+
95.0128	10	C5H3O2+
95.0491	38	C6H7O+
96.0443	8	C5H6NO+
96.0807	2	C6H10N+
98.06	41	C5H8NO+
101.0386	5	C8H5+
102.0463	281	C8H6+
103.0541	117	C8H7+
104.0494	35	C7H6N+
104.0619	73	C8H8+
105.0336	9	C7H5O+
105.0445	17	C6H5N2+
105.0572	56	C7H7N+
105.0698	10	C8H9+
106.0651	19	C7H8N+
107.0126	1	C6H3O2+
107.049	19	C7H7O+
107.0728	3	C7H9N+
108.0441	3	C6H6NO+
108.0806	11	C7H10N+
110.06	6	C6H8NO+
111.044	2	C6H7O2+
113.0384	2	C9H5+
114.0463	4	C9H6+
115.0542	155	C9H7+
116.0494	46	C8H6N+
116.0619	15	C9H8+
117.0572	48	C8H7N+
117.0697	9	C9H9+
118.0285	2	C7H4NO+
118.0412	6	C8H6O+
118.065	35	C8H8N+
119.0128	1	C7H3O2+
119.0491	7	C8H7O+
120.0443	7	C7H6NO+
120.0807	9	C8H10N+
121.0283	8	C7H5O2+
121.0522	1	C7H7NO+
122.06	2	C7H8NO+
123.0435	1	C7H7O2+
124.0389	1	C6H6NO2+
126.0462	4	C10H6+
127.0541	12	C10H7+
128.0493	24	C9H6N+
128.062	81	C10H8+
129.0333	5	C9H5O+
129.0572	6	C9H7N+
129.0698	69	C10H9+
130.0651	999	C9H8N+
131.0491	64	C9H7O+
131.0729	807	C9H9N+
132.0442	16	C8H6NO+
132.0569	31	C9H8O+
132.0806	12	C9H10N+
133.0521	29	C8H7NO+
133.0648	8	C9H9O+
134.0599	58	C8H8NO+
135.044	2	C8H7O2+
135.0677	7	C8H9NO+
136.0756	15	C8H10NO+
139.0541	132	C11H7+
140.0493	27	C10H6N+
140.0619	21	C11H8+
141.0578	9	C10H7N+
141.0697	112	C11H9+
142.065	30	C10H8N+
143.0489	9	C10H7O+
143.0729	18	C10H9N+
143.0853	1	C11H11+
144.0445	11	C9H6NO+
144.0569	25	C10H8O+
144.0806	33	C10H10N+
145.0277	1	C9H5O2+
145.0521	5	C9H7NO+
145.0646	29	C10H9O+
145.0887	4	C10H11N+
146.0599	55	C9H8NO+
147.044	29	C9H7O2+
147.0678	1	C9H9NO+
148.0389	1	C8H6NO2+
148.0756	17	C9H10NO+
150.0463	5	C12H6+
150.0548	2	C8H8NO2+
150.0914	1	C9H12NO+
151.0541	12	C12H7+
152.062	137	C12H8+
153.0572	10	C11H7N+
153.0697	106	C12H9+
154.0651	61	C11H8N+
154.0776	4	C12H10+
155.0492	25	C11H7O+
155.0602	36	C10H7N2+
155.0728	24	C11H9N+
155.0854	9	C12H11+
156.0442	6	C10H6NO+
156.057	7	C11H8O+
156.0807	54	C11H10N+
157.0523	9	C10H7NO+
157.0647	71	C11H9O+
157.0883	4	C11H11N+
158.0364	5	C10H6O2+
158.0599	103	C10H8NO+
159.0441	7	C10H7O2+
159.0678	60	C10H9NO+
160.0392	16	C9H6NO2+
160.0517	18	C10H8O2+
160.0756	45	C10H10NO+
161.0596	4	C10H9O2+
163.0539	17	C13H7+
164.0493	2	C12H6N+
164.062	7	C13H8+
164.0701	1	C9H10NO2+
165.0698	119	C13H9+
166.065	83	C12H8N+
166.0773	5	C13H10+
167.0491	28	C12H7O+
167.0729	96	C12H9N+
167.0851	6	C13H11+
168.0568	37	C12H8O+
168.0806	70	C12H10N+
169.0523	8	C11H7NO+
169.0646	89	C12H9O+
170.0599	55	C11H8NO+
170.0725	4	C12H10O+
170.0962	11	C12H12N+
171.0438	13	C11H7O2+
171.0677	6	C11H9NO+
171.0802	5	C12H11O+
172.0392	40	C10H6NO2+
172.0756	24	C11H10NO+
173.047	7	C10H7NO2+
173.0596	1	C11H9O2+
173.0835	9	C11H11NO+
174.0549	85	C10H8NO2+
175.0396	1	C10H7O3+
175.0625	4	C10H9NO2+
176.0619	22	C14H8+
177.0576	11	C13H7N+
177.0698	9	C14H9+
178.0651	28	C13H8N+
178.0773	17	C14H10+
179.049	4	C13H7O+
179.0604	14	C12H7N2+
179.0728	17	C13H9N+
179.0855	5	C14H11+
180.0568	6	C13H8O+
180.0806	76	C13H10N+
181.0517	4	C12H7NO+
181.0646	68	C13H9O+
181.0882	21	C13H11N+
182.06	31	C12H8NO+
182.0726	7	C13H10O+
182.0963	35	C13H12N+
183.0439	5	C12H7O2+
183.0678	64	C12H9NO+
184.052	20	C12H8O2+
184.0756	160	C12H10NO+
185.047	7	C11H7NO2+
185.0595	32	C12H9O2+
185.0832	5	C12H11NO+
186.0548	52	C11H8NO2+
186.091	7	C12H12NO+
187.0626	117	C11H9NO2+
188.0704	15	C11H10NO2+
189.0697	14	C15H9+
189.0782	5	C11H11NO2+
190.0649	28	C14H8N+
191.0729	30	C14H9N+
192.0569	7	C14H8O+
192.0807	24	C14H10N+
193.0521	5	C13H7NO+
193.0648	13	C14H9O+
193.0881	9	C14H11N+
194.06	38	C13H8NO+
194.0726	5	C14H10O+
194.0964	17	C14H12N+
195.0437	4	C13H7O2+
195.0549	2	C12H7N2O+
195.0677	30	C13H9NO+
195.0804	5	C14H11O+
196.0517	5	C13H8O2+
196.0756	104	C13H10NO+
197.0595	35	C13H9O2+
197.0833	16	C13H11NO+
198.055	17	C12H8NO2+
198.0673	5	C13H10O2+
198.0912	46	C13H12NO+
199.0626	14	C12H9NO2+
200.0341	31	C11H6NO3+
200.0702	17	C12H10NO2+
201.0416	1	C11H7NO3+
201.0566	1	C15H7N+
201.0782	7	C12H11NO2+
202.0498	20	C11H8NO3+
202.0649	2	C15H8N+
202.0863	1	C12H12NO2+
203.0584	1	C11H9NO3+
203.0728	4	C15H9N+
204.0559	2	C13H6N3+
204.0809	17	C15H10N+
205.0647	13	C15H9O+
205.0886	2	C15H11N+
206.06	15	C14H8NO+
206.0961	4	C15H12N+
207.0439	2	C14H7O2+
207.0677	20	C14H9NO+
207.0808	1	C15H11O+
208.0515	3	C14H8O2+
208.0757	43	C14H10NO+
209.0595	16	C14H9O2+
209.0831	15	C14H11NO+
210.0548	15	C13H8NO2+
210.0672	2	C14H10O2+
210.0913	45	C14H12NO+
211.0627	29	C13H9NO2+
211.0987	2	C14H13NO+
212.0705	162	C13H10NO2+
213.0546	7	C13H9O3+
213.0784	17	C13H11NO2+
214.05	1	C12H8NO3+
214.065	1	C16H8N+
214.0862	6	C13H12NO2+
215.0575	4	C12H9NO3+
216.0807	1	C16H10N+
218.0451	8	C11H8NO4+
218.0595	4	C15H8NO+
218.0962	2	C16H12N+
219.0675	10	C15H9NO+
220.0755	32	C15H10NO+
221.0596	12	C15H9O2+
221.0833	4	C15H11NO+
222.055	8	C14H8NO2+
222.0914	8	C15H12NO+
223.0625	7	C14H9NO2+
223.0989	1	C15H13NO+
224.0705	52	C14H10NO2+
225.0537	1	C14H9O3+
225.0782	12	C14H11NO2+
226.0498	2	C13H8NO3+
226.086	34	C14H12NO2+
227.0576	5	C13H9NO3+
227.0701	1	C14H11O3+
227.0941	1	C14H13NO2+
228.0652	2	C13H10NO3+
232.0756	5	C16H10NO+
233.0835	1	C16H11NO+
234.0542	1	C15H8NO2+
234.0911	6	C16H12NO+
235.0625	10	C15H9NO2+
236.0703	27	C15H10NO2+
237.0544	4	C15H9O3+
237.0785	4	C15H11NO2+
238.0862	12	C15H12NO2+
239.0576	4	C14H9NO3+
239.0933	2	C15H13NO2+
240.0652	34	C14H10NO3+
241.0496	2	C14H9O4+
241.0735	1	C14H11NO3+
242.0815	5	C14H12NO3+
248.0705	6	C16H10NO2+
249.0544	1	C16H9O3+
249.0779	2	C16H11NO2+
250.049	1	C15H8NO3+
250.086	4	C16H12NO2+
251.0575	1	C15H9NO3+
252.0651	7	C15H10NO3+
254.0811	1	C15H12NO3+
260.0703	1	C17H10NO2+
264.065	5	C16H10NO3+
265.0741	1	C16H11NO3+
268.0603	61	C15H10NO4+
276.0652	1	C17H10NO3+
