Mass spectrum: Fluoxastrobin; LC-ESI-QFT; MS2; CE: 60; R=35000; [M+H]+
Name: Fluoxastrobin
Name: (E)-[[2-[6-(2-chlorophenoxy)-5-fluoro-pyrimidin-4-yl]oxyphenyl]-(5,6-dihydro-1,4,2-dioxazin-3-yl)methylene]-methoxy-amine
Formula: C21H16ClFN4O5
Exact mass: 458.07933
SMILES: Clc4ccccc4Oc3ncnc(Oc2ccccc2C(=N\OC)/C=1OCCON=1)c3F
InChI: InChI=1S/C21H16ClFN4O5/c1-28-26-18(21-27-30-11-10-29-21)13-6-2-4-8-15(13)31-19-17(23)20(25-12-24-19)32-16-9-5-3-7-14(16)22/h2-9,12H,10-11H2,1H3/b26-18+
Instrument: Q Exactive Orbitrap Thermo Scientific
Instrument type: LC-ESI-QFT
Ms type: MS2
Ion mode: POSITIVE
Ionization: ESI
Fragmentation mode: HCD
Collision energy: 60 (nominal)
Resolution: 35000
Column name: XBridge C18 3.5um, 2.1x50mm, Waters
Retention time: 11.5 min
Base peak: 459.0867
Precursor m/z: 459.0866
Precursor type: [M+H]+
m/z	relative intensity	assigned
64.018	2	C4H2N+
65.0385	49	C5H5+
69.9923	16	C2NO2+
73.0196	2	C2H2FN2+
75.0229	24	C6H3+
77.0385	4	C6H5+
78.0337	22	C5H4N+
79.0178	3	C5H3O+
79.0417	11	C5H5N+
79.0542	8	C6H7+
80.0495	8	C5H6N+
81.0335	15	C5H5O+
86.0237	2	C3H4NO2+
86.9877	11	C3FO2+
86.9995	11	C4H4Cl+
89.0385	3	C7H5+
90.0338	99	C6H4N+
91.0416	8	C6H5N+
91.0541	3	C2H6FN3+
92.0257	14	C6H4O+
92.0495	16	C6H6N+
93.0334	29	C6H5O+
94.0413	11	C6H6O+
95.0491	50	C6H7O+
96.0443	8	C5H6NO+
98.9995	16	
102.0338	22	C7H4N+
104.0495	27	C7H6N+
105.0336	18	C7H5O+
105.0448	17	C6H5N2+
106.0287	31	C6H4NO+
106.0525	8	C6H6N2+
107.0292	9	C7H4F+
108.0443	4	C6H6NO+
110.9993	17	CH3ClFN3+
111.044	48	C6H7O2+
112.0074	5	C6H5Cl+
113.0396	2	C6H6FO+
116.0368	4	C7H4N2+
116.0494	2	C8H6N+
117.0447	9	C7H5N2+
117.0572	4	C3H6FN4+
118.0285	3	C2H3FN4O+
118.0525	4	C7H6N2+
119.0364	18	
120.0444	124	C7H6NO+
121.0321	7	C7H4FN+
121.0395	11	C6H5N2O+
122.04	40	C7H5FN+
123.0352	10	C6H4FN2+
128.0023	18	C6H5ClO+
129.01	98	CH5ClFN3O+
129.0447	79	C8H5N2+
130.0289	69	C8H4NO+
130.0399	108	C7H4N3+
131.0602	4	C8H7N2+
132.0245	5	C8H3FN+
132.0443	22	C8H6NO+
132.0557	2	C7H6N3+
133.032	14	C8H4FN+
133.0395	15	C7H5N2O+
134.0237	3	C7H4NO2+
134.0401	20	C8H5FN+
134.0473	2	C7H6N2O+
134.0599	7	C3H7FN4O+
135.0241	2	C8H4FO+
137.0027	8	C7H4ClN+
138.0105	364	C7H5ClN+
138.9945	42	C7H4ClO+
139.0057	142	C6H4ClN2+
140.9903	14	C7H3ClF+
142.0401	13	C8H4N3+
143.0055	2	C7H5ClF+
144.0318	18	C8H4N2O+
144.0556	9	C8H6N3+
145.0397	144	C8H5N2O+
146.0237	14	
147.0354	10	C8H4FN2+
147.0554	4	C8H7N2O+
147.9949	3	C8H3ClN+
149.0272	3	C8H4FNO+
149.0509	2	C8H6FN2+
150.0349	259	C8H5FNO+
151.0058	22	C7H4ClN2+
151.0428	3	C8H6FNO+
154.04	22	C9H4N3+
154.9894	3	C7H4ClO2+
157.0396	15	C9H5N2O+
159.0356	17	C9H4FN2+
160.0268	26	C8H4N2O2+
160.0431	23	C9H5FN2+
160.0501	6	C8H6N3O+
161.0273	14	C9H4FNO+
161.0345	44	C8H5N2O2+
162.0351	17	C9H5FNO+
162.0423	28	C8H6N2O2+
163.0055	24	
163.043	6	C9H6FNO+
163.0502	26	C8H7N2O2+
164.0341	98	C3H5FN4O3+
165.0459	9	C8H6FN2O+
166.0055	9	C8H5ClNO+
168.001	80	C8H4ClFN+
168.0454	4	C8H7FNO2+
169.0398	3	C10H5N2O+
170.0348	28	C9H4N3O+
172.0503	2	C9H6N3O+
174.0462	11	C9H5FN3+
175.0302	53	C9H4FN2O+
176.0378	16	C9H5FN2O+
177.0459	3	C9H6FN2O+
178.0298	171	C9H5FNO2+
179.0007	42	C8H4ClN2O+
179.0376	3	C9H6FNO2+
182.0351	9	C10H4N3O+
183.0121	3	C8H5ClFN2+
183.9958	16	C8H4ClFNO+
185.0384	3	C10H4FN3+
186.0461	4	C10H5FN3+
187.0303	3	C10H4FN2O+
188.038	999	C10H5FN2O+
189.0458	17	C10H6FN2O+
190.0302	2	C7H8ClFN2O+
190.0411	13	C9H5FN3O+
190.0495	3	C5H7FN4O3+
191.0249	20	C9H4FN2O2+
195.0121	3	C9H5ClFN2+
195.0329	3	C9H6FNO3+
197.0631	3	C13H8FN+
198.0296	7	C10H4N3O2+
200.0485	2	C6H12ClFNO3+
202.0408	16	C10H5FN3O+
202.0523	2	C14H6N2+
203.0248	4	C10H6ClN3+
204.0329	3	C10H5FN2O2+
205.0407	35	C10H6FN2O2+
205.0608	20	C10H9N2O3+
213.0337	4	C8H7ClFN4+
214.0067	20	C9H6ClFNO2+
214.0409	13	C11H5FN3O+
214.061	2	C11H8N3O2+
215.0253	3	C11H4FN2O2+
215.0487	3	C11H6FN3O+
216.057	11	
218.036	8	C10H5FN3O2+
220.028	18	C10H5FN2O3+
223.0068	4	C10H5ClFN2O+
223.0668	5	C14H8FN2+
225.0586	21	C14H8FNO+
228.044	10	C11H5FN4O+
229.0282	18	C11H4FN3O2+
229.0518	4	C11H6FN4O+
230.0361	84	C11H5FN3O2+
232.0522	4	C8H10ClFN4O+
232.063	4	C15H8N2O+
239.0016	3	C10H5ClFN2O2+
239.0373	3	C14H8ClN2+
239.9853	2	C13HFO4+
240.0441	13	C12H5FN4O+
241.0171	3	C13H4FNO3+
241.0522	14	C17H7NO+
244.0522	3	C9H10ClFN4O+
246.031	19	C11H5FN3O3+
251.0617	10	C15H8FN2O+
257.047	3	C12H6FN4O2+
262.0537	7	C16H7FN2O+
263.0607	3	C19H7N2+
266.0123	13	C14H5ClN3O+
267.0335	3	C12H9ClFN2O2+
274.0618	11	C13H11ClN4O+
277.0647	11	C16H8FN3O+
278.0724	24	C16H9FN3O+
279.0565	23	C16H8FN2O2+
280.0644	27	C16H9FN2O2+
286.0609	3	C17H8N3O2+
298.0608	3	C18H8N3O2+
301.072	3	C17H9N4O2+
304.0524	12	
306.0672	256	C17H9FN3O2+
312.0342	2	C21H9ClO+
313.0723	4	C18H9N4O2+
315.0335	14	C16H9ClFN2O2+
318.0674	30	C18H9FN3O2+
320.0223	3	C17H7ClN3O2+
331.0627	30	C18H8FN4O2+
340.0284	35	C17H8ClFN3O2+
342.0444	9	C17H10ClFN3O2+
367.0398	10	C18H9ClFN4O2+
