Mass spectrum: 1,3-Dimethylpteridine-2,4-dione; LC-ESI-QFT; MS2; CE: 45; R=35000; [M+H]+
Name: 1,3-Dimethylpteridine-2,4-dione
Name: 1,3-Dimethyllumazine
Formula: C8H8N4O2
Exact mass: 192.06473
SMILES: O=C2c1nccnc1N(C(=O)N2C)C
InChI: InChI=1S/C8H8N4O2/c1-11-6-5(9-3-4-10-6)7(13)12(2)8(11)14/h3-4H,1-2H3
Instrument: Q Exactive Orbitrap Thermo Scientific
Instrument type: LC-ESI-QFT
Ms type: MS2
Ion mode: POSITIVE
Ionization: ESI
Fragmentation mode: HCD
Collision energy: 45 (nominal)
Resolution: 35000
Column name: XBridge C18 3.5um, 2.1x50mm, Waters
Retention time: 3.6 min
Base peak: 193.072
Precursor m/z: 193.072
Precursor type: [M+H]+
m/z	relative intensity	assigned
66.0339	1	C4H4N+
81.0447	12	C4H5N2+
93.0447	10	C5H5N2+
95.0603	4	C5H7N2+
97.0396	2	C4H5N2O+
108.0556	57	C5H6N3+
110.0349	1	C4H4N3O+
111.0553	3	C5H7N2O+
120.0556	26	C6H6N3+
121.0634	1	C6H7N3+
122.0712	30	C6H8N3+
126.0663	1	C5H8N3O+
132.0557	11	C7H6N3+
133.0508	1	C6H5N4+
134.0586	7	C6H6N4+
136.0505	12	C6H6N3O+
148.0745	1	C7H8N4+
149.0822	70	C7H9N4+
150.0662	1	C7H8N3O+
179.0562	6	C7H7N4O2+
193.072	999	C8H9N4O2+
