Mass spectrum: Isoxaben; LC-ESI-QFT; MS2; CE: 150; R=35000; [M-H]-
Name: Isoxaben
Name: 2,6-dimethoxy-N-[3-(3-methylpentan-3-yl)-1,2-oxazol-5-yl]benzamide
Formula: C18H24N2O4
Exact mass: 332.17361
SMILES: CCC(C)(CC)C1=NOC(=C1)NC(=O)C2=C(C=CC=C2OC)OC
InChI: InChI=1S/C18H24N2O4/c1-6-18(3,7-2)14-11-15(24-20-14)19-17(21)16-12(22-4)9-8-10-13(16)23-5/h8-11H,6-7H2,1-5H3,(H,19,21)
Instrument: Q Exactive Plus Orbitrap Thermo Scientific
Instrument type: LC-ESI-QFT
Ms type: MS2
Ion mode: NEGATIVE
Ionization: ESI
Fragmentation mode: HCD
Collision energy: 150 (nominal)
Resolution: 35000
Column name: XBridge C18 3.5um, 2.1x50mm, Waters
Retention time: 10.6 min
Base peak: 331.1659
Precursor m/z: 331.1663
Precursor type: [M-H]-
m/z	relative intensity	assigned
50.0035	12	C3N-
64.0066	12	C3N2-
65.0032	55	C4HO-
65.0145	90	C3HN2-
65.0397	25	C5H5-
65.9985	999	C3NO-
80.0267	20	C5H4O-
82.0059	42	C4H2O2-
88.0192	125	C6H2N-
90.0349	11	C6H4N-
91.0188	46	C6H3O-
92.0266	18	C6H4O-
93.0345	200	C6H5O-
95.0138	57	C5H3O2-
105.0221	166	C6H3NO-
108.0216	169	C6H4O2-
121.0296	193	C7H5O2-
133.0168	16	C7H3NO2-
133.0289	10	C8H5O2-
