Mass spectrum: Uvinul-LR; LC-ESI-QFT; MS2; CE: 60%; R=17500; [M+H]+
Name: Uvinul-LR
Name: 2-ethoxyethyl 2-cyano-2-[3-(3-methoxypropylamino)cyclohex-2-en-1-ylidene]acetate
Formula: C17H26N2O4
Exact mass: 322.1893
SMILES: CCOCCOC(=O)C(=C1CCCC(=C1)NCCCOC)C#N
InChI: InChI=1S/C17H26N2O4/c1-3-22-10-11-23-17(20)16(13-18)14-6-4-7-15(12-14)19-8-5-9-21-2/h12,19H,3-11H2,1-2H3
Instrument: Exploris 240 Orbitrap Thermo Scientific
Instrument type: LC-ESI-QFT
Ms type: MS2
Ion mode: POSITIVE
Ionization: ESI
Fragmentation mode: HCD
Collision energy: 60 % (nominal)
Resolution: 17500
Column name: XBridge C18 3.5um, 2.1x50mm, Waters
Retention time: 6.721 min
Base peak: 233.1283
Precursor m/z: 323.1965
Precursor type: [M+H]+
m/z	relative intensity	assigned
73.0648	108	C4H9O+
79.0546	15	C6H7+
91.0542	23	C7H7+
106.0648	8	C7H8N+
116.0494	37	C8H6N+
118.0655	42	C8H8N+
133.076	12	C8H9N2+
145.0761	115	C9H9N2+
146.06	379	C9H8NO+
147.0918	92	C9H11N2+
149.1074	14	C9H13N2+
158.0841	12	C10H10N2+
161.0706	38	C9H9N2O+
173.0709	335	C10H9N2O+
173.1073	68	C11H13N2+
175.1225	49	C11H15N2+
201.1023	913	C12H13N2O+
233.1286	999	C13H17N2O2+
