Mass spectrum: Fenamiphos; LC-ESI-QFT; MS2; CE: 75%; R=17500; [M+H]+
Name: Fenamiphos
Name: N-[ethoxy-(3-methyl-4-methylsulfanylphenoxy)phosphoryl]propan-2-amine
Formula: C13H22NO3PS
Exact mass: 303.1058
SMILES: CCOP(=O)(NC(C)C)OC1=CC(=C(C=C1)SC)C
InChI: InChI=1S/C13H22NO3PS/c1-6-16-18(15,14-10(2)3)17-12-7-8-13(19-5)11(4)9-12/h7-10H,6H2,1-5H3,(H,14,15)
Instrument: Exploris 240 Orbitrap Thermo Scientific
Instrument type: LC-ESI-QFT
Ms type: MS2
Ion mode: POSITIVE
Ionization: ESI
Fragmentation mode: HCD
Collision energy: 75 % (nominal)
Resolution: 17500
Column name: XBridge C18 3.5um, 2.1x50mm, Waters
Retention time: 10.489 min
Base peak: 304.1128
Precursor m/z: 304.1131
Precursor type: [M+H]+
m/z	relative intensity	assigned
58.995	26	C2H3S+
60.0807	20	C3H10N+
77.0387	13	C6H5+
79.054	33	C6H7+
79.9895	10	C4O2+
91.0542	44	C7H7+
93.0699	25	C7H9+
97.0105	69	C5H5S+
97.9998	10	H5NO3P+
103.0538	26	C8H7+
104.0621	31	C8H8+
107.049	107	C7H7O+
108.0569	68	C7H8O+
109.0646	27	C7H9O+
122.0184	35	C7H6S+
125.0419	13	C7H9S+
135.0265	16	C8H7S+
137.0417	47	C8H9S+
138.0131	20	C7H6OS+
139.0213	32	C7H7OS+
140.029	8	C7H8OS+
153.0368	119	C8H9OS+
155.0525	27	C8H11OS+
168.9869	67	C7H6OPS+
169.0047	20	C7H6O3P+
184.9814	34	C7H6O2PS+
198.9976	38	C8H8O2PS+
201.9847	999	C7H7O3PS+
202.9924	44	C7H8O3PS+
214.9933	14	C8H8O3PS+
217.0082	338	C8H10O3PS+
