Mass spectrum: Carisoprodol; LC-ESI-QFT; MS2; CE: 15; R=35000; [M+H]+
Name: Carisoprodol
Name: [2-(carbamoyloxymethyl)-2-methylpentyl] N-propan-2-ylcarbamate
Formula: C12H24N2O4
Exact mass: 260.17361
SMILES: CCCC(C)(COC(=O)N)COC(=O)NC(C)C
InChI: InChI=1S/C12H24N2O4/c1-5-6-12(4,7-17-10(13)15)8-18-11(16)14-9(2)3/h9H,5-8H2,1-4H3,(H2,13,15)(H,14,16)
Instrument: Q Exactive Orbitrap Thermo Scientific
Instrument type: LC-ESI-QFT
Ms type: MS2
Ion mode: POSITIVE
Ionization: ESI
Fragmentation mode: HCD
Collision energy: 15 (nominal)
Resolution: 35000
Column name: XBridge C18 3.5um, 2.1x50mm, Waters
Retention time: 8.8 min
Base peak: 261.1812
Precursor m/z: 261.1809
Precursor type: [M+H]+
m/z	relative intensity	assigned
55.0543	9	C4H7+
59.0492	6	C3H7O+
62.0237	422	CH4NO2+
69.0699	15	C5H9+
71.0856	4	C5H11+
73.0648	5	C4H9O+
86.0601	1	C4H8NO+
97.1012	429	C7H13+
104.0707	26	C4H10NO2+
115.1118	170	C7H15O+
133.1224	6	C7H17O2+
158.1177	455	C8H16NO2+
176.1283	999	C8H18NO3+
200.1646	308	C11H22NO2+
261.1812	13	C12H25N2O4+
