Mass spectrum: Flurtamone; LC-ESI-QFT; MS2; CE: 180; R=35000; [M+H]+
Name: Flurtamone
Name: 5-(methylamino)-2-phenyl-4-[3-(trifluoromethyl)phenyl]furan-3-one
Formula: C18H14F3NO2
Exact mass: 333.09766
SMILES: CNC1=C(C(=O)C(O1)C2=CC=CC=C2)C3=CC(=CC=C3)C(F)(F)F
InChI: InChI=1S/C18H14F3NO2/c1-22-17-14(12-8-5-9-13(10-12)18(19,20)21)15(23)16(24-17)11-6-3-2-4-7-11/h2-10,16,22H,1H3
Instrument: Q Exactive Plus Orbitrap Thermo Scientific
Instrument type: LC-ESI-QFT
Ms type: MS2
Ion mode: POSITIVE
Ionization: ESI
Fragmentation mode: HCD
Collision energy: 180 (nominal)
Resolution: 35000
Column name: XBridge C18 3.5um, 2.1x50mm, Waters
Retention time: 10.1 min
Base peak: 334.1042
Precursor m/z: 334.1049
Precursor type: [M+H]+
m/z	relative intensity	assigned
50.0152	189	C4H2+
51.0042	7	CHF2+
51.023	152	C4H3+
52.0308	5	C4H4+
53.0022	6	C3HO+
53.0386	59	C4H5+
55.0179	1	C3H3O+
57.0135	26	C3H2F+
58.0288	45	C2H4NO+
61.0073	8	C5H+
62.0151	21	C5H2+
63.023	78	C5H3+
65.0022	24	C4HO+
65.0386	51	C5H5+
66.01	4	C4H2O+
66.0464	5	C5H6+
67.0543	1	C5H7+
68.9947	27	CF3+
74.0151	121	C6H2+
75.0041	57	C3HF2+
75.0229	151	C6H3+
76.0307	84	C6H4+
77.0386	173	C6H5+
78.0464	54	C6H6+
79.0543	2	C6H7+
81.0135	25	C5H2F+
81.0335	11	C5H5O+
83.0292	26	C5H4F+
86.0151	30	C7H2+
87.023	61	C7H3+
88.0308	9	C7H4+
89.0386	146	C7H5+
90.0465	13	C7H6+
91.0542	16	C7H7+
93.0135	9	C6H2F+
94.0413	4	C6H6O+
95.0492	211	C6H7O+
98.0152	119	C8H2+
99.0042	21	C5HF2+
99.023	83	C8H3+
100.0308	22	C8H4+
101.0198	12	C5H3F2+
101.0387	9	C8H5+
102.0465	174	C8H6+
103.0543	7	C8H7+
104.0496	11	C7H6N+
105.0448	131	C6H5N2+
107.0292	30	C7H4F+
109.045	10	C7H6F+
110.0151	14	C9H2+
111.0229	24	C9H3+
113.0386	43	C9H5+
114.0276	1	C6H4F2+
114.0465	4	C9H6+
115.0543	81	C9H7+
116.0493	1	C8H6N+
119.0104	2	C5H2F3+
119.0292	1	C8H4F+
119.0491	6	C8H7O+
120.037	5	C8H5F+
122.0152	13	C10H2+
123.0042	5	C7HF2+
123.023	17	C10H3+
123.0354	10	C6H4FN2+
125.0198	18	C7H3F2+
125.0387	62	C10H5+
126.0465	286	C10H6+
127.0543	42	C10H7+
128.0621	113	C10H8+
129.0447	19	C8H5N2+
131.0293	17	C9H4F+
133.0449	22	C9H6F+
135.0229	2	C11H3+
137.0386	42	C11H5+
138.0277	6	C8H4F2+
138.0465	21	C11H6+
139.0543	110	C11H7+
143.0101	1	C7H2F3+
143.0492	7	C10H7O+
144.0369	12	C10H5F+
145.026	7	C7H4F3+
145.065	21	C10H9O+
146.0526	6	C10H7F+
149.02	8	C9H3F2+
149.0387	37	C12H5+
150.0465	809	C12H6+
151.0355	23	C9H5F2+
151.0543	179	C12H7+
152.0621	370	C12H8+
155.0291	13	C11H4F+
155.0494	5	C11H7O+
155.0605	44	C10H7N2+
157.0449	23	C11H6F+
161.0386	39	C13H5+
162.0278	4	C10H4F2+
162.0465	25	C13H6+
163.0543	77	C13H7+
164.062	6	C13H8+
165.0701	16	C13H9+
167.0295	1	C9H5F2O+
167.0493	12	C12H7O+
168.0372	18	C12H5F+
168.057	8	C12H8O+
169.0649	561	C12H9O+
170.0527	34	C12H7F+
174.0466	86	C14H6+
175.0354	14	C11H5F2+
175.0543	46	C14H7+
176.0622	999	C14H8+
177.0699	47	C14H9+
178.0779	15	C14H10+
179.0294	22	
179.0605	200	C12H7N2+
180.0371	23	C13H5F+
181.0449	91	C13H6F+
182.0531	2	C13H7F+
183.0608	4	C13H8F+
183.0805	6	C13H11O+
185.0386	22	C15H5+
185.0598	16	C12H9O2+
186.0276	7	C12H4F2+
186.0463	19	C15H6+
187.0545	73	C15H7+
188.0433	4	C12H6F2+
188.0623	4	C15H8+
189.0699	6	C15H9+
190.0415	1	C14H6O+
192.0371	2	C14H5F+
192.057	1	C14H8O+
193.065	72	C14H9O+
194.0528	47	C14H7F+
195.0606	5	C14H8F+
196.0685	5	C14H9F+
197.0201	1	C10H4F3O+
197.0513	7	C12H6FN2+
199.0356	35	C10H6F3O+
200.0432	4	C13H6F2+
201.0506	8	C13H7F2+
203.0604	29	C14H7N2+
204.0372	14	C12H6F2O+
205.0451	205	C15H6F+
206.0528	22	C15H7F+
207.0607	26	C15H8F+
210.0477	8	C14H7FO+
212.027	6	C13H5FO2+
212.0434	1	C14H6F2+
215.0417	1	C12H5F2N2+
219.0416	2	C13H6F3+
223.0357	32	C15H5F2+
224.0433	10	C15H6F2+
225.0512	40	C15H7F2+
227.0669	1	C15H9F2+
228.0387	1	C14H6F2O+
238.0426	1	C15H7FO2+
243.0417	2	C15H6F3+
