Mass spectrum: Deferasirox; LC-ESI-QFT; MS2; CE: 90; R=35000; [M+H]+
Name: Deferasirox
Formula: C21H15N3O4
Exact mass: 373.10626
SMILES: OC(=O)c1ccc(cc1)n2nc(nc2c3ccccc3O)c4ccccc4O
InChI: InChI=1S/C21H15N3O4/c25-17-7-3-1-5-15(17)19-22-20(16-6-2-4-8-18(16)26)24(23-19)14-11-9-13(10-12-14)21(27)28/h1-12,25-26H,(H,27,28)
Instrument: Q Exactive Orbitrap Thermo Scientific
Instrument type: LC-ESI-QFT
Ms type: MS2
Ion mode: POSITIVE
Ionization: ESI
Fragmentation mode: HCD
Collision energy: 90 (nominal)
Resolution: 35000
Column name: XBridge C18 3.5um, 2.1x50mm, Waters
Retention time: 13.1 min
Base peak: 374.1137
Precursor m/z: 374.1135
Precursor type: [M+H]+
m/z	relative intensity	assigned
53.0023	4	C3HO+
53.0387	16	C4H5+
55.018	2	C3H3O+
63.023	69	C5H3+
64.0182	5	C4H2N+
65.0386	999	C5H5+
66.0464	10	C5H6+
68.0131	23	C3H2NO+
75.0229	33	C6H3+
77.0386	21	C6H5+
78.0339	9	C5H4N+
78.0464	171	C6H6+
79.0417	13	C5H5N+
79.0544	3	C6H7+
80.0495	404	C5H6N+
81.0335	304	C5H5O+
89.0386	6	C7H5+
90.0339	187	C6H4N+
91.0417	50	C6H5N+
91.0543	3	C7H7+
92.0495	316	C6H6N+
93.0336	31	C6H5O+
93.0573	23	C6H7N+
94.0287	10	C5H4NO+
94.0414	3	C6H6O+
95.0492	111	C6H7O+
96.0443	14	C5H6NO+
102.0339	14	C7H4N+
103.018	10	C7H3O+
103.0543	11	C8H7+
104.0495	18	C7H6N+
105.0336	36	C7H5O+
105.0447	33	C6H5N2+
106.0415	2	C7H6O+
107.0365	5	C6H5NO+
107.0492	13	C7H7O+
107.0605	4	C6H7N2+
108.0444	836	C6H6NO+
109.0286	4	C6H5O2+
109.0523	4	C6H7NO+
110.06	12	C6H8NO+
111.0441	48	C6H7O2+
115.0542	76	C9H7+
116.0496	4	C8H6N+
117.0573	22	C8H7N+
118.0288	43	C7H4NO+
118.0525	34	C7H6N2+
119.0129	4	C7H3O2+
119.0365	29	C7H5NO+
119.0604	12	C7H7N2+
120.0444	566	C7H6NO+
121.0284	54	C7H5O2+
121.0398	22	C6H5N2O+
124.052	5	C7H8O2+
126.0549	3	C6H8NO2+
127.0542	18	C10H7+
128.0494	13	C9H6N+
128.0621	107	C10H8+
129.0699	104	C10H9+
130.0401	64	C7H4N3+
130.0652	11	C9H8N+
131.0606	10	C8H7N2+
132.0446	4	C8H6NO+
134.0476	12	C7H6N2O+
135.0555	5	C7H7N2O+
136.0394	48	C7H6NO2+
137.0471	16	C7H7NO2+
139.0391	18	C7H7O3+
139.0542	111	C11H7+
140.0494	79	C10H6N+
141.0573	4	C10H7N+
141.0698	27	C11H9+
142.0654	3	C10H8N+
143.0731	11	C10H9N+
145.0394	2	C8H5N2O+
145.0649	56	C10H9O+
146.06	9	C9H8NO+
148.0394	45	C8H6NO2+
149.0346	29	C7H5N2O2+
152.0621	133	C12H8+
153.0572	11	C11H7N+
153.0699	148	C12H9+
154.0651	185	C11H8N+
154.0777	36	C12H10+
155.0491	5	C11H7O+
155.0603	40	C10H7N2+
155.073	49	C11H9N+
155.0856	3	C12H11+
156.0684	19	C10H8N2+
156.0807	72	C11H10N+
163.05	8	C8H7N2O2+
164.0495	23	C12H6N+
164.0619	2	C13H8+
165.0574	15	C12H7N+
165.0699	41	C13H9+
166.0651	214	C12H8N+
167.073	190	C12H9N+
168.0568	11	C12H8O+
168.0682	64	C11H8N2+
168.0805	33	C12H10N+
169.0648	38	C12H9O+
169.076	20	C11H9N2+
170.0601	12	C11H8NO+
177.0571	2	C13H7N+
178.0651	13	C13H8N+
179.0604	16	C12H7N2+
179.0727	17	C13H9N+
180.057	4	C13H8O+
180.0685	22	C12H8N2+
180.0806	30	C13H10N+
181.065	134	C13H9O+
181.0761	223	C12H9N2+
182.0602	64	C12H8NO+
182.0839	286	C12H10N2+
183.068	97	C12H9NO+
183.0917	87	C12H11N2+
184.0636	4	C11H8N2O+
184.0757	74	C12H10NO+
187.0626	2	C11H9NO2+
191.0604	15	C13H7N2+
192.0682	77	C13H8N2+
193.0524	12	C13H7NO+
193.0762	16	C13H9N2+
194.0601	41	C13H8NO+
194.0844	4	C13H10N2+
195.068	4	C13H9NO+
196.0757	146	C13H10NO+
197.0602	4	C13H9O2+
197.0832	3	C13H11NO+
200.0707	11	C12H10NO2+
206.0603	9	C14H8NO+
207.0685	6	C14H9NO+
208.0633	37	C13H8N2O+
208.0758	3	C14H10NO+
209.071	68	C13H9N2O+
210.0554	20	C13H8NO2+
210.0789	38	C13H10N2O+
211.0628	117	C13H9NO2+
211.0859	26	C13H11N2O+
212.0708	18	C13H10NO2+
212.0814	3	C12H10N3O+
221.0715	3	C14H9N2O+
222.0551	16	C14H8NO2+
224.0712	20	C14H10NO2+
225.0557	4	C14H9O3+
225.0661	13	C13H9N2O2+
225.079	5	C14H11NO2+
225.0891	19	C13H11N3O+
226.0739	24	C13H10N2O2+
227.0581	2	C13H9NO3+
227.0816	22	C13H11N2O2+
237.0665	4	C14H9N2O2+
239.0581	16	C14H9NO3+
240.0656	139	C14H10NO3+
253.0855	2	C16H13O3+
254.0963	7	C19H12N+
255.0764	30	C14H11N2O3+
258.1037	3	C17H12N3+
272.1062	3	C19H14NO+
281.0953	3	C19H11N3+
282.1035	4	C21H14O+
298.0973	4	C19H12N3O+
300.1138	13	C19H14N3O+
303.1139	5	C19H15N2O2+
310.0989	5	C20H12N3O+
327.1006	3	C20H13N3O2+
328.109	5	C20H14N3O2+
344.1043	4	C20H14N3O3+
346.1189	4	C20H16N3O3+
374.114	4	C21H16N3O4+
