Mass spectrum: Pioglitazone; LC-ESI-QFT; MS2; CE: 60; R=35000; [M+H]+
Name: Pioglitazone
Name: 5-[[4-[2-(5-ethylpyridin-2-yl)ethoxy]phenyl]methyl]-1,3-thiazolidine-2,4-dione
Formula: C19H20N2O3S
Exact mass: 356.11946
SMILES: CCC1=CN=C(C=C1)CCOC2=CC=C(C=C2)CC3C(=O)NC(=O)S3
InChI: InChI=1S/C19H20N2O3S/c1-2-13-3-6-15(20-12-13)9-10-24-16-7-4-14(5-8-16)11-17-18(22)21-19(23)25-17/h3-8,12,17H,2,9-11H2,1H3,(H,21,22,23)
Instrument: Q Exactive Orbitrap Thermo Scientific
Instrument type: LC-ESI-QFT
Ms type: MS2
Ion mode: POSITIVE
Ionization: ESI
Fragmentation mode: HCD
Collision energy: 60 (nominal)
Resolution: 35000
Column name: XBridge C18 3.5um, 2.1x50mm, Waters
Retention time: 6.0 min
Base peak: 357.1277
Precursor m/z: 357.1267
Precursor type: [M+H]+
m/z	relative intensity	assigned
77.0386	1	C6H5+
79.0544	13	C6H7+
91.0543	2	C7H7+
92.0497	1	C6H6N+
93.0574	3	C6H7N+
95.0493	4	C6H7O+
96.0446	5	C5H6NO+
104.0496	4	C7H6N+
105.0449	1	C6H5N2+
106.0653	28	C7H8N+
107.0731	6	C7H9N+
108.081	1	C7H10N+
110.0602	1	C6H8NO+
118.0653	10	C8H8N+
119.0732	378	C8H9N+
120.0809	37	C8H10N+
121.0888	20	C8H11N+
122.0603	1	C7H8NO+
123.068	1	C7H9NO+
124.076	12	C7H10NO+
132.081	1	C9H10N+
134.0967	999	C9H12N+
135.1043	115	C9H13N+
139.0629	2	C7H9NO2+
240.1387	2	C16H18NO+
