Mass spectrum: Atenolol acid; LC-ESI-ITFT; MS2; CE: 75%; R=7500; [M+H]+
Name: Atenolol acid
Name: Metoprolol acid
Name: 4-(2-Hydroxy-3-((1-methylethyl)amino)propoxy)benzeneacetic acid
Formula: C14H21NO4
Exact mass: 267.1471
SMILES: CC(C)NCC(O)COc1ccc(cc1)CC(=O)O
InChI: InChI=1S/C14H21NO4/c1-10(2)15-8-12(16)9-19-13-5-3-11(4-6-13)7-14(17)18/h3-6,10,12,15-16H,7-9H2,1-2H3,(H,17,18)
Instrument: LTQ Orbitrap XL Thermo Scientific
Instrument type: LC-ESI-ITFT
Ms type: MS2
Ion mode: POSITIVE
Ionization: ESI
Fragmentation mode: HCD
Collision energy: 75 % (nominal)
Resolution: 7500
Column name: XBridge C18 3.5um, 2.1x50mm, Waters
Retention time: 3.8 min
Base peak: 268.1553
Precursor m/z: 268.1543
Precursor type: [M+H]+
m/z	relative intensity	assigned
56.0495	215	C3H6N+
58.065	28	C3H8N+
72.0808	118	C4H10N+
74.0601	179	C3H8NO+
77.0386	18	C6H5+
79.0543	220	C6H7+
81.0699	32	C6H9+
89.0385	66	C7H5+
91.0542	226	C7H7+
93.0701	13	C7H9+
95.0493	80	C6H7O+
98.0964	73	C6H12N+
100.1122	14	C6H14N+
105.0698	17	C8H9+
107.0492	108	C7H7O+
109.0648	92	C7H9O+
115.0542	39	C9H7+
116.1071	50	C6H14NO+
117.0699	115	C9H9+
119.0491	116	C8H7O+
123.0441	46	C7H7O2+
133.0653	19	C9H9O+
135.044	43	C8H7O2+
137.0596	65	C8H9O2+
145.0648	999	C10H9O+
163.0502	283	C8H7N2O2+
165.0546	89	C9H9O3+
