Mass spectrum: Nitrofen; LC-ESI-QFT; MS2; CE: 60; R=35000; [M+H]+
Name: Nitrofen
Name: 2,4-bis(chloranyl)-1-(4-nitrophenoxy)benzene
Formula: C12H7Cl2NO3
Exact mass: 282.98030
SMILES: c1(Oc2ccc([N+](=O)[O-])cc2)c(cc(Cl)cc1)Cl
InChI: InChI=1S/C12H7Cl2NO3/c13-8-1-6-12(11(14)7-8)18-10-4-2-9(3-5-10)15(16)17/h1-7H
Instrument: Q Exactive Orbitrap Thermo Scientific
Instrument type: LC-ESI-QFT
Ms type: MS2
Ion mode: POSITIVE
Ionization: ESI
Fragmentation mode: HCD
Collision energy: 60 (nominal)
Resolution: 35000
Column name: XBridge C18 3.5um, 2.1x50mm, Waters
Retention time: 14.8 min
Base peak: 149.0234
Precursor m/z: 283.9876
Precursor type: [M+H]+
m/z	relative intensity	assigned
55.0542	3	C4H7+
59.0492	7	C3H7O+
65.0387	3	C5H5+
67.0543	5	C5H7+
71.0493	3	C4H7O+
73.0284	31	C3H5O2+
91.0543	4	C7H7+
95.049	18	C6H7O+
98.9841	20	CH4ClO3+
139.054	28	C11H7+
149.0153	42	C9H6Cl+
168.057	48	C12H8O+
173.0152	88	C11H6Cl+
174.023	55	C11H7Cl+
175.031	4	C11H8Cl+
182.9764	72	C9H5Cl2+
184.0519	21	C12H8O2+
202.0179	999	C12H7ClO+
203.0259	31	C12H8ClO+
208.9919	906	C11H7Cl2+
236.9862	7	C12H7Cl2O+
237.9947	4	C12H8Cl2O+
264.993	344	C12H7Cl2N2O+
266.9848	632	C12H7Cl2NO2+
