Mass spectrum: Isoprocarb; LC-ESI-QFT; MS2; CE: 150%; R=17500; [M+H]+
Name: Isoprocarb
Name: (2-propan-2-ylphenyl) N-methylcarbamate
Formula: C11H15NO2
Exact mass: 193.1103
SMILES: CC(C)C1=CC=CC=C1OC(=O)NC
InChI: InChI=1S/C11H15NO2/c1-8(2)9-6-4-5-7-10(9)14-11(13)12-3/h4-8H,1-3H3,(H,12,13)
Instrument: Exploris 240 Orbitrap Thermo Scientific
Instrument type: LC-ESI-QFT
Ms type: MS2
Ion mode: POSITIVE
Ionization: ESI
Fragmentation mode: HCD
Collision energy: 150 % (nominal)
Resolution: 17500
Column name: XBridge C18 3.5um, 2.1x50mm, Waters
Retention time: 6.960 min
Base peak: 194.1175
Precursor m/z: 194.1176
Precursor type: [M+H]+
m/z	relative intensity	assigned
51.0229	558	C4H3+
53.0386	193	C4H5+
55.0179	48	C3H3O+
58.0289	101	C2H4NO+
65.0386	220	C5H5+
67.0541	59	C5H7+
77.0386	999	C6H5+
91.0543	98	C7H7+
94.0414	35	C6H6O+
95.0492	440	C6H7O+
