Mass spectrum: Warfarin; LC-ESI-QFT; MS2; CE: 90; R=35000; [M+H]+
Name: Warfarin
Name: 2-hydroxy-3-(3-oxo-1-phenylbutyl)chromen-4-one
Name: Coumafen
Formula: C19H16O4
Exact mass: 308.10486
SMILES: O=C\1c3c(OC(/O)=C/1C(c2ccccc2)CC(=O)C)cccc3
InChI: InChI=1S/C19H16O4/c1-12(20)11-15(13-7-3-2-4-8-13)17-18(21)14-9-5-6-10-16(14)23-19(17)22/h2-10,15,22H,11H2,1H3
Instrument: Q Exactive Orbitrap Thermo Scientific
Instrument type: LC-ESI-QFT
Ms type: MS2
Ion mode: POSITIVE
Ionization: ESI
Fragmentation mode: HCD
Collision energy: 90 (nominal)
Resolution: 35000
Column name: XBridge C18 3.5um, 2.1x50mm, Waters
Retention time: 10.6 min
Base peak: 309.112
Precursor m/z: 309.1121
Precursor type: [M+H]+
m/z	relative intensity	assigned
51.0229	2	C4H3+
53.0022	2	C3HO+
53.0387	6	C4H5+
55.0178	1	C3H3O+
65.0385	169	C5H5+
68.997	58	C3HO2+
77.0385	31	C6H5+
79.0542	14	C6H7+
89.0384	22	C7H5+
91.0541	122	C7H7+
93.0334	89	C6H5O+
95.049	465	C6H7O+
102.0462	10	C8H6+
103.0541	174	C8H7+
105.0334	12	C7H5O+
105.0447	54	C6H5N2+
105.0697	6	C8H9+
107.049	6	C7H7O+
111.0439	88	C6H7O2+
115.0541	14	C9H7+
119.049	27	C8H7O+
121.0283	999	C7H5O2+
128.0619	46	C10H8+
129.0334	32	C9H5O+
129.0446	10	
129.0697	63	C10H9+
130.0413	12	C9H6O+
131.049	70	C9H7O+
139.0388	32	C7H7O3+
141.0697	6	C11H9+
145.0283	19	C9H5O2+
145.065	9	C10H9O+
147.0802	13	C10H11O+
152.0619	58	C12H8+
153.0697	62	C12H9+
154.0776	23	C12H10+
155.0853	311	C12H11+
157.0283	19	C10H5O2+
163.0388	317	C9H7O3+
165.0697	88	C13H9+
166.0776	14	C13H10+
167.0854	100	C13H11+
173.0229	5	C10H5O3+
175.0388	18	C10H7O3+
176.0619	16	C14H8+
177.0698	25	C14H9+
178.0775	113	C14H10+
179.0855	7	C14H11+
181.0649	9	C13H9O+
183.0803	51	C13H11O+
189.0546	5	C11H9O3+
191.0337	235	C10H7O4+
193.0756	1	C13H9N2+
194.0725	1	C14H10O+
195.0801	15	C14H11O+
205.0647	62	C15H9O+
207.0805	1	C15H11O+
223.0751	69	C15H11O2+
233.0595	25	C16H9O2+
234.0671	2	C16H10O2+
249.0543	10	C16H9O3+
251.0699	18	C16H11O3+
