Mass spectrum: Phenylbutazone; LC-ESI-QFT; MS2; CE: 15; R=35000; [M+H]+
Name: Phenylbutazone
Name: 4-butyl-1,2-diphenylpyrazolidine-3,5-dione
Formula: C19H20N2O2
Exact mass: 308.15248
SMILES: CCCCC1C(=O)N(N(C1=O)C2=CC=CC=C2)C3=CC=CC=C3
InChI: InChI=1S/C19H20N2O2/c1-2-3-14-17-18(22)20(15-10-6-4-7-11-15)21(19(17)23)16-12-8-5-9-13-16/h4-13,17H,2-3,14H2,1H3
Instrument: Q Exactive Plus Orbitrap Thermo Scientific
Instrument type: LC-ESI-QFT
Ms type: MS2
Ion mode: POSITIVE
Ionization: ESI
Fragmentation mode: HCD
Collision energy: 15 (nominal)
Resolution: 35000
Column name: XBridge C18 3.5um, 2.1x50mm, Waters
Retention time: 11.3 min
Base peak: 309.1591
Precursor m/z: 309.1598
Precursor type: [M+H]+
m/z	relative intensity	assigned
69.0697	1	C5H9+
71.0855	8	C5H11+
77.0386	1	C6H5+
92.049	1	C6H6N+
93.0332	1	C6H5O+
93.0573	2	C6H7N+
94.065	8	C6H8N+
97.0648	2	C6H9O+
99.0804	1	C6H11O+
120.0444	44	C7H6NO+
132.0444	3	C8H6NO+
146.0601	2	C9H8NO+
148.1121	1	C10H14N+
160.1121	6	C11H14N+
162.1278	8	C11H16N+
172.1123	2	C12H14N+
188.107	59	C12H14NO+
190.1227	65	C12H16NO+
200.1074	1	C13H14NO+
211.0867	55	C13H11N2O+
216.1021	20	C13H14NO2+
253.0968	3	C15H13N2O2+
263.1546	3	C18H19N2+
265.1698	2	C18H21N2+
281.1652	4	C18H21N2O+
291.149	4	C19H19N2O+
309.1597	999	C19H21N2O2+
