Mass spectrum: Clenbuterol; LC-ESI-QFT; MS2; CE: 150; R=35000; [M+H]+
Name: Clenbuterol
Name: 1-(4-amino-3,5-dichlorophenyl)-2-(tert-butylamino)ethanol
Formula: C12H18Cl2N2O
Exact mass: 276.07962
SMILES: CC(C)(C)NCC(C1=CC(=C(C(=C1)Cl)N)Cl)O
InChI: InChI=1S/C12H18Cl2N2O/c1-12(2,3)16-6-10(17)7-4-8(13)11(15)9(14)5-7/h4-5,10,16-17H,6,15H2,1-3H3
Instrument: Q Exactive Plus Orbitrap Thermo Scientific
Instrument type: LC-ESI-QFT
Ms type: MS2
Ion mode: POSITIVE
Ionization: ESI
Fragmentation mode: HCD
Collision energy: 150 (nominal)
Resolution: 35000
Column name: XBridge C18 3.5um, 2.1x50mm, Waters
Retention time: 4.6 min
Base peak: 277.0862
Precursor m/z: 277.0869
Precursor type: [M+H]+
m/z	relative intensity	assigned
50.0151	35	C4H2+
51.0229	49	C4H3+
52.0181	4	C3H2N+
52.0307	2	C4H4+
53.0022	17	C3HO+
53.0386	80	C4H5+
53.9975	5	C2NO+
54.0338	2	C3H4N+
55.0178	7	C3H3O+
55.0542	1	C4H7+
57.0699	30	C4H9+
61.0072	1	C5H+
61.9792	10	CHClN+
62.0151	19	C5H2+
63.0229	80	C5H3+
64.0181	4	C4H2N+
64.0308	4	C5H4+
65.026	1	C4H3N+
65.0385	28	C5H5+
66.0338	1	C4H4N+
66.0463	10	C5H6+
67.0416	22	C4H5N+
67.9892	4	C3O2+
72.9839	21	C3H2Cl+
74.015	7	C6H2+
75.0228	56	C6H3+
76.0181	10	C5H2N+
76.0307	4	C6H4+
77.0385	164	C6H5+
78.0338	33	C5H4N+
78.0464	122	C6H6+
79.0416	49	C5H5N+
79.0542	72	C6H7+
80.0494	103	C5H6N+
81.0334	12	C5H5O+
81.0573	6	C5H7N+
86.9996	2	C4H4Cl+
87.0229	1	C7H3+
88.0307	22	C7H4+
89.0385	224	C7H5+
90.0338	79	C6H4N+
90.0464	21	C7H6+
91.0416	30	C6H5N+
92.0494	29	C6H6N+
93.0573	20	C6H7N+
94.0411	3	C6H6O+
95.0491	211	C6H7O+
96.0443	72	C5H6NO+
96.9839	2	C5H2Cl+
98.9996	23	C5H4Cl+
100.0073	4	C5H5Cl+
101.0027	2	C4H4ClN+
102.0338	17	C7H4N+
103.0417	7	C7H5N+
104.0494	999	C7H6N+
105.0447	159	C6H5N2+
105.0573	227	C7H7N+
106.0651	250	C7H8N+
108.0444	12	C6H6NO+
108.984	2	C6H2Cl+
109.0521	1	C6H7NO+
110.9996	7	C6H4Cl+
111.0315	7	C2H8ClN2O+
112.0073	7	C6H5Cl+
113.0152	60	C6H6Cl+
114.0105	13	C5H5ClN+
114.0337	20	C8H4N+
115.0416	32	C8H5N+
116.0494	72	C8H6N+
117.0572	124	C8H7N+
118.0524	21	C7H6N2+
120.0443	4	C7H6NO+
122.06	1	C7H8NO+
122.9995	30	C7H4Cl+
124.0074	14	C7H5Cl+
125.0027	14	C6H4ClN+
125.0154	1	C7H6Cl+
126.0105	16	C6H5ClN+
127.0182	38	C6H6ClN+
129.01	4	C6H6ClO+
129.0443	1	C8H5N2+
130.0398	18	C7H4N3+
131.0604	383	C8H7N2+
132.0682	349	C8H8N2+
133.076	15	C8H9N2+
134.0599	34	C8H8NO+
137.0476	1	C4H10ClN2O+
138.0105	20	C7H5ClN+
139.006	15	C6H4ClN2+
139.0183	5	C7H6ClN+
140.0261	580	C7H7ClN+
141.0338	1	C7H8ClN+
144.0556	14	C8H6N3+
145.9678	1	C6H4Cl2+
150.0102	2	C11H2O+
151.0183	56	C8H6ClN+
152.0133	1	C7H5ClN2+
152.0266	1	C8H7ClN+
153.0213	21	C7H6ClN2+
160.9793	13	C9H2ClO+
166.0291	1	C8H7ClN2+
167.0371	13	C8H8ClN2+
168.0447	1	C11H6NO+
172.9665	2	C9ClNO+
173.9873	8	C10H3ClO+
