Mass spectrum: Fenobucarb; LC-ESI-QFT; MS2; CE: 120%; R=17500; [M+H]+
Name: Fenobucarb
Name: (2-butan-2-ylphenyl) N-methylcarbamate
Formula: C12H17NO2
Exact mass: 207.1259
SMILES: CCC(C)C1=CC=CC=C1OC(=O)NC
InChI: InChI=1S/C12H17NO2/c1-4-9(2)10-7-5-6-8-11(10)15-12(14)13-3/h5-9H,4H2,1-3H3,(H,13,14)
Instrument: Exploris 240 Orbitrap Thermo Scientific
Instrument type: LC-ESI-QFT
Ms type: MS2
Ion mode: POSITIVE
Ionization: ESI
Fragmentation mode: HCD
Collision energy: 120 % (nominal)
Resolution: 17500
Column name: XBridge C18 3.5um, 2.1x50mm, Waters
Retention time: 8.220 min
Base peak: 208.1331
Precursor m/z: 208.1332
Precursor type: [M+H]+
m/z	relative intensity	assigned
51.0228	102	C4H3+
53.0386	183	C4H5+
55.0179	25	C3H3O+
57.0699	83	C4H9+
58.0289	91	C2H4NO+
65.0386	74	C5H5+
67.0542	77	C5H7+
77.0386	869	C6H5+
91.0541	69	C7H7+
94.0417	27	C6H6O+
95.0491	999	C6H7O+
