Mass spectrum: 4-Aminoantipyrine; LC-ESI-ITFT; MS2; CE: 35%; R=7500; [M+H]+
Name: 4-Aminoantipyrine
Name: 4-amino-1,5-dimethyl-2-phenyl-3-pyrazolin-3-one
Formula: C11H13N3O
Exact mass: 203.1059
SMILES: c(ccc1N(N(C=2C)C)C(=O)C2N)cc1
InChI: InChI=1S/C11H13N3O/c1-8-10(12)11(15)14(13(8)2)9-6-4-3-5-7-9/h3-7H,12H2,1-2H3
Instrument: LTQ Orbitrap XL Thermo Scientific
Instrument type: LC-ESI-ITFT
Ms type: MS2
Ion mode: POSITIVE
Ionization: ESI
Fragmentation mode: CID
Collision energy: 35 % (nominal)
Resolution: 7500
Column name: XBridge C18 3.5um, 2.1x50mm, Waters
Retention time: 2.6 min
Base peak: 204.1138
Precursor m/z: 204.1131
Precursor type: [M+H]+
m/z	relative intensity	assigned
56.0495	70	C3H6N+
83.0605	44	C4H7N2+
85.0762	41	C4H9N2+
94.0653	68	C6H8N+
111.0554	79	C5H7N2O+
118.0653	8	C8H8N+
121.0766	3	C7H9N2+
131.0598	5	C8H7N2+
145.0762	43	C9H9N2+
146.0602	45	C9H8NO+
158.0604	23	C10H8NO+
159.0919	724	C10H11N2+
169.0757	4	C11H9N2+
173.0712	320	C10H9N2O+
176.1183	32	C10H14N3+
186.1032	4	C11H12N3+
187.087	999	C11H11N2O+
189.0898	95	C10H11N3O+
