Mass spectrum: Cetirizine N-Oxide; LC-ESI-QFT; MS2; CE: 120; R=35000; [M+H]+
Name: Cetirizine N-Oxide
Name: (R)-Cetirizine N-Oxide
Name: 2-[2-[4-[(4-chlorophenyl)-phenylmethyl]-1-oxidopiperazin-1-ium-1-yl]ethoxy]acetic acid
Formula: C21H25ClN2O4
Exact mass: 404.15028
SMILES: C1C[N+](CCN1C(C2=CC=CC=C2)C3=CC=C(C=C3)Cl)(CCOCC(=O)O)[O-]
InChI: InChI=1S/C21H25ClN2O4/c22-19-8-6-18(7-9-19)21(17-4-2-1-3-5-17)23-10-12-24(27,13-11-23)14-15-28-16-20(25)26/h1-9,21H,10-16H2,(H,25,26)
Instrument: Q Exactive Plus Orbitrap Thermo Scientific
Instrument type: LC-ESI-QFT
Ms type: MS2
Ion mode: POSITIVE
Ionization: ESI
Fragmentation mode: HCD
Collision energy: 120 (nominal)
Resolution: 35000
Column name: XBridge C18 3.5um, 2.1x50mm, Waters
Retention time: 9.4 min
Base peak: 405.1573
Precursor m/z: 405.1576
Precursor type: [M+H]+
m/z	relative intensity	assigned
53.0386	2	C4H5+
56.0495	24	C3H6N+
58.0651	8	C3H8N+
63.0227	2	C5H3+
65.0386	4	C5H5+
68.0494	2	C4H6N+
70.0287	2	C3H4NO+
70.0651	11	C4H8N+
72.0807	1	C4H10N+
72.9839	1	C3H2Cl+
75.0229	2	C6H3+
77.0385	2	C6H5+
78.0464	5	C6H6+
79.0542	1	C6H7+
82.065	1	C5H8N+
83.0603	6	C4H7N2+
84.0444	1	C4H6NO+
84.0682	2	C4H8N2+
86.06	2	C4H8NO+
89.0386	7	C7H5+
90.0464	3	C7H6+
91.0543	5	C7H7+
95.0492	6	C6H7O+
97.0759	1	C5H9N2+
98.0838	1	C5H10N2+
98.9996	6	C5H4Cl+
99.0917	2	C5H11N2+
102.0464	2	C8H6+
103.0542	12	C8H7+
104.0494	3	C7H6N+
105.0447	3	C6H5N2+
105.0699	1	C8H9+
115.0542	19	C9H7+
116.0495	15	C8H6N+
117.0573	1	C8H7N+
125.0154	3	C7H6Cl+
128.0495	5	C9H6N+
129.0445	2	C8H5N2+
137.0151	1	C8H6Cl+
138.0106	3	C7H5ClN+
139.0056	1	C6H4ClN2+
139.0542	17	C11H7+
140.062	1	C11H8+
146.0599	1	C9H8NO+
149.0154	4	C9H6Cl+
150.0108	1	C8H5ClN+
152.0619	4	C12H8+
163.0542	13	C13H7+
164.0621	35	C13H8+
165.0699	999	C13H9+
166.0777	94	C13H10+
168.0569	12	C12H8O+
169.0641	1	C12H9O+
178.0777	9	C14H10+
192.0807	5	C14H10N+
193.0887	13	C14H11N+
196.0518	5	C13H8O2+
199.0309	13	C13H8Cl+
204.0808	1	C15H10N+
227.0501	1	C14H10ClN+
228.0573	1	C14H11ClN+
