Mass spectrum: Myclobutanil; LC-ESI-ITFT; MS2; CE: 30%; R=7500; [M+H]+
Name: Myclobutanil
Name: MYC
Name: 2-(4-chlorophenyl)-2-(1,2,4-triazol-1-ylmethyl)hexanenitrile
Formula: C15H17ClN4
Exact mass: 288.1142
SMILES: Clc1ccc(cc1)C(C#N)(CCCC)Cn2ncnc2
InChI: InChI=1S/C15H17ClN4/c1-2-3-8-15(9-17,10-20-12-18-11-19-20)13-4-6-14(16)7-5-13/h4-7,11-12H,2-3,8,10H2,1H3
Instrument: LTQ Orbitrap XL Thermo Scientific
Instrument type: LC-ESI-ITFT
Ms type: MS2
Ion mode: POSITIVE
Ionization: ESI
Fragmentation mode: HCD
Collision energy: 30 % (nominal)
Resolution: 7500
Column name: XBridge C18 3.5um, 2.1x50mm, Waters
Retention time: 11.2 min
Base peak: 289.1218
Precursor m/z: 289.1215
Precursor type: [M+H]+
m/z	relative intensity	assigned
70.0401	833	C2H4N3+
82.065	1	C5H8N+
83.0479	1	C3H5N3+
108.0808	1	C7H10N+
125.0153	142	C7H6Cl+
151.031	36	C9H8Cl+
163.0309	1	C10H8Cl+
164.0265	11	C9H7ClN+
165.0347	3	C9H8ClN+
166.0422	7	C9H9ClN+
168.0936	1	C13H12+
178.0419	10	C10H9ClN+
185.1199	1	C13H15N+
193.0782	32	C12H14Cl+
194.0477	3	C9H9ClN3+
203.0624	17	C13H12Cl+
220.089	111	C13H15ClN+
289.1218	999	C15H18ClN4+
