Mass spectrum: Imatinib; LC-ESI-QFT; MS2; CE: 150; R=35000; [M+H]+
Name: Imatinib
Name: 4-[(4-methylpiperazin-1-yl)methyl]-N-[4-methyl-3-[(4-pyridin-3-ylpyrimidin-2-yl)amino]phenyl]benzamide
Formula: C29H31N7O
Exact mass: 493.25901
SMILES: CC1=C(C=C(C=C1)NC(=O)C2=CC=C(C=C2)CN3CCN(CC3)C)NC4=NC=CC(=N4)C5=CN=CC=C5
InChI: InChI=1S/C29H31N7O/c1-21-5-10-25(18-27(21)34-29-31-13-11-26(33-29)24-4-3-12-30-19-24)32-28(37)23-8-6-22(7-9-23)20-36-16-14-35(2)15-17-36/h3-13,18-19H,14-17,20H2,1-2H3,(H,32,37)(H,31,33,34)
Instrument: Q Exactive Plus Orbitrap Thermo Scientific
Instrument type: LC-ESI-QFT
Ms type: MS2
Ion mode: POSITIVE
Ionization: ESI
Fragmentation mode: HCD
Collision energy: 150 (nominal)
Resolution: 35000
Column name: XBridge C18 3.5um, 2.1x50mm, Waters
Retention time: 5.8 min
Base peak: 247.6364
Precursor m/z: 494.2663
Precursor type: [M+H]+
m/z	relative intensity	assigned
50.0151	91	C4H2+
51.0229	87	C4H3+
52.0182	40	C3H2N+
52.0308	3	C4H4+
53.0022	10	C3HO+
53.0386	77	C4H5+
54.0339	12	C3H4N+
54.0464	2	C4H6+
55.0178	2	C3H3O+
55.0416	6	C3H5N+
56.0495	86	C3H6N+
57.0573	3	C3H7N+
58.0651	304	C3H8N+
61.0073	8	C5H+
62.0151	30	C5H2+
63.0229	177	C5H3+
64.0181	6	C4H2N+
64.0307	54	C5H4+
65.0386	232	C5H5+
66.0464	41	C5H6+
67.0417	9	C4H5N+
67.0543	2	C5H7+
68.0495	22	C4H6N+
69.0447	11	C3H5N2+
70.0651	73	C4H8N+
72.0807	3	C4H10N+
74.0151	15	C6H2+
75.0229	64	C6H3+
76.0181	32	C5H2N+
76.0307	19	C6H4+
77.0385	103	C6H5+
78.0338	137	C5H4N+
78.0463	28	C6H6+
79.0416	38	C5H5N+
79.0541	7	C6H7+
80.0494	35	C5H6N+
81.0335	15	C5H5O+
81.0447	9	C4H5N2+
82.0525	1	C4H6N2+
82.0652	7	C5H8N+
83.0603	72	C4H7N2+
84.0682	11	C4H8N2+
86.0148	1	C7H2+
87.023	3	C7H3+
88.018	1	C6H2N+
88.0307	7	C7H4+
89.0386	999	C7H5+
90.0339	17	C6H4N+
90.0464	231	C7H6+
91.0417	10	C6H5N+
91.0542	173	C7H7+
92.0495	11	C6H6N+
93.0573	3	C6H7N+
94.0413	8	C6H6O+
94.0652	6	C6H8N+
95.0491	210	C6H7O+
96.0443	133	C5H6NO+
97.0761	13	C5H9N2+
98.0152	1	C8H2+
98.0839	4	C5H10N2+
99.0229	4	C8H3+
100.018	3	C7H2N+
100.0306	2	C8H4+
101.0386	3	C8H5+
102.0338	34	C7H4N+
102.0464	66	C8H6+
103.0291	12	C6H3N2+
103.0416	27	C7H5N+
103.0542	37	C8H7+
104.0494	138	C7H6N+
105.0335	9	C7H5O+
105.0447	162	C6H5N2+
106.0652	3	C7H8N+
110.06	2	C6H8NO+
111.0313	13	C5H5NO2+
113.0385	23	C9H5+
114.0338	20	C8H4N+
114.0463	6	C9H6+
115.0542	183	C9H7+
116.0494	31	C8H6N+
116.062	2	C9H8+
117.0446	10	C7H5N2+
117.0572	44	C8H7N+
118.0524	9	C7H6N2+
118.0652	3	C8H8N+
119.0492	6	C8H7O+
119.0604	9	C7H7N2+
120.0444	18	C7H6NO+
121.0396	10	C6H5N2O+
122.0362	13	C7H6O2+
124.0307	3	C10H4+
125.0385	18	C10H5+
126.0464	66	C10H6+
127.0416	10	C9H5N+
127.0542	33	C10H7+
128.0494	36	C9H6N+
128.062	57	C10H8+
129.0447	83	C8H5N2+
129.0573	28	C9H7N+
130.04	33	C7H4N3+
130.0524	3	C8H6N2+
130.0651	21	C9H8N+
131.0604	82	C8H7N2+
132.0445	2	C8H6NO+
132.0566	1	C9H8O+
132.0681	1	C8H8N2+
134.06	7	C8H8NO+
135.0553	1	C7H7N2O+
137.0387	9	C11H5+
138.0339	8	C10H4N+
138.0465	6	C11H6+
139.0542	137	C11H7+
140.0494	117	C10H6N+
140.0617	18	C11H8+
141.0572	6	C10H7N+
141.0698	28	C11H9+
142.0526	14	C9H6N2+
142.0651	14	C10H8N+
143.049	9	C10H7O+
143.0605	7	C9H7N2+
144.0559	2	C8H6N3+
144.0805	2	C10H10N+
145.0649	20	C10H9O+
146.0601	10	C9H8NO+
147.0553	9	C8H7N2O+
149.0386	19	C12H5+
150.0464	190	C12H6+
151.0415	19	C11H5N+
151.0542	53	C12H7+
152.0496	20	C11H6N+
152.062	409	C12H8+
153.0447	10	C10H5N2+
153.0572	57	C11H7N+
153.0698	30	C12H9+
154.0402	2	C9H4N3+
154.0651	20	C11H8N+
155.049	7	C11H7O+
155.0603	50	C10H7N2+
156.0556	38	C9H6N3+
157.0523	2	C10H7NO+
159.0559	2	C9H7N2O+
161.0393	2	C13H5+
161.0471	19	C9H7NO2+
162.0465	2	C13H6+
163.0542	150	C13H7+
164.0495	99	C12H6N+
164.0619	69	C13H8+
165.0575	15	C12H7N+
165.0699	283	C13H9+
166.0651	98	C12H8N+
167.0491	7	C12H7O+
167.0729	115	C12H9N+
168.0569	62	C12H8O+
168.0809	14	C12H10N+
169.0647	287	C12H9O+
170.06	40	C11H8NO+
170.0713	3	C10H8N3+
171.0558	1	C10H7N2O+
171.0664	2	C9H7N4+
174.0465	18	C14H6+
175.0417	28	C13H5N+
175.054	11	C14H7+
176.062	136	C14H8+
177.0573	288	C13H7N+
178.0651	165	C13H8N+
178.0771	43	C14H10+
179.0603	148	C12H7N2+
179.0723	40	C13H9N+
180.0559	14	C11H6N3+
180.0683	2	C12H8N2+
180.0807	34	C13H10N+
181.0762	3	C12H9N2+
181.0885	3	C13H11N+
182.0597	1	C12H8NO+
183.0679	3	C12H9NO+
183.0803	1	C13H11O+
185.0472	9	C11H7NO2+
185.0597	8	C12H9O2+
187.0419	1	C14H5N+
188.0495	78	C14H6N+
189.0447	10	C13H5N2+
189.0572	22	C14H7N+
189.0697	3	C15H9+
190.0651	279	C14H8N+
191.0602	34	C13H7N2+
191.0729	145	C14H9N+
192.0681	50	C13H8N2+
192.0806	76	C14H10N+
193.0524	19	C13H7NO+
193.065	18	C14H9O+
193.0759	28	C13H9N2+
193.0884	24	C14H11N+
194.0601	70	C13H8NO+
194.084	8	C13H10N2+
194.0965	8	C14H12N+
195.0555	15	C12H7N2O+
195.0675	3	C13H9NO+
196.0518	23	C13H8O2+
196.0757	6	C13H10NO+
199.0418	2	C15H5N+
200.0495	1	C15H6N+
201.0572	50	C15H7N+
202.0525	25	C14H6N2+
202.0647	16	C15H8N+
203.0603	94	C14H7N2+
203.0728	25	C15H9N+
204.0557	70	C13H6N3+
204.0681	27	C14H8N2+
204.0808	8	C15H10N+
205.076	48	C14H9N2+
206.0601	8	C14H8NO+
206.0713	20	C13H8N3+
207.0673	12	C14H9NO+
207.0909	1	C14H11N2+
208.0633	2	C13H8N2O+
208.0754	3	C14H10NO+
208.0861	1	C13H10N3+
209.071	2	C13H9N2O+
209.1073	2	C14H13N2+
213.0446	8	C15H5N2+
214.0534	2	C15H6N2+
214.0647	4	C16H8N+
215.0602	29	C15H7N2+
216.0683	82	C15H8N2+
217.064	8	C14H7N3+
217.0762	64	C15H9N2+
218.06	11	C15H8NO+
218.0713	10	C14H8N3+
218.0836	23	C15H10N2+
219.0676	7	C15H9NO+
219.0791	2	C14H9N3+
219.0916	6	C15H11N2+
220.0757	20	C15H10NO+
220.0862	3	C14H10N3+
221.0472	7	C14H7NO2+
221.0709	23	C14H9N2O+
221.0822	8	C13H9N4+
225.0562	2	C17H7N+
226.0528	3	C16H6N2+
226.0644	1	C17H8N+
227.0607	3	C16H7N2+
228.0555	8	C15H6N3+
228.068	8	C16H8N2+
229.076	12	C16H9N2+
230.0716	25	C15H8N3+
231.0552	3	C15H7N2O+
231.0662	7	C14H7N4+
231.0784	7	C15H9N3+
232.0633	3	C15H8N2O+
232.0743	8	C14H8N4+
232.0865	2	C15H10N3+
233.0711	2	C15H9N2O+
233.0823	10	C14H9N4+
236.0576	2	C12H6N5O+
238.0651	3	C18H8N+
239.0606	2	C17H7N2+
240.0549	1	C16H6N3+
241.0635	3	C16H7N3+
242.0714	2	C16H8N3+
242.0838	2	C17H10N2+
243.0675	2	C17H9NO+
243.0795	9	C16H9N3+
244.0744	12	C15H8N4+
244.087	8	C16H10N3+
245.0706	6	C16H9N2O+
245.0818	3	C15H9N4+
246.0664	2	C15H8N3O+
253.0762	6	C18H9N2+
254.0709	8	C17H8N3+
255.0671	2	C16H7N4+
255.0911	2	C18H11N2+
256.0746	2	C16H8N4+
256.087	2	C17H10N3+
257.0827	18	C16H9N4+
265.0773	2	C19H9N2+
266.0837	6	C19H10N2+
267.0787	1	C18H9N3+
267.0917	3	C19H11N2+
268.0873	2	C18H10N3+
277.0765	6	C20H9N2+
279.0914	3	C20H11N2+
280.0869	10	C19H10N3+
281.0949	2	C19H11N3+
291.0791	3	C20H9N3+
292.0871	2	C20H10N3+
293.0942	7	C20H11N3+
294.1019	2	C20H12N3+
304.0866	10	C21H10N3+
306.104	3	C21H12N3+
307.0984	3	C20H11N4+
308.1059	1	C20H12N4+
317.095	1	C22H11N3+
319.0977	2	C21H11N4+
320.1048	2	C21H12N4+
321.1142	1	C21H13N4+
331.0984	3	C22H11N4+
346.1085	3	C22H12N5+
