Mass spectrum: Fenpropimorph; LC-ESI-ITFT; MS2; CE: 90%; R=30000; [M+H]+
Name: Fenpropimorph
Name: (2S,6R)-4-[3-(4-tert-butylphenyl)-2-methyl-propyl]-2,6-dimethyl-morpholine
Formula: C20H33NO
Exact mass: 303.2557
SMILES: CC1CN(CC(O1)C)CC(C)CC2=CC=C(C=C2)C(C)(C)C
InChI: InChI=1S/C20H33NO/c1-15(12-21-13-16(2)22-17(3)14-21)11-18-7-9-19(10-8-18)20(4,5)6/h7-10,15-17H,11-14H2,1-6H3/t15?,16-,17+
Instrument: LTQ Orbitrap XL Thermo Scientific
Instrument type: LC-ESI-ITFT
Ms type: MS2
Ion mode: POSITIVE
Ionization: ESI
Fragmentation mode: HCD
Collision energy: 90 % (nominal)
Resolution: 30000
Column name: XBridge C18 3.5um, 2.1x50mm, Waters
Retention time: 9.4 min
Base peak: 304.2639
Precursor m/z: 304.2635
Precursor type: [M+H]+
m/z	relative intensity	assigned
55.0541	7	C4H7+
56.0494	19	C3H6N+
57.0698	84	C4H9+
58.0651	8	C3H8N+
59.0491	12	C3H7O+
70.0651	29	C4H8N+
72.0807	6	C4H10N+
79.0542	24	C6H7+
81.0698	14	C6H9+
88.0756	4	C4H10NO+
91.0542	134	C7H7+
93.0697	10	C7H9+
98.0964	198	C6H12N+
102.0914	8	C5H12NO+
104.062	33	C8H8+
105.0699	434	C8H9+
107.0854	76	C8H11+
115.0541	9	C9H7+
116.1069	19	C6H14NO+
117.0698	620	C9H9+
119.0855	553	C9H11+
130.1226	23	C7H16NO+
131.0855	44	C10H11+
132.0933	999	C10H12+
145.1011	23	C11H13+
146.1089	16	C11H14+
147.1168	606	C11H15+
159.1168	15	C12H15+
161.1325	13	C12H17+
