Mass spectrum: Nitenpyram; LC-ESI-QFT; MS2; CE: 15%; R=17500; [M-H]-
Name: Nitenpyram
Name: N-((6-chloropyridin-3-yl)methyl)-N-ethyl-N`-methyl-2-nitroethene-1,1-diamine
Name: 1-N`-[(6-chloropyridin-3-yl)methyl]-1-N`-ethyl-1-N-methyl-2-nitroethene-1,1-diamine
Formula: C11H15ClN4O2
Exact mass: 270.0884
SMILES: CCN(CC1=CN=C(C=C1)Cl)C(=C[N+](=O)[O-])NC
InChI: InChI=1S/C11H15ClN4O2/c1-3-15(11(13-2)8-16(17)18)7-9-4-5-10(12)14-6-9/h4-6,8,13H,3,7H2,1-2H3
Instrument: Exploris 240 Orbitrap Thermo Scientific
Instrument type: LC-ESI-QFT
Ms type: MS2
Ion mode: NEGATIVE
Ionization: ESI
Fragmentation mode: HCD
Collision energy: 15 % (nominal)
Resolution: 17500
Column name: XBridge C18 3.5um, 2.1x50mm, Waters
Retention time: 2.550 min
Base peak: 269.0812
Precursor m/z: 269.0811
Precursor type: [M-H]-
m/z	relative intensity	assigned
101.0357	63	C3H5N2O2-
192.0334	3	C9H7ClN3-
206.0488	35	C10H9ClN3-
207.0205	4	C9H6ClN3O-
220.0649	5	C11H11ClN3-
222.0802	75	C11H13ClN3-
251.0704	33	C11H12ClN4O-
269.0812	999	C11H14ClN4O2-
