Mass spectrum: 2-(3-Hydroxycyclohexyl)-5-(2-methyl-2-octanyl)phenol; LC-ESI-QFT; MS2; CE: 60; R=35000; [M+H]+
Name: 2-(3-Hydroxycyclohexyl)-5-(2-methyl-2-octanyl)phenol
Name: CP47.497
Name: 2-(3-hydroxycyclohexyl)-5-(2-methyloctan-2-yl)phenol
Formula: C21H34O2
Exact mass: 318.25588
SMILES: CCCCCCC(C)(C)C1=CC(=C(C=C1)C2CCCC(C2)O)O
InChI: InChI=1S/C21H34O2/c1-4-5-6-7-13-21(2,3)17-11-12-19(20(23)15-17)16-9-8-10-18(22)14-16/h11-12,15-16,18,22-23H,4-10,13-14H2,1-3H3
Instrument: Q Exactive Plus Orbitrap Thermo Scientific
Instrument type: LC-ESI-QFT
Ms type: MS2
Ion mode: POSITIVE
Ionization: ESI
Fragmentation mode: HCD
Collision energy: 60 (nominal)
Resolution: 35000
Column name: XBridge C18 3.5um, 2.1x50mm, Waters
Retention time: 17.2 min
Base peak: 391.2833
Precursor m/z: 319.2632
Precursor type: [M+H]+
m/z	relative intensity	assigned
51.0228	2	C4H3+
53.0022	17	C3HO+
53.0386	6	C4H5+
53.9975	4	C2NO+
55.0178	1	C3H3O+
55.0542	17	C4H7+
57.0699	466	C4H9+
65.0385	1	C5H5+
67.0542	7	C5H7+
67.9892	4	C3O2+
69.0334	2	C4H5O+
69.0698	37	C5H9+
71.0855	417	C5H11+
79.0542	50	C6H7+
81.0698	87	C6H9+
83.0854	10	C6H11+
85.1011	131	C6H13+
91.0542	30	C7H7+
93.0699	38	C7H9+
95.0491	14	C6H7O+
95.0855	7	C7H11+
97.1012	1	C7H13+
105.0446	8	C6H5N2+
105.0699	21	C8H9+
107.0491	999	C7H7O+
109.0648	19	C7H9O+
109.1012	2	C8H13+
117.0697	4	C9H9+
119.0493	11	C8H7O+
119.0856	7	C9H11+
120.057	19	C8H8O+
120.0933	4	C9H12+
121.0648	979	C8H9O+
121.1012	71	C9H13+
123.0804	8	C8H11O+
131.0856	13	C10H11+
133.0647	130	C9H9O+
134.0725	18	C9H10O+
135.0804	54	C9H11O+
135.1167	2	C10H15+
145.1011	9	C11H13+
147.0804	38	C10H11O+
148.0882	418	C10H12O+
149.0961	194	C10H13O+
159.1169	7	C12H15+
161.0961	5	C11H13O+
163.1117	7	C11H15O+
173.1326	2	C13H17+
175.1115	6	C12H15O+
177.1272	1	C12H17O+
191.1429	12	C13H19O+
218.1666	6	C15H22O+
233.19	167	C16H25O+
