Mass spectrum: Acamprosate; LC-ESI-ITFT; MS2; CE: 75%; R=7500; [M-H]-
Name: Acamprosate
Name: 3-acetamido-1-propanesulfonic acid
Formula: C5H11NO4S
Exact mass: 181.0409
SMILES: O=S(=O)(O)CCCNC(=O)C
InChI: InChI=1S/C5H11NO4S/c1-5(7)6-3-2-4-11(8,9)10/h2-4H2,1H3,(H,6,7)(H,8,9,10)
Instrument: LTQ Orbitrap XL Thermo Scientific
Instrument type: LC-ESI-ITFT
Ms type: MS2
Ion mode: NEGATIVE
Ionization: ESI
Fragmentation mode: HCD
Collision energy: 75 % (nominal)
Resolution: 7500
Column name: XBridge C18 3.5um, 2.1x50mm, Waters
Retention time: 1.0 min
Base peak: 180.0341
Precursor m/z: 180.0336
Precursor type: [M-H]-
m/z	relative intensity	assigned
58.0299	11	C2H4NO-
79.9574	999	O3S-
80.9652	98	HO3S-
138.0231	23	C3H8NO3S-
180.034	91	C5H10NO4S-
