Mass spectrum: Xipamide; LC-ESI-QFT; MS2; CE: 120%; R=15000; [M+H]+
Name: Xipamide
Name: 4-chloro-N-(2,6-dimethylphenyl)-2-hydroxy-5-sulfamoylbenzamide
Formula: C15H15ClN2O4S
Exact mass: 354.0441
SMILES: CC1=C(C(=CC=C1)C)NC(=O)C2=CC(=C(C=C2O)Cl)S(=O)(=O)N
InChI: InChI=1S/C15H15ClN2O4S/c1-8-4-3-5-9(2)14(8)18-15(20)10-6-13(23(17,21)22)11(16)7-12(10)19/h3-7,19H,1-2H3,(H,18,20)(H2,17,21,22)
Instrument: Orbitrap Exploris 240 Thermo Scientific
Instrument type: LC-ESI-QFT
Ms type: MS2
Ion mode: POSITIVE
Ionization: ESI
Fragmentation mode: HCD
Collision energy: 120 % (nominal)
Resolution: 15000
Column name: Atlantis C18 3um, 3.0x150mm, Waters
Retention time: 17.870 min
Base peak: 355.0511
Precursor m/z: 355.0514
Precursor type: [M+H]+
Precursor intensity: 107967024
m/z	relative intensity	assigned
50.0151	7	C4H2+
51.0229	39	C4H3+
52.0307	7	C4H4+
53.0022	62	C3HO+
53.0385	12	C4H5+
62.0148	13	C5H2+
62.9632	11	CClO+
63.0229	85	C5H3+
72.984	20	C3H2Cl+
77.0386	68	C6H5+
78.0338	17	C5H4N+
79.0179	18	C5H3O+
79.0419	6	C5H5N+
79.0542	110	C6H7+
80.0493	7	C5H6N+
84.9839	12	C4H2Cl+
86.9995	26	C4H4Cl+
89.0258	22	C6H3N+
90.0102	28	C6H2O+
90.0465	13	C7H6+
91.054	8	C7H7+
94.0287	20	C5H4NO+
95.0491	23	C6H7O+
96.9839	97	C5H2Cl+
98.9996	11	C5H4Cl+
103.0543	43	C8H7+
105.0449	20	C6H5N2+
105.0699	58	C8H9+
106.0651	931	C7H8N+
107.0127	46	
107.0368	39	
107.0729	999	C7H9N+
112.9789	26	C5H2ClO+
114.011	13	C5H5ClN+
114.9949	12	C5H4ClO+
119.0126	8	C7H3O2+
120.0807	46	C8H10N+
121.0886	18	C8H11N+
122.0963	24	C8H12N+
124.979	85	C6H2ClO+
125.9868	196	C6H3ClO+
135.0315	10	C7H5NO2+
140.9741	12	C6H2ClO2+
153.9816	57	C7H3ClO2+
