Mass spectrum: Haloxyfop; LC-ESI-QFT; MS2; CE: 120; R=35000; [M+H]+
Name: Haloxyfop
Name: 2-[4-[3-chloro-5-(trifluoromethyl)pyridin-2-yl]oxyphenoxy]propanoic acid
Formula: C15H11ClF3NO4
Exact mass: 361.03287
SMILES: CC(C(=O)O)OC1=CC=C(C=C1)OC2=C(C=C(C=N2)C(F)(F)F)Cl
InChI: InChI=1S/C15H11ClF3NO4/c1-8(14(21)22)23-10-2-4-11(5-3-10)24-13-12(16)6-9(7-20-13)15(17,18)19/h2-8H,1H3,(H,21,22)
Instrument: Q Exactive Plus Orbitrap Thermo Scientific
Instrument type: LC-ESI-QFT
Ms type: MS2
Ion mode: POSITIVE
Ionization: ESI
Fragmentation mode: HCD
Collision energy: 120 (nominal)
Resolution: 35000
Column name: XBridge C18 3.5um, 2.1x50mm, Waters
Retention time: 13.6 min
Base peak: 391.2839
Precursor m/z: 362.0401
Precursor type: [M+H]+
m/z	relative intensity	assigned
50.0152	25	C4H2+
51.023	32	C4H3+
52.0308	3	C4H4+
53.0023	35	C3HO+
53.0386	56	C4H5+
53.9975	3	C2NO+
54.0465	23	C4H6+
55.0179	39	C3H3O+
55.0543	11	C4H7+
57.0136	22	C3H2F+
61.0073	9	C5H+
62.0152	39	C5H2+
63.023	500	C5H3+
64.0183	14	C4H2N+
64.0308	103	C5H4+
65.0387	999	C5H5+
66.0464	37	C5H6+
66.9746	15	CHClF+
67.0543	8	C5H7+
68.9947	36	CF3+
68.997	5	C3HO2+
72.984	51	C3H2Cl+
74.0152	137	C6H2+
75.0041	42	C3HF2+
75.023	245	C6H3+
76.0182	10	C5H2N+
76.0308	9	C6H4+
77.0022	1	C5HO+
77.0386	27	C6H5+
78.0339	1	C5H4N+
78.0465	3	C6H6+
79.0179	21	C5H3O+
79.0542	17	C6H7+
81.0336	184	C5H5O+
83.0292	3	C5H4F+
84.9652	46	CClF2+
84.9839	6	C4H2Cl+
87.023	3	C7H3+
88.0183	2	C6H2N+
89.0387	12	C7H5+
90.034	9	C6H4N+
90.0465	2	C7H6+
90.9747	25	C3HClF+
91.0543	292	C7H7+
92.0258	60	C6H4O+
92.0369	7	C5H4N2+
93.0338	2	C6H5O+
93.07	1	C7H9+
94.0415	43	C6H6O+
95.0492	56	C6H7O+
96.0247	1	C5H3FN+
96.0445	2	C5H6NO+
98.9843	8	CH4ClO3+
99.0041	14	C5HF2+
99.9995	18	C4F2N+
101.0197	2	C5H3F2+
101.0386	1	C8H5+
102.0465	59	C8H6+
103.0416	1	C7H5N+
103.0543	3	C8H7+
104.0133	10	C6H2NO+
105.0336	9	C7H5O+
105.0448	43	C6H5N2+
107.0103	9	C4H2F3+
107.0293	7	C7H4F+
108.0371	6	C7H5F+
108.0444	2	C6H6NO+
108.9653	66	C3ClF2+
109.0286	32	C6H5O2+
109.9793	45	C5HClN+
110.0364	3	C6H6O2+
111.023	17	C9H3+
111.0442	21	C6H7O2+
111.9949	6	C5H3ClN+
112.0186	2	C8H2N+
112.031	2	C9H4+
113.0387	53	C9H5+
113.9913	2	C5F2O+
114.0153	1	C5H2F2N+
114.0341	13	C8H4N+
115.0543	2	C9H7+
116.0498	2	C8H6N+
119.0105	25	C5H2F3+
119.0368	6	C7H5NO+
119.049	2	C8H7O+
120.0374	2	C8H5F+
120.0446	16	C7H6NO+
121.0285	8	C7H5O2+
121.0397	17	C6H5N2O+
122.9995	1	C7H4Cl+
125.007	2	C6HF2N+
125.0197	3	C7H3F2+
126.0152	19	C6H2F2N+
127.0418	2	C9H5N+
127.9899	8	C5H3ClNO+
128.0496	49	C9H6N+
129.0447	16	C8H5N2+
129.0575	17	C9H7N+
129.9854	7	C5H2ClFN+
130.0402	11	C7H4N3+
131.0293	30	C9H4F+
131.0493	9	C9H7O+
132.0182	7	C6H3F3+
132.0257	21	C5H4F2NO+
132.037	3	C9H5F+
132.9651	8	C5ClF2+
133.045	12	C9H6F+
134.04	2	C8H5FN+
135.0043	1	C8HF2+
135.0313	1	C7H5NO2+
137.0199	1	C8H3F2+
137.9745	16	C6HClNO+
138.0274	3	C8H4F2+
138.0341	11	C10H4N+
139.042	22	C10H5N+
139.0542	6	C11H7+
140.0496	115	C10H6N+
140.9714	1	C4HClF3+
141.0134	9	C10H2F+
141.0573	13	C10H7N+
142.01	14	C6H2F2NO+
143.0293	3	C10H4F+
144.0255	3	C6H4F2NO+
144.0446	13	C9H6NO+
145.0134	7	C6H2F3N+
145.0261	7	C7H4F3+
146.0215	18	C2H9ClNO4+
146.0604	5	C9H8NO+
147.0104	1	C11HN+
147.9959	7	C5H4ClFNO+
148.0184	25	C11H2N+
148.0558	7	C9H7FN+
149.0198	3	C9H3F2+
149.9916	10	C5H3ClF2N+
150.0349	2	C8H5FNO+
151.0356	169	C9H5F2+
152.0306	7	C8H4F2N+
152.9715	14	C5HClF3+
154.065	8	C11H8N+
156.0183	13	C4H9ClO4+
156.0446	49	C10H6NO+
157.0458	3	C8H7F2O+
157.0523	33	C10H7NO+
157.9804	32	C6H2ClFNO+
158.0403	94	C10H5FN+
158.0599	8	C10H8NO+
159.0481	39	C10H6FN+
159.9762	48	C6HClF2N+
161.0197	9	C10H3F2+
162.0161	7	C6H3F3NO+
162.0278	37	C10H4F2+
162.0345	3	C9H5FNO+
163.0236	11	C6H4F3NO+
164.0258	1	C12H4O+
164.0318	18	C6H5F3NO+
164.0428	2	C10H6F2+
164.0493	1	C12H6N+
165.0101	9	C9H6ClO+
166.0651	7	C12H8N+
167.0059	3	C9H5ClF+
167.0368	2	C11H5NO+
168.0251	13	C11H3FN+
168.0446	38	C11H6NO+
169.0261	4	C9H4F3+
169.0322	18	C11H4FN+
170.0404	6	C11H5FN+
171.0415	8	C9H6F3+
174.0107	6	C10H5ClN+
176.0309	26	C10H4F2N+
176.0506	6	C10H7FNO+
177.0387	21	C10H5F2N+
177.9865	10	C6H3ClF2NO+
178.0466	22	C10H6F2N+
179.9824	40	C6H2ClF3N+
180.038	2	C10H6F2O+
182.0339	33	C10H5F3+
182.0412	4	C9H6F2NO+
183.0292	9	C5H10ClNO4+
184.0397	18	C11H6NO2+
184.056	2	C12H7FN+
186.0354	17	C11H5FNO+
187.0227	8	C11H3F2N+
187.0429	6	C11H6FNO+
188.0311	23	C8H5F3NO+
188.0508	6	C11H7FNO+
189.0387	48	C11H5F2N+
190.0465	64	C11H6F2N+
191.0414	7	C10H5F2N2+
196.0369	7	C6H11ClNO4+
197.0442	9	C10H6F3N+
197.9931	68	C6H4ClF3NO+
198.0528	11	C10H7F3N+
199.0368	21	C7H9ClF3N+
204.0454	1	C11H7FNO2+
206.0417	25	C11H6F2NO+
207.0292	11	C7H10ClNO4+
208.0371	50	C7H11ClNO4+
209.045	32	C7H12ClNO4+
214.0466	2	C13H6F2N+
218.0412	13	C12H6F2NO+
219.0062	1	C9H5ClF3N+
224.0071	8	C11H5ClF2N+
225.04	1	C11H6F3NO+
234.0361	3	C12H6F2NO2+
236.0316	2	C12H5F3NO+
237.0399	1	C12H6F3NO+
243.0062	2	C11H5ClF3N+
253.0347	6	C12H6F3NO2+
269.993	21	C12H4ClF3NO+
272.0086	2	C15H3F3O2+
288.0036	26	C12H6ClF3NO2+
