Mass spectrum: Boscalid; LC-ESI-ITFT; MS2; CE: 45%; R=15000; [M+H]+
Name: Boscalid
Name: 2-chloranyl-N-[2-(4-chlorophenyl)phenyl]pyridine-3-carboxamide
Formula: C18H12Cl2N2O
Exact mass: 342.0327
SMILES: c1ccc(c(c1)c2ccc(cc2)Cl)NC(=O)c3cccnc3Cl
InChI: InChI=1S/C18H12Cl2N2O/c19-13-9-7-12(8-10-13)14-4-1-2-6-16(14)22-18(23)15-5-3-11-21-17(15)20/h1-11H,(H,22,23)
Instrument: LTQ Orbitrap XL Thermo Scientific
Instrument type: LC-ESI-ITFT
Ms type: MS2
Ion mode: POSITIVE
Ionization: ESI
Fragmentation mode: HCD
Collision energy: 45 % (nominal)
Resolution: 15000
Column name: XBridge C18 3.5um, 2.1x50mm, Waters
Retention time: 10.5 min
Base peak: 343.0412
Precursor m/z: 343.0399
Precursor type: [M+H]+
m/z	relative intensity	assigned
78.0339	10	C5H4N+
94.0289	2	C5H4NO+
96.0444	8	C5H6NO+
111.995	11	C5H3ClN+
112.0394	1	C2H9ClN2O+
114.0106	32	C5H5ClN+
139.9899	198	C6H3ClNO+
243.0918	3	C17H11N2+
244.0998	1	C17H12N2+
253.0764	2	C18H9N2+
254.0839	4	C18H10N2+
264.0578	2	C17H11ClN+
271.0868	208	C18H11N2O+
272.0946	201	C18H12N2O+
279.0684	2	C17H12ClN2+
289.0528	46	C18H10ClN2+
305.0476	2	C18H10ClN2O+
306.0543	1	C18H11ClN2O+
307.0631	999	C18H12ClN2O+
328.0164	1	C17H10Cl2N2O+
343.0399	25	C18H13Cl2N2O+
