Mass spectrum: Sarafloxacin; LC-ESI-QFT; MS2; CE: 90; R=35000; [M+H]+
Name: Sarafloxacin
Name: 6-fluoro-1-(4-fluorophenyl)-4-oxo-7-piperazin-1-ylquinoline-3-carboxylic acid
Formula: C20H17F2N3O3
Exact mass: 385.12380
SMILES: C1CN(CCN1)C2=C(C=C3C(=C2)N(C=C(C3=O)C(=O)O)C4=CC=C(C=C4)F)F
InChI: InChI=1S/C20H17F2N3O3/c21-12-1-3-13(4-2-12)25-11-15(20(27)28)19(26)14-9-16(22)18(10-17(14)25)24-7-5-23-6-8-24/h1-4,9-11,23H,5-8H2,(H,27,28)
Instrument: Q Exactive Plus Orbitrap Thermo Scientific
Instrument type: LC-ESI-QFT
Ms type: MS2
Ion mode: POSITIVE
Ionization: ESI
Fragmentation mode: HCD
Collision energy: 90 (nominal)
Resolution: 35000
Column name: XBridge C18 3.5um, 2.1x50mm, Waters
Retention time: 4.7 min
Base peak: 386.1304
Precursor m/z: 386.1311
Precursor type: [M+H]+
m/z	relative intensity	assigned
50.0151	3	C4H2+
51.0229	8	C4H3+
53.0022	14	C3HO+
53.0386	10	C4H5+
54.0339	2	C3H4N+
56.0495	142	C3H6N+
57.0573	5	C3H7N+
58.0652	31	C3H8N+
59.0291	2	C3H4F+
63.0228	21	C5H3+
65.0386	8	C5H5+
68.0131	3	C3H2NO+
68.0495	55	C4H6N+
69.0447	4	C3H5N2+
70.0651	63	C4H8N+
71.0291	4	C4H4F+
71.0603	2	C3H7N2+
74.0151	4	C6H2+
75.0229	47	C6H3+
77.0384	22	
80.0494	4	C5H6N+
81.0135	2	C5H2F+
81.0448	3	C4H5N2+
83.0291	94	C5H4F+
83.0603	15	C4H7N2+
84.0369	9	C5H5F+
87.023	8	C7H3+
89.0386	225	C7H5+
90.0338	10	C6H4N+
90.0464	9	C7H6+
91.0543	30	C7H7+
92.0495	4	C6H6N+
94.0651	13	C6H8N+
95.029	19	CH3F2N3+
95.0492	28	C6H7O+
96.0369	20	C6H5F+
96.0444	9	C5H6NO+
97.0447	9	C6H6F+
98.0402	4	C5H5FN+
101.0385	24	C8H5+
102.0338	2	C7H4N+
102.0464	18	C8H6+
103.0542	91	C8H7+
104.0494	40	C7H6N+
105.0448	36	C6H5N2+
107.0292	257	C7H4F+
108.0244	11	C6H3FN+
108.037	81	C7H5F+
109.0448	251	C7H6F+
110.0401	59	C6H5FN+
112.0319	3	C6H5FO+
113.0396	24	C6H6FO+
114.0339	16	C8H4N+
115.0417	9	C8H5N+
115.0542	64	C9H7+
116.0495	131	C8H6N+
117.0449	3	C7H5N2+
117.0573	52	C8H7N+
118.0287	3	C7H4NO+
118.0652	11	C8H8N+
119.0493	27	C8H7O+
120.037	31	C8H5F+
120.0444	8	C7H6NO+
121.0324	8	C7H4FN+
121.0448	103	C8H6F+
122.0401	155	C7H5FN+
123.0241	46	C7H4FO+
123.0353	87	C6H4FN2+
123.0479	22	C7H6FN+
123.0605	4	C8H8F+
124.0557	20	C7H7FN+
126.0342	5	C9H4N+
127.0417	4	C9H5N+
127.0545	3	C10H7+
128.0495	375	C9H6N+
129.0447	152	C8H5N2+
129.0573	38	C9H7N+
130.0652	107	C9H8N+
131.0604	45	C8H7N2+
131.0734	2	C9H9N+
132.0243	12	C8H3FN+
132.0444	11	C8H6NO+
133.0323	15	C8H4FN+
133.0448	78	C9H6F+
134.0401	352	C8H5FN+
134.06	76	C8H8NO+
135.0478	187	C8H6FN+
136.0191	4	C7H3FNO+
136.0557	77	C8H7FN+
137.051	10	C7H6FN2+
137.0634	2	C8H8FN+
138.0349	12	C7H5FNO+
140.0268	3	C7H5FO2+
140.0496	28	C10H6N+
141.0446	11	C9H5N2+
141.0574	18	C10H7N+
142.0527	13	C9H6N2+
142.0652	29	C10H8N+
143.0605	44	C9H7N2+
143.0731	24	C10H9N+
144.0445	10	C9H6NO+
144.0556	42	C8H6N3+
144.0685	3	C9H8N2+
144.0808	14	C10H10N+
145.0761	8	C9H9N2+
146.0401	111	C9H5FN+
146.06	22	C9H8NO+
147.0242	37	C9H4FO+
147.0353	12	C8H4FN2+
147.0479	36	C9H6FN+
148.0557	600	C9H7FN+
149.0398	5	C4H5F2N3O+
149.0511	36	C8H6FN2+
149.0635	23	C9H8FN+
150.0349	16	C8H5FNO+
150.0588	8	C8H7FN2+
150.0713	12	C9H9FN+
151.0429	14	C8H6FNO+
151.0542	2	C12H7+
151.0667	2	C8H8FN2+
152.0506	110	C8H7FNO+
153.0448	15	C10H5N2+
154.0398	10	C9H4N3+
154.0526	11	C10H6N2+
154.0654	5	C11H8N+
155.0604	237	C10H7N2+
156.0446	25	C10H6NO+
156.0556	4	C9H6N3+
156.0682	73	C10H8N2+
157.0451	9	C11H6F+
157.0761	11	C10H9N2+
158.0401	106	C10H5FN+
159.0353	5	C9H4FN2+
159.0481	8	C10H6FN+
159.0551	9	C9H7N2O+
160.0432	36	C9H5FN2+
160.0556	10	C10H7FN+
161.0512	52	C9H6FN2+
161.0636	10	C10H8FN+
162.0351	33	C9H5FNO+
162.0463	23	C8H5FN3+
162.0716	24	C10H9FN+
163.0428	11	C9H6FNO+
163.0541	20	
163.0669	5	C9H8FN2+
164.0506	63	C9H7FNO+
165.0221	3	C8H4FNO2+
165.0447	10	C11H5N2+
165.0701	2	C5H9F2N3O+
166.0527	10	C11H6N2+
166.0658	3	C9H9FNO+
167.0606	7	C11H7N2+
168.056	15	C10H6N3+
168.0683	8	C11H8N2+
169.0648	4	C12H9O+
169.0761	38	C11H9N2+
170.0527	15	C12H7F+
170.0711	4	C10H8N3+
170.0837	8	C11H10N2+
171.0548	7	C10H7N2O+
171.0917	84	C11H11N2+
172.0556	9	C11H7FN+
173.0511	201	C10H6FN2+
174.0589	379	C10H7FN2+
175.0356	3	C11H5F2+
175.0667	61	C10H8FN2+
176.0437	4	C11H6F2+
176.0507	29	C10H7FNO+
176.0621	10	C14H8+
176.0746	13	C10H9FN2+
177.0459	10	C9H6FN2O+
177.0582	8	C13H7N+
177.0699	14	C14H9+
178.0538	3	C9H7FN2O+
178.0656	8	C13H8N+
179.0378	4	C9H6FNO2+
179.0609	13	C9H8FN2O+
180.0455	102	C9H7FNO2+
181.0447	50	C13H6F+
181.076	10	C12H9N2+
182.0399	13	C12H5FN+
182.0526	30	C13H7F+
182.0713	3	C11H8N3+
182.0838	3	C12H10N2+
183.0606	205	C13H8F+
184.0557	61	C12H7FN+
184.0633	23	C11H8N2O+
185.0511	24	C11H6FN2+
185.0638	20	C12H8FN+
185.0712	3	C11H9N2O+
186.0485	15	C12H7FO+
186.0589	76	C11H7FN2+
186.0716	13	C12H9FN+
187.0555	12	C12H8FO+
187.0667	17	C11H8FN2+
188.0429	16	C12H6F2+
188.05	20	C11H7FNO+
188.0745	16	C11H9FN2+
189.0457	17	C10H6FN2O+
189.0575	11	C14H7N+
189.0823	65	C11H10FN2+
190.0651	81	C14H8N+
191.0616	5	C10H8FN2O+
191.0727	13	C14H9N+
192.0452	8	C10H7FNO2+
194.0403	2	C13H5FN+
194.0526	4	C14H7F+
194.0608	17	C10H9FNO2+
195.0484	25	C13H6FN+
196.0559	66	C13H7FN+
196.0685	22	C14H9F+
197.0511	21	C12H6FN2+
197.0635	29	C13H8FN+
197.0761	5	C14H10F+
198.0718	43	C10H10F2NO+
199.0354	12	C13H5F2+
200.0433	52	C13H6F2+
201.0511	402	C13H7F2+
202.0461	56	C12H6F2N+
202.054	5	C11H7FN2O+
202.0658	12	C15H8N+
203.0537	39	C12H7F2N+
203.0616	127	C11H8FN2O+
203.0728	9	C15H9N+
204.0381	29	C12H6F2O+
204.0551	8	C13H6N3+
204.0622	9	C12H8F2N+
204.081	23	C15H10N+
206.0401	10	C14H5FN+
207.0486	19	C14H6FN+
207.0604	22	
208.0558	390	C14H7FN+
209.0636	568	C14H8FN+
210.0714	102	C14H9FN+
211.0669	16	C13H8FN2+
211.0793	45	C14H10FN+
212.0514	18	C13H7FNO+
213.0386	3	C13H5F2N+
214.0461	34	C13H6F2N+
214.0586	12	C14H8F2+
214.0662	12	C13H9FNO+
215.0534	50	C13H7F2N+
216.0617	100	C13H8F2N+
217.0774	8	C12H10FN2O+
218.0608	4	C12H9FNO2+
219.048	12	C15H6FN+
219.0572	4	C11H8FN2O2+
220.0559	26	C15H7FN+
221.051	14	C11H7F2N2O+
221.0635	42	C15H8FN+
221.0725	3	C11H10FN2O2+
222.0593	18	C11H8F2N2O+
222.0714	237	C15H9FN+
223.0668	143	C14H8FN2+
223.0791	38	C15H10FN+
224.0514	15	C11H8F2NO2+
224.0746	33	C14H9FN2+
224.0871	58	C15H11FN+
225.0496	3	C7H7N5O4+
225.0588	13	C11H9F2NO2+
225.0823	15	C14H10FN2+
226.0463	215	C14H6F2N+
226.0663	23	C14H9FNO+
226.09	26	C14H11FN2+
227.0542	999	C14H7F2N+
228.062	433	C14H8F2N+
229.0574	94	C13H7F2N2+
229.0699	425	C14H9F2N+
230.0413	8	C13H6F2NO+
230.0659	26	C13H8F2N2+
231.0472	3	C16H6FN+
231.0728	11	C13H9F2N2+
231.0917	9	C16H11N2+
232.033	9	C13H6F2O2+
232.056	21	C16H7FN+
233.0523	3	C12H7F2N2O+
233.0636	16	C16H8FN+
234.059	48	C15H7FN2+
234.0715	45	C16H9FN+
235.0668	124	C15H8FN2+
235.0792	35	C16H10FN+
236.0519	25	C12H8F2NO2+
236.0624	13	C19H8+
236.0746	111	C15H9FN2+
236.0868	15	C16H11FN+
237.0591	45	
237.0822	137	C15H10FN2+
238.0473	23	C15H6F2N+
238.0665	103	C15H9FNO+
239.054	104	C15H7F2N+
239.074	8	C15H10FNO+
240.062	253	C15H8F2N+
241.057	51	C14H7F2N2+
241.0699	45	C15H9F2N+
242.065	45	C14H8F2N2+
242.0777	121	C15H10F2N+
243.0491	8	C14H7F2NO+
243.0719	36	C14H9F2N2+
244.0583	21	
244.0806	262	C14H10F2N2+
245.0647	90	C14H9F2NO+
246.0598	3	C13H8F2N2O+
246.0725	8	C14H10F2NO+
246.096	3	C14H12F2N2+
247.0665	38	C16H8FN2+
248.0747	47	C16H9FN2+
248.0866	4	C17H11FN+
249.0698	19	C20H9+
249.0822	169	C16H10FN2+
250.0662	19	C16H9FNO+
250.09	136	C16H11FN2+
251.0617	21	C12H9F2N2O2+
251.074	15	C16H10FNO+
251.0857	17	C20H11+
251.0982	21	C16H12FN2+
252.0617	15	C16H8F2N+
252.0823	16	C16H11FNO+
253.0567	36	C15H7F2N2+
253.0698	40	C16H9F2N+
254.0652	141	C15H8F2N2+
254.0776	20	C16H10F2N+
255.0493	117	C15H7F2NO+
255.0729	959	C15H9F2N2+
256.0569	626	C15H8F2NO+
257.0646	81	C15H9F2NO+
257.0865	19	C12H13F2NO3+
258.0598	5	C17H7FN2+
258.0727	29	C15H10F2NO+
259.0445	16	C14H7F2NO2+
259.0667	9	C17H8FN2+
259.0868	3	C17H11N2O+
260.0745	60	C17H9FN2+
261.0694	6	C16H8FN3+
261.0822	53	C17H10FN2+
262.0777	78	C16H9FN3+
262.0899	11	C17H11FN2+
263.0619	13	C16H8FN2O+
263.0854	128	C16H10FN3+
263.0983	30	C17H12FN2+
264.0935	43	C16H11FN3+
264.1062	5	C17H13FN2+
265.0562	4	C16H7F2N2+
265.0774	32	C16H10FN2O+
265.1008	12	C16H12FN3+
266.0649	8	C16H8F2N2+
267.0727	67	C16H9F2N2+
268.0567	18	C16H8F2NO+
268.0805	48	C16H10F2N2+
269.0649	25	C16H9F2NO+
269.0885	154	C16H11F2N2+
270.0596	31	C15H8F2N2O+
270.0726	105	C16H10F2NO+
270.0956	83	C16H12F2N2+
271.044	11	C15H7F2NO2+
271.0675	99	C15H9F2N2O+
271.0807	56	C16H11F2NO+
272.0756	4	C15H10F2N2O+
272.0884	9	C16H12F2NO+
273.0833	43	C15H11F2N2O+
274.0778	18	C17H9FN3+
274.0904	3	C18H11FN2+
275.0858	16	C17H10FN3+
276.0694	10	C17H9FN2O+
276.0932	57	C17H11FN3+
277.0772	26	C14H11F2N2O2+
277.1007	14	C17H12FN3+
278.0851	13	C17H11FN2O+
278.1099	3	C17H13FN3+
279.0734	13	C17H9F2N2+
279.0929	50	C17H12FN2O+
280.0793	6	C14H12F2NO3+
281.0517	4	C16H7F2N2O+
281.0888	43	C17H11F2N2+
282.0367	3	C16H6F2NO2+
282.059	11	C19H7FN2+
282.0725	16	C17H10F2NO+
283.0676	96	C16H9F2N2O+
284.0755	9	C16H10F2N2O+
285.0835	86	C16H11F2N2O+
287.0386	20	C15H7F2NO3+
289.0547	46	C15H9F2NO3+
290.0724	14	C17H9FN3O+
290.1084	18	C18H13FN3+
291.0934	10	C18H12FN2O+
291.1167	9	C18H14FN3+
292.0881	50	C14H12F2N3O2+
295.0679	2	C17H9F2N2O+
297.0833	71	C17H11F2N2O+
299.0993	26	C20H12FN2+
304.0888	8	C18H11FN3O+
305.0738	3	C15H11F2N2O3+
306.1042	4	C18H13FN3O+
311.0627	25	C20H8FN2O+
318.0673	4	C18H9FN3O2+
318.1035	4	C19H13FN3O+
320.0829	4	C18H11FN3O2+
325.0792	3	C18H11F2N2O2+
329.0727	14	C20H10FN2O2+
338.0933	4	C18H13FN3O3+
