Mass spectrum: 2-Mercaptobenzothiazole; LC-ESI-QFT; MS2; CE: 120; R=35000; [M+H]+
Name: 2-Mercaptobenzothiazole
Name: 1,3-Benzothiazole-2(3H)-thione
Name: 3H-1,3-benzothiazole-2-thione
Formula: C7H5NS2
Exact mass: 166.98634
SMILES: S=C2Sc1ccccc1N2
InChI: InChI=1S/C7H5NS2/c9-7-8-5-3-1-2-4-6(5)10-7/h1-4H,(H,8,9)
Instrument: Q Exactive Plus Orbitrap Thermo Scientific
Instrument type: LC-ESI-QFT
Ms type: MS2
Ion mode: POSITIVE
Ionization: ESI
Fragmentation mode: HCD
Collision energy: 120 (nominal)
Resolution: 35000
Column name: XBridge C18 3.5um, 2.1x50mm, Waters
Retention time: 6.7 min
Base peak: 167.9936
Precursor m/z: 167.9936
Precursor type: [M+H]+
m/z	relative intensity	assigned
50.0151	11	C4H2+
51.0228	8	C4H3+
53.0022	7	C3HO+
53.0386	74	C4H5+
55.0179	4	C3H3O+
56.0494	1	C3H6N+
57.9872	11	C2H2S+
59.9903	1	CH2NS+
62.015	1	C5H2+
63.0229	87	C5H3+
64.0182	13	C4H2N+
64.0307	3	C5H4+
65.0386	999	C5H5+
66.0338	4	C4H4N+
66.0464	81	C5H6+
67.0417	1	C4H5N+
68.9793	118	C3HS+
75.0228	1	C6H3+
77.0385	172	C6H5+
78.0464	1	C6H6+
80.0494	343	C5H6N+
81.0335	14	C5H5O+
81.9871	35	C4H2S+
82.9949	10	C4H3S+
84.0028	24	C4H4S+
90.0339	186	C6H4N+
91.0417	86	C6H5N+
92.0495	104	C6H6N+
92.9794	10	C5HS+
94.0413	3	C6H6O+
95.0492	304	
96.0028	1	C5H4S+
97.0107	31	C5H5S+
103.0417	3	C7H5N+
104.0495	2	C7H6N+
105.0448	146	C6H5N2+
106.995	44	C6H3S+
108.0028	387	C6H4S+
109.0107	493	C6H5S+
110.0185	123	C6H6S+
123.0138	3	C6H5NS+
124.0216	164	C6H6NS+
132.9981	10	C7H3NS+
134.0059	75	C7H4NS+
135.0137	845	C7H5NS+
136.0216	270	C7H6NS+
140.9829	5	C6H5S2+
150.0009	3	C7H4NOS+
152.0165	3	C7H6NOS+
166.9857	6	C7H5NS2+
167.9936	28	C7H6NS2+
