Mass spectrum: Phenobarbital; LC-ESI-QFT; MS2; CE: 90; R=35000; [M+H]+
Name: Phenobarbital
Name: 5-ethyl-5-phenyl-1,3-diazinane-2,4,6-trione
Formula: C12H12N2O3
Exact mass: 232.08479
SMILES: CCC1(C(=O)NC(=O)NC1=O)C2=CC=CC=C2
InChI: InChI=1S/C12H12N2O3/c1-2-12(8-6-4-3-5-7-8)9(15)13-11(17)14-10(12)16/h3-7H,2H2,1H3,(H2,13,14,15,16,17)
Instrument: Q Exactive Plus Orbitrap Thermo Scientific
Instrument type: LC-ESI-QFT
Ms type: MS2
Ion mode: POSITIVE
Ionization: ESI
Fragmentation mode: HCD
Collision energy: 90 (nominal)
Resolution: 35000
Column name: XBridge C18 3.5um, 2.1x50mm, Waters
Retention time: 6.0 min
Base peak: 251.1845
Precursor m/z: 233.0921
Precursor type: [M+H]+
m/z	relative intensity	assigned
51.0228	8	C4H3+
53.0385	92	C4H5+
55.0178	53	C3H3O+
55.0542	143	C4H7+
56.0494	79	C3H6N+
57.0333	28	C3H5O+
57.0697	22	C4H9+
59.0491	62	C3H7O+
65.0384	26	C5H5+
66.0461	4	C5H6+
67.0542	37	C5H7+
69.0334	27	C4H5O+
69.0698	34	C5H9+
69.9923	11	C2NO2+
71.049	21	C4H7O+
73.0281	9	C3H5O2+
77.0383	41	C6H5+
78.0462	7	C6H6+
79.0541	239	C6H7+
81.0334	10	C5H5O+
81.0697	41	C6H9+
83.0489	5	C5H7O+
84.0808	9	C5H10N+
89.0385	361	C7H5+
91.0541	729	C7H7+
93.0572	25	C6H7N+
93.0698	10	C7H9+
95.049	183	C6H7O+
95.0854	11	C7H11+
97.0075	38	C8H+
98.0963	12	C6H12N+
99.0188	5	C3H3N2O2+
103.0541	43	C8H7+
104.0494	241	C7H6N+
105.0334	227	C7H5O+
105.0447	129	C6H5N2+
105.0572	82	C7H7N+
105.0697	41	C8H9+
106.065	364	C7H8N+
107.0489	11	C7H7O+
115.0541	318	C9H7+
116.0493	27	C8H6N+
116.0619	21	C9H8+
117.0334	58	C8H5O+
117.0697	321	C9H9+
118.0647	18	C8H8N+
119.073	35	C8H9N+
119.0854	25	C9H11+
127.0542	11	C10H7+
128.0619	73	C10H8+
129.0697	32	C10H9+
131.0857	8	C10H11+
132.0443	10	C8H6NO+
133.0521	999	C8H7NO+
134.06	85	C8H8NO+
134.0962	34	C9H12N+
141.0696	5	C11H9+
143.0728	63	C10H9N+
144.0807	158	C10H10N+
145.0283	24	C9H5O2+
145.0648	26	C10H9O+
155.0601	48	C10H7N2+
162.0915	5	C10H12NO+
175.0012	5	C7HN3O3+
