Mass spectrum: 4-Acetamidoantipyrine; LC-ESI-ITFT; MS2; CE: 30%; R=15000; [M+H]+
Name: 4-Acetamidoantipyrine
Name: N-(1,5-dimethyl-3-oxidanylidene-2-phenyl-pyrazol-4-yl)ethanamide
Formula: C13H15N3O2
Exact mass: 245.1164
SMILES: CC(=O)NC=2C(=O)N(c1ccccc1)N(C)C=2C
InChI: InChI=1S/C13H15N3O2/c1-9-12(14-10(2)17)13(18)16(15(9)3)11-7-5-4-6-8-11/h4-8H,1-3H3,(H,14,17)
Instrument: LTQ Orbitrap XL Thermo Scientific
Instrument type: LC-ESI-ITFT
Ms type: MS2
Ion mode: POSITIVE
Ionization: ESI
Fragmentation mode: HCD
Collision energy: 30 % (nominal)
Resolution: 15000
Column name: XBridge C18 3.5um, 2.1x50mm, Waters
Retention time: 3.7 min
Base peak: 246.1244
Precursor m/z: 246.1237
Precursor type: [M+H]+
m/z	relative intensity	assigned
56.0494	12	C3H6N+
77.0386	5	C6H5+
83.0604	62	C4H7N2+
85.0761	2	C4H9N2+
94.0652	4	C6H8N+
104.0495	80	C7H6N+
111.0555	1	C5H7N2O+
145.0757	2	C9H9N2+
159.0917	16	C10H11N2+
171.0558	1	C10H7N2O+
173.0709	7	C10H9N2O+
187.0866	25	C11H11N2O+
189.0893	1	C10H11N3O+
200.0811	1	C11H10N3O+
204.1134	444	C11H14N3O+
213.0899	4	C12H11N3O+
226.098	2	C13H12N3O+
228.1134	999	C13H14N3O+
246.1239	369	C13H16N3O2+
