Mass spectrum: Iopamidol; LC-ESI-ITFT; MS2; CE: 60%; R=7500; [M+H]+
Name: Iopamidol
Name: 1,3-Benzenedicarboxamide, N,N'-bis(2-hydroxy-1-(hydroxymethyl)ethyl)-5-((2-hydroxy-1-oxopropyl)amino)-2,4,6-triiodo-
Name: 1-N,3-N-bis(1,3-dihydroxypropan-2-yl)-5-(2-hydroxypropanoylamino)-2,4,6-triiodobenzene-1,3-dicarboxamide
Formula: C17H22I3N3O8
Exact mass: 776.8541
SMILES: CC(O)C(=O)NC1=C(I)C(C(=O)NC(CO)CO)=C(I)C(C(=O)NC(CO)CO)=C1I
InChI: InChI=1S/C17H22I3N3O8/c1-6(28)15(29)23-14-12(19)9(16(30)21-7(2-24)3-25)11(18)10(13(14)20)17(31)22-8(4-26)5-27/h6-8,24-28H,2-5H2,1H3,(H,21,30)(H,22,31)(H,23,29)
Instrument: LTQ Orbitrap XL Thermo Scientific
Instrument type: LC-ESI-ITFT
Ms type: MS2
Ion mode: POSITIVE
Ionization: ESI
Fragmentation mode: HCD
Collision energy: 60 % (nominal)
Resolution: 7500
Column name: XBridge C18 3.5um, 2.1x50mm, Waters
Retention time: 1.2 min
Base peak: 132.9578
Precursor m/z: 777.8614
Precursor type: [M+H]+
m/z	relative intensity	assigned
103.0415	63	C7H5N+
113.9972	38	C7NO+
130.0294	55	C8H4NO+
131.0369	56	C8H5NO+
141.9922	129	C8NO2+
143.036	41	C9H5NO+
144.0079	99	C8H2NO2+
159.0188	42	C8H3N2O2+
159.0321	152	C9H5NO2+
176.0225	50	C8H4N2O3+
185.0341	77	C10H5N2O2+
186.0183	137	C10H4NO3+
187.0497	64	C10H7N2O2+
201.0303	45	C10H5N2O3+
241.9462	81	C8H5IN+
243.9242	36	C7H3INO+
257.9406	202	C8H5INO+
259.0711	217	C13H11N2O4+
260.0783	62	C13H12N2O4+
269.9408	405	C9H5INO+
285.9361	999	C9H5INO2+
293.9487	112	C7H7IN2O3+
295.9208	235	C10H3INO2+
297.9348	51	C10H5INO2+
312.9473	59	C10H6IN2O2+
313.9307	448	C10H5INO3+
331.9414	447	C10H7INO4+
339.8067	41	CI2N3O2+
368.9745	40	C13H10IN2O3+
422.8123	141	C9HI2N2O2+
441.8066	64	C9H2I2NO4+
