Mass spectrum: Isofenphos-Methyl; LC-ESI-QFT; MS2; CE: 75%; R=17500; [M+H]+
Name: Isofenphos-Methyl
Name: propan-2-yl 2-[methoxy-(propan-2-ylamino)phosphinothioyl]oxybenzoate
Formula: C14H22NO4PS
Exact mass: 331.1007
SMILES: CC(C)NP(=S)(OC)OC1=CC=CC=C1C(=O)OC(C)C
InChI: InChI=1S/C14H22NO4PS/c1-10(2)15-20(21,17-5)19-13-9-7-6-8-12(13)14(16)18-11(3)4/h6-11H,1-5H3,(H,15,21)
Instrument: Exploris 240 Orbitrap Thermo Scientific
Instrument type: LC-ESI-QFT
Ms type: MS2
Ion mode: POSITIVE
Ionization: ESI
Fragmentation mode: HCD
Collision energy: 75 % (nominal)
Resolution: 17500
Column name: XBridge C18 3.5um, 2.1x50mm, Waters
Retention time: 10.780 min
Base peak: 230.9875
Precursor m/z: 332.108
Precursor type: [M+H]+
m/z	relative intensity	assigned
63.9947	23	H3NOP+
65.0386	54	CH8NP+
93.0336	22	C6H5O+
109.0108	49	C6H5S+
109.9825	93	CH5NOPS+
110.9666	10	CH4O2PS+
121.0286	999	C3H8NO2P+
135.9979	6	C7H4OS+
138.9946	26	C6H4O2P+
154.9713	51	C6H4OPS+
157.0047	28	C6H6O3P+
198.9623	43	C7H4O3PS+
216.9728	34	C7H6O4PS+
230.9879	16	C8H8O4PS+
