Mass spectrum: Isopropalin; LC-ESI-QFT; MS2; CE: 150%; R=17500; [M+H]+
Name: Isopropalin
Name: 2,6-dinitro-4-propan-2-yl-N,N-dipropylaniline
Formula: C15H23N3O4
Exact mass: 309.1689
SMILES: CCCN(CCC)C1=C(C=C(C=C1[N+](=O)[O-])C(C)C)[N+](=O)[O-]
InChI: InChI=1S/C15H23N3O4/c1-5-7-16(8-6-2)15-13(17(19)20)9-12(11(3)4)10-14(15)18(21)22/h9-11H,5-8H2,1-4H3
Instrument: Exploris 240 Orbitrap Thermo Scientific
Instrument type: LC-ESI-QFT
Ms type: MS2
Ion mode: POSITIVE
Ionization: ESI
Fragmentation mode: HCD
Collision energy: 150 % (nominal)
Resolution: 17500
Column name: XBridge C18 3.5um, 2.1x50mm, Waters
Retention time: 15.043 min
Base peak: 310.1757
Precursor m/z: 310.1761
Precursor type: [M+H]+
m/z	relative intensity	assigned
51.0229	203	C4H3+
52.0183	80	C3H2N+
53.0387	187	C4H5+
63.0229	172	C5H3+
65.0385	641	C5H5+
66.0463	71	C5H6+
77.0385	516	C6H5+
78.0339	102	C5H4N+
78.0464	213	C6H6+
79.0542	237	C6H7+
80.0495	138	C5H6N+
89.0384	519	C7H5+
90.0339	81	C6H4N+
90.0465	192	C7H6+
91.0542	999	C7H7+
92.0495	137	C6H6N+
95.0495	106	C6H7O+
103.0543	233	C8H7+
104.0496	242	C7H6N+
105.0449	239	C6H5N2+
105.0697	93	C8H9+
106.0649	140	C7H8N+
116.0497	360	C8H6N+
117.0569	484	C8H7N+
118.0651	391	C8H8N+
130.0654	127	C9H8N+
131.0604	248	C8H7N2+
143.0607	137	C9H7N2+
145.0766	82	C9H9N2+
157.0762	100	C10H9N2+
