Mass spectrum: N-Bisdesmethyl Tramadol; LC-ESI-QFT; MS2; CE: 30; R=35000; [M+H]+
Name: N-Bisdesmethyl Tramadol
Name: 2-(aminomethyl)-1-(3-methoxyphenyl)cyclohexan-1-ol
Formula: C14H21NO2
Exact mass: 235.15723
SMILES: COC1=CC=CC(=C1)C2(CCCCC2CN)O
InChI: InChI=1S/C14H21NO2/c1-17-13-7-4-6-11(9-13)14(16)8-3-2-5-12(14)10-15/h4,6-7,9,12,16H,2-3,5,8,10,15H2,1H3
Instrument: Q Exactive Plus Orbitrap Thermo Scientific
Instrument type: LC-ESI-QFT
Ms type: MS2
Ion mode: POSITIVE
Ionization: ESI
Fragmentation mode: HCD
Collision energy: 30 (nominal)
Resolution: 35000
Column name: XBridge C18 3.5um, 2.1x50mm, Waters
Retention time: 5.2 min
Base peak: 236.1644
Precursor m/z: 236.1645
Precursor type: [M+H]+
m/z	relative intensity	assigned
81.0698	9	C6H9+
121.0648	69	C8H9O+
187.1116	1	C13H15O+
189.1273	999	C13H17O+
201.1273	15	C14H17O+
218.154	58	C14H20NO+
