Mass spectrum: Metribuzin-desamino; LC-ESI-QFT; MS2; CE: 30; R=35000; [M-H]-
Name: Metribuzin-desamino
Name: Deaminometribuzin
Name: 6-tert-butyl-3-(methylthio)-2H-1,2,4-triazin-5-one
Formula: C8H13N3OS
Exact mass: 199.27332
SMILES: CC(C)(C)C1=NNC(=NC1=O)SC
InChI: InChI=1S/C8H13N3OS/c1-8(2,3)5-6(12)9-7(13-4)11-10-5/h1-4H3,(H,9,11,12)
Instrument: Q Exactive Plus Orbitrap Thermo Scientific
Instrument type: LC-ESI-QFT
Ms type: MS2
Ion mode: NEGATIVE
Ionization: ESI
Fragmentation mode: HCD
Collision energy: 30 (nominal)
Resolution: 35000
Column name: XBridge C18 3.5um, 2.1x50mm, Waters
Retention time: 7.3 min
Base peak: 198.0703
Precursor m/z: 198.0707
Precursor type: [M-H]-
m/z	relative intensity	assigned
68.0014	2	C2N2O-
94.0044	1	C3N3O-
183.0476	1	C7H9N3OS-
198.0705	999	C8H12N3OS-
