Mass spectrum: 1,4-Diazabicyclo[2.2.2]octane; LC-ESI-QFT; MS2; CE: 45%; R=15000; [M+H]+
Name: 1,4-Diazabicyclo[2.2.2]octane
Formula: C6H12N2
Exact mass: 112.1000484
SMILES: C1CN2CCN1CC2
InChI: InChI=1S/C6H12N2/c1-2-8-5-3-7(1)4-6-8/h1-6H2
Instrument: Exploris 240 Thermo Scientific
Instrument type: LC-ESI-QFT
Ms type: MS2
Ion mode: POSITIVE
Ionization: ESI
Fragmentation mode: HCD
Collision energy: 45 % (nominal)
Resolution: 15000
Column name: XBridge C18 3.5um, 2.1x50mm, Waters
Retention time: 0.717 min
Base peak: 113.107
Precursor m/z: 113.1073
Precursor type: [M+H]+
m/z	relative intensity	assigned
113.107	999	C6H13N2+
