Mass spectrum: Doxycycline; LC-ESI-QFT; MS2; CE: 120; R=35000; [M+H]+
Name: Doxycycline
Name: 8-carbamoyl-10-(dimethylazaniumyl)-4,6a,7,11-tetrahydroxy-12-methyl-6,9-dioxo-10a,11,11a,12-tetrahydro-10H-tetracen-5-olate
Formula: C22H24N2O8
Exact mass: 444.15327
SMILES: CC1C2C(C3C(C(=O)C(=C(C3(C(=O)C2=C(C4=C1C=CC=C4O)O)O)O)C(=O)N)N(C)C)O
InChI: InChI=1S/C22H24N2O8/c1-7-8-5-4-6-9(25)11(8)16(26)12-10(7)17(27)14-15(24(2)3)18(28)13(21(23)31)20(30)22(14,32)19(12)29/h4-7,10,14-15,17,25-27,30,32H,1-3H3,(H2,23,31)
Instrument: Q Exactive Plus Orbitrap Thermo Scientific
Instrument type: LC-ESI-QFT
Ms type: MS2
Ion mode: POSITIVE
Ionization: ESI
Fragmentation mode: HCD
Collision energy: 120 (nominal)
Resolution: 35000
Column name: XBridge C18 3.5um, 2.1x50mm, Waters
Retention time: 6.4 min
Base peak: 445.1595
Precursor m/z: 445.1605
Precursor type: [M+H]+
m/z	relative intensity	assigned
50.0151	29	C4H2+
51.0229	20	C4H3+
53.0022	33	C3HO+
53.0386	77	C4H5+
54.0338	15	C3H4N+
55.0179	137	C3H3O+
55.0417	46	C3H5N+
56.0495	42	C3H6N+
57.0335	3	C3H5O+
57.0573	3	C3H7N+
58.0651	295	C3H8N+
62.015	4	C5H2+
63.0228	38	C5H3+
65.0386	115	C5H5+
66.0338	2	C4H4N+
66.0464	3	C5H6+
67.0178	32	C4H3O+
67.0417	14	C4H5N+
67.0542	7	C5H7+
68.0257	7	C4H4O+
68.0495	54	C4H6N+
68.9971	163	C3HO2+
69.0334	13	C4H5O+
70.0651	146	C4H8N+
71.0365	10	C3H5NO+
71.0729	8	C4H9N+
72.0444	28	C3H6NO+
72.0808	4	C4H10N+
75.0228	18	C6H3+
76.0307	1	C6H4+
77.0021	2	C5HO+
77.0385	41	C6H5+
78.0464	14	C6H6+
79.0178	50	C5H3O+
79.0542	34	C6H7+
80.0494	25	C5H6N+
81.0335	55	C5H5O+
81.0573	9	C5H7N+
82.0651	29	C5H8N+
83.0127	30	C4H3O2+
83.0366	19	C4H5NO+
84.0444	3	C4H6NO+
84.0807	17	C5H10N+
85.0285	1	C4H5O2+
86.0148	2	C7H2+
86.06	2	C4H8NO+
87.0227	2	C7H3+
88.0306	1	C7H4+
89.0385	44	C7H5+
90.0464	10	C7H6+
91.0542	410	C7H7+
92.0256	2	C6H4O+
92.0494	2	C6H6N+
93.0335	3	C6H5O+
93.0573	8	C6H7N+
93.0698	2	C7H9+
94.0414	3	C6H6O+
94.0652	17	C6H8N+
95.0127	27	C5H3O2+
95.0492	128	C6H7O+
96.0443	11	C5H6NO+
96.0807	2	C6H10N+
97.0285	13	C5H5O2+
97.0523	2	C5H7NO+
98.0601	125	C5H8NO+
101.0387	9	C8H5+
102.0464	60	C8H6+
103.0542	123	C8H7+
104.062	13	C8H8+
105.0336	25	C7H5O+
105.0448	97	C6H5N2+
105.0699	19	C8H9+
106.0652	3	C7H8N+
107.0129	13	C6H3O2+
107.0491	58	C7H7O+
108.0443	4	C6H6NO+
109.0285	7	C6H5O2+
110.06	3	C6H8NO+
111.0077	7	C5H3O3+
111.044	3	C6H7O2+
113.0386	16	C9H5+
114.0464	21	C9H6+
115.0543	999	C9H7+
116.0621	129	C9H8+
117.0699	131	C9H9+
118.0413	15	C8H6O+
118.0653	2	C8H8N+
119.0128	11	C7H3O2+
119.0493	14	C8H7O+
119.0855	10	C9H11+
121.0283	16	C7H5O2+
121.0397	3	C6H5N2O+
121.0643	2	C8H9O+
123.0078	3	C6H3O3+
124.0155	2	C6H4O3+
125.0231	2	C6H5O3+
125.0387	8	C10H5+
126.0464	93	C10H6+
127.0542	541	C10H7+
128.0621	538	C10H8+
129.0447	23	C8H5N2+
129.0699	129	C10H9+
130.0416	2	C9H6O+
131.0492	134	C9H7O+
131.0856	12	C10H11+
132.0571	54	C9H8O+
134.0601	2	C8H8NO+
135.0077	2	C7H3O3+
137.0233	7	C7H5O3+
137.0385	2	C11H5+
138.0462	4	C11H6+
139.0543	551	C11H7+
140.0621	459	C11H8+
141.0699	231	C11H9+
142.0414	10	C10H6O+
142.0778	27	C11H10+
143.0491	8	C10H7O+
143.0853	15	C11H11+
144.057	156	C10H8O+
145.0649	249	C10H9O+
147.0439	2	C9H7O2+
147.0804	4	C10H11O+
150.0463	31	C12H6+
151.0543	39	C12H7+
152.0621	875	C12H8+
153.0699	239	C12H9+
154.0777	36	C12H10+
155.0493	53	C11H7O+
155.0604	409	C10H7N2+
155.0855	30	C12H11+
156.0571	24	C11H8O+
157.0649	69	C11H9O+
158.0726	8	C11H10O+
159.0442	3	C10H7O2+
159.0807	13	C11H11O+
160.0519	78	C10H8O2+
163.0542	115	C13H7+
164.0621	118	C13H8+
165.07	923	C13H9+
166.0778	66	C13H10+
167.0491	13	C12H7O+
167.0856	33	C13H11+
168.057	876	C12H8O+
169.0648	221	C12H9O+
170.0726	26	C12H10O+
171.0441	6	C11H7O2+
171.0804	13	C12H11O+
172.0517	17	C11H8O2+
173.0598	37	C11H9O2+
174.0675	4	C11H10O2+
175.0546	8	C14H7+
176.0621	272	C14H8+
177.07	69	C14H9+
178.0778	228	C14H10+
179.0491	28	C13H7O+
179.0603	47	C12H7N2+
179.0854	22	C14H11+
180.057	73	C13H8O+
181.0648	216	C13H9O+
182.0726	40	C13H10O+
183.0549	3	C11H7N2O+
183.0804	15	C13H11O+
184.0519	41	C12H8O2+
185.0597	10	C12H9O2+
185.0712	2	C11H9N2O+
186.0675	2	C12H10O2+
187.039	11	C11H7O3+
187.0546	15	C15H7+
187.0754	8	C12H11O2+
188.0623	17	C15H8+
189.0699	209	C15H9+
190.0653	2	C14H8N+
190.0779	21	C15H10+
191.0735	2	C14H9N+
191.0853	17	C15H11+
192.057	46	C14H8O+
193.0649	48	C14H9O+
194.0727	67	C14H10O+
195.0442	13	C13H7O2+
195.0805	23	C14H11O+
196.052	103	C13H8O2+
197.0598	186	C13H9O2+
198.0674	38	C13H10O2+
200.0467	9	C12H8O3+
200.0621	25	C16H8+
201.0548	7	C12H9O3+
201.0698	7	C16H9+
202.0778	27	C16H10+
203.0597	2	C14H7N2+
203.0728	2	C15H9N+
204.057	22	C15H8O+
205.065	63	C15H9O+
206.073	4	C15H10O+
207.0441	4	C14H7O2+
207.0805	13	C15H11O+
208.0518	19	C14H8O2+
208.0876	2	C15H12O+
209.0595	16	C14H9O2+
210.0675	21	C14H10O2+
211.0392	8	C13H7O3+
211.0753	29	C14H11O2+
212.0471	7	C13H8O3+
213.055	4	C13H9O3+
217.0646	3	C16H9O+
218.0727	16	C16H10O+
219.0807	8	C16H11O+
220.052	8	C15H8O2+
221.0599	65	C15H9O2+
222.0685	6	C15H10O2+
223.0391	3	C14H7O3+
223.0754	4	C15H11O2+
224.0465	9	C14H8O3+
225.0546	14	C14H9O3+
226.0628	16	C14H10O3+
229.0645	2	C17H9O+
233.0598	4	C16H9O2+
234.0673	6	C16H10O2+
234.0908	2	C16H12NO+
236.0472	4	C15H8O3+
237.0545	2	C15H9O3+
238.0629	2	C15H10O3+
241.0495	2	C14H9O4+
249.0553	4	C16H9O3+
250.0626	3	C16H10O3+
