Mass spectrum: Anabaenopeptin A; LC-ESI-QFT; MS2; CE: 60%; R=17500; [M+H]+
Name: Anabaenopeptin A
Name: 2-[[3-benzyl-9-[2-(4-hydroxyphenyl)ethyl]-6,7-dimethyl-2,5,8,11,14-pentaoxo-12-propan-2-yl-1,4,7,10,13-pentazacyclononadec-15-yl]carbamoylamino]-3-(4-hydroxyphenyl)propanoic acid
Formula: C44H57N7O10
Exact mass: 843.4167
SMILES: CC1C(=O)NC(C(=O)NCCCCC(C(=O)NC(C(=O)NC(C(=O)N1C)CCC2=CC=C(C=C2)O)C(C)C)NC(=O)NC(CC3=CC=C(C=C3)O)C(=O)O)CC4=CC=CC=C4
InChI: InChI=1S/C44H57N7O10/c1-26(2)37-41(57)46-34(22-17-28-13-18-31(52)19-14-28)42(58)51(4)27(3)38(54)47-35(24-29-10-6-5-7-11-29)39(55)45-23-9-8-12-33(40(56)50-37)48-44(61)49-36(43(59)60)25-30-15-20-32(53)21-16-30/h5-7,10-11,13-16,18-21,26-27,33-37,52-53H,8-9,12,17,22-25H2,1-4H3,(H,45,55)(H,46,57)(H,47,54)(H,50,56)(H,59,60)(H2,48,49,61)
Instrument: Q Exactive Plus Orbitrap Thermo Scientific
Instrument type: LC-ESI-QFT
Ms type: MS2
Ion mode: POSITIVE
Ionization: ESI
Fragmentation mode: HCD
Collision energy: 60 % (nominal)
Resolution: 17500
Column name: XBridge C18 3.5um, 2.1x50mm, Waters
Retention time: 7.249 min
Base peak: 164.9844
Precursor m/z: 844.424
Precursor type: [M+H]+
m/z	relative intensity	assigned
67.0541	8	C5H7+
69.0699	3	C5H9+
70.0651	6	C4H8N+
72.0808	67	C4H10N+
82.065	8	C5H8N+
84.0808	999	C5H10N+
86.06	227	C4H8NO+
86.0965	4	
91.0543	17	C7H7+
93.0701	4	C7H9+
94.0651	4	C6H8N+
95.0492	3	C6H7O+
96.0809	2	C6H10N+
98.0601	2	C5H8NO+
98.0964	4	C6H12N+
99.019	3	C3H3N2O2+
100.076	2	C5H10NO+
101.1071	3	C5H13N2+
103.0541	21	C8H7+
105.0698	16	C8H9+
107.0491	150	C7H7O+
110.0601	5	C6H8NO+
110.0964	2	C7H12N+
111.0916	9	C6H11N2+
112.0757	7	C6H10NO+
112.112	13	C7H14N+
114.0549	39	C5H8NO2+
117.0697	4	C9H9+
119.0488	9	C8H7O+
120.0807	366	C8H10N+
121.0648	8	C8H9O+
123.0439	9	C7H7O2+
127.0867	10	C6H11N2O+
128.0706	6	C6H10NO2+
129.0697	3	C10H9+
129.1021	58	C6H13N2O+
130.0651	4	C9H8N+
130.0862	8	C6H12NO2+
131.0498	2	C9H7O+
132.0808	4	C9H10N+
133.0647	10	C9H9O+
135.0676	4	C8H9NO+
136.0755	59	C8H10NO+
137.0708	2	C7H9N2O+
138.1277	6	C9H16N+
139.0862	5	C7H11N2O+
140.0703	11	C7H10NO2+
146.0598	14	C9H8NO+
146.0956	16	C10H12N+
147.0676	5	C9H9NO+
148.0754	5	C9H10NO+
150.091	32	C9H12NO+
153.0654	5	C7H9N2O2+
153.1017	2	C8H13N2O+
154.0969	2	C7H12N3O+
155.0812	34	C7H11N2O2+
162.0551	5	C9H8NO2+
162.0914	3	C10H12NO+
165.0547	10	C9H9O3+
165.1389	4	C10H17N2+
173.0922	23	C7H13N2O3+
174.1278	31	C12H16N+
176.1073	6	C11H14NO+
181.097	9	C9H13N2O2+
181.1341	2	C10H17N2O+
183.149	12	C10H19N2O+
186.1283	7	C13H16N+
190.1229	13	C12H16NO+
202.1232	3	C13H16NO+
205.1338	7	C12H17N2O+
209.1286	27	C11H17N2O2+
226.1555	49	C11H20N3O2+
229.1346	6	H19N7O7+
231.1503	7	H21N7O7+
238.1236	14	C2H18N6O7+
252.1717	12	C15H24O3+
257.1293	6	CH19N7O8+
265.1565	3	C2H25N4O10+
320.164	4	C21H22NO2+
