Mass spectrum: Gemfibrozil; LC-ESI-QFT; MS2; CE: 75; R=35000; [M+H]+
Name: Gemfibrozil
Name: 5-[(2,5-dimethylphenyl)oxy]-2,2-dimethylpentanoic acid
Name: 5-(2,5-dimethylphenoxy)-2,2-dimethyl-pentanoic acid
Formula: C15H22O3
Exact mass: 250.15689
SMILES: O=C(O)C(C)(C)CCCOc1cc(ccc1C)C
InChI: InChI=1S/C15H22O3/c1-11-6-7-12(2)13(10-11)18-9-5-8-15(3,4)14(16)17/h6-7,10H,5,8-9H2,1-4H3,(H,16,17)
Instrument: Q Exactive Orbitrap Thermo Scientific
Instrument type: LC-ESI-QFT
Ms type: MS2
Ion mode: POSITIVE
Ionization: ESI
Fragmentation mode: HCD
Collision energy: 75 (nominal)
Resolution: 35000
Column name: XBridge C18 3.5um, 2.1x50mm, Waters
Retention time: 14.9 min
Base peak: 233.1536
Precursor m/z: 251.1642
Precursor type: [M+H]+
m/z	relative intensity	assigned
53.0023	19	C3HO+
53.0387	56	C4H5+
55.0543	999	C4H7+
57.0699	313	C4H9+
59.0492	550	C3H7O+
67.0542	49	C5H7+
69.0335	40	C4H5O+
69.0699	99	C5H9+
71.0491	50	C4H7O+
73.0648	764	C4H9O+
79.0542	29	C6H7+
81.0699	4	C6H9+
83.0855	800	C6H11+
87.044	85	C4H7O2+
91.0542	9	C7H7+
93.0697	33	C7H9+
95.0491	22	C6H7O+
95.0855	138	C7H11+
101.0961	10	C6H13O+
103.0543	6	C8H7+
105.0699	99	C8H9+
107.0491	26	C7H7O+
108.057	184	C7H8O+
111.0804	54	C7H11O+
121.0648	28	C8H9O+
123.0804	432	C8H11O+
129.091	132	C7H13O2+
131.0854	8	C10H11+
133.101	10	C10H13+
135.0802	14	C9H11O+
146.0727	22	C10H10O+
