Mass spectrum: Deferasirox; LC-ESI-QFT; MS2; CE: 45; R=35000; [M-H]-
Name: Deferasirox
Formula: C21H15N3O4
Exact mass: 373.10626
SMILES: OC(=O)c1ccc(cc1)n2nc(nc2c3ccccc3O)c4ccccc4O
InChI: InChI=1S/C21H15N3O4/c25-17-7-3-1-5-15(17)19-22-20(16-6-2-4-8-18(16)26)24(23-19)14-11-9-13(10-12-14)21(27)28/h1-12,25-26H,(H,27,28)
Instrument: Q Exactive Orbitrap Thermo Scientific
Instrument type: LC-ESI-QFT
Ms type: MS2
Ion mode: NEGATIVE
Ionization: ESI
Fragmentation mode: HCD
Collision energy: 45 (nominal)
Resolution: 35000
Column name: XBridge C18 3.5um, 2.1x50mm, Waters
Retention time: 13.0 min
Base peak: 372.0991
Precursor m/z: 372.099
Precursor type: [M-H]-
m/z	relative intensity	assigned
90.0349	3	C6H4N-
93.0346	48	C6H5O-
102.035	12	C7H4N-
117.046	16	C7H5N2-
118.0299	775	C7H4NO-
121.0295	13	C7H5O2-
131.0377	3	C8H5NO-
132.033	29	C7H4N2O-
133.0408	597	C7H5N2O-
153.0709	5	C12H9-
160.0516	20	C8H6N3O-
166.066	6	C12H8N-
168.0455	1	C11H6NO-
169.0658	17	C12H9O-
180.0581	18	C13H8O-
181.0657	5	C13H9O-
182.0612	3	C12H8NO-
191.0614	6	C13H7N2-
194.061	50	C13H8NO-
197.0605	2	C13H9O2-
206.0614	1	C14H8NO-
207.0563	3	C13H7N2O-
208.0643	1	C13H8N2O-
209.0719	118	C13H9N2O-
210.0559	6	C13H8NO2-
217.0647	2	C14H7N3-
218.0723	11	C14H8N3-
222.0564	1	C14H8NO2-
223.0639	17	C14H9NO2-
224.072	1	C14H10NO2-
233.059	2	C14H7N3O-
234.0672	19	C14H8N3O-
251.07	33	C14H9N3O2-
252.0777	999	C14H10N3O2-
283.088	2	C19H11N2O-
292.0881	2	C20H10N3-
308.0832	9	C20H10N3O-
309.0907	3	C20H11N3O-
310.0985	70	C20H12N3O-
326.0934	37	C20H12N3O2-
328.109	614	C20H14N3O2-
