Mass spectrum: Albendazole sulfone; LC-ESI-QFT; MS2; CE: 180; R=35000; [M-H]-
Name: Albendazole sulfone
Name: methyl N-(6-propylsulfonyl-1H-benzimidazol-2-yl)carbamate
Formula: C12H15N3O4S
Exact mass: 297.07833
SMILES: CCCS(=O)(=O)C1=CC2=C(C=C1)N=C(N2)NC(=O)OC
InChI: InChI=1S/C12H15N3O4S/c1-3-6-20(17,18)8-4-5-9-10(7-8)14-11(13-9)15-12(16)19-2/h4-5,7H,3,6H2,1-2H3,(H2,13,14,15,16)
Instrument: Q Exactive Plus Orbitrap Thermo Scientific
Instrument type: LC-ESI-QFT
Ms type: MS2
Ion mode: NEGATIVE
Ionization: ESI
Fragmentation mode: HCD
Collision energy: 180 (nominal)
Resolution: 35000
Column name: XBridge C18 3.5um, 2.1x50mm, Waters
Retention time: 5.7 min
Base peak: 264.0444
Precursor m/z: 296.0711
Precursor type: [M-H]-
m/z	relative intensity	assigned
50.0035	169	C3N-
64.0193	999	C4H2N-
65.0145	92	C3HN2-
65.9985	20	C3NO-
74.0037	128	C5N-
77.0143	11	C4HN2-
86.0035	43	C6N-
87.0113	36	C6HN-
88.0066	44	C5N2-
88.0192	307	C6H2N-
89.0144	48	C5HN2-
101.0144	16	C6HN2-
102.0222	10	C6H2N2-
113.0144	40	C7HN2-
115.0302	603	C7H3N2-
129.0333	96	C7H3N3-
156.0203	173	C8H2N3O-
