Mass spectrum: Secbumeton; LC-ESI-ITFT; MS2; CE: 90%; R=7500; [M+H]+
Name: Secbumeton
Name: 2-N-butan-2-yl-4-N-ethyl-6-methoxy-1,3,5-triazine-2,4-diamine
Formula: C10H19N5O
Exact mass: 225.1590
SMILES: c1(nc(nc(n1)OC)NCC)NC(CC)C
InChI: InChI=1S/C10H19N5O/c1-5-7(3)12-9-13-8(11-6-2)14-10(15-9)16-4/h7H,5-6H2,1-4H3,(H2,11,12,13,14,15)
Instrument: LTQ Orbitrap XL Thermo Scientific
Instrument type: LC-ESI-ITFT
Ms type: MS2
Ion mode: POSITIVE
Ionization: ESI
Fragmentation mode: HCD
Collision energy: 90 % (nominal)
Resolution: 7500
Column name: XBridge C18 3.5um, 2.1x50mm, Waters
Retention time: 6.7 min
Base peak: 226.1668
Precursor m/z: 226.1662
Precursor type: [M+H]+
m/z	relative intensity	assigned
57.0447	306	C2H5N2+
58.0287	74	C2H4NO+
68.0243	553	C2H2N3+
69.0084	548	C2HN2O+
71.0604	146	C3H7N2+
75.0553	419	C2H7N2O+
82.0399	48	C3H4N3+
83.024	65	C3H3N2O+
85.0761	116	C4H9N2+
86.0349	296	C2H4N3O+
96.0556	247	C4H6N3+
97.0396	90	C4H5N2O+
99.0661	57	C3H7N4+
100.0505	999	C3H6N3O+
114.0662	213	C4H8N3O+
128.0819	216	C5H10N3O+
138.0781	35	C5H8N5+
142.0723	282	C4H8N5O+
168.088	19	C6H10N5O+
170.1037	304	C6H12N5O+
196.1198	27	C8H14N5O+
