Mass spectrum: Cefaclor; LC-ESI-QFT; MS2; CE: 15; R=35000; [M+H]+
Name: Cefaclor
Name: CEFACLOR
Name: (6R,7R)-7-[[(2R)-2-amino-1-oxo-2-phenylethyl]amino]-3-chloro-8-oxo-5-thia-1-azabicyclo[4.2.0]oct-2-ene-2-carboxylic acid
Formula: C15H14ClN3O4S
Exact mass: 367.03935
SMILES: O=C2N1/C(=C(/Cl)CS[C@@H]1[C@@H]2NC(=O)[C@@H](c3ccccc3)N)C(=O)O
InChI: InChI=1S/C15H14ClN3O4S/c16-8-6-24-14-10(13(21)19(14)11(8)15(22)23)18-12(20)9(17)7-4-2-1-3-5-7/h1-5,9-10,14H,6,17H2,(H,18,20)(H,22,23)/t9-,10-,14-/m1/s1
Instrument: Q Exactive Orbitrap Thermo Scientific
Instrument type: LC-ESI-QFT
Ms type: MS2
Ion mode: POSITIVE
Ionization: ESI
Fragmentation mode: HCD
Collision energy: 15 (nominal)
Resolution: 35000
Column name: XBridge C18 3.5um, 2.1x50mm, Waters
Retention time: 4.1 min
Base peak: 368.0469
Precursor m/z: 368.0466
Precursor type: [M+H]+
m/z	relative intensity	assigned
79.0542	1	C6H7+
91.0539	5	C7H7+
106.0651	644	C7H8N+
114.0007	12	C4H4NOS+
118.0409	5	C8H6O+
118.0649	5	C8H8N+
119.0491	3	C8H7O+
121.0106	3	C7H5S+
127.0324	3	C5H7N2S+
128.0492	1	C9H6N+
134.0002	3	C4H5ClNO2+
134.0603	3	C8H8NO+
144.0115	6	C5H6NO2S+
145.9825	1	C5H5ClNS+
146.06	7	C9H8NO+
159.9795	4	C5H3ClNO3+
160.9939	1	C5H6ClN2S+
161.0709	7	C9H9N2O+
162.0372	1	C9H8NS+
163.0867	3	C9H11N2O+
164.0529	9	C9H10NS+
174.055	999	C10H8NO2+
177.9723	132	C5H5ClNO2S+
178.032	26	C9H8NOS+
189.9722	5	C6H5ClNO2S+
190.032	1	C10H8NOS+
190.0975	7	C10H12N3O+
191.0399	117	C10H9NOS+
191.0815	68	
192.0477	225	C10H10NOS+
200.053	2	C12H10NS+
201.0061	3	C7H6ClN2O3+
205.9913	9	C6H7ClN2O2S+
207.0587	5	C10H11N2OS+
215.0636	4	C12H11N2S+
218.0271	1	C11H8NO2S+
225.0482	7	C13H9N2S+
232.9783	14	C7H6ClN2O3S+
243.0585	13	C13H11N2OS+
251.0404	3	C12H12ClN2S+
259.0536	3	C13H11N2O2S+
260.0853	28	
277.0206	3	C13H10ClN2OS+
279.0358	5	C13H12ClN2OS+
295.0307	2	C13H12ClN2O2S+
305.0147	4	C14H10ClN2O2S+
305.9983	4	C14H9ClNO3S+
307.0305	3	C14H12ClN2O2S+
323.0254	27	C14H12ClN2O3S+
351.0199	15	C15H12ClN2O4S+
