Mass spectrum: Profoxydim; LC-ESI-QFT; MS2; CE: 180; R=35000; [M-H]-
Name: Profoxydim
Name: 2-[1-[2-(4-chlorophenoxy)propoxyamino]butylidene]-5-(thian-3-yl)cyclohexane-1,3-dione
Formula: C24H32ClNO4S
Exact mass: 465.17406
SMILES: CCCC(=C1C(=O)CC(CC1=O)C2CCCSC2)NOCC(C)OC3=CC=C(C=C3)Cl
InChI: InChI=1S/C24H32ClNO4S/c1-3-5-21(26-29-14-16(2)30-20-9-7-19(25)8-10-20)24-22(27)12-18(13-23(24)28)17-6-4-11-31-15-17/h7-10,16-18,26H,3-6,11-15H2,1-2H3
Instrument: Q Exactive Plus Orbitrap Thermo Scientific
Instrument type: LC-ESI-QFT
Ms type: MS2
Ion mode: NEGATIVE
Ionization: ESI
Fragmentation mode: HCD
Collision energy: 180 (nominal)
Resolution: 35000
Column name: XBridge C18 3.5um, 2.1x50mm, Waters
Retention time: 14.4 min
Base peak: 464.1659
Precursor m/z: 464.1668
Precursor type: [M-H]-
m/z	relative intensity	assigned
50.0035	31	C3N-
58.9961	3	C2H3S-
64.0193	16	C4H2N-
65.9985	999	C3NO-
67.0189	4	C4H3O-
78.0349	2	C5H4N-
90.0348	2	C6H4N-
92.0141	2	C5H2NO-
120.009	20	C6H2NO2-
133.0168	5	C7H3NO2-
134.0247	19	C7H4NO2-
