Mass spectrum: Dimethachlor ESA; LC-ESI-ITFT; MS2; CE: 60%; R=15000; [M+H]+
Name: Dimethachlor ESA
Name: 2-[(2,6-dimethylphenyl)(2-methoxyethyl)amino]-2-oxoethanesulfonic acid
Formula: C13H19NO5S
Exact mass: 301.0984
SMILES: CC1=C(N(C(CS(O)(=O)=O)=O)CCOC)C(C)=CC=C1
InChI: InChI=1S/C13H19NO5S/c1-10-5-4-6-11(2)13(10)14(7-8-19-3)12(15)9-20(16,17)18/h4-6H,7-9H2,1-3H3,(H,16,17,18)
Instrument: LTQ Orbitrap XL Thermo Scientific
Instrument type: LC-ESI-ITFT
Ms type: MS2
Ion mode: POSITIVE
Ionization: ESI
Fragmentation mode: HCD
Collision energy: 60 % (nominal)
Resolution: 15000
Column name: XBridge C18 3.5um, 2.1x50mm, Waters
Retention time: 5.9 min
Base peak: 302.1064
Precursor m/z: 302.1057
Precursor type: [M+H]+
m/z	relative intensity	assigned
68.0495	30	C4H6N+
105.0699	12	C8H9+
107.0857	2	C8H11+
117.057	1	C8H7N+
118.0652	2	C8H8N+
119.0856	3	C9H11+
120.0808	4	C8H10N+
121.0886	4	C8H11N+
129.0698	1	C10H9+
130.065	1	C9H8N+
130.0777	7	C10H10+
131.073	11	C9H9N+
131.0857	5	C10H11+
132.0808	836	C9H10N+
133.0885	5	C9H11N+
134.0964	4	C9H12N+
144.0808	9	C10H10N+
145.0886	19	C10H11N+
146.0965	192	C10H12N+
147.1044	411	C10H13N+
148.1121	141	C10H14N+
158.0965	10	C11H12N+
159.1043	36	C11H13N+
160.1121	7	C11H14N+
174.0913	999	C11H12NO+
176.1076	1	C11H14NO+
188.107	3	C12H14NO+
189.1149	17	C12H15NO+
190.1227	4	C12H16NO+
204.1019	16	C12H14NO2+
206.1176	20	C12H16NO2+
252.0689	6	C12H14NO3S+
270.0796	113	C12H16NO4S+
270.098	10	C12H16NO6+
