Mass spectrum: Cefadroxil; LC-ESI-QFT; MS2; CE: 120; R=35000; [M-H]-
Name: Cefadroxil
Name: 7-[[2-azaniumyl-2-(4-hydroxyphenyl)acetyl]amino]-3-methyl-8-oxo-5-thia-1-azabicyclo[4.2.0]oct-2-ene-2-carboxylate
Formula: C16H17N3O5S
Exact mass: 363.08889
SMILES: CC1=C(N2C(C(C2=O)NC(=O)C(C3=CC=C(C=C3)O)N)SC1)C(=O)O
InChI: InChI=1S/C16H17N3O5S/c1-7-6-25-15-11(14(22)19(15)12(7)16(23)24)18-13(21)10(17)8-2-4-9(20)5-3-8/h2-5,10-11,15,20H,6,17H2,1H3,(H,18,21)(H,23,24)
Instrument: Q Exactive Plus Orbitrap Thermo Scientific
Instrument type: LC-ESI-QFT
Ms type: MS2
Ion mode: NEGATIVE
Ionization: ESI
Fragmentation mode: HCD
Collision energy: 120 (nominal)
Resolution: 35000
Column name: XBridge C18 3.5um, 2.1x50mm, Waters
Retention time: 2.3 min
Base peak: 362.0818
Precursor m/z: 362.0816
Precursor type: [M-H]-
m/z	relative intensity	assigned
50.0036	78	C3N-
55.0189	22	C3H3O-
56.9805	132	C2HS-
57.9758	206	CNS-
58.9962	7	C2H3S-
60.9755	120	CHOS-
63.9625	5	O2S-
64.0193	9	C4H2N-
65.0146	49	C3HN2-
65.0398	89	C5H5-
65.9986	40	C3NO-
67.0303	17	C3H3N2-
70.9837	164	C2HNS-
71.9915	30	C2H2NS-
72.9994	48	C2H3NS-
74.0071	22	C2H4NS-
74.9912	7	C2H3OS-
75.0242	6	C6H3-
77.0398	18	C6H5-
81.9759	28	C3NS-
83.0252	7	C3H3N2O-
83.9914	8	C3H2NS-
84.9991	3	C3H3NS-
86.0072	3	C3H4NS-
89.0398	24	C7H5-
90.035	75	C6H4N-
91.019	4	C6H3O-
91.0303	24	C5H3N2-
92.0142	4	C5H2NO-
93.0347	999	C6H5O-
95.0253	8	C4H3N2O-
95.0504	70	C6H7O-
96.9994	39	C4H3NS-
99.9864	7	C3H2NOS-
105.0459	5	C6H5N2-
107.0616	44	C6H7N2-
116.0268	24	C8H4O-
116.0508	7	C8H6N-
117.0348	194	C8H5O-
118.0301	513	C7H4NO-
119.0504	103	C8H7O-
120.0457	300	C7H6NO-
121.0296	5	C7H5O2-
121.0409	5	C6H5N2O-
122.0488	6	C6H6N2O-
123.0454	29	C7H7O2-
124.0225	3	C6H6NS-
131.0376	26	C8H5NO-
132.0219	7	C8H4O2-
133.012	4	C8H5S-
134.0615	8	C8H8NO-
135.0566	26	C7H7N2O-
137.0069	16	C7H5OS-
142.03	15	C9H4NO-
144.0456	35	C9H6NO-
145.0409	3	C8H5N2O-
147.9988	5	C8H4OS-
155.0385	5	C4H11O4S-
161.007	16	C9H5OS-
