Mass spectrum: Dichlofenthion; LC-ESI-QFT; MS2; CE: 30%; R=17500; [M+H]+
Name: Dichlofenthion
Name: (2,4-dichlorophenoxy)-diethoxy-sulfanylidene-lambda5-phosphane
Formula: C10H13Cl2O3PS
Exact mass: 313.9700
SMILES: CCOP(=S)(OCC)OC1=C(C=C(C=C1)Cl)Cl
InChI: InChI=1S/C10H13Cl2O3PS/c1-3-13-16(17,14-4-2)15-10-6-5-8(11)7-9(10)12/h5-7H,3-4H2,1-2H3
Instrument: Exploris 240 Orbitrap Thermo Scientific
Instrument type: LC-ESI-QFT
Ms type: MS2
Ion mode: POSITIVE
Ionization: ESI
Fragmentation mode: HCD
Collision energy: 30 % (nominal)
Resolution: 17500
Column name: XBridge C18 3.5um, 2.1x50mm, Waters
Retention time: 13.510 min
Base peak: 314.9773
Precursor m/z: 314.9773
Precursor type: [M+H]+
m/z	relative intensity	assigned
114.9614	21	H4O3PS+
176.9333	4	C6H3Cl2S+
222.9383	30	C7H5Cl2O2S+
240.9039	7	C6H4Cl2O2PS+
258.9146	999	C6H6Cl2O3PS+
286.9461	79	C8H10Cl2O3PS+
314.9761	8	C10H14Cl2O3PS+
