Mass spectrum: Picolinafen; LC-ESI-QFT; MS2; CE: 30; R=35000; [M+H]+
Name: Picolinafen
Name: N-(4-fluorophenyl)-6-[3-(trifluoromethyl)phenoxy]pyridine-2-carboxamide
Formula: C19H12F4N2O2
Exact mass: 376.08349
SMILES: C1=CC(=CC(=C1)OC2=CC=CC(=N2)C(=O)NC3=CC=C(C=C3)F)C(F)(F)F
InChI: InChI=1S/C19H12F4N2O2/c20-13-7-9-14(10-8-13)24-18(26)16-5-2-6-17(25-16)27-15-4-1-3-12(11-15)19(21,22)23/h1-11H,(H,24,26)
Instrument: Q Exactive Plus Orbitrap Thermo Scientific
Instrument type: LC-ESI-QFT
Ms type: MS2
Ion mode: POSITIVE
Ionization: ESI
Fragmentation mode: HCD
Collision energy: 30 (nominal)
Resolution: 35000
Column name: XBridge C18 3.5um, 2.1x50mm, Waters
Retention time: 15.4 min
Base peak: 279.1583
Precursor m/z: 377.0908
Precursor type: [M+H]+
m/z	relative intensity	assigned
57.0696	1	C4H9+
145.0259	2	C7H4F3+
236.0516	32	C12H8F2NO2+
238.0471	28	C15H6F2N+
256.0577	999	C12H9F3NO2+
258.0616	2	C11H9F3N2O2+
266.0419	3	C13H7F3NO2+
270.0731	6	C13H11F3NO2+
284.0527	283	C16H8F2NO2+
289.0768	1	C18H10FN2O+
298.0683	1	C17H10F2NO2+
309.0829	9	C18H11F2N2O+
329.0892	5	C18H12F3N2O+
337.078	57	C19H11F2N2O2+
357.0843	27	C19H12F3N2O2+
359.0799	542	C19H11F4N2O+
377.0905	119	C19H13F4N2O2+
