Mass spectrum: 5-Hydroxy Diclofenac; LC-ESI-QFT; MS2; CE: 120; R=35000; [M+H]+
Name: 5-Hydroxy Diclofenac
Name: 5-hydroxydiclofenac
Name: 2-[2-(2,6-dichloroanilino)-5-hydroxyphenyl]acetic acid
Formula: C14H11Cl2NO3
Exact mass: 311.01160
SMILES: C1=CC(=C(C(=C1)Cl)NC2=C(C=C(C=C2)O)CC(=O)O)Cl
InChI: InChI=1S/C14H11Cl2NO3/c15-10-2-1-3-11(16)14(10)17-12-5-4-9(18)6-8(12)7-13(19)20/h1-6,17-18H,7H2,(H,19,20)
Instrument: Q Exactive Plus Orbitrap Thermo Scientific
Instrument type: LC-ESI-QFT
Ms type: MS2
Ion mode: POSITIVE
Ionization: ESI
Fragmentation mode: HCD
Collision energy: 120 (nominal)
Resolution: 35000
Column name: XBridge C18 3.5um, 2.1x50mm, Waters
Retention time: 10.3 min
Base peak: 312.0187
Precursor m/z: 312.0189
Precursor type: [M+H]+
m/z	relative intensity	assigned
62.015	1	C5H2+
63.0227	5	C5H3+
65.0385	4	C5H5+
72.9839	11	C3H2Cl+
75.0229	2	C6H3+
79.0542	1	C6H7+
81.0335	1	C5H5O+
82.945	5	CHCl2+
87.0228	1	C7H3+
89.0386	5	C7H5+
90.0339	4	C6H4N+
91.0542	3	C7H7+
95.0491	3	C6H7O+
96.984	1	C5H2Cl+
98.9995	4	C5H4Cl+
105.0448	2	C6H5N2+
106.9451	2	C3HCl2+
107.0491	2	C7H7O+
108.984	1	C6H2Cl+
113.0386	11	C9H5+
114.0463	3	C9H6+
115.0542	53	C9H7+
116.0495	8	C8H6N+
116.062	1	C9H8+
120.0443	5	C7H6NO+
123.9951	1	C6H3ClN+
125.0028	8	C6H4ClN+
126.0464	2	C10H6+
127.0416	2	C9H5N+
127.0541	2	C10H7+
128.0495	8	C9H6N+
128.0621	1	C10H8+
129.0574	1	C9H7N+
132.0571	1	C9H8O+
132.9607	13	C5H3Cl2+
138.0464	4	C11H6+
139.0543	419	C11H7+
140.0495	327	C10H6N+
141.0574	8	C10H7N+
141.0697	3	C11H9+
142.0652	2	C10H8N+
143.0493	1	C10H7O+
144.0444	2	C9H6NO+
146.06	2	C9H8NO+
149.0151	2	C9H6Cl+
149.0386	7	C12H5+
150.0467	5	C12H6+
151.0542	3	C12H7+
152.0621	2	C12H8+
154.0652	18	C11H8N+
155.0602	1	C10H7N2+
155.073	2	C11H9N+
162.0105	4	C9H5ClN+
162.0549	1	C9H8NO2+
164.0495	38	C12H6N+
165.0574	39	C12H7N+
166.0652	486	C12H8N+
167.073	999	C12H9N+
168.0444	15	C11H6NO+
168.0565	7	C12H8O+
168.0808	20	C12H10N+
169.0523	1	C11H7NO+
169.0648	14	C12H9O+
170.0597	4	C11H8NO+
171.0551	1	C10H7N2O+
175.0415	5	C13H5N+
176.0494	10	C13H6N+
177.0573	57	C13H7N+
178.0651	17	C13H8N+
179.0608	6	C12H7N2+
179.0729	19	C13H9N+
180.0213	1	C9H7ClNO+
180.0444	4	C12H6NO+
182.0601	4	C12H8NO+
183.0681	8	C12H9NO+
184.0758	7	C12H10NO+
185.0597	10	C12H9O2+
186.055	2	C11H8NO2+
193.0524	140	C13H7NO+
194.0602	273	C13H8NO+
195.0679	679	C13H9NO+
196.0757	22	C13H10NO+
200.0265	3	C12H7ClN+
201.034	102	C12H8ClN+
202.0418	150	C12H9ClN+
204.0557	29	C13H6N3+
212.0263	22	C13H7ClN+
212.07	3	C13H10NO2+
213.0337	3	C13H8ClN+
214.0418	15	C13H9ClN+
226.0863	3	C14H12NO2+
229.0291	12	C13H8ClNO+
230.0369	401	C13H9ClNO+
