Mass spectrum: Sitagliptin; LC-ESI-ITFT; MS2; CE: 60%; R=7500; [M+H]+
Name: Sitagliptin
Name: (3R)-3-amino-1-[3-(trifluoromethyl)-6,8-dihydro-5H-[1,2,4]triazolo[4,3-a]pyrazin-7-yl]-4-(2,4,5-trifluorophenyl)-1-butanone
Formula: C16H15F6N5O
Exact mass: 407.1181
SMILES: Fc1cc(c(F)cc1F)C[C@@H](N)CC(=O)N3Cc2nnc(n2CC3)C(F)(F)F
InChI: InChI=1S/C16H15F6N5O/c17-10-6-12(19)11(18)4-8(10)3-9(23)5-14(28)26-1-2-27-13(7-26)24-25-15(27)16(20,21)22/h4,6,9H,1-3,5,7,23H2/t9-/m1/s1
Instrument: LTQ Orbitrap XL Thermo Scientific
Instrument type: LC-ESI-ITFT
Ms type: MS2
Ion mode: POSITIVE
Ionization: ESI
Fragmentation mode: HCD
Collision energy: 60 % (nominal)
Resolution: 7500
Column name: XBridge C18 3.5um, 2.1x50mm, Waters
Retention time: 5.2 min
Base peak: 408.1261
Precursor m/z: 408.1254
Precursor type: [M+H]+
m/z	relative intensity	assigned
56.0494	56	C3H6N+
127.0353	135	C7H5F2+
134.0402	10	C8H5FN+
137.0319	5	C4H4F3N2+
138.0272	77	C3H3F3N3+
145.026	13	C7H4F3+
150.0271	10	C4H3F3N3+
154.0463	301	C8H6F2N+
165.0377	9	C4H4F3N4+
168.0381	26	C9H6F2O+
171.0415	95	C9H6F3+
174.0526	999	C8H7F3N+
176.0437	11	C6H5F3N3+
193.0695	451	C6H8F3N4+
235.0802	36	C8H10F3N4O+
