Mass spectrum: Terbutylazine-desethyl-2-hydroxy; LC-ESI-ITFT; MS2; CE: 60%; R=15000; [M-H]-
Name: Terbutylazine-desethyl-2-hydroxy
Name: 1,3,5-Triazin-2(1H)-one, 4-amino-6-((1,1-dimethylethyl)amino)-
Name: 2-amino-6-(tert-butylamino)-1H-1,3,5-triazin-4-one
Formula: C7H13N5O
Exact mass: 183.1120
SMILES: Nc1nc(NC(C)(C)C)nc(O)n1
InChI: InChI=1S/C7H13N5O/c1-7(2,3)12-5-9-4(8)10-6(13)11-5/h1-3H3,(H4,8,9,10,11,12,13)
Instrument: LTQ Orbitrap XL Thermo Scientific
Instrument type: LC-ESI-ITFT
Ms type: MS2
Ion mode: NEGATIVE
Ionization: ESI
Fragmentation mode: HCD
Collision energy: 60 % (nominal)
Resolution: 15000
Column name: XBridge C18 3.5um, 2.1x50mm, Waters
Retention time: 2.9 min
Base peak: 182.1053
Precursor m/z: 182.1047
Precursor type: [M-H]-
m/z	relative intensity	assigned
84.0205	69	C2H2N3O-
97.0771	999	C5H9N2-
126.0421	454	C3H4N5O-
139.0988	200	C6H11N4-
