Mass spectrum: Dimethachlor OXA; LC-ESI-ITFT; MS2; CE: 75%; R=15000; [M+H]+
Name: Dimethachlor OXA
Name: 2-[(2,6-dimethylphenyl)(2-methoxyethyl)amino]-2-oxo-acetic acid
Formula: C13H17NO4
Exact mass: 251.1158
SMILES: Cc1cccc(C)c1N(CCOC)C(=O)C(O)=O
InChI: InChI=1S/C13H17NO4/c1-9-5-4-6-10(2)11(9)14(7-8-18-3)12(15)13(16)17/h4-6H,7-8H2,1-3H3,(H,16,17)
Instrument: LTQ Orbitrap XL Thermo Scientific
Instrument type: LC-ESI-ITFT
Ms type: MS2
Ion mode: POSITIVE
Ionization: ESI
Fragmentation mode: HCD
Collision energy: 75 % (nominal)
Resolution: 15000
Column name: XBridge C18 3.5um, 2.1x50mm, Waters
Retention time: 6.6 min
Base peak: 252.1226
Precursor m/z: 252.123
Precursor type: [M+H]+
m/z	relative intensity	assigned
77.0386	38	C6H5+
79.0542	140	C6H7+
91.0542	204	C7H7+
93.0698	15	C7H9+
95.0488	3	C6H7O+
103.0543	148	C8H7+
105.0699	972	C8H9+
106.0651	7	C7H8N+
106.0777	122	C8H10+
107.073	11	C7H9N+
107.0855	127	C8H11+
115.0542	11	C9H7+
116.0621	16	C9H8+
117.0573	404	C8H7N+
118.0651	369	C8H8N+
119.0491	3	C8H7O+
119.0603	25	C7H7N2+
119.0856	45	C9H11+
120.0808	116	C8H10N+
121.0648	19	C8H9O+
121.0887	12	C8H11N+
129.07	12	C10H9+
130.0652	138	C9H8N+
131.073	484	C9H9N+
132.0808	999	C9H10N+
133.0523	31	C8H7NO+
133.076	22	C8H9N2+
133.0885	296	C9H11N+
134.0964	11	C9H12N+
143.0728	15	C10H9N+
146.06	9	C9H8NO+
146.0964	141	C10H12N+
148.0757	43	C9H10NO+
148.112	485	C10H14N+
149.0597	10	C9H9O2+
158.0965	7	C11H12N+
174.0908	8	C11H12NO+
176.107	22	C11H14NO+
220.0968	69	C12H14NO3+
