Mass spectrum: Mebendazole; LC-ESI-QFT; MS2; CE: 75; R=35000; [M+H]+
Name: Mebendazole
Name: methyl N-(6-benzoyl-1H-benzimidazol-2-yl)carbamate
Formula: C16H13N3O3
Exact mass: 295.09569
SMILES: COC(=O)NC1=NC2=C(N1)C=C(C=C2)C(=O)C3=CC=CC=C3
InChI: InChI=1S/C16H13N3O3/c1-22-16(21)19-15-17-12-8-7-11(9-13(12)18-15)14(20)10-5-3-2-4-6-10/h2-9H,1H3,(H2,17,18,19,21)
Instrument: Q Exactive Plus Orbitrap Thermo Scientific
Instrument type: LC-ESI-QFT
Ms type: MS2
Ion mode: POSITIVE
Ionization: ESI
Fragmentation mode: HCD
Collision energy: 75 (nominal)
Resolution: 35000
Column name: XBridge C18 3.5um, 2.1x50mm, Waters
Retention time: 7.6 min
Base peak: 296.1024
Precursor m/z: 296.103
Precursor type: [M+H]+
m/z	relative intensity	assigned
50.0151	6	C4H2+
51.0228	6	C4H3+
53.0386	99	C4H5+
55.0179	6	C3H3O+
77.0386	184	C6H5+
81.0335	10	C5H5O+
94.0413	4	C6H6O+
95.0492	281	C6H7O+
104.0369	1	C6H4N2+
105.0336	999	C7H5O+
105.0447	191	C6H5N2+
106.0417	1	C7H6O+
109.0648	1	C7H9O+
130.0401	18	C7H4N3+
131.0241	4	C7H3N2O+
131.0479	6	C7H5N3+
132.0558	3	C7H6N3+
139.0544	1	C11H7+
150.0663	2	C7H8N3O+
156.0809	1	C11H10N+
158.0351	2	C8H4N3O+
159.0428	38	C8H5N3O+
160.0507	19	C8H6N3O+
166.0653	20	C12H8N+
167.0732	4	C12H9N+
176.0455	4	C8H6N3O2+
181.0761	5	C12H9N2+
186.03	54	C9H4N3O2+
186.0412	49	C8H4N5O+
191.0327	13	C8H5N3O3+
191.0602	2	C13H7N2+
193.0762	1	C13H9N2+
194.0604	1	C13H8NO+
195.0679	1	C13H9NO+
208.0871	16	C13H10N3+
209.0715	1	C13H9N2O+
218.0716	1	C14H8N3+
219.079	1	C14H9N3+
235.0744	1	C14H9N3O+
236.082	9	C14H10N3O+
246.0667	5	C15H8N3O+
264.077	303	C15H10N3O2+
