Mass spectrum: Phenylbutazone; LC-ESI-QFT; MS2; CE: 150; R=35000; [M+H]+
Name: Phenylbutazone
Name: 4-butyl-1,2-diphenylpyrazolidine-3,5-dione
Formula: C19H20N2O2
Exact mass: 308.15248
SMILES: CCCCC1C(=O)N(N(C1=O)C2=CC=CC=C2)C3=CC=CC=C3
InChI: InChI=1S/C19H20N2O2/c1-2-3-14-17-18(22)20(15-10-6-4-7-11-15)21(19(17)23)16-12-8-5-9-13-16/h4-13,17H,2-3,14H2,1H3
Instrument: Q Exactive Plus Orbitrap Thermo Scientific
Instrument type: LC-ESI-QFT
Ms type: MS2
Ion mode: POSITIVE
Ionization: ESI
Fragmentation mode: HCD
Collision energy: 150 (nominal)
Resolution: 35000
Column name: XBridge C18 3.5um, 2.1x50mm, Waters
Retention time: 11.3 min
Base peak: 309.1591
Precursor m/z: 309.1598
Precursor type: [M+H]+
m/z	relative intensity	assigned
50.0152	417	C4H2+
51.023	604	C4H3+
52.0182	6	C3H2N+
52.0308	5	C4H4+
53.0022	66	C3HO+
53.0386	259	C4H5+
53.9975	19	C2NO+
54.0101	2	C3H2O+
54.0339	10	C3H4N+
54.0465	2	C4H6+
55.0179	98	C3H3O+
55.0542	18	C4H7+
62.0151	6	C5H2+
63.023	65	C5H3+
64.0308	28	C5H4+
65.0386	999	C5H5+
66.0464	119	C5H6+
67.0417	7	C4H5N+
67.0543	20	C5H7+
67.9893	21	C3O2+
68.0131	13	C3H2NO+
68.0495	5	C4H6N+
68.9971	8	C3HO2+
74.0151	2	C6H2+
75.0229	29	C6H3+
76.0182	1	C5H2N+
76.0307	2	C6H4+
77.0386	717	C6H5+
78.0088	5	C3N3+
78.0338	31	C5H4N+
78.0464	54	C6H6+
79.0417	10	C5H5N+
79.0542	37	C6H7+
80.0257	1	C5H4O+
80.0495	13	C5H6N+
81.0335	31	C5H5O+
89.0386	64	C7H5+
90.034	2	C6H4N+
90.0465	21	C7H6+
91.0418	12	C6H5N+
91.0543	150	C7H7+
92.0258	8	C6H4O+
92.0495	97	C6H6N+
93.0336	6	C6H5O+
93.0574	99	C6H7N+
94.0414	32	C6H6O+
94.0652	41	C6H8N+
95.0492	731	C6H7O+
96.0444	16	C5H6NO+
96.0809	1	C6H10N+
101.0387	3	C8H5+
102.0339	6	C7H4N+
102.0465	6	C8H6+
103.0543	22	C8H7+
104.0495	82	C7H6N+
105.0448	552	C6H5N2+
106.0288	3	C6H4NO+
106.0526	3	C6H6N2+
106.0652	22	C7H8N+
109.065	2	C7H9O+
111.0441	1	C6H7O2+
113.0386	6	C9H5+
115.0542	39	C9H7+
116.0496	7	C8H6N+
117.0573	45	C8H7N+
118.0652	71	C8H8N+
119.0493	1	C8H7O+
120.0444	1	C7H6NO+
127.0544	1	C10H7+
128.0495	13	C9H6N+
128.062	9	C10H8+
129.0448	12	C8H5N2+
130.0401	12	C7H4N3+
130.0653	43	C9H8N+
131.0604	2	C8H7N2+
132.0445	2	C8H6NO+
133.0524	5	C8H7NO+
139.0543	22	C11H7+
140.0496	17	C10H6N+
143.0733	1	C10H9N+
144.0809	5	C10H10N+
145.0648	1	C10H9O+
146.0604	3	C9H8NO+
152.0623	6	C12H8+
154.0651	8	C11H8N+
155.0604	7	C10H7N2+
164.0498	1	C12H6N+
166.0652	15	C12H8N+
167.073	19	C12H9N+
168.0813	1	C12H10N+
179.0601	1	C12H7N2+
181.0761	53	C12H9N2+
205.0759	6	C14H9N2+
206.0835	1	C14H10N2+
