Mass spectrum: Reserpine; LC-ESI-ITFT; MS2; CE: 45%; R=7500; [M+H]+
Name: Reserpine
Name: (1S,2R,3R,4aS,13bR,14aS)-2,11-dimethoxy-3-(3,4,5-trimethoxybenzoyl)oxy-1,2,3,4,4a,5,7,8,13,13b,14,14a-dodecahydroisoquinolino[3,2-a]$b-carboline-1-carboxylic acid methyl ester
Formula: C33H40N2O9
Exact mass: 608.2734
SMILES: CO[C@H]1[C@@H](C[C@@H]2CN3CCC4=C([C@H]3C[C@@H]2[C@@H]1C(=O)OC)NC5=C4C=CC(=C5)OC)OC(=O)C6=CC(=C(C(=C6)OC)OC)OC
InChI: InChI=1S/C33H40N2O9/c1-38-19-7-8-20-21-9-10-35-16-18-13-27(44-32(36)17-11-25(39-2)30(41-4)26(12-17)40-3)31(42-5)28(33(37)43-6)22(18)15-24(35)29(21)34-23(20)14-19/h7-8,11-12,14,18,22,24,27-28,31,34H,9-10,13,15-16H2,1-6H3/t18-,22+,24-,27-,28+,31+/m1/s1
Instrument: LTQ Orbitrap XL Thermo Scientific
Instrument type: LC-ESI-ITFT
Ms type: MS2
Ion mode: POSITIVE
Ionization: ESI
Fragmentation mode: HCD
Collision energy: 45 % (nominal)
Resolution: 7500
Column name: XBridge C18 3.5um, 2.1x50mm, Waters
Retention time: 8.3 min
Base peak: 609.2812
Precursor m/z: 609.2807
Precursor type: [M+H]+
m/z	relative intensity	assigned
70.0651	2	C4H8N+
71.049	2	C4H7O+
79.0544	2	C6H7+
91.0541	4	C7H7+
93.07	2	C7H9+
94.0651	8	C6H8N+
97.0647	2	C6H9O+
103.0538	1	C8H7+
105.0701	1	C8H9+
106.0654	4	C7H8N+
108.0805	1	C7H10N+
109.0648	7	C7H9O+
111.0441	12	C6H7O2+
117.0701	3	C9H9+
118.0656	3	C8H8N+
120.081	7	C8H10N+
121.0652	2	C8H9O+
122.0359	2	C7H6O2+
123.0804	5	C8H11O+
124.0521	4	C7H8O2+
129.0697	2	C10H9+
131.0728	4	C9H9N+
131.0854	5	C10H11+
132.0808	11	C9H10N+
135.0444	2	C8H7O2+
136.076	1	C8H10NO+
137.0595	3	C8H9O2+
139.0754	16	C8H11O2+
143.0734	4	C10H9N+
144.0808	11	C10H10N+
145.0885	2	C10H11N+
147.0803	8	C10H11O+
148.0759	18	C9H10NO+
149.0597	6	C9H9O2+
152.0466	15	C8H8O3+
159.0678	18	C10H9NO+
160.0756	38	C10H10NO+
161.0835	13	C10H11NO+
162.0914	13	C10H12NO+
164.1069	3	C10H14NO+
167.0703	11	C9H11O3+
172.0754	9	C11H10NO+
173.084	4	C11H11NO+
174.0915	798	C11H12NO+
175.0752	8	C11H11O2+
176.1071	7	C11H14NO+
178.0863	4	C10H12NO2+
179.0699	3	C10H11O3+
181.0861	2	C10H13O3+
184.0755	2	C12H10NO+
186.0911	16	C12H12NO+
187.0994	5	C12H13NO+
188.1071	30	C12H14NO+
189.1021	1	C11H13N2O+
190.0863	9	C11H12NO2+
192.102	70	C11H14NO2+
195.0653	999	C10H11O4+
198.0911	7	C13H12NO+
200.1069	43	C13H14NO+
201.1017	6	C12H13N2O+
204.1019	23	C12H14NO2+
206.1182	3	C12H16NO2+
207.101	3	C12H15O3+
210.092	5	C14H12NO+
210.1147	2	C14H14N2+
211.0988	2	C14H13NO+
212.1069	10	C14H14NO+
214.1104	10	C13H14N2O+
215.1178	13	C13H15N2O+
222.1129	5	C12H16NO3+
224.1065	6	C15H14NO+
224.1283	31	C12H18NO3+
226.1225	6	C15H16NO+
227.1176	12	C14H15N2O+
228.1257	3	C14H16N2O+
229.1339	2	C14H17N2O+
236.1051	5	C13H16O4+
236.1281	92	C13H18NO3+
238.1227	16	C16H16NO+
248.1066	3	C17H14NO+
250.1226	7	C17H16NO+
251.1178	6	C16H15N2O+
252.1372	4	C17H18NO+
253.1339	11	C16H17N2O+
254.1383	2	C13H20NO4+
261.1155	4	C18H15NO+
262.1225	10	C18H16NO+
265.1332	10	C17H17N2O+
266.1405	5	C17H18N2O+
273.1151	2	C19H15NO+
274.1236	4	C19H16NO+
275.1314	2	C19H17NO+
276.1384	20	C19H18NO+
277.146	4	C19H19NO+
288.1385	12	C20H18NO+
289.1106	1	C19H15NO2+
289.1451	6	C20H19NO+
290.1172	5	C19H16NO2+
291.1476	3	C16H21NO4+
294.1476	2	C19H20NO2+
296.1281	3	C18H18NO3+
304.1329	14	C20H18NO2+
305.1637	8	C20H21N2O+
308.1647	3	C20H22NO2+
316.1332	3	C21H18NO2+
322.144	9	C20H20NO3+
333.1591	7	C21H21N2O2+
336.1595	36	C21H22NO3+
337.19	5	C21H25N2O2+
348.159	13	C22H22NO3+
350.1622	6	C21H22N2O3+
354.1708	3	C21H24NO4+
365.1856	84	C22H25N2O3+
368.1851	9	C22H26NO4+
380.184	2	C23H26NO4+
381.1817	2	C22H25N2O4+
382.1877	3	C22H26N2O4+
396.1982	3	C15H30N3O9+
397.2127	71	C23H29N2O4+
413.2077	2	C23H29N2O5+
