Mass spectrum: Cetirizine N-Oxide; LC-ESI-QFT; MS2; CE: 180; R=35000; [M+H]+
Name: Cetirizine N-Oxide
Name: (R)-Cetirizine N-Oxide
Name: 2-[2-[4-[(4-chlorophenyl)-phenylmethyl]-1-oxidopiperazin-1-ium-1-yl]ethoxy]acetic acid
Formula: C21H25ClN2O4
Exact mass: 404.15028
SMILES: C1C[N+](CCN1C(C2=CC=CC=C2)C3=CC=C(C=C3)Cl)(CCOCC(=O)O)[O-]
InChI: InChI=1S/C21H25ClN2O4/c22-19-8-6-18(7-9-19)21(17-4-2-1-3-5-17)23-10-12-24(27,13-11-23)14-15-28-16-20(25)26/h1-9,21H,10-16H2,(H,25,26)
Instrument: Q Exactive Plus Orbitrap Thermo Scientific
Instrument type: LC-ESI-QFT
Ms type: MS2
Ion mode: POSITIVE
Ionization: ESI
Fragmentation mode: HCD
Collision energy: 180 (nominal)
Resolution: 35000
Column name: XBridge C18 3.5um, 2.1x50mm, Waters
Retention time: 9.4 min
Base peak: 405.1573
Precursor m/z: 405.1576
Precursor type: [M+H]+
m/z	relative intensity	assigned
50.0151	8	C4H2+
51.0229	6	C4H3+
53.0022	4	C3HO+
53.0386	5	C4H5+
54.0338	2	C3H4N+
55.0417	1	C3H5N+
56.0495	21	C3H6N+
58.0651	5	C3H8N+
62.0151	24	C5H2+
63.0229	109	C5H3+
64.0307	2	C5H4+
65.0386	59	C5H5+
66.0464	2	C5H6+
68.0495	4	C4H6N+
70.0287	9	C3H4NO+
70.0651	3	C4H8N+
72.9839	45	C3H2Cl+
74.015	15	C6H2+
75.0229	30	C6H3+
76.0307	7	C6H4+
77.0385	8	C6H5+
78.0464	5	C6H6+
83.0604	7	C4H7N2+
84.0444	2	C4H6NO+
86.0151	14	C7H2+
87.0229	31	C7H3+
88.0307	10	C7H4+
89.0386	147	C7H5+
90.0464	11	C7H6+
91.0542	29	C7H7+
95.0491	20	C6H7O+
98.0151	4	C8H2+
98.9996	23	C5H4Cl+
100.0308	2	C8H4+
101.0386	2	C8H5+
102.0464	13	C8H6+
103.0543	5	C8H7+
105.0448	9	C6H5N2+
113.0386	45	C9H5+
114.0464	12	C9H6+
115.0542	430	C9H7+
116.0495	3	C8H6N+
117.0573	1	C8H7N+
118.0412	2	C8H6O+
122.9995	4	C7H4Cl+
125.0152	3	C7H6Cl+
126.0465	23	C10H6+
127.0543	1	C10H7+
128.062	2	C10H8+
129.0448	4	C8H5N2+
132.057	6	C9H8O+
136.0076	3	C8H5Cl+
137.0386	11	C11H5+
138.0464	13	C11H6+
139.0542	379	C11H7+
140.0621	9	C11H8+
149.0153	8	C9H6Cl+
150.0464	14	C12H6+
151.0543	1	C12H7+
152.0619	12	C12H8+
155.0604	2	C10H7N2+
162.0464	15	C13H6+
163.0543	491	C13H7+
164.0621	311	C13H8+
165.0699	999	C13H9+
167.0489	1	C12H7O+
168.057	161	C12H8O+
169.0649	8	C12H9O+
176.0622	7	C14H8+
177.07	1	C14H9+
178.0777	3	C14H10+
179.0607	2	C12H7N2+
196.0519	71	C13H8O2+
199.0313	1	C13H8Cl+
