Mass spectrum: Nodularin; LC-ESI-QFT; MS2; CE: 60; R=35000; [M-H]-
Name: Nodularin
Name: (2Z,5R,6S,9S,12S,13S,16R)-9-[3-(diaminomethylideneamino)propyl]-2-ethylidene-12-[(1E,3E,5S,6S)-6-methoxy-3,5-dimethyl-7-phenylhepta-1,3-dienyl]-1,6,13-trimethyl-3,7,10,14,19-pentaoxo-1,4,8,11,15-pentazacyclononadecane-5,16-dicarboxylic acid
Formula: C41H60N8O10
Exact mass: 824.44324
SMILES: NC(=N)NCCC[C@@H]2NC(=O)[C@@H](C)[C@@H](NC(=O)C(=C\C)\N(C)C(=O)CC[C@@H](NC(=O)[C@@H](C)[C@H](/C=C/C(/C)=C/[C@H](C)[C@H](Cc1ccccc1)OC)NC2=O)C(=O)O)C(O)=O
InChI: InChI=1S/C41H60N8O10/c1-8-31-38(54)48-34(40(57)58)26(5)36(52)46-29(15-12-20-44-41(42)43)37(53)45-28(25(4)35(51)47-30(39(55)56)18-19-33(50)49(31)6)17-16-23(2)21-24(3)32(59-7)22-27-13-10-9-11-14-27/h8-11,13-14,16-17,21,24-26,28-30,32,34H,12,15,18-20,22H2,1-7H3,(H,45,53)(H,46,52)(H,47,51)(H,48,54)(H,55,56)(H,57,58)(H4,42,43,44)/b17-16+,23-21+,31-8-/t24-,25-,26-,28-,29-,30+,32-,34+/m0/s1
Instrument: Q Exactive Orbitrap Thermo Scientific
Instrument type: LC-ESI-QFT
Ms type: MS2
Ion mode: NEGATIVE
Ionization: ESI
Fragmentation mode: HCD
Collision energy: 60 (nominal)
Resolution: 35000
Column name: XBridge C18 3.5um, 2.1x50mm, Waters
Retention time: 9.7 min
Base peak: 823.4366
Precursor m/z: 823.436
Precursor type: [M-H]-
m/z	relative intensity	assigned
58.0298	109	C2H4NO-
58.041	45	CH4N3-
65.9985	7	C3NO-
66.0349	104	C4H4N-
67.019	26	C4H3O-
67.0302	47	C3H3N2-
68.0142	4	C3H2NO-
68.0506	11	C4H6N-
69.0346	6	C4H5O-
70.0298	21	C3H4NO-
70.0663	8	C4H8N-
71.0503	20	C4H7O-
72.0092	31	C2H2NO2-
72.0455	343	C3H6NO-
73.0295	99	C3H5O2-
74.0247	287	C2H4NO2-
80.0507	27	C5H6N-
81.022	10	C4H3NO-
81.0459	23	C4H5N2-
82.0299	268	C4H4NO-
83.0614	52	C4H7N2-
84.0455	519	C4H6NO-
85.0294	12	C4H5O2-
85.0659	24	C5H9O-
86.0612	26	C4H8NO-
91.0553	23	C7H7-
94.0298	25	C5H4NO-
95.0251	30	C4H3N2O-
95.0377	28	C5H5NO-
95.0615	7	C5H7N2-
96.0091	6	C4H2NO2-
96.0329	15	C4H4N2O-
96.0455	86	C5H6NO-
96.0821	6	C6H10N-
98.0247	20	C4H4NO2-
98.0611	53	C5H8NO-
99.0563	6	C4H7N2O-
100.0041	8	C3H2NO3-
100.0404	4	C4H6NO2-
101.0719	22	C4H9N2O-
102.056	33	C4H8NO2-
106.0663	10	C7H8N-
107.0376	8	C6H5NO-
107.0502	5	C7H7O-
108.0327	5	C5H4N2O-
108.0456	45	C6H6NO-
108.0818	33	C7H10N-
109.0169	10	C5H3NO2-
109.0408	56	C5H5N2O-
110.0248	949	C5H4NO2-
110.0611	58	C6H8NO-
111.0326	27	C5H5NO2-
111.0565	44	C5H7N2O-
112.0404	348	C5H6NO2-
112.0769	85	C6H10NO-
113.0721	564	C5H9N2O-
114.056	21	C5H8NO2-
120.0819	12	C8H10N-
121.0407	29	C6H5N2O-
121.0531	31	C7H7NO-
122.0486	139	C6H6N2O-
122.0611	38	C7H8NO-
122.0975	76	C8H12N-
123.0326	107	C6H5NO2-
123.0564	25	C6H7N2O-
124.0279	9	C5H4N2O2-
124.0403	32	C6H6NO2-
124.0767	31	C7H10NO-
125.0719	8	C6H9N2O-
126.0563	6	C6H8NO2-
127.0513	95	C5H7N2O2-
128.0354	999	C5H6NO3-
130.0513	5	C5H8NO3-
130.0985	79	C5H12N3O-
131.0867	65	C10H11-
135.0565	38	C7H7N2O-
136.0403	25	C7H6NO2-
136.0516	6	C6H6N3O-
136.0767	40	C8H10NO-
137.072	224	C7H9N2O-
138.056	196	C7H8NO2-
138.0672	31	C6H8N3O-
139.0514	95	C6H7N2O2-
139.0875	19	C7H11N2O-
140.0715	32	C7H10NO2-
140.0828	11	C6H10N3O-
141.0664	6	C6H9N2O2-
141.1033	8	C7H13N2O-
147.0565	6	C8H7N2O-
148.0403	7	C8H6NO2-
148.0638	6	C8H8N2O-
149.0482	12	C8H7NO2-
149.0718	27	C8H9N2O-
150.0559	11	C8H8NO2-
150.0927	5	C9H12NO-
151.0874	42	C8H11N2O-
152.0714	19	C8H10NO2-
152.0829	6	C7H10N3O-
153.1032	59	C8H13N2O-
154.0984	36	C7H12N3O-
155.0826	6	C7H11N2O2-
155.1186	5	C8H15N2O-
156.0777	8	C6H10N3O2-
162.0555	5	C9H8NO2-
163.0874	21	C9H11N2O-
164.0716	32	C9H10NO2-
166.0745	8	C8H10N2O2-
168.114	54	C8H14N3O-
169.098	7	C8H13N2O2-
180.1142	64	C9H14N3O-
181.0982	87	C9H13N2O2-
198.125	5	C9H16N3O2-
