Mass spectrum: Fipronil-sulfide; LC-ESI-ITFT; MS2; CE: 75%; R=7500; [M+H]+
Name: Fipronil-sulfide
Name: 5-Amino-1-[2,6-dichloro-4-(trifluoromethyl)phenyl]-4-[(trifluoromethyl)sulfanyl]-1H-pyrazole-3-carbonitrile
Formula: C12H4Cl2F6N4S
Exact mass: 419.9438
SMILES: FC(F)(F)c2cc(Cl)c(n1nc(C#N)c(SC(F)(F)F)c1N)c(Cl)c2
InChI: InChI=1S/C12H4Cl2F6N4S/c13-5-1-4(11(15,16)17)2-6(14)8(5)24-10(22)9(7(3-21)23-24)25-12(18,19)20/h1-2H,22H2
Instrument: LTQ Orbitrap XL Thermo Scientific
Instrument type: LC-ESI-ITFT
Ms type: MS2
Ion mode: POSITIVE
Ionization: ESI
Fragmentation mode: HCD
Collision energy: 75 % (nominal)
Resolution: 7500
Column name: XBridge C18 3.5um, 2.1x50mm, Waters
Retention time: 13.0 min
Base peak: 442.9332
Precursor m/z: 420.9511
Precursor type: [M+H]+
m/z	relative intensity	assigned
71.9902	12	C2H2NS+
87.0013	19	C2H3N2S+
97.9932	219	C3H2N2S+
165.9797	12	C6H2ClF3+
191.9821	33	C7H2ClF3N+
200.9475	45	CHCl2F4N3+
201.9933	64	C8H3F3NS+
207.9525	20	C2HCl2F3N4+
212.9475	68	C2HCl2F4N3+
213.9563	29	C7H3Cl2F3+
221.0095	48	C8H5ClF3N2+
227.9587	174	C2H2Cl2F4N4+
228.9666	88	C2H3Cl2F4N4+
230.992	37	C9H3ClF3N2+
233.0085	48	C9H5ClF3N2+
237.9697	999	C3H3ClF4N4S+
238.9503	70	C3HCl2F4N4+
239.959	37	C8H3Cl2F3N+
246.0037	119	C9H4ClF3N3+
247.9539	168	C4HClF4N4S+
250.046	70	C11H5F3N4+
251.9731	55	C8H4ClF3N2S+
254.9696	291	C9HF6S+
256.9194	64	C3HCl2F4N3S+
257.9264	34	C3H2Cl2F4N3S+
258.0039	49	C10H4ClF3N3+
262.965	919	C9H3ClF3N2S+
264.9806	600	C9H5ClF3N2S+
273.014	22	C10H5ClF3N4+
274.9648	292	C10H3ClF3N2S+
282.0162	33	C8H5ClF4N5+
282.9224	12	C4HCl2F4N4S+
284.0069	8	C11H4ClF3N4+
285.0139	13	C11H5ClF3N4+
289.9755	184	C10H4ClF3N3S+
316.988	73	C11H5ClF3N4S+
