Mass spectrum: Afidopyropen; LC-ESI-QFT; MS2; CE: 120%; R=17500; [M+H]+
Name: Afidopyropen
Name: [5-(cyclopropanecarbonyloxy)-9,18-dihydroxy-2,6,10-trimethyl-16-oxo-14-pyridin-3-yl-11,15-dioxatetracyclo[8.8.0.02,7.012,17]octadeca-12(17),13-dien-6-yl]methyl cyclopropanecarboxylate
Formula: C33H39NO9
Exact mass: 593.2625
SMILES: CC12CCC(C(C1CC(C3(C2C(C4=C(O3)C=C(OC4=O)C5=CN=CC=C5)O)C)O)(C)COC(=O)C6CC6)OC(=O)C7CC7
InChI: InChI=1S/C33H39NO9/c1-31-11-10-24(42-29(38)18-8-9-18)32(2,16-40-28(37)17-6-7-17)22(31)14-23(35)33(3)27(31)26(36)25-21(43-33)13-20(41-30(25)39)19-5-4-12-34-15-19/h4-5,12-13,15,17-18,22-24,26-27,35-36H,6-11,14,16H2,1-3H3
Instrument: Exploris 240 Orbitrap Thermo Scientific
Instrument type: LC-ESI-QFT
Ms type: MS2
Ion mode: POSITIVE
Ionization: ESI
Fragmentation mode: HCD
Collision energy: 120 % (nominal)
Resolution: 17500
Column name: XBridge C18 3.5um, 2.1x50mm, Waters
Retention time: 8.509 min
Base peak: 594.2694
Precursor m/z: 594.2698
Precursor type: [M+H]+
m/z	relative intensity	assigned
65.0386	520	C5H5+
67.0542	40	C5H7+
68.9971	180	C3HO2+
69.0335	129	C4H5O+
77.0385	162	C6H5+
78.0338	999	C5H4N+
79.0417	220	C5H5N+
79.0541	96	C6H7+
80.0494	940	C5H6N+
91.0542	268	C7H7+
92.0495	508	C6H6N+
93.07	16	C7H9+
95.0492	31	C6H7O+
96.0444	118	C5H6NO+
102.0337	79	C7H4N+
103.0543	40	C8H7+
104.0495	537	C7H6N+
105.07	86	C8H9+
106.0287	200	C6H4NO+
110.0602	47	C6H8NO+
115.0542	211	C9H7+
116.0621	20	C9H8+
117.07	32	C9H9+
118.0653	16	C8H8N+
120.0444	214	C7H6NO+
122.06	80	C7H8NO+
127.0546	14	C10H7+
128.062	185	C10H8+
129.0701	62	C10H9+
130.029	89	C8H4NO+
131.0854	12	C10H11+
134.0599	19	C8H8NO+
141.0697	92	C11H9+
142.0777	17	C11H10+
148.0392	497	C8H6NO2+
153.0699	72	C12H9+
155.0859	29	C12H11+
165.0696	118	C13H9+
166.0775	11	C13H10+
178.0773	50	C14H10+
179.0854	51	C14H11+
