Mass spectrum: Etrimfos; LC-ESI-QFT; MS2; CE: 60%; R=17500; [M+H]+
Name: Etrimfos
Name: (6-ethoxy-2-ethylpyrimidin-4-yl)oxy-dimethoxy-sulfanylidene-lambda5-phosphane
Formula: C10H17N2O4PS
Exact mass: 292.0647
SMILES: CCC1=NC(=CC(=N1)OP(=S)(OC)OC)OCC
InChI: InChI=1S/C10H17N2O4PS/c1-5-8-11-9(15-6-2)7-10(12-8)16-17(18,13-3)14-4/h7H,5-6H2,1-4H3
Instrument: Exploris 240 Orbitrap Thermo Scientific
Instrument type: LC-ESI-QFT
Ms type: MS2
Ion mode: POSITIVE
Ionization: ESI
Fragmentation mode: HCD
Collision energy: 60 % (nominal)
Resolution: 17500
Column name: XBridge C18 3.5um, 2.1x50mm, Waters
Retention time: 10.931 min
Base peak: 293.0719
Precursor m/z: 293.0719
Precursor type: [M+H]+
m/z	relative intensity	assigned
56.0495	154	C3H6N+
62.0186	26	C2H6S+
68.0131	77	C3H2NO+
78.9944	190	CH4O2P+
84.0808	39	C5H10N+
94.0053	12	CH5NO2P+
109.0051	72	C2H6O3P+
110.9666	32	CH4O2PS+
123.0552	60	C6H7N2O+
124.9821	999	C2H6O2PS+
127.0156	116	C2H8O4P+
128.9771	16	CH6O3PS+
134.9671	8	C3H4O2PS+
142.9928	359	C2H8O3PS+
155.0814	25	C7H11N2O2+
157.0086	46	C3H10O3PS+
164.0473	58	C5H11NO3P+
166.9925	7	C4H8O3PS+
233.0153	37	C7H10N2O3PS+
265.0406	36	C8H14N2O4PS+
