Mass spectrum: Enoxacin; LC-ESI-QFT; MS2; CE: 90; R=35000; [M+H]+
Name: Enoxacin
Name: 1-Ethyl-6-fluoro-1,4-dihydro-4-oxo-7-(1-piperazinyl)-1,8-naphthyridine-3-carboxylic acid
Name: 1-ethyl-6-fluoranyl-4-oxidanylidene-7-piperazin-1-yl-1,8-naphthyridine-3-carboxylic acid
Formula: C15H17FN4O3
Exact mass: 320.12847
SMILES: Fc1c(nc2c(c1)C(=O)C(\C(=O)O)=C/N2CC)N3CCNCC3
InChI: InChI=1S/C15H17FN4O3/c1-2-19-8-10(15(22)23)12(21)9-7-11(16)14(18-13(9)19)20-5-3-17-4-6-20/h7-8,17H,2-6H2,1H3,(H,22,23)
Instrument: Q Exactive Orbitrap Thermo Scientific
Instrument type: LC-ESI-QFT
Ms type: MS2
Ion mode: POSITIVE
Ionization: ESI
Fragmentation mode: HCD
Collision energy: 90 (nominal)
Resolution: 35000
Column name: XBridge C18 3.5um, 2.1x50mm, Waters
Retention time: 4.2 min
Base peak: 321.136
Precursor m/z: 321.1357
Precursor type: [M+H]+
m/z	relative intensity	assigned
68.0495	32	C4H6N+
70.0651	145	C4H8N+
71.0605	2	C3H7N2+
83.0605	2	C4H7N2+
84.0683	4	C4H8N2+
99.0354	9	C4H4FN2+
105.0448	14	C6H5N2+
108.0244	26	
110.0402	11	
114.0349	24	C5H5FNO+
117.0447	32	C7H5N2+
122.04	54	C7H5FN+
123.0353	28	C6H4FN2+
125.051	14	C6H6FN2+
128.0507	55	C6H7FNO+
129.0448	90	C8H5N2+
130.0401	11	
131.0604	15	
133.0396	15	C7H5N2O+
135.0353	33	C7H4FN2+
135.0553	58	C7H7N2O+
136.0434	52	C7H5FN2+
136.056	3	C8H7FN+
137.051	71	C7H6FN2+
139.0304	10	C6H4FN2O+
143.0605	7	C9H7N2+
144.0557	11	C8H6N3+
145.0398	23	C8H5N2O+
149.0511	151	C8H6FN2+
150.0464	18	
150.0591	20	C8H7FN2+
151.0303	65	C7H4FN2O+
151.0544	25	
151.0667	19	C8H8FN2+
153.0459	88	C7H6FN2O+
154.041	2	C6H5FN3O+
155.0613	26	C7H8FN2O+
156.0557	203	C9H6N3+
157.0635	17	C9H7N3+
158.0712	21	C9H8N3+
160.0505	4	C8H6N3O+
160.0874	2	C9H10N3+
161.051	13	
162.0589	8	C9H7FN2+
163.0303	46	C8H4FN2O+
163.0546	14	
163.0664	16	C9H8FN2+
164.0381	18	C8H5FN2O+
164.062	25	
165.046	38	C8H6FN2O+
166.0539	4	C8H7FN2O+
166.0777	19	C13H10+
168.0561	11	
170.0714	10	C10H8N3+
171.0667	10	
172.0868	18	C10H10N3+
175.0542	45	
176.062	314	C14H8+
177.0458	48	C9H6FN2O+
177.0697	262	C9H8FN3+
178.0414	65	C13H6O+
178.0536	99	C9H7FN2O+
178.0774	47	C9H9FN3+
179.0253	61	
179.05	27	C10H8FO2+
179.0616	265	C9H8FN2O+
180.0568	148	C8H7FN3O+
181.0411	14	C8H6FN2O2+
182.0717	20	C8H9FN3O+
184.0507	39	C10H6N3O+
184.0871	8	C11H10N3+
185.0587	13	C10H7N3O+
186.0663	122	C10H8N3O+
187.0616	5	C9H7N4O+
188.0619	56	C10H7FN3+
190.0411	17	C9H5FN3O+
190.0776	150	C15H10+
191.0489	8	C9H6FN3O+
191.0615	12	C10H8FN2O+
191.0853	11	C10H10FN3+
192.0568	53	C9H7FN3O+
192.0694	16	C10H9FN2O+
192.0932	4	C10H11FN3+
194.0721	4	C9H9FN3O+
196.0284	3	C8H5FN2O3+
197.0825	8	C11H9N4+
198.0667	2	C11H8N3O+
199.0615	12	C10H7N4O+
199.098	16	C11H11N4+
200.0694	12	C10H8N4O+
200.0816	2	C11H10N3O+
201.0775	2	C10H9N4O+
202.0413	27	C15H6O+
202.0775	17	C11H9FN3+
203.0853	2	C11H10FN3+
204.057	999	C15H8O+
205.0407	10	
205.0648	154	C15H9O+
205.1011	51	C11H12FN3+
206.0362	20	
206.0726	182	C15H10O+
209.0357	33	C9H6FN2O3+
210.0661	13	C12H8N3O+
211.098	4	C12H11N4+
212.0456	19	C11H6N3O2+
212.1059	9	C12H12N4+
213.0771	4	C11H9N4O+
214.0864	2	C8H11FN4O2+
214.0968	2	C12H12N3O+
215.0491	9	C11H6FN3O+
217.0885	8	C11H10FN4+
218.0353	15	
218.0728	9	C11H9FN3O+
218.0963	4	C11H11FN4+
219.0807	3	C11H10FN3O+
220.0882	4	C11H11FN3O+
223.0515	26	C10H8FN2O3+
224.0468	83	C14H8O3+
225.0312	15	
227.093	17	C12H11N4O+
230.0364	4	C11H5FN3O2+
230.056	27	C11H8N3O3+
230.0726	40	C12H9FN3O+
232.0518	395	C11H7FN3O2+
234.1039	10	C12H13FN3O+
236.0468	44	C15H8O3+
245.067	2	C11H9N4O3+
248.0468	10	C11H7FN3O3+
250.0624	719	C11H9FN3O3+
255.0866	3	C13H11N4O2+
258.0675	26	C13H9FN3O2+
259.1358	4	C14H16FN4+
264.078	4	C12H11FN3O3+
273.0978	4	C13H13N4O3+
275.1309	2	C14H16FN4O+
276.078	54	C13H11FN3O3+
293.1044	12	C13H14FN4O3+
321.1359	32	C15H18FN4O3+
