Mass spectrum: Nystatin; LC-ESI-QFT; MS2; CE: 45; R=35000; [M+H]+
Name: Nystatin
Name: (1S,3R,4R,7R,9R,11R,15S,16R,17R,18S,19E,21E,25E,27E,29E,31E,33R,35S,36R,37S)-33-[(3-Amino-3,6-dideoxy-?-D-mannopyranosyl)oxy]-1,3,4,7,9,11,17,37-octahydroxy-15,16,18-trimethyl-13-oxo-14,39-dioxabic yclo[33.3.1]nonatriaconta-19,21,25,27,29,31-hexaene-36-carboxylic acid
Formula: C47H75NO17
Exact mass: 925.50350
SMILES: CC1C=CC=CCCC=CC=CC=CC=CC(CC2C(C(CC(O2)(CC(C(CCC(CC(CC(CC(=O)OC(C(C1O)C)C)O)O)O)O)O)O)O)C(=O)O)OC3C(C(C(C(O3)C)O)N)O
InChI: InChI=1S/C47H75NO17/c1-27-17-15-13-11-9-7-5-6-8-10-12-14-16-18-34(64-46-44(58)41(48)43(57)30(4)63-46)24-38-40(45(59)60)37(54)26-47(61,65-38)25-36(53)35(52)20-19-31(49)21-32(50)22-33(51)23-39(55)62-29(3)28(2)42(27)56/h5-6,8,10-18,27-38,40-44,46,49-54,56-58,61H,7,9,19-26,48H2,1-4H3,(H,59,60)/b6-5+,10-8+,13-11+,14-12+,17-15+,18-16+/t27-,28-,29-,30+,31+,32+,33+,34-,35+,36+,37-,38-,40+,41-,42+,43+,44-,46-,47+/m0/s1
Instrument: Q Exactive Orbitrap Thermo Scientific
Instrument type: LC-ESI-QFT
Ms type: MS2
Ion mode: POSITIVE
Ionization: ESI
Fragmentation mode: HCD
Collision energy: 45 (nominal)
Resolution: 35000
Column name: XBridge C18 3.5um, 2.1x50mm, Waters
Retention time: 11.6 min
Base peak: 926.5109
Precursor m/z: 926.5108
Precursor type: [M+H]+
m/z	relative intensity	assigned
65.0385	61	C5H5+
67.0542	499	C5H7+
69.0334	114	C4H5O+
69.0698	147	C5H9+
71.0127	55	C3H3O2+
71.0491	414	C4H7O+
73.0284	23	C3H5O2+
74.0965	2	C4H12N+
77.0384	52	C6H5+
79.0542	681	C6H7+
81.0335	410	C5H5O+
81.0698	442	C6H9+
83.0491	135	C5H7O+
83.0855	56	C6H11+
84.0443	19	C4H6NO+
85.0284	137	C4H5O2+
85.0648	77	C5H9O+
87.0439	24	C4H7O2+
89.0233	28	C3H5O3+
91.0542	999	C7H7+
93.0698	857	C7H9+
95.0127	97	C5H3O2+
95.0491	659	C6H7O+
95.0854	350	C7H11+
97.0283	187	C5H5O2+
97.0647	124	C6H9O+
97.1011	23	C7H13+
99.044	381	C5H7O2+
100.0474	11	H8N2O4+
101.0233	16	C4H5O3+
101.0597	33	C5H9O2+
103.0542	91	C8H7+
105.0698	968	C8H9+
106.0732	38	C3H10N2O2+
107.0491	333	C7H7O+
107.0855	694	C8H11+
108.0888	23	C3H12N2O2+
109.0284	63	
109.0647	166	C7H9O+
109.1011	254	C8H13+
110.1045	4	C3H14N2O2+
111.044	145	C6H7O2+
111.0804	67	C7H11O+
113.0233	32	C5H5O3+
113.0596	150	C6H9O2+
113.096	14	C7H13O+
115.0389	27	C5H7O3+
115.0541	134	C9H7+
116.062	28	C9H8+
117.0698	640	C9H9+
118.0731	21	C4H10N2O2+
119.0491	112	C8H7O+
119.0854	569	C9H11+
120.0888	19	C4H12N2O2+
121.0283	58	C7H5O2+
121.0647	276	C8H9O+
121.1011	221	C9H13+
122.0681	12	C3H10N2O3+
122.1044	10	C4H14N2O2+
123.0439	486	C7H7O2+
123.0803	139	C8H11O+
123.1167	68	C9H15+
125.0232	36	C6H5O3+
125.0596	55	C7H9O2+
125.096	70	C8H13O+
127.039	44	C6H7O3+
127.0754	4	C7H11O2+
128.0619	144	C10H8+
129.0546	34	C6H9O3+
129.0698	655	C10H9+
130.0731	25	C5H10N2O2+
130.0778	52	C10H10+
131.0491	139	C9H7O+
131.0855	581	C10H11+
132.057	5	C9H8O+
132.0888	22	C5H12N2O2+
132.0934	10	C10H12+
133.0647	399	C9H9O+
133.1011	255	C10H13+
134.0681	16	C4H10N2O3+
134.0726	4	C9H10O+
134.1044	13	C5H14N2O2+
135.0439	102	C8H7O2+
135.0804	177	C9H11O+
135.1168	204	C10H15+
136.0839	10	C4H12N2O3+
137.0597	148	C8H9O2+
137.096	57	C9H13O+
139.0389	59	C7H7O3+
139.0753	90	C8H11O2+
139.1118	6	C9H15O+
141.0546	70	C7H9O3+
141.0698	243	C11H9+
142.0731	7	C6H10N2O2+
142.0779	61	C11H10+
143.0856	456	C11H11+
144.0568	11	C10H8O+
144.0936	22	C11H12+
145.0648	223	C10H9O+
145.1012	356	C11H13+
146.0679	4	C5H10N2O3+
146.073	4	C10H10O+
146.0812	4	C6H12NO3+
146.1046	17	C6H14N2O2+
146.1095	4	C11H14+
147.044	131	C9H7O2+
147.0804	321	C10H11O+
147.1168	105	C11H15+
148.084	13	C5H12N2O3+
148.1202	5	C6H16N2O2+
149.0231	19	C8H5O3+
149.0597	166	C9H9O2+
149.0961	60	C10H13O+
149.1325	11	C11H17+
151.039	167	C8H7O3+
151.0753	194	C9H11O2+
151.1117	39	C10H15O+
152.062	17	C12H8+
153.0546	42	C8H9O3+
153.0698	88	C12H9+
153.091	10	C9H13O2+
154.0778	62	C12H10+
155.0704	52	C8H11O3+
155.0855	371	C12H11+
156.0886	16	C7H12N2O2+
156.0941	41	C12H12+
157.0648	161	C11H9O+
157.1012	252	C12H13+
158.0727	11	C11H10O+
158.109	13	C12H14+
159.0441	39	C10H7O2+
159.0804	106	C11H11O+
159.1168	146	C12H15+
161.0596	89	C10H9O2+
161.0961	83	C11H13O+
161.1325	128	C12H17+
162.1357	11	C7H18N2O2+
163.039	29	C9H7O3+
163.0753	121	C10H11O2+
163.1116	38	C11H15O+
165.0547	73	C9H9O3+
165.0698	103	C13H9+
165.0909	88	C10H13O2+
166.0779	65	C13H10+
167.0704	150	C9H11O3+
167.0855	272	C13H11+
168.0572	2	C12H8O+
168.087	2	C5H14NO5+
168.0939	40	C13H12+
169.0648	44	C12H9O+
169.0862	27	C9H13O3+
169.1011	305	C13H13+
171.0439	12	C11H7O2+
171.0804	167	C12H11O+
171.1167	178	C13H15+
173.0597	104	C11H9O2+
173.0961	147	C12H13O+
173.1325	68	C13H17+
174.1	11	C7H14N2O3+
175.039	47	C10H7O3+
175.0753	166	C11H11O2+
175.1115	20	C12H15O+
175.1481	15	C13H19+
176.0787	5	C6H12N2O4+
177.0547	43	C10H9O3+
177.0909	34	C11H13O2+
177.1275	12	C12H17O+
178.0777	35	C14H10+
179.0703	47	C10H11O3+
179.0855	189	C14H11+
180.0938	38	C14H12+
181.0494	16	C9H9O4+
181.0649	35	C13H9O+
181.0862	16	C10H13O3+
181.1012	277	C14H13+
182.0727	18	C13H10O+
182.1091	28	C14H14+
183.0806	115	C13H11O+
183.1169	202	C14H15+
184.089	5	C13H12O+
184.1254	6	C14H16+
185.0597	46	C12H9O2+
185.0817	18	C9H13O4+
185.0962	83	C13H13O+
185.1326	77	C14H17+
186.1356	3	C9H18N2O2+
187.0753	66	C12H11O2+
187.1117	66	C13H15O+
187.1481	32	C14H19+
189.0548	29	C11H9O3+
189.0911	106	C12H13O2+
190.0776	7	C15H10+
190.0946	5	C7H14N2O4+
191.0704	94	C11H11O3+
191.0853	71	C15H11+
191.1066	73	C12H15O2+
192.0938	33	C15H12+
193.0864	94	C11H13O3+
193.1012	163	C15H13+
194.0725	11	C14H10O+
194.0898	5	C6H14N2O5+
194.1096	27	C15H14+
195.0805	87	C14H11O+
195.1169	172	C15H15+
196.088	16	C14H12O+
196.125	12	C15H16+
197.0596	27	C13H9O2+
197.0961	147	C14H13O+
197.1325	100	C15H17+
198.0995	4	C9H14N2O3+
199.0753	105	C13H11O2+
199.1116	57	C14H15O+
199.1481	47	C15H19+
200.1515	2	C10H20N2O2+
201.0545	35	C12H9O3+
201.0909	77	C13H13O2+
201.1276	14	C14H17O+
201.1639	17	C15H21+
202.0776	14	C16H10+
203.0703	41	C12H11O3+
203.0853	44	C16H11+
203.1061	24	C13H15O2+
204.0939	28	C16H12+
205.1012	121	C16H13+
205.1221	6	C13H17O2+
206.1097	25	C16H14+
207.0659	22	C11H11O4+
207.0808	44	C15H11O+
207.1019	45	C12H15O3+
207.1168	154	C16H15+
208.0886	5	C15H12O+
208.1243	16	C16H16+
209.06	12	C14H9O2+
209.081	42	C11H13O4+
209.0961	99	C15H13O+
209.1173	16	C12H17O3+
209.1325	83	C16H17+
210.14	11	C16H18+
211.0754	45	C14H11O2+
211.0967	26	C11H15O4+
211.1117	51	C15H15O+
211.148	47	C16H19+
212.1562	5	C16H20+
213.0911	49	C14H13O2+
213.1275	26	C15H17O+
213.1638	23	C16H21+
214.172	3	C16H22+
215.0703	28	C13H11O3+
215.0853	26	C17H11+
215.1068	78	C14H15O2+
216.0937	28	C17H12+
217.086	62	C13H13O3+
217.1012	76	C17H13+
217.1228	11	C14H17O2+
218.0896	4	C8H14N2O5+
218.1094	35	C17H14+
219.0654	24	C12H11O4+
219.0804	31	C16H11O+
219.1017	47	C13H15O3+
219.117	126	C17H15+
220.0884	16	C16H12O+
220.1248	26	C17H16+
221.0961	76	C16H13O+
221.1325	111	C17H17+
222.1392	15	C17H18+
223.0753	39	C15H11O2+
223.1117	70	C16H15O+
223.1482	55	C17H19+
225.091	85	C15H13O2+
225.1125	10	C12H17O4+
225.1275	40	C16H17O+
225.1635	36	C17H21+
227.0699	21	C14H11O3+
227.1066	36	C15H15O2+
227.143	12	C16H19O+
227.18	4	C17H23+
228.0931	6	C18H12+
229.0867	19	C14H13O3+
229.1002	39	C18H13+
229.1221	5	C15H17O2+
230.1091	25	C18H14+
231.0805	14	C17H11O+
231.102	17	C14H15O3+
231.117	78	C18H15+
232.0885	5	C17H12O+
232.1238	12	C18H16+
233.0808	5	C13H13O4+
233.0964	45	C17H13O+
233.1174	66	C14H17O3+
233.1324	79	C18H17+
234.1037	14	C17H14O+
235.0757	15	C16H11O2+
235.0968	21	C13H15O4+
235.1118	65	C17H15O+
235.1325	6	C14H19O3+
235.1482	54	C18H19+
237.0911	39	C16H13O2+
237.1126	13	C13H17O4+
237.1275	45	C17H17O+
237.1638	35	C18H21+
239.0709	6	C15H11O3+
239.0852	3	C19H11+
239.1066	63	C16H15O2+
239.1431	15	C17H19O+
239.18	15	C18H23+
240.1115	3	C11H16N2O4+
241.0863	29	C15H13O3+
241.1011	25	C19H13+
241.1223	21	C16H17O2+
241.1592	4	C17H21O+
242.1091	19	C19H14+
243.102	59	C15H15O3+
243.117	55	C19H15+
243.1381	4	C16H19O2+
244.1063	3	C10H16N2O5+
244.1248	23	C19H16+
245.0962	22	C18H13O+
245.1187	6	C18H15N+
245.1323	75	C19H17+
246.1038	13	C18H14O+
247.0973	7	C14H15O4+
247.1121	48	C18H15O+
247.1479	41	C19H19+
248.1195	5	C18H16O+
248.1556	13	C19H20+
249.091	35	C17H13O2+
249.1272	35	C18H17O+
249.164	33	C19H21+
250.1356	2	C18H18O+
251.1068	41	C17H15O2+
251.1282	3	C14H19O4+
251.1432	24	C18H19O+
251.1796	19	C19H23+
253.0864	23	C16H13O3+
253.1024	12	C20H13+
253.122	27	C17H17O2+
253.159	11	C18H21O+
254.1087	4	C20H14+
255.1017	15	C16H15O3+
255.1167	34	C20H15+
255.1382	9	C17H19O2+
256.1255	19	C20H16+
257.0808	4	C15H13O4+
257.096	14	C19H13O+
257.1174	21	C16H17O3+
257.1326	51	C20H17+
258.1031	8	C19H14O+
258.1391	15	C20H18+
259.0968	11	C15H15O4+
259.1121	35	C19H15O+
259.1485	31	C20H19+
260.1191	16	C19H16O+
260.1552	5	C20H20+
261.0912	13	C18H13O2+
261.1125	57	C15H17O4+
261.1272	41	C19H17O+
261.1635	24	C20H21+
262.1153	3	C10H18N2O6+
263.1066	34	C18H15O2+
263.1427	20	C19H19O+
263.1793	13	C20H23+
264.1133	3	C18H16O2+
265.0866	8	C17H13O3+
265.1004	3	C21H13+
265.1229	25	C18H17O2+
265.1581	3	C19H21O+
265.1957	3	C20H25+
266.109	3	C21H14+
267.1018	29	C17H15O3+
267.1168	18	C21H15+
267.1386	9	C18H19O2+
268.1245	12	C21H16+
269.0968	4	C20H13O+
269.1172	16	C17H17O3+
269.1327	35	C21H17+
269.1535	2	C18H21O2+
270.1043	4	C20H14O+
270.1405	14	C21H18+
271.0967	17	C16H15O4+
271.112	17	C20H15O+
271.1339	6	C17H19O3+
271.1477	43	C21H19+
272.1189	6	C20H16O+
273.0916	4	C19H13O2+
273.1271	28	C20H17O+
273.1632	24	C21H21+
274.1347	5	C20H18O+
275.1057	22	C19H15O2+
275.1426	25	C20H19O+
275.1798	16	C21H23+
277.1219	29	C19H17O2+
277.1591	11	C20H21O+
277.1956	10	C21H25+
279.1017	10	C18H15O3+
279.1224	40	C15H19O5+
279.1386	22	C19H19O2+
280.1251	9	C22H16+
281.1174	10	C18H17O3+
281.1326	22	C22H17+
281.154	3	C19H21O2+
282.1406	9	C22H18+
283.113	9	C21H15O+
283.1326	11	C18H19O3+
283.1486	33	C22H19+
284.12	3	C21H16O+
285.1123	18	C17H17O4+
285.1277	29	C21H17O+
285.1641	20	C22H21+
287.1069	5	C20H15O2+
287.1286	4	C17H19O4+
287.1433	13	C21H19O+
287.1795	14	C22H23+
289.1081	7	C16H17O5+
289.1225	18	C20H17O2+
289.1591	17	C21H21O+
289.1953	4	C22H25+
291.1021	4	C19H15O3+
291.1377	18	C20H19O2+
291.1744	3	C21H23O+
291.211	3	C22H27+
293.117	8	C19H17O3+
293.133	11	C23H17+
293.1543	4	C20H21O2+
294.1407	4	C23H18+
295.0962	4	C18H15O4+
295.1119	3	C22H15O+
295.1333	10	C19H19O3+
295.1491	14	C23H19+
295.1691	3	C20H23O2+
297.1342	22	C15H21O6+
297.1632	24	C23H21+
298.1353	4	C22H18O+
299.1438	19	C22H19O+
299.1793	5	C23H23+
301.1225	17	C21H17O2+
301.1592	13	C22H21O+
301.1951	4	C23H25+
302.1635	3	C17H22N2O3+
303.1225	5	C17H19O5+
303.1375	19	C21H19O2+
303.1741	11	C22H23O+
305.1175	3	C20H17O3+
305.1544	15	C21H21O2+
305.1895	3	C22H25O+
307.1336	10	C20H19O3+
307.1492	5	C24H19+
307.169	5	C21H23O2+
309.1283	4	C23H17O+
309.1483	9	C20H21O3+
309.1646	5	C24H21+
311.1437	12	C23H19O+
313.1069	5	C18H17O5+
313.1233	3	C22H17O2+
313.142	2	C19H21O4+
313.1591	13	C23H21O+
313.1949	6	C24H25+
315.1383	12	C22H19O2+
315.1749	6	C23H23O+
316.1451	3	C22H20O2+
317.1536	6	C22H21O2+
319.1326	4	C21H19O3+
319.1689	5	C22H23O2+
321.1481	5	C21H21O3+
321.1651	4	C25H21+
323.1799	3	C25H23+
325.1223	2	C23H17O2+
325.16	6	C24H21O+
325.1966	4	C25H25+
327.139	4	C23H19O2+
327.2104	3	C25H27+
329.155	5	C23H21O2+
329.1915	4	C24H25O+
331.1178	12	C18H19O6+
331.1696	10	C23H23O2+
333.1859	5	C23H25O2+
335.163	3	C22H23O3+
339.1587	4	C21H23O4+
339.2112	4	C26H27+
343.1325	4	C23H19O3+
343.2057	3	C25H27O+
345.1866	4	C24H25O2+
347.1636	3	C23H23O3+
349.1279	11	C18H21O7+
369.2225	3	C27H29O+
373.1811	3	C25H25O3+
475.2851	2	C31H39O4+
