Mass spectrum: Indapamide; LC-ESI-QFT; MS2; CE: 60; R=35000; [M+H]+
Name: Indapamide
Name: 4-chloro-N-(2-methyl-2,3-dihydroindol-1-yl)-3-sulfamoylbenzamide
Formula: C16H16ClN3O3S
Exact mass: 365.06009
SMILES: CC1CC2=CC=CC=C2N1NC(=O)C3=CC(=C(C=C3)Cl)S(=O)(=O)N
InChI: InChI=1S/C16H16ClN3O3S/c1-10-8-11-4-2-3-5-14(11)20(10)19-16(21)12-6-7-13(17)15(9-12)24(18,22)23/h2-7,9-10H,8H2,1H3,(H,19,21)(H2,18,22,23)
Instrument: Q Exactive Plus Orbitrap Thermo Scientific
Instrument type: LC-ESI-QFT
Ms type: MS2
Ion mode: POSITIVE
Ionization: ESI
Fragmentation mode: HCD
Collision energy: 60 (nominal)
Resolution: 35000
Column name: XBridge C18 3.5um, 2.1x50mm, Waters
Retention time: 6.7 min
Base peak: 366.0667
Precursor m/z: 366.0674
Precursor type: [M+H]+
m/z	relative intensity	assigned
51.0228	1	C4H3+
63.0227	2	C5H3+
65.0386	60	C5H5+
67.0542	2	C5H7+
77.0385	1	C6H5+
79.0542	2	C6H7+
89.0384	2	C7H5+
90.0339	1	C6H4N+
90.0464	4	C7H6+
91.0542	999	C7H7+
98.9995	5	C5H4Cl+
103.0542	5	C8H7+
105.0699	70	C8H9+
106.0413	13	C7H6O+
106.0651	1	C7H8N+
107.0491	10	C7H7O+
109.0648	65	C7H9O+
115.0543	18	C9H7+
116.0493	1	C8H6N+
117.0573	697	C8H7N+
118.0651	81	C8H8N+
119.0604	76	C7H7N2+
124.052	1	C7H8O2+
126.0105	6	C6H5ClN+
130.0652	18	C9H8N+
131.073	21	C9H9N+
132.0808	830	C9H10N+
133.0762	2	C8H9N2+
133.0886	16	C9H11N+
136.979	4	C7H2ClO+
138.9945	1	C7H4ClO+
142.9897	2	C6H4ClO2+
154.0053	5	C7H5ClNO+
155.0005	1	C6H4ClN2O+
172.0159	1	C7H7ClNO2+
181.9904	1	C7H4NO3S+
200.9409	2	C7H2ClO3S+
217.9676	7	C7H5ClNO3S+
