Mass spectrum: Oryzalin; LC-ESI-QFT; MS2; CE: 30; R=35000; [M-H]-
Name: Oryzalin
Name: 4-(dipropylamino)-3,5-dinitro-benzenesulfonamide
Formula: C12H18N4O6S
Exact mass: 346.09471
SMILES: [O-][N+](=O)c1cc(cc([N+]([O-])=O)c1N(CCC)CCC)S(=O)(=O)N
InChI: InChI=1S/C12H18N4O6S/c1-3-5-14(6-4-2)12-10(15(17)18)7-9(23(13,21)22)8-11(12)16(19)20/h7-8H,3-6H2,1-2H3,(H2,13,21,22)
Instrument: Q Exactive Orbitrap Thermo Scientific
Instrument type: LC-ESI-QFT
Ms type: MS2
Ion mode: NEGATIVE
Ionization: ESI
Fragmentation mode: HCD
Collision energy: 30 (nominal)
Resolution: 35000
Column name: XBridge C18 3.5um, 2.1x50mm, Waters
Retention time: 12.1 min
Base peak: 345.0875
Precursor m/z: 345.0874
Precursor type: [M-H]-
m/z	relative intensity	assigned
61.9706	7	NOS-
63.9624	5	O2S-
65.0145	10	C3HN2-
65.9985	10	C3NO-
67.0302	1	C3H3N2-
73.0295	1	C3H5O2-
77.0146	3	C4HN2-
77.9655	73	NO2S-
78.9733	5	HNO2S-
79.9812	28	H2NO2S-
89.0146	3	C5HN2-
90.0098	1	C4N3-
91.0302	5	C5H3N2-
92.0142	1	C5H2NO-
92.0255	1	C4H2N3-
93.0095	4	C4HN2O-
95.0251	1	C4H3N2O-
96.0091	6	C4H2NO2-
97.0409	1	C4H5N2O-
105.0095	2	C5HN2O-
106.0173	7	C5H2N2O-
107.0251	8	C5H3N2O-
108.0329	13	C5H4N2O-
109.017	1	C5H3NO2-
109.0404	1	C5H5N2O-
116.0256	15	C6H2N3-
117.0096	1	C6HN2O-
118.0412	6	C6H4N3-
119.0252	15	C6H3N2O-
120.0204	1	C5H2N3O-
120.0569	5	C6H6N3-
121.0282	1	C5H3N3O-
121.0408	4	C6H5N2O-
123.02	1	C5H3N2O2-
124.0277	1	C5H4N2O2-
129.0333	7	C7H3N3-
131.0488	4	C7H5N3-
131.0617	1	C8H7N2-
132.0203	1	C6H2N3O-
132.033	1	C7H4N2O-
132.0567	1	C7H6N3-
133.0282	5	C6H3N3O-
134.036	17	C6H4N3O-
135.0201	9	C6H3N2O2-
135.0438	9	C6H5N3O-
136.0517	8	C6H6N3O-
137.0355	4	C6H5N2O2-
144.0567	1	C8H6N3-
144.0695	1	C9H8N2-
145.0281	3	C7H3N3O-
146.036	11	C7H4N3O-
147.0439	45	C7H5N3O-
147.0562	6	C8H7N2O-
148.0279	6	C7H4N2O2-
148.0517	4	C7H6N3O-
149.0357	5	C7H5N2O2-
150.0309	19	C6H4N3O2-
151.0387	4	C6H5N3O2-
152.0227	2	C6H4N2O3-
156.0566	2	C9H6N3-
157.0645	6	C9H7N3-
158.0723	5	C9H8N3-
159.0566	3	C9H7N2O-
160.0515	9	C8H6N3O-
160.0643	4	C9H8N2O-
161.072	16	C9H9N2O-
162.0309	4	C7H4N3O2-
163.0261	4	C6H3N4O2-
163.0879	1	C9H11N2O-
164.0229	1	C7H4N2O3-
164.0467	3	C7H6N3O2-
165.0418	3	C6H5N4O2-
171.0677	2	C9H7N4-
172.0518	3	C9H6N3O-
172.0758	5	C9H8N4-
173.0594	6	C9H7N3O-
174.0672	52	C9H8N3O-
175.0514	7	C9H7N2O2-
175.075	7	C9H9N3O-
176.0338	4	C7H4N4O2-
176.0466	3	C8H6N3O2-
176.0592	1	C9H8N2O2-
176.0829	12	C9H10N3O-
177.0418	1	C7H5N4O2-
177.0667	1	C9H9N2O2-
180.029	35	C6H4N4O3-
182.0209	35	C6H4N3O4-
186.0104	3	C6H6N2O3S-
187.1241	4	C12H15N2-
189.0542	1	C9H7N3O2-
190.0625	4	C9H8N3O2-
191.0212	17	C7H3N4O3-
191.0701	18	C9H9N3O2-
192.029	7	C7H4N4O3-
192.9953	3	C7H3N3O2S-
198.9819	2	C6H3N2O4S-
200.9972	1	C6H5N2O4S-
203.0575	25	C9H7N4O2-
204.0652	3	C9H8N4O2-
204.0775	1	C10H10N3O2-
208.0314	1	C9H8N2O2S-
211.0058	6	C7H5N3O3S-
212.0136	7	C7H6N3O3S-
212.9971	1	C7H5N2O4S-
220.0603	4	C9H8N4O3-
221.068	12	C9H9N4O3-
222.0344	8	C9H8N3O2S-
222.0886	1	C10H12N3O3-
223.0421	3	C9H9N3O2S-
224.0139	2	C8H6N3O3S-
224.0499	2	C9H10N3O2S-
225.0101	1	C9H7NO4S-
225.0216	2	C8H7N3O3S-
226.9881	11	C6H3N4O4S-
227.0007	3	C7H5N3O4S-
228.0087	9	C7H6N3O4S-
228.058	4	C9H12N2O3S-
234.1248	60	C12H16N3O2-
238.0293	4	C9H8N3O3S-
238.071	11	C9H10N4O4-
239.0373	1	C9H9N3O3S-
240.0448	21	C9H10N3O3S-
241.0038	33	C7H5N4O4S-
244.0035	7	C7H6N3O5S-
256.04	17	C9H10N3O4S-
258.0554	8	C9H12N3O4S-
268.0275	3	C9H8N4O4S-
269.0351	9	C9H9N4O4S-
272.0349	6	C9H10N3O5S-
272.9936	1	C7H5N4O6S-
281.1255	377	C12H17N4O4-
282.1099	4	C12H16N3O5-
283.0503	4	C10H11N4O4S-
285.0303	2	C9H9N4O5S-
286.0505	4	C10H12N3O5S-
299.0455	29	C10H11N4O5S-
309.0665	6	C12H13N4O4S-
345.0875	999	C12H17N4O6S-
