Mass spectrum: Monolinuron; LC-ESI-QFT; MS2; CE: 75; R=35000; [M+H]+
Name: Monolinuron
Name: 3-(4-chlorophenyl)-1-methoxy-1-methyl-urea
Formula: C9H11ClN2O2
Exact mass: 214.05091
SMILES: Clc1ccc(NC(=O)N(OC)C)cc1
InChI: InChI=1S/C9H11ClN2O2/c1-12(14-2)9(13)11-8-5-3-7(10)4-6-8/h3-6H,1-2H3,(H,11,13)
Instrument: Q Exactive Orbitrap Thermo Scientific
Instrument type: LC-ESI-QFT
Ms type: MS2
Ion mode: POSITIVE
Ionization: ESI
Fragmentation mode: HCD
Collision energy: 75 (nominal)
Resolution: 35000
Column name: XBridge C18 3.5um, 2.1x50mm, Waters
Retention time: 8.0 min
Base peak: 215.0581
Precursor m/z: 215.0582
Precursor type: [M+H]+
m/z	relative intensity	assigned
58.0288	9	C2H4NO+
60.0445	39	C2H6NO+
62.0601	21	C2H8NO+
63.0229	8	C5H3+
65.0386	11	C5H5+
72.9838	31	C3H2Cl+
81.0335	1	C5H5O+
90.0337	75	C6H4N+
91.0415	52	C6H5N+
92.0494	27	C6H6N+
93.0571	14	C6H7N+
98.9995	999	C5H4Cl+
100.0073	32	C5H5Cl+
105.0445	5	C6H5N2+
106.065	8	C7H8N+
108.0443	7	C6H6NO+
110.0599	1	C6H8NO+
114.0104	2	C5H5ClN+
119.0602	259	C7H7N2+
120.0444	1	C7H6NO+
120.0681	13	C7H8N2+
126.0103	756	C6H5ClN+
127.0181	636	C9H3O+
129.0446	1	C8H5N2+
130.0528	1	C8H6N2+
131.0602	15	C8H7N2+
133.0395	3	C7H5N2O+
139.0056	1	C6H4ClN2+
140.0259	12	C7H7ClN+
141.0211	3	C9H3NO+
141.0336	1	C7H8ClN+
147.0551	124	C8H7N2O+
148.0628	154	C8H8N2O+
155.0368	1	C7H8ClN2+
168.0082	4	C7H5ClN2O+
183.0318	48	C8H8ClN2O+
