Mass spectrum: Imidacloprid-urea; LC-ESI-ITFT; MS2; CE: 60%; R=15000; [M+H]+
Name: Imidacloprid-urea
Name: 1-[(6-Chloropyridin-3-yl)methyl]imidazolidin-2-one
Formula: C9H10ClN3O
Exact mass: 211.0512
SMILES: Clc2ncc(CN1CCNC1=O)cc2
InChI: InChI=1S/C9H10ClN3O/c10-8-2-1-7(5-12-8)6-13-4-3-11-9(13)14/h1-2,5H,3-4,6H2,(H,11,14)
Instrument: LTQ Orbitrap XL Thermo Scientific
Instrument type: LC-ESI-ITFT
Ms type: MS2
Ion mode: POSITIVE
Ionization: ESI
Fragmentation mode: HCD
Collision energy: 60 % (nominal)
Resolution: 15000
Column name: XBridge C18 3.5um, 2.1x50mm, Waters
Retention time: 4.6 min
Base peak: 212.0588
Precursor m/z: 212.0585
Precursor type: [M+H]+
m/z	relative intensity	assigned
56.0495	6	C3H6N+
65.0386	2	C5H5+
70.0288	3	C3H4NO+
71.0604	4	C3H7N2+
78.034	1	C5H4N+
85.0396	7	C3H5N2O+
90.0339	2	C6H4N+
92.0494	8	C6H6N+
93.0573	10	C6H7N+
96.0447	1	C5H6NO+
99.0553	220	C4H7N2O+
106.0652	3	C7H8N+
107.0604	7	C6H7N2+
110.06	5	C6H8NO+
114.0105	38	C5H5ClN+
120.0685	2	C7H8N2+
123.0553	2	C6H7N2O+
126.0105	386	C6H5ClN+
127.0183	18	C6H6ClN+
128.0262	999	C6H7ClN+
133.076	18	C8H9N2+
135.0557	1	C4H10ClN3+
141.0212	1	C6H6ClN2+
142.0055	5	C6H5ClNO+
142.0293	2	C6H7ClN2+
144.0211	4	C6H7ClNO+
148.0871	1	C8H10N3+
156.0447	1	C7H9ClN2+
167.0372	1	C8H8ClN2+
168.0212	2	C8H7ClNO+
169.0162	6	C7H6ClN2O+
169.0528	15	C8H10ClN2+
176.0818	41	C9H10N3O+
194.048	14	C9H9ClN3+
195.0319	22	C9H8ClN2O+
210.0436	1	C9H9ClN3O+
212.0586	169	C9H11ClN3O+
