Mass spectrum: Clofibric acid; LC-ESI-ITFT; MS2; CE: 30%; R=15000; [M+H]+
Name: Clofibric acid
Name: 2-(p-Chlorophenoxy)isobutyric acid
Name: 2-(4-chloranylphenoxy)-2-methyl-propanoic acid
Formula: C10H11ClO3
Exact mass: 214.0397
SMILES: CC(C)(OC1=CC=C(Cl)C=C1)C(O)=O
InChI: InChI=1S/C10H11ClO3/c1-10(2,9(12)13)14-8-5-3-7(11)4-6-8/h3-6H,1-2H3,(H,12,13)
Instrument: LTQ Orbitrap XL Thermo Scientific
Instrument type: LC-ESI-ITFT
Ms type: MS2
Ion mode: POSITIVE
Ionization: ESI
Fragmentation mode: HCD
Collision energy: 30 % (nominal)
Resolution: 15000
Column name: XBridge C18 3.5um, 2.1x50mm, Waters
Retention time: 10.0 min
Base peak: 237.0291
Precursor m/z: 215.0469
Precursor type: [M+H]+
m/z	relative intensity	assigned
53.0385	301	C4H5+
77.0384	899	C6H5+
95.0491	273	C6H7O+
159.0301	999	C3H10ClNO4+
169.0171	393	C7H6ClN2O+
