Mass spectrum: Clozapine; LC-ESI-ITFT; MS2; CE: 90%; R=7500; [M+H]+
Name: Clozapine
Name: 8-chloro-11-(4-methylpiperazin-1-yl)-5H-dibenzo[b,e][1,4]diazepine
Formula: C18H19ClN4
Exact mass: 326.1298
SMILES: C1(=Nc2c(Nc3c1cccc3)ccc(c2)Cl)N1CCN(CC1)C
InChI: InChI=1S/C18H19ClN4/c1-22-8-10-23(11-9-22)18-14-4-2-3-5-15(14)20-16-7-6-13(19)12-17(16)21-18/h2-7,12,20H,8-11H2,1H3
Instrument: LTQ Orbitrap XL Thermo Scientific
Instrument type: LC-ESI-ITFT
Ms type: MS2
Ion mode: POSITIVE
Ionization: ESI
Fragmentation mode: HCD
Collision energy: 90 % (nominal)
Resolution: 7500
Column name: XBridge C18 3.5um, 2.1x50mm, Waters
Retention time: 6.4 min
Base peak: 327.1383
Precursor m/z: 327.1371
Precursor type: [M+H]+
m/z	relative intensity	assigned
58.0651	18	C3H8N+
84.0808	20	C5H10N+
90.0338	17	C6H4N+
98.9993	6	C5H4Cl+
123.9949	25	C6H3ClN+
126.0103	2	C6H5ClN+
132.0689	3	C8H8N2+
164.0493	22	C12H6N+
165.0574	19	C12H7N+
183.0682	6	C9H12ClN2+
191.0605	35	C13H7N2+
192.0683	999	C13H8N2+
193.0755	3	C13H9N2+
194.0837	7	C13H10N2+
200.0261	23	C12H7ClN+
205.0763	6	C14H9N2+
206.0832	8	C14H10N2+
207.0917	8	C14H11N2+
208.0986	6	C14H12N2+
209.0712	4	C10H12ClN3+
213.0331	2	C13H8ClN+
214.0418	3	C13H9ClN+
215.0371	13	C12H8ClN2+
217.0758	7	C15H9N2+
218.0839	18	C15H10N2+
219.0675	7	C13H7N4+
220.0869	14	C14H10N3+
226.0292	92	C13H7ClN2+
227.0369	45	C13H8ClN2+
228.045	14	C13H9ClN2+
229.0531	4	C13H10ClN2+
234.1024	19	C15H12N3+
235.1093	4	C15H13N3+
240.0437	7	C14H9ClN2+
241.0537	5	C14H10ClN2+
252.0444	5	C15H9ClN2+
253.0537	15	C15H10ClN2+
254.0482	10	C14H9ClN3+
255.0552	3	C14H10ClN3+
268.0638	7	C15H11ClN3+
270.0793	45	C15H13ClN3+
296.0953	4	C17H15ClN3+
