Mass spectrum: Ephedrine; LC-ESI-ITFT; MS2; CE: 75%; R=7500; [M+H]+
Name: Ephedrine
Name: (1R,2S)-2-(methylamino)-1-phenyl-1-propanol
Formula: C10H15NO
Exact mass: 165.1154
SMILES: c1([C@H]([C@@H](NC)C)O)ccccc1
InChI: InChI=1S/C10H15NO/c1-8(11-2)10(12)9-6-4-3-5-7-9/h3-8,10-12H,1-2H3/t8-,10-/m0/s1
Instrument: LTQ Orbitrap XL Thermo Scientific
Instrument type: LC-ESI-ITFT
Ms type: MS2
Ion mode: POSITIVE
Ionization: ESI
Fragmentation mode: HCD
Collision energy: 75 % (nominal)
Resolution: 7500
Column name: XBridge C18 3.5um, 2.1x50mm, Waters
Retention time: 2.9 min
Base peak: 166.123
Precursor m/z: 166.1226
Precursor type: [M+H]+
m/z	relative intensity	assigned
56.0495	96	C3H6N+
70.0652	76	C4H8N+
77.0383	3	C6H5+
79.0544	6	C6H7+
91.0543	168	C7H7+
92.0619	3	C7H8+
93.0699	18	C7H9+
104.0621	9	C8H8+
105.0703	11	C8H9+
115.0543	306	C9H7+
116.0621	29	C9H8+
117.07	677	C9H9+
118.0652	18	C8H8N+
120.081	5	C8H10N+
132.0808	106	C9H10N+
133.0888	828	C9H11N+
135.0809	8	C9H11O+
148.1123	999	C10H14N+
