Mass spectrum: Tetracycline; LC-ESI-QFT; MS2; CE: 30; R=35000; [M-H]-
Name: Tetracycline
Name: (4S,4aS,5aS,6S,12aS)-4-(Dimethylamino)-3,6,10,12,12a-pentahydroxy-6-methyl-1,11-dioxo-1,4,4a,5,5a,6,11,12a-octahydro-2-tetracenecarboxamide
Name: tetrex
Formula: C22H24N2O8
Exact mass: 444.15327
SMILES: C[C@]1(c2cccc(c2C(=O)C3=C([C@]4([C@@H](C[C@@H]31)[C@@H](C(=C(C4=O)C(=O)N)O)N(C)C)O)O)O)O
InChI: InChI=1S/C22H24N2O8/c1-21(31)8-5-4-6-11(25)12(8)16(26)13-9(21)7-10-15(24(2)3)17(27)14(20(23)30)19(29)22(10,32)18(13)28/h4-6,9-10,15,25,27-28,31-32H,7H2,1-3H3,(H2,23,30)/t9-,10-,15-,21+,22-/m0/s1
Instrument: Q Exactive Orbitrap Thermo Scientific
Instrument type: LC-ESI-QFT
Ms type: MS2
Ion mode: NEGATIVE
Ionization: ESI
Fragmentation mode: HCD
Collision energy: 30 (nominal)
Resolution: 35000
Column name: XBridge C18 3.5um, 2.1x50mm, Waters
Retention time: 4.5 min
Base peak: 443.1464
Precursor m/z: 443.146
Precursor type: [M-H]-
m/z	relative intensity	assigned
65.9986	56	C3NO-
68.9981	34	C3HO2-
84.009	343	C3H2NO2-
86.0248	62	C3H4NO2-
96.0092	29	C4H2NO2-
96.9931	61	C4HO3-
99.0088	211	C4H3O3-
100.0768	200	C5H10NO-
109.0295	68	C6H5O2-
111.045	61	C6H7O2-
124.0039	33	C5H2NO3-
124.0164	51	C6H4O3-
125.072	687	C6H9N2O-
126.0196	35	C5H4NO3-
126.0561	353	C6H8NO2-
129.067	43	C5H9N2O2-
133.0295	58	C8H5O2-
135.0089	120	C7H3O3-
135.0452	482	C8H7O2-
136.0403	55	C7H6NO2-
137.0244	44	C7H5O3-
142.0145	883	C5H4NO4-
142.9984	140	C5H3O5-
149.0241	38	C8H5O3-
152.0351	79	C7H6NO3-
161.0243	999	C9H5O3-
161.0607	111	C10H9O2-
162.0196	60	C8H4NO3-
163.0398	231	C9H7O3-
168.0662	48	C8H10NO3-
169.0257	34	C6H5N2O4-
169.0615	420	C7H9N2O3-
173.0602	45	C11H9O2-
175.0395	35	C10H7O3-
180.0301	530	C8H6NO4-
187.0763	861	C12H11O2-
