Mass spectrum: 5-Hydroxy Diclofenac; LC-ESI-QFT; MS2; CE: 90; R=35000; [M+H]+
Name: 5-Hydroxy Diclofenac
Name: 5-hydroxydiclofenac
Name: 2-[2-(2,6-dichloroanilino)-5-hydroxyphenyl]acetic acid
Formula: C14H11Cl2NO3
Exact mass: 311.01160
SMILES: C1=CC(=C(C(=C1)Cl)NC2=C(C=C(C=C2)O)CC(=O)O)Cl
InChI: InChI=1S/C14H11Cl2NO3/c15-10-2-1-3-11(16)14(10)17-12-5-4-9(18)6-8(12)7-13(19)20/h1-6,17-18H,7H2,(H,19,20)
Instrument: Q Exactive Plus Orbitrap Thermo Scientific
Instrument type: LC-ESI-QFT
Ms type: MS2
Ion mode: POSITIVE
Ionization: ESI
Fragmentation mode: HCD
Collision energy: 90 (nominal)
Resolution: 35000
Column name: XBridge C18 3.5um, 2.1x50mm, Waters
Retention time: 10.3 min
Base peak: 312.0187
Precursor m/z: 312.0189
Precursor type: [M+H]+
m/z	relative intensity	assigned
98.9996	1	C5H4Cl+
115.0541	1	C9H7+
123.9949	1	C6H3ClN+
125.0027	2	C6H4ClN+
132.9607	3	C5H3Cl2+
139.0542	16	C11H7+
140.0495	10	C10H6N+
140.0616	1	C11H8+
159.9714	1	C6H4Cl2N+
164.0495	1	C12H6N+
165.0574	1	C12H7N+
166.0652	40	C12H8N+
167.073	106	C12H9N+
168.0808	7	C12H10N+
177.0572	2	C13H7N+
178.0651	1	C13H8N+
179.0728	1	C13H9N+
183.0682	3	C12H9NO+
193.0523	6	C13H7NO+
194.0602	64	C13H8NO+
195.0679	165	C13H9NO+
196.0758	30	C13H10NO+
200.0266	1	C12H7ClN+
201.034	17	C12H8ClN+
202.0418	68	C12H9ClN+
204.0557	1	C13H6N3+
212.0264	5	C13H7ClN+
212.0708	1	C13H10NO2+
214.0419	24	C13H9ClN+
224.071	1	C14H10NO2+
226.086	1	C14H12NO2+
229.0285	2	C13H8ClNO+
230.0367	999	C13H9ClNO+
236.9924	1	C12HN2O4+
