Mass spectrum: Etodolac; LC-ESI-QFT; MS2; CE: 90; R=35000; [M+H]+
Name: Etodolac
Name: 2-(1,8-diethyl-4,9-dihydro-3H-pyrano[3,4-b]indol-1-yl)acetic acid
Formula: C17H21NO3
Exact mass: 287.15214
SMILES: CCC1=C2C(=CC=C1)C3=C(N2)C(OCC3)(CC)CC(=O)O
InChI: InChI=1S/C17H21NO3/c1-3-11-6-5-7-12-13-8-9-21-17(4-2,10-14(19)20)16(13)18-15(11)12/h5-7,18H,3-4,8-10H2,1-2H3,(H,19,20)
Instrument: Q Exactive Orbitrap Thermo Scientific
Instrument type: LC-ESI-QFT
Ms type: MS2
Ion mode: POSITIVE
Ionization: ESI
Fragmentation mode: HCD
Collision energy: 90 (nominal)
Resolution: 35000
Column name: XBridge C18 3.5um, 2.1x50mm, Waters
Retention time: 12.5 min
Base peak: 288.1594
Precursor m/z: 288.1594
Precursor type: [M+H]+
m/z	relative intensity	assigned
66.0464	1	C5H6+
79.0543	4	C6H7+
89.0385	6	C7H5+
90.0464	13	C7H6+
91.0542	14	C7H7+
95.0492	3	C6H7O+
102.0464	1	C8H6+
103.0542	10	C8H7+
104.0494	2	C7H6N+
105.0447	1	C6H5N2+
115.0542	85	C9H7+
116.0495	3	C8H6N+
116.062	63	C9H8+
117.0573	92	C8H7N+
117.0698	76	C9H9+
118.065	5	C8H8N+
127.0543	5	C10H7+
128.0494	11	C9H6N+
128.062	9	C10H8+
129.0572	2	C9H7N+
129.0699	10	C10H9+
130.0651	33	C9H8N+
131.0729	3	C9H9N+
141.0572	2	C10H7N+
141.0698	2	C11H9+
142.0653	88	C10H8N+
143.0731	999	C10H9N+
144.0807	185	C10H10N+
145.0647	14	C10H9O+
145.0885	1	C10H11N+
146.0601	9	C9H8NO+
152.0618	4	C12H8+
153.0698	6	C12H9+
154.0651	14	C11H8N+
154.0776	1	C12H10+
155.0604	19	C10H7N2+
155.073	6	C11H9N+
155.0855	2	C12H11+
156.0808	115	C11H10N+
157.0886	93	C11H11N+
158.0964	12	C11H12N+
160.0757	2	C10H10NO+
165.0699	4	C13H9+
166.0652	4	C12H8N+
167.073	85	C12H9N+
168.0808	37	C12H10N+
169.0888	3	C12H11N+
170.0964	8	C12H12N+
171.1047	5	C12H13N+
172.112	28	C12H14N+
178.0776	2	C14H10+
179.0728	6	C13H9N+
179.0855	1	C14H11+
180.0807	193	C13H10N+
181.0886	68	C13H11N+
182.0965	30	C13H12N+
183.0678	1	C12H9NO+
183.1043	2	C13H13N+
184.1123	4	C13H14N+
192.0808	4	C14H10N+
193.0887	17	C14H11N+
194.0964	108	C14H12N+
195.1042	30	C14H13N+
196.0755	2	C13H10NO+
196.1121	17	C14H14N+
198.1279	1	C14H16N+
207.0677	2	C14H9NO+
207.1041	3	C15H13N+
208.0757	2	C14H10NO+
208.1121	21	C15H14N+
209.1197	5	C15H15N+
210.1277	13	C15H16N+
222.0911	3	C15H12NO+
