Mass spectrum: Fenpropidin; LC-ESI-ITFT; MS2; CE: 45%; R=7500; [M+H]+
Name: Fenpropidin
Name: 1-[3-(4-tert-butylphenyl)-2-methyl-propyl]piperidine
Formula: C19H31N
Exact mass: 273.2457
SMILES: c1cc(ccc1CC(CN2CCCCC2)C)C(C)(C)C
InChI: InChI=1S/C19H31N/c1-16(15-20-12-6-5-7-13-20)14-17-8-10-18(11-9-17)19(2,3)4/h8-11,16H,5-7,12-15H2,1-4H3
Instrument: LTQ Orbitrap XL Thermo Scientific
Instrument type: LC-ESI-ITFT
Ms type: MS2
Ion mode: POSITIVE
Ionization: ESI
Fragmentation mode: HCD
Collision energy: 45 % (nominal)
Resolution: 7500
Column name: XBridge C18 3.5um, 2.1x50mm, Waters
Retention time: 9.5 min
Base peak: 274.253
Precursor m/z: 274.2529
Precursor type: [M+H]+
m/z	relative intensity	assigned
57.0698	1	C4H9+
86.0965	35	C5H12N+
147.1169	55	C11H15+
189.1638	8	C14H21+
218.1902	2	C15H24N+
274.2529	999	C19H32N+
