Mass spectrum: Corticosterone; LC-ESI-QFT; MS2; CE: 15; R=35000; [M+H]+
Name: Corticosterone
Name: 11b,21-Dihydroxyprogesterone
Name: (8S,9S,10R,11S,13S,14S,17S)-11-hydroxy-17-(2-hydroxyacetyl)-10,13-dimethyl-1,2,6,7,8,9,11,12,14,15,16,17-dodecahydrocyclopenta[a]phenanthren-3-one
Formula: C21H30O4
Exact mass: 346.21441
SMILES: O=C4\C=C2/[C@]([C@H]1[C@@H](O)C[C@@]3([C@@H](C(=O)CO)CC[C@H]3[C@@H]1CC2)C)(C)CC4
InChI: InChI=1S/C21H30O4/c1-20-8-7-13(23)9-12(20)3-4-14-15-5-6-16(18(25)11-22)21(15,2)10-17(24)19(14)20/h9,14-17,19,22,24H,3-8,10-11H2,1-2H3/t14-,15-,16+,17-,19+,20-,21-/m0/s1
Instrument: Q Exactive Plus Orbitrap Thermo Scientific
Instrument type: LC-ESI-QFT
Ms type: MS2
Ion mode: POSITIVE
Ionization: ESI
Fragmentation mode: HCD
Collision energy: 15 (nominal)
Resolution: 35000
Column name: XBridge C18 3.5um, 2.1x50mm, Waters
Retention time: 8.9 min
Base peak: 347.2214
Precursor m/z: 347.2217
Precursor type: [M+H]+
m/z	relative intensity	assigned
97.0646	4	C6H9O+
101.0597	2	C5H9O2+
121.0647	9	C8H9O+
123.0801	2	C8H11O+
135.08	1	C9H11O+
147.0802	1	C10H11O+
163.1115	1	C11H15O+
171.1165	1	C13H15+
173.0963	1	C12H13O+
175.1119	1	C12H15O+
187.1116	1	C13H15O+
193.1225	1	C12H17O2+
195.1377	1	C12H19O2+
197.1324	1	C15H17+
211.148	1	C16H19+
215.1431	1	C15H19O+
229.1585	2	C16H21O+
233.1532	1	C15H21O2+
241.1586	2	C17H21O+
251.1794	1	C19H23+
253.1588	2	C18H21O+
265.1953	2	C20H25+
267.1742	1	C19H23O+
269.1902	5	C19H25O+
271.2051	1	C19H27O+
275.1793	3	C21H23+
281.1901	2	C20H25O+
283.1689	1	C19H23O2+
283.205	1	C20H27O+
293.1899	17	C21H25O+
299.2007	1	C20H27O2+
311.2004	26	C21H27O2+
329.2112	93	C21H29O3+
347.2216	999	C21H31O4+
