Mass spectrum: Iodosulfuron-methyl; LC-ESI-QFT; MS2; CE: 75; R=35000; [M+H]+
Name: Iodosulfuron-methyl
Name: Methyl 4-iodo-2-(N-(4-methoxy-6-methyl-1,3,5-triazin-2-ylcarbamoyl)sulfamoyl)benzoate
Name: Methyl 4-iodo-2-[(4-methoxy-6-methyl-1,3,5-triazin-2-yl)carbamoylsulfamoyl]benzoate
Formula: C14H14IN5O6S
Exact mass: 506.97095
SMILES: Cc2nc(NC(=O)NS(=O)(=O)c1cc(I)ccc1C(=O)OC)nc(OC)n2
InChI: InChI=1S/C14H14IN5O6S/c1-7-16-12(19-14(17-7)26-3)18-13(22)20-27(23,24)10-6-8(15)4-5-9(10)11(21)25-2/h4-6H,1-3H3,(H2,16,17,18,19,20,22)
Instrument: Q Exactive Plus Orbitrap Thermo Scientific
Instrument type: LC-ESI-QFT
Ms type: MS2
Ion mode: POSITIVE
Ionization: ESI
Fragmentation mode: HCD
Collision energy: 75 (nominal)
Resolution: 35000
Column name: XBridge C18 3.5um, 2.1x50mm, Waters
Retention time: 9.3 min
Base peak: 507.9772
Precursor m/z: 507.9782
Precursor type: [M+H]+
m/z	relative intensity	assigned
50.0152	7	C4H2+
51.023	1	C4H3+
52.0307	1	C4H4+
53.0386	1	C4H5+
55.0291	5	C2H3N2+
56.0495	973	C3H6N+
57.0448	155	C2H5N2+
58.0288	999	C2H4NO+
62.0151	7	C5H2+
63.023	22	C5H3+
64.0308	4	C5H4+
66.0101	2	C4H2O+
67.0291	58	C3H3N2+
68.0243	15	C2H2N3+
69.0083	865	C2HN2O+
75.0102	1	C5HN+
76.0307	118	C6H4+
77.0386	4	C6H5+
78.0464	101	C6H6+
78.9848	20	CH3O2S+
79.0178	2	C5H3O+
79.0415	1	C5H5N+
80.0254	1	C5H4O+
81.0335	13	C5H5O+
82.04	5	C3H4N3+
83.024	754	C3H3N2O+
84.0557	6	C3H6N3+
85.0396	28	C3H5N2O+
89.026	12	C6H3N+
91.0178	13	C6H3O+
91.0417	34	C6H5N+
92.0257	2	C6H4O+
94.0413	29	C6H6O+
95.0491	7	C6H7O+
100.0506	34	C3H6N3O+
101.0261	30	C7H3N+
104.0257	9	C7H4O+
105.0336	52	C7H5O+
105.0449	5	C6H5N2+
106.0414	6	C7H6O+
107.0125	1	C6H3O2+
110.0348	8	C4H4N3O+
117.0209	52	C7H3NO+
119.0128	28	C7H3O2+
119.0366	46	C7H5NO+
120.0207	5	C7H4O2+
125.0346	4	C5H5N2O2+
126.0299	1	C4H4N3O2+
133.0283	2	C8H5O2+
134.0363	240	C8H6O2+
136.0157	4	C7H4O3+
141.0771	103	C5H9N4O+
145.016	55	C8H3NO2+
151.0265	25	C7H5NO3+
152.0104	1	C7H4O4+
164.9198	1	C3H2I+
166.0262	171	C8H6O4+
167.0565	439	C6H7N4O2+
177.0057	47	C8H3NO4+
202.9352	6	C6H4I+
215.9307	109	C6H3IN+
217.9225	120	C6H3IO+
220.9461	12	C6H6IO+
230.9302	7	C7H4IO+
230.9416	28	C6H4IN2+
245.9176	5	C7H3IO2+
245.9412	8	C7H5INO+
246.9247	4	C7H4IO2+
255.9365	6	C7H3IN3+
260.941	36	C8H6IO2+
263.9286	9	C7H5IO3+
271.9203	9	C8H3INO2+
