Mass spectrum: Metolachlor morpholinone; LC-ESI-ITFT; MS2; CE: 45%; R=15000; [M+H]+
Name: Metolachlor morpholinone
Name: 4-(2-ethyl-6-methylphenyl)-5-methylmorpholin-3-one
Formula: C14H19NO2
Exact mass: 233.1416
SMILES: O=C2N(c1c(cccc1C)CC)C(C)COC2
InChI: InChI=1S/C14H19NO2/c1-4-12-7-5-6-10(2)14(12)15-11(3)8-17-9-13(15)16/h5-7,11H,4,8-9H2,1-3H3
Instrument: LTQ Orbitrap XL Thermo Scientific
Instrument type: LC-ESI-ITFT
Ms type: MS2
Ion mode: POSITIVE
Ionization: ESI
Fragmentation mode: HCD
Collision energy: 45 % (nominal)
Resolution: 15000
Column name: XBridge C18 3.5um, 2.1x50mm, Waters
Retention time: 8.2 min
Base peak: 234.1493
Precursor m/z: 234.1489
Precursor type: [M+H]+
m/z	relative intensity	assigned
70.0652	2	C4H8N+
91.0542	2	C7H7+
99.0679	8	C5H9NO+
105.07	1	C8H9+
117.0699	1	C9H9+
118.0651	4	C8H8N+
119.0855	20	C9H11+
120.0808	24	C8H10N+
132.081	1	C9H10N+
133.0885	1	C9H11N+
133.1005	1	C10H13+
134.0963	2	C9H12N+
135.1043	2	C9H13N+
145.0883	1	C10H11N+
146.0964	43	C10H12N+
147.0678	9	C9H9NO+
147.1043	2	C10H13N+
148.0757	62	C9H10NO+
148.1121	48	C10H14N+
158.0965	5	C11H12N+
159.104	1	C11H13N+
160.1121	34	C11H14N+
162.0918	2	C10H12NO+
174.1277	2	C12H16N+
175.0993	1	C11H13NO+
175.1356	19	C12H17N+
176.107	18	C11H14NO+
176.1434	18	C12H18N+
177.115	2	C11H15NO+
186.1276	1	C13H16N+
188.1435	11	C13H18N+
193.1098	2	C11H15NO2+
204.1379	1	C13H18NO+
206.1176	66	C12H16NO2+
206.153	3	C13H20NO+
216.1384	3	C14H18NO+
234.149	999	C14H20NO2+
