Mass spectrum: NOA407475; LC-ESI-QFT; MS2; CE: 90; R=35000; [M+H]+
Name: NOA407475
Name: 3-[(2-chloro-1,3-thiazol-5-yl)methyl]-5-methyl-1,3,5-oxadiazinan-4-imine
Name: 3-(2-chloro-thiazol-5-ylmethyl)-5-methyl-[1,3,5]oxadiazinan-4-ylideneamine
Formula: C8H11ClN4OS
Exact mass: 246.03421
SMILES: Clc2ncc(CN1COCN(C)C1=N)s2
InChI: InChI=1S/C8H11ClN4OS/c1-12-4-14-5-13(8(12)10)3-6-2-11-7(9)15-6/h2,10H,3-5H2,1H3
Instrument: Q Exactive Plus Orbitrap Thermo Scientific
Instrument type: LC-ESI-QFT
Ms type: MS2
Ion mode: POSITIVE
Ionization: ESI
Fragmentation mode: HCD
Collision energy: 90 (nominal)
Resolution: 35000
Column name: XBridge C18 3.5um, 2.1x50mm, Waters
Retention time: 2.3 min
Base peak: 247.0413
Precursor m/z: 247.0415
Precursor type: [M+H]+
m/z	relative intensity	assigned
55.0291	1	C2H3N2+
57.0447	101	C2H5N2+
59.9665	1	COS+
61.9792	4	CHClN+
68.9792	2	C3HS+
69.0447	2	C3H5N2+
70.995	289	C3H3S+
72.0028	1	C3H4S+
78.9403	18	CClS+
87.9949	27	C3H3ClN+
95.9902	2	C4H2NS+
98.0059	15	C4H4NS+
100.0215	1	C4H6NS+
113.0167	1	C4H5N2S+
119.967	22	C3H3ClNS+
125.0171	2	C5H5N2S+
131.9669	999	C4H3ClNS+
132.9747	171	C4H4ClNS+
133.9826	2	C4H5ClNS+
138.012	1	C5H4N3S+
139.0198	1	C5H5N3S+
149.9775	10	C4H5ClNOS+
160.9935	16	C5H6ClN2S+
173.9888	5	C5H5ClN3S+
