Mass spectrum: Fluvastatin; LC-ESI-QFT; MS2; CE: 60; R=35000; [M-H]-
Name: Fluvastatin
Name: (3R,5S)-7-[3-(4-fluorophenyl)-1-isopropyl-2-indolyl]-3,5-dihydroxy-6-heptenoic acid
Formula: C24H26FNO4
Exact mass: 411.18459
SMILES: O=C(O)C[C@H](O)C[C@H](O)/C=C/c2c(c1ccccc1n2C(C)C)c3ccc(F)cc3
InChI: InChI=1S/C24H26FNO4/c1-15(2)26-21-6-4-3-5-20(21)24(16-7-9-17(25)10-8-16)22(26)12-11-18(27)13-19(28)14-23(29)30/h3-12,15,18-19,27-28H,13-14H2,1-2H3,(H,29,30)/b12-11+/t18-,19-/m1/s1
Instrument: Q Exactive Orbitrap Thermo Scientific
Instrument type: LC-ESI-QFT
Ms type: MS2
Ion mode: NEGATIVE
Ionization: ESI
Fragmentation mode: HCD
Collision energy: 60 (nominal)
Resolution: 35000
Column name: XBridge C18 3.5um, 2.1x50mm, Waters
Retention time: 13.5 min
Base peak: 410.1777
Precursor m/z: 410.1773
Precursor type: [M-H]-
m/z	relative intensity	assigned
57.0346	1	C3H5O-
59.0139	275	C2H3O2-
65.0398	1	C5H5-
82.0423	1	C5H6O-
83.0503	11	C5H7O-
85.0296	105	C4H5O2-
87.0088	55	C3H3O3-
91.0552	1	C7H7-
109.0659	1	C7H9O-
116.0504	1	C8H6N-
208.0564	1	C14H7FN-
210.0724	999	C14H9FN-
221.0644	4	C15H8FN-
222.0725	45	C15H9FN-
223.0805	12	C15H10FN-
224.0882	36	C15H11FN-
234.0723	20	C16H9FN-
236.0881	170	C16H11FN-
238.1037	13	C16H13FN-
247.0801	1	C17H10FN-
248.0883	7	C17H11FN-
250.1039	3	C17H13FN-
255.0699	1	C15H10FNO2-
256.1132	4	C19H14N-
260.0878	5	C18H11FN-
261.0951	1	C18H12FN-
262.1039	5	C18H13FN-
263.0753	12	C17H10FNO-
264.0831	172	C17H11FNO-
274.1045	1	C19H13FN-
276.0829	7	C18H11FNO-
276.1194	3	C19H15FN-
278.1352	8	C19H17FN-
280.1143	17	C18H15FNO-
284.1092	1	C17H15FNO2-
286.1044	1	C20H13FN-
286.1237	4	C20H16NO-
288.119	1	C20H15FN-
290.0988	1	C19H13FNO-
306.1301	18	C20H17FNO-
