Mass spectrum: Fluroxypyr; LC-ESI-ITFT; MS2; CE: 45%; R=7500; [M-H]-
Name: Fluroxypyr
Name: 2-(4-amino-3,5-dichloro-6-fluoropyridin-2-yl)oxyacetic acid
Formula: C7H5Cl2FN2O3
Exact mass: 253.9667
SMILES: c1(c(c(c(Cl)c(n1)F)N)Cl)OCC(O)=O
InChI: InChI=1S/C7H5Cl2FN2O3/c8-3-5(11)4(9)7(12-6(3)10)15-1-2(13)14/h1H2,(H2,11,12)(H,13,14)
Instrument: LTQ Orbitrap XL Thermo Scientific
Instrument type: LC-ESI-ITFT
Ms type: MS2
Ion mode: NEGATIVE
Ionization: ESI
Fragmentation mode: HCD
Collision energy: 45 % (nominal)
Resolution: 7500
Column name: XBridge C18 3.5um, 2.1x50mm, Waters
Retention time: 6.9 min
Base peak: 252.9583
Precursor m/z: 252.9588
Precursor type: [M-H]-
m/z	relative intensity	assigned
131.9413	27	C4Cl2N-
158.9761	28	C5HClFN2O-
174.9469	54	C5HCl2N2O-
194.9533	999	C5H2Cl2FN2O-
