Mass spectrum: Reserpine; LC-ESI-ITFT; MS2; CE: 30%; R=15000; [M+H]+
Name: Reserpine
Name: (1S,2R,3R,4aS,13bR,14aS)-2,11-dimethoxy-3-(3,4,5-trimethoxybenzoyl)oxy-1,2,3,4,4a,5,7,8,13,13b,14,14a-dodecahydroisoquinolino[3,2-a]$b-carboline-1-carboxylic acid methyl ester
Formula: C33H40N2O9
Exact mass: 608.2734
SMILES: CO[C@H]1[C@@H](C[C@@H]2CN3CCC4=C([C@H]3C[C@@H]2[C@@H]1C(=O)OC)NC5=C4C=CC(=C5)OC)OC(=O)C6=CC(=C(C(=C6)OC)OC)OC
InChI: InChI=1S/C33H40N2O9/c1-38-19-7-8-20-21-9-10-35-16-18-13-27(44-32(36)17-11-25(39-2)30(41-4)26(12-17)40-3)31(42-5)28(33(37)43-6)22(18)15-24(35)29(21)34-23(20)14-19/h7-8,11-12,14,18,22,24,27-28,31,34H,9-10,13,15-16H2,1-6H3/t18-,22+,24-,27-,28+,31+/m1/s1
Instrument: LTQ Orbitrap XL Thermo Scientific
Instrument type: LC-ESI-ITFT
Ms type: MS2
Ion mode: POSITIVE
Ionization: ESI
Fragmentation mode: HCD
Collision energy: 30 % (nominal)
Resolution: 15000
Column name: XBridge C18 3.5um, 2.1x50mm, Waters
Retention time: 8.3 min
Base peak: 609.2812
Precursor m/z: 609.2807
Precursor type: [M+H]+
m/z	relative intensity	assigned
70.0652	1	C4H8N+
94.0653	3	C6H8N+
106.0646	2	C7H8N+
111.0441	4	C6H7O2+
131.0856	2	C10H11+
132.0808	2	C9H10N+
135.0439	1	C8H7O2+
148.0754	8	C9H10NO+
160.0754	8	C10H10NO+
162.0912	6	C10H12NO+
167.07	2	C9H11O3+
174.0912	404	C11H12NO+
175.0749	2	C11H11O2+
175.0949	3	C6H13N3O3+
176.1068	8	C11H14NO+
178.0862	4	C10H12NO2+
186.0913	4	C12H12NO+
188.1069	16	C12H14NO+
190.0865	4	C11H12NO2+
192.1018	44	C11H14NO2+
195.0651	999	C10H11O4+
195.9643	2	C7O7+
196.0686	3	C5H12N2O6+
200.1067	20	C13H14NO+
201.1016	2	C12H13N2O+
204.1017	13	C12H14NO2+
207.101	2	C12H15O3+
212.1072	3	C14H14NO+
214.1103	4	C13H14N2O+
215.1176	22	C13H15N2O+
222.1122	7	C12H16NO3+
224.1279	70	C12H18NO3+
227.1181	3	C14H15N2O+
228.1258	3	C14H16N2O+
229.1336	5	C14H17N2O+
236.1279	127	C13H18NO3+
238.1221	3	C16H16NO+
242.1394	2	C12H20NO4+
253.1337	4	C16H17N2O+
254.1388	5	C13H20NO4+
276.1375	3	C19H18NO+
281.165	4	C18H21N2O+
290.1164	3	C19H16NO2+
304.1322	4	C20H18NO2+
305.1648	3	C20H21N2O+
316.1327	3	C21H18NO2+
322.1433	12	C20H20NO3+
333.1598	9	C21H21N2O2+
334.1425	4	C21H20NO3+
336.1589	36	C21H22NO3+
337.1916	2	C21H25N2O2+
348.1588	17	C22H22NO3+
354.1697	9	C21H24NO4+
365.1854	135	C22H25N2O3+
366.1687	4	C22H24NO4+
368.1493	13	C21H22NO5+
368.1851	43	C22H26NO4+
379.2005	1	C23H27N2O3+
380.1848	17	C23H26NO4+
386.1955	2	C22H28NO5+
397.2119	865	C23H29N2O4+
402.1548	2	C21H24NO7+
404.1701	4	C21H26NO7+
413.2067	10	C23H29N2O5+
416.1699	2	C22H26NO7+
434.1799	13	C22H28NO8+
436.1959	46	C22H30NO8+
448.1961	207	C23H30NO8+
449.1999	4	C30H27NO3+
577.2539	34	C32H37N2O8+
591.2685	2	C33H39N2O8+
592.252	4	C33H38NO9+
609.2801	534	C33H41N2O9+
