Mass spectrum: Irgarol; LC-ESI-ITFT; MS2; CE: 75%; R=15000; [M+H]+
Name: Irgarol
Name: 2-N-tert-butyl-4-N-cyclopropyl-6-methylsulfanyl-1,3,5-triazine-2,4-diamine
Formula: C11H19N5S
Exact mass: 253.1356
SMILES: c1(nc(NC(C)(C)C)nc(n1)SC)NC1CC1
InChI: InChI=1S/C11H19N5S/c1-11(2,3)16-9-13-8(12-7-5-6-7)14-10(15-9)17-4/h7H,5-6H2,1-4H3,(H2,12,13,14,15,16)
Instrument: LTQ Orbitrap XL Thermo Scientific
Instrument type: LC-ESI-ITFT
Ms type: MS2
Ion mode: POSITIVE
Ionization: ESI
Fragmentation mode: HCD
Collision energy: 75 % (nominal)
Resolution: 15000
Column name: XBridge C18 3.5um, 2.1x50mm, Waters
Retention time: 9.2 min
Base peak: 254.1437
Precursor m/z: 254.1434
Precursor type: [M+H]+
m/z	relative intensity	assigned
55.029	28	C2H3N2+
56.0494	419	C3H6N+
57.0698	23	C4H9+
58.065	58	C3H8N+
68.0243	271	C2H2N3+
70.0398	18	C2H4N3+
74.0058	318	C2H4NS+
81.0447	153	C4H5N2+
83.0603	787	C4H7N2+
85.0108	13	C4H5S+
85.0508	15	C2H5N4+
87.0262	73	C4H7S+
89.0418	14	C4H9S+
91.0324	872	C2H7N2S+
98.0712	9	C4H8N3+
99.0011	10	C3H3N2S+
108.0556	837	C5H6N3+
114.0118	11	C3H4N3S+
114.0371	116	C5H8NS+
116.0276	314	C3H6N3S+
123.0666	18	C5H7N4+
125.0821	294	C5H9N4+
143.0379	9	C4H7N4S+
150.0773	193	C6H8N5+
152.0932	10	C6H10N5+
156.0336	37	C4H6N5S+
156.0589	370	C6H10N3S+
158.0489	21	C4H8N5S+
168.0337	36	C5H6N5S+
170.0493	99	C5H8N5S+
171.0692	9	C6H11N4S+
198.0806	999	C7H12N5S+
