Mass spectrum: Lovastatin; LC-ESI-QFT; MS2; CE: 60; R=35000; [M+H]+
Name: Lovastatin
Name: (1S,3R,7S,8S,8aR)-8-{2-[(2R,4R)-4-hydroxy-6-oxotetrahydro-2H-pyran-2-yl]ethyl}-3,7-dimethyl-1,2,3,7,8,8a-hexahydronaphthalen-1-yl (2S)-2-methylbutanoate
Name: (2S)-2-methylbutanoic acid [(1S,3R,7S,8S,8aR)-8-[2-[(2R,4R)-4-hydroxy-6-oxo-2-oxanyl]ethyl]-3,7-dimethyl-1,2,3,7,8,8a-hexahydronaphthalen-1-yl] ester
Formula: C24H36O5
Exact mass: 404.25627
SMILES: O=C(O[C@@H]1[C@H]3C(=C/[C@H](C)C1)\C=C/[C@@H]([C@@H]3CC[C@H]2OC(=O)C[C@H](O)C2)C)[C@@H](C)CC
InChI: InChI=1S/C24H36O5/c1-5-15(3)24(27)29-21-11-14(2)10-17-7-6-16(4)20(23(17)21)9-8-19-12-18(25)13-22(26)28-19/h6-7,10,14-16,18-21,23,25H,5,8-9,11-13H2,1-4H3/t14-,15-,16-,18+,19+,20-,21-,23-/m0/s1
Instrument: Q Exactive Orbitrap Thermo Scientific
Instrument type: LC-ESI-QFT
Ms type: MS2
Ion mode: POSITIVE
Ionization: ESI
Fragmentation mode: HCD
Collision energy: 60 (nominal)
Resolution: 35000
Column name: XBridge C18 3.5um, 2.1x50mm, Waters
Retention time: 15.3 min
Base peak: 405.2632
Precursor m/z: 405.2636
Precursor type: [M+H]+
m/z	relative intensity	assigned
57.0699	8	C4H9+
65.0385	12	C5H5+
67.0542	82	C5H7+
68.9971	16	C3HO2+
69.0335	6	C4H5O+
69.0698	58	C5H9+
71.0127	33	C3H3O2+
71.0491	11	C4H7O+
77.0384	11	C6H5+
79.0542	341	C6H7+
81.0698	330	C6H9+
83.0491	114	C5H7O+
83.0854	6	C6H11+
85.0648	41	C5H9O+
89.0233	11	C3H5O3+
91.0541	103	C7H7+
93.0698	163	C7H9+
95.0492	26	C6H7O+
95.0855	77	C7H11+
97.0647	77	C6H9O+
103.0541	11	C8H7+
105.0699	368	C8H9+
107.0855	220	C8H11+
109.0647	24	C7H9O+
109.1012	15	C8H13+
115.0539	20	C9H7+
116.0617	3	C9H8+
117.0698	89	C9H9+
119.0855	209	C9H11+
121.0646	11	C8H9O+
121.1011	80	C9H13+
123.0802	3	C8H11O+
125.0596	13	C7H9O2+
128.0619	70	C10H8+
129.0698	97	C10H9+
130.0778	27	C10H10+
131.0855	468	C10H11+
133.065	10	C9H9O+
133.1011	62	C10H13+
135.0805	11	C9H11O+
135.1169	11	C10H15+
141.0698	57	C11H9+
142.0778	127	C11H10+
143.0856	999	C11H11+
144.0934	79	C11H12+
145.1011	496	C11H13+
147.0806	12	C10H11O+
147.1168	32	C11H15+
149.0961	12	C10H13O+
151.0752	6	C9H11O2+
153.0697	14	C12H9+
154.0773	20	C12H10+
155.0855	232	C12H11+
156.0934	138	C12H12+
157.1012	388	C12H13+
158.109	195	C12H14+
159.1168	432	C12H15+
160.1245	11	C12H16+
161.0959	4	C11H13O+
161.1325	3	C12H17+
163.0752	4	C10H11O2+
163.1115	12	C11H15O+
165.0696	6	C13H9+
165.0911	3	C10H13O2+
166.0779	6	C13H10+
167.0857	23	C13H11+
168.0933	40	C13H12+
169.1011	404	C13H13+
170.109	18	C13H14+
171.1167	343	C13H15+
173.1324	621	C13H17+
177.091	3	C11H13O2+
178.0778	5	C14H10+
179.0854	15	C14H11+
181.1011	81	C14H13+
182.109	26	C14H14+
183.1169	302	C14H15+
184.1251	23	C14H16+
185.1325	44	C14H17+
187.1114	14	C13H15O+
187.1482	4	C14H19+
191.1067	19	C12H15O2+
192.0935	29	C15H12+
193.1011	56	C15H13+
194.1093	15	C15H14+
195.1169	49	C15H15+
196.1248	34	C15H16+
197.1324	160	C15H17+
198.1404	6	C15H18+
199.1481	642	C15H19+
201.1637	70	C15H21+
205.1012	20	C16H13+
206.1089	5	C16H14+
207.117	72	C16H15+
208.1247	17	C16H16+
209.1326	7	C16H17+
210.1401	37	C16H18+
211.1117	24	C15H15O+
211.148	47	C16H19+
215.1797	3	C16H23+
219.1167	19	C17H15+
220.1244	5	C17H16+
221.1321	19	C17H17+
223.1481	80	C17H19+
225.1636	333	C17H21+
229.1225	3	C15H17O2+
234.1406	25	C18H18+
239.1428	7	C17H19O+
239.1796	23	C18H23+
243.1746	13	C17H23O+
249.1638	23	C19H21+
