Mass spectrum: Benodanil; LC-ESI-QFT; MS2; CE: 30%; R=17500; [M+H]+
Name: Benodanil
Name: 2-iodo-N-phenylbenzamide
Formula: C13H10INO
Exact mass: 322.9807
SMILES: C1=CC=C(C=C1)NC(=O)C2=CC=CC=C2I
InChI: InChI=1S/C13H10INO/c14-12-9-5-4-8-11(12)13(16)15-10-6-2-1-3-7-10/h1-9H,(H,15,16)
Instrument: Exploris 240 Orbitrap Thermo Scientific
Instrument type: LC-ESI-QFT
Ms type: MS2
Ion mode: POSITIVE
Ionization: ESI
Fragmentation mode: HCD
Collision energy: 30 % (nominal)
Resolution: 17500
Column name: XBridge C18 3.5um, 2.1x50mm, Waters
Retention time: 6.793 min
Base peak: 216.1009
Precursor m/z: 323.988
Precursor type: [M+H]+
m/z	relative intensity	assigned
92.0492	6	C6H6N+
105.0335	86	C7H5O+
120.0443	65	C7H6NO+
197.0837	37	C13H11NO+
230.9302	812	C7H4IO+
305.9781	6	C13H9IN+
323.9881	999	C13H11INO+
