Mass spectrum: Atrazine-2-hydroxy; LC-ESI-ITFT; MS2; CE: 90%; R=30000; [M+H]+
Name: Atrazine-2-hydroxy
Name: 2-Hydroxyatrazine
Name: 2-(ethylamino)-6-(isopropylamino)-1H-s-triazin-4-one
Formula: C8H15N5O
Exact mass: 197.1277
SMILES: c1(nc(nc(n1)O)NCC)NC(C)C
InChI: InChI=1S/C8H15N5O/c1-4-9-6-11-7(10-5(2)3)13-8(14)12-6/h5H,4H2,1-3H3,(H3,9,10,11,12,13,14)
Instrument: LTQ Orbitrap XL Thermo Scientific
Instrument type: LC-ESI-ITFT
Ms type: MS2
Ion mode: POSITIVE
Ionization: ESI
Fragmentation mode: HCD
Collision energy: 90 % (nominal)
Resolution: 30000
Column name: XBridge C18 3.5um, 2.1x50mm, Waters
Retention time: 4.4 min
Base peak: 198.1353
Precursor m/z: 198.1349
Precursor type: [M+H]+
m/z	relative intensity	assigned
68.0244	45	C2H2N3+
69.0084	999	C2HN2O+
71.0604	83	C3H7N2+
85.051	47	C2H5N4+
86.035	895	C2H4N3O+
96.0557	27	C4H6N3+
97.0397	297	C4H5N2O+
110.046	6	C3H4N5+
111.0303	4	C3H3N4O+
113.0823	38	C4H9N4+
114.0663	806	C4H8N3O+
128.0568	82	C3H6N5O+
128.082	14	C5H10N3O+
138.0774	7	C5H8N5+
139.0614	5	C5H7N4O+
156.0881	303	C5H10N5O+
