Mass spectrum: Formothion; LC-ESI-QFT; MS2; CE: 120%; R=17500; [M+H]+
Name: Formothion
Name: 2-dimethoxyphosphinothioylsulfanyl-N-formyl-N-methylacetamide
Formula: C6H12NO4PS2
Exact mass: 256.9945
SMILES: CN(C=O)C(=O)CSP(=S)(OC)OC
InChI: InChI=1S/C6H12NO4PS2/c1-7(5-8)6(9)4-14-12(13,10-2)11-3/h5H,4H2,1-3H3
Instrument: Exploris 240 Orbitrap Thermo Scientific
Instrument type: LC-ESI-QFT
Ms type: MS2
Ion mode: POSITIVE
Ionization: ESI
Fragmentation mode: HCD
Collision energy: 120 % (nominal)
Resolution: 17500
Column name: XBridge C18 3.5um, 2.1x50mm, Waters
Retention time: 5.214 min
Base peak: 198.9647
Precursor m/z: 258.0018
Precursor type: [M+H]+
m/z	relative intensity	assigned
58.995	21	C2H3S+
59.0491	18	C3H7O+
62.0185	126	C2H6S+
62.9994	279	CH4OP+
64.9786	14	H2O2P+
78.9944	999	CH4O2P+
81.0101	22	CH6O2P+
93.0099	280	C2H6O2P+
124.9821	223	C2H6O2PS+
128.977	33	CH6O3PS+
142.9926	134	C2H8O3PS+
