Mass spectrum: Mirabegron; LC-ESI-QFT; MS2; CE: 15%; R=15000; [M-H]-
Name: Mirabegron
Name: (S)-Mirabegron
Name: 2-(2-azanyl-1,3-thiazol-4-yl)-N-[4-[2-[[(2R)-2-oxidanyl-2-phenyl-ethyl]amino]ethyl]phenyl]ethanamide
Formula: C21H24N4O2S
Exact mass: 396.161997
SMILES: C1=CC=C(C=C1)C(CNCCC2=CC=C(C=C2)NC(=O)CC3=CSC(=N3)N)O
InChI: InChI=1S/C21H24N4O2S/c22-21-25-18(14-28-21)12-20(27)24-17-8-6-15(7-9-17)10-11-23-13-19(26)16-4-2-1-3-5-16/h1-9,14,19,23,26H,10-13H2,(H2,22,25)(H,24,27)
Instrument: Q Exactive
Instrument type: LC-ESI-QFT
Ms type: MS2
Ion mode: NEGATIVE
Ionization: ESI
Fragmentation mode: HCD
Collision energy: 15 % (nominal)
Resolution: 15000
Column name: XBridge C18 3.5um, 2.1x50mm, Waters
Retention time: 3.028 min
Base peak: 395.1545
Precursor m/z: 395.1547
Precursor type: [M-H]-
Precursor intensity: 8780976.38
m/z	relative intensity	assigned
113.0179	999	C4H5N2S-
