Mass spectrum: Cefalexin; LC-ESI-QFT; MS2; CE: 75; R=35000; [M+H]+
Name: Cefalexin
Name: 7-[(2-amino-1-oxo-2-phenylethyl)amino]-3-methyl-8-oxo-5-thia-1-azabicyclo[4.2.0]oct-2-ene-2-carboxylic acid
Formula: C16H17N3O4S
Exact mass: 347.09398
SMILES: CC1=C(N2C(C(C2=O)NC(=O)C(C3=CC=CC=C3)N)SC1)C(=O)O
InChI: InChI=1S/C16H17N3O4S/c1-8-7-24-15-11(14(21)19(15)12(8)16(22)23)18-13(20)10(17)9-5-3-2-4-6-9/h2-6,10-11,15H,7,17H2,1H3,(H,18,20)(H,22,23)
Instrument: Q Exactive Orbitrap Thermo Scientific
Instrument type: LC-ESI-QFT
Ms type: MS2
Ion mode: POSITIVE
Ionization: ESI
Fragmentation mode: HCD
Collision energy: 75 (nominal)
Resolution: 35000
Column name: XBridge C18 3.5um, 2.1x50mm, Waters
Retention time: 4.4 min
Base peak: 348.1015
Precursor m/z: 348.1013
Precursor type: [M+H]+
m/z	relative intensity	assigned
53.0023	1	C3HO+
57.9872	2	C2H2S+
58.995	18	C2H3S+
59.9666	1	COS+
65.0386	5	C5H5+
66.0464	2	C5H6+
68.0495	581	C4H6N+
69.0335	1	C4H5O+
70.0288	4	C3H4NO+
70.0651	14	C4H8N+
72.9981	37	C2H3NS+
74.0059	37	C2H4NS+
77.0383	2	C6H5+
79.0542	288	C6H7+
80.0494	3	C5H6N+
82.065	9	C5H8N+
85.0106	8	C4H5S+
86.0059	73	C3H4NS+
89.0385	2	C7H5+
90.0464	18	C7H6+
91.0542	223	C7H7+
94.0651	1	C6H8N+
95.0491	14	C6H7O+
95.0603	2	C5H7N2+
97.0107	2	C5H5S+
97.0284	5	C5H5O2+
99.0263	2	C5H7S+
99.9851	1	C3H2NOS+
103.0543	29	C8H7+
105.0446	2	C6H5N2+
106.0651	999	C7H8N+
107.0492	1	C7H7O+
108.0444	1	C6H6NO+
108.0571	1	C7H8O+
112.0215	49	C5H6NS+
114.0008	165	C4H4NOS+
115.0542	8	C9H7+
116.0494	1	C8H6N+
117.0573	79	C8H7N+
118.0413	102	C8H6O+
118.0651	352	C8H8N+
119.0491	32	C8H7O+
121.0106	34	C7H5S+
123.0262	39	C7H7S+
124.0217	2	C6H6NS+
126.0373	6	C6H8NS+
126.055	1	C6H8NO2+
128.0495	13	C9H6N+
130.0652	29	C9H8N+
131.0492	5	C9H7O+
131.0731	2	C9H9N+
132.0809	2	C9H10N+
134.06	6	C8H8NO+
135.0263	12	C8H7S+
137.042	14	C8H9S+
139.0325	5	C6H7N2S+
140.016	1	C6H6NOS+
141.0481	4	C6H9N2S+
146.0601	89	C9H8NO+
147.0263	37	C9H7S+
150.0374	11	C8H8NS+
158.0271	238	C6H8NO2S+
159.0679	1	C10H9NO+
162.0373	25	C9H8NS+
164.0527	13	C9H10NS+
167.0732	1	C12H9N+
173.0297	4	C10H7NS+
174.0374	14	C10H8NS+
174.055	14	C10H8NO2+
178.0322	2	C9H8NOS+
180.0809	2	C13H10N+
181.089	1	C13H11N+
183.0917	1	C12H11N2+
185.1082	1	C12H13N2+
190.0326	1	C10H8NOS+
191.0398	1	C10H9NOS+
196.0762	4	C7H16O4S+
229.0802	1	C13H13N2S+
