Mass spectrum: Permethrin; LC-ESI-QFT; MS2; CE: 60; R=35000; [M+H]+
Name: Permethrin
Name: [3-(phenyloxy)phenyl]methyl 3-(2,2-dichloroethenyl)-2,2-dimethylcyclopropanecarboxylate
Name: (3-phenoxyphenyl)methyl 3-(2,2-dichloroethenyl)-2,2-dimethylcyclopropane-1-carboxylate
Formula: C21H20Cl2O3
Exact mass: 390.07895
SMILES: Cl/C(Cl)=C/C3C(C(=O)OCc2cccc(Oc1ccccc1)c2)C3(C)C
InChI: InChI=1S/C21H20Cl2O3/c1-21(2)17(12-18(22)23)19(21)20(24)25-13-14-7-6-10-16(11-14)26-15-8-4-3-5-9-15/h3-12,17,19H,13H2,1-2H3
Instrument: Q Exactive Orbitrap Thermo Scientific
Instrument type: LC-ESI-QFT
Ms type: MS2
Ion mode: POSITIVE
Ionization: ESI
Fragmentation mode: HCD
Collision energy: 60 (nominal)
Resolution: 35000
Column name: XBridge C18 3.5um, 2.1x50mm, Waters
Retention time: 18.0 min
Base peak: 183.0804
Precursor m/z: 391.0862
Precursor type: [M+H]+
m/z	relative intensity	assigned
57.0699	44	C4H9+
65.0385	9	C5H5+
67.0542	1	C5H7+
71.0855	62	C5H11+
77.0152	3	C3H6Cl+
93.0334	4	C6H5O+
95.0491	2	C6H7O+
111.0441	4	C6H7O2+
115.0542	3	C9H7+
121.0284	42	C7H5O2+
121.0396	6	C6H5N2O+
128.062	2	C10H8+
129.0698	3	C10H9+
139.0543	2	C11H7+
140.0621	2	C11H8+
141.0697	1	C11H9+
149.0234	999	C8H5O3+
152.0621	1	C12H8+
153.0699	7	C12H9+
154.0778	3	C12H10+
155.0855	6	C12H11+
162.0228	3	C10H7Cl+
165.0699	16	C13H9+
166.0777	2	C13H10+
167.034	10	C8H7O4+
167.0855	14	C13H11+
168.057	20	C12H8O+
175.0308	3	C11H8Cl+
179.0856	2	C14H11+
180.0934	12	C14H12+
181.049	1	C9H9O4+
181.065	2	C13H9O+
181.101	6	C14H13+
182.0729	2	C13H10O+
182.109	2	C14H14+
183.0806	16	C13H11O+
207.0806	1	C15H11O+
218.0727	1	C16H10O+
219.0807	1	C16H11O+
233.0958	4	C17H13O+
237.0912	1	C16H13O2+
255.0572	2	C16H12ClO+
261.0915	2	C18H13O2+
