Mass spectrum: Ranitidine; LC-ESI-ITFT; MS2; CE: 90%; R=30000; [M+H]+
Name: Ranitidine
Name: 1,1-Ethenediamine, N-(2-(((5-((dimethylamino)methyl)-2-furanyl)methyl)thio)ethyl)-N'-methyl-2-nitro-
Name: 1-N'-[2-[[5-(dimethylaminomethyl)furan-2-yl]methylsulfanyl]ethyl]-1-N-methyl-2-nitroethene-1,1-diamine
Formula: C13H22N4O3S
Exact mass: 314.1413
SMILES: CN\C(NCCSCC1=CC=C(CN(C)C)O1)=C/[N+]([O-])=O
InChI: InChI=1S/C13H22N4O3S/c1-14-13(9-17(18)19)15-6-7-21-10-12-5-4-11(20-12)8-16(2)3/h4-5,9,14-15H,6-8,10H2,1-3H3/b13-9+
Instrument: LTQ Orbitrap XL Thermo Scientific
Instrument type: LC-ESI-ITFT
Ms type: MS2
Ion mode: POSITIVE
Ionization: ESI
Fragmentation mode: HCD
Collision energy: 90 % (nominal)
Resolution: 30000
Column name: XBridge C18 3.5um, 2.1x50mm, Waters
Retention time: 1.9 min
Base peak: 315.1494
Precursor m/z: 315.1485
Precursor type: [M+H]+
m/z	relative intensity	assigned
54.0337	7	C3H4N+
55.0416	26	C3H5N+
56.0494	70	C3H6N+
57.0446	8	C2H5N2+
58.065	19	C3H8N+
60.0028	9	C2H4S+
60.998	8	CH3NS+
61.0106	72	C2H5S+
68.0494	27	C4H6N+
71.0604	9	C3H7N2+
78.0463	8	C6H6+
79.0542	29	C6H7+
80.0494	22	C5H6N+
81.0335	887	C5H5O+
82.0651	23	C5H8N+
83.0603	69	C4H7N2+
84.0681	7	C4H8N2+
88.0215	24	C3H6NS+
91.0542	32	C7H7+
94.0412	15	C6H6O+
94.0651	70	C6H8N+
95.049	48	C6H7O+
95.0728	19	C6H9N+
96.0683	11	C5H8N2+
97.0106	31	C5H5S+
97.076	571	C5H9N2+
98.0838	97	C5H10N2+
101.0169	8	C3H5N2S+
101.0293	8	C4H7NS+
102.0372	999	C4H8NS+
106.0651	26	C7H8N+
107.0491	219	C7H7O+
108.0569	18	C7H8O+
108.0807	33	C7H10N+
109.0283	7	C6H5O2+
109.0758	7	C6H9N2+
110.06	21	C6H8NO+
110.0964	56	C7H12N+
115.0324	24	C4H7N2S+
117.048	34	C4H9N2S+
118.0321	6	C4H8NOS+
118.065	56	C8H8N+
120.0806	29	C8H10N+
121.0759	135	C7H9N2+
122.0598	17	C7H8NO+
123.0262	22	C7H7S+
124.0755	8	C7H10NO+
125.0055	452	C6H5OS+
129.048	53	C5H9N2S+
130.0558	109	C5H10N2S+
131.0637	13	C5H11N2S+
132.0443	148	C8H6NO+
133.0521	118	C8H7NO+
133.0759	15	C8H9N2+
134.06	16	C8H8NO+
134.0836	6	C8H10N2+
135.0261	10	C8H7S+
135.0916	153	C8H11N2+
136.0757	19	C8H10NO+
137.1072	8	C8H13N2+
147.0678	9	C9H9NO+
147.0914	21	C9H11N2+
148.0756	157	C9H10NO+
149.0709	31	C8H9N2O+
149.1074	9	C9H13N2+
150.0371	20	C8H8NS+
150.0912	5	C9H12NO+
151.0211	33	C8H7OS+
160.0756	15	C10H10NO+
163.0865	51	C9H11N2O+
165.102	10	C9H13N2O+
167.0636	17	C8H11N2S+
176.0502	8	C13H6N+
177.1021	56	C10H13N2O+
178.032	26	C9H8NOS+
181.0789	6	C9H13N2S+
192.0476	18	C10H10NOS+
