Mass spectrum: Meclofenamic Acid; LC-ESI-QFT; MS2; CE: 120; R=35000; [M+H]+
Name: Meclofenamic Acid
Name: 2-(2,6-dichloro-3-methylanilino)benzoic acid
Formula: C14H11Cl2NO2
Exact mass: 295.01668
SMILES: CC1=C(C(=C(C=C1)Cl)NC2=CC=CC=C2C(=O)O)Cl
InChI: InChI=1S/C14H11Cl2NO2/c1-8-6-7-10(15)13(12(8)16)17-11-5-3-2-4-9(11)14(18)19/h2-7,17H,1H3,(H,18,19)
Instrument: Q Exactive Plus Orbitrap Thermo Scientific
Instrument type: LC-ESI-QFT
Ms type: MS2
Ion mode: POSITIVE
Ionization: ESI
Fragmentation mode: HCD
Collision energy: 120 (nominal)
Resolution: 35000
Column name: XBridge C18 3.5um, 2.1x50mm, Waters
Retention time: 14.0 min
Base peak: 296.0233
Precursor m/z: 296.024
Precursor type: [M+H]+
m/z	relative intensity	assigned
50.0151	11	C4H2+
51.0229	10	C4H3+
53.0386	10	C4H5+
63.0228	6	C5H3+
64.0307	1	C5H4+
65.0386	1	C5H5+
66.0464	6	C5H6+
75.0229	12	C6H3+
76.0306	14	C6H4+
77.0385	45	C6H5+
78.0463	5	C6H6+
81.0335	3	C5H5O+
89.0385	18	C7H5+
90.0464	3	C7H6+
91.0541	2	C7H7+
92.0257	5	C6H4O+
94.0413	2	C6H6O+
95.0491	37	C6H7O+
98.9994	1	C5H4Cl+
99.0228	1	C8H3+
101.0385	1	C8H5+
102.0337	5	C7H4N+
102.0463	8	C8H6+
103.0414	4	C7H5N+
103.0543	4	C8H7+
104.0492	1	C7H6N+
105.0335	7	C7H5O+
105.0447	30	C6H5N2+
112.0075	1	C6H5Cl+
113.0385	3	C9H5+
115.0543	7	C9H7+
116.0496	1	C8H6N+
117.0209	1	C7H3NO+
117.0574	4	C8H7N+
125.0153	1	C7H6Cl+
125.0385	11	C10H5+
126.0464	26	C10H6+
127.0418	5	C9H5N+
127.0542	15	C10H7+
128.0495	58	C9H6N+
128.062	15	C10H8+
129.0447	10	C8H5N2+
129.0573	10	C9H7N+
130.0289	6	C8H4NO+
130.04	7	C7H4N3+
130.0652	2	C9H8N+
137.0387	2	C11H5+
139.0058	2	C9HNO+
139.0543	9	C11H7+
140.0494	30	C10H6N+
141.0574	6	C10H7N+
145.0648	11	C10H9O+
146.06	18	C9H8NO+
149.0388	2	C12H5+
150.0464	58	C12H6+
151.0542	165	C12H7+
152.0494	33	C11H6N+
152.0621	529	C12H8+
153.0573	95	C11H7N+
153.0699	81	C12H9+
154.0651	44	C11H8N+
155.0603	29	C10H7N2+
155.0729	18	C11H9N+
163.0541	3	C13H7+
164.0494	45	C12H6N+
165.0575	8	C12H7N+
166.0653	3	C12H8N+
167.0732	5	C12H9N+
168.0569	1	C12H8O+
169.0648	315	C12H9O+
170.0601	26	C11H8NO+
173.0152	5	C11H6Cl+
174.0106	6	C10H5ClN+
176.0497	5	C13H6N+
177.0574	204	C13H7N+
178.0651	999	C13H8N+
179.061	152	C12H7N2+
179.0729	676	C13H9N+
180.0807	588	C13H10N+
182.06	27	C12H8NO+
183.0679	18	C12H9NO+
183.0801	4	C13H11O+
185.0471	14	C11H7NO2+
186.0231	3	C12H7Cl+
186.0549	4	C11H8NO2+
187.031	3	C12H8Cl+
188.0261	4	C11H7ClN+
188.0496	4	C14H6N+
189.0339	1	C11H8ClN+
189.057	1	C14H7N+
190.0648	5	C14H8N+
194.06	14	C13H8NO+
195.0678	1	C13H9NO+
196.0758	30	C13H10NO+
200.0261	19	C12H7ClN+
204.0557	11	C13H6N3+
206.0602	37	C14H8NO+
207.0679	52	C14H9NO+
208.0757	49	C14H10NO+
211.0628	34	C13H9NO2+
212.0263	4	C13H7ClN+
213.034	127	C13H8ClN+
214.0419	233	C13H9ClN+
216.0212	21	C12H7ClNO+
217.029	7	C12H8ClNO+
241.029	10	C14H8ClNO+
242.0367	63	C14H9ClNO+
243.0443	4	C14H10ClNO+
245.0238	13	C13H8ClNO2+
