Mass spectrum: Olanzapine; LC-ESI-QFT; MS2; CE: 180; R=35000; [M+H]+
Name: Olanzapine
Name: 2-methyl-4-(4-methylpiperazin-1-yl)-5H-thieno[3,2-c][1,5]benzodiazepine
Formula: C17H20N4S
Exact mass: 312.14087
SMILES: CC1=CC2=C(NC3=CC=CC=C3N=C2S1)N4CCN(CC4)C
InChI: InChI=1S/C17H20N4S/c1-12-11-13-16(21-9-7-20(2)8-10-21)18-14-5-3-4-6-15(14)19-17(13)22-12/h3-6,11,18H,7-10H2,1-2H3
Instrument: Q Exactive Plus Orbitrap Thermo Scientific
Instrument type: LC-ESI-QFT
Ms type: MS2
Ion mode: POSITIVE
Ionization: ESI
Fragmentation mode: HCD
Collision energy: 180 (nominal)
Resolution: 35000
Column name: XBridge C18 3.5um, 2.1x50mm, Waters
Retention time: 3.1 min
Base peak: 313.1474
Precursor m/z: 313.1481
Precursor type: [M+H]+
m/z	relative intensity	assigned
50.0151	197	C4H2+
51.023	169	C4H3+
52.0182	44	C3H2N+
52.0308	6	C4H4+
53.0022	36	C3HO+
53.0386	95	C4H5+
53.9975	5	C2NO+
54.0339	18	C3H4N+
55.0179	13	C3H3O+
56.0495	38	C3H6N+
57.9872	51	C2H2S+
58.0651	46	C3H8N+
58.995	193	C2H3S+
59.9665	21	COS+
59.9903	4	CH2NS+
61.0073	23	C5H+
62.0151	85	C5H2+
63.0229	375	C5H3+
64.0182	75	C4H2N+
64.0308	22	C5H4+
65.0386	645	C5H5+
66.0464	47	C5H6+
67.0417	20	C4H5N+
68.0495	13	C4H6N+
68.9793	617	C3HS+
69.9746	43	C2NS+
69.9872	35	C3H2S+
70.995	57	C3H3S+
74.0151	248	C6H2+
75.0229	622	C6H3+
76.0181	107	C5H2N+
76.0307	217	C6H4+
77.0021	11	
77.0385	169	C6H5+
78.0338	53	C5H4N+
78.0464	43	C6H6+
79.0417	14	C5H5N+
79.0543	2	C6H7+
80.0494	13	C5H6N+
81.0335	28	C5H5O+
81.9872	66	C4H2S+
82.9949	19	C4H3S+
83.0605	2	C4H7N2+
85.0107	5	C4H5S+
85.0761	4	C4H9N2+
86.0151	23	
87.0229	93	C7H3+
88.0182	56	C6H2N+
88.0308	130	C7H4+
89.0386	921	C7H5+
90.0339	76	C6H4N+
90.0464	148	C7H6+
91.0417	48	C6H5N+
91.0542	64	C7H7+
92.0496	35	C6H6N+
92.9794	104	C5HS+
93.9746	43	C4NS+
93.9872	30	C5H2S+
94.0414	5	C6H6O+
94.995	26	C5H3S+
95.0492	232	C6H7O+
95.9902	50	C4H2NS+
96.0028	27	C5H4S+
96.0445	20	C5H6NO+
97.0106	5	C5H5S+
98.0151	50	C8H2+
99.0103	31	
99.0229	259	C8H3+
100.0181	101	C7H2N+
100.0307	149	C8H4+
101.0261	29	C7H3N+
101.0386	59	C8H5+
102.0339	143	C7H4N+
102.0464	666	C8H6+
103.0417	70	C7H5N+
103.0542	14	C8H7+
104.0496	29	C7H6N+
105.0448	160	C6H5N2+
106.9949	12	C6H3S+
108.0029	76	C6H4S+
109.0107	89	C6H5S+
112.0182	10	
113.0386	332	C9H5+
114.0339	230	C8H4N+
114.0464	90	C9H6+
115.0417	152	C8H5N+
115.0543	999	C9H7+
116.0495	181	C8H6N+
116.0622	11	C9H8+
116.9793	23	
117.0573	60	C8H7N+
117.9871	16	C7H2S+
118.0289	10	
118.0413	20	C8H6O+
118.0526	15	C7H6N2+
118.995	28	C7H3S+
119.0492	28	C8H7O+
119.0605	5	C7H7N2+
120.0028	34	C7H4S+
120.0207	6	H4N6S+
120.0445	23	C7H6NO+
121.0108	22	C7H5S+
122.0059	15	C6H4NS+
125.0387	248	C10H5+
126.0339	91	C9H4N+
126.0464	236	C10H6+
127.0417	527	C9H5N+
127.0542	79	C10H7+
128.0369	6	C8H4N2+
128.0495	103	C9H6N+
128.062	26	C10H8+
129.0447	153	C8H5N2+
129.0573	15	C9H7N+
130.04	136	C7H4N3+
130.0653	11	C9H8N+
131.0605	12	C8H7N2+
132.0027	3	C8H4S+
132.0445	15	C8H6NO+
132.057	39	C9H8O+
132.998	11	C7H3NS+
133.0523	12	C8H7NO+
134.0059	12	C7H4NS+
134.0185	12	C8H6S+
134.0601	6	C8H8NO+
138.0338	43	C10H4N+
139.0418	17	C10H5N+
139.0543	24	C11H7+
140.0495	661	C10H6N+
141.0448	6	C9H5N2+
141.0573	77	C10H7N+
142.0526	85	C9H6N2+
142.0652	12	C10H8N+
142.9951	18	
143.0492	51	C10H7O+
143.0605	15	C9H7N2+
143.9903	11	C8H2NS+
144.003	16	C9H4S+
144.0445	16	C9H6NO+
145.0107	274	C9H5S+
145.0646	39	C10H9O+
146.006	72	C8H4NS+
146.0184	31	C9H6S+
146.06	24	C9H8NO+
150.0465	15	C12H6+
151.0417	83	C11H5N+
152.0496	135	C11H6N+
153.0448	189	C10H5N2+
153.0574	67	C11H7N+
154.04	96	C9H4N3+
154.0525	21	C10H6N2+
154.0651	56	C11H8N+
155.0604	121	C10H7N2+
157.0104	4	C10H5S+
157.0525	18	C10H7NO+
158.0186	23	C10H6S+
159.0137	14	C9H5NS+
159.0265	5	C10H7S+
159.0554	6	C9H7N2O+
160.0216	2	C9H6NS+
161.0171	2	C8H5N2S+
164.0493	27	C12H6N+
165.0449	28	C11H5N2+
166.0527	28	C11H6N2+
166.0653	12	C12H8N+
167.0603	53	C11H7N2+
167.0725	5	C12H9N+
168.0683	61	C11H8N2+
169.0109	3	C11H5S+
169.0646	5	C12H9O+
169.0759	12	C11H9N2+
170.006	337	C10H4NS+
170.0601	154	C11H8NO+
171.0138	13	C10H5NS+
171.0262	4	C11H7S+
171.0553	26	C10H7N2O+
172.0215	14	C10H6NS+
173.0176	3	C9H5N2S+
177.0449	4	C12H5N2+
177.0571	4	C13H7N+
178.0526	26	C12H6N2+
178.0649	5	C13H8N+
179.0604	124	C12H7N2+
180.0556	53	C11H6N3+
180.0681	5	C12H8N2+
181.0759	4	C12H9N2+
183.0138	21	C11H5NS+
184.0217	39	C11H6NS+
185.0293	18	C11H7NS+
186.0373	12	C11H8NS+
187.0318	2	C10H7N2S+
191.0601	6	C13H7N2+
192.0682	31	C13H8N2+
193.063	10	C12H7N3+
193.0764	13	C13H9N2+
194.0714	17	C12H8N3+
196.0217	6	C12H6NS+
197.017	82	C11H5N2S+
197.0293	12	C12H7NS+
198.0249	3	C11H6N2S+
198.0368	5	C12H8NS+
205.0762	5	C14H9N2+
206.0713	21	C13H8N3+
207.0797	3	C13H9N3+
210.0248	13	C12H6N2S+
211.0328	31	C12H7N2S+
218.0716	3	C14H8N3+
219.0792	4	C14H9N3+
220.0868	6	C14H10N3+
223.0329	3	C13H7N2S+
