Mass spectrum: Ranitidine N-oxide; LC-ESI-ITFT; MS2; CE: 35%; R=7500; [M+H]+
Name: Ranitidine N-oxide
Name: 1,1-Ethenediamine, N-(2-(((5-((dimethylamino)methyl)-2-furanyl)methyl)thio)ethyl)-N'-methyl-2-nitro-, N-oxide
Formula: C13H22N4O4S
Exact mass: 330.1362
SMILES: c1(oc(CSCCN\C(=C\[N+](=O)[O-])NC)cc1)CN(C)(C)=O
InChI: InChI=1S/C13H22N4O4S/c1-14-13(8-16(18)19)15-6-7-22-10-12-5-4-11(21-12)9-17(2,3)20/h4-5,8,14-15H,6-7,9-10H2,1-3H3/b13-8+
Instrument: LTQ Orbitrap XL Thermo Scientific
Instrument type: LC-ESI-ITFT
Ms type: MS2
Ion mode: POSITIVE
Ionization: ESI
Fragmentation mode: CID
Collision energy: 35 % (nominal)
Resolution: 7500
Column name: XBridge C18 3.5um, 2.1x50mm, Waters
Retention time: 2.4 min
Base peak: 331.1444
Precursor m/z: 331.1435
Precursor type: [M+H]+
m/z	relative intensity	assigned
88.0214	6	C3H6NS+
98.0837	3	C5H10N2+
102.0372	2	C4H8NS+
117.0477	2	C4H9N2S+
124.0757	270	C7H10NO+
130.0553	4	C5H10N2S+
131.0637	3	C5H11N2S+
144.0766	25	C5H10N3O2+
145.0428	8	C5H9N2OS+
147.0217	3	C4H7N2O2S+
170.0632	3	C8H12NOS+
176.0488	178	C5H10N3O2S+
188.0485	7	C6H10N3O2S+
191.1178	2	C11H15N2O+
224.0978	46	C11H16N2OS+
225.1056	23	C11H17N2OS+
241.1007	13	C11H17N2O2S+
270.0909	999	C11H16N3O3S+
