Mass spectrum: Metoxuron; LC-ESI-QFT; MS2; CE: 180; R=35000; [M+H]+
Name: Metoxuron
Name: 3-(3-chloro-4-methoxyphenyl)-1,1-dimethylurea
Formula: C10H13ClN2O2
Exact mass: 228.06656
SMILES: Clc1cc(ccc1OC)NC(=O)N(C)C
InChI: InChI=1S/C10H13ClN2O2/c1-13(2)10(14)12-7-4-5-9(15-3)8(11)6-7/h4-6H,1-3H3,(H,12,14)
Instrument: Q Exactive Plus Orbitrap Thermo Scientific
Instrument type: LC-ESI-QFT
Ms type: MS2
Ion mode: POSITIVE
Ionization: ESI
Fragmentation mode: HCD
Collision energy: 180 (nominal)
Resolution: 35000
Column name: XBridge C18 3.5um, 2.1x50mm, Waters
Retention time: 6.1 min
Base peak: 229.0737
Precursor m/z: 229.0738
Precursor type: [M+H]+
m/z	relative intensity	assigned
50.0151	141	C4H2+
51.023	338	C4H3+
52.0182	534	C3H2N+
53.0022	17	C3HO+
56.0131	489	C2H2NO+
62.0151	17	C5H2+
63.0229	107	C5H3+
65.0022	13	C4HO+
65.0386	16	C5H5+
72.0443	999	C3H6NO+
72.9839	5	C3H2Cl+
74.015	22	C6H2+
75.0229	29	C6H3+
77.0386	2	C6H5+
78.0338	94	C5H4N+
79.0178	28	C5H3O+
80.013	117	C4H2NO+
84.984	3	C4H2Cl+
85.9917	11	C4H3Cl+
86.9996	13	
106.0288	13	C6H4NO+
114.0106	7	C5H5ClN+
