Mass spectrum: Bensulfuron-Methyl; LC-ESI-QFT; MS2; CE: 75%; R=17500; [M-H]-
Name: Bensulfuron-Methyl
Name: methyl 2-[(4,6-dimethoxypyrimidin-2-yl)carbamoylsulfamoylmethyl]benzoate
Formula: C16H18N4O7S
Exact mass: 410.0896
SMILES: COC1=CC(=NC(=N1)NC(=O)NS(=O)(=O)CC2=CC=CC=C2C(=O)OC)OC
InChI: InChI=1S/C16H18N4O7S/c1-25-12-8-13(26-2)18-15(17-12)19-16(22)20-28(23,24)9-10-6-4-5-7-11(10)14(21)27-3/h4-8H,9H2,1-3H3,(H2,17,18,19,20,22)
Instrument: Exploris 240 Orbitrap Thermo Scientific
Instrument type: LC-ESI-QFT
Ms type: MS2
Ion mode: NEGATIVE
Ionization: ESI
Fragmentation mode: HCD
Collision energy: 75 % (nominal)
Resolution: 17500
Column name: XBridge C18 3.5um, 2.1x50mm, Waters
Retention time: 7.818 min
Base peak: 409.0823
Precursor m/z: 409.0823
Precursor type: [M-H]-
m/z	relative intensity	assigned
65.0145	785	C3HN2-
65.9985	945	C3NO-
78.9734	26	HNO2S-
82.0172	130	C3H2N2O-
90.01	97	C4N3-
97.0407	50	C4H5N2O-
102.035	241	C7H4N-
107.0126	669	C4HN3O-
109.0282	38	C4H3N3O-
122.036	999	C5H4N3O-
124.0516	101	C5H6N3O-
130.0295	27	C8H4NO-
132.0455	212	C8H6NO-
139.0385	558	C5H5N3O2-
154.062	912	C6H8N3O2-
196.0071	141	C8H6NO3S-
