Mass spectrum: Quinalphos; LC-ESI-QFT; MS2; CE: 60%; R=17500; [M+H]+
Name: Quinalphos
Name: diethoxy-quinoxalin-2-yloxy-sulfanylidene-lambda5-phosphane
Formula: C12H15N2O3PS
Exact mass: 298.0541
SMILES: CCOP(=S)(OCC)OC1=NC2=CC=CC=C2N=C1
InChI: InChI=1S/C12H15N2O3PS/c1-3-15-18(19,16-4-2)17-12-9-13-10-7-5-6-8-11(10)14-12/h5-9H,3-4H2,1-2H3
Instrument: Exploris 240 Orbitrap Thermo Scientific
Instrument type: LC-ESI-QFT
Ms type: MS2
Ion mode: POSITIVE
Ionization: ESI
Fragmentation mode: HCD
Collision energy: 60 % (nominal)
Resolution: 17500
Column name: XBridge C18 3.5um, 2.1x50mm, Waters
Retention time: 10.502 min
Base peak: 299.061
Precursor m/z: 299.0614
Precursor type: [M+H]+
m/z	relative intensity	assigned
80.9735	21	H2O3P+
90.9942	7	C2H4O2P+
96.9507	690	H2O2PS+
109.0049	40	C2H6O3P+
110.9663	23	CH4O2PS+
114.9613	234	H4O3PS+
119.0604	112	C7H7N2+
124.982	32	C2H6O2PS+
128.9765	15	CH6O3PS+
129.0447	87	C8H5N2+
147.0553	999	C8H7N2O+
163.0324	859	C8H7N2S+
224.988	68	C12H3NO2S+
242.9993	32	C8H8N2O3PS+
