Mass spectrum: Fenpropimorph; LC-ESI-ITFT; MS2; CE: 75%; R=7500; [M+H]+
Name: Fenpropimorph
Name: (2S,6R)-4-[3-(4-tert-butylphenyl)-2-methyl-propyl]-2,6-dimethyl-morpholine
Formula: C20H33NO
Exact mass: 303.2557
SMILES: CC1CN(CC(O1)C)CC(C)CC2=CC=C(C=C2)C(C)(C)C
InChI: InChI=1S/C20H33NO/c1-15(12-21-13-16(2)22-17(3)14-21)11-18-7-9-19(10-8-18)20(4,5)6/h7-10,15-17H,11-14H2,1-6H3/t15?,16-,17+
Instrument: LTQ Orbitrap XL Thermo Scientific
Instrument type: LC-ESI-ITFT
Ms type: MS2
Ion mode: POSITIVE
Ionization: ESI
Fragmentation mode: HCD
Collision energy: 75 % (nominal)
Resolution: 7500
Column name: XBridge C18 3.5um, 2.1x50mm, Waters
Retention time: 9.4 min
Base peak: 304.2639
Precursor m/z: 304.2635
Precursor type: [M+H]+
m/z	relative intensity	assigned
56.0494	7	C3H6N+
57.0698	60	C4H9+
59.0492	8	C3H7O+
70.0652	18	C4H8N+
72.0807	10	C4H10N+
79.0546	5	C6H7+
81.0701	9	C6H9+
86.0964	5	C5H12N+
88.0755	5	C4H10NO+
91.0543	50	C7H7+
93.0701	6	C7H9+
98.0965	275	C6H12N+
102.0913	9	C5H12NO+
105.0699	220	C8H9+
107.0855	32	C8H11+
112.1116	4	C7H14N+
116.107	66	C6H14NO+
117.0699	80	C9H9+
119.0856	272	C9H11+
130.1227	87	C7H16NO+
131.0856	9	C10H11+
132.0934	346	C10H12+
145.1017	18	C11H13+
146.1096	6	C11H14+
147.1169	999	C11H15+
159.1172	6	C12H15+
161.1322	24	C12H17+
