Mass spectrum: Zonisamide; LC-ESI-QFT; MS2; CE: 90; R=35000; [M+H]+
Name: Zonisamide
Name: AD-810
Name: 1,2-benzoxazol-3-ylmethanesulfonamide
Formula: C8H8N2O3S
Exact mass: 212.02556
SMILES: O=S(=O)(N)Cc2noc1ccccc12
InChI: InChI=1S/C8H8N2O3S/c9-14(11,12)5-7-6-3-1-2-4-8(6)13-10-7/h1-4H,5H2,(H2,9,11,12)
Instrument: Q Exactive Orbitrap Thermo Scientific
Instrument type: LC-ESI-QFT
Ms type: MS2
Ion mode: POSITIVE
Ionization: ESI
Fragmentation mode: HCD
Collision energy: 90 (nominal)
Resolution: 35000
Column name: XBridge C18 3.5um, 2.1x50mm, Waters
Retention time: 4.4 min
Base peak: 213.0329
Precursor m/z: 213.0328
Precursor type: [M+H]+
m/z	relative intensity	assigned
50.0153	405	C4H2+
51.0231	410	C4H3+
53.0387	382	C4H5+
55.018	18	C3H3O+
75.0229	40	C6H3+
77.0386	517	C6H5+
92.0256	32	
95.0492	999	C6H7O+
96.0443	35	C5H6NO+
102.0339	35	C7H4N+
104.0495	273	C7H6N+
105.0335	87	C7H5O+
105.0449	318	C6H5N2+
120.0443	41	C7H6NO+
130.0398	130	C7H4N3+
150.0552	48	C8H8NO2+
