Mass spectrum: Pyridaphenthion; LC-ESI-QFT; MS2; CE: 120%; R=17500; [M+H]+
Name: Pyridaphenthion
Name: 6-diethoxyphosphinothioyloxy-2-phenylpyridazin-3-one
Formula: C14H17N2O4PS
Exact mass: 340.0647
SMILES: CCOP(=S)(OCC)OC1=NN(C(=O)C=C1)C2=CC=CC=C2
InChI: InChI=1S/C14H17N2O4PS/c1-3-18-21(22,19-4-2)20-13-10-11-14(17)16(15-13)12-8-6-5-7-9-12/h5-11H,3-4H2,1-2H3
Instrument: Exploris 240 Orbitrap Thermo Scientific
Instrument type: LC-ESI-QFT
Ms type: MS2
Ion mode: POSITIVE
Ionization: ESI
Fragmentation mode: HCD
Collision energy: 120 % (nominal)
Resolution: 17500
Column name: XBridge C18 3.5um, 2.1x50mm, Waters
Retention time: 9.373 min
Base peak: 341.0719
Precursor m/z: 341.0719
Precursor type: [M+H]+
m/z	relative intensity	assigned
51.0229	26	C4H3+
52.0181	16	C3H2N+
53.0386	24	C4H5+
64.9787	88	H2O2P+
65.0386	999	C5H5+
70.029	10	C3H4NO+
77.0385	115	C6H5+
78.9402	63	OPS+
80.0133	23	H5N2OP+
89.0386	41	C7H5+
91.0419	11	C2H8N2P+
91.0544	22	C7H7+
92.0495	310	C6H6N+
93.0573	43	C6H7N+
95.0492	27	C6H7O+
96.9508	253	H2O2PS+
103.042	7	C3H8N2P+
105.0448	35	C6H5N2+
107.0604	22	C6H7N2+
109.0108	12	C2H8NPS+
113.0344	13	C4H5N2O2+
114.9613	84	H4O3PS+
116.0497	43	C4H9N2P+
117.0576	17	C8H7N+
119.0602	11	C7H7N2+
130.0403	13	CH10N2O3S+
130.0649	13	C9H8N+
131.0492	8	C9H7O+
143.0605	39	C9H7N2+
144.0447	14	C5H9N2OP+
