Mass spectrum: Indapamide; LC-ESI-QFT; MS2; CE: 75; R=35000; [M-H]-
Name: Indapamide
Name: 4-chloro-N-(2-methyl-2,3-dihydroindol-1-yl)-3-sulfamoylbenzamide
Formula: C16H16ClN3O3S
Exact mass: 365.06009
SMILES: CC1CC2=CC=CC=C2N1NC(=O)C3=CC(=C(C=C3)Cl)S(=O)(=O)N
InChI: InChI=1S/C16H16ClN3O3S/c1-10-8-11-4-2-3-5-14(11)20(10)19-16(21)12-6-7-13(17)15(9-12)24(18,22)23/h2-7,9-10H,8H2,1H3,(H,19,21)(H2,18,22,23)
Instrument: Q Exactive Plus Orbitrap Thermo Scientific
Instrument type: LC-ESI-QFT
Ms type: MS2
Ion mode: NEGATIVE
Ionization: ESI
Fragmentation mode: HCD
Collision energy: 75 (nominal)
Resolution: 35000
Column name: XBridge C18 3.5um, 2.1x50mm, Waters
Retention time: 6.7 min
Base peak: 364.0524
Precursor m/z: 364.0528
Precursor type: [M-H]-
m/z	relative intensity	assigned
50.0035	2	C3N-
56.9804	5	C2HS-
57.9757	4	CNS-
61.9706	145	NOS-
63.0115	5	C4HN-
63.9625	125	O2S-
64.0193	8	C4H2N-
65.0033	2	C4HO-
65.0271	5	C4H3N-
65.9986	12	C3NO-
66.0111	3	C4H2O-
68.0142	2	C3H2NO-
68.9983	1	C3HO2-
76.0192	2	C5H2N-
77.0033	5	C5HO-
77.9655	999	NO2S-
78.9734	524	HNO2S-
79.9812	166	H2NO2S-
80.9653	5	HO3S-
81.9757	2	C3NS-
88.0193	38	C6H2N-
89.0271	90	C6H3N-
90.0349	36	C6H4N-
91.0302	36	C5H3N2-
92.0142	23	C5H2NO-
93.022	3	C5H3NO-
93.9604	41	NO3S-
98.9313	4	ClO2S-
103.0302	9	C6H3N2-
103.9903	1	C6O2-
104.0143	1	C6H2NO-
105.022	137	C6H3NO-
106.0061	15	C6H2O2-
107.9913	19	C5H2NS-
108.9851	5	C6H2Cl-
113.9422	3	ClHNO2S-
115.0302	67	C7H3N2-
116.0506	34	C8H6N-
117.0457	2	C7H5N2-
119.0249	2	C6H3N2O-
120.0091	11	C6H2NO2-
120.0329	36	C6H4N2O-
120.993	9	C6HO3-
122.0248	2	C6H4NO2-
123.9959	18	C6H3ClN-
125.0037	35	C6H4ClN-
126.0116	14	C6H5ClN-
130.0662	24	C9H8N-
131.0251	95	C7H3N2O-
132.0329	21	C7H4N2O-
132.0818	8	C9H10N-
133.0408	1	C7H5N2O-
135.9959	2	C7H3ClN-
140.9987	10	C6H4ClNO-
141.9826	6	C6H3ClO2-
148.0279	8	C7H4N2O2-
151.0069	67	C7H4ClN2-
151.991	2	C7H3ClNO-
152.989	4	C6H3NO2S-
153.997	9	C6H4NO2S-
157.0409	1	C9H5N2O-
167.0019	1	C7H4ClN2O-
171.056	1	C10H7N2O-
178.9921	60	C7H3N2O2S-
188.9657	246	C9HO3S-
189.9739	6	C6H5ClNO2S-
204.9607	8	C6H4ClNO3S-
214.9688	32	C7H4ClN2O2S-
