Mass spectrum: Tenofovir; LC-ESI-QFT; MS2; CE: 60; R=35000; [M-H]-
Name: Tenofovir
Name: [(1R)-2-adenin-9-yl-1-methyl-ethoxy]methylphosphonic acid
Formula: C9H14N5O4P
Exact mass: 287.07834
SMILES: O=P(O)(O)CO[C@H](C)Cn1c2ncnc(c2nc1)N
InChI: InChI=1S/C9H14N5O4P/c1-6(18-5-19(15,16)17)2-14-4-13-7-8(10)11-3-12-9(7)14/h3-4,6H,2,5H2,1H3,(H2,10,11,12)(H2,15,16,17)/t6-/m1/s1
Instrument: Q Exactive Orbitrap Thermo Scientific
Instrument type: LC-ESI-QFT
Ms type: MS2
Ion mode: NEGATIVE
Ionization: ESI
Fragmentation mode: HCD
Collision energy: 60 (nominal)
Resolution: 35000
Column name: XBridge C18 3.5um, 2.1x50mm, Waters
Retention time: 1.0 min
Base peak: 286.0711
Precursor m/z: 286.0711
Precursor type: [M-H]-
m/z	relative intensity	assigned
62.9641	212	O2P-
65.0145	1	C3HN2-
78.9591	42	O3P-
80.9747	105	H2O3P-
92.0254	13	C4H2N3-
92.9747	9	CH2O3P-
107.0364	71	C4H3N4-
110.9853	36	CH4O4P-
134.0472	999	C5H4N5-
151.0165	76	C4H8O4P-
286.0709	1	C9H13N5O4P-
