Mass spectrum: 4-Chlorobenzenesulfonamide; LC-ESI-QFT; MS2; CE: 60; R=35000; [M-H]-
Name: 4-Chlorobenzenesulfonamide
Name: 4-chlorobenzenesulfonamide
Formula: C6H6ClNO2S
Exact mass: 190.98078
SMILES: C1=CC(=CC=C1S(=O)(=O)N)Cl
InChI: InChI=1S/C6H6ClNO2S/c7-5-1-3-6(4-2-5)11(8,9)10/h1-4H,(H2,8,9,10)
Instrument: Q Exactive Orbitrap Thermo Scientific
Instrument type: LC-ESI-QFT
Ms type: MS2
Ion mode: NEGATIVE
Ionization: ESI
Fragmentation mode: HCD
Collision energy: 60 (nominal)
Resolution: 35000
Column name: XBridge C18 3.5um, 2.1x50mm, Waters
Retention time: 5.6 min
Base peak: 189.9738
Precursor m/z: 189.9735
Precursor type: [M-H]-
m/z	relative intensity	assigned
61.9706	389	NOS-
63.9624	161	O2S-
77.9655	512	NO2S-
78.9734	514	HNO2S-
79.9812	999	H2NO2S-
80.9652	8	HO3S-
93.9604	62	NO3S-
111.0007	4	C6H4Cl-
126.0116	852	C6H5ClN-
126.9957	94	C6H4ClO-
189.9736	72	C6H5ClNO2S-
