Mass spectrum: Codeine; LC-ESI-ITFT; MS2; CE: 90%; R=15000; [M+H]+
Name: Codeine
Name: (5,6)-3-Methoxy-17-methyl-7,8-didehydro-4,5-epoxymorphinan-6-ol
Name: Methylmorphine
Formula: C18H21NO3
Exact mass: 299.1521
SMILES: CN1CC[C@]23[C@@H]4[C@H]1CC5=C2C(=C(C=C5)OC)O[C@H]3[C@H](C=C4)O
InChI: InChI=1S/C18H21NO3/c1-19-8-7-18-11-4-5-13(20)17(18)22-16-14(21-2)6-3-10(15(16)18)9-12(11)19/h3-6,11-13,17,20H,7-9H2,1-2H3/t11-,12+,13-,17-,18-/m0/s1
Instrument: LTQ Orbitrap XL Thermo Scientific
Instrument type: LC-ESI-ITFT
Ms type: MS2
Ion mode: POSITIVE
Ionization: ESI
Fragmentation mode: HCD
Collision energy: 90 % (nominal)
Resolution: 15000
Column name: XBridge C18 3.5um, 2.1x50mm, Waters
Retention time: 2.8 min
Base peak: 300.1595
Precursor m/z: 300.1594
Precursor type: [M+H]+
m/z	relative intensity	assigned
55.0178	10	C3H3O+
57.0334	11	C3H5O+
58.0651	63	C3H8N+
67.0542	12	C5H7+
69.0335	21	C4H5O+
79.0542	20	C6H7+
81.0334	8	C5H5O+
83.049	13	C5H7O+
91.0542	65	C7H7+
93.0698	11	C7H9+
94.0417	6	C6H6O+
94.0649	8	C6H8N+
95.0492	12	C6H7O+
103.0541	44	C8H7+
105.0699	8	C8H9+
107.0489	17	C7H7O+
115.0542	182	C9H7+
116.0623	24	C9H8+
117.0696	13	C9H9+
121.0645	36	C8H9O+
122.0362	18	C7H6O2+
127.054	15	C10H7+
128.062	286	C10H8+
129.0699	156	C10H9+
131.0491	54	C9H7O+
131.0852	12	C10H11+
132.0807	11	C9H10N+
137.0596	95	C8H9O2+
139.0541	20	C11H7+
140.0618	10	C11H8+
141.0698	353	C11H9+
142.0776	49	C11H10+
143.0492	49	C10H7O+
143.0853	17	C11H11+
144.0569	227	C10H8O+
145.0648	56	C10H9O+
146.0361	30	C9H6O2+
146.0726	21	C10H10O+
147.0806	12	C10H11O+
151.0543	8	C12H7+
152.062	327	C12H8+
153.0697	939	C12H9+
154.0776	175	C12H10+
155.0491	103	C11H7O+
155.0603	81	C10H7N2+
155.0854	350	C12H11+
156.0569	189	C11H8O+
157.0647	97	C11H9O+
158.0726	150	C11H10O+
159.044	70	C10H7O2+
159.0803	99	C11H11O+
160.052	19	C10H8O2+
160.0752	10	C10H10NO+
161.0596	270	C10H9O2+
165.0698	999	C13H9+
166.0777	131	C13H10+
167.0853	72	C13H11+
168.0569	203	C12H8O+
169.0647	176	C12H9O+
169.0758	18	C11H9N2+
170.0361	38	C11H6O2+
170.0724	103	C12H10O+
171.0439	74	C11H7O2+
171.0804	498	C12H11O+
172.0518	77	C11H8O2+
172.0882	67	C12H12O+
173.0599	12	C11H9O2+
173.0957	12	C12H13O+
174.0676	33	C11H10O2+
175.0753	38	C11H11O2+
177.0699	21	C14H9+
178.0776	104	C14H10+
179.0854	79	C14H11+
180.0567	70	C13H8O+
180.094	13	C14H12+
181.0647	566	C13H9O+
182.0725	227	C13H10O+
183.0439	264	C12H7O2+
183.0803	147	C13H11O+
184.0518	91	C12H8O2+
184.0883	38	C13H12O+
185.0596	209	C12H9O2+
185.0961	43	C13H13O+
186.0673	66	C12H10O2+
187.0752	73	C12H11O2+
187.1119	15	C13H15O+
189.0699	56	C15H9+
190.0777	61	C15H10+
191.0854	77	C15H11+
192.0568	10	C14H8O+
193.0648	126	C14H9O+
193.076	16	C13H9N2+
193.1019	10	C15H13+
194.0725	138	C14H10O+
195.0804	76	C14H11O+
196.0518	15	C13H8O2+
196.0886	16	C14H12O+
197.0596	223	C13H9O2+
197.096	27	C14H13O+
198.0674	273	C13H10O2+
199.0753	294	C13H11O2+
200.083	53	C13H12O2+
201.0911	10	C13H13O2+
202.0771	15	C16H10+
203.0862	8	C16H11+
205.0649	42	C15H9O+
206.0724	10	C15H10O+
207.0802	40	C15H11O+
208.052	45	C14H8O2+
208.0881	22	C15H12O+
209.0597	101	C14H9O2+
209.096	15	C15H13O+
210.0674	107	C14H10O2+
211.0752	63	C14H11O2+
212.083	43	C14H12O2+
213.054	14	C13H9O3+
213.0909	48	C14H13O2+
215.107	37	C14H15O2+
218.0728	13	C16H10O+
219.0801	39	C16H11O+
220.1121	43	C16H14N+
221.0599	46	C15H9O2+
221.0962	12	C16H13O+
223.0752	102	C15H11O2+
225.0546	19	C14H9O3+
225.0909	89	C15H13O2+
226.0628	23	C14H10O3+
227.0696	13	C14H11O3+
235.0754	19	C16H11O2+
236.0822	15	C16H12O2+
239.07	13	C15H11O3+
241.0856	44	C15H13O3+
248.1073	20	C17H14NO+
250.1224	14	C17H16NO+
252.1021	11	C16H14NO2+
266.1178	27	C17H16NO2+
300.1587	14	C18H22NO3+
