Mass spectrum: Azoxystrobin (free acid); LC-ESI-ITFT; MS2; CE: 45%; R=7500; [M+H]+
Name: Azoxystrobin (free acid)
Formula: C21H15N3O5
Exact mass: 389.1012
SMILES: O=C(O)/C(=C\OC)c3ccccc3Oc2cc(Oc1ccccc1C#N)ncn2
InChI: InChI=1S/C21H15N3O5/c1-27-12-16(21(25)26)15-7-3-5-9-18(15)29-20-10-19(23-13-24-20)28-17-8-4-2-6-14(17)11-22/h2-10,12-13H,1H3,(H,25,26)/b16-12-
Instrument: LTQ Orbitrap XL Thermo Scientific
Instrument type: LC-ESI-ITFT
Ms type: MS2
Ion mode: POSITIVE
Ionization: ESI
Fragmentation mode: HCD
Collision energy: 45 % (nominal)
Resolution: 7500
Column name: XBridge C18 3.5um, 2.1x50mm, Waters
Retention time: 8.8 min
Base peak: 390.1088
Precursor m/z: 390.1084
Precursor type: [M+H]+
m/z	relative intensity	assigned
106.065	2	C7H8N+
107.049	4	C7H7O+
120.0443	5	C7H6NO+
129.0447	12	C8H5N2+
130.0397	4	C7H4N3+
131.0491	3	C9H7O+
132.0447	1	C8H6NO+
133.0521	3	C8H7NO+
134.0601	60	C8H8NO+
141.0447	6	C9H5N2+
143.036	2	C9H5NO+
143.0605	39	C9H7N2+
145.0286	23	C9H5O2+
146.0604	1	C9H8NO+
156.0444	11	C10H6NO+
157.0282	2	C10H5O2+
158.0345	1	C8H4N3O+
160.0386	5	C9H6NO2+
160.0753	1	C10H10NO+
160.0876	2	C9H10N3+
161.071	3	C9H9N2O+
162.0551	10	C9H8NO2+
169.0398	25	C10H5N2O+
171.0316	2	C10H5NO2+
171.0554	18	C10H7N2O+
172.0394	35	C10H6NO2+
173.0466	2	C10H7NO2+
176.0711	2	C10H10NO2+
177.0549	16	C10H9O3+
182.0483	2	C11H6N2O+
182.071	10	C11H8N3+
183.0554	50	C11H7N2O+
184.0398	2	C11H6NO2+
185.0239	3	C11H5O3+
186.0555	9	C11H8NO2+
187.0504	19	C10H7N2O2+
198.0792	2	C12H10N2O+
199.0503	5	C11H7N2O2+
200.0348	7	C11H6NO3+
201.0422	36	C11H7NO3+
201.066	39	C11H9N2O2+
202.0503	6	C11H8NO3+
203.0825	1	C11H11N2O2+
210.0427	14	C12H6N2O2+
210.0665	31	C12H8N3O+
211.0503	8	C12H7N2O2+
212.0338	3	C12H6NO3+
216.0658	97	C12H10NO3+
231.0895	2	C13H13NO3+
242.0323	17	C12H6N2O4+
258.0786	2	C17H10N2O+
262.086	4	C17H12NO2+
273.0658	9	C17H9N2O2+
273.0899	18	C17H11N3O+
284.0787	1	C15H12N2O4+
285.0876	2	C15H13N2O4+
286.0979	2	C18H12N3O+
287.0822	23	C18H11N2O2+
288.0646	7	C18H10NO3+
288.1121	9	C18H14N3O+
289.0971	11	C18H13N2O2+
300.0772	15	C18H10N3O2+
301.084	97	C18H11N3O2+
303.0765	12	C18H11N2O3+
312.0762	12	C19H10N3O2+
313.0613	3	C19H9N2O3+
314.092	13	C19H12N3O2+
315.0988	19	C19H13N3O2+
316.1083	57	C19H14N3O2+
317.093	9	C19H13N2O3+
328.0721	44	C19H10N3O3+
329.0796	999	C21H13O4+
340.0721	6	C20H10N3O3+
344.1031	680	C20H14N3O3+
372.0978	101	C21H14N3O4+
