Mass spectrum: Alanycarb; LC-ESI-QFT; MS2; CE: 75; R=35000; [M+H]+
Name: Alanycarb
Name: 5-Oxa-2,8-dithia-4,7,9-triazadodec-3-en-12-oic acid, 3,7-dimethyl-6-oxo-9-(phenylmethyl)-, ethyl ester, (Z)-
Name: 3-[[[methyl-[[(Z)-1-(methylthio)ethylideneamino]oxy-oxomethyl]amino]thio]-(phenylmethyl)amino]propanoic acid ethyl ester
Formula: C17H25N3O4S2
Exact mass: 399.12865
SMILES: O=C(OCC)CCN(SN(C(=O)O\N=C(/SC)C)C)Cc1ccccc1
InChI: InChI=1S/C17H25N3O4S2/c1-5-23-16(21)11-12-20(13-15-9-7-6-8-10-15)26-19(3)17(22)24-18-14(2)25-4/h6-10H,5,11-13H2,1-4H3/b18-14-
Instrument: Q Exactive Orbitrap Thermo Scientific
Instrument type: LC-ESI-QFT
Ms type: MS2
Ion mode: POSITIVE
Ionization: ESI
Fragmentation mode: HCD
Collision energy: 75 (nominal)
Resolution: 35000
Column name: XBridge C18 3.5um, 2.1x50mm, Waters
Retention time: 12.8 min
Base peak: 238.0897
Precursor m/z: 400.1359
Precursor type: [M+H]+
m/z	relative intensity	assigned
59.9903	77	CH2NS+
62.0059	6	CH4NS+
63.0229	2	C5H3+
65.0386	43	C5H5+
73.0284	224	C3H5O2+
74.0059	2	C2H4NS+
77.0384	1	C6H5+
78.0466	1	C6H6+
78.967	5	CH3S2+
79.0543	6	C6H7+
88.0216	6	C3H6NS+
88.0395	1	C3H6NO2+
91.0542	999	C7H7+
94.962	3	CH3OS2+
95.0491	13	C6H7O+
101.0597	6	C5H9O2+
104.0495	18	C7H6N+
105.0448	2	C6H5N2+
105.07	1	C8H9+
106.0323	1	C3H8NOS+
106.0651	5	C7H8N+
109.0107	11	C6H5S+
111.0263	20	C6H7S+
117.0573	4	C8H7N+
118.0649	6	C8H8N+
121.0107	15	C7H5S+
122.0185	25	C7H6S+
123.0263	185	C7H7S+
130.0651	4	C9H8N+
131.0732	1	C9H9N+
136.0215	7	C7H6NS+
137.0419	5	C8H9S+
138.0372	82	C7H8NS+
150.0373	102	C8H8NS+
159.0679	1	C10H9NO+
