Mass spectrum: Fenthion-sulfoxide; LC-ESI-QFT; MS2; CE: 150; R=35000; [M+H]+
Name: Fenthion-sulfoxide
Name: Mesulfenos
Name: O,O-Dimethyl O-[3-methyl-4-(methylsulfinyl)phenyl] phosphorothioate
Formula: C10H15O4PS2
Exact mass: 294.01494
SMILES: CC1=C(C=CC(=C1)OP(=S)(OC)OC)S(=O)C
InChI: InChI=1S/C10H15O4PS2/c1-8-7-9(5-6-10(8)17(4)11)14-15(16,12-2)13-3/h5-7H,1-4H3
Instrument: Q Exactive Plus Orbitrap Thermo Scientific
Instrument type: LC-ESI-QFT
Ms type: MS2
Ion mode: POSITIVE
Ionization: ESI
Fragmentation mode: HCD
Collision energy: 150 (nominal)
Resolution: 35000
Column name: XBridge C18 3.5um, 2.1x50mm, Waters
Retention time: 7.4 min
Base peak: 295.0216
Precursor m/z: 295.0222
Precursor type: [M+H]+
m/z	relative intensity	assigned
50.0152	203	C4H2+
50.9995	17	H4OP+
51.023	306	C4H3+
52.0308	33	C4H4+
53.0023	32	C3HO+
53.0386	207	C4H5+
53.9975	7	C2NO+
55.0179	25	C3H3O+
57.9872	61	C2H2S+
58.995	25	C2H3S+
59.9665	87	COS+
61.0075	5	C5H+
62.0151	35	C5H2+
62.0185	56	C2H6S+
62.9453	172	PS+
62.9631	14	O2P+
62.9995	176	CH4OP+
63.023	184	C5H3+
63.9436	22	S2+
64.0308	38	C5H4+
65.0386	999	C5H5+
66.0464	510	C5H6+
67.0543	15	C5H7+
68.9794	431	C3HS+
69.9872	47	C3H2S+
70.9951	76	C3H3S+
75.0229	21	C6H3+
76.0307	45	C6H4+
77.0386	293	C6H5+
78.0464	573	C6H6+
78.9944	905	CH4O2P+
79.0543	134	C6H7+
79.948	8	HOPS+
80.9736	3	H2O3P+
81.0101	23	CH6O2P+
81.0335	24	C5H5O+
81.0698	4	C6H9+
81.9872	88	C4H2S+
82.995	14	C4H3S+
84.0029	87	C4H4S+
85.0108	17	C4H5S+
89.0386	266	C7H5+
90.0465	22	C7H6+
91.0543	539	C7H7+
92.062	6	C7H8+
92.9794	19	C5HS+
93.0101	82	C2H6O2P+
94.0414	77	C6H6O+
94.9951	64	C5H3S+
95.0492	587	C6H7O+
96.0028	36	C5H4S+
97.005	48	CH6O3P+
97.0108	526	C5H5S+
98.0184	3	C5H6S+
98.9841	35	H4O4P+
100.9515	6	C3HS2+
102.0465	8	C8H6+
103.0543	60	C8H7+
105.0448	331	C6H5N2+
105.07	19	C8H9+
106.0416	5	C7H6O+
107.0046	5	C6H4P+
107.0493	27	C7H7O+
108.0029	226	C6H4S+
109.0108	481	C6H5S+
110.0186	222	C6H6S+
111.0205	8	C2H8O3P+
111.0267	4	C6H7S+
112.9999	16	CH6O4P+
120.003	18	C7H4S+
121.0108	861	C7H5S+
122.0186	77	C7H6S+
123.0264	15	C7H7S+
125.0055	5	C6H5OS+
127.0156	93	C2H8O4P+
134.0186	58	C8H6S+
135.0264	69	C8H7S+
137.0057	48	C7H5OS+
138.9764	4	C6H4PS+
139.9747	7	C6H4S2+
140.9827	23	C6H5S2+
142.9928	18	C2H8O3PS+
150.9673	7	C7H3S2+
152.9829	286	C7H5S2+
154.9714	21	C6H4OPS+
168.9872	69	C7H6OPS+
