Mass spectrum: Atenolol-desisopropyl; LC-ESI-ITFT; MS2; CE: 75%; R=7500; [M+H]+
Name: Atenolol-desisopropyl
Name: 4-(3-Amino-2-hydroxypropoxy)phenylacetamide
Formula: C11H16N2O3
Exact mass: 224.1161
SMILES: c1cc(ccc1CC(=O)N)OCC(CN)O
InChI: InChI=1S/C11H16N2O3/c12-6-9(14)7-16-10-3-1-8(2-4-10)5-11(13)15/h1-4,9,14H,5-7,12H2,(H2,13,15)
Instrument: LTQ Orbitrap XL Thermo Scientific
Instrument type: LC-ESI-ITFT
Ms type: MS2
Ion mode: POSITIVE
Ionization: ESI
Fragmentation mode: HCD
Collision energy: 75 % (nominal)
Resolution: 7500
Column name: XBridge C18 3.5um, 2.1x50mm, Waters
Retention time: 1.0 min
Base peak: 225.124
Precursor m/z: 225.1234
Precursor type: [M+H]+
m/z	relative intensity	assigned
56.0494	141	C3H6N+
74.06	410	C3H8NO+
77.0386	26	C6H5+
79.0541	38	C6H7+
89.0385	83	C7H5+
91.0542	177	C7H7+
93.0698	108	C7H9+
103.0542	26	C8H7+
105.0699	122	C8H9+
106.0651	129	C7H8N+
107.0491	207	C7H7O+
115.0543	57	C9H7+
116.0494	33	C8H6N+
117.0336	36	C8H5O+
117.0577	12	C8H7N+
117.0698	155	C9H9+
119.049	107	C8H7O+
121.0647	146	C8H9O+
122.0599	22	C7H8NO+
131.0495	11	C9H7O+
133.0648	661	C9H9O+
134.0599	138	C8H8NO+
136.0759	12	C8H10NO+
144.0806	9	C10H10N+
145.0647	999	C10H9O+
147.0439	44	C9H7O2+
152.0704	13	C8H10NO2+
155.0602	12	C10H7N2+
162.0662	113	C8H8N3O+
162.0911	12	C10H12NO+
164.0707	23	C9H10NO2+
173.06	12	C11H9O2+
178.0857	24	C10H12NO2+
