Mass spectrum: Fenamiphos-sulfone; LC-ESI-QFT; MS2; CE: 150; R=35000; [M+H]+
Name: Fenamiphos-sulfone
Name: Fenamiphos sulphone
Name: Ethyl 3-methyl-4-(methylsulfonyl)phenyl isopropylphosphoramidate
Formula: C13H22NO5PS
Exact mass: 335.09563
SMILES: CCOP(=O)(NC(C)C)OC1=CC(=C(C=C1)S(=O)(=O)C)C
InChI: InChI=1S/C13H22NO5PS/c1-6-18-20(15,14-10(2)3)19-12-7-8-13(11(4)9-12)21(5,16)17/h7-10H,6H2,1-5H3,(H,14,15)
Instrument: Q Exactive Plus Orbitrap Thermo Scientific
Instrument type: LC-ESI-QFT
Ms type: MS2
Ion mode: POSITIVE
Ionization: ESI
Fragmentation mode: HCD
Collision energy: 150 (nominal)
Resolution: 35000
Column name: XBridge C18 3.5um, 2.1x50mm, Waters
Retention time: 7.5 min
Base peak: 336.1023
Precursor m/z: 336.1029
Precursor type: [M+H]+
m/z	relative intensity	assigned
50.0152	51	C4H2+
51.023	49	C4H3+
52.0182	1	C3H2N+
52.0308	3	C4H4+
53.0022	23	C3HO+
53.0386	108	C4H5+
53.9975	6	C2NO+
54.0465	1	C4H6+
55.0179	42	C3H3O+
57.9872	4	C2H2S+
58.0652	1	C3H8N+
58.995	4	C2H3S+
61.0072	3	C5H+
62.0151	18	C5H2+
63.023	109	C5H3+
64.0308	19	C5H4+
65.0386	614	C5H5+
66.0464	53	C5H6+
67.0179	1	C4H3O+
67.0542	28	C5H7+
67.9893	1	C3O2+
68.0257	4	C4H4O+
68.9793	16	C3HS+
68.9971	1	C3HO2+
70.995	2	C3H3S+
74.0151	1	C6H2+
75.0229	5	C6H3+
76.0308	1	C6H4+
77.0386	117	C6H5+
78.0464	58	C6H6+
79.0542	512	C6H7+
80.062	34	C6H8+
81.0335	29	C5H5O+
81.0699	6	C6H9+
81.9871	3	C4H2S+
82.995	1	C4H3S+
89.0386	307	C7H5+
90.0465	83	C7H6+
91.0543	242	C7H7+
93.0336	4	C6H5O+
93.0573	10	C6H7N+
94.0414	78	C6H6O+
95.0492	352	C6H7O+
97.0107	16	C5H5S+
98.0002	117	H5NO3P+
98.9842	12	H4O4P+
103.0542	3	C8H7+
104.0495	6	C7H6N+
105.0336	10	C7H5O+
105.0448	215	C6H5N2+
106.0417	5	C3H9NOP+
106.0652	30	C7H8N+
107.0492	999	C7H7O+
108.057	29	C7H8O+
109.0108	8	C6H5S+
109.0648	6	C7H9O+
115.0543	11	C9H7+
121.0396	1	C6H5N2O+
123.044	4	C7H7O2+
125.0056	1	C6H5OS+
185.0001	1	C7H6O4P+
