Mass spectrum: Ethion; LC-ESI-QFT; MS2; CE: 30%; R=17500; [M+H]+
Name: Ethion
Name: diethoxyphosphinothioylsulfanylmethylsulfanyl-diethoxy-sulfanylidene-lambda5-phosphane
Formula: C9H22O4P2S4
Exact mass: 383.9876
SMILES: CCOP(=S)(OCC)SCSP(=S)(OCC)OCC
InChI: InChI=1S/C9H22O4P2S4/c1-5-10-14(16,11-6-2)18-9-19-15(17,12-7-3)13-8-4/h5-9H2,1-4H3
Instrument: Exploris 240 Orbitrap Thermo Scientific
Instrument type: LC-ESI-QFT
Ms type: MS2
Ion mode: POSITIVE
Ionization: ESI
Fragmentation mode: HCD
Collision energy: 30 % (nominal)
Resolution: 17500
Column name: XBridge C18 3.5um, 2.1x50mm, Waters
Retention time: 13.677 min
Base peak: 384.9948
Precursor m/z: 384.9949
Precursor type: [M+H]+
m/z	relative intensity	assigned
75.0263	16	C3H7S+
96.9508	114	H2O2PS+
114.9613	123	H4O3PS+
124.982	255	C2H6O2PS+
126.9433	21	CH4OPS2+
128.9767	19	CH6O3PS+
142.9385	999	CH4O2PS2+
153.0134	428	C4H10O2PS+
154.9752	17	C3H8OPS2+
170.9698	906	C3H8O2PS2+
184.9854	12	C4H10O2PS2+
185.04	11	C5H14O3PS+
199.0011	320	C5H12O2PS2+
202.9419	22	C3H8O2PS3+
215.0327	35	C6H16O2PS2+
230.9731	40	C5H12O2PS3+
