Mass spectrum: 1-Benzylpiperazine; LC-ESI-ITFT; MS2; CE: 45%; R=7500; [M+H]+
Name: 1-Benzylpiperazine
Name: N-Benzylpiperazine
Name: 1-(phenylmethyl)piperazine
Formula: C11H16N2
Exact mass: 176.1313
SMILES: C1CN(CCN1)Cc1ccccc1
InChI: InChI=1S/C11H16N2/c1-2-4-11(5-3-1)10-13-8-6-12-7-9-13/h1-5,12H,6-10H2
Instrument: LTQ Orbitrap XL Thermo Scientific
Instrument type: LC-ESI-ITFT
Ms type: MS2
Ion mode: POSITIVE
Ionization: ESI
Fragmentation mode: HCD
Collision energy: 45 % (nominal)
Resolution: 7500
Column name: XBridge C18 3.5um, 2.1x50mm, Waters
Retention time: 1.2 min
Base peak: 177.139
Precursor m/z: 177.1386
Precursor type: [M+H]+
m/z	relative intensity	assigned
56.0495	7	C3H6N+
65.0385	2	C5H5+
85.0761	107	C4H9N2+
91.0543	640	C7H7+
177.1389	999	C11H17N2+
