Mass spectrum: MCRR; LC-ESI-QFT; MS2; CE: 45%; R=17500; [M-H]-
Name: MCRR
Name: Microcystin RR
Name: (5R,8S,11R,12S,15S,18S,19S,22R)-8,15-bis[3-(diaminomethylideneamino)propyl]-18-[(1E,3E,5S,6S)-6-methoxy-3,5-dimethyl-7-phenylhepta-1,3-dienyl]-1,5,12,19-tetramethyl-2-methylidene-3,6,9,13,16,20,25-heptaoxo-1,4,7,10,14,17,21-heptazacyclopentacosane-11,22-dicarboxylic acid
Class: Environmental Standard
Formula: C49H75N13O12
Exact mass: 1037.5658
SMILES: CO[C@@H](Cc1ccccc1)[C@@H](C)\C=C(C)\C=C\[C@@H]2NC(=O)[C@H](CCCNC(N)=N)NC(=O)[C@@H](C)[C@@H](NC(=O)[C@H](CCCNC(N)=N)NC(=O)[C@@H](C)NC(=O)C(=C)N(C)C(=O)CC[C@@H](NC(=O)[C@H]2C)C(O)=O)C(O)=O
InChI: InChI=1S/C49H75N13O12/c1-26(24-27(2)37(74-8)25-32-14-10-9-11-15-32)18-19-33-28(3)40(64)60-36(46(70)71)20-21-38(63)62(7)31(6)43(67)56-30(5)42(66)59-35(17-13-23-55-49(52)53)45(69)61-39(47(72)73)29(4)41(65)58-34(44(68)57-33)16-12-22-54-48(50)51/h9-11,14-15,18-19,24,27-30,33-37,39H,6,12-13,16-17,20-23,25H2,1-5,7-8H3,(H,56,67)(H,57,68)(H,58,65)(H,59,66)(H,60,64)(H,61,69)(H,70,71)(H,72,73)(H4,50,51,54)(H4,52,53,55)/b19-18+,26-24+/t27-,28-,29-,30+,33-,34-,35-,36+,37-,39+/m0/s1
Instrument: Q Exactive Plus Orbitrap Thermo Scientific
Instrument type: LC-ESI-QFT
Ms type: MS2
Ion mode: NEGATIVE
Ionization: ESI
Fragmentation mode: HCD
Collision energy: 45 % (nominal)
Resolution: 17500
Column name: XBridge C18 3.5um, 2.1x50mm, Waters
Retention time: 7.172 min
Base peak: 116.9286
Precursor m/z: 1036.5585
Precursor type: [M-H]-
m/z	relative intensity	assigned
110.0246	176	C5H4NO2-
112.0405	76	C5H6NO2-
124.0399	128	C6H6NO2-
128.0353	999	C5H6NO3-
130.0984	110	C5H12N3O-
131.0867	62	C10H11-
137.072	87	C7H9N2O-
140.0828	75	C6H10N3O-
153.0668	139	C7H9N2O2-
156.0772	57	C4H8N6O-
166.0981	243	C8H12N3O-
167.0827	53	C8H11N2O2-
170.0933	92	C7H12N3O2-
181.0969	69	C7H11N5O-
183.1243	88	C7H19O5-
184.1089	56	C8H14N3O2-
191.0937	50	C9H11N4O-
201.1344	212	C7H21O6-
208.1199	239	C9H14N5O-
266.1609	358	C11H24NO6-
284.1716	165	C11H26NO7-
308.1842	100	C14H28O7-
326.1933	83	C12H28N3O7-
