Mass spectrum: Buflomedil; LC-ESI-QFT; MS2; CE: 90; R=35000; [M+H]+
Name: Buflomedil
Name: 4-(1-pyrrolidinyl)-1-(2,4,6-trimethoxyphenyl)-1-butanone
Formula: C17H25NO4
Exact mass: 307.17836
SMILES: O=C(c1c(OC)cc(OC)cc1OC)CCCN2CCCC2
InChI: InChI=1S/C17H25NO4/c1-20-13-11-15(21-2)17(16(12-13)22-3)14(19)7-6-10-18-8-4-5-9-18/h11-12H,4-10H2,1-3H3
Instrument: Q Exactive Orbitrap Thermo Scientific
Instrument type: LC-ESI-QFT
Ms type: MS2
Ion mode: POSITIVE
Ionization: ESI
Fragmentation mode: HCD
Collision energy: 90 (nominal)
Resolution: 35000
Column name: XBridge C18 3.5um, 2.1x50mm, Waters
Retention time: 4.8 min
Base peak: 308.1855
Precursor m/z: 308.1856
Precursor type: [M+H]+
m/z	relative intensity	assigned
53.0022	2	C3HO+
53.0386	2	C4H5+
65.0385	18	C5H5+
66.0463	10	
67.0541	14	C5H7+
68.0493	14	C4H6N+
69.0334	173	C4H5O+
70.065	169	C4H8N+
71.049	55	C4H7O+
72.0807	47	C4H10N+
77.0385	13	C6H5+
78.0463	14	C6H6+
79.0542	78	C6H7+
80.0494	1	C5H6N+
81.0334	22	C5H5O+
81.0698	9	C6H9+
83.049	3	C5H7O+
84.0807	34	C5H10N+
86.0599	20	C4H8NO+
91.0541	161	C7H7+
92.0254	14	
93.0334	15	C6H5O+
93.0697	14	C7H9+
94.0412	16	C6H6O+
95.049	95	C6H7O+
96.0568	61	C6H8O+
97.0885	17	C6H11N+
98.0599	93	C5H8NO+
103.0541	55	C8H7+
105.0446	20	C6H5N2+
105.0698	110	C8H9+
106.0413	15	C7H6O+
107.0126	10	
107.0491	27	C7H7O+
108.0569	34	C7H8O+
108.0807	7	C7H10N+
109.0282	23	C6H5O2+
109.0647	77	C7H9O+
110.0961	1	C7H12N+
112.1121	3	C7H14N+
115.0541	28	C9H7+
117.0698	16	C9H9+
118.0411	12	
119.0491	32	C8H7O+
120.0568	19	C8H8O+
121.0283	21	
121.0646	218	C8H9O+
122.0361	45	C7H6O2+
123.0439	20	C7H7O2+
123.0803	58	C8H11O+
124.0517	15	C7H8O2+
125.0596	20	C7H9O2+
129.0696	2	C10H9+
131.049	15	C9H7O+
133.0284	6	C8H5O2+
133.0647	28	C9H9O+
134.0727	8	C9H10O+
135.0439	56	C8H7O2+
135.0804	31	C9H11O+
136.0518	178	C8H8O2+
137.0232	58	C7H5O3+
137.0596	64	C8H9O2+
138.0675	13	C8H10O2+
139.0752	167	C8H11O2+
140.1068	40	C8H14NO+
144.057	6	C10H8O+
145.0648	13	C10H9O+
146.036	12	
146.0726	13	C10H10O+
147.0439	27	C9H7O2+
147.0804	21	C10H11O+
148.0519	13	C9H8O2+
148.0883	1	C10H12O+
149.0596	34	C9H9O2+
149.0709	3	C8H9N2O+
150.0311	28	C8H6O3+
150.0675	34	C9H10O2+
151.0389	51	C8H7O3+
151.0753	69	C9H11O2+
152.0467	446	C8H8O3+
153.0544	3	C8H9O3+
153.0908	2	C9H13O2+
154.0624	3	C8H10O3+
155.0337	134	C7H7O4+
155.0702	10	C8H11O3+
159.08	2	C11H11O+
160.0516	4	C10H8O2+
160.0879	1	C11H12O+
161.0594	47	C10H9O2+
162.0676	7	C10H10O2+
163.0387	47	C9H7O3+
163.0752	39	C10H11O2+
164.0831	6	C10H12O2+
165.0545	63	C9H9O3+
165.0908	24	C10H13O2+
166.0625	2	C9H10O3+
167.07	18	C9H11O3+
168.0417	9	C8H8O4+
168.0779	11	C9H12O3+
169.0495	22	C8H9O4+
169.0856	11	C9H13O3+
175.0754	25	C11H11O2+
176.0467	25	C10H8O3+
176.0829	3	C11H12O2+
177.0544	49	C10H9O3+
177.0908	21	C11H13O2+
178.0623	47	C10H10O3+
178.0987	3	C11H14O2+
179.0702	34	C10H11O3+
180.0415	371	C9H8O4+
181.0856	118	C10H13O3+
189.0545	84	C11H9O3+
191.0701	262	C11H11O3+
193.086	2	C11H13O3+
194.0938	3	C11H14O3+
195.065	999	C10H11O4+
198.052	102	C9H10O5+
203.07	13	
204.078	32	C12H12O3+
237.1123	12	C13H17O4+
