Mass spectrum: Flufenacet ESA; LC-ESI-ITFT; MS2; CE: 60%; R=15000; [M-H]-
Name: Flufenacet ESA
Name: 2-[(4-Fluorophenyl)(isopropyl)amino]-2-oxoethanesulfonic acid
Formula: C11H14FNO4S
Exact mass: 275.0628
SMILES: Fc1ccc(cc1)N(C(C)C)C(=O)CS(O)(=O)=O
InChI: InChI=1S/C11H14FNO4S/c1-8(2)13(11(14)7-18(15,16)17)10-5-3-9(12)4-6-10/h3-6,8H,7H2,1-2H3,(H,15,16,17)
Instrument: LTQ Orbitrap XL Thermo Scientific
Instrument type: LC-ESI-ITFT
Ms type: MS2
Ion mode: NEGATIVE
Ionization: ESI
Fragmentation mode: HCD
Collision energy: 60 % (nominal)
Resolution: 15000
Column name: XBridge C18 3.5um, 2.1x50mm, Waters
Retention time: 5.9 min
Base peak: 274.0553
Precursor m/z: 274.0555
Precursor type: [M-H]-
m/z	relative intensity	assigned
76.9703	246	CHO2S-
79.9574	999	O3S-
93.973	12	CH2O3S-
111.0249	27	C6H4FO-
120.9602	346	C2HO4S-
136.0567	27	C8H7FN-
152.0883	70	C9H11FN-
274.0567	17	C11H13FNO4S-
