Mass spectrum: Niflumic acid; LC-ESI-QFT; MS2; CE: 45; R=35000; [M-H]-
Name: Niflumic acid
Name: 2-[3-(trifluoromethyl)anilino]pyridine-3-carboxylic acid
Formula: C13H9F3N2O2
Exact mass: 282.06161
SMILES: C1=CC(=CC(=C1)NC2=C(C=CC=N2)C(=O)O)C(F)(F)F
InChI: InChI=1S/C13H9F3N2O2/c14-13(15,16)8-3-1-4-9(7-8)18-11-10(12(19)20)5-2-6-17-11/h1-7H,(H,17,18)(H,19,20)
Instrument: Q Exactive Plus Orbitrap Thermo Scientific
Instrument type: LC-ESI-QFT
Ms type: MS2
Ion mode: NEGATIVE
Ionization: ESI
Fragmentation mode: HCD
Collision energy: 45 (nominal)
Resolution: 35000
Column name: XBridge C18 3.5um, 2.1x50mm, Waters
Retention time: 12.9 min
Base peak: 281.0538
Precursor m/z: 281.0543
Precursor type: [M-H]-
m/z	relative intensity	assigned
62.9888	1	CFO2-
68.9958	4	CF3-
160.038	1	C7H5F3N-
167.0615	2	C11H7N2-
177.0458	64	C12H5N2-
180.0329	1	C11H4N2O-
182.0483	3	C11H6N2O-
190.0472	2	C11H6F2N-
197.052	64	C12H6FN2-
200.0389	5	C11H5FN2O-
201.0467	1	C11H6FN2O-
208.028	2	C12H4N2O2-
209.0352	1	C12H5N2O2-
210.0537	26	C11H7F3N-
216.0504	27	C12H6F2N2-
217.0583	119	C12H7F2N2-
228.0341	9	C12H5FN2O2-
235.0489	104	C12H6F3N2-
237.0644	999	C12H8F3N2-
249.0481	2	C12H7F2N2O2-
261.0481	1	C13H7F2N2O2-
281.0538	2	C13H8F3N2O2-
