Mass spectrum: O-desmethylvenlafaxine; LC-ESI-ITFT; MS2; CE: 90%; R=30000; [M+H]+
Name: O-desmethylvenlafaxine
Name: Desvenlafaxine
Name: 4-[2-(dimethylamino)-1-(1-hydroxycyclohexyl)ethyl]phenol
Formula: C16H25NO2
Exact mass: 263.1885
SMILES: CN(C)CC(C1=CC=C(C=C1)O)C2(CCCCC2)O
InChI: InChI=1S/C16H25NO2/c1-17(2)12-15(13-6-8-14(18)9-7-13)16(19)10-4-3-5-11-16/h6-9,15,18-19H,3-5,10-12H2,1-2H3
Instrument: LTQ Orbitrap XL Thermo Scientific
Instrument type: LC-ESI-ITFT
Ms type: MS2
Ion mode: POSITIVE
Ionization: ESI
Fragmentation mode: HCD
Collision energy: 90 % (nominal)
Resolution: 30000
Column name: XBridge C18 3.5um, 2.1x50mm, Waters
Retention time: 4.8 min
Base peak: 264.1971
Precursor m/z: 264.1958
Precursor type: [M+H]+
m/z	relative intensity	assigned
58.0651	999	C3H8N+
67.0543	4	C5H7+
69.0699	4	C5H9+
77.0386	20	C6H5+
79.0542	55	C6H7+
81.0699	57	C6H9+
91.0543	21	C7H7+
103.0542	9	C8H7+
105.0699	100	C8H9+
107.0492	603	C7H7O+
115.0542	9	C9H7+
117.0699	9	C9H9+
121.0648	14	C8H9O+
131.0491	10	C9H7O+
131.0855	12	C10H11+
133.0648	145	C9H9O+
141.0699	11	C11H9+
144.0569	17	C10H8O+
145.0648	29	C10H9O+
149.0834	8	C9H11NO+
155.0604	8	C10H7N2+
159.0805	26	C11H11O+
169.076	8	C11H9N2+
