Mass spectrum: Chlordiazepoxide; LC-ESI-QFT; MS2; CE: 15; R=35000; [M+H]+
Name: Chlordiazepoxide
Name: Zetran
Name: 7-chloro-4-hydroxy-N-methyl-5-phenyl-3H-1,4-benzodiazepin-2-imine
Formula: C16H14ClN3O
Exact mass: 299.08254
SMILES: CN=C1CN(C(=C2C=C(C=CC2=N1)Cl)C3=CC=CC=C3)O
InChI: InChI=1S/C16H14ClN3O/c1-18-15-10-20(21)16(11-5-3-2-4-6-11)13-9-12(17)7-8-14(13)19-15/h2-9,21H,10H2,1H3
Instrument: Q Exactive Plus Orbitrap Thermo Scientific
Instrument type: LC-ESI-QFT
Ms type: MS2
Ion mode: POSITIVE
Ionization: ESI
Fragmentation mode: HCD
Collision energy: 15 (nominal)
Resolution: 35000
Column name: XBridge C18 3.5um, 2.1x50mm, Waters
Retention time: 6.2 min
Base peak: 300.0888
Precursor m/z: 300.0898
Precursor type: [M+H]+
m/z	relative intensity	assigned
57.0448	3	C2H5N2+
60.0443	4	C2H6NO+
206.0473	1	C13H6N2O+
216.0573	1	C13H11ClN+
220.0992	1	C15H12N2+
227.0491	16	C14H10ClN+
231.0683	7	C13H12ClN2+
241.0525	131	C14H10ClN2+
242.0359	2	C14H9ClNO+
242.0611	2	C14H11ClN2+
243.0685	1	C14H12ClN2+
244.0533	1	C14H11ClNO+
255.0677	7	C15H12ClN2+
259.0629	1	C14H12ClN2O+
266.0597	2	C16H11ClN2+
269.0474	20	C15H10ClN2O+
269.0835	19	C16H14ClN2+
282.0789	48	C16H13ClN3+
283.0867	560	C16H14ClN3+
300.0894	999	C16H15ClN3O+
