Mass spectrum: Chlorothalonil TP SYN548581; LC-ESI-QFT; MS2; CE: 150%; R=15000; [M+H]+
Name: Chlorothalonil TP SYN548581
Name: 4-carbamoyl-2,3,5-trichloro-6-cyanobenzenesulfonic acid
Formula: C8H3Cl3N2O4S
Exact mass: 327.8879
SMILES: NC(=O)C1=C(Cl)C(Cl)=C(C(C#N)=C1Cl)S(O)(=O)=O
InChI: InChI=1S/C8H3Cl3N2O4S/c9-4-2(1-12)7(18(15,16)17)6(11)5(10)3(4)8(13)14/h(H2,13,14)(H,15,16,17)
Instrument: Orbitrap Exploris 240 Thermo Scientific
Instrument type: LC-ESI-QFT
Ms type: MS2
Ion mode: POSITIVE
Ionization: ESI
Fragmentation mode: HCD
Collision energy: 150 % (nominal)
Resolution: 15000
Column name: Atlantis C18 3um, 3.0x150mm, Waters
Retention time: 10.461 min
Base peak: 132.9582
Precursor m/z: 328.8952
Precursor type: [M+H]+
Precursor intensity: 4062616.5
m/z	relative intensity	assigned
52.0182	49	C3H2N+
61.9791	103	CHClN+
62.9632	93	CClO+
63.9852	44	H2NOS+
71.976	68	C3HCl+
72.984	385	C3H2Cl+
73.9792	47	C2HClN+
75.0104	232	C5HN+
76.0182	126	C5H2N+
82.9449	489	CHCl2+
83.9762	144	C4HCl+
85.9792	47	C3HClN+
86.0026	34	C6N+
86.9632	35	C3ClO+
87.0103	116	C6HN+
88.0183	270	C6H2N+
94.9684	78	C5Cl+
95.9761	602	C5HCl+
96.9711	65	C4ClN+
96.9838	179	C5H2Cl+
97.9792	309	C4HClN+
101.0133	68	C6HN2+
106.9449	999	C3HCl2+
107.9402	240	C2Cl2N+
107.9761	89	C6HCl+
109.9792	317	C5HClN+
116.9061	61	CCl3+
117.937	70	C4Cl2+
120.9713	191	C6ClN+
121.9791	334	C6HClN+
122.9871	215	C6H2ClN+
123.9952	198	C6H3ClN+
129.9372	250	C5Cl2+
130.9449	348	C5HCl2+
131.9402	234	C4Cl2N+
132.9713	284	C7ClN+
140.9061	76	C3Cl3+
141.9375	212	C6Cl2+
155.9402	66	C6Cl2N+
164.9056	99	C5Cl3+
