Mass spectrum: Hexazinone; LC-ESI-QFT; MS2; CE: 45; R=35000; [M+H]+
Name: Hexazinone
Name: 3-cyclohexyl-6-(dimethylamino)-1-methyl-1,3,5-triazine-2,4-dione
Formula: C12H20N4O2
Exact mass: 252.15810
SMILES: n1(C2CCCCC2)c(n(c(N(C)C)nc1=O)C)=O
InChI: InChI=1S/C12H20N4O2/c1-14(2)10-13-11(17)16(12(18)15(10)3)9-7-5-4-6-8-9/h9H,4-8H2,1-3H3
Instrument: Q Exactive Plus Orbitrap Thermo Scientific
Instrument type: LC-ESI-QFT
Ms type: MS2
Ion mode: POSITIVE
Ionization: ESI
Fragmentation mode: HCD
Collision energy: 45 (nominal)
Resolution: 35000
Column name: XBridge C18 3.5um, 2.1x50mm, Waters
Retention time: 7.0 min
Base peak: 253.1657
Precursor m/z: 253.1659
Precursor type: [M+H]+
m/z	relative intensity	assigned
55.0543	7	C4H7+
57.0448	1	C2H5N2+
71.0604	187	C3H7N2+
72.0444	5	C3H6NO+
83.024	7	C3H3N2O+
83.0855	14	C6H11+
85.076	130	C4H9N2+
101.0346	13	C3H5N2O2+
114.0663	14	C4H8N3O+
128.0819	4	C5H10N3O+
171.0876	999	C6H11N4O2+
253.1659	4	C12H21N4O2+
