Mass spectrum: Chlorpyrifos; LC-ESI-ITFT; MS2; CE: 15%; R=15000; [M+H]+
Name: Chlorpyrifos
Name: diethoxy-sulfanylidene-(3,5,6-trichloropyridin-2-yl)oxy-{5}-phosphane
Formula: C9H11Cl3NO3PS
Exact mass: 348.9263
SMILES: Clc1c(OP(=S)(OCC)OCC)nc(Cl)c(Cl)c1
InChI: InChI=1S/C9H11Cl3NO3PS/c1-3-14-17(18,15-4-2)16-9-7(11)5-6(10)8(12)13-9/h5H,3-4H2,1-2H3
Instrument: LTQ Orbitrap XL Thermo Scientific
Instrument type: LC-ESI-ITFT
Ms type: MS2
Ion mode: POSITIVE
Ionization: ESI
Fragmentation mode: HCD
Collision energy: 15 % (nominal)
Resolution: 15000
Column name: XBridge C18 3.5um, 2.1x50mm, Waters
Retention time: 16.0 min
Base peak: 349.9337
Precursor m/z: 349.9336
Precursor type: [M+H]+
m/z	relative intensity	assigned
96.9508	75	H2O2PS+
114.9613	69	H4O3PS+
124.9821	93	C2H6O2PS+
142.9926	27	C2H8O3PS+
153.0133	29	C4H10O2PS+
171.024	50	C4H12O3PS+
197.9274	293	C5H3Cl3NO+
213.9045	1	C4H3Cl2NOPS+
225.959	4	C7H7Cl3NO+
241.9361	1	C7H7Cl3NS+
275.8604	3	C5H2Cl3NO2PS+
293.871	76	C5H4Cl3NO3PS+
303.892	7	C7H6Cl3NO2PS+
321.9022	400	C7H8Cl3NO3PS+
325.9245	1	C9H8Cl3N3PS+
349.9337	999	C9H12Cl3NO3PS+
