Mass spectrum: Dicloxacillin; LC-ESI-QFT; MS2; CE: 60; R=35000; [M-H]-
Name: Dicloxacillin
Name: 6-[[3-(2,6-dichlorophenyl)-5-methyl-1,2-oxazole-4-carbonyl]amino]-3,3-dimethyl-7-oxo-4-thia-1-azabicyclo[3.2.0]heptane-2-carboxylic acid
Formula: C19H17Cl2N3O5S
Exact mass: 469.02660
SMILES: CC1=C(C(=NO1)C2=C(C=CC=C2Cl)Cl)C(=O)NC3C4N(C3=O)C(C(S4)(C)C)C(=O)O
InChI: InChI=1S/C19H17Cl2N3O5S/c1-7-10(12(23-29-7)11-8(20)5-4-6-9(11)21)15(25)22-13-16(26)24-14(18(27)28)19(2,3)30-17(13)24/h4-6,13-14,17H,1-3H3,(H,22,25)(H,27,28)
Instrument: Q Exactive Plus Orbitrap Thermo Scientific
Instrument type: LC-ESI-QFT
Ms type: MS2
Ion mode: NEGATIVE
Ionization: ESI
Fragmentation mode: HCD
Collision energy: 60 (nominal)
Resolution: 35000
Column name: XBridge C18 3.5um, 2.1x50mm, Waters
Retention time: 9.5 min
Base peak: 468.0196
Precursor m/z: 468.0193
Precursor type: [M-H]-
m/z	relative intensity	assigned
50.0036	7	C3N-
56.9805	24	C2HS-
57.9757	188	CNS-
58.9962	37	C2H3S-
59.9915	15	CH2NS-
64.0194	5	C4H2N-
65.9986	206	C3NO-
66.9415	6	ClS-
67.0189	4	C4H3O-
70.9837	168	C2HNS-
71.9915	41	C2H2NS-
72.9994	223	C2H3NS-
74.0072	19	C2H4NS-
74.9911	421	C2H3OS-
82.0299	263	C4H4NO-
83.014	999	C4H3O2-
83.9915	6	C3H2NS-
85.0119	5	C4H5S-
90.0349	6	C6H4N-
99.9864	36	C3H2NOS-
109.017	4	C5H3NO2-
110.9912	5	C5H3OS-
112.9941	9	C4H3NOS-
114.0019	5	C4H4NOS-
115.0305	6	C7H3N2-
118.0301	8	C4H7ClN2-
123.9863	27	C5H2NOS-
123.9961	16	C6H3ClN-
135.996	3	C7H3ClN-
139.0096	3	C6H5NOS-
150.012	8	C8H5ClN-
151.007	9	C4H7O4S-
151.991	56	C7H3ClNO-
152.0383	5	C10H4N2-
158.0071	7	C9H4NS-
159.9728	148	C6H4Cl2N-
165.046	21	C11H5N2-
166.0297	4	C11H4NO-
167.9685	4	C7H3ClNS-
175.0067	19	C9H4ClN2-
179.0379	7	C12H5NO-
182.0157	15	C7H6N2O2S-
183.0021	4	C10H3N2S-
183.9725	17	C8H4Cl2N-
184.023	26	C11H6NS-
185.0181	6	C10H5N2S-
188.9987	7	C10H4ClNO-
189.0229	18	C7H9O4S-
191.002	383	C6H7O5S-
193.0407	26	C12H5N2O-
193.9836	9	C9H5ClNS-
197.0353	15	C11H5N2O2-
199.0157	7	C7H6ClN3O2-
202.007	16	C8H8Cl2N2-
203.002	17	C7H7O5S-
204.9764	14	C10H4ClNS-
212.018	26	C9H9ClN2S-
213.0131	17	C8H8ClN3S-
215.0139	5	C15H3O2-
216.0098	50	C8H8O5S-
217.0173	5	C11H6ClN2O-
218.9791	26	C10H4ClN2S-
220.9945	5	C10H6ClN2S-
221.0354	8	C13H5N2O2-
225.9837	54	C10H6Cl2NO-
227.0287	9	C9H10ClN3S-
230.9968	6	C11H4ClN2O2-
232.0049	5	C8H8Cl2N3O-
232.9712	34	C8H7Cl2N2S-
233.0126	239	C11H6ClN2O2-
240.0004	22	C9H7ClN3OS-
247.9825	9	C8H8Cl2N3S-
248.9903	19	C8H9Cl2N3S-
257.0127	7	C10H9Cl2N3O-
258.0202	46	C13H7ClN2O2-
271.9903	24	C9H7ClN3O3S-
290.0104	4	C10H10Cl2N3O3-
