Mass spectrum: Cyanofenphos; LC-ESI-QFT; MS2; CE: 120%; R=17500; [M+H]+
Name: Cyanofenphos
Name: 4-[ethoxy(phenyl)phosphinothioyl]oxybenzonitrile
Formula: C15H14NO2PS
Exact mass: 303.0483
SMILES: CCOP(=S)(C1=CC=CC=C1)OC2=CC=C(C=C2)C#N
InChI: InChI=1S/C15H14NO2PS/c1-2-17-19(20,15-6-4-3-5-7-15)18-14-10-8-13(12-16)9-11-14/h3-11H,2H2,1H3
Instrument: Exploris 240 Orbitrap Thermo Scientific
Instrument type: LC-ESI-QFT
Ms type: MS2
Ion mode: POSITIVE
Ionization: ESI
Fragmentation mode: HCD
Collision energy: 120 % (nominal)
Resolution: 17500
Column name: XBridge C18 3.5um, 2.1x50mm, Waters
Retention time: 10.835 min
Base peak: 363.0217
Precursor m/z: 304.0556
Precursor type: [M+H]+
m/z	relative intensity	assigned
50.0152	52	C4H2+
51.0229	492	C4H3+
52.0182	25	C3H2N+
53.0386	168	C4H5+
62.9453	832	PS+
65.0385	560	C5H5+
66.0464	143	C5H6+
75.0228	362	C6H3+
76.0182	100	C5H2N+
77.0386	999	C2H8NP+
78.0464	619	C6H6+
79.0541	26	C6H7+
90.0335	77	C6H4N+
91.0541	35	C7H7+
92.0495	162	C6H6N+
94.0415	28	C6H6O+
95.0491	433	C6H7O+
102.0338	310	C7H4N+
107.0046	31	C6H4P+
109.0105	29	C2H8NPS+
110.0185	790	C6H6S+
120.0443	96	C7H6NO+
132.9984	34	C7H3NS+
134.0058	53	C7H4NS+
138.9769	126	C6H4PS+
