Mass spectrum: Dimethachlor OXA; LC-ESI-ITFT; MS2; CE: 90%; R=7500; [M+H]+
Name: Dimethachlor OXA
Name: 2-[(2,6-dimethylphenyl)(2-methoxyethyl)amino]-2-oxo-acetic acid
Formula: C13H17NO4
Exact mass: 251.1158
SMILES: Cc1cccc(C)c1N(CCOC)C(=O)C(O)=O
InChI: InChI=1S/C13H17NO4/c1-9-5-4-6-10(2)11(9)14(7-8-18-3)12(15)13(16)17/h4-6H,7-8H2,1-3H3,(H,16,17)
Instrument: LTQ Orbitrap XL Thermo Scientific
Instrument type: LC-ESI-ITFT
Ms type: MS2
Ion mode: POSITIVE
Ionization: ESI
Fragmentation mode: HCD
Collision energy: 90 % (nominal)
Resolution: 7500
Column name: XBridge C18 3.5um, 2.1x50mm, Waters
Retention time: 6.6 min
Base peak: 252.1226
Precursor m/z: 252.123
Precursor type: [M+H]+
m/z	relative intensity	assigned
77.0387	154	C6H5+
79.0543	351	C6H7+
91.0543	405	C7H7+
93.0697	25	C7H9+
95.0493	18	C6H7O+
103.0543	329	C8H7+
104.0495	10	C7H6N+
104.0618	5	C8H8+
105.045	77	C6H5N2+
105.07	999	C8H9+
106.0652	15	C7H8N+
106.0778	106	C8H10+
107.0734	15	C7H9N+
107.0856	47	C8H11+
109.0645	6	C7H9O+
115.0546	14	C9H7+
116.062	23	C9H8+
117.0574	583	C8H7N+
118.0652	479	C8H8N+
119.0493	9	C8H7O+
119.0604	34	C7H7N2+
119.0854	29	C9H11+
120.0808	110	C8H10N+
121.0651	15	C8H9O+
121.0882	15	C8H11N+
129.0698	13	C10H9+
130.0652	290	C9H8N+
131.0731	441	C9H9N+
132.0808	710	C9H10N+
133.0522	34	C8H7NO+
133.0763	12	C8H9N2+
133.0886	147	C9H11N+
134.0967	5	C9H12N+
143.073	13	C10H9N+
144.0804	11	C10H10N+
146.0603	9	C9H8NO+
146.0965	59	C10H12N+
148.076	13	C9H10NO+
148.1121	131	C10H14N+
149.0593	8	C9H9O2+
