Mass spectrum: 3-Hydroxycarbofuran; LC-ESI-QFT; MS2; CE: 120%; R=17500; [M+H]+
Name: 3-Hydroxycarbofuran
Name: (3-hydroxy-2,2-dimethyl-3H-1-benzofuran-7-yl) N-methylcarbamate
Formula: C12H15NO4
Exact mass: 237.1001
SMILES: CC1(C(C2=C(O1)C(=CC=C2)OC(=O)NC)O)C
InChI: InChI=1S/C12H15NO4/c1-12(2)10(14)7-5-4-6-8(9(7)17-12)16-11(15)13-3/h4-6,10,14H,1-3H3,(H,13,15)
Instrument: Exploris 240 Orbitrap Thermo Scientific
Instrument type: LC-ESI-QFT
Ms type: MS2
Ion mode: POSITIVE
Ionization: ESI
Fragmentation mode: HCD
Collision energy: 120 % (nominal)
Resolution: 17500
Column name: XBridge C18 3.5um, 2.1x50mm, Waters
Retention time: 4.051 min
Base peak: 220.0968
Precursor m/z: 238.1074
Precursor type: [M+H]+
m/z	relative intensity	assigned
51.023	27	C4H3+
53.0386	169	C4H5+
55.0178	45	C3H3O+
58.0287	772	C2H4NO+
65.0386	159	C5H5+
67.0544	20	C5H7+
68.9972	21	C3HO2+
77.0385	360	C6H5+
79.0542	197	C6H7+
81.0334	49	C5H5O+
91.0542	955	C7H7+
95.0491	267	C6H7O+
102.0462	67	C8H6+
107.0491	999	C7H7O+
115.0542	823	C9H7+
117.0698	207	C9H9+
123.0443	48	C7H7O2+
127.0543	60	C10H7+
145.0651	14	C10H9O+
