Mass spectrum: Pyraclostrobin; LC-ESI-ITFT; MS2; CE: 35%; R=7500; [M+H]+
Name: Pyraclostrobin
Name: methyl [2-({[1-(4-chlorophenyl)-1H-pyrazol-3-yl]oxy}methyl)phenyl]methoxycarbamate
Formula: C19H18ClN3O4
Exact mass: 387.0986
SMILES: c1(ccc(n2ccc(OCc3c(cccc3)N(OC)C(OC)=O)n2)cc1)Cl
InChI: InChI=1S/C19H18ClN3O4/c1-25-19(24)23(26-2)17-6-4-3-5-14(17)13-27-18-11-12-22(21-18)16-9-7-15(20)8-10-16/h3-12H,13H2,1-2H3
Instrument: LTQ Orbitrap XL Thermo Scientific
Instrument type: LC-ESI-ITFT
Ms type: MS2
Ion mode: POSITIVE
Ionization: ESI
Fragmentation mode: CID
Collision energy: 35 % (nominal)
Resolution: 7500
Column name: XBridge C18 3.5um, 2.1x50mm, Waters
Retention time: 13.4 min
Base peak: 388.1064
Precursor m/z: 388.1059
Precursor type: [M+H]+
m/z	relative intensity	assigned
118.0649	9	C8H8N+
119.0368	5	C4H8ClN2+
120.0443	15	C7H6NO+
132.0444	23	C8H6NO+
133.0523	26	C8H7NO+
134.06	21	C8H8NO+
149.0471	107	C8H7NO2+
162.055	140	C9H8NO2+
163.0628	161	C9H9NO2+
164.0706	353	C9H10NO2+
191.0816	4	C10H11N2O2+
194.0813	999	C10H12NO3+
216.0668	7	C9H13ClN2O2+
280.0646	5	C16H11ClN3+
281.047	13	C19H7NO2+
296.0584	795	C16H11ClN3O+
298.0728	17	C19H10N2O2+
324.053	183	C17H11ClN3O2+
328.0838	22	C17H15ClN3O2+
356.0793	673	C18H15ClN3O3+
357.0869	52	C18H16ClN3O3+
