Mass spectrum: Mefenpyr-diethyl; LC-ESI-QFT; MS2; CE: 60; R=35000; [M+H]+
Name: Mefenpyr-diethyl
Name: 1-(2,4-Dichlorophenyl)-4,5-dihydro-5-methyl-1H-pyrazole-3,5-dicarboxylic acid diethyl ester
Name: 1-(2,4-dichlorophenyl)-5-methyl-2-pyrazoline-3,5-dicarboxylic acid diethyl ester
Formula: C16H18Cl2N2O4
Exact mass: 372.06436
SMILES: Clc1cc(Cl)c(cc1)N2/N=C(/C(=O)OCC)CC2(C(=O)OCC)C
InChI: InChI=1S/C16H18Cl2N2O4/c1-4-23-14(21)12-9-16(3,15(22)24-5-2)20(19-12)13-7-6-10(17)8-11(13)18/h6-8H,4-5,9H2,1-3H3
Instrument: Q Exactive Orbitrap Thermo Scientific
Instrument type: LC-ESI-QFT
Ms type: MS2
Ion mode: POSITIVE
Ionization: ESI
Fragmentation mode: HCD
Collision energy: 60 (nominal)
Resolution: 35000
Column name: XBridge C18 3.5um, 2.1x50mm, Waters
Retention time: 13.5 min
Base peak: 373.0724
Precursor m/z: 373.0716
Precursor type: [M+H]+
m/z	relative intensity	assigned
62.9634	1	CClO+
66.034	2	C4H4N+
69.0336	2	C4H5O+
72.9839	3	C3H2Cl+
82.945	1	CHCl2+
84.984	23	C4H2Cl+
86.9633	8	C3ClO+
94.0289	4	C2H7ClN2+
98.0362	3	C5H6O2+
98.9997	19	C5H4Cl+
108.984	22	C6H2Cl+
112.0395	1	C5H6NO2+
112.9791	4	C5H2ClO+
120.9608	9	C4H3Cl2+
123.995	25	C6H3ClN+
125.0027	17	C6H4ClN+
126.9946	20	C6H4ClO+
128.0025	29	C6H5ClO+
132.9608	467	C5H3Cl2+
136.0075	3	C8H5Cl+
142.0056	10	C6H5ClNO+
144.9606	32	C6H3Cl2+
151.0184	10	C8H6ClN+
155.0008	4	C6H4ClN2O+
155.0605	8	C10H7N2+
156.0683	3	C10H8N2+
158.9765	4	C7H5Cl2+
159.9717	999	C6H4Cl2N+
160.9557	5	C6H3Cl2O+
160.9794	54	C6H5Cl2N+
162.0106	1	C9H5ClN+
162.0231	3	C10H7Cl+
162.9713	26	C6H5Cl2O+
163.0183	10	C9H6ClN+
164.0263	18	C9H7ClN+
165.0341	27	C9H8ClN+
171.9716	5	C7H4Cl2N+
172.9669	627	C6H3Cl2N2+
173.964	3	C7H4Cl2O+
173.9873	25	C7H6Cl2N+
177.9822	8	C6H6Cl2NO+
179.0373	3	C9H8ClN2+
183.9718	11	C8H4Cl2N+
184.9671	18	C7H3Cl2N2+
184.98	1	C8H5Cl2N+
185.9874	590	C11H3ClO+
186.9825	6	C7H5Cl2N2+
189.0216	38	C10H6ClN2+
190.0294	87	C10H7ClN2+
191.0372	6	C10H8ClN2+
192.045	14	C10H9ClN2+
196.9922	1	C10H7Cl2+
197.9875	9	C9H6Cl2N+
198.9827	1	C8H5Cl2N2+
199.9908	1	C8H6Cl2N2+
200.9982	8	C8H7Cl2N2+
209.9749	1	C9H4Cl2N2+
209.988	1	C10H6Cl2N+
218.0245	13	C11H7ClN2O+
219.0326	3	C11H8ClN2O+
223.9907	1	C10H6Cl2N2+
224.9983	23	C10H7Cl2N2+
225.9823	2	C10H6Cl2NO+
226.0063	8	C10H8Cl2N2+
227.014	29	C10H9Cl2N2+
243.0093	8	C10H9Cl2N2O+
252.9932	71	C11H7Cl2N2O+
271.0038	205	C11H9Cl2N2O2+
298.9988	79	C12H9Cl2N2O3+
327.0302	11	C14H13Cl2N2O3+
