Mass spectrum: Fenarimol; LC-ESI-QFT; MS2; CE: 30%; R=17500; [M+H]+
Name: Fenarimol
Name: (2-chlorophenyl)-(4-chlorophenyl)-pyrimidin-5-ylmethanol
Formula: C17H12Cl2N2O
Exact mass: 330.0327
SMILES: C1=CC=C(C(=C1)C(C2=CC=C(C=C2)Cl)(C3=CN=CN=C3)O)Cl
InChI: InChI=1S/C17H12Cl2N2O/c18-14-7-5-12(6-8-14)17(22,13-9-20-11-21-10-13)15-3-1-2-4-16(15)19/h1-11,22H
Instrument: Exploris 240 Orbitrap Thermo Scientific
Instrument type: LC-ESI-QFT
Ms type: MS2
Ion mode: POSITIVE
Ionization: ESI
Fragmentation mode: HCD
Collision energy: 30 % (nominal)
Resolution: 17500
Column name: XBridge C18 3.5um, 2.1x50mm, Waters
Retention time: 9.833 min
Base peak: 328.0614
Precursor m/z: 331.0399
Precursor type: [M+H]+
m/z	relative intensity	assigned
81.0447	45	C4H5N2+
138.9939	5	C7H4ClO+
183.0547	5	C11H7N2O+
192.0437	3	C13H6NO+
219.0316	8	C11H8ClN2O+
251.0018	7	C13H9Cl2O+
252.0331	17	C16H9ClO+
259.0075	31	C15H9Cl2+
268.0524	120	C16H11ClNO+
286.0176	3	C16H10Cl2N+
287.0014	8	C16H9Cl2O+
302.038	4	C16H12Cl2N2+
304.0293	69	C16H12Cl2NO+
313.0288	4	C17H11Cl2N2+
331.0394	999	C17H13Cl2N2O+
