Mass spectrum: Mebendazole; LC-ESI-QFT; MS2; CE: 180; R=35000; [M-H]-
Name: Mebendazole
Name: methyl N-(6-benzoyl-1H-benzimidazol-2-yl)carbamate
Formula: C16H13N3O3
Exact mass: 295.09569
SMILES: COC(=O)NC1=NC2=C(N1)C=C(C=C2)C(=O)C3=CC=CC=C3
InChI: InChI=1S/C16H13N3O3/c1-22-16(21)19-15-17-12-8-7-11(9-13(12)18-15)14(20)10-5-3-2-4-6-10/h2-9H,1H3,(H2,17,18,19,21)
Instrument: Q Exactive Plus Orbitrap Thermo Scientific
Instrument type: LC-ESI-QFT
Ms type: MS2
Ion mode: NEGATIVE
Ionization: ESI
Fragmentation mode: HCD
Collision energy: 180 (nominal)
Resolution: 35000
Column name: XBridge C18 3.5um, 2.1x50mm, Waters
Retention time: 7.5 min
Base peak: 262.0621
Precursor m/z: 294.0884
Precursor type: [M-H]-
m/z	relative intensity	assigned
50.0037	187	C3N-
63.0115	15	C4HN-
64.0194	999	C4H2N-
65.0145	68	C3HN2-
65.9986	23	C3NO-
74.0038	197	C5N-
86.0037	107	C6N-
87.0115	65	C6HN-
88.0067	73	C5N2-
88.0194	414	C6H2N-
89.0142	19	C5HN2-
101.0146	20	C6HN2-
113.0147	136	C7HN2-
115.0304	851	C7H3N2-
129.0334	295	C7H3N3-
156.0206	301	C8H2N3O-
157.0283	18	C8H3N3O-
