Mass spectrum: 3,4-Methylenedioxy-N-ethylamphetamine (MDEA); LC-ESI-QFT; MS2; CE: 30; R=35000; [M+H]+
Name: 3,4-Methylenedioxy-N-ethylamphetamine (MDEA)
Name: 3,4-methylenedioxyethamphetamine
Name: 1-(1,3-benzodioxol-5-yl)-N-ethylpropan-2-amine
Formula: C12H17NO2
Exact mass: 207.12593
SMILES: CCNC(C)CC1=CC2=C(C=C1)OCO2
InChI: InChI=1S/C12H17NO2/c1-3-13-9(2)6-10-4-5-11-12(7-10)15-8-14-11/h4-5,7,9,13H,3,6,8H2,1-2H3
Instrument: Q Exactive Plus Orbitrap Thermo Scientific
Instrument type: LC-ESI-QFT
Ms type: MS2
Ion mode: POSITIVE
Ionization: ESI
Fragmentation mode: HCD
Collision energy: 30 (nominal)
Resolution: 35000
Column name: XBridge C18 3.5um, 2.1x50mm, Waters
Retention time: 4.0 min
Base peak: 208.1326
Precursor m/z: 208.1332
Precursor type: [M+H]+
m/z	relative intensity	assigned
72.0807	71	C4H10N+
77.0383	1	C6H5+
105.0698	25	C8H9+
133.0647	65	C9H9O+
135.0439	70	C8H7O2+
148.0514	1	C9H8O2+
151.0753	1	C9H11O2+
163.0751	999	C10H11O2+
208.1331	144	C12H18NO2+
