Mass spectrum: Cilastatin; LC-ESI-ITFT; MS2; CE: 30%; R=15000; [M-H]-
Name: Cilastatin
Formula: C16H26N2O5S
Exact mass: 358.1562
SMILES: [H][C@](N)(CSCCCC\C=C(/NC(=O)[C@@]1([H])CC1(C)C)C(O)=O)C(O)=O
InChI: InChI=1S/C16H26N2O5S/c1-16(2)8-10(16)13(19)18-12(15(22)23)6-4-3-5-7-24-9-11(17)14(20)21/h6,10-11H,3-5,7-9,17H2,1-2H3,(H,18,19)(H,20,21)(H,22,23)/b12-6-/t10-,11+/m1/s1
Instrument: LTQ Orbitrap XL Thermo Scientific
Instrument type: LC-ESI-ITFT
Ms type: MS2
Ion mode: NEGATIVE
Ionization: ESI
Fragmentation mode: HCD
Collision energy: 30 % (nominal)
Resolution: 15000
Column name: XBridge C18 3.5um, 2.1x50mm, Waters
Retention time: 5.2 min
Base peak: 357.148
Precursor m/z: 357.149
Precursor type: [M-H]-
m/z	relative intensity	assigned
112.0763	50	C6H10NO-
192.1394	37	C12H18NO-
226.1271	999	C12H20NOS-
270.1169	75	C13H20NO3S-
313.1593	179	C15H25N2O3S-
357.1485	228	C16H25N2O5S-
