Mass spectrum: N4-Acetylsulfadimethoxine; LC-ESI-ITFT; MS2; CE: 60%; R=15000; [M+H]+
Name: N4-Acetylsulfadimethoxine
Name: N-[4-[(4,6-dimethoxy-2-pyrimidinyl)sulfamoyl]phenyl]acetamide
Formula: C14H16N4O5S
Exact mass: 352.0841
SMILES: C(C)(=O)Nc1ccc(cc1)S(=O)(=O)Nc1nc(cc(n1)OC)OC
InChI: InChI=1S/C14H16N4O5S/c1-9(19)15-10-4-6-11(7-5-10)24(20,21)18-14-16-12(22-2)8-13(17-14)23-3/h4-8H,1-3H3,(H,15,19)(H,16,17,18)
Instrument: LTQ Orbitrap XL Thermo Scientific
Instrument type: LC-ESI-ITFT
Ms type: MS2
Ion mode: POSITIVE
Ionization: ESI
Fragmentation mode: HCD
Collision energy: 60 % (nominal)
Resolution: 15000
Column name: XBridge C18 3.5um, 2.1x50mm, Waters
Retention time: 6.3 min
Base peak: 353.0926
Precursor m/z: 353.0914
Precursor type: [M+H]+
m/z	relative intensity	assigned
57.0447	9	C2H5N2+
65.0386	399	C5H5+
67.0291	17	C3H3N2+
72.0445	8	C3H6NO+
80.0494	7	C5H6N+
81.0449	13	C4H5N2+
86.0238	9	C3H4NO2+
92.0495	66	C6H6N+
93.0335	65	C6H5O+
93.0573	22	C6H7N+
94.065	7	C6H8N+
96.0555	10	C4H6N3+
97.0637	12	C4H7N3+
99.0187	9	C3H3N2O2+
99.0554	11	C4H7N2O+
106.0651	31	C7H8N+
108.0444	440	C6H6NO+
109.0397	11	C5H5N2O+
110.0349	30	C4H4N3O+
116.0496	10	C8H6N+
124.0219	8	C6H6NS+
125.0584	125	C5H7N3O+
126.0662	139	C5H8N3O+
127.0503	60	C5H7N2O2+
134.0601	999	C8H8NO+
136.0761	7	C8H10NO+
139.0371	11	C5H5N3O2+
140.0455	89	C5H6N3O2+
141.0532	30	C5H7N3O2+
142.0615	6	C5H8N3O2+
148.0758	9	C9H10NO+
154.0612	880	C6H8N3O2+
155.069	279	C6H9N3O2+
156.0113	43	C6H6NO2S+
156.0768	490	C6H10N3O2+
157.0482	128	C5H7N3O3+
162.0663	34	C8H8N3O+
164.0707	54	C9H10NO2+
170.0556	6	C6H8N3O3+
173.0585	147	C9H7N3O+
198.0221	21	C8H8NO3S+
215.069	73	C11H9N3O2+
218.0231	29	C6H8N3O4S+
230.0799	49	C11H10N4O2+
245.1032	26	C12H13N4O2+
287.1135	23	C14H15N4O3+
