Mass spectrum: MCYR; LC-ESI-QFT; MS2; CE: 60%; R=17500; [M+H]+
Name: MCYR
Name: Microcystin YR
Name: (5R,8S,11R,12S,15S,18S,19S,22R)-15-[3-(diaminomethylideneamino)propyl]-8-[(4-hydroxyphenyl)methyl]-18-[(1E,3E,5S,6S)-6-methoxy-3,5-dimethyl-7-phenylhepta-1,3-dienyl]-1,5,12,19-tetramethyl-2-methylidene-3,6,9,13,16,20,25-heptaoxo-1,4,7,10,14,17,21-heptazacyclopentacosane-11,22-dicarboxylic acid
Class: NA
Formula: C52H72N10O13
Exact mass: 1044.5280
SMILES: CO[C@@H](Cc1ccccc1)[C@@H](C)\C=C(C)\C=C\[C@@H]2NC(=O)[C@H](CCCNC(N)=N)NC(=O)[C@@H](C)[C@@H](NC(=O)[C@H](Cc3ccc(O)cc3)NC(=O)[C@@H](C)NC(=O)C(=C)N(C)C(=O)CC[C@@H](NC(=O)[C@H]2C)C(O)=O)C(O)=O
InChI: InChI=1S/C52H72N10O13/c1-28(25-29(2)41(75-8)27-34-13-10-9-11-14-34)16-21-37-30(3)44(65)59-39(50(71)72)22-23-42(64)62(7)33(6)47(68)56-32(5)46(67)60-40(26-35-17-19-36(63)20-18-35)49(70)61-43(51(73)74)31(4)45(66)58-38(48(69)57-37)15-12-24-55-52(53)54/h9-11,13-14,16-21,25,29-32,37-41,43,63H,6,12,15,22-24,26-27H2,1-5,7-8H3,(H,56,68)(H,57,69)(H,58,66)(H,59,65)(H,60,67)(H,61,70)(H,71,72)(H,73,74)(H4,53,54,55)/b21-16+,28-25+/t29-,30-,31-,32+,37-,38-,39+,40-,41-,43+/m0/s1
Instrument: Q Exactive Plus Orbitrap Thermo Scientific
Instrument type: LC-ESI-QFT
Ms type: MS2
Ion mode: POSITIVE
Ionization: ESI
Fragmentation mode: HCD
Collision energy: 60 % (nominal)
Resolution: 17500
Column name: XBridge C18 3.5um, 2.1x50mm, Waters
Retention time: 8.039 min
Base peak: 523.2719
Precursor m/z: 1045.5353
Precursor type: [M+H]+
m/z	relative intensity	assigned
74.06	6	C3H8NO+
77.0385	25	C6H5+
79.0542	139	C6H7+
80.0494	29	C5H6N+
81.0696	9	C6H9+
82.0288	22	C4H4NO+
82.0652	77	C5H8N+
83.0603	5	C4H7N2+
84.0444	263	C4H6NO+
84.0809	6	
85.0285	8	C4H5O2+
85.0758	21	C4H9N2+
86.06	15	C4H8NO+
87.0793	10	C3H9N3+
91.0543	535	C7H7+
92.0623	6	C7H8+
93.07	202	C7H9+
94.0652	25	C6H8N+
95.0492	228	C6H7O+
95.0601	47	C5H7N2+
95.0854	13	C7H11+
96.0443	11	C5H6NO+
96.0807	9	C6H10N+
97.0761	95	C5H9N2+
98.0601	117	C5H8NO+
99.019	33	C3H3N2O2+
99.0917	99	C5H11N2+
100.0754	7	C5H10NO+
101.0711	4	C4H9N2O+
102.0465	16	C8H6+
102.0549	14	C4H8NO2+
103.0542	999	C8H7+
105.0449	65	C6H5N2+
105.0699	625	C8H9+
107.0491	25	
107.0855	680	C8H11+
108.0806	14	C7H10N+
109.0648	42	C7H9O+
110.0601	29	C6H8NO+
111.0553	5	C5H7N2O+
112.0392	21	C5H6NO2+
112.0869	262	C5H10N3+
113.0232	24	C5H5O3+
113.0709	60	C5H9N2O+
114.0549	10	C5H8NO2+
114.1026	54	C5H12N3+
115.0543	135	C9H7+
115.0867	145	C5H11N2O+
116.0624	9	C9H8+
116.0702	10	C5H10NO2+
117.0699	241	C9H9+
119.0491	114	C8H7O+
119.0603	17	C7H7N2+
119.0854	41	C9H11+
120.0571	29	C8H8O+
120.0806	36	C8H10N+
121.076	27	C7H9N2+
121.1008	10	C9H13+
122.0601	18	C7H8NO+
122.0713	9	C6H8N3+
122.0968	11	C8H12N+
123.0918	13	C7H11N2+
124.076	23	C7H10NO+
124.112	17	C8H14N+
125.0709	12	C6H9N2O+
126.0661	7	C5H8N3O+
127.0866	727	C6H11N2O+
128.0619	9	C10H8+
128.0705	13	C6H10NO2+
129.07	25	C10H9+
130.0501	37	C5H8NO3+
130.0975	22	C5H12N3O+
131.0856	43	C10H11+
133.1013	26	C10H13+
135.0804	685	C9H11O+
135.1168	238	C10H15+
136.0757	598	C8H10NO+
138.0551	57	C7H8NO2+
138.0656	10	C6H8N3O+
139.0868	19	C7H11N2O+
139.0978	20	C6H11N4+
140.0713	9	C7H10NO2+
140.0818	65	C6H10N3O+
141.0658	173	C6H9N2O2+
143.0855	11	C11H11+
145.1012	27	C11H13+
146.0965	10	C10H12N+
147.0441	23	C9H7O2+
149.0711	51	C8H9N2O+
151.0863	14	C8H11N2O+
152.0707	10	C8H10NO2+
152.0814	6	C7H10N3O+
153.1026	25	C8H13N2O+
155.0815	89	C7H11N2O2+
157.1087	60	C6H13N4O+
158.0924	32	C6H12N3O2+
160.0759	8	C10H10NO+
162.0912	7	C10H12NO+
162.1034	9	C11H14O+
163.1119	53	C11H15O+
164.0702	10	C9H10NO2+
165.1021	6	C9H13N2O+
167.0816	195	C8H11N2O2+
168.0656	16	C8H10NO3+
172.1119	22	C12H14N+
174.0909	8	C11H12NO+
174.1349	14	C6H16N5O+
178.0975	15	C9H12N3O+
179.0838	8	C14H11+
181.099	22	C9H13N2O2+
182.1043	34	C7H12N5O+
183.0883	33	C7H11N4O2+
193.0984	9	C10H13N2O2+
195.0767	88	C9H11N2O3+
195.1162	9	H21NO10+
196.0608	13	C9H10NO4+
198.1239	11	C9H16N3O2+
200.1145	57	C7H14N5O2+
201.0983	34	C7H13N4O3+
208.108	10	C10H14N3O2+
209.0923	12	C10H13N2O3+
211.0719	14	C9H11N2O4+
213.0873	130	C9H13N2O4+
224.1033	10	C10H14N3O3+
226.1193	25	C10H16N3O3+
226.1592	9	C16H20N+
233.0917	6	C12H13N2O3+
239.0662	23	C9H5N9+
