Mass spectrum: Chloralose; LC-ESI-QFT; MS2; CE: 15%; R=17500; [M+H]+
Name: Chloralose
Name: Glucochloralose
Name: 1-[6-hydroxy-2-(trichloromethyl)-3a,5,6,6a-tetrahydrofuro[2,3-d][1,3]dioxol-5-yl]ethane-1,2-diol
Formula: C8H11Cl3O6
Exact mass: 307.9621
SMILES: C(C(C1C(C2C(O1)OC(O2)C(Cl)(Cl)Cl)O)O)O
InChI: InChI=1S/C8H11Cl3O6/c9-8(10,11)7-16-5-3(14)4(2(13)1-12)15-6(5)17-7/h2-7,12-14H,1H2
Instrument: Exploris 240 Orbitrap Thermo Scientific
Instrument type: LC-ESI-QFT
Ms type: MS2
Ion mode: POSITIVE
Ionization: ESI
Fragmentation mode: HCD
Collision energy: 15 % (nominal)
Resolution: 17500
Column name: XBridge C18 3.5um, 2.1x50mm, Waters
Retention time: 4.863 min
Base peak: 308.9692
Precursor m/z: 308.9694
Precursor type: [M+H]+
m/z	relative intensity	assigned
57.0335	14	C3H5O+
69.0337	60	C4H5O+
71.0125	10	C3H3O2+
73.0285	25	C3H5O2+
81.0335	94	C5H5O+
85.0284	331	C4H5O2+
91.0389	57	C3H7O3+
97.0283	95	C5H5O2+
99.044	93	C5H7O2+
103.0392	63	C4H7O3+
109.0284	406	C6H5O2+
117.0104	17	C5H6ClO+
127.0389	869	C6H7O3+
138.9715	22	C4H5Cl2O+
145.0495	911	C6H9O4+
198.9481	30	C6H6Cl3O+
216.9226	26	C5H4Cl3O3+
228.922	166	C6H4Cl3O3+
230.9373	33	C6H6Cl3O3+
272.9483	999	C8H8Cl3O4+
