Mass spectrum: Timolol; LC-ESI-QFT; MS2; CE: 75; R=35000; [M+H]+
Name: Timolol
Name: 1-(tert-butylamino)-3-[(4-morpholin-4-yl-1,2,5-thiadiazol-3-yl)oxy]propan-2-ol
Formula: C13H24N4O3S
Exact mass: 316.15691
SMILES: CC(C)(C)NCC(O)COC1=NSN=C1N1CCOCC1
InChI: InChI=1S/C13H24N4O3S/c1-13(2,3)14-8-10(18)9-20-12-11(15-21-16-12)17-4-6-19-7-5-17/h10,14,18H,4-9H2,1-3H3
Instrument: Q Exactive Plus Orbitrap Thermo Scientific
Instrument type: LC-ESI-QFT
Ms type: MS2
Ion mode: POSITIVE
Ionization: ESI
Fragmentation mode: HCD
Collision energy: 75 (nominal)
Resolution: 35000
Column name: XBridge C18 3.5um, 2.1x50mm, Waters
Retention time: 4.9 min
Base peak: 317.164
Precursor m/z: 317.1642
Precursor type: [M+H]+
m/z	relative intensity	assigned
53.0022	3	C3HO+
56.0495	544	C3H6N+
57.0699	297	C4H9+
58.0651	10	C3H8N+
58.995	3	C2H3S+
59.9903	24	CH2NS+
62.0059	13	CH4NS+
67.9894	1	C3O2+
68.0494	4	C4H6N+
69.0447	42	C3H5N2+
70.0525	6	C3H6N2+
70.0651	2	C4H8N+
71.0604	3	C3H7N2+
71.9902	9	C2H2NS+
74.0059	171	C2H4NS+
74.06	999	C3H8NO+
76.0215	4	C2H6NS+
85.0396	3	C3H5N2O+
85.0522	2	C4H7NO+
85.9694	5	C2NOS+
86.0059	6	C3H4NS+
86.06	61	C4H8NO+
87.9851	4	C2H2NOS+
88.0217	1	C3H6NS+
88.0757	5	C4H10NO+
95.0605	2	C5H7N2+
99.0011	10	C3H3N2S+
101.0168	22	C3H5N2S+
102.0009	2	C3H4NOS+
102.9961	3	C2H3N2OS+
104.0165	7	C3H6NOS+
111.0553	3	C5H7N2O+
112.063	2	C5H8N2O+
113.0709	363	C5H9N2O+
114.9961	5	C3H3N2OS+
116.0275	1	C3H6N3S+
118.0321	8	C4H8NOS+
126.0121	1	C4H4N3S+
126.9961	14	C4H3N2OS+
127.0324	2	C5H7N2S+
127.0501	2	C5H7N2O2+
127.9914	14	C3H2N3OS+
128.0277	2	C4H6N3S+
128.9994	1	C3H3N3OS+
130.0071	7	C3H4N3OS+
132.0113	4	C4H6NO2S+
138.066	1	C6H8N3O+
142.0071	2	C4H4N3OS+
143.0274	1	C5H7N2OS+
144.0226	417	C4H6N3OS+
145.0066	21	C4H5N2O2S+
145.043	73	C5H9N2OS+
154.0613	3	C6H8N3O2+
158.0384	3	C5H8N3OS+
158.0927	1	C6H12N3O2+
159.0223	23	C5H7N2O2S+
160.0176	2	C4H6N3O2S+
167.0689	6	C7H9N3O2+
168.0227	1	C6H6N3OS+
170.0383	25	C6H8N3OS+
172.054	14	C6H10N3OS+
186.0334	1	C6H8N3O2S+
188.0488	216	C6H10N3O2S+
200.0489	3	C7H10N3O2S+
244.0751	19	C9H14N3O3S+
