Mass spectrum: Pyrifluquinazon; LC-ESI-QFT; MS2; CE: 150%; R=17500; [M+H]+
Name: Pyrifluquinazon
Name: 1-acetyl-6-(1,1,1,2,3,3,3-heptafluoropropan-2-yl)-3-(pyridin-3-ylmethylamino)-4H-quinazolin-2-one
Formula: C19H15F7N4O2
Exact mass: 464.1083
SMILES: CC(=O)N1C2=C(CN(C1=O)NCC3=CN=CC=C3)C=C(C=C2)C(C(F)(F)F)(C(F)(F)F)F
InChI: InChI=1S/C19H15F7N4O2/c1-11(31)30-15-5-4-14(17(20,18(21,22)23)19(24,25)26)7-13(15)10-29(16(30)32)28-9-12-3-2-6-27-8-12/h2-8,28H,9-10H2,1H3
Instrument: Exploris 240 Orbitrap Thermo Scientific
Instrument type: LC-ESI-QFT
Ms type: MS2
Ion mode: POSITIVE
Ionization: ESI
Fragmentation mode: HCD
Collision energy: 150 % (nominal)
Resolution: 17500
Column name: XBridge C18 3.5um, 2.1x50mm, Waters
Retention time: 8.322 min
Base peak: 465.1151
Precursor m/z: 465.1156
Precursor type: [M+H]+
m/z	relative intensity	assigned
51.0229	25	C4H3+
52.0308	22	C4H4+
53.0386	100	C4H5+
54.0339	23	C3H4N+
65.0386	999	C5H5+
66.0464	263	C5H6+
67.0416	275	C4H5N+
78.0338	81	C5H4N+
79.0416	84	C5H5N+
80.0494	339	C5H6N+
92.0495	571	C6H6N+
93.0573	486	C6H7N+
96.0445	18	C5H6NO+
107.0601	36	C6H7N2+
