Mass spectrum: Chloramphenicol; LC-ESI-QFT; MS2; CE: 15; R=35000; [M+H]+
Name: Chloramphenicol
Name: CLM
Name: 2,2-bis(chloranyl)-N-[(1R,2R)-1-(4-nitrophenyl)-1,3-bis(oxidanyl)propan-2-yl]ethanamide
Formula: C11H12Cl2N2O5
Exact mass: 322.01233
SMILES: c1cc(ccc1[C@H]([C@@H](CO)NC(=O)C(Cl)Cl)O)[N+](=O)[O-]
InChI: InChI=1S/C11H12Cl2N2O5/c12-10(13)11(18)14-8(5-16)9(17)6-1-3-7(4-2-6)15(19)20/h1-4,8-10,16-17H,5H2,(H,14,18)/t8-,9-/m1/s1
Instrument: Q Exactive Orbitrap Thermo Scientific
Instrument type: LC-ESI-QFT
Ms type: MS2
Ion mode: POSITIVE
Ionization: ESI
Fragmentation mode: HCD
Collision energy: 15 (nominal)
Resolution: 35000
Column name: XBridge C18 3.5um, 2.1x50mm, Waters
Retention time: 5.8 min
Base peak: 305.0091
Precursor m/z: 323.0196
Precursor type: [M+H]+
m/z	relative intensity	assigned
82.945	5	CHCl2+
127.9664	6	C2H4Cl2NO+
132.0568	3	C9H8O+
136.0392	1	C7H6NO2+
165.0655	16	C8H9N2O2+
166.0498	1	C8H8NO3+
178.05	3	C9H8NO3+
229.0051	3	C10H9Cl2NO+
241.0055	91	C11H9Cl2NO+
257.9952	5	C10H8Cl2N2O2+
269.9956	5	C11H8Cl2N2O2+
274.9983	999	C10H9Cl2N2O3+
286.9983	34	C11H9Cl2N2O3+
293.0091	2	C10H11Cl2N2O4+
305.0089	555	C11H11Cl2N2O4+
