Mass spectrum: Lacosamide; LC-ESI-QFT; MS2; CE: 90; R=35000; [M-H]-
Name: Lacosamide
Name: N2-Acetyl-N-benzyl-O-methyl-D-serinamide
Name: 2-acetamido-N-benzyl-3-methoxypropanamide
Formula: C13H18N2O3
Exact mass: 250.13174
SMILES: CC(=O)NC(COC)C(=O)NCC1=CC=CC=C1
InChI: InChI=1S/C13H18N2O3/c1-10(16)15-12(9-18-2)13(17)14-8-11-6-4-3-5-7-11/h3-7,12H,8-9H2,1-2H3,(H,14,17)(H,15,16)
Instrument: Q Exactive Plus Orbitrap Thermo Scientific
Instrument type: LC-ESI-QFT
Ms type: MS2
Ion mode: NEGATIVE
Ionization: ESI
Fragmentation mode: HCD
Collision energy: 90 (nominal)
Resolution: 35000
Column name: XBridge C18 3.5um, 2.1x50mm, Waters
Retention time: 5.0 min
Base peak: 295.1293
Precursor m/z: 249.1245
Precursor type: [M-H]-
m/z	relative intensity	assigned
52.0191	11	C3H2N-
57.0345	999	C3H5O-
58.0298	276	C2H4NO-
59.0138	103	C2H3O2-
66.0349	15	C4H4N-
68.0141	25	C3H2NO-
70.0298	27	C3H4NO-
82.0298	69	C4H4NO-
84.0454	565	C4H6NO-
85.0168	57	C3H3NO2-
91.0553	27	C7H7-
93.0344	33	C6H5O-
96.0328	13	C4H4N2O-
102.0349	53	C7H4N-
104.0507	12	C7H6N-
110.0248	74	C5H4NO2-
111.02	305	C4H3N2O2-
116.0505	169	C8H6N-
121.0294	104	C7H5O2-
130.066	41	C9H8N-
132.0452	37	C8H6NO-
134.0612	13	C8H8NO-
143.0614	7	C9H7N2-
148.0768	122	C9H10NO-
171.0925	32	C11H11N2-
184.0639	33	C11H8N2O-
199.0873	10	C12H11N2O-
