Mass spectrum: Nodularin; LC-ESI-QFT; MS2; CE: 90; R=35000; [M-H]-
Name: Nodularin
Name: (2Z,5R,6S,9S,12S,13S,16R)-9-[3-(diaminomethylideneamino)propyl]-2-ethylidene-12-[(1E,3E,5S,6S)-6-methoxy-3,5-dimethyl-7-phenylhepta-1,3-dienyl]-1,6,13-trimethyl-3,7,10,14,19-pentaoxo-1,4,8,11,15-pentazacyclononadecane-5,16-dicarboxylic acid
Formula: C41H60N8O10
Exact mass: 824.44324
SMILES: NC(=N)NCCC[C@@H]2NC(=O)[C@@H](C)[C@@H](NC(=O)C(=C\C)\N(C)C(=O)CC[C@@H](NC(=O)[C@@H](C)[C@H](/C=C/C(/C)=C/[C@H](C)[C@H](Cc1ccccc1)OC)NC2=O)C(=O)O)C(O)=O
InChI: InChI=1S/C41H60N8O10/c1-8-31-38(54)48-34(40(57)58)26(5)36(52)46-29(15-12-20-44-41(42)43)37(53)45-28(25(4)35(51)47-30(39(55)56)18-19-33(50)49(31)6)17-16-23(2)21-24(3)32(59-7)22-27-13-10-9-11-14-27/h8-11,13-14,16-17,21,24-26,28-30,32,34H,12,15,18-20,22H2,1-7H3,(H,45,53)(H,46,52)(H,47,51)(H,48,54)(H,55,56)(H,57,58)(H4,42,43,44)/b17-16+,23-21+,31-8-/t24-,25-,26-,28-,29-,30+,32-,34+/m0/s1
Instrument: Q Exactive Orbitrap Thermo Scientific
Instrument type: LC-ESI-QFT
Ms type: MS2
Ion mode: NEGATIVE
Ionization: ESI
Fragmentation mode: HCD
Collision energy: 90 (nominal)
Resolution: 35000
Column name: XBridge C18 3.5um, 2.1x50mm, Waters
Retention time: 9.7 min
Base peak: 823.4366
Precursor m/z: 823.436
Precursor type: [M-H]-
m/z	relative intensity	assigned
58.0298	166	C2H4NO-
58.041	87	CH4N3-
65.9986	15	C3NO-
66.0349	240	C4H4N-
67.0189	92	C4H3O-
67.0302	47	C3H3N2-
68.0507	54	C4H6N-
70.0299	52	C3H4NO-
71.0251	11	C2H3N2O-
71.0503	13	C4H7O-
72.0092	73	C2H2NO2-
72.0455	494	C3H6NO-
73.0296	102	C3H5O2-
74.0247	388	C2H4NO2-
80.0507	48	C5H6N-
81.0221	48	C4H3NO-
81.0459	20	C4H5N2-
82.0298	333	C4H4NO-
83.0615	99	C4H7N2-
84.0455	709	C4H6NO-
85.0296	16	C4H5O2-
85.066	48	C5H9O-
86.0249	15	C3H4NO2-
86.0612	11	C4H8NO-
94.0299	59	C5H4NO-
95.0251	209	C4H3N2O-
95.0376	57	C5H5NO-
95.0615	12	C5H7N2-
96.0455	72	C5H6NO-
97.0657	14	C6H9O-
98.0613	23	C5H8NO-
102.0559	16	C4H8NO2-
106.0664	24	C7H8N-
107.0377	13	C6H5NO-
108.0455	82	C6H6NO-
109.0169	20	C5H3NO2-
109.0408	62	C5H5N2O-
110.0248	999	C5H4NO2-
110.0486	93	C5H6N2O-
111.0327	23	C5H5NO2-
111.0565	50	C5H7N2O-
112.0404	244	C5H6NO2-
112.0768	81	C6H10NO-
113.072	228	C5H9N2O-
121.0407	80	C6H5N2O-
121.0534	22	C7H7NO-
122.0246	16	C6H4NO2-
122.0487	145	C6H6N2O-
122.061	16	C7H8NO-
122.0974	14	C8H12N-
123.0327	171	C6H5NO2-
123.0566	17	C6H7N2O-
124.0402	16	C6H6NO2-
124.0768	21	C7H10NO-
127.0514	63	C5H7N2O2-
128.0354	301	C5H6NO3-
130.0983	46	C5H12N3O-
135.0565	67	C7H7N2O-
136.0404	15	C7H6NO2-
137.0721	54	C7H9N2O-
138.0559	74	C7H8NO2-
139.0515	22	C6H7N2O2-
148.0403	15	C8H6NO2-
149.0481	28	C8H7NO2-
163.0876	16	C9H11N2O-
