Mass spectrum: Buflomedil; LC-ESI-QFT; MS2; CE: 15; R=35000; [M+H]+
Name: Buflomedil
Name: 4-(1-pyrrolidinyl)-1-(2,4,6-trimethoxyphenyl)-1-butanone
Formula: C17H25NO4
Exact mass: 307.17836
SMILES: O=C(c1c(OC)cc(OC)cc1OC)CCCN2CCCC2
InChI: InChI=1S/C17H25NO4/c1-20-13-11-15(21-2)17(16(12-13)22-3)14(19)7-6-10-18-8-4-5-9-18/h11-12H,4-10H2,1-3H3
Instrument: Q Exactive Orbitrap Thermo Scientific
Instrument type: LC-ESI-QFT
Ms type: MS2
Ion mode: POSITIVE
Ionization: ESI
Fragmentation mode: HCD
Collision energy: 15 (nominal)
Resolution: 35000
Column name: XBridge C18 3.5um, 2.1x50mm, Waters
Retention time: 4.8 min
Base peak: 308.1855
Precursor m/z: 308.1856
Precursor type: [M+H]+
m/z	relative intensity	assigned
98.0599	2	C5H8NO+
140.1068	332	C8H14NO+
195.0647	4	C10H11O4+
237.1119	207	C13H17O4+
290.1749	6	C17H24NO3+
308.1853	999	C17H26NO4+
