Mass spectrum: Phorate; LC-ESI-QFT; MS2; CE: 120%; R=17500; [M+H]+
Name: Phorate
Name: diethoxy-(ethylsulfanylmethylsulfanyl)-sulfanylidene-lambda5-phosphane
Formula: C7H17O2PS3
Exact mass: 260.0128
SMILES: CCOP(=S)(OCC)SCSCC
InChI: InChI=1S/C7H17O2PS3/c1-4-8-10(11,9-5-2)13-7-12-6-3/h4-7H2,1-3H3
Instrument: Exploris 240 Orbitrap Thermo Scientific
Instrument type: LC-ESI-QFT
Ms type: MS2
Ion mode: POSITIVE
Ionization: ESI
Fragmentation mode: HCD
Collision energy: 120 % (nominal)
Resolution: 17500
Column name: XBridge C18 3.5um, 2.1x50mm, Waters
Retention time: 11.631 min
Base peak: 374.0931
Precursor m/z: 261.0201
Precursor type: [M+H]+
m/z	relative intensity	assigned
64.9787	193	H2O2P+
75.0263	999	C3H7S+
78.9404	110	OPS+
96.9509	424	H2O2PS+
