Mass spectrum: N-Bisdesmethyl Tramadol; LC-ESI-QFT; MS2; CE: 120; R=35000; [M+H]+
Name: N-Bisdesmethyl Tramadol
Name: 2-(aminomethyl)-1-(3-methoxyphenyl)cyclohexan-1-ol
Formula: C14H21NO2
Exact mass: 235.15723
SMILES: COC1=CC=CC(=C1)C2(CCCCC2CN)O
InChI: InChI=1S/C14H21NO2/c1-17-13-7-4-6-11(9-13)14(16)8-3-2-5-12(14)10-15/h4,6-7,9,12,16H,2-3,5,8,10,15H2,1H3
Instrument: Q Exactive Plus Orbitrap Thermo Scientific
Instrument type: LC-ESI-QFT
Ms type: MS2
Ion mode: POSITIVE
Ionization: ESI
Fragmentation mode: HCD
Collision energy: 120 (nominal)
Resolution: 35000
Column name: XBridge C18 3.5um, 2.1x50mm, Waters
Retention time: 5.2 min
Base peak: 236.1644
Precursor m/z: 236.1645
Precursor type: [M+H]+
m/z	relative intensity	assigned
50.0151	3	C4H2+
51.0229	51	C4H3+
52.0308	4	C4H4+
53.0386	105	C4H5+
55.0178	7	C3H3O+
55.0542	7	C4H7+
56.0495	3	C3H6N+
63.0228	4	C5H3+
65.0386	309	C5H5+
66.0464	5	C5H6+
67.0542	21	C5H7+
77.0385	130	C6H5+
78.0464	429	C6H6+
79.0542	118	C6H7+
81.0335	4	C5H5O+
81.0699	56	C6H9+
89.0387	13	C7H5+
90.0463	7	C7H6+
91.0543	999	C7H7+
92.0257	3	C6H4O+
93.0699	13	C7H9+
95.0491	221	C6H7O+
102.0464	14	C8H6+
103.0542	31	C8H7+
104.062	16	C8H8+
105.0447	127	C6H5N2+
105.07	12	C8H9+
106.0413	86	C7H6O+
107.049	22	C7H7O+
109.0648	11	C7H9O+
115.0543	115	C9H7+
116.062	34	C9H8+
117.07	18	C9H9+
119.0604	6	C7H7N2+
121.0648	710	C8H9O+
127.0545	4	C10H7+
128.062	42	C10H8+
129.0699	25	C10H9+
131.0491	27	C9H7O+
132.0569	5	C9H8O+
144.0569	25	C10H8O+
145.0647	12	C10H9O+
147.0806	3	C10H11O+
155.0606	12	C10H7N2+
