Mass spectrum: Mianserin; LC-ESI-QFT; MS2; CE: 150; R=35000; [M+H]+
Name: Mianserin
Name: 2-Methyl-1,2,3,4,10,14b-hexahydrodibenzo[c,f]pyrazino[1,2-a]azepine
Formula: C18H20N2
Exact mass: 264.16265
SMILES: CN1CCN2C(C1)C3=CC=CC=C3CC4=CC=CC=C42
InChI: InChI=1S/C18H20N2/c1-19-10-11-20-17-9-5-3-7-15(17)12-14-6-2-4-8-16(14)18(20)13-19/h2-9,18H,10-13H2,1H3
Instrument: Q Exactive Plus Orbitrap Thermo Scientific
Instrument type: LC-ESI-QFT
Ms type: MS2
Ion mode: POSITIVE
Ionization: ESI
Fragmentation mode: HCD
Collision energy: 150 (nominal)
Resolution: 35000
Column name: XBridge C18 3.5um, 2.1x50mm, Waters
Retention time: 6.5 min
Base peak: 265.1696
Precursor m/z: 265.1699
Precursor type: [M+H]+
m/z	relative intensity	assigned
50.0151	47	C4H2+
51.0229	98	C4H3+
53.0022	10	C3HO+
53.0386	82	C4H5+
55.0178	1	C3H3O+
55.0416	1	C3H5N+
56.0495	105	C3H6N+
57.0573	10	C3H7N+
58.0651	314	C3H8N+
62.0151	11	C5H2+
63.0229	87	C5H3+
64.0308	9	C5H4+
65.0386	781	C5H5+
66.0463	14	C5H6+
67.0415	7	C4H5N+
70.065	17	C4H8N+
72.0807	2	C4H10N+
74.015	2	C6H2+
75.0228	13	C6H3+
76.0306	2	C6H4+
77.0385	165	C6H5+
78.0337	3	C5H4N+
78.0464	48	C6H6+
79.0542	77	C6H7+
80.0494	8	C5H6N+
81.0335	8	C5H5O+
83.0603	2	C4H7N2+
85.0759	15	C4H9N2+
89.0385	381	C7H5+
90.0464	144	C7H6+
91.0542	999	C7H7+
92.0494	9	C6H6N+
93.0574	18	C6H7N+
95.0491	277	C6H7O+
96.0443	7	C5H6NO+
102.0464	43	C8H6+
103.0542	190	C8H7+
104.0494	18	C7H6N+
104.0619	12	C8H8+
105.0447	163	C6H5N2+
105.0699	23	C8H9+
106.0651	41	C7H8N+
109.0647	1	C7H9O+
113.0385	2	C9H5+
115.0542	568	C9H7+
116.0494	47	C8H6N+
116.062	31	C9H8+
117.0572	178	C8H7N+
117.0698	19	C9H9+
118.0651	72	C8H8N+
119.0491	3	C8H7O+
119.0729	2	C8H9N+
120.0807	3	C8H10N+
126.0464	9	C10H6+
127.0542	16	C10H7+
128.0495	34	C9H6N+
128.062	103	C10H8+
129.0447	18	C8H5N2+
129.0573	18	C9H7N+
129.0699	7	C10H9+
130.0651	225	C9H8N+
131.0603	2	C8H7N2+
131.073	20	C9H9N+
132.0809	7	C9H10N+
139.0542	34	C11H7+
140.0495	13	C10H6N+
140.0621	4	C11H8+
141.0572	2	C10H7N+
141.0699	8	C11H9+
142.0651	18	C10H8N+
143.0729	25	C10H9N+
144.0807	63	C10H10N+
145.0648	9	C10H9O+
146.0598	14	C9H8NO+
150.0463	13	C12H6+
151.0544	12	C12H7+
152.062	167	C12H8+
153.0574	2	C11H7N+
153.0699	9	C12H9+
154.0652	8	C11H8N+
155.0604	15	C10H7N2+
156.0808	11	C11H10N+
158.0963	2	C11H12N+
163.0541	29	C13H7+
164.062	44	C13H8+
165.0699	510	C13H9+
166.0652	19	C12H8N+
166.0774	8	C13H10+
167.0731	19	C12H9N+
168.0571	12	C12H8O+
169.0648	53	C12H9O+
176.062	142	C14H8+
177.058	15	C13H7N+
177.0698	70	C14H9+
178.0663	19	
178.0776	262	C14H10+
179.0602	14	C12H7N2+
179.0731	12	C13H9N+
179.0857	14	C14H11+
180.0808	16	C13H10N+
188.0625	2	C15H8+
189.0698	62	C15H9+
190.0651	53	C14H8N+
190.0779	8	C15H10+
191.0728	67	C14H9N+
191.0855	6	C15H11+
192.0808	56	C14H10N+
193.0886	40	C14H11N+
200.0617	8	C16H8+
201.0701	2	C16H9+
202.0649	1	C15H8N+
202.0776	24	C16H10+
203.0729	22	C15H9N+
203.0865	1	C16H11+
204.0808	129	C15H10N+
205.0885	15	C15H11N+
206.0965	24	C15H12N+
214.0648	2	C16H8N+
215.073	4	C16H9N+
216.0807	59	C16H10N+
217.0886	50	C16H11N+
218.0839	9	C15H10N2+
218.0965	9	C16H12N+
219.092	3	C15H11N2+
230.0962	2	C17H12N+
