Mass spectrum: Hydrocortisone; LC-ESI-QFT; MS2; CE: 60; R=35000; [M+H]+
Name: (8S,9S,10R,11S,13S,14S,17R)-11,17-dihydroxy-17-(2-hydroxyacetyl)-10,13-dimethyl-2,6,7,8,9,11,12,14,15,16-decahydro-1H-cyclopenta[a]phenanthren-3-one
Name: Cortisol
Name: Hydrocortisone
Formula: C21H30O5
Exact mass: 362.20932
SMILES: C[C@]12CCC(=O)C=C1CC[C@@H]3[C@@H]2[C@H](C[C@]4([C@H]3CC[C@@]4(C(=O)CO)O)C)O
InChI: InChI=1S/C21H30O5/c1-19-7-5-13(23)9-12(19)3-4-14-15-6-8-21(26,17(25)11-22)20(15,2)10-16(24)18(14)19/h9,14-16,18,22,24,26H,3-8,10-11H2,1-2H3/t14-,15-,16-,18+,19-,20-,21-/m0/s1
Instrument: Q Exactive Plus Orbitrap Thermo Scientific
Instrument type: LC-ESI-QFT
Ms type: MS2
Ion mode: POSITIVE
Ionization: ESI
Fragmentation mode: HCD
Collision energy: 60 (nominal)
Resolution: 35000
Column name: XBridge C18 3.5um, 2.1x50mm, Waters
Retention time: 7.7 min
Base peak: 363.2164
Precursor m/z: 363.2166
Precursor type: [M+H]+
m/z	relative intensity	assigned
51.0228	1	C4H3+
53.0021	1	C3HO+
53.0386	11	C4H5+
55.0178	32	C3H3O+
55.0542	43	C4H7+
57.0335	10	C3H5O+
57.0699	3	C4H9+
61.0284	3	C2H5O2+
65.0385	7	C5H5+
67.0542	85	C5H7+
69.0335	26	C4H5O+
69.0699	42	C5H9+
71.0491	20	C4H7O+
75.0441	4	C3H7O2+
77.0384	15	C6H5+
79.0542	144	C6H7+
81.0335	10	C5H5O+
81.0699	149	C6H9+
83.0491	103	C5H7O+
83.0855	5	C6H11+
85.0284	4	C4H5O2+
85.0648	4	C5H9O+
91.0542	229	C7H7+
93.0699	227	C7H9+
94.0411	1	C6H6O+
95.0492	47	C6H7O+
95.0855	108	C7H11+
97.0648	390	C6H9O+
99.0441	31	C5H7O2+
101.0596	1	C5H9O2+
103.0388	1	C4H7O3+
103.0543	15	C8H7+
104.0621	1	C8H8+
105.0699	365	C8H9+
107.0491	44	C7H7O+
107.0855	137	C8H11+
108.0571	2	C7H8O+
109.0648	247	C7H9O+
109.1012	23	C8H13+
111.0441	9	C6H7O2+
111.0805	19	C7H11O+
113.0597	4	C6H9O2+
115.0543	30	C9H7+
116.062	7	C9H8+
117.0699	137	C9H9+
118.0779	1	C9H10+
119.0856	257	C9H11+
121.0648	999	C8H9O+
123.0804	243	C8H11O+
125.0598	10	C7H9O2+
127.0753	2	C7H11O2+
128.062	58	C10H8+
129.0699	127	C10H9+
130.0778	29	C10H10+
131.0856	214	C10H11+
132.0569	1	C9H8O+
132.0934	4	C10H12+
133.0648	41	C9H9O+
133.1012	119	C10H13+
134.0726	1	C9H10O+
135.0804	96	C9H11O+
135.1168	22	C10H15+
137.0596	9	C8H9O2+
137.0961	18	C9H13O+
139.0754	5	C8H11O2+
141.0699	85	C11H9+
142.0778	65	C11H10+
143.0856	224	C11H11+
144.057	5	C10H8O+
144.0934	27	C11H12+
145.0648	44	C10H9O+
145.1012	264	C11H13+
146.0728	6	C10H10O+
146.109	19	C11H14+
147.0804	83	C10H11O+
147.1168	208	C11H15+
148.0883	9	C10H12O+
149.0961	41	C10H13O+
149.1324	11	C11H17+
151.0753	4	C9H11O2+
151.1117	1	C10H15O+
152.0619	5	C12H8+
153.0697	16	C12H9+
153.0911	1	C9H13O2+
154.0777	34	C12H10+
155.0605	6	C10H7N2+
155.0855	123	C12H11+
156.0934	26	C12H12+
157.0648	14	C11H9O+
157.1012	167	C12H13+
158.0727	13	C11H10O+
158.109	6	C12H14+
159.0805	74	C11H11O+
159.1168	142	C12H15+
160.0884	5	C11H12O+
160.1247	3	C12H16+
161.0961	69	C11H13O+
161.1325	26	C12H17+
162.104	4	C11H14O+
163.1117	133	C11H15O+
165.0698	26	C13H9+
165.091	1	C10H13O2+
165.1273	4	C11H17O+
166.0777	16	C13H10+
167.0856	55	C13H11+
168.0933	33	C13H12+
169.1012	145	C13H13+
170.0726	6	C12H10O+
170.109	16	C13H14+
171.0804	43	C12H11O+
171.1168	98	C13H15+
172.0882	6	C12H12O+
172.1247	18	C13H16+
173.0961	75	C12H13O+
173.1326	45	C13H17+
174.1039	11	C12H14O+
175.1118	59	C12H15O+
176.1194	3	C12H16O+
177.0908	2	C11H13O2+
177.1272	8	C12H17O+
178.0772	9	C14H10+
179.0856	33	C14H11+
180.0933	24	C14H12+
181.1012	73	C14H13+
182.0726	1	C13H10O+
182.1091	23	C14H14+
183.0805	8	C13H11O+
183.1169	107	C14H15+
184.0884	7	C13H12O+
184.1248	9	C14H16+
185.0961	36	C13H13O+
185.1325	69	C14H17+
186.104	4	C13H14O+
186.1404	5	C14H18+
187.1118	42	C13H15O+
187.148	8	C14H19+
188.1193	2	C13H16O+
189.0911	1	C12H13O2+
189.1274	27	C13H17O+
190.0777	1	C15H10+
191.0851	9	C15H11+
191.1066	3	C12H15O2+
192.0933	20	C15H12+
193.1012	44	C15H13+
194.109	19	C15H14+
195.0804	5	C14H11O+
195.1169	66	C15H15+
196.0882	6	C14H12O+
196.1245	13	C15H16+
197.0961	29	C14H13O+
197.1325	54	C15H17+
198.1041	8	C14H14O+
198.1403	4	C15H18+
199.1118	27	C14H15O+
199.1481	25	C15H19+
200.1194	7	C14H16O+
201.1275	21	C14H17O+
203.0856	1	C16H11+
203.1067	3	C13H15O2+
203.1427	4	C14H19O+
204.0938	3	C16H12+
205.1014	12	C16H13+
206.1089	16	C16H14+
207.1169	43	C16H15+
208.0885	2	C15H12O+
208.1245	16	C16H16+
209.0964	10	C15H13O+
209.1325	61	C16H17+
210.1038	5	C15H14O+
210.1404	9	C16H18+
211.1118	29	C15H15O+
211.1482	34	C16H19+
212.1197	11	C15H16O+
212.1558	4	C16H20+
213.1275	32	C15H17O+
213.1639	6	C16H21+
214.1352	5	C15H18O+
215.0858	1	C17H11+
215.1432	15	C15H19O+
216.0934	1	C17H12+
217.1012	5	C17H13+
217.1219	1	C14H17O2+
218.1094	8	C17H14+
219.117	14	C17H15+
220.1248	10	C17H16+
221.0964	4	C16H13O+
221.1326	25	C17H17+
222.1403	6	C17H18+
223.1117	10	C16H15O+
223.1481	28	C17H19+
224.1197	9	C16H16O+
224.1557	1	C17H20+
225.1274	33	C16H17O+
225.1639	20	C17H21+
226.1351	20	C16H18O+
226.1714	1	C17H22+
227.1431	17	C16H19O+
227.1793	4	C17H23+
228.1509	15	C16H20O+
229.101	2	C18H13+
229.1589	3	C16H21O+
230.1082	1	C18H14+
231.117	1	C18H15+
231.1384	1	C15H19O2+
232.1248	4	C18H16+
233.0962	1	C17H13O+
233.1326	13	C18H17+
234.1042	2	C17H14O+
234.1401	6	C18H18+
235.1118	6	C17H15O+
235.1481	17	C18H19+
236.1196	4	C17H16O+
236.1556	1	C18H20+
237.1276	10	C17H17O+
237.1634	6	C18H21+
238.1352	5	C17H18O+
238.1713	1	C18H22+
239.143	32	C17H19O+
239.1794	5	C18H23+
240.1509	2	C17H20O+
241.1586	31	C17H21O+
242.1668	11	C17H22O+
243.1171	4	C19H15+
243.1381	1	C16H19O2+
243.1748	10	C17H23O+
245.1326	1	C19H17+
247.1481	4	C19H19+
248.1199	3	C18H16O+
248.1562	1	C19H20+
249.1269	3	C18H17O+
249.1636	12	C19H21+
250.135	1	C18H18O+
250.1714	1	C19H22+
251.1431	19	C18H19O+
251.1789	4	C19H23+
252.151	10	C18H20O+
253.1587	60	C18H21O+
254.1669	8	C18H22O+
255.1742	4	C18H23O+
258.1398	2	C20H18+
263.1432	5	C19H19O+
263.1794	3	C20H23+
264.1521	1	C19H20O+
265.1584	5	C19H21O+
266.1667	5	C19H22O+
267.1377	4	C18H19O2+
267.1746	14	C19H23O+
268.1823	20	C19H24O+
269.1536	3	C18H21O2+
269.1898	7	C19H25O+
271.1692	3	C18H23O2+
276.1507	3	C20H20O+
281.1535	5	C19H21O2+
281.1894	1	C20H25O+
285.1843	1	C19H25O2+
286.1928	5	C19H26O2+
291.1737	3	C21H23O+
294.1604	3	C20H22O2+
297.1851	6	C20H25O2+
309.1852	3	C21H25O2+
312.1721	2	C20H24O3+
