Mass spectrum: Tetracycline; LC-ESI-QFT; MS2; CE: 30; R=35000; [M+H]+
Name: Tetracycline
Name: (4S,4aS,5aS,6S,12aS)-4-(Dimethylamino)-3,6,10,12,12a-pentahydroxy-6-methyl-1,11-dioxo-1,4,4a,5,5a,6,11,12a-octahydro-2-tetracenecarboxamide
Name: tetrex
Formula: C22H24N2O8
Exact mass: 444.15327
SMILES: C[C@]1(c2cccc(c2C(=O)C3=C([C@]4([C@@H](C[C@@H]31)[C@@H](C(=C(C4=O)C(=O)N)O)N(C)C)O)O)O)O
InChI: InChI=1S/C22H24N2O8/c1-21(31)8-5-4-6-11(25)12(8)16(26)13-9(21)7-10-15(24(2)3)17(27)14(20(23)30)19(29)22(10,32)18(13)28/h4-6,9-10,15,25,27-28,31-32H,7H2,1-3H3,(H2,23,30)/t9-,10-,15-,21+,22-/m0/s1
Instrument: Q Exactive Orbitrap Thermo Scientific
Instrument type: LC-ESI-QFT
Ms type: MS2
Ion mode: POSITIVE
Ionization: ESI
Fragmentation mode: HCD
Collision energy: 30 (nominal)
Resolution: 35000
Column name: XBridge C18 3.5um, 2.1x50mm, Waters
Retention time: 4.8 min
Base peak: 445.1606
Precursor m/z: 445.1605
Precursor type: [M+H]+
m/z	relative intensity	assigned
58.0651	4	C3H8N+
84.0443	1	C4H6NO+
86.06	15	C4H8NO+
98.0601	46	C5H8NO+
126.0549	26	C6H8NO2+
154.0498	516	C7H8NO3+
157.037	1	C6H7NO4+
171.0764	3	C7H11N2O3+
172.0603	17	C7H10NO4+
241.0858	9	C15H13O3+
243.0651	2	C14H11O4+
251.0698	3	C16H11O3+
255.0648	1	C15H11O4+
257.0806	16	C15H13O4+
267.0647	14	C16H11O4+
269.0804	33	C16H13O4+
279.0652	2	C17H11O4+
285.0759	1	C16H13O5+
291.0646	2	C18H11O4+
293.0808	2	C18H13O4+
296.1283	4	C18H18NO3+
297.0759	11	C17H13O5+
309.0752	1	C18H13O5+
314.1381	2	C18H20NO4+
319.0591	4	C19H11O5+
321.0757	46	C19H13O5+
334.0461	1	C19H10O6+
337.0705	88	C19H13O6+
347.0543	5	C20H11O6+
349.0708	25	C20H13O6+
355.0812	15	C19H15O7+
364.1185	7	C21H18NO5+
365.0657	73	C20H13O7+
383.0765	5	C20H15O8+
392.113	43	C22H18NO6+
410.1235	999	C22H20NO7+
427.1497	12	C22H23N2O7+
428.134	30	C22H22NO8+
445.1594	1	C22H25N2O8+
