Mass spectrum: Naproxen; LC-ESI-ITFT; MS2; CE: 90%; R=30000; [M+H]+
Name: Naproxen
Name: 2-(6-methoxy-2-naphthalenyl)propanoic acid
Formula: C14H14O3
Exact mass: 230.0943
SMILES: CC(C1=CC2=C(C=C1)C=C(C=C2)OC)C(=O)O
InChI: InChI=1S/C14H14O3/c1-9(14(15)16)10-3-4-12-8-13(17-2)6-5-11(12)7-10/h3-9H,1-2H3,(H,15,16)
Instrument: LTQ Orbitrap XL Thermo Scientific
Instrument type: LC-ESI-ITFT
Ms type: MS2
Ion mode: POSITIVE
Ionization: ESI
Fragmentation mode: HCD
Collision energy: 90 % (nominal)
Resolution: 30000
Column name: XBridge C18 3.5um, 2.1x50mm, Waters
Retention time: 10.2 min
Base peak: 253.0841
Precursor m/z: 231.1016
Precursor type: [M+H]+
m/z	relative intensity	assigned
115.0542	574	C9H7+
128.0621	190	C10H8+
141.0699	597	C11H9+
142.0776	477	C11H10+
152.062	519	C12H8+
153.0698	821	C12H9+
154.0776	512	C12H10+
155.0855	167	C12H11+
158.0724	253	C11H10O+
169.0647	485	C12H9O+
170.0725	999	C12H10O+
181.0759	157	C12H9N2+
185.0958	113	C13H13O+
