Mass spectrum: Carbofuran; LC-ESI-QFT; MS2; CE: 45; R=35000; [M+H]+
Name: Carbofuran
Name: (2,2-dimethyl-3H-1-benzofuran-7-yl) N-methylcarbamate
Formula: C12H15NO3
Exact mass: 221.10519
SMILES: CC2(C)CC1=C(C(=CC=C1)OC(NC)=O)O2
InChI: InChI=1S/C12H15NO3/c1-12(2)7-8-5-4-6-9(10(8)16-12)15-11(14)13-3/h4-6H,7H2,1-3H3,(H,13,14)
Instrument: Q Exactive Orbitrap Thermo Scientific
Instrument type: LC-ESI-QFT
Ms type: MS2
Ion mode: POSITIVE
Ionization: ESI
Fragmentation mode: HCD
Collision energy: 45 (nominal)
Resolution: 35000
Column name: XBridge C18 3.5um, 2.1x50mm, Waters
Retention time: 7.2 min
Base peak: 222.1124
Precursor m/z: 222.1125
Precursor type: [M+H]+
m/z	relative intensity	assigned
51.0229	2	C4H3+
55.0543	2	C4H7+
58.0287	14	C2H4NO+
67.0542	2	C5H7+
91.0541	20	C7H7+
95.049	5	C6H7O+
105.0332	1	C7H5O+
107.049	1	C7H7O+
109.0283	5	C6H5O2+
111.0439	10	C6H7O2+
119.0491	1	C8H7O+
119.0854	32	C9H11+
123.0439	999	C7H7O2+
137.0596	72	C8H9O2+
137.0958	4	C9H13O+
147.0803	31	C10H11O+
165.0908	402	C10H13O2+
222.1123	1	C12H16NO3+
