Mass spectrum: Thiacloprid; LC-ESI-ITFT; MS2; CE: 75%; R=15000; [M+H]+
Name: Thiacloprid
Name: (Z)-[3-[(6-Chloro-3-pyridinyl)methyl]-2-thiazolidinylidene]cyanamide
Name: Calypso
Formula: C10H9ClN4S
Exact mass: 252.0236
SMILES: C1CSC(=NC#N)N1CC2=CN=C(C=C2)Cl
InChI: InChI=1S/C10H9ClN4S/c11-9-2-1-8(5-13-9)6-15-3-4-16-10(15)14-7-12/h1-2,5H,3-4,6H2
Instrument: LTQ Orbitrap XL Thermo Scientific
Instrument type: LC-ESI-ITFT
Ms type: MS2
Ion mode: POSITIVE
Ionization: ESI
Fragmentation mode: HCD
Collision energy: 75 % (nominal)
Resolution: 15000
Column name: XBridge C18 3.5um, 2.1x50mm, Waters
Retention time: 5.8 min
Base peak: 253.0312
Precursor m/z: 253.0309
Precursor type: [M+H]+
m/z	relative intensity	assigned
63.0229	5	C5H3+
65.0386	1	C5H5+
72.9839	5	C3H2Cl+
81.0335	1	C5H5O+
90.0338	109	C6H4N+
91.0417	12	C6H5N+
98.9996	72	C5H4Cl+
108.0443	5	C3H9ClN2+
126.0105	999	C6H5ClN+
144.0211	29	C6H7ClNO+
151.0058	2	C7H4ClN2+
