Mass spectrum: Flufenacet; LC-ESI-ITFT; MS2; CE: 35%; R=30000; [M+H]+
Name: Flufenacet
Name: N-(4-fluorophenyl)-N-isopropyl-2-[[5-(trifluoromethyl)-1,3,4-thiadiazol-2-yl]oxy]acetamide
Formula: C14H13F4N3O2S
Exact mass: 363.0670
SMILES: O=C(COc1nnc(s1)C(F)(F)F)N(c2ccc(F)cc2)C(C)C
InChI: InChI=1S/C14H13F4N3O2S/c1-8(2)21(10-5-3-9(15)4-6-10)11(22)7-23-13-20-19-12(24-13)14(16,17)18/h3-6,8H,7H2,1-2H3
Instrument: LTQ Orbitrap XL Thermo Scientific
Instrument type: LC-ESI-ITFT
Ms type: MS2
Ion mode: POSITIVE
Ionization: ESI
Fragmentation mode: CID
Collision energy: 35 % (nominal)
Resolution: 30000
Column name: XBridge C18 3.5um, 2.1x50mm, Waters
Retention time: 11.7 min
Base peak: 386.0556
Precursor m/z: 364.0737
Precursor type: [M+H]+
m/z	relative intensity	assigned
109.0447	11	C7H6F+
124.0556	68	C7H7FN+
152.0506	391	C8H7FNO+
166.1025	2	C10H13FN+
194.0975	999	C11H13FNO+
210.9782	2	C5H2F3N2O2S+
