Mass spectrum: 4-Chlorophenol; LC-ESI-QFT; MS2; CE: 90; R=35000; [M-H]-
Name: 4-Chlorophenol
Name: 4-chloranylphenol
Formula: C6H5ClO
Exact mass: 128.00289
SMILES: Oc1ccc(Cl)cc1
InChI: InChI=1S/C6H5ClO/c7-5-1-3-6(8)4-2-5/h1-4,8H
Instrument: Q Exactive Orbitrap Thermo Scientific
Instrument type: LC-ESI-QFT
Ms type: MS2
Ion mode: NEGATIVE
Ionization: ESI
Fragmentation mode: HCD
Collision energy: 90 (nominal)
Resolution: 35000
Column name: XBridge C18 3.5um, 2.1x50mm, Waters
Retention time: 7.3 min
Base peak: 126.9958
Precursor m/z: 126.9956
Precursor type: [M-H]-
m/z	relative intensity	assigned
91.0189	232	C6H3O-
126.9956	999	C6H4ClO-
