Mass spectrum: Fenthion-sulfoxide; LC-ESI-QFT; MS2; CE: 120; R=35000; [M+H]+
Name: Fenthion-sulfoxide
Name: Mesulfenos
Name: O,O-Dimethyl O-[3-methyl-4-(methylsulfinyl)phenyl] phosphorothioate
Formula: C10H15O4PS2
Exact mass: 294.01494
SMILES: CC1=C(C=CC(=C1)OP(=S)(OC)OC)S(=O)C
InChI: InChI=1S/C10H15O4PS2/c1-8-7-9(5-6-10(8)17(4)11)14-15(16,12-2)13-3/h5-7H,1-4H3
Instrument: Q Exactive Plus Orbitrap Thermo Scientific
Instrument type: LC-ESI-QFT
Ms type: MS2
Ion mode: POSITIVE
Ionization: ESI
Fragmentation mode: HCD
Collision energy: 120 (nominal)
Resolution: 35000
Column name: XBridge C18 3.5um, 2.1x50mm, Waters
Retention time: 7.4 min
Base peak: 295.0216
Precursor m/z: 295.0222
Precursor type: [M+H]+
m/z	relative intensity	assigned
50.0152	32	C4H2+
50.9995	3	H4OP+
51.023	41	C4H3+
52.0308	3	C4H4+
53.0022	3	C3HO+
53.0386	64	C4H5+
55.0179	2	C3H3O+
57.9873	10	C2H2S+
58.9951	6	C2H3S+
59.9665	23	COS+
61.0107	2	C2H5S+
62.0151	3	C5H2+
62.0185	44	C2H6S+
62.9453	55	PS+
62.9995	76	CH4OP+
63.023	35	C5H3+
63.9436	14	S2+
64.0308	10	C5H4+
64.9788	25	H2O2P+
65.0386	243	C5H5+
66.0464	167	C5H6+
67.0542	8	C5H7+
68.9794	94	C3HS+
69.9872	7	C3H2S+
70.995	25	C3H3S+
75.0231	1	C6H3+
76.0307	21	C6H4+
77.0386	96	C6H5+
78.0464	376	C6H6+
78.9944	999	CH4O2P+
79.0542	98	C6H7+
79.9481	1	HOPS+
80.0022	2	CH5O2P+
81.01	14	CH6O2P+
81.0335	9	C5H5O+
81.0699	2	C6H9+
81.9872	25	C4H2S+
82.995	2	C4H3S+
84.0029	36	C4H4S+
85.0106	8	C4H5S+
89.0386	123	C7H5+
90.0465	20	C7H6+
91.0543	309	C7H7+
92.0621	14	C7H8+
93.0101	60	C2H6O2P+
93.0336	5	C6H5O+
94.0414	61	C6H6O+
94.9951	16	C5H3S+
95.0492	236	C6H7O+
96.0028	20	C5H4S+
97.0053	51	CH6O3P+
97.0107	237	C5H5S+
98.0185	21	C5H6S+
98.9843	23	H4O4P+
100.9517	1	C3HS2+
102.0467	2	C8H6+
103.0543	63	C8H7+
104.0621	3	C8H8+
105.0336	10	C7H5O+
105.0448	127	C6H5N2+
105.07	42	C8H9+
106.0415	2	C7H6O+
107.0493	27	C7H7O+
108.0029	99	C6H4S+
109.0108	402	C6H5S+
110.0186	239	C6H6S+
111.0206	9	C2H8O3P+
111.0264	9	C6H7S+
111.0441	2	C6H7O2+
112.9998	29	CH6O4P+
119.0608	2	C7H7N2+
120.0029	2	C7H4S+
121.0108	369	C7H5S+
122.0186	75	C7H6S+
123.0263	26	C7H7S+
124.0342	8	C7H8S+
124.9822	30	C2H6O2PS+
125.0055	2	C6H5OS+
125.042	11	C7H9S+
126.0137	2	C6H6OS+
127.0156	347	C2H8O4P+
128.9771	3	CH6O3PS+
134.0186	27	C8H6S+
135.0264	67	C8H7S+
136.0343	6	C8H8S+
137.0057	41	C7H5OS+
137.042	2	C8H9S+
138.0134	7	C7H6OS+
138.967	2	C6H3S2+
138.9765	2	C6H4PS+
139.0213	1	C7H7OS+
139.9749	8	C6H4S2+
139.9847	1	C6H5PS+
140.9828	40	C6H5S2+
142.9928	89	C2H8O3PS+
150.9671	2	C7H3S2+
151.975	1	C7H4S2+
151.9845	2	C7H5PS+
152.9829	267	C7H5S2+
153.9906	23	C7H6S2+
154.9716	25	C6H4OPS+
166.9984	9	C8H7S2+
167.9794	2	C7H5OPS+
168.978	10	C7H5OS2+
168.9873	170	C7H6OPS+
170.9486	6	C6H4PS2+
198.9436	7	C7H4OPS2+
202.9931	1	C7H8O3PS+
