Mass spectrum: Atenolol-desisopropyl; LC-ESI-ITFT; MS2; CE: 35%; R=30000; [M+H]+
Name: Atenolol-desisopropyl
Name: 4-(3-Amino-2-hydroxypropoxy)phenylacetamide
Formula: C11H16N2O3
Exact mass: 224.1161
SMILES: c1cc(ccc1CC(=O)N)OCC(CN)O
InChI: InChI=1S/C11H16N2O3/c12-6-9(14)7-16-10-3-1-8(2-4-10)5-11(13)15/h1-4,9,14H,5-7,12H2,(H2,13,15)
Instrument: LTQ Orbitrap XL Thermo Scientific
Instrument type: LC-ESI-ITFT
Ms type: MS2
Ion mode: POSITIVE
Ionization: ESI
Fragmentation mode: CID
Collision energy: 35 % (nominal)
Resolution: 30000
Column name: XBridge C18 3.5um, 2.1x50mm, Waters
Retention time: 1.0 min
Base peak: 225.124
Precursor m/z: 225.1234
Precursor type: [M+H]+
m/z	relative intensity	assigned
74.0601	193	C3H8NO+
133.0646	1	C9H9O+
145.0648	40	C10H9O+
152.0705	1	C8H10NO2+
162.0914	113	C10H12NO+
163.0754	6	C10H11O2+
164.0707	6	C9H10NO2+
173.0597	26	C11H9O2+
178.0863	61	C10H12NO2+
180.102	181	C10H14NO2+
190.0864	833	C11H12NO2+
207.1128	13	C11H15N2O2+
208.097	999	C11H14NO3+
