Mass spectrum: Dimoxystrobin; LC-ESI-QFT; MS2; CE: 60; R=35000; [M+H]+
Name: Dimoxystrobin
Name: 2-[2-[(2,5-dimethylphenoxy)methyl]phenyl]-2-methoxyimino-N-methylacetamide
Formula: C19H22N2O3
Exact mass: 326.16304
SMILES: CC1=CC(=C(C=C1)C)OCC2=CC=CC=C2C(=NOC)C(=O)NC
InChI: InChI=1S/C19H22N2O3/c1-13-9-10-14(2)17(11-13)24-12-15-7-5-6-8-16(15)18(21-23-4)19(22)20-3/h5-11H,12H2,1-4H3,(H,20,22)
Instrument: Q Exactive Plus Orbitrap Thermo Scientific
Instrument type: LC-ESI-QFT
Ms type: MS2
Ion mode: POSITIVE
Ionization: ESI
Fragmentation mode: HCD
Collision energy: 60 (nominal)
Resolution: 35000
Column name: XBridge C18 3.5um, 2.1x50mm, Waters
Retention time: 12.4 min
Base peak: 327.1694
Precursor m/z: 327.1703
Precursor type: [M+H]+
m/z	relative intensity	assigned
58.0287	683	C2H4NO+
63.0228	1	C5H3+
89.0385	51	C7H5+
90.0339	1	C6H4N+
91.0542	10	C7H7+
93.0698	1	C7H9+
116.0494	999	C8H6N+
117.0572	41	C8H7N+
118.065	11	C8H8N+
119.0365	1	C7H5NO+
121.0648	6	C8H9O+
122.0726	3	C8H10O+
123.0803	1	C8H11O+
132.0446	1	C8H6NO+
133.0522	1	C8H7NO+
134.06	53	C8H8NO+
135.0804	6	C9H11O+
144.0443	1	C9H6NO+
145.076	6	C9H9N2+
146.0599	2	C9H8NO+
146.0838	1	C9H10N2+
148.0756	9	C9H10NO+
149.047	2	C8H7NO2+
160.0755	1	C10H10NO+
161.0469	2	C9H7NO2+
174.0785	1	C10H10N2O+
178.0776	10	C14H10+
179.0853	1	C14H11+
180.0807	13	C13H10N+
181.0882	2	C13H11N+
182.0966	2	C13H12N+
193.0885	1	C14H11N+
193.101	7	C15H13+
194.0963	7	C14H12N+
195.1042	14	C14H13N+
196.112	1	C14H14N+
205.0882	1	C15H11N+
208.0757	2	C14H10NO+
208.112	1	C15H14N+
210.1277	1	C15H16N+
220.1119	1	C16H14N+
221.0959	3	C16H13O+
221.1196	1	C16H15N+
222.0913	2	C15H12NO+
222.1034	3	C16H14O+
223.0992	42	C15H13NO+
236.1066	1	C16H14NO+
238.1223	1	C16H16NO+
249.0911	1	C17H13O2+
