Mass spectrum: 4-Chlorobenzophenone; LC-ESI-QFT; MS2; CE: 75; R=35000; [M+H]+
Name: 4-Chlorobenzophenone
Name: 4-Chlorobenzophenon
Name: (4-chlorophenyl)-phenylmethanone
Formula: C13H9ClO
Exact mass: 216.03419
SMILES: C1=CC=C(C=C1)C(=O)C2=CC=C(C=C2)Cl
InChI: InChI=1S/C13H9ClO/c14-12-8-6-11(7-9-12)13(15)10-4-2-1-3-5-10/h1-9H
Instrument: Q Exactive Plus Orbitrap Thermo Scientific
Instrument type: LC-ESI-QFT
Ms type: MS2
Ion mode: POSITIVE
Ionization: ESI
Fragmentation mode: HCD
Collision energy: 75 (nominal)
Resolution: 35000
Column name: XBridge C18 3.5um, 2.1x50mm, Waters
Retention time: 12.2 min
Base peak: 217.0415
Precursor m/z: 217.0415
Precursor type: [M+H]+
m/z	relative intensity	assigned
50.0151	15	C4H2+
51.0229	11	C4H3+
53.0022	5	C3HO+
53.0386	53	C4H5+
55.0179	7	C3H3O+
55.0542	8	C4H7+
60.9839	2	C2H2Cl+
65.0385	3	C5H5+
74.015	1	C6H2+
75.0229	38	C6H3+
77.0385	106	C6H5+
79.0178	13	C5H3O+
80.0257	6	C5H4O+
81.0335	6	C5H5O+
83.0491	6	C5H7O+
84.9838	1	C4H2Cl+
86.9996	75	C4H4Cl+
93.0335	31	C6H5O+
94.0413	12	C6H6O+
95.0491	229	C6H7O+
101.0597	1	C5H9O2+
105.0335	404	C7H5O+
105.0447	118	C6H5N2+
110.9995	49	C6H4Cl+
111.044	17	C6H7O2+
114.9945	7	C5H4ClO+
121.0396	3	C6H5N2O+
128.0022	4	C6H5ClO+
129.0102	316	C6H6ClO+
138.9946	999	C7H4ClO+
139.0056	824	C6H4ClN2+
140.0027	5	C7H5ClO+
