Mass spectrum: Resveratrol; LC-ESI-QFT; MS2; CE: 75; R=35000; [M+H]+
Name: Resveratrol
Name: 5-[(E)-2-(4-hydroxyphenyl)ethenyl]benzene-1,3-diol
Formula: C14H12O3
Exact mass: 228.07864
SMILES: Oc2cc(\C=C\c1ccc(O)cc1)cc(O)c2
InChI: InChI=1S/C14H12O3/c15-12-5-3-10(4-6-12)1-2-11-7-13(16)9-14(17)8-11/h1-9,15-17H/b2-1+
Instrument: Q Exactive Orbitrap Thermo Scientific
Instrument type: LC-ESI-QFT
Ms type: MS2
Ion mode: POSITIVE
Ionization: ESI
Fragmentation mode: HCD
Collision energy: 75 (nominal)
Resolution: 35000
Column name: XBridge C18 3.5um, 2.1x50mm, Waters
Retention time: 6.1 min
Base peak: 229.086
Precursor m/z: 229.0859
Precursor type: [M+H]+
m/z	relative intensity	assigned
63.0228	2	C5H3+
65.0386	67	C5H5+
67.0542	15	C5H7+
68.9971	68	C3HO2+
71.0127	6	C3H3O2+
77.0385	17	C6H5+
78.0464	1	C6H6+
79.0542	116	C6H7+
80.0621	2	C6H8+
81.0335	51	C5H5O+
83.0491	1	C5H7O+
89.0386	10	C7H5+
90.0464	1	C7H6+
91.0542	523	C7H7+
92.062	9	C7H8+
93.0334	1	C6H5O+
93.0699	3	C7H9+
94.0412	7	C6H6O+
95.0491	198	C6H7O+
103.0542	12	C8H7+
105.0336	5	C7H5O+
105.0447	31	C6H5N2+
105.07	13	C8H9+
106.041	1	C7H6O+
107.0491	999	C7H7O+
108.057	2	C7H8O+
109.0284	29	C6H5O2+
110.0362	13	C6H6O2+
111.044	24	C6H7O2+
115.0542	69	C9H7+
116.062	6	C9H8+
117.0334	3	C8H5O+
117.0698	15	C9H9+
118.0413	7	C8H6O+
119.0491	72	C8H7O+
120.057	156	C8H8O+
121.0284	68	C7H5O2+
121.0394	8	C6H5N2O+
121.0648	3	C8H9O+
123.044	34	C7H7O2+
127.0542	4	C10H7+
128.062	25	C10H8+
129.0698	36	C10H9+
131.0492	22	C9H7O+
131.0856	4	C10H11+
132.057	2	C9H8O+
133.0649	6	C9H9O+
134.0361	1	C8H6O2+
135.044	43	C8H7O2+
136.0518	36	C8H8O2+
137.0231	1	C7H5O3+
139.054	5	C11H7+
140.0619	4	C11H8+
141.0697	52	C11H9+
144.057	22	C10H8O+
145.0648	41	C10H9O+
147.0442	7	C9H7O2+
152.062	27	C12H8+
153.0699	118	C12H9+
154.0777	38	C12H10+
155.0604	13	C10H7N2+
155.0855	56	C12H11+
157.0647	19	C11H9O+
158.073	7	C11H10O+
159.0808	5	C11H11O+
160.0518	5	C10H8O2+
161.0598	3	C10H9O2+
163.0536	1	C13H7+
164.0618	11	C13H8+
165.0698	442	C13H9+
166.0783	6	C13H10+
167.0857	1	C13H11+
168.0568	46	C12H8O+
169.0646	10	C12H9O+
171.044	2	C11H7O2+
171.0551	1	C10H7N2O+
171.0803	1	C12H11O+
173.0596	5	C11H9O2+
181.0646	73	C13H9O+
182.0728	33	C13H10O+
183.0804	35	C13H11O+
185.0597	4	C12H9O2+
186.0682	1	C12H10O2+
187.0752	1	C12H11O2+
192.0569	1	C14H8O+
193.0651	6	C14H9O+
193.0758	3	C13H9N2+
194.0725	13	C14H10O+
195.0809	1	C14H11O+
196.0514	3	C13H8O2+
197.0593	7	C13H9O2+
199.0749	6	C13H11O2+
210.0676	21	C14H10O2+
211.0753	12	C14H11O2+
212.0831	4	C14H12O2+
213.0549	3	C13H9O3+
227.0702	3	C14H11O3+
