Mass spectrum: Candesartan; LC-ESI-ITFT; MS2; CE: 90%; R=7500; [M+H]+
Name: Candesartan
Name: 2-ethoxy-3-[4-[2-(2H-tetrazol-5-yl)phenyl]benzyl]benzimidazole-4-carboxylic acid
Formula: C24H20N6O3
Exact mass: 440.1597
SMILES: c1(ccccc1c1ccc(Cn2c(nc3c2c(C(=O)O)ccc3)OCC)cc1)c1nnn[nH]1
InChI: InChI=1S/C24H20N6O3/c1-2-33-24-25-20-9-5-8-19(23(31)32)21(20)30(24)14-15-10-12-16(13-11-15)17-6-3-4-7-18(17)22-26-28-29-27-22/h3-13H,2,14H2,1H3,(H,31,32)(H,26,27,28,29)
Instrument: LTQ Orbitrap XL Thermo Scientific
Instrument type: LC-ESI-ITFT
Ms type: MS2
Ion mode: POSITIVE
Ionization: ESI
Fragmentation mode: HCD
Collision energy: 90 % (nominal)
Resolution: 7500
Column name: XBridge C18 3.5um, 2.1x50mm, Waters
Retention time: 9.3 min
Base peak: 441.1683
Precursor m/z: 441.167
Precursor type: [M+H]+
m/z	relative intensity	assigned
77.0386	56	C6H5+
80.0498	20	C5H6N+
90.0338	31	C6H4N+
91.0544	31	C7H7+
105.0448	92	C6H5N2+
115.0543	24	C9H7+
116.0495	20	C8H6N+
117.0447	23	C7H5N2+
139.0548	14	C11H7+
140.0495	82	C10H6N+
141.0701	18	C11H9+
152.0622	606	C12H8+
153.0701	202	C12H9+
154.0654	24	C11H8N+
155.061	54	C10H7N2+
161.0346	83	C8H5N2O2+
163.0543	122	C13H7+
164.0489	24	C12H6N+
164.0622	77	C13H8+
165.07	999	C13H9+
166.0654	57	C12H8N+
166.0773	35	C13H10+
167.0731	36	C12H9N+
173.0342	16	C9H5N2O2+
176.0621	57	C14H8+
177.0577	290	C13H7N+
178.0777	537	C14H10+
179.0728	166	C13H9N+
180.0808	262	C13H10N+
181.0768	16	C12H9N2+
190.0653	896	C14H8N+
191.0729	252	C14H9N+
192.0796	328	
193.0883	112	C14H11N+
194.0963	36	C14H12N+
196.0762	16	C13H10NO+
205.0762	442	C14H9N2+
206.0841	101	C14H10N2+
207.0924	38	C14H11N2+
216.0811	31	C16H10N+
217.0885	25	C16H11N+
218.0841	21	C15H10N2+
219.092	111	C15H11N2+
233.1067	47	C16H13N2+
254.0965	41	C19H12N+
263.133	17	C7H17N7O4+
279.0909	36	C20H11N2+
281.1066	20	C20H13N2+
293.0948	23	C20H11N3+
294.0782	23	C20H10N2O+
