Mass spectrum: Ticlopidine; LC-ESI-QFT; MS2; CE: 90; R=35000; [M+H]+
Name: Ticlopidine
Name: 5-(2-chlorobenzyl)-6,7-dihydro-4H-thieno[3,2-c]pyridine
Formula: C14H14ClNS
Exact mass: 263.05355
SMILES: C1CN(CC2=C1SC=C2)CC3=CC=CC=C3Cl
InChI: InChI=1S/C14H14ClNS/c15-13-4-2-1-3-11(13)9-16-7-5-14-12(10-16)6-8-17-14/h1-4,6,8H,5,7,9-10H2
Instrument: Q Exactive Orbitrap Thermo Scientific
Instrument type: LC-ESI-QFT
Ms type: MS2
Ion mode: POSITIVE
Ionization: ESI
Fragmentation mode: HCD
Collision energy: 90 (nominal)
Resolution: 35000
Column name: XBridge C18 3.5um, 2.1x50mm, Waters
Retention time: 5.2 min
Base peak: 264.0612
Precursor m/z: 264.0608
Precursor type: [M+H]+
m/z	relative intensity	assigned
63.0228	2	C5H3+
72.9836	1	C3H2Cl+
89.0385	29	C7H5+
90.0463	5	C7H6+
97.0106	1	C5H5S+
98.9996	12	C5H4Cl+
111.0262	2	C6H7S+
125.0153	999	C7H6Cl+
154.0419	3	C8H9ClN+
