Mass spectrum: Letrozole; LC-ESI-QFT; MS2; CE: 45; R=35000; [M-H]-
Name: Letrozole
Name: 4-[(4-cyanophenyl)-(1,2,4-triazol-1-yl)methyl]benzonitrile
Formula: C17H11N5
Exact mass: 285.10145
SMILES: C1=CC(=CC=C1C#N)C(C2=CC=C(C=C2)C#N)N3C=NC=N3
InChI: InChI=1S/C17H11N5/c18-9-13-1-5-15(6-2-13)17(22-12-20-11-21-22)16-7-3-14(10-19)4-8-16/h1-8,11-12,17H
Instrument: Q Exactive Plus Orbitrap Thermo Scientific
Instrument type: LC-ESI-QFT
Ms type: MS2
Ion mode: NEGATIVE
Ionization: ESI
Fragmentation mode: HCD
Collision energy: 45 (nominal)
Resolution: 35000
Column name: XBridge C18 3.5um, 2.1x50mm, Waters
Retention time: 6.6 min
Base peak: 284.0946
Precursor m/z: 284.0942
Precursor type: [M-H]-
m/z	relative intensity	assigned
66.0098	16	C2N3-
68.0255	1	C2H2N3-
80.0255	1	C3H2N3-
102.0349	194	C7H4N-
126.0348	4	C9H4N-
127.0302	227	C8H3N2-
141.0458	9	C9H5N2-
142.041	12	C8H4N3-
153.0459	3	C10H5N2-
155.049	1	C9H5N3-
156.0568	3	C9H6N3-
180.0439	2	C10H4N4-
181.0522	6	C10H5N4-
182.0597	3	C10H6N4-
199.0626	18	C10H7N4O-
203.0616	7	C14H7N2-
215.0615	98	C15H7N2-
217.0773	3	C15H9N2-
227.0614	1	C16H7N2-
228.0694	7	C16H8N2-
229.0771	27	C16H9N2-
230.0719	1	C15H8N3-
240.0566	11	C16H6N3-
242.0725	999	C16H8N3-
253.0646	1	C17H7N3-
254.0716	2	C17H8N3-
255.0797	3	C17H9N3-
256.0753	5	C16H8N4-
256.0881	4	C17H10N3-
257.0833	31	C16H9N4-
282.0783	2	C17H8N5-
283.0862	2	C17H9N5-
284.0941	49	C17H10N5-
