Mass spectrum: Metrafenone; LC-ESI-QFT; MS2; CE: 45; R=35000; [M+H]+
Name: Metrafenone
Name: (3-bromo-6-methoxy-2-methylphenyl)(2,3,4-trimethoxy-6-methylphenyl)methanone
Name: (3-bromanyl-6-methoxy-2-methyl-phenyl)-(2,3,4-trimethoxy-6-methyl-phenyl)methanone
Formula: C19H21BrO5
Exact mass: 408.05724
SMILES: Brc2ccc(OC)c(C(=O)c1c(cc(OC)c(OC)c1OC)C)c2C
InChI: InChI=1S/C19H21BrO5/c1-10-9-14(23-4)18(24-5)19(25-6)15(10)17(21)16-11(2)12(20)7-8-13(16)22-3/h7-9H,1-6H3
Instrument: Q Exactive Orbitrap Thermo Scientific
Instrument type: LC-ESI-QFT
Ms type: MS2
Ion mode: POSITIVE
Ionization: ESI
Fragmentation mode: HCD
Collision energy: 45 (nominal)
Resolution: 35000
Column name: XBridge C18 3.5um, 2.1x50mm, Waters
Retention time: 13.7 min
Base peak: 411.0623
Precursor m/z: 409.0645
Precursor type: [M+H]+
m/z	relative intensity	assigned
65.0387	1	C5H5+
66.0465	3	C5H6+
67.0543	1	C5H7+
77.0383	1	C6H5+
79.0543	2	C6H7+
89.0387	3	C7H5+
90.0464	10	C7H6+
91.0542	21	C7H7+
92.062	32	C7H8+
94.0413	1	C6H6O+
95.0493	2	C6H7O+
105.0334	6	C7H5O+
107.0492	5	C7H7O+
108.0571	4	C7H8O+
109.0649	2	C7H9O+
119.0492	5	C8H7O+
120.057	38	C8H8O+
121.0648	1	C8H9O+
123.0442	3	C7H7O2+
123.0804	2	C8H11O+
135.0441	7	C8H7O2+
136.052	17	C8H8O2+
137.0598	20	C8H9O2+
138.0675	2	C8H10O2+
147.0439	4	C9H7O2+
148.052	55	C9H8O2+
149.0597	4	C9H9O2+
151.039	9	C8H7O3+
153.0547	11	C8H9O3+
153.0912	2	C9H13O2+
163.0389	6	C9H7O3+
164.047	4	C9H8O3+
165.0547	78	C9H9O3+
166.0626	181	C9H10O3+
168.9648	81	C7H6Br+
170.9803	6	C7H8Br+
176.0469	40	C10H8O3+
177.0546	1	C10H9O3+
179.034	10	C9H7O4+
181.0496	78	C9H9O4+
182.944	3	C7H4BrO+
183.952	53	C7H5BrO+
186.9755	29	C7H8BrO+
193.0498	6	C10H9O4+
194.0574	143	C10H10O4+
196.971	54	C7H6BrN2+
198.9754	3	C8H8BrO+
209.081	765	C11H13O4+
211.9468	18	C8H5BrO2+
226.9703	999	C9H8BrO2+
229.9574	32	C8H7BrO3+
