Mass spectrum: Carbetamide; LC-ESI-ITFT; MS2; CE: 35%; R=30000; [M-H]-
Name: Carbetamide
Name: N-phenylcarbamic acid [1-(ethylamino)-1-oxopropan-2-yl] ester
Formula: C12H16N2O3
Exact mass: 236.1155
SMILES: CCNC(=O)C(C)OC(=O)NC1=CC=CC=C1
InChI: InChI=1S/C12H16N2O3/c1-3-13-11(15)9(2)17-12(16)14-10-7-5-4-6-8-10/h4-9H,3H2,1-2H3,(H,13,15)(H,14,16)
Instrument: LTQ Orbitrap XL Thermo Scientific
Instrument type: LC-ESI-ITFT
Ms type: MS2
Ion mode: NEGATIVE
Ionization: ESI
Fragmentation mode: CID
Collision energy: 35 % (nominal)
Resolution: 30000
Column name: XBridge C18 3.5um, 2.1x50mm, Waters
Retention time: 6.5 min
Base peak: 235.1082
Precursor m/z: 235.1088
Precursor type: [M-H]-
m/z	relative intensity	assigned
116.0718	999	C5H10NO2-
142.051	453	C6H8NO3-
