Mass spectrum: Cycloxydim-TP BH 517-TSO E/Z-isomer; LC-ESI-QFT; MS2; CE: 30%; R=17500; [M+H]+
Name: Cycloxydim-TP BH 517-TSO E/Z-isomer
Name: Cycloxydim sulfoxide
Formula: C17H27NO4S
Exact mass: 341.1661
SMILES: CCC\C(=N/OCC)C1=C(O)CC(CC1=O)C1CCCS(=O)C1
InChI: InChI=1S/C17H27NO4S/c1-3-6-14(18-22-4-2)17-15(19)9-13(10-16(17)20)12-7-5-8-23(21)11-12/h12-13,19H,3-11H2,1-2H3/b18-14+
Instrument: Q Exactive Plus Orbitrap Thermo Scientific
Instrument type: LC-ESI-QFT
Ms type: MS2
Ion mode: POSITIVE
Ionization: ESI
Fragmentation mode: HCD
Collision energy: 30 % (nominal)
Resolution: 17500
Column name: XBridge C18 3.5um, 2.1x50mm, Waters
Retention time: 7.731 min
Base peak: 342.1734
Precursor m/z: 342.1734
Precursor type: [M+H]+
m/z	relative intensity	assigned
57.0334	11	C3H5O+
62.9898	24	CH3OS+
67.0545	10	C5H7+
70.0649	10	C4H8N+
71.0492	5	C4H7O+
82.0651	8	C5H8N+
84.0808	11	C5H10N+
86.0961	6	C5H12N+
87.0263	35	C4H7S+
93.0699	8	C7H9+
99.0265	12	C5H7S+
101.0419	190	C5H9S+
105.0697	10	C8H9+
107.0491	9	C7H7O+
108.0444	8	C6H6NO+
110.06	134	C6H8NO+
112.0757	128	C6H10NO+
113.0417	9	C6H9S+
117.0367	30	C5H9OS+
117.07	10	C9H9+
124.076	11	CH16O4S+
129.0372	14	C6H9OS+
129.0701	7	C10H9+
132.0442	10	C8H6NO+
133.0649	6	C9H9O+
135.0804	13	C9H11O+
136.0396	15	C7H6NO2+
136.0759	9	C8H10NO+
138.091	6	C8H12NO+
139.0573	7	C8H11S+
143.0855	6	C11H11+
146.0599	11	C9H8NO+
150.0915	40	C9H12NO+
152.0704	24	C8H10NO2+
153.0371	39	C8H9OS+
155.0522	14	C8H11OS+
159.0801	8	C11H11O+
160.0754	16	C10H10NO+
161.0601	35	C10H9O2+
161.0834	33	C10H11NO+
162.0915	21	C10H12NO+
165.0374	9	C9H9OS+
167.0524	20	C9H11OS+
171.0474	109	C8H11O2S+
173.0958	14	C12H13O+
174.0913	61	C11H12NO+
175.0754	49	C11H11O2+
177.0912	12	C11H13O2+
178.0862	999	C10H12NO2+
180.1019	81	C10H14NO2+
181.1097	20	C10H15NO2+
183.117	9	C14H15+
185.0629	29	C9H13O2S+
192.0481	21	C10H10NOS+
195.0468	9	C10H11O2S+
196.0964	25	C10H14NO3+
200.1067	6	C13H14NO+
201.1272	36	C14H17O+
202.1226	27	C13H16NO+
204.1383	10	C13H18NO+
207.0831	5	C12H15OS+
211.0781	13	C11H15O2S+
211.1118	8	C15H15O+
213.0576	13	C16H7N+
216.138	10	C14H18NO+
218.0992	7	C13H16NS+
222.0947	7	C12H16NOS+
226.0893	16	C11H16NO2S+
226.1222	13	C15H16NO+
227.0731	17	C17H9N+
227.1069	17	C15H15O2+
227.1303	15	C15H17NO+
228.1172	6	C12H20O2S+
228.1382	69	C15H18NO+
229.1227	59	C15H17O2+
229.1442	6	C12H21O4+
230.1527	5	C12H22O4+
233.1	12	C14H17OS+
234.0943	20	C13H16NOS+
236.1101	39	C13H18NOS+
250.1252	11	C14H20NOS+
251.1105	13	C14H19O2S+
252.1053	121	C13H18NO2S+
252.1408	6	C14H22NOS+
254.0845	309	C12H16NO3S+
254.1206	76	C13H20NO2S+
260.11	14	C15H18NOS+
261.0945	11	C15H17O2S+
262.1257	13	C15H20NOS+
264.1051	5	C14H18NO2S+
268.1368	11	C14H22NO2S+
278.1207	132	C15H20NO2S+
279.1036	22	C15H19O3S+
280.1365	713	C15H22NO2S+
296.1314	349	C15H22NO3S+
296.1658	10	
298.147	28	C15H24NO3S+
342.1735	95	C17H28NO4S+
