Mass spectrum: Dimethoate; LC-ESI-ITFT; MS2; CE: 90%; R=7500; [M+H]+
Name: Dimethoate
Name: 2-(dimethoxyphosphinothioylthio)-N-methylacetamide
Formula: C5H12NO3PS2
Exact mass: 228.9996
SMILES: P(SCC(NC)=O)(OC)(OC)=S
InChI: InChI=1S/C5H12NO3PS2/c1-6-5(7)4-12-10(11,8-2)9-3/h4H2,1-3H3,(H,6,7)
Instrument: LTQ Orbitrap XL Thermo Scientific
Instrument type: LC-ESI-ITFT
Ms type: MS2
Ion mode: POSITIVE
Ionization: ESI
Fragmentation mode: HCD
Collision energy: 90 % (nominal)
Resolution: 7500
Column name: XBridge C18 3.5um, 2.1x50mm, Waters
Retention time: 5.2 min
Base peak: 230.007
Precursor m/z: 230.0069
Precursor type: [M+H]+
m/z	relative intensity	assigned
58.9949	10	C2H3S+
59.9997	6	CH3NP+
61.0106	13	C2H5S+
62.0185	42	C2H6S+
62.9453	3	PS+
62.9994	26	CH4OP+
76.0215	14	C2H6NS+
78.0104	11	CH5NOP+
78.9943	598	CH4O2P+
88.0216	53	C3H6NS+
92.0261	17	C2H7NOP+
93.01	280	C2H6O2P+
94.9714	10	CH4OPS+
97.0051	12	CH6O3P+
104.0163	8	C3H6NOS+
109.005	5	C2H6O3P+
110.9665	53	CH4O2PS+
111.0206	12	C2H8O3P+
119.9937	4	C3H6NS2+
123.9981	69	C2H7NOPS+
124.982	999	C2H6O2PS+
127.0156	32	C2H8O4P+
128.977	76	CH6O3PS+
142.9926	926	C2H8O3PS+
155.9697	5	C2H7NOPS2+
156.954	49	C2H6O2PS2+
170.9696	4	C3H8O2PS2+
