Mass spectrum: Fonofos; LC-ESI-QFT; MS2; CE: 15; R=35000; [M+H]+
Name: Fonofos
Name: ethoxy-ethyl-(phenylthio)-sulfanylidenephosphorane
Formula: C10H15OPS2
Exact mass: 246.03019
SMILES: S=P(Sc1ccccc1)(OCC)CC
InChI: InChI=1S/C10H15OPS2/c1-3-11-12(13,4-2)14-10-8-6-5-7-9-10/h5-9H,3-4H2,1-2H3
Instrument: Q Exactive Orbitrap Thermo Scientific
Instrument type: LC-ESI-QFT
Ms type: MS2
Ion mode: POSITIVE
Ionization: ESI
Fragmentation mode: HCD
Collision energy: 15 (nominal)
Resolution: 35000
Column name: XBridge C18 3.5um, 2.1x50mm, Waters
Retention time: 12.9 min
Base peak: 247.0377
Precursor m/z: 247.0375
Precursor type: [M+H]+
m/z	relative intensity	assigned
62.9452	3	PS+
80.9557	6	H2OPS+
108.9871	296	C2H6OPS+
111.0263	3	C6H7S+
126.9976	308	C2H8O2PS+
137.0185	999	C4H10OPS+
141.0132	2	C3H10O2PS+
155.0289	113	C4H12O2PS+
169.0445	5	C5H14O2PS+
200.9955	49	C8H10PS2+
219.0062	38	C8H12OPS2+
247.0375	159	C10H16OPS2+
