Mass spectrum: Diaveridine; LC-ESI-QFT; MS2; CE: 45; R=35000; [M+H]+
Name: Diaveridine
Name: 5-[(3,4-dimethoxyphenyl)methyl]pyrimidine-2,4-diamine
Formula: C13H16N4O2
Exact mass: 260.12733
SMILES: COC1=C(C=C(C=C1)CC2=CN=C(N=C2N)N)OC
InChI: InChI=1S/C13H16N4O2/c1-18-10-4-3-8(6-11(10)19-2)5-9-7-16-13(15)17-12(9)14/h3-4,6-7H,5H2,1-2H3,(H4,14,15,16,17)
Instrument: Q Exactive Plus Orbitrap Thermo Scientific
Instrument type: LC-ESI-QFT
Ms type: MS2
Ion mode: POSITIVE
Ionization: ESI
Fragmentation mode: HCD
Collision energy: 45 (nominal)
Resolution: 35000
Column name: XBridge C18 3.5um, 2.1x50mm, Waters
Retention time: 3.4 min
Base peak: 261.1339
Precursor m/z: 261.1346
Precursor type: [M+H]+
m/z	relative intensity	assigned
54.0337	1	C3H4N+
81.0447	44	C4H5N2+
106.0399	1	C5H4N3+
123.0665	962	C5H7N4+
124.0743	5	C5H8N4+
151.0754	17	C9H11O2+
171.0679	3	C11H9NO+
200.0816	1	C11H10N3O+
200.1054	3	C11H12N4+
202.0863	16	C12H12NO2+
215.0929	1	C11H11N4O+
216.1006	43	C11H12N4O+
217.1085	156	C11H13N4O+
228.0771	4	C12H10N3O2+
228.1003	2	C12H12N4O+
229.0845	3	C12H11N3O2+
229.1084	5	C12H13N4O+
230.1167	2	C12H14N4O+
231.0876	16	C11H11N4O2+
245.1033	999	C12H13N4O2+
246.1112	263	C12H14N4O2+
261.1346	985	C13H17N4O2+
