Mass spectrum: Carbophenothion; LC-ESI-QFT; MS2; CE: 30%; R=17500; [M+H]+
Name: Carbophenothion
Name: (4-chlorophenyl)sulfanylmethylsulfanyl-diethoxy-sulfanylidene-lambda5-phosphane
Formula: C11H16ClO2PS3
Exact mass: 341.9739
SMILES: CCOP(=S)(OCC)SCSC1=CC=C(C=C1)Cl
InChI: InChI=1S/C11H16ClO2PS3/c1-3-13-15(16,14-4-2)18-9-17-11-7-5-10(12)6-8-11/h5-8H,3-4,9H2,1-2H3
Instrument: Exploris 240 Orbitrap Thermo Scientific
Instrument type: LC-ESI-QFT
Ms type: MS2
Ion mode: POSITIVE
Ionization: ESI
Fragmentation mode: HCD
Collision energy: 30 % (nominal)
Resolution: 17500
Column name: XBridge C18 3.5um, 2.1x50mm, Waters
Retention time: 14.141 min
Base peak: 360.9651
Precursor m/z: 342.9811
Precursor type: [M+H]+
m/z	relative intensity	assigned
114.9614	11	CH4ClO2S+
142.9384	39	CH4O2PS2+
153.0128	11	C4H10O2PS+
156.9873	999	C7H6ClS+
170.9696	28	C3H8O2PS2+
