Mass spectrum: Pinoxaden-TP NOA 407854; LC-ESI-QFT; MS2; CE: 30%; R=17500; [M+H]+
Name: Pinoxaden-TP NOA 407854
Name: 8-(2,6-Diethyl-4-methylphenyl)tetrahydropyrazolo(1,2-d)(1,4,5)oxadiazepine-7,9-dione
Formula: C18H24N2O3
Exact mass: 316.1787
SMILES: CCC1=CC(C)=CC(CC)=C1C1C(=O)N2CCOCCN2C1=O
InChI: InChI=1S/C18H24N2O3/c1-4-13-10-12(3)11-14(5-2)15(13)16-17(21)19-6-8-23-9-7-20(19)18(16)22/h10-11,16H,4-9H2,1-3H3
Instrument: Q Exactive Plus Orbitrap Thermo Scientific
Instrument type: LC-ESI-QFT
Ms type: MS2
Ion mode: POSITIVE
Ionization: ESI
Fragmentation mode: HCD
Collision energy: 30 % (nominal)
Resolution: 17500
Column name: XBridge C18 3.5um, 2.1x50mm, Waters
Retention time: 7.136 min
Base peak: 317.186
Precursor m/z: 317.186
Precursor type: [M+H]+
m/z	relative intensity	assigned
71.0603	1	C3H7N2+
101.0709	25	C4H9N2O+
103.0863	2	C4H11N2O+
119.0854	1	C9H11+
147.1168	47	C11H15+
161.1327	2	C12H17+
171.0764	77	C7H11N2O3+
202.1229	1	C13H16NO+
228.1373	1	C15H18NO+
233.165	3	C14H21N2O+
244.1206	1	C14H16N2O2+
261.1963	23	C16H25N2O+
273.1592	2	C16H21N2O2+
288.1471	1	C16H20N2O3+
289.1545	27	C16H21N2O3+
289.1906	12	C17H25N2O2+
317.1859	999	C18H25N2O3+
