Mass spectrum: 1-[(4-Chlorophenyl)phenylmethyl]piperazine; LC-ESI-QFT; MS2; CE: 75; R=35000; [M+H]+
Name: 1-[(4-Chlorophenyl)phenylmethyl]piperazine
Name: Norchlorcyclizine
Name: 1-(4-Chlorobenzhydryl) piperazine
Formula: C17H19ClN2
Exact mass: 286.12368
SMILES: C1CN(CCN1)C(C2=CC=CC=C2)C3=CC=C(C=C3)Cl
InChI: InChI=1S/C17H19ClN2/c18-16-8-6-15(7-9-16)17(14-4-2-1-3-5-14)20-12-10-19-11-13-20/h1-9,17,19H,10-13H2
Instrument: Q Exactive Plus Orbitrap Thermo Scientific
Instrument type: LC-ESI-QFT
Ms type: MS2
Ion mode: POSITIVE
Ionization: ESI
Fragmentation mode: HCD
Collision energy: 75 (nominal)
Resolution: 35000
Column name: XBridge C18 3.5um, 2.1x50mm, Waters
Retention time: 9.0 min
Base peak: 287.1308
Precursor m/z: 287.131
Precursor type: [M+H]+
m/z	relative intensity	assigned
56.0495	1	C3H6N+
63.0228	1	C5H3+
115.054	1	C9H7+
139.0541	1	C11H7+
164.0621	3	C13H8+
165.07	711	C13H9+
166.0777	999	C13H10+
183.0805	11	C10H14ClN+
193.0761	18	C13H9N2+
199.031	19	C13H8Cl+
201.0466	65	C13H10Cl+
