Mass spectrum: Metolachlor-TP SYN542490; LC-ESI-QFT; MS2; CE: 60%; R=17500; [M+H]+
Name: Metolachlor-TP SYN542490
Formula: C15H21NO6S
Exact mass: 343.1090
SMILES: O=S(=O)(O)CC(=O)N(C(C)COC)c1c(C)cccc1C(C)=O
InChI: InChI=1S/C15H21NO6S/c1-10-6-5-7-13(12(3)17)15(10)16(11(2)8-22-4)14(18)9-23(19,20)21/h5-7,11H,8-9H2,1-4H3,(H,19,20,21)
Instrument: Exploris 240 Orbitrap Thermo Scientific
Instrument type: LC-ESI-QFT
Ms type: MS2
Ion mode: POSITIVE
Ionization: ESI
Fragmentation mode: HCD
Collision energy: 60 % (nominal)
Resolution: 17500
Column name: XBridge C18 3.5um, 2.1x50mm, Waters
Retention time: 4.668 min
Base peak: 344.1159
Precursor m/z: 344.1162
Precursor type: [M+H]+
m/z	relative intensity	assigned
73.0648	269	C4H9O+
105.0702	26	C8H9+
106.0652	33	C7H8N+
108.0809	65	C7H10N+
118.0652	48	C8H8N+
120.0806	34	C8H10N+
129.0696	79	C10H9+
131.0729	125	C9H9N+
132.0807	185	C9H10N+
134.0603	64	C8H8NO+
134.0964	31	C9H12N+
144.0807	43	C10H10N+
145.0885	37	C10H11N+
146.0963	234	C10H12N+
148.1119	226	C10H14N+
150.0915	76	C9H12NO+
156.0808	476	C11H10N+
157.0888	58	C11H11N+
160.0758	258	C10H10NO+
160.1119	88	C11H14N+
170.0268	27	C7H8NO2S+
170.0962	98	C12H12N+
171.1041	67	C12H13N+
172.112	999	C12H14N+
173.0836	158	C11H11NO+
174.0913	955	C11H12NO+
175.0992	213	C11H13NO+
178.0692	32	C10H12NS+
188.107	400	C12H14NO+
190.1222	61	C12H16NO+
198.0914	104	C13H12NO+
210.0579	95	C10H12NO2S+
214.1226	943	C14H16NO+
216.102	253	C13H14NO2+
232.1335	207	C14H18NO2+
246.1118	49	C14H16NO3+
252.0689	343	C12H14NO3S+
