Mass spectrum: Etodolac; LC-ESI-QFT; MS2; CE: 60; R=35000; [M+H]+
Name: Etodolac
Name: 2-(1,8-diethyl-4,9-dihydro-3H-pyrano[3,4-b]indol-1-yl)acetic acid
Formula: C17H21NO3
Exact mass: 287.15214
SMILES: CCC1=C2C(=CC=C1)C3=C(N2)C(OCC3)(CC)CC(=O)O
InChI: InChI=1S/C17H21NO3/c1-3-11-6-5-7-12-13-8-9-21-17(4-2,10-14(19)20)16(13)18-15(11)12/h5-7,18H,3-4,8-10H2,1-2H3,(H,19,20)
Instrument: Q Exactive Orbitrap Thermo Scientific
Instrument type: LC-ESI-QFT
Ms type: MS2
Ion mode: POSITIVE
Ionization: ESI
Fragmentation mode: HCD
Collision energy: 60 (nominal)
Resolution: 35000
Column name: XBridge C18 3.5um, 2.1x50mm, Waters
Retention time: 12.5 min
Base peak: 288.1594
Precursor m/z: 288.1594
Precursor type: [M+H]+
m/z	relative intensity	assigned
79.0542	2	C6H7+
83.0492	1	C5H7O+
90.0464	1	C7H6+
91.054	1	C7H7+
115.0539	9	C9H7+
116.0491	1	C8H6N+
116.0621	5	C9H8+
117.0573	9	C8H7N+
117.0698	46	C9H9+
118.0651	4	C8H8N+
128.062	3	C10H8+
129.0697	3	C10H9+
130.0651	31	C9H8N+
131.073	1	C9H9N+
142.0653	7	C10H8N+
143.073	846	C10H9N+
144.0808	681	C10H10N+
145.0647	4	C10H9O+
145.0886	4	C10H11N+
145.101	6	C11H13+
146.0602	1	C9H8NO+
146.0963	3	C10H12N+
153.0698	2	C12H9+
154.0649	4	C11H8N+
155.0604	6	C10H7N2+
155.073	3	C11H9N+
155.0855	6	C12H11+
156.0808	19	C11H10N+
157.0886	109	C11H11N+
158.0965	16	C11H12N+
160.0755	2	C10H10NO+
167.073	24	C12H9N+
168.0808	45	C12H10N+
169.0884	6	C12H11N+
170.0965	8	C12H12N+
171.1044	10	C12H13N+
172.112	999	C12H14N+
173.1153	2	C7H15N3O2+
179.0855	2	C14H11+
180.0808	70	C13H10N+
181.0886	83	C13H11N+
182.0965	79	C13H12N+
183.0678	1	C12H9NO+
183.1043	4	C13H13N+
184.112	3	C13H14N+
185.1201	6	C13H15N+
186.1276	5	C13H16N+
193.0886	2	C14H11N+
194.0965	51	C14H12N+
195.1043	123	C14H13N+
196.1121	81	C14H14N+
197.1199	12	C14H15N+
198.0912	4	C13H12NO+
198.1279	4	C14H16N+
200.1434	6	C14H18N+
208.0759	6	C14H10NO+
208.1122	20	C15H14N+
209.12	50	C15H15N+
210.1278	99	C15H16N+
211.0993	3	C14H13NO+
211.136	13	C15H17N+
215.1261	2	C9H17N3O3+
222.0914	5	C15H12NO+
222.1278	7	C16H16N+
223.0993	9	C15H13NO+
224.107	4	C15H14NO+
224.1433	46	C16H18N+
226.0863	3	C14H12NO2+
226.1227	3	C15H16NO+
226.1589	1	C16H20N+
228.1384	13	C15H18NO+
229.1415	3	C10H19N3O3+
236.1065	1	C16H14NO+
237.1144	5	C16H15NO+
238.1227	2	C16H16NO+
239.1304	2	C16H17NO+
241.1092	1	C15H15NO2+
252.1383	4	C17H18NO+
