Mass spectrum: Cimaterol; LC-ESI-QFT; MS2; CE: 120; R=35000; [M+H]+
Name: Cimaterol
Name: 2-amino-5-[1-hydroxy-2-(propan-2-ylamino)ethyl]benzonitrile
Formula: C12H17N3O
Exact mass: 219.13716
SMILES: CC(C)NCC(C1=CC(=C(C=C1)N)C#N)O
InChI: InChI=1S/C12H17N3O/c1-8(2)15-7-12(16)9-3-4-11(14)10(5-9)6-13/h3-5,8,12,15-16H,7,14H2,1-2H3
Instrument: Q Exactive Plus Orbitrap Thermo Scientific
Instrument type: LC-ESI-QFT
Ms type: MS2
Ion mode: POSITIVE
Ionization: ESI
Fragmentation mode: HCD
Collision energy: 120 (nominal)
Resolution: 35000
Column name: XBridge C18 3.5um, 2.1x50mm, Waters
Retention time: 1.5 min
Base peak: 220.1439
Precursor m/z: 220.1444
Precursor type: [M+H]+
m/z	relative intensity	assigned
50.015	1	C4H2+
51.0229	5	C4H3+
52.0181	2	C3H2N+
53.0022	7	C3HO+
53.0386	8	C4H5+
53.9974	1	C2NO+
62.0151	3	C5H2+
63.0229	53	C5H3+
64.0306	1	C5H4+
65.0386	34	C5H5+
66.0337	1	C4H4N+
66.0463	1	C5H6+
67.0415	4	C4H5N+
67.9892	3	C3O2+
75.0229	7	C6H3+
77.0385	29	C6H5+
78.0338	6	C5H4N+
78.0466	2	C6H6+
79.0542	27	C6H7+
80.0494	8	C5H6N+
81.0335	3	C5H5O+
88.0306	2	C7H4+
89.0385	934	C7H5+
90.0338	34	C6H4N+
90.0464	8	C7H6+
91.0416	47	C6H5N+
91.0542	17	C7H7+
92.0494	15	C6H6N+
93.0573	7	C6H7N+
95.0491	30	C6H7O+
96.0444	9	C5H6NO+
99.0229	1	C8H3+
100.0181	3	C7H2N+
102.0338	3	C7H4N+
103.0417	5	C7H5N+
104.0494	131	C7H6N+
105.0447	34	C6H5N2+
105.0573	11	C7H7N+
106.0651	43	C7H8N+
108.0445	1	C6H6NO+
114.0338	11	C8H4N+
115.0417	33	C8H5N+
116.0494	999	C8H6N+
117.0447	7	C7H5N2+
117.0572	31	C8H7N+
118.0525	125	C7H6N2+
119.0604	8	C7H7N2+
120.0445	3	C7H6NO+
126.0337	3	C9H4N+
128.0494	1	C9H6N+
129.0448	4	C8H5N2+
130.0398	5	C7H4N3+
131.0604	299	C8H7N2+
132.0682	22	C8H8N2+
133.0522	4	C8H7NO+
133.076	7	C8H9N2+
134.06	106	C8H8NO+
141.0446	1	C9H5N2+
142.0526	196	C9H6N2+
143.0604	109	C9H7N2+
144.0557	37	C8H6N3+
144.0681	5	C9H8N2+
154.0399	3	C9H4N3+
158.0714	10	C9H8N3+
159.0792	5	C9H9N3+
161.0709	1	C9H9N2O+
