Mass spectrum: Linuron; LC-ESI-QFT; MS2; CE: 30%; R=15000; [M-H]-
Name: Linuron
Name: 3-(3,4-dichlorophenyl)-1-methoxy-1-methylurea
Formula: C9H10Cl2N2O2
Exact mass: 248.0119329
SMILES: CON(C)C(=O)NC1=CC=C(Cl)C(Cl)=C1
InChI: InChI=1S/C9H10Cl2N2O2/c1-13(15-2)9(14)12-6-3-4-7(10)8(11)5-6/h3-5H,1-2H3,(H,12,14)
Instrument: Q Exactive Plus
Instrument type: LC-ESI-QFT
Ms type: MS2
Ion mode: NEGATIVE
Ionization: ESI
Fragmentation mode: HCD
Collision energy: 30 % (nominal)
Resolution: 15000
Column name: XBridge C18 3.5um, 2.1x50mm, Waters
Retention time: 8.879 min
Base peak: 190.9285
Precursor m/z: 247.0047
Precursor type: [M-H]-
Precursor intensity: 998182.14
m/z	relative intensity	assigned
159.9725	999	C6H4Cl2N-
185.9518	29	C7H2Cl2NO-
214.9781	92	C8H5Cl2N2O-
231.9808	67	C8H6Cl2N2O2-
