Mass spectrum: Cyanophos; LC-ESI-QFT; MS2; CE: 75%; R=17500; [M+H]+
Name: Cyanophos
Name: 4-dimethoxyphosphinothioyloxybenzonitrile
Formula: C9H10NO3PS
Exact mass: 243.0119
SMILES: COP(=S)(OC)OC1=CC=C(C=C1)C#N
InChI: InChI=1S/C9H10NO3PS/c1-11-14(15,12-2)13-9-5-3-8(7-10)4-6-9/h3-6H,1-2H3
Instrument: Exploris 240 Orbitrap Thermo Scientific
Instrument type: LC-ESI-QFT
Ms type: MS2
Ion mode: POSITIVE
Ionization: ESI
Fragmentation mode: HCD
Collision energy: 75 % (nominal)
Resolution: 17500
Column name: XBridge C18 3.5um, 2.1x50mm, Waters
Retention time: 6.931 min
Base peak: 244.0192
Precursor m/z: 244.0192
Precursor type: [M+H]+
m/z	relative intensity	assigned
62.0185	92	C2H6S+
75.023	24	C6H3+
78.9944	999	CH4O2P+
90.0339	31	C6H4N+
91.0418	38	C6H5N+
97.005	24	CH6O3P+
102.0341	77	C7H4N+
109.0049	217	C2H6O3P+
119.0369	33	C7H5NO+
120.0445	22	C7H6NO+
124.9821	729	C2H6O2PS+
134.0059	808	C7H4NS+
135.0138	157	C7H5NS+
136.0214	15	C7H6NS+
142.9927	297	C2H8O3PS+
157.0086	27	C3H10O3PS+
179.9668	238	C7H3NOPS+
