Mass spectrum: 4-Toluenesulfonamide; LC-ESI-QFT; MS2; CE: 30; R=35000; [M+H]+
Name: 4-Toluenesulfonamide
Name: p-Toluenesulfonamide
Name: 4-methylbenzenesulfonimidic acid
Formula: C7H9NO2S
Exact mass: 171.03540
SMILES: CC1=CC=C(C=C1)S(=O)(=O)N
InChI: InChI=1S/C7H9NO2S/c1-6-2-4-7(5-3-6)11(8,9)10/h2-5H,1H3,(H2,8,9,10)
Instrument: Q Exactive Plus Orbitrap Thermo Scientific
Instrument type: LC-ESI-QFT
Ms type: MS2
Ion mode: POSITIVE
Ionization: ESI
Fragmentation mode: HCD
Collision energy: 30 (nominal)
Resolution: 35000
Column name: XBridge C18 3.5um, 2.1x50mm, Waters
Retention time: 4.6 min
Base peak: 189.0689
Precursor m/z: 172.0427
Precursor type: [M+H]+
m/z	relative intensity	assigned
50.015	1	C4H2+
51.0228	1	C4H3+
55.0179	12	C3H3O+
55.0542	2	C4H7+
65.0386	49	C5H5+
67.0542	30	C5H7+
77.0386	3	C6H5+
91.0542	230	C7H7+
95.0491	13	C6H7O+
105.0447	1	C6H5N2+
108.057	2	C7H8O+
109.0648	344	C7H9O+
119.0604	999	C7H7N2+
155.0161	873	C7H7O2S+
172.0425	3	C7H10NO2S+
