Mass spectrum: Cymoxanil-TP IN-KQ960; LC-ESI-QFT; MS2; CE: 60%; R=17500; [M-H]-
Name: Cymoxanil-TP IN-KQ960
Name: 3-ethyl-4-(methoxyamino)-2,5-dioxoimidazolidine-4-carboxamide
Formula: C7H12N4O4
Exact mass: 216.0859
SMILES: CCN1C(=O)NC(=O)C1(NOC)C(N)=O
InChI: InChI=1S/C7H12N4O4/c1-3-11-6(14)9-5(13)7(11,4(8)12)10-15-2/h10H,3H2,1-2H3,(H2,8,12)(H,9,13,14)
Instrument: Q Exactive Orbitrap Thermo Scientific
Instrument type: LC-ESI-QFT
Ms type: MS2
Ion mode: NEGATIVE
Ionization: ESI
Fragmentation mode: HCD
Collision energy: 60 % (nominal)
Resolution: 17500
Column name: XBridge C18 3.5um, 2.1x50mm, Waters
Retention time: 1.951 min
Base peak: 140.0465
Precursor m/z: 215.0786
Precursor type: [M-H]-
m/z	relative intensity	assigned
69.0456	999	C3H5N2-
