Mass spectrum: Verapamil; LC-ESI-ITFT; MS2; CE: 75%; R=7500; [M+H]+
Name: Verapamil
Name: 2-(3,4-dimethoxyphenyl)-5-[2-(3,4-dimethoxyphenyl)ethyl-methyl-amino]-2-propan-2-yl-pentanenitrile
Formula: C27H38N2O4
Exact mass: 454.2832
SMILES: COC1=C(OC)C=CC(C(C(C)C)(C#N)CCCN(CCC2=CC(OC)=C(OC)C=C2)C)=C1
InChI: InChI=1S/C27H38N2O4/c1-20(2)27(19-28,22-10-12-24(31-5)26(18-22)33-7)14-8-15-29(3)16-13-21-9-11-23(30-4)25(17-21)32-6/h9-12,17-18,20H,8,13-16H2,1-7H3
Instrument: LTQ Orbitrap XL Thermo Scientific
Instrument type: LC-ESI-ITFT
Ms type: MS2
Ion mode: POSITIVE
Ionization: ESI
Fragmentation mode: HCD
Collision energy: 75 % (nominal)
Resolution: 7500
Column name: XBridge C18 3.5um, 2.1x50mm, Waters
Retention time: 7.3 min
Base peak: 455.292
Precursor m/z: 455.2904
Precursor type: [M+H]+
m/z	relative intensity	assigned
58.0651	78	C3H8N+
77.0386	35	C6H5+
79.0542	184	C6H7+
84.0808	31	C5H10N+
86.0965	14	C5H12N+
91.0543	94	C7H7+
92.0618	15	C7H8+
93.0697	18	C7H9+
96.0805	9	C6H10N+
103.0543	204	C8H7+
104.0621	50	C8H8+
105.07	420	C8H9+
107.0492	153	C7H7O+
108.0573	9	C7H8O+
118.0414	96	C8H6O+
119.0493	90	C8H7O+
120.057	81	C8H8O+
121.0649	230	C8H9O+
122.0725	64	C8H10O+
124.0518	23	C7H8O2+
131.0491	44	C9H7O+
132.0567	14	C9H8O+
133.0649	242	C9H9O+
134.0727	365	C9H10O+
135.0441	321	C8H7O2+
135.0807	80	C9H11O+
136.0517	22	C8H8O2+
137.0597	37	C8H9O2+
138.0675	43	C8H10O2+
139.0751	12	C8H11O2+
146.0723	30	C10H10O+
149.0594	56	C9H9O2+
150.0676	999	C9H10O2+
151.0754	145	C9H11O2+
152.083	16	C9H12O2+
164.0831	14	C10H12O2+
165.0911	658	C10H13O2+
172.0752	14	C11H10NO+
174.0906	13	C11H12NO+
176.0701	27	C10H10NO2+
177.091	57	C11H13O2+
191.1061	19	C12H15O2+
217.1087	9	C13H15NO2+
218.1171	18	C13H16NO2+
