Mass spectrum: Eprosartan; LC-ESI-ITFT; MS2; CE: 30%; R=7500; [M+H]+
Name: Eprosartan
Name: 4-[[2-butyl-5-[(E)-3-hydroxy-3-keto-2-(2-thenyl)prop-1-enyl]imidazol-1-yl]methyl]benzoic acid
Formula: C23H24N2O4S
Exact mass: 424.1457
SMILES: CCCCC1=NC=C(N1CC2=CC=C(C=C2)C(=O)O)/C=C(\CC3=CC=CS3)/C(=O)O
InChI: InChI=1S/C23H24N2O4S/c1-2-3-6-21-24-14-19(12-18(23(28)29)13-20-5-4-11-30-20)25(21)15-16-7-9-17(10-8-16)22(26)27/h4-5,7-12,14H,2-3,6,13,15H2,1H3,(H,26,27)(H,28,29)/b18-12+
Instrument: LTQ Orbitrap XL Thermo Scientific
Instrument type: LC-ESI-ITFT
Ms type: MS2
Ion mode: POSITIVE
Ionization: ESI
Fragmentation mode: HCD
Collision energy: 30 % (nominal)
Resolution: 7500
Column name: XBridge C18 3.5um, 2.1x50mm, Waters
Retention time: 6.3 min
Base peak: 425.154
Precursor m/z: 425.153
Precursor type: [M+H]+
m/z	relative intensity	assigned
97.0107	101	C5H5S+
107.0496	15	C7H7O+
135.0441	130	C8H7O2+
163.1234	20	C10H15N2+
189.1015	8	C11H13N2O+
207.1128	697	C11H15N2O2+
245.1106	37	C14H17N2S+
272.0979	57	C15H16N2OS+
273.1059	54	C15H17N2OS+
290.1078	30	C15H18N2O2S+
291.1161	20	C15H19N2O2S+
341.1496	187	C19H21N2O4+
379.1468	24	C22H23N2O2S+
407.1422	71	C23H23N2O3S+
425.1528	999	C23H25N2O4S+
