Mass spectrum: Kresoxim-methyl acid; LC-ESI-QFT; MS2; CE: 45; R=35000; [M+H]+
Name: Kresoxim-methyl acid
Name: (2E)-2-methoxyimino-2-[2-[(2-methylphenoxy)methyl]phenyl]acetic acid
Formula: C17H17NO4
Exact mass: 299.11576
SMILES: O=C(O)\C(=N\OC)c2ccccc2COc1ccccc1C
InChI: InChI=1S/C17H17NO4/c1-12-7-3-6-10-15(12)22-11-13-8-4-5-9-14(13)16(17(19)20)18-21-2/h3-10H,11H2,1-2H3,(H,19,20)/b18-16+
Instrument: Q Exactive Plus Orbitrap Thermo Scientific
Instrument type: LC-ESI-QFT
Ms type: MS2
Ion mode: POSITIVE
Ionization: ESI
Fragmentation mode: HCD
Collision energy: 45 (nominal)
Resolution: 35000
Column name: XBridge C18 3.5um, 2.1x50mm, Waters
Retention time: 10.9 min
Base peak: 300.1227
Precursor m/z: 300.123
Precursor type: [M+H]+
m/z	relative intensity	assigned
55.0178	3	C3H3O+
59.0491	4	C3H7O+
65.0386	5	C5H5+
69.0335	1	C4H5O+
77.0384	1	C6H5+
79.0542	6	C6H7+
89.0386	30	C7H5+
91.0542	138	C7H7+
93.0699	3	C7H9+
95.0492	3	C6H7O+
104.0494	8	C7H6N+
107.0491	21	C7H7O+
108.0569	1	C7H8O+
109.0648	3	C7H9O+
116.0495	999	C8H6N+
117.0573	70	C8H7N+
118.0651	13	C8H8N+
119.0493	9	C8H7O+
119.0604	3	C7H7N2+
120.0443	1	C7H6NO+
121.0648	69	C8H9O+
128.0496	1	C9H6N+
130.0652	1	C9H8N+
132.0444	47	C8H6NO+
133.0523	2	C8H7NO+
134.06	59	C8H8NO+
135.044	48	C8H7O2+
140.0493	1	C10H6N+
141.0699	2	C11H9+
146.06	84	C9H8NO+
147.0679	3	C9H9NO+
148.0756	6	C9H10NO+
152.0618	4	C12H8+
153.0697	9	C12H9+
154.065	3	C11H8N+
156.0806	1	C11H10N+
161.047	4	C9H7NO2+
165.0699	15	C13H9+
166.0655	11	C12H8N+
166.0777	18	C13H10+
167.0732	18	C12H9N+
167.0855	38	C13H11+
168.0807	12	C12H10N+
176.0615	1	C14H8+
177.0699	19	C14H9+
178.0649	2	C13H8N+
178.0776	30	C14H10+
179.0728	6	C13H9N+
179.0855	100	C14H11+
180.0807	42	C13H10N+
181.0886	42	C13H11N+
181.1012	47	C14H13+
182.0606	1	C12H8NO+
182.0727	5	C13H10O+
182.0963	8	C13H12N+
183.0806	1	C13H11O+
189.07	3	C15H9+
190.065	1	C14H8N+
190.0775	3	C15H10+
191.0732	6	C14H9N+
191.0855	29	C15H11+
192.0574	1	C14H8O+
192.0654	9	C10H10NO3+
192.0808	4	C14H10N+
193.0887	28	C14H11N+
194.0727	116	C14H10O+
194.0965	201	C14H12N+
195.0804	36	C14H11O+
195.1043	7	C14H13N+
196.076	1	C13H10NO+
196.1121	25	C14H14N+
197.0961	5	C14H13O+
203.073	12	C15H9N+
204.0809	79	C15H10N+
205.0761	5	C14H9N2+
205.0883	6	C15H11N+
206.06	6	C14H8NO+
206.0965	25	C15H12N+
207.0679	131	C14H9NO+
207.0804	81	C15H11O+
207.1043	21	C15H13N+
208.076	7	C14H10NO+
208.0883	45	C15H12O+
209.0836	233	C14H11NO+
209.0959	39	C15H13O+
210.0684	1	C14H10O2+
211.0754	5	C14H11O2+
220.0757	13	C15H10NO+
221.0836	9	C15H11NO+
222.0914	698	C15H12NO+
223.0992	107	C15H13NO+
224.107	97	C15H14NO+
225.0907	12	C15H13O2+
232.0765	1	C16H10NO+
232.0868	6	C15H10N3+
234.0915	3	C16H12NO+
235.0635	15	C15H9NO2+
235.0753	243	C16H11O2+
236.0707	2	C15H10NO2+
236.0831	6	C16H12O2+
238.1228	1	C16H16NO+
250.0861	8	C16H12NO2+
254.1177	14	C16H16NO2+
286.0819	1	C14H12N3O4+
