Mass spectrum: Halosulfuron-Methyl; LC-ESI-QFT; MS2; CE: 90%; R=17500; [M-H]-
Name: Halosulfuron-Methyl
Name: methyl 3-chloro-5-[(4,6-dimethoxypyrimidin-2-yl)carbamoylsulfamoyl]-1-methylpyrazole-4-carboxylate
Formula: C13H15ClN6O7S
Exact mass: 434.0411
SMILES: CN1C(=C(C(=N1)Cl)C(=O)OC)S(=O)(=O)NC(=O)NC2=NC(=CC(=N2)OC)OC
InChI: InChI=1S/C13H15ClN6O7S/c1-20-10(8(9(14)18-20)11(21)27-4)28(23,24)19-13(22)17-12-15-6(25-2)5-7(16-12)26-3/h5H,1-4H3,(H2,15,16,17,19,22)
Instrument: Exploris 240 Orbitrap Thermo Scientific
Instrument type: LC-ESI-QFT
Ms type: MS2
Ion mode: NEGATIVE
Ionization: ESI
Fragmentation mode: HCD
Collision energy: 90 % (nominal)
Resolution: 17500
Column name: XBridge C18 3.5um, 2.1x50mm, Waters
Retention time: 10.035 min
Base peak: 433.0339
Precursor m/z: 433.0339
Precursor type: [M-H]-
m/z	relative intensity	assigned
63.9625	13	O2S-
64.0067	21	C3N2-
65.0145	170	C3HN2-
65.9985	342	C3NO-
77.9655	999	NO2S-
82.0175	21	C3H2N2O-
90.0097	26	C4N3-
97.0407	8	C4H5N2O-
107.0125	182	C4HN3O-
108.0204	13	C4H2N3O-
122.0359	161	C5H4N3O-
124.0518	12	C5H6N3O-
139.0388	79	C5H5N3O2-
154.0621	51	C6H8N3O2-
