Mass spectrum: Anabaenopeptin A; LC-ESI-QFT; MS2; CE: 60%; R=17500; [M-H]-
Name: Anabaenopeptin A
Name: 2-[[3-benzyl-9-[2-(4-hydroxyphenyl)ethyl]-6,7-dimethyl-2,5,8,11,14-pentaoxo-12-propan-2-yl-1,4,7,10,13-pentazacyclononadec-15-yl]carbamoylamino]-3-(4-hydroxyphenyl)propanoic acid
Formula: C44H57N7O10
Exact mass: 843.4167
SMILES: CC1C(=O)NC(C(=O)NCCCCC(C(=O)NC(C(=O)NC(C(=O)N1C)CCC2=CC=C(C=C2)O)C(C)C)NC(=O)NC(CC3=CC=C(C=C3)O)C(=O)O)CC4=CC=CC=C4
InChI: InChI=1S/C44H57N7O10/c1-26(2)37-41(57)46-34(22-17-28-13-18-31(52)19-14-28)42(58)51(4)27(3)38(54)47-35(24-29-10-6-5-7-11-29)39(55)45-23-9-8-12-33(40(56)50-37)48-44(61)49-36(43(59)60)25-30-15-20-32(53)21-16-30/h5-7,10-11,13-16,18-21,26-27,33-37,52-53H,8-9,12,17,22-25H2,1-4H3,(H,45,55)(H,46,57)(H,47,54)(H,50,56)(H,59,60)(H2,48,49,61)
Instrument: Q Exactive Plus Orbitrap Thermo Scientific
Instrument type: LC-ESI-QFT
Ms type: MS2
Ion mode: NEGATIVE
Ionization: ESI
Fragmentation mode: HCD
Collision energy: 60 % (nominal)
Resolution: 17500
Column name: XBridge C18 3.5um, 2.1x50mm, Waters
Retention time: 7.272 min
Base peak: 190.9278
Precursor m/z: 842.4094
Precursor type: [M-H]-
m/z	relative intensity	assigned
72.0091	182	C2H2NO2-
93.0346	291	C6H5O-
97.0043	70	C3HN2O2-
98.0124	32	C3H2N2O2-
99.0201	225	C3H3N2O2-
101.0719	239	C4H9N2O-
102.0562	32	C4H8NO2-
106.0421	31	C7H6O-
107.0501	198	C7H7O-
111.0201	27	C4H3N2O2-
111.0565	24	C5H7N2O-
113.0359	32	C4H5N2O2-
115.0876	62	C5H11N2O-
119.0502	999	C8H7O-
123.0569	36	C6H7N2O-
125.0356	49	C5H5N2O2-
125.0719	69	C6H9N2O-
127.0512	114	C5H7N2O2-
127.0872	35	C6H11N2O-
131.05	29	C9H7O-
141.0667	211	C6H9N2O2-
141.1031	87	C7H13N2O-
146.061	207	C9H8NO-
152.0716	29	C8H10NO2-
153.067	69	C7H9N2O2-
155.0821	26	C7H11N2O2-
160.0765	89	C10H10NO-
163.0396	534	C9H7O3-
167.0823	39	C8H11N2O2-
170.0933	56	C7H12N3O2-
180.0655	297	C7H8N4O2-
189.0667	74	C10H9N2O2-
227.1194	133	H17N7O7-
229.1347	242	C14H17N2O-
