Mass spectrum: Oxacillin; LC-ESI-QFT; MS2; CE: 75; R=35000; [M+H]+
Name: Oxacillin
Name: (2S,5R,6R)-3,3-dimethyl-6-[(5-methyl-3-phenyl-1,2-oxazole-4-carbonyl)amino]-7-oxo-4-thia-1-azabicyclo[3.2.0]heptane-2-carboxylic acid
Formula: C19H19N3O5S
Exact mass: 401.10454
SMILES: CC1=C(C(=O)N[C@H]2[C@H]3SC(C)(C)[C@@H](N3C2=O)C(O)=O)C(=NO1)C1=CC=CC=C1
InChI: InChI=1S/C19H19N3O5S/c1-9-11(12(21-27-9)10-7-5-4-6-8-10)15(23)20-13-16(24)22-14(18(25)26)19(2,3)28-17(13)22/h4-8,13-14,17H,1-3H3,(H,20,23)(H,25,26)/t13-,14+,17-/m1/s1
Instrument: Q Exactive Plus Orbitrap Thermo Scientific
Instrument type: LC-ESI-QFT
Ms type: MS2
Ion mode: POSITIVE
Ionization: ESI
Fragmentation mode: HCD
Collision energy: 75 (nominal)
Resolution: 35000
Column name: XBridge C18 3.5um, 2.1x50mm, Waters
Retention time: 8.5 min
Base peak: 402.1116
Precursor m/z: 402.1118
Precursor type: [M+H]+
m/z	relative intensity	assigned
50.0151	4	C4H2+
51.0229	8	C4H3+
53.0386	106	C4H5+
54.0338	5	C3H4N+
55.0178	2	C3H3O+
55.0543	7	C4H7+
58.995	28	C2H3S+
62.0059	3	CH4NS+
68.0131	1	C3H2NO+
68.0495	1	C4H6N+
69.0448	7	C3H5N2+
70.0651	100	C4H8N+
71.0491	5	C4H7O+
72.0808	2	C4H10N+
75.0263	2	C3H7S+
77.0385	97	C6H5+
78.0464	2	C6H6+
79.0542	1	C6H7+
80.0494	1	C5H6N+
81.0335	8	C5H5O+
81.0447	17	C4H5N2+
81.0573	3	C5H7N+
82.0651	2	C5H8N+
85.0107	14	C4H5S+
87.0263	382	C4H7S+
89.0385	15	C7H5+
91.0543	9	C7H7+
94.0413	3	C6H6O+
94.0652	1	C6H8N+
95.0492	250	C6H7O+
98.0601	17	C5H8NO+
99.0262	1	C5H7S+
99.044	7	C5H7O2+
100.0393	1	C4H6NO2+
103.0542	133	C8H7+
104.0494	14	C7H6N+
105.0448	147	C6H5N2+
109.0397	2	C5H5N2O+
113.0293	3	C5H7NS+
114.0372	999	C5H8NS+
115.0543	3	C9H7+
116.0495	163	C8H6N+
117.0574	5	C8H7N+
118.0651	35	C8H8N+
126.0549	1	C6H8NO2+
128.0494	99	C9H6N+
129.0573	1	C9H7N+
130.0652	214	C9H8N+
131.073	1	C9H9N+
133.076	1	C8H9N2+
140.0496	2	C10H6N+
142.0322	20	C6H8NOS+
142.0527	2	C9H6N2+
142.0652	53	C10H8N+
143.0602	5	C9H7N2+
144.0444	465	C9H6NO+
145.076	3	C9H9N2+
146.06	67	C9H8NO+
155.0605	8	C10H7N2+
156.0682	5	C10H8N2+
157.076	6	C10H9N2+
160.0427	37	C6H10NO2S+
169.0761	1	C11H9N2+
170.0601	13	C11H8NO+
172.0756	6	C11H10NO+
184.0869	3	C11H10N3+
188.0707	11	C11H10NO2+
196.0866	2	C12H10N3+
