Mass spectrum: Difethialone; LC-ESI-QFT; MS2; CE: 60%; R=17500; [M+H]+
Name: Difethialone
Name: 3-[3-[4-(4-bromophenyl)phenyl]-1,2,3,4-tetrahydronaphthalen-1-yl]-2-hydroxythiochromen-4-one
Formula: C31H23BrO2S
Exact mass: 538.0602
SMILES: C1C(CC2=CC=CC=C2C1C3=C(SC4=CC=CC=C4C3=O)O)C5=CC=C(C=C5)C6=CC=C(C=C6)Br
InChI: InChI=1S/C31H23BrO2S/c32-24-15-13-20(14-16-24)19-9-11-21(12-10-19)23-17-22-5-1-2-6-25(22)27(18-23)29-30(33)26-7-3-4-8-28(26)35-31(29)34/h1-16,23,27,34H,17-18H2
Instrument: Exploris 240 Orbitrap Thermo Scientific
Instrument type: LC-ESI-QFT
Ms type: MS2
Ion mode: POSITIVE
Ionization: ESI
Fragmentation mode: HCD
Collision energy: 60 % (nominal)
Resolution: 17500
Column name: XBridge C18 3.5um, 2.1x50mm, Waters
Retention time: 17.282 min
Base peak: 541.0654
Precursor m/z: 539.0675
Precursor type: [M+H]+
m/z	relative intensity	assigned
91.0542	354	C7H7+
103.0542	44	C8H7+
105.0699	13	C8H9+
109.0106	94	C6H5S+
115.0544	12	C9H7+
117.0697	16	C9H9+
123.0263	247	C7H7S+
128.0621	31	C10H8+
129.0699	43	C10H9+
135.0263	40	C8H7S+
137.0057	117	C7H5OS+
137.0418	23	C8H9S+
141.0699	28	C11H9+
147.0266	58	C9H7S+
149.0052	14	C8H5OS+
149.0418	5	C9H9S+
163.021	97	C9H7OS+
165.0699	716	C13H9+
168.9648	20	C7H6Br+
175.0215	30	C10H7OS+
178.0777	999	C14H10+
179.0166	15	C9H7O2S+
179.0856	157	C14H11+
191.0161	241	C10H7O2S+
203.0161	14	C11H7O2S+
204.093	11	C16H12+
205.0316	80	C11H9O2S+
215.0855	26	C17H11+
239.086	21	C19H11+
240.0939	37	C19H12+
241.1013	297	C19H13+
242.9803	186	C13H8Br+
244.9961	113	C13H10Br+
253.1016	17	C20H13+
254.1096	13	C20H14+
255.1168	480	C20H15+
256.1246	705	C20H16+
256.996	34	C14H10Br+
