Mass spectrum: Ioxitalamic acid; LC-ESI-ITFT; MS2; CE: 35%; R=7500; [M+H]+
Name: Ioxitalamic acid
Name: 3-acetamido-5-(2-hydroxyethylcarbamoyl)-2,4,6-triiodo-benzoic acid
Formula: C12H11I3N2O5
Exact mass: 643.7802
SMILES: CC(=O)NC1=C(I)C(C(O)=O)=C(I)C(C(=O)NCCO)=C1I
InChI: InChI=1S/C12H11I3N2O5/c1-4(19)17-10-8(14)5(11(20)16-2-3-18)7(13)6(9(10)15)12(21)22/h18H,2-3H2,1H3,(H,16,20)(H,17,19)(H,21,22)
Instrument: LTQ Orbitrap XL Thermo Scientific
Instrument type: LC-ESI-ITFT
Ms type: MS2
Ion mode: POSITIVE
Ionization: ESI
Fragmentation mode: CID
Collision energy: 35 % (nominal)
Resolution: 7500
Column name: XBridge C18 3.5um, 2.1x50mm, Waters
Retention time: 1.3 min
Base peak: 132.958
Precursor m/z: 644.7875
Precursor type: [M+H]+
m/z	relative intensity	assigned
264.0731	5	C12H12N2O5+
360.9679	19	C11H10IN2O4+
390.9784	80	C12H12IN2O5+
428.8354	40	C9H5I2NO3+
455.8226	113	C10H4I2NO4+
474.8642	36	C10H9I2N2O4+
487.8721	18	C11H10I2N2O4+
498.8642	122	C12H9I2N2O4+
499.849	63	C12H8I2NO5+
516.8755	430	C12H11I2N2O5+
517.8828	69	C12H12I2N2O5+
557.7575	16	C12H5I3N2+
583.7347	999	C10H5I3NO4+
626.7771	58	C12H10I3N2O4+
627.7608	44	C12H9I3NO5+
