Mass spectrum: Chlorophacinone; LC-ESI-QFT; MS2; CE: 15%; R=17500; [M+H]+
Name: Chlorophacinone
Name: 2-[2-(4-chlorophenyl)-2-phenylacetyl]indene-1,3-dione
Formula: C23H15ClO3
Exact mass: 374.0710
SMILES: C1=CC=C(C=C1)C(C2=CC=C(C=C2)Cl)C(=O)C3C(=O)C4=CC=CC=C4C3=O
InChI: InChI=1S/C23H15ClO3/c24-16-12-10-15(11-13-16)19(14-6-2-1-3-7-14)23(27)20-21(25)17-8-4-5-9-18(17)22(20)26/h1-13,19-20H
Instrument: Exploris 240 Orbitrap Thermo Scientific
Instrument type: LC-ESI-QFT
Ms type: MS2
Ion mode: POSITIVE
Ionization: ESI
Fragmentation mode: HCD
Collision energy: 15 % (nominal)
Resolution: 17500
Column name: XBridge C18 3.5um, 2.1x50mm, Waters
Retention time: 14.480 min
Base peak: 375.0783
Precursor m/z: 375.0782
Precursor type: [M+H]+
m/z	relative intensity	assigned
201.0464	8	C13H10Cl+
229.0413	9	C14H10ClO+
235.0754	250	C16H11O2+
263.0703	999	C17H11O3+
269.0365	134	C16H10ClO2+
297.0313	336	C17H10ClO3+
357.0676	214	C23H14ClO2+
