Mass spectrum: Iomeprol; LC-ESI-ITFT; MS2; CE: 60%; R=15000; [M+H]+
Name: Iomeprol
Name: 1-N,3-N-bis(2,3-dihydroxypropyl)-5-[(2-hydroxyacetyl)-methylamino]-2,4,6-triiodobenzene-1,3-dicarboxamide
Formula: C17H22I3N3O8
Exact mass: 776.8541
SMILES: Ic1c(c(I)c(c(I)c1N(C)C(=O)CO)C(=O)NCC(O)CO)C(=O)NCC(O)CO
InChI: InChI=1S/C17H22I3N3O8/c1-23(9(29)6-26)15-13(19)10(16(30)21-2-7(27)4-24)12(18)11(14(15)20)17(31)22-3-8(28)5-25/h7-8,24-28H,2-6H2,1H3,(H,21,30)(H,22,31)
Instrument: LTQ Orbitrap XL Thermo Scientific
Instrument type: LC-ESI-ITFT
Ms type: MS2
Ion mode: POSITIVE
Ionization: ESI
Fragmentation mode: HCD
Collision energy: 60 % (nominal)
Resolution: 15000
Column name: XBridge C18 3.5um, 2.1x50mm, Waters
Retention time: 1.6 min
Base peak: 132.9578
Precursor m/z: 777.8614
Precursor type: [M+H]+
m/z	relative intensity	assigned
90.0335	8	C6H4N+
92.0494	7	C6H6N+
104.0495	8	C7H6N+
108.0444	11	C6H6NO+
119.0366	12	C7H5NO+
132.0443	19	C8H6NO+
146.0237	8	C8H4NO2+
148.0392	16	C8H6NO2+
149.0474	12	C8H7NO2+
160.0394	9	C9H6NO2+
161.047	29	C9H7NO2+
162.0547	13	C9H8NO2+
164.0339	10	C8H6NO3+
166.0491	12	C8H8NO3+
176.034	15	C9H6NO3+
177.042	65	C9H7NO3+
178.0493	11	C9H8NO3+
193.0369	20	C9H7NO4+
194.0446	19	C9H8NO4+
195.0526	26	C9H9NO4+
204.0292	20	C10H6NO4+
205.0612	15	C10H9N2O3+
217.0615	16	C11H9N2O3+
221.0931	11	C11H13N2O3+
222.039	15	C10H8NO5+
245.9412	26	C7H5INO+
247.0715	14	C12H11N2O4+
257.9409	53	C8H5INO+
273.9356	75	C8H5INO2+
275.9499	17	C5H9IO5+
277.0821	41	C13H13N2O5+
287.9513	999	C9H7INO2+
291.9459	33	C8H7INO3+
293.9144	28	C6H3IN2O4+
301.9309	44	C9H5INO3+
303.9463	17	C9H7INO3+
305.9623	36	C9H9INO3+
313.9295	11	C10H5INO3+
325.9407	10	C7H7IN2O5+
331.9412	204	C10H7INO4+
349.9512	21	C10H9INO5+
386.9842	11	C13H12IN2O4+
404.9939	162	C13H14IN2O5+
