Mass spectrum: Metalaxyl-M-TP CGA108906; LC-ESI-QFT; MS2; CE: 15%; R=17500; [M+H]+
Name: Metalaxyl-M-TP CGA108906
Name: 2-[1-carboxyethyl-(2-methoxyacetyl)amino]-3-methylbenzoic acid
Formula: C14H17NO6
Exact mass: 295.1056
SMILES: COCC(=O)N(C(C)C(O)=O)C1=C(C=CC=C1C)C(O)=O
InChI: InChI=1S/C14H17NO6/c1-8-5-4-6-10(14(19)20)12(8)15(9(2)13(17)18)11(16)7-21-3/h4-6,9H,7H2,1-3H3,(H,17,18)(H,19,20)
Instrument: Q Exactive Plus Orbitrap Thermo Scientific
Instrument type: LC-ESI-QFT
Ms type: MS2
Ion mode: POSITIVE
Ionization: ESI
Fragmentation mode: HCD
Collision energy: 15 % (nominal)
Resolution: 17500
Column name: XBridge C18 3.5um, 2.1x50mm, Waters
Retention time: 5.723 min
Base peak: 296.1129
Precursor m/z: 296.1129
Precursor type: [M+H]+
m/z	relative intensity	assigned
146.0603	11	C9H8NO+
160.0757	791	C10H10NO+
178.0863	578	C10H12NO2+
188.07	6	C11H10NO2+
190.0862	138	C11H12NO2+
206.0812	233	C11H12NO3+
208.0971	15	C11H14NO3+
222.1125	135	C12H16NO3+
222.1344	6	
224.0922	9	C11H14NO4+
236.0917	500	C12H14NO4+
250.1074	999	C13H16NO4+
268.1182	10	C13H18NO5+
278.1023	682	C14H16NO5+
296.1129	253	C14H18NO6+
