Mass spectrum: Irbesartan; LC-ESI-ITFT; MS2; CE: 75%; R=7500; [M+H]+
Name: Irbesartan
Name: 8-butyl-7-[4-[2-(2H-tetrazol-5-yl)phenyl]benzyl]-7,9-diazaspiro[4.4]non-8-en-6-one
Formula: C25H28N6O
Exact mass: 428.2325
SMILES: C12(C(N(Cc3ccc(c4c(c5[nH]nnn5)cccc4)cc3)C(=N1)CCCC)=O)CCCC2
InChI: InChI=1S/C25H28N6O/c1-2-3-10-22-26-25(15-6-7-16-25)24(32)31(22)17-18-11-13-19(14-12-18)20-8-4-5-9-21(20)23-27-29-30-28-23/h4-5,8-9,11-14H,2-3,6-7,10,15-17H2,1H3,(H,27,28,29,30)
Instrument: LTQ Orbitrap XL Thermo Scientific
Instrument type: LC-ESI-ITFT
Ms type: MS2
Ion mode: POSITIVE
Ionization: ESI
Fragmentation mode: HCD
Collision energy: 75 % (nominal)
Resolution: 7500
Column name: XBridge C18 3.5um, 2.1x50mm, Waters
Retention time: 9.2 min
Base peak: 429.2411
Precursor m/z: 429.2397
Precursor type: [M+H]+
m/z	relative intensity	assigned
67.0541	25	C5H7+
77.0386	47	C6H5+
79.0542	40	C6H7+
80.0495	53	C5H6N+
84.0807	353	C5H10N+
104.0496	9	C7H6N+
105.0449	12	C6H5N2+
129.0448	27	C8H5N2+
140.0496	29	C10H6N+
151.054	66	C12H7+
152.0618	159	C12H8+
153.0697	182	C12H9+
154.0649	20	C11H8N+
163.054	38	C13H7+
165.0697	190	C13H9+
166.0649	57	C12H8N+
166.0772	35	C13H10+
167.0728	90	C12H9N+
167.154	12	C10H19N2+
169.0653	16	C12H9O+
177.0574	29	C13H7N+
178.065	175	C13H8N+
179.0726	192	C13H9N+
180.0806	999	C13H10N+
181.0753	31	C12H9N2+
182.0597	11	C12H8NO+
190.0649	358	C14H8N+
191.072	47	C14H9N+
194.0601	62	C13H8NO+
195.149	15	C11H19N2O+
196.0757	57	C13H10NO+
205.0759	712	C14H9N2+
206.0836	592	C14H10N2+
207.0914	688	C14H11N2+
208.0759	42	C14H10NO+
