Mass spectrum: Antipyrine; LC-ESI-ITFT; MS2; CE: 90%; R=7500; [M+H]+
Name: Antipyrine
Name: Phenazone
Name: 1,5-dimethyl-2-phenyl-3-pyrazolone
Formula: C11H12N2O
Exact mass: 188.0950
SMILES: CN1N(C(=O)C=C1C)C2=CC=CC=C2
InChI: InChI=1S/C11H12N2O/c1-9-8-11(14)13(12(9)2)10-6-4-3-5-7-10/h3-8H,1-2H3
Instrument: LTQ Orbitrap XL Thermo Scientific
Instrument type: LC-ESI-ITFT
Ms type: MS2
Ion mode: POSITIVE
Ionization: ESI
Fragmentation mode: HCD
Collision energy: 90 % (nominal)
Resolution: 7500
Column name: XBridge C18 3.5um, 2.1x50mm, Waters
Retention time: 4.6 min
Base peak: 189.1027
Precursor m/z: 189.1022
Precursor type: [M+H]+
m/z	relative intensity	assigned
53.0387	25	C4H5+
56.0494	894	C3H6N+
58.0651	449	C3H8N+
65.0386	202	C5H5+
68.0496	23	C4H6N+
69.0572	34	C4H7N+
70.0654	27	C4H8N+
77.0386	539	C6H5+
78.0466	24	C6H6+
79.0542	95	C6H7+
81.0448	120	C4H5N2+
91.0543	250	C7H7+
92.0493	79	C6H6N+
93.0568	33	C6H7N+
94.0652	60	C6H8N+
95.0488	50	C6H7O+
95.0604	123	C5H7N2+
96.0681	168	C5H8N2+
98.06	209	C5H8NO+
103.0543	163	C8H7+
104.0495	835	C7H6N+
105.0336	31	C7H5O+
105.0447	158	C6H5N2+
105.0571	48	C7H7N+
105.0697	62	C8H9+
106.0651	999	C7H8N+
115.0541	158	C9H7+
117.0574	170	C8H7N+
117.0698	303	C9H9+
118.0652	326	C8H8N+
120.0807	260	C8H10N+
129.0573	86	C9H7N+
130.065	455	C9H8N+
131.0603	207	C8H7N2+
131.0729	314	C9H9N+
132.0439	23	C8H6NO+
132.0684	140	C8H8N2+
132.081	124	C9H10N+
133.0522	82	C8H7NO+
133.0765	18	C8H9N2+
134.0963	32	C9H12N+
143.0731	55	C10H9N+
144.0808	242	C10H10N+
145.0644	82	C10H9O+
145.076	207	C9H9N2+
145.0884	25	C10H11N+
146.0836	224	C9H10N2+
146.0971	22	C10H12N+
147.0916	453	C9H11N2+
149.0711	45	C8H9N2O+
155.0602	17	C10H7N2+
157.0516	50	C10H7NO+
159.0554	46	C9H7N2O+
159.0915	27	C10H11N2+
161.1075	59	C10H13N2+
173.0713	46	C10H9N2O+
174.0786	181	C10H10N2O+
