Mass spectrum: Demeton-S-Methyl Sulfone; LC-ESI-QFT; MS2; CE: 120%; R=17500; [M+H]+
Name: Demeton-S-Methyl Sulfone
Name: Demeton-S-methylsulphon
Name: 1-dimethoxyphosphorylsulfanyl-2-ethylsulfonylethane
Formula: C6H15O5PS2
Exact mass: 262.0099
SMILES: CCS(=O)(=O)CCSP(=O)(OC)OC
InChI: InChI=1S/C6H15O5PS2/c1-4-14(8,9)6-5-13-12(7,10-2)11-3/h4-6H2,1-3H3
Instrument: Exploris 240 Orbitrap Thermo Scientific
Instrument type: LC-ESI-QFT
Ms type: MS2
Ion mode: POSITIVE
Ionization: ESI
Fragmentation mode: HCD
Collision energy: 120 % (nominal)
Resolution: 17500
Column name: XBridge C18 3.5um, 2.1x50mm, Waters
Retention time: 2.945 min
Base peak: 263.0169
Precursor m/z: 263.0171
Precursor type: [M+H]+
m/z	relative intensity	assigned
58.995	94	C2H3S+
64.9694	57	HO2S+
64.9786	31	H2O2P+
74.9899	22	C2H3OS+
78.9943	999	CH4O2P+
80.9465	48	HOS2+
109.0048	288	C2H6O3P+
110.9666	51	CH4O2PS+
124.9825	78	C2H6O2PS+
127.0154	584	C2H8O4P+
