Mass spectrum: Tebutam; LC-ESI-ITFT; MS2; CE: 35%; R=7500; [M+H]+
Name: Tebutam
Name: 2,2-dimethyl-N-(phenylmethyl)-N-propan-2-yl-propanamide
Name: N-Benzyl-N-isopropylpivalamide
Formula: C15H23NO
Exact mass: 233.1774
SMILES: c1ccccc1CN(C(=O)C(C)(C)C)C(C)C
InChI: InChI=1S/C15H23NO/c1-12(2)16(14(17)15(3,4)5)11-13-9-7-6-8-10-13/h6-10,12H,11H2,1-5H3
Instrument: LTQ Orbitrap XL Thermo Scientific
Instrument type: LC-ESI-ITFT
Ms type: MS2
Ion mode: POSITIVE
Ionization: ESI
Fragmentation mode: CID
Collision energy: 35 % (nominal)
Resolution: 7500
Column name: XBridge C18 3.5um, 2.1x50mm, Waters
Retention time: 11.7 min
Base peak: 234.1857
Precursor m/z: 234.1852
Precursor type: [M+H]+
m/z	relative intensity	assigned
57.0698	62	C4H9+
84.0808	84	C5H10N+
85.0649	3	C5H9O+
91.0543	999	C7H7+
105.0698	9	C8H9+
114.0914	53	C6H12NO+
126.1277	73	C8H16N+
133.1012	45	C10H13+
142.1227	503	C8H16NO+
156.1383	38	C9H18NO+
192.1384	766	C12H18NO+
