Mass spectrum: Diaveridine; LC-ESI-QFT; MS2; CE: 120; R=35000; [M+H]+
Name: Diaveridine
Name: 5-[(3,4-dimethoxyphenyl)methyl]pyrimidine-2,4-diamine
Formula: C13H16N4O2
Exact mass: 260.12733
SMILES: COC1=C(C=C(C=C1)CC2=CN=C(N=C2N)N)OC
InChI: InChI=1S/C13H16N4O2/c1-18-10-4-3-8(6-11(10)19-2)5-9-7-16-13(15)17-12(9)14/h3-4,6-7H,5H2,1-2H3,(H4,14,15,16,17)
Instrument: Q Exactive Plus Orbitrap Thermo Scientific
Instrument type: LC-ESI-QFT
Ms type: MS2
Ion mode: POSITIVE
Ionization: ESI
Fragmentation mode: HCD
Collision energy: 120 (nominal)
Resolution: 35000
Column name: XBridge C18 3.5um, 2.1x50mm, Waters
Retention time: 3.4 min
Base peak: 261.1339
Precursor m/z: 261.1346
Precursor type: [M+H]+
m/z	relative intensity	assigned
50.0151	2	C4H2+
51.0229	2	C4H3+
52.0182	27	C3H2N+
53.0134	2	C2HN2+
53.0386	14	C4H5+
54.0339	252	C3H4N+
55.0178	5	C3H3O+
55.0417	4	C3H5N+
56.0369	2	C2H4N2+
56.0495	2	C3H6N+
60.0556	8	CH6N3+
63.0229	3	C5H3+
65.0385	10	C5H5+
66.0212	1	C3H2N2+
67.029	3	C3H3N2+
67.0542	1	C5H7+
68.0243	5	C2H2N3+
68.0369	74	C3H4N2+
69.0447	16	C3H5N2+
70.0399	8	C2H4N3+
72.0317	4	C2H4N2O+
77.0385	32	C6H5+
78.0464	7	C6H6+
79.0291	62	C4H3N2+
79.0542	49	C6H7+
80.0369	2	C4H4N2+
80.0494	2	C5H6N+
80.0619	2	C6H8+
81.0447	999	C4H5N2+
82.0525	6	C4H6N2+
83.0477	36	C3H5N3+
84.0556	1	C3H6N3+
86.0587	2	C2H6N4+
89.0386	28	C7H5+
90.0464	6	C7H6+
91.0542	27	C7H7+
92.0494	3	C6H6N+
93.0336	1	C6H5O+
93.0573	2	C6H7N+
94.0401	3	C4H4N3+
95.0492	57	C6H7O+
96.0443	1	C5H6NO+
96.0556	14	C4H6N3+
97.0634	6	C4H7N3+
98.0349	1	C3H4N3O+
101.0385	3	C8H5+
102.0464	10	C8H6+
103.0542	114	C8H7+
104.0494	17	C7H6N+
105.0335	19	C7H5O+
105.0447	34	C6H5N2+
105.0698	4	C8H9+
106.04	94	C5H4N3+
106.0651	11	C7H8N+
107.0492	185	C7H7O+
108.0568	5	C7H8O+
109.0285	2	C6H5O2+
109.0509	43	C4H5N4+
110.0587	65	C4H6N4+
111.0665	15	C4H7N4+
113.0386	5	C9H5+
114.0338	3	C8H4N+
114.0463	1	C9H6+
115.0543	16	C9H7+
116.0495	46	C8H6N+
117.0447	1	C7H5N2+
117.0572	13	C8H7N+
118.0414	2	C8H6O+
118.0526	5	C7H6N2+
118.0651	27	C8H8N+
119.0494	5	C8H7O+
119.0605	5	C7H7N2+
120.0443	4	C7H6NO+
120.0808	3	C8H10N+
122.0602	1	C7H8NO+
123.0665	317	C5H7N4+
124.0744	31	C5H8N4+
127.0417	3	C9H5N+
128.0495	94	C9H6N+
129.0334	3	C9H5O+
129.0447	14	C8H5N2+
129.0573	4	C9H7N+
130.0652	79	C9H8N+
131.0492	110	C9H7O+
131.0602	22	C8H7N2+
132.0444	13	C8H6NO+
132.0567	5	C9H8O+
132.0682	3	C8H8N2+
133.0285	6	C8H5O2+
133.0524	7	C8H7NO+
133.0639	5	C7H7N3+
133.076	11	C8H9N2+
134.06	13	C8H8NO+
134.0712	2	C7H8N3+
135.044	38	C8H7O2+
135.0553	2	C7H7N2O+
135.0666	7	C6H7N4+
140.0495	52	C10H6N+
141.0447	5	C9H5N2+
141.0574	4	C10H7N+
142.0527	5	C9H6N2+
142.0652	1	C10H8N+
143.0604	28	C9H7N2+
144.0444	8	C9H6NO+
144.0558	7	C8H6N3+
144.0681	2	C9H8N2+
145.0521	3	C9H7NO+
145.0761	45	C9H9N2+
146.06	34	C9H8NO+
146.0714	3	C8H8N3+
146.084	2	C9H10N2+
147.0665	10	C7H7N4+
148.0394	6	C8H6NO2+
148.0747	12	C7H8N4+
150.055	4	C8H8NO2+
151.0389	15	C8H7O3+
151.0752	4	C9H11O2+
153.0447	9	C10H5N2+
155.0604	40	C10H7N2+
156.0444	56	C10H6NO+
156.0553	2	C9H6N3+
157.0522	4	C10H7NO+
157.0636	3	C9H7N3+
157.0761	4	C10H9N2+
158.0474	2	C9H6N2O+
158.0601	25	C10H8NO+
158.071	11	C9H8N3+
159.0442	6	C10H7O2+
159.0553	6	C9H7N2O+
159.0675	11	C10H9NO+
160.0743	6	C8H8N4+
160.0869	3	C9H10N3+
161.0822	20	C8H9N4+
162.0901	1	C8H10N4+
168.0557	5	C10H6N3+
169.0634	1	C10H7N3+
170.0713	42	C10H8N3+
171.0553	22	C10H7N2O+
171.0669	1	C9H7N4+
171.0791	11	C10H9N3+
172.0744	31	C9H8N4+
172.0865	13	C10H10N3+
173.071	19	C10H9N2O+
173.0822	11	C9H9N4+
174.0551	2	C10H8NO2+
174.0788	3	C10H10N2O+
174.0899	3	C9H10N4+
175.039	2	C10H7O3+
175.0863	1	C10H11N2O+
175.0978	7	C9H11N4+
176.0697	4	C8H8N4O+
180.0555	1	C11H6N3+
181.0634	4	C11H7N3+
182.0714	9	C11H8N3+
183.0557	7	C11H7N2O+
183.0794	4	C11H9N3+
184.0394	2	C11H6NO2+
184.0631	1	C11H8N2O+
184.0745	3	C10H8N4+
185.0822	20	C10H9N4+
186.0664	5	C10H8N3O+
186.0901	10	C10H10N4+
187.0979	64	C10H11N4+
188.0815	2	C10H10N3O+
197.0824	6	C11H9N4+
198.0665	7	C11H8N3O+
198.0902	1	C11H10N4+
199.0739	8	C11H9N3O+
199.098	7	C11H11N4+
200.0816	6	C11H10N3O+
201.066	9	C11H9N2O2+
203.0926	5	C10H11N4O+
213.0773	6	C11H9N4O+
214.0851	7	C11H10N4O+
215.0928	14	C11H11N4O+
226.0609	1	C12H8N3O2+
243.088	8	C12H11N4O2+
245.1038	7	C12H13N4O2+
