Mass spectrum: MCLY; LC-ESI-QFT; MS2; CE: 15%; R=17500; [M+H]+
Name: MCLY
Name: Microcystin LY
Name: (5R,8S,11R,12S,15S,18S,19S,22R)-15-[(4-hydroxyphenyl)methyl]-18-[(1E,3E,5S,6S)-6-methoxy-3,5-dimethyl-7-phenylhepta-1,3-dienyl]-1,5,12,19-tetramethyl-2-methylidene-8-(2-methylpropyl)-3,6,9,13,16,20,25-heptaoxo-1,4,7,10,14,17,21-heptazacyclopentacosane-11,22-dicarboxylic acid
Class: NA
Formula: C52H71N7O13
Exact mass: 1001.5110
SMILES: COC(Cc1ccccc1)C(C)\C=C(C)\C=C/C2NC(=O)C(Cc3ccc(O)cc3)NC(=O)C(C)C(NC(=O)C(CC(C)C)NC(=O)C(C)NC(=O)C(=C)N(C)C(=O)CCC(NC(=O)C2C)C(O)=O)C(O)=O
InChI: InChI=1S/C52H71N7O13/c1-28(2)24-40-50(67)58-44(52(70)71)32(6)46(63)56-41(26-36-17-19-37(60)20-18-36)49(66)54-38(21-16-29(3)25-30(4)42(72-10)27-35-14-12-11-13-15-35)31(5)45(62)55-39(51(68)69)22-23-43(61)59(9)34(8)48(65)53-33(7)47(64)57-40/h11-21,25,28,30-33,38-42,44,60H,8,22-24,26-27H2,1-7,9-10H3,(H,53,65)(H,54,66)(H,55,62)(H,56,63)(H,57,64)(H,58,67)(H,68,69)(H,70,71)/b21-16-,29-25+
Instrument: Q Exactive Plus Orbitrap Thermo Scientific
Instrument type: LC-ESI-QFT
Ms type: MS2
Ion mode: POSITIVE
Ionization: ESI
Fragmentation mode: HCD
Collision energy: 15 % (nominal)
Resolution: 17500
Column name: XBridge C18 3.5um, 2.1x50mm, Waters
Retention time: 10.738 min
Base peak: 164.9846
Precursor m/z: 1002.5183
Precursor type: [M+H]+
m/z	relative intensity	assigned
135.0803	24	C9H11O+
135.1169	3	C10H15+
143.0848	4	C11H11+
163.1118	59	C11H15O+
175.1108	3	C10H13N3+
195.0766	38	C9H11N2O3+
213.0871	44	C9H13N2O4+
218.1536	5	C14H20NO+
226.1595	7	C2H22N6O6+
237.1638	11	C18H21+
258.1855	129	C17H24NO+
265.1182	38	C13H17N2O4+
268.1652	19	C13H22N3O3+
292.1555	16	C17H18N5+
293.1132	14	C14H17N2O5+
297.1849	52	C20H25O2+
310.1391	101	C14H20N3O5+
314.2116	11	C20H28NO2+
320.2005	6	C22H26NO+
352.2259	4	C21H28N4O+
357.1819	6	C21H21N6+
375.1914	380	C20H27N2O5+
394.2019	7	C10H30N6O10+
397.2078	41	C18H29N4O6+
406.1968	14	C20H28N3O6+
423.2243	197	C20H31N4O6+
426.2269	22	C25H32NO5+
443.2529	3	C23H33N5O4+
446.2285	201	C23H32N3O6+
449.2404	35	C24H35NO7+
476.2501	58	C37H32+
477.236	202	C25H35NO8+
481.2695	7	C28H37N2O5+
494.2609	823	C23H36N5O7+
508.2384	24	C35H30N3O+
509.2647	305	C29H37N2O6+
532.2768	40	C26H38N5O7+
548.2753	33	C31H38N3O6+
559.311	402	C41H39N2+
560.2712	353	C41H36O2+
577.2979	405	C27H41N6O8+
580.3018	180	C32H42N3O7+
596.3078	25	C31H42N5O7+
601.2875	11	C32H43NO10+
656.3653	9	C34H50N5O8+
660.335	8	C31H46N7O9+
661.3588	39	C36H53O11+
675.3768	11	C40H53NO8+
679.346	11	C37H49N3O9+
683.3758	31	C49H49NO2+
688.3376	80	C42H46N3O6+
689.314	68	C32H45N6O11+
693.3859	216	C38H53N4O8+
734.41	35	C37H58N4O11+
750.3657	7	C48H50N2O6+
772.3509	52	C50H48N2O6+
785.4264	7	C47H61O10+
804.4221	9	C48H58N3O8+
817.4489	118	C44H61N6O9+
822.4334	56	C49H56N7O5+
823.4231	91	C42H59N6O11+
833.4086	38	C43H57N6O11+
840.4524	13	C46H66NO13+
850.4337	317	C43H60N7O11+
851.418	529	C43H59N6O12+
868.4447	999	C43H62N7O12+
901.4717	26	C50H67N3O12+
924.4889	4	C52H68N4O11+
952.4812	38	C51H66N7O11+
953.4672	39	C51H65N6O12+
956.511	29	C51H70N7O11+
957.496	38	C51H69N6O12+
970.491	106	C51H68N7O12+
974.5207	16	C51H72N7O12+
984.5072	334	C52H70N7O12+
985.4917	195	C52H69N6O13+
1002.5182	777	C52H72N7O13+
