Mass spectrum: R-Deprenyl N-Oxide; LC-ESI-QFT; MS2; CE: 75; R=35000; [M+H]+
Name: R-Deprenyl N-Oxide
Name: Methyl(1-phenyl-2-propanyl)2-propyn-1-ylamine oxide
Name: N-methyl-1-phenyl-N-prop-2-ynylpropan-2-amine oxide
Formula: C13H17NO
Exact mass: 203.13101
SMILES: CC(CC1=CC=CC=C1)[N+](C)(CC#C)[O-]
InChI: InChI=1S/C13H17NO/c1-4-10-14(3,15)12(2)11-13-8-6-5-7-9-13/h1,5-9,12H,10-11H2,2-3H3
Instrument: Q Exactive Plus Orbitrap Thermo Scientific
Instrument type: LC-ESI-QFT
Ms type: MS2
Ion mode: POSITIVE
Ionization: ESI
Fragmentation mode: HCD
Collision energy: 75 (nominal)
Resolution: 35000
Column name: XBridge C18 3.5um, 2.1x50mm, Waters
Retention time: 4.9 min
Base peak: 204.1383
Precursor m/z: 204.1383
Precursor type: [M+H]+
m/z	relative intensity	assigned
65.0386	8	C5H5+
68.0495	20	C4H6N+
69.0573	3	C4H7N+
86.0601	16	C4H8NO+
91.0542	999	C7H7+
119.0855	3	C9H11+
