Mass spectrum: 2-Aminobenzothiazole; LC-ESI-QFT; MS2; CE: 90; R=35000; [M+H]+
Name: 2-Aminobenzothiazole
Name: benzo(d)thiazol-2-amine
Name: 1,3-benzothiazol-2-amine
Formula: C7H6N2S
Exact mass: 150.02517
SMILES: c1ccc2c(c1)nc(s2)N
InChI: InChI=1S/C7H6N2S/c8-7-9-5-3-1-2-4-6(5)10-7/h1-4H,(H2,8,9)
Instrument: Q Exactive Plus Orbitrap Thermo Scientific
Instrument type: LC-ESI-QFT
Ms type: MS2
Ion mode: POSITIVE
Ionization: ESI
Fragmentation mode: HCD
Collision energy: 90 (nominal)
Resolution: 35000
Column name: XBridge C18 3.5um, 2.1x50mm, Waters
Retention time: 3.1 min
Base peak: 151.0325
Precursor m/z: 151.0324
Precursor type: [M+H]+
m/z	relative intensity	assigned
53.0386	2	C4H5+
63.0229	2	C5H3+
65.0386	183	C5H5+
68.9793	13	C3HS+
77.0386	1	C6H5+
80.0495	159	C5H6N+
82.995	1	C4H3S+
90.0339	9	C6H4N+
91.0418	10	C6H5N+
92.0495	251	C6H6N+
93.0574	20	C6H7N+
95.0493	1	C6H7O+
97.0108	17	C5H5S+
108.0029	6	C6H4S+
109.0108	999	C6H5S+
110.0186	2	C6H6S+
111.0263	1	C6H7S+
118.0526	118	C7H6N2+
119.0605	3	C7H7N2+
123.0139	1	C6H5NS+
124.0217	543	C6H6NS+
134.006	8	C7H4NS+
150.0247	8	C7H6N2S+
151.0326	726	C7H7N2S+
