Mass spectrum: Propachlor; LC-ESI-ITFT; MS2; CE: 15%; R=7500; [M+H]+
Name: Propachlor
Name: 2-chloranyl-N-phenyl-N-propan-2-yl-ethanamide
Formula: C11H14ClNO
Exact mass: 211.0758
SMILES: CC(C)N(C(=O)CCl)c1ccccc1
InChI: InChI=1S/C11H14ClNO/c1-9(2)13(11(14)8-12)10-6-4-3-5-7-10/h3-7,9H,8H2,1-2H3
Instrument: LTQ Orbitrap XL Thermo Scientific
Instrument type: LC-ESI-ITFT
Ms type: MS2
Ion mode: POSITIVE
Ionization: ESI
Fragmentation mode: HCD
Collision energy: 15 % (nominal)
Resolution: 7500
Column name: XBridge C18 3.5um, 2.1x50mm, Waters
Retention time: 8.6 min
Base peak: 212.0841
Precursor m/z: 212.0837
Precursor type: [M+H]+
m/z	relative intensity	assigned
152.025	1	C11H4O+
170.0372	104	C8H9ClNO+
212.0838	999	C11H15ClNO+
