Mass spectrum: Glycyrrhetinic Acid; LC-ESI-QFT; MS2; CE: 75; R=35000; [M+H]+
Name: Glycyrrhetinic Acid
Name: 18-beta-Glycyrrhetin acid
Name: (2S,4aS,6aR,6aS,6bR,8aR,10S,12aS,14bR)-10-hydroxy-2,4a,6a,6b,9,9,12a-heptamethyl-13-oxo-3,4,5,6,6a,7,8,8a,10,11,12,14b-dodecahydro-1H-picene-2-carboxylic acid
Formula: C30H46O4
Exact mass: 470.33961
SMILES: C[C@]1([C@H](CC[C@]2([C@H]1CC[C@@]3([C@@H]2C(=O)C=C4[C@]3(CC[C@@]5([C@H]4C[C@](CC5)(C(=O)O)C)C)C)C)C)O)C
InChI: InChI=1S/C30H46O4/c1-25(2)21-8-11-30(7)23(28(21,5)10-9-22(25)32)20(31)16-18-19-17-27(4,24(33)34)13-12-26(19,3)14-15-29(18,30)6/h16,19,21-23,32H,8-15,17H2,1-7H3,(H,33,34)/t19-,21-,22-,23+,26+,27-,28-,29+,30+/m0/s1
Instrument: Q Exactive Plus Orbitrap Thermo Scientific
Instrument type: LC-ESI-QFT
Ms type: MS2
Ion mode: POSITIVE
Ionization: ESI
Fragmentation mode: HCD
Collision energy: 75 (nominal)
Resolution: 35000
Column name: XBridge C18 3.5um, 2.1x50mm, Waters
Retention time: 16.9 min
Base peak: 471.3465
Precursor m/z: 471.3469
Precursor type: [M+H]+
m/z	relative intensity	assigned
50.015	2	C4H2+
51.0228	3	C4H3+
52.0305	1	C4H4+
53.0022	22	C3HO+
53.0386	46	C4H5+
55.0179	24	C3H3O+
55.0543	326	C4H7+
57.0335	33	C3H5O+
57.0699	55	C4H9+
59.0492	25	C3H7O+
63.0229	2	C5H3+
65.0386	57	C5H5+
66.0464	2	C5H6+
67.0542	504	C5H7+
67.9892	4	C3O2+
69.0335	115	C4H5O+
69.0699	255	C5H9+
71.0491	22	C4H7O+
71.0856	2	C5H11+
73.0648	6	C4H9O+
77.0385	34	C6H5+
78.0463	2	C6H6+
79.0542	507	C6H7+
80.062	2	C6H8+
81.0699	778	C6H9+
83.0491	214	C5H7O+
83.0855	80	C6H11+
85.0648	16	C5H9O+
91.0543	599	C7H7+
92.0621	4	C7H8+
93.0699	881	C7H9+
94.0412	2	C6H6O+
94.0778	3	C7H10+
95.0492	144	C6H7O+
95.0855	963	C7H11+
97.0648	84	C6H9O+
97.1012	27	C7H13+
99.0804	3	C6H11O+
103.0542	38	C8H7+
104.062	7	C8H8+
105.0448	45	C6H5N2+
105.0699	836	C8H9+
106.0777	16	C8H10+
107.0855	999	C8H11+
108.0567	2	C7H8O+
108.0934	2	C8H12+
109.0648	157	C7H9O+
109.1012	313	C8H13+
111.0804	56	C7H11O+
115.0542	31	C9H7+
116.0621	17	C9H8+
117.0699	114	C9H9+
118.0777	7	C9H10+
119.0856	962	C9H11+
120.0933	12	C9H12+
121.0648	156	C8H9O+
121.1012	744	C9H13+
122.0724	3	C8H10O+
123.0804	101	C8H11O+
123.1168	98	C9H15+
125.0598	3	C7H9O2+
125.0961	26	C8H13O+
128.0621	29	C10H8+
129.0699	72	C10H9+
130.0778	33	C10H10+
131.0856	280	C10H11+
132.0934	8	C10H12+
133.0649	24	C9H9O+
133.1012	484	C10H13+
134.0726	4	C9H10O+
134.1087	3	C10H14+
135.0805	409	C9H11O+
135.1168	197	C10H15+
137.0961	40	C9H13O+
137.1326	13	C10H17+
139.0753	2	C8H11O2+
139.1118	31	C9H15O+
141.0699	16	C11H9+
142.0778	66	C11H10+
143.0856	136	C11H11+
144.0934	49	C11H12+
145.1012	283	C11H13+
146.0727	7	C10H10O+
146.109	14	C11H14+
147.0805	48	C10H11O+
147.1168	216	C11H15+
149.0962	541	C10H13O+
151.1117	15	C10H15O+
153.0699	8	C12H9+
153.1275	2	C10H17O+
154.0775	4	C12H10+
155.0855	51	C12H11+
156.0934	62	C12H12+
157.1012	165	C12H13+
158.0729	2	C11H10O+
158.1091	50	C12H14+
159.0805	41	C11H11O+
159.1169	192	C12H15+
160.0882	14	C11H12O+
160.1246	20	C12H16+
161.0961	66	C11H13O+
161.1326	86	C12H17+
163.1117	41	C11H15O+
163.1482	7	C12H19+
167.0855	13	C13H11+
168.0933	14	C13H12+
169.1012	76	C13H13+
170.109	24	C13H14+
171.1168	111	C13H15+
172.0882	8	C12H12O+
172.1248	12	C13H16+
173.0961	33	C12H13O+
173.1326	189	C13H17+
174.1037	2	C12H14O+
174.1403	9	C13H18+
175.1118	38	C12H15O+
175.1481	83	C13H19+
177.1276	10	C12H17O+
179.0859	8	C14H11+
181.101	23	C14H13+
182.1089	38	C14H14+
183.117	54	C14H15+
184.1247	26	C14H16+
185.0963	6	C13H13O+
185.1325	35	C14H17+
186.1037	3	C13H14O+
186.1407	3	C14H18+
187.112	15	C13H15O+
187.1481	48	C14H19+
189.1276	14	C13H17O+
189.1639	66	C14H21+
191.1429	8	C13H19O+
193.1008	3	C15H13+
194.1089	3	C15H14+
195.1171	21	C15H15+
196.1247	20	C15H16+
197.1326	65	C15H17+
198.1403	11	C15H18+
199.1117	3	C14H15O+
199.1481	60	C15H19+
200.1196	8	C14H16O+
201.1276	16	C14H17O+
201.1638	14	C15H21+
203.1429	3	C14H19O+
205.1218	2	C13H17O2+
209.1326	19	C16H17+
210.1402	6	C16H18+
211.1483	38	C16H19+
212.1558	2	C16H20+
213.1272	2	C15H17O+
213.1636	25	C16H21+
215.1431	32	C15H19O+
215.1789	3	C16H23+
217.1586	4	C15H21O+
223.148	11	C17H19+
224.156	4	C17H20+
225.1638	12	C17H21+
227.1431	3	C16H19O+
227.1792	9	C17H23+
229.1588	6	C16H21O+
229.1957	2	C17H25+
237.1639	9	C18H21+
238.1715	7	C18H22+
239.1787	7	C18H23+
243.1373	2	C16H19O2+
243.1751	2	C17H23O+
251.1798	3	C19H23+
253.1952	4	C19H25+
261.1491	2	C16H21O3+
