Mass spectrum: Dichlofluanid; LC-ESI-QFT; MS2; CE: 60; R=35000; [M+H]+
Name: Dichlofluanid
Name: 1,1-dichloro-N-(dimethylsulfamoyl)-1-fluoro-N-phenylmethanesulfenamide
Formula: C9H11Cl2FN2O2S2
Exact mass: 331.96230
SMILES: N(c1ccccc1)(S(N(C)C)(=O)=O)SC(F)(Cl)Cl
InChI: InChI=1S/C9H11Cl2FN2O2S2/c1-13(2)18(15,16)14(17-9(10,11)12)8-6-4-3-5-7-8/h3-7H,1-2H3
Instrument: Q Exactive Orbitrap Thermo Scientific
Instrument type: LC-ESI-QFT
Ms type: MS2
Ion mode: POSITIVE
Ionization: ESI
Fragmentation mode: HCD
Collision energy: 60 (nominal)
Resolution: 35000
Column name: XBridge C18 3.5um, 2.1x50mm, Waters
Retention time: 11.6 min
Base peak: 223.9499
Precursor m/z: 332.9696
Precursor type: [M+H]+
m/z	relative intensity	assigned
77.0383	5	C6H5+
92.0164	3	C2H6NOS+
95.0491	16	C6H7O+
96.0028	9	C5H4S+
97.0107	1	C5H5S+
98.9842	4	CH4ClO3+
105.0448	4	C6H5N2+
110.0165	2	C3H6ClFN+
120.0807	2	C8H10N+
121.0887	4	C8H11N+
122.0059	7	C6H4NS+
123.0137	999	C6H5NS+
125.9871	5	C3H6Cl2N+
153.0041	2	C7H4FNS+
