Mass spectrum: Heptenophos; LC-ESI-QFT; MS2; CE: 60; R=35000; [M-H]-
Name: Heptenophos
Name: (6-chloranyl-7-bicyclo[3.2.0]hepta-3,6-dienyl) dimethyl phosphate
Name: Ragadan
Formula: C9H12ClO4P
Exact mass: 250.01617
SMILES: COP(=O)(OC)OC1=C(Cl)C2C=CCC12
InChI: InChI=1S/C9H12ClO4P/c1-12-15(11,13-2)14-9-7-5-3-4-6(7)8(9)10/h3-4,6-7H,5H2,1-2H3
Instrument: Q Exactive Orbitrap Thermo Scientific
Instrument type: LC-ESI-QFT
Ms type: MS2
Ion mode: NEGATIVE
Ionization: ESI
Fragmentation mode: HCD
Collision energy: 60 (nominal)
Resolution: 35000
Column name: XBridge C18 3.5um, 2.1x50mm, Waters
Retention time: 9.3 min
Base peak: 218.0311
Precursor m/z: 249.0089
Precursor type: [M-H]-
m/z	relative intensity	assigned
78.9591	29	O3P-
93.0347	136	C6H5O-
130.0172	34	C7H2N2O-
131.0136	999	C8H3O2-
175.0204	96	C6H9ClN2P-
203.0347	39	C7H10NO4P-
231.0299	39	C8H10NO5P-
