Mass spectrum: Aliskiren; LC-ESI-QFT; MS2; CE: 75; R=35000; [M-H]-
Name: Aliskiren
Name: (2S,4S,5S,7S)-5-amino-N-(3-amino-2,2-dimethyl-3-oxopropyl)-4-hydroxy-7-[[4-methoxy-3-(3-methoxypropoxy)phenyl]methyl]-8-methyl-2-propan-2-ylnonanamide
Formula: C30H53N3O6
Exact mass: 551.39344
SMILES: COCCCOC1=C(OC)C=CC(C[C@@H](C[C@H](N)[C@@H](O)C[C@@H](C(C)C)C(=O)NCC(C)(C)C(N)=O)C(C)C)=C1
InChI: InChI=1S/C30H53N3O6/c1-19(2)22(14-21-10-11-26(38-8)27(15-21)39-13-9-12-37-7)16-24(31)25(34)17-23(20(3)4)28(35)33-18-30(5,6)29(32)36/h10-11,15,19-20,22-25,34H,9,12-14,16-18,31H2,1-8H3,(H2,32,36)(H,33,35)/t22-,23-,24-,25-/m0/s1
Instrument: Q Exactive Orbitrap Thermo Scientific
Instrument type: LC-ESI-QFT
Ms type: MS2
Ion mode: NEGATIVE
Ionization: ESI
Fragmentation mode: HCD
Collision energy: 75 (nominal)
Resolution: 35000
Column name: XBridge C18 3.5um, 2.1x50mm, Waters
Retention time: 9.6 min
Base peak: 596.3925
Precursor m/z: 550.3862
Precursor type: [M-H]-
m/z	relative intensity	assigned
84.0455	77	C4H6NO-
86.0612	529	C4H8NO-
93.0347	90	C6H5O-
94.0302	4	C5H4NO-
107.0502	9	C7H7O-
109.0294	6	C6H5O2-
114.0926	30	C6H12NO-
115.0878	50	C5H11N2O-
121.0296	999	C7H5O2-
122.0374	89	C7H6O2-
124.0768	11	C7H10NO-
126.0926	5	C7H12NO-
134.0371	7	C8H6O2-
135.0453	57	C8H7O2-
138.0926	11	C8H12NO-
140.0716	6	C7H10NO2-
147.0451	25	C9H7O2-
148.0531	79	C9H8O2-
149.0605	5	C9H9O2-
154.027	9	C7H6O4-
161.0609	25	C10H9O2-
162.0688	25	C10H10O2-
163.0764	10	C10H11O2-
176.0844	22	C11H12O2-
177.092	131	C11H13O2-
178.0876	8	C10H12NO2-
194.0949	9	C11H14O3-
195.1504	21	C11H19N2O-
206.0822	5	C11H12NO3-
226.0849	8	C11H14O5-
243.1401	8	C16H19O2-
260.1654	38	C16H22NO2-
286.1451	6	C17H20NO3-
286.1927	5	C19H26O2-
301.2187	5	C20H29O2-
304.1548	9	C17H22NO4-
