Mass spectrum: Amisulpride; LC-ESI-ITFT; MS2; CE: 90%; R=30000; [M+H]+
Name: Amisulpride
Name: 4-amino-5-esyl-N-[(1-ethylpyrrolidin-2-yl)methyl]-2-methoxy-benzamide
Formula: C17H27N3O4S
Exact mass: 369.1722
SMILES: CCN1CCCC1CNC(=O)C2=CC(=C(C=C2OC)N)S(=O)(=O)CC
InChI: InChI=1S/C17H27N3O4S/c1-4-20-8-6-7-12(20)11-19-17(21)13-9-16(25(22,23)5-2)14(18)10-15(13)24-3/h9-10,12H,4-8,11,18H2,1-3H3,(H,19,21)
Instrument: LTQ Orbitrap XL Thermo Scientific
Instrument type: LC-ESI-ITFT
Ms type: MS2
Ion mode: POSITIVE
Ionization: ESI
Fragmentation mode: HCD
Collision energy: 90 % (nominal)
Resolution: 30000
Column name: XBridge C18 3.5um, 2.1x50mm, Waters
Retention time: 3.8 min
Base peak: 370.1806
Precursor m/z: 370.1795
Precursor type: [M+H]+
m/z	relative intensity	assigned
54.0338	10	C3H4N+
58.0651	15	C3H8N+
66.0338	12	C4H4N+
66.0464	150	C5H6+
67.0417	14	C4H5N+
69.0574	5	C4H7N+
78.0339	13	C5H4N+
82.9951	12	C4H3S+
84.0808	158	C5H10N+
85.0107	25	C4H5S+
91.0417	21	C6H5N+
92.0495	27	C6H6N+
93.0573	39	C6H7N+
94.0287	10	C5H4NO+
94.0413	14	C6H6O+
95.0366	20	C5H5NO+
96.0444	35	C5H6NO+
97.0522	15	C5H7NO+
98.0965	35	C6H12N+
107.0127	26	C6H3O2+
107.0366	24	C6H5NO+
107.9902	54	C5H2NS+
108.0444	49	C6H6NO+
110.0059	67	C5H4NS+
110.0965	12	C7H12N+
112.0216	17	C5H6NS+
112.1121	235	C7H14N+
113.0056	13	C5H5OS+
120.0444	49	C7H6NO+
121.0522	83	C7H7NO+
122.0059	15	C6H4NS+
122.0363	103	C7H6O2+
124.0393	53	C6H6NO2+
124.9931	24	C5H3NOS+
132.008	142	C7H2NO2+
135.0315	11	C7H5NO2+
136.0393	12	C7H6NO2+
138.0009	28	C6H4NOS+
138.0186	57	C6H4NO3+
140.0165	123	C6H6NOS+
147.0315	250	C8H5NO2+
149.0472	552	H11N3O4S+
150.0008	35	C7H4NOS+
150.055	42	C8H8NO2+
152.0342	30	C7H6NO3+
158.0274	7	C6H8NO2S+
163.0264	13	C8H5NO3+
168.0114	378	C7H6NO2S+
177.9957	147	C8H4NO2S+
196.0064	999	C8H6NO3S+
197.0142	12	C8H7NO3S+
199.0299	6	C8H9NO3S+
214.0168	51	C8H8NO4S+
242.0479	69	C10H12NO4S+
