Mass spectrum: Haloxyfop; LC-ESI-QFT; MS2; CE: 60; R=35000; [M+H]+
Name: Haloxyfop
Name: 2-[4-[3-chloro-5-(trifluoromethyl)pyridin-2-yl]oxyphenoxy]propanoic acid
Formula: C15H11ClF3NO4
Exact mass: 361.03287
SMILES: CC(C(=O)O)OC1=CC=C(C=C1)OC2=C(C=C(C=N2)C(F)(F)F)Cl
InChI: InChI=1S/C15H11ClF3NO4/c1-8(14(21)22)23-10-2-4-11(5-3-10)24-13-12(16)6-9(7-20-13)15(17,18)19/h2-8H,1H3,(H,21,22)
Instrument: Q Exactive Plus Orbitrap Thermo Scientific
Instrument type: LC-ESI-QFT
Ms type: MS2
Ion mode: POSITIVE
Ionization: ESI
Fragmentation mode: HCD
Collision energy: 60 (nominal)
Resolution: 35000
Column name: XBridge C18 3.5um, 2.1x50mm, Waters
Retention time: 13.6 min
Base peak: 391.2839
Precursor m/z: 362.0401
Precursor type: [M+H]+
m/z	relative intensity	assigned
53.0386	2	C4H5+
55.0179	10	C3H3O+
55.0543	3	C4H7+
63.023	4	C5H3+
64.0309	2	C5H4+
65.0386	187	C5H5+
67.0543	5	C5H7+
69.0335	2	C4H5O+
69.07	1	C5H9+
73.0285	7	C3H5O2+
75.0229	11	C6H3+
77.0386	2	C6H5+
79.0543	3	C6H7+
81.0336	5	C5H5O+
81.07	3	C6H9+
83.0492	1	C5H7O+
91.0543	999	C7H7+
92.0257	20	C6H4O+
92.0621	8	C7H8+
93.0336	10	C6H5O+
93.07	4	C7H9+
94.0414	11	C6H6O+
95.0492	4	C6H7O+
98.9843	4	CH4ClO3+
101.0599	1	C5H9O2+
105.0338	1	C4H8ClN+
105.0448	2	C6H5N2+
107.0494	1	C7H7O+
109.0286	17	C6H5O2+
109.0649	14	C7H9O+
111.0442	30	C6H7O2+
119.0368	4	C7H5NO+
119.0493	55	C8H7O+
119.0605	12	C7H7N2+
120.0571	17	C8H8O+
121.0285	57	C7H5O2+
121.0398	4	C6H5N2O+
121.0649	12	C8H9O+
137.0599	1	C8H9O2+
169.9742	2	C5H2ClF3O+
175.0185	6	C10H6ClN+
177.9869	2	C6H3ClF2NO+
178.0466	1	C10H6F2N+
179.9824	2	C6H2ClF3N+
181.9981	5	C6H4ClF3N+
184.0759	1	C12H10NO+
189.0389	3	C11H5F2N+
192.0213	11	C10H7ClNO+
195.006	2	C7H5ClF3N+
196.9854	1	C6H3ClF3NO+
197.993	57	C6H4ClF3NO+
198.0532	4	C10H7F3N+
199.0368	8	C7H9ClF3N+
203.0135	6	C11H6ClNO+
205.9985	4	C8H4ClF3N+
206.0414	9	C11H6F2NO+
208.0371	3	C7H11ClNO4+
209.045	48	C7H12ClNO4+
212.0086	5	C7H6ClF3NO+
212.0706	4	C13H10NO2+
216.0257	30	C12H4F2NO+
219.0061	10	C9H5ClF3N+
219.045	5	C12H8FO3+
220.014	12	C9H6ClF3N+
220.0325	2	C12H8ClFN+
221.0242	1	C11H6FO4+
222.0119	3	C11H6ClFNO+
224.0074	4	C11H5ClF2N+
224.0681	3	C12H9F3N+
225.0763	4	C12H10F3N+
226.0476	62	C11H7F3NO+
232.014	31	C10H6ClF3N+
234.0527	1	C13H7F3N+
235.0029	4	C11H6ClNO3+
235.0606	13	C13H8F3N+
237.04	24	C12H6F3NO+
238.0482	2	C12H7F3NO+
243.0058	2	C11H5ClF3N+
244.0138	9	C11H6ClF3N+
245.0217	14	C11H7ClF3N+
246.031	14	C13H9ClNO2+
247.0398	13	C13H8FO4+
248.0278	5	C13H6F2O3+
252.0027	24	C12H3F3O3+
252.0634	12	C13H9F3NO+
253.0348	1	C12H6F3NO2+
253.0713	2	C13H10F3NO+
254.0426	23	C12H7F3NO2+
260.0086	6	C11H6ClF3NO+
260.0451	18	C12H10ClF3N+
261.0166	57	C11H7ClF3NO+
268.0338	1	C13H9ClF2NO+
269.0201	3	C13H7ClF3N+
270.0294	12	C13H8ClF3N+
272.0088	578	C15H3F3O2+
274.0247	2	C12H8ClF3NO+
280.0583	3	C14H9F3NO2+
288.0037	433	C12H6ClF3NO2+
288.0388	47	C13H10ClF3NO+
289.0115	24	C12H7ClF3NO2+
290.0192	14	C12H8ClF3NO2+
298.0248	6	C14H8ClF3NO+
301.0114	1	C13H7ClF3NO2+
316.0349	11	C14H10ClF3NO2+
