Mass spectrum: Lincomycin; LC-ESI-QFT; MS2; CE: 150; R=35000; [M+H]+
Name: Lincomycin
Name: N-[2-hydroxy-1-(3,4,5-trihydroxy-6-methylsulfanyloxan-2-yl)propyl]-1-methyl-4-propylpyrrolidine-2-carboxamide
Formula: C18H34N2O6S
Exact mass: 406.21376
SMILES: CCCC1CC(N(C1)C)C(=O)NC(C2C(C(C(C(O2)SC)O)O)O)C(C)O
InChI: InChI=1S/C18H34N2O6S/c1-5-6-10-7-11(20(3)8-10)17(25)19-12(9(2)21)16-14(23)13(22)15(24)18(26-16)27-4/h9-16,18,21-24H,5-8H2,1-4H3,(H,19,25)
Instrument: Q Exactive Plus Orbitrap Thermo Scientific
Instrument type: LC-ESI-QFT
Ms type: MS2
Ion mode: POSITIVE
Ionization: ESI
Fragmentation mode: HCD
Collision energy: 150 (nominal)
Resolution: 35000
Column name: XBridge C18 3.5um, 2.1x50mm, Waters
Retention time: 3.6 min
Base peak: 407.2201
Precursor m/z: 407.221
Precursor type: [M+H]+
m/z	relative intensity	assigned
53.0022	28	C3HO+
53.0386	13	C4H5+
53.9975	9	C2NO+
54.0339	25	C3H4N+
55.0417	24	C3H5N+
55.0543	113	C4H7+
56.0495	30	C3H6N+
57.0573	18	C3H7N+
57.0698	1	C4H9+
57.9872	5	C2H2S+
58.0652	46	C3H8N+
61.0107	7	C2H5S+
65.0386	29	C5H5+
67.0417	135	C4H5N+
67.0542	64	C5H7+
68.0495	554	C4H6N+
69.0573	14	C4H7N+
69.0699	55	C5H9+
70.0651	339	C4H8N+
71.0731	1	C4H9N+
72.0806	1	C4H10N+
77.0386	1	C6H5+
78.0087	1	C3N3+
79.0542	17	C6H7+
80.0495	40	C5H6N+
81.0574	30	C5H7N+
82.0651	999	C5H8N+
83.0729	156	C5H9N+
84.0808	29	C5H10N+
91.0543	6	C7H7+
93.0699	4	C7H9+
94.0652	21	C6H8N+
95.0491	2	C6H7O+
95.0731	1	C6H9N+
95.0855	5	C7H11+
96.0808	123	C6H10N+
97.0888	10	C6H11N+
98.0964	4	C6H12N+
105.0447	5	C6H5N2+
108.0808	1	C7H10N+
124.112	9	C8H14N+
126.1278	57	C8H16N+
