Mass spectrum: Coumoxystrobin; LC-ESI-QFT; MS2; CE: 60%; R=17500; [M+H]+
Name: Coumoxystrobin
Name: methyl 2-[2-[(3-butyl-4-methyl-2-oxochromen-7-yl)oxymethyl]phenyl]-3-methoxyprop-2-enoate
Formula: C26H28O6
Exact mass: 436.1886
SMILES: CCCCC1=C(C2=C(C=C(C=C2)OCC3=CC=CC=C3C(=COC)C(=O)OC)OC1=O)C
InChI: InChI=1S/C26H28O6/c1-5-6-10-21-17(2)20-13-12-19(14-24(20)32-26(21)28)31-15-18-9-7-8-11-22(18)23(16-29-3)25(27)30-4/h7-9,11-14,16H,5-6,10,15H2,1-4H3
Instrument: Exploris 240 Orbitrap Thermo Scientific
Instrument type: LC-ESI-QFT
Ms type: MS2
Ion mode: POSITIVE
Ionization: ESI
Fragmentation mode: HCD
Collision energy: 60 % (nominal)
Resolution: 17500
Column name: XBridge C18 3.5um, 2.1x50mm, Waters
Retention time: 13.421 min
Base peak: 332.3312
Precursor m/z: 437.1959
Precursor type: [M+H]+
m/z	relative intensity	assigned
91.0542	38	C7H7+
102.0464	17	C8H6+
103.0544	16	C8H7+
115.0542	165	C9H7+
116.0621	5	C9H8+
117.0699	278	C9H9+
129.0698	13	C10H9+
130.0414	39	C9H6O+
131.0493	17	C9H7O+
131.0855	8	C10H11+
145.0648	999	C10H9O+
146.0729	47	C10H10O+
147.0802	13	C10H11O+
149.0235	6	C8H5O3+
173.0595	11	C11H9O2+
177.0906	10	C11H13O2+
317.1532	28	C22H21O2+
318.1614	7	C22H22O2+
345.1497	10	C23H21O3+
