Mass spectrum: 4-Acetamidoantipyrine; LC-ESI-ITFT; MS2; CE: 30%; R=7500; [M+H]+
Name: 4-Acetamidoantipyrine
Name: N-(1,5-dimethyl-3-oxidanylidene-2-phenyl-pyrazol-4-yl)ethanamide
Formula: C13H15N3O2
Exact mass: 245.1164
SMILES: CC(=O)NC=2C(=O)N(c1ccccc1)N(C)C=2C
InChI: InChI=1S/C13H15N3O2/c1-9-12(14-10(2)17)13(18)16(15(9)3)11-7-5-4-6-8-11/h4-8H,1-3H3,(H,14,17)
Instrument: LTQ Orbitrap XL Thermo Scientific
Instrument type: LC-ESI-ITFT
Ms type: MS2
Ion mode: POSITIVE
Ionization: ESI
Fragmentation mode: HCD
Collision energy: 30 % (nominal)
Resolution: 7500
Column name: XBridge C18 3.5um, 2.1x50mm, Waters
Retention time: 3.7 min
Base peak: 246.1244
Precursor m/z: 246.1237
Precursor type: [M+H]+
m/z	relative intensity	assigned
56.0493	13	C3H6N+
77.0386	4	C6H5+
83.0604	65	C4H7N2+
85.0762	3	C4H9N2+
94.0652	6	C6H8N+
104.0495	84	C7H6N+
111.0555	3	C5H7N2O+
159.0918	14	C10H11N2+
173.0711	8	C10H9N2O+
187.0867	26	C11H11N2O+
189.0888	2	C10H11N3O+
204.1133	440	C11H14N3O+
213.0903	4	C12H11N3O+
228.1134	999	C13H14N3O+
246.1241	378	C13H16N3O2+
