Mass spectrum: Pethoxamide; LC-ESI-ITFT; MS2; CE: 30%; R=7500; [M+H]+
Name: Pethoxamide
Name: 2-chloro-N-(2-ethoxyethyl)-N-(2-methyl-1-phenylprop-1-enyl)acetamide
Formula: C16H22ClNO2
Exact mass: 295.1334
SMILES: ClCC(=O)N(CCOCC)\C(=C(\C)C)c1ccccc1
InChI: InChI=1S/C16H22ClNO2/c1-4-20-11-10-18(15(19)12-17)16(13(2)3)14-8-6-5-7-9-14/h5-9H,4,10-12H2,1-3H3
Instrument: LTQ Orbitrap XL Thermo Scientific
Instrument type: LC-ESI-ITFT
Ms type: MS2
Ion mode: POSITIVE
Ionization: ESI
Fragmentation mode: HCD
Collision energy: 30 % (nominal)
Resolution: 7500
Column name: XBridge C18 3.5um, 2.1x50mm, Waters
Retention time: 11.5 min
Base peak: 296.1418
Precursor m/z: 296.1412
Precursor type: [M+H]+
m/z	relative intensity	assigned
73.0648	41	C4H9O+
91.0542	90	C7H7+
115.0546	4	C9H7+
116.0621	10	C9H8+
120.0209	3	C4H7ClNO+
129.0698	48	C10H9+
131.0856	977	C10H11+
134.0366	13	C5H9ClNO+
147.1045	3	C10H13N+
174.1279	9	C12H16N+
176.1067	18	C11H14NO+
219.1612	10	C14H21NO+
220.1694	71	C14H22NO+
250.0994	999	C14H17ClNO+
296.1408	392	C16H23ClNO2+
