Mass spectrum: Pirimiphos-Ethyl; LC-ESI-QFT; MS2; CE: 75%; R=17500; [M+H]+
Name: Pirimiphos-Ethyl
Name: 4-diethoxyphosphinothioyloxy-N,N-diethyl-6-methylpyrimidin-2-amine
Formula: C13H24N3O3PS
Exact mass: 333.1276
SMILES: CCN(CC)C1=NC(=CC(=N1)OP(=S)(OCC)OCC)C
InChI: InChI=1S/C13H24N3O3PS/c1-6-16(7-2)13-14-11(5)10-12(15-13)19-20(21,17-8-3)18-9-4/h10H,6-9H2,1-5H3
Instrument: Exploris 240 Orbitrap Thermo Scientific
Instrument type: LC-ESI-QFT
Ms type: MS2
Ion mode: POSITIVE
Ionization: ESI
Fragmentation mode: HCD
Collision energy: 75 % (nominal)
Resolution: 17500
Column name: XBridge C18 3.5um, 2.1x50mm, Waters
Retention time: 12.748 min
Base peak: 334.1347
Precursor m/z: 334.1349
Precursor type: [M+H]+
m/z	relative intensity	assigned
67.029	191	C3H3N2+
70.065	11	C4H8N+
71.0606	120	C3H7N2+
74.0964	23	C4H12N+
80.9737	21	H2O3P+
84.0444	253	C4H6NO+
88.0213	21	C3H6NS+
95.0605	86	C5H7N2+
96.9508	469	H2O2PS+
98.0969	21	C2H15N2P+
99.0918	574	C5H11N2+
100.0216	288	C4H6NS+
108.0557	369	C5H6N3+
109.005	29	C2H6O3P+
109.0398	64	CH8N3OP+
109.076	20	C2H12N3P+
113.0167	20	C4H5N2S+
114.9615	135	H4O3PS+
115.0321	61	C4H7N2S+
125.017	72	CH8N3PS+
136.0873	89	C7H10N3+
137.0709	85	C7H9N2O+
139.1234	56	C4H18N3P+
142.0433	242	C5H8N3S+
154.0434	18	C6H8N3S+
154.0977	348	C7H12N3O+
157.0797	55	C3H16N3PS+
168.0588	32	C7H10N3S+
170.0748	999	C7H12N3S+
182.1288	320	C9H16N3O+
196.0903	29	C9H14N3S+
198.106	604	C9H16N3S+
