Mass spectrum: Trimethoprim; LC-ESI-ITFT; MS2; CE: 45%; R=15000; [M+H]+
Name: Trimethoprim
Name: 2,4-Diamino-5-(3,4,5-trimethoxybenzyl)pyrimidine
Name: 5-[(3,4,5-trimethoxyphenyl)methyl]pyrimidine-2,4-diamine
Formula: C14H18N4O3
Exact mass: 290.1379
SMILES: c1(Cc2c(nc(N)nc2)N)cc(c(OC)c(c1)OC)OC
InChI: InChI=1S/C14H18N4O3/c1-19-10-5-8(6-11(20-2)12(10)21-3)4-9-7-17-14(16)18-13(9)15/h5-7H,4H2,1-3H3,(H4,15,16,17,18)
Instrument: LTQ Orbitrap XL Thermo Scientific
Instrument type: LC-ESI-ITFT
Ms type: MS2
Ion mode: POSITIVE
Ionization: ESI
Fragmentation mode: HCD
Collision energy: 45 % (nominal)
Resolution: 15000
Column name: XBridge C18 3.5um, 2.1x50mm, Waters
Retention time: 3.8 min
Base peak: 291.1463
Precursor m/z: 291.1452
Precursor type: [M+H]+
m/z	relative intensity	assigned
81.0447	6	C4H5N2+
110.0586	5	C4H6N4+
123.0666	291	C5H7N4+
124.0747	4	C5H8N4+
181.0859	24	C10H13O3+
187.0984	3	C10H11N4+
201.0785	7	C12H11NO2+
201.114	7	C11H13N4+
202.1214	12	C11H14N4+
216.1016	3	C11H12N4O+
217.1087	11	C11H13N4O+
229.1083	23	C12H13N4O+
230.1163	412	C12H14N4O+
232.0974	4	C13H14NO3+
233.1037	12	C11H13N4O2+
245.1033	247	C12H13N4O2+
246.1112	24	C12H14N4O2+
247.1189	57	C12H15N4O2+
257.1033	40	C13H13N4O2+
258.1111	107	C13H14N4O2+
260.1269	5	C13H16N4O2+
261.0983	452	C12H13N4O3+
275.1139	320	C13H15N4O3+
276.1219	44	C13H16N4O3+
291.1457	999	C14H19N4O3+
