Mass spectrum: Levamisole; LC-ESI-ITFT; MS2; CE: 35%; R=30000; [M+H]+
Name: Levamisole
Name: (6S)-6-phenyl-2,3,5,6-tetrahydroimidazo[2,1-b][1,3]thiazole
Formula: C11H12N2S
Exact mass: 204.0721
SMILES: c1([C@H]2CN3CCSC3=N2)ccccc1
InChI: InChI=1S/C11H12N2S/c1-2-4-9(5-3-1)10-8-13-6-7-14-11(13)12-10/h1-5,10H,6-8H2/t10-/m1/s1
Instrument: LTQ Orbitrap XL Thermo Scientific
Instrument type: LC-ESI-ITFT
Ms type: MS2
Ion mode: POSITIVE
Ionization: ESI
Fragmentation mode: CID
Collision energy: 35 % (nominal)
Resolution: 30000
Column name: XBridge C18 3.5um, 2.1x50mm, Waters
Retention time: 2.9 min
Base peak: 205.0801
Precursor m/z: 205.0794
Precursor type: [M+H]+
m/z	relative intensity	assigned
88.0216	93	C3H6NS+
91.0543	6	C7H7+
105.0699	5	C8H9+
117.0699	4	C9H9+
118.0652	16	C8H8N+
127.0324	5	C5H7N2S+
128.0496	2	C9H6N+
129.0699	48	C10H9+
131.0729	2	C9H9N+
135.0263	1	C8H7S+
144.0808	5	C10H10N+
145.0761	142	C9H9N2+
146.0964	83	C10H12N+
150.0369	2	C8H8NS+
162.0373	6	C9H8NS+
176.0531	2	C10H10NS+
178.0686	999	C10H12NS+
188.0528	96	C11H10NS+
205.0795	321	C11H13N2S+
