Mass spectrum: Bromazepam; LC-ESI-QFT; MS2; CE: 30; R=35000; [M+H]+
Name: Bromazepam
Name: 7-bromo-5-pyridin-2-yl-1,3-dihydro-1,4-benzodiazepin-2-one
Formula: C14H10BrN3O
Exact mass: 315.00072
SMILES: C1C(=O)NC2=C(C=C(C=C2)Br)C(=N1)C3=CC=CC=N3
InChI: InChI=1S/C14H10BrN3O/c15-9-4-5-11-10(7-9)14(17-8-13(19)18-11)12-3-1-2-6-16-12/h1-7H,8H2,(H,18,19)
Instrument: Q Exactive Plus Orbitrap Thermo Scientific
Instrument type: LC-ESI-QFT
Ms type: MS2
Ion mode: POSITIVE
Ionization: ESI
Fragmentation mode: HCD
Collision energy: 30 (nominal)
Resolution: 35000
Column name: XBridge C18 3.5um, 2.1x50mm, Waters
Retention time: 7.0 min
Base peak: 316.0073
Precursor m/z: 316.008
Precursor type: [M+H]+
m/z	relative intensity	assigned
80.0494	10	C5H6N+
96.0444	1	C5H6NO+
105.0447	1	C6H5N2+
106.0286	1	C6H4NO+
107.0602	1	C6H7N2+
124.0393	3	C6H6NO2+
133.0522	1	C8H7NO+
182.0838	25	C12H10N2+
183.9756	12	C7H7BrN+
208.0866	3	C13H10N3+
209.0948	58	C13H11N3+
210.0787	1	C13H10N2O+
211.9705	3	C8H7BrNO+
236.0816	1	C14H10N3O+
237.0897	3	C14H11N3O+
258.9866	4	C12H8BrN2+
259.9942	5	C12H9BrN2+
261.0021	49	C12H10BrN2+
286.9816	1	C13H8BrN2O+
287.0054	1	C13H10BrN3+
288.013	170	C13H11BrN3+
297.997	1	C14H9BrN3+
316.0078	999	C14H11BrN3O+
