Mass spectrum: Resmethrin; LC-ESI-QFT; MS2; CE: 60%; R=17500; [M+H]+
Name: Resmethrin
Name: (5-benzylfuran-3-yl)methyl 2,2-dimethyl-3-(2-methylprop-1-enyl)cyclopropane-1-carboxylate
Formula: C22H26O3
Exact mass: 338.1882
SMILES: CC(=CC1C(C1(C)C)C(=O)OCC2=COC(=C2)CC3=CC=CC=C3)C
InChI: InChI=1S/C22H26O3/c1-15(2)10-19-20(22(19,3)4)21(23)25-14-17-12-18(24-13-17)11-16-8-6-5-7-9-16/h5-10,12-13,19-20H,11,14H2,1-4H3
Instrument: Exploris 240 Orbitrap Thermo Scientific
Instrument type: LC-ESI-QFT
Ms type: MS2
Ion mode: POSITIVE
Ionization: ESI
Fragmentation mode: HCD
Collision energy: 60 % (nominal)
Resolution: 17500
Column name: XBridge C18 3.5um, 2.1x50mm, Waters
Retention time: 15.698 min
Base peak: 339.1952
Precursor m/z: 339.1955
Precursor type: [M+H]+
m/z	relative intensity	assigned
55.0543	57	C4H7+
57.07	14	C4H9+
59.0492	36	C3H7O+
65.0385	18	C5H5+
67.0542	54	C5H7+
69.0699	51	C5H9+
79.0543	39	C6H7+
81.0698	96	C6H9+
83.0491	31	C5H7O+
85.0647	20	C5H9O+
91.0542	691	C7H7+
93.0697	83	C7H9+
95.049	26	C6H7O+
95.0855	89	C7H11+
97.0648	23	C6H9O+
103.0543	18	C8H7+
105.0334	430	C7H5O+
105.0698	88	C8H9+
107.049	12	C7H7O+
107.0854	67	C8H11+
109.0646	59	C7H9O+
115.0541	142	C9H7+
117.0698	84	C9H9+
119.0856	68	C9H11+
121.0648	71	C8H9O+
121.1011	180	C9H13+
128.062	862	C10H8+
129.0699	33	C10H9+
131.0856	33	C10H11+
133.1014	26	C10H13+
135.0807	34	C9H11O+
135.1168	28	C10H15+
139.1118	22	C9H15O+
141.07	60	C11H9+
142.0783	10	C11H10+
143.0854	999	C11H11+
145.0647	20	C10H9O+
147.0806	27	C10H11O+
149.0961	42	C10H13O+
153.0698	52	C12H9+
155.0853	24	C12H11+
159.0806	36	C11H11O+
159.1171	27	C12H15+
171.0804	237	C12H11O+
173.1328	10	C13H17+
199.1118	29	C14H15O+
