Mass spectrum: Genistein; LC-ESI-QFT; MS2; CE: 120; R=35000; [M+H]+
Name: Genistein
Name: 5,7-dihydroxy-3-(4-hydroxyphenyl)chromen-4-one
Formula: C15H10O5
Exact mass: 270.05282
SMILES: C1=CC(=CC=C1C2=COC3=CC(=CC(=C3C2=O)O)O)O
InChI: InChI=1S/C15H10O5/c16-9-3-1-8(2-4-9)11-7-20-13-6-10(17)5-12(18)14(13)15(11)19/h1-7,16-18H
Instrument: Q Exactive Plus Orbitrap Thermo Scientific
Instrument type: LC-ESI-QFT
Ms type: MS2
Ion mode: POSITIVE
Ionization: ESI
Fragmentation mode: HCD
Collision energy: 120 (nominal)
Resolution: 35000
Column name: XBridge C18 3.5um, 2.1x50mm, Waters
Retention time: 7.6 min
Base peak: 271.0599
Precursor m/z: 271.0601
Precursor type: [M+H]+
m/z	relative intensity	assigned
50.0151	10	C4H2+
51.0229	7	C4H3+
53.0022	25	C3HO+
53.0386	29	C4H5+
53.9975	4	C2NO+
55.0179	37	C3H3O+
61.0073	1	C5H+
62.0151	13	C5H2+
63.023	65	C5H3+
64.0307	3	C5H4+
65.0386	999	C5H5+
66.0102	1	C4H2O+
66.0464	6	C5H6+
67.0179	81	C4H3O+
67.9893	6	C3O2+
68.0256	1	C4H4O+
68.9971	338	C3HO2+
69.0335	65	C4H5O+
71.0128	3	C3H3O2+
74.0151	3	C6H2+
75.0229	30	C6H3+
77.0386	29	C6H5+
78.0464	14	C6H6+
79.0178	27	C5H3O+
79.0542	21	C6H7+
81.0335	32	C5H5O+
83.0128	10	C4H3O2+
85.0285	2	C4H5O2+
89.0386	72	C7H5+
90.0101	2	C6H2O+
90.0465	8	C7H6+
91.0543	690	C7H7+
92.0257	2	C6H4O+
92.9972	2	C5HO2+
93.0336	2	C6H5O+
94.0414	7	C6H6O+
95.0128	9	C5H3O2+
95.0492	75	C6H7O+
96.0207	1	C5H4O2+
97.0285	20	C5H5O2+
101.0386	5	C8H5+
102.0465	14	C8H6+
103.0543	52	C8H7+
105.0336	21	C7H5O+
105.0448	36	C6H5N2+
105.0699	4	C8H9+
106.0414	3	C7H6O+
107.0492	59	C7H7O+
108.0207	7	C6H4O2+
109.0285	3	C6H5O2+
111.0077	5	C5H3O3+
111.044	7	C6H7O2+
113.0386	2	C9H5+
115.0543	456	C9H7+
116.0621	18	C9H8+
117.0335	2	C8H5O+
117.07	8	C9H9+
118.0413	20	C8H6O+
119.0492	15	C8H7O+
121.0285	27	C7H5O2+
121.0398	7	C6H5N2O+
124.0156	4	C6H4O3+
125.0389	2	C10H5+
126.0312	3	C6H6O3+
126.0465	18	C10H6+
127.0543	25	C10H7+
128.0621	46	C10H8+
129.0337	1	C9H5O+
129.0448	11	C8H5N2+
129.07	6	C10H9+
130.0415	1	C9H6O+
131.0492	30	C9H7O+
132.0571	3	C9H8O+
134.0364	1	C8H6O2+
135.0441	5	C8H7O2+
137.0235	1	C7H5O3+
139.0543	61	C11H7+
140.0621	19	C11H8+
141.0699	59	C11H9+
142.0413	1	C10H6O+
143.0491	3	C10H7O+
144.0571	18	C10H8O+
145.0284	7	C9H5O2+
145.0649	18	C10H9O+
147.0441	6	C9H7O2+
149.0234	3	C8H5O3+
150.0312	3	C8H6O3+
150.0465	19	C12H6+
151.0544	6	C12H7+
152.0621	39	C12H8+
153.0183	54	C7H5O4+
155.0493	21	C11H7O+
155.0603	29	C10H7N2+
157.065	7	C11H9O+
159.0441	2	C10H7O2+
163.0392	4	C9H7O3+
167.0495	1	C12H7O+
168.0571	37	C12H8O+
169.0649	27	C12H9O+
171.0442	7	C11H7O2+
179.0497	3	C13H7O+
179.0606	7	C12H7N2+
181.0652	1	C13H9O+
183.0443	1	C12H7O2+
184.0521	1	C12H8O2+
185.0599	3	C12H9O2+
187.0391	1	C11H7O3+
195.0438	1	C13H7O2+
197.0598	13	C13H9O2+
200.0469	2	C12H8O3+
213.0549	3	C13H9O3+
