Mass spectrum: Chromafenozide; LC-ESI-QFT; MS2; CE: 180%; R=17500; [M+H]+
Name: Chromafenozide
Name: N`-tert-butyl-N`-(3,5-dimethylbenzoyl)-5-methyl-3,4-dihydro-2H-chromene-6-carbohydrazide
Formula: C24H30N2O3
Exact mass: 394.2256
SMILES: CC1=CC(=CC(=C1)C(=O)N(C(C)(C)C)NC(=O)C2=C(C3=C(C=C2)OCCC3)C)C
InChI: InChI=1S/C24H30N2O3/c1-15-12-16(2)14-18(13-15)23(28)26(24(4,5)6)25-22(27)20-9-10-21-19(17(20)3)8-7-11-29-21/h9-10,12-14H,7-8,11H2,1-6H3,(H,25,27)
Instrument: Exploris 240 Orbitrap Thermo Scientific
Instrument type: LC-ESI-QFT
Ms type: MS2
Ion mode: POSITIVE
Ionization: ESI
Fragmentation mode: HCD
Collision energy: 180 % (nominal)
Resolution: 17500
Column name: XBridge C18 3.5um, 2.1x50mm, Waters
Retention time: 9.562 min
Base peak: 395.233
Precursor m/z: 395.2329
Precursor type: [M+H]+
m/z	relative intensity	assigned
50.0151	162	C4H2+
51.0229	525	C4H3+
53.0386	157	C4H5+
63.0229	105	C5H3+
65.0385	999	C5H5+
77.0385	561	C6H5+
78.0463	135	C6H6+
79.0541	105	C6H7+
89.0389	30	C7H5+
91.0542	298	C7H7+
95.0491	160	C6H7O+
103.054	151	C8H7+
105.0448	219	C6H5N2+
115.0539	55	C9H7+
131.0494	61	C9H7O+
