Mass spectrum: Acifluorfen; LC-ESI-QFT; MS2; CE: 30; R=35000; [M-H]-
Name: Acifluorfen
Name: 5-[2-chloranyl-4-(trifluoromethyl)phenoxy]-2-nitro-benzoic acid
Formula: C14H7ClF3NO5
Exact mass: 360.99648
SMILES: Clc2cc(ccc2Oc1cc(C(=O)O)c([N+]([O-])=O)cc1)C(F)(F)F
InChI: InChI=1S/C14H7ClF3NO5/c15-10-5-7(14(16,17)18)1-4-12(10)24-8-2-3-11(19(22)23)9(6-8)13(20)21/h1-6H,(H,20,21)
Instrument: Q Exactive Orbitrap Thermo Scientific
Instrument type: LC-ESI-QFT
Ms type: MS2
Ion mode: NEGATIVE
Ionization: ESI
Fragmentation mode: HCD
Collision energy: 30 (nominal)
Resolution: 35000
Column name: XBridge C18 3.5um, 2.1x50mm, Waters
Retention time: 12.3 min
Base peak: 315.9994
Precursor m/z: 359.9892
Precursor type: [M-H]-
m/z	relative intensity	assigned
65.9986	4	C3NO-
69.0347	4	C4H5O-
92.9982	2	C5HO2-
94.006	1	C5H2O2-
95.0139	19	C5H3O2-
97.0295	3	C5H5O2-
107.0139	6	C6H3O2-
111.0089	4	C5H3O3-
122.001	33	C6H2O3-
123.0089	14	C6H3O3-
125.0244	10	C6H5O3-
137.0118	176	C6H3NO3-
139.0037	3	C6H3O4-
174.977	6	C7H2ClF2O-
194.983	999	C7H3ClF3O-
198.0297	100	C10H5F3O-
206.0188	1	C8H5F3O3-
209.0218	10	C11H4F3O-
210.0172	7	C10H3F3NO-
210.0297	3	C11H5F3O-
213.0169	1	C10H4F3O2-
222.0298	104	C12H5F3O-
225.0168	7	C11H4F3O2-
226.0248	10	C11H5F3O2-
238.0245	8	C12H5F3O2-
240.0404	27	C12H6N3O3-
242.983	1	C11H3ClF3O-
244.9984	1	C11H5ClF3O-
247.0041	3	C12H6ClNO3-
250.0246	6	C13H5F3O2-
258.0065	8	C12H6ClF3O-
263.0202	5	C13H4F3NO2-
265.9953	1	C13H5ClF2O2-
269.9938	4	C12H4ClF3NO-
270.978	3	C12H3ClF3O2-
272.994	1	C12H5ClF3O2-
280.0224	2	C13H5F3NO3-
284.9933	10	C13H5ClF3O2-
286.0015	73	C13H6ClF3O2-
297.9892	1	C13H4ClF3NO2-
298.9966	3	C13H5ClF3NO2-
301.9966	1	C13H6ClF3O3-
314.9912	1	C13H5ClF3NO3-
315.9993	139	C13H6ClF3NO3-
