Mass spectrum: N4-Acetylsulfadimethoxine; LC-ESI-ITFT; MS2; CE: 45%; R=7500; [M+H]+
Name: N4-Acetylsulfadimethoxine
Name: N-[4-[(4,6-dimethoxy-2-pyrimidinyl)sulfamoyl]phenyl]acetamide
Formula: C14H16N4O5S
Exact mass: 352.0841
SMILES: C(C)(=O)Nc1ccc(cc1)S(=O)(=O)Nc1nc(cc(n1)OC)OC
InChI: InChI=1S/C14H16N4O5S/c1-9(19)15-10-4-6-11(7-5-10)24(20,21)18-14-16-12(22-2)8-13(17-14)23-3/h4-8H,1-3H3,(H,15,19)(H,16,17,18)
Instrument: LTQ Orbitrap XL Thermo Scientific
Instrument type: LC-ESI-ITFT
Ms type: MS2
Ion mode: POSITIVE
Ionization: ESI
Fragmentation mode: HCD
Collision energy: 45 % (nominal)
Resolution: 7500
Column name: XBridge C18 3.5um, 2.1x50mm, Waters
Retention time: 6.3 min
Base peak: 353.0926
Precursor m/z: 353.0914
Precursor type: [M+H]+
m/z	relative intensity	assigned
65.0386	103	C5H5+
92.0496	16	C6H6N+
93.0334	56	C6H5O+
93.057	18	C6H7N+
108.0444	433	C6H6NO+
116.0491	13	C8H6N+
124.023	7	H4N4O4+
125.0584	62	C5H7N3O+
126.0662	63	C5H8N3O+
127.05	40	C5H7N2O2+
133.0527	9	C8H7NO+
134.0601	999	C8H8NO+
136.0752	23	H14N3O3S+
140.0457	34	C5H6N3O2+
148.0757	35	C9H10NO+
150.055	37	C8H8NO2+
154.0612	516	C6H8N3O2+
155.069	658	C6H9N3O2+
156.0114	67	C6H6NO2S+
156.0768	794	C6H10N3O2+
157.0485	42	C5H7N3O3+
159.055	18	C9H7N2O+
162.0663	117	C8H8N3O+
164.0706	67	C9H10NO2+
170.0558	25	C6H8N3O3+
173.0587	21	C9H7N3O+
198.0219	314	C8H8NO3S+
215.0688	70	C11H9N3O2+
218.0229	161	C6H8N3O4S+
230.0805	25	C5H16N3O5S+
245.1038	53	C12H13N4O2+
257.1046	23	C13H13N4O2+
272.091	29	C13H12N4O3+
287.1138	288	C14H15N4O3+
321.0655	46	C13H13N4O4S+
353.0916	244	C14H17N4O5S+
