Mass spectrum: Fenamiphos; LC-ESI-QFT; MS2; CE: 45%; R=17500; [M+H]+
Name: Fenamiphos
Name: N-[ethoxy-(3-methyl-4-methylsulfanylphenoxy)phosphoryl]propan-2-amine
Formula: C13H22NO3PS
Exact mass: 303.1058
SMILES: CCOP(=O)(NC(C)C)OC1=CC(=C(C=C1)SC)C
InChI: InChI=1S/C13H22NO3PS/c1-6-16-18(15,14-10(2)3)17-12-7-8-13(19-5)11(4)9-12/h7-10H,6H2,1-5H3,(H,14,15)
Instrument: Exploris 240 Orbitrap Thermo Scientific
Instrument type: LC-ESI-QFT
Ms type: MS2
Ion mode: POSITIVE
Ionization: ESI
Fragmentation mode: HCD
Collision energy: 45 % (nominal)
Resolution: 17500
Column name: XBridge C18 3.5um, 2.1x50mm, Waters
Retention time: 10.489 min
Base peak: 304.1128
Precursor m/z: 304.1131
Precursor type: [M+H]+
m/z	relative intensity	assigned
60.0807	69	C3H10N+
107.0492	7	C7H7O+
137.0418	7	C8H9S+
153.0368	12	C8H9OS+
155.0524	37	C8H11OS+
168.9866	7	C7H6OPS+
201.9847	43	C7H7O3PS+
217.0081	999	C8H10O3PS+
234.0348	165	C8H13NO3PS+
262.0662	7	C10H17NO3PS+
276.0819	21	C11H19NO3PS+
