Mass spectrum: Progesterone; LC-ESI-QFT; MS2; CE: 60; R=35000; [M+H]+
Name: Progesterone
Name: (8S,9S,10R,13S,14S,17S)-17-acetyl-10,13-dimethyl-1,2,6,7,8,9,11,12,14,15,16,17-dodecahydrocyclopenta[a]phenanthren-3-one
Formula: C21H30O2
Exact mass: 314.22458
SMILES: O=C4\C=C2/[C@]([C@H]1CC[C@@]3([C@@H](C(=O)C)CC[C@H]3[C@@H]1CC2)C)(C)CC4
InChI: InChI=1S/C21H30O2/c1-13(22)17-6-7-18-16-5-4-14-12-15(23)8-10-20(14,2)19(16)9-11-21(17,18)3/h12,16-19H,4-11H2,1-3H3/t16-,17+,18-,19-,20-,21+/m0/s1
Instrument: Q Exactive Orbitrap Thermo Scientific
Instrument type: LC-ESI-QFT
Ms type: MS2
Ion mode: POSITIVE
Ionization: ESI
Fragmentation mode: HCD
Collision energy: 60 (nominal)
Resolution: 35000
Column name: XBridge C18 3.5um, 2.1x50mm, Waters
Retention time: 13.1 min
Base peak: 315.232
Precursor m/z: 315.2319
Precursor type: [M+H]+
m/z	relative intensity	assigned
55.0179	1	C3H3O+
65.0386	4	C5H5+
66.0464	1	C5H6+
67.0543	31	C5H7+
69.0335	2	C4H5O+
69.0699	23	C5H9+
71.0491	10	C4H7O+
77.0386	2	C6H5+
79.0543	133	C6H7+
81.0699	134	C6H9+
83.0492	41	C5H7O+
83.0855	3	C6H11+
85.0648	14	C5H9O+
91.0543	37	C7H7+
93.0699	44	C7H9+
94.0414	4	C6H6O+
95.0492	19	C6H7O+
95.0855	63	C7H11+
97.0649	966	C6H9O+
105.0699	39	C8H9+
107.0492	7	C7H7O+
107.0856	33	C8H11+
109.0648	999	C7H9O+
111.0804	5	C7H11O+
117.07	11	C9H9+
119.0856	45	C9H11+
121.0649	10	C8H9O+
121.1012	26	C9H13+
123.0804	93	C8H11O+
129.0701	6	C10H9+
130.0778	1	C10H10+
131.0856	30	C10H11+
133.1013	28	C10H13+
135.0806	1	C9H11O+
135.1168	9	C10H15+
137.0962	8	C9H13O+
137.1325	1	C10H17+
142.0778	1	C11H10+
143.0857	13	C11H11+
144.0931	1	C11H12+
145.1013	40	C11H13+
147.0805	1	C10H11O+
147.1168	25	C11H15+
149.0962	8	C10H13O+
149.1325	6	C11H17+
151.1115	1	C10H15O+
155.0854	2	C12H11+
156.0931	1	C12H12+
157.1012	12	C12H13+
159.1169	34	C12H15+
161.1325	9	C12H17+
163.1118	11	C11H15O+
163.1484	1	C12H19+
167.0859	1	C13H11+
169.101	6	C13H13+
171.1167	15	C13H15+
172.1248	1	C13H16+
173.1327	18	C13H17+
175.1117	1	C12H15O+
175.1482	4	C13H19+
177.127	7	C12H17O+
181.1009	3	C14H13+
183.117	8	C14H15+
185.1326	7	C14H17+
187.1108	1	C13H15O+
187.1481	7	C14H19+
189.1273	1	C13H17O+
189.1639	1	C14H21+
191.1426	1	C13H19O+
195.117	4	C15H15+
197.1327	5	C15H17+
199.1488	6	C15H19+
201.1636	1	C15H21+
209.1323	3	C16H17+
211.1481	4	C16H19+
213.1638	4	C16H21+
215.143	1	C15H19O+
215.1793	2	C16H23+
223.1477	2	C17H19+
227.179	1	C17H23+
237.1629	1	C18H21+
239.1794	5	C18H23+
255.2114	1	C19H27+
279.2106	1	C21H27+
