Mass spectrum: Chlorthalidone; LC-ESI-QFT; MS2; CE: 45; R=35000; [M-H]-
Name: Chlorthalidone
Name: Chlortalidone
Name: 2-chloranyl-5-(1-oxidanyl-3-oxidanylidene-2H-isoindol-1-yl)benzenesulfonamide
Formula: C14H11ClN2O4S
Exact mass: 338.01281
SMILES: O=S(=O)(N)c1c(Cl)ccc(c1)C2(O)c3ccccc3C(=O)N2
InChI: InChI=1S/C14H11ClN2O4S/c15-11-6-5-8(7-12(11)22(16,20)21)14(19)10-4-2-1-3-9(10)13(18)17-14/h1-7,19H,(H,17,18)(H2,16,20,21)
Instrument: Q Exactive Orbitrap Thermo Scientific
Instrument type: LC-ESI-QFT
Ms type: MS2
Ion mode: NEGATIVE
Ionization: ESI
Fragmentation mode: HCD
Collision energy: 45 (nominal)
Resolution: 35000
Column name: XBridge C18 3.5um, 2.1x50mm, Waters
Retention time: 5.4 min
Base peak: 337.0058
Precursor m/z: 337.0055
Precursor type: [M-H]-
m/z	relative intensity	assigned
57.9757	6	CNS-
61.9706	81	NOS-
63.9624	18	O2S-
65.9984	1	C3NO-
77.9655	77	NO2S-
79.9812	544	H2NO2S-
90.0349	40	C6H4N-
91.019	23	C6H3O-
97.9473	5	ClHNOS-
98.0072	1	C4H4NS-
98.9313	1	ClO2S-
105.0221	5	C6H3NO-
106.0298	5	C6H4NO-
108.0217	17	C6H4O2-
115.0303	1	C7H3N2-
120.0456	6	C7H6NO-
122.0249	6	C6H4NO2-
125.9878	16	C6H3ClO-
126.0116	59	C6H5ClN-
126.9957	20	C6H4ClO-
146.0248	999	C8H4NO2-
153.9969	95	C6H4NO2S-
164.0356	1	C5H9ClN2O2-
166.066	4	C12H8N-
173.9547	6	C6H3ClO2S-
189.9736	207	C6H5ClNO2S-
191.0614	3	C13H7N2-
192.0455	4	C13H6NO-
193.0407	1	C12H5N2O-
194.0611	14	C13H8NO-
207.0566	7	C13H7N2O-
210.0563	3	C13H8NO2-
219.0563	53	C14H7N2O-
220.0405	12	C14H6NO2-
222.0562	1	C14H8NO2-
228.0221	4	C13H7ClNO-
230.0377	1	C13H9ClNO-
235.0513	50	C14H7N2O2-
237.0674	1	C14H9N2O2-
255.0234	4	C13H7N2O2S-
255.0338	3	C14H8ClN2O-
256.0175	11	C14H7ClNO2-
258.0229	9	C13H8NO3S-
283.0182	61	C14H7N2O3S-
301.9686	3	C14H5ClNO3S-
302.977	1	C14H6ClNO3S-
318.9948	5	C14H8ClN2O3S-
320.987	1	C14H8ClNO4S-
