Mass spectrum: Crotamiton; LC-ESI-QFT; MS2; CE: 15; R=35000; [M+H]+
Name: Crotamiton
Name: N-ethyl-N-(2-methylphenyl)but-2-enamide
Formula: C13H17NO
Exact mass: 203.13101
SMILES: O=C(N(c1ccccc1C)CC)C=CC
InChI: InChI=1S/C13H17NO/c1-4-8-13(15)14(5-2)12-10-7-6-9-11(12)3/h4,6-10H,5H2,1-3H3
Instrument: Q Exactive Plus Orbitrap Thermo Scientific
Instrument type: LC-ESI-QFT
Ms type: MS2
Ion mode: POSITIVE
Ionization: ESI
Fragmentation mode: HCD
Collision energy: 15 (nominal)
Resolution: 35000
Column name: XBridge C18 3.5um, 2.1x50mm, Waters
Retention time: 9.8 min
Base peak: 204.1383
Precursor m/z: 204.1383
Precursor type: [M+H]+
m/z	relative intensity	assigned
68.0494	1	C4H6N+
69.0334	36	C4H5O+
96.0808	10	C6H10N+
108.0807	1	C7H10N+
134.06	12	C8H8NO+
134.0965	2	C9H12N+
136.1122	22	C9H14N+
162.0914	9	C10H12NO+
176.1069	1	C11H14NO+
204.1384	999	C13H18NO+
