Mass spectrum: Flubendazole; LC-ESI-QFT; MS2; CE: 180; R=35000; [M+H]+
Name: Flubendazole
Name: Methyl N-[6-(4-fluorobenzoyl)-1H-benzimidazol-2-yl]carbamate
Formula: C16H12FN3O3
Exact mass: 313.08627
SMILES: COC(=O)NC1=NC2=C(N1)C=C(C=C2)C(=O)C3=CC=C(C=C3)F
InChI: InChI=1S/C16H12FN3O3/c1-23-16(22)20-15-18-12-7-4-10(8-13(12)19-15)14(21)9-2-5-11(17)6-3-9/h2-8H,1H3,(H2,18,19,20,22)
Instrument: Q Exactive Plus Orbitrap Thermo Scientific
Instrument type: LC-ESI-QFT
Ms type: MS2
Ion mode: POSITIVE
Ionization: ESI
Fragmentation mode: HCD
Collision energy: 180 (nominal)
Resolution: 35000
Column name: XBridge C18 3.5um, 2.1x50mm, Waters
Retention time: 8.1 min
Base peak: 314.093
Precursor m/z: 314.0935
Precursor type: [M+H]+
m/z	relative intensity	assigned
50.0152	29	C4H2+
51.023	9	C4H3+
52.0182	15	C3H2N+
52.0308	1	C4H4+
53.0022	17	C3HO+
53.026	1	C3H3N+
54.0339	2	C3H4N+
55.0179	2	C3H3O+
57.0136	6	C3H2F+
61.0072	6	C5H+
62.0151	14	C5H2+
63.023	40	C5H3+
64.0182	22	C4H2N+
64.0308	5	C5H4+
65.0023	4	C4HO+
65.026	6	C4H3N+
65.0386	8	C5H5+
66.01	1	C4H2O+
67.0417	9	C4H5N+
68.0495	1	C4H6N+
69.0084	18	C2HN2O+
69.0135	45	C4H2F+
71.0292	10	C4H4F+
73.0071	2	CFN3+
74.0151	529	C6H2+
75.0229	999	C6H3+
76.0181	115	C5H2N+
77.026	155	C5H3N+
78.0338	77	C5H4N+
79.0179	3	C5H3O+
79.0416	3	C5H5N+
81.0135	3	C5H2F+
83.0292	8	C5H4F+
87.023	2	C7H3+
88.0183	3	C6H2N+
89.0023	6	C6HO+
89.0261	2	C6H3N+
89.0385	1	C7H5+
90.0339	6	C6H4N+
91.0416	3	C6H5N+
94.0214	1	C6H3F+
94.0288	1	C5H4NO+
95.0292	58	C6H4F+
95.0366	3	C5H5NO+
96.0445	6	C5H6NO+
103.0291	15	C6H3N2+
104.0369	30	C6H4N2+
105.0448	44	C6H5N2+
107.0292	8	C7H4F+
113.0398	49	C6H6FO+
120.0369	1	C8H5F+
121.04	2	C6H5N2O+
123.0354	104	C6H4FN2+
125.0387	5	C10H5+
130.0402	6	C7H4N3+
131.0292	9	C9H4F+
131.0479	3	C7H5N3+
133.0448	8	C9H6F+
136.0269	2	C6H4N2O2+
137.0387	2	C11H5+
139.0541	1	C11H7+
144.037	4	C10H5F+
146.0527	2	C10H7F+
155.0291	1	C11H4F+
157.045	12	C11H6F+
158.0404	5	C10H5FN+
164.0497	2	C12H6N+
168.0371	1	C12H5F+
182.0403	2	C12H5FN+
