Mass spectrum: Ametryn; LC-ESI-QFT; MS2; CE: 90; R=35000; [M+H]+
Name: Ametryn
Name: 4-N-ethyl-6-methylsulfanyl-2-N-propan-2-yl-1,3,5-triazine-2,4-diamine
Formula: C9H17N5S
Exact mass: 227.12047
SMILES: S(c1nc(nc(n1)NC(C)C)NCC)C
InChI: InChI=1S/C9H17N5S/c1-5-10-7-12-8(11-6(2)3)14-9(13-7)15-4/h6H,5H2,1-4H3,(H2,10,11,12,13,14)
Instrument: Q Exactive Orbitrap Thermo Scientific
Instrument type: LC-ESI-QFT
Ms type: MS2
Ion mode: POSITIVE
Ionization: ESI
Fragmentation mode: HCD
Collision energy: 90 (nominal)
Resolution: 35000
Column name: XBridge C18 3.5um, 2.1x50mm, Waters
Retention time: 7.2 min
Base peak: 228.128
Precursor m/z: 228.1277
Precursor type: [M+H]+
m/z	relative intensity	assigned
68.0243	999	C2H2N3+
70.0399	2	C2H4N3+
71.0604	396	C3H7N2+
74.0059	261	C2H4NS+
85.0509	94	C2H5N4+
85.0761	5	C4H9N2+
91.0325	325	C2H7N2S+
96.0557	537	C4H6N3+
99.0011	2	C3H3N2S+
102.0373	13	C4H8NS+
110.0462	73	C3H4N5+
113.0822	42	C4H9N4+
116.0277	352	C3H6N3S+
138.0775	105	C5H8N5+
140.0933	1	C5H10N5+
144.0591	80	C5H10N3S+
158.0496	68	C4H8N5S+
171.0573	1	C5H9N5S+
184.0654	1	C6H10N5S+
186.0809	128	C6H12N5S+
