Mass spectrum: Myclobutanil; LC-ESI-ITFT; MS2; CE: 45%; R=15000; [M+H]+
Name: Myclobutanil
Name: MYC
Name: 2-(4-chlorophenyl)-2-(1,2,4-triazol-1-ylmethyl)hexanenitrile
Formula: C15H17ClN4
Exact mass: 288.1142
SMILES: Clc1ccc(cc1)C(C#N)(CCCC)Cn2ncnc2
InChI: InChI=1S/C15H17ClN4/c1-2-3-8-15(9-17,10-20-12-18-11-19-20)13-4-6-14(16)7-5-13/h4-7,11-12H,2-3,8,10H2,1H3
Instrument: LTQ Orbitrap XL Thermo Scientific
Instrument type: LC-ESI-ITFT
Ms type: MS2
Ion mode: POSITIVE
Ionization: ESI
Fragmentation mode: HCD
Collision energy: 45 % (nominal)
Resolution: 15000
Column name: XBridge C18 3.5um, 2.1x50mm, Waters
Retention time: 11.2 min
Base peak: 289.1218
Precursor m/z: 289.1215
Precursor type: [M+H]+
m/z	relative intensity	assigned
70.04	999	C2H4N3+
81.0699	4	C6H9+
82.04	2	C3H4N3+
82.0651	4	C5H8N+
83.0477	6	C3H5N3+
95.0729	5	C6H9N+
108.0807	3	C7H10N+
115.0543	1	C9H7+
125.0153	611	C7H6Cl+
130.0651	2	C9H8N+
139.0306	3	C8H8Cl+
143.0733	1	C10H9N+
149.0153	4	C9H6Cl+
150.0105	8	C8H5ClN+
151.0309	165	C9H8Cl+
158.1091	1	C12H14+
163.0186	1	C9H6ClN+
163.031	3	C10H8Cl+
164.0262	50	C9H7ClN+
165.0339	16	C9H8ClN+
165.0465	2	C10H10Cl+
166.0419	20	C9H9ClN+
167.0855	4	C13H11+
168.0934	10	C13H12+
170.0967	1	C12H12N+
175.0309	5	C11H8Cl+
177.0467	2	C11H10Cl+
178.0418	30	C10H9ClN+
184.1117	1	C13H14N+
185.1199	6	C13H15N+
191.0497	3	C11H10ClN+
191.0622	1	C12H12Cl+
192.0575	9	C11H11ClN+
193.0779	28	C12H14Cl+
203.0621	19	C13H12Cl+
220.0887	43	C13H15ClN+
289.1216	25	C15H18ClN4+
