Mass spectrum: Terbumeton; LC-ESI-ITFT; MS2; CE: 90%; R=30000; [M+H]+
Name: Terbumeton
Name: 2-N-tert-butyl-4-N-ethyl-6-methoxy-1,3,5-triazine-2,4-diamine
Name: 1,3,5-Triazine-2,4-diamine, N-(1,1-dimethylethyl)-N'-ethyl-6-methoxy-
Formula: C10H19N5O
Exact mass: 225.1584
SMILES: c1(nc(nc(n1)OC)NCC)NC(C)(C)C
InChI: InChI=1S/C10H19N5O/c1-6-11-7-12-8(15-10(2,3)4)14-9(13-7)16-5/h6H2,1-5H3,(H2,11,12,13,14,15)
Instrument: LTQ Orbitrap XL Thermo Scientific
Instrument type: LC-ESI-ITFT
Ms type: MS2
Ion mode: POSITIVE
Ionization: ESI
Fragmentation mode: HCD
Collision energy: 90 % (nominal)
Resolution: 30000
Column name: XBridge C18 3.5um, 2.1x50mm, Waters
Retention time: 6.7 min
Base peak: 226.1662
Precursor m/z: 226.1662
Precursor type: [M+H]+
m/z	relative intensity	assigned
57.0447	410	C2H5N2+
58.0287	64	C2H4NO+
68.0244	567	C2H2N3+
69.0084	782	C2HN2O+
71.0604	219	C3H7N2+
75.0553	583	C2H7N2O+
82.04	57	C3H4N3+
83.024	61	C3H3N2O+
85.0509	24	C2H5N4+
85.0761	129	C4H9N2+
86.0349	322	C2H4N3O+
96.0557	273	C4H6N3+
97.0397	155	C4H5N2O+
99.0665	48	C3H7N4+
100.0506	999	C3H6N3O+
110.0462	19	C3H4N5+
110.0713	5	C5H8N3+
113.0822	12	C4H9N4+
114.0662	294	C4H8N3O+
125.0459	7	C4H5N4O+
127.0978	5	C5H11N4+
128.0819	321	C5H10N3O+
138.0775	52	C5H8N5+
142.0724	442	C4H8N5O+
153.0773	9	C6H9N4O+
168.0884	13	C6H10N5O+
170.1037	536	C6H12N5O+
