Mass spectrum: Bufexamac; LC-ESI-QFT; MS2; CE: 30; R=35000; [M+H]+
Name: Bufexamac
Name: 2-(4-butoxyphenyl)-N-hydroxyacetamide
Formula: C12H17NO3
Exact mass: 223.12084
SMILES: CCCCOC1=CC=C(C=C1)CC(=O)NO
InChI: InChI=1S/C12H17NO3/c1-2-3-8-16-11-6-4-10(5-7-11)9-12(14)13-15/h4-7,15H,2-3,8-9H2,1H3,(H,13,14)
Instrument: Q Exactive Orbitrap Thermo Scientific
Instrument type: LC-ESI-QFT
Ms type: MS2
Ion mode: POSITIVE
Ionization: ESI
Fragmentation mode: HCD
Collision energy: 30 (nominal)
Resolution: 35000
Column name: XBridge C18 3.5um, 2.1x50mm, Waters
Retention time: 8.4 min
Base peak: 224.1282
Precursor m/z: 224.1281
Precursor type: [M+H]+
m/z	relative intensity	assigned
57.0698	12	C4H9+
94.065	5	C6H8N+
95.0491	5	C6H7O+
106.041	1	C7H6O+
107.0491	999	C7H7O+
108.0443	15	C6H6NO+
122.06	71	C7H8NO+
135.044	9	C8H7O2+
150.0549	76	C8H8NO2+
163.1117	983	C11H15O+
168.0654	72	C8H10NO3+
191.1067	2	C12H15O2+
206.1176	3	C12H16NO2+
207.1257	3	C12H17NO2+
224.1281	133	C12H18NO3+
