Mass spectrum: Lidocaine-N-Oxide; LC-ESI-QFT; MS2; CE: 75; R=35000; [M+H]+
Name: Lidocaine-N-Oxide
Name: Lignocaine N-oxide
Name: 2-(2,6-dimethylanilino)-N,N-diethyl-2-oxoethanamine oxide
Formula: C14H22N2O2
Exact mass: 250.16813
SMILES: CC[N+](CC)(CC(=O)NC1=C(C=CC=C1C)C)[O-]
InChI: InChI=1S/C14H22N2O2/c1-5-16(18,6-2)10-13(17)15-14-11(3)8-7-9-12(14)4/h7-9H,5-6,10H2,1-4H3,(H,15,17)
Instrument: Q Exactive Plus Orbitrap Thermo Scientific
Instrument type: LC-ESI-QFT
Ms type: MS2
Ion mode: POSITIVE
Ionization: ESI
Fragmentation mode: HCD
Collision energy: 75 (nominal)
Resolution: 35000
Column name: XBridge C18 3.5um, 2.1x50mm, Waters
Retention time: 4.8 min
Base peak: 251.1752
Precursor m/z: 251.1754
Precursor type: [M+H]+
m/z	relative intensity	assigned
53.0386	1	C4H5+
56.0495	10	C3H6N+
58.0651	188	C3H8N+
60.0444	194	C2H6NO+
72.0807	15	C4H10N+
74.06	77	C3H8NO+
74.0964	5	C4H12N+
77.0383	2	C6H5+
79.0542	17	C6H7+
84.0808	13	C5H10N+
86.0964	999	C5H12N+
88.0757	208	C4H10NO+
90.0916	2	C4H12NO+
91.0542	5	C7H7+
93.0699	6	C7H9+
95.0491	4	C6H7O+
103.0542	14	C8H7+
105.0699	87	C8H9+
106.0651	6	C7H8N+
107.0729	39	C7H9N+
107.0855	5	C8H11+
112.0756	1	C6H10NO+
117.0572	3	C8H7N+
117.0699	2	C9H9+
118.0651	2	C8H8N+
119.073	4	C8H9N+
119.0854	2	C9H11+
120.0808	359	C8H10N+
121.0647	2	C8H9O+
121.0885	11	C8H11N+
122.0964	82	C8H12N+
123.0804	8	C8H11O+
132.0807	2	C9H10N+
133.052	1	C8H7NO+
133.0759	3	C8H9N2+
134.06	1	C8H8NO+
134.0964	18	C9H12N+
146.0965	4	C10H12N+
147.0678	5	C9H9NO+
148.0756	29	C9H10NO+
150.0914	1	C9H12NO+
163.0628	2	C9H9NO2+
164.107	4	C10H14NO+
