Mass spectrum: Bentazone; LC-ESI-ITFT; MS2; CE: 60%; R=15000; [M-H]-
Name: Bentazone
Name: 2,2-bis(oxidanylidene)-3-propan-2-yl-1H-2$l^{6},1,3-benzothiadiazin-4-one
Formula: C10H12N2O3S
Exact mass: 240.0563
SMILES: c12c(C(N(C(C)C)S(N1)(=O)=O)=O)cccc2
InChI: InChI=1S/C10H12N2O3S/c1-7(2)12-10(13)8-5-3-4-6-9(8)11-16(12,14)15/h3-7,11H,1-2H3
Instrument: LTQ Orbitrap XL Thermo Scientific
Instrument type: LC-ESI-ITFT
Ms type: MS2
Ion mode: NEGATIVE
Ionization: ESI
Fragmentation mode: HCD
Collision energy: 60 % (nominal)
Resolution: 15000
Column name: XBridge C18 3.5um, 2.1x50mm, Waters
Retention time: 7.4 min
Base peak: 239.0497
Precursor m/z: 239.0496
Precursor type: [M-H]-
m/z	relative intensity	assigned
116.0376	11	C7H4N2-
117.0457	39	C7H5N2-
132.0329	999	C7H4N2O-
133.0407	346	C7H5N2O-
147.0812	16	C10H11O-
175.0877	272	C10H11N2O-
195.9947	109	C7H4N2O3S-
197.0027	369	C7H5N2O3S-
239.0495	177	C10H11N2O3S-
