Mass spectrum: Triclopyr; LC-ESI-ITFT; MS2; CE: 60%; R=7500; [M+H]+
Name: Triclopyr
Name: 2-(3,5,6-trichloropyridin-2-yl)oxyacetic acid
Formula: C7H4Cl3NO3
Exact mass: 254.9257
SMILES: ClC1=C(OCC(O)=O)N=C(Cl)C(Cl)=C1
InChI: InChI=1S/C7H4Cl3NO3/c8-3-1-4(9)7(11-6(3)10)14-2-5(12)13/h1H,2H2,(H,12,13)
Instrument: LTQ Orbitrap XL Thermo Scientific
Instrument type: LC-ESI-ITFT
Ms type: MS2
Ion mode: POSITIVE
Ionization: ESI
Fragmentation mode: HCD
Collision energy: 60 % (nominal)
Resolution: 7500
Column name: XBridge C18 3.5um, 2.1x50mm, Waters
Retention time: 10.3 min
Base peak: 255.9336
Precursor m/z: 255.933
Precursor type: [M+H]+
m/z	relative intensity	assigned
62.9632	70	CClO+
106.945	54	C3HCl2+
109.9792	52	C5HClN+
127.9895	22	C5H3ClNO+
133.956	43	C4H2Cl2N+
145.9559	999	C5H2Cl2N+
146.9644	14	C5H3Cl2N+
161.9507	62	C5H2Cl2NO+
163.9665	923	C5H4Cl2NO+
173.9506	15	C6H2Cl2NO+
179.917	624	C5HCl3N+
179.9608	45	C5H4Cl2NO2+
181.9326	831	C5H3Cl3N+
197.9275	778	C5H3Cl3NO+
209.9273	507	C6H3Cl3NO+
237.9306	8	C3H5Cl3N2O4+
