Mass spectrum: Trinexapac-ethyl; LC-ESI-ITFT; MS2; CE: 90%; R=30000; [M+H]+
Name: Trinexapac-ethyl
Name: 4-[cyclopropyl(hydroxy)methylene]-3,5-diketo-cyclohexanecarboxylic acid ethyl ester
Formula: C13H16O5
Exact mass: 252.0992
SMILES: CCOC(=O)C1CC(=O)C(=C(C2CC2)O)C(=O)C1
InChI: InChI=1S/C13H16O5/c1-2-18-13(17)8-5-9(14)11(10(15)6-8)12(16)7-3-4-7/h7-8,16H,2-6H2,1H3/b12-11-
Instrument: LTQ Orbitrap XL Thermo Scientific
Instrument type: LC-ESI-ITFT
Ms type: MS2
Ion mode: POSITIVE
Ionization: ESI
Fragmentation mode: HCD
Collision energy: 90 % (nominal)
Resolution: 30000
Column name: XBridge C18 3.5um, 2.1x50mm, Waters
Retention time: 8.9 min
Base peak: 253.1073
Precursor m/z: 253.1071
Precursor type: [M+H]+
m/z	relative intensity	assigned
65.0385	28	C5H5+
68.9971	543	C3HO2+
69.0335	999	C4H5O+
71.0127	35	C3H3O2+
79.0541	19	C6H7+
81.0334	84	C5H5O+
83.0491	30	C5H7O+
85.0283	135	C4H5O2+
91.0542	17	C7H7+
93.0334	17	C6H5O+
95.0127	113	C5H3O2+
99.0076	74	C4H3O3+
105.0698	19	C8H9+
107.0489	24	C7H7O+
109.0283	43	C6H5O2+
111.044	198	C6H7O2+
123.0076	103	C6H3O3+
123.0439	15	C7H7O2+
137.0232	109	C7H5O3+
139.0388	59	C7H7O3+
155.0338	24	C7H7O4+
