Mass spectrum: Dimethomorph; LC-ESI-ITFT; MS2; CE: 60%; R=7500; [M+H]+
Name: Dimethomorph
Name: (Z)-3-(4-chlorophenyl)-3-(3,4-dimethoxyphenyl)-1-(4-morpholinyl)-2-propen-1-one
Formula: C21H22ClNO4
Exact mass: 387.1237
SMILES: COC1=C(C=C(C=C1)/C(=C/C(=O)N2CCOCC2)/C3=CC=C(C=C3)Cl)OC
InChI: InChI=1S/C21H22ClNO4/c1-25-19-8-5-16(13-20(19)26-2)18(15-3-6-17(22)7-4-15)14-21(24)23-9-11-27-12-10-23/h3-8,13-14H,9-12H2,1-2H3/b18-14+
Instrument: LTQ Orbitrap XL Thermo Scientific
Instrument type: LC-ESI-ITFT
Ms type: MS2
Ion mode: POSITIVE
Ionization: ESI
Fragmentation mode: HCD
Collision energy: 60 % (nominal)
Resolution: 7500
Column name: XBridge C18 3.5um, 2.1x50mm, Waters
Retention time: 10.8 min
Base peak: 388.1318
Precursor m/z: 388.131
Precursor type: [M+H]+
m/z	relative intensity	assigned
70.0288	74	C3H4NO+
77.0384	3	C6H5+
79.0542	4	C6H7+
88.0755	2	C4H10NO+
107.0498	1	C4H10ClN+
109.0647	4	C7H9O+
110.9993	2	C6H4Cl+
114.0551	43	C5H8NO2+
118.0418	1	C5H9ClN+
122.0362	10	C7H6O2+
125.0153	90	C7H6Cl+
126.031	1	C6H6O3+
131.0498	1	C9H7O+
133.0657	1	C6H12ClN+
137.015	5	C8H6Cl+
137.0597	26	C8H9O2+
138.9947	287	C7H4ClO+
146.0361	1	C9H6O2+
148.052	2	C9H8O2+
149.0154	1	C9H6Cl+
151.0381	1	C6H5N3O2+
152.0617	2	C12H8+
155.0705	2	C8H11O3+
162.9944	7	C9H4ClO+
165.0548	999	C9H9O3+
167.0853	11	C13H11+
177.0697	3	C14H9+
178.0775	7	C14H10+
179.0859	4	C14H11+
187.0302	2	C12H8Cl+
193.0646	2	C11H12ClN+
194.0724	3	C14H10O+
195.0805	35	C14H11O+
199.0308	6	C13H8Cl+
201.0471	3	C13H10Cl+
207.0808	3	C12H14ClN+
208.0521	1	C11H11ClNO+
208.0888	2	C15H12O+
212.038	4	C14H9Cl+
213.0471	5	C14H10Cl+
215.0259	43	C13H8ClO+
222.0665	1	C15H10O2+
223.0756	57	C15H11O2+
226.0184	3	C14H7ClO+
227.0259	22	C14H8ClO+
228.0335	11	C14H9ClO+
229.0416	21	C14H10ClO+
230.049	11	C14H11ClO+
235.0753	18	C16H11O2+
238.0989	109	C16H14O2+
239.0257	2	C15H8ClO+
240.0337	7	C15H9ClO+
241.0419	11	C15H10ClO+
242.0494	228	C15H11ClO+
243.0209	76	C14H8ClO2+
243.0574	11	C15H12ClO+
251.0703	9	C16H11O3+
256.0282	8	C15H9ClO2+
257.0365	42	C15H10ClO2+
258.0443	226	C15H11ClO2+
266.0939	20	C17H14O3+
269.0364	5	C16H10ClO2+
270.0444	35	C16H11ClO2+
271.0154	3	C15H8ClO3+
273.0678	230	C16H14ClO2+
285.0313	4	C16H10ClO3+
286.0391	23	C16H11ClO3+
301.0628	143	C17H14ClO3+
303.043	1	C16H12ClO4+
