Mass spectrum: Aerucyclamide A; LC-ESI-QFT; MS2; CE: 75%; R=17500; [M+H]+
Name: Aerucyclamide A
Name: (1S,4S,7R,8S,18R)-4,18-bis[(2S)-butan-2-yl]-7-methyl-6-oxa-13,20-dithia-3,10,17,22,23,24-hexazatetracyclo[17.2.1.15,8.112,15]tetracosa-5(24),12(23),14,19(22)-tetraene-2,9,16-trione
Class: NA
Formula: C24H34N6O4S2
Exact mass: 534.2083
SMILES: CC[C@H](C)[C@@H]1NC(=O)[C@H]2CSC(=N2)[C@H](NC(=O)c3csc(CNC(=O)[C@H]4N=C1O[C@@H]4C)n3)[C@@H](C)CC
InChI: InChI=1S/C24H34N6O4S2/c1-6-11(3)17-23-30-19(13(5)34-23)22(33)25-8-16-26-14(9-35-16)20(31)29-18(12(4)7-2)24-27-15(10-36-24)21(32)28-17/h9,11-13,15,17-19H,6-8,10H2,1-5H3,(H,25,33)(H,28,32)(H,29,31)/t11-,12-,13+,15+,17-,18+,19-/m0/s1
Instrument: Q Exactive Plus Orbitrap Thermo Scientific
Instrument type: LC-ESI-QFT
Ms type: MS2
Ion mode: POSITIVE
Ionization: ESI
Fragmentation mode: HCD
Collision energy: 75 % (nominal)
Resolution: 17500
Column name: XBridge C18 3.5um, 2.1x50mm, Waters
Retention time: 10.697 min
Base peak: 164.9845
Precursor m/z: 535.2156
Precursor type: [M+H]+
m/z	relative intensity	assigned
53.0021	29	C3HO+
54.0339	96	C3H4N+
55.0544	43	C4H7+
56.0495	561	C3H6N+
57.9871	42	C2H2S+
58.0651	42	C3H8N+
58.995	334	C2H3S+
67.0541	87	C5H7+
68.0494	84	C4H6N+
69.0334	217	C4H5O+
69.0447	75	C3H5N2+
69.0698	980	C5H9+
70.065	29	C4H8N+
70.9949	41	C3H3S+
71.9904	34	C2H2NS+
72.0682	52	C3H8N2+
79.0541	73	C6H7+
80.0494	59	C5H6N+
81.07	44	C6H9+
82.0652	44	C5H8N+
83.0603	52	C4H7N2+
84.0444	575	C4H6NO+
84.0807	190	C5H10N+
85.0395	69	C3H5N2O+
86.0058	999	C3H4NS+
86.0963	456	C5H12N+
86.9898	87	C3H3OS+
94.065	76	C6H8N+
95.0729	37	C6H9N+
96.0443	249	C5H6NO+
96.0806	77	C6H10N+
97.0107	30	C5H5S+
97.0396	55	C4H5N2O+
98.0059	670	C4H4NS+
99.0137	200	C4H5NS+
99.9848	208	C3H2NOS+
100.0218	40	C4H6NS+
104.0164	52	C3H6NOS+
108.0806	67	C7H10N+
110.06	76	C6H8NO+
111.9853	71	C4H2NOS+
112.0214	424	C5H6NS+
113.0166	140	C4H5N2S+
113.0289	95	C5H7NS+
113.0415	37	C6H9S+
114.0006	110	C4H4NOS+
116.0164	149	C4H6NOS+
120.0809	32	C8H10N+
121.0884	37	C8H11N+
124.0214	129	C6H6NS+
125.0166	82	C5H5N2S+
125.1069	97	C7H13N2+
126.0008	112	C5H4NOS+
126.037	89	C6H8NS+
129.0116	53	C4H5N2OS+
129.9958	506	C4H4NO2S+
131.0273	256	C4H7N2OS+
137.0176	30	H11NO3S2+
139.0449	81	C7H9NS+
141.0116	811	C5H5N2OS+
141.1017	50	C7H13N2O+
142.0195	31	C5H6N2OS+
143.0037	84	C5H5NO2S+
144.0112	503	C5H6NO2S+
150.0372	52	C8H8NS+
151.0324	46	C7H7N2S+
152.107	56	C9H14NO+
153.0114	77	C6H5N2OS+
154.0192	40	C6H6N2OS+
154.0686	326	C8H12NS+
156.0223	43	C5H6N3OS+
157.0069	241	C5H5N2O2S+
158.038	58	C5H8N3OS+
159.0222	694	C5H7N2O2S+
160.0062	77	C5H6NO3S+
169.0064	56	C6H5N2O2S+
179.0277	45	C8H7N2OS+
179.9814	89	C7H4N2S2+
180.0349	103	C8H8N2OS+
185.0016	912	C6H5N2O3S+
185.0379	414	C7H9N2O2S+
191.0641	53	C4H17NO3S2+
192.047	33	C2H14N3O3S2+
207.0043	46	C9H7N2S2+
207.0218	34	CH11N4O4S2+
209.0746	64	C10H13N2OS+
219.9995	82	C9H6N3S2+
226.0288	59	C16H4NO+
