Mass spectrum: Melamine; LC-ESI-QFT; MS2; CE: 75; R=35000; [M+H]+
Name: Melamine
Name: 1,3,5-Triazine-2,4,6-triamine
Name: 1,3,5-triazine-2,4,6-triamine
Formula: C3H6N6
Exact mass: 126.06539
SMILES: c1(nc(nc(n1)N)N)N
InChI: InChI=1S/C3H6N6/c4-1-7-2(5)9-3(6)8-1/h(H6,4,5,6,7,8,9)
Instrument: Q Exactive Orbitrap Thermo Scientific
Instrument type: LC-ESI-QFT
Ms type: MS2
Ion mode: POSITIVE
Ionization: ESI
Fragmentation mode: HCD
Collision energy: 75 (nominal)
Resolution: 35000
Column name: XBridge C18 3.5um, 2.1x50mm, Waters
Retention time: 0.8 min
Base peak: 127.0727
Precursor m/z: 127.0727
Precursor type: [M+H]+
m/z	relative intensity	assigned
60.0557	56	CH6N3+
68.0243	115	C2H2N3+
85.0509	999	C2H5N4+
110.0461	30	C3H4N5+
127.0727	875	C3H7N6+
