Mass spectrum: Naltrexone; LC-ESI-ITFT; MS2; CE: 45%; R=15000; [M+H]+
Name: Naltrexone
Name: (5alpha)-17-(Cyclopropylmethyl)-3,14-dihydroxy-4,5-epoxymorphinan-6-one
Formula: C20H23NO4
Exact mass: 341.1627
SMILES: c12[C@]34[C@@]5([C@H]([N@](CC6CC6)CC4)Cc2ccc(c1O[C@H]3C(=O)CC5)O)O
InChI: InChI=1S/C20H23NO4/c22-13-4-3-12-9-15-20(24)6-5-14(23)18-19(20,16(12)17(13)25-18)7-8-21(15)10-11-1-2-11/h3-4,11,15,18,22,24H,1-2,5-10H2/t15-,18+,19+,20-/m1/s1
Instrument: LTQ Orbitrap XL Thermo Scientific
Instrument type: LC-ESI-ITFT
Ms type: MS2
Ion mode: POSITIVE
Ionization: ESI
Fragmentation mode: HCD
Collision energy: 45 % (nominal)
Resolution: 15000
Column name: XBridge C18 3.5um, 2.1x50mm, Waters
Retention time: 3.1 min
Base peak: 342.1712
Precursor m/z: 342.17
Precursor type: [M+H]+
m/z	relative intensity	assigned
55.0542	15	C4H7+
56.0494	3	C3H6N+
148.0756	4	C9H10NO+
161.0595	5	C10H9O2+
173.06	3	C11H9O2+
181.0649	3	C13H9O+
185.0595	3	C12H9O2+
199.0759	6	C13H11O2+
201.1152	6	C13H15NO+
209.0963	3	C15H13O+
210.0906	4	C14H12NO+
211.0752	6	C14H11O2+
213.0793	2	C13H11NO2+
213.0908	4	C14H13O2+
215.0701	4	C13H11O3+
225.0906	4	C15H13O2+
226.0862	4	C14H12NO2+
227.0705	25	C14H11O3+
227.1064	7	C15H15O2+
228.1018	22	C14H14NO2+
240.1011	3	C15H14NO2+
252.102	5	C16H14NO2+
253.1222	2	C17H17O2+
254.1175	6	C16H16NO2+
264.1015	4	C17H14NO2+
264.1381	3	C18H18NO+
267.1253	157	C17H17NO2+
269.1051	4	C16H15NO3+
270.1123	193	C16H16NO3+
282.1127	31	C17H16NO3+
282.1487	109	C18H20NO2+
296.1654	8	C19H22NO2+
306.1478	7	C20H20NO2+
324.1594	999	C20H22NO3+
342.1696	176	C20H24NO4+
