Mass spectrum: Perfluorobutane sulfonic acid (PFBuS); LC-ESI-QFT; MS2; CE: 75; R=35000; [M-H]-
Name: Perfluorobutane sulfonic acid (PFBuS)
Name: Perfluorobutanesulfonic acid
Name: 1,1,2,2,3,3,4,4,4-nonafluorobutane-1-sulfonic acid
Formula: C4HF9O3S
Exact mass: 299.95027
SMILES: C(C(C(F)(F)S(=O)(=O)O)(F)F)(C(F)(F)F)(F)F
InChI: InChI=1S/C4HF9O3S/c5-1(6,3(9,10)11)2(7,8)4(12,13)17(14,15)16/h(H,14,15,16)
Instrument: Q Exactive Plus Orbitrap Thermo Scientific
Instrument type: LC-ESI-QFT
Ms type: MS2
Ion mode: NEGATIVE
Ionization: ESI
Fragmentation mode: HCD
Collision energy: 75 (nominal)
Resolution: 35000
Column name: XBridge C18 3.5um, 2.1x50mm, Waters
Retention time: 7.8 min
Base peak: 298.9428
Precursor m/z: 298.943
Precursor type: [M-H]-
m/z	relative intensity	assigned
68.9959	3	CF3-
79.9574	999	O3S-
82.9609	23	FO2S-
84.9906	1	CF3O-
98.9558	317	FO3S-
118.9927	1	C2F5-
298.9433	3	C4F9O3S-
