Mass spectrum: Furathiocarb; LC-ESI-QFT; MS2; CE: 60%; R=17500; [M+H]+
Name: Furathiocarb
Name: (2,2-dimethyl-3H-1-benzofuran-7-yl) N-[butoxycarbonyl(methyl)amino]sulfanyl-N-methylcarbamate
Formula: C18H26N2O5S
Exact mass: 382.1562
SMILES: CCCCOC(=O)N(C)SN(C)C(=O)OC1=CC=CC2=C1OC(C2)(C)C
InChI: InChI=1S/C18H26N2O5S/c1-6-7-11-23-16(21)19(4)26-20(5)17(22)24-14-10-8-9-13-12-18(2,3)25-15(13)14/h8-10H,6-7,11-12H2,1-5H3
Instrument: Exploris 240 Orbitrap Thermo Scientific
Instrument type: LC-ESI-QFT
Ms type: MS2
Ion mode: POSITIVE
Ionization: ESI
Fragmentation mode: HCD
Collision energy: 60 % (nominal)
Resolution: 17500
Column name: XBridge C18 3.5um, 2.1x50mm, Waters
Retention time: 13.069 min
Base peak: 383.1633
Precursor m/z: 383.1635
Precursor type: [M+H]+
m/z	relative intensity	assigned
55.0178	36	C3H3O+
55.0544	20	C4H7+
57.0698	171	C4H9+
58.0286	26	C2H4NO+
58.995	22	C2H3S+
62.0059	143	CH4NS+
76.0393	42	C2H6NO2+
79.0544	24	C6H7+
84.9743	69	C3HOS+
85.011	23	C4H5S+
87.0266	34	C4H7S+
90.0373	80	C3H8NS+
91.0541	32	C7H7+
93.0699	18	C7H9+
97.0107	78	C5H5S+
105.0699	115	C8H9+
107.0493	62	C7H7O+
107.0856	41	C8H11+
109.0283	39	C6H5O2+
109.0649	29	C7H9O+
115.0543	84	C9H7+
116.0622	27	C9H8+
117.0701	41	C9H9+
122.0362	89	C7H6O2+
123.0439	99	C7H7O2+
125.0055	518	C6H5OS+
131.0494	45	C9H7O+
133.0648	159	C9H9O+
134.0725	26	C9H10O+
135.0805	104	C9H11O+
139.0215	34	C7H7OS+
139.0576	46	C8H11S+
143.049	40	C10H7O+
144.0569	99	C10H8O+
145.0652	20	C10H9O+
146.0725	89	C10H10O+
147.0447	26	C9H7O2+
149.0423	110	C9H9S+
149.0599	383	C9H9O2+
153.0366	99	C8H9OS+
161.0591	131	C10H9O2+
162.0675	819	C10H10O2+
164.0831	640	C10H12O2+
167.0525	999	C9H11OS+
177.0368	313	C10H9OS+
195.0474	888	C10H11O2S+
