Mass spectrum: Triflumizole FM-6-1; LC-ESI-QFT; MS2; CE: 15%; R=17500; [M+H]+
Name: Triflumizole FM-6-1
Name: Ethanimidamide, N-(4-chloro-2-(trifluoromethyl)phenyl)-2-propoxy-
Name: N`-[4-chloro-2-(trifluoromethyl)phenyl]-2-propoxyethanimidamide
Formula: C12H14ClF3N2O
Exact mass: 294.0747
SMILES: CCCOCC(=NC1=C(C=C(C=C1)Cl)C(F)(F)F)N
InChI: InChI=1S/C12H14ClF3N2O/c1-2-5-19-7-11(17)18-10-4-3-8(13)6-9(10)12(14,15)16/h3-4,6H,2,5,7H2,1H3,(H2,17,18)
Instrument: Exploris 240 Orbitrap Thermo Scientific
Instrument type: LC-ESI-QFT
Ms type: MS2
Ion mode: POSITIVE
Ionization: ESI
Fragmentation mode: HCD
Collision energy: 15 % (nominal)
Resolution: 17500
Column name: XBridge C18 3.5um, 2.1x50mm, Waters
Retention time: 5.242 min
Base peak: 295.0817
Precursor m/z: 295.082
Precursor type: [M+H]+
m/z	relative intensity	assigned
278.0544	8	C12H12ClF3NO+
295.0819	999	C12H15ClF3N2O+
