Mass spectrum: Dimethenamide ESA; LC-ESI-ITFT; MS2; CE: 45%; R=15000; [M+H]+
Name: Dimethenamide ESA
Name: 2-[(2,4-Dimethyl-3-thienyl)(1-methoxy-2-propanyl)amino]-2-oxoethanesulfonic acid
Formula: C12H19NO5S2
Exact mass: 321.0705
SMILES: S(C=C1C)C(C)=C1N(C(=O)CS(=O)(=O)O)C(COC)C
InChI: InChI=1S/C12H19NO5S2/c1-8-6-19-10(3)12(8)13(9(2)5-18-4)11(14)7-20(15,16)17/h6,9H,5,7H2,1-4H3,(H,15,16,17)
Instrument: LTQ Orbitrap XL Thermo Scientific
Instrument type: LC-ESI-ITFT
Ms type: MS2
Ion mode: POSITIVE
Ionization: ESI
Fragmentation mode: HCD
Collision energy: 45 % (nominal)
Resolution: 15000
Column name: XBridge C18 3.5um, 2.1x50mm, Waters
Retention time: 6.7 min
Base peak: 322.0788
Precursor m/z: 322.0777
Precursor type: [M+H]+
m/z	relative intensity	assigned
73.0648	40	C4H9O+
82.0651	14	C5H8N+
95.0728	1	C6H9N+
111.0263	31	C6H7S+
112.0341	15	C6H8S+
113.0292	1	C5H7NS+
113.0418	3	C6H9S+
114.0369	1	C5H8NS+
122.0967	1	C8H12N+
124.034	1	C7H8S+
125.0419	24	C7H9S+
126.0372	20	C6H8NS+
127.0212	6	C6H7OS+
127.0451	8	C6H9NS+
127.0576	3	C7H11S+
128.0528	22	C6H10NS+
134.0964	23	C9H12N+
135.0263	5	C8H7S+
135.1041	4	C9H13N+
136.112	4	C9H14N+
138.0372	20	C7H8NS+
139.0578	1	C8H11S+
140.0528	3	C7H10NS+
149.0421	2	C9H9S+
150.0371	11	C8H8NS+
150.0497	63	C9H10S+
151.045	9	C8H9NS+
151.0576	12	C9H11S+
152.0528	138	C8H10NS+
153.0371	1	C8H9OS+
153.0603	1	C8H11NS+
154.0678	1	C8H12NS+
155.04	3	C7H9NOS+
162.022	1	C5H8NO3S+
162.0913	4	C10H12NO+
163.0992	3	C10H13NO+
164.107	6	C10H14NO+
165.073	1	C10H13S+
166.0686	449	C9H12NS+
167.0763	208	C9H13NS+
168.0476	42	C8H10NOS+
168.0842	331	C9H14NS+
169.0557	3	C8H11NOS+
170.0633	9	C8H12NOS+
176.107	27	C11H14NO+
177.1153	1	C11H15NO+
180.0481	1	C9H10NOS+
180.0844	2	C10H14NS+
192.0838	2	C11H14NS+
194.0633	30	C10H12NOS+
195.9577	1	C6N2O4S+
200.1106	1	C10H18NOS+
206.0633	2	C5H18O4S2+
208.0789	6	C11H14NOS+
209.087	122	C11H15NOS+
210.0947	999	C11H16NOS+
226.0896	25	C11H16NO2S+
250.0202	4	C8H12NO4S2+
272.0411	5	C11H14NO3S2+
290.0516	755	C11H16NO4S2+
