Mass spectrum: PCP; LC-ESI-QFT; MS2; CE: 15; R=35000; [M-H]-
Name: PCP
Name: Pentachlorophenol
Name: 2,3,4,5,6-pentachlorophenol
Formula: C6HCl5O
Exact mass: 263.84700
SMILES: C1(=C(C(=C(C(=C1Cl)Cl)Cl)Cl)Cl)O
InChI: InChI=1S/C6HCl5O/c7-1-2(8)4(10)6(12)5(11)3(1)9/h12H
Instrument: Q Exactive Plus Orbitrap Thermo Scientific
Instrument type: LC-ESI-QFT
Ms type: MS2
Ion mode: NEGATIVE
Ionization: ESI
Fragmentation mode: HCD
Collision energy: 15 (nominal)
Resolution: 35000
Column name: XBridge C18 3.5um, 2.1x50mm, Waters
Retention time: 15.6 min
Base peak: 264.8365
Precursor m/z: 262.8397
Precursor type: [M-H]-
m/z	relative intensity	assigned
262.8397	999	C6Cl5O-
