Mass spectrum: 2-(3-Hydroxycyclohexyl)-5-(2-methyl-2-octanyl)phenol; LC-ESI-QFT; MS2; CE: 90; R=35000; [M-H]-
Name: 2-(3-Hydroxycyclohexyl)-5-(2-methyl-2-octanyl)phenol
Name: CP47.497
Name: 2-(3-hydroxycyclohexyl)-5-(2-methyloctan-2-yl)phenol
Formula: C21H34O2
Exact mass: 318.25588
SMILES: CCCCCCC(C)(C)C1=CC(=C(C=C1)C2CCCC(C2)O)O
InChI: InChI=1S/C21H34O2/c1-4-5-6-7-13-21(2,3)17-11-12-19(20(23)15-17)16-9-8-10-18(22)14-16/h11-12,15-16,18,22-23H,4-10,13-14H2,1-3H3
Instrument: Q Exactive Plus Orbitrap Thermo Scientific
Instrument type: LC-ESI-QFT
Ms type: MS2
Ion mode: NEGATIVE
Ionization: ESI
Fragmentation mode: HCD
Collision energy: 90 (nominal)
Resolution: 35000
Column name: XBridge C18 3.5um, 2.1x50mm, Waters
Retention time: 17.0 min
Base peak: 363.2538
Precursor m/z: 317.2486
Precursor type: [M-H]-
m/z	relative intensity	assigned
57.0346	29	C3H5O-
65.0397	2	C5H5-
69.0345	2	C4H5O-
83.0502	24	C5H7O-
106.0424	3	C7H6O-
108.0216	1	C6H4O2-
121.0293	2	C7H5O2-
132.058	1	C9H8O-
133.0659	48	C9H9O-
134.0373	15	C8H6O2-
143.0504	3	C10H7O-
145.0659	14	C10H9O-
146.0738	13	C10H10O-
147.045	1	C9H7O2-
147.0816	18	C10H11O-
149.0606	1	C9H9O2-
151.0402	4	C8H7O3-
157.0654	1	C11H9O-
159.0815	999	C11H11O-
160.053	1	C10H8O2-
160.0893	6	C11H12O-
161.0971	16	C11H13O-
163.0765	1	C10H11O2-
170.0737	3	C12H10O-
171.0816	10	C12H11O-
173.097	8	C12H13O-
174.0685	4	C11H10O2-
175.0763	2	C11H11O2-
175.1128	21	C12H15O-
177.0557	103	C10H9O3-
183.0815	12	C13H11O-
185.0972	465	C13H13O-
186.1046	2	C13H14O-
187.1128	15	C13H15O-
199.1127	4	C14H15O-
201.1281	2	C14H17O-
203.0714	22	C12H11O3-
203.1442	4	C14H19O-
209.0971	15	C15H13O-
211.1125	2	C15H15O-
213.1285	115	C15H17O-
215.1435	2	C15H19O-
218.0947	2	C13H14O3-
219.1753	4	C15H23O-
227.0713	1	C14H11O3-
227.1078	5	C15H15O2-
227.1442	1	C16H19O-
229.1233	9	C15H17O2-
229.16	4	C16H21O-
231.139	45	C15H19O2-
245.1911	225	C17H25O-
255.1752	3	C18H23O-
269.191	1	C19H25O-
271.2067	59	C19H27O-
295.2069	5	C21H27O-
299.238	2	C21H31O-
