Mass spectrum: Alfuzosin; LC-ESI-QFT; MS2; CE: 120; R=35000; [M+H]+
Name: Alfuzosin
Name: N-{3-[(4-Amino-6,7-dimethoxy-2-quinazolinyl)(methyl)amino]propyl}tetrahydro-2-furancarboxamide
Name: N-[3-[(4-amino-6,7-dimethoxyquinazolin-2-yl)-methylamino]propyl]oxolane-2-carboxamide
Formula: C19H27N5O4
Exact mass: 389.20630
SMILES: CN(CCCNC(=O)C1CCCO1)C2=NC3=CC(=C(C=C3C(=N2)N)OC)OC
InChI: InChI=1S/C19H27N5O4/c1-24(8-5-7-21-18(25)14-6-4-9-28-14)19-22-13-11-16(27-3)15(26-2)10-12(13)17(20)23-19/h10-11,14H,4-9H2,1-3H3,(H,21,25)(H2,20,22,23)
Instrument: Q Exactive Plus Orbitrap Thermo Scientific
Instrument type: LC-ESI-QFT
Ms type: MS2
Ion mode: POSITIVE
Ionization: ESI
Fragmentation mode: HCD
Collision energy: 120 (nominal)
Resolution: 35000
Column name: XBridge C18 3.5um, 2.1x50mm, Waters
Retention time: 5.3 min
Base peak: 390.2132
Precursor m/z: 390.2136
Precursor type: [M+H]+
m/z	relative intensity	assigned
50.0151	1	C4H2+
51.0229	4	C4H3+
52.0182	1	C3H2N+
53.0022	30	C3HO+
53.0386	7	C4H5+
53.9975	7	C2NO+
54.0339	1	C3H4N+
55.0179	7	C3H3O+
55.0542	4	C4H7+
56.0495	2	C3H6N+
57.0447	98	C2H5N2+
58.0287	13	C2H4NO+
58.0651	22	C3H8N+
59.0491	8	C3H7O+
63.0229	11	C5H3+
64.0181	4	C4H2N+
64.0307	1	C5H4+
65.0386	17	C5H5+
67.0416	3	C4H5N+
67.9893	6	C3O2+
68.0494	3	C4H6N+
69.0335	1	C4H5O+
69.0446	1	C3H5N2+
70.0652	1	C4H8N+
71.0491	999	C4H7O+
72.0807	1	C4H10N+
77.0259	1	C5H3N+
78.0338	17	C5H4N+
79.0178	1	C5H3O+
79.0416	10	C5H5N+
80.0494	28	C5H6N+
81.0335	7	C5H5O+
82.0651	1	C5H8N+
86.06	18	C4H8NO+
90.0338	30	C6H4N+
91.0417	16	C6H5N+
92.0257	1	C6H4O+
92.0369	10	C5H4N2+
92.0495	21	C6H6N+
93.0447	3	C5H5N2+
93.0572	1	C6H7N+
94.0288	1	C5H4NO+
95.0364	1	C5H5NO+
95.0491	4	C6H7O+
96.0444	4	C5H6NO+
101.0261	2	C7H3N+
102.0339	3	C7H4N+
103.0417	7	C7H5N+
104.0368	4	C6H4N2+
104.0495	7	C7H6N+
105.0447	125	C6H5N2+
106.0288	14	C6H4NO+
106.0525	39	C6H6N2+
107.0366	14	C6H5NO+
107.0604	15	C6H7N2+
108.0444	9	C6H6NO+
109.0522	3	C6H7NO+
110.06	4	C6H8NO+
111.044	4	C6H7O2+
115.0292	1	C7H3N2+
116.0368	1	C7H4N2+
117.0447	27	C7H5N2+
118.0287	4	C7H4NO+
118.0525	30	C7H6N2+
119.0365	9	C7H5NO+
119.0604	31	C7H7N2+
120.0081	12	C6H2NO2+
120.0319	14	C6H4N2O+
120.0444	44	C7H6NO+
121.0285	1	C7H5O2+
121.0396	6	C6H5N2O+
129.0447	13	C8H5N2+
130.0398	5	C7H4N3+
130.0525	11	C8H6N2+
131.0243	3	C7H3N2O+
131.0479	5	C7H5N3+
131.0603	9	C8H7N2+
132.0319	3	C7H4N2O+
132.0444	1	C8H6NO+
132.0557	7	C7H6N3+
132.0687	2	C8H8N2+
133.0396	120	C7H5N2O+
133.0633	6	C7H7N3+
134.0237	5	C7H4NO2+
134.0474	43	C7H6N2O+
134.0598	3	C8H8NO+
134.0712	4	C7H8N3+
135.0315	21	C7H5NO2+
135.0553	72	C7H7N2O+
136.0392	4	C7H6NO2+
142.04	1	C8H4N3+
143.0476	1	C8H5N3+
144.0319	1	C8H4N2O+
144.0556	11	C8H6N3+
145.0396	23	C8H5N2O+
145.0635	9	C8H7N3+
146.0237	14	C8H4NO2+
146.0474	5	C8H6N2O+
146.0588	1	C7H6N4+
146.0714	6	C8H8N3+
147.0553	201	C8H7N2O+
147.0664	44	C7H7N4+
148.0394	10	C8H6NO2+
148.0631	3	C8H8N2O+
148.0744	3	C7H8N4+
149.071	16	C8H9N2O+
150.055	29	C8H8NO2+
151.0504	1	C7H7N2O2+
156.0556	7	C9H6N3+
157.0396	1	C9H5N2O+
158.0714	6	C9H8N3+
159.0427	4	C8H5N3O+
159.0554	7	C9H7N2O+
160.0505	31	C8H6N3O+
161.0345	54	C8H5N2O2+
161.0582	10	C8H7N3O+
161.0708	6	C9H9N2O+
161.0819	8	C8H9N4+
162.0424	10	C8H6N2O2+
162.0662	18	C8H8N3O+
162.0899	18	C8H10N4+
163.0501	21	C8H7N2O2+
163.0981	4	C8H11N4+
168.0555	1	C10H6N3+
172.0505	9	C9H6N3O+
173.0346	23	C9H5N2O2+
173.0584	5	C9H7N3O+
173.0822	20	C9H9N4+
174.0544	2	C8H6N4O+
174.0663	16	C9H8N3O+
174.09	12	C9H10N4+
175.0502	121	C9H7N2O2+
176.0693	12	C8H8N4O+
176.082	1	C9H10N3O+
177.0296	1	C8H5N2O3+
177.0659	23	C9H9N2O2+
177.0773	1	C8H9N4O+
178.0614	5	C8H8N3O2+
185.0821	5	C10H9N4+
186.066	3	C10H8N3O+
186.0903	1	C10H10N4+
187.0378	4	C9H5N3O2+
187.0499	7	C10H7N2O2+
187.0978	1	C10H11N4+
188.0455	44	C9H6N3O2+
189.0534	7	C9H7N3O2+
189.0665	9	C10H9N2O2+
189.077	23	C9H9N4O+
190.0611	24	C9H8N3O2+
190.084	2	C9H10N4O+
191.0451	15	C9H7N2O3+
191.0926	19	C9H11N4O+
200.0451	1	C10H6N3O2+
201.077	4	C10H9N4O+
202.0611	39	C10H8N3O2+
203.0927	9	C10H11N4O+
204.0643	18	C9H8N4O2+
204.0758	7	C10H10N3O2+
206.056	8	C9H8N3O3+
206.0798	1	C9H10N4O2+
214.0611	1	C11H8N3O2+
217.0721	25	C10H9N4O2+
219.0877	73	C10H11N4O2+
229.0721	6	C11H9N4O2+
231.0877	31	C11H11N4O2+
235.0824	1	C10H11N4O3+
245.1033	1	C12H13N4O2+
247.0821	1	C11H11N4O3+
