Mass spectrum: Sulisobenzone; LC-ESI-QFT; MS2; CE: 60%; R=15000; [M+H]+
Name: Sulisobenzone
Name: 5-benzoyl-4-hydroxy-2-methoxybenzenesulfonic acid
Formula: C14H12O6S
Exact mass: 308.0355
SMILES: COC1=C(C=C(C(=C1)O)C(=O)C2=CC=CC=C2)S(=O)(=O)O
InChI: InChI=1S/C14H12O6S/c1-20-12-8-11(15)10(7-13(12)21(17,18)19)14(16)9-5-3-2-4-6-9/h2-8,15H,1H3,(H,17,18,19)
Instrument: Orbitrap Exploris 240 Thermo Scientific
Instrument type: LC-ESI-QFT
Ms type: MS2
Ion mode: POSITIVE
Ionization: ESI
Fragmentation mode: HCD
Collision energy: 60 % (nominal)
Resolution: 15000
Column name: Atlantis C18 3um, 3.0x150mm, Waters
Retention time: 21.459 min
Base peak: 301.141
Precursor m/z: 309.0427
Precursor type: [M+H]+
Precursor intensity: 2643682.25
m/z	relative intensity	assigned
55.018	15	C3H3O+
95.0493	24	C6H7O+
105.0335	226	C7H5O+
107.0129	56	C6H3O2+
121.0287	13	C7H5O2+
134.0002	29	C7H2O3+
135.0077	414	C7H3O3+
141.0702	45	C11H9+
151.039	46	C8H7O3+
198.9696	294	C7H3O5S+
230.9959	999	C8H7O6S+
