Mass spectrum: Chlorothalonil-TP R471811; LC-ESI-QFT; MS2; CE: 45%; R=17500; [M+H]+
Name: Chlorothalonil-TP R471811
Name: 2,4-dicarbamoyl-3,5,6-trichlorobenzenesulfonic acid
Formula: C8H5Cl3N2O5S
Exact mass: 345.8985
SMILES: NC(=O)C1=C(Cl)C(C(N)=O)=C(C(Cl)=C1Cl)S(O)(=O)=O
InChI: InChI=1S/C8H5Cl3N2O5S/c9-3-1(7(12)14)4(10)5(11)6(19(16,17)18)2(3)8(13)15/h(H2,12,14)(H2,13,15)(H,16,17,18)
Instrument: Q Exactive Plus Orbitrap Thermo Scientific
Instrument type: LC-ESI-QFT
Ms type: MS2
Ion mode: POSITIVE
Ionization: ESI
Fragmentation mode: HCD
Collision energy: 45 % (nominal)
Resolution: 17500
Column name: XBridge C18 3.5um, 2.1x50mm, Waters
Retention time: 1.062 min
Base peak: 346.906
Precursor m/z: 346.9058
Precursor type: [M+H]+
m/z	relative intensity	assigned
128.9738	13	C5H2ClO2+
166.9217	236	C5H2Cl3+
173.9507	49	C6H2Cl2NO+
186.9349	178	C7HCl2O2+
194.9165	35	C6H2Cl3O+
201.9459	23	C7H2Cl2NO2+
204.9011	113	C7Cl3O+
221.9274	390	C7H3Cl3NO+
222.9116	999	C7H2Cl3O2+
229.9407	387	C8H2Cl2NO3+
247.9064	16	C8HCl3NO2+
248.8908	23	C8Cl3O3+
265.9175	98	C8H3Cl3NO3+
266.9017	148	C8H2Cl3O4+
286.8737	20	C7H2Cl3O4S+
311.8681	17	C8HCl3NO4S+
312.8527	603	C8Cl3O5S+
329.8791	471	C8H3Cl3NO5S+
