Mass spectrum: Benzoyl hydrazine; LC-ESI-QFT; MS2; CE: 15%; R=15000; [M+H]+
Name: Benzoyl hydrazine
Name: benzohydrazide
Formula: C7H8N2O
Exact mass: 136.0636629
SMILES: C1=CC=C(C=C1)C(=O)NN
InChI: InChI=1S/C7H8N2O/c8-9-7(10)6-4-2-1-3-5-6/h1-5H,8H2,(H,9,10)
Instrument: Exploris 240 Thermo Scientific
Instrument type: LC-ESI-QFT
Ms type: MS2
Ion mode: POSITIVE
Ionization: ESI
Fragmentation mode: HCD
Collision energy: 15 % (nominal)
Resolution: 15000
Column name: XBridge C18 3.5um, 2.1x50mm, Waters
Retention time: 2.099 min
Base peak: 137.0706
Precursor m/z: 137.0709
Precursor type: [M+H]+
m/z	relative intensity	assigned
59.0239	11	CH3N2O+
137.0706	999	C7H9N2O+
