Mass spectrum: Atorvastatin; LC-ESI-ITFT; MS2; CE: 35%; R=30000; [M-H]-
Name: Atorvastatin
Name: (3R,5R)-7-[3-(anilinocarbonyl)-5-(4-fluorophenyl)-2-isopropyl-4-phenyl-1H-pyrrol-1-yl]-3,5-dihydroxyheptanoic acid
Name: (3R,5R)-7-[2-(4-fluorophenyl)-3-phenyl-4-(phenylcarbamoyl)-5-propan-2-yl-pyrrol-1-yl]-3,5-bis(oxidanyl)heptanoic acid
Formula: C33H35FN2O5
Exact mass: 558.2530
SMILES: c1(c(n(CC[C@H](C[C@H](CC(=O)O)O)O)c(c1C(Nc1ccccc1)=O)C(C)C)c1ccc(F)cc1)c1ccccc1
InChI: InChI=1S/C33H35FN2O5/c1-21(2)31-30(33(41)35-25-11-7-4-8-12-25)29(22-9-5-3-6-10-22)32(23-13-15-24(34)16-14-23)36(31)18-17-26(37)19-27(38)20-28(39)40/h3-16,21,26-27,37-38H,17-20H2,1-2H3,(H,35,41)(H,39,40)/t26-,27-/m1/s1
Instrument: LTQ Orbitrap XL Thermo Scientific
Instrument type: LC-ESI-ITFT
Ms type: MS2
Ion mode: NEGATIVE
Ionization: ESI
Fragmentation mode: CID
Collision energy: 35 % (nominal)
Resolution: 30000
Column name: XBridge C18 3.5um, 2.1x50mm, Waters
Retention time: 12.5 min
Base peak: 557.2442
Precursor m/z: 557.2457
Precursor type: [M-H]-
m/z	relative intensity	assigned
278.1355	5	C19H17FN-
397.1717	820	C26H22FN2O-
453.198	999	C29H26FN2O2-
477.2345	16	C32H30FN2O-
479.2136	236	C31H28FN2O2-
495.2454	21	C32H32FN2O2-
521.2243	212	C33H30FN2O3-
539.2343	19	C33H32FN2O4-
