Mass spectrum: Cefaclor; LC-ESI-QFT; MS2; CE: 60; R=35000; [M-H]-
Name: Cefaclor
Name: CEFACLOR
Name: (6R,7R)-7-[[(2R)-2-amino-1-oxo-2-phenylethyl]amino]-3-chloro-8-oxo-5-thia-1-azabicyclo[4.2.0]oct-2-ene-2-carboxylic acid
Formula: C15H14ClN3O4S
Exact mass: 367.03935
SMILES: O=C2N1/C(=C(/Cl)CS[C@@H]1[C@@H]2NC(=O)[C@@H](c3ccccc3)N)C(=O)O
InChI: InChI=1S/C15H14ClN3O4S/c16-8-6-24-14-10(13(21)19(14)11(8)15(22)23)18-12(20)9(17)7-4-2-1-3-5-7/h1-5,9-10,14H,6,17H2,(H,18,20)(H,22,23)/t9-,10-,14-/m1/s1
Instrument: Q Exactive Orbitrap Thermo Scientific
Instrument type: LC-ESI-QFT
Ms type: MS2
Ion mode: NEGATIVE
Ionization: ESI
Fragmentation mode: HCD
Collision energy: 60 (nominal)
Resolution: 35000
Column name: XBridge C18 3.5um, 2.1x50mm, Waters
Retention time: 4.1 min
Base peak: 286.0657
Precursor m/z: 366.0321
Precursor type: [M-H]-
m/z	relative intensity	assigned
56.9804	226	C2HS-
57.9757	598	CNS-
58.996	12	C2H3S-
63.9625	14	O2S-
65.0144	103	C3HN2-
65.9985	141	C3NO-
67.0301	85	C3H3N2-
72.0091	101	C2H2NO2-
74.007	17	C2H4NS-
81.9757	131	C3NS-
83.9912	159	C3H2NS-
84.0091	56	C3H2NO2-
86.007	139	C3H4NS-
86.991	18	C3H3OS-
90.0225	52	C5H2N2-
91.0302	310	C5H3N2-
93.0458	999	C5H5N2-
95.9914	18	C4H2NS-
96.9992	239	C4H3NS-
98.007	269	C4H4NS-
99.9861	17	C3H2NOS-
101.0396	56	C8H5-
105.0458	81	C6H5N2-
107.0251	26	C5H3N2O-
108.9991	118	C5H3NS-
110.0071	392	C5H4NS-
111.02	17	C4H3N2O2-
111.9863	85	C4H2NOS-
116.0507	299	C8H6N-
117.0346	17	C8H5O-
118.041	16	C6H4N3-
119.025	204	C6H3N2O-
121.0408	61	C6H5N2O-
123.0023	321	C5H3N2S-
124.0101	998	C5H4N2S-
124.9941	123	C5H3NOS-
125.0179	253	C5H5N2S-
126.002	103	C5H4NOS-
127.0337	14	C5H7N2S-
131.986	16	C4H3ClNO2-
135.0022	75	C6H3N2S-
135.9862	359	C6H2NOS-
136.9941	124	C6H3NOS-
143.0016	85	C5H4ClN2O-
146.0123	97	C7H2N2O2-
147.02	19	C7H3N2O2-
150.9971	468	C6H3N2OS-
152.005	428	C6H4N2OS-
153.0128	220	C6H5N2OS-
155.0613	25	C10H7N2-
156.0694	242	C10H8N2-
159.0563	25	C9H7N2O-
171.0565	75	C10H7N2O-
173.0481	401	C10H7NO2-
175.0509	20	C9H7N2O2-
178.9918	69	C7H3N2O2S-
180	145	C7H4N2O2S-
181.0773	31	C12H9N2-
187.0514	401	C10H7N2O2-
189.0492	84	C10H9N2S-
189.0671	171	C10H9N2O2-
198.0672	16	C11H8N3O-
200.0592	442	C11H8N2O2-
208.0877	26	C13H10N3-
214.0622	53	C11H8N3O2-
216.0779	180	C11H10N3O2-
225.0495	25	C13H9N2S-
225.0666	51	C13H9N2O2-
233.0391	131	C11H9N2O2S-
