Mass spectrum: Epinephrine; LC-ESI-QFT; MS2; CE: 75; R=35000; [M-H]-
Name: Epinephrine
Name: 4-[(1R)-1-hydroxy-2-(methylamino)ethyl]benzene-1,2-diol
Formula: C9H13NO3
Exact mass: 183.08954
SMILES: CNC[C@@H](C1=CC(=C(C=C1)O)O)O
InChI: InChI=1S/C9H13NO3/c1-10-5-9(13)6-2-3-7(11)8(12)4-6/h2-4,9-13H,5H2,1H3/t9-/m0/s1
Instrument: Q Exactive Orbitrap Thermo Scientific
Instrument type: LC-ESI-QFT
Ms type: MS2
Ion mode: NEGATIVE
Ionization: ESI
Fragmentation mode: HCD
Collision energy: 75 (nominal)
Resolution: 35000
Column name: XBridge C18 3.5um, 2.1x50mm, Waters
Retention time: 0.8 min
Base peak: 182.0824
Precursor m/z: 182.0823
Precursor type: [M-H]-
m/z	relative intensity	assigned
80.0267	1	C5H4O-
81.0346	1	C5H5O-
92.0506	5	C6H6N-
93.0346	12	C6H5O-
95.0503	4	C6H7O-
102.0349	4	C7H4N-
105.0345	1	C7H5O-
108.0218	12	C6H4O2-
109.0296	38	C6H5O2-
120.0457	2	C7H6NO-
121.0296	24	C7H5O2-
122.0374	999	C7H6O2-
123.0452	38	C7H7O2-
124.0166	17	C6H4O3-
130.0298	5	C8H4NO-
131.0378	6	C8H5NO-
133.0297	1	C8H5O2-
134.0374	11	C8H6O2-
135.0452	31	C8H7O2-
136.0166	7	C7H4O3-
137.0244	51	C7H5O3-
139.0399	1	C7H7O3-
147.0326	22	C8H5NO2-
148.0405	252	C8H6NO2-
149.0481	310	C8H7NO2-
153.0196	1	C7H5O4-
154.0272	50	C7H6O4-
160.0404	6	C9H6NO2-
161.0482	22	C9H7NO2-
162.0561	17	C9H8NO2-
163.064	8	C9H9NO2-
164.0718	89	C9H10NO2-
