Mass spectrum: Difethialone; LC-ESI-QFT; MS2; CE: 45%; R=17500; [M-H]-
Name: Difethialone
Name: 3-[3-[4-(4-bromophenyl)phenyl]-1,2,3,4-tetrahydronaphthalen-1-yl]-2-hydroxythiochromen-4-one
Formula: C31H23BrO2S
Exact mass: 538.0602
SMILES: C1C(CC2=CC=CC=C2C1C3=C(SC4=CC=CC=C4C3=O)O)C5=CC=C(C=C5)C6=CC=C(C=C6)Br
InChI: InChI=1S/C31H23BrO2S/c32-24-15-13-20(14-16-24)19-9-11-21(12-10-19)23-17-22-5-1-2-6-25(22)27(18-23)29-30(33)26-7-3-4-8-28(26)35-31(29)34/h1-16,23,27,34H,17-18H2
Instrument: Exploris 240 Orbitrap Thermo Scientific
Instrument type: LC-ESI-QFT
Ms type: MS2
Ion mode: NEGATIVE
Ionization: ESI
Fragmentation mode: HCD
Collision energy: 45 % (nominal)
Resolution: 17500
Column name: XBridge C18 3.5um, 2.1x50mm, Waters
Retention time: 17.379 min
Base peak: 539.0508
Precursor m/z: 537.0529
Precursor type: [M-H]-
m/z	relative intensity	assigned
78.9189	999	Br-
109.0117	49	C6H5S-
122.0196	30	C7H6S-
133.0117	58	C8H5S-
143.0501	20	C10H7O-
149.0066	31	C8H5OS-
151.0223	153	C8H7OS-
177.0017	15	C9H5O2S-
203.0172	55	C11H7O2S-
235.0586	26	C16H11S-
371.0441	62	C23H16Br-
491.0471	18	C30H20BrS-
493.0631	31	C30H22BrS-
537.0528	530	C31H22BrO2S-
