Mass spectrum: Ethoxyquin; LC-ESI-QFT; MS2; CE: 15; R=35000; [M+H]+
Name: Ethoxyquin
Name: 6-ethoxy-2,2,4-trimethyl-1H-quinoline
Formula: C14H19NO
Exact mass: 217.14666
SMILES: CCOC1=CC2=C(C=C1)NC(C=C2C)(C)C
InChI: InChI=1S/C14H19NO/c1-5-16-11-6-7-13-12(8-11)10(2)9-14(3,4)15-13/h6-9,15H,5H2,1-4H3
Instrument: Q Exactive Plus Orbitrap Thermo Scientific
Instrument type: LC-ESI-QFT
Ms type: MS2
Ion mode: POSITIVE
Ionization: ESI
Fragmentation mode: HCD
Collision energy: 15 (nominal)
Resolution: 35000
Column name: XBridge C18 3.5um, 2.1x50mm, Waters
Retention time: 7.0 min
Base peak: 218.1537
Precursor m/z: 218.1539
Precursor type: [M+H]+
m/z	relative intensity	assigned
148.0758	2	C9H10NO+
162.0912	1	C10H12NO+
176.1072	6	C11H14NO+
189.1147	2	C12H15NO+
190.1229	4	C12H16NO+
218.1541	999	C14H20NO+
