Mass spectrum: delta9-Tetrahydrocannabinol; LC-ESI-QFT; MS2; CE: 90; R=35000; [M+H]+
Name: delta9-Tetrahydrocannabinol
Name: delta9-THC
Name: 6,6,9-trimethyl-3-pentyl-6a,7,8,10a-tetrahydrobenzo[c]chromen-1-ol
Formula: C21H30O2
Exact mass: 314.22458
SMILES: CCCCCC1=CC2=C(C3C=C(CCC3C(O2)(C)C)C)C(=C1)O
InChI: InChI=1S/C21H30O2/c1-5-6-7-8-15-12-18(22)20-16-11-14(2)9-10-17(16)21(3,4)23-19(20)13-15/h11-13,16-17,22H,5-10H2,1-4H3
Instrument: Q Exactive Plus Orbitrap Thermo Scientific
Instrument type: LC-ESI-QFT
Ms type: MS2
Ion mode: POSITIVE
Ionization: ESI
Fragmentation mode: HCD
Collision energy: 90 (nominal)
Resolution: 35000
Column name: XBridge C18 3.5um, 2.1x50mm, Waters
Retention time: 17.8 min
Base peak: 391.2837
Precursor m/z: 315.2319
Precursor type: [M+H]+
m/z	relative intensity	assigned
50.0151	10	C4H2+
51.0229	16	C4H3+
52.0307	1	C4H4+
53.0023	59	C3HO+
53.0386	148	C4H5+
53.9975	12	C2NO+
55.0179	170	C3H3O+
55.0543	319	C4H7+
57.0335	9	C3H5O+
57.0699	64	C4H9+
59.0492	8	C3H7O+
65.0386	141	C5H5+
66.0465	7	C5H6+
67.0543	720	C5H7+
67.9893	16	C3O2+
69.0335	66	C4H5O+
69.0699	426	C5H9+
71.0491	3	C4H7O+
71.0855	6	C5H11+
73.0648	7	C4H9O+
77.0386	94	C6H5+
78.0464	8	C6H6+
79.0542	552	C6H7+
80.0621	22	C6H8+
81.0336	62	C5H5O+
81.0699	511	C6H9+
83.0128	35	C4H3O2+
83.0491	50	C5H7O+
83.0855	8	C6H11+
89.0385	2	C7H5+
90.0465	2	C7H6+
91.0543	771	C7H7+
92.0621	9	C7H8+
93.07	461	C7H9+
94.0414	18	C6H6O+
94.0778	8	C7H10+
95.0492	605	C6H7O+
95.0856	89	C7H11+
97.0284	6	C5H5O2+
97.0649	19	C6H9O+
97.1013	2	C7H13+
103.0543	49	C8H7+
104.0622	11	C8H8+
105.0448	224	C6H5N2+
105.07	272	C8H9+
106.0417	2	C7H6O+
107.0492	218	C7H7O+
107.0856	152	C8H11+
108.057	49	C7H8O+
109.0286	12	C6H5O2+
109.0649	163	C7H9O+
109.1013	36	C8H13+
110.0364	2	C6H6O2+
111.0442	37	C6H7O2+
115.0543	48	C9H7+
116.0621	18	C9H8+
117.0699	55	C9H9+
119.0493	19	C8H7O+
119.0606	35	C7H7N2+
119.0857	61	C9H11+
120.0573	3	C8H8O+
120.0936	8	C9H12+
121.0396	6	C6H5N2O+
121.0649	84	C8H9O+
121.1013	37	C9H13+
123.0441	999	C7H7O2+
124.052	11	C7H8O2+
125.0597	2	C7H9O2+
128.0621	41	C10H8+
129.07	46	C10H9+
130.0778	9	C10H10+
131.0492	26	C9H7O+
131.0856	38	C10H11+
132.0571	11	C9H8O+
133.0649	34	C9H9O+
133.1015	13	C10H13+
135.0441	20	C8H7O2+
135.0804	12	C9H11O+
135.117	8	C10H15+
136.0521	69	C8H8O2+
137.0598	95	C8H9O2+
141.07	31	C11H9+
142.0779	21	C11H10+
143.0856	20	C11H11+
144.0571	20	C10H8O+
144.0936	2	C11H12+
145.0649	34	C10H9O+
145.1012	9	C11H13+
146.0729	11	C10H10O+
147.0442	55	C9H7O2+
147.0805	16	C10H11O+
148.0521	10	C9H8O2+
149.0599	10	C9H9O2+
149.0959	2	C10H13O+
152.0621	2	C12H8+
153.07	7	C12H9+
154.0776	3	C12H10+
155.0604	6	C10H7N2+
155.0857	13	C12H11+
156.0934	6	C12H12+
157.0649	9	C11H9O+
157.1013	8	C12H13+
158.0725	9	C11H10O+
159.0442	6	C10H7O2+
159.0806	21	C11H11O+
160.052	56	C10H8O2+
161.0598	80	C10H9O2+
161.0958	4	C11H13O+
162.0675	6	C10H10O2+
163.0756	2	C10H11O2+
165.0699	7	C13H9+
165.0912	3	C10H13O2+
169.0649	7	C12H9O+
169.076	2	C11H9N2+
169.1014	5	C13H13+
170.0726	3	C12H10O+
171.0802	12	C12H11O+
172.088	2	C12H12O+
173.0599	36	C11H9O2+
173.0961	6	C12H13O+
174.0677	92	C11H10O2+
175.0756	28	C11H11O2+
175.1117	1	C12H15O+
177.1276	15	C12H17O+
178.078	1	C14H10+
181.0649	1	C13H9O+
183.0805	6	C13H11O+
184.0884	16	C13H12O+
185.096	2	C13H13O+
186.0673	3	C12H10O2+
187.0755	57	C12H11O2+
188.0831	12	C12H12O2+
193.1224	53	C12H17O2+
197.0962	3	C14H13O+
201.0914	3	C13H13O2+
202.0989	17	C13H14O2+
215.1069	2	C14H15O2+
217.1226	9	C14H17O2+
231.1382	14	C15H19O2+
243.1383	8	C16H19O2+
