Mass spectrum: Ioxitalamic acid; LC-ESI-ITFT; MS2; CE: 15%; R=7500; [M+H]+
Name: Ioxitalamic acid
Name: 3-acetamido-5-(2-hydroxyethylcarbamoyl)-2,4,6-triiodo-benzoic acid
Formula: C12H11I3N2O5
Exact mass: 643.7802
SMILES: CC(=O)NC1=C(I)C(C(O)=O)=C(I)C(C(=O)NCCO)=C1I
InChI: InChI=1S/C12H11I3N2O5/c1-4(19)17-10-8(14)5(11(20)16-2-3-18)7(13)6(9(10)15)12(21)22/h18H,2-3H2,1H3,(H,16,20)(H,17,19)(H,21,22)
Instrument: LTQ Orbitrap XL Thermo Scientific
Instrument type: LC-ESI-ITFT
Ms type: MS2
Ion mode: POSITIVE
Ionization: ESI
Fragmentation mode: HCD
Collision energy: 15 % (nominal)
Resolution: 7500
Column name: XBridge C18 3.5um, 2.1x50mm, Waters
Retention time: 1.3 min
Base peak: 132.958
Precursor m/z: 644.7875
Precursor type: [M+H]+
m/z	relative intensity	assigned
272.929	360	C8H4INO2+
289.9313	159	C8H5INO3+
428.8371	585	C9H5I2NO3+
455.8222	646	C10H4I2NO4+
516.877	243	C12H11I2N2O5+
583.7363	999	C10H5I3NO4+
644.7887	291	C12H12I3N2O5+
