Mass spectrum: Losartan; LC-ESI-QFT; MS2; CE: 90; R=35000; [M+H]+
Name: Losartan
Name: [2-butyl-5-chloranyl-3-[[4-[2-(2H-1,2,3,4-tetrazol-5-yl)phenyl]phenyl]methyl]imidazol-4-yl]methanol
Formula: C22H23ClN6O
Exact mass: 421.15436
SMILES: Clc1nc(n(c1CO)Cc4ccc(c2ccccc2c3[nH]nnn3)cc4)CCCC
InChI: InChI=1S/C22H23ClN6O/c1-2-3-8-20-24-21(23)19(14-30)29(20)13-15-9-11-16(12-10-15)17-6-4-5-7-18(17)22-25-27-28-26-22/h4-7,9-12,30H,2-3,8,13-14H2,1H3,(H,25,26,27,28)
Instrument: Q Exactive Plus Orbitrap Thermo Scientific
Instrument type: LC-ESI-QFT
Ms type: MS2
Ion mode: POSITIVE
Ionization: ESI
Fragmentation mode: HCD
Collision energy: 90 (nominal)
Resolution: 35000
Column name: XBridge C18 3.5um, 2.1x50mm, Waters
Retention time: 8.9 min
Base peak: 423.1691
Precursor m/z: 423.1695
Precursor type: [M+H]+
m/z	relative intensity	assigned
50.0151	7	C4H2+
51.0229	6	C4H3+
52.0182	2	C3H2N+
53.0386	28	C4H5+
54.0338	9	C3H4N+
55.0542	26	C4H7+
57.0699	8	C4H9+
60.9839	5	C2H2Cl+
61.9792	1	CHClN+
63.0228	6	C5H3+
65.0384	4	C5H5+
67.0416	4	C4H5N+
67.0542	10	C5H7+
74.9994	1	C3H4Cl+
75.0228	4	C6H3+
75.9948	1	C2H3ClN+
77.0385	40	C6H5+
78.0338	6	C5H4N+
79.0289	3	C4H3N2+
79.0542	19	C6H7+
80.0494	78	C5H6N+
81.0334	1	C5H5O+
81.0698	5	C6H9+
82.0651	1	C5H8N+
83.0854	4	C6H11+
84.0808	5	C5H10N+
87.9948	10	C3H3ClN+
89.0026	14	C3H4ClN+
89.0384	6	C7H5+
90.0464	1	C7H6+
91.0542	6	C7H7+
93.0447	4	C5H5N2+
93.0572	6	C6H7N+
95.0491	84	C6H7O+
96.0444	13	C5H6NO+
102.0105	16	C4H5ClN+
102.0337	7	C7H4N+
103.0543	6	C8H7+
104.0494	7	C7H6N+
105.0447	43	C6H5N2+
107.0603	7	C6H7N2+
108.0807	14	C7H10N+
113.0385	8	C9H5+
114.0337	1	C8H4N+
114.0464	5	C9H6+
115.0057	4	C4H4ClN2+
115.0542	38	C9H7+
116.0495	7	C8H6N+
117.0573	11	C8H7N+
120.0443	4	C7H6NO+
122.06	1	C7H8NO+
125.0385	3	C10H5+
126.0462	2	C10H6+
127.0542	16	C10H7+
128.0494	22	C9H6N+
128.062	11	C10H8+
129.0214	9	C5H6ClN2+
129.0446	28	C8H5N2+
129.0574	2	C9H7N+
129.0697	5	C10H9+
130.04	21	C7H4N3+
130.0652	2	C9H8N+
131.0603	1	C8H7N2+
135.0916	5	C8H11N2+
138.0462	9	C11H6+
139.0542	47	C11H7+
140.0494	120	C10H6N+
141.0213	7	C6H6ClN2+
141.0571	11	C10H7N+
141.0696	3	C11H9+
142.0292	101	C6H7ClN2+
144.0574	3	C7H11ClN+
145.0647	21	C10H9O+
146.06	6	C9H8NO+
149.0383	1	C12H5+
150.0464	16	C12H6+
151.0542	76	C12H7+
152.062	672	C12H8+
153.0573	23	C11H7N+
153.0698	171	C12H9+
154.0651	38	C11H8N+
155.0492	4	C8H10ClN+
155.0603	44	C10H7N2+
155.0854	3	C12H11+
156.0569	3	C11H8O+
162.0464	4	C13H6+
163.0542	176	C13H7+
164.0495	86	C12H6N+
164.0618	45	C13H8+
165.0698	363	C13H9+
166.0651	62	C12H8N+
166.0776	6	C13H10+
167.0729	61	C12H9N+
168.057	17	C12H8O+
168.0682	18	C11H8N2+
169.0647	224	C12H9O+
170.0599	16	C11H8NO+
171.0684	5	C8H12ClN2+
176.0492	1	C13H6N+
176.0619	3	C14H8+
177.0573	112	C13H7N+
178.0651	205	C13H8N+
178.0769	38	C14H10+
179.0607	102	C12H7N2+
179.0728	330	C13H9N+
180.0807	310	C13H10N+
181.0759	16	C12H9N2+
182.06	8	C12H8NO+
183.0678	20	C12H9NO+
183.0803	2	C13H11O+
185.0472	4	C8H10ClN2O+
187.0539	4	C15H7+
188.0494	16	C14H6N+
189.0573	39	C14H7N+
189.0695	5	C15H9+
190.065	330	C14H8N+
191.0602	45	C13H7N2+
191.0728	39	C14H9N+
192.0681	221	C13H8N2+
192.0805	27	C14H10N+
193.0521	10	C13H7NO+
194.06	23	C13H8NO+
196.0521	5	C10H11ClNO+
196.0756	62	C13H10NO+
201.0574	2	C15H7N+
202.0646	1	C15H8N+
203.0727	3	C15H9N+
204.0556	5	C13H6N3+
204.0679	2	C14H8N2+
204.0807	3	C15H10N+
205.076	999	C14H9N2+
206.0838	86	C14H10N2+
207.0679	14	C14H9NO+
207.0916	12	C14H11N2+
211.0628	11	C10H12ClN2O+
212.0501	1	C16H6N+
213.0572	1	C16H7N+
214.0651	65	C16H8N+
215.0602	10	C15H7N2+
215.0726	5	C16H9N+
216.0805	12	C16H10N+
217.0768	2	C14H14Cl+
217.0884	4	C16H11N+
218.0839	3	C15H10N2+
219.0912	1	C15H11N2+
220.0755	2	C15H10NO+
221.0469	6	C11H10ClN2O+
221.0712	1	C14H9N2O+
229.0756	5	C16H9N2+
231.0914	1	C16H11N2+
239.0599	8	C17H7N2+
240.0681	4	C17H8N2+
241.0761	9	C17H9N2+
242.0835	6	C17H10N2+
243.0914	1	C17H11N2+
253.0757	1	C18H9N2+
256.0866	1	C17H10N3+
257.0949	1	C17H11N3+
259.0864	3	C17H11N2O+
280.0878	4	C19H10N3+
281.0954	1	C19H11N3+
