Mass spectrum: Metribuzin-diketo; LC-ESI-ITFT; MS2; CE: 75%; R=7500; [M+H]+
Name: Metribuzin-diketo
Name: 4-amino-6-tert-butyl-2H-1,2,4-triazine-3,5-dione
Formula: C7H12N4O2
Exact mass: 184.0960
SMILES: O=C(NN=C1C(C)(C)C)N(N)C1=O
InChI: InChI=1S/C7H12N4O2/c1-7(2,3)4-5(12)11(8)6(13)10-9-4/h8H2,1-3H3,(H,10,13)
Instrument: LTQ Orbitrap XL Thermo Scientific
Instrument type: LC-ESI-ITFT
Ms type: MS2
Ion mode: POSITIVE
Ionization: ESI
Fragmentation mode: HCD
Collision energy: 75 % (nominal)
Resolution: 7500
Column name: XBridge C18 3.5um, 2.1x50mm, Waters
Retention time: 5.9 min
Base peak: 185.1036
Precursor m/z: 185.1033
Precursor type: [M+H]+
m/z	relative intensity	assigned
57.0698	868	C4H9+
59.0241	39	CH3N2O+
65.0385	46	C5H5+
67.0542	188	C5H7+
68.0495	116	C4H6N+
69.0084	193	C2HN2O+
69.0699	326	C5H9+
70.0287	56	C3H4NO+
70.0413	41	C4H6O+
70.0653	22	C4H8N+
78.0339	18	C5H4N+
82.0651	107	C5H8N+
83.0238	39	C3H3N2O+
83.0605	34	C4H7N2+
83.073	93	C5H9N+
84.0446	26	C4H6NO+
84.0808	141	C5H10N+
96.0444	324	C5H6NO+
97.0763	67	C5H9N2+
100.0507	29	C3H6N3O+
101.0348	96	C3H5N2O2+
101.0456	71	C2H5N4O+
110.06	313	C6H8NO+
111.0678	577	C6H9NO+
112.0141	75	C3H2N3O2+
114.0423	97	C4H6N2O2+
124.0505	24	C5H6N3O+
125.0715	50	C6H9N2O+
126.0659	45	C5H8N3O+
141.0658	454	C6H9N2O2+
143.0818	23	C6H11N2O2+
156.0889	119	C7H12N2O2+
157.1082	999	C6H13N4O+
169.0716	77	C6H9N4O2+
185.1033	649	C7H13N4O2+
