Mass spectrum: 1-Chlorobenzotriazole; LC-ESI-QFT; MS2; CE: 60; R=35000; [M+H]+
Name: 1-Chlorobenzotriazole
Name: 1-chloro-benzotriazole
Name: Chlorobenzotriazole
Formula: C6H4ClN3
Exact mass: 153.00937
SMILES: C1=CC=C2C(=C1)N=NN2Cl
InChI: InChI=1S/C6H4ClN3/c7-10-6-4-2-1-3-5(6)8-9-10/h1-4H
Instrument: Q Exactive Plus Orbitrap Thermo Scientific
Instrument type: LC-ESI-QFT
Ms type: MS2
Ion mode: POSITIVE
Ionization: ESI
Fragmentation mode: HCD
Collision energy: 60 (nominal)
Resolution: 35000
Column name: XBridge C18 3.5um, 2.1x50mm, Waters
Retention time: 6.4 min
Base peak: 154.0164
Precursor m/z: 154.0167
Precursor type: [M+H]+
m/z	relative intensity	assigned
63.0229	30	C5H3+
64.0182	1	C4H2N+
72.9839	8	C3H2Cl+
81.0335	5	C5H5O+
90.0339	210	C6H4N+
91.0417	33	C6H5N+
98.9996	305	C5H4Cl+
106.0287	1	C6H4NO+
126.0105	122	C6H5ClN+
154.0166	999	C6H5ClN3+
