Mass spectrum: Dimetilan; LC-ESI-QFT; MS2; CE: 60%; R=17500; [M+H]+
Name: Dimetilan
Name: [1-(dimethylcarbamoyl)-5-methylpyrazol-3-yl] N,N-dimethylcarbamate
Formula: C10H16N4O3
Exact mass: 240.1222
SMILES: CC1=CC(=NN1C(=O)N(C)C)OC(=O)N(C)C
InChI: InChI=1S/C10H16N4O3/c1-7-6-8(17-10(16)13(4)5)11-14(7)9(15)12(2)3/h6H,1-5H3
Instrument: Exploris 240 Orbitrap Thermo Scientific
Instrument type: LC-ESI-QFT
Ms type: MS2
Ion mode: POSITIVE
Ionization: ESI
Fragmentation mode: HCD
Collision energy: 60 % (nominal)
Resolution: 17500
Column name: XBridge C18 3.5um, 2.1x50mm, Waters
Retention time: 4.214 min
Base peak: 241.1293
Precursor m/z: 241.1295
Precursor type: [M+H]+
m/z	relative intensity	assigned
56.0132	4	C2H2NO+
72.0444	999	C3H6NO+
