Mass spectrum: Heptenophos; LC-ESI-QFT; MS2; CE: 30; R=35000; [M-H]-
Name: Heptenophos
Name: (6-chloranyl-7-bicyclo[3.2.0]hepta-3,6-dienyl) dimethyl phosphate
Name: Ragadan
Formula: C9H12ClO4P
Exact mass: 250.01617
SMILES: COP(=O)(OC)OC1=C(Cl)C2C=CCC12
InChI: InChI=1S/C9H12ClO4P/c1-12-15(11,13-2)14-9-7-5-3-4-6(7)8(9)10/h3-4,6-7H,5H2,1-2H3
Instrument: Q Exactive Orbitrap Thermo Scientific
Instrument type: LC-ESI-QFT
Ms type: MS2
Ion mode: NEGATIVE
Ionization: ESI
Fragmentation mode: HCD
Collision energy: 30 (nominal)
Resolution: 35000
Column name: XBridge C18 3.5um, 2.1x50mm, Waters
Retention time: 9.3 min
Base peak: 218.0311
Precursor m/z: 249.0089
Precursor type: [M-H]-
m/z	relative intensity	assigned
88.0088	40	C4H5Cl-
130.0172	42	C7H2N2O-
131.0137	495	C8H3O2-
159.0083	23	C9H3O3-
174.0239	17	C7H10ClNP-
175.0204	999	C6H9ClN2P-
193.0309	37	C6H11ClN2OP-
203.0154	436	C7H9ClN2OP-
221.0259	672	C7H11ClN2O2P-
231.0293	48	C8H10NO5P-
