Mass spectrum: Methiocarb-TP methiocarb sulfone phenol (M05); LC-ESI-QFT; MS2; CE: 60%; R=17500; [M-H]-
Name: Methiocarb-TP methiocarb sulfone phenol (M05)
Name: 3,5-dimethyl-4-methylsulfonylphenol
Name: methiocarb sulfone phenol
Formula: C9H12O3S
Exact mass: 200.0507
SMILES: CC1=CC(O)=CC(C)=C1S(C)(=O)=O
InChI: InChI=1S/C9H12O3S/c1-6-4-8(10)5-7(2)9(6)13(3,11)12/h4-5,10H,1-3H3
Instrument: Q Exactive Orbitrap Thermo Scientific
Instrument type: LC-ESI-QFT
Ms type: MS2
Ion mode: NEGATIVE
Ionization: ESI
Fragmentation mode: HCD
Collision energy: 60 % (nominal)
Resolution: 17500
Column name: XBridge C18 3.5um, 2.1x50mm, Waters
Retention time: 4.028 min
Base peak: 199.0434
Precursor m/z: 199.0434
Precursor type: [M-H]-
m/z	relative intensity	assigned
63.9623	20	O2S-
78.9859	26	CH3O2S-
79.9574	52	O3S-
106.0424	228	C7H6O-
109.0295	222	C6H5O2-
120.058	999	C8H8O-
121.0657	26	C8H9O-
122.0372	42	C7H6O2-
123.0451	86	C7H7O2-
134.0378	43	C8H6O2-
135.0452	618	C8H7O2-
135.0815	10	
136.0529	613	C8H8O2-
137.0245	72	C7H5O3-
151.0399	51	C8H7O3-
164.0483	27	C9H8O3-
184.0197	237	C8H8O3S-
199.0432	145	C9H11O3S-
