Mass spectrum: Cefaclor; LC-ESI-QFT; MS2; CE: 30; R=35000; [M+H]+
Name: Cefaclor
Name: CEFACLOR
Name: (6R,7R)-7-[[(2R)-2-amino-1-oxo-2-phenylethyl]amino]-3-chloro-8-oxo-5-thia-1-azabicyclo[4.2.0]oct-2-ene-2-carboxylic acid
Formula: C15H14ClN3O4S
Exact mass: 367.03935
SMILES: O=C2N1/C(=C(/Cl)CS[C@@H]1[C@@H]2NC(=O)[C@@H](c3ccccc3)N)C(=O)O
InChI: InChI=1S/C15H14ClN3O4S/c16-8-6-24-14-10(13(21)19(14)11(8)15(22)23)18-12(20)9(17)7-4-2-1-3-5-7/h1-5,9-10,14H,6,17H2,(H,18,20)(H,22,23)/t9-,10-,14-/m1/s1
Instrument: Q Exactive Orbitrap Thermo Scientific
Instrument type: LC-ESI-QFT
Ms type: MS2
Ion mode: POSITIVE
Ionization: ESI
Fragmentation mode: HCD
Collision energy: 30 (nominal)
Resolution: 35000
Column name: XBridge C18 3.5um, 2.1x50mm, Waters
Retention time: 4.1 min
Base peak: 368.0469
Precursor m/z: 368.0466
Precursor type: [M+H]+
m/z	relative intensity	assigned
70.0287	5	C3H4NO+
72.9981	1	C2H3NS+
74.0059	6	C2H4NS+
79.0542	17	C6H7+
86.0058	4	C3H4NS+
87.9949	14	C3H3ClN+
90.0464	1	C7H6+
91.0542	36	C7H7+
102.0106	1	C4H5ClN+
106.0651	999	C7H8N+
114.0008	98	C4H4NOS+
117.0572	3	C8H7N+
118.0413	81	C8H6O+
118.0651	59	C8H8N+
119.0491	21	C8H7O+
120.0808	1	C8H10N+
121.0105	7	C7H5S+
123.0261	7	C7H7S+
127.0325	7	C5H7N2S+
129.0214	7	C5H6ClN2+
132.0808	1	C9H10N+
133.0761	1	C8H9N2+
134.0004	6	C4H5ClNO2+
134.06	7	C8H8NO+
137.0419	1	C8H9S+
144.0113	3	C5H6NO2S+
145.9827	3	C5H5ClNS+
146.0601	39	C9H8NO+
147.0263	4	C9H7S+
150.0373	30	C8H8NS+
155.0005	4	C6H4ClN2O+
156.0808	1	C11H10N+
157.0164	1	C6H6ClN2O+
158.0601	4	C10H8NO+
159.9796	12	C5H3ClNO3+
160.9935	4	C5H6ClN2S+
161.071	5	C9H9N2O+
162.0372	19	C9H8NS+
163.045	6	C9H9NS+
163.0866	1	C9H11N2O+
164.0528	58	C9H10NS+
174.055	691	C10H8NO2+
177.9724	150	C5H5ClNO2S+
178.0321	71	C9H8NOS+
189.9723	11	C6H5ClNO2S+
190.0321	11	C10H8NOS+
190.0973	3	C10H12N3O+
191.0399	312	C10H9NOS+
192.0477	170	C10H10NOS+
198.0373	1	C12H8NS+
200.053	3	C12H10NS+
201.0061	3	C7H6ClN2O3+
204.9831	6	C6H6ClN2O2S+
205.9913	16	C6H7ClN2O2S+
207.0586	3	C10H11N2OS+
213.0479	1	C12H9N2S+
215.0635	16	C12H11N2S+
218.027	1	C11H8NO2S+
225.048	4	C13H9N2S+
226.0317	3	C13H8NOS+
232.9783	5	C7H6ClN2O3S+
243.0585	7	C13H11N2OS+
249.0246	1	C12H10ClN2S+
251.0408	3	C12H12ClN2S+
259.0535	3	C13H11N2O2S+
277.0197	7	C13H10ClN2OS+
279.035	2	C13H12ClN2OS+
295.0301	4	C13H12ClN2O2S+
305.0146	6	C14H10ClN2O2S+
305.9985	1	C14H9ClNO3S+
307.0301	9	C14H12ClN2O2S+
323.0258	7	C14H12ClN2O3S+
351.0197	1	C15H12ClN2O4S+
