Mass spectrum: MCPB; LC-ESI-ITFT; MS2; CE: 60%; R=7500; [M-H]-
Name: MCPB
Name: 4-(4-chloranyl-2-methyl-phenoxy)butanoic acid
Formula: C11H13ClO3
Exact mass: 228.0553
SMILES: c1(c(cc(Cl)cc1)C)OCCCC(O)=O
InChI: InChI=1S/C11H13ClO3/c1-8-7-9(12)4-5-10(8)15-6-2-3-11(13)14/h4-5,7H,2-3,6H2,1H3,(H,13,14)
Instrument: LTQ Orbitrap XL Thermo Scientific
Instrument type: LC-ESI-ITFT
Ms type: MS2
Ion mode: NEGATIVE
Ionization: ESI
Fragmentation mode: HCD
Collision energy: 60 % (nominal)
Resolution: 7500
Column name: XBridge C18 3.5um, 2.1x50mm, Waters
Retention time: 11.9 min
Base peak: 141.0115
Precursor m/z: 227.048
Precursor type: [M-H]-
m/z	relative intensity	assigned
141.0111	999	C7H6ClO-
