Mass spectrum: Azoxystrobin; LC-ESI-ITFT; MS2; CE: 30%; R=15000; [M+H]+
Name: Azoxystrobin
Name: Methyl (E)-2-[2-[6-(2-cyanophenoxy)pyrimidin-4-YL]oxyphenyl]-3-methoxy-prop-2-enoate
Formula: C22H17N3O5
Exact mass: 403.1168206
SMILES: CO/C=C(\C1=CC=CC=C1OC2=NC=NC(=C2)OC3=CC=CC=C3C#N)/C(=O)OC
InChI: InChI=1S/C22H17N3O5/c1-27-13-17(22(26)28-2)16-8-4-6-10-19(16)30-21-11-20(24-14-25-21)29-18-9-5-3-7-15(18)12-23/h3-11,13-14H,1-2H3/b17-13+
Instrument: LTQ Orbitrap XL Thermo Scientific
Instrument type: LC-ESI-ITFT
Ms type: MS2
Ion mode: POSITIVE
Ionization: ESI
Fragmentation mode: HCD
Collision energy: 30 % (nominal)
Resolution: 15000
Column name: XBridge C18 3.5um, 2.1x50mm, Waters
Retention time: 9.9 min
Base peak: 404.1245
Precursor m/z: 404.1241
Precursor type: [M+H]+
m/z	relative intensity	assigned
134.06	3	C8H8NO+
172.0395	8	C10H6NO2+
177.0539	1	C10H9O3+
201.066	6	C11H9N2O2+
287.0816	3	C18H11N2O2+
303.0752	6	C18H11N2O3+
316.1076	29	C19H14N3O2+
317.0927	3	C19H13N2O3+
329.079	18	C19H11N3O3+
340.0718	3	C20H10N3O3+
344.1027	274	C20H14N3O3+
372.0978	999	C21H14N3O4+
