Mass spectrum: Epoxiconazole; LC-ESI-ITFT; MS2; CE: 35%; R=30000; [M+H]+
Name: Epoxiconazole
Name: 1-[[(2S,3R)-3-(2-chlorophenyl)-2-(4-fluorophenyl)-2-oxiranyl]methyl]-1,2,4-triazole
Formula: C17H13ClFN3O
Exact mass: 329.0726
SMILES: C1=CC=C(C(=C1)C2C(O2)(CN3C=NC=N3)C4=CC=C(C=C4)F)Cl
InChI: InChI=1S/C17H13ClFN3O/c18-15-4-2-1-3-14(15)16-17(23-16,9-22-11-20-10-21-22)12-5-7-13(19)8-6-12/h1-8,10-11,16H,9H2/t16-,17-/m1/s1
Instrument: LTQ Orbitrap XL Thermo Scientific
Instrument type: LC-ESI-ITFT
Ms type: MS2
Ion mode: POSITIVE
Ionization: ESI
Fragmentation mode: CID
Collision energy: 35 % (nominal)
Resolution: 30000
Column name: XBridge C18 3.5um, 2.1x50mm, Waters
Retention time: 11.7 min
Base peak: 330.0812
Precursor m/z: 330.0804
Precursor type: [M+H]+
m/z	relative intensity	assigned
95.0291	10	C6H4F+
101.0386	18	C3H4FN3+
109.0449	3	C7H6F+
113.0152	15	C6H6Cl+
119.0493	2	C8H7O+
121.0449	751	C8H6F+
123.0241	999	C7H4FO+
129.0447	22	C8H5N2+
138.9946	11	C7H4ClO+
141.0102	280	C7H6ClO+
190.0775	27	C10H9FN3+
231.0372	2	C14H9ClF+
233.0526	4	C14H11ClF+
261.0475	76	C15H11ClFO+
274.0427	28	C15H10ClFNO+
276.0932	9	C17H11FN3+
312.0695	39	C17H12ClFN3+
