Mass spectrum: Fenson; LC-ESI-QFT; MS2; CE: 45%; R=17500; [M+H]+
Name: Fenson
Name: (4-chlorophenyl) benzenesulfonate
Formula: C12H9ClO3S
Exact mass: 267.9961
SMILES: C1=CC=C(C=C1)S(=O)(=O)OC2=CC=C(C=C2)Cl
InChI: InChI=1S/C12H9ClO3S/c13-10-6-8-11(9-7-10)16-17(14,15)12-4-2-1-3-5-12/h1-9H
Instrument: Exploris 240 Orbitrap Thermo Scientific
Instrument type: LC-ESI-QFT
Ms type: MS2
Ion mode: POSITIVE
Ionization: ESI
Fragmentation mode: HCD
Collision energy: 45 % (nominal)
Resolution: 17500
Column name: XBridge C18 3.5um, 2.1x50mm, Waters
Retention time: 9.705 min
Base peak: 170.0965
Precursor m/z: 269.0034
Precursor type: [M+H]+
m/z	relative intensity	assigned
53.0386	576	C4H5+
77.0386	999	C6H5+
81.0335	56	C5H5O+
94.0416	69	C6H6O+
95.0492	643	C6H7O+
97.0107	84	C5H5S+
98.9996	122	C5H4Cl+
125.0056	481	C6H5OS+
126.9945	416	C6H4ClO+
128.0025	123	C6H5ClO+
141.0006	539	C6H5O2S+
143.9971	54	C6H5ClO2+
