Mass spectrum: 2-Naphthoxyacetic acid; LC-ESI-QFT; MS2; CE: 15; R=35000; [M+H]+
Name: 2-Naphthoxyacetic acid
Name: beta-Naphthoxyacetic acid
Name: (2-Naphthyloxy)acetic acid
Formula: C12H10O3
Exact mass: 202.06299
SMILES: C1=CC=C2C=C(C=CC2=C1)OCC(=O)O
InChI: InChI=1S/C12H10O3/c13-12(14)8-15-11-6-5-9-3-1-2-4-10(9)7-11/h1-7H,8H2,(H,13,14)
Instrument: Q Exactive Plus Orbitrap Thermo Scientific
Instrument type: LC-ESI-QFT
Ms type: MS2
Ion mode: POSITIVE
Ionization: ESI
Fragmentation mode: HCD
Collision energy: 15 (nominal)
Resolution: 35000
Column name: XBridge C18 3.5um, 2.1x50mm, Waters
Retention time: 8.5 min
Base peak: 230.1747
Precursor m/z: 203.0703
Precursor type: [M+H]+
m/z	relative intensity	assigned
55.0542	1	C4H7+
83.0855	5	C6H11+
87.0442	1	C4H7O2+
101.0598	1	C5H9O2+
107.0855	2	C8H11+
111.0805	6	C7H11O+
115.0543	2	C9H7+
127.0539	8	C10H7+
128.0615	1	C10H8+
129.0699	86	C10H9+
135.0805	2	C9H11O+
139.0754	5	C8H11O2+
143.0707	1	C7H11O3+
144.0568	1	C10H8O+
145.0649	4	C10H9O+
155.0605	6	C10H7N2+
157.0648	999	C11H9O+
175.0754	9	C11H11O2+
185.0598	14	C12H9O2+
203.0704	36	C12H11O3+
