Mass spectrum: Ofloxacin; LC-ESI-QFT; MS2; CE: 30; R=35000; [M+H]+
Name: Ofloxacin
Name: DL-8280
Formula: C18H20FN3O4
Exact mass: 361.14378
SMILES: Fc4cc1c2N(/C=C(\C1=O)C(=O)O)C(COc2c4N3CCN(C)CC3)C
InChI: InChI=1S/C18H20FN3O4/c1-10-9-26-17-14-11(16(23)12(18(24)25)8-22(10)14)7-13(19)15(17)21-5-3-20(2)4-6-21/h7-8,10H,3-6,9H2,1-2H3,(H,24,25)
Instrument: Q Exactive Orbitrap Thermo Scientific
Instrument type: LC-ESI-QFT
Ms type: MS2
Ion mode: POSITIVE
Ionization: ESI
Fragmentation mode: HCD
Collision energy: 30 (nominal)
Resolution: 35000
Column name: XBridge C18 3.5um, 2.1x50mm, Waters
Retention time: 4.1 min
Base peak: 362.151
Precursor m/z: 362.1511
Precursor type: [M+H]+
m/z	relative intensity	assigned
58.0651	9	C3H8N+
70.065	5	C4H8N+
72.0807	2	C4H10N+
84.0807	5	C5H10N+
219.0566	1	C11H8FN2O2+
221.072	2	C11H10FN2O2+
233.0724	4	C12H10FN2O2+
241.0972	1	C14H13N2O2+
247.0876	6	C13H12FN2O2+
261.1033	270	C14H14FN2O2+
270.1235	4	C15H16N3O2+
273.1039	1	C15H14FN2O2+
275.1187	1	C15H16FN2O2+
298.1551	8	C17H20N3O2+
316.1458	35	C17H19FN3O2+
318.1611	999	C17H21FN3O2+
344.14	11	C18H19FN3O3+
362.1509	362	C18H21FN3O4+
