Mass spectrum: O-desmethylvenlafaxine; LC-ESI-ITFT; MS2; CE: 75%; R=7500; [M+H]+
Name: O-desmethylvenlafaxine
Name: Desvenlafaxine
Name: 4-[2-(dimethylamino)-1-(1-hydroxycyclohexyl)ethyl]phenol
Formula: C16H25NO2
Exact mass: 263.1885
SMILES: CN(C)CC(C1=CC=C(C=C1)O)C2(CCCCC2)O
InChI: InChI=1S/C16H25NO2/c1-17(2)12-15(13-6-8-14(18)9-7-13)16(19)10-4-3-5-11-16/h6-9,15,18-19H,3-5,10-12H2,1-2H3
Instrument: LTQ Orbitrap XL Thermo Scientific
Instrument type: LC-ESI-ITFT
Ms type: MS2
Ion mode: POSITIVE
Ionization: ESI
Fragmentation mode: HCD
Collision energy: 75 % (nominal)
Resolution: 7500
Column name: XBridge C18 3.5um, 2.1x50mm, Waters
Retention time: 4.8 min
Base peak: 264.1971
Precursor m/z: 264.1958
Precursor type: [M+H]+
m/z	relative intensity	assigned
58.0652	999	C3H8N+
79.0542	32	C6H7+
81.0699	64	C6H9+
91.0543	9	C7H7+
105.07	42	C8H9+
107.0493	527	C7H7O+
121.0651	14	C8H9O+
131.0853	15	C10H11+
133.0649	226	C9H9O+
141.0701	6	C11H9+
145.0648	58	C10H9O+
147.0801	7	C10H11O+
149.0841	12	C9H11NO+
159.0807	49	C11H11O+
163.0993	15	C10H13NO+
164.1064	6	C10H14NO+
169.0765	7	C11H9N2+
