Mass spectrum: CGA62826 (2-[2,6-dimethylphenyl)-methoxyacetylamino]propionic acid; LC-ESI-QFT; MS2; CE: 30; R=35000; [M-H]-
Name: CGA62826 (2-[2,6-dimethylphenyl)-methoxyacetylamino]propionic acid
Name: N-(2,6-Dimethylphenyl)-N-(methoxyacetyl)-L-alanine
Name: (2S)-2-(N-(2-methoxyacetyl)-2,6-dimethylanilino)propanoic acid
Formula: C14H19NO4
Exact mass: 265.13141
SMILES: Cc1cccc(c1N([C@@H](C)C(=O)O)C(=O)COC)C
InChI: InChI=1S/C14H19NO4/c1-9-6-5-7-10(2)13(9)15(11(3)14(17)18)12(16)8-19-4/h5-7,11H,8H2,1-4H3,(H,17,18)/t11-/m0/s1
Instrument: Q Exactive Plus Orbitrap Thermo Scientific
Instrument type: LC-ESI-QFT
Ms type: MS2
Ion mode: NEGATIVE
Ionization: ESI
Fragmentation mode: HCD
Collision energy: 30 (nominal)
Resolution: 35000
Column name: XBridge C18 3.5um, 2.1x50mm, Waters
Retention time: 7.8 min
Base peak: 264.1239
Precursor m/z: 264.1241
Precursor type: [M-H]-
m/z	relative intensity	assigned
57.0346	6	C3H5O-
58.006	7	C2H2O2-
66.035	6	C4H4N-
71.014	18	C3H3O2-
72.0217	2	C3H4O2-
73.0296	9	C3H5O2-
84.0218	1	C4H4O2-
85.0295	366	C4H5O2-
87.0452	10	C4H7O2-
88.0404	17	C3H6NO2-
89.0245	119	C3H5O3-
101.0608	1	C5H9O2-
110.0248	61	C5H4NO2-
117.0713	2	C9H9-
120.0819	13	C8H10N-
121.066	407	C8H9O-
130.0662	122	C9H8N-
132.0819	25	C9H10N-
142.051	45	C6H8NO3-
142.0662	3	C10H8N-
144.0819	81	C10H10N-
146.0976	254	C10H12N-
148.1133	139	C10H14N-
156.0817	1	C11H10N-
158.0611	3	C10H8NO-
158.0976	1	C11H12N-
159.0691	1	C10H9NO-
170.0976	11	C12H12N-
172.0769	10	C11H10NO-
174.0925	36	C11H12NO-
175.1004	3	C11H13NO-
176.0717	5	C10H10NO2-
176.1082	7	C11H14NO-
186.0925	2	C12H12NO-
188.1082	30	C12H14NO-
191.0954	3	C11H13NO2-
192.1032	999	C11H14NO2-
202.1237	2	C13H16NO-
204.1031	382	C12H14NO2-
205.1108	221	C12H15NO2-
214.0878	1	C13H12NO2-
218.1188	1	C13H16NO2-
220.1344	541	C13H18NO2-
221.0202	1	C9H5N2O5-
231.0904	4	C13H13NO3-
237.1007	20	C12H15NO4-
246.1134	6	C14H16NO3-
264.1241	133	C14H18NO4-
