Mass spectrum: Benzisothiazolone (BIT); LC-ESI-ITFT; MS2; CE: 75%; R=15000; [M+H]+
Name: Benzisothiazolone (BIT)
Name: 1,2-Benzisothiazol-3(2H)-one
Name: 1,2-benzothiazol-3-one
Formula: C7H5NOS
Exact mass: 151.0092
SMILES: c12c(cccc2)s[nH]c1=O
InChI: InChI=1S/C7H5NOS/c9-7-5-3-1-2-4-6(5)10-8-7/h1-4H,(H,8,9)
Instrument: LTQ Orbitrap XL Thermo Scientific
Instrument type: LC-ESI-ITFT
Ms type: MS2
Ion mode: POSITIVE
Ionization: ESI
Fragmentation mode: HCD
Collision energy: 75 % (nominal)
Resolution: 15000
Column name: XBridge C18 3.5um, 2.1x50mm, Waters
Retention time: 5.1 min
Base peak: 152.0163
Precursor m/z: 152.0165
Precursor type: [M+H]+
m/z	relative intensity	assigned
53.0385	1	C4H5+
65.0386	1	C5H5+
77.0386	3	C6H5+
80.0495	32	C5H6N+
90.0339	8	C6H4N+
97.0108	3	C5H5S+
105.0336	173	C7H5O+
106.995	2	C6H3S+
109.0107	289	C6H5S+
124.0216	9	C6H6NS+
134.006	278	C7H4NS+
135.0015	1	C6H3N2S+
135.9978	4	C7H4OS+
152.0166	999	C7H6NOS+
