Mass spectrum: Fenthion-sulfoxide; LC-ESI-QFT; MS2; CE: 60; R=35000; [M+H]+
Name: Fenthion-sulfoxide
Name: Mesulfenos
Name: O,O-Dimethyl O-[3-methyl-4-(methylsulfinyl)phenyl] phosphorothioate
Formula: C10H15O4PS2
Exact mass: 294.01494
SMILES: CC1=C(C=CC(=C1)OP(=S)(OC)OC)S(=O)C
InChI: InChI=1S/C10H15O4PS2/c1-8-7-9(5-6-10(8)17(4)11)14-15(16,12-2)13-3/h5-7H,1-4H3
Instrument: Q Exactive Plus Orbitrap Thermo Scientific
Instrument type: LC-ESI-QFT
Ms type: MS2
Ion mode: POSITIVE
Ionization: ESI
Fragmentation mode: HCD
Collision energy: 60 (nominal)
Resolution: 35000
Column name: XBridge C18 3.5um, 2.1x50mm, Waters
Retention time: 7.4 min
Base peak: 295.0216
Precursor m/z: 295.0222
Precursor type: [M+H]+
m/z	relative intensity	assigned
53.0386	3	C4H5+
62.0185	4	C2H6S+
62.9995	5	CH4OP+
63.9436	3	S2+
64.9787	3	H2O2P+
65.0386	1	C5H5+
66.0464	2	C5H6+
77.0385	5	C6H5+
78.0464	61	C6H6+
78.9943	108	CH4O2P+
79.0542	5	C6H7+
80.0023	2	CH5O2P+
89.0386	4	C7H5+
90.0465	5	C7H6+
91.0543	29	C7H7+
92.0621	10	C7H8+
93.0101	70	C2H6O2P+
94.0413	2	C6H6O+
94.9893	2	CH4O3P+
95.0492	16	C6H7O+
96.0028	2	C5H4S+
97.005	3	CH6O3P+
97.0108	2	C5H5S+
98.0185	2	C5H6S+
103.0543	8	C8H7+
104.0621	53	C8H8+
105.0449	9	C6H5N2+
105.07	120	C8H9+
107.0492	6	C7H7O+
108.0028	2	C6H4S+
108.0569	2	C7H8O+
109.0051	7	C2H6O3P+
109.0107	43	C6H5S+
110.013	4	C2H7O3P+
110.0185	37	C6H6S+
111.0264	85	C6H7S+
112.9998	7	CH6O4P+
119.0493	1	C8H7O+
121.0107	20	C7H5S+
121.0649	12	C8H9O+
122.0186	25	C7H6S+
122.0726	7	C8H10O+
123.0264	25	C7H7S+
124.0343	13	C7H8S+
124.9822	111	C2H6O2PS+
126.0136	4	C6H6OS+
127.0155	999	C2H8O4P+
134.0186	10	C8H6S+
135.0263	29	C8H7S+
135.9979	4	C7H4OS+
136.0343	24	C8H8S+
136.052	2	C8H8O2+
137.0057	29	C7H5OS+
137.0421	34	C8H9S+
138.0135	23	C7H6OS+
138.0498	14	C8H10S+
139.0213	43	C7H7OS+
140.9829	7	C6H5S2+
141.0314	3	C3H10O4P+
141.985	3	C2H7O3PS+
141.9905	20	C6H6S2+
142.9928	217	C2H8O3PS+
142.9981	11	
149.0421	2	C9H9S+
151.0577	23	C9H11S+
151.9751	4	C7H4S2+
152.0291	1	C8H8OS+
152.9828	123	C7H5S2+
153.0369	10	C8H9OS+
153.9906	75	C7H6S2+
154.0447	18	C8H10OS+
154.9716	1	C6H4OPS+
154.9985	9	C7H7S2+
155.0162	6	C7H7O2S+
156.0062	1	C7H8S2+
157.0086	4	C3H10O3PS+
165.9908	6	C8H6S2+
166.9985	11	C8H7S2+
167.9794	1	C7H5OPS+
168.0063	9	C8H8S2+
168.0603	3	C9H12OS+
168.9778	19	C7H5OS2+
168.9873	27	C7H6OPS+
169.0141	81	C8H9S2+
169.9856	77	C7H6OS2+
169.9948	10	C7H7OPS+
170.022	38	C8H10S2+
170.9934	24	C7H7OS2+
184.0373	7	C9H12S2+
184.9821	2	C7H6O2PS+
185.009	3	C8H9OS2+
185.0365	1	C8H10O3P+
186.0169	5	C8H10OS2+
186.9439	2	C6H4OPS2+
186.9975	1	C7H8O2PS+
198.9979	1	C8H8O2PS+
199.052	18	C9H12O3P+
200.0057	86	C8H9O2PS+
200.9593	3	C7H6OPS2+
202.9928	4	C7H8O3PS+
213.0135	3	C9H10O2PS+
214.9928	3	C8H8O3PS+
215.9464	5	C7H5O2PS2+
217.0085	7	C8H10O3PS+
218.0165	2	C8H11O3PS+
229.0086	6	C9H10O3PS+
229.9622	5	C8H7O2PS2+
230.9701	11	C8H8O2PS2+
231.024	9	C9H12O3PS+
231.9778	5	C8H9O2PS2+
232.032	42	C9H13O3PS+
232.9856	4	C8H10O2PS2+
245.0398	10	C10H14O3PS+
245.9935	11	C9H11O2PS2+
246.9649	13	C8H8O3PS2+
247.0189	2	C9H12O4PS+
247.9728	10	C8H9O3PS2+
248.9805	5	C8H10O3PS2+
261.9883	16	C9H11O3PS2+
262.9962	45	C9H12O3PS2+
264.0213	1	C9H13O5PS+
264.9756	4	C8H10O4PS2+
278.0196	28	C10H15O3PS2+
279.9989	32	C9H13O4PS2+
