Mass spectrum: Iomeprol; LC-ESI-ITFT; MS2; CE: 45%; R=7500; [M+H]+
Name: Iomeprol
Name: 1-N,3-N-bis(2,3-dihydroxypropyl)-5-[(2-hydroxyacetyl)-methylamino]-2,4,6-triiodobenzene-1,3-dicarboxamide
Formula: C17H22I3N3O8
Exact mass: 776.8541
SMILES: Ic1c(c(I)c(c(I)c1N(C)C(=O)CO)C(=O)NCC(O)CO)C(=O)NCC(O)CO
InChI: InChI=1S/C17H22I3N3O8/c1-23(9(29)6-26)15-13(19)10(16(30)21-2-7(27)4-24)12(18)11(14(15)20)17(31)22-3-8(28)5-25/h7-8,24-28H,2-6H2,1H3,(H,21,30)(H,22,31)
Instrument: LTQ Orbitrap XL Thermo Scientific
Instrument type: LC-ESI-ITFT
Ms type: MS2
Ion mode: POSITIVE
Ionization: ESI
Fragmentation mode: HCD
Collision energy: 45 % (nominal)
Resolution: 7500
Column name: XBridge C18 3.5um, 2.1x50mm, Waters
Retention time: 1.6 min
Base peak: 132.9578
Precursor m/z: 777.8614
Precursor type: [M+H]+
m/z	relative intensity	assigned
74.0601	6	C3H8NO+
175.0271	8	C9H5NO3+
220.0477	9	C10H8N2O4+
221.0925	10	C11H13N2O3+
222.0394	10	C10H8NO5+
249.0863	26	C12H13N2O4+
273.9355	19	C8H5INO2+
277.0805	32	C13H13N2O5+
287.9513	225	C9H7INO2+
290.9633	12	C8H8IN2O2+
291.9458	30	C8H7INO3+
293.8899	19	C6HINO5+
301.931	35	C9H5INO3+
302.964	11	C9H8IN2O2+
305.9626	34	C9H9INO3+
331.941	327	C10H7INO4+
346.9899	43	C11H12IN2O3+
349.9517	67	C10H9INO5+
374.9839	53	C12H12IN2O4+
386.9825	28	C13H12IN2O4+
404.9939	999	C13H14IN2O5+
423.0039	46	C13H16IN2O6+
446.8458	16	C9H7I2NO4+
558.888	12	C14H13I2N2O6+
