Mass spectrum: Bisoprolol; LC-ESI-QFT; MS2; CE: 45; R=35000; [M+H]+
Name: Bisoprolol
Name: 1-(propan-2-ylamino)-3-[4-(2-propan-2-yloxyethoxymethyl)phenoxy]-2-propanol
Formula: C18H31NO4
Exact mass: 325.22531
SMILES: O(c1ccc(cc1)COCCOC(C)C)CC(O)CNC(C)C
InChI: InChI=1S/C18H31NO4/c1-14(2)19-11-17(20)13-23-18-7-5-16(6-8-18)12-21-9-10-22-15(3)4/h5-8,14-15,17,19-20H,9-13H2,1-4H3
Instrument: Q Exactive Orbitrap Thermo Scientific
Instrument type: LC-ESI-QFT
Ms type: MS2
Ion mode: POSITIVE
Ionization: ESI
Fragmentation mode: HCD
Collision energy: 45 (nominal)
Resolution: 35000
Column name: XBridge C18 3.5um, 2.1x50mm, Waters
Retention time: 6.1 min
Base peak: 326.2328
Precursor m/z: 326.2326
Precursor type: [M+H]+
m/z	relative intensity	assigned
56.0496	82	C3H6N+
58.0652	36	C3H8N+
60.0808	2	C3H10N+
69.0699	4	C5H9+
70.0651	1	C4H8N+
72.0808	367	C4H10N+
73.0284	5	C3H5O2+
74.06	989	C3H8NO+
75.044	23	C3H7O2+
79.0543	6	C6H7+
81.0337	1	C5H5O+
84.0809	8	C5H10N+
86.0964	1	C5H12N+
89.0386	10	C7H5+
91.0542	51	C7H7+
95.0492	1	C6H7O+
98.0965	256	C6H12N+
100.1123	10	C6H14N+
105.07	21	C8H9+
107.0492	147	C7H7O+
116.107	999	C6H14NO+
117.0699	6	C9H9+
119.0492	58	C8H7O+
119.0855	9	C9H11+
121.0648	36	C8H9O+
129.07	6	C10H9+
133.0648	130	C9H9O+
134.0602	5	C8H8NO+
137.0598	28	C8H9O2+
144.0809	2	C10H10N+
145.0649	59	C10H9O+
147.0805	108	C10H11O+
149.0963	4	C10H13O+
162.0913	75	C10H12NO+
163.0754	25	C10H11O2+
204.1385	25	C13H18NO+
222.1498	1	C13H20NO2+
308.2225	1	C18H30NO3+
326.2329	27	C18H32NO4+
