Mass spectrum: N-Desmethyltramadol; LC-ESI-QFT; MS2; CE: 150; R=35000; [M+H]+
Name: N-Desmethyltramadol
Name: N-demethyltramadol
Name: 1-(3-methoxyphenyl)-2-(methylaminomethyl)cyclohexan-1-ol
Formula: C15H23NO2
Exact mass: 249.17288
SMILES: CNCC1CCCCC1(c2cccc(c2)OC)O
InChI: InChI=1S/C15H23NO2/c1-16-11-13-6-3-4-9-15(13,17)12-7-5-8-14(10-12)18-2/h5,7-8,10,13,16-17H,3-4,6,9,11H2,1-2H3
Instrument: Q Exactive Plus Orbitrap Thermo Scientific
Instrument type: LC-ESI-QFT
Ms type: MS2
Ion mode: POSITIVE
Ionization: ESI
Fragmentation mode: HCD
Collision energy: 150 (nominal)
Resolution: 35000
Column name: XBridge C18 3.5um, 2.1x50mm, Waters
Retention time: 5.2 min
Base peak: 250.1799
Precursor m/z: 250.1802
Precursor type: [M+H]+
m/z	relative intensity	assigned
51.023	318	C4H3+
53.0386	68	C4H5+
63.0229	259	C5H3+
65.0386	741	C5H5+
68.0494	53	
77.0384	213	C6H5+
78.0464	999	C6H6+
89.0386	76	C7H5+
91.0543	640	C7H7+
92.0256	109	C6H4O+
95.0492	353	C6H7O+
102.0465	91	C8H6+
103.054	180	C8H7+
105.0446	222	C6H5N2+
115.0543	623	C9H7+
116.062	67	C9H8+
127.0543	52	
128.062	334	C10H8+
