Mass spectrum: Diphenhydramine; LC-ESI-QFT; MS2; CE: 150; R=35000; [M+H]+
Name: Diphenhydramine
Name: 2-benzhydryloxy-N,N-dimethylethanamine
Formula: C17H21NO
Exact mass: 255.16231
SMILES: CN(C)CCOC(C1=CC=CC=C1)C2=CC=CC=C2
InChI: InChI=1S/C17H21NO/c1-18(2)13-14-19-17(15-9-5-3-6-10-15)16-11-7-4-8-12-16/h3-12,17H,13-14H2,1-2H3
Instrument: Q Exactive Plus Orbitrap Thermo Scientific
Instrument type: LC-ESI-QFT
Ms type: MS2
Ion mode: POSITIVE
Ionization: ESI
Fragmentation mode: HCD
Collision energy: 150 (nominal)
Resolution: 35000
Column name: XBridge C18 3.5um, 2.1x50mm, Waters
Retention time: 6.6 min
Base peak: 256.1694
Precursor m/z: 256.1696
Precursor type: [M+H]+
m/z	relative intensity	assigned
50.0151	3	C4H2+
51.023	2	C4H3+
53.0022	4	C3HO+
53.0386	3	C4H5+
62.0151	6	C5H2+
63.0229	38	C5H3+
65.0386	60	C5H5+
74.0149	5	C6H2+
75.0228	5	C6H3+
76.0307	13	C6H4+
77.0385	6	C6H5+
78.0464	38	C6H6+
81.0335	1	C5H5O+
86.0151	2	C7H2+
87.0229	9	C7H3+
89.0386	55	C7H5+
91.0543	30	C7H7+
95.0491	12	C6H7O+
98.015	1	C8H2+
99.0229	3	C8H3+
100.0308	1	C8H4+
101.0386	2	C8H5+
102.0464	92	C8H6+
103.0542	1	C8H7+
105.0448	8	C6H5N2+
113.0385	6	C9H5+
115.0543	399	C9H7+
125.0386	8	C10H5+
126.0465	94	C10H6+
127.0542	18	C10H7+
128.0621	194	C10H8+
129.0445	2	C8H5N2+
138.0464	3	C11H6+
139.0543	134	C11H7+
140.062	3	C11H8+
141.0699	38	C11H9+
145.065	7	C10H9O+
149.0389	1	C12H5+
150.0465	67	C12H6+
151.0543	50	C12H7+
152.0621	563	C12H8+
155.0604	15	C10H7N2+
163.0543	105	C13H7+
164.0621	170	C13H8+
165.0699	999	C13H9+
166.0777	9	C13H10+
168.057	51	C12H8O+
169.0648	163	C12H9O+
179.0604	53	C12H7N2+
196.0519	21	C13H8O2+
