Mass spectrum: Foramsulfuron; LC-ESI-ITFT; MS2; CE: 90%; R=30000; [M+H]+
Name: Foramsulfuron
Name: 2-[(4,6-dimethoxypyrimidin-2-yl)carbamoylsulfamoyl]-4-formamido-N,N-dimethyl-benzamide
Formula: C17H20N6O7S
Exact mass: 452.1114
SMILES: O=C(Nc1nc(OC)cc(OC)n1)NS(=O)(=O)c2cc(NC=O)ccc2C(=O)N(C)C
InChI: InChI=1S/C17H20N6O7S/c1-23(2)15(25)11-6-5-10(18-9-24)7-12(11)31(27,28)22-17(26)21-16-19-13(29-3)8-14(20-16)30-4/h5-9H,1-4H3,(H,18,24)(H2,19,20,21,22,26)
Instrument: LTQ Orbitrap XL Thermo Scientific
Instrument type: LC-ESI-ITFT
Ms type: MS2
Ion mode: POSITIVE
Ionization: ESI
Fragmentation mode: HCD
Collision energy: 90 % (nominal)
Resolution: 30000
Column name: XBridge C18 3.5um, 2.1x50mm, Waters
Retention time: 7.8 min
Base peak: 475.1014
Precursor m/z: 453.1187
Precursor type: [M+H]+
m/z	relative intensity	assigned
65.0386	83	C5H5+
68.9971	44	C3HO2+
71.0603	85	C3H7N2+
80.0494	38	C5H6N+
81.0446	30	C4H5N2+
82.0287	53	C4H4NO+
83.024	999	C3H3N2O+
92.0494	96	C6H6N+
93.0083	111	C4HN2O+
94.0652	25	C6H8N+
100.0392	66	C4H6NO2+
105.0446	115	C6H5N2+
117.0446	30	C7H5N2+
120.0443	129	C7H6NO+
121.0283	48	C7H5O2+
139.0501	472	C6H7N2O2+
157.0607	229	C6H9N2O3+
182.0561	129	C7H8N3O3+
