Mass spectrum: Benodanil; LC-ESI-QFT; MS2; CE: 150%; R=17500; [M+H]+
Name: Benodanil
Name: 2-iodo-N-phenylbenzamide
Formula: C13H10INO
Exact mass: 322.9807
SMILES: C1=CC=C(C=C1)NC(=O)C2=CC=CC=C2I
InChI: InChI=1S/C13H10INO/c14-12-9-5-4-8-11(12)13(16)15-10-6-2-1-3-7-10/h1-9H,(H,15,16)
Instrument: Exploris 240 Orbitrap Thermo Scientific
Instrument type: LC-ESI-QFT
Ms type: MS2
Ion mode: POSITIVE
Ionization: ESI
Fragmentation mode: HCD
Collision energy: 150 % (nominal)
Resolution: 17500
Column name: XBridge C18 3.5um, 2.1x50mm, Waters
Retention time: 6.793 min
Base peak: 216.1009
Precursor m/z: 323.988
Precursor type: [M+H]+
m/z	relative intensity	assigned
50.0151	521	C4H2+
51.0228	44	C4H3+
52.0307	20	C4H4+
53.0385	15	C4H5+
66.0463	50	C5H6+
74.0148	7	C6H2+
75.023	24	C6H3+
76.0307	999	C6H4+
77.0386	77	C6H5+
91.0177	12	C6H3O+
94.0412	24	C6H6O+
95.0492	15	C6H7O+
104.0259	10	C7H4O+
202.9347	17	C6H4I+
