Mass spectrum: 3-[(4-chlorobenzoyl)amino]propanoic acid; LC-ESI-QFT; MS2; CE: 45; R=35000; [M+H]+
Name: 3-[(4-chlorobenzoyl)amino]propanoic acid
Name: N-(4-Chlorobenzoyl)-Beta-alanine
Formula: C10H10ClNO3
Exact mass: 227.03492
SMILES: C1=CC(=CC=C1C(=O)NCCC(=O)O)Cl
InChI: InChI=1S/C10H10ClNO3/c11-8-3-1-7(2-4-8)10(15)12-6-5-9(13)14/h1-4H,5-6H2,(H,12,15)(H,13,14)
Instrument: Q Exactive Plus Orbitrap Thermo Scientific
Instrument type: LC-ESI-QFT
Ms type: MS2
Ion mode: POSITIVE
Ionization: ESI
Fragmentation mode: HCD
Collision energy: 45 (nominal)
Resolution: 35000
Column name: XBridge C18 3.5um, 2.1x50mm, Waters
Retention time: 6.2 min
Base peak: 228.0421
Precursor m/z: 228.0422
Precursor type: [M+H]+
m/z	relative intensity	assigned
55.0178	2	C3H3O+
72.0444	18	C3H6NO+
86.9995	1	C4H4Cl+
110.9994	4	C6H4Cl+
129.01	3	C6H6ClO+
138.9945	999	C7H4ClO+
156.021	7	C7H7ClNO+
168.0211	29	C8H7ClNO+
182.0366	1	C9H9ClNO+
210.0317	12	C10H9ClNO2+
