Mass spectrum: Chromafenozide; LC-ESI-QFT; MS2; CE: 75%; R=17500; [M+H]+
Name: Chromafenozide
Name: N`-tert-butyl-N`-(3,5-dimethylbenzoyl)-5-methyl-3,4-dihydro-2H-chromene-6-carbohydrazide
Formula: C24H30N2O3
Exact mass: 394.2256
SMILES: CC1=CC(=CC(=C1)C(=O)N(C(C)(C)C)NC(=O)C2=C(C3=C(C=C2)OCCC3)C)C
InChI: InChI=1S/C24H30N2O3/c1-15-12-16(2)14-18(13-15)23(28)26(24(4,5)6)25-22(27)20-9-10-21-19(17(20)3)8-7-11-29-21/h9-10,12-14H,7-8,11H2,1-6H3,(H,25,27)
Instrument: Exploris 240 Orbitrap Thermo Scientific
Instrument type: LC-ESI-QFT
Ms type: MS2
Ion mode: POSITIVE
Ionization: ESI
Fragmentation mode: HCD
Collision energy: 75 % (nominal)
Resolution: 17500
Column name: XBridge C18 3.5um, 2.1x50mm, Waters
Retention time: 9.562 min
Base peak: 395.233
Precursor m/z: 395.2329
Precursor type: [M+H]+
m/z	relative intensity	assigned
55.0178	22	C3H3O+
65.0385	11	C5H5+
77.0384	15	C6H5+
79.0542	48	C6H7+
91.0542	203	C7H7+
103.0541	34	C8H7+
105.0698	175	C8H9+
107.0488	12	C7H7O+
117.07	47	C9H9+
119.0491	130	C8H7O+
119.0854	150	C9H11+
123.0804	17	C8H11O+
129.0697	21	C10H9+
132.0569	46	C9H8O+
133.0647	72	C9H9O+
133.0765	19	C8H9N2+
147.044	236	C9H7O2+
147.0801	111	C10H11O+
175.0753	999	C11H11O2+
