Mass spectrum: Parathion; LC-ESI-QFT; MS2; CE: 75; R=35000; [M+H]+
Name: Parathion
Name: diethoxy-(4-nitrophenoxy)-sulfanylidene-$l^{5}-phosphane
Formula: C10H14NO5PS
Exact mass: 291.03303
SMILES: S=P(Oc1ccc(cc1)[N+]([O-])=O)(OCC)OCC
InChI: InChI=1S/C10H14NO5PS/c1-3-14-17(18,15-4-2)16-10-7-5-9(6-8-10)11(12)13/h5-8H,3-4H2,1-2H3
Instrument: Q Exactive Orbitrap Thermo Scientific
Instrument type: LC-ESI-QFT
Ms type: MS2
Ion mode: POSITIVE
Ionization: ESI
Fragmentation mode: HCD
Collision energy: 75 (nominal)
Resolution: 35000
Column name: XBridge C18 3.5um, 2.1x50mm, Waters
Retention time: 12.6 min
Base peak: 292.0402
Precursor m/z: 292.0403
Precursor type: [M+H]+
m/z	relative intensity	assigned
62.9453	3	PS+
63.0228	2	C5H3+
64.0307	4	C5H4+
64.9787	31	H2O2P+
65.0385	37	C5H5+
66.0464	40	C5H6+
68.0256	1	C4H4O+
68.9793	1	C3HS+
75.0229	34	C6H3+
78.0339	4	C5H4N+
78.0464	1	C6H6+
78.9401	1	OPS+
79.0178	3	C5H3O+
80.0494	1	C5H6N+
80.9734	1	H2O3P+
81.0334	7	C5H5O+
82.0413	4	C5H6O+
84.0028	6	C4H4S+
91.0542	2	C7H7+
92.0255	31	C6H4O+
93.0334	4	C6H5O+
94.0412	999	C6H6O+
95.0489	3	C6H7O+
96.0027	8	C5H4S+
96.9506	5	H2O2PS+
97.0105	17	C5H5S+
98.0183	4	C5H6S+
98.9841	29	H4O4P+
100.0073	1	C4H5OP+
105.0697	3	C8H9+
107.0491	3	C7H7O+
108.0028	7	C6H4S+
109.0106	33	C6H5S+
109.0282	14	C6H5O2+
110.0184	484	C6H6S+
110.0361	27	C6H6O2+
111.0439	39	C6H7O2+
114.9612	597	H4O3PS+
120.0569	1	C8H8O+
121.0395	48	C6H5N2O+
123.0313	589	C6H5NO2+
123.9976	11	C6H4OS+
125.0054	79	C6H5OS+
126.0132	24	C6H6OS+
127.021	6	C6H7OS+
128.0021	5	C5H5O2P+
132.9717	6	H6O4PS+
137.0166	4	C6H5N2S+
138.0009	5	C6H4NOS+
138.9943	16	C6H4O2P+
139.0085	59	C6H5NOS+
140.034	131	C6H6NO3+
150.0297	39	C6H4N3O2+
153.9956	14	C6H4NO2S+
154.9714	36	C6H4OPS+
155.997	24	C6H5O3P+
156.0112	35	C6H6NO2S+
170.9662	7	C6H4O2PS+
171.9741	171	C6H5O2PS+
174.0075	143	C6H7O4P+
184.9872	5	C6H4NO4P+
187.969	4	C6H5O3PS+
188.9767	15	C6H6O3PS+
189.9847	74	C6H7O3PS+
198.9728	3	C10HNO2S+
200.9646	6	C6H4NO3PS+
201.006	1	C10H3NO4+
202.9976	21	C10H3O5+
204.9721	4	C6H6O4PS+
205.9795	11	C6H7O4PS+
216.9831	1	C10H3NO3S+
217.9675	1	C6H5NO4PS+
218.9749	20	C6H6NO4PS+
220.0001	11	C10H4O6+
221.9747	1	C6H7O5PS+
235.9775	36	C10H4O5S+
