Mass spectrum: Dimethachlor OXA; LC-ESI-ITFT; MS2; CE: 75%; R=7500; [M+H]+
Name: Dimethachlor OXA
Name: 2-[(2,6-dimethylphenyl)(2-methoxyethyl)amino]-2-oxo-acetic acid
Formula: C13H17NO4
Exact mass: 251.1158
SMILES: Cc1cccc(C)c1N(CCOC)C(=O)C(O)=O
InChI: InChI=1S/C13H17NO4/c1-9-5-4-6-10(2)11(9)14(7-8-18-3)12(15)13(16)17/h4-6H,7-8H2,1-3H3,(H,16,17)
Instrument: LTQ Orbitrap XL Thermo Scientific
Instrument type: LC-ESI-ITFT
Ms type: MS2
Ion mode: POSITIVE
Ionization: ESI
Fragmentation mode: HCD
Collision energy: 75 % (nominal)
Resolution: 7500
Column name: XBridge C18 3.5um, 2.1x50mm, Waters
Retention time: 6.6 min
Base peak: 252.1226
Precursor m/z: 252.123
Precursor type: [M+H]+
m/z	relative intensity	assigned
77.0387	48	C6H5+
79.0543	150	C6H7+
91.0543	228	C7H7+
93.07	25	C7H9+
95.049	7	C6H7O+
103.0543	154	C8H7+
105.07	980	C8H9+
106.0777	137	C8H10+
107.0729	15	C7H9N+
107.0855	147	C8H11+
115.0542	7	C9H7+
116.0622	16	C9H8+
117.0573	401	C8H7N+
118.0652	405	C8H8N+
119.0497	6	C8H7O+
119.0604	27	C7H7N2+
119.0855	53	C9H11+
120.0808	135	C8H10N+
121.0647	24	C8H9O+
121.0889	17	C8H11N+
121.1015	10	C9H13+
123.0806	5	C8H11O+
129.0698	16	C10H9+
130.0652	137	C9H8N+
131.073	480	C9H9N+
131.0855	30	C10H11+
132.0808	999	C9H10N+
133.0524	34	C8H7NO+
133.0759	21	C8H9N2+
133.0886	287	C9H11N+
134.0965	11	C9H12N+
143.0728	14	C10H9N+
144.0804	6	C10H10N+
146.0603	12	C9H8NO+
146.0965	155	C10H12N+
148.0757	48	C9H10NO+
148.1121	488	C10H14N+
149.0596	13	C9H9O2+
158.0963	9	C11H12N+
174.0916	10	C11H12NO+
176.1075	28	C11H14NO+
220.0973	65	C12H14NO3+
