Mass spectrum: Metribuzin-desamino; LC-ESI-QFT; MS2; CE: 30; R=35000; [M+H]+
Name: Metribuzin-desamino
Name: Deaminometribuzin
Name: 6-tert-butyl-3-(methylthio)-2H-1,2,4-triazin-5-one
Formula: C8H13N3OS
Exact mass: 199.27332
SMILES: CC(C)(C)C1=NNC(=NC1=O)SC
InChI: InChI=1S/C8H13N3OS/c1-8(2,3)5-6(12)9-7(13-4)11-10-5/h1-4H3,(H,9,11,12)
Instrument: Q Exactive Plus Orbitrap Thermo Scientific
Instrument type: LC-ESI-QFT
Ms type: MS2
Ion mode: POSITIVE
Ionization: ESI
Fragmentation mode: HCD
Collision energy: 30 (nominal)
Resolution: 35000
Column name: XBridge C18 3.5um, 2.1x50mm, Waters
Retention time: 7.3 min
Base peak: 200.085
Precursor m/z: 200.0852
Precursor type: [M+H]+
m/z	relative intensity	assigned
57.0698	23	C4H9+
74.0056	3	C2H4NS+
84.0807	3	C5H10N+
89.0167	1	C2H5N2S+
97.0648	1	C6H9O+
112.0757	1	C6H10NO+
116.0276	4	C3H6N3S+
130.0433	6	C4H8N3S+
144.0226	3	C4H6N3OS+
157.0664	2	C6H11N3S+
172.0902	104	C7H14N3S+
185.0618	1	C7H11N3OS+
200.0851	999	C8H14N3OS+
