Mass spectrum: 4-Amino-6-chloro-1,3-benzenedisulfonamide; LC-ESI-QFT; MS2; CE: 15; R=35000; [M+H]+
Name: 4-Amino-6-chloro-1,3-benzenedisulfonamide
Name: 4-amino-6-chlorobenzene-1,3-disulfonamide
Formula: C6H8ClN3O4S2
Exact mass: 284.96448
SMILES: C1=C(C(=CC(=C1Cl)S(=O)(=O)N)S(=O)(=O)N)N
InChI: InChI=1S/C6H8ClN3O4S2/c7-3-1-4(8)6(16(10,13)14)2-5(3)15(9,11)12/h1-2H,8H2,(H2,9,11,12)(H2,10,13,14)
Instrument: Q Exactive Orbitrap Thermo Scientific
Instrument type: LC-ESI-QFT
Ms type: MS2
Ion mode: POSITIVE
Ionization: ESI
Fragmentation mode: HCD
Collision energy: 15 (nominal)
Resolution: 35000
Column name: XBridge C18 3.5um, 2.1x50mm, Waters
Retention time: 1.7 min
Base peak: 285.9718
Precursor m/z: 285.9718
Precursor type: [M+H]+
m/z	relative intensity	assigned
94.0287	1	C5H4NO+
96.9838	1	C5H2Cl+
99.995	2	C4H3ClN+
113.9743	1	C4HClNO+
114.0103	4	C5H5ClN+
115.9898	8	C4H3ClNO+
123.9945	3	C6H3ClN+
125.0025	9	C6H4ClN+
127.9896	2	C5H3ClNO+
128.9977	2	C5H4ClNO+
129.0214	1	C5H6ClN2+
130.0054	2	C5H5ClNO+
131.9849	3	C4H3ClNO2+
139.9897	1	C6H3ClNO+
141.951	9	C5HClNS+
143.9849	6	C5H3ClNO2+
155.9843	2	C6H3ClNO2+
157.0162	10	C6H6ClN2O+
158.0002	8	C6H5ClNO2+
169.9463	2	C6HClNOS+
173.9956	1	C6H5ClNO3+
187.9564	10	C6H3ClNO2S+
204.9833	586	C6H6ClN2O2S+
205.9904	3	C6H7ClN2O2S+
220.9781	409	C6H6ClN2O3S+
221.9616	9	C6H5ClNO4S+
222.9936	10	C6H8ClN2O3S+
237.9748	15	C5H7ClN4OS2+
268.9451	999	C6H6ClN2O4S2+
269.9288	318	C6H5ClNO5S2+
285.9721	357	C6H9ClN3O4S2+
288.9596	11	C5H8ClN3O5S2+
298.9554	7	C5H6ClN5O4S2+
300.971	2	C5H8ClN5O4S2+
304.9652	10	C4H8ClN5O5S2+
