Mass spectrum: Triphenyl phosphate (TPP); LC-ESI-QFT; MS2; CE: 150; R=35000; [M+H]+
Name: Triphenyl phosphate (TPP)
Name: Triphenyl phosphate
Name: Triphenoxyphosphine oxide
Formula: C18H15O4P
Exact mass: 326.07080
SMILES: C1=CC=C(C=C1)OP(=O)(OC2=CC=CC=C2)OC3=CC=CC=C3
InChI: InChI=1S/C18H15O4P/c19-23(20-16-10-4-1-5-11-16,21-17-12-6-2-7-13-17)22-18-14-8-3-9-15-18/h1-15H
Instrument: Q Exactive Plus Orbitrap Thermo Scientific
Instrument type: LC-ESI-QFT
Ms type: MS2
Ion mode: POSITIVE
Ionization: ESI
Fragmentation mode: HCD
Collision energy: 150 (nominal)
Resolution: 35000
Column name: XBridge C18 3.5um, 2.1x50mm, Waters
Retention time: 13.1 min
Base peak: 327.0775
Precursor m/z: 327.0781
Precursor type: [M+H]+
m/z	relative intensity	assigned
50.0152	999	C4H2+
51.023	851	C4H3+
52.0182	2	C3H2N+
52.0308	5	C4H4+
53.0022	22	C3HO+
53.0386	130	C4H5+
55.0179	9	C3H3O+
56.9888	8	C2H2P+
62.0152	5	C5H2+
63.0229	17	C5H3+
64.0308	6	C5H4+
65.0022	84	C4HO+
65.0386	66	C5H5+
66.0101	12	C4H2O+
66.0465	12	C5H6+
67.0542	2	C5H7+
68.9889	2	C3H2P+
74.0151	50	C6H2+
75.0229	82	C6H3+
76.0308	51	C6H4+
77.0386	471	C6H5+
78.0464	76	C6H6+
81.0335	17	C5H5O+
86.0151	5	C7H2+
87.023	13	C7H3+
88.0308	8	C7H4+
89.0386	28	C7H5+
90.0466	8	C7H6+
91.018	1	C6H3O+
91.0542	10	C7H7+
92.0258	31	C6H4O+
94.0414	17	C6H6O+
95.0492	381	C6H7O+
98.0151	20	C8H2+
98.9842	26	H4O4P+
99.0231	26	C8H3+
100.0308	15	C8H4+
101.0152	1	C4H6OP+
101.0387	10	C8H5+
102.0465	177	C8H6+
103.0544	2	C8H7+
105.0448	273	C6H5N2+
106.0418	1	C7H6O+
107.0046	15	C6H4P+
109.0651	1	C7H9O+
110.0152	2	C9H2+
113.0386	17	C9H5+
114.0465	16	C9H6+
115.0543	94	C9H7+
118.0413	6	C8H6O+
119.0492	5	C8H7O+
123.0227	1	C10H3+
124.0309	2	C10H4+
125.0387	47	C10H5+
126.0465	399	C10H6+
127.0543	28	C10H7+
128.0623	10	C10H8+
129.0447	23	C8H5N2+
132.0572	5	C9H8O+
133.0203	20	C8H6P+
139.0544	450	C11H7+
140.0622	13	C11H8+
141.0701	7	C11H9+
142.0414	1	C10H6O+
143.0494	1	C10H7O+
145.065	10	C10H9O+
149.0387	11	C12H5+
150.0466	409	C12H6+
151.0544	185	C12H7+
152.0622	682	C12H8+
153.0448	2	C10H5N2+
155.0496	2	C11H7O+
155.0605	27	C10H7N2+
157.0203	15	C10H6P+
167.0491	2	C12H7O+
168.0571	49	C12H8O+
169.065	421	C12H9O+
174.0463	1	C14H6+
176.0622	6	C14H8+
179.0606	150	C12H7N2+
183.0808	6	C13H11O+
185.0601	2	C12H9O2+
187.0544	5	C15H7+
189.07	2	C15H9+
199.0542	1	C16H7+
200.0623	41	C16H8+
201.0697	5	C16H9+
202.078	8	C16H10+
205.0652	1	C15H9O+
213.0696	4	C17H9+
219.08	1	C16H11O+
224.0623	52	C18H8+
225.0702	25	C18H9+
226.0779	80	C18H10+
229.0654	9	C17H9O+
243.081	14	C18H11O+
257.0593	2	C18H9O2+
