Mass spectrum: Bufexamac; LC-ESI-QFT; MS2; CE: 60; R=35000; [M+H]+
Name: Bufexamac
Name: 2-(4-butoxyphenyl)-N-hydroxyacetamide
Formula: C12H17NO3
Exact mass: 223.12084
SMILES: CCCCOC1=CC=C(C=C1)CC(=O)NO
InChI: InChI=1S/C12H17NO3/c1-2-3-8-16-11-6-4-10(5-7-11)9-12(14)13-15/h4-7,15H,2-3,8-9H2,1H3,(H,13,14)
Instrument: Q Exactive Orbitrap Thermo Scientific
Instrument type: LC-ESI-QFT
Ms type: MS2
Ion mode: POSITIVE
Ionization: ESI
Fragmentation mode: HCD
Collision energy: 60 (nominal)
Resolution: 35000
Column name: XBridge C18 3.5um, 2.1x50mm, Waters
Retention time: 8.4 min
Base peak: 224.1282
Precursor m/z: 224.1281
Precursor type: [M+H]+
m/z	relative intensity	assigned
57.0699	16	C4H9+
67.0542	2	C5H7+
77.0385	5	C6H5+
79.0542	12	C6H7+
80.0495	2	C5H6N+
94.0412	2	C6H6O+
94.0651	13	C6H8N+
95.0491	24	C6H7O+
104.0495	4	C7H6N+
105.0335	1	C7H5O+
105.0448	4	C6H5N2+
107.0492	999	C7H7O+
108.0442	11	C6H6NO+
122.06	33	C7H8NO+
132.0444	1	C8H6NO+
133.0522	5	C8H7NO+
135.044	2	C8H7O2+
150.0547	3	C8H8NO2+
163.1117	9	C11H15O+
