Mass spectrum: Bexarotene; LC-ESI-QFT; MS2; CE: 60; R=35000; [M+H]+
Name: Bexarotene
Name: 4-[1-(3,5,5,8,8-pentamethyl-6,7-dihydronaphthalen-2-yl)ethenyl]benzoic acid
Formula: C24H28O2
Exact mass: 348.20893
SMILES: CC1=CC2=C(C=C1C(=C)C3=CC=C(C=C3)C(=O)O)C(CCC2(C)C)(C)C
InChI: InChI=1S/C24H28O2/c1-15-13-20-21(24(5,6)12-11-23(20,3)4)14-19(15)16(2)17-7-9-18(10-8-17)22(25)26/h7-10,13-14H,2,11-12H2,1,3-6H3,(H,25,26)
Instrument: Q Exactive Orbitrap Thermo Scientific
Instrument type: LC-ESI-QFT
Ms type: MS2
Ion mode: POSITIVE
Ionization: ESI
Fragmentation mode: HCD
Collision energy: 60 (nominal)
Resolution: 35000
Column name: XBridge C18 3.5um, 2.1x50mm, Waters
Retention time: 19.0 min
Base peak: 349.2162
Precursor m/z: 349.2162
Precursor type: [M+H]+
m/z	relative intensity	assigned
53.0023	1	C3HO+
55.0543	1	C4H7+
57.0699	8	C4H9+
65.0386	2	C5H5+
67.0542	15	C5H7+
69.0698	438	C5H9+
71.0854	1	C5H11+
77.0384	6	C6H5+
79.0542	18	C6H7+
81.0699	4	C6H9+
83.0855	22	C6H11+
91.0542	84	C7H7+
93.0698	4	C7H9+
95.0491	15	C6H7O+
95.0855	4	C7H11+
102.0464	4	C8H6+
103.0542	183	C8H7+
105.0447	9	C6H5N2+
105.0699	136	C8H9+
107.0491	29	C7H7O+
107.0854	2	C8H11+
109.1011	7	C8H13+
111.1168	27	C8H15+
115.0542	54	C9H7+
116.062	4	C9H8+
117.0698	75	C9H9+
119.0491	16	C8H7O+
119.0855	29	C9H11+
121.1012	1	C9H13+
128.062	57	C10H8+
129.0336	16	C9H5O+
129.0698	159	C10H9+
130.0776	5	C10H10+
131.0491	19	C9H7O+
131.0855	29	C10H11+
133.0285	8	C8H5O2+
133.1011	19	C10H13+
135.044	185	C8H7O2+
141.0699	16	C11H9+
142.0778	52	C11H10+
143.0856	107	C11H11+
144.0935	12	C11H12+
145.065	5	C10H9O+
145.1012	31	C11H13+
147.044	999	C9H7O2+
149.0597	60	C9H9O2+
153.0698	6	C12H9+
154.0775	1	C12H10+
155.0602	4	C10H7N2+
155.0854	15	C12H11+
156.0934	22	C12H12+
157.1012	125	C12H13+
158.109	8	C12H14+
159.0441	2	C10H7O2+
159.1169	10	C12H15+
161.0599	1	C10H9O2+
163.0753	4	C10H11O2+
165.0699	14	C13H9+
166.0776	11	C13H10+
167.0857	9	C13H11+
168.0933	2	C13H12+
169.1011	16	C13H13+
170.1089	16	C13H14+
171.1167	51	C13H15+
172.1244	4	C13H16+
173.0597	4	C11H9O2+
173.1323	2	C13H17+
178.0777	80	C14H10+
179.0855	66	C14H11+
180.0931	8	C14H12+
181.1011	5	C14H13+
182.1092	4	C14H14+
183.1169	38	C14H15+
184.1249	6	C14H16+
185.0598	1	C12H9O2+
185.1325	19	C14H17+
187.0753	4	C12H11O2+
187.1484	1	C14H19+
189.0697	1	C15H9+
190.0776	7	C15H10+
191.0855	71	C15H11+
192.0933	240	C15H12+
193.1011	67	C15H13+
194.0726	2	C14H10O+
194.109	4	C15H14+
195.0795	1	C14H11O+
195.1168	8	C15H15+
197.1324	66	C15H17+
199.0751	1	C13H11O2+
199.1482	15	C15H19+
202.0776	2	C16H10+
203.0856	14	C16H11+
204.0932	16	C16H12+
205.1012	77	C16H13+
206.109	66	C16H14+
207.0804	5	C15H11O+
207.1169	58	C16H15+
209.06	2	C14H9O2+
209.0953	1	C15H13O+
211.1483	8	C16H19+
212.1558	41	C16H20+
213.0909	2	C14H13O2+
213.1632	1	C16H21+
215.085	2	C17H11+
216.093	1	C17H12+
217.1012	18	C17H13+
218.0725	4	C16H10O+
218.109	25	C17H14+
219.0807	11	C16H11O+
219.1169	66	C17H15+
220.1247	33	C17H16+
221.096	19	C16H13O+
221.1327	8	C17H17+
222.0675	2	C15H10O2+
223.0753	7	C15H11O2+
223.1116	5	C16H15O+
225.0909	2	C15H13O2+
227.1794	26	C17H23+
228.0931	1	C18H12+
229.1011	5	C18H13+
230.1091	2	C18H14+
231.1166	15	C18H15+
232.0884	2	C17H12O+
232.1249	19	C18H16+
233.0962	19	C17H13O+
233.1326	39	C18H17+
234.1405	21	C18H18+
235.0753	11	C16H11O2+
235.1117	5	C17H15O+
235.1481	14	C18H19+
236.0831	33	C16H12O2+
237.0909	21	C16H13O2+
238.0993	2	C16H14O2+
239.1071	6	C16H15O2+
243.1169	2	C19H15+
244.125	1	C19H16+
245.0962	6	C18H13O+
245.1323	14	C19H17+
246.104	5	C18H14O+
246.1402	17	C19H18+
247.1118	16	C18H15O+
247.1482	16	C19H19+
249.0913	25	C17H13O2+
250.0991	16	C17H14O2+
251.1067	301	C17H15O2+
253.1224	1	C17H17O2+
258.1029	2	C19H14O+
258.1401	1	C20H18+
259.1116	6	C19H15O+
259.1485	11	C20H19+
260.119	1	C19H16O+
260.1561	9	C20H20+
261.1274	31	C19H17O+
261.1636	10	C20H21+
263.1067	31	C18H15O2+
264.1142	17	C18H16O2+
265.1223	97	C18H17O2+
273.1277	7	C20H17O+
273.1638	2	C21H21+
274.1713	2	C21H22+
275.1067	5	C19H15O2+
275.1435	9	C20H19O+
275.1793	5	C21H23+
276.1143	8	C19H16O2+
277.1223	31	C19H17O2+
278.1306	12	C19H18O2+
279.138	246	C19H19O2+
280.1467	2	C19H20O2+
287.1423	9	C21H19O+
288.1867	7	C22H24+
289.123	2	C20H17O2+
289.1946	15	C22H25+
290.1299	32	C20H18O2+
291.1379	77	C20H19O2+
293.1542	9	C20H21O2+
301.1587	5	C22H21O+
304.1456	8	C21H20O2+
305.1536	160	C21H21O2+
319.1693	208	C22H23O2+
331.2057	12	C24H27O+
333.1849	8	C23H25O2+
334.1928	50	C23H26O2+
349.2163	15	C24H29O2+
