Mass spectrum: Lincomycin; LC-ESI-QFT; MS2; CE: 90; R=35000; [M+H]+
Name: Lincomycin
Name: N-[2-hydroxy-1-(3,4,5-trihydroxy-6-methylsulfanyloxan-2-yl)propyl]-1-methyl-4-propylpyrrolidine-2-carboxamide
Formula: C18H34N2O6S
Exact mass: 406.21376
SMILES: CCCC1CC(N(C1)C)C(=O)NC(C2C(C(C(C(O2)SC)O)O)O)C(C)O
InChI: InChI=1S/C18H34N2O6S/c1-5-6-10-7-11(20(3)8-10)17(25)19-12(9(2)21)16-14(23)13(22)15(24)18(26-16)27-4/h9-16,18,21-24H,5-8H2,1-4H3,(H,19,25)
Instrument: Q Exactive Plus Orbitrap Thermo Scientific
Instrument type: LC-ESI-QFT
Ms type: MS2
Ion mode: POSITIVE
Ionization: ESI
Fragmentation mode: HCD
Collision energy: 90 (nominal)
Resolution: 35000
Column name: XBridge C18 3.5um, 2.1x50mm, Waters
Retention time: 3.6 min
Base peak: 407.2201
Precursor m/z: 407.221
Precursor type: [M+H]+
m/z	relative intensity	assigned
53.0022	2	C3HO+
53.0386	1	C4H5+
54.0338	1	C3H4N+
55.0543	51	C4H7+
56.0495	7	C3H6N+
57.0573	2	C3H7N+
57.0699	1	C4H9+
58.0651	48	C3H8N+
61.0107	4	C2H5S+
65.0386	1	C5H5+
67.0417	3	C4H5N+
67.0542	31	C5H7+
68.0495	40	C4H6N+
69.0699	106	C5H9+
70.0651	175	C4H8N+
71.0729	1	C4H9N+
72.0808	2	C4H10N+
80.0494	1	C5H6N+
82.0651	128	C5H8N+
83.0729	144	C5H9N+
83.0855	10	C6H11+
84.0808	49	C5H10N+
85.1012	2	C6H13+
91.0212	1	C3H7OS+
91.0543	1	C7H7+
93.0699	6	C7H9+
94.065	1	C6H8N+
95.0855	31	C7H11+
96.0808	15	C6H10N+
97.0886	17	C6H11N+
97.1012	1	C7H13+
98.0964	9	C6H12N+
111.1044	3	C7H13N+
124.1122	37	C8H14N+
126.1278	999	C8H16N+
