Mass spectrum: Lovastatin; LC-ESI-QFT; MS2; CE: 45; R=35000; [M+H]+
Name: Lovastatin
Name: (1S,3R,7S,8S,8aR)-8-{2-[(2R,4R)-4-hydroxy-6-oxotetrahydro-2H-pyran-2-yl]ethyl}-3,7-dimethyl-1,2,3,7,8,8a-hexahydronaphthalen-1-yl (2S)-2-methylbutanoate
Name: (2S)-2-methylbutanoic acid [(1S,3R,7S,8S,8aR)-8-[2-[(2R,4R)-4-hydroxy-6-oxo-2-oxanyl]ethyl]-3,7-dimethyl-1,2,3,7,8,8a-hexahydronaphthalen-1-yl] ester
Formula: C24H36O5
Exact mass: 404.25627
SMILES: O=C(O[C@@H]1[C@H]3C(=C/[C@H](C)C1)\C=C/[C@@H]([C@@H]3CC[C@H]2OC(=O)C[C@H](O)C2)C)[C@@H](C)CC
InChI: InChI=1S/C24H36O5/c1-5-15(3)24(27)29-21-11-14(2)10-17-7-6-16(4)20(23(17)21)9-8-19-12-18(25)13-22(26)28-19/h6-7,10,14-16,18-21,23,25H,5,8-9,11-13H2,1-4H3/t14-,15-,16-,18+,19+,20-,21-,23-/m0/s1
Instrument: Q Exactive Orbitrap Thermo Scientific
Instrument type: LC-ESI-QFT
Ms type: MS2
Ion mode: POSITIVE
Ionization: ESI
Fragmentation mode: HCD
Collision energy: 45 (nominal)
Resolution: 35000
Column name: XBridge C18 3.5um, 2.1x50mm, Waters
Retention time: 15.3 min
Base peak: 405.2632
Precursor m/z: 405.2636
Precursor type: [M+H]+
m/z	relative intensity	assigned
55.0542	3	C4H7+
57.0699	6	C4H9+
67.0542	40	C5H7+
68.9971	12	C3HO2+
69.0699	52	C5H9+
71.0128	6	C3H3O2+
71.0491	14	C4H7O+
77.0384	4	C6H5+
79.0542	240	C6H7+
81.0699	245	C6H9+
83.0491	112	C5H7O+
83.0855	12	C6H11+
85.0647	50	C5H9O+
89.0232	26	C3H5O3+
91.0542	44	C7H7+
93.0698	103	C7H9+
95.0491	18	C6H7O+
95.0854	70	C7H11+
97.0647	75	C6H9O+
105.0699	206	C8H9+
107.0855	183	C8H11+
109.0647	21	C7H9O+
109.1011	16	C8H13+
115.0539	6	C9H7+
117.0697	35	C9H9+
119.0855	127	C9H11+
121.1011	63	C9H13+
123.0803	4	C8H11O+
125.0597	17	C7H9O2+
128.0619	28	C10H8+
129.0698	31	C10H9+
130.0775	4	C10H10+
131.0855	276	C10H11+
133.1011	59	C10H13+
135.0805	17	C9H11O+
135.1168	14	C10H15+
141.0698	22	C11H9+
142.0779	45	C11H10+
143.0856	565	C11H11+
144.0935	30	C11H12+
145.1012	340	C11H13+
147.0801	3	C10H11O+
147.1169	31	C11H15+
149.0963	19	C10H13O+
151.0753	15	C9H11O2+
153.0693	3	C12H9+
154.0778	5	C12H10+
155.0855	119	C12H11+
156.0935	48	C12H12+
157.1012	278	C12H13+
158.109	87	C12H14+
159.1168	399	C12H15+
160.1248	4	C12H16+
161.0958	2	C11H13O+
161.1326	11	C12H17+
163.0752	3	C10H11O2+
163.1115	9	C11H15O+
165.0911	13	C10H13O2+
167.0854	15	C13H11+
168.0935	12	C13H12+
169.1011	308	C13H13+
170.1088	11	C13H14+
171.1168	308	C13H15+
173.1325	846	C13H17+
177.0908	6	C11H13O2+
177.1274	3	C12H17O+
179.0856	13	C14H11+
181.1012	48	C14H13+
182.1086	20	C14H14+
183.1169	225	C14H15+
184.1248	18	C14H16+
185.0961	4	C13H13O+
185.1326	61	C14H17+
187.1116	6	C13H15O+
187.148	3	C14H19+
189.0908	3	C12H13O2+
191.1067	54	C12H15O2+
192.0934	3	C15H12+
193.1012	41	C15H13+
194.1093	10	C15H14+
195.1169	30	C15H15+
196.1247	12	C15H16+
197.1325	145	C15H17+
198.1405	13	C15H18+
199.148	999	C15H19+
201.1637	147	C15H21+
203.1064	3	C13H15O2+
205.1014	4	C16H13+
205.1225	4	C13H17O2+
207.1169	70	C16H15+
208.1245	13	C16H16+
209.1326	5	C16H17+
210.1399	24	C16H18+
211.1118	35	C15H15O+
211.1479	50	C16H19+
213.1637	4	C16H21+
215.1796	22	C16H23+
219.1171	14	C17H15+
220.1248	6	C17H16+
221.1324	21	C17H17+
223.1482	155	C17H19+
225.1637	517	C17H21+
229.1226	21	C15H17O2+
234.1405	23	C18H18+
239.1432	6	C17H19O+
239.1795	58	C18H23+
243.1745	50	C17H23O+
249.1637	76	C19H21+
267.1744	20	C19H23O+
285.1851	18	C19H25O2+
