Mass spectrum: Metolachlor-TP SYN542490; LC-ESI-QFT; MS2; CE: 90%; R=17500; [M+H]+
Name: Metolachlor-TP SYN542490
Formula: C15H21NO6S
Exact mass: 343.1090
SMILES: O=S(=O)(O)CC(=O)N(C(C)COC)c1c(C)cccc1C(C)=O
InChI: InChI=1S/C15H21NO6S/c1-10-6-5-7-13(12(3)17)15(10)16(11(2)8-22-4)14(18)9-23(19,20)21/h5-7,11H,8-9H2,1-4H3,(H,19,20,21)
Instrument: Exploris 240 Orbitrap Thermo Scientific
Instrument type: LC-ESI-QFT
Ms type: MS2
Ion mode: POSITIVE
Ionization: ESI
Fragmentation mode: HCD
Collision energy: 90 % (nominal)
Resolution: 17500
Column name: XBridge C18 3.5um, 2.1x50mm, Waters
Retention time: 4.668 min
Base peak: 344.1159
Precursor m/z: 344.1162
Precursor type: [M+H]+
m/z	relative intensity	assigned
73.0649	189	C4H9O+
79.0544	102	C6H7+
91.0544	130	C7H7+
103.0543	71	C8H7+
105.0699	364	C8H9+
106.0651	159	C7H8N+
107.0729	38	C7H9N+
108.0809	159	C7H10N+
116.0498	127	C8H6N+
117.0574	214	C8H7N+
118.0649	186	C8H8N+
119.0491	60	C8H7O+
119.0732	49	C8H9N+
120.0808	160	C8H10N+
128.0619	169	C10H8+
129.07	505	C10H9+
130.0652	261	C9H8N+
131.073	395	C9H9N+
132.0808	594	C9H10N+
133.0886	33	C9H11N+
134.0602	124	C8H8NO+
134.0961	68	C9H12N+
141.0571	44	C10H7N+
144.0805	271	C10H10N+
145.0888	306	C10H11N+
146.0601	74	C9H8NO+
146.0965	348	C10H12N+
147.0682	45	C9H9NO+
148.1122	76	C10H14N+
154.0653	98	C11H8N+
155.0735	45	C5H15O3S+
156.0806	594	C11H10N+
157.0889	384	C11H11N+
158.0604	81	C4H14O4S+
158.0968	73	C5H18O3S+
160.0758	585	C10H10NO+
160.1122	225	C11H14N+
170.0965	407	C12H12N+
171.1044	96	C12H13N+
172.1121	999	C12H14N+
173.0836	86	C11H11NO+
174.0912	435	C11H12NO+
216.1019	44	C13H14NO2+
