Mass spectrum: N4-Acetylsulfamethoxazole; LC-ESI-ITFT; MS2; CE: 60%; R=7500; [M+H]+
Name: N4-Acetylsulfamethoxazole
Name: N-[4-[(5-methyl-1,2-oxazol-3-yl)sulfamoyl]phenyl]acetamide
Formula: C12H13N3O4S
Exact mass: 295.0627
SMILES: c1(ccc(cc1)NC(C)=O)S(Nc1cc(C)on1)(=O)=O
InChI: InChI=1S/C12H13N3O4S/c1-8-7-12(14-19-8)15-20(17,18)11-5-3-10(4-6-11)13-9(2)16/h3-7H,1-2H3,(H,13,16)(H,14,15)
Instrument: LTQ Orbitrap XL Thermo Scientific
Instrument type: LC-ESI-ITFT
Ms type: MS2
Ion mode: POSITIVE
Ionization: ESI
Fragmentation mode: HCD
Collision energy: 60 % (nominal)
Resolution: 7500
Column name: XBridge C18 3.5um, 2.1x50mm, Waters
Retention time: 5.5 min
Base peak: 318.0528
Precursor m/z: 296.07
Precursor type: [M+H]+
m/z	relative intensity	assigned
65.0385	388	C5H5+
80.0492	9	C5H6N+
92.0494	74	C6H6N+
93.0334	66	C6H5O+
93.0572	137	C6H7N+
94.065	50	C6H8N+
99.0552	75	C4H7N2O+
106.0649	23	C7H8N+
107.0603	18	C6H7N2+
108.0443	404	C6H6NO+
134.06	999	C8H8NO+
136.0754	52	C8H10NO+
146.0711	95	C8H8N3+
147.0789	75	C8H9N3+
148.087	16	C8H10N3+
156.0112	57	C6H6NO2S+
160.0868	145	C9H10N3+
162.0659	38	C8H8N3O+
176.0275	24	C8H6N3S+
188.081	18	C10H10N3O+
198.0218	27	C8H8NO3S+
201.066	19	C11H9N2O2+
