Mass spectrum: Albendazole; LC-ESI-QFT; MS2; CE: 45; R=35000; [M-H]-
Name: Albendazole
Name: Methyl N-(6-propylsulfanyl-1H-benzimidazol-2-yl)carbamate
Formula: C12H15N3O2S
Exact mass: 265.08850
SMILES: CCCSC1=CC2=C(C=C1)N=C(N2)NC(=O)OC
InChI: InChI=1S/C12H15N3O2S/c1-3-6-18-8-4-5-9-10(7-8)14-11(13-9)15-12(16)17-2/h4-5,7H,3,6H2,1-2H3,(H2,13,14,15,16)
Instrument: Q Exactive Plus Orbitrap Thermo Scientific
Instrument type: LC-ESI-QFT
Ms type: MS2
Ion mode: NEGATIVE
Ionization: ESI
Fragmentation mode: HCD
Collision energy: 45 (nominal)
Resolution: 35000
Column name: XBridge C18 3.5um, 2.1x50mm, Waters
Retention time: 7.8 min
Base peak: 232.0549
Precursor m/z: 264.0812
Precursor type: [M-H]-
m/z	relative intensity	assigned
161.0056	2	C7H3N3S-
189.0005	999	C8H3N3OS-
190.0086	3	C8H4N3OS-
221.0268	80	C9H7N3O2S-
232.0553	140	C11H10N3OS-
264.0813	1	C12H14N3O2S-
