Mass spectrum: Chlordiazepoxide; LC-ESI-QFT; MS2; CE: 45; R=35000; [M-H]-
Name: Chlordiazepoxide
Name: Zetran
Name: 7-chloro-4-hydroxy-N-methyl-5-phenyl-3H-1,4-benzodiazepin-2-imine
Formula: C16H14ClN3O
Exact mass: 299.08254
SMILES: CN=C1CN(C(=C2C=C(C=CC2=N1)Cl)C3=CC=CC=C3)O
InChI: InChI=1S/C16H14ClN3O/c1-18-15-10-20(21)16(11-5-3-2-4-6-11)13-9-12(17)7-8-14(13)19-15/h2-9,21H,10H2,1H3
Instrument: Q Exactive Plus Orbitrap Thermo Scientific
Instrument type: LC-ESI-QFT
Ms type: MS2
Ion mode: NEGATIVE
Ionization: ESI
Fragmentation mode: HCD
Collision energy: 45 (nominal)
Resolution: 35000
Column name: XBridge C18 3.5um, 2.1x50mm, Waters
Retention time: 6.2 min
Base peak: 298.0748
Precursor m/z: 298.0753
Precursor type: [M-H]-
m/z	relative intensity	assigned
55.0301	15	C2H3N2-
102.0348	1	C7H4N-
111.0005	4	C6H4Cl-
116.0142	6	C7H2NO-
129.0456	1	C8H5N2-
131.0614	1	C8H7N2-
135.9958	17	C7H3ClN-
145.0407	1	C8H5N2O-
151.9907	21	C7H3ClNO-
154.9903	1	C7H4ClO2-
165.0224	4	C8H6ClN2-
179.9857	1	C8H3ClNO2-
192.0332	17	C9H7ClN3-
193.0175	1	C9H6ClN2O-
193.0771	6	C13H9N2-
217.0766	3	C15H9N2-
218.0849	5	C15H10N2-
221.0719	49	C14H9N2O-
222.0792	7	C14H10N2O-
224.0272	1	C14H7ClN-
226.0426	9	C14H9ClN-
227.038	4	C13H8ClN2-
238.0292	8	C14H7ClN2-
239.0383	2	C14H8ClN2-
240.046	14	C14H9ClN2-
241.03	20	C14H8ClNO-
249.0669	12	C12H12ClN3O-
251.0383	7	C15H8ClN2-
253.0538	999	C15H10ClN2-
254.0615	543	C15H11ClN2-
255.0329	28	C14H8ClN2O-
255.069	10	C15H12ClN2-
267.0696	4	C16H12ClN2-
298.0747	5	C16H13ClN3O-
