Mass spectrum: Methsuximide; LC-ESI-QFT; MS2; CE: 15; R=35000; [M+H]+
Name: Methsuximide
Name: 1,3-dimethyl-3-phenylpyrrolidine-2,5-dione
Formula: C12H13NO2
Exact mass: 203.09463
SMILES: CC1(CC(=O)N(C1=O)C)C2=CC=CC=C2
InChI: InChI=1S/C12H13NO2/c1-12(9-6-4-3-5-7-9)8-10(14)13(2)11(12)15/h3-7H,8H2,1-2H3
Instrument: Q Exactive Orbitrap Thermo Scientific
Instrument type: LC-ESI-QFT
Ms type: MS2
Ion mode: POSITIVE
Ionization: ESI
Fragmentation mode: HCD
Collision energy: 15 (nominal)
Resolution: 35000
Column name: XBridge C18 3.5um, 2.1x50mm, Waters
Retention time: 6.8 min
Base peak: 204.1021
Precursor m/z: 204.1019
Precursor type: [M+H]+
m/z	relative intensity	assigned
58.0287	12	C2H4NO+
69.0334	27	C4H5O+
79.0542	34	C6H7+
91.0542	5	C7H7+
119.0855	207	C9H11+
121.0647	3	C8H9O+
126.0549	56	C6H8NO2+
134.0964	5	C9H12N+
145.0649	31	C10H9O+
147.0805	6	C10H11O+
158.0966	1	C11H12N+
162.0912	2	C10H12NO+
163.0755	1	C10H11O2+
176.107	23	C11H14NO+
186.0914	3	C12H12NO+
204.102	999	C12H14NO2+
