Mass spectrum: Metazachlor ESA; LC-ESI-ITFT; MS2; CE: 90%; R=7500; [M-H]-
Name: Metazachlor ESA
Name: 2-[(2,6-dimethylphenyl)(1H-pyrazol-1-ylmethyl)amino]-2-oxoethanesulfonic acid
Formula: C14H17N3O4S
Exact mass: 323.0940
SMILES: O=C(N(C1=C(C=CC=C1C)C)CN2C=CC=N2)CS(O)(=O)=O
InChI: InChI=1S/C14H17N3O4S/c1-11-5-3-6-12(2)14(11)17(10-16-8-4-7-15-16)13(18)9-22(19,20)21/h3-8H,9-10H2,1-2H3,(H,19,20,21)
Instrument: LTQ Orbitrap XL Thermo Scientific
Instrument type: LC-ESI-ITFT
Ms type: MS2
Ion mode: NEGATIVE
Ionization: ESI
Fragmentation mode: HCD
Collision energy: 90 % (nominal)
Resolution: 7500
Column name: XBridge C18 3.5um, 2.1x50mm, Waters
Retention time: 5.5 min
Base peak: 322.0864
Precursor m/z: 322.0867
Precursor type: [M-H]-
m/z	relative intensity	assigned
67.0302	608	C3H3N2-
76.9703	849	CHO2S-
79.9574	999	O3S-
93.973	162	CH2O3S-
120.0822	261	C8H10N-
120.9606	118	C2HO4S-
130.0665	675	C9H8N-
