Mass spectrum: Alfuzosin; LC-ESI-QFT; MS2; CE: 180; R=35000; [M+H]+
Name: Alfuzosin
Name: N-{3-[(4-Amino-6,7-dimethoxy-2-quinazolinyl)(methyl)amino]propyl}tetrahydro-2-furancarboxamide
Name: N-[3-[(4-amino-6,7-dimethoxyquinazolin-2-yl)-methylamino]propyl]oxolane-2-carboxamide
Formula: C19H27N5O4
Exact mass: 389.20630
SMILES: CN(CCCNC(=O)C1CCCO1)C2=NC3=CC(=C(C=C3C(=N2)N)OC)OC
InChI: InChI=1S/C19H27N5O4/c1-24(8-5-7-21-18(25)14-6-4-9-28-14)19-22-13-11-16(27-3)15(26-2)10-12(13)17(20)23-19/h10-11,14H,4-9H2,1-3H3,(H,21,25)(H2,20,22,23)
Instrument: Q Exactive Plus Orbitrap Thermo Scientific
Instrument type: LC-ESI-QFT
Ms type: MS2
Ion mode: POSITIVE
Ionization: ESI
Fragmentation mode: HCD
Collision energy: 180 (nominal)
Resolution: 35000
Column name: XBridge C18 3.5um, 2.1x50mm, Waters
Retention time: 5.3 min
Base peak: 390.2132
Precursor m/z: 390.2136
Precursor type: [M+H]+
m/z	relative intensity	assigned
50.0151	212	C4H2+
51.023	416	C4H3+
52.0182	231	C3H2N+
52.0308	80	C4H4+
53.0022	262	C3HO+
53.0386	131	C4H5+
53.9975	50	C2NO+
54.0338	50	C3H4N+
54.0464	24	C4H6+
55.0179	84	C3H3O+
55.029	30	C2H3N2+
56.013	6	C2H2NO+
56.0494	24	C3H6N+
57.0447	404	C2H5N2+
58.0288	5	C2H4NO+
58.065	27	C3H8N+
61.0072	31	
62.0151	142	C5H2+
63.0229	972	C5H3+
64.0182	389	C4H2N+
64.0308	84	C5H4+
65.026	176	C4H3N+
65.0386	415	C5H5+
66.0099	6	C4H2O+
66.0211	27	C3H2N2+
66.0338	50	C4H4N+
66.0464	22	C5H6+
67.0416	48	C4H5N+
67.9892	26	C3O2+
68.0131	106	C3H2NO+
68.0494	30	C4H6N+
69.0447	8	C3H5N2+
71.0491	600	C4H7O+
74.015	29	
75.0103	118	C5HN+
75.0229	73	C6H3+
76.0181	281	C5H2N+
76.0306	31	C6H4+
77.0133	34	C4HN2+
77.026	233	C5H3N+
77.0384	19	C6H5+
78.0338	912	C5H4N+
79.0178	34	C5H3O+
79.029	120	C4H3N2+
79.0416	151	C5H5N+
80.0131	76	C4H2NO+
80.0494	242	C5H6N+
81.0335	59	C5H5O+
82.0287	22	
88.0182	113	C6H2N+
89.0259	44	C6H3N+
89.0385	12	C7H5+
90.0339	441	C6H4N+
91.0291	25	
91.0417	188	C6H5N+
92.0369	471	C5H4N2+
92.0495	119	C6H6N+
93.0336	5	C6H5O+
93.0448	43	C5H5N2+
94.0289	8	C5H4NO+
95.0366	29	C5H5NO+
95.0492	50	C6H7O+
96.0444	121	C5H6NO+
97.0524	10	C5H7NO+
101.0259	50	C7H3N+
102.0338	77	C7H4N+
103.0291	114	C6H3N2+
103.0415	23	C7H5N+
104.0131	34	C6H2NO+
104.0368	36	C6H4N2+
104.0494	43	C7H6N+
105.0448	999	C6H5N2+
106.0287	282	C6H4NO+
106.0526	93	C6H6N2+
107.0366	57	C6H5NO+
107.0602	8	C6H7N2+
108.0443	46	C6H6NO+
110.06	9	C6H8NO+
111.044	29	C6H7O2+
115.0291	32	C7H3N2+
116.037	59	C7H4N2+
117.0209	10	
117.0447	96	C7H5N2+
118.0288	40	C7H4NO+
118.04	27	
118.0525	84	C7H6N2+
119.0365	37	C7H5NO+
119.0479	8	C6H5N3+
119.0605	58	C7H7N2+
120.008	90	C6H2NO2+
120.0318	92	C6H4N2O+
120.0444	116	C7H6NO+
120.0556	9	C6H6N3+
121.0397	65	C6H5N2O+
129.0448	73	C8H5N2+
130.04	96	C7H4N3+
131.0241	40	C7H3N2O+
131.0603	7	C8H7N2+
132.0318	9	C7H4N2O+
132.0555	13	C7H6N3+
132.0678	6	C8H8N2+
133.0396	175	C7H5N2O+
133.0633	9	C7H7N3+
134.0237	8	C7H4NO2+
134.0475	73	C7H6N2O+
135.0554	63	C7H7N2O+
136.0268	21	C6H4N2O2+
136.0395	8	C7H6NO2+
141.032	12	C8H3N3+
144.0556	20	C8H6N3+
145.0398	59	C8H5N2O+
146.0236	35	C8H4NO2+
146.0349	6	C7H4N3O+
147.0553	50	C8H7N2O+
147.0665	19	C7H7N4+
158.0472	7	C9H6N2O+
159.0428	11	C8H5N3O+
160.0507	6	C8H6N3O+
161.0346	32	C8H5N2O2+
163.0505	9	C8H7N2O2+
173.0347	24	C9H5N2O2+
177.0293	12	C8H5N2O3+
186.0293	7	C9H4N3O2+
191.0452	10	C9H7N2O3+
