Mass spectrum: Thifensulfuron-methyl; LC-ESI-ITFT; MS2; CE: 60%; R=7500; [M+H]+
Name: Thifensulfuron-methyl
Name: 3-[(4-methoxy-6-methyl-s-triazin-2-yl)carbamoylsulfamoyl]thiophene-2-carboxylic acid methyl ester
Formula: C12H13N5O6S2
Exact mass: 387.0307
SMILES: COC(=O)C1=C(C=CS1)S(=O)(=O)NC(=O)NC1=NC(C)=NC(OC)=N1
InChI: InChI=1S/C12H13N5O6S2/c1-6-13-10(16-12(14-6)23-3)15-11(19)17-25(20,21)7-4-5-24-8(7)9(18)22-2/h4-5H,1-3H3,(H2,13,14,15,16,17,19)
Instrument: LTQ Orbitrap XL Thermo Scientific
Instrument type: LC-ESI-ITFT
Ms type: MS2
Ion mode: POSITIVE
Ionization: ESI
Fragmentation mode: HCD
Collision energy: 60 % (nominal)
Resolution: 7500
Column name: XBridge C18 3.5um, 2.1x50mm, Waters
Retention time: 7.2 min
Base peak: 388.0375
Precursor m/z: 388.038
Precursor type: [M+H]+
m/z	relative intensity	assigned
69.0084	31	C2HN2O+
69.9872	3	C3H2S+
78.9849	28	CH3O2S+
83.0241	93	C3H3N2O+
85.0109	9	C4H5S+
85.0397	10	C3H5N2O+
86.9901	5	C3H3OS+
97.9822	19	C4H2OS+
100.0507	18	C3H6N3O+
107.9899	3	C5H2NS+
110.9895	3	C5H3OS+
125.9771	243	C5H2O2S+
126.9851	4	C5H3O2S+
141.0006	118	C6H5O2S+
141.0772	302	C5H9N4O+
143.9876	10	C5H4O3S+
167.0564	999	C6H7N4O2+
171.9523	4	C5H2NO2S2+
174.9519	77	C5H3O3S2+
189.9629	31	C5H4NO3S2+
204.9625	496	C6H5O4S2+
215.9423	26	C6H2NO4S2+
222.9727	8	C6H7O5S2+
