Mass spectrum: Tolbutamide; LC-ESI-QFT; MS2; CE: 90%; R=17500; [M+H]+
Name: Tolbutamide
Name: 1-butyl-3-(4-methylphenyl)sulfonylurea
Formula: C12H18N2O3S
Exact mass: 270.103813436
SMILES: CCCCNC(=O)NS(=O)(=O)C1=CC=C(C=C1)C
InChI: InChI=1S/C12H18N2O3S/c1-3-4-9-13-12(15)14-18(16,17)11-7-5-10(2)6-8-11/h5-8H,3-4,9H2,1-2H3,(H2,13,14,15)
Instrument: Exploris 240 Orbitrap Thermo Scientific
Instrument type: LC-ESI-QFT
Ms type: MS2
Ion mode: POSITIVE
Ionization: ESI
Fragmentation mode: HCD
Collision energy: 90 % (nominal)
Resolution: 17500
Column name: XBridge C18 3.5um, 2.1x50mm, Waters
Retention time: 6.959 min
Base peak: 271.1108
Precursor m/z: 271.1111
Precursor type: [M+H]+
m/z	relative intensity	assigned
57.0699	116	C4H9+
65.0386	156	C5H5+
74.0964	34	C4H12N+
79.9799	8	H2NO2S+
91.0542	999	C7H7+
93.0699	5	C7H9+
109.0648	55	C7H9O+
119.0604	148	C7H7N2+
