Mass spectrum: 4-chloro-N,N-dimethylaniline; LC-ESI-QFT; MS2; CE: 180; R=35000; [M+H]+
Name: 4-chloro-N,N-dimethylaniline
Name: 4-Chloro-N,N-dimethylaniline
Formula: C8H10ClN
Exact mass: 155.05018
SMILES: CN(C)c1ccc(cc1)Cl
InChI: InChI=1S/C8H10ClN/c1-10(2)8-5-3-7(9)4-6-8/h3-6H,1-2H3
Instrument: Q Exactive Plus Orbitrap Thermo Scientific
Instrument type: LC-ESI-QFT
Ms type: MS2
Ion mode: POSITIVE
Ionization: ESI
Fragmentation mode: HCD
Collision energy: 180 (nominal)
Resolution: 35000
Column name: XBridge C18 3.5um, 2.1x50mm, Waters
Retention time: 7.1 min
Base peak: 156.0573
Precursor m/z: 156.0575
Precursor type: [M+H]+
m/z	relative intensity	assigned
50.0151	46	C4H2+
51.0229	35	C4H3+
53.0022	41	C3HO+
53.0386	68	C4H5+
55.0178	6	C3H3O+
61.9792	2	CHClN+
63.0228	31	C5H3+
65.0385	26	C5H5+
72.9839	134	C3H2Cl+
74.015	165	C6H2+
75.0228	999	C6H3+
76.0306	20	C6H4+
77.0384	156	C6H5+
78.0337	6	C5H4N+
78.0463	26	C6H6+
79.0178	5	C5H3O+
79.0541	7	C6H7+
80.0256	5	C5H4O+
81.0335	10	C5H5O+
84.9839	83	C4H2Cl+
86.9995	56	C4H4Cl+
90.0338	4	C6H4N+
91.0416	24	C6H5N+
91.0541	7	C7H7+
93.0334	19	C6H5O+
94.0413	10	C6H6O+
95.0491	270	C6H7O+
96.0443	13	C5H6NO+
98.9995	236	C5H4Cl+
104.0494	399	C7H6N+
105.0447	150	C6H5N2+
105.0572	261	C7H7N+
106.065	4	C7H8N+
110.9995	137	C6H4Cl+
112.0073	342	C6H5Cl+
113.0151	34	C6H6Cl+
114.9945	3	C5H4ClO+
120.0809	1	C8H10N+
121.0396	3	C6H5N2O+
125.0027	3	C6H4ClN+
126.0104	12	C6H5ClN+
129.01	206	C6H6ClO+
138.0105	9	C7H5ClN+
139.0057	445	C6H4ClN2+
140.026	418	C7H7ClN+
141.0339	1	C7H8ClN+
