Mass spectrum: Oryzalin; LC-ESI-QFT; MS2; CE: 45; R=35000; [M+H]+
Name: Oryzalin
Name: 4-(dipropylamino)-3,5-dinitro-benzenesulfonamide
Formula: C12H18N4O6S
Exact mass: 346.09471
SMILES: [O-][N+](=O)c1cc(cc([N+]([O-])=O)c1N(CCC)CCC)S(=O)(=O)N
InChI: InChI=1S/C12H18N4O6S/c1-3-5-14(6-4-2)12-10(15(17)18)7-9(23(13,21)22)8-11(12)16(19)20/h7-8H,3-6H2,1-2H3,(H2,13,21,22)
Instrument: Q Exactive Orbitrap Thermo Scientific
Instrument type: LC-ESI-QFT
Ms type: MS2
Ion mode: POSITIVE
Ionization: ESI
Fragmentation mode: HCD
Collision energy: 45 (nominal)
Resolution: 35000
Column name: XBridge C18 3.5um, 2.1x50mm, Waters
Retention time: 12.1 min
Base peak: 347.1021
Precursor m/z: 347.102
Precursor type: [M+H]+
m/z	relative intensity	assigned
52.0183	25	C3H2N+
53.0023	40	C3HO+
53.9975	5	C2NO+
55.0178	3	C3H3O+
56.0132	122	C2H2NO+
57.0335	29	C3H5O+
59.0491	4	C3H7O+
63.9851	33	H2NOS+
64.0182	6	C4H2N+
65.0259	16	C4H3N+
66.0213	4	C3H2N2+
66.0337	3	C4H4N+
67.0416	12	C4H5N+
67.9893	3	C3O2+
68.0131	19	C3H2NO+
68.0495	3	C4H6N+
69.0083	5	C2HN2O+
69.0208	2	C3H3NO+
70.0288	3	C3H4NO+
76.0179	3	C5H2N+
77.0134	4	C4HN2+
77.0259	3	C5H3N+
78.0212	5	C4H2N2+
78.0337	50	C5H4N+
79.0291	21	C4H3N2+
79.0416	12	C5H5N+
79.0542	3	C6H7+
80.0131	16	C4H2NO+
80.0369	7	C4H4N2+
80.0494	15	C5H6N+
81.0209	4	C4H3NO+
82.0286	7	C4H4NO+
84.0444	21	C4H6NO+
90.0212	3	C5H2N2+
91.0289	6	C5H3N2+
91.0542	16	C7H7+
92.013	14	C5H2NO+
92.0369	56	C5H4N2+
92.0494	6	C6H6N+
93.0209	29	C5H3NO+
93.0447	24	C5H5N2+
93.0572	4	C6H7N+
93.0698	3	C7H9+
94.0162	5	C4H2N2O+
94.0287	15	C5H4NO+
94.0525	10	C5H6N2+
95.024	22	C4H3N2O+
95.0365	4	C5H5NO+
103.0543	5	C8H7+
104.0495	23	C7H6N+
105.0208	4	C6H3NO+
105.0448	47	C6H5N2+
105.0572	7	C7H7N+
105.07	3	C8H9+
106.0289	4	C6H4NO+
106.0527	5	C6H6N2+
106.065	5	C7H8N+
107.0239	13	C5H3N2O+
107.0602	4	C6H7N2+
108.0076	4	C5H2NO2+
108.0317	6	C5H4N2O+
109.0163	4	C5H3NO2+
109.0391	3	C5H5N2O+
115.0537	4	C9H7+
116.0491	9	C8H6N+
117.0572	119	C8H7N+
118.016	6	C6H2N2O+
118.0398	4	C6H4N3+
118.0525	14	C7H6N2+
118.0651	16	C8H8N+
119.0241	36	C6H3N2O+
120.0318	3	C6H4N2O+
120.0555	6	C6H6N3+
120.0808	35	C8H10N+
121.0396	28	C6H5N2O+
121.0634	4	C6H7N3+
122.0476	5	C6H6N2O+
123.0187	6	C5H3N2O2+
124.0267	3	C5H4N2O2+
130.0653	7	C9H8N+
131.0604	34	C8H7N2+
131.0729	7	C9H9N+
132.0319	71	C7H4N2O+
132.0808	100	C9H10N+
133.0396	108	C7H5N2O+
133.0522	18	C8H7NO+
134.035	4	C6H4N3O+
134.0474	24	C7H6N2O+
134.0601	3	C8H8NO+
135.0189	21	C6H3N2O2+
135.0427	21	C6H5N3O+
135.0553	12	C7H7N2O+
136.0268	29	C6H4N2O2+
136.076	5	C8H10NO+
137.0345	17	C6H5N2O2+
143.0604	12	C9H7N2+
145.0397	213	C8H5N2O+
145.0761	31	C9H9N2+
146.0477	4	C8H6N2O+
146.0597	3	CH12N3O3S+
148.014	24	C6H2N3O2+
148.0269	6	C7H4N2O2+
148.0506	33	C7H6N3O+
148.0758	64	C9H10NO+
149.0221	7	C6H3N3O2+
149.0346	53	C7H5N2O2+
149.0584	3	C7H7N3O+
150.0299	17	C6H4N3O2+
150.0422	5	C7H6N2O2+
151.0503	11	C7H7N2O2+
152.0217	15	C6H4N2O3+
153.0297	3	C6H5N2O3+
159.0556	22	C9H7N2O+
160.0631	11	C9H8N2O+
161.071	66	C9H9N2O+
163.0503	13	C8H7N2O2+
165.0167	17	C6H3N3O3+
165.0291	5	C7H5N2O3+
167.0452	25	C7H7N2O3+
167.0561	5	C6H7N4O2+
170.0145	45	C6H6N2O2S+
171.0221	49	C6H7N2O2S+
176.0819	6	C9H10N3O+
177.0659	66	C9H9N2O2+
178.0245	28	C7H4N3O3+
178.0733	31	
179.0326	27	C7H5N3O3+
180.0403	12	C7H6N3O3+
182.0197	55	C6H4N3O4+
184.0352	15	C6H6N3O4+
185.0253	5	C6H7N3O2S+
190.061	4	C9H8N3O2+
194.9861	16	C7H3N2O3S+
196.0356	12	C7H6N3O4+
197.0015	5	C7H5N2O3S+
197.0253	52	C7H7N3O2S+
198.0145	999	C6H4N3O5+
200.0125	12	C6H6N3O3S+
200.0302	22	C6H6N3O5+
201.0202	31	C6H7N3O3S+
206.0309	21	CH10N4O6S+
211.0226	4	C7H5N3O5+
212.0123	32	C7H6N3O3S+
213.0203	205	C7H7N3O3S+
214.0153	5	C6H6N4O3S+
217.0153	104	C6H7N3O4S+
223.0409	8	C9H9N3O2S+
224.0489	19	C9H10N3O2S+
224.0664	23	C9H10N3O4+
225.0565	50	C9H11N3O2S+
227.0235	4	C7H7N4O3S+
227.9714	21	C6H2N3O5S+
227.9949	15	C6H4N4O4S+
228.0073	157	C7H6N3O4S+
230.0109	11	C8H8NO5S+
230.0231	22	C7H8N3O4S+
231.018	24	C6H7N4O4S+
232.0023	73	C6H6N3O5S+
240.0441	29	C9H10N3O3S+
240.0615	448	C9H10N3O5+
241.0513	33	C9H11N3O3S+
241.9868	7	C7H4N3O5S+
242.0106	48	C7H6N4O4S+
243.0183	283	C7H7N4O4S+
244.9977	85	C6H5N4O5S+
245.9816	531	C6H4N3O6S+
246.0041	63	
247.0132	100	C6H7N4O5S+
255.0182	12	C8H7N4O4S+
256.039	23	C9H10N3O4S+
259.0132	299	C7H7N4O5S+
263.0083	108	C6H7N4O6S+
269.0341	63	C9H9N4O4S+
270.042	15	C9H10N4O4S+
271.0495	97	C9H11N4O4S+
287.0441	5	C9H11N4O5S+
288.0285	137	C9H10N3O6S+
301.0604	55	C10H13N4O5S+
