Mass spectrum: Fenson; LC-ESI-QFT; MS2; CE: 90%; R=17500; [M+H]+
Name: Fenson
Name: (4-chlorophenyl) benzenesulfonate
Formula: C12H9ClO3S
Exact mass: 267.9961
SMILES: C1=CC=C(C=C1)S(=O)(=O)OC2=CC=C(C=C2)Cl
InChI: InChI=1S/C12H9ClO3S/c13-10-6-8-11(9-7-10)16-17(14,15)12-4-2-1-3-5-12/h1-9H
Instrument: Exploris 240 Orbitrap Thermo Scientific
Instrument type: LC-ESI-QFT
Ms type: MS2
Ion mode: POSITIVE
Ionization: ESI
Fragmentation mode: HCD
Collision energy: 90 % (nominal)
Resolution: 17500
Column name: XBridge C18 3.5um, 2.1x50mm, Waters
Retention time: 9.705 min
Base peak: 170.0965
Precursor m/z: 269.0034
Precursor type: [M+H]+
m/z	relative intensity	assigned
51.023	256	C4H3+
53.0386	631	C4H5+
55.0179	25	C3H3O+
65.0386	61	C5H5+
72.984	107	C3H2Cl+
77.0386	999	C6H5+
81.0336	55	C5H5O+
94.0416	70	C6H6O+
95.0492	700	C6H7O+
97.0109	103	C5H5S+
98.9997	752	C5H4Cl+
128.0025	107	C6H5ClO+
