Mass spectrum: 3,4-Methylenedioxyamphetamine (MDA); LC-ESI-QFT; MS2; CE: 75; R=35000; [M+H]+
Name: 3,4-Methylenedioxyamphetamine (MDA)
Name: 1-(3,4-Methylenedioxyphenyl)-2-aminopropane
Name: 1-(1,3-benzodioxol-5-yl)propan-2-amine
Formula: C10H13NO2
Exact mass: 179.09463
SMILES: CC(CC1=CC2=C(C=C1)OCO2)N
InChI: InChI=1S/C10H13NO2/c1-7(11)4-8-2-3-9-10(5-8)13-6-12-9/h2-3,5,7H,4,6,11H2,1H3
Instrument: Q Exactive Plus Orbitrap Thermo Scientific
Instrument type: LC-ESI-QFT
Ms type: MS2
Ion mode: POSITIVE
Ionization: ESI
Fragmentation mode: HCD
Collision energy: 75 (nominal)
Resolution: 35000
Column name: XBridge C18 3.5um, 2.1x50mm, Waters
Retention time: 3.6 min
Base peak: 180.1013
Precursor m/z: 180.1019
Precursor type: [M+H]+
m/z	relative intensity	assigned
50.015	1	C4H2+
51.0228	4	C4H3+
53.0385	13	C4H5+
55.0178	45	C3H3O+
65.0384	12	C5H5+
77.0384	44	C6H5+
79.0541	285	C6H7+
81.0335	2	C5H5O+
91.0541	10	C7H7+
93.0334	17	C6H5O+
95.049	45	C6H7O+
103.0541	172	C8H7+
105.0697	999	C8H9+
107.0489	4	C7H7O+
111.0439	6	C6H7O2+
115.0541	13	C9H7+
121.0282	9	C7H5O2+
122.036	20	C7H6O2+
131.049	2	C9H7O+
133.0646	304	C9H9O+
135.0438	550	C8H7O2+
147.044	3	C9H7O2+
148.0516	8	C9H8O2+
151.0753	2	C9H11O2+
163.0751	34	C10H11O2+
