Mass spectrum: Flurtamone; LC-ESI-QFT; MS2; CE: 30; R=35000; [M+H]+
Name: Flurtamone
Name: 5-(methylamino)-2-phenyl-4-[3-(trifluoromethyl)phenyl]furan-3-one
Formula: C18H14F3NO2
Exact mass: 333.09766
SMILES: CNC1=C(C(=O)C(O1)C2=CC=CC=C2)C3=CC(=CC=C3)C(F)(F)F
InChI: InChI=1S/C18H14F3NO2/c1-22-17-14(12-8-5-9-13(10-12)18(19,20)21)15(23)16(24-17)11-6-3-2-4-7-11/h2-10,16,22H,1H3
Instrument: Q Exactive Plus Orbitrap Thermo Scientific
Instrument type: LC-ESI-QFT
Ms type: MS2
Ion mode: POSITIVE
Ionization: ESI
Fragmentation mode: HCD
Collision energy: 30 (nominal)
Resolution: 35000
Column name: XBridge C18 3.5um, 2.1x50mm, Waters
Retention time: 10.1 min
Base peak: 334.1042
Precursor m/z: 334.1049
Precursor type: [M+H]+
m/z	relative intensity	assigned
58.0287	33	C2H4NO+
77.0386	1	C6H5+
103.0542	11	C8H7+
105.0335	57	C7H5O+
120.0808	30	C8H10N+
131.0492	29	C9H7O+
159.0414	1	C8H6F3+
171.0416	9	C9H6F3+
199.0366	19	C10H6F3O+
209.0762	2	C15H10F+
225.0159	22	C11H4F3O2+
227.0659	1	C15H9F2+
228.0632	3	C11H9F3NO+
229.0824	3	C15H11F2+
237.071	4	C16H10FO+
238.0481	3	C12H7F3NO+
243.0263	3	C14H5F2O2+
247.073	195	C15H10F3+
249.0885	8	C15H12F3+
255.0813	1	C16H12FO2+
256.0581	25	C12H9F3NO2+
257.0773	43	C16H11F2O+
259.0728	1	C16H10F3+
275.0679	195	C16H10F3O+
275.0873	15	C16H13F2O2+
277.0836	99	C16H12F3O+
286.104	5	C17H14F2NO+
288.0994	14	C17H13F3N+
303.0629	237	C17H10F3O2+
306.1101	202	C17H15F3NO+
314.0986	7	C18H14F2NO2+
316.0945	22	C18H13F3NO+
333.0973	1	C18H14F3NO2+
334.1048	999	C18H15F3NO2+
