Mass spectrum: Metribuzin; LC-ESI-ITFT; MS2; CE: 35%; R=30000; [M+H]+
Name: Metribuzin
Name: 1,2,4-Triazin-5(4H)-one, 4-amino-6-(1,1-dimethylethyl)-3-(methylthio)-
Name: 4-amino-6-tert-butyl-3-(methylthio)-1,2,4-triazin-5-one
Formula: C8H14N4OS
Exact mass: 214.0883
SMILES: S(C)C(=NN=C1C(C)(C)C)N(N)C1=O
InChI: InChI=1S/C8H14N4OS/c1-8(2,3)5-6(13)12(9)7(14-4)11-10-5/h9H2,1-4H3
Instrument: LTQ Orbitrap XL Thermo Scientific
Instrument type: LC-ESI-ITFT
Ms type: MS2
Ion mode: POSITIVE
Ionization: ESI
Fragmentation mode: CID
Collision energy: 35 % (nominal)
Resolution: 30000
Column name: XBridge C18 3.5um, 2.1x50mm, Waters
Retention time: 6.9 min
Base peak: 215.0964
Precursor m/z: 215.0961
Precursor type: [M+H]+
m/z	relative intensity	assigned
57.0699	2	C4H9+
69.0083	5	C2HN2O+
69.0699	5	C5H9+
70.0653	1	C4H8N+
74.0059	9	C2H4NS+
76.0216	11	C2H6NS+
79.0542	4	C6H7+
82.0651	8	C5H8N+
83.024	9	C3H3N2O+
84.0192	3	C2H2N3O+
84.0808	47	C5H10N+
86.9899	12	C3H3OS+
87.0011	17	C2H3N2S+
88.009	6	C2H4N2S+
89.0168	36	C2H5N2S+
89.042	6	C4H9S+
94.0652	1	C6H8N+
97.0648	30	C6H9O+
97.076	5	C5H9N2+
99.0916	3	C5H11N2+
103.0576	9	C5H11S+
104.0165	6	C3H6NOS+
104.0277	5	C2H6N3S+
109.0759	3	C6H9N2+
110.06	4	C6H8NO+
112.0758	3	C6H10NO+
114.9961	116	C3H3N2OS+
123.0555	1	C6H7N2O+
124.0869	3	C6H10N3+
125.0709	2	C6H9N2O+
130.0685	31	C6H12NS+
131.0274	175	C4H7N2OS+
131.0385	10	C3H7N4S+
132.0226	15	C3H6N3OS+
136.0869	4	C7H10N3+
139.0866	8	C7H11N2O+
140.1056	14	C6H12N4+
142.0069	1	C4H4N3OS+
143.0638	4	C6H11N2S+
145.0543	62	C4H9N4S+
150.0662	4	C7H8N3O+
155.0512	3	C6H9N3S+
155.0635	2	C7H11N2S+
157.043	15	C6H9N2OS+
159.0335	6	C4H7N4OS+
167.0928	22	C7H11N4O+
169.1083	15	C7H13N4O+
171.0587	67	C7H11N2OS+
172.0665	17	C7H12N2OS+
172.0782	1	C6H12N4S+
183.0461	12	C7H9N3OS+
186.0822	345	C8H14N2OS+
187.1012	999	C7H15N4S+
198.0695	5	C8H12N3OS+
200.0725	4	C7H12N4OS+
