Mass spectrum: Oseltamivir carboxylate; LC-ESI-ITFT; MS2; CE: 15%; R=7500; [M-H]-
Name: Oseltamivir carboxylate
Name: (3R,4R,5S)-4-acetamido-5-amino-3-pentan-3-yloxycyclohexene-1-carboxylic acid
Formula: C14H24N2O4
Exact mass: 284.1736
SMILES: CCC(CC)O[C@@H]1C=C(C[C@@H]([C@H]1NC(=O)C)N)C(=O)O
InChI: InChI=1S/C14H24N2O4/c1-4-10(5-2)20-12-7-9(14(18)19)6-11(15)13(12)16-8(3)17/h7,10-13H,4-6,15H2,1-3H3,(H,16,17)(H,18,19)/t11-,12+,13+/m0/s1
Instrument: LTQ Orbitrap XL Thermo Scientific
Instrument type: LC-ESI-ITFT
Ms type: MS2
Ion mode: NEGATIVE
Ionization: ESI
Fragmentation mode: HCD
Collision energy: 15 % (nominal)
Resolution: 7500
Column name: XBridge C18 3.5um, 2.1x50mm, Waters
Retention time: 5.2 min
Base peak: 283.167
Precursor m/z: 283.1663
Precursor type: [M-H]-
m/z	relative intensity	assigned
136.0404	103	C7H6NO2-
151.0882	127	C8H11N2O-
195.0777	442	C9H11N2O3-
207.1024	62	C12H15O3-
224.1295	268	C12H18NO3-
283.1663	999	C14H23N2O4-
