Mass spectrum: Dimethenamid OXA; LC-ESI-ITFT; MS2; CE: 90%; R=7500; [M+H]+
Name: Dimethenamid OXA
Name: [(2,4-dimethylthiophen-3-yl)(1-methoxypropan-2-yl)amino](oxo)acetic acid
Formula: C12H17NO4S
Exact mass: 271.0878
SMILES: S(C=C1C)C(C)=C1N(C(=O)C(=O)O)C(COC)C
InChI: InChI=1S/C12H17NO4S/c1-7-6-18-9(3)10(7)13(8(2)5-17-4)11(14)12(15)16/h6,8H,5H2,1-4H3,(H,15,16)
Instrument: LTQ Orbitrap XL Thermo Scientific
Instrument type: LC-ESI-ITFT
Ms type: MS2
Ion mode: POSITIVE
Ionization: ESI
Fragmentation mode: HCD
Collision energy: 90 % (nominal)
Resolution: 7500
Column name: XBridge C18 3.5um, 2.1x50mm, Waters
Retention time: 7.5 min
Base peak: 272.0948
Precursor m/z: 272.0951
Precursor type: [M+H]+
m/z	relative intensity	assigned
65.0387	18	C5H5+
67.0542	27	C5H7+
70.9951	8	C3H3S+
73.0648	48	C4H9O+
77.0385	55	C6H5+
78.0465	19	C6H6+
79.0542	45	C6H7+
80.0494	12	C5H6N+
82.0651	36	C5H8N+
85.0105	25	C4H5S+
91.0541	15	C7H7+
92.0496	29	C6H6N+
93.0573	95	C6H7N+
93.0701	9	C7H9+
94.0651	170	C6H8N+
95.0489	7	C6H7O+
95.0729	59	C6H9N+
97.0107	79	C5H5S+
98.0182	6	C5H6S+
99.0263	80	C5H7S+
101.0417	10	C5H9S+
104.0495	48	C7H6N+
105.0445	25	C6H5N2+
105.0574	128	C7H7N+
106.0656	11	C7H8N+
108.0807	19	C7H10N+
109.0105	33	C6H5S+
110.0189	8	C6H6S+
110.06	24	C6H8NO+
111.0263	525	C6H7S+
112.0215	12	C5H6NS+
112.034	59	C6H8S+
113.0292	21	C5H7NS+
113.0419	33	C6H9S+
115.0541	8	C9H7+
117.0569	10	C8H7N+
118.0649	23	C8H8N+
119.0731	15	C8H9N+
120.0444	33	C7H6NO+
120.0808	76	C8H10N+
121.0523	25	C7H7NO+
123.0137	52	C6H5NS+
124.0216	22	C6H6NS+
124.0341	9	C7H8S+
125.0298	15	C6H7NS+
125.0419	50	C7H9S+
126.0372	999	C6H8NS+
127.0211	20	C6H7OS+
127.0453	24	C6H9NS+
128.0525	11	C6H10NS+
129.0371	7	C6H9OS+
132.0808	37	C9H10N+
133.0887	27	C9H11N+
134.0966	43	C9H12N+
135.1041	18	C9H13N+
136.0216	52	C7H6NS+
136.0348	5	C8H8S+
137.0292	14	C7H7NS+
138.0014	15	C6H4NOS+
138.0372	297	C7H8NS+
139.0089	23	C6H5NOS+
140.0529	8	C7H10NS+
150.0376	34	C8H8NS+
151.0445	16	C8H9NS+
152.0163	63	C7H6NOS+
152.0528	121	C8H10NS+
153.0239	25	C7H7NOS+
153.0609	26	C8H11NS+
154.0321	51	C7H8NOS+
166.068	8	C9H12NS+
