Mass spectrum: MCLY; LC-ESI-QFT; MS2; CE: 45%; R=17500; [M-H]-
Name: MCLY
Name: Microcystin LY
Name: (5R,8S,11R,12S,15S,18S,19S,22R)-15-[(4-hydroxyphenyl)methyl]-18-[(1E,3E,5S,6S)-6-methoxy-3,5-dimethyl-7-phenylhepta-1,3-dienyl]-1,5,12,19-tetramethyl-2-methylidene-8-(2-methylpropyl)-3,6,9,13,16,20,25-heptaoxo-1,4,7,10,14,17,21-heptazacyclopentacosane-11,22-dicarboxylic acid
Class: NA
Formula: C52H71N7O13
Exact mass: 1001.5110
SMILES: COC(Cc1ccccc1)C(C)\C=C(C)\C=C/C2NC(=O)C(Cc3ccc(O)cc3)NC(=O)C(C)C(NC(=O)C(CC(C)C)NC(=O)C(C)NC(=O)C(=C)N(C)C(=O)CCC(NC(=O)C2C)C(O)=O)C(O)=O
InChI: InChI=1S/C52H71N7O13/c1-28(2)24-40-50(67)58-44(52(70)71)32(6)46(63)56-41(26-36-17-19-37(60)20-18-36)49(66)54-38(21-16-29(3)25-30(4)42(72-10)27-35-14-12-11-13-15-35)31(5)45(62)55-39(51(68)69)22-23-43(61)59(9)34(8)48(65)53-33(7)47(64)57-40/h11-21,25,28,30-33,38-42,44,60H,8,22-24,26-27H2,1-7,9-10H3,(H,53,65)(H,54,66)(H,55,62)(H,56,63)(H,57,64)(H,58,67)(H,68,69)(H,70,71)/b21-16-,29-25+
Instrument: Q Exactive Plus Orbitrap Thermo Scientific
Instrument type: LC-ESI-QFT
Ms type: MS2
Ion mode: NEGATIVE
Ionization: ESI
Fragmentation mode: HCD
Collision energy: 45 % (nominal)
Resolution: 17500
Column name: XBridge C18 3.5um, 2.1x50mm, Waters
Retention time: 10.715 min
Base peak: 190.9277
Precursor m/z: 1000.5037
Precursor type: [M-H]-
m/z	relative intensity	assigned
72.0455	23	C3H6NO-
73.0294	14	C3H5O2-
74.0248	39	C2H4NO2-
82.0299	30	C4H4NO-
82.0663	13	C5H8N-
84.0457	41	C4H6NO-
87.0566	31	C3H7N2O-
91.0556	7	C7H7-
93.0342	10	C6H5O-
96.0456	16	C5H6NO-
97.041	11	C4H5N2O-
98.0247	8	C4H4NO2-
98.0614	12	C5H8NO-
99.0199	10	C3H3N2O2-
99.0564	98	C4H7N2O-
100.0405	23	C4H6NO2-
109.0405	8	C5H5N2O-
110.0248	298	C5H4NO2-
110.0606	10	
111.0564	15	C5H7N2O-
112.0404	59	C5H6NO2-
112.0769	19	C6H10NO-
113.0355	33	C4H5N2O2-
119.0502	113	C8H7O-
120.0455	6	C7H6NO-
123.0564	65	C6H7N2O-
124.0403	187	C6H6NO2-
125.0355	13	C5H5N2O2-
125.072	23	C6H9N2O-
127.0514	67	C5H7N2O2-
127.0879	13	C6H11N2O-
128.0353	999	C5H6NO3-
129.1032	163	C6H13N2O-
130.0511	13	C5H8NO3-
130.0872	18	C6H12NO2-
134.061	14	C8H8NO-
135.056	10	C7H7N2O-
136.0404	10	C7H6NO2-
138.0434	16	C6H6N2O2-
138.0559	9	C7H8NO2-
139.0875	127	C7H11N2O-
140.0717	10	C7H10NO2-
141.0668	39	C6H9N2O2-
145.0294	22	C9H5O2-
149.0355	12	C7H5N2O2-
149.0717	16	C8H9N2O-
150.0558	34	C8H8NO2-
152.0824	14	C7H10N3O-
153.0667	166	C7H9N2O2-
153.1031	12	C8H13N2O-
155.0823	82	C7H11N2O2-
155.119	14	C8H15N2O-
162.0558	104	C9H8NO2-
165.0665	17	C8H9N2O2-
165.1029	213	C9H13N2O-
167.046	12	C7H7N2O3-
167.0823	47	C8H11N2O2-
170.0932	44	C7H12N3O2-
171.1156	18	C8H15N2O2-
180.0782	10	C8H10N3O2-
180.114	100	C9H14N3O-
181.0618	24	C8H9N2O3-
181.0974	14	C7H11N5O-
182.129	210	C7H14N6-
183.1133	51	C9H15N2O2-
195.1125	10	C8H13N5O-
198.1242	51	C9H16N3O2-
200.1395	191	C7H16N6O-
205.0613	9	C10H9N2O3-
208.1092	34	C10H14N3O2-
211.0717	26	C7H9N5O3-
212.1395	26	C8H16N6O-
222.124	27	C9H14N6O-
222.1599	15	C10H18N6-
223.108	10	C9H13N5O2-
226.1186	38	C8H14N6O2-
237.1635	15	C3H27NO10-
240.1347	8	C11H18N3O3-
240.1704	16	C10H20N6O-
265.1656	473	C11H19N7O-
268.1336	12	C2H24N2O12-
273.0873	11	C12H11N5O3-
281.1644	32	C16H19N5-
283.1761	126	C11H21N7O2-
293.1607	29	C13H25O7-
311.1721	14	C14H23N4O4-
312.1971	11	C20H26NO2-
313.1839	26	C9H25N6O6-
402.2053	12	C9H32N5O12-
432.2565	39	C16H38N3O10-
