Mass spectrum: Venlafaxine; LC-ESI-ITFT; MS2; CE: 75%; R=15000; [M+H]+
Name: Venlafaxine
Name: 1-[2-(dimethylamino)-1-(4-methoxyphenyl)ethyl]-1-cyclohexanol
Formula: C17H27NO2
Exact mass: 277.2042
SMILES: CN(C)CC(C1=CC=C(C=C1)OC)C2(CCCCC2)O
InChI: InChI=1S/C17H27NO2/c1-18(2)13-16(17(19)11-5-4-6-12-17)14-7-9-15(20-3)10-8-14/h7-10,16,19H,4-6,11-13H2,1-3H3
Instrument: LTQ Orbitrap XL Thermo Scientific
Instrument type: LC-ESI-ITFT
Ms type: MS2
Ion mode: POSITIVE
Ionization: ESI
Fragmentation mode: HCD
Collision energy: 75 % (nominal)
Resolution: 15000
Column name: XBridge C18 3.5um, 2.1x50mm, Waters
Retention time: 6.2 min
Base peak: 278.2126
Precursor m/z: 278.2115
Precursor type: [M+H]+
m/z	relative intensity	assigned
58.0652	999	C3H8N+
67.0545	5	C5H7+
69.0699	7	C5H9+
77.0387	11	C6H5+
79.0543	38	C6H7+
81.0699	40	C6H9+
91.0543	102	C7H7+
93.07	15	C7H9+
105.0699	8	C8H9+
106.0416	6	C7H6O+
107.0493	9	C7H7O+
107.0856	12	C8H11+
115.0543	6	C9H7+
117.0701	10	C9H9+
119.0602	7	C7H7N2+
119.0857	5	C9H11+
121.0649	636	C8H9O+
132.057	26	C9H8O+
135.0805	32	C9H11O+
141.0696	9	C11H9+
144.0573	15	C10H8O+
145.0648	6	C10H9O+
147.0806	203	C10H11O+
155.0608	5	C10H7N2+
158.0727	25	C11H10O+
159.0806	35	C11H11O+
161.0963	7	C11H13O+
162.0915	15	C10H12NO+
163.099	10	C10H13NO+
173.0963	51	C12H13O+
177.1147	9	C11H15NO+
