Mass spectrum: Triclabendazole; LC-ESI-QFT; MS2; CE: 90; R=35000; [M-H]-
Name: Triclabendazole
Name: Triclabendazol
Name: 6-chloro-5-(2,3-dichlorophenoxy)-2-methylsulfanyl-1H-benzimidazole
Formula: C14H9Cl3N2OS
Exact mass: 357.95012
SMILES: CSc1[nH]c2cc(c(cc2n1)Oc3cccc(c3Cl)Cl)Cl
InChI: InChI=1S/C14H9Cl3N2OS/c1-21-14-18-9-5-8(16)12(6-10(9)19-14)20-11-4-2-3-7(15)13(11)17/h2-6H,1H3,(H,18,19)
Instrument: Q Exactive Plus Orbitrap Thermo Scientific
Instrument type: LC-ESI-QFT
Ms type: MS2
Ion mode: NEGATIVE
Ionization: ESI
Fragmentation mode: HCD
Collision energy: 90 (nominal)
Resolution: 35000
Column name: XBridge C18 3.5um, 2.1x50mm, Waters
Retention time: 14.2 min
Base peak: 358.9395
Precursor m/z: 356.9428
Precursor type: [M-H]-
m/z	relative intensity	assigned
50.0036	3	C3N-
57.9757	368	CNS-
65.9986	82	C3NO-
74.0037	1	C5N-
85.9803	8	C3HClN-
89.0146	2	C5HN2-
102.0224	3	C6H2N2-
113.0145	4	C7HN2-
117.0097	1	C6HN2O-
124.9801	2	C6H2ClO-
130.0173	12	C7H2N2O-
136.9912	2	C6H2ClN2-
152.9862	51	C6H2ClN2O-
160.9568	14	C6H3Cl2O-
160.9816	2	C7HN2OS-
165.994	22	C7H3ClN2O-
179.0019	12	C8H4ClN2O-
196.9583	999	C7H2ClN2OS-
211.982	1	C8H5ClN2OS-
