Mass spectrum: Chlortetracycline; LC-ESI-QFT; MS2; CE: 150; R=35000; [M-H]-
Name: Chlortetracycline
Name: 2-carbamoyl-7-chloro-4-(dimethylazaniumyl)-6,10,11,12a-tetrahydroxy-6-methyl-3,12-dioxo-4,4a,5,5a-tetrahydrotetracen-1-olate
Formula: C22H23ClN2O8
Exact mass: 478.11429
SMILES: CC1(C2CC3C(C(=O)C(=C(C3(C(=O)C2=C(C4=C(C=CC(=C41)Cl)O)O)O)O)C(=O)N)N(C)C)O
InChI: InChI=1S/C22H23ClN2O8/c1-21(32)7-6-8-15(25(2)3)17(28)13(20(24)31)19(30)22(8,33)18(29)11(7)16(27)12-10(26)5-4-9(23)14(12)21/h4-5,7-8,15,26-27,30,32-33H,6H2,1-3H3,(H2,24,31)
Instrument: Q Exactive Plus Orbitrap Thermo Scientific
Instrument type: LC-ESI-QFT
Ms type: MS2
Ion mode: NEGATIVE
Ionization: ESI
Fragmentation mode: HCD
Collision energy: 150 (nominal)
Resolution: 35000
Column name: XBridge C18 3.5um, 2.1x50mm, Waters
Retention time: 5.4 min
Base peak: 477.1067
Precursor m/z: 477.107
Precursor type: [M-H]-
m/z	relative intensity	assigned
50.0035	159	C3N-
51.024	13	C4H3-
53.0031	26	C3HO-
55.0189	30	C3H3O-
59.0139	14	C2H3O2-
63.024	303	C5H3-
64.0192	16	C4H2N-
65.0033	523	C4HO-
65.0397	263	C5H5-
65.9985	999	C3NO-
67.0189	84	C4H3O-
68.0142	55	C3H2NO-
68.9982	289	C3HO2-
73.0085	66	C6H-
75.0242	27	C6H3-
79.0189	47	C5H3O-
79.0553	24	C6H7-
81.0346	77	C5H5O-
83.0503	18	C5H7O-
84.0091	49	C3H2NO2-
89.0032	134	C6HO-
89.0397	200	C7H5-
90.0349	30	C6H4N-
91.0189	140	C6H3O-
93.0345	283	C6H5O-
95.0137	29	C5H3O2-
95.0503	19	C6H7O-
96.0091	49	C4H2NO2-
101.0396	23	C8H5-
103.0189	27	C7H3O-
108.0217	81	C6H4O2-
109.0294	62	C6H5O2-
113.0396	77	C9H5-
117.0347	138	C8H5O-
121.0295	28	C7H5O2-
124.98	90	C6H2ClO-
126.9955	54	C6H4ClO-
134.0245	48	C7H4NO2-
137.0397	65	C11H5-
139.0554	24	C11H7-
141.0346	78	C10H5O-
167.0498	18	C12H7O-
169.0295	24	C11H5O2-
182.0368	13	C12H6O2-
183.0452	12	C12H7O2-
