Mass spectrum: Gabapentin Related Compound E; LC-ESI-QFT; MS2; CE: 90; R=35000; [M+H]+
Name: Gabapentin Related Compound E
Name: 1-(carboxymethyl)cyclohexanecarboxylic acid
Name: 1-(carboxymethyl)cyclohexane-1-carboxylic acid
Formula: C9H14O4
Exact mass: 186.08921
SMILES: C1CC[C@@](CC1)(C(=O)O)CC(=O)O
InChI: InChI=1S/C9H14O4/c10-7(11)6-9(8(12)13)4-2-1-3-5-9/h1-6H2,(H,10,11)(H,12,13)
Instrument: Q Exactive Plus Orbitrap Thermo Scientific
Instrument type: LC-ESI-QFT
Ms type: MS2
Ion mode: POSITIVE
Ionization: ESI
Fragmentation mode: HCD
Collision energy: 90 (nominal)
Resolution: 35000
Column name: XBridge C18 3.5um, 2.1x50mm, Waters
Retention time: 6.8 min
Base peak: 141.091
Precursor m/z: 187.0965
Precursor type: [M+H]+
m/z	relative intensity	assigned
53.0022	2	C3HO+
53.0386	16	C4H5+
55.0543	69	C4H7+
57.0335	4	C3H5O+
65.0386	12	C5H5+
66.0464	3	C5H6+
67.0542	287	C5H7+
77.0385	6	C6H5+
79.0542	301	C6H7+
80.062	3	C6H8+
81.0699	999	C6H9+
91.0542	7	C7H7+
93.0699	51	C7H9+
95.0855	403	C7H11+
99.0804	18	C6H11O+
103.0542	6	C8H7+
105.0448	9	C6H5N2+
105.0699	47	C8H9+
123.0804	5	C8H11O+
