Mass spectrum: Metolachlor morpholinone; LC-ESI-ITFT; MS2; CE: 75%; R=15000; [M+H]+
Name: Metolachlor morpholinone
Name: 4-(2-ethyl-6-methylphenyl)-5-methylmorpholin-3-one
Formula: C14H19NO2
Exact mass: 233.1416
SMILES: O=C2N(c1c(cccc1C)CC)C(C)COC2
InChI: InChI=1S/C14H19NO2/c1-4-12-7-5-6-10(2)14(12)15-11(3)8-17-9-13(15)16/h5-7,11H,4,8-9H2,1-3H3
Instrument: LTQ Orbitrap XL Thermo Scientific
Instrument type: LC-ESI-ITFT
Ms type: MS2
Ion mode: POSITIVE
Ionization: ESI
Fragmentation mode: HCD
Collision energy: 75 % (nominal)
Resolution: 15000
Column name: XBridge C18 3.5um, 2.1x50mm, Waters
Retention time: 8.2 min
Base peak: 234.1493
Precursor m/z: 234.1489
Precursor type: [M+H]+
m/z	relative intensity	assigned
59.0491	7	C3H7O+
70.0652	14	C4H8N+
77.0388	7	C6H5+
79.0542	11	C6H7+
91.0542	155	C7H7+
92.0621	5	C7H8+
93.0699	157	C7H9+
98.0597	4	C5H8NO+
99.0679	47	C5H9NO+
103.0542	45	C8H7+
104.0619	9	C8H8+
105.0575	6	C7H7N+
105.0699	101	C8H9+
106.0653	15	C7H8N+
107.0732	11	C7H9N+
108.0808	12	C7H10N+
109.0648	19	C7H9O+
115.0542	13	C9H7+
117.0573	18	C8H7N+
117.0699	57	C9H9+
118.0652	188	C8H8N+
119.0489	12	C8H7O+
119.073	128	C8H9N+
119.0855	148	C9H11+
120.0808	999	C8H10N+
121.0648	14	C8H9O+
129.0699	16	C10H9+
130.0652	31	C9H8N+
131.073	60	C9H9N+
131.0855	26	C10H11+
132.0808	133	C9H10N+
133.0522	125	C8H7NO+
133.0886	119	C9H11N+
133.1011	20	C10H13+
134.0964	113	C9H12N+
135.1042	45	C9H13N+
136.1125	4	C9H14N+
143.0729	17	C10H9N+
144.0807	24	C10H10N+
145.0886	36	C10H11N+
146.06	58	C9H8NO+
146.0964	400	C10H12N+
147.0679	282	C9H9NO+
147.1043	41	C10H13N+
148.0757	329	C9H10NO+
148.1121	386	C10H14N+
149.0954	4	C10H13O+
158.0963	60	C11H12N+
159.1045	11	C11H13N+
160.0755	18	C10H10NO+
160.1121	340	C11H14N+
161.0833	19	C10H11NO+
161.12	9	C11H15N+
162.0913	64	C10H12NO+
172.1126	6	C12H14N+
174.1276	24	C12H16N+
175.1355	21	C12H17N+
176.107	28	C11H14NO+
176.1434	53	C12H18N+
188.1433	17	C13H18N+
193.1094	4	C11H15NO2+
206.1175	103	C12H16NO2+
234.1489	147	C14H20NO2+
