Mass spectrum: Ametryn; LC-ESI-QFT; MS2; CE: 30; R=35000; [M+H]+
Name: Ametryn
Name: 4-N-ethyl-6-methylsulfanyl-2-N-propan-2-yl-1,3,5-triazine-2,4-diamine
Formula: C9H17N5S
Exact mass: 227.12047
SMILES: S(c1nc(nc(n1)NC(C)C)NCC)C
InChI: InChI=1S/C9H17N5S/c1-5-10-7-12-8(11-6(2)3)14-9(13-7)15-4/h6H,5H2,1-4H3,(H2,10,11,12,13,14)
Instrument: Q Exactive Orbitrap Thermo Scientific
Instrument type: LC-ESI-QFT
Ms type: MS2
Ion mode: POSITIVE
Ionization: ESI
Fragmentation mode: HCD
Collision energy: 30 (nominal)
Resolution: 35000
Column name: XBridge C18 3.5um, 2.1x50mm, Waters
Retention time: 7.2 min
Base peak: 228.128
Precursor m/z: 228.1277
Precursor type: [M+H]+
m/z	relative intensity	assigned
68.0242	3	C2H2N3+
71.0601	3	C3H7N2+
91.0325	5	C2H7N2S+
96.0556	12	C4H6N3+
116.0276	4	C3H6N3S+
138.0775	3	C5H8N5+
138.1026	11	C7H12N3+
144.059	4	C5H10N3S+
158.0496	4	C4H8N5S+
180.1247	2	C8H14N5+
186.0808	345	C6H12N5S+
213.1038	1	C8H15N5S+
228.1279	999	C9H18N5S+
