Mass spectrum: Paraoxon-ethyl; LC-ESI-QFT; MS2; CE: 60%; R=17500; [M+H]+
Name: Paraoxon-ethyl
Name: Paraoxon
Name: diethyl (4-nitrophenyl) phosphate
Formula: C10H14NO6P
Exact mass: 275.0559
SMILES: CCOP(=O)(OCC)OC1=CC=C(C=C1)[N+](=O)[O-]
InChI: InChI=1S/C10H14NO6P/c1-3-15-18(14,16-4-2)17-10-7-5-9(6-8-10)11(12)13/h5-8H,3-4H2,1-2H3
Instrument: Exploris 240 Orbitrap Thermo Scientific
Instrument type: LC-ESI-QFT
Ms type: MS2
Ion mode: POSITIVE
Ionization: ESI
Fragmentation mode: HCD
Collision energy: 60 % (nominal)
Resolution: 17500
Column name: XBridge C18 3.5um, 2.1x50mm, Waters
Retention time: 6.797 min
Base peak: 276.0629
Precursor m/z: 276.0632
Precursor type: [M+H]+
m/z	relative intensity	assigned
75.0231	7	C6H3+
92.0258	17	C6H4O+
94.0413	685	C6H6O+
98.9841	10	H4O4P+
110.0365	36	C2H9NO2P+
123.0314	37	C6H5NO2+
140.0341	43	C6H6NO3+
173	13	C6H6O4P+
174.0077	999	C6H7O4P+
201.006	49	C10H3NO4+
202.9979	361	C6H6NO5P+
220.0006	383	C6H7NO6P+
