Mass spectrum: N,N-Dimethyldipropylenetriamine; LC-ESI-QFT; MS2; CE: 75; R=35000; [M+H]+
Name: N,N-Dimethyldipropylenetriamine
Name: 3-(3-aminopropylamino)propyl-dimethyl-amine
Formula: C8H21N3
Exact mass: 159.17355
SMILES: N(CCCN)CCCN(C)C
InChI: InChI=1S/C8H21N3/c1-11(2)8-4-7-10-6-3-5-9/h10H,3-9H2,1-2H3
Instrument: Q Exactive Orbitrap Thermo Scientific
Instrument type: LC-ESI-QFT
Ms type: MS2
Ion mode: POSITIVE
Ionization: ESI
Fragmentation mode: HCD
Collision energy: 75 (nominal)
Resolution: 35000
Column name: XBridge C18 3.5um, 2.1x50mm, Waters
Retention time: 0.7 min
Base peak: 160.181
Precursor m/z: 160.1808
Precursor type: [M+H]+
m/z	relative intensity	assigned
58.0652	548	C3H8N+
70.0652	90	C4H8N+
71.073	3	C4H9N+
72.0808	2	C4H10N+
86.0965	999	C5H12N+
87.0917	1	C4H11N2+
98.0965	453	C6H12N+
115.123	71	C6H15N2+
160.1813	2	C8H22N3+
