Mass spectrum: Nafcillin; LC-ESI-QFT; MS2; CE: 15; R=35000; [M+H]+
Name: Nafcillin
Name: (2S,5R,6R)-6-[(2-ethoxynaphthalene-1-carbonyl)amino]-3,3-dimethyl-7-oxo-4-thia-1-azabicyclo[3.2.0]heptane-2-carboxylic acid
Formula: C21H22N2O5S
Exact mass: 414.12494
SMILES: CCOC1=C(C(=O)N[C@H]2[C@H]3SC(C)(C)[C@@H](N3C2=O)C(O)=O)C2=CC=CC=C2C=C1
InChI: InChI=1S/C21H22N2O5S/c1-4-28-13-10-9-11-7-5-6-8-12(11)14(13)17(24)22-15-18(25)23-16(20(26)27)21(2,3)29-19(15)23/h5-10,15-16,19H,4H2,1-3H3,(H,22,24)(H,26,27)/t15-,16+,19-/m1/s1
Instrument: Q Exactive Plus Orbitrap Thermo Scientific
Instrument type: LC-ESI-QFT
Ms type: MS2
Ion mode: POSITIVE
Ionization: ESI
Fragmentation mode: HCD
Collision energy: 15 (nominal)
Resolution: 35000
Column name: XBridge C18 3.5um, 2.1x50mm, Waters
Retention time: 9.4 min
Base peak: 415.1318
Precursor m/z: 415.1322
Precursor type: [M+H]+
m/z	relative intensity	assigned
171.043	5	C3H11N2O4S+
173.0963	1	C12H13O+
199.0753	999	C13H11O2+
256.0968	104	C15H14NO3+
371.1424	2	C20H23N2O3S+
415.1323	27	C21H23N2O5S+
