Mass spectrum: Fenchlorphos; LC-ESI-QFT; MS2; CE: 45%; R=17500; [M+H]+
Name: Fenchlorphos
Name: dimethoxy-sulfanylidene-(2,4,5-trichlorophenoxy)-lambda5-phosphane
Formula: C8H8Cl3O3PS
Exact mass: 319.8997
SMILES: COP(=S)(OC)OC1=CC(=C(C=C1Cl)Cl)Cl
InChI: InChI=1S/C8H8Cl3O3PS/c1-12-15(16,13-2)14-8-4-6(10)5(9)3-7(8)11/h3-4H,1-2H3
Instrument: Exploris 240 Orbitrap Thermo Scientific
Instrument type: LC-ESI-QFT
Ms type: MS2
Ion mode: POSITIVE
Ionization: ESI
Fragmentation mode: HCD
Collision energy: 45 % (nominal)
Resolution: 17500
Column name: XBridge C18 3.5um, 2.1x50mm, Waters
Retention time: 10.831 min
Base peak: 230.9873
Precursor m/z: 320.907
Precursor type: [M+H]+
m/z	relative intensity	assigned
96.9603	377	CH3ClOP+
142.9921	436	C2H8O3PS+
240.9216	154	C7H4Cl3O3+
257.8799	999	C6H2Cl3O3P+
272.9037	662	C7H5Cl3O3P+
