Mass spectrum: Nodularin; LC-ESI-QFT; MS2; CE: 75; R=35000; [M-H]-
Name: Nodularin
Name: (2Z,5R,6S,9S,12S,13S,16R)-9-[3-(diaminomethylideneamino)propyl]-2-ethylidene-12-[(1E,3E,5S,6S)-6-methoxy-3,5-dimethyl-7-phenylhepta-1,3-dienyl]-1,6,13-trimethyl-3,7,10,14,19-pentaoxo-1,4,8,11,15-pentazacyclononadecane-5,16-dicarboxylic acid
Formula: C41H60N8O10
Exact mass: 824.44324
SMILES: NC(=N)NCCC[C@@H]2NC(=O)[C@@H](C)[C@@H](NC(=O)C(=C\C)\N(C)C(=O)CC[C@@H](NC(=O)[C@@H](C)[C@H](/C=C/C(/C)=C/[C@H](C)[C@H](Cc1ccccc1)OC)NC2=O)C(=O)O)C(O)=O
InChI: InChI=1S/C41H60N8O10/c1-8-31-38(54)48-34(40(57)58)26(5)36(52)46-29(15-12-20-44-41(42)43)37(53)45-28(25(4)35(51)47-30(39(55)56)18-19-33(50)49(31)6)17-16-23(2)21-24(3)32(59-7)22-27-13-10-9-11-14-27/h8-11,13-14,16-17,21,24-26,28-30,32,34H,12,15,18-20,22H2,1-7H3,(H,45,53)(H,46,52)(H,47,51)(H,48,54)(H,55,56)(H,57,58)(H4,42,43,44)/b17-16+,23-21+,31-8-/t24-,25-,26-,28-,29-,30+,32-,34+/m0/s1
Instrument: Q Exactive Orbitrap Thermo Scientific
Instrument type: LC-ESI-QFT
Ms type: MS2
Ion mode: NEGATIVE
Ionization: ESI
Fragmentation mode: HCD
Collision energy: 75 (nominal)
Resolution: 35000
Column name: XBridge C18 3.5um, 2.1x50mm, Waters
Retention time: 9.7 min
Base peak: 823.4366
Precursor m/z: 823.436
Precursor type: [M-H]-
m/z	relative intensity	assigned
58.0298	116	C2H4NO-
58.0411	43	CH4N3-
59.0139	8	C2H3O2-
66.0349	198	C4H4N-
67.019	49	C4H3O-
67.0302	67	C3H3N2-
68.0143	8	C3H2NO-
68.0506	51	C4H6N-
70.0299	16	C3H4NO-
71.025	7	C2H3N2O-
71.0502	11	C4H7O-
72.0091	40	C2H2NO2-
72.0455	435	C3H6NO-
73.0296	67	C3H5O2-
74.0248	342	C2H4NO2-
80.0507	31	C5H6N-
81.022	14	C4H3NO-
81.0459	18	C4H5N2-
82.0298	385	C4H4NO-
83.0615	106	C4H7N2-
84.0455	580	C4H6NO-
85.0296	10	C4H5O2-
85.0659	46	C5H9O-
86.0612	31	C4H8NO-
91.0554	8	C7H7-
94.0297	36	C5H4NO-
94.0662	10	C6H8N-
95.025	86	C4H3N2O-
95.0376	36	C5H5NO-
96.0089	10	C4H2NO2-
96.0455	75	C5H6NO-
97.0658	12	C6H9O-
98.0248	11	C4H4NO2-
98.0612	33	C5H8NO-
99.0561	10	C4H7N2O-
101.072	18	C4H9N2O-
102.056	34	C4H8NO2-
106.0661	13	C7H8N-
107.0377	15	C6H5NO-
108.033	9	C5H4N2O-
108.0455	45	C6H6NO-
108.0819	11	C7H10N-
109.0169	36	C5H3NO2-
109.0407	42	C5H5N2O-
110.0248	999	C5H4NO2-
110.0485	81	C5H6N2O-
111.0325	9	C5H5NO2-
111.0564	45	C5H7N2O-
112.0404	268	C5H6NO2-
112.0768	70	C6H10NO-
112.088	13	C5H10N3-
113.072	311	C5H9N2O-
118.0663	10	C8H8N-
121.0408	64	C6H5N2O-
121.0533	34	C7H7NO-
122.0247	11	C6H4NO2-
122.0486	153	C6H6N2O-
122.0611	46	C7H8NO-
122.0975	44	C8H12N-
123.0326	159	C6H5NO2-
123.0563	31	C6H7N2O-
124.0277	9	C5H4N2O2-
124.0403	17	C6H6NO2-
124.0768	18	C7H10NO-
127.0514	74	C5H7N2O2-
128.0354	532	C5H6NO3-
130.0986	66	C5H12N3O-
134.0612	11	C8H8NO-
135.0563	54	C7H7N2O-
136.0402	17	C7H6NO2-
136.0767	31	C8H10NO-
137.0482	36	C7H7NO2-
137.0719	121	C7H9N2O-
138.056	136	C7H8NO2-
138.0672	10	C6H8N3O-
139.0514	33	C6H7N2O2-
139.0751	10	C6H9N3O-
139.0879	11	C7H11N2O-
140.0828	12	C6H10N3O-
141.1036	12	C7H13N2O-
147.0566	9	C8H7N2O-
149.048	9	C8H7NO2-
149.0717	11	C8H9N2O-
151.088	10	C8H11N2O-
152.0717	8	C8H10NO2-
153.1031	18	C8H13N2O-
163.0874	10	C9H11N2O-
164.0714	30	C9H10NO2-
168.114	50	C8H14N3O-
180.1142	15	C9H14N3O-
181.098	41	C9H13N2O2-
