Mass spectrum: Doxazosin; LC-ESI-QFT; MS2; CE: 30; R=35000; [M+H]+
Name: Doxazosin
Name: [4-(4-amino-6,7-dimethoxyquinazolin-2-yl)piperazin-1-yl]-(2,3-dihydro-1,4-benzodioxin-3-yl)methanone
Formula: C23H25N5O5
Exact mass: 451.18557
SMILES: COC1=C(C=C2C(=C1)C(=NC(=N2)N3CCN(CC3)C(=O)C4COC5=CC=CC=C5O4)N)OC
InChI: InChI=1S/C23H25N5O5/c1-30-18-11-14-15(12-19(18)31-2)25-23(26-21(14)24)28-9-7-27(8-10-28)22(29)20-13-32-16-5-3-4-6-17(16)33-20/h3-6,11-12,20H,7-10,13H2,1-2H3,(H2,24,25,26)
Instrument: Q Exactive Orbitrap Thermo Scientific
Instrument type: LC-ESI-QFT
Ms type: MS2
Ion mode: POSITIVE
Ionization: ESI
Fragmentation mode: HCD
Collision energy: 30 (nominal)
Resolution: 35000
Column name: XBridge C18 3.5um, 2.1x50mm, Waters
Retention time: 7.2 min
Base peak: 452.1933
Precursor m/z: 452.1928
Precursor type: [M+H]+
m/z	relative intensity	assigned
98.0601	2	C5H8NO+
135.0441	2	C8H7O2+
206.0815	1	C11H12NO3+
221.1033	3	C10H13N4O2+
233.1036	3	C11H13N4O2+
247.1192	28	C12H15N4O2+
288.1456	3	C14H18N5O2+
290.1614	34	C14H20N5O2+
301.1294	1	C15H17N4O3+
326.1615	2	C17H20N5O2+
344.172	230	C17H22N5O3+
434.1821	1	C23H24N5O4+
436.1606	1	C22H22N5O5+
437.1687	3	C22H23N5O5+
452.193	999	C23H26N5O5+
