Mass spectrum: Butylisopropylamine; LC-ESI-QFT; MS2; CE: 150; R=35000; [M+H]+
Name: Butylisopropylamine
Name: N-propan-2-ylbutan-1-amine
Name: N-Isopropyl-1-butanamine
Formula: C7H17N
Exact mass: 115.13610
SMILES: CCCCNC(C)C
InChI: InChI=1S/C7H17N/c1-4-5-6-8-7(2)3/h7-8H,4-6H2,1-3H3
Instrument: Q Exactive Plus Orbitrap Thermo Scientific
Instrument type: LC-ESI-QFT
Ms type: MS2
Ion mode: POSITIVE
Ionization: ESI
Fragmentation mode: HCD
Collision energy: 150 (nominal)
Resolution: 35000
Column name: XBridge C18 3.5um, 2.1x50mm, Waters
Retention time: 1.4 min
Base peak: 116.1432
Precursor m/z: 116.1434
Precursor type: [M+H]+
m/z	relative intensity	assigned
53.0022	999	C3HO+
53.9974	208	C2NO+
54.01	83	C3H2O+
57.0699	642	C4H9+
67.9893	384	
68.929	110	
