Mass spectrum: Venlafaxine N-Oxide; LC-ESI-QFT; MS2; CE: 90; R=35000; [M+H]+
Name: Venlafaxine N-Oxide
Name: 2-(1-hydroxycyclohexyl)-2-(4-methoxyphenyl)-N,N-dimethylethanamine oxide
Formula: C17H27NO3
Exact mass: 293.19909
SMILES: OC1(C(C2=CC=C(OC)C=C2)C[N+](C)(C)[O-])CCCCC1
InChI: InChI=1S/C17H27NO3/c1-18(2,20)13-16(17(19)11-5-4-6-12-17)14-7-9-15(21-3)10-8-14/h7-10,16,19H,4-6,11-13H2,1-3H3
Instrument: Q Exactive Plus Orbitrap Thermo Scientific
Instrument type: LC-ESI-QFT
Ms type: MS2
Ion mode: POSITIVE
Ionization: ESI
Fragmentation mode: HCD
Collision energy: 90 (nominal)
Resolution: 35000
Column name: XBridge C18 3.5um, 2.1x50mm, Waters
Retention time: 6.6 min
Base peak: 294.206
Precursor m/z: 294.2064
Precursor type: [M+H]+
m/z	relative intensity	assigned
50.015	2	C4H2+
51.0227	1	C4H3+
52.0307	1	C4H4+
53.0386	19	C4H5+
55.0178	5	C3H3O+
55.0542	7	C4H7+
57.0335	1	C3H5O+
58.0651	5	C3H8N+
62.06	4	C2H8NO+
65.0385	12	C5H5+
67.0542	2	C5H7+
69.0699	1	C5H9+
77.0385	41	C6H5+
78.0464	68	C6H6+
79.0178	2	C5H3O+
79.0542	30	C6H7+
81.0335	3	C5H5O+
81.0699	58	C6H9+
91.0542	155	C7H7+
93.0699	12	C7H9+
94.0413	2	C6H6O+
95.0491	72	C6H7O+
99.0804	7	C6H11O+
103.0542	12	C8H7+
104.0619	1	C8H8+
105.0447	37	C6H5N2+
105.0698	14	C8H9+
106.0413	26	C7H6O+
107.0491	4	C7H7O+
109.0647	2	C7H9O+
115.0542	3	C9H7+
117.0701	1	C9H9+
119.049	1	C8H7O+
119.0605	1	C7H7N2+
120.057	3	C8H8O+
120.0807	2	C8H10N+
121.0647	999	C8H9O+
128.0619	1	C10H8+
131.049	1	C9H7O+
132.0568	2	C9H8O+
132.0808	1	C9H10N+
133.0648	1	C9H9O+
134.0964	1	C9H12N+
135.0804	6	C9H11O+
144.0569	1	C10H8O+
145.0647	1	C10H9O+
146.0965	3	C10H12N+
147.0804	3	C10H11O+
147.104	1	C10H13N+
148.0756	11	C9H10NO+
158.0727	2	C11H10O+
159.0806	1	C11H11O+
162.0915	1	C10H12NO+
163.0988	2	C10H13NO+
