Mass spectrum: Valsartan; LC-ESI-ITFT; MS2; CE: 15%; R=7500; [M+H]+
Name: Valsartan
Name: (2S)-3-methyl-2-[1-oxopentyl-[[4-[2-(2H-tetrazol-5-yl)phenyl]phenyl]methyl]amino]butanoic acid
Formula: C24H29N5O3
Exact mass: 435.2270
SMILES: CCCCC(=O)N(CC1=CC=C(C=C1)C2=C(C=CC=C2)C3=NN=NN3)[C@@H](C(C)C)C(O)=O
InChI: InChI=1S/C24H29N5O3/c1-4-5-10-21(30)29(22(16(2)3)24(31)32)15-17-11-13-18(14-12-17)19-8-6-7-9-20(19)23-25-27-28-26-23/h6-9,11-14,16,22H,4-5,10,15H2,1-3H3,(H,31,32)(H,25,26,27,28)/t22-/m0/s1
Instrument: LTQ Orbitrap XL Thermo Scientific
Instrument type: LC-ESI-ITFT
Ms type: MS2
Ion mode: POSITIVE
Ionization: ESI
Fragmentation mode: HCD
Collision energy: 15 % (nominal)
Resolution: 7500
Column name: XBridge C18 3.5um, 2.1x50mm, Waters
Retention time: 11.2 min
Base peak: 436.2337
Precursor m/z: 436.2343
Precursor type: [M+H]+
m/z	relative intensity	assigned
178.0776	4	C14H10+
180.0807	26	C13H10N+
190.0648	33	C14H8N+
206.0846	10	C14H10N2+
207.0918	224	C14H11N2+
235.0977	999	C14H11N4+
278.166	5	C18H20N3+
291.1493	963	C19H19N2O+
306.1715	686	C18H20N5+
352.1769	380	C19H22N5O2+
362.2228	534	C23H28N3O+
390.2283	5	C23H28N5O+
408.2282	545	C24H30N3O3+
418.2235	670	C24H28N5O2+
436.2341	283	C24H30N5O3+
