Mass spectrum: Florfenicol; LC-ESI-QFT; MS2; CE: 30; R=35000; [M+H]+
Name: Florfenicol
Name: 2,2-dichloro-N-{3-fluoro-1-hydroxy-1-[4-(methylsulfonyl)phenyl]propan-2-yl}acetamide
Name: 2,2-dichloro-N-[3-fluoro-1-hydroxy-1-(4-methylsulfonylphenyl)propan-2-yl]acetamide
Formula: C12H14Cl2FNO4S
Exact mass: 357.00046
SMILES: CS(=O)(=O)C1=CC=C(C=C1)C(C(CF)NC(=O)C(Cl)Cl)O
InChI: InChI=1S/C12H14Cl2FNO4S/c1-21(19,20)8-4-2-7(3-5-8)10(17)9(6-15)16-12(18)11(13)14/h2-5,9-11,17H,6H2,1H3,(H,16,18)
Instrument: Q Exactive Plus Orbitrap Thermo Scientific
Instrument type: LC-ESI-QFT
Ms type: MS2
Ion mode: POSITIVE
Ionization: ESI
Fragmentation mode: HCD
Collision energy: 30 (nominal)
Resolution: 35000
Column name: XBridge C18 3.5um, 2.1x50mm, Waters
Retention time: 4.6 min
Base peak: 390.0331
Precursor m/z: 358.0077
Precursor type: [M+H]+
m/z	relative intensity	assigned
82.945	2	CHCl2+
103.0542	3	C8H7+
115.054	1	C9H7+
129.0571	1	C9H7N+
129.0699	1	C10H9+
130.0645	6	C9H8N+
131.0727	2	C9H9N+
132.057	42	C9H8O+
134.0528	1	C9H7F+
170.06	27	C11H8NO+
177.0342	2	C10H8ClN+
205.0291	3	C11H8ClNO+
206.0368	147	C11H9ClNO+
210.0583	36	C10H12NO2S+
213.0382	3	C10H10FO2S+
230.0646	20	C10H13FNO2S+
241.0054	999	C11H9Cl2NO+
284.0143	8	C12H11ClNO3S+
319.9909	30	C12H12Cl2NO3S+
339.9971	17	C12H13Cl2FNO3S+
