Mass spectrum: Atazanavir; LC-ESI-QFT; MS2; CE: 90; R=35000; [M+H]+
Name: Atazanavir
Name: N-[(1S)-1-[[(1S,2S)-1-benzyl-3-[[[(2S)-2-(carbomethoxyamino)-3,3-dimethyl-butanoyl]amino]-[4-(2-pyridyl)benzyl]amino]-2-hydroxy-propyl]carbamoyl]-2,2-dimethyl-propyl]carbamic acid methyl ester
Formula: C38H52N6O7
Exact mass: 704.38975
SMILES: CC(C)(C)C(C(=O)NC(CC1=CC=CC=C1)C(CN(CC2=CC=C(C=C2)C3=CC=CC=N3)NC(=O)C(C(C)(C)C)NC(=O)OC)O)NC(=O)OC
InChI: InChI=1S/C38H52N6O7/c1-37(2,3)31(41-35(48)50-7)33(46)40-29(22-25-14-10-9-11-15-25)30(45)24-44(43-34(47)32(38(4,5)6)42-36(49)51-8)23-26-17-19-27(20-18-26)28-16-12-13-21-39-28/h9-21,29-32,45H,22-24H2,1-8H3,(H,40,46)(H,41,48)(H,42,49)(H,43,47)/t29-,30-,31+,32+/m0/s1
Instrument: Q Exactive Orbitrap Thermo Scientific
Instrument type: LC-ESI-QFT
Ms type: MS2
Ion mode: POSITIVE
Ionization: ESI
Fragmentation mode: HCD
Collision energy: 90 (nominal)
Resolution: 35000
Column name: XBridge C18 3.5um, 2.1x50mm, Waters
Retention time: 11.6 min
Base peak: 705.3972
Precursor m/z: 705.397
Precursor type: [M+H]+
m/z	relative intensity	assigned
101.0961	5	C6H13O+
102.0463	1	C8H6+
103.0542	6	C8H7+
112.0757	10	C6H10NO+
113.0385	3	C9H5+
115.0542	48	C9H7+
116.0494	2	C8H6N+
117.0572	28	C8H7N+
117.0699	3	C9H9+
120.0807	18	C8H10N+
128.062	6	C10H8+
129.0699	8	C10H9+
130.0651	1	C9H8N+
139.0542	54	C11H7+
140.0495	13	C10H6N+
140.062	25	C11H8+
141.0576	8	C10H7N+
141.0698	56	C11H9+
142.0654	6	C10H8N+
144.102	8	C7H14NO2+
145.0649	1	C10H9O+
153.0573	16	C11H7N+
166.0654	105	C12H8N+
167.073	999	C12H9N+
168.0806	453	C12H10N+
169.0645	2	C12H9O+
169.0884	6	C12H11N+
170.0596	1	C11H8NO+
170.0961	3	C12H12N+
184.0755	4	C12H10NO+
