Mass spectrum: Aspartame; LC-ESI-ITFT; MS2; CE: 30%; R=15000; [M+H]+
Name: Aspartame
Name: 3-amino-4-[(1-benzyl-2-keto-2-methoxy-ethyl)amino]-4-keto-butyric acid
Formula: C14H18N2O5
Exact mass: 294.1216
SMILES: COC(=O)C(CC1=CC=CC=C1)NC(=O)C(CC(=O)O)N
InChI: InChI=1S/C14H18N2O5/c1-21-14(20)11(7-9-5-3-2-4-6-9)16-13(19)10(15)8-12(17)18/h2-6,10-11H,7-8,15H2,1H3,(H,16,19)(H,17,18)/t10-,11-/m0/s1
Instrument: LTQ Orbitrap XL Thermo Scientific
Instrument type: LC-ESI-ITFT
Ms type: MS2
Ion mode: POSITIVE
Ionization: ESI
Fragmentation mode: HCD
Collision energy: 30 % (nominal)
Resolution: 15000
Column name: XBridge C18 3.5um, 2.1x50mm, Waters
Retention time: 4.8 min
Base peak: 295.1297
Precursor m/z: 295.1288
Precursor type: [M+H]+
m/z	relative intensity	assigned
70.0288	40	C3H4NO+
88.0393	83	C3H6NO2+
91.0542	36	C7H7+
103.054	12	C8H7+
120.0808	615	C8H10N+
121.0648	40	C8H9O+
130.065	25	C9H8N+
131.0491	26	C9H7O+
147.0918	4	C9H11N2+
157.0647	10	C11H9O+
163.0753	47	C10H11O2+
172.0757	31	C11H10NO+
175.0866	274	C10H11N2O+
180.102	999	C10H14NO2+
182.0601	31	C12H8NO+
189.1022	32	C11H13N2O+
190.0862	27	C11H12NO2+
200.0705	261	C12H10NO2+
203.0816	28	C11H11N2O2+
217.097	81	C12H13N2O2+
218.0812	30	C12H12NO3+
228.0655	38	C13H10NO3+
235.1078	662	C12H15N2O3+
242.0804	7	C14H12NO3+
245.0918	35	C13H13N2O3+
260.0916	135	C14H14NO4+
263.1032	6	C13H15N2O4+
277.1183	18	C14H17N2O4+
295.1293	39	C14H19N2O5+
