Mass spectrum: 2-Methyl-5-Nitrobenzenesulfonic Acid; LC-ESI-QFT; MS2; CE: 75%; R=15000; [M-H]-
Name: 2-Methyl-5-Nitrobenzenesulfonic Acid
Formula: C7H7NO5S
Exact mass: 217.0045
SMILES: CC1=C(C=C(C=C1)[N+](=O)[O-])S(=O)(=O)O
InChI: InChI=1S/C7H7NO5S/c1-5-2-3-6(8(9)10)4-7(5)14(11,12)13/h2-4H,1H3,(H,11,12,13)
Instrument: Orbitrap Exploris 240 Thermo Scientific
Instrument type: LC-ESI-QFT
Ms type: MS2
Ion mode: NEGATIVE
Ionization: ESI
Fragmentation mode: HCD
Collision energy: 75 % (nominal)
Resolution: 15000
Column name: Atlantis C18 3um, 3.0x150mm, Waters
Retention time: 15.021 min
Base peak: 215.9973
Precursor m/z: 215.9972
Precursor type: [M-H]-
Precursor intensity: 152090608
m/z	relative intensity	assigned
63.9625	8	O2S-
79.9574	999	O3S-
80.9653	299	HO3S-
121.0298	18	C7H5O2-
122.0375	6	C7H6O2-
152.0354	78	C7H6NO3-
158.0043	13	C6H6O3S-
170.0045	557	C7H6O3S-
184.992	27	C7H5O4S-
185.9992	42	C7H6O4S-
215.9974	88	C7H6NO5S-
