Mass spectrum: Dehydroepiandrosterone (DHEA); LC-ESI-QFT; MS2; CE: 90; R=35000; [M+H]+
Name: Dehydroepiandrosterone (DHEA)
Name: trans-Dehydroandosterone
Name: (3S,8R,9S,10R,13S,14S)-10,13-dimethyl-3-oxidanyl-1,2,3,4,7,8,9,11,12,14,15,16-dodecahydrocyclopenta[a]phenanthren-17-one
Formula: C19H28O2
Exact mass: 288.20893
SMILES: O=C3[C@]2(CC[C@@H]1[C@@]4(C(=C/C[C@H]1[C@@H]2CC3)\C[C@@H](O)CC4)C)C
InChI: InChI=1S/C19H28O2/c1-18-9-7-13(20)11-12(18)3-4-14-15-5-6-17(21)19(15,2)10-8-16(14)18/h3,13-16,20H,4-11H2,1-2H3/t13-,14-,15-,16-,18-,19-/m0/s1
Instrument: Q Exactive Orbitrap Thermo Scientific
Instrument type: LC-ESI-QFT
Ms type: MS2
Ion mode: POSITIVE
Ionization: ESI
Fragmentation mode: HCD
Collision energy: 90 (nominal)
Resolution: 35000
Column name: XBridge C18 3.5um, 2.1x50mm, Waters
Retention time: 11.2 min
Base peak: 271.2057
Precursor m/z: 289.2162
Precursor type: [M+H]+
m/z	relative intensity	assigned
51.0227	4	C4H3+
53.0386	1	C4H5+
57.0699	2	C4H9+
65.0385	50	C5H5+
67.0542	347	C5H7+
69.0698	64	C5H9+
71.0491	28	C4H7O+
77.0385	14	C6H5+
78.0462	2	C6H6+
79.0542	570	C6H7+
81.0699	580	C6H9+
83.0491	19	C5H7O+
83.0855	14	C6H11+
91.0542	999	C7H7+
93.0698	298	C7H9+
95.0491	158	C6H7O+
95.0855	120	C7H11+
97.0648	91	C6H9O+
103.0542	50	C8H7+
105.0699	770	C8H9+
107.0855	109	C8H11+
109.0648	23	C7H9O+
109.1011	11	C8H13+
115.0542	138	C9H7+
116.062	70	C9H8+
117.0698	373	C9H9+
118.0777	14	C9H10+
119.0855	236	C9H11+
121.0651	2	C8H9O+
121.1011	36	C9H13+
123.0804	9	C8H11O+
128.062	241	C10H8+
129.0698	454	C10H9+
130.0777	140	C10H10+
131.0855	417	C10H11+
132.0934	9	C10H12+
133.1011	148	C10H13+
135.1167	23	C10H15+
141.0698	232	C11H9+
142.0778	391	C11H10+
143.0855	369	C11H11+
144.0933	79	C11H12+
145.1011	304	C11H13+
146.0728	4	C10H10O+
147.1168	70	C11H15+
149.0961	3	C10H13O+
152.0624	5	C12H8+
153.0698	97	C12H9+
154.0776	65	C12H10+
155.0855	266	C12H11+
156.0934	174	C12H12+
157.1012	316	C12H13+
158.1091	24	C12H14+
159.1168	110	C12H15+
161.096	3	C11H13O+
165.07	16	C13H9+
167.0855	166	C13H11+
168.0933	100	C13H12+
169.1011	220	C13H13+
170.1089	38	C13H14+
171.1167	174	C13H15+
172.1245	21	C13H16+
173.1324	39	C13H17+
181.1011	90	C14H13+
182.109	112	C14H14+
183.1168	177	C14H15+
184.1245	20	C14H16+
185.1325	54	C14H17+
195.117	32	C15H15+
196.1245	28	C15H16+
197.1324	76	C15H17+
198.1402	54	C15H18+
199.1481	4	C15H19+
209.1326	27	C16H17+
211.1481	15	C16H19+
213.1638	25	C16H21+
223.1482	33	C17H19+
225.1637	4	C17H21+
237.1636	2	C18H21+
