Mass spectrum: Sarafloxacin; LC-ESI-QFT; MS2; CE: 150; R=35000; [M+H]+
Name: Sarafloxacin
Name: 6-fluoro-1-(4-fluorophenyl)-4-oxo-7-piperazin-1-ylquinoline-3-carboxylic acid
Formula: C20H17F2N3O3
Exact mass: 385.12380
SMILES: C1CN(CCN1)C2=C(C=C3C(=C2)N(C=C(C3=O)C(=O)O)C4=CC=C(C=C4)F)F
InChI: InChI=1S/C20H17F2N3O3/c21-12-1-3-13(4-2-12)25-11-15(20(27)28)19(26)14-9-16(22)18(10-17(14)25)24-7-5-23-6-8-24/h1-4,9-11,23H,5-8H2,(H,27,28)
Instrument: Q Exactive Plus Orbitrap Thermo Scientific
Instrument type: LC-ESI-QFT
Ms type: MS2
Ion mode: POSITIVE
Ionization: ESI
Fragmentation mode: HCD
Collision energy: 150 (nominal)
Resolution: 35000
Column name: XBridge C18 3.5um, 2.1x50mm, Waters
Retention time: 4.7 min
Base peak: 386.1304
Precursor m/z: 386.1311
Precursor type: [M+H]+
m/z	relative intensity	assigned
50.0151	56	C4H2+
51.023	57	C4H3+
52.0182	11	C3H2N+
53.0022	66	C3HO+
53.0386	44	C4H5+
55.0178	5	C3H3O+
56.0495	56	C3H6N+
57.0135	311	C3H2F+
58.0651	10	C3H8N+
59.0291	21	C3H4F+
61.0073	19	C5H+
62.0151	85	C5H2+
63.0229	286	C5H3+
64.0181	10	C4H2N+
64.0308	4	C5H4+
65.0022	4	C4HO+
65.026	2	C4H3N+
65.0386	39	C5H5+
66.0465	5	C5H6+
68.0057	10	C4HF+
68.0495	10	C4H6N+
69.0135	10	C4H2F+
69.0446	3	C3H5N2+
70.0213	27	C4H3F+
70.0652	3	C4H8N+
71.0292	13	C4H4F+
74.0151	208	C6H2+
75.0229	827	C6H3+
76.0181	41	C5H2N+
76.0307	36	C6H4+
77.0022	20	C5HO+
77.0385	73	C6H5+
78.0338	27	C5H4N+
78.0465	19	C6H6+
79.0178	3	C5H3O+
79.0415	4	C5H5N+
81.0135	169	C5H2F+
82.0088	14	C4HFN+
82.0213	29	C5H3F+
83.0291	344	C5H4F+
84.037	26	C5H5F+
86.015	27	
87.0105	11	C6HN+
87.023	83	C7H3+
88.0182	45	C6H2N+
88.0307	31	C7H4+
89.0386	361	C7H5+
90.0339	24	C6H4N+
90.0465	26	C7H6+
91.0416	4	C6H5N+
91.0542	33	C7H7+
92.0057	2	C6HF+
92.0256	4	C6H4O+
92.0495	3	C6H6N+
93.0136	17	C6H2F+
94.0214	54	C6H3F+
95.0292	58	C6H4F+
95.0492	117	C6H7O+
96.0243	4	C5H3FN+
96.037	50	C6H5F+
96.0444	41	C5H6NO+
97.0324	2	C5H4FN+
97.0448	4	C6H6F+
98.0152	36	C8H2+
98.04	3	C5H5FN+
99.0229	118	C8H3+
100.0182	59	C7H2N+
101.0197	5	C5H3F2+
101.0386	61	C8H5+
102.0339	44	C7H4N+
102.0465	87	C8H6+
103.0416	13	C7H5N+
103.0543	18	C8H7+
104.0495	25	C7H6N+
105.0135	60	C7H2F+
105.0447	87	C6H5N2+
106.0089	9	C6HFN+
106.0213	53	C7H3F+
107.0292	999	C7H4F+
108.0244	51	C6H3FN+
108.037	102	C7H5F+
109.0448	100	C7H6F+
110.0153	4	C9H2+
110.04	4	C6H5FN+
111.0103	2	C8HN+
111.0229	10	C9H3+
112.0181	4	C8H2N+
112.0319	9	C6H5FO+
113.0261	9	C8H3N+
113.0395	72	CH5F2N3O+
114.0339	64	C8H4N+
115.0416	42	C8H5N+
115.0543	49	C9H7+
116.0495	35	C8H6N+
117.0573	14	C8H7N+
118.0213	2	C8H3F+
118.0288	9	C7H4NO+
119.0294	11	C8H4F+
119.0492	43	C8H7O+
120.0371	102	C8H5F+
120.0444	14	C7H6NO+
121.0323	13	C7H4FN+
121.0448	24	C8H6F+
122.0401	88	C7H5FN+
123.023	41	C10H3+
123.0353	136	C6H4FN2+
124.0182	17	C9H2N+
125.0198	10	C7H3F2+
125.0387	23	C10H5+
126.034	69	C9H4N+
127.0417	30	C9H5N+
128.0495	169	C9H6N+
129.0447	166	C8H5N2+
129.0573	21	C9H7N+
130.0086	2	C8HFN+
130.0401	48	C7H4N3+
130.0653	13	C9H8N+
131.0292	105	C9H4F+
132.0245	79	C8H3FN+
132.037	20	C9H5F+
133.0323	39	C8H4FN+
133.0448	123	C9H6F+
134.0401	113	C8H5FN+
134.0602	12	C8H8NO+
135.0479	52	C8H6FN+
136.031	2	C3H4F2N3O+
136.0559	5	C8H7FN+
137.0388	24	C11H5+
138.0112	4	C7H3FO2+
138.0338	17	C10H4N+
138.0467	2	C11H6+
140.0269	5	C7H5FO2+
140.037	9	C9H4N2+
140.0496	27	C10H6N+
141.0447	3	C9H5N2+
141.0574	15	C10H7N+
142.0219	2	C10H3F+
142.0527	4	C9H6N2+
142.065	8	C10H8N+
143.0293	11	C10H4F+
143.0604	3	C9H7N2+
144.037	42	C10H5F+
144.0445	15	C9H6NO+
144.0558	10	C8H6N3+
145.0323	14	C9H4FN+
146.0401	111	C9H5FN+
146.0527	12	C10H7F+
146.0602	15	C9H8NO+
147.0235	24	C4H3F2N3O+
147.0353	33	C8H4FN2+
147.0479	19	C9H6FN+
148.0183	4	C11H2N+
148.0309	4	C12H4+
148.0557	82	C9H7FN+
149.0197	12	C9H3F2+
149.0387	54	
149.0511	9	C8H6FN2+
150.0344	23	C8H5FNO+
150.0465	35	C12H6+
151.0355	66	C9H5F2+
151.042	9	C11H5N+
151.0547	3	C12H7+
152.0306	4	C8H4F2N+
152.0505	17	C8H7FNO+
152.0623	3	C12H8+
153.0447	36	C10H5N2+
153.0577	2	C11H7N+
154.0401	57	C9H4N3+
155.0293	78	C11H4F+
155.0604	35	C10H7N2+
156.0245	9	C10H3FN+
156.0371	36	C11H5F+
156.0437	4	C10H6NO+
156.0682	5	C10H8N2+
157.045	128	C11H6F+
157.052	10	C10H7NO+
158.0402	174	C10H5FN+
159.048	11	C10H6FN+
160.0433	11	C9H5FN2+
161.0387	105	C13H5+
162.0276	9	C10H4F2+
162.0342	14	C9H5FNO+
162.0464	33	C13H6+
162.0717	2	C10H9FN+
163.042	12	C12H5N+
163.0543	74	C13H7+
164.0433	5	C10H6F2+
164.0497	51	C12H6N+
165.045	9	C11H5N2+
166.0219	2	C12H3F+
166.0526	10	C11H6N2+
167.0291	11	C12H4F+
167.0492	11	C12H7O+
168.0371	134	C12H5F+
168.0442	10	C11H6NO+
169.0324	15	C11H4FN+
169.0448	26	C12H6F+
169.065	21	C12H9O+
170.0403	15	C11H5FN+
170.0528	81	C12H7F+
170.0597	5	C11H8NO+
171.048	14	C11H6FN+
171.0548	2	C10H7N2O+
172.0559	14	C11H7FN+
173.0194	8	C11H3F2+
173.0511	83	C10H6FN2+
174.0275	10	C11H4F2+
174.0343	19	C10H5FNO+
174.0465	34	C14H6+
174.0589	12	C10H7FN2+
175.0354	132	C11H5F2+
175.042	24	C13H5N+
175.0539	17	C9H6FN3+
176.0307	62	C10H4F2N+
176.0431	5	C11H6F2+
176.0501	12	C10H7FNO+
177.0451	8	C9H6FN2O+
177.0574	16	C13H7N+
178.065	10	C13H8N+
179.0292	115	C13H4F+
179.0604	14	C12H7N2+
180.0245	9	C12H3FN+
180.0372	86	C13H5F+
180.0449	6	C9H7FNO2+
181.0448	800	C13H6F+
182.0401	226	C12H5FN+
182.0521	33	
183.0483	24	C12H6FN+
183.0607	69	C13H8F+
184.0321	11	C12H5FO+
184.0556	39	C12H7FN+
185.0634	13	C12H8FN+
186.0348	24	C11H5FNO+
186.0476	22	C12H7FO+
187.042	12	C11H6FNO+
187.0554	76	C12H8FO+
188.0429	61	C12H6F2+
188.0497	202	C11H7FNO+
189.0384	9	C11H5F2N+
189.0453	3	C10H6FN2O+
189.0576	41	C14H7N+
190.0457	2	C11H6F2N+
190.0652	26	C14H8N+
191.0292	3	C14H4F+
191.049	4	C9H6FN3O+
192.0371	34	C14H5F+
192.0447	7	C13H6NO+
193.0325	27	C13H4FN+
193.0525	3	C13H7NO+
193.0648	21	C14H9O+
194.0408	20	C13H5FN+
194.0527	67	C14H7F+
194.0604	17	C10H9FNO2+
195.048	137	C13H6FN+
195.061	9	C14H8F+
196.0558	72	C13H7FN+
196.0686	9	C14H9F+
197.0511	48	C12H6FN2+
197.0636	4	C13H8FN+
198.0273	17	C13H4F2+
199.0354	675	C13H5F2+
200.0307	90	C12H4F2N+
200.0433	123	C13H6F2+
201.038	17	C12H5F2N+
201.0508	277	C13H7F2+
202.0463	105	C12H6F2N+
202.0649	24	C15H8N+
203.061	18	C11H8FN2O+
204.0384	66	C12H6F2O+
204.055	17	C13H6N3+
205.0453	32	C15H6F+
206.0402	522	C14H5FN+
207.048	137	C14H6FN+
207.0603	16	C10H7F2N3+
208.0559	448	C14H7FN+
209.0636	79	C14H8FN+
210.0267	2	C14H4F2+
210.0584	10	C13H7FN2+
210.0715	2	C14H9FN+
211.0428	22	C13H6FNO+
211.0554	11	C14H8FO+
212.0272	19	C13H5FO2+
212.0505	24	C13H7FNO+
213.0378	41	C13H5F2N+
214.0458	42	C13H6F2N+
214.0569	3	C6H8N5O4+
214.0671	3	C13H9FNO+
215.0415	19	C12H5F2N2+
215.0532	8	C13H7F2N+
217.0325	14	C15H4FN+
219.0481	70	C15H6FN+
220.0557	66	C15H7FN+
221.051	49	C11H7F2N2O+
221.0635	54	C15H8FN+
222.0471	28	
222.0605	5	C11H8F2N2O+
222.0714	56	C15H9FN+
223.0666	24	C14H8FN2+
224.0309	34	C14H4F2N+
225.0389	54	C14H5F2N+
225.0499	9	C7H7N5O4+
225.0603	15	C11H9F2NO2+
226.0464	880	C14H6F2N+
227.0541	206	C14H7F2N+
228.0629	8	C14H8F2N+
229.0576	2	C13H7F2N2+
230.0406	12	C13H6F2NO+
231.048	2	C16H6FN+
232.0332	40	C13H6F2O2+
232.0448	4	C12H6F2N2O+
232.0555	31	C16H7FN+
233.0513	53	C12H7F2N2O+
233.0628	8	C16H8FN+
234.0589	49	C15H7FN2+
234.0715	8	C16H9FN+
235.0661	11	C15H8FN2+
236.0506	3	C15H7FNO+
236.0739	3	C15H9FN2+
237.0216	2	C14H4FNO2+
237.0386	12	C15H5F2N+
238.0466	18	C15H6F2N+
238.0664	15	C15H9FNO+
239.053	24	C15H7F2N+
240.0618	44	C15H8F2N+
241.057	13	C14H7F2N2+
242.0641	2	C14H8F2N2+
243.0489	12	C14H7F2NO+
244.057	3	C14H8F2NO+
246.0458	3	C15H5FN3+
247.0668	30	C16H8FN2+
252.0495	17	C15H6F2N2+
252.0612	5	C16H8F2N+
253.058	23	C15H7F2N2+
254.0651	10	C15H8F2N2+
255.0492	2	C15H7F2NO+
256.0571	10	C15H8F2NO+
257.0284	9	C14H5F2NO2+
258.0357	3	C14H6F2NO2+
259.0667	4	C17H8FN2+
260.0743	4	C17H9FN2+
261.0697	2	C16H8FN3+
