Mass spectrum: Ranitidine N-oxide; LC-ESI-ITFT; MS2; CE: 90%; R=30000; [M+H]+
Name: Ranitidine N-oxide
Name: 1,1-Ethenediamine, N-(2-(((5-((dimethylamino)methyl)-2-furanyl)methyl)thio)ethyl)-N'-methyl-2-nitro-, N-oxide
Formula: C13H22N4O4S
Exact mass: 330.1362
SMILES: c1(oc(CSCCN\C(=C\[N+](=O)[O-])NC)cc1)CN(C)(C)=O
InChI: InChI=1S/C13H22N4O4S/c1-14-13(8-16(18)19)15-6-7-22-10-12-5-4-11(21-12)9-17(2,3)20/h4-5,8,14-15H,6-7,9-10H2,1-3H3/b13-8+
Instrument: LTQ Orbitrap XL Thermo Scientific
Instrument type: LC-ESI-ITFT
Ms type: MS2
Ion mode: POSITIVE
Ionization: ESI
Fragmentation mode: HCD
Collision energy: 90 % (nominal)
Resolution: 30000
Column name: XBridge C18 3.5um, 2.1x50mm, Waters
Retention time: 2.4 min
Base peak: 331.1444
Precursor m/z: 331.1435
Precursor type: [M+H]+
m/z	relative intensity	assigned
55.0416	36	C3H5N+
56.0494	88	C3H6N+
57.0448	18	C2H5N2+
61.0107	69	C2H5S+
68.0494	24	C4H6N+
77.0386	19	C6H5+
81.0335	999	C5H5O+
83.0604	84	C4H7N2+
88.0215	20	C3H6NS+
94.0412	18	C6H6O+
94.0651	33	C6H8N+
95.0491	34	C6H7O+
97.0106	53	C5H5S+
97.076	707	C5H9N2+
98.0838	141	C5H10N2+
101.0295	23	C4H7NS+
102.0372	847	C4H8NS+
104.0494	26	C7H6N+
107.0491	353	C7H7O+
108.057	21	C7H8O+
109.076	21	C6H9N2+
110.0601	24	C6H8NO+
115.0322	28	C4H7N2S+
117.0481	52	C4H9N2S+
118.0652	78	C8H8N+
120.0806	27	C8H10N+
121.076	136	C7H9N2+
125.0055	421	C6H5OS+
129.0481	40	C5H9N2S+
130.0559	82	C5H10N2S+
132.0444	165	H10N3O3S+
133.0522	109	C8H7NO+
134.06	27	C8H8NO+
135.0916	170	C8H11N2+
148.0756	139	C9H10NO+
149.0709	29	C8H9N2O+
151.0212	38	C8H7OS+
162.9926	17	C2H3N4O3S+
163.0863	46	C9H11N2O+
165.1023	21	C9H13N2O+
177.1022	45	C10H13N2O+
178.0318	28	C9H8NOS+
192.0478	25	C10H10NOS+
