Mass spectrum: Pyribencarb; LC-ESI-QFT; MS2; CE: 30%; R=17500; [M+H]+
Name: Pyribencarb
Name: methyl {2-chloro-5-[(1E)-1-(6-methyl-2-pyridylmethoxyimino)ethyl]benzyl}carbamate
Name: methyl N-[[2-chloro-5-[C-methyl-N-[(6-methylpyridin-2-yl)methoxy]carbonimidoyl]phenyl]methyl]carbamate
Formula: C18H20ClN3O3
Exact mass: 361.1193
SMILES: CC1=NC(=CC=C1)CON=C(C)C2=CC(=C(C=C2)Cl)CNC(=O)OC
InChI: InChI=1S/C18H20ClN3O3/c1-12-5-4-6-16(21-12)11-25-22-13(2)14-7-8-17(19)15(9-14)10-20-18(23)24-3/h4-9H,10-11H2,1-3H3,(H,20,23)
Instrument: Exploris 240 Orbitrap Thermo Scientific
Instrument type: LC-ESI-QFT
Ms type: MS2
Ion mode: POSITIVE
Ionization: ESI
Fragmentation mode: HCD
Collision energy: 30 % (nominal)
Resolution: 17500
Column name: XBridge C18 3.5um, 2.1x50mm, Waters
Retention time: 5.920 min
Base peak: 362.1261
Precursor m/z: 362.1266
Precursor type: [M+H]+
m/z	relative intensity	assigned
88.0392	5	C3H6NO2+
107.0727	5	C7H9N+
122.06	62	C7H8NO+
123.0679	2	C7H9NO+
124.0756	10	C7H10NO+
146.06	6	C9H8NO+
152.0262	3	C8H7ClN+
164.026	9	C9H7ClN+
203.0814	35	C11H11N2O2+
205.0963	4	C11H13N2O2+
207.0319	62	C10H8ClN2O+
239.058	999	C11H12ClN2O2+
241.0738	21	C11H14ClN2O2+
362.1268	68	C18H21ClN3O3+
