Mass spectrum: MCPA; LC-ESI-ITFT; MS2; CE: 60%; R=7500; [M-H]-
Name: MCPA
Name: 2-(4-chloranyl-2-methyl-phenoxy)ethanoic acid
Formula: C9H9ClO3
Exact mass: 200.0240
SMILES: c1(c(cc(Cl)cc1)C)OCC(O)=O
InChI: InChI=1S/C9H9ClO3/c1-6-4-7(10)2-3-8(6)13-5-9(11)12/h2-4H,5H2,1H3,(H,11,12)
Instrument: LTQ Orbitrap XL Thermo Scientific
Instrument type: LC-ESI-ITFT
Ms type: MS2
Ion mode: NEGATIVE
Ionization: ESI
Fragmentation mode: HCD
Collision energy: 60 % (nominal)
Resolution: 7500
Column name: XBridge C18 3.5um, 2.1x50mm, Waters
Retention time: 9.5 min
Base peak: 199.0169
Precursor m/z: 199.0167
Precursor type: [M-H]-
m/z	relative intensity	assigned
121.0298	3	C7H5O2-
141.0114	999	C7H6ClO-
