Mass spectrum: Disulfoton; LC-ESI-QFT; MS2; CE: 90%; R=17500; [M+H]+
Name: Disulfoton
Name: diethoxy-(2-ethylsulfanylethylsulfanyl)-sulfanylidene-lambda5-phosphane
Formula: C8H19O2PS3
Exact mass: 274.0285
SMILES: CCOP(=S)(OCC)SCCSCC
InChI: InChI=1S/C8H19O2PS3/c1-4-9-11(12,10-5-2)14-8-7-13-6-3/h4-8H2,1-3H3
Instrument: Exploris 240 Orbitrap Thermo Scientific
Instrument type: LC-ESI-QFT
Ms type: MS2
Ion mode: POSITIVE
Ionization: ESI
Fragmentation mode: HCD
Collision energy: 90 % (nominal)
Resolution: 17500
Column name: XBridge C18 3.5um, 2.1x50mm, Waters
Retention time: 11.896 min
Base peak: 245.0034
Precursor m/z: 275.0358
Precursor type: [M+H]+
m/z	relative intensity	assigned
61.0107	999	C2H5S+
89.042	402	C4H9S+
