Mass spectrum: Dimethenamide ESA; LC-ESI-ITFT; MS2; CE: 45%; R=7500; [M-H]-
Name: Dimethenamide ESA
Name: 2-[(2,4-Dimethyl-3-thienyl)(1-methoxy-2-propanyl)amino]-2-oxoethanesulfonic acid
Formula: C12H19NO5S2
Exact mass: 321.0705
SMILES: S(C=C1C)C(C)=C1N(C(=O)CS(=O)(=O)O)C(COC)C
InChI: InChI=1S/C12H19NO5S2/c1-8-6-19-10(3)12(8)13(9(2)5-18-4)11(14)7-20(15,16)17/h6,9H,5,7H2,1-4H3,(H,15,16,17)
Instrument: LTQ Orbitrap XL Thermo Scientific
Instrument type: LC-ESI-ITFT
Ms type: MS2
Ion mode: NEGATIVE
Ionization: ESI
Fragmentation mode: HCD
Collision energy: 45 % (nominal)
Resolution: 7500
Column name: XBridge C18 3.5um, 2.1x50mm, Waters
Retention time: 6.6 min
Base peak: 320.0627
Precursor m/z: 320.0632
Precursor type: [M-H]-
m/z	relative intensity	assigned
76.9702	269	CHO2S-
79.9573	999	O3S-
120.9601	933	C2HO4S-
166.0697	76	C9H12NS-
320.0626	552	C12H18NO5S2-
