Mass spectrum: Atenolol; LC-ESI-ITFT; MS2; CE: 60%; R=7500; [M+H]+
Name: Atenolol
Name: 2-[4-[2-hydroxy-3-(isopropylamino)propoxy]phenyl]acetamide
Formula: C14H22N2O3
Exact mass: 266.1630
SMILES: CC(C)NCC(O)COc1ccc(cc1)CC(N)=O
InChI: InChI=1S/C14H22N2O3/c1-10(2)16-8-12(17)9-19-13-5-3-11(4-6-13)7-14(15)18/h3-6,10,12,16-17H,7-9H2,1-2H3,(H2,15,18)
Instrument: LTQ Orbitrap XL Thermo Scientific
Instrument type: LC-ESI-ITFT
Ms type: MS2
Ion mode: POSITIVE
Ionization: ESI
Fragmentation mode: HCD
Collision energy: 60 % (nominal)
Resolution: 7500
Column name: XBridge C18 3.5um, 2.1x50mm, Waters
Retention time: 2.0 min
Base peak: 267.171
Precursor m/z: 267.1703
Precursor type: [M+H]+
m/z	relative intensity	assigned
56.0494	163	C3H6N+
58.0651	25	C3H8N+
72.0807	190	C4H10N+
74.06	410	C3H8NO+
84.0805	8	C5H10N+
91.0541	39	C7H7+
93.0699	41	C7H9+
98.0963	161	C6H12N+
100.112	15	C6H14N+
105.07	21	C8H9+
106.065	11	C7H8N+
107.0491	51	C7H7O+
116.1069	206	C6H14NO+
117.0577	8	C8H7N+
117.0697	22	C9H9+
119.049	68	C8H7O+
121.0647	128	C8H9O+
122.0597	22	C7H8NO+
133.0648	264	C9H9O+
134.0598	25	C8H8NO+
145.0647	999	C10H9O+
147.044	72	C9H7O2+
152.0703	31	C8H10NO2+
162.0663	49	C8H8N3O+
162.091	81	C10H12NO+
163.0752	38	C10H11O2+
164.0705	144	C9H10NO2+
173.0596	77	C11H9O2+
178.086	210	C10H12NO2+
190.086	287	C11H12NO2+
208.0966	53	C11H14NO3+
