Mass spectrum: MCLA; LC-ESI-QFT; MS2; CE: 150%; R=17500; [M+H]+
Name: MCLA
Name: Microcystin LA
Name: (5R,8S,11R,12S,15S,18S,19S,22R)-18-[(1E,3E,5S,6S)-6-methoxy-3,5-dimethyl-7-phenylhepta-1,3-dienyl]-1,5,12,15,19-pentamethyl-2-methylidene-8-(2-methylpropyl)-3,6,9,13,16,20,25-heptaoxo-1,4,7,10,14,17,21-heptazacyclopentacosane-11,22-dicarboxylic acid
Class: NA
Formula: C46H67N7O12
Exact mass: 909.4848
SMILES: CO[C@@H](Cc1ccccc1)[C@@H](C)\C=C(C)\C=C\[C@@H]2NC(=O)[C@H](C)NC(=O)[C@@H](C)[C@@H](NC(=O)[C@H](CC(C)C)NC(=O)[C@@H](C)NC(=O)C(=C)N(C)C(=O)CC[C@@H](NC(=O)[C@H]2C)C(O)=O)C(O)=O
InChI: InChI=1S/C46H67N7O12/c1-24(2)21-35-44(60)52-38(46(63)64)28(6)40(56)47-29(7)41(57)49-33(18-17-25(3)22-26(4)36(65-11)23-32-15-13-12-14-16-32)27(5)39(55)50-34(45(61)62)19-20-37(54)53(10)31(9)43(59)48-30(8)42(58)51-35/h12-18,22,24,26-30,33-36,38H,9,19-21,23H2,1-8,10-11H3,(H,47,56)(H,48,59)(H,49,57)(H,50,55)(H,51,58)(H,52,60)(H,61,62)(H,63,64)/b18-17+,25-22+/t26-,27-,28-,29-,30+,33-,34+,35-,36-,38+/m0/s1
Instrument: Q Exactive Plus Orbitrap Thermo Scientific
Instrument type: LC-ESI-QFT
Ms type: MS2
Ion mode: POSITIVE
Ionization: ESI
Fragmentation mode: HCD
Collision energy: 150 % (nominal)
Resolution: 17500
Column name: XBridge C18 3.5um, 2.1x50mm, Waters
Retention time: 10.516 min
Base peak: 164.9846
Precursor m/z: 910.492
Precursor type: [M+H]+
m/z	relative intensity	assigned
65.0386	199	C5H5+
67.0418	24	C4H5N+
67.0542	48	C5H7+
68.0495	11	C4H6N+
69.0336	18	C4H5O+
69.0698	9	C5H9+
74.0235	17	C2H4NO2+
77.0385	63	C6H5+
78.0463	10	C6H6+
79.0542	282	C6H7+
80.0495	66	C5H6N+
81.0337	9	C5H5O+
81.0572	6	C5H7N+
81.0699	13	C6H9+
82.0289	24	C4H4NO+
82.0651	85	C5H8N+
84.0444	104	C4H6NO+
84.0808	8	C5H10N+
85.0283	12	C4H5O2+
86.0599	9	C4H8NO+
86.0965	31	C5H12N+
91.0543	999	C7H7+
92.062	28	C7H8+
93.0699	76	C7H9+
94.0651	38	C6H8N+
95.0492	592	C6H7O+
95.0856	9	
96.0685	6	C5H8N2+
99.0916	19	C5H11N2+
102.0464	38	C8H6+
103.0542	793	C8H7+
104.0621	7	C8H8+
105.0448	206	C6H5N2+
105.0699	353	C8H9+
106.0526	16	C6H6N2+
106.065	6	C7H8N+
107.0605	9	C6H7N2+
107.0855	159	C8H11+
109.0648	63	C7H9O+
110.0602	11	C6H8NO+
113.0231	17	C5H5O3+
115.0542	116	C9H7+
116.0622	20	C9H8+
117.0576	6	C8H7N+
117.07	29	C9H9+
119.0604	49	C7H7N2+
119.0857	17	C9H11+
120.0571	10	C8H8O+
120.0808	12	C8H10N+
121.076	65	C7H9N2+
127.0866	58	C6H11N2O+
128.0621	59	C10H8+
129.0698	34	C10H9+
130.0653	14	C9H8N+
130.0775	8	C10H10+
131.0856	16	C10H11+
135.08	9	C9H11O+
141.0698	8	C11H9+
149.0709	6	C8H9N2O+
153.0695	12	C12H9+
165.07	40	C13H9+
178.0778	14	C14H10+
179.086	13	H13N5O6+
