Mass spectrum: Anthraquinone; LC-ESI-QFT; MS2; CE: 150%; R=17500; [M+H]+
Name: Anthraquinone
Name: anthracene-9,10-dione
Formula: C14H8O2
Exact mass: 208.0524
SMILES: C1=CC=C2C(=C1)C(=O)C3=CC=CC=C3C2=O
InChI: InChI=1S/C14H8O2/c15-13-9-5-1-2-6-10(9)14(16)12-8-4-3-7-11(12)13/h1-8H
Instrument: Exploris 240 Orbitrap Thermo Scientific
Instrument type: LC-ESI-QFT
Ms type: MS2
Ion mode: POSITIVE
Ionization: ESI
Fragmentation mode: HCD
Collision energy: 150 % (nominal)
Resolution: 17500
Column name: XBridge C18 3.5um, 2.1x50mm, Waters
Retention time: 9.212 min
Base peak: 132.9582
Precursor m/z: 209.0597
Precursor type: [M+H]+
m/z	relative intensity	assigned
51.0229	152	C4H3+
53.0386	116	C4H5+
77.0386	435	C6H5+
95.0491	314	C6H7O+
102.0465	34	C8H6+
126.0465	138	C10H6+
127.0542	102	C10H7+
150.0463	111	C12H6+
151.0542	151	C12H7+
152.0621	999	C12H8+
169.0647	137	C12H9O+
