Mass spectrum: Diclobutrazol; LC-ESI-QFT; MS2; CE: 75%; R=17500; [M+H]+
Name: Diclobutrazol
Name: 1-(2,4-dichlorophenyl)-4,4-dimethyl-2-(1,2,4-triazol-1-yl)pentan-3-ol
Formula: C15H19Cl2N3O
Exact mass: 327.0905
SMILES: CC(C)(C)C(C(CC1=C(C=C(C=C1)Cl)Cl)N2C=NC=N2)O
InChI: InChI=1S/C15H19Cl2N3O/c1-15(2,3)14(21)13(20-9-18-8-19-20)6-10-4-5-11(16)7-12(10)17/h4-5,7-9,13-14,21H,6H2,1-3H3
Instrument: Exploris 240 Orbitrap Thermo Scientific
Instrument type: LC-ESI-QFT
Ms type: MS2
Ion mode: POSITIVE
Ionization: ESI
Fragmentation mode: HCD
Collision energy: 75 % (nominal)
Resolution: 17500
Column name: XBridge C18 3.5um, 2.1x50mm, Waters
Retention time: 10.847 min
Base peak: 328.0979
Precursor m/z: 328.0978
Precursor type: [M+H]+
m/z	relative intensity	assigned
57.0699	10	C4H9+
59.0492	34	C3H7O+
69.0698	16	C5H9+
70.04	999	C2H4N3+
87.0803	5	C5H11O+
102.0463	3	C8H6+
125.0158	8	C7H6Cl+
137.0154	10	C8H6Cl+
158.9764	122	C7H5Cl2+
164.0385	5	C10H9Cl+
172.9928	5	C8H7Cl2+
