Mass spectrum: Enoxastrobin; LC-ESI-QFT; MS2; CE: 60%; R=17500; [M+H]+
Name: Enoxastrobin
Name: methyl 2-[2-[[4-(4-chlorophenyl)but-3-en-2-ylideneamino]oxymethyl]phenyl]-3-methoxyprop-2-enoate
Formula: C22H22ClNO4
Exact mass: 399.1237
SMILES: CC(=NOCC1=CC=CC=C1C(=COC)C(=O)OC)C=CC2=CC=C(C=C2)Cl
InChI: InChI=1S/C22H22ClNO4/c1-16(8-9-17-10-12-19(23)13-11-17)24-28-14-18-6-4-5-7-20(18)21(15-26-2)22(25)27-3/h4-13,15H,14H2,1-3H3
Instrument: Exploris 240 Orbitrap Thermo Scientific
Instrument type: LC-ESI-QFT
Ms type: MS2
Ion mode: POSITIVE
Ionization: ESI
Fragmentation mode: HCD
Collision energy: 60 % (nominal)
Resolution: 17500
Column name: XBridge C18 3.5um, 2.1x50mm, Waters
Retention time: 13.142 min
Base peak: 400.1307
Precursor m/z: 400.131
Precursor type: [M+H]+
m/z	relative intensity	assigned
91.0543	21	C7H7+
101.0386	27	C8H5+
102.0464	316	C8H6+
103.0543	4	C8H7+
115.0542	72	C9H7+
117.0698	153	C9H9+
130.0409	16	C9H6O+
131.0494	11	C9H7O+
131.0857	4	C10H11+
137.0152	999	C8H6Cl+
145.0647	617	C10H9O+
146.0726	26	C10H10O+
147.0808	7	C7H14ClN+
177.0909	7	C11H13O2+
178.0419	37	C10H9ClN+
