Mass spectrum: Mandestrobin; LC-ESI-QFT; MS2; CE: 75%; R=17500; [M+H]+
Name: Mandestrobin
Name: 2-[2-[(2,5-dimethylphenoxy)methyl]phenyl]-2-methoxy-N-methylacetamide
Formula: C19H23NO3
Exact mass: 313.1678
SMILES: CC1=CC(=C(C=C1)C)OCC2=CC=CC=C2C(C(=O)NC)OC
InChI: InChI=1S/C19H23NO3/c1-13-9-10-14(2)17(11-13)23-12-15-7-5-6-8-16(15)18(22-4)19(21)20-3/h5-11,18H,12H2,1-4H3,(H,20,21)
Instrument: Exploris 240 Orbitrap Thermo Scientific
Instrument type: LC-ESI-QFT
Ms type: MS2
Ion mode: POSITIVE
Ionization: ESI
Fragmentation mode: HCD
Collision energy: 75 % (nominal)
Resolution: 17500
Column name: XBridge C18 3.5um, 2.1x50mm, Waters
Retention time: 11.127 min
Base peak: 314.1748
Precursor m/z: 314.1751
Precursor type: [M+H]+
m/z	relative intensity	assigned
91.0542	569	C7H7+
103.0542	78	C8H7+
105.0698	45	C8H9+
109.0648	12	C7H9O+
115.0544	21	C9H7+
117.0573	125	C8H7N+
118.065	24	C8H8N+
119.0491	999	C8H7O+
131.0727	37	C9H9N+
132.0807	831	C9H10N+
134.0969	21	C9H12N+
135.0802	13	C9H11O+
145.0522	10	C9H7NO+
147.0684	36	C9H9NO+
153.07	8	C12H9+
160.0756	141	C10H10NO+
165.0695	16	C13H9+
180.0936	27	C14H12+
208.0885	38	C15H12O+
