Mass spectrum: Famphur; LC-ESI-QFT; MS2; CE: 60%; R=17500; [M+H]+
Name: Famphur
Name: 4-dimethoxyphosphinothioyloxy-N,N-dimethylbenzenesulfonamide
Formula: C10H16NO5PS2
Exact mass: 325.0208
SMILES: CN(C)S(=O)(=O)C1=CC=C(C=C1)OP(=S)(OC)OC
InChI: InChI=1S/C10H16NO5PS2/c1-11(2)19(12,13)10-7-5-9(6-8-10)16-17(18,14-3)15-4/h5-8H,1-4H3
Instrument: Exploris 240 Orbitrap Thermo Scientific
Instrument type: LC-ESI-QFT
Ms type: MS2
Ion mode: POSITIVE
Ionization: ESI
Fragmentation mode: HCD
Collision energy: 60 % (nominal)
Resolution: 17500
Column name: XBridge C18 3.5um, 2.1x50mm, Waters
Retention time: 6.830 min
Base peak: 326.0278
Precursor m/z: 326.028
Precursor type: [M+H]+
m/z	relative intensity	assigned
62.9994	46	CH4OP+
78.9942	12	CH4O2P+
93.0099	999	C2H6O2P+
95.0491	4	C6H7O+
107.0492	9	C7H7O+
111.0264	15	C2H10NPS+
123.9979	9	C2H7NOPS+
124.9819	150	C2H6O2PS+
127.0154	67	C2H8O4P+
138.0136	6	C3H9NOPS+
139.0211	26	C7H7OS+
142.9929	38	C2H8O3PS+
154.9713	64	C6H4OPS+
169.9585	9	C6H3O2PS+
170.9659	5	C6H4O2PS+
171.9741	63	C6H5O2PS+
172.9822	17	C6H6O2PS+
184.982	83	C7H6O2PS+
186.9978	21	C7H8O2PS+
201.9849	115	C7H7O3PS+
202.9929	34	C7H8O3PS+
217.0084	99	C8H10O3PS+
