Mass spectrum: Cetirizine N-Oxide; LC-ESI-QFT; MS2; CE: 30; R=35000; [M-H]-
Name: Cetirizine N-Oxide
Name: (R)-Cetirizine N-Oxide
Name: 2-[2-[4-[(4-chlorophenyl)-phenylmethyl]-1-oxidopiperazin-1-ium-1-yl]ethoxy]acetic acid
Formula: C21H25ClN2O4
Exact mass: 404.15028
SMILES: C1C[N+](CCN1C(C2=CC=CC=C2)C3=CC=C(C=C3)Cl)(CCOCC(=O)O)[O-]
InChI: InChI=1S/C21H25ClN2O4/c22-19-8-6-18(7-9-19)21(17-4-2-1-3-5-17)23-10-12-24(27,13-11-23)14-15-28-16-20(25)26/h1-9,21H,10-16H2,(H,25,26)
Instrument: Q Exactive Plus Orbitrap Thermo Scientific
Instrument type: LC-ESI-QFT
Ms type: MS2
Ion mode: NEGATIVE
Ionization: ESI
Fragmentation mode: HCD
Collision energy: 30 (nominal)
Resolution: 35000
Column name: XBridge C18 3.5um, 2.1x50mm, Waters
Retention time: 9.6 min
Base peak: 403.1428
Precursor m/z: 403.143
Precursor type: [M-H]-
m/z	relative intensity	assigned
55.0189	9	C3H3O-
57.0346	7	C3H5O-
58.006	13	C2H2O2-
59.0139	49	C2H3O2-
59.9853	6	CO3-
60.9932	3	CHO3-
71.0139	8	C3H3O2-
72.9932	999	C2HO3-
75.0088	458	C2H3O3-
89.0244	37	C3H5O3-
98.0247	7	C4H4NO2-
98.0611	1	C5H8NO-
101.0244	589	C4H5O3-
103.0401	359	C4H7O3-
111.0007	1	C6H4Cl-
117.0194	144	C4H5O4-
118.051	3	C4H8NO3-
118.0663	3	C8H8N-
119.035	39	C4H7O4-
184.0853	18	C8H12N2O3-
192.0818	1	C14H10N-
199.0323	6	C13H8Cl-
201.0477	38	C13H10Cl-
206.0976	1	C15H12N-
208.1134	2	C15H14N-
228.0587	19	C14H11ClN-
242.0744	12	C15H13ClN-
285.1166	13	
327.1269	6	C19H20ClN2O-
373.1325	14	C20H22ClN2O3-
385.1321	8	C21H22ClN2O3-
403.1432	257	C21H24ClN2O4-
