Mass spectrum: Febuxostat; LC-ESI-QFT; MS2; CE: 30%; R=15000; [M+H]+
Name: Febuxostat
Name: 2-[3-cyano-4-(2-methylpropoxy)phenyl]-4-methyl-1,3-thiazole-5-carboxylic acid
Formula: C16H16N2O3S
Exact mass: 316.0881634
SMILES: CC1=C(SC(=N1)C2=CC(=C(C=C2)OCC(C)C)C#N)C(=O)O
InChI: InChI=1S/C16H16N2O3S/c1-9(2)8-21-13-5-4-11(6-12(13)7-17)15-18-10(3)14(22-15)16(19)20/h4-6,9H,8H2,1-3H3,(H,19,20)
Instrument: Q Exactive Plus
Instrument type: LC-ESI-QFT
Ms type: MS2
Ion mode: POSITIVE
Ionization: ESI
Fragmentation mode: HCD
Collision energy: 30 % (nominal)
Resolution: 15000
Column name: XBridge C18 3.5um, 2.1x50mm, Waters
Retention time: 11.644 min
Base peak: 317.0954
Precursor m/z: 317.0954
Precursor type: [M+H]+
Precursor intensity: 288937567.42
m/z	relative intensity	assigned
261.0326	999	C12H9N2O3S+
317.0954	43	C16H17N2O3S+
