Mass spectrum: Terbuthylazine-TP CSAA036479 (LM2); LC-ESI-QFT; MS2; CE: 60%; R=17500; [M+H]+
Name: Terbuthylazine-TP CSAA036479 (LM2)
Name: 2-[(6-amino-4-oxo-1H-1,3,5-triazin-2-yl)amino]-2-methylpropanoic acid
Formula: C7H11N5O3
Exact mass: 213.0862
SMILES: CC(C)(NC1=NC(N)=NC(O)=N1)C(O)=O
InChI: InChI=1S/C7H11N5O3/c1-7(2,3(13)14)12-5-9-4(8)10-6(15)11-5/h1-2H3,(H,13,14)(H4,8,9,10,11,12,15)
Instrument: Q Exactive Plus Orbitrap Thermo Scientific
Instrument type: LC-ESI-QFT
Ms type: MS2
Ion mode: POSITIVE
Ionization: ESI
Fragmentation mode: HCD
Collision energy: 60 % (nominal)
Resolution: 17500
Column name: XBridge C18 3.5um, 2.1x50mm, Waters
Retention time: 1.352 min
Base peak: 214.0934
Precursor m/z: 214.0935
Precursor type: [M+H]+
m/z	relative intensity	assigned
58.0651	76	C3H8N+
59.0491	38	C3H7O+
60.0556	6	CH6N3+
68.0243	7	C2H2N3+
69.0083	25	C2HN2O+
69.0336	7	C4H5O+
83.0604	52	C4H7N2+
84.0444	219	C4H6NO+
85.0509	206	C2H5N4+
86.0349	379	C2H4N3O+
87.0441	22	C4H7O2+
109.0396	34	C5H5N2O+
111.0301	20	C3H3N4O+
125.0823	3	C5H9N4+
126.0662	999	C5H8N3O+
127.0617	11	C4H7N4O+
128.0567	347	C3H6N5O+
151.0614	56	C6H7N4O+
168.088	599	C6H10N5O+
214.0938	4	C7H12N5O3+
