Mass spectrum: Aniracetam; LC-ESI-QFT; MS2; CE: 30%; R=17500; [M+H]+
Name: Aniracetam
Name: 1-(4-methoxybenzoyl)pyrrolidin-2-one
Formula: C12H13NO3
Exact mass: 219.089543276
SMILES: COC1=CC=C(C=C1)C(=O)N2CCCC2=O
InChI: InChI=1S/C12H13NO3/c1-16-10-6-4-9(5-7-10)12(15)13-8-2-3-11(13)14/h4-7H,2-3,8H2,1H3
Instrument: Exploris 240 Orbitrap Thermo Scientific
Instrument type: LC-ESI-QFT
Ms type: MS2
Ion mode: POSITIVE
Ionization: ESI
Fragmentation mode: HCD
Collision energy: 30 % (nominal)
Resolution: 17500
Column name: XBridge C18 3.5um, 2.1x50mm, Waters
Retention time: 4.731 min
Base peak: 220.0966
Precursor m/z: 220.0968
Precursor type: [M+H]+
m/z	relative intensity	assigned
135.0439	999	C8H7O2+
220.0963	17	C12H14NO3+
