Mass spectrum: Triphenylphosphine oxide; LC-ESI-QFT; MS2; CE: 60; R=35000; [M+H]+
Name: Triphenylphosphine oxide
Name: Triphenylphosphineoxide
Name: (diphenylphosphoroso)benzene
Formula: C18H15OP
Exact mass: 278.08605
SMILES: C1=CC=C(C=C1)P(=O)(C2=CC=CC=C2)C3=CC=CC=C3
InChI: InChI=1S/C18H15OP/c19-20(16-10-4-1-5-11-16,17-12-6-2-7-13-17)18-14-8-3-9-15-18/h1-15H
Instrument: Q Exactive Plus Orbitrap Thermo Scientific
Instrument type: LC-ESI-QFT
Ms type: MS2
Ion mode: POSITIVE
Ionization: ESI
Fragmentation mode: HCD
Collision energy: 60 (nominal)
Resolution: 35000
Column name: XBridge C18 3.5um, 2.1x50mm, Waters
Retention time: 9.4 min
Base peak: 391.2839
Precursor m/z: 279.0933
Precursor type: [M+H]+
m/z	relative intensity	assigned
50.0149	2	C4H2+
51.0229	9	C4H3+
53.0022	15	C3HO+
53.0386	2	C4H5+
53.9975	2	C2NO+
55.0178	4	C3H3O+
55.0542	8	C4H7+
57.0699	655	C4H9+
59.0491	43	C3H7O+
62.9996	3	CH4OP+
65.0385	134	C5H5+
67.0542	4	C5H7+
69.0699	3	C5H9+
71.0855	28	C5H11+
74.0963	2	C4H12N+
77.0384	3	C6H5+
79.0542	27	C6H7+
81.0699	12	C6H9+
87.0441	27	C4H7O2+
91.0543	5	C7H7+
93.0335	82	C6H5O+
95.0044	2	C5H4P+
95.0492	17	C6H7O+
95.0855	4	C7H11+
98.0362	11	C5H6O2+
101.0598	12	C5H9O2+
105.0335	4	C7H5O+
105.0448	12	C6H5N2+
105.0699	3	C8H9+
107.0855	3	C8H11+
109.0649	2	C7H9O+
109.1014	2	C8H13+
111.0441	43	C6H7O2+
119.0857	4	C9H11+
121.0284	999	C7H5O2+
121.0396	183	C6H5N2O+
128.062	4	C10H8+
129.0697	10	C10H9+
141.01	11	C6H6O2P+
154.0776	13	C12H10+
171.036	24	C11H8P+
173.0515	79	C11H10P+
183.0358	13	C12H8P+
201.0462	67	C12H10OP+
219.057	801	C12H12O2P+
233.0729	23	C13H14O2P+
279.0932	58	C18H16OP+
