Mass spectrum: Meptazinol; LC-ESI-QFT; MS2; CE: 90; R=35000; [M+H]+
Name: Meptazinol
Name: 3-(3-ethyl-1-methylazepan-3-yl)phenol
Formula: C15H23NO
Exact mass: 233.17796
SMILES: CCC1(CCCCN(C1)C)C2=CC(=CC=C2)O
InChI: InChI=1S/C15H23NO/c1-3-15(9-4-5-10-16(2)12-15)13-7-6-8-14(17)11-13/h6-8,11,17H,3-5,9-10,12H2,1-2H3
Instrument: Q Exactive Orbitrap Thermo Scientific
Instrument type: LC-ESI-QFT
Ms type: MS2
Ion mode: POSITIVE
Ionization: ESI
Fragmentation mode: HCD
Collision energy: 90 (nominal)
Resolution: 35000
Column name: XBridge C18 3.5um, 2.1x50mm, Waters
Retention time: 4.9 min
Base peak: 234.1853
Precursor m/z: 234.1852
Precursor type: [M+H]+
m/z	relative intensity	assigned
50.0152	1	C4H2+
53.0386	4	C4H5+
55.0178	1	C3H3O+
55.0543	2	C4H7+
58.0651	11	C3H8N+
65.0385	7	C5H5+
67.0542	53	C5H7+
69.0698	5	C5H9+
70.065	28	C4H8N+
72.0807	1	C4H10N+
77.0385	45	C6H5+
79.0542	161	C6H7+
81.0334	5	C5H5O+
81.0698	11	C6H9+
82.0651	1	C5H8N+
83.0855	2	C6H11+
84.0807	16	C5H10N+
86.0964	3	C5H12N+
91.0541	93	C7H7+
93.0698	25	C7H9+
95.0491	128	C6H7O+
95.0854	11	C7H11+
96.0807	3	C6H10N+
97.0886	1	C6H11N+
98.0964	6	C6H12N+
103.0542	47	C8H7+
104.0619	2	C8H8+
105.0447	55	C6H5N2+
105.0698	164	C8H9+
107.0491	999	C7H7O+
109.101	1	C8H13+
115.0542	15	C9H7+
116.0619	2	C9H8+
117.0697	12	C9H9+
119.0491	8	C8H7O+
119.0854	18	C9H11+
121.0647	44	C8H9O+
126.1277	6	C8H16N+
128.0619	15	C10H8+
129.0697	5	C10H9+
131.0491	21	C9H7O+
131.0855	5	C10H11+
132.0569	45	C9H8O+
133.0647	110	C9H9O+
141.0697	3	C11H9+
143.0602	1	C9H7N2+
143.0854	1	C11H11+
144.0568	1	C10H8O+
145.0647	28	C10H9O+
146.0726	31	C10H10O+
147.0803	24	C10H11O+
155.0602	5	C10H7N2+
159.0805	4	C11H11O+
161.0959	13	C11H13O+
