Mass spectrum: 17a-Ethynylestradiol; LC-ESI-QFT; MS2; CE: 90; R=35000; [M+H]+
Name: 17a-Ethynylestradiol
Name: Ethinyl Estradiol
Name: 17-ethynyl-13-methyl-7,8,9,11,12,14,15,16-octahydro-6H-cyclopenta[a]phenanthrene-3,17-diol
Formula: C20H24O2
Exact mass: 296.17763
SMILES: Oc1cc4c(cc1)C3CCC2(C(CCC2(C#C)O)C3CC4)C
InChI: InChI=1S/C20H24O2/c1-3-20(22)11-9-18-17-6-4-13-12-14(21)5-7-15(13)16(17)8-10-19(18,20)2/h1,5,7,12,16-18,21-22H,4,6,8-11H2,2H3
Instrument: Q Exactive Orbitrap Thermo Scientific
Instrument type: LC-ESI-QFT
Ms type: MS2
Ion mode: POSITIVE
Ionization: ESI
Fragmentation mode: HCD
Collision energy: 90 (nominal)
Resolution: 35000
Column name: XBridge C18 3.5um, 2.1x50mm, Waters
Retention time: 10.4 min
Base peak: 279.1744
Precursor m/z: 297.1849
Precursor type: [M+H]+
m/z	relative intensity	assigned
51.023	2	C4H3+
53.0023	7	C3HO+
53.0387	9	C4H5+
55.0179	3	C3H3O+
55.0543	6	C4H7+
59.0493	2	C3H7O+
65.0386	27	C5H5+
67.0542	150	C5H7+
69.0335	2	C4H5O+
69.0699	13	C5H9+
71.0491	13	C4H7O+
77.0386	26	C6H5+
79.0542	262	C6H7+
81.0335	15	C5H5O+
81.0699	88	C6H9+
83.0491	3	C5H7O+
91.0542	309	C7H7+
93.0699	82	C7H9+
95.0491	286	C6H7O+
95.0855	43	C7H11+
97.0648	9	C6H9O+
103.0542	84	C8H7+
105.0447	64	C6H5N2+
105.0699	224	C8H9+
107.0491	999	C7H7O+
109.0647	9	C7H9O+
109.1012	53	C8H13+
111.0803	2	C7H11O+
115.0542	101	C9H7+
116.062	40	C9H8+
117.0698	63	C9H9+
118.0775	2	C9H10+
119.0492	2	C8H7O+
119.0855	40	C9H11+
121.0647	43	C8H9O+
123.0805	3	C8H11O+
128.062	72	C10H8+
129.0699	88	C10H9+
130.0777	17	C10H10+
131.0493	35	C9H7O+
131.0855	57	C10H11+
132.0571	22	C9H8O+
133.0648	116	C9H9O+
133.1013	10	C10H13+
134.068	13	C4H10N2O3+
135.0802	2	C9H11O+
137.0961	12	C9H13O+
141.0698	49	C11H9+
142.0778	16	C11H10+
143.0857	21	C11H11+
144.057	68	C10H8O+
144.0936	4	C11H12+
145.0648	60	C10H9O+
145.1012	4	C11H13+
146.0681	7	C5H10N2O3+
147.0804	19	C10H11O+
152.0622	16	C12H8+
153.07	18	C12H9+
154.0779	6	C12H10+
155.0604	12	C10H7N2+
155.0855	9	C12H11+
156.0934	3	C12H12+
157.0648	79	C11H9O+
157.1013	6	C12H13+
159.0805	47	C11H11O+
165.0701	37	C13H9+
166.078	6	C13H10+
167.0856	8	C13H11+
169.0648	7	C12H9O+
169.0763	9	C11H9N2+
170.0732	2	C12H10O+
171.0807	11	C12H11O+
172.0838	2	C7H12N2O3+
177.0699	2	C14H9+
178.0778	12	C14H10+
179.0856	12	C14H11+
181.0648	27	C13H9O+
182.0733	13	C13H10O+
183.0807	19	C13H11O+
189.0703	3	C15H9+
191.0856	3	C15H11+
193.1012	3	C15H13+
194.0727	13	C14H10O+
195.0809	12	C14H11O+
196.0887	2	C14H12O+
197.0963	3	C14H13O+
199.108	1	C9H15N2O3+
207.0807	4	C15H11O+
208.0882	6	C15H12O+
209.0959	8	C15H13O+
214.1309	2	C10H18N2O3+
221.0958	3	C16H13O+
223.0273	10	C13H5NO3+
225.0431	10	C13H7NO3+
