Mass spectrum: Norephedrine; LC-ESI-QFT; MS2; CE: 120; R=35000; [M+H]+
Name: Norephedrine
Name: Phenylpropanolamine
Name: 2-amino-1-phenylpropan-1-ol
Formula: C9H13NO
Exact mass: 151.09971
SMILES: CC(C(C1=CC=CC=C1)O)N
InChI: InChI=1S/C9H13NO/c1-7(10)9(11)8-5-3-2-4-6-8/h2-7,9,11H,10H2,1H3
Instrument: Q Exactive Plus Orbitrap Thermo Scientific
Instrument type: LC-ESI-QFT
Ms type: MS2
Ion mode: POSITIVE
Ionization: ESI
Fragmentation mode: HCD
Collision energy: 120 (nominal)
Resolution: 35000
Column name: XBridge C18 3.5um, 2.1x50mm, Waters
Retention time: 2.4 min
Base peak: 152.1067
Precursor m/z: 152.107
Precursor type: [M+H]+
m/z	relative intensity	assigned
50.0151	1	C4H2+
51.0228	4	C4H3+
53.0022	2	C3HO+
53.0386	8	C4H5+
56.0495	32	C3H6N+
57.0335	2	C3H5O+
57.0573	5	C3H7N+
63.0228	5	C5H3+
65.0386	108	C5H5+
77.0386	18	C6H5+
78.0464	4	C6H6+
79.0542	8	C6H7+
89.0386	23	C7H5+
91.0543	999	C7H7+
92.062	6	C7H8+
93.0574	3	C6H7N+
93.07	1	C7H9+
95.0492	22	C6H7O+
102.0465	5	C8H6+
103.0542	2	C8H7+
104.0495	48	C7H6N+
105.0448	12	C6H5N2+
105.0698	4	C8H9+
106.0653	4	C7H8N+
115.0543	858	C9H7+
116.0621	49	C9H8+
117.0574	5	C8H7N+
117.0699	64	C9H9+
118.0652	142	C8H8N+
119.073	39	C8H9N+
134.0964	2	C9H12N+
