Mass spectrum: Cortisone; LC-ESI-QFT; MS2; CE: 120; R=35000; [M+H]+
Name: Cortisone
Name: 17,21-Dihydroxypregn-4-ene-3,11,20-trione
Name: (8S,9S,10R,13S,14S,17R)-17-hydroxy-17-(2-hydroxyacetyl)-10,13-dimethyl-1,2,6,7,8,9,12,14,15,16-decahydrocyclopenta[a]phenanthrene-3,11-dione
Formula: C21H28O5
Exact mass: 360.19367
SMILES: O=C(CO)[C@@]3(O)CC[C@H]2[C@@H]4CC\C1=C\C(=O)CC[C@]1(C)[C@H]4C(=O)C[C@@]23C
InChI: InChI=1S/C21H28O5/c1-19-7-5-13(23)9-12(19)3-4-14-15-6-8-21(26,17(25)11-22)20(15,2)10-16(24)18(14)19/h9,14-15,18,22,26H,3-8,10-11H2,1-2H3/t14-,15-,18+,19-,20-,21-/m0/s1
Instrument: Q Exactive Plus Orbitrap Thermo Scientific
Instrument type: LC-ESI-QFT
Ms type: MS2
Ion mode: POSITIVE
Ionization: ESI
Fragmentation mode: HCD
Collision energy: 120 (nominal)
Resolution: 35000
Column name: XBridge C18 3.5um, 2.1x50mm, Waters
Retention time: 7.3 min
Base peak: 361.2008
Precursor m/z: 361.201
Precursor type: [M+H]+
m/z	relative intensity	assigned
50.0151	20	C4H2+
51.0229	19	C4H3+
52.0308	1	C4H4+
53.0022	18	C3HO+
53.0386	128	C4H5+
53.9975	4	C2NO+
55.0179	103	C3H3O+
55.0543	121	C4H7+
57.0335	8	C3H5O+
63.0229	5	C5H3+
65.0386	175	C5H5+
66.0464	9	C5H6+
67.0542	140	C5H7+
67.9893	1	C3O2+
69.0335	17	C4H5O+
69.0699	21	C5H9+
71.0492	4	C4H7O+
77.0386	144	C6H5+
78.0464	37	C6H6+
79.0542	447	C6H7+
80.0621	8	C6H8+
81.0335	27	C5H5O+
81.0699	91	C6H9+
82.0414	5	C5H6O+
83.0491	111	C5H7O+
89.0386	9	C7H5+
90.0465	2	C7H6+
91.0543	999	C7H7+
92.0621	14	C7H8+
93.07	121	C7H9+
94.0414	24	C6H6O+
95.0492	417	C6H7O+
95.0855	24	C7H11+
96.057	1	C6H8O+
97.0649	96	C6H9O+
102.0465	9	C8H6+
103.0543	150	C8H7+
104.0621	40	C8H8+
105.0448	205	C6H5N2+
105.0699	382	C8H9+
106.0415	2	C7H6O+
106.0778	5	C8H10+
107.0492	93	C7H7O+
107.0856	25	C8H11+
108.0572	7	C7H8O+
109.0648	35	C7H9O+
115.0543	363	C9H7+
116.0621	72	C9H8+
117.0699	136	C9H9+
118.0418	1	C8H6O+
118.0778	5	C9H10+
119.0492	14	C8H7O+
119.0604	11	C7H7N2+
119.0856	57	C9H11+
120.057	11	C8H8O+
121.0649	95	C8H9O+
123.0806	6	C8H11O+
126.0465	2	C10H6+
127.0542	18	C10H7+
128.0621	314	C10H8+
129.0699	204	C10H9+
130.0778	62	C10H10+
131.0492	35	C9H7O+
131.0856	43	C10H11+
132.057	20	C9H8O+
133.0649	108	C9H9O+
134.0722	3	C9H10O+
135.0803	5	C9H11O+
139.0543	2	C11H7+
140.062	1	C11H8+
141.0699	162	C11H9+
142.0778	60	C11H10+
143.0856	37	C11H11+
144.0571	14	C10H8O+
144.0935	5	C11H12+
145.0649	48	C10H9O+
145.1014	14	C11H13+
146.0726	18	C10H10O+
147.0805	164	C10H11O+
148.0883	72	C10H12O+
152.0621	73	C12H8+
153.07	112	C12H9+
154.0778	32	C12H10+
155.0604	47	C10H7N2+
155.0856	52	C12H11+
156.0934	9	C12H12+
157.0649	16	C11H9O+
157.1013	9	C12H13+
158.0727	7	C11H10O+
159.0805	13	C11H11O+
160.0881	1	C11H12O+
161.0963	5	C11H13O+
163.1117	3	C11H15O+
165.07	157	C13H9+
166.0778	34	C13H10+
167.0856	51	C13H11+
168.0576	1	C12H8O+
168.0935	12	C13H12+
169.0647	12	C12H9O+
169.1013	14	C13H13+
170.1088	1	C13H14+
171.0808	7	C12H11O+
171.1173	1	C13H15+
172.0886	1	C12H12O+
173.0963	11	C12H13O+
174.1041	7	C12H14O+
176.0623	4	C14H8+
177.07	7	C14H9+
178.0778	71	C14H10+
179.0856	43	C14H11+
180.0933	8	C14H12+
181.0648	11	C13H9O+
181.1012	15	C14H13+
182.0727	3	C13H10O+
182.109	1	C14H14+
183.0805	7	C13H11O+
183.1172	5	C14H15+
185.0964	4	C13H13O+
185.1329	1	C14H17+
186.1035	1	C13H14O+
187.1119	2	C13H15O+
189.07	19	C15H9+
190.0778	17	C15H10+
191.0855	27	C15H11+
192.0935	9	C15H12+
193.1013	11	C15H13+
194.0729	4	C14H10O+
194.109	1	C15H14+
195.0807	7	C14H11O+
195.1171	1	C15H15+
196.0888	2	C14H12O+
197.0964	4	C14H13O+
199.112	1	C14H15O+
201.1278	1	C14H17O+
202.0779	18	C16H10+
203.0856	14	C16H11+
204.0933	1	C16H12+
205.1014	4	C16H13+
207.0812	3	C15H11O+
209.0961	1	C15H13O+
211.1119	9	C15H15O+
212.1198	1	C15H16O+
215.0855	8	C17H11+
216.0936	2	C17H12+
217.1011	1	C17H13+
219.0807	1	C16H11O+
223.1121	1	C16H15O+
225.1274	3	C16H17O+
243.1379	3	C16H19O2+
