Mass spectrum: Acetamiprid; LC-ESI-ITFT; MS2; CE: 45%; R=7500; [M+H]+
Name: Acetamiprid
Name: (1E)-N-[(6-Chloro-3-pyridinyl)methyl]-N'-cyano-N-methylethanimidamide
Formula: C10H11ClN4
Exact mass: 222.0672
SMILES: CN(CC1=CN=C(Cl)C=C1)C(\C)=N\C#N
InChI: InChI=1S/C10H11ClN4/c1-8(14-7-12)15(2)6-9-3-4-10(11)13-5-9/h3-5H,6H2,1-2H3/b14-8+
Instrument: LTQ Orbitrap XL Thermo Scientific
Instrument type: LC-ESI-ITFT
Ms type: MS2
Ion mode: POSITIVE
Ionization: ESI
Fragmentation mode: HCD
Collision energy: 45 % (nominal)
Resolution: 7500
Column name: XBridge C18 3.5um, 2.1x50mm, Waters
Retention time: 5.3 min
Base peak: 223.0746
Precursor m/z: 223.0745
Precursor type: [M+H]+
m/z	relative intensity	assigned
56.0495	75	C3H6N+
90.0339	6	C6H4N+
98.9997	1	C5H4Cl+
126.0105	999	C6H5ClN+
144.0214	1	C6H7ClNO+
146.0709	1	C8H8N3+
151.006	1	C7H4ClN2+
155.0372	1	C7H8ClN2+
160.0872	1	C9H10N3+
181.0528	7	C9H10ClN2+
182.0477	1	C8H9ClN3+
187.0977	11	C10H11N4+
196.063	3	C9H11ClN3+
206.0481	4	C10H9ClN3+
223.0742	94	C10H12ClN4+
