Mass spectrum: Ampicillin; LC-ESI-QFT; MS2; CE: 90; R=35000; [M+H]+
Name: Ampicillin
Name: 2-amino-1-methyl-5-propylideneimidazol-4-one
Name: 6-[(2-azaniumyl-2-phenylacetyl)amino]-3,3-dimethyl-7-oxo-4-thia-1-azabicyclo[3.2.0]heptane-2-carboxylate
Formula: C16H19N3O4S
Exact mass: 349.10963
SMILES: CC1(C(N2C(S1)C(C2=O)NC(=O)C(C3=CC=CC=C3)N)C(=O)O)C
InChI: InChI=1S/C16H19N3O4S/c1-16(2)11(15(22)23)19-13(21)10(14(19)24-16)18-12(20)9(17)8-6-4-3-5-7-8/h3-7,9-11,14H,17H2,1-2H3,(H,18,20)(H,22,23)
Instrument: Q Exactive Plus Orbitrap Thermo Scientific
Instrument type: LC-ESI-QFT
Ms type: MS2
Ion mode: POSITIVE
Ionization: ESI
Fragmentation mode: HCD
Collision energy: 90 (nominal)
Resolution: 35000
Column name: XBridge C18 3.5um, 2.1x50mm, Waters
Retention time: 4.7 min
Base peak: 350.1165
Precursor m/z: 350.1169
Precursor type: [M+H]+
m/z	relative intensity	assigned
50.0151	1	C4H2+
51.0229	4	C4H3+
53.0386	48	C4H5+
54.0338	1	C3H4N+
55.0543	16	C4H7+
56.0131	3	C2H2NO+
56.0495	1	C3H6N+
57.9871	4	C2H2S+
58.995	83	C2H3S+
59.9903	3	CH2NS+
62.0059	5	CH4NS+
63.0228	1	C5H3+
65.0386	23	C5H5+
66.0464	9	C5H6+
67.0417	1	C4H5N+
67.0542	7	C5H7+
68.0131	91	C3H2NO+
68.0495	41	C4H6N+
68.9793	4	C3HS+
69.0448	13	C3H5N2+
70.0652	163	C4H8N+
71.0491	7	C4H7O+
72.0807	3	C4H10N+
72.9981	6	C2H3NS+
74.0059	53	C2H4NS+
75.023	1	C6H3+
75.0263	5	C3H7S+
77.0386	23	C6H5+
79.0542	951	C6H7+
80.0494	5	C5H6N+
81.0335	3	C5H5O+
81.0573	3	C5H7N+
82.0652	11	C5H8N+
84.0808	3	C5H10N+
85.0107	12	C4H5S+
85.0397	1	C3H5N2O+
86.0059	213	C3H4NS+
87.0264	164	C4H7S+
89.0386	7	C7H5+
90.0465	37	C7H6+
91.0543	582	C7H7+
93.0574	1	C6H7N+
93.0699	1	C7H9+
94.0652	25	C6H8N+
95.0492	48	C6H7O+
96.0079	1	C4H2NO2+
96.0444	16	C5H6NO+
97.0107	3	C5H5S+
98.0602	4	C5H8NO+
99.0441	4	C5H7O2+
102.0465	1	C8H6+
103.0543	84	C8H7+
104.0494	10	C7H6N+
104.0622	7	C8H8+
105.0336	1	C7H5O+
105.0448	32	C6H5N2+
106.0652	999	C7H8N+
107.0493	1	C7H7O+
109.0109	6	C6H5S+
109.0762	11	C6H9N2+
110.06	5	C6H8NO+
113.0295	4	C5H7NS+
114.0009	124	C4H4NOS+
114.0373	266	C5H8NS+
115.0543	19	C9H7+
116.0496	5	C8H6N+
116.0623	1	C9H8+
117.0574	159	C8H7N+
118.0414	31	C8H6O+
118.0652	281	C8H8N+
119.0493	9	C8H7O+
119.0604	1	C7H7N2+
119.0731	1	C8H9N+
120.0808	6	C8H10N+
121.0108	179	C7H5S+
122.0183	3	C7H6S+
122.0601	5	C7H8NO+
123.0263	9	C7H7S+
126.0372	1	C6H8NS+
128.0495	31	C9H6N+
129.0448	4	C8H5N2+
129.0574	2	C9H7N+
130.0652	58	C9H8N+
131.0494	6	C9H7O+
131.0731	5	C9H9N+
134.0185	1	C8H6S+
135.0263	24	C8H7S+
137.042	15	C8H9S+
137.0711	7	C7H9N2O+
141.0482	1	C6H9N2S+
142.0322	4	C6H8NOS+
142.0657	1	C10H8N+
145.0764	1	C9H9N2+
146.0601	46	C9H8NO+
147.0264	39	C9H7S+
157.0763	3	C10H9N2+
158.0601	1	C10H8NO+
159.068	3	C10H9NO+
160.0426	4	C6H10NO2S+
162.0376	7	C9H8NS+
169.0761	3	C11H9N2+
172.0215	1	C10H6NS+
173.0296	16	C10H7NS+
174.0374	7	C10H8NS+
183.0918	1	C12H11N2+
