Mass spectrum: Chlorothalonil TP SYN548580; LC-ESI-QFT; MS2; CE: 60%; R=15000; [M-H]-
Name: Chlorothalonil TP SYN548580
Name: 2,4,5-trichloro-6-hydroxyisophthalamide
Formula: C8H5Cl3N2O3
Exact mass: 281.9366
SMILES: NC(=O)c1c(O)c(Cl)c(Cl)c(C(=O)N)c1Cl
InChI: InChI=1S/C8H5Cl3N2O3/c9-3-1(7(12)15)4(10)5(11)6(14)2(3)8(13)16/h14H,(H2,12,15)(H2,13,16)
Instrument: Orbitrap Exploris 240 Thermo Scientific
Instrument type: LC-ESI-QFT
Ms type: MS2
Ion mode: NEGATIVE
Ionization: ESI
Fragmentation mode: HCD
Collision energy: 60 % (nominal)
Resolution: 15000
Column name: Atlantis C18 3um, 3.0x150mm, Waters
Retention time: 9.709 min
Base peak: 280.929
Precursor m/z: 280.9293
Precursor type: [M-H]-
Precursor intensity: 50955176
m/z	relative intensity	assigned
65.9985	25	C3NO-
74.0038	8	C5N-
86.0036	8	C6N-
89.9985	18	C5NO-
97.9803	76	C4HClN-
121.9801	201	C6HClN-
122.9641	30	C6ClO-
137.9748	26	C6HClNO-
158.9408	227	C6HCl2O-
165.9697	69	C7HClNO2-
166.9769	7	C7H2ClNO2-
194.9175	999	C6H2Cl3O-
201.9464	49	C7H2Cl2NO2-
219.9126	31	C7HCl3NO-
237.9232	152	C7H3Cl3NO2-
