Mass spectrum: Terbutylazine; LC-ESI-ITFT; MS2; CE: 75%; R=15000; [M+H]+
Name: Terbutylazine
Name: 2-N-tert-butyl-6-chloro-4-N-ethyl-1,3,5-triazine-2,4-diamine
Formula: C9H16ClN5
Exact mass: 229.1089
SMILES: c1(nc(nc(n1)Cl)NCC)NC(C)(C)C
InChI: InChI=1S/C9H16ClN5/c1-5-11-7-12-6(10)13-8(14-7)15-9(2,3)4/h5H2,1-4H3,(H2,11,12,13,14,15)
Instrument: LTQ Orbitrap XL Thermo Scientific
Instrument type: LC-ESI-ITFT
Ms type: MS2
Ion mode: POSITIVE
Ionization: ESI
Fragmentation mode: HCD
Collision energy: 75 % (nominal)
Resolution: 15000
Column name: XBridge C18 3.5um, 2.1x50mm, Waters
Retention time: 10.1 min
Base peak: 230.1168
Precursor m/z: 230.1167
Precursor type: [M+H]+
m/z	relative intensity	assigned
57.0699	19	C4H9+
61.9792	24	CHClN+
68.0244	492	C2H2N3+
71.0604	142	C3H7N2+
79.0058	359	CH4ClN2+
90.0106	12	C3H5ClN+
96.0557	383	C4H6N3+
104.0011	534	C2H3ClN3+
110.0462	45	C3H4N5+
128.0566	6	C3H6N5O+
132.0324	419	C4H7ClN3+
138.0775	124	C5H8N5+
146.0229	373	C3H5ClN5+
172.0387	4	C5H7ClN5+
174.0542	999	C5H9ClN5+
