Mass spectrum: Aliskiren; LC-ESI-QFT; MS2; CE: 45; R=35000; [M-H]-
Name: Aliskiren
Name: (2S,4S,5S,7S)-5-amino-N-(3-amino-2,2-dimethyl-3-oxopropyl)-4-hydroxy-7-[[4-methoxy-3-(3-methoxypropoxy)phenyl]methyl]-8-methyl-2-propan-2-ylnonanamide
Formula: C30H53N3O6
Exact mass: 551.39344
SMILES: COCCCOC1=C(OC)C=CC(C[C@@H](C[C@H](N)[C@@H](O)C[C@@H](C(C)C)C(=O)NCC(C)(C)C(N)=O)C(C)C)=C1
InChI: InChI=1S/C30H53N3O6/c1-19(2)22(14-21-10-11-26(38-8)27(15-21)39-13-9-12-37-7)16-24(31)25(34)17-23(20(3)4)28(35)33-18-30(5,6)29(32)36/h10-11,15,19-20,22-25,34H,9,12-14,16-18,31H2,1-8H3,(H2,32,36)(H,33,35)/t22-,23-,24-,25-/m0/s1
Instrument: Q Exactive Orbitrap Thermo Scientific
Instrument type: LC-ESI-QFT
Ms type: MS2
Ion mode: NEGATIVE
Ionization: ESI
Fragmentation mode: HCD
Collision energy: 45 (nominal)
Resolution: 35000
Column name: XBridge C18 3.5um, 2.1x50mm, Waters
Retention time: 9.6 min
Base peak: 596.3925
Precursor m/z: 550.3862
Precursor type: [M-H]-
m/z	relative intensity	assigned
57.0346	208	C3H5O-
84.0455	88	C4H6NO-
86.0612	999	C4H8NO-
109.0296	4	C6H5O2-
114.0924	39	C6H12NO-
115.0878	593	C5H11N2O-
121.0296	164	C7H5O2-
122.0375	42	C7H6O2-
124.0767	22	C7H10NO-
126.0926	6	C7H12NO-
128.1083	6	C7H14NO-
135.0454	14	C8H7O2-
137.0608	11	C8H9O2-
140.0719	14	C7H10NO2-
141.0671	27	C6H9N2O2-
148.053	3	C9H8O2-
152.108	12	C9H14NO-
168.1394	3	C10H18NO-
177.092	96	C11H13O2-
178.0873	2	C10H12NO2-
181.1349	22	C10H17N2O-
193.1346	6	C11H17N2O-
194.0948	218	C11H14O3-
195.1504	225	C11H19N2O-
207.1505	39	C12H19N2O-
213.161	12	C11H21N2O2-
223.1455	6	C12H19N2O2-
226.0847	74	C11H14O5-
249.1369	4	C14H19NO3-
260.1656	25	C16H22NO2-
271.2071	5	C19H27O-
286.1452	15	C17H20NO3-
286.1945	13	C19H26O2-
299.2012	13	C20H27O2-
301.2174	19	C20H29O2-
303.2209	16	C19H29NO2-
304.1558	41	C17H22NO4-
318.2442	11	C20H32NO2-
329.2002	11	C20H27NO3-
332.2238	19	C20H30NO3-
344.2233	39	C21H30NO3-
347.2104	46	C20H29NO4-
348.2179	5	C20H30NO4-
362.2339	50	C21H32NO4-
402.2396	5	C22H32N3O4-
416.2822	18	C25H38NO4-
442.3081	12	C26H40N3O3-
514.3633	4	C30H48N3O4-
