Mass spectrum: Chlorothalonil TP SYN548580; LC-ESI-QFT; MS2; CE: 45%; R=15000; [M+H]+
Name: Chlorothalonil TP SYN548580
Name: 2,4,5-trichloro-6-hydroxyisophthalamide
Formula: C8H5Cl3N2O3
Exact mass: 281.9366
SMILES: NC(=O)c1c(O)c(Cl)c(Cl)c(C(=O)N)c1Cl
InChI: InChI=1S/C8H5Cl3N2O3/c9-3-1(7(12)15)4(10)5(11)6(14)2(3)8(13)16/h14H,(H2,12,15)(H2,13,16)
Instrument: Orbitrap Exploris 240 Thermo Scientific
Instrument type: LC-ESI-QFT
Ms type: MS2
Ion mode: POSITIVE
Ionization: ESI
Fragmentation mode: HCD
Collision energy: 45 % (nominal)
Resolution: 15000
Column name: Atlantis C18 3um, 3.0x150mm, Waters
Retention time: 9.698 min
Base peak: 132.9582
Precursor m/z: 282.9439
Precursor type: [M+H]+
Precursor intensity: 38424076
m/z	relative intensity	assigned
194.9161	6	C6H2Cl3O+
204.9018	3	C7Cl3O+
221.9287	3	C7H3Cl3NO+
222.9115	156	C7H2Cl3O2+
229.9408	44	C8H2Cl2NO3+
248.8908	257	C8Cl3O3+
265.9173	999	C8H3Cl3NO3+
266.9013	147	
280.9166	9	
282.9437	7	C8H6Cl3N2O3+
283.9276	13	
297.9439	12	
