Mass spectrum: Metribuzin-diketo; LC-ESI-ITFT; MS2; CE: 90%; R=30000; [M+H]+
Name: Metribuzin-diketo
Name: 4-amino-6-tert-butyl-2H-1,2,4-triazine-3,5-dione
Formula: C7H12N4O2
Exact mass: 184.0960
SMILES: O=C(NN=C1C(C)(C)C)N(N)C1=O
InChI: InChI=1S/C7H12N4O2/c1-7(2,3)4-5(12)11(8)6(13)10-9-4/h8H2,1-3H3,(H,10,13)
Instrument: LTQ Orbitrap XL Thermo Scientific
Instrument type: LC-ESI-ITFT
Ms type: MS2
Ion mode: POSITIVE
Ionization: ESI
Fragmentation mode: HCD
Collision energy: 90 % (nominal)
Resolution: 30000
Column name: XBridge C18 3.5um, 2.1x50mm, Waters
Retention time: 5.9 min
Base peak: 185.1036
Precursor m/z: 185.1033
Precursor type: [M+H]+
m/z	relative intensity	assigned
53.0384	33	C4H5+
57.0698	999	C4H9+
59.0239	30	CH3N2O+
65.0384	67	C5H5+
67.0541	137	C5H7+
68.0494	160	C4H6N+
69.0083	302	C2HN2O+
69.0699	122	C5H9+
70.0286	38	C3H4NO+
78.0338	57	C5H4N+
82.065	152	C5H8N+
83.0239	38	C3H3N2O+
83.0604	59	C4H7N2+
83.0729	99	C5H9N+
84.0443	38	C4H6NO+
84.0806	108	C5H10N+
86.0345	32	C2H4N3O+
96.0443	629	C5H6NO+
101.0345	34	C3H5N2O2+
101.0456	84	C2H5N4O+
110.0598	119	C6H8NO+
111.0677	352	C6H9NO+
114.0421	69	C4H6N2O2+
126.0657	39	C5H8N3O+
141.0657	363	C6H9N2O2+
157.1079	145	C6H13N4O+
185.1042	112	C7H13N4O2+
