Mass spectrum: Isoxaben; LC-ESI-QFT; MS2; CE: 75; R=35000; [M+H]+
Name: Isoxaben
Name: 2,6-dimethoxy-N-[3-(3-methylpentan-3-yl)-1,2-oxazol-5-yl]benzamide
Formula: C18H24N2O4
Exact mass: 332.17361
SMILES: CCC(C)(CC)C1=NOC(=C1)NC(=O)C2=C(C=CC=C2OC)OC
InChI: InChI=1S/C18H24N2O4/c1-6-18(3,7-2)14-11-15(24-20-14)19-17(21)16-12(22-4)9-8-10-13(16)23-5/h8-11H,6-7H2,1-5H3,(H,19,21)
Instrument: Q Exactive Plus Orbitrap Thermo Scientific
Instrument type: LC-ESI-QFT
Ms type: MS2
Ion mode: POSITIVE
Ionization: ESI
Fragmentation mode: HCD
Collision energy: 75 (nominal)
Resolution: 35000
Column name: XBridge C18 3.5um, 2.1x50mm, Waters
Retention time: 10.5 min
Base peak: 333.1799
Precursor m/z: 333.1809
Precursor type: [M+H]+
m/z	relative intensity	assigned
50.0151	2	C4H2+
51.0229	3	C4H3+
53.0021	1	C3HO+
53.0386	16	C4H5+
55.0178	3	C3H3O+
57.0698	1	C4H9+
65.0384	3	C5H5+
66.0463	3	C5H6+
67.0542	1	C5H7+
75.0229	12	C6H3+
77.0385	46	C6H5+
78.0463	1	C6H6+
79.0542	79	C6H7+
81.0334	7	C5H5O+
81.0699	8	C6H9+
82.0412	2	C5H6O+
91.0542	5	C7H7+
92.0256	27	C6H4O+
94.0413	12	C6H6O+
95.0491	52	C6H7O+
105.0334	24	C7H5O+
105.0447	33	C6H5N2+
107.0127	247	C6H3O2+
107.0491	51	C7H7O+
109.0647	35	C7H9O+
120.0206	13	C7H4O2+
121.0284	7	C7H5O2+
122.0362	564	C7H6O2+
123.044	1	C7H7O2+
125.0233	2	C6H5O3+
125.0597	19	C7H9O2+
133.0285	1	C8H5O2+
135.044	62	C8H7O2+
135.055	12	C7H7N2O+
137.0597	10	C8H9O2+
150.0311	870	C8H6O3+
165.0546	999	C9H9O3+
168.0416	186	C8H8O4+
182.0574	7	C9H10O4+
