Mass spectrum: Carbendazim; LC-ESI-QFT; MS2; CE: 120; R=35000; [M+H]+
Name: Carbendazim
Name: N-(1H-benzimidazol-2-yl)carbamic acid methyl ester
Formula: C9H9N3O2
Exact mass: 191.06948
SMILES: c12c(cccc1)N=C(NC(OC)=O)N2
InChI: InChI=1S/C9H9N3O2/c1-14-9(13)12-8-10-6-4-2-3-5-7(6)11-8/h2-5H,1H3,(H2,10,11,12,13)
Instrument: Q Exactive Plus Orbitrap Thermo Scientific
Instrument type: LC-ESI-QFT
Ms type: MS2
Ion mode: POSITIVE
Ionization: ESI
Fragmentation mode: HCD
Collision energy: 120 (nominal)
Resolution: 35000
Column name: XBridge C18 3.5um, 2.1x50mm, Waters
Retention time: 3.2 min
Base peak: 192.0767
Precursor m/z: 192.0768
Precursor type: [M+H]+
m/z	relative intensity	assigned
50.0151	4	C4H2+
51.0229	2	C4H3+
52.018	1	C3H2N+
53.0022	2	C3HO+
53.0386	4	C4H5+
62.015	1	C5H2+
63.023	41	C5H3+
64.0182	17	C4H2N+
65.0386	676	C5H5+
66.0338	1	C4H4N+
78.0338	52	C5H4N+
79.0416	25	C5H5N+
80.0494	30	C5H6N+
81.0335	28	C5H5O+
90.0339	535	C6H4N+
91.0416	9	C6H5N+
92.0495	433	C6H6N+
93.0575	4	C6H7N+
95.0365	2	C5H5NO+
95.0493	1	C6H7O+
96.0444	12	C5H6NO+
97.0521	2	C5H7NO+
104.037	3	C6H4N2+
105.0448	999	C6H5N2+
106.0287	16	C6H4NO+
106.0526	57	C6H6N2+
107.0604	10	C6H7N2+
108.0444	6	C6H6NO+
110.0601	3	C6H8NO+
117.0448	40	C7H5N2+
118.0525	21	C7H6N2+
119.0365	2	C7H5NO+
131.0478	8	C7H5N3+
132.0557	748	C7H6N3+
133.0397	13	C7H5N2O+
133.0635	69	C7H7N3+
134.0711	4	C7H8N3+
135.0553	200	C7H7N2O+
159.0428	9	C8H5N3O+
160.0506	414	C8H6N3O+
