Mass spectrum: Ampicillin; LC-ESI-QFT; MS2; CE: 15; R=35000; [M+H]+
Name: Ampicillin
Name: 2-amino-1-methyl-5-propylideneimidazol-4-one
Name: 6-[(2-azaniumyl-2-phenylacetyl)amino]-3,3-dimethyl-7-oxo-4-thia-1-azabicyclo[3.2.0]heptane-2-carboxylate
Formula: C16H19N3O4S
Exact mass: 349.10963
SMILES: CC1(C(N2C(S1)C(C2=O)NC(=O)C(C3=CC=CC=C3)N)C(=O)O)C
InChI: InChI=1S/C16H19N3O4S/c1-16(2)11(15(22)23)19-13(21)10(14(19)24-16)18-12(20)9(17)8-6-4-3-5-7-8/h3-7,9-11,14H,17H2,1-2H3,(H,18,20)(H,22,23)
Instrument: Q Exactive Plus Orbitrap Thermo Scientific
Instrument type: LC-ESI-QFT
Ms type: MS2
Ion mode: POSITIVE
Ionization: ESI
Fragmentation mode: HCD
Collision energy: 15 (nominal)
Resolution: 35000
Column name: XBridge C18 3.5um, 2.1x50mm, Waters
Retention time: 4.7 min
Base peak: 350.1165
Precursor m/z: 350.1169
Precursor type: [M+H]+
m/z	relative intensity	assigned
70.0651	15	C4H8N+
79.0543	1	C6H7+
91.0543	1	C7H7+
96.0444	1	C5H6NO+
106.0652	999	C7H8N+
114.0006	3	C4H4NOS+
114.0372	1	C5H8NS+
116.0704	3	C5H10NO2+
142.0501	4	C6H8NO3+
146.06	1	C9H8NO+
160.0428	442	C6H10NO2S+
163.0868	2	C9H11N2O+
164.0529	12	C9H10NS+
174.0551	358	C10H8NO2+
187.0535	1	C7H11N2O2S+
188.0614	3	C7H12N2O2S+
191.0816	77	C10H11N2O2+
192.0479	345	C10H10NOS+
193.0609	4	C9H9N2O3+
200.1077	3	C7H20O4S+
211.0715	43	C9H11N2O4+
215.0485	5	C8H11N2O3S+
218.0272	17	C11H8NO2S+
259.0906	1	C14H15N2OS+
261.1056	8	C14H17N2OS+
277.1007	1	C14H17N2O2S+
287.085	5	C15H15N2O2S+
289.1006	13	C15H17N2O2S+
305.0957	39	C15H17N2O3S+
315.0795	4	C16H15N2O3S+
333.0906	100	C16H17N2O4S+
350.1171	930	C16H20N3O4S+
