Mass spectrum: Pyrimidifen; LC-ESI-QFT; MS2; CE: 120%; R=17500; [M+H]+
Name: Pyrimidifen
Name: 5-chloro-N-[2-[4-(2-ethoxyethyl)-2,3-dimethylphenoxy]ethyl]-6-ethylpyrimidin-4-amine
Formula: C20H28ClN3O2
Exact mass: 377.1870
SMILES: CCC1=C(C(=NC=N1)NCCOC2=C(C(=C(C=C2)CCOCC)C)C)Cl
InChI: InChI=1S/C20H28ClN3O2/c1-5-17-19(21)20(24-13-23-17)22-10-12-26-18-8-7-16(9-11-25-6-2)14(3)15(18)4/h7-8,13H,5-6,9-12H2,1-4H3,(H,22,23,24)
Instrument: Exploris 240 Orbitrap Thermo Scientific
Instrument type: LC-ESI-QFT
Ms type: MS2
Ion mode: POSITIVE
Ionization: ESI
Fragmentation mode: HCD
Collision energy: 120 % (nominal)
Resolution: 17500
Column name: XBridge C18 3.5um, 2.1x50mm, Waters
Retention time: 11.376 min
Base peak: 378.1939
Precursor m/z: 378.1943
Precursor type: [M+H]+
m/z	relative intensity	assigned
51.023	16	C4H3+
53.0385	21	C4H5+
54.0338	32	C3H4N+
56.0495	56	C3H6N+
67.0291	17	C3H3N2+
67.0419	15	C4H5N+
68.0496	39	C4H6N+
74.9871	16	C2H2ClN+
77.0386	12	C6H5+
78.0341	27	C5H4N+
80.0496	33	C5H6N+
81.0447	64	C4H5N2+
85.9793	40	C3HClN+
86.9996	57	C4H4Cl+
90.0105	42	C3H5ClN+
91.0544	26	C7H7+
93.0448	24	C5H5N2+
94.0398	13	C4H4N3+
95.0604	143	C5H7N2+
103.0184	29	C4H6ClN+
107.0609	35	C6H7N2+
114.0105	14	C5H5ClN+
115.0058	999	C4H4ClN2+
116.0139	13	C4H5ClN2+
121.0763	17	C7H9N2+
122.0715	36	C6H8N3+
129.0212	49	C5H6ClN2+
130.0293	188	C5H7ClN2+
133.0635	40	C7H7N3+
134.0713	231	C7H8N3+
135.0791	336	C7H9N3+
141.0214	49	C6H6ClN2+
142.0294	94	C6H7ClN2+
143.0244	26	C5H6ClN3+
148.0872	33	C8H10N3+
150.1026	176	C8H12N3+
157.0531	22	C7H10ClN2+
169.0402	173	C7H8ClN3+
