Mass spectrum: Oxacillin; LC-ESI-QFT; MS2; CE: 75; R=35000; [M-H]-
Name: Oxacillin
Name: (2S,5R,6R)-3,3-dimethyl-6-[(5-methyl-3-phenyl-1,2-oxazole-4-carbonyl)amino]-7-oxo-4-thia-1-azabicyclo[3.2.0]heptane-2-carboxylic acid
Formula: C19H19N3O5S
Exact mass: 401.10454
SMILES: CC1=C(C(=O)N[C@H]2[C@H]3SC(C)(C)[C@@H](N3C2=O)C(O)=O)C(=NO1)C1=CC=CC=C1
InChI: InChI=1S/C19H19N3O5S/c1-9-11(12(21-27-9)10-7-5-4-6-8-10)15(23)20-13-16(24)22-14(18(25)26)19(2,3)28-17(13)22/h4-8,13-14,17H,1-3H3,(H,20,23)(H,25,26)/t13-,14+,17-/m1/s1
Instrument: Q Exactive Plus Orbitrap Thermo Scientific
Instrument type: LC-ESI-QFT
Ms type: MS2
Ion mode: NEGATIVE
Ionization: ESI
Fragmentation mode: HCD
Collision energy: 75 (nominal)
Resolution: 35000
Column name: XBridge C18 3.5um, 2.1x50mm, Waters
Retention time: 8.4 min
Base peak: 400.097
Precursor m/z: 400.0973
Precursor type: [M-H]-
m/z	relative intensity	assigned
56.9805	17	C2HS-
57.9757	255	CNS-
58.0298	101	C2H4NO-
58.9961	212	C2H3S-
60.9754	13	CHOS-
65.0144	10	C3HN2-
65.9986	493	C3NO-
69.9756	9	C2NS-
70.9836	523	C2HNS-
71.9915	378	C2H2NS-
72.9993	496	C2H3NS-
74.0071	15	C2H4NS-
74.9911	999	C2H3OS-
82.0299	805	C4H4NO-
83.0139	962	C4H3O2-
83.9914	17	C3H2NS-
85.0118	15	C4H5S-
94.0298	51	C5H4NO-
96.0094	11	C4H2NO2-
99.9863	145	C3H2NOS-
101.0397	70	C8H5-
102.0349	18	C7H4N-
106.0173	31	C5H2N2O-
107.0251	33	C5H3N2O-
111.9864	9	C4H2NOS-
112.9941	37	C4H3NOS-
114.0019	17	C4H4NOS-
115.0558	8	C9H7-
116.0506	81	C8H6N-
117.0348	8	C8H5O-
120.0328	10	C6H4N2O-
122.0247	9	C6H4NO2-
133.0119	33	C8H5S-
140.0507	52	C10H6N-
141.0345	11	C10H5O-
141.0456	10	C9H5N2-
142.0661	94	C10H8N-
143.0614	235	C9H7N2-
144.0455	116	C9H6NO-
146.0197	14	C9H6S-
147.0277	34	C9H7S-
156.0694	10	C10H8N2-
158.0612	44	C10H8NO-
159.0563	49	C9H7N2O-
161.0183	9	C8H5N2S-
169.0411	107	C10H5N2O-
171.0565	61	C10H7N2O-
172.0228	107	C10H6NS-
173.0304	259	C10H7NS-
174.0383	121	C10H8NS-
182.0485	27	C11H6N2O-
182.0611	224	C12H8NO-
183.0564	79	C11H7N2O-
184.0405	145	C11H6NO2-
184.0642	119	C11H8N2O-
185.072	86	C11H9N2O-
197.0719	9	C12H9N2O-
198.056	9	C12H8NO2-
199.0514	70	C11H7N2O2-
200.0594	14	C11H8N2O2-
201.067	96	C11H9N2O2-
208.0637	18	C13H8N2O-
211.0514	13	C12H7N2O2-
215.0285	45	C11H7N2OS-
216.0365	14	C11H8N2OS-
216.0543	52	C11H8N2O3-
225.0671	581	C13H9N2O2-
227.0824	13	C13H11N2O2-
