Mass spectrum: Cyclamate; LC-ESI-ITFT; MS2; CE: 45%; R=15000; [M-H]-
Name: Cyclamate
Name: Cyclohexylsulfamic acid
Name: Cyclohexanesulfamic acid
Formula: C6H13NO3S
Exact mass: 179.0616
SMILES: C1(CCCCC1)NS(O)(=O)=O
InChI: InChI=1S/C6H13NO3S/c8-11(9,10)7-6-4-2-1-3-5-6/h6-7H,1-5H2,(H,8,9,10)
Instrument: LTQ Orbitrap XL Thermo Scientific
Instrument type: LC-ESI-ITFT
Ms type: MS2
Ion mode: NEGATIVE
Ionization: ESI
Fragmentation mode: HCD
Collision energy: 45 % (nominal)
Resolution: 15000
Column name: XBridge C18 3.5um, 2.1x50mm, Waters
Retention time: 3.4 min
Base peak: 178.0547
Precursor m/z: 178.0543
Precursor type: [M-H]-
m/z	relative intensity	assigned
79.9573	24	O3S-
178.0545	999	C6H12NO3S-
