Mass spectrum: Thiophanate; LC-ESI-QFT; MS2; CE: 120%; R=17500; [M+H]+
Name: Thiophanate
Name: CID 31991
Name: N`-ethoxycarbonyl-N-[2-[(N-ethoxycarbonyl-C-sulfanylcarbonimidoyl)amino]phenyl]carbamimidothioic acid
Formula: C14H18N4O4S2
Exact mass: 370.0769
SMILES: CCOC(=O)NC(=S)NC1=CC=CC=C1NC(=S)NC(=O)OCC
InChI: InChI=1S/C14H18N4O4S2/c1-3-21-13(19)17-11(23)15-9-7-5-6-8-10(9)16-12(24)18-14(20)22-4-2/h5-8H,3-4H2,1-2H3,(H2,15,17,19,23)(H2,16,18,20,24)
Instrument: Exploris 240 Orbitrap Thermo Scientific
Instrument type: LC-ESI-QFT
Ms type: MS2
Ion mode: POSITIVE
Ionization: ESI
Fragmentation mode: HCD
Collision energy: 120 % (nominal)
Resolution: 17500
Column name: XBridge C18 3.5um, 2.1x50mm, Waters
Retention time: 7.280 min
Base peak: 295.0398
Precursor m/z: 371.0842
Precursor type: [M+H]+
m/z	relative intensity	assigned
57.9745	23	CNS+
59.9903	771	CH2NS+
62.0237	154	CH4NO2+
65.0386	551	C5H5+
66.0466	42	C5H6+
80.0493	76	C5H6N+
85.9695	364	C2NOS+
90.0341	50	C6H4N+
91.0418	77	C6H5N+
92.0495	492	C6H6N+
93.0573	999	C6H7N+
103.9799	20	C2H2NO2S+
105.0451	40	C6H5N2+
107.0605	42	C6H7N2+
118.0526	655	C7H6N2+
119.0607	127	C7H7N2+
122.006	156	C6H4NS+
124.0216	28	C6H6NS+
132.0555	24	C7H6N3+
134.0716	49	C7H8N3+
149.0174	64	C7H5N2S+
151.0322	164	C7H7N2S+
160.0507	25	C8H6N3O+
