Mass spectrum: Pirimicarb; LC-ESI-ITFT; MS2; CE: 60%; R=15000; [M+H]+
Name: Pirimicarb
Name: N,N-dimethylcarbamic acid [2-(dimethylamino)-5,6-dimethyl-4-pyrimidinyl] ester
Formula: C11H18N4O2
Exact mass: 238.1430
SMILES: n(c(c(C)c1OC(=O)N(C)C)C)c(n1)N(C)C
InChI: InChI=1S/C11H18N4O2/c1-7-8(2)12-10(14(3)4)13-9(7)17-11(16)15(5)6/h1-6H3
Instrument: LTQ Orbitrap XL Thermo Scientific
Instrument type: LC-ESI-ITFT
Ms type: MS2
Ion mode: POSITIVE
Ionization: ESI
Fragmentation mode: HCD
Collision energy: 60 % (nominal)
Resolution: 15000
Column name: XBridge C18 3.5um, 2.1x50mm, Waters
Retention time: 5.0 min
Base peak: 239.1506
Precursor m/z: 239.1503
Precursor type: [M+H]+
m/z	relative intensity	assigned
56.0131	1	C2H2NO+
58.0651	1	C3H8N+
72.0444	999	C3H6NO+
83.024	17	C3H3N2O+
85.076	84	C4H9N2+
109.076	45	C6H9N2+
137.0709	62	C7H9N2O+
138.0787	20	C7H10N2O+
150.1025	41	C8H12N3+
152.0818	7	C7H10N3O+
166.0971	2	C8H12N3O+
167.1053	25	C8H13N3O+
168.1135	2	C8H14N3O+
180.1131	3	C9H14N3O+
182.1289	414	C9H16N3O+
195.1601	14	C10H19N4+
239.1514	3	C11H19N4O2+
