Mass spectrum: Varenicline; LC-ESI-QFT; MS2; CE: 60; R=35000; [M+H]+
Name: Varenicline
Name: 7,8,9,10-tetrahydro-6h-6,10-methanoazepino[4,5-g]quinoxaline
Name: 7,8,9,10-tetrahydro-6,10-Methano-6H-pyrazino[2,3-h][3]benzazepine
Formula: C13H13N3
Exact mass: 211.11095
SMILES: C1C2CNCC1C3=CC4=NC=CN=C4C=C23
InChI: InChI=1S/C13H13N3/c1-2-16-13-5-11-9-3-8(6-14-7-9)10(11)4-12(13)15-1/h1-2,4-5,8-9,14H,3,6-7H2
Instrument: Q Exactive Plus Orbitrap Thermo Scientific
Instrument type: LC-ESI-QFT
Ms type: MS2
Ion mode: POSITIVE
Ionization: ESI
Fragmentation mode: HCD
Collision energy: 60 (nominal)
Resolution: 35000
Column name: XBridge C18 3.5um, 2.1x50mm, Waters
Retention time: 2.7 min
Base peak: 212.118
Precursor m/z: 212.1182
Precursor type: [M+H]+
m/z	relative intensity	assigned
68.0495	1	C4H6N+
115.054	1	C9H7+
141.0698	6	C11H9+
143.0604	3	C9H7N2+
154.0652	2	C11H8N+
156.0806	4	C11H10N+
157.076	2	C10H9N2+
159.0805	3	C11H11O+
167.0601	3	C11H7N2+
167.0725	1	C12H9N+
168.0683	118	C11H8N2+
168.0803	36	C12H10N+
169.076	962	C11H9N2+
170.084	12	C11H10N2+
171.0917	37	C11H11N2+
180.0683	33	C12H8N2+
181.076	42	C12H9N2+
182.0841	8	C12H10N2+
183.0917	668	C12H11N2+
193.0757	4	C13H9N2+
194.084	4	C13H10N2+
195.0918	247	C13H11N2+
212.1183	999	C13H14N3+
