Mass spectrum: Simvastatin; LC-ESI-QFT; MS2; CE: 90; R=35000; [M+H]+
Name: Simvastatin
Name: (1S,3R,7S,8S,8aR)-8-{2-[(2R,4R)-4-hydroxy-6-oxotetrahydro-2H-pyran-2-yl]ethyl}-3,7-dimethyl-1,2,3,7,8,8a-hexahydronaphthalen-1-yl 2,2-dimethylbutanoate
Name: 2,2-dimethylbutanoic acid [(1S,3R,7S,8S,8aR)-8-[2-[(2R,4R)-4-hydroxy-6-oxo-2-oxanyl]ethyl]-3,7-dimethyl-1,2,3,7,8,8a-hexahydronaphthalen-1-yl] ester
Formula: C25H38O5
Exact mass: 418.27192
SMILES: O=C(O[C@@H]1[C@H]3C(=C/[C@H](C)C1)\C=C/[C@@H]([C@@H]3CC[C@H]2OC(=O)C[C@H](O)C2)C)C(C)(C)CC
InChI: InChI=1S/C25H38O5/c1-6-25(4,5)24(28)30-21-12-15(2)11-17-8-7-16(3)20(23(17)21)10-9-19-13-18(26)14-22(27)29-19/h7-8,11,15-16,18-21,23,26H,6,9-10,12-14H2,1-5H3/t15-,16-,18+,19+,20-,21-,23-/m0/s1
Instrument: Q Exactive Orbitrap Thermo Scientific
Instrument type: LC-ESI-QFT
Ms type: MS2
Ion mode: POSITIVE
Ionization: ESI
Fragmentation mode: HCD
Collision energy: 90 (nominal)
Resolution: 35000
Column name: XBridge C18 3.5um, 2.1x50mm, Waters
Retention time: 16.0 min
Base peak: 436.3049
Precursor m/z: 419.2792
Precursor type: [M+H]+
m/z	relative intensity	assigned
65.0384	34	C5H5+
67.0541	132	C5H7+
68.997	27	C3HO2+
69.0334	7	C4H5O+
69.0697	37	C5H9+
71.0125	17	C3H3O2+
71.049	14	C4H7O+
71.0854	5	C5H11+
77.0385	33	C6H5+
79.0541	387	C6H7+
81.0697	285	C6H9+
83.049	70	C5H7O+
85.0647	6	C5H9O+
91.054	518	C7H7+
93.0697	152	C7H9+
95.0489	100	C6H7O+
95.0854	42	C7H11+
97.0647	16	C6H9O+
103.0541	49	C8H7+
105.0446	50	C6H5N2+
105.0697	561	C8H9+
107.0854	50	C8H11+
109.0646	25	C7H9O+
109.1011	12	C8H13+
115.0539	157	C9H7+
116.0617	75	C9H8+
117.0696	203	C9H9+
118.0775	6	C9H10+
119.0853	243	C9H11+
121.0645	4	C8H9O+
121.1009	8	C9H13+
128.0618	620	C10H8+
129.0696	416	C10H9+
130.0775	132	C10H10+
131.0853	386	C10H11+
133.101	39	C10H13+
141.0696	309	C11H9+
142.0776	390	C11H10+
143.0854	999	C11H11+
144.0931	153	C11H12+
145.0645	39	C10H9O+
145.101	242	C11H13+
147.0804	3	C10H11O+
153.0696	107	C12H9+
154.0774	130	C12H10+
155.0602	46	C10H7N2+
155.0853	284	C12H11+
156.0931	177	C12H12+
157.1009	161	C12H13+
158.1088	140	C12H14+
159.1166	86	C12H15+
165.0696	56	C13H9+
166.0775	38	C13H10+
167.0853	91	C13H11+
168.0931	122	C13H12+
169.1009	248	C13H13+
170.1085	26	C13H14+
171.1166	69	C13H15+
173.1322	63	C13H17+
178.0773	28	C14H10+
179.0852	35	C14H11+
180.093	19	C14H12+
181.1009	86	C14H13+
182.1089	33	C14H14+
183.1166	78	C14H15+
184.1244	12	C14H16+
191.0851	20	C15H11+
192.0933	26	C15H12+
193.101	52	C15H13+
194.1087	6	C15H14+
195.1165	57	C15H15+
196.1243	6	C15H16+
197.1324	26	C15H17+
198.1397	3	C15H18+
199.1482	13	C15H19+
205.1011	17	C16H13+
207.1168	14	C16H15+
208.1246	5	C16H16+
210.1398	13	C16H18+
219.1166	17	C17H15+
225.1637	5	C17H21+
