Mass spectrum: Nortriptyline; LC-ESI-QFT; MS2; CE: 120; R=35000; [M+H]+
Name: Nortriptyline
Name: 3-(5,6-dihydrodibenzo[2,1-b:2`,1`-f][7]annulen-11-ylidene)-N-methylpropan-1-amine
Formula: C19H21N
Exact mass: 263.16740
SMILES: CNCCC=C1C2=CC=CC=C2CCC3=CC=CC=C31
InChI: InChI=1S/C19H21N/c1-20-14-6-11-19-17-9-4-2-7-15(17)12-13-16-8-3-5-10-18(16)19/h2-5,7-11,20H,6,12-14H2,1H3
Instrument: Q Exactive Plus Orbitrap Thermo Scientific
Instrument type: LC-ESI-QFT
Ms type: MS2
Ion mode: POSITIVE
Ionization: ESI
Fragmentation mode: HCD
Collision energy: 120 (nominal)
Resolution: 35000
Column name: XBridge C18 3.5um, 2.1x50mm, Waters
Retention time: 8.5 min
Base peak: 264.1741
Precursor m/z: 264.1747
Precursor type: [M+H]+
m/z	relative intensity	assigned
50.0151	14	C4H2+
51.0229	13	C4H3+
53.0386	49	C4H5+
54.0339	8	C3H4N+
55.0178	3	C3H3O+
55.0417	5	C3H5N+
55.0542	3	C4H7+
56.0495	7	C3H6N+
63.0229	14	C5H3+
65.0386	306	C5H5+
67.0542	1	C5H7+
68.0494	1	C4H6N+
70.0651	69	C4H8N+
75.0228	1	C6H3+
77.0385	101	C6H5+
78.0464	3	C6H6+
79.0542	150	C6H7+
81.0335	5	C5H5O+
89.0386	20	C7H5+
91.0542	999	C7H7+
94.0413	1	C6H6O+
95.0491	133	C6H7O+
101.0386	1	C8H5+
102.0464	14	C8H6+
103.0542	131	C8H7+
104.062	1	C8H8+
105.0447	101	C6H5N2+
105.0699	80	C8H9+
114.0464	3	C9H6+
115.0542	594	C9H7+
116.062	23	C9H8+
117.0699	92	C9H9+
126.0464	18	C10H6+
127.0542	52	C10H7+
128.062	307	C10H8+
129.0446	5	C8H5N2+
129.0698	39	C10H9+
139.0541	12	C11H7+
140.0621	1	C11H8+
141.0699	66	C11H9+
143.0734	1	C10H9N+
144.0808	1	C10H10N+
145.0648	29	C10H9O+
150.0461	3	C12H6+
151.0542	4	C12H7+
152.0621	120	C12H8+
153.0699	50	C12H9+
154.0777	8	C12H10+
155.0603	90	C10H7N2+
158.0966	1	C11H12N+
163.0546	5	C13H7+
164.062	12	C13H8+
165.0699	224	C13H9+
166.0774	1	C13H10+
168.057	1	C12H8O+
169.0647	8	C12H9O+
176.0621	41	C14H8+
177.0699	44	C14H9+
178.0777	402	C14H10+
179.0602	1	C12H7N2+
179.0855	9	C14H11+
187.0538	3	C15H7+
188.062	5	C15H8+
189.0699	439	C15H9+
190.0777	115	C15H10+
191.0855	156	C15H11+
192.0932	4	C15H12+
200.0616	7	C16H8+
201.0697	16	C16H9+
202.0777	826	C16H10+
203.0855	207	C16H11+
204.0935	20	C16H12+
205.0648	1	C15H9O+
213.0701	1	C17H9+
215.0856	199	C17H11+
216.0933	35	C17H12+
217.1013	39	C17H13+
219.0806	7	C16H11O+
228.0931	2	C18H12+
229.0761	4	C16H9N2+
