Mass spectrum: Pargyline; LC-ESI-QFT; MS2; CE: 90; R=35000; [M+H]+
Name: Pargyline
Name: N-benzyl-N-methylprop-2-yn-1-amine
Name: N-Methyl-N-propargylbenzylamine
Formula: C11H13N
Exact mass: 159.10480
SMILES: C#CCN(C)Cc1ccccc1
InChI: InChI=1S/C11H13N/c1-3-9-12(2)10-11-7-5-4-6-8-11/h1,4-8H,9-10H2,2H3
Instrument: Q Exactive Orbitrap Thermo Scientific
Instrument type: LC-ESI-QFT
Ms type: MS2
Ion mode: POSITIVE
Ionization: ESI
Fragmentation mode: HCD
Collision energy: 90 (nominal)
Resolution: 35000
Column name: XBridge C18 3.5um, 2.1x50mm, Waters
Retention time: 2.8 min
Base peak: 160.1122
Precursor m/z: 160.1121
Precursor type: [M+H]+
m/z	relative intensity	assigned
63.0228	1	C5H3+
65.0386	56	C5H5+
68.0495	4	C4H6N+
91.0543	999	C7H7+
128.0621	8	C10H8+
129.0698	2	C10H9+
130.0651	1	C9H8N+
144.0808	3	C10H10N+
145.0649	1	C10H9O+
155.0605	1	C10H7N2+
