Mass spectrum: Simvastatin; LC-ESI-QFT; MS2; CE: 30; R=35000; [M+H]+
Name: Simvastatin
Name: (1S,3R,7S,8S,8aR)-8-{2-[(2R,4R)-4-hydroxy-6-oxotetrahydro-2H-pyran-2-yl]ethyl}-3,7-dimethyl-1,2,3,7,8,8a-hexahydronaphthalen-1-yl 2,2-dimethylbutanoate
Name: 2,2-dimethylbutanoic acid [(1S,3R,7S,8S,8aR)-8-[2-[(2R,4R)-4-hydroxy-6-oxo-2-oxanyl]ethyl]-3,7-dimethyl-1,2,3,7,8,8a-hexahydronaphthalen-1-yl] ester
Formula: C25H38O5
Exact mass: 418.27192
SMILES: O=C(O[C@@H]1[C@H]3C(=C/[C@H](C)C1)\C=C/[C@@H]([C@@H]3CC[C@H]2OC(=O)C[C@H](O)C2)C)C(C)(C)CC
InChI: InChI=1S/C25H38O5/c1-6-25(4,5)24(28)30-21-12-15(2)11-17-8-7-16(3)20(23(17)21)10-9-19-13-18(26)14-22(27)29-19/h7-8,11,15-16,18-21,23,26H,6,9-10,12-14H2,1-5H3/t15-,16-,18+,19+,20-,21-,23-/m0/s1
Instrument: Q Exactive Orbitrap Thermo Scientific
Instrument type: LC-ESI-QFT
Ms type: MS2
Ion mode: POSITIVE
Ionization: ESI
Fragmentation mode: HCD
Collision energy: 30 (nominal)
Resolution: 35000
Column name: XBridge C18 3.5um, 2.1x50mm, Waters
Retention time: 16.0 min
Base peak: 436.3049
Precursor m/z: 419.2792
Precursor type: [M+H]+
m/z	relative intensity	assigned
67.0542	8	C5H7+
69.0697	19	C5H9+
71.0127	2	C3H3O2+
71.0491	7	C4H7O+
71.0854	14	C5H11+
79.0541	98	C6H7+
81.0698	82	C6H9+
83.049	43	C5H7O+
83.0854	8	C6H11+
85.0647	21	C5H9O+
89.0232	12	C3H5O3+
91.0541	3	C7H7+
93.0697	27	C7H9+
95.0854	23	C7H11+
97.0647	55	C6H9O+
99.0804	2	C6H11O+
101.0597	2	C5H9O2+
105.0697	55	C8H9+
107.049	20	C7H7O+
107.0854	89	C8H11+
109.0646	7	C7H9O+
109.101	16	C8H13+
111.0802	9	C7H11O+
117.0696	3	C9H9+
119.0853	36	C9H11+
121.1009	35	C9H13+
123.08	1	C8H11O+
125.0595	30	C7H9O2+
127.0752	11	C7H11O2+
129.0699	3	C10H9+
131.0854	59	C10H11+
133.101	36	C10H13+
135.0799	2	C9H11O+
135.1167	8	C10H15+
141.0696	6	C11H9+
142.0776	2	C11H10+
143.0702	36	C7H11O3+
143.0854	77	C11H11+
145.101	105	C11H13+
147.0804	2	C10H11O+
147.1166	21	C11H15+
149.0958	3	C10H13O+
151.0752	15	C9H11O2+
155.0852	23	C12H11+
156.0928	2	C12H12+
157.101	100	C12H13+
158.1088	7	C12H14+
159.1166	159	C12H15+
161.132	13	C12H17+
163.075	2	C10H11O2+
163.1115	8	C11H15O+
165.0908	12	C10H13O2+
168.0934	1	C13H12+
169.1009	110	C13H13+
171.1166	150	C13H15+
173.1322	600	C13H17+
177.0907	7	C11H13O2+
181.1012	15	C14H13+
183.1167	66	C14H15+
185.1323	38	C14H17+
187.1115	9	C13H15O+
189.0908	9	C12H13O2+
191.1064	59	C12H15O2+
193.1009	11	C15H13+
195.1169	9	C15H15+
197.1322	65	C15H17+
199.1478	999	C15H19+
201.1635	205	C15H21+
203.1061	10	C13H15O2+
205.1223	22	C13H17O2+
207.1165	27	C16H15+
209.1172	8	C12H17O3+
209.1319	7	C16H17+
211.1113	17	C15H15O+
211.1479	41	C16H19+
213.1639	8	C16H21+
215.1069	2	C14H15O2+
215.1792	35	C16H23+
217.122	3	C14H17O2+
220.1244	4	C17H16+
221.1324	9	C17H17+
223.1478	122	C17H19+
225.1634	611	C17H21+
229.1218	30	C15H17O2+
234.1403	6	C18H18+
239.1435	15	C17H19O+
239.1791	145	C18H23+
241.1584	3	C17H21O+
243.1741	321	C17H23O+
249.1635	177	C19H21+
257.1535	2	C17H21O2+
267.1742	143	C19H23O+
285.1846	160	C19H25O2+
303.1948	37	C19H27O3+
