Mass spectrum: Propranolol; LC-ESI-QFT; MS2; CE: 75; R=35000; [M+H]+
Name: Propranolol
Name: 1-(1-naphthalenyloxy)-3-(propan-2-ylamino)-2-propanol
Formula: C16H21NO2
Exact mass: 259.15723
SMILES: CC(C)NCC(COC1=CC=CC2=CC=CC=C21)O
InChI: InChI=1S/C16H21NO2/c1-12(2)17-10-14(18)11-19-16-9-5-7-13-6-3-4-8-15(13)16/h3-9,12,14,17-18H,10-11H2,1-2H3
Instrument: Q Exactive Orbitrap Thermo Scientific
Instrument type: LC-ESI-QFT
Ms type: MS2
Ion mode: POSITIVE
Ionization: ESI
Fragmentation mode: HCD
Collision energy: 75 (nominal)
Resolution: 35000
Column name: XBridge C18 3.5um, 2.1x50mm, Waters
Retention time: 6.6 min
Base peak: 260.1646
Precursor m/z: 260.1645
Precursor type: [M+H]+
m/z	relative intensity	assigned
53.0023	8	C3HO+
56.0496	721	C3H6N+
58.0652	812	C3H8N+
60.0808	7	C3H10N+
71.0729	5	C4H9N+
72.0808	733	C4H10N+
74.06	999	C3H8NO+
84.0808	89	C5H10N+
86.0964	9	C5H12N+
91.0542	9	C7H7+
95.0491	12	C6H7O+
98.0964	206	C6H12N+
100.1121	265	C6H14N+
103.0543	9	C8H7+
115.0542	182	C9H7+
116.107	353	C6H14NO+
117.0699	42	C9H9+
127.0541	19	C10H7+
128.062	140	C10H8+
129.0699	649	C10H9+
141.0698	135	C11H9+
143.0493	30	C10H7O+
144.057	18	C10H8O+
145.0648	280	C10H9O+
152.062	9	C12H8+
153.0699	327	C12H9+
154.0777	109	C12H10+
155.0604	130	C10H7N2+
155.0855	985	C12H11+
157.0648	390	C11H9O+
165.0699	346	C13H9+
168.0569	124	C12H8O+
171.0804	22	C12H11O+
181.0646	8	C13H9O+
182.0727	18	C13H10O+
183.0805	152	C13H11O+
