Mass spectrum: Niflumic acid; LC-ESI-QFT; MS2; CE: 60; R=35000; [M-H]-
Name: Niflumic acid
Name: 2-[3-(trifluoromethyl)anilino]pyridine-3-carboxylic acid
Formula: C13H9F3N2O2
Exact mass: 282.06161
SMILES: C1=CC(=CC(=C1)NC2=C(C=CC=N2)C(=O)O)C(F)(F)F
InChI: InChI=1S/C13H9F3N2O2/c14-13(15,16)8-3-1-4-9(7-8)18-11-10(12(19)20)5-2-6-17-11/h1-7H,(H,17,18)(H,19,20)
Instrument: Q Exactive Plus Orbitrap Thermo Scientific
Instrument type: LC-ESI-QFT
Ms type: MS2
Ion mode: NEGATIVE
Ionization: ESI
Fragmentation mode: HCD
Collision energy: 60 (nominal)
Resolution: 35000
Column name: XBridge C18 3.5um, 2.1x50mm, Waters
Retention time: 12.9 min
Base peak: 281.0538
Precursor m/z: 281.0543
Precursor type: [M-H]-
m/z	relative intensity	assigned
62.9888	14	CFO2-
66.0349	1	C4H4N-
68.9958	39	CF3-
76.0193	1	C5H2N-
91.0302	9	C5H3N2-
93.0458	20	C5H5N2-
145.0274	1	C7H4F3-
150.035	4	C11H4N-
155.0375	3	C10H5NO-
159.0429	1	C8H6F3-
160.0379	13	C7H5F3N-
167.0614	36	C11H7N2-
170.0411	11	C11H5FN-
176.0381	1	C12H4N2-
177.0459	811	C12H5N2-
180.033	15	C11H4N2O-
181.0411	1	C11H5N2O-
182.0484	42	C11H6N2O-
184.0377	5	C9H5F3N-
184.0446	3	C11H5FN2-
185.0334	1	C8H4F3N2-
189.0398	5	C11H5F2N-
190.0474	48	C11H6F2N-
195.0362	15	C12H4FN2-
196.0444	3	C12H5FN2-
197.052	314	C12H6FN2-
200.0391	66	C11H5FN2O-
201.047	11	C11H6FN2O-
208.0281	22	C12H4N2O2-
208.0379	4	C11H5F3N-
208.0578	3	C11H8F2NO-
209.0332	11	C10H4F3N2-
210.0536	129	C11H7F3N-
213.047	1	C12H6FN2O-
215.0429	8	C12H5F2N2-
216.0504	251	C12H6F2N2-
217.0583	205	C12H7F2N2-
222.0412	5	C11H5F3N2-
223.0488	2	C11H6F3N2-
228.0341	97	C12H5FN2O2-
235.049	810	C12H6F3N2-
237.0646	999	C12H8F3N2-
249.0482	2	C12H7F2N2O2-
253.0593	4	C12H8F3N2O-
