Mass spectrum: Pyrimethanil; LC-ESI-ITFT; MS2; CE: 75%; R=15000; [M+H]+
Name: Pyrimethanil
Name: (4,6-dimethylpyrimidin-2-yl)-phenyl-amine
Formula: C12H13N3
Exact mass: 199.1109
SMILES: c(ccc1N-c(nc(c2)C)nc2C)cc1
InChI: InChI=1S/C12H13N3/c1-9-8-10(2)14-12(13-9)15-11-6-4-3-5-7-11/h3-8H,1-2H3,(H,13,14,15)
Instrument: LTQ Orbitrap XL Thermo Scientific
Instrument type: LC-ESI-ITFT
Ms type: MS2
Ion mode: POSITIVE
Ionization: ESI
Fragmentation mode: HCD
Collision energy: 75 % (nominal)
Resolution: 15000
Column name: XBridge C18 3.5um, 2.1x50mm, Waters
Retention time: 7.6 min
Base peak: 200.1185
Precursor m/z: 200.1182
Precursor type: [M+H]+
m/z	relative intensity	assigned
53.0386	4	C4H5+
58.065	3	C3H8N+
65.0386	7	C5H5+
66.0338	19	C4H4N+
67.0291	10	C3H3N2+
67.0416	9	C4H5N+
77.0385	9	C6H5+
80.0495	62	C5H6N+
82.0652	227	C5H8N+
83.0604	20	C4H7N2+
91.0542	2	C7H7+
92.0495	20	C6H6N+
93.0573	19	C6H7N+
94.0653	5	C6H8N+
95.0602	2	C5H7N2+
105.0448	3	C6H5N2+
107.0604	275	C6H7N2+
115.0542	9	C9H7+
117.0576	3	C8H7N+
118.0528	6	C7H6N2+
118.0651	29	C8H8N+
119.0604	43	C7H7N2+
123.0794	3	C6H9N3+
125.0709	88	C6H9N2O+
129.0698	4	C10H9+
131.0604	6	C8H7N2+
142.0651	34	C10H8N+
143.0603	72	C9H7N2+
143.0729	11	C10H9N+
155.0607	1	C10H7N2+
156.068	3	C10H8N2+
156.0809	15	C11H10N+
158.0835	3	C10H10N2+
158.0966	7	C11H12N+
159.0917	39	C10H11N2+
166.0652	14	C12H8N+
167.073	13	C12H9N+
168.0682	94	C11H8N2+
173.1074	7	C11H13N2+
181.0762	10	C12H9N2+
182.0839	104	C12H10N2+
183.0917	286	C12H11N2+
184.0866	2	C11H10N3+
185.0949	11	C11H11N3+
198.1027	8	C12H12N3+
199.1104	2	C12H13N3+
200.1183	999	C12H14N3+
