Mass spectrum: Ofurace; LC-ESI-QFT; MS2; CE: 15%; R=17500; [M+H]+
Name: Ofurace
Name: 2-chloro-N-(2,6-dimethylphenyl)-N-(2-oxooxolan-3-yl)acetamide
Formula: C14H16ClNO3
Exact mass: 281.0819
SMILES: CC1=C(C(=CC=C1)C)N(C2CCOC2=O)C(=O)CCl
InChI: InChI=1S/C14H16ClNO3/c1-9-4-3-5-10(2)13(9)16(12(17)8-15)11-6-7-19-14(11)18/h3-5,11H,6-8H2,1-2H3
Instrument: Exploris 240 Orbitrap Thermo Scientific
Instrument type: LC-ESI-QFT
Ms type: MS2
Ion mode: POSITIVE
Ionization: ESI
Fragmentation mode: HCD
Collision energy: 15 % (nominal)
Resolution: 17500
Column name: XBridge C18 3.5um, 2.1x50mm, Waters
Retention time: 5.728 min
Base peak: 312.1342
Precursor m/z: 282.0891
Precursor type: [M+H]+
m/z	relative intensity	assigned
236.0836	43	C13H15ClNO+
254.0945	570	C13H17ClNO2+
282.0894	999	C14H17ClNO3+
