Mass spectrum: Ifosfamide; LC-ESI-ITFT; MS2; CE: 90%; R=30000; [M+H]+
Name: Ifosfamide
Name: Isophosphamide
Name: N,3-Bis(2-chloroethyl)-1,3,2-oxazaphosphinan-2-amine 2-oxide
Formula: C7H15Cl2N2O2P
Exact mass: 260.0248
SMILES: ClCCN(P(OC1)(=O)NCCCl)CC1
InChI: InChI=1S/C7H15Cl2N2O2P/c8-2-4-10-14(12)11(6-3-9)5-1-7-13-14/h1-7H2,(H,10,12)
Instrument: LTQ Orbitrap XL Thermo Scientific
Instrument type: LC-ESI-ITFT
Ms type: MS2
Ion mode: POSITIVE
Ionization: ESI
Fragmentation mode: HCD
Collision energy: 90 % (nominal)
Resolution: 30000
Column name: XBridge C18 3.5um, 2.1x50mm, Waters
Retention time: 6.3 min
Base peak: 261.0321
Precursor m/z: 261.0321
Precursor type: [M+H]+
m/z	relative intensity	assigned
56.0494	7	C3H6N+
62.9996	85	C2H4Cl+
63.9949	3	CH3ClN+
72.0443	5	C3H6NO+
78.0105	102	C2H5ClN+
79.9897	7	CH3ClNO+
80.0261	5	C2H7ClN+
82.0652	8	C5H8N+
84.0805	5	C5H10N+
92.0262	999	C3H7ClN+
97.9563	2	CH2Cl2N+
98.0001	9	CH5ClNO2+
98.9841	7	CH4ClO3+
99.9947	5	C3H3NOP+
106.0053	20	C2H5NO2P+
109.0049	7	C3H6ClO2+
115.9663	4	ClH4NO2P+
116.9502	33	CH3Cl2O2+
118.0052	11	C3H5NO2P+
118.0417	5	CH12ClN2P+
120.0209	8	C7H4O2+
120.0576	45	C5H11ClN+
123.9714	14	C2H4ClNOP+
124.016	11	C3H7ClNO2+
125.9505	18	C2H2Cl2NO+
126.9708	4	C2H5ClO2P+
127.9662	18	CH4ClNO2P+
128.0259	16	C5H7NOP+
136.0157	19	C4H7ClNO2+
141.9819	24	C2H6ClNO2P+
153.9819	144	C3H6ClNO2P+
