Mass spectrum: LSD; LC-ESI-QFT; MS2; CE: 30; R=35000; [M+H]+
Name: LSD
Name: D-Lysergic acid N,N-diethylamide
Name: N,N-diethyl-7-methyl-6,6a,8,9-tetrahydro-4H-indolo[4,3-fg]quinoline-9-carboxamide
Formula: C20H25N3O
Exact mass: 323.19976
SMILES: CCN(CC)C(=O)C1CN(C2CC3=CNC4=CC=CC(=C34)C2=C1)C
InChI: InChI=1S/C20H25N3O/c1-4-23(5-2)20(24)14-9-16-15-7-6-8-17-19(15)13(11-21-17)10-18(16)22(3)12-14/h6-9,11,14,18,21H,4-5,10,12H2,1-3H3
Instrument: Q Exactive Plus Orbitrap Thermo Scientific
Instrument type: LC-ESI-QFT
Ms type: MS2
Ion mode: POSITIVE
Ionization: ESI
Fragmentation mode: HCD
Collision energy: 30 (nominal)
Resolution: 35000
Column name: XBridge C18 3.5um, 2.1x50mm, Waters
Retention time: 5.6 min
Base peak: 324.2062
Precursor m/z: 324.207
Precursor type: [M+H]+
m/z	relative intensity	assigned
72.0443	1	C3H6NO+
72.0807	5	C4H10N+
74.0964	52	C4H12N+
100.0756	16	C5H10NO+
128.1069	22	C7H14NO+
156.0808	7	C11H10N+
168.0807	3	C12H10N+
180.0806	40	C13H10N+
182.0835	1	C12H10N2+
182.0964	1	C13H12N+
192.0807	25	C14H10N+
194.0965	2	C14H12N+
197.1073	89	C13H13N2+
207.0678	1	C14H9NO+
207.0914	1	C14H11N2+
208.0757	214	C14H10NO+
209.1073	1	C14H13N2+
210.0913	11	C14H12NO+
220.0753	2	C15H10NO+
221.107	2	C15H13N2+
222.1149	1	C15H14N2+
223.123	486	C15H15N2+
224.1303	2	C15H16N2+
251.1179	51	C16H15N2O+
279.1484	2	C18H19N2O+
281.1648	779	C18H21N2O+
293.1646	18	C19H21N2O+
309.1833	20	C19H23N3O+
324.2069	999	C20H26N3O+
