Mass spectrum: Dimethachlor ESA; LC-ESI-ITFT; MS2; CE: 90%; R=7500; [M+H]+
Name: Dimethachlor ESA
Name: 2-[(2,6-dimethylphenyl)(2-methoxyethyl)amino]-2-oxoethanesulfonic acid
Formula: C13H19NO5S
Exact mass: 301.0984
SMILES: CC1=C(N(C(CS(O)(=O)=O)=O)CCOC)C(C)=CC=C1
InChI: InChI=1S/C13H19NO5S/c1-10-5-4-6-11(2)13(10)14(7-8-19-3)12(15)9-20(16,17)18/h4-6H,7-9H2,1-3H3,(H,16,17,18)
Instrument: LTQ Orbitrap XL Thermo Scientific
Instrument type: LC-ESI-ITFT
Ms type: MS2
Ion mode: POSITIVE
Ionization: ESI
Fragmentation mode: HCD
Collision energy: 90 % (nominal)
Resolution: 7500
Column name: XBridge C18 3.5um, 2.1x50mm, Waters
Retention time: 5.9 min
Base peak: 302.1064
Precursor m/z: 302.1057
Precursor type: [M+H]+
m/z	relative intensity	assigned
59.0493	1	C3H7O+
68.0495	16	C4H6N+
77.0385	6	C6H5+
79.0543	18	C6H7+
91.0543	12	C7H7+
103.0543	15	C8H7+
105.07	210	C8H9+
106.0653	3	C7H8N+
106.0777	4	C8H10+
107.0728	1	C7H9N+
107.0859	2	C8H11+
115.0541	5	C9H7+
117.0574	94	C8H7N+
118.0652	15	C8H8N+
119.0855	7	C9H11+
120.0807	11	C8H10N+
121.0888	6	C8H11N+
123.0809	1	C8H11O+
129.0698	10	C10H9+
130.0652	24	C9H8N+
130.0773	2	C10H10+
131.0731	234	C9H9N+
132.0808	999	C9H10N+
133.076	10	C8H9N2+
133.0886	15	C9H11N+
134.0964	8	C9H12N+
144.0808	46	C10H10N+
145.0888	13	C10H11N+
146.0966	558	C10H12N+
147.1041	11	C10H13N+
148.1121	33	C10H14N+
156.0802	1	C11H10N+
158.0965	45	C11H12N+
159.1043	7	C11H13N+
160.1118	1	C11H14N+
174.0914	243	C11H12NO+
270.097	2	C12H16NO6+
