Mass spectrum: Xipamide; LC-ESI-QFT; MS2; CE: 150%; R=15000; [M-H]-
Name: Xipamide
Name: 4-chloro-N-(2,6-dimethylphenyl)-2-hydroxy-5-sulfamoylbenzamide
Formula: C15H15ClN2O4S
Exact mass: 354.0441
SMILES: CC1=C(C(=CC=C1)C)NC(=O)C2=CC(=C(C=C2O)Cl)S(=O)(=O)N
InChI: InChI=1S/C15H15ClN2O4S/c1-8-4-3-5-9(2)14(8)18-15(20)10-6-13(23(17,21)22)11(16)7-12(10)19/h3-7,19H,1-2H3,(H,18,20)(H2,17,21,22)
Instrument: Orbitrap Exploris 240 Thermo Scientific
Instrument type: LC-ESI-QFT
Ms type: MS2
Ion mode: NEGATIVE
Ionization: ESI
Fragmentation mode: HCD
Collision energy: 150 % (nominal)
Resolution: 15000
Column name: Atlantis C18 3um, 3.0x150mm, Waters
Retention time: 17.859 min
Base peak: 353.0365
Precursor m/z: 353.0368
Precursor type: [M-H]-
Precursor intensity: 133348944
m/z	relative intensity	assigned
50.0037	107	C3N-
61.0084	34	C5H-
61.9707	71	NOS-
63.9624	201	O2S-
65.0034	46	C4HO-
65.9985	53	C3NO-
76.0193	37	C5H2N-
77.9655	999	NO2S-
78.9734	38	HNO2S-
89.0032	24	C6HO-
94.0297	39	C5H4NO-
95.0136	43	C5H3O2-
104.0148	19	H8O4S-
105.0223	39	C3H6ClN2-
