Mass spectrum: Isofenphos; LC-ESI-QFT; MS2; CE: 90%; R=17500; [M+H]+
Name: Isofenphos
Name: propan-2-yl 2-[ethoxy-(propan-2-ylamino)phosphinothioyl]oxybenzoate
Formula: C15H24NO4PS
Exact mass: 345.1164
SMILES: CCOP(=S)(NC(C)C)OC1=CC=CC=C1C(=O)OC(C)C
InChI: InChI=1S/C15H24NO4PS/c1-6-18-21(22,16-11(2)3)20-14-10-8-7-9-13(14)15(17)19-12(4)5/h7-12H,6H2,1-5H3,(H,16,22)
Instrument: Exploris 240 Orbitrap Thermo Scientific
Instrument type: LC-ESI-QFT
Ms type: MS2
Ion mode: POSITIVE
Ionization: ESI
Fragmentation mode: HCD
Collision energy: 90 % (nominal)
Resolution: 17500
Column name: XBridge C18 3.5um, 2.1x50mm, Waters
Retention time: 11.726 min
Base peak: 245.0031
Precursor m/z: 346.1236
Precursor type: [M+H]+
m/z	relative intensity	assigned
63.9947	32	H3NOP+
65.0386	128	C5H5+
77.0386	17	C6H5+
92.0259	6	C6H4O+
93.0335	42	C6H5O+
95.9668	296	H3NOPS+
109.0108	58	C6H5S+
111.0439	13	C6H7O2+
121.0286	999	C3H8NO2P+
137.0054	73	C7H5OS+
138.9945	45	C6H4O2P+
154.9713	22	C6H4OPS+
157.0044	28	C6H6O3P+
216.9724	14	C7H6O4PS+
