Mass spectrum: 1H,1H,2H,2H-perfluorodecylphosphate; LC-ESI-ITFT; MS2; CE: 30%; R=7500; [M+H]+
Name: 1H,1H,2H,2H-perfluorodecylphosphate
Name: 8:2PAP
Name: 8:2 Fluorotelomer phosphate monoester
Formula: C10H6F17O4P
Exact mass: 543.9732
SMILES: O=P(O)(OCCC(F)(F)C(F)(F)C(F)(F)C(F)(F)C(F)(F)C(F)(F)C(F)(F)C(F)(F)F)O
InChI: InChI=1S/C10H6F17O4P/c11-3(12,1-2-31-32(28,29)30)4(13,14)5(15,16)6(17,18)7(19,20)8(21,22)9(23,24)10(25,26)27/h1-2H2,(H2,28,29,30)
Instrument: LTQ Orbitrap XL Thermo Scientific
Instrument type: LC-ESI-ITFT
Ms type: MS2
Ion mode: POSITIVE
Ionization: ESI
Fragmentation mode: HCD
Collision energy: 30 % (nominal)
Resolution: 7500
Column name: XBridge C18 3.5um, 2.1x50mm, Waters
Retention time: 14.7 min
Base peak: 301.1404
Precursor m/z: 544.9805
Precursor type: [M+H]+
m/z	relative intensity	assigned
98.9839	999	H4O4P+
