Mass spectrum: Bensulfuron-Methyl; LC-ESI-QFT; MS2; CE: 60%; R=17500; [M-H]-
Name: Bensulfuron-Methyl
Name: methyl 2-[(4,6-dimethoxypyrimidin-2-yl)carbamoylsulfamoylmethyl]benzoate
Formula: C16H18N4O7S
Exact mass: 410.0896
SMILES: COC1=CC(=NC(=N1)NC(=O)NS(=O)(=O)CC2=CC=CC=C2C(=O)OC)OC
InChI: InChI=1S/C16H18N4O7S/c1-25-12-8-13(26-2)18-15(17-12)19-16(22)20-28(23,24)9-10-6-4-5-7-11(10)14(21)27-3/h4-8H,9H2,1-3H3,(H2,17,18,19,20,22)
Instrument: Exploris 240 Orbitrap Thermo Scientific
Instrument type: LC-ESI-QFT
Ms type: MS2
Ion mode: NEGATIVE
Ionization: ESI
Fragmentation mode: HCD
Collision energy: 60 % (nominal)
Resolution: 17500
Column name: XBridge C18 3.5um, 2.1x50mm, Waters
Retention time: 7.818 min
Base peak: 409.0823
Precursor m/z: 409.0823
Precursor type: [M-H]-
m/z	relative intensity	assigned
63.9626	12	O2S-
65.0145	248	C3HN2-
65.9985	144	C3NO-
82.0171	23	C3H2N2O-
90.0101	32	C4N3-
97.0408	28	C4H5N2O-
102.0348	96	C7H4N-
107.0124	99	C4HN3O-
120.0453	15	C7H6NO-
122.0361	275	C5H4N3O-
124.0515	53	C5H6N3O-
130.0299	15	C8H4NO-
132.0455	121	C8H6NO-
139.0385	206	C5H5N3O2-
154.062	999	C6H8N3O2-
196.0073	165	C8H6NO3S-
