Mass spectrum: Fonofos; LC-ESI-QFT; MS2; CE: 30; R=35000; [M+H]+
Name: Fonofos
Name: ethoxy-ethyl-(phenylthio)-sulfanylidenephosphorane
Formula: C10H15OPS2
Exact mass: 246.03019
SMILES: S=P(Sc1ccccc1)(OCC)CC
InChI: InChI=1S/C10H15OPS2/c1-3-11-12(13,4-2)14-10-8-6-5-7-9-10/h5-9H,3-4H2,1-2H3
Instrument: Q Exactive Orbitrap Thermo Scientific
Instrument type: LC-ESI-QFT
Ms type: MS2
Ion mode: POSITIVE
Ionization: ESI
Fragmentation mode: HCD
Collision energy: 30 (nominal)
Resolution: 35000
Column name: XBridge C18 3.5um, 2.1x50mm, Waters
Retention time: 12.9 min
Base peak: 247.0377
Precursor m/z: 247.0375
Precursor type: [M+H]+
m/z	relative intensity	assigned
62.9453	13	PS+
64.9786	2	H2O2P+
80.9558	29	H2OPS+
108.9871	808	C2H6OPS+
111.0263	16	C6H7S+
126.9977	999	C2H8O2PS+
137.0184	688	C4H10OPS+
140.959	2	C2H6OPS2+
141.0133	6	C3H10O2PS+
155.029	78	C4H12O2PS+
169.0444	3	C5H14O2PS+
172.9643	7	C6H6PS2+
200.9956	74	C8H10PS2+
203.0291	3	C8H12O2PS+
219.0062	26	C8H12OPS2+
247.0378	12	C10H16OPS2+
