Mass spectrum: Sulfadiazine; LC-ESI-ITFT; MS2; CE: 75%; R=15000; [M+H]+
Name: Sulfadiazine
Name: 4-amino-N-(2-pyrimidinyl)benzenesulfonamide
Formula: C10H10N4O2S
Exact mass: 250.0524
SMILES: NC1=CC=C(C=C1)S(=O)(=O)NC2=NC=CC=N2
InChI: InChI=1S/C10H10N4O2S/c11-8-2-4-9(5-3-8)17(15,16)14-10-12-6-1-7-13-10/h1-7H,11H2,(H,12,13,14)
Instrument: LTQ Orbitrap XL Thermo Scientific
Instrument type: LC-ESI-ITFT
Ms type: MS2
Ion mode: POSITIVE
Ionization: ESI
Fragmentation mode: HCD
Collision energy: 75 % (nominal)
Resolution: 15000
Column name: XBridge C18 3.5um, 2.1x50mm, Waters
Retention time: 2.2 min
Base peak: 251.0602
Precursor m/z: 251.0597
Precursor type: [M+H]+
m/z	relative intensity	assigned
65.0386	370	C5H5+
67.029	14	C3H3N2+
68.0494	65	C4H6N+
80.0494	39	C5H6N+
92.0495	929	C6H6N+
93.0572	15	C6H7N+
94.0648	17	C6H8N+
96.0556	344	C4H6N3+
108.0444	999	C6H6NO+
110.06	83	C6H8NO+
156.0109	29	C6H6NO2S+
185.0824	36	C10H9N4+
