Mass spectrum: N-ethyl-4-methoxybenzamide; LC-ESI-QFT; MS2; CE: 90; R=35000; [M+H]+
Name: N-ethyl-4-methoxybenzamide
Formula: C10H13NO2
Exact mass: 179.09463
SMILES: O=C(c1ccc(OC)cc1)NCC
InChI: InChI=1S/C10H13NO2/c1-3-11-10(12)8-4-6-9(13-2)7-5-8/h4-7H,3H2,1-2H3,(H,11,12)
Instrument: Q Exactive Orbitrap Thermo Scientific
Instrument type: LC-ESI-QFT
Ms type: MS2
Ion mode: POSITIVE
Ionization: ESI
Fragmentation mode: HCD
Collision energy: 90 (nominal)
Resolution: 35000
Column name: XBridge C18 3.5um, 2.1x50mm, Waters
Retention time: 5.6 min
Base peak: 180.1017
Precursor m/z: 180.1019
Precursor type: [M+H]+
m/z	relative intensity	assigned
50.0152	11	C4H2+
51.023	11	C4H3+
53.0386	49	C4H5+
55.0179	2	C3H3O+
63.0229	15	C5H3+
64.0306	17	C5H4+
65.0386	11	C5H5+
66.0464	12	C5H6+
68.0256	7	C4H4O+
68.997	2	C3HO2+
72.0443	35	C3H6NO+
77.0385	350	C6H5+
79.0542	140	C6H7+
81.0334	28	C5H5O+
81.0698	7	C6H9+
91.0416	12	C6H5N+
91.0542	4	C7H7+
92.0256	590	C6H4O+
94.0412	318	C6H6O+
95.0491	897	C6H7O+
105.0447	400	C6H5N2+
107.049	73	C7H7O+
109.0647	57	C7H9O+
119.0366	13	C7H5NO+
125.0596	346	C7H9O2+
134.0599	40	C8H8NO+
135.044	999	C8H7O2+
135.0549	249	C7H7N2O+
