Mass spectrum: Imicyafos; LC-ESI-QFT; MS2; CE: 180%; R=17500; [M+H]+
Name: Imicyafos
Name: [1-[ethoxy(propylsulfanyl)phosphoryl]-3-ethylimidazolidin-2-ylidene]cyanamide
Formula: C11H21N4O2PS
Exact mass: 304.1123
SMILES: CCCSP(=O)(N1CCN(C1=NC#N)CC)OCC
InChI: InChI=1S/C11H21N4O2PS/c1-4-9-19-18(16,17-6-3)15-8-7-14(5-2)11(15)13-10-12/h4-9H2,1-3H3
Instrument: Exploris 240 Orbitrap Thermo Scientific
Instrument type: LC-ESI-QFT
Ms type: MS2
Ion mode: POSITIVE
Ionization: ESI
Fragmentation mode: HCD
Collision energy: 180 % (nominal)
Resolution: 17500
Column name: XBridge C18 3.5um, 2.1x50mm, Waters
Retention time: 5.301 min
Base peak: 305.1193
Precursor m/z: 305.1196
Precursor type: [M+H]+
m/z	relative intensity	assigned
55.0291	132	C2H3N2+
56.0495	116	C3H6N+
60.9839	33	CH2OP+
64.9786	234	H2O2P+
68.0243	999	C2H2N3+
69.0086	31	C2HN2O+
69.0447	271	C3H5N2+
78.9401	71	OPS+
79.9893	27	H3NO2P+
82.0401	88	C3H4N3+
84.0557	40	C3H6N3+
96.9508	51	H2O2PS+
109.051	107	C4H5N4+
