Mass spectrum: Trimipramine N-Oxide; LC-ESI-QFT; MS2; CE: 120; R=35000; [M+H]+
Name: Trimipramine N-Oxide
Name: Trimipramine N-oxide, (+/-)-
Name: 3-(5,6-dihydrobenzo[b][1]benzazepin-11-yl)-N,N,2-trimethylpropan-1-amine oxide
Formula: C20H26N2O
Exact mass: 310.20451
SMILES: CC(CN1C2=CC=CC=C2CCC3=CC=CC=C31)C[N+](C)(C)[O-]
InChI: InChI=1S/C20H26N2O/c1-16(15-22(2,3)23)14-21-19-10-6-4-8-17(19)12-13-18-9-5-7-11-20(18)21/h4-11,16H,12-15H2,1-3H3
Instrument: Q Exactive Plus Orbitrap Thermo Scientific
Instrument type: LC-ESI-QFT
Ms type: MS2
Ion mode: POSITIVE
Ionization: ESI
Fragmentation mode: HCD
Collision energy: 120 (nominal)
Resolution: 35000
Column name: XBridge C18 3.5um, 2.1x50mm, Waters
Retention time: 8.9 min
Base peak: 311.2114
Precursor m/z: 311.2118
Precursor type: [M+H]+
m/z	relative intensity	assigned
50.015	2	C4H2+
53.0386	4	C4H5+
55.0542	9	C4H7+
56.0495	238	C3H6N+
58.0651	142	C3H8N+
60.0444	10	C2H6NO+
61.0522	1	C2H7NO+
63.0228	4	C5H3+
64.0307	1	C5H4+
65.0385	41	C5H5+
66.0464	4	C5H6+
68.0494	1	C4H6N+
70.0651	52	C4H8N+
71.0729	266	C4H9N+
77.0384	8	C6H5+
78.0464	1	C6H6+
79.0541	13	C6H7+
84.0807	34	C5H10N+
85.0886	3	C5H11N+
86.0964	56	C5H12N+
89.0385	89	C7H5+
90.0464	81	C7H6+
91.0542	119	C7H7+
92.0494	1	C6H6N+
95.0491	19	C6H7O+
102.0463	3	C8H6+
103.0542	24	C8H7+
104.0495	1	C7H6N+
105.0447	9	C6H5N2+
105.0698	2	C8H9+
106.0651	22	C7H8N+
115.0542	48	C9H7+
116.0494	8	C8H6N+
116.0619	4	C9H8+
117.0572	21	C8H7N+
117.0699	3	C9H9+
118.0651	9	C8H8N+
127.0543	1	C10H7+
128.0494	22	C9H6N+
128.062	9	C10H8+
129.0447	3	C8H5N2+
129.07	4	C10H9+
130.0651	26	C9H8N+
131.0729	1	C9H9N+
139.0541	16	C11H7+
140.0494	3	C10H6N+
140.0618	13	C11H8+
141.0697	6	C11H9+
142.0651	3	C10H8N+
143.073	10	C10H9N+
144.0808	6	C10H10N+
146.06	9	C9H8NO+
151.0545	4	C12H7+
152.062	38	C12H8+
153.0571	2	C11H7N+
153.0698	6	C12H9+
154.0651	9	C11H8N+
155.0604	3	C10H7N2+
156.0807	3	C11H10N+
157.0886	1	C11H11N+
158.0966	2	C11H12N+
164.062	8	C13H8+
165.0699	425	C13H9+
166.0652	47	C12H8N+
166.0776	56	C13H10+
167.0729	325	C12H9N+
168.0571	1	C12H8O+
168.0806	2	C12H10N+
169.0644	6	C12H9O+
176.0621	5	C14H8+
177.0574	9	C13H7N+
177.0696	8	C14H9+
178.0653	24	C13H8N+
178.0776	51	C14H10+
179.0603	2	C12H7N2+
179.073	18	C13H9N+
179.0852	10	C14H11+
180.0807	50	C13H10N+
181.0882	4	C13H11N+
189.0699	10	C15H9+
190.0651	33	C14H8N+
191.0729	316	C14H9N+
192.0807	999	C14H10N+
193.0885	731	C14H11N+
194.0963	49	C14H12N+
196.0757	3	C13H10NO+
204.0808	69	C15H10N+
205.0886	12	C15H11N+
206.0964	64	C15H12N+
207.1042	20	C15H13N+
208.1119	10	C15H14N+
216.0814	1	C16H10N+
217.0885	26	C16H11N+
218.0964	47	C16H12N+
219.1043	4	C16H13N+
220.1124	3	C16H14N+
230.096	2	C17H12N+
232.1121	8	C17H14N+
234.128	4	C17H16N+
