Mass spectrum: Darunavir; LC-ESI-QFT; MS2; CE: 60; R=35000; [M+H]+
Name: Darunavir
Name: N-[(1S,2R)-1-benzyl-2-hydroxy-3-[isobutyl(sulfanilyl)amino]propyl]carbamic acid [(3aS,4R,6aR)-2,3,3a,4,5,6a-hexahydrofuro[2,3-b]furan-4-yl] ester
Formula: C27H37N3O7S
Exact mass: 547.23522
SMILES: CC(C)CN(CC(C(CC1=CC=CC=C1)NC(=O)OC2COC3C2CCO3)O)S(=O)(=O)C4=CC=C(C=C4)N
InChI: InChI=1S/C27H37N3O7S/c1-18(2)15-30(38(33,34)21-10-8-20(28)9-11-21)16-24(31)23(14-19-6-4-3-5-7-19)29-27(32)37-25-17-36-26-22(25)12-13-35-26/h3-11,18,22-26,31H,12-17,28H2,1-2H3,(H,29,32)/t22-,23-,24+,25-,26+/m0/s1
Instrument: Q Exactive Orbitrap Thermo Scientific
Instrument type: LC-ESI-QFT
Ms type: MS2
Ion mode: POSITIVE
Ionization: ESI
Fragmentation mode: HCD
Collision energy: 60 (nominal)
Resolution: 35000
Column name: XBridge C18 3.5um, 2.1x50mm, Waters
Retention time: 8.7 min
Base peak: 548.2426
Precursor m/z: 548.2425
Precursor type: [M+H]+
m/z	relative intensity	assigned
80.0494	21	C5H6N+
83.0493	8	C5H7O+
84.0806	6	C5H10N+
85.0284	9	C4H5O2+
85.0647	30	C5H9O+
86.0964	74	C5H12N+
91.0542	45	C7H7+
92.0494	527	C6H6N+
93.0698	6	C7H9+
94.0649	7	C6H8N+
95.0491	63	C6H7O+
96.0808	9	C6H10N+
100.1121	10	C6H14N+
103.0542	34	C8H7+
105.0698	6	C8H9+
108.0444	836	C6H6NO+
110.0601	102	C6H8NO+
113.0597	104	C6H9O2+
113.1072	28	C6H13N2+
114.115	12	C6H14N2+
117.0697	11	C9H9+
120.0555	13	C6H6N3+
120.0807	225	C8H10N+
127.1231	42	C7H15N2+
128.0617	6	C10H8+
129.0698	190	C10H9+
131.0855	13	C10H11+
144.0807	35	C10H10N+
146.0599	11	C9H8NO+
146.0965	85	C10H12N+
156.0114	999	C6H6NO2S+
158.0965	12	C11H12N+
200.1431	11	C14H18N+
202.159	51	C14H20N+
220.1696	6	C14H22NO+
