Mass spectrum: Dioxoaminopyrine; LC-ESI-ITFT; MS2; CE: 15%; R=7500; [M+H]+
Name: Dioxoaminopyrine
Name: AMDOPH
Name: 2-(N-[acetyl(methyl)amino]anilino)-2-keto-N,N-dimethyl-acetamide
Formula: C13H17N3O3
Exact mass: 263.1270
SMILES: c1ccccc1N(C(=O)C(=O)N(C)C)N(C)C(=O)C
InChI: InChI=1S/C13H17N3O3/c1-10(17)15(4)16(11-8-6-5-7-9-11)13(19)12(18)14(2)3/h5-9H,1-4H3
Instrument: LTQ Orbitrap XL Thermo Scientific
Instrument type: LC-ESI-ITFT
Ms type: MS2
Ion mode: POSITIVE
Ionization: ESI
Fragmentation mode: HCD
Collision energy: 15 % (nominal)
Resolution: 7500
Column name: XBridge C18 3.5um, 2.1x50mm, Waters
Retention time: 5.2 min
Base peak: 286.1173
Precursor m/z: 264.1343
Precursor type: [M+H]+
m/z	relative intensity	assigned
72.0444	271	C3H6NO+
92.0494	30	C6H6N+
120.0439	2	C7H6NO+
149.0711	24	C8H9N2O+
163.0867	40	C9H11N2O+
191.0816	784	C10H11N2O2+
204.1139	7	C11H14N3O+
222.1239	999	C11H16N3O2+
236.1396	39	C12H18N3O2+
264.1344	442	C13H18N3O3+
