Mass spectrum: Octocrylene; LC-ESI-QFT; MS2; CE: 45; R=35000; [M+H]+
Name: Octocrylene
Name: [(2R)-2-ethylhexyl] 2-cyano-3,3-diphenylprop-2-enoate
Formula: C24H27NO2
Exact mass: 361.20418
SMILES: C(\c1ccccc1)(c1ccccc1)=C(/C(OC[C@@H](CCCC)CC)=O)C#N
InChI: InChI=1S/C24H27NO2/c1-3-5-12-19(4-2)18-27-24(26)22(17-25)23(20-13-8-6-9-14-20)21-15-10-7-11-16-21/h6-11,13-16,19H,3-5,12,18H2,1-2H3/t19-/m1/s1
Instrument: Q Exactive Plus Orbitrap Thermo Scientific
Instrument type: LC-ESI-QFT
Ms type: MS2
Ion mode: POSITIVE
Ionization: ESI
Fragmentation mode: HCD
Collision energy: 45 (nominal)
Resolution: 35000
Column name: XBridge C18 3.5um, 2.1x50mm, Waters
Retention time: 17.2 min
Base peak: 250.086
Precursor m/z: 362.2115
Precursor type: [M+H]+
m/z	relative intensity	assigned
57.0699	66	C4H9+
68.9971	2	C3HO2+
71.0855	55	C5H11+
77.0385	5	C6H5+
95.0491	2	C6H7O+
104.0495	17	C7H6N+
105.0335	319	C7H5O+
128.0494	1	C9H6N+
129.0336	8	C9H5O+
147.0441	15	C9H7O2+
154.0286	1	C10H4NO+
157.0285	18	C10H5O2+
165.0701	3	C13H9+
175.0393	3	C10H7O3+
176.0613	2	C14H8+
177.07	20	C14H9+
178.0778	5	C14H10+
179.0856	9	C14H11+
182.0965	15	C13H12N+
183.0804	5	C13H11O+
195.0806	5	C14H11O+
203.0728	22	C15H9N+
204.081	338	C15H10N+
205.076	11	C14H9N2+
206.0965	17	C15H12N+
207.0805	9	C15H11O+
222.0915	16	C15H12NO+
232.0758	999	C16H10NO+
236.1071	2	C16H14NO+
250.0864	99	C16H12NO2+
264.1026	1	C17H14NO2+
