Mass spectrum: Propamocarb; LC-ESI-ITFT; MS2; CE: 75%; R=15000; [M+H]+
Name: Propamocarb
Name: N-[3-(dimethylamino)propyl]carbamic acid propyl ester
Formula: C9H20N2O2
Exact mass: 188.1525
SMILES: N(C(OCCC)=O)CCCN(C)C
InChI: InChI=1S/C9H20N2O2/c1-4-8-13-9(12)10-6-5-7-11(2)3/h4-8H2,1-3H3,(H,10,12)
Instrument: LTQ Orbitrap XL Thermo Scientific
Instrument type: LC-ESI-ITFT
Ms type: MS2
Ion mode: POSITIVE
Ionization: ESI
Fragmentation mode: HCD
Collision energy: 75 % (nominal)
Resolution: 15000
Column name: XBridge C18 3.5um, 2.1x50mm, Waters
Retention time: 2.4 min
Base peak: 189.1599
Precursor m/z: 189.1598
Precursor type: [M+H]+
m/z	relative intensity	assigned
58.0651	63	C3H8N+
74.0237	151	C2H4NO2+
84.0806	2	C5H10N+
86.0964	35	C5H12N+
102.0549	999	C4H8NO2+
129.1022	9	C6H13N2O+
144.1005	4	C5H12N4O+
189.1588	2	C9H21N2O2+
