Mass spectrum: MCLF; LC-ESI-QFT; MS2; CE: 90%; R=17500; [M+H]+
Name: MCLF
Name: Microcystin LF
Name: 15-benzyl-18-[(1E,3E)-6-methoxy-3,5-dimethyl-7-phenylhepta-1,3-dienyl]-1,5,12,19-tetramethyl-2-methylidene-8-(2-methylpropyl)-3,6,9,13,16,20,25-heptaoxo-1,4,7,10,14,17,21-heptazacyclopentacosane-11,22-dicarboxylic acid
Class: NA
Formula: C52H71N7O12
Exact mass: 985.5161
SMILES: COC(Cc1ccccc1)C(C)/C=C(C)/C=C/C2NC(=O)C(Cc3ccccc3)NC(=O)C(C)C(NC(=O)C(CC(C)C)NC(=O)C(C)NC(=O)C(=C)N(C)C(=O)CCC(NC(=O)C2C)C(O)=O)C(O)=O
InChI: InChI=1S/C52H71N7O12/c1-29(2)25-40-50(66)58-44(52(69)70)33(6)46(62)56-41(27-36-17-13-11-14-18-36)49(65)54-38(22-21-30(3)26-31(4)42(71-10)28-37-19-15-12-16-20-37)32(5)45(61)55-39(51(67)68)23-24-43(60)59(9)35(8)48(64)53-34(7)47(63)57-40/h11-22,26,29,31-34,38-42,44H,8,23-25,27-28H2,1-7,9-10H3,(H,53,64)(H,54,65)(H,55,61)(H,56,62)(H,57,63)(H,58,66)(H,67,68)(H,69,70)/b22-21+,30-26+
Instrument: Q Exactive Plus Orbitrap Thermo Scientific
Instrument type: LC-ESI-QFT
Ms type: MS2
Ion mode: POSITIVE
Ionization: ESI
Fragmentation mode: HCD
Collision energy: 90 % (nominal)
Resolution: 17500
Column name: XBridge C18 3.5um, 2.1x50mm, Waters
Retention time: 12.318 min
Base peak: 164.9846
Precursor m/z: 986.5233
Precursor type: [M+H]+
m/z	relative intensity	assigned
69.0335	28	C4H5O+
69.07	12	C5H9+
70.0651	4	C4H8N+
74.0235	15	C2H4NO2+
77.0385	38	C6H5+
79.0542	254	C6H7+
80.0495	65	C5H6N+
81.0335	9	C5H5O+
81.057	6	C5H7N+
81.0699	13	C6H9+
82.0287	27	C4H4NO+
82.0651	123	C5H8N+
84.0444	144	C4H6NO+
84.0806	6	
85.0283	18	C4H5O2+
86.06	15	C4H8NO+
86.0964	96	C5H12N+
91.0543	826	C7H7+
92.0621	17	C7H8+
93.0574	7	
93.0699	163	C7H9+
94.0651	44	C6H8N+
95.0492	365	C6H7O+
95.0855	11	
96.0681	3	C5H8N2+
96.0808	10	C6H10N+
97.076	5	C5H9N2+
99.0916	58	C5H11N2+
102.0465	28	C8H6+
102.0549	9	C4H8NO2+
103.0542	999	C8H7+
105.0448	110	C6H5N2+
105.0699	432	C8H9+
106.0525	8	C6H6N2+
106.0651	5	C7H8N+
107.0491	6	
107.0855	392	C8H11+
108.0682	14	C6H8N2+
108.0809	10	C7H10N+
109.0648	80	C7H9O+
109.076	3	
110.06	22	C6H8NO+
110.0965	6	C7H12N+
113.0233	33	C5H5O3+
115.0542	116	C9H7+
116.0621	19	C9H8+
117.0572	9	C8H7N+
117.0699	59	C9H9+
118.065	11	C8H8N+
119.0602	47	C7H7N2+
119.0731	4	C8H9N+
119.0857	32	C9H11+
120.0571	13	
120.0808	435	C8H10N+
121.0759	86	C7H9N2+
122.06	10	C7H8NO+
122.0837	7	C7H10N2+
122.0965	7	C8H12N+
123.0914	7	C7H11N2+
127.0866	203	C6H11N2O+
128.0621	61	C10H8+
129.0699	38	C10H9+
130.0652	44	C9H8N+
130.0779	13	C10H10+
131.0729	6	C9H9N+
131.0857	37	C10H11+
133.1008	6	C10H13+
135.0804	29	C9H11O+
135.1166	15	C10H15+
138.0551	7	C7H8NO2+
139.0868	5	C7H11N2O+
141.0696	15	C11H9+
142.0776	6	C11H10+
143.0731	11	C10H9N+
143.0856	9	C11H11+
144.0808	6	C10H10N+
145.1014	13	C11H13+
146.0605	10	C9H8NO+
146.0965	13	C10H12N+
149.071	29	C8H9N2O+
152.0613	5	C12H8+
155.0609	9	C10H7N2+
158.0966	10	C11H12N+
165.0699	36	C13H9+
167.0818	46	C8H11N2O2+
178.0781	10	H12N5O6+
179.0859	13	H13N5O6+
180.0931	4	C14H12+
195.0766	13	C9H11N2O3+
