Mass spectrum: Fipronil-sulfide; LC-ESI-ITFT; MS2; CE: 75%; R=15000; [M+H]+
Name: Fipronil-sulfide
Name: 5-Amino-1-[2,6-dichloro-4-(trifluoromethyl)phenyl]-4-[(trifluoromethyl)sulfanyl]-1H-pyrazole-3-carbonitrile
Formula: C12H4Cl2F6N4S
Exact mass: 419.9438
SMILES: FC(F)(F)c2cc(Cl)c(n1nc(C#N)c(SC(F)(F)F)c1N)c(Cl)c2
InChI: InChI=1S/C12H4Cl2F6N4S/c13-5-1-4(11(15,16)17)2-6(14)8(5)24-10(22)9(7(3-21)23-24)25-12(18,19)20/h1-2H,22H2
Instrument: LTQ Orbitrap XL Thermo Scientific
Instrument type: LC-ESI-ITFT
Ms type: MS2
Ion mode: POSITIVE
Ionization: ESI
Fragmentation mode: HCD
Collision energy: 75 % (nominal)
Resolution: 15000
Column name: XBridge C18 3.5um, 2.1x50mm, Waters
Retention time: 13.0 min
Base peak: 442.9332
Precursor m/z: 420.9511
Precursor type: [M+H]+
m/z	relative intensity	assigned
71.9904	19	C2H2NS+
96.9852	15	C3HN2S+
97.9932	252	C3H2N2S+
165.9795	22	C6H2ClF3+
200.9478	42	CHCl2F4N3+
201.9933	55	C8H3F3NS+
203.9824	36	C8H2ClF3N+
212.9473	58	C2HCl2F4N3+
220.0003	27	C8H4ClF3N2+
221.0079	46	C8H5ClF3N2+
227.9587	162	C2H2Cl2F4N4+
228.9663	82	C2H3Cl2F4N4+
230.9927	45	C9H3ClF3N2+
233.0086	61	C9H5ClF3N2+
237.9696	999	C3H3ClF4N4S+
238.9509	130	C3HCl2F4N4+
239.9584	43	C3H2Cl2F4N4+
242.9581	17	C9H2ClF2N2S+
246.0037	90	C9H4ClF3N3+
247.9538	164	C4HClF4N4S+
250.0453	49	C11H5F3N4+
251.9723	74	C8H4ClF3N2S+
254.9693	316	C9HF6S+
255.0073	25	C10H4F3N3S+
256.9194	87	C3HCl2F4N3S+
257.9278	30	C3H2Cl2F4N3S+
258.0037	49	C10H4ClF3N3+
262.9648	898	C9H3ClF3N2S+
264.9805	601	C9H5ClF3N2S+
274.9648	318	C10H3ClF3N2S+
282.0171	36	C11H5F3N4S+
289.9759	196	C10H4ClF3N3S+
316.9871	60	C11H5ClF3N4S+
