Mass spectrum: Demeton-S-Methyl; LC-ESI-QFT; MS2; CE: 180%; R=17500; [M+H]+
Name: Demeton-S-Methyl
Name: 1-dimethoxyphosphorylsulfanyl-2-ethylsulfanylethane
Formula: C6H15O3PS2
Exact mass: 230.0200
SMILES: CCSCCSP(=O)(OC)OC
InChI: InChI=1S/C6H15O3PS2/c1-4-11-5-6-12-10(7,8-2)9-3/h4-6H2,1-3H3
Instrument: Exploris 240 Orbitrap Thermo Scientific
Instrument type: LC-ESI-QFT
Ms type: MS2
Ion mode: POSITIVE
Ionization: ESI
Fragmentation mode: HCD
Collision energy: 180 % (nominal)
Resolution: 17500
Column name: XBridge C18 3.5um, 2.1x50mm, Waters
Retention time: 5.834 min
Base peak: 320.1077
Precursor m/z: 231.0273
Precursor type: [M+H]+
m/z	relative intensity	assigned
61.0106	999	C2H5S+
