Mass spectrum: Letrozole; LC-ESI-QFT; MS2; CE: 180; R=35000; [M+H]+
Name: Letrozole
Name: 4-[(4-cyanophenyl)-(1,2,4-triazol-1-yl)methyl]benzonitrile
Formula: C17H11N5
Exact mass: 285.10145
SMILES: C1=CC(=CC=C1C#N)C(C2=CC=C(C=C2)C#N)N3C=NC=N3
InChI: InChI=1S/C17H11N5/c18-9-13-1-5-15(6-2-13)17(22-12-20-11-21-22)16-7-3-14(10-19)4-8-16/h1-8,11-12,17H
Instrument: Q Exactive Plus Orbitrap Thermo Scientific
Instrument type: LC-ESI-QFT
Ms type: MS2
Ion mode: POSITIVE
Ionization: ESI
Fragmentation mode: HCD
Collision energy: 180 (nominal)
Resolution: 35000
Column name: XBridge C18 3.5um, 2.1x50mm, Waters
Retention time: 6.6 min
Base peak: 286.1083
Precursor m/z: 286.1087
Precursor type: [M+H]+
m/z	relative intensity	assigned
50.0151	46	C4H2+
51.0229	8	C4H3+
53.0022	31	C3HO+
55.0179	10	C3H3O+
61.0073	135	C5H+
62.0151	223	C5H2+
63.0229	999	C5H3+
64.0182	248	C4H2N+
65.0386	104	C5H5+
66.0464	7	C5H6+
74.0151	253	C6H2+
75.0103	24	C5HN+
75.0228	45	C6H3+
76.0181	11	C5H2N+
76.0307	85	C6H4+
77.0386	7	C6H5+
78.0464	17	C6H6+
81.0334	6	C5H5O+
85.0072	63	C7H+
86.0151	162	C7H2+
87.0229	573	C7H3+
88.0182	244	C6H2N+
88.0307	38	C7H4+
89.0385	308	C7H5+
90.0338	75	C6H4N+
90.0464	12	C7H6+
91.0542	10	C7H7+
95.0491	6	C6H7O+
98.0151	155	C8H2+
99.0103	27	C7HN+
99.0229	38	C8H3+
100.0182	8	C7H2N+
100.0307	49	C8H4+
101.0259	15	C7H3N+
102.0339	1	C7H4N+
102.0464	23	C8H6+
103.0416	7	C7H5N+
105.0447	6	C6H5N2+
110.0151	105	C9H2+
111.0103	43	C8HN+
111.0229	202	C9H3+
112.0181	143	C8H2N+
112.0307	9	C9H4+
113.0385	505	C9H5+
114.0338	229	C8H4N+
115.0542	58	C9H7+
116.0495	6	C8H6N+
118.0413	2	C8H6O+
122.0151	49	C10H2+
123.0104	25	C9HN+
123.0229	29	C10H3+
124.0182	9	C9H2N+
124.0308	34	C10H4+
125.026	5	C9H3N+
125.0387	6	C10H5+
126.0464	68	C10H6+
127.0416	34	C9H5N+
132.0442	14	C8H6NO+
134.015	23	C11H2+
135.0104	20	C10HN+
135.0229	35	C11H3+
136.0182	35	C10H2N+
136.0307	18	C11H4+
137.0386	294	C11H5+
138.0338	157	C10H4N+
138.0461	26	C11H6+
139.0417	7	C10H5N+
139.0541	29	C11H7+
140.0494	201	C10H6N+
148.0308	9	C12H4+
149.0386	25	C12H5+
150.0464	99	C12H6+
151.0417	29	C11H5N+
152.0498	1	C11H6N+
153.0572	2	C11H7N+
156.057	2	C11H8O+
157.0523	2	C10H7NO+
160.0183	6	C12H2N+
160.0308	15	C13H4+
161.0385	488	C13H5+
162.0339	121	C12H4N+
162.0463	194	C13H6+
163.0424	31	
163.0541	235	C13H7+
164.0494	152	C12H6N+
165.045	12	C11H5N2+
166.0411	11	C12H6O+
167.0492	2	C12H7O+
170.0605	1	C11H8NO+
174.0341	2	C13H4N+
175.0416	51	C13H5N+
176.0495	2	C13H6N+
181.0521	6	C12H7NO+
186.0338	109	C14H4N+
187.0416	122	C14H5N+
188.0494	816	C14H6N+
189.0447	32	C13H5N2+
189.0573	9	C14H7N+
190.0648	10	C14H8N+
191.0365	9	C13H5NO+
193.0525	3	C13H7NO+
194.0362	33	
204.0554	3	C13H6N3+
213.0447	59	C15H5N2+
214.0531	3	C15H6N2+
215.0606	17	C15H7N2+
219.0315	43	
232.063	2	C15H8N2O+
246.0417	1	C13H4N5O+
