Mass spectrum: Dichlofenthion; LC-ESI-QFT; MS2; CE: 60%; R=17500; [M+H]+
Name: Dichlofenthion
Name: (2,4-dichlorophenoxy)-diethoxy-sulfanylidene-lambda5-phosphane
Formula: C10H13Cl2O3PS
Exact mass: 313.9700
SMILES: CCOP(=S)(OCC)OC1=C(C=C(C=C1)Cl)Cl
InChI: InChI=1S/C10H13Cl2O3PS/c1-3-13-16(17,14-4-2)15-10-6-5-8(11)7-9(10)12/h5-7H,3-4H2,1-2H3
Instrument: Exploris 240 Orbitrap Thermo Scientific
Instrument type: LC-ESI-QFT
Ms type: MS2
Ion mode: POSITIVE
Ionization: ESI
Fragmentation mode: HCD
Collision energy: 60 % (nominal)
Resolution: 17500
Column name: XBridge C18 3.5um, 2.1x50mm, Waters
Retention time: 13.510 min
Base peak: 314.9773
Precursor m/z: 314.9773
Precursor type: [M+H]+
m/z	relative intensity	assigned
59.0492	25	C3H7O+
96.9508	840	H2O2PS+
98.9841	51	CH4ClO3+
99.0001	26	C5H4Cl+
110.9666	52	C2H4ClOS+
114.9613	869	H4O3PS+
126.9945	140	C6H4ClO+
128.0024	194	C6H5ClO+
128.9773	55	C2H6ClO2S+
142.9724	116	C6H4ClS+
143.9795	358	C6H5ClS+
145.9684	126	C6H4Cl2+
158.9663	142	C5H4O2PS+
160.9557	208	C6H3Cl2O+
161.9633	72	C6H4Cl2O+
162.9712	999	C6H5Cl2O+
176.9327	719	C6H3Cl2S+
178.9484	950	C6H5Cl2S+
204.9276	34	C7H3Cl2OS+
206.9607	69	C7H5Cl2O3+
222.8938	51	C6H2Cl2OPS+
222.9382	338	C7H5Cl2O2S+
224.9273	168	C6H4Cl2O3P+
240.9041	138	C6H4Cl2O2PS+
258.9145	546	C6H6Cl2O3PS+
