Mass spectrum: Bromuconazole; LC-ESI-QFT; MS2; CE: 30%; R=15000; [M+H]+
Name: Bromuconazole
Name: 1-[[4-bromo-2-(2,4-dichlorophenyl)oxolan-2-yl]methyl]-1,2,4-triazole
Formula: C13H12BrCl2N3O
Exact mass: 374.9540795
SMILES: ClC1=CC(Cl)=C(C=C1)C1(CN2C=NC=N2)CC(Br)CO1
InChI: InChI=1S/C13H12BrCl2N3O/c14-9-4-13(20-5-9,6-19-8-17-7-18-19)11-2-1-10(15)3-12(11)16/h1-3,7-9H,4-6H2
Instrument: Q Exactive Plus
Instrument type: LC-ESI-QFT
Ms type: MS2
Ion mode: POSITIVE
Ionization: ESI
Fragmentation mode: HCD
Collision energy: 30 % (nominal)
Resolution: 15000
Column name: XBridge C18 3.5um, 2.1x50mm, Waters
Retention time: 11.235 min
Base peak: 377.9593
Precursor m/z: 375.9614
Precursor type: [M+H]+
Precursor intensity: 139651018.12
m/z	relative intensity	assigned
70.04	381	C2H4N3+
158.9763	999	C7H5Cl2+
172.9556	38	C7H3Cl2O+
227.0026	42	C11H9Cl2O+
306.9287	25	C11H10BrCl2O+
375.9616	105	C13H13BrCl2N3O+
