Mass spectrum: Imidacloprid-urea; LC-ESI-ITFT; MS2; CE: 35%; R=15000; [M+H]+
Name: Imidacloprid-urea
Name: 1-[(6-Chloropyridin-3-yl)methyl]imidazolidin-2-one
Formula: C9H10ClN3O
Exact mass: 211.0512
SMILES: Clc2ncc(CN1CCNC1=O)cc2
InChI: InChI=1S/C9H10ClN3O/c10-8-2-1-7(5-12-8)6-13-4-3-11-9(13)14/h1-2,5H,3-4,6H2,(H,11,14)
Instrument: LTQ Orbitrap XL Thermo Scientific
Instrument type: LC-ESI-ITFT
Ms type: MS2
Ion mode: POSITIVE
Ionization: ESI
Fragmentation mode: CID
Collision energy: 35 % (nominal)
Resolution: 15000
Column name: XBridge C18 3.5um, 2.1x50mm, Waters
Retention time: 4.6 min
Base peak: 212.0588
Precursor m/z: 212.0585
Precursor type: [M+H]+
m/z	relative intensity	assigned
99.0553	100	C4H7N2O+
126.0106	6	C6H5ClN+
128.0262	999	C6H7ClN+
169.0527	5	C8H10ClN2+
176.082	2	C9H10N3O+
194.048	3	C9H9ClN3+
195.032	37	C9H8ClN2O+
