Mass spectrum: Metolachlor OXA; LC-ESI-ITFT; MS2; CE: 30%; R=7500; [M+H]+
Name: Metolachlor OXA
Name: 2-(2-ethyl-N-(2-methoxy-1-methyl-ethyl)-6-methyl-anilino)-2-keto-acetic acid
Formula: C15H21NO4
Exact mass: 279.1471
SMILES: CC1=CC=CC(CC)=C1N(C(C)COC)C(C(O)=O)=O
InChI: InChI=1S/C15H21NO4/c1-5-12-8-6-7-10(2)13(12)16(11(3)9-20-4)14(17)15(18)19/h6-8,11H,5,9H2,1-4H3,(H,18,19)
Instrument: LTQ Orbitrap XL Thermo Scientific
Instrument type: LC-ESI-ITFT
Ms type: MS2
Ion mode: POSITIVE
Ionization: ESI
Fragmentation mode: HCD
Collision energy: 30 % (nominal)
Resolution: 7500
Column name: XBridge C18 3.5um, 2.1x50mm, Waters
Retention time: 9.3 min
Base peak: 280.1539
Precursor m/z: 280.1543
Precursor type: [M+H]+
m/z	relative intensity	assigned
73.0648	25	C4H9O+
144.0811	1	C10H10N+
146.0964	9	C10H12N+
148.1124	3	C10H14N+
160.0761	1	C10H10NO+
160.1116	1	C11H14N+
162.0913	13	C10H12NO+
174.1274	2	C12H16N+
176.1432	5	C12H18N+
202.1232	4	C13H16NO+
204.1382	4	C13H18NO+
206.1541	4	C13H20NO+
208.0968	6	C11H14NO3+
220.1338	2	C13H18NO2+
234.1488	4	C14H20NO2+
248.1279	999	C14H18NO3+
280.1548	7	C15H22NO4+
