Mass spectrum: Ceftazidime; LC-ESI-QFT; MS2; CE: 45; R=35000; [M+H]+
Name: Ceftazidime
Name: (6R,7R)-7-[[(2Z)-2-(2-amino-1,3-thiazol-4-yl)-2-(2-carboxypropan-2-yloxyimino)acetyl]amino]-8-oxo-3-(pyridin-1-ium-1-ylmethyl)-5-thia-1-azabicyclo[4.2.0]oct-2-ene-2-carboxylate
Formula: C22H22N6O7S2
Exact mass: 546.09914
SMILES: O=C2N1/C(=C(\CS[C@@H]1[C@@H]2NC(=O)C(=N\OC(C(=O)O)(C)C)/c3nc(sc3)N)C[n+]4ccccc4)C([O-])=O
InChI: InChI=1S/C22H22N6O7S2/c1-22(2,20(33)34)35-26-13(12-10-37-21(23)24-12)16(29)25-14-17(30)28-15(19(31)32)11(9-36-18(14)28)8-27-6-4-3-5-7-27/h3-7,10,14,18H,8-9H2,1-2H3,(H4-,23,24,25,29,31,32,33,34)/b26-13-/t14-,18-/m1/s1
Instrument: Q Exactive Orbitrap Thermo Scientific
Instrument type: LC-ESI-QFT
Ms type: MS2
Ion mode: POSITIVE
Ionization: ESI
Fragmentation mode: HCD
Collision energy: 45 (nominal)
Resolution: 35000
Column name: XBridge C18 3.5um, 2.1x50mm, Waters
Retention time: 3.4 min
Base peak: 274.0573
Precursor m/z: 547.1064
Precursor type: [M+H]+
m/z	relative intensity	assigned
53.0387	5	C4H5+
59.0492	329	C3H7O+
59.9903	27	CH2NS+
60.9981	3	CH3NS+
65.0386	2	C5H5+
68.0494	23	C4H6N+
68.9793	3	C3HS+
69.0448	3	C3H5N2+
71.9903	13	C2H2NS+
72.998	4	C2H3NS+
78.034	4	C5H4N+
80.0495	317	C5H6N+
81.0336	5	C5H5O+
81.0448	4	C4H5N2+
81.0575	2	C5H7N+
85.0107	169	C4H5S+
86.006	6	C3H4NS+
87.044	29	C4H7O2+
90.0008	5	C2H4NOS+
93.0446	3	C5H5N2+
93.0573	4	C6H7N+
95.0605	28	C5H7N2+
96.0445	30	C5H6NO+
97.0107	251	C5H5S+
98.0059	13	C4H4NS+
99.0011	29	C3H3N2S+
99.0139	3	C4H5NS+
99.985	5	C3H2NOS+
100.0216	4	C4H6NS+
100.9929	6	C3H3NOS+
105.0447	38	C6H5N2+
106.0288	31	C6H4NO+
106.0526	28	C6H6N2+
107.0367	11	C6H5NO+
107.0604	195	C6H7N2+
108.0445	13	C6H6NO+
108.0683	114	C6H8N2+
109.0761	12	C6H9N2+
110.0059	15	C5H4NS+
110.0348	3	C4H4N3O+
111.0138	58	C5H5NS+
112.0216	660	C5H6NS+
113.0168	3	C4H5N2S+
113.0295	17	C5H7NS+
114.0121	49	C3H4N3S+
114.0371	25	C5H8NS+
114.9961	10	C3H3N2OS+
116.0277	44	C3H6N3S+
119.0607	4	C7H7N2+
121.0398	13	C6H5N2O+
122.0058	29	C6H4NS+
123.0554	12	C6H7N2O+
124.0216	150	C6H6NS+
125.0043	182	C4H3N3S+
126.0121	611	C4H4N3S+
126.9959	3	C4H3N2OS+
127.0198	23	C4H5N3S+
128.0278	11	C4H6N3S+
130.0322	10	C5H8NOS+
132.0226	26	C3H6N3OS+
133.0395	5	C7H5N2O+
134.0474	14	C7H6N2O+
137.017	24	C6H5N2S+
138.0009	3	C6H4NOS+
138.0124	5	C5H4N3S+
138.0297	13	C5H4N3O2+
139.0324	445	C6H7N2S+
140.0164	999	C6H6NOS+
141.048	387	C6H9N2S+
142.0071	772	C4H4N3OS+
142.9735	9	C4H3N2S2+
144.0227	235	C4H6N3OS+
145.0066	8	C4H5N2O2S+
146.0706	3	C8H8N3+
149.0168	4	C7H5N2S+
151.0327	29	C7H7N2S+
151.0501	28	C7H7N2O2+
152.0154	81	C5H4N4S+
152.0403	4	C7H8N2S+
153.0229	54	C5H5N4S+
154.0069	37	C5H4N3OS+
154.0308	4	C5H6N4S+
156.0114	15	C6H6NO2S+
158.0271	43	C6H8NO2S+
163.0325	19	C8H7N2S+
165.0118	34	C7H5N2OS+
165.0353	4	C7H7N3S+
166.0195	4	C7H6N2OS+
166.0307	12	C6H6N4S+
167.0273	994	C7H7N2OS+
168.0113	19	C7H6NO2S+
169.0178	16	C5H5N4OS+
171.0335	3	C5H7N4OS+
173.0822	4	C9H9N4+
175.0327	4	C9H7N2S+
176.0279	23	C8H6N3S+
178.0433	15	C8H8N3S+
179.0021	7	C6H3N4OS+
180.01	23	C6H4N4OS+
181.0066	17	C7H5N2O2S+
181.0179	198	C6H5N4OS+
182.002	98	C6H4N3O2S+
182.0256	90	C6H6N4OS+
183.0335	24	C6H7N4OS+
185.0378	24	C7H9N2O2S+
185.0824	6	C10H9N4+
188.0279	16	C9H6N3S+
189.0356	13	C9H7N3S+
190.0195	17	C9H6N2OS+
190.0433	23	C9H8N3S+
191.0274	53	C9H7N2OS+
191.0357	3	C5H9N3O3S+
191.0394	3	C2H13N3O3S2+
192.0225	3	C8H6N3OS+
193.0176	15	C7H5N4OS+
197.0126	399	C6H5N4O2S+
198.02	12	C6H6N4O2S+
200.0278	2	C10H6N3S+
201.9738	14	C5H4N3O2S2+
203.0381	22	CH11N6O2S2+
204.0466	5	C9H8N4S+
205.0308	6	C3H13N2O4S2+
205.0541	19	C9H9N4S+
207.0048	18	C9H7N2S2+
207.9999	12	C8H6N3S2+
209.0128	50	C7H5N4O2S+
210.0036	3	C8H4NO6+
210.0204	18	C7H6N4O2S+
211.0173	39	C8H7N2O3S+
211.0255	4	C12H5NO3+
216.0215	3	C10H6N3OS+
216.0462	17	C10H8N4S+
217.0543	56	C10H9N4S+
218.0384	40	C10H8N3OS+
218.0481	4	C8H12NO4S+
219.0464	3	C10H9N3OS+
222.0153	12	C9H8N3S2+
225.9975	21	C7H6N4OS2+
230.0494	28	C10H8N5S+
231.0575	43	C10H9N5S+
231.9998	24	C10H6N3S2+
232.0412	35	C10H8N4OS+
232.0652	86	C10H10N5S+
233.0495	20	C10H9N4OS+
234.9996	55	C10H7N2OS2+
237.0258	6	C9H9N4S2+
243.0335	5	C11H7N4OS+
243.0574	6	C11H9N5S+
244.0416	13	C11H8N4OS+
244.0652	91	C11H10N5S+
245.049	98	C11H9N4OS+
247.0104	20	C10H7N4S2+
248.0185	20	C10H8N4S2+
249.0263	139	C10H9N4S2+
250.0101	46	C10H8N3OS2+
260.0192	4	C12H6NO6+
260.0599	27	C11H10N5OS+
264.0369	15	C10H10N5S2+
265.0211	5	C10H9N4OS2+
276.0372	14	C11H10N5S2+
277.0211	104	C10H5N4O6+
283.0496	4	C10H11N4O4S+
292.0318	5	C11H10N5OS2+
