Mass spectrum: Imidacloprid; LC-ESI-ITFT; MS2; CE: 75%; R=15000; [M+H]+
Name: Imidacloprid
Name: N-[1-[(6-chloranylpyridin-3-yl)methyl]-4,5-dihydroimidazol-2-yl]nitramide
Formula: C9H10ClN5O2
Exact mass: 255.0523
SMILES: Cl-c(ncc1CN(CC2)C(N2)=NN(=O)=O)cc1
InChI: InChI=1S/C9H10ClN5O2/c10-8-2-1-7(5-12-8)6-14-4-3-11-9(14)13-15(16)17/h1-2,5H,3-4,6H2,(H,11,13)
Instrument: LTQ Orbitrap XL Thermo Scientific
Instrument type: LC-ESI-ITFT
Ms type: MS2
Ion mode: POSITIVE
Ionization: ESI
Fragmentation mode: HCD
Collision energy: 75 % (nominal)
Resolution: 15000
Column name: XBridge C18 3.5um, 2.1x50mm, Waters
Retention time: 4.8 min
Base peak: 256.0596
Precursor m/z: 256.0596
Precursor type: [M+H]+
m/z	relative intensity	assigned
56.0494	12	C3H6N+
65.0386	2	C5H5+
69.0446	3	C3H5N2+
71.0603	6	C3H7N2+
72.068	1	C3H8N2+
78.0338	2	C5H4N+
79.054	1	C6H7+
80.0494	4	C5H6N+
84.0556	136	C3H6N3+
90.0337	9	C6H4N+
91.0415	1	C6H5N+
92.0494	10	C6H6N+
93.0573	7	C6H7N+
96.0443	2	C5H6NO+
97.0635	5	C4H7N3+
98.0712	10	C4H8N3+
98.9996	6	C5H4Cl+
99.0552	19	C4H7N2O+
102.0427	1	ClH9N3O+
104.0493	3	C7H6N+
105.0447	18	C6H5N2+
106.0525	2	C6H6N2+
106.0651	25	C7H8N+
107.0603	24	C6H7N2+
108.068	6	C6H8N2+
109.0638	1	C5H7N3+
110.0597	3	C6H8NO+
113.0027	4	C5H4ClN+
114.0104	12	C5H5ClN+
117.0447	1	C7H5N2+
117.0576	2	C8H7N+
118.0525	4	C7H6N2+
119.0477	8	C6H5N3+
119.0603	25	C7H7N2+
120.0555	15	C6H6N3+
120.0681	2	C7H8N2+
121.0633	2	C6H7N3+
122.0714	5	C6H8N3+
123.0552	4	C6H7N2O+
126.0104	123	C6H5ClN+
127.0183	18	C6H6ClN+
128.0261	97	C6H7ClN+
128.9977	1	C5H4ClNO+
131.0476	3	C7H5N3+
131.0603	18	C8H7N2+
132.0555	17	C7H6N3+
132.068	7	C8H8N2+
133.0634	48	C7H7N3+
133.076	55	C8H9N2+
134.0712	40	C7H8N3+
134.0836	3	C8H10N2+
135.0553	1	C7H7N2O+
135.079	8	C7H9N3+
138.0101	2	C7H5ClN+
139.0057	10	C6H4ClN2+
139.0184	1	C7H6ClN+
140.0136	3	C6H5ClN2+
140.026	4	C7H7ClN+
141.0213	53	C6H6ClN2+
142.0055	2	C6H5ClNO+
142.0294	2	C6H7ClN2+
144.021	6	C6H7ClNO+
144.9924	9	C5H4ClNO2+
145.0507	3	C7H5N4+
146.0587	27	C7H6N4+
146.0712	119	C8H8N3+
147.0664	147	C7H7N4+
147.0788	8	C8H9N3+
148.0743	4	C7H8N4+
148.0868	62	C8H10N3+
150.0659	2	C7H8N3O+
151.0061	2	C7H4ClN2+
151.0184	7	C8H6ClN+
152.0133	5	C7H5ClN2+
153.0214	7	C7H6ClN2+
154.0165	4	C6H5ClN3+
155.0367	5	C7H8ClN2+
157.0635	6	C9H7N3+
158.0711	72	C9H8N3+
159.0667	12	C8H7N4+
159.079	96	C9H9N3+
160.0745	2	C8H8N4+
160.0868	5	C9H10N3+
165.0211	4	C8H6ClN2+
166.0165	13	C7H5ClN3+
167.0003	2	C7H4ClN2O+
167.037	41	C8H8ClN2+
168.0322	2	C7H7ClN3+
173.0821	187	C9H9N4+
174.0899	160	C9H10N4+
175.0977	997	C9H11N4+
176.0819	2	C9H10N3O+
180.0198	4	C7H5ClN4+
180.032	12	C8H7ClN3+
181.0274	58	C7H6ClN4+
182.0479	3	C8H9ClN3+
191.0926	22	C9H11N4O+
192.0318	3	C9H7ClN3+
193.04	5	C9H8ClN3+
194.0479	26	C9H9ClN3+
195.0435	3	C8H8ClN4+
207.0432	5	C9H8ClN4+
208.051	21	C9H9ClN4+
209.0588	999	C9H10ClN4+
