Mass spectrum: MCLF; LC-ESI-QFT; MS2; CE: 30%; R=17500; [M-H]-
Name: MCLF
Name: Microcystin LF
Name: 15-benzyl-18-[(1E,3E)-6-methoxy-3,5-dimethyl-7-phenylhepta-1,3-dienyl]-1,5,12,19-tetramethyl-2-methylidene-8-(2-methylpropyl)-3,6,9,13,16,20,25-heptaoxo-1,4,7,10,14,17,21-heptazacyclopentacosane-11,22-dicarboxylic acid
Class: NA
Formula: C52H71N7O12
Exact mass: 985.5161
SMILES: COC(Cc1ccccc1)C(C)/C=C(C)/C=C/C2NC(=O)C(Cc3ccccc3)NC(=O)C(C)C(NC(=O)C(CC(C)C)NC(=O)C(C)NC(=O)C(=C)N(C)C(=O)CCC(NC(=O)C2C)C(O)=O)C(O)=O
InChI: InChI=1S/C52H71N7O12/c1-29(2)25-40-50(66)58-44(52(69)70)33(6)46(62)56-41(27-36-17-13-11-14-18-36)49(65)54-38(22-21-30(3)26-31(4)42(71-10)28-37-19-15-12-16-20-37)32(5)45(61)55-39(51(67)68)23-24-43(60)59(9)35(8)48(64)53-34(7)47(63)57-40/h11-22,26,29,31-34,38-42,44H,8,23-25,27-28H2,1-7,9-10H3,(H,53,64)(H,54,65)(H,55,61)(H,56,62)(H,57,63)(H,58,66)(H,67,68)(H,69,70)/b22-21+,30-26+
Instrument: Q Exactive Plus Orbitrap Thermo Scientific
Instrument type: LC-ESI-QFT
Ms type: MS2
Ion mode: NEGATIVE
Ionization: ESI
Fragmentation mode: HCD
Collision energy: 30 % (nominal)
Resolution: 17500
Column name: XBridge C18 3.5um, 2.1x50mm, Waters
Retention time: 12.295 min
Base peak: 190.9277
Precursor m/z: 984.5088
Precursor type: [M-H]-
m/z	relative intensity	assigned
73.0294	5	C3H5O2-
84.0453	10	C4H6NO-
100.0403	19	C4H6NO2-
110.0248	227	C5H4NO2-
112.0404	31	C5H6NO2-
124.0404	50	C6H6NO2-
127.0512	38	C5H7N2O2-
128.0354	999	C5H6NO3-
129.1036	23	C6H13N2O-
131.0866	8	C10H11-
139.0878	17	C7H11N2O-
153.0668	50	C7H9N2O2-
155.0829	24	C7H11N2O2-
165.1027	35	C9H13N2O-
167.0825	14	C8H11N2O2-
170.0938	22	C7H12N3O2-
171.078	7	C7H11N2O3-
181.0616	17	C8H9N2O3-
182.1296	24	C9H16N3O-
184.0615	29	C8H10NO4-
198.0886	9	C8H12N3O3-
198.1245	8	C9H16N3O2-
200.1396	86	C7H16N6O-
205.0968	8	C9H11N5O-
211.0718	31	C9H11N2O4-
212.1393	11	C8H16N6O-
213.1037	5	H21O12-
214.087	9	C13H12NO2-
226.1188	39	C8H14N6O2-
240.1345	42	C9H16N6O2-
257.0932	12	C14H13N2O3-
265.1656	250	C11H19N7O-
283.1762	396	C11H21N7O2-
311.1718	105	C13H27O8-
313.1815	29	C6H27N5O9-
325.1898	6	C3H29N6O11-
384.2339	12	C13H32N6O7-
394.2115	15	C6H32N7O12-
403.2403	9	C12H33N7O8-
412.2208	84	C18H30N5O6-
424.2139	23	C26H26N5O-
445.2495	6	C28H33N2O3-
570.2983	12	C35H36N7O-
571.2823	147	C20H41N7O12-
682.3155	22	C42H42N4O5-
699.3411	14	C41H49NO9-
708.4	41	C41H52N6O5-
725.4248	19	C38H57N6O8-
764.3694	36	C46H48N6O5-
765.3521	63	C45H51NO10-
865.4522	11	C50H63N3O10-
966.4995	756	C52H68N7O11-
984.5069	52	C52H70N7O12-
