Mass spectrum: 4-Isopropylaniline; LC-ESI-ITFT; MS2; CE: 75%; R=7500; [M+H]+
Name: 4-Isopropylaniline
Name: 4-propan-2-ylaniline
Formula: C9H13N
Exact mass: 135.1048
SMILES: c1(C(C)C)ccc(N)cc1
InChI: InChI=1S/C9H13N/c1-7(2)8-3-5-9(10)6-4-8/h3-7H,10H2,1-2H3
Instrument: LTQ Orbitrap XL Thermo Scientific
Instrument type: LC-ESI-ITFT
Ms type: MS2
Ion mode: POSITIVE
Ionization: ESI
Fragmentation mode: HCD
Collision energy: 75 % (nominal)
Resolution: 7500
Column name: XBridge C18 3.5um, 2.1x50mm, Waters
Retention time: 5.2 min
Base peak: 136.112
Precursor m/z: 136.1121
Precursor type: [M+H]+
m/z	relative intensity	assigned
77.0385	37	C6H5+
79.0541	24	C6H7+
91.0541	323	C7H7+
93.0572	18	C6H7N+
93.07	14	C7H9+
94.065	825	C6H8N+
103.0543	23	C8H7+
104.0619	47	C8H8+
105.0448	9	C6H5N2+
117.0697	49	C9H9+
119.0854	20	C9H11+
120.0804	40	C8H10N+
121.0884	91	C8H11N+
136.112	999	C9H14N+
147.0915	63	C9H11N2+
