Mass spectrum: Trimethoprim; LC-ESI-ITFT; MS2; CE: 90%; R=7500; [M+H]+
Name: Trimethoprim
Name: 2,4-Diamino-5-(3,4,5-trimethoxybenzyl)pyrimidine
Name: 5-[(3,4,5-trimethoxyphenyl)methyl]pyrimidine-2,4-diamine
Formula: C14H18N4O3
Exact mass: 290.1379
SMILES: c1(Cc2c(nc(N)nc2)N)cc(c(OC)c(c1)OC)OC
InChI: InChI=1S/C14H18N4O3/c1-19-10-5-8(6-11(20-2)12(10)21-3)4-9-7-17-14(16)18-13(9)15/h5-7H,4H2,1-3H3,(H4,15,16,17,18)
Instrument: LTQ Orbitrap XL Thermo Scientific
Instrument type: LC-ESI-ITFT
Ms type: MS2
Ion mode: POSITIVE
Ionization: ESI
Fragmentation mode: HCD
Collision energy: 90 % (nominal)
Resolution: 7500
Column name: XBridge C18 3.5um, 2.1x50mm, Waters
Retention time: 3.8 min
Base peak: 291.1463
Precursor m/z: 291.1452
Precursor type: [M+H]+
m/z	relative intensity	assigned
54.0338	21	C3H4N+
60.0556	14	CH6N3+
68.037	34	C3H4N2+
72.0315	14	C2H4N2O+
81.0448	440	C4H5N2+
83.0481	20	C3H5N3+
91.0543	29	C7H7+
95.0488	16	C6H7O+
104.0494	13	C7H6N+
106.0398	35	C5H4N3+
107.0491	29	C7H7O+
109.0508	38	C4H5N4+
110.0587	231	C4H6N4+
111.0667	104	C4H7N4+
115.0541	24	C9H7+
119.049	20	C8H7O+
121.076	36	C7H9N2+
123.044	157	C7H7O2+
123.0666	999	C5H7N4+
124.0744	111	C5H8N4+
128.0499	23	C9H6N+
130.065	17	C9H8N+
132.0442	13	C8H6NO+
135.0441	27	C8H7O2+
135.0666	73	C6H7N4+
137.0599	67	C8H9O2+
142.0653	48	C10H8N+
145.0762	31	C9H9N2+
146.0598	18	C9H8NO+
146.0715	71	C8H8N3+
147.066	21	C7H7N4+
148.0512	16	C9H8O2+
148.0739	42	C7H8N4+
149.0233	25	C8H5O3+
149.0709	172	C8H9N2O+
149.0826	63	C7H9N4+
151.0392	50	C8H7O3+
157.0754	32	C10H9N2+
158.0595	32	C10H8NO+
159.0923	41	C10H11N2+
161.0822	264	C8H9N4+
162.0899	112	C8H10N4+
163.0977	23	C8H11N4+
165.0765	23	C7H9N4O+
172.0744	21	C9H8N4+
173.0816	63	C9H9N4+
174.0662	162	C9H8N3O+
174.0899	15	C9H10N4+
175.0611	55	C8H7N4O+
175.0977	47	C9H11N4+
176.07	29	C8H8N4O+
184.0869	46	C11H10N3+
186.0901	40	C10H10N4+
187.0976	217	C10H11N4+
189.0766	45	C9H9N4O+
190.0848	105	C9H10N4O+
191.0923	45	C9H11N4O+
199.098	102	C11H11N4+
201.0772	31	C10H9N4O+
201.1135	251	C11H13N4+
203.0929	89	C10H11N4O+
211.0978	20	C12H11N4+
212.0822	24	C12H10N3O+
214.0623	14	C13H10O3+
215.0694	13	C11H9N3O2+
215.0926	90	C11H11N4O+
217.0605	21	C11H9N2O3+
217.1105	18	C13H15NO2+
228.1	19	C12H12N4O+
229.1086	288	C12H13N4O+
231.0877	237	C11H11N4O2+
232.0956	267	C11H12N4O2+
233.1034	287	C11H13N4O2+
243.0884	21	C12H11N4O2+
245.1033	212	C12H13N4O2+
247.0825	102	C11H11N4O3+
257.1036	173	C13H13N4O2+
259.0824	73	C12H11N4O3+
261.0983	90	C12H13N4O3+
275.113	63	C13H15N4O3+
