Mass spectrum: Furalaxyl; LC-ESI-QFT; MS2; CE: 45; R=35000; [M+H]+
Name: Furalaxyl
Name: 2-(N-[2-furanyl(oxo)methyl]-2,6-dimethylanilino)propanoic acid methyl ester
Formula: C17H19NO4
Exact mass: 301.13141
SMILES: O=C(N(c1c(cccc1C)C)C(C(=O)OC)C)c2occc2
InChI: InChI=1S/C17H19NO4/c1-11-7-5-8-12(2)15(11)18(13(3)17(20)21-4)16(19)14-9-6-10-22-14/h5-10,13H,1-4H3
Instrument: Q Exactive Orbitrap Thermo Scientific
Instrument type: LC-ESI-QFT
Ms type: MS2
Ion mode: POSITIVE
Ionization: ESI
Fragmentation mode: HCD
Collision energy: 45 (nominal)
Resolution: 35000
Column name: XBridge C18 3.5um, 2.1x50mm, Waters
Retention time: 10.0 min
Base peak: 302.1391
Precursor m/z: 302.1387
Precursor type: [M+H]+
m/z	relative intensity	assigned
83.0127	1	C4H3O2+
95.0128	999	C5H3O2+
146.0964	3	C10H12N+
198.0914	1	C13H12NO+
215.0943	1	C13H13NO2+
242.1177	91	C15H16NO2+
