Mass spectrum: Eprosartan; LC-ESI-ITFT; MS2; CE: 35%; R=7500; [M-H]-
Name: Eprosartan
Name: 4-[[2-butyl-5-[(E)-3-hydroxy-3-keto-2-(2-thenyl)prop-1-enyl]imidazol-1-yl]methyl]benzoic acid
Formula: C23H24N2O4S
Exact mass: 424.1457
SMILES: CCCCC1=NC=C(N1CC2=CC=C(C=C2)C(=O)O)/C=C(\CC3=CC=CS3)/C(=O)O
InChI: InChI=1S/C23H24N2O4S/c1-2-3-6-21-24-14-19(12-18(23(28)29)13-20-5-4-11-30-20)25(21)15-16-7-9-17(10-8-16)22(26)27/h4-5,7-12,14H,2-3,6,13,15H2,1H3,(H,26,27)(H,28,29)/b18-12+
Instrument: LTQ Orbitrap XL Thermo Scientific
Instrument type: LC-ESI-ITFT
Ms type: MS2
Ion mode: NEGATIVE
Ionization: ESI
Fragmentation mode: CID
Collision energy: 35 % (nominal)
Resolution: 7500
Column name: XBridge C18 3.5um, 2.1x50mm, Waters
Retention time: 6.2 min
Base peak: 423.1373
Precursor m/z: 423.1384
Precursor type: [M-H]-
m/z	relative intensity	assigned
197.0423	1	C13H9S-
199.0591	1	C13H11S-
237.1394	8	C16H17N2-
243.0487	6	C14H11O2S-
244.1037	2	C14H16N2S-
281.1293	55	C17H17N2O2-
335.1585	29	C21H23N2S-
379.1486	999	C22H23N2O2S-
405.1275	50	C23H21N2O3S-
