Mass spectrum: Cyprodinil-TP CGA 249287; LC-ESI-QFT; MS2; CE: 60%; R=17500; [M+H]+
Name: Cyprodinil-TP CGA 249287
Name: 4-Cyclopropyl-6-methyl-2-pyrimidinamine
Name: 4-cyclopropyl-6-methylpyrimidin-2-amine
Formula: C8H11N3
Exact mass: 149.0953
SMILES: CC1=NC(N)=NC(=C1)C1CC1
InChI: InChI=1S/C8H11N3/c1-5-4-7(6-2-3-6)11-8(9)10-5/h4,6H,2-3H2,1H3,(H2,9,10,11)
Instrument: Q Exactive Plus Orbitrap Thermo Scientific
Instrument type: LC-ESI-QFT
Ms type: MS2
Ion mode: POSITIVE
Ionization: ESI
Fragmentation mode: HCD
Collision energy: 60 % (nominal)
Resolution: 17500
Column name: XBridge C18 3.5um, 2.1x50mm, Waters
Retention time: 2.394 min
Base peak: 150.1026
Precursor m/z: 150.1026
Precursor type: [M+H]+
m/z	relative intensity	assigned
65.0385	16	C5H5+
66.0338	1	C4H4N+
67.0291	18	C3H3N2+
67.0542	12	C5H7+
68.0495	11	C4H6N+
69.4464	1	
79.0542	10	C6H7+
80.0493	10	C5H6N+
81.07	5	C6H9+
82.0652	10	C5H8N+
83.0604	44	C4H7N2+
91.0542	10	C7H7+
92.0495	37	C6H6N+
93.0574	30	C6H7N+
95.0603	16	C5H7N2+
105.0449	2	C6H5N2+
106.0651	38	C7H8N+
107.0605	7	C6H7N2+
108.0556	22	C5H6N3+
108.0807	75	C7H10N+
109.076	21	C6H9N2+
110.0601	11	
116.0494	10	C8H6N+
117.0449	2	C7H5N2+
117.057	2	C8H7N+
118.0525	55	C7H6N2+
122.0709	7	C6H8N3+
123.0915	3	C7H11N2+
124.0756	5	
131.0603	3	C8H7N2+
132.0682	30	C8H8N2+
133.076	160	C8H9N2+
134.0601	6	
135.0553	4	
148.0869	2	C8H10N3+
149.0945	2	C8H11N3+
150.1026	999	C8H12N3+
151.0865	11	
