Mass spectrum: Pyridate; LC-ESI-QFT; MS2; CE: 180; R=35000; [M+H]+
Name: Pyridate
Name: Pyridat
Name: (6-chloro-3-phenylpyridazin-4-yl) octylsulfanylformate
Formula: C19H23ClN2O2S
Exact mass: 378.11688
SMILES: O=C(SCCCCCCCC)Oc2cc(Cl)nnc2c1ccccc1
InChI: InChI=1S/C19H23ClN2O2S/c1-2-3-4-5-6-10-13-25-19(23)24-16-14-17(20)21-22-18(16)15-11-8-7-9-12-15/h7-9,11-12,14H,2-6,10,13H2,1H3
Instrument: Q Exactive Plus Orbitrap Thermo Scientific
Instrument type: LC-ESI-QFT
Ms type: MS2
Ion mode: POSITIVE
Ionization: ESI
Fragmentation mode: HCD
Collision energy: 180 (nominal)
Resolution: 35000
Column name: XBridge C18 3.5um, 2.1x50mm, Waters
Retention time: 18.1 min
Base peak: 379.1241
Precursor m/z: 379.1242
Precursor type: [M+H]+
m/z	relative intensity	assigned
50.0152	406	C4H2+
51.023	999	C4H3+
52.0183	8	C3H2N+
52.0308	12	C4H4+
53.0023	70	C3HO+
53.0386	82	C4H5+
53.9975	24	C2NO+
55.0543	3	C4H7+
60.984	3	C2H2Cl+
61.9793	221	CHClN+
62.0152	11	
62.9633	30	CClO+
63.0229	59	C5H3+
65.0022	27	C4HO+
65.0386	32	C5H5+
66.0101	9	C4H2O+
66.0465	2	C5H6+
67.0053	3	C3HNO+
67.0542	2	C5H7+
68.0131	725	C3H2NO+
72.9839	4	C3H2Cl+
74.0151	148	C6H2+
75.023	34	C6H3+
76.0308	61	C6H4+
77.0386	183	C6H5+
78.0085	2	C3N3+
81.0335	11	C5H5O+
85.9793	4	C3HClN+
86.0151	33	C7H2+
86.9633	23	C3ClO+
87.023	49	C7H3+
89.0386	60	C7H5+
90.0465	5	C7H6+
91.0543	3	C7H7+
94.0414	3	C6H6O+
95.0492	227	C6H7O+
98.0152	84	C8H2+
99.0229	10	C8H3+
100.0309	23	C8H4+
104.0496	28	C7H6N+
105.0448	135	C6H5N2+
111.0229	4	C9H3+
115.0542	32	C9H7+
126.0465	68	C10H6+
