Mass spectrum: 2-Phenylpiperidine-2-acetamide; LC-ESI-QFT; MS2; CE: 120; R=35000; [M+H]+
Name: 2-Phenylpiperidine-2-acetamide
Name: 2-phenyl-2-piperidin-2-ylacetamide
Name: 2-Phenyl-2-(2-piperidinyl)acetamide
Formula: C13H18N2O
Exact mass: 218.14191
SMILES: C1CCNC(C1)C(C2=CC=CC=C2)C(=O)N
InChI: InChI=1S/C13H18N2O/c14-13(16)12(10-6-2-1-3-7-10)11-8-4-5-9-15-11/h1-3,6-7,11-12,15H,4-5,8-9H2,(H2,14,16)
Instrument: Q Exactive Plus Orbitrap Thermo Scientific
Instrument type: LC-ESI-QFT
Ms type: MS2
Ion mode: POSITIVE
Ionization: ESI
Fragmentation mode: HCD
Collision energy: 120 (nominal)
Resolution: 35000
Column name: XBridge C18 3.5um, 2.1x50mm, Waters
Retention time: 4.0 min
Base peak: 219.149
Precursor m/z: 219.1492
Precursor type: [M+H]+
m/z	relative intensity	assigned
54.0339	2	C3H4N+
55.0543	67	C4H7+
56.0495	525	C3H6N+
57.0699	4	C4H9+
65.0386	8	C5H5+
67.0542	46	C5H7+
68.0495	4	C4H6N+
69.0573	18	C4H7N+
82.0651	13	C5H8N+
84.0807	999	C5H10N+
91.0542	19	C7H7+
115.0542	2	C9H7+
128.062	1	C10H8+
