Mass spectrum: Nafcillin; LC-ESI-QFT; MS2; CE: 30; R=35000; [M-H]-
Name: Nafcillin
Name: (2S,5R,6R)-6-[(2-ethoxynaphthalene-1-carbonyl)amino]-3,3-dimethyl-7-oxo-4-thia-1-azabicyclo[3.2.0]heptane-2-carboxylic acid
Formula: C21H22N2O5S
Exact mass: 414.12494
SMILES: CCOC1=C(C(=O)N[C@H]2[C@H]3SC(C)(C)[C@@H](N3C2=O)C(O)=O)C2=CC=CC=C2C=C1
InChI: InChI=1S/C21H22N2O5S/c1-4-28-13-10-9-11-7-5-6-8-12(11)14(13)17(24)22-15-18(25)23-16(20(26)27)21(2,3)29-19(15)23/h5-10,15-16,19H,4H2,1-3H3,(H,22,24)(H,26,27)/t15-,16+,19-/m1/s1
Instrument: Q Exactive Plus Orbitrap Thermo Scientific
Instrument type: LC-ESI-QFT
Ms type: MS2
Ion mode: NEGATIVE
Ionization: ESI
Fragmentation mode: HCD
Collision energy: 30 (nominal)
Resolution: 35000
Column name: XBridge C18 3.5um, 2.1x50mm, Waters
Retention time: 9.7 min
Base peak: 413.1172
Precursor m/z: 413.1177
Precursor type: [M-H]-
m/z	relative intensity	assigned
61.0117	1	C2H5S-
72.9991	66	C2H3NS-
74.007	1	C2H4NS-
99.9862	20	C3H2NOS-
102.0382	2	C4H8NS-
128.0174	1	C5H6NOS-
143.0501	31	C2H11N2O3S-
146.0282	1	C5H8NO2S-
168.0453	1	C11H6NO-
170.0521	1	C7H10N2OS-
182.061	125	C12H8NO-
186.0559	7	C11H8NO2-
210.056	9	C13H8NO2-
215.041	2	C12H9NOS-
226.0333	247	C13H8NOS-
243.0359	999	C13H9NO2S-
244.0439	19	C13H10NO2S-
272.0751	792	C15H14NO2S-
369.1286	1	C20H21N2O3S-
