Mass spectrum: Lorazepam; LC-ESI-QFT; MS2; CE: 75; R=35000; [M+H]+
Name: Lorazepam
Name: 2H-1,4-Benzodiazepin-2-one, 7-chloro-5-(2-chlorophenyl)-1,3-dihydro-3-hydroxy-
Name: 7-chloranyl-5-(2-chlorophenyl)-3-oxidanyl-1,3-dihydro-1,4-benzodiazepin-2-one
Formula: C15H10Cl2N2O2
Exact mass: 320.01193
SMILES: Clc3ccccc3C/2=N/C(O)C(=O)Nc1c\2cc(Cl)cc1
InChI: InChI=1S/C15H10Cl2N2O2/c16-8-5-6-12-10(7-8)13(19-15(21)14(20)18-12)9-3-1-2-4-11(9)17/h1-7,15,21H,(H,18,20)
Instrument: Q Exactive Orbitrap Thermo Scientific
Instrument type: LC-ESI-QFT
Ms type: MS2
Ion mode: POSITIVE
Ionization: ESI
Fragmentation mode: HCD
Collision energy: 75 (nominal)
Resolution: 35000
Column name: XBridge C18 3.5um, 2.1x50mm, Waters
Retention time: 8.9 min
Base peak: 321.0195
Precursor m/z: 321.0192
Precursor type: [M+H]+
m/z	relative intensity	assigned
65.0386	1	C5H5+
66.0464	3	C5H6+
75.0228	7	C6H3+
76.0181	1	C5H2N+
77.0384	2	C6H5+
78.0338	1	C5H4N+
86.9995	1	C4H4Cl+
90.0339	3	C6H4N+
92.0494	4	C6H6N+
93.0572	119	C6H7N+
95.049	5	C6H7O+
98.9997	1	C5H4Cl+
100.0181	4	C7H2N+
102.0336	10	C7H4N+
105.0447	1	C6H5N2+
110.9994	1	C6H4Cl+
113.0151	1	C6H6Cl+
117.0446	5	C7H5N2+
118.0524	18	C7H6N2+
120.0443	25	C7H6NO+
126.0103	9	C6H5ClN+
127.0179	1	C9H3O+
128.0261	68	C6H7ClN+
129.01	15	C6H6ClO+
130.0399	77	C7H4N3+
135.9947	5	C7H3ClN+
138.0104	389	C7H5ClN+
139.0057	46	C6H4ClN2+
145.0509	4	C7H5N4+
151.0059	4	C7H4ClN2+
152.0137	3	C7H5ClN2+
153.0214	37	C7H6ClN2+
154.0054	9	C7H5ClNO+
156.021	5	C7H7ClNO+
163.0057	459	C8H4ClN2+
164.0009	55	C10N2O+
166.0053	20	C8H5ClNO+
166.0651	13	C12H8N+
167.0728	8	C12H9N+
177.0572	33	C13H7N+
178.065	3	C13H8N+
179.0006	4	C8H4ClN2O+
181.0163	42	C8H6ClN2O+
186.023	6	C12H7Cl+
192.0683	2	C13H8N2+
193.0761	23	C13H9N2+
194.0838	407	C13H10N2+
195.092	3	C13H11N2+
203.0601	4	C14H7N2+
204.0682	19	C14H8N2+
205.0761	90	C14H9N2+
206.0597	7	C14H8NO+
212.0259	3	C13H7ClN+
213.0337	15	C13H8ClN+
214.042	7	C13H9ClN+
221.0708	10	C14H9N2O+
228.0447	6	C13H9ClN2+
229.0527	999	C13H10ClN2+
230.0362	3	C13H9ClNO+
239.037	213	C14H8ClN2+
240.0449	11	C14H9ClN2+
241.0288	12	C14H8ClNO+
248.003	14	C13H8Cl2N+
255.032	4	C14H8ClN2O+
257.0477	15	C14H10ClN2O+
263.0137	41	C13H9Cl2N2+
272.9978	10	C14H7Cl2N2+
275.0137	916	C14H9Cl2N2+
275.9974	1	C14H8Cl2NO+
291.0086	27	C14H9Cl2N2O+
303.0082	3	C15H9Cl2N2O+
