Mass spectrum: 1H-Benzotriazole, 4(or 5)-methyl-; LC-ESI-QFT; MS2; CE: 45; R=35000; [M+H]+
Name: 1H-Benzotriazole, 4(or 5)-methyl-
Name: 4-methyl-2H-benzotriazole
Formula: C7H7N3
Exact mass: 133.06400
SMILES: n1nc2c(cccc2[nH]1)C
InChI: InChI=1S/C7H7N3/c1-5-3-2-4-6-7(5)9-10-8-6/h2-4H,1H3,(H,8,9,10)
Instrument: Q Exactive Plus Orbitrap Thermo Scientific
Instrument type: LC-ESI-QFT
Ms type: MS2
Ion mode: POSITIVE
Ionization: ESI
Fragmentation mode: HCD
Collision energy: 45 (nominal)
Resolution: 35000
Column name: XBridge C18 3.5um, 2.1x50mm, Waters
Retention time: 5.8 min
Base peak: 134.0712
Precursor m/z: 134.0713
Precursor type: [M+H]+
m/z	relative intensity	assigned
53.0386	3	C4H5+
77.0384	8	C6H5+
78.0337	1	C5H4N+
79.0542	91	C6H7+
80.0494	1	C5H6N+
95.0492	10	C6H7O+
96.0444	2	C5H6NO+
105.0448	5	C6H5N2+
106.0651	50	C7H8N+
134.0712	999	C7H8N3+
