Mass spectrum: Bexarotene; LC-ESI-QFT; MS2; CE: 30; R=35000; [M+H]+
Name: Bexarotene
Name: 4-[1-(3,5,5,8,8-pentamethyl-6,7-dihydronaphthalen-2-yl)ethenyl]benzoic acid
Formula: C24H28O2
Exact mass: 348.20893
SMILES: CC1=CC2=C(C=C1C(=C)C3=CC=C(C=C3)C(=O)O)C(CCC2(C)C)(C)C
InChI: InChI=1S/C24H28O2/c1-15-13-20-21(24(5,6)12-11-23(20,3)4)14-19(15)16(2)17-7-9-18(10-8-17)22(25)26/h7-10,13-14H,2,11-12H2,1,3-6H3,(H,25,26)
Instrument: Q Exactive Orbitrap Thermo Scientific
Instrument type: LC-ESI-QFT
Ms type: MS2
Ion mode: POSITIVE
Ionization: ESI
Fragmentation mode: HCD
Collision energy: 30 (nominal)
Resolution: 35000
Column name: XBridge C18 3.5um, 2.1x50mm, Waters
Retention time: 19.0 min
Base peak: 349.2162
Precursor m/z: 349.2162
Precursor type: [M+H]+
m/z	relative intensity	assigned
69.0698	28	C5H9+
83.0856	1	C6H11+
105.0699	1	C8H9+
109.1013	1	C8H13+
111.1168	38	C8H15+
129.0698	1	C10H9+
131.0857	1	C10H11+
135.044	2	C8H7O2+
143.0856	1	C11H11+
145.101	2	C11H13+
147.0439	8	C9H7O2+
149.0596	5	C9H9O2+
157.1012	2	C12H13+
163.0752	1	C10H11O2+
171.1166	3	C13H15+
193.1012	2	C15H13+
207.1168	3	C16H15+
221.1324	1	C17H17+
227.1793	21	C17H23+
235.1483	4	C18H19+
237.0909	2	C16H13O2+
239.1067	4	C16H15O2+
249.1641	2	C19H21+
251.1067	29	C17H15O2+
261.1273	1	C19H17O+
265.1223	37	C18H17O2+
275.1431	1	C20H19O+
279.1379	99	C19H19O2+
280.1461	1	C19H20O2+
281.1537	2	C19H21O2+
293.1535	49	C20H21O2+
304.2153	1	C18H28N2O2+
305.1901	3	C22H25O+
307.1686	1	C21H23O2+
319.17	1	C22H23O2+
331.2059	3	C24H27O+
334.1925	18	C23H26O2+
349.2161	999	C24H29O2+
