Mass spectrum: Florfenicol; LC-ESI-QFT; MS2; CE: 75; R=35000; [M+H]+
Name: Florfenicol
Name: 2,2-dichloro-N-{3-fluoro-1-hydroxy-1-[4-(methylsulfonyl)phenyl]propan-2-yl}acetamide
Name: 2,2-dichloro-N-[3-fluoro-1-hydroxy-1-(4-methylsulfonylphenyl)propan-2-yl]acetamide
Formula: C12H14Cl2FNO4S
Exact mass: 357.00046
SMILES: CS(=O)(=O)C1=CC=C(C=C1)C(C(CF)NC(=O)C(Cl)Cl)O
InChI: InChI=1S/C12H14Cl2FNO4S/c1-21(19,20)8-4-2-7(3-5-8)10(17)9(6-15)16-12(18)11(13)14/h2-5,9-11,17H,6H2,1H3,(H,16,18)
Instrument: Q Exactive Plus Orbitrap Thermo Scientific
Instrument type: LC-ESI-QFT
Ms type: MS2
Ion mode: POSITIVE
Ionization: ESI
Fragmentation mode: HCD
Collision energy: 75 (nominal)
Resolution: 35000
Column name: XBridge C18 3.5um, 2.1x50mm, Waters
Retention time: 4.6 min
Base peak: 390.0331
Precursor m/z: 358.0077
Precursor type: [M+H]+
m/z	relative intensity	assigned
50.015	2	C4H2+
51.0228	3	C4H3+
53.0385	2	C4H5+
63.0228	2	C5H3+
74.0401	1	C3H5FN+
77.0382	5	CH4FN3+
78.0464	10	C6H6+
78.9848	10	CH3O2S+
82.9449	340	CHCl2+
89.0385	1	C7H5+
90.0464	2	C7H6+
91.0542	9	C7H7+
92.062	2	C7H8+
93.0699	1	C7H9+
95.0491	5	C6H7O+
102.0463	13	C8H6+
103.0542	447	C8H7+
104.062	69	C8H8+
105.0334	6	C7H5O+
105.0447	3	C6H5N2+
105.0699	4	C8H9+
107.0491	14	C7H7O+
109.9559	22	C2H2Cl2N+
114.0463	2	C9H6+
115.0542	236	C9H7+
116.0494	18	C8H6N+
116.0618	3	C9H8+
117.0572	10	C8H7N+
117.07	2	C9H9+
118.065	11	C8H8N+
119.0491	2	C8H7O+
119.0729	1	C8H9N+
121.0649	7	C8H9O+
125.0398	2	C7H6FO+
126.0462	2	C10H6+
127.0542	26	C10H7+
128.062	411	C10H8+
129.0573	32	C9H7N+
130.0651	999	C9H8N+
131.0491	347	C9H7O+
131.0729	351	C9H9N+
132.0569	431	C9H8O+
133.0447	36	C9H6F+
133.0647	2	C9H9O+
134.0525	31	C9H7F+
134.06	8	C8H8NO+
135.0604	2	C9H8F+
140.0493	9	C10H6N+
141.0573	11	C10H7N+
142.0651	259	C10H8N+
143.0491	9	C10H7O+
143.0604	2	C3H13NO3S+
143.0729	12	C10H9N+
144.0443	3	C9H6NO+
145.0648	82	C10H9O+
146.0599	4	C9H8NO+
149.0154	2	CH8FNO4S+
150.023	29	C9H7Cl+
150.0714	2	C9H9FN+
151.0791	11	C9H10FN+
151.9928	1	C7H4O2S+
152.0494	2	C11H6N+
152.0869	2	C9H11FN+
153.0574	5	C11H7N+
155.0603	245	C4H13NO3S+
156.0574	1	C8H11ClN+
158.06	9	C10H8NO+
160.0757	8	C10H10NO+
161.0471	2	C9H7NO2+
162.023	13	C10H7Cl+
162.0911	1	C10H12NO+
163.0308	89	C10H8Cl+
163.0626	7	C9H9NO2+
169.052	2	C11H7NO+
170.06	440	C11H8NO+
171.0678	19	C11H9NO+
176.026	1	C10H7ClN+
177.0338	13	C10H8ClN+
178.0419	11	C10H9ClN+
179.0259	1	C10H8ClO+
183.069	3	C9H10FNO2+
188.0261	28	C11H7ClN+
189.01	2	C11H6ClO+
189.0215	9	C7H9O4S+
197.0504	8	C9H11NO2S+
206.0368	49	C11H9ClNO+
210.0584	8	C10H12NO2S+
230.0647	2	C10H13FNO2S+
241.0047	3	C11H9Cl2NO+
