Mass spectrum: 4-chloro-N-methylaniline; LC-ESI-QFT; MS2; CE: 15; R=35000; [M+H]+
Name: 4-chloro-N-methylaniline
Formula: C7H8ClN
Exact mass: 141.03453
SMILES: CNC1=CC=C(C=C1)Cl
InChI: InChI=1S/C7H8ClN/c1-9-7-4-2-6(8)3-5-7/h2-5,9H,1H3
Instrument: Q Exactive Plus Orbitrap Thermo Scientific
Instrument type: LC-ESI-QFT
Ms type: MS2
Ion mode: POSITIVE
Ionization: ESI
Fragmentation mode: HCD
Collision energy: 15 (nominal)
Resolution: 35000
Column name: XBridge C18 3.5um, 2.1x50mm, Waters
Retention time: 5.0 min
Base peak: 142.0417
Precursor m/z: 142.0418
Precursor type: [M+H]+
m/z	relative intensity	assigned
65.0383	1	C5H5+
107.0728	31	C7H9N+
126.0104	1	C6H5ClN+
127.0182	684	C6H6ClN+
142.0417	999	C7H9ClN+
