Mass spectrum: N4-Acetylsulfamethazine; LC-ESI-ITFT; MS2; CE: 60%; R=15000; [M-H]-
Name: N4-Acetylsulfamethazine
Name: N-[4-[(4,6-dimethyl-2-pyrimidinyl)sulfamoyl]phenyl]acetamide
Formula: C14H16N4O3S
Exact mass: 320.0943
SMILES: O=S(=O)(c1ccc(cc1)NC(=O)C)Nc1nc(cc(n1)C)C
InChI: InChI=1S/C14H16N4O3S/c1-9-8-10(2)16-14(15-9)18-22(20,21)13-6-4-12(5-7-13)17-11(3)19/h4-8H,1-3H3,(H,17,19)(H,15,16,18)
Instrument: LTQ Orbitrap XL Thermo Scientific
Instrument type: LC-ESI-ITFT
Ms type: MS2
Ion mode: NEGATIVE
Ionization: ESI
Fragmentation mode: HCD
Collision energy: 60 % (nominal)
Resolution: 15000
Column name: XBridge C18 3.5um, 2.1x50mm, Waters
Retention time: 4.6 min
Base peak: 319.0879
Precursor m/z: 319.087
Precursor type: [M-H]-
m/z	relative intensity	assigned
92.0506	171	C6H6N-
106.0412	538	C5H4N3-
122.0723	385	C6H8N3-
134.0613	999	C8H8NO-
171.0923	77	C11H11N2-
