Mass spectrum: Nicotine; LC-ESI-QFT; MS2; CE: 45; R=35000; [M+H]+
Name: Nicotine
Name: 3-[(2S)-1-methylpyrrolidin-2-yl]pyridine
Name: 3-[(2S)-1-methyl-2-pyrrolidinyl]pyridine
Formula: C10H14N2
Exact mass: 162.11570
SMILES: n1cc(ccc1)[C@H]2N(C)CCC2
InChI: InChI=1S/C10H14N2/c1-12-7-3-5-10(12)9-4-2-6-11-8-9/h2,4,6,8,10H,3,5,7H2,1H3/t10-/m0/s1
Instrument: Q Exactive Orbitrap Thermo Scientific
Instrument type: LC-ESI-QFT
Ms type: MS2
Ion mode: POSITIVE
Ionization: ESI
Fragmentation mode: HCD
Collision energy: 45 (nominal)
Resolution: 35000
Column name: XBridge C18 3.5um, 2.1x50mm, Waters
Retention time: 0.9 min
Base peak: 163.1229
Precursor m/z: 163.123
Precursor type: [M+H]+
m/z	relative intensity	assigned
70.0651	3	C4H8N+
77.0382	1	C6H5+
78.0336	1	C5H4N+
80.0494	89	C5H6N+
84.0807	151	C5H10N+
92.0494	2	C6H6N+
94.065	12	C6H8N+
105.0698	2	C8H9+
106.065	315	C7H8N+
115.0542	10	C9H7+
117.0571	133	C8H7N+
120.0807	136	C8H10N+
130.0651	619	C9H8N+
131.0728	3	C9H9N+
132.0806	999	C9H10N+
134.0965	1	C9H12N+
163.1227	711	C10H15N2+
