Mass spectrum: Metolachlor morpholinone; LC-ESI-ITFT; MS2; CE: 90%; R=7500; [M+H]+
Name: Metolachlor morpholinone
Name: 4-(2-ethyl-6-methylphenyl)-5-methylmorpholin-3-one
Formula: C14H19NO2
Exact mass: 233.1416
SMILES: O=C2N(c1c(cccc1C)CC)C(C)COC2
InChI: InChI=1S/C14H19NO2/c1-4-12-7-5-6-10(2)14(12)15-11(3)8-17-9-13(15)16/h5-7,11H,4,8-9H2,1-3H3
Instrument: LTQ Orbitrap XL Thermo Scientific
Instrument type: LC-ESI-ITFT
Ms type: MS2
Ion mode: POSITIVE
Ionization: ESI
Fragmentation mode: HCD
Collision energy: 90 % (nominal)
Resolution: 7500
Column name: XBridge C18 3.5um, 2.1x50mm, Waters
Retention time: 8.2 min
Base peak: 234.1493
Precursor m/z: 234.1489
Precursor type: [M+H]+
m/z	relative intensity	assigned
65.0386	7	C5H5+
70.065	8	C4H8N+
77.0386	41	C6H5+
79.0543	38	C6H7+
91.0542	362	C7H7+
92.062	29	C7H8+
93.0698	280	C7H9+
99.0679	24	C5H9NO+
103.0543	84	C8H7+
104.0495	19	C7H6N+
104.062	33	C8H8+
105.0451	11	C6H5N2+
105.0573	31	C7H7N+
105.0699	113	C8H9+
106.0651	31	C7H8N+
107.0728	21	C7H9N+
107.0852	9	C8H11+
108.0804	19	C7H10N+
115.0542	26	C9H7+
116.0624	12	C9H8+
117.0575	48	C8H7N+
117.0699	96	C9H9+
118.0651	362	C8H8N+
119.0488	17	C8H7O+
119.073	262	C8H9N+
119.0855	134	C9H11+
120.0808	999	C8H10N+
129.0701	12	C10H9+
130.0651	67	C9H8N+
131.0729	134	C9H9N+
131.086	19	C10H11+
132.044	11	C8H6NO+
132.0807	198	C9H10N+
133.0522	207	C8H7NO+
133.0885	174	C9H11N+
134.0964	128	C9H12N+
135.1044	31	C9H13N+
143.0728	21	C10H9N+
144.0806	47	C10H10N+
145.0886	56	C10H11N+
146.0599	116	C9H8NO+
146.0965	227	C10H12N+
147.0678	199	C9H9NO+
147.0922	17	C9H11N2+
147.1043	21	C10H13N+
148.0756	126	C9H10NO+
148.112	183	C10H14N+
158.0963	37	C11H12N+
160.0755	16	C10H10NO+
160.112	214	C11H14N+
162.0912	40	C10H12NO+
172.1116	11	C12H14N+
174.1286	10	C12H16N+
176.107	12	C11H14NO+
176.1439	16	C12H18N+
206.1176	8	C12H16NO2+
