Mass spectrum: Simeton; LC-ESI-ITFT; MS2; CE: 45%; R=7500; [M+H]+
Name: Simeton
Name: 2-N,4-N-diethyl-6-methoxy-1,3,5-triazine-2,4-diamine
Formula: C8H15N5O
Exact mass: 197.1271
SMILES: c1(nc(nc(n1)OC)NCC)NCC
InChI: InChI=1S/C8H15N5O/c1-4-9-6-11-7(10-5-2)13-8(12-6)14-3/h4-5H2,1-3H3,(H2,9,10,11,12,13)
Instrument: LTQ Orbitrap XL Thermo Scientific
Instrument type: LC-ESI-ITFT
Ms type: MS2
Ion mode: POSITIVE
Ionization: ESI
Fragmentation mode: HCD
Collision energy: 45 % (nominal)
Resolution: 7500
Column name: XBridge C18 3.5um, 2.1x50mm, Waters
Retention time: 4.9 min
Base peak: 198.1352
Precursor m/z: 198.1349
Precursor type: [M+H]+
m/z	relative intensity	assigned
57.0446	6	C2H5N2+
68.0243	8	C2H2N3+
69.0084	9	C2HN2O+
71.0604	11	C3H7N2+
85.0761	10	C4H9N2+
96.0557	22	C4H6N3+
97.0395	6	C4H5N2O+
100.0506	17	C3H6N3O+
110.0715	2	C5H8N3+
114.0663	36	C4H8N3O+
124.087	88	C6H10N3+
128.0819	86	C5H10N3O+
142.0973	3	C6H12N3O+
166.1087	9	C7H12N5+
170.1037	53	C6H12N5O+
173.0218	1	C8H3N3O2+
196.1202	1	C8H14N5O+
198.1351	999	C8H16N5O+
