Mass spectrum: Chlorothalonil-TP R417888; LC-ESI-QFT; MS2; CE: 75%; R=17500; [M-H]-
Name: Chlorothalonil-TP R417888
Name: 2-carbamoyl-3,5,6-trichloro-4-cyanobenzenesulfonic acid
Formula: C8H3Cl3N2O4S
Exact mass: 327.8879
SMILES: NC(=O)C1=C(C(Cl)=C(Cl)C(C#N)=C1Cl)S(O)(=O)=O
InChI: InChI=1S/C8H3Cl3N2O4S/c9-4-2(1-12)5(10)6(11)7(18(15,16)17)3(4)8(13)14/h(H2,13,14)(H,15,16,17)
Instrument: Q Exactive Orbitrap Thermo Scientific
Instrument type: LC-ESI-QFT
Ms type: MS2
Ion mode: NEGATIVE
Ionization: ESI
Fragmentation mode: HCD
Collision energy: 75 % (nominal)
Resolution: 17500
Column name: XBridge C18 3.5um, 2.1x50mm, Waters
Retention time: 3.266 min
Base peak: 326.8806
Precursor m/z: 326.8806
Precursor type: [M-H]-
m/z	relative intensity	assigned
96.9601	305	HO4S-
113.9983	99	C7NO-
114.926	141	ClO3S-
155.9412	545	C6Cl2N-
183.936	999	C7Cl2NO-
219.9129	676	C7HCl3NO-
