Mass spectrum: Ampicillin; LC-ESI-QFT; MS2; CE: 45; R=35000; [M-H]-
Name: Ampicillin
Name: 2-amino-1-methyl-5-propylideneimidazol-4-one
Name: 6-[(2-azaniumyl-2-phenylacetyl)amino]-3,3-dimethyl-7-oxo-4-thia-1-azabicyclo[3.2.0]heptane-2-carboxylate
Formula: C16H19N3O4S
Exact mass: 349.10963
SMILES: CC1(C(N2C(S1)C(C2=O)NC(=O)C(C3=CC=CC=C3)N)C(=O)O)C
InChI: InChI=1S/C16H19N3O4S/c1-16(2)11(15(22)23)19-13(21)10(14(19)24-16)18-12(20)9(17)8-6-4-3-5-7-8/h3-7,9-11,14H,17H2,1-2H3,(H,18,20)(H,22,23)
Instrument: Q Exactive Plus Orbitrap Thermo Scientific
Instrument type: LC-ESI-QFT
Ms type: MS2
Ion mode: NEGATIVE
Ionization: ESI
Fragmentation mode: HCD
Collision energy: 45 (nominal)
Resolution: 35000
Column name: XBridge C18 3.5um, 2.1x50mm, Waters
Retention time: 4.7 min
Base peak: 348.1025
Precursor m/z: 348.1024
Precursor type: [M-H]-
m/z	relative intensity	assigned
50.0036	3	C3N-
63.9625	1	O2S-
71.9915	54	C2H2NS-
72.9993	12	C2H3NS-
74.0072	999	C2H4NS-
83.9914	27	C3H2NS-
99.9864	13	C3H2NOS-
134.0614	16	C8H8NO-
146.0611	1	C9H8NO-
159.0569	4	C9H7N2O-
164.0542	2	C9H10NS-
171.0599	4	C7H11N2OS-
173.0723	48	C10H9N2O-
180.0493	1	C9H10NOS-
189.0494	5	C10H9N2S-
207.0601	213	C10H11N2OS-
