Mass spectrum: Flufenamic acid; LC-ESI-QFT; MS2; CE: 90; R=35000; [M+H]+
Name: Flufenamic acid
Name: Arlef
Name: 2-[3-(trifluoromethyl)anilino]benzoic acid
Formula: C14H10F3NO2
Exact mass: 281.06636
SMILES: C1=CC=C(C(=C1)C(=O)O)NC2=CC=CC(=C2)C(F)(F)F
InChI: InChI=1S/C14H10F3NO2/c15-14(16,17)9-4-3-5-10(8-9)18-12-7-2-1-6-11(12)13(19)20/h1-8,18H,(H,19,20)
Instrument: Q Exactive Orbitrap Thermo Scientific
Instrument type: LC-ESI-QFT
Ms type: MS2
Ion mode: POSITIVE
Ionization: ESI
Fragmentation mode: HCD
Collision energy: 90 (nominal)
Resolution: 35000
Column name: XBridge C18 3.5um, 2.1x50mm, Waters
Retention time: 14.6 min
Base peak: 282.0736
Precursor m/z: 282.0736
Precursor type: [M+H]+
m/z	relative intensity	assigned
65.0386	1	C5H5+
77.0386	1	C6H5+
92.0256	8	C6H4O+
95.0491	10	C6H7O+
130.0287	4	C8H4NO+
139.0541	16	C11H7+
141.0146	8	C7H3F2O+
151.0541	3	C12H7+
166.0651	101	C12H8N+
167.0729	999	C12H9N+
169.0646	36	C12H9O+
170.0598	5	C11H8NO+
177.0572	35	C13H7N+
178.0651	20	C13H8N+
179.0604	7	C12H7N2+
185.0638	11	C12H8FN+
187.0553	37	C12H8FO+
188.0431	21	C12H6F2+
189.0507	10	
194.06	36	C13H8NO+
195.0485	34	
195.0678	326	C13H9NO+
196.0556	221	C13H7FN+
196.0751	41	C13H10NO+
197.0509	11	C12H6FN2+
197.0633	41	C13H8FN+
204.0556	10	C13H6N3+
214.0663	31	C13H9FNO+
215.054	57	C13H7F2N+
216.0619	611	C13H8F2N+
224.0505	16	C14H7FNO+
224.061	1	C13H7FN3+
226.0462	23	C14H6F2N+
227.0576	11	C13H9NO3+
229.0533	3	C13H8FNO2+
234.0523	7	C13H7F3N+
235.0603	134	C13H8F3N+
236.0683	3	C13H9F3N+
242.0607	8	C14H9FNO2+
243.049	12	C14H7F2NO+
244.0568	376	C14H8F2NO+
246.0525	12	C14H7F3N+
247.0442	1	C13H7F2NO2+
263.0552	102	C14H8F3NO+
264.063	275	C14H9F3NO+
