Mass spectrum: Penflufen; LC-ESI-QFT; MS2; CE: 45%; R=17500; [M+H]+
Name: Penflufen
Name: 5-fluoro-1,3-dimethyl-N-[2-(4-methylpentan-2-yl)phenyl]pyrazole-4-carboxamide
Formula: C18H24FN3O
Exact mass: 317.1903
SMILES: CC1=NN(C(=C1C(=O)NC2=CC=CC=C2C(C)CC(C)C)F)C
InChI: InChI=1S/C18H24FN3O/c1-11(2)10-12(3)14-8-6-7-9-15(14)20-18(23)16-13(4)21-22(5)17(16)19/h6-9,11-12H,10H2,1-5H3,(H,20,23)
Instrument: Exploris 240 Orbitrap Thermo Scientific
Instrument type: LC-ESI-QFT
Ms type: MS2
Ion mode: POSITIVE
Ionization: ESI
Fragmentation mode: HCD
Collision energy: 45 % (nominal)
Resolution: 17500
Column name: XBridge C18 3.5um, 2.1x50mm, Waters
Retention time: 10.753 min
Base peak: 306.1031
Precursor m/z: 318.1976
Precursor type: [M+H]+
m/z	relative intensity	assigned
57.0698	30	C4H9+
85.101	26	CH12FN3+
115.0665	183	C5H8FN2+
120.044	17	C7H6NO+
141.0458	999	C6H6FN2O+
234.1036	821	C12H13FN3O+
