Mass spectrum: Fluconazole; LC-ESI-ITFT; MS2; CE: 60%; R=15000; [M+H]+
Name: Fluconazole
Name: 2-(2,4-difluorophenyl)-1,3-bis(1,2,4-triazol-1-yl)-2-propanol
Formula: C13H12F2N6O
Exact mass: 306.1041
SMILES: OC(CN1C=NC=N1)(CN2C=NC=N2)C3=C(F)C=C(F)C=C3
InChI: InChI=1S/C13H12F2N6O/c14-10-1-2-11(12(15)3-10)13(22,4-20-8-16-6-18-20)5-21-9-17-7-19-21/h1-3,6-9,22H,4-5H2
Instrument: LTQ Orbitrap XL Thermo Scientific
Instrument type: LC-ESI-ITFT
Ms type: MS2
Ion mode: POSITIVE
Ionization: ESI
Fragmentation mode: HCD
Collision energy: 60 % (nominal)
Resolution: 15000
Column name: XBridge C18 3.5um, 2.1x50mm, Waters
Retention time: 5.3 min
Base peak: 307.1126
Precursor m/z: 307.1113
Precursor type: [M+H]+
m/z	relative intensity	assigned
70.04	458	C2H4N3+
82.0398	15	C3H4N3+
83.0477	12	C3H5N3+
121.0448	295	C8H6F+
127.0354	505	C7H5F2+
129.0447	52	C8H5N2+
139.0354	553	C8H5F2+
141.0147	62	C7H3F2O+
141.0511	427	C8H7F2+
149.0396	17	C9H6FO+
151.0354	391	C9H5F2+
164.0428	8	C10H6F2+
166.0463	57	C9H6F2N+
169.0461	999	C9H7F2O+
173.051	86	C10H6FN2+
177.0462	37	C9H6FN2O+
193.0573	44	C10H7F2N2+
200.0619	117	C11H7FN3+
220.0682	629	C11H8F2N3+
238.0786	193	C11H10F2N3O+
