Mass spectrum: Dienogest; LC-ESI-QFT; MS2; CE: 90; R=35000; [M+H]+
Name: Dienogest
Name: 2-[(8S,13S,14S,17R)-17-hydroxy-13-methyl-3-oxo-1,2,6,7,8,11,12,14,15,16-decahydrocyclopenta[a]phenanthren-17-yl]acetonitrile
Formula: C20H25NO2
Exact mass: 311.18853
SMILES: C[C@]12CCC3=C4CCC(=O)C=C4CC[C@H]3[C@@H]1CC[C@]2(CC#N)O
InChI: InChI=1S/C20H25NO2/c1-19-8-6-16-15-5-3-14(22)12-13(15)2-4-17(16)18(19)7-9-20(19,23)10-11-21/h12,17-18,23H,2-10H2,1H3/t17-,18+,19+,20-/m1/s1
Instrument: Q Exactive Orbitrap Thermo Scientific
Instrument type: LC-ESI-QFT
Ms type: MS2
Ion mode: POSITIVE
Ionization: ESI
Fragmentation mode: HCD
Collision energy: 90 (nominal)
Resolution: 35000
Column name: XBridge C18 3.5um, 2.1x50mm, Waters
Retention time: 8.2 min
Base peak: 312.1959
Precursor m/z: 312.1958
Precursor type: [M+H]+
m/z	relative intensity	assigned
50.0151	1	C4H2+
53.0386	2	C4H5+
65.0386	55	C5H5+
67.0542	123	C5H7+
69.0335	10	C4H5O+
69.0699	3	C5H9+
70.0651	2	C4H8N+
71.0493	1	C4H7O+
77.0385	31	C6H5+
78.0464	10	C6H6+
79.0542	448	C6H7+
80.0496	7	C5H6N+
80.0621	8	C6H8+
81.0335	16	C5H5O+
81.0699	119	C6H9+
82.0653	2	C5H8N+
83.0491	95	C5H7O+
89.0384	2	C7H5+
91.0542	999	C7H7+
92.062	23	C7H8+
93.0573	12	C6H7N+
93.0699	172	C7H9+
94.0413	10	C6H6O+
94.0652	2	C6H8N+
94.0777	2	C7H10+
95.0491	124	C6H7O+
95.0855	36	C7H11+
96.081	1	C6H10N+
97.0648	39	C6H9O+
103.0543	94	C8H7+
104.0495	6	C7H6N+
104.0621	23	C8H8+
105.0448	49	C6H5N2+
105.0699	528	C8H9+
106.0651	14	C7H8N+
106.0777	12	C8H10+
107.0492	364	C7H7O+
107.0855	67	C8H11+
108.057	3	C7H8O+
108.0808	12	C7H10N+
109.0648	72	C7H9O+
110.0727	15	C7H10O+
115.0542	232	C9H7+
116.0495	3	C8H6N+
116.062	60	C9H8+
117.0699	375	C9H9+
118.0651	7	C8H8N+
118.0777	12	C9H10+
119.0492	28	C8H7O+
119.0605	8	C7H7N2+
119.0855	147	C9H11+
120.057	14	C8H8O+
120.0808	7	C8H10N+
120.0935	1	C9H12+
121.0648	42	C8H9O+
122.0725	1	C8H10O+
123.0805	27	C8H11O+
127.0544	7	C10H7+
128.062	222	C10H8+
129.0699	196	C10H9+
130.0653	25	C9H8N+
130.0777	43	C10H10+
131.0492	59	C9H7O+
131.0731	19	C9H9N+
131.0856	158	C10H11+
132.057	80	C9H8O+
132.0807	22	C9H10N+
133.0648	255	C9H9O+
133.1012	43	C10H13+
134.0726	29	C9H10O+
134.0966	3	C9H12N+
135.0804	338	C9H11O+
141.0698	139	C11H9+
142.0778	45	C11H10+
143.0734	11	C10H9N+
143.0856	100	C11H11+
144.0571	55	C10H8O+
144.0809	12	C10H10N+
144.0936	11	C11H12+
145.0649	84	C10H9O+
145.1012	34	C11H13+
146.0727	89	C10H10O+
146.0964	13	C10H12N+
147.0805	131	C10H11O+
148.0883	48	C10H12O+
149.096	10	C10H13O+
152.0623	13	C12H8+
153.07	42	C12H9+
154.0777	35	C12H10+
155.0605	26	C10H7N2+
155.0856	69	C12H11+
156.0808	3	C11H10N+
156.0936	13	C12H12+
157.0649	38	C11H9O+
157.1011	21	C12H13+
158.0726	8	C11H10O+
158.0965	2	C11H12N+
159.0805	127	C11H11O+
159.1168	8	C12H15+
160.0883	2	C11H12O+
161.0961	139	C11H13O+
162.1039	30	C11H14O+
165.07	45	C13H9+
166.0777	27	C13H10+
167.0856	44	C13H11+
168.0813	3	C12H10N+
168.0936	19	C13H12+
169.0648	2	C12H9O+
169.0763	12	C11H9N2+
169.1013	34	C13H13+
170.0726	1	C12H10O+
170.0962	2	C12H12N+
171.0804	8	C12H11O+
171.1171	3	C13H15+
173.0962	8	C12H13O+
174.1043	7	C12H14O+
175.1114	2	C12H15O+
178.0776	29	C14H10+
179.0856	34	C14H11+
180.0935	18	C14H12+
181.0649	5	C13H9O+
181.1011	28	C14H13+
182.0967	2	C13H12N+
182.1094	3	C14H14+
183.0805	7	C13H11O+
183.117	19	C14H15+
184.088	2	C13H12O+
185.0964	9	C13H13O+
187.1121	6	C13H15O+
191.0859	16	C15H11+
192.0934	14	C15H12+
193.1015	14	C15H13+
194.1089	1	C15H14+
195.0804	5	C14H11O+
195.1167	11	C15H15+
196.0883	2	C14H12O+
196.112	6	C14H14N+
196.125	1	C15H16+
197.0965	6	C14H13O+
197.1327	2	C15H17+
199.1112	2	C14H15O+
201.1277	2	C14H17O+
203.0858	7	C16H11+
204.0937	3	C16H12+
205.1013	7	C16H13+
206.109	2	C16H14+
207.0806	1	C15H11O+
207.1167	3	C16H15+
208.112	1	C15H14N+
209.0964	2	C15H13O+
209.133	1	C16H17+
210.1049	2	C15H14O+
211.1119	9	C15H15O+
211.1483	2	C16H19+
213.1279	2	C15H17O+
221.0965	1	C16H13O+
226.1359	1	C16H18O+
227.1427	1	C16H19O+
239.1435	7	C17H19O+
253.1592	1	C18H21O+
254.1662	2	C18H22O+
