Mass spectrum: Rotenone; LC-ESI-QFT; MS2; CE: 30%; R=17500; [M+H]+
Name: Rotenone
Name: 5`beta-Rotenone
Name: 16,17-dimethoxy-6-prop-1-en-2-yl-2,7,20-trioxapentacyclo[11.8.0.03,11.04,8.014,19]henicosa-3(11),4(8),9,14,16,18-hexaen-12-one
Formula: C23H22O6
Exact mass: 394.1416
SMILES: CC(=C)C1CC2=C(O1)C=CC3=C2OC4COC5=CC(=C(C=C5C4C3=O)OC)OC
InChI: InChI=1S/C23H22O6/c1-11(2)16-8-14-15(28-16)6-5-12-22(24)21-13-7-18(25-3)19(26-4)9-17(13)27-10-20(21)29-23(12)14/h5-7,9,16,20-21H,1,8,10H2,2-4H3
Instrument: Exploris 240 Orbitrap Thermo Scientific
Instrument type: LC-ESI-QFT
Ms type: MS2
Ion mode: POSITIVE
Ionization: ESI
Fragmentation mode: HCD
Collision energy: 30 % (nominal)
Resolution: 17500
Column name: XBridge C18 3.5um, 2.1x50mm, Waters
Retention time: 10.235 min
Base peak: 372.0284
Precursor m/z: 395.1489
Precursor type: [M+H]+
m/z	relative intensity	assigned
139.0752	46	C8H11O2+
155.0702	7	C8H11O3+
161.0596	8	C10H9O2+
167.0701	184	C9H11O3+
175.0752	12	C11H11O2+
179.07	127	C10H11O3+
189.0908	122	C12H13O2+
191.0701	55	C11H11O3+
192.0779	392	C11H12O3+
193.0853	60	C11H13O3+
203.0702	217	C12H11O3+
213.0909	527	C14H13O2+
219.0653	12	C12H11O4+
220.0734	12	C12H12O4+
241.0858	144	C15H13O3+
367.1535	115	C22H23O5+
377.1378	18	C23H21O5+
395.1488	999	C23H23O6+
