Mass spectrum: 1H-Benzotriazole, 4(or 5)-methyl-; LC-ESI-QFT; MS2; CE: 180; R=35000; [M-H]-
Name: 1H-Benzotriazole, 4(or 5)-methyl-
Name: 4-methyl-2H-benzotriazole
Formula: C7H7N3
Exact mass: 133.06400
SMILES: n1nc2c(cccc2[nH]1)C
InChI: InChI=1S/C7H7N3/c1-5-3-2-4-6-7(5)9-10-8-6/h2-4H,1H3,(H,8,9,10)
Instrument: Q Exactive Plus Orbitrap Thermo Scientific
Instrument type: LC-ESI-QFT
Ms type: MS2
Ion mode: NEGATIVE
Ionization: ESI
Fragmentation mode: HCD
Collision energy: 180 (nominal)
Resolution: 35000
Column name: XBridge C18 3.5um, 2.1x50mm, Waters
Retention time: 5.8 min
Base peak: 132.0567
Precursor m/z: 132.0567
Precursor type: [M-H]-
m/z	relative intensity	assigned
50.0036	999	C3N-
51.0241	21	C4H3-
63.0115	154	C4HN-
88.0193	683	C6H2N-
89.0272	40	C6H3N-
