Mass spectrum: Amantadine; LC-ESI-QFT; MS2; CE: 60; R=35000; [M+H]+
Name: Amantadine
Name: 1-adamantanamine
Formula: C10H17N
Exact mass: 151.13610
SMILES: C1C2CC3CC1CC(C2)(C3)N
InChI: InChI=1S/C10H17N/c11-10-4-7-1-8(5-10)3-9(2-7)6-10/h7-9H,1-6,11H2
Instrument: Q Exactive Orbitrap Thermo Scientific
Instrument type: LC-ESI-QFT
Ms type: MS2
Ion mode: POSITIVE
Ionization: ESI
Fragmentation mode: HCD
Collision energy: 60 (nominal)
Resolution: 35000
Column name: XBridge C18 3.5um, 2.1x50mm, Waters
Retention time: 4.6 min
Base peak: 152.1434
Precursor m/z: 152.1434
Precursor type: [M+H]+
m/z	relative intensity	assigned
67.0542	9	C5H7+
79.0542	18	C6H7+
81.0699	8	C6H9+
93.0699	24	C7H9+
107.0855	7	C8H11+
135.1169	999	C10H15+
152.1435	111	C10H18N+
