Mass spectrum: Tributylphosphine oxide; LC-ESI-QFT; MS2; CE: 45; R=35000; [M+H]+
Name: Tributylphosphine oxide
Name: Tri-n-butylphosphine oxide
Formula: C12H27OP
Exact mass: 218.17995
SMILES: CCCCP(=O)(CCCC)CCCC
InChI: InChI=1S/C12H27OP/c1-4-7-10-14(13,11-8-5-2)12-9-6-3/h4-12H2,1-3H3
Instrument: Q Exactive Plus Orbitrap Thermo Scientific
Instrument type: LC-ESI-QFT
Ms type: MS2
Ion mode: POSITIVE
Ionization: ESI
Fragmentation mode: HCD
Collision energy: 45 (nominal)
Resolution: 35000
Column name: XBridge C18 3.5um, 2.1x50mm, Waters
Retention time: 11.0 min
Base peak: 219.1869
Precursor m/z: 219.1872
Precursor type: [M+H]+
m/z	relative intensity	assigned
78.0226	6	C2H7OP+
92.0384	5	C3H9OP+
106.0541	1	C4H11OP+
120.07	1	C5H13OP+
161.1089	2	C8H18OP+
163.1246	8	C8H20OP+
175.1247	1	C9H20OP+
191.1557	3	C10H24OP+
219.1872	999	C12H28OP+
