Mass spectrum: Antipyrine; LC-ESI-ITFT; MS2; CE: 35%; R=30000; [M+H]+
Name: Antipyrine
Name: Phenazone
Name: 1,5-dimethyl-2-phenyl-3-pyrazolone
Formula: C11H12N2O
Exact mass: 188.0950
SMILES: CN1N(C(=O)C=C1C)C2=CC=CC=C2
InChI: InChI=1S/C11H12N2O/c1-9-8-11(14)13(12(9)2)10-6-4-3-5-7-10/h3-8H,1-2H3
Instrument: LTQ Orbitrap XL Thermo Scientific
Instrument type: LC-ESI-ITFT
Ms type: MS2
Ion mode: POSITIVE
Ionization: ESI
Fragmentation mode: CID
Collision energy: 35 % (nominal)
Resolution: 30000
Column name: XBridge C18 3.5um, 2.1x50mm, Waters
Retention time: 4.6 min
Base peak: 189.1027
Precursor m/z: 189.1022
Precursor type: [M+H]+
m/z	relative intensity	assigned
56.0494	7	C3H6N+
58.065	7	C3H8N+
96.0444	12	C5H6NO+
96.0682	20	C5H8N2+
103.054	7	C8H7+
104.0495	38	C7H6N+
105.0699	13	C8H9+
106.0651	10	C7H8N+
111.0553	12	C5H7N2O+
117.0573	12	C8H7N+
117.0698	11	C9H9+
118.0651	128	C8H8N+
120.0808	144	C8H10N+
129.0699	13	C10H9+
130.0651	172	C9H8N+
131.0729	556	C9H9N+
132.0807	110	C9H10N+
133.0521	15	C8H7NO+
133.076	53	C8H9N2+
134.0964	13	C9H12N+
135.0552	25	C7H7N2O+
144.0808	425	C10H10N+
145.0648	49	C10H9O+
145.0886	8	C10H11N+
146.0838	329	C9H10N2+
146.0964	290	C10H12N+
147.0916	299	C9H11N2+
148.0756	81	C9H10NO+
149.0709	10	C8H9N2O+
157.0522	5	C10H7NO+
158.06	31	C10H8NO+
159.0916	11	C10H11N2+
160.0993	18	C10H12N2+
161.1073	518	C10H13N2+
162.0913	28	C10H12NO+
172.0756	202	C11H10NO+
174.0787	185	C10H10N2O+
189.1022	999	C11H13N2O+
