Mass spectrum: Pyridaben; LC-ESI-QFT; MS2; CE: 60%; R=17500; [M+H]+
Name: Pyridaben
Name: 2-tert-butyl-5-[(4-tert-butylphenyl)methylsulfanyl]-4-chloropyridazin-3-one
Formula: C19H25ClN2OS
Exact mass: 364.1376
SMILES: CC(C)(C)C1=CC=C(C=C1)CSC2=C(C(=O)N(N=C2)C(C)(C)C)Cl
InChI: InChI=1S/C19H25ClN2OS/c1-18(2,3)14-9-7-13(8-10-14)12-24-15-11-21-22(19(4,5)6)17(23)16(15)20/h7-11H,12H2,1-6H3
Instrument: Exploris 240 Orbitrap Thermo Scientific
Instrument type: LC-ESI-QFT
Ms type: MS2
Ion mode: POSITIVE
Ionization: ESI
Fragmentation mode: HCD
Collision energy: 60 % (nominal)
Resolution: 17500
Column name: XBridge C18 3.5um, 2.1x50mm, Waters
Retention time: 15.195 min
Base peak: 365.1448
Precursor m/z: 365.1449
Precursor type: [M+H]+
m/z	relative intensity	assigned
55.0542	5	C4H7+
91.0543	14	C7H7+
105.0699	114	C8H9+
107.0854	16	C8H11+
117.0703	7	C9H9+
119.0856	133	C9H11+
132.0933	102	C10H12+
145.1008	3	C11H13+
147.1168	999	C11H15+
