Mass spectrum: Thiamethoxam; LC-ESI-ITFT; MS2; CE: 30%; R=7500; [M+H]+
Name: Thiamethoxam
Name: 3-((2-Chloro-5-thiazolyl)methyl)tetrahydro-5-methyl-N-nitro-4H-1,3,5-oxadiazin-4-imine
Formula: C8H10ClN5O3S
Exact mass: 291.0193
SMILES: Clc1ncc(s1)CN2\C(=N\[N+]([O-])=O)N(C)COC2
InChI: InChI=1S/C8H10ClN5O3S/c1-12-4-17-5-13(8(12)11-14(15)16)3-6-2-10-7(9)18-6/h2H,3-5H2,1H3/b11-8+
Instrument: LTQ Orbitrap XL Thermo Scientific
Instrument type: LC-ESI-ITFT
Ms type: MS2
Ion mode: POSITIVE
Ionization: ESI
Fragmentation mode: HCD
Collision energy: 30 % (nominal)
Resolution: 7500
Column name: XBridge C18 3.5um, 2.1x50mm, Waters
Retention time: 4.1 min
Base peak: 292.0274
Precursor m/z: 292.0266
Precursor type: [M+H]+
m/z	relative intensity	assigned
69.0448	10	C3H5N2+
99.0011	3	C3H3N2S+
100.0631	2	C4H8N2O+
122.0713	40	C6H8N3+
124.0866	1	C6H10N3+
125.0167	3	C5H5N2S+
131.9671	401	C4H3ClNS+
138.0122	5	C5H4N3S+
139.0324	3	C6H7N2S+
144.0644	1	C4H8N4O2+
146.9779	1	C4H4ClN2S+
147.0668	2	C7H7N4+
151.0197	7	C6H5N3S+
152.0279	5	C6H6N3S+
155.0513	1	C6H9N3S+
160.9933	6	C5H6ClN2S+
172.9811	3	C8HN2OS+
174.9728	22	C5H4ClN2OS+
179.039	3	C7H7N4S+
180.0464	60	C7H8N4S+
181.0543	154	C7H9N4S+
185.0619	4	C7H11N3OS+
186.9966	4	C6H6ClN3S+
210.0571	140	C8H10N4OS+
211.0651	999	C8H11N4OS+
215.0149	4	C7H8ClN4S+
216.0228	3	C7H9ClN4S+
245.026	8	C8H10ClN4OS+
246.0337	15	C8H11ClN4OS+
248.0254	7	C8H11ClN3O2S+
292.0254	3	C8H11ClN5O3S+
