Mass spectrum: Spirotetramat BYI08330-monohydroxy; LC-ESI-QFT; MS2; CE: 30%; R=17500; [M+H]+
Name: Spirotetramat BYI08330-monohydroxy
Name: 1-Azaspiro(4.5)decan-2-one, 3-(2,5-dimethylphenyl)-4-hydroxy-8-methoxy-
Name: 3-(2,5-dimethylphenyl)-4-hydroxy-8-methoxy-1-azaspiro[4.5]decan-2-one
Formula: C18H25NO3
Exact mass: 303.1834
SMILES: CC1=CC(=C(C=C1)C)C2C(C3(CCC(CC3)OC)NC2=O)O
InChI: InChI=1S/C18H25NO3/c1-11-4-5-12(2)14(10-11)15-16(20)18(19-17(15)21)8-6-13(22-3)7-9-18/h4-5,10,13,15-16,20H,6-9H2,1-3H3,(H,19,21)
Instrument: Exploris 240 Orbitrap Thermo Scientific
Instrument type: LC-ESI-QFT
Ms type: MS2
Ion mode: POSITIVE
Ionization: ESI
Fragmentation mode: HCD
Collision energy: 30 % (nominal)
Resolution: 17500
Column name: XBridge C18 3.5um, 2.1x50mm, Waters
Retention time: 5.434 min
Base peak: 304.1905
Precursor m/z: 304.1907
Precursor type: [M+H]+
m/z	relative intensity	assigned
81.0699	61	C6H9+
98.0966	9	C6H12N+
109.0649	32	C7H9O+
119.0856	10	C9H11+
131.0857	42	C10H11+
134.0965	5	C9H12N+
143.0856	5	C11H11+
145.1016	6	C11H13+
148.0754	19	C9H10NO+
157.1015	8	C12H13+
159.0802	8	C11H11O+
162.0914	8	C10H12NO+
169.1011	33	C13H13+
209.1326	60	C16H17+
211.1483	275	C16H19+
226.1592	31	C16H20N+
227.1429	9	C16H19O+
254.1541	455	C17H20NO+
272.1648	274	C17H22NO2+
286.1799	78	C18H24NO2+
304.1908	999	C18H26NO3+
