Mass spectrum: Kresoxim-methyl acid; LC-ESI-QFT; MS2; CE: 15; R=35000; [M+H]+
Name: Kresoxim-methyl acid
Name: (2E)-2-methoxyimino-2-[2-[(2-methylphenoxy)methyl]phenyl]acetic acid
Formula: C17H17NO4
Exact mass: 299.11576
SMILES: O=C(O)\C(=N\OC)c2ccccc2COc1ccccc1C
InChI: InChI=1S/C17H17NO4/c1-12-7-3-6-10-15(12)22-11-13-8-4-5-9-14(13)16(17(19)20)18-21-2/h3-10H,11H2,1-2H3,(H,19,20)/b18-16+
Instrument: Q Exactive Plus Orbitrap Thermo Scientific
Instrument type: LC-ESI-QFT
Ms type: MS2
Ion mode: POSITIVE
Ionization: ESI
Fragmentation mode: HCD
Collision energy: 15 (nominal)
Resolution: 35000
Column name: XBridge C18 3.5um, 2.1x50mm, Waters
Retention time: 10.9 min
Base peak: 300.1227
Precursor m/z: 300.123
Precursor type: [M+H]+
m/z	relative intensity	assigned
59.0491	1	C3H7O+
91.0542	2	C7H7+
107.0491	11	C7H7O+
116.0494	268	C8H6N+
117.0572	7	C8H7N+
118.0651	2	C8H8N+
121.0648	24	C8H9O+
132.0442	3	C8H6NO+
134.06	17	C8H8NO+
135.044	16	C8H7O2+
146.06	26	C9H8NO+
148.0756	2	C9H10NO+
179.0854	5	C14H11+
181.0884	2	C13H11N+
181.1009	2	C14H13+
182.0965	2	C13H12N+
192.0654	184	C10H10NO3+
194.0723	2	C14H10O+
194.0963	8	C14H12N+
195.0803	2	C14H11O+
196.112	22	C14H14N+
206.0593	1	C14H8NO+
206.0962	3	C15H12N+
207.0805	10	C15H11O+
207.1041	2	C15H13N+
208.0887	1	C15H12O+
209.0838	25	C14H11NO+
209.0961	119	C15H13O+
222.0913	999	C15H12NO+
223.0989	4	C15H13NO+
224.107	411	C15H14NO+
225.0911	1	C15H13O2+
235.0753	221	C16H11O2+
236.0826	5	C16H12O2+
238.1226	19	C16H16NO+
240.1019	9	C15H14NO2+
250.0862	18	C16H12NO2+
251.094	3	C16H13NO2+
253.0859	478	C16H13O3+
254.1175	116	C16H16NO2+
268.0967	54	C16H14NO3+
282.1125	154	C17H16NO3+
