Mass spectrum: Repaglinide; LC-ESI-QFT; MS2; CE: 150; R=35000; [M+H]+
Name: Repaglinide
Name: 2-ethoxy-4-[2-[[3-methyl-1-(2-piperidin-1-ylphenyl)butyl]amino]-2-oxoethyl]benzoic acid
Formula: C27H36N2O4
Exact mass: 452.26751
SMILES: CCOC1=C(C=CC(=C1)CC(=O)NC(CC(C)C)C2=CC=CC=C2N3CCCCC3)C(=O)O
InChI: InChI=1S/C27H36N2O4/c1-4-33-25-17-20(12-13-22(25)27(31)32)18-26(30)28-23(16-19(2)3)21-10-6-7-11-24(21)29-14-8-5-9-15-29/h6-7,10-13,17,19,23H,4-5,8-9,14-16,18H2,1-3H3,(H,28,30)(H,31,32)
Instrument: Q Exactive Plus Orbitrap Thermo Scientific
Instrument type: LC-ESI-QFT
Ms type: MS2
Ion mode: POSITIVE
Ionization: ESI
Fragmentation mode: HCD
Collision energy: 150 (nominal)
Resolution: 35000
Column name: XBridge C18 3.5um, 2.1x50mm, Waters
Retention time: 9.7 min
Base peak: 453.2744
Precursor m/z: 453.2748
Precursor type: [M+H]+
m/z	relative intensity	assigned
50.0151	26	C4H2+
51.0229	19	C4H3+
53.0022	16	C3HO+
53.0386	59	C4H5+
53.9975	3	C2NO+
54.0339	3	C3H4N+
55.0179	3	C3H3O+
55.0542	16	C4H7+
56.0495	4	C3H6N+
62.0151	5	C5H2+
63.0229	23	C5H3+
64.0307	8	C5H4+
65.0386	318	C5H5+
66.0464	26	C5H6+
67.0417	5	C4H5N+
67.0542	8	C5H7+
67.9893	1	C3O2+
68.0257	1	C4H4O+
75.0229	3	C6H3+
76.0307	1	C6H4+
77.0385	89	C6H5+
78.0338	3	C5H4N+
78.0464	22	C6H6+
79.0542	57	C6H7+
80.0494	4	C5H6N+
81.0335	6	C5H5O+
84.0807	1	C5H10N+
89.0386	212	C7H5+
90.0465	245	C7H6+
91.0543	816	C7H7+
92.0495	3	C6H6N+
93.0573	18	C6H7N+
93.07	1	C7H9+
94.0414	5	C6H6O+
94.0653	1	C6H8N+
95.0492	226	C6H7O+
96.0444	6	C5H6NO+
102.0465	24	C8H6+
103.0543	253	C8H7+
104.0495	23	C7H6N+
104.0621	10	C8H8+
105.0336	18	C7H5O+
105.0448	132	C6H5N2+
105.0699	23	C8H9+
106.0652	62	C7H8N+
109.0649	4	C7H9O+
115.0543	213	C9H7+
116.0496	28	C8H6N+
116.0621	33	C9H8+
117.0573	492	C8H7N+
117.0698	55	C9H9+
118.0651	150	C8H8N+
119.0604	3	C7H7N2+
119.0732	3	C8H9N+
120.0808	7	C8H10N+
121.0285	1	C7H5O2+
122.0364	1	C7H6O2+
126.0466	1	C10H6+
127.0542	12	C10H7+
128.0495	61	C9H6N+
128.0621	30	C10H8+
129.0449	8	C8H5N2+
129.0573	17	C9H7N+
129.0699	14	C10H9+
130.0652	999	C9H8N+
131.073	62	C9H9N+
132.0808	23	C9H10N+
134.0601	1	C8H8NO+
140.0496	2	C10H6N+
141.07	4	C11H9+
142.0652	38	C10H8N+
143.073	208	C10H9N+
144.0809	306	C10H10N+
145.0649	13	C10H9O+
145.0887	3	C10H11N+
146.06	26	C9H8NO+
146.0964	4	C10H12N+
152.0623	1	C12H8+
154.0652	6	C11H8N+
155.0605	26	C10H7N2+
155.0732	4	C11H9N+
156.0808	39	C11H10N+
157.0887	24	C11H11N+
158.0965	59	C11H12N+
160.0759	3	C10H10NO+
161.0471	1	C9H7NO2+
167.0729	1	C12H9N+
168.0809	5	C12H10N+
170.0964	22	C12H12N+
171.1043	2	C12H13N+
172.1121	27	C12H14N+
184.1123	1	C13H14N+
186.1279	3	C13H16N+
