Mass spectrum: Metosulam; LC-ESI-QFT; MS2; CE: 45; R=35000; [M-H]-
Name: Metosulam
Name: N-(2,6-dichloro-3-methyl-phenyl)-5,7-dimethoxy-[1,2,4]triazolo[1,5-a]pyrimidine-2-sulfonamide
Formula: C14H13Cl2N5O4S
Exact mass: 417.00653
SMILES: Clc1c(ccc(Cl)c1NS(=O)(=O)c2nc3nc(OC)cc(OC)n3n2)C
InChI: InChI=1S/C14H13Cl2N5O4S/c1-7-4-5-8(15)12(11(7)16)20-26(22,23)14-18-13-17-9(24-2)6-10(25-3)21(13)19-14/h4-6,20H,1-3H3
Instrument: Q Exactive Orbitrap Thermo Scientific
Instrument type: LC-ESI-QFT
Ms type: MS2
Ion mode: NEGATIVE
Ionization: ESI
Fragmentation mode: HCD
Collision energy: 45 (nominal)
Resolution: 35000
Column name: XBridge C18 3.5um, 2.1x50mm, Waters
Retention time: 7.6 min
Base peak: 415.9998
Precursor m/z: 415.9993
Precursor type: [M-H]-
m/z	relative intensity	assigned
64.0068	1	C3N2-
65.0144	26	C3HN2-
65.9985	105	C3NO-
66.0097	121	C2N3-
78.0224	31	C4H2N2-
79.0176	8	C3HN3-
79.0303	1	C4H3N2-
82.0174	4	C3H2N2O-
92.0255	1	C4H2N3-
93.0095	11	C4HN2O-
95.0251	7	C4H3N2O-
96.0328	1	C4H4N2O-
96.0441	1	C3H4N4-
98.0247	12	C4H4NO2-
107.0125	36	C4HN3O-
108.0204	18	C4H2N3O-
109.0044	15	C4HN2O2-
110.0122	1	C4H2N2O2-
111.0677	360	C4H7N4-
120.0203	1	C5H2N3O-
120.0442	22	C5H4N4-
121.0282	11	C5H3N3O-
122.0122	41	C5H2N2O2-
122.0359	7	C5H4N3O-
123.0201	42	C5H3N2O2-
134.0234	10	C5H2N4O-
135.0313	17	C5H3N4O-
136.0391	10	C5H4N4O-
137.0232	3	C5H3N3O2-
149.0467	11	C6H5N4O-
151.0263	1	C5H3N4O2-
163.0262	19	C6H3N4O2-
164.034	711	C6H4N4O2-
165.0418	4	C6H5N4O2-
179.0574	999	C7H7N4O2-
203.0135	1	C6H7N2O4S-
270.0187	5	C12H5ClN5O-
301.0374	7	C13H8ClN5O2-
302.0446	5	C13H9ClN5O2-
