Mass spectrum: Lufenuron; LC-ESI-QFT; MS2; CE: 60%; R=15000; [M+H]+
Name: Lufenuron
Name: N-[[2,5-dichloro-4-(1,1,2,3,3,3-hexafluoropropoxy)phenyl]carbamoyl]-2,6-difluorobenzamide
Formula: C17H8Cl2F8N2O3
Exact mass: 509.9784232
SMILES: FC(C(F)(F)F)C(F)(F)OC1=CC(Cl)=C(NC(=O)NC(=O)C2=C(F)C=CC=C2F)C=C1Cl
InChI: InChI=1S/C17H8Cl2F8N2O3/c18-6-5-11(32-17(26,27)14(22)16(23,24)25)7(19)4-10(6)28-15(31)29-13(30)12-8(20)2-1-3-9(12)21/h1-5,14H,(H2,28,29,30,31)
Instrument: Q Exactive Plus
Instrument type: LC-ESI-QFT
Ms type: MS2
Ion mode: POSITIVE
Ionization: ESI
Fragmentation mode: HCD
Collision energy: 60 % (nominal)
Resolution: 15000
Column name: XBridge C18 3.5um, 2.1x50mm, Waters
Retention time: 14.447 min
Base peak: 164.9846
Precursor m/z: 510.9857
Precursor type: [M+H]+
Precursor intensity: 22367248.74
m/z	relative intensity	assigned
140.0307	24	C7H4F2N+
141.0147	999	C7H3F2O+
158.0412	122	C7H6F2NO+
