Mass spectrum: Nicosulfuron-TP UCSN; LC-ESI-QFT; MS2; CE: 90%; R=17500; [M-H]-
Name: Nicosulfuron-TP UCSN
Name: 2-[(Carbamoylcarbamoyl)sulfamoyl]-N,N-dimethylnicotinamide
Formula: C10H13N5O5S
Exact mass: 315.0637
SMILES: CN(C)C(=O)C1=CC=CN=C1S(=O)(=O)NC(=O)NC(N)=O
InChI: InChI=1S/C10H13N5O5S/c1-15(2)8(16)6-4-3-5-12-7(6)21(19,20)14-10(18)13-9(11)17/h3-5H,1-2H3,(H4,11,13,14,17,18)
Instrument: Q Exactive Plus Orbitrap Thermo Scientific
Instrument type: LC-ESI-QFT
Ms type: MS2
Ion mode: NEGATIVE
Ionization: ESI
Fragmentation mode: HCD
Collision energy: 90 % (nominal)
Resolution: 17500
Column name: XBridge C18 3.5um, 2.1x50mm, Waters
Retention time: 1.525 min
Base peak: 314.0565
Precursor m/z: 314.0565
Precursor type: [M-H]-
m/z	relative intensity	assigned
50.0034	29	C3N-
58.0297	99	C2H4NO-
59.0251	35	CH3N2O-
61.9706	413	NOS-
63.9625	399	O2S-
65.9984	31	C3NO-
66.035	102	C4H4N-
76.0192	25	C5H2N-
77.9655	307	NO2S-
78.9733	274	HNO2S-
79.9811	88	H2NO2S-
91.0302	61	C5H3N2-
93.0219	55	C5H3NO-
93.0459	780	C5H5N2-
94.0299	999	C5H4NO-
103.0302	102	C6H3N2-
109.017	35	C5H3NO2-
117.0458	124	C7H5N2-
119.0252	314	C6H3N2O-
121.0407	44	C6H5N2O-
122.0248	28	C6H4NO2-
131.0489	92	C7H5N3-
132.033	85	C7H4N2O-
147.0438	244	C7H5N3O-
149.0595	29	C7H7N3O-
150.0436	53	C7H6N2O2-
162.0671	31	C8H8N3O-
165.0667	25	C8H9N2O2-
181.0076	66	C7H5N2O2S-
182.987	176	C6H3N2O3S-
