Mass spectrum: Trinexapac; LC-ESI-ITFT; MS2; CE: 75%; R=15000; [M-H]-
Name: Trinexapac
Name: 4-[Cyclopropyl(hydroxy)methylene]-3,5-dioxocyclohexanecarboxylic acid
Formula: C11H12O5
Exact mass: 224.0685
SMILES: C(C1)C1C(O)=C(C(=O)CC2C(=O)O)C(=O)C2
InChI: InChI=1S/C11H12O5/c12-7-3-6(11(15)16)4-8(13)9(7)10(14)5-1-2-5/h5-6,14H,1-4H2,(H,15,16)/b10-9-
Instrument: LTQ Orbitrap XL Thermo Scientific
Instrument type: LC-ESI-ITFT
Ms type: MS2
Ion mode: NEGATIVE
Ionization: ESI
Fragmentation mode: HCD
Collision energy: 75 % (nominal)
Resolution: 15000
Column name: XBridge C18 3.5um, 2.1x50mm, Waters
Retention time: 6.9 min
Base peak: 223.0619
Precursor m/z: 223.0612
Precursor type: [M-H]-
m/z	relative intensity	assigned
83.0504	959	C5H7O-
95.014	381	C5H3O2-
109.0295	305	C6H5O2-
111.0453	999	C6H7O2-
125.0606	569	C7H9O2-
135.0812	662	C9H11O-
163.0402	451	C9H7O3-
