Mass spectrum: Fenamiphos-sulfone; LC-ESI-QFT; MS2; CE: 45; R=35000; [M+H]+
Name: Fenamiphos-sulfone
Name: Fenamiphos sulphone
Name: Ethyl 3-methyl-4-(methylsulfonyl)phenyl isopropylphosphoramidate
Formula: C13H22NO5PS
Exact mass: 335.09563
SMILES: CCOP(=O)(NC(C)C)OC1=CC(=C(C=C1)S(=O)(=O)C)C
InChI: InChI=1S/C13H22NO5PS/c1-6-18-20(15,14-10(2)3)19-12-7-8-13(11(4)9-12)21(5,16)17/h7-10H,6H2,1-5H3,(H,14,15)
Instrument: Q Exactive Plus Orbitrap Thermo Scientific
Instrument type: LC-ESI-QFT
Ms type: MS2
Ion mode: POSITIVE
Ionization: ESI
Fragmentation mode: HCD
Collision energy: 45 (nominal)
Resolution: 35000
Column name: XBridge C18 3.5um, 2.1x50mm, Waters
Retention time: 7.5 min
Base peak: 336.1023
Precursor m/z: 336.1029
Precursor type: [M+H]+
m/z	relative intensity	assigned
58.0652	4	C3H8N+
60.0808	1	C3H10N+
65.0383	1	C5H5+
78.9848	14	CH3O2S+
79.9896	1	H3NO2P+
91.054	10	C7H7+
98.0002	8	H5NO3P+
105.0699	1	C8H9+
107.0491	5	C7H7O+
107.073	6	C7H9N+
108.057	193	C7H8O+
109.0648	36	C7H9O+
112.0158	8	CH7NO3P+
117.0699	1	C9H9+
118.0778	5	C9H10+
119.0605	3	C7H7N2+
121.0648	2	C8H9O+
123.0441	5	C7H7O2+
123.0804	2	C8H11O+
135.0804	1	C9H11O+
136.0885	2	C5H15NOP+
139.0213	89	C7H7OS+
140.047	1	C3H11NO3P+
153.01	1	C7H6O2P+
167.0528	2	C5H14NOPS+
170.0128	4	C7H7O3P+
170.0366	16	C7H9NO2P+
171.0207	5	C7H8O3P+
175.0155	2	C6H8O4P+
184.9999	2	C7H6O4P+
185.0267	2	C8H9O3S+
185.0363	2	C8H10O3P+
186.0079	3	C7H7O4P+
186.0316	1	C7H9NO3P+
187.0398	98	C7H10NO3P+
188.0471	999	C11H8O3+
188.977	4	C6H6O3PS+
198.0442	1	C9H11O3P+
201.0309	2	C8H10O4P+
202.0628	33	C8H13NO3P+
212.0836	1	C10H15NO2P+
214.0629	27	C9H13NO3P+
216.0786	6	C9H15NO3P+
218.9877	161	C7H8O4PS+
230.0942	7	C10H17NO3P+
230.9878	1	C8H8O4PS+
242.0941	1	C11H17NO3P+
247.0196	1	C9H12O4PS+
248.9983	114	C8H10O5PS+
266.0248	546	C8H13NO5PS+
267.0088	64	C8H12O6PS+
284.0351	4	C8H15NO6PS+
285.0195	2	C13H7N3O3S+
290.0611	1	C11H17NO4PS+
294.0554	1	C10H17NO5PS+
298.0514	1	C9H17NO6PS+
308.0717	31	C11H19NO5PS+
