Mass spectrum: Flufenamic acid; LC-ESI-QFT; MS2; CE: 60; R=35000; [M+H]+
Name: Flufenamic acid
Name: Arlef
Name: 2-[3-(trifluoromethyl)anilino]benzoic acid
Formula: C14H10F3NO2
Exact mass: 281.06636
SMILES: C1=CC=C(C(=C1)C(=O)O)NC2=CC=CC(=C2)C(F)(F)F
InChI: InChI=1S/C14H10F3NO2/c15-14(16,17)9-4-3-5-10(8-9)18-12-7-2-1-6-11(12)13(19)20/h1-8,18H,(H,19,20)
Instrument: Q Exactive Orbitrap Thermo Scientific
Instrument type: LC-ESI-QFT
Ms type: MS2
Ion mode: POSITIVE
Ionization: ESI
Fragmentation mode: HCD
Collision energy: 60 (nominal)
Resolution: 35000
Column name: XBridge C18 3.5um, 2.1x50mm, Waters
Retention time: 14.6 min
Base peak: 282.0736
Precursor m/z: 282.0736
Precursor type: [M+H]+
m/z	relative intensity	assigned
166.0648	1	C12H8N+
167.0728	29	C12H9N+
195.0678	48	C13H9NO+
196.0556	15	C13H7FN+
196.0754	5	C13H10NO+
197.0636	1	C13H8FN+
214.0663	2	C13H9FNO+
216.0619	50	C13H8F2N+
224.0505	3	C14H7FNO+
235.0606	3	C13H8F3N+
236.0673	1	C13H9F3N+
242.0607	2	C14H9FNO2+
244.0569	209	C14H8F2NO+
263.0555	10	C14H8F3NO+
264.063	999	C14H9F3NO+
