Mass spectrum: Fipronil; LC-ESI-ITFT; MS2; CE: 45%; R=15000; [M+H]+
Name: Fipronil
Name: 5-amino-1-[2,6-dichloro-4-(trifluoromethyl)phenyl]-4-(trifluoromethylsulfinyl)-3-pyrazolecarbonitrile
Formula: C12H4Cl2F6N4OS
Exact mass: 435.9387
SMILES: C1=C(C=C(C(=C1Cl)N2C(=C(C(=N2)C#N)S(=O)C(F)(F)F)N)Cl)C(F)(F)F
InChI: InChI=1S/C12H4Cl2F6N4OS/c13-5-1-4(11(15,16)17)2-6(14)8(5)24-10(22)9(7(3-21)23-24)26(25)12(18,19)20/h1-2H,22H2
Instrument: LTQ Orbitrap XL Thermo Scientific
Instrument type: LC-ESI-ITFT
Ms type: MS2
Ion mode: POSITIVE
Ionization: ESI
Fragmentation mode: HCD
Collision energy: 45 % (nominal)
Resolution: 15000
Column name: XBridge C18 3.5um, 2.1x50mm, Waters
Retention time: 12.6 min
Base peak: 458.9281
Precursor m/z: 436.946
Precursor type: [M+H]+
m/z	relative intensity	assigned
254.9697	999	C6ClF4N4O+
270.9224	158	C3HCl2F4N4S+
280.9758	271	C9H5ClF3N2OS+
289.9756	598	
332.9819	161	C11H5ClF3N4OS+
367.9499	204	C11H5Cl2F3N4OS+
