Mass spectrum: Xipamide; LC-ESI-QFT; MS2; CE: 150%; R=15000; [M+H]+
Name: Xipamide
Name: 4-chloro-N-(2,6-dimethylphenyl)-2-hydroxy-5-sulfamoylbenzamide
Formula: C15H15ClN2O4S
Exact mass: 354.0441
SMILES: CC1=C(C(=CC=C1)C)NC(=O)C2=CC(=C(C=C2O)Cl)S(=O)(=O)N
InChI: InChI=1S/C15H15ClN2O4S/c1-8-4-3-5-9(2)14(8)18-15(20)10-6-13(23(17,21)22)11(16)7-12(10)19/h3-7,19H,1-2H3,(H,18,20)(H2,17,21,22)
Instrument: Orbitrap Exploris 240 Thermo Scientific
Instrument type: LC-ESI-QFT
Ms type: MS2
Ion mode: POSITIVE
Ionization: ESI
Fragmentation mode: HCD
Collision energy: 150 % (nominal)
Resolution: 15000
Column name: Atlantis C18 3um, 3.0x150mm, Waters
Retention time: 17.870 min
Base peak: 355.0511
Precursor m/z: 355.0514
Precursor type: [M+H]+
Precursor intensity: 107967024
m/z	relative intensity	assigned
50.0151	13	C4H2+
51.0229	70	C4H3+
52.0181	8	C3H2N+
52.0307	11	C4H4+
53.0022	125	C3HO+
53.0385	13	C4H5+
61.0073	11	C5H+
62.0151	74	C5H2+
62.9631	16	CClO+
63.0229	168	C5H3+
68.0129	7	C3H2NO+
72.9839	50	C3H2Cl+
77.0385	104	C6H5+
78.0338	18	C5H4N+
79.0178	18	C5H3O+
79.0543	97	C6H7+
80.0496	15	C5H6N+
84.984	15	C4H2Cl+
86.9995	9	C4H4Cl+
89.026	8	C6H3N+
89.0385	27	C7H5+
90.01	67	C6H2O+
90.0465	19	C7H6+
91.0181	8	C6H3O+
91.0542	13	C7H7+
94.0286	9	C5H4NO+
95.0489	34	C6H7O+
96.984	82	C5H2Cl+
97.9916	7	C5H3Cl+
103.0543	19	C8H7+
105.0448	28	C6H5N2+
105.0698	10	C8H9+
106.0651	999	C7H8N+
107.0371	6	
107.073	300	C7H9N+
112.9784	7	C5H2ClO+
120.0807	24	C8H10N+
123.9709	13	C6HClO+
124.9786	24	C6H2ClO+
125.9867	83	C6H3ClO+
139.0552	6	C2H16ClO2S+
