Mass spectrum: Ketoconazole; LC-ESI-QFT; MS2; CE: 120; R=35000; [M+H]+
Name: Ketoconazole
Name: 1-[4-[4-[[(2R,4S)-2-(2,4-dichlorophenyl)-2-(imidazol-1-ylmethyl)-1,3-dioxolan-4-yl]methoxy]phenyl]piperazin-1-yl]ethanone
Formula: C26H28Cl2N4O4
Exact mass: 530.14876
SMILES: CC(=O)N1CCN(CC1)C2=CC=C(C=C2)OC[C@H]3CO[C@](O3)(CN4C=CN=C4)C5=C(C=C(C=C5)Cl)Cl
InChI: InChI=1S/C26H28Cl2N4O4/c1-19(33)31-10-12-32(13-11-31)21-3-5-22(6-4-21)34-15-23-16-35-26(36-23,17-30-9-8-29-18-30)24-7-2-20(27)14-25(24)28/h2-9,14,18,23H,10-13,15-17H2,1H3/t23-,26-/m0/s1
Instrument: Q Exactive Plus Orbitrap Thermo Scientific
Instrument type: LC-ESI-QFT
Ms type: MS2
Ion mode: POSITIVE
Ionization: ESI
Fragmentation mode: HCD
Collision energy: 120 (nominal)
Resolution: 35000
Column name: XBridge C18 3.5um, 2.1x50mm, Waters
Retention time: 7.9 min
Base peak: 531.1558
Precursor m/z: 531.156
Precursor type: [M+H]+
m/z	relative intensity	assigned
50.015	5	C4H2+
51.0229	3	C4H3+
52.0182	2	C3H2N+
53.0022	4	C3HO+
53.0386	27	C4H5+
54.0338	158	C3H4N+
55.0178	8	C3H3O+
55.0416	20	C3H5N+
55.0542	1	C4H7+
56.0495	54	C3H6N+
58.0651	2	C3H8N+
62.0151	1	C5H2+
63.0229	9	C5H3+
64.0308	1	C5H4+
65.0386	111	C5H5+
66.0464	8	C5H6+
67.0291	3	C3H3N2+
67.0417	2	C4H5N+
67.0542	4	C5H7+
68.0369	21	C3H4N2+
68.0494	6	C4H6N+
69.0447	88	C3H5N2+
70.0651	43	C4H8N+
71.0603	14	C3H7N2+
72.9839	14	C3H2Cl+
74.015	8	C6H2+
75.0229	10	C6H3+
76.0306	1	C6H4+
77.0021	12	C5HO+
77.0385	21	C6H5+
78.0337	4	C5H4N+
78.0464	9	C6H6+
79.0542	55	C6H7+
80.013	4	C4H2NO+
80.0494	20	C5H6N+
81.0447	999	C4H5N2+
82.0525	216	C4H6N2+
83.0603	12	C4H7N2+
84.0682	1	C4H8N2+
84.9839	4	C4H2Cl+
86.0601	3	C4H8NO+
86.9632	11	C3ClO+
88.0308	3	C7H4+
89.0386	62	C7H5+
90.0464	8	C7H6+
91.0542	81	C7H7+
92.0257	1	C6H4O+
92.0495	7	C6H6N+
93.0336	4	C6H5O+
93.0573	6	C6H7N+
93.0699	3	C7H9+
94.0413	53	C6H6O+
94.0652	7	C6H8N+
95.0491	93	C6H7O+
96.0444	10	C5H6NO+
96.984	6	C5H2Cl+
98.0152	2	C8H2+
98.9996	26	C5H4Cl+
99.0229	29	C8H3+
101.0386	1	C8H5+
102.0464	13	C8H6+
103.0542	70	C8H7+
104.0494	11	C7H6N+
104.062	8	C8H8+
105.0447	47	C6H5N2+
105.0572	6	C7H7N+
105.0699	7	C8H9+
106.0651	27	C7H8N+
107.0491	27	C7H7O+
107.0604	3	C6H7N2+
107.0729	2	C7H9N+
107.9761	1	C6HCl+
108.0444	4	C6H6NO+
108.984	37	C6H2Cl+
109.0396	18	C5H5N2O+
109.0522	3	C6H7NO+
110.0599	1	C6H8NO+
110.9996	3	C6H4Cl+
111.044	35	C6H7O2+
112.0074	1	C6H5Cl+
112.0756	10	C6H10NO+
113.0383	1	C9H5+
114.0464	3	C9H6+
115.0542	117	C9H7+
116.0494	3	C8H6N+
116.0621	13	C9H8+
117.0573	35	C8H7N+
117.0698	13	C9H9+
118.0413	3	C8H6O+
118.0651	35	C8H8N+
119.0493	2	C8H7O+
119.073	8	C8H9N+
120.0444	94	C7H6NO+
120.0808	14	C8H10N+
121.0396	59	C6H5N2O+
121.0522	24	C7H7NO+
121.0644	4	C8H9O+
122.06	40	C7H8NO+
122.9996	213	C7H4Cl+
124.0074	25	C7H5Cl+
125.0153	15	C7H6Cl+
126.0466	1	C10H6+
127.0502	81	C5H7N2O2+
128.0025	2	C6H5ClO+
128.0495	3	C9H6N+
128.062	20	C10H8+
129.0103	4	C6H6ClO+
129.0445	2	C8H5N2+
129.0571	1	C9H7N+
129.0698	6	C10H9+
130.0652	50	C9H8N+
131.0492	25	C9H7O+
131.0603	8	C8H7N2+
131.073	13	C9H9N+
132.0445	3	C8H6NO+
132.0571	8	C9H8O+
132.0807	10	C9H10N+
132.9606	12	C5H3Cl2+
133.0522	10	C8H7NO+
133.9917	7	C8H3Cl+
134.06	20	C8H8NO+
134.9995	10	C8H4Cl+
135.0678	2	C8H9NO+
136.0074	44	C8H5Cl+
136.0757	17	C8H10NO+
137.0153	1	C8H6Cl+
139.0057	7	C6H4ClN2+
140.0494	3	C10H6N+
141.0572	5	C10H7N+
142.0651	5	C10H8N+
143.0729	10	C10H9N+
144.0808	13	C10H10N+
144.9606	8	C6H3Cl2+
145.0648	4	C10H9O+
145.9686	2	C6H4Cl2+
146.06	10	C9H8NO+
146.0966	3	C10H12N+
148.0758	3	C9H10NO+
149.0153	24	C9H6Cl+
150.023	7	C9H7Cl+
153.01	2	C8H6ClO+
154.0652	5	C11H8N+
155.0603	7	C10H7N2+
156.0683	3	C10H8N2+
156.0808	4	C11H10N+
157.9687	5	C7H4Cl2+
158.06	13	C10H8NO+
158.9763	113	C7H5Cl2+
160.0756	5	C10H10NO+
162.0105	3	C9H5ClN+
162.971	7	C6H5Cl2O+
163.0057	23	C8H4ClN2+
168.0682	1	C11H8N2+
169.9684	67	C8H4Cl2+
170.9763	5	C8H5Cl2+
172.0757	3	C11H10NO+
172.9557	13	C7H3Cl2O+
172.9668	49	C6H3Cl2N2+
174.0915	1	C11H12NO+
177.0338	1	C10H8ClN+
182.9764	3	C9H5Cl2+
203.037	4	C11H8ClN2+
