Mass spectrum: 1-Chlorobenzotriazole; LC-ESI-QFT; MS2; CE: 180; R=35000; [M+H]+
Name: 1-Chlorobenzotriazole
Name: 1-chloro-benzotriazole
Name: Chlorobenzotriazole
Formula: C6H4ClN3
Exact mass: 153.00937
SMILES: C1=CC=C2C(=C1)N=NN2Cl
InChI: InChI=1S/C6H4ClN3/c7-10-6-4-2-1-3-5(6)8-9-10/h1-4H
Instrument: Q Exactive Plus Orbitrap Thermo Scientific
Instrument type: LC-ESI-QFT
Ms type: MS2
Ion mode: POSITIVE
Ionization: ESI
Fragmentation mode: HCD
Collision energy: 180 (nominal)
Resolution: 35000
Column name: XBridge C18 3.5um, 2.1x50mm, Waters
Retention time: 6.4 min
Base peak: 154.0164
Precursor m/z: 154.0167
Precursor type: [M+H]+
m/z	relative intensity	assigned
50.0151	5	C4H2+
52.0182	31	C3H2N+
53.0022	16	C3HO+
53.9974	4	C2NO+
55.0179	5	C3H3O+
60.984	1	C2H2Cl+
61.0073	22	C5H+
61.9792	33	CHClN+
62.0151	125	C5H2+
63.0229	458	C5H3+
64.0182	109	C4H2N+
64.0307	54	C5H4+
65.026	30	C4H3N+
66.0338	2	C4H4N+
71.9761	1	C3HCl+
72.9839	999	C3H2Cl+
74.0152	3	C6H2+
74.9995	1	C3H4Cl+
75.0103	16	C5HN+
75.9947	3	C2H3ClN+
76.0181	26	C5H2N+
76.9901	2	CH2ClN2+
79.0178	2	C5H3O+
81.0334	2	C5H5O+
84.984	2	C4H2Cl+
89.026	5	C6H3N+
90.0339	29	C6H4N+
91.0417	32	C6H5N+
92.0369	1	C5H4N2+
97.9917	1	C5H3Cl+
98.9996	86	C5H4Cl+
119.0478	7	C6H5N3+
125.0028	2	C6H4ClN+
