Mass spectrum: 10,11-trans-Dihydroxy-10,11-dihydrocarbamazepine; LC-ESI-ITFT; MS2; CE: 60%; R=7500; [M+H]+
Name: 10,11-trans-Dihydroxy-10,11-dihydrocarbamazepine
Name: (5S,6S)-5,6-bis(oxidanyl)-5,6-dihydrobenzo[b][1]benzazepine-11-carboxamide
Formula: C15H14N2O3
Exact mass: 270.1004
SMILES: c12[C@@H]([C@@H](O)c3c(N(C(N)=O)c2cccc1)cccc3)O
InChI: InChI=1S/C15H14N2O3/c16-15(20)17-11-7-3-1-5-9(11)13(18)14(19)10-6-2-4-8-12(10)17/h1-8,13-14,18-19H,(H2,16,20)/t13-,14-/m0/s1
Instrument: LTQ Orbitrap XL Thermo Scientific
Instrument type: LC-ESI-ITFT
Ms type: MS2
Ion mode: POSITIVE
Ionization: ESI
Fragmentation mode: HCD
Collision energy: 60 % (nominal)
Resolution: 7500
Column name: XBridge C18 3.5um, 2.1x50mm, Waters
Retention time: 6.1 min
Base peak: 271.1079
Precursor m/z: 271.1077
Precursor type: [M+H]+
m/z	relative intensity	assigned
165.07	7	C13H9+
167.0731	25	C12H9N+
179.0733	2	C13H9N+
180.0809	999	C13H10N+
181.0887	36	C13H11N+
182.0964	329	C13H12N+
192.0808	6	C14H10N+
193.0888	5	C14H11N+
208.0761	6	C14H10NO+
209.0838	1	C14H11NO+
210.0914	149	C14H12NO+
253.1062	7	C11H15N3O4+
