Mass spectrum: Dichlobenil; LC-ESI-ITFT; MS2; CE: 15%; R=15000; [M+H]+
Name: Dichlobenil
Name: 2,6-Dichlorobenzonitrile
Name: 2,6-bis(chloranyl)benzenecarbonitrile
Formula: C7H3Cl2N
Exact mass: 170.9643
SMILES: c1(c(cccc1Cl)Cl)C#N
InChI: InChI=1S/C7H3Cl2N/c8-6-2-1-3-7(9)5(6)4-10/h1-3H
Instrument: LTQ Orbitrap XL Thermo Scientific
Instrument type: LC-ESI-ITFT
Ms type: MS2
Ion mode: POSITIVE
Ionization: ESI
Fragmentation mode: HCD
Collision energy: 15 % (nominal)
Resolution: 15000
Column name: XBridge C18 3.5um, 2.1x50mm, Waters
Retention time: 8.5 min
Base peak: 149.012
Precursor m/z: 171.9715
Precursor type: [M+H]+
m/z	relative intensity	assigned
171.9715	999	C7H4Cl2N+
