Mass spectrum: Amidosulfuron; LC-ESI-QFT; MS2; CE: 15; R=35000; [M+H]+
Name: Amidosulfuron
Name: 1-(4,6-dimethoxy-2-pyrimidinyl)-3-[methyl(methylsulfonyl)sulfamoyl]urea
Formula: C9H15N5O7S2
Exact mass: 369.04129
SMILES: O=C(Nc1nc(OC)cc(OC)n1)NS(=O)(=O)N(C)S(=O)(=O)C
InChI: InChI=1S/C9H15N5O7S2/c1-14(22(4,16)17)23(18,19)13-9(15)12-8-10-6(20-2)5-7(11-8)21-3/h5H,1-4H3,(H2,10,11,12,13,15)
Instrument: Q Exactive Orbitrap Thermo Scientific
Instrument type: LC-ESI-QFT
Ms type: MS2
Ion mode: POSITIVE
Ionization: ESI
Fragmentation mode: HCD
Collision energy: 15 (nominal)
Resolution: 35000
Column name: XBridge C18 3.5um, 2.1x50mm, Waters
Retention time: 8.4 min
Base peak: 370.0493
Precursor m/z: 370.0486
Precursor type: [M+H]+
m/z	relative intensity	assigned
139.0377	2	C5H5N3O2+
154.0606	3	C6H8N3O2+
156.0762	6	C6H10N3O2+
182.056	20	C7H8N3O3+
199.0827	186	C7H11N4O3+
218.0233	16	
236.0339	26	C6H10N3O5S+
261.0292	217	C7H9N4O5S+
279.0397	999	C7H11N4O6S+
