Mass spectrum: Niflumic acid; LC-ESI-QFT; MS2; CE: 180; R=35000; [M+H]+
Name: Niflumic acid
Name: 2-[3-(trifluoromethyl)anilino]pyridine-3-carboxylic acid
Formula: C13H9F3N2O2
Exact mass: 282.06161
SMILES: C1=CC(=CC(=C1)NC2=C(C=CC=N2)C(=O)O)C(F)(F)F
InChI: InChI=1S/C13H9F3N2O2/c14-13(15,16)8-3-1-4-9(7-8)18-11-10(12(19)20)5-2-6-17-11/h1-7H,(H,17,18)(H,19,20)
Instrument: Q Exactive Plus Orbitrap Thermo Scientific
Instrument type: LC-ESI-QFT
Ms type: MS2
Ion mode: POSITIVE
Ionization: ESI
Fragmentation mode: HCD
Collision energy: 180 (nominal)
Resolution: 35000
Column name: XBridge C18 3.5um, 2.1x50mm, Waters
Retention time: 12.7 min
Base peak: 283.0682
Precursor m/z: 283.0689
Precursor type: [M+H]+
m/z	relative intensity	assigned
50.0151	66	C4H2+
51.0041	27	CHF2+
51.023	25	C4H3+
52.0182	9	C3H2N+
52.0308	5	C4H4+
53.0022	20	C3HO+
53.0386	1	C4H5+
53.9975	8	C2NO+
57.0135	64	C3H2F+
61.0073	20	C5H+
62.0151	47	C5H2+
63.0229	146	C5H3+
64.0182	12	C4H2N+
64.0307	11	C5H4+
65.0022	11	C4HO+
65.0259	4	C4H3N+
65.0386	33	C5H5+
66.01	1	C4H2O+
66.0339	6	C4H4N+
66.0464	3	C5H6+
67.0179	1	C4H3O+
67.0417	3	C4H5N+
68.0056	3	C4HF+
68.9947	143	CF3+
69.0135	42	C4H2F+
70.0213	1	C4H3F+
71.0292	4	C4H4F+
74.0151	535	C6H2+
75.0041	265	C3HF2+
75.0229	999	C6H3+
76.0181	52	C5H2N+
76.0306	12	C6H4+
77.0022	1	C5HO+
77.0134	3	C4HN2+
77.0197	3	C3H3F2+
77.0385	8	C6H5+
78.0338	36	C5H4N+
78.9979	1	C5F+
79.0178	1	C5H3O+
79.0416	9	C5H5N+
81.0135	37	C5H2F+
83.0291	16	C5H4F+
84.037	4	C5H5F+
85.0073	5	C7H+
86.0151	25	C7H2+
87.0229	70	C7H3+
88.0182	24	C6H2N+
88.0308	102	C7H4+
89.0386	112	C7H5+
90.0339	15	C6H4N+
90.0464	31	C7H6+
91.0417	5	C6H5N+
92.0257	3	C6H4O+
92.0369	1	C5H4N2+
92.0495	3	C6H6N+
92.9947	13	C3F3+
93.0135	16	C6H2F+
93.0336	1	C6H5O+
93.0448	5	C5H5N2+
94.0214	4	C6H3F+
95.0104	11	C3H2F3+
95.0292	47	C6H4F+
95.0491	10	C6H7O+
96.0444	16	C5H6NO+
98.0151	33	C8H2+
99.0041	70	C5HF2+
99.0103	10	
99.0229	36	C8H3+
100.0182	35	C7H2N+
101.0022	1	C7HO+
101.0197	3	C5H3F2+
102.0338	13	C7H4N+
103.0291	6	C6H3N2+
104.0495	1	C7H6N+
105.0136	11	C7H2F+
105.0447	5	C6H5N2+
106.0214	3	C7H3F+
107.0292	19	C7H4F+
108.0371	3	C7H5F+
111.0229	8	C9H3+
111.048	4	C6H6FN+
112.0307	7	C9H4+
113.0386	311	C9H5+
114.0281	7	C6H4F2+
114.0339	85	C8H4N+
114.0464	39	C9H6+
115.0417	18	C8H5N+
115.0542	22	C9H7+
116.0495	6	C8H6N+
117.0135	15	C8H2F+
117.0572	10	C8H7N+
118.0287	3	C7H4NO+
118.0413	5	C8H6O+
119.0104	12	C5H2F3+
120.0206	6	C7H4O2+
120.0244	1	C7H3FN+
120.0371	1	C8H5F+
120.0445	2	C7H6NO+
122.0151	65	C10H2+
123.0104	20	
123.0229	59	C10H3+
123.0353	72	C6H4FN2+
124.0182	57	C9H2N+
125.0198	54	C7H3F2+
126.0273	1	C7H4F2+
126.0341	1	C9H4N+
126.0467	1	C10H6+
127.0417	1	C9H5N+
128.0495	1	C9H6N+
129.0448	6	C8H5N2+
130.04	10	C7H4N3+
131.0292	11	C9H4F+
132.0371	6	C9H5F+
132.0443	6	C8H6NO+
132.0569	12	C9H8O+
133.0448	13	C9H6F+
134.0604	1	C8H8NO+
138.0277	4	C8H4F2+
138.0339	11	C10H4N+
139.0417	18	C10H5N+
140.0495	247	C10H6N+
141.0258	1	C6H3F2N2+
141.0446	2	C9H5N2+
141.0573	7	C10H7N+
142.0214	4	C10H3F+
142.0287	1	C9H4NO+
142.0526	7	C9H6N2+
143.0104	4	C7H2F3+
143.0294	11	C10H4F+
144.0245	2	C9H3FN+
144.0368	5	C10H5F+
145.0261	12	C7H4F3+
147.0105	4	C11HN+
148.0182	5	C11H2N+
148.0307	1	C12H4+
150.0152	1	C8H2F2N+
150.034	6	C11H4N+
151.0357	1	C9H5F2+
151.0415	2	C11H5N+
157.0522	11	C10H7NO+
158.0402	18	C10H5FN+
158.0599	1	C10H8NO+
159.0551	1	C9H7N2O+
161.0393	1	C10H6FO+
162.0277	17	C10H4F2+
163.023	1	C9H3F2N+
165.0448	9	C11H5N2+
166.0526	39	C11H6N2+
167.0604	7	C11H7N2+
168.0244	3	C11H3FN+
168.0445	4	C11H6NO+
169.0324	8	C11H4FN+
170.0401	1	C11H5FN+
172.0308	1	C9H3FN3+
182.0337	1	C10H5F3+
186.0351	1	C11H5FNO+
188.0506	1	C11H7FNO+
189.0385	4	C11H5F2N+
191.0414	1	C10H5F2N2+
196.0435	1	C12H5FN2+
197.0506	1	C12H6FN2+
206.0411	1	C11H6F2NO+
217.0581	1	C12H7F2N2+
