Mass spectrum: Tembotrione; LC-ESI-QFT; MS2; CE: 30; R=35000; [M-H]-
Name: Tembotrione
Name: 2-{2-Chloro-4-(methylsulfonyl)-3-[(2,2,2-trifluoroethoxy)methyl]benzoyl}-1,3-cyclohexanedione
Formula: C17H16ClF3O6S
Exact mass: 440.03082
SMILES: O=C(c1ccc(c(c1Cl)COCC(F)(F)F)S(=O)(=O)C)C2C(=O)CCCC2=O
InChI: InChI=1S/C17H16ClF3O6S/c1-28(25,26)13-6-5-9(15(18)10(13)7-27-8-17(19,20)21)16(24)14-11(22)3-2-4-12(14)23/h5-6,14H,2-4,7-8H2,1H3
Instrument: Q Exactive Orbitrap Thermo Scientific
Instrument type: LC-ESI-QFT
Ms type: MS2
Ion mode: NEGATIVE
Ionization: ESI
Fragmentation mode: HCD
Collision energy: 30 (nominal)
Resolution: 35000
Column name: XBridge C18 3.5um, 2.1x50mm, Waters
Retention time: 9.9 min
Base peak: 439.0241
Precursor m/z: 439.0235
Precursor type: [M-H]-
m/z	relative intensity	assigned
78.986	2	CH3O2S-
195.0813	2	C14H11O-
197.0608	6	C13H9O2-
211.0765	2	C14H11O2-
213.0558	2	C13H9O3-
226.0634	70	C14H10O3-
238.0635	3	C15H10O3-
239.0714	52	C15H11O3-
241.0872	22	C15H13O3-
258.0535	6	C14H10O5-
261.0223	4	C13H9O4S-
271.007	1	C14H7O4S-
303.0344	3	C12H12FO6S-
304.0408	3	C15H12O5S-
305.0491	13	C15H13O5S-
361.0366	7	C15H12F3O5S-
403.0468	999	C17H14F3O6S-
