Mass spectrum: Dioxoaminopyrine; LC-ESI-ITFT; MS2; CE: 30%; R=7500; [M+H]+
Name: Dioxoaminopyrine
Name: AMDOPH
Name: 2-(N-[acetyl(methyl)amino]anilino)-2-keto-N,N-dimethyl-acetamide
Formula: C13H17N3O3
Exact mass: 263.1270
SMILES: c1ccccc1N(C(=O)C(=O)N(C)C)N(C)C(=O)C
InChI: InChI=1S/C13H17N3O3/c1-10(17)15(4)16(11-8-6-5-7-9-11)13(19)12(18)14(2)3/h5-9H,1-4H3
Instrument: LTQ Orbitrap XL Thermo Scientific
Instrument type: LC-ESI-ITFT
Ms type: MS2
Ion mode: POSITIVE
Ionization: ESI
Fragmentation mode: HCD
Collision energy: 30 % (nominal)
Resolution: 7500
Column name: XBridge C18 3.5um, 2.1x50mm, Waters
Retention time: 5.2 min
Base peak: 286.1173
Precursor m/z: 264.1343
Precursor type: [M+H]+
m/z	relative intensity	assigned
56.0495	7	C3H6N+
65.0387	5	C5H5+
72.0444	668	C3H6NO+
92.0495	61	C6H6N+
106.0654	3	C7H8N+
134.0604	4	C8H8NO+
149.071	61	C8H9N2O+
163.0867	128	C9H11N2O+
165.1025	4	C9H13N2O+
177.0661	4	C9H9N2O2+
191.0816	999	C10H11N2O2+
194.1291	10	C10H16N3O+
204.1137	15	C11H14N3O+
222.1238	432	C11H16N3O2+
