Mass spectrum: Desacetyl-Diltiazem; LC-ESI-QFT; MS2; CE: 70%; R=15000; [M+H]+
Name: Desacetyl-Diltiazem
Name: (2S,3S)-5-[2-(dimethylamino)ethyl]-3-hydroxy-2-(4-methoxyphenyl)-2,3-dihydro-1,5-benzothiazepin-4-one
Formula: C20H24N2O3S
Exact mass: 372.1507636
SMILES: CN(C)CCN1C2=CC=CC=C2SC(C(C1=O)O)C3=CC=C(C=C3)OC
InChI: InChI=1S/C20H24N2O3S/c1-21(2)12-13-22-16-6-4-5-7-17(16)26-19(18(23)20(22)24)14-8-10-15(25-3)11-9-14/h4-11,18-19,23H,12-13H2,1-3H3
Instrument: Exploris 240 Thermo Scientific
Instrument type: LC-ESI-QFT
Ms type: MS2
Ion mode: POSITIVE
Ionization: ESI
Fragmentation mode: HCD
Collision energy: 70 % (nominal)
Resolution: 15000
Column name: XBridge C18 3.5um, 2.1x50mm, Waters
Retention time: 5.114 min
Base peak: 373.1576
Precursor m/z: 373.158
Precursor type: [M+H]+
m/z	relative intensity	assigned
56.0495	26	C3H6N+
58.0651	24	C3H8N+
65.0385	999	C5H5+
68.9793	160	C3HS+
70.0652	14	C4H8N+
72.0808	38	C4H10N+
78.0465	34	C6H6+
82.9949	17	C4H3S+
89.0387	17	C7H5+
95.0493	22	C6H7O+
105.0446	12	C6H5N2+
108.003	58	C6H4S+
109.0106	764	C6H5S+
117.0575	31	C8H7N+
202.0775	290	C16H10+
