Mass spectrum: Zonisamide; LC-ESI-QFT; MS2; CE: 45; R=35000; [M-H]-
Name: Zonisamide
Name: AD-810
Name: 1,2-benzoxazol-3-ylmethanesulfonamide
Formula: C8H8N2O3S
Exact mass: 212.02556
SMILES: O=S(=O)(N)Cc2noc1ccccc12
InChI: InChI=1S/C8H8N2O3S/c9-14(11,12)5-7-6-3-1-2-4-8(6)13-10-7/h1-4H,5H2,(H2,9,11,12)
Instrument: Q Exactive Orbitrap Thermo Scientific
Instrument type: LC-ESI-QFT
Ms type: MS2
Ion mode: NEGATIVE
Ionization: ESI
Fragmentation mode: HCD
Collision energy: 45 (nominal)
Resolution: 35000
Column name: XBridge C18 3.5um, 2.1x50mm, Waters
Retention time: 4.3 min
Base peak: 211.0183
Precursor m/z: 211.0183
Precursor type: [M-H]-
m/z	relative intensity	assigned
61.9706	2	NOS-
63.9625	13	O2S-
65.0397	2	C5H5-
77.9655	7	NO2S-
78.9733	44	HNO2S-
79.9812	1	H2NO2S-
90.035	9	C6H4N-
91.0553	15	C7H7-
93.0346	32	C6H5O-
107.0503	35	C7H7O-
117.0348	46	C8H5O-
118.0301	558	C7H4NO-
119.0502	999	C8H7O-
120.0452	5	C7H6NO-
130.0299	1	C8H4NO-
132.0452	2	C8H6NO-
147.0564	26	C8H7N2O-
