Mass spectrum: Chlordiazepoxide; LC-ESI-QFT; MS2; CE: 30; R=35000; [M+H]+
Name: Chlordiazepoxide
Name: Zetran
Name: 7-chloro-4-hydroxy-N-methyl-5-phenyl-3H-1,4-benzodiazepin-2-imine
Formula: C16H14ClN3O
Exact mass: 299.08254
SMILES: CN=C1CN(C(=C2C=C(C=CC2=N1)Cl)C3=CC=CC=C3)O
InChI: InChI=1S/C16H14ClN3O/c1-18-15-10-20(21)16(11-5-3-2-4-6-11)13-9-12(17)7-8-14(13)19-15/h2-9,21H,10H2,1H3
Instrument: Q Exactive Plus Orbitrap Thermo Scientific
Instrument type: LC-ESI-QFT
Ms type: MS2
Ion mode: POSITIVE
Ionization: ESI
Fragmentation mode: HCD
Collision energy: 30 (nominal)
Resolution: 35000
Column name: XBridge C18 3.5um, 2.1x50mm, Waters
Retention time: 6.2 min
Base peak: 300.0888
Precursor m/z: 300.0898
Precursor type: [M+H]+
m/z	relative intensity	assigned
57.0446	33	C2H5N2+
60.0443	9	C2H6NO+
104.0493	1	C7H6N+
105.0334	4	C7H5O+
165.0214	1	C8H6ClN2+
179.0369	2	C9H8ClN2+
180.0447	17	C9H9ClN2+
191.0246	1	C9H6ClN3+
206.0471	1	C13H6N2O+
208.099	2	C14H12N2+
220.0992	4	C15H12N2+
226.041	2	C14H9ClN+
227.0495	651	C14H10ClN+
231.0682	22	C13H12ClN2+
240.0578	1	C15H11ClN+
241.0525	326	C14H10ClN2+
242.0364	3	C14H9ClNO+
242.0605	8	C14H11ClN2+
243.0677	1	C14H12ClN2+
244.0526	2	C14H11ClNO+
253.0532	1	C15H10ClN2+
254.0601	1	C15H11ClN2+
255.0681	204	C15H12ClN2+
256.076	6	C15H13ClN2+
266.0603	87	C16H11ClN2+
267.0682	1	C16H12ClN2+
268.063	1	C15H11ClN3+
269.0475	23	C15H10ClN2O+
269.0837	52	C16H14ClN2+
282.0791	200	C16H13ClN3+
283.0868	999	C16H14ClN3+
300.0895	159	C16H15ClN3O+
