Mass spectrum: Molinate; LC-ESI-QFT; MS2; CE: 75; R=35000; [M+H]+
Name: Molinate
Name: S-ethyl azepane-1-carbothioate
Formula: C9H17NOS
Exact mass: 187.10309
SMILES: CCSC(=O)N1CCCCCC1
InChI: InChI=1S/C9H17NOS/c1-2-12-9(11)10-7-5-3-4-6-8-10/h2-8H2,1H3
Instrument: Q Exactive Plus Orbitrap Thermo Scientific
Instrument type: LC-ESI-QFT
Ms type: MS2
Ion mode: POSITIVE
Ionization: ESI
Fragmentation mode: HCD
Collision energy: 75 (nominal)
Resolution: 35000
Column name: XBridge C18 3.5um, 2.1x50mm, Waters
Retention time: 10.5 min
Base peak: 188.11
Precursor m/z: 188.1104
Precursor type: [M+H]+
m/z	relative intensity	assigned
53.0023	2	C3HO+
53.0386	16	C4H5+
55.0542	999	C4H7+
56.0131	1	C2H2NO+
56.0495	10	C3H6N+
57.0573	2	C3H7N+
58.0287	2	C2H4NO+
58.0651	1	C3H8N+
67.9893	1	C3O2+
69.0699	12	C5H9+
70.0651	59	C4H8N+
79.0542	8	C6H7+
81.0699	42	C6H9+
82.0652	1	C5H8N+
83.0491	9	C5H7O+
83.0855	151	C6H11+
84.0444	3	C4H6NO+
84.0808	11	C5H10N+
89.0055	1	C3H5OS+
96.0807	2	C6H10N+
97.0649	3	C6H9O+
98.0964	195	C6H12N+
99.1042	2	C6H13N+
100.1121	1	C6H14N+
108.0807	3	C7H10N+
126.0914	73	C7H12NO+
160.1154	2	C8H18NS+
