Mass spectrum: 10phiC10SPC; LC-ESI-QFT; MS2; CE: 90; R=35000; [M+H]+
Name: 10phiC10SPC
Name: Decacarboxy sulfophenyl carboxylic acid
Name: 10-(4-sulfophenyl)octanoic acid
Formula: C16H24O5S
Exact mass: 328.13444
SMILES: OS(=O)(=O)c1ccc(CCCCCCCCCC(=O)O)cc1
InChI: InChI=1S/C16H24O5S/c17-16(18)9-7-5-3-1-2-4-6-8-14-10-12-15(13-11-14)22(19,20)21/h10-13H,1-9H2,(H,17,18)(H,19,20,21)
Instrument: Q Exactive Plus Orbitrap Thermo Scientific
Instrument type: LC-ESI-QFT
Ms type: MS2
Ion mode: POSITIVE
Ionization: ESI
Fragmentation mode: HCD
Collision energy: 90 (nominal)
Resolution: 35000
Column name: XBridge C18 3.5um, 2.1x50mm, Waters
Retention time: 10.8 min
Base peak: 343.1573
Precursor m/z: 329.1417
Precursor type: [M+H]+
m/z	relative intensity	assigned
50.0151	8	C4H2+
51.0229	22	C4H3+
52.0307	2	C4H4+
53.0022	21	C3HO+
53.0386	159	C4H5+
53.9974	5	C2NO+
55.0179	28	C3H3O+
55.0543	56	C4H7+
57.0699	216	C4H9+
58.9949	3	C2H3S+
63.023	2	C5H3+
65.0386	33	C5H5+
66.0464	3	C5H6+
67.0542	64	C5H7+
67.9892	3	C3O2+
69.0334	9	C4H5O+
69.0699	10	C5H9+
71.0855	2	C5H11+
77.0385	109	C6H5+
78.0464	202	C6H6+
79.0542	350	C6H7+
81.0336	15	C5H5O+
81.0698	21	C6H9+
89.0386	13	C7H5+
90.0465	30	C7H6+
91.0543	538	C7H7+
93.0698	19	C7H9+
94.0414	11	C6H6O+
95.0492	594	C6H7O+
97.0108	30	C5H5S+
102.0464	22	C8H6+
103.0543	494	C8H7+
104.0621	965	C8H8+
105.0448	295	C6H5N2+
105.07	97	C8H9+
107.0492	999	C7H7O+
108.0029	2	C6H4S+
109.0107	93	C6H5S+
111.0262	23	C6H7S+
115.0543	248	C9H7+
116.0621	126	C9H8+
117.0699	414	C9H9+
118.0413	3	C8H6O+
118.0777	31	C9H10+
119.0493	2	C8H7O+
120.057	13	C8H8O+
121.0108	15	C7H5S+
121.0649	30	C8H9O+
122.0188	2	C7H6S+
123.0264	11	C7H7S+
125.0057	19	C6H5OS+
128.0621	82	C10H8+
129.0699	207	C10H9+
130.0778	65	C10H10+
131.0493	13	C9H7O+
131.0604	27	C8H7N2+
131.0856	88	C10H11+
132.057	4	C9H8O+
133.0649	10	C9H9O+
134.0185	85	C8H6S+
135.0263	33	C8H7S+
137.0057	20	C7H5OS+
139.0213	4	C7H7OS+
141.07	31	C11H9+
142.0777	9	C11H10+
143.0856	23	C11H11+
145.0649	4	C10H9O+
145.1013	21	C11H13+
147.0263	43	C9H7S+
147.0805	3	C10H11O+
148.0341	24	C9H8S+
149.0416	3	C9H9S+
150.0139	4	C8H6OS+
151.0214	4	C8H7OS+
153.001	2	C7H5O2S+
153.0699	3	C12H9+
154.078	5	C12H10+
155.0605	9	C10H7N2+
155.0856	3	C12H11+
159.0918	4	C10H11N2+
161.042	2	C10H9S+
167.0163	11	C8H7O2S+
171.0111	277	C7H7O3S+
171.0261	18	C11H7S+
185.0269	2	C8H9O3S+
185.0421	3	C12H9S+
