Mass spectrum: Nicosulfuron-TP UCSN; LC-ESI-QFT; MS2; CE: 45%; R=17500; [M+H]+
Name: Nicosulfuron-TP UCSN
Name: 2-[(Carbamoylcarbamoyl)sulfamoyl]-N,N-dimethylnicotinamide
Formula: C10H13N5O5S
Exact mass: 315.0637
SMILES: CN(C)C(=O)C1=CC=CN=C1S(=O)(=O)NC(=O)NC(N)=O
InChI: InChI=1S/C10H13N5O5S/c1-15(2)8(16)6-4-3-5-12-7(6)21(19,20)14-10(18)13-9(11)17/h3-5H,1-2H3,(H4,11,13,14,17,18)
Instrument: Q Exactive Plus Orbitrap Thermo Scientific
Instrument type: LC-ESI-QFT
Ms type: MS2
Ion mode: POSITIVE
Ionization: ESI
Fragmentation mode: HCD
Collision energy: 45 % (nominal)
Resolution: 17500
Column name: XBridge C18 3.5um, 2.1x50mm, Waters
Retention time: 1.505 min
Base peak: 316.0711
Precursor m/z: 316.071
Precursor type: [M+H]+
m/z	relative intensity	assigned
50.015	1	C4H2+
51.0231	3	C4H3+
67.5437	5	
78.0337	74	C5H4N+
87.0186	1	C2H3N2O2+
92.0165	6	C2H6NOS+
96.0443	4	C5H6NO+
106.0287	999	C6H4NO+
110.06	20	C6H8NO+
147.0187	3	C7H3N2O2+
185.0022	1	C6H5N2O3S+
213.0327	169	C8H9N2O3S+
