Mass spectrum: Terbutryn; LC-ESI-ITFT; MS2; CE: 60%; R=15000; [M+H]+
Name: Terbutryn
Name: 2-N-tert-butyl-4-N-ethyl-6-methylsulfanyl-1,3,5-triazine-2,4-diamine
Formula: C10H19N5S
Exact mass: 241.1356
SMILES: c1(nc(nc(n1)SC)NCC)NC(C)(C)C
InChI: InChI=1S/C10H19N5S/c1-6-11-7-12-8(15-10(2,3)4)14-9(13-7)16-5/h6H2,1-5H3,(H2,11,12,13,14,15)
Instrument: LTQ Orbitrap XL Thermo Scientific
Instrument type: LC-ESI-ITFT
Ms type: MS2
Ion mode: POSITIVE
Ionization: ESI
Fragmentation mode: HCD
Collision energy: 60 % (nominal)
Resolution: 15000
Column name: XBridge C18 3.5um, 2.1x50mm, Waters
Retention time: 8.5 min
Base peak: 242.1438
Precursor m/z: 242.1434
Precursor type: [M+H]+
m/z	relative intensity	assigned
57.0698	1	C4H9+
68.0243	44	C2H2N3+
71.0604	38	C3H7N2+
74.0059	13	C2H4NS+
85.0509	10	C2H5N4+
91.0325	122	C2H7N2S+
96.0556	51	C4H6N3+
102.0372	6	C4H8NS+
110.0461	4	C3H4N5+
113.0822	25	C4H9N4+
116.0277	38	C3H6N3S+
138.0774	59	C5H8N5+
140.0935	1	C5H10N5+
144.0591	48	C5H10N3S+
158.0495	68	C4H8N5S+
171.0572	3	C5H9N5S+
186.0809	999	C6H12N5S+
