Mass spectrum: Chlorfluazuron; LC-ESI-QFT; MS2; CE: 120%; R=17500; [M+H]+
Name: Chlorfluazuron
Name: N-[[3,5-dichloro-4-[3-chloro-5-(trifluoromethyl)pyridin-2-yl]oxyphenyl]carbamoyl]-2,6-difluorobenzamide
Formula: C20H9Cl3F5N3O3
Exact mass: 538.9630
SMILES: C1=CC(=C(C(=C1)F)C(=O)NC(=O)NC2=CC(=C(C(=C2)Cl)OC3=C(C=C(C=N3)C(F)(F)F)Cl)Cl)F
InChI: InChI=1S/C20H9Cl3F5N3O3/c21-10-5-9(30-19(33)31-17(32)15-13(24)2-1-3-14(15)25)6-11(22)16(10)34-18-12(23)4-8(7-29-18)20(26,27)28/h1-7H,(H2,30,31,32,33)
Instrument: Exploris 240 Orbitrap Thermo Scientific
Instrument type: LC-ESI-QFT
Ms type: MS2
Ion mode: POSITIVE
Ionization: ESI
Fragmentation mode: HCD
Collision energy: 120 % (nominal)
Resolution: 17500
Column name: XBridge C18 3.5um, 2.1x50mm, Waters
Retention time: 15.243 min
Base peak: 539.9705
Precursor m/z: 539.9702
Precursor type: [M+H]+
m/z	relative intensity	assigned
62.0152	14	C5H2+
63.023	337	C5H3+
64.0182	7	C4H2N+
66.9746	26	CHClF+
68.9947	111	CF3+
72.984	105	C3H2Cl+
75.0041	62	C3HF2+
75.0103	27	C5HN+
76.0182	63	C5H2N+
82.0091	8	C4HFN+
82.945	33	CHCl2+
84.9651	92	CClF2+
84.9841	14	C4H2Cl+
88.0181	43	C6H2N+
90.9746	62	C3HClF+
93.0134	45	C6H2F+
96.9842	91	C5H2Cl+
97.9794	45	C4HClN+
99.0038	15	F3N3+
100.0181	51	C7H2N+
106.9452	63	C3HCl2+
107.0105	14	C4H2F3+
108.9652	151	C3ClF2+
109.9793	171	C5HClN+
110.9871	69	C5H2ClN+
111.0241	10	C6H4FO+
111.9948	48	C5H3ClN+
113.0199	130	C6H3F2+
114.0145	11	C5H2F2N+
119.0104	16	C5H2F3+
123.9949	999	C6H3ClN+
126.0151	20	C6H2F2N+
127.9899	19	C5H3ClNO+
129.9855	16	C5H2ClFN+
130.9453	16	C5HCl2+
132.9648	21	C5ClF2+
137.9738	17	C6HClNO+
141.0261	464	C6H3F2N2+
144.0059	9	C6HF3N+
146.0214	26	C6H3F3N+
148.0304	28	C7H3FN3+
149.992	14	C5H3ClF2N+
152.9714	22	C5HClF3+
157.9563	60	C6ClFO2+
158.9639	131	C6H3Cl2N+
159.9759	102	C6HClF2N+
168.9905	10	C5H3ClF3N+
174.9587	15	C6H3Cl2NO+
179.9818	28	C6H2ClF3N+
194.0206	23	C10H3F3N+
197.9931	11	CHF5N3O3+
201.026	25	C11H3F2N2+
221.0324	42	C11H4F3N2+
