Mass spectrum: Iopromide; LC-ESI-ITFT; MS2; CE: 60%; R=15000; [M+H]+
Name: Iopromide
Name: 1-N,3-N-bis(2,3-dihydroxypropyl)-2,4,6-triiodo-5-[(2-methoxyacetyl)amino]-3-N-methylbenzene-1,3-dicarboxamide
Formula: C18H24I3N3O8
Exact mass: 790.8698
SMILES: CN(CC(CO)O)C(=O)C1=C(C(=C(C(=C1I)C(=O)NCC(CO)O)I)NC(=O)COC)I
InChI: InChI=1S/C18H24I3N3O8/c1-24(4-9(28)6-26)18(31)12-13(19)11(17(30)22-3-8(27)5-25)14(20)16(15(12)21)23-10(29)7-32-2/h8-9,25-28H,3-7H2,1-2H3,(H,22,30)(H,23,29)
Instrument: LTQ Orbitrap XL Thermo Scientific
Instrument type: LC-ESI-ITFT
Ms type: MS2
Ion mode: POSITIVE
Ionization: ESI
Fragmentation mode: HCD
Collision energy: 60 % (nominal)
Resolution: 15000
Column name: XBridge C18 3.5um, 2.1x50mm, Waters
Retention time: 2.7 min
Base peak: 132.9579
Precursor m/z: 791.877
Precursor type: [M+H]+
m/z	relative intensity	assigned
89.0261	32	C6H3N+
117.0207	30	C7H3NO+
141.9922	112	C8NO2+
172.0027	74	C9H2NO3+
172.0266	42	C9H4N2O2+
173.0106	84	C9H3NO3+
188.0339	41	C10H6NO3+
203.0204	34	C10H5NO4+
203.9307	40	C5H3IN+
227.9295	50	C7H3IN+
243.9252	80	C7H3INO+
247.92	35	C6H3INO2+
255.9253	169	C8H3INO+
271.9203	169	C8H3INO2+
283.9209	62	C9H3INO2+
287.9516	74	C9H7INO2+
298.9322	92	C9H4IN2O2+
299.9151	736	C9H3INO3+
312.9457	49	C10H6IN2O2+
313.9306	222	C10H5INO3+
317.9257	999	C9H5INO4+
325.9434	34	C12H7IO3+
381.8205	60	C8H2I2NO+
423.7952	65	C9I2NO3+
441.8041	50	C6H4I2O7+
