Mass spectrum: Naltrexone; LC-ESI-ITFT; MS2; CE: 60%; R=7500; [M+H]+
Name: Naltrexone
Name: (5alpha)-17-(Cyclopropylmethyl)-3,14-dihydroxy-4,5-epoxymorphinan-6-one
Formula: C20H23NO4
Exact mass: 341.1627
SMILES: c12[C@]34[C@@]5([C@H]([N@](CC6CC6)CC4)Cc2ccc(c1O[C@H]3C(=O)CC5)O)O
InChI: InChI=1S/C20H23NO4/c22-13-4-3-12-9-15-20(24)6-5-14(23)18-19(20,16(12)17(13)25-18)7-8-21(15)10-11-1-2-11/h3-4,11,15,18,22,24H,1-2,5-10H2/t15-,18+,19+,20-/m1/s1
Instrument: LTQ Orbitrap XL Thermo Scientific
Instrument type: LC-ESI-ITFT
Ms type: MS2
Ion mode: POSITIVE
Ionization: ESI
Fragmentation mode: HCD
Collision energy: 60 % (nominal)
Resolution: 7500
Column name: XBridge C18 3.5um, 2.1x50mm, Waters
Retention time: 3.1 min
Base peak: 342.1712
Precursor m/z: 342.17
Precursor type: [M+H]+
m/z	relative intensity	assigned
55.0542	219	C4H7+
147.0674	43	C9H9NO+
148.0756	38	C9H10NO+
160.0763	28	C10H10NO+
161.0597	100	C10H9O2+
173.0596	89	C11H9O2+
174.0547	22	C10H8NO2+
181.0647	69	C13H9O+
185.0592	57	C12H9O2+
187.0753	31	C12H11O2+
195.0813	30	C14H11O+
199.0755	86	C13H11O2+
200.1069	55	C13H14NO+
201.1141	29	C13H15NO+
207.0795	19	C15H11O+
209.0963	31	C15H13O+
210.0915	65	C14H12NO+
211.0749	105	C14H11O2+
212.0708	205	C13H10NO2+
225.0921	20	C15H13O2+
226.0864	103	C14H12NO2+
227.07	93	C14H11O3+
227.095	29	C14H13NO2+
228.1017	390	C14H14NO2+
240.102	87	C15H14NO2+
241.0863	27	C15H13O3+
241.1101	29	C15H15NO2+
242.1171	48	C15H16NO2+
252.1016	55	C16H14NO2+
253.1213	21	C17H17O2+
254.1173	62	C16H16NO2+
264.1015	22	C17H14NO2+
267.1253	999	C17H17NO2+
270.1123	718	C16H16NO3+
282.1133	49	C17H16NO3+
282.1488	513	C18H20NO2+
324.159	825	C20H22NO3+
