Mass spectrum: Clobazam; LC-ESI-QFT; MS2; CE: 180; R=35000; [M+H]+
Name: Clobazam
Name: 7-chloro-1-methyl-5-phenyl-1,5-benzodiazepine-2,4-dione
Formula: C16H13ClN2O2
Exact mass: 300.06656
SMILES: CN1C(=O)CC(=O)N(C2=C1C=CC(=C2)Cl)C3=CC=CC=C3
InChI: InChI=1S/C16H13ClN2O2/c1-18-13-8-7-11(17)9-14(13)19(16(21)10-15(18)20)12-5-3-2-4-6-12/h2-9H,10H2,1H3
Instrument: Q Exactive Plus Orbitrap Thermo Scientific
Instrument type: LC-ESI-QFT
Ms type: MS2
Ion mode: POSITIVE
Ionization: ESI
Fragmentation mode: HCD
Collision energy: 180 (nominal)
Resolution: 35000
Column name: XBridge C18 3.5um, 2.1x50mm, Waters
Retention time: 8.4 min
Base peak: 301.073
Precursor m/z: 301.0738
Precursor type: [M+H]+
m/z	relative intensity	assigned
50.0151	782	C4H2+
51.0229	640	C4H3+
52.0182	49	C3H2N+
52.0307	15	C4H4+
53.0022	64	C3HO+
53.0386	244	C4H5+
54.0464	25	C4H6+
55.0178	23	C3H3O+
61.0072	21	C5H+
61.9792	33	CHClN+
62.0151	116	C5H2+
63.0229	999	C5H3+
64.0181	193	C4H2N+
64.0307	154	C5H4+
65.0022	79	C4HO+
65.0259	50	
65.0385	739	C5H5+
66.01	15	
66.0338	15	C4H4N+
66.0464	125	C5H6+
67.0416	11	C4H5N+
67.0543	4	C5H7+
68.9971	152	C3HO2+
72.9839	350	C3H2Cl+
74.015	184	C6H2+
75.0228	565	C6H3+
76.0181	273	C5H2N+
76.0306	52	C6H4+
77.0385	584	C6H5+
78.0338	127	C5H4N+
78.0463	42	C6H6+
79.0415	3	C5H5N+
80.0495	6	C5H6N+
81.0334	44	C5H5O+
84.9839	55	C4H2Cl+
86.9995	47	C4H4Cl+
87.0228	22	
88.0181	13	
88.0307	19	C7H4+
89.0385	140	C7H5+
90.0338	737	C6H4N+
91.0416	714	C6H5N+
91.0542	57	C7H7+
92.0494	124	C6H6N+
93.0572	26	C6H7N+
94.0413	15	C6H6O+
95.0491	636	C6H7O+
96.0443	21	C5H6NO+
96.9839	11	C5H2Cl+
98.9995	280	C5H4Cl+
99.0102	18	
99.0229	53	
100.0181	118	C7H2N+
101.0384	26	C8H5+
102.0338	109	C7H4N+
102.0464	60	C8H6+
103.0289	20	C6H3N2+
103.0415	36	C7H5N+
103.0542	18	C8H7+
104.0493	24	C7H6N+
105.0447	518	C6H5N2+
106.0286	5	C6H4NO+
106.0418	3	C4H9ClN+
108.0443	22	C6H6NO+
109.0646	2	C7H9O+
110.0599	3	C6H8NO+
110.9995	22	C6H4Cl+
111.9947	36	C5H3ClN+
112.0074	4	C6H5Cl+
113.0385	128	C9H5+
114.0104	46	C5H5ClN+
114.0338	38	C8H4N+
114.0463	18	C9H6+
115.0542	152	C9H7+
116.0368	4	C7H4N2+
116.0493	28	C8H6N+
117.0447	152	C7H5N2+
117.0571	21	C8H7N+
118.0525	610	C7H6N2+
119.0491	16	
119.0603	70	C7H7N2+
120.0442	25	C7H6NO+
123.995	20	C6H3ClN+
125.0027	16	C6H4ClN+
125.0385	128	C10H5+
126.0105	30	C6H5ClN+
126.0336	14	
126.0464	178	C10H6+
127.0416	61	C9H5N+
127.0541	98	C10H7+
128.0494	163	C9H6N+
128.062	13	C10H8+
129.01	24	C6H6ClO+
129.0446	142	C8H5N2+
129.0573	29	C9H7N+
130.0055	12	C5H5ClNO+
130.0399	143	C7H4N3+
132.0567	6	C9H8O+
133.0395	3	C7H5N2O+
135.995	11	C7H3ClN+
137.0026	3	C7H4ClN+
137.0385	18	C11H5+
138.0104	14	C7H5ClN+
138.0463	15	C11H6+
139.0057	81	C6H4ClN2+
139.0541	416	C11H7+
139.9896	27	C6H3ClNO+
140.0494	342	C10H6N+
140.0615	30	C11H8+
141.0572	11	C10H7N+
141.0699	5	C11H9+
142.0525	16	C9H6N2+
143.0491	19	C10H7O+
144.0441	5	C9H6NO+
145.0508	41	C7H5N4+
145.0648	51	C10H9O+
146.06	52	C9H8NO+
147.0553	11	C8H7N2O+
150.0469	36	C12H6+
151.0416	21	C11H5N+
151.0541	13	C12H7+
152.0494	143	C11H6N+
152.062	55	C12H8+
153.0214	75	C7H6ClN2+
153.0446	89	C10H5N2+
153.0572	177	C11H7N+
154.04	28	
154.0523	12	
154.0651	99	C11H8N+
155.0603	137	C10H7N2+
157.0523	3	C10H7NO+
163.0054	15	C11HNO+
164.0008	22	C10N2O+
164.0494	42	C12H6N+
165.0218	4	C8H6ClN2+
165.0445	4	C11H5N2+
165.057	14	C12H7N+
166.0651	262	C12H8N+
167.0604	14	
167.0729	150	C12H9N+
168.068	23	C11H8N2+
169.0647	42	C12H9O+
170.06	159	C11H8NO+
171.0553	27	C10H7N2O+
177.0571	28	C13H7N+
178.0523	12	C12H6N2+
178.065	34	C13H8N+
179.0603	793	C12H7N2+
180.056	52	
180.0681	213	C12H8N2+
180.0806	14	C13H10N+
181.0162	3	C8H6ClN2O+
181.0758	64	C12H9N2+
192.0682	25	C13H8N2+
193.0762	36	C13H9N2+
194.0837	5	C13H10N2+
195.0912	3	C13H11N2+
197.0703	3	C12H9N2O+
212.0577	3	C12H8N2O2+
214.0291	4	C12H7ClN2+
215.0369	49	C12H8ClN2+
