Mass spectrum: 10,11-trans-Dihydroxy-10,11-dihydrocarbamazepine; LC-ESI-ITFT; MS2; CE: 35%; R=15000; [M+H]+
Name: 10,11-trans-Dihydroxy-10,11-dihydrocarbamazepine
Name: (5S,6S)-5,6-bis(oxidanyl)-5,6-dihydrobenzo[b][1]benzazepine-11-carboxamide
Formula: C15H14N2O3
Exact mass: 270.1004
SMILES: c12[C@@H]([C@@H](O)c3c(N(C(N)=O)c2cccc1)cccc3)O
InChI: InChI=1S/C15H14N2O3/c16-15(20)17-11-7-3-1-5-9(11)13(18)14(19)10-6-2-4-8-12(10)17/h1-8,13-14,18-19H,(H2,16,20)/t13-,14-/m0/s1
Instrument: LTQ Orbitrap XL Thermo Scientific
Instrument type: LC-ESI-ITFT
Ms type: MS2
Ion mode: POSITIVE
Ionization: ESI
Fragmentation mode: CID
Collision energy: 35 % (nominal)
Resolution: 15000
Column name: XBridge C18 3.5um, 2.1x50mm, Waters
Retention time: 6.1 min
Base peak: 271.1079
Precursor m/z: 271.1077
Precursor type: [M+H]+
m/z	relative intensity	assigned
180.0802	4	C13H10N+
210.0915	9	C14H12NO+
236.0707	15	C15H10NO2+
253.0973	999	C15H13N2O2+
254.0817	2	C15H12NO3+
