Mass spectrum: Acyclovir; LC-ESI-QFT; MS2; CE: 180%; R=17500; [M-H]-
Name: Acyclovir
Name: 2-amino-9-(2-hydroxyethoxymethyl)-3H-purin-6-one
Formula: C8H11N5O3
Exact mass: 225.0861892
SMILES: C1=NC2=C(N1COCCO)N=C(NC2=O)N
InChI: InChI=1S/C8H11N5O3/c9-8-11-6-5(7(15)12-8)10-3-13(6)4-16-2-1-14/h3,14H,1-2,4H2,(H3,9,11,12,15)
Instrument: Exploris 240 Orbitrap Thermo Scientific
Instrument type: LC-ESI-QFT
Ms type: MS2
Ion mode: NEGATIVE
Ionization: ESI
Fragmentation mode: HCD
Collision energy: 180 % (nominal)
Resolution: 17500
Column name: XBridge C18 3.5um, 2.1x50mm, Waters
Retention time: 1.167 min
Base peak: 224.0788
Precursor m/z: 224.0789
Precursor type: [M-H]-
m/z	relative intensity	assigned
50.0037	80	C3N-
64.0068	221	C3N2-
65.0145	999	C3HN2-
65.9984	139	C3NO-
66.0098	648	C2N3-
67.0301	226	C3H3N2-
92.0256	129	C4H2N3-
