Mass spectrum: Candesartan; LC-ESI-ITFT; MS2; CE: 35%; R=7500; [M-H]-
Name: Candesartan
Name: 2-ethoxy-3-[4-[2-(2H-tetrazol-5-yl)phenyl]benzyl]benzimidazole-4-carboxylic acid
Formula: C24H20N6O3
Exact mass: 440.1597
SMILES: c1(ccccc1c1ccc(Cn2c(nc3c2c(C(=O)O)ccc3)OCC)cc1)c1nnn[nH]1
InChI: InChI=1S/C24H20N6O3/c1-2-33-24-25-20-9-5-8-19(23(31)32)21(20)30(24)14-15-10-12-16(13-11-15)17-6-3-4-7-18(17)22-26-28-29-27-22/h3-13H,2,14H2,1H3,(H,31,32)(H,26,27,28,29)
Instrument: LTQ Orbitrap XL Thermo Scientific
Instrument type: LC-ESI-ITFT
Ms type: MS2
Ion mode: NEGATIVE
Ionization: ESI
Fragmentation mode: CID
Collision energy: 35 % (nominal)
Resolution: 7500
Column name: XBridge C18 3.5um, 2.1x50mm, Waters
Retention time: 9.3 min
Base peak: 439.1519
Precursor m/z: 439.1524
Precursor type: [M-H]-
m/z	relative intensity	assigned
132.0331	6	C7H4N2O-
133.0407	9	C7H5N2O-
161.0722	5	C9H9N2O-
176.0226	11	C8H4N2O3-
177.0302	4	C8H5N2O3-
205.0618	10	C10H9N2O3-
293.1084	30	C21H13N2-
306.1048	1	C21H12N3-
309.1032	999	C21H13N2O-
310.1105	37	C19H12N5-
311.1196	11	C21H15N2O-
324.1129	7	C21H14N3O-
352.1457	2	C23H18N3O-
354.1007	110	C22H14N2O3-
367.156	51	C23H19N4O-
395.1625	23	C23H19N6O-
396.1352	42	C24H18N3O3-
411.147	58	C24H19N4O3-
