Mass spectrum: Alfuzosin; LC-ESI-QFT; MS2; CE: 45; R=35000; [M+H]+
Name: Alfuzosin
Name: N-{3-[(4-Amino-6,7-dimethoxy-2-quinazolinyl)(methyl)amino]propyl}tetrahydro-2-furancarboxamide
Name: N-[3-[(4-amino-6,7-dimethoxyquinazolin-2-yl)-methylamino]propyl]oxolane-2-carboxamide
Formula: C19H27N5O4
Exact mass: 389.20630
SMILES: CN(CCCNC(=O)C1CCCO1)C2=NC3=CC(=C(C=C3C(=N2)N)OC)OC
InChI: InChI=1S/C19H27N5O4/c1-24(8-5-7-21-18(25)14-6-4-9-28-14)19-22-13-11-16(27-3)15(26-2)10-12(13)17(20)23-19/h10-11,14H,4-9H2,1-3H3,(H,21,25)(H2,20,22,23)
Instrument: Q Exactive Plus Orbitrap Thermo Scientific
Instrument type: LC-ESI-QFT
Ms type: MS2
Ion mode: POSITIVE
Ionization: ESI
Fragmentation mode: HCD
Collision energy: 45 (nominal)
Resolution: 35000
Column name: XBridge C18 3.5um, 2.1x50mm, Waters
Retention time: 5.3 min
Base peak: 390.2132
Precursor m/z: 390.2136
Precursor type: [M+H]+
m/z	relative intensity	assigned
58.0651	14	C3H8N+
59.0491	10	C3H7O+
71.0491	800	C4H7O+
86.06	36	C4H8NO+
100.0756	80	C5H10NO+
112.0756	1	C6H10NO+
128.0705	63	C6H10NO2+
156.1019	999	C8H14NO2+
191.0927	2	C9H11N4O+
216.1004	9	C11H12N4O+
219.0875	31	C10H11N4O2+
220.0954	38	C10H12N4O2+
231.0882	1	C11H11N4O2+
231.1239	2	C12H15N4O+
233.103	1	C11H13N4O2+
234.111	17	C11H14N4O2+
235.1189	938	C11H15N4O2+
247.1189	70	C12H15N4O2+
259.1188	13	C13H15N4O2+
260.1267	13	C13H16N4O2+
261.1346	10	C13H17N4O2+
273.1349	2	C14H17N4O2+
275.1501	138	C14H19N4O2+
292.1767	19	C14H22N5O2+
302.161	12	C15H20N5O2+
374.1826	9	C18H24N5O4+
375.1903	1	C18H25N5O4+
390.2136	235	C19H28N5O4+
