Mass spectrum: Metoclopramide; LC-ESI-ITFT; MS2; CE: 90%; R=30000; [M+H]+
Name: Metoclopramide
Name: 4-amino-5-chloro-N-(2-diethylaminoethyl)-2-methoxy-benzamide
Formula: C14H22ClN3O2
Exact mass: 299.1401
SMILES: c1(cc(C(=O)NCCN(CC)CC)c(cc1N)OC)Cl
InChI: InChI=1S/C14H22ClN3O2/c1-4-18(5-2)7-6-17-14(19)10-8-11(15)12(16)9-13(10)20-3/h8-9H,4-7,16H2,1-3H3,(H,17,19)
Instrument: LTQ Orbitrap XL Thermo Scientific
Instrument type: LC-ESI-ITFT
Ms type: MS2
Ion mode: POSITIVE
Ionization: ESI
Fragmentation mode: HCD
Collision energy: 90 % (nominal)
Resolution: 30000
Column name: XBridge C18 3.5um, 2.1x50mm, Waters
Retention time: 4.3 min
Base peak: 300.1485
Precursor m/z: 300.1473
Precursor type: [M+H]+
m/z	relative intensity	assigned
54.0338	8	C3H4N+
63.0229	21	C5H3+
65.0385	6	C5H5+
72.0807	7	C4H10N+
78.0338	9	C5H4N+
82.0287	10	C4H4NO+
87.9947	4	C3H3ClN+
90.0338	89	C6H4N+
92.0494	11	C6H6N+
93.0572	46	C6H7N+
98.9996	11	C5H4Cl+
100.112	16	C6H14N+
102.0104	3	C7H2O+
105.0447	6	C6H5N2+
108.0443	24	C6H6NO+
113.0026	34	C5H4ClN+
115.9897	3	C4H3ClNO+
120.0443	25	C7H6NO+
126.0104	97	C9H2O+
128.0261	48	C6H7ClN+
129.0101	18	C6H6ClO+
140.9976	505	C6H4ClNO+
144.0209	33	C6H7ClNO+
147.0553	10	C8H7N2O+
148.063	63	C8H8N2O+
154.0053	64	C10H2O2+
156.021	112	C7H7ClNO+
168.0085	407	C7H5ClN2O+
168.9924	206	C7H4ClNO2+
170.0002	54	C7H5ClNO2+
181.0162	13	C8H6ClN2O+
182.024	31	C8H7ClN2O+
183.0319	131	C8H8ClN2O+
184.016	999	C8H7ClNO2+
187.003	41	C7H6ClNO3+
211.0268	16	C9H8ClN2O2+
212.0346	222	C9H9ClN2O2+
227.0579	20	C10H12ClN2O2+
