Mass spectrum: Zonisamide; LC-ESI-QFT; MS2; CE: 45; R=35000; [M+H]+
Name: Zonisamide
Name: AD-810
Name: 1,2-benzoxazol-3-ylmethanesulfonamide
Formula: C8H8N2O3S
Exact mass: 212.02556
SMILES: O=S(=O)(N)Cc2noc1ccccc12
InChI: InChI=1S/C8H8N2O3S/c9-14(11,12)5-7-6-3-1-2-4-8(6)13-10-7/h1-4H,5H2,(H2,9,11,12)
Instrument: Q Exactive Orbitrap Thermo Scientific
Instrument type: LC-ESI-QFT
Ms type: MS2
Ion mode: POSITIVE
Ionization: ESI
Fragmentation mode: HCD
Collision energy: 45 (nominal)
Resolution: 35000
Column name: XBridge C18 3.5um, 2.1x50mm, Waters
Retention time: 4.4 min
Base peak: 213.0329
Precursor m/z: 213.0328
Precursor type: [M+H]+
m/z	relative intensity	assigned
50.0152	15	C4H2+
51.0231	29	C4H3+
53.0387	89	C4H5+
77.0387	85	C6H5+
95.0492	191	C6H7O+
104.0496	245	C7H6N+
105.0336	123	C7H5O+
105.0449	55	C6H5N2+
120.0444	24	C7H6NO+
130.0402	18	C7H4N3+
132.0445	18	C8H6NO+
149.0715	14	C8H9N2O+
150.0552	999	C8H8NO2+
