Mass spectrum: Fosthiazate; LC-ESI-QFT; MS2; CE: 60; R=35000; [M+H]+
Name: Fosthiazate
Name: 3-[(butan-2-ylthio)-ethoxyphosphoryl]-2-thiazolidinone
Formula: C9H18NO3PS2
Exact mass: 283.04657
SMILES: O=P(SC(CC)C)(OCC)N1C(=O)SCC1
InChI: InChI=1S/C9H18NO3PS2/c1-4-8(3)16-14(12,13-5-2)10-6-7-15-9(10)11/h8H,4-7H2,1-3H3
Instrument: Q Exactive Orbitrap Thermo Scientific
Instrument type: LC-ESI-QFT
Ms type: MS2
Ion mode: POSITIVE
Ionization: ESI
Fragmentation mode: HCD
Collision energy: 60 (nominal)
Resolution: 35000
Column name: XBridge C18 3.5um, 2.1x50mm, Waters
Retention time: 8.1 min
Base peak: 284.0534
Precursor m/z: 284.0538
Precursor type: [M+H]+
m/z	relative intensity	assigned
57.0699	3	C4H9+
61.0106	18	C2H5S+
76.0215	12	C2H6NS+
104.0164	999	C3H6NOS+
109.9998	1	C5H2O3+
114.9611	14	H4O3PS+
119.9934	14	C3H6NS2+
121.9822	6	C6H2OS+
122.0267	1	C3H8NO2S+
124.0155	2	C6H4O3+
137.9593	47	C6H2S2+
138.9434	1	C2H4OPS2+
139.9563	17	C5O3S+
139.9928	4	C6H4O2S+
165.9719	7	C7H2O3S+
167.9876	1	C7H4O3S+
171.9647	5	C6H4O2S2+
181.949	4	C7H2O2S2+
183.9824	11	C7H4O4S+
199.9596	31	C7H4O3S2+
227.991	1	C9H8O3S2+
