Mass spectrum: Risperidone; LC-ESI-QFT; MS2; CE: 90; R=35000; [M+H]+
Name: Risperidone
Name: 3-[2-[4-(6-fluoro-1,2-benzoxazol-3-yl)piperidin-1-yl]ethyl]-2-methyl-6,7,8,9-tetrahydropyrido[1,2-a]pyrimidin-4-one
Formula: C23H27FN4O2
Exact mass: 410.21180
SMILES: CC1=C(C(=O)N2CCCCC2=N1)CCN3CCC(CC3)C4=NOC5=C4C=CC(=C5)F
InChI: InChI=1S/C23H27FN4O2/c1-15-18(23(29)28-10-3-2-4-21(28)25-15)9-13-27-11-7-16(8-12-27)22-19-6-5-17(24)14-20(19)30-26-22/h5-6,14,16H,2-4,7-13H2,1H3
Instrument: Q Exactive Plus Orbitrap Thermo Scientific
Instrument type: LC-ESI-QFT
Ms type: MS2
Ion mode: POSITIVE
Ionization: ESI
Fragmentation mode: HCD
Collision energy: 90 (nominal)
Resolution: 35000
Column name: XBridge C18 3.5um, 2.1x50mm, Waters
Retention time: 5.4 min
Base peak: 411.2187
Precursor m/z: 411.2191
Precursor type: [M+H]+
m/z	relative intensity	assigned
53.0022	12	C3HO+
53.0387	6	C4H5+
53.9974	3	C2NO+
54.0338	11	C3H4N+
55.0542	201	C4H7+
56.0494	2	C3H6N+
65.0386	64	FH4N3+
66.0464	2	C5H6+
67.0178	20	C4H3O+
67.0416	25	C4H5N+
67.0542	115	C5H7+
68.0495	264	C4H6N+
69.0335	679	C4H5O+
78.0338	3	C5H4N+
79.0541	6	C6H7+
80.0494	25	C5H6N+
81.0335	2	C5H5O+
81.0573	7	C5H7N+
82.0651	578	C5H8N+
83.0729	2	C5H9N+
91.0416	6	C6H5N+
91.0542	1	C7H7+
92.0495	4	C6H6N+
93.0336	2	C6H5O+
94.0651	11	C6H8N+
95.0603	3	C5H7N2+
95.073	4	C6H9N+
97.0761	2	C5H9N2+
98.0964	5	C6H12N+
99.0916	10	C5H11N2+
104.0494	2	C7H6N+
105.07	2	C8H9+
106.0527	2	C6H6N2+
106.0651	15	C7H8N+
107.0604	5	C6H7N2+
107.0729	54	C7H9N+
108.0444	10	C6H6NO+
108.0808	3	C7H10N+
110.06	558	C6H8NO+
119.0605	4	C7H7N2+
120.0808	11	C8H10N+
121.076	15	C7H9N2+
122.084	8	C7H10N2+
122.0964	3	C8H12N+
123.0678	5	C7H9NO+
123.0916	13	C7H11N2+
124.0757	15	C7H10NO+
125.0709	43	C6H9N2O+
131.073	2	C9H9N+
132.0682	2	C8H8N2+
132.0808	11	C9H10N+
133.0886	9	C9H11N+
135.0552	5	C7H7N2O+
135.0917	4	C8H11N2+
137.0709	1	C7H9N2O+
146.0965	2	C10H12N+
147.0916	3	C9H11N2+
148.0998	3	C9H12N2+
148.112	38	C10H14N+
149.0709	10	C8H9N2O+
149.1074	3	C9H13N2+
150.0788	115	C8H10N2O+
161.071	11	C9H9N2O+
163.0865	74	C9H11N2O+
163.1229	58	C10H15N2+
167.0815	6	C8H11N2O2+
173.1074	4	C11H13N2+
175.0866	3	C10H11N2O+
176.0942	3	C10H12N2O+
189.1026	1	C11H13N2O+
191.1178	999	C11H15N2O+
