Mass spectrum: Pantoprazole; LC-ESI-ITFT; MS2; CE: 90%; R=7500; [M+H]+
Name: Pantoprazole
Name: 6-(difluoromethoxy)-2-[(3,4-dimethoxy-2-pyridinyl)methylsulfinyl]-1H-benzimidazole
Formula: C16H15F2N3O4S
Exact mass: 383.0751
SMILES: COC1=C(C(=NC=C1)CS(=O)C2=NC3=C(N2)C=C(C=C3)OC(F)F)OC
InChI: InChI=1S/C16H15F2N3O4S/c1-23-13-5-6-19-12(14(13)24-2)8-26(22)16-20-10-4-3-9(25-15(17)18)7-11(10)21-16/h3-7,15H,8H2,1-2H3,(H,20,21)
Instrument: LTQ Orbitrap XL Thermo Scientific
Instrument type: LC-ESI-ITFT
Ms type: MS2
Ion mode: POSITIVE
Ionization: ESI
Fragmentation mode: HCD
Collision energy: 90 % (nominal)
Resolution: 7500
Column name: XBridge C18 3.5um, 2.1x50mm, Waters
Retention time: 6.6 min
Base peak: 384.0836
Precursor m/z: 384.0824
Precursor type: [M+H]+
m/z	relative intensity	assigned
65.0385	30	C5H5+
67.0416	14	C4H5N+
69.0334	13	C4H5O+
78.0335	12	C5H4N+
80.0495	26	C5H6N+
82.0652	23	C5H8N+
92.0494	123	C6H6N+
93.0573	69	C6H7N+
94.0651	71	C6H8N+
96.0443	11	C5H6NO+
106.0651	60	C7H8N+
107.0729	82	C7H9N+
108.0443	67	C6H6NO+
109.052	15	C6H7NO+
110.0062	29	C5H4NS+
110.0601	233	C6H8NO+
112.0391	7	C5H6NO2+
122.06	145	C7H8NO+
123.0677	14	C7H9NO+
124.0758	36	C7H10NO+
125.0468	20	C6H7NO2+
136.0392	565	C7H6NO2+
138.0549	999	C7H8NO2+
139.0087	16	C6H5NOS+
152.0705	141	C8H10NO2+
153.9954	19	C6H4NO2S+
154.0497	180	C5H10F2NS+
156.0109	13	C6H6NO2S+
165.0112	19	C7H5N2OS+
167.0032	27	C7H5NO2S+
168.0646	10	C6H12F2NS+
182.0261	9	C8H8NO2S+
200.0383	12	C11H5FN2O+
