Mass spectrum: Dimethoate; LC-ESI-ITFT; MS2; CE: 75%; R=15000; [M+H]+
Name: Dimethoate
Name: 2-(dimethoxyphosphinothioylthio)-N-methylacetamide
Formula: C5H12NO3PS2
Exact mass: 228.9996
SMILES: P(SCC(NC)=O)(OC)(OC)=S
InChI: InChI=1S/C5H12NO3PS2/c1-6-5(7)4-12-10(11,8-2)9-3/h4H2,1-3H3,(H,6,7)
Instrument: LTQ Orbitrap XL Thermo Scientific
Instrument type: LC-ESI-ITFT
Ms type: MS2
Ion mode: POSITIVE
Ionization: ESI
Fragmentation mode: HCD
Collision energy: 75 % (nominal)
Resolution: 15000
Column name: XBridge C18 3.5um, 2.1x50mm, Waters
Retention time: 5.2 min
Base peak: 230.007
Precursor m/z: 230.0069
Precursor type: [M+H]+
m/z	relative intensity	assigned
58.9951	4	C2H3S+
59.9998	1	CH3NP+
61.0106	12	C2H5S+
62.0185	18	C2H6S+
62.9994	8	CH4OP+
72.0443	1	C3H6NO+
76.0215	9	C2H6NS+
78.0102	4	CH5NOP+
78.9943	279	CH4O2P+
86.0059	1	C3H4NS+
88.0215	64	C3H6NS+
92.0259	6	C2H7NOP+
93.01	113	C2H6O2P+
94.9714	3	CH4OPS+
97.0048	2	CH6O3P+
104.0164	8	C3H6NOS+
109.0051	4	C2H6O3P+
110.9664	37	CH4O2PS+
119.9936	5	C3H6NS2+
123.998	50	C2H7NOPS+
124.982	999	C2H6O2PS+
127.0154	21	C2H8O4P+
128.977	50	CH6O3PS+
140.9589	2	C2H6OPS2+
142.9926	888	C2H8O3PS+
144.9968	1	H7N3O2S2+
155.9702	10	C2H7NOPS2+
156.954	83	C2H6O2PS2+
170.9698	10	C3H8O2PS2+
