Mass spectrum: Triclocarban; LC-ESI-ITFT; MS2; CE: 75%; R=7500; [M+H]+
Name: Triclocarban
Name: 1-(4-chlorophenyl)-3-(3,4-dichlorophenyl)urea
Formula: C13H9Cl3N2O
Exact mass: 313.9780
SMILES: Clc2ccc(NC(=O)Nc1ccc(Cl)cc1)cc2Cl
InChI: InChI=1S/C13H9Cl3N2O/c14-8-1-3-9(4-2-8)17-13(19)18-10-5-6-11(15)12(16)7-10/h1-7H,(H2,17,18,19)
Instrument: LTQ Orbitrap XL Thermo Scientific
Instrument type: LC-ESI-ITFT
Ms type: MS2
Ion mode: POSITIVE
Ionization: ESI
Fragmentation mode: HCD
Collision energy: 75 % (nominal)
Resolution: 7500
Column name: XBridge C18 3.5um, 2.1x50mm, Waters
Retention time: 14.8 min
Base peak: 314.9854
Precursor m/z: 314.9853
Precursor type: [M+H]+
m/z	relative intensity	assigned
86.9993	2	C4H4Cl+
90.0336	2	C6H4N+
92.0495	5	C6H6N+
93.0573	429	C6H7N+
98.9996	24	C5H4Cl+
125.0025	5	C6H4ClN+
126.0104	167	C6H5ClN+
127.0182	999	C6H6ClN+
128.0261	82	C6H7ClN+
132.9607	18	C5H3Cl2+
139.0058	11	C6H4ClN2+
154.0052	3	C7H5ClNO+
159.9715	89	C6H4Cl2N+
161.9872	47	C6H6Cl2N+
172.9665	9	C9ClNO+
