Mass spectrum: Spinetoram L; LC-ESI-QFT; MS2; CE: 120%; R=17500; [M+H]+
Name: Spinetoram L
Name: 3-Ethoxy-spinosyn L
Name: 15-[5-(dimethylamino)-6-methyloxan-2-yl]oxy-7-(4-ethoxy-3,5-dimethoxy-6-methyloxan-2-yl)oxy-19-ethyl-4,14-dimethyl-20-oxatetracyclo[10.10.0.02,10.05,9]docosa-3,11-diene-13,21-dione
Formula: C43H69NO10
Exact mass: 759.4921
SMILES: CCC1CCCC(C(C(=O)C2=CC3C4CC(CC4C(=CC3C2CC(=O)O1)C)OC5C(C(C(C(O5)C)OC)OCC)OC)C)OC6CCC(C(O6)C)N(C)C
InChI: InChI=1S/C43H69NO10/c1-11-27-14-13-15-36(54-38-17-16-35(44(7)8)25(5)50-38)24(4)39(46)34-21-32-30(33(34)22-37(45)52-27)18-23(3)29-19-28(20-31(29)32)53-43-42(48-10)41(49-12-2)40(47-9)26(6)51-43/h18,21,24-33,35-36,38,40-43H,11-17,19-20,22H2,1-10H3
Instrument: Exploris 240 Orbitrap Thermo Scientific
Instrument type: LC-ESI-QFT
Ms type: MS2
Ion mode: POSITIVE
Ionization: ESI
Fragmentation mode: HCD
Collision energy: 120 % (nominal)
Resolution: 17500
Column name: XBridge C18 3.5um, 2.1x50mm, Waters
Retention time: 12.856 min
Base peak: 760.5001
Precursor m/z: 760.4994
Precursor type: [M+H]+
m/z	relative intensity	assigned
81.0338	60	C5H5O+
81.0701	72	C6H9+
82.0416	101	C5H6O+
83.0493	75	C5H7O+
84.0809	250	C5H10N+
85.0886	185	C5H11N+
87.0441	87	C4H7O2+
91.0545	129	C7H7+
95.0492	81	C6H7O+
97.0651	104	C6H9O+
98.0965	999	C6H12N+
115.0545	125	C9H7+
128.0621	313	C10H8+
129.0699	54	C10H9+
141.07	177	C11H9+
142.0783	48	C11H10+
152.0621	333	C12H8+
153.0701	605	C12H9+
154.077	144	C12H10+
155.0862	70	C12H11+
165.0701	279	C13H9+
166.0776	70	C13H10+
