Mass spectrum: Cefalexin; LC-ESI-QFT; MS2; CE: 90; R=35000; [M+H]+
Name: Cefalexin
Name: 7-[(2-amino-1-oxo-2-phenylethyl)amino]-3-methyl-8-oxo-5-thia-1-azabicyclo[4.2.0]oct-2-ene-2-carboxylic acid
Formula: C16H17N3O4S
Exact mass: 347.09398
SMILES: CC1=C(N2C(C(C2=O)NC(=O)C(C3=CC=CC=C3)N)SC1)C(=O)O
InChI: InChI=1S/C16H17N3O4S/c1-8-7-24-15-11(14(21)19(15)12(8)16(22)23)18-13(20)10(17)9-5-3-2-4-6-9/h2-6,10-11,15H,7,17H2,1H3,(H,18,20)(H,22,23)
Instrument: Q Exactive Orbitrap Thermo Scientific
Instrument type: LC-ESI-QFT
Ms type: MS2
Ion mode: POSITIVE
Ionization: ESI
Fragmentation mode: HCD
Collision energy: 90 (nominal)
Resolution: 35000
Column name: XBridge C18 3.5um, 2.1x50mm, Waters
Retention time: 4.4 min
Base peak: 348.1015
Precursor m/z: 348.1013
Precursor type: [M+H]+
m/z	relative intensity	assigned
53.0023	3	C3HO+
57.9872	1	C2H2S+
58.995	51	C2H3S+
59.9665	3	COS+
65.0386	16	C5H5+
66.0464	25	C5H6+
68.0495	760	C4H6N+
69.0334	7	C4H5O+
69.0447	3	C3H5N2+
70.0287	5	C3H4NO+
70.0651	15	C4H8N+
72.9981	31	C2H3NS+
74.0059	50	C2H4NS+
77.0384	3	C6H5+
79.0542	655	C6H7+
80.0494	10	C5H6N+
82.0651	13	C5H8N+
85.0107	21	C4H5S+
86.0059	162	C3H4NS+
89.0386	12	C7H5+
90.0464	64	C7H6+
91.0542	422	C7H7+
95.0491	40	C6H7O+
95.0604	3	C5H7N2+
97.0106	3	C5H5S+
97.0284	3	C5H5O2+
99.0263	2	C5H7S+
99.9852	3	C3H2NOS+
103.0543	56	C8H7+
104.0493	9	C7H6N+
105.0336	3	C7H5O+
105.0446	12	C6H5N2+
106.0651	999	C7H8N+
107.0491	2	C7H7O+
107.0603	2	C6H7N2+
108.0445	3	C6H6NO+
108.0569	2	C7H8O+
109.0761	6	C6H9N2+
112.0215	35	C5H6NS+
114.0008	131	C4H4NOS+
115.0542	12	C9H7+
116.0493	3	C8H6N+
116.0529	1	C5H10NS+
117.0573	162	C8H7N+
118.0413	118	C8H6O+
118.0651	350	C8H8N+
119.0491	25	C8H7O+
121.0106	53	C7H5S+
123.0263	54	C7H7S+
126.0372	2	C6H8NS+
128.0495	33	C9H6N+
130.0652	38	C9H8N+
131.0493	1	C9H7O+
131.0729	4	C9H9N+
132.0448	1	C8H6NO+
135.0262	8	C8H7S+
137.042	11	C8H9S+
146.0601	86	C9H8NO+
147.0264	37	C9H7S+
150.037	7	C8H8NS+
158.0271	101	C6H8NO2S+
159.0676	2	C10H9NO+
162.0371	20	C9H8NS+
164.0527	2	C9H10NS+
167.073	4	C12H9N+
173.0296	13	C10H7NS+
174.0373	14	C10H8NS+
174.0552	3	C10H8NO2+
180.0805	2	C13H10N+
