Mass spectrum: Microcystin-RR; LC-ESI-QFT; MS2; CE: 30; R=35000; [M+H]+
Name: Microcystin-RR
Name: (5R,8R,11R,12S,15S,18S,19S,22R)-8,15-bis[3-(diaminomethylideneamino)propyl]-18-[(1E,3E,5S,6S)-6-methoxy-3,5-dimethyl-7-phenylhepta-1,3-dienyl]-1,5,12,19-tetramethyl-2-methylidene-3,6,9,13,16,20,25-heptaoxo-1,4,7,10,14,17,21-heptazacyclopentacosane-11,22-dicarboxylic acid
Formula: C49H75N13O12
Exact mass: 1037.56581
SMILES: O=C2N[C@@H](\C=C\C(=C\[C@H](C)[C@@H](OC)Cc1ccccc1)C)[C@@H](C(=O)N[C@@H](C(=O)O)CCC(=O)N(/C(=C)C(=O)N[C@@H](C(=O)N[C@@H](C(=O)N[C@@H](C(=O)O)[C@@H](C(=O)N[C@H]2CCC/N=C(\N)N)C)CCC/N=C(\N)N)C)C)C
InChI: InChI=1S/C49H75N13O12/c1-26(24-27(2)37(74-8)25-32-14-10-9-11-15-32)18-19-33-28(3)40(64)60-36(46(70)71)20-21-38(63)62(7)31(6)43(67)56-30(5)42(66)59-35(17-13-23-55-49(52)53)45(69)61-39(47(72)73)29(4)41(65)58-34(44(68)57-33)16-12-22-54-48(50)51/h9-11,14-15,18-19,24,27-30,33-37,39H,6,12-13,16-17,20-23,25H2,1-5,7-8H3,(H,56,67)(H,57,68)(H,58,65)(H,59,66)(H,60,64)(H,61,69)(H,70,71)(H,72,73)(H4,50,51,54)(H4,52,53,55)/b19-18+,26-24+/t27-,28-,29-,30+,33-,34-,35+,36+,37-,39+/m0/s1
Instrument: Q Exactive Orbitrap Thermo Scientific
Instrument type: LC-ESI-QFT
Ms type: MS2
Ion mode: POSITIVE
Ionization: ESI
Fragmentation mode: HCD
Collision energy: 30 (nominal)
Resolution: 35000
Column name: XBridge C18 3.5um, 2.1x50mm, Waters
Retention time: 9.1 min
Base peak: 519.7909
Precursor m/z: 1038.5731
Precursor type: [M+H]+
m/z	relative intensity	assigned
79.0542	2	C6H7+
84.0445	3	C4H6NO+
91.0542	4	C7H7+
93.0699	2	C7H9+
102.0548	1	C4H8NO2+
103.0541	2	C8H7+
105.07	4	C8H9+
107.0856	31	C8H11+
112.087	34	C5H10N3+
113.071	4	C5H9N2O+
114.1027	3	C5H12N3+
115.0867	28	C5H11N2O+
117.0699	2	C9H9+
124.112	2	C8H14N+
127.0866	36	C6H11N2O+
129.1136	2	C5H13N4+
131.0856	2	C10H11+
135.0805	117	C9H11O+
135.1169	31	C10H15+
138.0549	2	C7H8NO2+
139.123	7	C8H15N2+
140.0816	2	C6H10N3O+
143.0857	3	C11H11+
155.0816	31	C7H11N2O2+
156.1244	26	C6H14N5+
157.1085	44	C6H13N4O+
158.0925	4	C6H12N3O2+
163.1118	50	C11H15O+
167.0814	4	C8H11N2O2+
174.1352	54	C6H16N5O+
175.1189	12	C6H15N4O2+
183.0878	4	C7H11N4O2+
186.1241	7	C8H16N3O2+
195.0763	14	C9H11N2O3+
198.1233	2	C9H16N3O2+
199.1298	4	C7H15N6O+
200.1142	18	C7H14N5O2+
209.1323	3	C16H17+
211.1192	4	C9H15N4O2+
212.1509	2	C9H18N5O+
213.0872	62	C9H13N2O4+
213.1348	26	C9H17N4O2+
217.1341	2	C13H17N2O+
218.1543	3	C14H20NO+
223.1197	3	C10H15N4O2+
225.1347	10	C10H17N4O2+
226.1186	5	C10H16N3O3+
226.1591	4	C16H20N+
228.1456	2	C9H18N5O2+
237.164	17	C18H21+
238.1189	13	C11H16N3O3+
239.0667	8	C10H11N2O5+
240.1459	4	C10H18N5O2+
241.1298	4	C10H17N4O3+
243.1447	8	C10H19N4O3+
244.1292	14	C10H18N3O4+
246.1488	11	C15H20NO2+
250.1302	2	C11H16N5O2+
258.1563	8	C10H20N5O3+
258.1853	28	C17H24NO+
265.1589	15	C19H21O+
268.1411	14	C11H18N5O3+
269.1121	4	C10H15N5O4+
269.1247	14	C11H17N4O4+
269.1612	18	C12H21N4O3+
280.214	3	H28N10O7+
285.167	61	C11H21N6O3+
286.151	63	C11H20N5O4+
292.155	8	C2H24N6O10+
294.1563	24	C13H20N5O3+
303.1775	94	C11H23N6O4+
311.1831	32	C13H23N6O3+
312.1661	7	C13H22N5O4+
328.2098	14	C13H26N7O3+
329.1934	45	C13H25N6O4+
357.1874	8	C13H19N13+
368.241	12	C2H32N12O9+
383.2045	3	C2H29N11O11+
389.2053	2	C3H27N13O9+
397.2602	2	C9H35N9O8+
407.2159	9	C3H29N13O10+
408.1995	4	C3H28N12O11+
440.226	83	C4H32N12O12+
469.3293	12	C12H43N11O8+
484.2147	16	C33H28N2O2+
523.2647	13	C38H35O2+
554.3047	22	C24H46N2O12+
571.316	6	C19H43N10O10+
571.3607	28	C16H49N11O11+
595.343	20	C40H43N4O+
599.3555	127	C17H49N11O12+
620.3443	22	C33H50NO10+
664.3511	20	C44H46N3O3+
700.4037	23	C36H50N11O4+
728.3983	135	C36H54N7O9+
753.4301	24	C39H53N12O4+
754.4121	41	C36H54N10O8+
865.4461	42	C43H61N8O11+
866.469	7	C38H64N11O12+
867.5098	207	
869.464	17	C42H63N9O11+
876.5087	8	C44H66N11O8+
882.4709	28	C41H62N12O10+
887.4745	13	C42H65N9O12+
890.5358	9	C44H68N13O7+
899.5044	17	C49H63N12O5+
909.5309	89	C44H69N12O9+
910.5188	18	C49H68N9O8+
924.5718	3	C49H72N12O6+
926.558	64	C46H74N10O10+
929.4893	9	C49H67N7O11+
933.5658	3	C44H75N11O11+
947.5025	2	C49H69N7O12+
949.5641	27	C49H75N9O10+
950.5381	19	C49H68N13O7+
952.5671	14	C49H76N8O11+
959.547	30	C48H71N12O9+
960.53	50	C48H70N11O10+
961.5176	36	C48H69N10O11+
966.5909	21	C47H76N13O9+
968.5531	8	C47H74N11O11+
971.5118	7	C48H67N12O10+
974.5588	3	C48H72N13O9+
975.5412	44	C48H71N12O10+
977.5596	16	C48H73N12O10+
978.5415	295	C48H72N11O11+
985.5238	11	C49H69N12O10+
986.5138	3	C49H68N11O11+
989.5219	15	C48H69N12O11+
992.5694	27	C48H74N13O10+
993.5527	65	C48H73N12O11+
996.552	604	C48H74N11O12+
997.5571	41	C48H75N11O12+
1002.5522	66	C49H72N13O10+
1003.5366	353	C49H71N12O11+
1004.5323	56	C48H70N13O11+
1010.5809	12	C48H76N13O11+
1020.5628	999	C49H74N13O11+
1021.5496	526	C49H73N12O12+
1038.5737	690	C49H76N13O12+
1040.5753	3	C48H76N14O12+
