Mass spectrum: Flunixine; LC-ESI-QFT; MS2; CE: 75; R=35000; [M+H]+
Name: Flunixine
Name: Banamine
Name: 2-[2-methyl-3-(trifluoromethyl)anilino]pyridine-3-carboxylic acid
Formula: C14H11F3N2O2
Exact mass: 296.07726
SMILES: CC1=C(C=CC=C1NC2=C(C=CC=N2)C(=O)O)C(F)(F)F
InChI: InChI=1S/C14H11F3N2O2/c1-8-10(14(15,16)17)5-2-6-11(8)19-12-9(13(20)21)4-3-7-18-12/h2-7H,1H3,(H,18,19)(H,20,21)
Instrument: Q Exactive Plus Orbitrap Thermo Scientific
Instrument type: LC-ESI-QFT
Ms type: MS2
Ion mode: POSITIVE
Ionization: ESI
Fragmentation mode: HCD
Collision energy: 75 (nominal)
Resolution: 35000
Column name: XBridge C18 3.5um, 2.1x50mm, Waters
Retention time: 10.9 min
Base peak: 297.0837
Precursor m/z: 297.0845
Precursor type: [M+H]+
m/z	relative intensity	assigned
50.0151	1	C4H2+
68.0494	1	C4H6N+
75.0228	1	C6H3+
78.0337	14	C5H4N+
79.0416	1	C5H5N+
83.0291	2	C5H4F+
89.0385	1	C7H5+
96.0443	25	C5H6NO+
106.0651	4	C7H8N+
109.0448	249	C7H6F+
110.0599	1	C6H8NO+
119.0291	6	C8H4F+
121.0396	7	C6H5N2O+
137.0397	1	C8H6FO+
139.0353	31	C8H5F2+
140.0492	5	C10H6N+
142.0526	1	C9H6N2+
147.0352	31	C8H4FN2+
154.0651	4	C11H8N+
155.073	4	C11H9N+
157.0445	2	C11H6F+
159.0416	148	C8H6F3+
164.0493	5	C12H6N+
166.0652	2	C12H8N+
167.0604	6	C11H7N2+
167.0728	7	C12H9N+
175.0603	5	C8H8F3N+
177.0509	2	C11H7F2+
179.0599	1	C12H7N2+
180.0681	8	C12H8N2+
181.076	83	C12H9N2+
182.0838	50	C12H10N2+
183.0677	2	C12H9NO+
184.0557	106	C12H7FN+
185.0447	1	C9H6F3N+
185.0635	1	C12H8FN+
185.071	3	C11H9N2O+
186.0587	8	C11H7FN2+
188.0506	4	C11H7FNO+
189.0384	3	C11H5F2N+
190.0461	1	C11H6F2N+
191.0602	27	C13H7N2+
192.0681	19	C13H8N2+
193.0762	3	C13H9N2+
195.0554	10	C12H7N2O+
197.0507	1	C12H6FN2+
202.047	1	C12H6F2N+
202.0668	1	C12H9FNO+
203.0541	2	C12H7F2N+
204.0619	8	C12H8F2N+
207.0417	1	C12H6F3+
208.063	3	C13H8N2O+
209.0445	5	C11H6F3N+
209.071	76	C13H9N2O+
210.0588	39	C13H7FN2+
210.0788	162	C13H10N2O+
211.0666	112	C13H8FN2+
212.0319	2	C10H5F3NO+
212.0505	10	C13H7FNO+
212.0744	5	C13H9FN2+
213.0658	3	C12H9N2O2+
213.0822	1	C13H10FN2+
214.0451	4	C8H5F3N4+
214.054	2	C9H8F2N2O2+
215.0412	2	C12H5F2N2+
216.0492	14	C12H6F2N2+
216.0617	4	C13H8F2N+
217.0571	7	C12H7F2N2+
219.0554	18	C14H7N2O+
219.0663	1	C13H7N4+
220.051	1	C13H6N3O+
221.0508	6	C14H6FN2+
224.0678	2	C12H9F3N+
227.0812	1	C13H11N2O2+
229.0576	4	C13H7F2N2+
229.0768	4	C13H10FN2O+
230.065	9	C13H8F2N2+
231.0728	53	C13H9F2N2+
232.0568	9	C13H8F2NO+
234.0524	26	C13H7F3N+
235.0478	6	C12H6F3N2+
235.0602	3	C13H8F3N+
236.0556	230	C12H7F3N2+
237.0392	12	C12H6F3NO+
237.0651	4	C14H9N2O2+
238.054	3	C14H7FN2O+
239.0614	119	C14H8FN2O+
241.0571	42	C14H7F2N2+
244.044	5	C13H6F2N2O+
245.0516	1	C13H7F2N2O+
248.0556	1	C13H7F3N2+
249.0633	17	C13H8F3N2+
250.0711	8	C13H9F3N2+
251.0428	6	C12H6F3N2O+
251.0789	14	C13H10F3N2+
252.063	9	C13H9F3NO+
257.0522	10	C14H7F2N2O+
257.0718	1	C14H10FN2O2+
258.0599	19	C14H8F2N2O+
259.0678	186	C11H10F3N2O2+
260.0562	2	C14H7F3N2+
261.0633	9	C14H8F3N2+
262.055	3	C13H8F2N2O2+
263.0426	16	C13H6F3N2O+
264.0504	999	C13H7F3N2O+
265.0538	1	C8H8F3N4O3+
268.0452	1	C12H7F3N2O2+
277.0582	29	C14H8F3N2O+
277.0781	6	C14H11F2N2O2+
278.0659	12	C14H9F3N2O+
279.0738	293	C14H10F3N2O+
281.0531	5	C13H8F3N2O2+
