Mass spectrum: 5-Methoxy-2H-benzotriazole; LC-ESI-QFT; MS2; CE: 90%; R=15000; [M+H]+
Name: 5-Methoxy-2H-benzotriazole
Name: 5-methoxy-2H-benzo[d][1,2,3]triazole
Formula: C7H7N3O
Exact mass: 149.0589
SMILES: COC1=CC2=NNN=C2C=C1
InChI: InChI=1S/C7H7N3O/c1-11-5-2-3-6-7(4-5)9-10-8-6/h2-4H,1H3,(H,8,9,10)
Instrument: Orbitrap Exploris 240 Thermo Scientific
Instrument type: LC-ESI-QFT
Ms type: MS2
Ion mode: POSITIVE
Ionization: ESI
Fragmentation mode: HCD
Collision energy: 90 % (nominal)
Resolution: 15000
Column name: Atlantis C18 3um, 3.0x150mm, Waters
Retention time: 14.536 min
Base peak: 150.0662
Precursor m/z: 150.0662
Precursor type: [M+H]+
Precursor intensity: 805775616
m/z	relative intensity	assigned
41.0385	45	C3H5+
51.0229	21	C4H3+
52.0308	378	C4H4+
53.0387	70	C4H5+
54.0339	39	C3H4N+
63.0229	206	C5H3+
65.0387	536	C5H5+
66.0337	14	C4H4N+
67.0543	144	C5H7+
77.0387	70	C6H5+
78.0341	31	C5H4N+
79.0417	760	C5H5N+
80.0258	111	C5H4O+
90.0337	106	C6H4N+
91.0418	31	C6H5N+
92.0497	61	C6H6N+
93.0573	31	C6H7N+
94.0657	14	C6H8N+
95.0493	999	C6H7O+
96.0446	12	C5H6NO+
105.0449	23	C6H5N2+
106.0287	13	C6H4NO+
107.0367	561	C6H5NO+
107.0478	220	C5H5N3+
122.0601	167	C7H8NO+
135.0429	363	C6H5N3O+
150.0665	461	C7H8N3O+
