Mass spectrum: Atenolol; LC-ESI-ITFT; MS2; CE: 90%; R=30000; [M+H]+
Name: Atenolol
Name: 2-[4-[2-hydroxy-3-(isopropylamino)propoxy]phenyl]acetamide
Formula: C14H22N2O3
Exact mass: 266.1630
SMILES: CC(C)NCC(O)COc1ccc(cc1)CC(N)=O
InChI: InChI=1S/C14H22N2O3/c1-10(2)16-8-12(17)9-19-13-5-3-11(4-6-13)7-14(15)18/h3-6,10,12,16-17H,7-9H2,1-2H3,(H2,15,18)
Instrument: LTQ Orbitrap XL Thermo Scientific
Instrument type: LC-ESI-ITFT
Ms type: MS2
Ion mode: POSITIVE
Ionization: ESI
Fragmentation mode: HCD
Collision energy: 90 % (nominal)
Resolution: 30000
Column name: XBridge C18 3.5um, 2.1x50mm, Waters
Retention time: 2.0 min
Base peak: 267.171
Precursor m/z: 267.1703
Precursor type: [M+H]+
m/z	relative intensity	assigned
56.0494	228	C3H6N+
58.0651	29	C3H8N+
72.0807	85	C4H10N+
74.06	282	C3H8NO+
77.0385	58	C6H5+
79.0542	109	C6H7+
84.0806	17	C5H10N+
89.0385	213	C7H5+
91.0542	353	C7H7+
93.0698	125	C7H9+
98.0964	31	C6H12N+
100.112	27	C6H14N+
103.0542	38	C8H7+
105.0446	15	C6H5N2+
105.0698	175	C8H9+
106.0651	201	C7H8N+
107.0491	418	C7H7O+
115.0542	195	C9H7+
116.0494	63	C8H6N+
116.1069	11	C6H14NO+
117.0334	58	C8H5O+
117.0574	20	C8H7N+
117.0698	227	C9H9+
119.0491	122	C8H7O+
121.0647	106	C8H9O+
122.0599	37	C7H8NO+
131.0491	30	C9H7O+
133.0647	517	C9H9O+
134.0599	170	C8H8NO+
144.0806	15	C10H10N+
145.0647	999	C10H9O+
147.0439	51	C9H7O2+
155.0603	27	C10H7N2+
162.066	66	C8H8N3O+
162.0914	12	C10H12NO+
190.087	17	C11H12NO2+
