Mass spectrum: Cetirizine N-Oxide; LC-ESI-QFT; MS2; CE: 45; R=35000; [M+H]+
Name: Cetirizine N-Oxide
Name: (R)-Cetirizine N-Oxide
Name: 2-[2-[4-[(4-chlorophenyl)-phenylmethyl]-1-oxidopiperazin-1-ium-1-yl]ethoxy]acetic acid
Formula: C21H25ClN2O4
Exact mass: 404.15028
SMILES: C1C[N+](CCN1C(C2=CC=CC=C2)C3=CC=C(C=C3)Cl)(CCOCC(=O)O)[O-]
InChI: InChI=1S/C21H25ClN2O4/c22-19-8-6-18(7-9-19)21(17-4-2-1-3-5-17)23-10-12-24(27,13-11-23)14-15-28-16-20(25)26/h1-9,21H,10-16H2,(H,25,26)
Instrument: Q Exactive Plus Orbitrap Thermo Scientific
Instrument type: LC-ESI-QFT
Ms type: MS2
Ion mode: POSITIVE
Ionization: ESI
Fragmentation mode: HCD
Collision energy: 45 (nominal)
Resolution: 35000
Column name: XBridge C18 3.5um, 2.1x50mm, Waters
Retention time: 9.4 min
Base peak: 405.1573
Precursor m/z: 405.1576
Precursor type: [M+H]+
m/z	relative intensity	assigned
56.0495	6	C3H6N+
58.0651	21	C3H8N+
68.0494	1	C4H6N+
69.0572	1	C4H7N+
70.0651	6	C4H8N+
71.0603	2	C3H7N2+
71.0729	1	C4H9N+
72.0807	1	C4H10N+
73.0885	1	C4H11N+
82.0652	1	C5H8N+
83.0603	2	C4H7N2+
84.0682	13	C4H8N2+
84.0807	7	C5H10N+
85.076	1	C4H9N2+
86.06	13	C4H8NO+
86.0963	1	C5H12N+
91.0541	1	C7H7+
97.076	9	C5H9N2+
98.0838	1	C5H10N2+
99.0917	64	C5H11N2+
100.0756	2	C5H10NO+
103.039	2	C4H7O3+
103.0542	1	C8H7+
104.062	11	C8H8+
111.0916	8	C6H11N2+
112.0995	8	C6H12N2+
114.0914	7	C6H12NO+
125.0152	1	C7H6Cl+
130.0651	1	C9H8N+
132.0655	64	C5H10NO3+
137.0153	1	C8H6Cl+
138.0231	8	C8H7Cl+
146.0811	33	C6H12NO3+
153.0699	4	C12H9+
158.0813	2	C7H12NO3+
159.0916	2	C10H11N2+
160.0969	7	C7H14NO3+
164.0261	1	C9H7ClN+
165.0698	38	C13H9+
166.0777	120	C13H10+
179.0855	23	C14H11+
183.0804	8	C13H11O+
187.1077	45	C8H15N2O3+
189.0466	1	C12H10Cl+
193.0762	11	C13H9N2+
199.0308	1	C13H8Cl+
201.0465	999	C13H10Cl+
206.0964	40	C15H12N+
214.0543	1	C14H11Cl+
215.0626	1	C14H12Cl+
216.0574	9	C13H11ClN+
217.0411	2	C13H10ClO+
228.0575	106	C14H11ClN+
229.0653	12	C14H12ClN+
240.0575	111	C15H11ClN+
241.0652	16	C15H12ClN+
242.0731	100	C15H13ClN+
256.0883	4	C19H12O+
268.089	1	C17H15ClN+
283.0997	9	C17H16ClN2+
285.1153	13	C17H18ClN2+
299.131	40	C18H20ClN2+
313.147	1	C19H22ClN2+
