Mass spectrum: Metolachlor; LC-ESI-ITFT; MS2; CE: 30%; R=15000; [M+H]+
Name: Metolachlor
Name: 2-chloranyl-N-(2-ethyl-6-methyl-phenyl)-N-(1-methoxypropan-2-yl)ethanamide
Formula: C15H22ClNO2
Exact mass: 283.1334
SMILES: CCC1=CC=CC(=C1N(C(C)COC)C(=O)CCl)C
InChI: InChI=1S/C15H22ClNO2/c1-5-13-8-6-7-11(2)15(13)17(14(18)9-16)12(3)10-19-4/h6-8,12H,5,9-10H2,1-4H3
Instrument: LTQ Orbitrap XL Thermo Scientific
Instrument type: LC-ESI-ITFT
Ms type: MS2
Ion mode: POSITIVE
Ionization: ESI
Fragmentation mode: HCD
Collision energy: 30 % (nominal)
Resolution: 15000
Column name: XBridge C18 3.5um, 2.1x50mm, Waters
Retention time: 11.8 min
Base peak: 306.1236
Precursor m/z: 284.1412
Precursor type: [M+H]+
m/z	relative intensity	assigned
73.0648	8	C4H9O+
176.1435	20	C12H18N+
212.0836	17	C11H15ClNO+
252.1151	999	C14H19ClNO+
284.1413	41	C15H23ClNO2+
