Mass spectrum: Epinephrine; LC-ESI-QFT; MS2; CE: 45; R=35000; [M+H]+
Name: Epinephrine
Name: 4-[(1R)-1-hydroxy-2-(methylamino)ethyl]benzene-1,2-diol
Formula: C9H13NO3
Exact mass: 183.08954
SMILES: CNC[C@@H](C1=CC(=C(C=C1)O)O)O
InChI: InChI=1S/C9H13NO3/c1-10-5-9(13)6-2-3-7(11)8(12)4-6/h2-4,9-13H,5H2,1H3/t9-/m0/s1
Instrument: Q Exactive Orbitrap Thermo Scientific
Instrument type: LC-ESI-QFT
Ms type: MS2
Ion mode: POSITIVE
Ionization: ESI
Fragmentation mode: HCD
Collision energy: 45 (nominal)
Resolution: 35000
Column name: XBridge C18 3.5um, 2.1x50mm, Waters
Retention time: 0.8 min
Base peak: 166.0863
Precursor m/z: 184.0968
Precursor type: [M+H]+
m/z	relative intensity	assigned
56.0496	6	C3H6N+
57.0574	60	C3H7N+
58.0652	54	C3H8N+
72.0444	2	C3H6NO+
79.0542	12	C6H7+
81.0335	2	C5H5O+
91.0542	15	C7H7+
93.0698	2	C7H9+
95.0491	3	C6H7O+
97.065	1	C6H9O+
103.0543	2	C8H7+
107.0492	264	C7H7O+
109.0284	31	C6H5O2+
109.0649	2	C7H9O+
118.0648	1	C8H8N+
119.0492	12	C8H7O+
120.0808	137	C8H10N+
121.0648	2	C8H9O+
123.044	18	C7H7O2+
123.0678	1	C7H9NO+
124.0519	1	C7H8O2+
125.0597	11	C7H9O2+
130.0651	1	C9H8N+
131.0492	1	C9H7O+
133.0523	27	C8H7NO+
134.0599	3	C8H8NO+
135.0441	210	C8H7O2+
137.0597	49	C8H9O2+
138.0912	3	C8H12NO+
146.0602	3	C9H8NO+
148.0757	126	C9H10NO+
149.0836	5	C9H11NO+
150.0551	1	C8H8NO2+
151.0628	150	C8H9NO2+
165.0785	2	C9H11NO2+
166.0864	999	C9H12NO2+
