Mass spectrum: Clenbuterol; LC-ESI-QFT; MS2; CE: 60; R=35000; [M+H]+
Name: Clenbuterol
Name: 1-(4-amino-3,5-dichlorophenyl)-2-(tert-butylamino)ethanol
Formula: C12H18Cl2N2O
Exact mass: 276.07962
SMILES: CC(C)(C)NCC(C1=CC(=C(C(=C1)Cl)N)Cl)O
InChI: InChI=1S/C12H18Cl2N2O/c1-12(2,3)16-6-10(17)7-4-8(13)11(15)9(14)5-7/h4-5,10,16-17H,6,15H2,1-3H3
Instrument: Q Exactive Plus Orbitrap Thermo Scientific
Instrument type: LC-ESI-QFT
Ms type: MS2
Ion mode: POSITIVE
Ionization: ESI
Fragmentation mode: HCD
Collision energy: 60 (nominal)
Resolution: 35000
Column name: XBridge C18 3.5um, 2.1x50mm, Waters
Retention time: 4.6 min
Base peak: 277.0862
Precursor m/z: 277.0869
Precursor type: [M+H]+
m/z	relative intensity	assigned
53.0022	1	C3HO+
57.0698	193	C4H9+
60.0443	3	C2H6NO+
104.0492	7	C7H6N+
131.0604	220	C8H7N2+
132.0681	999	C8H8N2+
133.0759	14	C8H9N2+
140.026	38	C7H7ClN+
141.0339	4	C7H8ClN+
151.0183	71	C8H6ClN+
152.0262	5	C8H7ClN+
153.0213	2	C7H6ClN2+
158.976	1	C7H5Cl2+
160.9793	1	C9H2ClO+
167.037	353	C8H8ClN2+
168.0448	971	C11H6NO+
169.0287	2	C8H8ClNO+
173.9872	5	C10H3ClO+
176.003	4	C7H8Cl2N+
185.9871	49	C8H6Cl2N+
189.9819	1	C7H6Cl2NO+
190.9897	7	C7H7Cl2NO+
203.0136	241	C8H9Cl2N2+
221.0243	9	C8H11Cl2N2O+
