Mass spectrum: Torsemide; LC-ESI-QFT; MS2; CE: 45; R=35000; [M+H]+
Name: Torsemide
Name: SMR000466313
Name: 1-[4-(3-methylanilino)pyridin-3-yl]sulfonyl-3-propan-2-ylurea
Formula: C16H20N4O3S
Exact mass: 348.12561
SMILES: O=S(=O)(c2c(Nc1cc(ccc1)C)ccnc2)NC(=O)NC(C)C
InChI: InChI=1S/C16H20N4O3S/c1-11(2)18-16(21)20-24(22,23)15-10-17-8-7-14(15)19-13-6-4-5-12(3)9-13/h4-11H,1-3H3,(H,17,19)(H2,18,20,21)
Instrument: Q Exactive Orbitrap Thermo Scientific
Instrument type: LC-ESI-QFT
Ms type: MS2
Ion mode: POSITIVE
Ionization: ESI
Fragmentation mode: HCD
Collision energy: 45 (nominal)
Resolution: 35000
Column name: XBridge C18 3.5um, 2.1x50mm, Waters
Retention time: 6.7 min
Base peak: 349.1332
Precursor m/z: 349.1329
Precursor type: [M+H]+
m/z	relative intensity	assigned
98.006	2	C4H4NS+
122.0601	26	C7H8NO+
125.0168	119	C5H5N2S+
126.0008	7	C5H4NOS+
126.0247	2	C5H6N2S+
127.0085	1	C5H5NOS+
127.0325	1	C5H7N2S+
128.0165	4	C5H6NOS+
137.0169	11	C6H5N2S+
153.0117	6	C6H5N2OS+
156.0808	2	C11H10N+
168.0683	58	C3H12N4O2S+
169.0761	2	C11H9N2+
176.0408	1	C9H8N2S+
177.0482	1	C9H9N2S+
181.0762	4	C12H9N2+
182.084	23	C12H10N2+
183.0918	373	C4H15N4O2S+
185.0711	5	C11H9N2O+
191.0639	28	C10H11N2S+
198.0788	48	C12H10N2O+
199.0867	51	C12H11N2O+
201.0482	41	C11H9N2S+
202.0326	1	C11H8NOS+
202.0561	2	C11H10N2S+
203.0637	1	C11H11N2S+
204.0355	1	C10H8N2OS+
205.043	1	C10H9N2OS+
214.0738	9	C12H10N2O2+
219.0588	121	C11H11N2OS+
229.0433	19	C12H9N2OS+
230.051	80	C12H10N2OS+
232.0302	2	C11H8N2O2S+
247.0538	98	C12H11N2O2S+
264.0804	999	C12H14N3O2S+
290.0596	111	C13H12N3O3S+
