Mass spectrum: Proquinazid; LC-ESI-QFT; MS2; CE: 150; R=35000; [M+H]+
Name: Proquinazid
Name: 6-Iodo-2-propoxy-3-propylquinazolin-4-one
Formula: C14H17IN2O2
Exact mass: 372.03348
SMILES: CCCN1C(=O)C2=C(C=CC(=C2)I)N=C1OCCC
InChI: InChI=1S/C14H17IN2O2/c1-3-7-17-13(18)11-9-10(15)5-6-12(11)16-14(17)19-8-4-2/h5-6,9H,3-4,7-8H2,1-2H3
Instrument: Q Exactive Plus Orbitrap Thermo Scientific
Instrument type: LC-ESI-QFT
Ms type: MS2
Ion mode: POSITIVE
Ionization: ESI
Fragmentation mode: HCD
Collision energy: 150 (nominal)
Resolution: 35000
Column name: XBridge C18 3.5um, 2.1x50mm, Waters
Retention time: 16.6 min
Base peak: 373.0401
Precursor m/z: 373.0408
Precursor type: [M+H]+
m/z	relative intensity	assigned
50.0152	9	C4H2+
51.023	1	C4H3+
52.0182	15	C3H2N+
52.0308	2	C4H4+
53.0022	16	C3HO+
53.9975	6	C2NO+
54.0339	2	C3H4N+
54.0465	8	C4H6+
61.0074	128	C5H+
62.0152	999	C5H2+
63.0104	32	C4HN+
63.023	86	C5H3+
64.0182	16	C4H2N+
64.0308	45	C5H4+
65.026	71	C4H3N+
66.0101	101	C4H2O+
67.0053	2	C3HNO+
67.0417	2	C4H5N+
68.0131	4	C3H2NO+
68.9972	3	C3HO2+
69.9924	1	C2NO2+
74.0151	4	C6H2+
75.0104	13	C5HN+
75.0229	2	C6H3+
76.0182	7	C5H2N+
76.0307	3	C6H4+
77.0022	3	C5HO+
77.0134	1	C4HN2+
77.026	2	C5H3N+
78.0101	15	C5H2O+
78.0339	6	C5H4N+
79.0179	44	C5H3O+
79.0417	25	C5H5N+
80.0131	3	C4H2NO+
80.0257	1	C5H4O+
81.0335	3	C5H5O+
87.0104	11	C6HN+
88.0183	227	C6H2N+
89.0261	424	C6H3N+
90.0214	2	C5H2N2+
90.0339	23	C6H4N+
91.0053	3	C5HNO+
91.0417	43	C6H5N+
92.0257	66	C6H4O+
101.0262	7	C7H3N+
105.0448	2	C6H5N2+
106.0289	2	C6H4NO+
107.0367	13	C6H5NO+
116.037	49	C7H4N2+
117.021	178	C7H3NO+
119.0367	3	C7H5NO+
135.0316	4	C7H5NO2+
137.0473	2	C7H7NO2+
140.9197	36	CH2I+
145.016	17	C8H3NO2+
162.0424	1	C8H6N2O2+
164.9198	60	C3H2I+
165.9149	1	C2HIN+
177.0059	14	
188.9197	16	C5H2I+
189.9149	5	C4HIN+
215.9308	145	C6H3IN+
