Mass spectrum: Carbendazim; LC-ESI-QFT; MS2; CE: 150; R=35000; [M+H]+
Name: Carbendazim
Name: N-(1H-benzimidazol-2-yl)carbamic acid methyl ester
Formula: C9H9N3O2
Exact mass: 191.06948
SMILES: c12c(cccc1)N=C(NC(OC)=O)N2
InChI: InChI=1S/C9H9N3O2/c1-14-9(13)12-8-10-6-4-2-3-5-7(6)11-8/h2-5H,1H3,(H2,10,11,12,13)
Instrument: Q Exactive Plus Orbitrap Thermo Scientific
Instrument type: LC-ESI-QFT
Ms type: MS2
Ion mode: POSITIVE
Ionization: ESI
Fragmentation mode: HCD
Collision energy: 150 (nominal)
Resolution: 35000
Column name: XBridge C18 3.5um, 2.1x50mm, Waters
Retention time: 3.2 min
Base peak: 192.0767
Precursor m/z: 192.0768
Precursor type: [M+H]+
m/z	relative intensity	assigned
50.0151	21	C4H2+
51.0229	22	C4H3+
52.0182	3	C3H2N+
52.0308	4	C4H4+
53.0022	13	C3HO+
53.0386	17	C4H5+
53.9975	3	C2NO+
54.0339	2	C3H4N+
55.0178	1	C3H3O+
61.0073	1	C5H+
62.0151	4	C5H2+
63.023	139	C5H3+
64.0182	75	C4H2N+
64.0307	5	C5H4+
65.0386	999	C5H5+
66.0338	3	C4H4N+
67.9893	3	C3O2+
68.0494	1	C4H6N+
69.0083	1	C2HN2O+
76.0181	1	C5H2N+
77.0259	7	C5H3N+
77.0385	1	C6H5+
78.0338	177	C5H4N+
79.0416	48	C5H5N+
80.0495	42	C5H6N+
81.0335	32	C5H5O+
90.0339	581	C6H4N+
91.0417	27	C6H5N+
92.0495	182	C6H6N+
93.0573	6	C6H7N+
95.0366	6	C5H5NO+
95.049	1	C6H7O+
96.0444	43	C5H6NO+
97.0523	4	C5H7NO+
104.0369	9	C6H4N2+
105.0448	743	C6H5N2+
106.0287	11	C6H4NO+
106.0526	38	C6H6N2+
107.0605	1	C6H7N2+
108.0445	6	C6H6NO+
116.037	3	C7H4N2+
117.0447	14	C7H5N2+
118.0525	22	C7H6N2+
131.0478	6	C7H5N3+
132.0557	140	C7H6N3+
133.0396	4	C7H5N2O+
133.0635	16	C7H7N3+
134.0714	1	C7H8N3+
135.0553	49	C7H7N2O+
159.0427	4	C8H5N3O+
160.0506	36	C8H6N3O+
