Mass spectrum: Amidosulfuron; LC-ESI-QFT; MS2; CE: 75; R=35000; [M+H]+
Name: Amidosulfuron
Name: 1-(4,6-dimethoxy-2-pyrimidinyl)-3-[methyl(methylsulfonyl)sulfamoyl]urea
Formula: C9H15N5O7S2
Exact mass: 369.04129
SMILES: O=C(Nc1nc(OC)cc(OC)n1)NS(=O)(=O)N(C)S(=O)(=O)C
InChI: InChI=1S/C9H15N5O7S2/c1-14(22(4,16)17)23(18,19)13-9(15)12-8-10-6(20-2)5-7(11-8)21-3/h5H,1-4H3,(H2,10,11,12,13,15)
Instrument: Q Exactive Orbitrap Thermo Scientific
Instrument type: LC-ESI-QFT
Ms type: MS2
Ion mode: POSITIVE
Ionization: ESI
Fragmentation mode: HCD
Collision energy: 75 (nominal)
Resolution: 35000
Column name: XBridge C18 3.5um, 2.1x50mm, Waters
Retention time: 8.4 min
Base peak: 370.0493
Precursor m/z: 370.0486
Precursor type: [M+H]+
m/z	relative intensity	assigned
57.045	10	C2H5N2+
58.029	14	C2H4NO+
59.013	2	C2H3O2+
67.0292	19	C3H3N2+
68.0132	19	C3H2NO+
69.0085	999	C2HN2O+
69.9925	2	C2NO2+
70.0289	12	C3H4NO+
71.0241	10	C2H3N2O+
71.0605	34	C3H7N2+
72.0445	13	C3H6NO+
81.0084	5	C3HN2O+
81.0322	9	C3H3N3+
81.0448	10	C4H5N2+
82.0289	22	C4H4NO+
82.0401	34	C3H4N3+
83.0241	258	C3H3N2O+
84.0319	103	C3H4N2O+
85.0398	1	C3H5N2O+
86.0238	20	C3H4NO2+
87.0191	3	C2H3N2O2+
93.0084	25	C4HN2O+
94.0401	13	C4H4N3+
96.0195	1	C3H2N3O+
96.0558	1	C4H6N3+
97.0398	128	C4H5N2O+
98.0238	4	C4H4NO2+
99.0554	5	C4H7N2O+
100.0394	46	C4H6NO2+
107.0115	1	C4HN3O+
107.0242	1	C5H3N2O+
109.0272	30	C4H3N3O+
109.0396	9	C5H5N2O+
110.0239	1	C5H4NO2+
110.035	1	C4H4N3O+
111.0429	152	C4H5N3O+
112.0394	1	C5H6NO2+
118.9911	13	C2H3N2O2S+
124.0143	28	C4H2N3O2+
124.0507	61	C5H6N3O+
125.0344	7	C5H5N2O2+
125.0585	1	C5H7N3O+
126.0664	18	C5H8N3O+
127.0503	141	C5H7N2O2+
137.0348	5	C6H5N2O2+
138.0299	10	C5H4N3O2+
138.0664	1	C6H8N3O+
139.0378	791	C5H5N3O2+
139.0499	145	C6H7N2O2+
140.0455	4	C5H6N3O2+
142.0613	10	C5H8N3O2+
154.0613	107	C6H8N3O2+
155.0693	1	C6H9N3O2+
156.0768	1	C6H10N3O2+
157.0609	145	C6H9N2O3+
165.0409	1	C6H5N4O2+
181.0721	28	C7H9N4O2+
182.0563	66	C7H8N3O3+
218.0233	8	C6H8N3O4S+
236.0338	24	C6H10N3O5S+
