Mass spectrum: Bentazone; LC-ESI-ITFT; MS2; CE: 35%; R=30000; [M-H]-
Name: Bentazone
Name: 2,2-bis(oxidanylidene)-3-propan-2-yl-1H-2$l^{6},1,3-benzothiadiazin-4-one
Formula: C10H12N2O3S
Exact mass: 240.0563
SMILES: c12c(C(N(C(C)C)S(N1)(=O)=O)=O)cccc2
InChI: InChI=1S/C10H12N2O3S/c1-7(2)12-10(13)8-5-3-4-6-9(8)11-16(12,14)15/h3-7,11H,1-2H3
Instrument: LTQ Orbitrap XL Thermo Scientific
Instrument type: LC-ESI-ITFT
Ms type: MS2
Ion mode: NEGATIVE
Ionization: ESI
Fragmentation mode: CID
Collision energy: 35 % (nominal)
Resolution: 30000
Column name: XBridge C18 3.5um, 2.1x50mm, Waters
Retention time: 7.4 min
Base peak: 239.0497
Precursor m/z: 239.0496
Precursor type: [M-H]-
m/z	relative intensity	assigned
132.033	98	C7H4N2O-
133.0408	49	C7H5N2O-
145.0659	1	C10H9O-
147.0815	9	C10H11O-
175.088	764	C10H11N2O-
195.995	3	C7H4N2O3S-
197.0029	999	C7H5N2O3S-
239.0495	20	C10H11N2O3S-
