Mass spectrum: Famphur; LC-ESI-QFT; MS2; CE: 45%; R=17500; [M+H]+
Name: Famphur
Name: 4-dimethoxyphosphinothioyloxy-N,N-dimethylbenzenesulfonamide
Formula: C10H16NO5PS2
Exact mass: 325.0208
SMILES: CN(C)S(=O)(=O)C1=CC=C(C=C1)OP(=S)(OC)OC
InChI: InChI=1S/C10H16NO5PS2/c1-11(2)19(12,13)10-7-5-9(6-8-10)16-17(18,14-3)15-4/h5-8H,1-4H3
Instrument: Exploris 240 Orbitrap Thermo Scientific
Instrument type: LC-ESI-QFT
Ms type: MS2
Ion mode: POSITIVE
Ionization: ESI
Fragmentation mode: HCD
Collision energy: 45 % (nominal)
Resolution: 17500
Column name: XBridge C18 3.5um, 2.1x50mm, Waters
Retention time: 6.830 min
Base peak: 326.0278
Precursor m/z: 326.028
Precursor type: [M+H]+
m/z	relative intensity	assigned
62.9993	13	CH4OP+
93.0099	999	C2H6O2P+
107.0492	11	C7H7O+
111.0264	14	C2H10NPS+
123.0263	31	C7H7S+
124.982	217	C2H6O2PS+
127.0157	14	C2H8O4P+
139.021	46	C7H7OS+
142.9927	51	C2H8O3PS+
154.9714	44	C6H4OPS+
171.974	11	C6H5O2PS+
172.9824	18	C6H6O2PS+
184.9821	108	C7H6O2PS+
186.9982	64	C7H8O2PS+
201.9848	188	C7H7O3PS+
202.9925	52	C7H8O3PS+
217.0083	715	C8H10O3PS+
233.003	44	C8H10O4PS+
235.019	50	C8H12O4PS+
280.97	12	C8H10O5PS2+
