Mass spectrum: Terbutylazine-desethyl; LC-ESI-ITFT; MS2; CE: 90%; R=7500; [M+H]+
Name: Terbutylazine-desethyl
Name: Desethylterbutylazine
Name: (4-amino-6-chloro-s-triazin-2-yl)-tert-butyl-amine
Formula: C7H12ClN5
Exact mass: 201.0781
SMILES: Nc1nc(NC(C)(C)C)nc(Cl)n1
InChI: InChI=1S/C7H12ClN5/c1-7(2,3)13-6-11-4(8)10-5(9)12-6/h1-3H3,(H3,9,10,11,12,13)
Instrument: LTQ Orbitrap XL Thermo Scientific
Instrument type: LC-ESI-ITFT
Ms type: MS2
Ion mode: POSITIVE
Ionization: ESI
Fragmentation mode: HCD
Collision energy: 90 % (nominal)
Resolution: 7500
Column name: XBridge C18 3.5um, 2.1x50mm, Waters
Retention time: 7.6 min
Base peak: 202.0861
Precursor m/z: 202.0854
Precursor type: [M+H]+
m/z	relative intensity	assigned
57.07	27	C4H9+
61.9793	53	CHClN+
68.0245	529	C2H2N3+
79.0059	687	CH4ClN2+
104.0012	907	C2H3ClN3+
110.0463	143	C3H4N5+
128.0568	15	C3H6N5O+
146.023	999	C3H5ClN5+
