Mass spectrum: Isopropalin; LC-ESI-QFT; MS2; CE: 15%; R=17500; [M+H]+
Name: Isopropalin
Name: 2,6-dinitro-4-propan-2-yl-N,N-dipropylaniline
Formula: C15H23N3O4
Exact mass: 309.1689
SMILES: CCCN(CCC)C1=C(C=C(C=C1[N+](=O)[O-])C(C)C)[N+](=O)[O-]
InChI: InChI=1S/C15H23N3O4/c1-5-7-16(8-6-2)15-13(17(19)20)9-12(11(3)4)10-14(15)18(21)22/h9-11H,5-8H2,1-4H3
Instrument: Exploris 240 Orbitrap Thermo Scientific
Instrument type: LC-ESI-QFT
Ms type: MS2
Ion mode: POSITIVE
Ionization: ESI
Fragmentation mode: HCD
Collision energy: 15 % (nominal)
Resolution: 17500
Column name: XBridge C18 3.5um, 2.1x50mm, Waters
Retention time: 15.043 min
Base peak: 310.1757
Precursor m/z: 310.1761
Precursor type: [M+H]+
m/z	relative intensity	assigned
210.0868	4	C9H12N3O3+
226.0816	2	C9H12N3O4+
250.1196	5	C12H16N3O3+
268.1285	20	C12H18N3O4+
292.1658	3	C15H22N3O3+
310.176	999	C15H24N3O4+
