Mass spectrum: Tetracycline; LC-ESI-QFT; MS2; CE: 45; R=35000; [M-H]-
Name: Tetracycline
Name: (4S,4aS,5aS,6S,12aS)-4-(Dimethylamino)-3,6,10,12,12a-pentahydroxy-6-methyl-1,11-dioxo-1,4,4a,5,5a,6,11,12a-octahydro-2-tetracenecarboxamide
Name: tetrex
Formula: C22H24N2O8
Exact mass: 444.15327
SMILES: C[C@]1(c2cccc(c2C(=O)C3=C([C@]4([C@@H](C[C@@H]31)[C@@H](C(=C(C4=O)C(=O)N)O)N(C)C)O)O)O)O
InChI: InChI=1S/C22H24N2O8/c1-21(31)8-5-4-6-11(25)12(8)16(26)13-9(21)7-10-15(24(2)3)17(27)14(20(23)30)19(29)22(10,32)18(13)28/h4-6,9-10,15,25,27-28,31-32H,7H2,1-3H3,(H2,23,30)/t9-,10-,15-,21+,22-/m0/s1
Instrument: Q Exactive Orbitrap Thermo Scientific
Instrument type: LC-ESI-QFT
Ms type: MS2
Ion mode: NEGATIVE
Ionization: ESI
Fragmentation mode: HCD
Collision energy: 45 (nominal)
Resolution: 35000
Column name: XBridge C18 3.5um, 2.1x50mm, Waters
Retention time: 4.5 min
Base peak: 443.1464
Precursor m/z: 443.146
Precursor type: [M-H]-
m/z	relative intensity	assigned
65.0397	16	C5H5-
65.9986	57	C3NO-
68.9982	44	C3HO2-
83.0503	11	C5H7O-
84.0091	307	C3H2NO2-
86.0248	50	C3H4NO2-
87.0088	37	C3H3O3-
93.0346	21	C6H5O-
96.0091	20	C4H2NO2-
96.9931	58	C4HO3-
99.0087	68	C4H3O3-
100.0767	50	C5H10NO-
109.0295	133	C6H5O2-
111.0088	26	C5H3O3-
111.0452	191	C6H7O2-
119.0137	11	C7H3O2-
119.0499	11	C8H7O-
121.0294	20	C7H5O2-
123.0451	45	C7H7O2-
124.0041	10	C5H2NO3-
124.0164	45	C6H4O3-
125.072	291	C6H9N2O-
126.0196	44	C5H4NO3-
126.0561	198	C6H8NO2-
133.0297	89	C8H5O2-
134.0248	36	C7H4NO2-
135.0088	156	C7H3O3-
135.0452	999	C8H7O2-
136.0402	50	C7H6NO2-
137.0246	17	C7H5O3-
139.0149	61	C5H3N2O3-
142.0146	85	C5H4NO4-
142.9986	69	C5H3O5-
145.0294	61	C9H5O2-
146.0371	14	C9H6O2-
147.0451	54	C9H7O2-
149.0242	64	C8H5O3-
152.0353	20	C7H6NO3-
153.0194	11	C7H5O4-
159.0451	11	C10H7O2-
161.0243	980	C9H5O3-
162.0197	102	C8H4NO3-
163.0034	40	C8H3O4-
163.0399	73	C9H7O3-
169.0619	37	C7H9N2O3-
172.053	14	C11H8O2-
173.0606	75	C11H9O2-
175.0399	35	C10H7O3-
180.0301	64	C8H6NO4-
183.0815	13	C13H11O-
187.0402	17	C11H7O3-
187.0766	189	C12H11O2-
189.0552	12	C11H9O3-
201.0923	37	C13H13O2-
211.0758	18	C14H11O2-
214.0634	20	C13H10O3-
