Mass spectrum: Dimethenamide ESA; LC-ESI-ITFT; MS2; CE: 60%; R=15000; [M+H]+
Name: Dimethenamide ESA
Name: 2-[(2,4-Dimethyl-3-thienyl)(1-methoxy-2-propanyl)amino]-2-oxoethanesulfonic acid
Formula: C12H19NO5S2
Exact mass: 321.0705
SMILES: S(C=C1C)C(C)=C1N(C(=O)CS(=O)(=O)O)C(COC)C
InChI: InChI=1S/C12H19NO5S2/c1-8-6-19-10(3)12(8)13(9(2)5-18-4)11(14)7-20(15,16)17/h6,9H,5,7H2,1-4H3,(H,15,16,17)
Instrument: LTQ Orbitrap XL Thermo Scientific
Instrument type: LC-ESI-ITFT
Ms type: MS2
Ion mode: POSITIVE
Ionization: ESI
Fragmentation mode: HCD
Collision energy: 60 % (nominal)
Resolution: 15000
Column name: XBridge C18 3.5um, 2.1x50mm, Waters
Retention time: 6.7 min
Base peak: 322.0788
Precursor m/z: 322.0777
Precursor type: [M+H]+
m/z	relative intensity	assigned
73.0648	69	C4H9O+
82.0652	38	C5H8N+
83.049	3	C5H7O+
91.0541	2	C7H7+
93.0699	6	C7H9+
94.0651	6	C6H8N+
95.0729	14	C6H9N+
97.0107	3	C5H5S+
99.0264	10	C5H7S+
106.0648	2	C7H8N+
107.0858	3	C8H11+
108.0808	12	C7H10N+
111.0263	172	C6H7S+
112.0341	62	C6H8S+
113.0294	14	C5H7NS+
113.0419	27	C6H9S+
114.0373	11	C5H8NS+
117.0699	6	C9H9+
118.065	7	C8H8N+
119.0729	15	C8H9N+
120.0808	12	C8H10N+
121.0887	5	C8H11N+
122.0964	9	C8H12N+
124.0342	10	C7H8S+
125.0295	17	C6H7NS+
125.042	111	C7H9S+
126.0372	172	C6H8NS+
126.0495	12	C7H10S+
127.0211	28	C6H7OS+
127.0451	40	C6H9NS+
127.0576	12	C7H11S+
128.0529	83	C6H10NS+
132.0808	7	C9H10N+
133.0886	14	C9H11N+
134.0965	222	C9H12N+
135.0263	36	C8H7S+
135.1043	37	C9H13N+
136.0338	2	C8H8S+
136.1121	10	C9H14N+
137.0297	5	C7H7NS+
137.0416	3	C8H9S+
138.0372	153	C7H8NS+
139.045	12	C7H9NS+
139.0576	7	C8H11S+
140.0529	22	C7H10NS+
148.1122	7	C10H14N+
149.042	39	C9H9S+
150.0372	49	C8H8NS+
150.0498	158	C9H10S+
151.0212	3	C8H7OS+
151.045	31	C8H9NS+
151.0576	40	C9H11S+
152.0165	64	C7H6NOS+
152.0529	753	C8H10NS+
153.0607	22	C8H11NS+
154.0319	5	C7H8NOS+
154.0683	8	C8H12NS+
162.0915	13	C10H12NO+
163.0993	10	C10H13NO+
164.053	6	C3H16O3S2+
164.107	7	C10H14NO+
166.0686	999	C9H12NS+
167.04	31	C8H9NOS+
167.0763	379	C9H13NS+
168.0477	122	C8H10NOS+
168.0842	533	C9H14NS+
169.0556	15	C8H11NOS+
170.0632	7	C8H12NOS+
176.107	64	C11H14NO+
180.0479	4	C9H10NOS+
180.0845	3	C10H14NS+
192.0841	5	C11H14NS+
194.0634	117	C10H12NOS+
206.0631	3	C5H18O4S2+
208.0788	13	C11H14NOS+
209.0869	42	C11H15NOS+
210.0949	471	C11H16NOS+
224.074	10	C11H14NO2S+
226.0899	10	C11H16NO2S+
290.0511	57	C11H16NO4S2+
290.0734	8	C8H20NO6S2+
