Mass spectrum: Chlorothalonil-TP R471811; LC-ESI-QFT; MS2; CE: 120%; R=17500; [M+H]+
Name: Chlorothalonil-TP R471811
Name: 2,4-dicarbamoyl-3,5,6-trichlorobenzenesulfonic acid
Formula: C8H5Cl3N2O5S
Exact mass: 345.8985
SMILES: NC(=O)C1=C(Cl)C(C(N)=O)=C(C(Cl)=C1Cl)S(O)(=O)=O
InChI: InChI=1S/C8H5Cl3N2O5S/c9-3-1(7(12)14)4(10)5(11)6(19(16,17)18)2(3)8(13)15/h(H2,12,14)(H2,13,15)(H,16,17,18)
Instrument: Q Exactive Plus Orbitrap Thermo Scientific
Instrument type: LC-ESI-QFT
Ms type: MS2
Ion mode: POSITIVE
Ionization: ESI
Fragmentation mode: HCD
Collision energy: 120 % (nominal)
Resolution: 17500
Column name: XBridge C18 3.5um, 2.1x50mm, Waters
Retention time: 1.062 min
Base peak: 346.906
Precursor m/z: 346.9058
Precursor type: [M+H]+
m/z	relative intensity	assigned
61.0073	8	C5H+
61.9791	11	CHClN+
62.9632	64	CClO+
70.9683	12	C3Cl+
71.9761	17	C3HCl+
72.9839	88	C3H2Cl+
73.9791	8	C2HClN+
75.0104	16	C5HN+
76.0181	5	C5H2N+
77.0021	6	C5HO+
82.945	220	CHCl2+
83.9762	31	C4HCl+
85.9793	12	C3HClN+
86.9634	10	C3ClO+
94.9684	12	C5Cl+
95.9761	261	C5HCl+
96.984	61	C5H2Cl+
97.9793	7	C4HClN+
98.9872	6	C4H2ClN+
101.9742	9	C3HClNO+
106.945	999	C3HCl2+
107.9761	13	C6HCl+
109.979	46	C5HClN+
110.9632	9	C5ClO+
110.9871	13	C5H2ClN+
117.9372	11	C4Cl2+
118.9452	23	C4HCl2+
120.9719	8	ClH6O3S+
122.987	40	C6H2ClN+
123.971	68	C6HClO+
129.9372	27	C5Cl2+
130.945	312	C5HCl2+
132.9715	10	C7ClN+
140.9059	28	C3Cl3+
141.9373	140	C6Cl2+
145.9558	13	C5H2Cl2N+
146.9402	6	C2H4Cl3N+
157.9326	7	C3H3Cl3N+
164.9061	27	C5Cl3+
166.9219	49	C5H2Cl3+
