Mass spectrum: Metolachlor morpholinone; LC-ESI-ITFT; MS2; CE: 35%; R=30000; [M+H]+
Name: Metolachlor morpholinone
Name: 4-(2-ethyl-6-methylphenyl)-5-methylmorpholin-3-one
Formula: C14H19NO2
Exact mass: 233.1416
SMILES: O=C2N(c1c(cccc1C)CC)C(C)COC2
InChI: InChI=1S/C14H19NO2/c1-4-12-7-5-6-10(2)14(12)15-11(3)8-17-9-13(15)16/h5-7,11H,4,8-9H2,1-3H3
Instrument: LTQ Orbitrap XL Thermo Scientific
Instrument type: LC-ESI-ITFT
Ms type: MS2
Ion mode: POSITIVE
Ionization: ESI
Fragmentation mode: CID
Collision energy: 35 % (nominal)
Resolution: 30000
Column name: XBridge C18 3.5um, 2.1x50mm, Waters
Retention time: 8.2 min
Base peak: 234.1493
Precursor m/z: 234.1489
Precursor type: [M+H]+
m/z	relative intensity	assigned
91.0543	6	C7H7+
93.0698	8	C7H9+
98.0598	4	C5H8NO+
99.0679	81	C5H9NO+
105.0698	8	C8H9+
116.0708	6	C5H10NO2+
117.0699	6	C9H9+
118.0651	40	C8H8N+
119.0855	143	C9H11+
120.0808	166	C8H10N+
131.073	4	C9H9N+
131.0855	12	C10H11+
132.0808	27	C9H10N+
133.0885	13	C9H11N+
134.0963	12	C9H12N+
135.0807	4	C9H11O+
135.1042	19	C9H13N+
145.0884	6	C10H11N+
146.0965	730	C10H12N+
147.068	21	C9H9NO+
147.1044	14	C10H13N+
147.117	10	C11H15+
148.0757	344	C9H10NO+
148.1122	999	C10H14N+
149.0961	18	C10H13O+
158.0964	69	C11H12N+
159.1042	35	C11H13N+
160.1121	627	C11H14N+
172.1118	8	C12H14N+
173.1198	17	C12H15N+
174.1278	29	C12H16N+
175.1356	644	C12H17N+
176.1069	202	C11H14NO+
176.1433	345	C12H18N+
177.1147	32	C11H15NO+
186.1276	17	C13H16N+
187.099	4	C12H13NO+
188.1434	478	C13H18N+
192.1019	16	C11H14NO2+
193.1097	85	C11H15NO2+
204.1383	15	C13H18NO+
205.1096	26	C12H15NO2+
206.1176	744	C12H16NO2+
206.1538	62	C13H20NO+
216.1382	132	C14H18NO+
219.1251	5	C13H17NO2+
234.1484	33	C14H20NO2+
