Mass spectrum: Cefadroxil; LC-ESI-QFT; MS2; CE: 15; R=35000; [M+H]+
Name: Cefadroxil
Name: 7-[[2-azaniumyl-2-(4-hydroxyphenyl)acetyl]amino]-3-methyl-8-oxo-5-thia-1-azabicyclo[4.2.0]oct-2-ene-2-carboxylate
Formula: C16H17N3O5S
Exact mass: 363.08889
SMILES: CC1=C(N2C(C(C2=O)NC(=O)C(C3=CC=C(C=C3)O)N)SC1)C(=O)O
InChI: InChI=1S/C16H17N3O5S/c1-7-6-25-15-11(14(22)19(15)12(7)16(23)24)18-13(21)10(17)8-2-4-9(20)5-3-8/h2-5,10-11,15,20H,6,17H2,1H3,(H,18,21)(H,23,24)
Instrument: Q Exactive Plus Orbitrap Thermo Scientific
Instrument type: LC-ESI-QFT
Ms type: MS2
Ion mode: POSITIVE
Ionization: ESI
Fragmentation mode: HCD
Collision energy: 15 (nominal)
Resolution: 35000
Column name: XBridge C18 3.5um, 2.1x50mm, Waters
Retention time: 2.4 min
Base peak: 364.0954
Precursor m/z: 364.0962
Precursor type: [M+H]+
m/z	relative intensity	assigned
68.0495	6	C4H6N+
86.0058	1	C3H4NS+
114.0008	751	C4H4NOS+
122.0601	3	C7H8NO+
126.0552	3	C6H8NO2+
134.0363	1	C8H6O2+
140.0343	60	C6H6NO3+
150.055	1	C8H8NO2+
158.0271	160	C6H8NO2S+
162.0913	1	C10H12NO+
170.0272	1	C7H8NO2S+
180.0478	10	C9H10NOS+
181.061	4	C8H9N2O3+
190.0499	65	C10H8NO3+
194.0272	6	C9H8NO2S+
206.0271	4	C10H8NO2S+
207.035	35	C10H9NO2S+
208.0428	999	C10H10NO2S+
213.0328	4	C8H9N2O3S+
253.0278	17	C10H9N2O4S+
256.0606	25	C14H10NO4+
301.0643	7	C15H13N2O3S+
303.0801	3	C15H15N2O3S+
313.0817	2	C16H13N2O5+
319.0748	12	C15H15N2O4S+
347.0698	35	
