Mass spectrum: Trimethoprim; LC-ESI-ITFT; MS2; CE: 90%; R=30000; [M+H]+
Name: Trimethoprim
Name: 2,4-Diamino-5-(3,4,5-trimethoxybenzyl)pyrimidine
Name: 5-[(3,4,5-trimethoxyphenyl)methyl]pyrimidine-2,4-diamine
Formula: C14H18N4O3
Exact mass: 290.1379
SMILES: c1(Cc2c(nc(N)nc2)N)cc(c(OC)c(c1)OC)OC
InChI: InChI=1S/C14H18N4O3/c1-19-10-5-8(6-11(20-2)12(10)21-3)4-9-7-17-14(16)18-13(9)15/h5-7H,4H2,1-3H3,(H4,15,16,17,18)
Instrument: LTQ Orbitrap XL Thermo Scientific
Instrument type: LC-ESI-ITFT
Ms type: MS2
Ion mode: POSITIVE
Ionization: ESI
Fragmentation mode: HCD
Collision energy: 90 % (nominal)
Resolution: 30000
Column name: XBridge C18 3.5um, 2.1x50mm, Waters
Retention time: 3.8 min
Base peak: 291.1463
Precursor m/z: 291.1452
Precursor type: [M+H]+
m/z	relative intensity	assigned
54.0338	9	C3H4N+
60.0556	16	CH6N3+
68.037	33	C3H4N2+
72.0319	13	C2H4N2O+
81.0448	473	C4H5N2+
83.0479	23	C3H5N3+
91.0543	28	C7H7+
95.0493	17	C6H7O+
104.0494	7	C7H6N+
106.04	24	C5H4N3+
107.0492	20	C7H7O+
109.051	32	C4H5N4+
110.0588	221	C4H6N4+
111.0666	137	C4H7N4+
115.0543	24	C9H7+
119.0492	19	C8H7O+
120.057	6	C8H8O+
121.0762	24	C7H9N2+
123.0442	162	C7H7O2+
123.0666	999	C5H7N4+
124.0744	101	C5H8N4+
128.0496	23	C9H6N+
130.0651	9	C9H8N+
132.0446	12	C8H6NO+
135.0441	26	C8H7O2+
135.0666	75	C6H7N4+
137.0598	68	C8H9O2+
142.0652	47	C10H8N+
145.0763	26	C9H9N2+
146.0601	31	C9H8NO+
146.0713	68	C8H8N3+
147.0666	17	C7H7N4+
148.0521	12	C9H8O2+
148.0745	33	C7H8N4+
149.0234	13	C8H5O3+
149.071	137	C8H9N2O+
149.0822	46	C7H9N4+
151.039	47	C8H7O3+
156.0443	25	C10H6NO+
157.076	15	C10H9N2+
158.0601	31	C10H8NO+
159.0918	29	C10H11N2+
161.0823	251	C8H9N4+
162.0901	105	C8H10N4+
163.0979	22	C8H11N4+
165.0547	13	C9H9O3+
165.0771	24	C7H9N4O+
170.0602	48	C11H8NO+
170.0714	34	C10H8N3+
172.0745	14	C9H8N4+
173.0712	23	C10H9N2O+
173.0823	33	C9H9N4+
174.0553	36	C10H8NO2+
174.0663	158	C9H8N3O+
174.0901	11	C9H10N4+
175.0614	41	C8H7N4O+
175.098	45	C9H11N4+
176.0695	32	C8H8N4O+
184.087	42	C11H10N3+
186.0552	16	C11H8NO2+
186.0901	38	C10H10N4+
187.0865	23	C11H11N2O+
187.0979	244	C10H11N4+
188.1057	13	C10H12N4+
189.0771	51	C9H9N4O+
190.0851	96	C9H10N4O+
191.0928	56	C9H11N4O+
198.0663	14	C11H8N3O+
199.0979	95	C11H11N4+
200.1057	13	C11H12N4+
201.0774	30	C10H9N4O+
201.1136	236	C11H13N4+
202.0501	7	C11H8NO3+
203.0929	86	C10H11N4O+
205.1083	8	C10H13N4O+
211.0978	24	C12H11N4+
212.082	31	C12H10N3O+
213.0772	26	C11H9N4O+
213.1134	9	C12H13N4+
214.0614	13	C13H10O3+
214.0852	19	C11H10N4O+
215.0692	26	C11H9N3O2+
215.0929	86	C11H11N4O+
216.0767	14	C11H10N3O2+
216.1003	11	C11H12N4O+
217.0607	18	C11H9N2O3+
217.1084	18	C11H13N4O+
218.0799	8	C10H10N4O2+
227.0927	17	C12H11N4O+
229.1085	330	C12H13N4O+
230.1168	28	C12H14N4O+
231.0878	259	C11H11N4O2+
232.0956	263	C11H12N4O2+
233.1034	266	C11H13N4O2+
242.0557	14	C12H8N3O3+
243.0877	29	C12H11N4O2+
245.1034	207	C12H13N4O2+
247.0827	94	C11H11N4O3+
247.1187	11	C12H15N4O2+
255.0877	14	C13H11N4O2+
257.1034	152	C13H13N4O2+
259.0828	56	C12H11N4O3+
261.0983	76	C12H13N4O3+
273.0979	7	C13H13N4O3+
275.1139	74	C13H15N4O3+
