Mass spectrum: Tetrazepam; LC-ESI-QFT; MS2; CE: 30; R=35000; [M+H]+
Name: Tetrazepam
Name: 7-chloro-5-(cyclohexen-1-yl)-1-methyl-3H-1,4-benzodiazepin-2-one
Formula: C16H17ClN2O
Exact mass: 288.10294
SMILES: CN1C(=O)CN=C(C2=C1C=CC(=C2)Cl)C3=CCCCC3
InChI: InChI=1S/C16H17ClN2O/c1-19-14-8-7-12(17)9-13(14)16(18-10-15(19)20)11-5-3-2-4-6-11/h5,7-9H,2-4,6,10H2,1H3
Instrument: Q Exactive Orbitrap Thermo Scientific
Instrument type: LC-ESI-QFT
Ms type: MS2
Ion mode: POSITIVE
Ionization: ESI
Fragmentation mode: HCD
Collision energy: 30 (nominal)
Resolution: 35000
Column name: XBridge C18 3.5um, 2.1x50mm, Waters
Retention time: 10.1 min
Base peak: 289.1101
Precursor m/z: 289.1102
Precursor type: [M+H]+
m/z	relative intensity	assigned
81.0698	3	C6H9+
95.0853	1	C7H11+
109.0647	2	C7H9O+
182.0366	3	C9H9ClNO+
197.1193	1	C14H15N+
225.102	2	C14H13N2O+
225.1384	6	C15H17N2+
226.1464	2	C15H18N2+
230.0725	1	C14H13ClN+
232.0887	9	C14H15ClN+
235.063	2	C12H12ClN2O+
253.1333	18	C16H17N2O+
254.1412	23	C16H18N2O+
261.0788	2	C14H14ClN2O+
261.1151	14	C15H18ClN2+
289.1098	999	C16H18ClN2O+
