Mass spectrum: 2-Naphthoxyacetic acid; LC-ESI-QFT; MS2; CE: 75; R=35000; [M+H]+
Name: 2-Naphthoxyacetic acid
Name: beta-Naphthoxyacetic acid
Name: (2-Naphthyloxy)acetic acid
Formula: C12H10O3
Exact mass: 202.06299
SMILES: C1=CC=C2C=C(C=CC2=C1)OCC(=O)O
InChI: InChI=1S/C12H10O3/c13-12(14)8-15-11-6-5-9-3-1-2-4-10(9)7-11/h1-7H,8H2,(H,13,14)
Instrument: Q Exactive Plus Orbitrap Thermo Scientific
Instrument type: LC-ESI-QFT
Ms type: MS2
Ion mode: POSITIVE
Ionization: ESI
Fragmentation mode: HCD
Collision energy: 75 (nominal)
Resolution: 35000
Column name: XBridge C18 3.5um, 2.1x50mm, Waters
Retention time: 8.5 min
Base peak: 230.1747
Precursor m/z: 203.0703
Precursor type: [M+H]+
m/z	relative intensity	assigned
51.0229	2	C4H3+
53.0386	2	C4H5+
55.0179	6	C3H3O+
55.0543	54	C4H7+
57.0335	1	C3H5O+
57.0699	1	C4H9+
59.0492	2	C3H7O+
67.0542	3	C5H7+
69.0699	16	C5H9+
73.0648	1	C4H9O+
77.0385	1	C6H5+
79.0542	8	C6H7+
81.0699	5	C6H9+
83.0491	3	C5H7O+
83.0855	20	C6H11+
91.0542	8	C7H7+
93.0699	5	C7H9+
95.0492	7	C6H7O+
95.0856	1	C7H11+
97.0649	1	C6H9O+
102.0461	1	C8H6+
103.0543	94	C8H7+
105.0447	2	C6H5N2+
105.0699	9	C8H9+
107.0855	1	C8H11+
111.0805	2	C7H11O+
115.0543	37	C9H7+
116.0576	1	C4H8N2O2+
116.0621	6	C9H8+
117.0699	21	C9H9+
119.0856	3	C9H11+
121.0648	3	C8H9O+
126.0464	5	C10H6+
127.0543	197	C10H7+
128.0621	342	C10H8+
129.0699	493	C10H9+
131.0492	8	C9H7O+
131.0855	1	C10H11+
142.0779	2	C11H10+
143.0858	1	C11H11+
144.0571	34	C10H8O+
145.0649	476	C10H9O+
146.0727	4	C10H10O+
155.0604	999	C10H7N2+
156.0574	8	C11H8O+
157.0648	53	C11H9O+
159.0806	3	C11H11O+
