Mass spectrum: Albendazole sulfone; LC-ESI-QFT; MS2; CE: 120; R=35000; [M-H]-
Name: Albendazole sulfone
Name: methyl N-(6-propylsulfonyl-1H-benzimidazol-2-yl)carbamate
Formula: C12H15N3O4S
Exact mass: 297.07833
SMILES: CCCS(=O)(=O)C1=CC2=C(C=C1)N=C(N2)NC(=O)OC
InChI: InChI=1S/C12H15N3O4S/c1-3-6-20(17,18)8-4-5-9-10(7-8)14-11(13-9)15-12(16)19-2/h4-5,7H,3,6H2,1-2H3,(H2,13,14,15,16)
Instrument: Q Exactive Plus Orbitrap Thermo Scientific
Instrument type: LC-ESI-QFT
Ms type: MS2
Ion mode: NEGATIVE
Ionization: ESI
Fragmentation mode: HCD
Collision energy: 120 (nominal)
Resolution: 35000
Column name: XBridge C18 3.5um, 2.1x50mm, Waters
Retention time: 5.7 min
Base peak: 264.0444
Precursor m/z: 296.0711
Precursor type: [M-H]-
m/z	relative intensity	assigned
50.0035	7	C3N-
64.0066	2	C3N2-
64.0192	53	C4H2N-
65.0145	27	C3HN2-
65.9986	16	C3NO-
68.0017	2	C2N2O-
74.0038	3	C5N-
87.0114	21	C6HN-
88.0067	6	C5N2-
88.0193	47	C6H2N-
89.0146	7	C5HN2-
90.0223	16	C5H2N2-
91.0064	1	C5HNO-
92.0255	9	C4H2N3-
93.0094	1	C4HN2O-
95.025	26	C4H3N2O-
101.0145	2	C6HN2-
102.0223	70	C6H2N2-
103.0175	21	C5HN3-
105.0331	2	C5H3N3-
106.0172	75	C5H2N2O-
113.0147	13	C7HN2-
114.0222	7	C7H2N2-
115.0302	849	C7H3N2-
116.0258	1	C6H2N3-
118.0172	2	C6H2N2O-
119.0253	2	C6H3N2O-
120.009	3	C6H2NO2-
129.0333	999	C7H3N3-
130.0171	3	C7H2N2O-
132.0202	10	C6H2N3O-
133.0281	237	C6H3N3O-
136.015	13	C5H2N3O2-
144.0202	7	C7H2N3O-
145.0282	16	C7H3N3O-
149.023	47	C6H3N3O2-
156.0204	128	C8H2N3O-
157.0281	442	C8H3N3O-
158.0359	44	C8H4N3O-
160.0152	107	C7H2N3O2-
173.0229	54	C8H3N3O2-
