Mass spectrum: Dibucaine; LC-ESI-QFT; MS2; CE: 60; R=35000; [M+H]+
Name: Dibucaine
Name: 2-butoxy-N-[2-(diethylamino)ethyl]quinoline-4-carboxamide
Formula: C20H29N3O2
Exact mass: 343.22598
SMILES: CCCCOC1=NC2=CC=CC=C2C(=C1)C(=O)NCCN(CC)CC
InChI: InChI=1S/C20H29N3O2/c1-4-7-14-25-19-15-17(16-10-8-9-11-18(16)22-19)20(24)21-12-13-23(5-2)6-3/h8-11,15H,4-7,12-14H2,1-3H3,(H,21,24)
Instrument: Q Exactive Orbitrap Thermo Scientific
Instrument type: LC-ESI-QFT
Ms type: MS2
Ion mode: POSITIVE
Ionization: ESI
Fragmentation mode: HCD
Collision energy: 60 (nominal)
Resolution: 35000
Column name: XBridge C18 3.5um, 2.1x50mm, Waters
Retention time: 8.6 min
Base peak: 344.2337
Precursor m/z: 344.2333
Precursor type: [M+H]+
m/z	relative intensity	assigned
57.0699	25	C4H9+
70.0288	5	C3H4NO+
72.0808	25	C4H10N+
74.0964	50	C4H12N+
86.0964	4	C5H12N+
89.0383	5	C7H5+
100.1121	65	C6H14N+
116.0495	353	C8H6N+
118.0652	2	C8H8N+
128.0493	4	C9H6N+
130.0652	10	C9H8N+
132.0443	7	C8H6NO+
134.0601	1	C8H8NO+
143.0608	2	C9H7N2+
143.0731	3	C10H9N+
144.0445	551	C9H6NO+
145.0523	5	C9H7NO+
146.0601	41	C9H8NO+
153.0448	1	C10H5N2+
154.0653	1	C11H8N+
156.0445	3	C10H6NO+
157.0886	5	C11H11N+
158.0601	28	C10H8NO+
158.0966	4	C11H12N+
159.0679	2	C10H9NO+
159.0918	3	C10H11N2+
160.0758	8	C10H10NO+
162.055	9	C9H8NO2+
167.073	2	C12H9N+
169.0762	3	C11H9N2+
170.0602	13	C11H8NO+
170.0965	5	C12H12N+
171.0554	140	C10H7N2O+
172.0393	559	C10H6NO2+
173.0832	1	C11H11NO+
176.0707	2	C10H10NO2+
182.0966	9	C13H12N+
183.1042	2	C13H13N+
184.0759	1	C12H10NO+
185.0836	2	C12H11NO+
186.0791	2	C11H10N2O+
187.0867	42	C11H11N2O+
189.066	1	C10H9N2O2+
197.071	2	C12H9N2O+
198.1278	3	C14H16N+
199.0867	1	C12H11N2O+
199.1231	3	C13H15N2+
200.107	23	C13H14NO+
202.1228	9	C13H16NO+
209.1076	1	C14H13N2+
215.0817	999	C12H11N2O2+
225.1386	7	C15H17N2+
227.1179	33	C14H15N2O+
228.1019	56	C14H14NO2+
243.1493	12	C15H19N2O+
245.1288	1	C14H17N2O2+
253.1336	6	C16H17N2O+
271.1442	188	C16H19N2O2+
