Mass spectrum: Metolachlor ESA; LC-ESI-ITFT; MS2; CE: 90%; R=7500; [M+H]+
Name: Metolachlor ESA
Name: 2-[(2-Ethyl-6-methylphenyl)(1-methoxy-2-propanyl)amino]-2-oxoethanesulfonic acid
Formula: C15H23NO5S
Exact mass: 329.1297
SMILES: O=S(O)(CC(N(C(C)COC)C1=C(CC)C=CC=C1C)=O)=O
InChI: InChI=1S/C15H23NO5S/c1-5-13-8-6-7-11(2)15(13)16(12(3)9-21-4)14(17)10-22(18,19)20/h6-8,12H,5,9-10H2,1-4H3,(H,18,19,20)
Instrument: LTQ Orbitrap XL Thermo Scientific
Instrument type: LC-ESI-ITFT
Ms type: MS2
Ion mode: POSITIVE
Ionization: ESI
Fragmentation mode: HCD
Collision energy: 90 % (nominal)
Resolution: 7500
Column name: XBridge C18 3.5um, 2.1x50mm, Waters
Retention time: 7.8 min
Base peak: 374.1017
Precursor m/z: 330.137
Precursor type: [M+H]+
m/z	relative intensity	assigned
73.0648	113	C4H9O+
91.0539	110	C7H7+
117.0699	125	C9H9+
119.0732	87	C8H9N+
120.0809	127	C8H10N+
131.0729	297	C9H9N+
132.0806	404	C9H10N+
133.0882	148	C9H11N+
134.0962	198	C9H12N+
144.0805	393	C10H10N+
145.0885	973	C10H11N+
146.0964	550	C10H12N+
158.0963	312	C11H12N+
159.1045	462	C11H13N+
160.112	999	C11H14N+
174.1279	599	C12H16N+
202.1232	226	C13H16NO+
