Mass spectrum: Atenolol acid; LC-ESI-ITFT; MS2; CE: 35%; R=30000; [M+H]+
Name: Atenolol acid
Name: Metoprolol acid
Name: 4-(2-Hydroxy-3-((1-methylethyl)amino)propoxy)benzeneacetic acid
Formula: C14H21NO4
Exact mass: 267.1471
SMILES: CC(C)NCC(O)COc1ccc(cc1)CC(=O)O
InChI: InChI=1S/C14H21NO4/c1-10(2)15-8-12(16)9-19-13-5-3-11(4-6-13)7-14(17)18/h3-6,10,12,15-16H,7-9H2,1-2H3,(H,17,18)
Instrument: LTQ Orbitrap XL Thermo Scientific
Instrument type: LC-ESI-ITFT
Ms type: MS2
Ion mode: POSITIVE
Ionization: ESI
Fragmentation mode: CID
Collision energy: 35 % (nominal)
Resolution: 30000
Column name: XBridge C18 3.5um, 2.1x50mm, Waters
Retention time: 3.8 min
Base peak: 268.1553
Precursor m/z: 268.1543
Precursor type: [M+H]+
m/z	relative intensity	assigned
86.0964	1	C5H12N+
98.0965	68	C6H12N+
116.1071	199	C6H14NO+
145.0648	224	C10H9O+
162.0914	17	C10H12NO+
163.0754	9	C10H11O2+
165.0546	50	C9H9O3+
179.0704	5	C10H11O3+
191.0704	999	C11H11O3+
204.1382	6	C13H18NO+
207.1016	8	C12H15O3+
208.0968	47	C11H14NO3+
209.0806	2	C11H13O4+
226.1075	546	C11H16NO4+
233.1172	44	C14H17O3+
250.1437	160	C14H20NO3+
