Mass spectrum: Trifluralin; LC-ESI-ITFT; MS2; CE: 15%; R=15000; [M+H]+
Name: Trifluralin
Name: 2,6-dinitro-N,N-dipropyl-4-(trifluoromethyl)aniline
Formula: C13H16F3N3O4
Exact mass: 335.1093
SMILES: [O-][N+](=O)c1cc(cc([N+]([O-])=O)c1N(CCC)CCC)C(F)(F)F
InChI: InChI=1S/C13H16F3N3O4/c1-3-5-17(6-4-2)12-10(18(20)21)7-9(13(14,15)16)8-11(12)19(22)23/h7-8H,3-6H2,1-2H3
Instrument: LTQ Orbitrap XL Thermo Scientific
Instrument type: LC-ESI-ITFT
Ms type: MS2
Ion mode: POSITIVE
Ionization: ESI
Fragmentation mode: HCD
Collision energy: 15 % (nominal)
Resolution: 15000
Column name: XBridge C18 3.5um, 2.1x50mm, Waters
Retention time: 16.5 min
Base peak: 149.012
Precursor m/z: 336.1166
Precursor type: [M+H]+
m/z	relative intensity	assigned
336.117	999	C13H17F3N3O4+
