Mass spectrum: Irgarol-descyclopropyl; LC-ESI-ITFT; MS2; CE: 75%; R=7500; [M+H]+
Name: Irgarol-descyclopropyl
Name: 2-N-tert-butyl-6-methylsulfanyl-1,3,5-triazine-2,4-diamine
Formula: C8H15N5S
Exact mass: 213.1048
SMILES: S(C)-c(nc(n1)N)nc1NC(C)(C)C
InChI: InChI=1S/C8H15N5S/c1-8(2,3)13-6-10-5(9)11-7(12-6)14-4/h1-4H3,(H3,9,10,11,12,13)
Instrument: LTQ Orbitrap XL Thermo Scientific
Instrument type: LC-ESI-ITFT
Ms type: MS2
Ion mode: POSITIVE
Ionization: ESI
Fragmentation mode: HCD
Collision energy: 75 % (nominal)
Resolution: 7500
Column name: XBridge C18 3.5um, 2.1x50mm, Waters
Retention time: 6.7 min
Base peak: 214.1125
Precursor m/z: 214.1121
Precursor type: [M+H]+
m/z	relative intensity	assigned
57.0698	8	C4H9+
68.0244	179	C2H2N3+
74.0059	63	C2H4NS+
85.0509	243	C2H5N4+
91.0325	37	C2H7N2S+
110.0462	119	C3H4N5+
112.0613	3	C3H6N5+
116.0277	160	C3H6N3S+
128.0566	8	C3H6N5O+
143.026	6	C3H5N5S+
158.0495	999	C4H8N5S+
