Mass spectrum: Topiramate; LC-ESI-QFT; MS2; CE: 120; R=35000; [M+H]+
Name: Topiramate
Name: Topamax
Name: (2,2,7,7-tetramethyl-5,5a,8a,8b-tetrahydrodi[1,3]dioxolo[4,5-a:5`,3`-d]pyran-3a-yl)methyl sulfamate
Formula: C12H21NO8S
Exact mass: 339.09879
SMILES: CC1(OC2COC3(C(C2O1)OC(O3)(C)C)COS(=O)(=O)N)C
InChI: InChI=1S/C12H21NO8S/c1-10(2)18-7-5-16-12(6-17-22(13,14)15)9(8(7)19-10)20-11(3,4)21-12/h7-9H,5-6H2,1-4H3,(H2,13,14,15)
Instrument: Q Exactive Plus Orbitrap Thermo Scientific
Instrument type: LC-ESI-QFT
Ms type: MS2
Ion mode: POSITIVE
Ionization: ESI
Fragmentation mode: HCD
Collision energy: 120 (nominal)
Resolution: 35000
Column name: XBridge C18 3.5um, 2.1x50mm, Waters
Retention time: 6.1 min
Base peak: 357.132
Precursor m/z: 340.1061
Precursor type: [M+H]+
m/z	relative intensity	assigned
50.0151	6	C4H2+
51.023	44	C4H3+
53.0023	54	C3HO+
53.0386	341	C4H5+
53.9975	5	C2NO+
54.0338	24	C3H4N+
55.0179	212	C3H3O+
56.0495	70	C3H6N+
57.0335	118	C3H5O+
59.0492	999	C3H7O+
61.0284	20	C2H5O2+
65.0387	36	C5H5+
67.0542	50	C5H7+
68.0494	26	C4H6N+
69.0335	199	C4H5O+
70.0651	4	C4H8N+
71.0128	62	C3H3O2+
71.0491	5	C4H7O+
73.0284	23	C3H5O2+
77.0385	16	C6H5+
79.0542	19	C6H7+
79.9801	628	H2NO2S+
81.0336	217	C5H5O+
82.0651	4	C5H8N+
85.0284	46	C4H5O2+
91.0543	6	C7H7+
95.0492	89	C6H7O+
96.0444	8	C5H6NO+
97.0285	27	C5H5O2+
105.0447	18	C6H5N2+
