Mass spectrum: Metosulam; LC-ESI-QFT; MS2; CE: 45; R=35000; [M+H]+
Name: Metosulam
Name: N-(2,6-dichloro-3-methyl-phenyl)-5,7-dimethoxy-[1,2,4]triazolo[1,5-a]pyrimidine-2-sulfonamide
Formula: C14H13Cl2N5O4S
Exact mass: 417.00653
SMILES: Clc1c(ccc(Cl)c1NS(=O)(=O)c2nc3nc(OC)cc(OC)n3n2)C
InChI: InChI=1S/C14H13Cl2N5O4S/c1-7-4-5-8(15)12(11(7)16)20-26(22,23)14-18-13-17-9(24-2)6-10(25-3)21(13)19-14/h4-6,20H,1-3H3
Instrument: Q Exactive Orbitrap Thermo Scientific
Instrument type: LC-ESI-QFT
Ms type: MS2
Ion mode: POSITIVE
Ionization: ESI
Fragmentation mode: HCD
Collision energy: 45 (nominal)
Resolution: 35000
Column name: XBridge C18 3.5um, 2.1x50mm, Waters
Retention time: 7.6 min
Base peak: 418.0141
Precursor m/z: 418.0138
Precursor type: [M+H]+
m/z	relative intensity	assigned
82.0399	1	C3H4N3+
83.024	1	C3H3N2O+
96.0556	4	C4H6N3+
104.0494	1	C7H6N+
136.0506	1	C6H6N3O+
138.0105	2	C7H5ClN+
139.0184	2	C7H6ClN+
139.0504	3	C6H7N2O2+
140.0261	64	C7H7ClN+
146.9762	5	C6H5Cl2+
151.0613	5	C6H7N4O+
152.0455	1	C6H6N3O2+
153.0532	1	C6H7N3O2+
156.021	1	C7H7ClNO+
157.0609	2	C6H9N2O3+
165.0406	5	C6H5N4O2+
173.9874	48	C7H6Cl2N+
174.995	999	C7H7Cl2N+
179.0563	16	C7H7N4O2+
180.0323	1	C8H7ClN3+
180.0403	2	C7H6N3O3+
180.064	3	C7H8N4O2+
181.072	6	C7H9N4O2+
188.9983	1	C4H10ClO4S+
189.9821	48	C7H6Cl2NO+
190.9896	3	C6HN5OS+
191.9974	3	C6H2N5OS+
194.048	1	C9H9ClN3+
198.9826	2	C5H8ClO4S+
207.0434	1	C6H11N2O4S+
215.0012	1	C8H7Cl2N3+
224.9978	1	C13H4ClNO+
228.031	10	C7H8N4O3S+
240.0089	9	C10H8Cl2N3+
283.1067	2	C14H13N5O2+
284.1141	4	C14H14N5O2+
303.0517	1	C13H10ClN5O2+
304.0597	10	C13H11ClN5O2+
318.0754	6	C14H13ClN5O2+
319.0831	5	C14H14ClN5O2+
322.0257	5	C13H10Cl2N5O+
354.0525	3	C14H14Cl2N5O2+
