Mass spectrum: Acetochlor ESA; LC-ESI-ITFT; MS2; CE: 60%; R=7500; [M-H]-
Name: Acetochlor ESA
Name: 2-[(Ethoxymethyl)(2-ethyl-6-methylphenyl)amino]-2-oxoethanesulfonic acid
Formula: C14H21NO5S
Exact mass: 315.1140
SMILES: S(=O)(=O)(O)CC(=O)N(-c(c(cc1)C)c(c1)CC)COCC
InChI: InChI=1S/C14H21NO5S/c1-4-12-8-6-7-11(3)14(12)15(10-20-5-2)13(16)9-21(17,18)19/h6-8H,4-5,9-10H2,1-3H3,(H,17,18,19)
Instrument: LTQ Orbitrap XL Thermo Scientific
Instrument type: LC-ESI-ITFT
Ms type: MS2
Ion mode: NEGATIVE
Ionization: ESI
Fragmentation mode: HCD
Collision energy: 60 % (nominal)
Resolution: 7500
Column name: XBridge C18 3.5um, 2.1x50mm, Waters
Retention time: 7.7 min
Base peak: 314.1062
Precursor m/z: 314.1068
Precursor type: [M-H]-
m/z	relative intensity	assigned
76.9702	131	CHO2S-
79.9573	999	O3S-
119.9766	23	C2H2NO3S-
120.9601	173	C2HO4S-
135.082	17	C9H11O-
144.0819	86	C10H10N-
146.0972	36	C10H12N-
162.0923	83	C10H12NO-
