Mass spectrum: 4-Amino-6-chloro-1,3-benzenedisulfonamide; LC-ESI-QFT; MS2; CE: 15; R=35000; [M-H]-
Name: 4-Amino-6-chloro-1,3-benzenedisulfonamide
Name: 4-amino-6-chlorobenzene-1,3-disulfonamide
Formula: C6H8ClN3O4S2
Exact mass: 284.96448
SMILES: C1=C(C(=CC(=C1Cl)S(=O)(=O)N)S(=O)(=O)N)N
InChI: InChI=1S/C6H8ClN3O4S2/c7-3-1-4(8)6(16(10,13)14)2-5(3)15(9,11)12/h1-2H,8H2,(H2,9,11,12)(H2,10,13,14)
Instrument: Q Exactive Orbitrap Thermo Scientific
Instrument type: LC-ESI-QFT
Ms type: MS2
Ion mode: NEGATIVE
Ionization: ESI
Fragmentation mode: HCD
Collision energy: 15 (nominal)
Resolution: 35000
Column name: XBridge C18 3.5um, 2.1x50mm, Waters
Retention time: 1.7 min
Base peak: 283.9573
Precursor m/z: 283.9572
Precursor type: [M-H]-
m/z	relative intensity	assigned
61.9706	16	NOS-
77.9655	999	NO2S-
79.9812	59	H2NO2S-
120.0569	124	C6H6N3-
136.0514	140	C6H6N3O-
138.002	86	C6H4NOS-
169.0075	97	C6H5N2O2S-
204.9842	38	C6H6ClN2O2S-
