Mass spectrum: Fexofenadine; LC-ESI-QFT; MS2; CE: 45; R=35000; [M-H]-
Name: Fexofenadine
Name: 2-[4-[1-hydroxy-4-[4-[hydroxy(diphenyl)methyl]-1-piperidinyl]butyl]phenyl]-2-methylpropanoic acid
Formula: C32H39NO4
Exact mass: 501.28791
SMILES: CC(C)(C1=CC=C(C=C1)C(CCCN2CCC(CC2)C(C3=CC=CC=C3)(C4=CC=CC=C4)O)O)C(=O)O
InChI: InChI=1S/C32H39NO4/c1-31(2,30(35)36)25-17-15-24(16-18-25)29(34)14-9-21-33-22-19-28(20-23-33)32(37,26-10-5-3-6-11-26)27-12-7-4-8-13-27/h3-8,10-13,15-18,28-29,34,37H,9,14,19-23H2,1-2H3,(H,35,36)
Instrument: Q Exactive Orbitrap Thermo Scientific
Instrument type: LC-ESI-QFT
Ms type: MS2
Ion mode: NEGATIVE
Ionization: ESI
Fragmentation mode: HCD
Collision energy: 45 (nominal)
Resolution: 35000
Column name: XBridge C18 3.5um, 2.1x50mm, Waters
Retention time: 8.2 min
Base peak: 500.2812
Precursor m/z: 500.2806
Precursor type: [M-H]-
m/z	relative intensity	assigned
69.0346	111	C4H5O-
82.0662	3	C5H8N-
83.0503	32	C5H7O-
84.0455	15	C4H6NO-
84.0819	12	C5H10N-
86.0611	17	C4H8NO-
92.0504	3	C6H6N-
93.0344	2	C6H5O-
94.0664	1	C6H8N-
96.0456	2	C5H6NO-
98.0611	3	C5H8NO-
108.0455	12	C6H6NO-
110.0612	129	C6H8NO-
112.0768	118	C6H10NO-
119.0502	15	C8H7O-
120.0455	20	C7H6NO-
121.0296	9	C7H5O2-
124.0767	3	C7H10NO-
130.0424	25	C9H6O-
133.0659	9	C9H9O-
134.0612	1	C8H8NO-
144.058	36	C10H8O-
145.0659	151	C10H9O-
147.0816	71	C10H11O-
152.1082	14	C9H14NO-
154.1238	8	C9H16NO-
157.0658	47	C11H9O-
159.0815	88	C11H11O-
162.0925	10	C10H12NO-
168.0819	2	C12H10N-
170.0975	41	C12H12N-
171.0816	7	C12H11O-
180.1031	46	C10H14NO2-
181.066	1	C13H9O-
182.1184	13	C10H16NO2-
183.0815	10	C13H11O-
185.0845	60	C12H11NO-
186.0924	33	C12H12NO-
187.113	20	C13H15O-
188.1081	307	C12H14NO-
190.0872	12	C11H12NO2-
228.1395	3	C15H18NO-
230.155	47	C15H20NO-
240.1395	20	C16H18NO-
256.1345	10	C16H18NO2-
258.15	999	C16H20NO2-
300.1972	11	C19H26NO2-
348.2329	4	C24H30NO-
360.2336	15	C25H30NO-
376.2281	10	C25H30NO2-
378.2439	15	C25H32NO2-
