Mass spectrum: Rotenone; LC-ESI-QFT; MS2; CE: 45%; R=17500; [M+H]+
Name: Rotenone
Name: 5`beta-Rotenone
Name: 16,17-dimethoxy-6-prop-1-en-2-yl-2,7,20-trioxapentacyclo[11.8.0.03,11.04,8.014,19]henicosa-3(11),4(8),9,14,16,18-hexaen-12-one
Formula: C23H22O6
Exact mass: 394.1416
SMILES: CC(=C)C1CC2=C(O1)C=CC3=C2OC4COC5=CC(=C(C=C5C4C3=O)OC)OC
InChI: InChI=1S/C23H22O6/c1-11(2)16-8-14-15(28-16)6-5-12-22(24)21-13-7-18(25-3)19(26-4)9-17(13)27-10-20(21)29-23(12)14/h5-7,9,16,20-21H,1,8,10H2,2-4H3
Instrument: Exploris 240 Orbitrap Thermo Scientific
Instrument type: LC-ESI-QFT
Ms type: MS2
Ion mode: POSITIVE
Ionization: ESI
Fragmentation mode: HCD
Collision energy: 45 % (nominal)
Resolution: 17500
Column name: XBridge C18 3.5um, 2.1x50mm, Waters
Retention time: 10.235 min
Base peak: 372.0284
Precursor m/z: 395.1489
Precursor type: [M+H]+
m/z	relative intensity	assigned
108.0567	18	C7H8O+
109.0649	23	C7H9O+
121.0648	14	C8H9O+
124.0519	45	C7H8O2+
133.0647	29	C9H9O+
135.0442	65	C8H7O2+
137.0595	54	C8H9O2+
139.0752	360	C8H11O2+
147.0445	32	C9H7O2+
147.0805	86	C10H11O+
151.0753	92	C9H11O2+
159.0444	16	C10H7O2+
161.0235	31	C9H5O3+
161.0599	62	C10H9O2+
162.0674	61	C10H10O2+
165.0911	66	C10H13O2+
167.0701	248	C9H11O3+
167.0852	14	C13H11+
171.0805	33	C12H11O+
177.0545	79	C10H9O3+
179.0701	316	C10H11O3+
185.0595	34	C12H9O2+
185.0959	19	C13H13O+
189.0908	169	C12H13O2+
191.0701	217	C11H11O3+
192.078	935	C11H12O3+
193.0857	141	C11H13O3+
195.0807	212	C14H11O+
198.0674	90	C13H10O2+
203.0701	545	C12H11O3+
213.0909	999	C14H13O2+
219.0658	27	C12H11O4+
220.073	34	C12H12O4+
223.0754	23	C15H11O2+
241.0856	111	C15H13O3+
367.153	26	C22H23O5+
377.1385	32	C23H21O5+
395.1487	35	C23H23O6+
