Mass spectrum: Di-n-butyl phthalate; LC-ESI-QFT; MS2; CE: 45; R=35000; [M-H]-
Name: Di-n-butyl phthalate
Name: Dibutyl phthalate
Name: dibutyl benzene-1,2-dicarboxylate
Formula: C16H22O4
Exact mass: 278.15181
SMILES: CCCCOC(=O)C1=CC=CC=C1C(=O)OCCCC
InChI: InChI=1S/C16H22O4/c1-3-5-11-19-15(17)13-9-7-8-10-14(13)16(18)20-12-6-4-2/h7-10H,3-6,11-12H2,1-2H3
Instrument: Q Exactive Plus Orbitrap Thermo Scientific
Instrument type: LC-ESI-QFT
Ms type: MS2
Ion mode: NEGATIVE
Ionization: ESI
Fragmentation mode: HCD
Collision energy: 45 (nominal)
Resolution: 35000
Column name: XBridge C18 3.5um, 2.1x50mm, Waters
Retention time: 13.8 min
Base peak: 277.1444
Precursor m/z: 277.1445
Precursor type: [M-H]-
m/z	relative intensity	assigned
69.0346	1	C4H5O-
75.0241	22	C6H3-
77.0397	16	C6H5-
93.0347	22	C6H5O-
103.019	8	C7H3O-
105.0346	5	C7H5O-
107.0504	55	C7H7O-
108.0218	1	C6H4O2-
109.066	1	C7H9O-
111.0817	4	C7H11O-
119.014	25	C7H3O2-
121.0297	465	C7H5O2-
125.0974	19	C8H13O-
127.113	746	C8H15O-
129.1287	15	C8H17O-
134.0375	999	C8H6O2-
135.0453	62	C8H7O2-
147.009	270	C8H3O3-
149.0246	4	C8H5O3-
155.1081	1	C9H15O2-
165.0194	10	C8H5O4-
173.1186	1	C9H17O3-
179.0354	8	C9H7O4-
190.9989	13	C9H3O5-
203.1443	13	C14H19O-
205.1602	1	C14H21O-
231.1391	4	C15H19O2-
233.1549	1	C15H21O2-
277.1445	1	C16H21O4-
