Mass spectrum: Chlorthiazide; LC-ESI-QFT; MS2; CE: 15; R=35000; [M-H]-
Name: Chlorthiazide
Name: 6-chloro-1,1-dioxo-4H-1$l^{6},2,4-benzothiadiazine-7-sulfonamide
Formula: C7H6ClN3O4S2
Exact mass: 294.94883
SMILES: C1=C2C(=CC(=C1Cl)S(=O)(=O)N)S(=O)(=O)NC=N2
InChI: InChI=1S/C7H6ClN3O4S2/c8-4-1-5-7(2-6(4)16(9,12)13)17(14,15)11-3-10-5/h1-3H,(H,10,11)(H2,9,12,13)
Instrument: Q Exactive Plus Orbitrap Thermo Scientific
Instrument type: LC-ESI-QFT
Ms type: MS2
Ion mode: NEGATIVE
Ionization: ESI
Fragmentation mode: HCD
Collision energy: 15 (nominal)
Resolution: 35000
Column name: XBridge C18 3.5um, 2.1x50mm, Waters
Retention time: 1.9 min
Base peak: 293.9414
Precursor m/z: 293.9415
Precursor type: [M-H]-
m/z	relative intensity	assigned
293.9416	999	C7H5ClN3O4S2-
