Mass spectrum: Difethialone; LC-ESI-QFT; MS2; CE: 75%; R=17500; [M+H]+
Name: Difethialone
Name: 3-[3-[4-(4-bromophenyl)phenyl]-1,2,3,4-tetrahydronaphthalen-1-yl]-2-hydroxythiochromen-4-one
Formula: C31H23BrO2S
Exact mass: 538.0602
SMILES: C1C(CC2=CC=CC=C2C1C3=C(SC4=CC=CC=C4C3=O)O)C5=CC=C(C=C5)C6=CC=C(C=C6)Br
InChI: InChI=1S/C31H23BrO2S/c32-24-15-13-20(14-16-24)19-9-11-21(12-10-19)23-17-22-5-1-2-6-25(22)27(18-23)29-30(33)26-7-3-4-8-28(26)35-31(29)34/h1-16,23,27,34H,17-18H2
Instrument: Exploris 240 Orbitrap Thermo Scientific
Instrument type: LC-ESI-QFT
Ms type: MS2
Ion mode: POSITIVE
Ionization: ESI
Fragmentation mode: HCD
Collision energy: 75 % (nominal)
Resolution: 17500
Column name: XBridge C18 3.5um, 2.1x50mm, Waters
Retention time: 17.282 min
Base peak: 541.0654
Precursor m/z: 539.0675
Precursor type: [M+H]+
m/z	relative intensity	assigned
65.0384	13	C5H5+
91.0542	492	C7H7+
103.0542	62	C8H7+
105.0698	19	C8H9+
109.0106	226	C6H5S+
111.0262	9	C6H7S+
115.0544	34	C9H7+
117.0697	15	C9H9+
121.0105	10	C7H5S+
123.0263	213	C7H7S+
128.0621	53	C10H8+
129.0696	35	C10H9+
135.0262	84	C8H7S+
137.0055	147	C7H5OS+
137.0418	15	C8H9S+
147.0263	77	C9H7S+
152.0622	7	C12H8+
154.0772	15	C12H10+
163.0211	93	C9H7OS+
164.0624	13	C13H8+
165.0699	829	C13H9+
166.0776	20	C13H10+
168.9648	23	C7H6Br+
177.0698	13	C14H9+
178.0777	999	C14H10+
179.0855	228	C14H11+
191.016	55	C10H7O2S+
191.0849	12	C15H11+
205.0322	20	C11H9O2S+
215.0862	35	C17H11+
226.0784	16	C18H10+
228.0932	24	C18H12+
239.0855	134	C19H11+
240.0935	201	C19H12+
241.1011	470	C19H13+
242.9804	188	C13H8Br+
244.996	74	C13H10Br+
252.0943	10	C20H12+
253.1013	89	C20H13+
254.1091	74	C20H14+
255.1168	565	C20H15+
256.1248	138	C20H16+
