Mass spectrum: Carbosulfan; LC-ESI-QFT; MS2; CE: 45%; R=17500; [M+H]+
Name: Carbosulfan
Name: (2,2-dimethyl-3H-1-benzofuran-7-yl) N-(dibutylamino)sulfanyl-N-methylcarbamate
Formula: C20H32N2O3S
Exact mass: 380.2134
SMILES: CCCCN(CCCC)SN(C)C(=O)OC1=CC=CC2=C1OC(C2)(C)C
InChI: InChI=1S/C20H32N2O3S/c1-6-8-13-22(14-9-7-2)26-21(5)19(23)24-17-12-10-11-16-15-20(3,4)25-18(16)17/h10-12H,6-9,13-15H2,1-5H3
Instrument: Exploris 240 Orbitrap Thermo Scientific
Instrument type: LC-ESI-QFT
Ms type: MS2
Ion mode: POSITIVE
Ionization: ESI
Fragmentation mode: HCD
Collision energy: 45 % (nominal)
Resolution: 17500
Column name: XBridge C18 3.5um, 2.1x50mm, Waters
Retention time: 16.038 min
Base peak: 388.3935
Precursor m/z: 381.2206
Precursor type: [M+H]+
m/z	relative intensity	assigned
57.0699	40	C4H9+
62.0058	44	CH4NS+
72.0808	31	C4H10N+
76.0215	545	C2H6NS+
86.0967	57	C5H12N+
104.0526	103	C4H10NS+
118.0684	999	C5H12NS+
123.0439	72	C7H7O2+
128.1434	323	C8H18N+
160.1154	219	C8H18NS+
165.0911	131	C10H13O2+
167.0531	22	C9H11OS+
