Mass spectrum: Benzenesulfonamide; LC-ESI-QFT; MS2; CE: 150; R=35000; [M+H]+
Name: Benzenesulfonamide
Name: Benzenesulfonimidic acid
Formula: C6H7NO2S
Exact mass: 157.01975
SMILES: c1ccc(cc1)S(=N)(=O)O
InChI: InChI=1S/C6H7NO2S/c7-10(8,9)6-4-2-1-3-5-6/h1-5H,(H2,7,8,9)
Instrument: Q Exactive Plus Orbitrap Thermo Scientific
Instrument type: LC-ESI-QFT
Ms type: MS2
Ion mode: POSITIVE
Ionization: ESI
Fragmentation mode: HCD
Collision energy: 150 (nominal)
Resolution: 35000
Column name: XBridge C18 3.5um, 2.1x50mm, Waters
Retention time: 3.1 min
Base peak: 158.0266
Precursor m/z: 158.027
Precursor type: [M+H]+
m/z	relative intensity	assigned
50.0151	573	C4H2+
51.0229	999	C4H3+
53.0022	7	C3HO+
53.0386	115	C4H5+
55.0178	7	C3H3O+
65.0021	29	C4HO+
65.0386	1	C5H5+
66.01	5	C4H2O+
67.0542	4	C5H7+
74.015	4	C6H2+
75.0228	13	C6H3+
77.0385	405	C6H5+
79.9799	1	H2NO2S+
81.0335	12	C5H5O+
94.0413	1	C6H6O+
95.0491	333	C6H7O+
105.0447	244	C6H5N2+
