Mass spectrum: Propranolol; LC-ESI-QFT; MS2; CE: 90; R=35000; [M+H]+
Name: Propranolol
Name: 1-(1-naphthalenyloxy)-3-(propan-2-ylamino)-2-propanol
Formula: C16H21NO2
Exact mass: 259.15723
SMILES: CC(C)NCC(COC1=CC=CC2=CC=CC=C21)O
InChI: InChI=1S/C16H21NO2/c1-12(2)17-10-14(18)11-19-16-9-5-7-13-6-3-4-8-15(13)16/h3-9,12,14,17-18H,10-11H2,1-2H3
Instrument: Q Exactive Orbitrap Thermo Scientific
Instrument type: LC-ESI-QFT
Ms type: MS2
Ion mode: POSITIVE
Ionization: ESI
Fragmentation mode: HCD
Collision energy: 90 (nominal)
Resolution: 35000
Column name: XBridge C18 3.5um, 2.1x50mm, Waters
Retention time: 6.6 min
Base peak: 260.1646
Precursor m/z: 260.1645
Precursor type: [M+H]+
m/z	relative intensity	assigned
53.0024	10	C3HO+
56.0496	999	C3H6N+
58.0652	944	C3H8N+
60.0808	7	C3H10N+
70.0651	6	C4H8N+
71.073	5	C4H9N+
72.0808	522	C4H10N+
74.06	792	C3H8NO+
77.0385	12	
84.0808	108	C5H10N+
91.0542	38	C7H7+
95.0491	57	C6H7O+
98.0964	92	C6H12N+
100.1121	256	C6H14N+
103.054	49	C8H7+
115.0542	454	C9H7+
116.1069	120	C6H14NO+
117.0698	115	C9H9+
127.0541	66	C10H7+
128.062	542	C10H8+
129.0698	969	C10H9+
141.0698	149	C11H9+
143.0492	8	C10H7O+
144.0569	38	C10H8O+
145.0648	606	C10H9O+
152.0616	53	C12H8+
153.0699	547	C12H9+
154.0776	204	C12H10+
155.0603	408	C10H7N2+
155.0855	648	C12H11+
157.0648	225	C11H9O+
165.0698	432	C13H9+
168.0569	162	C12H8O+
171.0807	8	C12H11O+
181.0647	10	C13H9O+
182.0727	13	C13H10O+
183.0803	41	C13H11O+
