Mass spectrum: N,N-Dimethyl-N'-p-tolylsulphamide; LC-ESI-ITFT; MS2; CE: 90%; R=30000; [M+H]+
Name: N,N-Dimethyl-N'-p-tolylsulphamide
Name: 1-(dimethylsulfamoylamino)-4-methyl-benzene
Formula: C9H14N2O2S
Exact mass: 214.0776
SMILES: O=S(=O)(Nc1ccc(C)cc1)N(C)C
InChI: InChI=1S/C9H14N2O2S/c1-8-4-6-9(7-5-8)10-14(12,13)11(2)3/h4-7,10H,1-3H3
Instrument: LTQ Orbitrap XL Thermo Scientific
Instrument type: LC-ESI-ITFT
Ms type: MS2
Ion mode: POSITIVE
Ionization: ESI
Fragmentation mode: HCD
Collision energy: 90 % (nominal)
Resolution: 30000
Column name: XBridge C18 3.5um, 2.1x50mm, Waters
Retention time: 7.5 min
Base peak: 237.0675
Precursor m/z: 215.0849
Precursor type: [M+H]+
m/z	relative intensity	assigned
53.0385	14	C4H5+
77.0386	407	C6H5+
79.0542	999	C6H7+
81.0334	3	C5H5O+
91.0545	2	C7H7+
93.0572	4	C6H7N+
95.0491	43	C6H7O+
105.0447	111	C6H5N2+
106.0651	773	C7H8N+
107.0729	50	C7H9N+
121.0757	5	C7H9N2+
135.0916	6	C8H11N2+
136.0994	6	C8H12N2+
