Mass spectrum: Aspartame; LC-ESI-ITFT; MS2; CE: 75%; R=15000; [M+H]+
Name: Aspartame
Name: 3-amino-4-[(1-benzyl-2-keto-2-methoxy-ethyl)amino]-4-keto-butyric acid
Formula: C14H18N2O5
Exact mass: 294.1216
SMILES: COC(=O)C(CC1=CC=CC=C1)NC(=O)C(CC(=O)O)N
InChI: InChI=1S/C14H18N2O5/c1-21-14(20)11(7-9-5-3-2-4-6-9)16-13(19)10(15)8-12(17)18/h2-6,10-11H,7-8,15H2,1H3,(H,16,19)(H,17,18)/t10-,11-/m0/s1
Instrument: LTQ Orbitrap XL Thermo Scientific
Instrument type: LC-ESI-ITFT
Ms type: MS2
Ion mode: POSITIVE
Ionization: ESI
Fragmentation mode: HCD
Collision energy: 75 % (nominal)
Resolution: 15000
Column name: XBridge C18 3.5um, 2.1x50mm, Waters
Retention time: 4.8 min
Base peak: 295.1297
Precursor m/z: 295.1288
Precursor type: [M+H]+
m/z	relative intensity	assigned
70.0288	38	C3H4NO+
88.0393	78	C3H6NO2+
91.0543	161	C7H7+
93.07	15	C7H9+
98.0236	3	C4H4NO2+
99.0078	3	C4H3O3+
103.0543	123	C8H7+
104.0495	2	C7H6N+
117.0697	2	C9H9+
118.0651	3	C8H8N+
119.073	4	C8H9N+
120.0809	999	C8H10N+
121.0648	83	C8H9O+
128.0622	2	C10H8+
129.07	12	C10H9+
130.0652	66	C9H8N+
131.0493	3	C9H7O+
135.0803	5	C9H11O+
144.0808	33	C10H10N+
145.0646	4	C10H9O+
146.0597	2	C9H8NO+
147.0916	5	C9H11N2+
154.0652	15	C11H8N+
157.0646	6	C11H9O+
172.0758	15	C11H10NO+
175.0866	7	C10H11N2O+
182.0602	22	C12H8NO+
200.0704	5	C12H10NO2+
