Mass spectrum: 2-Naphthoxyacetic acid; LC-ESI-QFT; MS2; CE: 90; R=35000; [M+H]+
Name: 2-Naphthoxyacetic acid
Name: beta-Naphthoxyacetic acid
Name: (2-Naphthyloxy)acetic acid
Formula: C12H10O3
Exact mass: 202.06299
SMILES: C1=CC=C2C=C(C=CC2=C1)OCC(=O)O
InChI: InChI=1S/C12H10O3/c13-12(14)8-15-11-6-5-9-3-1-2-4-10(9)7-11/h1-7H,8H2,(H,13,14)
Instrument: Q Exactive Plus Orbitrap Thermo Scientific
Instrument type: LC-ESI-QFT
Ms type: MS2
Ion mode: POSITIVE
Ionization: ESI
Fragmentation mode: HCD
Collision energy: 90 (nominal)
Resolution: 35000
Column name: XBridge C18 3.5um, 2.1x50mm, Waters
Retention time: 8.5 min
Base peak: 230.1747
Precursor m/z: 203.0703
Precursor type: [M+H]+
m/z	relative intensity	assigned
51.0229	2	C4H3+
53.0386	9	C4H5+
55.0179	5	C3H3O+
55.0543	60	C4H7+
59.0491	3	C3H7O+
65.0385	1	C5H5+
67.0542	4	C5H7+
69.0699	15	C5H9+
75.0228	2	C6H3+
77.0383	5	C6H5+
79.0542	7	C6H7+
81.0699	3	C6H9+
83.0491	2	C5H7O+
83.0855	5	C6H11+
91.0542	14	C7H7+
93.0698	3	C7H9+
95.0492	31	C6H7O+
101.0385	1	C8H5+
102.0463	1	C8H6+
103.0542	91	C8H7+
105.0335	1	C7H5O+
105.0448	18	C6H5N2+
105.07	8	C8H9+
115.0543	59	C9H7+
116.0577	2	C4H8N2O2+
116.062	16	C9H8+
117.0699	24	C9H9+
119.0491	3	C8H7O+
119.0856	2	C9H11+
121.065	3	C8H9O+
125.0385	1	C10H5+
126.0465	37	C10H6+
127.0543	381	C10H7+
128.0621	453	C10H8+
129.0699	194	C10H9+
131.0492	8	C9H7O+
141.07	3	C11H9+
142.0777	2	C11H10+
143.049	1	C10H7O+
144.057	34	C10H8O+
145.0649	454	C10H9O+
146.0726	1	C10H10O+
155.0604	999	C10H7N2+
156.0574	8	C11H8O+
157.0649	7	C11H9O+
159.0808	3	C11H11O+
