Mass spectrum: MCLF; LC-ESI-QFT; MS2; CE: 75%; R=17500; [M+H]+
Name: MCLF
Name: Microcystin LF
Name: 15-benzyl-18-[(1E,3E)-6-methoxy-3,5-dimethyl-7-phenylhepta-1,3-dienyl]-1,5,12,19-tetramethyl-2-methylidene-8-(2-methylpropyl)-3,6,9,13,16,20,25-heptaoxo-1,4,7,10,14,17,21-heptazacyclopentacosane-11,22-dicarboxylic acid
Class: NA
Formula: C52H71N7O12
Exact mass: 985.5161
SMILES: COC(Cc1ccccc1)C(C)/C=C(C)/C=C/C2NC(=O)C(Cc3ccccc3)NC(=O)C(C)C(NC(=O)C(CC(C)C)NC(=O)C(C)NC(=O)C(=C)N(C)C(=O)CCC(NC(=O)C2C)C(O)=O)C(O)=O
InChI: InChI=1S/C52H71N7O12/c1-29(2)25-40-50(66)58-44(52(69)70)33(6)46(62)56-41(27-36-17-13-11-14-18-36)49(65)54-38(22-21-30(3)26-31(4)42(71-10)28-37-19-15-12-16-20-37)32(5)45(61)55-39(51(67)68)23-24-43(60)59(9)35(8)48(64)53-34(7)47(63)57-40/h11-22,26,29,31-34,38-42,44H,8,23-25,27-28H2,1-7,9-10H3,(H,53,64)(H,54,65)(H,55,61)(H,56,62)(H,57,63)(H,58,66)(H,67,68)(H,69,70)/b22-21+,30-26+
Instrument: Q Exactive Plus Orbitrap Thermo Scientific
Instrument type: LC-ESI-QFT
Ms type: MS2
Ion mode: POSITIVE
Ionization: ESI
Fragmentation mode: HCD
Collision energy: 75 % (nominal)
Resolution: 17500
Column name: XBridge C18 3.5um, 2.1x50mm, Waters
Retention time: 12.318 min
Base peak: 164.9846
Precursor m/z: 986.5233
Precursor type: [M+H]+
m/z	relative intensity	assigned
69.0335	55	C4H5O+
69.0698	27	C5H9+
74.0236	24	C2H4NO2+
77.0384	32	C6H5+
79.0542	258	C6H7+
80.0495	48	C5H6N+
81.0698	20	C6H9+
82.0287	29	C4H4NO+
82.0651	166	C5H8N+
84.0444	202	C4H6NO+
84.0809	7	
85.0283	18	C4H5O2+
86.06	13	
86.0964	266	C5H12N+
91.0543	755	C7H7+
92.062	19	C7H8+
93.0699	271	C7H9+
94.0651	50	C6H8N+
95.0491	216	C6H7O+
95.0856	21	C7H11+
96.0446	5	C5H6NO+
96.0807	14	C6H10N+
99.0917	118	C5H11N2+
102.0463	12	C8H6+
102.055	14	C4H8NO2+
103.0542	999	C8H7+
105.0447	83	C6H5N2+
105.0699	547	C8H9+
106.065	7	C7H8N+
107.0855	920	C8H11+
108.0682	14	C6H8N2+
108.0806	11	C7H10N+
109.0648	85	C7H9O+
110.0601	63	C6H8NO+
110.0965	12	C7H12N+
113.0233	53	C5H5O3+
113.0706	5	C5H9N2O+
115.0543	120	C9H7+
116.062	10	C9H8+
117.0699	137	C9H9+
118.065	11	C8H8N+
119.0604	42	C7H7N2+
119.0854	60	C9H11+
120.0569	15	
120.0808	705	C8H10N+
121.0759	88	C7H9N2+
121.101	11	C9H13+
122.0598	17	C7H8NO+
122.0841	9	C7H10N2+
122.0963	17	C8H12N+
123.0915	17	C7H11N2+
124.0754	12	C7H10NO+
124.1118	12	C8H14N+
127.0866	614	C6H11N2O+
128.0621	53	C10H8+
128.0708	9	C6H10NO2+
129.0698	58	C10H9+
130.0498	14	C5H8NO3+
130.0651	78	C9H8N+
130.0776	18	C10H10+
131.0855	74	C10H11+
132.0807	10	C9H10N+
133.1009	23	C10H13+
134.0961	11	C9H12N+
135.0803	153	C9H11O+
135.1058	5	
135.1167	126	C10H15+
138.0549	37	C7H8NO2+
139.0867	12	C7H11N2O+
141.0695	11	C11H9+
143.0736	9	C10H9N+
143.0855	29	C11H11+
145.101	36	C11H13+
146.0599	10	C9H8NO+
146.0966	42	C10H12N+
146.1078	7	C11H14+
149.071	75	C8H9N2O+
151.0868	6	C8H11N2O+
155.0602	9	C10H7N2+
155.0818	24	C7H11N2O2+
158.0962	16	C11H12N+
159.0805	9	C11H11O+
159.1165	6	C12H15+
160.1122	16	C11H14N+
163.1114	23	C11H15O+
165.0703	28	C13H9+
166.0774	13	C13H10+
167.0817	168	C8H11N2O2+
179.0858	15	H13N5O6+
180.0933	13	C14H12+
186.0913	11	C12H12NO+
193.1011	12	C15H13+
195.0767	34	C9H11N2O3+
213.0877	25	C10H9N6+
