Mass spectrum: Carbophenothion; LC-ESI-QFT; MS2; CE: 120%; R=17500; [M+H]+
Name: Carbophenothion
Name: (4-chlorophenyl)sulfanylmethylsulfanyl-diethoxy-sulfanylidene-lambda5-phosphane
Formula: C11H16ClO2PS3
Exact mass: 341.9739
SMILES: CCOP(=S)(OCC)SCSC1=CC=C(C=C1)Cl
InChI: InChI=1S/C11H16ClO2PS3/c1-3-13-15(16,14-4-2)18-9-17-11-7-5-10(12)6-8-11/h5-8H,3-4,9H2,1-2H3
Instrument: Exploris 240 Orbitrap Thermo Scientific
Instrument type: LC-ESI-QFT
Ms type: MS2
Ion mode: POSITIVE
Ionization: ESI
Fragmentation mode: HCD
Collision energy: 120 % (nominal)
Resolution: 17500
Column name: XBridge C18 3.5um, 2.1x50mm, Waters
Retention time: 14.141 min
Base peak: 360.9651
Precursor m/z: 342.9811
Precursor type: [M+H]+
m/z	relative intensity	assigned
51.0231	239	C4H3+
59.0494	66	C3H7O+
64.9788	295	H2O2P+
74.015	289	C6H2+
75.0229	762	C6H3+
77.0386	216	C6H5+
78.0464	328	C6H6+
89.0386	154	C7H5+
95.0492	139	C6H7O+
96.9506	378	H2O2PS+
114.9613	505	CH4ClO2S+
121.0108	999	C7H5S+
122.0186	223	C7H6S+
125.0155	234	C7H6Cl+
