Mass spectrum: Ketoprofen; LC-ESI-ITFT; MS2; CE: 60%; R=15000; [M+H]+
Name: Ketoprofen
Name: 2-(3-benzoylphenyl)propanoic acid
Formula: C16H14O3
Exact mass: 254.0943
SMILES: CC(C1=CC=CC(=C1)C(=O)C2=CC=CC=C2)C(=O)O
InChI: InChI=1S/C16H14O3/c1-11(16(18)19)13-8-5-9-14(10-13)15(17)12-6-3-2-4-7-12/h2-11H,1H3,(H,18,19)
Instrument: LTQ Orbitrap XL Thermo Scientific
Instrument type: LC-ESI-ITFT
Ms type: MS2
Ion mode: POSITIVE
Ionization: ESI
Fragmentation mode: HCD
Collision energy: 60 % (nominal)
Resolution: 15000
Column name: XBridge C18 3.5um, 2.1x50mm, Waters
Retention time: 9.6 min
Base peak: 277.0843
Precursor m/z: 255.1016
Precursor type: [M+H]+
m/z	relative intensity	assigned
53.0385	10	C4H5+
77.0386	90	C6H5+
91.0543	4	C7H7+
93.0699	10	C7H9+
95.0491	8	C6H7O+
103.0543	56	C8H7+
105.0335	999	C7H5O+
121.0647	9	C8H9O+
131.0492	66	C9H7O+
149.0599	7	C9H9O2+
166.0773	9	C13H10+
177.0546	149	C10H9O3+
177.0658	25	C9H9N2O2+
181.1012	12	C14H13+
191.0856	7	C15H11+
194.0726	118	C14H10O+
209.0961	130	C15H13O+
