Mass spectrum: Lincomycin; LC-ESI-QFT; MS2; CE: 120; R=35000; [M-H]-
Name: Lincomycin
Name: N-[2-hydroxy-1-(3,4,5-trihydroxy-6-methylsulfanyloxan-2-yl)propyl]-1-methyl-4-propylpyrrolidine-2-carboxamide
Formula: C18H34N2O6S
Exact mass: 406.21376
SMILES: CCCC1CC(N(C1)C)C(=O)NC(C2C(C(C(C(O2)SC)O)O)O)C(C)O
InChI: InChI=1S/C18H34N2O6S/c1-5-6-10-7-11(20(3)8-10)17(25)19-12(9(2)21)16-14(23)13(22)15(24)18(26-16)27-4/h9-16,18,21-24H,5-8H2,1-4H3,(H,19,25)
Instrument: Q Exactive Plus Orbitrap Thermo Scientific
Instrument type: LC-ESI-QFT
Ms type: MS2
Ion mode: NEGATIVE
Ionization: ESI
Fragmentation mode: HCD
Collision energy: 120 (nominal)
Resolution: 35000
Column name: XBridge C18 3.5um, 2.1x50mm, Waters
Retention time: 3.7 min
Base peak: 451.2115
Precursor m/z: 405.2065
Precursor type: [M-H]-
m/z	relative intensity	assigned
50.0036	128	C3N-
51.0239	52	C4H3-
52.0192	117	C3H2N-
53.0032	70	C3HO-
55.0189	699	C3H3O-
56.9805	69	C2HS-
57.0346	384	C3H5O-
58.006	62	C2H2O2-
58.0297	39	C2H4NO-
59.0139	657	C2H3O2-
60.9754	99	CHOS-
63.0239	11	C5H3-
63.9625	22	O2S-
64.0192	13	C4H2N-
65.0032	41	C4HO-
65.0397	111	C5H5-
65.9985	89	C3NO-
66.0349	302	C4H4N-
67.019	314	C4H3O-
68.0142	316	C3H2NO-
68.9983	694	C3HO2-
69.0346	834	C4H5O-
70.0299	166	C3H4NO-
71.0139	999	C3H3O2-
71.9676	13	C2OS-
72.9755	77	C2HOS-
72.9933	107	C2HO3-
73.0296	49	C3H5O2-
73.9833	228	C2H2OS-
76.0193	44	C5H2N-
77.0034	37	C5HO-
78.0349	100	C5H4N-
79.0189	39	C5H3O-
80.0142	20	C4H2NO-
80.0506	126	C5H6N-
81.022	397	C4H3NO-
81.0346	248	C5H5O-
82.0298	178	C4H4NO-
82.9962	78	C4H3S-
83.0138	42	C4H3O2-
83.0502	78	C5H7O-
84.0092	18	C3H2NO2-
84.0217	53	C4H4O2-
84.0454	21	C4H6NO-
85.0295	198	C4H5O2-
86.0009	9	C3H2O3-
86.991	13	C3H3OS-
87.0087	105	C3H3O3-
88.9702	43	C2HO2S-
89.0033	13	C6HO-
90.0349	49	C6H4N-
93.0345	20	C6H5O-
94.0298	978	C5H4NO-
95.0139	84	C5H3O2-
96.009	11	C4H2NO2-
96.0454	11	C5H6NO-
97.0295	133	C5H5O2-
98.0247	96	C4H4NO2-
98.9911	10	C4H3OS-
99.9988	11	C4H4OS-
101.9781	18	C3H2O2S-
104.0141	18	C6H2NO-
105.022	114	C6H3NO-
106.0298	42	C6H4NO-
107.0378	19	C6H5NO-
108.0217	350	C6H4O2-
108.0454	20	C6H6NO-
109.017	84	C5H3NO2-
109.066	18	C7H9O-
110.0247	11	C5H4NO2-
110.991	47	C5H3OS-
118.03	50	C7H4NO-
120.0455	12	C7H6NO-
122.0248	285	C6H4NO2-
123.0326	49	C6H5NO2-
124.04	16	C6H6NO2-
138.0019	103	C6H4NOS-
