Mass spectrum: N,N-Didesmethylvenlafaxine; LC-ESI-ITFT; MS2; CE: 90%; R=7500; [M+H]+
Name: N,N-Didesmethylvenlafaxine
Name: 1-[2-Amino-1-(4-methoxyphenyl)ethyl]cyclohexanol
Formula: C15H23NO2
Exact mass: 249.1729
SMILES: OC2(C(c1ccc(OC)cc1)CN)CCCCC2
InChI: InChI=1S/C15H23NO2/c1-18-13-7-5-12(6-8-13)14(11-16)15(17)9-3-2-4-10-15/h5-8,14,17H,2-4,9-11,16H2,1H3
Instrument: LTQ Orbitrap XL Thermo Scientific
Instrument type: LC-ESI-ITFT
Ms type: MS2
Ion mode: POSITIVE
Ionization: ESI
Fragmentation mode: HCD
Collision energy: 90 % (nominal)
Resolution: 7500
Column name: XBridge C18 3.5um, 2.1x50mm, Waters
Retention time: 6.3 min
Base peak: 250.1814
Precursor m/z: 250.1802
Precursor type: [M+H]+
m/z	relative intensity	assigned
67.0542	17	C5H7+
77.0387	47	C6H5+
78.0465	23	C6H6+
79.0542	90	C6H7+
81.0699	89	C6H9+
91.0543	454	C7H7+
93.0699	31	C7H9+
103.0547	8	C8H7+
104.062	18	C8H8+
105.0444	13	C6H5N2+
105.0697	24	C8H9+
107.0491	54	C7H7O+
107.0857	11	C8H11+
115.0544	63	C9H7+
116.0617	16	C9H8+
117.0699	65	C9H9+
119.0605	12	C7H7N2+
119.0858	19	C9H11+
121.0649	999	C8H9O+
128.0619	16	C10H8+
129.0696	37	C10H9+
132.0571	81	C9H8O+
135.0807	32	C9H11O+
141.0701	18	C11H9+
144.0572	34	C10H8O+
145.0649	20	C10H9O+
146.0731	11	C10H10O+
147.0805	200	C10H11O+
155.0598	14	C10H7N2+
158.0725	88	C11H10O+
159.0806	53	C11H11O+
173.0958	40	C12H13O+
