Mass spectrum: Bisphenol A; LC-ESI-ITFT; MS2; CE: 35%; R=15000; [M+H]+
Name: Bisphenol A
Name: 4-[1-(4-hydroxyphenyl)-1-methyl-ethyl]phenol
Formula: C15H16O2
Exact mass: 228.1150
SMILES: CC(C)(C1=CC=C(O)C=C1)C2=CC=C(O)C=C2
InChI: InChI=1S/C15H16O2/c1-15(2,11-3-7-13(16)8-4-11)12-5-9-14(17)10-6-12/h3-10,16-17H,1-2H3
Instrument: LTQ Orbitrap XL Thermo Scientific
Instrument type: LC-ESI-ITFT
Ms type: MS2
Ion mode: POSITIVE
Ionization: ESI
Fragmentation mode: CID
Collision energy: 35 % (nominal)
Resolution: 15000
Column name: XBridge C18 3.5um, 2.1x50mm, Waters
Retention time: 14.0 min
Base peak: 132.958
Precursor m/z: 229.1223
Precursor type: [M+H]+
m/z	relative intensity	assigned
95.0852	481	C7H11+
109.1011	489	C8H13+
147.1165	510	C11H15+
159.1167	999	C12H15+
169.0859	686	C9H13O3+
