Mass spectrum: Tetraconazole; LC-ESI-QFT; MS2; CE: 150; R=35000; [M+H]+
Name: Tetraconazole
Name: 1-[2-(2,4-dichlorophenyl)-3-(1,1,2,2-tetrafluoroethoxy)propyl]-1,2,4-triazole
Formula: C13H11Cl2F4N3O
Exact mass: 371.02153
SMILES: C1=CC(=C(C=C1Cl)Cl)C(CN2C=NC=N2)COC(C(F)F)(F)F
InChI: InChI=1S/C13H11Cl2F4N3O/c14-9-1-2-10(11(15)3-9)8(4-22-7-20-6-21-22)5-23-13(18,19)12(16)17/h1-3,6-8,12H,4-5H2
Instrument: Q Exactive Plus Orbitrap Thermo Scientific
Instrument type: LC-ESI-QFT
Ms type: MS2
Ion mode: POSITIVE
Ionization: ESI
Fragmentation mode: HCD
Collision energy: 150 (nominal)
Resolution: 35000
Column name: XBridge C18 3.5um, 2.1x50mm, Waters
Retention time: 11.8 min
Base peak: 372.0281
Precursor m/z: 372.0288
Precursor type: [M+H]+
m/z	relative intensity	assigned
51.0041	36	CHF2+
53.0022	3	C3HO+
57.0135	2	C3H2F+
61.0073	8	C5H+
62.0151	63	C5H2+
63.0229	191	C5H3+
64.0307	5	C5H4+
65.0386	13	C5H5+
66.9746	2	CHClF+
70.04	281	C2H4N3+
72.9839	431	C3H2Cl+
74.0151	3	C6H2+
74.9996	11	C3H4Cl+
75.0229	7	C6H3+
76.0307	1	C6H4+
79.0178	3	C5H3O+
81.0135	2	C5H2F+
82.945	35	CHCl2+
83.0291	2	C5H4F+
86.0151	4	C7H2+
87.023	23	C7H3+
88.0308	60	C7H4+
89.0386	999	C2H4FN3+
90.0464	4	C7H6+
90.9746	2	C3HClF+
95.0491	1	C6H7O+
96.984	131	C5H2Cl+
98.9996	203	C5H4Cl+
102.0464	3	C8H6+
106.945	12	C3HCl2+
107.0292	16	C7H4F+
108.9606	3	C3H3Cl2+
113.0386	16	C9H5+
114.0464	7	C9H6+
115.0543	185	C9H7+
116.9902	1	C5H3ClF+
118.0413	2	C8H6O+
120.0206	13	C4H7ClNO+
122.9996	270	C7H4Cl+
124.0075	59	C7H5Cl+
132.057	5	C9H8O+
132.9607	79	C5H3Cl2+
133.0448	13	C9H6F+
149.0152	6	C9H6Cl+
158.9763	35	C2H4Cl2FN3+
