Mass spectrum: Tricyclazole; LC-ESI-QFT; MS2; CE: 90%; R=17500; [M+H]+
Name: Tricyclazole
Name: 8-methyl-[1,2,4]triazolo[3,4-b][1,3]benzothiazole
Formula: C9H7N3S
Exact mass: 189.0361
SMILES: CC1=C2C(=CC=C1)SC3=NN=CN23
InChI: InChI=1S/C9H7N3S/c1-6-3-2-4-7-8(6)12-5-10-11-9(12)13-7/h2-5H,1H3
Instrument: Exploris 240 Orbitrap Thermo Scientific
Instrument type: LC-ESI-QFT
Ms type: MS2
Ion mode: POSITIVE
Ionization: ESI
Fragmentation mode: HCD
Collision energy: 90 % (nominal)
Resolution: 17500
Column name: XBridge C18 3.5um, 2.1x50mm, Waters
Retention time: 4.550 min
Base peak: 190.0431
Precursor m/z: 190.0433
Precursor type: [M+H]+
m/z	relative intensity	assigned
44.9792	17	CHS+
68.9795	17	C3HS+
77.0385	12	C6H5+
92.0495	110	C6H6N+
103.0414	11	C7H5N+
109.0106	243	C6H5S+
119.06	36	C7H7N2+
130.0398	11	C7H4N3+
136.0215	999	C7H6NS+
163.0324	717	C8H7N2S+
190.0433	201	C9H8N3S+
