Mass spectrum: Sulfamethoxazole; LC-ESI-ITFT; MS2; CE: 45%; R=15000; [M+H]+
Name: Sulfamethoxazole
Name: 4-Amino-N-(5-methyl-3-isoxazolyl)benzenesulfonamide
Name: 4-amino-N-(5-methyl-1,2-oxazol-3-yl)benzenesulfonamide
Formula: C10H11N3O3S
Exact mass: 253.0521
SMILES: c1(S(Nc2cc(C)on2)(=O)=O)ccc(N)cc1
InChI: InChI=1S/C10H11N3O3S/c1-7-6-10(12-16-7)13-17(14,15)9-4-2-8(11)3-5-9/h2-6H,11H2,1H3,(H,12,13)
Instrument: LTQ Orbitrap XL Thermo Scientific
Instrument type: LC-ESI-ITFT
Ms type: MS2
Ion mode: POSITIVE
Ionization: ESI
Fragmentation mode: HCD
Collision energy: 45 % (nominal)
Resolution: 15000
Column name: XBridge C18 3.5um, 2.1x50mm, Waters
Retention time: 4.6 min
Base peak: 254.0603
Precursor m/z: 254.0594
Precursor type: [M+H]+
m/z	relative intensity	assigned
65.0386	85	C5H5+
68.0495	77	C4H6N+
78.0341	8	C5H4N+
79.0179	10	C5H3O+
80.0496	14	C5H6N+
92.0495	493	C6H6N+
93.0573	242	C6H7N+
94.0651	15	C6H8N+
96.0443	21	C5H6NO+
99.0553	251	C4H7N2O+
107.0604	27	C6H7N2+
108.0444	972	C6H6NO+
110.0599	12	C6H8NO+
120.0554	9	C6H6N3+
131.0605	5	C8H7N2+
132.0679	4	C8H8N2+
146.0713	39	C8H8N3+
147.079	145	C8H9N3+
148.0868	27	C8H10N3+
156.0114	999	C6H6NO2S+
160.0869	236	C9H10N3+
161.0016	13	C4H5N2O3S+
173.0579	5	C9H7N3O+
176.0276	9	C8H6N3S+
188.0817	41	C10H10N3O+
190.0973	14	C10H12N3O+
194.0381	14	C8H8N3OS+
254.0581	40	C10H12N3O3S+
