Mass spectrum: Oryzalin; LC-ESI-QFT; MS2; CE: 45; R=35000; [M-H]-
Name: Oryzalin
Name: 4-(dipropylamino)-3,5-dinitro-benzenesulfonamide
Formula: C12H18N4O6S
Exact mass: 346.09471
SMILES: [O-][N+](=O)c1cc(cc([N+]([O-])=O)c1N(CCC)CCC)S(=O)(=O)N
InChI: InChI=1S/C12H18N4O6S/c1-3-5-14(6-4-2)12-10(15(17)18)7-9(23(13,21)22)8-11(12)16(19)20/h7-8H,3-6H2,1-2H3,(H2,13,21,22)
Instrument: Q Exactive Orbitrap Thermo Scientific
Instrument type: LC-ESI-QFT
Ms type: MS2
Ion mode: NEGATIVE
Ionization: ESI
Fragmentation mode: HCD
Collision energy: 45 (nominal)
Resolution: 35000
Column name: XBridge C18 3.5um, 2.1x50mm, Waters
Retention time: 12.1 min
Base peak: 345.0875
Precursor m/z: 345.0874
Precursor type: [M-H]-
m/z	relative intensity	assigned
57.9935	3	CNO2-
61.9706	106	NOS-
63.9624	53	O2S-
64.0067	7	C3N2-
64.0193	19	C4H2N-
65.0145	129	C3HN2-
65.9985	131	C3NO-
67.0302	5	C3H3N2-
68.0142	20	C3H2NO-
73.0295	16	C3H5O2-
74.0036	3	C5N-
77.0145	29	C4HN2-
77.9655	999	NO2S-
78.9733	64	HNO2S-
79.9812	286	H2NO2S-
88.0192	4	C6H2N-
89.0145	88	C5HN2-
89.9984	5	C5NO-
90.0097	6	C4N3-
90.0224	6	C5H2N2-
91.0302	79	C5H3N2-
92.0142	26	C5H2NO-
93.0094	53	C4HN2O-
93.0457	6	C5H5N2-
94.0299	14	C5H4NO-
95.0137	4	C5H3O2-
95.0252	16	C4H3N2O-
96.0091	42	C4H2NO2-
96.0456	5	C5H6NO-
97.0406	16	C4H5N2O-
102.0099	36	C5N3-
102.0225	3	C6H2N2-
103.0302	4	C6H3N2-
104.038	3	C6H4N2-
105.0093	6	C5HN2O-
105.022	21	C6H3NO-
105.0457	8	C6H5N2-
106.0173	69	C5H2N2O-
106.0412	3	C5H4N3-
107.0251	95	C5H3N2O-
108.0329	43	C5H4N2O-
108.0455	5	C6H6NO-
109.017	6	C5H3NO2-
109.0407	13	C5H5N2O-
115.0303	6	C7H3N2-
116.0255	291	C6H2N3-
117.0095	15	C6HN2O-
117.0457	4	C7H5N2-
118.0413	90	C6H4N3-
119.0251	128	C6H3N2O-
120.0203	5	C5H2N3O-
120.0328	6	C6H4N2O-
120.0568	73	C6H6N3-
121.0285	5	C5H3N3O-
121.0408	77	C6H5N2O-
122.025	25	C6H4NO2-
122.0486	25	C6H6N2O-
123.0201	19	C5H3N2O2-
124.0278	30	C5H4N2O2-
129.0333	71	C7H3N3-
130.0173	4	C7H2N2O-
130.0279	4	C6H2N4-
130.0411	21	C7H4N3-
131.0489	61	C7H5N3-
131.0614	18	C8H7N2-
132.033	46	C7H4N2O-
132.0567	22	C7H6N3-
133.0283	66	C6H3N3O-
133.0407	33	C7H5N2O-
133.077	5	C8H9N2-
134.036	98	C6H4N3O-
134.0486	14	C7H6N2O-
134.0612	15	C8H8NO-
135.0202	47	C6H3N2O2-
135.0439	31	C6H5N3O-
135.0566	13	C7H7N2O-
136.0516	71	C6H6N3O-
136.0641	5	C7H8N2O-
137.0356	26	C6H5N2O2-
142.0409	3	C8H4N3-
143.0614	7	C9H7N2-
144.0202	16	C7H2N3O-
144.0568	22	C8H6N3-
144.0693	32	C9H8N2-
145.0281	55	C7H3N3O-
145.0407	14	C8H5N2O-
145.0644	4	C8H7N3-
145.0772	6	C9H9N2-
146.036	87	C7H4N3O-
146.0485	6	C8H6N2O-
146.0598	6	C7H6N4-
146.0722	27	C8H8N3-
147.0201	19	C7H3N2O2-
147.0438	301	C7H5N3O-
147.0562	52	C8H7N2O-
148.0151	7	C6H2N3O2-
148.0279	46	C7H4N2O2-
148.0516	19	C7H6N3O-
149.0355	53	C7H5N2O2-
149.0719	15	C8H9N2O-
150.0309	91	C6H4N3O2-
151.0386	30	C6H5N3O2-
152.0227	50	C6H4N2O3-
156.0567	22	C9H6N3-
157.0516	19	C8H5N4-
157.0645	54	C9H7N3-
158.0361	21	C8H4N3O-
158.0483	4	C9H6N2O-
158.0723	36	C9H8N3-
159.0311	3	C7H3N4O-
159.0438	7	C8H5N3O-
159.0567	31	C9H7N2O-
159.0801	6	C9H9N3-
160.0389	6	C7H4N4O-
160.0517	62	C8H6N3O-
160.0642	36	C9H8N2O-
161.0592	7	C8H7N3O-
161.072	132	C9H9N2O-
162.031	68	C7H4N3O2-
163.0149	16	C7H3N2O3-
163.0261	41	C6H3N4O2-
163.0386	8	C7H5N3O2-
163.0511	7	C8H7N2O2-
163.0878	6	C9H11N2O-
164.0102	7	C6H2N3O3-
164.0227	8	C7H4N2O3-
165.0417	6	C6H5N4O2-
165.9844	4	C6H2N2O2S-
171.0677	21	C9H7N4-
172.0517	21	C9H6N3O-
172.0748	5	C9H8N4-
173.0594	45	C9H7N3O-
174.0672	315	C9H8N3O-
175.0511	43	C9H7N2O2-
175.0749	24	C9H9N3O-
176.034	15	C7H4N4O2-
176.0466	15	C8H6N3O2-
176.059	7	C9H8N2O2-
176.0829	30	C9H10N3O-
177.0416	19	C7H5N4O2-
177.0669	10	C9H9N2O2-
178.026	3	C7H4N3O3-
180.0289	66	C6H4N4O3-
182.0209	109	C6H4N3O4-
186.0105	44	C6H6N2O3S-
186.0547	20	C9H6N4O-
187.0625	5	C9H7N4O-
187.1242	17	C12H15N2-
188.0465	3	C9H6N3O2-
189.0541	5	C9H7N3O2-
190.0622	20	C9H8N3O2-
191.0213	56	C7H3N4O3-
191.07	50	C9H9N3O2-
192.029	77	C7H4N4O3-
192.995	22	C7H3N3O2S-
194.0029	29	C7H4N3O2S-
194.9871	16	C7H3N2O3S-
196.0185	4	C7H6N3O2S-
197.0025	8	C7H5N2O3S-
198.9823	3	C6H3N2O4S-
199.0182	19	C7H7N2O3S-
200.9977	7	C6H5N2O4S-
202.0497	8	C9H6N4O2-
203.0575	108	C9H7N4O2-
204.0652	36	C9H8N4O2-
204.0777	4	C10H10N3O2-
205.0367	10	C8H5N4O3-
207.0104	4	C8H5N3O2S-
208.0312	6	C9H8N2O2S-
211.0057	46	C7H5N3O3S-
212.0136	64	C7H6N3O3S-
212.9975	22	C7H5N2O4S-
220.0183	8	C9H6N3O2S-
220.0604	5	C9H8N4O3-
221.068	51	C9H9N4O3-
221.9976	4	C8H4N3O3S-
222.0344	36	C9H8N3O2S-
222.0882	8	C10H12N3O3-
223.0421	48	C9H9N3O2S-
224.0136	23	C8H6N3O3S-
224.0498	22	C9H10N3O2S-
225.0092	6	C9H7NO4S-
225.0214	14	C8H7N3O3S-
225.0331	4	C9H9N2O3S-
225.9923	5	C7H4N3O4S-
226.9881	92	C6H3N4O4S-
227.0008	55	C7H5N3O4S-
228.0086	94	C7H6N3O4S-
228.0573	19	C9H12N2O3S-
234.1244	50	C12H16N3O2-
238.0296	26	C9H8N3O3S-
238.0696	3	C9H10N4O4-
239.0373	8	C9H9N3O3S-
240.0079	8	C8H6N3O4S-
240.0452	43	C9H10N3O3S-
241.0038	172	C7H5N4O4S-
244.0034	71	C7H6N3O5S-
251.025	14	C9H7N4O3S-
255.9905	18	C7H4N4O5S-
256.0398	31	C9H10N3O4S-
258.0554	31	C9H12N3O4S-
267.0196	20	C9H7N4O4S-
268.0274	64	C9H8N4O4S-
269.0349	18	C9H9N4O4S-
272.0347	23	C9H10N3O5S-
272.9937	52	C7H5N4O6S-
281.0351	19	C10H9N4O4S-
281.1255	173	C12H17N4O4-
282.1106	4	C12H16N3O5-
283.0505	18	C10H11N4O4S-
285.0292	6	C9H9N4O5S-
286.0509	6	C10H12N3O5S-
299.046	73	C10H11N4O5S-
309.0667	3	C12H13N4O4S-
345.0876	161	C12H17N4O6S-
