Mass spectrum: Diazoxon; LC-ESI-ITFT; MS2; CE: 75%; R=7500; [M+H]+
Name: Diazoxon
Name: diethyl (6-methyl-2-propan-2-yl-pyrimidin-4-yl) phosphate
Formula: C12H21N2O4P
Exact mass: 288.1239
SMILES: O(c1nc(nc(c1)C)C(C)C)P(OCC)(OCC)=O
InChI: InChI=1S/C12H21N2O4P/c1-6-16-19(15,17-7-2)18-11-8-10(5)13-12(14-11)9(3)4/h8-9H,6-7H2,1-5H3
Instrument: LTQ Orbitrap XL Thermo Scientific
Instrument type: LC-ESI-ITFT
Ms type: MS2
Ion mode: POSITIVE
Ionization: ESI
Fragmentation mode: HCD
Collision energy: 75 % (nominal)
Resolution: 7500
Column name: XBridge C18 3.5um, 2.1x50mm, Waters
Retention time: 9.5 min
Base peak: 289.1316
Precursor m/z: 289.1312
Precursor type: [M+H]+
m/z	relative intensity	assigned
52.0182	5	C3H2N+
66.0339	39	C4H4N+
70.0652	44	C4H8N+
80.9737	15	H2O3P+
84.0444	500	C4H6NO+
90.9944	6	C2H4O2P+
93.0448	43	C5H5N2+
98.9842	41	H4O4P+
108.0804	1	C7H10N+
109.005	40	C2H6O3P+
112.0758	2	C6H10NO+
135.0918	23	C8H11N2+
137.0703	1	C7H9N2O+
138.0791	6	C7H10N2O+
153.1022	999	C8H13N2O+
233.068	3	C12H11NO4+
