Mass spectrum: Phosphamidon; LC-ESI-QFT; MS2; CE: 45%; R=17500; [M+H]+
Name: Phosphamidon
Name: 2-Chloro-3-(diethylamino)-1-methyl-3-oxo-1-propenyl dimethyl phosphate
Name: [3-chloro-4-(diethylamino)-4-oxobut-2-en-2-yl] dimethyl phosphate
Formula: C10H19ClNO5P
Exact mass: 299.0689
SMILES: CCN(CC)C(=O)C(=C(C)OP(=O)(OC)OC)Cl
InChI: InChI=1S/C10H19ClNO5P/c1-6-12(7-2)10(13)9(11)8(3)17-18(14,15-4)16-5/h6-7H2,1-5H3
Instrument: Exploris 240 Orbitrap Thermo Scientific
Instrument type: LC-ESI-QFT
Ms type: MS2
Ion mode: POSITIVE
Ionization: ESI
Fragmentation mode: HCD
Collision energy: 45 % (nominal)
Resolution: 17500
Column name: XBridge C18 3.5um, 2.1x50mm, Waters
Retention time: 5.169 min
Base peak: 300.076
Precursor m/z: 300.0762
Precursor type: [M+H]+
m/z	relative intensity	assigned
67.0542	14	C5H7+
72.0444	258	C3H6NO+
72.0808	55	C4H10N+
72.984	6	C3H2Cl+
74.0964	42	C4H12N+
74.9996	21	C3H4Cl+
75.9948	22	C2H3ClN+
82.0652	11	C5H8N+
100.0757	467	C5H10NO+
100.9789	22	C4H2ClO+
101.0155	13	CH9ClNP+
102.9945	72	C4H4ClO+
103.031	9	C5H8Cl+
104.0263	43	C4H7ClN+
110.06	83	C6H8NO+
118.0053	23	C4H5ClNO+
127.0155	999	C2H8O4P+
132.0574	136	C6H11ClN+
138.0917	37	C8H12NO+
146.0369	44	C6H9ClNO+
174.0681	183	C8H13ClNO+
226.9874	29	C6H9ClO5P+
