Mass spectrum: Monuron; LC-ESI-ITFT; MS2; CE: 90%; R=30000; [M+H]+
Name: Monuron
Name: 3-(4-chlorophenyl)-1,1-dimethyl-urea
Formula: C9H11ClN2O
Exact mass: 198.0554
SMILES: C(N(C)C)(Nc1ccc(Cl)cc1)=O
InChI: InChI=1S/C9H11ClN2O/c1-12(2)9(13)11-8-5-3-7(10)4-6-8/h3-6H,1-2H3,(H,11,13)
Instrument: LTQ Orbitrap XL Thermo Scientific
Instrument type: LC-ESI-ITFT
Ms type: MS2
Ion mode: POSITIVE
Ionization: ESI
Fragmentation mode: HCD
Collision energy: 90 % (nominal)
Resolution: 30000
Column name: XBridge C18 3.5um, 2.1x50mm, Waters
Retention time: 6.7 min
Base peak: 199.0635
Precursor m/z: 199.0633
Precursor type: [M+H]+
m/z	relative intensity	assigned
56.013	3	C2H2NO+
72.0444	999	C3H6NO+
90.0338	5	C6H4N+
98.9996	53	C5H4Cl+
110.9993	3	C6H4Cl+
126.0105	200	C6H5ClN+
139.0057	25	C6H4ClN2+
154.0054	4	C7H5ClNO+
