Mass spectrum: Oseltamivir carboxylate; LC-ESI-ITFT; MS2; CE: 90%; R=7500; [M+H]+
Name: Oseltamivir carboxylate
Name: (3R,4R,5S)-4-acetamido-5-amino-3-pentan-3-yloxycyclohexene-1-carboxylic acid
Formula: C14H24N2O4
Exact mass: 284.1736
SMILES: CCC(CC)O[C@@H]1C=C(C[C@@H]([C@H]1NC(=O)C)N)C(=O)O
InChI: InChI=1S/C14H24N2O4/c1-4-10(5-2)20-12-7-9(14(18)19)6-11(15)13(12)16-8(3)17/h7,10-13H,4-6,15H2,1-3H3,(H,16,17)(H,18,19)/t11-,12+,13+/m0/s1
Instrument: LTQ Orbitrap XL Thermo Scientific
Instrument type: LC-ESI-ITFT
Ms type: MS2
Ion mode: POSITIVE
Ionization: ESI
Fragmentation mode: HCD
Collision energy: 90 % (nominal)
Resolution: 7500
Column name: XBridge C18 3.5um, 2.1x50mm, Waters
Retention time: 5.1 min
Base peak: 285.1822
Precursor m/z: 285.1809
Precursor type: [M+H]+
m/z	relative intensity	assigned
53.0385	16	C4H5+
60.0445	24	C2H6NO+
65.0386	277	C5H5+
67.0543	241	C5H7+
68.0495	28	C4H6N+
77.0386	198	C6H5+
80.0495	85	C5H6N+
81.0576	7	C5H7N+
82.0652	88	C5H8N+
83.0492	22	C5H7O+
92.0495	357	C6H6N+
93.0336	251	C6H5O+
93.0573	118	C6H7N+
94.0652	999	C6H8N+
95.0491	49	C6H7O+
105.0448	72	C6H5N2+
108.0444	16	C6H6NO+
109.0523	21	C6H7NO+
109.076	89	C6H9N2+
110.0601	188	C6H8NO+
111.0436	7	C6H7O2+
119.0605	63	C7H7N2+
120.0445	630	C7H6NO+
137.071	84	C7H9N2O+
138.055	212	C7H8NO2+
