Mass spectrum: Allopurinol; LC-ESI-QFT; MS2; CE: 75; R=35000; [M+H]+
Name: Allopurinol
Name: 1,2-dihydropyrazolo[3,4-d]pyrimidin-4-one
Formula: C5H4N4O
Exact mass: 136.03851
SMILES: C1=NNC2=C1C(=NC=N2)O
InChI: InChI=1S/C5H4N4O/c10-5-3-1-8-9-4(3)6-2-7-5/h1-2H,(H2,6,7,8,9,10)
Instrument: Q Exactive Orbitrap Thermo Scientific
Instrument type: LC-ESI-QFT
Ms type: MS2
Ion mode: POSITIVE
Ionization: ESI
Fragmentation mode: HCD
Collision energy: 75 (nominal)
Resolution: 35000
Column name: XBridge C18 3.5um, 2.1x50mm, Waters
Retention time: 1.2 min
Base peak: 137.0458
Precursor m/z: 137.0458
Precursor type: [M+H]+
m/z	relative intensity	assigned
54.0339	73	C3H4N+
64.0182	8	C4H2N+
66.0339	1	C4H4N+
67.0291	9	C3H3N2+
68.0131	4	C3H2NO+
81.0447	57	C4H5N2+
82.0287	17	C4H4NO+
82.04	5	C3H4N3+
93.0084	1	C4HN2O+
94.04	244	C4H4N3+
95.0238	1	C4H3N2O+
109.0397	53	C5H5N2O+
109.0509	9	C4H5N4+
110.0349	837	C4H4N3O+
119.0352	27	C5H3N4+
120.0192	158	C5H2N3O+
137.0458	999	C5H5N4O+
