Mass spectrum: Thiamethoxam; LC-ESI-ITFT; MS2; CE: 35%; R=7500; [M+H]+
Name: Thiamethoxam
Name: 3-((2-Chloro-5-thiazolyl)methyl)tetrahydro-5-methyl-N-nitro-4H-1,3,5-oxadiazin-4-imine
Formula: C8H10ClN5O3S
Exact mass: 291.0193
SMILES: Clc1ncc(s1)CN2\C(=N\[N+]([O-])=O)N(C)COC2
InChI: InChI=1S/C8H10ClN5O3S/c1-12-4-17-5-13(8(12)11-14(15)16)3-6-2-10-7(9)18-6/h2H,3-5H2,1H3/b11-8+
Instrument: LTQ Orbitrap XL Thermo Scientific
Instrument type: LC-ESI-ITFT
Ms type: MS2
Ion mode: POSITIVE
Ionization: ESI
Fragmentation mode: CID
Collision energy: 35 % (nominal)
Resolution: 7500
Column name: XBridge C18 3.5um, 2.1x50mm, Waters
Retention time: 4.1 min
Base peak: 292.0274
Precursor m/z: 292.0266
Precursor type: [M+H]+
m/z	relative intensity	assigned
131.9668	17	C4H3ClNS+
160.9942	1	C5H6ClN2S+
174.9729	2	C5H4ClN2OS+
179.0383	1	C7H7N4S+
180.0464	5	C7H8N4S+
181.0539	2	C7H9N4S+
182.0616	1	C7H10N4S+
210.0571	305	C8H10N4OS+
211.0647	999	C8H11N4OS+
227.0595	3	C8H11N4O2S+
245.0257	44	C8H10ClN4OS+
246.0337	117	C8H11ClN4OS+
248.0254	36	C8H11ClN3O2S+
262.0288	5	C8H11ClN4O2S+
