Mass spectrum: Cycloxydim-TP BH 517-TSO E/Z-isomer; LC-ESI-QFT; MS2; CE: 180%; R=17500; [M+H]+
Name: Cycloxydim-TP BH 517-TSO E/Z-isomer
Name: Cycloxydim sulfoxide
Formula: C17H27NO4S
Exact mass: 341.1661
SMILES: CCC\C(=N/OCC)C1=C(O)CC(CC1=O)C1CCCS(=O)C1
InChI: InChI=1S/C17H27NO4S/c1-3-6-14(18-22-4-2)17-15(19)9-13(10-16(17)20)12-7-5-8-23(21)11-12/h12-13,19H,3-11H2,1-2H3/b18-14+
Instrument: Q Exactive Plus Orbitrap Thermo Scientific
Instrument type: LC-ESI-QFT
Ms type: MS2
Ion mode: POSITIVE
Ionization: ESI
Fragmentation mode: HCD
Collision energy: 180 % (nominal)
Resolution: 17500
Column name: XBridge C18 3.5um, 2.1x50mm, Waters
Retention time: 7.731 min
Base peak: 342.1734
Precursor m/z: 342.1734
Precursor type: [M+H]+
m/z	relative intensity	assigned
50.0151	185	C4H2+
51.023	867	C4H3+
53.0022	228	C3HO+
53.0386	491	C4H5+
54.0338	154	C3H4N+
55.0179	103	C3H3O+
55.0541	32	C4H7+
56.0495	33	C3H6N+
57.9871	43	C2H2S+
58.995	281	C2H3S+
62.0152	25	C5H2+
62.99	117	CH3OS+
63.0229	250	C5H3+
65.0386	999	C5H5+
66.0464	228	C5H6+
67.0417	124	C4H5N+
67.0543	97	C5H7+
68.0131	76	C3H2NO+
68.0495	37	C4H6N+
68.997	63	C3HO2+
75.0228	58	C6H3+
77.0386	387	C6H5+
78.0464	206	C6H6+
79.0542	226	C6H7+
80.0494	189	C5H6N+
81.0334	58	C5H5O+
82.0648	22	C5H8N+
85.0109	24	C4H5S+
87.0266	35	C4H7S+
89.0386	279	C7H5+
90.0465	29	C7H6+
91.0543	516	C7H7+
93.0572	70	C6H7N+
94.0414	53	C6H6O+
94.065	46	C6H8N+
95.0492	841	C6H7O+
102.0463	84	C8H6+
103.0544	167	C8H7+
104.0493	34	C7H6N+
105.0447	384	H11NO3S+
106.065	59	C7H8N+
115.0543	438	C9H7+
117.0573	56	C8H7N+
128.0621	169	C10H8+
130.0654	45	C9H8N+
131.0487	39	C9H7O+
