Mass spectrum: Spirotetramat BYI08330-monohydroxy; LC-ESI-QFT; MS2; CE: 15%; R=17500; [M+H]+
Name: Spirotetramat BYI08330-monohydroxy
Name: 1-Azaspiro(4.5)decan-2-one, 3-(2,5-dimethylphenyl)-4-hydroxy-8-methoxy-
Name: 3-(2,5-dimethylphenyl)-4-hydroxy-8-methoxy-1-azaspiro[4.5]decan-2-one
Formula: C18H25NO3
Exact mass: 303.1834
SMILES: CC1=CC(=C(C=C1)C)C2C(C3(CCC(CC3)OC)NC2=O)O
InChI: InChI=1S/C18H25NO3/c1-11-4-5-12(2)14(10-11)15-16(20)18(19-17(15)21)8-6-13(22-3)7-9-18/h4-5,10,13,15-16,20H,6-9H2,1-3H3,(H,19,21)
Instrument: Exploris 240 Orbitrap Thermo Scientific
Instrument type: LC-ESI-QFT
Ms type: MS2
Ion mode: POSITIVE
Ionization: ESI
Fragmentation mode: HCD
Collision energy: 15 % (nominal)
Resolution: 17500
Column name: XBridge C18 3.5um, 2.1x50mm, Waters
Retention time: 5.434 min
Base peak: 304.1905
Precursor m/z: 304.1907
Precursor type: [M+H]+
m/z	relative intensity	assigned
211.1479	5	C16H19+
254.1535	5	C17H20NO+
286.1802	6	C18H24NO2+
304.1906	999	C18H26NO3+
