Mass spectrum: Azoxystrobin (free acid); LC-ESI-ITFT; MS2; CE: 30%; R=15000; [M+H]+
Name: Azoxystrobin (free acid)
Formula: C21H15N3O5
Exact mass: 389.1012
SMILES: O=C(O)/C(=C\OC)c3ccccc3Oc2cc(Oc1ccccc1C#N)ncn2
InChI: InChI=1S/C21H15N3O5/c1-27-12-16(21(25)26)15-7-3-5-9-18(15)29-20-10-19(23-13-24-20)28-17-8-4-2-6-14(17)11-22/h2-10,12-13H,1H3,(H,25,26)/b16-12-
Instrument: LTQ Orbitrap XL Thermo Scientific
Instrument type: LC-ESI-ITFT
Ms type: MS2
Ion mode: POSITIVE
Ionization: ESI
Fragmentation mode: HCD
Collision energy: 30 % (nominal)
Resolution: 15000
Column name: XBridge C18 3.5um, 2.1x50mm, Waters
Retention time: 8.8 min
Base peak: 390.1088
Precursor m/z: 390.1084
Precursor type: [M+H]+
m/z	relative intensity	assigned
134.06	4	C8H8NO+
143.0604	2	C9H7N2+
145.0282	1	C9H5O2+
171.0556	1	C10H7N2O+
172.0394	10	C10H6NO2+
177.0548	2	C10H9O3+
201.0659	5	C11H9N2O2+
210.0661	4	C12H8N3O+
216.0656	4	C12H10NO3+
287.0814	5	C18H11N2O2+
289.0971	2	C18H13N2O2+
303.0766	8	C18H11N2O3+
313.0593	1	C19H9N2O3+
314.0922	5	C19H12N3O2+
315.0761	1	C19H11N2O3+
315.1003	3	C19H13N3O2+
316.1081	36	C19H14N3O2+
317.0922	4	C19H13N2O3+
329.0794	25	C21H13O4+
340.0714	2	C20H10N3O3+
344.103	353	C20H14N3O3+
345.0871	1	C20H13N2O4+
346.1187	20	C20H16N3O3+
372.0979	999	C21H14N3O4+
