Mass spectrum: Omethoate; LC-ESI-QFT; MS2; CE: 45%; R=17500; [M+H]+
Name: Omethoate
Name: 2-dimethoxyphosphorylsulfanyl-N-methylacetamide
Formula: C5H12NO4PS
Exact mass: 213.0225
SMILES: CNC(=O)CSP(=O)(OC)OC
InChI: InChI=1S/C5H12NO4PS/c1-6-5(7)4-12-11(8,9-2)10-3/h4H2,1-3H3,(H,6,7)
Instrument: Exploris 240 Orbitrap Thermo Scientific
Instrument type: LC-ESI-QFT
Ms type: MS2
Ion mode: POSITIVE
Ionization: ESI
Fragmentation mode: HCD
Collision energy: 45 % (nominal)
Resolution: 17500
Column name: XBridge C18 3.5um, 2.1x50mm, Waters
Retention time: 1.956 min
Base peak: 214.0296
Precursor m/z: 214.0297
Precursor type: [M+H]+
m/z	relative intensity	assigned
61.0106	306	C2H5S+
72.0444	60	C3H6NO+
76.0214	11	C2H6NS+
88.0213	31	C3H6NS+
104.0166	95	C3H6NOS+
109.0049	93	C2H6O3P+
111.0202	11	C2H8O3P+
124.9821	999	C2H6O2PS+
127.0154	158	C2H8O4P+
142.9927	482	C2H8O3PS+
154.9926	964	C3H8O3PS+
182.0032	25	C4H9NO3PS+
182.9876	341	C4H8O4PS+
196.0192	117	C5H11NO3PS+
214.0298	17	C5H13NO4PS+
