Mass spectrum: DDAO; LC-ESI-ITFT; MS2; CE: 35%; R=7500; [M+H]+
Name: DDAO
Name: N,N-dimethyl-1-decanamine oxide
Name: NN-Dimethyldicylamine N-oxide
Formula: C12H27NO
Exact mass: 201.2093
SMILES: N(C)(CCCCCCCCCC)(C)=O
InChI: InChI=1S/C12H27NO/c1-4-5-6-7-8-9-10-11-12-13(2,3)14/h4-12H2,1-3H3
Instrument: LTQ Orbitrap XL Thermo Scientific
Instrument type: LC-ESI-ITFT
Ms type: MS2
Ion mode: POSITIVE
Ionization: ESI
Fragmentation mode: CID
Collision energy: 35 % (nominal)
Resolution: 7500
Column name: XBridge C18 3.5um, 2.1x50mm, Waters
Retention time: 10.4 min
Base peak: 202.2163
Precursor m/z: 202.2165
Precursor type: [M+H]+
m/z	relative intensity	assigned
55.0541	2	C4H7+
57.0698	3	C4H9+
58.065	44	C3H8N+
62.06	48	C2H8NO+
69.0699	5	C5H9+
71.0855	8	C5H11+
72.0808	37	C4H10N+
83.0855	12	C6H11+
85.1011	18	C6H13+
97.1015	10	C7H13+
100.1116	2	C6H14N+
184.2058	999	C12H26N+
185.2137	55	C12H27N+
202.2163	123	C12H28NO+
