Mass spectrum: Pethoxamide; LC-ESI-ITFT; MS2; CE: 75%; R=15000; [M+H]+
Name: Pethoxamide
Name: 2-chloro-N-(2-ethoxyethyl)-N-(2-methyl-1-phenylprop-1-enyl)acetamide
Formula: C16H22ClNO2
Exact mass: 295.1334
SMILES: ClCC(=O)N(CCOCC)\C(=C(\C)C)c1ccccc1
InChI: InChI=1S/C16H22ClNO2/c1-4-20-11-10-18(15(19)12-17)16(13(2)3)14-8-6-5-7-9-14/h5-9H,4,10-12H2,1-3H3
Instrument: LTQ Orbitrap XL Thermo Scientific
Instrument type: LC-ESI-ITFT
Ms type: MS2
Ion mode: POSITIVE
Ionization: ESI
Fragmentation mode: HCD
Collision energy: 75 % (nominal)
Resolution: 15000
Column name: XBridge C18 3.5um, 2.1x50mm, Waters
Retention time: 11.5 min
Base peak: 296.1418
Precursor m/z: 296.1412
Precursor type: [M+H]+
m/z	relative intensity	assigned
65.0384	2	C5H5+
73.0648	5	C4H9O+
77.0385	3	C6H5+
79.0543	3	C6H7+
91.0543	999	C7H7+
103.0542	28	C8H7+
104.0495	17	C7H6N+
105.0699	50	C8H9+
115.0543	47	C9H7+
116.0621	217	C9H8+
119.085	2	C9H11+
120.0211	2	C4H7ClNO+
128.0621	5	C10H8+
129.0699	187	C10H9+
130.0653	3	C9H8N+
131.0856	638	C10H11+
132.0806	3	C9H10N+
143.0605	9	C9H7N2+
145.0885	11	C10H11N+
146.0966	6	C10H12N+
148.1122	6	C10H14N+
155.0605	3	C10H7N2+
158.0966	6	C11H12N+
159.1044	3	C11H13N+
160.1121	67	C11H14N+
172.1123	4	C12H14N+
174.1275	5	C12H16N+
190.1227	5	C12H16NO+
220.1705	3	C14H22NO+
