Mass spectrum: Chlorothalonil-TP R471811; LC-ESI-QFT; MS2; CE: 75%; R=17500; [M-H]-
Name: Chlorothalonil-TP R471811
Name: 2,4-dicarbamoyl-3,5,6-trichlorobenzenesulfonic acid
Formula: C8H5Cl3N2O5S
Exact mass: 345.8985
SMILES: NC(=O)C1=C(Cl)C(C(N)=O)=C(C(Cl)=C1Cl)S(O)(=O)=O
InChI: InChI=1S/C8H5Cl3N2O5S/c9-3-1(7(12)14)4(10)5(11)6(19(16,17)18)2(3)8(13)15/h(H2,12,14)(H2,13,15)(H,16,17,18)
Instrument: Q Exactive Plus Orbitrap Thermo Scientific
Instrument type: LC-ESI-QFT
Ms type: MS2
Ion mode: NEGATIVE
Ionization: ESI
Fragmentation mode: HCD
Collision energy: 75 % (nominal)
Resolution: 17500
Column name: XBridge C18 3.5um, 2.1x50mm, Waters
Retention time: 1.041 min
Base peak: 346.8881
Precursor m/z: 344.8912
Precursor type: [M-H]-
m/z	relative intensity	assigned
65.9986	62	C3NO-
74.0037	46	C5N-
79.9574	230	O3S-
86.0036	67	C6N-
96.9601	340	HO4S-
97.9802	148	C4HClN-
114.9263	373	ClO3S-
121.9803	259	C6HClN-
122.9645	166	C6ClO-
158.9409	633	C6HCl2O-
194.9177	999	C6H2Cl3O-
219.9134	73	C7HCl3NO-
