Mass spectrum: Celiprolol; LC-ESI-QFT; MS2; CE: 45; R=35000; [M-H]-
Name: Celiprolol
Name: 3-[3-acetyl-4-[3-(tert-butylamino)-2-hydroxy-propoxy]phenyl]-1,1-diethyl-urea
Formula: C20H33N3O4
Exact mass: 379.24711
SMILES: CCN(CC)C(=O)NC1=CC(=C(C=C1)OCC(CNC(C)(C)C)O)C(=O)C
InChI: InChI=1S/C20H33N3O4/c1-7-23(8-2)19(26)22-15-9-10-18(17(11-15)14(3)24)27-13-16(25)12-21-20(4,5)6/h9-11,16,21,25H,7-8,12-13H2,1-6H3,(H,22,26)
Instrument: Q Exactive Orbitrap Thermo Scientific
Instrument type: LC-ESI-QFT
Ms type: MS2
Ion mode: NEGATIVE
Ionization: ESI
Fragmentation mode: HCD
Collision energy: 45 (nominal)
Resolution: 35000
Column name: XBridge C18 3.5um, 2.1x50mm, Waters
Retention time: 5.5 min
Base peak: 378.2399
Precursor m/z: 378.2398
Precursor type: [M-H]-
m/z	relative intensity	assigned
106.0299	2	C6H4NO-
134.0248	16	C7H4NO2-
134.0612	8	C8H8NO-
135.0452	1	C8H7O2-
148.0402	3	C8H6NO2-
148.0532	1	C9H8O2-
148.077	1	C9H10NO-
149.0481	31	C8H7NO2-
150.0559	3	C8H8NO2-
160.0401	8	C9H6NO2-
161.0608	59	C10H9O2-
164.0718	2	C9H10NO2-
176.0361	407	C9H6NO3-
176.0712	999	C10H10NO2-
190.0873	329	C11H12NO2-
204.1029	129	C12H14NO2-
219.0774	593	C11H11N2O3-
221.0924	1	C11H13N2O3-
247.1087	13	C13H15N2O3-
248.1165	58	C13H16N2O3-
263.1408	1	C14H19N2O3-
