Mass spectrum: Cefazolin; LC-ESI-QFT; MS2; CE: 150; R=35000; [M+H]+
Name: Cefazolin
Name: 3-[(5-methyl-1,3,4-thiadiazol-2-yl)sulfanylmethyl]-8-oxo-7-[[2-(tetrazol-1-yl)acetyl]amino]-5-thia-1-azabicyclo[4.2.0]oct-2-ene-2-carboxylic acid
Formula: C14H14N8O4S3
Exact mass: 454.03001
SMILES: CC1=NN=C(S1)SCC2=C(N3C(C(C3=O)NC(=O)CN4C=NN=N4)SC2)C(=O)O
InChI: InChI=1S/C14H14N8O4S3/c1-6-17-18-14(29-6)28-4-7-3-27-12-9(11(24)22(12)10(7)13(25)26)16-8(23)2-21-5-15-19-20-21/h5,9,12H,2-4H2,1H3,(H,16,23)(H,25,26)
Instrument: Q Exactive Plus Orbitrap Thermo Scientific
Instrument type: LC-ESI-QFT
Ms type: MS2
Ion mode: POSITIVE
Ionization: ESI
Fragmentation mode: HCD
Collision energy: 150 (nominal)
Resolution: 35000
Column name: XBridge C18 3.5um, 2.1x50mm, Waters
Retention time: 4.5 min
Base peak: 455.0367
Precursor m/z: 455.0373
Precursor type: [M+H]+
m/z	relative intensity	assigned
50.0152	158	C4H2+
51.023	366	C4H3+
52.0183	161	C3H2N+
52.0308	61	C4H4+
53.0023	106	C3HO+
53.0386	863	C4H5+
53.9975	58	C2NO+
54.0339	356	C3H4N+
55.0292	999	C2H3N2+
56.0131	30	C2H2NO+
56.0495	101	C3H6N+
56.9794	216	C2HS+
57.0448	199	C2H5N2+
57.9747	272	CNS+
57.9872	668	C2H2S+
58.9825	141	CHNS+
58.9951	681	C2H3S+
59.9665	157	COS+
59.9903	363	CH2NS+
62.0059	10	CH4NS+
62.0151	18	C5H2+
63.023	140	C5H3+
63.9436	59	S2+
64.0182	94	C4H2N+
64.0308	35	C5H4+
65.0259	39	C4H3N+
65.0386	278	C5H5+
66.0339	690	C4H4N+
66.0464	40	C5H6+
67.0291	145	C3H3N2+
67.0417	199	C4H5N+
68.0369	97	C3H4N2+
68.0495	259	C4H6N+
68.9794	389	C3HS+
69.0448	464	C3H5N2+
69.9747	248	C2NS+
69.9872	78	C3H2S+
70.0287	15	C3H4NO+
70.9825	115	C2HNS+
70.9951	473	C3H3S+
71.9903	174	C2H2NS+
72.0029	79	C3H4S+
72.9981	411	C2H3NS+
73.0106	31	C3H5S+
74.0059	66	C2H4NS+
76.0182	16	C5H2N+
78.0339	365	C5H4N+
79.0291	11	C4H3N2+
79.0417	110	C5H5N+
80.0495	937	C5H6N+
81.0448	301	C4H5N2+
81.9873	40	C4H2S+
82.0526	276	C4H6N2+
82.9951	62	C4H3S+
83.024	51	C3H3N2O+
83.0477	16	C3H5N3+
83.9904	82	C3H2NS+
84.0029	95	C4H4S+
84.0319	187	C3H4N2O+
84.0445	60	C4H6NO+
84.0557	64	C3H6N3+
84.9854	35	C2HN2S+
85.0108	236	C4H5S+
86.006	193	C3H4NS+
90.0339	48	C6H4N+
91.0417	84	C6H5N+
91.9625	14	CH2NS2+
92.037	13	C5H4N2+
92.0495	52	C6H6N+
93.0449	303	C5H5N2+
93.0574	30	C6H7N+
94.9951	89	C5H3S+
95.0368	9	C5H5NO+
95.0605	139	C5H7N2+
95.9903	32	C4H2NS+
96.0445	340	C5H6NO+
96.0556	49	C4H6N3+
97.0108	334	C5H5S+
97.0397	39	C4H5N2O+
97.9935	16	C3H2N2S+
98.006	40	C4H4NS+
99.0012	70	C3H3N2S+
99.0138	108	C4H5NS+
100.009	55	C3H4N2S+
100.0217	8	C4H6NS+
101.0167	28	C3H5N2S+
105.0449	170	C6H5N2+
106.0527	245	C6H6N2+
107.0605	804	C6H7N2+
108.0682	33	C6H8N2+
110.006	123	C5H4NS+
110.0601	14	C6H8NO+
111.0316	12	C5H5NO2+
112.0216	48	C5H6NS+
112.0394	33	C5H6NO2+
117.0447	9	C7H5N2+
118.0528	18	C7H6N2+
119.0605	443	C7H7N2+
122.006	50	C6H4NS+
123.0136	34	C6H5NS+
137.0168	10	C6H5N2S+
