Mass spectrum: Meptazinol; LC-ESI-QFT; MS2; CE: 15; R=35000; [M+H]+
Name: Meptazinol
Name: 3-(3-ethyl-1-methylazepan-3-yl)phenol
Formula: C15H23NO
Exact mass: 233.17796
SMILES: CCC1(CCCCN(C1)C)C2=CC(=CC=C2)O
InChI: InChI=1S/C15H23NO/c1-3-15(9-4-5-10-16(2)12-15)13-7-6-8-14(17)11-13/h6-8,11,17H,3-5,9-10,12H2,1-2H3
Instrument: Q Exactive Orbitrap Thermo Scientific
Instrument type: LC-ESI-QFT
Ms type: MS2
Ion mode: POSITIVE
Ionization: ESI
Fragmentation mode: HCD
Collision energy: 15 (nominal)
Resolution: 35000
Column name: XBridge C18 3.5um, 2.1x50mm, Waters
Retention time: 4.9 min
Base peak: 234.1853
Precursor m/z: 234.1852
Precursor type: [M+H]+
m/z	relative intensity	assigned
107.0488	10	C7H7O+
121.0645	2	C8H9O+
126.1274	1	C8H16N+
133.0647	1	C9H9O+
147.0803	1	C10H11O+
161.0958	1	C11H13O+
234.1851	999	C15H24NO+
