Mass spectrum: Trinexapac; LC-ESI-ITFT; MS2; CE: 30%; R=15000; [M+H]+
Name: Trinexapac
Name: 4-[Cyclopropyl(hydroxy)methylene]-3,5-dioxocyclohexanecarboxylic acid
Formula: C11H12O5
Exact mass: 224.0685
SMILES: C(C1)C1C(O)=C(C(=O)CC2C(=O)O)C(=O)C2
InChI: InChI=1S/C11H12O5/c12-7-3-6(11(15)16)4-8(13)9(7)10(14)5-1-2-5/h5-6,14H,1-4H2,(H,15,16)/b10-9-
Instrument: LTQ Orbitrap XL Thermo Scientific
Instrument type: LC-ESI-ITFT
Ms type: MS2
Ion mode: POSITIVE
Ionization: ESI
Fragmentation mode: HCD
Collision energy: 30 % (nominal)
Resolution: 15000
Column name: XBridge C18 3.5um, 2.1x50mm, Waters
Retention time: 6.9 min
Base peak: 225.0758
Precursor m/z: 225.0757
Precursor type: [M+H]+
m/z	relative intensity	assigned
69.0335	662	C4H5O+
83.0489	1	C5H7O+
85.0284	8	C4H5O2+
93.0697	1	C7H9+
97.0284	3	C5H5O2+
107.0492	5	C7H7O+
111.044	213	C6H7O2+
113.0233	26	C5H5O3+
121.0284	1	C7H5O2+
123.0076	6	C6H3O3+
129.0547	11	C6H9O3+
133.0648	1	C9H9O+
137.0233	11	C7H5O3+
137.0595	2	C8H9O2+
139.039	68	C7H7O3+
141.0181	25	C6H5O4+
151.0754	3	C9H11O2+
155.0338	7	C7H7O4+
157.0495	129	C7H9O4+
159.0288	3	C6H7O5+
161.0593	3	C10H9O2+
165.0182	212	C8H5O4+
179.0703	32	C10H11O3+
183.0288	163	C8H7O5+
189.0552	1	C11H9O3+
197.0806	6	C10H13O4+
201.0393	32	C8H9O6+
207.0652	81	C11H11O4+
225.0758	999	C11H13O5+
