Mass spectrum: Pyribencarb; LC-ESI-QFT; MS2; CE: 60%; R=17500; [M+H]+
Name: Pyribencarb
Name: methyl {2-chloro-5-[(1E)-1-(6-methyl-2-pyridylmethoxyimino)ethyl]benzyl}carbamate
Name: methyl N-[[2-chloro-5-[C-methyl-N-[(6-methylpyridin-2-yl)methoxy]carbonimidoyl]phenyl]methyl]carbamate
Formula: C18H20ClN3O3
Exact mass: 361.1193
SMILES: CC1=NC(=CC=C1)CON=C(C)C2=CC(=C(C=C2)Cl)CNC(=O)OC
InChI: InChI=1S/C18H20ClN3O3/c1-12-5-4-6-16(21-12)11-25-22-13(2)14-7-8-17(19)15(9-14)10-20-18(23)24-3/h4-9H,10-11H2,1-3H3,(H,20,23)
Instrument: Exploris 240 Orbitrap Thermo Scientific
Instrument type: LC-ESI-QFT
Ms type: MS2
Ion mode: POSITIVE
Ionization: ESI
Fragmentation mode: HCD
Collision energy: 60 % (nominal)
Resolution: 17500
Column name: XBridge C18 3.5um, 2.1x50mm, Waters
Retention time: 5.920 min
Base peak: 362.1261
Precursor m/z: 362.1266
Precursor type: [M+H]+
m/z	relative intensity	assigned
58.0288	18	C2H4NO+
77.0385	15	C6H5+
88.0392	100	C3H6NO2+
91.0542	86	C7H7+
92.0492	13	C6H6N+
94.065	16	C6H8N+
106.065	26	C7H8N+
107.073	39	C7H9N+
113.0152	27	C6H6Cl+
117.057	11	C8H7N+
118.0653	38	C8H8N+
122.0599	173	C7H8NO+
122.9996	439	C7H4Cl+
124.0075	21	C7H5Cl+
124.0758	20	C7H10NO+
125.0152	24	C7H6Cl+
128.0494	17	C9H6N+
137.0151	22	C8H6Cl+
141.0102	323	C7H6ClO+
146.06	221	C9H8NO+
148.0757	20	C9H10NO+
152.0259	28	C8H7ClN+
155.0257	59	C8H8ClO+
163.0627	69	C9H9NO2+
164.026	493	C9H7ClN+
166.0055	100	C8H5ClNO+
166.0418	25	C9H9ClN+
168.0213	28	C8H7ClNO+
194.0116	26	C8H5ClN3O+
207.032	999	C10H8ClN2O+
239.0585	139	C11H12ClN2O2+
