Mass spectrum: Lincomycin; LC-ESI-QFT; MS2; CE: 15; R=35000; [M-H]-
Name: Lincomycin
Name: N-[2-hydroxy-1-(3,4,5-trihydroxy-6-methylsulfanyloxan-2-yl)propyl]-1-methyl-4-propylpyrrolidine-2-carboxamide
Formula: C18H34N2O6S
Exact mass: 406.21376
SMILES: CCCC1CC(N(C1)C)C(=O)NC(C2C(C(C(C(O2)SC)O)O)O)C(C)O
InChI: InChI=1S/C18H34N2O6S/c1-5-6-10-7-11(20(3)8-10)17(25)19-12(9(2)21)16-14(23)13(22)15(24)18(26-16)27-4/h9-16,18,21-24H,5-8H2,1-4H3,(H,19,25)
Instrument: Q Exactive Plus Orbitrap Thermo Scientific
Instrument type: LC-ESI-QFT
Ms type: MS2
Ion mode: NEGATIVE
Ionization: ESI
Fragmentation mode: HCD
Collision energy: 15 (nominal)
Resolution: 35000
Column name: XBridge C18 3.5um, 2.1x50mm, Waters
Retention time: 3.7 min
Base peak: 451.2115
Precursor m/z: 405.2065
Precursor type: [M-H]-
m/z	relative intensity	assigned
59.0137	3	C2H3O2-
71.0139	16	C3H3O2-
83.0502	1	C5H7O-
85.0293	1	C4H5O2-
89.0244	9	C3H5O3-
97.0293	1	C5H5O2-
99.0451	1	C5H7O2-
109.0294	3	C6H5O2-
111.0451	3	C6H7O2-
115.04	4	C5H7O3-
117.0015	1	C4H5O2S-
125.0244	1	C6H5O3-
127.04	37	C6H7O3-
129.0554	1	C6H9O3-
151.0401	1	C8H7O3-
169.1342	8	C9H17N2O-
170.1186	10	C9H16NO2-
223.145	1	C12H19N2O2-
237.1611	1	C13H21N2O2-
241.1557	16	C12H21N2O3-
253.1556	6	C13H21N2O3-
259.1453	1	C15H19N2O2-
265.1554	3	C14H21N2O3-
267.1713	23	C14H23N2O3-
277.1555	10	C15H21N2O3-
285.1825	1	C14H25N2O4-
295.1663	2	C15H23N2O4-
297.1817	19	C15H25N2O4-
307.1483	3	C16H23N2O2S-
321.181	1	C17H25N2O4-
325.1589	10	C16H25N2O3S-
339.1913	2	C17H27N2O5-
343.1697	9	C16H27N2O4S-
357.2031	2	C17H29N2O6-
405.2061	999	C18H33N2O6S-
