Mass spectrum: Sulfamethoxazole; LC-ESI-ITFT; MS2; CE: 90%; R=30000; [M+H]+
Name: Sulfamethoxazole
Name: 4-Amino-N-(5-methyl-3-isoxazolyl)benzenesulfonamide
Name: 4-amino-N-(5-methyl-1,2-oxazol-3-yl)benzenesulfonamide
Formula: C10H11N3O3S
Exact mass: 253.0521
SMILES: c1(S(Nc2cc(C)on2)(=O)=O)ccc(N)cc1
InChI: InChI=1S/C10H11N3O3S/c1-7-6-10(12-16-7)13-17(14,15)9-4-2-8(11)3-5-9/h2-6H,11H2,1H3,(H,12,13)
Instrument: LTQ Orbitrap XL Thermo Scientific
Instrument type: LC-ESI-ITFT
Ms type: MS2
Ion mode: POSITIVE
Ionization: ESI
Fragmentation mode: HCD
Collision energy: 90 % (nominal)
Resolution: 30000
Column name: XBridge C18 3.5um, 2.1x50mm, Waters
Retention time: 4.6 min
Base peak: 254.0603
Precursor m/z: 254.0594
Precursor type: [M+H]+
m/z	relative intensity	assigned
65.0386	722	C5H5+
68.0495	38	C4H6N+
72.0444	6	C3H6NO+
78.0339	4	C5H4N+
80.0495	203	C5H6N+
92.0495	999	C6H6N+
93.0573	262	C6H7N+
94.0652	8	C6H8N+
96.0444	10	C5H6NO+
99.0553	94	C4H7N2O+
106.0526	5	C6H6N2+
107.0604	24	C6H7N2+
108.0444	868	C6H6NO+
110.06	82	C6H8NO+
119.0603	10	C7H7N2+
131.0602	4	C8H7N2+
146.0713	45	C8H8N3+
147.0788	18	C8H9N3+
160.0868	16	C9H10N3+
