Mass spectrum: Metolachlor; LC-ESI-ITFT; MS2; CE: 60%; R=15000; [M+H]+
Name: Metolachlor
Name: 2-chloranyl-N-(2-ethyl-6-methyl-phenyl)-N-(1-methoxypropan-2-yl)ethanamide
Formula: C15H22ClNO2
Exact mass: 283.1334
SMILES: CCC1=CC=CC(=C1N(C(C)COC)C(=O)CCl)C
InChI: InChI=1S/C15H22ClNO2/c1-5-13-8-6-7-11(2)15(13)17(14(18)9-16)12(3)10-19-4/h6-8,12H,5,9-10H2,1-4H3
Instrument: LTQ Orbitrap XL Thermo Scientific
Instrument type: LC-ESI-ITFT
Ms type: MS2
Ion mode: POSITIVE
Ionization: ESI
Fragmentation mode: HCD
Collision energy: 60 % (nominal)
Resolution: 15000
Column name: XBridge C18 3.5um, 2.1x50mm, Waters
Retention time: 11.8 min
Base peak: 306.1236
Precursor m/z: 284.1412
Precursor type: [M+H]+
m/z	relative intensity	assigned
73.0648	45	C4H9O+
76.979	12	C2H2ClO+
91.0541	10	C7H7+
108.0809	9	C7H10N+
117.0699	12	C9H9+
119.0854	23	C9H11+
120.0807	14	C8H10N+
131.0726	11	C9H9N+
132.0806	11	C9H10N+
133.0887	48	C9H11N+
134.0964	133	C9H12N+
135.0805	7	C6H14ClN+
143.0727	7	C10H9N+
144.0804	12	C10H10N+
145.0887	18	C10H11N+
146.0964	92	C10H12N+
147.1042	12	C10H13N+
148.112	25	C10H14N+
158.0964	45	C11H12N+
159.1043	25	C11H13N+
160.112	70	C11H14N+
162.0915	17	C10H12NO+
174.1276	13	C12H16N+
176.1434	999	C12H18N+
184.0523	70	C9H11ClNO+
188.1078	5	C12H14NO+
194.0732	32	C11H13ClN+
212.0838	46	C11H15ClNO+
252.1148	494	C14H19ClNO+
