Mass spectrum: Fenthion Oxon Sulfone; LC-ESI-QFT; MS2; CE: 45%; R=17500; [M+H]+
Name: Fenthion Oxon Sulfone
Name: dimethyl (3-methyl-4-methylsulfonylphenyl) phosphate
Formula: C10H15O6PS
Exact mass: 294.0327
SMILES: CC1=C(C=CC(=C1)OP(=O)(OC)OC)S(=O)(=O)C
InChI: InChI=1S/C10H15O6PS/c1-8-7-9(16-17(11,14-2)15-3)5-6-10(8)18(4,12)13/h5-7H,1-4H3
Instrument: Exploris 240 Orbitrap Thermo Scientific
Instrument type: LC-ESI-QFT
Ms type: MS2
Ion mode: POSITIVE
Ionization: ESI
Fragmentation mode: HCD
Collision energy: 45 % (nominal)
Resolution: 17500
Column name: XBridge C18 3.5um, 2.1x50mm, Waters
Retention time: 4.335 min
Base peak: 295.0397
Precursor m/z: 295.04
Precursor type: [M+H]+
m/z	relative intensity	assigned
78.0464	27	C6H6+
78.9848	21	CH3O2S+
79.0543	13	C6H7+
91.0541	34	C7H7+
93.0699	23	C7H9+
95.9972	6	CH5O3P+
103.0543	14	C8H7+
104.0621	406	C8H8+
105.0697	55	C8H9+
107.0493	14	C7H7O+
109.005	18	C2H6O3P+
117.0698	6	C9H9+
118.0778	15	C9H10+
121.0647	154	C8H9O+
122.0725	14	C8H10O+
123.0437	10	C7H7O2+
123.0803	11	C8H11O+
127.0153	70	C2H8O4P+
139.0208	8	C7H7OS+
141.0317	8	C3H10O4P+
184.0281	8	C8H9O3P+
201.0581	26	C9H13O3S+
215.0473	8	C9H12O4P+
216.0547	109	C9H13O4P+
217.0625	999	C9H14O4P+
231.0778	41	C10H16O4P+
233.0021	7	C8H10O4PS+
263.014	36	C9H12O5PS+
295.0401	162	C10H16O6PS+
