Mass spectrum: Ethoxyquin; LC-ESI-QFT; MS2; CE: 45; R=35000; [M+H]+
Name: Ethoxyquin
Name: 6-ethoxy-2,2,4-trimethyl-1H-quinoline
Formula: C14H19NO
Exact mass: 217.14666
SMILES: CCOC1=CC2=C(C=C1)NC(C=C2C)(C)C
InChI: InChI=1S/C14H19NO/c1-5-16-11-6-7-13-12(8-11)10(2)9-14(3,4)15-13/h6-9,15H,5H2,1-4H3
Instrument: Q Exactive Plus Orbitrap Thermo Scientific
Instrument type: LC-ESI-QFT
Ms type: MS2
Ion mode: POSITIVE
Ionization: ESI
Fragmentation mode: HCD
Collision energy: 45 (nominal)
Resolution: 35000
Column name: XBridge C18 3.5um, 2.1x50mm, Waters
Retention time: 7.0 min
Base peak: 218.1537
Precursor m/z: 218.1539
Precursor type: [M+H]+
m/z	relative intensity	assigned
55.0543	2	C4H7+
57.0699	6	C4H9+
59.0491	1	C3H7O+
71.0856	1	C5H11+
81.0699	3	C6H9+
82.0287	1	C4H4NO+
83.0492	1	C5H7O+
83.0855	4	C6H11+
97.1013	2	C7H13+
101.0599	1	C5H9O2+
106.0653	4	C7H8N+
107.0492	1	C7H7O+
107.0856	2	C8H11+
109.1012	1	C8H13+
111.0441	2	C6H7O2+
117.0699	1	C9H9+
120.0809	11	C8H10N+
122.0601	10	C7H8NO+
130.0651	1	C9H8N+
132.0808	2	C9H10N+
133.0523	3	C8H7NO+
134.0601	40	C8H8NO+
134.0965	4	C9H12N+
135.0806	1	C9H11O+
136.0758	15	C8H10NO+
137.0836	3	C8H11NO+
138.0915	1	C8H12NO+
144.056	1	C8H6N3+
144.0809	5	C10H10N+
145.065	3	C10H9O+
145.089	1	C10H11N+
145.1013	8	C11H13+
146.0601	6	C9H8NO+
146.0965	2	C10H12N+
147.068	21	C9H9NO+
147.0807	1	C10H11O+
148.0758	179	C9H10NO+
149.0963	1	C10H13O+
150.0915	8	C9H12NO+
155.0856	1	C12H11+
157.0889	4	C11H11N+
158.0723	4	C11H10O+
158.0965	20	C11H12N+
159.0806	1	C11H11O+
159.1046	2	C11H13N+
160.0759	24	C10H10NO+
161.0836	20	C10H11NO+
161.1201	3	C11H15N+
162.0915	75	C10H12NO+
162.1278	10	C11H16N+
163.0992	1	C10H13NO+
172.1122	21	C12H14N+
173.0963	21	C12H13O+
173.1201	30	C12H15N+
174.0915	80	C11H12NO+
174.1278	8	C12H16N+
175.0993	42	C11H13NO+
176.1071	166	C11H14NO+
188.1072	102	C12H14NO+
189.115	89	C12H15NO+
190.1228	241	C12H16NO+
201.1273	5	C14H17O+
202.1228	100	C13H16NO+
203.0944	2	C12H13NO2+
203.1308	51	C13H17NO+
216.1387	1	C14H18NO+
218.1541	999	C14H20NO+
