Mass spectrum: Fenfuram; LC-ESI-QFT; MS2; CE: 150%; R=17500; [M+H]+
Name: Fenfuram
Name: 2-methyl-N-phenylfuran-3-carboxamide
Formula: C12H11NO2
Exact mass: 201.0790
SMILES: CC1=C(C=CO1)C(=O)NC2=CC=CC=C2
InChI: InChI=1S/C12H11NO2/c1-9-11(7-8-15-9)12(14)13-10-5-3-2-4-6-10/h2-8H,1H3,(H,13,14)
Instrument: Exploris 240 Orbitrap Thermo Scientific
Instrument type: LC-ESI-QFT
Ms type: MS2
Ion mode: POSITIVE
Ionization: ESI
Fragmentation mode: HCD
Collision energy: 150 % (nominal)
Resolution: 17500
Column name: XBridge C18 3.5um, 2.1x50mm, Waters
Retention time: 6.105 min
Base peak: 202.0861
Precursor m/z: 202.0863
Precursor type: [M+H]+
m/z	relative intensity	assigned
51.0229	133	C4H3+
53.0386	683	C4H5+
65.0387	59	C5H5+
67.0177	101	C4H3O+
77.0386	96	C6H5+
81.0336	54	C5H5O+
109.0284	999	C6H5O2+
