Mass spectrum: Chlorthiophos; LC-ESI-QFT; MS2; CE: 75%; R=17500; [M+H]+
Name: Chlorthiophos
Name: (2,5-dichloro-4-methylsulfanylphenoxy)-diethoxy-sulfanylidene-lambda5-phosphane
Formula: C11H15Cl2O3PS2
Exact mass: 359.9577
SMILES: CCOP(=S)(OCC)OC1=CC(=C(C=C1Cl)SC)Cl
InChI: InChI=1S/C11H15Cl2O3PS2/c1-4-14-17(18,15-5-2)16-10-6-9(13)11(19-3)7-8(10)12/h6-7H,4-5H2,1-3H3
Instrument: Exploris 240 Orbitrap Thermo Scientific
Instrument type: LC-ESI-QFT
Ms type: MS2
Ion mode: POSITIVE
Ionization: ESI
Fragmentation mode: HCD
Collision energy: 75 % (nominal)
Resolution: 17500
Column name: XBridge C18 3.5um, 2.1x50mm, Waters
Retention time: 14.135 min
Base peak: 360.9648
Precursor m/z: 360.965
Precursor type: [M+H]+
m/z	relative intensity	assigned
78.967	104	CH3S2+
96.9507	198	H2O2PS+
121.0107	15	C7H5S+
125.0153	22	C7H6Cl+
129.9643	22	C5H3ClS+
132.9605	306	C4H3ClOP+
141.9636	90	C6H3ClS+
142.9715	20	C5H4OPS+
143.9794	13	C5H5OPS+
145.9684	109	C6H4Cl2+
154.9718	29	C7H4ClS+
156.9876	57	C7H6ClS+
160.9814	217	C5H6O2PS+
161.9632	231	C5H4ClO2P+
164.933	18	C5H3Cl2S+
173.9901	286	C7H7ClOS+
177.9405	149	C6H4Cl2S+
178.948	70	C5H5ClOPS+
186.944	156	C7H4ClS2+
187.9514	393	C6H5OPS2+
189.9676	83	C6H7OPS2+
190.9482	20	C6H5ClOPS+
191.956	999	C6H6ClOPS+
206.9434	136	C7H5Cl2OS+
207.8969	55	C6H2Cl2S2+
208.9586	24	C6H7ClO2PS+
221.9305	49	C7H4Cl2O2S+
222.9194	281	C6H5ClOPS2+
