Mass spectrum: Dapsone; LC-ESI-QFT; MS2; CE: 150; R=35000; [M+H]+
Name: Dapsone
Name: 4-(4-aminophenyl)sulfonylaniline
Formula: C12H12N2O2S
Exact mass: 248.06195
SMILES: C1=CC(=CC=C1N)S(=O)(=O)C2=CC=C(C=C2)N
InChI: InChI=1S/C12H12N2O2S/c13-9-1-5-11(6-2-9)17(15,16)12-7-3-10(14)4-8-12/h1-8H,13-14H2
Instrument: Q Exactive Plus Orbitrap Thermo Scientific
Instrument type: LC-ESI-QFT
Ms type: MS2
Ion mode: POSITIVE
Ionization: ESI
Fragmentation mode: HCD
Collision energy: 150 (nominal)
Resolution: 35000
Column name: XBridge C18 3.5um, 2.1x50mm, Waters
Retention time: 3.8 min
Base peak: 249.0685
Precursor m/z: 249.0692
Precursor type: [M+H]+
m/z	relative intensity	assigned
50.0151	5	C4H2+
51.0229	10	C4H3+
52.0182	5	C3H2N+
53.0022	39	C3HO+
53.0386	133	C4H5+
53.9974	12	C2NO+
54.0338	21	C3H4N+
55.0178	1	C3H3O+
56.0495	6	C3H6N+
62.0151	2	C5H2+
63.0229	8	C5H3+
64.0182	7	C4H2N+
64.0307	1	C5H4+
65.0386	999	C5H5+
66.0338	28	C4H4N+
66.0464	170	C5H6+
67.0416	10	C4H5N+
67.9892	10	C3O2+
75.0228	2	C6H3+
76.0307	2	C6H4+
77.0385	1	C6H5+
78.0087	1	C3N3+
78.0338	11	C5H4N+
80.0494	467	C5H6N+
90.0339	2	C6H4N+
91.0416	3	C6H5N+
92.0495	83	C6H6N+
93.0573	100	C6H7N+
95.0491	2	C6H7O+
96.0443	2	C5H6NO+
97.0106	1	C5H5S+
105.0447	2	C6H5N2+
108.0443	32	C6H6NO+
110.06	2	C6H8NO+
115.0542	2	C9H7+
123.0137	5	C6H5NS+
124.0215	3	C6H6NS+
139.0543	2	C11H7+
140.0495	1	C10H6N+
166.0649	1	C12H8N+
