Mass spectrum: CGA62826 (2-[2,6-dimethylphenyl)-methoxyacetylamino]propionic acid; LC-ESI-QFT; MS2; CE: 15; R=35000; [M+H]+
Name: CGA62826 (2-[2,6-dimethylphenyl)-methoxyacetylamino]propionic acid
Name: N-(2,6-Dimethylphenyl)-N-(methoxyacetyl)-L-alanine
Name: (2S)-2-(N-(2-methoxyacetyl)-2,6-dimethylanilino)propanoic acid
Formula: C14H19NO4
Exact mass: 265.13141
SMILES: Cc1cccc(c1N([C@@H](C)C(=O)O)C(=O)COC)C
InChI: InChI=1S/C14H19NO4/c1-9-6-5-7-10(2)13(9)15(11(3)14(17)18)12(16)8-19-4/h5-7,11H,8H2,1-4H3,(H,17,18)/t11-/m0/s1
Instrument: Q Exactive Plus Orbitrap Thermo Scientific
Instrument type: LC-ESI-QFT
Ms type: MS2
Ion mode: POSITIVE
Ionization: ESI
Fragmentation mode: HCD
Collision energy: 15 (nominal)
Resolution: 35000
Column name: XBridge C18 3.5um, 2.1x50mm, Waters
Retention time: 7.8 min
Base peak: 266.1385
Precursor m/z: 266.1387
Precursor type: [M+H]+
m/z	relative intensity	assigned
134.0964	1	C9H12N+
148.112	40	C10H14N+
160.1121	13	C11H14N+
165.1148	19	C10H15NO+
178.1225	3	C11H16NO+
188.107	10	C12H14NO+
192.1383	154	C12H18NO+
194.1175	8	C11H16NO2+
206.1177	193	C12H16NO2+
220.1332	999	C13H18NO2+
234.1122	5	C13H16NO3+
238.1438	15	C13H20NO3+
248.1282	205	C14H18NO3+
266.1387	872	C14H20NO4+
