Mass spectrum: Spinetoram J; LC-ESI-QFT; MS2; CE: 60%; R=17500; [M+H]+
Name: Spinetoram J
Name: 13-{[5-(Dimethylamino)-6-methyloxan-2-yl]oxy}-9-ethyl-14-methyl-7,15-dioxo-2,3,3a,4,5,5a,5b,6,7,9,10,11,12,13,14,15,16a,16b-octadecahydro-1H-as-indaceno[3,2-d]oxacyclododecin-2-yl 6-deoxy-3-O-ethyl-2,4-di-O-methylhexopyranoside
Name: 15-[5-(dimethylamino)-6-methyloxan-2-yl]oxy-7-(4-ethoxy-3,5-dimethoxy-6-methyloxan-2-yl)oxy-19-ethyl-14-methyl-20-oxatetracyclo[10.10.0.02,10.05,9]docos-11-ene-13,21-dione
Formula: C42H69NO10
Exact mass: 747.4921
SMILES: CCC1CCCC(C(C(=O)C2=CC3C(C2CC(=O)O1)CCC4C3CC(C4)OC5C(C(C(C(O5)C)OC)OCC)OC)C)OC6CCC(C(O6)C)N(C)C
InChI: InChI=1S/C42H69NO10/c1-10-27-13-12-14-35(53-37-18-17-34(43(6)7)24(4)49-37)23(3)38(45)33-21-31-29(32(33)22-36(44)51-27)16-15-26-19-28(20-30(26)31)52-42-41(47-9)40(48-11-2)39(46-8)25(5)50-42/h21,23-32,34-35,37,39-42H,10-20,22H2,1-9H3
Instrument: Exploris 240 Orbitrap Thermo Scientific
Instrument type: LC-ESI-QFT
Ms type: MS2
Ion mode: POSITIVE
Ionization: ESI
Fragmentation mode: HCD
Collision energy: 60 % (nominal)
Resolution: 17500
Column name: XBridge C18 3.5um, 2.1x50mm, Waters
Retention time: 12.060 min
Base peak: 748.4992
Precursor m/z: 748.4994
Precursor type: [M+H]+
m/z	relative intensity	assigned
79.0542	74	C6H7+
81.0698	27	C6H9+
83.0491	37	C5H7O+
83.0854	29	C6H11+
84.0808	11	C5H10N+
85.0287	11	C4H5O2+
85.0646	37	C5H9O+
85.0886	15	C5H11N+
86.0964	10	C5H12N+
87.044	63	C4H7O2+
91.0541	9	C7H7+
93.0696	7	C7H9+
95.0491	29	C6H7O+
95.0855	23	C7H11+
97.0647	342	C6H9O+
98.0963	999	C6H12N+
99.044	103	C5H7O2+
99.0803	163	C6H11O+
101.0598	22	C5H9O2+
109.065	10	C7H9O+
111.0439	23	C6H7O2+
112.1123	9	C7H14N+
113.0598	12	C6H9O2+
114.1281	5	C7H16N+
115.0751	59	C6H11O2+
117.0698	10	C9H9+
123.0444	5	C7H7O2+
124.1121	27	C8H14N+
125.0596	66	C7H9O2+
127.0755	23	C7H11O2+
129.0703	17	C10H9+
129.091	8	C7H13O2+
131.086	13	C10H11+
142.1225	924	C8H16NO+
157.0859	11	C8H13O3+
157.1008	103	C12H13+
160.1331	18	C8H18NO2+
169.101	7	C13H13+
171.1166	18	C13H15+
199.1124	7	C14H15O+
203.1064	20	C13H15O2+
217.1216	5	C14H17O2+
