Mass spectrum: Risperidone; LC-ESI-QFT; MS2; CE: 75; R=35000; [M+H]+
Name: Risperidone
Name: 3-[2-[4-(6-fluoro-1,2-benzoxazol-3-yl)piperidin-1-yl]ethyl]-2-methyl-6,7,8,9-tetrahydropyrido[1,2-a]pyrimidin-4-one
Formula: C23H27FN4O2
Exact mass: 410.21180
SMILES: CC1=C(C(=O)N2CCCCC2=N1)CCN3CCC(CC3)C4=NOC5=C4C=CC(=C5)F
InChI: InChI=1S/C23H27FN4O2/c1-15-18(23(29)28-10-3-2-4-21(28)25-15)9-13-27-11-7-16(8-12-27)22-19-6-5-17(24)14-20(19)30-26-22/h5-6,14,16H,2-4,7-13H2,1H3
Instrument: Q Exactive Plus Orbitrap Thermo Scientific
Instrument type: LC-ESI-QFT
Ms type: MS2
Ion mode: POSITIVE
Ionization: ESI
Fragmentation mode: HCD
Collision energy: 75 (nominal)
Resolution: 35000
Column name: XBridge C18 3.5um, 2.1x50mm, Waters
Retention time: 5.4 min
Base peak: 411.2187
Precursor m/z: 411.2191
Precursor type: [M+H]+
m/z	relative intensity	assigned
53.0022	2	C3HO+
54.0338	1	C3H4N+
55.0542	27	C4H7+
65.0385	10	FH4N3+
67.0178	3	C4H3O+
67.0417	3	C4H5N+
67.0542	29	C5H7+
68.0495	45	C4H6N+
69.0335	183	C4H5O+
79.0541	1	C6H7+
80.0494	3	C5H6N+
82.0651	155	C5H8N+
92.0495	1	C6H6N+
94.0651	1	C6H8N+
98.0964	1	C6H12N+
99.0916	2	C5H11N2+
106.0651	4	C7H8N+
107.0729	16	C7H9N+
108.0444	1	C6H6NO+
108.0808	1	C7H10N+
110.06	254	C6H8NO+
119.0605	1	C7H7N2+
120.0807	4	C8H10N+
121.0759	2	C7H9N2+
122.084	1	C7H10N2+
122.0964	1	C8H12N+
123.0678	1	C7H9NO+
123.0916	5	C7H11N2+
124.0758	5	C7H10NO+
125.0709	12	C6H9N2O+
132.0809	2	C9H10N+
133.0886	2	C9H11N+
135.0918	1	C8H11N2+
146.0966	1	C10H12N+
148.112	20	C10H14N+
149.0707	2	C8H9N2O+
150.0788	28	C8H10N2O+
161.0711	1	C9H9N2O+
163.0865	34	C9H11N2O+
163.1229	32	C10H15N2+
167.0816	2	C8H11N2O2+
173.1072	1	C11H13N2+
176.0948	1	C10H12N2O+
191.1178	999	C11H15N2O+
