Mass spectrum: Fenamiphos; LC-ESI-QFT; MS2; CE: 60%; R=17500; [M+H]+
Name: Fenamiphos
Name: N-[ethoxy-(3-methyl-4-methylsulfanylphenoxy)phosphoryl]propan-2-amine
Formula: C13H22NO3PS
Exact mass: 303.1058
SMILES: CCOP(=O)(NC(C)C)OC1=CC(=C(C=C1)SC)C
InChI: InChI=1S/C13H22NO3PS/c1-6-16-18(15,14-10(2)3)17-12-7-8-13(19-5)11(4)9-12/h7-10H,6H2,1-5H3,(H,14,15)
Instrument: Exploris 240 Orbitrap Thermo Scientific
Instrument type: LC-ESI-QFT
Ms type: MS2
Ion mode: POSITIVE
Ionization: ESI
Fragmentation mode: HCD
Collision energy: 60 % (nominal)
Resolution: 17500
Column name: XBridge C18 3.5um, 2.1x50mm, Waters
Retention time: 10.489 min
Base peak: 304.1128
Precursor m/z: 304.1131
Precursor type: [M+H]+
m/z	relative intensity	assigned
58.9949	11	C2H3S+
60.0808	35	C3H10N+
79.0541	8	C6H7+
79.9892	4	C4O2+
91.0539	5	C7H7+
93.0697	8	C7H9+
97.0103	20	C5H5S+
98.0001	5	H5NO3P+
103.0544	9	C8H7+
104.0617	4	C8H8+
107.049	54	C7H7O+
108.0568	16	C7H8O+
109.0647	5	C7H9O+
137.0418	41	C8H9S+
139.0208	11	C7H7OS+
153.0369	73	C8H9OS+
155.0522	49	C8H11OS+
168.9875	35	C7H6OPS+
184.982	20	C7H6O2PS+
198.9979	35	C8H8O2PS+
201.9847	434	C7H7O3PS+
202.9927	18	C7H8O3PS+
217.0082	999	C8H10O3PS+
230.0153	8	C9H11O3PS+
