Mass spectrum: Clomipramine; LC-ESI-QFT; MS2; CE: 90; R=35000; [M+H]+
Name: Clomipramine
Name: 3-(2-chloro-5,6-dihydrobenzo[b][1]benzazepin-11-yl)-N,N-dimethylpropan-1-amine
Formula: C19H23ClN2
Exact mass: 314.15498
SMILES: CN(C)CCCN1C2=CC=CC=C2CCC3=C1C=C(C=C3)Cl
InChI: InChI=1S/C19H23ClN2/c1-21(2)12-5-13-22-18-7-4-3-6-15(18)8-9-16-10-11-17(20)14-19(16)22/h3-4,6-7,10-11,14H,5,8-9,12-13H2,1-2H3
Instrument: Q Exactive Plus Orbitrap Thermo Scientific
Instrument type: LC-ESI-QFT
Ms type: MS2
Ion mode: POSITIVE
Ionization: ESI
Fragmentation mode: HCD
Collision energy: 90 (nominal)
Resolution: 35000
Column name: XBridge C18 3.5um, 2.1x50mm, Waters
Retention time: 9.2 min
Base peak: 315.1618
Precursor m/z: 315.1623
Precursor type: [M+H]+
m/z	relative intensity	assigned
56.0495	14	C3H6N+
58.0652	999	C3H8N+
70.0652	1	C4H8N+
71.073	17	C4H9N+
84.0808	2	C5H10N+
86.0965	187	C5H12N+
91.0543	2	C7H7+
103.0542	1	C8H7+
125.0154	2	C7H6Cl+
130.0652	1	C9H8N+
144.0811	1	C10H10N+
158.0967	1	C11H12N+
165.0701	11	C13H9+
167.0732	1	C12H9N+
178.0779	2	C14H10+
179.0858	1	C14H11+
180.0811	1	C13H10N+
190.0652	1	C14H8N+
191.073	9	C14H9N+
192.0809	64	C14H10N+
194.0966	1	C14H12N+
201.0343	4	C12H8ClN+
204.0811	4	C15H10N+
205.0887	1	C15H11N+
206.0967	23	C15H12N+
207.1045	14	C15H13N+
212.0391	1	C14H9Cl+
214.0422	1	C13H9ClN+
218.0967	1	C16H12N+
219.1046	1	C16H13N+
220.1124	16	C16H14N+
226.0421	13	C14H9ClN+
227.0499	146	C14H10ClN+
228.0576	1	C14H11ClN+
234.128	6	C17H16N+
240.0574	2	C15H11ClN+
241.0654	1	C15H12ClN+
242.0733	11	C15H13ClN+
254.0734	2	C16H13ClN+
