Mass spectrum: Methsuximide; LC-ESI-QFT; MS2; CE: 45; R=35000; [M+H]+
Name: Methsuximide
Name: 1,3-dimethyl-3-phenylpyrrolidine-2,5-dione
Formula: C12H13NO2
Exact mass: 203.09463
SMILES: CC1(CC(=O)N(C1=O)C)C2=CC=CC=C2
InChI: InChI=1S/C12H13NO2/c1-12(9-6-4-3-5-7-9)8-10(14)13(2)11(12)15/h3-7H,8H2,1-2H3
Instrument: Q Exactive Orbitrap Thermo Scientific
Instrument type: LC-ESI-QFT
Ms type: MS2
Ion mode: POSITIVE
Ionization: ESI
Fragmentation mode: HCD
Collision energy: 45 (nominal)
Resolution: 35000
Column name: XBridge C18 3.5um, 2.1x50mm, Waters
Retention time: 6.8 min
Base peak: 204.1021
Precursor m/z: 204.1019
Precursor type: [M+H]+
m/z	relative intensity	assigned
58.0288	183	C2H4NO+
69.0335	263	C4H5O+
77.0384	3	C6H5+
79.0542	180	C6H7+
91.0542	167	C7H7+
95.0489	4	C6H7O+
98.0601	6	C5H8NO+
103.0542	3	C8H7+
105.0337	1	C7H5O+
105.0446	2	C6H5N2+
115.0541	1	C9H7+
117.0699	16	C9H9+
119.0855	999	C9H11+
120.0808	1	C8H10N+
121.0648	45	C8H9O+
126.055	191	C6H8NO2+
129.0699	15	C10H9+
134.0964	36	C9H12N+
144.0808	1	C10H10N+
145.0649	174	C10H9O+
147.0805	32	C10H11O+
158.0965	27	C11H12N+
160.112	3	C11H14N+
162.0914	16	C10H12NO+
163.0751	1	C10H11O2+
171.0678	3	C11H9NO+
173.06	3	C11H9O2+
176.1071	18	C11H14NO+
186.0915	35	C12H12NO+
204.102	276	C12H14NO2+
