Mass spectrum: 4-Hydroxybenzotriazole; LC-ESI-QFT; MS2; CE: 90; R=35000; [M-H]-
Name: 4-Hydroxybenzotriazole
Name: 1,2-dihydrobenzotriazol-4-one
Name: 2H-benzotriazol-4-ol
Name: 4-Hydroxy-1H-benzotriazole
Formula: C6H5N3O
Exact mass: 135.04326178
SMILES: C1=CC2=NNN=C2C(=C1)O
InChI: InChI=1S/C6H5N3O/c10-5-3-1-2-4-6(5)8-9-7-4/h1-3,10H,(H,7,8,9)
Instrument: Q Exactive Plus Orbitrap Thermo Scientific
Instrument type: LC-ESI-QFT
Ms type: MS2
Ion mode: NEGATIVE
Ionization: ESI
Fragmentation mode: HCD
Collision energy: 90 (nominal)
Resolution: 35000
Column name: XBridge C18 3.5um, 2.1x50mm, Waters
Retention time: 3.2 min
Base peak: 134.0359
Precursor m/z: 134.036
Precursor type: [M-H]-
m/z	relative intensity	assigned
50.0036	35	C3N-
52.0193	45	C3H2N-
65.9986	5	C3NO-
78.035	999	C5H4N-
105.022	772	C6H3NO-
106.0299	100	C6H4NO-
134.036	18	C6H4N3O-
