Mass spectrum: Desmethyl-Pirimicarb; LC-ESI-QFT; MS2; CE: 30%; R=17500; [M+H]+
Name: Desmethyl-Pirimicarb
Name: 5,6-Dimethyl-2-(methylamino)-4-pyrimidinyl dimethylcarbamate
Name: [5,6-dimethyl-2-(methylamino)pyrimidin-4-yl] N,N-dimethylcarbamate
Formula: C10H16N4O2
Exact mass: 224.1273
SMILES: CC1=C(N=C(N=C1OC(=O)N(C)C)NC)C
InChI: InChI=1S/C10H16N4O2/c1-6-7(2)12-9(11-3)13-8(6)16-10(15)14(4)5/h1-5H3,(H,11,12,13)
Instrument: Exploris 240 Orbitrap Thermo Scientific
Instrument type: LC-ESI-QFT
Ms type: MS2
Ion mode: POSITIVE
Ionization: ESI
Fragmentation mode: HCD
Collision energy: 30 % (nominal)
Resolution: 17500
Column name: XBridge C18 3.5um, 2.1x50mm, Waters
Retention time: 2.964 min
Base peak: 225.1343
Precursor m/z: 225.1346
Precursor type: [M+H]+
m/z	relative intensity	assigned
72.0443	999	C3H6NO+
85.0759	27	C4H9N2+
168.113	749	C8H14N3O+
180.0768	148	C8H10N3O2+
181.1449	47	C9H17N4+
225.1345	604	C10H17N4O2+
