Mass spectrum: Aminopyrine; LC-ESI-ITFT; MS2; CE: 30%; R=7500; [M+H]+
Name: Aminopyrine
Name: 4-(dimethylamino)-1,5-dimethyl-2-phenyl-3-pyrazolin-3-one
Formula: C13H17N3O
Exact mass: 231.1372
SMILES: c(ccc1N(N(C=2C)C)C(=O)C2N(C)C)cc1
InChI: InChI=1S/C13H17N3O/c1-10-12(14(2)3)13(17)16(15(10)4)11-8-6-5-7-9-11/h5-9H,1-4H3
Instrument: LTQ Orbitrap XL Thermo Scientific
Instrument type: LC-ESI-ITFT
Ms type: MS2
Ion mode: POSITIVE
Ionization: ESI
Fragmentation mode: HCD
Collision energy: 30 % (nominal)
Resolution: 7500
Column name: XBridge C18 3.5um, 2.1x50mm, Waters
Retention time: 2.6 min
Base peak: 232.1453
Precursor m/z: 232.1444
Precursor type: [M+H]+
m/z	relative intensity	assigned
56.0494	71	C3H6N+
58.0651	62	C3H8N+
70.0652	174	C4H8N+
72.0808	86	C4H10N+
82.0652	10	C5H8N+
84.0683	4	C4H8N2+
84.0808	29	C5H10N+
87.0918	10	C4H11N2+
97.076	130	C5H9N2+
98.0839	207	C5H10N2+
99.0917	58	C5H11N2+
106.0651	15	C7H8N+
111.0917	330	C6H11N2+
113.1074	999	C6H13N2+
118.0652	30	C8H8N+
139.0868	18	C7H11N2O+
146.0602	5	C9H8NO+
147.091	5	C9H11N2+
149.1074	32	C9H13N2+
159.0917	65	C10H11N2+
173.0267	3	C13H3N+
175.0865	16	C10H11N2O+
177.1023	54	C10H13N2O+
187.0867	84	C11H11N2O+
188.0942	25	C11H12N2O+
204.1496	5	C12H18N3+
214.1341	4	C13H16N3+
217.121	21	C12H15N3O+
232.1447	801	C13H18N3O+
