Mass spectrum: Morphothion; LC-ESI-QFT; MS2; CE: 15%; R=17500; [M+H]+
Name: Morphothion
Name: 2-dimethoxyphosphinothioylsulfanyl-1-morpholin-4-ylethanone
Formula: C8H16NO4PS2
Exact mass: 285.0258
SMILES: COP(=S)(OC)SCC(=O)N1CCOCC1
InChI: InChI=1S/C8H16NO4PS2/c1-11-14(15,12-2)16-7-8(10)9-3-5-13-6-4-9/h3-7H2,1-2H3
Instrument: Exploris 240 Orbitrap Thermo Scientific
Instrument type: LC-ESI-QFT
Ms type: MS2
Ion mode: POSITIVE
Ionization: ESI
Fragmentation mode: HCD
Collision energy: 15 % (nominal)
Resolution: 17500
Column name: XBridge C18 3.5um, 2.1x50mm, Waters
Retention time: 4.868 min
Base peak: 286.033
Precursor m/z: 286.0331
Precursor type: [M+H]+
m/z	relative intensity	assigned
88.0756	6	C4H10NO+
144.0478	47	C6H10NOS+
170.9695	24	C3H8O2PS2+
198.9647	999	C4H8O3PS2+
254.0075	18	C7H13NO3PS2+
286.0331	990	C8H17NO4PS2+
