Mass spectrum: Fensulfothion; LC-ESI-QFT; MS2; CE: 120%; R=17500; [M+H]+
Name: Fensulfothion
Name: diethoxy-(4-methylsulfinylphenoxy)-sulfanylidene-lambda5-phosphane
Formula: C11H17O4PS2
Exact mass: 308.0306
SMILES: CCOP(=S)(OCC)OC1=CC=C(C=C1)S(=O)C
InChI: InChI=1S/C11H17O4PS2/c1-4-13-16(17,14-5-2)15-10-6-8-11(9-7-10)18(3)12/h6-9H,4-5H2,1-3H3
Instrument: Exploris 240 Orbitrap Thermo Scientific
Instrument type: LC-ESI-QFT
Ms type: MS2
Ion mode: POSITIVE
Ionization: ESI
Fragmentation mode: HCD
Collision energy: 120 % (nominal)
Resolution: 17500
Column name: XBridge C18 3.5um, 2.1x50mm, Waters
Retention time: 7.188 min
Base peak: 309.0377
Precursor m/z: 309.0379
Precursor type: [M+H]+
m/z	relative intensity	assigned
53.0385	20	C4H5+
62.99	24	CH3OS+
64.9787	91	H2O2P+
65.0386	77	C5H5+
66.0464	209	C5H6+
67.0543	25	C5H7+
69.9871	25	C3H2S+
77.0387	68	C6H5+
78.0466	27	C6H6+
78.9401	56	OPS+
80.9738	61	H2O3P+
81.0334	50	C5H5O+
84.0029	45	C4H4S+
85.0105	40	C4H5S+
94.0413	999	C6H6O+
96.0029	54	C5H4S+
96.9508	296	H2O2PS+
97.0106	132	C5H5S+
98.9843	105	H4O4P+
108.0027	114	C6H4S+
110.0184	397	C6H6S+
111.0262	124	C6H7S+
113.0058	36	C5H5OS+
114.961	104	H4O3PS+
125.0056	695	C6H5OS+
139.0213	211	C7H7OS+
139.9751	31	C6H4S2+
140.029	330	C7H8OS+
140.9828	315	C6H5S2+
141.0005	142	C6H5O2S+
142.0087	73	C6H6O2S+
154.998	99	C7H7S2+
155.9704	26	C6H4OS2+
156.0068	86	C7H8S2+
156.978	73	C6H5OS2+
157.9855	32	C6H6OS2+
