Mass spectrum: Reserpine; LC-ESI-ITFT; MS2; CE: 60%; R=7500; [M+H]+
Name: Reserpine
Name: (1S,2R,3R,4aS,13bR,14aS)-2,11-dimethoxy-3-(3,4,5-trimethoxybenzoyl)oxy-1,2,3,4,4a,5,7,8,13,13b,14,14a-dodecahydroisoquinolino[3,2-a]$b-carboline-1-carboxylic acid methyl ester
Formula: C33H40N2O9
Exact mass: 608.2734
SMILES: CO[C@H]1[C@@H](C[C@@H]2CN3CCC4=C([C@H]3C[C@@H]2[C@@H]1C(=O)OC)NC5=C4C=CC(=C5)OC)OC(=O)C6=CC(=C(C(=C6)OC)OC)OC
InChI: InChI=1S/C33H40N2O9/c1-38-19-7-8-20-21-9-10-35-16-18-13-27(44-32(36)17-11-25(39-2)30(41-4)26(12-17)40-3)31(42-5)28(33(37)43-6)22(18)15-24(35)29(21)34-23(20)14-19/h7-8,11-12,14,18,22,24,27-28,31,34H,9-10,13,15-16H2,1-6H3/t18-,22+,24-,27-,28+,31+/m1/s1
Instrument: LTQ Orbitrap XL Thermo Scientific
Instrument type: LC-ESI-ITFT
Ms type: MS2
Ion mode: POSITIVE
Ionization: ESI
Fragmentation mode: HCD
Collision energy: 60 % (nominal)
Resolution: 7500
Column name: XBridge C18 3.5um, 2.1x50mm, Waters
Retention time: 8.3 min
Base peak: 609.2812
Precursor m/z: 609.2807
Precursor type: [M+H]+
m/z	relative intensity	assigned
53.0384	6	C4H5+
65.0383	4	C5H5+
67.0542	4	C5H7+
71.0491	4	C4H7O+
75.0441	4	C3H7O2+
77.0386	15	C6H5+
79.0542	30	C6H7+
80.0494	5	C5H6N+
81.0335	20	C5H5O+
81.0698	15	C6H9+
91.0541	24	C7H7+
93.0339	2	C6H5O+
93.0577	2	C6H7N+
93.0695	3	C7H9+
94.0414	4	C6H6O+
94.0652	16	C6H8N+
96.057	18	C6H8O+
97.0648	3	C6H9O+
101.0596	2	C5H9O2+
103.0545	3	C8H7+
105.045	4	C6H5N2+
105.0699	8	C8H9+
106.0653	9	C7H8N+
107.0488	7	C7H7O+
108.0569	12	C7H8O+
108.081	6	C7H10N+
109.028	6	C6H5O2+
109.0647	47	C7H9O+
111.044	12	C6H7O2+
111.0803	12	C7H11O+
113.0235	3	C5H5O3+
113.0596	8	C6H9O2+
115.0544	13	C9H7+
116.0621	3	C9H8+
117.0567	5	C8H7N+
117.07	14	C9H9+
118.0651	13	C8H8N+
119.0854	4	C9H11+
120.0807	15	C8H10N+
121.0285	2	C7H5O2+
121.0648	12	C8H9O+
122.0361	38	C7H6O2+
123.0806	7	C8H11O+
124.0519	40	C7H8O2+
128.0468	3	C6H8O3+
129.0699	11	C10H9+
130.0652	25	C9H8N+
131.0489	6	C9H7O+
131.0729	75	C9H9N+
131.0856	6	C10H11+
132.0564	5	C9H8O+
132.0808	32	C9H10N+
135.0441	7	C8H7O2+
135.08	5	C9H11O+
136.0757	5	C8H10NO+
137.0231	14	C7H5O3+
137.0599	9	C8H9O2+
139.0753	128	C8H11O2+
141.0177	4	C6H5O4+
142.0652	19	C10H8N+
143.073	82	C10H9N+
144.0808	37	C10H10N+
145.0653	4	C10H9O+
145.0885	9	C10H11N+
146.0599	10	C9H8NO+
146.0961	6	C10H12N+
147.0677	9	C9H9NO+
147.0803	28	C10H11O+
148.0757	22	C9H10NO+
149.0594	14	C9H9O2+
150.0908	3	C9H12NO+
151.0384	11	C8H7O3+
152.0467	154	C8H8O3+
155.0597	2	C10H7N2+
156.0413	11	C7H8O4+
156.0811	4	C11H10N+
157.0887	6	C11H11N+
158.0594	8	C10H8NO+
159.0678	203	C10H9NO+
160.0756	76	C10H10NO+
161.0597	5	C10H9O2+
161.0836	34	C10H11NO+
162.0912	14	C10H12NO+
164.1068	3	C10H14NO+
166.0862	4	C9H12NO2+
167.0701	48	C9H11O3+
170.0604	3	C11H8NO+
172.0756	19	C11H10NO+
173.0835	33	C11H11NO+
174.0913	999	C11H12NO+
175.0751	7	C11H11O2+
175.0944	14	C6H13N3O3+
176.1072	7	C11H14NO+
178.0865	5	C10H12NO2+
181.0881	2	C13H11N+
184.0365	3	C8H8O5+
184.0756	11	C12H10NO+
185.0832	15	C12H11NO+
186.0912	37	C12H12NO+
187.0992	13	C12H13NO+
188.0712	2	C11H10NO2+
188.1069	36	C12H14NO+
190.0862	10	C11H12NO2+
192.102	34	C11H14NO2+
195.0651	839	C10H11O4+
195.9639	3	C7O7+
197.0833	9	C13H11NO+
198.0913	19	C13H12NO+
199.0956	20	C10H15O4+
200.107	35	C13H14NO+
201.1027	8	C12H13N2O+
204.1019	19	C12H14NO2+
207.1035	2	C15H13N+
210.0912	16	C14H12NO+
211.0989	10	C14H13NO+
213.1021	7	C13H13N2O+
214.1104	11	C13H14N2O+
215.1181	10	C13H15N2O+
222.0911	8	C15H12NO+
222.1133	3	C12H16NO3+
223.0989	8	C15H13NO+
224.1067	27	C15H14NO+
224.1281	6	C12H18NO3+
226.1229	12	C15H16NO+
227.1177	21	C14H15N2O+
234.092	6	C16H12NO+
235.0986	7	C16H13NO+
236.1052	15	C13H16O4+
236.1281	20	C13H18NO3+
238.122	22	C16H16NO+
246.0916	4	C17H12NO+
247.099	11	C17H13NO+
248.1068	21	C17H14NO+
249.1142	8	C17H15NO+
250.1216	14	C17H16NO+
251.1177	36	C16H15N2O+
252.1262	4	C16H16N2O+
253.1328	16	C16H17N2O+
258.0922	3	C18H12NO+
259.0998	3	C18H13NO+
260.1068	12	C18H14NO+
261.114	18	C18H15NO+
262.1225	27	C18H16NO+
264.1011	8	C17H14NO2+
264.1395	7	C18H18NO+
265.1332	28	C17H17N2O+
266.1415	6	C17H18N2O+
267.1495	3	C17H19N2O+
273.1141	8	C19H15NO+
274.1222	13	C19H16NO+
276.138	26	C19H18NO+
277.1319	4	C15H19NO4+
278.1165	3	C18H16NO2+
288.1378	7	C20H18NO+
290.1183	8	C19H16NO2+
291.1492	8	C19H19N2O+
304.1332	8	C20H18NO2+
305.1633	5	C17H23NO4+
306.1137	3	C19H16NO3+
336.1582	9	C21H22NO3+
337.1908	4	C21H25N2O2+
350.1617	8	C21H22N2O3+
365.1851	20	C22H25N2O3+
382.1885	2	C22H26N2O4+
