Mass spectrum: Allopurinol; LC-ESI-QFT; MS2; CE: 30; R=35000; [M-H]-
Name: Allopurinol
Name: 1,2-dihydropyrazolo[3,4-d]pyrimidin-4-one
Formula: C5H4N4O
Exact mass: 136.03851
SMILES: C1=NNC2=C1C(=NC=N2)O
InChI: InChI=1S/C5H4N4O/c10-5-3-1-8-9-4(3)6-2-7-5/h1-2H,(H2,6,7,8,9,10)
Instrument: Q Exactive Orbitrap Thermo Scientific
Instrument type: LC-ESI-QFT
Ms type: MS2
Ion mode: NEGATIVE
Ionization: ESI
Fragmentation mode: HCD
Collision energy: 30 (nominal)
Resolution: 35000
Column name: XBridge C18 3.5um, 2.1x50mm, Waters
Retention time: 1.2 min
Base peak: 135.0314
Precursor m/z: 135.0312
Precursor type: [M-H]-
m/z	relative intensity	assigned
64.0192	19	C4H2N-
65.0144	7	C3HN2-
65.9985	3	C3NO-
79.0302	5	C4H3N2-
92.0254	464	C4H2N3-
107.0251	41	C5H3N2O-
135.0312	999	C5H3N4O-
