Mass spectrum: Flubendazole; LC-ESI-QFT; MS2; CE: 120; R=35000; [M-H]-
Name: Flubendazole
Name: Methyl N-[6-(4-fluorobenzoyl)-1H-benzimidazol-2-yl]carbamate
Formula: C16H12FN3O3
Exact mass: 313.08627
SMILES: COC(=O)NC1=NC2=C(N1)C=C(C=C2)C(=O)C3=CC=C(C=C3)F
InChI: InChI=1S/C16H12FN3O3/c1-23-16(22)20-15-18-12-7-4-10(8-13(12)19-15)14(21)9-2-5-11(17)6-3-9/h2-8H,1H3,(H2,18,19,20,22)
Instrument: Q Exactive Plus Orbitrap Thermo Scientific
Instrument type: LC-ESI-QFT
Ms type: MS2
Ion mode: NEGATIVE
Ionization: ESI
Fragmentation mode: HCD
Collision energy: 120 (nominal)
Resolution: 35000
Column name: XBridge C18 3.5um, 2.1x50mm, Waters
Retention time: 8.1 min
Base peak: 280.0527
Precursor m/z: 312.079
Precursor type: [M-H]-
m/z	relative intensity	assigned
50.0036	25	C3N-
64.0068	6	C3N2-
64.0194	40	C4H2N-
65.0146	37	C3HN2-
65.9986	23	C3NO-
68.0017	4	C2N2O-
74.0039	22	C5N-
86.0036	3	C6N-
87.0115	48	C6HN-
88.0068	15	C5N2-
88.0194	35	C6H2N-
89.0146	22	C5HN2-
90.0224	25	C5H2N2-
91.0064	6	C5HNO-
92.0255	11	C4H2N3-
93.0095	4	C4HN2O-
93.0221	3	C5H3NO-
95.0252	29	C4H3N2O-
101.0146	21	C6HN2-
102.0225	112	C6H2N2-
103.0176	18	C5HN3-
105.0332	6	C5H3N3-
106.0174	98	C5H2N2O-
113.0148	47	C7HN2-
114.0225	35	C7H2N2-
115.0303	620	C7H3N2-
118.0173	4	C6H2N2O-
120.0091	3	C6H2NO2-
128.0254	4	C7H2N3-
129.0334	999	C7H3N3-
130.0174	21	C7H2N2O-
132.0205	14	C6H2N3O-
133.0283	335	C6H3N3O-
136.0154	17	C5H2N3O2-
145.0285	20	C7H3N3O-
147.0202	15	C7H3N2O2-
149.0233	55	C6H3N3O2-
156.0206	142	C8H2N3O-
157.0283	701	C8H3N3O-
158.0361	29	C8H4N3O-
160.0155	151	C7H2N3O2-
173.0232	61	C8H3N3O2-
210.0363	3	C13H5FNO-
224.04	3	C13H5FN2O-
235.0311	4	C14H4FN2O-
278.0375	6	C15H5FN3O2-
