Mass spectrum: Iprovalicarb; LC-ESI-ITFT; MS2; CE: 75%; R=15000; [M+H]+
Name: Iprovalicarb
Name: Isopropyl (3-methyl-1-{[(1S)-1-(4-methylphenyl)ethyl]amino}-1-oxo-2-butanyl)carbamate
Formula: C18H28N2O3
Exact mass: 320.2100
SMILES: CC(C)OC(=O)NC(C(=O)N[C@@H](C)c1ccc(C)cc1)C(C)C
InChI: InChI=1S/C18H28N2O3/c1-11(2)16(20-18(22)23-12(3)4)17(21)19-14(6)15-9-7-13(5)8-10-15/h7-12,14,16H,1-6H3,(H,19,21)(H,20,22)/t14-,16?/m0/s1
Instrument: LTQ Orbitrap XL Thermo Scientific
Instrument type: LC-ESI-ITFT
Ms type: MS2
Ion mode: POSITIVE
Ionization: ESI
Fragmentation mode: HCD
Collision energy: 75 % (nominal)
Resolution: 15000
Column name: XBridge C18 3.5um, 2.1x50mm, Waters
Retention time: 11.4 min
Base peak: 321.2181
Precursor m/z: 321.2173
Precursor type: [M+H]+
m/z	relative intensity	assigned
55.0542	11	C4H7+
72.0808	43	C4H10N+
77.0385	2	C6H5+
79.0542	6	C6H7+
91.0543	157	C7H7+
93.0699	13	C7H9+
98.0601	33	C5H8NO+
103.0542	23	C8H7+
104.0621	14	C8H8+
115.0543	3	C9H7+
116.0706	29	C5H10NO2+
117.07	143	C9H9+
119.0855	999	C9H11+
131.0604	5	C8H7N2+
