Mass spectrum: Famphur; LC-ESI-QFT; MS2; CE: 30%; R=17500; [M+H]+
Name: Famphur
Name: 4-dimethoxyphosphinothioyloxy-N,N-dimethylbenzenesulfonamide
Formula: C10H16NO5PS2
Exact mass: 325.0208
SMILES: CN(C)S(=O)(=O)C1=CC=C(C=C1)OP(=S)(OC)OC
InChI: InChI=1S/C10H16NO5PS2/c1-11(2)19(12,13)10-7-5-9(6-8-10)16-17(18,14-3)15-4/h5-8H,1-4H3
Instrument: Exploris 240 Orbitrap Thermo Scientific
Instrument type: LC-ESI-QFT
Ms type: MS2
Ion mode: POSITIVE
Ionization: ESI
Fragmentation mode: HCD
Collision energy: 30 % (nominal)
Resolution: 17500
Column name: XBridge C18 3.5um, 2.1x50mm, Waters
Retention time: 6.830 min
Base peak: 326.0278
Precursor m/z: 326.028
Precursor type: [M+H]+
m/z	relative intensity	assigned
93.01	138	C2H6O2P+
124.9821	156	C2H6O2PS+
142.9923	30	C2H8O3PS+
201.9849	48	C7H7O3PS+
202.993	31	C7H8O3PS+
217.0083	710	C8H10O3PS+
233.0033	498	C8H10O4PS+
235.0181	123	C8H12O4PS+
280.9703	999	C8H10O5PS2+
326.0282	303	C10H17NO5PS2+
