Mass spectrum: Dimethenamid-P; LC-ESI-ITFT; MS2; CE: 90%; R=7500; [M+H]+
Name: Dimethenamid-P
Name: 2-chloranyl-N-(2,4-dimethylthiophen-3-yl)-N-[(2S)-1-methoxypropan-2-yl]ethanamide
Formula: C12H18ClNO2S
Exact mass: 275.0741
SMILES: CC1=CSC(=C1N(C(C)COC)C(=O)CCl)C
InChI: InChI=1S/C12H18ClNO2S/c1-8-7-17-10(3)12(8)14(11(15)5-13)9(2)6-16-4/h7,9H,5-6H2,1-4H3
Instrument: LTQ Orbitrap XL Thermo Scientific
Instrument type: LC-ESI-ITFT
Ms type: MS2
Ion mode: POSITIVE
Ionization: ESI
Fragmentation mode: HCD
Collision energy: 90 % (nominal)
Resolution: 7500
Column name: XBridge C18 3.5um, 2.1x50mm, Waters
Retention time: 10.0 min
Base peak: 276.0826
Precursor m/z: 276.082
Precursor type: [M+H]+
m/z	relative intensity	assigned
58.995	35	C2H3S+
65.0387	30	C5H5+
67.0542	71	C5H7+
70.9949	22	C3H3S+
73.0648	77	C4H9O+
76.9788	38	C2H2ClO+
77.0385	68	C6H5+
78.0463	24	C6H6+
79.0543	44	C6H7+
82.0651	12	C5H8N+
85.0107	21	C4H5S+
91.0542	32	C7H7+
93.0575	37	C6H7N+
93.0699	47	C7H9+
94.0651	148	C6H8N+
95.0729	241	C6H9N+
97.0107	54	C5H5S+
99.0263	71	C5H7S+
101.0422	22	C5H9S+
104.0494	28	C7H6N+
105.0448	15	C6H5N2+
105.0573	64	C7H7N+
106.0649	25	C7H8N+
107.0851	10	C8H11+
108.0807	47	C7H10N+
109.0109	13	C6H5S+
110.0186	20	C6H6S+
111.0263	999	C6H7S+
112.0216	12	C5H6NS+
112.034	107	C6H8S+
113.0292	19	C5H7NS+
113.0419	63	C6H9S+
117.0573	29	C8H7N+
117.0699	25	C9H9+
118.0653	38	C8H8N+
118.0776	11	C9H10+
119.0727	43	C8H9N+
120.0807	137	C8H10N+
122.0965	25	C8H12N+
123.0265	26	C7H7S+
124.0217	55	C6H6NS+
124.034	59	C7H8S+
125.0291	49	C6H7NS+
125.0419	103	C7H9S+
126.0371	926	C6H8NS+
127.0213	22	C6H7OS+
127.045	59	C6H9NS+
128.0528	189	C6H10NS+
129.0371	22	C6H9OS+
134.0964	96	C9H12N+
135.0263	28	C8H7S+
135.1041	127	C9H13N+
136.0214	55	C7H6NS+
136.0347	14	C8H8S+
137.0292	117	C7H7NS+
138.0371	467	C7H8NS+
139.0446	11	C7H9NS+
140.0528	40	C7H10NS+
150.0371	164	C8H8NS+
151.0448	49	C8H9NS+
151.0573	61	C9H11S+
152.0164	314	C7H6NOS+
152.0528	457	C8H10NS+
153.0241	198	C7H7NOS+
153.0606	102	C8H11NS+
154.0318	45	C7H8NOS+
154.0686	33	C8H12NS+
166.0318	57	C8H8NOS+
166.0684	41	C9H12NS+
167.0764	26	C9H13NS+
168.0841	305	C9H14NS+
186.0145	23	C8H9ClNS+
