Mass spectrum: Pendimethalin; LC-ESI-QFT; MS2; CE: 30; R=35000; [M+H]+
Name: Pendimethalin
Name: (3,4-dimethyl-2,6-dinitro-phenyl)-(1-ethylpropyl)amine
Formula: C13H19N3O4
Exact mass: 281.13756
SMILES: [O-][N+](=O)c1c(c(cc([N+]([O-])=O)c1NC(CC)CC)C)C
InChI: InChI=1S/C13H19N3O4/c1-5-10(6-2)14-12-11(15(17)18)7-8(3)9(4)13(12)16(19)20/h7,10,14H,5-6H2,1-4H3
Instrument: Q Exactive Orbitrap Thermo Scientific
Instrument type: LC-ESI-QFT
Ms type: MS2
Ion mode: POSITIVE
Ionization: ESI
Fragmentation mode: HCD
Collision energy: 30 (nominal)
Resolution: 35000
Column name: XBridge C18 3.5um, 2.1x50mm, Waters
Retention time: 16.0 min
Base peak: 212.0667
Precursor m/z: 282.1448
Precursor type: [M+H]+
m/z	relative intensity	assigned
65.0387	1	C5H5+
66.0337	2	C4H4N+
67.0417	2	C4H5N+
68.0495	5	C4H6N+
71.0855	51	C5H11+
78.0338	9	C5H4N+
80.0495	14	C5H6N+
81.0573	3	C5H7N+
91.0416	15	C6H5N+
92.0495	2	C6H6N+
93.0447	4	C5H5N2+
93.0572	1	C6H7N+
94.0288	2	C5H4NO+
94.0526	2	C5H6N2+
96.0444	7	C5H6NO+
103.0292	2	C6H3N2+
105.0447	2	C6H5N2+
106.0289	1	C6H4NO+
107.0242	1	C5H3N2O+
107.0605	4	C6H7N2+
108.0444	8	C6H6NO+
108.0683	1	C6H8N2+
109.0522	3	C6H7NO+
117.0448	1	C7H5N2+
118.0525	46	C7H6N2+
119.0603	8	C7H7N2+
120.0443	3	C7H6NO+
121.0032	2	C5HN2O2+
121.0396	6	C6H5N2O+
124.0393	1	C6H6NO2+
126.055	2	C6H8NO2+
130.0526	2	C8H6N2+
131.024	2	C7H3N2O+
131.0479	2	C7H5N3+
131.0606	1	C8H7N2+
133.0398	4	C7H5N2O+
134.0603	2	C8H8NO+
135.0553	9	C7H7N2O+
136.0632	6	C7H8N2O+
145.0397	3	C8H5N2O+
146.0474	1	C8H6N2O+
147.0554	8	C8H7N2O+
148.0508	3	C7H6N3O+
148.0631	17	C8H8N2O+
149.0584	21	C7H7N3O+
150.0426	1	C7H6N2O2+
160.0506	1	C8H6N3O+
163.0499	2	C8H7N2O2+
164.0581	6	C8H8N2O2+
165.0659	5	C8H9N2O2+
166.0611	7	C7H8N3O2+
176.0453	2	C8H6N3O2+
177.0533	13	C8H7N3O2+
178.0612	9	C8H8N3O2+
179.0453	3	C8H7N2O3+
194.0561	282	C8H8N3O3+
195.0639	50	C8H9N3O3+
212.0666	999	C8H10N3O4+
