Mass spectrum: 2,6-Dichlorobenzamide; LC-ESI-ITFT; MS2; CE: 90%; R=30000; [M+H]+
Name: 2,6-Dichlorobenzamide
Name: 2,6-bis(chloranyl)benzamide
Formula: C7H5Cl2NO
Exact mass: 188.9748
SMILES: ClC1=C(C(N)=O)C(Cl)=CC=C1
InChI: InChI=1S/C7H5Cl2NO/c8-4-2-1-3-5(9)6(4)7(10)11/h1-3H,(H2,10,11)
Instrument: LTQ Orbitrap XL Thermo Scientific
Instrument type: LC-ESI-ITFT
Ms type: MS2
Ion mode: POSITIVE
Ionization: ESI
Fragmentation mode: HCD
Collision energy: 90 % (nominal)
Resolution: 30000
Column name: XBridge C18 3.5um, 2.1x50mm, Waters
Retention time: 4.0 min
Base peak: 189.9823
Precursor m/z: 189.9821
Precursor type: [M+H]+
m/z	relative intensity	assigned
62.9631	1	CClO+
63.0228	15	C5H3+
74.0151	11	C6H2+
75.0229	2	C6H3+
84.9839	26	C4H2Cl+
86.9632	53	C3ClO+
90.0337	21	C6H4N+
98.9995	4	C5H4Cl+
100.0181	24	C7H2N+
108.9839	209	C6H2Cl+
109.9919	3	C6H3Cl+
110.9995	2	C6H4Cl+
112.9788	6	C5H2ClO+
118.0287	10	C7H4NO+
120.9605	14	C4H3Cl2+
126.9944	11	C6H4ClO+
128.0022	8	C6H5ClO+
135.9947	14	C7H3ClN+
139.0056	18	C6H4ClN2+
143.9524	1	C6H2Cl2+
144.9605	90	C6H3Cl2+
154.0051	1	C7H5ClNO+
155.0005	6	C6H4ClN2O+
162.9711	14	C6H5Cl2O+
164.0009	109	C7H3ClN3+
171.9714	55	C7H4Cl2N+
172.9555	832	C7H3Cl2O+
172.9666	999	C6H3Cl2N2+
173.9636	7	C7H4Cl2O+
189.9819	3	C7H6Cl2NO+
