Mass spectrum: Imazamox; LC-ESI-ITFT; MS2; CE: 35%; R=30000; [M+H]+
Name: Imazamox
Name: 2-(4-isopropyl-5-keto-4-methyl-2-imidazolin-2-yl)-5-(methoxymethyl)nicotinic acid
Formula: C15H19N3O4
Exact mass: 305.1376
SMILES: O=C(O)c1c(ncc(c1)COC)/C2=N/C(C(=O)N2)(C(C)C)C
InChI: InChI=1S/C15H19N3O4/c1-8(2)15(3)14(21)17-12(18-15)11-10(13(19)20)5-9(6-16-11)7-22-4/h5-6,8H,7H2,1-4H3,(H,19,20)(H,17,18,21)
Instrument: LTQ Orbitrap XL Thermo Scientific
Instrument type: LC-ESI-ITFT
Ms type: MS2
Ion mode: POSITIVE
Ionization: ESI
Fragmentation mode: CID
Collision energy: 35 % (nominal)
Resolution: 30000
Column name: XBridge C18 3.5um, 2.1x50mm, Waters
Retention time: 5.7 min
Base peak: 306.1456
Precursor m/z: 306.1448
Precursor type: [M+H]+
m/z	relative intensity	assigned
114.0915	1	C6H12NO+
149.0709	8	C8H9N2O+
176.1072	1	C11H14NO+
191.0815	6	C10H11N2O2+
192.0768	26	C9H10N3O2+
193.0608	26	C9H9N2O3+
210.0873	5	C9H12N3O3+
217.1337	195	C13H17N2O+
218.0927	2	C11H12N3O2+
219.1128	5	C12H15N2O2+
220.0959	1	C12H14NO3+
220.1081	16	C11H14N3O2+
221.0927	1	C11H13N2O3+
234.1602	22	C13H20N3O+
235.0954	2	C11H13N3O3+
243.113	18	C14H15N2O2+
246.0874	167	C12H12N3O3+
260.1396	283	C14H18N3O2+
261.1235	738	C14H17N2O3+
262.1553	18	C14H20N3O2+
263.0895	5	C12H13N3O4+
264.0978	999	C12H14N3O4+
278.1501	505	C14H20N3O3+
288.1342	157	C15H18N3O3+
