Mass spectrum: Nitenpyram; LC-ESI-QFT; MS2; CE: 75%; R=17500; [M+H]+
Name: Nitenpyram
Name: N-((6-chloropyridin-3-yl)methyl)-N-ethyl-N`-methyl-2-nitroethene-1,1-diamine
Name: 1-N`-[(6-chloropyridin-3-yl)methyl]-1-N`-ethyl-1-N-methyl-2-nitroethene-1,1-diamine
Formula: C11H15ClN4O2
Exact mass: 270.0884
SMILES: CCN(CC1=CN=C(C=C1)Cl)C(=C[N+](=O)[O-])NC
InChI: InChI=1S/C11H15ClN4O2/c1-3-15(11(13-2)8-16(17)18)7-9-4-5-10(12)14-6-9/h4-6,8,13H,3,7H2,1-2H3
Instrument: Exploris 240 Orbitrap Thermo Scientific
Instrument type: LC-ESI-QFT
Ms type: MS2
Ion mode: POSITIVE
Ionization: ESI
Fragmentation mode: HCD
Collision energy: 75 % (nominal)
Resolution: 17500
Column name: XBridge C18 3.5um, 2.1x50mm, Waters
Retention time: 2.582 min
Base peak: 271.0955
Precursor m/z: 271.0956
Precursor type: [M+H]+
m/z	relative intensity	assigned
56.0495	999	C3H6N+
57.0447	13	C2H5N2+
57.0573	16	C3H7N+
58.0286	6	C2H4NO+
58.0651	54	C3H8N+
70.0525	8	C3H6N2+
70.0652	12	C4H8N+
71.0604	12	C3H7N2+
85.0396	9	C3H5N2O+
85.0758	5	C4H9N2+
86.0839	10	C4H10N2+
90.0338	12	C6H4N+
98.0717	14	C4H8N3+
98.9996	11	C5H4Cl+
99.0918	32	C5H11N2+
126.0106	142	C6H5ClN+
133.0759	11	C8H9N2+
141.0211	10	C6H6ClN2+
160.0869	11	C9H10N3+
167.0372	13	C8H8ClN2+
169.0528	36	C8H10ClN2+
179.0369	24	C9H8ClN2+
190.1345	5	C11H16N3+
195.0688	11	C10H12ClN2+
196.0637	16	C9H11ClN3+
224.0955	34	C11H15ClN3+
