Mass spectrum: Ketoprofen; LC-ESI-ITFT; MS2; CE: 45%; R=15000; [M+H]+
Name: Ketoprofen
Name: 2-(3-benzoylphenyl)propanoic acid
Formula: C16H14O3
Exact mass: 254.0943
SMILES: CC(C1=CC=CC(=C1)C(=O)C2=CC=CC=C2)C(=O)O
InChI: InChI=1S/C16H14O3/c1-11(16(18)19)13-8-5-9-14(10-13)15(17)12-6-3-2-4-7-12/h2-11H,1H3,(H,18,19)
Instrument: LTQ Orbitrap XL Thermo Scientific
Instrument type: LC-ESI-ITFT
Ms type: MS2
Ion mode: POSITIVE
Ionization: ESI
Fragmentation mode: HCD
Collision energy: 45 % (nominal)
Resolution: 15000
Column name: XBridge C18 3.5um, 2.1x50mm, Waters
Retention time: 9.6 min
Base peak: 277.0843
Precursor m/z: 255.1016
Precursor type: [M+H]+
m/z	relative intensity	assigned
53.0385	7	C4H5+
77.0386	29	C6H5+
93.0701	3	C7H9+
103.0543	11	C8H7+
105.0335	999	C7H5O+
131.0492	41	C9H7O+
177.0547	241	C10H9O3+
181.1012	6	C14H13+
194.0726	97	C14H10O+
209.0962	928	C15H13O+
255.1026	13	C16H15O3+
