Mass spectrum: Deprenyl; LC-ESI-QFT; MS2; CE: 30; R=35000; [M+H]+
Name: Deprenyl
Name: Selegiline
Name: (2R)-N-methyl-1-phenyl-N-prop-2-ynylpropan-2-amine
Formula: C13H17N
Exact mass: 187.13610
SMILES: C[C@H](Cc1ccccc1)N(C)CC#C
InChI: InChI=1S/C13H17N/c1-4-10-14(3)12(2)11-13-8-6-5-7-9-13/h1,5-9,12H,10-11H2,2-3H3/t12-/m1/s1
Instrument: Q Exactive Plus Orbitrap Thermo Scientific
Instrument type: LC-ESI-QFT
Ms type: MS2
Ion mode: POSITIVE
Ionization: ESI
Fragmentation mode: HCD
Collision energy: 30 (nominal)
Resolution: 35000
Column name: XBridge C18 3.5um, 2.1x50mm, Waters
Retention time: 4.1 min
Base peak: 188.1433
Precursor m/z: 188.1434
Precursor type: [M+H]+
m/z	relative intensity	assigned
65.0384	1	C5H5+
70.0651	208	C4H8N+
77.0384	1	C6H5+
91.0543	891	C7H7+
96.0809	4	C6H10N+
97.0885	2	C6H11N+
119.0856	999	C9H11+
148.1122	4	C10H14N+
188.1434	585	C13H18N+
