Mass spectrum: Venlafaxine; LC-ESI-QFT; MS2; CE: 30; R=35000; [M+H]+
Name: Venlafaxine
Name: 1-[2-(dimethylamino)-1-(4-methoxyphenyl)ethyl]-1-cyclohexanol
Formula: C17H27NO2
Exact mass: 277.20418
SMILES: CN(C)CC(C1=CC=C(C=C1)OC)C2(CCCCC2)O
InChI: InChI=1S/C17H27NO2/c1-18(2)13-16(17(19)11-5-4-6-12-17)14-7-9-15(20-3)10-8-14/h7-10,16,19H,4-6,11-13H2,1-3H3
Instrument: Q Exactive Orbitrap Thermo Scientific
Instrument type: LC-ESI-QFT
Ms type: MS2
Ion mode: POSITIVE
Ionization: ESI
Fragmentation mode: HCD
Collision energy: 30 (nominal)
Resolution: 35000
Column name: XBridge C18 3.5um, 2.1x50mm, Waters
Retention time: 6.2 min
Base peak: 278.2118
Precursor m/z: 278.2115
Precursor type: [M+H]+
m/z	relative intensity	assigned
58.0652	999	C3H8N+
79.0543	1	C6H7+
81.0699	2	C6H9+
107.0857	5	C8H11+
121.0649	119	C8H9O+
135.0804	3	C9H11O+
147.0805	45	C10H11O+
152.1435	4	C10H18N+
159.0806	10	C11H11O+
173.0963	10	C12H13O+
178.1228	1	C11H16NO+
215.1434	134	C15H19O+
260.2011	229	C17H26NO+
278.2116	81	C17H28NO2+
