Mass spectrum: Triflumuron; LC-ESI-QFT; MS2; CE: 45; R=35000; [M-H]-
Name: Triflumuron
Name: 2-chloranyl-N-[[4-(trifluoromethyloxy)phenyl]carbamoyl]benzamide
Formula: C15H10ClF3N2O3
Exact mass: 358.03320
SMILES: O=C(c1ccccc1Cl)NC(=O)Nc2ccc(OC(F)(F)F)cc2
InChI: InChI=1S/C15H10ClF3N2O3/c16-12-4-2-1-3-11(12)13(22)21-14(23)20-9-5-7-10(8-6-9)24-15(17,18)19/h1-8H,(H2,20,21,22,23)
Instrument: Q Exactive Orbitrap Thermo Scientific
Instrument type: LC-ESI-QFT
Ms type: MS2
Ion mode: NEGATIVE
Ionization: ESI
Fragmentation mode: HCD
Collision energy: 45 (nominal)
Resolution: 35000
Column name: XBridge C18 3.5um, 2.1x50mm, Waters
Retention time: 13.8 min
Base peak: 357.0262
Precursor m/z: 357.0259
Precursor type: [M-H]-
m/z	relative intensity	assigned
68.9957	19	CF3-
77.9753	2	CHClNO-
78.035	1	C5H4N-
84.9907	999	CF3O-
106.0299	8	C6H4NO-
107.0376	24	C6H5NO-
110.0412	107	C6H5FN-
132.0332	1	C7H4N2O-
136.0202	1	C7H3FNO-
154.0065	89	C7H5ClNO-
176.0327	526	C7H5F3NO-
201.0283	3	C8H4F3N2O-
