Mass spectrum: Lovastatin; LC-ESI-QFT; MS2; CE: 30; R=35000; [M+H]+
Name: Lovastatin
Name: (1S,3R,7S,8S,8aR)-8-{2-[(2R,4R)-4-hydroxy-6-oxotetrahydro-2H-pyran-2-yl]ethyl}-3,7-dimethyl-1,2,3,7,8,8a-hexahydronaphthalen-1-yl (2S)-2-methylbutanoate
Name: (2S)-2-methylbutanoic acid [(1S,3R,7S,8S,8aR)-8-[2-[(2R,4R)-4-hydroxy-6-oxo-2-oxanyl]ethyl]-3,7-dimethyl-1,2,3,7,8,8a-hexahydronaphthalen-1-yl] ester
Formula: C24H36O5
Exact mass: 404.25627
SMILES: O=C(O[C@@H]1[C@H]3C(=C/[C@H](C)C1)\C=C/[C@@H]([C@@H]3CC[C@H]2OC(=O)C[C@H](O)C2)C)[C@@H](C)CC
InChI: InChI=1S/C24H36O5/c1-5-15(3)24(27)29-21-11-14(2)10-17-7-6-16(4)20(23(17)21)9-8-19-12-18(25)13-22(26)28-19/h6-7,10,14-16,18-21,23,25H,5,8-9,11-13H2,1-4H3/t14-,15-,16-,18+,19+,20-,21-,23-/m0/s1
Instrument: Q Exactive Orbitrap Thermo Scientific
Instrument type: LC-ESI-QFT
Ms type: MS2
Ion mode: POSITIVE
Ionization: ESI
Fragmentation mode: HCD
Collision energy: 30 (nominal)
Resolution: 35000
Column name: XBridge C18 3.5um, 2.1x50mm, Waters
Retention time: 15.3 min
Base peak: 405.2632
Precursor m/z: 405.2636
Precursor type: [M+H]+
m/z	relative intensity	assigned
55.0541	2	C4H7+
67.0542	4	C5H7+
69.0698	21	C5H9+
71.0127	2	C3H3O2+
71.0491	2	C4H7O+
79.0542	102	C6H7+
81.0699	106	C6H9+
83.0491	44	C5H7O+
83.0856	10	C6H11+
85.0647	19	C5H9O+
89.0232	17	C3H5O3+
91.0541	2	C7H7+
93.0699	32	C7H9+
95.0855	28	C7H11+
97.0648	62	C6H9O+
99.0804	4	C6H11O+
105.0699	63	C8H9+
107.0492	23	C7H7O+
107.0855	95	C8H11+
109.0649	4	C7H9O+
109.1012	8	C8H13+
111.0805	3	C7H11O+
117.0696	2	C9H9+
119.0854	35	C9H11+
121.0648	2	C8H9O+
121.1011	34	C9H13+
123.0803	4	C8H11O+
125.0597	30	C7H9O2+
127.0754	9	C7H11O2+
128.0618	3	C10H8+
129.0697	2	C10H9+
131.0855	62	C10H11+
133.1011	41	C10H13+
135.0803	8	C9H11O+
135.1168	9	C10H15+
141.0696	2	C11H9+
142.0775	2	C11H10+
143.0705	35	C7H11O3+
143.0856	92	C11H11+
145.1012	111	C11H13+
147.1169	18	C11H15+
149.0964	4	C10H13O+
151.0754	15	C9H11O2+
155.0854	21	C12H11+
157.1012	108	C12H13+
159.1168	197	C12H15+
160.125	2	C12H16+
161.1325	9	C12H17+
163.1119	11	C11H15O+
165.0911	9	C10H13O2+
167.0853	2	C13H11+
169.1012	127	C13H13+
171.1168	177	C13H15+
173.1325	622	C13H17+
177.0907	8	C11H13O2+
177.1273	2	C12H17O+
181.1012	16	C14H13+
183.1168	70	C14H15+
185.0958	3	C13H13O+
185.1326	45	C14H17+
187.1115	2	C13H15O+
187.1483	2	C14H19+
189.0911	10	C12H13O2+
191.1067	62	C12H15O2+
193.1012	11	C15H13+
193.1222	2	C12H17O2+
195.1166	10	C15H15+
197.1325	68	C15H17+
199.1481	999	C15H19+
201.1637	243	C15H21+
203.1058	3	C13H15O2+
205.1015	2	C16H13+
205.1222	23	C13H17O2+
207.1167	32	C16H15+
208.1248	2	C16H16+
209.117	8	C12H17O3+
209.1327	3	C16H17+
211.1117	27	C15H15O+
211.1482	56	C16H19+
213.1637	8	C16H21+
215.1795	34	C16H23+
220.1251	3	C17H16+
221.1327	10	C17H17+
223.1482	128	C17H19+
225.1637	652	C17H21+
229.1222	28	C15H17O2+
234.1403	8	C18H18+
239.1435	15	C17H19O+
239.1794	167	C18H23+
243.1744	343	C17H23O+
249.1639	197	C19H21+
257.1535	4	C17H21O2+
267.1744	132	C19H23O+
285.1851	169	C19H25O2+
303.1953	29	C19H27O3+
