Mass spectrum: Metamitron; LC-ESI-ITFT; MS2; CE: 90%; R=30000; [M+H]+
Name: Metamitron
Name: 4-Amino-4,5-dihydro-3-methyl-6-phenyl-1,2,4-triazin-5-one
Name: 4-amino-3-methyl-6-phenyl-1,2,4-triazin-5-one
Formula: C10H10N4O
Exact mass: 202.0860
SMILES: c(ccc1C(=NN=C2C)C(=O)N2N)cc1
InChI: InChI=1S/C10H10N4O/c1-7-12-13-9(10(15)14(7)11)8-5-3-2-4-6-8/h2-6H,11H2,1H3
Instrument: LTQ Orbitrap XL Thermo Scientific
Instrument type: LC-ESI-ITFT
Ms type: MS2
Ion mode: POSITIVE
Ionization: ESI
Fragmentation mode: HCD
Collision energy: 90 % (nominal)
Resolution: 30000
Column name: XBridge C18 3.5um, 2.1x50mm, Waters
Retention time: 4.9 min
Base peak: 203.093
Precursor m/z: 203.0927
Precursor type: [M+H]+
m/z	relative intensity	assigned
53.0386	9	C4H5+
56.013	18	C2H2NO+
57.0447	57	C2H5N2+
59.024	13	CH3N2O+
65.0385	20	C5H5+
72.0556	8	C2H6N3+
77.0386	178	C6H5+
79.0542	77	C6H7+
80.0495	11	C5H6N+
83.024	34	C3H3N2O+
89.0386	44	C7H5+
91.0543	8	C7H7+
92.0258	7	C6H4O+
92.0495	47	C6H6N+
93.0573	10	C6H7N+
94.0413	9	C6H6O+
95.0491	24	C6H7O+
103.0542	7	C8H7+
104.0495	999	C7H6N+
105.0447	55	C6H5N2+
105.0573	40	C7H7N+
106.0652	19	C7H8N+
107.0604	18	C6H7N2+
116.0496	7	C8H6N+
117.0447	13	C7H5N2+
118.0526	73	C7H6N2+
119.0604	10	C7H7N2+
130.0652	28	C9H8N+
159.0791	28	C9H9N3+
174.0788	27	C10H10N2O+
175.0979	103	C9H11N4+
