Mass spectrum: Olopatadine; LC-ESI-QFT; MS2; CE: 30; R=35000; [M-H]-
Name: Olopatadine
Name: 2-[(11Z)-11-[3-(dimethylazaniumyl)propylidene]-6H-benzo[c][1]benzoxepin-2-yl]acetate
Formula: C21H23NO3
Exact mass: 337.16779
SMILES: CN(C)CC/C=C\1/C2=CC=CC=C2COC3=C1C=C(C=C3)CC(=O)O
InChI: InChI=1S/C21H23NO3/c1-22(2)11-5-8-18-17-7-4-3-6-16(17)14-25-20-10-9-15(12-19(18)20)13-21(23)24/h3-4,6-10,12H,5,11,13-14H2,1-2H3,(H,23,24)/b18-8-
Instrument: Q Exactive Orbitrap Thermo Scientific
Instrument type: LC-ESI-QFT
Ms type: MS2
Ion mode: NEGATIVE
Ionization: ESI
Fragmentation mode: HCD
Collision energy: 30 (nominal)
Resolution: 35000
Column name: XBridge C18 3.5um, 2.1x50mm, Waters
Retention time: 7.0 min
Base peak: 336.1606
Precursor m/z: 336.1605
Precursor type: [M-H]-
m/z	relative intensity	assigned
81.0347	2	C5H5O-
93.0346	28	C6H5O-
106.0425	1	C7H6O-
107.0502	14	C7H7O-
115.0554	3	C9H7-
132.058	4	C9H8O-
141.0709	3	C11H9-
165.0709	9	C13H9-
179.0865	1	C14H11-
186.1288	5	C13H16N-
191.0866	23	C15H11-
193.0657	8	C14H9O-
193.102	2	C15H13-
194.0735	1	C14H10O-
198.1288	15	C14H16N-
202.0787	1	C16H10-
205.1021	5	C16H13-
206.0735	18	C15H10O-
206.1102	1	C16H14-
207.0813	26	C15H11O-
208.0526	1	C14H8O2-
208.0892	23	C15H12O-
210.1053	3	C15H14O-
212.1438	1	C15H18N-
216.0943	14	C17H12-
217.0657	6	C16H9O-
218.0738	4	C16H10O-
219.0814	83	C16H11O-
219.1179	6	C17H15-
220.0894	25	C16H12O-
221.0607	4	C15H9O2-
221.097	4	C16H13O-
229.1021	69	C18H13-
230.0737	1	C17H10O-
230.1096	3	C18H14-
231.0811	4	C17H11O-
231.1179	13	C18H15-
232.0892	18	C17H12O-
233.0971	9	C17H13O-
234.0686	2	C16H10O2-
234.1049	21	C17H14O-
235.1128	1	C17H15O-
245.0965	6	C18H13O-
246.1051	1	C18H14O-
247.1126	532	C18H15O-
248.1205	37	C18H16O-
249.1279	4	C18H17O-
250.1604	7	C18H20N-
259.1359	8	C19H17N-
264.1756	65	C19H22N-
274.1601	135	C20H20N-
277.1471	1	C19H19NO-
280.1103	24	C18H16O3-
290.1547	9	C20H20NO-
292.1705	999	C20H22NO-
