Mass spectrum: Acifluorfen; LC-ESI-QFT; MS2; CE: 75; R=35000; [M-H]-
Name: Acifluorfen
Name: 5-[2-chloranyl-4-(trifluoromethyl)phenoxy]-2-nitro-benzoic acid
Formula: C14H7ClF3NO5
Exact mass: 360.99648
SMILES: Clc2cc(ccc2Oc1cc(C(=O)O)c([N+]([O-])=O)cc1)C(F)(F)F
InChI: InChI=1S/C14H7ClF3NO5/c15-10-5-7(14(16,17)18)1-4-12(10)24-8-2-3-11(19(22)23)9(6-8)13(20)21/h1-6H,(H,20,21)
Instrument: Q Exactive Orbitrap Thermo Scientific
Instrument type: LC-ESI-QFT
Ms type: MS2
Ion mode: NEGATIVE
Ionization: ESI
Fragmentation mode: HCD
Collision energy: 75 (nominal)
Resolution: 35000
Column name: XBridge C18 3.5um, 2.1x50mm, Waters
Retention time: 12.3 min
Base peak: 315.9994
Precursor m/z: 359.9892
Precursor type: [M-H]-
m/z	relative intensity	assigned
65.9985	2	C3NO-
69.0346	54	C4H5O-
79.0191	1	C5H3O-
95.0139	4	C5H3O2-
97.0295	44	C5H5O2-
107.0139	7	C6H3O2-
110.0164	1	C9H2-
125.0245	18	C6H5O3-
134.0163	10	C11H2-
137.0119	15	C6H3NO3-
139.0001	2	C7HF2O-
154.0224	9	C11H3F-
154.9707	8	C7HClFO-
158.0172	1	C10H3FO-
159.0063	43	C7H2F3O-
172.9808	4	C7H3ClFO2-
174.0288	4	C11H4F2-
174.9767	209	C7H2ClF2O-
182.0174	19	C12H3FO-
194.983	999	C7H3ClF3O-
202.0238	18	C12H4F2O-
222.0298	69	C12H5F3O-
284.9937	1	C13H5ClF3O2-
