Mass spectrum: Paroxetine; LC-ESI-QFT; MS2; CE: 45; R=35000; [M+H]+
Name: Paroxetine
Name: 3-[(1,3-Benzodioxol-5-yloxy)methyl]-4-(4-fluorophenyl)piperidine
Name: 3-(1,3-benzodioxol-5-yloxymethyl)-4-(4-fluorophenyl)piperidine
Formula: C19H20FNO3
Exact mass: 329.14272
SMILES: C1CNCC(C1C2=CC=C(C=C2)F)COC3=CC4=C(C=C3)OCO4
InChI: InChI=1S/C19H20FNO3/c20-15-3-1-13(2-4-15)17-7-8-21-10-14(17)11-22-16-5-6-18-19(9-16)24-12-23-18/h1-6,9,14,17,21H,7-8,10-12H2
Instrument: Q Exactive Plus Orbitrap Thermo Scientific
Instrument type: LC-ESI-QFT
Ms type: MS2
Ion mode: POSITIVE
Ionization: ESI
Fragmentation mode: HCD
Collision energy: 45 (nominal)
Resolution: 35000
Column name: XBridge C18 3.5um, 2.1x50mm, Waters
Retention time: 7.8 min
Base peak: 330.1493
Precursor m/z: 330.15
Precursor type: [M+H]+
m/z	relative intensity	assigned
53.0022	2	C3HO+
56.0495	69	C3H6N+
57.0573	17	C3H7N+
58.0652	12	C3H8N+
65.0386	2	C5H5+
67.0542	3	C5H7+
68.0495	32	C4H6N+
69.0573	2	C4H7N+
70.0651	999	C4H8N+
71.0729	16	C4H9N+
80.0621	1	C6H8+
82.0652	31	C5H8N+
83.0729	9	C5H9N+
84.0808	25	C5H10N+
86.06	12	C4H8NO+
93.0335	12	C6H5O+
96.0808	11	C6H10N+
97.0887	45	C6H11N+
103.0542	4	C8H7+
109.0285	10	C6H5O2+
109.0449	97	C7H6F+
111.0439	4	C6H7O2+
123.0441	66	C7H7O2+
123.0605	137	C8H8F+
133.045	2	C9H6F+
135.044	6	C8H7O2+
135.0605	67	C9H8F+
136.0684	28	C9H9F+
137.0762	15	C9H10F+
138.0715	18	C8H9FN+
139.0391	15	C7H7O3+
143.0856	1	C11H11+
147.0444	3	C9H7O2+
147.0606	27	C10H8F+
148.0683	16	C10H9F+
149.0763	15	C10H10F+
150.0715	27	C9H9FN+
150.0841	6	C10H11F+
151.0391	171	C8H7O3+
160.0521	1	C10H8O2+
160.0683	1	C11H9F+
161.0603	3	C10H9O2+
161.0762	60	C11H10F+
163.0918	133	C11H12F+
164.0871	31	C10H11FN+
175.0389	1	C10H7O3+
175.092	10	C12H12F+
176.0471	2	C10H8O3+
176.0997	29	C12H13F+
177.0549	2	C10H9O3+
178.1028	114	C11H13FN+
190.1027	11	C12H13FN+
192.1184	553	C12H15FN+
193.1263	27	C12H16FN+
208.1132	3	C12H15FNO+
313.1235	4	C19H18FO3+
330.1501	134	C19H21FNO3+
