Mass spectrum: Flumioxazin; LC-ESI-QFT; MS2; CE: 90; R=35000; [M+H]+
Name: Flumioxazin
Name: 2-(7-fluoranyl-3-oxidanylidene-4-prop-2-ynyl-1,4-benzoxazin-6-yl)-4,5,6,7-tetrahydroisoindole-1,3-dione
Formula: C19H15FN2O4
Exact mass: 354.10159
SMILES: O=C3\C4=C(/C(=O)N3c2c(F)cc1OCC(=O)N(c1c2)CC#C)CCCC4
InChI: InChI=1S/C19H15FN2O4/c1-2-7-21-15-9-14(13(20)8-16(15)26-10-17(21)23)22-18(24)11-5-3-4-6-12(11)19(22)25/h1,8-9H,3-7,10H2
Instrument: Q Exactive Orbitrap Thermo Scientific
Instrument type: LC-ESI-QFT
Ms type: MS2
Ion mode: POSITIVE
Ionization: ESI
Fragmentation mode: HCD
Collision energy: 90 (nominal)
Resolution: 35000
Column name: XBridge C18 3.5um, 2.1x50mm, Waters
Retention time: 9.7 min
Base peak: 355.1088
Precursor m/z: 355.1089
Precursor type: [M+H]+
m/z	relative intensity	assigned
53.0388	44	C4H5+
55.0181	5	C3H3O+
63.023	16	
65.0386	41	C5H5+
66.0464	4	C5H6+
67.0179	6	C4H3O+
67.0543	40	C5H7+
68.0257	4	C4H4O+
68.0495	36	C4H6N+
69.0335	16	C4H5O+
75.0229	121	C6H3+
76.0182	13	C5H2N+
77.0385	318	C6H5+
78.0338	47	C5H4N+
78.0464	8	C6H6+
79.0542	999	C6H7+
80.0495	8	C5H6N+
80.062	89	C6H8+
81.0335	30	C5H5O+
81.0699	61	C6H9+
83.0291	63	C5H4F+
89.0384	27	C7H5+
91.0542	91	C7H7+
92.0494	7	C6H6N+
93.0573	7	C6H7N+
95.0491	565	C6H7O+
96.0243	29	C5H3FN+
96.0443	21	C5H6NO+
97.0447	4	C6H6F+
97.0649	5	C6H9O+
101.0385	86	C8H5+
102.0337	15	C7H4N+
103.0542	20	C8H7+
104.0495	49	C7H6N+
105.0335	31	C7H5O+
105.0447	391	C6H5N2+
106.0287	15	C6H4NO+
106.0649	4	C7H8N+
107.0291	147	C7H4F+
107.0491	276	C7H7O+
108.0243	32	C6H3FN+
108.0369	20	C7H5F+
108.0569	16	C7H8O+
109.0447	27	C7H6F+
110.0402	34	C6H5FN+
111.024	8	C6H4FO+
114.034	35	
115.0543	40	C9H7+
116.0494	58	C8H6N+
117.0573	27	C8H7N+
118.0286	8	C7H4NO+
118.0652	19	C8H8N+
119.0491	94	C8H7O+
120.037	32	C8H5F+
121.0447	374	C8H6F+
122.04	113	C7H5FN+
123.0239	7	C7H4FO+
123.0351	37	C6H4FN2+
124.0192	125	C6H3FNO+
124.0558	8	C7H7FN+
126.0346	31	C6H5FNO+
128.0495	239	C9H6N+
129.0446	402	C8H5N2+
130.0652	22	C9H8N+
132.0444	16	C8H6NO+
133.0447	56	C9H6F+
134.0236	24	C7H4NO2+
134.0399	144	C8H5FN+
134.0599	20	C8H8NO+
135.024	6	C8H4FO+
135.043	7	C6H5N3O+
135.0478	119	C8H6FN+
136.0193	30	C7H3FNO+
136.0317	5	C8H5FO+
136.0558	37	C8H7FN+
137.027	15	C7H4FNO+
138.0349	155	C7H5FNO+
139.054	16	C11H7+
140.0494	70	C10H6N+
141.0448	16	C9H5N2+
141.0572	16	C10H7N+
141.0698	7	C11H9+
142.0526	7	C9H6N2+
142.0652	5	C10H8N+
143.0606	28	C9H7N2+
144.0443	15	C9H6NO+
145.0765	5	C9H9N2+
146.0401	72	C9H5FN+
146.0529	8	C10H7F+
146.0601	43	C9H8NO+
147.0354	20	C8H4FN2+
147.048	40	C9H6FN+
148.0556	610	C9H7FN+
149.0397	80	C9H6FO+
149.0508	50	C8H6FN2+
149.0634	67	C9H8FN+
150.0349	102	C8H5FNO+
151.0301	82	C7H4FN2O+
151.0429	14	C8H6FNO+
152.0142	136	C7H3FNO2+
152.038	14	C7H5FN2O+
152.0505	34	C8H7FNO+
153.0454	20	C7H6FN2O+
153.0574	14	C11H7N+
153.0699	15	C12H9+
154.0301	8	C7H5FNO2+
154.0399	33	C9H4N3+
154.0649	82	C11H8N+
155.0603	81	C10H7N2+
155.0727	6	C11H9N+
156.0443	67	C10H6NO+
156.0679	4	C10H8N2+
157.0523	7	C10H7NO+
157.076	5	C10H9N2+
158.0399	24	C10H5FN+
158.0603	4	C10H8NO+
159.0482	11	C10H6FN+
159.0606	4	C11H8F+
160.0434	44	C9H5FN2+
160.0559	32	C10H7FN+
161.0512	31	C9H6FN2+
161.0634	23	C10H8FN+
162.0349	55	C9H5FNO+
162.0584	7	C9H7FN2+
162.0713	9	C10H9FN+
163.0301	129	C8H4FN2O+
163.0423	36	C9H6FNO+
163.0665	30	C9H8FN2+
164.0504	77	C9H7FNO+
165.0458	31	C8H6FN2O+
165.07	17	C13H9+
166.0298	18	C8H5FNO2+
166.0654	61	
167.0728	83	C12H9N+
168.0448	4	C11H6NO+
168.0808	24	C12H10N+
169.0651	5	C12H9O+
169.0761	24	C11H9N2+
170.0598	24	C11H8NO+
171.0355	4	C10H4FN2+
171.0483	10	C11H6FN+
171.0551	42	C10H7N2O+
172.0392	4	C10H6NO2+
172.0556	60	C11H7FN+
173.0509	56	C10H6FN2+
173.0634	19	C11H8FN+
174.035	25	C10H5FNO+
174.0591	8	C10H7FN2+
174.0711	33	C11H9FN+
175.0425	42	C10H6FNO+
175.0665	16	C10H8FN2+
176.0381	16	C9H5FN2O+
176.0505	191	C10H7FNO+
177.0458	91	C9H6FN2O+
177.0578	61	C10H8FNO+
178.0295	15	C9H5FNO2+
178.0535	23	C9H7FN2O+
178.0651	45	C13H8N+
179.0251	221	C8H4FN2O2+
180.0451	6	C9H7FNO2+
180.0682	20	C12H8N2+
180.0805	38	C13H10N+
181.0755	32	C12H9N2+
181.0885	5	C13H11N+
182.06	25	C12H8NO+
182.0964	4	C13H12N+
183.0547	32	C11H7N2O+
183.0679	4	C12H9NO+
184.0394	20	C11H6NO2+
184.0559	47	C12H7FN+
184.0755	5	C12H10NO+
185.0635	58	C12H8FN+
185.0702	6	C11H9N2O+
186.0588	31	C11H7FN2+
186.0709	39	C12H9FN+
187.0668	24	C11H8FN2+
187.0795	6	C12H10FN+
188.0506	71	C11H7FNO+
188.0871	6	C12H11FN+
189.0459	81	C10H6FN2O+
190.0298	28	C10H5FNO2+
190.0533	24	C10H7FN2O+
190.0654	22	C14H8N+
191.0251	69	C9H4FN2O2+
191.0607	40	C10H8FN2O+
191.0733	26	C14H9N+
192.0685	54	C13H8N2+
192.0809	16	C14H10N+
193.0409	18	C9H6FN2O2+
193.076	38	C13H9N2+
194.0605	15	C10H9FNO2+
194.084	15	C13H10N2+
195.0553	19	C12H7N2O+
195.0912	28	C13H11N2+
196.0556	14	C13H7FN+
196.0761	5	C13H10NO+
197.051	16	C12H6FN2+
197.0633	17	C13H8FN+
197.071	5	C12H9N2O+
198.0712	47	C13H9FN+
199.0503	28	C11H7N2O2+
199.0666	22	C12H8FN2+
200.0507	22	C12H7FNO+
200.074	17	C12H9FN2+
200.0871	29	C13H11FN+
201.0456	44	C11H6FN2O+
201.0584	20	C12H8FNO+
201.0824	20	C12H10FN2+
202.0538	23	C11H7FN2O+
202.0659	28	C12H9FNO+
203.0377	7	C11H6FNO2+
203.0612	76	C11H8FN2O+
203.0728	6	C15H9N+
204.0457	42	C11H7FNO2+
205.041	63	C10H6FN2O2+
205.0757	45	C14H9N2+
206.0601	6	C14H8NO+
206.084	7	C14H10N2+
207.0686	5	C11H10FNO2+
207.0918	15	C14H11N2+
208.0637	8	C13H8N2O+
209.0712	23	C13H9N2O+
210.0586	56	C13H7FN2+
210.0714	22	C14H9FN+
211.0507	31	C12H7N2O2+
211.0668	31	C13H8FN2+
211.0794	14	C14H10FN+
212.0507	45	C13H7FNO+
212.0868	81	C14H11FN+
213.0462	30	C12H6FN2O+
213.0574	4	C16H7N+
213.0823	16	C13H10FN2+
214.0659	31	C13H9FNO+
215.0616	43	C12H8FN2O+
215.0977	6	C13H12FN2+
216.0459	14	C12H7FNO2+
216.0692	8	C12H9FN2O+
216.0816	8	C13H11FNO+
217.0408	7	C11H6FN2O2+
217.0762	28	C12H10FN2O+
218.0834	8	C15H10N2+
219.0564	128	C11H8FN2O2+
219.0923	16	C15H11N2+
220.0757	18	C15H10NO+
221.0709	34	C14H9N2O+
222.0559	15	C14H8NO2+
222.0795	12	C14H10N2O+
222.0909	4	C15H12NO+
223.0502	25	C13H7N2O2+
223.0666	46	C14H8FN2+
223.0866	23	C14H11N2O+
224.0579	5	C13H8N2O2+
224.0742	14	C14H9FN2+
225.0575	5	C17H7N+
225.0671	5	C10H10FN2O3+
225.0824	7	C14H10FN2+
226.0537	27	C13H7FN2O+
226.0666	14	C14H9FNO+
227.0618	26	C13H8FN2O+
228.0457	8	C13H7FNO2+
228.0695	7	C13H9FN2O+
228.0813	7	C14H11FNO+
229.077	33	C13H10FN2O+
230.0614	17	C13H9FNO2+
231.0563	73	C12H8FN2O2+
231.0921	6	C16H11N2+
232.0412	28	C12H7FNO3+
235.0667	20	C15H8FN2+
235.0862	7	C15H11N2O+
236.0721	8	C12H11FNO3+
237.066	20	C14H9N2O2+
237.0827	8	C15H10FN2+
238.0658	6	C15H9FNO+
239.0614	75	C14H8FN2O+
239.0974	4	C15H12FN2+
240.0693	15	C14H9FN2O+
240.0818	29	C15H11FNO+
241.0773	8	C14H10FN2O+
243.0567	25	C13H8FN2O2+
243.0925	8	C14H12FN2O+
245.0723	6	C13H10FN2O2+
246.0555	4	C13H9FNO3+
247.0521	4	C12H8FN2O3+
249.0662	6	C15H9N2O2+
251.0614	10	C15H8FN2O+
251.0819	18	C15H11N2O2+
252.0697	15	C15H9FN2O+
253.0773	20	C15H10FN2O+
257.0721	14	C14H10FN2O2+
259.0512	231	C13H8FN2O3+
265.0775	19	C16H10FN2O+
270.0568	8	C15H9FNO3+
271.0513	9	C14H8FN2O3+
271.0873	7	C15H12FN2O2+
279.0763	4	C16H11N2O3+
285.0668	6	C15H10FN2O3+
287.083	20	C15H12FN2O3+
299.0824	6	C16H12FN2O3+
