Mass spectrum: Propyphenazone; LC-ESI-QFT; MS2; CE: 150%; R=15000; [M+H]+
Name: Propyphenazone
Name: 1,5-dimethyl-2-phenyl-4-propan-2-ylpyrazol-3-one
Formula: C14H18N2O
Exact mass: 230.1419
SMILES: CC1=C(C(=O)N(N1C)C2=CC=CC=C2)C(C)C
InChI: InChI=1S/C14H18N2O/c1-10(2)13-11(3)15(4)16(14(13)17)12-8-6-5-7-9-12/h5-10H,1-4H3
Instrument: Orbitrap Exploris 240 Thermo Scientific
Instrument type: LC-ESI-QFT
Ms type: MS2
Ion mode: POSITIVE
Ionization: ESI
Fragmentation mode: HCD
Collision energy: 150 % (nominal)
Resolution: 15000
Column name: Atlantis C18 3um, 3.0x150mm, Waters
Retention time: 17.440 min
Base peak: 231.149
Precursor m/z: 231.1492
Precursor type: [M+H]+
Precursor intensity: 2162391296
m/z	relative intensity	assigned
51.023	155	C4H3+
53.0385	77	C4H5+
55.0543	43	C4H7+
56.0495	999	C3H6N+
65.0386	123	C5H5+
67.0417	75	C4H5N+
77.0386	323	C6H5+
79.0543	28	C6H7+
80.0495	66	C5H6N+
81.0572	27	C5H7N+
82.0651	169	C5H8N+
91.0544	49	C7H7+
92.0497	35	C6H6N+
94.065	62	C6H8N+
95.0491	96	C6H7O+
96.0807	34	C6H10N+
104.0497	19	C7H6N+
105.0446	94	C6H5N2+
115.0545	50	C9H7+
117.0574	34	C8H7N+
130.0652	42	C9H8N+
