Mass spectrum: Rimantadine; LC-ESI-QFT; MS2; CE: 90; R=35000; [M+H]+
Name: Rimantadine
Name: 1-(1-adamantyl)ethanamine
Formula: C12H21N
Exact mass: 179.16740
SMILES: NC(C)C13CC2CC(CC(C1)C2)C3
InChI: InChI=1S/C12H21N/c1-8(13)12-5-9-2-10(6-12)4-11(3-9)7-12/h8-11H,2-7,13H2,1H3
Instrument: Q Exactive Orbitrap Thermo Scientific
Instrument type: LC-ESI-QFT
Ms type: MS2
Ion mode: POSITIVE
Ionization: ESI
Fragmentation mode: HCD
Collision energy: 90 (nominal)
Resolution: 35000
Column name: XBridge C18 3.5um, 2.1x50mm, Waters
Retention time: 6.5 min
Base peak: 180.1746
Precursor m/z: 180.1747
Precursor type: [M+H]+
m/z	relative intensity	assigned
53.0384	1	C4H5+
55.0541	1	C4H7+
57.0698	9	C4H9+
65.0385	10	C5H5+
67.0542	257	C5H7+
69.0698	79	C5H9+
71.0855	1	C5H11+
77.0384	21	C6H5+
79.0542	499	C6H7+
81.0698	999	C6H9+
83.0855	54	C6H11+
91.0542	111	C7H7+
93.0698	637	C7H9+
95.0491	49	C6H7O+
95.0855	339	C7H11+
97.1012	22	C7H13+
105.0447	18	C6H5N2+
105.0699	41	C8H9+
107.0855	700	C8H11+
109.0648	12	C7H9O+
109.1011	25	C8H13+
119.0604	5	C7H7N2+
119.0854	8	C9H11+
121.1011	446	C9H13+
135.1167	301	C10H15+
161.1323	2	C12H17+
163.1481	996	C12H19+
180.1744	6	C12H22N+
