Mass spectrum: Nordiazepam; LC-ESI-QFT; MS2; CE: 15; R=35000; [M+H]+
Name: Nordiazepam
Name: Nordazepam (1-Demethyldiazepam)
Name: 7-chloro-5-phenyl-1,3-dihydro-1,4-benzodiazepin-2-one
Formula: C15H11ClN2O
Exact mass: 270.05599
SMILES: C1C(=O)NC2=C(C=C(C=C2)Cl)C(=N1)C3=CC=CC=C3
InChI: InChI=1S/C15H11ClN2O/c16-11-6-7-13-12(8-11)15(17-9-14(19)18-13)10-4-2-1-3-5-10/h1-8H,9H2,(H,18,19)
Instrument: Q Exactive Plus Orbitrap Thermo Scientific
Instrument type: LC-ESI-QFT
Ms type: MS2
Ion mode: POSITIVE
Ionization: ESI
Fragmentation mode: HCD
Collision energy: 15 (nominal)
Resolution: 35000
Column name: XBridge C18 3.5um, 2.1x50mm, Waters
Retention time: 9.3 min
Base peak: 271.0623
Precursor m/z: 271.0633
Precursor type: [M+H]+
m/z	relative intensity	assigned
271.0629	999	C15H12ClN2O+
