Mass spectrum: Morphine; LC-ESI-ITFT; MS2; CE: 60%; R=7500; [M+H]+
Name: Morphine
Name: (4R,4aR,7S,7aR,12bS)-3-methyl-2,4,4a,7,7a,13-hexahydro-1H-4,12-methanobenzofuro[3,2-e]isoquinoline-7,9-diol
Formula: C17H19NO3
Exact mass: 285.1364935
SMILES: CN1CC[C@]23[C@@H]4[C@H]1CC5=C2C(=C(C=C5)O)O[C@H]3[C@H](C=C4)O
InChI: InChI=1S/C17H19NO3/c1-18-7-6-17-10-3-5-13(20)16(17)21-15-12(19)4-2-9(14(15)17)8-11(10)18/h2-5,10-11,13,16,19-20H,6-8H2,1H3/t10-,11+,13-,16-,17-/m0/s1
Instrument: LTQ Orbitrap XL Thermo Scientific
Instrument type: LC-ESI-ITFT
Ms type: MS2
Ion mode: POSITIVE
Ionization: ESI
Fragmentation mode: HCD
Collision energy: 60 % (nominal)
Resolution: 7500
Column name: XBridge C18 3.5um, 2.1x50mm, Waters
Retention time: 1.1 min
Base peak: 286.1448
Precursor m/z: 286.1438
Precursor type: [M+H]+
m/z	relative intensity	assigned
57.0337	7	C3H5O+
58.0652	66	C3H8N+
93.0699	7	C7H9+
117.0702	6	C9H9+
121.065	20	C8H9O+
123.0441	26	C7H7O2+
132.0807	5	C9H10N+
135.0439	6	C8H7O2+
141.0704	10	C11H9+
144.0571	9	C10H8O+
145.0648	59	C10H9O+
147.044	72	C9H7O2+
149.0602	6	C9H9O2+
153.07	46	C12H9+
155.0858	100	C12H11+
157.0649	59	C11H9O+
161.0598	18	C10H9O2+
164.1062	5	C10H14NO+
165.0701	108	C13H9+
167.0855	8	C13H11+
169.0647	13	C12H9O+
171.0445	17	C11H7O2+
171.0808	22	C12H11O+
173.0598	106	C11H9O2+
173.0962	33	C12H13O+
178.0863	21	C10H12NO2+
179.0864	10	C14H11+
181.065	118	C13H9O+
181.1013	28	C14H13+
183.0806	195	C13H11O+
184.052	12	C12H8O2+
185.0598	208	C12H9O2+
186.0669	13	C12H10O2+
187.0756	28	C12H11O2+
191.0856	71	C15H11+
193.0652	61	C14H9O+
193.1009	17	C15H13+
197.0588	9	C13H9O2+
198.0683	20	C13H10O2+
199.0754	80	C13H11O2+
201.0912	389	C13H13O2+
207.0814	14	C15H11O+
209.0598	121	C14H9O2+
209.0962	42	C15H13O+
211.0754	189	C14H11O2+
213.0919	6	C14H13O2+
219.0806	46	C16H11O+
221.0966	22	C16H13O+
225.0915	17	C15H13O2+
227.0703	113	C14H11O3+
229.0861	173	C14H13O3+
237.0908	44	C16H13O2+
239.1071	24	C16H15O2+
268.1331	71	C17H18NO2+
286.1437	999	C17H20NO3+
