Mass spectrum: Heptenophos; LC-ESI-QFT; MS2; CE: 15; R=35000; [M+H]+
Name: Heptenophos
Name: (6-chloranyl-7-bicyclo[3.2.0]hepta-3,6-dienyl) dimethyl phosphate
Name: Ragadan
Formula: C9H12ClO4P
Exact mass: 250.01617
SMILES: COP(=O)(OC)OC1=C(Cl)C2C=CCC12
InChI: InChI=1S/C9H12ClO4P/c1-12-15(11,13-2)14-9-7-5-3-4-6(7)8(9)10/h3-4,6-7H,5H2,1-2H3
Instrument: Q Exactive Orbitrap Thermo Scientific
Instrument type: LC-ESI-QFT
Ms type: MS2
Ion mode: POSITIVE
Ionization: ESI
Fragmentation mode: HCD
Collision energy: 15 (nominal)
Resolution: 35000
Column name: XBridge C18 3.5um, 2.1x50mm, Waters
Retention time: 9.1 min
Base peak: 251.0238
Precursor m/z: 251.0234
Precursor type: [M+H]+
m/z	relative intensity	assigned
89.0386	19	C7H5+
90.0463	1	C7H6+
94.9891	1	CH4O3P+
98.9996	2	C5H4Cl+
107.0492	2	C7H7O+
117.0699	1	C9H9+
121.0648	4	C8H9O+
125.0153	507	C7H6Cl+
127.0154	999	C2H8O4P+
135.0804	10	C9H11O+
139.0309	1	C8H8Cl+
143.0259	6	C7H8ClO+
145.0263	3	C2H10O5P+
185.0359	3	C8H10O3P+
215.0468	97	C9H12O4P+
218.9972	3	C8H9ClO3P+
237.0078	1	C8H11ClO4P+
251.0236	123	C9H13ClO4P+
