Mass spectrum: Dichlorvos; LC-ESI-QFT; MS2; CE: 30; R=35000; [M+H]+
Name: Dichlorvos
Name: DDVP
Name: 2,2-bis(chloranyl)ethenyl dimethyl phosphate
Formula: C4H7Cl2O4P
Exact mass: 219.94590
SMILES: O=P(O\C=C(/Cl)Cl)(OC)OC
InChI: InChI=1S/C4H7Cl2O4P/c1-8-11(7,9-2)10-3-4(5)6/h3H,1-2H3
Instrument: Q Exactive Orbitrap Thermo Scientific
Instrument type: LC-ESI-QFT
Ms type: MS2
Ion mode: POSITIVE
Ionization: ESI
Fragmentation mode: HCD
Collision energy: 30 (nominal)
Resolution: 35000
Column name: XBridge C18 3.5um, 2.1x50mm, Waters
Retention time: 7.4 min
Base peak: 220.9533
Precursor m/z: 220.9532
Precursor type: [M+H]+
m/z	relative intensity	assigned
76.9788	5	C2H2ClO+
78.9942	17	CH4O2P+
94.9449	1	C2HCl2+
94.9891	2	CH4O3P+
96.9604	5	CH3ClOP+
108.9605	1	C2H3ClOP+
109.0048	26	C2H6O3P+
112.9997	4	CH6O4P+
127.0154	999	C2H8O4P+
144.9815	83	C2H7ClO3P+
188.9272	1	C3H4Cl2O3P+
220.9531	458	C4H8Cl2O4P+
