Mass spectrum: Nicosulfuron-TP AUSN; LC-ESI-QFT; MS2; CE: 75%; R=17500; [M-H]-
Name: Nicosulfuron-TP AUSN
Name: 2-(diaminomethylidenecarbamoylsulfamoyl)-N,N-dimethylpyridine-3-carboxamide
Formula: C10H14N6O4S
Exact mass: 314.0797
SMILES: CN(C)C(=O)C1=CC=CN=C1S(=O)(=O)NC(=O)NC(N)=N
InChI: InChI=1S/C10H14N6O4S/c1-16(2)8(17)6-4-3-5-13-7(6)21(19,20)15-10(18)14-9(11)12/h3-5H,1-2H3,(H5,11,12,14,15,18)
Instrument: Q Exactive Plus Orbitrap Thermo Scientific
Instrument type: LC-ESI-QFT
Ms type: MS2
Ion mode: NEGATIVE
Ionization: ESI
Fragmentation mode: HCD
Collision energy: 75 % (nominal)
Resolution: 17500
Column name: XBridge C18 3.5um, 2.1x50mm, Waters
Retention time: 1.351 min
Base peak: 313.0724
Precursor m/z: 313.0724
Precursor type: [M-H]-
m/z	relative intensity	assigned
55.0301	9	C2H3N2-
58.0299	117	C2H4NO-
58.0409	29	CH4N3-
61.9706	269	NOS-
63.9624	177	O2S-
65.9985	9	C3NO-
66.0349	71	C4H4N-
76.0192	19	C5H2N-
77.9655	209	NO2S-
78.9734	157	HNO2S-
79.9813	96	H2NO2S-
91.0301	22	C5H3N2-
93.0223	18	
93.0458	896	C5H5N2-
94.0299	999	C5H4NO-
103.0302	141	C6H3N2-
108.0454	16	C6H6NO-
117.0458	67	C7H5N2-
119.0251	271	C6H3N2O-
121.0407	77	C6H5N2O-
131.049	99	C7H5N3-
132.033	88	C7H4N2O-
144.057	20	C8H6N3-
147.0439	281	C7H5N3O-
147.0557	19	H11N4O3S-
149.0596	106	C7H7N3O-
150.0433	38	C7H6N2O2-
162.0672	111	C8H8N3O-
164.0831	32	C8H10N3O-
165.0673	56	C8H9N2O2-
181.0078	92	C7H5N2O2S-
182.9869	369	C6H3N2O3S-
