Mass spectrum: Mianserin-N-Oxide; LC-ESI-QFT; MS2; CE: 15; R=35000; [M+H]+
Name: Mianserin-N-Oxide
Name: 1,2,3,4,10,14b-Hexahydro-2-methyldibenzo(c,f)pyrazino(1,2-a)azepine 2-oxide
Formula: C18H20N2O
Exact mass: 280.15756
SMILES: C[N+]1(CCN2c3ccccc3Cc4ccccc4C2C1)[O-]
InChI: InChI=1S/C18H20N2O/c1-20(21)11-10-19-17-9-5-3-7-15(17)12-14-6-2-4-8-16(14)18(19)13-20/h2-9,18H,10-13H2,1H3
Instrument: Q Exactive Plus Orbitrap Thermo Scientific
Instrument type: LC-ESI-QFT
Ms type: MS2
Ion mode: POSITIVE
Ionization: ESI
Fragmentation mode: HCD
Collision energy: 15 (nominal)
Resolution: 35000
Column name: XBridge C18 3.5um, 2.1x50mm, Waters
Retention time: 7.0 min
Base peak: 281.1644
Precursor m/z: 281.1648
Precursor type: [M+H]+
m/z	relative intensity	assigned
70.065	22	C4H8N+
71.073	1	C4H9N+
191.0852	2	C15H11+
195.0805	1	C14H11O+
208.1116	1	C15H14N+
220.1116	8	C16H14N+
221.1199	4	C16H15N+
224.1074	1	C15H14NO+
263.1542	243	C18H19N2+
264.162	231	C18H20N2+
281.1646	999	C18H21N2O+
