Mass spectrum: Lincomycin; LC-ESI-QFT; MS2; CE: 75; R=35000; [M+H]+
Name: Lincomycin
Name: N-[2-hydroxy-1-(3,4,5-trihydroxy-6-methylsulfanyloxan-2-yl)propyl]-1-methyl-4-propylpyrrolidine-2-carboxamide
Formula: C18H34N2O6S
Exact mass: 406.21376
SMILES: CCCC1CC(N(C1)C)C(=O)NC(C2C(C(C(C(O2)SC)O)O)O)C(C)O
InChI: InChI=1S/C18H34N2O6S/c1-5-6-10-7-11(20(3)8-10)17(25)19-12(9(2)21)16-14(23)13(22)15(24)18(26-16)27-4/h9-16,18,21-24H,5-8H2,1-4H3,(H,19,25)
Instrument: Q Exactive Plus Orbitrap Thermo Scientific
Instrument type: LC-ESI-QFT
Ms type: MS2
Ion mode: POSITIVE
Ionization: ESI
Fragmentation mode: HCD
Collision energy: 75 (nominal)
Resolution: 35000
Column name: XBridge C18 3.5um, 2.1x50mm, Waters
Retention time: 3.6 min
Base peak: 407.2201
Precursor m/z: 407.221
Precursor type: [M+H]+
m/z	relative intensity	assigned
53.0022	1	C3HO+
55.0543	18	C4H7+
56.0495	2	C3H6N+
58.0651	17	C3H8N+
61.0107	1	C2H5S+
67.0542	10	C5H7+
68.0495	7	C4H6N+
69.0699	41	C5H9+
70.0651	57	C4H8N+
82.0651	34	C5H8N+
83.0729	48	C5H9N+
83.0855	5	C6H11+
84.0808	22	C5H10N+
85.1011	1	C6H13+
91.0212	1	C3H7OS+
93.07	2	C7H9+
95.0856	15	C7H11+
96.0808	4	C6H10N+
97.0886	6	C6H11N+
97.1012	1	C7H13+
98.0965	3	C6H12N+
111.1043	1	C7H13N+
124.1122	19	C8H14N+
126.1277	999	C8H16N+
