Mass spectrum: Fluxapyroxad (BAS 700 F)-TP CSCD465008; LC-ESI-QFT; MS2; CE: 75%; R=17500; [M-H]-
Name: Fluxapyroxad (BAS 700 F)-TP CSCD465008
Name: 3-(Difluoromethyl)-1H-pyrazole-4-carboxylic acid
Name: 5-(difluoromethyl)-1H-pyrazole-4-carboxylic acid
Formula: C5H4F2N2O2
Exact mass: 162.0241
SMILES: OC(=O)C1=CNN=C1C(F)F
InChI: InChI=1S/C5H4F2N2O2/c6-4(7)3-2(5(10)11)1-8-9-3/h1,4H,(H,8,9)(H,10,11)
Instrument: Q Exactive Plus Orbitrap Thermo Scientific
Instrument type: LC-ESI-QFT
Ms type: MS2
Ion mode: NEGATIVE
Ionization: ESI
Fragmentation mode: HCD
Collision energy: 75 % (nominal)
Resolution: 17500
Column name: XBridge C18 3.5um, 2.1x50mm, Waters
Retention time: 2.063 min
Base peak: 141.0106
Precursor m/z: 161.0168
Precursor type: [M-H]-
m/z	relative intensity	assigned
50.0036	126	C3N-
50.0116	2	
65.0033	17	C4HO-
65.9986	999	C3NO-
67.002	7	
69.0147	19	C4H2F-
70.0099	59	C3HFN-
86.0049	8	C3HFNO-
92.9983	53	C5HO2-
97.0208	113	C4H2FN2-
113.0161	4	C4H2FN2O-
114	6	C4HFNO2-
117.027	114	C4H3F2N2-
141.0107	52	C5H2FN2O2-
