Mass spectrum: 2-(3-Hydroxycyclohexyl)-5-(2-methyl-2-octanyl)phenol; LC-ESI-QFT; MS2; CE: 75; R=35000; [M-H]-
Name: 2-(3-Hydroxycyclohexyl)-5-(2-methyl-2-octanyl)phenol
Name: CP47.497
Name: 2-(3-hydroxycyclohexyl)-5-(2-methyloctan-2-yl)phenol
Formula: C21H34O2
Exact mass: 318.25588
SMILES: CCCCCCC(C)(C)C1=CC(=C(C=C1)C2CCCC(C2)O)O
InChI: InChI=1S/C21H34O2/c1-4-5-6-7-13-21(2,3)17-11-12-19(20(23)15-17)16-9-8-10-18(22)14-16/h11-12,15-16,18,22-23H,4-10,13-14H2,1-3H3
Instrument: Q Exactive Plus Orbitrap Thermo Scientific
Instrument type: LC-ESI-QFT
Ms type: MS2
Ion mode: NEGATIVE
Ionization: ESI
Fragmentation mode: HCD
Collision energy: 75 (nominal)
Resolution: 35000
Column name: XBridge C18 3.5um, 2.1x50mm, Waters
Retention time: 17.0 min
Base peak: 363.2538
Precursor m/z: 317.2486
Precursor type: [M-H]-
m/z	relative intensity	assigned
57.0346	40	C3H5O-
69.0346	2	C4H5O-
83.0502	45	C5H7O-
106.0424	3	C7H6O-
108.0216	1	C6H4O2-
121.0293	1	C7H5O2-
132.0581	2	C9H8O-
133.0659	22	C9H9O-
134.0373	24	C8H6O2-
145.0658	5	C10H9O-
146.0739	3	C10H10O-
147.0451	1	C9H7O2-
147.0815	17	C10H11O-
149.0606	1	C9H9O2-
151.0401	7	C8H7O3-
159.0815	421	C11H11O-
160.0531	2	C10H8O2-
160.0894	14	C11H12O-
161.0972	20	C11H13O-
163.0764	2	C10H11O2-
171.0817	3	C12H11O-
173.0607	1	C11H9O2-
173.0968	3	C12H13O-
174.0685	6	C11H10O2-
175.0764	2	C11H11O2-
175.1128	13	C12H15O-
177.0557	163	C10H9O3-
183.0817	1	C13H11O-
185.0971	223	C13H13O-
186.1048	4	C13H14O-
187.1127	11	C13H15O-
189.0918	1	C12H13O2-
191.0715	1	C11H11O3-
199.0763	1	C13H11O2-
199.1131	3	C14H15O-
200.0845	1	C13H12O2-
201.1284	1	C14H17O-
203.0714	42	C12H11O3-
203.144	6	C14H19O-
209.0973	5	C15H13O-
213.1285	123	C15H17O-
215.1435	2	C15H19O-
217.1606	2	C15H21O-
218.0946	4	C13H14O3-
219.1754	23	C15H23O-
227.1076	3	C15H15O2-
229.1233	8	C15H17O2-
229.1596	2	C16H21O-
231.139	91	C15H19O2-
232.1831	1	C16H24O-
233.1915	1	C16H25O-
245.191	999	C17H25O-
246.1263	1	C15H18O3-
247.2063	3	C17H27O-
255.1754	1	C18H23O-
259.2065	1	C18H27O-
261.2224	7	C18H29O-
264.1728	1	C16H24O3-
269.1906	2	C19H25O-
271.2068	308	C19H27O-
273.2221	8	C19H29O-
283.2065	1	C20H27O-
289.2539	1	C20H33O-
295.2066	18	C21H27O-
297.2223	2	C21H29O-
299.2379	88	C21H31O-
313.2173	8	C21H29O2-
315.2328	4	C21H31O2-
317.2484	6	C21H33O2-
