Mass spectrum: Spirotetramat BYI08330-ketohydroxy; LC-ESI-QFT; MS2; CE: 180%; R=17500; [M+H]+
Name: Spirotetramat BYI08330-ketohydroxy
Name: 3-(2,5-Dimethylphenyl)-3-hydroxy-8-methoxy-1-azaspiro(4.5)decane-2,4-dione
Name: 3-(2,5-dimethylphenyl)-3-hydroxy-8-methoxy-1-azaspiro[4.5]decane-2,4-dione
Formula: C18H23NO4
Exact mass: 317.1627
SMILES: CC1=CC(=C(C=C1)C)C2(C(=O)C3(CCC(CC3)OC)NC2=O)O
InChI: InChI=1S/C18H23NO4/c1-11-4-5-12(2)14(10-11)18(22)15(20)17(19-16(18)21)8-6-13(23-3)7-9-17/h4-5,10,13,22H,6-9H2,1-3H3,(H,19,21)
Instrument: Exploris 240 Orbitrap Thermo Scientific
Instrument type: LC-ESI-QFT
Ms type: MS2
Ion mode: POSITIVE
Ionization: ESI
Fragmentation mode: HCD
Collision energy: 180 % (nominal)
Resolution: 17500
Column name: XBridge C18 3.5um, 2.1x50mm, Waters
Retention time: 7.435 min
Base peak: 318.1698
Precursor m/z: 318.17
Precursor type: [M+H]+
m/z	relative intensity	assigned
51.0229	227	C4H3+
53.0386	141	C4H5+
54.0338	23	C3H4N+
63.023	88	C5H3+
65.0386	672	C5H5+
75.023	103	C6H3+
77.0386	213	C6H5+
78.0466	100	C6H6+
79.0544	40	C6H7+
89.0386	198	C7H5+
91.0542	852	C7H7+
95.0492	110	C6H7O+
102.0464	234	C8H6+
103.0541	56	C8H7+
115.0542	999	C9H7+
116.0617	45	C9H8+
126.0461	43	C10H6+
127.0544	81	C10H7+
128.062	418	C10H8+
139.0545	70	C11H7+
141.07	58	C11H9+
152.0626	76	C12H8+
165.0699	76	C13H9+
