Mass spectrum: Metolachlor-TP SYN542490; LC-ESI-QFT; MS2; CE: 30%; R=17500; [M-H]-
Name: Metolachlor-TP SYN542490
Formula: C15H21NO6S
Exact mass: 343.1090
SMILES: O=S(=O)(O)CC(=O)N(C(C)COC)c1c(C)cccc1C(C)=O
InChI: InChI=1S/C15H21NO6S/c1-10-6-5-7-13(12(3)17)15(10)16(11(2)8-22-4)14(18)9-23(19,20)21/h5-7,11H,8-9H2,1-4H3,(H,19,20,21)
Instrument: Exploris 240 Orbitrap Thermo Scientific
Instrument type: LC-ESI-QFT
Ms type: MS2
Ion mode: NEGATIVE
Ionization: ESI
Fragmentation mode: HCD
Collision energy: 30 % (nominal)
Resolution: 17500
Column name: XBridge C18 3.5um, 2.1x50mm, Waters
Retention time: 4.678 min
Base peak: 342.1014
Precursor m/z: 342.1017
Precursor type: [M-H]-
m/z	relative intensity	assigned
76.9705	3	CHO2S-
79.9575	25	O3S-
94.981	6	CH3O3S-
118.9681	20	C2HNO3S-
119.9761	40	C2H2NO3S-
120.9601	102	C2HO4S-
149.0608	58	C9H9O2-
192.0336	126	C6H10NO4S-
220.1342	4	C13H18NO2-
262.1448	6	C15H20NO3-
270.0438	4	C11H12NO5S-
342.1017	999	C15H20NO6S-
