Mass spectrum: Nicosulfuron; LC-ESI-ITFT; MS2; CE: 35%; R=30000; [M-H]-
Name: Nicosulfuron
Name: 2-[(4,6-dimethoxypyrimidin-2-yl)carbamoylsulfamoyl]-N,N-dimethyl-nicotinamide
Formula: C15H18N6O6S
Exact mass: 410.1009
SMILES: O=C(Nc1nc(cc(OC)n1)OC)NS(=O)(=O)c2ncccc2C(=O)N(C)C
InChI: InChI=1S/C15H18N6O6S/c1-21(2)13(22)9-6-5-7-16-12(9)28(24,25)20-15(23)19-14-17-10(26-3)8-11(18-14)27-4/h5-8H,1-4H3,(H2,17,18,19,20,23)
Instrument: LTQ Orbitrap XL Thermo Scientific
Instrument type: LC-ESI-ITFT
Ms type: MS2
Ion mode: NEGATIVE
Ionization: ESI
Fragmentation mode: CID
Collision energy: 35 % (nominal)
Resolution: 30000
Column name: XBridge C18 3.5um, 2.1x50mm, Waters
Retention time: 7.0 min
Base peak: 409.093
Precursor m/z: 409.0936
Precursor type: [M-H]-
m/z	relative intensity	assigned
122.0366	2	C5H4N3O-
139.0387	3	C5H5N3O2-
146.0725	1	C8H8N3-
147.0566	4	C8H7N2O-
154.0623	283	C6H8N3O2-
162.0676	4	C8H8N3O-
164.083	19	C8H10N3O-
179.0577	6	C7H7N4O2-
182.987	14	C6H3N2O3S-
210.0343	36	C8H8N3O2S-
211.0182	8	C8H7N2O3S-
228.0448	999	C8H10N3O3S-
254.024	832	C9H8N3O4S-
302.1262	15	C14H16N5O3-
