Mass spectrum: Lansoprazole; LC-ESI-QFT; MS2; CE: 30; R=35000; [M+H]+
Name: Lansoprazole
Name: 2-[[3-methyl-4-(2,2,2-trifluoroethoxy)pyridin-2-yl]methylsulfinyl]-1H-benzimidazole
Formula: C16H14F3N3O2S
Exact mass: 369.07588
SMILES: Cc1c(ccnc1CS(=O)c2[nH]c3ccccc3n2)OCC(F)(F)F
InChI: InChI=1S/C16H14F3N3O2S/c1-10-13(20-7-6-14(10)24-9-16(17,18)19)8-25(23)15-21-11-4-2-3-5-12(11)22-15/h2-7H,8-9H2,1H3,(H,21,22)
Instrument: Q Exactive Plus Orbitrap Thermo Scientific
Instrument type: LC-ESI-QFT
Ms type: MS2
Ion mode: POSITIVE
Ionization: ESI
Fragmentation mode: HCD
Collision energy: 30 (nominal)
Resolution: 35000
Column name: XBridge C18 3.5um, 2.1x50mm, Waters
Retention time: 7.4 min
Base peak: 370.0829
Precursor m/z: 370.0832
Precursor type: [M+H]+
m/z	relative intensity	assigned
107.0728	7	C7H9N+
119.0603	462	C7H7N2+
122.0599	2	C7H8NO+
136.0757	89	C8H10NO+
149.0168	16	C7H5N2S+
151.0086	1	C7H5NOS+
151.0323	2	C7H7N2S+
152.0162	1	C7H6NOS+
185.0647	3	C9H9F2NO+
190.0477	2	C8H7F3NO+
204.0631	25	C9H9F3NO+
205.0709	326	C9H10F3NO+
220.058	86	C9H9F3NO2+
222.0736	28	C9H11F3NO2+
234.0195	144	C9H7F3NOS+
235.0272	14	C9H8F3NOS+
252.0299	999	C9H9F3NO2S+
352.0728	9	C16H13F3N3OS+
