Mass spectrum: Thiazafluron; LC-ESI-QFT; MS2; CE: 60%; R=17500; [M-H]-
Name: Thiazafluron
Name: 1,3-dimethyl-1-[5-(trifluoromethyl)-1,3,4-thiadiazol-2-yl]urea
Formula: C6H7F3N4OS
Exact mass: 240.0293
SMILES: CNC(=O)N(C)C1=NN=C(S1)C(F)(F)F
InChI: InChI=1S/C6H7F3N4OS/c1-10-4(14)13(2)5-12-11-3(15-5)6(7,8)9/h1-2H3,(H,10,14)
Instrument: Exploris 240 Orbitrap Thermo Scientific
Instrument type: LC-ESI-QFT
Ms type: MS2
Ion mode: NEGATIVE
Ionization: ESI
Fragmentation mode: HCD
Collision energy: 60 % (nominal)
Resolution: 17500
Column name: XBridge C18 3.5um, 2.1x50mm, Waters
Retention time: 5.846 min
Base peak: 182.0005
Precursor m/z: 239.022
Precursor type: [M-H]-
m/z	relative intensity	assigned
55.0302	27	C2H3N2-
57.9757	466	CNS-
71.9786	13	CN2S-
87.0023	24	C2H3N2S-
109.0019	999	C2F3N2-
126.9709	100	C2F3NS-
127.9787	16	C2HF3NS-
150.0285	42	C4H3F3N3-
166.9772	14	C3F3N3S-
182.0005	274	C4H3F3N3S-
