Mass spectrum: Chlorothalonil-TP R471811; LC-ESI-QFT; MS2; CE: 180%; R=17500; [M+H]+
Name: Chlorothalonil-TP R471811
Name: 2,4-dicarbamoyl-3,5,6-trichlorobenzenesulfonic acid
Formula: C8H5Cl3N2O5S
Exact mass: 345.8985
SMILES: NC(=O)C1=C(Cl)C(C(N)=O)=C(C(Cl)=C1Cl)S(O)(=O)=O
InChI: InChI=1S/C8H5Cl3N2O5S/c9-3-1(7(12)14)4(10)5(11)6(19(16,17)18)2(3)8(13)15/h(H2,12,14)(H2,13,15)(H,16,17,18)
Instrument: Q Exactive Plus Orbitrap Thermo Scientific
Instrument type: LC-ESI-QFT
Ms type: MS2
Ion mode: POSITIVE
Ionization: ESI
Fragmentation mode: HCD
Collision energy: 180 % (nominal)
Resolution: 17500
Column name: XBridge C18 3.5um, 2.1x50mm, Waters
Retention time: 1.062 min
Base peak: 346.906
Precursor m/z: 346.9058
Precursor type: [M+H]+
m/z	relative intensity	assigned
61.0073	490	C5H+
61.9791	33	CHClN+
62.0151	138	C5H2+
62.9632	294	CClO+
70.9683	94	C3Cl+
71.9761	258	C3HCl+
72.9839	143	C3H2Cl+
75.0104	122	C5HN+
76.018	28	C5H2N+
77.0022	37	C5HO+
82.945	342	CHCl2+
83.9762	137	C4HCl+
85.979	30	C3HClN+
86.0026	29	C6N+
86.9632	50	C3ClO+
87.0103	12	C6HN+
88.0183	29	C6H2N+
94.9683	196	C5Cl+
95.9761	999	C5HCl+
96.984	238	C5H2Cl+
105.9372	20	C3Cl2+
106.945	730	C3HCl2+
107.9399	13	C2Cl2N+
107.9761	97	C6HCl+
109.9793	87	C5HClN+
117.9369	33	C4Cl2+
121.9794	11	C6HClN+
122.9629	28	C6ClO+
123.9711	23	C6HClO+
129.9369	81	C5Cl2+
130.9448	76	C5HCl2+
132.971	27	C7ClN+
140.9059	18	C3Cl3+
141.9372	220	C6Cl2+
