Mass spectrum: N-Nitrosofenfluramine; LC-ESI-QFT; MS2; CE: 90; R=35000; [M+H]+
Name: N-Nitrosofenfluramine
Name: N-Ethyl-N-nitroso-1-[3-(trifluoromethyl)phenyl]-2-propanamine
Formula: C12H15F3N2O
Exact mass: 260.11365
SMILES: CCN(C(C)Cc1cccc(c1)C(F)(F)F)N=O
InChI: InChI=1S/C12H15F3N2O/c1-3-17(16-18)9(2)7-10-5-4-6-11(8-10)12(13,14)15/h4-6,8-9H,3,7H2,1-2H3
Instrument: Q Exactive Plus Orbitrap Thermo Scientific
Instrument type: LC-ESI-QFT
Ms type: MS2
Ion mode: POSITIVE
Ionization: ESI
Fragmentation mode: HCD
Collision energy: 90 (nominal)
Resolution: 35000
Column name: XBridge C18 3.5um, 2.1x50mm, Waters
Retention time: 10.0 min
Base peak: 261.1206
Precursor m/z: 261.1209
Precursor type: [M+H]+
m/z	relative intensity	assigned
53.0022	1	C3HO+
57.0134	1	C3H2F+
63.0228	1	C5H3+
75.0228	6	C6H3+
75.0552	9	C2H7N2O+
77.0021	2	C5HO+
83.029	12	C5H4F+
89.0385	8	C7H5+
90.0464	8	C7H6+
95.0291	2	C6H4F+
99.0229	6	C8H3+
108.0369	1	C7H5F+
109.0448	832	C7H6F+
113.0397	1	C6H6FO+
115.0543	1	C9H7+
116.062	1	C9H8+
118.0651	1	C8H8N+
119.0291	17	C8H4F+
123.0352	1	C6H4FN2+
127.0353	3	C7H5F2+
133.0259	5	C6H4F3+
137.0397	6	C8H6FO+
139.0353	87	C8H5F2+
141.0259	1	C6H3F2N2+
145.0646	1	C10H9O+
145.0885	1	C10H11N+
146.0526	5	C10H7F+
146.0963	3	C10H12N+
147.0353	75	C8H4FN2+
151.0354	1	C9H5F2+
155.0605	3	C10H7N2+
158.0337	1	C8H5F3+
159.0416	999	C8H6F3+
180.0618	1	C10H8F2N+
194.0779	2	C11H10F2N+
195.0855	4	C11H11F2N+
210.1087	4	C12H14F2N+
