Mass spectrum: Nafcillin; LC-ESI-QFT; MS2; CE: 60; R=35000; [M-H]-
Name: Nafcillin
Name: (2S,5R,6R)-6-[(2-ethoxynaphthalene-1-carbonyl)amino]-3,3-dimethyl-7-oxo-4-thia-1-azabicyclo[3.2.0]heptane-2-carboxylic acid
Formula: C21H22N2O5S
Exact mass: 414.12494
SMILES: CCOC1=C(C(=O)N[C@H]2[C@H]3SC(C)(C)[C@@H](N3C2=O)C(O)=O)C2=CC=CC=C2C=C1
InChI: InChI=1S/C21H22N2O5S/c1-4-28-13-10-9-11-7-5-6-8-12(11)14(13)17(24)22-15-18(25)23-16(20(26)27)21(2,3)29-19(15)23/h5-10,15-16,19H,4H2,1-3H3,(H,22,24)(H,26,27)/t15-,16+,19-/m1/s1
Instrument: Q Exactive Plus Orbitrap Thermo Scientific
Instrument type: LC-ESI-QFT
Ms type: MS2
Ion mode: NEGATIVE
Ionization: ESI
Fragmentation mode: HCD
Collision energy: 60 (nominal)
Resolution: 35000
Column name: XBridge C18 3.5um, 2.1x50mm, Waters
Retention time: 9.7 min
Base peak: 413.1172
Precursor m/z: 413.1177
Precursor type: [M-H]-
m/z	relative intensity	assigned
57.9757	13	CNS-
60.9753	3	CHOS-
61.0117	2	C2H5S-
70.9836	6	C2HNS-
71.9914	5	C2H2NS-
72.9992	999	C2H3NS-
73.9833	2	C2H2OS-
74.0071	28	C2H4NS-
99.9862	55	C3H2NOS-
102.0382	1	C4H8NS-
143.0502	114	C2H11N2O3S-
152.0504	3	C11H6N-
166.0662	10	C12H8N-
168.0455	18	C11H6NO-
181.0534	2	C12H7NO-
182.061	57	C12H8NO-
186.056	44	C11H8NO2-
192.0455	4	C13H6NO-
194.0611	17	C13H8NO-
197.0304	1	C12H7NS-
198.0382	5	C12H8NS-
199.0223	7	C12H7OS-
209.048	2	C13H7NO2-
210.0561	17	C13H8NO2-
214.0333	1	C12H8NOS-
225.0254	12	C13H7NOS-
226.0332	86	C13H8NOS-
243.0359	56	C13H9NO2S-
