Mass spectrum: Doxycycline; LC-ESI-QFT; MS2; CE: 75; R=35000; [M+H]+
Name: Doxycycline
Name: 8-carbamoyl-10-(dimethylazaniumyl)-4,6a,7,11-tetrahydroxy-12-methyl-6,9-dioxo-10a,11,11a,12-tetrahydro-10H-tetracen-5-olate
Formula: C22H24N2O8
Exact mass: 444.15327
SMILES: CC1C2C(C3C(C(=O)C(=C(C3(C(=O)C2=C(C4=C1C=CC=C4O)O)O)O)C(=O)N)N(C)C)O
InChI: InChI=1S/C22H24N2O8/c1-7-8-5-4-6-9(25)11(8)16(26)12-10(7)17(27)14-15(24(2)3)18(28)13(21(23)31)20(30)22(14,32)19(12)29/h4-7,10,14-15,17,25-27,30,32H,1-3H3,(H2,23,31)
Instrument: Q Exactive Plus Orbitrap Thermo Scientific
Instrument type: LC-ESI-QFT
Ms type: MS2
Ion mode: POSITIVE
Ionization: ESI
Fragmentation mode: HCD
Collision energy: 75 (nominal)
Resolution: 35000
Column name: XBridge C18 3.5um, 2.1x50mm, Waters
Retention time: 6.4 min
Base peak: 445.1595
Precursor m/z: 445.1605
Precursor type: [M+H]+
m/z	relative intensity	assigned
50.0151	2	C4H2+
51.0229	2	C4H3+
53.0022	8	C3HO+
53.0386	13	C4H5+
54.0339	1	C3H4N+
55.0179	105	C3H3O+
55.0417	5	C3H5N+
56.0495	66	C3H6N+
57.0336	1	C3H5O+
57.0574	6	C3H7N+
58.0651	419	C3H8N+
63.0228	2	C5H3+
65.0385	15	C5H5+
67.0178	20	C4H3O+
67.0542	3	C5H7+
68.0495	39	C4H6N+
68.9971	70	C3HO2+
69.0335	18	C4H5O+
70.0651	186	C4H8N+
71.0365	8	C3H5NO+
71.0728	1	C4H9N+
72.0444	71	C3H6NO+
72.0808	18	C4H10N+
74.06	14	C3H8NO+
75.0228	1	C6H3+
77.0384	2	C6H5+
79.0178	18	C5H3O+
79.0542	3	C6H7+
80.0494	16	C5H6N+
81.0335	27	C5H5O+
81.0571	2	C5H7N+
82.0651	39	C5H8N+
83.0127	82	C4H3O2+
83.0366	10	C4H5NO+
84.0444	70	C4H6NO+
84.0808	31	C5H10N+
85.0284	9	C4H5O2+
86.06	26	C4H8NO+
89.0386	2	C7H5+
91.0543	44	C7H7+
93.0336	7	C6H5O+
93.0576	1	C6H7N+
93.0699	3	C7H9+
94.0652	18	C6H8N+
95.0127	54	C5H3O2+
95.0491	3	C6H7O+
96.0444	12	C5H6NO+
96.0808	8	C6H10N+
97.0284	18	C5H5O2+
97.0524	7	C5H7NO+
98.0601	999	C5H8NO+
99.0076	15	C4H3O3+
100.0757	33	C5H10NO+
103.0542	31	C8H7+
105.0336	7	C7H5O+
105.0447	2	C6H5N2+
105.07	15	C8H9+
106.0651	7	C7H8N+
107.0127	26	C6H3O2+
107.0491	27	C7H7O+
108.0444	8	C6H6NO+
108.0807	10	C7H10N+
109.0285	41	C6H5O2+
110.06	14	C6H8NO+
111.0076	30	C5H3O3+
111.0441	8	C6H7O2+
112.0757	10	C6H10NO+
114.0551	2	C5H8NO2+
115.0542	84	C9H7+
116.062	7	C9H8+
117.0699	110	C9H9+
118.0651	2	C8H8N+
119.0128	7	C7H3O2+
119.0492	19	C8H7O+
119.0855	16	C9H11+
121.0284	59	C7H5O2+
121.0648	33	C8H9O+
122.0601	6	C7H8NO+
123.0077	26	C6H3O3+
123.044	7	C7H7O2+
124.0156	3	C6H4O3+
124.0394	30	C6H6NO2+
124.0758	7	C7H10NO+
125.0235	10	C6H5O3+
125.0469	1	C6H7NO2+
126.0549	45	C6H8NO2+
127.0027	6	C5H3O4+
127.0543	58	C10H7+
128.062	32	C10H8+
128.0708	2	C6H10NO2+
129.0699	66	C10H9+
131.0492	50	C9H7O+
131.0855	31	C10H11+
132.057	11	C9H8O+
133.0285	3	C8H5O2+
133.0648	13	C9H9O+
134.0599	8	C8H8NO+
135.0076	9	C7H3O3+
135.0442	2	C8H7O2+
136.0758	13	C8H10NO+
137.0233	68	C7H5O3+
138.055	3	C7H8NO2+
139.0265	14	C6H5NO3+
139.039	13	C7H7O3+
139.0539	6	C11H7+
140.0619	2	C11H8+
140.0709	6	C7H10NO2+
141.0699	50	C11H9+
142.0498	1	C6H8NO3+
142.0776	13	C11H10+
143.0493	3	C10H7O+
143.0855	21	C11H11+
144.0571	43	C10H8O+
145.0648	483	C10H9O+
147.0441	23	C9H7O2+
147.0805	80	C10H11O+
148.0521	1	C9H8O2+
149.0234	14	C8H5O3+
149.0598	12	C9H9O2+
150.0549	3	C8H8NO2+
151.0026	1	C7H3O4+
151.039	7	C8H7O3+
151.0541	1	C12H7+
152.0342	9	C7H6NO3+
152.062	56	C12H8+
152.0709	3	C8H10NO2+
153.0181	17	C7H5O4+
153.0698	36	C12H9+
154.0498	27	C7H8NO3+
154.0777	7	C12H10+
155.0604	125	C10H7N2+
155.0855	43	C12H11+
156.0569	16	C11H8O+
157.037	7	C6H7NO4+
157.0648	92	C11H9O+
157.1014	9	C12H13+
158.0727	9	C11H10O+
159.044	13	C10H7O2+
159.0805	75	C11H11O+
160.0519	58	C10H8O2+
161.0231	14	C9H5O3+
161.0599	17	C10H9O2+
162.0548	2	C9H8NO2+
163.0025	6	C8H3O4+
163.0389	10	C9H7O3+
163.055	1	C13H7+
163.0624	3	C9H9NO2+
164.0617	2	C13H8+
164.0706	10	C9H10NO2+
165.0183	62	C8H5O4+
165.0699	141	C13H9+
166.0499	15	C8H8NO3+
166.0778	27	C13H10+
167.0855	103	C13H11+
168.057	128	C12H8O+
169.0649	46	C12H9O+
169.0763	10	C11H9N2+
169.1013	7	C13H13+
170.0728	21	C12H10O+
171.0439	7	C11H7O2+
171.0804	117	C12H11O+
172.0521	9	C11H8O2+
173.0236	9	C10H5O3+
173.0598	83	C11H9O2+
174.0676	67	C11H10O2+
175.0754	96	C11H11O2+
176.0622	16	C14H8+
177.0699	51	C14H9+
178.0778	62	C14H10+
179.0855	82	C14H11+
180.0572	23	C13H8O+
180.0649	3	C9H10NO3+
181.0131	8	C8H5O5+
181.0648	66	C13H9O+
181.1014	7	C14H13+
182.0728	46	C13H10O+
182.0807	5	C9H12NO3+
183.0289	8	C8H7O5+
183.0554	10	C11H7N2O+
183.0805	99	C13H11O+
184.0517	26	C12H8O2+
185.0598	31	C12H9O2+
185.0711	8	C11H9N2O+
185.0962	62	C13H13O+
186.0311	11	C11H6O3+
186.0676	8	C12H10O2+
187.0389	16	C11H7O3+
187.0754	189	C12H11O2+
189.0182	6	C10H5O4+
189.0549	3	C11H9O3+
189.0699	35	C15H9+
190.0776	26	C15H10+
191.0341	9	C10H7O4+
191.0855	52	C15H11+
192.0569	8	C14H8O+
193.0136	6	C9H5O5+
193.065	46	C14H9O+
193.0759	6	C13H9N2+
193.1013	6	C15H13+
194.0727	65	C14H10O+
195.0805	253	C14H11O+
196.052	152	C13H8O2+
197.0598	61	C13H9O2+
197.0961	32	C14H13O+
198.0675	122	C13H10O2+
199.0385	6	C12H7O3+
199.0754	94	C13H11O2+
200.0464	12	C12H8O3+
201.0547	620	C12H9O3+
202.0776	16	C16H10+
203.0708	5	C12H11O3+
203.0857	10	C16H11+
204.0571	8	C15H8O+
205.0498	6	C11H9O4+
205.0649	33	C15H9O+
206.0729	17	C15H10O+
207.0806	71	C15H11O+
208.0522	24	C14H8O2+
208.0883	3	C15H12O+
209.0597	20	C14H9O2+
209.0963	36	C15H13O+
210.0676	89	C14H10O2+
211.0391	52	C13H7O3+
211.0754	412	C14H11O2+
212.0468	20	C13H8O3+
212.0834	15	C14H12O2+
213.0546	39	C13H9O3+
213.091	77	C14H13O2+
214.0626	3	C13H10O3+
215.0701	8	C13H11O3+
217.0496	2	C12H9O4+
217.065	13	C16H9O+
218.0727	18	C16H10O+
219.0289	11	C11H7O5+
219.0651	9	C12H11O4+
219.0805	79	C16H11O+
220.0522	17	C15H8O2+
221.0599	99	C15H9O2+
221.0956	11	C16H13O+
222.0675	67	C15H10O2+
223.0755	145	C15H11O2+
224.0469	242	C14H8O3+
224.0829	15	C15H12O2+
225.0546	27	C14H9O3+
225.0911	63	C15H13O2+
226.0625	351	C14H10O3+
227.0704	59	C14H11O3+
229.0501	6	C13H9O4+
229.0654	2	C17H9O+
229.0759	3	C16H9N2+
229.0858	3	C14H13O3+
231.0654	2	C13H11O4+
231.0806	9	C17H11O+
232.0519	9	C16H8O2+
233.06	20	C16H9O2+
234.0677	37	C16H10O2+
234.0909	3	C16H12NO+
235.0753	97	C16H11O2+
236.0468	19	C15H8O3+
236.0829	8	C16H12O2+
237.0546	31	C15H9O3+
237.091	52	C16H13O2+
238.0625	111	C15H10O3+
239.0703	212	C15H11O3+
240.0418	13	C14H8O4+
240.0781	33	C15H12O3+
241.086	150	C15H13O3+
242.0573	76	C14H10O4+
243.0654	2	C14H11O4+
243.1016	8	C15H15O3+
245.0601	9	C17H9O2+
246.068	3	C17H10O2+
247.0753	67	C17H11O2+
248.0468	12	C16H8O3+
248.0825	6	C17H12O2+
249.0546	38	C16H9O3+
249.0907	12	C17H13O2+
250.0625	188	C16H10O3+
251.0704	81	C16H11O3+
252.0418	617	C15H8O4+
253.049	3	C15H9O4+
253.0858	43	C16H13O3+
254.0573	44	C15H10O4+
255.065	12	C15H11O4+
257.0595	1	C18H9O2+
257.0807	8	C15H13O4+
259.0752	12	C18H11O2+
260.0467	6	C17H8O3+
261.0542	6	C17H9O3+
262.0622	22	C17H10O3+
262.0861	5	C17H12NO2+
263.0705	54	C17H11O3+
263.0933	3	C17H13NO2+
264.042	7	C16H8O4+
264.0779	12	C17H12O3+
265.0493	8	C16H9O4+
265.086	41	C17H13O3+
266.0577	21	C16H10O4+
267.0652	193	C16H11O4+
268.0365	10	C15H8O5+
268.0732	2	C16H12O4+
269.0811	24	C16H13O4+
270.0524	41	C15H10O5+
271.0602	3	C15H11O5+
273.0537	3	C18H9O3+
275.0704	39	C18H11O3+
276.0417	17	C17H8O4+
277.0496	8	C17H9O4+
277.0858	11	C18H13O3+
278.0575	115	C17H10O4+
279.0652	22	C17H11O4+
279.0886	3	C17H13NO3+
280.0725	3	C17H12O4+
280.097	7	C17H14NO3+
281.0807	3	C17H13O4+
281.1044	12	C17H15NO3+
282.0519	2	C16H10O5+
283.0612	2	C16H11O5+
284.0679	2	C16H12O5+
285.0757	36	C16H13O5+
288.0651	1	C18H10NO3+
289.0509	1	C18H9O4+
290.0565	3	C18H10O4+
291.0652	24	C18H11O4+
292.0725	3	C18H12O4+
292.0965	3	C18H14NO3+
293.0808	47	C18H13O4+
294.052	12	C17H10O5+
294.112	2	C18H16NO3+
295.0597	2	C17H11O5+
298.1078	2	C17H16NO4+
303.065	17	C19H11O4+
304.0366	6	C18H8O5+
305.0436	3	C18H9O5+
306.0523	78	C18H10O5+
308.0682	1	C18H12O5+
319.0604	6	C19H11O5+
321.0754	8	C19H13O5+
321.0999	3	C19H15NO4+
322.047	6	C18H10O6+
334.0471	52	C19H10O6+
