Mass spectrum: Orphenadrine; LC-ESI-QFT; MS2; CE: 120; R=35000; [M+H]+
Name: Orphenadrine
Name: N,N-dimethyl-2-[(2-methylphenyl)-phenylmethoxy]ethanamine
Formula: C18H23NO
Exact mass: 269.17796
SMILES: CC1=CC=CC=C1C(C2=CC=CC=C2)OCCN(C)C
InChI: InChI=1S/C18H23NO/c1-15-9-7-8-12-17(15)18(20-14-13-19(2)3)16-10-5-4-6-11-16/h4-12,18H,13-14H2,1-3H3
Instrument: Q Exactive Plus Orbitrap Thermo Scientific
Instrument type: LC-ESI-QFT
Ms type: MS2
Ion mode: POSITIVE
Ionization: ESI
Fragmentation mode: HCD
Collision energy: 120 (nominal)
Resolution: 35000
Column name: XBridge C18 3.5um, 2.1x50mm, Waters
Retention time: 7.4 min
Base peak: 270.1849
Precursor m/z: 270.1852
Precursor type: [M+H]+
m/z	relative intensity	assigned
50.0151	1	C4H2+
51.0229	2	C4H3+
53.0386	9	C4H5+
63.0228	2	C5H3+
65.0385	2	C5H5+
77.0385	12	C6H5+
78.0464	2	C6H6+
79.0542	2	C6H7+
89.0385	3	C7H5+
91.0542	10	C7H7+
95.0491	23	C6H7O+
102.0464	4	C8H6+
103.0542	19	C8H7+
104.062	2	C8H8+
105.0447	16	C6H5N2+
115.0542	136	C9H7+
116.062	2	C9H8+
126.0463	1	C10H6+
127.0543	1	C10H7+
128.062	6	C10H8+
129.0698	1	C10H9+
139.0542	13	C11H7+
140.0621	1	C11H8+
141.0699	79	C11H9+
145.0649	1	C10H9O+
151.0542	1	C12H7+
152.062	41	C12H8+
153.0698	5	C12H9+
155.0605	2	C10H7N2+
163.054	5	C13H7+
164.062	24	C13H8+
165.0699	999	C13H9+
166.0777	52	C13H10+
168.0569	6	C12H8O+
169.0646	3	C12H9O+
176.0624	3	C14H8+
177.0697	6	C14H9+
178.0777	105	C14H10+
179.0604	1	C12H7N2+
179.0854	14	C14H11+
196.0514	2	C13H8O2+
