Mass spectrum: Dimethenamide ESA; LC-ESI-ITFT; MS2; CE: 75%; R=7500; [M+H]+
Name: Dimethenamide ESA
Name: 2-[(2,4-Dimethyl-3-thienyl)(1-methoxy-2-propanyl)amino]-2-oxoethanesulfonic acid
Formula: C12H19NO5S2
Exact mass: 321.0705
SMILES: S(C=C1C)C(C)=C1N(C(=O)CS(=O)(=O)O)C(COC)C
InChI: InChI=1S/C12H19NO5S2/c1-8-6-19-10(3)12(8)13(9(2)5-18-4)11(14)7-20(15,16)17/h6,9H,5,7H2,1-4H3,(H,15,16,17)
Instrument: LTQ Orbitrap XL Thermo Scientific
Instrument type: LC-ESI-ITFT
Ms type: MS2
Ion mode: POSITIVE
Ionization: ESI
Fragmentation mode: HCD
Collision energy: 75 % (nominal)
Resolution: 7500
Column name: XBridge C18 3.5um, 2.1x50mm, Waters
Retention time: 6.7 min
Base peak: 322.0788
Precursor m/z: 322.0777
Precursor type: [M+H]+
m/z	relative intensity	assigned
58.9949	9	C2H3S+
65.0386	3	C5H5+
67.0541	6	C5H7+
73.0648	62	C4H9O+
77.0386	5	C6H5+
79.0543	14	C6H7+
80.0494	3	C5H6N+
81.0571	3	C5H7N+
82.0651	19	C5H8N+
83.0492	10	C5H7O+
85.0105	7	C4H5S+
91.0543	18	C7H7+
93.07	16	C7H9+
94.0652	29	C6H8N+
95.073	52	C6H9N+
97.0108	26	C5H5S+
98.0187	3	C5H6S+
99.0264	22	C5H7S+
105.0574	4	C7H7N+
105.0701	12	C8H9+
106.065	8	C7H8N+
107.0734	4	C7H9N+
107.0857	6	C8H11+
108.0807	27	C7H10N+
111.0263	288	C6H7S+
112.0214	11	C5H6NS+
112.0341	88	C6H8S+
113.0293	28	C5H7NS+
113.0421	34	C6H9S+
114.0373	17	C5H8NS+
115.0537	3	C9H7+
117.0699	20	C9H9+
118.065	24	C8H8N+
119.073	61	C8H9N+
120.0808	41	C8H10N+
121.089	7	C8H11N+
122.0965	18	C8H12N+
123.0262	6	C7H7S+
124.0217	8	C6H6NS+
124.0342	24	C7H8S+
125.0294	69	C6H7NS+
125.042	185	C7H9S+
126.0372	409	C6H8NS+
127.0213	36	C6H7OS+
127.045	68	C6H9NS+
127.0575	9	C7H11S+
128.0529	85	C6H10NS+
132.0808	26	C9H10N+
133.0887	74	C9H11N+
134.0965	387	C9H12N+
135.0264	75	C8H7S+
135.1042	51	C9H13N+
136.034	3	C8H8S+
137.0294	26	C7H7NS+
137.0426	7	C8H9S+
138.0373	291	C7H8NS+
139.0451	25	C7H9NS+
139.058	9	C8H11S+
140.0529	33	C7H10NS+
148.1125	12	C10H14N+
149.042	74	C9H9S+
150.0373	84	C8H8NS+
150.0497	70	C9H10S+
151.0205	6	C8H7OS+
151.0451	83	C8H9NS+
151.058	29	C9H11S+
152.0165	254	C7H6NOS+
152.0529	999	C8H10NS+
153.0609	36	C8H11NS+
154.0683	13	C8H12NS+
162.0913	11	C10H12NO+
163.0998	4	C10H13NO+
164.052	7	CH14N3O2S2+
164.107	3	C10H14NO+
166.0318	76	C8H8NOS+
166.0686	728	C9H12NS+
167.0397	15	C8H9NOS+
167.0764	118	C9H13NS+
168.0476	54	C8H10NOS+
168.0842	194	C9H14NS+
169.0556	5	C8H11NOS+
176.107	38	C11H14NO+
180.084	3	C10H14NS+
192.0839	4	C11H14NS+
194.0635	81	C10H12NOS+
195.9564	4	C6N2O4S+
208.0791	14	C11H14NOS+
210.0947	45	C11H16NOS+
290.0611	18	C7H18N2O6S2+
