Mass spectrum: Valsartan; LC-ESI-ITFT; MS2; CE: 90%; R=30000; [M+H]+
Name: Valsartan
Name: (2S)-3-methyl-2-[1-oxopentyl-[[4-[2-(2H-tetrazol-5-yl)phenyl]phenyl]methyl]amino]butanoic acid
Formula: C24H29N5O3
Exact mass: 435.2270
SMILES: CCCCC(=O)N(CC1=CC=C(C=C1)C2=C(C=CC=C2)C3=NN=NN3)[C@@H](C(C)C)C(O)=O
InChI: InChI=1S/C24H29N5O3/c1-4-5-10-21(30)29(22(16(2)3)24(31)32)15-17-11-13-18(14-12-17)19-8-6-7-9-20(19)23-25-27-28-26-23/h6-9,11-14,16,22H,4-5,10,15H2,1-3H3,(H,31,32)(H,25,26,27,28)/t22-/m0/s1
Instrument: LTQ Orbitrap XL Thermo Scientific
Instrument type: LC-ESI-ITFT
Ms type: MS2
Ion mode: POSITIVE
Ionization: ESI
Fragmentation mode: HCD
Collision energy: 90 % (nominal)
Resolution: 30000
Column name: XBridge C18 3.5um, 2.1x50mm, Waters
Retention time: 11.2 min
Base peak: 436.2337
Precursor m/z: 436.2343
Precursor type: [M+H]+
m/z	relative intensity	assigned
77.0386	65	C6H5+
80.0494	25	C5H6N+
95.0493	7	C6H7O+
105.0447	39	C6H5N2+
115.0543	38	C9H7+
116.0495	10	C8H6N+
117.0572	11	C8H7N+
127.0542	13	C10H7+
128.0494	10	C9H6N+
128.0618	21	C10H8+
129.0446	33	C8H5N2+
129.0697	13	C10H9+
130.04	15	C7H4N3+
139.0543	33	C11H7+
140.0495	156	C10H6N+
141.0571	13	C10H7N+
141.0701	9	C11H9+
151.0542	182	C12H7+
152.062	986	C12H8+
153.0698	665	C12H9+
154.0651	50	C11H8N+
155.0604	81	C10H7N2+
163.0543	231	C13H7+
164.0496	48	C12H6N+
164.062	61	C13H8+
165.0574	78	C12H7N+
165.0698	330	C13H9+
166.0651	65	C12H8N+
166.0773	21	C13H10+
167.0729	63	C12H9N+
167.0854	5	C13H11+
168.0681	48	C11H8N2+
169.0647	29	C12H9O+
176.0622	29	C14H8+
177.0573	84	C13H7N+
177.0698	93	C14H9+
178.0652	178	C13H8N+
178.0777	724	C14H10+
179.0603	104	C12H7N2+
179.0729	311	C13H9N+
180.0807	878	C13H10N+
181.0648	11	C13H9O+
181.0759	40	C12H9N2+
182.0607	7	C12H8NO+
183.0681	14	C12H9NO+
189.0572	41	C14H7N+
190.0651	994	C14H8N+
191.0729	160	C14H9N+
192.0681	484	C13H8N2+
192.0804	40	C14H10N+
193.0886	37	C14H11N+
194.06	4	C13H8NO+
194.0965	6	C14H12N+
196.0756	23	C13H10NO+
196.1245	6	C15H16+
205.076	999	C14H9N2+
206.0837	293	C14H10N2+
207.0916	64	C14H11N2+
208.0757	35	C14H10NO+
210.0906	8	C14H12NO+
247.0852	6	C14H9N5+
