Mass spectrum: Cyprodinil-TP CGA 249287; LC-ESI-QFT; MS2; CE: 45%; R=17500; [M+H]+
Name: Cyprodinil-TP CGA 249287
Name: 4-Cyclopropyl-6-methyl-2-pyrimidinamine
Name: 4-cyclopropyl-6-methylpyrimidin-2-amine
Formula: C8H11N3
Exact mass: 149.0953
SMILES: CC1=NC(N)=NC(=C1)C1CC1
InChI: InChI=1S/C8H11N3/c1-5-4-7(6-2-3-6)11-8(9)10-5/h4,6H,2-3H2,1H3,(H2,9,10,11)
Instrument: Q Exactive Plus Orbitrap Thermo Scientific
Instrument type: LC-ESI-QFT
Ms type: MS2
Ion mode: POSITIVE
Ionization: ESI
Fragmentation mode: HCD
Collision energy: 45 % (nominal)
Resolution: 17500
Column name: XBridge C18 3.5um, 2.1x50mm, Waters
Retention time: 2.394 min
Base peak: 150.1026
Precursor m/z: 150.1026
Precursor type: [M+H]+
m/z	relative intensity	assigned
65.0386	1	C5H5+
67.0291	2	C3H3N2+
67.054	2	C5H7+
68.0495	2	C4H6N+
69.4472	1	
80.0493	1	C5H6N+
82.065	2	C5H8N+
83.0603	12	C4H7N2+
91.0542	1	C7H7+
92.0495	7	C6H6N+
93.0573	3	C6H7N+
95.0603	3	C5H7N2+
106.0652	3	C7H8N+
107.0607	1	C6H7N2+
108.0557	6	C5H6N3+
108.0808	18	C7H10N+
109.0761	6	C6H9N2+
110.0601	1	
116.0492	1	C8H6N+
118.0526	5	C7H6N2+
122.0713	1	C6H8N3+
123.0915	1	C7H11N2+
132.0682	3	C8H8N2+
133.076	41	C8H9N2+
150.1026	999	C8H12N3+
151.086	3	
