Mass spectrum: Dronedarone; LC-ESI-ITFT; MS2; CE: 90%; R=7500; [M+H]+
Name: Dronedarone
Name: N-[2-butyl-3-[4-[3-(dibutylamino)propoxy]benzoyl]-1-benzofuran-5-yl]methanesulfonamide
Formula: C31H44N2O5S
Exact mass: 556.2971
SMILES: CS(=O)(=O)Nc1cc2c(c(oc2cc1)CCCC)C(c1ccc(cc1)OCCCN(CCCC)CCCC)=O
InChI: InChI=1S/C31H44N2O5S/c1-5-8-12-29-30(27-23-25(32-39(4,35)36)15-18-28(27)38-29)31(34)24-13-16-26(17-14-24)37-22-11-21-33(19-9-6-2)20-10-7-3/h13-18,23,32H,5-12,19-22H2,1-4H3
Instrument: LTQ Orbitrap XL Thermo Scientific
Instrument type: LC-ESI-ITFT
Ms type: MS2
Ion mode: POSITIVE
Ionization: ESI
Fragmentation mode: HCD
Collision energy: 90 % (nominal)
Resolution: 7500
Column name: XBridge C18 3.5um, 2.1x50mm, Waters
Retention time: 11.5 min
Base peak: 557.3051
Precursor m/z: 557.3044
Precursor type: [M+H]+
m/z	relative intensity	assigned
57.0699	81	C4H9+
58.0651	999	C3H8N+
70.0651	32	C4H8N+
72.0808	43	C4H10N+
84.0808	30	C5H10N+
86.0964	79	C5H12N+
91.0542	13	C7H7+
100.112	466	C6H14N+
103.0543	9	C8H7+
105.0702	10	C8H9+
112.1122	6	C7H14N+
114.1277	67	C7H16N+
116.0492	10	C8H6N+
117.0576	17	C8H7N+
118.0412	49	C8H6O+
118.065	7	C8H8N+
121.0284	130	C7H5O2+
121.0396	25	C6H5N2O+
128.1433	23	C8H18N+
133.0281	17	C8H5O2+
142.159	21	C9H20N+
144.044	8	C9H6NO+
145.0522	42	C9H7NO+
146.06	52	C9H8NO+
147.0439	35	C9H7O2+
158.0601	13	C10H8NO+
159.0675	16	C10H9NO+
161.0594	29	C10H9O2+
172.0394	11	C10H6NO2+
173.0469	31	C10H7NO2+
174.0548	32	C10H8NO2+
180.08	10	C13H10N+
194.0958	11	C14H12N+
196.0761	11	C13H10NO+
205.0648	11	C15H9O+
220.0756	21	C15H10NO+
221.0836	9	C9H17O4S+
222.0911	13	C15H12NO+
233.0586	8	C16H9O2+
234.093	7	C10H18O4S+
248.0722	7	C10H16O5S+
249.0786	20	C16H11NO2+
250.0865	19	C16H12NO2+
262.0823	5	C14H14O5+
