Mass spectrum: 2-(3-Hydroxycyclohexyl)-5-(2-methyl-2-octanyl)phenol; LC-ESI-QFT; MS2; CE: 45; R=35000; [M+H]+
Name: 2-(3-Hydroxycyclohexyl)-5-(2-methyl-2-octanyl)phenol
Name: CP47.497
Name: 2-(3-hydroxycyclohexyl)-5-(2-methyloctan-2-yl)phenol
Formula: C21H34O2
Exact mass: 318.25588
SMILES: CCCCCCC(C)(C)C1=CC(=C(C=C1)C2CCCC(C2)O)O
InChI: InChI=1S/C21H34O2/c1-4-5-6-7-13-21(2,3)17-11-12-19(20(23)15-17)16-9-8-10-18(22)14-16/h11-12,15-16,18,22-23H,4-10,13-14H2,1-3H3
Instrument: Q Exactive Plus Orbitrap Thermo Scientific
Instrument type: LC-ESI-QFT
Ms type: MS2
Ion mode: POSITIVE
Ionization: ESI
Fragmentation mode: HCD
Collision energy: 45 (nominal)
Resolution: 35000
Column name: XBridge C18 3.5um, 2.1x50mm, Waters
Retention time: 17.2 min
Base peak: 391.2833
Precursor m/z: 319.2632
Precursor type: [M+H]+
m/z	relative intensity	assigned
53.0022	8	C3HO+
53.0385	1	C4H5+
53.9975	1	C2NO+
55.0542	8	C4H7+
57.0699	401	C4H9+
67.0542	4	C5H7+
69.0698	40	C5H9+
71.0855	566	C5H11+
77.0382	3	C6H5+
79.0542	12	C6H7+
81.0698	82	C6H9+
83.0855	12	C6H11+
85.1011	275	C6H13+
89.0598	2	C4H9O2+
91.0541	3	C7H7+
93.0698	4	C7H9+
95.0491	1	C6H7O+
95.0855	3	C7H11+
97.1012	1	C7H13+
105.0698	3	C8H9+
107.0491	906	C7H7O+
109.0648	3	C7H9O+
109.101	1	C8H13+
119.0493	6	C8H7O+
119.0856	3	C9H11+
120.0571	3	C8H8O+
121.0648	549	C8H9O+
121.1012	28	C9H13+
123.0803	4	C8H11O+
131.0856	4	C10H11+
133.0648	12	C9H9O+
134.0726	3	C9H10O+
135.0804	45	C9H11O+
135.1168	3	C10H15+
145.1013	4	C11H13+
147.0802	12	C10H11O+
148.0882	107	C10H12O+
149.0961	163	C10H13O+
159.1167	7	C12H15+
163.1116	14	C11H15O+
173.1322	1	C13H17+
175.1117	42	C12H15O+
177.1278	5	C12H17O+
191.143	12	C13H19O+
218.1662	6	C15H22O+
233.19	999	C16H25O+
247.2053	1	C17H27O+
