Mass spectrum: Permethrin; LC-ESI-QFT; MS2; CE: 75; R=35000; [M+H]+
Name: Permethrin
Name: [3-(phenyloxy)phenyl]methyl 3-(2,2-dichloroethenyl)-2,2-dimethylcyclopropanecarboxylate
Name: (3-phenoxyphenyl)methyl 3-(2,2-dichloroethenyl)-2,2-dimethylcyclopropane-1-carboxylate
Formula: C21H20Cl2O3
Exact mass: 390.07895
SMILES: Cl/C(Cl)=C/C3C(C(=O)OCc2cccc(Oc1ccccc1)c2)C3(C)C
InChI: InChI=1S/C21H20Cl2O3/c1-21(2)17(12-18(22)23)19(21)20(24)25-13-14-7-6-10-16(11-14)26-15-8-4-3-5-9-15/h3-12,17,19H,13H2,1-2H3
Instrument: Q Exactive Orbitrap Thermo Scientific
Instrument type: LC-ESI-QFT
Ms type: MS2
Ion mode: POSITIVE
Ionization: ESI
Fragmentation mode: HCD
Collision energy: 75 (nominal)
Resolution: 35000
Column name: XBridge C18 3.5um, 2.1x50mm, Waters
Retention time: 18.0 min
Base peak: 183.0804
Precursor m/z: 391.0862
Precursor type: [M+H]+
m/z	relative intensity	assigned
57.0699	46	C4H9+
65.0386	49	C5H5+
67.0542	3	C5H7+
71.0855	37	C5H11+
77.0153	2	C3H6Cl+
93.0334	25	C6H5O+
95.0491	4	C6H7O+
98.0362	1	C5H6O2+
111.044	24	C6H7O2+
115.0543	7	C9H7+
116.0621	1	C9H8+
121.0284	174	C7H5O2+
121.0396	37	C6H5N2O+
128.062	6	C10H8+
129.0701	4	C10H9+
139.0544	6	C11H7+
140.0621	6	C11H8+
141.0698	3	C11H9+
142.0781	1	C11H10+
145.0647	1	C10H9O+
149.0234	999	C8H5O3+
152.062	4	C12H8+
153.0699	9	C12H9+
154.0777	5	C12H10+
155.0854	5	C12H11+
162.0231	4	C10H7Cl+
165.07	32	C13H9+
166.0778	7	C13H10+
167.034	9	C8H7O4+
167.0855	22	C13H11+
168.0569	22	C12H8O+
175.0311	3	C11H8Cl+
178.0778	3	C14H10+
179.0856	5	C14H11+
180.0931	5	C14H12+
181.0496	1	C9H9O4+
181.0648	4	C13H9O+
181.101	5	C14H13+
182.0725	3	C13H10O+
183.0806	6	C13H11O+
191.0857	1	C15H11+
203.0854	1	C16H11+
205.0648	1	C15H9O+
207.0803	1	C15H11O+
218.0727	3	C16H10O+
231.0812	1	C17H11O+
233.0958	2	C17H13O+
