Mass spectrum: Pinoxaden-TP NOA 407854; LC-ESI-QFT; MS2; CE: 90%; R=17500; [M+H]+
Name: Pinoxaden-TP NOA 407854
Name: 8-(2,6-Diethyl-4-methylphenyl)tetrahydropyrazolo(1,2-d)(1,4,5)oxadiazepine-7,9-dione
Formula: C18H24N2O3
Exact mass: 316.1787
SMILES: CCC1=CC(C)=CC(CC)=C1C1C(=O)N2CCOCCN2C1=O
InChI: InChI=1S/C18H24N2O3/c1-4-13-10-12(3)11-14(5-2)15(13)16-17(21)19-6-8-23-9-7-20(19)18(16)22/h10-11,16H,4-9H2,1-3H3
Instrument: Q Exactive Plus Orbitrap Thermo Scientific
Instrument type: LC-ESI-QFT
Ms type: MS2
Ion mode: POSITIVE
Ionization: ESI
Fragmentation mode: HCD
Collision energy: 90 % (nominal)
Resolution: 17500
Column name: XBridge C18 3.5um, 2.1x50mm, Waters
Retention time: 7.136 min
Base peak: 317.186
Precursor m/z: 317.186
Precursor type: [M+H]+
m/z	relative intensity	assigned
53.0385	25	C4H5+
55.0177	30	C3H3O+
55.0543	18	C4H7+
56.0495	23	C3H6N+
57.0448	85	C2H5N2+
59.0603	20	C2H7N2+
65.0385	28	C5H5+
70.0287	22	C3H4NO+
71.0604	405	C3H7N2+
72.0444	25	C3H6NO+
77.0384	19	C6H5+
78.0463	27	C6H6+
79.0543	74	C6H7+
85.0397	135	C3H5N2O+
86.06	18	C4H8NO+
91.0543	860	C7H7+
93.07	156	C7H9+
95.0491	37	C6H7O+
101.0709	76	C4H9N2O+
102.0785	9	C4H10N2O+
103.0542	194	C8H7+
104.062	102	C8H8+
105.0447	21	
105.0699	518	C8H9+
115.0543	338	C9H7+
116.0497	42	C8H6N+
116.0621	167	C9H8+
117.0578	80	C8H7N+
117.0699	568	C9H9+
118.065	91	C8H8N+
118.0776	36	C9H10+
119.0491	24	C8H7O+
119.0856	430	C9H11+
128.0621	210	C10H8+
129.0699	438	C10H9+
130.0651	220	C9H8N+
130.0776	152	C10H10+
131.0493	70	C9H7O+
131.073	238	C9H9N+
131.0854	999	C10H11+
132.0446	14	C8H6NO+
132.0567	53	C9H8O+
132.0807	61	C9H10N+
132.0928	20	C10H12+
133.0648	25	C9H9O+
133.1012	182	C10H13+
141.0584	15	C10H7N+
141.0694	99	C11H9+
142.065	59	C10H8N+
142.0776	68	C11H10+
143.0728	74	C10H9N+
143.0855	85	C11H11+
144.0568	37	C10H8O+
144.0689	10	C9H8N2+
144.0811	189	C10H10N+
144.093	36	C11H12+
145.0529	19	C9H7NO+
145.0648	241	C10H9O+
145.0757	12	C9H9N2+
145.0886	96	C10H11N+
145.1011	139	C11H13+
146.0602	108	C9H8NO+
146.0966	230	C10H12N+
147.0441	20	C9H7O2+
147.0692	14	C9H9NO+
147.0802	40	C10H11O+
147.117	19	C11H15+
153.0698	22	C12H9+
154.0658	15	C11H8N+
154.0773	21	C12H10+
155.0603	28	C10H7N2+
155.0735	16	C11H9N+
155.0855	34	C12H11+
156.0809	106	C11H10N+
157.0645	35	C11H9O+
157.0884	65	C11H11N+
157.1013	32	C12H13+
158.0598	31	C10H8NO+
158.0726	73	C11H10O+
158.0965	115	C11H12N+
159.0449	19	C10H7O2+
159.0676	68	C10H9NO+
159.0805	126	C11H11O+
159.1039	42	C11H13N+
159.1167	58	C12H15+
160.0754	85	C10H10NO+
160.0883	69	C11H12O+
160.1118	37	C11H14N+
169.0762	14	C11H9N2+
169.0881	10	C12H11N+
170.0601	39	C11H8NO+
170.0963	67	C12H12N+
171.0557	16	C10H7N2O+
171.1042	21	C12H13N+
172.0629	21	C10H8N2O+
172.0755	30	C11H10NO+
172.0881	11	C12H12O+
172.1118	35	C12H14N+
173.0829	16	C11H11NO+
173.0954	19	C12H13O+
173.1079	13	C11H13N2+
174.0914	90	C11H12NO+
174.1276	40	C12H16N+
183.0676	24	C12H9NO+
184.0751	15	C12H10NO+
185.0712	62	C11H9N2O+
186.0547	28	C11H8NO2+
186.0909	26	C12H12NO+
187.0749	32	C12H11O2+
188.1074	60	C12H14NO+
198.091	44	C13H12NO+
215.0817	20	C12H11N2O2+
