Mass spectrum: FK-506; LC-ESI-QFT; MS2; CE: 120; R=35000; [M+H]+
Name: FK-506
Name: Tacrolimus
Name: (1R,9S,12S,13R,14S,17R,21S,23S,24R,25S,27R)-17-Allyl-1,14-dihydroxy-12-{(1E)-1-[(1R,3R,4R)-4-hydroxy-3-methoxycyclohexyl]-1-propen-2-yl}-23,25-dimethoxy-13,19,21,27-tetramethyl-11,28-dioxa-4-azatricyc lo[22.3.1.0 4,9]octacos-18-ene-2,3,10,16-tetrone
Formula: C44H69NO12
Exact mass: 803.48198
SMILES: CC1CC(C2C(CC(C(O2)(C(=O)C(=O)N3CCCCC3C(=O)OC(C(C(CC(=O)C(C=C(C1)C)CC=C)O)C)C(=CC4CCC(C(C4)OC)O)C)O)C)OC)OC
InChI: InChI=1S/C44H69NO12/c1-10-13-31-19-25(2)18-26(3)20-37(54-8)40-38(55-9)22-28(5)44(52,57-40)41(49)42(50)45-17-12-11-14-32(45)43(51)56-39(29(6)34(47)24-35(31)48)27(4)21-30-15-16-33(46)36(23-30)53-7/h10,19,21,26,28-34,36-40,46-47,52H,1,11-18,20,22-24H2,2-9H3/b25-19-,27-21+/t26-,28+,29+,30-,31+,32-,33+,34-,36+,37-,38-,39+,40+,44+/m0/s1
Instrument: Q Exactive Plus Orbitrap Thermo Scientific
Instrument type: LC-ESI-QFT
Ms type: MS2
Ion mode: POSITIVE
Ionization: ESI
Fragmentation mode: HCD
Collision energy: 120 (nominal)
Resolution: 35000
Column name: XBridge C18 3.5um, 2.1x50mm, Waters
Retention time: 15.3 min
Base peak: 279.159
Precursor m/z: 804.4893
Precursor type: [M+H]+
m/z	relative intensity	assigned
56.0495	226	C3H6N+
57.0335	2	C3H5O+
57.0699	2	C4H9+
59.0492	6	C3H7O+
63.0229	12	C5H3+
65.0386	320	C5H5+
66.0464	30	C5H6+
67.0179	19	C4H3O+
67.0542	258	C5H7+
68.0257	2	C4H4O+
68.0496	2	C4H6N+
68.9971	8	C3HO2+
69.0335	32	C4H5O+
69.0574	6	C4H7N+
69.0699	11	C5H9+
71.0127	28	C3H3O2+
71.0491	15	C4H7O+
77.0386	74	C6H5+
78.0464	43	C6H6+
79.0542	400	C6H7+
80.0494	2	C5H6N+
80.0621	7	C6H8+
81.0335	61	C5H5O+
81.0699	61	C6H9+
82.0289	2	C4H4NO+
82.0414	9	C5H6O+
82.0652	16	C5H8N+
83.0129	1	C4H3O2+
83.0492	13	C5H7O+
84.0808	427	C5H10N+
85.0284	2	C4H5O2+
85.0649	10	C5H9O+
87.0442	2	C4H7O2+
89.0386	10	C7H5+
91.0543	999	C7H7+
92.0621	15	C7H8+
93.07	71	C7H9+
94.0413	17	C6H6O+
94.0653	3	C6H8N+
94.0776	1	C7H10+
95.0492	446	C6H7O+
96.057	6	C6H8O+
97.0649	3	C6H9O+
102.0464	15	C8H6+
103.0543	138	C8H7+
104.0621	35	C8H8+
105.0448	235	C6H5N2+
105.07	254	C8H9+
107.0491	22	C7H7O+
107.0856	15	C8H11+
108.057	7	C7H8O+
109.0285	242	C6H5O2+
109.0649	34	C7H9O+
110.0601	1	C6H8NO+
111.0442	2	C6H7O2+
115.0543	391	C9H7+
116.0621	69	C9H8+
117.0699	114	C9H9+
118.0778	6	C9H10+
119.0494	8	C8H7O+
119.0604	11	C7H7N2+
119.0856	49	C9H11+
121.0649	14	C8H9O+
122.0732	1	C8H10O+
126.0466	3	C10H6+
127.0543	31	C10H7+
128.0621	423	C10H8+
129.0699	183	C10H9+
130.0778	24	C10H10+
131.0492	19	C9H7O+
131.0856	38	C10H11+
132.057	10	C9H8O+
133.0648	9	C9H9O+
133.1014	2	C10H13+
135.044	2	C8H7O2+
135.0804	5	C9H11O+
139.0544	3	C11H7+
141.0699	290	C11H9+
142.0778	73	C11H10+
143.0857	29	C11H11+
144.057	9	C10H8O+
144.0933	3	C11H12+
145.0649	44	C10H9O+
145.1012	3	C11H13+
146.0728	2	C10H10O+
147.0804	2	C10H11O+
152.0622	84	C12H8+
153.07	113	C12H9+
154.0777	30	C12H10+
155.0605	51	C10H7N2+
155.0856	56	C12H11+
156.0936	13	C12H12+
157.065	11	C11H9O+
157.1011	3	C12H13+
158.0726	3	C11H10O+
159.0807	6	C11H11O+
161.096	2	C11H13O+
165.07	162	C13H9+
166.0778	23	C13H10+
167.0855	35	C13H11+
168.0572	8	C12H8O+
168.0934	6	C13H12+
169.0646	14	C12H9O+
169.101	3	C13H13+
171.0806	6	C12H11O+
176.0621	3	C14H8+
177.0699	8	C14H9+
178.0778	72	C14H10+
179.0857	34	C14H11+
180.0933	2	C14H12+
181.0649	11	C13H9O+
181.1015	6	C14H13+
182.072	2	C13H10O+
183.0806	6	C13H11O+
189.0701	19	C15H9+
190.0779	16	C15H10+
191.0856	24	C15H11+
192.0935	9	C15H12+
193.1012	2	C15H13+
194.072	1	C14H10O+
195.0807	6	C14H11O+
197.0965	2	C14H13O+
202.0777	22	C16H10+
203.0857	9	C16H11+
204.093	2	C16H12+
205.1012	2	C16H13+
209.0957	2	C15H13O+
215.0857	8	C17H11+
216.0937	3	C17H12+
