Mass spectrum: citramalic acid; LC-ESI-ITFT; MS2; CE: 50%; R=7500; [M-H]-
Name: citramalic acid
Name: 2-hydroxy-2-methylbutanedioic acid
Formula: C5H8O5
Exact mass: 148.0372
SMILES: CC(O)(CC(=O)O)C(=O)O
InChI: InChI=1S/C5H8O5/c1-5(10,4(8)9)2-3(6)7/h10H,2H2,1H3,(H,6,7)(H,8,9)
Instrument: LTQ Orbitrap Velos Thermo Scientific
Instrument type: LC-ESI-ITFT
Ms type: MS2
Ion mode: NEGATIVE
Ionization: ESI
Fragmentation mode: HCD
Collision energy: 50 % (nominal)
Resolution: 7500
Column name: HSS T3 1.7 um, 2x150 mm, Waters
Retention time: 5.2 min
Base peak: 147.0298
Precursor m/z: 147.0299
Precursor type: [M-H]-
m/z	relative intensity	assigned
85.0295	104	C4H5O2-
87.0087	164	C3H3O3-
101.0245	3	C4H5O3-
103.0401	27	C4H7O3-
129.0193	68	C5H5O4-
147.0298	999	C5H7O5-
