Mass spectrum: vanillin; LC-ESI-ITFT; MS2; CE: 50%; R=7500; [M-H]-
Name: vanillin
Name: 4-hydroxy-3-methoxybenzaldehyde
Formula: C8H8O3
Exact mass: 152.0473
SMILES: COc1cc(C=O)ccc1O
InChI: InChI=1S/C8H8O3/c1-11-8-4-6(5-9)2-3-7(8)10/h2-5,10H,1H3
Instrument: LTQ Orbitrap Velos Thermo Scientific
Instrument type: LC-ESI-ITFT
Ms type: MS2
Ion mode: NEGATIVE
Ionization: ESI
Fragmentation mode: HCD
Collision energy: 50 % (nominal)
Resolution: 7500
Column name: HSS T3 1.7 um, 2x150 mm, Waters
Retention time: 9.5 min
Base peak: 174.956
Precursor m/z: 151.0401
Precursor type: [M-H]-
m/z	relative intensity	assigned
107.0504	1	C7H7O-
108.0218	5	C6H4O2-
109.0297	1	C6H5O2-
123.0453	1	C7H7O2-
136.0166	929	C7H4O3-
151.0401	999	C8H7O3-
