Mass spectrum: 4-hydroxybenzoic acid; LC-ESI-ITFT; MS2; CE: 50%; R=7500; [M-H]-
Name: 4-hydroxybenzoic acid
Name: 4-oxoniobenzoate
Formula: C7H6O3
Exact mass: 138.0317
SMILES: O=C(O)c1ccc(O)cc1
InChI: InChI=1S/C7H6O3/c8-6-3-1-5(2-4-6)7(9)10/h1-4,8H,(H,9,10)
Instrument: LTQ Orbitrap Velos Thermo Scientific
Instrument type: LC-ESI-ITFT
Ms type: MS2
Ion mode: NEGATIVE
Ionization: ESI
Fragmentation mode: HCD
Collision energy: 50 % (nominal)
Resolution: 7500
Column name: HSS T3 1.7 um, 2x150 mm, Waters
Retention time: 9.1 min
Base peak: 137.0246
Precursor m/z: 137.0244
Precursor type: [M-H]-
m/z	relative intensity	assigned
93.0345	750	C6H5O-
137.0243	999	C7H5O3-
