Mass spectrum: D-fructose 1-phosphate; LC-ESI-ITFT; MS2; CE: 50%; R=7500; [M-H]-
Name: D-fructose 1-phosphate
Name: [(3S,4R,5R)-3,4,5,6-tetrahydroxy-2-oxohexyl] dihydrogen phosphate
Formula: C6H13O9P
Exact mass: 260.0297
SMILES: O=C(COP(=O)(O)O)[C@@H](O)[C@H](O)[C@H](O)CO
InChI: InChI=1S/C6H13O9P/c7-1-3(8)5(10)6(11)4(9)2-15-16(12,13)14/h3,5-8,10-11H,1-2H2,(H2,12,13,14)/t3-,5-,6-/m1/s1
Instrument: LTQ Orbitrap Velos Thermo Scientific
Instrument type: LC-ESI-ITFT
Ms type: MS2
Ion mode: NEGATIVE
Ionization: ESI
Fragmentation mode: HCD
Collision energy: 50 % (nominal)
Resolution: 7500
Column name: HSS T3 1.7 um, 2x150 mm, Waters
Retention time: 1.4 min
Base peak: 174.956
Precursor m/z: 259.0224
Precursor type: [M-H]-
m/z	relative intensity	assigned
78.9591	147	O3P-
96.9696	999	H2O4P-
101.0244	21	C4H5O3-
161.0453	2	C6H9O5-
168.9909	40	C3H6O6P-
187.0014	1	C3H8O7P-
259.0224	245	C6H12O9P-
