Mass spectrum: adipic acid; LC-ESI-ITFT; MS2; CE: 50%; R=7500; [M-H]-
Name: adipic acid
Formula: C6H10O4
Exact mass: 146.0579
SMILES: O=C(O)CCCCC(=O)O
InChI: InChI=1S/C6H10O4/c7-5(8)3-1-2-4-6(9)10/h1-4H2,(H,7,8)(H,9,10)
Instrument: LTQ Orbitrap Velos Thermo Scientific
Instrument type: LC-ESI-ITFT
Ms type: MS2
Ion mode: NEGATIVE
Ionization: ESI
Fragmentation mode: HCD
Collision energy: 50 % (nominal)
Resolution: 7500
Column name: HSS T3 1.7 um, 2x150 mm, Waters
Retention time: 8.1 min
Base peak: 145.0502
Precursor m/z: 145.0506
Precursor type: [M-H]-
m/z	relative intensity	assigned
81.0347	44	C5H5O-
83.0502	341	C5H7O-
101.0608	360	C5H9O2-
127.04	7	C6H7O3-
145.0506	999	C6H9O4-
