Mass spectrum: emodin; LC-ESI-ITFT; MS2; CE: 50%; R=7500; [M-H]-
Name: emodin
Name: 1,3,8-trihydroxy-6-methylanthracene-9,10-dione
Formula: C15H10O5
Exact mass: 270.0528
SMILES: Cc1cc(O)c2c(c1)C(=O)c1cc(O)cc(O)c1C2=O
InChI: InChI=1S/C15H10O5/c1-6-2-8-12(10(17)3-6)15(20)13-9(14(8)19)4-7(16)5-11(13)18/h2-5,16-18H,1H3
Instrument: LTQ Orbitrap Velos Thermo Scientific
Instrument type: LC-ESI-ITFT
Ms type: MS2
Ion mode: NEGATIVE
Ionization: ESI
Fragmentation mode: HCD
Collision energy: 50 % (nominal)
Resolution: 7500
Column name: HSS T3 1.7 um, 2x150 mm, Waters
Retention time: 10.7 min
Base peak: 269.0461
Precursor m/z: 269.0455
Precursor type: [M-H]-
m/z	relative intensity	assigned
268.0256	3	C14H6NO5-
269.0456	999	C15H9O5-
