Mass spectrum: (R)-2-hydroxystearic acid; LC-ESI-ITFT; MS2; CE: 50%; R=7500; [M-H]-
Name: (R)-2-hydroxystearic acid
Name: (2R)-2-hydroxyoctadecanoic acid
Formula: C18H36O3
Exact mass: 300.2664
SMILES: CCCCCCCCCCCCCCCC[C@@H](O)C(=O)O
InChI: InChI=1S/C18H36O3/c1-2-3-4-5-6-7-8-9-10-11-12-13-14-15-16-17(19)18(20)21/h17,19H,2-16H2,1H3,(H,20,21)/t17-/m1/s1
Instrument: LTQ Orbitrap Velos Thermo Scientific
Instrument type: LC-ESI-ITFT
Ms type: MS2
Ion mode: NEGATIVE
Ionization: ESI
Fragmentation mode: HCD
Collision energy: 50 % (nominal)
Resolution: 7500
Column name: HSS T3 1.7 um, 2x150 mm, Waters
Retention time: 12.4 min
Base peak: 106.0409
Precursor m/z: 299.2592
Precursor type: [M-H]-
m/z	relative intensity	assigned
253.2538	46	C17H33O-
281.2488	1	C18H33O2-
297.243	1	C18H33O3-
299.2592	999	C18H35O3-
