Mass spectrum: vanillic acid; LC-ESI-ITFT; MS2; CE: 50%; R=7500; [M-H]-
Name: vanillic acid
Name: 4-hydroxy-3-methoxybenzoic acid
Formula: C8H8O4
Exact mass: 168.0423
SMILES: COc1cc(C(=O)O)ccc1O
InChI: InChI=1S/C8H8O4/c1-12-7-4-5(8(10)11)2-3-6(7)9/h2-4,9H,1H3,(H,10,11)
Instrument: LTQ Orbitrap Velos Thermo Scientific
Instrument type: LC-ESI-ITFT
Ms type: MS2
Ion mode: NEGATIVE
Ionization: ESI
Fragmentation mode: HCD
Collision energy: 50 % (nominal)
Resolution: 7500
Column name: HSS T3 1.7 um, 2x150 mm, Waters
Retention time: 9.3 min
Base peak: 167.0346
Precursor m/z: 167.035
Precursor type: [M-H]-
m/z	relative intensity	assigned
91.0187	1	C6H3O-
95.0138	1	C5H3O2-
95.0503	1	C6H7O-
99.0088	1	C4H3O3-
108.0217	108	C6H4O2-
121.0297	1	C7H5O2-
123.045	193	C7H7O2-
152.0113	559	C7H4O4-
167.0348	999	C8H7O4-
