Mass spectrum: (4-chloro-2-methylphenoxy)acetic acid; LC-ESI-ITFT; MS2; CE: 50%; R=7500; [M-H]-
Name: (4-chloro-2-methylphenoxy)acetic acid
Name: 2-(4-chloro-2-methylphenoxy)acetic acid
Formula: C9H9ClO3
Exact mass: 200.0240
SMILES: Cc1cc(Cl)ccc1OCC(=O)O
InChI: InChI=1S/C9H9ClO3/c1-6-4-7(10)2-3-8(6)13-5-9(11)12/h2-4H,5H2,1H3,(H,11,12)
Instrument: LTQ Orbitrap Velos Thermo Scientific
Instrument type: LC-ESI-ITFT
Ms type: MS2
Ion mode: NEGATIVE
Ionization: ESI
Fragmentation mode: HCD
Collision energy: 50 % (nominal)
Resolution: 7500
Column name: HSS T3 1.7 um, 2x150 mm, Waters
Retention time: 10.3 min
Base peak: 199.0169
Precursor m/z: 199.0167
Precursor type: [M-H]-
m/z	relative intensity	assigned
126.9955	14	C6H4ClO-
141.9825	1	C6H3ClO2-
169.9777	21	C7H3ClO3-
170.9853	128	C7H4ClO3-
199.0165	999	C9H8ClO3-
