Mass spectrum: 4-hydroxybenzaldehyde; LC-ESI-ITFT; MS2; CE: 50%; R=7500; [M-H]-
Name: 4-hydroxybenzaldehyde
Formula: C7H6O2
Exact mass: 122.0368
SMILES: O=Cc1ccc(O)cc1
InChI: InChI=1S/C7H6O2/c8-5-6-1-3-7(9)4-2-6/h1-5,9H
Instrument: LTQ Orbitrap Velos Thermo Scientific
Instrument type: LC-ESI-ITFT
Ms type: MS2
Ion mode: NEGATIVE
Ionization: ESI
Fragmentation mode: HCD
Collision energy: 50 % (nominal)
Resolution: 7500
Column name: HSS T3 1.7 um, 2x150 mm, Waters
Retention time: 9.4 min
Base peak: 121.0289
Precursor m/z: 121.0295
Precursor type: [M-H]-
m/z	relative intensity	assigned
93.0345	1	C6H5O-
108.0218	2	C6H4O2-
121.0294	999	C7H5O2-
