Mass spectrum: 3-hydroxybenzoic acid; LC-ESI-ITFT; MS2; CE: 50%; R=7500; [M-H]-
Name: 3-hydroxybenzoic acid
Formula: C7H6O3
Exact mass: 138.0317
SMILES: O=C(O)c1cccc(O)c1
InChI: InChI=1S/C7H6O3/c8-6-3-1-2-5(4-6)7(9)10/h1-4,8H,(H,9,10)
Instrument: LTQ Orbitrap Velos Thermo Scientific
Instrument type: LC-ESI-ITFT
Ms type: MS2
Ion mode: NEGATIVE
Ionization: ESI
Fragmentation mode: HCD
Collision energy: 50 % (nominal)
Resolution: 7500
Column name: HSS T3 1.7 um, 2x150 mm, Waters
Retention time: 9.3 min
Base peak: 137.0246
Precursor m/z: 137.0244
Precursor type: [M-H]-
m/z	relative intensity	assigned
79.019	2	C5H3O-
93.0345	533	C6H5O-
95.0135	1	C5H3O2-
108.0216	4	C6H4O2-
109.0295	7	C6H5O2-
124.0167	1	C6H4O3-
137.0242	999	C7H5O3-
