Mass spectrum: 3-methyl-2-oxovaleric acid; LC-ESI-ITFT; MS2; CE: 50%; R=7500; [M-H]-
Name: 3-methyl-2-oxovaleric acid
Name: 3-methyl-2-oxopentanoic acid
Formula: C6H10O3
Exact mass: 130.0630
SMILES: CCC(C)C(=O)C(=O)O
InChI: InChI=1S/C6H10O3/c1-3-4(2)5(7)6(8)9/h4H,3H2,1-2H3,(H,8,9)
Instrument: LTQ Orbitrap Velos Thermo Scientific
Instrument type: LC-ESI-ITFT
Ms type: MS2
Ion mode: NEGATIVE
Ionization: ESI
Fragmentation mode: HCD
Collision energy: 50 % (nominal)
Resolution: 7500
Column name: HSS T3 1.7 um, 2x150 mm, Waters
Retention time: 9.2 min
Base peak: 174.956
Precursor m/z: 129.0557
Precursor type: [M-H]-
m/z	relative intensity	assigned
85.0295	52	C4H5O2-
101.0244	28	C4H5O3-
101.0608	17	C5H9O2-
129.0198	145	C5H5O4-
129.0555	999	C6H9O3-
