Mass spectrum: uridine; LC-ESI-ITFT; MS2; CE: 50%; R=7500; [M-H]-
Name: uridine
Name: 1-[(2R,3R,4S,5R)-3,4-dihydroxy-5-(hydroxymethyl)oxolan-2-yl]pyrimidine-2,4-dione
Formula: C9H12N2O6
Exact mass: 244.0695
SMILES: O=c1nc(O)ccn1[C@@H]1O[C@H](CO)[C@@H](O)[C@H]1O
InChI: InChI=1S/C9H12N2O6/c12-3-4-6(14)7(15)8(17-4)11-2-1-5(13)10-9(11)16/h1-2,4,6-8,12,14-15H,3H2,(H,10,13,16)/t4-,6-,7-,8-/m1/s1
Instrument: LTQ Orbitrap Velos Thermo Scientific
Instrument type: LC-ESI-ITFT
Ms type: MS2
Ion mode: NEGATIVE
Ionization: ESI
Fragmentation mode: HCD
Collision energy: 50 % (nominal)
Resolution: 7500
Column name: HSS T3 1.7 um, 2x150 mm, Waters
Retention time: 5.6 min
Base peak: 243.0626
Precursor m/z: 243.0623
Precursor type: [M-H]-
m/z	relative intensity	assigned
78.0349	1	C5H4N-
81.022	1	C4H3NO-
82.0299	87	C4H4NO-
83.0138	2	C4H3O2-
84.0455	5	C4H6NO-
85.0295	1	C4H5O2-
86.0245	1	C3H4NO2-
89.0244	1	C3H5O3-
92.0505	1	C6H6N-
94.0299	6	C5H4NO-
95.0137	1	C5H3O2-
96.0456	10	C5H6NO-
97.0296	1	C5H5O2-
98.0244	1	C4H4NO2-
98.0613	1	C5H8NO-
108.0458	27	C6H6NO-
110.0249	999	C5H4NO2-
111.0199	65	C4H3N2O2-
113.0245	1	C5H5O3-
117.0193	25	C4H5O4-
120.0455	8	C7H6NO-
122.0247	38	C6H4NO2-
124.0404	17	C6H6NO2-
125.0247	2	C6H5O3-
126.0561	8	C6H8NO2-
128.0351	3	C5H6NO3-
132.0301	7	C4H6NO4-
134.0247	3	C7H4NO2-
136.0405	1	C7H6NO2-
138.0199	15	C6H4NO3-
138.0562	12	C7H8NO2-
140.0354	226	C6H6NO3-
152.0355	334	C7H6NO3-
153.0305	168	C6H5N2O3-
154.0342	1	CH6N4O5-
154.0511	1	C7H8NO3-
164.0355	10	C8H6NO3-
170.0455	2	C7H8NO4-
182.046	26	C8H8NO4-
183.041	2	C7H7N2O4-
200.0564	818	C8H10NO5-
201.0603	8	C3H11N3O7-
243.0621	829	C9H11N2O6-
