Mass spectrum: dehydrocostus lactone; LC-ESI-ITFT; MS2; CE: 50%; R=7500; [M+H]+
Name: dehydrocostus lactone
Name: (3aS,6aR,9aR,9bS)-3,6,9-trimethylidene-3a,4,5,6a,7,8,9a,9b-octahydroazuleno[4,5-b]furan-2-one
Formula: C15H18O2
Exact mass: 230.1307
SMILES: C=C1CC[C@H]2C(=C)CC[C@H]3C(=C)C(=O)O[C@@H]3[C@@H]12
InChI: InChI=1S/C15H18O2/c1-8-4-7-12-10(3)15(16)17-14(12)13-9(2)5-6-11(8)13/h11-14H,1-7H2/t11-,12-,13-,14-/m0/s1
Instrument: LTQ Orbitrap Velos Thermo Scientific
Instrument type: LC-ESI-ITFT
Ms type: MS2
Ion mode: POSITIVE
Ionization: ESI
Fragmentation mode: HCD
Collision energy: 50 % (nominal)
Resolution: 7500
Column name: HSS T3 1.7 um, 2x150 mm, Waters
Retention time: 10.9 min
Base peak: 124.0866
Precursor m/z: 231.138
Precursor type: [M+H]+
m/z	relative intensity	assigned
79.0541	22	C6H7+
81.0697	71	C6H9+
91.0541	48	C7H7+
93.0697	59	C7H9+
95.0855	37	C7H11+
97.0644	3	C6H9O+
105.0697	130	C8H9+
107.0853	37	C8H11+
115.0537	6	C9H7+
117.0697	55	C9H9+
119.0853	119	C9H11+
121.0644	9	C8H9O+
121.1012	7	C9H13+
128.0616	15	C10H8+
129.0698	107	C10H9+
130.0779	10	C10H10+
131.0854	249	C10H11+
132.0933	11	C10H12+
133.0646	13	C9H9O+
133.101	30	C10H13+
135.0443	4	C8H7O2+
135.08	4	C9H11O+
137.0598	16	C8H9O2+
142.0776	17	C11H10+
143.0854	329	C11H11+
144.0936	13	C11H12+
145.101	239	C11H13+
146.1088	16	C11H14+
147.0802	47	C10H11O+
150.0463	40	C12H6+
151.0753	15	C9H11O2+
155.0852	17	C12H11+
156.0929	25	C12H12+
157.0647	71	C11H9O+
157.101	229	C12H13+
158.1091	5	C12H14+
159.0804	11	C11H11O+
159.1166	150	C12H15+
161.0595	12	C10H9O2+
161.0958	14	C11H13O+
163.0754	9	C10H11O2+
165.0695	13	C13H9+
167.0856	10	C13H11+
169.1014	13	C13H13+
170.1087	33	C13H14+
171.0804	55	C12H11O+
171.1167	32	C13H15+
175.0751	81	C11H11O2+
176.0837	5	C11H12O2+
177.0905	6	C11H13O2+
180.0932	24	C14H12+
183.1171	24	C14H15+
185.1322	999	C14H17+
187.1477	79	C14H19+
189.0907	86	C12H13O2+
195.1168	77	C15H15+
198.1036	9	C14H14O+
203.1063	19	C13H15O2+
203.1429	41	C14H19O+
213.1272	130	C15H17O+
231.1377	242	C15H19O2+
