Mass spectrum: 3-coumaric acid; LC-ESI-ITFT; MS2; CE: 50%; R=7500; [M-H]-
Name: 3-coumaric acid
Name: 3-(3-hydroxyphenyl)prop-2-enoic acid
Formula: C9H8O3
Exact mass: 164.0473
SMILES: O=C(O)C=Cc1cccc(O)c1
InChI: InChI=1S/C9H8O3/c10-8-3-1-2-7(6-8)4-5-9(11)12/h1-6,10H,(H,11,12)
Instrument: LTQ Orbitrap Velos Thermo Scientific
Instrument type: LC-ESI-ITFT
Ms type: MS2
Ion mode: NEGATIVE
Ionization: ESI
Fragmentation mode: HCD
Collision energy: 50 % (nominal)
Resolution: 7500
Column name: HSS T3 1.7 um, 2x150 mm, Waters
Retention time: 9.5 min
Base peak: 174.956
Precursor m/z: 163.0401
Precursor type: [M-H]-
m/z	relative intensity	assigned
91.0555	1	C7H7-
93.0347	2	C6H5O-
119.0503	660	C8H7O-
121.0294	8	C7H5O2-
134.0371	1	C8H6O2-
135.0452	18	C8H7O2-
163.0401	999	C9H7O3-
