Mass spectrum: 9-ribosyl-trans-zeatin; LC-ESI-ITFT; MS2; CE: 50%; R=7500; [M+H]+
Name: 9-ribosyl-trans-zeatin
Name: (2R,3S,4R,5R)-2-(hydroxymethyl)-5-[6-[(4-hydroxy-3-methylbut-2-enyl)amino]purin-9-yl]oxolane-3,4-diol
Formula: C15H21N5O5
Exact mass: 351.1543
SMILES: C/C(=CCNc1ncnc2c1ncn2[C@@H]1O[C@H](CO)[C@@H](O)[C@H]1O)CO
InChI: InChI=1S/C15H21N5O5/c1-8(4-21)2-3-16-13-10-14(18-6-17-13)20(7-19-10)15-12(24)11(23)9(5-22)25-15/h2,6-7,9,11-12,15,21-24H,3-5H2,1H3,(H,16,17,18)/t9-,11-,12-,15-/m1/s1
Instrument: LTQ Orbitrap Velos Thermo Scientific
Instrument type: LC-ESI-ITFT
Ms type: MS2
Ion mode: POSITIVE
Ionization: ESI
Fragmentation mode: HCD
Collision energy: 50 % (nominal)
Resolution: 7500
Column name: HSS T3 1.7 um, 2x150 mm, Waters
Retention time: 8.9 min
Base peak: 352.1611
Precursor m/z: 352.1615
Precursor type: [M+H]+
m/z	relative intensity	assigned
82.0149	6	CN5+
87.1241	10	H15N4O+
119.0361	8	C7H5NO+
136.0619	999	C5H6N5+
137.0652	12	H7N7O2+
148.0618	94	C6H6N5+
182.0213	5	C8H6O5+
182.0534	14	C4H10N2O6+
185.0821	33	C10H9N4+
202.1089	142	C10H12N5+
220.1195	734	C10H14N5O+
221.1232	25	C5H15N7O3+
