Mass spectrum: biotin; LC-ESI-ITFT; MS2; CE: 50%; R=7500; [M-H]-
Name: biotin
Name: 5-[(3aS,4S,6aR)-2-oxo-1,3,3a,4,6,6a-hexahydrothieno[3,4-d]imidazol-4-yl]pentanoic acid
Formula: C10H16N2O3S
Exact mass: 244.0882
SMILES: O=C(O)CCCC[C@@H]1SC[C@@H]2N=C(O)N[C@@H]21
InChI: InChI=1S/C10H16N2O3S/c13-8(14)4-2-1-3-7-9-6(5-16-7)11-10(15)12-9/h6-7,9H,1-5H2,(H,13,14)(H2,11,12,15)/t6-,7-,9-/m0/s1
Instrument: LTQ Orbitrap Velos Thermo Scientific
Instrument type: LC-ESI-ITFT
Ms type: MS2
Ion mode: NEGATIVE
Ionization: ESI
Fragmentation mode: HCD
Collision energy: 50 % (nominal)
Resolution: 7500
Column name: HSS T3 1.7 um, 2x150 mm, Waters
Retention time: 9.2 min
Base peak: 243.0812
Precursor m/z: 243.0809
Precursor type: [M-H]-
m/z	relative intensity	assigned
97.0408	1	C4H5N2O-
111.0454	1	C6H7O2-
120.0821	2	C8H10N-
122.0976	5	C8H12N-
156.0855	11	C8H14NS-
165.1037	12	C9H13N2O-
166.0875	78	C9H12NO2-
191.0829	2	C10H11N2O2-
197.0935	7	C9H13N2O3-
199.0914	34	C9H15N2OS-
200.0751	192	C9H14NO2S-
209.0933	34	C10H13N2O3-
225.0706	1	C10H13N2O2S-
243.081	999	C10H15N2O3S-
