Mass spectrum: proline; LC-ESI-ITFT; MS2; CE: 50%; R=7500; [M+H]+
Name: proline
Name: pyrrolidin-1-ium-2-carboxylate
Formula: C5H9NO2
Exact mass: 115.0633
SMILES: O=C(O)C1CCCN1
InChI: InChI=1S/C5H9NO2/c7-5(8)4-2-1-3-6-4/h4,6H,1-3H2,(H,7,8)
Instrument: LTQ Orbitrap Velos Thermo Scientific
Instrument type: LC-ESI-ITFT
Ms type: MS2
Ion mode: POSITIVE
Ionization: ESI
Fragmentation mode: HCD
Collision energy: 50 % (nominal)
Resolution: 7500
Column name: HSS T3 1.7 um, 2x150 mm, Waters
Retention time: 1.7 min
Base peak: 116.0705
Precursor m/z: 116.0706
Precursor type: [M+H]+
m/z	relative intensity	assigned
98.0604	1	C5H8NO+
116.0709	999	C5H10NO2+
