Mass spectrum: N-methylnicotinate; LC-ESI-ITFT; MS2; CE: 50%; R=7500; [M+H]+
Name: N-methylnicotinate
Name: 1-methylpyridin-1-ium-3-carboxylate
Formula: C7H7NO2
Exact mass: 137.0477
SMILES: C[n+]1cccc(C(=O)[O-])c1
InChI: InChI=1S/C7H7NO2/c1-8-4-2-3-6(5-8)7(9)10/h2-5H,1H3
Instrument: LTQ Orbitrap Velos Thermo Scientific
Instrument type: LC-ESI-ITFT
Ms type: MS2
Ion mode: POSITIVE
Ionization: ESI
Fragmentation mode: HCD
Collision energy: 50 % (nominal)
Resolution: 7500
Column name: HSS T3 1.7 um, 2x150 mm, Waters
Retention time: 1.7 min
Base peak: 138.0549
Precursor m/z: 138.055
Precursor type: [M+H]+
m/z	relative intensity	assigned
78.0342	1	C5H4N+
92.0497	28	C6H6N+
93.0572	2	C6H7N+
94.0654	41	C6H8N+
96.0446	1	C5H6NO+
110.0604	12	C6H8NO+
120.0447	1	C7H6NO+
138.0554	999	C7H8NO2+
