Mass spectrum: L-alanyl-L-alanine; LC-ESI-ITFT; MS2; CE: 50%; R=7500; [M-H]-
Name: L-alanyl-L-alanine
Name: (2S)-2-[[(2S)-2-aminopropanoyl]amino]propanoic acid
Formula: C6H12N2O3
Exact mass: 160.0848
SMILES: C[C@H](N)C(O)=N[C@@H](C)C(=O)O
InChI: InChI=1S/C6H12N2O3/c1-3(7)5(9)8-4(2)6(10)11/h3-4H,7H2,1-2H3,(H,8,9)(H,10,11)/t3-,4-/m0/s1
Instrument: LTQ Orbitrap Velos Thermo Scientific
Instrument type: LC-ESI-ITFT
Ms type: MS2
Ion mode: NEGATIVE
Ionization: ESI
Fragmentation mode: HCD
Collision energy: 50 % (nominal)
Resolution: 7500
Column name: HSS T3 1.7 um, 2x150 mm, Waters
Retention time: 1.6 min
Base peak: 159.0774
Precursor m/z: 159.0775
Precursor type: [M-H]-
m/z	relative intensity	assigned
87.0565	15	C3H7N2O-
88.0405	172	C3H6NO2-
98.0612	10	C5H8NO-
99.0564	1	C4H7N2O-
113.0722	1	C5H9N2O-
115.0877	147	C5H11N2O-
141.067	2	C6H9N2O2-
159.0775	999	C6H11N2O3-
