Mass spectrum: glycine betaine; LC-ESI-ITFT; MS2; CE: 50%; R=7500; [M+H]+
Name: glycine betaine
Name: 2-(trimethylazaniumyl)acetate
Formula: C5H11NO2
Exact mass: 117.0790
SMILES: C[N+](C)(C)CC(=O)[O-]
InChI: InChI=1S/C5H11NO2/c1-6(2,3)4-5(7)8/h4H2,1-3H3
Instrument: LTQ Orbitrap Velos Thermo Scientific
Instrument type: LC-ESI-ITFT
Ms type: MS2
Ion mode: POSITIVE
Ionization: ESI
Fragmentation mode: HCD
Collision energy: 50 % (nominal)
Resolution: 7500
Column name: HSS T3 1.7 um, 2x150 mm, Waters
Retention time: 1.5 min
Base peak: 118.0861
Precursor m/z: 118.0863
Precursor type: [M+H]+
m/z	relative intensity	assigned
118.0865	999	C5H12NO2+
