Mass spectrum: 5'-S-methyl-5'-thioadenosine; LC-ESI-ITFT; MS2; CE: 50%; R=7500; [M+H]+
Name: 5'-S-methyl-5'-thioadenosine
Name: (2R,3R,4S,5S)-2-(6-aminopurin-9-yl)-5-(methylsulfanylmethyl)oxolane-3,4-diol
Formula: C11H15N5O3S
Exact mass: 297.0896
SMILES: CSC[C@H]1O[C@@H](n2cnc3c2ncnc3N)[C@H](O)[C@@H]1O
InChI: InChI=1S/C11H15N5O3S/c1-20-2-5-7(17)8(18)11(19-5)16-4-15-6-9(12)13-3-14-10(6)16/h3-5,7-8,11,17-18H,2H2,1H3,(H2,12,13,14)/t5-,7-,8-,11-/m1/s1
Instrument: LTQ Orbitrap Velos Thermo Scientific
Instrument type: LC-ESI-ITFT
Ms type: MS2
Ion mode: POSITIVE
Ionization: ESI
Fragmentation mode: HCD
Collision energy: 50 % (nominal)
Resolution: 7500
Column name: HSS T3 1.7 um, 2x150 mm, Waters
Retention time: 8.3 min
Base peak: 298.0969
Precursor m/z: 298.0968
Precursor type: [M+H]+
m/z	relative intensity	assigned
75.0264	19	C3H7S+
94.0401	1	C4H4N3+
97.0285	13	C5H5O2+
103.0214	4	C4H7OS+
115.039	1	C5H7O3+
119.0353	5	C5H3N4+
136.0619	999	C5H6N5+
145.032	6	C6H9O2S+
163.0426	1	C6H11O3S+
182.0504	1	C8H10N2OS+
