Mass spectrum: allantoin; LC-ESI-ITFT; MS2; CE: 50%; R=7500; [M+H]+
Name: allantoin
Name: (2,5-dioxoimidazolidin-4-yl)urea
Formula: C4H6N4O3
Exact mass: 158.0440
SMILES: N=C(O)NC1N=C(O)N=C1O
InChI: InChI=1S/C4H6N4O3/c5-3(10)6-1-2(9)8-4(11)7-1/h1H,(H3,5,6,10)(H2,7,8,9,11)
Instrument: LTQ Orbitrap Velos Thermo Scientific
Instrument type: LC-ESI-ITFT
Ms type: MS2
Ion mode: POSITIVE
Ionization: ESI
Fragmentation mode: HCD
Collision energy: 50 % (nominal)
Resolution: 7500
Column name: HSS T3 1.7 um, 2x150 mm, Waters
Retention time: 1.6 min
Base peak: 159.0508
Precursor m/z: 159.0513
Precursor type: [M+H]+
m/z	relative intensity	assigned
99.0189	999	C3H3N2O2+
100.0266	111	C3H4N2O2+
