Mass spectrum: 3-aminobenzoic acid; LC-ESI-ITFT; MS2; CE: 50%; R=7500; [M+H]+
Name: 3-aminobenzoic acid
Formula: C7H7NO2
Exact mass: 137.0477
SMILES: Nc1cccc(C(=O)O)c1
InChI: InChI=1S/C7H7NO2/c8-6-3-1-2-5(4-6)7(9)10/h1-4H,8H2,(H,9,10)
Instrument: LTQ Orbitrap Velos Thermo Scientific
Instrument type: LC-ESI-ITFT
Ms type: MS2
Ion mode: POSITIVE
Ionization: ESI
Fragmentation mode: HCD
Collision energy: 50 % (nominal)
Resolution: 7500
Column name: HSS T3 1.7 um, 2x150 mm, Waters
Retention time: 5.5 min
Base peak: 138.0549
Precursor m/z: 138.055
Precursor type: [M+H]+
m/z	relative intensity	assigned
77.0387	14	C6H5+
92.0495	16	C6H6N+
93.0573	18	C6H7N+
94.0651	139	C6H8N+
95.0491	11	C6H7O+
105.0447	17	C6H5N2+
110.0603	4	C6H8NO+
120.0444	41	C7H6NO+
121.0284	30	C7H5O2+
138.055	999	C7H8NO2+
