Mass spectrum: guanine; LC-ESI-ITFT; MS2; CE: 50%; R=7500; [M-H]-
Name: guanine
Name: 2-amino-3,7-dihydropurin-6-one
Formula: C5H5N5O
Exact mass: 151.0494
SMILES: c1[nH]c2c(n1)nc(nc2O)N
InChI: InChI=1S/C5H5N5O/c6-5-9-3-2(4(11)10-5)7-1-8-3/h1H,(H4,6,7,8,9,10,11)
Instrument: LTQ Orbitrap Velos Thermo Scientific
Instrument type: LC-ESI-ITFT
Ms type: MS2
Ion mode: NEGATIVE
Ionization: ESI
Fragmentation mode: HCD
Collision energy: 50 % (nominal)
Resolution: 7500
Column name: HSS T3 1.7 um, 2x150 mm, Waters
Retention time: 3.0 min
Base peak: 174.956
Precursor m/z: 150.0421
Precursor type: [M-H]-
m/z	relative intensity	assigned
82.041	2	C3H4N3-
107.0364	28	C4H3N4-
108.0204	49	C4H2N3O-
126.0308	5	C4H4N3O2-
133.0156	344	C5HN4O-
150.042	999	C5H4N5O-
