Mass spectrum: esculetin; LC-ESI-ITFT; MS2; CE: 50%; R=7500; [M-H]-
Name: esculetin
Name: 6,7-dihydroxychromen-2-one
Formula: C9H6O4
Exact mass: 178.0266
SMILES: O=c1ccc2cc(O)c(O)cc2o1
InChI: InChI=1S/C9H6O4/c10-6-3-5-1-2-9(12)13-8(5)4-7(6)11/h1-4,10-11H
Instrument: LTQ Orbitrap Velos Thermo Scientific
Instrument type: LC-ESI-ITFT
Ms type: MS2
Ion mode: NEGATIVE
Ionization: ESI
Fragmentation mode: HCD
Collision energy: 50 % (nominal)
Resolution: 7500
Column name: HSS T3 1.7 um, 2x150 mm, Waters
Retention time: 9.2 min
Base peak: 177.0188
Precursor m/z: 177.0193
Precursor type: [M-H]-
m/z	relative intensity	assigned
89.0398	2	C7H5-
105.0347	7	C7H5O-
133.0297	31	C8H5O2-
149.0247	3	C8H5O3-
177.0194	999	C9H5O4-
