Mass spectrum: kaempferol; LC-ESI-ITFT; MS2; CE: 50%; R=7500; [M+H]+
Name: kaempferol
Name: 3,5,7-trihydroxy-2-(4-hydroxyphenyl)chromen-4-one
Formula: C15H10O6
Exact mass: 286.0477
SMILES: O=c1c(O)c(-c2ccc(O)cc2)oc2cc(O)cc(O)c21
InChI: InChI=1S/C15H10O6/c16-8-3-1-7(2-4-8)15-14(20)13(19)12-10(18)5-9(17)6-11(12)21-15/h1-6,16-18,20H
Instrument: LTQ Orbitrap Velos Thermo Scientific
Instrument type: LC-ESI-ITFT
Ms type: MS2
Ion mode: POSITIVE
Ionization: ESI
Fragmentation mode: HCD
Collision energy: 50 % (nominal)
Resolution: 7500
Column name: HSS T3 1.7 um, 2x150 mm, Waters
Retention time: 9.9 min
Base peak: 287.055
Precursor m/z: 287.055
Precursor type: [M+H]+
m/z	relative intensity	assigned
105.0332	2	C7H5O+
107.0491	1	C7H7O+
109.0286	1	C6H5O2+
111.0077	9	C5H3O3+
121.0284	35	C7H5O2+
127.0414	1	C9H5N+
133.028	5	C8H5O2+
135.0439	1	C8H7O2+
137.0233	7	C7H5O3+
145.0654	1	C10H9O+
147.0439	5	C9H7O2+
148.0474	1	C4H8N2O4+
153.0182	48	C7H5O4+
154.0216	3	C2H6N2O6+
157.0645	2	C11H9O+
164.0556	1	C5H10NO5+
165.0183	30	C8H5O4+
166.0213	1	C3H6N2O6+
171.0446	2	C11H7O2+
181.9727	2	C6NO6+
183.0289	13	C8H7O5+
185.0605	4	C12H9O2+
189.0547	2	C11H9O3+
197.0599	2	C13H9O2+
203.0693	1	C12H11O3+
213.0546	17	C13H9O3+
214.0581	2	C8H10N2O5+
231.0656	15	C13H11O4+
241.0499	14	C14H9O4+
258.0525	17	C14H10O5+
259.06	11	C14H11O5+
263.0557	1	C13H11O6+
269.0451	4	C15H9O5+
287.0553	999	C15H11O6+
