Mass spectrum: 1-8-diaminooctane; LC-ESI-ITFT; MS2; CE: 50%; R=7500; [M+H]+
Name: 1-8-diaminooctane
Name: octane-1,8-diamine
Formula: C8H20N2
Exact mass: 144.1626
SMILES: NCCCCCCCCN
InChI: InChI=1S/C8H20N2/c9-7-5-3-1-2-4-6-8-10/h1-10H2
Instrument: LTQ Orbitrap Velos Thermo Scientific
Instrument type: LC-ESI-ITFT
Ms type: MS2
Ion mode: POSITIVE
Ionization: ESI
Fragmentation mode: HCD
Collision energy: 50 % (nominal)
Resolution: 7500
Column name: HSS T3 1.7 um, 2x150 mm, Waters
Retention time: 1.8 min
Base peak: 128.1435
Precursor m/z: 145.1699
Precursor type: [M+H]+
m/z	relative intensity	assigned
81.0337	11	C5H5O+
83.0855	15	C6H11+
111.1166	25	C8H15+
128.1433	999	C8H18N+
145.1699	900	C8H21N2+
