Mass spectrum: trans-zeatin; LC-ESI-ITFT; MS2; CE: 50%; R=7500; [M+H]+
Name: trans-zeatin
Name: 2-methyl-4-(7H-purin-6-ylamino)but-2-en-1-ol
Formula: C10H13N5O
Exact mass: 219.1120
SMILES: CC(=CCNC1=NC=NC2=C1NC=N2)CO
InChI: InChI=1S/C10H13N5O/c1-7(4-16)2-3-11-9-8-10(13-5-12-8)15-6-14-9/h2,5-6,16H,3-4H2,1H3,(H2,11,12,13,14,15)
Instrument: LTQ Orbitrap Velos Thermo Scientific
Instrument type: LC-ESI-ITFT
Ms type: MS2
Ion mode: POSITIVE
Ionization: ESI
Fragmentation mode: HCD
Collision energy: 50 % (nominal)
Resolution: 7500
Column name: HSS T3 1.7 um, 2x150 mm, Waters
Retention time: 7.6 min
Base peak: 220.1194
Precursor m/z: 220.1193
Precursor type: [M+H]+
m/z	relative intensity	assigned
94.0404	1	C4H4N3+
119.0355	12	C5H3N4+
121.0508	1	C5H5N4+
135.0671	2	C6H7N4+
136.0619	999	C5H6N5+
137.045	2	C3H3N7+
146.0464	2	C6H4N5+
148.0619	93	C6H6N5+
159.067	11	C8H7N4+
175.098	4	C9H11N4+
182.0791	1	C5H8N7O+
185.0824	44	C10H9N4+
187.0855	3	C9H9N5+
202.109	73	C10H12N5+
220.1195	75	C10H14N5O+
