Mass spectrum: 3'-AMP; LC-ESI-ITFT; MS2; CE: 50%; R=7500; [M+H]+
Name: 3'-AMP
Name: [(2R,3S,4R,5R)-5-(6-aminopurin-9-yl)-4-hydroxy-2-(hydroxymethyl)oxolan-3-yl] dihydrogen phosphate
Formula: C10H14N5O7P
Exact mass: 347.0631
SMILES: Nc1ncnc2c1ncn2[C@@H]1O[C@H](CO)[C@@H](OP(=O)(O)O)[C@H]1O
InChI: InChI=1S/C10H14N5O7P/c11-8-5-9(13-2-12-8)15(3-14-5)10-6(17)7(4(1-16)21-10)22-23(18,19)20/h2-4,6-7,10,16-17H,1H2,(H2,11,12,13)(H2,18,19,20)/t4-,6-,7-,10-/m1/s1
Instrument: LTQ Orbitrap Velos Thermo Scientific
Instrument type: LC-ESI-ITFT
Ms type: MS2
Ion mode: POSITIVE
Ionization: ESI
Fragmentation mode: HCD
Collision energy: 50 % (nominal)
Resolution: 7500
Column name: HSS T3 1.7 um, 2x150 mm, Waters
Retention time: 5.6 min
Base peak: 348.071
Precursor m/z: 348.0704
Precursor type: [M+H]+
m/z	relative intensity	assigned
85.0284	47	C4H5O2+
94.0403	1	H7N4P+
97.0284	34	C5H5O2+
98.9841	49	H4O4P+
115.039	3	C5H7O3+
119.0353	10	C5H3N4+
136.0618	999	C5H6N5+
136.9996	11	C3H6O4P+
137.0447	1	C4H9O5+
164.9948	51	C4H6O5P+
176.9949	1	C5H6O5P+
195.0057	2	C5H8O6P+
213.0158	1	C5H10O7P+
