Mass spectrum: 4-guanidinobutanoic acid; LC-ESI-ITFT; MS2; CE: 50%; R=7500; [M-H]-
Name: 4-guanidinobutanoic acid
Name: 4-(diaminomethylideneamino)butanoic acid
Formula: C5H11N3O2
Exact mass: 145.0851
SMILES: N=C(N)NCCCC(=O)O
InChI: InChI=1S/C5H11N3O2/c6-5(7)8-3-1-2-4(9)10/h1-3H2,(H,9,10)(H4,6,7,8)
Instrument: LTQ Orbitrap Velos Thermo Scientific
Instrument type: LC-ESI-ITFT
Ms type: MS2
Ion mode: NEGATIVE
Ionization: ESI
Fragmentation mode: HCD
Collision energy: 50 % (nominal)
Resolution: 7500
Column name: HSS T3 1.7 um, 2x150 mm, Waters
Retention time: 3.2 min
Base peak: 174.956
Precursor m/z: 144.0779
Precursor type: [M-H]-
m/z	relative intensity	assigned
83.0614	10	C4H7N2-
84.0455	5	C4H6NO-
100.0764	1	C5H10NO-
102.056	999	C4H8NO2-
126.0672	6	C5H8N3O-
127.0512	50	C5H7N2O2-
144.0778	327	C5H10N3O2-
