Mass spectrum: 6-methoxyquinoline; LC-ESI-ITFT; MS2; CE: 50%; R=7500; [M+H]+
Name: 6-methoxyquinoline
Formula: C10H9NO
Exact mass: 159.0684
SMILES: COc1ccc2ncccc2c1
InChI: InChI=1S/C10H9NO/c1-12-9-4-5-10-8(7-9)3-2-6-11-10/h2-7H,1H3
Instrument: LTQ Orbitrap Velos Thermo Scientific
Instrument type: LC-ESI-ITFT
Ms type: MS2
Ion mode: POSITIVE
Ionization: ESI
Fragmentation mode: HCD
Collision energy: 50 % (nominal)
Resolution: 7500
Column name: HSS T3 1.7 um, 2x150 mm, Waters
Retention time: 8.6 min
Base peak: 160.0756
Precursor m/z: 160.0757
Precursor type: [M+H]+
m/z	relative intensity	assigned
117.0577	42	C8H7N+
132.0814	2	C9H10N+
145.0527	106	C9H7NO+
160.0761	999	C10H10NO+
