Mass spectrum: nicotinamide; LC-ESI-ITFT; MS2; CE: 50%; R=7500; [M+H]+
Name: nicotinamide
Name: pyridine-3-carboxamide
Formula: C6H6N2O
Exact mass: 122.0480
SMILES: N=C(O)c1cccnc1
InChI: InChI=1S/C6H6N2O/c7-6(9)5-2-1-3-8-4-5/h1-4H,(H2,7,9)
Instrument: LTQ Orbitrap Velos Thermo Scientific
Instrument type: LC-ESI-ITFT
Ms type: MS2
Ion mode: POSITIVE
Ionization: ESI
Fragmentation mode: HCD
Collision energy: 50 % (nominal)
Resolution: 7500
Column name: HSS T3 1.7 um, 2x150 mm, Waters
Retention time: 3.3 min
Base peak: 123.0553
Precursor m/z: 123.0553
Precursor type: [M+H]+
m/z	relative intensity	assigned
78.0341	12	C5H4N+
80.0498	72	C5H6N+
96.0447	17	C5H6NO+
106.0291	10	C6H4NO+
123.0556	999	C6H7N2O+
