Mass spectrum: ectoine; LC-ESI-ITFT; MS2; CE: 50%; R=7500; [M+H]+
Name: ectoine
Name: (6S)-2-methyl-1,4,5,6-tetrahydropyrimidin-3-ium-6-carboxylate
Formula: C6H10N2O2
Exact mass: 142.0742
SMILES: CC1=NCC[C@@H](C(=O)O)N1
InChI: InChI=1S/C6H10N2O2/c1-4-7-3-2-5(8-4)6(9)10/h5H,2-3H2,1H3,(H,7,8)(H,9,10)/t5-/m0/s1
Instrument: LTQ Orbitrap Velos Thermo Scientific
Instrument type: LC-ESI-ITFT
Ms type: MS2
Ion mode: POSITIVE
Ionization: ESI
Fragmentation mode: HCD
Collision energy: 50 % (nominal)
Resolution: 7500
Column name: HSS T3 1.7 um, 2x150 mm, Waters
Retention time: 1.7 min
Base peak: 143.0818
Precursor m/z: 143.0815
Precursor type: [M+H]+
m/z	relative intensity	assigned
97.0764	622	C5H9N2+
101.0713	65	C4H9N2O+
102.0553	4	C4H8NO2+
143.0821	999	C6H11N2O2+
