Mass spectrum: biotin; LC-ESI-ITFT; MS2; CE: 50%; R=7500; [M+H]+
Name: biotin
Name: 5-[(3aS,4S,6aR)-2-oxo-1,3,3a,4,6,6a-hexahydrothieno[3,4-d]imidazol-4-yl]pentanoic acid
Formula: C10H16N2O3S
Exact mass: 244.0882
SMILES: O=C(O)CCCC[C@@H]1SC[C@@H]2N=C(O)N[C@@H]21
InChI: InChI=1S/C10H16N2O3S/c13-8(14)4-2-1-3-7-9-6(5-16-7)11-10(15)12-9/h6-7,9H,1-5H2,(H,13,14)(H2,11,12,15)/t6-,7-,9-/m0/s1
Instrument: LTQ Orbitrap Velos Thermo Scientific
Instrument type: LC-ESI-ITFT
Ms type: MS2
Ion mode: POSITIVE
Ionization: ESI
Fragmentation mode: HCD
Collision energy: 50 % (nominal)
Resolution: 7500
Column name: HSS T3 1.7 um, 2x150 mm, Waters
Retention time: 9.2 min
Base peak: 245.0957
Precursor m/z: 245.0954
Precursor type: [M+H]+
m/z	relative intensity	assigned
76.0216	5	C2H6NS+
79.0542	4	C6H7+
81.0699	4	C6H9+
82.0289	2	C4H4NO+
83.0493	1	C5H7O+
85.0107	4	C4H5S+
87.0266	1	C4H7S+
91.0543	2	C7H7+
95.0853	2	C7H11+
97.0107	14	C5H5S+
97.0396	71	C4H5N2O+
98.0965	4	C6H12N+
99.026	2	C5H7S+
100.0216	3	C4H6NS+
101.042	3	C5H9S+
102.0006	2	C3H4NOS+
105.07	18	C8H9+
107.0855	5	C8H11+
108.0809	7	C7H10N+
109.0639	1	C5H7N3+
111.0265	5	C6H7S+
112.0212	2	C5H6NS+
113.0419	6	C6H9S+
115.058	7	C6H11S+
120.0811	2	C8H10N+
121.0647	8	C8H9O+
122.0966	5	C8H12N+
123.0263	58	C7H7S+
124.0757	1	C7H10NO+
125.0421	10	C7H9S+
126.0011	1	C5H4NOS+
131.0273	5	C4H7N2OS+
132.081	1	C9H10N+
133.065	6	C9H9O+
133.0889	3	C9H11N+
137.0421	1	C8H9S+
138.0005	2	C6H4NOS+
138.037	4	C7H8NS+
139.0577	44	C8H11S+
140.0523	1	C7H10NS+
141.0117	1	C5H5N2OS+
143.0274	11	C5H7N2OS+
143.0523	1	C7H11OS+
148.0756	1	C9H10NO+
150.0915	10	C9H12NO+
151.0865	11	C8H11N2O+
153.1026	4	C8H13N2O+
154.0682	2	C8H12NS+
156.0484	2	C7H10NOS+
156.0843	9	C8H14NS+
162.0919	1	C10H12NO+
163.0858	2	C9H11N2O+
164.053	3	C9H10NS+
165.1028	5	C9H13N2O+
166.0687	73	C9H12NS+
167.0527	76	C9H11OS+
172.9873	1	C9HO4+
173.0381	1	C6H9N2O2S+
173.0549	1	C6H9N2O4+
173.1047	1	C8H15NO3+
173.1236	1	C3H17N4O4+
175.0874	1	C10H11N2O+
181.0975	3	C9H13N2O2+
182.0634	11	C9H12NOS+
183.058	1	C8H11N2OS+
184.0792	75	C9H14NOS+
185.0743	12	C8H13N2OS+
192.0481	22	C10H10NOS+
193.0976	6	C10H13N2O2+
199.0901	90	C9H15N2OS+
209.0746	77	C10H13N2OS+
210.0585	7	C10H12NO2S+
227.0851	999	C10H15N2O2S+
245.0954	8	C10H17N2O3S+
