Mass spectrum: esculin hydrate; LC-ESI-ITFT; MS2; CE: 50%; R=7500; [M+H]+
Name: esculin hydrate
Name: 7-hydroxy-6-[3,4,5-trihydroxy-6-(hydroxymethyl)oxan-2-yl]oxychromen-2-one
Formula: C15H16O9
Exact mass: 340.0794
SMILES: O=c1ccc2cc(OC3OC(CO)C(O)C(O)C3O)c(O)cc2o1
InChI: InChI=1S/C15H16O9/c16-5-10-12(19)13(20)14(21)15(24-10)23-9-3-6-1-2-11(18)22-8(6)4-7(9)17/h1-4,10,12-17,19-21H,5H2
Instrument: LTQ Orbitrap Velos Thermo Scientific
Instrument type: LC-ESI-ITFT
Ms type: MS2
Ion mode: POSITIVE
Ionization: ESI
Fragmentation mode: HCD
Collision energy: 50 % (nominal)
Resolution: 7500
Column name: HSS T3 1.7 um, 2x150 mm, Waters
Retention time: 8.9 min
Base peak: 341.0854
Precursor m/z: 341.0867
Precursor type: [M+H]+
m/z	relative intensity	assigned
81.0336	3	C5H5O+
83.0131	1	C4H3O2+
85.0285	17	C4H5O2+
87.0441	1	C4H7O2+
97.0285	9	C5H5O2+
99.0442	1	C5H7O2+
109.0286	4	C6H5O2+
117.0337	1	C8H5O+
123.0442	33	C7H7O2+
127.0392	3	C6H7O3+
133.0286	38	C8H5O2+
135.0444	11	C8H7O2+
151.0392	30	C8H7O3+
179.0341	999	C9H7O4+
