Mass spectrum: cystathionine; LC-ESI-ITFT; MS2; CE: 50%; R=7500; [M+H]+
Name: cystathionine
Name: 2-azaniumyl-4-(2-azaniumyl-2-carboxylatoethyl)sulfanylbutanoate
Formula: C7H14N2O4S
Exact mass: 222.0674
SMILES: NC(CCSCC(N)C(=O)O)C(=O)O
InChI: InChI=1S/C7H14N2O4S/c8-4(6(10)11)1-2-14-3-5(9)7(12)13/h4-5H,1-3,8-9H2,(H,10,11)(H,12,13)
Instrument: LTQ Orbitrap Velos Thermo Scientific
Instrument type: LC-ESI-ITFT
Ms type: MS2
Ion mode: POSITIVE
Ionization: ESI
Fragmentation mode: HCD
Collision energy: 50 % (nominal)
Resolution: 7500
Column name: HSS T3 1.7 um, 2x150 mm, Waters
Retention time: 1.3 min
Base peak: 223.0752
Precursor m/z: 223.0747
Precursor type: [M+H]+
m/z	relative intensity	assigned
88.0212	953	C3H6NS+
90.0369	3	C3H8NS+
102.0547	10	C4H8NO2+
116.0288	1	C5H8OS+
116.0488	1	H10N3O2S+
116.069	2	C3H8N4O+
116.0849	1	CH14N3OS+
116.1184	1	C5H14N3+
134.0266	999	C4H8NO2S+
136.0421	2	C4H10NO2S+
160.0414	2	C4H8N4OS+
223.0737	4	C7H15N2O4S+
225.0424	4	C5H11N3O5S+
