Mass spectrum: cytidine; LC-ESI-ITFT; MS2; CE: 50%; R=7500; [M+H]+
Name: cytidine
Name: 4-amino-1-[(2R,3R,4S,5R)-3,4-dihydroxy-5-(hydroxymethyl)oxolan-2-yl]pyrimidin-2-one
Formula: C9H13N3O5
Exact mass: 243.0855
SMILES: c1cn(c(=O)nc1N)[C@H]2[C@@H]([C@@H]([C@H](O2)CO)O)O
InChI: InChI=1S/C9H13N3O5/c10-5-1-2-12(9(16)11-5)8-7(15)6(14)4(3-13)17-8/h1-2,4,6-8,13-15H,3H2,(H2,10,11,16)/t4-,6-,7-,8-/m1/s1
Instrument: LTQ Orbitrap Velos Thermo Scientific
Instrument type: LC-ESI-ITFT
Ms type: MS2
Ion mode: POSITIVE
Ionization: ESI
Fragmentation mode: HCD
Collision energy: 50 % (nominal)
Resolution: 7500
Column name: HSS T3 1.7 um, 2x150 mm, Waters
Retention time: 3.2 min
Base peak: 112.0505
Precursor m/z: 244.0928
Precursor type: [M+H]+
m/z	relative intensity	assigned
106.0162	20	C5H2N2O+
112.0504	999	C4H6N3O+
