Mass spectrum: naringenin; LC-ESI-ITFT; MS2; CE: 50%; R=7500; [M+H]+
Name: naringenin
Name: 5,7-dihydroxy-2-(4-hydroxyphenyl)-2,3-dihydrochromen-4-one
Formula: C15H12O5
Exact mass: 272.0685
SMILES: O=C1CC(c2ccc(O)cc2)Oc2cc(O)cc(O)c21
InChI: InChI=1S/C15H12O5/c16-9-3-1-8(2-4-9)13-7-12(19)15-11(18)5-10(17)6-14(15)20-13/h1-6,13,16-18H,7H2
Instrument: LTQ Orbitrap Velos Thermo Scientific
Instrument type: LC-ESI-ITFT
Ms type: MS2
Ion mode: POSITIVE
Ionization: ESI
Fragmentation mode: HCD
Collision energy: 50 % (nominal)
Resolution: 7500
Column name: HSS T3 1.7 um, 2x150 mm, Waters
Retention time: 10.0 min
Base peak: 273.0763
Precursor m/z: 273.0757
Precursor type: [M+H]+
m/z	relative intensity	assigned
88.0056	5	C5N2+
91.0542	9	C7H7+
95.0494	9	C6H7O+
107.0495	19	C7H7O+
119.0494	87	C8H7O+
121.0286	3	C7H5O2+
122.9804	3	CHNO6+
123.0443	42	C7H7O2+
124.0481	2	C2H8N2O4+
147.0443	491	C9H7O2+
148.0472	5	C4H8N2O4+
151.039	10	C8H7O3+
153.0185	999	C7H5O4+
154.0221	11	C2H6N2O6+
163.0756	3	C10H11O2+
171.0293	3	C7H7O5+
189.0544	7	C11H9O3+
273.0764	113	C15H13O5+
