Mass spectrum: guanine; LC-ESI-ITFT; MS2; CE: 50%; R=7500; [M+H]+
Name: guanine
Name: 2-amino-3,7-dihydropurin-6-one
Formula: C5H5N5O
Exact mass: 151.0494
SMILES: c1[nH]c2c(n1)nc(nc2O)N
InChI: InChI=1S/C5H5N5O/c6-5-9-3-2(4(11)10-5)7-1-8-3/h1H,(H4,6,7,8,9,10,11)
Instrument: LTQ Orbitrap Velos Thermo Scientific
Instrument type: LC-ESI-ITFT
Ms type: MS2
Ion mode: POSITIVE
Ionization: ESI
Fragmentation mode: HCD
Collision energy: 50 % (nominal)
Resolution: 7500
Column name: HSS T3 1.7 um, 2x150 mm, Waters
Retention time: 3.1 min
Base peak: 152.0564
Precursor m/z: 152.0567
Precursor type: [M+H]+
m/z	relative intensity	assigned
109.0506	14	C4H5N4+
110.0346	92	C4H4N3O+
128.0452	10	C4H6N3O2+
134.0459	9	C5H4N5+
135.0298	249	C5H3N4O+
136.0137	2	C5H2N3O2+
152.0562	999	C5H6N5O+
