Mass spectrum: L-thialysine; LC-ESI-ITFT; MS2; CE: 50%; R=7500; [M+H]+
Name: L-thialysine
Name: (2R)-2-amino-3-(2-aminoethylsulfanyl)propanoic acid
Formula: C5H12N2O2S
Exact mass: 164.0619
SMILES: NCCSC[C@H](N)C(=O)O
InChI: InChI=1S/C5H12N2O2S/c6-1-2-10-3-4(7)5(8)9/h4H,1-3,6-7H2,(H,8,9)/t4-/m0/s1
Instrument: LTQ Orbitrap Velos Thermo Scientific
Instrument type: LC-ESI-ITFT
Ms type: MS2
Ion mode: POSITIVE
Ionization: ESI
Fragmentation mode: HCD
Collision energy: 50 % (nominal)
Resolution: 7500
Column name: HSS T3 1.7 um, 2x150 mm, Waters
Retention time: 1.2 min
Base peak: 165.069
Precursor m/z: 165.0692
Precursor type: [M+H]+
m/z	relative intensity	assigned
76.0215	16	C2H6NS+
88.0392	36	C3H6NO2+
92.0162	8	C2H6NOS+
102.037	21	C4H8NS+
109.0271	1	C4H3N3O+
120.0112	999	C3H6NO2S+
148.0424	35	C5H10NO2S+
165.0699	11	C5H13N2O2S+
174.0753	1	C5H10N4O3+
