Mass spectrum: 4-guanidinobutanoic acid; LC-ESI-ITFT; MS2; CE: 50%; R=7500; [M+H]+
Name: 4-guanidinobutanoic acid
Name: 4-(diaminomethylideneamino)butanoic acid
Formula: C5H11N3O2
Exact mass: 145.0851
SMILES: N=C(N)NCCCC(=O)O
InChI: InChI=1S/C5H11N3O2/c6-5(7)8-3-1-2-4(9)10/h1-3H2,(H,9,10)(H4,6,7,8)
Instrument: LTQ Orbitrap Velos Thermo Scientific
Instrument type: LC-ESI-ITFT
Ms type: MS2
Ion mode: POSITIVE
Ionization: ESI
Fragmentation mode: HCD
Collision energy: 50 % (nominal)
Resolution: 7500
Column name: HSS T3 1.7 um, 2x150 mm, Waters
Retention time: 3.0 min
Base peak: 146.0927
Precursor m/z: 146.0924
Precursor type: [M+H]+
m/z	relative intensity	assigned
83.0601	11	C4H7N2+
86.0599	455	C4H8NO+
87.0438	534	C4H7O2+
104.0704	153	C4H10NO2+
111.0551	117	C5H7N2O+
128.0815	138	C5H10N3O+
129.0656	14	C5H9N2O2+
146.0921	999	C5H12N3O2+
