Mass spectrum: L-alanyl-L-alanine; LC-ESI-ITFT; MS2; CE: 50%; R=7500; [M+H]+
Name: L-alanyl-L-alanine
Name: (2S)-2-[[(2S)-2-aminopropanoyl]amino]propanoic acid
Formula: C6H12N2O3
Exact mass: 160.0848
SMILES: C[C@H](N)C(O)=N[C@@H](C)C(=O)O
InChI: InChI=1S/C6H12N2O3/c1-3(7)5(9)8-4(2)6(10)11/h3-4H,7H2,1-2H3,(H,8,9)(H,10,11)/t3-,4-/m0/s1
Instrument: LTQ Orbitrap Velos Thermo Scientific
Instrument type: LC-ESI-ITFT
Ms type: MS2
Ion mode: POSITIVE
Ionization: ESI
Fragmentation mode: HCD
Collision energy: 50 % (nominal)
Resolution: 7500
Column name: HSS T3 1.7 um, 2x150 mm, Waters
Retention time: 1.7 min
Base peak: 161.0922
Precursor m/z: 161.0921
Precursor type: [M+H]+
m/z	relative intensity	assigned
81.0298	18	H5N2O3+
90.0547	999	C3H8NO2+
113.0233	48	C5H5O3+
115.0863	129	C5H11N2O+
174.0518	25	C5H8N3O4+
