Mass spectrum: quinolin-8-ol; LC-ESI-ITFT; MS2; CE: 50%; R=7500; [M+H]+
Name: quinolin-8-ol
Formula: C9H7NO
Exact mass: 145.0528
SMILES: Oc1cccc2cccnc12
InChI: InChI=1S/C9H7NO/c11-8-5-1-3-7-4-2-6-10-9(7)8/h1-6,11H
Instrument: LTQ Orbitrap Velos Thermo Scientific
Instrument type: LC-ESI-ITFT
Ms type: MS2
Ion mode: POSITIVE
Ionization: ESI
Fragmentation mode: HCD
Collision energy: 50 % (nominal)
Resolution: 7500
Column name: HSS T3 1.7 um, 2x150 mm, Waters
Retention time: 7.1 min
Base peak: 146.0607
Precursor m/z: 146.06
Precursor type: [M+H]+
m/z	relative intensity	assigned
117.0578	999	C8H7N+
