Mass spectrum: 3'-AMP; LC-ESI-ITFT; MS2; CE: 50%; R=7500; [M-H]-
Name: 3'-AMP
Name: [(2R,3S,4R,5R)-5-(6-aminopurin-9-yl)-4-hydroxy-2-(hydroxymethyl)oxolan-3-yl] dihydrogen phosphate
Formula: C10H14N5O7P
Exact mass: 347.0631
SMILES: Nc1ncnc2c1ncn2[C@@H]1O[C@H](CO)[C@@H](OP(=O)(O)O)[C@H]1O
InChI: InChI=1S/C10H14N5O7P/c11-8-5-9(13-2-12-8)15(3-14-5)10-6(17)7(4(1-16)21-10)22-23(18,19)20/h2-4,6-7,10,16-17H,1H2,(H2,11,12,13)(H2,18,19,20)/t4-,6-,7-,10-/m1/s1
Instrument: LTQ Orbitrap Velos Thermo Scientific
Instrument type: LC-ESI-ITFT
Ms type: MS2
Ion mode: NEGATIVE
Ionization: ESI
Fragmentation mode: HCD
Collision energy: 50 % (nominal)
Resolution: 7500
Column name: HSS T3 1.7 um, 2x150 mm, Waters
Retention time: 5.5 min
Base peak: 346.0563
Precursor m/z: 346.0558
Precursor type: [M-H]-
m/z	relative intensity	assigned
78.9591	224	O3P-
96.9696	43	H2O4P-
134.0472	96	C5H4N5-
152.9959	1	C3H6O5P-
192.9902	1	C5H6O6P-
211.0011	999	C5H8O7P-
328.0444	1	C10H11N5O6P-
346.0559	379	C10H13N5O7P-
