Mass spectrum: apigenin; LC-ESI-ITFT; MS2; CE: 50%; R=7500; [M+H]+
Name: apigenin
Name: 5,7-dihydroxy-2-(4-hydroxyphenyl)chromen-4-one
Formula: C15H10O5
Exact mass: 270.0528
SMILES: O=c1cc(-c2ccc(O)cc2)oc2cc(O)cc(O)c12
InChI: InChI=1S/C15H10O5/c16-9-3-1-8(2-4-9)13-7-12(19)15-11(18)5-10(17)6-14(15)20-13/h1-7,16-18H
Instrument: LTQ Orbitrap Velos Thermo Scientific
Instrument type: LC-ESI-ITFT
Ms type: MS2
Ion mode: POSITIVE
Ionization: ESI
Fragmentation mode: HCD
Collision energy: 50 % (nominal)
Resolution: 7500
Column name: HSS T3 1.7 um, 2x150 mm, Waters
Retention time: 9.9 min
Base peak: 271.0593
Precursor m/z: 271.0601
Precursor type: [M+H]+
m/z	relative intensity	assigned
119.0491	11	C8H7O+
121.0282	3	C7H5O2+
145.0283	3	C9H5O2+
153.0182	34	C7H5O4+
154.0216	2	C2H6N2O6+
163.0388	2	C9H7O3+
171.0286	1	C7H7O5+
187.0392	1	C11H7O3+
203.0703	1	C12H11O3+
225.0547	1	C14H9O3+
229.0489	2	C13H9O4+
243.0644	1	C14H11O4+
247.0612	1	C13H11O5+
271.0601	999	C15H11O5+
