Mass spectrum: citrulline; LC-ESI-ITFT; MS2; CE: 50%; R=7500; [M+H]+
Name: citrulline
Name: 2-azaniumyl-5-(carbamoylamino)pentanoate
Formula: C6H13N3O3
Exact mass: 175.0957
SMILES: N=C(O)NCCCC(N)C(=O)O
InChI: InChI=1S/C6H13N3O3/c7-4(5(10)11)2-1-3-9-6(8)12/h4H,1-3,7H2,(H,10,11)(H3,8,9,12)
Instrument: LTQ Orbitrap Velos Thermo Scientific
Instrument type: LC-ESI-ITFT
Ms type: MS2
Ion mode: POSITIVE
Ionization: ESI
Fragmentation mode: HCD
Collision energy: 50 % (nominal)
Resolution: 7500
Column name: HSS T3 1.7 um, 2x150 mm, Waters
Retention time: 1.5 min
Base peak: 176.1027
Precursor m/z: 176.103
Precursor type: [M+H]+
m/z	relative intensity	assigned
86.0599	19	C4H8NO+
96.0443	7	C5H6NO+
97.076	7	C5H9N2+
113.0708	999	C5H9N2O+
114.0548	160	C5H8NO2+
115.0864	115	C5H11N2O+
116.0704	139	C5H10NO2+
127.0615	2	C4H7N4O+
133.0966	3	C5H13N2O2+
141.0655	20	C6H9N2O2+
142.0499	15	C6H8NO3+
159.0763	559	C6H11N2O3+
176.1036	2	C6H14N3O3+
