Mass spectrum: quercetin; LC-ESI-ITFT; MS2; CE: 50%; R=7500; [M+H]+
Name: quercetin
Name: 2-(3,4-dihydroxyphenyl)-3,5,7-trihydroxychromen-4-one
Formula: C15H10O7
Exact mass: 302.0427
SMILES: O=c1c(O)c(-c2ccc(O)c(O)c2)oc2cc(O)cc(O)c21
InChI: InChI=1S/C15H10O7/c16-7-4-10(19)12-11(5-7)22-15(14(21)13(12)20)6-1-2-8(17)9(18)3-6/h1-5,16-19,21H
Instrument: LTQ Orbitrap Velos Thermo Scientific
Instrument type: LC-ESI-ITFT
Ms type: MS2
Ion mode: POSITIVE
Ionization: ESI
Fragmentation mode: HCD
Collision energy: 50 % (nominal)
Resolution: 7500
Column name: HSS T3 1.7 um, 2x150 mm, Waters
Retention time: 9.8 min
Base peak: 303.0499
Precursor m/z: 303.0499
Precursor type: [M+H]+
m/z	relative intensity	assigned
111.0077	18	C5H3O3+
121.0282	28	C7H5O2+
137.0234	58	C7H5O3+
153.0182	80	C7H5O4+
165.0184	38	C8H5O4+
201.0547	20	C12H9O3+
229.0498	105	C13H9O4+
230.0539	9	C8H10N2O6+
247.0597	30	C13H11O5+
257.0449	77	C14H9O5+
274.0464	29	C14H10O6+
285.0396	41	C15H9O6+
303.05	999	C15H11O7+
