Mass spectrum: esculetin; LC-ESI-ITFT; MS2; CE: 50%; R=7500; [M+H]+
Name: esculetin
Name: 6,7-dihydroxychromen-2-one
Formula: C9H6O4
Exact mass: 178.0266
SMILES: O=c1ccc2cc(O)c(O)cc2o1
InChI: InChI=1S/C9H6O4/c10-6-3-5-1-2-9(12)13-8(5)4-7(6)11/h1-4,10-11H
Instrument: LTQ Orbitrap Velos Thermo Scientific
Instrument type: LC-ESI-ITFT
Ms type: MS2
Ion mode: POSITIVE
Ionization: ESI
Fragmentation mode: HCD
Collision energy: 50 % (nominal)
Resolution: 7500
Column name: HSS T3 1.7 um, 2x150 mm, Waters
Retention time: 9.2 min
Base peak: 179.0333
Precursor m/z: 179.0339
Precursor type: [M+H]+
m/z	relative intensity	assigned
77.0387	1	C6H5+
79.0544	1	C6H7+
89.0389	5	C7H5+
95.0493	1	C6H7O+
105.0338	5	C7H5O+
107.0493	1	C7H7O+
109.0288	4	C6H5O2+
117.0338	7	C8H5O+
123.0443	226	C7H7O2+
133.0288	206	C8H5O2+
135.0445	41	C8H7O2+
151.0394	104	C8H7O3+
161.024	2	C9H5O3+
179.0343	999	C9H7O4+
