Mass spectrum: cytidine; LC-ESI-ITFT; MS2; CE: 50%; R=7500; [M-H]-
Name: cytidine
Name: 4-amino-1-[(2R,3R,4S,5R)-3,4-dihydroxy-5-(hydroxymethyl)oxolan-2-yl]pyrimidin-2-one
Formula: C9H13N3O5
Exact mass: 243.0855
SMILES: c1cn(c(=O)nc1N)[C@H]2[C@@H]([C@@H]([C@H](O2)CO)O)O
InChI: InChI=1S/C9H13N3O5/c10-5-1-2-12(9(16)11-5)8-7(15)6(14)4(3-13)17-8/h1-2,4,6-8,13-15H,3H2,(H2,10,11,16)/t4-,6-,7-,8-/m1/s1
Instrument: LTQ Orbitrap Velos Thermo Scientific
Instrument type: LC-ESI-ITFT
Ms type: MS2
Ion mode: NEGATIVE
Ionization: ESI
Fragmentation mode: HCD
Collision energy: 50 % (nominal)
Resolution: 7500
Column name: HSS T3 1.7 um, 2x150 mm, Waters
Retention time: 3.3 min
Base peak: 174.956
Precursor m/z: 242.0782
Precursor type: [M-H]-
m/z	relative intensity	assigned
81.0459	128	C4H5N2-
82.0299	1	C4H4NO-
84.0088	1	C3H2NO2-
85.0168	1	C3H3NO2-
85.0295	1	C4H5O2-
91.0302	82	C5H3N2-
94.0297	1	C5H4NO-
95.0252	14	C4H3N2O-
101.0245	3	C4H5O3-
107.0249	1	C5H3N2O-
108.0332	5	C5H4N2O-
109.0408	999	C5H5N2O-
110.0359	111	C4H4N3O-
121.0408	2	C6H5N2O-
126.0673	4	C5H8N3O-
139.0515	1	C6H7N2O2-
152.0467	231	C6H6N3O2-
181.0624	1	C8H9N2O3-
182.0571	5	C7H8N3O3-
199.0724	9	C8H11N2O4-
242.0781	640	C9H12N3O5-
