Mass spectrum: (-)-epigallocatechin; LC-ESI-ITFT; MS2; CE: 50%; R=7500; [M+H]+
Name: Epigallocatechin
Name: (2R,3R)-2-(3,4,5-trihydroxyphenyl)-3,4-dihydro-2H-chromene-3,5,7-triol
Name: (-)-epigallocatechin
Name: (-)-Epigallo catechin
Formula: C15H14O7
Exact mass: 306.07395
SMILES: C1[C@H]([C@H](OC2=CC(=CC(=C21)O)O)C3=CC(=C(C(=C3)O)O)O)O
InChI: InChI=1S/C15H14O7/c16-7-3-9(17)8-5-12(20)15(22-13(8)4-7)6-1-10(18)14(21)11(19)2-6/h1-4,12,15-21H,5H2/t12-,15-/m1/s1
Instrument: LTQ Orbitrap Velos Thermo Scientific
Instrument type: LC-ESI-ITFT
Ms type: MS2
Ion mode: POSITIVE
Ionization: ESI
Fragmentation mode: HCD
Collision energy: 50 % (nominal)
Resolution: 7500
Column name: HSS T3 1.7 um, 2x150 mm, Waters
Retention time: 9.0 min
Base peak: 307.0811
Precursor m/z: 307.0812
Precursor type: [M+H]+
m/z	relative intensity	assigned
83.0491	4	C5H7O+
93.0335	3	C6H5O+
95.049	15	C6H7O+
107.0489	7	C7H7O+
111.0439	10	C6H7O2+
121.0281	4	C7H5O2+
123.0439	17	C7H7O2+
127.0389	16	C6H7O3+
133.0283	25	C8H5O2+
135.0442	29	C8H7O2+
139.0389	999	C7H7O3+
151.0385	23	C8H7O3+
153.0544	14	C8H9O3+
159.044	35	C10H7O2+
163.0389	127	C9H7O3+
167.0704	8	C9H11O3+
169.0496	13	C8H9O4+
177.0546	72	C10H9O3+
181.0495	21	C9H9O4+
195.0652	82	C10H11O4+
205.0495	20	C11H9O4+
219.0646	3	C12H11O4+
223.0597	27	C11H11O5+
