Mass spectrum: 2-aminoadipic acid; LC-ESI-ITFT; MS2; CE: 50%; R=7500; [M+H]+
Name: 2-aminoadipic acid
Name: 2-aminohexanedioic acid
Formula: C6H11NO4
Exact mass: 161.0688
SMILES: NC(CCCC(=O)O)C(=O)O
InChI: InChI=1S/C6H11NO4/c7-4(6(10)11)2-1-3-5(8)9/h4H,1-3,7H2,(H,8,9)(H,10,11)
Instrument: LTQ Orbitrap Velos Thermo Scientific
Instrument type: LC-ESI-ITFT
Ms type: MS2
Ion mode: POSITIVE
Ionization: ESI
Fragmentation mode: HCD
Collision energy: 50 % (nominal)
Resolution: 7500
Column name: HSS T3 1.7 um, 2x150 mm, Waters
Retention time: 1.7 min
Base peak: 162.0761
Precursor m/z: 162.0761
Precursor type: [M+H]+
m/z	relative intensity	assigned
82.9975	1	H3O5+
98.0602	999	C5H8NO+
99.0443	11	C5H7O2+
116.0709	294	C5H10NO2+
144.066	167	C6H10NO3+
162.0766	27	C6H12NO4+
