Mass spectrum: cystathionine; LC-ESI-ITFT; MS2; CE: 50%; R=7500; [M-H]-
Name: cystathionine
Name: 2-azaniumyl-4-(2-azaniumyl-2-carboxylatoethyl)sulfanylbutanoate
Formula: C7H14N2O4S
Exact mass: 222.0674
SMILES: NC(CCSCC(N)C(=O)O)C(=O)O
InChI: InChI=1S/C7H14N2O4S/c8-4(6(10)11)1-2-14-3-5(9)7(12)13/h4-5H,1-3,8-9H2,(H,10,11)(H,12,13)
Instrument: LTQ Orbitrap Velos Thermo Scientific
Instrument type: LC-ESI-ITFT
Ms type: MS2
Ion mode: NEGATIVE
Ionization: ESI
Fragmentation mode: HCD
Collision energy: 50 % (nominal)
Resolution: 7500
Column name: HSS T3 1.7 um, 2x150 mm, Waters
Retention time: 1.3 min
Base peak: 174.956
Precursor m/z: 221.0602
Precursor type: [M-H]-
m/z	relative intensity	assigned
86.0249	34	C3H4NO2-
100.0406	1	C4H6NO2-
120.0125	617	C3H6NO2S-
134.0282	999	C4H8NO2S-
148.955	7	C3HO5S-
203.0495	1	C7H11N2O3S-
221.0601	980	C7H13N2O4S-
