Mass spectrum: cytosine; LC-ESI-ITFT; MS2; CE: 50%; R=7500; [M+H]+
Name: cytosine
Name: 6-amino-1H-pyrimidin-2-one
Formula: C4H5N3O
Exact mass: 111.0433
SMILES: c1cnc(=O)[nH]c1N
InChI: InChI=1S/C4H5N3O/c5-3-1-2-6-4(8)7-3/h1-2H,(H3,5,6,7,8)
Instrument: LTQ Orbitrap Velos Thermo Scientific
Instrument type: LC-ESI-ITFT
Ms type: MS2
Ion mode: POSITIVE
Ionization: ESI
Fragmentation mode: HCD
Collision energy: 50 % (nominal)
Resolution: 7500
Column name: HSS T3 1.7 um, 2x150 mm, Waters
Retention time: 1.6 min
Base peak: 112.0506
Precursor m/z: 112.0505
Precursor type: [M+H]+
m/z	relative intensity	assigned
94.0403	13	C4H4N3+
95.0242	72	C4H3N2O+
112.0508	999	C4H6N3O+
