Mass spectrum: (-)-epigallocatechin; LC-ESI-ITFT; MS2; CE: 50%; R=7500; [M-H]-
Name: Epigallocatechin
Name: (2R,3R)-2-(3,4,5-trihydroxyphenyl)-3,4-dihydro-2H-chromene-3,5,7-triol
Name: (-)-epigallocatechin
Name: (-)-Epigallo catechin
Formula: C15H14O7
Exact mass: 306.07395
SMILES: C1[C@H]([C@H](OC2=CC(=CC(=C21)O)O)C3=CC(=C(C(=C3)O)O)O)O
InChI: InChI=1S/C15H14O7/c16-7-3-9(17)8-5-12(20)15(22-13(8)4-7)6-1-10(18)14(21)11(19)2-6/h1-4,12,15-21H,5H2/t12-,15-/m1/s1
Instrument: LTQ Orbitrap Velos Thermo Scientific
Instrument type: LC-ESI-ITFT
Ms type: MS2
Ion mode: NEGATIVE
Ionization: ESI
Fragmentation mode: HCD
Collision energy: 50 % (nominal)
Resolution: 7500
Column name: HSS T3 1.7 um, 2x150 mm, Waters
Retention time: 9.0 min
Base peak: 174.956
Precursor m/z: 305.0667
Precursor type: [M-H]-
m/z	relative intensity	assigned
125.0245	240	C6H5O3-
137.0248	76	C7H5O3-
139.0403	51	C7H7O3-
165.0192	89	C8H5O4-
167.0353	56	C8H7O4-
179.0353	147	C9H7O4-
219.0659	68	C12H11O4-
221.0457	47	C11H9O5-
261.0767	110	C14H13O5-
288.0147	22	C13H6NO7-
305.0667	999	C15H13O7-
