Mass spectrum: ectoine; LC-ESI-ITFT; MS2; CE: 50%; R=7500; [M-H]-
Name: ectoine
Name: (6S)-2-methyl-1,4,5,6-tetrahydropyrimidin-3-ium-6-carboxylate
Formula: C6H10N2O2
Exact mass: 142.0742
SMILES: CC1=NCC[C@@H](C(=O)O)N1
InChI: InChI=1S/C6H10N2O2/c1-4-7-3-2-5(8-4)6(9)10/h5H,2-3H2,1H3,(H,7,8)(H,9,10)/t5-/m0/s1
Instrument: LTQ Orbitrap Velos Thermo Scientific
Instrument type: LC-ESI-ITFT
Ms type: MS2
Ion mode: NEGATIVE
Ionization: ESI
Fragmentation mode: HCD
Collision energy: 50 % (nominal)
Resolution: 7500
Column name: HSS T3 1.7 um, 2x150 mm, Waters
Retention time: 1.7 min
Base peak: 141.0666
Precursor m/z: 141.067
Precursor type: [M-H]-
m/z	relative intensity	assigned
86.0247	3	C3H4NO2-
141.0668	999	C6H9N2O2-
