Mass spectrum: L-lysine; LC-ESI-ITFT; MS2; CE: 50%; R=7500; [M+H]+
Name: L-lysine
Name: (2S)-2,6-diaminohexanoic acid
Formula: C6H14N2O2
Exact mass: 146.1055
SMILES: NCCCC[C@H](N)C(=O)O
InChI: InChI=1S/C6H14N2O2/c7-4-2-1-3-5(8)6(9)10/h5H,1-4,7-8H2,(H,9,10)/t5-/m0/s1
Instrument: LTQ Orbitrap Velos Thermo Scientific
Instrument type: LC-ESI-ITFT
Ms type: MS2
Ion mode: POSITIVE
Ionization: ESI
Fragmentation mode: HCD
Collision energy: 50 % (nominal)
Resolution: 7500
Column name: HSS T3 1.7 um, 2x150 mm, Waters
Retention time: 1.2 min
Base peak: 147.1132
Precursor m/z: 147.1128
Precursor type: [M+H]+
m/z	relative intensity	assigned
84.0806	999	C5H10N+
85.0645	5	C5H9O+
95.0487	1	C6H7O+
101.1069	1	C5H13N2+
102.0909	5	C5H12NO+
112.0756	7	C6H10NO+
129.1022	11	C6H13N2O+
130.0861	377	C6H12NO2+
147.1124	37	C6H15N2O2+
