Mass spectrum: Disialoganglioside GD1a; MALDI-TOF; MS; Pos
Name: Disialoganglioside GD1a
Class: Natural Product, Glycolipid; Ceramide; Ganglioside
Formula: C86H152N4O39
Exact mass: 1865.00337
SMILES: CCCCCCCCCCCCCCCCCCCC(=O)N[C@@H](CO[C@H]1[C@@H]([C@H]([C@@H]([C@H](O1)CO)O[C@H]2[C@@H]([C@H]([C@H]([C@H](O2)CO)O[C@H]3[C@@H]([C@H]([C@H]([C@H](O3)CO)O)O[C@H]4[C@@H]([C@H]([C@H]([C@H](O4)CO)O)O[C@@]5(C[C@@H]([C@H]([C@@H](O5)C([C@@H](CO)O)O)NC(=O)C)O)C(=O)O)O)NC(=O)C)O[C@@]6(C[C@@H]([C@H]([C@@H](O6)C([C@@H](CO)O)O)NC(=O)C)O)C(=O)O)O)O)O)[C@@H](/C=C/CCCCCCCCCCCCC)O
InChI: InChI=1S/C86H152N4O39/c1-6-8-10-12-14-16-18-20-21-22-23-25-27-29-31-33-35-37-60(105)90-50(51(100)36-34-32-30-28-26-24-19-17-15-13-11-9-7-2)46-118-80-69(111)68(110)72(58(44-95)121-80)123-82-71(113)78(129-86(84(116)117)39-53(102)62(88-48(4)98)76(127-86)65(107)55(104)41-92)73(59(45-96)122-82)124-79-63(89-49(5)99)74(66(108)56(42-93)119-79)125-81-70(112)77(67(109)57(43-94)120-81)128-85(83(114)115)38-52(101)61(87-47(3)97)75(126-85)64(106)54(103)40-91/h34,36,50-59,61-82,91-96,100-104,106-113H,6-33,35,37-46H2,1-5H3,(H,87,97)(H,88,98)(H,89,99)(H,90,105)(H,114,115)(H,116,117)/b36-34+/t50-,51+,52-,53-,54+,55+,56+,57+,58+,59+,61+,62+,63+,64?,65?,66-,67-,68+,69+,70+,71+,72+,73-,74+,75+,76+,77-,78+,79-,80+,81-,82-,85-,86-/m0/s1
Instrument: Voyager DE-PRO, Applied Biosystems
Instrument type: MALDI-TOF
Ms type: MS
Ion mode: POSITIVE
m/z	relative intensity	assigned
1278.12	156	[LH-2NeuAc+Na]+
1279.11	135	
1279.18	142	
1306.21	184	[M-2NeuAc+Na]+
1309.13	128	
1366.03	123	
1375.23	222	
1527.60	138	
1569.08	142	
1591.14	151	
1595.21	135	
1597.12	199	[M-NeuAc+Na]+
1598.11	174	
1599.07	141	
1620.30	207	
1620.80	203	
1621.18	280	
1843.21	151	
1860.16	690	[LH+Na]+
1861.17	626	
1862.18	405	
1863.19	216	
1864.22	167	
1866.26	139	
1867.23	123	
1871.18	128	
1876.14	226	[LH+K]+
1877.14	213	
1878.13	146	
1879.19	126	
1882.18	379	[LH-H+2Na]+
1883.18	415	
1884.18	266	
1885.20	184	
1886.19	138	
1888.20	999	[M+Na]+
1889.21	859	
1890.21	643	
1891.22	315	
1892.24	183	
1893.23	141	
1894.24	133	
1895.21	111	
1897.14	126	
1898.15	244	[LH-H+K+Na]+
1899.16	198	
1900.17	166	
1902.16	146	
1903.20	143	
1904.19	437	[M+K]+
1905.20	388	
1906.20	292	
1907.23	169	
1908.19	142	
1910.21	606	[M-H+2Na]+
1911.21	514	
1912.21	364	
1913.22	201	
1914.21	148	
1915.20	142	
1920.18	216	[LH-2H+K+2Na]+
1921.21	164	
1922.19	136	
1926.20	280	[M-H+K+Na]+
1927.19	277	
1928.20	194	
1929.21	158	
1930.20	142	
1931.32	130	
1932.22	405	[M-2H+3Na]+
1933.23	377	
1934.23	268	
1935.22	199	
1943.20	148	
1948.24	209	[M-2H+K+2Na]+
1949.22	194	
1950.22	172	
1960.26	115	
1965.23	141	
1971.32	128	
2064.29	134	
2091.32	137	
2092.30	157	
2136.33	123	
