Mass spectrum: Adenosine 5'-triphosphate; LC-ESI-ITFT; MS2; [M-2H]2-
Name: Adenosine 5'-triphosphate
Name: ATP
Class: Natural Product
Formula: C10H16N5O13P3
Exact mass: 506.99575
SMILES: Nc(n3)c(n2)c(nc3)n(c2)[C@]([H])(O1)[C@]([H])(O)[C@]([H])(O)[C@@]([H])(COP(O)(=O)OP(O)(=O)OP(O)(O)=O)1
InChI: InChI=1S/C10H16N5O13P3/c11-8-5-9(13-2-12-8)15(3-14-5)10-7(17)6(16)4(26-10)1-25-30(21,22)28-31(23,24)27-29(18,19)20/h2-4,6-7,10,16-17H,1H2,(H,21,22)(H,23,24)(H2,11,12,13)(H2,18,19,20)/t4-,6-,7-,10-/m1/s1
Instrument: LTQ Orbitrap XL, Thermo Scientific
Instrument type: LC-ESI-ITFT
Ms type: MS2
Ion mode: NEGATIVE
Retention time: 3.073477 min
Base peak: 426.021942
Precursor m/z: 252.500000
Precursor type: [M-2H]--
m/z	relative intensity	assigned
78.893929	59	
183.011719	1	
193.957916	1	
229.499329	1	
230.513611	1	
243.493286	1	
273.173828	1	
290.903168	1	
328.091949	3	
408.010193	1	
426.021942	999	
