Mass spectrum: alpha-Cyano-4-hydroxycinnamic acid; MALDI-TOF; MS; Pos
Name: alpha-cyano-4-hydroxycinnamic acid
Class: Non-Natural Product
Formula: C10H7NO3
Exact mass: 189.04259
SMILES: C1=CC(=CC=C1/C=C(\C#N)/C(=O)O)O
InChI: InChI=1S/C10H7NO3/c11-6-8(10(13)14)5-7-1-3-9(12)4-2-7/h1-5,12H,(H,13,14)/b8-5+
Instrument: Voyager DE-PRO, Applied Biosystems
Instrument type: MALDI-TOF
Ms type: MS
Ion mode: POSITIVE
m/z	relative intensity	assigned
122.05402	25	
144.057998	120	
145.058852	27	
146.055956	347	
147.05068	100	
172.041084	999	
173.040474	285	
173.385838	25	
174.047758	45	
189.041715	50	
190.044203	370	
191.050584	104	
192.060763	45	
212.023681	155	
213.030044	21	
215.149303	119	
234.009679	62	
288.290159	83	
294.087107	24	
312.365808	30	
316.326063	25	
335.107826	63	
368.431678	37	
379.094165	282	
380.102079	62	
