Mass spectrum: 2',4',6'-Trihydroxyaceto-phenone; MALDI-TOF; MS; Pos
Name: 2',4',6'-Trihydroxyaceto-phenone
Name: THAP
Class: Non-Natural Product
Formula: C8H8O4
Exact mass: 168.04226
SMILES: CC(=O)c(c(O)1)c(O)cc(O)c1
InChI: InChI=1S/C8H8O4/c1-4(9)8-6(11)2-5(10)3-7(8)12/h2-3,10-12H,1H3
Instrument: Voyager DE-PRO, Applied Biosystems
Instrument type: MALDI-TOF
Ms type: MS
Ion mode: POSITIVE
m/z	relative intensity	assigned
1.201977	23	
38.937307	22	
168.069784	66	
169.04954	999	
170.057069	102	
182.192098	106	
191.036044	211	
192.041523	23	
207.005351	139	
208.017803	23	
213.024839	27	
215.15772	127	
216.165551	22	
228.994028	45	
244.970438	35	
245.043118	49	
248.014888	46	
250.009269	45	
259.062059	55	
288.295458	29	
335.07614	127	
336.082303	29	
337.075686	23	
343.086973	35	
349.083725	21	
359.065702	23	
367.071255	29	
375.053266	33	
391.274651	23	
399.015839	27	
411.003664	21	
414.123402	43	
415.120068	20	
429.255432	26	
472.121528	42	
