Mass spectrum: alpha-Cyano-4-hydroxycinnamic acid; MALDI-TOF; MS; Neg
Name: alpha-cyano-4-hydroxycinnamic acid
Class: Non-Natural Product
Formula: C10H7NO3
Exact mass: 189.04259
SMILES: C1=CC(=CC=C1/C=C(\C#N)/C(=O)O)O
InChI: InChI=1S/C10H7NO3/c11-6-8(10(13)14)5-7-1-3-9(12)4-2-7/h1-5,12H,(H,13,14)/b8-5+
Instrument: Voyager DE-PRO, Applied Biosystems
Instrument type: MALDI-TOF
Ms type: MS
Ion mode: NEGATIVE
m/z	relative intensity	assigned
49.987842	78	
93.03349	240	
93.125954	60	
144.052078	845	
145.049602	131	
148.580678	198	
188.03422	999	
188.132928	385	
188.25078	179	
188.643956	23	
189.03626	398	
189.140898	56	
190.037688	47	
