Mass spectrum: Gentisic acid; MALDI-TOF; MS; Pos
Name: 2,5-Dihydroxybenzoic acid
Name: DHB
Name: Gentisic acid
Class: Natural Product
Formula: C7H6O4
Exact mass: 154.02661
SMILES: Oc(c1)cc(C(O)=O)c(O)c1
InChI: InChI=1S/C7H6O4/c8-4-1-2-6(9)5(3-4)7(10)11/h1-3,8-9H,(H,10,11)
Instrument: Voyager DE-PRO, Applied Biosystems
Instrument type: MALDI-TOF
Ms type: MS
Ion mode: POSITIVE
m/z	relative intensity	assigned
137.025554	999	
138.030979	108	
154.01965	584	
155.024178	474	
156.031937	119	
177.017396	62	
221.036143	23	
273.04325	491	
274.04409	84	
275.039092	39	
288.272724	91	
289.282686	22	
290.02638	33	
291.040025	20	
316.304157	23	
331.002221	30	
409.022841	23	
439.00528	26	
