Mass spectrum: Adenosine 5'-triphosphate; LC-ESI-ITFT; MS2; [M-H]-
Name: Adenosine 5'-triphosphate
Name: ATP
Class: Natural Product
Formula: C10H16N5O13P3
Exact mass: 506.99575
SMILES: Nc(n3)c(n2)c(nc3)n(c2)[C@]([H])(O1)[C@]([H])(O)[C@]([H])(O)[C@@]([H])(COP(O)(=O)OP(O)(=O)OP(O)(O)=O)1
InChI: InChI=1S/C10H16N5O13P3/c11-8-5-9(13-2-12-8)15(3-14-5)10-7(17)6(16)4(26-10)1-25-30(21,22)28-31(23,24)27-29(18,19)20/h2-4,6-7,10,16-17H,1H2,(H,21,22)(H,23,24)(H2,11,12,13)(H2,18,19,20)/t4-,6-,7-,10-/m1/s1
Instrument: LTQ Orbitrap XL, Thermo Scientific
Instrument type: LC-ESI-ITFT
Ms type: MS2
Ion mode: NEGATIVE
Retention time: 0.908423 min
Base peak: 408.000305
Precursor m/z: 506.000000
Precursor type: [M-H]-
m/z	relative intensity	assigned
146.760803	1	
158.863541	39	
174.988785	2	
176.868790	35	
213.986725	6	
221.040161	1	
238.968063	3	
246.315948	1	
255.020615	1	
256.818390	1	
272.997314	33	
290.948425	1	
293.975342	1	
310.121033	1	
352.952820	2	
370.934814	19	
390.057556	1	
408.000305	999	
409.028381	1	
426.126343	3	
470.057434	1	
487.989319	34	
585.884460	1	
