Mass spectrum: Sinapic acid; MALDI-TOF; MS; Neg
Name: Sinapic acid
Name: 3,5-dimethoxy-4-hydroxycinnamic acid
Name: 3-(4-hydroxy-3,5-dimethoxy-phenyl)prop-2-enoic acid
Class: Natural Product
Formula: C11H12O5
Exact mass: 224.06847
SMILES: COC1=CC(=CC(=C1O)OC)/C=C/C(=O)O
InChI: InChI=1S/C11H12O5/c1-15-8-5-7(3-4-10(12)13)6-9(16-2)11(8)14/h3-6,14H,1-2H3,(H,12,13)/b4-3+
Instrument: Voyager DE-PRO, Applied Biosystems
Instrument type: MALDI-TOF
Ms type: MS
Ion mode: NEGATIVE
m/z	relative intensity	assigned
112.977759	182	
205.053323	30	
208.041128	24	
209.047199	123	
222.05385	29	
223.0601	999	
224.063833	152	
225.068019	29	
270.953869	29	
272.961627	32	
417.124108	40	
447.12857	997	
448.133088	267	
449.137152	106	
671.1778	37	
673.200866	28	
