Mass spectrum: Gentisic acid; MALDI-TOF; MS; Pos
Name: 2,5-Dihydroxybenzoic acid
Name: Gentisic acid
Class: Natural Product
Formula: C7H6O4
Exact mass: 154.02661
SMILES: Oc(c1)cc(C(O)=O)c(O)c1
InChI: InChI=1S/C7H6O4/c8-4-1-2-6(9)5(3-4)7(10)11/h1-3,8-9H,(H,10,11)
Instrument: Voyager DE-PRO, Applied Biosystems
Instrument type: MALDI-TOF
Ms type: MS
Ion mode: POSITIVE
m/z	relative intensity	assigned
22.99	139	
23.07	99	
23.19	39	
38.98	186	
53.15	11	
60.08	74	
82.05	26	
136.07	27	
137.05	970	[M-H2O+H]+
138.07	185	
139.07	33	
154.03	440	[M]+*
155.04	413	[M+H]+
155.18	85	
156.05	93	
159.04	130	[M-H2O+Na]+
160.05	17	
172.05	79	
176.02	422	
177.02	999	[M+Na]+
178.03	145	
179.04	23	
191.98	31	
192.99	94	[M+K]+
198.00	56	
199.02	116	[M-H+2Na]+
200.03	13	
215.00	15	
273.04	378	[2M-2H2O+H]+
274.05	68	
275.05	15	
284.32	18	
312.35	30	
313.00	33	
316.01	107	
317.00	370	[2M-2H2O-H+2Na]+
318.01	65	
330.96	28	
333.00	30	
337.99	60	
338.98	215	[2M-2H2O-2H+3Na]+
339.99	35	
353.97	12	
354.96	36	
359.97	68	
360.97	241	[2M-2H2O-3H+4Na]+
361.97	42	
362.96	15	
375.94	16	
376.94	65	[2M-2H2O-3H+3Na+K]+
382.40	14	
391.18	15	
413.22	80	
414.22	24	
429.16	8	
495.20	26	
