Mass spectrum: 2',4',6'-Trihydroxyaceto-phenone; MALDI-TOF; MS; Neg
Name: 2',4',6'-Trihydroxyaceto-phenone
Name: THAP
Class: Non-Natural Product
Formula: C8H8O4
Exact mass: 168.04226
SMILES: CC(=O)c(c(O)1)c(O)cc(O)c1
InChI: InChI=1S/C8H8O4/c1-4(9)8-6(11)2-5(10)3-7(8)12/h2-3,10-12H,1H3
Instrument: Voyager DE-PRO, Applied Biosystems
Instrument type: MALDI-TOF
Ms type: MS
Ion mode: NEGATIVE
m/z	relative intensity	assigned
167.03389	999	
168.040758	96	
333.079965	164	
334.092917	33	
335.07614	212	
336.098403	40	
347.115671	32	
349.075304	21	
357.073039	53	
365.040698	27	
373.073473	39	
