Mass spectrum: 2,5-Dihydroxybenzoic acid; MALDI-TOF; MS; Neg
Name: 2,5-Dihydroxybenzoic acid
Name: DHBs (Super DHB)
Class: Non-Natural Product; Mixture
Formula: C7H6O4
Exact mass: 154.02661
SMILES: Oc(c1)cc(C(O)=O)c(O)c1
InChI: InChI=1S/C7H6O4/c8-4-1-2-6(9)5(3-4)7(10)11/h1-3,8-9H,(H,10,11)
Instrument: Voyager DE-PRO, Applied Biosystems
Instrument type: MALDI-TOF
Ms type: MS
Ion mode: NEGATIVE
m/z	relative intensity	assigned
108.096149	28	
152.004656	999	
153.01824	883	
153.216549	23	
154.02258	107	
167.036385	64	
289.071331	32	
307.04484	120	
321.054979	35	
325.031543	79	
329.066242	40	
341.026573	35	
359.997563	32	
409.065314	33	
491.043775	25	
