Mass spectrum: 5-Methoxysalicylic acid; MALDI-TOF; MS; Neg
Name: 5-Methoxysalicylic acid
Name: DHBs (Super DHB)
Class: Non-Natural Product; Mixture
Formula: C8H8O4
Exact mass: 168.04226
SMILES: COc(c1)cc(C(O)=O)c(O)c1
InChI: InChI=1S/C8H8O4/c1-12-5-2-3-7(9)6(4-5)8(10)11/h2-4,9H,1H3,(H,10,11)
Instrument: Voyager DE-PRO, Applied Biosystems
Instrument type: MALDI-TOF
Ms type: MS
Ion mode: NEGATIVE
m/z	relative intensity	assigned
108.096149	28	
152.004656	999	
153.01824	883	
153.216549	23	
154.02258	107	
167.036385	64	
289.071331	32	
307.04484	120	
321.054979	35	
325.031543	79	
329.066242	40	
341.026573	35	
359.997563	32	
409.065314	33	
491.043775	25	
