Mass spectrum: 3-Hydroxypicolinic acid; MALDI-TOF; MS; Pos
Name: 3-Hydroxypicolinic acid
Name: HPA
Class: Non-Natural Product
Formula: C6H5NO3
Exact mass: 139.02694
SMILES: OC(=O)c(n1)c(O)ccc1
InChI: InChI=1S/C6H5NO3/c8-4-2-1-3-7-5(4)6(9)10/h1-3,8H,(H,9,10)
Instrument: Voyager DE-PRO, Applied Biosystems
Instrument type: MALDI-TOF
Ms type: MS
Ion mode: POSITIVE
m/z	relative intensity	assigned
28.045878	58	
39.068303	64	
39.158162	46	
41.095535	25	
52.077305	29	
54.071885	28	
66.122635	25	
78.093368	36	
94.085812	164	
94.180481	72	
94.297835	21	
96.028096	910	
96.119134	532	
97.034549	75	
122.077371	125	
122.18124	21	
123.504211	48	
140.030702	999	
140.1195	203	
141.037818	86	
162.026142	96	
184.029187	24	
189.072202	382	
190.081251	78	
191.090535	44	
217.094751	58	
218.310509	44	
233.072279	262	
234.07775	211	
235.078981	838	
236.084972	133	
237.08854	30	
261.075531	30	
279.06116	96	
282.121419	28	
283.128133	20	
284.130046	54	
288.337855	42	
301.076328	27	
316.38401	32	
327.126319	24	
328.115663	86	
329.13529	20	
372.108967	33	
484.103183	25	
