Mass spectrum: 3-Hydroxypicolinic acid; MALDI-TOF; MS; Neg
Name: 3-Hydroxypicolinic acid
Name: HPA
Class: Non-Natural Product
Formula: C6H5NO3
Exact mass: 139.02694
SMILES: OC(=O)c(n1)c(O)ccc1
InChI: InChI=1S/C6H5NO3/c8-4-2-1-3-7-5(4)6(9)10/h1-3,8H,(H,9,10)
Instrument: Voyager DE-PRO, Applied Biosystems
Instrument type: MALDI-TOF
Ms type: MS
Ion mode: NEGATIVE
m/z	relative intensity	assigned
138.01857	999	
138.238276	111	
139.005383	48	
139.052472	27	
231.04003	122	
231.129431	82	
232.0543	53	
232.154751	31	
233.050061	32	
233.110253	23	
275.034693	21	
277.073744	27	
299.061198	175	
306.093294	30	
438.123357	109	
439.109915	23	
440.150931	23	
454.134551	55	
460.114074	23	
470.073331	64	
478.055637	26	
