Mass spectrum: Sinapic acid; MALDI-TOF; MS; Pos
Name: Sinapic acid
Name: 3,5-dimethoxy-4-hydroxycinnamic acid
Name: 3-(4-hydroxy-3,5-dimethoxy-phenyl)prop-2-enoic acid
Class: Natural Product
Formula: C11H12O5
Exact mass: 224.06847
SMILES: COC1=CC(=CC(=C1O)OC)/C=C/C(=O)O
InChI: InChI=1S/C11H12O5/c1-15-8-5-7(3-4-10(12)13)6-9(16-2)11(8)14/h3-6,14H,1-2H3,(H,12,13)/b4-3+
Instrument: Voyager DE-PRO, Applied Biosystems
Instrument type: MALDI-TOF
Ms type: MS
Ion mode: POSITIVE
m/z	relative intensity	assigned
167.065538	36	
179.070634	42	
193.075064	26	
207.06505	999	
208.06696	284	
209.074054	42	
223.062317	67	
224.072342	340	
225.074853	651	
226.080642	133	
227.083367	21	
237.074758	36	
239.094458	23	
247.055725	33	
288.292868	38	
358.165778	23	
386.146004	21	
387.134701	62	
388.144932	22	
389.137733	21	
431.131762	38	
449.136053	31	
471.127596	22	
