Mass spectrum: 9-Aminoacridine; MALDI-TOF; MS; Pos
Name: 9-Aminoacridine
Name: 9-AA
Class: Non-Natural Product
Formula: C13H10N2
Exact mass: 194.08440
SMILES: Nc(c21)c(c3)c(ccc3)nc(cccc2)1
InChI: InChI=1S/C13H10N2/c14-13-9-5-1-3-7-11(9)15-12-8-4-2-6-10(12)13/h1-8H,(H2,14,15)
Instrument: Voyager DE-PRO, Applied Biosystems
Instrument type: MALDI-TOF
Ms type: MS
Ion mode: POSITIVE
m/z	relative intensity	assigned
195.09167	999	
196.095033	163	
