Mass spectrum: Gentisic acid; MALDI-TOF; MS; Neg
Name: 2,5-Dihydroxybenzoic acid
Name: DHB
Name: Gentisic acid
Class: Natural Product
Formula: C7H6O4
Exact mass: 154.02661
SMILES: Oc(c1)cc(C(O)=O)c(O)c1
InChI: InChI=1S/C7H6O4/c8-4-1-2-6(9)5(3-4)7(10)11/h1-3,8-9H,(H,10,11)
Instrument: Voyager DE-PRO, Applied Biosystems
Instrument type: MALDI-TOF
Ms type: MS
Ion mode: NEGATIVE
m/z	relative intensity	assigned
108.099566	23	
152.005378	999	
153.01824	768	
153.121399	61	
154.02557	81	
289.059928	35	
307.04484	182	
308.053946	28	
314.055461	55	
315.052218	170	
316.067178	25	
329.067807	31	
341.031964	42	
409.06729	27	
499.103447	42	
