Mass spectrum: 2,5-Dihydroxybenzoic acid; MALDI-TOF; MS; Pos
Name: 2,5-Dihydroxybenzoic acid
Name: DHBs (Super DHB)
Class: Non-Natural Product; Mixture
Formula: C7H6O4
Exact mass: 154.02661
SMILES: Oc(c1)cc(C(O)=O)c(O)c1
InChI: InChI=1S/C7H6O4/c8-4-1-2-6(9)5(3-4)7(10)11/h1-3,8-9H,(H,10,11)
Instrument: Voyager DE-PRO, Applied Biosystems
Instrument type: MALDI-TOF
Ms type: MS
Ion mode: POSITIVE
m/z	relative intensity	assigned
137.0227	999	
138.025605	149	
139.034602	33	
151.03605	320	
152.043626	45	
154.01856	367	
155.024106	451	
155.147246	27	
156.032334	136	
168.030919	605	
169.036338	206	
170.04432	45	
176.003844	30	
177.011653	109	
191.023208	29	
192.978091	24	
215.143027	214	
216.147893	38	
230.235029	25	
244.255445	25	
273.036	595	
274.039128	103	
275.040728	38	
287.045665	170	
288.048713	33	
288.273266	128	
289.282228	23	
290.029225	22	
304.271886	25	
316.303106	34	
352.234228	20	
