Mass spectrum: Adenosine 5'-triphosphate; LC-ESI-ITFT; MS; Neg
Name: Adenosine 5'-triphosphate
Name: ATP
Class: Natural Product
Formula: C10H16N5O13P3
Exact mass: 506.99575
SMILES: Nc(n3)c(n2)c(nc3)n(c2)[C@]([H])(O1)[C@]([H])(O)[C@]([H])(O)[C@@]([H])(COP(O)(=O)OP(O)(=O)OP(O)(O)=O)1
InChI: InChI=1S/C10H16N5O13P3/c11-8-5-9(13-2-12-8)15(3-14-5)10-7(17)6(16)4(26-10)1-25-30(21,22)28-31(23,24)27-29(18,19)20/h2-4,6-7,10,16-17H,1H2,(H,21,22)(H,23,24)(H2,11,12,13)(H2,18,19,20)/t4-,6-,7-,10-/m1/s1
Instrument: LTQ Orbitrap XL, Thermo Scientific
Instrument type: LC-ESI-ITFT
Ms type: MS
Ion mode: NEGATIVE
Retention time: 0.361632 min
Base peak: 505.936584
m/z	relative intensity	assigned
63.930065	2	
67.627060	1	
68.763885	10	
72.732895	1	
74.926231	62	
75.892387	3	
76.804977	44	
77.722649	2	
78.867699	8	
79.881821	1	
80.830170	1	
82.871063	1	
85.964859	1	
86.861313	3	
88.995728	15	
90.075150	1	
91.600776	4	
93.092209	6	
95.356644	5	
96.825424	5	
98.012878	1	
98.856979	1	
101.059998	2	
101.834305	1	
105.697342	1	
106.888779	5	
107.886566	2	
108.924896	1	
112.922821	161	
113.841873	5	
115.012360	7	
115.898499	1	
117.174515	1	
119.151230	1	
120.129593	1	
121.229019	9	
122.023071	6	
122.971512	3	
123.886902	8	
125.040680	1	
125.985229	1	
127.006470	2	
127.966705	1	
129.071487	11	
129.938171	2	
130.995148	2	
131.986618	2	
133.070267	2	
134.386331	4	
135.901657	5	
136.879654	4	
137.967087	1	
139.016296	1	
139.954025	1	
140.981628	1	
143.019470	10	
144.028824	3	
145.350769	2	
147.356491	1	
149.150467	4	
150.021957	1	
150.909088	1	
152.077789	3	
153.948715	2	
154.962173	3	
156.334854	3	
157.122177	19	
158.220871	3	
158.983017	4	
160.373795	2	
161.126480	1	
162.066452	1	
163.035675	2	
164.031830	1	
165.119873	3	
166.137482	6	
167.043106	3	
167.952469	1	
168.829163	1	
170.217331	3	
171.127121	15	
172.081680	1	
173.003342	2	
174.050247	1	
175.363846	2	
177.074875	5	
178.048126	5	
178.946060	2	
180.176651	2	
181.822995	3	
182.921951	2	
184.113098	2	
185.045456	7	
186.117645	1	
186.923203	1	
188.185104	1	
189.033768	3	
190.023056	4	
190.896469	2	
191.955688	1	
192.894272	1	
194.156799	3	
195.859726	2	
197.810064	4	
199.051514	20	
201.256470	2	
203.186203	1	
204.031311	5	
205.029709	1	
206.979919	5	
208.227829	2	
209.168686	1	
210.036026	2	
211.042740	2	
212.222214	3	
213.129547	7	
213.993668	1	
215.187973	3	
216.141281	2	
216.955368	1	
218.130981	4	
219.107834	21	
220.177994	16	
221.222244	3	
222.954025	4	
223.819717	1	
225.520035	1	
227.000778	56	
227.929245	5	
229.181030	2	
230.172653	1	
231.073868	1	
231.886032	8	
233.098618	3	
234.619426	2	
237.012146	5	
238.223618	2	
239.176956	5	
240.103882	3	
241.225082	12	
242.210327	7	
243.050552	1	
245.169479	4	
246.063110	6	
247.117111	8	
248.032974	12	
248.808105	1	
250.180222	13	
252.449905	312	
254.394165	6	
255.214157	19	
256.059204	13	
257.057343	7	
257.951385	1	
258.961151	6	
259.775208	9	
260.625671	16	
263.056061	5	
264.159760	14	
265.273376	6	
266.083221	2	
266.957703	3	
268.094696	12	
269.377258	4	
271.076752	1	
271.988861	3	
272.841248	1	
274.086029	14	
274.980530	10	
276.628693	9	
277.431580	1	
278.279297	16	
279.362941	8	
281.393494	2	
283.347046	10	
284.481445	5	
285.345764	6	
286.722534	3	
288.080078	9	
289.036438	2	
289.982849	6	
291.400024	7	
292.424072	11	
293.339050	3	
295.045044	4	
296.080261	2	
297.844757	12	
299.199951	48	
300.388062	36	
301.668640	23	
302.533264	4	
303.453583	1	
305.177032	3	
306.076721	11	
307.636566	3	
308.527893	3	
309.557648	3	
311.127655	3	
313.048035	1	
314.514069	2	
315.347839	2	
316.365662	8	
317.352142	2	
318.873108	2	
319.894867	3	
320.894257	2	
323.855743	1	
325.666229	3	
327.090302	3	
328.025696	3	
329.347809	5	
331.333588	6	
332.093292	2	
333.244141	3	
334.888031	4	
337.212311	2	
339.000458	3	
340.302246	1	
342.120691	2	
343.914459	3	
345.013000	2	
346.128082	5	
349.670654	10	
351.409424	2	
353.377106	2	
355.149353	4	
356.057068	2	
357.691886	4	
358.878967	4	
360.356262	2	
363.248016	2	
365.249725	8	
367.086761	1	
368.315979	2	
369.363129	4	
371.267120	2	
372.922913	1	
374.025696	5	
374.862976	1	
376.396393	4	
377.608856	1	
378.981476	1	
381.985016	1	
384.115692	3	
384.910187	1	
385.849823	1	
387.138641	4	
389.088776	2	
390.083130	7	
391.264557	2	
392.090515	1	
393.153381	1	
395.044373	1	
395.903534	1	
397.178436	1	
398.854767	3	
400.396811	2	
401.806915	1	
403.480479	2	
405.004822	1	
407.211151	1	
408.197083	6	
409.063080	2	
410.126434	3	
411.703400	5	
413.358215	2	
415.098328	3	
415.948303	1	
417.037262	3	
418.211945	2	
419.152161	1	
421.764099	2	
422.976411	4	
424.685974	1	
426.118317	129	
427.098297	20	
427.965424	4	
429.826111	1	
431.277191	2	
433.385284	1	
434.317657	1	
436.271149	1	
437.676815	2	
440.467957	1	
441.569550	1	
443.085266	4	
444.721771	1	
446.557678	1	
448.219818	2	
450.190399	1	
452.622345	1	
453.666534	1	
455.032135	1	
455.991180	1	
458.058746	2	
459.097992	1	
460.944733	1	
461.875031	2	
463.275055	2	
465.445953	1	
467.707672	2	
469.178528	1	
470.048279	1	
470.872864	2	
472.058411	2	
474.793854	1	
477.019867	2	
479.052704	1	
480.508331	1	
481.368134	1	
482.618958	2	
485.029266	8	
486.137848	1	
487.220123	1	
488.213074	1	
488.976776	1	
490.392883	1	
491.867615	1	
493.111267	1	
494.049011	1	
494.889008	1	
495.937317	1	
497.036713	7	
498.074524	4	
499.383087	1	
502.197784	2	
503.959930	1	
505.936584	999	
507.034698	137	
508.111298	39	
508.978485	2	
509.897675	3	
511.121735	1	
512.089722	1	
513.102234	5	
514.166199	1	
515.244690	5	
517.019470	20	
518.125000	63	
519.390991	10	
520.172302	4	
521.958191	19	
522.995239	2	
523.932068	4	
525.077332	198	
526.076355	28	
527.025208	17	
528.033630	39	
529.101257	7	
529.914124	2	
531.272583	3	
532.414307	15	
533.227112	12	
534.234436	10	
535.253296	3	
536.199951	19	
537.006531	40	
538.054016	44	
539.112915	31	
540.145386	9	
541.178040	13	
542.038269	8	
542.932495	2	
543.987854	14	
544.824280	2	
545.855530	5	
546.799561	3	
547.756714	10	
548.654114	3	
549.862610	23	
550.784119	8	
552.129456	7	
553.852417	8	
555.104614	6	
555.980347	9	
557.002258	11	
557.759583	16	
558.653381	6	
559.784668	7	
560.671265	2	
561.619934	6	
563.877075	12	
564.903748	9	
565.815063	12	
567.057129	10	
567.995117	25	
568.872864	4	
570.008728	7	
571.047546	3	
571.989014	6	
572.748779	3	
573.806335	12	
575.150696	4	
576.791199	7	
578.044006	3	
579.982056	6	
580.826660	1	
582.305359	5	
583.790466	7	
585.001831	3	
586.025452	5	
586.964417	7	
587.885559	18	
588.927490	10	
589.911743	3	
591.079895	3	
592.502502	7	
593.518127	3	
594.701416	8	
596.124084	5	
597.507263	8	
598.523071	1	
599.290955	4	
600.939514	4	
601.705200	3	
603.942749	18	
605.568176	7	
607.448364	2	
608.890076	7	
609.984680	8	
611.307068	1	
612.686462	1	
615.606140	7	
616.395325	2	
617.515686	4	
618.309021	4	
619.221619	1	
620.064026	2	
621.504395	1	
623.894592	11	
624.770813	1	
625.697815	5	
626.598816	2	
628.184753	6	
629.800293	3	
631.607971	5	
634.015503	4	
634.854797	2	
636.042603	1	
637.990540	3	
639.545471	2	
640.908386	1	
641.916199	3	
642.911926	3	
644.452629	4	
646.515198	5	
647.579787	3	
649.551941	1	
650.785278	1	
653.749878	3	
655.055847	1	
656.210876	6	
658.051208	13	
659.017761	2	
660.395569	2	
661.821106	1	
662.591370	4	
666.223083	2	
669.047180	2	
669.849182	2	
672.443817	4	
673.657771	4	
675.726135	7	
679.809143	3	
681.452209	2	
682.957825	1	
684.530640	3	
685.995483	5	
687.719421	3	
688.603333	2	
690.011536	6	
693.045349	1	
693.880188	2	
694.919861	2	
696.816223	4	
697.695129	2	
698.612732	2	
699.705261	2	
701.494812	1	
702.841614	3	
703.677307	1	
704.896912	2	
706.529968	5	
707.608093	1	
709.482605	4	
710.276428	1	
711.063354	1	
712.453125	4	
715.139221	2	
716.124451	1	
718.883118	4	
721.795288	5	
723.640198	1	
725.183655	1	
727.181580	1	
728.894531	2	
729.960388	1	
731.031921	1	
733.565491	5	
734.846375	3	
737.065247	1	
738.133789	3	
739.715332	1	
741.258850	1	
742.223359	2	
744.010803	1	
744.856140	2	
745.919434	1	
747.450684	1	
749.440735	1	
751.247375	2	
752.363953	2	
753.268066	2	
754.098389	2	
756.937561	1	
760.052246	2	
761.320313	1	
763.834045	1	
766.072083	3	
766.890320	2	
768.465027	2	
769.952576	2	
770.882507	2	
772.771179	5	
774.400574	1	
776.095154	1	
778.081238	9	
779.040955	5	
780.131653	7	
781.908020	5	
782.793029	3	
785.885437	6	
788.630859	3	
789.650818	9	
790.694275	10	
791.561096	5	
792.367859	1	
793.152161	1	
794.343689	2	
795.188660	1	
797.363586	20	
798.798401	5	
799.914734	4	
800.967041	4	
801.988220	5	
803.481873	4	
804.364685	4	
806.862793	1	
809.394104	5	
810.203918	4	
811.084229	3	
811.912781	4	
812.749329	2	
814.605225	5	
816.303040	2	
817.494283	7	
818.667419	1	
820.574768	5	
821.799622	1	
822.714539	1	
823.783630	5	
825.641357	1	
827.381287	3	
828.607483	2	
830.079834	3	
832.594421	6	
834.092957	5	
834.861755	1	
836.366516	2	
837.291199	2	
838.188965	2	
840.109558	2	
841.403748	1	
842.309631	2	
843.559875	1	
844.673279	5	
845.821838	1	
847.002686	1	
848.998840	2	
849.758240	2	
851.671570	3	
853.606140	1	
854.633972	4	
855.993591	1	
857.062256	2	
858.066406	1	
858.839539	1	
859.659851	5	
862.471680	4	
864.072205	7	
865.893066	1	
867.563171	3	
869.450928	3	
872.597656	4	
873.536926	4	
874.440613	1	
876.095642	1	
877.380310	2	
878.505615	1	
879.364258	1	
881.792786	3	
883.297546	2	
884.418945	1	
885.374084	2	
887.333496	1	
888.253713	3	
890.849304	1	
892.677734	1	
894.867615	1	
898.519592	2	
900.612305	6	
902.309021	4	
904.820099	2	
907.469421	1	
909.722229	4	
913.692322	4	
914.512024	1	
915.438660	1	
917.017090	1	
919.352295	3	
921.267822	1	
922.097473	5	
925.148193	3	
925.919250	1	
927.131287	1	
931.624695	6	
934.375061	2	
936.326721	5	
937.241882	1	
939.758545	1	
941.146729	1	
943.131165	2	
944.926514	1	
945.984375	3	
948.021729	1	
950.113708	3	
951.326172	1	
953.017639	1	
954.448730	1	
956.089905	2	
958.638367	1	
960.272278	1	
961.828064	2	
962.945801	1	
964.293640	3	
965.646790	1	
967.040771	1	
968.100769	3	
969.680481	2	
970.839294	1	
972.452087	4	
973.552490	3	
974.875916	1	
975.710510	2	
977.888977	5	
978.771179	1	
980.087463	2	
984.377747	1	
988.722900	5	
990.856628	2	
993.149719	3	
994.332031	2	
996.305481	1	
997.985168	1	
999.772888	2	
