Mass spectrum: Guanosine; LC-ESI-ITFT; MS2; m/z:285.10; POS
Name: Guanosine
Class: Natural Product
Formula: C10H13N5O5
Exact mass: 283.09167
SMILES: OC[C@@H](O1)[C@@H](O)[C@@H](O)[C@@H]1n(c3)c(N=2)c(n3)C(=O)NC(N)2
InChI: InChI=1S/C10H13N5O5/c11-10-13-7-4(8(19)14-10)12-2-15(7)9-6(18)5(17)3(1-16)20-9/h2-3,5-6,9,16-18H,1H2,(H3,11,13,14,19)/t3-,5-,6-,9-/m1/s1
Instrument: LTQ Orbitrap XL, Thermo Scientfic
Instrument type: LC-ESI-ITFT
Ms type: MS2
Ion mode: POSITIVE
Collision energy: 35eV
Ionization: ESI
Column name: TOSOH TSKgel ODS-100V  5um Part no. 21456
Retention time: 5.508987 min
Base peak: 152.049469
Precursor m/z: 285.10
m/z	relative intensity
115.899902	5
130.055740	10
134.108276	23
135.100098	9
152.049469	999
153.028290	372
172.197495	6
182.029572	7
200.173035	7
212.241455	24
213.325470	14
270.194824	7
275.253479	13
275.982727	14
284.367188	7
