Mass spectrum: L-Citrulline; LC-ESI-ITFT; MS; NEG
Name: L-Citrulline
Name: 2-Amino-5-ureidovaleric acid
Name: Citrulline
Class: Natural Product
Formula: C6H13N3O3
Exact mass: 175.09569
SMILES: NC(=O)NCCC[C@H](N)C(O)=O
InChI: InChI=1S/C6H13N3O3/c7-4(5(10)11)2-1-3-9-6(8)12/h4H,1-3,7H2,(H,10,11)(H3,8,9,12)/t4-/m0/s1
Instrument: LTQ Orbitrap XL, Thermo Scientfic
Instrument type: LC-ESI-ITFT
Ms type: MS
Ion mode: NEGATIVE
Collision energy: 35eV
Ionization: ESI
Column name: TOSOH TSKgel ODS-100V  5um Part no. 21456
Retention time: 4.827023 min
Base peak: 131.082199
m/z	relative intensity
112.985648	6
113.071919	1
114.055997	1
130.951666	1
130.955913	1
131.003776	3
131.044578	1
131.053081	1
131.054215	1
131.056199	6
131.057617	1
131.059318	1
131.060168	1
131.061018	1
131.061869	1
131.062719	1
131.064420	2
131.066121	1
131.067539	1
131.068956	1
131.070373	1
131.071224	2
131.072642	3
131.075193	7
131.077461	16
131.079730	39
131.082281	999
131.084550	40
131.086818	14
131.089087	6
131.091639	2
131.092773	2
131.094475	2
131.095325	1
131.097027	2
131.098161	1
131.099012	1
131.099579	1
131.101281	1
131.102415	1
131.104684	1
131.106386	1
131.108371	6
131.113760	1
131.118299	1
131.160574	3
131.213092	1
132.079482	4
132.080630	1
132.083211	2
132.085505	39
132.088086	2
133.086366	2
133.088976	1
139.006887	1
157.061593	6
173.968705	1
174.048500	2
174.061082	1
174.065854	1
174.068024	1
174.070193	1
174.071495	1
174.073664	1
174.077570	3
174.081041	7
174.082777	2
174.084513	16
174.088418	521
174.090588	6
174.091890	17
174.095362	6
174.099268	3
174.102740	1
174.104042	1
174.107080	1
174.110987	1
174.115327	1
174.128350	2
174.208255	1
174.918078	1
175.084722	2
175.087348	1
175.091725	27
175.095227	1
176.092252	1
187.017126	1
191.019252	5
210.059358	1
210.064535	12
210.980387	1
211.019763	1
212.061429	4
228.007182	1
231.007143	1
232.046117	2
236.015120	1
236.999154	1
237.083274	6
242.075479	1
245.009428	1
251.027613	1
252.895490	1
253.986316	1
254.025322	1
256.985962	1
263.983605	1
270.103142	1
271.013728	1
272.020447	1
272.055203	7
272.064529	1
274.013077	2
285.066585	1
288.081068	2
288.996875	1
292.890598	1
294.037008	1
311.045526	1
312.862006	1
313.109941	1
313.992126	1
314.102530	1
314.976243	1
317.091713	2
328.159596	1
330.136202	1
332.002678	1
335.102085	1
339.088186	1
343.070185	5
348.053230	1
348.843399	1
349.070008	2
349.098349	1
349.125462	1
349.135322	1
349.141484	1
349.143950	1
349.147647	1
349.152578	2
349.162439	5
349.167369	2
349.172300	11
349.183395	579
349.189559	6
349.193257	14
349.203120	5
349.214216	2
349.224080	1
349.229012	1
349.236410	1
349.246275	1
349.280804	1
349.296837	2
349.523888	1
350.165514	1
350.186560	70
350.196465	1
350.206370	1
351.078444	2
351.186595	4
351.191568	1
356.114447	1
358.104684	1
360.097451	3
364.066268	2
368.105066	1
369.048905	4
370.103973	1
371.141957	1
371.146009	1
371.152764	2
371.164922	101
371.177082	2
371.187890	1
372.168035	11
373.045866	1
373.141173	5
373.168410	1
377.056926	1
386.075503	3
387.129634	2
387.139707	3
390.073416	18
391.076753	2
394.083494	2
398.100198	1
401.106491	1
402.009540	3
402.094833	1
402.105496	1
403.102122	22
403.115884	1
404.105526	2
407.141427	1
409.115087	1
409.979452	5
411.111008	8
411.976969	1
412.114449	1
413.107292	1
419.146878	1
426.021747	2
433.135267	2
439.078191	1
449.107955	2
457.116405	2
463.137501	1
469.128579	1
507.098925	2
509.098299	1
524.278176	3
533.201687	1
546.248794	2
546.260854	14
547.265685	3
548.236911	4
549.242338	1
562.225864	11
563.229627	2
565.169073	2
568.242925	3
569.247456	1
576.202761	2
577.191802	5
578.175512	1
578.199152	58
578.220166	1
579.201240	9
580.198015	2
582.191337	1
583.198505	1
584.210956	2
585.076287	1
585.209997	2
586.206241	26
587.210407	3
588.200984	2
588.211765	1
594.243951	1
620.018584	1
644.226291	3
673.177502	1
682.065273	1
699.373153	2
721.357922	5
722.361915	1
723.331250	9
724.335684	2
737.321134	2
742.068353	1
748.356162	1
750.289931	1
752.285778	8
753.288642	2
760.171117	1
775.273223	1
786.924221	1
874.471754	15
874.970300	4
875.474167	4
876.473402	1
885.464361	1
892.958734	1
896.452535	2
897.457433	1
901.427493	1
962.018337	4
962.520259	5
963.022573	2
963.525281	1
973.008637	1
973.507708	2
980.007538	1
1005.975263	3
1006.976678	1
1049.563412	11
1050.064674	4
1050.572727	5
1051.068274	1
1051.570614	1
1060.557195	1
1061.059823	1
1068.055163	1
1071.552295	1
1072.553683	1
1076.526588	1
1077.027257	1
1077.528276	1
1103.481932	1
1105.965432	3
1106.966746	1
1137.113777	3
1137.613811	3
1138.114174	2
1138.622127	1
1148.602913	1
1164.077046	1
1165.985321	3
1205.964553	1
1224.662336	9
1225.164506	2
1225.666985	5
1226.169773	1
1226.664754	1
1235.650519	1
1236.159464	1
1246.645870	1
1247.652718	1
1265.986573	5
1266.982865	1
1282.971940	1
1312.217871	1
1312.720935	1
1313.215296	1
1323.698134	1
1333.966349	1
1365.974981	4
1366.986589	1
1399.762905	2
1400.762759	1
1433.968261	1
1458.795101	1
1465.969084	2
1466.966411	1
