Mass spectrum: L-Asparagine; LC-ESI-ITFT; MS; POS
Name: L-Asparagine
Name: 2-Aminosuccinamic acid
Class: Natural Product
Formula: C4H8N2O3
Exact mass: 132.05349
SMILES: NC(=O)C[C@@H](N)C(O)=O
InChI: InChI=1S/C4H8N2O3/c5-2(4(8)9)1-3(6)7/h2H,1,5H2,(H2,6,7)(H,8,9)/t2-/m0/s1
Instrument: LTQ Orbitrap XL, Thermo Scientfic
Instrument type: LC-ESI-ITFT
Ms type: MS
Ion mode: POSITIVE
Collision energy: 35eV
Ionization: ESI
Column name: TOSOH TSKgel ODS-100V  5um Part no. 21456
Retention time: 4.590873 min
Base peak: 133.060516
m/z	relative intensity
100.111848	3
102.033553	2
102.054776	17
110.019746	1
111.019815	1
116.034066	6
120.065375	4
130.008048	1
132.616743	1
132.911179	1
132.980379	2
133.010798	1
133.033691	4
133.043546	1
133.044705	1
133.046154	1
133.047024	1
133.048184	1
133.049053	1
133.049923	1
133.050792	1
133.051952	1
133.052822	2
133.053691	2
133.054561	1
133.055431	3
133.058040	12
133.060649	999
133.062389	9
133.063258	12
133.064418	3
133.065288	3
133.066158	2
133.067317	2
133.067897	2
133.069637	1
133.070797	1
133.071377	1
133.072536	1
133.073696	1
133.076016	1
133.077176	1
133.087325	4
133.110238	1
133.140702	2
133.210081	1
133.506787	1
134.057434	3
134.063591	39
135.064276	3
137.132002	1
139.981695	1
141.958171	6
149.022904	5
155.142526	1
156.076374	2
158.002552	16
158.096003	1
158.960868	1
163.132278	3
167.012526	1
170.095866	2
171.138130	1
171.149125	31
172.152025	1
174.127584	12
175.130548	1
179.063200	2
182.984796	10
186.955501	1
187.126060	6
190.992536	1
199.028604	1
199.179842	3
200.075399	2
203.023543	2
223.063237	2
232.984426	1
241.029941	1
265.114529	42
266.116166	1
277.199902	1
289.070615	1
298.095716	1
319.031576	1
391.282894	14
392.286254	2
399.143313	3
421.122488	1
426.355027	1
436.339497	1
451.085243	1
523.336586	9
524.337539	2
