Mass spectrum: Phosphoenolpyruvic acid; LC-ESI-ITFT; MS2; m/z:275.02; NEG
Name: Phosphoenolpyruvate
Name: Phosphoenolpyruvic acid
Name: PEP
Class: Natural Product
Formula: C3H5O6P
Exact mass: 167.98237
SMILES: C=C(C(O)=O)OP(O)(O)=O
InChI: InChI=1S/C3H5O6P/c1-2(3(4)5)9-10(6,7)8/h1H2,(H,4,5)(H2,6,7,8)
Instrument: LTQ Orbitrap XL, Thermo Scientfic
Instrument type: LC-ESI-ITFT
Ms type: MS2
Ion mode: NEGATIVE
Collision energy: 35eV
Ionization: ESI
Column name: TOSOH TSKgel ODS-100V  5um Part no. 21456
Retention time: 7.045268 min
Base peak: 256.991119
Precursor m/z: 275.02
m/z	relative intensity
78.869995	62
96.801163	608
129.141663	4
177.076477	88
199.151825	8
239.003601	43
256.991119	999
257.594727	3
