Mass spectrum: NADH; LC-ESI-ITFT; MS; NEG
Name: NADH
Name: DPNH
Class: Natural Product
Formula: C21H29N7O14P2
Exact mass: 665.12477
SMILES: NC(=O)C(C5)=CN(C=C5)[C@H](O1)[C@H](O)[C@H](O)[C@@H](COP(O)(=O)OP(O)(=O)OC[C@@H](O2)[C@@H](O)[C@@H](O)[C@@H]2n(c4)c(n3)c(n4)c(N)nc3)1
InChI: InChI=1S/C21H29N7O14P2/c22-17-12-19(25-7-24-17)28(8-26-12)21-16(32)14(30)11(41-21)6-39-44(36,37)42-43(34,35)38-5-10-13(29)15(31)20(40-10)27-3-1-2-9(4-27)18(23)33/h1,3-4,7-8,10-11,13-16,20-21,29-32H,2,5-6H2,(H2,23,33)(H,34,35)(H,36,37)(H2,22,24,25)/t10-,11-,13-,14-,15-,16-,20-,21-/m1/s1
Instrument: LTQ Orbitrap XL, Thermo Scientfic
Instrument type: LC-ESI-ITFT
Ms type: MS
Ion mode: NEGATIVE
Collision energy: 35eV
Ionization: ESI
Column name: TOSOH TSKgel ODS-100V  5um Part no. 21456
Retention time: 9.555153 min
Base peak: 664.116821
m/z	relative intensity
112.985648	1
134.047318	7
150.980097	2
158.925159	12
160.841743	2
162.838737	1
164.835965	1
174.980159	2
176.935406	2
192.990127	2
211.000652	3
214.012975	1
254.946492	1
272.956942	23
273.959953	1
299.043011	7
310.034374	1
317.054379	4
328.045066	33
329.047542	3
335.065001	14
336.067259	1
346.043903	1
346.054849	70
346.067012	1
346.076743	1
347.051882	1
347.057990	7
348.058138	1
379.009378	1
396.996491	1
397.006953	1
397.020403	97
397.033855	1
397.045813	1
398.023674	12
399.024729	1
402.009540	1
407.982415	1
407.997985	2
408.010441	99
408.024455	1
408.038470	1
409.013485	10
410.015527	1
415.030279	2
426.021747	2
437.011772	2
448.004127	1
498.042138	1
527.200182	1
529.062135	2
558.063134	14
559.068252	2
562.170458	1
564.165187	1
572.080560	1
584.149601	1
586.093634	1
620.018584	1
663.221449	1
663.818833	2
663.886696	1
663.906087	1
663.922247	1
663.938407	1
663.951336	1
663.957800	1
663.970730	1
663.977195	1
663.990125	1
663.996590	1
664.009520	1
664.022451	2
664.032150	2
664.058013	5
664.064479	5
664.087111	12
664.116211	999
664.145313	12
664.161482	2
664.174417	6
664.190587	1
664.203523	2
664.219694	1
664.229397	1
664.242334	1
664.252037	1
664.268210	1
664.287618	1
664.313496	1
664.417025	2
665.012786	1
665.032226	1
665.067869	1
665.090553	3
665.119719	257
665.148887	3
665.161851	1
665.174815	2
665.207229	1
665.417971	1
666.093022	1
666.122254	49
666.148240	1
667.123802	5
668.124348	1
678.094667	2
680.110807	1
682.125855	27
683.129992	4
684.132968	1
686.098019	41
687.100735	8
688.074960	2
688.102240	1
691.075307	1
696.106953	1
702.071573	1
704.107415	1
708.031310	1
709.036136	1
710.121750	1
717.028963	5
718.034834	6
719.039181	1
720.038335	1
724.048489	1
725.047041	1
726.043963	7
727.046647	2
742.068353	2
744.058304	1
748.070027	2
753.003578	1
754.011791	2
754.086119	1
756.010735	1
764.042641	2
765.045126	1
772.049193	1
905.980119	1
1005.975263	1
1105.965432	2
1165.985321	1
1205.964553	1
1255.953397	1
1265.978062	2
1329.238440	3
1330.246171	2
1331.255049	1
1351.225506	1
1352.230165	1
1365.974981	2
1366.977040	1
1465.958479	1
