Mass spectrum: AMP; LC-ESI-ITFT; MS; NEG
Name: AMP
Name: Adenosine 5'-monophosphate
Name: Adenylic acid
Name: Adenylate
Name: 5'-AMP
Name: 5'-Adenylic acid
Name: 5'-Adenosine monophosphate
Name: Adenosine 5'-phosphate
Class: Natural Product
Formula: C10H14N5O7P
Exact mass: 347.06308
SMILES: Nc(n3)c(n2)c(nc3)n(c2)[C@H](O1)[C@H](O)[C@H](O)[C@@H](COP(O)(O)=O)1
InChI: InChI=1S/C10H14N5O7P/c11-8-5-9(13-2-12-8)15(3-14-5)10-7(17)6(16)4(22-10)1-21-23(18,19)20/h2-4,6-7,10,16-17H,1H2,(H2,11,12,13)(H2,18,19,20)/t4-,6-,7-,10-/m1/s1
Instrument: LTQ Orbitrap XL, Thermo Scientfic
Instrument type: LC-ESI-ITFT
Ms type: MS
Ion mode: NEGATIVE
Collision energy: 35eV
Ionization: ESI
Column name: TOSOH TSKgel ODS-100V  5um Part no. 21456
Retention time: 8.861440 min
Base peak: 346.054596
m/z	relative intensity
107.036402	4
118.818540	1
134.041584	2
134.044809	3
134.047155	85
134.049794	2
134.052140	1
134.074135	1
135.044046	1
135.050273	3
138.980092	8
150.977097	1
150.979901	18
150.982354	1
175.024544	3
191.019019	2
192.990400	9
210.996351	1
211.000984	30
211.005616	1
212.004015	1
345.718976	2
345.904865	1
345.936469	1
345.942547	4
345.953488	1
345.958351	1
345.963214	1
345.968077	1
345.970509	1
345.985099	1
345.992394	1
345.999690	1
346.011850	2
346.016714	2
346.024010	4
346.034955	7
346.044684	20
346.054414	999
346.065360	18
346.075091	8
346.083606	3
346.087255	3
346.090904	1
346.094553	1
346.096986	1
346.099419	1
346.109151	1
346.115234	1
346.118884	1
346.122534	1
346.126183	1
346.143217	1
346.148083	1
346.154167	1
346.157818	1
346.166335	4
346.174853	1
346.391558	1
347.036790	1
347.047783	2
347.057555	98
348.058929	8
349.060948	1
360.069901	2
426.021226	6
444.022662	4
479.940911	1
480.002498	1
498.068795	1
504.939125	1
522.086723	2
529.945447	1
567.161240	1
569.174919	1
692.163821	1
692.800742	2
692.921340	1
692.942017	1
692.962695	1
692.983373	1
692.997160	1
693.010947	1
693.017840	1
693.031628	2
693.062651	4
693.090229	12
693.117809	806
693.148838	10
693.176421	5
693.190213	1
693.200558	2
693.210902	2
693.221247	1
693.231592	1
693.238489	1
693.245386	1
693.272975	1
693.321260	1
693.369549	1
693.435093	2
693.804383	1
694.059952	1
694.073771	1
694.091044	3
694.101409	1
694.118684	195
694.149780	3
694.180878	1
695.121728	34
696.126948	3
707.130799	2
715.098572	6
716.100383	1
737.036659	2
746.028449	1
747.038112	1
877.007017	1
916.240722	1
1040.074430	1
1040.131468	2
1040.182171	203
1040.239217	2
1040.289929	1
1041.127205	1
1041.184329	58
1041.222414	1
1041.241458	1
1042.187936	10
1043.186629	2
1054.196513	1
1062.163107	1
1213.714966	2
1214.218411	2
1214.714171	1
1387.240910	14
1387.299483	1
1387.738895	3
1388.246921	9
1388.755225	1
1389.254026	3
1390.252434	1
