Mass spectrum: NADP+; LC-ESI-ITFT; MS; POS
Name: NADP+
Name: NADP
Name: Nicotinamide adenine dinucleotide phosphate
Name: beta-Nicotinamide adenine dinucleotide phosphate
Name: TPN
Name: Triphosphopyridine nucleotide
Class: Natural Product
Formula: [C21H29N7O17P3]+
Exact mass: 744.08328
SMILES: NC(=O)c(c5)c[n+1](cc5)[C@H](O1)[C@H](O)[C@H](O)[C@@H](COP(O)(=O)OP(O)(=O)OC[C@@H](O2)[C@@H](O)[C@@H](OP(O)(O)=O)[C@@H]2n(c3)c(n4)c(c(N)nc4)n3)1
InChI: InChI=1S/C21H28N7O17P3/c22-17-12-19(25-7-24-17)28(8-26-12)21-16(44-46(33,34)35)14(30)11(43-21)6-41-48(38,39)45-47(36,37)40-5-10-13(29)15(31)20(42-10)27-3-1-2-9(4-27)18(23)32/h1-4,7-8,10-11,13-16,20-21,29-31H,5-6H2,(H7-,22,23,24,25,32,33,34,35,36,37,38,39)/p+1/t10-,11-,13-,14-,15-,16-,20-,21-/m1/s1
Instrument: LTQ Orbitrap XL, Thermo Scientfic
Instrument type: LC-ESI-ITFT
Ms type: MS
Ion mode: POSITIVE
Collision energy: 35eV
Ionization: ESI
Column name: TOSOH TSKgel ODS-100V  5um Part no. 21456
Retention time: 8.862515 min
Base peak: 372.544983
m/z	relative intensity
100.111848	1
101.095891	1
107.069996	9
123.031368	1
123.051218	1
123.053280	4
123.055343	223
123.057148	4
123.058695	1
123.079067	1
124.052231	1
124.058233	10
127.766140	1
129.127203	1
136.061516	8
137.132002	2
149.022904	4
155.142891	2
158.096003	1
163.132671	5
167.033727	1
170.096285	2
171.137707	1
171.149125	31
172.152025	1
174.127584	13
175.089843	1
175.130986	1
179.063653	1
186.185345	1
187.126060	10
188.129475	1
190.990043	1
190.992536	1
195.122110	1
199.059899	1
199.179842	4
207.026280	1
220.111375	1
222.112313	12
223.063237	7
223.115476	1
224.123549	1
224.127985	39
224.133055	1
225.131450	3
233.173966	1
277.200773	1
282.220291	1
307.083094	1
332.561263	1
333.054384	1
335.063363	3
348.070300	1
363.540462	13
364.042427	2
364.064731	1
370.468325	1
371.839180	1
372.169860	1
372.308226	1
372.419517	2
372.481970	1
372.488760	1
372.491476	1
372.496907	1
372.499623	1
372.505055	1
372.510487	1
372.513203	1
372.515919	1
372.518635	1
372.524067	4
372.529500	4
372.533574	9
372.544440	999
372.555305	12
372.563455	4
372.568888	2
372.571605	1
372.574322	1
372.577038	1
372.582472	1
372.587906	1
372.596056	1
372.602849	1
372.606924	1
372.609642	1
372.627303	1
372.669425	2
372.780878	1
373.025707	1
373.029790	1
373.035233	3
373.046120	265
373.057008	3
373.063813	1
373.069257	1
373.171359	1
373.253070	1
373.536542	1
373.546088	62
373.556998	1
374.047061	7
374.549043	1
374.639425	1
383.534619	1
391.282894	19
391.516910	1
392.286254	2
394.502835	4
395.003562	1
399.000260	1
399.503544	4
400.006268	1
402.509776	1
403.010547	1
403.507659	15
404.008760	3
404.504648	1
404.510795	1
422.002057	1
426.356690	1
428.036131	12
429.038156	1
439.517610	2
440.019286	1
447.534195	1
475.379199	1
504.375045	1
508.001804	4
509.004612	1
511.027885	3
511.361902	1
511.694060	1
512.030919	1
514.026053	1
514.363014	1
517.032918	1
560.077597	1
567.680033	1
568.183659	1
604.023088	4
605.025361	1
622.033630	7
623.037019	1
640.044486	1
664.112670	1
665.096491	1
675.954792	1
738.229263	1
743.726797	1
743.933717	1
743.968212	1
743.991210	1
744.006543	1
744.021876	2
744.037209	2
744.052543	5
744.083213	780
744.113884	6
744.133055	2
744.148392	1
744.156060	1
744.163729	1
744.186736	1
744.202075	1
744.436048	1
744.524296	1
744.554995	1
744.581857	153
744.612560	1
744.746904	1
745.038749	1
745.054114	1
745.084845	173
745.115578	1
745.138630	1
745.584497	15
746.088501	25
747.090330	3
750.003190	1
755.072281	3
755.574169	1
756.060850	1
758.390853	1
758.718387	3
759.054033	2
759.385949	2
759.722037	1
761.719439	1
762.057078	1
762.386990	1
762.721095	1
763.055419	1
764.722354	1
765.057995	1
765.389857	1
765.541866	1
766.038211	5
766.539048	2
770.535200	1
771.040454	3
771.542157	2
772.040298	1
774.546397	1
775.043375	8
775.544911	6
776.046934	2
776.545357	1
806.006616	1
886.424610	2
886.758695	1
887.092970	2
887.427433	1
957.594381	1
958.602670	1
991.775081	40
992.105537	42
992.442063	25
992.778761	10
993.109719	4
993.446756	2
999.101334	1
999.435459	1
999.769751	1
1004.756200	1
1006.412570	1
1006.744336	1
1007.082302	1
1009.410434	1
1009.743683	1
1010.083161	1
1010.410677	1
1012.081055	1
1012.415628	3
1012.750366	2
1013.085271	2
1013.420342	1
1013.749482	1
1115.621225	31
1115.670496	1
1115.867609	5
1116.121118	25
1116.374713	2
1116.621346	12
1117.121911	3
1117.629870	1
1131.347399	1
1131.606201	1
1134.790970	1
1146.586668	1
1147.085504	1
1147.592009	1
1190.124515	1
1239.472255	5
1239.802016	7
1240.131908	6
1240.470185	3
1240.808599	2
1241.138894	1
1260.439413	1
1260.777577	1
1301.639196	2
1301.887596	2
1302.144944	2
1302.393489	1
1302.642106	1
1316.877635	1
1338.746497	1
1339.153686	1
1487.165073	4
1487.414256	1
1487.500943	2
1487.555126	1
1487.663501	3
1487.771889	1
1487.826087	2
1487.923650	1
1488.162180	4
1488.411614	1
1488.498388	1
1488.671959	1
1488.823858	1
1489.171145	1
