Mass spectrum: NADH; LC-ESI-ITFT; MS2; m/z:665.12; NEG
Name: NADH
Name: DPNH
Class: Natural Product
Formula: C21H29N7O14P2
Exact mass: 665.12477
SMILES: NC(=O)C(C5)=CN(C=C5)[C@H](O1)[C@H](O)[C@H](O)[C@@H](COP(O)(=O)OP(O)(=O)OC[C@@H](O2)[C@@H](O)[C@@H](O)[C@@H]2n(c4)c(n3)c(n4)c(N)nc3)1
InChI: InChI=1S/C21H29N7O14P2/c22-17-12-19(25-7-24-17)28(8-26-12)21-16(32)14(30)11(41-21)6-39-44(36,37)42-43(34,35)38-5-10-13(29)15(31)20(40-10)27-3-1-2-9(4-27)18(23)33/h1,3-4,7-8,10-11,13-16,20-21,29-32H,2,5-6H2,(H2,23,33)(H,34,35)(H,36,37)(H2,22,24,25)/t10-,11-,13-,14-,15-,16-,20-,21-/m1/s1
Instrument: LTQ Orbitrap XL, Thermo Scientfic
Instrument type: LC-ESI-ITFT
Ms type: MS2
Ion mode: NEGATIVE
Collision energy: 35eV
Ionization: ESI
Column name: TOSOH TSKgel ODS-100V  5um Part no. 21456
Retention time: 9.568987 min
Base peak: 408.031250
Precursor m/z: 665.12
m/z	relative intensity
211.184097	7
211.974213	2
214.194687	2
246.174988	1
255.039764	2
256.997314	1
272.960876	183
274.014740	31
281.351166	1
299.188904	24
300.218323	11
307.208862	1
317.287933	12
318.190491	4
328.117615	121
329.202393	47
333.492554	1
335.137695	38
336.195313	18
346.152771	291
347.235107	130
379.287964	2
397.053894	919
398.078308	438
400.150879	4
401.122986	1
408.031250	999
409.067444	419
415.064331	3
415.986755	1
426.102295	15
427.045654	11
431.138000	1
432.101685	3
468.356812	1
469.049622	2
498.024597	9
499.118835	4
511.013123	1
512.363708	1
529.115417	10
530.085693	6
535.213440	1
566.359375	10
567.349060	10
584.263794	1
585.290894	6
622.371338	2
646.480286	1
647.250122	1
