Mass spectrum: 6-Phospho-D-gluconic acid; LC-ESI-ITFT; MS2; m/z:194.93; NEG
Name: 6-Phospho-D-gluconate
Name: 6-Phospho-D-gluconic acid
Class: Natural Product
Formula: C6H13O10P
Exact mass: 276.02463
SMILES: OC(=O)[C@H](O)[C@@H](O)[C@H](O)[C@H](O)COP(O)(O)=O
InChI: InChI=1S/C6H13O10P/c7-2(1-16-17(13,14)15)3(8)4(9)5(10)6(11)12/h2-5,7-10H,1H2,(H,11,12)(H2,13,14,15)/t2-,3-,4+,5-/m1/s1
Instrument: LTQ Orbitrap XL, Thermo Scientfic
Instrument type: LC-ESI-ITFT
Ms type: MS2
Ion mode: NEGATIVE
Collision energy: 35eV
Ionization: ESI
Column name: TOSOH TSKgel ODS-100V  5um Part no. 21456
Retention time: 7.007138 min
Base peak: 96.912033
Precursor m/z: 194.93
m/z	relative intensity
96.912033	999
129.007004	126
159.105286	6
177.031235	44
