Mass spectrum: L-Glutamic acid; LC-ESI-ITFT; MS2; m/z:146.05; NEG
Name: L-Glutamate
Name: L-Glutamic acid
Name: L-Glutaminic acid
Class: Natural Product
Formula: C5H9NO4
Exact mass: 147.05316
SMILES: OC(=O)CC[C@H](N)C(O)=O
InChI: InChI=1S/C5H9NO4/c6-3(5(9)10)1-2-4(7)8/h3H,1-2,6H2,(H,7,8)(H,9,10)/t3-/m0/s1
Instrument: LTQ Orbitrap XL, Thermo Scientfic
Instrument type: LC-ESI-ITFT
Ms type: MS2
Ion mode: NEGATIVE
Collision energy: 35eV
Ionization: ESI
Column name: TOSOH TSKgel ODS-100V  5um Part no. 21456
Retention time: 4.882682 min
Base peak: 127.964523
Precursor m/z: 146.05
m/z	relative intensity
102.050186	107
127.964523	999
