Mass spectrum: FAD; LC-ESI-ITFT; MS2; m/z:786.17; POS
Name: FAD
Name: Flavin adenine dinucleotide
Class: Natural Product
Formula: C27H33N9O15P2
Exact mass: 785.15713
SMILES: C(C(CN(c54)C(=N6)C(C(=O)NC6=O)=Nc(cc(c(c5)C)C)4)O)(O)C(O)COP(OP(OCC(O1)C(C(C1n(c2)c(n3)c(c(N)nc3)n2)O)O)(O)=O)(O)=O
InChI: InChI=1S/C27H33N9O15P2/c1-10-3-12-13(4-11(10)2)35(24-18(32-12)25(42)34-27(43)33-24)5-14(37)19(39)15(38)6-48-52(44,45)51-53(46,47)49-7-16-20(40)21(41)26(50-16)36-9-31-17-22(28)29-8-30-23(17)36/h3-4,8-9,14-16,19-21,26,37-41H,5-7H2,1-2H3,(H,44,45)(H,46,47)(H2,28,29,30)(H,34,42,43)/t14-,15+,16+,19-,20+,21+,26+/m0/s1
Instrument: LTQ Orbitrap XL, Thermo Scientfic
Instrument type: LC-ESI-ITFT
Ms type: MS2
Ion mode: POSITIVE
Collision energy: 35eV
Ionization: ESI
Column name: TOSOH TSKgel ODS-100V  5um Part no. 21456
Retention time: 14.653723 min
Base peak: 348.140839
Precursor m/z: 786.17
m/z	relative intensity
243.078430	3
250.210236	1
290.335602	1
305.330688	1
306.954315	1
323.111572	2
334.164551	2
341.138062	6
348.140839	999
359.313843	10
379.116028	2
396.233032	9
403.068726	3
421.163940	25
422.133362	6
428.185974	2
439.138245	505
439.759705	1
519.113342	1
535.292419	1
743.160095	1
767.989502	1
769.132263	6
