Mass spectrum: Uridine; LC-ESI-ITFT; MS2; m/z:113.03; POS
Name: Uridine
Class: Natural Product
Formula: C9H12N2O6
Exact mass: 244.06954
SMILES: OC[C@@H](O1)[C@@H](O)[C@@H](O)[C@@H]1N(C=2)C(=O)NC(=O)C2
InChI: InChI=1S/C9H12N2O6/c12-3-4-6(14)7(15)8(17-4)11-2-1-5(13)10-9(11)16/h1-2,4,6-8,12,14-15H,3H2,(H,10,13,16)/t4-,6-,7-,8-/m1/s1
Instrument: LTQ Orbitrap XL, Thermo Scientfic
Instrument type: LC-ESI-ITFT
Ms type: MS2
Ion mode: POSITIVE
Collision energy: 35eV
Ionization: ESI
Column name: TOSOH TSKgel ODS-100V  5um Part no. 21456
Retention time: 9.209723 min
Base peak: 92.326157
Precursor m/z: 113.03
m/z	relative intensity
55.087440	33
58.008759	246
67.063812	104
69.029907	178
69.920227	595
71.898598	56
73.140579	51
84.982666	325
92.326157	999
94.890366	438
95.963684	437
98.066528	33
101.249146	133
104.058563	149
