Mass spectrum: L-Glutathione (reduced form); LC-ESI-ITFT; MS2; m/z:307.08; NEG
Name: Glutathione
Name: 5-L-Glutamyl-L-cysteinylglycine
Name: N-(N-gamma-L-Glutamyl-L-cysteinyl)glycine
Name: gamma-L-Glutamyl-L-cysteinyl-glycine
Name: GSH
Name: Reduced glutathione
Name: L-Glutathione (reduced form)
Class: Natural Product
Formula: C10H17N3O6S
Exact mass: 307.08381
SMILES: OC(=O)CNC(=O)C(CS)NC(=O)CCC(N)C(O)=O
InChI: InChI=1S/C10H17N3O6S/c11-5(10(18)19)1-2-7(14)13-6(4-20)9(17)12-3-8(15)16/h5-6,20H,1-4,11H2,(H,12,17)(H,13,14)(H,15,16)(H,18,19)/t5-,6-/m0/s1
Instrument: LTQ Orbitrap XL, Thermo Scientfic
Instrument type: LC-ESI-ITFT
Ms type: MS2
Ion mode: NEGATIVE
Collision energy: 35eV
Ionization: ESI
Column name: TOSOH TSKgel ODS-100V  5um Part no. 21456
Retention time: 8.901210 min
Base peak: 255.092987
Precursor m/z: 307.08
m/z	relative intensity
125.744980	4
126.964508	2
128.052338	96
129.065903	52
143.062500	60
144.058365	63
144.887985	3
145.986572	12
160.042572	54
160.981400	79
167.023895	3
168.164948	6
171.113388	12
177.094879	67
178.061081	51
179.111725	41
180.136841	83
184.293610	4
185.093628	12
186.048370	9
193.064499	2
197.279907	6
210.147308	21
211.068451	60
214.120087	10
229.253876	6
232.098999	10
237.134583	3
242.127228	3
243.198730	6
254.078888	153
255.092987	999
261.167969	3
263.027802	3
272.138977	201
273.152283	967
288.000092	84
289.000427	728
