Mass spectrum: L-Aspartic acid; LC-ESI-ITFT; MS; NEG
Name: L-Aspartate
Name: L-Aspartic acid
Name: 2-Aminosuccinic acid
Class: Natural Product
Formula: C4H7NO4
Exact mass: 133.03751
SMILES: OC(=O)CC(N)C(O)=O
InChI: InChI=1S/C4H7NO4/c5-2(4(8)9)1-3(6)7/h2H,1,5H2,(H,6,7)(H,8,9)/t2-/m0/s1
Instrument: LTQ Orbitrap XL, Thermo Scientfic
Instrument type: LC-ESI-ITFT
Ms type: MS
Ion mode: NEGATIVE
Collision energy: 35eV
Ionization: ESI
Column name: TOSOH TSKgel ODS-100V  5um Part no. 21456
Retention time: 4.747328 min
Base peak: 132.029984
m/z	relative intensity
101.073402	1
103.374450	1
103.449551	1
104.242884	1
104.415223	1
104.489242	1
104.490049	1
104.927907	1
105.727247	1
106.300763	1
107.116710	1
107.227177	1
107.274603	1
108.263163	1
108.645556	1
111.163952	1
112.192293	1
112.819513	1
112.937107	1
112.950713	1
112.985421	12
113.527614	1
113.702188	1
114.019645	2
114.233868	1
114.951622	4
114.997041	1
115.003565	7
117.345984	1
120.670385	1
122.131053	1
122.857716	1
123.620482	1
123.951717	2
124.519430	1
124.890670	1
125.311793	1
127.380412	1
127.611328	1
127.657913	1
128.258718	1
130.704006	1
130.892797	1
131.137590	1
131.950811	3
132.003518	4
132.014120	2
132.016699	1
132.017272	1
132.018419	2
132.019278	2
132.020711	2
132.021571	3
132.023004	7
132.025010	65
132.027590	39
132.029883	999
132.032462	38
132.034756	12
132.036762	4
132.037909	3
132.041348	2
132.042208	1
132.043068	1
132.047082	1
132.056543	4
132.109026	2
132.133127	1
133.026632	1
133.033009	24
133.034748	1
133.035618	1
134.033831	4
134.046731	2
136.529933	1
139.006578	5
139.145400	1
139.456021	1
143.882622	1
144.252775	1
146.555595	1
148.952117	1
151.946469	2
153.339588	1
154.011561	1
154.946723	4
154.959478	2
155.987556	1
156.894379	2
158.003325	1
158.146010	1
158.399188	1
158.925159	1
159.893276	1
159.970083	1
159.982698	1
162.137101	1
162.823035	1
165.175949	1
165.962036	3
169.987144	1
170.179081	1
172.009858	1
173.756043	1
173.998188	2
174.842489	1
174.917641	4
181.687698	1
181.790922	1
184.343146	2
187.964392	2
187.987277	2
188.119800	1
188.336426	1
192.928345	1
192.960245	1
193.956654	5
194.003103	1
194.078172	1
200.269011	1
201.992980	2
203.959257	5
204.450479	1
204.780055	1
204.921308	1
211.966944	2
213.979855	1
214.913125	1
214.925626	2
215.981390	1
216.856589	1
217.006898	1
218.693272	1
218.864457	1
218.903614	1
221.925518	2
222.152427	1
227.920045	1
229.828266	1
231.953985	1
232.291404	1
233.938884	1
236.185100	1
238.869250	1
239.961776	1
240.870299	1
243.837682	1
246.022601	2
246.935733	1
247.421043	1
248.938266	1
250.941972	1
251.975579	3
252.157041	1
252.894730	2
253.954964	2
254.891896	1
256.502521	1
256.723864	1
257.970260	1
258.965735	1
261.029816	3
265.059775	3
265.067113	115
265.072005	2
265.073636	3
265.080974	1
266.063808	1
266.070367	6
267.070257	1
272.043334	1
272.956942	3
273.959953	1
273.988227	2
275.015889	1
275.229706	1
277.981382	1
279.021047	1
283.527892	1
286.932546	1
287.049202	32
287.154897	1
287.574575	1
288.052432	1
289.017296	2
289.024723	74
289.031221	1
289.033078	1
289.945037	2
290.028071	5
290.991633	1
294.024625	1
297.700243	1
301.576773	1
303.013637	8
303.243969	1
305.994176	5
308.982991	3
309.031224	5
309.581067	1
312.735537	1
312.862006	1
313.983717	4
314.063619	3
314.897048	1
315.881182	1
315.981972	1
316.991459	2
317.977937	20
317.988650	1
318.986248	23
319.989629	2
320.986887	2
324.912223	1
324.995227	3
325.183485	1
326.993535	5
327.993436	1
328.919023	1
329.952685	2
331.012845	3
333.929985	3
335.350240	1
339.077569	2
340.968147	14
342.101008	1
342.968162	1
346.053633	1
346.939532	1
347.353789	1
347.962466	2
348.975150	5
349.940311	1
349.978654	1
350.186560	1
351.230118	1
355.897435	1
356.941160	1
357.897363	1
361.965039	2
362.342645	1
370.867883	1
372.256222	1
376.976708	1
377.109496	1
383.973009	1
384.221896	1
387.912241	1
399.014188	1
402.009540	1
404.970992	2
406.848238	1
408.010441	2
413.497808	1
419.461579	1
422.062426	2
424.879410	1
426.020086	6
431.791261	1
436.051974	1
437.054925	1
442.067528	4
442.911635	3
443.950731	1
443.970172	1
444.044411	6
445.572214	1
452.022495	2
457.480377	1
458.033633	1
460.697305	1
464.048368	1
466.026404	2
467.438038	1
469.082509	2
469.943607	1
470.471429	1
472.997571	3
474.005929	3
475.981327	2
476.769045	1
482.014169	1
490.577927	1
495.986413	3
503.995731	1
505.942359	3
513.950596	2
517.969406	1
521.571634	1
527.923614	2
535.933739	1
546.521458	1
555.264169	1
555.961933	1
558.898464	3
564.438709	1
565.961903	1
577.527293	1
582.499322	1
583.014947	1
583.957596	1
585.271519	1
587.699999	1
588.959065	1
591.068327	1
597.089487	2
601.039767	1
606.897839	1
607.044751	1
609.019093	2
609.982838	1
620.018584	1
620.964712	1
629.026413	2
629.993241	1
631.001229	1
633.807559	1
638.027928	1
638.978971	1
645.157175	1
658.155346	1
660.961939	2
665.989101	1
666.560966	1
667.553729	1
671.454989	1
700.121540	1
710.440049	1
732.237336	1
732.368376	1
742.068353	2
745.409895	1
750.297696	1
762.063444	1
766.105670	7
774.270925	1
777.820286	1
784.041926	2
800.912737	1
808.116724	4
809.120249	2
819.019963	1
825.976633	1
827.787018	1
828.511937	1
830.104693	1
834.445910	1
839.933136	1
846.483453	1
848.469097	1
855.937615	1
861.027232	1
895.667050	1
896.706138	1
904.786028	1
905.980119	3
907.703353	1
916.587672	1
937.555311	1
949.403337	1
958.000255	1
960.503678	1
963.016927	1
973.289675	1
1005.969235	13
1006.970641	3
1021.111784	1
1030.190815	1
1038.758667	1
1040.982369	1
1049.627657	1
1065.165989	1
1068.424559	1
1086.207564	1
1087.514093	1
1092.750203	1
1105.965432	18
1106.966746	3
1109.727383	1
1134.748531	1
1142.924285	1
1155.057865	1
1155.955800	1
1165.985321	13
1166.986407	4
1176.199286	1
1181.023037	1
1182.973150	3
1197.049651	1
1205.956640	9
1206.962121	2
1217.616090	1
1239.887600	1
1242.365856	1
1242.398949	1
1246.895388	1
1250.087496	1
1250.204411	1
1254.491452	1
1255.692748	1
1255.944988	5
1256.954705	1
1257.940352	1
1258.918720	1
1263.657969	1
1265.978062	31
1266.982865	10
1267.980333	1
1273.783794	1
1276.450576	1
1278.503663	1
1280.405883	1
1282.971940	7
1283.979661	2
1294.509600	1
1305.953902	1
1313.323194	1
1333.966349	2
1350.081373	1
1355.948671	2
1365.974981	21
1366.977040	5
1378.246835	1
1381.267894	1
1381.607414	1
1382.966749	4
1383.958384	1
1387.847694	1
1390.861192	1
1391.145436	1
1395.784027	1
1419.419624	1
1433.968261	1
1438.843481	1
1443.557068	1
1449.168964	1
1454.038170	1
1455.033830	1
1465.820633	1
1465.958479	10
1466.966411	3
1469.900620	1
1482.955151	3
1495.976643	1
