Mass spectrum: AMP; LC-ESI-ITFT; MS; POS
Name: AMP
Name: Adenosine 5'-monophosphate
Name: Adenylic acid
Name: Adenylate
Name: 5'-AMP
Name: 5'-Adenylic acid
Name: 5'-Adenosine monophosphate
Name: Adenosine 5'-phosphate
Class: Natural Product
Formula: C10H14N5O7P
Exact mass: 347.06308
SMILES: Nc(n3)c(n2)c(nc3)n(c2)[C@H](O1)[C@H](O)[C@H](O)[C@@H](COP(O)(O)=O)1
InChI: InChI=1S/C10H14N5O7P/c11-8-5-9(13-2-12-8)15(3-14-5)10-7(17)6(16)4(22-10)1-21-23(18,19)20/h2-4,6-7,10,16-17H,1H2,(H2,11,12,13)(H2,18,19,20)/t4-,6-,7-,10-/m1/s1
Instrument: LTQ Orbitrap XL, Thermo Scientfic
Instrument type: LC-ESI-ITFT
Ms type: MS
Ion mode: POSITIVE
Collision energy: 35eV
Ionization: ESI
Column name: TOSOH TSKgel ODS-100V  5um Part no. 21456
Retention time: 8.618435 min
Base peak: 348.070129
m/z	relative intensity
100.111848	2
101.095699	1
136.057619	2
136.059418	2
136.061516	108
136.063614	2
136.064514	2
136.066313	1
137.058627	1
137.064689	4
137.132002	2
141.958490	3
149.023248	2
153.075613	1
155.142891	3
158.002552	1
158.096003	1
163.132671	4
170.096285	1
171.149125	25
172.152025	1
174.127584	10
179.063200	2
182.984796	2
186.184865	1
187.126060	9
199.180373	3
208.190213	1
214.025462	1
220.111991	1
222.011682	1
223.063237	5
224.127985	11
225.130812	1
226.015823	1
233.173966	1
234.538449	1
279.158552	1
282.221186	1
346.193894	1
347.730786	1
347.863101	1
347.957482	3
347.975873	1
347.983229	1
347.995491	1
348.000396	1
348.010205	1
348.015111	1
348.022468	1
348.027374	1
348.034732	2
348.039638	2
348.043317	2
348.050676	5
348.060488	12
348.070300	999
348.077660	12
348.081340	9
348.089926	5
348.093606	2
348.098513	2
348.103420	2
348.108327	1
348.110781	1
348.115688	1
348.120595	1
348.123049	1
348.127957	1
348.137772	1
348.142680	1
348.147588	1
348.154950	1
348.183173	3
348.277685	1
348.409083	1
348.694240	1
349.053643	1
349.062266	1
349.072120	123
349.080744	1
349.083208	1
349.962003	1
350.074560	14
351.076354	1
359.053706	1
360.047857	1
370.026950	1
370.051151	1
374.525768	1
375.028714	2
391.282894	13
392.286254	2
426.356690	1
436.339497	1
526.336676	2
533.579221	1
543.557782	1
695.104195	1
695.131889	75
695.156122	1
695.166508	1
696.136890	13
697.137120	2
707.109903	1
738.346725	1
749.049708	1
1042.196314	15
1042.698547	2
1043.201143	5
1044.201054	1
1215.726529	1
1216.231105	1
1216.727979	1
1389.261674	3
1389.760628	1
1390.259850	1
