Mass spectrum: L-Carnosine; LC-ESI-ITFT; MS2; m/z:110.07; NEG
Name: Carnosine
Name: Nalpha-(beta-alanyl)-L-histidine
Name: L-Carnosine
Class: Natural Product
Formula: C9H14N4O3
Exact mass: 226.10659
SMILES: C1=C(NC=N1)C[C@@H](C(=O)O)NC(=O)CCN
InChI: InChI=1S/C9H14N4O3/c10-2-1-8(14)13-7(9(15)16)3-6-4-11-5-12-6/h4-5,7H,1-3,10H2,(H,11,12)(H,13,14)(H,15,16)/t7-/m0/s1
Instrument: LTQ Orbitrap XL, Thermo Scientfic
Instrument type: LC-ESI-ITFT
Ms type: MS2
Ion mode: NEGATIVE
Collision energy: 35eV
Ionization: ESI
Column name: TOSOH TSKgel ODS-100V  5um Part no. 21456
Retention time: 3.956147 min
Base peak: 80.898438
Precursor m/z: 110.07
m/z	relative intensity
65.263580	24
80.898438	999
