Mass spectrum: L-Tryptophan; LC-ESI-ITFT; MS; NEG
Name: L-Tryptophan
Name: Tryptophan
Name: (S)-alpha-Amino-beta-(3-indolyl)-propionic acid
Class: Natural Product
Formula: C11H12N2O2
Exact mass: 204.08988
SMILES: C1=CC=C2C(=C1)C(=CN2)C[C@@H](C(=O)O)N
InChI: InChI=1S/C11H12N2O2/c12-9(11(14)15)5-7-6-13-10-4-2-1-3-8(7)10/h1-4,6,9,13H,5,12H2,(H,14,15)/t9-/m0/s1
Instrument: LTQ Orbitrap XL, Thermo Scientfic
Instrument type: LC-ESI-ITFT
Ms type: MS
Ion mode: NEGATIVE
Collision energy: 35eV
Ionization: ESI
Column name: TOSOH TSKgel ODS-100V  5um Part no. 21456
Retention time: 13.942213 min
Base peak: 203.081818
m/z	relative intensity
102.047391	1
102.806104	1
103.767951	1
104.351553	1
105.248469	1
105.935822	1
106.053958	1
106.325615	1
107.680048	1
108.130908	1
111.765141	1
111.928057	1
112.169172	1
112.980202	1
112.981790	1
112.983606	3
112.985648	83
112.987463	3
112.989278	1
114.951622	2
116.044429	1
116.046790	2
116.048680	4
116.050569	113
116.052695	5
116.054349	2
116.557923	1
117.053774	4
117.099727	1
117.766916	1
118.622193	1
118.965885	1
119.325848	1
119.770611	1
121.867301	1
122.458109	1
122.671144	1
124.426551	1
126.240810	1
126.843771	1
128.831443	1
129.058284	1
129.638611	1
129.789891	1
129.882968	1
130.066059	4
132.078335	1
132.210640	1
134.047025	3
134.179363	1
138.203160	1
138.968810	1
139.004101	1
139.006578	2
141.709178	1
142.059773	1
142.065852	33
142.068411	1
142.509331	1
142.946173	1
143.069275	2
145.049843	1
146.803623	1
146.965398	1
147.378274	1
148.832666	1
148.850849	1
148.952461	1
149.473475	1
149.814139	1
153.647134	1
153.962102	1
155.717739	1
155.989764	1
156.068932	1
156.707787	1
157.076841	5
157.079073	1
157.520384	1
157.806512	1
158.447032	1
159.078571	1
159.092219	11
159.816143	1
161.910327	1
164.716479	1
165.020042	1
165.095763	1
168.055040	1
169.721567	1
170.940799	1
170.943754	1
170.992325	1
172.912716	1
175.857619	1
176.718613	1
180.853576	1
181.957283	1
183.736065	1
184.381927	1
185.071627	1
186.055424	5
187.058688	1
190.282681	1
192.062484	1
195.050321	1
197.962578	2
201.679306	1
202.316085	1
202.845584	1
202.930759	2
203.031291	4
203.035663	1
203.053702	1
203.056982	1
203.061355	2
203.063542	1
203.067369	4
203.069009	4
203.072836	14
203.075023	23
203.077210	30
203.081585	999
203.086506	31
203.088693	2
203.090880	12
203.093614	3
203.095801	4
203.099082	2
203.101270	2
203.110020	1
203.113301	1
203.115489	1
203.132444	4
203.233126	2
203.333334	1
204.074323	1
204.075975	1
204.079280	5
204.085339	99
204.089746	3
204.094153	1
205.082127	1
205.086011	3
205.088230	4
205.567947	1
207.739436	1
208.807605	1
210.337453	1
210.384144	1
210.982702	1
213.010941	1
214.616405	1
217.399403	1
220.005507	1
222.614821	1
223.369138	1
225.054438	1
225.056352	1
225.064007	28
225.894948	1
226.050259	1
226.061175	1
226.066955	3
226.977741	1
228.013687	4
229.006318	1
229.932309	1
230.517049	1
235.071245	1
237.014320	3
239.040228	1
239.047211	1
239.052797	3
239.054892	1
239.058384	92
239.063971	3
239.070256	1
240.008134	1
240.061532	9
240.607072	1
241.049794	1
241.055451	22
241.097882	1
242.058402	3
243.170040	1
244.370168	1
246.283813	1
246.680071	1
248.959787	6
249.087487	3
250.339226	1
250.739315	1
251.513737	1
253.437354	1
255.024188	1
255.881189	1
256.141222	1
257.284323	1
259.016920	6
260.020050	1
260.394353	1
261.033800	1
261.040174	37
261.044158	1
262.043872	3
263.037249	11
264.041149	2
266.076927	12
267.080153	1
269.590600	1
271.056722	1
271.061781	1
271.069369	44
271.076115	1
272.072160	3
272.956090	1
273.724511	1
274.003651	1
274.536569	1
275.011581	1
277.004997	1
283.019861	5
284.918422	1
287.033583	5
287.601297	1
288.059822	11
289.062788	1
292.977744	5
293.050710	1
293.116119	1
293.980813	1
293.985575	1
294.604618	1
294.974685	1
296.996949	1
298.557050	1
299.069392	1
300.972134	1
300.980026	1
301.011597	1
301.030345	2
302.976769	1
303.006662	8
303.814447	1
304.009637	1
304.014644	2
304.848588	1
311.002001	1
311.014436	2
315.095620	2
317.074645	15
318.066870	1
318.077588	1
319.050840	4
323.030536	1
323.040408	1
326.022667	1
328.043944	2
328.116921	1
328.566546	1
328.953964	7
329.024989	12
330.017238	1
330.028566	1
330.951412	3
332.032396	1
333.039439	2
333.054367	1
338.945487	1
338.983217	1
339.056336	5
339.077569	1
339.819600	1
339.862211	1
340.041026	2
341.043100	1
341.690142	1
343.050977	1
345.755848	1
345.972160	1
346.054849	3
346.971277	1
347.032339	1
348.885256	1
348.971455	1
349.012103	2
355.040215	1
355.264034	1
357.020166	4
357.087724	1
357.944698	1
360.996387	2
367.225993	1
369.997725	1
370.993406	1
372.590257	1
377.087360	1
378.896485	3
388.075403	1
394.084972	1
394.342278	1
402.011062	2
405.155820	1
407.029699	1
407.130563	1
407.135219	1
407.146083	3
407.153844	2
407.158501	6
407.170919	381
407.184889	8
407.197309	3
407.211281	1
407.315318	1
408.010441	1
408.149056	1
408.173983	91
408.188005	2
408.200470	1
409.177631	6
409.199524	1
410.429942	1
412.060713	1
415.533928	1
418.992902	1
424.185318	1
426.021747	3
427.061964	1
429.108513	1
429.125308	2
429.138744	6
429.153861	323
429.167298	7
429.180736	3
429.195855	1
429.239536	1
429.617823	1
430.141523	1
430.156692	73
430.170177	2
430.948305	1
431.129214	23
431.159658	6
432.132191	4
432.244227	1
433.012670	1
433.527242	1
437.084273	2
443.147713	16
444.150500	4
445.119434	5
445.126531	5
445.146049	4
446.121804	1
447.123992	1
451.135928	8
452.138722	2
453.250585	1
455.097538	1
459.094835	1
461.074916	1
461.089880	33
461.106716	1
461.968446	1
462.092283	6
462.099790	5
463.090428	1
463.103608	1
465.086969	1
465.130556	2
466.214632	1
466.789529	1
467.102171	1
468.103206	2
469.084429	1
469.097865	24
470.103400	4
471.094785	2
475.146637	2
477.135085	2
481.095776	1
483.603585	1
487.112653	7
488.115566	1
489.109317	2
491.124449	5
492.127406	1
495.071523	2
495.113148	1
496.059464	1
497.067115	31
497.140404	9
498.071538	6
498.145050	1
499.064265	7
500.793870	1
502.094323	1
502.558022	1
503.084182	1
503.092710	1
504.939769	14
505.061981	2
505.074848	2
505.100583	1
505.476116	1
505.942359	1
506.088595	1
506.099350	1
507.057936	2
507.096768	12
507.146392	1
508.099301	4
509.202485	1
509.802179	1
510.551107	1
511.587953	1
513.108527	1
515.103823	12
516.108053	3
517.099672	1
521.160043	3
522.164010	1
522.818370	1
522.949390	8
523.141491	3
524.142123	1
527.115573	1
529.943797	1
530.259704	1
530.885435	1
532.583469	1
533.415757	1
533.893226	4
534.450695	1
541.118600	2
541.216118	1
542.968777	1
544.489844	1
546.106511	1
548.098699	3
549.103745	1
552.086507	1
553.331174	1
559.110711	1
563.302871	1
565.085314	2
569.468194	1
575.083355	2
582.563074	1
583.089424	1
584.093590	1
591.802038	1
596.497277	1
598.315262	1
599.994382	1
604.686501	1
611.259972	42
611.274248	1
611.285670	1
612.266251	13
613.266408	1
620.018584	2
620.313287	1
622.024369	1
630.163562	1
633.244195	13
634.232839	2
634.247927	4
635.217750	4
636.223148	1
637.006100	1
640.112629	1
641.028475	1
649.207119	11
650.211467	3
650.383785	1
651.215008	1
654.669799	1
655.198627	1
655.223976	36
656.229620	12
657.231214	1
659.500403	1
660.176080	1
661.688097	1
663.185954	4
664.174417	7
664.190587	1
664.459090	1
665.181298	77
665.207229	1
666.183973	26
667.188916	3
669.176201	1
671.192090	2
672.191928	4
672.534491	1
673.187402	33
674.191703	12
675.181680	2
675.194939	2
677.168187	1
677.208140	1
681.224695	8
682.230209	3
685.077170	1
687.161989	3
688.163628	1
689.423890	1
691.796660	1
695.171030	1
695.808639	1
700.149541	1
703.948597	1
706.184033	1
707.184927	1
709.029002	8
709.146726	1
710.032378	2
710.175381	1
713.184843	2
713.350396	1
715.182518	1
717.152314	1
722.134550	1
723.140166	3
723.209976	1
724.140520	1
725.220432	1
725.249951	1
730.533276	1
731.011008	1
731.145454	1
731.205220	1
732.211132	1
733.166609	4
734.172814	1
736.157484	1
737.983528	2
739.326188	1
741.175478	1
742.068353	2
743.180975	1
743.855116	1
746.210294	1
750.938778	1
765.021139	1
770.131687	1
771.134047	1
780.017602	1
782.013486	1
784.149778	18
785.154699	5
786.153224	1
789.022055	1
789.055555	18
789.558303	7
790.057337	5
790.556844	1
793.483618	1
798.541331	1
799.036105	2
799.125725	1
799.535610	2
800.052685	1
801.049789	1
801.152601	1
801.628363	1
802.615527	1
803.531354	4
804.035081	3
805.531829	1
806.132563	1
808.042945	1
816.021368	1
816.858783	1
819.015534	1
819.995071	1
820.496599	2
820.994143	9
821.118600	1
821.496589	5
821.995043	3
822.489494	1
822.997773	1
826.335542	1
826.771033	1
826.842899	1
829.003262	5
829.504051	4
829.964636	1
830.000776	18
830.402999	1
830.457253	1
830.502470	13
831.000092	9
831.452865	1
831.498162	3
832.073764	1
832.500185	1
837.331535	1
837.510094	1
838.004862	8
838.504657	10
838.720302	1
839.004898	35
839.308015	20
839.505588	21
839.960731	1
840.006726	13
840.310385	9
840.508312	7
841.010348	2
841.314552	3
841.443658	1
841.988074	1
843.976442	1
844.425954	1
844.472316	2
844.977908	1
848.011688	1
849.993351	1
850.082314	1
851.498243	1
852.000762	1
853.294326	1
856.704572	1
858.954560	1
859.316142	5
860.321206	3
860.488093	1
861.323258	1
862.016173	1
865.127836	1
866.268345	1
868.261211	18
869.262645	10
869.732512	1
869.965165	1
870.270663	2
872.267630	1
872.637652	1
875.278439	4
876.282239	2
877.282858	1
881.297580	10
882.301853	5
890.779820	1
891.101374	1
891.196869	1
891.252162	11
891.604151	1
892.253362	6
893.256249	2
897.264443	1
898.265620	1
899.258285	4
900.262802	2
901.269003	1
901.586025	1
903.276215	1
905.578394	1
905.980119	3
906.021337	1
906.078016	1
911.284132	1
913.231053	2
915.100534	1
917.931300	1
918.430664	1
918.741000	1
922.821504	1
931.542379	1
932.047516	3
932.547684	1
933.042870	1
937.208290	1
937.457692	1
939.255239	1
940.049759	3
940.550933	3
941.052508	12
941.554484	8
942.051399	5
942.548708	2
943.046411	1
943.062825	1
949.209927	2
949.281758	1
952.778154	1
953.033797	1
955.210922	1
959.239515	1
959.458458	1
967.339430	1
973.289675	1
981.522105	1
1005.969235	9
1006.976678	1
1013.095883	1
1026.751062	1
1033.591378	1
1041.420347	1
1042.144568	1
1042.424294	1
1043.092277	2
1043.595278	1
1044.092270	1
1054.081257	1
1055.589369	1
1063.407970	1
1064.712948	1
1066.184745	1
1066.382092	1
1079.368338	1
1081.804445	1
1085.389646	1
1091.059647	1
1092.340838	1
1094.335251	1
1094.677308	1
1095.341356	2
1101.351978	1
1102.353947	2
1105.854258	1
1105.902895	1
1105.965432	13
1106.966746	2
1107.363475	3
1108.373661	3
1109.378249	1
1112.666632	1
1113.129575	1
1117.323211	5
1118.332928	2
1119.322788	1
1125.332432	3
1126.331602	2
1127.339254	1
1145.139421	1
1145.644758	2
1146.135768	1
1146.641765	1
1165.985321	9
1166.993939	2
1168.811244	1
1175.285277	1
1186.254671	1
1194.955376	1
1196.392644	1
1203.933660	1
1205.909169	1
1205.956640	6
1206.954199	2
1222.422538	1
1222.979891	1
1228.273479	1
1233.969956	2
1234.977882	1
1247.169945	1
1250.095847	1
1255.953397	1
1265.978062	20
1266.982865	5
1267.988864	1
1273.397375	1
1282.954576	1
1285.867985	1
1286.016095	1
1295.927486	1
1299.062123	1
1304.412719	1
1305.944986	1
1307.435295	1
1316.259515	1
1317.279618	1
1327.135062	1
1327.756410	1
1327.811256	1
1328.433079	1
1331.567116	1
1333.966349	5
1334.970248	2
1343.395822	1
1344.391759	2
1353.414658	1
1357.931847	1
1361.493560	1
1365.097892	1
1365.974981	13
1366.977040	4
1411.000724	1
1419.793523	1
1433.875934	1
1433.968261	4
1434.963914	2
1446.889091	1
1463.966896	1
1465.958479	6
1466.977026	2
1482.955151	1
1488.082533	1
1490.264835	1
1491.624410	1
1492.103423	1
1494.654783	1
