Mass spectrum: NADP+; LC-ESI-ITFT; MS2; m/z:742.07; NEG
Name: NADP+
Name: NADP
Name: Nicotinamide adenine dinucleotide phosphate
Name: beta-Nicotinamide adenine dinucleotide phosphate
Name: TPN
Name: Triphosphopyridine nucleotide
Class: Natural Product
Formula: [C21H29N7O17P3]+
Exact mass: 744.08328
SMILES: NC(=O)c(c5)c[n+1](cc5)[C@H](O1)[C@H](O)[C@H](O)[C@@H](COP(O)(=O)OP(O)(=O)OC[C@@H](O2)[C@@H](O)[C@@H](OP(O)(O)=O)[C@@H]2n(c3)c(n4)c(c(N)nc4)n3)1
InChI: InChI=1S/C21H28N7O17P3/c22-17-12-19(25-7-24-17)28(8-26-12)21-16(44-46(33,34)35)14(30)11(43-21)6-41-48(38,39)45-47(36,37)40-5-10-13(29)15(31)20(42-10)27-3-1-2-9(4-27)18(23)32/h1-4,7-8,10-11,13-16,20-21,29-31H,5-6H2,(H7-,22,23,24,25,32,33,34,35,36,37,38,39)/p+1/t10-,11-,13-,14-,15-,16-,20-,21-/m1/s1
Instrument: LTQ Orbitrap XL, Thermo Scientfic
Instrument type: LC-ESI-ITFT
Ms type: MS2
Ion mode: NEGATIVE
Collision energy: 35eV
Ionization: ESI
Column name: TOSOH TSKgel ODS-100V  5um Part no. 21456
Retention time: 8.892258 min
Base peak: 620.026062
Precursor m/z: 742.07
m/z	relative intensity
408.050659	2
413.244873	1
426.271484	1
602.116272	10
620.026062	999
620.690552	4
643.923279	1
724.484985	1
