Mass spectrum: L-Asparagine; LC-ESI-ITFT; MS; NEG
Name: L-Asparagine
Name: 2-Aminosuccinamic acid
Class: Natural Product
Formula: C4H8N2O3
Exact mass: 132.05349
SMILES: NC(=O)C[C@@H](N)C(O)=O
InChI: InChI=1S/C4H8N2O3/c5-2(4(8)9)1-3(6)7/h2H,1,5H2,(H2,6,7)(H,8,9)/t2-/m0/s1
Instrument: LTQ Orbitrap XL, Thermo Scientfic
Instrument type: LC-ESI-ITFT
Ms type: MS
Ion mode: NEGATIVE
Collision energy: 35eV
Ionization: ESI
Column name: TOSOH TSKgel ODS-100V  5um Part no. 21456
Retention time: 4.581412 min
Base peak: 131.046188
m/z	relative intensity
100.480500	2
100.963870	2
101.659560	2
101.926745	2
103.920096	9
104.927907	4
105.290505	2
105.941384	2
106.435690	2
106.943702	2
111.019937	4
112.981790	2
112.983606	5
112.985648	123
112.987463	7
112.989051	3
113.031950	3
113.033766	7
113.035582	192
113.037399	10
113.039215	3
113.624575	2
114.015965	3
114.018035	8
114.019645	193
114.021485	9
114.023096	3
114.038739	4
114.198122	1
114.851330	2
114.951389	9
115.003798	2
115.022907	4
115.291402	2
117.408451	2
118.510967	2
120.722744	2
122.273468	2
122.274745	2
122.967648	2
123.951717	7
125.067795	2
125.119605	2
126.974234	2
127.943704	5
129.320171	2
129.923248	2
131.019924	5
131.027008	2
131.035793	2
131.040044	8
131.041744	17
131.044012	43
131.046279	999
131.048546	44
131.050530	15
131.051664	3
131.053081	3
131.054215	3
131.055066	3
131.056199	2
131.072358	4
131.097027	2
131.414941	2
132.023577	3
132.025584	7
132.027590	10
132.029883	227
132.032176	12
132.034469	3
132.049089	27
133.033299	6
133.604488	2
133.652058	2
135.351010	2
135.577099	2
136.571234	2
137.360748	2
137.800087	2
137.967411	3
138.392440	2
139.239098	2
139.988035	2
141.983029	3
142.833871	2
145.890482	5
145.954091	2
146.175214	2
146.234665	2
146.625677	2
146.898436	2
148.952117	2
150.053123	2
151.854859	2
151.946469	10
152.448072	2
154.699230	2
154.954741	4
155.003585	2
155.962162	4
156.894379	3
156.900691	2
156.970150	3
157.019579	4
157.978187	3
158.998997	2
159.893276	2
159.982698	2
160.675769	2
160.892241	4
161.520240	2
164.977997	9
165.729612	2
165.962036	3
167.022582	16
167.754972	2
168.961750	2
169.011139	2
169.019442	4
171.030351	2
171.933165	4
172.030318	8
172.643685	2
173.014141	3
173.355601	2
175.009900	15
177.474221	2
179.715720	2
181.874306	2
184.513024	3
185.317797	2
185.972503	12
186.009403	2
186.200790	2
186.702961	2
186.980408	19
188.082270	2
188.475674	2
190.968884	2
190.977360	5
191.976520	4
192.651705	2
192.972906	43
193.956654	3
193.975027	2
194.041398	7
194.202871	2
194.969030	2
195.015843	2
197.946792	2
198.353091	2
198.943948	15
199.031452	2
200.701823	2
200.981992	5
201.008911	19
201.991353	2
202.975552	4
208.987861	2
209.444677	2
210.983281	12
211.041772	2
212.563492	2
213.340245	2
214.040779	4
214.997675	4
215.199128	2
217.357017	2
220.941287	6
221.949880	2
222.938979	2
223.930273	2
224.988114	2
225.283609	2
226.030997	2
226.800823	2
228.019542	19
228.950020	2
230.970000	14
231.935298	3
232.857645	2
233.932124	2
233.938884	2
236.662435	2
237.582015	2
237.934566	2
238.978097	10
240.469632	2
242.008603	9
244.539140	2
244.998560	2
245.009428	4
245.018848	2
245.034790	8
245.038413	7
245.046385	4
246.030621	3
246.444541	2
246.935000	4
247.014196	4
248.692084	2
248.937523	3
249.221232	2
250.941221	6
252.263741	2
252.970729	3
253.887692	2
255.985619	3
256.459063	2
256.894921	2
256.971174	2
256.983627	2
257.974174	2
257.981220	75
257.987483	2
258.983845	4
260.046194	6
263.093677	9
263.099321	273
263.105771	8
263.112222	2
263.926080	2
264.082494	9
264.095468	2
264.101955	21
265.102176	2
265.989209	16
267.070257	2
270.025161	6
271.047448	2
271.973834	2
272.020447	113
272.935643	2
273.004660	7
273.024263	4
276.935328	2
277.840458	2
279.777217	2
281.738765	2
284.038197	2
285.072951	3
285.081135	106
285.088410	4
286.064915	6
286.084112	7
287.050121	5
287.056553	150
287.063904	4
288.040425	32
288.059822	12
288.999659	11
289.024723	2
290.729219	2
298.014916	6
299.214063	2
300.039120	2
301.045147	6
301.055016	5
302.029466	6
304.491911	2
304.848588	2
307.015083	3
307.062857	26
308.047236	8
308.066645	2
309.202700	2
309.332171	2
312.015812	7
314.015254	6
315.022718	12
316.003197	3
316.010626	100
316.019117	5
316.192193	2
316.994658	13
317.018118	206
317.023450	6
317.026649	4
318.001506	33
318.015434	3
318.021863	14
318.025078	13
318.977637	2
319.018541	8
319.562884	2
320.991233	2
321.014051	5
322.536402	2
323.030536	11
324.029932	9
325.010724	2
325.016259	2
325.018473	2
325.026223	138
325.035080	3
326.009321	17
326.029340	13
327.013645	3
327.022583	10
327.069515	2
327.293137	2
328.042821	2
329.502473	2
331.074296	2
332.143301	2
333.062406	11
344.978562	3
347.050661	13
351.291063	2
351.683235	2
351.986216	2
352.149715	2
352.993975	11
353.419128	2
353.581113	2
354.990927	5
356.170318	2
361.980652	2
362.014484	3
362.980707	3
363.023827	9
364.984068	5
371.031211	6
373.850315	2
377.051393	3
377.087360	4
379.067934	2
379.851387	2
381.948278	2
392.098634	4
396.930743	2
404.073298	6
406.041668	2
411.997508	3
417.121196	11
419.109592	64
420.093672	21
420.113193	7
421.053470	4
421.097546	2
422.059150	3
426.966939	3
433.099504	41
434.083737	3
434.102533	5
434.109369	2
435.158783	2
439.116435	24
439.358184	2
440.119517	3
441.935855	2
445.840657	2
446.068402	4
447.075767	7
448.047127	2
448.063253	84
448.074005	7
449.046824	9
449.071994	141
449.086378	4
450.049870	2
450.075125	15
451.070762	5
455.084699	5
456.063891	2
456.082293	5
457.064708	2
457.079478	61
458.076232	3
458.083642	6
459.078109	2
465.115395	8
466.167089	2
467.306320	2
471.742610	2
478.627205	2
479.641720	2
489.899129	2
494.069931	5
517.057465	2
533.215644	2
533.224949	2
541.663608	2
544.216300	3
544.979858	2
551.163706	56
552.167393	9
562.293874	2
563.474670	2
571.329021	2
572.390905	2
573.144541	2
578.120358	2
578.606512	2
580.116172	51
581.120604	9
587.135140	4
593.150729	3
594.301428	2
595.120706	2
596.191877	2
602.099052	6
603.082785	2
603.107969	16
604.108203	3
611.114382	9
630.818595	2
634.930499	2
641.310669	2
646.686209	2
698.319057	2
705.199415	4
713.242420	2
724.634105	2
727.361570	2
734.150264	9
757.139128	6
760.575173	2
764.845271	2
765.153081	2
766.089645	3
767.096164	9
767.883510	2
775.106038	5
780.318144	2
791.313302	3
820.070493	2
822.168718	2
825.595549	2
831.964943	2
844.639250	2
854.397352	2
858.773855	2
869.190019	3
896.969999	2
898.143560	6
900.145436	2
904.806596	2
905.974967	12
906.150160	3
906.980441	3
907.155926	2
908.028946	2
909.872097	2
913.617012	2
917.526852	2
918.136253	2
929.879408	2
942.018624	2
975.099263	2
978.600573	2
1005.896902	2
1005.969235	38
1006.898200	2
1006.976678	7
1008.681308	2
1060.159262	2
1060.178827	2
1065.987452	4
1082.254986	2
1105.895946	4
1105.965432	38
1106.966746	10
1155.955800	5
1165.985321	45
1166.993939	10
1167.988784	4
1168.139629	2
1169.287007	2
1178.695378	2
1182.973150	5
1188.829321	2
1191.443442	2
1205.956640	22
1206.962121	5
1218.065740	2
1233.969956	7
1234.969683	3
1244.237719	2
1252.035432	3
1255.953397	6
1263.411887	2
1265.978062	76
1266.982865	22
1267.988864	2
1272.204880	2
1278.685055	2
1282.971940	9
1283.970969	3
1305.891489	2
1305.944986	3
1320.492092	2
1333.966349	14
1334.970248	5
1339.969710	2
1365.974981	46
1366.977040	16
1382.966749	5
1383.968112	2
1408.790311	2
1432.133641	2
1433.958002	14
1434.953645	2
1450.274401	2
1465.969084	20
1466.966411	6
1467.975382	2
1482.955151	5
1495.364655	2
