Mass spectrum: Uridine; LC-ESI-ITFT; MS; NEG
Name: Uridine
Class: Natural Product
Formula: C9H12N2O6
Exact mass: 244.06954
SMILES: OC[C@@H](O1)[C@@H](O)[C@@H](O)[C@@H]1N(C=2)C(=O)NC(=O)C2
InChI: InChI=1S/C9H12N2O6/c12-3-4-6(14)7(15)8(17-4)11-2-1-5(13)10-9(11)16/h1-2,4,6-8,12,14-15H,3H2,(H,10,13,16)/t4-,6-,7-,8-/m1/s1
Instrument: LTQ Orbitrap XL, Thermo Scientfic
Instrument type: LC-ESI-ITFT
Ms type: MS
Ion mode: NEGATIVE
Collision energy: 35eV
Ionization: ESI
Column name: TOSOH TSKgel ODS-100V  5um Part no. 21456
Retention time: 5.491278 min
Base peak: 243.061356
m/z	relative intensity
100.143768	1
101.072058	2
101.078010	1
102.864816	1
102.998190	1
103.830488	1
103.920296	1
104.563340	1
105.730328	1
106.879167	1
107.034651	1
107.036325	29
108.045347	3
108.192965	1
109.077098	1
109.169490	1
109.814969	1
109.992814	1
110.004802	1
110.018972	1
110.021153	2
110.023115	4
110.024859	204
110.026603	6
110.028566	2
110.030528	1
110.044922	1
110.190539	1
110.999829	1
111.010877	1
111.014191	1
111.016180	2
111.018169	7
111.019937	224
111.021926	6
111.023916	3
111.025684	1
111.026568	1
111.027894	6
111.040494	1
111.464383	1
112.023200	5
112.040226	3
112.128558	1
112.227101	1
112.983832	1
112.985648	48
112.987236	1
113.035810	1
113.994807	1
114.506084	1
114.838774	1
115.842996	1
115.904502	1
116.617144	1
117.019088	1
118.992611	1
120.012429	1
120.045224	1
120.863204	1
122.024533	7
122.025552	2
123.056061	1
124.040150	2
124.133119	1
124.641065	1
124.645008	1
125.716672	1
125.784076	1
126.055572	1
127.051039	3
127.507896	1
128.031791	1
128.032612	1
128.035075	30
128.036991	2
128.853824	1
130.309940	1
131.045996	2
131.712020	1
132.431207	1
133.447074	1
134.020053	2
134.039401	2
134.041160	3
134.042333	6
134.044679	9
134.047025	316
134.049664	9
134.052303	4
134.054648	2
134.055821	1
134.074298	2
134.128576	1
134.156167	1
134.767119	1
135.043914	3
135.050140	12
135.056071	1
135.299259	1
136.972860	1
137.876829	1
137.924557	1
138.055325	1
138.191496	1
138.693753	1
139.006887	10
139.038166	1
139.368010	1
140.031854	1
140.034985	25
140.980239	1
141.038448	1
141.066616	6
141.831005	1
143.040181	1
143.041474	1
143.043090	2
143.045999	67
143.047939	2
143.889796	1
144.049390	2
145.061395	5
145.890149	1
146.045748	5
146.938136	2
147.892403	1
148.952117	7
149.049707	1
149.071712	1
151.980091	1
152.032849	1
152.034974	32
152.037453	1
153.026527	1
153.030103	26
153.038330	1
153.066591	5
153.142112	1
155.082368	8
155.911024	1
156.085510	1
156.894379	2
156.900320	1
157.340877	1
159.771111	1
159.893276	2
160.004874	1
160.007168	12
160.191259	1
160.892241	3
161.451229	1
161.893981	1
162.892928	4
164.034831	1
164.895156	1
164.947175	1
165.514169	1
166.098247	3
166.310779	1
167.046237	2
167.976863	1
168.621186	1
168.722171	1
170.032794	1
170.144693	1
171.077267	1
172.953963	1
173.413831	1
174.955673	3
177.033715	8
178.059935	1
178.086872	2
178.272006	1
178.411046	1
179.034442	1
179.045304	2
181.061452	2
182.045422	1
182.949510	1
183.040710	1
183.668327	1
184.108354	4
184.110714	1
184.276489	1
184.486509	1
185.056406	3
185.706858	1
185.758028	1
186.969299	3
189.761564	1
190.266813	1
190.424094	1
190.843799	1
190.928006	1
191.151500	1
193.061567	1
194.734189	1
197.056374	3
197.909965	1
198.087880	7
198.090514	1
198.194322	1
199.071776	3
199.370342	1
200.042171	1
200.050724	1
200.056070	72
200.060347	2
201.058994	5
202.060253	1
206.081763	2
208.964460	1
210.087546	10
210.972281	2
211.091016	1
212.681814	1
214.227263	1
219.966671	1
224.959425	1
225.099096	2
228.098275	7
228.404485	1
230.952759	5
230.959390	5
231.005817	1
231.008470	1
233.963899	1
238.080249	2
238.108013	2
238.966930	2
239.122643	1
242.069786	1
242.077614	4
242.863703	2
242.934510	1
242.995328	5
243.030399	1
243.035409	1
243.036841	2
243.039704	2
243.042568	4
243.049727	8
243.055454	19
243.057601	6
243.061181	999
243.067625	20
243.074069	8
243.076933	1
243.079797	4
243.082661	2
243.089821	1
243.091969	1
243.094834	1
243.098414	1
243.104143	2
243.109872	1
243.112021	1
243.127777	4
243.142819	1
243.252449	1
243.259617	1
244.057959	4
244.060840	1
244.064442	77
244.070925	1
244.909469	1
245.055807	1
245.065229	6
246.068538	1
247.003195	3
248.070105	1
250.076020	1
254.077345	15
255.967049	1
256.986740	1
257.982003	3
259.962233	1
260.088190	4
262.001401	1
266.088407	18
266.102349	2
267.047170	1
267.091698	1
267.335149	1
270.926085	2
271.062624	3
271.845073	1
272.074703	1
272.080638	1
272.088270	68
272.095053	1
272.923716	1
273.091608	7
273.606476	1
273.837485	1
273.924832	3
274.923714	2
275.924606	2
275.956649	1
276.924009	3
277.143543	1
277.750358	1
278.152211	1
278.926851	2
279.024569	1
279.030733	3
279.038659	183
279.043062	1
279.045704	3
279.053630	1
280.041762	17
280.982642	3
281.027140	1
281.035151	50
281.042272	2
281.205239	1
282.038310	4
285.978094	1
286.704950	1
287.034501	10
288.037654	1
288.065364	11
288.069059	1
289.051646	1
289.059074	4
289.067431	212
289.074859	4
289.083217	2
289.094360	1
290.070069	17
290.736712	1
291.071365	2
294.934489	1
296.980511	1
298.996120	6
302.065170	9
303.069451	1
303.338771	1
304.059716	3
304.063723	2
305.796061	1
305.983052	4
306.014403	1
306.042723	2
306.045758	1
306.048792	4
306.057897	42
306.068013	16
306.076106	913
306.084200	15
306.090270	2
306.093306	6
306.099376	1
306.102412	3
306.105447	2
306.111518	2
306.128721	1
306.136816	1
306.143900	1
306.169203	4
306.356536	1
306.992724	1
307.059807	3
307.072006	5
307.079123	77
307.087256	1
308.060515	1
308.071753	29
308.078904	7
309.074337	2
309.082550	1
311.048635	8
312.084547	1
312.093922	57
312.099130	2
313.097380	7
314.098323	1
314.997366	4
315.987278	15
317.061845	29
318.064727	2
319.077759	26
320.080490	3
322.023747	1
324.987478	1
325.002975	1
326.007097	1
326.056035	1
327.022583	1
328.057415	40
329.061075	2
329.084759	2
330.034229	5
330.053487	1
331.993535	2
332.073550	1
333.093414	4
335.060366	1
335.071954	21
335.311955	1
335.966017	1
336.075407	1
338.732197	1
340.089603	2
340.991939	1
341.028821	31
341.038340	12
342.031682	2
342.041243	1
342.104594	2
342.986163	17
343.024569	1
343.036573	1
343.989239	1
344.031431	3
344.606009	1
344.978562	1
345.034255	1
346.054849	8
347.522638	1
349.088491	3
349.323973	1
349.992262	3
350.039274	1
350.993948	1
351.806625	1
352.998987	2
354.383890	1
354.879752	1
354.992191	2
355.959599	1
355.997667	1
357.054580	5
357.999721	1
358.099563	1
358.880533	1
358.987168	32
358.997449	1
359.030864	1
359.994192	28
360.998978	3
361.989760	2
362.763916	1
363.010759	1
363.270936	1
364.054457	1
364.221183	1
364.973529	1
366.013802	6
367.016016	1
368.075712	1
368.131753	1
370.009827	4
371.984979	2
372.996865	1
374.021084	1
374.051151	1
375.593532	1
378.356415	1
379.035866	1
382.056894	1
382.952973	2
383.076182	12
383.088932	1
383.657626	1
384.950032	2
385.952276	2
386.005285	1
386.951249	3
387.623712	1
387.952661	2
387.971430	1
387.984424	4
387.991643	1
388.950720	4
388.991302	1
390.028298	3
390.951124	1
390.956966	1
393.037655	1
393.940164	1
399.060874	6
401.173279	1
403.769620	1
404.042608	1
405.979842	2
406.115877	3
408.979105	1
409.977884	1
410.972455	1
410.980326	1
411.010235	3
411.978549	3
414.105319	1
416.330439	1
420.165258	1
422.088639	4
423.093100	1
426.020086	1
427.980510	1
428.015640	15
429.017841	2
433.164220	1
433.957322	1
436.172421	1
437.034211	1
439.034737	1
444.699233	1
448.023834	1
451.041804	4
452.044284	1
464.031371	1
465.018757	2
466.182302	1
474.996000	1
482.102153	24
482.178159	7
483.105673	3
484.098242	2
486.574839	1
487.092342	1
487.098435	1
487.114684	4
487.130934	254
487.147185	3
487.165468	2
488.052411	1
488.133903	47
489.135885	5
494.119731	2
495.117311	9
496.120003	1
499.186457	2
500.554697	1
501.601550	1
504.083387	2
509.111320	1
510.156843	18
510.169905	2
511.089873	26
511.161918	2
511.175019	1
512.093329	4
512.189676	1
517.148550	3
518.143171	18
518.154312	1
519.147367	4
523.107583	8
523.207055	1
524.110385	1
525.104705	2
526.010677	1
530.015255	1
531.095799	1
532.098480	1
533.136561	1
534.117042	24
535.118939	4
535.144666	1
536.020480	1
536.046272	2
538.047274	6
540.042904	109
540.175708	2
541.044885	16
541.170924	7
542.047273	4
544.218698	1
545.215492	1
546.133034	1
547.214894	1
549.218019	1
550.145688	26
551.149039	4
552.147783	1
554.121395	2
555.125762	1
555.363062	1
557.142706	5
561.074097	4
563.070561	87
563.090756	1
563.300345	1
564.074057	14
569.658234	1
572.127096	9
573.131579	2
573.154911	1
573.173058	1
574.089330	1
574.102324	8
574.286889	1
575.106805	1
576.048616	1
577.052974	9
578.057334	3
578.887973	1
578.953764	1
579.051156	1
579.773149	1
582.101112	1
584.157603	1
586.096315	15
587.100199	3
590.124666	1
594.060625	2
595.065852	1
596.612895	1
597.130836	2
598.085833	1
599.084675	1
600.080467	11
601.084312	2
603.057603	13
604.060516	2
605.046250	1
605.057498	1
605.085617	1
607.064531	5
608.029303	2
609.010575	2
612.011588	1
613.160258	7
614.013105	2
614.162608	2
615.011785	2
615.155888	2
617.088865	1
623.107310	3
627.093487	2
628.097494	1
630.091839	4
631.094074	2
632.038656	1
633.039522	1
635.039329	2
635.139114	1
636.035212	2
636.344441	1
637.036476	2
637.118503	3
638.037062	3
640.039201	2
644.105826	2
652.044679	1
652.072992	1
659.059051	1
666.070287	3
667.081484	1
668.796987	1
670.073214	1
671.037709	2
680.100754	1
680.241514	3
686.114996	2
688.300075	1
689.058092	1
695.871061	1
701.102554	1
702.834858	1
705.022543	1
710.246898	1
719.899642	1
723.081386	1
724.155247	1
731.201484	11
732.203645	2
739.189479	1
753.183189	2
754.226981	10
755.159233	1
755.229810	4
762.166793	1
762.214500	3
763.213388	1
773.120278	2
774.120341	3
775.081577	1
775.118270	26
776.118129	8
777.111738	1
777.124017	2
777.255008	1
778.189277	2
779.186868	1
784.112442	1
785.241994	2
786.870006	1
789.185385	1
794.214680	1
796.150732	4
797.149052	5
798.102391	1
798.144991	39
799.147066	11
800.138200	3
806.093646	1
807.136726	3
808.142766	1
811.718080	1
818.121746	1
819.143971	1
819.174977	2
820.132613	1
820.176988	2
821.171947	19
822.173172	5
830.167957	2
831.172102	1
831.702047	1
838.128623	4
842.126569	1
844.198836	4
845.200698	1
847.125926	2
855.256740	1
861.160902	3
862.154856	1
862.250520	1
874.173807	1
877.700289	1
878.378635	1
884.718129	1
893.962811	1
905.980119	2
906.634782	1
928.375851	1
929.210115	1
995.330442	1
998.261718	1
998.297472	1
1005.884847	1
1005.969235	11
1006.976678	3
1018.116190	1
1020.280060	1
1021.321416	1
1023.248111	1
1024.826866	1
1033.227348	1
1041.814128	1
1042.214489	1
1043.219585	1
1045.866488	1
1065.238240	1
1080.038620	1
1095.129069	1
1104.604713	1
1105.965432	9
1106.973704	3
1107.976389	1
1110.307311	1
1125.624908	1
1147.427090	1
1160.267059	1
1165.985321	12
1166.993939	4
1175.856408	1
1182.973150	2
1186.162047	1
1192.283026	1
1205.956640	6
1206.962121	1
1232.497164	1
1233.969956	3
1237.112527	1
1250.062445	1
1255.953397	1
1265.382558	1
1265.978062	24
1266.395166	1
1266.982865	6
1267.988864	1
1271.022621	1
1274.342265	1
1279.376428	1
1282.963258	3
1289.578405	1
1333.966349	8
1334.970248	1
1349.537951	1
1355.939238	1
1362.053718	1
1362.462186	1
1365.974981	13
1366.967491	4
1370.756583	1
1382.957032	2
1383.968112	1
1390.430092	1
1407.881650	1
1430.231002	1
1433.958002	7
1434.963914	1
1438.585729	1
1465.958479	6
1466.977026	3
1472.790248	1
1482.965940	1
1483.786276	1
