Mass spectrum: DOPA; LC-ESI-ITFT; MS; POS
Name: 3,4-Dihydroxy-L-phenylalanine
Name: L-Dopa
Name: 3-Hydroxy-L-tyrosine
Name: L-beta-(3,4-Dihydroxyphenyl)alanine
Name: Levodopa
Name: Dihydroxy-L-phenylalanine
Name: DOPA
Class: Natural Product
Formula: C9H11NO4
Exact mass: 197.06881
SMILES: OC(=O)C([H])(N)Cc(c1)cc(O)c(O)c1
InChI: InChI=1S/C9H11NO4/c10-6(9(13)14)3-5-1-2-7(11)8(12)4-5/h1-2,4,6,11-12H,3,10H2,(H,13,14)/t6-/m0/s1
Instrument: LTQ Orbitrap XL, Thermo Scientfic
Instrument type: LC-ESI-ITFT
Ms type: MS
Ion mode: POSITIVE
Collision energy: 35eV
Ionization: ESI
Column name: TOSOH TSKgel ODS-100V  5um Part no. 21456
Retention time: 5.475342 min
Base peak: 244.092560
m/z	relative intensity
102.091007	1
112.029549	1
112.044557	1
112.046797	1
112.048589	3
112.050382	198
112.051726	2
112.052174	3
112.053742	1
112.070996	1
113.034053	1
113.047219	1
113.053350	4
113.054485	1
123.043741	1
123.055085	30
124.058233	1
135.043820	1
139.038624	4
152.070362	24
158.096003	1
162.076016	17
163.132671	1
171.149125	7
174.127584	4
179.063200	1
181.049704	22
182.052360	1
182.984796	2
187.126060	1
194.117984	12
196.060913	5
197.270009	1
197.799125	1
197.930554	1
197.983688	1
198.027369	4
198.050004	1
198.051583	1
198.054216	1
198.056322	1
198.057375	1
198.058428	1
198.060534	1
198.062640	2
198.064746	1
198.065799	2
198.067905	4
198.071590	11
198.075803	933
198.079489	9
198.080542	10
198.084228	4
198.086861	2
198.088967	2
198.092654	1
198.093707	1
198.094760	1
198.096340	1
198.100026	1
198.102660	1
198.124255	4
198.168509	1
198.221739	1
198.307163	1
198.353589	1
198.886544	1
199.073161	1
199.074753	1
199.078997	88
199.082181	1
199.083242	1
199.179311	1
200.079676	5
210.075901	1
222.112313	1
224.127985	2
242.990493	1
243.713994	1
243.893756	1
243.966436	1
244.026187	3
244.044189	1
244.049950	1
244.058592	1
244.061472	1
244.062913	1
244.065793	1
244.067234	1
244.070115	1
244.071555	1
244.074436	2
244.077317	2
244.078758	2
244.081639	4
244.086681	11
244.092443	999
244.098926	10
244.103969	4
244.107571	2
244.109732	2
244.114775	1
244.116936	1
244.118377	1
244.120538	1
244.124861	1
244.129184	1
244.158726	3
244.219269	1
244.292095	1
244.408972	1
244.472496	1
245.075763	3
245.090258	3
245.095331	96
245.101854	1
245.201906	1
246.095661	6
332.561263	34
333.062421	5
333.562411	1
391.282894	4
395.142987	9
395.150405	1
396.146347	1
414.231646	1
441.159953	18
442.162777	2
487.145866	1
487.162114	2
487.178362	200
487.190549	1
487.194611	1
487.208829	1
488.181230	35
489.181068	2
542.064814	1
588.349282	1
634.366158	1
635.369295	1
664.090042	1
664.115903	122
664.135299	1
664.144998	1
665.119170	22
666.121465	3
762.649482	3
763.150980	2
861.184654	6
861.686096	1
862.187976	2
884.195569	1
907.201166	3
908.203272	1
959.713628	1
960.725266	1
982.728578	1
1094.200228	1
1094.706314	1
1095.205906	1
1327.228365	3
1328.233570	2
1329.230764	1
