Mass spectrum: L-Carnosine; LC-ESI-ITFT; MS; NEG
Name: Carnosine
Name: Nalpha-(beta-alanyl)-L-histidine
Name: L-Carnosine
Class: Natural Product
Formula: C9H14N4O3
Exact mass: 226.10659
SMILES: C1=C(NC=N1)C[C@@H](C(=O)O)NC(=O)CCN
InChI: InChI=1S/C9H14N4O3/c10-2-1-8(14)13-7(9(15)16)3-6-4-11-5-12-6/h4-5,7H,1-3,10H2,(H,11,12)(H,13,14)(H,15,16)/t7-/m0/s1
Instrument: LTQ Orbitrap XL, Thermo Scientfic
Instrument type: LC-ESI-ITFT
Ms type: MS
Ion mode: NEGATIVE
Collision energy: 35eV
Ionization: ESI
Column name: TOSOH TSKgel ODS-100V  5um Part no. 21456
Retention time: 3.987228 min
Base peak: 225.098679
m/z	relative intensity
102.949033	1
102.957124	1
106.041166	1
108.057018	3
110.012432	1
110.052556	2
110.064771	1
110.066299	1
110.067171	1
110.068917	4
110.070880	11
110.072626	275
110.074371	10
110.076117	5
110.077208	1
110.078735	1
110.092701	2
111.069680	1
111.075873	11
112.965003	1
112.982017	1
112.984059	3
112.985875	67
112.987690	2
112.989505	1
113.989288	1
114.952088	1
127.051309	10
127.052933	1
129.975585	1
137.035575	6
142.946495	1
145.092759	1
145.095730	1
145.098372	23
145.101344	1
146.101450	1
146.938473	1
152.082798	2
154.056348	1
154.059238	3
154.062128	109
154.065380	3
154.068270	1
155.065585	6
157.011772	4
163.098943	7
164.082869	7
174.064986	7
176.043699	1
180.973107	14
180.974947	1
181.101505	1
181.105649	1
181.109333	49
181.113016	1
182.112729	4
184.333689	1
186.064535	1
186.929215	1
190.928006	1
198.935996	2
206.972789	1
207.088726	3
208.091744	1
210.999494	1
213.075566	1
213.080854	1
213.085556	47
213.089670	1
214.088709	2
218.054327	8
224.922457	2
224.994490	1
224.998316	1
225.005330	1
225.021910	1
225.039768	5
225.043595	1
225.049973	1
225.051887	1
225.062731	1
225.076127	2
225.079955	3
225.083145	3
225.088249	12
225.093353	28
225.098458	999
225.104200	26
225.109305	11
225.113772	2
225.116325	3
225.118239	2
225.121430	2
225.125259	1
225.134193	1
225.136746	1
225.139299	1
225.146958	1
225.157171	4
225.166746	1
225.170576	1
225.175044	1
225.201859	1
225.275304	2
225.392891	1
226.091359	1
226.095856	11
226.102279	82
226.107417	2
226.112556	1
227.103130	5
228.948711	1
230.054220	6
233.012800	1
234.020703	1
235.028353	1
238.931339	1
247.068483	1
247.075086	3
247.080956	91
247.084625	2
247.087560	2
247.092697	1
248.084131	6
248.954592	1
248.959787	36
248.964982	1
249.963238	2
254.916501	1
257.112098	1
258.000792	1
261.067268	1
264.934263	1
267.067784	2
271.041547	1
281.034261	1
281.072539	13
282.075899	1
283.057646	13
284.060808	1
285.031125	1
285.054764	3
287.026233	4
291.028212	2
292.986271	1
292.999536	1
293.053554	1
293.059241	1
293.063032	1
293.070615	4
293.079146	9
293.086730	366
293.095262	8
293.099054	1
293.101898	4
293.106638	1
293.113275	1
293.116119	1
293.173963	1
294.083690	4
294.089407	33
294.094171	1
294.097030	1
295.061805	1
295.090534	1
295.093408	1
296.937004	1
297.028863	1
299.036172	1
299.100664	3
305.039744	1
306.919569	1
307.036427	1
307.073023	1
309.051753	2
309.060991	1
310.076665	6
313.185321	3
314.188791	1
315.051242	1
315.059694	4
315.068146	129
315.077656	3
315.086109	1
315.162205	1
316.065823	1
316.072193	10
316.939217	1
316.947746	32
316.955208	1
317.951157	1
320.022075	1
324.015606	1
325.024009	4
326.027116	1
331.036741	1
331.042430	1
332.921198	1
333.031401	5
334.910939	1
337.112607	10
338.115851	1
341.068089	1
345.048786	3
347.006691	1
349.050294	1
349.060150	19
350.064022	2
351.044891	1
355.056646	1
359.095137	1
360.974358	1
361.063780	2
361.074150	74
361.085817	2
362.076957	8
367.030629	1
367.089089	2
373.026808	1
375.024828	1
377.047243	1
381.172392	2
383.032273	1
383.036522	1
383.045020	2
383.056352	86
383.067683	2
383.079015	1
384.059736	10
384.934336	14
385.059931	1
385.937951	1
387.095098	1
389.011595	1
393.011157	1
393.174601	1
393.186384	35
393.196696	1
394.189934	4
395.163195	1
399.029247	3
400.044682	1
400.909260	1
402.898833	1
405.038748	1
405.100359	2
414.993541	2
415.169290	6
416.171595	1
417.047168	17
419.033414	2
425.124401	2
426.021747	1
427.081974	1
429.048062	1
429.061494	60
429.076607	1
430.064002	6
431.034519	1
431.064953	1
433.021182	1
433.131860	1
435.016470	1
441.015785	1
441.169805	1
445.036056	3
446.039924	1
449.160106	4
451.029136	1
451.043614	47
451.056283	1
451.206540	3
452.047916	4
452.922605	7
453.048289	1
453.925884	1
461.174069	10
462.176747	1
467.018261	3
473.009233	1
473.022838	1
473.088930	1
473.118093	1
473.131703	1
473.139481	1
473.155036	4
473.172537	9
473.188095	464
473.205597	8
473.213377	1
473.219211	4
473.228936	1
473.242551	1
473.248386	1
473.256167	1
473.260057	1
473.367058	2
473.727238	1
474.158046	1
474.175603	2
474.191209	88
474.208768	2
474.222425	1
475.164248	1
475.193603	6
482.981315	1
483.155830	9
484.158618	1
485.035340	10
486.039939	1
487.019232	1
487.041570	1
489.162456	5
490.165558	1
493.112749	1
495.069442	1
495.152697	1
495.169351	32
495.183924	1
496.172202	5
497.031523	1
497.048271	42
497.065021	1
498.052638	6
499.053733	1
501.009908	1
503.005312	1
505.124176	1
511.144451	1
513.022897	4
513.134879	1
517.150772	44
517.166326	1
518.156541	6
519.013306	1
519.031178	26
519.158541	1
520.033477	2
520.910627	4
525.045603	1
527.108714	2
529.062135	1
529.161011	19
530.165133	2
531.146675	3
532.149500	1
533.124932	2
533.143538	1
535.004361	3
535.306085	1
536.881993	1
541.075796	1
541.116222	1
541.135248	1
541.156653	1
541.175681	97
541.197088	2
541.213739	1
542.178432	18
543.181582	1
545.133724	1
547.190710	3
549.091590	1
550.968184	1
551.144149	8
552.147783	2
553.023913	10
553.129582	1
554.025296	1
555.007169	1
557.150160	3
558.165268	1
561.099207	1
561.275024	1
563.057940	1
563.156398	20
563.302871	1
564.160124	3
565.016797	1
565.037097	33
566.040768	4
567.042014	1
568.996073	1
569.106353	1
575.112017	1
579.130140	1
581.009460	4
583.009628	1
583.257048	1
585.140462	11
585.201973	1
586.144571	1
587.019578	12
587.121700	1
587.140515	1
588.023142	2
588.896960	3
593.137083	1
597.150134	21
598.154924	3
599.134544	2
602.993255	2
603.102373	1
609.064528	1
609.141211	1
609.163935	71
609.183819	1
609.189501	1
610.167888	12
611.171470	1
613.122969	2
614.125227	1
615.118416	1
615.176066	2
617.248185	1
619.129914	4
620.135273	1
621.011490	6
622.012645	1
625.136972	4
629.261946	2
631.124028	1
631.144997	14
632.149746	2
633.024476	19
634.027686	3
636.984838	1
641.276918	2
647.118299	1
648.124036	1
648.997782	3
651.243266	1
653.102920	1
653.124994	6
653.188069	1
654.128969	1
655.005388	6
655.106748	1
656.010529	1
656.884372	1
663.256947	1
664.964188	1
665.135923	14
666.141743	3
667.120547	1
667.140080	1
669.097717	1
669.120607	1
677.124909	1
677.151541	45
677.174846	1
677.181504	1
678.154720	8
679.156786	1
681.110497	2
683.106380	1
685.239810	1
687.100735	1
687.117749	4
689.000001	5
690.982643	1
693.125526	4
697.076062	1
697.249951	2
698.252820	1
699.132106	6
699.296284	3
700.135540	2
700.300072	1
701.011373	10
702.018857	2
703.021471	1
704.973031	1
705.149884	1
709.264479	8
710.268356	2
715.103028	1
716.985435	3
719.214065	1
719.232285	1
721.112738	5
721.174937	1
721.248123	1
721.277400	37
722.119885	1
722.281225	10
722.993230	2
723.283472	1
723.993279	1
724.873712	1
725.235191	1
731.067023	1
731.246313	2
733.125354	15
734.127716	3
735.113306	1
735.128369	1
737.082890	1
737.249270	2
743.257536	4
744.261576	1
745.037072	1
745.136977	25
746.140978	6
747.147009	1
749.099331	2
750.099710	1
753.226149	2
754.226981	1
755.108267	2
756.985644	2
761.114415	3
762.115116	1
765.237061	6
766.241899	1
767.120248	3
768.128799	1
768.998308	6
770.002492	1
772.961909	1
777.148575	1
777.250914	13
778.254903	4
779.236181	1
779.252620	1
781.229065	1
783.097099	1
784.975997	2
787.224591	2
788.227069	1
789.101620	3
789.227273	1
789.264975	24
790.267156	6
790.981167	1
791.271248	2
792.863220	1
793.221865	1
795.281387	1
799.057442	1
799.232436	2
800.236560	1
801.109760	9
802.113133	2
803.105493	1
805.074166	1
805.238189	2
806.240680	1
811.246405	4
812.251394	1
813.126816	13
814.130913	4
815.136871	1
817.088195	1
818.090799	1
821.211961	1
823.091455	1
824.977409	1
825.976633	1
829.097971	2
830.109212	1
833.226761	5
834.231911	2
835.106640	1
835.211518	1
836.110627	1
836.988313	3
837.991113	1
845.237838	10
846.246203	1
847.242394	1
848.231011	1
851.080599	1
855.209487	1
857.088437	3
857.254384	12
858.255832	3
859.259035	1
861.213424	1
862.212252	1
865.339406	1
867.218081	1
869.098040	5
870.105771	1
873.227251	1
877.346681	1
879.235061	1
881.114720	8
882.113730	1
885.076203	1
886.076977	1
889.199705	1
889.365043	2
891.166711	1
892.958734	1
897.086744	2
901.212775	3
903.096728	1
904.976307	1
905.980119	1
913.225839	7
914.227744	3
915.236530	1
917.185642	1
920.949446	1
923.192361	1
925.071265	1
925.236075	8
925.400929	1
926.241838	3
926.401633	1
927.057228	1
927.243906	1
929.204764	1
930.211646	1
933.322932	1
935.211250	1
937.089046	3
938.092488	1
941.047054	1
941.210696	1
945.337633	2
946.343357	1
947.223994	1
947.383741	2
948.387215	1
949.099434	4
950.105635	1
953.067150	1
957.194064	1
957.350744	3
958.353283	1
959.065537	1
965.075417	1
969.200845	2
969.366184	4
970.204933	1
970.364818	2
981.214265	5
982.213820	2
985.174929	1
991.349721	1
993.227674	6
994.227878	2
997.184027	1
1002.320157	1
1005.077674	2
1005.975263	2
1009.202021	1
1013.327428	3
1014.327637	1
1015.213202	1
1017.085860	2
1018.091641	1
1019.098914	1
1021.050140	1
1025.174062	1
1025.341524	4
1026.347153	1
1037.191797	1
1037.355899	2
1038.360295	1
1049.197333	3
1050.206120	1
1053.163734	1
1059.338011	1
1061.216560	3
1062.223112	1
1065.179125	1
1069.296037	1
1071.181276	1
1077.180866	1
1081.313877	2
1085.078944	1
1093.330532	3
1094.335251	1
1095.142763	1
1105.173688	1
1105.340300	2
1105.965432	3
1106.340765	1
1109.301461	1
1117.189156	2
1125.432289	1
1129.200885	1
1130.205213	1
1131.210881	1
1133.161384	1
1145.168707	1
1149.301914	2
1161.313125	3
1162.323173	1
1165.271047	1
1165.992843	2
1166.986407	1
1173.331356	1
1174.341920	1
1181.421880	1
1185.182440	1
1193.427220	1
1196.298830	1
1205.964553	1
1217.279015	1
1217.455561	1
1218.459388	1
1229.298861	1
1230.309222	1
1241.315822	1
1261.411959	1
1265.986573	6
1266.982865	1
1273.268608	1
1273.423131	1
1274.436812	1
1297.285906	1
1305.944986	1
1330.402014	1
1365.984519	5
1366.986589	2
1465.979688	2
1466.987641	1
