Mass spectrum: L-Glutathione (oxidized form); LC-ESI-ITFT; MS; NEG
Name: Glutathione disulfide
Name: GSSG
Name: Oxiglutatione
Name: Oxidized glutathione
Name: L-Glutathione (oxidized form)
Class: Natural Product
Formula: C20H32N6O12S2
Exact mass: 612.15196
SMILES: OC(=O)CNC(=O)[C@H](CSSC[C@H](NC(=O)CC[C@H](N)C(O)=O)C(=O)NCC(O)=O)NC(=O)CC[C@H](N)C(O)=O
InChI: InChI=1S/C20H32N6O12S2/c21-9(19(35)36)1-3-13(27)25-11(17(33)23-5-15(29)30)7-39-40-8-12(18(34)24-6-16(31)32)26-14(28)4-2-10(22)20(37)38/h9-12H,1-8,21-22H2,(H,23,33)(H,24,34)(H,25,27)(H,26,28)(H,29,30)(H,31,32)(H,35,36)(H,37,38)/t9-,10-,11-,12-/m0/s1
Instrument: LTQ Orbitrap XL, Thermo Scientfic
Instrument type: LC-ESI-ITFT
Ms type: MS
Ion mode: NEGATIVE
Collision energy: 35eV
Ionization: ESI
Column name: TOSOH TSKgel ODS-100V  5um Part no. 21456
Retention time: 8.887355 min
Base peak: 611.144348
m/z	relative intensity
107.036402	1
127.051156	1
128.035468	13
129.038464	1
134.044809	1
134.047155	20
134.049501	1
135.050273	1
138.980092	1
141.066759	1
143.043235	1
143.046144	26
143.048730	1
144.049210	1
145.061542	2
146.045563	2
150.979901	5
153.066748	3
155.082164	3
160.006953	7
166.098024	1
167.045606	1
169.061569	2
171.077039	1
175.017982	1
177.033487	4
179.045981	3
181.061223	1
184.108595	2
185.056175	2
192.990400	2
196.061192	1
197.056138	5
198.087644	1
199.072070	1
203.049089	4
210.087874	6
211.000984	7
226.082744	1
228.098657	4
242.078035	2
254.077796	13
255.080819	1
260.087862	1
272.074356	1
272.081139	2
272.088771	94
272.093010	1
272.095554	2
272.103186	1
273.085292	1
273.091260	9
274.092442	1
280.859527	1
286.049932	1
288.065929	6
298.870761	1
304.052330	1
304.061345	38
304.069359	1
305.063527	4
305.796696	1
305.982676	1
306.041335	1
306.050439	1
306.058532	3
306.062578	1
306.067637	6
306.075730	317
306.084835	7
306.093941	2
306.097988	1
306.102035	1
306.106083	1
306.110130	1
306.122273	1
306.169838	1
307.072645	1
307.078745	29
307.083829	1
307.086879	1
308.071374	9
308.079547	2
308.083634	1
309.073957	1
338.048474	22
339.051184	2
340.044144	1
345.942547	1
346.022794	1
346.033739	2
346.038603	1
346.044684	4
346.054414	278
346.064144	6
346.071442	1
346.076307	2
346.086038	1
346.167552	1
347.052669	4
347.057555	28
347.068549	1
348.058929	2
378.896017	3
426.021226	1
444.022662	2
482.101522	2
504.939125	14
505.941716	1
513.952153	3
522.951000	3
529.945447	7
530.949493	1
531.961032	1
543.123515	7
544.126893	1
547.957442	2
550.945517	1
554.123179	4
555.127552	1
558.062450	1
593.133632	2
594.139243	1
610.355132	1
610.879665	2
610.919603	1
610.928161	1
610.942426	1
610.953838	1
610.965251	1
610.973810	1
610.993783	1
611.010904	1
611.019464	1
611.030879	1
611.045147	2
611.056562	1
611.070831	2
611.096517	5
611.105080	2
611.119351	13
611.145040	999
611.159312	7
611.167876	16
611.182149	3
611.193568	5
611.204987	2
611.216406	2
611.227826	1
611.239246	2
611.250667	1
611.262087	1
611.273509	1
611.284930	1
611.290641	1
611.302063	1
611.313485	1
611.319196	1
611.330619	1
611.342042	1
611.364889	1
611.376313	1
611.407731	2
611.936481	1
612.096671	1
612.122421	4
612.145312	248
612.171066	4
612.185374	1
612.196821	1
612.219716	1
612.408649	1
613.093545	1
613.116491	1
613.142306	90
613.165254	2
614.141737	14
615.132084	1
615.143614	2
633.126035	5
634.129487	1
665.063834	2
673.071117	1
693.090229	1
693.117809	84
693.145390	1
694.122139	15
695.125191	2
709.110211	13
710.113761	2
711.105112	1
711.205436	1
715.098572	1
852.004491	1
861.016708	1
877.011924	1
958.111246	1
958.156072	2
958.206506	196
958.251338	3
958.301779	1
959.159878	1
959.210391	65
959.255294	1
960.204611	11
961.206009	2
980.186168	1
1002.127240	1
1040.182171	2
1041.184329	1
1090.752151	2
1091.255967	2
1091.760133	1
1092.257828	1
1117.089212	3
1118.098612	1
1131.741798	1
1132.238292	1
1132.735113	1
1142.098623	1
1223.293830	13
1223.795159	1
1224.296796	7
1225.292892	3
1226.290205	1
1264.284947	2
1264.794690	2
1265.287735	2
1265.772560	1
1266.283203	1
1305.275208	4
1306.273647	2
1307.282162	1
1396.827575	1
1397.340600	1
1397.834160	1
1398.327981	1
1437.821805	1
1438.316357	2
1438.831787	1
1439.326861	1
