Mass spectrum: DOPA; LC-ESI-ITFT; MS2; m/z:346.06; NEG
Name: 3,4-Dihydroxy-L-phenylalanine
Name: L-Dopa
Name: 3-Hydroxy-L-tyrosine
Name: L-beta-(3,4-Dihydroxyphenyl)alanine
Name: Levodopa
Name: Dihydroxy-L-phenylalanine
Name: DOPA
Class: Natural Product
Formula: C9H11NO4
Exact mass: 197.06881
SMILES: OC(=O)C([H])(N)Cc(c1)cc(O)c(O)c1
InChI: InChI=1S/C9H11NO4/c10-6(9(13)14)3-5-1-2-7(11)8(12)4-5/h1-2,4,6,11-12H,3,10H2,(H,13,14)/t6-/m0/s1
Instrument: LTQ Orbitrap XL, Thermo Scientfic
Instrument type: LC-ESI-ITFT
Ms type: MS2
Ion mode: NEGATIVE
Collision energy: 35eV
Ionization: ESI
Column name: TOSOH TSKgel ODS-100V  5um Part no. 21456
Retention time: 5.488815 min
Base peak: 210.913879
Precursor m/z: 346.06
m/z	relative intensity
106.749626	1
133.984802	10
138.905518	11
151.039001	119
153.211884	1
163.279053	1
164.881714	2
175.103378	1
193.005707	68
210.913879	999
211.561844	4
213.861237	3
248.337067	1
328.126434	3
