Mass spectrum: L-(-)-Proline; LC-ESI-ITFT; MS; POS
Name: L-Proline
Name: 2-Pyrrolidinecarboxylic acid
Name: L-(-)-Proline
Class: Natural Product
Formula: C5H9NO2
Exact mass: 115.06333
SMILES: OC(=O)C([H])(C1)NCC1
InChI: InChI=1S/C5H9NO2/c7-5(8)4-2-1-3-6-4/h4,6H,1-3H2,(H,7,8)/t4-/m0/s1
Instrument: LTQ Orbitrap XL, Thermo Scientfic
Instrument type: LC-ESI-ITFT
Ms type: MS
Ion mode: POSITIVE
Collision energy: 35eV
Ionization: ESI
Column name: TOSOH TSKgel ODS-100V  5um Part no. 21456
Retention time: 5.186847 min
Base peak: 116.070313
m/z	relative intensity
104.070259	26
104.071262	1
104.072064	1
112.050382	2
115.708478	1
115.948413	1
116.005032	2
116.029580	1
116.048468	4
116.054608	1
116.056497	1
116.057914	1
116.059331	1
116.060040	1
116.060748	1
116.062401	2
116.063110	1
116.063818	2
116.064763	1
116.065472	2
116.066653	8
116.068306	20
116.070432	999
116.072085	20
116.073739	5
116.074211	5
116.074920	2
116.075865	1
116.076337	1
116.077282	2
116.077754	1
116.078463	1
116.079172	1
116.079644	1
116.081061	2
116.082479	1
116.083896	1
116.085786	1
116.092165	4
116.111069	1
116.135650	2
116.192407	1
116.200924	1
116.433849	1
117.066950	1
117.071496	1
117.073410	52
117.074607	2
117.075085	1
118.073934	2
118.074903	1
126.021212	1
138.052032	3
171.148702	1
219.133283	1
223.063237	1
227.113443	2
231.071815	1
231.110964	1
231.114946	1
231.122910	2
231.128220	6
231.133530	414
231.138839	6
231.142158	2
231.144150	1
231.146141	1
231.152779	1
231.194605	1
232.131011	1
232.136355	42
232.142368	1
233.136981	1
241.084374	15
253.115130	1
257.079090	1
286.211398	1
307.637802	1
346.195111	1
356.146608	1
365.168076	1
368.177224	2
391.282894	2
400.115090	1
461.257599	6
462.260299	1
471.209431	2
483.239766	1
485.216191	2
506.344923	7
507.349301	2
514.169166	1
515.177049	1
523.185108	1
576.320609	1
715.342750	1
744.294117	1
745.300018	1
