Mass spectrum: L-(-)-Proline; LC-ESI-ITFT; MS2; m/z:117.07; POS
Name: L-Proline
Name: 2-Pyrrolidinecarboxylic acid
Name: L-(-)-Proline
Class: Natural Product
Formula: C5H9NO2
Exact mass: 115.06333
SMILES: OC(=O)C([H])(C1)NCC1
InChI: InChI=1S/C5H9NO2/c7-5(8)4-2-1-3-6-4/h4,6H,1-3H2,(H,7,8)/t4-/m0/s1
Instrument: LTQ Orbitrap XL, Thermo Scientfic
Instrument type: LC-ESI-ITFT
Ms type: MS2
Ion mode: POSITIVE
Collision energy: 35eV
Ionization: ESI
Column name: TOSOH TSKgel ODS-100V  5um Part no. 21456
Retention time: 5.193468 min
Base peak: 70.953430
Precursor m/z: 117.07
m/z	relative intensity
69.944984	309
70.953430	999
71.906021	3
98.880295	3
107.012115	1
117.009872	1
