Mass spectrum: L-Glutamic acid; LC-ESI-ITFT; MS; NEG
Name: L-Glutamate
Name: L-Glutamic acid
Name: L-Glutaminic acid
Class: Natural Product
Formula: C5H9NO4
Exact mass: 147.05316
SMILES: OC(=O)CC[C@H](N)C(O)=O
InChI: InChI=1S/C5H9NO4/c6-3(5(9)10)1-2-4(7)8/h3H,1-2,6H2,(H,7,8)(H,9,10)/t3-/m0/s1
Instrument: LTQ Orbitrap XL, Thermo Scientfic
Instrument type: LC-ESI-ITFT
Ms type: MS
Ion mode: NEGATIVE
Collision energy: 35eV
Ionization: ESI
Column name: TOSOH TSKgel ODS-100V  5um Part no. 21456
Retention time: 4.872282 min
Base peak: 146.045410
m/z	relative intensity
100.040469	1
101.388215	1
102.038237	1
102.051091	1
102.052065	2
102.052649	4
102.053428	2
102.054402	7
102.055181	4
102.056155	173
102.057714	8
102.059272	2
102.063753	1
102.074078	1
102.553112	1
103.059440	4
103.628097	1
103.920096	2
104.496305	1
104.927907	1
104.987837	1
105.797115	1
105.841743	1
106.056847	1
107.885962	1
109.017289	1
109.707643	1
109.930508	1
110.566502	1
110.681690	1
111.035188	1
112.762708	1
112.866392	1
112.956610	1
112.983832	2
112.985648	26
112.987463	1
113.944235	1
114.354605	1
114.945568	1
114.951389	1
115.999568	1
117.152893	1
122.645735	1
123.503709	1
123.951717	1
125.593460	1
128.030422	1
128.032612	2
128.035075	51
128.036718	2
128.037265	2
129.038620	1
130.558735	1
131.004059	2
131.056199	5
131.064987	1
131.074059	1
131.074910	4
131.076327	2
131.078028	10
131.080013	31
131.080864	19
131.082281	836
131.084550	34
131.087102	9
131.089654	4
131.090505	1
131.091639	1
131.092490	2
131.093624	1
131.094475	1
131.095325	1
131.096460	1
131.097027	1
131.099296	1
131.100146	1
131.107237	1
131.108655	5
131.160858	2
132.079196	3
132.083211	2
132.084071	1
132.085505	34
132.087800	2
133.086366	1
134.156167	1
134.262211	1
136.747804	1
136.840603	1
137.501375	1
138.694061	1
139.006578	1
139.635100	1
139.891391	1
141.915610	1
144.371342	1
145.897474	1
145.924446	1
145.953092	2
145.986411	1
146.014741	6
146.024075	1
146.025076	1
146.026409	1
146.027743	1
146.029743	1
146.031744	2
146.033077	2
146.035744	1
146.037078	4
146.038412	2
146.040079	11
146.042747	34
146.043747	24
146.045414	999
146.048082	37
146.050083	8
146.051083	10
146.053751	5
146.055085	1
146.057419	2
146.058753	1
146.059754	2
146.060754	1
146.061755	1
146.062755	1
146.064423	1
146.069092	1
146.069759	1
146.074429	1
146.076097	6
146.078098	1
146.137824	2
147.042175	1
147.045880	1
147.048912	38
147.050597	1
147.051608	2
148.049515	5
148.952117	1
151.101792	1
152.534169	1
152.741525	1
153.416747	1
155.975042	1
157.061593	4
159.450331	1
159.684534	1
163.393308	1
164.561223	1
168.027466	9
170.003475	2
170.032794	1
171.969375	1
172.134381	1
173.014141	1
173.050693	1
173.968272	1
174.048500	2
174.068891	1
174.070193	1
174.077570	2
174.079305	1
174.081475	4
174.084947	14
174.086249	9
174.088418	444
174.091890	15
174.094494	3
174.095796	4
174.099268	2
174.110987	1
174.128350	2
174.208689	1
175.084722	3
175.087786	1
175.091288	20
175.208656	1
178.976524	1
178.995525	1
179.977733	4
183.391647	1
184.530072	1
187.017126	2
187.030173	1
187.829114	1
188.014062	3
190.009730	3
193.009376	1
193.346202	1
194.665923	1
195.157414	1
196.288282	1
199.964685	1
200.972303	1
201.177005	1
205.425468	1
205.977282	1
206.976727	1
207.972131	9
208.156980	1
208.972450	1
209.110066	1
209.778944	1
210.064535	17
210.069137	1
210.980387	1
211.019763	2
212.061429	4
212.972768	1
214.354685	1
214.988146	1
215.239095	1
216.008979	3
216.684740	1
223.810032	1
224.960700	1
225.903929	1
225.982852	3
227.983117	1
228.007182	1
232.046117	2
234.686313	1
236.014435	1
237.083274	11
238.079555	1
245.009428	1
245.045660	1
245.970117	1
247.980072	1
248.650595	1
256.014252	1
256.985962	1
258.977546	2
260.037479	1
263.336525	1
264.663169	1
265.994127	1
267.970510	1
270.660887	1
272.020447	1
272.048421	1
272.050964	1
272.055203	44
272.064529	4
272.100989	1
273.058359	2
273.924832	1
274.012220	1
274.050787	1
274.060215	1
274.879796	1
280.255263	1
281.036041	1
282.732223	1
285.016579	1
285.091139	1
285.949772	1
286.972954	1
287.129157	1
287.929626	1
288.080144	3
289.526676	1
290.822898	1
293.090522	1
293.098106	33
294.036055	2
294.101795	3
297.124635	1
299.045942	1
302.019549	2
302.092944	8
304.433697	1
305.833446	1
307.316142	1
308.120795	1
310.061192	1
310.995784	1
311.167860	1
313.108894	2
313.979512	1
314.043641	3
314.976243	1
315.068146	1
315.079769	11
317.056512	40
317.065045	1
317.090647	1
317.977937	1
318.059369	4
319.060530	1
319.977734	1
321.041219	1
321.111871	1
321.123830	3
321.131441	10
321.141226	415
321.149925	11
321.155362	2
321.158624	3
321.168410	2
321.241280	2
322.138414	5
322.143876	42
322.152615	1
323.144644	4
323.149034	1
325.974849	1
326.083845	1
327.997925	1
328.072009	11
329.077992	1
330.052354	1
330.062550	21
330.135069	1
331.044706	7
331.053810	1
331.065191	2
332.054115	2
332.158169	1
333.179573	1
335.102085	1
337.014399	2
337.626563	1
339.088186	1
340.023257	3
342.061561	2
343.070185	7
343.111007	5
343.123015	63
343.132622	2
344.126692	5
345.098440	22
345.127511	2
346.009853	18
346.054849	1
346.102288	1
347.017683	5
348.031149	2
348.842168	1
349.018262	1
349.061383	1
349.070008	2
349.151345	2
349.153810	2
349.163671	5
349.172300	16
349.183395	769
349.193257	19
349.200654	4
349.203120	5
349.214216	2
349.243808	1
349.296837	3
349.525123	1
350.170466	1
350.175418	1
350.180370	11
350.186560	88
350.196465	2
351.077202	2
351.186595	5
351.191568	1
352.077312	1
352.563336	1
354.992191	1
355.025048	4
356.114447	2
357.345386	1
358.032997	2
358.104684	2
359.087423	9
359.096423	3
360.096160	4
363.108783	2
365.056535	3
365.105298	10
366.340793	1
368.105066	2
369.048905	4
369.111868	1
371.086577	1
371.144658	1
371.164922	53
371.175731	1
372.168035	7
372.654128	1
373.064924	3
373.141173	5
374.052518	11
374.062086	2
375.049528	1
375.059134	52
375.070112	1
376.062929	6
377.055543	1
377.061076	3
377.397445	1
381.072586	3
382.071003	5
382.231905	1
383.053519	3
383.067683	49
383.079015	1
383.571035	1
384.071112	4
385.051365	3
385.064213	2
386.075503	5
387.049057	1
387.138268	3
391.070908	1
391.104516	2
391.237529	1
391.998905	1
393.148089	3
394.083494	4
398.100198	1
400.171695	1
401.106491	1
402.094833	2
403.102122	24
404.021127	1
404.105526	1
405.023347	1
406.023118	1
407.629225	1
408.027569	1
409.115087	1
410.114365	1
411.096834	2
411.111008	12
412.112869	1
412.823483	1
413.094601	2
413.107292	1
415.092586	1
415.124544	1
415.786897	1
419.146878	2
421.983804	1
426.966939	1
439.078191	1
442.264271	1
447.150787	2
447.159719	1
448.099093	1
449.107955	1
454.436095	1
457.116405	1
461.046859	1
463.135618	1
464.110700	1
468.480382	1
471.065809	1
471.108308	2
475.062506	1
476.061777	1
477.062237	1
492.152158	6
500.062075	2
501.069237	2
504.879751	1
505.501882	1
506.140223	3
512.156828	1
513.803139	1
514.133354	2
518.218941	5
518.227857	1
519.221123	1
520.194832	43
521.106100	3
521.198258	6
522.202335	1
522.342145	1
524.278176	6
533.199361	1
534.184680	8
540.201800	2
543.085924	1
546.248794	4
546.260854	10
547.152020	3
547.263266	1
548.236911	3
549.125625	1
549.147506	45
549.166956	1
549.239906	2
550.150564	5
550.157877	3
551.232164	1
558.162777	4
561.172035	1
561.247390	1
562.225864	7
563.108428	1
563.229627	1
568.242925	6
569.247456	1
572.137438	2
576.202761	5
577.189182	7
578.175512	1
578.199152	71
578.220166	2
579.201240	12
580.129371	1
580.145211	1
580.198015	2
584.210956	3
585.209997	4
586.192834	5
586.206241	48
587.210407	8
587.342160	1
588.187509	3
588.200984	2
588.211765	1
590.186964	2
594.241214	1
596.164375	1
596.497277	1
603.060401	1
622.247182	1
639.388085	1
640.381971	1
644.223202	1
654.258580	1
661.196363	1
667.247526	2
671.333379	2
678.972908	1
689.232408	1
690.636178	1
693.122078	1
693.311734	2
694.316485	1
695.292247	4
696.200650	1
696.294365	1
699.373153	4
700.377106	1
703.225775	1
709.278754	2
717.272067	1
721.357922	2
723.331250	9
723.949115	1
724.243615	5
724.335684	2
724.733620	1
725.246261	1
725.334830	1
726.543196	1
728.879770	1
729.173564	1
730.839269	1
737.321134	1
743.835952	1
745.359913	1
746.225699	1
748.356162	1
748.855357	1
750.289931	1
752.285778	16
753.288642	4
758.881880	1
761.300904	1
765.797285	1
770.454815	1
779.170431	1
779.820079	1
783.283443	1
787.174517	1
790.342712	2
797.340434	2
804.319443	1
804.362542	1
805.816986	1
808.451025	1
816.510438	1
818.387075	5
818.887128	1
819.387640	2
832.404892	3
832.908767	1
833.408554	1
839.523970	1
840.365613	1
841.088688	1
846.390402	1
846.427621	11
846.930313	1
847.428794	4
854.661641	1
860.449943	3
860.946090	1
863.874436	1
864.368747	1
867.869817	1
868.411074	1
874.432670	1
874.471754	14
875.474167	4
877.887001	1
878.354043	1
878.393390	1
882.906232	1
889.380076	1
891.916086	2
892.419553	1
892.913364	1
905.372484	1
905.928601	1
905.974967	3
906.438824	2
906.933998	1
918.367564	1
919.957560	2
920.458578	1
921.456559	1
924.863986	1
933.975103	2
937.392621	1
938.309661	1
938.401982	1
947.995560	2
948.497584	2
963.129860	1
964.203713	1
965.438031	3
966.441952	1
967.441754	1
972.435466	1
979.457129	2
979.868443	1
979.961170	2
980.465600	1
993.476104	8
993.979166	2
994.423361	1
994.482609	3
1005.914985	1
1005.969235	11
1006.970641	1
1007.508155	2
1008.003774	3
1014.816081	1
1021.524944	8
1022.018596	1
1022.524962	3
1023.408915	1
1023.526450	1
1024.963244	1
1027.360484	1
1038.967429	1
1043.506112	1
1049.563412	7
1050.566294	2
1051.570614	1
1052.492505	1
1052.989411	2
1053.486669	2
1067.007386	1
1067.508018	2
1075.433008	1
1078.497903	1
1079.488942	1
1081.031784	1
1081.528879	1
1084.862882	1
1095.053756	2
1095.553705	1
1096.053996	1
1105.965432	7
1106.966746	2
1109.566761	1
1121.363208	1
1126.510165	2
1127.010368	1
1131.534416	1
1136.310067	1
1140.533619	5
1141.538533	2
1155.050449	1
1165.992843	7
1166.993939	1
1168.577245	7
1169.083073	1
1169.574115	3
1178.733606	1
1182.596571	1
1183.057712	1
1183.103841	1
1183.542201	1
1183.596052	1
1186.007698	1
1189.139152	1
1191.559997	1
1192.843242	1
1196.619407	5
1197.628890	2
1198.051844	1
1198.623972	1
1200.539265	1
1205.489955	1
1205.956640	3
1214.051810	1
1218.596005	1
1224.662336	4
1225.658878	2
1225.999439	1
1228.078313	1
1228.590722	1
1228.883671	1
1233.969956	2
1234.977882	1
1242.605814	1
1257.603248	1
1262.546929	1
1263.632509	1
1265.978062	17
1266.982865	5
1267.980333	1
1269.038766	1
1270.646015	1
1271.005499	1
1274.505580	1
1282.963258	1
1287.585880	1
1295.927486	1
1306.953119	1
1315.628187	2
1316.620477	1
1317.604855	1
1317.631964	1
1327.619311	1
1330.182009	1
1333.975554	3
1341.527939	1
1343.665640	2
1344.680509	1
1347.096605	1
1353.951012	1
1365.974981	9
1366.977040	3
1367.024785	1
1367.980202	1
1371.706317	1
1382.966749	2
1389.548920	1
1392.675968	1
1404.872387	1
1407.592262	1
1417.693520	1
1418.641983	1
1428.576954	1
1433.968261	3
1448.668805	1
1453.671605	1
1456.597506	1
1463.691784	1
1465.969084	5
1466.945180	1
1466.987641	1
1487.540417	1
1487.605455	1
1490.841068	1
1491.722371	1
