Mass spectrum: Taurine; LC-ESI-ITFT; MS2; m/z:124.01; NEG
Name: Taurine
Name: 2-Aminoethanesulfonic acid
Name: Aminoethylsulfonic acid
Class: Natural Product
Formula: C2H7NO3S
Exact mass: 125.01466
SMILES: NCCS(O)(=O)=O
InChI: InChI=1S/C2H7NO3S/c3-1-2-7(4,5)6/h1-3H2,(H,4,5,6)
Instrument: LTQ Orbitrap XL, Thermo Scientfic
Instrument type: LC-ESI-ITFT
Ms type: MS2
Ion mode: NEGATIVE
Collision energy: 35eV
Ionization: ESI
Column name: TOSOH TSKgel ODS-100V  5um Part no. 21456
Retention time: 4.800575 min
Base peak: 79.830673
Precursor m/z: 124.01
m/z	relative intensity
64.946632	38
79.830673	999
80.940414	38
106.929825	410
