Mass spectrum: AMP; LC-ESI-ITFT; MS2; m/z:693.12; NEG
Name: AMP
Name: Adenosine 5'-monophosphate
Name: Adenylic acid
Name: Adenylate
Name: 5'-AMP
Name: 5'-Adenylic acid
Name: 5'-Adenosine monophosphate
Name: Adenosine 5'-phosphate
Class: Natural Product
Formula: C10H14N5O7P
Exact mass: 347.06308
SMILES: Nc(n3)c(n2)c(nc3)n(c2)[C@H](O1)[C@H](O)[C@H](O)[C@@H](COP(O)(O)=O)1
InChI: InChI=1S/C10H14N5O7P/c11-8-5-9(13-2-12-8)15(3-14-5)10-7(17)6(16)4(22-10)1-21-23(18,19)20/h2-4,6-7,10,16-17H,1H2,(H2,11,12,13)(H2,18,19,20)/t4-,6-,7-,10-/m1/s1
Instrument: LTQ Orbitrap XL, Thermo Scientfic
Instrument type: LC-ESI-ITFT
Ms type: MS2
Ion mode: NEGATIVE
Collision energy: 35eV
Ionization: ESI
Column name: TOSOH TSKgel ODS-100V  5um Part no. 21456
Retention time: 8.873057 min
Base peak: 346.090698
Precursor m/z: 693.12
m/z	relative intensity
211.126251	5
328.196045	5
346.090698	999
426.071289	83
