Mass spectrum: alpha-D-Glucose 6-phosphate; LC-ESI-ITFT; MS2; m/z:519.05; NEG
Name: alpha-D-Glucose 6-phosphate
Class: Natural Product
Formula: C6H13O9P
Exact mass: 260.02972
SMILES: O[C@@H](O1)[C@H](O)[C@@H](O)[C@H](O)[C@H]1COP(O)(O)=O
InChI: InChI=1S/C6H13O9P/c7-3-2(1-14-16(11,12)13)15-6(10)5(9)4(3)8/h2-10H,1H2,(H2,11,12,13)/t2-,3-,4+,5-,6+/m1/s1
Instrument: LTQ Orbitrap XL, Thermo Scientfic
Instrument type: LC-ESI-ITFT
Ms type: MS2
Ion mode: NEGATIVE
Collision energy: 35eV
Ionization: ESI
Column name: TOSOH TSKgel ODS-100V  5um Part no. 21456
Retention time: 6.751218 min
Base peak: 259.052063
Precursor m/z: 519.05
m/z	relative intensity
169.043518	8
198.972992	14
223.079773	1
241.028702	3
259.052063	999
339.152588	49
501.274170	1
