Mass spectrum: L-Methionine; LC-ESI-ITFT; MS; POS
Name: L-Methionine
Name: Methionine
Name: L-2-Amino-4methylthiobutyric acid
Class: Natural Product
Formula: C5H11NO2S
Exact mass: 149.05105
SMILES: N[C@@H](CCSC)C(O)=O
InChI: InChI=1S/C5H11NO2S/c1-9-3-2-4(6)5(7)8/h4H,2-3,6H2,1H3,(H,7,8)/t4-/m0/s1
Instrument: LTQ Orbitrap XL, Thermo Scientfic
Instrument type: LC-ESI-ITFT
Ms type: MS
Ion mode: POSITIVE
Collision energy: 35eV
Ionization: ESI
Column name: TOSOH TSKgel ODS-100V  5um Part no. 21456
Retention time: 5.495462 min
Base peak: 138.091385
m/z	relative intensity
100.112037	1
102.054971	1
103.054238	2
104.052815	18
120.995404	1
121.022308	1
121.041673	2
121.052993	1
121.055509	1
121.056012	1
121.057522	1
121.058528	2
121.059283	1
121.060541	3
121.062805	6
121.064818	503
121.067334	6
121.069095	3
121.070857	1
121.072115	1
121.073121	1
121.076644	1
121.077651	1
121.087969	2
121.107351	1
121.134291	1
122.066093	1
122.068131	41
123.071330	1
133.027025	1
133.031952	50
133.071956	2
134.035448	1
135.027815	1
137.621963	1
137.935988	1
138.006699	2
138.039472	1
138.063369	4
138.067046	1
138.070111	1
138.072869	1
138.073788	1
138.074401	1
138.075320	1
138.076240	1
138.076852	1
138.078691	1
138.079917	1
138.080837	1
138.081756	1
138.083901	3
138.086047	6
138.088805	12
138.091257	999
138.094322	11
138.096775	5
138.098614	3
138.100453	2
138.101679	1
138.102292	1
138.102905	1
138.104745	1
138.105971	1
138.107197	1
138.109650	1
138.112716	1
138.116088	1
138.119767	4
138.143379	1
138.176200	2
138.247096	1
138.260914	1
138.562956	1
139.088494	1
139.091903	1
139.094381	83
139.097480	1
140.095007	1
140.097513	2
141.958490	1
149.023935	1
149.526546	1
149.882211	1
149.962306	1
149.999776	1
150.026498	4
150.037259	1
150.039342	1
150.040036	1
150.041424	1
150.043855	1
150.044896	1
150.046285	1
150.047326	1
150.049756	2
150.050798	1
150.052187	5
150.055311	9
150.058436	861
150.061561	10
150.064339	4
150.066422	2
150.068506	1
150.069895	1
150.073367	1
150.074756	1
150.076145	1
150.078923	1
150.082396	1
150.090384	4
150.117131	1
150.154311	1
150.234624	1
150.592820	1
151.054992	1
151.057797	2
151.061304	42
152.054070	33
152.061862	1
153.057013	1
158.002552	1
163.132671	1
171.149125	18
172.152025	1
172.976690	2
174.127584	7
179.063200	1
182.984796	2
187.126060	2
194.117473	4
199.180373	2
203.222581	2
270.154858	1
279.157671	1
282.180892	2
288.179628	1
300.216512	1
308.232851	3
370.256959	1
391.282894	11
392.286254	2
406.144635	1
414.282608	1
418.110768	1
528.367912	40
529.371839	9
530.371708	1
540.333548	3
541.336099	1
