Mass spectrum: NAD+; LC-ESI-ITFT; MS; NEG
Name: NAD+
Name: NAD
Name: Nicotinamide adenine dinucleotide
Name: DPN
Name: Diphosphopyridine nucleotide
Name: Nadide
Class: Natural Product
Formula: [C21H28N7O14P2]+
Exact mass: 664.11695
SMILES: NC(=O)c(c5)c[n+1](cc5)C(O1)C(O)C(O)C(COP(O)(=O)OP(O)(=O)OCC(O2)C(O)C(O)C2n(c4)c(n3)c(n4)c(N)nc3)1
InChI: InChI=1S/C21H27N7O14P2/c22-17-12-19(25-7-24-17)28(8-26-12)21-16(32)14(30)11(41-21)6-39-44(36,37)42-43(34,35)38-5-10-13(29)15(31)20(40-10)27-3-1-2-9(4-27)18(23)33/h1-4,7-8,10-11,13-16,20-21,29-32H,5-6H2,(H5-,22,23,24,25,33,34,35,36,37)/p+1/t10-,11-,13-,14-,15-,16-,20-,21-/m1/s1
Instrument: LTQ Orbitrap XL, Thermo Scientfic
Instrument type: LC-ESI-ITFT
Ms type: MS
Ion mode: NEGATIVE
Collision energy: 35eV
Ionization: ESI
Column name: TOSOH TSKgel ODS-100V  5um Part no. 21456
Retention time: 8.857197 min
Base peak: 540.054077
m/z	relative intensity
103.003918	1
134.047318	13
138.979953	1
144.491696	1
148.952461	1
150.980097	2
158.922509	2
158.925538	47
158.927809	1
174.980159	16
176.935850	4
192.990633	8
206.082322	1
211.001231	13
214.012975	2
229.011556	1
230.946128	1
254.946492	9
272.942458	1
272.945866	1
272.950126	3
272.956942	111
272.962906	2
272.964610	2
272.971426	1
272.979095	1
273.959953	4
274.960751	1
280.859882	1
290.967251	19
290.971940	1
291.970373	1
304.033673	1
310.034374	3
322.044492	1
328.036086	1
328.045066	54
328.050679	1
328.052924	1
328.055170	1
329.041904	1
329.048670	5
334.912097	1
346.046336	1
346.056066	58
346.063363	1
346.065796	1
347.053104	1
347.059211	6
348.059364	1
352.922565	3
370.934011	1
384.000019	2
386.988642	1
390.000649	3
394.891742	1
401.998880	1
402.011062	51
402.021723	1
402.024768	1
403.013451	4
404.014990	1
404.998708	1
407.867228	1
407.969960	1
407.983972	1
407.990200	1
407.999542	3
408.011998	189
408.021341	3
408.024455	3
408.036912	1
408.050928	1
408.153729	1
409.015048	20
410.015527	2
426.008457	2
426.021747	74
426.033376	1
426.036699	1
427.025284	7
428.025679	1
442.076309	1
448.004127	1
466.955343	2
469.966704	3
484.966729	16
485.969091	1
487.977049	9
488.980591	1
498.044238	1
505.989664	16
506.993227	1
513.952797	1
522.044552	7
523.046557	1
529.948406	18
530.952460	2
535.002023	1
539.398552	1
539.836681	3
539.872228	1
539.905409	1
539.912519	1
539.919630	1
539.940963	1
539.952815	1
539.957556	1
539.967038	1
539.974150	1
539.981262	1
539.990745	3
539.997857	3
540.014453	6
540.021565	3
540.035791	18
540.054760	999
540.068987	15
540.076101	15
540.092700	6
540.114043	3
540.123529	1
540.133016	1
540.137759	1
540.147246	1
540.166221	1
540.170964	1
540.185196	1
540.199428	1
540.232639	1
540.242129	1
540.270598	3
540.555418	1
540.709790	1
540.838088	1
540.992580	1
541.016354	1
541.023487	1
541.037752	3
541.056774	183
541.073418	2
541.078174	2
541.090064	1
541.094820	1
541.101954	1
542.040120	1
542.059195	34
542.073501	1
543.059622	3
547.955692	8
548.960345	1
558.020794	1
558.030756	1
558.043209	2
558.063134	114
558.080570	2
558.085551	2
558.105479	1
558.898464	2
559.068252	16
560.068576	3
562.034496	3
563.037746	1
564.010786	1
572.080560	3
574.984357	1
575.484817	1
575.951981	3
576.074738	1
580.036986	1
586.058787	1
592.965181	1
593.973097	1
602.009741	15
603.012838	2
609.914533	1
619.214329	1
619.750325	2
619.794051	1
619.846529	1
619.901929	1
619.910677	1
619.922341	1
619.942754	2
619.951503	2
619.960252	1
619.969002	5
619.980668	2
619.998167	13
620.021501	764
620.039003	11
620.047754	10
620.068173	4
620.094428	2
620.106098	1
620.135273	1
620.158615	1
620.199466	1
620.287018	2
620.827331	1
620.973482	1
620.999795	2
621.023186	134
621.043653	2
621.049502	2
621.069971	1
622.024369	28
623.027974	2
638.021838	1
641.062205	1
642.001603	3
643.979219	2
644.065678	4
661.803879	1
662.016225	1
662.045189	2
662.058062	1
662.077374	4
662.103123	242
662.122436	3
662.132093	3
662.144969	1
662.154626	1
662.164284	1
662.183599	1
662.396128	1
663.079487	1
663.105295	52
663.124652	1
663.134331	1
664.106511	7
665.109996	1
673.937112	1
702.085631	1
716.021584	1
723.945435	1
730.089555	2
741.015389	1
741.717116	1
741.965247	1
741.976702	1
741.988157	1
742.003432	3
742.037801	6
742.068353	543
742.091268	6
742.102727	7
742.129463	3
742.140922	2
742.163841	2
742.179121	1
742.217322	1
742.419840	1
743.004930	1
743.039369	2
743.050849	1
743.069983	132
743.096772	1
743.104426	2
743.123562	1
744.073643	24
745.075495	3
760.068174	1
760.084010	1
764.050621	3
766.113682	5
767.116234	1
841.992690	1
883.208655	1
963.175039	1
993.653612	2
994.162730	1
994.660386	1
1005.975263	1
1009.171736	1
1033.641604	1
1034.137784	1
1034.653184	1
1065.120015	2
1073.629581	2
1074.121579	1
1074.620571	1
1074.633882	1
1081.112370	4
1082.113741	1
1089.135292	1
1113.613870	1
1114.105507	1
1161.081374	3
1162.091120	1
1193.053424	3
1194.066194	1
1203.160586	6
1204.162570	2
1205.165808	1
1221.171901	1
1241.051456	1
1242.043263	1
1265.978062	1
1273.019714	1
1283.136917	4
1284.127444	2
1285.136527	1
1325.209829	16
1326.222107	8
1327.217274	3
1328.231853	1
1347.190021	1
1348.190181	1
1363.099003	1
1365.212247	1
1365.707952	1
1365.984519	1
1366.194385	1
1405.180840	15
1405.678560	1
1406.186506	8
1407.183278	3
1408.181111	1
1427.160025	1
1428.158791	1
1445.143791	1
1445.174930	1
1445.673281	1
1485.147806	4
1486.153947	2
1487.161111	1
