Mass spectrum: Citric acid; LC-ESI-ITFT; MS; NEG
Name: Citrate
Name: Citric acid
Name: 2-Hydroxy-1,2,3-propanetricarboxylic acid
Name: 2-Hydroxytricarballylic acid
Class: Natural Product
Formula: C6H8O7
Exact mass: 192.02700
SMILES: OC(=O)CC(O)(CC(O)=O)C(O)=O
InChI: InChI=1S/C6H8O7/c7-3(8)1-6(13,5(11)12)2-4(9)10/h13H,1-2H2,(H,7,8)(H,9,10)(H,11,12)
Instrument: LTQ Orbitrap XL, Thermo Scientfic
Instrument type: LC-ESI-ITFT
Ms type: MS
Ion mode: NEGATIVE
Collision energy: 35eV
Ionization: ESI
Column name: TOSOH TSKgel ODS-100V  5um Part no. 21456
Retention time: 9.046435 min
Base peak: 191.019226
m/z	relative intensity
100.189414	1
100.280420	1
101.025424	1
101.735514	1
102.493294	1
102.983775	1
103.174380	1
103.880478	1
103.920096	2
104.147235	1
104.516288	1
104.779623	1
104.928110	2
106.136750	1
107.036325	2
107.337816	1
107.513466	1
107.685748	1
108.017768	1
109.023740	1
110.726142	1
110.869586	1
111.007120	2
111.008667	82
111.009993	2
111.010656	2
112.012000	4
112.545164	1
112.891769	1
112.944363	1
112.956156	1
112.985421	2
113.024685	1
113.135779	1
114.050474	1
114.949759	1
114.951622	14
115.938929	1
118.384076	1
118.564121	1
120.921466	1
121.564889	1
122.125189	1
122.488838	1
124.647375	1
124.749188	1
125.016546	1
126.667978	1
126.851598	1
126.904520	1
129.018959	6
129.361579	1
130.060174	1
130.460989	1
134.044386	1
134.047025	24
134.048491	2
135.161995	1
137.940472	1
138.601221	1
138.951169	1
138.979643	1
138.980262	1
139.130516	1
140.966957	2
142.890974	1
142.943267	4
142.965871	2
143.402868	1
144.729567	1
145.966751	1
147.029374	1
148.499446	1
148.952117	5
149.125371	1
150.435853	1
150.567711	1
150.979747	5
151.639073	1
152.115049	1
152.462654	1
154.105853	1
154.588051	1
154.692323	1
154.982441	2
154.998116	2
156.894379	2
156.959003	6
158.924781	2
158.938030	3
159.893658	1
160.390632	1
160.892241	1
161.364833	1
161.961329	1
163.784659	1
164.696112	1
164.966788	3
165.966883	1
166.945939	4
170.960646	3
170.970782	1
172.953533	2
173.001673	1
173.008552	7
173.640131	1
174.727234	1
174.918078	1
175.321757	1
176.903839	1
177.795827	1
179.116389	1
180.961608	4
180.998407	1
181.763140	1
182.417236	1
182.977097	1
183.430129	1
184.390915	2
184.976528	2
186.933078	1
188.998373	1
190.611895	1
190.881162	2
190.927508	1
190.973371	5
190.976862	1
190.978358	1
190.979355	1
190.988829	1
191.001795	2
191.005286	2
191.006783	4
191.010773	10
191.015261	27
191.019252	999
191.023242	24
191.027731	11
191.031223	3
191.032720	3
191.036212	2
191.037708	2
191.046688	1
191.048684	1
191.059660	1
191.065149	5
191.157491	2
192.018238	1
192.022260	45
192.026282	1
192.990127	1
192.991646	1
193.023055	8
193.026095	1
195.225939	1
197.905231	1
198.791353	1
199.940646	2
200.948621	3
202.578941	1
202.956978	1
206.020853	1
206.729414	1
206.977290	2
207.182222	1
208.956471	4
209.299866	1
209.986328	1
211.000652	8
211.172160	1
212.971007	2
216.018576	2
217.015354	12
218.609586	1
218.930540	1
218.987468	1
222.455514	1
222.616704	1
226.948025	1
228.031251	1
228.943475	12
229.449568	1
229.939555	1
229.944166	1
229.946142	1
232.987266	2
233.227317	1
234.971861	2
235.281111	1
236.610167	1
237.716986	1
242.899460	1
244.938436	2
248.937523	1
249.184070	1
250.941221	1
250.950985	1
251.949888	1
252.945646	10
254.942647	1
257.870089	1
257.982785	3
260.616779	1
260.654938	1
265.579886	1
272.991877	1
274.066216	1
274.195700	1
274.928020	1
275.425637	1
278.962059	2
282.672055	1
282.707974	1
283.961337	3
286.963770	1
288.321404	1
291.407536	1
291.797019	1
293.996051	9
294.984257	1
294.992872	46
295.995734	3
296.996949	1
302.992711	2
303.046526	1
303.633438	1
309.486410	1
312.343030	1
312.515183	1
315.610880	1
315.697763	1
315.898154	2
316.981862	2
320.761012	1
321.956068	2
322.951574	10
323.955009	1
324.947634	1
327.950793	1
328.043944	1
332.569145	1
332.953335	9
339.076389	1
342.001807	1
342.292361	1
346.029310	1
346.032958	1
346.045120	5
346.054849	241
346.064579	4
346.075526	2
347.040889	1
347.051882	2
347.057990	26
348.058138	3
354.935333	2
359.840676	1
359.902586	1
368.446889	1
372.969646	1
374.513551	1
378.608211	1
379.007984	1
381.951099	1
382.876528	1
383.045020	26
383.998597	1
384.048360	3
386.009583	1
389.073935	1
391.031461	3
391.968114	1
392.939039	1
393.785101	1
402.009540	11
403.013451	2
403.187763	1
404.869391	1
405.027967	46
406.030847	6
406.990915	3
407.003325	5
408.010441	2
408.950980	1
414.041642	1
416.653220	1
420.993080	5
421.001240	1
424.967119	2
425.965268	2
425.991845	2
426.021747	7
426.961938	26
427.010280	17
427.967128	3
428.012295	1
428.959086	1
428.984265	1
431.777700	1
431.947259	1
431.962524	1
433.962446	1
434.968477	1
435.957372	10
436.965174	20
437.967816	2
442.975040	2
445.488709	1
445.979418	2
446.948990	2
447.946803	2
447.957551	2
448.944367	16
448.991097	5
449.948873	2
450.940473	2
453.988014	1
457.007483	1
457.939194	2
458.509976	1
458.946194	10
459.949064	1
461.514800	1
470.926762	1
474.911909	1
479.874006	1
480.882526	2
480.928353	4
485.414983	1
487.989268	6
490.886004	1
498.044238	1
502.862541	1
502.909414	1
504.789744	1
504.937625	1
511.859144	1
512.864868	1
521.056659	1
529.923053	1
529.946101	2
534.056411	1
538.080287	5
539.083902	2
539.746643	1
548.647005	1
550.977958	1
559.910847	1
560.063567	26
561.066564	4
562.039531	1
563.045319	1
564.015847	1
571.421915	1
576.027720	1
576.038168	1
581.997644	6
582.045395	4
583.001649	1
583.046864	1
590.992317	3
592.000647	6
593.003375	2
597.053654	2
597.254912	1
600.341614	4
601.337757	14
602.341967	5
605.763896	1
613.981487	2
614.985852	1
616.018680	1
618.080545	1
619.036787	5
620.018584	7
621.011490	1
621.020262	1
628.990647	2
638.027928	2
640.970219	2
641.016210	2
641.212493	1
649.967205	1
650.083056	1
650.973319	3
652.535685	1
658.857712	1
662.950471	3
671.948341	1
672.956466	2
677.188163	1
682.910780	1
683.214333	1
693.118631	6
693.877717	1
693.929519	1
694.939075	2
706.914974	1
715.099415	1
724.214157	1
742.068353	6
743.069983	2
752.090901	4
753.097280	1
766.105670	3
768.056406	2
774.022689	2
774.071513	5
780.816686	1
785.030017	1
788.327422	1
791.628813	1
796.006449	1
796.053125	1
806.007174	2
808.116724	4
811.067451	1
827.989539	1
833.045028	1
836.457879	1
843.004500	1
844.217373	1
855.025239	1
862.030518	1
864.983628	3
879.722898	1
886.909757	1
886.964652	1
889.575541	1
897.650485	1
898.896663	1
904.112821	1
905.974967	2
908.898049	1
913.643099	1
917.994355	1
918.404372	1
932.692969	1
937.338400	1
942.887759	1
966.095791	2
977.779798	1
986.560973	1
998.035318	1
1005.896902	1
1005.969235	11
1006.976678	2
1020.021509	1
1035.981170	1
1045.470407	1
1057.009817	1
1063.938852	1
1064.903322	1
1078.986556	1
1088.510804	1
1088.544730	1
1088.836557	1
1090.937098	1
1094.704680	1
1105.965432	15
1106.340765	1
1106.966746	2
1113.880719	1
1115.209364	1
1145.996495	1
1155.955800	1
1165.985321	9
1166.775545	1
1166.986407	2
1182.973150	1
1183.065400	1
1189.774685	1
1198.906268	1
1205.956640	8
1206.954199	2
1207.437589	1
1215.475642	1
1218.226390	1
1242.812731	1
1244.893040	1
1250.739089	1
1255.953397	3
1256.744247	1
1259.560339	1
1261.022696	1
1265.978062	27
1266.395166	1
1266.420709	1
1266.982865	6
1271.502180	1
1273.182774	1
1278.719611	1
1282.971940	3
1283.970969	1
1292.461746	1
1298.098449	1
1302.945346	1
1305.953902	2
1313.853886	1
1319.658436	1
1331.916027	1
1339.247169	1
1355.939238	2
1356.949159	1
1357.941301	1
1363.878999	1
1365.974981	19
1366.977040	3
1367.970643	1
1371.245717	1
1373.387557	1
1373.955072	1
1382.957032	2
1383.968112	1
1398.694938	1
1420.329366	1
1431.969824	1
1438.513571	1
1455.936047	1
1456.944164	1
1457.942812	1
1465.969084	9
1466.966411	4
1471.680307	1
1482.955151	1
1483.343642	1
1487.648816	1
