Mass spectrum: Inosine; LC-ESI-ITFT; MS; NEG
Name: Inosine
Class: Natural Product
Formula: C10H12N4O5
Exact mass: 268.08077
SMILES: OC[C@@H](O1)[C@@H](O)[C@@H](O)[C@@H]1n(c3)c(N=2)c(n3)C(=O)NC2
InChI: InChI=1S/C10H12N4O5/c15-1-4-6(16)7(17)10(19-4)14-3-13-5-8(14)11-2-12-9(5)18/h2-4,6-7,10,15-17H,1H2,(H,11,12,18)/t4-,6-,7-,10-/m1/s1
Instrument: LTQ Orbitrap XL, Thermo Scientfic
Instrument type: LC-ESI-ITFT
Ms type: MS
Ion mode: NEGATIVE
Collision energy: 35eV
Ionization: ESI
Column name: TOSOH TSKgel ODS-100V  5um Part no. 21456
Retention time: 5.686167 min
Base peak: 267.073395
m/z	relative intensity
107.036534	2
108.018617	1
108.020526	14
112.985875	7
122.037267	1
126.028837	1
126.030976	29
126.033114	1
127.034266	1
133.015617	11
134.023570	2
134.047318	2
134.949086	1
135.003896	2
135.008342	1
135.016048	1
135.017826	1
135.019012	1
135.020790	1
135.021976	1
135.023162	3
135.024644	1
135.025829	5
135.027312	18
135.028497	14
135.031165	469
135.032648	7
135.033537	16
135.035019	3
135.036205	6
135.038577	3
135.040949	1
135.041838	1
135.042728	1
135.044210	1
135.048954	1
135.053402	1
135.058443	3
135.113023	1
136.028282	5
136.031879	1
136.034277	19
136.036975	1
139.006887	3
140.046570	10
147.031059	1
148.952461	1
149.046957	4
150.032984	1
150.036109	1
150.037497	1
150.039234	3
150.042011	99
150.045137	3
150.046873	1
150.048262	1
150.051040	1
151.026022	8
151.038997	1
151.045310	4
163.039929	1
166.974877	1
177.041726	3
180.066263	11
181.069738	1
191.019252	1
196.047424	1
196.061427	5
231.051594	1
249.062979	1
266.845285	2
266.997708	4
267.003478	1
267.006775	1
267.008423	1
267.010072	1
267.012545	1
267.015018	1
267.018315	1
267.023262	1
267.031506	1
267.036452	1
267.039750	1
267.042223	1
267.044697	1
267.047995	1
267.051293	4
267.055415	1
267.058713	8
267.066134	21
267.073556	999
267.077679	14
267.080153	24
267.084276	4
267.087575	9
267.094172	4
267.097471	2
267.100770	1
267.105718	2
267.109017	1
267.113966	1
267.116441	1
267.118915	1
267.123864	1
267.130463	1
267.135412	1
267.138712	1
267.142011	1
267.149436	4
267.301293	1
268.062527	1
268.069990	10
268.076624	104
268.080770	2
268.083258	2
268.091551	1
269.072845	1
269.077014	6
269.079516	3
270.079660	1
272.088270	1
275.016751	1
279.991301	1
282.002518	1
282.060683	1
282.068738	2
282.076794	5
282.083954	227
282.089325	2
282.092010	5
282.096486	1
282.100067	2
282.107228	1
282.167217	1
283.081041	3
283.087340	23
283.091839	1
283.094539	1
284.087946	1
284.090660	1
296.035185	1
303.049516	29
303.054500	1
303.058487	1
304.052704	3
304.059716	1
305.046789	9
306.009346	1
306.049804	1
306.076106	5
313.078540	2
318.060440	7
319.063760	1
320.057771	2
323.007502	1
325.031758	1
328.045066	2
328.089973	2
330.068215	18
331.072019	2
335.060366	3
340.042211	1
345.080273	3
346.054849	27
347.059211	2
352.051103	1
361.140269	1
365.040722	3
365.049946	1
366.997419	1
375.005619	1
377.134402	1
380.051480	1
381.065559	5
383.042188	1
383.121516	3
384.125157	1
385.098478	1
387.021725	1
397.030866	1
407.087109	1
409.963769	1
411.995928	1
415.060632	1
418.122505	1
419.106350	1
426.021747	1
448.147484	14
449.151114	2
463.158216	4
464.142815	4
464.161707	1
470.128436	5
471.133424	1
472.104813	1
477.109488	1
479.153875	2
485.140303	1
486.122953	1
501.058641	1
502.066692	3
504.939769	1
510.074128	2
517.077457	1
518.109748	1
524.938789	1
534.938904	1
535.090876	1
535.114262	1
535.132972	3
535.139988	2
535.154021	175
535.172733	3
535.186768	1
535.196125	1
535.214839	1
536.135385	1
536.156494	32
536.177604	1
537.159434	4
538.068496	1
538.162832	1
541.218497	1
543.140924	1
545.215492	1
547.064981	1
548.072032	1
550.143250	1
550.165192	87
550.177382	1
550.184696	1
551.168596	16
552.169845	1
557.135252	12
558.140355	2
559.110711	3
560.116158	1
563.302871	1
565.176689	10
566.180732	2
571.130408	6
572.147780	4
573.108249	1
573.126395	2
573.152318	1
574.120517	1
581.160306	1
586.141890	4
587.145891	1
588.066248	2
588.139000	1
589.075199	1
596.134125	1
596.169875	2
598.149396	2
601.153924	2
604.085761	1
611.145779	14
611.180034	1
612.148914	2
613.140179	1
613.157390	1
614.136729	2
625.074964	1
629.145654	1
633.120777	1
660.006263	1
683.140112	1
716.227960	14
717.232146	4
718.231171	1
731.238842	12
732.226105	2
732.244823	4
733.226623	1
733.241627	1
738.210840	1
746.248807	2
747.015840	1
747.235761	1
747.255057	1
753.218338	1
760.143400	1
769.139340	1
770.143800	1
785.158855	1
803.234506	22
804.237566	6
805.238189	1
818.245550	15
819.250286	5
820.252435	1
825.214728	2
833.258571	3
834.263778	1
839.211551	1
840.227552	1
847.153876	1
882.217685	1
905.980119	1
1005.975263	1
1071.320386	4
1072.314814	2
1073.317271	1
1086.329317	3
1087.331173	2
1101.338168	1
1102.340118	1
1105.965432	2
1106.966746	1
1165.992843	2
1166.986407	1
1205.964553	1
1265.986573	4
1266.991385	1
1282.980622	1
1333.975554	1
1339.395335	1
1365.974981	3
1366.977040	1
1382.966749	1
1433.958002	1
1465.969084	1
