Mass spectrum: L-Asparagine; LC-ESI-ITFT; MS2; m/z:265.11; POS
Name: L-Asparagine
Name: 2-Aminosuccinamic acid
Class: Natural Product
Formula: C4H8N2O3
Exact mass: 132.05349
SMILES: NC(=O)C[C@@H](N)C(O)=O
InChI: InChI=1S/C4H8N2O3/c5-2(4(8)9)1-3(6)7/h2H,1,5H2,(H2,6,7)(H,8,9)/t2-/m0/s1
Instrument: LTQ Orbitrap XL, Thermo Scientfic
Instrument type: LC-ESI-ITFT
Ms type: MS2
Ion mode: POSITIVE
Collision energy: 35eV
Ionization: ESI
Column name: TOSOH TSKgel ODS-100V  5um Part no. 21456
Retention time: 4.587838 min
Base peak: 132.979523
Precursor m/z: 265.11
m/z	relative intensity
87.088341	11
116.161484	1
116.903656	2
132.979523	999
134.062592	1
163.231384	2
167.092316	1
171.277664	1
175.981659	1
177.258148	1
192.224564	2
194.861801	2
196.003418	1
203.034409	1
204.020050	1
219.261444	3
220.035217	1
220.902786	1
223.871979	2
235.208115	1
241.653809	1
247.053513	5
248.249649	3
248.879150	1
265.280212	1
