Mass spectrum: L-Glutamine; LC-ESI-ITFT; MS; NEG
Name: L-Glutamine
Name: L-2-Aminoglutaramic acid
Class: Natural Product
Formula: C5H10N2O3
Exact mass: 146.06914
SMILES: NC(=O)CC[C@H](N)C(O)=O
InChI: InChI=1S/C5H10N2O3/c6-3(5(9)10)1-2-4(7)8/h3H,1-2,6H2,(H2,7,8)(H,9,10)/t3-/m0/s1
Instrument: LTQ Orbitrap XL, Thermo Scientfic
Instrument type: LC-ESI-ITFT
Ms type: MS
Ion mode: NEGATIVE
Collision energy: 35eV
Ionization: ESI
Column name: TOSOH TSKgel ODS-100V  5um Part no. 21456
Retention time: 4.683203 min
Base peak: 145.061493
m/z	relative intensity
100.273780	1
100.274349	1
100.524472	1
100.604496	1
101.072058	21
101.377222	1
101.472556	1
101.944439	1
102.055961	1
102.165324	1
102.361877	1
102.859889	1
102.929103	1
103.184280	1
103.821893	1
103.920296	1
104.244694	1
104.483996	1
104.688496	1
104.928110	1
105.053718	1
105.079965	1
105.154285	1
105.252345	1
106.026107	1
106.494218	1
106.509169	1
106.576279	1
107.533056	1
109.040733	5
109.430717	1
109.438287	1
110.329658	1
112.984286	1
112.985421	31
112.987463	1
113.499281	1
113.861554	1
113.993427	1
114.244710	1
114.951389	4
115.029200	1
117.643871	1
119.268242	1
119.764668	1
122.183345	1
122.840995	1
123.951717	1
123.952500	1
124.095240	1
124.437828	1
125.035298	3
126.483412	1
126.861586	1
127.044004	1
127.049145	1
127.051039	64
127.053474	2
127.055638	1
127.070792	1
128.029875	1
128.032612	1
128.035075	19
128.054237	2
129.038343	1
129.193844	1
130.270322	1
130.872429	1
131.939070	1
132.513017	1
134.406937	1
135.996515	1
136.507029	1
139.006887	3
141.669029	1
142.300320	1
144.970334	2
145.000348	1
145.031032	4
145.033342	1
145.034002	1
145.041592	1
145.042582	1
145.047202	2
145.050503	2
145.051493	2
145.053143	5
145.054464	4
145.056774	28
145.058754	24
145.061395	999
145.064366	29
145.067007	13
145.068327	4
145.069978	5
145.071298	3
145.072949	2
145.076250	2
145.078561	1
145.081202	1
145.088796	1
145.089457	1
145.091768	4
145.152873	2
145.363898	1
146.058420	3
146.062088	1
146.064756	42
146.759274	1
147.065759	4
148.171091	1
148.381905	1
148.952117	1
151.982923	2
153.959215	1
154.885523	1
154.950003	1
154.997387	1
157.211197	1
158.029219	1
158.442887	1
158.609942	1
158.924781	1
159.893658	1
160.649606	1
160.892241	1
161.703841	1
161.967171	1
162.175723	1
163.150507	1
166.397528	1
167.597861	1
169.977932	1
171.598870	1
171.993663	1
175.236264	1
175.726834	1
178.993263	4
181.037979	8
181.039820	1
181.515700	1
182.041246	1
183.035096	3
183.918770	1
183.969674	16
183.992305	2
184.350712	1
186.151356	1
186.613827	1
186.799395	1
189.025375	1
189.748230	1
199.964685	4
199.988193	3
200.995451	2
202.999047	1
203.019813	3
203.879484	1
204.278819	1
204.533904	1
204.924079	1
205.016667	2
205.461074	1
206.382239	1
206.975602	1
206.988542	11
207.972131	9
208.056587	5
208.906261	1
208.965031	1
210.999494	1
211.001231	1
213.048537	4
213.134929	1
213.754129	1
214.913125	3
215.024479	3
216.013177	1
217.930278	5
219.927229	1
221.654683	1
223.972696	1
224.998316	2
225.928949	1
227.959706	3
229.013520	2
230.038399	1
230.984591	1
232.923449	2
233.754442	1
233.938884	1
233.972012	1
234.446041	1
234.956891	4
235.967175	6
236.953665	1
239.462528	1
239.725981	1
242.024964	1
242.990319	1
243.028251	2
243.779423	1
244.985519	3
245.993441	2
246.935733	1
252.106363	1
252.993536	1
254.359924	1
254.823483	1
255.022649	1
256.657819	1
257.602732	1
259.053941	4
261.805210	1
263.415664	1
264.991303	1
265.006788	1
265.010049	1
272.124735	1
272.930531	1
274.466970	1
274.725738	1
274.879796	1
274.965919	1
277.250791	1
279.009600	3
279.046585	3
280.982642	1
281.035151	18
282.038310	2
284.199251	1
284.952044	1
285.075679	1
288.950470	1
290.950373	2
291.044159	1
291.115466	2
291.122035	5
291.130481	261
291.135174	4
291.137989	5
291.143621	1
291.146436	2
291.152068	1
292.126901	2
292.133505	19
293.134134	2
294.039866	1
296.072719	1
297.138182	2
298.061577	2
298.778415	1
299.044965	1
300.045011	1
300.051885	19
301.056003	1
305.993165	1
307.104541	1
309.000436	2
309.999310	1
310.011685	4
310.995784	35
311.167860	1
311.448049	1
311.999152	3
312.996921	1
313.099473	3
313.105754	2
313.112034	120
313.117268	2
313.121455	2
313.129830	1
314.115151	10
314.870656	1
315.088223	23
315.124153	1
316.091303	4
317.023450	1
318.007934	1
318.019720	9
319.004547	20
319.021771	1
320.006933	2
321.001012	1
322.605359	1
323.020664	1
324.004587	1
324.726411	1
325.183485	1
325.759241	1
326.018218	1
326.027116	1
326.649725	1
328.022617	19
329.026117	3
329.076864	9
329.085887	4
330.079545	2
332.074693	1
333.743296	1
334.034922	2
335.033717	2
335.046462	2
335.093972	2
336.019541	1
336.031179	23
337.034271	2
338.026597	1
339.199105	1
341.096652	1
343.053378	4
344.041075	9
344.051926	2
344.063984	1
345.029412	1
345.037888	1
345.048786	77
345.060896	1
346.053633	7
346.057282	8
346.068228	1
347.049439	3
347.059211	1
351.062288	2
352.061087	1
353.044101	1
353.056634	17
354.060186	3
355.813729	1
356.867275	1
361.093595	2
361.730959	1
367.579907	1
369.688655	1
370.867883	1
371.471788	1
373.857144	1
373.863973	1
374.753296	1
374.913711	1
375.082464	6
379.030289	1
379.932525	1
381.026211	14
381.099291	2
383.022359	3
385.034236	1
391.054836	6
399.062380	4
402.009540	4
402.614793	1
408.010441	2
411.074788	1
421.011032	1
421.702253	1
421.851178	1
425.863967	1
425.981879	1
426.021747	5
427.025284	1
427.043623	1
459.169183	4
459.182196	1
461.157229	12
461.166584	1
462.161729	1
469.088268	1
475.146637	22
475.522563	1
476.150100	3
481.163568	13
482.166157	2
488.115566	1
489.068446	1
489.123623	3
490.110205	15
491.118280	75
492.121218	8
493.116887	3
493.125162	1
495.115230	1
497.129933	3
498.128246	3
498.437156	1
499.125355	47
500.123349	1
500.129688	5
501.122218	3
507.161497	4
513.099744	2
514.265529	1
518.310334	1
526.085900	1
535.378630	1
536.116622	1
543.133750	1
545.037550	1
545.326149	1
546.005258	1
549.077005	2
558.898464	1
559.105716	3
563.962706	1
567.110899	2
573.087513	1
581.904812	1
600.297151	1
607.225638	24
608.230469	5
617.059905	1
618.952409	1
620.018584	8
621.020262	2
634.184558	2
635.039329	1
636.180703	19
637.182312	4
639.895442	1
643.195707	3
644.198489	2
649.213369	2
650.217732	1
654.343956	1
658.161726	1
659.167749	14
659.487604	1
660.172876	2
661.167455	1
665.019266	1
665.310966	1
667.175892	5
668.179819	1
675.214827	1
681.567463	1
702.405577	1
717.126915	1
727.157773	1
740.249967	1
742.068353	8
743.069983	2
745.117763	1
747.691344	1
755.382760	1
766.109676	1
775.277301	1
784.145629	4
802.366418	1
802.873348	1
804.112619	1
804.228948	3
805.229555	1
808.116724	3
808.781187	1
816.056601	1
817.269146	1
821.203069	2
825.443189	1
827.220353	4
828.223656	1
830.353270	1
830.366832	1
832.336836	1
835.225199	1
836.229399	1
837.175915	5
838.179052	1
839.179400	1
845.182129	3
879.220285	1
905.002025	1
905.974967	4
906.985602	1
912.251608	1
933.931963	1
935.659892	1
949.884355	1
953.317348	1
975.254606	1
981.069108	1
991.892480	1
995.271118	2
1005.228193	1
1005.969235	13
1006.306892	1
1006.976678	4
1019.240297	1
1023.161540	1
1028.562260	1
1032.468524	1
1078.745535	1
1105.965432	19
1106.966746	4
1129.057519	1
1150.134188	1
1157.948347	1
1162.076151	1
1165.985321	14
1166.986407	5
1175.285277	1
1192.018616	1
1205.284383	1
1205.956640	7
1206.962121	2
1215.980182	1
1220.712472	1
1228.623266	1
1233.978145	1
1250.137601	1
1251.767635	1
1255.944988	2
1256.954705	1
1257.241013	1
1259.543448	1
1265.978062	31
1266.982865	9
1267.988864	1
1271.065428	1
1272.513567	1
1282.971940	4
1284.971165	1
1288.214599	1
1305.944986	1
1315.231585	1
1333.966349	5
1334.961032	2
1352.521444	1
1355.948671	2
1365.974981	26
1366.977040	5
1367.970643	1
1382.966749	3
1384.824507	1
1392.842910	1
1433.958002	4
1441.125029	1
1453.074925	1
1455.033830	1
1465.969084	11
1466.966411	4
1481.628958	1
1482.955151	1
1487.768069	1
1499.601614	1
