Mass spectrum: alpha-D-Glucose 6-phosphate; LC-ESI-ITFT; MS; NEG
Name: alpha-D-Glucose 6-phosphate
Class: Natural Product
Formula: C6H13O9P
Exact mass: 260.02972
SMILES: O[C@@H](O1)[C@H](O)[C@@H](O)[C@H](O)[C@H]1COP(O)(O)=O
InChI: InChI=1S/C6H13O9P/c7-3-2(1-14-16(11,12)13)15-6(10)5(9)4(3)8/h2-10H,1H2,(H2,11,12,13)/t2-,3-,4+,5-,6+/m1/s1
Instrument: LTQ Orbitrap XL, Thermo Scientfic
Instrument type: LC-ESI-ITFT
Ms type: MS
Ion mode: NEGATIVE
Collision energy: 35eV
Ionization: ESI
Column name: TOSOH TSKgel ODS-100V  5um Part no. 21456
Retention time: 6.736633 min
Base peak: 259.021973
m/z	relative intensity
101.024465	1
138.974381	1
138.975929	1
138.977476	1
138.979953	38
138.982429	1
150.979747	1
151.969472	1
151.988941	1
151.993190	1
151.994606	1
151.996022	3
151.997084	3
151.998854	10
152.002041	273
152.004873	11
152.007706	3
152.010538	1
152.034619	1
152.099808	1
153.001495	1
153.005071	5
153.997840	10
154.006145	2
160.962052	1
162.838737	1
167.993317	1
167.997019	28
168.000310	1
168.990385	8
177.936103	1
180.948271	1
183.991833	1
184.352604	1
186.865012	1
188.861978	1
198.996443	2
199.000686	49
199.005460	2
199.009173	1
200.004224	1
200.906649	1
201.004604	1
212.902908	1
222.958476	1
223.000624	4
228.875424	3
229.011556	1
230.872543	1
241.010910	2
241.897680	2
242.917341	2
243.894522	1
249.905756	1
249.969211	1
252.919806	1
258.658943	1
258.804405	2
258.884658	1
258.926373	1
258.934244	1
258.949202	4
258.956287	1
258.959437	1
258.964161	1
258.968885	1
258.972822	1
258.975184	1
258.983845	1
258.986208	1
258.989357	1
258.993295	2
258.997232	1
258.999595	1
259.002745	4
259.009045	9
259.010620	8
259.015345	28
259.021646	999
259.028734	33
259.034248	10
259.040549	4
259.043700	1
259.047639	1
259.050002	2
259.054728	1
259.057879	1
259.059455	1
259.070484	1
259.075999	1
259.086241	1
259.088605	1
259.094908	4
259.239949	2
260.012129	1
260.018466	2
260.024804	59
260.031933	2
260.927062	1
261.025832	13
262.029447	1
272.087422	1
282.980285	1
287.925934	1
288.896655	1
300.989892	1
302.938911	1
305.011562	19
306.014403	1
306.076106	8
307.006952	1
307.079123	1
316.980796	3
318.957188	1
318.977637	1
320.948862	3
322.883602	1
326.993535	6
328.969745	3
336.999204	1
338.959635	1
347.909740	1
348.917269	2
348.928351	1
350.914450	1
356.925872	1
356.989580	4
357.922948	1
358.930633	1
360.969175	1
366.938981	1
378.966166	1
382.904838	1
411.885354	1
412.003828	1
412.010148	1
412.018048	4
412.030689	164
412.044910	4
412.055972	1
412.060713	1
412.177682	1
413.034330	16
414.027317	6
414.035275	3
428.025679	7
433.998316	1
434.013690	40
434.027356	1
435.016470	3
435.990049	8
436.008969	1
436.017569	1
436.992787	1
442.925724	2
444.021430	1
449.977726	2
449.986743	1
450.008385	1
453.953293	2
454.950834	1
455.947987	14
455.995815	2
456.946577	1
456.952113	1
457.944748	1
459.085543	1
463.955839	1
465.950384	10
466.955343	1
467.952081	1
473.959138	1
477.929618	1
502.945639	1
518.435203	1
518.845802	1
518.901628	1
518.968630	1
518.995435	1
519.004370	1
519.013306	3
519.020008	3
519.031178	10
519.051285	508
519.069158	11
519.087033	4
519.104909	1
519.131724	1
519.145133	1
519.256889	1
520.033477	1
520.055883	67
520.073809	1
521.054412	13
522.058074	1
541.011599	1
541.032997	61
541.052018	1
542.035352	5
543.009416	7
543.038104	2
544.012476	1
551.934588	1
557.008564	2
560.973674	1
561.971567	1
562.170458	1
562.967078	11
563.970297	1
564.165187	1
564.963515	1
565.039635	2
566.104382	4
571.964246	1
572.970892	2
579.016934	1
584.950642	1
587.022265	5
588.999573	1
602.987660	1
608.950950	2
609.004896	1
610.943166	1
611.142925	2
618.958228	1
672.060243	16
673.065321	2
674.066043	1
688.057910	1
694.043502	8
695.046383	1
696.020215	2
710.007357	1
713.984349	1
715.978148	6
716.025204	1
716.978181	1
724.973276	1
725.981134	3
726.983687	1
737.960802	1
740.033123	1
747.961803	1
779.043064	1
779.055388	1
779.080038	38
779.112907	1
780.083459	5
781.088820	2
801.062639	10
802.065924	2
803.040998	3
808.116724	1
817.026421	2
822.997773	4
823.046843	2
823.997871	1
825.022178	1
825.071429	2
833.004146	3
834.004342	1
844.977908	1
847.056057	2
848.058345	1
849.029695	1
863.016399	1
868.986715	1
878.988833	1
905.974967	1
932.090525	4
933.096718	1
934.099147	1
954.074101	1
956.048117	1
976.008831	1
978.034012	1
985.005529	1
986.016734	1
997.993621	1
1005.975263	5
1006.970641	1
1039.112967	2
1061.092474	2
1063.060817	1
1083.022226	1
1085.099203	1
1093.030069	1
1105.965432	7
1106.973704	1
1155.963226	2
1165.985321	1
1192.119704	1
1205.956640	3
1255.953397	5
1256.954705	2
1257.948782	2
1258.952477	1
1265.978062	2
1355.948671	4
1356.939715	1
1357.941301	1
1365.974981	2
1455.936047	2
1456.933658	1
1457.942812	1
1465.969084	1
