Mass spectrum: Spermine; LC-ESI-ITFT; MS2; m/z:102.11; POS
Name: Spermine
Name: N,N'-Bis(3-aminopropyl)-1,4-butanediamine
Class: Natural Product
Formula: C10H26N4
Exact mass: 202.21575
SMILES: NCCCNCCCCNCCCN
InChI: InChI=1S/C10H26N4/c11-5-3-9-13-7-1-2-8-14-10-4-6-12/h13-14H,1-12H2
Instrument: LTQ Orbitrap XL, Thermo Scientfic
Instrument type: LC-ESI-ITFT
Ms type: MS2
Ion mode: POSITIVE
Collision energy: 35eV
Ionization: ESI
Column name: TOSOH TSKgel ODS-100V  5um Part no. 21456
Retention time: 3.282172 min
Base peak: 93.466629
Precursor m/z: 102.11
m/z	relative intensity
58.047447	44
79.588593	4
85.037842	81
93.466629	999
94.299683	1
111.991470	5
129.147446	5
146.205734	66
158.182693	1
186.334061	3
