Mass spectrum: D-Glucose 1-phosphate; LC-ESI-ITFT; MS; NEG
Name: D-Glucose 1-phosphate
Name: alpha-D-Glucose 1-phosphate
Name: Cori ester
Name: D-Glucose alpha-1-phosphate
Class: Natural Product
Formula: C6H13O9P
Exact mass: 260.02972
SMILES: OC[C@@H](O1)[C@@H](O)[C@H](O)[C@@H](O)C1OP(O)(O)=O
InChI: InChI=1S/C6H13O9P/c7-1-2-3(8)4(9)5(10)6(14-2)15-16(11,12)13/h2-10H,1H2,(H2,11,12,13)/t2-,3-,4+,5-,6-/m1/s1
Instrument: LTQ Orbitrap XL, Thermo Scientfic
Instrument type: LC-ESI-ITFT
Ms type: MS
Ion mode: NEGATIVE
Collision energy: 35eV
Ionization: ESI
Column name: TOSOH TSKgel ODS-100V  5um Part no. 21456
Retention time: 6.599002 min
Base peak: 259.021820
m/z	relative intensity
100.030640	1
100.693587	1
103.903286	1
104.531834	1
105.232559	1
107.741295	1
107.769402	1
108.370081	1
108.769755	1
109.385096	1
110.670251	1
110.889880	1
112.177477	1
113.361423	1
114.633050	1
115.478735	1
118.163661	1
119.023026	1
119.674089	1
120.068337	1
120.195207	1
121.852814	1
122.604431	1
123.008363	1
126.531532	1
127.685713	1
128.130655	1
129.346848	1
130.875823	1
133.013878	6
133.549944	1
134.046731	4
134.286021	1
134.640994	1
134.894605	1
136.096049	1
137.526358	1
137.850527	1
138.228641	1
138.973762	1
138.977786	1
138.979953	33
143.718422	1
144.869145	1
150.239434	1
150.869052	1
151.804315	1
152.190221	1
154.490415	1
154.897906	1
155.866897	1
155.897784	1
156.833505	1
158.239987	1
158.924781	4
158.964911	1
160.841358	2
161.973013	1
162.838345	2
164.835565	1
164.898356	1
165.999204	1
167.011163	1
171.954037	1
173.472955	1
173.742629	1
174.979285	1
176.935406	1
177.711203	1
179.066127	1
180.948271	1
182.734175	1
184.316668	1
184.318559	1
184.875804	2
186.865012	2
188.861978	2
191.194447	1
192.990127	1
193.896448	1
195.810115	1
197.807431	2
200.201026	1
200.906649	2
204.223117	1
209.658447	1
211.000652	3
212.902908	1
214.001737	1
220.236269	1
222.353372	1
222.958476	1
226.985494	1
228.875424	3
236.908190	1
241.004548	2
241.010910	42
241.017272	1
242.014294	1
242.669322	1
242.916626	2
243.920431	1
252.451577	1
256.472254	1
258.804405	2
258.884658	1
258.949202	3
258.952351	1
258.994082	1
258.998807	2
259.002745	4
259.009045	10
259.015345	26
259.021646	999
259.025584	31
259.028734	26
259.035036	10
259.038974	1
259.042125	4
259.045276	2
259.048426	1
259.051577	1
259.054728	1
259.057879	1
259.067333	1
259.094908	3
259.239949	2
260.017674	2
260.024804	48
260.031933	1
260.726508	1
260.927062	2
261.025832	12
262.335834	1
270.194581	1
272.923716	1
272.956090	11
273.959097	1
275.517201	1
276.687345	1
277.613978	1
278.673552	1
283.545030	1
288.896655	2
290.515802	1
292.619938	1
295.005317	1
295.176747	1
298.282392	1
305.791010	1
313.152862	1
316.979730	14
316.989326	1
317.073579	1
317.377807	1
318.976561	7
318.983019	1
319.270598	1
319.952863	1
320.948862	2
321.950611	1
322.883602	1
323.002019	1
326.842773	1
328.043944	52
328.049557	1
328.054047	1
329.047542	4
331.371546	1
336.998035	4
344.948300	1
346.054849	8
347.186286	1
348.917269	7
350.914450	2
353.943157	1
355.219759	1
356.585957	1
356.924598	2
356.988306	12
358.922924	1
360.970471	1
368.921690	3
370.917815	1
373.345526	1
376.098755	1
378.970348	1
379.622106	1
380.450737	1
383.057768	1
383.400777	1
383.886311	1
385.883524	1
389.788288	1
392.906666	1
393.042071	2
397.139997	1
399.035271	2
406.015390	1
406.281375	1
406.635913	1
408.010441	15
408.679247	1
409.013485	2
415.025487	1
421.074691	4
426.020086	12
427.285483	1
436.959997	1
437.338169	1
442.925724	3
448.002335	1
454.633827	1
489.041882	1
489.076619	1
498.655878	1
500.658388	1
500.698603	1
504.539139	1
507.950029	1
509.159070	1
515.245211	1
518.843569	1
518.986500	1
518.997669	1
519.015540	4
519.031178	10
519.051285	626
519.062456	11
519.069158	11
519.089268	5
519.098205	1
519.107143	2
519.151837	1
519.259125	1
520.033477	2
520.040199	1
520.053642	79
520.073809	1
521.054412	16
522.058074	1
522.931315	1
525.762326	1
527.035557	3
527.200182	1
529.128815	1
534.756623	1
535.205482	1
539.990745	1
539.995486	1
540.014453	4
540.033420	9
540.038162	8
540.052389	535
540.064244	12
540.071358	9
540.092700	4
540.111672	2
541.032997	48
541.054396	75
541.066285	3
541.075796	2
542.035352	5
542.056810	12
543.009416	6
543.035713	1
543.059622	2
554.829350	1
554.868858	2
557.006080	3
558.063134	5
558.504254	1
559.065755	1
560.971164	1
561.008819	1
561.971567	1
562.031979	1
562.167940	3
562.967078	16
563.037746	1
563.970297	1
564.165187	3
564.502052	1
564.971126	1
565.166535	1
566.160371	1
566.537238	1
570.365299	1
571.597442	1
571.961662	1
572.145195	1
572.970892	2
576.004213	1
576.027720	61
577.032023	9
578.025826	18
579.016934	4
579.027464	3
580.021151	1
584.947969	1
592.973365	2
598.011228	2
598.990495	2
600.925643	1
600.986876	1
602.917730	1
608.948111	3
610.943166	1
612.171807	1
613.450084	1
615.285623	1
616.249836	1
620.354154	1
622.625654	1
629.948431	1
636.966615	1
638.027928	1
638.997281	1
639.284242	1
645.058115	1
649.854516	1
653.124994	1
655.966089	1
656.992532	1
661.353787	1
662.099904	42
662.115998	1
662.128874	1
663.105295	9
664.106511	1
665.924163	1
686.624596	1
698.075071	47
699.079721	9
700.072544	14
701.078004	3
718.031199	1
720.060238	5
720.556964	1
722.053899	1
732.432037	1
743.253708	1
756.643425	1
760.816968	1
769.482007	1
779.043064	1
779.080038	39
779.100581	1
780.058761	1
780.083459	7
781.084695	3
785.707813	1
796.121023	1
800.082614	12
801.028372	1
801.041222	1
801.062639	16
802.065924	4
803.015202	1
803.036699	2
803.066795	1
809.246365	1
817.026421	3
820.998588	1
822.061834	4
822.993313	4
823.042382	6
824.002340	1
825.017701	2
831.992146	2
832.999604	3
834.997224	1
840.978094	1
843.994971	2
844.977908	3
847.988360	1
854.001148	1
854.973282	1
857.866435	1
862.260087	1
865.363453	1
866.957592	1
874.755189	1
888.879179	1
889.911490	1
892.792392	1
905.980119	4
906.980441	1
922.080460	1
922.096330	1
922.128072	69
923.134068	16
924.131097	5
925.135057	2
936.731451	1
944.114245	6
945.112527	3
975.928185	1
983.139187	1
984.054197	1
984.159185	1
989.830009	1
1004.283498	1
1005.969235	23
1006.976678	5
1014.144561	1
1039.106639	8
1040.113579	3
1047.107292	1
1050.103247	1
1051.738140	1
1054.165315	1
1055.446834	1
1060.511519	1
1061.092474	4
1062.092310	2
1063.073914	1
1077.060648	1
1083.028959	2
1083.076098	1
1093.030069	2
1099.035418	1
1105.007113	1
1105.048753	1
1105.965432	29
1106.000177	1
1106.966746	7
1107.969421	1
1110.013796	1
1114.414703	1
1115.005343	3
1120.186452	1
1120.576136	1
1155.955800	12
1156.958865	3
1157.955792	4
1165.977798	1
1169.967172	1
1182.158736	9
1183.165351	4
1184.173251	1
1191.458981	1
1198.239896	1
1204.138887	3
1205.142095	1
1205.956640	14
1206.962121	3
1215.307531	1
1220.108355	1
1223.133432	1
1226.072435	1
1226.121103	1
1235.084483	1
1236.077355	2
1237.079644	1
1255.953397	29
1256.954705	5
1257.948782	8
1258.952477	2
1265.978062	1
1288.170924	1
1299.132894	1
1302.492295	1
1305.659709	1
1305.953902	2
1321.126924	1
1343.042391	1
1355.939238	21
1356.939715	6
1357.941301	7
1358.943995	1
1365.965443	2
1366.003596	1
1374.003183	1
1396.513368	1
1400.812285	1
1409.349924	1
1411.010737	1
1442.190230	1
1448.679223	1
1455.936047	9
1456.933658	2
1457.932294	4
1458.931958	1
1464.167989	1
1467.157504	1
1481.855255	1
