Mass spectrum: L-Aspartic acid; LC-ESI-ITFT; MS; POS
Name: L-Aspartate
Name: L-Aspartic acid
Name: 2-Aminosuccinic acid
Class: Natural Product
Formula: C4H7NO4
Exact mass: 133.03751
SMILES: OC(=O)CC(N)C(O)=O
InChI: InChI=1S/C4H7NO4/c5-2(4(8)9)1-3(6)7/h2H,1,5H2,(H,6,7)(H,8,9)/t2-/m0/s1
Instrument: LTQ Orbitrap XL, Thermo Scientfic
Instrument type: LC-ESI-ITFT
Ms type: MS
Ion mode: POSITIVE
Collision energy: 35eV
Ionization: ESI
Column name: TOSOH TSKgel ODS-100V  5um Part no. 21456
Retention time: 4.698618 min
Base peak: 120.065376
m/z	relative intensity
100.111848	4
102.033748	2
102.053024	1
102.054776	65
102.056529	1
103.057993	1
110.019746	1
111.020036	1
116.034302	5
119.684590	1
119.938741	1
119.996570	2
120.023141	1
120.042516	4
120.045746	1
120.046740	1
120.047733	1
120.049224	1
120.049721	1
120.051212	1
120.052702	1
120.053945	1
120.056678	1
120.057175	1
120.058169	1
120.059163	4
120.060156	3
120.061399	4
120.062144	3
120.063387	8
120.065375	999
120.067114	6
120.067611	9
120.068357	4
120.069351	4
120.070593	2
120.071339	3
120.073327	1
120.073824	1
120.074570	1
120.075564	1
120.076309	1
120.077055	1
120.078546	1
120.080037	1
120.081032	1
120.082026	1
120.083517	1
120.085257	1
120.088240	4
120.107879	1
120.134238	2
120.192458	1
120.202912	1
120.447980	1
121.061799	1
121.068592	37
122.069150	3
126.021480	7
129.126926	1
130.007768	1
132.065193	10
133.058040	1
133.060649	86
133.063258	1
133.078916	1
134.042190	1
134.044535	103
134.047173	1
134.063591	2
134.986333	1
135.047674	3
137.132002	2
139.981695	1
141.958171	5
149.022904	5
151.096028	1
155.142891	1
158.002552	11
158.960868	1
163.132671	5
167.033320	1
170.095866	1
171.137707	1
171.149125	44
172.152025	2
174.127584	14
175.130548	1
179.063200	2
180.158490	1
182.984796	9
186.184385	1
186.955984	2
187.126060	6
195.122625	1
199.028604	1
199.179842	6
199.987228	1
219.989295	1
223.063237	10
224.062086	1
233.173293	1
245.080111	23
246.082536	1
258.074644	1
259.058666	1
270.154019	1
277.199902	1
279.157671	1
282.189845	2
282.220291	1
352.230996	1
391.282894	54
392.286254	10
396.256577	1
413.263556	1
426.356690	1
436.339497	5
437.343196	1
464.370027	1
478.351212	1
510.341233	31
511.344429	5
512.346204	1
523.334325	1
