Mass spectrum: L-Ornithine; LC-ESI-ITFT; MS; NEG
Name: L-Ornithine
Name: (S)-2,5-Diaminovaleric acid
Name: (S)-2,5-Diaminopentanoic acid
Name: (S)-2,5-Diaminopentanoate
Class: Natural Product
Formula: C5H12N2O2
Exact mass: 132.08988
SMILES: NCCC[C@H](N)C(O)=O
InChI: InChI=1S/C5H12N2O2/c6-3-1-2-4(7)5(8)9/h4H,1-3,6-7H2,(H,8,9)/t4-/m0/s1
Instrument: LTQ Orbitrap XL, Thermo Scientfic
Instrument type: LC-ESI-ITFT
Ms type: MS
Ion mode: NEGATIVE
Collision energy: 35eV
Ionization: ESI
Column name: TOSOH TSKgel ODS-100V  5um Part no. 21456
Retention time: 3.964307 min
Base peak: 287.130127
m/z	relative intensity
100.420204	3
101.147355	3
101.652008	3
102.070571	3
102.786216	3
102.948835	5
102.956927	4
103.609165	3
103.733809	3
103.920296	12
103.957133	3
104.551624	3
104.951873	3
105.301120	3
106.779659	3
106.822825	2
109.452131	3
110.173932	3
110.677290	3
111.634886	3
111.635778	2
112.301712	3
112.983606	9
112.985648	283
112.987463	8
112.989505	4
113.314235	3
113.988828	4
114.056228	3
114.951622	34
114.953019	3
115.227345	3
117.818605	3
118.603157	3
119.271688	3
120.515513	3
120.855924	3
121.121687	3
122.166251	3
122.673968	3
123.524975	3
123.951717	3
124.340063	3
125.292183	3
129.066595	6
129.975585	4
131.056483	5
131.073776	4
131.074910	7
131.076894	7
131.078028	7
131.080297	34
131.082565	979
131.085117	34
131.087385	11
131.089937	5
131.090788	3
131.108655	5
132.074321	3
132.080630	4
132.081777	3
132.085792	38
132.087226	4
132.227013	3
132.275861	3
133.666363	4
134.264562	3
137.068010	3
139.006887	4
142.150988	3
142.890974	3
142.946173	14
146.406210	3
149.584020	3
150.309042	3
157.011401	18
157.056015	5
157.235034	3
159.212847	3
159.391385	3
159.899006	3
160.892241	4
165.014435	6
166.601291	3
166.772464	3
168.197958	3
169.459113	3
171.958723	3
172.538732	3
173.050693	4
174.918078	6
174.955673	6
175.046649	5
176.632096	3
176.667139	3
177.087576	3
179.610165	3
180.972647	20
180.974487	5
182.349760	3
182.985982	6
183.022933	3
184.370575	5
185.021215	4
186.929215	4
187.017126	109
187.222169	3
188.174897	3
188.948802	3
189.040597	39
191.037708	7
191.529035	3
192.106242	3
192.546667	3
192.700213	3
193.009376	17
199.055326	4
199.060632	4
199.064877	23
199.069653	827
199.072306	16
199.073898	23
199.078674	9
199.083451	4
200.068367	3
200.072644	40
200.993297	3
201.045529	21
201.423600	3
202.433572	3
203.011616	11
204.496329	3
205.007239	3
206.972227	4
211.019763	47
212.020011	4
212.023511	3
216.059371	35
217.998370	4
219.056057	3
220.961764	3
220.977899	5
221.051771	4
221.113877	3
222.469306	3
227.069511	6
229.010901	3
229.029890	9
229.063946	10
229.368822	3
231.000510	4
231.006480	55
231.086765	4
231.458215	3
231.935965	6
233.022208	15
236.823475	3
237.936647	3
238.018491	3
239.014395	37
241.080201	3
243.095550	41
244.099024	4
245.062330	4
245.071752	8
246.935733	4
247.050874	32
248.959787	27
249.016943	14
250.531658	3
250.941221	4
251.028364	3
251.031370	4
254.916501	5
255.664024	3
256.985183	3
257.025661	21
259.022434	4
261.039377	22
261.053721	40
261.876454	3
263.171900	104
263.175933	3
264.012780	3
264.174949	6
264.318594	3
266.983696	9
267.049644	4
267.057064	188
268.060039	12
272.766192	4
273.438109	3
275.032261	9
276.971901	4
277.011965	73
278.014660	4
279.588107	3
282.526652	3
282.557159	3
282.968593	4
283.025258	4
283.040552	4
284.024631	5
285.020215	45
285.130249	4
285.138436	7
285.142074	5
285.145713	21
285.153901	979
285.162089	23
285.169367	6
285.177556	4
286.022871	3
286.149946	5
286.157263	72
287.105259	4
287.114450	6
287.122723	20
287.130076	999
287.137430	22
287.145704	9
287.153978	5
287.157655	7
288.000715	3
288.126339	8
288.132807	77
288.996875	4
289.133368	4
289.636536	3
290.976629	3
291.076994	3
293.056397	5
297.033699	4
306.583591	3
307.136064	5
307.766522	3
308.247543	3
310.706892	3
310.839380	3
310.998892	3
312.088714	8
316.082809	6
316.946680	5
317.082113	3
317.090647	79
317.100248	4
318.093665	8
318.099024	3
319.091758	5
319.106835	9
322.737863	3
323.104041	6
324.001282	3
324.102676	8
324.791648	3
325.015152	6
325.099302	80
325.108162	3
327.096337	9
330.009310	3
331.147148	5
333.134766	72
334.137601	6
335.002437	4
335.044144	117
335.100926	43
336.047472	11
336.104509	4
336.633663	3
341.000267	10
343.061782	3
344.209927	3
344.999143	7
347.123962	40
348.126849	7
353.006506	4
353.067914	10
353.130593	4
353.140623	226
353.148145	5
353.151907	6
354.144533	16
354.954284	3
358.094442	8
361.014529	6
361.101374	14
362.088672	11
362.099086	6
363.017293	11
363.085254	6
363.095711	212
364.100393	14
365.096071	8
365.293850	3
369.109188	10
370.108008	5
371.093330	3
371.104135	95
372.108358	7
372.730251	3
373.101684	7
373.904949	3
375.465667	4
377.160694	4
379.041443	4
379.069329	5
379.140452	18
381.457970	3
388.454103	3
390.999323	3
392.699278	3
393.002325	7
397.166914	4
403.031794	64
404.034936	3
404.182276	22
404.718598	3
405.101899	5
411.099984	4
412.883708	3
413.097774	4
414.468555	3
415.111760	15
415.645974	3
417.230664	6
419.219845	195
420.222214	25
420.994712	4
421.055102	4
421.128567	203
421.141629	4
422.131239	25
429.090041	3
430.075797	7
431.083553	71
432.088068	11
433.010968	3
433.084178	6
433.208509	13
437.231057	8
438.116778	4
439.092097	22
439.225980	174
440.229438	31
441.229335	4
444.177029	6
447.129351	7
447.331270	5
448.172578	57
449.181688	65
450.185187	8
453.028249	3
456.192725	5
457.188426	33
459.805595	3
465.225333	52
466.227946	6
467.848822	3
471.019454	30
471.502663	3
479.088489	5
483.099654	5
487.206100	4
489.115448	142
490.118405	15
491.943884	3
494.177840	8
497.052459	4
497.092240	4
497.184385	8
498.063138	4
499.070584	30
499.291831	3
500.074751	5
501.075594	3
501.196406	16
507.079509	12
507.213289	142
508.216168	27
515.114867	4
515.134747	4
516.159007	13
517.168548	57
518.049594	3
525.175187	27
533.141212	7
533.213318	12
533.415757	4
536.834991	3
539.005874	6
541.261318	3
545.215492	3
547.074651	4
547.159274	5
547.217313	5
547.732811	3
549.334762	3
551.085485	4
551.239499	4
551.288406	4
551.293297	4
551.310416	244
552.312052	47
553.316420	5
557.030917	4
557.060724	3
557.102955	52
558.105479	6
562.165422	11
565.171612	10
567.057321	18
567.417209	3
569.183312	10
571.316121	10
575.065116	5
575.200622	138
575.393539	3
576.202761	28
576.678648	3
580.261389	46
581.266198	7
584.149601	9
585.156508	61
586.157977	6
586.329609	4
587.280311	5
592.172129	3
593.164376	16
593.298138	98
594.301428	15
601.128862	4
601.198482	6
602.244225	3
603.250707	18
603.379495	5
604.256909	5
606.993890	4
612.346402	3
619.295848	10
625.089727	23
633.156896	6
635.045376	5
635.157260	5
637.170157	6
643.161808	3
643.186461	68
644.192310	16
645.191232	4
646.040437	3
648.251867	10
652.132768	4
653.143916	27
654.027835	3
654.147934	4
655.268340	11
661.151396	4
661.283100	70
662.286631	16
667.364771	8
668.483398	3
669.186013	6
669.244887	5
670.233819	5
671.241372	21
679.247081	13
687.213040	4
687.284521	7
688.419499	3
690.468185	4
693.077262	6
703.014428	4
705.312647	5
705.379892	5
711.174026	38
712.178370	8
714.767149	3
716.372839	3
720.578891	3
721.131031	11
723.254072	3
729.136365	5
729.270295	68
730.275944	16
731.276201	5
739.227450	23
740.230942	7
745.183093	4
747.235761	7
747.366988	47
748.371633	9
750.892126	3
755.272945	7
757.324158	8
763.113809	4
765.329056	5
767.280840	3
773.075605	3
773.579416	4
779.162213	18
784.224457	4
789.118372	7
791.241812	6
797.259620	32
798.264288	5
799.262319	4
799.454462	3
805.160487	3
807.214713	19
808.220899	5
809.342058	4
815.220419	5
815.356761	28
816.360586	12
817.172043	4
823.256552	4
825.178900	4
825.313268	14
826.313103	4
833.317650	4
841.356047	4
847.149218	6
859.230484	4
865.243228	21
866.249077	5
870.057282	3
875.200166	11
877.327043	4
878.703339	3
881.322295	3
883.342564	35
884.345366	15
893.296601	19
901.304788	11
901.437720	21
902.445892	11
905.980119	23
911.398484	9
926.486874	3
927.569395	3
933.236745	5
943.183211	5
951.290800	4
951.329604	23
952.333803	8
961.285899	7
962.294628	3
969.297763	7
969.428910	15
970.427640	6
976.469857	3
979.381846	11
981.057497	3
987.211139	3
987.392832	6
1000.392457	3
1005.969235	69
1006.976678	17
1010.529845	3
1019.320222	10
1020.323162	4
1024.250662	3
1027.391592	4
1029.273107	4
1030.947129	3
1031.823242	4
1037.046662	3
1037.412713	16
1037.917929	4
1038.417191	6
1046.115751	3
1047.369807	7
1048.375958	5
1055.511619	13
1065.994028	10
1073.350489	3
1074.474164	4
1087.310851	4
1105.402789	11
1105.861206	3
1105.882050	3
1105.916791	3
1105.965432	84
1106.410292	6
1106.966746	18
1107.976389	3
1115.350100	6
1123.501699	3
1124.498431	5
1125.496490	4
1133.456918	8
1155.955800	4
1162.345633	3
1165.985321	79
1166.986407	13
1173.384511	7
1177.121991	3
1191.490062	7
1192.485280	8
1201.443556	4
1202.443397	4
1205.956640	47
1206.954199	7
1207.960927	6
1209.580673	15
1210.590690	3
1233.978145	5
1240.209354	3
1250.012345	4
1251.324285	3
1259.467443	6
1265.544153	4
1265.978062	171
1266.982865	46
1267.988864	9
1277.571396	5
1281.991421	3
1288.520393	4
1291.970282	3
1305.953902	16
1314.925242	3
1331.080706	4
1333.966349	14
1345.556641	4
1355.514841	5
1365.974981	120
1366.977040	39
1367.980202	8
1389.695724	3
1390.929795	3
1392.577781	3
1423.500067	7
1433.958002	12
1434.963914	4
1453.347050	3
1457.122794	3
1465.969084	46
1466.966411	17
1470.092288	3
