Mass spectrum: Hypotaurine; LC-ESI-ITFT; MS2; m/z:110.03; POS
Name: Hypotaurine
Name: 2-Aminoethanesulfinic acid
Class: Natural Product
Formula: C2H7NO2S
Exact mass: 109.01975
SMILES: NCCS(O)=O
InChI: InChI=1S/C2H7NO2S/c3-1-2-6(4)5/h1-3H2,(H,4,5)
Instrument: LTQ Orbitrap XL, Thermo Scientfic
Instrument type: LC-ESI-ITFT
Ms type: MS2
Ion mode: POSITIVE
Collision energy: 35eV
Ionization: ESI
Column name: TOSOH TSKgel ODS-100V  5um Part no. 21456
Retention time: 4.810467 min
Base peak: 91.919632
Precursor m/z: 110.03
m/z	relative intensity
89.523788	3
91.919632	999
98.438232	1
