Mass spectrum: L-(+)-Lysine; LC-ESI-ITFT; MS2; m/z:147.11; POS
Name: L-Lysine
Name: Lysine acid
Name: 2,6-Diaminohexanoic acid
Name: L-(+)-Lysine
Class: Natural Product
Formula: C6H14N2O2
Exact mass: 146.10553
SMILES: NCCCC[C@H](N)C(O)=O
InChI: InChI=1S/C6H14N2O2/c7-4-2-1-3-5(8)6(9)10/h5H,1-4,7-8H2,(H,9,10)/t5-/m0/s1
Instrument: LTQ Orbitrap XL, Thermo Scientfic
Instrument type: LC-ESI-ITFT
Ms type: MS2
Ion mode: POSITIVE
Collision energy: 35eV
Ionization: ESI
Column name: TOSOH TSKgel ODS-100V  5um Part no. 21456
Retention time: 3.917792 min
Base peak: 130.001450
Precursor m/z: 147.11
m/z	relative intensity
84.017349	41
101.150543	2
129.190994	87
130.001450	999
