Mass spectrum: S-Adenosyl-L-homocysteine; LC-ESI-ITFT; MS2; m/z:383.11; NEG
Name: S-Adenosyl-L-homocysteine
Name: S-Adenosylhomocysteine
Class: Natural Product
Formula: C14H20N6O5S
Exact mass: 384.12159
SMILES: OC(=O)[C@@H](N)CCSC[C@@H](O1)[C@@H](O)[C@@H](O)[C@@H]1n(c3)c(n2)c(n3)c(N)nc2
InChI: InChI=1S/C14H20N6O5S/c15-6(14(23)24)1-2-26-3-7-9(21)10(22)13(25-7)20-5-19-8-11(16)17-4-18-12(8)20/h4-7,9-10,13,21-22H,1-3,15H2,(H,23,24)(H2,16,17,18)/t6-,7+,9+,10+,13+/m0/s1
Instrument: LTQ Orbitrap XL, Thermo Scientfic
Instrument type: LC-ESI-ITFT
Ms type: MS2
Ion mode: NEGATIVE
Collision energy: 35eV
Ionization: ESI
Column name: TOSOH TSKgel ODS-100V  5um Part no. 21456
Retention time: 5.479308 min
Base peak: 133.957504
Precursor m/z: 383.11
m/z	relative intensity
113.067284	1
116.079239	2
126.055504	5
129.004822	36
129.933289	1
131.074371	4
132.085678	4
133.957504	999
142.040161	3
144.072800	8
146.930817	4
148.167236	1
154.029510	13
158.092499	2
167.940704	1
169.987061	1
176.017639	93
188.023651	245
230.038086	2
248.105927	217
282.064301	25
