Mass spectrum: Ribitol; LC-ESI-ITFT; MS2; m/z:153.08; POS
Name: Ribitol
Name: Adonitol
Class: Natural Product
Formula: C5H12O5
Exact mass: 152.06847
SMILES: OC([C@H]([C@H]([C@H](CO)O)O)O)
InChI: InChI=1S/C5H12O5/c6-1-3(8)5(10)4(9)2-7/h3-10H,1-2H2/t3-,4+,5-
Instrument: LTQ Orbitrap XL, Thermo Scientfic
Instrument type: LC-ESI-ITFT
Ms type: MS2
Ion mode: POSITIVE
Collision energy: 35eV
Ionization: ESI
Column name: TOSOH TSKgel ODS-100V  5um Part no. 21456
Retention time: 5.051152 min
Base peak: 135.007584
Precursor m/z: 153.08
m/z	relative intensity
57.011864	6
69.041397	4
71.069862	4
99.018021	71
109.071228	1
112.058487	2
117.073792	106
132.623764	1
135.007584	999
