Mass spectrum: 6-Phospho-D-gluconic acid; LC-ESI-ITFT; MS2; m/z:275.02; NEG
Name: 6-Phospho-D-gluconate
Name: 6-Phospho-D-gluconic acid
Class: Natural Product
Formula: C6H13O10P
Exact mass: 276.02463
SMILES: OC(=O)[C@H](O)[C@@H](O)[C@H](O)[C@H](O)COP(O)(O)=O
InChI: InChI=1S/C6H13O10P/c7-2(1-16-17(13,14)15)3(8)4(9)5(10)6(11)12/h2-5,7-10H,1H2,(H,11,12)(H2,13,14,15)/t2-,3-,4+,5-/m1/s1
Instrument: LTQ Orbitrap XL, Thermo Scientfic
Instrument type: LC-ESI-ITFT
Ms type: MS2
Ion mode: NEGATIVE
Collision energy: 35eV
Ionization: ESI
Column name: TOSOH TSKgel ODS-100V  5um Part no. 21456
Retention time: 6.998198 min
Base peak: 256.973450
Precursor m/z: 275.02
m/z	relative intensity
78.949509	34
96.904968	577
129.186020	5
159.011154	7
176.986435	80
199.050812	14
238.995422	58
256.973450	999
257.591400	3
