Mass spectrum: L-Cysteine; LC-ESI-ITFT; MS; POS
Name: L-Cysteine
Name: L-2-Amino-3-mercaptopropionic acid
Class: Natural Product
Formula: C3H7NO2S
Exact mass: 121.01975
SMILES: N[C@@H](CS)C(O)=O
InChI: InChI=1S/C3H7NO2S/c4-2(1-7)3(5)6/h2,7H,1,4H2,(H,5,6)/t2-/m0/s1
Instrument: LTQ Orbitrap XL, Thermo Scientfic
Instrument type: LC-ESI-ITFT
Ms type: MS
Ion mode: POSITIVE
Collision energy: 35eV
Ionization: ESI
Column name: TOSOH TSKgel ODS-100V  5um Part no. 21456
Retention time: 5.014582 min
Base peak: 122.026833
m/z	relative intensity
100.021471	2
100.111848	2
102.033748	2
102.054776	5
104.014934	1
104.035976	1
104.051812	2
104.061637	1
104.063441	1
104.065246	1
104.066048	1
104.066850	2
104.067652	2
104.068655	8
104.070259	459
104.071663	8
104.072064	7
104.073067	1
104.073869	2
104.075072	1
104.075473	1
104.077077	1
104.079484	1
104.088911	2
104.104559	1
104.125829	1
104.173209	1
105.000100	14
105.073503	16
106.074401	1
110.019528	1
121.636727	1
121.896362	1
121.956376	2
121.983346	1
122.003198	4
122.005234	1
122.011343	1
122.012871	1
122.013889	1
122.014907	1
122.015671	1
122.017453	1
122.017962	1
122.018981	1
122.019490	1
122.020508	2
122.022545	4
122.023309	3
122.024836	16
122.026873	999
122.028401	16
122.029165	14
122.029929	2
122.030947	4
122.032730	1
122.033239	2
122.035276	1
122.036804	1
122.038332	1
122.039350	1
122.040369	1
122.041897	1
122.043425	1
122.044443	1
122.050301	4
122.070424	1
122.097431	2
122.157594	1
122.167796	1
122.418900	1
123.023377	1
123.025697	2
123.028017	1
123.029821	24
123.031625	1
124.020398	1
124.022485	38
124.024050	1
124.024833	1
124.030312	2
133.060359	5
134.080598	1
141.958171	3
149.022904	4
155.142526	1
158.002552	8
158.096003	1
158.960490	1
163.132671	1
170.095866	1
171.149125	30
172.152025	1
174.127584	10
175.130110	1
179.062747	1
182.984796	4
186.955501	1
187.126060	5
199.179842	3
216.971817	1
223.062608	2
266.194902	2
279.157671	1
284.151044	1
296.964457	1
336.236491	1
354.192017	1
380.261407	1
391.282894	33
392.286254	4
399.141807	1
426.356690	1
436.339497	2
494.344951	12
495.349218	2
512.302397	2
513.302597	1
