Mass spectrum: S-Adenosyl-L-homocysteine; LC-ESI-ITFT; MS; NEG
Name: S-Adenosyl-L-homocysteine
Name: S-Adenosylhomocysteine
Class: Natural Product
Formula: C14H20N6O5S
Exact mass: 384.12159
SMILES: OC(=O)[C@@H](N)CCSC[C@@H](O1)[C@@H](O)[C@@H](O)[C@@H]1n(c3)c(n2)c(n3)c(N)nc2
InChI: InChI=1S/C14H20N6O5S/c15-6(14(23)24)1-2-26-3-7-9(21)10(22)13(25-7)20-5-19-8-11(16)17-4-18-12(8)20/h4-7,9-10,13,21-22H,1-3,15H2,(H,23,24)(H2,16,17,18)/t6-,7+,9+,10+,13+/m0/s1
Instrument: LTQ Orbitrap XL, Thermo Scientfic
Instrument type: LC-ESI-ITFT
Ms type: MS
Ion mode: NEGATIVE
Collision energy: 35eV
Ionization: ESI
Column name: TOSOH TSKgel ODS-100V  5um Part no. 21456
Retention time: 5.470223 min
Base peak: 383.113373
m/z	relative intensity
105.001732	1
107.036402	9
109.040813	6
110.036061	2
112.985735	2
129.001639	2
133.965971	1
134.019597	1
134.026632	1
134.028684	2
134.033668	1
134.036893	1
134.039239	2
134.041877	4
134.044516	13
134.046862	408
134.048328	7
134.049501	12
134.051847	4
134.054486	2
134.056832	1
134.059764	1
134.064750	1
134.066803	1
134.074135	1
134.128119	1
135.044046	6
135.047901	1
135.050273	17
139.006718	1
147.012010	2
150.979901	1
152.046464	2
158.925325	3
176.038616	7
176.935622	1
188.038674	8
192.990400	1
211.000984	4
229.011286	1
230.946518	1
242.065227	1
242.071631	2
242.078035	106
242.084439	2
242.090133	1
243.074492	1
243.080936	9
244.081438	1
248.053564	1
248.059469	28
248.066112	1
249.062674	2
250.054795	1
272.956594	4
278.054598	3
280.052032	1
282.066592	1
288.076090	1
288.083480	60
288.091794	1
289.080071	1
289.086572	6
290.966890	4
305.073594	1
328.044651	3
346.044684	1
346.055630	26
347.058776	3
356.070845	1
382.721818	2
382.982234	2
382.987898	1
383.007723	1
383.016220	1
383.024718	1
383.028967	1
383.036048	1
383.043130	1
383.050212	1
383.054461	1
383.065793	2
383.070042	1
383.075708	4
383.088457	7
383.094124	1
383.101207	20
383.113958	999
383.126709	18
383.132376	2
383.136627	5
383.149379	4
383.155047	2
383.160715	2
383.169217	1
383.174885	1
383.179137	1
383.186222	1
383.194725	1
383.200394	1
383.208898	1
383.217402	1
383.223071	1
383.237245	1
383.244332	2
383.276936	1
383.505281	1
384.077748	1
384.091969	1
384.104769	3
384.116147	159
384.123259	2
384.128948	3
384.140328	1
384.153130	1
385.098001	1
385.109423	37
385.117991	8
386.112291	4
386.119458	1
402.010573	1
405.095244	3
408.011501	9
409.014549	1
419.091250	3
421.087236	1
426.021226	2
437.033682	1
445.040840	1
446.108804	2
451.100987	2
453.076889	1
481.081191	2
483.038844	1
497.106255	1
498.043595	1
531.169148	6
532.172036	1
540.054094	29
541.056107	3
542.068065	1
557.997697	1
558.020110	1
558.045015	3
558.064941	201
558.077394	1
558.087358	3
558.104795	1
558.127214	1
559.067567	32
560.067889	4
572.079861	10
573.084221	1
580.046836	1
582.020809	1
626.176971	1
626.200655	72
626.227301	1
627.202519	13
628.194891	2
628.206790	1
650.160571	1
662.102332	21
663.104503	3
664.118652	2
665.122165	1
670.118296	1
682.128410	1
698.126516	1
767.127384	1
767.167528	1
767.199645	4
767.235780	235
767.255856	2
767.271917	3
767.300025	1
767.340183	1
768.204331	1
768.236513	74
768.264675	1
768.276744	1
769.231144	7
769.247268	4
770.235786	2
771.234303	1
789.217982	3
790.220075	1
791.194645	1
811.149441	1
820.149421	1
821.153222	1
869.285871	14
870.293930	4
871.294026	1
905.191356	2
906.195527	1
942.186937	2
943.193109	1
1010.328492	1
1046.223303	4
1047.227803	2
1112.363994	1
1113.374013	1
1151.357255	5
1152.361730	2
1153.352721	1
1154.359809	1
1205.275234	1
1253.407968	1
1254.414628	1
1290.312361	1
1394.453587	1
