Mass spectrum: L-Cysteine Sulfinic acid; LC-ESI-ITFT; MS2; m/z:154.02; POS
Name: 3-Sulfino-L-alanine
Name: L-Cysteinesulfinic acid
Name: 3-Sulphino-L-alanine
Name: 3-Sulfinoalanine
Name: L-Cysteine Sulfinic acid
Class: Natural Product
Formula: C3H7NO4S
Exact mass: 153.00958
SMILES: N[C@H](C(O)=O)CS(O)=O
InChI: InChI=1S/C3H7NO4S/c4-2(3(5)6)1-9(7)8/h2H,1,4H2,(H,5,6)(H,7,8)/t2-/m0/s1
Instrument: LTQ Orbitrap XL, Thermo Scientfic
Instrument type: LC-ESI-ITFT
Ms type: MS2
Ion mode: POSITIVE
Collision energy: 35eV
Ionization: ESI
Column name: TOSOH TSKgel ODS-100V  5um Part no. 21456
Retention time: 6.747752 min
Base peak: 135.872330
Precursor m/z: 154.02
m/z	relative intensity
72.066635	1
74.048355	15
87.978905	34
107.984238	154
113.022476	3
135.872330	999
154.100464	1
