Mass spectrum: NADH; LC-ESI-ITFT; MS2; m/z:665.12; NEG
Name: NADH
Name: DPNH
Class: Natural Product
Formula: C21H29N7O14P2
Exact mass: 665.12477
SMILES: NC(=O)C(C5)=CN(C=C5)[C@H](O1)[C@H](O)[C@H](O)[C@@H](COP(O)(=O)OP(O)(=O)OC[C@@H](O2)[C@@H](O)[C@@H](O)[C@@H]2n(c4)c(n3)c(n4)c(N)nc3)1
InChI: InChI=1S/C21H29N7O14P2/c22-17-12-19(25-7-24-17)28(8-26-12)21-16(32)14(30)11(41-21)6-39-44(36,37)42-43(34,35)38-5-10-13(29)15(31)20(40-10)27-3-1-2-9(4-27)18(23)33/h1,3-4,7-8,10-11,13-16,20-21,29-32H,2,5-6H2,(H2,23,33)(H,34,35)(H,36,37)(H2,22,24,25)/t10-,11-,13-,14-,15-,16-,20-,21-/m1/s1
Instrument: LTQ Orbitrap XL, Thermo Scientfic
Instrument type: LC-ESI-ITFT
Ms type: MS2
Ion mode: NEGATIVE
Collision energy: 35eV
Ionization: ESI
Column name: TOSOH TSKgel ODS-100V  5um Part no. 21456
Retention time: 9.526467 min
Base peak: 408.050110
Precursor m/z: 665.12
m/z	relative intensity
193.237411	1
211.308899	7
214.247070	2
255.321136	2
273.169067	169
274.297974	5
291.243713	1
299.277344	25
300.371002	2
310.408142	1
317.250916	11
328.269836	127
329.405090	11
335.336548	40
336.379852	3
346.278503	294
347.354736	20
379.350098	1
397.159485	958
398.209167	68
399.540283	1
400.287415	6
401.349548	1
408.050110	999
409.026733	67
415.133545	4
426.131409	18
427.156738	1
431.122437	4
442.100708	1
468.073486	3
498.120972	12
499.162903	1
511.060486	1
529.026855	14
530.092834	1
540.157288	1
548.153137	1
566.226990	15
567.262207	2
584.267822	5
585.364685	1
621.144958	1
646.266785	2
