Mass spectrum: L-Homocysteine; LC-ESI-ITFT; MS2; m/z:118.03; POS
Name: L-Homocysteine
Name: L-2-Amino-4-mercaptobutyric acid
Class: Natural Product
Formula: C4H9NO2S
Exact mass: 135.03540
SMILES: SCC[C@H](N)C(O)=O
InChI: InChI=1S/C4H9NO2S/c5-3(1-2-8)4(6)7/h3,8H,1-2,5H2,(H,6,7)/t3-/m0/s1
Instrument: LTQ Orbitrap XL, Thermo Scientfic
Instrument type: LC-ESI-ITFT
Ms type: MS2
Ion mode: POSITIVE
Collision energy: 35eV
Ionization: ESI
Column name: TOSOH TSKgel ODS-100V  5um Part no. 21456
Retention time: 5.490005 min
Base peak: 89.955261
Precursor m/z: 118.03
m/z	relative intensity
56.118984	2
58.036476	5
58.733578	1
61.916149	3
71.965706	328
72.961220	4
75.879128	2
76.952377	2
82.541306	2
89.955261	999
90.995872	6
97.254013	5
100.070114	19
101.017517	12
106.063461	4
