Mass spectrum: ADP; LC-ESI-ITFT; MS; NEG
Name: ADP
Name: Adenosine 5'-diphosphate
Class: Natural Product
Formula: C10H15N5O10P2
Exact mass: 427.02941
SMILES: Nc(n3)c(n2)c(nc3)n(c2)[C@H](O1)[C@H](O)[C@H](O)[C@@H](COP(O)(=O)OP(O)(O)=O)1
InChI: InChI=1S/C10H15N5O10P2/c11-8-5-9(13-2-12-8)15(3-14-5)10-7(17)6(16)4(24-10)1-23-27(21,22)25-26(18,19)20/h2-4,6-7,10,16-17H,1H2,(H,21,22)(H2,11,12,13)(H2,18,19,20)/t4-,6-,7-,10-/m1/s1
Instrument: LTQ Orbitrap XL, Thermo Scientfic
Instrument type: LC-ESI-ITFT
Ms type: MS
Ion mode: NEGATIVE
Collision energy: 35eV
Ionization: ESI
Column name: TOSOH TSKgel ODS-100V  5um Part no. 21456
Retention time: 8.912552 min
Base peak: 426.021423
m/z	relative intensity
106.028582	1
112.956156	1
112.985648	1
113.955266	1
114.951622	15
114.953485	1
115.951431	1
122.956571	1
126.904790	1
134.039401	1
134.041160	1
134.042333	1
134.044679	2
134.047318	71
134.049664	2
134.052009	1
135.031165	4
135.050437	3
138.980262	1
139.006887	1
140.966957	1
142.946495	1
142.985897	1
148.952461	2
148.972040	1
150.980097	4
151.016205	1
152.967175	1
158.890719	1
158.918724	2
158.921752	4
158.925159	154
158.927052	4
158.928566	5
158.931216	2
158.938030	1
158.959989	1
160.929262	1
166.982623	1
168.961750	5
172.781340	1
174.918078	1
174.979722	2
176.935406	3
180.998407	1
184.425926	1
184.985084	4
187.041771	1
191.019252	1
192.990127	3
194.888817	1
194.977259	1
195.006067	1
196.956591	2
196.993152	1
203.013802	2
211.000652	4
212.003681	1
214.012975	2
214.968494	2
218.904226	2
230.854649	1
230.918281	1
236.867549	1
236.914390	1
238.862275	12
238.891572	1
240.858999	1
240.982637	1
246.937933	1
247.857645	1
254.878057	1
254.945723	1
255.876549	2
256.873140	15
256.961835	3
258.869706	1
258.949202	1
262.964725	1
264.864211	1
264.878056	1
268.977807	2
269.014482	1
269.079516	1
272.915198	1
272.927976	1
272.956942	22
273.959953	1
274.972811	1
275.940194	1
280.859882	28
280.864328	1
280.873222	1
282.863404	1
284.904793	1
290.880064	1
290.925059	2
290.967251	7
292.811064	1
292.873552	1
294.888561	1
298.057688	1
298.823303	3
298.870154	12
298.875035	1
298.930686	2
299.822237	3
300.809430	1
300.818301	40
300.823230	1
301.818347	2
302.815423	3
302.822392	1
306.076106	1
306.875891	10
306.879953	1
306.889095	1
309.813778	3
310.820744	3
310.883907	1
311.009254	1
312.007481	1
312.948802	1
313.004245	12
314.006843	2
314.924499	1
316.833708	1
316.880594	1
316.941349	2
317.833365	1
318.800118	1
318.829156	7
318.889397	2
318.933512	1
318.960417	2
324.885669	1
324.967555	1
328.034964	1
328.045066	43
328.054047	1
328.063028	1
329.047542	4
329.877963	1
330.060285	6
332.936118	2
334.870413	3
334.884307	1
334.986219	1
335.948566	1
336.840301	1
336.885858	3
336.899877	4
338.987934	1
346.034174	1
346.037823	1
346.043903	1
346.047552	1
346.054849	81
346.060931	2
346.065796	1
346.074310	1
346.417574	1
347.051882	1
347.057990	6
348.886487	3
350.902031	2
351.898898	1
352.831141	1
352.852428	1
352.879980	1
352.893756	3
355.906314	1
359.010300	1
360.826690	1
360.886264	7
365.909310	1
368.845393	1
378.807322	2
378.854686	1
378.874192	1
378.883945	1
378.896485	57
378.903453	1
378.907633	1
379.898948	2
380.784633	1
380.901180	1
386.015315	1
390.759876	1
391.987175	1
392.016502	15
393.019989	1
394.780572	1
394.891742	1
396.906839	3
397.404791	1
397.858697	1
398.765837	1
398.854615	8
400.851636	1
402.011062	3
407.850110	4
407.983972	2
407.997985	2
408.010441	103
408.024455	2
408.036912	1
409.015048	10
409.998273	1
410.013959	2
410.026507	57
410.034350	1
410.039057	1
410.922090	1
411.029127	4
412.030689	1
414.870582	1
416.865400	2
425.255260	1
425.561938	1
425.868948	3
425.890534	1
425.908801	1
425.913783	1
425.933712	1
425.956964	1
425.963607	2
425.976895	2
425.993506	7
426.006796	16
426.011779	10
426.021747	999
426.030054	17
426.035038	19
426.048329	9
426.063283	3
426.073252	1
426.078237	2
426.083222	1
426.106486	1
426.113134	1
426.119781	1
426.126429	1
426.136400	1
426.149696	1
426.174628	3
426.482302	1
427.010280	1
427.025284	95
427.038622	2
427.051960	1
428.025679	12
429.027914	1
429.993240	1
432.008324	1
433.984651	1
440.763925	1
446.422819	1
447.980838	1
448.004127	30
449.007275	3
449.979529	1
451.995261	2
456.032611	1
456.402658	1
458.834760	1
458.862614	1
462.937960	1
463.976609	1
464.008710	1
465.479477	1
467.942518	1
467.990334	6
469.937832	2
469.959005	3
469.985954	7
470.488781	1
470.940278	1
470.957656	2
470.988553	1
471.953683	26
471.980804	1
472.958703	2
473.951341	1
477.945410	1
479.941539	12
479.965378	5
479.991205	1
480.003126	3
480.466400	1
480.942302	1
480.950273	1
480.970201	1
482.002173	1
485.952899	8
486.952230	7
487.930211	1
487.948538	84
487.958720	2
487.964830	1
487.981122	1
488.951992	6
489.946251	5
489.974937	1
489.981084	1
489.993379	49
490.951764	1
490.996982	5
491.447449	1
491.943884	4
491.997487	1
492.447267	1
494.009766	2
495.984327	5
496.441675	1
496.945700	1
500.948471	1
501.924319	1
501.973187	1
504.939769	12
505.944509	1
505.959560	1
505.987513	1
506.422165	1
506.943625	1
509.443539	1
509.932687	1
509.945741	1
509.974025	2
510.928372	1
511.935729	1
511.953237	1
511.975122	2
513.748135	1
513.873559	1
513.897769	1
513.904372	1
513.915377	3
513.930785	7
513.950596	424
513.970409	7
513.988021	3
514.007835	1
514.025449	1
514.155380	1
514.452865	2
514.916132	1
514.936000	1
514.953662	37
515.917599	1
515.955239	7
515.979596	2
516.957520	1
522.933575	1
522.949390	10
523.433234	2
523.931344	6
523.954002	1
524.017453	2
524.432435	2
524.938789	6
524.975147	1
525.946863	4
526.948703	1
527.909864	1
528.428149	4
529.946101	28
530.947838	2
531.915331	3
531.924602	2
531.940827	3
531.947781	2
531.961689	211
531.973279	4
531.980233	3
531.998779	1
532.913361	2
532.934280	2
532.964499	20
532.976122	1
533.909541	39
533.921195	1
533.928188	1
533.953829	3
533.965484	4
534.913192	4
535.905612	2
535.933739	4
536.936054	1
538.035485	1
538.405859	1
540.012082	3
540.052389	1
540.909384	3
541.916162	1
541.959066	1
541.980520	1
542.882734	1
542.904243	69
542.923363	1
542.980729	1
543.416050	1
543.907012	4
543.914202	2
543.974122	4
544.907755	1
544.917368	1
544.979858	1
545.973924	1
547.955692	5
548.960345	1
549.904414	3
549.923905	23
550.907105	1
550.924206	22
550.943751	3
551.694585	1
551.861101	1
551.878246	2
551.897842	5
551.905191	3
551.919889	285
551.932138	6
551.939487	4
551.959087	2
551.983587	1
552.003189	1
552.145332	1
552.923187	27
553.284454	1
553.916908	17
553.944002	2
554.000660	1
554.920719	2
555.266641	1
556.919162	1
557.973479	3
558.063134	4
558.898464	3
558.973361	3
559.905841	1
559.933375	1
559.955905	80
559.968423	46
560.913433	2
560.961123	8
560.973674	5
561.958983	1
561.966533	3
563.912103	1
567.887365	1
567.915491	3
567.933390	1
568.944791	1
568.965303	3
569.930620	8
569.974322	1
573.902264	3
575.925867	1
575.951981	1
577.920818	1
578.880078	1
579.915598	2
579.952538	2
580.797844	1
580.924800	1
581.939290	3
581.952551	3
582.940485	1
585.881915	1
587.872309	1
588.910461	7
591.899970	1
593.888322	2
593.918402	12
594.920525	1
595.883963	1
601.967884	1
603.889452	1
603.937118	1
603.956747	1
603.981986	65
603.996008	2
604.987207	7
605.989303	1
609.911687	5
609.940146	16
610.914637	1
610.943166	2
611.142925	2
611.897184	1
611.920062	1
612.014448	1
612.853439	1
613.846416	1
613.875151	2
619.907761	2
619.977751	1
620.018584	8
621.023186	1
621.892496	1
621.945240	4
622.869349	1
622.945717	3
623.939776	43
623.966277	1
624.945071	5
625.305327	3
625.935046	1
625.964633	6
626.308003	2
626.968896	1
627.942875	1
627.981524	1
629.870772	2
629.897653	1
631.858572	1
631.885580	3
632.934214	6
638.030973	1
639.895442	2
640.899709	1
645.922564	2
650.001644	1
650.835271	1
655.931175	1
659.852522	1
663.935175	1
665.911177	2
667.889491	1
683.920031	1
685.867196	1
687.482003	1
687.959034	3
691.954822	1
697.852109	1
699.943077	4
700.944752	1
703.878029	1
711.916318	1
719.903291	1
721.039573	1
727.465354	2
727.966054	1
735.512621	1
737.449757	1
737.941865	1
742.068353	9
742.442771	1
743.069983	2
743.885781	1
744.311447	1
745.425275	1
746.954125	1
747.451918	1
749.420940	1
749.928961	1
750.919339	1
763.038142	1
766.105670	2
773.083727	1
773.855908	1
774.087788	1
781.047578	1
781.910205	1
801.002674	1
802.014428	1
803.996316	1
805.925039	1
808.116724	3
814.842359	1
816.999948	1
852.033653	1
853.049499	5
854.053016	1
861.012912	7
862.016173	1
875.033871	1
877.012915	1
880.971437	1
890.975746	1
896.964924	2
897.970683	1
905.980119	1
914.980255	1
915.974575	1
916.283667	4
917.290609	2
919.251556	1
924.986219	1
937.246236	1
940.981609	16
941.985849	3
942.986228	1
959.941520	1
960.936877	6
961.939419	1
962.960468	1
969.936643	1
977.953115	1
978.947690	2
982.923733	1
1004.951265	1
1005.969235	3
1006.976678	1
1042.538760	1
1099.517432	1
1101.925352	1
1105.965432	6
1106.966746	1
1149.684795	1
1153.805474	1
1165.985321	3
1166.986407	1
1168.803694	1
1205.956640	2
1210.017927	1
1215.419601	1
1233.978145	1
1255.944988	1
1265.978062	7
1266.982865	2
1267.988864	1
1282.971940	1
1355.948671	2
1359.767792	1
1365.974981	6
1366.977040	2
1382.966749	1
1420.956586	1
1455.925551	1
1465.969084	3
1466.977026	1
1482.955151	1
