Mass spectrum: Acetyl-CoA; LC-ESI-ITFT; MS; NEG
Name: Acetyl-CoA
Name: Acetyl coenzyme A
Class: Natural Product
Formula: C23H38N7O17P3S
Exact mass: 809.12577
SMILES: CC(=O)SCCNC(=O)CCNC(=O)C(O)C(C)(C)COP(O)(=O)OP(O)(=O)OCC(O1)C(OP(O)(O)=O)C(O)C1n(c2)c(n3)c(c(N)nc3)n2
InChI: InChI=1S/C23H38N7O17P3S/c1-12(31)51-7-6-25-14(32)4-5-26-21(35)18(34)23(2,3)9-44-50(41,42)47-49(39,40)43-8-13-17(46-48(36,37)38)16(33)22(45-13)30-11-29-15-19(24)27-10-28-20(15)30/h10-11,13,16-18,22,33-34H,4-9H2,1-3H3,(H,25,32)(H,26,35)(H,39,40)(H,41,42)(H2,24,27,28)(H2,36,37,38)/t13-,16-,17-,18+,22-/m1/s1
Instrument: LTQ Orbitrap XL, Thermo Scientfic
Instrument type: LC-ESI-ITFT
Ms type: MS
Ion mode: NEGATIVE
Collision energy: 35eV
Ionization: ESI
Column name: TOSOH TSKgel ODS-100V  5um Part no. 21456
Retention time: 13.801157 min
Base peak: 808.117493
m/z	relative intensity
107.034756	1
107.036429	29
107.038103	1
108.039512	1
112.985536	3
114.951974	1
118.033335	1
120.969345	1
133.966001	1
134.019920	3
134.026076	1
134.027249	1
134.030180	1
134.031939	1
134.033405	1
134.036923	1
134.039562	4
134.043080	15
134.044546	18
134.045426	8
134.046892	507
134.049238	16
134.052170	5
134.054223	3
134.057155	1
134.058621	1
134.060381	1
134.061554	1
134.063020	1
134.066539	1
134.071819	1
134.073872	3
134.127856	1
135.044076	5
135.047931	1
135.050303	21
135.052675	1
136.964244	1
138.979815	1
146.082286	1
146.985110	2
150.979942	1
158.890179	1
158.915534	1
158.918941	1
158.922347	5
158.925375	137
158.928404	4
158.931810	1
158.934460	1
158.935217	1
158.960205	1
160.929484	1
163.016169	6
165.031894	1
166.974713	1
174.976497	1
174.979995	46
174.983931	1
175.957954	5
175.983093	2
176.935687	10
180.042364	1
181.026771	12
184.429073	1
184.985394	1
190.026882	1
191.011101	6
192.986409	1
192.990461	21
208.029182	1
208.033150	1
208.037685	26
208.042221	1
209.021349	1
209.040762	1
210.990034	1
210.991771	1
210.995824	1
211.001035	47
211.005668	1
212.004067	1
214.012777	2
217.119078	1
226.048124	1
226.951046	1
230.945915	1
236.068346	1
236.934844	1
238.862755	2
238.891354	2
242.982224	4
243.484630	3
254.940096	1
254.946249	24
254.950863	1
255.949009	1
256.872893	3
260.992913	5
261.063825	1
262.047622	2
269.993042	1
270.977219	2
272.928560	1
272.942190	1
272.949858	2
272.956674	96
272.964342	2
272.972011	1
273.959685	3
274.960482	1
275.016482	1
277.122354	1
279.074498	4
280.058315	2
284.901797	1
288.004138	1
290.966981	19
291.970101	1
292.810792	1
292.909267	1
297.085658	1
300.818022	2
304.033391	1
305.089794	5
306.093022	1
309.812460	1
310.034087	2
310.820455	1
312.948510	1
315.022423	8
315.523738	1
316.020943	1
321.038742	2
321.067000	2
321.085478	1
322.039820	1
322.044188	1
323.100444	2
324.935154	1
328.035776	1
328.044757	32
329.048359	3
332.993198	1
334.911780	4
336.027370	4
336.529514	1
338.987613	2
339.058375	1
339.061913	1
339.068991	2
339.078428	127
339.087865	2
339.094944	2
340.080987	13
341.073718	4
341.080858	1
346.044796	1
346.054526	41
346.065472	1
347.058887	3
349.930092	1
352.894683	1
352.922239	10
353.926476	1
357.078473	1
357.088672	74
357.098871	1
358.091553	6
359.084524	2
360.024836	1
370.932329	1
373.544258	1
381.077872	1
381.089116	58
381.100361	1
382.091832	7
382.549434	15
383.051764	3
383.084344	2
383.999680	3
385.056736	2
386.014974	1
390.000304	2
392.997559	1
394.528406	1
399.087623	1
399.099674	41
399.111725	1
400.101769	5
401.004457	4
401.015077	2
401.033284	3
401.051492	2
401.093983	1
401.101572	1
401.998511	1
402.010693	55
402.022876	1
403.003908	1
403.013079	5
403.542479	1
403.554732	20
404.014615	1
404.056043	4
404.507562	4
404.558289	1
405.010650	2
407.866842	1
407.971131	1
407.982029	1
407.985143	1
407.989814	1
407.997599	3
408.011612	193
408.024069	4
408.038084	1
408.053657	1
409.014659	19
409.508959	1
410.015136	2
410.026116	2
413.513299	1
414.546284	1
414.851028	1
419.029770	1
419.044356	42
419.057322	1
420.047723	4
421.040008	2
421.046537	1
423.991862	2
425.513437	1
425.979812	1
425.993101	2
425.999746	1
426.008052	3
426.021342	154
426.034633	3
426.049585	1
426.516843	1
427.024878	16
428.025273	2
429.992834	3
430.009680	1
430.512158	1
434.517668	3
435.019499	1
437.054529	10
438.057482	1
439.093442	2
443.015163	1
443.043352	2
443.089163	3
444.047554	1
448.003732	5
449.006880	1
459.036830	1
461.038978	2
461.053940	74
461.070774	1
462.058102	6
463.050487	2
463.059900	1
463.936552	1
465.982279	1
469.937412	4
469.966284	1
471.092432	2
472.964109	1
478.933561	1
479.066264	23
479.941105	3
480.068265	1
480.971759	1
480.981723	1
481.061451	1
484.966288	1
485.954479	1
487.948091	7
487.976602	9
488.980143	1
489.945801	1
489.966291	1
500.928946	1
502.975011	1
505.989196	5
506.992758	1
509.958321	1
510.078007	3
519.059736	5
520.064359	1
522.041810	1
522.982793	1
527.909369	1
529.945604	1
533.075597	6
533.892726	2
534.079229	1
537.069562	3
540.054254	3
541.020603	1
541.056268	1
541.896588	1
541.996700	3
542.910905	1
542.999345	1
547.909139	1
549.903901	9
550.909033	1
551.087415	3
551.899777	1
554.014925	1
556.010951	5
557.015496	1
558.062614	2
558.900440	5
563.997608	3
565.006122	1
567.914963	4
572.007652	3
575.088032	5
576.089878	1
593.098328	1
595.002230	1
599.017640	1
602.009187	1
606.174800	1
613.042101	1
613.059308	1
614.003918	1
617.966771	2
618.039336	1
619.965516	1
619.977182	1
619.994682	1
620.020932	63
620.044268	1
621.022616	7
621.965183	1
622.023798	2
625.952225	1
631.054559	6
632.014062	1
632.056090	1
633.963770	1
634.036155	1
635.065960	1
635.977054	1
638.006032	1
638.030390	51
638.057794	1
639.033320	7
640.035558	1
642.001017	1
643.966282	2
644.973962	1
649.047172	1
651.971741	2
652.047232	4
652.154199	1
655.052302	1
660.012070	2
661.015919	1
663.934572	1
668.130268	1
668.146583	1
673.064712	9
674.068739	1
674.972298	1
681.946883	1
686.141541	17
687.144353	2
688.145955	1
708.123229	2
710.099662	2
710.142564	2
711.105313	1
712.048482	3
713.047486	1
728.065606	1
728.121283	1
728.132419	1
728.150980	61
728.180678	1
729.061325	1
729.154314	10
730.059088	6
730.144813	1
730.159723	2
731.055167	1
736.024770	1
739.052150	5
740.059089	2
742.067693	55
742.102066	1
743.069322	10
744.072981	2
748.096422	1
748.115752	1
764.049945	1
766.072944	2
766.108999	126
766.141050	2
766.177109	1
767.111542	22
768.099966	2
768.116054	3
769.106421	1
770.074480	1
771.072684	1
772.068776	8
773.070861	2
774.062692	1
775.105355	1
777.078311	1
781.063386	3
786.156697	15
787.161308	4
788.088422	8
788.167845	1
789.059049	4
789.092551	2
789.561801	3
790.069230	2
790.111188	5
791.114983	1
792.015402	2
799.035405	4
799.539181	3
800.034883	1
801.010538	1
802.018016	1
803.539257	1
803.995612	1
804.055914	1
806.919447	1
807.716865	2
807.738550	1
807.807950	1
807.912065	1
807.929420	1
807.955453	1
807.964131	1
807.981487	1
808.007523	3
808.046578	4
808.059597	2
808.081296	13
808.116017	999
808.155080	13
808.176784	1
808.194147	5
808.207169	1
808.220192	2
808.233216	3
808.254922	1
808.267946	1
808.289654	1
808.315704	1
808.333072	1
808.515465	2
808.576277	1
808.997803	1
809.010845	1
809.036930	1
809.049973	1
809.080408	5
809.097800	2
809.119542	277
809.158678	3
809.197817	1
809.223911	1
809.236959	1
809.315251	1
809.571955	1
810.024748	8
810.072662	2
810.124936	43
810.164146	1
811.031831	1
811.114748	5
811.132206	4
812.115121	1
814.068763	1
816.703713	1
817.034532	1
819.019249	10
819.994356	1
820.025411	4
820.096400	2
820.495884	1
820.598021	1
820.997872	1
821.028984	1
821.095658	1
821.495873	2
822.092290	1
822.488777	1
822.707190	1
824.041843	1
824.108885	1
828.033834	1
829.002541	1
829.074699	1
829.503330	1
829.580067	1
830.000055	5
830.076861	14
830.099453	86
830.135603	1
830.501748	4
830.578624	7
831.003896	2
831.076315	3
831.103475	18
831.501970	1
831.578985	1
832.077575	17
832.109319	3
833.076103	3
834.021820	3
834.094634	4
834.572714	4
835.074000	3
835.096796	1
835.575738	1
838.008718	3
838.072888	1
838.508517	3
838.577331	1
839.004171	10
839.509455	8
840.005997	4
840.507583	2
841.005011	1
841.064917	1
841.120219	1
841.572064	1
842.010425	1
842.065821	1
842.088904	1
846.064110	2
847.064639	1
848.113605	1
849.099074	1
849.599471	1
850.001980	1
850.039437	5
850.086262	5
851.042337	7
851.089245	1
851.995327	1
852.032916	68
852.065809	1
852.084605	3
852.108102	49
852.145698	1
853.039347	18
853.109958	10
853.505543	1
853.990980	1
854.028701	4
854.118299	2
855.029224	1
855.043395	1
856.040970	1
856.533308	1
857.035552	1
858.079355	1
858.141094	1
858.582959	1
859.034679	2
859.077492	5
859.581976	5
860.082138	2
860.577967	1
861.031263	32
862.034557	11
863.020445	1
863.039605	3
863.576350	1
864.036815	1
864.075204	1
865.675408	1
866.002723	1
866.017168	1
866.046058	1
866.079765	4
866.123106	253
866.161634	3
866.204981	1
866.253148	1
867.077427	1
867.101547	1
867.125667	60
867.164262	1
868.047822	1
868.115472	4
868.129970	9
869.048887	1
869.121495	2
870.003201	1
870.046837	16
870.134118	1
871.046506	4
872.043034	1
874.090049	3
876.065891	1
881.039848	1
883.014528	1
888.102864	15
888.588092	1
889.108778	5
890.031114	1
890.081282	11
891.085535	3
892.026049	2
892.101556	1
893.028554	1
896.025959	2
897.009837	1
904.065827	1
905.021829	2
908.043681	2
909.047425	2
910.042460	18
910.083956	1
911.044326	7
912.032235	1
912.047846	2
913.042601	1
917.037939	1
919.034922	10
920.035860	4
920.072768	1
921.033154	1
928.070518	1
931.998346	1
932.999005	1
933.995884	1
942.023291	1
950.032911	1
964.050195	1
966.140369	1
990.099884	5
991.101262	2
1005.974429	3
1105.971489	3
1165.976874	1
1165.999441	1
1166.993014	1
1205.963608	1
1226.063369	1
1226.566402	1
1243.557095	1
1244.062643	1
1244.568499	1
1265.985598	3
1266.990410	1
1365.983499	3
1366.985568	1
1382.965721	1
1465.978627	1
1466.986580	1
