Mass spectrum: Guanosine; LC-ESI-ITFT; MS; POS
Name: Guanosine
Class: Natural Product
Formula: C10H13N5O5
Exact mass: 283.091669
SMILES: C1=NC2=C(N1[C@H]3[C@@H]([C@@H]([C@H](O3)CO)O)O)N=C(NC2=O)N
InChI: InChI=1S/C10H13N5O5/c11-10-13-7-4(8(19)14-10)12-2-15(7)9-6(18)5(17)3(1-16)20-9/h2-3,5-6,9,16-18H,1H2,(H3,11,13,14,19)/t3-,5-,6-,9-/m1/s1
Instrument: LTQ Orbitrap XL, Thermo Scientfic
Instrument type: LC-ESI-ITFT
Ms type: MS
Ion mode: POSITIVE
Collision energy: 35eV
Ionization: ESI
Column name: TOSOH TSKgel ODS-100V  5um Part no. 21456
Retention time: 5.505722 min
Base peak: 198.075668
m/z	relative intensity
100.111848	1
102.033553	1
102.054582	1
102.091007	1
110.034570	1
123.043741	1
128.044836	1
134.080891	1
135.022777	1
135.023962	1
135.043524	1
136.033941	1
136.056420	1
136.057319	1
136.058818	1
136.061516	155
136.064214	1
136.066013	1
136.066612	1
136.089100	1
137.045293	13
137.058324	1
137.064689	5
139.038624	4
141.958171	1
149.023248	1
151.514362	1
151.874319	1
151.958493	1
151.995297	1
152.023971	3
152.029990	1
152.031407	1
152.034947	1
152.036010	1
152.038488	1
152.039197	1
152.040259	1
152.042029	1
152.044154	1
152.046279	1
152.047341	2
152.050174	4
152.051591	6
152.053362	8
152.056549	855
152.059737	8
152.060799	4
152.061862	4
152.062570	5
152.064695	1
152.066112	2
152.067529	11
152.070362	1
152.073196	1
152.073905	1
152.077447	1
152.079572	1
152.080989	1
152.082406	1
152.083115	1
152.089137	4
152.117129	1
152.154345	1
152.239107	1
152.601651	1
153.040204	10
153.053436	11
153.059516	41
153.073109	1
154.056186	1
154.060159	1
158.002177	1
163.132278	1
165.054298	1
167.055748	2
171.148702	12
172.976690	1
174.127150	6
181.044183	1
181.049244	22
182.052360	1
182.076953	1
182.081130	56
182.085306	1
182.984796	4
183.083955	3
187.125577	2
190.988548	1
193.068373	1
194.117473	12
195.121081	1
196.060395	6
197.270009	1
197.804905	1
197.930028	1
197.985266	1
198.027369	3
198.038423	1
198.042634	1
198.048951	1
198.050004	1
198.052110	1
198.054216	1
198.057375	1
198.060534	1
198.062113	2
198.066325	4
198.068431	6
198.071064	8
198.075803	999
198.080542	8
198.082122	4
198.083701	4
198.084754	5
198.087914	1
198.090020	2
198.092127	1
198.093180	1
198.095287	1
198.096340	1
198.098447	1
198.100553	1
198.101606	1
198.103713	1
198.106873	1
198.112140	1
198.114247	1
198.124255	4
198.165874	1
198.221212	1
198.347257	1
198.886544	1
199.072100	1
199.073161	1
199.078467	88
199.083773	1
199.178780	1
200.079141	4
210.075326	3
222.111063	1
224.127351	1
242.561791	1
268.103376	1
269.087828	28
270.090289	1
283.849105	1
284.015383	1
284.066923	1
284.072349	1
284.075967	1
284.083202	2
284.086819	2
284.091342	4
284.098577	515
284.105813	3
284.107622	3
284.109431	2
284.113954	2
284.120286	1
284.123000	1
284.182713	2
284.349284	1
285.095216	3
285.101581	52
286.101679	2
286.104422	1
287.109806	4
303.105210	31
304.108430	1
306.201714	1
307.083094	63
307.089193	1
307.583792	10
308.079586	2
308.084693	1
330.057635	2
333.127873	1
348.069074	12
349.072120	1
349.125097	60
350.120341	1
350.126528	4
391.282894	6
392.284786	1
395.142987	3
396.146347	1
419.151054	1
420.135037	7
421.137180	1
435.147156	33
436.148462	2
466.155661	21
467.157219	2
481.165725	56
482.168074	6
483.171552	1
499.116803	1
526.334395	1
542.329516	1
552.178084	5
553.179390	1
567.189834	24
568.191334	3
588.349282	2
613.157071	18
614.159174	2
615.152208	1
631.158257	1
764.255221	2
850.281477	1
896.251120	2
1047.350261	1
1179.341253	1
