Mass spectrum: L-Glutamic acid; LC-ESI-ITFT; MS2; m/z:148.06; POS
Name: L-Glutamate
Name: L-Glutamic acid
Name: L-Glutaminic acid
Class: Natural Product
Formula: C5H9NO4
Exact mass: 147.05316
SMILES: OC(=O)CC[C@H](N)C(O)=O
InChI: InChI=1S/C5H9NO4/c6-3(5(9)10)1-2-4(7)8/h3H,1-2,6H2,(H,7,8)(H,9,10)/t3-/m0/s1
Instrument: LTQ Orbitrap XL, Thermo Scientfic
Instrument type: LC-ESI-ITFT
Ms type: MS2
Ion mode: POSITIVE
Collision energy: 35eV
Ionization: ESI
Column name: TOSOH TSKgel ODS-100V  5um Part no. 21456
Retention time: 4.835280 min
Base peak: 129.996063
Precursor m/z: 148.06
m/z	relative intensity
84.020493	43
101.994675	215
129.996063	999
131.079834	11
