Mass spectrum: NADP+; LC-ESI-ITFT; MS2; m/z:620.02; NEG
Name: NADP+
Name: NADP
Name: Nicotinamide adenine dinucleotide phosphate
Name: beta-Nicotinamide adenine dinucleotide phosphate
Name: TPN
Name: Triphosphopyridine nucleotide
Class: Natural Product
Formula: [C21H29N7O17P3]+
Exact mass: 744.08328
SMILES: NC(=O)c(c5)c[n+1](cc5)[C@H](O1)[C@H](O)[C@H](O)[C@@H](COP(O)(=O)OP(O)(=O)OC[C@@H](O2)[C@@H](O)[C@@H](OP(O)(O)=O)[C@@H]2n(c3)c(n4)c(c(N)nc4)n3)1
InChI: InChI=1S/C21H28N7O17P3/c22-17-12-19(25-7-24-17)28(8-26-12)21-16(44-46(33,34)35)14(30)11(43-21)6-41-48(38,39)45-47(36,37)40-5-10-13(29)15(31)20(42-10)27-3-1-2-9(4-27)18(23)32/h1-4,7-8,10-11,13-16,20-21,29-31H,5-6H2,(H7-,22,23,24,25,32,33,34,35,36,37,38,39)/p+1/t10-,11-,13-,14-,15-,16-,20-,21-/m1/s1
Instrument: LTQ Orbitrap XL, Thermo Scientfic
Instrument type: LC-ESI-ITFT
Ms type: MS2
Ion mode: NEGATIVE
Collision energy: 35eV
Ionization: ESI
Column name: TOSOH TSKgel ODS-100V  5um Part no. 21456
Retention time: 8.889110 min
Base peak: 408.052551
Precursor m/z: 620.02
m/z	relative intensity
175.174728	6
177.047180	9
193.125336	2
211.132980	2
214.166962	4
239.015152	2
255.101990	25
273.053223	218
291.149231	44
309.190674	1
310.182648	3
328.140869	50
334.980591	1
346.203796	29
353.089783	52
369.229919	1
371.079529	66
387.198425	6
390.178101	16
408.052551	999
408.929443	1
424.082520	3
426.070068	151
450.183167	1
467.086792	32
468.315674	2
470.115112	3
485.131470	192
488.151917	154
498.219727	2
504.139343	23
506.000061	469
506.604980	2
522.070984	355
522.695007	1
540.033508	47
540.757019	2
548.151245	1
560.178528	2
584.074707	38
602.009888	655
