Mass spectrum: L-Citrulline; LC-ESI-ITFT; MS2; m/z:159.08; POS
Name: L-Citrulline
Name: 2-Amino-5-ureidovaleric acid
Name: Citrulline
Class: Natural Product
Formula: C6H13N3O3
Exact mass: 175.09569
SMILES: NC(=O)NCCC[C@H](N)C(O)=O
InChI: InChI=1S/C6H13N3O3/c7-4(5(10)11)2-1-3-9-6(8)12/h4H,1-3,7H2,(H,10,11)(H3,8,9,12)/t4-/m0/s1
Instrument: LTQ Orbitrap XL, Thermo Scientfic
Instrument type: LC-ESI-ITFT
Ms type: MS2
Ion mode: POSITIVE
Collision energy: 35eV
Ionization: ESI
Column name: TOSOH TSKgel ODS-100V  5um Part no. 21456
Retention time: 4.838142 min
Base peak: 114.982117
Precursor m/z: 159.08
m/z	relative intensity
69.974167	543
72.034088	2
84.042389	1
86.050980	4
87.043808	21
97.072067	87
98.090714	3
106.972321	1
113.047028	556
114.026199	141
114.982117	999
115.954376	27
116.999420	3
117.906250	4
131.010880	19
140.965042	138
142.032684	23
144.124069	5
