Mass spectrum: L-Tyrosine; LC-ESI-ITFT; MS; POS
Name: L-Tyrosine
Name: (S)-3-(p-Hydroxyphenyl)alanine
Name: (S)-2-Amino-3-(p-hydroxyphenyl)propionic acid
Name: Tyrosine
Class: Natural Product
Formula: C9H11NO3
Exact mass: 181.07389
SMILES: OC(=O)C(N)Cc(c1)ccc(O)c1
InChI: InChI=1S/C9H11NO3/c10-8(9(12)13)5-6-1-3-7(11)4-2-6/h1-4,8,11H,5,10H2,(H,12,13)/t8-/m0/s1
Instrument: LTQ Orbitrap XL, Thermo Scientfic
Instrument type: LC-ESI-ITFT
Ms type: MS
Ion mode: POSITIVE
Collision energy: 35eV
Ionization: ESI
Column name: TOSOH TSKgel ODS-100V  5um Part no. 21456
Retention time: 5.740738 min
Base peak: 182.081039
m/z	relative intensity
100.111848	6
102.033553	5
107.069996	1
110.019746	5
111.020036	1
114.060180	1
119.048810	1
123.043741	6
123.054827	1
133.079206	1
136.075607	36
136.078005	1
137.078633	1
137.132305	2
141.958490	6
147.044009	1
149.002289	1
149.023248	4
151.096028	1
155.142891	1
158.002927	9
158.096379	1
163.132671	8
165.047890	1
165.050694	1
165.054699	58
165.057903	1
166.057775	4
167.012526	2
167.033727	1
170.096285	3
171.138130	2
171.149125	47
171.152509	1
172.152452	3
172.977120	8
173.078147	1
174.127584	19
175.089843	1
175.130986	1
179.064105	3
181.370389	1
181.835416	1
181.952647	2
181.999015	1
182.037978	4
182.047256	1
182.052824	1
182.054680	1
182.058392	1
182.060248	1
182.062104	1
182.064888	1
182.066744	1
182.068600	1
182.069992	2
182.073240	4
182.076953	10
182.077881	10
182.081130	999
182.083450	10
182.084842	15
182.088091	5
182.089947	1
182.091804	2
182.094589	1
182.096445	1
182.098302	1
182.099230	1
182.102015	1
182.102943	1
182.104800	1
182.106657	1
182.108513	1
182.115012	1
182.123832	4
182.162835	1
182.209748	2
182.327342	1
182.796056	1
182.984796	11
183.078340	1
183.080679	1
183.083955	97
183.087698	1
184.084708	3
184.086123	3
185.113668	1
186.183905	1
187.125577	9
190.028489	2
194.116962	1
195.122110	1
199.179842	7
208.190213	2
214.002990	1
220.111375	1
233.173966	1
277.199902	1
279.157671	1
282.220291	1
322.256836	1
344.204727	1
363.153232	1
391.282894	33
392.286254	5
413.263556	1
436.339497	3
437.343196	1
572.355860	10
573.360707	2
574.360402	1
577.965290	4
