Mass spectrum: Hypotaurine; LC-ESI-ITFT; MS; POS
Name: Hypotaurine
Name: 2-Aminoethanesulfinic acid
Class: Natural Product
Formula: C2H7NO2S
Exact mass: 109.01975
SMILES: NCCS(O)=O
InChI: InChI=1S/C2H7NO2S/c3-1-2-6(4)5/h1-3H2,(H,4,5)
Instrument: LTQ Orbitrap XL, Thermo Scientfic
Instrument type: LC-ESI-ITFT
Ms type: MS
Ion mode: POSITIVE
Collision energy: 35eV
Ionization: ESI
Column name: TOSOH TSKgel ODS-100V  5um Part no. 21456
Retention time: 4.799763 min
Base peak: 112.050293
m/z	relative intensity
104.069056	1
104.070460	51
104.071863	1
106.048406	1
106.049643	48
106.051294	1
108.011154	1
109.914106	1
109.966580	1
109.989454	1
110.006887	3
110.017131	1
110.021054	1
110.021708	1
110.023452	4
110.024324	3
110.025632	12
110.026940	510
110.028030	13
110.029556	1
110.030646	3
110.031736	1
110.032390	1
110.033698	1
110.037186	1
110.046998	3
110.064662	1
110.087131	1
110.139729	1
111.026001	1
111.030200	5
111.707055	1
111.934422	1
111.988350	2
112.011634	1
112.022607	3
112.023502	3
112.029773	5
112.031789	1
112.032461	1
112.034925	1
112.038285	1
112.039405	1
112.040077	1
112.041645	1
112.043661	1
112.044333	1
112.045005	3
112.046797	7
112.047693	5
112.048814	26
112.050382	999
112.051502	26
112.053966	6
112.055311	1
112.055983	3
112.056879	1
112.057327	1
112.057775	1
112.058672	1
112.059568	1
112.060016	1
112.060912	1
112.062257	1
112.063153	1
112.063601	1
112.064945	1
112.065394	1
112.070996	5
112.088926	1
112.112241	2
112.166298	1
112.395294	1
113.046992	2
113.047901	1
113.051987	1
113.053577	24
113.055393	1
115.111540	1
125.976065	1
125.997433	2
126.014799	1
126.015601	1
126.017739	2
126.018807	2
126.020143	9
126.021747	369
126.023350	9
126.026290	2
126.046334	2
127.020625	1
127.024952	3
128.017199	8
129.126648	1
131.500555	1
137.132002	1
143.048066	2
148.003496	1
149.022904	2
155.142891	1
158.096003	1
163.132671	1
170.097123	1
171.078942	2
171.148702	22
172.152025	1
173.494795	1
174.127150	8
174.129320	1
175.130548	1
179.063200	2
184.577270	1
185.058496	1
185.139360	1
187.074336	1
187.125577	3
195.122625	1
199.074222	1
199.179842	2
200.149722	1
201.053451	16
201.097074	1
214.120712	1
215.014772	1
215.060039	1
215.065996	3
215.069570	169
215.072549	3
215.113663	3
215.487800	1
216.066136	1
216.072135	3
217.064812	3
219.046304	19
219.049365	1
220.111991	1
221.042015	1
221.069951	26
223.035552	1
223.063237	14
223.076453	1
223.084005	1
223.089669	4
223.093445	253
223.097222	5
223.102257	1
223.104146	1
223.151361	1
224.089963	2
224.096299	14
224.099468	1
224.127351	1
225.097638	1
229.085044	3
231.064517	41
231.069161	1
233.059005	1
233.173966	1
234.979383	1
235.031099	1
235.033821	3
235.037224	4
235.041308	246
235.050837	1
235.052879	1
235.103938	1
236.040244	1
236.044354	6
237.036602	12
237.054525	1
237.064866	95
237.068313	1
237.070382	1
238.067725	3
239.060204	2
250.967191	1
251.027279	1
251.031787	4
251.036294	232
251.040802	4
251.046812	1
251.049066	1
251.105426	1
252.035461	1
252.039240	4
252.043019	1
252.179875	1
253.031482	10
253.039845	1
265.965354	1
273.017299	1
274.993717	1
277.995764	1
279.157671	1
282.191636	5
282.221186	1
295.085624	1
304.954627	1
326.067751	1
340.083124	11
340.502862	1
341.087518	1
342.078442	1
344.060028	3
356.078064	3
360.047857	1
360.055600	71
360.062053	1
360.065924	1
361.057807	2
362.051191	5
362.078518	7
366.247317	1
376.019745	1
376.040405	1
376.050047	62
377.053429	2
378.045560	6
380.033209	1
388.027128	1
391.272660	1
391.282894	39
392.286254	7
393.077002	1
395.013942	1
398.031039	1
403.009019	2
420.099254	1
420.603887	1
426.356690	1
429.967913	2
449.101250	3
451.081624	4
453.080591	1
465.098582	31
465.106161	2
465.515670	1
466.100535	1
467.092382	2
468.074008	1
468.083572	1
469.074083	15
469.083678	1
470.077366	1
471.070355	2
471.099324	1
475.083717	5
475.379199	1
475.582869	1
476.080847	2
479.112931	2
480.329506	3
481.091970	8
481.333231	1
483.079286	2
485.056744	2
485.070869	125
485.080958	2
485.569678	2
486.065209	4
486.073306	4
487.064641	11
487.078854	1
487.093068	12
488.069195	1
488.095673	1
489.060517	1
489.087075	1
494.344951	1
500.302595	5
501.032623	1
501.064400	47
501.074993	1
501.303881	1
502.059475	1
502.067974	1
502.325187	8
502.333693	1
503.059648	5
503.328288	2
518.089328	1
523.047253	1
529.026919	1
531.580387	1
536.604547	1
537.589670	3
538.089144	1
538.586952	1
539.577542	3
540.082160	1
545.114616	2
545.586100	1
547.574964	6
548.081150	1
548.573477	2
549.569856	1
554.982689	1
555.570908	1
576.095929	2
578.093913	4
589.164189	1
590.113445	13
590.533363	1
591.100284	1
592.108651	1
593.089588	1
594.089376	17
595.086209	1
595.094435	1
596.085554	3
596.113044	1
598.111150	1
600.097104	5
600.597224	1
601.100752	1
601.599340	1
602.084595	5
602.587202	1
603.082045	2
604.081976	1
605.084396	1
606.106223	7
607.113688	1
607.619777	1
608.095341	3
608.106671	1
608.599823	1
609.093574	1
610.065805	1
610.085728	89
610.099960	1
610.584140	4
611.080309	5
611.088869	5
611.579939	1
612.080183	9
612.091624	1
612.105927	4
613.079646	1
618.079043	1
619.078694	1
626.079550	21
627.083850	2
628.072730	3
646.115701	1
648.604589	1
652.619975	1
655.596582	2
656.596488	2
657.098891	1
657.595499	1
660.615871	1
662.605588	6
663.105228	2
663.602204	2
664.594599	5
665.093251	2
665.592464	2
666.592579	1
670.130450	1
670.602544	3
671.101406	1
671.127678	1
671.600826	1
672.591454	13
673.092539	5
673.587579	6
674.089776	1
674.589227	2
680.589286	2
681.586432	1
688.583844	1
701.110578	3
703.106537	1
715.125969	9
716.131218	2
718.104465	1
719.105076	11
719.611635	1
720.104129	2
720.604437	1
721.097951	3
723.628292	1
724.633105	1
725.112323	4
725.610476	2
726.109143	1
727.100613	3
727.600816	2
728.097826	2
728.602774	1
729.097091	1
731.120474	4
732.125971	1
732.635116	1
733.107298	2
733.122295	1
733.613714	1
734.109384	1
735.072116	1
735.079645	1
735.098467	65
735.117290	1
735.599411	4
736.097095	9
736.115957	1
736.599060	2
737.093979	11
737.116659	2
738.089103	1
740.093010	1
743.095077	1
743.592729	1
744.094714	1
751.094560	15
752.098700	1
753.085337	2
754.097384	1
764.147482	1
773.074567	1
773.610770	1
778.634138	1
779.620011	1
780.607757	1
781.609764	2
782.109426	1
782.605431	1
782.626108	1
785.632988	1
787.620769	3
788.117848	1
788.619581	1
789.121793	1
789.578385	1
789.607721	2
790.106683	1
790.606117	1
790.622913	1
793.629586	1
795.618139	2
796.118567	1
796.615220	1
797.605666	6
798.107970	2
798.602223	3
799.101202	1
799.600649	1
800.100565	1
805.604801	1
806.106035	1
806.603411	1
828.123133	2
829.118821	1
836.120926	1
837.121927	1
840.140341	2
841.153180	1
844.119320	7
844.619838	1
845.120802	1
846.114769	2
850.126953	3
850.628139	1
851.125078	2
852.115565	4
852.613808	1
853.112488	1
853.616317	1
856.137435	1
857.648830	1
858.123445	2
859.121420	2
860.078257	1
860.111608	21
860.616882	2
861.113055	5
861.609657	2
862.006292	1
862.106689	5
862.130596	1
863.111623	2
864.103922	1
868.109602	2
869.105695	1
876.107006	5
877.111993	1
878.103965	1
898.627689	1
904.636328	1
906.623385	1
907.128913	1
907.619369	1
908.120562	1
912.634411	2
913.139764	1
913.629888	1
914.621769	2
915.123545	2
915.620500	2
916.626109	1
917.113797	1
920.633500	1
921.631527	1
922.128504	1
922.594124	1
922.620591	4
923.118368	2
923.621851	2
924.115133	2
924.614121	1
925.113513	1
928.625960	1
930.617547	1
931.626486	1
941.582966	1
953.137846	1
960.640902	1
961.648375	1
962.132976	1
962.634867	1
965.155888	2
967.146891	1
969.132663	4
969.634339	1
970.136405	3
970.633148	1
971.130274	2
975.138317	1
975.644664	2
976.157166	1
977.125688	1
977.148765	1
977.639357	1
978.130319	3
978.627433	1
979.124927	1
980.132644	1
981.153528	1
983.136034	1
984.132457	1
984.476603	1
984.639990	1
985.130395	17
985.632856	2
986.129853	6
987.124973	5
988.127468	1
989.131491	1
993.115630	1
996.125491	1
1001.120565	2
1002.120492	1
1003.127919	1
1016.608761	1
1021.462841	1
1022.456354	1
1023.636874	1
1024.633562	1
1031.638793	1
1032.139677	1
1032.640925	1
1037.648301	1
1038.652882	1
1039.639926	2
1040.114968	1
1040.140313	1
1040.634720	1
1041.630941	1
1042.139120	1
1045.655714	1
1046.646364	1
1047.632018	3
1048.138186	1
1048.631893	2
1049.138786	1
1049.633200	2
1050.134392	1
1055.625921	1
1056.131411	1
1058.475659	1
1068.485074	1
1078.155532	1
1086.657621	1
1089.484574	1
1092.165752	1
1093.154972	1
1094.145537	3
1094.651585	1
1095.151139	2
1095.644185	1
1096.144419	2
1100.151758	1
1100.813736	1
1101.165654	1
1102.146396	2
1102.644174	1
1103.149209	1
1105.478238	1
1108.155995	1
1109.146092	1
1110.144503	6
1110.479937	1
1110.640719	1
1111.144263	3
1111.634148	1
1112.138368	3
1113.140823	1
1125.162684	1
1126.139974	1
1131.491167	1
1140.167657	1
1147.144212	1
1149.658201	1
1152.816022	1
1156.655303	1
1156.833650	1
1157.659039	1
1158.157674	1
1158.649183	1
1162.659927	1
1164.654345	2
1165.157507	1
1165.653479	1
1166.149767	1
1166.653899	1
1170.660920	1
1171.660219	1
1172.160349	1
1172.645629	2
1173.153979	1
1173.647471	2
1174.148874	1
1174.642993	1
1177.492152	1
1177.835664	1
1178.828876	1
1183.160158	1
1183.490772	1
1184.498848	1
1203.166186	1
1203.836511	1
1211.175555	1
1219.160634	1
1219.506453	1
1220.158280	1
1220.657562	1
1221.165212	1
1224.832892	1
1227.168098	1
1228.159332	1
1228.655399	1
1229.159906	1
1230.487756	1
1230.658985	1
1235.156314	3
1235.664831	1
1236.034113	1
1236.157244	2
1236.658165	1
1237.151171	2
1244.150641	1
1250.157019	1
1250.850289	1
1260.177430	1
1263.173980	1
1272.502363	1
1272.836816	1
1281.683083	1
1282.168572	1
1282.663014	1
1284.669735	1
1289.676571	1
1290.674443	1
1291.673474	1
1293.156629	1
1297.665601	1
1297.709751	1
1298.663922	1
1299.176782	1
1299.504110	1
1303.512826	1
1309.838303	1
1310.160711	1
1315.173300	1
1319.499202	1
1336.187315	1
1337.184245	1
1338.524472	1
1344.184792	1
1353.175227	1
1356.179512	1
1358.512592	1
1360.169229	1
1361.174152	2
1362.170693	1
1407.694001	1
1409.181613	1
1412.815680	1
1423.528677	1
1433.512712	1
1469.876679	1
1486.850975	1
1492.694274	1
