Mass spectrum: L-Glutathione (oxidized form); LC-ESI-ITFT; MS2; m/z:613.16; POS
Name: Glutathione disulfide
Name: GSSG
Name: Oxiglutatione
Name: Oxidized glutathione
Name: L-Glutathione (oxidized form)
Class: Natural Product
Formula: C20H32N6O12S2
Exact mass: 612.15196
SMILES: OC(=O)CNC(=O)[C@H](CSSC[C@H](NC(=O)CC[C@H](N)C(O)=O)C(=O)NCC(O)=O)NC(=O)CC[C@H](N)C(O)=O
InChI: InChI=1S/C20H32N6O12S2/c21-9(19(35)36)1-3-13(27)25-11(17(33)23-5-15(29)30)7-39-40-8-12(18(34)24-6-16(31)32)26-14(28)4-2-10(22)20(37)38/h9-12H,1-8,21-22H2,(H,23,33)(H,24,34)(H,25,27)(H,26,28)(H,29,30)(H,31,32)(H,35,36)(H,37,38)/t9-,10-,11-,12-/m0/s1
Instrument: LTQ Orbitrap XL, Thermo Scientfic
Instrument type: LC-ESI-ITFT
Ms type: MS2
Ion mode: POSITIVE
Collision energy: 35eV
Ionization: ESI
Column name: TOSOH TSKgel ODS-100V  5um Part no. 21456
Retention time: 8.880677 min
Base peak: 484.125000
Precursor m/z: 613.16
m/z	relative intensity
177.189987	1
179.230789	1
199.268494	1
209.046951	6
211.202118	11
231.216660	10
235.138214	7
256.336060	2
257.244629	1
262.139496	1
274.248962	1
280.326874	1
288.297058	5
298.206726	3
319.340576	1
322.190247	2
337.257996	6
338.179382	1
340.294006	2
355.193848	964
391.270081	1
409.289490	47
421.250244	1
466.217712	65
467.219849	1
484.125000	999
520.304382	3
538.255371	26
550.368591	1
577.192932	2
595.218994	215
595.848511	1
