Mass spectrum: L-Homoserine; LC-ESI-ITFT; MS; POS
Name: L-Homoserine
Name: 2-Amino-4-hydroxybutyric acid
Class: Natural Product
Formula: C4H9NO3
Exact mass: 119.05824
SMILES: OCC[C@H](N)C(O)=O
InChI: InChI=1S/C4H9NO3/c5-3(1-2-6)4(7)8/h3,6H,1-2,5H2,(H,7,8)/t3-/m0/s1
Instrument: LTQ Orbitrap XL, Thermo Scientfic
Instrument type: LC-ESI-ITFT
Ms type: MS
Ion mode: POSITIVE
Collision energy: 35eV
Ionization: ESI
Column name: TOSOH TSKgel ODS-100V  5um Part no. 21456
Retention time: 4.663240 min
Base peak: 120.065163
m/z	relative intensity
100.111659	3
102.033553	2
102.054582	25
110.019746	2
111.019815	1
114.065932	7
119.684590	1
119.936756	1
119.996570	2
119.999302	1
120.022396	1
120.042268	5
120.045001	1
120.045994	1
120.051957	1
120.053448	1
120.054442	1
120.056429	2
120.057920	1
120.058666	1
120.059411	2
120.059908	1
120.061150	5
120.063138	17
120.065126	999
120.067114	15
120.068605	4
120.069351	5
120.070593	2
120.071836	1
120.072582	1
120.073079	1
120.074073	2
120.075564	1
120.076558	1
120.077304	1
120.078546	1
120.080037	1
120.085257	1
120.087991	6
120.094703	1
120.107879	1
120.131005	1
120.133990	2
120.193703	1
120.447730	1
121.061547	1
121.066328	1
121.068341	36
122.068895	3
133.096606	1
137.132002	1
139.981382	1
141.958171	5
149.022904	3
155.142161	1
158.002552	11
158.095628	1
158.960490	1
163.132278	3
170.095866	1
171.137284	1
171.148702	30
172.152025	1
174.127150	11
175.130110	1
179.063200	2
182.984796	9
186.955501	1
187.125577	5
199.179311	3
219.989295	1
223.062608	4
233.173293	1
239.122352	1
279.157671	1
282.220291	1
290.205579	1
391.282894	20
392.284786	3
412.098105	1
426.355027	1
436.339497	1
510.341233	21
511.342245	4
