Mass spectrum: 3',5'-Cyclic AMP; LC-ESI-ITFT; MS; NEG
Name: 3',5'-Cyclic AMP
Name: Cyclic adenylic acid
Name: Cyclic AMP
Name: Adenosine 3',5'-phosphate
Name: cAMP
Class: Natural Product
Formula: C10H12N5O6P
Exact mass: 329.05252
SMILES: Nc(n4)c(n3)c(nc4)n(c3)[C@H](O1)[C@H](O)[C@H](O2)[C@@H](COP(O)(=O)2)1
InChI: InChI=1S/C10H12N5O6P/c11-8-5-9(13-2-12-8)15(3-14-5)10-6(16)7-4(20-10)1-19-22(17,18)21-7/h2-4,6-7,10,16H,1H2,(H,17,18)(H2,11,12,13)/t4-,6-,7-,10-/m1/s1
Instrument: LTQ Orbitrap XL, Thermo Scientfic
Instrument type: LC-ESI-ITFT
Ms type: MS
Ion mode: NEGATIVE
Collision energy: 35eV
Ionization: ESI
Column name: TOSOH TSKgel ODS-100V  5um Part no. 21456
Retention time: 9.783347 min
Base peak: 328.044464
m/z	relative intensity
107.034937	1
107.036402	18
107.038285	1
120.969568	1
133.015746	1
133.965678	1
134.019597	2
134.026925	1
134.028978	1
134.031909	1
134.032789	1
134.034254	1
134.036307	1
134.037186	1
134.038359	2
134.039239	1
134.039825	2
134.041877	8
134.044516	16
134.046862	542
134.048914	14
134.051553	8
134.054779	2
134.055952	1
134.057418	1
134.058885	1
134.060058	1
134.061231	1
134.064457	1
134.065336	1
134.067096	1
134.073842	2
134.127826	1
134.985063	9
135.044046	7
135.047901	1
135.050273	23
135.052348	1
138.979783	1
150.041817	7
150.979901	1
162.979942	2
164.995393	1
174.979931	2
192.990400	14
282.084493	6
306.076742	1
327.559131	1
327.733929	2
327.940280	3
327.949256	1
327.955988	1
327.964965	1
327.968332	1
327.971698	1
327.976187	1
327.978431	1
327.987409	1
327.991898	1
327.996387	1
328.004243	2
328.007610	1
328.012100	3
328.015467	2
328.018834	2
328.025569	9
328.035671	20
328.044651	999
328.052509	17
328.062612	10
328.068226	2
328.074962	3
328.079452	2
328.086189	2
328.090680	1
328.095171	1
328.099662	1
328.108645	1
328.112014	1
328.115382	1
328.122120	1
328.131104	1
328.137842	1
328.147949	3
328.155811	1
328.355815	1
329.029083	1
329.038104	2
329.047125	102
329.055019	2
329.057274	2
329.065169	1
330.047404	6
331.051114	1
346.054414	1
383.979641	1
396.032348	1
426.012920	5
427.969950	1
435.977481	2
611.136476	19
612.139589	2
656.804073	1
657.004472	1
657.014017	1
657.023562	1
657.045835	3
657.071292	6
657.096750	425
657.119027	5
657.125392	5
657.147670	3
657.185864	1
657.195413	1
657.392806	1
658.046112	1
658.074816	1
658.100332	94
658.119470	1
658.129039	1
658.151369	1
659.103018	10
660.104793	1
675.107961	1
679.079074	12
680.083191	2
711.015554	1
719.027406	2
757.024112	1
894.224456	1
940.190309	8
941.193284	2
942.197865	1
986.103402	1
986.150206	96
986.185312	1
986.202866	1
986.243826	1
987.151456	18
988.154232	3
989.158536	1
1008.135707	2
1009.140352	1
1029.946106	1
1040.074430	1
1269.233949	1
1315.194226	3
1316.213091	1
1337.192577	1
