Mass spectrum: Ribitol; LC-ESI-ITFT; MS2; m/z:135.07; POS
Name: Ribitol
Name: Adonitol
Class: Natural Product
Formula: C5H12O5
Exact mass: 152.06847
SMILES: OC([C@H]([C@H]([C@H](CO)O)O)O)
InChI: InChI=1S/C5H12O5/c6-1-3(8)5(10)4(9)2-7/h3-10H,1-2H2/t3-,4+,5-
Instrument: LTQ Orbitrap XL, Thermo Scientfic
Instrument type: LC-ESI-ITFT
Ms type: MS2
Ion mode: POSITIVE
Collision energy: 35eV
Ionization: ESI
Column name: TOSOH TSKgel ODS-100V  5um Part no. 21456
Retention time: 5.026190 min
Base peak: 117.016785
Precursor m/z: 135.07
m/z	relative intensity
56.952724	175
58.935917	5
69.026291	32
71.043434	27
73.091492	21
75.154556	5
88.090469	2
89.042221	28
90.061195	30
98.956818	745
102.984940	15
106.963074	53
114.013565	19
115.313583	4
117.016785	999
119.139130	5
122.711014	6
123.406754	4
125.021729	3
125.839890	2
