Mass spectrum: NADH; LC-ESI-ITFT; MS2; m/z:664.12; NEG
Name: NADH
Name: DPNH
Class: Natural Product
Formula: C21H29N7O14P2
Exact mass: 665.12477
SMILES: NC(=O)C(C5)=CN(C=C5)[C@H](O1)[C@H](O)[C@H](O)[C@@H](COP(O)(=O)OP(O)(=O)OC[C@@H](O2)[C@@H](O)[C@@H](O)[C@@H]2n(c4)c(n3)c(n4)c(N)nc3)1
InChI: InChI=1S/C21H29N7O14P2/c22-17-12-19(25-7-24-17)28(8-26-12)21-16(32)14(30)11(41-21)6-39-44(36,37)42-43(34,35)38-5-10-13(29)15(31)20(40-10)27-3-1-2-9(4-27)18(23)33/h1,3-4,7-8,10-11,13-16,20-21,29-32H,2,5-6H2,(H2,23,33)(H,34,35)(H,36,37)(H2,22,24,25)/t10-,11-,13-,14-,15-,16-,20-,21-/m1/s1
Instrument: LTQ Orbitrap XL, Thermo Scientfic
Instrument type: LC-ESI-ITFT
Ms type: MS2
Ion mode: NEGATIVE
Collision energy: 35eV
Ionization: ESI
Column name: TOSOH TSKgel ODS-100V  5um Part no. 21456
Retention time: 9.523295 min
Base peak: 397.128845
Precursor m/z: 664.12
m/z	relative intensity
211.153351	9
214.112732	1
245.195496	1
255.043457	2
273.070313	168
281.227356	1
291.229492	1
299.185120	22
306.938110	1
310.225342	1
317.238403	12
328.113342	147
335.145813	41
336.065216	1
346.206116	304
379.136169	1
397.128845	999
400.219666	6
408.077576	990
409.179443	1
415.051147	7
426.101990	21
431.262268	4
468.248413	2
498.172485	10
511.032837	1
529.123413	12
540.362122	1
548.275330	1
566.179321	13
584.314941	7
621.148376	1
646.035339	2
