Mass spectrum: 2-Oxoglutaric acid; LC-ESI-ITFT; MS; NEG
Name: 2-Oxoglutarate
Name: Oxoglutaric acid
Name: 2-Ketoglutaric acid
Name: alpha-Ketoglutaric acid
Name: 2-Oxoglutaric acid
Class: Natural Product
Formula: C5H6O5
Exact mass: 146.02152
SMILES: OC(=O)CCC(=O)C(O)=O
InChI: InChI=1S/C5H6O5/c6-3(5(9)10)1-2-4(7)8/h1-2H2,(H,7,8)(H,9,10)
Instrument: LTQ Orbitrap XL, Thermo Scientfic
Instrument type: LC-ESI-ITFT
Ms type: MS
Ion mode: NEGATIVE
Collision energy: 35eV
Ionization: ESI
Column name: TOSOH TSKgel ODS-100V  5um Part no. 21456
Retention time: 8.886265 min
Base peak: 145.014099
m/z	relative intensity
100.279851	2
101.021012	4
101.022930	11
101.024465	260
101.026191	9
101.027534	4
102.027917	5
103.173984	2
103.590438	2
103.920296	22
105.218284	2
105.517444	2
105.935822	2
106.980068	2
107.341177	2
108.938837	2
108.954520	2
109.655558	2
111.821418	2
112.289347	2
112.956156	3
112.985648	6
113.162839	2
113.955266	4
114.951622	36
115.003565	23
115.956621	2
116.214190	2
116.948090	3
116.983940	2
118.997762	2
119.184863	2
120.000507	2
120.668131	2
121.614537	2
122.819905	2
122.956571	4
123.946242	4
124.757875	2
125.024205	3
126.024293	4
126.904790	4
127.020741	17
127.684350	2
127.919920	5
128.035075	4
128.964432	3
130.424398	2
132.507253	2
132.575290	2
133.009241	3
133.011849	7
133.014168	191
133.015907	4
133.016776	7
133.018805	2
133.087816	2
133.624330	2
134.017415	3
136.357695	2
136.972255	5
137.047699	2
138.754566	2
139.006887	4
139.891704	6
139.970825	2
140.899628	6
140.966957	19
141.890061	4
142.890974	7
142.898073	3
142.943589	3
142.946173	4
143.034687	15
143.045999	8
143.889796	13
143.898601	7
143.951448	3
144.890890	3
144.892867	2
144.897480	8
144.959122	5
144.983856	4
145.002987	2
145.005956	4
145.008595	15
145.011235	34
145.014204	999
145.017173	34
145.019483	13
145.022453	3
145.044562	4
145.890482	11
145.898806	4
146.017408	42
146.019742	2
146.898099	11
147.018260	6
147.892403	3
148.900269	7
149.466916	2
149.953506	2
150.770370	2
150.834397	2
150.951361	6
151.006738	11
151.016205	11
152.966818	7
152.995417	3
153.055500	2
153.066591	2
154.947088	5
155.951123	16
156.505990	2
156.894379	20
156.959375	4
158.892990	10
158.938408	4
159.010361	9
159.029683	2
159.893658	21
160.532337	2
160.892241	20
160.990992	28
161.893591	10
161.950815	2
161.961719	7
162.892928	38
162.969548	18
163.024591	3
164.895156	12
166.915378	2
166.995669	37
167.999076	3
168.238353	2
168.961750	12
168.982084	3
169.981282	2
170.013526	3
170.772024	2
170.912934	3
170.977540	43
171.005844	8
171.010069	7
171.024012	11
171.945943	5
171.977470	2
172.913575	4
172.953533	3
172.974162	5
174.970102	17
176.906951	2
177.986338	3
178.982405	17
179.882886	2
179.927564	2
180.961608	17
182.398153	2
183.885787	2
184.469940	3
184.654215	2
184.953715	4
185.840327	2
186.981857	2
186.997799	2
187.019059	2
187.042255	2
189.020956	4
190.982347	4
191.978028	2
194.573590	2
194.940744	6
194.977259	5
194.996292	14
196.956591	6
198.989549	4
199.018720	6
199.037287	6
199.743162	2
199.940646	8
199.987659	2
200.427600	2
200.803390	2
200.933553	4
200.971226	2
200.985222	98
201.988099	3
202.924751	2
204.945696	3
204.980622	3
205.944334	3
206.081763	4
206.940727	48
206.977290	3
207.723598	2
207.940403	2
207.944369	4
208.956471	4
208.992998	8
209.552954	2
210.088121	2
210.904560	2
211.041772	3
214.214231	2
215.055460	14
216.437275	2
216.943496	8
216.979722	2
217.400615	2
217.950945	3
218.959307	7
218.977060	2
219.706180	2
219.873013	2
222.904393	3
224.925006	3
224.951139	21
227.972061	2
228.979475	12
231.008470	4
231.017757	4
231.031026	4
231.935965	3
232.977188	3
233.055142	2
233.066570	3
233.938884	3
233.975393	3
234.433834	2
234.971861	36
235.971969	4
235.975393	2
235.991146	4
236.428738	3
236.970205	2
236.972273	2
236.987436	17
241.010910	3
242.958834	3
243.008210	15
243.012505	2
243.263918	2
246.766469	2
246.913741	2
246.935733	7
246.971660	3
247.762570	2
247.937286	5
248.072320	2
248.692825	2
248.938266	7
249.742376	2
250.941972	8
250.966759	3
252.946406	4
252.982892	4
255.980202	2
256.961057	5
260.969271	3
261.040971	2
261.838827	2
262.054291	2
262.967142	4
264.962781	4
264.971744	2
264.982338	2
265.147034	3
265.949053	4
266.961444	5
266.997708	10
267.895937	2
269.078682	11
270.892388	3
271.058408	26
271.961970	25
272.088270	11
272.893052	3
272.933087	10
272.964610	2
272.969722	12
275.020197	3
278.962059	9
280.928369	4
280.977303	6
282.563441	2
284.904793	5
284.970221	2
284.992035	6
286.024698	6
286.904082	4
286.964688	3
287.020720	11
287.420771	2
287.903782	6
288.903149	7
289.017296	2
289.195612	2
289.965559	2
290.182106	2
290.903498	6
290.961625	19
290.981317	4
291.034778	15
292.905751	6
294.951715	9
296.900272	4
296.909937	8
296.972775	3
297.045305	2
297.837123	2
300.425380	2
301.016531	10
301.067846	3
302.980754	21
302.993707	7
303.080417	2
303.968581	2
305.031691	14
306.035643	2
306.076106	50
307.285609	2
308.072774	2
308.972730	4
308.992226	2
309.045594	5
309.938478	3
310.689302	2
310.791757	2
310.951233	4
311.167860	3
313.004245	11
313.016800	57
313.305777	2
314.020510	6
314.984692	2
314.993142	48
315.996829	5
316.035038	3
316.981862	8
317.030915	16
318.882942	3
320.956467	6
320.991233	25
321.956068	3
322.951574	66
322.998728	5
323.951704	5
323.955009	4
324.061892	2
325.183485	7
325.952611	2
328.057415	11
328.916769	2
328.982146	60
328.992292	3
329.985526	4
331.083401	5
331.946682	19
331.956966	3
332.954483	28
332.991217	22
333.955350	10
333.994556	5
334.046457	4
334.941048	4
334.951471	99
334.986219	3
334.998961	31
335.041827	14
335.955546	7
336.709525	2
336.954793	2
336.967648	3
338.186340	2
339.000905	9
339.009160	6
339.952193	3
341.950430	3
342.958562	7
343.340466	2
343.947055	102
343.957902	3
344.944669	4
344.954352	177
344.965246	3
345.561584	2
345.949061	3
345.957571	15
346.054849	13
346.955404	9
347.598537	2
350.513644	2
350.962891	6
350.967860	4
350.972829	2
351.001402	20
351.966255	4
352.962652	94
353.010265	3
353.929319	3
353.965803	4
354.936596	6
354.959338	5
356.925872	4
356.980660	6
357.930625	2
358.987168	6
359.924517	3
359.994192	6
360.923830	4
362.924532	4
366.118338	34
366.924373	4
366.936325	52
367.122311	4
368.134422	12
369.012743	8
369.938568	2
370.946159	4
372.905694	2
372.949234	2
374.077121	2
374.942515	4
374.948001	2
375.072857	10
376.949053	5
381.166768	2
386.873603	7
387.073515	19
388.076847	2
395.344319	2
398.874180	5
398.969016	2
399.881469	7
402.914113	3
403.915282	6
404.914029	8
405.083414	6
405.914940	3
406.882350	3
406.913364	4
407.396091	2
408.918170	2
408.988481	3
412.915411	36
413.080325	2
413.919106	4
414.294843	2
414.913691	14
415.915070	34
416.548797	2
416.913645	34
416.920079	4
416.979594	4
417.915821	23
418.894077	6
418.905416	2
418.915135	48
419.918038	6
420.916387	15
421.244517	2
421.919939	3
422.514933	2
423.004327	3
424.972084	2
424.983671	17
428.979229	3
430.938164	3
431.070026	2
432.919056	3
432.929267	5
436.782305	2
446.965058	3
446.988267	2
447.964716	2
448.303463	2
452.842487	2
452.922605	3
454.901337	3
455.343428	2
456.929969	4
461.001974	24
462.005967	4
462.939842	2
464.912680	2
468.973120	3
471.090922	2
474.080028	2
476.053928	2
478.977562	17
479.975311	11
480.331126	2
480.609694	2
480.958244	3
480.972194	177
480.986144	2
480.992123	3
481.976183	19
482.969283	10
482.979309	3
490.955875	8
490.976428	2
497.985446	2
500.222678	2
500.961181	4
501.958313	3
501.966812	3
502.954163	33
503.959392	4
504.952631	2
511.343191	10
511.948860	6
512.141499	6
512.349585	2
514.155380	7
514.929378	2
515.156837	3
518.584658	2
518.966397	3
522.892910	3
524.900162	3
528.825405	2
528.921917	3
528.951794	2
530.880813	2
531.887519	3
534.121706	5
534.938904	4
536.137730	6
541.218497	4
542.335886	3
542.897074	2
543.334687	24
543.887840	4
544.338649	3
544.895740	3
545.215492	3
547.217313	6
551.014611	3
552.903536	3
559.193146	2
562.016875	2
563.007458	2
564.915314	4
566.878780	4
567.064974	3
569.024282	4
572.346924	3
573.344206	13
573.858108	2
573.863303	2
574.349297	3
574.398711	2
577.162984	2
591.630717	2
607.033448	2
620.228648	2
624.243172	2
631.201919	2
633.262259	3
639.721161	2
641.230899	2
642.444387	2
664.058013	2
673.227003	2
680.915753	3
686.893214	2
696.683312	2
699.243880	2
701.355148	3
704.093296	2
705.316186	4
719.378076	2
737.287092	7
763.277129	2
771.000555	2
773.258382	2
785.915902	2
787.149482	2
800.095441	2
804.172935	2
811.434152	2
816.563337	2
829.797517	2
833.785964	2
837.688710	2
837.830727	2
857.861688	2
864.796212	2
890.699458	2
905.980119	7
912.001789	2
918.477993	3
925.613709	2
928.114038	2
975.231590	2
1005.969235	28
1006.976678	5
1007.949359	2
1015.873549	2
1065.225103	2
1066.000603	3
1067.218136	2
1072.945335	2
1093.883982	2
1096.774194	2
1104.646330	2
1105.909843	2
1105.965432	27
1106.966746	6
1134.401960	2
1150.031025	2
1150.812459	2
1151.041143	2
1154.887302	2
1165.985321	23
1166.986407	4
1167.988784	2
1185.213276	2
1186.864716	2
1197.574079	2
1198.302589	2
1205.956640	11
1206.962121	4
1225.975109	2
1232.358203	2
1234.461473	2
1255.936578	2
1261.005776	3
1265.450594	2
1265.978062	43
1266.020614	2
1266.982865	9
1267.016947	3
1267.980333	2
1275.477521	2
1283.823213	2
1285.110415	3
1288.843779	2
1306.016320	2
1315.916737	2
1327.025458	2
1327.509646	2
1330.851360	2
1330.888052	2
1332.926805	2
1342.586857	3
1353.988663	2
1355.939238	2
1358.584411	2
1363.726752	2
1365.965443	21
1366.013135	7
1373.243330	3
1379.068897	2
1401.585224	2
1408.930183	2
1427.210957	2
1438.369270	3
1465.947875	8
1466.000898	14
1482.955151	2
1485.450622	2
1492.669827	2
