Mass spectrum: beta-D-Fructose 6-phosphate; LC-ESI-ITFT; MS2; m/z:259.02; NEG
Name: beta-D-Fructose 6-phosphate
Class: Natural Product
Formula: C6H13O9P
Exact mass: 260.02972
SMILES: OC[C@@](O)(O1)[C@@H](O)[C@H](O)[C@@H](COP(O)(O)=O)1
InChI: InChI=1S/C6H13O9P/c7-2-6(10)5(9)4(8)3(15-6)1-14-16(11,12)13/h3-5,7-10H,1-2H2,(H2,11,12,13)/t3-,4-,5+,6-/m1/s1
Instrument: LTQ Orbitrap XL, Thermo Scientfic
Instrument type: LC-ESI-ITFT
Ms type: MS2
Ion mode: NEGATIVE
Collision energy: 35eV
Ionization: ESI
Column name: TOSOH TSKgel ODS-100V  5um Part no. 21456
Retention time: 6.825900 min
Base peak: 96.870239
Precursor m/z: 259.02
m/z	relative intensity
78.943787	139
89.077438	1
96.870239	999
100.985138	3
114.887039	1
138.992813	47
143.004974	4
150.790268	1
160.987244	28
163.027908	1
169.012711	166
186.931122	5
199.010818	34
204.958725	1
222.940277	40
228.934402	5
240.988968	28
