Mass spectrum: L-Tryptophan; LC-ESI-ITFT; MS2; m/z:203.08; NEG
Name: L-Tryptophan
Name: Tryptophan
Name: (S)-alpha-Amino-beta-(3-indolyl)-propionic acid
Class: Natural Product
Formula: C11H12N2O2
Exact mass: 204.08988
SMILES: C1=CC=C2C(=C1)C(=CN2)C[C@@H](C(=O)O)N
InChI: InChI=1S/C11H12N2O2/c12-9(11(14)15)5-7-6-13-10-4-2-1-3-8(7)10/h1-4,6,9,13H,5,12H2,(H,14,15)/t9-/m0/s1
Instrument: LTQ Orbitrap XL, Thermo Scientfic
Instrument type: LC-ESI-ITFT
Ms type: MS2
Ion mode: NEGATIVE
Collision energy: 35eV
Ionization: ESI
Column name: TOSOH TSKgel ODS-100V  5um Part no. 21456
Retention time: 13.932528 min
Base peak: 159.072189
Precursor m/z: 203.08
m/z	relative intensity
71.991196	6
73.977516	24
115.979141	384
127.965652	3
129.119080	1
129.985733	10
132.153702	3
142.048370	165
157.192337	5
159.072189	999
173.098602	21
186.052444	77
