Mass spectrum: L-Glutamine; LC-ESI-ITFT; MS2; m/z:130.05; POS
Name: L-Glutamine
Name: L-2-Aminoglutaramic acid
Class: Natural Product
Formula: C5H10N2O3
Exact mass: 146.06914
SMILES: NC(=O)CC[C@H](N)C(O)=O
InChI: InChI=1S/C5H10N2O3/c6-3(5(9)10)1-2-4(7)8/h3H,1-2,6H2,(H2,7,8)(H,9,10)/t3-/m0/s1
Instrument: LTQ Orbitrap XL, Thermo Scientfic
Instrument type: LC-ESI-ITFT
Ms type: MS2
Ion mode: POSITIVE
Collision energy: 35eV
Ionization: ESI
Column name: TOSOH TSKgel ODS-100V  5um Part no. 21456
Retention time: 4.681712 min
Base peak: 83.952690
Precursor m/z: 130.05
m/z	relative intensity
57.013744	1
73.946060	2
83.952690	999
84.964417	24
85.962158	2
86.982559	1
88.979797	1
95.010147	1
102.039124	79
112.069351	9
113.038742	1
