Mass spectrum: NAD+; LC-ESI-ITFT; MS2; m/z:372.54; POS
Name: NAD+
Name: NAD
Name: Nicotinamide adenine dinucleotide
Name: DPN
Name: Diphosphopyridine nucleotide
Name: Nadide
Class: Natural Product
Formula: [C21H28N7O14P2]+
Exact mass: 664.11695
SMILES: NC(=O)c(c5)c[n+1](cc5)C(O1)C(O)C(O)C(COP(O)(=O)OP(O)(=O)OCC(O2)C(O)C(O)C2n(c4)c(n3)c(n4)c(N)nc3)1
InChI: InChI=1S/C21H27N7O14P2/c22-17-12-19(25-7-24-17)28(8-26-12)21-16(32)14(30)11(41-21)6-39-44(36,37)42-43(34,35)38-5-10-13(29)15(31)20(40-10)27-3-1-2-9(4-27)18(23)33/h1-4,7-8,10-11,13-16,20-21,29-32H,5-6H2,(H5-,22,23,24,25,33,34,35,36,37)/p+1/t10-,11-,13-,14-,15-,16-,20-,21-/m1/s1
Instrument: LTQ Orbitrap XL, Thermo Scientfic
Instrument type: LC-ESI-ITFT
Ms type: MS2
Ion mode: POSITIVE
Collision energy: 35eV
Ionization: ESI
Column name: TOSOH TSKgel ODS-100V  5um Part no. 21456
Retention time: 8.865598 min
Base peak: 604.076477
Precursor m/z: 372.54
m/z	relative intensity
123.012779	494
136.039825	23
177.141312	1
232.189026	17
273.161652	1
329.953827	2
335.218567	4
355.117737	1
363.618744	189
364.593079	3
410.153015	45
415.251862	2
428.211700	3
469.095123	7
486.879913	4
490.145905	86
506.131653	9
508.134583	25
511.143860	1
524.086365	1
586.160645	21
590.667969	1
604.076477	999
604.984497	3
609.158997	8
622.035706	333
623.131165	1
