Mass spectrum: FAD; LC-ESI-ITFT; MS; NEG
Name: FAD
Name: Flavin adenine dinucleotide
Class: Natural Product
Formula: C27H33N9O15P2
Exact mass: 785.15713
SMILES: C(C(CN(c54)C(=N6)C(C(=O)NC6=O)=Nc(cc(c(c5)C)C)4)O)(O)C(O)COP(OP(OCC(O1)C(C(C1n(c2)c(n3)c(c(N)nc3)n2)O)O)(O)=O)(O)=O
InChI: InChI=1S/C27H33N9O15P2/c1-10-3-12-13(4-11(10)2)35(24-18(32-12)25(42)34-27(43)33-24)5-14(37)19(39)15(38)6-48-52(44,45)51-53(46,47)49-7-16-20(40)21(41)26(50-16)36-9-31-17-22(28)29-8-30-23(17)36/h3-4,8-9,14-16,19-21,26,37-41H,5-7H2,1-2H3,(H,44,45)(H,46,47)(H2,28,29,30)(H,34,42,43)/t14-,15+,16+,19-,20+,21+,26+/m0/s1
Instrument: LTQ Orbitrap XL, Thermo Scientfic
Instrument type: LC-ESI-ITFT
Ms type: MS
Ion mode: NEGATIVE
Collision energy: 35eV
Ionization: ESI
Column name: TOSOH TSKgel ODS-100V  5um Part no. 21456
Retention time: 14.699602 min
Base peak: 784.147705
m/z	relative intensity
134.046862	3
138.979783	1
150.979901	1
158.924946	4
162.979942	3
176.935622	1
180.982997	1
180.986677	1
180.990357	39
180.994498	1
181.993693	1
195.005833	5
199.000450	2
211.000404	3
213.015978	1
241.072134	11
242.075900	1
255.087747	19
256.091343	2
260.956199	2
272.956594	8
274.971599	2
328.044651	6
329.048253	1
346.034955	1
346.044684	3
346.054414	127
346.065360	3
346.075091	1
347.051447	2
347.057555	14
348.058929	1
376.069355	1
407.985031	1
407.997487	1
408.009943	66
408.023957	1
408.036415	1
409.014549	7
410.015027	1
419.075041	4
420.078518	1
426.021226	4
436.926682	1
437.042313	1
437.057849	1
437.071660	3
437.085471	164
437.101009	3
437.113095	1
438.074670	1
438.088529	29
439.091567	2
439.100259	3
448.003586	1
455.096982	12
456.100137	2
468.031821	1
490.013230	8
491.016896	1
499.040452	1
517.034606	1
517.052376	46
517.072368	1
518.055631	7
519.057341	1
521.951522	5
526.073850	1
528.053612	3
539.961632	1
542.068065	2
550.035322	2
581.973061	1
704.180715	1
783.000976	1
783.763194	2
783.904161	1
783.929041	1
783.945629	1
783.962217	1
783.987100	1
783.995395	1
784.007837	1
784.016132	1
784.045165	3
784.082496	6
784.115682	16
784.148869	999
784.186208	13
784.215251	6
784.235997	1
784.248445	2
784.269192	1
784.277491	1
784.285790	1
784.294090	1
784.302389	1
784.318989	1
784.327289	1
784.343889	1
784.360489	1
784.377091	1
784.530678	2
784.763219	1
785.045730	1
785.083133	2
785.116382	4
785.149633	322
785.178729	4
785.187043	4
785.216141	2
785.249399	1
785.295131	1
785.532172	1
786.118999	1
786.152314	73
786.173136	1
786.181466	1
786.189795	1
787.156916	7
787.173606	1
788.155085	1
806.105690	1
806.127310	27
807.131464	6
808.133155	1
811.105795	3
811.607926	2
812.110524	1
815.109554	1
828.065118	2
829.069960	1
837.060560	1
838.068074	6
839.068224	2
846.073178	1
884.071159	3
885.075204	1
1265.976780	1
