Mass spectrum: D-2-Aminobutyric acid; LC-ESI-ITFT; MS2; m/z:104.07; POS
Name: D-2-Aminobutyrate
Name: D-2-Aminobutyric acid
Name: D-2-Aminobutanoic acid
Name: (R)-2-Aminobutanoic acid
Class: Natural Product
Formula: C4H9NO2
Exact mass: 103.06333
SMILES: CCC(N)C(O)=O
InChI: InChI=1S/C4H9NO2/c1-2-3(5)4(6)7/h3H,2,5H2,1H3,(H,6,7)/t3-/m1/s1
Instrument: LTQ Orbitrap XL, Thermo Scientfic
Instrument type: LC-ESI-ITFT
Ms type: MS2
Ion mode: POSITIVE
Collision energy: 35eV
Ionization: ESI
Column name: TOSOH TSKgel ODS-100V  5um Part no. 21456
Retention time: 4.567235 min
Base peak: 86.949432
Precursor m/z: 104.07
m/z	relative intensity
69.001312	1
86.032806	395
86.949432	999
