Mass spectrum: Inosine; LC-ESI-ITFT; MS; POS
Name: Inosine
Class: Natural Product
Formula: C10H12N4O5
Exact mass: 268.08077
SMILES: OC[C@@H](O1)[C@@H](O)[C@@H](O)[C@@H]1n(c3)c(N=2)c(n3)C(=O)NC2
InChI: InChI=1S/C10H12N4O5/c15-1-4-6(16)7(17)10(19-4)14-3-13-5-8(14)11-2-12-9(5)18/h2-4,6-7,10,15-17H,1H2,(H,11,12,18)/t4-,6-,7-,10-/m1/s1
Instrument: LTQ Orbitrap XL, Thermo Scientfic
Instrument type: LC-ESI-ITFT
Ms type: MS
Ion mode: POSITIVE
Collision energy: 35eV
Ionization: ESI
Column name: TOSOH TSKgel ODS-100V  5um Part no. 21456
Retention time: 5.661512 min
Base peak: 182.081100
m/z	relative intensity
100.111848	6
102.033553	4
102.054582	8
110.019746	3
111.020036	1
123.043999	4
133.079206	1
134.081185	2
136.061816	8
136.075607	29
136.077106	1
137.040747	1
137.041656	1
137.042869	2
137.043778	2
137.045596	140
137.047111	4
137.048020	2
137.050748	1
137.073783	1
137.078633	1
137.132002	2
138.042535	1
138.048662	5
141.958490	5
149.002289	1
149.023248	3
151.096379	1
152.053362	1
152.054424	1
152.056549	87
152.058320	2
152.059382	1
152.070008	1
153.040561	1
153.059874	2
155.142526	1
158.002552	9
158.096003	1
163.132671	8
165.054699	50
165.057903	1
166.057775	3
167.012526	2
170.096285	2
171.138130	1
171.146588	1
171.149125	49
171.151240	1
171.152509	1
172.152452	3
172.977120	8
173.078577	1
174.127584	22
174.129754	1
175.089843	1
175.130986	1
178.035736	1
179.064105	3
181.050164	1
181.370389	1
181.842363	1
181.952647	1
182.001334	1
182.030555	1
182.038442	3
182.043545	1
182.049112	1
182.052824	1
182.055608	1
182.059320	1
182.061176	1
182.063032	1
182.066744	1
182.067672	1
182.068600	1
182.069992	1
182.071384	2
182.073704	3
182.075097	3
182.076953	10
182.078345	16
182.081130	999
182.083450	25
182.084842	12
182.087627	2
182.089019	4
182.090412	1
182.091804	1
182.092732	2
182.094589	1
182.096445	1
182.097373	1
182.098766	1
182.100158	1
182.102015	1
182.105728	1
182.108513	1
182.118262	1
182.119654	1
182.124297	3
182.160978	1
182.209283	1
182.320367	1
182.796056	1
182.984796	17
182.986666	1
183.077404	1
183.080211	1
183.081147	1
183.083955	94
183.086294	3
183.088166	1
184.084708	3
184.086595	2
185.113668	1
186.184385	1
187.125577	10
190.028489	3
194.116962	1
196.007514	1
198.072643	1
198.075803	55
198.078436	1
198.080015	1
199.078997	3
199.179842	7
208.190213	1
214.002990	1
220.111375	1
233.173966	1
269.011139	1
269.074489	1
269.076990	1
269.080324	2
269.082826	4
269.087828	270
269.094498	3
269.102836	1
269.165384	1
270.084420	1
270.091127	26
270.095319	1
271.090774	1
277.199902	1
279.157671	1
282.221186	1
284.015383	1
284.079584	1
284.084106	1
284.086819	1
284.091342	3
284.093150	4
284.098577	338
284.106718	3
284.114859	1
284.122095	1
284.182713	1
285.095216	2
285.101581	35
286.101679	1
286.105336	1
291.068463	1
299.181639	1
307.082078	6
307.086143	1
307.583792	1
314.144851	1
344.204727	1
348.067847	1
369.009955	1
391.274122	1
391.282894	38
392.286254	6
413.263556	1
420.135037	1
428.034459	1
436.339497	2
450.149328	1
450.160152	49
451.163066	5
452.165703	1
465.170585	2
466.153760	1
537.166135	12
537.177893	1
538.169313	2
552.178084	15
553.179390	2
567.187282	1
572.355860	5
573.360707	1
613.157071	1
659.363653	1
