Mass spectrum: Cytidine; LC-ESI-ITFT; MS; POS
Name: Cytidine
Class: Natural Product
Formula: C9H13N3O5
Exact mass: 243.08552
SMILES: OC[C@@H](O1)[C@@H](O)[C@@H](O)[C@@H]1N(C=2)C(=O)N=C(N)C2
InChI: InChI=1S/C9H13N3O5/c10-5-1-2-12(9(16)11-5)8-7(15)6(14)4(3-13)17-8/h1-2,4,6-8,13-15H,3H2,(H2,10,11,16)/t4-,6-,7-,8-/m1/s1
Instrument: LTQ Orbitrap XL, Thermo Scientfic
Instrument type: LC-ESI-ITFT
Ms type: MS
Ion mode: POSITIVE
Collision energy: 35eV
Ionization: ESI
Column name: TOSOH TSKgel ODS-100V  5um Part no. 21456
Retention time: 5.459383 min
Base peak: 244.093002
m/z	relative intensity
112.029773	1
112.047021	1
112.048589	3
112.050382	223
112.052174	4
112.053518	1
112.053966	1
112.054863	1
112.071220	1
113.047219	1
113.053577	6
123.055343	13
136.061516	1
139.038934	1
152.070362	6
162.076016	10
171.149125	4
174.127584	2
181.049704	6
187.126060	1
194.117984	4
196.060913	1
198.027369	1
198.063693	1
198.067905	1
198.071590	4
198.072643	4
198.076329	335
198.080542	5
198.084754	1
198.086334	1
198.124781	1
199.079528	30
200.080210	1
210.075901	1
222.112313	1
224.127985	3
237.075208	1
242.990493	1
243.713994	1
243.893756	1
243.966436	1
244.026187	2
244.043469	1
244.056431	1
244.060752	1
244.063633	1
244.066514	1
244.067954	1
244.070115	1
244.072275	1
244.075877	2
244.078037	1
244.081639	4
244.086681	11
244.088121	10
244.093164	999
244.098926	14
244.104689	3
244.106850	3
244.109011	1
244.111173	1
244.112613	1
244.115495	1
244.116936	1
244.121259	1
244.122700	1
244.124140	1
244.128463	1
244.131345	1
244.139991	1
244.159447	3
244.219269	1
244.292095	1
244.472496	1
245.088808	1
245.090982	2
245.095331	97
245.101129	1
245.202632	1
246.095661	5
246.098578	1
251.427415	1
332.562408	20
333.062421	3
391.282894	1
395.142987	1
414.233238	1
441.159953	10
442.162777	1
487.145866	1
487.160083	2
487.164145	2
487.178362	227
487.194611	2
488.181230	43
489.183112	3
634.369176	1
664.086810	1
664.115903	64
664.141765	1
665.119170	11
666.121465	2
762.649482	1
763.150980	1
763.652974	1
861.184654	2
862.187976	1
907.201166	4
908.208442	1
1327.228365	3
1328.233570	1
