Mass spectrum: Inosine; LC-ESI-ITFT; MS; POS
Name: Inosine
Class: Natural Product
Formula: C10H12N4O5
Exact mass: 268.08077
SMILES: OC[C@@H](O1)[C@@H](O)[C@@H](O)[C@@H]1n(c3)c(N=2)c(n3)C(=O)NC2
InChI: InChI=1S/C10H12N4O5/c15-1-4-6(16)7(17)10(19-4)14-3-13-5-8(14)11-2-12-9(5)18/h2-4,6-7,10,15-17H,1H2,(H,11,12,18)/t4-,6-,7-,10-/m1/s1
Instrument: LTQ Orbitrap XL, Thermo Scientfic
Instrument type: LC-ESI-ITFT
Ms type: MS
Ion mode: POSITIVE
Collision energy: 35eV
Ionization: ESI
Column name: TOSOH TSKgel ODS-100V  5um Part no. 21456
Retention time: 5.646513 min
Base peak: 150.058258
m/z	relative intensity
100.111848	10
102.033748	7
102.054776	2
102.091007	1
104.052614	23
104.054419	1
107.069996	2
110.019964	5
111.020036	2
113.034280	22
123.055343	1
128.106983	1
129.051850	1
130.491827	1
133.025866	1
133.027025	1
133.029344	1
133.031952	56
133.034271	1
133.079206	1
134.035155	1
135.027815	1
136.061816	14
136.961996	1
137.018024	2
137.038323	1
137.040444	2
137.041656	1
137.042869	4
137.045596	317
137.048323	5
137.050748	2
137.053475	1
137.073479	2
137.129575	1
137.132305	4
138.042535	2
138.048969	15
141.958490	13
149.002976	5
149.023935	7
149.526546	1
149.879092	1
149.962306	1
149.966122	1
149.998388	1
150.026498	5
150.031011	1
150.032052	1
150.038647	1
150.039342	1
150.040730	1
150.042466	1
150.044896	1
150.045938	1
150.047326	1
150.049756	3
150.052187	6
150.053575	2
150.054964	15
150.058436	999
150.061214	17
150.063992	6
150.065728	1
150.067117	3
150.068158	1
150.069895	1
150.071284	1
150.073367	1
150.074409	1
150.075451	1
150.076840	1
150.077534	1
150.080312	1
150.085175	1
150.090384	5
150.117826	1
150.154311	2
150.237755	1
150.592820	1
151.034655	1
151.055342	1
151.057446	4
151.058849	1
151.061304	52
151.064109	1
151.095678	2
152.050883	1
152.053716	40
152.056903	1
152.061862	2
153.057013	1
155.142891	3
158.002552	30
158.005929	1
158.096003	3
163.132671	18
164.136124	1
167.012526	3
167.033727	1
170.057742	1
170.065282	9
170.096285	4
170.566985	1
171.138130	4
171.141936	1
171.145319	1
171.149125	99
171.152932	1
171.991294	1
172.152452	6
172.976690	15
173.078147	1
173.984450	1
174.123678	1
174.127584	45
174.131490	1
175.089406	1
175.130548	4
178.034839	1
179.063653	8
180.158947	1
180.989441	1
181.028540	2
181.987885	1
182.028700	6
182.981056	1
182.985263	44
182.989004	1
183.988035	1
184.985290	1
185.114619	2
186.184865	2
187.126544	22
188.129475	1
190.028984	10
193.021764	1
193.059253	1
193.063306	2
193.067867	187
193.072427	3
193.076481	1
193.114999	1
193.130714	1
193.566930	2
193.569473	26
194.065888	5
194.070994	1
194.116962	1
195.122110	1
196.007514	1
196.153765	1
199.180373	15
200.182886	1
208.190213	2
214.002990	1
216.206580	1
217.104686	1
220.111375	1
223.063237	1
226.159014	1
233.173966	3
268.090109	1
268.096742	2
268.104205	162
268.111668	2
268.118301	1
268.181336	1
268.857860	1
269.011973	2
269.050313	1
269.068653	1
269.074489	2
269.076990	1
269.081158	6
269.088662	560
269.095332	7
269.103670	12
269.109507	2
269.112842	1
269.116178	1
269.119513	1
269.127853	1
269.165384	2
269.232125	1
269.318926	1
270.084420	2
270.091127	59
270.098673	1
270.106219	1
271.090774	2
271.094146	1
277.199902	2
279.157671	1
282.220291	2
291.068463	1
299.181639	1
308.574533	1
314.144851	1
321.225628	1
322.256836	1
343.208159	1
366.283065	1
369.011294	1
385.055761	1
385.128558	45
386.129821	3
387.123484	1
391.284356	62
391.296052	1
392.286254	10
413.263556	1
417.080785	1
418.138221	8
418.144681	1
419.141329	1
423.060195	1
427.374514	1
430.085819	1
436.339497	5
437.343196	1
536.184520	9
537.168487	40
537.182597	1
538.171671	4
539.172938	1
540.333548	5
541.336099	1
559.147407	1
653.206105	2
658.379757	2
659.360455	1
