Mass spectrum: L-Glutathione (reduced form); LC-ESI-ITFT; MS2; m/z:306.08; NEG
Name: Glutathione
Name: 5-L-Glutamyl-L-cysteinylglycine
Name: N-(N-gamma-L-Glutamyl-L-cysteinyl)glycine
Name: gamma-L-Glutamyl-L-cysteinyl-glycine
Name: GSH
Name: Reduced glutathione
Name: L-Glutathione (reduced form)
Class: Natural Product
Formula: C10H17N3O6S
Exact mass: 307.08381
SMILES: OC(=O)CNC(=O)C(CS)NC(=O)CCC(N)C(O)=O
InChI: InChI=1S/C10H17N3O6S/c11-5(10(18)19)1-2-7(14)13-6(4-20)9(17)12-3-8(15)16/h5-6,20H,1-4,11H2,(H,12,17)(H,13,14)(H,15,16)(H,18,19)/t5-,6-/m0/s1
Instrument: LTQ Orbitrap XL, Thermo Scientfic
Instrument type: LC-ESI-ITFT
Ms type: MS2
Ion mode: NEGATIVE
Collision energy: 35eV
Ionization: ESI
Column name: TOSOH TSKgel ODS-100V  5um Part no. 21456
Retention time: 8.892920 min
Base peak: 254.151855
Precursor m/z: 306.08
m/z	relative intensity
99.084778	3
116.091263	3
119.977379	1
126.082634	1
128.111984	122
143.012390	132
145.298340	4
146.154846	10
153.069214	1
155.188232	1
160.124451	123
166.062683	1
167.101532	9
169.163589	1
171.112457	13
177.125153	101
179.194519	128
185.183167	9
192.166702	1
197.169159	13
210.195892	68
213.202606	22
215.156860	1
228.218353	7
231.221680	13
236.250641	8
242.104553	16
244.346436	1
254.151855	999
260.384674	1
272.117065	945
288.089722	631
