Mass spectrum: Hypoxanthine; LC-ESI-ITFT; MS2; m/z:137.05; POS
Name: Hypoxanthine
Name: Purine-6-ol
Class: Natural Product
Formula: C5H4N4O
Exact mass: 136.03851
SMILES: C1=NC2=C(N1)C(=O)N=CN2
InChI: InChI=1S/C5H4N4O/c10-5-3-4(7-1-6-3)8-2-9-5/h1-2H,(H2,6,7,8,9,10)
Instrument: LTQ Orbitrap XL, Thermo Scientfic
Instrument type: LC-ESI-ITFT
Ms type: MS2
Ion mode: POSITIVE
Collision energy: 35eV
Ionization: ESI
Column name: TOSOH TSKgel ODS-100V  5um Part no. 21456
Retention time: 5.482482 min
Base peak: 119.083939
Precursor m/z: 137.05
m/z	relative intensity
80.998825	74
89.125137	18
94.002472	274
95.159286	27
109.951019	440
119.083939	999
120.050568	25
