Mass spectrum: L-(-)-Proline; LC-ESI-ITFT; MS; POS
Name: L-Proline
Name: 2-Pyrrolidinecarboxylic acid
Name: L-(-)-Proline
Class: Natural Product
Formula: C5H9NO2
Exact mass: 115.06333
SMILES: OC(=O)C([H])(C1)NCC1
InChI: InChI=1S/C5H9NO2/c7-5(8)4-2-1-3-6-4/h4,6H,1-3H2,(H,7,8)/t4-/m0/s1
Instrument: LTQ Orbitrap XL, Thermo Scientfic
Instrument type: LC-ESI-ITFT
Ms type: MS
Ion mode: POSITIVE
Collision energy: 35eV
Ionization: ESI
Column name: TOSOH TSKgel ODS-100V  5um Part no. 21456
Retention time: 5.178638 min
Base peak: 116.070488
m/z	relative intensity
100.111848	2
102.033553	2
110.019746	1
115.708478	1
115.939924	1
115.948413	1
116.005268	2
116.007864	1
116.029816	1
116.048704	5
116.051302	1
116.052247	1
116.054608	1
116.055553	1
116.057442	1
116.058859	1
116.059804	2
116.061221	1
116.062638	1
116.063110	1
116.063818	1
116.064527	2
116.064999	2
116.066416	6
116.067125	4
116.068306	8
116.069251	8
116.070432	999
116.071849	5
116.072321	11
116.073266	3
116.074211	6
116.075628	1
116.076337	2
116.076809	2
116.078227	1
116.079408	1
116.080353	1
116.081298	2
116.082479	1
116.083188	1
116.083896	1
116.085314	1
116.089330	1
116.092165	5
116.111069	1
116.133050	1
116.135887	2
116.192643	1
116.201160	1
116.434086	1
117.067190	1
117.071496	1
117.073650	59
118.074176	2
118.076358	1
130.007488	1
137.132305	1
138.052339	7
139.981695	1
141.958171	2
149.022904	2
155.142891	1
158.002552	16
158.096003	1
158.960868	2
163.132278	2
170.096285	1
171.137707	1
171.149125	23
172.152025	1
174.127584	9
175.130986	1
179.063200	2
182.984796	2
186.955501	1
186.999447	1
187.126060	5
190.992536	1
199.029134	1
199.179842	3
208.190213	1
223.063237	2
231.128220	1
231.133530	87
231.138839	1
232.137023	6
233.173966	1
247.013376	1
249.503233	1
253.115130	1
256.963122	1
278.196360	1
279.158552	1
286.212313	7
307.637802	1
365.170712	1
368.178558	3
391.282894	13
392.262774	1
392.286254	2
394.221780	1
426.356690	1
436.339497	1
483.241772	2
485.216191	4
497.998190	1
506.347075	13
507.349301	3
508.352341	1
514.169166	1
516.008516	1
600.280409	1
715.342750	1
716.348456	1
744.297952	1
