Mass spectrum: L-Tyrosine; LC-ESI-ITFT; MS; NEG
Name: L-Tyrosine
Name: (S)-3-(p-Hydroxyphenyl)alanine
Name: (S)-2-Amino-3-(p-hydroxyphenyl)propionic acid
Name: Tyrosine
Class: Natural Product
Formula: C9H11NO3
Exact mass: 181.07389
SMILES: OC(=O)C(N)Cc(c1)ccc(O)c1
InChI: InChI=1S/C9H11NO3/c10-8(9(12)13)5-6-1-3-7(11)4-2-6/h1-4,8,11H,5,10H2,(H,12,13)/t8-/m0/s1
Instrument: LTQ Orbitrap XL, Thermo Scientfic
Instrument type: LC-ESI-ITFT
Ms type: MS
Ion mode: NEGATIVE
Collision energy: 35eV
Ionization: ESI
Column name: TOSOH TSKgel ODS-100V  5um Part no. 21456
Retention time: 5.734167 min
Base peak: 180.066605
m/z	relative intensity
100.957929	2
102.890839	1
103.430470	1
103.920096	2
104.510232	1
106.056022	1
106.606843	2
107.050135	3
107.147506	2
107.271454	2
107.603035	1
107.702007	1
108.908124	1
110.123698	2
110.192069	2
112.366495	1
112.985648	105
113.857652	1
114.279785	1
114.686169	1
114.951389	4
117.980895	2
118.151771	1
119.015176	1
119.050017	11
120.255479	2
121.171316	2
122.412038	1
123.129855	2
126.238666	2
128.649298	2
131.687178	1
133.013878	2
134.047025	6
135.005971	1
136.086151	1
136.408248	2
137.287172	2
139.006887	36
142.171483	2
145.187571	2
145.890482	5
146.898436	2
146.965735	7
147.029711	2
147.892403	3
148.580507	2
148.952461	9
153.214105	2
156.915173	2
158.924781	6
159.193492	2
159.893276	2
159.895950	2
160.841743	3
160.892241	2
161.104901	2
162.838737	2
163.039536	21
163.901943	2
164.042770	2
164.684133	2
166.806242	2
167.599910	1
169.587969	2
170.338997	2
170.951355	1
172.987057	1
174.186971	1
174.286911	2
176.034873	1
178.032107	1
178.354780	2
178.976976	2
180.024728	2
180.051199	3
180.054851	5
180.058959	10
180.060785	4
180.062611	23
180.066719	999
180.070828	21
180.072198	3
180.074480	11
180.077676	4
180.078589	4
180.081785	2
180.108726	3
180.116489	2
180.192783	2
181.069277	55
181.714074	1
181.725645	2
181.816394	2
182.070484	2
184.342673	3
187.215878	2
189.404013	2
189.501561	2
189.924646	1
189.995381	6
191.016259	2
191.019252	15
193.954102	2
195.050321	4
195.186777	1
196.060909	3
197.962578	2
199.263482	2
200.369178	2
202.047772	23
204.030818	1
205.082681	1
212.830150	2
213.531708	2
213.998188	2
216.032973	7
216.037772	6
216.039572	5
216.042572	243
216.046171	6
216.047971	5
216.053371	3
217.045557	18
217.294067	1
218.022088	2
218.034253	2
218.039727	72
219.042582	6
220.140588	1
220.974796	2
221.450948	1
225.098458	28
225.145682	2
225.415908	2
225.794916	1
226.070808	3
226.143394	1
229.885546	2
229.964589	1
230.066087	3
230.365040	1
232.008056	3
232.055467	2
232.932181	2
234.914030	2
234.992277	2
236.000735	3
238.019185	2
238.024041	35
239.027661	2
240.021482	10
240.869593	2
241.885597	2
243.061181	26
244.065162	2
246.061246	2
248.053128	8
251.995984	13
256.958722	1
260.003416	2
264.018453	6
265.043470	43
266.046590	5
269.961461	24
269.965651	2
270.035221	2
270.446489	2
270.969901	4
271.328413	2
271.958581	9
272.049269	2
272.670892	1
272.956090	4
278.013784	3
279.990416	18
280.858993	8
280.862550	2
280.998660	7
281.919329	2
286.389700	1
287.991481	2
287.998868	3
292.079741	3
294.056061	11
296.034222	4
300.011628	3
303.023603	9
305.020620	4
305.938563	57
306.009346	6
306.937855	2
306.941919	3
307.000854	4
307.112675	1
307.616625	2
307.934904	29
307.940009	2
308.006381	2
308.688701	2
308.938872	2
309.932293	6
310.023029	3
310.254174	2
311.061073	2
311.167860	2
312.131426	2
313.413722	2
313.932217	6
315.929979	8
315.967115	4
316.323954	2
318.334969	2
319.957188	7
320.061017	3
321.048826	3
321.862225	2
321.942971	1
321.956068	3
322.869352	2
322.955960	7
323.955009	9
324.955381	3
325.955947	15
325.995976	5
327.311036	1
327.957526	8
328.043944	5
330.042159	7
331.952395	2
331.961537	2
332.038111	2
332.956779	3
334.003782	2
336.885858	4
338.872404	1
340.059982	2
342.763054	2
344.978562	3
346.054849	7
349.277104	1
351.648349	2
357.087724	2
359.080995	1
359.124708	3
359.223734	2
359.977416	2
361.106559	2
361.119524	5
361.128600	8
361.138973	459
361.150643	7
361.162313	4
362.020991	2
362.127728	2
362.143351	73
363.141466	3
363.146696	4
364.856315	2
366.998747	3
374.071654	3
375.736598	2
378.895092	3
382.529982	1
383.098848	2
383.108765	8
383.121516	373
383.130017	3
383.134267	4
383.145602	3
384.113778	2
384.116623	1
384.125157	67
385.038518	2
385.097050	52
385.109900	2
385.128463	3
385.893549	2
386.015315	2
386.101302	7
391.978378	5
391.984242	2
393.977098	4
394.881364	2
394.891742	12
394.977746	5
395.222566	1
395.622185	2
395.976257	6
396.049213	2
396.977064	3
397.116074	5
397.977170	10
398.119708	2
399.086479	4
399.095517	25
399.443704	2
399.978175	3
400.099109	4
401.267418	2
402.009540	7
403.933686	2
404.045677	9
405.103439	24
406.038576	2
406.106600	2
408.010441	11
410.002979	4
411.090535	2
412.000668	2
413.062878	4
414.068703	2
415.059034	64
416.067353	15
416.746431	2
417.058432	5
417.069696	3
417.948105	1
421.077956	2
423.066794	15
423.567029	1
423.595028	2
424.071451	2
426.021747	17
426.848618	1
426.885275	1
429.115231	3
430.117927	2
431.102155	11
431.110611	2
431.354241	2
432.106735	2
435.062757	3
437.041116	3
437.086000	3
441.078783	4
444.711635	2
445.092821	11
446.096882	2
446.175217	2
448.120599	3
449.039633	7
449.979529	6
450.028225	4
450.039047	3
450.044459	2
451.034565	149
452.038837	32
453.031892	49
453.914921	2
454.035534	7
455.051686	3
456.062051	3
459.029796	6
459.068818	2
459.277020	2
460.055311	4
461.026286	6
461.063693	27
461.114199	3
462.067887	2
463.024537	3
465.092654	2
467.678711	2
467.988421	4
469.070993	8
470.078367	2
472.900410	2
473.017007	14
474.021527	3
475.013603	3
475.129026	30
476.132433	5
477.107519	17
478.054004	5
478.111278	3
481.085808	3
481.153597	1
482.166157	2
483.019419	2
483.045493	5
483.063546	3
491.987178	2
492.034601	2
493.092062	2
494.998690	3
495.088172	7
496.092864	2
497.111086	2
502.066692	7
504.083387	3
504.939769	2
504.954775	3
511.935729	8
517.982770	2
520.380931	2
522.949390	2
523.207055	2
525.851165	1
529.867744	2
529.925358	6
529.946101	499
529.959931	4
529.966846	7
529.985287	2
530.947838	33
531.950099	8
533.893226	13
540.052389	119
540.073729	2
540.510307	1
541.056774	15
541.218497	3
542.059195	2
542.214211	39
543.217460	14
544.216300	8
547.217313	3
547.955692	179
548.960345	11
549.220451	1
549.960453	3
551.927238	7
558.063134	3
558.898464	3
561.971567	3
563.085707	2
563.300345	4
564.137339	1
564.182909	7
564.195568	2
565.092928	1
565.186843	4
565.923748	1
566.170551	21
567.174693	5
569.938331	7
572.054710	1
575.949369	101
576.953467	10
577.954942	2
579.897130	3
580.161052	24
580.224420	2
581.162953	8
586.176745	27
587.180836	5
589.234603	2
591.076472	3
593.970362	2
594.137229	12
595.123449	21
596.084630	2
596.109376	3
596.131375	249
596.150624	3
596.156124	3
597.136350	73
597.931112	4
598.130050	4
598.141105	7
600.127683	2
603.144349	2
603.959551	2
604.127840	4
604.141867	19
604.902874	2
605.144675	2
606.124607	3
606.135885	2
608.287153	2
612.177530	31
613.180339	10
614.182738	3
616.119795	3
617.106242	3
617.239493	2
618.115384	30
619.118272	8
620.018584	12
624.125322	2
625.932087	16
626.121483	7
626.542012	2
627.188437	2
631.100064	4
632.269876	2
637.136733	3
640.097330	9
641.102073	3
641.129675	2
650.051742	8
650.684724	2
654.091041	8
655.985134	2
656.086722	2
656.204212	4
658.059656	2
662.099904	53
662.161064	11
663.105295	10
663.163368	3
664.116211	15
665.119719	5
668.993092	2
672.033911	3
676.160552	6
682.129221	3
682.385101	2
684.139729	3
688.757467	2
691.758847	2
692.357347	2
703.232822	2
705.992615	1
710.279085	2
710.959086	2
711.019976	177
712.023993	28
713.022944	5
718.434865	2
721.361582	2
728.504419	2
733.001609	8
734.003717	3
737.287092	2
741.564482	2
742.068353	8
743.073810	2
747.243479	35
748.247875	15
749.250423	3
751.907786	1
753.698950	1
754.982835	3
757.245414	2
763.348847	2
766.374157	2
767.236672	2
769.223977	3
774.201733	2
776.199835	23
777.201789	8
779.010200	2
781.064074	2
783.213039	6
784.149778	20
785.150542	4
789.231462	2
791.208173	2
792.538540	2
795.870690	2
798.179073	4
799.189749	16
800.189516	5
805.207970	2
808.112384	2
810.125644	2
819.019963	2
830.113731	6
834.883271	2
836.521870	2
841.074862	2
843.175625	10
843.744874	2
845.182129	2
857.145328	2
861.032005	2
862.116596	1
870.746202	2
882.029590	2
887.084441	2
887.319097	2
892.092251	3
905.980119	9
914.076309	4
932.278726	7
933.279837	3
959.632543	2
959.655009	1
967.339430	2
968.505744	3
968.813320	1
978.982411	2
981.615066	2
986.285871	1
988.466428	2
993.695037	2
997.731585	2
1002.242223	2
1002.284186	2
1005.921012	2
1005.969235	24
1006.976678	6
1011.732600	1
1011.744760	1
1026.042825	2
1027.852148	2
1030.890845	2
1042.182706	2
1044.487567	2
1049.550564	2
1049.858985	2
1065.271083	2
1070.188424	2
1076.426497	2
1080.541741	2
1080.628985	1
1082.638504	2
1087.575077	2
1102.658264	2
1105.340300	2
1105.965432	35
1106.966746	8
1107.412211	6
1108.415492	2
1113.557704	2
1128.570279	2
1142.493702	2
1155.955800	3
1160.625551	2
1163.312050	2
1163.881976	2
1165.985321	25
1166.993939	7
1169.921809	2
1172.140112	1
1181.759520	2
1182.980837	2
1187.954702	2
1190.278823	2
1195.759614	2
1205.956640	18
1206.962121	5
1207.810234	2
1207.960927	2
1225.829141	2
1228.802285	2
1233.969956	4
1236.660506	2
1246.695768	2
1247.552811	2
1255.491012	2
1255.953397	6
1265.978062	62
1266.982865	16
1267.988864	4
1282.971940	11
1283.970969	3
1292.172099	2
1298.955978	2
1305.944986	3
1306.426603	2
1307.613946	2
1333.966349	10
1334.979463	2
1355.665715	2
1355.948671	6
1356.949159	3
1364.012236	2
1365.974981	41
1366.977040	13
1367.980202	4
1373.608750	3
1382.966749	7
1383.734687	2
1383.968112	3
1398.645525	2
1403.897944	2
1410.250001	2
1417.501925	2
1433.958002	7
1434.953645	5
1451.945381	2
1455.936047	3
1465.969084	21
1466.966411	9
1470.560965	2
1482.696242	2
1482.955151	4
1484.121082	2
1484.618099	2
1487.843965	2
1488.646649	2
