Mass spectrum: DL-Isocitric acid; LC-ESI-ITFT; MS; POS
Name: Isocitrate
Name: Isocitric acid
Name: 1-Hydroxytricarballylic acid
Name: 1-Hydroxypropane-1,2,3-tricarboxylic acid
Name: DL-Isocitric acid
Class: Natural Product
Formula: C6H8O7
Exact mass: 192.02700
SMILES: OC(=O)CC(C(O)=O)C(O)C(O)=O
InChI: InChI=1S/C6H8O7/c7-3(8)1-2(5(10)11)4(9)6(12)13/h2,4,9H,1H2,(H,7,8)(H,10,11)(H,12,13)
Instrument: LTQ Orbitrap XL, Thermo Scientfic
Instrument type: LC-ESI-ITFT
Ms type: MS
Ion mode: POSITIVE
Collision energy: 35eV
Ionization: ESI
Column name: TOSOH TSKgel ODS-100V  5um Part no. 21456
Retention time: 8.835305 min
Base peak: 175.023941
m/z	relative intensity
100.112037	23
101.023355	14
101.059613	1
101.096083	17
101.115477	1
102.033943	2
102.091396	7
103.075187	3
106.023038	1
107.067275	1
107.068531	1
107.070205	52
108.080734	1
113.059480	2
114.073296	1
114.127856	1
115.112240	1
116.052719	1
118.086052	2
118.087022	1
118.942645	2
121.049220	1
121.064566	1
123.055343	11
123.080357	1
124.039183	1
124.096870	6
125.986214	1
126.950350	1
127.111528	1
128.070565	1
128.107257	6
129.018350	62
129.020564	1
129.052403	21
129.127480	13
130.021769	1
130.122362	1
132.066053	1
132.066913	1
132.102468	1
133.067897	1
133.079496	8
134.081185	2
134.082358	1
134.986925	1
135.044710	1
136.021654	3
136.061816	19
136.507780	8
136.953217	1
137.018327	1
137.040141	1
137.041353	1
137.043475	3
137.045899	238
137.048323	3
137.050748	1
137.051354	1
137.073783	2
137.127755	1
137.132609	49
137.135035	1
138.049275	5
138.136019	1
139.050083	6
139.112045	1
139.982321	1
141.958490	16
142.123164	1
143.061963	1
143.070690	1
143.143122	1
145.097337	7
145.122760	1
145.512871	1
146.045137	1
147.026160	1
147.028854	108
147.031548	1
147.059839	1
148.032409	3
149.016032	1
149.019468	1
149.023592	56
149.032182	2
149.038025	1
149.044898	2
149.952594	1
150.021986	9
150.026498	2
150.040383	1
150.058089	1
151.096730	4
152.056903	1
152.128470	1
153.065597	1
153.127855	1
155.143256	37
155.146176	1
156.014150	1
156.146006	1
156.979294	1
157.007531	2
157.009018	1
157.010504	2
157.013477	186
157.016450	2
157.018308	1
157.020538	18
157.047672	1
157.085969	1
157.122419	2
158.002927	2
158.016433	5
158.089621	1
158.096379	16
158.154218	2
158.961247	1
159.104438	1
159.112778	2
159.969577	1
161.010297	1
161.111451	1
161.131925	1
162.023025	1
162.052245	1
162.054972	2
162.058479	189
162.061597	2
162.065494	1
162.094336	1
163.039438	1
163.061854	5
163.123620	1
163.133065	81
163.136214	1
163.940086	1
164.053936	3
164.136521	3
165.007046	7
165.054699	9
165.509440	1
166.054138	1
167.012934	1
167.034135	6
167.977179	2
168.123257	1
168.174738	1
168.997926	1
169.032374	1
169.036110	134
169.039431	2
169.042336	1
169.074306	1
170.033030	1
170.039312	4
170.096704	27
170.154125	1
170.976704	1
171.110646	1
171.136016	1
171.138553	19
171.141513	1
171.142782	1
171.144473	1
171.145742	2
171.149548	255
171.152932	3
171.156738	1
171.188464	1
171.992572	1
172.141360	1
172.152879	16
172.169519	1
173.079007	1
173.117292	1
174.087662	1
174.124980	1
174.128018	133
174.131490	1
174.353923	1
174.801814	1
174.903133	1
174.949455	1
174.983989	5
174.988799	1
175.001479	1
175.004103	1
175.005415	1
175.007601	1
175.008476	1
175.011100	1
175.012412	2
175.013724	2
175.017222	4
175.020284	9
175.023783	999
175.027282	12
175.030781	4
175.031655	4
175.033405	1
175.035155	2
175.036029	1
175.037342	2
175.038654	1
175.039529	1
175.041278	1
175.042153	1
175.043028	1
175.044341	1
175.064027	5
175.089406	17
175.092469	1
175.095532	1
175.098158	1
175.130986	9
175.144995	1
175.246613	1
175.697950	1
176.020395	1
176.023041	1
176.027011	60
176.030540	1
176.092758	1
176.142644	1
176.969501	1
177.027767	7
178.035287	2
178.122367	1
179.063653	29
180.158947	2
181.059368	1
182.009682	1
182.984796	6
184.557851	1
184.985765	1
185.115095	2
185.153635	1
186.185345	5
186.956467	3
187.122676	1
187.126544	114
187.130412	1
187.963870	1
188.129962	4
189.086946	1
189.122312	1
189.148843	1
190.159182	1
190.986055	1
190.988548	2
190.993533	1
192.068977	2
192.258667	1
192.777342	1
192.894688	1
192.948844	1
192.985299	1
192.988337	4
193.006569	1
193.011634	1
193.013660	1
193.016699	1
193.019738	1
193.021258	1
193.022777	1
193.025310	2
193.026830	3
193.028349	2
193.030375	7
193.034428	881
193.038481	11
193.042534	3
193.043547	3
193.047600	2
193.048613	1
193.050133	1
193.052666	1
193.054186	1
193.055706	1
193.058239	1
193.067867	1
193.072427	1
193.081042	4
193.120575	1
193.174827	1
193.292028	1
193.815403	1
194.037805	47
194.041890	1
194.117473	1
195.038222	6
195.087107	3
195.122110	6
199.169223	1
199.180373	51
199.184621	1
200.143839	1
200.183956	1
203.068356	1
204.019466	1
205.104270	2
206.065825	1
207.025155	1
207.029656	1
208.027466	1
208.190213	1
210.008628	1
210.050023	1
210.052323	1
210.056349	2
210.060949	188
210.065550	2
210.071300	1
210.086829	1
210.113865	1
211.063983	6
212.007732	20
212.064885	1
212.509481	1
214.961780	2
215.002266	1
215.005244	1
215.007030	1
215.011794	3
215.016558	332
215.021323	4
215.026683	1
215.030256	1
215.031447	1
215.071358	1
215.157172	1
216.019952	13
216.049940	1
216.207181	1
217.020119	1
217.105290	1
219.174341	1
219.994225	5
220.112608	15
220.495540	1
221.115280	1
221.150063	4
222.055426	1
222.101059	1
222.102935	1
222.107312	2
222.108562	2
222.112939	301
222.117941	4
222.121067	1
222.123568	1
222.169848	1
223.058203	1
223.060091	1
223.063867	128
223.068901	1
223.074565	1
223.109811	1
223.116105	28
223.121142	1
223.133103	2
223.953164	1
224.063353	12
224.069689	3
224.109607	1
224.110874	1
224.112775	1
224.115944	2
224.117845	2
224.120380	1
224.122281	6
224.127985	652
224.133055	8
224.139394	2
224.141295	1
224.142563	1
224.143831	1
224.145732	1
224.147634	1
224.186304	3
224.303011	1
225.042151	3
225.060006	8
225.125070	1
225.131450	73
225.135279	1
225.136555	1
225.195906	1
226.133962	2
226.158371	3
227.021669	1
228.232103	2
229.047063	11
230.981611	1
230.984263	1
230.989568	7
231.993458	1
233.174638	24
234.177930	1
235.167956	1
236.058740	1
238.091316	1
238.107277	1
239.111178	1
240.180488	1
244.238734	1
247.970896	1
250.200711	1
254.138225	1
255.155987	1
256.261990	1
258.217226	9
258.221145	1
259.220195	1
259.225713	1
261.007823	1
261.168786	1
262.997589	2
265.038717	1
267.131738	1
272.971292	2
273.072692	1
273.083773	1
277.199902	4
279.158552	8
280.162057	1
282.221186	9
283.224159	1
285.057032	1
286.040447	1
286.248900	2
287.979216	4
287.982908	1
288.038302	1
288.043842	1
291.950277	2
292.958244	4
292.962033	1
294.225799	1
297.081451	2
299.072194	3
299.181639	2
300.965620	1
305.194169	1
307.022117	1
307.082078	3
307.583792	1
307.586848	1
308.020354	4
308.089800	1
308.522323	1
308.526418	1
309.093254	1
315.092465	1
320.293539	1
321.093000	1
321.225628	1
322.257928	1
324.057458	2
325.041455	1
326.981617	2
327.177147	1
329.072212	1
332.073808	1
332.561263	7
332.568136	1
333.062421	1
335.976945	1
338.252048	1
343.208159	1
348.070300	73
349.072120	3
353.015199	1
361.061694	26
361.068174	1
362.064204	2
364.268190	1
366.283065	1
367.048268	1
385.060043	3
385.064325	1
387.309143	1
391.151352	1
391.274122	1
391.284356	188
391.296052	2
392.287721	33
392.293592	1
393.289058	1
402.086073	1
403.340833	1
404.024099	8
404.030235	3
405.026083	1
407.028856	2
407.035061	1
407.042816	20
407.049021	1
408.045159	2
408.292817	1
409.018395	3
413.265143	5
413.271491	1
417.013220	1
419.313189	1
426.356690	5
427.359495	1
427.376183	3
427.979266	1
428.379239	1
428.976056	5
428.982769	1
429.075087	1
430.973353	1
435.167732	1
436.339497	3
436.984089	1
437.348379	1
437.970969	5
437.979626	1
438.081791	1
438.978569	11
438.987255	1
439.982677	1
440.977988	1
459.347486	1
464.370027	1
464.377587	1
475.379199	3
475.387030	1
478.351212	20
479.354686	5
480.065157	1
480.355356	1
500.046934	1
508.029920	1
516.083801	1
519.010483	1
527.323379	1
549.969168	1
552.332520	1
561.970115	1
577.965290	1
596.049819	1
599.062733	1
600.061009	1
601.042299	1
605.298118	1
621.000508	2
621.989677	1
622.004328	1
630.000766	1
631.005537	2
632.009714	1
664.112670	1
698.979971	1
707.987972	1
723.985074	3
724.994318	1
900.023489	1
916.013119	1
1221.995860	1
1321.992409	2
