Mass spectrum: L-Glutathione (reduced form); LC-ESI-ITFT; MS2; m/z:309.09; POS
Name: Glutathione
Name: 5-L-Glutamyl-L-cysteinylglycine
Name: N-(N-gamma-L-Glutamyl-L-cysteinyl)glycine
Name: gamma-L-Glutamyl-L-cysteinyl-glycine
Name: GSH
Name: Reduced glutathione
Name: L-Glutathione (reduced form)
Class: Natural Product
Formula: C10H17N3O6S
Exact mass: 307.08381
SMILES: OC(=O)CNC(=O)C(CS)NC(=O)CCC(N)C(O)=O
InChI: InChI=1S/C10H17N3O6S/c11-5(10(18)19)1-2-7(14)13-6(4-20)9(17)12-3-8(15)16/h5-6,20H,1-4,11H2,(H,12,17)(H,13,14)(H,15,16)(H,18,19)/t5-,6-/m0/s1
Instrument: LTQ Orbitrap XL, Thermo Scientfic
Instrument type: LC-ESI-ITFT
Ms type: MS2
Ion mode: POSITIVE
Collision energy: 35eV
Ionization: ESI
Column name: TOSOH TSKgel ODS-100V  5um Part no. 21456
Retention time: 8.868460 min
Base peak: 180.044952
Precursor m/z: 309.09
m/z	relative intensity
115.978645	20
116.999146	18
130.199326	2
131.003418	3
144.068527	46
145.076660	35
146.096558	2
147.084686	1
150.209778	1
152.208008	1
162.060150	310
163.028488	275
179.009521	939
180.044952	999
204.987274	1
205.975677	2
215.245056	6
216.197052	14
217.129547	1
233.205048	91
234.106842	243
245.168640	4
246.156067	16
272.414001	2
273.170319	14
290.227661	10
291.196594	117
292.262024	35
