Mass spectrum: Uridine; LC-ESI-ITFT; MS2; m/z:113.03; POS
Name: Uridine
Class: Natural Product
Formula: C9H12N2O6
Exact mass: 244.06954
SMILES: OC[C@@H](O1)[C@@H](O)[C@@H](O)[C@@H]1N(C=2)C(=O)NC(=O)C2
InChI: InChI=1S/C9H12N2O6/c12-3-4-6(14)7(15)8(17-4)11-2-1-5(13)10-9(11)16/h1-2,4,6-8,12,14-15H,3H2,(H,10,13,16)/t4-,6-,7-,8-/m1/s1
Instrument: LTQ Orbitrap XL, Thermo Scientfic
Instrument type: LC-ESI-ITFT
Ms type: MS2
Ion mode: POSITIVE
Collision energy: 35eV
Ionization: ESI
Column name: TOSOH TSKgel ODS-100V  5um Part no. 21456
Retention time: 5.554538 min
Base peak: 69.981705
Precursor m/z: 113.03
m/z	relative intensity
57.982376	319
69.011169	183
69.981705	999
71.044708	129
84.908066	168
92.477722	556
95.134811	121
96.059067	706
