Mass spectrum: L-Carnosine; LC-ESI-ITFT; MS2; m/z:227.11; POS
Name: Carnosine
Name: Nalpha-(beta-alanyl)-L-histidine
Name: L-Carnosine
Class: Natural Product
Formula: C9H14N4O3
Exact mass: 226.10659
SMILES: C1=C(NC=N1)C[C@@H](C(=O)O)NC(=O)CCN
InChI: InChI=1S/C9H14N4O3/c10-2-1-8(14)13-7(9(15)16)3-6-4-11-5-12-6/h4-5,7H,1-3,10H2,(H,11,12)(H,13,14)(H,15,16)/t7-/m0/s1
Instrument: LTQ Orbitrap XL, Thermo Scientfic
Instrument type: LC-ESI-ITFT
Ms type: MS2
Ion mode: POSITIVE
Collision energy: 35eV
Ionization: ESI
Column name: TOSOH TSKgel ODS-100V  5um Part no. 21456
Retention time: 3.991292 min
Base peak: 210.067215
Precursor m/z: 227.11
m/z	relative intensity
83.050018	1
90.050735	1
93.048599	1
110.001144	137
137.981644	47
152.182037	2
154.201172	4
156.072464	90
164.187820	2
180.077393	100
181.124374	20
182.190277	4
192.117661	22
198.218826	10
209.103806	218
210.067215	999
