Mass spectrum: L-Histidine; LC-ESI-ITFT; MS2; m/z:154.06; NEG
Name: L-Histidine
Name: (S)-alpha-Amino-1H-imidazole-4-propionic acid
Class: Natural Product
Formula: C6H9N3O2
Exact mass: 155.06948
SMILES: C1=C(NC=N1)C[C@@H](C(=O)O)N
InChI: InChI=1S/C6H9N3O2/c7-5(6(10)11)1-4-2-8-3-9-4/h2-3,5H,1,7H2,(H,8,9)(H,10,11)/t5-/m0/s1
Instrument: LTQ Orbitrap XL, Thermo Scientfic
Instrument type: LC-ESI-ITFT
Ms type: MS2
Ion mode: NEGATIVE
Collision energy: 35eV
Ionization: ESI
Column name: TOSOH TSKgel ODS-100V  5um Part no. 21456
Retention time: 4.024422 min
Base peak: 136.978439
Precursor m/z: 154.06
m/z	relative intensity
71.900154	29
80.849983	4
93.011169	121
108.140656	47
109.063492	83
110.033478	93
118.024231	31
135.931396	860
136.978439	999
154.162750	22
