Mass spectrum: Creatine; LC-ESI-ITFT; MS; POS
Name: Creatine
Name: alpha-Methylguanidino acetic acid
Name: Methylglycocyamine
Class: Natural Product
Formula: C4H9N3O2
Exact mass: 131.06948
SMILES: OC(=O)CN(C)C(N)=N
InChI: InChI=1S/C4H9N3O2/c1-7(4(5)6)2-3(8)9/h2H2,1H3,(H3,5,6)(H,8,9)
Instrument: LTQ Orbitrap XL, Thermo Scientfic
Instrument type: LC-ESI-ITFT
Ms type: MS
Ion mode: POSITIVE
Collision energy: 35eV
Ionization: ESI
Column name: TOSOH TSKgel ODS-100V  5um Part no. 21456
Retention time: 5.009683 min
Base peak: 132.076141
m/z	relative intensity
102.033359	1
105.000100	6
120.065375	1
121.956376	1
121.982837	1
122.003198	2
122.015162	1
122.016689	1
122.017708	1
122.018726	1
122.020254	1
122.021272	1
122.022545	2
122.023309	1
122.024582	7
122.026619	450
122.028656	8
122.030947	2
122.031711	1
122.033239	1
122.034257	1
122.035276	1
122.036294	1
122.038332	1
122.050046	2
122.070678	1
122.097177	1
122.158614	1
123.023377	1
123.025697	2
123.029821	13
124.022485	18
124.030312	1
131.637095	1
131.927700	1
131.996706	2
132.026788	1
132.049714	4
132.053441	1
132.055160	1
132.056307	1
132.060893	1
132.063187	1
132.064906	1
132.066053	1
132.067200	2
132.068633	2
132.070067	2
132.071500	4
132.072360	2
132.073794	16
132.076087	999
132.078381	17
132.080961	5
132.081821	2
132.083542	3
132.084689	2
132.085549	1
132.086696	1
132.087843	1
132.089277	1
132.090710	1
132.091857	1
132.096445	1
132.102468	4
132.125701	1
132.155540	2
132.224725	1
132.517567	1
133.073116	4
133.079206	33
133.081525	1
134.079718	1
141.957852	1
149.022561	1
158.001802	1
171.148702	7
174.127150	4
182.983861	1
187.125093	1
223.061979	1
263.139433	1
263.145883	72
263.152333	1
264.147726	3
302.216077	1
391.282894	8
392.284786	1
512.300207	1
522.349771	1
525.282239	1
