Mass spectrum: Adenine; LC-ESI-ITFT; MS; POS
Name: Adenine
Name: 6-Aminopurine
Class: Natural Product
Formula: C5H5N5
Exact mass: 135.05450
SMILES: C1=NC2=C(N1)C(=NC=N2)N
InChI: InChI=1S/C5H5N5/c6-4-3-5(9-1-7-3)10-2-8-4/h1-2H,(H3,6,7,8,9,10)
Instrument: LTQ Orbitrap XL, Thermo Scientfic
Instrument type: LC-ESI-ITFT
Ms type: MS
Ion mode: POSITIVE
Collision energy: 35eV
Ionization: ESI
Column name: TOSOH TSKgel ODS-100V  5um Part no. 21456
Retention time: 5.504843 min
Base peak: 136.061661
m/z	relative intensity
119.035317	14
135.602522	1
135.909955	1
135.978815	1
136.011167	1
136.033941	4
136.041733	1
136.042632	1
136.045329	1
136.046528	1
136.047727	2
136.049526	1
136.051324	2
136.053123	1
136.054022	3
136.056420	6
136.059118	14
136.061816	999
136.063914	13
136.064514	13
136.066912	7
136.069011	2
136.069910	2
136.071709	2
136.073508	1
136.075307	2
136.076506	1
136.077705	1
136.078605	1
136.079504	1
136.081303	1
136.083702	1
136.089100	4
136.112193	1
136.144592	2
136.213631	1
136.523146	1
137.045293	3
137.058930	13
137.061961	1
137.064386	48
137.066811	1
137.067417	1
151.061304	1
158.002927	1
163.061068	1
171.149125	7
172.976690	1
174.127584	3
182.984796	1
187.126060	1
194.117473	9
199.179842	1
224.127985	1
306.202726	2
348.060488	1
348.070300	92
348.078886	1
348.081340	1
349.065961	1
349.073352	7
350.073323	1
391.282894	3
392.286254	1
483.123410	2
526.336676	4
527.339390	1
695.131889	4
696.136890	1
1042.196314	1
