Mass spectrum: Tyramine; LC-ESI-ITFT; MS; POS
Name: Tyramine
Name: 2-(p-Hydroxyphenyl)ethylamine
Class: Natural Product
Formula: C8H11NO
Exact mass: 137.08406
SMILES: NCCc(c1)ccc(O)c1
InChI: InChI=1S/C8H11NO/c9-6-5-7-1-3-8(10)4-2-7/h1-4,10H,5-6,9H2
Instrument: LTQ Orbitrap XL, Thermo Scientfic
Instrument type: LC-ESI-ITFT
Ms type: MS
Ion mode: POSITIVE
Collision energy: 35eV
Ionization: ESI
Column name: TOSOH TSKgel ODS-100V  5um Part no. 21456
Retention time: 5.463565 min
Base peak: 138.091156
m/z	relative intensity
103.054040	3
104.052614	1
118.064968	1
118.086294	1
120.936851	1
120.995153	1
121.041673	3
121.056264	1
121.057270	1
121.058276	1
121.059283	1
121.060792	3
121.061547	2
121.062554	5
121.064566	493
121.066831	6
121.068089	2
121.069095	3
121.071360	1
121.072618	1
121.073373	1
121.077148	1
121.087717	3
121.107351	1
121.134291	1
121.192736	1
122.067876	40
123.071073	1
133.031662	6
133.071956	2
137.621658	1
137.935376	1
138.006393	1
138.010068	1
138.039165	1
138.063063	5
138.066433	1
138.071949	1
138.073175	1
138.075933	1
138.077159	1
138.078078	1
138.078998	1
138.079917	1
138.080837	2
138.083288	2
138.084514	1
138.086353	5
138.087579	3
138.088499	9
138.091257	999
138.093709	11
138.095242	4
138.096468	6
138.097388	1
138.099227	2
138.100760	1
138.101986	2
138.103825	1
138.106278	1
138.108730	1
138.109956	1
138.112409	1
138.115475	1
138.119461	5
138.143072	1
138.172212	1
138.175893	2
138.247096	1
138.562956	1
139.049463	1
139.087875	1
139.091593	1
139.094072	71
139.096860	1
140.094694	1
140.097199	1
149.022904	1
150.026151	1
150.052534	1
150.053923	1
150.055311	1
150.058089	130
150.060867	1
150.063992	1
150.090037	1
151.061304	5
152.053716	3
158.002177	1
162.075627	1
163.132278	1
171.148702	10
172.976690	1
174.127150	4
182.984328	1
187.125577	1
194.117473	11
199.179842	1
203.222581	1
224.127351	2
270.154858	3
282.179996	2
286.120876	1
288.179628	1
300.215530	1
308.231829	3
370.256959	1
391.282894	7
392.286254	1
414.282608	1
422.139636	1
528.367912	36
529.369538	9
530.371708	1
