Mass spectrum: L-Glutathione (oxidized form); LC-ESI-ITFT; MS2; m/z:307.08; POS
Name: Glutathione disulfide
Name: GSSG
Name: Oxiglutatione
Name: Oxidized glutathione
Name: L-Glutathione (oxidized form)
Class: Natural Product
Formula: C20H32N6O12S2
Exact mass: 612.15196
SMILES: OC(=O)CNC(=O)[C@H](CSSC[C@H](NC(=O)CC[C@H](N)C(O)=O)C(=O)NCC(O)=O)NC(=O)CC[C@H](N)C(O)=O
InChI: InChI=1S/C20H32N6O12S2/c21-9(19(35)36)1-3-13(27)25-11(17(33)23-5-15(29)30)7-39-40-8-12(18(34)24-6-16(31)32)26-14(28)4-2-10(22)20(37)38/h9-12H,1-8,21-22H2,(H,23,33)(H,24,34)(H,25,27)(H,26,28)(H,29,30)(H,31,32)(H,35,36)(H,37,38)/t9-,10-,11-,12-/m0/s1
Instrument: LTQ Orbitrap XL, Thermo Scientfic
Instrument type: LC-ESI-ITFT
Ms type: MS2
Ion mode: POSITIVE
Collision energy: 35eV
Ionization: ESI
Column name: TOSOH TSKgel ODS-100V  5um Part no. 21456
Retention time: 8.874732 min
Base peak: 355.165375
Precursor m/z: 307.08
m/z	relative intensity
98.888832	2
130.026825	791
131.073395	27
142.033752	3
145.158234	4
145.916565	4
147.773514	2
148.995743	2
162.020905	18
163.079468	1
176.987183	10
177.950470	2
178.941315	13
198.985352	7
209.014404	2
210.971008	10
219.611023	11
231.030579	46
232.018372	4
233.233551	16
234.016388	2
235.149231	14
238.219330	12
242.721039	257
244.217712	9
245.176727	3
246.648712	27
252.409973	2
255.579803	5
257.218872	11
260.705261	29
261.360291	5
262.152588	5
265.186676	3
266.944794	18
269.495361	214
270.234344	17
271.160095	1
275.612274	388
276.218079	38
288.142090	5
290.029724	15
290.825195	8
298.553650	628
299.191711	125
303.243561	1
308.270264	3
337.338715	7
339.113312	2
340.139709	8
355.165375	999
356.155670	110
364.265533	5
365.652893	4
381.116364	54
382.295044	7
391.351654	5
409.153442	127
410.292206	15
421.973053	2
466.067078	28
467.116425	8
468.357483	4
475.185608	3
484.207184	500
485.330719	62
520.273254	12
538.166931	133
539.314392	34
551.210144	2
