Mass spectrum: L-Asparagine; LC-ESI-ITFT; MS2; m/z:265.11; POS
Name: L-Asparagine
Name: 2-Aminosuccinamic acid
Class: Natural Product
Formula: C4H8N2O3
Exact mass: 132.05349
SMILES: NC(=O)C[C@@H](N)C(O)=O
InChI: InChI=1S/C4H8N2O3/c5-2(4(8)9)1-3(6)7/h2H,1,5H2,(H2,6,7)(H,8,9)/t2-/m0/s1
Instrument: LTQ Orbitrap XL, Thermo Scientfic
Instrument type: LC-ESI-ITFT
Ms type: MS2
Ion mode: POSITIVE
Collision energy: 35eV
Ionization: ESI
Column name: TOSOH TSKgel ODS-100V  5um Part no. 21456
Retention time: 4.601878 min
Base peak: 133.098160
Precursor m/z: 265.11
m/z	relative intensity
83.021347	1
87.052338	9
88.095673	1
111.056107	1
116.020187	4
133.098160	999
141.091400	1
144.034561	1
170.961166	1
178.167999	2
193.851181	1
204.005051	1
219.287735	6
222.291748	4
224.068237	3
230.320435	1
234.181381	2
247.202042	2
249.209412	1
265.140747	1
267.117004	1
