Mass spectrum: Creatine; LC-ESI-ITFT; MS; NEG
Name: Creatine
Name: alpha-Methylguanidino acetic acid
Name: Methylglycocyamine
Class: Natural Product
Formula: C4H9N3O2
Exact mass: 131.06948
SMILES: OC(=O)CN(C)C(N)=N
InChI: InChI=1S/C4H9N3O2/c1-7(4(5)6)2-3(8)9/h2H2,1H3,(H3,5,6)(H,8,9)
Instrument: LTQ Orbitrap XL, Thermo Scientfic
Instrument type: LC-ESI-ITFT
Ms type: MS
Ion mode: NEGATIVE
Collision energy: 35eV
Ionization: ESI
Column name: TOSOH TSKgel ODS-100V  5um Part no. 21456
Retention time: 5.015075 min
Base peak: 130.062027
m/z	relative intensity
104.035477	1
112.051654	2
112.985648	5
114.019645	1
115.003565	2
129.013976	1
129.933042	1
129.984544	3
130.029914	1
130.030754	1
130.036077	8
130.045323	1
130.046724	1
130.047844	1
130.048685	1
130.050646	2
130.051767	2
130.052888	2
130.054289	2
130.055130	6
130.057652	16
130.059894	42
130.062135	999
130.063817	43
130.066619	13
130.068021	2
130.068861	5
130.069982	2
130.071103	1
130.071944	2
130.073065	2
130.074186	1
130.075027	1
130.075868	1
130.077550	1
130.078951	2
130.083436	1
130.084838	1
130.087921	8
130.094369	1
130.101658	1
130.106985	1
130.139516	3
131.059034	5
131.061018	1
131.063286	1
131.063853	1
131.065271	31
131.950811	1
132.003518	3
132.018419	1
132.019565	1
132.023004	3
132.024151	5
132.025297	6
132.027590	17
132.029883	405
132.031603	17
132.034469	5
132.035902	1
132.036762	2
132.037909	1
132.039055	1
132.040202	1
132.041348	1
132.047369	1
132.056256	3
132.066005	2
132.109313	1
133.026921	1
133.033299	15
133.035908	1
134.034124	2
139.006887	2
140.549853	1
141.532458	1
143.975272	1
148.952117	1
156.246266	1
160.892626	1
166.035577	1
166.038811	22
166.040832	1
166.042044	1
167.978097	1
168.035696	6
168.037754	1
173.118237	1
176.067090	1
184.342200	1
184.344092	1
185.996942	1
188.020394	1
193.057513	2
195.972765	1
198.049434	3
213.983403	1
218.035470	1
218.885870	1
220.093080	2
221.103938	1
228.029300	2
228.038408	1
229.986333	2
231.007143	2
234.554593	1
237.994211	4
238.994151	1
239.735799	1
241.091517	1
242.074767	1
244.054357	1
246.030621	1
249.016943	1
251.178717	1
260.019258	1
260.911136	1
261.043362	1
261.057705	3
261.084005	1
261.099149	1
261.102338	1
261.109512	1
261.111903	2
261.114295	2
261.119078	7
261.125455	17
261.131833	604
261.136617	18
261.144590	5
261.150171	2
261.153360	1
261.156550	1
261.159739	1
261.162929	1
261.205195	4
261.352012	1
262.128042	8
262.134456	48
263.093677	2
263.099321	53
263.103352	2
263.105771	1
263.131575	1
263.134800	2
263.138026	1
264.101955	2
265.067113	1
269.953081	1
272.021295	1
273.028524	2
275.016751	1
275.951452	1
283.099038	1
283.106238	2
283.113438	73
283.117938	2
284.109659	1
284.115992	3
285.081135	19
285.089320	1
285.113876	1
286.085027	1
287.049202	2
287.057472	2
289.025651	1
297.102381	1
297.108186	41
297.113991	1
297.116894	1
298.104359	1
298.111166	3
299.086982	2
299.104573	9
299.109459	1
299.114346	1
300.101971	1
300.106882	1
301.046134	1
303.100355	1
307.137081	7
308.140211	1
314.042589	6
315.050185	8
316.010626	2
316.053084	1
317.018118	5
322.061963	1
323.057960	6
324.058585	1
324.126929	4
325.026223	3
345.083906	1
351.027494	1
351.162971	3
352.165946	1
359.098994	10
359.107994	1
360.707585	1
361.056003	3
366.173933	1
369.063640	1
375.125013	1
377.372513	1
391.795166	1
392.031166	1
392.064898	3
392.113303	1
392.130908	1
392.141177	1
392.145579	1
392.158783	1
392.163185	2
392.169054	1
392.177858	6
392.189597	17
392.199869	624
392.210141	15
392.213076	14
392.223349	5
392.230687	1
392.235090	2
392.240960	1
392.246831	1
392.252702	1
392.334909	3
392.606668	1
393.180493	1
393.184911	1
393.204061	74
393.211426	2
393.215846	2
394.031768	1
394.132274	1
394.145579	1
394.150014	1
394.157406	3
394.167756	138
394.178106	3
394.181063	3
394.191413	1
394.198806	1
394.203242	3
394.207679	2
395.172099	15
395.179520	1
396.172837	1
401.145955	1
414.183342	4
415.183675	1
416.150744	1
416.158764	2
418.127351	2
419.130666	1
426.021747	2
428.177966	4
429.612776	1
430.146579	3
430.173548	2
432.115220	1
445.112337	2
446.120024	14
447.079339	2
447.122206	2
448.088341	2
448.120599	1
454.128768	6
455.196604	1
456.095174	1
460.187706	2
480.476349	1
490.167609	3
523.062378	1
523.213838	1
523.234189	2
523.252279	5
523.270371	282
523.283940	6
523.306556	2
523.478488	1
524.255497	1
524.273640	48
524.287249	1
524.294053	1
525.222941	2
525.238860	67
525.250231	2
525.259329	1
525.277524	3
526.240957	10
527.207043	3
527.243637	2
545.213087	1
545.251572	10
546.256030	1
547.219731	6
548.224785	1
549.220451	1
551.990938	1
552.167393	1
559.248113	20
560.251424	2
561.217246	1
561.244878	5
562.248533	1
569.257720	1
569.275683	47
569.291080	1
569.298779	1
570.280382	5
571.282583	1
576.181856	2
577.189182	5
578.151873	1
578.193898	1
579.156472	4
581.229133	1
585.196624	2
586.265238	2
587.164707	1
591.258418	3
607.177582	1
613.300841	2
621.236685	5
622.241317	1
628.311677	2
631.204915	1
637.264366	2
654.046796	1
654.290199	1
654.315495	5
654.340793	238
654.359768	4
654.366093	3
654.391393	1
654.631824	1
655.344404	42
655.372931	1
656.258205	1
656.289969	3
656.309028	132
656.340795	5
656.598195	1
657.263049	1
657.310804	23
657.342644	1
658.273393	1
658.311685	3
659.314853	1
676.320027	7
677.324689	1
678.288201	3
690.293400	1
690.317386	20
691.253823	1
691.319067	3
692.285073	2
692.312605	5
693.315184	1
700.289568	1
700.317578	2
700.345590	87
700.363099	2
700.377106	1
700.398118	1
701.348130	13
702.352823	2
707.252440	2
708.259168	3
709.260910	1
710.225442	2
712.296879	1
716.267797	1
717.333769	3
722.325236	3
723.331250	1
724.302537	1
744.127331	1
744.372835	2
752.305270	4
754.266117	1
762.270163	1
766.109676	1
768.325919	1
785.341777	1
785.362568	1
785.375043	2
785.408310	174
785.433262	3
785.474851	1
786.378154	1
786.411486	33
787.328927	1
787.341448	2
787.379015	113
787.416584	4
788.335785	1
788.352513	1
788.381788	23
789.344577	2
789.382287	6
790.384692	1
794.354245	1
807.392394	4
808.116724	1
808.390227	1
809.359459	4
821.385388	9
822.391459	2
823.354742	1
823.381524	3
824.386793	1
831.371338	1
831.416629	46
831.439276	1
832.418504	12
833.417645	2
835.425894	1
839.330985	2
841.296111	2
847.335586	1
848.338371	1
848.394393	1
849.403736	1
853.397938	1
875.439910	2
876.443988	1
883.377286	2
885.339924	1
890.453420	1
899.406052	2
900.405713	1
905.346751	1
905.980119	1
916.425168	1
916.446134	1
916.477584	89
916.509036	1
916.524762	1
917.437594	1
917.479596	22
918.393855	1
918.446440	64
918.483252	5
919.451684	18
919.483289	1
920.421647	1
920.453302	4
921.451274	1
925.422204	1
938.461726	1
940.431050	2
941.428952	1
952.455969	4
953.461952	1
954.452816	1
962.486409	9
963.485728	2
964.492263	1
972.360991	1
978.409737	1
982.016113	1
984.468412	3
985.467100	1
1005.975263	5
1006.511980	1
1014.443611	2
1047.549141	21
1048.549137	9
1049.473481	1
1049.518445	29
1050.521262	10
1050.566294	1
1051.519075	2
1052.524761	1
1069.533898	1
1071.499281	2
1072.500594	1
1073.470086	1
1081.072076	1
1083.520695	5
1084.525415	2
1085.524775	2
1086.539051	1
1093.555961	33
1093.590123	1
1094.554149	13
1095.560556	5
1096.561491	1
1100.461719	1
1101.469380	1
1103.440381	1
1105.965432	6
1106.966746	1
1109.469008	1
1110.538010	1
1111.433527	1
1114.084431	1
1115.540137	1
1128.505815	1
1145.512899	1
1146.517068	1
1147.478494	1
1161.537467	1
1165.985321	3
1178.618927	29
1179.621022	13
1180.586076	21
1181.590682	9
1181.943749	1
1182.588888	3
1183.557587	1
1183.596052	1
1193.473957	1
1193.949270	1
1200.594279	1
1202.569449	2
1203.570696	1
1205.956640	4
1214.595450	5
1215.603749	2
1216.581235	1
1216.605287	1
1224.621852	7
1225.626451	3
1226.624170	1
1234.502446	1
1241.613334	1
1245.648547	1
1246.604291	1
1265.986573	8
1266.982865	3
1282.971940	1
1309.688977	7
1310.692485	4
1311.652271	9
1312.658036	5
1313.619982	1
1313.664959	1
1333.644237	1
1333.975554	1
1340.099458	1
1345.659223	3
1347.666594	1
1355.694007	6
1356.694213	5
1357.704978	1
1365.974981	6
1366.986589	1
1401.069860	1
1407.662106	1
1425.236789	1
1440.753005	5
1441.766077	2
1442.728450	4
1443.733242	3
1444.739084	1
1460.227787	1
1464.273844	1
1465.969084	3
1466.213017	1
1466.977026	1
1476.738554	1
1486.760289	3
1487.768069	2
1488.755170	1
1497.606799	1
1498.614669	1
