Mass spectrum: NAD+; LC-ESI-ITFT; MS2; m/z:332.56; POS
Name: NAD+
Name: NAD
Name: Nicotinamide adenine dinucleotide
Name: DPN
Name: Diphosphopyridine nucleotide
Name: Nadide
Class: Natural Product
Formula: [C21H28N7O14P2]+
Exact mass: 664.11695
SMILES: NC(=O)c(c5)c[n+1](cc5)C(O1)C(O)C(O)C(COP(O)(=O)OP(O)(=O)OCC(O2)C(O)C(O)C2n(c4)c(n3)c(n4)c(N)nc3)1
InChI: InChI=1S/C21H27N7O14P2/c22-17-12-19(25-7-24-17)28(8-26-12)21-16(32)14(30)11(41-21)6-39-44(36,37)42-43(34,35)38-5-10-13(29)15(31)20(40-10)27-3-1-2-9(4-27)18(23)33/h1-4,7-8,10-11,13-16,20-21,29-32H,5-6H2,(H5-,22,23,24,25,33,34,35,36,37)/p+1/t10-,11-,13-,14-,15-,16-,20-,21-/m1/s1
Instrument: LTQ Orbitrap XL, Thermo Scientfic
Instrument type: LC-ESI-ITFT
Ms type: MS2
Ion mode: POSITIVE
Collision energy: 35eV
Ionization: ESI
Column name: TOSOH TSKgel ODS-100V  5um Part no. 21456
Retention time: 8.880675 min
Base peak: 542.037048
Precursor m/z: 332.56
m/z	relative intensity
96.018463	2
97.057709	1
105.987930	6
122.992783	852
123.862129	1
136.063339	46
193.254120	1
219.070251	1
232.238373	61
250.293396	1
312.486115	1
317.301392	2
348.241119	2
371.129395	2
389.083374	1
410.239990	5
428.204651	30
444.261139	7
506.040833	1
511.071747	1
524.114563	687
524.764832	1
529.131531	5
542.037048	999
542.987244	1
