Mass spectrum: L-Isoleucine; LC-ESI-ITFT; MS2; m/z:132.10; POS
Name: L-Isoleucine
Name: 2-Amino-3-methylvaleric acid
Class: Natural Product
Formula: C6H13NO2
Exact mass: 131.09463
SMILES: CC[C@H](C)[C@H](N)C(O)=O
InChI: InChI=1S/C6H13NO2/c1-3-4(2)5(7)6(8)9/h4-5H,3,7H2,1-2H3,(H,8,9)/t4-,5-/m0/s1
Instrument: LTQ Orbitrap XL, Thermo Scientfic
Instrument type: LC-ESI-ITFT
Ms type: MS2
Ion mode: POSITIVE
Collision energy: 35eV
Ionization: ESI
Column name: TOSOH TSKgel ODS-100V  5um Part no. 21456
Retention time: 6.238490 min
Base peak: 85.962250
Precursor m/z: 132.10
m/z	relative intensity
69.059143	2
85.962250	999
