Mass spectrum: NADH; LC-ESI-ITFT; MS2; m/z:664.12; NEG
Name: NADH
Name: DPNH
Class: Natural Product
Formula: C21H29N7O14P2
Exact mass: 665.12477
SMILES: NC(=O)C(C5)=CN(C=C5)[C@H](O1)[C@H](O)[C@H](O)[C@@H](COP(O)(=O)OP(O)(=O)OC[C@@H](O2)[C@@H](O)[C@@H](O)[C@@H]2n(c4)c(n3)c(n4)c(N)nc3)1
InChI: InChI=1S/C21H29N7O14P2/c22-17-12-19(25-7-24-17)28(8-26-12)21-16(32)14(30)11(41-21)6-39-44(36,37)42-43(34,35)38-5-10-13(29)15(31)20(40-10)27-3-1-2-9(4-27)18(23)33/h1,3-4,7-8,10-11,13-16,20-21,29-32H,2,5-6H2,(H2,23,33)(H,34,35)(H,36,37)(H2,22,24,25)/t10-,11-,13-,14-,15-,16-,20-,21-/m1/s1
Instrument: LTQ Orbitrap XL, Thermo Scientfic
Instrument type: LC-ESI-ITFT
Ms type: MS2
Ion mode: NEGATIVE
Collision energy: 35eV
Ionization: ESI
Column name: TOSOH TSKgel ODS-100V  5um Part no. 21456
Retention time: 9.565262 min
Base peak: 408.031616
Precursor m/z: 664.12
m/z	relative intensity
210.981262	6
214.127380	2
255.105911	2
272.970215	175
281.152466	1
299.216309	22
317.144318	12
328.108887	126
335.203064	40
346.123657	308
397.126770	998
400.131042	6
403.155457	1
408.031616	999
415.085693	6
424.346313	1
426.001404	23
431.161926	3
442.173889	2
452.346313	1
468.229736	2
480.290344	1
497.998291	9
529.199768	14
539.924805	1
566.199402	13
584.184326	4
621.196228	1
646.294189	1
