Mass spectrum: L-(+)-Arginine; LC-ESI-ITFT; MS; NEG
Name: L-Arginine
Name: (S)-2-Amino-5-guanidinovaleric acid
Name: L-(+)-Arginine
Class: Natural Product
Formula: C6H14N4O2
Exact mass: 174.11168
SMILES: NC(=N)NCCC[C@H](N)C(O)=O
InChI: InChI=1S/C6H14N4O2/c7-4(5(11)12)2-1-3-10-6(8)9/h4H,1-3,7H2,(H,11,12)(H4,8,9,10)/t4-/m0/s1
Instrument: LTQ Orbitrap XL, Thermo Scientfic
Instrument type: LC-ESI-ITFT
Ms type: MS
Ion mode: NEGATIVE
Collision energy: 35eV
Ionization: ESI
Column name: TOSOH TSKgel ODS-100V  5um Part no. 21456
Retention time: 4.131042 min
Base peak: 173.104523
m/z	relative intensity
102.956901	1
103.190591	1
107.414097	1
107.912192	1
107.986782	1
108.056779	2
110.072381	8
111.075625	1
112.070454	1
112.088164	3
112.981764	1
112.983806	2
112.985848	92
112.987663	3
112.989479	1
112.991748	1
113.989032	1
114.056201	1
117.344998	1
121.677629	1
123.698397	1
125.538142	1
128.060510	1
129.975841	1
131.004318	1
131.056459	2
131.060427	1
131.071767	1
131.072617	1
131.075169	2
131.076587	1
131.077721	3
131.078855	4
131.080273	8
131.082824	338
131.085093	10
131.087645	3
131.089913	2
131.092465	1
131.093316	1
131.108914	2
132.079458	1
132.085767	12
132.552196	1
132.623152	1
133.086631	1
133.618177	1
133.820923	1
136.043245	1
137.035549	6
137.745066	1
140.899916	1
141.673779	1
142.946467	1
143.430421	1
144.880317	1
145.050803	1
146.938443	1
146.960992	1
147.492225	1
147.777588	1
148.968573	1
149.866087	1
154.028862	2
154.038975	1
154.044755	1
154.049451	2
154.052702	3
154.054508	1
154.055953	4
154.057398	4
154.058843	13
154.062095	468
154.063901	8
154.064985	13
154.068598	4
154.071488	2
154.074379	1
154.075463	1
154.084858	1
154.095338	2
154.161857	1
154.974023	1
155.058985	2
155.065551	23
156.062636	1
156.066319	1
156.074423	1
156.077739	23
156.080686	1
157.011738	6
157.080898	1
160.967031	1
162.982483	1
172.844396	1
172.906665	1
172.985730	2
173.051946	1
173.064850	4
173.066570	1
173.067861	1
173.070442	1
173.072592	1
173.078185	1
173.082917	1
173.084208	2
173.085929	2
173.088080	2
173.089370	4
173.093243	5
173.097115	9
173.098836	7
173.100557	23
173.104430	999
173.107872	25
173.111745	7
173.115618	6
173.119061	3
173.122503	1
173.125086	1
173.127668	1
173.128959	1
173.130250	1
173.131541	1
173.136276	1
173.137997	1
173.139289	1
173.141871	1
173.144023	4
173.223682	2
173.302965	1
174.100966	6
174.103571	1
174.107477	57
174.110949	1
175.107885	1
175.110074	1
175.491575	1
176.020716	1
176.044102	21
178.059000	1
178.539843	1
178.977391	1
178.993677	1
179.618768	1
180.972609	17
184.528612	1
184.530507	1
190.927967	1
195.085798	2
196.030272	2
197.062083	1
198.026227	1
198.935957	1
199.229436	1
199.304369	1
201.506219	1
201.992940	1
204.956741	2
206.972185	8
208.988960	1
209.072322	1
209.080889	3
209.996633	1
211.077645	1
212.012385	2
212.020550	6
213.085511	3
214.017663	2
215.072695	1
215.989141	1
217.068470	1
218.285026	1
219.109311	1
221.991694	1
222.032943	1
222.039819	3
222.043569	4
222.049195	209
222.054197	4
222.059198	1
222.065450	1
223.042735	1
223.045882	1
223.052175	13
224.025219	4
224.053095	2
224.998904	1
228.031201	1
228.646581	1
229.039008	1
229.272325	1
230.110875	1
231.055524	1
231.062823	17
232.066102	1
232.086809	1
232.797856	1
233.059796	5
235.031705	1
235.482331	1
236.167219	1
238.014276	1
238.931287	1
239.039478	5
240.896381	1
241.025703	2
241.063884	1
241.066712	1
241.068834	1
241.073077	2
241.076613	1
241.079441	4
241.081563	3
241.085099	12
241.091464	519
241.095000	4
241.097122	11
241.103488	3
241.109854	3
241.115513	1
241.117635	1
241.123294	1
241.124708	1
241.156545	2
241.287493	1
242.035582	1
242.088235	4
242.094640	31
243.066855	5
243.095496	2
244.031254	22
244.071592	1
245.034010	1
247.682957	1
248.953051	1
248.959730	40
249.963181	1
250.942666	1
253.041380	1
253.986257	3
254.916441	1
256.627465	1
256.954771	1
257.065310	3
258.081394	5
260.004938	1
261.994929	2
263.073459	1
264.059731	1
264.934201	1
266.075224	12
267.078441	1
268.015206	3
268.051685	1
268.473387	1
270.030967	8
271.033896	1
271.070993	1
271.102194	1
272.021232	1
273.028462	4
274.007016	1
274.011301	2
274.019871	1
274.031012	1
279.041241	1
281.036872	4
281.461047	1
283.102580	1
284.731281	1
285.117457	16
285.122005	1
286.120627	2
287.057415	3
287.096930	1
288.056994	1
289.072946	4
290.036414	29
291.040350	1
292.986213	1
293.053496	7
293.062975	1
293.523227	1
299.049789	3
301.047059	1
301.764796	1
301.989740	1
303.062410	2
304.711808	1
308.000187	1
308.367140	1
309.061951	1
309.070163	2
309.079403	134
309.087616	3
309.131767	1
309.242699	1
310.075566	1
310.081755	10
310.135406	1
311.082772	1
312.018865	14
312.023031	1
315.035321	2
315.993570	1
316.947670	22
316.993515	1
317.951080	1
319.650245	1
320.013343	1
321.974543	1
323.915274	1
325.052714	4
326.069303	1
327.042615	2
327.175626	1
327.993355	1
328.174116	29
328.183102	1
329.177184	3
330.099859	1
331.085596	1
331.098116	1
331.103808	2
331.112914	138
331.123159	2
331.133405	1
331.142513	1
331.515109	1
332.111200	2
332.116918	15
333.062324	1
333.088739	4
333.099076	1
333.115157	1
334.061371	1
335.078825	4
337.094985	2
337.462450	1
341.191807	2
347.087235	1
347.194768	1
347.204546	2
347.215547	135
347.225327	3
347.237551	1
347.995506	1
348.212695	2
348.218834	15
349.024350	1
349.222776	1
350.041679	1
350.123356	1
350.129545	1
350.134496	2
350.139447	1
350.144399	6
350.155540	343
350.161729	4
350.165443	6
350.175347	2
350.177823	2
350.186490	1
350.197633	1
350.201347	1
351.152955	6
351.159171	40
352.118433	1
352.130917	7
352.158384	1
352.163378	1
353.095420	3
353.105449	3
353.134283	1
357.060883	1
358.023967	13
359.026937	1
361.040379	2
362.043044	1
362.608554	1
363.979593	1
366.019022	1
366.128855	5
367.037200	3
367.307037	1
367.313687	1
368.127678	1
369.035440	1
369.072945	1
369.145293	1
369.150653	1
369.162714	1
369.169414	1
369.174775	3
369.185496	8
369.197558	453
369.208280	8
369.219003	2
369.221684	2
369.232407	1
369.243131	1
369.247153	1
369.320893	1
370.188663	1
370.200774	52
370.211540	1
371.050042	1
371.056794	1
371.172956	3
371.199978	1
371.205383	2
372.136765	11
372.203233	1
373.045791	1
373.141099	1
374.732662	1
374.829988	1
375.046707	1
375.076899	3
377.054082	2
377.066532	105
377.077599	2
378.070068	7
379.070645	2
380.005211	10
381.010674	1
381.048615	1
381.085156	1
382.092089	2
383.022280	2
383.192286	2
384.934256	5
385.032729	1
385.171225	8
386.132758	1
386.174333	1
390.100992	3
393.040519	9
393.221658	10
394.043510	1
394.223865	1
395.979153	1
396.160839	1
396.866425	1
397.968090	1
398.094115	1
398.137638	4
399.099955	6
399.140629	1
400.103564	1
400.127757	1
401.135248	2
404.352654	1
405.174225	2
408.114697	2
408.916519	1
409.002457	1
409.013396	1
409.143141	2
410.111136	1
415.202761	24
415.217147	1
416.206791	2
417.179048	3
418.132100	1
418.143407	78
418.156331	1
419.146780	10
420.150515	1
421.082754	2
421.092549	2
422.086901	1
424.660984	1
426.011680	8
427.015181	1
427.091879	1
427.156922	4
428.161127	1
429.153761	1
431.168018	1
431.178167	1
434.116111	4
435.024950	2
437.025493	1
437.141163	1
437.154978	1
437.161885	1
437.168793	3
437.184336	168
437.199880	3
437.211970	1
437.229242	1
438.187735	20
439.038129	1
439.191115	1
440.107224	1
440.124668	13
441.127711	2
443.064811	1
444.141583	1
445.037756	1
445.053720	67
445.183241	1
446.057651	5
446.132415	1
447.059624	1
447.139999	1
447.332988	2
447.993310	3
450.082276	1
451.010975	2
452.922541	3
453.159379	6
454.161617	1
454.176246	1
455.009443	1
455.148837	1
459.228610	2
461.028090	7
461.170260	2
461.209555	4
462.041548	1
462.169169	1
463.016938	1
463.184511	6
464.148410	2
464.188086	1
466.125180	1
466.479028	1
467.088741	5
467.165040	3
469.036363	1
469.122738	1
470.105242	2
471.054133	2
473.162724	1
473.994138	1
475.536182	1
476.102895	1
477.001116	1
477.166492	1
478.101301	1
481.211323	2
483.189834	20
484.194739	2
485.196726	1
486.112717	1
486.130941	57
486.147142	1
487.045519	1
487.132853	6
489.070375	1
489.078548	2
489.148034	2
490.149041	1
492.086041	1
492.139666	1
493.309230	1
493.999279	5
495.077651	1
495.144256	2
499.165271	3
500.711189	1
502.104837	5
502.285566	15
503.013723	1
503.109652	1
503.288791	2
504.290745	1
505.154091	1
505.173397	108
505.190559	1
505.224885	5
506.176684	13
507.178646	1
507.202385	1
507.310307	1
507.921799	1
508.099187	1
508.112170	9
508.164108	2
508.181423	1
508.315640	1
509.115548	2
509.169810	1
509.308762	1
509.973912	1
511.129055	2
513.040347	28
513.051325	1
514.045153	2
515.128007	1
515.979483	1
518.067303	1
518.745225	1
518.997556	1
519.990797	1
520.910513	2
521.146443	6
521.306067	1
521.328555	52
521.990359	1
522.150371	1
522.330754	8
522.996727	1
524.266723	32
524.278063	1
525.270587	5
526.243124	4
526.275056	1
527.206929	17
528.210079	3
529.016042	4
529.158597	1
529.195395	9
530.158100	1
530.197309	1
531.172002	3
532.096046	1
532.135470	3
534.112263	1
535.076730	2
535.151568	2
535.305970	1
536.884229	1
537.025274	1
537.302825	1
538.091962	1
539.041224	1
541.151780	1
543.181465	1
543.310644	36
544.091477	1
544.312140	6
545.155250	2
545.169679	1
545.193729	1
545.285133	1
545.316408	1
546.248677	57
547.253474	8
548.108279	1
548.256196	1
548.729447	1
549.191154	2
550.201646	1
551.178257	23
552.130507	1
552.181984	3
554.118812	35
554.138528	1
555.120701	4
555.197312	2
555.264050	1
556.204607	1
557.068057	1
557.135133	1
557.304119	2
558.137744	1
559.048154	1
559.285475	1
559.803109	1
560.126056	1
560.243789	1
561.986549	2
562.223226	2
563.131030	1
563.302751	4
564.304335	1
565.290818	51
566.295166	8
567.154157	2
567.332828	20
568.230008	4
568.337506	3
570.092480	3
570.272541	7
571.171548	1
572.204546	1
573.141827	1
573.159974	56
573.172936	1
573.211827	2
574.164580	7
574.216570	1
575.018099	1
575.166618	1
576.098127	3
576.152992	1
577.105233	1
579.106320	1
579.116852	1
579.285401	2
579.317012	1
581.027858	13
581.263427	2
581.284609	1
582.228371	1
583.113242	1
583.968137	1
584.322896	1
585.046753	1
586.055982	1
588.896836	1
589.134505	6
589.315555	18
590.319595	3
590.984048	1
591.122504	1
591.146943	1
591.293605	3
592.074005	1
592.253688	15
592.297260	1
593.259790	2
594.063235	1
594.230141	1
595.194645	9
596.200002	2
597.001162	3
597.183093	10
598.187966	1
599.159355	2
600.122001	2
601.267986	1
602.098925	1
603.063072	2
604.206271	1
605.271129	1
606.293674	1
607.027668	1
608.230341	1
611.168486	1
611.274120	1
611.296963	14
612.077255	1
612.300471	2
613.142918	1
613.157261	2
614.237251	29
615.239361	4
616.096551	1
616.238145	1
617.175629	1
617.187216	1
619.164712	11
620.170156	1
620.246028	1
621.169276	1
622.106313	14
623.110118	2
624.254828	1
625.057117	1
626.106552	1
627.271405	1
628.231214	1
629.115708	1
629.975184	1
630.211251	2
631.117904	1
633.280192	20
634.284009	4
635.138981	1
635.320469	10
636.219983	4
636.280625	1
636.323079	2
638.079559	2
638.259263	10
639.158921	1
639.262732	2
641.147944	23
641.200089	2
641.276784	1
642.152087	4
642.204355	1
642.262779	1
644.087161	2
644.139665	1
644.216889	1
648.024157	1
648.108314	1
649.016389	4
649.253863	2
650.255188	1
654.043499	1
654.233151	1
657.122859	3
657.250178	1
657.301116	20
658.305166	4
658.426445	1
659.279535	1
659.308319	1
660.243247	12
661.244411	1
661.257261	1
662.218876	1
663.182590	6
664.989968	1
665.135785	1
665.171436	9
666.177337	1
668.111159	1
671.050707	1
672.195081	1
673.273069	1
676.216886	1
676.396322	6
677.404485	1
679.156645	1
679.283732	8
679.337253	3
680.288302	2
681.147299	2
682.223335	15
682.277203	1
683.227687	4
685.161730	1
687.155040	7
688.160075	1
689.157062	1
690.094563	6
691.236512	1
695.018545	1
695.257467	1
695.441070	10
696.443511	4
698.200390	2
698.378187	10
699.383492	2
701.225181	1
701.267282	11
701.319913	4
702.257738	1
702.271802	2
702.321030	1
703.126990	1
703.306672	12
704.206117	2
704.237893	1
704.259079	2
704.312047	1
706.066901	2
706.247711	8
707.252295	1
708.223413	1
708.251901	1
709.103768	1
709.135877	10
709.185828	1
709.264333	1
710.139480	1
712.077693	1
717.003424	2
717.242886	2
717.257402	1
717.420745	6
718.423803	1
719.279515	1
720.359525	8
721.365095	2
722.222402	1
723.301699	4
724.302389	1
725.109601	2
725.253493	1
725.290395	15
726.295216	3
727.268776	1
728.229443	5
729.232939	1
731.167716	3
731.350780	1
732.173550	1
732.978963	1
733.158958	5
734.165147	1
735.135750	1
736.096960	2
736.153560	1
738.074289	1
739.117192	1
739.402003	4
741.110523	1
741.263017	2
741.442257	2
742.343257	6
742.450264	1
743.349273	2
744.349662	1
744.384194	6
745.386674	1
747.146857	1
747.270342	4
747.324376	3
748.274792	1
748.328936	1
749.134042	2
749.847335	1
750.212128	6
751.218628	1
753.401779	1
755.104194	1
755.143398	4
756.144127	1
756.336652	1
758.080576	2
758.317237	1
761.384097	5
763.428390	6
764.325857	1
764.433660	2
766.185645	1
766.365985	9
767.192353	1
767.369032	1
769.231883	1
769.256068	7
769.304442	3
770.260758	2
771.113662	1
771.295745	10
772.194962	2
772.247668	1
772.300379	2
774.055081	1
774.234136	7
774.726858	1
775.240441	1
777.123860	3
777.172977	1
778.123503	1
778.160411	1
778.180918	1
784.207703	1
785.225207	1
785.408152	3
786.411327	1
787.270338	1
788.272903	1
788.352354	2
788.410905	1
790.208240	1
791.287910	2
792.293948	1
793.095097	1
793.276578	5
794.282184	2
795.251568	1
795.276990	1
796.218483	4
796.248197	1
797.221184	1
799.159710	1
800.120936	1
801.148156	5
802.340494	1
804.086610	1
807.392232	1
809.250552	1
809.433256	4
810.330273	3
811.333559	1
812.190005	1
812.373705	7
813.376407	3
815.259835	3
815.308214	3
816.311950	1
818.201167	4
818.329412	1
819.201392	1
823.131445	1
824.198839	1
824.458185	1
824.896668	1
826.066174	2
826.910118	1
827.148272	1
828.349595	1
829.373005	3
830.375708	1
831.235322	1
831.416464	5
832.313986	1
832.418338	1
833.258405	1
834.177120	1
834.354671	4
835.357301	2
837.244399	4
837.294748	1
838.032196	1
838.247659	1
839.101160	1
839.284879	10
840.245792	1
840.287208	2
842.223369	5
842.408114	1
843.184709	1
843.230968	2
844.226474	1
845.112332	2
845.242313	1
849.216516	1
850.330381	1
850.508428	1
851.934818	1
853.397769	3
853.449582	1
855.261296	2
856.155119	1
856.282922	1
856.334998	1
857.187830	1
858.198661	1
859.273141	2
861.141634	1
861.261005	4
862.269484	1
864.200559	1
868.159542	1
869.131754	1
869.548224	1
870.139544	1
872.072804	1
872.491390	2
875.381015	1
875.429950	1
877.233596	1
877.420159	6
878.319444	2
878.422729	1
879.427018	1
880.359000	7
881.361668	2
883.297750	1
884.305445	1
886.186443	2
894.472891	1
897.360755	2
898.362093	1
899.400780	3
900.303454	1
900.400432	1
901.243268	1
902.338165	4
905.228213	2
905.979942	2
906.237599	1
907.269325	6
908.271785	1
910.209056	3
911.216392	1
915.555538	1
915.796346	1
918.493592	1
919.209253	1
919.393566	1
921.382400	1
921.435242	2
923.245179	1
924.290167	1
929.252748	2
932.192504	1
932.547503	1
935.384001	1
937.121383	1
937.538858	1
938.434388	1
939.385594	1
940.479908	1
943.369125	1
944.316881	1
945.408842	6
946.266177	1
946.304674	1
946.414680	1
948.348407	4
949.353414	1
952.266993	1
954.046080	1
954.614212	1
965.352840	1
967.390404	2
970.199037	1
970.330367	2
973.220652	1
973.266542	1
974.409115	1
975.254419	3
976.262168	1
978.201429	2
980.140677	1
983.546808	1
986.484681	2
989.423978	1
991.231599	1
992.246504	1
994.174385	1
1005.529140	1
1005.975072	6
1006.421301	1
1006.976487	2
1008.463263	1
1011.404171	1
1013.394277	4
1014.290826	1
1014.400689	2
1016.338432	3
1017.140824	1
1017.336973	1
1019.270843	1
1022.160395	1
1022.290065	1
1025.465402	1
1030.440550	1
1035.376456	2
1036.283433	1
1036.384281	1
1038.315850	1
1041.255083	1
1043.244853	1
1044.251441	1
1048.484795	1
1048.536110	1
1051.357844	1
1051.525320	1
1052.537467	1
1054.469105	2
1055.472549	1
1057.412276	1
1065.993828	1
1067.652804	1
1073.523047	1
1077.454571	1
1081.387576	3
1082.389329	1
1084.316062	2
1085.963918	1
1096.568148	1
1101.331059	1
1105.895742	1
1105.965227	6
1106.841303	1
1106.980458	1
1109.727178	1
1111.244334	1
1117.238336	1
1119.471174	1
1119.506557	1
1120.972907	1
1122.463455	2
1123.465920	1
1125.396418	1
1131.584549	1
1132.210486	1
1142.405947	1
1149.375320	1
1150.369831	1
1152.303604	1
1159.848817	1
1165.992631	6
1166.986195	1
1167.996113	1
1187.513675	1
1190.441552	1
1193.395849	1
1199.887020	1
1203.168254	1
1205.964336	3
1217.792490	1
1223.230201	1
1240.976898	1
1255.490789	1
1258.715983	1
1263.411664	1
1265.986349	13
1266.991162	3
1267.997171	1
1269.089790	1
1305.953675	1
1333.975324	2
1337.942289	1
1356.731745	1
1365.984286	9
1366.976806	2
1390.331906	1
1404.086550	1
1405.917321	1
1433.968021	1
1435.415652	1
1435.600614	1
1437.905354	1
1462.634139	1
1465.968841	5
1466.562870	1
1466.966167	1
