Mass spectrum: L-Carnosine; LC-ESI-ITFT; MS; POS
Name: Carnosine
Name: Nalpha-(beta-alanyl)-L-histidine
Name: L-Carnosine
Class: Natural Product
Formula: C9H14N4O3
Exact mass: 226.10659
SMILES: C1=C(NC=N1)C[C@@H](C(=O)O)NC(=O)CCN
InChI: InChI=1S/C9H14N4O3/c10-2-1-8(14)13-7(9(15)16)3-6-4-11-5-12-6/h4-5,7H,1-3,10H2,(H,11,12)(H,13,14)(H,15,16)/t7-/m0/s1
Instrument: LTQ Orbitrap XL, Thermo Scientfic
Instrument type: LC-ESI-ITFT
Ms type: MS
Ion mode: POSITIVE
Collision energy: 35eV
Ionization: ESI
Column name: TOSOH TSKgel ODS-100V  5um Part no. 21456
Retention time: 3.980863 min
Base peak: 114.060448
m/z	relative intensity
100.111848	1
102.033748	1
105.054992	1
105.547078	1
110.067498	1
110.071206	49
110.072296	1
111.074631	1
113.707811	1
113.939019	1
113.996932	2
114.020155	1
114.035794	1
114.039245	6
114.045916	1
114.046836	1
114.048676	1
114.049827	1
114.050977	1
114.051437	1
114.052357	2
114.054428	3
114.055578	2
114.056729	5
114.057419	2
114.058339	10
114.060410	999
114.062251	11
114.064092	5
114.065242	3
114.066393	3
114.067083	1
114.068233	2
114.068924	1
114.070305	1
114.070995	1
114.072376	1
114.073756	1
114.074447	1
114.075367	1
114.079510	1
114.081581	6
114.100917	1
114.124172	2
114.181995	1
114.414652	1
114.557876	1
114.559266	2
114.561814	91
114.563666	1
114.582893	1
115.061868	1
115.063034	1
129.101708	1
129.102262	1
130.086202	48
130.087603	1
130.088444	1
131.089371	1
137.132002	1
138.066127	1
141.958490	2
147.019426	1
147.081400	3
147.092856	1
147.100944	1
147.103640	2
147.104651	1
147.105325	1
147.107010	3
147.108021	1
147.109369	6
147.112402	581
147.115436	6
147.118132	3
147.119817	1
147.121165	2
147.122514	1
147.123862	1
147.124873	1
147.127907	1
147.131952	1
147.143414	3
147.172075	1
147.205804	1
147.290516	1
147.631452	1
148.109664	1
148.115792	34
149.022904	2
149.041805	1
149.116412	1
152.081698	34
153.085272	1
155.142891	1
156.042496	1
156.070482	1
156.073060	2
156.076374	147
156.079689	1
156.082267	1
156.110263	1
157.073325	1
157.079647	6
158.002552	4
158.096379	1
161.532919	1
163.132278	1
163.518252	1
169.094240	4
171.137284	1
171.149125	15
173.077717	1
174.127584	7
179.063200	1
180.072652	1
180.076760	79
180.080411	1
181.079617	3
181.108157	1
182.091804	7
182.984796	4
185.114144	4
187.126060	2
193.130714	3
198.082122	1
198.087387	130
198.091600	1
198.135317	1
199.090140	6
199.179842	1
209.102738	1
210.080502	1
210.086829	8
217.104082	1
223.062608	1
223.065125	1
226.123685	1
226.772482	1
226.935117	1
227.053978	3
227.075305	1
227.090817	1
227.093403	1
227.095989	2
227.098574	1
227.099867	1
227.103099	3
227.105039	1
227.107625	6
227.113443	726
227.118615	6
227.123787	3
227.127020	1
227.129606	2
227.132192	1
227.135425	1
227.137365	1
227.150297	1
227.172931	3
227.292626	1
227.455173	1
228.111015	5
228.116872	63
229.117139	2
249.095055	13
250.097584	1
255.155987	1
271.076442	1
293.216979	3
299.181639	2
301.114593	4
301.118541	1
373.217658	7
373.223106	1
374.220657	1
391.282894	13
392.286254	2
413.265143	7
414.266682	1
429.237976	1
453.219066	22
454.221254	2
475.199138	2
519.162386	1
537.387252	2
803.539991	1
1343.905577	1
