Mass spectrum: L-(+)-Arginine; LC-ESI-ITFT; MS2; m/z:175.12; POS
Name: L-Arginine
Name: (S)-2-Amino-5-guanidinovaleric acid
Name: L-(+)-Arginine
Class: Natural Product
Formula: C6H14N4O2
Exact mass: 174.11168
SMILES: NC(=N)NCCC[C@H](N)C(O)=O
InChI: InChI=1S/C6H14N4O2/c7-4(5(11)12)2-1-3-10-6(8)9/h4H,1-3,7H2,(H,11,12)(H4,8,9,10)/t4-/m0/s1
Instrument: LTQ Orbitrap XL, Thermo Scientfic
Instrument type: LC-ESI-ITFT
Ms type: MS2
Ion mode: POSITIVE
Collision energy: 35eV
Ionization: ESI
Column name: TOSOH TSKgel ODS-100V  5um Part no. 21456
Retention time: 4.087622 min
Base peak: 158.068558
Precursor m/z: 175.12
m/z	relative intensity
59.949654	541
60.695862	1
69.960846	138
72.037979	29
96.991943	8
98.078613	5
112.142166	91
113.102371	9
114.133942	47
115.229965	42
116.066605	668
129.992996	431
131.055557	2
132.066315	4
133.075684	11
140.032867	43
141.004379	6
157.114944	788
158.068558	999
159.034668	1
175.132294	3
