Mass spectrum: L-Glutathione (reduced form); LC-ESI-ITFT; MS2; m/z:308.09; POS
Name: Glutathione
Name: 5-L-Glutamyl-L-cysteinylglycine
Name: N-(N-gamma-L-Glutamyl-L-cysteinyl)glycine
Name: gamma-L-Glutamyl-L-cysteinyl-glycine
Name: GSH
Name: Reduced glutathione
Name: L-Glutathione (reduced form)
Class: Natural Product
Formula: C10H17N3O6S
Exact mass: 307.08381
SMILES: OC(=O)CNC(=O)C(CS)NC(=O)CCC(N)C(O)=O
InChI: InChI=1S/C10H17N3O6S/c11-5(10(18)19)1-2-7(14)13-6(4-20)9(17)12-3-8(15)16/h5-6,20H,1-4,11H2,(H,12,17)(H,13,14)(H,15,16)(H,18,19)/t5-,6-/m0/s1
Instrument: LTQ Orbitrap XL, Thermo Scientfic
Instrument type: LC-ESI-ITFT
Ms type: MS2
Ion mode: POSITIVE
Collision energy: 35eV
Ionization: ESI
Column name: TOSOH TSKgel ODS-100V  5um Part no. 21456
Retention time: 8.865658 min
Base peak: 179.081558
Precursor m/z: 308.09
m/z	relative intensity
116.028168	16
130.005051	4
143.971436	33
144.945679	1
145.951202	1
150.887619	1
162.011276	288
179.081558	999
187.136017	1
205.160614	1
215.132202	8
233.085693	169
245.196320	9
272.051056	12
273.076782	2
290.130981	58
291.108063	14
