Mass spectrum: L-Glutathione (reduced form); LC-ESI-ITFT; MS2; m/z:615.17; POS
Name: Glutathione
Name: 5-L-Glutamyl-L-cysteinylglycine
Name: N-(N-gamma-L-Glutamyl-L-cysteinyl)glycine
Name: gamma-L-Glutamyl-L-cysteinyl-glycine
Name: GSH
Name: Reduced glutathione
Name: L-Glutathione (reduced form)
Class: Natural Product
Formula: C10H17N3O6S
Exact mass: 307.08381
SMILES: OC(=O)CNC(=O)C(CS)NC(=O)CCC(N)C(O)=O
InChI: InChI=1S/C10H17N3O6S/c11-5(10(18)19)1-2-7(14)13-6(4-20)9(17)12-3-8(15)16/h5-6,20H,1-4,11H2,(H,12,17)(H,13,14)(H,15,16)(H,18,19)/t5-,6-/m0/s1
Instrument: LTQ Orbitrap XL, Thermo Scientfic
Instrument type: LC-ESI-ITFT
Ms type: MS2
Ion mode: POSITIVE
Collision energy: 35eV
Ionization: ESI
Column name: TOSOH TSKgel ODS-100V  5um Part no. 21456
Retention time: 8.871438 min
Base peak: 308.140808
Precursor m/z: 615.17
m/z	relative intensity
179.073853	32
211.294708	1
215.045883	8
216.115128	1
233.089249	21
233.690552	1
245.238785	5
273.310120	2
283.064819	1
290.272156	3
291.187866	1
308.140808	999
330.168396	1
355.279541	22
356.189941	24
357.101318	23
357.710388	1
410.161011	1
411.273499	2
430.623108	1
431.344666	1
467.093628	3
484.261353	10
485.212952	33
486.188843	33
503.043457	1
525.173584	1
543.399658	1
571.514832	1
596.346252	11
597.249634	9
