Mass spectrum: L-Aspartic acid; LC-ESI-ITFT; MS2; m/z:134.04; POS
Name: L-Aspartate
Name: L-Aspartic acid
Name: 2-Aminosuccinic acid
Class: Natural Product
Formula: C4H7NO4
Exact mass: 133.03751
SMILES: OC(=O)CC(N)C(O)=O
InChI: InChI=1S/C4H7NO4/c5-2(4(8)9)1-3(6)7/h2H,1,5H2,(H,6,7)(H,8,9)/t2-/m0/s1
Instrument: LTQ Orbitrap XL, Thermo Scientfic
Instrument type: LC-ESI-ITFT
Ms type: MS2
Ion mode: POSITIVE
Collision energy: 35eV
Ionization: ESI
Column name: TOSOH TSKgel ODS-100V  5um Part no. 21456
Retention time: 4.709480 min
Base peak: 115.895584
Precursor m/z: 134.04
m/z	relative intensity
70.031998	1
74.018265	26
86.128830	2
87.090698	56
87.984985	362
88.958160	1
106.090927	1
115.895584	999
116.947281	2
