Mass spectrum: alpha-D-Glucose 6-phosphate; LC-ESI-ITFT; MS; POS
Name: alpha-D-Glucose 6-phosphate
Class: Natural Product
Formula: C6H13O9P
Exact mass: 260.02972
SMILES: O[C@@H](O1)[C@H](O)[C@@H](O)[C@H](O)[C@H]1COP(O)(O)=O
InChI: InChI=1S/C6H13O9P/c7-3-2(1-14-16(11,12)13)15-6(10)5(9)4(3)8/h2-10H,1H2,(H2,11,12,13)/t2-,3-,4+,5-,6+/m1/s1
Instrument: LTQ Orbitrap XL, Thermo Scientfic
Instrument type: LC-ESI-ITFT
Ms type: MS
Ion mode: POSITIVE
Collision energy: 35eV
Ionization: ESI
Column name: TOSOH TSKgel ODS-100V  5um Part no. 21456
Retention time: 6.760568 min
Base peak: 154.016769
m/z	relative intensity
100.110334	1
100.111848	45
100.113172	1
100.113740	1
101.095891	6
101.115285	1
102.012726	2
102.033748	7
102.091202	4
102.535127	1
104.070259	1
107.069996	9
108.011154	1
109.027969	1
110.019746	12
110.521705	1
111.020036	3
111.116655	1
112.017680	1
113.059480	2
113.963144	1
114.072836	1
114.127396	1
115.111540	1
116.052483	1
118.067876	1
119.063532	1
121.064566	15
122.068131	1
125.986214	1
127.039014	25
127.111258	1
128.106983	14
129.127203	9
130.007768	5
130.031851	1
130.049778	2
130.122362	1
130.158817	4
130.492108	1
131.929704	2
132.099600	1
132.101894	108
132.103615	1
132.104475	1
133.079206	23
133.105017	3
134.039259	2
135.998285	1
135.999783	1
136.003677	1
136.006374	60
136.008171	1
136.009070	1
136.021355	3
136.061216	1
137.009542	1
137.132305	34
137.511638	1
138.002106	1
138.091257	33
138.135712	2
139.094691	1
141.958490	4
142.122524	1
143.039341	16
143.106576	1
143.142799	1
144.023479	1
145.133328	1
147.095215	1
149.020499	1
149.023248	78
149.025653	1
149.026684	1
149.940109	1
150.026845	2
151.035356	1
151.096379	9
151.111816	1
153.464130	1
153.492143	1
153.832502	1
153.916868	1
153.955468	1
153.983255	3
153.986142	1
153.992639	1
153.994083	1
153.999497	2
154.003468	1
154.004190	1
154.005634	1
154.008161	3
154.009244	1
154.010688	3
154.011771	1
154.013937	13
154.016825	999
154.018992	12
154.020075	12
154.021519	1
154.022602	3
154.023685	1
154.025852	3
154.028018	1
154.028740	1
154.030184	1
154.033073	1
154.036684	1
154.040295	1
154.050046	3
154.064132	1
154.078219	1
154.116519	2
154.201118	1
154.216310	1
154.572512	1
154.989704	2
155.013761	1
155.015948	5
155.019958	23
155.022510	1
155.023240	1
155.142891	28
156.009365	1
156.012310	38
156.020408	4
156.145638	2
156.983752	1
158.002552	7
158.091498	1
158.096003	30
158.117407	1
158.961247	1
159.099132	1
159.103680	1
159.112399	6
161.005667	2
161.110293	1
162.520060	1
163.129523	1
163.132671	107
163.135426	1
163.136607	1
164.136124	7
166.017768	1
167.012526	3
167.033727	15
168.013372	17
168.123257	1
170.011674	18
170.096285	33
170.153706	1
170.508935	1
170.961081	1
171.032459	1
171.099654	2
171.110223	1
171.136861	1
171.138976	21
171.141936	2
171.145742	6
171.149125	468
171.152086	5
171.152932	5
171.155892	2
171.157161	1
171.159699	1
171.162237	1
171.188041	1
171.958919	1
171.992572	1
172.112355	1
172.140933	1
172.146053	2
172.152452	40
172.169092	3
172.956066	34
172.958644	1
172.976690	10
173.078147	1
173.080297	1
174.124112	1
174.127584	130
174.130622	1
174.131924	1
174.952951	7
174.956448	1
175.035592	1
175.089843	23
175.095970	1
175.130548	11
176.092758	1
176.142644	1
178.035287	5
178.494745	5
179.060032	1
179.063653	47
180.066718	1
180.158947	1
181.032680	1
181.058907	1
182.028700	14
182.138225	1
182.189773	1
182.984796	12
183.988035	1
185.979176	7
186.006007	1
186.184865	17
187.081586	1
187.122676	2
187.126544	214
187.129445	3
187.130895	3
187.138632	1
187.171034	1
187.187964	1
187.976039	1
188.125088	1
188.129475	13
188.142635	1
189.121821	6
189.141473	1
189.148352	1
190.028489	1
191.021456	1
194.117473	4
194.174190	1
195.087107	1
195.122110	14
196.007514	1
196.153765	4
199.007921	1
199.036029	1
199.176125	1
199.180373	78
199.183559	1
199.185152	1
200.142234	1
200.183421	4
200.200542	1
203.066716	1
204.137309	1
205.085407	1
205.971990	1
207.004901	10
207.093814	1
208.132918	1
208.190213	9
210.127097	2
213.159308	1
213.982887	1
214.002990	1
214.216026	1
215.157172	1
217.104082	2
219.103876	1
219.174341	1
220.111991	20
221.115280	2
223.063237	32
223.117364	1
223.132473	1
224.062720	1
224.066521	1
225.010271	3
225.016009	172
225.019834	2
225.021747	2
225.060006	1
225.195906	2
226.018390	5
226.158371	3
227.019085	1
228.231451	7
229.234440	1
232.168425	1
232.989128	1
233.168586	1
233.174638	23
234.177930	1
235.168638	1
239.148895	1
240.179785	2
242.959732	1
243.009096	1
243.014105	1
243.016251	1
243.020545	2
243.026270	327
243.030563	3
243.032710	3
243.037720	1
243.044161	1
243.092119	1
244.029067	13
244.033387	1
244.237292	1
245.030115	2
248.962187	8
250.200711	1
253.179796	1
255.155987	1
256.262765	1
260.963225	1
261.015788	1
261.018177	1
261.030922	4
261.037295	426
261.042075	5
261.044465	4
261.057211	1
261.110599	1
261.167989	1
261.257300	1
261.984653	1
262.039928	19
262.043133	1
263.040291	3
267.171326	1
267.267036	1
268.080989	1
273.169032	1
274.158392	1
277.199902	10
277.204260	1
278.063189	24
278.203372	1
278.231421	4
279.066071	1
279.158552	13
279.162076	1
280.161171	1
282.221186	12
282.224768	1
283.018101	30
283.022598	1
283.024396	1
283.224159	1
284.021712	1
284.938891	1
284.994317	1
294.225799	2
298.992102	1
299.181639	2
299.185549	1
305.194169	1
306.093452	1
307.025165	4
307.082078	5
307.087160	1
307.583792	1
308.090822	17
308.094908	1
308.242051	1
309.093254	1
320.293539	1
321.225628	5
321.296325	1
322.257928	10
323.019796	1
323.261178	1
324.216185	2
327.176029	1
330.998575	3
336.237656	1
336.978378	2
338.252048	1
340.009690	1
343.206958	2
349.219993	1
350.252784	2
350.931027	1
350.957104	1
352.928771	1
355.981628	3
360.942502	1
366.283065	2
371.203456	1
391.149890	1
391.249271	1
391.271198	3
391.284356	271
391.293128	3
391.297514	2
391.320907	1
391.957723	3
392.129270	3
392.273046	1
392.286254	56
392.296527	1
393.289058	4
393.954317	1
394.277967	1
403.339303	1
413.263556	1
414.032664	1
414.045395	176
414.056534	1
414.061309	1
415.040190	1
415.048175	8
416.040177	3
416.048191	2
419.313189	1
422.323179	4
423.328230	1
426.355027	7
426.363342	1
427.359495	2
427.376183	3
436.026335	1
436.327446	1
436.341219	120
436.353270	1
436.358435	1
437.096262	1
437.343196	20
438.002134	1
438.346895	2
450.318949	1
464.371917	17
464.379478	1
465.373418	4
467.963086	2
472.432858	2
475.379199	2
476.383151	1
478.349236	8
478.361093	1
479.352704	3
490.386985	4
491.387439	1
503.051123	1
514.444551	1
521.066811	73
521.080291	1
522.068015	4
523.067589	1
543.045896	2
544.288590	1
545.020874	1
564.981628	1
568.117152	1
574.982308	2
613.157071	1
620.971279	1
651.311915	1
674.073248	6
675.079293	1
727.993931	1
781.094088	2
782.097032	1
803.075536	1
934.102096	1
1121.997036	1
1221.987792	2
1321.992409	2
1421.987910	1
