Mass spectrum: Tyramine; LC-ESI-ITFT; MS2; m/z:150.06; POS
Name: Tyramine
Name: 2-(p-Hydroxyphenyl)ethylamine
Class: Natural Product
Formula: C8H11NO
Exact mass: 137.08406
SMILES: NCCc(c1)ccc(O)c1
InChI: InChI=1S/C8H11NO/c9-6-5-7-1-3-8(10)4-2-7/h1-4,10H,5-6,9H2
Instrument: LTQ Orbitrap XL, Thermo Scientfic
Instrument type: LC-ESI-ITFT
Ms type: MS2
Ion mode: POSITIVE
Collision energy: 35eV
Ionization: ESI
Column name: TOSOH TSKgel ODS-100V  5um Part no. 21456
Retention time: 5.476693 min
Base peak: 132.951889
Precursor m/z: 150.06
m/z	relative intensity
55.968235	18
74.088982	1
102.133102	18
103.974808	410
132.951889	999
