Mass spectrum: FAD; LC-ESI-ITFT; MS2; m/z:439.10; POS
Name: FAD
Name: Flavin adenine dinucleotide
Class: Natural Product
Formula: C27H33N9O15P2
Exact mass: 785.15713
SMILES: C(C(CN(c54)C(=N6)C(C(=O)NC6=O)=Nc(cc(c(c5)C)C)4)O)(O)C(O)COP(OP(OCC(O1)C(C(C1n(c2)c(n3)c(c(N)nc3)n2)O)O)(O)=O)(O)=O
InChI: InChI=1S/C27H33N9O15P2/c1-10-3-12-13(4-11(10)2)35(24-18(32-12)25(42)34-27(43)33-24)5-14(37)19(39)15(38)6-48-52(44,45)51-53(46,47)49-7-16-20(40)21(41)26(50-16)36-9-31-17-22(28)29-8-30-23(17)36/h3-4,8-9,14-16,19-21,26,37-41H,5-7H2,1-2H3,(H,44,45)(H,46,47)(H2,28,29,30)(H,34,42,43)/t14-,15+,16+,19-,20+,21+,26+/m0/s1
Instrument: LTQ Orbitrap XL, Thermo Scientfic
Instrument type: LC-ESI-ITFT
Ms type: MS2
Ion mode: POSITIVE
Collision energy: 35eV
Ionization: ESI
Column name: TOSOH TSKgel ODS-100V  5um Part no. 21456
Retention time: 14.649282 min
Base peak: 421.109955
Precursor m/z: 439.10
m/z	relative intensity
172.223236	2
173.135101	1
198.157074	1
200.181458	1
201.234497	1
210.213531	1
212.150848	1
224.311295	1
226.232208	2
236.216248	2
243.165710	87
252.197052	4
254.161438	4
255.227386	1
257.144165	1
267.226959	1
268.178497	1
269.036804	1
272.887360	1
280.189484	6
281.289032	1
295.047455	1
297.229095	37
298.298584	3
309.369293	1
311.252289	5
313.257507	1
323.142670	71
334.111023	11
341.233459	372
352.170959	7
359.198975	434
378.075470	8
379.144745	8
393.162140	1
394.446991	1
396.161957	309
397.089447	2
403.108002	23
421.109955	999
422.059631	30
422.897552	1
