Mass spectrum: L-Asparagine; LC-ESI-ITFT; MS; NEG
Name: L-Asparagine
Name: 2-Aminosuccinamic acid
Class: Natural Product
Formula: C4H8N2O3
Exact mass: 132.05349
SMILES: NC(=O)C[C@@H](N)C(O)=O
InChI: InChI=1S/C4H8N2O3/c5-2(4(8)9)1-3(6)7/h2H,1,5H2,(H2,6,7)(H,8,9)/t2-/m0/s1
Instrument: LTQ Orbitrap XL, Thermo Scientfic
Instrument type: LC-ESI-ITFT
Ms type: MS
Ion mode: NEGATIVE
Collision energy: 35eV
Ionization: ESI
Column name: TOSOH TSKgel ODS-100V  5um Part no. 21456
Retention time: 4.594280 min
Base peak: 131.046051
m/z	relative intensity
100.132409	1
101.648716	1
102.005724	1
103.903286	1
103.919896	2
105.192392	1
105.712666	1
107.696939	1
109.014063	1
109.226189	1
110.317836	1
110.544979	1
111.019937	4
111.432819	1
112.282828	1
112.983606	2
112.985421	57
112.987463	2
113.028317	2
113.031950	2
113.032631	2
113.033539	4
113.035582	169
113.037399	7
113.039442	2
113.635331	1
113.774836	1
113.955496	1
114.013895	1
114.015735	2
114.016655	1
114.017575	6
114.019645	185
114.021485	7
114.022405	2
114.023556	2
114.038739	4
114.911350	1
114.951389	6
115.022674	3
115.794485	1
119.524832	2
119.849649	1
121.072340	2
121.708597	2
123.625416	1
123.707000	1
123.951717	5
124.119794	1
125.872876	2
127.193475	1
127.331807	1
127.389376	1
127.462480	1
127.696890	1
127.943704	1
128.388622	1
128.710246	1
130.955630	1
130.967805	2
131.019924	5
131.032676	1
131.033809	1
131.034376	1
131.038627	6
131.039477	7
131.041178	9
131.042311	11
131.043728	33
131.045996	999
131.048546	36
131.050814	13
131.052231	4
131.053365	6
131.054782	2
131.057050	2
131.057900	2
131.058751	2
131.072075	5
131.124539	2
131.291502	1
131.387622	1
132.042782	3
132.044502	1
132.046509	2
132.049089	23
132.050809	1
133.049825	2
134.046731	3
134.810876	1
135.629607	1
136.950451	1
137.058309	1
139.006578	4
139.483717	1
140.830769	1
141.967049	1
143.228477	1
146.098447	1
146.762633	1
147.314070	1
148.754483	1
148.952117	2
150.732602	1
151.433957	1
151.946469	9
153.027958	2
154.061767	2
154.918304	1
155.003585	2
155.718106	1
155.977618	2
156.688516	1
157.651195	1
161.904878	3
162.495765	1
162.938894	1
163.233219	1
164.977997	8
165.825185	1
167.022582	14
168.956771	1
168.962165	2
169.019442	3
169.826050	1
171.827156	1
171.933590	3
172.030318	4
173.014571	3
173.971740	2
175.009462	2
176.396384	1
177.520239	1
178.391237	1
179.287709	1
184.030032	1
184.361116	4
185.972503	4
186.980408	14
187.436762	1
187.769308	1
190.977360	1
191.976520	2
192.968348	2
192.972906	31
193.020522	1
193.972475	2
194.040887	4
196.690005	1
197.947318	1
198.943948	13
199.033043	3
199.380979	1
200.981992	3
201.008911	14
202.975006	2
210.983281	10
214.997675	2
218.724437	1
220.941287	5
226.030997	2
228.019542	16
230.970000	13
238.978097	10
239.982144	2
242.008603	8
245.037688	4
245.045660	3
246.935000	2
247.014196	2
250.941221	2
250.993802	2
253.644819	1
255.467963	1
255.985619	2
257.345150	1
257.555089	1
257.730887	1
257.981220	46
257.984351	2
258.177046	1
258.984633	2
263.085615	2
263.092064	6
263.099321	294
263.105771	8
263.112222	2
263.993330	2
264.096279	4
264.101955	20
264.993748	2
265.989209	10
266.986993	1
268.415282	1
269.107037	7
270.025161	3
272.020447	42
273.014035	1
273.023410	2
280.396255	1
282.931725	2
285.068404	2
285.072951	2
285.081135	125
285.088410	3
286.084112	7
287.049202	2
287.056553	113
287.084121	2
288.059822	7
289.783735	2
300.544455	1
301.045147	9
301.054029	5
307.015083	2
307.062857	4
307.805289	2
312.015812	5
314.939281	1
315.022718	5
316.009564	31
316.020178	3
317.011719	4
317.018118	168
317.026649	4
318.016506	2
318.021863	10
319.018541	7
321.637606	1
323.030536	12
324.029932	8
325.015152	2
325.026223	124
325.033972	3
326.029340	10
326.946620	1
327.022583	9
329.014842	1
329.579328	1
329.942494	1
331.073157	2
333.062406	7
335.501122	2
337.021412	2
337.051807	1
339.408110	1
342.086663	4
343.785623	1
346.054849	2
346.350585	1
346.555266	1
347.050661	11
348.829859	1
352.993975	8
353.067914	2
354.990927	4
359.665349	1
363.022520	7
371.031211	5
378.968954	3
380.013688	2
383.043604	3
383.575292	1
386.323568	1
388.068181	1
402.009540	2
406.098869	2
407.655660	1
408.010441	4
409.886935	1
413.210423	1
417.121196	11
419.109592	49
419.117697	2
419.122561	1
420.113193	3
426.021747	10
426.059960	1
428.134447	19
429.011125	1
429.016162	1
429.137065	2
429.999979	2
430.129725	2
433.099504	48
433.106316	2
433.113127	1
433.288585	1
434.102533	4
439.116435	17
442.150074	1
444.069162	2
447.075767	6
448.063253	33
448.074005	5
449.070196	123
449.086378	3
450.075125	16
450.170750	1
451.070762	5
453.066508	3
455.082865	4
455.090201	2
456.082293	3
457.079478	61
458.083642	5
459.076251	4
464.999812	3
465.115395	6
467.728397	1
470.045634	2
471.052288	4
480.430587	1
481.175532	1
496.560815	2
500.106444	1
508.814119	2
515.842333	2
517.059686	2
518.892695	2
524.968330	2
529.181709	5
531.040306	2
539.763227	1
542.691602	1
544.648305	1
548.994367	2
551.163706	46
552.167393	8
553.168908	2
557.528013	1
558.898464	2
560.251424	1
563.386234	1
570.748949	1
571.540645	2
571.961662	1
573.144541	3
580.116172	25
581.120604	2
587.132452	8
591.128060	1
594.153646	2
601.112155	1
602.099052	3
603.105171	19
604.111008	3
605.105302	2
611.114382	8
611.142925	2
619.080438	2
620.018584	3
624.706057	1
628.585515	1
632.810887	2
633.726171	1
643.050883	2
648.838504	1
651.048636	1
655.813758	2
661.067896	1
661.234911	3
670.292831	1
671.096828	2
671.126390	2
673.081817	1
675.924765	2
683.217707	2
691.044417	1
696.999571	2
703.655808	1
705.199415	3
710.855233	1
721.174937	1
724.155247	1
734.150264	2
740.600162	1
742.068353	2
749.347301	1
751.121540	3
757.143064	5
759.130772	2
766.089645	2
766.105670	2
767.096164	5
768.100645	2
769.099041	2
773.120278	2
775.106038	5
782.902545	1
782.914961	1
791.313302	3
793.961018	1
804.754896	1
805.091429	1
808.116724	14
809.120249	4
839.115103	1
844.161764	1
851.404364	1
856.320965	1
857.339747	2
861.027232	2
869.190019	2
877.199408	2
877.626603	1
889.635697	1
898.637040	2
899.844474	1
902.763535	1
905.974967	6
906.145007	2
910.671154	1
918.446440	2
919.035702	1
920.727715	1
921.129000	2
921.181821	2
921.324458	2
926.742669	1
936.623129	1
1005.969235	20
1006.976678	4
1010.620887	1
1017.343296	2
1032.794528	2
1036.491645	1
1044.487567	1
1050.270423	1
1055.414443	2
1065.757347	1
1065.987452	2
1086.633789	2
1097.749306	1
1104.368926	2
1105.965432	26
1106.966746	8
1114.527170	1
1118.834764	1
1146.253071	1
1149.162063	1
1165.985321	20
1166.986407	5
1167.988784	2
1182.389145	1
1182.973150	2
1205.956640	18
1206.962121	4
1207.960927	1
1208.056116	1
1233.969956	3
1249.770238	1
1251.658867	2
1255.230507	2
1255.944988	4
1256.954705	2
1257.948782	2
1262.826671	1
1265.978062	47
1266.982865	15
1275.055924	1
1276.485040	1
1280.544392	1
1282.971940	5
1283.884050	1
1284.066589	1
1294.747220	2
1305.953902	3
1306.953119	2
1333.966349	10
1334.961032	2
1341.425828	2
1352.023508	3
1354.487684	1
1355.939238	2
1365.974981	41
1366.977040	13
1374.060919	2
1382.957032	4
1385.165339	1
1388.297140	1
1396.967029	1
1428.250567	2
1433.958002	7
1434.963914	2
1439.029106	1
1452.018552	2
1456.355969	2
1465.152882	2
1465.969084	17
1466.966411	7
1467.964756	1
1482.955151	3
