Mass spectrum: S-Adenosyl-L-methionine; LC-ESI-ITFT; MS; POS
Name: S-Adenosyl-L-methionine
Name: S-Adenosylmethionine
Name: Acylcarnitine
Class: Natural Product
Formula: C15H22N6O5S
Exact mass: 398.13724
SMILES: [O-1]C(=O)C(N)CC[S+1](C)CC(O1)C(O)C(O)C1n(c3)c(n2)c(n3)c(N)nc2
InChI: InChI=1S/C15H22N6O5S/c1-27(3-2-7(16)15(24)25)4-8-10(22)11(23)14(26-8)21-6-20-9-12(17)18-5-19-13(9)21/h5-8,10-11,14,22-23H,2-4,16H2,1H3,(H2-,17,18,19,24,25)/t7-,8+,10+,11+,14+,27?/m0/s1
Instrument: LTQ Orbitrap XL, Thermo Scientfic
Instrument type: LC-ESI-ITFT
Ms type: MS
Ion mode: POSITIVE
Collision energy: 35eV
Ionization: ESI
Column name: TOSOH TSKgel ODS-100V  5um Part no. 21456
Retention time: 4.137947 min
Base peak: 399.143463
m/z	relative intensity
100.111659	4
101.095507	1
102.036668	1
102.051466	1
102.053024	2
102.053413	3
102.054582	163
102.056139	3
102.057308	1
102.057892	1
102.072500	1
103.057993	2
105.041977	2
106.950187	18
111.019815	1
116.961513	1
124.036313	1
129.126926	1
130.007488	1
130.158256	1
132.002722	21
132.004154	1
135.002331	1
136.059418	1
136.061516	30
136.063614	1
136.981678	2
137.132002	2
141.943476	1
141.958490	1
149.022904	3
152.955844	1
155.142526	1
158.002552	22
158.096379	2
158.928696	1
158.944970	1
158.950648	1
158.951783	1
158.954054	1
158.957840	1
158.959354	1
158.961247	5
158.963897	360
158.965789	6
158.966925	5
158.968818	2
158.970332	2
158.972604	1
158.974118	1
158.998731	1
159.005169	1
159.966902	4
160.968242	1
163.132278	2
167.033320	1
170.095866	1
171.137284	1
171.148702	26
172.152025	1
173.078147	4
174.127150	18
174.937654	13
175.089406	1
175.118291	5
175.130548	1
176.012896	1
179.063200	4
182.984796	3
184.458913	1
185.114619	38
186.117703	2
186.955501	1
187.126060	6
193.127672	1
193.130714	56
193.134770	1
194.117473	1
194.127691	1
194.133822	3
196.961076	1
197.100032	1
199.029134	1
199.180373	2
199.800924	1
199.928479	1
200.026230	2
200.051347	1
200.054553	1
200.059898	1
200.063105	1
200.064174	1
200.067381	3
200.072192	9
200.075399	611
200.079676	8
200.082883	2
200.085021	2
200.088229	1
200.090367	1
200.099991	1
200.124587	2
200.167373	1
200.223551	1
200.350440	1
200.576676	85
200.581505	1
201.073376	22
201.078223	4
201.087918	1
201.574626	2
203.222034	1
209.104451	1
215.052295	1
216.205980	1
217.104082	5
221.161866	5
223.063237	3
225.060006	1
226.891214	1
226.931243	1
226.934472	1
226.940929	2
226.945449	5
226.946741	5
226.951261	377
226.954490	5
226.956428	4
226.959657	1
226.962240	1
226.968699	1
227.010040	1
227.954264	8
228.954770	1
232.567850	1
234.156948	1
235.056963	4
241.103466	1
242.924685	28
242.928261	1
244.237292	1
244.922927	1
245.062720	1
247.044177	1
250.093102	22
250.096090	1
251.096407	1
255.155987	9
256.158965	1
261.130524	1
264.089351	1
264.948275	1
265.103930	1
270.976994	1
279.157671	1
282.099434	1
282.221186	1
283.150348	1
292.943091	1
294.930578	1
294.932491	2
294.939188	125
294.943972	1
294.946842	1
295.942492	2
298.066554	1
298.081134	1
298.090855	3
298.096688	240
298.101549	4
298.104465	2
298.110298	1
298.113215	1
298.186145	1
299.092710	1
299.099550	20
299.181639	8
300.091769	4
300.098643	1
300.185074	1
301.094855	1
301.139269	3
304.893277	1
309.129182	1
310.130500	1
310.911865	9
314.125921	1
319.978699	1
320.050065	1
320.061962	1
320.066288	1
320.071696	3
320.078186	239
320.086839	2
320.177719	1
320.293539	1
321.081046	19
321.086480	1
322.073342	4
322.077709	1
327.176029	2
336.051403	4
337.054338	1
343.208159	3
344.210758	1
362.898468	1
362.904997	1
362.914138	1
362.918056	1
362.925892	112
362.932421	1
362.936339	1
363.928312	2
364.929624	1
371.203456	1
378.899476	7
388.034346	1
388.064668	27
388.071887	1
389.068712	2
390.060652	1
391.282894	19
391.290204	1
392.286254	2
393.292005	1
396.839776	1
398.727920	1
398.885874	1
399.004777	2
399.075542	1
399.084577	1
399.087589	1
399.099636	2
399.105660	1
399.108672	1
399.111684	1
399.114696	2
399.120721	4
399.125239	3
399.129757	7
399.134276	11
399.143313	999
399.155363	9
399.164401	3
399.168920	3
399.174946	1
399.183984	1
399.190010	1
399.196036	1
399.200556	1
399.205075	1
399.212608	1
399.217128	1
399.281921	3
399.401002	1
399.559355	1
399.918639	1
400.146839	155
400.154398	2
400.158934	1
400.166494	1
400.172542	1
401.129872	1
401.138977	32
401.149600	5
401.155671	1
401.468484	1
402.142427	3
402.150043	1
404.037905	1
413.250862	1
413.254035	1
413.265143	103
413.273078	1
413.277838	1
414.268274	17
414.274645	1
415.271865	2
421.099637	1
421.106165	1
421.109430	1
421.125753	228
421.133915	3
421.138812	2
421.146974	1
422.128168	27
423.119371	6
423.127591	1
423.134167	1
429.237976	3
429.244695	1
430.242541	1
430.875354	1
430.888869	1
430.912522	80
430.920970	1
430.926039	1
431.914498	3
432.918271	1
436.339497	1
437.097988	5
438.100843	1
446.885757	6
448.883810	1
450.360467	1
456.049777	3
457.055837	1
464.373807	1
468.907181	1
481.251461	1
488.923674	1
489.099334	1
489.113636	140
489.127938	1
490.114291	15
491.060465	1
491.087187	1
491.107743	3
491.120078	1
498.851528	1
498.859946	1
498.899936	47
498.916775	1
499.901232	2
500.901312	1
505.083990	2
511.093353	2
512.096579	1
514.872387	4
524.038312	3
527.998765	2
532.893103	1
557.085287	1
557.100189	75
557.112607	1
557.602233	1
558.102466	8
559.092469	1
561.990246	2
562.000312	1
562.493877	1
566.842993	1
566.886331	41
566.899078	1
567.889583	2
568.890375	1
573.072968	1
574.872946	1
579.314025	1
582.859392	4
591.092141	6
591.594633	2
592.095044	1
595.986605	5
596.487097	1
598.835696	1
600.880902	2
601.382002	1
601.883729	1
602.587202	1
608.869325	1
625.086516	51
625.588649	2
626.091386	6
627.063088	1
627.080884	1
627.095715	1
629.982845	1
633.073450	1
634.076537	1
634.873473	29
635.874785	1
636.077756	1
636.875432	1
637.641154	1
640.969162	1
641.061127	1
642.858402	1
647.066006	2
650.847496	3
654.187903	1
659.079119	11
659.581174	2
660.080600	1
663.973688	3
664.474876	2
664.963677	1
664.976633	1
665.177494	1
667.067447	1
667.568885	1
668.867432	4
669.871666	1
670.071473	1
671.962596	1
674.966663	1
676.546052	1
676.855278	2
688.181290	2
688.679417	1
689.178085	1
693.073257	42
693.576706	5
694.077250	6
695.066120	1
697.965326	4
698.467142	1
698.972990	2
699.171991	1
699.678606	1
701.057983	1
701.563139	1
702.817862	1
702.860096	24
703.864274	3
704.065367	1
704.863535	1
705.957035	2
706.453309	1
708.960375	1
709.049523	1
710.850337	1
713.942640	1
715.057342	3
716.044350	1
718.213521	1
718.835615	3
722.174471	3
722.676938	2
723.183603	1
727.067284	8
727.567453	4
728.071850	1
731.961361	7
732.462846	3
732.964846	1
733.163540	1
735.053294	1
735.557960	1
736.055602	1
736.852125	2
737.354863	1
738.062590	1
738.562777	1
739.948517	3
740.450622	1
742.953529	1
744.839047	1
756.166883	4
756.665931	2
757.169409	1
757.677329	1
761.060695	31
761.560627	2
762.065025	5
762.561970	1
763.063382	1
765.954119	5
766.454873	1
769.046584	2
770.850420	16
771.849894	1
772.052454	1
773.058327	1
773.940080	2
774.440545	1
777.036078	1
778.839374	1
786.823918	1
790.161220	3
790.660706	2
791.156463	1
793.519799	1
795.054664	8
795.554559	3
796.054927	2
797.278147	11
798.282611	4
799.271901	1
799.950968	5
800.451212	2
800.532493	1
801.153199	1
803.041148	1
803.544293	1
804.039299	1
804.840887	2
805.047942	1
807.933444	2
808.436854	1
811.401727	1
812.826811	1
815.921532	1
819.259805	28
820.266170	7
821.252163	1
821.269945	2
822.253295	1
824.153793	2
824.659021	2
825.155760	2
829.046675	22
829.547384	4
830.053063	6
833.942317	3
834.442916	2
834.943965	1
837.035011	2
838.794262	1
838.835561	21
838.881453	1
839.836846	2
841.245347	1
841.927854	1
845.023357	1
846.821830	1
854.809389	2
858.151934	2
858.650729	2
859.149960	1
859.644864	1
863.044573	5
863.542847	3
867.935704	4
868.438220	2
869.638292	1
871.030192	1
871.530539	1
872.036182	1
875.035293	1
875.920906	2
887.247698	7
888.251919	3
889.252836	1
892.139917	3
892.643453	1
897.037187	13
897.534717	1
898.037745	4
898.236023	1
899.039978	1
901.933959	2
902.430449	2
902.927349	1
905.021902	1
905.526091	1
906.824514	7
907.825996	1
909.916890	1
913.009478	1
914.809887	1
919.000032	1
922.805886	1
926.134807	1
926.640759	1
927.136462	1
927.637900	1
931.030584	3
931.529815	2
935.803048	1
935.922018	2
939.012352	1
942.030632	1
942.522339	1
943.912127	1
955.236732	6
956.241298	2
960.129330	2
960.635278	2
961.124742	1
965.025638	9
965.524128	1
966.023004	3
968.807921	1
969.913850	2
970.427553	1
971.118841	1
974.810552	4
975.817372	1
976.001645	1
977.218003	1
977.905008	1
980.996811	1
988.027737	1
990.778812	1
994.121347	1
994.630703	1
995.128592	1
999.017829	2
999.519016	1
1000.020580	1
1003.920535	1
1004.413391	1
1007.003831	1
1010.507749	1
1011.898631	1
1023.222532	4
1024.230997	2
1028.117888	2
1028.622440	2
1029.121129	1
1033.010830	7
1033.518989	1
1034.014962	2
1034.511293	1
1037.907205	2
1038.406340	1
1042.749426	1
1042.800309	2
1048.984755	1
1049.151624	1
1056.008245	1
1057.221393	1
1062.114564	1
1062.611637	1
1063.109059	1
1067.008866	2
1067.509379	1
1071.897303	1
1073.104742	1
1075.499098	1
1084.455237	1
1085.771808	1
1091.211917	2
1096.103291	2
1096.617558	1
1098.066304	1
1101.000025	4
1101.503931	1
1105.887965	1
1110.794543	1
1118.766977	1
1126.218497	1
1130.104948	1
1130.600247	1
1131.095871	1
1135.997765	1
1140.385846	1
1147.878443	1
1159.200640	1
1160.200227	1
1164.091490	1
1168.990710	3
1169.489131	1
1169.995430	1
1178.775364	1
1187.747276	1
1193.185906	1
1198.583593	1
1208.457226	1
1227.192458	1
1229.192466	1
1232.087285	1
1236.970368	1
1237.471784	1
1238.986098	1
1241.874271	1
1242.370401	1
1266.079114	1
1266.581305	1
1267.876464	1
1271.962371	1
1285.661801	1
1300.070591	1
1304.971903	1
1353.833619	1
1404.775559	1
1427.310084	1
