Mass spectrum: beta-D-Fructose 6-phosphate; LC-ESI-ITFT; MS2; m/z:519.05; NEG
Name: beta-D-Fructose 6-phosphate
Class: Natural Product
Formula: C6H13O9P
Exact mass: 260.02972
SMILES: OC[C@@](O)(O1)[C@@H](O)[C@H](O)[C@@H](COP(O)(O)=O)1
InChI: InChI=1S/C6H13O9P/c7-2-6(10)5(9)4(8)3(15-6)1-14-16(11,12)13/h3-5,7-10H,1-2H2,(H2,11,12,13)/t3-,4-,5+,6-/m1/s1
Instrument: LTQ Orbitrap XL, Thermo Scientfic
Instrument type: LC-ESI-ITFT
Ms type: MS2
Ion mode: NEGATIVE
Collision energy: 35eV
Ionization: ESI
Column name: TOSOH TSKgel ODS-100V  5um Part no. 21456
Retention time: 6.830240 min
Base peak: 259.041290
Precursor m/z: 519.05
m/z	relative intensity
150.957733	1
161.087067	2
169.074570	8
223.134048	3
241.029480	4
259.041290	999
339.020508	43
500.852295	2
