Mass spectrum: 3',5'-Cyclic AMP; LC-ESI-ITFT; MS; POS
Name: 3',5'-Cyclic AMP
Name: Cyclic adenylic acid
Name: Cyclic AMP
Name: Adenosine 3',5'-phosphate
Name: cAMP
Class: Natural Product
Formula: C10H12N5O6P
Exact mass: 329.05252
SMILES: Nc(n4)c(n3)c(nc4)n(c3)[C@H](O1)[C@H](O)[C@H](O2)[C@@H](COP(O)(=O)2)1
InChI: InChI=1S/C10H12N5O6P/c11-8-5-9(13-2-12-8)15(3-14-5)10-6(16)7-4(20-10)1-19-22(17,18)21-7/h2-4,6-7,10,16H,1H2,(H,17,18)(H2,11,12,13)/t4-,6-,7-,10-/m1/s1
Instrument: LTQ Orbitrap XL, Thermo Scientfic
Instrument type: LC-ESI-ITFT
Ms type: MS
Ion mode: POSITIVE
Collision energy: 35eV
Ionization: ESI
Column name: TOSOH TSKgel ODS-100V  5um Part no. 21456
Retention time: 9.775880 min
Base peak: 330.060059
m/z	relative intensity
100.111848	6
102.033748	3
102.091202	1
110.019964	2
111.020036	1
128.106983	1
133.079206	1
136.058218	2
136.061816	7
137.132305	1
139.982008	1
141.958490	1
149.023248	3
151.096379	5
155.142891	2
158.002927	2
158.096379	2
158.961247	1
163.132671	7
168.123257	1
170.096285	3
171.138130	1
171.145319	1
171.146588	1
171.149125	41
171.152932	1
172.152452	3
173.078147	5
174.127584	17
175.089843	1
175.130986	1
179.063653	4
182.984796	2
185.114619	1
186.184865	1
186.955984	1
187.126544	13
188.129475	1
190.993035	2
195.122625	1
196.154284	1
199.180373	7
205.019962	1
213.006554	2
214.025462	1
217.544626	4
220.111991	1
221.028359	1
225.533317	6
226.035078	1
233.021375	1
233.174638	1
233.520034	11
234.020972	1
235.505504	1
237.524010	5
277.200773	1
279.158552	1
282.221186	1
299.182617	1
328.327048	1
329.481891	1
329.747519	1
329.867439	1
329.955724	3
329.965913	1
329.970441	1
329.984028	1
330.008938	1
330.013468	1
330.020262	1
330.022527	1
330.027057	1
330.029322	2
330.033851	2
330.041779	4
330.049707	10
330.053105	12
330.059900	999
330.068961	11
330.075757	3
330.079156	5
330.085952	1
330.089350	2
330.095014	1
330.101811	1
330.106342	1
330.109741	1
330.113140	1
330.133533	1
330.151662	1
330.164126	3
330.252530	1
330.372726	1
330.639431	1
331.044077	1
331.052041	1
331.055455	1
331.062281	123
331.067970	2
331.071384	1
331.081624	1
331.806507	1
332.063521	11
349.032704	3
352.041279	4
356.515054	1
357.019097	4
361.022821	1
384.025974	1
391.284356	15
392.286254	3
480.146625	1
494.585863	28
495.086941	8
495.586697	1
513.557501	1
521.543429	2
522.045484	1
525.548395	1
659.082315	1
659.091903	1
659.111080	74
659.136651	1
659.613172	9
660.115838	12
660.612664	1
661.116473	1
686.071964	1
690.074315	1
720.337785	3
721.339409	1
823.640099	4
824.140386	2
824.641129	1
988.162671	5
988.667454	2
989.166748	2
1152.697738	1
1153.193171	1
1317.220706	1
