Mass spectrum: L-(-)-Threonine; LC-ESI-ITFT; MS; NEG
Name: L-Threonine
Name: 2-Amino-3-hydroxybutyric acid
Name: L-(-)-Threonine
Class: Natural Product
Formula: C4H9NO3
Exact mass: 119.05824
SMILES: [H]C(C)(O)C([H])(N)C(O)=O
InChI: InChI=1S/C4H9NO3/c1-2(6)3(5)4(7)8/h2-3,6H,5H2,1H3,(H,7,8)/t2-,3+/m1/s1
Instrument: LTQ Orbitrap XL, Thermo Scientfic
Instrument type: LC-ESI-ITFT
Ms type: MS
Ion mode: NEGATIVE
Collision energy: 35eV
Ionization: ESI
Column name: TOSOH TSKgel ODS-100V  5um Part no. 21456
Retention time: 4.751228 min
Base peak: 118.051247
m/z	relative intensity
101.312071	2
101.625098	2
101.956886	2
103.899884	2
103.920296	9
104.763414	2
104.928110	2
105.867051	2
105.936028	2
106.289996	2
107.742352	2
108.575627	2
110.072189	4
110.767098	2
111.496184	2
112.013344	2
112.985648	97
114.511872	2
114.951389	8
115.148632	2
115.585720	2
118.028848	4
118.045082	5
118.047020	14
118.049201	25
118.049928	7
118.051140	999
118.053563	25
118.055259	12
118.057440	2
118.073680	4
118.118294	3
118.882333	2
119.054189	18
120.054916	3
120.163098	2
120.612805	2
123.951717	4
127.273463	2
127.352440	2
127.469549	2
127.980077	11
129.608777	2
129.770338	2
130.075868	2
131.506923	2
131.681182	2
132.342281	2
133.318434	2
134.047025	3
134.684394	2
134.924506	2
137.687689	2
139.006887	14
139.583365	2
140.114541	2
140.966957	7
144.024569	8
145.232201	2
145.890482	7
145.978413	2
146.965735	4
147.236068	2
148.952461	4
150.718268	2
151.982923	7
153.998562	2
154.027451	11
154.062128	2
154.947088	13
154.959478	3
155.240480	2
156.024370	5
156.894379	5
158.030720	5
158.357012	2
158.925916	4
160.019406	14
160.841743	11
160.892241	4
161.893591	2
161.941081	22
162.279955	2
162.838737	15
162.893321	8
163.938025	10
163.941594	2
164.671756	2
168.428987	2
171.969801	5
171.990254	3
173.014571	13
173.985614	53
174.007729	3
174.918078	8
175.986785	2
176.009283	46
178.006079	8
178.258066	2
179.977733	18
180.840710	2
180.842089	2
181.045803	3
181.047644	2
183.008899	2
184.341254	5
186.037685	10
186.832681	2
187.859758	2
187.918147	2
187.984842	2
188.014062	12
188.819814	2
188.982665	2
189.594252	2
189.980538	36
190.914051	2
192.116807	2
195.423986	2
196.992107	4
197.988365	48
198.987958	4
198.991670	3
200.050190	3
202.002743	5
203.028011	34
203.052062	2
204.967316	2
205.951034	4
206.024763	2
206.198071	2
207.946068	68
207.950034	2
208.949623	3
209.130634	2
209.275269	2
209.943217	21
210.998915	4
212.652517	2
213.032675	2
214.032497	2
214.038413	9
214.913721	10
217.031663	2
217.040120	23
217.975264	13
218.341139	2
219.001551	2
220.235034	2
222.024240	5
223.621640	2
223.984096	3
225.098458	43
225.982852	4
226.101636	3
230.820856	2
231.029035	3
232.003383	3
232.040107	13
232.146324	2
232.257963	2
235.228618	2
237.101207	3
237.102586	3
237.108794	176
237.112933	3
237.115003	4
237.119832	2
237.996292	7
237.999760	4
238.112178	13
241.927536	5
242.883726	2
243.246715	2
243.922590	78
245.022471	39
245.094224	14
245.919835	38
246.024788	4
246.265558	2
246.935733	3
247.019331	2
247.917372	6
247.938024	3
248.008110	3
248.644669	2
248.647632	2
248.938266	5
250.941221	5
251.917401	3
252.895490	3
253.030032	19
253.914445	5
254.024557	4
255.009569	5
257.954604	2
259.077575	5
259.083878	5
259.090181	387
259.095696	4
259.098060	7
259.103576	3
259.110668	2
260.087397	3
260.093737	21
261.052924	5
261.060096	10
261.062487	2
261.066471	523
261.070456	9
261.074441	9
261.094367	7
261.219552	3
262.069519	32
263.070297	7
264.159537	3
264.944040	3
268.986141	2
269.936322	5
269.999175	2
270.942094	5
271.095510	2
273.348433	2
273.435546	3
274.879796	5
275.055530	13
275.064149	13
275.965310	10
281.025360	47
281.072539	6
282.028467	5
284.001119	4
286.025612	13
287.028070	2
288.024725	9
288.147592	2
289.005229	2
289.032150	11
290.012208	3
290.019673	178
290.026205	2
290.029938	6
290.035537	3
290.363371	2
290.989758	2
291.012267	3
291.028212	252
291.036654	3
292.015621	15
292.030706	12
292.890598	5
293.027965	6
294.249550	2
295.023506	3
299.021518	3
299.035195	18
300.000829	3
303.017623	3
303.690423	2
304.052704	2
306.672861	2
310.470073	2
313.215690	2
315.095620	2
315.973482	8
317.049046	4
318.012220	4
319.951782	9
321.018398	3
321.060782	17
322.064147	2
325.009617	12
325.988192	2
325.997088	8
326.008209	2
326.994652	3
327.004707	185
327.077338	3
328.008026	17
328.919023	2
329.001312	53
329.126495	2
330.004779	3
330.617243	2
330.669494	2
331.004881	2
332.936118	5
333.857365	2
333.984177	4
334.998961	10
335.910178	2
335.931116	3
336.892867	2
336.987516	2
336.995697	6
337.033102	9
339.593661	2
340.159524	2
340.190344	2
341.915788	2
344.926514	3
345.934473	3
346.054849	4
348.986235	3
351.098330	2
354.023687	5
357.054580	16
358.007400	2
359.002589	12
359.015441	4
366.138192	10
370.867883	3
371.055516	3
372.863522	2
373.040421	2
375.016596	3
377.012665	14
378.011821	2
378.135432	6
380.124280	25
381.127404	5
386.015315	2
388.023411	3
394.113057	34
395.117191	4
398.088193	3
399.086479	3
400.082477	34
400.130863	8
402.009540	4
402.079600	3
402.107020	9
404.790906	2
405.172769	2
406.529038	2
406.902509	3
408.010441	5
408.091421	8
409.077568	16
409.088511	2
410.072001	2
410.086122	197
410.095536	3
410.100243	3
411.088960	25
412.085999	8
414.081438	3
414.141939	2
415.822138	2
418.080510	6
421.156325	2
421.288623	2
422.065703	17
424.063201	2
426.021747	13
426.129752	3
427.465760	2
431.059880	12
432.067706	17
434.044440	6
442.051724	2
449.977726	3
451.088862	2
452.073339	3
453.672014	2
454.002635	4
455.270007	3
455.310386	2
459.185914	2
462.101667	4
464.004933	11
464.713883	2
465.136242	2
465.485170	2
467.990334	20
468.118514	3
477.024835	2
478.073753	6
478.552037	2
480.711232	2
483.653820	2
485.985283	3
489.070489	2
493.847998	2
495.984327	14
497.668565	2
498.092540	3
499.182243	38
500.053624	3
500.186747	6
500.317809	2
502.115580	2
503.976492	2
505.912259	2
517.733405	2
519.176421	2
529.946101	9
533.106327	2
533.893226	9
534.154358	2
535.154021	5
535.919675	2
539.358318	2
540.035791	2
541.170924	4
545.282844	2
545.966693	7
547.611736	2
547.955692	3
549.989695	3
550.116434	5
551.127038	11
552.584360	2
557.088050	2
558.900960	3
563.105903	4
569.037104	144
570.041171	21
573.108249	5
575.083355	2
582.056007	4
583.062823	5
587.444366	2
587.452437	2
591.003174	2
591.019462	6
591.353497	2
605.043439	3
605.099678	2
615.706827	2
617.068592	2
620.018584	13
622.954529	3
623.995726	4
636.274693	2
639.718104	2
639.730332	2
640.780175	2
646.478090	2
649.004029	12
652.951585	3
655.103580	2
656.817580	2
657.734465	2
658.570245	3
663.402194	5
676.193771	4
683.359435	4
683.386436	2
688.095420	38
689.099102	4
690.022786	2
691.800098	2
692.168082	4
701.379713	3
702.120780	2
710.078849	7
714.099704	3
725.785305	2
726.580197	2
733.853458	2
742.068353	14
758.917429	2
760.155278	2
765.469079	2
784.149778	10
785.154699	2
796.503116	3
800.142477	2
808.116724	6
811.901621	2
819.236995	2
827.521602	2
830.638141	2
832.990520	2
833.676807	2
834.833140	2
858.921268	2
864.873093	2
873.695458	2
879.974366	2
887.513883	2
888.558827	2
898.988321	2
901.391702	2
905.974967	5
906.980441	3
907.584530	2
918.530586	2
939.734007	2
942.718211	2
961.894327	2
970.587580	2
993.280901	2
1005.969235	42
1006.976678	8
1007.224246	2
1016.063212	2
1024.907450	2
1043.098642	2
1065.271083	2
1065.994028	3
1067.284008	2
1069.652858	2
1099.689656	2
1104.903023	2
1105.965432	49
1106.966746	12
1118.679229	2
1124.690811	2
1133.716507	2
1137.679057	2
1153.835093	2
1155.265559	2
1157.948347	2
1165.985321	31
1166.986407	6
1200.822238	3
1205.885434	2
1205.956640	22
1206.962121	5
1232.439942	2
1238.634780	3
1239.013723	2
1239.854607	2
1250.229467	3
1255.953397	3
1262.724936	2
1265.978062	85
1266.982865	16
1267.988864	3
1279.808821	2
1282.971940	6
1305.891489	2
1305.953902	5
1318.861765	2
1323.907432	2
1333.966349	13
1339.024966	4
1355.052947	2
1355.948671	3
1365.974981	56
1366.977040	14
1367.980202	4
1382.957032	6
1388.287367	2
1400.327048	3
1403.947636	2
1433.958002	11
1434.963914	6
1439.029106	2
1448.002329	2
1448.772984	2
1455.946543	3
1465.969084	27
1466.839036	2
1466.966411	6
1467.986008	3
1473.377744	2
1475.335036	2
1482.944362	4
1487.096102	2
1487.865651	3
