Mass spectrum: Anthranilic acid; LC-ESI-ITFT; MS; POS
Name: Anthranilate
Name: Anthranilic acid
Name: o-Aminobenzoic acid
Name: Vitamin L1
Name: 2-Aminobenzoate
Class: Natural Product
Formula: C7H7NO2
Exact mass: 137.04768
SMILES: OC(=O)c(c1)c(N)ccc1
InChI: InChI=1S/C7H7NO2/c8-6-4-2-1-3-5(6)7(9)10/h1-4H,8H2,(H,9,10)
Instrument: LTQ Orbitrap XL, Thermo Scientfic
Instrument type: LC-ESI-ITFT
Ms type: MS
Ion mode: POSITIVE
Collision energy: 35eV
Ionization: ESI
Column name: TOSOH TSKgel ODS-100V  5um Part no. 21456
Retention time: 22.687642 min
Base peak: 138.055008
m/z	relative intensity
100.112037	2
102.033748	4
110.019964	10
111.020256	4
112.017904	1
119.975717	1
120.021651	2
120.032828	1
120.036057	1
120.037299	1
120.038293	1
120.039038	1
120.040280	2
120.041026	2
120.042268	4
120.042765	4
120.044504	387
120.046491	5
120.048479	2
120.050218	1
120.051709	1
120.067363	2
120.113101	1
121.047710	28
133.076306	1
137.585681	1
137.885512	1
137.899581	1
137.970265	1
138.003331	1
138.026913	6
138.037021	1
138.037940	1
138.039472	1
138.040391	1
138.041310	1
138.042535	1
138.043760	1
138.044680	1
138.045599	2
138.047437	2
138.048356	2
138.049888	6
138.050807	4
138.052339	10
138.052951	10
138.055096	999
138.057547	14
138.059692	6
138.062143	2
138.063982	2
138.065820	1
138.067046	1
138.068272	1
138.069498	1
138.070111	1
138.070723	1
138.071336	1
138.072562	1
138.081143	1
138.083288	6
138.106891	1
138.139699	2
138.210567	1
138.224686	1
138.526609	1
139.052560	1
139.055348	1
139.055967	1
139.058135	65
139.060613	1
140.058682	2
140.060561	1
144.981860	1
154.990068	1
158.096003	1
158.961247	1
163.132671	1
166.111950	2
170.096285	1
171.149125	20
172.152025	1
174.127584	10
179.063653	2
182.984796	2
185.114619	1
187.126060	3
190.992536	1
199.180373	1
299.182617	1
331.215936	2
391.284356	11
392.286254	1
413.265143	4
414.268274	1
803.544293	1
