Mass spectrum: Phosphoenolpyruvic acid; LC-ESI-ITFT; MS2; m/z:166.98; NEG
Name: Phosphoenolpyruvate
Name: Phosphoenolpyruvic acid
Name: PEP
Class: Natural Product
Formula: C3H5O6P
Exact mass: 167.98237
SMILES: C=C(C(O)=O)OP(O)(O)=O
InChI: InChI=1S/C3H5O6P/c1-2(3(4)5)9-10(6,7)8/h1H2,(H,4,5)(H2,6,7,8)
Instrument: LTQ Orbitrap XL, Thermo Scientfic
Instrument type: LC-ESI-ITFT
Ms type: MS2
Ion mode: NEGATIVE
Collision energy: 35eV
Ionization: ESI
Column name: TOSOH TSKgel ODS-100V  5um Part no. 21456
Retention time: 7.049807 min
Base peak: 78.869385
Precursor m/z: 166.98
m/z	relative intensity
78.869385	999
138.942673	121
