Mass spectrum: L-(+)-Arginine; LC-ESI-ITFT; MS; POS
Name: L-Arginine
Name: (S)-2-Amino-5-guanidinovaleric acid
Name: L-(+)-Arginine
Class: Natural Product
Formula: C6H14N4O2
Exact mass: 174.11168
SMILES: NC(=N)NCCC[C@H](N)C(O)=O
InChI: InChI=1S/C6H14N4O2/c7-4(5(11)12)2-1-3-10-6(8)9/h4H,1-3,7H2,(H,11,12)(H4,8,9,10)/t4-/m0/s1
Instrument: LTQ Orbitrap XL, Thermo Scientfic
Instrument type: LC-ESI-ITFT
Ms type: MS
Ion mode: POSITIVE
Collision energy: 35eV
Ionization: ESI
Column name: TOSOH TSKgel ODS-100V  5um Part no. 21456
Retention time: 4.074270 min
Base peak: 175.118744
m/z	relative intensity
100.111848	1
110.070988	9
116.070432	3
129.138290	1
130.097133	5
137.132305	1
141.958490	1
147.112739	13
149.023248	2
155.143256	1
156.042496	1
156.070482	2
156.073428	3
156.076743	259
156.080057	3
156.083004	2
156.084477	1
156.110263	1
157.073697	2
157.079647	16
158.002552	4
158.091873	3
158.096003	1
163.132671	3
171.149548	13
174.128452	2
174.448759	1
174.897016	1
174.997981	1
175.044778	1
175.078466	3
175.084154	1
175.096407	1
175.099033	1
175.103410	1
175.104285	1
175.106036	1
175.107349	1
175.108662	2
175.111288	7
175.114790	9
175.118729	999
175.123106	10
175.126170	7
175.127921	3
175.129672	1
175.130548	1
175.132299	1
175.134050	1
175.134926	1
175.135801	1
175.137990	1
175.139304	1
175.140179	1
175.141930	1
175.149811	1
175.151562	1
175.154190	1
175.159006	3
175.192727	1
175.239602	1
175.340863	1
175.792565	1
176.115712	8
176.121892	62
176.125866	1
177.122123	2
178.058173	10
179.062747	1
182.984328	2
185.114144	3
187.125577	2
193.130714	3
197.100555	39
198.103186	1
199.179842	1
200.040124	2
201.991508	1
203.222581	10
213.074098	1
219.082437	4
223.062608	2
255.155217	1
265.086809	1
287.068460	1
299.181639	1
311.144984	1
330.187923	7
331.189750	1
333.126724	1
349.229854	53
350.231736	3
352.168572	5
371.211561	21
372.213260	1
374.150931	2
391.282894	14
392.284786	2
393.191845	1
413.265143	6
414.266682	1
523.341109	7
524.344343	1
545.321417	2
548.260542	1
697.453613	2
719.433003	1
722.372461	1
