Mass spectrum: L-Methionine; LC-ESI-ITFT; MS2; m/z:121.06; POS
Name: L-Methionine
Name: Methionine
Name: L-2-Amino-4methylthiobutyric acid
Class: Natural Product
Formula: C5H11NO2S
Exact mass: 149.05105
SMILES: N[C@@H](CCSC)C(O)=O
InChI: InChI=1S/C5H11NO2S/c1-9-3-2-4(6)5(7)8/h4H,2-3,6H2,1H3,(H,7,8)/t4-/m0/s1
Instrument: LTQ Orbitrap XL, Thermo Scientfic
Instrument type: LC-ESI-ITFT
Ms type: MS2
Ion mode: POSITIVE
Collision energy: 35eV
Ionization: ESI
Column name: TOSOH TSKgel ODS-100V  5um Part no. 21456
Retention time: 5.508737 min
Base peak: 92.964554
Precursor m/z: 121.06
m/z	relative intensity
54.906406	3
77.026085	28
79.059242	3
90.932495	104
92.964554	999
95.046631	1
103.004761	105
