Mass spectrum: Spermine; LC-ESI-ITFT; MS2; m/z:146.16; POS
Name: Spermine
Name: N,N'-Bis(3-aminopropyl)-1,4-butanediamine
Class: Natural Product
Formula: C10H26N4
Exact mass: 202.21575
SMILES: NCCCNCCCCNCCCN
InChI: InChI=1S/C10H26N4/c11-5-3-9-13-7-1-2-8-14-10-4-6-12/h13-14H,1-12H2
Instrument: LTQ Orbitrap XL, Thermo Scientfic
Instrument type: LC-ESI-ITFT
Ms type: MS2
Ion mode: POSITIVE
Collision energy: 35eV
Ionization: ESI
Column name: TOSOH TSKgel ODS-100V  5um Part no. 21456
Retention time: 3.288093 min
Base peak: 129.089188
Precursor m/z: 146.16
m/z	relative intensity
58.028908	47
71.990379	639
74.995071	260
83.620499	1
89.087219	1
101.121841	1
102.044037	1
108.167145	4
112.070877	220
114.157730	2
124.964874	1
125.608231	1
129.089188	999
134.582260	1
137.425156	23
