Mass spectrum: L-Tryptophan; LC-ESI-ITFT; MS2; m/z:188.07; POS
Name: L-Tryptophan
Name: Tryptophan
Name: (S)-alpha-Amino-beta-(3-indolyl)-propionic acid
Class: Natural Product
Formula: C11H12N2O2
Exact mass: 204.08988
SMILES: C1=CC=C2C(=C1)C(=CN2)C[C@@H](C(=O)O)N
InChI: InChI=1S/C11H12N2O2/c12-9(11(14)15)5-7-6-13-10-4-2-1-3-8(7)10/h1-4,6,9,13H,5,12H2,(H,14,15)/t9-/m0/s1
Instrument: LTQ Orbitrap XL, Thermo Scientfic
Instrument type: LC-ESI-ITFT
Ms type: MS2
Ion mode: POSITIVE
Collision energy: 35eV
Ionization: ESI
Column name: TOSOH TSKgel ODS-100V  5um Part no. 21456
Retention time: 13.965133 min
Base peak: 146.004166
Precursor m/z: 188.07
m/z	relative intensity
88.021561	3
118.079071	8
132.163635	1
142.171295	8
144.087158	103
146.004166	999
146.892166	1
159.992203	6
169.999130	33
173.174606	1
188.026962	1
