Mass spectrum: S-Adenosyl-L-methionine; LC-ESI-ITFT; MS2; m/z:298.10; POS
Name: S-Adenosyl-L-methionine
Name: S-Adenosylmethionine
Name: Acylcarnitine
Class: Natural Product
Formula: C15H22N6O5S
Exact mass: 398.13724
SMILES: [O-1]C(=O)C(N)CC[S+1](C)CC(O1)C(O)C(O)C1n(c3)c(n2)c(n3)c(N)nc2
InChI: InChI=1S/C15H22N6O5S/c1-27(3-2-7(16)15(24)25)4-8-10(22)11(23)14(26-8)21-6-20-9-12(17)18-5-19-13(9)21/h5-8,10-11,14,22-23H,2-4,16H2,1H3,(H2-,17,18,19,24,25)/t7-,8+,10+,11+,14+,27?/m0/s1
Instrument: LTQ Orbitrap XL, Thermo Scientfic
Instrument type: LC-ESI-ITFT
Ms type: MS2
Ion mode: POSITIVE
Collision energy: 35eV
Ionization: ESI
Column name: TOSOH TSKgel ODS-100V  5um Part no. 21456
Retention time: 4.129168 min
Base peak: 135.955093
Precursor m/z: 298.10
m/z	relative intensity
94.101906	1
96.966209	20
102.984589	1
119.101334	2
135.955093	999
145.077698	32
162.946442	64
181.864441	1
208.233185	1
238.220398	8
280.035980	2
281.208496	1
282.203369	3
