Mass spectrum: Inosine; LC-ESI-ITFT; MS2; m/z:137.05; POS
Name: Inosine
Class: Natural Product
Formula: C10H12N4O5
Exact mass: 268.08077
SMILES: OC[C@@H](O1)[C@@H](O)[C@@H](O)[C@@H]1n(c3)c(N=2)c(n3)C(=O)NC2
InChI: InChI=1S/C10H12N4O5/c15-1-4-6(16)7(17)10(19-4)14-3-13-5-8(14)11-2-12-9(5)18/h2-4,6-7,10,15-17H,1H2,(H,11,12,18)/t4-,6-,7-,10-/m1/s1
Instrument: LTQ Orbitrap XL, Thermo Scientfic
Instrument type: LC-ESI-ITFT
Ms type: MS2
Ion mode: POSITIVE
Collision energy: 35eV
Ionization: ESI
Column name: TOSOH TSKgel ODS-100V  5um Part no. 21456
Retention time: 5.662408 min
Base peak: 95.101669
Precursor m/z: 137.05
m/z	relative intensity
57.008904	88
59.034492	19
67.030266	13
71.087921	33
81.077774	815
93.998810	213
95.101669	999
101.049225	12
104.876770	9
109.065002	83
109.982437	87
111.036148	11
119.056046	674
120.095657	12
121.578842	8
122.228531	13
137.033493	21
