Mass spectrum: Taurine; LC-ESI-ITFT; MS2; m/z:251.04; POS
Name: Taurine
Name: 2-Aminoethanesulfonic acid
Name: Aminoethylsulfonic acid
Class: Natural Product
Formula: C2H7NO3S
Exact mass: 125.01466
SMILES: NCCS(O)(=O)=O
InChI: InChI=1S/C2H7NO3S/c3-1-2-7(4,5)6/h1-3H2,(H,4,5,6)
Instrument: LTQ Orbitrap XL, Thermo Scientfic
Instrument type: LC-ESI-ITFT
Ms type: MS2
Ion mode: POSITIVE
Collision energy: 35eV
Ionization: ESI
Column name: TOSOH TSKgel ODS-100V  5um Part no. 21456
Retention time: 4.770100 min
Base peak: 125.917511
Precursor m/z: 251.04
m/z	relative intensity
108.023148	11
125.917511	999
160.054916	2
233.139877	1
