Mass spectrum: Anthranilic acid; LC-ESI-ITFT; MS; POS
Name: Anthranilate
Name: Anthranilic acid
Name: o-Aminobenzoic acid
Name: Vitamin L1
Name: 2-Aminobenzoate
Class: Natural Product
Formula: C7H7NO2
Exact mass: 137.04768
SMILES: OC(=O)c(c1)c(N)ccc1
InChI: InChI=1S/C7H7NO2/c8-6-4-2-1-3-5(6)7(9)10/h1-4H,8H2,(H,9,10)
Instrument: LTQ Orbitrap XL, Thermo Scientfic
Instrument type: LC-ESI-ITFT
Ms type: MS
Ion mode: POSITIVE
Collision energy: 35eV
Ionization: ESI
Column name: TOSOH TSKgel ODS-100V  5um Part no. 21456
Retention time: 22.639188 min
Base peak: 138.054749
m/z	relative intensity
100.111848	3
102.033748	5
110.019964	6
111.020036	2
112.017904	1
119.975717	1
120.021403	2
120.033077	1
120.035561	1
120.037051	1
120.038045	1
120.039038	1
120.040529	3
120.041274	1
120.042765	6
120.044255	373
120.045497	8
120.046243	5
120.047733	2
120.048479	2
120.050218	1
120.051709	1
120.055435	1
120.067114	2
120.112852	1
120.171803	1
121.047710	26
121.048968	1
133.076306	1
137.585377	1
137.897746	1
137.969959	2
138.002412	1
138.026606	4
138.029363	1
138.036102	1
138.038553	1
138.039778	1
138.041003	1
138.043454	1
138.044067	1
138.045292	1
138.047130	3
138.048356	1
138.049888	6
138.051113	3
138.054790	999
138.056322	19
138.057241	13
138.059079	5
138.059999	5
138.060918	1
138.062143	2
138.063676	1
138.064901	1
138.065820	1
138.066740	1
138.068578	1
138.070417	1
138.071643	1
138.072256	1
138.073175	1
138.078385	1
138.079917	1
138.082982	4
138.093709	1
138.107197	1
138.139392	2
138.212102	1
138.526609	1
139.051631	1
139.055967	1
139.057826	64
139.059374	1
139.060304	1
140.058369	1
149.022904	1
158.002552	1
158.960868	1
163.132278	1
166.111546	2
170.095866	1
171.149125	27
172.152025	1
174.127584	16
179.063200	2
182.984328	1
187.126060	4
190.992536	1
199.179842	3
255.155217	1
282.220291	1
299.181639	1
331.214797	3
391.284356	29
392.286254	5
413.265143	11
414.266682	1
436.339497	1
803.544293	1
