Mass spectrum: Guanosine; LC-ESI-ITFT; MS; POS
Name: Guanosine
Class: Natural Product
Formula: C10H13N5O5
Exact mass: 283.09167
SMILES: OC[C@@H](O1)[C@@H](O)[C@@H](O)[C@@H]1n(c3)c(N=2)c(n3)C(=O)NC(N)2
InChI: InChI=1S/C10H13N5O5/c11-10-13-7-4(8(19)14-10)12-2-15(7)9-6(18)5(17)3(1-16)20-9/h2-3,5-6,9,16-18H,1H2,(H3,11,13,14,19)/t3-,5-,6-,9-/m1/s1
Instrument: LTQ Orbitrap XL, Thermo Scientfic
Instrument type: LC-ESI-ITFT
Ms type: MS
Ion mode: POSITIVE
Collision energy: 35eV
Ionization: ESI
Column name: TOSOH TSKgel ODS-100V  5um Part no. 21456
Retention time: 5.494547 min
Base peak: 284.099182
m/z	relative intensity
100.111848	4
102.033553	2
102.091202	4
110.019746	2
111.020036	1
116.034066	1
118.086052	1
123.031625	1
123.051218	1
123.053022	1
123.055343	119
123.056890	1
123.057664	1
123.059726	1
123.079067	1
124.058494	5
132.076661	1
133.071956	1
134.044828	37
136.061516	4
137.132305	1
139.049773	1
141.958490	4
149.023248	2
152.023971	1
152.050883	1
152.053362	2
152.056549	182
152.058674	2
152.059737	2
152.062570	1
152.065404	1
152.089137	1
153.053436	2
153.059874	7
155.142891	2
158.002552	3
158.096379	1
163.132671	3
170.096285	1
171.138130	1
171.149125	27
172.152452	1
172.976690	4
174.127584	14
175.130548	1
179.063653	1
182.028700	1
182.984796	10
187.126060	5
190.028984	1
194.117473	20
195.120566	1
199.180373	4
222.112313	2
224.127985	4
233.174638	1
282.714373	1
283.632440	1
283.849105	1
283.943070	1
284.016287	3
284.038891	1
284.049742	1
284.055167	1
284.057880	1
284.060593	1
284.063306	1
284.066019	1
284.068732	1
284.071445	1
284.075062	2
284.077775	3
284.085011	5
284.088628	2
284.091342	6
284.099482	999
284.104909	8
284.107622	7
284.112145	2
284.114859	5
284.118477	2
284.122095	2
284.125714	1
284.127523	1
284.131141	1
284.136569	1
284.141997	1
284.145616	1
284.158282	1
284.161902	1
284.182713	3
284.255117	1
284.349284	1
284.567679	1
284.599416	1
285.093398	1
285.101581	120
285.107037	1
285.109765	1
285.117039	1
285.493883	1
286.101679	4
372.544440	6
373.044759	1
384.021710	1
391.282894	14
392.286254	2
407.524101	1
436.339497	1
567.177077	1
567.189834	67
568.181101	1
568.193892	10
569.195488	1
674.374164	1
744.079379	3
745.084845	1
850.281477	2
1133.377063	1
1134.379510	1
