Mass spectrum: CDP; LC-ESI-ITFT; MS2; m/z:404.02; POS
Name: CDP
Name: Cytidine 5'-diphosphate
Name: Cytidine diphosphate
Class: Natural Product
Formula: C9H15N3O11P2
Exact mass: 403.01818
SMILES: NC(C=2)=NC(=O)N(C2)[C@H](O1)[C@H](O)[C@H](O)[C@@H](COP(O)(=O)OP(O)(O)=O)1
InChI: InChI=1S/C9H15N3O11P2/c10-5-1-2-12(9(15)11-5)8-7(14)6(13)4(22-8)3-21-25(19,20)23-24(16,17)18/h1-2,4,6-8,13-14H,3H2,(H,19,20)(H2,10,11,15)(H2,16,17,18)/t4-,6-,7-,8-/m1/s1
Instrument: LTQ Orbitrap XL, Thermo Scientfic
Instrument type: LC-ESI-ITFT
Ms type: MS2
Ion mode: POSITIVE
Collision energy: 35eV
Ionization: ESI
Column name: TOSOH TSKgel ODS-100V  5um Part no. 21456
Retention time: 6.925992 min
Base peak: 306.028625
Precursor m/z: 404.02
m/z	relative intensity
138.292694	1
162.137421	6
162.828873	1
180.101456	4
190.110626	17
190.963898	1
192.034592	16
208.054459	423
226.209976	1
275.088409	1
288.079315	234
306.028625	999
376.066864	1
