Mass spectrum: 3',5'-Cyclic AMP; LC-ESI-ITFT; MS2; m/z:134.05; NEG
Name: 3',5'-Cyclic AMP
Name: Cyclic adenylic acid
Name: Cyclic AMP
Name: Adenosine 3',5'-phosphate
Name: cAMP
Class: Natural Product
Formula: C10H12N5O6P
Exact mass: 329.05252
SMILES: Nc(n4)c(n3)c(nc4)n(c3)[C@H](O1)[C@H](O)[C@H](O2)[C@@H](COP(O)(=O)2)1
InChI: InChI=1S/C10H12N5O6P/c11-8-5-9(13-2-12-8)15(3-14-5)10-6(16)7-4(20-10)1-19-22(17,18)21-7/h2-4,6-7,10,16H,1H2,(H,17,18)(H2,11,12,13)/t4-,6-,7-,10-/m1/s1
Instrument: LTQ Orbitrap XL, Thermo Scientfic
Instrument type: LC-ESI-ITFT
Ms type: MS2
Ion mode: NEGATIVE
Collision energy: 35eV
Ionization: ESI
Column name: TOSOH TSKgel ODS-100V  5um Part no. 21456
Retention time: 9.795875 min
Base peak: 107.035416
Precursor m/z: 134.05
m/z	relative intensity
92.014038	122
107.035416	999
134.060944	13
