Mass spectrum: L-Glutathione (oxidized form); LC-ESI-ITFT; MS; POS
Name: Glutathione disulfide
Name: GSSG
Name: Oxiglutatione
Name: Oxidized glutathione
Name: L-Glutathione (oxidized form)
Class: Natural Product
Formula: C20H32N6O12S2
Exact mass: 612.15196
SMILES: OC(=O)CNC(=O)[C@H](CSSC[C@H](NC(=O)CC[C@H](N)C(O)=O)C(=O)NCC(O)=O)NC(=O)CC[C@H](N)C(O)=O
InChI: InChI=1S/C20H32N6O12S2/c21-9(19(35)36)1-3-13(27)25-11(17(33)23-5-15(29)30)7-39-40-8-12(18(34)24-6-16(31)32)26-14(28)4-2-10(22)20(37)38/h9-12H,1-8,21-22H2,(H,23,33)(H,24,34)(H,25,27)(H,26,28)(H,29,30)(H,31,32)(H,35,36)(H,37,38)/t9-,10-,11-,12-/m0/s1
Instrument: LTQ Orbitrap XL, Thermo Scientfic
Instrument type: LC-ESI-ITFT
Ms type: MS
Ion mode: POSITIVE
Collision energy: 35eV
Ionization: ESI
Column name: TOSOH TSKgel ODS-100V  5um Part no. 21456
Retention time: 8.867502 min
Base peak: 307.083618
m/z	relative intensity
130.049778	4
136.057619	1
136.061516	11
152.053716	1
152.056549	65
152.058320	1
152.059737	1
152.070008	2
153.059874	1
163.132278	1
171.149125	9
174.127584	3
177.032217	1
179.048265	1
179.063200	1
181.049244	2
182.984796	1
187.126060	2
196.060395	1
198.027369	1
198.067905	1
198.071590	2
198.075803	154
198.079489	2
198.080542	2
198.083175	1
198.084754	1
199.078997	13
199.179842	1
222.112313	1
223.063237	1
224.127985	8
225.130812	1
275.567411	2
278.571857	3
298.570688	1
305.528791	1
306.561312	1
306.802750	1
306.909357	1
306.990619	3
307.039392	1
307.045489	1
307.051587	1
307.055652	1
307.057685	1
307.061750	1
307.067848	5
307.075979	11
307.083094	999
307.093259	9
307.100374	4
307.105457	2
307.107490	1
307.111556	1
307.113589	1
307.117656	1
307.129855	1
307.135955	1
307.177644	3
307.259013	1
307.364840	1
307.491091	1
307.568508	1
307.572584	1
307.576659	3
307.584810	273
307.593981	2
307.601114	1
307.606209	1
307.678573	1
308.074479	1
308.076522	1
308.082650	148
308.087758	2
308.091843	1
308.096951	1
308.581700	11
308.584772	5
308.650312	1
309.082990	1
334.041616	1
347.957482	1
348.032279	1
348.039638	1
348.050676	2
348.060488	5
348.062941	4
348.070300	482
348.076433	5
348.081340	4
348.087473	1
348.091153	1
348.096060	1
348.098513	1
348.103420	1
348.183173	1
348.409083	1
349.073352	51
350.073323	3
355.072493	1
362.085025	1
391.282894	5
392.284786	1
484.113777	2
499.116803	1
502.218877	1
502.720957	1
572.557653	1
612.896181	1
613.114055	1
613.125526	1
613.136996	2
613.157071	297
613.185750	2
613.197223	1
613.208695	1
613.423867	1
614.139050	1
614.162049	73
614.187924	1
615.152208	17
615.163736	6
616.156320	4
640.117897	1
695.131889	3
696.133421	1
786.690533	3
787.190903	2
787.687576	1
919.231614	12
919.737189	9
920.237907	6
920.733758	2
921.230009	1
960.219247	9
960.719642	1
961.226057	3
962.217537	1
1021.598515	1
1021.931648	1
1092.765946	3
1093.271038	3
1093.769647	3
1094.268597	1
1094.767889	1
1136.945761	1
1137.286171	1
1137.612238	1
1137.952947	1
1225.310742	5
1225.651076	1
1225.813190	2
1225.983445	1
1226.315948	3
1226.810899	1
1227.314270	2
1266.300382	1
1266.802705	1
1267.296806	1
1267.799722	1
1341.674984	1
1398.847244	1
1399.351371	1
1399.845878	1
1400.340647	1
1457.028667	1
