Mass spectrum: 6-Phospho-D-gluconic acid; LC-ESI-ITFT; MS; NEG
Name: 6-Phospho-D-gluconate
Name: 6-Phospho-D-gluconic acid
Class: Natural Product
Formula: C6H13O10P
Exact mass: 276.02463
SMILES: OC(=O)[C@H](O)[C@@H](O)[C@H](O)[C@H](O)COP(O)(O)=O
InChI: InChI=1S/C6H13O10P/c7-2(1-16-17(13,14)15)3(8)4(9)5(10)6(11)12/h2-5,7-10H,1H2,(H,11,12)(H2,13,14,15)/t2-,3-,4+,5-/m1/s1
Instrument: LTQ Orbitrap XL, Thermo Scientfic
Instrument type: LC-ESI-ITFT
Ms type: MS
Ion mode: NEGATIVE
Collision energy: 35eV
Ionization: ESI
Column name: TOSOH TSKgel ODS-100V  5um Part no. 21456
Retention time: 6.987977 min
Base peak: 275.017029
m/z	relative intensity
100.362052	1
102.148937	1
103.108281	1
103.330182	1
103.504041	1
103.920296	2
103.934708	1
104.928110	2
105.228072	1
106.952478	1
110.199281	1
110.694011	1
111.263887	1
111.949314	1
112.910581	1
113.240206	1
113.653871	1
114.951622	6
117.930310	1
118.254231	1
119.126131	1
119.224451	1
119.963759	1
120.385141	1
120.769621	1
121.482631	1
121.714432	1
123.324460	1
123.576088	1
128.237315	1
129.018959	7
129.068811	1
129.374089	1
131.192365	1
134.047025	6
134.795795	1
136.892030	1
138.979953	18
139.712132	1
141.019146	2
147.120697	1
148.964139	3
152.894641	2
152.917146	2
153.196550	1
156.938943	4
156.982783	1
157.433018	1
158.311842	1
158.925159	8
158.962261	2
159.029683	4
160.892241	1
160.912292	2
165.591439	1
165.911959	2
166.937381	1
166.968355	3
166.971616	10
166.974877	255
166.976916	5
166.978139	12
166.981400	2
167.011163	2
167.738553	1
167.978097	5
168.167464	1
168.889574	18
168.899112	1
170.890140	1
174.748181	1
174.927694	3
174.980159	2
175.300268	1
176.897171	12
176.904284	1
176.906951	3
176.926068	16
176.929181	1
177.036831	2
177.039946	48
177.043951	2
178.042878	1
179.248256	1
179.520153	1
180.990127	1
184.376251	2
184.893852	1
185.892031	2
186.038165	1
187.427551	1
188.293950	1
190.616369	1
193.374141	1
194.879565	1
194.907837	1
194.918634	4
194.923261	15
194.926860	340
194.930974	14
194.935602	3
194.946401	1
194.947429	1
194.974687	1
195.050321	22
195.128573	1
195.926125	4
196.922651	22
196.931004	5
197.021363	2
197.686595	1
197.894185	1
198.907903	8
198.995913	1
199.000686	18
199.004929	2
200.037360	1
200.428672	1
200.907187	1
202.019017	1
202.922567	2
206.817047	1
207.474945	1
208.942775	9
209.693438	1
210.719508	1
212.237737	1
213.016228	2
214.224301	1
216.610034	1
216.898829	3
216.903657	3
216.908485	102
216.913314	4
216.991196	1
217.908398	1
218.884646	12
218.904226	7
218.912793	2
219.549371	1
223.569842	1
226.975157	1
227.983117	4
231.689909	1
232.873758	4
232.883158	7
236.895101	1
236.908879	1
237.896434	1
238.064981	1
238.857393	1
238.904129	17
238.995547	3
240.858293	1
245.868112	4
245.993441	3
246.876361	1
246.912275	8
247.838478	4
247.847324	1
248.846275	14
248.855176	7
248.884846	1
250.846618	2
250.884152	1
253.387814	1
256.014252	4
256.853696	3
256.992967	1
256.999972	4
257.006200	115
257.010092	1
257.012427	4
258.009405	4
258.428030	1
259.009832	1
262.918003	1
264.866654	1
264.928560	3
264.935078	10
264.942411	324
264.948929	12
264.955447	2
265.016569	1
265.126642	1
265.944956	9
266.937547	12
266.945787	6
266.957324	1
267.677367	1
270.828380	1
271.022157	1
272.180719	1
272.956942	1
274.779084	1
274.924575	1
274.937494	4
274.977118	1
274.984010	1
274.985733	1
274.995210	2
275.002964	9
275.009857	31
275.016751	999
275.023644	36
275.030538	8
275.038294	2
275.040017	2
275.042603	2
275.050359	2
275.085697	1
275.088283	1
275.096903	4
275.255588	1
276.012953	1
276.019884	45
276.763009	1
277.020676	13
278.987588	1
283.002770	1
286.923364	15
286.927955	1
288.899438	5
288.909644	2
289.017296	2
289.024723	7
289.032150	229
289.039577	8
289.047004	2
289.348054	1
289.981418	3
290.035537	14
291.036654	3
292.894386	12
292.942691	1
294.855078	1
294.890474	2
296.998883	8
298.974632	6
299.734961	1
300.003774	11
300.859706	1
301.003704	1
301.007651	1
302.889108	2
303.744424	1
308.857840	10
308.868096	4
309.813778	1
310.925336	3
312.563202	1
312.840051	2
314.875934	8
314.900215	1
316.985061	4
317.852636	4
318.861426	19
318.920600	1
318.933512	11
320.476837	1
320.930396	2
321.794596	1
323.934079	1
325.872575	1
326.868451	6
327.927231	1
328.045066	2
328.811981	2
328.935929	6
330.841103	8
331.001468	4
331.818745	1
332.948744	1
334.947997	1
334.956104	28
335.947402	1
335.960199	2
336.809936	1
336.857822	2
336.944276	17
337.946768	1
338.372065	1
338.949024	1
338.987934	2
339.077569	1
341.998222	3
343.985623	2
343.994060	59
344.003704	2
344.817613	1
344.997932	5
345.805655	1
346.054849	1
346.812592	20
347.001806	1
348.808934	3
350.959164	5
354.973237	22
355.977364	2
356.938612	1
357.088999	1
358.915216	7
362.908857	26
363.912764	1
364.911623	1
368.998012	1
371.137904	1
372.607922	1
372.858081	2
372.949234	2
372.960120	4
372.965563	4
372.972368	17
372.983255	634
372.994143	19
373.005031	4
373.010475	1
373.013197	1
373.109854	2
373.359156	1
373.986921	31
374.967206	1
374.979552	27
374.987784	15
375.125013	1
375.983028	1
375.991292	1
376.812203	1
378.874192	2
378.931323	1
378.941079	2
381.088046	1
384.891534	7
385.265582	1
386.015315	3
386.866415	4
386.886543	1
386.987203	2
386.998710	111
387.010217	3
387.867498	4
388.003195	10
388.995650	5
389.002898	2
390.891253	2
391.893351	1
392.921380	2
394.954018	2
394.965882	32
396.897876	2
396.941202	9
398.889231	3
398.899767	4
399.098529	2
400.856185	2
401.013926	5
402.009540	3
402.862166	1
406.046305	1
406.824983	5
407.829880	1
407.884347	2
407.893685	2
408.010441	6
408.893175	16
408.902548	3
408.982231	10
410.024939	1
410.929959	4
410.956715	4
412.842500	1
413.742560	1
414.819499	1
414.905708	2
415.820536	2
415.903853	1
416.828418	13
416.900779	24
416.908820	1
417.899680	1
418.895697	2
419.216601	1
424.907540	2
424.988636	3
425.895516	3
426.021747	29
426.868612	1
426.903606	31
427.025284	2
427.227084	1
427.906917	2
428.898666	2
428.920483	2
429.919128	2
430.916193	26
431.920123	1
432.912248	2
432.924161	7
434.778295	1
435.917820	1
438.402789	1
439.910258	3
442.987370	2
442.997940	71
443.012033	2
444.001986	6
445.002356	2
448.946164	1
451.706730	1
452.940817	1
453.164911	1
456.881993	2
457.014866	21
457.299261	1
457.308499	1
458.018817	2
458.901615	1
461.054341	2
462.216171	1
463.952063	3
464.980868	1
465.805998	1
466.760950	1
466.957249	6
468.080246	1
470.951864	34
471.955620	1
472.947043	2
473.559752	1
476.841826	2
478.906271	1
480.972194	5
480.982158	1
481.283234	2
482.859010	4
484.136479	1
484.835601	1
484.966729	7
485.835533	1
486.842620	2
486.917719	2
488.078894	1
492.932812	24
493.955835	1
494.909233	1
494.930035	2
495.911293	3
495.921725	1
496.918492	1
500.931525	2
501.637634	1
502.939246	4
503.835443	1
505.933758	1
506.947938	7
508.898698	2
508.907373	2
508.924726	4
508.946418	1
511.977311	2
514.794740	2
514.867570	2
514.916132	1
519.093736	1
522.913242	2
523.863378	2
523.987993	2
524.328076	1
524.870627	6
525.106979	1
528.882849	3
533.029593	4
533.893226	1
536.851441	1
536.985421	1
537.877543	2
538.885318	10
540.966431	17
541.968601	2
543.909409	1
546.453876	1
547.045642	1
547.473760	1
551.019499	2
551.041493	80
551.053712	1
551.061044	2
551.300634	1
552.044846	8
553.046027	3
554.982467	7
555.986700	1
556.986211	1
558.030756	1
558.898464	1
559.025798	1
562.946890	5
564.925461	2
565.057398	42
566.058579	7
567.059872	2
568.785861	1
568.839685	1
570.638192	1
573.022719	2
573.043452	2
574.807267	2
574.986962	1
574.999986	2
575.406577	1
575.951981	2
576.963940	3
578.940605	2
579.072217	22
580.076577	3
584.811677	3
584.883825	5
587.038388	2
589.015777	3
590.886469	1
592.283769	1
592.929719	1
593.877385	3
594.884887	4
594.958908	6
598.899105	3
603.953943	3
603.979182	2
604.914118	2
604.959094	3
605.963938	1
606.897839	1
607.893361	2
608.899850	2
608.973663	4
610.983110	3
613.975738	2
614.481923	1
618.025389	1
618.975684	2
620.018584	9
620.882862	1
621.023186	3
622.024369	1
622.837044	2
624.995252	1
627.880448	1
634.036735	1
634.939567	1
635.136090	1
636.854252	2
637.851365	1
638.030973	2
638.512328	1
638.936250	1
648.039876	1
649.007153	37
649.035267	1
649.892076	1
650.011037	5
651.014114	1
652.948433	2
657.498694	1
660.913784	4
663.024651	23
664.025684	4
670.991734	3
672.966361	2
673.326020	1
674.929841	3
676.662425	1
676.908581	2
677.038365	7
678.044628	2
679.960039	1
683.990999	2
685.006033	4
686.981654	2
687.012272	1
692.853244	2
692.925607	2
696.867480	1
697.873007	1
699.020359	1
700.013055	1
700.997347	1
702.926395	2
705.857960	2
706.868813	3
706.943382	2
708.950536	2
711.159694	1
716.945538	2
717.755012	1
717.983945	3
719.020967	5
720.955448	1
721.965930	1
722.963848	1
728.151630	2
730.958733	1
733.039104	4
742.981973	1
744.557043	1
744.944871	1
747.054416	1
751.857148	1
760.991449	6
762.870918	1
766.105670	11
766.883467	1
767.112220	3
767.787035	1
768.958020	3
770.034788	1
775.008199	2
776.952141	1
778.965015	1
782.972907	4
792.032943	3
793.546965	1
796.987494	2
798.869707	1
800.895608	1
806.050409	2
808.116724	48
809.120249	12
810.108219	2
810.125644	2
814.473345	1
814.908281	2
816.991124	6
820.061619	2
827.063049	3
831.004618	7
832.010282	2
834.086256	2
840.038924	1
841.079471	4
842.089634	1
842.912021	1
845.019674	3
852.988308	1
855.096097	3
856.103228	1
860.831557	1
861.032005	2
866.123852	4
867.131238	1
867.990589	1
869.107721	1
874.921404	2
884.931952	1
904.755178	1
905.980119	2
906.753419	1
912.876604	1
925.034056	5
929.986562	1
938.011068	1
939.048612	9
940.049759	2
942.291807	1
953.067150	5
959.980855	1
961.032557	1
967.083692	2
968.078800	1
973.938249	1
974.030135	2
992.459313	1
994.962717	1
1005.969235	8
1006.976678	2
1009.062721	1
1019.879963	1
1023.062615	1
1037.015115	1
1038.056928	1
1045.253298	1
1046.051829	1
1060.067965	2
1072.294912	1
1073.018378	1
1081.045214	1
1082.073391	2
1082.894296	1
1090.957522	1
1092.299914	1
1098.939053	1
1099.965300	1
1105.965432	11
1107.029373	1
1110.097646	1
1121.044025	2
1131.124628	1
1144.027393	1
1152.141249	1
1154.109122	1
1155.955800	2
1165.985321	4
1166.993939	1
1182.973150	1
1205.956640	5
1207.960927	1
1215.067434	1
1217.953304	3
1219.110531	1
1220.527161	1
1229.079028	1
1233.937198	1
1240.473451	1
1255.953397	5
1256.946286	2
1265.978062	11
1266.982865	3
1276.890106	1
1282.971940	1
1305.944986	2
1310.002449	1
1317.939253	6
1333.957144	1
1337.988752	1
1355.948671	4
1356.958603	1
1357.950755	2
1365.974981	5
1366.967491	2
1383.958384	1
1417.935590	5
1418.934786	1
1420.784565	1
1433.434936	1
1440.277849	1
1441.610945	1
1455.936047	2
1456.954671	1
1459.026716	1
1459.068834	1
1465.958479	4
1466.966411	2
