Mass spectrum: Guanine; LC-ESI-ITFT; MS; NEG
Name: Guanine
Name: 2-Amino-6-hydroxypurine
Class: Natural Product
Formula: C5H5N5O
Exact mass: 151.04941
SMILES: C1=NC2=C(N1)C(=O)N=C(N2)N
InChI: InChI=1S/C5H5N5O/c6-5-9-3-2(4(11)10-5)7-1-8-3/h1H,(H4,6,7,8,9,10,11)
Instrument: LTQ Orbitrap XL, Thermo Scientfic
Instrument type: LC-ESI-ITFT
Ms type: MS
Ion mode: NEGATIVE
Collision energy: 35eV
Ionization: ESI
Column name: TOSOH TSKgel ODS-100V  5um Part no. 21456
Retention time: 5.455307 min
Base peak: 150.041748
m/z	relative intensity
106.028376	1
107.034651	1
107.036325	20
108.020526	9
108.039830	1
112.985648	6
116.071594	1
126.028570	1
126.029639	1
126.030708	20
126.032847	1
129.019236	4
132.031316	3
132.988956	1
133.007792	1
133.009241	1
133.010980	1
133.011849	1
133.013298	4
133.015617	151
133.017936	5
133.020544	1
133.022863	1
133.042286	1
134.012432	1
134.018587	6
134.047025	1
139.006887	2
140.046256	1
148.952461	1
149.907376	1
149.945874	2
150.000005	1
150.002435	1
150.009724	5
150.012154	1
150.014584	1
150.015625	1
150.017361	1
150.020485	1
150.021874	1
150.023610	1
150.024304	1
150.026387	1
150.028123	2
150.029512	1
150.030206	1
150.032289	4
150.032984	4
150.036109	7
150.037150	6
150.038886	33
150.041664	999
150.044442	32
150.047567	7
150.049304	2
150.050693	4
150.051734	3
150.054860	1
150.055902	1
150.056944	2
150.057638	1
150.059722	1
150.061111	1
150.063195	1
150.064931	1
150.066321	1
150.068405	1
150.070141	1
150.071531	1
150.073615	5
150.084035	1
150.137894	2
151.025672	4
151.035841	1
151.038997	15
151.042154	1
151.044959	42
152.042057	1
152.045954	1
152.048079	1
159.029683	1
172.006022	1
177.039946	3
184.349293	1
186.014197	1
186.018510	32
186.022345	1
187.021958	2
188.015524	9
189.018992	1
194.887275	1
194.908352	2
194.977774	1
194.992177	1
195.002980	4
195.006582	1
195.007611	1
195.009669	1
195.011727	1
195.014299	1
195.018930	1
195.020988	1
195.023046	1
195.024590	1
195.027163	1
195.030250	1
195.033338	1
195.036425	3
195.037455	4
195.042086	6
195.043630	4
195.046203	27
195.050321	987
195.054438	28
195.059070	6
195.063188	4
195.065247	3
195.069879	1
195.071423	1
195.072453	1
195.073997	1
195.077086	1
195.081719	1
195.086867	1
195.089956	1
195.092015	1
195.097678	4
195.112610	1
195.192960	2
196.042238	1
196.046905	6
196.049498	1
196.050536	1
196.053647	48
196.057797	1
197.054283	8
205.976723	4
206.081763	2
207.999900	1
210.998915	1
213.036788	3
218.028779	13
219.032170	1
228.072894	2
229.979085	2
233.993651	1
235.018822	1
238.966930	1
240.072776	3
242.014294	1
248.008848	4
248.018441	1
248.969435	1
249.966224	3
257.108204	2
257.974174	2
262.002203	1
263.038055	1
264.034664	2
266.103169	1
267.120565	3
269.990794	1
275.016751	1
279.999268	1
280.859882	1
283.042351	1
286.016473	1
289.101790	1
290.969127	1
291.078871	1
291.930789	1
292.932271	1
294.964157	1
294.974685	1
295.931282	1
300.818301	1
301.000744	3
301.016531	1
301.039226	1
301.047121	1
301.053042	1
301.058964	1
301.064885	2
301.066859	2
301.075742	3
301.078703	3
301.082651	16
301.091534	717
301.096470	6
301.099431	17
301.108315	4
301.116213	2
301.120162	2
301.128059	1
301.139907	1
301.149780	1
301.152742	1
301.182366	2
301.364152	1
302.079056	1
302.087984	16
302.093936	61
302.098896	2
302.101872	1
302.105840	1
303.091382	2
303.098361	2
303.113316	1
309.043541	1
320.031810	1
321.040132	10
322.043400	1
322.929645	1
323.064543	1
323.073319	34
323.082097	1
324.069607	1
324.076220	3
328.045066	1
329.047542	3
330.051221	1
332.066690	1
333.075038	1
336.087047	3
337.067005	7
338.071219	1
339.046900	1
339.064593	2
343.151836	1
346.054849	3
346.088907	1
346.099855	62
346.109587	1
347.095860	1
347.103191	5
348.070406	1
348.103534	1
349.118067	1
349.994736	1
355.009883	4
356.045895	2
357.103023	1
359.048859	1
363.018600	1
365.040722	4
366.037616	1
366.049524	3
367.045242	5
368.081049	11
369.078375	6
370.081105	1
371.146009	2
373.161601	1
375.052272	2
378.896485	2
379.122321	1
383.113015	2
385.042800	3
391.091365	1
391.108900	35
391.120591	1
392.111836	4
393.112745	1
399.011176	3
399.057861	3
399.094010	2
400.018984	3
401.015444	2
402.009540	2
407.122802	1
408.010441	1
409.024425	1
413.089843	5
414.092582	1
415.067022	1
416.155556	1
417.151778	1
418.170969	1
419.167956	1
420.191294	1
424.130854	1
426.021747	3
430.052207	1
434.092281	2
435.025041	2
437.110171	1
438.118510	1
440.119517	1
440.152664	1
444.019663	1
445.028961	1
452.111477	1
452.124191	3
452.140538	181
452.155070	3
452.185952	1
453.143041	26
453.157621	1
454.141567	1
454.148881	1
472.089309	7
473.094763	1
474.122936	13
475.125113	2
479.100376	1
480.082610	1
480.096522	4
482.096153	1
488.117603	3
489.119535	1
490.087656	1
490.114305	1
494.200672	1
497.132027	1
497.148781	37
497.159252	1
498.153452	4
504.939769	16
505.942359	2
506.058482	5
507.094610	1
513.950596	2
514.067286	1
517.097450	1
519.131724	2
520.127592	1
522.195571	4
522.949390	6
523.198011	1
524.212411	2
529.946101	3
535.095553	1
536.093171	1
542.052042	1
547.955692	1
550.106683	1
550.946194	1
551.068376	1
559.205638	1
564.139871	1
567.205318	1
569.219231	1
588.160559	1
603.166738	1
603.189128	73
603.203122	1
603.211519	1
604.181146	2
604.195175	11
605.195303	1
611.142925	1
620.018584	2
621.344940	1
622.018507	11
622.129897	1
623.022098	2
623.139636	5
625.172410	6
626.174766	1
631.031177	1
639.165160	4
640.170768	1
641.135809	1
641.163414	1
645.250065	1
647.025005	3
648.198860	7
649.203993	1
655.988308	1
657.110266	2
666.187221	1
670.181370	1
671.175664	1
673.246805	2
675.261238	1
687.141570	1
693.204828	1
700.997347	1
701.155167	1
742.068353	1
754.199588	1
754.238722	82
754.258290	1
754.270031	1
754.743815	1
755.194520	1
755.241574	15
756.246427	2
773.067483	2
773.181202	1
774.189523	1
776.220264	2
784.149778	1
790.216792	1
796.299299	1
799.249512	14
800.253668	3
801.251148	1
822.226622	1
829.765905	1
830.262866	1
830.769321	1
844.259083	1
905.290140	22
905.789524	1
905.980119	1
906.289320	7
907.290155	1
924.120481	1
925.236075	1
926.247163	1
927.270579	1
928.290349	1
941.265253	1
950.299319	7
950.797635	1
951.301887	3
952.306041	1
972.280797	1
973.272466	1
980.813710	1
999.299378	1
1003.256078	1
1003.322122	1
1005.975263	3
1006.976678	1
1025.813116	1
1056.341396	12
1057.341018	5
1058.342061	1
1078.323943	1
1078.845951	1
1089.814694	1
1094.307894	1
1101.351978	5
1101.842427	1
1102.353947	3
1103.357284	1
1105.888998	1
1105.965432	4
1106.959788	1
1132.873170	1
1134.329778	1
1165.985321	2
1166.993939	1
1176.862609	1
1177.366194	1
1205.956640	2
1206.962121	1
1207.390029	6
1208.389367	3
1209.397892	1
1252.395420	2
1253.400859	2
1254.407509	1
1259.332339	1
1265.978062	6
1266.982865	2
1305.962819	1
1333.966349	1
1358.433050	1
1359.445759	1
1365.974981	5
1366.977040	2
1380.947889	1
1403.440902	1
1404.444700	1
1433.968261	1
1465.969084	3
1466.966411	1
