Mass spectrum: 4-Aminobutanoic acid; LC-ESI-ITFT; MS; POS
Name: 4-Aminobutanoate
Name: 4-Aminobutanoic acid
Name: 4-Aminobutyrate
Name: 4-Aminobutyric acid
Name: gamma-Aminobutyric acid
Class: Natural Product
Formula: C4H9NO2
Exact mass: 103.06333
SMILES: NCCCC(O)=O
InChI: InChI=1S/C4H9NO2/c5-3-1-2-4(6)7/h1-3,5H2,(H,6,7)
Instrument: LTQ Orbitrap XL, Thermo Scientfic
Instrument type: LC-ESI-ITFT
Ms type: MS
Ion mode: POSITIVE
Collision energy: 35eV
Ionization: ESI
Column name: TOSOH TSKgel ODS-100V  5um Part no. 21456
Retention time: 4.454257 min
Base peak: 104.070297
m/z	relative intensity
100.111848	6
101.096083	1
102.033943	3
103.762922	1
103.968062	1
104.014934	2
104.036177	1
104.051812	5
104.056023	1
104.058429	1
104.060434	1
104.061436	1
104.062238	1
104.062840	1
104.063642	1
104.064444	2
104.065647	5
104.066449	2
104.067452	5
104.068855	18
104.070259	999
104.071863	22
104.073468	5
104.074671	4
104.075272	4
104.075874	1
104.076476	1
104.077077	1
104.077479	1
104.078080	1
104.079284	2
104.084298	1
104.088710	5
104.104358	1
104.123421	1
104.125829	2
104.172807	1
104.378963	1
105.066993	1
105.073503	31
105.075131	1
106.074195	2
110.019528	3
111.019815	1
113.963144	1
129.126926	1
130.007488	1
137.132002	2
139.981695	2
141.958171	7
149.022904	5
155.142526	2
158.002552	20
158.096003	2
158.960868	2
162.997372	1
163.132278	4
167.033320	1
167.976357	1
170.095866	2
171.137707	1
171.149125	33
171.152086	1
172.152025	1
174.127584	14
175.130548	1
176.012896	1
179.063200	2
182.984796	13
186.955501	2
187.125577	7
190.992536	1
199.028604	1
199.179842	3
199.987228	1
207.133787	18
208.136321	1
208.189645	1
220.110758	1
223.063237	4
254.158888	1
266.194902	1
274.211560	5
275.215217	1
277.199902	1
279.157671	1
282.220291	1
336.236491	1
380.262808	2
382.219999	1
391.282894	24
392.286254	4
413.265143	1
424.288997	1
426.356690	1
436.341219	1
494.347027	37
495.349218	8
496.352371	1
530.438620	1
