Mass spectrum: L-Homoserine; LC-ESI-ITFT; MS; NEG
Name: L-Homoserine
Name: 2-Amino-4-hydroxybutyric acid
Class: Natural Product
Formula: C4H9NO3
Exact mass: 119.05824
SMILES: OCC[C@H](N)C(O)=O
InChI: InChI=1S/C4H9NO3/c5-3(1-2-6)4(7)8/h3,6H,1-2,5H2,(H,7,8)/t3-/m0/s1
Instrument: LTQ Orbitrap XL, Thermo Scientfic
Instrument type: LC-ESI-ITFT
Ms type: MS
Ion mode: NEGATIVE
Collision energy: 35eV
Ionization: ESI
Column name: TOSOH TSKgel ODS-100V  5um Part no. 21456
Retention time: 4.668837 min
Base peak: 118.051224
m/z	relative intensity
100.040469	2
100.229214	1
101.998717	2
103.920096	6
105.935822	3
106.306768	1
106.880210	1
107.956073	1
109.765849	1
109.864774	1
110.330972	2
110.476280	1
110.508756	1
110.747058	1
111.294492	1
112.981790	1
112.983606	3
112.985648	104
112.987463	4
113.955266	2
113.995727	1
114.951622	14
115.434671	1
117.984285	4
118.029091	6
118.032240	1
118.032967	2
118.041447	1
118.045324	5
118.047262	15
118.049201	30
118.051140	999
118.053078	36
118.055259	14
118.057198	5
118.059622	2
118.060833	1
118.062288	2
118.063257	2
118.073437	7
118.118294	2
119.053944	15
121.952494	1
122.151966	2
123.838641	2
124.427076	2
124.461434	1
125.090788	1
125.332468	1
127.943431	2
128.855206	1
130.391198	1
130.822377	1
134.229297	2
135.220203	1
139.006578	9
140.882250	1
141.474579	1
142.992035	2
143.015620	2
143.974945	4
144.024242	3
145.046542	2
146.898436	2
146.965398	2
148.479276	1
148.479960	1
148.793910	1
148.952117	3
149.886572	1
151.982923	10
153.320935	1
154.027090	11
155.897416	1
156.024001	2
156.170650	1
156.466417	1
158.030345	3
159.034987	3
160.019023	7
160.841358	3
160.892626	2
162.014693	5
162.838737	3
163.390940	2
167.549500	1
168.555430	1
169.159850	1
171.969801	6
172.977171	2
173.985614	57
174.008162	3
174.988468	2
175.985462	2
176.008842	9
176.094901	2
177.014581	1
178.006079	2
178.976524	2
179.888812	1
179.948997	2
179.975452	1
179.977733	18
181.046263	3
181.815005	2
182.701510	1
184.373886	3
185.050699	2
186.037685	10
187.252665	1
188.013575	9
189.980043	9
190.902588	1
192.107752	1
194.134885	1
194.531037	2
196.991585	3
197.987839	20
198.980003	3
199.939044	1
199.986056	2
200.807154	1
202.002743	5
202.365026	1
202.988119	6
203.028011	15
203.871234	1
205.930375	2
207.946068	30
209.943217	7
210.942758	1
210.999494	2
211.424587	1
213.233726	2
214.029539	3
214.165074	2
214.913125	11
215.060822	4
215.913042	3
215.943015	2
215.995784	4
217.076975	5
217.974656	21
219.882869	2
225.619378	2
225.982852	5
227.296587	1
229.932967	3
231.935965	3
232.004050	2
232.040107	8
232.042778	2
232.924121	5
233.938208	2
236.773218	1
237.035003	2
237.101207	3
237.103966	3
237.108794	193
237.113623	4
237.996292	2
237.999066	2
238.111484	12
239.112164	3
239.975822	2
243.162160	1
243.922590	21
244.985519	22
245.919835	16
246.029891	11
246.935733	4
247.033268	2
247.937286	3
248.937523	5
249.165492	1
249.422795	2
250.941972	4
251.999007	2
252.894730	2
254.025322	2
259.021646	2
259.078363	2
259.083878	3
259.090181	179
259.094120	5
259.096484	5
259.103576	2
260.093737	11
260.216617	1
261.053721	4
261.060096	6
261.066471	379
261.070456	10
261.072847	9
261.079223	3
262.069519	25
263.071104	2
269.936322	3
271.984850	3
274.879796	10
275.055530	10
275.064149	2
276.058876	2
277.005868	1
278.428497	1
279.028972	5
280.028481	8
281.025360	64
281.072539	8
281.917540	1
282.024887	3
283.010866	1
283.021660	3
283.407967	2
285.982663	2
286.025612	11
288.019184	2
288.024725	6
289.032150	9
289.947835	1
290.005677	2
290.012208	2
290.019673	132
290.027138	3
290.030871	2
290.941935	1
291.012267	2
291.019770	6
291.028212	175
291.035716	4
292.024106	2
292.030706	9
292.889651	3
293.027965	6
295.022549	2
296.145882	2
297.272738	2
298.157849	2
299.035195	9
299.969417	1
302.031449	2
304.238098	2
309.960128	1
313.009476	3
317.284891	1
318.953959	2
319.208095	1
321.017311	4
321.060782	12
322.844144	1
322.893467	1
325.008510	5
325.750354	1
325.995976	3
326.008209	2
327.004707	76
327.077338	5
327.138813	2
327.993436	2
328.008026	6
329.001312	18
329.006949	2
333.033698	1
334.998961	2
336.995697	2
337.033102	8
343.938619	4
344.947090	3
344.978562	2
346.739390	2
348.978845	2
352.953883	2
352.978940	3
354.023687	3
357.054580	6
359.015441	3
361.375074	2
365.588179	1
370.867883	6
372.191096	1
376.914488	2
377.012665	3
378.036816	2
378.135432	3
378.896485	3
380.124280	33
381.127404	3
386.938306	2
388.931880	2
392.398049	2
394.113057	15
395.117191	4
396.948673	1
398.874180	2
400.082477	13
400.129350	8
401.086762	3
401.568277	1
402.107020	10
405.083414	2
408.089863	3
409.077568	20
409.088511	4
410.073570	3
410.086122	102
410.977177	2
411.088960	10
412.085999	5
412.823483	4
414.081438	2
418.070820	1
418.080510	3
422.065703	4
426.129752	2
427.963783	2
429.064853	2
431.059880	13
432.067706	19
434.044440	5
440.075909	4
442.051724	4
445.167343	2
450.940473	2
451.088862	2
454.002635	4
454.048330	2
461.131036	1
461.159100	1
462.011596	2
462.099790	2
462.996303	6
464.004933	9
466.680941	2
468.043895	3
468.118514	2
468.927072	2
470.020605	6
471.005934	6
475.381538	1
478.073753	5
485.987307	2
486.266758	1
489.938055	9
492.055222	2
493.238971	1
499.182243	44
500.053624	2
500.186747	7
505.008373	2
507.950029	4
510.013192	2
519.831890	2
521.164538	2
526.448567	2
528.136806	10
535.154021	5
536.362959	2
540.638533	1
541.170924	4
541.218497	2
547.217313	2
550.118872	4
551.127038	13
552.093860	2
552.130625	1
553.100090	9
554.355585	1
554.792316	2
555.264169	2
561.111763	2
562.424890	2
568.565520	2
573.108249	3
578.264826	1
581.067674	3
582.056007	6
582.313440	4
583.062823	5
584.069587	2
587.110949	1
588.953664	2
589.169753	2
592.417233	1
595.041170	2
596.084630	2
603.141550	2
604.038077	2
605.043439	2
608.996377	17
609.087248	2
619.112451	2
625.955757	2
632.510240	1
633.943240	1
633.973397	1
634.266034	2
635.263123	2
637.680961	2
644.547698	1
654.056277	1
663.398966	2
667.586316	2
670.693008	1
676.193771	3
676.416404	1
678.752352	1
684.931520	1
686.148952	3
690.639607	1
692.164642	6
695.222976	2
698.622476	1
703.179975	2
720.710469	1
724.103706	2
725.246261	1
752.578236	1
767.361155	2
768.752603	1
773.900649	2
779.441704	1
781.365222	1
784.564800	1
787.358144	2
789.830826	2
822.084100	2
829.829130	1
833.204041	2
843.161748	2
851.197883	2
858.236831	1
866.234627	1
875.493743	2
891.392933	2
904.174458	2
905.974967	6
907.718854	2
912.152709	1
934.055998	2
937.051109	1
959.301261	1
976.925440	2
1005.884847	2
1005.969235	32
1006.976678	5
1016.032618	2
1019.332519	2
1023.897745	2
1050.740015	2
1099.985977	2
1105.965432	31
1106.966746	8
1107.976389	2
1115.617573	1
1136.954416	2
1157.710160	2
1164.384758	2
1165.985321	30
1166.986407	9
1182.973150	2
1200.421389	2
1205.956640	17
1206.962121	2
1211.434666	2
1211.777285	1
1229.168583	2
1233.978145	3
1234.010904	2
1238.527719	2
1239.458790	2
1249.052680	1
1250.104197	2
1255.944988	3
1265.978062	66
1266.982865	16
1267.980333	2
1282.963258	6
1289.219759	2
1290.138542	2
1291.759740	2
1295.046538	2
1305.864742	2
1305.944986	4
1318.020612	1
1318.608430	2
1333.966349	9
1334.979463	2
1339.034224	2
1349.781513	2
1354.902176	2
1365.974981	39
1366.977040	10
1382.966749	5
1383.968112	2
1385.905867	2
1402.229828	2
1410.700362	2
1427.098910	3
1433.958002	11
1434.963914	3
1450.451805	2
1461.071529	1
1465.969084	20
1466.966411	6
1475.120935	2
1479.465591	1
1481.047289	2
1482.955151	3
1492.920455	2
