Mass spectrum: L-Tyrosine; LC-ESI-ITFT; MS2; m/z:529.95; NEG
Name: L-Tyrosine
Name: (S)-3-(p-Hydroxyphenyl)alanine
Name: (S)-2-Amino-3-(p-hydroxyphenyl)propionic acid
Name: Tyrosine
Class: Natural Product
Formula: C9H11NO3
Exact mass: 181.07389
SMILES: OC(=O)C(N)Cc(c1)ccc(O)c1
InChI: InChI=1S/C9H11NO3/c10-8(9(12)13)5-6-1-3-7(11)4-2-6/h1-4,8,11H,5,10H2,(H,12,13)/t8-/m0/s1
Instrument: LTQ Orbitrap XL, Thermo Scientfic
Instrument type: LC-ESI-ITFT
Ms type: MS2
Ion mode: NEGATIVE
Collision energy: 35eV
Ionization: ESI
Column name: TOSOH TSKgel ODS-100V  5um Part no. 21456
Retention time: 5.748747 min
Base peak: 512.028259
Precursor m/z: 529.95
m/z	relative intensity
263.771545	6
280.916077	174
296.789764	5
315.018921	4
321.123413	12
322.053223	69
323.034729	13
336.981689	90
364.927917	37
366.096863	6
378.889404	11
394.921814	261
395.792603	5
397.859070	11
432.244873	6
462.591248	4
481.084106	3
512.028259	999
513.096497	27
521.104004	3
530.082703	188
531.323669	4
