Mass spectrum: DOPA; LC-ESI-ITFT; MS2; m/z:198.08; POS
Name: 3,4-Dihydroxy-L-phenylalanine
Name: L-Dopa
Name: 3-Hydroxy-L-tyrosine
Name: L-beta-(3,4-Dihydroxyphenyl)alanine
Name: Levodopa
Name: Dihydroxy-L-phenylalanine
Name: DOPA
Class: Natural Product
Formula: C9H11NO4
Exact mass: 197.06881
SMILES: OC(=O)C([H])(N)Cc(c1)cc(O)c(O)c1
InChI: InChI=1S/C9H11NO4/c10-6(9(13)14)3-5-1-2-7(11)8(12)4-5/h1-2,4,6,11-12H,3,10H2,(H,13,14)/t6-/m0/s1
Instrument: LTQ Orbitrap XL, Thermo Scientfic
Instrument type: LC-ESI-ITFT
Ms type: MS2
Ion mode: POSITIVE
Collision energy: 35eV
Ionization: ESI
Column name: TOSOH TSKgel ODS-100V  5um Part no. 21456
Retention time: 5.499893 min
Base peak: 181.016403
Precursor m/z: 198.08
m/z	relative intensity
135.179398	8
137.181961	1
139.123596	12
152.121994	451
153.059097	1
155.208755	1
162.223328	1
163.052231	8
181.016403	999
