Mass spectrum: L-Cysteine; LC-ESI-ITFT; MS2; m/z:122.03; POS
Name: L-Cysteine
Name: L-2-Amino-3-mercaptopropionic acid
Class: Natural Product
Formula: C3H7NO2S
Exact mass: 121.01975
SMILES: N[C@@H](CS)C(O)=O
InChI: InChI=1S/C3H7NO2S/c4-2(1-7)3(5)6/h2,7H,1,4H2,(H,5,6)/t2-/m0/s1
Instrument: LTQ Orbitrap XL, Thermo Scientfic
Instrument type: LC-ESI-ITFT
Ms type: MS2
Ion mode: POSITIVE
Collision energy: 35eV
Ionization: ESI
Column name: TOSOH TSKgel ODS-100V  5um Part no. 21456
Retention time: 5.022447 min
Base peak: 104.980179
Precursor m/z: 122.03
m/z	relative intensity
58.910267	2
75.913521	365
86.933502	23
104.980179	999
