Mass spectrum: L-Valine; LC-ESI-ITFT; MS; POS
Name: L-Valine
Name: 2-Amino-3-methylbutyric acid
Class: Natural Product
Formula: C5H11NO2
Exact mass: 117.07898
SMILES: CC(C)[C@H](N)C(O)=O
InChI: InChI=1S/C5H11NO2/c1-3(2)4(6)5(7)8/h3-4H,6H2,1-2H3,(H,7,8)/t4-/m0/s1
Instrument: LTQ Orbitrap XL, Thermo Scientfic
Instrument type: LC-ESI-ITFT
Ms type: MS
Ion mode: POSITIVE
Collision energy: 35eV
Ionization: ESI
Column name: TOSOH TSKgel ODS-100V  5um Part no. 21456
Retention time: 5.460055 min
Base peak: 118.086182
m/z	relative intensity
117.714878	1
117.961568	1
118.019184	2
118.021848	1
118.030325	1
118.031051	1
118.032989	59
118.034927	1
118.044616	1
118.063756	3
118.065453	1
118.067633	1
118.068360	1
118.070541	1
118.073449	1
118.074903	1
118.075631	1
118.076115	1
118.077327	1
118.078054	1
118.079023	2
118.079751	2
118.080478	2
118.081205	2
118.082174	4
118.084113	11
118.086294	999
118.088234	13
118.089930	4
118.092354	3
118.093809	1
118.094778	1
118.095748	1
118.096475	1
118.097202	1
118.098899	1
118.099626	1
118.101566	1
118.103020	1
118.104475	1
118.107384	1
118.108597	3
118.111263	1
118.127752	1
118.150551	1
118.153220	2
118.210976	1
118.459228	1
119.034826	1
119.082921	2
119.087339	1
119.089303	58
119.091266	1
120.027364	1
120.089980	2
133.072246	18
134.044828	8
135.035224	4
135.583435	1
135.888709	1
135.959649	1
135.991096	1
136.014763	2
136.020456	1
136.026748	1
136.028546	1
136.029445	1
136.030344	1
136.031543	1
136.032742	1
136.033641	1
136.034540	1
136.035439	1
136.036338	2
136.037537	3
136.038436	2
136.039935	8
136.042632	763
136.045030	9
136.047128	3
136.048327	3
136.050125	2
136.051924	1
136.053123	1
136.054322	1
136.056120	1
136.057919	1
136.070210	2
136.093898	1
136.125391	1
136.196816	1
136.503864	1
137.039232	1
137.041656	3
137.045596	28
138.038246	26
138.046211	2
139.049463	1
141.958171	1
145.097007	1
148.042615	2
149.022904	1
155.053504	1
163.132671	1
171.149125	19
172.976261	1
174.127584	4
182.984796	1
187.125577	1
194.117473	12
199.179842	1
222.111688	3
224.127985	4
269.062817	46
270.065138	1
271.057054	2
279.157671	1
280.210780	1
285.056123	1
307.038376	1
350.251546	1
391.284356	21
392.286254	3
394.277967	1
420.091122	1
436.341219	1
508.363166	22
509.364873	4
526.318429	5
527.321092	1
