Mass spectrum: CDP; LC-ESI-ITFT; MS; NEG
Name: CDP
Name: Cytidine 5'-diphosphate
Name: Cytidine diphosphate
Class: Natural Product
Formula: C9H15N3O11P2
Exact mass: 403.01818
SMILES: NC(C=2)=NC(=O)N(C2)[C@H](O1)[C@H](O)[C@H](O)[C@@H](COP(O)(=O)OP(O)(O)=O)1
InChI: InChI=1S/C9H15N3O11P2/c10-5-1-2-12(9(15)11-5)8-7(14)6(13)4(22-8)3-21-25(19,20)23-24(16,17)18/h1-2,4,6-8,13-14H,3H2,(H,19,20)(H2,10,11,15)(H2,16,17,18)/t4-,6-,7-,8-/m1/s1
Instrument: LTQ Orbitrap XL, Thermo Scientfic
Instrument type: LC-ESI-ITFT
Ms type: MS
Ion mode: NEGATIVE
Collision energy: 35eV
Ionization: ESI
Column name: TOSOH TSKgel ODS-100V  5um Part no. 21456
Retention time: 6.966012 min
Base peak: 402.009583
m/z	relative intensity
110.035980	7
111.008667	1
114.951622	1
134.047025	1
138.970357	1
138.979953	1
150.979747	1
158.915318	1
158.918724	2
158.921752	3
158.925159	115
158.927430	2
158.928566	2
158.931216	1
160.841743	3
160.929262	1
162.838737	3
164.835565	1
167.011163	3
171.002464	1
171.006266	36
171.010069	1
172.009006	1
173.008982	2
174.917641	1
174.979722	3
176.935406	3
184.367265	1
184.875804	1
186.865012	1
186.873699	1
188.861978	1
191.015261	1
191.019252	35
191.023741	1
192.022763	3
192.990127	2
194.926860	1
197.021363	4
199.036757	2
211.000652	1
216.908485	1
229.047572	1
232.932852	2
238.862275	1
243.016799	1
245.042037	3
250.972017	1
254.945723	1
256.873140	2
260.901582	2
261.027426	1
266.831285	1
268.972806	11
272.864948	1
272.956090	16
272.960350	1
273.959953	1
279.037778	1
280.873222	1
286.022871	1
290.967251	4
292.810118	1
294.887604	1
304.033673	16
304.037680	1
305.036724	1
310.820744	1
312.889191	1
312.898602	1
312.948802	1
322.043400	20
322.048859	1
322.892371	1
323.046990	2
338.987934	1
340.994318	2
343.018568	8
343.994060	1
344.886577	1
346.054849	1
352.893756	1
359.003875	5
365.001195	2
369.034172	1
380.985463	1
383.974430	1
383.981538	1
383.990068	1
384.000019	94
384.012814	1
384.022767	1
385.002835	8
386.003852	1
386.015315	1
386.935430	2
401.588042	1
401.840557	1
401.855776	1
401.869474	3
401.919707	1
401.924274	1
401.928841	1
401.934930	1
401.939498	1
401.950155	1
401.956245	2
401.962335	1
401.969948	3
401.977562	1
401.983652	7
401.997357	14
402.009540	999
402.017154	15
402.023246	14
402.033906	6
402.043044	2
402.047614	3
402.062845	1
402.071984	1
402.078077	1
402.087216	1
402.096356	1
402.117684	1
402.126825	1
402.149678	3
402.430176	1
402.985938	1
402.999694	1
403.013451	90
403.027208	1
404.013456	17
405.017187	2
408.010441	1
412.923338	1
417.055213	1
423.992266	24
424.995258	2
426.021747	4
427.023617	1
439.966046	1
443.979009	1
455.929594	4
459.967701	2
461.942184	2
461.966570	1
462.939842	2
463.936959	26
464.941090	1
465.933282	1
469.997504	1
472.931498	2
475.934244	1
481.976183	1
485.963019	1
488.900929	1
489.911421	1
490.898333	5
491.906780	8
492.895596	2
492.910068	1
493.901912	3
496.933142	1
499.914219	2
499.977578	5
500.927288	4
501.934942	2
503.957255	1
509.943565	1
521.958929	2
525.894454	1
526.873294	1
527.200182	1
529.888484	1
534.887482	1
535.896236	1
535.959525	1
537.974186	1
543.892633	1
549.865435	1
552.898624	1
553.897204	1
561.913682	1
562.167940	1
564.165187	1
574.024366	22
575.028642	2
596.004900	10
597.009556	1
597.980837	1
600.038810	1
611.971543	1
615.943583	1
616.021569	1
617.941218	8
617.987655	1
618.943682	1
620.018584	4
622.021438	1
626.936272	1
627.942875	2
638.027928	1
639.919908	1
648.058577	1
662.911773	1
685.901133	1
742.068353	5
743.069983	1
746.037021	1
766.105670	2
768.020214	1
799.958634	1
805.026695	28
806.033115	3
807.032760	1
808.116724	3
809.120249	1
819.019963	1
827.009127	4
828.012046	1
828.985224	1
848.945570	2
848.992305	1
857.937646	2
858.945048	2
866.957592	1
880.926977	1
902.994187	1
905.980119	1
977.040829	2
1005.969235	5
1006.976678	1
1105.965432	7
1106.966746	2
1155.955800	1
1165.985321	2
1166.993939	1
1182.973150	1
1205.956640	3
1206.962121	1
1255.953397	3
1256.954705	1
1257.948782	1
1265.978062	6
1266.982865	2
1282.971940	2
1305.962819	1
1355.939238	3
1356.939715	1
1365.974981	5
1366.977040	1
1382.966749	2
1455.936047	1
1456.944164	1
1465.969084	3
1466.966411	1
1482.955151	1
