Mass spectrum: L-(-)-Phenylalanine; LC-ESI-ITFT; MS; NEG
Name: L-Phenylalanine
Name: (S)-alpha-Amino-beta-phenylpropionic acid
Name: L-(-)-Phenylalanine
Class: Natural Product
Formula: C9H11NO2
Exact mass: 165.07898
SMILES: OC(=O)C([H])(N)Cc(c1)cccc1
InChI: InChI=1S/C9H11NO2/c10-8(9(11)12)6-7-4-2-1-3-5-7/h1-5,8H,6,10H2,(H,11,12)/t8-/m0/s1
Instrument: LTQ Orbitrap XL, Thermo Scientfic
Instrument type: LC-ESI-ITFT
Ms type: MS
Ion mode: NEGATIVE
Collision energy: 35eV
Ionization: ESI
Column name: TOSOH TSKgel ODS-100V  5um Part no. 21456
Retention time: 11.719385 min
Base peak: 742.066711
m/z	relative intensity
101.098556	5
103.920296	13
104.712785	5
105.225013	4
105.703631	4
107.097652	5
110.619018	4
112.981564	11
112.983606	14
112.985421	494
112.987690	13
112.989278	7
113.293727	4
113.988828	6
114.223488	5
114.951622	37
116.050569	8
119.282271	5
119.511749	4
121.946133	5
122.588017	5
123.599969	5
124.312825	4
125.969517	5
127.262613	5
128.021664	5
128.549558	4
130.413143	5
131.563925	4
133.510006	6
134.046731	36
136.872061	4
137.756700	4
137.757616	4
138.979953	6
139.006887	11
142.946173	29
143.034687	17
146.965735	28
146.967418	5
147.044870	78
148.047813	6
149.427566	5
152.977899	5
153.003283	5
154.973328	13
155.034581	7
158.924781	19
160.841743	48
162.055610	5
162.786143	5
162.838737	48
164.061428	4
164.064604	17
164.068178	27
164.071354	965
164.074133	20
164.074928	20
164.077707	14
164.835565	16
164.927965	5
165.071319	5
165.074524	73
166.618355	4
166.933713	8
167.042974	5
168.961750	8
170.018971	5
170.943754	9
172.940642	6
174.150058	5
174.917641	7
174.979722	11
175.670954	5
175.683271	5
176.172187	5
176.935406	7
177.027930	5
180.381211	4
184.367738	8
187.860244	6
188.556851	5
189.363144	5
191.358381	5
192.927839	7
194.337416	5
195.727314	5
197.044877	11
197.962578	63
198.588166	5
200.047517	20
200.681948	5
201.412798	4
202.504876	5
202.523933	5
202.988119	26
204.051743	6
204.271648	5
204.743519	5
206.604802	4
211.000652	10
213.047362	5
213.998188	8
214.240889	6
215.055460	12
216.992404	5
217.990465	13
219.649587	5
220.006123	61
221.071642	4
222.020490	9
222.024240	7
222.029240	133
223.032714	14
224.026535	41
226.977741	13
227.088906	5
228.839449	5
232.058139	208
233.061864	17
235.726302	5
240.338646	4
242.269147	5
244.003221	6
244.008262	33
244.615741	4
248.959787	189
249.048127	145
249.569473	5
250.051366	9
250.987792	8
253.003419	8
253.966433	60
254.967259	5
255.963180	12
257.992963	5
260.053324	6
260.590550	5
261.044955	6
262.019029	34
262.053489	14
263.995761	57
265.204142	4
266.011339	8
272.003495	43
272.956090	43
273.007217	5
274.841054	6
276.084008	10
278.051447	6
278.060207	30
279.985105	10
280.039991	40
282.006097	12
283.999311	6
287.075850	8
287.117208	5
287.948088	6
288.020107	6
288.516667	4
289.943171	231
289.947835	8
290.014074	44
290.946623	17
290.966314	10
291.006639	26
291.016018	5
291.940213	120
292.943638	11
293.937012	17
293.964625	4
294.028435	38
294.042723	34
297.421921	5
297.938144	17
299.934084	12
299.972361	38
300.045993	45
301.968982	8
303.931538	6
303.962574	7
307.979830	6
308.022722	7
309.016856	7
310.001373	50
311.005109	8
315.957565	5
316.029731	13
317.012786	7
318.009006	33
321.985538	20
324.397208	5
326.067159	6
329.150186	57
330.153202	10
334.086832	5
338.054779	8
338.987934	17
340.472658	5
346.054849	8
349.410335	5
351.110760	7
351.121947	12
351.131892	627
351.143080	8
351.151782	6
352.128491	5
352.134733	78
353.092984	7
353.097998	7
353.108026	487
353.119309	7
354.110539	99
355.114797	7
355.879677	5
357.007421	5
357.087724	11
359.327949	4
360.969175	10
367.959668	7
367.990341	6
368.033023	10
369.957389	6
376.153881	4
376.729301	5
377.950732	5
383.069100	95
384.076801	127
385.068496	6
385.079917	29
387.064883	5
387.460836	5
388.886961	5
389.081185	10
390.080694	12
391.076753	163
392.081032	23
393.074461	15
394.527279	54
396.761966	6
397.123550	12
399.098529	6
399.113593	81
399.804430	5
400.115741	19
401.079174	49
402.082646	15
407.240780	5
408.010441	115
409.013485	12
413.102533	55
414.105319	9
415.533928	12
417.050386	25
418.048210	9
418.471632	5
419.031793	9
419.044758	399
419.077173	7
419.119318	37
420.049753	64
420.082285	4
420.122955	7
421.042043	94
421.050205	9
421.488005	5
422.046045	16
423.042134	5
425.991845	7
426.021747	76
427.023617	10
427.040289	17
427.053627	7
427.078639	9
428.067508	21
429.036309	14
429.063173	5
429.074928	298
430.077482	51
431.036209	5
431.075099	8
431.310237	4
437.082547	99
437.902020	5
438.085594	15
441.063032	5
442.127240	5
443.138900	22
444.141658	12
445.119434	27
445.975859	11
446.064842	11
446.121804	7
448.002335	10
449.979529	7
452.066075	5
460.751488	5
463.097959	11
467.100264	8
467.984595	5
472.935384	5
481.087802	11
484.964712	10
485.136266	5
487.033447	12
487.065939	10
487.106559	15
487.977049	13
492.639333	4
495.065279	7
497.060833	47
498.065238	6
499.935337	6
503.018101	5
503.150277	14
505.070559	12
505.948809	6
505.987513	8
506.073538	6
507.945703	5
509.665199	5
513.106331	6
518.187740	111
519.189831	29
520.031237	4
526.564973	5
529.759455	5
532.175013	21
533.178426	11
538.193496	22
538.878228	5
539.195063	5
540.052389	31
541.056774	8
546.152325	11
547.139930	90
547.152020	7
548.125367	6
548.147188	307
548.159312	10
549.152368	77
550.148126	12
554.160827	9
555.021991	8
555.093639	10
555.160359	9
556.142774	6
556.155163	78
557.160098	21
558.152811	5
558.162777	6
561.043967	4
564.193036	124
565.049785	15
565.194459	31
566.198549	6
573.053819	6
573.292335	5
584.234967	5
593.145270	17
600.163793	7
602.006951	13
603.466310	5
606.104873	7
606.180998	10
613.051268	5
615.127063	6
616.134242	41
616.304754	5
617.138103	10
618.135709	6
619.969002	22
619.992334	7
620.018584	750
620.039003	8
620.044837	9
620.065256	7
620.879939	6
621.023186	113
622.024369	18
624.087028	6
624.142998	11
632.179775	16
634.045784	5
636.368704	7
638.030973	60
639.030852	9
641.955506	6
642.001603	22
647.952615	6
649.826348	6
652.044679	7
652.557731	5
655.966089	5
673.910669	5
674.092495	10
674.168553	14
674.337249	8
676.170517	6
678.779081	5
682.247043	6
683.264945	163
684.122825	30
684.268217	66
685.124601	13
686.142160	5
690.139233	5
692.130238	8
702.275463	5
710.096724	107
711.102368	19
712.106560	5
712.217870	74
713.220828	31
720.027384	5
735.207455	11
739.049012	5
742.033982	11
742.068353	999
742.091268	8
742.102727	13
742.125644	10
742.152381	9
743.069983	191
744.073643	38
752.110385	26
752.328661	5
753.112899	10
757.131256	5
760.115684	5
764.046631	54
765.049124	16
766.105670	17
766.859393	4
778.488764	5
781.064074	8
788.227069	8
790.019579	8
790.065728	340
791.065232	78
792.058211	8
792.075057	14
793.061500	6
797.174566	6
798.856910	5
801.525460	6
803.195799	20
804.198786	6
808.073323	107
808.116724	26
809.076768	27
810.064658	6
812.045875	40
813.148719	11
819.015534	20
820.026126	8
821.091928	6
824.843122	5
831.942275	5
832.073764	55
833.076827	13
840.720126	5
850.086997	10
854.057731	7
855.209487	8
858.921268	5
861.027232	18
862.030518	6
865.964952	7
871.110399	5
871.178407	13
872.189761	5
876.066644	108
877.066894	42
881.144369	7
886.052061	10
890.082044	8
895.859525	5
897.137510	4
897.152740	4
905.980119	23
906.985602	7
917.358848	5
923.409681	6
927.953799	5
930.962516	6
931.214797	5
933.225973	6
939.119292	5
945.183893	5
955.143994	160
956.148654	40
958.134719	5
959.076760	5
959.245128	4
961.060702	11
962.069076	5
969.075444	6
977.127383	12
978.126478	6
990.259650	7
991.054929	6
997.154281	8
1000.213141	6
1001.211947	6
1005.969235	75
1006.976678	16
1007.115546	6
1008.082381	6
1023.130625	9
1026.104922	11
1039.081326	5
1039.169926	5
1041.141024	15
1042.138212	5
1043.149563	6
1048.215646	5
1048.286179	6
1048.337480	5
1063.126305	17
1064.122460	8
1065.126583	6
1065.994028	7
1068.200260	7
1071.969922	5
1075.079951	5
1105.965432	118
1106.966746	24
1133.298325	5
1137.976360	5
1142.201920	14
1143.201738	6
1149.449153	5
1155.955800	5
1165.985321	70
1166.271214	6
1166.986407	17
1169.256791	5
1170.073029	6
1178.320840	8
1194.362477	6
1200.146413	6
1203.689036	6
1204.115204	8
1205.157903	6
1205.877522	5
1205.956640	65
1206.962121	12
1208.548106	5
1217.222850	5
1231.794428	5
1233.978145	27
1236.750890	6
1255.953397	15
1256.727412	5
1257.872921	5
1265.152976	7
1265.978062	222
1266.097214	4
1266.982865	69
1267.971803	7
1270.030112	5
1274.230541	5
1274.445407	5
1282.971940	6
1291.777284	6
1295.064148	6
1305.944986	12
1312.568188	5
1315.907719	5
1317.378983	5
1321.117852	5
1326.641949	6
1333.966349	57
1334.961032	14
1340.219956	5
1362.975407	5
1365.974981	140
1366.977040	51
1375.216405	5
1382.966749	6
1389.059742	6
1433.958002	51
1434.963914	12
1442.024684	5
1443.070168	6
1465.969084	90
1466.966411	24
1470.997890	6
1474.232911	6
1478.509195	5
1485.537159	8
1487.746386	7
1489.297951	4
