Mass spectrum: L-Tyrosine; LC-ESI-ITFT; MS; NEG
Name: L-Tyrosine
Name: (S)-3-(p-Hydroxyphenyl)alanine
Name: (S)-2-Amino-3-(p-hydroxyphenyl)propionic acid
Name: Tyrosine
Class: Natural Product
Formula: C9H11NO3
Exact mass: 181.07389
SMILES: OC(=O)C(N)Cc(c1)ccc(O)c1
InChI: InChI=1S/C9H11NO3/c10-8(9(12)13)5-6-1-3-7(11)4-2-6/h1-4,8,11H,5,10H2,(H,12,13)/t8-/m0/s1
Instrument: LTQ Orbitrap XL, Thermo Scientfic
Instrument type: LC-ESI-ITFT
Ms type: MS
Ion mode: NEGATIVE
Collision energy: 35eV
Ionization: ESI
Column name: TOSOH TSKgel ODS-100V  5um Part no. 21456
Retention time: 9.356410 min
Base peak: 180.066559
m/z	relative intensity
100.003994	1
100.956396	1
101.780313	1
102.799014	1
102.832104	1
103.070312	1
103.414573	1
104.302228	1
105.097469	1
106.042404	2
106.141089	1
106.201441	1
106.490273	1
107.050135	2
110.991212	1
111.259674	1
111.939020	1
112.325999	1
112.983832	4
112.985421	54
112.987463	1
113.955496	1
114.484095	1
114.951622	4
119.050263	10
119.694868	1
122.402059	1
127.051309	1
127.214346	1
128.035075	15
128.036991	2
128.284518	1
128.728180	1
130.650101	1
130.670981	1
133.533325	1
134.046731	8
134.060807	2
134.260447	1
135.030869	10
135.323941	1
135.460260	1
136.174374	1
136.813690	1
139.006578	8
139.354334	1
142.946173	3
143.045999	20
144.049390	2
145.061395	2
145.798972	1
145.890149	2
146.045414	2
146.714274	1
146.965398	2
147.685005	1
148.947309	1
148.952117	7
149.947955	1
150.041664	5
150.979747	1
151.025672	5
153.066591	2
153.223780	1
155.082003	2
159.824541	1
160.006786	5
161.949258	1
162.055610	2
162.502418	1
162.838737	2
163.031670	1
163.036783	1
163.039536	25
163.042289	1
163.903925	1
164.042770	2
164.112258	1
169.061380	2
169.228872	1
169.497045	1
169.802220	1
170.546677	1
171.076844	2
174.917641	2
175.017774	1
177.005682	1
177.033270	2
179.045757	2
179.940332	2
179.982751	1
180.024271	3
180.050743	2
180.055307	3
180.059415	13
180.063067	36
180.066719	999
180.069915	35
180.074024	12
180.077676	2
180.079046	2
180.082242	2
180.108726	5
180.192783	1
181.066055	2
181.069277	65
181.072039	3
181.449185	1
182.070020	3
184.108354	2
184.365373	2
184.822149	1
185.445121	1
186.368917	1
189.004755	1
189.995381	3
191.018753	2
191.168477	1
192.511337	1
197.056374	5
198.087353	3
202.047772	19
203.048782	2
203.050969	1
204.997812	3
205.482219	1
209.890353	1
210.087546	4
210.257941	1
211.000652	4
213.998188	3
214.802452	1
215.480324	1
216.032373	4
216.035972	2
216.037772	4
216.042572	139
216.051571	1
217.046161	9
218.034861	2
218.039727	42
218.042769	1
219.042582	2
224.453494	1
226.865368	1
228.098275	3
229.932309	3
231.108005	1
231.188343	1
231.935298	2
232.008724	6
233.984860	1
234.296228	1
234.339598	1
236.000735	3
238.018491	2
238.024735	24
238.028204	1
239.431726	1
240.021482	9
242.077614	2
243.061181	12
245.742152	1
248.053128	10
248.340501	1
248.959045	2
248.990960	1
251.995984	8
252.107119	1
254.059747	3
254.077345	7
255.677154	1
256.992967	1
260.003416	5
262.004606	1
264.018453	3
265.043470	15
266.046590	2
267.066134	2
267.068608	1
267.072731	41
267.986257	1
268.075794	3
269.949729	1
269.961461	7
270.097271	1
271.959428	2
272.084030	1
272.088270	81
272.434561	1
273.090756	5
275.016751	1
276.053676	2
278.013784	2
279.990416	9
280.858993	1
280.998660	6
282.083954	14
283.067543	1
283.087340	2
286.161835	1
287.998868	4
288.065364	3
292.078798	2
294.055108	2
294.058919	3
294.069399	3
296.035185	4
300.014573	8
301.062911	1
302.049301	1
303.023603	7
303.049516	7
304.013643	2
304.052704	1
304.059716	27
304.972316	1
305.012568	2
305.020620	2
305.045783	1
305.063902	2
305.938563	17
306.008334	11
306.049804	2
306.059920	3
306.068013	5
306.076106	238
306.083188	6
306.092294	2
306.941919	3
307.000854	4
307.012034	1
307.072006	1
307.079123	22
307.083189	2
307.934904	11
308.071753	7
308.079926	2
309.932293	2
310.035405	1
310.144761	1
310.406003	1
310.562080	1
310.626198	1
313.932217	3
314.101478	1
315.351505	1
315.928918	4
316.003197	1
316.040345	2
318.059369	3
319.957188	3
320.001525	2
320.017749	1
321.954976	2
322.091448	1
322.955960	4
323.318116	1
323.955009	4
324.015606	2
324.955381	2
325.762573	1
325.955947	7
325.995976	2
326.041575	8
327.957526	3
328.057415	6
330.042159	2
330.068215	2
331.070881	13
331.952395	4
332.024394	4
337.980809	3
338.047733	16
339.960483	5
341.939679	1
346.045120	4
346.048768	2
346.054849	150
346.063363	4
346.074310	2
347.051882	2
347.057990	15
347.978408	1
348.058138	1
355.589390	1
357.979246	1
358.795772	2
358.987168	5
359.994192	6
361.019713	1
361.119524	5
361.123414	3
361.129897	9
361.138973	396
361.149346	9
361.161016	4
361.259589	1
362.142049	69
363.142774	2
363.146696	2
366.620472	1
366.998747	5
367.517336	1
368.037025	2
373.175220	2
373.991020	1
374.040217	1
377.134402	1
378.896485	9
382.671372	1
383.101681	4
383.110182	6
383.114432	5
383.121516	274
383.131433	6
383.144185	1
383.961637	1
384.118045	2
384.125157	43
384.136536	1
384.512332	1
385.097050	29
385.128463	2
386.099868	2
393.978575	1
394.976263	2
395.072679	1
395.976257	2
397.116074	3
397.977170	4
398.118207	1
399.086479	3
399.095517	9
399.113593	1
399.979687	2
404.045677	9
405.049529	1
405.089576	1
405.103439	20
406.106600	4
407.982415	1
408.292417	1
408.543482	1
410.002979	3
411.005513	1
411.148807	1
413.062878	2
414.003443	1
414.559438	1
415.059034	36
416.062543	8
416.065750	8
416.147536	1
417.058432	4
417.071305	2
423.045422	1
423.066794	31
424.071451	3
425.991845	2
426.020086	4
427.085309	2
427.232089	1
429.100117	1
429.115231	1
431.103846	4
437.041116	2
438.044020	1
441.078783	4
445.091047	5
446.095102	2
447.161506	2
448.120599	4
448.145691	4
449.041430	4
449.149315	2
450.028225	1
450.039047	1
451.034565	81
451.047234	2
451.108774	1
452.038837	11
453.031892	22
453.042823	2
454.035534	2
455.051686	2
458.033633	1
459.029796	4
459.516999	1
461.026286	3
461.063693	17
461.114199	2
461.814656	1
462.067887	2
463.026420	2
463.156333	3
467.990334	2
469.070993	11
470.076442	3
473.017007	3
475.013603	2
475.072287	1
475.129026	13
476.132433	2
477.107519	8
478.111278	2
478.172513	1
479.701264	1
482.052159	2
482.100153	1
483.045493	3
483.063546	3
484.047937	2
486.019695	2
489.938055	2
491.054542	3
495.088172	8
501.510297	1
502.066692	5
504.081248	2
504.937625	19
505.010518	1
505.942359	3
512.016709	3
513.902171	1
513.950596	4
515.033151	1
517.104115	1
517.835801	1
518.894928	2
519.055753	2
522.949390	15
523.584856	1
524.346223	1
524.936517	3
527.129292	4
529.946101	6
531.961689	3
533.893226	2
541.218497	2
542.214211	25
542.230909	1
543.217460	10
544.216300	3
546.217439	3
547.217313	7
547.955692	6
548.139914	1
549.111038	7
550.943751	2
554.121395	2
555.264169	2
559.945892	1
564.182909	3
564.195568	1
564.996498	1
565.186843	1
566.173096	8
572.950163	1
575.949369	2
580.158411	11
581.049150	3
581.131191	3
581.165600	2
581.605248	2
584.194949	1
586.176745	14
587.180836	3
589.056291	2
591.076472	2
593.131624	2
594.137229	5
595.126191	7
596.112126	2
596.131375	153
596.153374	3
597.136350	39
598.141105	3
602.140924	3
604.139062	30
605.144675	11
606.121788	2
607.135184	1
608.394876	1
611.071571	2
611.082987	1
611.100111	6
611.120090	13
611.128653	9
611.142925	749
611.162906	12
611.191453	5
611.211436	2
612.123162	3
612.146053	139
612.163222	2
612.177530	9
612.214733	1
613.140179	50
613.180339	4
614.142480	10
615.144358	2
618.112481	12
619.118272	4
622.860538	1
625.157644	7
625.932087	1
626.121483	6
627.123156	2
631.052141	2
631.100064	3
633.123787	50
634.088015	1
634.130250	8
635.099802	4
635.120970	3
637.136733	3
640.094271	4
644.764164	1
648.105333	2
649.088378	3
649.585431	1
650.051742	3
651.054913	2
654.091041	2
655.106748	12
656.061323	2
656.086722	1
656.204212	2
658.059656	3
660.006263	3
662.157845	3
664.061246	3
664.119445	1
665.061388	16
666.067039	4
671.070552	1
673.071919	8
674.072655	2
676.160552	5
677.088292	4
677.164858	2
680.251570	1
686.013144	15
686.036908	2
687.015674	2
687.042892	9
688.047680	3
690.331093	3
691.336238	2
695.025611	3
695.053307	5
697.048245	2
699.967568	2
708.594034	1
709.025435	4
709.111049	6
710.211138	4
711.016394	3
716.347482	2
722.024574	1
724.722561	1
724.943774	1
727.450527	1
727.954922	1
731.089430	2
736.089564	1
747.247338	9
748.247875	6
762.552549	1
763.145672	1
766.494420	1
767.204553	1
767.236672	1
767.244703	1
776.199835	10
777.201789	3
781.513797	1
787.433283	1
789.231462	1
794.447310	1
795.853722	1
798.179073	4
798.332470	1
799.185481	8
799.330628	1
800.189516	3
803.561478	1
807.193049	2
814.974210	1
820.163675	2
824.409154	1
825.402865	3
826.353494	1
827.917523	1
830.118249	2
830.674325	1
832.936017	1
838.867172	1
848.408399	1
867.111941	2
874.129861	2
884.300651	1
885.270250	1
891.106399	1
897.416798	2
898.113049	2
898.428406	2
899.115647	2
905.974967	5
914.321757	1
921.372011	1
922.038142	1
929.322506	1
971.548052	1
973.289675	2
986.274167	1
989.036203	1
1004.018982	1
1005.969235	21
1006.976678	4
1014.034740	1
1031.503957	1
1041.426696	1
1064.155252	1
1065.994028	2
1069.580158	1
1080.796790	1
1088.585443	1
1092.211253	1
1105.965432	24
1106.966746	8
1111.139566	2
1119.202520	1
1138.680200	2
1142.814792	2
1150.392155	1
1155.955800	3
1165.985321	21
1166.263689	1
1166.986407	3
1173.946657	1
1180.448139	2
1188.380281	2
1205.956640	13
1206.954199	3
1217.543848	1
1227.639361	1
1233.216866	2
1234.977882	1
1254.206082	2
1255.953397	6
1256.878934	1
1256.954705	2
1260.202448	1
1262.860585	1
1265.918493	1
1265.978062	45
1266.982865	9
1267.988864	3
1270.714477	1
1273.208523	1
1277.002180	1
1279.255397	1
1280.051057	2
1281.913375	1
1282.971940	6
1283.970969	2
1284.049203	2
1295.619052	1
1302.261418	1
1305.953902	2
1313.548024	1
1313.655963	1
1325.738623	1
1333.966349	8
1334.970248	2
1345.911065	1
1349.060385	1
1349.266362	1
1349.406829	2
1353.612225	2
1355.948671	3
1365.974981	26
1366.977040	7
1367.980202	1
1382.966749	3
1384.308628	1
1394.681248	1
1430.006210	1
1433.958002	4
1455.936047	1
1458.195264	1
1465.969084	13
1466.966411	4
1475.881206	1
1482.955151	1
1484.661330	1
1487.659657	2
