Mass spectrum: NADH; LC-ESI-ITFT; MS; POS
Name: NADH
Name: DPNH
Class: Natural Product
Formula: C21H29N7O14P2
Exact mass: 665.12477
SMILES: NC(=O)C(C5)=CN(C=C5)[C@H](O1)[C@H](O)[C@H](O)[C@@H](COP(O)(=O)OP(O)(=O)OC[C@@H](O2)[C@@H](O)[C@@H](O)[C@@H]2n(c4)c(n3)c(n4)c(N)nc3)1
InChI: InChI=1S/C21H29N7O14P2/c22-17-12-19(25-7-24-17)28(8-26-12)21-16(32)14(30)11(41-21)6-39-44(36,37)42-43(34,35)38-5-10-13(29)15(31)20(40-10)27-3-1-2-9(4-27)18(23)33/h1,3-4,7-8,10-11,13-16,20-21,29-32H,2,5-6H2,(H2,23,33)(H,34,35)(H,36,37)(H2,22,24,25)/t10-,11-,13-,14-,15-,16-,20-,21-/m1/s1
Instrument: LTQ Orbitrap XL, Thermo Scientfic
Instrument type: LC-ESI-ITFT
Ms type: MS
Ion mode: POSITIVE
Collision energy: 35eV
Ionization: ESI
Column name: TOSOH TSKgel ODS-100V  5um Part no. 21456
Retention time: 9.523573 min
Base peak: 333.570099
m/z	relative intensity
100.111848	17
101.095891	2
102.033553	9
102.091202	3
107.069996	1
110.019964	19
110.521485	1
111.020036	4
112.017680	2
113.963374	2
122.963604	1
123.055085	9
125.070792	2
128.106709	3
129.127203	3
130.158817	1
130.491545	1
133.079206	2
136.021355	1
136.061516	11
137.132305	7
139.982008	5
141.958490	3
143.081357	13
149.023248	22
150.026498	1
151.096379	26
152.099766	1
154.990068	3
155.142891	9
156.146006	1
158.002927	5
158.096379	6
158.961247	2
159.099511	1
159.112399	1
162.998158	3
163.133065	26
163.135426	1
164.136124	1
167.033727	4
168.122845	5
170.096285	10
171.110223	1
171.138130	6
171.141936	1
171.145742	2
171.147011	2
171.149125	135
171.151663	2
171.155892	1
171.188041	1
172.152452	11
172.169519	1
173.078147	14
174.124546	1
174.125414	1
174.127584	59
174.130622	1
174.131490	1
175.089843	3
175.130986	4
176.143085	1
178.035287	1
179.063653	12
182.081130	13
182.138689	1
182.984796	17
183.083955	1
185.114619	1
186.184865	3
186.955984	2
187.122676	1
187.123643	1
187.126544	45
187.129445	1
187.130895	1
188.129475	2
189.121821	1
190.993035	9
194.117473	4
195.122110	2
196.154284	7
199.028604	1
199.180373	23
199.987228	1
200.183421	1
208.190213	1
216.027748	1
217.104082	1
220.111991	8
221.092303	1
222.112313	1
223.063237	5
224.127985	1
226.159014	1
228.231451	1
233.174638	8
240.179785	1
254.363357	1
264.131509	1
277.200773	3
279.158552	4
282.221186	5
283.224159	1
294.226753	1
299.182617	2
302.042488	1
305.195176	1
307.510442	1
319.069251	1
320.053309	1
320.294622	1
321.226716	1
322.259021	1
325.046990	1
325.056952	15
325.557880	2
331.809931	1
332.562408	2
332.966000	1
333.068161	1
333.251940	1
333.368028	1
333.464623	4
333.509485	1
333.516388	1
333.520990	1
333.527893	1
333.531344	1
333.533645	1
333.539398	1
333.542850	2
333.549754	3
333.554356	1
333.556657	2
333.561260	11
333.570466	999
333.577370	14
333.580823	8
333.585426	2
333.587728	3
333.592331	1
333.594633	2
333.599236	2
333.603840	1
333.610745	1
333.615349	1
333.617651	1
333.622255	1
333.626859	1
333.633765	1
333.638370	1
333.656788	1
333.661393	1
333.675208	4
333.771936	1
333.888297	1
333.964367	1
334.050842	1
334.057761	1
334.062375	3
334.064681	3
334.070448	260
334.078521	3
334.081981	2
334.088902	1
334.095822	1
334.176579	2
334.562307	1
334.565775	1
334.571554	59
334.578490	1
335.072631	5
335.343889	1
337.078885	1
338.252048	1
342.573727	2
343.208159	1
344.553585	1
345.547529	2
348.069074	2
352.542113	5
353.044016	1
354.553650	1
355.527891	2
356.029841	1
359.529663	1
360.024631	3
360.528380	39
360.536138	1
361.030595	7
361.527369	1
361.532562	1
364.532285	5
365.033671	1
366.283065	1
368.551136	1
373.054286	1
373.556998	1
380.537479	1
381.041348	5
383.025798	1
385.045771	3
385.547184	1
391.272660	1
391.284356	105
391.293128	1
391.297514	1
392.287721	23
393.290531	2
413.265143	1
426.356690	2
427.376183	1
428.034459	2
436.341219	6
437.343196	1
452.407342	1
457.406712	1
459.059392	1
462.057622	1
462.393614	3
462.401126	1
462.729973	1
464.371917	1
507.999642	1
528.705299	2
529.208535	1
549.969168	1
555.664911	1
569.927222	1
599.043346	1
606.915948	1
614.024077	1
618.532073	1
649.104092	2
650.107962	1
664.115903	1
665.832546	1
666.056523	1
666.076005	1
666.095487	1
666.105229	3
666.114971	3
666.131207	353
666.150692	4
666.163683	2
666.183169	1
666.212400	1
666.430070	1
666.631590	2
667.109754	1
667.135792	79
667.155321	1
668.136126	12
669.138712	1
677.121448	2
677.624272	1
678.110979	1
682.124523	1
685.102220	1
685.603789	1
688.113095	2
692.092075	1
692.584127	1
693.090490	6
693.590507	3
694.091066	1
697.095400	2
697.596279	1
698.094213	1
720.049383	1
998.695837	5
999.196781	3
999.698103	2
1025.650318	1
1026.159264	1
1331.256047	2
1331.760796	1
1332.265832	1
