Mass spectrum: 3',5'-Cyclic AMP; LC-ESI-ITFT; MS2; m/z:330.06; POS
Name: 3',5'-Cyclic AMP
Name: Cyclic adenylic acid
Name: Cyclic AMP
Name: Adenosine 3',5'-phosphate
Name: cAMP
Class: Natural Product
Formula: C10H12N5O6P
Exact mass: 329.05252
SMILES: Nc(n4)c(n3)c(nc4)n(c3)[C@H](O1)[C@H](O)[C@H](O2)[C@@H](COP(O)(=O)2)1
InChI: InChI=1S/C10H12N5O6P/c11-8-5-9(13-2-12-8)15(3-14-5)10-6(16)7-4(20-10)1-19-22(17,18)21-7/h2-4,6-7,10,16H,1H2,(H,17,18)(H2,11,12,13)/t4-,6-,7-,10-/m1/s1
Instrument: LTQ Orbitrap XL, Thermo Scientfic
Instrument type: LC-ESI-ITFT
Ms type: MS2
Ion mode: POSITIVE
Collision energy: 35eV
Ionization: ESI
Column name: TOSOH TSKgel ODS-100V  5um Part no. 21456
Retention time: 9.757262 min
Base peak: 312.115234
Precursor m/z: 330.06
m/z	relative intensity
97.016937	14
119.095322	9
135.975861	667
136.708603	2
148.097961	1
162.127258	4
174.302277	1
176.157928	6
177.012024	17
178.180756	2
186.144806	3
187.292007	1
190.117920	16
202.144348	2
204.097458	39
208.201172	3
214.081055	49
216.034271	2
220.178619	1
232.100647	91
250.188965	58
270.096497	3
284.123016	1
302.134033	1
312.115234	999
330.135284	1
