Mass spectrum: L-(-)-Malic acid; LC-ESI-ITFT; MS; NEG
Name: (S)-Malate
Name: L-Malate
Name: L-Apple acid
Name: L-Malic acid
Name: L-2-Hydroxybutanedioic acid
Name: L-(-)-Malic acid
Class: Natural Product
Formula: C4H6O5
Exact mass: 134.02152
SMILES: OC(=O)CC(O)C(O)=O
InChI: InChI=1S/C4H6O5/c5-2(4(8)9)1-3(6)7/h2,5H,1H2,(H,6,7)(H,8,9)/t2-/m0/s1
Instrument: LTQ Orbitrap XL, Thermo Scientfic
Instrument type: LC-ESI-ITFT
Ms type: MS
Ion mode: NEGATIVE
Collision energy: 35eV
Ionization: ESI
Column name: TOSOH TSKgel ODS-100V  5um Part no. 21456
Retention time: 5.480993 min
Base peak: 133.014099
m/z	relative intensity
100.896245	5
101.024465	7
101.368159	4
101.842421	4
101.867280	4
103.920096	7
104.928110	4
105.295608	4
106.943911	5
107.876224	4
108.976870	4
109.671397	4
109.869996	5
110.780975	5
110.904000	4
111.048453	4
112.983606	8
112.985648	224
112.987463	9
113.263204	4
113.994117	4
114.945335	5
114.951389	35
115.003565	68
117.368323	4
119.007327	5
119.116060	5
119.402473	4
120.011187	4
121.715447	5
121.927308	5
122.491143	4
122.788023	4
124.177029	4
125.748369	5
127.220039	4
130.318933	5
130.979416	4
133.008082	11
133.009531	13
133.011559	39
133.014168	999
133.015617	20
133.016776	38
133.017936	8
133.018805	11
133.735294	4
134.017122	24
134.047025	5
135.018122	9
136.429321	4
137.826374	5
139.001624	6
139.006887	47
139.858574	4
139.891704	8
140.860770	4
141.018830	5
141.890061	7
142.036744	4
142.890974	12
143.034687	39
143.889796	11
144.514998	4
144.632245	4
145.890482	31
146.898099	5
146.987617	10
148.589746	4
148.952117	32
150.692402	4
150.913175	4
151.039699	5
152.195187	4
152.903929	5
156.894379	8
158.892611	6
158.987634	8
159.010361	31
159.893658	6
160.205816	4
160.841743	7
160.892241	9
162.293626	5
162.838737	11
164.303480	5
164.835965	6
164.895156	7
164.953178	5
165.099771	5
166.969170	7
167.090708	4
169.568360	4
170.814616	4
171.005844	9
172.094280	5
174.955673	6
174.981908	12
176.406122	4
176.978100	12
177.911890	10
178.086872	34
178.113816	5
178.140316	4
179.034442	13
179.542422	4
180.948271	8
181.454265	4
182.964004	14
183.001883	4
183.912644	6
184.203728	4
184.459527	7
185.574965	5
189.388255	5
190.927508	7
194.940744	14
202.977191	9
206.081204	24
207.164194	5
208.949052	5
210.363967	5
210.999494	11
215.510207	4
216.903054	13
216.927197	5
217.991073	12
221.901160	11
222.909424	13
223.708853	5
224.865110	7
226.953193	24
228.205053	5
230.934856	7
230.952095	5
231.005153	8
231.030362	8
233.679511	5
233.938884	9
234.229164	5
235.990461	8
236.936438	5
236.986747	45
244.921779	7
246.935733	5
247.074352	5
247.299765	4
247.915897	5
248.938266	8
250.941221	8
252.959327	10
254.948800	22
256.025087	4
257.877913	7
260.933432	6
262.998566	7
263.533632	4
264.159537	5
264.889459	4
266.102349	7
266.961444	18
268.340523	4
272.904977	5
272.918605	5
275.021059	22
275.167605	5
275.497329	5
276.310353	5
276.902244	6
277.072950	16
278.818629	15
278.903089	8
279.997497	7
280.905240	7
280.981752	7
280.994211	8
286.932546	7
287.261570	5
287.400518	4
288.054280	5
289.017296	18
289.792123	4
290.992571	46
294.690618	5
297.938144	8
305.088064	4
306.075094	6
310.791757	9
310.951233	31
310.998892	5
311.811821	6
312.786742	5
313.003198	7
314.927666	17
316.548349	4
319.018541	8
319.946376	11
321.755338	4
324.964235	5
325.183485	15
326.123899	7
327.234973	5
329.796477	5
331.141455	4
332.933823	18
335.000120	4
340.330271	4
342.922567	20
342.935764	12
342.964562	23
344.911991	17
344.968878	4
346.036607	6
346.054849	13
347.433304	5
348.887718	21
357.134899	4
358.815033	5
366.921718	6
375.072857	14
377.083210	4
377.806400	4
378.085424	5
380.823944	6
389.906084	4
391.046070	5
392.914023	6
396.884431	4
417.789948	5
418.894077	117
421.130200	5
422.419781	5
425.882232	4
429.036309	4
436.654709	6
436.903054	7
441.927079	5
444.800240	4
451.641441	4
455.685067	5
463.984162	4
464.899423	44
468.399931	5
471.222311	5
476.489879	5
482.977304	5
487.279252	5
489.074576	5
503.160939	6
503.267574	6
503.662419	6
507.885149	4
510.224337	4
510.904371	10
513.315005	8
517.829122	4
522.560992	5
527.200182	6
533.008669	4
534.392341	5
535.306085	7
537.302940	10
539.225815	5
541.218497	30
542.223753	9
542.338272	9
543.215068	22
543.334687	45
544.216300	25
544.333850	7
545.215492	31
546.034185	5
546.217439	23
547.217313	53
548.219935	8
549.218019	24
555.264169	13
556.031286	5
559.305586	51
560.309053	13
561.322760	15
562.167940	12
562.316546	5
563.300345	31
564.165187	11
576.469394	5
577.317577	6
578.059960	4
579.311866	11
591.054753	4
592.253813	34
593.257185	11
604.950661	5
611.277104	9
611.662757	5
614.286277	6
617.239493	5
617.688807	5
622.182671	6
626.334656	5
631.261844	5
633.262259	11
636.092796	5
636.271661	5
641.801885	5
649.316514	5
649.879555	5
652.397140	4
655.296863	8
656.261381	5
657.228031	14
657.753587	4
659.228504	7
660.227359	7
661.225274	12
662.225453	5
663.227903	19
666.658517	4
679.976788	4
696.322136	5
704.241569	4
722.949158	5
729.192165	6
730.119373	5
737.635186	4
737.862337	5
741.118298	5
755.849742	5
766.534515	5
767.501737	4
769.191733	5
769.752271	5
778.287720	5
782.215975	5
790.783668	5
795.078039	6
800.159581	5
801.306856	6
815.823221	5
817.693070	6
836.741324	5
845.395712	5
886.715171	5
892.439700	5
895.661986	4
905.980119	20
908.137515	5
918.541105	5
919.630801	6
920.637990	5
928.525508	5
937.045690	4
943.396679	4
944.958842	5
955.735436	6
961.640745	22
962.243872	5
962.644390	18
967.140514	5
968.819017	4
970.810420	5
971.307800	12
971.805563	8
972.905429	5
981.074914	5
988.818808	5
1002.841952	6
1005.896902	6
1005.969235	133
1006.976678	28
1015.017667	4
1017.202307	5
1020.655751	6
1035.892978	5
1039.081326	5
1044.768237	5
1048.754441	5
1049.357871	5
1065.290790	5
1065.994028	7
1085.957359	5
1091.679516	5
1096.527189	5
1098.086091	5
1105.902895	5
1105.965432	147
1106.799766	4
1106.966746	28
1109.434099	6
1138.774579	4
1155.963226	9
1156.973735	5
1165.985321	135
1166.986407	30
1167.988784	9
1171.912692	6
1173.080816	5
1175.171101	5
1182.980837	13
1183.980805	7
1184.119362	6
1198.224223	6
1204.746981	5
1205.956640	66
1206.962121	19
1207.960927	6
1219.343784	5
1223.667009	6
1226.015660	6
1233.969956	20
1234.969683	8
1244.503103	5
1250.229467	7
1255.944988	25
1256.954705	7
1265.978062	289
1266.982865	56
1267.980333	10
1282.026110	5
1282.971940	57
1283.970969	11
1298.611096	4
1305.944986	15
1309.993492	5
1311.688171	5
1316.782959	5
1319.124225	5
1331.080706	5
1332.007868	5
1333.966349	31
1334.979463	6
1355.939238	8
1359.890952	5
1365.974981	157
1366.977040	46
1367.980202	7
1382.957032	32
1383.958384	7
1384.960825	7
1415.336581	4
1426.732303	5
1433.958002	28
1465.969084	89
1466.966411	25
1473.505972	6
1482.955151	24
1487.865651	5
