Mass spectrum: L-Cysteine Sulfinic acid; LC-ESI-ITFT; MS2; m/z:152.00; NEG
Name: 3-Sulfino-L-alanine
Name: L-Cysteinesulfinic acid
Name: 3-Sulphino-L-alanine
Name: 3-Sulfinoalanine
Name: L-Cysteine Sulfinic acid
Class: Natural Product
Formula: C3H7NO4S
Exact mass: 153.00958
SMILES: N[C@H](C(O)=O)CS(O)=O
InChI: InChI=1S/C3H7NO4S/c4-2(3(5)6)1-9(7)8/h2H,1,4H2,(H,5,6)(H,7,8)/t2-/m0/s1
Instrument: LTQ Orbitrap XL, Thermo Scientfic
Instrument type: LC-ESI-ITFT
Ms type: MS2
Ion mode: NEGATIVE
Collision energy: 35eV
Ionization: ESI
Column name: TOSOH TSKgel ODS-100V  5um Part no. 21456
Retention time: 6.708808 min
Base peak: 88.002296
Precursor m/z: 152.00
m/z	relative intensity
86.025543	2
88.002296	999
124.017471	1
