Mass spectrum: L-Tryptophan; LC-ESI-ITFT; MS; NEG
Name: L-Tryptophan
Name: Tryptophan
Name: (S)-alpha-Amino-beta-(3-indolyl)-propionic acid
Class: Natural Product
Formula: C11H12N2O2
Exact mass: 204.08988
SMILES: C1=CC=C2C(=C1)C(=CN2)C[C@@H](C(=O)O)N
InChI: InChI=1S/C11H12N2O2/c12-9(11(14)15)5-7-6-13-10-4-2-1-3-8(7)10/h1-4,6,9,13H,5,12H2,(H,14,15)/t9-/m0/s1
Instrument: LTQ Orbitrap XL, Thermo Scientfic
Instrument type: LC-ESI-ITFT
Ms type: MS
Ion mode: NEGATIVE
Collision energy: 35eV
Ionization: ESI
Column name: TOSOH TSKgel ODS-100V  5um Part no. 21456
Retention time: 13.922268 min
Base peak: 203.081894
m/z	relative intensity
100.517998	1
100.969237	1
101.732606	1
102.325103	1
103.364919	1
103.920296	3
105.117421	1
105.249081	1
106.172912	1
106.594574	1
110.371051	1
112.964549	1
112.981790	2
112.983832	6
112.985648	127
112.987463	5
112.989278	2
113.006525	1
113.621829	1
113.989058	1
114.951389	4
115.836871	1
116.046790	2
116.048680	5
116.050569	117
116.052223	5
116.054585	2
116.152437	1
116.323620	1
116.944506	1
117.045879	1
117.053774	7
117.597357	1
118.116111	1
118.293600	1
118.759736	1
121.710373	1
121.759602	1
125.961236	1
129.058007	1
130.066059	6
131.069239	1
131.734585	1
137.074984	1
138.108358	1
139.006578	2
140.252516	1
141.045727	1
142.060733	1
142.065852	33
142.068091	1
142.946173	2
143.069598	2
144.562930	1
145.890149	1
146.493603	1
146.781782	1
146.965735	2
148.952117	1
150.810251	1
151.550914	1
153.962463	1
154.973328	1
157.076841	6
158.278354	1
159.092598	10
159.675385	1
161.045036	3
170.944177	1
172.503198	1
174.838995	1
180.006931	1
180.166280	1
183.538130	1
184.505447	1
185.200602	1
186.055424	5
187.763475	1
196.634252	1
197.962578	5
202.369921	1
202.930759	2
203.022546	1
203.024185	1
203.031291	5
203.053702	2
203.062449	1
203.068463	4
203.070103	3
203.072836	15
203.074477	13
203.077757	30
203.082131	999
203.085959	33
203.090880	15
203.094708	3
203.096348	2
203.100176	2
203.101817	2
203.105645	2
203.110020	2
203.119864	1
203.120958	1
203.132444	5
203.233126	2
203.366754	1
204.076526	2
204.078729	5
204.080933	3
204.085339	99
204.089195	4
204.094704	1
205.082127	1
205.086011	2
205.088230	4
205.147617	1
208.785375	1
209.250676	1
210.998915	1
213.011529	2
213.074390	1
217.105983	1
220.965487	1
221.110150	1
225.053162	1
225.064007	30
225.516329	1
226.066955	2
226.977741	1
227.825161	1
228.013687	7
229.932309	1
230.193384	1
233.938884	1
237.014320	5
239.047211	1
239.052797	2
239.054892	1
239.058384	77
239.063971	2
239.070256	1
239.916134	1
240.061532	6
241.049794	1
241.055451	22
241.061108	1
242.059113	2
242.061959	1
245.585746	1
248.142463	1
248.938266	1
248.959787	15
249.087487	3
255.024957	2
257.000751	1
259.016920	10
261.040174	45
261.046549	1
262.043872	4
263.037249	10
264.041149	1
265.250658	1
266.077747	12
267.080977	1
268.653890	1
271.062624	2
271.069369	44
271.075272	1
272.073007	4
274.004507	3
275.011581	3
276.305147	1
282.530240	1
283.019861	5
284.022822	1
287.034501	4
288.059822	23
289.062788	1
290.109274	1
292.014678	1
292.744811	1
292.977744	5
293.051658	1
293.985575	2
294.974685	1
295.978416	1
295.983227	1
300.110811	1
301.030345	1
303.006662	9
303.229005	1
304.013643	6
305.017601	1
311.014436	3
315.095620	3
317.074645	18
318.077588	2
318.995935	1
319.050840	4
323.030536	2
325.183485	2
326.022667	1
327.029287	2
328.953964	8
329.024989	14
330.017238	2
330.028566	1
330.951412	5
331.021948	1
333.039439	2
336.333967	1
336.947782	1
337.360658	1
337.796578	1
338.945487	1
339.056336	8
340.041026	6
341.043100	1
344.978562	1
345.274131	1
347.032339	2
348.971455	1
349.012103	2
351.693203	1
354.009844	1
355.040215	2
357.020166	5
358.022758	1
360.996387	1
365.134296	1
366.686794	1
385.595824	1
387.116682	2
387.652551	1
388.073958	1
389.996284	1
390.015201	1
402.247209	1
407.132115	1
407.146083	3
407.158501	9
407.170919	341
407.183337	8
407.197309	4
407.239227	1
407.313765	1
408.156845	1
408.175541	70
408.186447	2
408.203587	1
408.206703	1
409.179194	7
409.846174	1
417.993310	1
423.088167	1
427.061964	6
428.997695	1
429.078286	1
429.126987	3
429.140424	11
429.153861	363
429.165619	8
429.182416	3
429.308431	1
430.129725	1
430.144893	2
430.156692	75
430.170177	2
431.129214	22
431.159658	5
432.132191	6
433.012670	1
435.018184	2
436.354907	1
440.702741	1
443.147713	13
444.150500	4
445.119434	5
445.126531	5
445.144275	3
446.130706	1
451.135928	9
451.724869	1
452.138722	3
452.693231	1
459.094835	2
461.089880	40
462.092283	5
462.099790	16
462.114805	1
463.092311	2
463.101725	5
465.130556	2
465.862985	1
467.104078	3
468.101293	2
469.084429	1
469.097865	29
470.101475	6
470.166956	1
471.096717	1
475.146637	1
477.135085	2
477.148869	1
478.138931	1
483.577465	1
487.112653	6
488.115566	2
489.109317	2
491.124449	7
492.127406	3
495.071523	1
496.059464	2
497.067115	39
497.140404	7
498.071538	7
498.142949	1
498.664294	1
499.064265	9
499.076903	1
500.068413	3
501.084071	1
502.094323	2
505.061981	3
505.074848	2
506.088595	3
506.656938	1
507.057936	2
507.073037	1
507.096768	16
508.099301	4
509.104810	1
513.108527	1
514.106925	1
515.103823	17
516.105838	2
516.826526	1
517.101894	2
518.823474	1
519.049050	1
521.160043	4
523.141491	4
524.085449	1
528.320301	1
529.096623	1
534.105381	1
537.300587	1
537.587772	1
541.120979	2
541.218497	1
542.619953	1
544.216300	1
545.350209	1
546.215027	1
547.217313	1
548.098699	5
549.103745	1
550.113996	1
555.264169	2
558.050681	1
559.113209	1
563.300345	3
565.085314	2
565.128460	2
571.290322	1
575.083355	3
576.090412	1
576.111312	1
582.008255	1
583.089424	2
584.096257	1
588.322287	1
592.256537	1
611.259972	33
612.263389	12
613.266408	2
633.244195	12
634.232839	1
634.247927	4
635.217750	4
636.223148	2
637.039514	1
637.106349	1
649.207119	11
650.211467	2
655.223976	38
656.229620	12
657.234398	2
662.177161	1
663.185954	6
664.174417	15
664.193821	1
665.155369	1
665.181298	94
665.207229	1
665.985854	1
666.157985	1
666.183973	30
667.179148	3
667.188916	3
668.183082	1
668.614033	1
669.176201	1
671.192090	3
672.191928	4
673.187402	43
674.191703	15
675.168422	1
675.181680	1
675.194939	3
677.168187	1
677.208140	1
677.421281	1
680.556705	1
681.224695	8
682.226842	3
683.234577	1
686.155743	1
687.161989	4
691.198887	1
694.617299	1
695.171030	1
700.149541	3
702.145385	1
706.180488	1
709.143158	1
710.178956	3
711.177609	2
713.184843	3
713.350396	2
714.352141	1
717.195857	1
721.841336	1
722.710504	1
723.140166	2
723.213651	3
725.135573	1
725.249951	2
731.145454	1
733.166609	4
739.364170	1
741.175478	2
765.685191	1
776.817136	1
791.203969	1
815.704368	1
819.910789	1
827.836516	1
837.331535	1
839.308015	19
840.310385	11
840.701704	1
841.314552	2
853.299035	1
856.197886	1
859.316142	7
860.321206	3
866.268345	2
867.271158	1
868.212877	1
868.261211	49
869.267487	24
870.270663	6
871.270718	1
871.431081	1
872.433137	1
875.278439	4
876.282239	2
877.277949	1
878.285192	1
879.530671	1
881.297580	12
882.301853	6
883.302884	1
890.242610	1
891.252162	15
892.253362	8
893.029317	1
893.256249	2
897.274599	1
898.265620	1
899.258285	8
900.262802	3
905.980119	4
906.980441	1
913.231053	2
913.742241	1
917.752680	1
926.220535	1
926.470891	1
933.026716	1
935.519319	1
936.249563	1
937.126985	1
937.370932	1
937.793999	1
939.249801	1
940.262164	1
943.445952	1
948.580373	1
949.215452	1
949.585749	1
950.216305	1
959.233902	1
960.245024	1
967.248489	1
977.704708	1
978.554304	1
979.451337	1
1005.921012	1
1005.969235	16
1006.970641	2
1035.131217	1
1037.557925	1
1042.417935	1
1044.557724	1
1050.752885	1
1054.404613	1
1064.411082	1
1065.402473	1
1065.994028	1
1066.520268	1
1067.514608	1
1070.049535	1
1073.443507	1
1077.421363	1
1081.683452	1
1085.146476	1
1085.382890	2
1094.335251	3
1095.341356	3
1099.579428	1
1101.351978	2
1105.902895	1
1105.965432	17
1106.869336	1
1106.966746	4
1107.370437	3
1108.373661	2
1108.568891	1
1116.314862	1
1117.323211	5
1118.325862	4
1120.328132	1
1125.332432	4
1126.338744	2
1127.818542	1
1133.976184	1
1136.295594	1
1139.304769	1
1143.471987	1
1157.271196	1
1160.311861	1
1161.851654	1
1165.985321	16
1166.986407	4
1167.988784	1
1169.000004	1
1175.277665	1
1177.099101	1
1188.627996	1
1198.780790	1
1205.695580	1
1205.909169	1
1205.964553	9
1206.962121	2
1222.236838	1
1227.980748	1
1233.969956	4
1250.129250	1
1250.630454	1
1255.944988	2
1261.217305	1
1265.978062	29
1266.982865	8
1267.980333	1
1282.963258	1
1283.970969	1
1296.818157	1
1305.944986	2
1317.803671	1
1322.416135	1
1327.427407	1
1333.966349	8
1334.961032	1
1337.378688	1
1338.358690	1
1339.376813	1
1342.280199	1
1343.405125	2
1344.391759	2
1351.413208	1
1353.348812	1
1361.360692	1
1365.974981	19
1366.977040	6
1367.875057	1
1380.880024	1
1425.104646	1
1425.724862	1
1433.958002	8
1434.963914	2
1449.419141	1
1452.489071	1
1452.593662	1
1461.789286	1
1461.831523	1
1464.167989	1
1465.969084	8
1466.966411	3
1467.954130	1
1482.955151	1
1487.768069	1
