Mass spectrum: Spermidine; LC-ESI-ITFT; MS2; m/z:146.17; POS
Name: Spermidine
Name: N-(3-Aminopropyl)-1,4-butane-diamine
Class: Natural Product
Formula: C7H19N3
Exact mass: 145.15790
SMILES: NCCCCNCCCN
InChI: InChI=1S/C7H19N3/c8-4-1-2-6-10-7-3-5-9/h10H,1-9H2
Instrument: LTQ Orbitrap XL, Thermo Scientfic
Instrument type: LC-ESI-ITFT
Ms type: MS2
Ion mode: POSITIVE
Collision energy: 35eV
Ionization: ESI
Column name: TOSOH TSKgel ODS-100V  5um Part no. 21456
Retention time: 3.363952 min
Base peak: 129.128494
Precursor m/z: 146.17
m/z	relative intensity
57.951824	54
71.985756	654
75.025009	277
83.896774	1
88.971863	1
112.020737	239
112.620773	1
127.165894	1
129.128494	999
136.990128	1
137.632858	1
