Mass spectrum: L-Glutamic acid; LC-ESI-ITFT; MS; NEG
Name: L-Glutamate
Name: L-Glutamic acid
Name: L-Glutaminic acid
Class: Natural Product
Formula: C5H9NO4
Exact mass: 147.05316
SMILES: OC(=O)CC[C@H](N)C(O)=O
InChI: InChI=1S/C5H9NO4/c6-3(5(9)10)1-2-4(7)8/h3H,1-2,6H2,(H,7,8)(H,9,10)/t3-/m0/s1
Instrument: LTQ Orbitrap XL, Thermo Scientfic
Instrument type: LC-ESI-ITFT
Ms type: MS
Ion mode: NEGATIVE
Collision energy: 35eV
Ionization: ESI
Column name: TOSOH TSKgel ODS-100V  5um Part no. 21456
Retention time: 4.833052 min
Base peak: 124.007271
m/z	relative intensity
100.040469	1
100.848393	1
101.567057	1
102.052065	2
102.052649	1
102.054402	4
102.055181	2
102.056155	82
102.057909	3
102.059467	1
102.156350	1
102.263139	1
103.059242	2
103.920496	1
105.943856	1
106.974842	1
106.980695	2
110.021807	1
111.070344	1
111.724301	1
112.985648	8
113.966069	1
114.951622	1
119.108447	1
119.558415	1
120.186245	1
120.816775	1
121.155189	1
121.991688	1
122.846139	1
123.768892	1
123.887083	1
123.935033	3
123.938682	1
123.956671	1
123.963972	1
123.983271	5
123.985358	1
123.986662	1
123.989270	1
123.990313	1
123.991096	1
123.992400	1
123.993183	1
123.993705	1
123.994487	1
123.996052	1
123.996574	1
123.998400	2
123.999183	2
123.999704	2
124.000487	3
124.002835	14
124.005183	39
124.005966	23
124.007270	999
124.009618	39
124.011706	11
124.013010	2
124.014054	3
124.015358	2
124.016402	2
124.017707	1
124.018229	1
124.019794	1
124.023187	2
124.025013	1
124.025796	1
124.029189	1
124.031276	5
124.034930	1
124.057900	1
124.079310	2
124.120839	1
124.127371	1
124.445696	1
125.004135	1
125.006247	2
125.010472	9
125.996767	1
126.002913	24
126.005318	1
126.011197	2
126.798170	1
127.508984	1
128.030422	1
128.031243	1
128.035075	23
129.038066	1
129.308502	1
129.764753	1
136.574852	1
138.410282	1
139.006887	3
139.093627	1
139.760816	1
139.891704	1
144.024569	1
144.564244	1
144.734172	1
145.953425	1
146.014741	2
146.017408	1
146.024742	1
146.025742	1
146.034077	1
146.035744	1
146.036745	2
146.039746	9
146.041413	8
146.042747	22
146.043747	11
146.045414	604
146.048415	22
146.051083	6
146.054084	2
146.055752	1
146.057086	1
146.061421	1
146.065757	1
146.076097	3
146.137490	1
147.042512	1
147.043522	2
147.045880	1
147.048912	27
147.051944	1
148.049515	3
148.051897	1
148.952117	1
149.394787	1
149.812753	1
151.756268	1
153.645335	1
153.772068	1
154.670879	1
157.990568	1
158.711132	1
158.858938	1
159.732200	1
159.893276	1
161.421001	1
161.967171	1
162.119550	1
163.078087	1
164.417736	1
168.027466	2
169.464948	1
174.917641	1
178.167721	1
179.977276	4
181.145716	1
181.974906	1
183.969674	1
184.314304	1
188.013575	3
192.928345	1
195.706622	1
195.936488	1
196.445806	1
198.613547	1
199.964685	2
200.465131	1
202.668309	1
205.977282	1
206.636786	1
207.361505	1
207.972131	7
209.040955	1
209.968507	1
210.302301	1
210.448730	1
216.008379	1
216.967646	1
217.193039	1
220.287530	1
220.467395	1
220.886076	1
221.974246	8
225.982852	3
227.983117	1
231.006480	1
231.218232	1
243.956421	1
244.012583	1
244.022665	1
244.268436	1
245.175437	1
248.217808	1
248.815871	1
248.953107	2
248.974631	1
249.001353	1
249.003580	1
249.008034	6
249.015458	17
249.021397	620
249.028079	18
249.031049	3
249.034019	4
249.036989	1
249.039959	2
249.043672	1
249.047384	1
249.071148	1
249.089715	2
249.226435	1
250.020740	6
250.024474	19
250.941221	1
251.010331	1
251.012585	1
251.017093	42
251.021601	1
251.025358	5
251.108034	1
252.020170	1
252.680596	1
252.895490	1
253.012543	1
253.238519	1
255.929141	1
257.405998	1
258.977546	2
259.021646	2
260.037479	1
264.020074	1
265.990848	2
267.970510	1
269.896107	1
270.996027	1
271.003613	60
271.008670	1
271.011199	1
271.044919	1
271.052507	2
271.055879	2
271.060095	100
271.067683	3
272.002648	1
272.006886	2
272.062833	4
272.998695	3
273.008069	1
273.055801	3
275.015889	1
279.981565	4
280.859882	3
280.988871	2
281.035151	1
285.017488	1
285.949772	3
286.972954	1
286.977547	3
287.707297	1
289.297846	1
293.028912	2
293.041233	9
293.090522	2
293.098106	96
293.104742	2
293.107587	2
294.044629	1
294.101795	7
295.016804	1
298.870154	1
299.039103	1
299.045942	1
302.019549	2
303.959570	1
306.875891	2
306.968336	5
307.970640	1
309.006593	8
309.485381	1
310.301673	1
310.948125	1
310.995784	1
311.924199	1
314.976243	4
315.023774	2
315.079769	5
317.056512	35
318.059369	4
319.004547	1
322.983375	2
324.968662	1
324.978623	43
324.988585	1
325.183485	1
325.982632	3
326.932101	1
326.979013	2
327.999047	1
329.006949	2
329.879095	1
330.502560	1
330.991228	1
331.044706	6
331.991249	1
332.986625	14
333.991096	1
337.014399	3
337.062329	1
339.011518	1
339.197924	1
344.608426	1
345.022147	1
346.009853	9
346.988373	1
347.017683	13
347.946524	1
348.021336	2
349.018262	1
349.847571	1
350.029376	1
350.423155	1
353.026556	1
355.011146	1
355.025048	5
360.884969	1
368.999351	2
371.570552	1
373.997852	1
374.019717	1
374.023817	1
374.036117	48
374.044317	1
374.048418	1
375.038550	3
376.031241	5
376.039507	1
377.005750	1
378.027095	1
378.896485	11
379.588570	1
379.932525	1
381.412931	1
381.938406	1
386.015315	1
391.005166	1
396.004543	1
396.017943	10
396.074529	3
397.020403	1
398.013173	2
398.552290	1
400.669745	1
401.117116	1
402.009540	1
402.142060	1
408.010441	1
410.963011	1
411.983289	4
416.793048	1
417.999768	2
418.976698	1
420.031862	9
421.035515	1
425.960285	1
426.021747	5
427.955419	25
429.951129	3
433.002456	2
433.989775	1
434.022231	4
434.701230	1
435.124484	1
435.962531	6
437.959158	1
439.600133	1
440.013125	1
440.573424	1
442.071040	8
443.073698	1
446.932924	1
446.990053	1
448.985705	9
449.993957	5
456.060211	2
458.002150	3
464.052146	1
464.108811	1
464.320451	1
470.917109	1
471.023316	2
471.974992	1
472.002114	3
472.031177	2
489.174721	1
489.923713	1
489.940104	65
490.943544	5
491.943884	1
493.984874	1
494.015990	1
499.007397	1
499.032671	3
499.049520	113
499.064265	2
499.070584	2
500.053624	8
500.518730	1
501.003552	1
501.045928	17
502.049689	1
503.041548	1
505.935909	1
506.952251	2
507.740295	1
507.950029	17
508.955095	1
509.954443	1
517.488668	1
518.027318	1
521.031942	11
521.088121	31
522.082864	1
522.091880	2
523.028478	2
523.084980	4
525.949142	1
529.946101	2
532.880823	1
533.890895	1
535.945460	1
536.999527	1
543.014197	1
543.071577	4
543.126575	2
545.047166	2
551.963987	1
552.969861	4
557.025950	1
558.898464	2
560.976184	1
567.085385	2
572.235701	1
573.998384	2
574.950495	2
575.364856	1
580.007955	1
580.029068	1
581.091492	1
585.927465	5
587.089448	1
589.067096	1
590.748096	1
594.087982	1
596.037890	1
596.990265	1
597.015068	1
597.279731	1
597.978074	1
599.331312	1
614.954158	16
615.958023	1
620.018584	3
622.581628	1
622.925155	1
624.010450	1
624.039902	1
624.063464	50
625.069059	3
626.059328	9
628.055860	1
628.928064	1
632.552317	1
636.044303	1
636.990913	31
637.997481	4
638.997281	1
646.046642	4
646.102489	4
647.046772	1
648.042992	1
658.975948	3
668.085197	1
668.140662	2
676.995100	1
677.984589	2
678.959538	1
690.125532	1
692.099278	1
693.629152	1
705.950088	1
708.031310	1
721.054205	1
722.031905	1
722.061230	1
730.067194	1
739.968468	1
742.068353	2
749.006375	1
749.029612	1
749.079964	17
750.080304	3
751.020429	1
751.074871	4
751.339385	1
762.007804	8
763.010268	1
766.001519	1
766.105670	1
771.061229	3
771.117864	7
772.118097	1
773.055300	1
773.116216	1
774.727015	1
775.053040	1
781.637642	1
783.988008	1
784.046073	4
784.149778	2
786.249016	1
793.044622	1
793.099476	1
793.154337	4
794.155481	1
800.112544	1
802.998006	2
804.172935	1
805.138906	1
807.995211	1
808.116724	1
815.194034	2
815.924487	1
816.197558	1
817.114672	1
829.088950	1
829.111502	1
837.175915	1
837.235412	2
846.069492	1
852.677752	1
854.166199	1
855.081924	1
856.089031	1
869.180336	1
873.412538	1
874.007805	1
874.095683	7
875.097449	2
876.091139	1
877.086524	1
887.019552	5
888.023625	1
896.077400	1
896.133149	1
900.242389	1
905.980119	2
909.058555	3
911.065882	1
918.173047	1
927.670812	1
932.155045	1
932.768316	1
940.213141	2
941.205241	1
946.321357	1
951.229826	1
962.243872	1
973.593793	1
973.760258	1
983.879256	1
984.287525	1
999.108423	3
1003.514287	1
1005.969235	7
1006.976678	2
1013.687089	1
1024.690516	1
1025.751046	1
1065.225103	1
1071.664964	1
1083.049161	1
1089.019857	1
1105.965432	8
1106.966746	2
1126.124522	1
1126.288753	1
1131.340278	1
1142.019613	1
1153.376129	1
1164.932936	1
1165.985321	7
1166.993939	1
1177.595203	1
1183.826881	1
1198.694536	1
1205.956640	3
1265.978062	14
1266.982865	2
1267.988864	1
1280.778177	1
1282.971940	2
1283.458278	1
1284.692732	1
1285.371571	1
1304.386018	1
1305.953902	1
1309.491995	1
1318.617476	1
1323.143282	1
1326.358990	1
1333.966349	2
1335.431131	1
1355.939238	1
1359.256382	1
1365.974981	11
1366.977040	3
1382.957032	2
1429.812114	1
1433.958002	1
1434.963914	1
1444.988115	1
1462.761210	1
1465.969084	5
1466.955795	1
1467.380494	1
1477.832757	1
1481.736712	1
1482.933573	1
