Mass spectrum: L-Histidine; LC-ESI-ITFT; MS; POS
Name: L-Histidine
Name: (S)-alpha-Amino-1H-imidazole-4-propionic acid
Class: Natural Product
Formula: C6H9N3O2
Exact mass: 155.06948
SMILES: C1=C(NC=N1)C[C@@H](C(=O)O)N
InChI: InChI=1S/C6H9N3O2/c7-5(6(10)11)1-4-2-8-3-9-4/h2-3,5H,1,7H2,(H,8,9)(H,10,11)/t5-/m0/s1
Instrument: LTQ Orbitrap XL, Thermo Scientfic
Instrument type: LC-ESI-ITFT
Ms type: MS
Ion mode: POSITIVE
Collision energy: 35eV
Ionization: ESI
Column name: TOSOH TSKgel ODS-100V  5um Part no. 21456
Retention time: 4.003408 min
Base peak: 156.076691
m/z	relative intensity
100.111848	2
102.033553	1
102.114976	1
110.019746	1
110.069243	1
110.070988	42
111.074410	1
129.138290	2
130.086202	14
137.132609	1
139.982008	1
141.958490	3
147.081737	1
147.104314	1
147.107010	1
147.108358	1
147.110043	3
147.111054	3
147.112739	200
147.114761	2
147.115773	2
147.116784	1
147.118469	1
147.121840	1
147.143751	1
148.116133	12
149.023248	4
155.143986	1
155.512566	1
155.890549	1
155.975141	1
156.014518	1
156.042496	3
156.056488	1
156.058697	1
156.059434	1
156.060907	1
156.062380	1
156.063853	2
156.065326	1
156.066062	1
156.067167	3
156.070482	3
156.071955	2
156.073796	12
156.076743	999
156.078952	10
156.080057	10
156.081162	3
156.083004	4
156.084477	2
156.085582	2
156.086687	3
156.087792	1
156.088897	1
156.091844	1
156.093317	1
156.094791	1
156.096264	1
156.097001	1
156.110632	3
156.138636	1
156.174388	1
156.178443	1
156.263270	1
156.643995	1
157.073697	6
157.076672	1
157.077788	1
157.079647	61
157.082994	1
158.002177	9
158.080235	2
158.095628	1
158.960490	1
158.963139	1
163.132671	2
168.076326	1
169.094656	4
170.096285	1
171.137707	1
171.149125	22
172.152452	1
173.078147	2
174.127584	13
175.111726	1
175.115227	2
175.118729	158
175.121793	1
175.122669	1
175.126608	1
175.129672	1
176.115712	1
176.121892	8
178.055032	1
178.058622	70
178.061315	1
178.062661	1
179.061842	2
179.063200	2
182.984796	7
185.114619	15
186.117703	1
186.955984	1
187.126060	3
190.992536	1
191.076322	1
193.130714	14
197.100555	2
199.028604	1
199.179842	2
200.040124	11
201.992051	8
203.222581	19
204.225483	1
217.104082	2
221.161245	1
223.063237	6
226.040214	1
255.155987	2
256.001063	1
268.027107	1
270.029095	1
279.157671	1
299.181639	2
302.182340	12
303.183969	1
311.146021	18
312.147786	1
324.162161	1
327.176029	1
330.186790	1
333.127873	15
334.129275	1
336.014171	1
343.208159	1
352.168572	1
355.107882	2
368.126522	1
377.090771	2
391.282894	18
392.286254	2
413.265143	27
414.268274	4
426.356690	1
429.237976	1
436.339497	1
510.175772	1
532.157291	1
546.349949	1
554.139068	1
803.539991	1
