Mass spectrum: Hypotaurine; LC-ESI-ITFT; MS; POS
Name: Hypotaurine
Name: 2-Aminoethanesulfinic acid
Class: Natural Product
Formula: C2H7NO2S
Exact mass: 109.01975
SMILES: NCCS(O)=O
InChI: InChI=1S/C2H7NO2S/c3-1-2-6(4)5/h1-3H2,(H,4,5)
Instrument: LTQ Orbitrap XL, Thermo Scientfic
Instrument type: LC-ESI-ITFT
Ms type: MS
Ion mode: POSITIVE
Collision energy: 35eV
Ionization: ESI
Column name: TOSOH TSKgel ODS-100V  5um Part no. 21456
Retention time: 4.783248 min
Base peak: 126.022133
m/z	relative intensity
100.112037	18
101.096083	2
102.033943	9
102.091396	1
103.001301	2
107.070414	1
108.011578	4
109.966798	1
110.006887	1
110.021054	2
110.021926	1
110.023452	2
110.024106	1
110.025414	4
110.026940	330
110.028248	4
110.028684	5
110.029556	1
110.030646	2
110.031736	1
110.032390	1
110.047216	1
110.087349	1
110.987342	2
111.020036	1
111.026222	1
111.030200	4
112.006484	1
112.022607	7
113.059707	1
113.963604	1
115.111773	1
115.525791	9
123.055601	2
123.515063	21
124.513092	1
125.612567	1
125.885843	1
125.948294	2
125.976599	1
125.997433	4
126.003044	1
126.007853	1
126.008654	1
126.009456	1
126.011593	1
126.012395	2
126.013731	2
126.015868	2
126.017739	7
126.018540	3
126.020143	12
126.022014	999
126.024152	16
126.025221	4
126.026557	6
126.027893	2
126.028962	1
126.029496	1
126.030031	2
126.031100	1
126.031902	2
126.033238	1
126.034841	1
126.035376	1
126.037514	1
126.038583	1
126.046869	3
126.067721	1
126.093124	1
126.096066	2
126.158673	1
126.433734	1
127.018732	1
127.021166	4
127.025222	16
128.016378	1
128.017746	37
128.019935	1
128.025680	2
128.106709	2
129.127203	2
130.491827	1
130.502808	1
131.002381	1
131.499416	1
131.500840	40
131.502549	1
132.002435	1
132.065480	2
132.498840	1
132.501144	1
132.519872	2
133.079496	3
133.097186	3
133.498629	1
135.504745	3
136.021654	1
136.061816	2
137.132609	13
139.982008	2
140.505895	1
141.958490	5
143.048712	17
144.028049	1
144.995710	3
148.001455	1
148.004176	48
148.006557	1
149.023248	14
151.096379	1
152.014058	2
152.981573	1
155.143256	11
156.985609	1
157.520106	4
158.002927	7
158.096379	5
158.961247	2
159.112778	1
163.133065	36
163.977759	1
164.136521	1
165.508635	8
167.033727	1
167.048408	2
167.977179	1
170.096704	10
171.079788	4
171.138553	5
171.142782	1
171.146165	1
171.149548	147
171.152932	2
171.156738	1
172.152452	11
172.996459	1
173.078147	1
173.494795	12
174.124546	1
174.125848	1
174.128018	60
174.131490	1
174.493159	1
175.089843	2
175.119167	5
175.130986	3
176.102910	1
177.069150	4
177.498961	1
178.035287	2
179.063653	12
180.159404	3
182.985263	8
185.114144	1
186.185345	3
186.955984	2
187.126544	48
187.130412	1
188.129475	2
189.121821	1
190.993035	2
194.117473	1
195.122625	2
199.180373	20
199.514238	1
200.508014	1
207.027405	1
207.502535	1
207.984401	1
208.190213	1
215.488995	2
216.206580	1
217.104686	1
219.046304	1
220.111991	5
220.967545	2
221.114659	1
222.112313	1
223.063867	11
224.127351	1
226.159014	1
228.231451	1
233.174638	6
235.031099	1
235.036543	1
235.038585	2
235.041988	127
235.046072	1
235.047434	1
235.053560	1
236.045039	2
236.938060	1
237.011788	1
237.037291	6
237.969926	1
244.238013	1
246.985514	1
250.967191	1
251.019767	1
251.025025	1
251.027279	1
251.031035	3
251.037045	285
251.043056	3
251.046061	1
251.049818	1
251.106178	1
252.035461	2
252.039996	6
253.032242	18
253.039845	1
255.045935	2
255.155987	1
262.020700	1
263.015313	1
270.002276	1
270.008981	1
272.151942	1
273.018151	3
273.021559	1
277.002123	1
277.199902	2
277.995764	1
279.158552	3
282.221186	4
282.224768	1
294.226753	1
299.181639	1
303.946219	1
304.954627	1
312.962934	1
315.946760	1
321.225628	1
322.259021	1
332.515447	1
338.252048	1
340.502862	1
342.191999	1
343.208159	1
345.981074	1
360.055600	16
362.051191	1
370.982012	1
376.051424	45
377.053429	1
378.045560	3
391.277046	1
391.284356	75
391.293128	1
391.296052	1
392.286254	11
392.293592	1
393.289058	1
395.022840	1
398.031039	2
403.009019	1
403.015131	1
404.024099	3
413.265143	1
426.356690	1
427.376183	1
429.969597	1
436.341219	2
437.343196	1
437.976163	1
473.986396	1
485.070869	8
487.064641	1
500.302595	11
501.064400	13
501.303881	2
501.312361	1
502.067974	1
503.059648	2
523.047253	1
529.038411	2
610.082882	2
626.076591	2
735.098467	1
751.094560	1
