Mass spectrum: Anthranilic acid; LC-ESI-ITFT; MS2; m/z:139.06; POS
Name: Anthranilate
Name: Anthranilic acid
Name: o-Aminobenzoic acid
Name: Vitamin L1
Name: 2-Aminobenzoate
Class: Natural Product
Formula: C7H7NO2
Exact mass: 137.04768
SMILES: OC(=O)c(c1)c(N)ccc1
InChI: InChI=1S/C7H7NO2/c8-6-4-2-1-3-5(6)7(9)10/h1-4H,8H2,(H,9,10)
Instrument: LTQ Orbitrap XL, Thermo Scientfic
Instrument type: LC-ESI-ITFT
Ms type: MS2
Ion mode: POSITIVE
Collision energy: 35eV
Ionization: ESI
Column name: TOSOH TSKgel ODS-100V  5um Part no. 21456
Retention time: 22.701185 min
Base peak: 120.992050
Precursor m/z: 139.06
m/z	relative intensity
120.992050	999
