Mass spectrum: S-Adenosyl-L-homocysteine; LC-ESI-ITFT; MS2; m/z:383.11; NEG
Name: S-Adenosyl-L-homocysteine
Name: S-Adenosylhomocysteine
Class: Natural Product
Formula: C14H20N6O5S
Exact mass: 384.12159
SMILES: OC(=O)[C@@H](N)CCSC[C@@H](O1)[C@@H](O)[C@@H](O)[C@@H]1n(c3)c(n2)c(n3)c(N)nc2
InChI: InChI=1S/C14H20N6O5S/c15-6(14(23)24)1-2-26-3-7-9(21)10(22)13(25-7)20-5-19-8-11(16)17-4-18-12(8)20/h4-7,9-10,13,21-22H,1-3,15H2,(H,23,24)(H2,16,17,18)/t6-,7+,9+,10+,13+/m0/s1
Instrument: LTQ Orbitrap XL, Thermo Scientfic
Instrument type: LC-ESI-ITFT
Ms type: MS2
Ion mode: NEGATIVE
Collision energy: 35eV
Ionization: ESI
Column name: TOSOH TSKgel ODS-100V  5um Part no. 21456
Retention time: 5.468507 min
Base peak: 133.993027
Precursor m/z: 383.11
m/z	relative intensity
113.034546	1
116.071579	3
124.185822	2
126.106400	7
129.043701	35
130.043869	1
131.122223	2
132.134125	4
133.993027	999
142.186295	2
144.026566	10
146.903534	2
148.234909	1
154.110031	14
158.013947	5
168.074036	1
170.020966	1
176.035339	94
187.965820	264
201.842499	1
230.385010	1
248.165405	193
282.047089	26
