Mass spectrum: L-Glutamine; LC-ESI-ITFT; MS2; m/z:130.05; POS
Name: L-Glutamine
Name: L-2-Aminoglutaramic acid
Class: Natural Product
Formula: C5H10N2O3
Exact mass: 146.06914
SMILES: NC(=O)CC[C@H](N)C(O)=O
InChI: InChI=1S/C5H10N2O3/c6-3(5(9)10)1-2-4(7)8/h3H,1-2,6H2,(H2,7,8)(H,9,10)/t3-/m0/s1
Instrument: LTQ Orbitrap XL, Thermo Scientfic
Instrument type: LC-ESI-ITFT
Ms type: MS2
Ion mode: POSITIVE
Collision energy: 35eV
Ionization: ESI
Column name: TOSOH TSKgel ODS-100V  5um Part no. 21456
Retention time: 4.689653 min
Base peak: 83.968094
Precursor m/z: 130.05
m/z	relative intensity
56.012260	1
69.109810	1
74.151398	1
83.968094	999
84.935852	26
86.007385	1
87.082260	1
101.991257	92
112.108597	4
113.032028	1
