Mass spectrum: 4-Aminobutanoic acid; LC-ESI-ITFT; MS2; m/z:104.07; POS
Name: 4-Aminobutanoate
Name: 4-Aminobutanoic acid
Name: 4-Aminobutyrate
Name: 4-Aminobutyric acid
Name: gamma-Aminobutyric acid
Class: Natural Product
Formula: C4H9NO2
Exact mass: 103.06333
SMILES: NCCCC(O)=O
InChI: InChI=1S/C4H9NO2/c5-3-1-2-4(6)7/h1-3,5H2,(H,6,7)
Instrument: LTQ Orbitrap XL, Thermo Scientfic
Instrument type: LC-ESI-ITFT
Ms type: MS2
Ion mode: POSITIVE
Collision energy: 35eV
Ionization: ESI
Column name: TOSOH TSKgel ODS-100V  5um Part no. 21456
Retention time: 4.462170 min
Base peak: 86.952545
Precursor m/z: 104.07
m/z	relative intensity
69.096375	1
86.018677	369
86.952545	999
