Mass spectrum: NADP+; LC-ESI-ITFT; MS2; m/z:744.08; POS
Name: NADP+
Name: NADP
Name: Nicotinamide adenine dinucleotide phosphate
Name: beta-Nicotinamide adenine dinucleotide phosphate
Name: TPN
Name: Triphosphopyridine nucleotide
Class: Natural Product
Formula: [C21H29N7O17P3]+
Exact mass: 744.08328
SMILES: NC(=O)c(c5)c[n+1](cc5)[C@H](O1)[C@H](O)[C@H](O)[C@@H](COP(O)(=O)OP(O)(=O)OC[C@@H](O2)[C@@H](O)[C@@H](OP(O)(O)=O)[C@@H]2n(c3)c(n4)c(c(N)nc4)n3)1
InChI: InChI=1S/C21H28N7O17P3/c22-17-12-19(25-7-24-17)28(8-26-12)21-16(44-46(33,34)35)14(30)11(43-21)6-41-48(38,39)45-47(36,37)40-5-10-13(29)15(31)20(42-10)27-3-1-2-9(4-27)18(23)32/h1-4,7-8,10-11,13-16,20-21,29-31H,5-6H2,(H7-,22,23,24,25,32,33,34,35,36,37,38,39)/p+1/t10-,11-,13-,14-,15-,16-,20-,21-/m1/s1
Instrument: LTQ Orbitrap XL, Thermo Scientfic
Instrument type: LC-ESI-ITFT
Ms type: MS2
Ion mode: POSITIVE
Collision energy: 35eV
Ionization: ESI
Column name: TOSOH TSKgel ODS-100V  5um Part no. 21456
Retention time: 8.873388 min
Base peak: 604.119385
Precursor m/z: 744.08
m/z	relative intensity
214.325485	1
232.158447	7
312.235474	2
330.110046	5
371.190857	1
408.182617	1
410.144287	33
428.196960	2
469.024292	4
490.137573	89
506.262390	6
508.105591	19
524.291626	1
585.934265	5
604.119385	999
604.774841	3
609.083740	1
621.994080	408
622.678406	1
726.070435	7
