Mass spectrum: Hypoxanthine; LC-ESI-ITFT; MS2; m/z:135.03; NEG
Name: Hypoxanthine
Name: Purine-6-ol
Class: Natural Product
Formula: C5H4N4O
Exact mass: 136.03851
SMILES: C1=NC2=C(N1)C(=O)N=CN2
InChI: InChI=1S/C5H4N4O/c10-5-3-4(7-1-6-3)8-2-9-5/h1-2H,(H2,6,7,8,9,10)
Instrument: LTQ Orbitrap XL, Thermo Scientfic
Instrument type: LC-ESI-ITFT
Ms type: MS2
Ion mode: NEGATIVE
Collision energy: 35eV
Ionization: ESI
Column name: TOSOH TSKgel ODS-100V  5um Part no. 21456
Retention time: 5.494925 min
Base peak: 91.961517
Precursor m/z: 135.03
m/z	relative intensity
91.961517	999
117.132370	20
