Mass spectrum: Succinic acid; LC-ESI-ITFT; MS; NEG
Name: Succinate
Name: Succinic acid
Name: Butanedionic acid
Name: Ethylenesuccinic acid
Class: Natural Product
Formula: C4H6O4
Exact mass: 118.02661
SMILES: OC(=O)CCC(O)=O
InChI: InChI=1S/C4H6O4/c5-3(6)1-2-4(7)8/h1-2H2,(H,5,6)(H,7,8)
Instrument: LTQ Orbitrap XL, Thermo Scientfic
Instrument type: LC-ESI-ITFT
Ms type: MS
Ion mode: NEGATIVE
Collision energy: 35eV
Ionization: ESI
Column name: TOSOH TSKgel ODS-100V  5um Part no. 21456
Retention time: 10.234025 min
Base peak: 112.985634
m/z	relative intensity
100.331856	3
100.434655	4
100.909075	2
102.735243	2
103.267502	3
103.920296	7
103.976361	4
106.119812	3
106.175806	3
107.776589	3
108.036224	3
109.376667	3
112.930758	12
112.956156	5
112.979975	5
112.981790	17
112.983606	36
112.985648	999
112.986782	15
112.987463	38
112.989278	16
112.991320	3
112.998582	2
113.538813	3
113.867752	3
113.988828	11
114.081546	3
114.721448	3
114.951622	41
114.991217	3
115.001468	4
115.003565	125
115.004730	4
115.005429	7
115.052512	2
116.370092	3
116.947135	14
117.015262	5
117.017175	9
117.019328	295
117.020523	6
117.021480	11
118.942844	3
119.047808	3
120.913177	3
120.938551	17
122.616999	3
123.134243	3
124.487934	3
126.904790	4
126.948557	4
127.571029	3
127.842872	3
128.964156	5
129.694403	3
130.145687	3
130.369822	2
130.498159	3
130.722923	3
131.840629	3
133.014168	8
133.163848	2
134.866194	3
135.067636	3
136.189686	3
136.985279	29
139.001004	14
139.006887	34
139.260519	3
139.891704	3
140.004308	3
141.467585	2
141.752214	3
143.034687	3
143.861104	3
144.703912	3
145.013874	7
145.191207	3
146.343977	3
146.550567	3
146.625677	3
146.954964	3
146.958329	3
146.959676	2
146.965398	5
147.096763	2
147.546418	3
148.063129	3
148.863545	3
148.952117	15
150.218561	3
150.951361	10
151.403683	3
152.135609	3
152.946803	3
152.963958	5
152.967175	3
152.977899	35
153.972570	4
154.398308	3
154.766504	3
154.962394	3
154.970048	5
154.973328	78
158.990664	4
159.839811	3
159.893276	4
160.525420	3
160.693086	3
160.892241	4
161.961719	3
163.462779	3
165.000820	6
170.943754	6
172.940642	4
172.953963	6
172.976311	9
174.551079	3
174.918078	4
174.971851	5
178.712180	3
178.946219	4
180.972187	4
180.994267	3
184.471834	7
185.030250	3
185.874794	2
186.811454	3
188.029162	3
188.576420	3
188.948802	7
190.549760	3
190.944455	12
190.999800	7
192.371122	2
192.438688	3
192.667367	3
193.535291	3
196.936748	3
196.953458	6
196.956069	9
196.961813	4
197.957315	3
197.962578	84
198.944478	4
198.951901	12
198.969398	10
198.992201	3
199.955603	3
199.980713	46
200.720626	3
200.985222	5
201.007296	4
201.022372	3
201.996235	8
204.970088	6
206.916544	41
208.267099	3
208.911965	4
214.924435	14
215.055460	5
216.942288	4
217.920553	3
217.929062	3
221.923644	6
223.948634	3
223.984096	6
224.937116	3
226.977741	10
227.057875	3
227.428072	3
228.812636	3
228.995842	22
230.430451	3
230.603033	3
231.009133	3
231.013777	52
231.934631	3
237.658830	3
238.857393	7
240.875243	18
240.940943	9
241.598000	4
241.950999	5
242.872284	8
244.145144	4
244.683700	3
244.858788	3
246.847049	11
246.852178	3
248.870010	3
248.947171	7
248.953107	13
248.959787	663
248.963498	15
248.965724	18
248.972404	6
249.963238	25
250.963754	3
250.971266	5
250.973519	5
250.978026	173
250.981782	2
250.984036	5
251.981625	5
252.993536	51
252.995816	55
253.999317	4
255.011108	31
255.165054	3
255.450992	2
255.928368	4
256.892587	3
256.944715	3
257.027218	15
257.893562	5
258.892528	7
259.003532	39
260.006584	3
260.416583	3
260.892824	10
261.445433	3
262.639543	3
263.900160	3
264.933449	4
265.876960	3
267.894280	4
268.547433	3
268.920308	3
268.957805	7
268.961139	3
269.065340	3
270.976643	20
272.991877	4
274.976257	5
274.980564	13
275.985232	4
276.603888	3
276.993674	5
276.998900	8
278.419720	3
278.819508	13
280.981752	4
284.930235	29
284.933869	6
285.933329	4
285.960735	5
286.949076	24
287.076769	21
287.956396	75
288.960678	5
290.887562	3
290.947560	4
292.938902	15
292.961638	4
293.864665	3
294.956500	22
294.973728	6
294.981386	3
297.238849	3
298.907252	3
300.558237	3
300.903092	27
300.990878	5
302.921976	4
305.087057	4
305.242161	4
308.911174	7
310.791757	10
310.946053	19
311.155416	3
311.644407	3
312.891282	4
313.895439	5
314.922387	3
316.135901	3
316.873134	8
316.968002	4
318.870032	5
318.891549	9
318.953959	9
318.964722	3
320.399892	4
320.888037	3
320.909758	7
321.846952	3
321.917871	4
322.907718	5
325.183485	4
327.986702	3
330.913878	3
334.420500	3
342.764253	6
342.951363	3
345.760707	3
345.911378	5
353.356373	3
354.026204	3
355.071815	3
367.134272	3
369.617490	3
376.703054	3
378.917388	6
384.841607	4
384.934336	8
394.327483	3
394.888777	27
396.908333	9
398.926862	7
402.897305	8
406.371127	3
412.146064	3
418.892457	4
425.842383	3
439.875396	3
441.294131	3
446.920428	3
460.878575	3
472.122256	3
472.935384	5
478.069803	3
486.230295	3
503.745716	3
503.891001	3
510.956738	3
511.891964	3
512.467922	3
513.508417	3
515.479513	3
520.910627	3
521.828281	3
527.197895	5
541.218497	33
542.221367	11
543.215068	28
544.218698	33
545.215492	40
546.217439	22
547.217313	47
548.219935	13
549.218019	20
550.223709	4
550.951081	4
555.630207	3
556.492320	3
561.777813	3
563.318026	5
563.838741	3
573.723077	4
579.804799	3
581.279437	8
588.872661	3
589.040085	4
589.318383	3
590.520294	4
592.471721	3
592.853349	3
599.081905	4
605.254377	3
617.859965	4
618.269293	4
622.044886	3
626.601275	3
633.259249	3
642.201414	6
651.290367	3
659.318052	6
659.398021	3
663.515197	3
672.231441	4
673.227003	5
677.015068	3
683.376310	3
688.276194	3
696.277009	4
715.540388	3
718.594971	3
727.672989	3
753.292549	6
776.530879	3
783.262735	3
812.645159	3
813.683444	3
820.194740	4
826.205411	3
832.672660	3
839.680245	3
853.765443	3
884.802655	3
905.980119	7
911.154212	3
913.679623	3
913.888373	4
924.874614	3
928.712630	3
929.119147	3
929.145901	3
932.251837	3
972.252158	3
989.341852	3
992.618822	3
997.779221	3
999.215828	3
1005.969235	31
1006.976678	5
1010.390270	4
1023.866796	3
1029.148344	3
1039.391474	3
1045.642867	3
1059.637722	15
1060.642029	8
1061.660835	3
1065.225103	4
1066.586075	3
1079.562655	3
1083.183854	4
1085.619381	3
1086.627022	4
1092.832104	3
1105.902895	3
1105.965432	21
1106.966746	7
1122.172416	3
1123.060713	4
1133.500177	3
1142.749103	3
1149.243026	3
1155.955800	5
1163.791959	4
1165.985321	25
1166.632492	4
1168.690461	3
1182.973150	6
1194.089580	3
1195.119281	3
1203.649587	3
1205.956640	16
1209.453517	3
1215.091441	3
1233.969956	28
1234.977882	14
1235.995254	5
1244.917936	3
1250.137601	3
1252.562909	3
1255.944988	11
1257.957211	4
1265.978062	35
1266.982865	11
1274.634535	3
1278.123727	3
1282.971940	9
1283.970969	4
1288.922459	3
1296.791688	4
1305.953902	5
1308.427271	3
1310.522166	3
1333.966349	67
1334.970248	17
1338.007245	5
1350.559482	3
1355.948671	5
1358.130403	3
1359.985702	4
1365.974981	19
1366.977040	5
1371.811904	3
1381.568606	4
1382.966749	14
1383.958384	4
1384.464335	3
1400.990598	3
1401.406796	3
1404.534200	4
1420.703625	3
1428.321955	3
1433.958002	71
1434.963914	17
1435.970885	5
1461.219260	4
1465.958479	10
1466.966411	4
1482.955151	7
1493.301966	3
