Mass spectrum: Cytosine; LC-ESI-ITFT; MS2; m/z:158.00; POS
Name: Cytosine
Class: Natural Product
Formula: C4H5N3O
Exact mass: 111.04326
SMILES: NC(C=1)=NC(=O)NC1
InChI: InChI=1S/C4H5N3O/c5-3-1-2-6-4(8)7-3/h1-2H,(H3,5,6,7,8)
Instrument: LTQ Orbitrap XL, Thermo Scientfic
Instrument type: LC-ESI-ITFT
Ms type: MS2
Ion mode: POSITIVE
Collision energy: 35eV
Ionization: ESI
Column name: TOSOH TSKgel ODS-100V  5um Part no. 21456
Retention time: 4.600968 min
Base peak: 116.910797
Precursor m/z: 158.00
m/z	relative intensity
57.930004	1
75.107224	1
78.952354	1
84.101563	1
88.912918	1
102.011841	1
106.969238	342
108.943710	1
112.092209	6
113.042419	1
114.065048	5
114.978348	1
116.910797	999
124.928741	3
127.246567	1
128.959152	1
130.041550	5
136.941483	1
138.712341	1
139.961258	6
141.115494	6
143.322403	1
158.068085	2
159.037704	1
175.789963	1
254.366699	1
326.291962	1
