Mass spectrum: FAD; LC-ESI-ITFT; MS2; m/z:784.15; NEG
Name: FAD
Name: Flavin adenine dinucleotide
Class: Natural Product
Formula: C27H33N9O15P2
Exact mass: 785.15713
SMILES: C(C(CN(c54)C(=N6)C(C(=O)NC6=O)=Nc(cc(c(c5)C)C)4)O)(O)C(O)COP(OP(OCC(O1)C(C(C1n(c2)c(n3)c(c(N)nc3)n2)O)O)(O)=O)(O)=O
InChI: InChI=1S/C27H33N9O15P2/c1-10-3-12-13(4-11(10)2)35(24-18(32-12)25(42)34-27(43)33-24)5-14(37)19(39)15(38)6-48-52(44,45)51-53(46,47)49-7-16-20(40)21(41)26(50-16)36-9-31-17-22(28)29-8-30-23(17)36/h3-4,8-9,14-16,19-21,26,37-41H,5-7H2,1-2H3,(H,44,45)(H,46,47)(H2,28,29,30)(H,34,42,43)/t14-,15+,16+,19-,20+,21+,26+/m0/s1
Instrument: LTQ Orbitrap XL, Thermo Scientfic
Instrument type: LC-ESI-ITFT
Ms type: MS2
Ion mode: NEGATIVE
Collision energy: 35eV
Ionization: ESI
Column name: TOSOH TSKgel ODS-100V  5um Part no. 21456
Retention time: 14.707920 min
Base peak: 437.209045
Precursor m/z: 784.15
m/z	relative intensity
241.214172	6
255.160324	2
346.234528	364
408.146790	10
419.184387	3
437.209045	999
455.075806	3
517.060791	27
528.067810	2
542.177673	7
686.261780	2
766.222290	5
