Mass spectrum: AMP; LC-ESI-ITFT; MS; POS
Name: AMP
Name: Adenosine 5'-monophosphate
Name: Adenylic acid
Name: Adenylate
Name: 5'-AMP
Name: 5'-Adenylic acid
Name: 5'-Adenosine monophosphate
Name: Adenosine 5'-phosphate
Class: Natural Product
Formula: C10H14N5O7P
Exact mass: 347.06308
SMILES: Nc(n3)c(n2)c(nc3)n(c2)[C@H](O1)[C@H](O)[C@H](O)[C@@H](COP(O)(O)=O)1
InChI: InChI=1S/C10H14N5O7P/c11-8-5-9(13-2-12-8)15(3-14-5)10-7(17)6(16)4(22-10)1-21-23(18,19)20/h2-4,6-7,10,16-17H,1H2,(H2,11,12,13)(H2,18,19,20)/t4-,6-,7-,10-/m1/s1
Instrument: LTQ Orbitrap XL, Thermo Scientfic
Instrument type: LC-ESI-ITFT
Ms type: MS
Ion mode: POSITIVE
Collision energy: 35eV
Ionization: ESI
Column name: TOSOH TSKgel ODS-100V  5um Part no. 21456
Retention time: 8.851138 min
Base peak: 348.070068
m/z	relative intensity
130.049497	3
136.058218	1
136.061516	34
137.064689	1
137.132002	1
141.946032	1
149.023248	1
152.023971	1
152.047341	1
152.050528	1
152.051945	1
152.053362	2
152.056549	247
152.058674	2
152.059382	2
152.061153	1
152.062216	1
152.066112	1
152.070008	5
152.089137	1
153.040561	4
153.053436	1
153.059874	10
155.142891	1
163.132278	1
171.149125	7
174.127584	2
177.032661	1
179.047813	1
181.049244	5
182.985263	1
187.126060	2
190.989046	1
198.027369	1
198.062640	1
198.066852	1
198.069484	1
198.071064	2
198.073170	2
198.075803	321
198.080542	2
198.083175	1
198.084228	1
198.085808	1
198.089494	1
198.124255	1
199.078997	26
199.179842	1
200.079676	1
207.024029	1
207.026843	1
210.075901	1
221.149442	1
222.112313	11
223.063237	8
223.115476	1
224.062720	1
224.127985	37
225.130812	2
231.042626	1
242.561791	1
275.566547	2
278.571857	3
279.158552	1
282.221186	1
298.568739	1
303.106207	1
305.528791	1
306.561312	1
306.802750	1
306.909357	1
306.990619	3
307.036343	1
307.039392	1
307.049554	1
307.057685	2
307.065815	4
307.069881	2
307.073946	6
307.084110	962
307.090209	5
307.092242	6
307.097325	3
307.099358	3
307.102407	3
307.105457	1
307.107490	1
307.110540	2
307.115622	1
307.121722	1
307.125789	1
307.129855	1
307.177644	3
307.257995	1
307.364840	1
307.491091	1
307.566471	1
307.572584	1
307.574621	1
307.584810	263
307.590924	2
307.592962	2
307.598057	1
307.601114	1
307.606209	1
307.678573	1
308.082650	130
308.090822	1
308.098994	1
308.581700	15
308.587843	1
308.650312	1
309.082990	1
334.041616	1
339.065470	1
346.193894	1
347.440693	1
347.730786	1
347.859424	1
347.957482	3
348.005301	1
348.012658	1
348.016337	1
348.029827	1
348.034732	1
348.038411	2
348.048223	3
348.053129	2
348.055582	3
348.058035	5
348.061714	1
348.070300	999
348.077660	6
348.080113	6
348.083793	2
348.086246	3
348.089926	3
348.093606	2
348.096060	1
348.103420	2
348.108327	1
348.115688	1
348.120595	1
348.125503	1
348.127957	1
348.183173	3
348.280140	1
348.409083	1
348.701620	1
348.749592	1
349.061034	1
349.073352	106
349.123865	3
349.960767	1
350.073323	6
350.127766	1
355.072493	1
362.085025	1
391.282894	6
392.286254	1
484.115789	2
499.116803	8
500.120866	1
502.221003	1
556.135288	1
560.055065	1
588.351977	1
612.896181	1
613.108320	1
613.119791	1
613.131261	2
613.159939	338
613.177146	2
613.182882	1
613.191486	1
613.197223	1
613.202959	1
613.423867	1
614.162049	78
615.152208	18
616.156320	4
695.131889	18
696.136890	2
697.137120	1
738.346725	1
786.690533	5
787.190903	3
787.687576	1
919.231614	7
919.737189	7
920.237907	3
920.739035	1
921.235291	1
921.737233	1
960.219247	25
960.725266	4
961.226057	10
961.721605	1
962.228812	2
1001.210317	1
1001.713155	1
1022.258770	1
1042.196314	2
1043.194779	1
1059.256639	1
1092.765946	5
1093.264210	5
1093.769647	5
1094.268597	1
1094.761047	1
1095.267523	1
1095.767499	1
1133.751923	2
1134.256837	2
1134.754868	1
1135.260452	1
1136.945761	1
1137.278926	1
1137.619486	1
1191.809151	1
1225.310742	3
1225.813190	2
1226.315948	3
1226.810899	1
1227.306149	1
1253.310614	1
1253.981347	1
1254.300133	1
1266.300382	3
1266.802705	3
1267.305327	3
1267.799722	2
1268.302938	1
1307.290099	2
1307.781279	1
1308.290611	2
1342.334289	1
1368.660621	1
1368.995423	1
1398.847244	1
1399.351371	1
1399.845878	1
1400.350545	1
1400.835678	1
1439.828094	1
1440.333888	1
1440.829618	1
1441.832187	1
1485.022522	1
