Mass spectrum: L-(-)-Phenylalanine; LC-ESI-ITFT; MS2; m/z:167.09; POS
Name: L-Phenylalanine
Name: (S)-alpha-Amino-beta-phenylpropionic acid
Name: L-(-)-Phenylalanine
Class: Natural Product
Formula: C9H11NO2
Exact mass: 165.07898
SMILES: OC(=O)C([H])(N)Cc(c1)cccc1
InChI: InChI=1S/C9H11NO2/c10-8(9(11)12)6-7-4-2-1-3-5-7/h1-5,8H,6,10H2,(H,11,12)/t8-/m0/s1
Instrument: LTQ Orbitrap XL, Thermo Scientfic
Instrument type: LC-ESI-ITFT
Ms type: MS2
Ion mode: POSITIVE
Collision energy: 35eV
Ionization: ESI
Column name: TOSOH TSKgel ODS-100V  5um Part no. 21456
Retention time: 11.717312 min
Base peak: 121.036804
Precursor m/z: 167.09
m/z	relative intensity
120.053085	142
121.036804	999
132.016220	2
138.851151	1
148.980011	9
149.978592	53
