Mass spectrum: 4-Hydroxy-L-proline; LC-ESI-ITFT; MS; POS
Name: 4-Hydroxy-L-proline
Name: L-Hydroxyproline
Class: Natural Product
Formula: C5H9NO3
Exact mass: 131.05824
SMILES: OC(C1)CC(N1)C(O)=O
InChI: InChI=1S/C5H9NO3/c7-3-1-4(5(8)9)6-2-3/h3-4,6-7H,1-2H2,(H,8,9)/t3?,4-/m0/s1
Instrument: LTQ Orbitrap XL, Thermo Scientfic
Instrument type: LC-ESI-ITFT
Ms type: MS
Ion mode: POSITIVE
Collision energy: 35eV
Ionization: ESI
Column name: TOSOH TSKgel ODS-100V  5um Part no. 21456
Retention time: 4.792197 min
Base peak: 132.065445
m/z	relative intensity
100.112037	1
102.054776	6
116.034066	1
120.042516	1
120.061647	1
120.063387	1
120.065623	128
120.067363	2
120.069848	1
120.088488	1
121.068844	4
123.514804	1
126.019876	1
126.022014	114
126.024152	2
126.026557	1
127.025222	2
128.017746	3
131.500555	1
131.501694	1
131.626255	1
131.918828	1
131.986108	2
131.989545	1
132.016473	1
132.039110	5
132.042836	1
132.043982	1
132.045702	1
132.046275	1
132.047995	1
132.048855	1
132.050288	1
132.051434	1
132.052581	1
132.053441	1
132.054300	1
132.054874	1
132.056307	1
132.056880	1
132.057740	3
132.060033	3
132.060893	5
132.062040	2
132.063187	10
132.065480	999
132.067773	13
132.069493	3
132.070353	5
132.071500	2
132.072647	3
132.073794	1
132.074940	1
132.075514	1
132.076661	1
132.078381	1
132.080101	1
132.081248	1
132.081821	1
132.084115	1
132.084975	1
132.085549	1
132.086409	1
132.087556	1
132.089850	1
132.091857	5
132.093865	1
132.114227	1
132.141480	1
132.144923	2
132.212377	1
132.224150	1
132.506906	1
133.060649	4
133.061809	1
133.068477	48
133.070797	1
134.044242	14
134.069162	3
137.132002	1
141.958490	1
143.048389	1
148.003496	2
149.022904	3
155.142891	1
158.002552	3
158.096003	1
163.132671	3
165.508233	1
170.095866	1
171.149125	25
172.152025	1
173.494363	2
174.127584	10
179.063653	1
182.984796	2
186.955501	1
187.126060	4
199.180373	3
220.966925	1
223.063237	6
233.173966	1
237.011099	1
245.080111	39
246.083265	1
251.037045	26
253.031482	1
257.073640	1
257.075197	1
257.080647	103
257.086097	1
258.074644	1
258.083259	4
259.058666	6
259.075206	2
263.123308	9
279.157671	1
282.221186	1
302.206154	1
370.094182	2
376.050047	2
382.094411	10
383.096604	1
391.284356	25
392.286254	4
426.355027	1
436.339497	1
495.107749	3
501.062281	1
507.107633	12
508.112119	1
509.084878	1
509.104405	1
513.151063	2
522.340752	15
523.343371	3
620.121606	1
632.123772	4
638.164583	1
745.134788	1
757.137927	1
763.178856	1
882.153061	1
