Mass spectrum: Citric acid; LC-ESI-ITFT; MS; NEG
Name: Citrate
Name: Citric acid
Name: 2-Hydroxy-1,2,3-propanetricarboxylic acid
Name: 2-Hydroxytricarballylic acid
Class: Natural Product
Formula: C6H8O7
Exact mass: 192.02700
SMILES: OC(=O)CC(O)(CC(O)=O)C(O)=O
InChI: InChI=1S/C6H8O7/c7-3(8)1-6(13,5(11)12)2-4(9)10/h13H,1-2H2,(H,7,8)(H,9,10)(H,11,12)
Instrument: LTQ Orbitrap XL, Thermo Scientfic
Instrument type: LC-ESI-ITFT
Ms type: MS
Ion mode: NEGATIVE
Collision energy: 35eV
Ionization: ESI
Column name: TOSOH TSKgel ODS-100V  5um Part no. 21456
Retention time: 9.116215 min
Base peak: 191.019424
m/z	relative intensity
103.040071	1
103.383386	1
103.916293	1
103.920296	5
104.928110	5
105.935822	1
108.020314	7
110.988340	1
111.004027	1
111.005131	1
111.007120	6
111.008888	120
111.010656	6
111.012203	1
111.013970	1
111.867229	1
112.012000	4
112.985421	1
113.012881	1
113.778734	1
114.951622	6
118.278774	1
122.012310	1
124.134687	1
126.030708	1
126.248849	1
127.548437	1
127.956556	1
129.019236	12
129.021174	1
130.698078	1
136.010300	1
137.945675	1
138.951479	1
138.979953	2
139.006887	1
139.891704	1
140.966957	2
141.695474	1
142.890974	1
142.943589	1
142.959735	1
142.965871	2
143.951448	3
144.959122	5
144.996060	1
145.008266	1
145.525620	1
145.890482	1
145.966751	2
147.029711	3
148.952461	2
151.026022	11
154.037925	1
154.982805	1
154.998116	5
155.951123	2
156.894750	2
156.959003	9
158.892611	1
158.938408	3
159.893658	3
160.892241	3
161.893591	3
161.961719	5
161.965224	1
162.892928	5
162.971513	1
162.987630	1
164.589943	1
164.895156	3
164.950777	1
164.966788	3
165.204428	1
166.946346	8
166.974470	1
167.174393	1
167.946018	1
167.987558	1
168.943080	1
169.011969	1
170.003475	1
171.945943	1
172.953963	1
173.001673	1
173.008982	7
173.961769	1
174.012065	1
177.039946	2
178.982405	1
180.930798	1
180.961608	5
180.964828	1
180.997947	1
182.423753	1
182.705243	1
182.977564	1
183.946104	1
184.420721	1
184.976528	1
185.686300	1
185.997901	1
188.675288	1
188.998373	1
189.956794	2
190.881660	2
190.941963	1
190.944954	1
190.973371	5
190.983344	1
190.984840	1
190.988331	1
190.991821	1
190.994315	1
190.995811	1
190.997307	1
190.999800	2
191.001795	1
191.003790	1
191.005785	2
191.008279	3
191.009775	2
191.011271	9
191.015261	33
191.019252	999
191.023242	39
191.027233	10
191.029228	1
191.031223	4
191.032720	2
191.038207	2
191.041200	1
191.046189	1
191.048185	1
191.050180	1
191.053174	1
191.065149	5
191.157491	2
191.239408	1
192.018741	1
192.022763	45
192.026282	2
192.961258	1
193.023055	7
194.026589	1
195.046203	1
195.050321	1
195.982095	1
196.364161	1
196.993674	1
198.969398	1
198.982124	1
199.000686	1
199.940646	9
200.936243	1
200.948621	7
202.924205	1
204.998366	1
206.960976	1
206.977290	6
208.956471	6
209.838658	1
210.751875	1
210.935812	1
211.977439	1
212.914647	1
212.971007	3
212.984513	2
213.000957	1
213.413265	1
213.992865	6
216.019176	2
217.015354	5
217.950945	2
218.958695	2
219.336256	1
220.575667	1
220.650576	1
220.992794	2
226.948025	1
226.964175	1
228.937585	1
228.943475	22
229.010901	3
229.052157	1
229.946801	2
230.551437	1
232.964423	1
232.987938	3
234.971861	5
238.894362	1
238.904129	1
239.971608	2
244.938436	4
245.946796	1
246.935733	1
247.938024	1
248.938266	2
248.987991	4
250.941221	2
250.950985	2
251.949888	2
252.946406	22
253.918267	1
253.948083	1
254.942647	2
255.987166	1
257.006200	2
257.975740	1
257.982785	21
257.985917	1
258.984633	1
259.021646	15
260.968475	1
261.941319	1
272.933087	1
274.998656	1
275.009857	1
275.016751	41
275.021059	1
275.023644	1
276.019884	2
276.928362	1
278.962059	4
279.672034	1
279.964749	1
280.859882	2
280.982642	1
281.966733	1
282.322200	1
283.954105	1
283.962241	22
284.964768	2
285.254909	1
285.941550	1
286.964688	1
288.986665	3
292.960690	1
292.966375	1
292.977744	1
293.996051	2
294.992872	5
295.938015	1
295.992847	1
296.998883	4
298.870154	1
301.003704	1
301.971956	5
302.992711	2
310.161272	1
310.967809	2
312.899648	1
312.954032	1
314.898103	1
314.943505	4
315.898154	1
316.897647	1
316.983995	1
318.898004	2
319.909617	1
320.956467	1
321.954976	1
322.942802	1
322.951574	23
323.950603	1
323.955009	3
324.948741	1
324.962021	1
325.182377	1
327.951915	2
328.097832	1
328.934802	1
329.943627	1
330.919565	1
331.946682	5
331.958109	1
332.902836	1
332.954483	14
333.957656	1
334.954946	1
334.958420	1
336.966480	1
338.742798	1
338.982038	1
341.897871	1
341.907427	1
342.904571	1
345.962434	2
346.893142	1
354.936596	1
359.001304	4
360.886264	1
363.966545	1
364.961674	1
367.943666	1
368.799893	1
372.288791	1
378.840755	1
378.896485	5
380.982653	1
383.035106	1
383.046437	66
383.057768	2
384.049782	7
385.049938	2
390.035575	2
391.031461	9
391.893351	1
391.968114	8
392.035566	1
392.971416	1
396.908333	1
396.972581	1
400.956279	1
405.015647	2
405.027967	77
405.035668	1
405.040288	2
406.030847	7
406.990915	7
407.003325	10
407.032802	1
407.994871	1
408.007327	1
408.952542	2
409.955928	1
411.913783	1
413.949337	1
417.946491	1
418.955636	1
420.993080	9
421.001240	2
421.037147	1
421.995268	1
422.996109	1
424.967119	3
425.001879	1
425.965268	4
426.021747	1
426.948604	1
426.961938	57
426.975273	1
426.995276	1
427.008613	12
427.960437	3
427.967128	4
428.013968	2
428.959086	3
428.985944	3
429.922496	1
429.988187	1
431.286545	1
433.962446	3
434.965049	1
434.970191	1
435.929857	1
435.943614	2
435.957372	83
435.965971	2
435.971130	2
436.953094	2
436.965174	34
437.967816	4
442.302932	1
442.975040	2
443.019080	1
443.947197	1
443.977241	1
446.948990	1
447.948595	2
447.957551	1
448.924599	1
448.944367	12
448.991097	1
449.948873	1
450.920573	1
450.942282	1
451.049043	2
451.993446	1
453.944157	1
457.939194	8
457.948451	1
458.946194	7
459.941609	1
459.949064	1
467.043050	2
473.030613	7
473.949391	1
479.874005	2
480.882526	2
480.928353	1
488.868253	1
489.025537	3
489.876595	2
489.993379	1
490.028218	1
494.867633	1
494.965401	3
495.013256	1
495.967632	1
497.735693	1
502.864671	1
503.959392	6
504.926907	1
504.967638	3
505.970311	1
506.926374	1
507.926238	1
508.924726	1
510.926190	2
510.961102	1
511.006930	1
512.985578	1
513.908774	1
513.932986	2
513.950596	68
513.961603	2
513.968207	1
514.953662	8
515.955239	1
519.051285	1
519.955068	3
520.055883	1
520.962293	2
522.112165	1
526.909854	1
530.908546	1
531.961689	22
532.906388	1
532.964499	2
535.046446	1
539.034246	1
540.907007	1
542.904243	9
542.944874	1
554.975057	1
557.028434	1
559.955905	7
560.961123	1
564.010786	1
570.998916	1
575.072933	2
597.053654	4
598.058200	2
599.056973	1
600.341614	5
601.340543	23
602.344760	5
603.334695	1
609.937300	1
613.019724	1
618.987322	1
618.998961	1
619.036787	3
620.041920	1
621.011490	1
626.011978	1
627.984497	3
628.993627	3
629.993241	1
640.970219	2
641.019276	1
646.263864	1
649.967205	3
650.973319	2
659.206119	1
662.905324	1
662.953696	1
665.058148	1
669.935599	1
671.902272	2
671.948341	2
672.910293	1
681.023188	1
681.050050	1
681.903762	1
681.934041	1
682.351424	1
686.995262	1
690.547031	1
695.988992	2
696.996094	1
703.655808	1
703.885085	1
705.918196	1
705.946545	1
705.978439	55
706.006791	1
706.982447	9
707.981481	2
717.969406	1
718.980900	1
727.958633	4
734.932592	5
735.934892	1
746.017773	1
747.328388	1
759.897968	1
786.870006	1
789.080681	1
789.973433	1
803.458202	1
803.944633	1
809.324658	2
832.995062	1
841.992690	1
842.999875	1
851.441914	1
854.638039	1
864.983628	1
871.285294	1
873.929702	1
884.315556	1
886.959662	1
887.638779	1
896.919247	1
898.006271	7
899.008691	2
899.727190	1
905.974967	2
911.700062	1
912.511945	1
919.983919	2
937.051109	1
955.155149	1
966.005026	1
973.289675	1
1005.969235	7
1006.976678	2
1065.994028	1
1087.019637	1
1098.808293	1
1105.916791	1
1105.965432	9
1106.966746	2
1108.854856	1
1109.608659	1
1144.919814	1
1155.955800	1
1165.985321	7
1166.986407	2
1167.996325	1
1178.374334	1
1182.980837	1
1189.542114	1
1205.956640	4
1206.970043	1
1243.168748	1
1256.811588	1
1257.257858	1
1265.978062	19
1266.982865	5
1267.988864	1
1290.182318	1
1322.397964	1
1322.643304	1
1324.043957	1
1333.975554	1
1352.690616	1
1365.974981	11
1366.977040	2
1382.957032	1
1415.739060	1
1453.682077	1
1465.969084	6
1466.977026	1
1467.975382	1
1499.206719	1
