Mass spectrum: Succinic acid; LC-ESI-ITFT; MS2; m/z:248.96; NEG
Name: Succinate
Name: Succinic acid
Name: Butanedionic acid
Name: Ethylenesuccinic acid
Class: Natural Product
Formula: C4H6O4
Exact mass: 118.02661
SMILES: OC(=O)CCC(O)=O
InChI: InChI=1S/C4H6O4/c5-3(6)1-2-4(7)8/h1-2H2,(H,5,6)(H,7,8)
Instrument: LTQ Orbitrap XL, Thermo Scientfic
Instrument type: LC-ESI-ITFT
Ms type: MS2
Ion mode: NEGATIVE
Collision energy: 35eV
Ionization: ESI
Column name: TOSOH TSKgel ODS-100V  5um Part no. 21456
Retention time: 10.248988 min
Base peak: 204.937820
Precursor m/z: 248.96
m/z	relative intensity
112.878677	30
152.966690	217
154.978409	196
194.299042	8
203.761520	12
204.937820	999
