Mass spectrum: L-Glutamine; LC-ESI-ITFT; MS; NEG
Name: L-Glutamine
Name: L-2-Aminoglutaramic acid
Class: Natural Product
Formula: C5H10N2O3
Exact mass: 146.06914
SMILES: NC(=O)CC[C@H](N)C(O)=O
InChI: InChI=1S/C5H10N2O3/c6-3(5(9)10)1-2-4(7)8/h3H,1-2,6H2,(H2,7,8)(H,9,10)/t3-/m0/s1
Instrument: LTQ Orbitrap XL, Thermo Scientfic
Instrument type: LC-ESI-ITFT
Ms type: MS
Ion mode: NEGATIVE
Collision energy: 35eV
Ionization: ESI
Column name: TOSOH TSKgel ODS-100V  5um Part no. 21456
Retention time: 4.706115 min
Base peak: 145.061432
m/z	relative intensity
100.623372	1
101.072058	18
102.055961	2
103.920096	6
104.525171	1
107.391412	1
107.829880	1
108.684506	1
109.036646	1
109.040733	5
109.940961	1
110.432416	1
110.963823	1
112.964776	1
112.983832	3
112.985421	68
112.987236	1
113.988828	1
114.951622	7
115.042254	1
116.773143	1
116.920856	1
117.090390	1
118.009228	1
118.160021	1
120.018142	1
123.197255	1
123.267039	1
123.951717	1
123.952500	1
124.024491	1
126.667439	1
127.034536	1
127.046980	1
127.048333	2
127.049686	1
127.051039	45
127.701525	1
127.780902	1
128.035075	17
128.054237	1
129.038066	1
129.282948	1
131.938498	1
132.029596	1
136.450398	1
137.802837	1
139.006578	2
139.508619	1
140.813088	1
141.967688	1
143.889470	2
144.970334	2
145.031032	6
145.032682	1
145.035322	1
145.049843	2
145.052813	5
145.054464	3
145.056774	60
145.058754	22
145.061395	999
145.064036	20
145.066016	4
145.067337	10
145.070308	6
145.071628	1
145.072949	2
145.074600	2
145.076250	1
145.079882	2
145.085495	1
145.091768	5
145.152873	2
145.890149	1
146.045414	5
146.058420	4
146.061755	1
146.064756	43
146.067424	2
147.065422	5
147.674155	1
147.988273	1
149.410313	1
151.982923	1
153.959215	1
156.866165	1
156.894750	2
159.776834	1
159.893276	1
160.935048	1
164.567206	1
166.984661	1
167.043382	1
167.979742	1
168.013887	1
168.014710	1
169.019442	3
169.977513	2
171.034999	4
171.993237	3
173.104037	2
174.427842	1
174.894042	1
174.917641	1
177.982749	1
178.529064	1
178.993263	5
179.977276	1
181.037979	8
181.040280	1
181.899796	1
181.974442	1
181.975834	1
183.035096	2
183.462988	1
183.497735	1
183.969674	12
183.992305	2
184.529124	2
186.045835	1
187.029690	4
188.013575	1
189.025375	10
191.436423	1
192.786158	1
198.980534	2
199.964151	3
199.988193	4
200.995989	3
204.993376	1
206.987979	12
207.972131	10
207.988565	1
208.056587	4
208.117835	1
213.048537	3
214.913125	2
215.024479	23
216.990592	1
217.737118	1
217.930278	4
222.952815	1
223.818889	1
224.988114	1
224.998316	3
227.959055	2
228.042962	1
229.013520	4
231.935298	1
232.923449	2
233.034978	2
233.315496	1
233.938208	2
234.956891	4
235.191134	1
235.967175	10
236.517365	1
237.958144	1
241.457583	1
241.987977	2
242.024253	6
242.163740	1
242.880865	1
243.028251	3
243.798840	1
244.003221	4
244.033469	1
244.985519	5
245.993441	2
246.935000	3
246.996594	1
247.411485	1
248.938266	1
249.960251	2
250.941221	2
251.144124	1
251.296838	1
252.992775	1
253.225577	1
257.004643	1
259.014558	1
259.053153	8
261.029816	2
264.991303	1
265.007603	4
265.010049	4
265.990848	1
266.924364	1
266.986993	1
267.970510	1
269.554643	1
270.612941	1
270.977486	1
274.880657	1
275.018474	1
275.309952	1
278.912770	1
279.008719	3
280.050616	2
280.984422	1
281.028030	2
281.035151	82
281.043162	1
281.055625	1
282.038310	7
283.025258	1
285.949772	1
286.496864	1
286.944484	3
289.007085	1
290.951311	2
290.990695	1
291.043221	1
291.106082	1
291.113589	1
291.122973	3
291.130481	211
291.135174	2
291.137989	3
291.146436	2
291.154884	1
292.126901	2
292.133505	17
292.889651	1
293.134134	2
293.957959	1
295.939939	2
296.226778	1
296.947638	4
297.020159	1
298.056716	1
298.061577	13
298.999050	1
299.044965	3
299.450844	1
300.051885	31
300.055813	3
301.054029	3
304.955211	1
308.725592	1
309.998279	1
310.011685	3
310.789687	1
310.995784	29
311.000965	2
311.012363	1
311.066256	1
311.167860	2
311.999152	3
312.169978	1
312.544411	1
313.099473	3
313.112034	68
313.120409	1
314.115151	6
315.069203	1
315.088223	83
315.096676	2
316.072193	1
316.091303	10
317.008520	1
317.035181	1
317.091713	1
317.862271	1
318.007934	2
318.019720	9
318.989477	2
319.003470	19
319.021771	1
320.009096	1
320.986887	3
321.001012	1
323.019567	1
324.004587	1
325.979296	1
327.014762	2
328.022617	17
329.029500	2
329.076864	12
329.085887	5
331.898697	1
331.994678	2
334.034922	2
335.034875	3
335.046462	2
335.093972	10
336.030015	23
337.034271	2
338.013681	2
338.027771	1
343.053378	3
344.041075	18
344.061572	1
345.048786	64
345.167489	1
346.056066	14
347.049439	3
347.060433	3
352.061087	2
353.042848	10
353.056634	21
354.056410	1
354.060186	2
355.040215	4
355.052854	2
357.039284	4
359.105422	1
361.093595	12
362.096483	1
362.664727	1
366.165990	2
368.227854	1
370.867883	1
374.248045	1
374.993271	2
375.082464	11
375.236224	1
376.084975	1
376.996069	3
378.999620	2
379.763285	1
379.932525	2
380.017887	2
380.805692	1
381.026211	9
381.099291	3
383.022359	3
386.877916	1
389.020293	5
390.047218	3
391.016852	3
391.054836	7
393.015573	2
393.246784	1
398.065685	1
399.062380	8
400.047705	1
404.998708	2
405.037208	1
405.083414	2
405.118845	7
407.099524	4
408.212936	1
411.076363	4
412.823483	1
413.054947	5
413.822071	1
416.656434	1
421.859363	1
427.043623	3
431.034519	1
432.059222	1
434.073485	3
436.322189	1
442.007829	2
444.131048	4
446.120024	3
456.596145	1
459.167324	6
460.172785	1
461.157229	47
461.170326	1
462.141082	1
462.159852	7
475.146637	30
476.150100	5
477.150838	1
481.163568	17
482.166157	3
488.115566	1
489.123623	4
490.110205	33
491.118280	67
492.121218	11
493.116887	4
493.313485	1
495.115230	2
497.129933	6
498.130346	5
499.112715	8
499.125355	58
500.129688	8
501.109502	5
501.122218	4
503.107634	2
507.161497	16
507.208973	1
508.166386	2
509.306704	2
513.101939	1
521.108347	1
523.845256	1
524.811564	1
526.085900	3
532.820403	1
535.306085	3
535.324805	1
536.114277	3
536.524930	1
536.733957	1
537.121802	1
537.302940	2
539.988374	1
541.218497	2
544.216300	2
547.214894	4
549.077005	1
551.188154	2
554.286545	1
555.123291	1
555.264169	1
557.085565	1
557.145191	4
559.103218	2
561.496168	1
563.300345	10
564.304456	3
567.113451	2
576.155727	1
604.102592	1
607.174755	1
607.225638	110
608.230469	20
608.928238	1
612.890704	1
617.239493	1
622.534672	1
628.782074	1
634.181541	2
636.177672	47
637.182312	9
637.823974	1
638.183242	2
643.195707	3
658.161726	2
659.170946	7
660.172876	1
667.175892	4
667.319172	1
675.214827	2
677.984589	1
683.582240	1
689.646246	1
699.097182	1
702.117265	1
705.287875	1
706.907872	1
714.348534	1
722.288560	1
726.994797	1
737.419490	1
746.368217	1
755.390605	1
775.277301	2
785.791038	1
786.957587	1
789.285922	1
796.957739	1
801.306856	1
801.341141	1
804.228948	5
821.198623	1
822.208805	1
835.179596	2
837.175915	4
837.249142	1
838.183636	2
845.182129	3
853.218983	1
853.675900	1
863.490798	3
866.976883	1
867.633176	1
873.251628	1
889.991744	1
905.974967	6
919.625532	1
922.001115	1
925.331791	1
948.580373	1
953.283982	2
954.703560	1
978.311450	1
979.410800	1
982.237084	2
988.243352	1
989.253669	1
990.241988	1
997.612513	1
1005.969235	27
1006.976678	5
1019.689230	1
1052.144236	1
1065.225103	1
1065.994028	2
1073.928728	1
1074.214698	1
1105.902895	3
1105.965432	24
1106.897166	1
1106.966746	6
1107.969421	2
1120.583223	1
1130.068833	1
1145.813278	1
1165.985321	29
1166.993939	5
1167.988784	2
1182.980837	2
1183.349908	1
1193.450588	1
1205.956640	13
1206.882904	1
1206.962121	2
1233.969956	5
1234.969683	1
1248.169096	1
1255.944988	4
1256.954705	2
1265.978062	49
1266.982865	18
1267.988864	2
1282.963258	6
1283.979661	1
1303.896633	1
1305.944986	3
1327.381722	1
1333.966349	10
1334.961032	2
1341.314449	1
1352.173799	1
1355.939238	2
1365.145538	1
1365.974981	37
1366.022673	1
1366.977040	10
1369.185454	1
1380.860635	1
1382.957032	3
1383.987566	1
1391.194452	1
1400.970784	1
1405.867762	1
1433.958002	9
1434.963914	3
1441.042345	1
1446.442076	1
1455.925551	1
1456.135487	1
1460.786685	1
1465.969084	16
1466.966411	5
1467.975382	1
1482.955151	1
1487.930711	1
