Mass spectrum: L-(+)-Lysine; LC-ESI-ITFT; MS; POS
Name: L-Lysine
Name: Lysine acid
Name: 2,6-Diaminohexanoic acid
Name: L-(+)-Lysine
Class: Natural Product
Formula: C6H14N2O2
Exact mass: 146.10553
SMILES: NCCCC[C@H](N)C(O)=O
InChI: InChI=1S/C6H14N2O2/c7-4-2-1-3-5(8)6(9)10/h5H,1-4,7-8H2,(H,9,10)/t5-/m0/s1
Instrument: LTQ Orbitrap XL, Thermo Scientfic
Instrument type: LC-ESI-ITFT
Ms type: MS
Ion mode: POSITIVE
Collision energy: 35eV
Ionization: ESI
Column name: TOSOH TSKgel ODS-100V  5um Part no. 21456
Retention time: 3.909922 min
Base peak: 147.112625
m/z	relative intensity
100.111848	2
102.033748	2
102.114781	1
110.019746	1
129.102262	5
129.138567	2
130.008048	1
130.081718	1
130.083680	1
130.086202	103
130.087603	1
130.088724	1
131.089371	6
133.096896	1
137.132305	1
139.982008	2
141.958810	4
146.596085	1
146.942349	1
147.019426	1
147.055797	1
147.081400	4
147.086791	1
147.088139	1
147.089150	1
147.094204	1
147.095552	1
147.097237	1
147.098922	1
147.100270	1
147.101281	1
147.102292	1
147.103977	3
147.107347	5
147.109706	11
147.112739	999
147.114424	9
147.115773	11
147.117458	3
147.118469	4
147.119817	2
147.120828	3
147.121502	3
147.124536	1
147.125884	1
147.127907	1
147.128581	1
147.129255	1
147.130604	1
147.136671	1
147.138020	1
147.139368	1
147.143751	4
147.148134	1
147.169377	1
147.205804	1
147.283088	1
147.298958	1
147.631790	1
148.109664	3
148.112728	1
148.113409	1
148.115452	60
148.118176	1
149.022561	2
149.116068	2
149.118132	1
155.142526	1
158.002552	18
158.096003	1
158.960868	2
163.132671	4
170.096285	1
171.137707	1
171.149125	24
172.152025	1
174.127584	9
179.063653	1
182.094124	1
182.984796	7
186.955984	1
187.126060	4
190.992536	1
199.028604	1
199.179842	2
203.222581	12
223.063237	5
233.173966	1
263.080586	1
279.157671	1
293.217927	25
294.220080	1
391.282894	26
392.286254	4
426.356690	1
436.339497	1
537.389605	9
538.391050	2
