Mass spectrum: Cytidine; LC-ESI-ITFT; MS2; m/z:242.08; NEG
Name: Cytidine
Class: Natural Product
Formula: C9H13N3O5
Exact mass: 243.08552
SMILES: OC[C@@H](O1)[C@@H](O)[C@@H](O)[C@@H]1N(C=2)C(=O)N=C(N)C2
InChI: InChI=1S/C9H13N3O5/c10-5-1-2-12(9(16)11-5)8-7(15)6(14)4(3-13)17-8/h1-2,4,6-8,13-15H,3H2,(H2,10,11,16)/t4-,6-,7-,8-/m1/s1
Instrument: LTQ Orbitrap XL, Thermo Scientfic
Instrument type: LC-ESI-ITFT
Ms type: MS2
Ion mode: NEGATIVE
Collision energy: 35eV
Ionization: ESI
Column name: TOSOH TSKgel ODS-100V  5um Part no. 21456
Retention time: 5.457065 min
Base peak: 108.900299
Precursor m/z: 242.08
m/z	relative intensity
81.018143	6
91.013885	172
101.009384	1
108.900299	999
109.938293	384
126.061737	44
132.864548	1
133.883881	1
139.179169	1
150.125320	1
150.949997	1
152.064713	246
153.414047	1
154.190140	2
164.044876	2
169.184006	1
181.020432	9
182.025192	20
197.008682	1
199.102402	36
224.203049	6
