Mass spectrum: Spermine; LC-ESI-ITFT; MS2; m/z:102.12; POS
Name: Spermine
Name: N,N'-Bis(3-aminopropyl)-1,4-butanediamine
Class: Natural Product
Formula: C10H26N4
Exact mass: 202.21575
SMILES: NCCCNCCCCNCCCN
InChI: InChI=1S/C10H26N4/c11-5-3-9-13-7-1-2-8-14-10-4-6-12/h13-14H,1-12H2
Instrument: LTQ Orbitrap XL, Thermo Scientfic
Instrument type: LC-ESI-ITFT
Ms type: MS2
Ion mode: POSITIVE
Collision energy: 35eV
Ionization: ESI
Column name: TOSOH TSKgel ODS-100V  5um Part no. 21456
Retention time: 3.295010 min
Base peak: 93.528397
Precursor m/z: 102.12
m/z	relative intensity
57.992393	47
79.578850	4
85.126419	85
93.528397	999
94.384720	1
112.087723	2
129.106369	8
146.142746	63
186.258179	3
