Mass spectrum: L-(+)-Arginine; LC-ESI-ITFT; MS2; m/z:176.12; POS
Name: L-Arginine
Name: (S)-2-Amino-5-guanidinovaleric acid
Name: L-(+)-Arginine
Class: Natural Product
Formula: C6H14N4O2
Exact mass: 174.11168
SMILES: NC(=N)NCCC[C@H](N)C(O)=O
InChI: InChI=1S/C6H14N4O2/c7-4(5(11)12)2-1-3-10-6(8)9/h4H,1-3,7H2,(H,11,12)(H4,8,9,10)/t4-/m0/s1
Instrument: LTQ Orbitrap XL, Thermo Scientfic
Instrument type: LC-ESI-ITFT
Ms type: MS2
Ion mode: POSITIVE
Collision energy: 35eV
Ionization: ESI
Column name: TOSOH TSKgel ODS-100V  5um Part no. 21456
Retention time: 4.094422 min
Base peak: 159.100571
Precursor m/z: 176.12
m/z	relative intensity
60.029579	438
61.024586	164
69.932968	64
70.969391	97
71.998047	16
72.908867	13
87.183792	1
93.876465	1
99.077484	2
112.095749	30
113.088821	85
114.072220	19
115.103455	37
116.013992	284
117.050598	578
118.939697	2
120.051559	5
130.105865	111
131.106674	360
132.053329	4
132.824860	3
133.964493	6
134.693161	1
140.051849	4
141.128494	41
142.071365	4
158.036682	919
159.100571	999
175.903412	2
