Mass spectrum: L-Carnosine; LC-ESI-ITFT; MS2; m/z:114.06; POS
Name: Carnosine
Name: Nalpha-(beta-alanyl)-L-histidine
Name: L-Carnosine
Class: Natural Product
Formula: C9H14N4O3
Exact mass: 226.10659
SMILES: C1=C(NC=N1)C[C@@H](C(=O)O)NC(=O)CCN
InChI: InChI=1S/C9H14N4O3/c10-2-1-8(14)13-7(9(15)16)3-6-4-11-5-12-6/h4-5,7H,1-3,10H2,(H,11,12)(H,13,14)(H,15,16)/t7-/m0/s1
Instrument: LTQ Orbitrap XL, Thermo Scientfic
Instrument type: LC-ESI-ITFT
Ms type: MS2
Ion mode: POSITIVE
Collision energy: 35eV
Ionization: ESI
Column name: TOSOH TSKgel ODS-100V  5um Part no. 21456
Retention time: 3.952233 min
Base peak: 156.055984
Precursor m/z: 114.06
m/z	relative intensity
72.024094	130
73.002487	11
90.012138	26
91.014740	13
96.568512	3
99.566833	2
105.378738	151
109.953308	145
138.074005	34
152.007050	212
153.339447	2
156.055984	999
157.154602	10
180.082870	518
181.080032	3
182.152451	71
192.056656	15
198.043655	622
199.018616	6
210.129150	33
