Mass spectrum: L-Aspartic acid; LC-ESI-ITFT; MS; POS
Name: L-Aspartate
Name: L-Aspartic acid
Name: 2-Aminosuccinic acid
Class: Natural Product
Formula: C4H7NO4
Exact mass: 133.03751
SMILES: OC(=O)CC(N)C(O)=O
InChI: InChI=1S/C4H7NO4/c5-2(4(8)9)1-3(6)7/h2H,1,5H2,(H,6,7)(H,8,9)/t2-/m0/s1
Instrument: LTQ Orbitrap XL, Thermo Scientfic
Instrument type: LC-ESI-ITFT
Ms type: MS
Ion mode: POSITIVE
Collision energy: 35eV
Ionization: ESI
Column name: TOSOH TSKgel ODS-100V  5um Part no. 21456
Retention time: 4.742720 min
Base peak: 134.044678
m/z	relative intensity
100.111848	14
101.095891	2
102.033748	11
106.047993	1
106.049643	41
106.051087	1
106.051500	1
107.069996	1
110.019746	9
111.020036	3
112.017904	1
113.963604	4
116.032177	1
116.034066	73
116.036190	1
117.037289	2
120.065375	2
122.963861	1
123.055343	1
125.986214	2
128.106983	2
129.127480	2
130.008048	3
130.492108	2
133.080075	1
133.595701	1
133.892819	1
133.963666	2
133.994130	1
134.017570	4
134.021087	1
134.023725	1
134.026655	1
134.028121	1
134.029000	1
134.030172	1
134.031345	1
134.032810	1
134.033690	1
134.034569	1
134.036328	2
134.037207	2
134.038379	2
134.039552	4
134.042190	15
134.044535	999
134.046587	11
134.047466	14
134.048639	2
134.049225	3
134.050398	3
134.051571	2
134.053329	2
134.054502	1
134.056261	1
134.056848	1
134.058020	1
134.059486	1
134.060952	1
134.062125	1
134.063298	1
134.066230	1
134.068282	1
134.071801	4
134.095262	1
134.125771	2
134.196509	1
134.495929	1
134.986037	1
135.041152	1
135.045302	1
135.047674	37
135.050638	1
136.048327	4
137.132002	8
139.982008	7
141.958490	23
143.039341	1
149.023248	23
149.966122	1
150.026151	1
151.035005	1
151.096379	2
154.990068	2
155.142891	6
157.999551	1
158.002927	42
158.096003	5
158.961247	9
159.005926	1
159.968813	1
162.997765	2
163.132671	22
164.136124	1
167.012526	2
167.033727	3
167.976768	1
170.096285	8
171.138130	4
171.145742	1
171.149125	107
171.152932	1
172.152452	8
173.078147	1
174.124112	1
174.127584	43
174.131490	1
175.089406	2
175.130548	3
176.012896	1
178.035287	1
179.063653	10
180.158947	1
180.989441	1
182.985263	39
183.988035	1
185.114144	1
186.184865	2
186.955984	6
187.126060	37
188.128987	1
190.992536	5
194.116962	1
195.122110	2
199.029134	2
199.180373	16
199.987228	1
200.182886	1
204.007907	1
207.984401	1
208.190213	2
216.206580	1
217.104082	1
220.111375	4
222.111688	1
223.063237	13
224.062720	1
224.127351	1
225.059369	1
226.158371	1
227.981570	1
228.231451	1
233.173966	5
264.130698	1
267.081439	1
277.199902	1
279.158552	4
280.161171	1
282.220291	3
283.223259	1
294.226753	1
296.169567	1
299.181639	1
316.077274	1
320.999557	1
322.256836	1
343.208159	1
366.210251	1
366.283065	1
391.271198	1
391.284356	78
391.293128	1
391.297514	1
392.286254	16
393.289058	1
410.236706	1
413.263556	2
426.356690	3
427.376183	1
436.341219	9
437.343196	2
454.036631	1
464.370027	1
475.379199	1
478.349236	1
496.323130	1
524.319397	11
525.323173	2
1221.995860	1
