Mass spectrum: Uridine; LC-ESI-ITFT; MS2; m/z:243.06; NEG
Name: Uridine
Class: Natural Product
Formula: C9H12N2O6
Exact mass: 244.06954
SMILES: OC[C@@H](O1)[C@@H](O)[C@@H](O)[C@@H]1N(C=2)C(=O)NC(=O)C2
InChI: InChI=1S/C9H12N2O6/c12-3-4-6(14)7(15)8(17-4)11-2-1-5(13)10-9(11)16/h1-2,4,6-8,12,14-15H,3H2,(H,10,13,16)/t4-,6-,7-,8-/m1/s1
Instrument: LTQ Orbitrap XL, Thermo Scientfic
Instrument type: LC-ESI-ITFT
Ms type: MS2
Ion mode: NEGATIVE
Collision energy: 35eV
Ionization: ESI
Column name: TOSOH TSKgel ODS-100V  5um Part no. 21456
Retention time: 5.501540 min
Base peak: 200.067093
Precursor m/z: 243.06
m/z	relative intensity
81.943970	7
95.147537	1
109.919647	133
110.988434	127
116.898178	7
119.968964	1
121.919540	2
124.052307	1
132.059372	6
138.115952	3
140.079788	50
151.996170	105
153.037277	91
164.127396	1
182.103043	19
183.027969	14
200.067093	999
224.003403	1
225.001541	5
