Mass spectrum: NADH; LC-ESI-ITFT; MS2; m/z:334.07; POS
Name: NADH
Name: DPNH
Class: Natural Product
Formula: C21H29N7O14P2
Exact mass: 665.12477
SMILES: NC(=O)C(C5)=CN(C=C5)[C@H](O1)[C@H](O)[C@H](O)[C@@H](COP(O)(=O)OP(O)(=O)OC[C@@H](O2)[C@@H](O)[C@@H](O)[C@@H]2n(c4)c(n3)c(n4)c(N)nc3)1
InChI: InChI=1S/C21H29N7O14P2/c22-17-12-19(25-7-24-17)28(8-26-12)21-16(32)14(30)11(41-21)6-39-44(36,37)42-43(34,35)38-5-10-13(29)15(31)20(40-10)27-3-1-2-9(4-27)18(23)33/h1,3-4,7-8,10-11,13-16,20-21,29-32H,2,5-6H2,(H2,23,33)(H,34,35)(H,36,37)(H2,22,24,25)/t10-,11-,13-,14-,15-,16-,20-,21-/m1/s1
Instrument: LTQ Orbitrap XL, Thermo Scientfic
Instrument type: LC-ESI-ITFT
Ms type: MS2
Ion mode: POSITIVE
Collision energy: 35eV
Ionization: ESI
Column name: TOSOH TSKgel ODS-100V  5um Part no. 21456
Retention time: 9.539955 min
Base peak: 325.229187
Precursor m/z: 334.07
m/z	relative intensity
136.153885	55
137.103424	3
178.180191	1
232.235626	1
301.210205	7
302.223022	21
303.210999	2
312.209229	1
316.222382	3
319.203461	17
320.190826	8
321.260620	1
325.229187	999
326.171722	3
327.113068	1
330.268402	1
348.175354	31
349.317596	2
354.175323	1
372.222046	5
373.139343	1
398.209961	2
400.053802	8
401.153961	1
416.173920	1
468.254089	1
496.110260	21
497.177063	4
514.046387	29
515.142029	5
531.277954	1
532.170227	1
