Mass spectrum: L-Cysteine Sulfinic acid; LC-ESI-ITFT; MS; NEG
Name: 3-Sulfino-L-alanine
Name: L-Cysteinesulfinic acid
Name: 3-Sulphino-L-alanine
Name: 3-Sulfinoalanine
Name: L-Cysteine Sulfinic acid
Class: Natural Product
Formula: C3H7NO4S
Exact mass: 153.00958
SMILES: N[C@H](C(O)=O)CS(O)=O
InChI: InChI=1S/C3H7NO4S/c4-2(3(5)6)1-9(7)8/h2H,1,4H2,(H,5,6)(H,7,8)/t2-/m0/s1
Instrument: LTQ Orbitrap XL, Thermo Scientfic
Instrument type: LC-ESI-ITFT
Ms type: MS
Ion mode: NEGATIVE
Collision energy: 35eV
Ionization: ESI
Column name: TOSOH TSKgel ODS-100V  5um Part no. 21456
Retention time: 6.689530 min
Base peak: 259.021942
m/z	relative intensity
101.024465	1
138.977476	2
138.979953	41
138.981810	2
150.979747	1
151.904014	1
151.969472	2
151.986109	1
151.988941	1
151.990357	1
151.991773	1
151.993898	2
151.996022	3
151.997084	3
151.999208	12
152.000270	8
152.002041	329
152.004519	11
152.007706	3
152.009830	1
152.010893	1
152.012309	1
152.015496	1
152.017975	1
152.023641	1
152.034619	1
152.100163	1
153.001495	2
153.005071	6
153.997840	13
154.006145	2
160.841743	1
160.962052	1
162.838737	1
167.993728	1
167.997019	29
167.999487	1
168.990385	10
168.999931	1
169.992587	1
173.983446	1
177.936103	1
183.991362	1
183.993248	1
184.352604	1
184.875804	1
186.865012	1
198.993261	1
198.996443	1
198.998034	1
199.000686	49
199.003869	2
200.004224	1
200.906649	1
201.005142	1
212.902908	1
222.958476	1
222.972314	1
223.000624	4
228.875424	3
230.872543	1
231.939302	1
241.010910	2
241.897680	2
242.917341	2
243.894522	1
249.905756	1
249.969211	1
252.919806	1
257.006200	1
258.804405	2
258.886232	1
258.940542	1
258.949202	4
258.963373	1
258.966523	1
258.970459	1
258.975184	1
258.980696	1
258.983058	1
258.985420	1
258.992507	2
258.998807	2
259.003532	5
259.009045	8
259.011407	7
259.015345	29
259.021646	999
259.027159	27
259.034248	8
259.037399	3
259.038974	4
259.041337	3
259.045276	3
259.047639	2
259.050002	1
259.052365	2
259.057879	2
259.062606	1
259.067333	1
259.069696	1
259.072060	1
259.074423	1
259.076787	1
259.094908	4
259.098848	1
259.239949	2
260.018466	2
260.024804	60
260.028764	2
260.030349	1
260.037479	1
260.927062	1
261.025832	12
261.029019	1
272.088270	1
282.980285	1
287.925011	1
302.937914	2
305.003511	1
305.011562	27
305.017601	1
306.014403	1
306.076106	7
307.006952	2
307.079123	1
316.980796	3
318.977637	1
320.948862	4
325.183485	1
326.993535	8
328.968618	5
329.935701	1
336.999204	1
338.914837	1
338.959635	1
338.987934	1
342.958562	1
348.917269	3
348.927120	1
350.914450	1
356.924598	1
356.989580	3
356.998501	1
357.922948	1
358.930633	1
358.946050	1
360.970471	1
366.938981	2
378.971741	1
382.904838	1
411.886933	1
411.994348	1
412.005408	1
412.018048	4
412.022788	3
412.030689	180
412.041750	4
412.055972	1
413.034330	16
413.045431	1
414.027317	8
414.035275	3
426.020086	1
428.025679	6
429.029593	1
434.013690	47
434.023940	1
435.016470	3
435.988329	10
436.008969	1
436.015849	1
436.992787	1
442.925724	1
449.977726	3
449.986743	1
450.008385	1
453.953293	2
454.950834	1
455.947987	21
455.995815	2
456.946577	1
456.953959	1
457.049939	1
457.944748	2
458.020669	1
459.085543	1
463.953951	1
464.942984	1
465.950384	12
466.953436	1
467.950168	1
473.959138	1
477.929618	1
502.947770	1
518.435203	1
518.845802	1
518.919494	1
518.968630	1
518.986500	1
518.990967	1
518.999903	1
519.006604	1
519.013306	2
519.022242	2
519.033412	10
519.040114	5
519.051285	452
519.066924	8
519.071393	8
519.080330	2
519.087033	3
519.100440	1
519.107143	1
519.118316	1
519.151837	1
519.259125	1
519.670704	1
520.035718	1
520.053642	58
520.069327	1
520.073809	1
521.054412	13
522.058074	1
527.035557	1
541.013977	1
541.021109	1
541.032997	59
541.049641	1
542.035352	8
543.009416	7
543.035713	1
544.012476	1
551.934588	1
557.008564	1
560.971164	1
561.971567	1
562.167940	1
562.967078	11
563.970297	1
564.165187	1
564.963515	1
565.042172	3
566.104382	3
567.108348	1
571.964246	2
572.970892	4
584.947969	1
587.022265	7
588.025836	1
588.999573	2
602.987660	1
606.883716	1
608.956628	3
609.004896	2
610.980256	1
611.142925	2
618.961137	1
630.938346	1
640.942626	1
672.060243	14
673.065321	2
674.066043	1
688.057910	1
694.043502	9
695.046383	2
696.020215	2
697.020431	1
710.007357	2
715.978148	7
716.025204	2
716.981808	1
717.969406	1
725.981134	4
731.990327	1
737.960802	1
740.033123	1
747.961803	1
779.080038	24
780.083459	4
781.084695	1
801.062639	8
802.065924	2
803.040998	3
803.066795	1
804.043695	1
808.121064	1
817.026421	1
822.997773	4
823.046843	2
824.051499	1
825.022178	1
825.071429	3
826.070824	1
831.992146	1
832.999604	2
847.051399	2
849.029695	1
878.988833	1
905.980119	1
922.959224	1
932.090525	4
933.091333	1
954.074101	1
956.053702	1
976.008831	1
978.034012	1
984.999688	1
986.010884	1
1005.975263	5
1006.976678	1
1039.106639	1
1061.092474	1
1063.067366	1
1083.022226	1
1093.030069	1
1105.965432	7
1106.966746	2
1115.012378	1
1155.955800	2
1165.992843	2
1166.993939	1
1205.956640	3
1206.962121	1
1255.944988	5
1256.954705	2
1257.948782	2
1258.952477	1
1265.986573	5
1305.944986	1
1355.939238	4
1356.949159	1
1357.931847	1
1365.974981	3
1455.936047	2
1457.921777	1
1465.958479	1
1466.987641	1
