Mass spectrum: NAD+; LC-ESI-ITFT; MS2; m/z:620.02; NEG
Name: NAD+
Name: NAD
Name: Nicotinamide adenine dinucleotide
Name: DPN
Name: Diphosphopyridine nucleotide
Name: Nadide
Class: Natural Product
Formula: [C21H28N7O14P2]+
Exact mass: 664.11695
SMILES: NC(=O)c(c5)c[n+1](cc5)C(O1)C(O)C(O)C(COP(O)(=O)OP(O)(=O)OCC(O2)C(O)C(O)C2n(c4)c(n3)c(n4)c(N)nc3)1
InChI: InChI=1S/C21H27N7O14P2/c22-17-12-19(25-7-24-17)28(8-26-12)21-16(32)14(30)11(41-21)6-39-44(36,37)42-43(34,35)38-5-10-13(29)15(31)20(40-10)27-3-1-2-9(4-27)18(23)33/h1-4,7-8,10-11,13-16,20-21,29-32H,5-6H2,(H5-,22,23,24,25,33,34,35,36,37)/p+1/t10-,11-,13-,14-,15-,16-,20-,21-/m1/s1
Instrument: LTQ Orbitrap XL, Thermo Scientfic
Instrument type: LC-ESI-ITFT
Ms type: MS2
Ion mode: NEGATIVE
Collision energy: 35eV
Ionization: ESI
Column name: TOSOH TSKgel ODS-100V  5um Part no. 21456
Retention time: 8.870880 min
Base peak: 408.120911
Precursor m/z: 620.02
m/z	relative intensity
175.186188	4
176.993103	7
193.114777	1
211.253662	1
214.143219	3
221.100922	1
237.125488	1
239.016876	3
255.076263	20
273.142700	208
291.171265	37
310.272888	3
328.303986	52
335.093750	1
346.253906	25
353.057495	48
370.168762	1
371.116699	59
387.148132	7
390.205017	17
408.120911	999
424.265320	5
426.207703	141
449.132568	1
467.140747	24
468.295227	4
470.160339	5
485.070801	175
485.688232	1
488.107178	149
488.779297	1
498.142578	1
504.195313	16
506.056458	435
506.698425	2
522.137817	343
540.060120	45
560.112122	3
584.162415	39
601.995056	615
602.667175	1
