Mass spectrum: L-Leucine; LC-ESI-ITFT; MS2; m/z:132.10; POS
Name: L-Leucine
Name: 2-Amino-4-methylvaleric acid
Name: (2S)-alpha-2-Amino-4-methylvaleric acid
Name: (2S)-alpha-Leucine
Class: Natural Product
Formula: C6H13NO2
Exact mass: 131.09463
SMILES: CC(C)C[C@H](N)C(O)=O
InChI: InChI=1S/C6H13NO2/c1-4(2)3-5(7)6(8)9/h4-5H,3,7H2,1-2H3,(H,8,9)/t5-/m0/s1
Instrument: LTQ Orbitrap XL, Thermo Scientfic
Instrument type: LC-ESI-ITFT
Ms type: MS2
Ion mode: POSITIVE
Collision energy: 35eV
Ionization: ESI
Column name: TOSOH TSKgel ODS-100V  5um Part no. 21456
Retention time: 9.690845 min
Base peak: 85.967850
Precursor m/z: 132.10
m/z	relative intensity
85.967850	999
