Mass spectrum: Hypoxanthine; LC-ESI-ITFT; MS; NEG
Name: Hypoxanthine
Name: Purine-6-ol
Class: Natural Product
Formula: C5H4N4O
Exact mass: 136.03851
SMILES: C1=NC2=C(N1)C(=O)N=CN2
InChI: InChI=1S/C5H4N4O/c10-5-3-4(7-1-6-3)8-2-9-5/h1-2H,(H2,6,7,8,9,10)
Instrument: LTQ Orbitrap XL, Thermo Scientfic
Instrument type: LC-ESI-ITFT
Ms type: MS
Ion mode: NEGATIVE
Collision energy: 35eV
Ionization: ESI
Column name: TOSOH TSKgel ODS-100V  5um Part no. 21456
Retention time: 5.484573 min
Base peak: 135.031052
m/z	relative intensity
101.652008	1
101.766152	1
102.307896	1
102.332143	1
102.948835	1
103.085536	1
103.445973	1
103.622118	1
104.355984	1
104.553240	1
106.028582	29
106.122084	1
107.032769	3
107.034651	3
107.036325	100
107.037999	4
107.659996	1
107.950352	1
108.019253	1
108.039618	3
109.327193	1
109.581184	1
109.868908	1
110.017228	1
111.019937	11
112.878853	1
112.983606	1
112.985648	61
112.987463	1
113.125094	1
114.061981	1
114.526459	1
114.951389	3
115.003565	1
115.504295	1
115.929732	1
116.190761	1
116.481643	1
117.020762	5
117.324613	1
117.874921	1
118.147646	1
119.010761	1
119.416032	1
119.494472	1
120.660869	1
121.972089	1
125.233911	1
125.434060	1
129.250460	1
132.031316	3
132.197430	1
132.324162	1
132.750522	1
133.015327	7
134.020053	2
134.023277	8
134.042626	4
134.044679	8
134.047318	214
134.049370	7
134.052009	2
134.201683	1
134.638928	1
134.949086	2
134.999747	1
135.003896	7
135.019012	2
135.021383	3
135.022569	3
135.023458	4
135.025829	47
135.028794	33
135.031165	999
135.033537	35
135.035909	12
135.037391	2
135.039170	5
135.042728	2
135.045100	1
135.050140	3
135.051326	1
135.058146	7
135.113023	2
135.230601	1
136.027683	7
136.031579	2
136.034277	44
136.036076	2
136.954993	1
137.029211	1
137.034969	2
137.194222	1
138.524182	1
139.006578	9
139.343456	1
140.009942	1
141.036233	1
142.890651	1
143.889796	1
144.890890	1
145.890482	2
146.199925	1
147.707387	1
148.952117	2
150.041664	4
150.108355	1
150.328889	1
151.026022	1
151.873599	1
151.913211	1
152.265094	1
154.959843	1
155.130908	1
156.894379	1
158.362283	1
160.892241	2
161.045036	1
163.331768	1
164.826369	1
164.894756	1
165.429718	1
165.494860	1
165.572116	1
165.686490	1
166.937381	1
166.974470	2
167.020543	7
168.041458	1
170.023578	40
171.007534	26
172.010710	2
172.020514	11
173.004682	8
175.615100	1
176.851396	1
177.579240	1
177.909200	1
178.086872	9
179.034442	3
180.052112	2
181.036138	2
181.491215	1
184.373413	2
188.969904	2
188.998864	1
190.965394	23
190.988331	1
191.019252	7
192.989114	2
192.991140	1
193.909201	1
194.746511	1
197.042264	15
198.026267	6
198.045748	1
199.153522	1
200.360605	1
203.017627	5
204.337303	1
205.356509	1
206.081763	5
206.971664	2
210.304029	1
210.844970	1
210.998915	1
212.972768	1
213.972167	2
214.968494	13
215.975993	2
218.982570	2
219.968520	1
220.508838	1
221.929890	1
222.489368	1
224.077857	3
224.478273	1
224.926281	2
225.062093	4
226.014305	1
226.597687	1
226.882800	1
231.935298	2
232.014065	2
232.424569	1
232.959049	1
232.998017	1
233.007424	1
233.262314	1
233.938884	2
234.914030	1
234.955530	15
235.166604	1
238.108013	4
241.148815	1
242.963127	8
243.395152	1
246.073643	3
247.058211	4
248.039105	27
248.124002	1
249.023624	5
249.042929	2
249.131314	1
250.435040	1
253.679930	1
254.980336	2
256.049856	1
256.678018	1
257.278866	1
264.988043	7
266.102349	4
266.489866	1
267.072731	3
267.860318	1
269.067007	12
269.101199	2
270.071275	2
270.084692	9
270.991813	2
271.044919	2
271.055879	3
271.062624	9
271.069369	357
271.076115	8
271.083704	3
271.087920	1
271.146959	1
272.066225	6
272.072160	25
272.075551	3
272.847066	1
273.070294	1
273.072851	1
274.061073	3
275.017612	1
275.045188	2
277.920973	2
278.919810	1
279.953244	3
280.858993	9
280.920362	3
280.981752	1
283.095439	1
286.079541	10
288.968103	1
289.660751	1
290.701125	1
292.409158	1
293.050710	57
293.058293	1
293.660146	1
294.047487	2
294.054155	4
298.869178	3
298.929709	1
305.076989	2
305.767775	1
306.048792	5
306.874875	2
307.051674	1
308.061537	2
309.025066	2
316.940283	2
323.980348	4
324.987478	9
325.553835	1
325.991528	2
326.989067	1
328.140503	24
329.143417	3
329.777242	1
330.060285	5
330.858158	1
332.995809	1
334.405480	1
334.990853	1
336.884689	2
346.053633	2
346.970056	2
351.006372	1
355.021257	5
356.134762	8
357.276479	1
358.150780	3
359.956771	1
360.886264	3
365.230544	1
365.991312	2
369.438995	1
369.985623	1
370.905668	1
370.993406	1
374.145477	5
374.968578	1
378.856079	1
378.896485	28
379.001014	3
380.901180	1
382.083702	1
383.758449	1
385.886388	1
389.477332	1
395.943507	1
396.906839	2
401.610850	1
404.924805	1
405.239034	1
405.956661	1
407.107283	5
407.850110	1
415.686001	1
419.080415	2
421.154692	1
422.955021	1
424.102801	1
425.401098	1
428.932231	1
429.088361	2
431.332238	5
432.335924	1
436.625404	1
437.336441	1
442.983847	2
445.053794	2
447.325907	2
449.320212	1
449.376000	1
451.072572	4
453.883862	1
456.347398	1
458.415390	1
459.277020	3
461.026286	10
462.030358	3
464.178712	8
464.275088	1
465.181732	1
466.096738	1
470.978898	3
475.320839	6
476.038229	2
479.435386	1
485.857789	1
486.163455	1
487.303639	1
489.921665	1
489.940104	39
490.259885	2
490.943544	3
491.315742	2
492.172786	4
493.236901	2
493.311415	2
494.190293	2
495.984327	2
496.989655	1
499.274969	2
499.500571	1
503.267574	3
503.955117	5
504.920476	1
504.939769	69
504.952631	2
505.942359	5
506.943625	2
507.310421	1
507.950029	31
508.955095	2
509.306704	6
513.018507	1
513.950596	30
514.953662	2
517.333017	2
518.892695	19
519.310546	9
519.899072	2
520.315897	4
521.308429	1
521.965688	5
522.752879	1
522.949390	60
522.967466	1
523.954002	7
524.954695	2
525.079699	1
526.215869	1
526.921279	1
528.664612	1
529.140313	1
529.946101	17
530.950149	2
531.961689	11
532.311886	2
532.964499	1
533.306379	7
533.327321	2
533.434378	1
534.312996	1
535.306085	24
535.322465	3
535.945460	15
536.308985	5
537.302940	14
538.306741	5
541.218497	15
541.280351	2
542.221367	2
542.904243	3
543.145707	2
543.215068	7
544.216300	15
545.215492	19
545.326149	2
546.217439	9
547.217313	24
547.258429	2
547.304388	2
547.955692	11
548.219935	4
549.208293	1
549.218019	8
549.960453	2
550.223709	1
550.323698	1
550.943751	20
551.317753	1
551.821914	1
551.949287	2
555.264169	5
556.266689	2
559.955905	7
560.951083	2
561.320247	16
561.357938	2
562.019392	1
562.324104	4
562.903993	1
563.280139	1
563.300345	83
563.312975	2
563.333183	1
564.304456	21
564.317119	1
564.897557	7
565.032022	1
565.125922	1
565.296017	3
565.306174	3
567.103245	1
567.276786	6
568.283874	2
575.949369	3
576.296846	1
578.304236	1
578.317373	1
579.311866	4
585.927465	3
586.933601	1
588.910461	1
592.253813	12
592.275599	1
593.259915	3
597.064679	4
599.292505	2
600.216576	1
600.925643	2
607.327423	4
611.302803	6
613.163127	1
613.283625	6
615.242374	2
618.039903	1
619.045517	2
619.418158	1
621.046578	1
625.337825	2
625.757564	1
625.976469	4
625.991264	1
631.258848	2
631.288814	9
632.260865	1
632.287899	1
633.262259	3
634.042767	1
635.266148	2
636.283790	2
640.976350	3
641.623754	1
644.733234	1
645.296517	1
649.989121	2
653.333176	4
654.929383	4
655.338065	1
655.347574	1
657.310804	2
659.369230	1
660.243385	2
665.210470	1
679.183538	3
680.187886	1
680.271682	1
681.271726	2
682.290813	3
683.291940	3
686.261023	1
686.954440	1
688.426324	1
691.765722	1
691.879173	1
694.043502	1
701.165690	8
703.317388	3
715.370457	1
717.257549	1
731.638742	1
747.204889	2
754.708560	1
757.694422	1
758.459441	1
762.015752	2
766.514467	1
772.320810	1
773.534703	1
777.062626	1
786.028304	1
788.168538	1
790.972762	1
796.146488	1
798.328208	1
800.061236	1
802.018719	1
815.220419	2
816.232803	1
819.799910	1
829.711718	1
839.142658	1
845.614021	1
848.595183	1
857.605403	1
859.592240	1
861.834501	1
880.507243	1
882.970670	1
891.141580	1
891.584031	1
891.639361	2
892.273503	4
893.629613	2
896.640191	1
903.589165	1
903.635352	3
904.626652	1
904.642074	2
905.980119	5
907.274666	3
908.271962	2
916.283667	2
917.285361	1
917.652885	16
918.651565	10
919.630801	29
919.657146	3
920.632712	15
921.630976	4
922.075170	1
922.641454	2
928.242259	1
928.915855	1
930.731795	1
938.554070	4
939.559867	2
940.556383	1
945.310177	1
946.585410	1
947.659262	1
948.585893	21
949.585749	13
950.587187	4
963.485728	1
971.307800	1
980.564212	1
983.663559	1
988.619103	1
991.792154	1
994.820427	1
998.768419	1
1005.969235	18
1006.976678	1
1009.662521	2
1010.663378	1
1013.424944	1
1016.571282	2
1017.576299	2
1018.576665	1
1019.277184	1
1027.603160	2
1028.605887	1
1030.103362	1
1030.584494	1
1037.633699	5
1038.606879	1
1038.638499	3
1039.613093	2
1041.166413	1
1043.264148	1
1065.994028	1
1069.309249	1
1077.581738	1
1078.183467	1
1078.604977	1
1085.876230	1
1105.902895	2
1105.965432	18
1106.966746	4
1107.370437	1
1113.213778	1
1116.519242	1
1117.676103	1
1128.584605	1
1138.825403	1
1139.973482	1
1150.229994	1
1165.985321	19
1166.986407	5
1171.791429	1
1193.489536	1
1202.199226	1
1204.336270	1
1205.956640	11
1206.962121	2
1213.492562	1
1218.242456	1
1230.839344	1
1232.717915	1
1233.969956	3
1247.203230	1
1255.953397	2
1257.957211	1
1260.422230	1
1265.978062	39
1266.020614	1
1266.982865	8
1267.980333	1
1275.391464	1
1282.971940	2
1283.979661	1
1290.655241	1
1304.911301	2
1305.936070	2
1314.997313	1
1315.195539	1
1333.966349	9
1334.574079	1
1334.970248	3
1355.948671	2
1357.931847	1
1365.974981	23
1366.977040	8
1367.980202	2
1381.830596	1
1382.966749	1
1384.347552	1
1390.332142	1
1392.734885	1
1405.957398	1
1412.443793	1
1433.640026	1
1433.958002	6
1434.963914	2
1465.969084	13
1466.955795	3
1472.171088	1
1474.436123	1
1483.969865	2
1487.009430	1
