Mass spectrum: 3',5'-Cyclic AMP; LC-ESI-ITFT; MS; NEG
Name: 3',5'-Cyclic AMP
Name: Cyclic adenylic acid
Name: Cyclic AMP
Name: Adenosine 3',5'-phosphate
Name: cAMP
Class: Natural Product
Formula: C10H12N5O6P
Exact mass: 329.05252
SMILES: Nc(n4)c(n3)c(nc4)n(c3)[C@H](O1)[C@H](O)[C@H](O2)[C@@H](COP(O)(=O)2)1
InChI: InChI=1S/C10H12N5O6P/c11-8-5-9(13-2-12-8)15(3-14-5)10-6(16)7-4(20-10)1-19-22(17,18)21-7/h2-4,6-7,10,16H,1H2,(H,17,18)(H2,11,12,13)/t4-,6-,7-,10-/m1/s1
Instrument: LTQ Orbitrap XL, Thermo Scientfic
Instrument type: LC-ESI-ITFT
Ms type: MS
Ion mode: NEGATIVE
Collision energy: 35eV
Ionization: ESI
Column name: TOSOH TSKgel ODS-100V  5um Part no. 21456
Retention time: 9.798500 min
Base peak: 328.044250
m/z	relative intensity
107.034937	1
107.036402	16
107.038075	1
112.638470	1
133.965678	1
134.019597	3
134.021649	1
134.026632	1
134.032789	1
134.034841	1
134.036600	1
134.037479	1
134.039239	3
134.041877	7
134.044516	18
134.046862	515
134.048914	19
134.050381	2
134.051553	7
134.054193	3
134.055952	1
134.058298	1
134.060644	1
134.066803	1
134.073548	4
134.127826	1
134.984767	9
135.044046	7
135.047604	1
135.050273	23
135.052645	1
138.979783	1
150.979901	1
162.979942	2
164.995393	1
174.979931	2
191.019518	1
192.990400	14
193.993680	1
327.733929	2
327.941402	4
327.948134	1
327.954866	1
327.968332	1
327.977309	1
327.980676	1
327.984042	1
327.987409	1
327.991898	1
327.998632	2
328.001999	1
328.005366	1
328.008733	1
328.015467	4
328.025569	9
328.036793	21
328.044651	999
328.053631	24
328.058122	2
328.062612	9
328.068226	1
328.072716	4
328.079452	2
328.081698	1
328.088434	2
328.091803	1
328.097417	1
328.106399	1
328.108645	1
328.113137	1
328.122120	1
328.133350	1
328.142334	1
328.146826	4
328.354691	1
328.943402	1
329.027955	1
329.047125	103
329.052763	1
329.056147	2
329.065169	1
330.047404	7
330.053068	1
331.051114	1
396.032348	1
402.010573	4
426.011259	1
427.969950	1
435.977481	1
656.216131	1
656.804073	2
656.966294	1
657.014017	1
657.042654	3
657.058563	1
657.074474	8
657.096750	514
657.122209	9
657.134939	1
657.147670	3
657.166767	1
657.176315	2
657.195413	1
657.220878	1
657.389622	2
657.979143	1
658.046112	1
658.078005	2
658.100332	115
658.116280	1
658.125850	2
658.151369	1
659.103018	13
660.104793	1
679.079074	12
680.083191	2
711.015554	1
719.023763	1
720.022886	1
757.024112	1
986.050750	1
986.097551	1
986.150206	149
986.179461	2
986.197015	2
986.243826	1
987.151456	32
988.154232	6
989.152659	1
1008.129660	2
1009.140352	1
1029.946106	1
1040.061756	1
1315.194226	4
1315.212248	3
1316.213091	2
1317.197013	1
