Mass spectrum: Cytidine; LC-ESI-ITFT; MS; NEG
Name: Cytidine
Class: Natural Product
Formula: C9H13N3O5
Exact mass: 243.08552
SMILES: OC[C@@H](O1)[C@@H](O)[C@@H](O)[C@@H]1N(C=2)C(=O)N=C(N)C2
InChI: InChI=1S/C9H13N3O5/c10-5-1-2-12(9(16)11-5)8-7(15)6(14)4(3-13)17-8/h1-2,4,6-8,13-15H,3H2,(H2,10,11,16)/t4-,6-,7-,8-/m1/s1
Instrument: LTQ Orbitrap XL, Thermo Scientfic
Instrument type: LC-ESI-ITFT
Ms type: MS
Ion mode: NEGATIVE
Collision energy: 35eV
Ionization: ESI
Column name: TOSOH TSKgel ODS-100V  5um Part no. 21456
Retention time: 5.446143 min
Base peak: 540.053894
m/z	relative intensity
108.033119	1
109.029842	1
109.037156	1
109.038877	1
109.041028	39
109.042964	1
110.036279	14
110.044130	1
112.985735	8
122.037373	2
124.007380	2
133.014296	3
134.047155	6
135.045232	7
139.007027	2
150.056055	1
152.046464	13
153.049576	1
158.925325	12
174.979931	2
179.034665	2
192.990906	3
196.014002	1
196.049263	1
196.052375	2
196.057043	3
196.061192	172
196.066379	3
196.069491	2
196.072603	1
196.074678	1
196.108918	1
197.064500	13
198.065523	1
199.072070	1
208.061445	1
211.000984	8
232.037829	1
241.881042	1
242.012581	3
242.023251	1
242.036056	1
242.038190	1
242.043170	1
242.044593	1
242.046728	1
242.048862	1
242.051708	1
242.054554	1
242.055977	1
242.060957	3
242.065938	7
242.071631	13
242.078035	775
242.084439	13
242.086574	2
242.089421	7
242.093691	2
242.095826	4
242.098673	1
242.102943	1
242.105790	1
242.107213	1
242.110060	1
242.112907	1
242.115754	1
242.118601	1
242.121448	1
242.134261	1
242.143515	3
242.167009	1
242.274556	1
243.061605	1
243.068764	1
243.075208	3
243.080936	68
243.087381	1
243.092393	1
244.081438	5
245.085229	1
254.946176	1
259.022108	1
264.048921	1
272.949778	1
272.957446	37
272.965114	1
273.960461	1
278.047590	1
278.055474	33
279.058560	2
280.052032	10
281.055269	1
287.828679	1
287.999432	2
288.029907	1
288.032678	1
288.049302	1
288.052997	1
288.055768	1
288.059463	2
288.062234	2
288.067776	5
288.076090	9
288.078861	3
288.083480	581
288.092718	9
288.095490	1
288.098261	5
288.103805	2
288.107500	2
288.116740	1
288.125980	1
288.128752	1
288.136144	1
288.168489	2
288.339544	1
289.080071	3
289.086572	61
289.093072	1
289.095858	1
290.086510	4
290.090244	2
290.966890	1
305.073594	6
306.049428	2
318.094339	1
328.044651	26
329.048253	3
332.109716	5
333.112517	1
340.045329	3
340.054807	1
342.002566	1
346.055630	20
347.058776	2
350.010383	1
356.070845	6
366.009386	1
367.092627	1
378.897410	1
380.485318	1
386.011971	1
387.968062	1
393.129933	7
394.133268	1
403.147506	1
407.997487	1
408.011501	47
408.025515	1
409.014549	3
426.021226	32
426.968084	1
427.024762	3
428.026828	1
439.117644	1
439.133290	1
439.147199	92
439.155893	1
439.162848	1
439.175019	1
440.150389	17
441.153518	1
485.163895	7
486.166869	1
487.553078	1
489.941511	2
493.149348	1
504.941269	1
507.951549	1
512.609774	2
513.112275	1
514.997175	1
518.894282	1
521.141413	7
522.145327	2
523.138581	2
529.475564	1
529.947752	1
531.129831	1
531.150645	1
531.171460	116
531.192277	1
531.206155	1
532.174356	21
533.177768	2
535.001363	1
538.074907	2
539.397887	1
539.836016	3
539.871563	1
539.914224	1
539.923705	1
539.933187	1
539.942668	1
539.949779	1
539.956891	1
539.966373	1
539.975855	1
539.980597	1
539.990079	2
539.997192	3
540.013787	7
540.020900	3
540.035126	12
540.054094	999
540.075435	11
540.082549	2
540.092035	7
540.106263	2
540.113378	3
540.122864	1
540.127607	1
540.137094	1
540.146581	1
540.151324	1
540.160811	1
540.170299	1
540.179787	1
540.189275	1
540.198763	1
540.217740	1
540.272305	3
540.554753	3
540.709124	1
541.015688	1
541.025198	1
541.037086	2
541.044219	1
541.056107	173
541.072752	1
541.077508	2
541.094153	1
542.058527	26
543.061345	3
547.955018	1
548.158638	1
549.134674	1
558.064941	1
562.036325	3
564.012626	1
573.631517	1
575.085258	1
576.021793	1
583.131278	1
586.060753	1
592.964460	1
593.975110	1
599.155983	1
601.078015	2
601.579481	1
601.981106	1
634.153623	1
634.651741	1
661.806305	1
662.015434	1
662.025088	1
662.034743	1
662.047616	2
662.057271	1
662.076582	4
662.102332	410
662.121645	3
662.131301	4
662.140958	1
662.153835	2
662.173150	1
662.182808	1
662.195686	1
662.398557	1
662.604744	11
663.049663	1
663.078695	1
663.104503	90
663.123860	1
663.133539	1
663.608057	1
664.105718	9
665.109202	1
672.168079	1
672.668810	1
682.232765	10
683.237139	3
684.084827	1
695.177132	1
695.679530	1
716.020740	1
728.251014	1
730.088698	1
737.127397	1
760.637697	1
761.141299	1
764.229317	1
772.169898	2
774.253745	8
775.260088	2
776.260223	1
783.647133	19
784.111533	1
784.148869	11
784.646936	3
785.149633	1
793.710785	1
794.217991	1
816.716716	1
817.219653	1
859.172409	8
860.177222	2
861.174248	1
905.067881	1
905.098747	1
905.114181	1
905.129615	1
905.150195	2
905.160485	2
905.186211	227
905.222229	2
905.237666	2
905.268541	1
905.283979	1
905.314856	1
905.695807	3
906.190373	57
906.221297	1
906.236759	1
906.695660	1
907.196207	10
908.193375	1
915.758849	1
925.314805	1
938.265177	1
938.759491	1
993.652524	2
993.664359	2
994.155719	2
994.653371	1
994.665224	1
1026.737517	3
1027.234954	3
1027.726528	1
1027.738977	1
1028.224684	1
1036.799511	1
1059.793004	1
1102.249061	2
1115.194111	1
1116.200943	1
1125.759297	1
1148.270826	35
1148.770882	2
1149.271265	14
1149.315432	1
1150.273011	3
1151.276068	1
1158.833538	1
1181.336266	1
1181.850402	1
1203.167229	1
1236.724975	1
1236.757844	1
1237.242806	1
1265.976780	1
1269.806528	1
1270.302506	1
1270.328168	1
1270.824452	1
1271.329592	1
1325.199396	2
1325.226739	2
1326.229912	1
1345.350181	1
1347.198031	1
1358.299291	1
1365.992715	1
1391.369576	5
1391.859975	1
1392.350634	3
1392.370265	3
1393.352382	1
1393.381862	1
