Mass spectrum: Adenine; LC-ESI-ITFT; MS2; m/z:137.06; POS
Name: Adenine
Name: 6-Aminopurine
Class: Natural Product
Formula: C5H5N5
Exact mass: 135.05450
SMILES: C1=NC2=C(N1)C(=NC=N2)N
InChI: InChI=1S/C5H5N5/c6-4-3-5(9-1-7-3)10-2-8-4/h1-2H,(H3,6,7,8,9,10)
Instrument: LTQ Orbitrap XL, Thermo Scientfic
Instrument type: LC-ESI-ITFT
Ms type: MS2
Ion mode: POSITIVE
Collision energy: 35eV
Ionization: ESI
Column name: TOSOH TSKgel ODS-100V  5um Part no. 21456
Retention time: 5.518288 min
Base peak: 119.071198
Precursor m/z: 137.06
m/z	relative intensity
93.965027	210
95.087021	233
112.019623	46
119.071198	999
120.067688	256
137.068054	40
