Mass spectrum: L-Tryptophan; LC-ESI-ITFT; MS; POS
Name: L-Tryptophan
Name: Tryptophan
Name: (S)-alpha-Amino-beta-(3-indolyl)-propionic acid
Class: Natural Product
Formula: C11H12N2O2
Exact mass: 204.08988
SMILES: C1=CC=C2C(=C1)C(=CN2)C[C@@H](C(=O)O)N
InChI: InChI=1S/C11H12N2O2/c12-9(11(14)15)5-7-6-13-10-4-2-1-3-8(7)10/h1-4,6,9,13H,5,12H2,(H,14,15)/t9-/m0/s1
Instrument: LTQ Orbitrap XL, Thermo Scientfic
Instrument type: LC-ESI-ITFT
Ms type: MS
Ion mode: POSITIVE
Collision energy: 35eV
Ionization: ESI
Column name: TOSOH TSKgel ODS-100V  5um Part no. 21456
Retention time: 13.963228 min
Base peak: 205.096680
m/z	relative intensity
100.111848	3
102.033553	3
110.019746	6
111.019815	1
118.064726	1
130.064906	1
132.080388	3
143.072629	1
144.080628	5
146.059807	13
149.022904	1
158.002552	2
158.096003	1
158.961247	1
159.091551	6
162.998158	1
163.132671	2
167.012526	1
170.059836	2
170.096285	1
171.149125	22
172.152025	1
174.127584	10
179.063653	2
182.984796	3
185.114619	1
187.126544	3
188.025702	1
188.058335	1
188.060284	1
188.062232	1
188.066129	2
188.070514	181
188.072950	2
188.074411	2
188.075873	1
188.078309	1
188.079770	1
188.115341	1
189.073687	21
190.076493	1
190.992536	2
199.180373	2
204.247535	1
204.806652	1
204.943464	1
205.000002	1
205.045471	4
205.051571	1
205.062664	1
205.065992	1
205.068211	1
205.070430	1
205.072648	1
205.073758	1
205.075977	1
205.078195	1
205.080414	1
205.082633	3
205.087071	5
205.089290	2
205.091509	10
205.096502	999
205.101496	9
205.104270	2
205.107044	4
205.110928	3
205.114257	1
205.116477	1
205.118141	1
205.120361	1
205.122025	1
205.124245	1
205.126465	1
205.129794	1
205.131459	1
205.147553	5
205.193071	1
205.244158	1
205.250267	1
205.387525	1
205.951332	1
206.094323	1
206.099353	116
206.103824	1
206.105501	1
206.150778	1
207.102258	3
283.173748	1
300.200792	1
305.155904	1
391.282894	10
392.286254	2
409.185630	9
410.188058	1
595.371480	3
596.374294	1
