Mass spectrum: Taurine; LC-ESI-ITFT; MS; NEG
Name: Taurine
Name: 2-Aminoethanesulfonic acid
Name: Aminoethylsulfonic acid
Class: Natural Product
Formula: C2H7NO3S
Exact mass: 125.01466
SMILES: NCCS(O)(=O)=O
InChI: InChI=1S/C2H7NO3S/c3-1-2-7(4,5)6/h1-3H2,(H,4,5,6)
Instrument: LTQ Orbitrap XL, Thermo Scientfic
Instrument type: LC-ESI-ITFT
Ms type: MS
Ion mode: NEGATIVE
Collision energy: 35eV
Ionization: ESI
Column name: TOSOH TSKgel ODS-100V  5um Part no. 21456
Retention time: 4.785488 min
Base peak: 249.021469
m/z	relative intensity
102.056155	3
106.980904	1
112.985648	1
123.887083	1
123.935033	2
123.937900	1
123.951196	1
123.971535	1
123.976229	1
123.983271	6
123.986140	1
123.987183	1
123.987966	1
123.989792	1
123.991879	1
123.994487	1
123.995270	1
123.997096	3
123.998661	2
123.999965	1
124.001009	4
124.003096	13
124.005183	39
124.007009	863
124.009096	43
124.011184	11
124.013010	2
124.013532	2
124.014315	2
124.015880	2
124.016924	3
124.019011	1
124.020577	1
124.021099	1
124.022404	1
124.024491	1
124.025796	1
124.026840	1
124.027884	1
124.031015	5
124.033103	1
124.037801	1
124.050852	1
124.076176	1
124.079310	2
124.120839	1
124.127371	1
125.003871	1
125.006511	2
125.008095	1
125.010472	12
126.000775	1
126.002913	28
126.004783	1
126.011197	3
128.034802	1
139.006887	1
146.040746	1
146.043080	2
146.045748	40
146.048082	2
147.048912	1
192.928851	1
221.974246	7
248.679488	1
248.816612	2
248.885588	1
248.953107	4
248.962013	1
248.967208	1
248.971662	1
248.978342	1
248.982053	1
248.985022	1
248.987991	1
248.992445	2
248.996899	1
249.001353	1
249.004322	3
249.010261	11
249.015458	31
249.021397	999
249.025109	14
249.027337	34
249.032534	9
249.037732	2
249.039959	2
249.045899	1
249.049612	3
249.051840	2
249.054810	1
249.057038	1
249.059266	1
249.064464	1
249.070405	1
249.072633	1
249.074861	1
249.077089	1
249.089715	4
249.227178	2
250.020740	12
250.024474	34
251.005072	1
251.011082	2
251.017093	76
251.022353	2
251.024607	7
251.029867	1
252.016391	1
252.020170	2
253.012543	1
264.020885	1
270.996870	1
271.003613	39
271.010356	1
271.053350	1
271.060095	26
271.066840	1
272.002648	1
272.006886	1
272.062833	1
272.979947	1
272.998695	3
273.055801	1
279.981565	1
286.976628	1
293.098106	4
295.017762	1
297.972154	1
306.874875	1
310.948125	1
317.056512	3
324.979730	2
332.986625	3
346.009853	1
346.988373	1
374.015617	1
374.019717	1
374.025184	2
374.036117	66
374.047051	2
375.038550	3
376.031241	7
376.039507	1
378.896485	2
391.005166	1
396.006032	1
396.017943	5
398.014673	1
411.983289	2
417.999768	1
420.031862	3
425.960285	1
426.021747	1
427.955419	16
429.951129	2
435.962531	5
436.961722	1
437.959158	1
442.071040	1
448.985705	2
472.004052	3
489.940104	11
490.943544	1
498.857904	1
499.001079	1
499.017928	3
499.034777	7
499.051627	321
499.066371	7
499.081116	2
499.129569	1
499.245463	1
500.045174	3
500.053624	22
500.064187	1
501.012026	1
501.028977	1
501.045928	53
501.062879	1
502.049689	3
503.041548	2
507.950029	3
521.031942	10
521.088121	6
522.037792	1
522.091880	1
523.028478	1
523.084980	1
535.945460	1
537.006580	1
545.047166	1
551.961537	1
552.969861	4
560.978695	1
574.000982	1
585.927465	1
597.017824	2
614.954158	8
615.958023	1
624.019286	1
624.031066	1
624.042847	4
624.066410	220
624.087028	4
624.107648	1
625.069059	17
626.038612	1
626.062287	40
626.083005	1
627.063819	3
628.055860	3
636.993950	1
646.046642	5
648.042992	1
677.984589	1
685.996171	1
722.031905	1
739.968468	1
749.021866	1
749.048978	2
749.079964	129
749.099331	1
749.110952	3
749.134195	1
750.084185	14
751.074871	25
751.094316	1
751.105983	1
752.079211	3
753.069949	2
753.085566	1
762.007804	1
771.061229	5
771.117864	2
772.065405	1
772.122151	1
773.059361	1
785.059107	1
802.998006	2
811.591386	1
812.583888	1
817.119085	1
864.983628	1
874.061506	1
874.095683	85
874.134744	1
875.097449	10
876.091139	16
877.091431	3
878.088521	2
887.024544	1
896.077400	3
898.072369	1
928.012549	1
936.601467	1
999.060692	1
999.108423	33
1000.111550	6
1001.104220	8
1002.110355	2
1003.106003	1
1005.969235	1
1021.087126	2
1053.034602	1
1062.615663	1
1105.965432	1
1124.120941	13
1125.125627	4
1126.117382	6
1127.117598	1
1128.104829	1
1128.133464	1
1146.106445	1
1148.110317	1
1165.985321	1
1205.956640	1
1249.136085	4
1250.137601	2
1251.140322	2
1265.986573	2
1365.974981	1
1366.986589	1
1374.147530	1
1376.161134	1
1465.969084	1
1499.162852	1
