Mass spectrum: D-Gluconic acid; LC-ESI-ITFT; MS2; m/z:150.04; NEG
Name: D-Gluconic acid
Name: D-Gluconate
Name: D-gluco-Hexonic acid
Class: Natural Product
Formula: C6H12O7
Exact mass: 196.05830
SMILES: OCC(O)C(O)C(O)C(O)C(O)=O
InChI: InChI=1S/C6H12O7/c7-1-2(8)3(9)4(10)5(11)6(12)13/h2-5,7-11H,1H2,(H,12,13)
Instrument: LTQ Orbitrap XL, Thermo Scientfic
Instrument type: LC-ESI-ITFT
Ms type: MS2
Ion mode: NEGATIVE
Collision energy: 35eV
Ionization: ESI
Column name: TOSOH TSKgel ODS-100V  5um Part no. 21456
Retention time: 5.465665 min
Base peak: 132.952469
Precursor m/z: 150.04
m/z	relative intensity
81.954681	2
107.043259	46
108.066040	25
126.055801	1
132.952469	999
149.997726	1
