Mass spectrum: Spermine; LC-ESI-ITFT; MS; POS
Name: Spermine
Name: N,N'-Bis(3-aminopropyl)-1,4-butanediamine
Class: Natural Product
Formula: C10H26N4
Exact mass: 202.21575
SMILES: NCCCNCCCCNCCCN
InChI: InChI=1S/C10H26N4/c11-5-3-9-13-7-1-2-8-14-10-4-6-12/h13-14H,1-12H2
Instrument: LTQ Orbitrap XL, Thermo Scientfic
Instrument type: LC-ESI-ITFT
Ms type: MS
Ion mode: POSITIVE
Collision energy: 35eV
Ionization: ESI
Column name: TOSOH TSKgel ODS-100V  5um Part no. 21456
Retention time: 3.287365 min
Base peak: 102.114944
m/z	relative intensity
100.112037	3
101.816254	1
102.014283	1
102.061203	2
102.063345	1
102.081460	1
102.097047	6
102.099191	1
102.102308	1
102.105232	1
102.106206	1
102.106986	1
102.108350	1
102.108934	1
102.109714	2
102.110494	1
102.111858	6
102.113222	16
102.114976	999
102.115951	21
102.116536	16
102.118290	7
102.119070	1
102.119849	2
102.120629	1
102.121409	1
102.122578	1
102.123358	1
102.124138	1
102.124722	1
102.125307	1
102.127452	1
102.130766	1
102.132910	6
102.148509	1
102.166647	1
102.168792	2
102.215623	1
102.415015	1
102.613420	5
102.614598	2
102.616365	85
102.618132	1
102.619703	1
102.634432	1
103.117896	2
110.019746	1
112.091167	1
112.109775	2
112.110447	1
112.111793	108
112.113811	2
112.115604	1
112.132424	1
113.115132	4
128.570266	1
129.113069	1
129.133855	1
129.135795	3
129.136904	2
129.138567	179
129.140784	3
129.143279	1
129.164072	1
130.141709	7
137.132305	1
139.982008	2
141.945712	1
141.958171	2
146.134188	1
146.159551	1
146.160552	1
146.161887	3
146.162888	1
146.164891	180
146.167895	3
146.170565	1
146.195604	1
147.168028	8
149.022904	3
158.002552	1
158.096003	1
158.960868	1
163.132671	3
163.134246	1
170.095447	1
171.137707	1
171.149125	37
171.152509	1
172.152025	1
174.127584	10
179.062747	1
182.984796	3
186.184385	1
186.195902	1
186.955501	1
187.126060	5
190.992536	1
195.122110	1
199.180373	2
202.384667	1
202.940515	1
203.071635	1
203.128494	1
203.172247	3
203.178264	1
203.198506	1
203.200147	1
203.204524	1
203.205619	1
203.207807	1
203.209996	1
203.213826	3
203.215468	3
203.217656	9
203.219298	5
203.222581	704
203.227506	8
203.231884	4
203.234620	1
203.236809	1
203.241187	1
203.244471	1
203.246113	1
203.272934	3
203.317281	1
203.374243	1
203.505784	1
204.065710	1
204.219970	6
204.226034	70
204.228791	1
204.230996	1
205.228608	1
223.062608	2
228.231451	1
233.173966	2
240.211426	1
277.199902	1
279.157671	1
282.220291	1
297.252717	3
297.256589	1
297.753816	1
303.146081	1
391.282894	31
392.286254	4
426.355027	1
436.339497	1
441.412091	1
