Mass spectrum: L-Methionine; LC-ESI-ITFT; MS2; m/z:150.06; POS
Name: L-Methionine
Name: Methionine
Name: L-2-Amino-4methylthiobutyric acid
Class: Natural Product
Formula: C5H11NO2S
Exact mass: 149.05105
SMILES: N[C@@H](CCSC)C(O)=O
InChI: InChI=1S/C5H11NO2S/c1-9-3-2-4(6)5(7)8/h4H,2-3,6H2,1H3,(H,7,8)/t4-/m0/s1
Instrument: LTQ Orbitrap XL, Thermo Scientfic
Instrument type: LC-ESI-ITFT
Ms type: MS2
Ion mode: POSITIVE
Collision energy: 35eV
Ionization: ESI
Column name: TOSOH TSKgel ODS-100V  5um Part no. 21456
Retention time: 5.505800 min
Base peak: 133.009399
Precursor m/z: 150.06
m/z	relative intensity
55.956654	21
73.986130	1
101.995285	21
104.001801	394
133.009399	999
