Mass spectrum: Acetyl-CoA; LC-ESI-ITFT; MS2; m/z:809.12; NEG
Name: Acetyl-CoA
Name: Acetyl coenzyme A
Class: Natural Product
Formula: C23H38N7O17P3S
Exact mass: 809.12577
SMILES: CC(=O)SCCNC(=O)CCNC(=O)C(O)C(C)(C)COP(O)(=O)OP(O)(=O)OCC(O1)C(OP(O)(O)=O)C(O)C1n(c2)c(n3)c(c(N)nc3)n2
InChI: InChI=1S/C23H38N7O17P3S/c1-12(31)51-7-6-25-14(32)4-5-26-21(35)18(34)23(2,3)9-44-50(41,42)47-49(39,40)43-8-13-17(46-48(36,37)38)16(33)22(45-13)30-11-29-15-19(24)27-10-28-20(15)30/h10-11,13,16-18,22,33-34H,4-9H2,1-3H3,(H,25,32)(H,26,35)(H,39,40)(H,41,42)(H2,24,27,28)(H2,36,37,38)/t13-,16-,17-,18+,22-/m1/s1
Instrument: LTQ Orbitrap XL, Thermo Scientfic
Instrument type: LC-ESI-ITFT
Ms type: MS2
Ion mode: NEGATIVE
Collision energy: 35eV
Ionization: ESI
Column name: TOSOH TSKgel ODS-100V  5um Part no. 21456
Retention time: 13.820738 min
Base peak: 461.062073
Precursor m/z: 809.12
m/z	relative intensity
255.093018	1
261.205994	6
262.213165	1
270.182587	4
271.145386	33
273.022095	56
274.248810	1
279.063110	1
288.160828	1
289.175751	1
290.203644	1
291.212646	6
292.179871	1
305.299744	6
310.232849	2
321.122742	2
328.203156	97
329.179108	5
339.313995	24
340.296021	2
346.184998	2
351.087158	2
353.097290	5
357.394348	4
360.155884	1
361.251495	1
367.222046	8
371.091919	4
381.227295	122
382.334351	9
385.259277	10
386.234619	1
399.331421	12
400.328369	1
401.319153	5
408.085327	786
409.176636	50
419.060303	19
420.238403	1
426.107666	408
427.145203	26
443.297546	51
444.274719	7
450.228577	4
451.185425	1
461.062073	999
462.080566	97
468.040588	3
479.188660	127
480.233398	12
488.040955	34
506.100098	30
507.159729	1
510.115417	29
511.269104	3
516.336853	1
520.232849	1
531.854553	1
541.230774	27
542.164734	2
559.056213	2
575.133728	14
576.255066	2
600.283508	2
601.324158	1
618.097961	121
619.203796	16
635.278015	1
648.288391	1
655.103088	12
656.112793	2
660.603394	1
673.126526	264
674.181458	27
677.963684	1
689.188416	3
692.276306	2
707.060364	1
710.189514	172
711.145447	25
716.122009	1
728.102600	215
729.184875	39
732.168579	5
741.098572	1
747.827820	1
748.942688	1
759.904724	1
766.058411	1
767.283203	1
790.043213	227
791.068787	42
799.250305	1
800.054626	1
