Mass spectrum: L-Citrulline; LC-ESI-ITFT; MS; POS
Name: L-Citrulline
Name: 2-Amino-5-ureidovaleric acid
Name: Citrulline
Class: Natural Product
Formula: C6H13N3O3
Exact mass: 175.09569
SMILES: NC(=O)NCCC[C@H](N)C(O)=O
InChI: InChI=1S/C6H13N3O3/c7-4(5(10)11)2-1-3-9-6(8)12/h4H,1-3,7H2,(H,10,11)(H3,8,9,12)/t4-/m0/s1
Instrument: LTQ Orbitrap XL, Thermo Scientfic
Instrument type: LC-ESI-ITFT
Ms type: MS
Ion mode: POSITIVE
Collision energy: 35eV
Ionization: ESI
Column name: TOSOH TSKgel ODS-100V  5um Part no. 21456
Retention time: 4.854627 min
Base peak: 176.103058
m/z	relative intensity
100.112037	1
102.033748	2
110.019964	1
112.050382	1
113.070834	5
115.086350	1
128.041825	1
130.097413	1
137.132305	1
141.958490	2
149.023248	1
150.112615	1
155.143256	1
158.003303	9
158.092624	2
158.096754	1
158.961625	1
159.070707	1
159.073359	2
159.076391	149
159.078665	2
159.079802	2
159.082834	1
160.079698	9
163.133065	2
170.096704	1
171.149548	13
174.128452	2
175.426851	1
175.879326	1
175.981143	1
176.028335	1
176.059218	1
176.062307	3
176.065396	1
176.068043	1
176.072456	1
176.074222	1
176.075104	1
176.076869	1
176.078635	1
176.079517	1
176.082607	1
176.083931	1
176.084813	1
176.087461	1
176.088344	1
176.090110	1
176.091875	2
176.093641	2
176.096289	5
176.099379	14
176.102910	999
176.105558	16
176.106883	13
176.109090	3
176.110414	4
176.111739	1
176.113504	2
176.115270	1
176.117036	1
176.118360	1
176.120568	1
176.123217	1
176.127190	1
176.130281	1
176.138670	1
176.141761	1
176.143969	3
176.146176	1
176.177533	1
176.225245	1
176.327362	1
176.782884	1
177.099863	3
177.101643	1
177.106095	67
177.108766	1
177.109657	1
178.106203	2
182.984796	2
187.126060	2
199.180373	1
207.984967	1
351.188206	1
351.198151	76
351.205610	1
352.201030	6
375.154952	1
391.282894	5
392.286254	1
566.379337	1
