Mass spectrum: Glycerone phosphate; LC-ESI-ITFT; MS2; m/z:168.99; NEG
Name: Glycerone phosphate
Name: Dihydroxyacetone phosphate
Class: Natural Product
Formula: C3H7O6P
Exact mass: 169.99802
SMILES: OCC(=O)COP(O)(O)=O
InChI: InChI=1S/C3H7O6P/c4-1-3(5)2-9-10(6,7)8/h4H,1-2H2,(H2,6,7,8)
Instrument: LTQ Orbitrap XL, Thermo Scientfic
Instrument type: LC-ESI-ITFT
Ms type: MS2
Ion mode: NEGATIVE
Collision energy: 35eV
Ionization: ESI
Column name: TOSOH TSKgel ODS-100V  5um Part no. 21456
Retention time: 6.866765 min
Base peak: 96.823303
Precursor m/z: 168.99
m/z	relative intensity
96.823303	999
