Mass spectrum: L-Ornithine; LC-ESI-ITFT; MS2; m/z:287.13; NEG
Name: L-Ornithine
Name: (S)-2,5-Diaminovaleric acid
Name: (S)-2,5-Diaminopentanoic acid
Name: (S)-2,5-Diaminopentanoate
Class: Natural Product
Formula: C5H12N2O2
Exact mass: 132.08988
SMILES: NCCC[C@H](N)C(O)=O
InChI: InChI=1S/C5H12N2O2/c6-3-1-2-4(7)5(8)9/h4H,1-3,6-7H2,(H,8,9)/t4-/m0/s1
Instrument: LTQ Orbitrap XL, Thermo Scientfic
Instrument type: LC-ESI-ITFT
Ms type: MS2
Ion mode: NEGATIVE
Collision energy: 35eV
Ionization: ESI
Column name: TOSOH TSKgel ODS-100V  5um Part no. 21456
Retention time: 3.978990 min
Base peak: 269.224182
Precursor m/z: 287.13
m/z	relative intensity
114.054443	20
131.157593	17
171.979095	20
173.100250	771
183.030884	17
203.191345	20
229.102448	706
241.023804	45
252.013672	20
269.224182	999
270.255768	97
