Mass spectrum: NAD+; LC-ESI-ITFT; MS2; m/z:541.06; NEG
Name: NAD+
Name: NAD
Name: Nicotinamide adenine dinucleotide
Name: DPN
Name: Diphosphopyridine nucleotide
Name: Nadide
Class: Natural Product
Formula: [C21H28N7O14P2]+
Exact mass: 664.11695
SMILES: NC(=O)c(c5)c[n+1](cc5)C(O1)C(O)C(O)C(COP(O)(=O)OP(O)(=O)OCC(O2)C(O)C(O)C2n(c4)c(n3)c(n4)c(N)nc3)1
InChI: InChI=1S/C21H27N7O14P2/c22-17-12-19(25-7-24-17)28(8-26-12)21-16(32)14(30)11(41-21)6-39-44(36,37)42-43(34,35)38-5-10-13(29)15(31)20(40-10)27-3-1-2-9(4-27)18(23)33/h1-4,7-8,10-11,13-16,20-21,29-32H,5-6H2,(H5-,22,23,24,25,33,34,35,36,37)/p+1/t10-,11-,13-,14-,15-,16-,20-,21-/m1/s1
Instrument: LTQ Orbitrap XL, Thermo Scientfic
Instrument type: LC-ESI-ITFT
Ms type: MS2
Ion mode: NEGATIVE
Collision energy: 35eV
Ionization: ESI
Column name: TOSOH TSKgel ODS-100V  5um Part no. 21456
Retention time: 8.899630 min
Base peak: 328.150940
Precursor m/z: 541.06
m/z	relative intensity
158.919632	88
174.956421	13
193.101044	13
210.975525	57
255.025528	7
272.999878	494
274.112244	163
291.095764	5
328.150940	999
329.198425	858
346.060547	673
347.135864	680
405.099792	8
407.962646	577
408.978394	677
409.604370	4
426.036560	964
427.119080	921
442.167297	25
443.199341	72
453.303894	4
468.989868	4
473.134705	3
481.081604	11
505.037231	4
510.515137	3
522.315796	5
523.201233	62
