Mass spectrum: Tyramine; LC-ESI-ITFT; MS2; m/z:138.09; POS
Name: Tyramine
Name: 2-(p-Hydroxyphenyl)ethylamine
Class: Natural Product
Formula: C8H11NO
Exact mass: 137.08406
SMILES: NCCc(c1)ccc(O)c1
InChI: InChI=1S/C8H11NO/c9-6-5-7-1-3-8(10)4-2-7/h1-4,10H,5-6,9H2
Instrument: LTQ Orbitrap XL, Thermo Scientfic
Instrument type: LC-ESI-ITFT
Ms type: MS2
Ion mode: POSITIVE
Collision energy: 35eV
Ionization: ESI
Column name: TOSOH TSKgel ODS-100V  5um Part no. 21456
Retention time: 5.470925 min
Base peak: 121.031403
Precursor m/z: 138.09
m/z	relative intensity
121.031403	999
