Mass spectrum: Guanine; LC-ESI-ITFT; MS; POS
Name: Guanine
Name: 2-Amino-6-hydroxypurine
Class: Natural Product
Formula: C5H5N5O
Exact mass: 151.04941
SMILES: C1=NC2=C(N1)C(=O)N=C(N2)N
InChI: InChI=1S/C5H5N5O/c6-5-9-3-2(4(11)10-5)7-1-8-3/h1H,(H4,6,7,8,9,10,11)
Instrument: LTQ Orbitrap XL, Thermo Scientfic
Instrument type: LC-ESI-ITFT
Ms type: MS
Ion mode: POSITIVE
Collision energy: 35eV
Ionization: ESI
Column name: TOSOH TSKgel ODS-100V  5um Part no. 21456
Retention time: 5.473787 min
Base peak: 152.056549
m/z	relative intensity
102.054776	1
110.034570	1
119.034826	1
128.045383	2
134.081185	1
136.033941	1
136.057019	1
136.059118	5
136.060017	4
136.061516	255
136.063614	4
136.064214	4
136.066612	1
136.089400	1
137.045596	1
137.058627	3
137.064689	12
139.038624	1
151.514362	1
151.874319	1
151.958493	1
151.995651	1
152.013704	1
152.020785	1
152.023971	3
152.029990	1
152.037072	1
152.038488	1
152.042738	1
152.044154	1
152.045571	1
152.046279	1
152.047695	1
152.048404	1
152.050883	6
152.053716	19
152.054778	16
152.056549	999
152.058674	16
152.059382	16
152.062216	5
152.063987	2
152.065758	1
152.066820	1
152.068237	2
152.069654	1
152.071779	1
152.073905	1
152.075321	1
152.076738	1
152.078864	1
152.082406	1
152.089137	4
152.117483	1
152.154700	1
152.239107	1
152.601651	1
153.040204	11
153.053436	11
153.056655	1
153.059516	45
153.062378	1
154.059797	1
158.002177	1
163.132671	1
167.056156	1
171.148702	7
174.127584	3
181.049244	9
182.984328	1
187.125577	1
194.117473	4
196.060395	1
197.930554	1
198.027369	2
198.057375	1
198.059481	1
198.062640	1
198.067378	2
198.071590	8
198.073170	6
198.075803	505
198.079489	7
198.080542	7
198.084228	2
198.086861	1
198.093180	1
198.095287	1
198.124781	2
198.166401	1
198.221739	1
198.347257	1
199.072631	1
199.074753	1
199.076345	1
199.078997	45
199.082181	1
199.083773	1
199.179311	1
200.079141	2
210.075326	2
222.111063	1
224.127351	2
242.561077	1
284.098577	19
285.100672	1
287.110725	8
303.098233	2
303.106207	122
303.112188	2
303.115178	1
304.101418	1
304.108430	8
306.202726	1
307.083094	26
307.583792	3
308.079586	1
348.069074	18
349.072120	1
349.115240	1
349.125097	94
349.132490	1
349.134955	1
350.120341	1
350.127766	8
391.282894	4
392.284786	1
395.142987	4
396.146347	1
435.145442	3
436.148462	1
454.153607	6
481.163731	2
499.116803	5
526.334395	1
542.329516	1
588.349282	1
613.157071	11
614.162049	2
615.152208	1
756.253297	1
764.207335	1
802.272291	1
