Mass spectrum: L-Valine; LC-ESI-ITFT; MS2; m/z:118.09; POS
Name: L-Valine
Name: 2-Amino-3-methylbutyric acid
Class: Natural Product
Formula: C5H11NO2
Exact mass: 117.07898
SMILES: CC(C)[C@H](N)C(O)=O
InChI: InChI=1S/C5H11NO2/c1-3(2)4(6)5(7)8/h3-4H,6H2,1-2H3,(H,7,8)/t4-/m0/s1
Instrument: LTQ Orbitrap XL, Thermo Scientfic
Instrument type: LC-ESI-ITFT
Ms type: MS2
Ion mode: POSITIVE
Collision energy: 35eV
Ionization: ESI
Column name: TOSOH TSKgel ODS-100V  5um Part no. 21456
Retention time: 5.476982 min
Base peak: 71.974854
Precursor m/z: 118.09
m/z	relative intensity
71.974854	999
