Mass spectrum: Adenine; LC-ESI-ITFT; MS; POS
Name: Adenine
Name: 6-Aminopurine
Class: Natural Product
Formula: C5H5N5
Exact mass: 135.05450
SMILES: C1=NC2=C(N1)C(=NC=N2)N
InChI: InChI=1S/C5H5N5/c6-4-3-5(9-1-7-3)10-2-8-4/h1-2H,(H3,6,7,8,9,10)
Instrument: LTQ Orbitrap XL, Thermo Scientfic
Instrument type: LC-ESI-ITFT
Ms type: MS
Ion mode: POSITIVE
Collision energy: 35eV
Ionization: ESI
Column name: TOSOH TSKgel ODS-100V  5um Part no. 21456
Retention time: 5.465337 min
Base peak: 136.061356
m/z	relative intensity
109.050551	1
119.035071	16
135.601925	1
135.906663	1
135.978516	2
136.009969	1
136.033641	3
136.034840	1
136.037237	1
136.041733	1
136.044430	1
136.045929	1
136.047727	1
136.048926	1
136.050125	1
136.051324	1
136.053722	4
136.054921	2
136.056720	6
136.058818	8
136.059717	3
136.061216	999
136.063315	8
136.064214	8
136.066612	7
136.067812	3
136.069311	4
136.070810	1
136.071409	1
136.072009	1
136.073208	1
136.074407	1
136.075307	1
136.076206	1
136.078005	1
136.079205	1
136.080404	1
136.082203	1
136.085202	1
136.087600	1
136.089100	3
136.095397	1
136.113092	1
136.144292	2
136.216333	1
136.522844	1
137.045293	22
137.058627	12
137.064083	46
149.022904	1
151.060602	1
152.056195	8
158.002177	1
160.060954	1
171.148702	5
174.127150	3
182.984796	1
187.125093	1
194.116962	1
224.127351	2
272.100220	12
287.108887	1
306.201714	1
391.282894	4
392.284786	1
526.336676	7
527.339390	1
