Mass spectrum: L-Carnosine; LC-ESI-ITFT; MS; NEG
Name: Carnosine
Name: Nalpha-(beta-alanyl)-L-histidine
Name: L-Carnosine
Class: Natural Product
Formula: C9H14N4O3
Exact mass: 226.10659
SMILES: C1=C(NC=N1)C[C@@H](C(=O)O)NC(=O)CCN
InChI: InChI=1S/C9H14N4O3/c10-2-1-8(14)13-7(9(15)16)3-6-4-11-5-12-6/h4-5,7H,1-3,10H2,(H,11,12)(H,13,14)(H,15,16)/t7-/m0/s1
Instrument: LTQ Orbitrap XL, Thermo Scientfic
Instrument type: LC-ESI-ITFT
Ms type: MS
Ion mode: NEGATIVE
Collision energy: 35eV
Ionization: ESI
Column name: TOSOH TSKgel ODS-100V  5um Part no. 21456
Retention time: 3.941245 min
Base peak: 225.098022
m/z	relative intensity
108.056806	3
109.040948	1
110.011996	1
110.052337	2
110.059972	1
110.062590	1
110.064990	1
110.065862	1
110.066735	2
110.068917	4
110.070444	14
110.072407	356
110.074153	15
110.075244	3
110.076117	4
110.076771	1
110.077862	2
110.080044	1
110.082226	1
110.084627	1
110.092483	2
110.132869	1
111.069238	2
111.073882	1
111.075652	14
112.985648	13
127.051039	7
137.035575	6
139.006887	1
145.061725	1
152.082798	3
154.053097	1
154.057070	1
154.058877	4
154.062128	117
154.065019	4
154.066825	1
154.068270	1
154.095371	1
155.059019	1
155.065221	6
161.082882	1
163.098549	7
163.991178	1
164.082472	8
179.093746	1
181.105649	2
181.109333	60
181.113477	2
182.112265	3
187.994094	2
207.088163	3
215.989187	2
224.803964	1
224.921182	2
224.928830	1
225.001504	1
225.023186	1
225.027650	1
225.039130	5
225.043595	1
225.046146	1
225.059541	1
225.061455	1
225.069748	1
225.076765	2
225.079317	2
225.081869	4
225.084421	2
225.087611	8
225.092715	29
225.097820	999
225.103562	29
225.106753	6
225.108667	7
225.114410	5
225.116963	2
225.120153	1
225.124620	1
225.126535	1
225.132279	1
225.134193	1
225.136108	1
225.143767	1
225.151426	1
225.156532	4
225.159724	1
225.162277	1
225.168661	1
225.175044	1
225.195474	1
225.274665	2
225.392252	1
226.090075	1
226.092644	1
226.095856	11
226.101636	85
226.107417	2
227.098604	1
227.102483	4
228.106085	1
230.997193	1
232.020074	1
233.012128	3
233.999061	1
234.020027	3
235.028353	2
249.056295	1
257.999226	1
261.075238	1
267.060362	1
267.067784	30
267.074380	1
268.002006	1
268.070819	2
269.062838	4
278.010281	1
279.018405	2
280.025825	1
281.033371	1
285.030215	1
285.077497	1
286.030182	1
287.026233	14
288.029342	1
288.094001	2
289.021938	1
292.025992	1
293.085782	1
295.061805	3
297.027896	1
305.036724	2
309.050726	1
311.007182	1
313.072261	1
314.994198	1
315.068146	1
316.991459	1
320.020994	1
323.065640	6
323.075514	1
325.022901	4
325.183485	1
333.031401	3
339.051618	4
339.091725	5
340.055243	1
340.094343	1
341.068089	2
345.045153	1
345.047575	2
347.023790	1
359.046288	1
365.113206	1
367.989007	1
370.989356	1
371.982268	2
376.985005	1
391.050453	1
451.038185	1
451.159463	1
451.175758	1
451.190243	4
451.204729	246
451.221026	5
451.230081	1
451.235514	1
452.191402	1
452.207753	43
452.224105	1
453.203188	1
453.212302	3
454.211058	1
460.126163	6
461.129165	1
473.170593	1
473.186150	67
473.203653	1
474.191209	11
475.162291	23
475.193603	1
476.099066	1
476.165804	4
477.168561	1
489.152236	2
489.160412	2
493.172750	1
495.169351	4
496.172202	1
500.121236	1
503.128955	1
504.117600	12
505.124176	29
506.127315	5
507.124816	2
509.120002	1
509.306704	1
511.137902	2
512.134930	2
513.112919	1
513.121703	1
513.132683	28
514.135557	5
515.128120	2
519.312781	1
521.169034	9
522.170773	1
527.106427	1
535.158699	3
535.306085	4
535.322465	1
536.161185	1
536.311331	1
537.302940	2
538.304381	1
541.101954	1
547.214894	1
549.174251	1
550.121309	1
551.129482	1
555.264169	1
561.320247	1
563.300345	9
564.306988	2
565.158920	3
565.194459	1
571.151039	2
572.155537	1
651.390866	1
671.399110	1
677.311367	7
678.314901	2
689.358914	1
691.404929	1
697.396068	1
699.292790	5
700.296570	1
701.270935	25
702.271947	6
703.278627	1
713.289206	1
715.258408	5
715.406607	1
716.260554	1
717.402740	1
721.277400	2
723.254072	1
729.236809	1
730.223748	8
731.231370	14
732.233592	4
737.241706	1
739.238842	5
740.242357	1
767.385252	1
775.277301	2
776.281555	1
791.267043	1
797.259620	1
877.498903	1
893.629613	1
897.503150	1
903.419844	9
904.421067	4
905.423955	1
905.980119	1
917.652885	1
918.651565	1
919.630801	2
920.632712	1
925.400929	5
926.406960	2
927.377283	2
928.381195	1
939.396655	1
949.364650	1
957.339551	4
958.342073	1
965.347359	1
979.318151	1
987.328355	1
1001.385545	1
1005.975263	4
1006.976678	1
1073.735930	1
1074.733724	1
1099.730996	1
1100.730753	1
1101.738784	1
1103.606601	1
1105.965432	5
1106.973704	1
1129.523559	10
1130.528317	5
1131.534416	2
1132.534658	1
1151.506096	1
1152.518157	1
1153.487144	1
1165.985321	5
1166.993939	1
1167.476129	1
1183.442203	2
1191.451211	1
1205.964553	2
1233.969956	1
1243.077660	1
1265.978062	8
1266.982865	2
1280.830138	1
1305.953902	1
1333.966349	2
1334.979463	1
1355.627994	3
1356.127923	1
1356.637568	2
1357.648270	1
1365.974981	5
1366.967491	1
1382.957032	1
1409.549866	1
1433.958002	2
1465.969084	3
1466.966411	1
1469.677056	1
