Mass spectrum: L-Glutamic acid; LC-ESI-ITFT; MS; POS
Name: L-Glutamate
Name: L-Glutamic acid
Name: L-Glutaminic acid
Class: Natural Product
Formula: C5H9NO4
Exact mass: 147.05316
SMILES: OC(=O)CC[C@H](N)C(O)=O
InChI: InChI=1S/C5H9NO4/c6-3(5(9)10)1-2-4(7)8/h3H,1-2,6H2,(H,7,8)(H,9,10)/t3-/m0/s1
Instrument: LTQ Orbitrap XL, Thermo Scientfic
Instrument type: LC-ESI-ITFT
Ms type: MS
Ion mode: POSITIVE
Collision energy: 35eV
Ionization: ESI
Column name: TOSOH TSKgel ODS-100V  5um Part no. 21456
Retention time: 4.813653 min
Base peak: 148.060303
m/z	relative intensity
100.111848	2
102.033748	1
102.054776	18
123.514544	1
126.019876	1
126.022014	56
126.023617	1
128.017746	1
130.045576	1
130.047817	1
130.049778	71
130.051738	1
131.033823	1
131.053091	3
131.500555	7
137.132305	1
141.958810	2
147.538998	1
147.881816	1
147.966432	2
147.970172	1
148.000775	1
148.029007	4
148.033429	1
148.034790	1
148.036151	1
148.036831	1
148.038192	1
148.044997	1
148.047038	1
148.048399	1
148.049080	1
148.051121	1
148.051802	2
148.053163	3
148.055204	5
148.057586	19
148.060309	999
148.062351	21
148.064392	3
148.065413	5
148.067115	3
148.068136	3
148.069157	1
148.070178	1
148.071199	1
148.072900	1
148.073921	1
148.075283	1
148.076304	1
148.079707	1
148.082090	1
148.083111	1
148.084473	1
148.085153	1
148.087876	1
148.091621	4
148.119878	1
148.150528	1
148.154275	2
148.239125	1
148.248671	1
148.584387	1
149.022561	1
149.060709	1
149.063459	50
149.065522	1
150.063992	4
158.002552	4
158.096003	1
163.132671	3
170.095866	1
171.149125	20
172.152025	1
173.494363	1
174.127584	8
179.063200	2
182.984796	2
187.126060	4
199.180373	2
223.063237	1
251.036294	4
273.068431	1
273.075249	84
273.080364	1
273.082921	1
274.077811	3
275.070393	2
295.112435	1
391.282894	9
392.286254	1
398.088043	5
436.339497	1
523.103744	7
538.336782	5
539.338511	1
545.141061	3
648.118128	1
670.156664	1
773.131411	1
