Mass spectrum: 3-Phospho-D-glycerate; LC-ESI-ITFT; MS2; m/z:184.99; NEG
Name: 3-Phospho-D-glycerate
Name: D-Glycerate 3-phosphate
Name: 3-Phospho-(R)-glycerate
Class: Natural Product
Formula: C3H7O7P
Exact mass: 185.99294
SMILES: O[C@H](COP(O)(O)=O)C(O)=O
InChI: InChI=1S/C3H7O7P/c4-2(3(5)6)1-10-11(7,8)9/h2,4H,1H2,(H,5,6)(H2,7,8,9)/t2-/m1/s1
Instrument: LTQ Orbitrap XL, Thermo Scientfic
Instrument type: LC-ESI-ITFT
Ms type: MS2
Ion mode: NEGATIVE
Collision energy: 35eV
Ionization: ESI
Column name: TOSOH TSKgel ODS-100V  5um Part no. 21456
Retention time: 6.990690 min
Base peak: 96.923676
Precursor m/z: 184.99
m/z	relative intensity
78.869751	249
86.987358	20
96.923676	999
166.961014	840
