Mass spectrum: L-Ornithine; LC-ESI-ITFT; MS; POS
Name: L-Ornithine
Name: (S)-2,5-Diaminovaleric acid
Name: (S)-2,5-Diaminopentanoic acid
Name: (S)-2,5-Diaminopentanoate
Class: Natural Product
Formula: C5H12N2O2
Exact mass: 132.08988
SMILES: NCCC[C@H](N)C(O)=O
InChI: InChI=1S/C5H12N2O2/c6-3-1-2-4(7)5(8)9/h4H,1-3,6-7H2,(H,8,9)/t4-/m0/s1
Instrument: LTQ Orbitrap XL, Thermo Scientfic
Instrument type: LC-ESI-ITFT
Ms type: MS
Ion mode: POSITIVE
Collision energy: 35eV
Ionization: ESI
Column name: TOSOH TSKgel ODS-100V  5um Part no. 21456
Retention time: 3.952262 min
Base peak: 133.096710
m/z	relative intensity
100.111848	1
102.033553	1
115.064899	1
115.081919	1
115.082619	1
115.084251	1
115.086350	96
115.088449	1
115.089615	1
115.090315	1
116.048468	1
116.065708	1
116.066653	1
116.068306	2
116.070196	119
116.072321	1
116.073502	1
116.074447	1
116.089330	4
116.092165	1
117.073410	4
132.652232	1
132.946786	1
133.016593	2
133.046734	1
133.069927	5
133.074856	1
133.076596	1
133.077756	1
133.081815	1
133.083555	1
133.084715	1
133.085295	1
133.085875	1
133.086745	1
133.087615	1
133.089355	3
133.090225	1
133.092255	6
133.094286	12
133.096606	999
133.099506	12
133.100666	6
133.101536	6
133.102987	2
133.104147	2
133.106467	1
133.107048	1
133.108208	1
133.109368	1
133.110238	1
133.111399	1
133.112849	1
133.116040	1
133.123583	5
133.146505	1
133.176981	2
133.246679	1
133.257429	1
133.543217	1
134.093502	3
134.097315	1
134.099662	46
135.100158	1
137.131699	1
141.957852	3
149.022561	2
155.078306	1
158.002552	6
158.095628	1
158.960490	1
163.132278	1
171.148702	16
174.127150	6
179.062747	1
182.984328	4
187.125577	2
199.179311	1
223.062608	2
233.020703	1
265.174060	1
265.179769	1
265.186295	109
265.194452	1
266.189160	7
319.103702	1
391.282894	12
392.284786	2
451.192028	1
459.200617	1
523.370508	7
524.373827	1
