Mass spectrum: L-(-)-Phenylalanine; LC-ESI-ITFT; MS; POS
Name: L-Phenylalanine
Name: (S)-alpha-Amino-beta-phenylpropionic acid
Name: L-(-)-Phenylalanine
Class: Natural Product
Formula: C9H11NO2
Exact mass: 165.07898
SMILES: OC(=O)C([H])(N)Cc(c1)cccc1
InChI: InChI=1S/C9H11NO2/c10-8(9(11)12)6-7-4-2-1-3-5-7/h1-5,8H,6,10H2,(H,11,12)/t8-/m0/s1
Instrument: LTQ Orbitrap XL, Thermo Scientfic
Instrument type: LC-ESI-ITFT
Ms type: MS
Ion mode: POSITIVE
Collision energy: 35eV
Ionization: ESI
Column name: TOSOH TSKgel ODS-100V  5um Part no. 21456
Retention time: 11.711643 min
Base peak: 166.086060
m/z	relative intensity
100.111848	3
102.033553	2
103.054040	3
107.048863	1
110.019746	6
111.019815	1
120.076558	1
120.078546	1
120.079292	2
120.080535	108
120.082026	2
120.082772	2
120.084760	1
121.083942	8
123.055085	9
131.048840	1
149.022904	1
149.059678	3
158.002927	1
163.133065	2
165.467218	1
165.875232	1
165.974140	1
166.015748	1
166.042821	1
166.048479	3
166.051713	1
166.054946	1
166.057371	1
166.061413	1
166.066264	1
166.067881	1
166.069497	1
166.071114	1
166.071923	1
166.073136	1
166.074348	1
166.075157	1
166.075965	1
166.079604	5
166.082434	11
166.086072	999
166.088498	14
166.089711	12
166.092945	5
166.094563	1
166.096180	2
166.097393	1
166.099415	1
166.101032	1
166.102649	1
166.103458	1
166.105076	1
166.106693	1
166.109928	1
166.118825	1
166.119634	1
166.123273	3
166.156442	1
166.197713	2
166.297314	1
166.708405	1
167.085525	1
167.089196	94
167.091644	1
167.092460	1
168.089498	2
168.091556	1
171.148702	18
172.151599	1
174.127150	8
179.063200	1
182.984796	3
187.126060	4
190.992536	1
195.122110	3
199.179842	3
217.104082	2
240.179785	2
360.200177	1
391.282894	12
392.284786	1
396.541304	1
413.263556	1
436.339497	1
556.360786	4
557.363553	1
