Mass spectrum: S-Adenosyl-L-homocysteine; LC-ESI-ITFT; MS2; m/z:193.07; POS
Name: S-Adenosyl-L-homocysteine
Name: S-Adenosylhomocysteine
Class: Natural Product
Formula: C14H20N6O5S
Exact mass: 384.12159
SMILES: OC(=O)[C@@H](N)CCSC[C@@H](O1)[C@@H](O)[C@@H](O)[C@@H]1n(c3)c(n2)c(n3)c(N)nc2
InChI: InChI=1S/C14H20N6O5S/c15-6(14(23)24)1-2-26-3-7-9(21)10(22)13(25-7)20-5-19-8-11(16)17-4-18-12(8)20/h4-7,9-10,13,21-22H,1-3,15H2,(H,23,24)(H2,16,17,18)/t6-,7+,9+,10+,13+/m0/s1
Instrument: LTQ Orbitrap XL, Thermo Scientfic
Instrument type: LC-ESI-ITFT
Ms type: MS2
Ion mode: POSITIVE
Collision energy: 35eV
Ionization: ESI
Column name: TOSOH TSKgel ODS-100V  5um Part no. 21456
Retention time: 5.465912 min
Base peak: 170.084915
Precursor m/z: 193.07
m/z	relative intensity
134.125427	14
136.044464	21
170.084915	999
170.781891	1
184.547882	52
250.160934	1
284.151733	4
