Mass spectrum: Tyramine; LC-ESI-ITFT; MS2; m/z:308.09; POS
Name: Tyramine
Name: 2-(p-Hydroxyphenyl)ethylamine
Class: Natural Product
Formula: C8H11NO
Exact mass: 137.08406
SMILES: NCCc(c1)ccc(O)c1
InChI: InChI=1S/C8H11NO/c9-6-5-7-1-3-8(10)4-2-7/h1-4,10H,5-6,9H2
Instrument: LTQ Orbitrap XL, Thermo Scientfic
Instrument type: LC-ESI-ITFT
Ms type: MS2
Ion mode: POSITIVE
Collision energy: 35eV
Ionization: ESI
Column name: TOSOH TSKgel ODS-100V  5um Part no. 21456
Retention time: 5.511150 min
Base peak: 179.031662
Precursor m/z: 308.09
m/z	relative intensity
116.047470	19
130.065613	69
131.147842	6
132.111328	1
144.091675	37
145.191193	1
146.100845	1
162.032486	295
171.215302	3
177.035675	1
179.031662	999
180.089813	1
199.043121	1
205.076141	1
215.020294	8
231.241760	2
233.013580	178
234.078979	1
234.940918	1
238.088684	1
238.708099	1
242.861633	21
243.779510	7
245.168579	12
246.983032	1
256.193817	1
257.171509	1
260.721069	2
261.651855	1
267.400452	2
269.702271	11
270.490906	14
272.133179	13
273.104706	1
275.669220	19
276.440216	20
279.134613	2
290.176758	60
291.262665	18
298.880188	67
299.641693	16
332.300690	1
355.153442	62
356.144348	22
357.123932	19
381.005341	3
382.093903	1
383.013306	1
409.258026	10
410.235474	5
411.276642	4
466.138824	2
467.115753	1
468.146149	1
468.922668	1
484.127045	30
485.247772	20
486.307281	10
520.332703	1
538.260254	6
539.196594	5
540.126892	3
