Mass spectrum: Uridine; LC-ESI-ITFT; MS; POS
Name: Uridine
Class: Natural Product
Formula: C9H12N2O6
Exact mass: 244.06954
SMILES: OC[C@@H](O1)[C@@H](O)[C@@H](O)[C@@H]1N(C=2)C(=O)NC(=O)C2
InChI: InChI=1S/C9H12N2O6/c12-3-4-6(14)7(15)8(17-4)11-2-1-5(13)10-9(11)16/h1-2,4,6-8,12,14-15H,3H2,(H,10,13,16)/t4-,6-,7-,8-/m1/s1
Instrument: LTQ Orbitrap XL, Thermo Scientfic
Instrument type: LC-ESI-ITFT
Ms type: MS
Ion mode: POSITIVE
Collision energy: 35eV
Ionization: ESI
Column name: TOSOH TSKgel ODS-100V  5um Part no. 21456
Retention time: 9.195497 min
Base peak: 245.077042
m/z	relative intensity
100.112037	24
101.096083	2
102.033748	18
102.091202	4
102.535519	1
107.070205	3
109.022378	1
110.018220	1
110.019964	33
110.521705	3
111.020256	8
112.018128	2
112.915430	1
112.971883	1
112.994793	1
113.013626	2
113.023839	1
113.026562	1
113.027924	1
113.028605	1
113.029740	1
113.030648	3
113.032691	9
113.034507	488
113.036550	8
113.037685	1
113.038593	3
113.039955	1
113.040636	1
113.042225	1
113.045176	1
113.055620	2
113.059026	1
113.074241	1
113.097183	1
113.153772	1
113.963374	5
114.031194	1
114.037634	14
114.127396	1
115.038559	1
122.963861	2
123.053280	1
123.055343	48
123.057664	1
124.058494	1
128.106983	6
129.127203	3
130.158817	1
130.491827	3
132.101894	1
133.049343	7
133.079206	5
136.021355	1
136.061816	1
137.132305	13
139.982008	7
141.958490	16
149.020499	1
149.023248	37
149.966469	1
151.096379	22
154.539848	1
154.990068	7
155.142891	11
156.146375	1
158.002927	13
158.096379	9
158.961247	8
162.529061	3
162.998158	3
163.129917	1
163.133065	44
164.136124	1
167.012934	1
167.034135	6
167.977179	1
168.123257	9
170.096704	16
170.515243	2
171.100077	1
171.110223	1
171.138553	12
171.141936	1
171.145742	3
171.147011	1
171.149548	197
171.153355	2
171.156738	1
171.160968	1
171.188464	1
171.534208	1
172.152452	14
172.169519	1
173.078577	18
174.124546	1
174.128018	88
174.131490	1
175.053090	3
175.089843	5
175.130986	8
178.035287	2
179.063653	20
180.159404	2
180.989441	1
182.981523	1
182.985263	52
182.989471	1
183.042317	26
183.543849	2
183.988506	1
184.985290	1
185.114619	4
186.185345	5
186.955984	7
187.122676	1
187.126544	61
187.130895	1
188.129475	3
189.121821	1
189.996826	1
190.993035	14
191.028438	13
191.530123	1
191.992576	1
192.028258	2
193.130714	1
194.117473	22
194.138420	1
195.122625	4
196.154284	13
197.158061	1
198.076329	1
199.029134	2
199.180373	36
199.987762	3
200.183421	2
208.190780	3
215.157172	1
216.207181	1
217.104686	2
220.111991	13
221.114659	1
222.112939	1
223.063867	9
224.127985	2
225.195906	1
226.159014	2
227.982871	1
228.232103	2
233.174638	13
234.178607	1
240.180488	1
243.968595	1
244.697195	1
244.876598	1
244.950442	1
245.006933	1
245.009831	3
245.037360	1
245.040258	1
245.043156	1
245.048952	1
245.051851	2
245.054024	1
245.056198	2
245.058372	2
245.061995	1
245.064169	4
245.071415	13
245.072865	6
245.077213	999
245.083735	11
245.086634	2
245.089533	4
245.093881	1
245.096780	2
245.101129	2
245.104028	1
245.108377	1
245.111277	1
245.112726	1
245.115626	1
245.143897	3
245.204082	1
245.277349	1
245.458116	1
246.075245	1
246.079620	94
246.086911	1
246.193404	1
247.080119	6
250.199964	1
255.155987	1
256.060646	1
264.049635	5
264.130698	1
267.057532	1
268.081818	1
272.035799	6
277.200773	6
278.203372	1
278.231421	1
279.158552	7
280.161171	1
282.221186	8
282.224768	1
283.224159	1
284.562238	1
292.548572	3
294.226753	2
299.182617	3
305.195176	1
320.294622	1
321.225628	1
322.221872	1
322.257928	3
325.013785	1
327.176029	1
332.560117	1
334.970704	1
338.252048	1
343.005285	1
343.208159	2
343.992533	2
345.000994	17
345.007046	1
346.002955	1
353.007682	3
361.043553	1
366.284389	1
385.018657	1
386.026654	1
386.083964	2
391.268275	1
391.272660	1
391.284356	153
391.297514	1
392.287721	34
393.289058	2
394.069544	2
394.570926	1
413.265143	5
413.271491	1
414.268274	1
419.313189	1
426.356690	3
427.359495	1
427.376183	2
436.341219	12
437.343196	2
464.371917	1
478.351212	1
489.146328	44
490.147084	3
491.148860	1
508.120773	1
511.126091	1
513.100567	1
516.103732	2
516.112591	1
516.604604	1
542.052895	1
542.062430	1
543.062629	1
579.066536	1
638.140223	1
760.177101	1
777.130186	1
787.136674	1
1221.987792	1
