Mass spectrum: Acetyl-CoA; LC-ESI-ITFT; MS2; m/z:134.05; NEG
Name: Acetyl-CoA
Name: Acetyl coenzyme A
Class: Natural Product
Formula: C23H38N7O17P3S
Exact mass: 809.12577
SMILES: CC(=O)SCCNC(=O)CCNC(=O)C(O)C(C)(C)COP(O)(=O)OP(O)(=O)OCC(O1)C(OP(O)(O)=O)C(O)C1n(c2)c(n3)c(c(N)nc3)n2
InChI: InChI=1S/C23H38N7O17P3S/c1-12(31)51-7-6-25-14(32)4-5-26-21(35)18(34)23(2,3)9-44-50(41,42)47-49(39,40)43-8-13-17(46-48(36,37)38)16(33)22(45-13)30-11-29-15-19(24)27-10-28-20(15)30/h10-11,13,16-18,22,33-34H,4-9H2,1-3H3,(H,25,32)(H,26,35)(H,39,40)(H,41,42)(H2,24,27,28)(H2,36,37,38)/t13-,16-,17-,18+,22-/m1/s1
Instrument: LTQ Orbitrap XL, Thermo Scientfic
Instrument type: LC-ESI-ITFT
Ms type: MS2
Ion mode: NEGATIVE
Collision energy: 35eV
Ionization: ESI
Column name: TOSOH TSKgel ODS-100V  5um Part no. 21456
Retention time: 13.816397 min
Base peak: 107.035355
Precursor m/z: 134.05
m/z	relative intensity
107.035355	999
