Mass spectrum: L-Cysteine Sulfinic acid; LC-ESI-ITFT; MS; NEG
Name: 3-Sulfino-L-alanine
Name: L-Cysteinesulfinic acid
Name: 3-Sulphino-L-alanine
Name: 3-Sulfinoalanine
Name: L-Cysteine Sulfinic acid
Class: Natural Product
Formula: C3H7NO4S
Exact mass: 153.00958
SMILES: N[C@H](C(O)=O)CS(O)=O
InChI: InChI=1S/C3H7NO4S/c4-2(3(5)6)1-9(7)8/h2H,1,4H2,(H,5,6)(H,7,8)/t2-/m0/s1
Instrument: LTQ Orbitrap XL, Thermo Scientfic
Instrument type: LC-ESI-ITFT
Ms type: MS
Ion mode: NEGATIVE
Collision energy: 35eV
Ionization: ESI
Column name: TOSOH TSKgel ODS-100V  5um Part no. 21456
Retention time: 6.779342 min
Base peak: 418.894012
m/z	relative intensity
100.437698	1
101.287801	1
102.481728	1
102.879404	1
104.511241	1
105.120068	1
105.739777	1
109.984533	1
111.355520	1
112.556443	1
112.924863	1
112.985648	5
113.491286	1
114.951622	7
115.953082	1
117.816913	1
123.942853	1
123.951717	1
124.306278	1
127.641565	1
131.391605	1
132.917416	5
134.468487	1
137.107736	1
137.776252	1
139.006887	2
139.398478	1
139.983028	1
141.101126	1
143.034687	1
143.101611	1
144.278310	1
144.908026	3
145.915454	2
146.987953	1
148.627396	1
148.952461	2
148.996777	1
149.186976	1
149.980917	1
150.970634	2
151.095476	1
151.488191	1
151.904367	3
151.946823	3
151.969472	5
151.988233	2
151.990003	2
151.993190	4
151.996022	12
151.997084	3
151.999208	27
152.002041	959
152.003811	27
152.004873	30
152.006644	5
152.008060	10
152.011247	3
152.012663	1
152.014434	2
152.015496	1
152.016558	1
152.020099	1
152.023286	1
152.034619	5
152.047016	1
152.099808	2
152.471546	1
152.947875	1
152.998992	2
153.001495	4
153.005428	26
153.006858	2
153.994952	1
153.997840	34
154.000368	1
154.006145	6
156.279849	1
157.497229	1
159.893658	1
159.970083	1
160.841743	4
160.846368	1
161.910717	1
161.984308	1
162.838737	5
162.874076	1
162.906284	1
164.662174	1
164.774008	1
165.962036	4
167.011163	4
167.978097	1
167.993317	2
167.994551	1
167.997019	94
167.999076	3
168.000310	3
168.961750	3
169.786753	1
169.813925	1
169.992587	3
173.983879	3
174.918078	4
175.655998	1
175.820614	1
176.898060	1
177.936103	7
178.794809	1
178.919991	2
179.933036	3
180.948271	2
181.290899	1
183.912644	3
183.973917	3
183.991833	4
184.290668	1
184.460947	1
184.463314	2
184.876279	12
185.429854	1
186.873216	3
189.652959	1
190.635265	1
192.928345	1
192.982529	1
192.986581	2
193.970434	3
195.966027	2
196.092032	1
197.021363	5
199.516150	1
202.886527	2
203.991179	1
206.928916	3
207.959099	1
208.943346	2
212.851269	1
213.929006	7
213.980446	10
215.972395	1
219.845297	2
219.972218	1
220.952456	1
221.326478	1
223.930906	1
226.953839	6
227.255158	1
228.590466	1
229.047572	2
229.944166	2
230.417895	1
230.491924	1
230.904359	1
230.943475	2
231.007143	1
231.939302	21
232.939569	2
233.937532	1
236.553104	1
239.902093	1
241.897680	17
241.937490	2
242.943094	2
243.894522	2
247.145541	1
247.371786	1
247.980809	1
248.933813	1
249.969211	4
250.918692	2
250.941221	2
252.574390	1
252.894730	1
252.953246	1
253.887692	1
254.788903	1
254.918807	1
256.909702	1
256.971174	6
261.969355	2
262.888205	1
262.992119	4
264.428233	1
265.007603	1
265.991668	2
268.891982	1
268.939472	1
270.890703	6
271.950955	6
273.912840	4
273.936824	1
273.996795	1
274.921130	1
276.866555	2
276.890927	1
277.941983	4
278.882851	9
278.898690	2
279.906346	5
280.963956	4
281.902338	1
281.986414	3
282.937120	1
285.643063	1
285.949772	4
286.932546	2
287.944395	1
289.931046	1
290.553226	1
293.960816	4
295.837048	1
296.148770	1
296.959239	2
298.762804	1
300.904078	2
302.681067	1
302.883133	14
304.898875	8
304.931065	2
304.977347	1
305.004517	2
305.011562	99
305.019613	2
305.054842	1
305.406459	1
306.014403	5
307.006952	7
307.015083	2
308.883480	1
309.916831	3
310.932586	2
311.167860	2
314.927666	3
316.411131	1
321.006445	2
322.909911	3
323.866898	1
325.183485	3
326.981247	4
326.993535	130
327.002473	2
327.996803	6
328.878454	1
328.898738	9
328.961854	2
328.969745	109
328.978764	2
328.988910	11
328.996802	2
329.973068	5
330.877488	12
330.913878	5
330.965063	7
332.893656	1
333.439398	1
335.482547	1
336.325809	1
337.993723	1
338.927804	2
342.958562	11
342.966962	3
342.988563	7
343.942234	2
344.893838	3
344.964036	3
346.314054	1
346.900466	2
346.910232	2
346.932206	1
348.877869	2
348.880331	2
348.888949	124
348.898799	2
348.928351	17
348.975150	8
349.892082	3
349.931654	1
350.030613	5
350.892096	2
350.924386	3
353.928061	6
355.927881	4
356.854538	1
356.892750	3
356.938612	3
357.911435	1
357.922948	52
357.929345	1
358.930633	35
359.919356	2
360.926421	4
361.952028	22
362.903633	1
362.925838	2
362.955884	2
364.939281	3
365.942372	2
366.938981	33
367.940999	2
368.935078	3
370.956957	1
372.013446	2
372.647332	1
372.854000	1
372.867603	1
372.888008	12
373.346889	2
373.853047	1
373.918609	3
374.886283	3
374.904111	11
374.924684	2
375.167569	1
380.860453	1
380.912416	10
380.941913	1
381.938406	1
382.058305	1
382.934567	1
385.910736	2
386.923926	1
387.925233	1
388.920287	11
390.898553	24
390.916076	1
391.902146	2
395.846772	1
399.390919	1
399.395443	1
400.883479	1
401.682327	1
402.790374	1
403.921416	5
409.905749	1
416.878265	1
418.447373	1
418.745096	3
418.839010	1
418.853585	3
418.866542	8
418.871401	4
418.879499	17
418.894077	999
418.902176	18
418.907036	21
418.915135	4
418.919995	6
418.937815	2
419.043137	2
419.341497	1
419.395041	3
419.885525	2
419.896904	60
420.857658	1
420.898441	21
426.865280	1
435.395554	1
436.894428	1
436.904780	83
436.913407	2
436.918583	1
437.907214	4
438.900942	1
438.909628	2
438.958275	2
439.765608	1
443.724606	1
444.915465	6
448.856318	1
448.904832	1
449.927236	1
454.870176	4
456.835871	1
458.020669	7
458.886757	4
460.942138	1
464.888060	3
464.899423	210
464.908892	3
464.914574	4
464.929725	1
465.902881	12
466.903874	4
479.790602	1
480.003126	7
480.611684	1
481.978183	2
483.336463	1
486.881182	5
493.197581	1
494.948758	1
495.398425	12
495.900861	2
495.967632	3
499.274969	2
500.878574	1
501.937067	2
501.983811	7
503.961530	4
508.924726	5
510.904371	43
510.930554	1
511.909469	4
511.940106	4
512.351776	1
512.908758	2
514.883021	25
514.960285	2
515.886605	2
516.859825	3
519.948348	1
519.955068	1
523.967598	1
524.221481	5
525.022874	1
526.218150	2
527.200182	22
528.203312	4
529.197809	18
530.199729	3
531.192933	3
532.913361	3
533.921195	4
535.898580	1
538.920772	22
540.902254	1
540.914137	2
540.935529	1
541.930463	5
543.904616	2
544.835667	2
545.237140	1
554.930598	1
555.264169	1
555.902497	2
556.934061	1
557.896293	2
560.173765	3
560.888336	3
560.903394	2
561.888518	1
562.167940	51
563.174073	9
563.864037	1
563.912103	3
564.147465	1
564.165187	56
565.169073	11
565.860165	2
566.162916	18
567.167038	3
568.158481	2
568.929408	1
571.816966	1
571.858302	4
571.881555	8
571.886723	9
571.904810	558
571.925482	10
571.946156	3
572.140023	1
572.196910	2
572.403842	1
572.906117	49
572.919071	1
573.865900	3
573.899666	19
574.193296	1
574.911428	2
575.873645	1
586.200878	2
587.842688	1
587.899239	4
588.200984	1
589.913465	1
590.908179	2
593.885588	32
594.887628	2
595.848238	2
599.847246	1
609.860466	1
609.877539	1
611.277104	7
612.283425	1
615.868499	2
616.264287	5
616.923817	4
617.909295	74
618.260579	2
618.911681	5
618.923318	1
619.185218	1
619.904845	2
619.916509	3
622.179739	4
624.175404	3
625.822632	3
628.844635	2
632.260865	1
633.012440	2
633.503189	1
633.831677	2
653.705628	1
654.995887	2
656.871649	1
659.394822	1
660.557608	1
661.935779	3
662.747346	1
667.892752	9
669.778376	1
669.870083	1
674.284318	2
675.135278	2
679.836111	1
686.930629	1
688.286428	1
690.944897	1
702.271947	1
707.323516	1
708.914873	1
722.328904	1
724.888461	2
724.914273	143
725.914617	16
726.905925	6
726.920736	4
734.484857	1
740.904882	2
746.896275	11
747.301370	1
747.896106	2
748.870844	2
751.261572	4
753.257395	1
755.233731	1
768.829121	1
769.780515	1
769.933871	4
778.833592	2
786.444819	1
786.840815	3
794.434618	1
816.805855	1
817.944932	1
821.229746	10
822.231076	4
822.917487	1
828.881517	1
838.793733	2
844.917584	1
856.841975	1
863.692176	1
871.304730	1
877.921402	12
878.929754	2
879.915187	1
881.386560	1
882.480130	1
894.918001	1
896.148354	1
899.905674	4
900.906168	1
905.418808	1
905.980119	8
906.980441	2
913.971893	1
921.086747	1
921.853033	1
928.878414	1
937.002337	1
951.873117	1
962.125456	1
965.506044	1
967.083692	1
971.897147	1
974.236926	3
975.243098	3
997.761357	1
1000.177284	1
1005.933068	1
1005.969235	34
1006.976678	8
1007.979589	1
1037.589496	1
1040.589059	1
1043.289614	1
1065.211966	1
1065.994028	2
1081.374340	1
1083.877918	1
1085.389646	1
1086.484920	1
1091.890801	1
1092.252172	1
1105.965432	35
1106.897166	1
1106.966746	8
1155.955800	9
1156.958865	3
1157.955792	2
1165.068163	1
1165.985321	21
1166.986407	7
1167.770110	1
1175.315727	1
1176.832099	1
1181.245444	1
1186.563496	1
1194.331284	1
1200.892996	1
1201.215421	1
1205.909169	1
1205.956640	15
1206.962121	4
1229.567626	1
1241.398453	1
1242.688575	1
1249.519857	1
1253.853702	1
1255.953397	19
1256.954705	3
1257.948782	6
1258.952477	2
1260.549053	1
1265.978062	35
1266.982865	6
1267.988864	2
1282.503233	1
1282.971940	1
1286.774466	1
1289.228505	1
1305.953902	5
1306.962046	1
1317.984451	1
1355.948671	10
1356.949159	3
1357.941301	4
1358.943995	2
1364.421586	1
1365.974981	19
1366.977040	8
1369.271605	1
1382.957032	2
1387.632819	1
1405.569039	1
1415.185696	1
1427.526797	1
1436.711376	1
1455.936047	5
1456.944164	1
1457.942812	1
1465.969084	8
1466.977026	4
1482.955151	1
1496.009439	1
1498.713320	1
