Mass spectrum: Guanosine; LC-ESI-ITFT; MS2; m/z:565.18; NEG
Name: Guanosine
Class: Natural Product
Formula: C10H13N5O5
Exact mass: 283.09167
SMILES: OC[C@@H](O1)[C@@H](O)[C@@H](O)[C@@H]1n(c3)c(N=2)c(n3)C(=O)NC(N)2
InChI: InChI=1S/C10H13N5O5/c11-10-13-7-4(8(19)14-10)12-2-15(7)9-6(18)5(17)3(1-16)20-9/h2-3,5-6,9,16-18H,1H2,(H3,11,13,14,19)/t3-,5-,6-,9-/m1/s1
Instrument: LTQ Orbitrap XL, Thermo Scientfic
Instrument type: LC-ESI-ITFT
Ms type: MS2
Ion mode: NEGATIVE
Collision energy: 35eV
Ionization: ESI
Column name: TOSOH TSKgel ODS-100V  5um Part no. 21456
Retention time: 5.516185 min
Base peak: 282.077911
Precursor m/z: 565.18
m/z	relative intensity
282.077911	999
