Mass spectrum: 4-Hydroxy-L-proline; LC-ESI-ITFT; MS; NEG
Name: 4-Hydroxy-L-proline
Name: L-Hydroxyproline
Class: Natural Product
Formula: C5H9NO3
Exact mass: 131.05824
SMILES: OC(C1)CC(N1)C(O)=O
InChI: InChI=1S/C5H9NO3/c7-3-1-4(5(8)9)6-2-3/h3-4,6-7H,1-2H2,(H,8,9)/t3?,4-/m0/s1
Instrument: LTQ Orbitrap XL, Thermo Scientfic
Instrument type: LC-ESI-ITFT
Ms type: MS
Ion mode: NEGATIVE
Collision energy: 35eV
Ionization: ESI
Column name: TOSOH TSKgel ODS-100V  5um Part no. 21456
Retention time: 4.811598 min
Base peak: 130.050934
m/z	relative intensity
100.272452	1
102.219193	1
103.920096	6
103.935309	1
104.927907	2
105.500859	1
105.848326	1
105.935822	6
106.663222	1
106.943702	2
109.159147	2
111.049337	2
111.165723	1
112.040226	5
112.983606	2
112.984286	2
112.985421	70
112.987463	2
113.149876	1
114.307488	1
114.587151	1
114.951622	19
116.065924	2
119.099360	1
122.218310	1
122.827620	1
123.946503	3
125.416809	1
126.096493	2
126.099435	2
126.225000	2
127.798915	2
128.032612	2
128.035075	45
128.036718	2
129.038343	3
129.335731	1
130.025152	5
130.038318	2
130.040560	3
130.043922	5
130.045043	3
130.046443	11
130.048685	29
130.050927	999
130.052328	31
130.055690	12
130.056811	3
130.057652	3
130.059053	2
130.061014	3
130.076709	5
130.128297	2
130.943173	3
131.051664	2
131.053932	25
131.653494	1
131.776015	1
132.054536	2
132.513882	2
133.030400	2
135.382849	1
136.577265	1
139.006578	6
139.980212	2
142.219856	2
142.946173	5
143.352593	2
143.470051	2
143.617241	1
143.707681	1
146.045414	5
148.952117	3
151.836476	1
153.389106	1
154.947088	11
154.959478	4
154.966767	2
156.894750	2
157.479306	1
158.040104	2
158.924781	2
160.841358	3
161.459368	1
163.866269	2
163.982847	5
164.348452	1
165.998396	2
166.024260	3
166.027089	110
166.030727	3
167.030330	4
167.493788	1
168.024174	27
168.026232	2
168.657183	2
168.961750	2
170.943754	2
173.117807	2
174.918078	7
176.055615	3
176.763893	1
179.652467	1
181.974442	2
182.063522	2
183.912644	2
183.969674	24
184.343146	3
185.984962	10
188.008705	11
190.005772	5
192.928345	3
193.045857	10
195.871214	1
196.974870	2
198.037850	24
199.964685	6
201.979964	3
201.992980	3
202.107472	2
205.617515	1
205.820430	1
207.972131	3
209.988052	14
210.999494	2
211.985603	2
213.045012	6
214.913125	2
215.025075	1
215.027458	4
216.967042	2
217.930278	8
219.203754	1
219.946332	8
220.019688	2
220.954317	3
221.153639	2
221.943008	2
221.961125	2
225.020635	2
226.038059	4
226.429580	1
227.959055	6
227.998727	3
229.975131	9
230.978622	2
230.982601	3
231.551383	2
231.677916	2
232.924121	2
234.704654	2
234.836501	2
235.986352	1
237.756461	2
237.982419	10
241.039896	9
241.528485	2
243.056170	5
244.003221	2
244.039951	6
244.042832	6
246.018955	9
248.177177	2
248.937523	3
249.996094	19
250.996056	2
252.894730	2
253.132722	1
253.927440	2
255.647033	1
255.922953	16
255.993357	8
256.786047	2
257.920167	13
260.008169	11
261.012288	2
261.095961	5
261.102338	12
261.108715	547
261.112700	15
261.115092	11
261.122267	4
262.105592	3
262.112006	44
263.113028	4
265.146218	2
265.951512	2
266.024455	2
267.005951	4
269.021985	2
269.985765	3
271.965360	1
272.992729	2
273.939393	2
274.001080	3
274.879796	4
274.891851	3
275.940194	3
275.980035	5
276.981481	1
277.030259	2
281.937216	5
282.008781	2
283.050448	6
283.083740	2
283.090039	133
283.095439	4
283.988461	5
284.093374	9
285.061129	3
285.066585	159
285.071132	5
285.074769	3
285.973526	2
286.069486	12
286.892146	1
287.964705	17
289.944104	2
289.962760	2
291.547622	2
292.902910	2
293.135083	1
293.496684	1
293.719102	2
295.040740	4
296.001507	5
297.084966	3
298.217192	2
299.004911	2
299.063530	6
302.870186	2
305.072962	4
305.077996	2
310.913942	2
310.995784	4
311.015472	2
311.167860	2
312.860960	2
313.004245	2
313.011568	54
313.016800	3
313.031448	2
314.015254	3
315.028000	42
316.031854	6
316.035038	8
317.027716	2
317.042647	6
318.040079	2
319.021771	2
321.040132	7
321.043392	5
322.039033	7
323.029439	2
323.034924	73
324.038748	8
325.031758	4
325.183485	2
329.082503	10
330.082944	2
330.871802	2
331.021948	5
331.072019	23
331.951253	4
332.075837	3
333.038291	23
335.031400	3
340.723238	1
342.006587	2
342.388098	1
345.060896	36
346.054849	2
349.008407	5
349.081097	3
349.375786	2
350.007107	2
350.995190	1
351.003887	91
351.010099	2
351.077202	3
352.007427	8
352.138478	2
352.568339	1
352.921312	1
353.001494	22
354.004810	2
359.037291	4
360.025165	4
360.035490	3
361.032673	106
362.036608	10
363.269627	1
363.991472	2
365.942372	10
368.043695	2
369.040869	15
369.840454	2
375.097561	6
376.689241	2
377.076293	8
378.022929	2
379.932525	2
381.054316	12
383.012446	2
383.033690	6
389.441030	1
392.166119	14
393.156926	2
393.168709	2
401.086762	3
402.011062	1
402.035429	3
403.591867	1
406.900958	5
408.392192	2
412.823483	3
414.135570	6
414.765233	1
416.125083	32
417.127634	5
419.023690	5
422.606835	1
426.020086	9
427.058629	7
429.021198	2
430.112871	19
431.115684	3
436.129398	8
441.974473	2
443.733436	1
444.090379	11
445.076855	7
445.089273	8
446.071961	4
446.086201	193
447.088269	20
448.084757	2
448.091925	2
449.025251	2
450.082341	2
452.100580	5
453.099305	2
454.079406	3
454.094031	26
454.916002	1
462.129820	33
463.009479	3
463.131852	6
463.874663	1
464.424435	2
469.943607	2
473.826603	1
477.040583	2
481.053912	2
487.088280	2
489.849966	2
489.940104	2
491.083325	6
494.015990	1
495.044469	2
497.945557	2
503.039416	2
504.044901	3
504.085525	2
505.173511	2
506.424318	2
512.113034	10
513.099744	2
514.071690	8
518.892695	2
521.997232	2
522.080611	2
522.752879	1
528.956391	1
529.943797	2
532.316527	2
533.893226	3
537.503005	2
543.217460	2
544.216300	2
544.233090	2
547.183456	90
548.185985	17
549.186408	2
552.905993	2
554.020369	2
555.491664	2
558.898464	4
566.033135	2
573.336425	1
574.039957	3
576.043392	2
576.134825	16
581.035920	3
581.875641	2
582.058660	3
583.153272	3
585.148485	2
598.960029	1
599.126232	11
604.001617	2
609.760889	2
609.783647	1
620.018584	2
620.996871	4
623.480684	2
633.238174	2
644.470415	2
649.951552	2
652.942128	1
661.096798	3
664.947990	2
665.087312	1
667.039169	2
667.117291	2
677.068321	9
678.071315	3
681.742307	2
689.957725	3
705.096821	2
713.130870	2
716.873007	2
725.401267	2
729.080572	2
736.108430	2
742.064534	6
745.056283	2
761.114415	2
761.130284	2
762.119091	6
763.121775	2
770.131687	2
771.214967	2
778.164670	2
783.026720	2
783.925802	2
785.341777	2
798.191855	2
803.036699	1
805.985559	2
808.863760	2
815.273192	1
818.104062	2
827.139448	2
836.663591	2
861.710232	1
885.096102	1
904.102549	1
904.128230	2
905.974967	5
915.163298	3
934.120722	1
939.804765	2
953.094945	2
962.994343	1
969.714104	2
970.541879	2
978.889824	2
993.523435	2
994.583344	2
1005.969235	25
1006.970641	6
1010.323527	2
1015.989788	2
1020.347793	2
1048.587627	2
1055.576410	2
1062.255816	2
1068.668730	2
1105.909843	2
1105.965432	33
1106.966746	7
1110.454111	4
1117.859673	2
1165.985321	23
1166.993939	6
1182.973150	2
1200.892996	1
1204.991929	2
1205.956640	16
1206.819535	2
1206.962121	3
1207.778513	2
1228.078313	1
1232.088523	2
1233.978145	3
1253.467931	2
1254.290004	1
1255.953397	6
1257.948782	2
1265.978062	64
1266.982865	13
1282.971940	5
1305.953902	4
1311.831787	2
1319.359600	2
1333.966349	7
1334.961032	3
1347.526399	2
1352.446266	2
1355.948671	3
1365.974981	48
1366.977040	17
1367.989761	3
1368.066238	2
1371.159380	2
1382.966749	4
1398.517063	2
1425.877436	2
1431.775327	2
1433.958002	7
1434.963914	5
1457.932294	2
1460.639020	2
1465.969084	24
1466.966411	5
1478.144076	2
1482.955151	3
1497.157967	2
