Mass spectrum: D-Ribose 5-phosphate; LC-ESI-ITFT; MS; NEG
Name: D-Ribose 5-phosphate
Name: Ribose 5-phosphate
Class: Natural Product
Formula: C5H11O8P
Exact mass: 230.01915
SMILES: OC(O1)[C@H](O)[C@H](O)[C@H]1COP(O)(O)=O
InChI: InChI=1S/C5H11O8P/c6-3-2(1-12-14(9,10)11)13-5(8)4(3)7/h2-8H,1H2,(H2,9,10,11)/t2-,3-,4-,5?/m1/s1
Instrument: LTQ Orbitrap XL, Thermo Scientfic
Instrument type: LC-ESI-ITFT
Ms type: MS
Ion mode: NEGATIVE
Collision energy: 35eV
Ionization: ESI
Column name: TOSOH TSKgel ODS-100V  5um Part no. 21456
Retention time: 6.792098 min
Base peak: 229.010895
m/z	relative intensity
112.985648	1
138.974381	1
138.977476	2
138.979953	61
138.982429	2
138.985525	1
139.006578	1
139.983341	1
150.979747	1
158.925159	1
160.841743	1
162.838737	1
167.011163	1
168.990385	8
170.893094	1
180.948271	1
184.347402	1
184.876279	1
186.865012	5
188.861978	1
192.990127	13
194.873397	1
197.021363	1
198.917443	1
199.001217	1
200.906649	1
211.000652	2
212.902908	1
222.959105	1
228.830292	2
228.875424	6
228.913372	1
228.946747	1
228.950674	5
228.955256	1
228.960492	1
228.964420	1
228.972275	1
228.974893	1
228.977511	1
228.980130	1
228.982749	1
228.985367	1
228.987331	1
228.989295	2
228.993878	4
228.995187	4
228.999770	8
229.005663	26
229.010901	999
229.016139	29
229.022687	7
229.025306	2
229.027271	5
229.032510	2
229.035784	1
229.037749	2
229.040368	1
229.043643	1
229.046917	1
229.060671	1
229.071151	5
229.074426	1
229.192379	2
230.006103	1
230.008739	1
230.014671	43
230.872543	2
231.015104	11
242.917341	2
247.021531	1
256.892587	1
258.886232	7
260.883270	1
272.865800	1
272.927976	2
280.873222	1
286.970199	6
288.945831	1
288.967175	2
290.938184	1
290.942872	1
302.875166	2
306.988659	2
308.977860	3
317.899749	2
318.906612	7
319.896645	1
320.904328	2
322.883602	4
326.979013	11
326.987950	3
328.937056	1
328.974255	1
330.959375	2
332.936118	2
332.949892	1
342.956162	1
348.956676	1
348.961602	1
348.970223	1
352.893756	1
353.875231	1
355.873335	1
358.892093	1
362.897102	2
369.024796	1
392.906666	2
392.956699	1
394.891742	1
402.011062	1
410.920516	1
412.915411	6
420.991448	1
422.917225	1
422.966525	1
426.021747	1
427.040289	1
429.019519	1
441.019284	2
442.925724	1
442.936291	1
452.928069	4
458.517396	1
458.860757	3
458.886757	1
458.935048	1
458.957339	1
458.964770	1
458.970343	1
458.981489	2
458.987063	2
458.998210	4
459.005642	1
459.014931	14
459.029796	766
459.044661	16
459.063243	5
459.070676	1
459.078109	3
459.083685	1
459.091118	1
459.107845	1
459.124572	1
459.128289	1
459.200786	3
459.544916	1
460.018027	1
460.032940	85
460.047854	2
461.033767	20
461.048730	1
462.035987	1
463.001950	1
467.016354	2
477.040583	3
480.980165	1
480.996109	2
481.012054	89
481.027999	2
482.016168	9
482.975299	2
482.987331	13
483.015408	2
483.991605	1
491.056598	1
496.985469	3
500.950589	1
500.986603	1
501.949814	1
502.947770	9
503.950842	1
504.969781	1
511.942294	3
512.950458	3
516.977507	1
518.964163	1
518.997669	3
524.929700	1
529.946101	14
530.950149	1
532.955200	2
534.950592	1
538.970412	2
540.052389	5
541.056774	1
547.919344	1
547.955692	6
548.926326	9
548.960345	1
549.928778	1
550.924206	2
557.006080	2
565.923748	2
567.920605	1
578.977452	1
578.987980	1
620.021501	1
625.935046	1
662.099904	1
689.020503	2
689.047840	101
689.075179	2
690.053607	14
691.054714	4
692.054560	1
697.034338	1
711.002066	1
711.030722	31
712.034762	5
713.008556	5
713.033736	1
714.009581	1
726.994797	3
727.009611	1
727.999452	1
729.002473	1
732.967866	3
733.012857	6
733.969904	1
734.014988	1
734.989058	1
740.973470	1
741.961428	1
742.970494	9
743.970118	2
744.975603	1
754.947562	1
759.965252	8
760.967653	1
764.949186	1
784.149778	2
785.150542	1
787.028497	1
800.925584	1
840.945841	1
892.117422	1
905.980119	1
919.067286	18
920.073549	4
921.076185	2
941.052508	7
942.051399	2
943.024525	3
944.032039	1
957.015049	1
962.988697	1
963.033866	2
965.013113	1
972.985700	4
973.989934	1
978.999773	1
985.011369	1
989.983000	1
994.968647	2
995.971482	1
1005.975263	7
1006.976678	1
1017.042964	1
1105.965432	8
1106.973704	2
1149.088467	4
1150.089974	1
1155.955800	3
1157.963236	1
1165.985321	1
1171.071814	2
1173.050453	1
1193.053424	1
1203.002907	1
1205.956640	5
1206.954199	1
1255.953397	8
1256.954705	2
1257.948782	2
1258.952477	1
1265.978062	3
1266.982865	1
1305.953902	1
1355.948671	5
1356.949159	1
1357.941301	2
1365.974981	2
1455.946543	2
1456.933658	1
1457.942812	1
1465.969084	1
1466.966411	1
