Mass spectrum: DOPA; LC-ESI-ITFT; MS2; m/z:196.06; NEG
Name: 3,4-Dihydroxy-L-phenylalanine
Name: L-Dopa
Name: 3-Hydroxy-L-tyrosine
Name: L-beta-(3,4-Dihydroxyphenyl)alanine
Name: Levodopa
Name: Dihydroxy-L-phenylalanine
Name: DOPA
Class: Natural Product
Formula: C9H11NO4
Exact mass: 197.06881
SMILES: OC(=O)C([H])(N)Cc(c1)cc(O)c(O)c1
InChI: InChI=1S/C9H11NO4/c10-6(9(13)14)3-5-1-2-7(11)8(12)4-5/h1-2,4,6,11-12H,3,10H2,(H,13,14)/t6-/m0/s1
Instrument: LTQ Orbitrap XL, Thermo Scientfic
Instrument type: LC-ESI-ITFT
Ms type: MS2
Ion mode: NEGATIVE
Collision energy: 35eV
Ionization: ESI
Column name: TOSOH TSKgel ODS-100V  5um Part no. 21456
Retention time: 5.492935 min
Base peak: 179.002243
Precursor m/z: 196.06
m/z	relative intensity
72.027634	27
81.011444	1
91.113022	1
107.103424	3
109.124542	25
122.010696	18
123.102570	15
124.178650	8
125.033691	1
134.106293	85
135.055786	436
150.138519	9
152.056534	419
179.002243	999
