Mass spectrum: D-Gluconic acid; LC-ESI-ITFT; MS2; m/z:195.05; NEG
Name: D-Gluconic acid
Name: D-Gluconate
Name: D-gluco-Hexonic acid
Class: Natural Product
Formula: C6H12O7
Exact mass: 196.05830
SMILES: OCC(O)C(O)C(O)C(O)C(O)=O
InChI: InChI=1S/C6H12O7/c7-1-2(8)3(9)4(10)5(11)6(12)13/h2-5,7-11H,1H2,(H,12,13)
Instrument: LTQ Orbitrap XL, Thermo Scientfic
Instrument type: LC-ESI-ITFT
Ms type: MS2
Ion mode: NEGATIVE
Collision energy: 35eV
Ionization: ESI
Column name: TOSOH TSKgel ODS-100V  5um Part no. 21456
Retention time: 5.717207 min
Base peak: 128.939514
Precursor m/z: 195.05
m/z	relative intensity
70.909683	2
75.061272	28
84.999237	15
86.867386	25
98.915543	70
111.051987	11
128.939514	999
141.020248	8
149.228745	3
159.060989	84
177.014328	161
