Mass spectrum: L-Ornithine; LC-ESI-ITFT; MS2; m/z:265.19; POS
Name: L-Ornithine
Name: (S)-2,5-Diaminovaleric acid
Name: (S)-2,5-Diaminopentanoic acid
Name: (S)-2,5-Diaminopentanoate
Class: Natural Product
Formula: C5H12N2O2
Exact mass: 132.08988
SMILES: NCCC[C@H](N)C(O)=O
InChI: InChI=1S/C5H12N2O2/c6-3-1-2-4(7)5(8)9/h4H,1-3,6-7H2,(H,8,9)/t4-/m0/s1
Instrument: LTQ Orbitrap XL, Thermo Scientfic
Instrument type: LC-ESI-ITFT
Ms type: MS2
Ion mode: POSITIVE
Collision energy: 35eV
Ionization: ESI
Column name: TOSOH TSKgel ODS-100V  5um Part no. 21456
Retention time: 3.966092 min
Base peak: 133.154236
Precursor m/z: 265.19
m/z	relative intensity
115.053391	34
116.077545	35
133.154236	999
148.853241	1
156.241486	1
168.848129	1
177.357559	1
221.182968	1
223.163483	1
223.930756	2
234.999069	1
238.201950	2
246.479172	3
247.234070	20
250.398026	1
265.259918	1
