Mass spectrum: L-Glutamic acid; LC-ESI-ITFT; MS; POS
Name: L-Glutamate
Name: L-Glutamic acid
Name: L-Glutaminic acid
Class: Natural Product
Formula: C5H9NO4
Exact mass: 147.05316
SMILES: OC(=O)CC[C@H](N)C(O)=O
InChI: InChI=1S/C5H9NO4/c6-3(5(9)10)1-2-4(7)8/h3H,1-2,6H2,(H,7,8)(H,9,10)/t3-/m0/s1
Instrument: LTQ Orbitrap XL, Thermo Scientfic
Instrument type: LC-ESI-ITFT
Ms type: MS
Ion mode: POSITIVE
Collision energy: 35eV
Ionization: ESI
Column name: TOSOH TSKgel ODS-100V  5um Part no. 21456
Retention time: 4.824855 min
Base peak: 176.102814
m/z	relative intensity
100.111848	1
102.054776	8
113.070607	4
115.086350	2
116.070432	1
130.048097	1
130.049778	37
130.051178	1
130.052019	1
131.053091	1
137.132305	1
141.958490	1
147.076683	8
147.538998	1
147.887930	1
147.966432	1
148.002816	1
148.029007	3
148.039553	1
148.044997	1
148.049080	1
148.050441	1
148.052142	2
148.054864	4
148.057246	8
148.058267	8
148.060309	621
148.062010	10
148.063031	8
148.065073	3
148.066094	5
148.068816	2
148.070858	1
148.072220	1
148.074942	1
148.076304	1
148.077665	1
148.091621	3
148.117835	1
148.154275	1
148.232989	1
148.584387	1
149.022904	1
149.056928	1
149.063459	32
149.065178	1
149.066210	1
150.064339	3
158.002927	2
158.092249	1
158.096003	1
158.961247	1
159.041531	1
159.067296	1
159.069191	1
159.072980	2
159.073738	2
159.076391	145
159.079423	2
159.081318	1
159.082834	1
159.111262	1
160.079315	8
163.132671	1
170.096285	1
171.149548	13
174.128018	4
175.426851	1
175.859062	1
175.879326	1
175.981143	1
176.028335	1
176.062307	4
176.074222	1
176.075987	1
176.077752	1
176.080400	1
176.083048	1
176.085696	1
176.086579	1
176.088344	1
176.090110	1
176.092316	4
176.095848	6
176.098937	12
176.100261	12
176.102910	999
176.105117	16
176.106441	12
176.108648	5
176.110414	7
176.113946	3
176.116595	1
176.118360	1
176.120126	1
176.121009	1
176.121892	1
176.123658	1
176.125424	1
176.128956	1
176.130722	1
176.132488	1
176.137787	1
176.143527	4
176.177533	1
176.224803	1
176.326920	1
176.346823	1
176.782884	1
177.099417	5
177.102979	1
177.105650	63
177.109657	1
178.106203	2
178.108448	1
179.062747	1
182.984328	2
187.125577	1
199.179842	1
223.063237	2
351.186963	1
351.190693	1
351.198151	100
351.204367	1
351.209340	1
352.193540	1
352.201030	9
391.282894	9
392.286254	1
538.334423	1
566.376791	1
