Mass spectrum: NADP+; LC-ESI-ITFT; MS2; m/z:372.55; POS
Name: NADP+
Name: NADP
Name: Nicotinamide adenine dinucleotide phosphate
Name: beta-Nicotinamide adenine dinucleotide phosphate
Name: TPN
Name: Triphosphopyridine nucleotide
Class: Natural Product
Formula: [C21H29N7O17P3]+
Exact mass: 744.08328
SMILES: NC(=O)c(c5)c[n+1](cc5)[C@H](O1)[C@H](O)[C@H](O)[C@@H](COP(O)(=O)OP(O)(=O)OC[C@@H](O2)[C@@H](O)[C@@H](OP(O)(O)=O)[C@@H]2n(c3)c(n4)c(c(N)nc4)n3)1
InChI: InChI=1S/C21H28N7O17P3/c22-17-12-19(25-7-24-17)28(8-26-12)21-16(44-46(33,34)35)14(30)11(43-21)6-41-48(38,39)45-47(36,37)40-5-10-13(29)15(31)20(42-10)27-3-1-2-9(4-27)18(23)32/h1-4,7-8,10-11,13-16,20-21,29-31H,5-6H2,(H7-,22,23,24,25,32,33,34,35,36,37,38,39)/p+1/t10-,11-,13-,14-,15-,16-,20-,21-/m1/s1
Instrument: LTQ Orbitrap XL, Thermo Scientfic
Instrument type: LC-ESI-ITFT
Ms type: MS2
Ion mode: POSITIVE
Collision energy: 35eV
Ionization: ESI
Column name: TOSOH TSKgel ODS-100V  5um Part no. 21456
Retention time: 8.870105 min
Base peak: 604.009033
Precursor m/z: 372.55
m/z	relative intensity
123.014877	504
136.105560	21
177.196609	1
193.172653	1
218.831970	1
232.185760	13
273.186066	2
312.367432	1
313.089783	1
330.241882	4
335.089417	3
354.986328	2
363.595734	191
364.578949	1
366.096161	2
371.681671	1
409.978119	59
428.306976	1
468.949310	10
486.308075	1
486.978729	3
490.154480	90
506.201843	9
508.050720	29
524.000549	1
586.181335	20
587.361267	1
590.882507	2
604.009033	999
604.805420	4
609.045227	12
610.295532	1
621.520386	29
622.157043	307
623.245178	2
726.382874	1
