Mass spectrum: Cytidine; LC-ESI-ITFT; MS2; m/z:242.08; NEG
Name: Cytidine
Class: Natural Product
Formula: C9H13N3O5
Exact mass: 243.08552
SMILES: OC[C@@H](O1)[C@@H](O)[C@@H](O)[C@@H]1N(C=2)C(=O)N=C(N)C2
InChI: InChI=1S/C9H13N3O5/c10-5-1-2-12(9(16)11-5)8-7(15)6(14)4(3-13)17-8/h1-2,4,6-8,13-15H,3H2,(H2,10,11,16)/t4-,6-,7-,8-/m1/s1
Instrument: LTQ Orbitrap XL, Thermo Scientfic
Instrument type: LC-ESI-ITFT
Ms type: MS2
Ion mode: NEGATIVE
Collision energy: 35eV
Ionization: ESI
Column name: TOSOH TSKgel ODS-100V  5um Part no. 21456
Retention time: 5.459747 min
Base peak: 108.920547
Precursor m/z: 242.08
m/z	relative intensity
91.048737	159
108.920547	999
110.034668	408
126.100189	30
138.079666	4
139.124451	5
151.931091	236
153.987671	5
170.286942	4
181.948898	7
196.068497	20
199.017944	32
224.066818	4
