Mass spectrum: NADP+; LC-ESI-ITFT; MS; NEG
Name: NADP+
Name: NADP
Name: Nicotinamide adenine dinucleotide phosphate
Name: beta-Nicotinamide adenine dinucleotide phosphate
Name: TPN
Name: Triphosphopyridine nucleotide
Class: Natural Product
Formula: [C21H29N7O17P3]+
Exact mass: 744.08328
SMILES: NC(=O)c(c5)c[n+1](cc5)[C@H](O1)[C@H](O)[C@H](O)[C@@H](COP(O)(=O)OP(O)(=O)OC[C@@H](O2)[C@@H](O)[C@@H](OP(O)(O)=O)[C@@H]2n(c3)c(n4)c(c(N)nc4)n3)1
InChI: InChI=1S/C21H28N7O17P3/c22-17-12-19(25-7-24-17)28(8-26-12)21-16(44-46(33,34)35)14(30)11(43-21)6-41-48(38,39)45-47(36,37)40-5-10-13(29)15(31)20(42-10)27-3-1-2-9(4-27)18(23)32/h1-4,7-8,10-11,13-16,20-21,29-31H,5-6H2,(H7-,22,23,24,25,32,33,34,35,36,37,38,39)/p+1/t10-,11-,13-,14-,15-,16-,20-,21-/m1/s1
Instrument: LTQ Orbitrap XL, Thermo Scientfic
Instrument type: LC-ESI-ITFT
Ms type: MS
Ion mode: NEGATIVE
Collision energy: 35eV
Ionization: ESI
Column name: TOSOH TSKgel ODS-100V  5um Part no. 21456
Retention time: 8.881773 min
Base peak: 620.019409
m/z	relative intensity
134.046862	2
150.979901	1
158.924946	16
169.233637	1
174.979931	12
176.935622	2
192.989893	2
211.000404	1
214.012724	1
215.055208	1
254.946176	7
272.949778	1
272.956594	53
272.960854	1
272.964262	1
273.959604	2
274.960401	1
290.966890	15
291.970011	1
310.033994	2
328.044651	9
329.048253	1
334.911669	1
338.987499	14
346.054414	3
352.922129	3
370.933558	2
386.988163	1
390.000167	3
407.868287	1
407.983475	1
407.997487	3
408.009943	131
408.025515	2
408.036415	1
409.014549	14
410.015027	1
426.007936	1
426.021226	42
426.029533	1
426.036179	1
427.024762	4
466.954751	2
469.966102	2
484.964077	20
485.968454	2
486.969865	1
487.976410	10
488.979950	1
505.986870	14
506.990427	1
522.041650	8
523.045908	1
540.032755	1
540.054094	35
541.056107	5
542.056143	1
558.062450	7
559.067567	1
602.009011	30
603.014905	3
604.014907	1
619.213580	1
619.752491	3
619.796218	1
619.848695	1
619.880768	1
619.889516	1
619.898264	1
619.912844	1
619.921592	1
619.942006	3
619.950754	2
619.959504	2
619.968253	6
619.994502	16
620.020752	999
620.047005	14
620.058673	2
620.067424	5
620.082010	1
620.093679	3
620.111184	1
620.122854	1
620.134524	1
620.146195	1
620.157866	1
620.187045	1
620.233736	1
620.274594	1
620.289188	3
620.753525	1
620.826581	1
620.972733	1
620.999045	3
621.022436	192
621.048752	3
621.069221	1
621.291522	1
622.000171	1
622.023618	43
622.049997	1
623.027223	4
624.027368	1
638.027161	3
639.033135	1
641.976246	1
663.934382	1
699.987733	1
741.010711	1
741.716247	2
741.842206	1
741.910924	1
741.926196	1
741.937650	1
741.964378	2
741.975833	1
741.987288	1
742.002563	4
742.036932	12
742.067484	824
742.101858	11
742.117135	2
742.128594	4
742.162972	2
742.178252	1
742.185892	1
742.201172	1
742.216453	1
742.231735	1
742.418970	2
742.965798	1
743.004061	1
743.038499	3
743.069113	206
743.095902	2
743.103556	3
743.122693	1
743.130347	1
744.072772	43
744.107285	1
745.074623	5
746.074649	1
766.104778	2
803.995389	1
808.115794	2
809.119318	1
1047.048550	1
1048.047829	1
1082.065510	1
1113.605670	12
1114.104328	8
1114.610351	5
1115.109684	2
1169.096958	2
1170.094495	1
1223.035200	1
1237.456609	2
1237.793872	2
1238.123042	2
1238.452343	1
1241.050189	16
1242.050265	5
1243.059831	1
1363.097662	9
1364.096557	4
1365.096550	2
1424.625676	1
1485.146399	28
1485.384319	1
1485.481666	3
1485.643932	6
1485.817046	3
1486.141716	14
1486.477320	1
1486.628920	2
1487.159704	3
1488.146199	1
