Mass spectrum: Ribitol; LC-ESI-ITFT; MS2; m/z:153.08; POS
Name: Ribitol
Name: Adonitol
Class: Natural Product
Formula: C5H12O5
Exact mass: 152.06847
SMILES: OCC([H])(O)C([H])(O)C([H])(O)CO
InChI: InChI=1S/C5H12O5/c6-1-3(8)5(10)4(9)2-7/h3-10H,1-2H2/t3-,4+,5-
Instrument: LTQ Orbitrap XL, Thermo Scientfic
Instrument type: LC-ESI-ITFT
Ms type: MS2
Ion mode: POSITIVE
Collision energy: 35eV
Ionization: ESI
Column name: TOSOH TSKgel ODS-100V  5um Part no. 21456
Retention time: 5.021660 min
Base peak: 134.977722
Precursor m/z: 153.08
m/z	relative intensity
56.982880	7
68.986679	4
71.056580	4
99.020920	80
112.037857	1
117.017212	102
134.977722	999
