Mass spectrum: 2-Oxoglutaric acid; LC-ESI-ITFT; MS2; m/z:101.02; NEG
Name: 2-Oxoglutarate
Name: Oxoglutaric acid
Name: 2-Ketoglutaric acid
Name: alpha-Ketoglutaric acid
Name: 2-Oxoglutaric acid
Class: Natural Product
Formula: C5H6O5
Exact mass: 146.02152
SMILES: OC(=O)CCC(=O)C(O)=O
InChI: InChI=1S/C5H6O5/c6-3(5(9)10)1-2-4(7)8/h1-2H2,(H,7,8)(H,9,10)
Instrument: LTQ Orbitrap XL, Thermo Scientfic
Instrument type: LC-ESI-ITFT
Ms type: MS2
Ion mode: NEGATIVE
Collision energy: 35eV
Ionization: ESI
Column name: TOSOH TSKgel ODS-100V  5um Part no. 21456
Retention time: 8.910043 min
Base peak: 56.953369
Precursor m/z: 101.02
m/z	relative intensity
56.953369	999
