Mass spectrum: NADP+; LC-ESI-ITFT; MS; NEG
Name: NADP+
Name: NADP
Name: Nicotinamide adenine dinucleotide phosphate
Name: beta-Nicotinamide adenine dinucleotide phosphate
Name: TPN
Name: Triphosphopyridine nucleotide
Class: Natural Product
Formula: [C21H29N7O17P3]+
Exact mass: 744.08328
SMILES: NC(=O)c(c5)c[n+1](cc5)[C@H](O1)[C@H](O)[C@H](O)[C@@H](COP(O)(=O)OP(O)(=O)OC[C@@H](O2)[C@@H](O)[C@@H](OP(O)(O)=O)[C@@H]2n(c3)c(n4)c(c(N)nc4)n3)1
InChI: InChI=1S/C21H28N7O17P3/c22-17-12-19(25-7-24-17)28(8-26-12)21-16(44-46(33,34)35)14(30)11(43-21)6-41-48(38,39)45-47(36,37)40-5-10-13(29)15(31)20(42-10)27-3-1-2-9(4-27)18(23)32/h1-4,7-8,10-11,13-16,20-21,29-31H,5-6H2,(H7-,22,23,24,25,32,33,34,35,36,37,38,39)/p+1/t10-,11-,13-,14-,15-,16-,20-,21-/m1/s1
Instrument: LTQ Orbitrap XL, Thermo Scientfic
Instrument type: LC-ESI-ITFT
Ms type: MS
Ion mode: NEGATIVE
Collision energy: 35eV
Ionization: ESI
Column name: TOSOH TSKgel ODS-100V  5um Part no. 21456
Retention time: 8.896762 min
Base peak: 620.019592
m/z	relative intensity
134.047155	3
150.979901	1
158.921918	1
158.925325	21
158.928353	1
169.233637	1
174.979931	14
176.935622	3
192.990400	3
211.000404	3
214.012724	1
254.946176	8
272.942110	1
272.949778	1
272.956594	65
272.964262	1
272.971930	1
273.959604	2
274.960401	1
275.016401	1
290.966890	18
291.970953	1
310.033994	3
328.044651	16
329.048253	2
334.911669	1
346.055630	13
347.058776	1
352.922129	3
370.933558	1
383.999544	1
386.988163	1
390.000167	3
401.996867	1
402.010573	54
402.024279	1
403.012960	4
404.014498	1
404.998215	1
407.983475	1
407.997487	1
408.011501	143
408.025515	2
408.037972	1
409.014549	15
410.015027	2
426.007936	1
426.021226	49
426.029533	1
426.036179	1
427.024762	4
428.025155	1
466.954751	2
469.966102	3
480.981529	1
484.966094	21
485.968454	2
486.969865	1
487.976410	11
488.979950	1
505.986870	19
506.990427	2
522.041650	10
523.045908	2
539.836016	1
540.011416	1
540.032755	3
540.054094	195
540.075435	3
540.084921	1
540.094406	1
540.272305	1
541.037086	1
541.056107	31
542.058527	4
558.042525	1
558.064941	43
558.087358	1
559.067567	5
560.067889	1
572.079861	3
583.999544	1
602.009011	26
603.014905	3
604.014907	1
619.213580	1
619.749577	3
619.886600	1
619.895348	1
619.904096	1
619.912844	1
619.921592	1
619.936173	1
619.944922	3
619.956587	1
619.968253	5
619.994502	14
620.020752	999
620.047005	14
620.058673	3
620.070341	7
620.082010	1
620.087845	1
620.096597	2
620.105349	1
620.111184	1
620.122854	1
620.140360	1
620.149113	1
620.154948	1
620.187045	1
620.198717	1
620.210390	1
620.286269	3
620.826581	1
620.972733	1
620.996122	3
621.022436	184
621.048752	2
621.072145	1
621.973794	1
622.000171	1
622.023618	46
622.049997	1
623.027223	3
642.000832	1
662.102332	22
663.104503	4
663.934382	1
664.105718	1
702.084801	1
741.010711	1
741.716247	2
741.891835	1
741.968196	2
741.979651	1
741.998744	4
742.033113	9
742.067484	731
742.101858	9
742.117135	2
742.132414	5
742.147693	1
742.155332	1
742.170612	1
742.178252	1
742.201172	1
742.224094	1
742.247017	1
742.415149	2
742.713341	1
743.004061	1
743.038499	2
743.069113	185
743.103556	2
743.122693	1
743.134175	1
744.072772	37
745.074623	4
746.074649	1
764.049731	1
1065.125439	1
1073.621784	2
1074.127079	2
1089.127340	1
1113.605670	5
1114.111353	3
1114.603321	2
1115.116719	1
1145.086972	1
1161.080161	4
1162.082421	1
1169.096958	1
1203.167229	1
1211.122797	1
1237.448385	1
1237.777417	1
1241.050189	9
1242.050265	3
1243.051551	1
1283.126939	3
1284.126150	1
1325.217625	1
1326.211663	1
1363.097662	6
1364.096557	2
1365.106079	1
1405.179475	10
1405.687152	1
1406.185141	5
1407.181913	1
1432.173220	1
1445.173544	2
1445.661509	2
1446.170502	2
1446.648577	1
1458.477958	1
1458.814761	1
1458.835815	1
1459.162212	1
1485.146399	17
1485.643932	2
1485.817046	1
1486.152540	9
1486.650579	1
1487.148868	3
1488.157045	1
