Mass spectrum: 2-Oxoglutaric acid; LC-ESI-ITFT; MS; NEG
Name: 2-Oxoglutarate
Name: Oxoglutaric acid
Name: 2-Ketoglutaric acid
Name: alpha-Ketoglutaric acid
Name: 2-Oxoglutaric acid
Class: Natural Product
Formula: C5H6O5
Exact mass: 146.02152
SMILES: OC(=O)CCC(=O)C(O)=O
InChI: InChI=1S/C5H6O5/c6-3(5(9)10)1-2-4(7)8/h1-2H2,(H,7,8)(H,9,10)
Instrument: LTQ Orbitrap XL, Thermo Scientfic
Instrument type: LC-ESI-ITFT
Ms type: MS
Ion mode: NEGATIVE
Collision energy: 35eV
Ionization: ESI
Column name: TOSOH TSKgel ODS-100V  5um Part no. 21456
Retention time: 8.890607 min
Base peak: 145.013794
m/z	relative intensity
101.020436	5
101.022163	1
101.022930	5
101.024465	187
101.025424	6
101.025999	6
101.027726	2
101.042116	1
102.027722	7
102.295384	1
102.512900	1
103.028610	1
103.920096	2
104.195847	1
105.037852	1
105.812125	1
107.036116	2
107.417909	1
108.242522	1
108.620314	1
109.530272	1
109.815838	1
109.986058	1
110.345862	1
111.693518	1
112.539073	1
112.956156	1
113.842963	1
114.930203	1
114.951622	5
115.616012	1
116.430595	1
117.710436	1
117.909262	1
118.041205	1
118.587784	1
123.622040	1
127.020471	1
127.919920	1
128.078881	1
130.865923	1
131.135036	1
131.206845	1
131.867518	1
133.158332	1
134.040574	2
134.042040	2
134.043506	1
134.044679	3
134.047025	119
134.048491	2
134.049370	2
134.050543	1
134.051130	1
134.052009	1
135.043914	2
135.050140	5
135.926128	1
136.972255	1
138.626812	1
138.979953	1
139.891704	1
142.946173	1
143.887187	1
143.947533	1
143.951122	1
144.862227	1
144.922528	2
144.962749	1
144.966047	1
144.983526	4
144.992101	1
144.992761	1
144.994081	1
144.994740	1
144.997709	1
144.998369	1
145.001668	2
145.003317	2
145.004637	2
145.005956	4
145.008266	12
145.011565	22
145.013874	999
145.016514	25
145.019153	12
145.021133	2
145.022123	3
145.022783	3
145.024762	1
145.025752	1
145.027402	1
145.030042	1
145.033672	1
145.035322	1
145.044232	4
145.105307	2
145.157829	1
145.425506	1
145.890149	1
146.013075	1
146.014408	1
146.017075	41
146.020075	1
146.112127	1
147.011861	1
147.017923	6
148.899926	1
148.952117	1
151.006738	3
151.016205	2
151.399811	1
152.966818	2
152.995059	1
155.029110	1
156.894379	1
158.892611	1
158.924781	2
159.606790	1
159.893276	1
160.418651	1
160.892241	2
160.990606	11
160.992536	1
161.002957	1
161.214676	1
161.893591	1
162.109020	1
162.680247	1
162.892928	3
162.969548	4
163.024591	6
164.894756	1
166.282013	1
166.995669	20
166.997708	1
166.998931	1
168.961750	2
169.628032	1
169.981282	1
170.977540	8
171.024012	12
171.156350	1
171.977470	1
172.026908	1
172.974162	1
175.801236	1
177.738061	1
180.961608	2
182.169853	1
184.363008	1
184.989838	1
186.636466	1
187.103164	1
188.037931	2
188.522125	1
189.453763	1
190.981848	1
192.990127	1
194.995778	1
196.956591	1
198.090514	1
198.989019	1
199.018720	4
200.984684	21
201.007296	1
202.929121	1
204.980622	2
205.944334	1
206.884495	1
206.940727	13
208.956471	1
208.992428	1
211.000652	2
211.890003	1
213.910681	1
218.903614	1
220.664200	1
221.609176	1
224.179922	1
224.951139	4
224.960063	1
225.780814	1
226.086221	1
227.981166	1
228.979475	2
230.354471	1
231.935298	1
234.964376	1
234.971861	1
236.987436	1
240.845581	1
243.008210	11
244.011863	1
246.037912	1
246.972394	1
248.059033	7
250.313036	1
250.941221	1
251.218583	1
251.403746	1
252.946406	1
253.557836	1
255.501910	1
256.807816	1
257.081724	1
258.136296	1
259.021646	8
262.966336	1
264.961966	1
267.587203	1
268.011953	1
269.078682	5
270.231505	1
271.057565	8
271.961970	2
272.956090	3
272.968870	2
275.016751	1
275.909020	1
275.999092	1
280.817202	1
280.859882	8
280.863439	1
280.977303	1
284.007449	1
284.025535	1
284.992035	2
290.904435	1
290.961625	4
290.967251	1
291.034778	34
291.039468	1
292.038249	3
293.990337	1
294.950758	1
296.835525	1
296.919603	1
298.870154	4
298.929709	1
300.001811	1
300.833088	1
301.609428	1
302.737784	1
302.925961	1
306.048792	2
306.075094	1
306.874875	2
308.561681	1
309.026093	1
309.045594	15
309.985905	1
310.048814	1
310.779336	1
312.265869	1
313.004245	2
313.016800	64
313.025170	1
313.258634	1
314.004741	1
314.020510	6
314.639606	1
314.894936	1
314.986804	1
314.993142	43
315.020605	1
315.995768	4
316.036100	1
316.880594	1
316.940283	1
316.996790	1
317.030915	2
318.022935	1
321.643055	1
322.421522	1
323.000922	1
324.885669	1
327.056105	3
328.043944	6
328.569922	1
328.982146	14
328.990037	2
329.047542	1
329.985526	2
330.060285	1
331.027637	4
331.110719	1
332.956779	1
332.991217	4
333.955350	1
333.994556	1
334.731526	1
334.951471	13
334.986219	1
334.998961	7
335.040668	1
335.950892	1
336.002086	1
336.885858	1
336.909223	1
337.980809	2
339.952193	1
340.627011	1
342.958562	2
343.945850	11
343.956696	1
344.538337	1
344.954352	39
345.957571	2
346.045120	1
346.054849	71
346.064579	1
346.074310	1
346.913894	2
347.057990	7
347.983314	2
348.952981	1
349.037973	1
350.962891	1
350.966617	1
351.001402	5
351.232605	1
351.966255	2
352.948872	1
352.961400	20
353.962029	1
353.965803	1
354.959338	1
355.991322	3
360.884969	2
362.924532	1
364.940598	1
366.118338	12
366.936325	7
367.122311	1
368.134422	5
369.011404	2
369.137325	1
378.896485	25
379.898948	1
382.722292	1
382.982708	1
383.032273	1
383.036522	1
383.080432	1
383.091765	3
383.094598	3
383.100265	6
383.113015	420
383.120099	9
383.124349	7
383.137101	3
383.144185	1
383.148436	1
383.243389	1
384.095289	1
384.116623	60
384.123734	1
384.128001	1
384.152183	1
385.108472	12
385.115611	2
385.119895	2
385.311304	1
386.112769	2
394.890259	1
396.905345	1
401.589563	1
402.009540	1
405.094197	5
406.100415	1
406.160722	1
408.010441	7
408.202028	1
409.013485	1
412.915411	2
414.913691	1
415.915070	2
416.913645	3
417.915821	1
418.887598	1
418.913515	3
420.914756	1
424.982015	2
426.021747	6
427.023617	2
427.076971	2
430.938164	1
431.870945	1
435.606753	1
437.032485	8
438.035359	1
439.026048	1
443.045506	1
445.039603	8
447.962924	1
448.004127	1
450.938664	1
455.092036	1
457.077632	1
461.001974	1
467.071655	1
467.174657	1
469.070993	1
473.042276	1
478.900331	1
478.977562	2
479.975311	1
480.972194	17
481.079827	6
481.970186	1
481.978183	2
482.008171	2
482.084154	1
482.995353	1
483.005380	1
484.001664	11
485.005069	2
485.999452	1
486.023744	1
489.919616	1
489.938055	1
490.976428	1
492.075844	1
496.026067	1
500.961181	1
501.067118	1
502.954163	5
503.959392	2
504.903328	1
504.920476	1
504.939769	88
504.956918	1
504.993365	1
505.942359	8
506.943625	2
508.850984	1
508.991975	1
509.993608	1
510.991654	1
511.124802	1
512.139310	2
513.884563	1
513.950596	17
514.058478	1
514.137759	1
514.155380	2
514.953662	1
515.428660	1
516.034960	1
517.061907	8
517.441966	3
518.065189	1
518.892695	1
522.949390	33
523.125667	1
523.231928	1
523.951737	3
524.321271	1
524.954695	1
529.062135	3
529.115018	1
529.119617	1
529.135714	109
529.154111	2
529.904616	1
529.927663	2
529.946101	134
529.964541	2
529.982982	1
530.068281	1
530.137458	20
530.947838	10
531.130487	4
531.947781	2
531.961689	2
532.135584	1
533.890895	1
534.121706	2
534.366669	1
534.999685	1
535.128294	4
535.992346	1
536.639997	1
537.121802	2
540.033420	1
540.038162	1
540.052389	135
540.064244	3
540.071358	2
541.056774	19
542.056810	2
543.705757	1
547.144766	4
547.955692	24
548.960345	3
550.943751	6
551.102594	2
551.117260	46
552.106114	1
552.120820	7
553.092717	45
553.109920	1
553.117293	1
554.096752	8
555.088698	2
558.063134	15
558.898464	2
559.065755	2
560.958613	1
562.034496	2
566.129830	1
566.552524	1
567.001199	1
567.082834	9
568.086847	2
569.078139	1
569.126874	6
569.938331	1
570.993761	3
571.055633	5
572.054710	6
572.077975	1
573.051227	65
573.097881	4
574.055548	10
574.102324	1
575.046879	5
575.072933	2
575.951981	8
576.953467	1
580.050182	1
581.059735	2
582.045395	17
582.066620	1
583.054844	41
584.056253	6
585.049551	1
591.060182	1
595.999402	2
601.025848	1
602.436939	1
604.217623	1
604.313039	1
605.035003	2
606.234576	1
609.908841	1
611.142925	2
619.977751	2
620.018584	2
632.642498	1
643.143318	2
643.334414	1
644.566248	1
650.960767	18
651.962899	2
653.989916	27
654.015195	1
654.992719	3
655.011722	2
655.179616	1
656.016878	1
657.014803	2
659.017498	1
659.705238	1
659.971026	9
660.955518	1
660.974780	1
662.099904	21
663.002073	2
663.082713	3
663.105295	3
664.912357	1
667.941671	1
672.943273	3
675.105451	1
675.934725	1
675.967928	80
675.994492	1
676.971804	10
677.971249	3
678.996306	23
680.000239	2
681.003042	2
684.532069	1
686.074253	16
687.076916	3
688.078370	1
692.109598	3
697.138654	2
697.949642	4
698.116888	1
699.114644	2
702.141870	5
704.919989	1
708.056227	1
713.102088	1
717.076123	2
718.074822	1
719.071967	15
719.301531	1
720.074840	4
721.024942	1
721.065180	1
721.094446	2
725.840720	1
728.066256	1
729.073134	1
730.078374	1
730.175285	4
737.082890	2
737.132042	1
741.057313	2
750.049255	1
750.239457	3
751.055427	1
751.242121	1
752.063624	1
752.254593	4
753.261301	1
766.105670	1
766.759100	1
767.204553	1
767.232657	78
768.237407	21
768.269591	1
769.228008	4
769.244131	3
770.232642	2
772.990330	1
775.012275	1
777.115831	1
784.095849	1
789.214707	13
790.216792	4
791.191355	4
800.009933	3
801.015523	1
805.173437	1
808.121064	28
808.164468	1
809.124597	9
809.150688	1
810.130001	2
811.150374	1
819.019963	1
820.145925	3
821.154164	4
821.986138	1
822.159810	1
825.017701	7
826.016999	2
826.129141	3
826.156058	1
830.104693	2
832.082833	1
838.133207	1
840.425450	1
848.119006	1
855.105545	1
863.102624	1
874.061506	1
875.518215	1
877.008008	1
878.939600	1
887.074458	1
889.059453	15
890.061976	4
891.046094	1
891.066195	1
892.077149	1
896.107808	1
898.072369	1
899.074900	1
902.082346	1
905.980119	1
911.039906	1
914.065867	22
915.069155	6
916.058381	1
918.456958	1
924.173559	2
935.238268	3
936.244150	1
937.213711	9
938.217353	3
941.254341	1
951.202113	1
953.245058	2
954.252292	1
957.171685	2
957.222040	1
958.218773	1
959.194613	1
966.169548	3
967.174610	3
968.181241	1
969.183744	1
982.993603	1
984.836173	1
985.186613	2
986.824477	1
989.153744	2
992.057756	1
993.026632	1
1005.095735	1
1005.969235	4
1010.390270	1
1012.273932	1
1016.069331	1
1035.080882	2
1036.882633	1
1046.224432	13
1047.228933	4
1048.228469	1
1057.061760	1
1060.087528	5
1061.092474	1
1068.206856	1
1080.253242	1
1080.924348	1
1082.066666	1
1085.051933	1
1105.895946	1
1105.965432	3
1106.966746	1
1118.749923	1
1127.203392	1
1132.938008	1
1133.875188	1
1136.085760	1
1151.358461	5
1152.355547	4
1155.354587	1
1165.985321	4
1173.338949	1
1174.349523	1
1174.478789	1
1183.303765	1
1189.317360	1
1193.045639	1
1202.411887	1
1205.236951	1
1205.268572	4
1205.869611	1
1205.956640	3
1206.281107	1
1206.954199	1
1207.271143	1
1209.135713	1
1216.204523	1
1227.249379	1
1228.232815	1
1237.252292	1
1238.231315	1
1239.640183	1
1245.615323	1
1265.978062	9
1266.982865	2
1282.963258	1
1290.348687	1
1298.195651	1
1299.194823	1
1307.033463	1
1320.165785	1
1322.261693	1
1328.396489	1
1365.479131	1
1365.965443	4
1366.013135	1
1366.967491	1
1374.272649	1
1381.801482	1
1382.141199	1
1383.316616	1
1420.208017	1
1430.343419	1
1431.325067	1
1437.843788	1
1465.958479	3
1466.000898	1
1466.998257	1
1469.453543	1
