Mass spectrum: ADP; LC-ESI-ITFT; MS2; m/z:426.02; NEG
Name: ADP
Name: Adenosine 5'-diphosphate
Class: Natural Product
Formula: C10H15N5O10P2
Exact mass: 427.02941
SMILES: Nc(n3)c(n2)c(nc3)n(c2)[C@H](O1)[C@H](O)[C@H](O)[C@@H](COP(O)(=O)OP(O)(O)=O)1
InChI: InChI=1S/C10H15N5O10P2/c11-8-5-9(13-2-12-8)15(3-14-5)10-7(17)6(16)4(24-10)1-23-27(21,22)25-26(18,19)20/h2-4,6-7,10,16-17H,1H2,(H,21,22)(H2,11,12,13)(H2,18,19,20)/t4-,6-,7-,10-/m1/s1
Instrument: LTQ Orbitrap XL, Thermo Scientfic
Instrument type: LC-ESI-ITFT
Ms type: MS2
Ion mode: NEGATIVE
Collision energy: 35eV
Ionization: ESI
Column name: TOSOH TSKgel ODS-100V  5um Part no. 21456
Retention time: 8.922740 min
Base peak: 328.037842
Precursor m/z: 426.02
m/z	relative intensity
134.022583	208
158.956909	40
193.092682	3
214.086258	4
273.091675	3
291.022400	14
328.037842	999
342.162231	1
407.995758	96
410.950714	1
425.110443	1
426.120819	1
