Mass spectrum: L-Histidine; LC-ESI-ITFT; MS; NEG
Name: L-Histidine
Name: (S)-alpha-Amino-1H-imidazole-4-propionic acid
Class: Natural Product
Formula: C6H9N3O2
Exact mass: 155.06948
SMILES: C1=C(NC=N1)C[C@@H](C(=O)O)N
InChI: InChI=1S/C6H9N3O2/c7-5(6(10)11)1-4-2-8-3-9-4/h2-3,5H,1,7H2,(H,8,9)(H,10,11)/t5-/m0/s1
Instrument: LTQ Orbitrap XL, Thermo Scientfic
Instrument type: LC-ESI-ITFT
Ms type: MS
Ion mode: NEGATIVE
Collision energy: 35eV
Ionization: ESI
Column name: TOSOH TSKgel ODS-100V  5um Part no. 21456
Retention time: 4.083957 min
Base peak: 154.061981
m/z	relative intensity
102.948984	1
102.957076	2
102.972867	1
107.061594	1
108.056754	5
108.501442	1
109.040681	1
109.721920	1
110.070173	1
110.071482	1
110.072573	19
111.195571	1
112.964948	1
112.979921	3
112.981736	3
112.983778	6
112.984686	5
112.985820	202
112.987182	4
112.987863	6
112.989905	3
112.991720	2
113.006698	1
113.315548	1
113.630471	1
113.989004	2
114.071824	1
114.951567	1
119.735397	1
123.620423	1
124.175663	1
124.607361	1
127.300534	1
131.076265	1
131.077966	1
131.080234	3
131.082786	109
131.084204	3
131.085338	3
131.087890	2
131.089591	1
131.108876	1
131.276661	1
132.086016	4
134.881517	1
135.069943	1
136.051599	2
137.029144	1
137.035508	16
137.941628	1
138.334870	1
140.298274	1
140.553246	1
141.853593	1
142.469090	1
145.097966	3
146.126733	1
146.938395	1
150.674846	1
151.476484	1
153.962017	2
153.989813	1
154.025560	1
154.028811	5
154.034228	1
154.040008	1
154.042897	2
154.046509	1
154.049761	3
154.051205	1
154.052650	9
154.055540	13
154.056986	3
154.058792	26
154.062043	999
154.065295	27
154.068547	14
154.071437	8
154.073605	2
154.074689	2
154.080832	2
154.085168	1
154.085891	1
154.088420	1
154.090589	1
154.095287	5
154.097816	1
154.103960	1
154.162167	2
154.661709	1
155.056380	1
155.058933	7
155.062581	1
155.063311	1
155.065500	52
155.067689	2
155.068418	1
155.212991	1
155.800655	1
156.066267	1
156.068846	1
156.077687	8
156.770355	1
156.850861	1
157.008340	1
157.011686	11
158.423961	1
160.967365	1
162.982824	2
162.998943	1
163.295009	1
163.991486	1
165.508851	1
171.543586	1
173.064800	2
173.090182	1
173.093624	2
173.096636	4
173.098787	1
173.100938	8
173.104381	301
173.108253	8
173.112126	4
173.115569	2
173.144405	1
174.101352	3
174.107428	10
175.246259	1
176.036113	1
176.040525	4
176.044056	138
176.046704	2
176.048027	3
176.051999	1
176.055971	1
177.047428	5
178.048630	1
178.977346	3
180.035599	1
180.060703	1
180.964746	1
180.969346	2
180.973025	73
180.975785	2
180.977165	2
180.981305	1
181.274677	1
181.976216	1
183.432394	1
184.530464	1
185.788085	1
185.962360	1
186.448655	1
186.929134	1
187.994014	1
189.594172	1
190.377851	1
190.927925	1
192.018660	1
194.040296	1
195.085756	1
196.030748	3
198.025659	1
198.935915	2
201.904518	1
203.466428	1
204.952816	1
204.956697	10
206.972139	15
207.224960	1
208.988913	3
209.445732	1
209.500720	1
209.996585	3
210.999402	1
212.020501	8
213.085462	9
214.017612	3
214.088613	1
215.989089	2
217.069022	1
217.990974	1
219.680855	1
219.741769	1
221.087686	1
221.750001	1
221.876077	1
221.991637	3
221.999761	1
222.016010	1
222.026636	1
222.028511	2
222.032886	5
222.037887	8
222.041637	38
222.049139	692
222.052890	12
222.054765	15
222.060392	8
222.065393	5
222.069144	1
222.071020	1
222.081649	1
222.098533	1
222.106663	3
222.221777	1
223.041419	2
223.046453	5
223.052747	46
223.055894	1
223.057782	1
224.025160	10
224.053037	3
224.998845	2
225.028179	1
231.062757	4
231.651817	1
232.384957	1
233.059056	1
235.925285	1
238.014204	1
238.023223	1
238.931215	1
239.039405	6
240.928098	1
241.026336	1
241.073003	2
241.078660	3
241.082196	2
241.085025	6
241.091390	293
241.095634	6
241.097755	7
241.104121	4
241.109780	2
241.157178	1
242.036219	5
242.088872	3
242.094565	16
242.098835	1
242.100970	1
243.038860	1
243.067496	2
243.095421	1
244.012453	1
244.018215	2
244.024696	5
244.031178	163
244.035500	3
244.037660	3
244.044143	2
244.049905	1
245.027412	1
245.034659	8
246.037780	1
246.071323	1
248.737154	1
248.891388	1
248.935163	1
248.941099	1
248.946294	2
248.950004	1
248.952973	3
248.955941	3
248.960394	155
248.964847	3
248.966332	3
248.973011	2
248.978949	1
249.963102	5
250.963617	2
252.059343	1
253.986176	6
254.916359	2
256.953910	1
258.082094	2
260.004853	1
260.685801	1
261.994042	3
263.053220	1
264.484146	1
264.934113	2
266.075136	17
266.079236	1
267.079176	1
268.015117	18
268.051595	2
269.018497	2
270.030876	28
271.033805	2
271.508204	1
272.033855	1
273.028370	1
273.906690	1
274.011208	5
276.880326	1
277.462699	1
278.744601	1
280.007964	1
281.072384	2
282.494200	1
285.118271	4
286.122360	1
287.057320	2
287.538495	1
288.056900	1
289.072852	1
290.020457	1
290.028855	3
290.037254	136
290.042853	2
290.045653	2
290.054052	1
291.040257	8
292.040928	1
292.986120	3
293.053404	2
295.107623	1
295.993659	1
299.049699	1
301.989650	2
302.318102	1
306.001102	1
306.010204	1
306.918399	2
306.935670	1
307.026109	1
308.000100	1
309.060838	1
309.071103	2
309.079316	90
309.088556	1
309.131680	1
310.075479	1
310.082700	5
311.082685	1
311.923002	1
311.991707	1
311.998995	2
312.009407	3
312.013572	2
312.018779	167
312.025027	3
312.028151	3
312.037523	2
313.016642	1
313.021873	14
315.201159	1
316.035938	2
316.919867	1
316.928394	1
316.937988	2
316.947583	124
316.953979	2
316.957177	2
316.966773	1
316.974236	1
317.950992	4
317.974558	3
318.052774	1
320.013255	1
321.974454	1
322.149169	9
322.904260	2
323.971364	1
324.125656	1
325.052623	1
325.596949	1
326.902892	1
327.249339	1
327.993262	3
328.174023	7
331.008118	2
331.052496	1
331.071843	1
331.075258	1
331.084363	3
331.092330	6
331.098021	2
331.103713	12
331.107128	7
331.112819	605
331.123064	12
331.133310	6
331.142417	3
331.149248	1
331.152664	1
331.193655	1
331.218709	2
331.428360	1
332.095096	1
332.109961	9
332.116822	71
332.125970	1
332.157992	1
332.921021	1
333.079454	1
333.088642	23
333.116209	3
333.120804	1
334.062427	2
334.092422	2
334.910759	2
335.078727	1
336.003070	1
337.094886	1
338.017022	1
341.191704	1
344.131334	1
347.087128	2
347.215440	6
347.995398	1
348.218726	1
349.059971	5
350.041570	1
350.123247	1
350.131911	3
350.135625	2
350.145528	4
350.155431	243
350.162858	3
350.166572	5
350.177714	2
350.187619	1
351.152847	4
351.159063	29
352.130809	2
352.159524	1
352.283165	1
353.085284	1
353.095313	29
353.104088	1
354.099031	3
356.044449	2
358.013623	1
358.017463	1
358.023862	98
358.031541	1
358.035381	2
358.046901	1
359.026833	8
360.003050	1
360.028862	1
360.972888	2
362.042942	3
363.049791	2
363.979491	1
367.037100	2
369.178697	1
369.185398	1
369.197460	59
369.209522	1
369.977387	3
370.193948	1
370.200677	4
371.058047	2
371.172858	1
372.119036	1
372.136667	19
373.141001	2
373.997679	2
375.043865	1
375.050726	1
375.058960	2
375.064449	2
375.076800	69
375.085035	1
375.089152	1
376.072399	1
376.080666	6
377.053984	2
377.066433	103
377.074734	1
377.078884	2
378.069970	9
379.094251	2
380.006512	123
380.014909	1
380.019108	2
380.030305	1
381.009170	11
381.085056	1
382.010158	1
382.091988	1
383.022178	2
384.912751	1
384.925592	1
384.934153	48
384.946995	1
385.032626	6
385.289688	1
385.937767	3
385.962120	1
386.938122	1
389.070849	1
389.961177	3
390.135824	2
390.891065	1
391.050265	2
393.040409	4
394.890068	1
395.980530	3
397.969476	1
398.137523	3
399.081765	1
399.101346	63
400.103448	6
400.909064	2
401.077460	1
402.050463	2
403.990246	2
406.005918	2
408.022700	1
408.114587	1
408.919534	1
409.178996	1
410.111028	1
412.118993	2
414.463573	1
415.074812	1
415.202656	2
415.983789	2
417.046968	4
417.063060	1
418.128767	2
418.143305	85
418.152998	1
418.157845	1
419.146679	9
421.067961	2
421.082653	40
421.090816	1
421.094081	1
422.086800	3
422.249043	1
423.032071	1
424.031655	1
425.996628	1
426.011579	73
426.019885	1
426.026530	1
426.031514	1
427.015080	5
428.015439	1
428.962242	1
429.155339	1
430.031787	1
430.095817	1
431.967411	2
432.018302	1
433.038005	1
434.117711	2
435.024839	1
437.054723	1
437.185948	32
437.964151	1
438.187619	3
440.112337	1
440.124548	25
441.127589	3
441.976025	1
441.984803	2
443.064685	37
444.067191	4
444.141455	1
445.042947	1
445.053590	88
445.064234	2
446.057519	8
447.057704	1
447.331066	1
447.980634	1
447.993174	51
448.002132	1
448.786054	1
448.996286	3
450.080333	1
451.010834	1
451.063317	1
452.911472	1
452.922398	24
453.018933	2
453.927503	2
453.949430	1
457.058958	1
458.124183	2
459.038872	1
461.027939	6
463.966944	2
464.148258	3
465.957757	1
467.050448	1
467.088590	57
467.100033	1
467.105755	1
468.091493	6
468.898062	1
469.065000	2
470.037696	1
471.978626	2
473.043976	1
473.993985	2
474.034931	1
475.283393	1
476.102741	2
476.906501	1
477.166339	2
477.834625	1
480.106200	2
483.063285	2
483.191688	2
483.971227	1
484.077857	1
485.035078	4
486.114590	1
486.130789	102
486.142940	1
486.149015	1
486.181419	1
487.134732	11
488.137714	1
489.070224	30
490.073042	4
491.058388	1
491.074836	1
492.019903	1
493.999131	52
494.011578	1
494.015727	1
495.002590	5
496.002848	1
498.014582	1
498.758722	1
499.956200	1
502.104695	5
502.285424	2
503.013582	1
503.288649	1
505.008118	1
505.044570	2
505.173256	30
505.224744	3
506.176543	3
506.228184	1
507.178506	2
507.202244	1
508.112030	27
508.148818	1
508.163968	20
509.115407	3
509.167499	4
509.973772	3
511.052511	19
511.972679	1
512.055857	2
513.040206	56
513.051184	2
514.045011	5
515.046146	2
515.970484	1
515.981555	32
516.983914	3
517.008344	1
520.910369	22
521.006969	2
521.146299	1
521.326162	2
521.913614	2
524.019459	1
524.087456	1
524.266576	7
525.270439	1
525.937486	1
526.110716	3
527.026150	1
527.206779	39
528.209929	6
529.015890	4
529.195243	2
530.146417	7
531.151034	1
531.174163	1
531.954468	2
532.095894	1
532.135318	5
532.878232	1
533.140945	1
534.112110	2
535.076577	48
535.305817	2
536.078832	7
536.884075	3
537.053336	1
537.079202	1
538.091808	1
539.041070	1
539.964397	1
543.181310	1
543.308096	2
544.091322	1
544.895467	1
545.155094	4
546.248521	16
547.253318	2
548.093576	2
548.112971	1
548.367623	1
549.188565	5
550.194174	1
551.048549	3
551.178100	5
551.958811	1
552.127898	8
553.023637	2
553.131764	1
554.071834	1
554.096475	1
554.118654	93
554.133441	1
554.140834	1
555.110659	1
555.123014	10
556.122674	2
557.045543	1
557.057963	16
558.060365	3
559.047995	2
561.986389	38
562.989511	4
563.302590	1
564.932790	1
565.290657	2
566.007412	1
566.071020	1
568.232406	2
570.092318	6
570.272379	1
571.171386	4
573.032801	1
573.159811	19
573.211664	5
574.109836	7
574.164417	2
575.017936	1
576.100576	15
576.152829	23
577.105069	3
577.154839	4
577.959906	3
579.040339	9
581.027693	41
582.031842	3
583.967971	19
584.974409	1
585.049261	1
586.230085	1
588.896669	16
588.996581	1
589.318091	1
589.926709	1
592.073838	1
592.125556	1
592.253521	5
593.033094	1
593.131331	1
594.035713	1
594.098632	2
595.013454	1
595.172530	1
595.194477	38
596.197083	6
597.003749	3
597.185681	2
597.853479	1
598.118700	1
598.135282	7
599.139790	1
599.941333	2
600.082948	1
600.124610	4
603.062902	35
604.065828	5
604.871659	2
605.040329	1
607.030323	1
609.965460	1
611.168315	1
611.296791	1
612.074222	1
613.139878	2
614.237078	13
615.242071	1
616.081932	1
617.175456	5
618.181864	1
619.036484	3
619.167449	3
620.117463	4
621.008262	1
622.082687	1
622.106139	50
623.109943	8
624.110287	1
625.045133	8
626.047183	1
627.033846	3
629.975008	21
630.976964	3
633.153576	1
633.280015	2
635.175095	1
635.928844	1
636.219805	3
638.079381	3
638.262131	4
639.158742	3
639.262554	1
640.164335	1
641.018963	1
641.147765	11
641.199910	6
642.099647	3
642.151908	2
642.204176	1
643.007440	1
643.155331	1
644.086982	9
644.139486	17
645.091849	1
645.144476	2
645.950164	3
646.145615	1
647.009143	1
647.027799	5
647.089993	1
648.030210	1
649.016208	19
650.020113	3
650.098397	1
651.023212	1
651.956291	7
652.195382	1
652.960724	1
654.220323	1
656.884052	6
657.307301	1
657.890334	1
660.114874	2
660.243064	5
661.022620	1
661.247440	1
662.089926	2
663.182406	29
664.187031	5
664.973584	1
664.989783	2
665.171252	3
665.995272	1
666.121931	2
666.173904	1
667.928301	1
668.110973	6
669.117012	1
669.931998	1
670.085998	2
671.050521	25
671.076796	1
671.283762	1
672.053334	3
672.194895	1
672.857204	1
674.810271	1
677.957580	1
679.156457	2
679.283544	1
679.337065	2
681.123601	1
681.140394	1
682.226513	10
682.277015	4
683.230873	1
683.281486	1
684.068408	1
685.164929	4
685.215758	3
686.168995	1
687.025549	2
687.154851	3
688.101908	2
688.163296	1
688.251982	1
688.996252	1
690.094373	30
691.095568	4
692.098944	1
693.032116	6
695.021815	2
695.302303	1
697.963241	16
698.381481	1
698.967650	2
699.967231	1
701.267089	2
701.319720	3
703.130319	1
704.205923	2
704.258886	6
705.262766	1
706.066707	4
706.247517	4
706.975005	1
707.145506	3
707.198800	1
707.252100	1
708.191172	1
709.007260	1
709.135682	8
709.164225	1
709.189202	7
710.085658	2
710.139285	2
710.192918	1
712.073908	7
712.127761	17
713.080160	1
713.108941	1
713.134126	2
713.937152	2
714.074126	1
714.940134	1
715.015984	3
717.003228	13
718.009045	1
719.943091	3
720.951445	1
723.301501	4
724.873366	4
725.109403	1
725.286506	1
726.221062	1
726.239550	1
726.875957	1
727.138903	1
728.103025	1
728.229245	4
729.176936	1
730.074299	1
731.171252	19
732.177094	3
732.975014	1
733.027506	1
733.158758	3
734.108576	1
735.112956	1
736.100532	7
737.105224	1
738.074088	1
739.037273	19
740.044181	3
740.306695	1
741.041715	1
747.142796	1
747.324173	3
748.054210	1
748.216585	1
749.114470	1
749.470975	1
750.211925	8
750.262396	3
751.214534	1
751.268996	1
753.128161	1
753.151590	3
753.202358	3
754.210970	1
755.013832	2
755.143193	2
756.092856	1
756.143922	1
756.985286	1
758.080371	19
759.082995	3
760.087609	1
761.018853	3
762.023340	1
763.009907	2
764.297706	1
765.949089	9
766.778795	1
766.955331	1
769.255860	2
769.308265	2
770.208047	1
770.300940	1
771.149866	1
771.299584	1
772.125840	1
772.247460	6
773.144281	1
773.249892	3
774.054872	3
774.237997	5
775.134213	2
775.256544	1
777.123650	4
777.176861	8
778.074085	1
778.127394	1
778.180708	2
780.066626	2
780.116023	10
781.121447	3
781.146195	1
781.529940	1
782.066831	1
782.128816	1
783.001514	1
784.992249	6
785.050426	1
787.015612	1
787.929932	2
789.557932	1
790.191241	1
791.140530	1
791.287697	2
792.289522	1
792.858630	2
793.276365	1
795.234407	1
796.090943	1
796.218269	5
797.165687	1
797.216717	1
798.059421	2
799.159496	14
800.163483	2
800.963752	1
801.147941	2
802.095590	2
804.086395	5
804.125167	1
805.091052	1
805.224861	1
807.028051	12
808.029548	3
810.330056	1
812.172296	1
815.127697	1
815.312395	3
816.316139	2
817.105465	1
817.988748	1
818.200949	4
818.249590	3
819.010724	1
819.196744	2
819.258764	1
820.043490	1
821.140445	2
821.193794	3
822.195059	1
822.997390	1
823.131226	2
824.082401	1
824.972548	1
826.070440	9
827.071652	2
828.074685	1
829.011895	1
830.999706	2
833.003759	1
833.940252	6
834.942136	1
837.093157	1
837.244177	1
837.294526	1
838.293291	1
839.137676	1
839.284656	1
840.181150	1
840.236366	4
842.043078	1
842.223146	4
843.119728	1
843.226119	1
844.166007	1
845.112108	2
845.163169	7
846.055152	1
846.166749	1
847.139509	1
848.048621	2
848.104614	8
849.104091	1
849.908689	1
851.113042	1
852.070850	1
852.084948	1
852.983207	2
855.923027	1
859.277674	1
859.325264	1
860.330344	1
861.141407	1
861.270329	1
864.075550	1
864.205131	3
864.397157	1
867.145311	8
868.144815	2
868.995995	1
869.136366	1
872.072575	5
875.013908	6
876.017254	2
877.282456	1
877.621288	1
878.319213	1
880.358769	1
881.257634	1
883.302479	3
886.186211	3
886.241039	3
887.183877	1
887.238797	1
888.048217	1
889.124159	1
889.179260	3
890.990412	1
891.121069	1
892.061639	1
894.058358	3
896.994966	1
898.987910	1
900.354258	1
901.928389	3
902.337930	1
905.330898	1
905.974554	2
906.232208	1
907.124541	1
907.269089	1
908.173296	1
908.219834	2
909.223870	1
910.032447	1
910.214007	5
911.107033	1
911.221352	1
912.990840	1
913.095088	1
913.152433	4
916.089395	4
917.090770	1
918.472317	1
918.482835	1
920.959588	2
924.380187	1
926.161535	1
927.264824	2
927.318173	1
932.063222	1
932.197640	1
934.039396	1
935.129782	3
937.126561	1
940.060225	4
943.002215	3
948.348163	1
951.290371	2
952.288956	1
953.094516	1
954.168330	1
954.229586	3
957.120903	1
957.165660	2
958.980941	1
959.109999	1
962.046093	2
963.044726	1
965.193944	1
968.345885	1
969.913380	1
975.116086	1
975.265678	1
976.210053	2
978.201179	3
981.138341	3
982.143596	1
984.077087	3
985.081022	1
995.252879	1
997.487066	1
1000.051353	1
1000.176839	1
1003.123565	3
1005.974817	4
1006.976231	1
1011.987558	1
1012.090964	1
1013.247758	1
1016.338175	1
1017.171212	1
1019.092317	1
1019.270586	2
1020.193415	1
1022.172485	1
1022.215706	2
1025.161207	1
1027.658722	1
1028.107001	1
1030.027957	1
1037.109304	1
1040.170163	1
1040.512503	1
1041.140567	1
1041.204040	1
1044.193802	1
1046.185613	1
1049.126249	3
1052.008384	1
1052.066406	1
1053.253680	1
1060.354475	1
1063.237183	1
1071.107954	1
1087.262965	1
1090.147361	1
1090.201766	1
1092.013038	1
1093.138841	1
1105.971903	5
1106.966269	2
1107.968943	1
1112.133424	1
1112.189483	1
1136.316818	1
1139.093615	1
1151.823116	1
1153.079678	1
1155.257649	1
1156.170672	1
1158.133990	1
1158.193562	1
1159.110069	1
1161.073407	1
1161.133206	1
1163.776464	1
1165.984826	7
1166.993445	1
1174.166571	1
1184.057278	1
1205.956135	2
1214.355057	1
1218.041137	1
1223.229910	1
1244.071381	1
1248.118594	1
1258.336103	1
1265.986051	12
1266.973823	2
1266.999384	2
1274.264393	1
1274.401907	1
1305.953371	1
1333.965811	1
1339.329970	1
1347.918458	1
1365.974436	7
1366.986043	1
1372.137794	1
1388.540944	1
1405.787539	1
1414.461225	1
1422.465080	1
1433.967700	1
1436.844576	1
1460.427543	1
1465.968516	4
1466.965843	1
1474.424857	1
1477.091858	1
1486.803041	1
