Mass spectrum: Acetyl-CoA; LC-ESI-ITFT; MS; POS
Name: Acetyl-CoA
Name: Acetyl coenzyme A
Class: Natural Product
Formula: C23H38N7O17P3S
Exact mass: 809.12577
SMILES: CC(=O)SCCNC(=O)CCNC(=O)C(O)C(C)(C)COP(O)(=O)OP(O)(=O)OCC(O1)C(OP(O)(O)=O)C(O)C1n(c2)c(n3)c(c(N)nc3)n2
InChI: InChI=1S/C23H38N7O17P3S/c1-12(31)51-7-6-25-14(32)4-5-26-21(35)18(34)23(2,3)9-44-50(41,42)47-49(39,40)43-8-13-17(46-48(36,37)38)16(33)22(45-13)30-11-29-15-19(24)27-10-28-20(15)30/h10-11,13,16-18,22,33-34H,4-9H2,1-3H3,(H,25,32)(H,26,35)(H,39,40)(H,41,42)(H2,24,27,28)(H2,36,37,38)/t13-,16-,17-,18+,22-/m1/s1
Instrument: LTQ Orbitrap XL, Thermo Scientfic
Instrument type: LC-ESI-ITFT
Ms type: MS
Ion mode: POSITIVE
Collision energy: 35eV
Ionization: ESI
Column name: TOSOH TSKgel ODS-100V  5um Part no. 21456
Retention time: 13.640973 min
Base peak: 405.569763
m/z	relative intensity
100.110145	1
100.111848	80
100.112794	1
100.113362	1
100.511309	1
100.842929	1
101.095891	2
101.098195	1
101.115285	1
101.261596	1
102.031217	1
102.033553	52
102.054776	1
102.091007	24
102.535127	1
102.539441	1
102.941104	1
103.048508	1
103.074990	1
103.086257	1
103.170527	1
103.479210	1
103.769910	1
104.029964	1
105.201176	1
105.303768	1
105.653664	1
106.028606	1
106.493090	1
106.590718	1
106.834542	1
107.069996	5
107.312317	1
107.618909	1
108.888762	1
109.021948	1
109.022593	1
109.521632	1
109.540470	1
109.549565	1
109.871239	1
110.016041	1
110.019746	112
110.021708	1
110.519730	1
110.521485	2
110.576592	1
111.020036	18
111.020919	1
111.039040	1
111.521744	1
111.644193	1
111.837851	1
112.017456	5
112.111344	1
112.841583	1
113.016576	1
113.059253	1
113.799247	1
113.952115	1
113.963374	5
114.073066	1
114.127396	3
115.017120	1
115.051378	1
115.111540	2
116.042093	1
116.070432	1
116.106579	1
116.523129	1
116.523841	1
117.011943	1
117.101888	1
118.067876	1
119.013242	1
119.063532	1
120.342432	1
121.636220	1
121.959429	1
122.469572	1
122.963604	2
123.048639	1
123.050702	1
123.053022	1
123.053538	1
123.055343	176
123.057664	1
123.059726	2
123.079067	1
124.058233	4
124.060582	1
125.615493	1
126.077079	1
127.697971	1
128.106709	18
128.142869	1
128.337625	1
129.110021	1
129.127203	5
129.391737	1
130.008048	1
130.122362	1
130.158817	6
130.159939	1
130.491545	3
130.725836	1
131.070095	2
131.117725	1
131.323284	1
131.976371	1
132.003295	1
132.080101	1
133.079206	22
133.080655	1
133.085585	1
134.200620	1
134.423188	1
135.101641	1
135.200466	1
136.021355	3
136.061516	16
137.132305	14
138.135405	1
138.977949	1
139.981695	3
139.983572	1
140.143253	1
140.348735	1
140.961576	1
141.697201	1
141.945073	1
141.946671	1
141.958171	2
142.122204	2
142.158374	1
143.060023	1
143.102372	1
143.142476	1
144.008462	1
144.080628	1
145.132998	1
147.094541	1
147.338135	1
148.242534	1
149.023248	47
149.080305	4
149.742285	1
149.954329	1
149.966122	2
150.026498	1
150.643446	1
151.096379	9
151.554529	1
154.937963	1
154.989704	10
155.142891	30
155.144716	1
156.146006	1
156.174388	1
157.133208	1
158.002552	34
158.088870	1
158.096379	26
158.456320	1
158.961247	3
159.057823	1
159.112778	4
159.249342	1
161.109906	2
161.756514	1
162.998158	12
163.024497	1
163.096864	1
163.130310	1
163.132671	107
164.136124	3
165.011450	1
167.012526	2
167.033727	8
168.123257	1
168.982573	1
169.043167	1
169.976926	1
170.096285	40
171.062460	1
171.099654	2
171.110223	2
171.129250	1
171.138553	21
171.140244	1
171.141513	2
171.145319	5
171.146588	3
171.149125	634
171.152932	5
171.154201	1
171.156738	3
171.160545	1
171.188041	2
171.221891	1
172.132828	1
172.140933	1
172.146479	1
172.152452	52
172.155865	1
172.169092	3
173.078147	7
173.153437	1
174.119772	1
174.120640	1
174.123678	2
174.124980	1
174.127584	253
174.131490	2
175.035592	1
175.053090	1
175.089406	14
175.130548	25
175.467674	1
176.012455	1
176.143085	2
177.565981	1
178.034839	9
179.063653	61
179.090811	2
180.030668	1
180.066718	3
180.158947	1
180.989441	2
181.058907	1
181.885909	1
182.984796	25
184.474529	1
184.984814	1
185.114619	11
185.154111	1
185.868083	1
186.118182	1
186.184865	16
186.955501	1
187.121709	2
187.123159	1
187.126060	209
187.129445	1
187.130412	2
187.926882	1
188.125088	1
188.129475	13
188.143122	2
188.997103	1
189.121821	3
189.922153	1
189.996826	1
190.049272	2
190.159182	1
190.979574	1
190.992536	37
191.992576	2
192.976184	1
192.989857	1
194.117473	6
195.087107	3
195.122110	13
195.991447	1
196.153765	1
196.169333	1
198.184844	1
199.029134	10
199.180373	108
199.184621	1
199.189400	1
199.987228	2
200.183421	7
200.201077	1
201.068529	1
201.072299	1
204.137860	1
204.884181	1
207.094377	1
208.190213	1
209.137581	5
209.192434	1
212.143070	1
213.159308	1
214.158593	1
214.216026	1
215.157172	2
216.174158	1
216.205980	1
217.104082	10
218.686685	1
220.111991	32
220.787112	1
221.114659	3
222.111688	3
223.062608	4
223.132473	1
223.987985	1
224.127351	4
225.195906	2
226.158371	4
226.164153	1
226.216200	1
227.161290	1
227.982871	1
228.232103	8
229.235096	1
231.119592	6
232.168425	2
233.174638	28
234.177930	2
239.148196	1
240.179785	3
243.121473	1
244.238734	1
245.100404	1
246.018383	1
247.450998	1
250.955927	1
252.278238	1
254.196394	1
255.110572	1
255.155987	4
256.145801	1
256.262765	2
256.535734	1
256.647529	1
260.118837	1
261.126539	1
261.131321	1
261.779729	1
262.128084	1
263.977520	1
264.132320	2
264.634124	1
267.172151	1
267.687611	1
268.082647	1
270.592360	1
272.773766	1
274.158392	1
277.200773	15
278.204248	1
279.158552	18
280.161171	1
281.420499	1
282.221186	23
283.174649	14
283.224159	2
283.227760	1
284.178188	2
286.081571	1
290.069292	1
294.226753	5
295.405674	1
299.182617	14
300.185074	1
300.200792	12
301.203438	1
301.604716	1
303.136112	3
304.099415	1
305.155904	19
305.160938	1
305.195176	2
306.159211	2
309.309945	1
310.685214	1
310.712109	1
314.216378	1
317.543927	1
318.543482	1
320.006810	1
320.293539	2
321.129954	1
321.226716	4
322.220780	1
322.259021	3
323.054889	1
323.261178	1
327.176029	2
328.231553	6
329.434451	1
336.237656	1
336.315696	1
338.253223	2
338.501296	1
341.069671	1
343.208159	5
343.551894	1
344.210758	1
345.130543	1
349.219993	1
350.252784	1
366.283065	2
371.203456	2
371.275062	1
372.544440	7
373.035233	1
373.047481	1
376.931761	1
382.280699	1
383.092355	1
383.354503	1
384.563853	44
385.067179	4
385.098580	1
385.562913	1
385.929256	1
387.306264	1
387.523753	1
387.529517	1
388.172986	1
388.268345	1
391.149890	1
391.256580	1
391.260966	1
391.263889	1
391.271198	3
391.284356	440
391.291666	4
391.297514	2
391.418890	1
391.518374	1
392.270111	1
392.287721	103
392.300930	1
393.290531	5
393.424628	1
394.279446	1
396.542795	3
396.559203	1
396.983162	1
397.506582	1
397.544009	1
401.403158	1
401.723866	1
404.024099	5
405.428229	2
405.530016	1
405.536186	1
405.540813	3
405.545441	2
405.548526	2
405.554697	5
405.560868	4
405.570124	999
405.584009	6
405.588638	1
405.591723	1
405.596352	4
405.611781	1
405.712094	2
406.042617	1
406.047253	1
406.056526	1
406.061162	2
406.070436	273
406.085892	2
406.368901	1
406.565480	13
406.571674	46
406.577868	2
407.067636	6
407.573831	1
408.540701	1
409.041833	1
410.018640	1
410.026481	2
410.037459	1
411.008392	1
411.017836	2
411.523535	2
412.001733	1
413.265143	11
413.361959	1
414.268274	2
415.526133	4
416.027354	1
416.524666	1
416.551964	1
416.558388	1
417.055044	1
417.533250	2
417.538084	1
417.549365	308
417.559035	2
417.563870	2
417.902530	1
418.049410	83
418.545501	8
418.550353	7
419.047337	1
419.314811	3
422.287117	1
422.324819	3
423.329875	1
424.543330	21
424.551592	1
425.044408	4
425.539741	1
426.356690	1
426.529680	3
427.030945	1
427.094291	1
427.377851	4
427.528086	29
427.564822	138
427.573172	1
428.036131	11
428.046168	1
428.066241	24
428.380914	2
428.524975	2
428.533353	1
428.560164	2
428.566867	5
429.039835	1
429.048228	1
429.065015	1
430.011701	1
430.530930	1
431.025746	3
431.531575	2
432.024725	115
432.528915	100
432.965914	1
433.022075	1
433.030585	13
433.522898	1
433.529718	3
433.536538	1
434.024590	1
434.031422	2
434.527154	1
434.540841	1
434.556240	2
434.561373	2
434.571640	311
434.583618	2
434.602442	1
435.063156	1
435.073440	80
435.082011	2
435.164302	2
435.522886	1
435.534903	18
435.567525	6
435.574393	12
436.034934	13
436.041813	1
436.069332	1
436.076212	2
436.341219	24
436.532380	221
436.547885	1
437.001343	1
437.034130	72
437.343196	4
437.529831	15
437.536745	6
438.031570	2
438.038496	2
438.534173	1
439.541977	11
440.043695	2
440.544526	1
441.107452	1
443.096783	1
443.519905	1
443.578131	1
445.009158	1
445.103150	27
445.555795	1
446.018025	1
446.105219	3
446.534440	2
446.550481	88
447.051751	20
447.060679	1
447.539560	1
447.546713	1
447.553867	2
448.024585	1
448.055037	1
448.522958	1
448.671914	1
449.522201	9
450.023076	4
450.519370	1
453.543638	7
454.018358	8
454.025667	1
454.047596	1
454.523108	7
454.546903	1
455.531464	4
456.007470	1
456.031382	4
456.530281	58
457.031845	12
457.526841	3
457.534235	2
458.526668	12
458.534087	1
459.024096	1
459.031526	2
459.527916	1
460.030701	2
460.530579	1
461.027532	53
461.530909	29
461.542146	1
462.035110	3
462.534502	1
463.490479	2
463.496133	1
463.530061	1
463.571534	1
464.371917	2
464.536403	2
465.036068	2
465.375314	1
465.534642	31
466.035918	7
466.532295	2
467.033278	1
467.082848	1
467.494971	2
467.508336	2
467.525521	1
467.533158	1
467.995594	2
468.028105	1
468.035755	1
469.506138	1
471.514842	1
474.329632	1
477.136234	1
478.349236	3
478.357140	1
478.505387	1
478.548886	1
479.352704	1
482.542259	1
483.045194	1
484.005150	1
487.987739	1
489.001279	1
490.005687	1
490.384933	1
492.494162	1
492.994131	1
494.023318	1
495.934890	1
497.002603	1
499.213702	1
501.562628	1
508.001804	3
508.016943	1
508.501754	1
520.072964	1
521.714452	1
524.587092	2
525.082186	1
527.696398	1
527.717006	181
527.728455	2
528.051476	79
528.383971	27
528.714484	6
529.052202	2
529.383342	1
529.922107	1
532.707266	1
533.590862	8
533.718933	4
534.052134	3
534.091766	3
534.385646	1
534.422982	1
534.588705	1
534.847949	1
537.366076	1
539.080724	1
541.393200	1
542.350987	1
543.050677	3
543.060238	1
545.687212	3
546.022045	2
546.354773	1
548.027834	2
548.359973	5
548.408486	2
548.689986	3
548.743398	1
549.003288	1
549.030016	1
549.358202	2
550.027640	1
551.693136	1
554.006041	1
554.360887	1
555.009855	2
555.061723	1
555.343418	2
555.395333	1
555.729244	1
556.053549	1
556.393011	1
558.060132	1
558.393957	1
560.348086	1
560.683967	2
561.015129	4
561.035209	1
561.062820	1
561.349097	3
561.421957	1
561.678335	1
563.361707	1
563.692717	2
565.022216	1
566.045958	1
566.381883	1
567.018924	2
567.353163	3
567.743908	2
568.078788	1
568.562459	2
568.744314	2
569.729387	1
569.927222	1
570.014611	2
570.341211	1
571.013296	1
571.678823	1
572.720718	1
574.396804	2
574.732383	2
576.035862	1
576.365038	1
577.016383	1
577.962665	1
578.070285	1
578.574660	1
582.718548	1
587.081721	1
589.053456	1
589.061558	1
592.059668	1
593.367964	1
594.732649	1
595.371480	1
601.897674	1
604.814592	1
604.820211	1
607.040230	1
610.954784	1
613.205827	1
620.448421	1
632.309932	1
635.711267	1
637.692860	1
640.041427	3
642.224654	1
643.502338	1
652.031490	1
654.074141	1
662.219157	1
676.476256	1
681.243731	1
684.026385	1
685.583444	1
706.059791	1
715.324681	1
744.079379	1
768.120902	14
769.123129	3
769.707658	1
772.729580	1
790.144439	1
791.072404	116
791.097620	1
791.572755	50
792.073580	15
792.570667	6
793.076659	2
793.578912	1
797.422741	11
797.758861	9
798.090935	7
798.423216	4
798.759969	3
799.092669	1
800.079191	8
800.515380	1
800.579556	4
801.050412	1
801.084672	1
801.106086	1
801.581693	1
802.757530	1
803.423839	1
803.552898	1
805.255078	1
805.410482	2
805.751666	1
806.045517	1
809.736607	1
810.054414	2
810.093609	2
810.106674	2
810.132806	489
810.154584	3
810.167651	2
810.555449	1
810.633914	2
810.747272	1
811.056949	1
811.135487	111
811.401727	1
811.585116	2
811.729252	1
812.087572	4
812.122543	7
812.140029	14
812.393643	1
812.415512	2
812.756781	2
813.093885	2
813.128921	3
813.142060	3
813.755568	1
814.071357	4
814.576124	3
815.270396	1
815.397922	1
815.582668	1
815.732270	1
816.758593	4
817.093779	3
817.424756	1
817.760352	1
818.065216	3
818.401206	2
818.454276	1
820.088702	1
821.123261	3
821.536743	1
821.625705	2
822.035115	1
822.110800	10
822.614151	7
823.082280	1
823.117964	1
823.742799	1
825.070701	1
827.398896	1
828.042115	1
829.051184	1
830.062098	1
830.396467	1
831.387203	1
832.016947	1
832.089481	4
832.112150	3
832.588412	2
832.733640	1
833.087791	2
833.605805	1
833.783131	1
834.092450	12
834.734381	1
835.094368	2
835.431783	1
835.591442	1
836.093526	1
836.586922	4
837.094479	3
837.584182	2
838.069733	2
838.092647	1
838.124728	1
838.587813	1
839.074237	1
840.526845	1
841.024171	2
841.097887	3
841.521939	1
841.591108	3
842.103226	1
842.449517	1
843.114993	1
843.619246	1
843.739594	1
844.072998	1
844.105423	2
844.610565	1
844.740400	1
845.037277	2
846.035745	1
848.565350	1
849.088522	1
849.724452	1
850.028642	1
850.061410	1
850.126953	2
850.628139	2
851.012525	1
851.115698	6
851.613064	3
852.077979	1
852.115565	3
853.074836	1
854.045158	5
854.082873	3
854.120592	73
854.582843	2
855.040748	1
855.083252	1
855.125760	16
855.517926	1
856.127972	3
856.639211	1
857.131947	1
858.085461	1
858.579446	2
858.607959	1
859.083370	2
859.111908	1
860.083021	1
860.597807	1
861.093964	4
861.595326	2
862.097127	2
863.039784	5
863.087676	1
863.547641	1
863.590781	1
863.605162	1
864.022364	1
864.051148	3
865.025845	1
865.588366	3
866.059960	1
866.093660	3
867.095929	1
868.090278	1
868.109602	2
868.138591	255
868.167580	2
868.182076	1
868.554248	1
869.139573	53
869.599541	1
870.098656	3
870.142288	8
870.598200	1
871.093319	1
871.137026	3
872.060503	5
872.556869	1
873.063405	1
873.102388	1
873.604522	1
874.063158	1
876.107006	1
877.107086	1
878.079391	1
879.127161	1
883.089158	1
883.594971	1
884.448897	1
890.114979	2
892.094620	5
893.097000	2
895.091661	1
898.042828	2
907.495427	1
912.056636	4
913.056378	3
921.045188	2
922.054461	1
951.079111	1
986.703327	1
1045.757910	1
1064.367261	1
1067.133961	2
1067.805902	1
1094.453227	1
1096.768478	1
1108.100255	1
1110.403053	1
1130.442290	1
1163.334156	1
1188.753054	1
1195.634160	2
1196.141906	2
1196.642156	1
1197.142720	1
1221.987792	2
1224.638592	1
1225.132528	1
1237.192269	1
1237.693819	1
1243.703151	1
1244.697901	1
1245.652323	1
1250.758377	1
1256.896891	1
1260.084487	1
1272.622408	1
1281.579086	1
1291.103709	1
1293.657441	1
1314.479889	1
1321.992409	2
1322.991670	1
1369.263353	1
1369.876060	1
1391.131687	1
1414.823930	1
1421.977781	1
1430.482996	1
1470.153471	1
1486.158146	1
1488.357384	1
