Mass spectrum: Uridine; LC-ESI-ITFT; MS2; m/z:306.08; NEG
Name: Uridine
Class: Natural Product
Formula: C9H12N2O6
Exact mass: 244.06954
SMILES: OC[C@@H](O1)[C@@H](O)[C@@H](O)[C@@H]1N(C=2)C(=O)NC(=O)C2
InChI: InChI=1S/C9H12N2O6/c12-3-4-6(14)7(15)8(17-4)11-2-1-5(13)10-9(11)16/h1-2,4,6-8,12,14-15H,3H2,(H,10,13,16)/t4-,6-,7-,8-/m1/s1
Instrument: LTQ Orbitrap XL, Thermo Scientfic
Instrument type: LC-ESI-ITFT
Ms type: MS2
Ion mode: NEGATIVE
Collision energy: 35eV
Ionization: ESI
Column name: TOSOH TSKgel ODS-100V  5um Part no. 21456
Retention time: 5.505948 min
Base peak: 254.066650
Precursor m/z: 306.08
m/z	relative intensity
128.019745	88
135.035583	3
143.107147	83
146.170563	3
160.053802	101
169.943939	4
171.074951	5
177.011810	97
179.043976	80
184.789764	3
197.250549	12
210.141785	90
212.898132	25
228.131531	5
231.024109	23
236.215057	5
242.082733	9
254.066650	999
272.161926	784
278.193115	3
288.096313	609
