Mass spectrum: sn-Glycerol 3-phosphate; LC-ESI-ITFT; MS2; m/z:171.01; NEG
Name: sn-Glycerol 3-phosphate
Name: Glycerophosphoric acid
Name: sn-Gro-1-P
Name: Glycerol-3-phosphate
Class: Natural Product
Formula: C3H9O6P
Exact mass: 172.01367
SMILES: OC[C@@H](O)COP(O)(O)=O
InChI: InChI=1S/C3H9O6P/c4-1-3(5)2-9-10(6,7)8/h3-5H,1-2H2,(H2,6,7,8)/t3-/m1/s1
Instrument: LTQ Orbitrap XL, Thermo Scientfic
Instrument type: LC-ESI-ITFT
Ms type: MS2
Ion mode: NEGATIVE
Collision energy: 35eV
Ionization: ESI
Column name: TOSOH TSKgel ODS-100V  5um Part no. 21456
Retention time: 7.073428 min
Base peak: 78.786118
Precursor m/z: 171.01
m/z	relative intensity
78.786118	999
