Mass spectrum: D-2-Aminobutyric acid; LC-ESI-ITFT; MS; POS
Name: D-2-Aminobutyrate
Name: D-2-Aminobutyric acid
Name: D-2-Aminobutanoic acid
Name: (R)-2-Aminobutanoic acid
Class: Natural Product
Formula: C4H9NO2
Exact mass: 103.06333
SMILES: CCC(N)C(O)=O
InChI: InChI=1S/C4H9NO2/c1-2-3(5)4(6)7/h3H,2,5H2,1H3,(H,6,7)/t3-/m1/s1
Instrument: LTQ Orbitrap XL, Thermo Scientfic
Instrument type: LC-ESI-ITFT
Ms type: MS
Ion mode: POSITIVE
Collision energy: 35eV
Ionization: ESI
Column name: TOSOH TSKgel ODS-100V  5um Part no. 21456
Retention time: 4.559692 min
Base peak: 104.070389
m/z	relative intensity
103.763122	1
103.959653	1
103.966861	1
104.014934	2
104.017338	1
104.035976	1
104.041789	1
104.051812	4
104.054218	1
104.054820	1
104.057426	1
104.058228	1
104.058629	1
104.059431	1
104.060233	1
104.061436	1
104.062238	1
104.062639	1
104.063441	2
104.064043	1
104.065246	4
104.066850	5
104.068655	13
104.070460	999
104.071663	10
104.072064	15
104.073067	4
104.073869	5
104.074671	2
104.075473	3
104.076275	1
104.077077	2
104.077880	1
104.078481	1
104.079284	1
104.080286	1
104.081089	1
104.081891	1
104.082292	1
104.083094	1
104.083696	1
104.086303	1
104.088911	4
104.090315	1
104.104960	1
104.123421	1
104.125829	2
104.174213	1
104.181243	1
104.379164	1
105.066993	1
105.073503	35
105.075334	1
106.047580	1
106.049231	67
106.051087	1
106.074195	1
107.052629	1
171.148702	3
174.126716	1
207.128719	1
207.133787	94
207.137166	1
207.138292	1
208.136888	5
266.195722	1
274.211560	3
366.093792	1
368.074498	1
370.052496	1
391.282894	5
392.286254	1
411.164251	1
470.127423	1
494.347027	24
495.349218	4
