Mass spectrum: Uridine; LC-ESI-ITFT; MS2; m/z:245.08; POS
Name: Uridine
Class: Natural Product
Formula: C9H12N2O6
Exact mass: 244.06954
SMILES: OC[C@@H](O1)[C@@H](O)[C@@H](O)[C@@H]1N(C=2)C(=O)NC(=O)C2
InChI: InChI=1S/C9H12N2O6/c12-3-4-6(14)7(15)8(17-4)11-2-1-5(13)10-9(11)16/h1-2,4,6-8,12,14-15H,3H2,(H,10,13,16)/t4-,6-,7-,8-/m1/s1
Instrument: LTQ Orbitrap XL, Thermo Scientfic
Instrument type: LC-ESI-ITFT
Ms type: MS2
Ion mode: POSITIVE
Collision energy: 35eV
Ionization: ESI
Column name: TOSOH TSKgel ODS-100V  5um Part no. 21456
Retention time: 9.205070 min
Base peak: 112.978073
Precursor m/z: 245.08
m/z	relative intensity
94.961395	1
96.052345	1
97.038956	6
112.978073	999
115.063248	3
133.037964	8
171.171829	1
215.103409	1
227.114807	9
