Mass spectrum: S-Adenosyl-L-methionine; LC-ESI-ITFT; MS2; m/z:399.14; POS
Name: S-Adenosyl-L-methionine
Name: S-Adenosylmethionine
Name: Acylcarnitine
Class: Natural Product
Formula: C15H22N6O5S
Exact mass: 398.13724
SMILES: [O-1]C(=O)C(N)CC[S+1](C)CC(O1)C(O)C(O)C1n(c3)c(n2)c(n3)c(N)nc2
InChI: InChI=1S/C15H22N6O5S/c1-27(3-2-7(16)15(24)25)4-8-10(22)11(23)14(26-8)21-6-20-9-12(17)18-5-19-13(9)21/h5-8,10-11,14,22-23H,2-4,16H2,1H3,(H2-,17,18,19,24,25)/t7-,8+,10+,11+,14+,27?/m0/s1
Instrument: LTQ Orbitrap XL, Thermo Scientfic
Instrument type: LC-ESI-ITFT
Ms type: MS2
Ion mode: POSITIVE
Collision energy: 35eV
Ionization: ESI
Column name: TOSOH TSKgel ODS-100V  5um Part no. 21456
Retention time: 4.145622 min
Base peak: 250.091125
Precursor m/z: 399.14
m/z	relative intensity
136.070129	38
145.092285	1
163.143524	6
250.091125	999
250.691711	5
264.164948	37
298.144165	453
