Mass spectrum: Cytidine; LC-ESI-ITFT; MS; NEG
Name: Cytidine
Class: Natural Product
Formula: C9H13N3O5
Exact mass: 243.08552
SMILES: OC[C@@H](O1)[C@@H](O)[C@@H](O)[C@@H]1N(C=2)C(=O)N=C(N)C2
InChI: InChI=1S/C9H13N3O5/c10-5-1-2-12(9(16)11-5)8-7(15)6(14)4(3-13)17-8/h1-2,4,6-8,13-15H,3H2,(H2,10,11,16)/t4-,6-,7-,8-/m1/s1
Instrument: LTQ Orbitrap XL, Thermo Scientfic
Instrument type: LC-ESI-ITFT
Ms type: MS
Ion mode: NEGATIVE
Collision energy: 35eV
Ionization: ESI
Column name: TOSOH TSKgel ODS-100V  5um Part no. 21456
Retention time: 5.446722 min
Base peak: 242.077789
m/z	relative intensity
107.036534	1
108.033041	1
109.037506	1
109.039012	2
109.039873	2
109.040948	76
109.042239	1
109.042884	2
109.044821	1
110.034235	1
110.036198	22
110.037943	1
110.044267	2
111.039388	1
112.983832	1
112.985875	21
112.987917	1
134.044679	1
134.047318	24
134.049957	1
135.050437	1
139.007197	1
146.938473	1
152.043474	1
152.046662	18
153.049776	1
158.925538	2
162.893321	1
173.118237	1
174.956110	3
190.928006	2
199.072306	1
211.001231	1
241.769076	1
241.881332	2
241.997223	1
242.007181	1
242.012160	3
242.017139	1
242.028521	1
242.031366	1
242.035635	1
242.038481	1
242.041326	1
242.044883	2
242.047018	1
242.049864	1
242.054133	3
242.059825	4
242.061959	2
242.064805	8
242.071209	22
242.074056	11
242.077614	999
242.084018	24
242.090423	10
242.094693	3
242.096828	4
242.101098	3
242.110350	2
242.112486	1
242.116044	1
242.118891	1
242.121027	1
242.123162	1
242.125298	1
242.143806	2
242.149501	1
242.159468	1
242.274846	2
242.386742	1
243.074785	8
243.081229	85
243.087673	2
243.093402	1
244.077409	1
244.081732	7
245.084800	1
248.059033	1
266.103169	1
272.956942	3
278.047067	1
278.050571	1
278.054951	50
278.062835	1
279.058034	3
280.051501	12
281.054735	1
287.035420	1
287.828116	1
287.998868	2
288.023801	1
288.029342	1
288.040425	1
288.043196	1
288.053356	2
288.059822	3
288.063517	1
288.068135	6
288.075525	16
288.083839	767
288.092154	17
288.095849	2
288.099544	7
288.105088	2
288.108783	2
288.114327	2
288.119871	1
288.125415	1
288.136503	1
288.140199	1
288.142972	1
288.145744	1
288.168848	2
288.338978	1
289.072074	1
289.077645	1
289.081359	4
289.086931	81
289.095289	2
289.102719	1
290.086870	7
290.090604	1
290.967251	1
298.012972	1
305.072962	9
306.077118	1
318.093665	1
322.044492	1
328.045066	2
330.051221	1
330.094274	1
332.110138	16
333.112941	2
340.045765	5
340.055243	2
342.003002	6
343.006566	1
346.041471	1
346.054849	8
347.059211	1
348.104761	1
350.010818	2
356.071282	18
357.073701	1
358.047077	1
372.044627	1
381.969433	1
382.092169	1
383.005365	1
383.091765	1
383.101681	2
383.114432	102
383.122933	1
383.127183	2
383.138518	1
384.116623	13
384.968583	1
385.109900	3
385.968034	1
386.012449	1
387.000148	1
387.968542	1
388.007527	1
398.077689	1
402.011062	3
403.555105	1
405.095737	1
408.011998	6
426.021747	6
451.101533	1
452.089683	1
483.039476	1
485.164530	8
486.167505	1
493.147921	1
498.042138	1
507.554453	1
509.122172	8
510.126367	1
519.312781	1
521.139813	12
521.614395	2
522.143722	2
523.136970	4
527.131579	1
529.946101	3
531.109674	1
531.132799	1
531.148988	3
531.169803	194
531.183681	2
531.190620	3
531.209124	1
532.172693	39
533.173774	5
534.079729	1
535.308425	1
536.079100	1
538.075571	12
539.076808	2
540.033420	1
540.054760	46
540.076101	1
541.056774	6
542.059195	1
547.091574	1
547.958116	2
548.159312	2
553.151702	1
555.128233	2
557.080597	2
558.063134	33
558.080570	1
558.900960	1
559.068252	4
560.068576	1
563.302871	4
564.306988	1
573.090105	1
573.632218	2
574.136111	1
575.085960	7
575.195409	2
575.951981	1
576.090412	1
582.021519	1
583.131988	1
585.089656	1
599.156710	4
620.021501	1
626.198449	11
627.203275	2
643.155644	1
662.103123	40
663.105295	8
664.106511	1
684.082259	1
695.174493	1
728.248157	2
742.068353	1
752.207818	2
764.226216	2
764.701423	1
765.233062	1
766.221863	1
770.172067	1
771.170459	1
772.166741	10
773.030935	1
773.169016	3
774.156966	1
774.177314	1
774.254644	38
774.291278	1
775.256910	8
776.261124	2
781.158938	1
782.170511	1
791.241812	1
817.220592	1
842.242008	2
869.286856	3
870.290065	1
905.187226	7
906.191389	2
907.197224	1
938.765969	1
1005.975263	1
1015.249871	2
1016.252929	1
1085.328846	1
1105.972380	2
1112.372182	1
1148.279382	4
1149.279831	2
1150.274217	1
1165.992843	2
1205.956640	1
1237.424977	1
1260.422230	2
1261.437352	1
1265.986573	4
1266.974344	1
1328.414784	1
1333.966349	1
1365.974981	3
1366.977040	1
1433.978520	1
1465.969084	1
