Mass spectrum: Taurine; LC-ESI-ITFT; MS; POS
Name: Taurine
Name: 2-Aminoethanesulfonic acid
Name: Aminoethylsulfonic acid
Class: Natural Product
Formula: C2H7NO3S
Exact mass: 125.01466
SMILES: NCCS(O)(=O)=O
InChI: InChI=1S/C2H7NO3S/c3-1-2-7(4,5)6/h1-3H2,(H,4,5,6)
Instrument: LTQ Orbitrap XL, Thermo Scientfic
Instrument type: LC-ESI-ITFT
Ms type: MS
Ion mode: POSITIVE
Collision energy: 35eV
Ionization: ESI
Column name: TOSOH TSKgel ODS-100V  5um Part no. 21456
Retention time: 4.754543 min
Base peak: 126.022102
m/z	relative intensity
100.112037	16
101.096275	1
102.033943	5
102.054971	3
103.001301	2
107.070205	1
108.011366	4
110.020182	4
110.980937	1
110.987563	2
111.020256	1
112.006708	1
112.050606	1
113.963604	2
115.525791	2
119.992846	1
120.065872	1
122.964377	1
123.055601	2
123.515063	16
124.016745	1
125.612833	1
125.881841	1
125.905321	1
125.948294	2
125.951231	1
125.975531	1
125.997433	6
126.000105	1
126.003845	1
126.005448	1
126.007853	1
126.008921	1
126.009456	1
126.011593	1
126.012662	1
126.013731	1
126.014532	1
126.015334	3
126.016670	1
126.018006	4
126.019876	17
126.020678	20
126.022014	999
126.024419	17
126.025755	3
126.026557	3
126.027358	2
126.027893	1
126.028695	2
126.030565	1
126.031100	1
126.031634	1
126.032169	1
126.032971	1
126.033772	1
126.034307	1
126.035910	1
126.038583	1
126.040187	1
126.044998	1
126.046602	6
126.068790	1
126.093124	1
126.096066	2
126.162421	1
126.433466	1
127.018732	1
127.021166	4
127.025222	18
128.015557	1
128.017746	37
128.019935	1
128.025680	3
128.106709	2
129.127203	3
130.007768	1
130.050058	20
130.158817	1
130.491827	1
130.503090	4
131.002381	1
131.498561	1
131.499416	2
131.500840	79
131.502264	2
131.503403	1
132.002435	4
132.498552	2
132.500856	4
132.519872	1
133.079206	3
133.498629	1
134.986925	1
135.504745	2
136.061816	1
137.132609	10
139.522971	2
139.982321	1
140.506210	4
141.958810	12
143.048712	18
144.028049	2
144.995710	4
147.966432	1
148.001455	1
148.004516	32
148.007237	1
148.029007	2
148.051802	1
148.055204	2
148.057586	7
148.060649	425
148.063371	7
148.065413	1
148.066094	1
148.067115	1
148.067795	1
148.068816	1
148.069837	1
148.091621	2
148.119878	1
148.154615	1
149.023248	23
149.063803	20
149.999429	1
150.026498	1
150.064339	1
151.096379	3
151.972293	1
152.014058	4
152.981573	3
153.014102	1
154.000941	1
154.990068	1
155.143256	7
156.985238	1
157.520106	1
158.001052	1
158.002927	30
158.096379	6
158.513980	1
158.961247	3
159.112778	1
159.969195	1
161.003737	2
163.133065	26
163.977759	1
165.508635	6
167.034135	4
167.048408	1
167.976768	1
168.123257	1
170.096704	8
171.080210	10
171.138553	4
171.145742	2
171.149548	122
171.151663	2
171.152932	2
171.188464	1
172.152879	7
172.497271	1
172.991301	1
173.078577	1
173.495226	30
173.996154	1
174.124112	1
174.128018	50
174.130188	1
174.131490	1
174.492724	1
174.494901	1
175.089843	2
175.130986	3
175.480406	2
177.498961	1
178.035287	1
179.063653	10
180.159404	1
181.517193	1
182.985263	16
185.114144	1
186.184865	2
186.955984	4
187.126544	33
188.129475	1
189.121821	1
190.993035	1
194.117473	1
195.122625	2
195.985746	2
199.028604	1
199.180373	18
200.183956	1
200.508550	9
207.502535	2
208.190213	2
209.513414	1
213.995303	1
214.984999	1
215.488995	6
216.207181	1
217.104686	1
219.493390	1
220.111991	4
220.967545	6
220.970647	1
223.063867	20
224.127985	1
225.060006	1
226.159014	1
233.174638	6
237.012477	12
237.969926	1
240.179785	1
246.985514	1
250.201459	1
250.967942	1
251.018264	1
251.025025	1
251.031035	4
251.037045	356
251.040802	6
251.043056	4
251.047564	1
251.049818	1
251.055828	1
251.057331	1
251.106178	1
252.036217	2
252.039996	8
253.032242	23
253.040605	1
261.993464	1
263.015313	3
265.965354	1
270.009819	1
273.018151	2
273.068431	1
273.076102	57
273.082921	1
274.077811	1
274.993717	2
275.069531	1
277.200773	2
277.492164	1
277.995764	3
277.999266	1
279.158552	3
279.162076	1
281.999226	1
282.221186	3
283.224159	1
294.226753	1
299.181639	1
303.947220	1
304.955633	2
312.962934	1
320.999557	2
321.003903	1
321.226716	1
322.257928	1
325.522378	2
340.501675	1
345.981074	1
376.040405	1
376.051424	72
376.058311	1
376.063821	1
377.053429	2
378.045560	4
378.052502	1
388.028571	1
391.271198	1
391.284356	85
391.296052	1
392.287721	13
392.293592	1
393.077002	1
393.290531	1
395.022840	1
398.032539	2
398.088043	5
398.095544	1
402.506726	1
403.009019	4
403.015131	1
413.263556	1
426.356690	3
427.361164	1
427.376183	1
429.969597	3
436.341219	5
436.348105	1
437.343196	1
437.976163	1
464.371917	1
475.379199	1
490.386985	1
491.951669	1
496.509063	1
501.066518	31
502.067974	1
503.059648	2
523.044993	1
523.103744	6
524.108562	1
537.957140	2
538.336782	4
539.338511	1
616.968906	1
626.079550	8
627.080884	1
628.072730	1
648.115012	1
741.982912	1
751.094560	3
753.089240	1
773.078627	1
773.131411	1
1321.992409	1
