Mass spectrum: L-Serine; LC-ESI-ITFT; MS2; m/z:104.04; NEG
Name: L-Serine
Name: L-2-Amino-3-hydroxypropionic acid
Name: L-3-Hydroxy-alanine
Name: Serine
Class: Natural Product
Formula: C3H7NO3
Exact mass: 105.04259
SMILES: OC[C@H](N)C(O)=O
InChI: InChI=1S/C3H7NO3/c4-2(1-5)3(6)7/h2,5H,1,4H2,(H,6,7)/t2-/m0/s1
Instrument: LTQ Orbitrap XL, Thermo Scientfic
Instrument type: LC-ESI-ITFT
Ms type: MS2
Ion mode: NEGATIVE
Collision energy: 35eV
Ionization: ESI
Column name: TOSOH TSKgel ODS-100V  5um Part no. 21456
Retention time: 4.634395 min
Base peak: 74.013847
Precursor m/z: 104.04
m/z	relative intensity
58.029408	56
59.787777	37
74.013847	999
