Mass spectrum: L-(-)-Phenylalanine; LC-ESI-ITFT; MS; POS
Name: L-Phenylalanine
Name: (S)-alpha-Amino-beta-phenylpropionic acid
Name: L-(-)-Phenylalanine
Class: Natural Product
Formula: C9H11NO2
Exact mass: 165.07898
SMILES: OC(=O)C([H])(N)Cc(c1)cccc1
InChI: InChI=1S/C9H11NO2/c10-8(9(11)12)6-7-4-2-1-3-5-7/h1-5,8H,6,10H2,(H,11,12)/t8-/m0/s1
Instrument: LTQ Orbitrap XL, Thermo Scientfic
Instrument type: LC-ESI-ITFT
Ms type: MS
Ion mode: POSITIVE
Collision energy: 35eV
Ionization: ESI
Column name: TOSOH TSKgel ODS-100V  5um Part no. 21456
Retention time: 11.703148 min
Base peak: 166.086243
m/z	relative intensity
100.112037	2
102.033748	3
103.054040	3
107.049072	1
110.019964	5
111.020036	1
120.076558	1
120.078795	1
120.080783	125
120.082274	1
120.083020	1
120.084511	1
121.083942	9
131.048840	2
137.132609	1
138.091257	1
149.023248	2
149.059678	4
154.990433	1
155.142891	1
158.002927	2
158.096379	1
158.961625	2
163.133459	2
165.467218	1
165.881689	1
165.974544	1
166.017768	1
166.048884	3
166.050500	1
166.052925	1
166.054138	1
166.058180	1
166.061817	1
166.065455	1
166.067476	1
166.069093	1
166.070306	1
166.072731	1
166.074348	1
166.076774	4
166.078391	2
166.079604	5
166.082838	10
166.084051	3
166.086072	999
166.088902	7
166.090115	8
166.092541	6
166.094967	3
166.096180	2
166.097393	2
166.099010	1
166.100628	1
166.101436	1
166.103054	1
166.104671	1
166.106289	1
166.107906	1
166.110332	1
166.111546	1
166.114376	1
166.118016	1
166.119229	1
166.123678	3
166.154419	1
166.197713	1
166.291238	1
166.708811	1
167.083077	1
167.085933	1
167.089196	101
167.092868	1
167.095724	1
168.089498	2
168.091556	1
171.148702	22
172.152025	1
174.127584	10
175.130548	1
179.063200	2
182.984796	3
186.955984	1
187.126060	5
190.085898	1
190.992536	2
195.122110	1
199.179842	3
217.104082	2
233.173966	1
279.157671	1
282.220291	1
299.181639	1
328.211336	1
360.200177	1
391.284356	28
392.286254	4
413.263556	2
436.341219	2
437.343196	1
556.363265	10
557.366039	3
