Mass spectrum: Glycerone phosphate; LC-ESI-ITFT; MS; NEG
Name: Glycerone phosphate
Name: Dihydroxyacetone phosphate
Class: Natural Product
Formula: C3H7O6P
Exact mass: 169.99802
SMILES: OCC(=O)COP(O)(O)=O
InChI: InChI=1S/C3H7O6P/c4-1-3(5)2-9-10(6,7)8/h4H,1-2H2,(H2,6,7,8)
Instrument: LTQ Orbitrap XL, Thermo Scientfic
Instrument type: LC-ESI-ITFT
Ms type: MS
Ion mode: NEGATIVE
Collision energy: 35eV
Ionization: ESI
Column name: TOSOH TSKgel ODS-100V  5um Part no. 21456
Retention time: 6.852058 min
Base peak: 338.987701
m/z	relative intensity
103.091864	3
106.918633	3
108.062111	3
110.482423	3
112.937107	4
113.209705	3
115.199307	3
115.486941	3
115.888709	3
116.599777	3
117.994213	3
118.509260	3
119.562861	3
121.151662	3
123.133469	3
123.626195	3
125.198174	3
127.590087	3
128.313347	3
129.833203	3
134.046731	4
134.576081	3
135.874646	3
137.986396	3
138.120012	3
138.721839	3
138.979643	20
139.006578	7
139.603619	3
141.735316	3
141.762418	3
142.876130	3
143.034687	15
145.707880	3
146.453747	3
146.526437	3
146.967081	3
148.272689	3
150.979747	15
152.461231	3
152.698024	3
153.352504	3
154.927777	7
154.938343	3
154.974421	3
156.528557	3
156.728174	3
158.924781	43
160.841743	6
161.181423	3
162.838345	10
163.016726	2
164.780801	3
166.394690	3
166.706565	3
166.974470	60
166.977323	3
167.011163	54
167.013610	3
167.996608	5
168.004424	3
168.800040	3
168.952207	3
168.980424	4
168.983744	10
168.987064	29
168.990385	783
168.993290	27
168.997026	8
169.000761	4
169.028575	4
169.993425	18
170.892672	4
170.994437	5
172.667688	3
176.906507	3
176.935406	101
176.938518	5
182.829417	3
184.085701	3
184.354968	6
186.865012	52
187.077057	3
187.953194	3
187.983381	3
188.861978	5
188.864430	6
190.999800	4
194.872884	8
194.936116	17
194.941772	10
194.945886	246
194.948972	8
194.986004	5
195.810115	4
197.016660	4
197.021363	114
197.807431	5
198.916913	29
199.000156	5
199.036757	6
200.859312	3
208.749471	3
211.000652	9
214.048470	3
214.348756	3
216.915125	4
216.918143	10
216.927800	92
216.930819	3
218.903002	4
219.146741	3
220.571335	3
223.000624	46
224.101307	3
224.237007	3
226.948025	4
227.474735	3
228.875424	4
229.010901	10
229.047572	28
230.853987	8
230.945464	4
232.223861	2
233.209822	3
237.080515	3
237.455454	3
238.862275	9
239.333062	3
241.004548	6
241.010910	199
241.015859	4
241.017272	4
241.428522	3
242.014294	6
243.862862	7
244.232376	3
246.792836	3
246.932801	3
247.779517	3
247.856908	10
248.864818	5
248.956076	3
250.858628	4
254.882670	4
256.872363	12
257.436430	3
258.552088	2
258.885445	10
259.015345	8
259.021646	230
259.027159	7
260.024804	9
262.274835	3
264.951373	14
265.822910	8
266.296002	3
266.813170	3
266.831285	7
266.957324	43
266.960620	15
266.966389	402
266.972158	11
267.007599	5
267.969681	10
268.952805	4
268.971139	4
269.867627	3
272.755128	3
272.864948	5
272.956090	15
272.960350	3
275.016751	5
276.407567	3
276.433616	3
278.854696	4
279.068603	3
280.859882	4
280.872332	6
281.907703	4
284.977492	22
286.411678	3
288.812252	5
288.948614	111
290.875378	7
290.925059	11
290.966314	5
292.873552	4
292.914275	5
292.922799	76
294.926834	3
294.997658	20
295.531576	3
298.829159	5
298.869178	4
300.818301	4
302.875166	6
303.834458	3
308.887582	5
309.004541	4
310.819708	8
310.882871	32
312.858869	11
313.031448	14
314.904438	37
316.098735	3
316.880594	5
316.953076	3
316.979730	6
318.828081	9
319.878269	6
320.002607	3
320.885865	9
320.977108	6
325.182377	5
326.901948	4
326.933218	4
326.987950	5
327.023700	4
328.043944	7
328.831132	6
330.869528	9
332.803020	3
334.878518	4
336.839133	8
336.972323	24
338.661538	3
338.878297	4
338.967889	6
338.971426	7
338.978500	28
338.987934	999
338.996188	23
339.006801	10
339.077569	4
339.096444	3
339.991275	67
340.991939	20
343.053378	3
346.054849	4
346.841880	19
346.973720	4
352.708464	4
353.544688	4
354.849440	4
355.680621	3
356.862180	11
356.998501	101
357.087724	4
358.002281	4
358.953759	6
360.969175	115
361.972845	7
362.946739	7
363.657139	3
364.932695	4
364.943233	121
364.955087	3
365.946340	5
367.018673	7
368.823980	4
372.928824	4
375.008363	4
376.942139	4
378.410649	3
378.663891	3
378.980105	12
379.129294	3
382.904838	11
382.954389	8
386.013882	4
386.540282	3
386.925364	39
388.082625	3
388.086958	3
388.900001	6
390.898553	15
391.758539	3
391.899214	7
392.906666	7
394.426622	3
399.009670	5
399.769695	4
402.009540	7
402.889666	9
404.146969	3
406.809480	3
408.010441	49
408.529441	3
408.860372	10
408.907234	11
409.013485	8
411.008661	46
412.011728	4
412.880538	16
413.323119	3
414.856214	10
418.861683	19
421.304961	3
426.021747	30
426.098177	4
426.965272	6
427.003611	4
427.023617	7
428.844970	4
429.019519	75
430.021880	4
432.990540	4
434.815979	4
434.862234	9
436.839223	5
436.951368	4
436.963448	120
437.967816	6
442.911635	8
444.005522	3
444.817964	14
447.029335	14
451.001991	6
451.837351	3
453.597172	3
454.974668	21
455.635451	3
456.483723	3
456.845095	3
458.946194	37
459.949064	4
460.923442	7
462.921023	24
466.800962	6
474.919730	4
475.177947	3
476.955948	6
478.075728	3
480.880534	7
480.928353	6
481.778331	3
483.027442	4
484.902167	24
484.962694	7
486.877123	6
488.876421	5
489.876595	4
490.883949	20
498.704269	3
498.937906	3
500.867985	4
501.041690	6
505.987513	6
506.837975	10
506.883250	7
508.985466	93
509.004992	4
509.989256	6
510.858557	5
512.270716	3
516.839845	18
519.051285	5
522.042299	4
525.475461	4
526.626616	3
526.996698	10
530.966329	8
532.792520	5
532.838992	6
533.890895	4
534.941241	29
537.813915	3
538.821511	8
540.052389	17
541.056774	7
541.068663	3
548.977356	4
549.485609	3
552.903536	5
554.777503	3
556.013946	3
556.924128	14
558.063134	31
558.898464	8
560.895865	4
562.903993	10
564.195568	3
564.775819	5
569.922908	3
572.885392	7
576.072126	6
578.859028	8
578.903761	5
581.006814	15
582.876671	10
586.759019	5
588.859163	14
591.318179	3
593.355478	3
599.015423	7
600.016595	3
602.009741	5
604.860714	5
606.962812	12
614.441635	3
619.461849	3
619.969002	5
619.992334	8
620.018584	370
620.039003	5
620.044837	6
621.023186	52
622.021438	10
624.965733	4
628.942964	5
630.815602	3
632.916164	13
633.726171	3
638.027928	4
642.001603	7
643.229609	3
649.235246	3
650.073661	3
650.926252	3
654.900885	7
658.777841	4
658.873688	5
660.881685	5
670.866967	3
676.878636	3
677.737847	3
678.982935	7
703.437218	3
704.937669	6
706.620332	3
710.075274	4
713.159655	4
715.124706	3
719.046466	3
724.803661	4
724.822094	3
728.392984	3
730.895264	5
741.999613	5
742.033982	9
742.064534	426
742.091268	6
742.675971	3
743.069983	78
744.073643	23
744.415043	3
745.075495	4
746.302731	4
748.673422	3
764.337989	3
766.105670	28
767.108206	8
776.960325	6
777.787499	5
780.552935	3
789.692451	4
791.582526	3
793.897621	3
795.701039	3
800.069787	3
802.916330	7
806.798910	3
808.116724	30
809.120249	5
810.021101	4
819.019963	6
829.874295	3
830.095656	4
831.683921	3
831.964943	4
840.043524	112
841.047213	30
842.048085	3
849.530030	3
849.642315	3
850.850791	4
853.138942	3
854.902440	3
861.032005	3
862.025736	7
878.221267	4
885.633639	3
888.258654	3
897.233976	3
905.454840	3
905.974967	23
912.064234	6
913.069440	5
916.388479	3
921.007531	4
922.858579	3
938.016496	14
958.644819	3
977.404435	4
1002.092375	5
1005.969235	76
1006.976678	19
1010.317459	3
1011.902860	3
1013.992036	3
1023.804902	3
1036.000070	5
1039.619426	4
1069.738786	3
1071.625197	3
1096.753607	3
1100.434132	3
1105.965432	118
1106.918040	3
1106.966746	25
1121.143312	3
1123.615544	4
1155.540097	4
1155.955800	39
1156.921691	3
1156.958865	12
1157.955792	10
1165.985321	26
1166.986407	4
1175.186323	4
1180.034472	3
1187.336086	3
1205.956640	62
1206.962121	16
1207.960927	4
1208.048184	3
1209.890702	3
1229.714262	3
1242.614090	3
1250.104197	3
1255.953397	84
1256.954705	21
1257.948782	25
1258.952477	8
1265.978062	56
1266.982865	19
1267.988864	4
1282.971940	8
1305.953902	8
1326.815421	3
1349.200819	3
1355.939238	69
1356.939715	18
1357.941301	22
1358.943995	4
1365.974981	52
1366.977040	15
1382.957032	5
1435.857805	3
1442.335105	4
1446.546015	3
1452.196277	4
1455.936047	24
1456.944164	10
1457.942812	11
1458.942486	6
1465.969084	28
1466.966411	9
1485.666977	3
1487.800596	4
1490.025742	4
