Mass spectrum: Adenosine; LC-ESI-ITFT; MS; POS
Name: Adenosine
Class: Natural Product
Formula: C10H13N5O4
Exact mass: 267.09675
SMILES: OC[C@@H](O1)[C@@H](O)[C@@H](O)[C@@H]1n(c3)c(n2)c(n3)c(N)nc2
InChI: InChI=1S/C10H13N5O4/c11-8-5-9(13-2-12-8)15(3-14-5)10-7(18)6(17)4(1-16)19-10/h2-4,6-7,10,16-18H,1H2,(H2,11,12,13)/t4-,6-,7-,10-/m1/s1
Instrument: LTQ Orbitrap XL, Thermo Scientfic
Instrument type: LC-ESI-ITFT
Ms type: MS
Ion mode: POSITIVE
Collision energy: 35eV
Ionization: ESI
Column name: TOSOH TSKgel ODS-100V  5um Part no. 21456
Retention time: 5.471532 min
Base peak: 268.103882
m/z	relative intensity
136.058518	2
136.061516	43
136.063015	1
136.064214	1
137.064689	1
139.049773	1
171.148702	5
172.976690	1
174.127584	2
179.063200	1
182.984796	2
187.125577	1
194.116962	8
199.179842	1
222.112313	1
224.127985	3
242.561791	5
243.063485	1
245.076488	3
266.835101	1
267.686784	1
267.874668	1
267.964956	1
268.027107	3
268.054461	1
268.063579	1
268.066066	1
268.073528	1
268.076015	1
268.079331	1
268.081818	1
268.084305	1
268.086793	2
268.088451	1
268.090938	3
268.092597	3
268.096742	11
268.104205	999
268.110838	11
268.118301	4
268.119960	1
268.123277	1
268.124936	2
268.129911	1
268.133229	1
268.136546	1
268.139863	1
268.143181	1
268.151474	1
268.154792	1
268.179676	3
268.243562	1
268.333206	1
268.522603	1
269.098667	1
269.101169	1
269.106172	125
269.110341	1
269.112842	1
269.381549	1
270.102865	1
270.106219	3
270.108735	1
308.081629	1
308.084693	1
308.090822	104
308.095929	1
308.100015	1
309.093254	9
310.086146	3
391.282894	4
392.284786	1
484.113777	1
575.185491	1
615.172382	1
658.379757	3
659.382842	1
