Mass spectrum: FAD; LC-ESI-ITFT; MS2; m/z:439.10; POS
Name: FAD
Name: Flavin adenine dinucleotide
Class: Natural Product
Formula: C27H33N9O15P2
Exact mass: 785.15713
SMILES: C(C(CN(c54)C(=N6)C(C(=O)NC6=O)=Nc(cc(c(c5)C)C)4)O)(O)C(O)COP(OP(OCC(O1)C(C(C1n(c2)c(n3)c(c(N)nc3)n2)O)O)(O)=O)(O)=O
InChI: InChI=1S/C27H33N9O15P2/c1-10-3-12-13(4-11(10)2)35(24-18(32-12)25(42)34-27(43)33-24)5-14(37)19(39)15(38)6-48-52(44,45)51-53(46,47)49-7-16-20(40)21(41)26(50-16)36-9-31-17-22(28)29-8-30-23(17)36/h3-4,8-9,14-16,19-21,26,37-41H,5-7H2,1-2H3,(H,44,45)(H,46,47)(H2,28,29,30)(H,34,42,43)/t14-,15+,16+,19-,20+,21+,26+/m0/s1
Instrument: LTQ Orbitrap XL, Thermo Scientfic
Instrument type: LC-ESI-ITFT
Ms type: MS2
Ion mode: POSITIVE
Collision energy: 35eV
Ionization: ESI
Column name: TOSOH TSKgel ODS-100V  5um Part no. 21456
Retention time: 14.675383 min
Base peak: 421.228760
Precursor m/z: 439.10
m/z	relative intensity
157.134857	1
172.160004	3
173.068268	1
178.080658	1
198.161713	2
200.272278	2
212.179138	1
218.122559	1
224.269028	1
226.173828	2
243.129211	87
244.378235	1
252.183380	3
253.223358	1
254.240601	2
255.237305	2
257.177185	1
267.152008	1
268.105560	2
269.198944	1
270.367401	1
272.234589	1
280.134155	6
283.228088	1
285.244446	1
297.138397	36
298.318726	3
299.380920	1
311.216370	4
313.416077	1
323.270813	64
334.282288	8
341.174622	347
341.791199	2
351.582062	2
352.307373	5
359.215485	410
377.090118	1
378.258820	12
379.175323	7
394.316376	1
396.202179	289
397.223938	2
403.226593	20
421.228760	999
422.246796	29
