Mass spectrum: Uridine; LC-ESI-ITFT; MS; NEG
Name: Uridine
Class: Natural Product
Formula: C9H12N2O6
Exact mass: 244.06954
SMILES: OC[C@@H](O1)[C@@H](O)[C@@H](O)[C@@H]1N(C=2)C(=O)NC(=O)C2
InChI: InChI=1S/C9H12N2O6/c12-3-4-6(14)7(15)8(17-4)11-2-1-5(13)10-9(11)16/h1-2,4,6-8,12,14-15H,3H2,(H,10,13,16)/t4-,6-,7-,8-/m1/s1
Instrument: LTQ Orbitrap XL, Thermo Scientfic
Instrument type: LC-ESI-ITFT
Ms type: MS
Ion mode: NEGATIVE
Collision energy: 35eV
Ionization: ESI
Column name: TOSOH TSKgel ODS-100V  5um Part no. 21456
Retention time: 9.188585 min
Base peak: 279.038513
m/z	relative intensity
101.047298	1
101.947551	1
102.013705	1
102.251222	1
102.366769	1
102.670744	1
102.948638	2
102.956730	3
104.400308	1
104.852812	1
104.953904	1
105.350542	1
106.130966	1
106.144395	1
106.778200	1
107.150649	1
107.205783	1
107.797097	1
108.045559	4
108.385855	1
109.387906	1
109.971676	1
110.021371	3
110.023115	6
110.024641	154
110.026385	7
110.028130	2
110.300325	1
111.014191	1
111.014854	1
111.016622	3
111.018390	12
111.019937	221
111.021705	10
111.023253	3
111.027894	6
111.708908	1
111.709577	1
112.023200	5
112.300138	1
112.983832	2
112.985421	26
112.986555	1
112.987009	1
113.066922	1
113.770709	1
113.897831	1
113.921948	1
114.951855	3
116.884319	1
116.884797	1
117.788167	1
118.749711	1
119.274887	1
120.147670	1
120.217119	1
122.024533	4
123.732739	1
123.961886	1
125.000702	1
126.880755	3
127.717067	1
130.252065	1
130.803438	1
131.053365	1
131.177887	1
132.380546	1
133.013878	1
133.059973	1
134.046731	3
136.909280	1
139.006887	2
140.031854	1
140.034985	10
140.689733	1
143.655944	1
147.528473	1
148.909538	2
148.952117	9
149.935121	1
151.475863	1
152.034974	24
152.317999	1
152.985764	1
153.030103	8
157.006197	1
158.846456	4
158.924781	9
159.025515	1
159.282707	1
159.877998	3
159.893658	1
160.309688	1
160.841743	37
160.844826	2
160.888771	1
160.891855	1
160.921163	1
161.024187	1
161.076702	1
161.875302	2
162.131250	1
162.444119	1
162.838737	32
162.841485	2
163.802878	1
164.165496	1
164.835565	7
164.927165	2
164.966788	2
167.921349	1
168.836094	1
169.189782	1
169.195603	1
170.737456	1
170.832332	1
170.943754	1
171.514812	1
171.551739	1
171.571693	1
171.970653	1
174.446558	1
174.832880	1
174.884429	1
174.955673	3
176.970983	1
177.031935	1
177.087576	1
180.961608	2
182.044958	1
182.778985	1
182.949510	2
184.326124	3
184.875804	3
186.027618	1
186.873216	2
186.969299	4
186.992968	1
187.330631	1
187.860244	2
189.515362	1
190.924517	1
192.282432	1
192.505786	1
197.220579	1
198.935996	1
200.051793	1
200.055536	50
200.183366	1
201.058994	2
202.750645	1
202.885981	1
209.007840	1
209.279273	1
209.446968	1
210.971702	6
211.000652	1
211.504180	1
212.472767	1
216.222667	1
217.175503	1
218.981346	2
219.103230	1
220.930119	3
221.984243	1
225.127173	1
227.231211	1
228.535627	1
228.937585	2
230.958727	4
233.938884	2
233.942264	1
234.642847	1
234.865060	1
236.268787	1
236.700271	1
237.978257	1
238.966930	6
239.457627	1
239.970906	1
241.546925	1
242.371058	1
242.742187	1
242.995328	2
243.050442	7
243.056170	20
243.061181	612
243.066909	19
243.072637	6
243.127777	2
243.259617	1
244.064442	47
244.069485	1
245.065229	5
247.003195	2
249.920684	1
255.919859	1
256.873918	1
258.759574	1
259.021646	37
262.148088	1
263.805421	1
263.894490	1
265.391097	1
266.102349	1
266.671601	1
268.218483	1
271.062624	1
271.503286	1
272.956090	4
277.301385	1
278.794881	2
278.957657	3
279.004317	2
279.015763	2
279.017524	2
279.024569	11
279.032494	28
279.038659	999
279.044823	29
279.051869	9
279.058034	1
279.060676	1
279.071245	2
279.074768	1
279.119695	3
280.034679	4
280.041762	77
280.045303	2
280.139180	1
280.981752	2
281.021800	4
281.028920	9
281.035151	302
281.041382	5
281.044943	2
281.048503	3
282.032046	1
282.038310	21
283.041451	1
283.108938	1
287.034501	3
287.151220	1
288.027495	1
289.066502	53
289.073931	2
290.070069	6
290.966314	2
292.393099	1
296.980511	4
297.340534	1
298.996120	7
299.370581	1
300.818301	2
301.019491	8
302.576629	1
303.346756	1
304.988416	2
306.049804	2
306.056885	47
306.063966	1
306.992724	2
307.060823	4
307.791006	1
308.097294	1
309.008646	2
310.820744	1
311.036198	1
311.048635	11
314.101478	1
315.987278	5
319.013159	1
322.998728	1
323.027245	3
324.047564	1
324.884563	1
325.004082	2
325.948164	1
327.013645	1
327.022583	2
328.043944	4
329.793082	1
331.867855	1
332.956779	8
333.030253	3
333.092266	6
333.959962	1
334.953787	2
336.995698	2
337.449648	1
340.964579	3
341.028821	3
341.038340	2
342.968162	2
342.986163	19
345.831170	1
346.054849	16
347.057990	2
350.992706	7
352.998987	6
354.189866	1
355.590657	1
357.054580	6
358.978173	2
360.974358	2
362.166789	1
365.276703	1
367.926332	6
368.003678	4
368.933739	5
369.007386	3
369.922437	5
370.008482	2
370.618376	1
370.929962	2
372.002601	1
372.104289	4
373.018642	1
378.895092	2
379.035866	3
383.074766	7
383.090348	3
385.950843	3
386.005285	2
386.015315	40
386.826165	1
386.949811	2
387.018848	3
388.430960	1
388.565505	1
388.950720	3
388.956517	1
389.150794	1
389.398925	1
399.060874	5
400.944145	2
402.009540	3
403.901479	2
404.176135	1
405.899490	1
407.850110	1
408.010441	10
410.972455	3
414.725338	1
416.693393	1
419.020449	1
420.373613	1
420.999608	2
422.927084	1
426.020086	19
427.025284	2
428.013968	5
432.419156	1
432.956498	1
433.424936	1
438.305687	1
446.572550	1
448.983908	1
451.681338	1
452.991816	1
460.985144	1
465.024441	6
465.521223	1
465.980790	8
469.862778	1
487.130934	44
488.133903	6
489.938055	3
490.972317	1
494.119731	9
495.117311	31
496.117916	5
497.121556	2
503.090578	2
504.939769	5
505.987513	2
507.798661	1
507.950029	5
509.052727	3
509.113491	2
510.374612	1
511.087690	16
512.093329	2
518.892695	17
521.780990	1
522.949390	3
523.107583	81
524.110385	16
525.104705	21
526.106418	5
526.152019	1
527.200182	2
527.907572	11
529.197809	2
529.946101	3
531.047243	2
532.976122	1
533.213318	1
533.893226	3
535.306085	2
536.046272	2
538.044916	2
540.021565	1
540.028678	1
540.042904	39
540.052389	76
541.044885	3
541.056774	8
542.059195	2
544.141951	1
546.980380	1
547.955692	2
549.057559	2
550.828938	1
551.061044	2
552.270365	1
554.868858	3
555.902497	4
558.063134	30
558.898464	6
559.065755	5
562.034496	2
562.165422	4
563.032698	7
563.300345	2
563.451928	1
564.036093	2
564.165187	2
564.897557	3
566.015326	1
567.024157	12
567.070077	3
567.912934	1
567.948733	1
568.028014	2
569.021717	3
570.190338	1
570.555788	1
570.821088	1
572.077975	14
575.057300	3
576.056453	4
577.034641	1
577.052974	37
577.100117	5
578.057334	5
579.048523	2
579.059054	1
579.899768	1
581.769582	1
590.636891	1
593.962157	2
604.759549	1
608.029303	1
609.024772	3
620.018584	4
620.900400	1
621.078744	9
622.082992	2
622.176807	1
627.034153	4
629.014490	2
640.556523	1
643.060126	3
645.042639	2
652.995719	1
653.124994	1
653.361572	1
660.323522	1
660.641011	1
662.099904	23
663.089165	5
663.105295	4
664.116211	8
670.315782	1
672.659723	1
673.745437	1
673.999920	2
680.821769	1
685.070395	2
688.730147	1
730.085828	1
730.801943	1
731.197749	1
733.286644	1
734.281818	4
735.011646	1
739.185682	3
741.030634	1
742.064534	5
744.315284	1
749.006375	1
753.183189	1
753.968763	4
754.971077	2
762.958505	2
765.241061	1
766.105670	2
773.120278	6
774.014552	2
774.120341	5
775.024504	1
775.114192	78
775.163120	3
776.118129	22
776.534967	1
777.107645	3
777.124017	2
777.959652	2
778.115458	2
784.149778	2
792.079269	1
797.098028	15
798.102391	4
800.108269	2
802.967913	2
806.093646	2
806.422366	1
806.863858	1
811.141644	2
833.076827	1
842.865788	1
849.310202	1
854.024723	1
859.063962	1
865.012467	2
867.010645	1
872.998162	1
874.046860	1
875.038761	1
875.704231	1
885.320016	1
905.974967	4
906.170774	18
907.171413	5
918.499030	1
922.054011	1
925.842529	1
933.382192	3
944.086842	1
954.302417	1
961.077589	1
972.636018	1
1002.673973	1
1003.622404	1
1005.969235	22
1006.970641	5
1007.387328	1
1019.184969	2
1040.176958	1
1041.166413	6
1042.169993	3
1043.875589	1
1057.133188	1
1099.124911	1
1100.668660	1
1105.965432	28
1106.966746	8
1107.962453	2
1109.071146	1
1133.074908	1
1143.720408	1
1150.237365	3
1151.240374	1
1155.955800	4
1156.958865	2
1157.085270	1
1163.154644	1
1165.985321	12
1166.993939	3
1182.973150	2
1184.804807	1
1205.956640	10
1206.962121	2
1210.781702	1
1216.036262	2
1217.592008	1
1226.908297	1
1235.453593	1
1239.623691	1
1245.266556	1
1250.171005	1
1255.314532	1
1255.944988	10
1256.306663	1
1256.963124	2
1257.948782	3
1258.944038	1
1265.978062	35
1266.982865	12
1267.971803	2
1282.971940	6
1283.979661	1
1285.989956	1
1299.159435	2
1301.267576	1
1305.944986	2
1316.178318	1
1333.966349	2
1339.145319	1
1355.939238	6
1357.941301	3
1358.347920	1
1365.974981	30
1366.967491	7
1382.966749	5
1396.079637	1
1431.898162	1
1433.947743	1
1455.925551	2
1457.932294	2
1465.969084	13
1466.966411	4
1477.607380	1
1478.358835	1
1482.955151	2
1487.811438	2
1490.547474	1
1495.124334	1
1499.393178	1
