Mass spectrum: L-Isoleucine; LC-ESI-ITFT; MS; POS
Name: L-Isoleucine
Name: 2-Amino-3-methylvaleric acid
Class: Natural Product
Formula: C6H13NO2
Exact mass: 131.09463
SMILES: CC[C@H](C)[C@H](N)C(O)=O
InChI: InChI=1S/C6H13NO2/c1-3-4(2)5(7)6(8)9/h4-5H,3,7H2,1-2H3,(H,8,9)/t4-,5-/m0/s1
Instrument: LTQ Orbitrap XL, Thermo Scientfic
Instrument type: LC-ESI-ITFT
Ms type: MS
Ion mode: POSITIVE
Collision energy: 35eV
Ionization: ESI
Column name: TOSOH TSKgel ODS-100V  5um Part no. 21456
Retention time: 6.230623 min
Base peak: 132.101730
m/z	relative intensity
100.111848	6
102.033748	4
110.019746	3
111.020036	1
118.086052	4
122.963861	1
131.662488	1
131.943157	1
131.954323	1
132.022490	2
132.052581	1
132.075227	3
132.076374	1
132.078094	1
132.079241	1
132.079814	1
132.082395	1
132.085262	1
132.086696	1
132.087556	1
132.088703	2
132.089277	2
132.090424	1
132.092144	1
132.094151	3
132.096445	3
132.097019	4
132.097879	3
132.099313	15
132.100174	11
132.101607	999
132.103615	16
132.104189	14
132.106770	5
132.109351	3
132.110785	1
132.111932	1
132.112506	1
132.113653	1
132.114801	2
132.116522	1
132.117669	1
132.118529	1
132.120537	1
132.121398	1
132.123406	1
132.123980	1
132.125127	1
132.128283	4
132.150949	1
132.181083	2
132.249426	1
132.260630	1
132.542927	1
133.098346	1
133.102407	1
133.103277	1
133.104727	58
133.106467	1
133.107338	1
134.105235	2
137.132002	1
141.958171	2
149.022904	4
155.142891	1
158.096003	1
163.132671	5
170.095866	1
171.137707	1
171.149125	37
172.152025	2
172.976690	2
174.127584	9
179.063200	2
182.028700	3
182.984796	3
187.126060	6
199.179842	4
223.062608	1
233.173966	1
279.157671	1
282.220291	1
294.226753	4
302.242873	1
364.268190	1
391.284356	43
392.286254	8
408.294376	1
413.265143	2
422.323179	1
436.341219	5
437.343196	1
464.370027	1
522.379087	27
523.379555	5
524.382899	1
803.544293	1
