Mass spectrum: Taurine; LC-ESI-ITFT; MS2; m/z:249.02; NEG
Name: Taurine
Name: 2-Aminoethanesulfonic acid
Name: Aminoethylsulfonic acid
Class: Natural Product
Formula: C2H7NO3S
Exact mass: 125.01466
SMILES: NCCS(O)(=O)=O
InChI: InChI=1S/C2H7NO3S/c3-1-2-7(4,5)6/h1-3H2,(H,4,5,6)
Instrument: LTQ Orbitrap XL, Thermo Scientfic
Instrument type: LC-ESI-ITFT
Ms type: MS2
Ion mode: NEGATIVE
Collision energy: 35eV
Ionization: ESI
Column name: TOSOH TSKgel ODS-100V  5um Part no. 21456
Retention time: 4.795743 min
Base peak: 123.942795
Precursor m/z: 249.02
m/z	relative intensity
79.900536	1
123.942795	999
124.746414	1
