Mass spectrum: DL-Isocitric acid; LC-ESI-ITFT; MS; NEG
Name: Isocitrate
Name: Isocitric acid
Name: 1-Hydroxytricarballylic acid
Name: 1-Hydroxypropane-1,2,3-tricarboxylic acid
Name: DL-Isocitric acid
Class: Natural Product
Formula: C6H8O7
Exact mass: 192.02700
SMILES: OC(=O)CC(C(O)=O)C(O)C(O)=O
InChI: InChI=1S/C6H8O7/c7-3(8)1-2(5(10)11)4(9)6(12)13/h2,4,9H,1H2,(H,7,8)(H,10,11)(H,12,13)
Instrument: LTQ Orbitrap XL, Thermo Scientfic
Instrument type: LC-ESI-ITFT
Ms type: MS
Ion mode: NEGATIVE
Collision energy: 35eV
Ionization: ESI
Column name: TOSOH TSKgel ODS-100V  5um Part no. 21456
Retention time: 8.880630 min
Base peak: 191.019104
m/z	relative intensity
101.024465	5
103.040071	2
103.255805	1
103.319268	1
103.920096	1
106.657187	1
106.943493	1
107.752072	1
110.035980	1
111.005131	1
111.006899	3
111.007562	2
111.008667	55
111.009993	2
111.010656	3
111.012424	1
111.019937	1
111.685935	1
112.012000	1
112.042019	1
112.937107	1
112.985421	1
113.955266	1
114.951389	5
117.019328	18
117.020523	1
117.021241	1
118.022792	1
121.873910	1
123.223094	1
123.467154	1
123.891773	1
124.007270	1
124.015098	1
124.077221	1
124.571688	1
128.964156	1
129.016467	1
129.019236	15
131.953961	1
134.046731	3
135.720970	1
136.971952	2
138.229255	1
138.973143	1
138.979953	1
139.341592	1
139.541936	1
140.964427	1
140.966957	1
142.249662	1
144.555378	1
145.747763	1
145.890482	1
147.029711	1
148.359028	1
148.952117	3
150.979747	1
151.006738	1
151.016205	1
152.004165	1
152.771131	1
153.294755	1
154.998116	12
156.001543	1
156.894379	1
156.959003	10
157.135996	1
157.467359	1
157.962432	1
158.925159	18
159.136585	1
159.893658	1
160.892241	2
161.893591	1
162.892928	3
162.951076	1
163.970945	1
164.895156	1
164.966788	6
166.135461	1
167.020543	9
167.996608	1
168.961750	3
170.507551	1
172.163399	1
172.953533	1
172.976741	1
172.997804	1
172.999953	1
173.002533	1
173.005112	1
173.008982	57
173.011131	2
173.012421	2
173.020591	1
174.012065	2
175.135944	1
180.961608	4
181.883111	1
182.977564	1
184.372940	1
184.478935	1
184.954191	1
186.490109	1
187.041288	1
188.554406	1
188.948802	1
190.255409	1
190.790015	1
190.881162	2
190.945951	1
190.973371	5
190.985837	1
190.987333	1
190.988829	1
190.989827	1
190.996808	1
190.999800	1
191.001795	1
191.003790	1
191.007281	5
191.010773	10
191.012768	4
191.014763	31
191.019252	999
191.023242	34
191.027233	10
191.031722	5
191.033717	1
191.036711	2
191.037708	1
191.040701	1
191.042198	1
191.043695	1
191.046688	1
191.048684	1
191.051677	1
191.065149	5
191.087604	1
191.128034	1
191.157491	2
191.235911	1
192.018238	2
192.019746	1
192.022260	49
192.026785	2
192.989620	1
193.023055	10
194.643860	1
194.990634	1
194.996292	1
199.485272	1
200.948621	4
206.081204	2
206.721552	1
206.960976	1
207.960232	1
208.951335	1
208.956471	15
209.956436	1
211.000652	3
211.093333	1
213.000957	1
217.015354	1
223.948000	1
226.927357	1
227.032021	2
228.965729	2
232.987266	1
234.102565	1
234.935799	2
235.991831	1
236.987436	1
239.999704	1
240.569705	1
243.941304	1
244.938436	10
245.956269	3
246.935000	1
248.938266	1
248.987249	1
252.884093	1
252.946406	12
252.950206	1
254.943416	1
256.961057	1
257.288222	1
257.982785	4
258.097122	1
258.985420	1
260.253102	1
262.948613	1
263.895300	1
263.931751	1
267.958079	1
269.078682	1
271.058408	1
272.088270	1
272.956090	3
277.023290	1
280.021399	1
280.858993	2
280.977303	2
284.955679	2
287.649220	1
288.039502	1
288.985737	1
289.036791	5
290.967251	2
293.996051	1
294.992872	2
298.870154	1
298.932639	1
300.927747	6
301.068833	1
301.971956	2
302.611436	1
302.965809	3
304.032672	2
306.076106	4
306.874875	1
308.935794	1
309.934355	1
310.967809	1
311.197937	1
315.899215	1
316.879529	1
318.938893	7
319.034690	1
319.078835	2
320.972762	1
322.043400	4
323.027245	12
324.031034	1
324.038748	1
324.967555	2
325.957058	1
328.043944	1
329.581589	1
329.866644	1
332.901689	1
335.048779	3
338.987934	2
344.954352	1
346.043903	1
346.054849	39
346.062147	1
346.064579	1
347.038446	1
347.051882	1
347.057990	3
356.514726	1
358.131572	1
359.036005	1
359.047573	28
359.054000	1
360.049688	3
362.049623	6
362.345251	1
362.963722	1
363.052578	1
364.961674	3
366.934997	1
370.379893	1
373.839390	1
374.442357	1
378.896485	8
381.029021	2
382.034321	1
382.972796	1
383.035106	1
383.045020	41
383.053519	1
383.057768	1
384.000019	11
384.048360	4
385.002835	1
385.049938	1
386.015315	1
386.906672	1
387.017409	1
388.992751	1
390.035575	5
391.024157	1
391.031461	24
391.044609	1
392.035566	3
400.944145	1
401.015444	1
401.869474	1
401.985175	2
401.997357	6
402.001925	4
402.009540	246
402.018677	4
402.023246	5
402.030860	1
402.035429	2
402.149678	1
402.981353	1
403.013451	24
403.022622	1
404.013456	4
405.014107	2
405.027967	40
405.035668	1
406.030847	4
406.990915	3
407.003325	5
407.032802	1
408.010441	6
408.950980	1
409.000983	1
409.066626	5
409.454557	1
409.701994	1
410.026507	1
410.067295	1
412.123933	2
412.966144	2
416.404276	1
418.954016	6
419.059344	1
420.652204	1
420.993080	8
421.002872	1
421.995268	1
422.583857	1
423.992266	1
424.550330	1
424.967119	2
425.001879	1
425.965268	2
426.011779	1
426.021747	10
426.429059	1
426.953604	1
426.961938	23
426.971939	1
426.996943	1
427.010280	12
427.023617	1
427.967128	2
428.012295	1
428.960765	1
428.984265	1
432.946286	1
434.533470	1
434.968477	1
435.957372	3
435.967690	1
436.965174	32
437.967816	3
438.970439	1
442.975040	1
443.933059	1
444.950927	1
446.941850	1
446.948990	1
448.944367	7
448.991097	2
450.947710	1
455.385653	1
457.939194	1
458.831046	1
458.946194	8
459.949064	1
463.936959	2
470.924832	1
474.911909	1
478.876572	1
480.882526	1
480.928353	2
481.932206	1
483.139779	1
499.977578	1
500.927288	1
502.807153	1
504.939769	43
505.942359	4
506.941468	1
507.926238	1
508.924726	1
513.950596	10
514.069488	1
514.082701	2
514.953662	1
515.055234	1
518.042911	1
520.944321	1
522.949390	25
523.954002	2
524.954695	1
529.927663	1
529.946101	36
529.964541	1
530.950149	2
531.961689	2
533.893226	2
535.025403	1
536.053306	1
537.037145	2
538.080287	1
540.052389	19
541.056774	3
542.901853	1
543.619539	1
544.951015	1
547.955692	14
548.960345	1
550.943751	3
551.075708	1
554.938007	1
558.063134	14
558.898464	1
559.068252	2
559.835761	1
559.955905	1
560.063567	3
560.895865	1
561.066564	1
562.293874	1
564.654120	1
570.038600	2
572.080560	1
573.082329	1
575.949369	4
581.997644	2
592.000647	1
594.036006	7
594.972617	1
597.053654	3
598.058200	1
598.146633	1
598.987725	1
600.928426	1
601.340543	1
603.001648	1
603.981986	1
604.150284	2
604.992830	1
605.153113	1
606.166899	3
607.169102	1
611.142925	13
611.577025	1
612.148914	2
613.016856	1
613.697029	1
616.018680	5
618.993142	1
619.036787	2
619.977751	2
620.018584	7
621.023186	1
626.136283	1
626.974828	1
628.067755	1
628.148055	1
635.006072	1
637.951814	1
638.027928	5
640.970219	1
641.019276	1
644.161421	1
647.955731	3
650.083056	1
650.973319	2
662.099904	6
662.953696	1
663.105295	1
669.935599	1
672.910293	1
675.108765	1
680.107456	1
682.590583	1
692.109598	1
693.118631	1
694.126417	1
694.890621	1
696.964807	20
697.970544	1
698.971478	1
703.832165	1
705.978439	4
710.128900	1
721.973260	16
722.974866	3
733.853458	1
742.068353	8
743.069983	2
743.954783	1
748.100953	1
749.072217	1
750.923227	1
766.105670	5
767.112220	1
768.056406	1
775.236519	1
782.443353	1
789.080681	1
790.040555	1
790.548445	1
793.935658	1
801.941483	1
805.026695	1
808.042945	1
808.116724	9
808.364173	1
809.120249	2
829.978188	1
833.045028	1
834.295647	1
838.972759	1
839.988327	1
842.403662	1
842.986003	1
854.128469	5
855.129167	2
857.083696	1
861.027232	1
866.119036	1
884.141689	1
888.994348	1
889.996761	1
907.956577	1
913.997995	4
918.462216	1
934.093753	2
935.097789	1
999.532179	1
999.777006	1
1001.864670	1
1005.969235	4
1037.658959	1
1038.385582	1
1052.589278	1
1053.047514	1
1059.044939	1
1069.038444	1
1105.965432	7
1106.966746	3
1112.000781	1
1152.488589	1
1165.985321	3
1166.986407	1
1205.956640	4
1206.962121	1
1221.276719	1
1222.987971	1
1244.569463	1
1254.827305	1
1255.953397	1
1265.978062	10
1266.982865	4
1293.893854	1
1304.199129	1
1305.953902	2
1319.549757	1
1324.490085	1
1365.974981	8
1366.977040	2
1387.759785	1
1411.491520	1
1460.016965	1
1465.969084	4
1466.966411	1
1468.538734	1
1475.902630	1
1483.624313	1
1487.757228	1
1497.563002	1
