Mass spectrum: L-Homoserine; LC-ESI-ITFT; MS2; m/z:121.07; POS
Name: L-Homoserine
Name: 2-Amino-4-hydroxybutyric acid
Class: Natural Product
Formula: C4H9NO3
Exact mass: 119.05824
SMILES: OCC[C@H](N)C(O)=O
InChI: InChI=1S/C4H9NO3/c5-3(1-2-6)4(7)8/h3,6H,1-2,5H2,(H,7,8)/t3-/m0/s1
Instrument: LTQ Orbitrap XL, Thermo Scientfic
Instrument type: LC-ESI-ITFT
Ms type: MS2
Ion mode: POSITIVE
Collision energy: 35eV
Ionization: ESI
Column name: TOSOH TSKgel ODS-100V  5um Part no. 21456
Retention time: 4.670923 min
Base peak: 74.941360
Precursor m/z: 121.07
m/z	relative intensity
55.974922	2
56.945633	7
73.999146	350
74.941360	999
84.033447	3
85.067238	8
102.979828	752
