Mass spectrum: 3',5'-Cyclic AMP; LC-ESI-ITFT; MS2; m/z:331.06; POS
Name: 3',5'-Cyclic AMP
Name: Cyclic adenylic acid
Name: Cyclic AMP
Name: Adenosine 3',5'-phosphate
Name: cAMP
Class: Natural Product
Formula: C10H12N5O6P
Exact mass: 329.05252
SMILES: Nc(n4)c(n3)c(nc4)n(c3)[C@H](O1)[C@H](O)[C@H](O2)[C@@H](COP(O)(=O)2)1
InChI: InChI=1S/C10H12N5O6P/c11-8-5-9(13-2-12-8)15(3-14-5)10-6(16)7-4(20-10)1-19-22(17,18)21-7/h2-4,6-7,10,16H,1H2,(H,17,18)(H2,11,12,13)/t4-,6-,7-,10-/m1/s1
Instrument: LTQ Orbitrap XL, Thermo Scientfic
Instrument type: LC-ESI-ITFT
Ms type: MS2
Ion mode: POSITIVE
Collision energy: 35eV
Ionization: ESI
Column name: TOSOH TSKgel ODS-100V  5um Part no. 21456
Retention time: 9.763965 min
Base peak: 312.166321
Precursor m/z: 331.06
m/z	relative intensity
97.038696	15
98.167397	1
119.204308	9
120.150772	1
136.102509	677
137.129333	71
148.196045	2
159.129425	1
162.131500	3
173.253357	2
174.214172	1
176.202042	6
177.058411	19
178.129013	6
186.100220	3
187.184097	2
190.135437	14
191.123489	2
202.147308	2
204.170929	37
205.236130	7
208.233185	2
209.292999	1
214.127686	42
215.118713	9
216.126526	2
232.144501	95
233.245239	21
250.197754	60
251.224487	14
270.190613	3
284.214539	2
302.311493	1
312.166321	999
313.140717	221
330.167084	1
