Mass spectrum: D-2-Aminobutyric acid; LC-ESI-ITFT; MS2; m/z:207.13; POS
Name: D-2-Aminobutyrate
Name: D-2-Aminobutyric acid
Name: D-2-Aminobutanoic acid
Name: (R)-2-Aminobutanoic acid
Class: Natural Product
Formula: C4H9NO2
Exact mass: 103.06333
SMILES: CCC(N)C(O)=O
InChI: InChI=1S/C4H9NO2/c1-2-3(5)4(6)7/h3H,2,5H2,1H3,(H,6,7)/t3-/m1/s1
Instrument: LTQ Orbitrap XL, Thermo Scientfic
Instrument type: LC-ESI-ITFT
Ms type: MS2
Ion mode: POSITIVE
Collision energy: 35eV
Ionization: ESI
Column name: TOSOH TSKgel ODS-100V  5um Part no. 21456
Retention time: 4.570043 min
Base peak: 104.002426
Precursor m/z: 207.13
m/z	relative intensity
86.044754	3
86.974472	13
104.002426	999
123.058472	2
136.351486	1
137.125595	1
161.217453	1
176.212662	1
179.101120	5
191.004929	4
192.077774	1
193.206116	1
207.239914	1
