Mass spectrum: L-Homocysteine; LC-ESI-ITFT; MS2; m/z:136.04; POS
Name: L-Homocysteine
Name: L-2-Amino-4-mercaptobutyric acid
Class: Natural Product
Formula: C4H9NO2S
Exact mass: 135.03540
SMILES: SCC[C@H](N)C(O)=O
InChI: InChI=1S/C4H9NO2S/c5-3(1-2-8)4(6)7/h3,8H,1-2,5H2,(H,6,7)/t3-/m0/s1
Instrument: LTQ Orbitrap XL, Thermo Scientfic
Instrument type: LC-ESI-ITFT
Ms type: MS2
Ion mode: POSITIVE
Collision energy: 35eV
Ionization: ESI
Column name: TOSOH TSKgel ODS-100V  5um Part no. 21456
Retention time: 5.470543 min
Base peak: 118.009033
Precursor m/z: 136.04
m/z	relative intensity
56.050495	4
72.891708	1
90.006973	513
102.143936	1
118.009033	999
119.035492	1
