Mass spectrum: FAD; LC-ESI-ITFT; MS; NEG
Name: FAD
Name: Flavin adenine dinucleotide
Class: Natural Product
Formula: C27H33N9O15P2
Exact mass: 785.15713
SMILES: C(C(CN(c54)C(=N6)C(C(=O)NC6=O)=Nc(cc(c(c5)C)C)4)O)(O)C(O)COP(OP(OCC(O1)C(C(C1n(c2)c(n3)c(c(N)nc3)n2)O)O)(O)=O)(O)=O
InChI: InChI=1S/C27H33N9O15P2/c1-10-3-12-13(4-11(10)2)35(24-18(32-12)25(42)34-27(43)33-24)5-14(37)19(39)15(38)6-48-52(44,45)51-53(46,47)49-7-16-20(40)21(41)26(50-16)36-9-31-17-22(28)29-8-30-23(17)36/h3-4,8-9,14-16,19-21,26,37-41H,5-7H2,1-2H3,(H,44,45)(H,46,47)(H2,28,29,30)(H,34,42,43)/t14-,15+,16+,19-,20+,21+,26+/m0/s1
Instrument: LTQ Orbitrap XL, Thermo Scientfic
Instrument type: LC-ESI-ITFT
Ms type: MS
Ion mode: NEGATIVE
Collision energy: 35eV
Ionization: ESI
Column name: TOSOH TSKgel ODS-100V  5um Part no. 21456
Retention time: 14.751005 min
Base peak: 784.148376
m/z	relative intensity
112.985508	1
134.047155	2
138.980092	1
150.979901	1
158.924946	4
162.979942	3
176.935622	1
176.995665	1
180.983917	1
180.987137	2
180.990817	38
180.994038	2
180.997718	1
181.993693	1
192.990400	1
195.005833	5
199.000980	3
211.000984	3
213.016565	1
241.067891	1
241.072841	10
242.075900	1
255.082359	1
255.088516	19
255.093905	1
256.091343	2
260.956199	3
272.956594	8
274.972461	2
328.044651	5
329.048253	1
346.026442	1
346.037387	1
346.045901	5
346.055630	122
346.064144	5
346.073875	1
346.083606	1
347.052669	1
347.058776	12
347.066106	1
348.058929	1
376.069355	1
391.570607	1
394.080054	1
407.988145	1
407.999044	2
408.011501	65
408.022400	3
408.034858	1
409.014549	7
410.015027	1
419.075041	3
426.021226	4
437.045765	1
437.059575	2
437.073386	6
437.085471	152
437.099283	6
437.113095	1
437.126908	1
438.076403	1
438.088529	26
438.102388	1
439.093306	2
439.101997	3
440.105032	1
448.003586	2
455.096982	12
456.100137	2
468.031821	2
490.013230	9
491.016896	1
499.042559	1
505.978269	1
517.034606	1
517.041270	1
517.052376	42
517.067926	1
518.055631	7
519.057341	1
521.951522	6
522.955519	1
526.073850	1
528.053612	3
539.961632	1
542.068065	2
550.035322	3
581.973061	1
664.118652	1
704.184246	1
783.000976	1
783.738322	1
783.767340	2
783.788068	1
783.866842	1
783.895867	1
783.929041	1
783.953923	1
783.970511	1
783.987100	1
784.003689	1
784.028574	1
784.045165	3
784.086644	8
784.115682	29
784.148869	999
784.177910	28
784.211102	7
784.231847	1
784.244295	3
784.260893	2
784.277491	1
784.285790	1
784.302389	1
784.318989	1
784.327289	1
784.335589	1
784.360489	1
784.377091	1
784.393693	1
784.410295	1
784.530678	2
784.767373	1
785.049886	1
785.087289	2
785.120538	9
785.128851	7
785.149633	315
785.178729	9
785.216141	2
785.249399	1
785.299289	1
785.536332	1
786.098178	1
786.123163	2
786.152314	70
786.181466	2
787.156916	7
787.173606	1
788.155085	1
806.071099	1
806.097042	1
806.127310	38
806.157581	1
806.607512	1
807.131464	8
808.107113	1
808.133155	1
811.105795	3
811.607926	2
812.110524	1
822.105424	1
828.065118	4
829.069960	1
837.060560	1
838.068074	7
839.068224	2
846.077827	1
868.100739	1
874.045871	1
874.119107	1
884.071159	5
885.075204	1
1005.968137	1
1105.964258	1
1265.985290	1
1365.973638	1
