Mass spectrum: L-Homoserine; LC-ESI-ITFT; MS2; m/z:120.07; POS
Name: L-Homoserine
Name: 2-Amino-4-hydroxybutyric acid
Class: Natural Product
Formula: C4H9NO3
Exact mass: 119.05824
SMILES: OCC[C@H](N)C(O)=O
InChI: InChI=1S/C4H9NO3/c5-3(1-2-6)4(7)8/h3,6H,1-2,5H2,(H,7,8)/t3-/m0/s1
Instrument: LTQ Orbitrap XL, Thermo Scientfic
Instrument type: LC-ESI-ITFT
Ms type: MS2
Ion mode: POSITIVE
Collision energy: 35eV
Ionization: ESI
Column name: TOSOH TSKgel ODS-100V  5um Part no. 21456
Retention time: 4.668008 min
Base peak: 73.983086
Precursor m/z: 120.07
m/z	relative intensity
56.063362	6
73.983086	999
84.045105	4
101.962036	452
