Mass spectrum: Inosine; LC-ESI-ITFT; MS; NEG
Name: Inosine
Class: Natural Product
Formula: C10H12N4O5
Exact mass: 268.08077
SMILES: OC[C@@H](O1)[C@@H](O)[C@@H](O)[C@@H]1n(c3)c(N=2)c(n3)C(=O)NC2
InChI: InChI=1S/C10H12N4O5/c15-1-4-6(16)7(17)10(19-4)14-3-13-5-8(14)11-2-12-9(5)18/h2-4,6-7,10,15-17H,1H2,(H,11,12,18)/t4-,6-,7-,10-/m1/s1
Instrument: LTQ Orbitrap XL, Thermo Scientfic
Instrument type: LC-ESI-ITFT
Ms type: MS
Ion mode: NEGATIVE
Collision energy: 35eV
Ionization: ESI
Column name: TOSOH TSKgel ODS-100V  5um Part no. 21456
Retention time: 5.524938 min
Base peak: 267.073303
m/z	relative intensity
107.036515	7
108.020506	9
111.020138	1
112.985627	4
126.028815	1
126.030954	20
126.033092	1
127.034244	1
129.001496	1
134.020322	1
134.023547	1
134.028237	1
134.044655	8
134.047294	241
134.049640	9
134.052279	3
134.054332	1
134.074274	1
134.949062	1
135.003576	2
135.010688	1
135.016320	1
135.019284	1
135.020470	1
135.021655	1
135.023434	2
135.024620	2
135.027288	12
135.028473	14
135.030845	422
135.033513	16
135.035885	5
135.038256	2
135.039739	1
135.041221	1
135.042111	1
135.043297	2
135.045076	1
135.045965	1
135.050116	10
135.052192	1
135.058122	2
135.112999	1
136.027958	5
136.034253	19
136.036951	1
139.006862	3
140.046230	6
147.012168	1
147.031029	1
148.043700	15
149.046927	4
150.041981	1
176.038372	3
177.041695	4
188.038389	3
203.978487	1
248.059735	12
249.062942	1
259.022392	1
264.012736	1
266.089183	1
266.845240	2
266.967992	1
266.985299	1
266.997663	4
267.014149	1
267.016622	1
267.019919	1
267.024041	1
267.026514	1
267.029812	1
267.033109	1
267.038056	1
267.041354	1
267.044652	2
267.047950	1
267.052072	4
267.059493	8
267.066089	26
267.073511	999
267.080108	26
267.087530	9
267.093302	3
267.098251	1
267.101550	2
267.104024	1
267.107323	1
267.108972	1
267.112272	1
267.115571	1
267.118870	1
267.123819	1
267.128768	1
267.132068	1
267.143616	1
267.149391	4
267.160116	1
267.163416	1
267.301248	2
268.062481	1
268.070773	9
268.076578	105
268.084042	3
268.090676	1
269.076968	5
269.079470	2
282.066000	1
282.083901	2
302.057173	1
302.066099	31
302.074034	1
303.024537	1
303.041480	1
303.049454	19
303.054437	1
303.068392	3
304.052643	1
304.062660	8
305.046728	5
305.065854	1
306.049743	1
312.094904	4
313.078481	2
321.052027	8
322.055351	1
325.031698	1
329.084698	6
330.069287	3
335.060302	4
346.056001	1
365.040669	2
365.049893	1
366.997367	1
367.058477	1
380.082227	3
381.066914	1
382.722242	1
382.982658	2
383.015228	1
383.039305	1
383.043554	1
383.063384	1
383.077549	2
383.083215	1
383.090298	4
383.101631	14
383.112965	598
383.125716	13
383.132800	1
383.138468	4
383.146969	2
383.151220	1
383.155471	1
383.161139	1
383.166807	1
383.209322	1
383.243339	2
383.504287	1
384.095239	1
384.103772	2
384.116573	86
384.123684	1
384.129374	2
385.097000	1
385.109850	22
385.116989	2
385.119845	2
386.112719	3
397.018859	1
405.095683	5
406.103453	1
413.062817	1
415.140461	21
416.123416	1
416.142661	2
419.090074	3
421.087684	1
426.021680	1
437.034157	2
438.106331	1
445.041338	1
446.109306	1
451.101503	1
453.077411	1
470.043661	1
470.103352	1
478.051965	1
481.081751	1
483.037399	1
504.939683	1
506.045492	1
516.050374	1
516.107964	1
529.946008	1
534.170591	33
534.189251	1
535.116506	1
535.135216	3
535.153927	164
535.172639	6
535.196030	1
536.135290	1
536.156399	31
536.168127	1
536.177509	1
537.159339	3
538.162737	1
550.165095	1
556.122854	4
557.135154	7
558.127801	1
558.140257	1
559.110613	1
569.162688	1
570.146511	1
571.130308	4
572.134752	1
573.128887	1
581.157558	1
586.085490	1
588.066145	1
589.072395	1
619.094882	1
619.153092	1
650.211355	9
651.167803	2
651.196058	104
651.211756	2
651.218036	1
651.224315	1
651.249434	1
652.198734	23
653.187957	2
653.200573	3
654.192077	1
673.177387	6
674.178359	1
675.151735	1
695.112047	2
696.110305	1
704.107296	1
705.110851	1
705.117926	1
727.139128	1
728.121810	1
738.127356	1
767.236544	18
768.237279	4
769.227880	1
789.218765	2
791.195428	1
801.268156	1
802.250361	3
803.199967	1
803.234373	38
803.260180	1
804.237433	10
805.242373	2
820.150228	1
821.154029	1
825.214593	1
826.223222	1
839.211413	1
854.166060	1
918.293808	1
919.277738	26
920.279072	9
921.282044	1
941.259647	1
942.258869	1
1005.975106	1
1035.313550	2
1036.321284	1
1070.327176	1
1071.313596	6
1072.314649	3
1073.317106	1
1105.972212	1
1165.992668	1
1187.359099	2
1188.364625	1
1265.986389	2
1266.991201	1
1339.395145	1
1340.405179	1
1365.974789	1
1433.968063	1
1455.442672	1
1465.979488	1
