Mass spectrum: Creatine; LC-ESI-ITFT; MS2; m/z:263.15; POS
Name: Creatine
Name: alpha-Methylguanidino acetic acid
Name: Methylglycocyamine
Class: Natural Product
Formula: C4H9N3O2
Exact mass: 131.06948
SMILES: OC(=O)CN(C)C(N)=N
InChI: InChI=1S/C4H9N3O2/c1-7(4(5)6)2-3(8)9/h2H2,1H3,(H3,5,6)(H,8,9)
Instrument: LTQ Orbitrap XL, Thermo Scientfic
Instrument type: LC-ESI-ITFT
Ms type: MS2
Ion mode: POSITIVE
Collision energy: 35eV
Ionization: ESI
Column name: TOSOH TSKgel ODS-100V  5um Part no. 21456
Retention time: 5.023170 min
Base peak: 131.972305
Precursor m/z: 263.15
m/z	relative intensity
90.108292	10
131.972305	999
244.992249	2
