Mass spectrum: Taurine; LC-ESI-ITFT; MS; POS
Name: Taurine
Name: 2-Aminoethanesulfonic acid
Name: Aminoethylsulfonic acid
Class: Natural Product
Formula: C2H7NO3S
Exact mass: 125.01466
SMILES: NCCS(O)(=O)=O
InChI: InChI=1S/C2H7NO3S/c3-1-2-7(4,5)6/h1-3H2,(H,4,5,6)
Instrument: LTQ Orbitrap XL, Thermo Scientfic
Instrument type: LC-ESI-ITFT
Ms type: MS
Ion mode: POSITIVE
Collision energy: 35eV
Ionization: ESI
Column name: TOSOH TSKgel ODS-100V  5um Part no. 21456
Retention time: 4.774090 min
Base peak: 132.065445
m/z	relative intensity
100.112037	1
102.054776	12
110.019964	1
116.034302	1
120.042765	1
120.054193	1
120.060405	1
120.061896	1
120.063884	4
120.065623	247
120.067363	5
120.069351	1
120.070345	1
120.088240	1
121.068844	8
122.069659	1
123.514544	1
125.997433	1
126.018006	1
126.020143	2
126.022014	131
126.024152	2
126.026022	1
126.046602	1
127.025222	1
128.017746	4
131.501409	5
131.626255	1
131.918542	1
131.986395	1
131.989545	1
132.016473	1
132.027361	1
132.039110	5
132.041116	1
132.041976	1
132.042549	1
132.045129	1
132.046275	1
132.047995	1
132.049714	1
132.050861	1
132.052581	2
132.054300	1
132.054874	1
132.055447	1
132.057167	1
132.058313	2
132.059460	2
132.061180	5
132.063473	16
132.065480	999
132.067773	18
132.069780	5
132.070927	4
132.072073	2
132.073794	2
132.074940	1
132.076087	1
132.077234	1
132.078954	2
132.080675	1
132.082682	1
132.085262	1
132.088703	1
132.091857	5
132.114514	1
132.141480	1
132.144636	2
132.212377	1
132.224150	1
132.506906	1
133.060649	6
133.066158	1
133.068477	47
133.070797	1
134.044535	24
134.046587	1
134.069162	3
137.132305	1
141.958171	1
143.048389	1
148.003496	2
149.023248	3
155.142891	1
158.002552	2
163.132671	2
170.096285	1
171.149125	27
172.152025	1
173.494363	1
174.127584	9
179.063200	1
182.984796	1
186.955984	1
187.126060	3
199.179842	3
223.063237	6
224.062720	1
233.173966	1
237.011099	1
245.075039	1
245.080111	75
245.085909	1
246.083265	3
247.074984	1
251.037045	33
253.031482	1
257.075197	1
257.080647	105
257.086875	1
258.074644	1
258.082475	4
259.059453	11
259.075206	2
263.123308	7
279.157671	1
282.220291	1
302.206154	1
320.998471	1
370.094182	6
376.050047	3
382.094411	8
384.072887	1
384.088527	1
391.284356	25
392.286254	4
426.355027	1
436.339497	1
495.107749	9
497.103074	1
501.064400	1
507.107633	16
508.112119	1
509.087047	2
509.102235	1
510.339056	1
513.151063	1
522.340752	13
523.343371	2
620.121606	2
632.123772	3
634.115745	1
745.138630	1
757.137927	2
882.153061	1
1007.166820	1
