Mass spectrum: Cytosine; LC-ESI-ITFT; MS; POS
Name: Cytosine
Class: Natural Product
Formula: C4H5N3O
Exact mass: 111.04326
SMILES: NC(C=1)=NC(=O)NC1
InChI: InChI=1S/C4H5N3O/c5-3-1-2-6-4(8)7-3/h1-2H,(H3,5,6,7,8)
Instrument: LTQ Orbitrap XL, Thermo Scientfic
Instrument type: LC-ESI-ITFT
Ms type: MS
Ion mode: POSITIVE
Collision energy: 35eV
Ionization: ESI
Column name: TOSOH TSKgel ODS-100V  5um Part no. 21456
Retention time: 4.713093 min
Base peak: 112.050461
m/z	relative intensity
104.070460	14
106.049850	8
111.707055	1
111.926817	1
111.934869	1
111.988574	2
111.991260	1
112.011858	1
112.027310	1
112.029997	7
112.032237	1
112.035373	1
112.036717	1
112.038509	1
112.039181	1
112.040077	1
112.040749	1
112.042541	1
112.043437	1
112.044333	2
112.044781	2
112.045677	2
112.046573	7
112.048365	11
112.049038	9
112.050382	999
112.052398	14
112.054190	7
112.055759	2
112.056207	2
112.056879	1
112.057551	1
112.057999	1
112.059792	1
112.060688	1
112.061584	1
112.062257	1
112.062929	1
112.063825	1
112.064721	1
112.065842	1
112.068307	1
112.070996	7
112.072789	1
112.073909	1
112.088926	1
112.112465	2
112.166298	1
112.174376	1
112.395294	1
113.047219	6
113.053577	38
113.055393	1
114.054198	1
171.148702	1
200.150257	1
201.098152	4
215.070166	8
215.114259	10
222.129822	1
222.769030	1
222.919833	1
222.985228	1
223.036181	4
223.066384	1
223.071418	1
223.074565	1
223.076453	1
223.078341	1
223.080229	1
223.082746	4
223.087781	7
223.089669	6
223.093445	855
223.099110	9
223.102257	2
223.103516	4
223.108552	2
223.109811	1
223.112329	1
223.114846	1
223.119882	1
223.124919	1
223.151991	4
223.201741	1
223.267891	1
223.419201	1
224.063987	1
224.091230	12
224.096299	66
224.101369	1
225.097638	2
231.063854	4
237.064866	7
245.075039	1
247.059580	1
253.059614	2
282.191636	1
334.136197	9
391.282894	2
459.150438	1
502.325187	3
503.328287	1
584.163963	1
600.158197	1
1320.477511	1
