Mass spectrum: L-Homocysteine; LC-ESI-ITFT; MS; POS
Name: L-Homocysteine
Name: L-2-Amino-4-mercaptobutyric acid
Class: Natural Product
Formula: C4H9NO2S
Exact mass: 135.03540
SMILES: SCC[C@H](N)C(O)=O
InChI: InChI=1S/C4H9NO2S/c5-3(1-2-8)4(6)7/h3,8H,1-2,5H2,(H,6,7)/t3-/m0/s1
Instrument: LTQ Orbitrap XL, Thermo Scientfic
Instrument type: LC-ESI-ITFT
Ms type: MS
Ion mode: POSITIVE
Collision energy: 35eV
Ionization: ESI
Column name: TOSOH TSKgel ODS-100V  5um Part no. 21456
Retention time: 5.475585 min
Base peak: 136.042648
m/z	relative intensity
100.112037	1
102.091202	1
112.023726	1
112.032013	5
118.027903	1
118.030083	2
118.032020	96
118.033716	1
118.034442	1
119.035317	2
120.027612	2
133.072246	11
134.027535	1
135.035521	28
135.537822	1
135.583435	1
135.889906	1
135.959948	1
135.991695	1
136.015062	4
136.024950	1
136.026149	1
136.027947	1
136.029146	2
136.030344	1
136.031543	1
136.032742	1
136.033341	1
136.034540	2
136.036338	3
136.037537	6
136.040234	16
136.042632	999
136.045329	14
136.046528	3
136.047428	5
136.048327	4
136.049526	2
136.050425	2
136.051324	1
136.053123	1
136.054322	1
136.056120	2
136.058518	1
136.060916	1
136.065713	1
136.067512	1
136.070210	4
136.093598	1
136.122091	1
136.125391	2
136.195616	1
136.504165	1
137.039535	1
137.041656	3
137.043172	1
137.045596	47
137.048626	1
138.038246	36
138.045905	2
139.049773	5
145.097007	1
146.092154	1
148.039893	1
148.042615	78
148.044997	1
148.045677	1
149.022904	1
149.045586	2
150.038300	1
158.096003	1
158.153466	1
163.132671	1
169.035695	5
171.149125	18
172.152025	1
172.976690	1
174.127584	6
179.063653	1
182.984796	2
187.126060	2
193.067867	1
194.117473	17
195.120051	1
199.179842	1
222.112313	5
224.127985	6
233.173966	1
268.986139	1
269.048646	1
269.056148	2
269.062817	176
269.068653	1
269.070320	2
269.076156	1
269.078657	1
269.139528	1
270.065138	11
271.057897	10
272.080722	2
298.167667	1
299.072194	1
324.058560	8
330.058768	2
391.282894	6
392.286254	1
404.024099	1
459.092834	1
526.318429	3
527.321092	1
537.114404	1
592.111372	1
