Mass spectrum: NADP+; LC-ESI-ITFT; MS; POS
Name: NADP+
Name: NADP
Name: Nicotinamide adenine dinucleotide phosphate
Name: beta-Nicotinamide adenine dinucleotide phosphate
Name: TPN
Name: Triphosphopyridine nucleotide
Class: Natural Product
Formula: [C21H29N7O17P3]+
Exact mass: 744.08328
SMILES: NC(=O)c(c5)c[n+1](cc5)[C@H](O1)[C@H](O)[C@H](O)[C@@H](COP(O)(=O)OP(O)(=O)OC[C@@H](O2)[C@@H](O)[C@@H](OP(O)(O)=O)[C@@H]2n(c3)c(n4)c(c(N)nc4)n3)1
InChI: InChI=1S/C21H28N7O17P3/c22-17-12-19(25-7-24-17)28(8-26-12)21-16(44-46(33,34)35)14(30)11(43-21)6-41-48(38,39)45-47(36,37)40-5-10-13(29)15(31)20(42-10)27-3-1-2-9(4-27)18(23)32/h1-4,7-8,10-11,13-16,20-21,29-31H,5-6H2,(H7-,22,23,24,25,32,33,34,35,36,37,38,39)/p+1/t10-,11-,13-,14-,15-,16-,20-,21-/m1/s1
Instrument: LTQ Orbitrap XL, Thermo Scientfic
Instrument type: LC-ESI-ITFT
Ms type: MS
Ion mode: POSITIVE
Collision energy: 35eV
Ionization: ESI
Column name: TOSOH TSKgel ODS-100V  5um Part no. 21456
Retention time: 8.858158 min
Base peak: 372.544342
m/z	relative intensity
101.095891	1
107.069786	1
122.983953	1
123.031368	1
123.048639	1
123.050702	2
123.053022	3
123.055085	329
123.057406	3
123.058695	1
123.059468	2
123.061273	1
123.062047	1
123.078810	1
124.058233	16
129.126926	1
136.061516	11
137.132002	2
141.944115	1
143.060993	1
149.022904	3
155.142526	2
163.132278	2
167.033320	1
170.096285	2
171.137707	1
171.148702	24
172.152452	1
174.127150	8
175.130548	1
179.063653	1
184.466484	1
186.184865	1
187.125577	8
188.128987	1
190.986553	1
190.988548	1
199.179842	3
207.025717	2
220.111375	1
222.111688	17
223.063237	21
223.115476	1
224.062720	2
224.065887	1
224.127351	46
225.060006	1
225.130812	3
232.082253	1
233.173966	1
277.200773	1
282.220291	1
321.226716	1
332.455900	1
332.532626	1
332.541790	1
332.548662	1
332.552099	3
332.561263	361
332.569281	1
332.572718	2
332.575009	1
332.580737	1
332.588757	1
332.591048	1
332.666676	1
332.878799	1
333.055532	1
333.062421	95
333.069309	1
333.563562	12
334.064681	1
335.062205	1
348.069074	19
349.072120	1
359.520650	1
363.539153	10
364.041115	2
364.064731	1
370.466978	1
372.169860	1
372.310940	1
372.419517	2
372.480613	1
372.491476	1
372.496907	1
372.502339	1
372.510487	2
372.521351	4
372.525426	1
372.529500	2
372.533574	7
372.544440	999
372.556664	6
372.562097	2
372.566172	3
372.579755	2
372.589264	1
372.594698	1
372.605566	1
372.621869	1
372.669425	2
372.776800	1
372.919585	1
373.021625	1
373.029790	1
373.033872	2
373.044759	246
373.054286	1
373.058369	1
373.063813	1
373.067896	1
373.077424	1
373.169997	1
373.242173	1
373.536542	1
373.546088	58
374.047061	5
374.547674	1
374.639425	1
384.522547	1
391.282894	20
392.286254	3
399.503544	1
403.507659	1
404.024099	1
426.356690	1
427.376183	1
428.034459	17
429.038156	1
436.527212	1
475.379199	1
504.375045	1
507.999642	3
515.029099	1
524.015653	1
524.056439	2
527.696398	1
528.200487	1
542.067198	6
543.067409	1
560.077597	13
561.080393	2
567.680033	1
568.183659	1
574.095293	1
577.962665	1
598.036557	1
598.539634	1
603.986637	1
604.023088	5
622.001397	1
622.033630	7
623.037019	1
638.021489	5
638.521005	2
663.818596	1
664.002773	1
664.031861	1
664.057718	1
664.070648	1
664.077112	1
664.090042	3
664.115903	587
664.135299	3
664.144998	3
664.157930	1
664.167629	1
664.183794	1
664.190261	1
664.196727	1
664.203194	1
664.413410	1
664.614016	7
665.119170	131
666.118218	21
666.134455	1
667.122773	3
669.109288	1
673.372994	1
673.703166	1
678.004258	1
704.068896	1
704.097127	73
704.598506	32
705.100421	10
705.602873	4
715.089848	1
716.076924	2
731.557555	1
738.225474	1
743.726797	1
743.929884	1
743.960546	1
743.968212	1
743.983544	1
743.998876	1
744.014209	3
744.029542	1
744.037209	3
744.048710	5
744.079379	928
744.106216	4
744.117718	5
744.133055	2
744.144557	2
744.163729	1
744.171398	1
744.179067	1
744.186736	1
744.209744	1
744.221249	1
744.232754	1
744.436048	2
744.581857	158
744.608722	1
744.616398	1
745.015702	1
745.054114	1
745.084845	207
745.119420	1
745.584497	13
746.053859	1
746.084652	33
746.585310	1
747.086473	3
748.090312	1
750.007070	1
752.067534	1
752.398775	1
755.068362	1
755.570246	1
756.060850	2
756.559793	1
757.063165	1
762.053105	1
763.051438	1
771.036410	1
771.542157	1
772.040298	1
775.043375	1
775.544911	1
859.768657	1
860.102079	1
877.627412	1
886.424610	1
886.758695	1
911.806957	1
912.139885	1
912.806288	1
917.612375	2
918.111359	1
918.616009	1
938.463652	9
938.794988	13
939.131935	6
939.463625	4
939.795490	1
946.123499	1
946.447901	1
957.594381	2
958.098326	1
965.116244	13
965.450463	13
965.784856	10
966.119423	3
966.454163	2
966.783400	1
969.571608	1
970.079332	1
973.438039	1
973.770851	1
983.089455	1
983.421404	1
983.631143	1
984.132457	1
985.755609	1
991.775081	22
992.105537	27
992.442063	19
992.772853	9
993.109719	4
993.446756	1
995.668393	1
999.763780	1
1000.092263	1
1000.426885	1
1009.555832	2
1010.058907	1
1023.612130	1
1024.119560	1
1024.621172	1
1035.656098	9
1036.153611	8
1036.657786	4
1037.156021	2
1056.144377	1
1075.632353	39
1075.885605	2
1076.138947	30
1076.385708	1
1076.639226	14
1077.139854	4
1077.640831	1
1078.142158	1
1081.137335	1
1081.473142	1
1081.809105	1
1088.622440	1
1095.630485	1
1095.877128	2
1096.130709	2
1096.377521	4
1096.631276	1
1107.466501	1
1107.793756	1
1115.621225	51
1115.670496	1
1115.867609	2
1116.121118	41
1116.374713	2
1116.621346	19
1116.656586	1
1117.121911	6
1117.622812	1
1124.813451	1
1132.851130	1
1133.175292	1
1133.506801	1
1159.498889	4
1159.834556	4
1160.162905	2
1160.498861	1
1160.834963	1
1178.133496	1
1186.156116	7
1186.487988	13
1186.819998	7
1187.159874	5
1187.492166	2
1187.824598	1
1208.877888	1
1212.809362	12
1213.144501	15
1213.479779	10
1213.815196	6
1214.142761	4
1214.478453	1
1221.132971	1
1221.681243	1
1221.923246	1
1222.173390	1
1239.464013	7
1239.802016	7
1240.131908	4
1240.470185	3
1240.800344	1
1241.411486	2
1241.659374	2
1241.915604	2
1242.171913	1
1242.420030	1
1242.668221	1
1242.916486	1
1247.780895	1
1261.403539	1
1261.665905	1
1261.902952	3
1262.157004	3
1262.411132	2
1262.648389	1
1281.397121	2
1281.648416	3
1281.899785	4
1282.151229	3
1282.402746	3
1282.654337	1
1282.906002	1
1291.568258	1
1295.135212	1
1301.390866	1
1301.639196	2
1301.887596	1
1302.144944	1
1302.393489	1
1302.642106	1
1306.754583	1
1327.228365	1
1355.491129	1
1380.868871	1
1381.537880	1
1381.809501	1
1407.195330	5
1407.444632	1
1407.524423	2
1407.694001	2
1407.853631	2
1408.192937	3
1408.702125	1
1416.453754	1
1423.792480	1
1427.432315	1
1427.687015	1
1427.941783	2
1428.186424	1
1428.441325	1
1428.941130	1
1433.851080	2
1434.179310	3
1434.517914	4
1434.753983	1
1434.846373	1
1435.174944	1
1439.786817	1
1441.180915	1
1447.172670	4
1447.422271	2
1447.682339	5
1447.932071	1
1448.171459	4
1448.421317	1
1448.681655	1
1455.171047	1
1455.580048	1
1455.968234	1
1460.512079	1
1460.838960	3
1461.176500	3
1461.503604	1
1461.841374	1
1467.166130	1
1467.420921	1
1467.675778	1
1467.920078	1
1468.175066	1
1468.419491	1
1487.154241	5
1487.403421	1
1487.490107	2
1487.663501	3
1487.826087	1
1487.912809	1
1488.162180	4
1488.661110	1
1489.160290	1
