Mass spectrum: D-2-Aminobutyric acid; LC-ESI-ITFT; MS; POS
Name: D-2-Aminobutyrate
Name: D-2-Aminobutyric acid
Name: D-2-Aminobutanoic acid
Name: (R)-2-Aminobutanoic acid
Class: Natural Product
Formula: C4H9NO2
Exact mass: 103.06333
SMILES: CCC(N)C(O)=O
InChI: InChI=1S/C4H9NO2/c1-2-3(5)4(6)7/h3H,2,5H2,1H3,(H,6,7)/t3-/m1/s1
Instrument: LTQ Orbitrap XL, Thermo Scientfic
Instrument type: LC-ESI-ITFT
Ms type: MS
Ion mode: POSITIVE
Collision energy: 35eV
Ionization: ESI
Column name: TOSOH TSKgel ODS-100V  5um Part no. 21456
Retention time: 5.032865 min
Base peak: 104.070274
m/z	relative intensity
100.021282	1
100.111848	3
102.033748	2
102.054971	6
103.762922	1
103.967462	1
104.014934	2
104.035976	1
104.051812	5
104.054820	1
104.056825	1
104.058028	1
104.059632	1
104.060233	1
104.061236	2
104.062038	1
104.063241	2
104.065045	4
104.066850	6
104.068655	16
104.070259	999
104.072064	17
104.073869	6
104.075674	3
104.076476	1
104.077077	1
104.078080	1
104.079083	1
104.079685	1
104.080487	1
104.081289	1
104.082292	1
104.082894	1
104.084097	1
104.088710	5
104.104559	1
104.125829	2
104.173209	1
104.378963	1
104.999897	6
105.066993	1
105.073503	30
105.075538	1
106.073989	1
110.019528	1
121.636727	1
121.896108	1
121.956376	1
121.983092	1
122.003198	4
122.009561	1
122.011343	1
122.013889	1
122.015416	1
122.016435	1
122.017199	1
122.017962	1
122.018726	1
122.019490	2
122.020254	3
122.022290	5
122.024582	13
122.026873	804
122.029165	13
122.031202	5
122.033493	3
122.034767	1
122.035276	1
122.035785	1
122.036804	1
122.037822	1
122.038841	1
122.039859	1
122.041897	1
122.050046	4
122.070424	1
122.097177	1
122.157594	1
122.418644	1
123.023377	1
123.025697	2
123.027243	1
123.029821	18
124.022485	31
124.030312	1
133.060359	5
134.044242	1
137.132002	1
141.958171	3
149.022904	6
155.142161	1
156.076374	1
158.002552	9
158.095628	1
158.960868	1
163.132278	1
170.095866	1
171.149125	39
171.152932	1
172.152025	1
174.127150	11
179.062747	1
182.984328	6
186.183905	1
186.955501	1
187.125577	7
188.128987	1
199.179842	3
216.971817	1
223.062608	2
233.173293	1
254.158888	1
266.194902	3
279.157671	1
296.964457	1
336.236491	1
380.262808	1
391.271198	1
391.282894	37
392.286254	5
399.141807	1
436.339497	2
494.347027	24
495.349218	5
512.300207	1
