Mass spectrum: AMP; LC-ESI-ITFT; MS; NEG
Name: AMP
Name: Adenosine 5'-monophosphate
Name: Adenylic acid
Name: Adenylate
Name: 5'-AMP
Name: 5'-Adenylic acid
Name: 5'-Adenosine monophosphate
Name: Adenosine 5'-phosphate
Class: Natural Product
Formula: C10H14N5O7P
Exact mass: 347.06308
SMILES: Nc(n3)c(n2)c(nc3)n(c2)[C@H](O1)[C@H](O)[C@H](O)[C@@H](COP(O)(O)=O)1
InChI: InChI=1S/C10H14N5O7P/c11-8-5-9(13-2-12-8)15(3-14-5)10-7(17)6(16)4(22-10)1-21-23(18,19)20/h2-4,6-7,10,16-17H,1H2,(H2,11,12,13)(H2,18,19,20)/t4-,6-,7-,10-/m1/s1
Instrument: LTQ Orbitrap XL, Thermo Scientfic
Instrument type: LC-ESI-ITFT
Ms type: MS
Ion mode: NEGATIVE
Collision energy: 35eV
Ionization: ESI
Column name: TOSOH TSKgel ODS-100V  5um Part no. 21456
Retention time: 8.867760 min
Base peak: 346.054749
m/z	relative intensity
107.036402	2
112.676424	1
128.035194	9
134.041291	1
134.042464	1
134.044809	2
134.047448	65
134.049794	2
134.052140	1
135.044936	1
135.050273	2
138.980092	7
141.066759	1
143.043558	1
143.046144	19
145.061542	1
146.045563	2
150.041817	1
150.979901	15
153.066748	2
155.082528	1
160.007336	4
162.979942	1
166.098428	1
167.046013	1
169.061569	2
175.017982	1
177.033487	3
179.045981	2
181.061683	1
184.108595	1
185.056175	1
192.990400	8
196.061192	3
197.056138	3
198.088171	1
199.072070	1
203.049089	3
210.087874	5
210.991140	1
210.996351	1
211.000984	22
212.004015	1
226.082744	1
228.098657	2
242.078035	1
254.077796	8
260.087862	1
272.075204	1
272.081987	1
272.084531	1
272.088771	66
272.095554	1
272.103186	1
273.091260	6
274.092442	1
276.017801	1
280.859527	1
288.065929	4
294.028071	1
304.052330	1
304.060343	27
305.063527	2
305.982676	1
306.051451	1
306.060555	3
306.068648	5
306.076742	240
306.084835	5
306.093941	3
306.097988	1
306.102035	1
306.106083	1
306.169838	1
307.072645	1
307.079762	21
308.071374	8
308.079547	1
309.074984	1
338.048474	16
339.052363	1
340.044144	1
345.718976	2
345.942547	3
345.955920	1
345.972940	1
345.982667	1
345.986315	1
345.992394	1
345.997258	1
346.004554	1
346.008202	1
346.014282	1
346.016714	1
346.024010	4
346.034955	11
346.044684	20
346.054414	999
346.064144	19
346.075091	11
346.079956	3
346.086038	3
346.089688	2
346.096986	2
346.100636	1
346.103069	1
346.106718	1
346.110368	1
346.115234	1
346.118884	1
346.123750	1
346.134700	1
346.138350	1
346.152950	1
346.167552	3
346.391558	2
347.039232	1
347.047783	2
347.057555	97
347.067327	2
347.078322	1
348.058929	8
349.062180	1
360.069901	1
378.896017	3
426.021226	4
444.022662	14
445.026650	1
445.980659	1
480.981529	2
482.101522	2
489.992737	1
497.106255	1
504.939125	12
505.943866	1
513.952153	7
514.955225	1
522.951000	3
529.945447	6
530.949493	1
531.963350	1
543.087646	1
543.104385	1
543.123515	63
543.142647	1
543.166563	1
544.126893	10
545.130649	1
547.957442	2
554.123179	2
559.957722	1
593.136362	2
610.355132	1
610.879665	2
610.953838	1
610.999490	1
611.010904	1
611.028025	1
611.033732	1
611.048001	1
611.056562	1
611.073685	2
611.099371	7
611.122205	13
611.145040	870
611.167876	12
611.193568	7
611.204987	2
611.216406	2
611.227826	1
611.244956	1
611.250667	1
611.273509	1
611.307774	1
611.407731	2
611.882146	1
611.936481	1
612.073783	1
612.102393	2
612.125283	3
612.148174	220
612.171066	3
612.196821	2
612.411512	1
613.116491	1
613.139437	55
613.150911	11
613.159517	2
614.141737	8
614.153239	1
615.132084	1
615.143614	1
633.126035	3
653.139980	1
665.063834	1
692.797297	1
693.031628	1
693.062651	4
693.090229	8
693.100571	6
693.117809	530
693.145390	7
693.176421	4
693.190213	1
693.200558	1
693.217799	1
693.238489	1
693.435093	1
694.066861	1
694.094499	2
694.122139	119
694.149780	1
694.180878	1
695.121728	17
696.126948	2
702.007484	1
707.134352	1
709.110211	9
710.113761	1
711.105112	1
715.098572	2
717.075278	1
737.036659	1
852.004491	3
853.006165	1
861.016708	2
877.007017	1
890.186408	2
958.066424	1
958.116849	2
958.161676	4
958.178487	2
958.206506	264
958.251338	3
958.284965	1
958.301779	2
958.324198	1
958.722272	1
959.120594	1
959.165491	1
959.182328	1
959.210391	88
959.255294	1
959.305814	1
960.210233	15
961.206009	4
962.208973	1
980.191966	1
999.698276	1
1040.182171	29
1041.184329	9
1042.181579	2
1090.758957	1
1117.089212	1
1126.109054	1
1131.734605	2
1132.238292	2
1132.742316	1
1133.253884	1
1142.091331	1
1172.722905	1
1173.223835	1
1199.054058	1
1223.293830	2
1224.304889	1
1264.777694	1
1265.279231	1
1305.266298	9
1305.765369	1
1306.273647	6
1306.782221	1
1307.273232	2
1308.265024	1
1387.250672	3
1388.246921	1
1389.254026	1
1437.811504	1
1438.306051	1
1438.831787	1
1478.787093	1
1479.292183	1
1479.808287	1
