Mass spectrum: Cytosine; LC-ESI-ITFT; MS; POS
Name: Cytosine
Class: Natural Product
Formula: C4H5N3O
Exact mass: 111.04326
SMILES: NC(C=1)=NC(=O)NC1
InChI: InChI=1S/C4H5N3O/c5-3-1-2-6-4(8)7-3/h1-2H,(H3,5,6,7,8)
Instrument: LTQ Orbitrap XL, Thermo Scientfic
Instrument type: LC-ESI-ITFT
Ms type: MS
Ion mode: POSITIVE
Collision energy: 35eV
Ionization: ESI
Column name: TOSOH TSKgel ODS-100V  5um Part no. 21456
Retention time: 4.586602 min
Base peak: 112.050308
m/z	relative intensity
100.111848	3
102.012921	1
102.033553	5
111.707055	1
111.936659	1
111.988350	2
112.012305	1
112.029549	3
112.030445	1
112.032237	1
112.037165	1
112.038061	1
112.038957	1
112.039629	1
112.040301	1
112.041197	1
112.042541	2
112.043661	1
112.044781	3
112.046797	8
112.047693	2
112.048589	16
112.050382	999
112.052174	15
112.053966	6
112.055535	3
112.056431	1
112.057327	2
112.057999	1
112.058672	1
112.059120	1
112.060016	1
112.060464	1
112.061360	1
112.062257	1
112.063153	1
112.064945	1
112.067186	1
112.068083	1
112.069427	1
112.070996	3
112.088253	1
112.112241	2
112.164054	1
112.174152	1
112.395294	1
113.046992	3
113.051533	1
113.053350	33
114.053968	1
130.007488	3
134.031931	1
134.986629	2
137.132305	1
139.981695	1
141.958171	2
143.039341	1
149.022904	1
152.997300	1
155.142526	1
157.999551	1
158.002552	50
158.005554	1
158.095628	1
158.960868	1
159.005926	1
163.132278	1
170.095866	1
171.149125	19
172.152025	1
174.127584	8
176.012896	2
179.063200	1
182.984796	3
186.955501	1
187.126060	3
190.978577	1
190.992536	1
199.028604	3
199.179842	2
223.063867	1
223.083375	1
223.088410	1
223.093445	171
223.098481	2
223.102257	1
223.104146	1
224.089963	2
224.096299	10
245.075039	1
262.996783	1
282.191636	4
391.282894	10
392.286254	2
502.325187	4
503.328287	1
