Mass spectrum: L-Citrulline; LC-ESI-ITFT; MS2; m/z:351.20; POS
Name: L-Citrulline
Name: 2-Amino-5-ureidovaleric acid
Name: Citrulline
Class: Natural Product
Formula: C6H13N3O3
Exact mass: 175.09569
SMILES: NC(=O)NCCC[C@H](N)C(O)=O
InChI: InChI=1S/C6H13N3O3/c7-4(5(10)11)2-1-3-9-6(8)12/h4H,1-3,7H2,(H,10,11)(H3,8,9,12)/t4-/m0/s1
Instrument: LTQ Orbitrap XL, Thermo Scientfic
Instrument type: LC-ESI-ITFT
Ms type: MS2
Ion mode: POSITIVE
Collision energy: 35eV
Ionization: ESI
Column name: TOSOH TSKgel ODS-100V  5um Part no. 21456
Retention time: 4.868695 min
Base peak: 176.099274
Precursor m/z: 351.20
m/z	relative intensity
113.178055	3
114.162033	1
115.110176	8
116.089241	1
140.915909	1
158.127655	3
159.185181	149
176.099274	999
