Mass spectrum: Phosphoenolpyruvic acid; LC-ESI-ITFT; MS; NEG
Name: Phosphoenolpyruvate
Name: Phosphoenolpyruvic acid
Name: PEP
Class: Natural Product
Formula: C3H5O6P
Exact mass: 167.98237
SMILES: C=C(C(O)=O)OP(O)(O)=O
InChI: InChI=1S/C3H5O6P/c1-2(3(4)5)9-10(6,7)8/h1H2,(H,4,5)(H2,6,7,8)
Instrument: LTQ Orbitrap XL, Thermo Scientfic
Instrument type: LC-ESI-ITFT
Ms type: MS
Ion mode: NEGATIVE
Collision energy: 35eV
Ionization: ESI
Column name: TOSOH TSKgel ODS-100V  5um Part no. 21456
Retention time: 7.034992 min
Base peak: 275.017029
m/z	relative intensity
100.233195	1
100.990901	1
101.841061	1
102.116761	1
102.175860	1
102.964428	1
103.353801	1
103.911690	1
103.920096	1
104.993731	1
105.452354	1
106.006721	1
106.580437	1
106.583971	1
107.991261	1
108.361769	1
108.558956	1
109.186732	1
110.023987	1
110.985469	1
111.634218	1
112.517648	1
114.465815	1
114.951389	4
115.720836	1
116.167338	1
118.016252	1
120.946090	1
121.954021	1
122.535978	1
122.705548	1
123.149992	1
123.248683	1
123.702061	1
125.319479	1
126.227144	1
126.299518	1
128.525880	1
129.018959	7
130.853762	1
132.115912	1
133.363815	1
133.416498	1
134.047025	6
138.974691	1
138.979953	30
144.447407	1
144.753913	1
145.890482	2
148.964139	9
149.358570	1
150.665844	1
150.979747	1
152.071460	1
152.251605	1
152.809310	1
152.894641	1
152.917146	2
152.988981	1
154.733043	1
156.098774	1
156.938943	3
158.925159	5
159.029304	4
160.911907	2
161.665775	1
163.080842	1
165.035663	1
165.593854	1
165.911959	1
166.919859	2
166.937381	2
166.961018	1
166.963872	3
166.967948	7
166.971616	15
166.974877	615
166.978546	18
166.982215	9
166.985884	3
166.994446	1
167.012794	3
167.978097	11
168.792997	1
168.889574	8
168.899112	1
168.978764	7
168.990385	5
169.019026	1
169.457029	1
171.997072	1
173.048973	1
174.101004	1
174.601195	1
174.927694	4
175.318248	1
175.492931	1
176.897171	8
176.904284	1
176.906951	3
176.926068	31
176.995449	2
177.036386	1
177.037276	1
177.039946	51
177.043951	2
177.047957	1
178.043327	2
178.443016	1
179.422490	1
179.562423	1
179.880607	1
180.665325	1
180.906431	2
180.948271	1
180.990127	1
181.352251	1
181.699266	1
181.865038	1
182.753311	1
184.374832	2
185.399326	1
185.892031	2
185.901609	1
193.345186	1
193.482400	1
194.880079	1
194.917606	2
194.922747	6
194.926860	216
194.931488	5
194.936116	2
194.962858	1
195.005553	1
195.050321	14
195.926125	1
196.561340	1
196.922651	16
196.931004	4
198.907903	15
198.922744	1
198.982124	2
199.000686	24
200.906649	1
201.997319	1
202.157966	1
202.695567	1
202.922567	2
203.959807	1
204.073772	1
204.082585	1
206.688987	1
208.395492	1
208.933075	1
208.942775	10
210.195170	1
212.024677	1
213.016228	1
216.699806	1
216.898225	3
216.903054	2
216.908485	71
216.913918	1
218.642566	1
218.884646	5
218.904838	5
220.697646	1
226.975157	1
227.226034	1
227.983117	2
228.505605	1
228.875424	4
228.901594	2
229.011556	2
230.142585	1
231.934631	1
232.873086	2
232.883158	7
233.901708	1
234.338243	1
234.792313	1
236.895790	1
237.896434	3
238.904129	24
238.907617	1
238.995547	6
240.961435	1
242.858697	2
243.696027	1
244.860960	1
244.932642	3
244.950025	1
245.868112	4
245.916192	1
245.993441	2
246.876361	1
246.885888	2
246.912275	14
246.940865	3
247.838478	2
247.848062	1
248.845534	6
248.855176	6
248.864818	1
249.629820	1
254.892665	1
255.792280	1
256.014252	2
256.852918	1
256.870807	2
256.993745	3
256.999194	3
257.006200	174
257.012427	4
257.016320	1
257.019433	2
258.009405	8
258.868132	1
259.010620	2
260.811636	1
262.413720	1
264.867469	1
264.878056	1
264.920414	1
264.927746	4
264.935078	9
264.942411	482
264.948929	11
264.956262	4
264.963596	1
265.017384	2
265.940860	2
265.944956	10
266.323918	1
266.937547	16
266.945787	6
266.957324	4
268.922808	2
268.941972	1
269.360766	1
272.956090	2
273.798107	1
274.779084	1
274.937494	3
274.952137	1
274.988318	3
274.993487	4
274.996933	2
275.002103	9
275.008996	20
275.016751	999
275.024506	22
275.032261	10
275.040017	3
275.077077	1
275.096903	3
275.255588	2
276.019884	49
277.020676	10
277.024161	2
278.024294	1
278.947975	1
280.872332	2
282.906551	1
285.099324	1
286.736137	1
286.910509	1
286.923364	34
288.899438	6
288.908716	4
288.918922	1
288.947686	1
289.008013	2
289.015440	5
289.024723	12
289.033078	524
289.040505	11
289.048861	5
289.058146	2
289.118507	2
289.429902	1
289.980485	1
290.035537	28
290.039270	2
291.035716	6
292.893439	2
296.997916	8
298.907252	3
298.974632	2
300.003774	5
300.859706	7
301.031332	1
302.888112	3
302.897076	1
305.430661	1
305.572908	1
306.862688	2
307.279503	1
308.858866	6
308.862968	1
308.867070	6
309.858084	2
309.867359	1
309.870450	1
310.854911	1
310.924300	2
314.875934	2
315.188633	1
316.985061	3
317.852636	5
317.863342	2
318.854972	1
318.861426	31
318.933512	11
319.919347	1
319.932320	1
319.936645	1
320.876091	1
326.868451	9
327.421823	1
328.045066	2
328.811981	1
328.935929	5
330.841103	5
330.849062	1
331.000330	3
334.949155	2
334.956104	130
334.966528	3
335.960199	7
336.240758	1
336.857822	1
336.943108	10
336.960636	2
336.972323	2
338.987934	2
339.743868	1
343.994060	30
344.269054	1
344.997932	2
345.793506	1
346.812592	9
348.850785	1
350.959164	7
354.973237	12
356.938612	7
357.201214	1
358.915216	21
358.955044	1
359.363984	1
359.918066	2
362.908857	19
364.903721	1
367.705096	1
368.998012	2
372.879846	1
372.958759	2
372.962842	2
372.971007	9
372.983255	402
372.995504	8
373.007753	4
373.977356	1
373.986921	20
374.979552	15
374.987784	8
376.954584	1
378.872798	8
378.909026	1
378.941079	3
384.890107	7
386.013882	3
386.866415	4
386.977136	1
386.985765	2
386.990080	2
386.998710	180
387.011656	3
387.867498	8
388.003195	10
388.824666	1
388.875370	5
388.995650	5
389.002898	4
389.232027	1
390.891253	7
390.980335	1
391.284319	1
391.849383	1
394.275709	1
394.965882	24
395.901832	2
395.968813	1
396.941202	3
397.803228	1
398.890736	3
398.899767	6
400.856185	2
400.895611	2
401.013926	4
401.490751	1
402.009540	6
406.826533	2
407.884347	1
407.893685	2
408.010441	7
408.821326	1
408.893175	19
408.902548	5
408.982231	18
409.013485	1
409.410730	1
409.985726	2
410.026507	3
410.929959	4
410.956715	3
412.915411	3
414.905708	2
415.820536	2
415.834955	1
416.828418	8
416.900779	18
416.912037	2
418.824435	2
418.895697	1
421.910115	1
424.907540	2
424.988636	5
425.895516	5
426.021747	32
426.903606	21
427.023617	3
428.920483	2
429.919128	3
430.916193	37
430.924643	3
431.915035	2
432.903740	1
432.912248	2
432.924161	12
437.332985	1
439.912002	3
442.350387	1
442.982086	1
442.997940	125
443.013795	2
444.001986	10
444.484929	1
445.002356	2
453.640979	1
454.906836	5
456.881993	1
456.998254	2
457.001945	1
457.014866	87
457.031479	1
457.046247	1
458.018817	7
459.018647	1
460.344415	1
461.054341	2
464.980868	5
466.957249	9
469.101704	1
470.951864	11
472.948987	1
476.839859	1
477.900009	2
478.542148	1
478.908252	3
478.997367	3
480.972194	9
481.980182	1
484.966729	5
485.835533	2
486.842620	4
486.915689	3
486.962381	1
492.932812	13
495.909206	4
496.918492	8
499.975466	1
500.931525	6
502.939246	7
506.947938	6
508.924726	1
509.830451	1
509.926161	4
511.977311	2
522.913242	3
523.987993	3
524.870627	3
526.898428	1
528.882849	3
533.029593	5
533.893226	1
533.963153	1
537.879900	1
538.885318	11
540.966431	12
547.045642	4
551.041493	48
552.044846	4
552.861782	1
552.874062	2
554.982467	14
558.898464	2
561.875936	1
562.946890	5
565.034560	1
565.057398	84
565.077700	1
565.911030	1
566.061124	10
566.190913	1
567.059872	4
573.022719	2
573.043452	2
576.963940	7
578.914288	1
578.940605	4
579.072217	82
579.095912	1
580.076577	9
581.075613	3
584.811677	2
584.883825	3
586.906737	2
587.038388	2
589.015777	3
592.967909	1
593.874651	2
594.884887	5
594.958908	2
597.903489	1
598.899105	7
599.106838	1
600.639084	1
600.906162	2
601.053687	2
603.029625	2
603.228314	1
604.916928	1
604.959094	3
607.893361	3
608.899850	6
608.973663	8
609.979991	1
610.980256	5
617.967338	1
618.975684	2
620.018584	7
622.989781	3
624.995252	7
625.597895	1
627.043053	1
631.987624	1
634.033718	1
634.936544	2
635.033282	1
636.854252	2
638.027928	3
645.014783	1
646.978366	2
647.261388	1
648.954053	3
649.007153	12
650.014168	3
654.824898	2
655.883570	1
656.483776	1
661.617357	1
662.270530	1
663.024651	22
664.025684	2
664.899400	2
665.028986	2
670.988450	3
674.929841	2
676.901926	1
677.038365	14
678.916088	3
679.046450	1
685.006033	4
686.981654	1
692.849799	1
696.864005	1
697.688440	1
699.020359	6
702.046972	1
702.926395	2
703.264532	1
706.868813	3
706.939831	3
708.946969	2
712.020403	2
716.945538	2
719.024610	4
720.955448	3
722.963848	3
725.966351	1
728.147917	2
730.958733	2
733.039104	11
733.654435	1
734.045046	2
735.045531	1
742.068353	4
742.981973	1
743.066156	2
744.944871	2
747.054416	9
748.112550	1
750.841592	1
752.866961	1
754.140894	1
755.022029	1
756.993514	2
760.991449	3
766.105670	11
766.879454	2
768.901623	1
770.026714	1
771.012689	1
775.004123	2
775.877169	2
776.882589	2
776.956233	2
782.972907	3
785.836818	1
786.957587	3
796.991745	3
806.050409	2
808.116724	63
809.120249	12
810.108219	2
810.125644	2
816.991124	3
819.015534	2
820.066056	2
830.100175	2
831.004618	10
832.981435	1
832.995062	1
841.079471	6
842.085017	1
845.019674	7
846.027648	1
852.033653	1
852.988308	3
854.741896	1
855.096097	10
856.103228	2
861.027232	3
865.950508	1
866.123852	4
869.112562	4
873.007909	1
874.173807	1
874.921404	1
888.939265	2
899.987285	1
901.023682	2
905.985271	1
906.088321	1
913.961452	1
915.037777	3
918.541105	1
925.034056	1
938.011068	1
939.048612	6
940.049759	1
953.061591	8
961.038186	1
967.083692	4
968.078800	1
974.030135	1
982.510494	1
989.047956	1
998.983138	1
1005.969235	7
1006.970641	2
1009.062721	4
1013.004506	2
1023.081163	4
1037.097140	1
1050.688538	1
1063.886402	1
1080.924348	1
1099.152449	1
1105.965432	12
1106.966746	3
1113.824532	1
1121.044025	4
1123.729407	1
1125.696261	1
1128.606095	1
1129.014515	1
1135.066361	2
1165.985321	4
1166.986407	1
1205.956640	5
1206.138642	1
1206.962121	2
1217.953304	2
1229.070887	1
1243.102501	2
1250.037395	1
1255.953397	3
1256.954705	2
1265.978062	14
1266.982865	5
1282.971940	2
1305.962819	2
1317.939253	7
1347.395570	1
1355.939238	2
1356.949159	1
1365.974981	11
1366.967491	3
1387.974689	1
1417.754032	1
1417.935590	5
1427.649086	1
1443.681423	1
1459.995886	1
1464.750333	1
1465.958479	4
1466.977026	1
1471.061846	1
1487.887337	1
