Mass spectrum: L-(-)-Threonine; LC-ESI-ITFT; MS2; m/z:120.07; POS
Name: L-Threonine
Name: 2-Amino-3-hydroxybutyric acid
Name: L-(-)-Threonine
Class: Natural Product
Formula: C4H9NO3
Exact mass: 119.05824
SMILES: [H]C(C)(O)C([H])(N)C(O)=O
InChI: InChI=1S/C4H9NO3/c1-2(6)3(5)4(7)8/h2-3,6H,5H2,1H3,(H,7,8)/t2-,3+/m1/s1
Instrument: LTQ Orbitrap XL, Thermo Scientfic
Instrument type: LC-ESI-ITFT
Ms type: MS2
Ion mode: POSITIVE
Collision energy: 35eV
Ionization: ESI
Column name: TOSOH TSKgel ODS-100V  5um Part no. 21456
Retention time: 4.729157 min
Base peak: 101.910156
Precursor m/z: 120.07
m/z	relative intensity
56.038925	19
56.954544	1
73.939743	955
75.909813	1
83.993881	6
101.910156	999
