Mass spectrum: L-Tryptophan; LC-ESI-ITFT; MS2; m/z:203.08; NEG
Name: L-Tryptophan
Name: Tryptophan
Name: (S)-alpha-Amino-beta-(3-indolyl)-propionic acid
Class: Natural Product
Formula: C11H12N2O2
Exact mass: 204.08988
SMILES: C1=CC=C2C(=C1)C(=CN2)C[C@@H](C(=O)O)N
InChI: InChI=1S/C11H12N2O2/c12-9(11(14)15)5-7-6-13-10-4-2-1-3-8(7)10/h1-4,6,9,13H,5,12H2,(H,14,15)/t9-/m0/s1
Instrument: LTQ Orbitrap XL, Thermo Scientfic
Instrument type: LC-ESI-ITFT
Ms type: MS2
Ion mode: NEGATIVE
Collision energy: 35eV
Ionization: ESI
Column name: TOSOH TSKgel ODS-100V  5um Part no. 21456
Retention time: 13.952498 min
Base peak: 159.087616
Precursor m/z: 203.08
m/z	relative intensity
72.020683	2
73.921829	22
78.871391	1
115.932159	369
128.077698	3
129.070740	1
130.046204	9
131.954742	2
141.977707	165
157.150421	5
159.087616	999
173.052353	22
185.067795	6
186.150330	90
