Mass spectrum: DOPA; LC-ESI-ITFT; MS; NEG
Name: 3,4-Dihydroxy-L-phenylalanine
Name: L-Dopa
Name: 3-Hydroxy-L-tyrosine
Name: L-beta-(3,4-Dihydroxyphenyl)alanine
Name: Levodopa
Name: Dihydroxy-L-phenylalanine
Name: DOPA
Class: Natural Product
Formula: C9H11NO4
Exact mass: 197.06881
SMILES: OC(=O)C([H])(N)Cc(c1)cc(O)c(O)c1
InChI: InChI=1S/C9H11NO4/c10-6(9(13)14)3-5-1-2-7(11)8(12)4-5/h1-2,4,6,11-12H,3,10H2,(H,13,14)/t6-/m0/s1
Instrument: LTQ Orbitrap XL, Thermo Scientfic
Instrument type: LC-ESI-ITFT
Ms type: MS
Ion mode: NEGATIVE
Collision energy: 35eV
Ionization: ESI
Column name: TOSOH TSKgel ODS-100V  5um Part no. 21456
Retention time: 5.468357 min
Base peak: 540.053894
m/z	relative intensity
107.050421	1
108.021876	1
109.027907	1
109.029627	16
109.031563	1
109.040813	4
115.003889	1
121.029416	3
122.033553	1
122.035590	1
122.037628	29
122.039920	1
123.040697	1
123.045080	4
133.009659	1
133.011978	2
133.014296	40
133.016905	2
134.017545	1
134.037186	4
134.047155	4
134.060937	2
135.037820	1
135.039302	1
135.039895	1
135.042860	2
135.045232	54
135.047604	2
135.050273	1
136.048501	3
150.056055	3
152.046464	1
152.071616	2
153.030618	1
158.925325	9
174.979931	2
176.935622	1
179.035118	12
180.038190	1
192.990906	2
196.013483	2
196.026446	1
196.028002	1
196.037854	1
196.043040	1
196.047708	2
196.052375	5
196.057043	15
196.061192	418
196.065342	15
196.070010	5
196.074160	2
196.078309	1
196.083497	1
196.085572	1
196.094910	1
196.096985	1
196.108918	2
196.204423	1
197.058229	1
197.060319	1
197.064500	32
197.069204	1
198.064996	2
198.067103	1
211.000984	5
218.043122	2
232.037829	3
234.034630	1
242.066650	1
242.071631	1
242.078035	38
242.082305	1
242.083728	1
243.061605	7
243.080936	3
254.946176	1
259.056766	1
272.950630	1
272.957446	33
272.964262	1
273.960461	1
278.054598	2
279.038305	1
288.083480	19
289.086572	2
290.966890	1
294.029023	2
294.038549	1
305.073594	1
306.049428	2
320.064942	1
321.075595	1
328.035671	1
328.044651	27
328.054754	1
329.048253	2
330.082525	5
346.055630	19
347.058776	2
377.084128	2
391.114262	1
392.994482	1
393.093119	1
393.104899	2
393.118152	8
393.129933	239
393.143187	6
393.154969	2
393.168225	1
393.265454	1
394.121442	1
394.124398	1
394.133268	44
394.146573	1
395.135997	2
404.999755	1
407.999044	1
408.011501	45
408.025515	1
409.014549	4
415.111254	3
426.007936	1
426.021226	34
426.036179	1
427.024762	3
439.133290	1
439.147199	58
439.161109	1
440.131198	14
440.150389	11
441.134262	3
441.151767	1
446.041165	1
447.050225	2
455.056632	2
489.941511	1
503.117651	1
504.941269	1
518.894282	1
522.497157	1
529.947752	1
531.169148	1
539.400254	1
539.836016	3
539.885783	1
539.895263	1
539.904744	1
539.914224	1
539.937927	1
539.947409	1
539.956891	1
539.971114	2
539.978226	1
539.992450	3
540.013787	7
540.035126	22
540.054094	999
540.075435	20
540.094406	7
540.113378	3
540.132351	2
540.146581	1
540.151324	1
540.156068	1
540.165555	1
540.175043	1
540.189275	1
540.198763	1
540.208251	1
540.217740	1
540.227229	1
540.246208	1
540.272305	3
540.303150	1
540.554753	2
540.709124	1
540.996669	1
541.015688	1
541.037086	4
541.056107	174
541.077508	3
541.096531	1
541.117934	1
542.039453	1
542.058527	32
542.079987	1
543.061345	3
558.064941	8
559.067567	1
562.036325	2
564.012626	1
572.079861	1
592.964460	1
593.972375	1
601.078015	4
601.579481	1
601.981106	1
602.078783	1
636.216319	1
644.117407	1
661.803088	1
661.989689	1
662.018652	1
662.047616	2
662.076582	7
662.102332	335
662.128082	6
662.157054	2
662.169931	1
662.182808	1
662.398557	1
662.604744	8
663.078695	2
663.104503	76
663.133539	1
663.162576	1
663.608057	1
664.105718	9
665.109202	1
674.075159	2
682.232765	8
683.237139	2
702.010998	1
737.123615	8
738.126614	2
760.637697	19
761.137331	10
761.641430	4
762.142054	1
781.042549	1
783.647133	6
784.128127	1
784.148869	3
784.651088	1
791.043300	1
794.213762	1
796.124348	4
797.126871	1
859.048716	1
859.091530	1
859.129589	5
859.172409	258
859.210474	4
859.253301	1
859.672214	1
860.134326	2
860.172455	89
860.215353	1
861.179023	14
862.177792	2
879.303030	1
881.153258	2
882.177086	3
882.682237	2
883.177905	1
905.186211	53
905.222229	1
905.690658	1
906.190373	12
907.196207	2
925.320123	1
932.632736	1
957.707954	1
980.713982	1
981.213187	1
993.658441	5
994.161642	4
994.659297	2
1003.723434	1
1004.228288	1
1027.228734	1
1027.732752	1
1056.242969	23
1057.242453	9
1058.243356	2
1059.245681	1
1079.253298	1
1079.749167	1
1080.252087	1
1081.117931	3
1082.119310	1
1092.189631	1
1092.694444	1
1093.192778	1
1102.255975	18
1102.753946	1
1103.259179	7
1104.263753	2
1110.159362	1
1115.194111	2
1115.700877	1
1125.766433	1
1148.270826	7
1149.278626	2
1150.287753	1
1177.784871	1
1190.727706	1
1201.292841	1
1203.159344	3
1204.169223	2
1205.164564	1
1213.730944	1
1214.234399	1
1223.803247	1
1224.296796	1
1253.307369	1
1254.313907	1
1265.985290	1
1299.326240	2
1300.335578	1
1325.217625	9
1326.220787	5
1327.215954	1
1328.221387	1
1335.780236	1
1345.350181	4
1346.348294	2
1347.198031	1
1347.347518	1
1391.359770	1
1434.305492	1
