Mass spectrum: Tyramine; LC-ESI-ITFT; MS; POS
Name: Tyramine
Name: 2-(p-Hydroxyphenyl)ethylamine
Class: Natural Product
Formula: C8H11NO
Exact mass: 137.08406
SMILES: NCCc(c1)ccc(O)c1
InChI: InChI=1S/C8H11NO/c9-6-5-7-1-3-8(10)4-2-7/h1-4,10H,5-6,9H2
Instrument: LTQ Orbitrap XL, Thermo Scientfic
Instrument type: LC-ESI-ITFT
Ms type: MS
Ion mode: POSITIVE
Collision energy: 35eV
Ionization: ESI
Column name: TOSOH TSKgel ODS-100V  5um Part no. 21456
Retention time: 5.498028 min
Base peak: 138.091064
m/z	relative intensity
100.111848	1
103.054040	5
118.064968	1
120.936098	1
120.994901	1
121.021805	1
121.041422	3
121.053245	1
121.056012	1
121.056767	1
121.057270	1
121.058025	1
121.058780	1
121.060038	2
121.061296	1
121.062554	6
121.064566	526
121.066579	8
121.068089	1
121.069095	3
121.070102	1
121.071108	1
121.071863	1
121.073121	1
121.073876	1
121.075638	1
121.076393	1
121.087717	2
121.107603	1
121.134291	1
121.193492	1
122.065838	1
122.067876	43
122.069914	1
135.087701	1
137.621353	1
137.934458	1
138.006393	2
138.010068	1
138.038859	1
138.062756	4
138.066127	1
138.068578	1
138.074707	1
138.075320	1
138.077159	1
138.078078	1
138.078998	1
138.080530	2
138.081450	2
138.082062	1
138.082982	2
138.083901	2
138.085434	5
138.086966	2
138.088499	11
138.090951	999
138.093403	14
138.095242	2
138.096468	5
138.097694	1
138.098920	2
138.100147	1
138.101373	2
138.102292	1
138.103825	1
138.104438	1
138.105358	1
138.106278	1
138.107197	1
138.108117	1
138.113022	1
138.115781	1
138.119461	5
138.143379	1
138.172212	1
138.175893	2
138.248018	1
138.562956	1
139.091283	1
139.094072	74
139.096550	1
140.096886	1
141.195794	1
141.958171	1
158.002552	1
171.148702	9
172.976261	1
174.127150	3
179.047813	1
182.984328	2
187.125577	1
189.122803	3
194.116962	8
199.179311	1
242.561077	3
282.179996	1
290.079557	1
300.215530	1
307.073946	1
307.083094	150
307.091226	2
307.176627	1
307.584810	37
307.995850	1
308.071415	1
308.082650	3
308.089800	218
308.097972	2
308.102058	1
308.108187	1
308.184816	1
308.231829	2
308.581700	1
309.086069	1
309.093254	16
310.085115	4
310.092334	1
311.087975	1
314.089118	1
391.282894	4
392.284786	1
414.282608	1
484.113777	1
484.552680	1
528.365618	8
529.367237	1
613.157071	18
614.159174	2
615.152208	1
615.169500	2
920.243180	1
