Mass spectrum: L-Glutathione (oxidized form); LC-ESI-ITFT; MS2; m/z:306.08; NEG
Name: Glutathione disulfide
Name: GSSG
Name: Oxiglutatione
Name: Oxidized glutathione
Name: L-Glutathione (oxidized form)
Class: Natural Product
Formula: C20H32N6O12S2
Exact mass: 612.15196
SMILES: OC(=O)CNC(=O)[C@H](CSSC[C@H](NC(=O)CC[C@H](N)C(O)=O)C(=O)NCC(O)=O)NC(=O)CC[C@H](N)C(O)=O
InChI: InChI=1S/C20H32N6O12S2/c21-9(19(35)36)1-3-13(27)25-11(17(33)23-5-15(29)30)7-39-40-8-12(18(34)24-6-16(31)32)26-14(28)4-2-10(22)20(37)38/h9-12H,1-8,21-22H2,(H,23,33)(H,24,34)(H,25,27)(H,26,28)(H,29,30)(H,31,32)(H,35,36)(H,37,38)/t9-,10-,11-,12-/m0/s1
Instrument: LTQ Orbitrap XL, Thermo Scientfic
Instrument type: LC-ESI-ITFT
Ms type: MS2
Ion mode: NEGATIVE
Collision energy: 35eV
Ionization: ESI
Column name: TOSOH TSKgel ODS-100V  5um Part no. 21456
Retention time: 8.898653 min
Base peak: 254.126831
Precursor m/z: 306.08
m/z	relative intensity
99.108154	2
116.084885	3
128.138458	107
129.997650	1
135.181808	1
143.119141	119
145.178619	4
146.171326	9
153.181549	2
160.029449	113
161.137177	1
162.119308	1
166.211349	1
167.160507	10
169.089157	2
170.087936	3
171.071823	15
175.149597	1
177.058517	95
179.099869	128
185.158020	13
187.330200	1
192.153198	1
197.256577	16
210.173218	65
213.206726	20
226.293060	1
228.256287	9
231.178101	11
236.241486	8
242.250549	16
244.327667	1
254.126831	999
272.043976	912
272.890381	1
286.497131	1
287.981873	615
288.594788	2
