Mass spectrum: DL-Isocitric acid; LC-ESI-ITFT; MS2; m/z:175.02; POS
Name: Isocitrate
Name: Isocitric acid
Name: 1-Hydroxytricarballylic acid
Name: 1-Hydroxypropane-1,2,3-tricarboxylic acid
Name: DL-Isocitric acid
Class: Natural Product
Formula: C6H8O7
Exact mass: 192.02700
SMILES: OC(=O)CC(C(O)=O)C(O)C(O)=O
InChI: InChI=1S/C6H8O7/c7-3(8)1-2(5(10)11)4(9)6(12)13/h2,4,9H,1H2,(H,7,8)(H,10,11)(H,12,13)
Instrument: LTQ Orbitrap XL, Thermo Scientfic
Instrument type: LC-ESI-ITFT
Ms type: MS2
Ion mode: POSITIVE
Collision energy: 35eV
Ionization: ESI
Column name: TOSOH TSKgel ODS-100V  5um Part no. 21456
Retention time: 8.844682 min
Base peak: 131.983841
Precursor m/z: 175.02
m/z	relative intensity
56.128662	2
57.058136	13
60.075123	10
72.249832	2
81.105896	7
88.031769	402
91.247620	3
95.042694	3
101.108368	8
103.044083	3
105.118576	3
106.033981	5
107.079605	4
108.208511	2
110.879486	2
111.748627	2
113.199478	2
115.167953	10
116.118027	13
117.953049	132
119.133179	29
121.993256	77
128.912018	235
130.055405	434
131.983841	999
133.168961	342
134.126938	3
142.240799	5
144.012619	17
145.160934	127
146.147934	146
147.111771	84
153.166245	5
156.983353	730
158.061172	56
159.105118	211
160.187515	69
172.277023	5
174.225021	22
175.197433	11
