Mass spectrum: DL-Isocitric acid; LC-ESI-ITFT; MS2; m/z:191.02; NEG
Name: Isocitrate
Name: Isocitric acid
Name: 1-Hydroxytricarballylic acid
Name: 1-Hydroxypropane-1,2,3-tricarboxylic acid
Name: DL-Isocitric acid
Class: Natural Product
Formula: C6H8O7
Exact mass: 192.02700
SMILES: OC(=O)CC(C(O)=O)C(O)C(O)=O
InChI: InChI=1S/C6H8O7/c7-3(8)1-2(5(10)11)4(9)6(12)13/h2,4,9H,1H2,(H,7,8)(H,10,11)(H,12,13)
Instrument: LTQ Orbitrap XL, Thermo Scientfic
Instrument type: LC-ESI-ITFT
Ms type: MS2
Ion mode: NEGATIVE
Collision energy: 35eV
Ionization: ESI
Column name: TOSOH TSKgel ODS-100V  5um Part no. 21456
Retention time: 8.890932 min
Base peak: 172.903671
Precursor m/z: 191.02
m/z	relative intensity
85.114426	1
110.874466	142
117.085922	2
129.013168	13
147.062286	2
155.086075	42
163.042328	1
172.903671	999
