Mass spectrum: L-Histidine; LC-ESI-ITFT; MS; NEG
Name: L-Histidine
Name: (S)-alpha-Amino-1H-imidazole-4-propionic acid
Class: Natural Product
Formula: C6H9N3O2
Exact mass: 155.06948
SMILES: C1=C(NC=N1)C[C@@H](C(=O)O)N
InChI: InChI=1S/C6H9N3O2/c7-5(6(10)11)1-4-2-8-3-9-4/h2-3,5H,1,7H2,(H,8,9)(H,10,11)/t5-/m0/s1
Instrument: LTQ Orbitrap XL, Thermo Scientfic
Instrument type: LC-ESI-ITFT
Ms type: MS
Ion mode: NEGATIVE
Collision energy: 35eV
Ionization: ESI
Column name: TOSOH TSKgel ODS-100V  5um Part no. 21456
Retention time: 4.013963 min
Base peak: 154.062149
m/z	relative intensity
100.637474	1
102.692356	1
102.751759	1
102.956916	7
103.474791	1
104.953893	2
105.439250	1
106.041154	2
106.475107	1
108.056794	16
108.432760	1
108.704834	1
110.072614	26
110.859870	1
111.925137	1
112.898557	1
112.964764	2
112.969982	1
112.977468	1
112.979283	1
112.980191	3
112.982233	6
112.984048	17
112.984729	9
112.985863	405
112.987678	17
112.989721	4
112.991536	2
112.992217	1
112.992897	2
113.006968	2
113.348187	1
113.989047	2
114.462101	1
116.092849	1
116.977235	2
117.202967	1
117.282836	1
117.806755	1
118.076092	1
120.803718	1
121.302451	1
122.977169	1
124.557493	1
126.572405	1
127.224907	1
127.456487	1
127.481774	1
127.495644	1
128.115847	1
129.975853	3
131.054487	1
131.595566	1
134.047305	3
136.051652	3
137.035562	21
137.913833	1
139.006873	3
141.038117	6
141.567124	1
142.112876	1
142.946480	2
143.209032	1
145.881477	1
146.938456	6
148.024656	18
148.043712	3
149.021158	2
149.022877	3
149.025626	131
149.028032	4
150.028799	3
150.444201	1
150.848379	1
153.962443	2
154.028876	5
154.049103	2
154.050187	1
154.051632	3
154.053077	5
154.054522	2
154.056328	12
154.059218	33
154.060302	22
154.062108	999
154.064999	34
154.068250	10
154.070780	4
154.071863	4
154.073309	2
154.075477	3
154.085594	1
154.095713	3
154.161870	2
154.970392	1
154.981691	2
155.058999	7
155.062282	1
155.063741	1
155.065565	58
155.068484	2
155.338443	1
156.068543	1
157.011751	11
157.380389	1
157.836082	1
159.066420	2
159.069452	36
160.035065	3
160.056104	2
160.060695	2
160.064138	6
160.065286	4
160.067199	20
160.070260	593
160.073321	21
160.076765	6
160.079826	2
160.080974	2
160.084418	2
160.105849	2
160.176298	1
160.190087	1
160.902244	1
160.966660	2
161.067025	2
161.073590	29
163.991157	1
163.998299	15
164.992790	2
164.995993	8
164.997194	4
164.999197	243
165.002400	7
165.006004	2
166.002416	5
167.003395	2
167.040098	1
170.941200	2
172.593104	1
174.474401	1
174.955652	5
174.982762	2
176.028234	1
176.040589	2
176.044119	68
176.047650	3
177.047046	3
178.977408	8
179.153512	1
180.969406	2
180.970786	2
180.973086	65
180.976305	2
182.072783	1
183.569117	1
184.361094	2
190.927982	9
193.597340	1
194.136904	1
194.855385	1
195.098682	1
196.030804	3
196.046880	7
196.436937	1
197.613596	1
197.940451	1
198.043616	2
198.935970	9
200.037868	19
200.057113	5
201.034731	2
201.036346	2
201.039039	73
201.042809	2
202.042319	2
202.461845	1
203.042742	2
203.645908	1
204.956756	2
205.074886	23
206.066087	8
206.071117	13
206.072793	7
206.075588	393
206.080059	12
206.085090	3
206.972200	17
206.983451	2
207.072372	2
207.079128	23
207.411132	1
207.974937	1
208.079808	2
208.767680	1
208.980985	2
208.988976	2
209.025512	2
209.314714	1
209.996649	5
211.079980	1
211.082877	30
212.020568	6
212.074239	5
212.079490	8
212.083575	243
212.088243	7
212.093495	2
213.086705	8
213.290774	1
214.017681	2
214.087499	1
215.010753	1
215.989161	4
216.006554	3
216.011952	53
216.031148	5
216.956753	1
216.997814	2
216.999626	1
217.002645	9
217.007477	10
217.012913	309
217.017745	8
217.022577	3
217.504792	1
218.015981	10
218.972138	7
219.016835	3
222.033591	2
222.038591	3
222.041717	2
222.044217	12
222.046093	6
222.049218	412
222.054219	11
222.059846	3
222.064847	2
222.254405	1
222.957193	5
222.969773	1
223.046534	4
223.052828	26
223.065416	2
224.025242	6
224.053118	3
224.115860	1
226.969316	2
227.056555	19
227.125089	1
228.048140	4
228.049441	4
228.052044	7
228.053996	5
228.057249	255
228.062455	8
228.068311	2
229.054094	2
229.060643	19
230.062103	3
230.257374	1
231.985328	26
232.975814	3
232.977829	3
232.980517	10
232.986564	388
232.991939	10
232.997986	3
233.989562	13
233.999030	1
234.990204	2
235.925374	2
236.253660	1
238.525024	1
238.931304	2
238.942469	1
239.039495	2
242.035596	7
242.941624	2
244.025505	2
244.031267	97
244.037029	3
245.034748	6
245.611154	1
245.828013	1
246.873385	1
248.953803	5
248.960482	139
248.965677	4
249.963936	2
249.975883	2
250.101377	4
250.964456	2
252.051870	7
253.052796	17
253.986264	13
257.087899	4
258.089232	36
258.915296	2
259.092488	2
261.038523	3
261.561222	1
261.994934	8
263.096844	10
264.097031	44
264.934205	2
265.100486	2
266.075228	4
267.024027	2
268.015210	5
268.025158	32
268.044227	4
269.005253	1
269.020258	4
269.026094	151
269.033597	4
270.030970	17
270.041869	1
271.030528	2
271.286139	1
273.062563	5
274.055871	2
274.062729	114
274.069587	3
274.971030	3
275.059781	2
275.065814	5
276.968360	2
277.012779	7
279.070308	25
280.063842	5
280.070926	183
280.078010	4
281.074264	12
282.030200	2
282.984726	1
282.998217	2
283.036898	1
283.999256	44
284.986526	3
284.992889	9
284.995616	5
285.000161	341
285.007433	8
285.015615	2
285.025615	1
286.003625	14
286.016419	2
287.004130	5
290.036417	56
290.944694	4
291.040352	4
291.826160	1
292.029709	1
292.987163	1
293.388363	1
295.043556	14
295.956234	1
296.026467	1
296.029354	1
296.038015	6
296.044751	229
296.052450	5
296.067849	1
296.070736	1
296.081324	2
297.041379	2
297.048149	12
298.048880	2
299.973283	20
300.958263	2
300.966155	7
300.969114	5
300.974047	273
300.981939	7
300.990818	2
301.098384	1
301.976852	15
301.989741	2
302.977703	4
303.878426	1
304.065664	2
305.065852	2
305.459846	1
306.000180	2
306.918488	1
306.930679	1
309.101990	4
309.121499	2
309.413323	1
310.102389	25
310.929411	3
311.106616	2
311.989712	1
312.010536	2
312.018866	82
312.027197	1
313.021961	6
314.139272	8
315.110341	3
315.130422	4
315.139934	135
315.147333	3
315.894897	1
316.036025	1
316.047702	1
316.110341	8
316.143261	15
316.947670	94
316.956199	2
317.944653	1
317.951080	5
317.962863	1
318.937739	2
318.944196	1
320.039302	10
320.057692	4
320.146417	2
321.040052	34
321.147670	21
322.151443	5
325.075967	8
326.068190	3
326.077090	97
326.085989	2
327.079492	8
327.156619	5
327.992232	3
328.189841	1
329.026036	4
329.047461	1
330.082862	2
331.084458	13
331.104946	4
331.107223	3
331.112914	167
331.122021	3
332.084902	77
332.111201	4
332.116918	21
332.921118	2
333.088740	10
334.910859	2
336.012480	24
336.031100	2
337.003801	4
337.013152	105
337.023672	2
337.121884	23
338.017126	7
338.028867	2
340.071753	2
341.048975	5
342.041171	2
342.050732	103
342.060294	2
342.087786	6
342.128433	3
342.958492	2
342.970492	1
343.053308	7
343.112138	2
343.128949	29
344.132655	2
345.000288	3
347.057930	27
348.048265	4
348.058080	178
348.067894	4
348.094887	3
348.441163	1
349.055167	3
349.061327	11
351.986167	18
352.008626	1
352.968869	2
352.977639	5
352.987663	172
352.997687	4
353.094190	6
353.990923	8
354.003506	4
354.768585	1
354.992147	2
358.024000	42
358.102086	1
358.931882	4
359.026972	2
359.102815	36
360.106454	4
361.115602	2
362.043084	2
362.117281	5
363.031638	14
363.049934	2
364.012437	1
364.021622	3
364.025558	2
364.032119	177
364.042617	3
365.028836	1
365.035424	16
366.036268	1
367.152855	8
367.959645	8
368.003655	1
368.125058	2
368.157087	2
368.951123	4
368.961835	121
368.971208	3
369.058260	3
369.964091	6
369.976191	2
370.966386	3
372.052742	4
372.990040	2
373.054013	6
373.161581	6
373.986901	5
373.997833	2
375.076954	15
376.080821	2
376.109759	2
377.088724	5
378.090961	27
378.915975	1
379.097198	1
379.995475	2
380.006671	61
381.009330	5
381.040244	2
381.715667	1
383.097412	6
383.127164	29
384.098114	21
384.129405	2
384.935744	36
385.032789	4
385.101314	3
385.939365	2
386.076917	1
386.923908	2
387.026021	2
388.026280	12
388.045054	2
388.134610	4
389.027523	39
389.134821	19
389.961346	3
390.031190	3
390.042833	2
390.138904	2
393.064134	10
393.485551	1
394.052436	2
394.064259	74
394.076083	1
394.142601	3
394.890237	2
395.068206	6
395.078592	1
395.143880	12
395.980700	5
397.969646	4
399.071392	14
399.100011	12
400.071868	79
400.083963	2
400.105131	2
400.909232	3
401.076110	6
402.999661	2
403.212203	1
403.235149	1
403.999612	19
404.019557	2
404.108560	1
404.987892	2
405.001750	82
405.014069	1
405.109563	22
406.004530	6
406.112744	4
407.004834	1
408.057112	2
408.192634	1
409.036881	4
410.026457	2
410.029594	2
410.037438	66
410.051556	1
410.115883	5
410.945645	2
411.041670	9
411.117254	38
411.386692	1
412.120716	5
412.986699	2
414.130733	2
415.044594	17
415.995144	1
416.033618	3
416.046444	110
416.056064	2
417.048709	11
418.049755	2
419.166261	4
419.974868	15
420.961998	3
420.975052	104
420.986476	1
421.071349	1
421.082776	9
421.978813	8
421.990277	3
422.979594	2
425.068020	2
426.003392	3
426.011698	23
426.069848	1
426.089788	2
426.920189	2
427.013532	2
427.090229	28
428.094198	6
428.987539	1
429.101712	1
430.104360	7
431.019219	5
431.599689	1
432.006546	2
432.020118	79
433.022805	6
434.023861	2
434.140051	2
435.139842	16
435.948698	4
436.112116	4
436.144811	3
436.949570	64
436.961649	1
437.132544	1
437.952160	5
438.817498	1
438.952993	2
440.040960	7
441.041966	16
441.148732	8
441.974408	2
441.984942	2
442.046392	1
443.064825	9
444.067333	1
445.076796	6
446.077244	29
446.155574	2
447.081069	2
447.156091	6
447.993324	25
448.199414	1
448.998235	2
449.984889	1
450.051624	1
451.085192	7
451.114154	23
452.086001	22
452.118692	5
452.922555	15
453.090144	3
454.914118	1
456.014162	8
456.122730	3
457.014816	44
457.121894	22
458.018766	4
458.126198	4
461.050547	7
462.050944	51
462.131642	2
463.054600	7
463.131795	12
463.967109	3
464.133310	1
465.001646	3
465.957922	2
467.058241	9
467.088755	14
468.045741	1
468.049567	2
468.059133	52
468.082092	1
468.896309	3
469.063246	6
470.064817	2
470.986549	1
471.988478	16
472.972229	2
472.989720	69
473.096629	21
473.994151	5
474.001950	2
474.015598	1
474.099451	3
476.045995	2
476.214801	2
477.024749	4
478.026271	35
478.103289	2
478.933904	2
479.028969	6
479.104249	21
481.117614	2
482.118060	2
483.033365	11
484.015652	1
484.033759	69
485.037264	6
486.037820	2
486.153234	2
487.155215	7
487.960661	10
488.945768	1
488.962109	77
489.070393	9
489.966644	4
489.976889	1
490.964001	1
491.645015	1
492.055129	3
492.191259	3
493.054735	5
493.162312	3
493.999303	18
494.909143	1
495.002762	2
495.079758	14
496.082338	3
497.090060	4
498.092455	12
498.199584	2
499.007314	4
499.093672	2
500.007067	41
501.009826	2
502.128254	2
503.128876	15
503.935803	3
504.100415	9
504.935404	43
505.034027	2
505.102651	2
506.499611	1
506.930611	2
507.826693	1
508.027828	8
508.136014	2
508.164148	3
509.028786	13
509.137292	9
509.960899	2
510.030530	1
510.141533	1
511.052693	4
512.437167	1
513.064541	8
513.082107	2
514.065013	33
514.172931	2
515.068415	4
515.143513	7
515.981741	12
516.984100	2
518.100766	3
519.071324	10
519.102606	22
520.073741	26
520.105113	3
520.181314	2
520.910558	16
521.076815	3
524.001519	11
524.110314	3
525.002348	39
525.111455	13
526.006047	5
526.113187	3
526.190713	2
529.036773	4
529.057464	1
530.038236	43
530.058986	1
530.118937	3
531.042545	3
531.118851	9
531.954661	2
534.047011	1
535.046373	9
535.076771	8
536.034474	1
536.048543	49
536.064957	2
536.076682	2
536.154075	3
536.884270	3
537.051180	6
539.168969	5
539.974076	16
540.085512	1
540.975865	70
540.994883	2
541.082856	12
541.720701	1
541.980445	5
541.989981	1
542.087734	2
542.161662	3
542.980655	2
544.204232	2
545.011032	3
545.071133	2
545.176936	2
546.012415	35
546.091969	3
547.004474	1
547.016560	5
547.091499	14
548.096199	2
548.962700	1
549.103670	3
550.106608	7
551.021867	7
551.051193	2
552.003113	2
552.020266	46
553.023837	9
554.141035	3
554.834213	2
555.142984	11
555.949474	8
556.112964	3
556.145176	2
556.221998	2
556.929019	2
556.948884	50
557.058164	5
557.418519	1
557.953482	4
558.135296	4
558.958304	2
560.040954	5
560.178699	6
561.041380	9
561.149355	5
561.986592	12
562.989715	2
563.065436	7
563.302794	3
565.080161	3
565.397526	1
566.078858	18
566.188291	3
566.996020	2
567.082756	2
567.159305	2
567.994688	27
568.998560	3
569.139622	2
569.984528	2
570.115670	3
571.022040	1
571.086495	3
571.114858	18
571.922820	3
572.088238	10
572.119262	3
572.924175	30
573.020049	2
573.928162	3
576.014582	7
576.153036	3
577.016232	19
577.123613	13
577.960114	3
578.017871	1
578.125532	2
578.201700	2
579.043180	2
579.108998	2
581.051718	9
582.053275	35
582.132875	2
582.162065	3
583.057424	5
583.131909	7
583.968181	8
584.136185	2
587.059807	6
587.089369	17
587.689153	1
587.783372	1
588.001511	1
588.060780	19
588.093112	4
588.165869	2
588.896881	9
589.064315	3
589.899851	1
591.179574	2
591.989681	12
592.989654	39
593.098796	9
593.784349	1
593.992162	5
594.044132	1
594.101581	2
596.219300	2
597.026011	6
597.180381	1
598.027724	38
598.105096	3
599.031961	4
599.106757	11
600.035952	2
602.040358	1
602.121302	3
603.035139	9
603.063117	8
604.035191	31
604.144591	2
605.037733	3
606.152720	2
607.157714	6
607.964076	9
608.125542	2
608.159543	2
608.962224	40
609.070126	6
609.968524	5
610.150720	2
612.191756	2
612.999569	3
613.056921	2
613.163044	3
614.001525	25
614.061892	2
615.003057	3
615.077983	9
615.152922	2
616.082152	2
617.094574	3
618.092075	8
619.007606	3
619.094906	2
620.009751	32
621.011407	3
622.000838	1
622.009630	1
622.129813	4
623.101349	2
623.130736	15
623.936747	5
624.101672	4
624.131130	2
624.939084	30
625.045355	4
625.940879	3
626.942119	2
628.029014	2
628.139048	1
628.165818	5
628.972681	1
629.029309	6
629.136625	6
629.975232	10
630.029008	1
630.121638	1
630.980182	2
631.055052	6
631.123943	2
633.066520	6
634.066813	19
634.175421	2
635.069479	3
635.148102	3
635.983610	11
637.015127	2
638.100924	2
639.073496	3
639.104020	19
639.910648	2
640.075828	14
640.109483	4
640.911885	17
641.065186	1
641.077453	2
641.915473	3
642.881384	1
644.003834	6
644.111917	3
644.139714	3
645.005412	14
645.110651	7
645.947290	2
646.006226	4
647.003153	2
647.024919	2
647.096442	2
649.038305	8
650.039130	29
650.117417	2
650.148736	3
651.042272	3
651.120740	7
651.956522	3
652.195612	1
654.081472	1
654.132042	2
655.046475	4
655.078151	15
656.048536	18
656.080284	4
656.884284	6
657.052898	2
659.170859	5
659.977344	7
660.083065	2
660.169583	1
660.977903	23
661.087076	7
661.983956	3
664.209903	2
665.012697	6
665.142316	1
666.014990	29
666.096181	1
666.115669	1
666.918668	1
667.016297	7
667.094415	8
668.023125	1
668.098158	2
669.104168	2
670.105897	6
671.021200	4
671.050757	6
672.020656	18
672.116115	1
673.025645	4
674.003136	2
674.142007	2
675.141817	11
675.951236	4
676.147175	2
676.951748	28
677.061574	6
677.954483	3
678.137948	2
680.043703	3
680.181093	5
680.986164	4
681.043244	2
681.150708	3
681.987785	20
682.065183	2
682.994989	3
683.069186	7
685.080467	4
686.080952	15
686.995171	2
687.083631	1
687.972580	1
687.996445	15
688.999910	2
690.115165	5
691.116405	15
691.923782	3
692.088866	2
692.123267	2
692.925516	16
692.949639	2
693.032358	2
693.929427	3
696.016653	4
696.155442	4
697.016862	8
697.124652	4
697.963485	6
698.019228	1
698.238784	1
699.041217	2
701.053362	8
702.053908	23
702.162868	2
703.060119	3
703.130564	2
703.186928	1
703.969677	9
704.057906	2
706.091766	2
707.060494	3
707.092464	18
708.002743	2
708.063253	9
708.095291	4
708.170055	1
708.900516	9
709.096685	2
711.184682	2
711.991594	4
712.099286	2
712.990477	11
713.098396	7
714.099610	2
716.007011	2
716.217002	3
717.028869	6
717.083284	1
718.027470	29
718.136534	2
719.031801	4
719.108303	3
719.950640	1
721.932851	1
722.119791	4
723.033538	4
723.066597	11
724.037352	8
724.070480	2
724.873617	3
726.014300	2
726.154764	3
727.157678	5
727.965959	5
728.935445	1
728.965191	19
729.073038	5
729.973935	1
732.192320	3
733.001513	5
733.162762	2
734.003621	21
735.004020	3
735.079321	4
736.081921	2
736.954266	1
737.094136	4
738.093286	6
738.203164	2
739.007163	2
739.037528	4
739.098264	2
740.010206	10
742.129366	3
743.131120	13
743.939351	3
744.134904	2
744.937091	15
745.048502	2
746.083124	1
746.125478	2
748.031275	1
748.139515	2
748.166578	7
748.975295	2
749.033388	3
749.137971	3
749.975425	14
751.028109	1
751.055329	3
753.065946	7
754.066460	14
755.068968	3
755.983146	7
758.104292	3
759.103012	18
759.913700	2
760.012653	1
760.075993	3
760.107666	4
760.884275	1
760.912033	10
761.078613	1
763.006187	1
764.006632	3
764.142302	4
765.005050	4
765.112996	4
765.949352	6
769.042528	5
770.042762	19
771.044949	2
771.121810	3
771.955884	4
772.917149	1
774.079550	3
775.077400	16
776.048588	5
776.085349	3
776.416320	1
776.886579	4
777.082988	2
777.988249	1
779.170330	4
779.980460	3
780.116290	2
780.977374	9
781.088719	3
785.013293	3
785.820069	1
786.015712	19
786.094823	2
786.528060	1
787.020052	5
787.090970	2
787.930201	2
788.139174	1
791.018893	2
791.052520	11
792.024418	6
792.058109	3
792.133921	2
792.858900	2
792.879990	1
794.142694	3
795.145711	6
795.951190	2
796.953386	12
797.063913	2
797.574336	1
798.093769	1
798.656350	1
800.185137	5
800.985439	3
801.186773	2
801.988578	12
802.993604	2
803.066692	5
804.987755	1
805.082694	4
806.080571	6
806.998005	3
807.023993	4
807.205944	1
807.999447	6
808.029823	2
808.976670	1
810.121184	5
811.119718	13
811.923371	3
812.089492	2
812.124471	2
812.925239	10
813.122331	1
814.139586	1
816.021263	2
816.153401	5
817.158698	2
817.966925	5
818.130483	1
819.117290	2
820.048204	2
821.056263	7
822.057276	14
822.164159	2
823.055660	3
823.135966	2
823.970954	4
824.060332	1
825.062368	2
826.075204	1
826.093147	3
827.062943	3
827.094401	12
827.899415	2
828.061459	2
828.097475	2
828.903954	4
831.992040	2
832.128076	4
832.990413	5
833.099436	2
833.940534	2
835.010793	1
835.083737	2
836.224724	2
837.029382	3
838.032256	12
839.027749	2
839.105812	1
842.066444	2
843.069136	9
844.036557	3
844.068988	2
844.875718	3
847.153769	5
848.160898	1
848.968829	5
849.071655	4
851.197775	2
853.002321	3
853.845463	1
854.005754	14
855.006237	2
855.086540	1
859.016285	1
859.040069	5
862.130834	4
863.097724	1
863.131260	5
863.500276	1
864.138227	2
864.940264	7
865.050811	2
865.344106	1
865.945585	2
866.051510	1
867.164899	2
868.169269	5
868.976926	2
869.979599	5
870.984008	2
871.052002	3
874.071161	3
875.009310	2
875.988155	2
878.108075	3
879.106899	10
880.112362	3
880.912047	2
884.146545	4
885.115891	2
885.952299	4
887.029423	2
889.039309	2
889.179555	1
890.041797	6
891.956236	1
894.078858	2
895.079766	8
895.991142	1
896.087424	1
896.163447	1
896.178653	1
896.888686	3
899.976970	1
900.119813	2
900.982692	3
901.079780	2
903.209429	2
904.210302	2
905.017343	2
905.980006	2
906.016071	8
906.119127	2
909.239710	2
911.055378	5
915.142262	2
916.954663	2
918.010006	1
918.125627	1
918.136139	1
918.451584	2
920.184172	3
921.186988	1
921.990422	8
923.075667	1
927.030449	2
930.120415	2
930.887272	1
931.118051	6
932.122669	2
932.924304	2
934.676429	1
936.157443	2
937.967532	3
941.052391	2
942.056745	3
947.091703	4
948.094713	1
952.133829	2
953.128182	1
953.940373	2
954.001608	1
956.221157	2
958.028147	5
963.067626	3
971.845510	2
972.200493	2
974.007043	3
974.552864	1
976.389034	2
977.231144	2
978.091682	2
979.045953	3
983.133243	1
988.166933	3
989.982879	2
990.960503	1
994.067860	1
995.989176	4
999.114268	2
1004.145093	2
1005.975141	11
1006.976556	2
1007.030892	2
1010.050433	2
1015.078643	3
1020.126025	2
1026.017864	1
1031.059585	2
1032.042320	2
1033.566141	1
1046.537657	2
1052.034505	1
1056.159672	2
1057.503302	1
1073.044813	1
1073.137792	2
1083.062500	2
1087.019508	2
1089.542728	2
1092.593123	1
1094.006898	2
1095.115245	1
1099.062823	2
1100.020311	1
1105.208265	1
1105.965301	12
1106.966615	2
1120.023422	1
1128.491358	1
1134.972309	1
1135.030104	1
1135.080677	2
1154.968736	1
1165.985185	8
1166.993803	3
1173.604627	1
1197.096462	1
1198.098715	1
1205.964414	4
1206.961982	2
1207.635644	1
1240.019446	1
1247.985687	1
1263.810603	1
1265.986430	19
1266.982722	6
1285.432374	2
1311.984258	2
1327.546052	1
1339.321101	1
1355.505264	1
1365.974832	12
1366.976890	5
1367.349364	1
1377.000488	1
1407.951364	1
1410.920465	1
1430.404588	1
1433.957848	3
1439.720204	1
1446.099005	1
1465.968928	8
1466.987486	2
1467.114880	1
1467.316622	2
