Mass spectrum: L-Homoserine; LC-ESI-ITFT; MS; POS
Name: L-Homoserine
Name: 2-Amino-4-hydroxybutyric acid
Class: Natural Product
Formula: C4H9NO3
Exact mass: 119.05824
SMILES: OCC[C@H](N)C(O)=O
InChI: InChI=1S/C4H9NO3/c5-3(1-2-6)4(7)8/h3,6H,1-2,5H2,(H,7,8)/t3-/m0/s1
Instrument: LTQ Orbitrap XL, Thermo Scientfic
Instrument type: LC-ESI-ITFT
Ms type: MS
Ion mode: POSITIVE
Collision energy: 35eV
Ionization: ESI
Column name: TOSOH TSKgel ODS-100V  5um Part no. 21456
Retention time: 4.659807 min
Base peak: 120.065399
m/z	relative intensity
100.111848	3
102.033748	2
102.054776	26
102.055750	1
104.070460	11
110.019964	2
111.020036	1
113.963604	1
119.684837	1
119.938245	1
119.996819	2
120.022893	1
120.042516	4
120.043758	1
120.047733	1
120.049721	1
120.050715	1
120.051709	1
120.052702	1
120.053696	1
120.054193	1
120.055187	1
120.056429	1
120.057672	1
120.058169	1
120.059163	2
120.061150	5
120.061896	2
120.063138	12
120.063884	14
120.065375	999
120.066617	23
120.067363	15
120.069351	5
120.070593	2
120.071587	2
120.072830	1
120.074321	1
120.076309	1
120.077055	1
120.077552	1
120.078049	1
120.079540	1
120.081032	1
120.082772	1
120.088488	4
120.107879	1
120.131254	1
120.134238	2
120.192956	1
120.447730	1
121.066328	1
121.068592	39
121.069850	1
121.070605	1
122.069150	3
129.126926	1
137.132305	2
139.982008	1
141.958490	5
149.022904	3
155.142526	1
158.002552	12
158.096003	1
158.960868	1
163.132671	3
170.096285	1
171.149125	29
172.152025	1
174.127584	11
179.063200	2
182.984796	8
186.955984	1
187.126060	5
190.992536	1
199.179842	3
219.989295	1
223.063237	2
239.123051	1
391.282894	14
392.286254	2
426.355027	1
436.339497	1
510.341233	14
511.344429	2
