Mass spectrum: L-Glutathione (reduced form); LC-ESI-ITFT; MS; NEG
Name: Glutathione
Name: 5-L-Glutamyl-L-cysteinylglycine
Name: N-(N-gamma-L-Glutamyl-L-cysteinyl)glycine
Name: gamma-L-Glutamyl-L-cysteinyl-glycine
Name: GSH
Name: Reduced glutathione
Name: L-Glutathione (reduced form)
Class: Natural Product
Formula: C10H17N3O6S
Exact mass: 307.08381
SMILES: OC(=O)CNC(=O)C(CS)NC(=O)CCC(N)C(O)=O
InChI: InChI=1S/C10H17N3O6S/c11-5(10(18)19)1-2-7(14)13-6(4-20)9(17)12-3-8(15)16/h5-6,20H,1-4,11H2,(H,12,17)(H,13,14)(H,15,16)(H,18,19)/t5-,6-/m0/s1
Instrument: LTQ Orbitrap XL, Thermo Scientfic
Instrument type: LC-ESI-ITFT
Ms type: MS
Ion mode: NEGATIVE
Collision energy: 35eV
Ionization: ESI
Column name: TOSOH TSKgel ODS-100V  5um Part no. 21456
Retention time: 8.883203 min
Base peak: 306.075958
m/z	relative intensity
101.072125	2
102.056029	1
111.056496	1
112.040536	2
116.017366	1
123.056169	2
125.035411	1
126.043388	1
127.051156	5
128.033278	1
128.035468	36
128.037384	1
128.039847	1
129.038464	1
131.046121	2
133.043864	1
135.056203	1
137.071785	1
138.055769	1
141.066759	9
143.040973	1
143.043558	3
143.046144	72
143.048730	2
143.051316	1
144.011980	1
144.049210	3
145.061542	8
146.045563	6
148.952269	1
151.006893	1
153.066748	8
155.082528	10
160.007336	15
162.002788	1
166.098428	3
167.046013	4
167.082323	1
171.077039	1
177.033932	11
179.045981	4
180.077447	1
181.061223	3
184.108595	5
185.056175	3
187.041540	2
197.056138	5
198.087644	7
199.072070	2
210.087874	12
211.091347	1
216.098124	1
228.098657	9
229.101670	1
230.952486	1
231.044022	1
242.078035	5
254.077796	15
255.080819	1
260.088655	5
271.058906	1
272.075204	1
272.081987	2
272.088771	77
272.093010	1
272.096402	2
272.102338	1
273.091260	6
274.092442	1
288.065929	8
289.068928	1
305.796696	2
305.982676	3
305.987732	1
305.991777	1
305.997845	1
306.001890	1
306.004924	1
306.012004	1
306.020095	1
306.022118	1
306.030209	1
306.034255	2
306.038301	1
306.040324	1
306.044370	1
306.046393	1
306.050439	1
306.052462	2
306.059544	9
306.067637	23
306.075730	999
306.084835	21
306.091917	10
306.097988	2
306.101024	1
306.104059	1
306.106083	1
306.110130	1
306.114177	1
306.116201	1
306.119237	2
306.123285	1
306.128344	1
306.131380	1
306.133404	1
306.138464	1
306.147572	1
306.153644	1
306.160729	1
306.169838	3
306.356159	2
307.062479	1
307.070612	3
307.078745	110
307.083829	2
307.085862	2
307.087895	2
308.063202	1
308.071374	38
308.078526	6
308.082612	2
309.073957	3
309.082170	1
310.980895	1
328.056999	17
329.060658	1
330.033810	1
349.991827	3
354.061008	1
358.986729	4
359.995042	6
360.998537	1
377.113182	1
404.043650	15
404.051322	1
405.045955	1
406.039627	1
440.024802	1
458.090488	2
482.101522	1
523.987343	1
527.181234	1
529.197155	1
530.056099	2
595.150155	1
612.895696	1
613.093545	1
613.113622	2
613.136569	6
613.159517	369
613.179597	5
613.185334	5
613.205416	3
613.219760	1
613.426378	1
614.115859	1
614.138861	2
614.161865	87
614.181995	1
614.187747	1
614.207877	1
615.155144	23
616.159503	4
616.171061	1
635.141374	14
636.146592	2
637.117736	2
637.135967	1
651.107491	1
666.072740	4
667.080687	4
668.081137	1
675.084763	2
747.107553	1
836.283270	1
902.234917	1
920.199079	1
920.241271	80
920.278191	1
920.288741	1
921.249465	17
922.243441	5
923.244328	1
942.225186	2
943.225946	1
973.150937	1
974.161171	1
1073.787960	1
1074.280068	1
1074.792485	1
1075.285283	1
1075.791754	1
1227.329352	10
1227.816907	1
1228.329152	6
1228.825441	1
1229.330175	3
1230.324268	1
1380.868978	1
1381.353836	1
1381.382935	1
1381.877769	1
1382.353448	1
