Mass spectrum: FAD; LC-ESI-ITFT; MS; POS
Name: FAD
Name: Flavin adenine dinucleotide
Class: Natural Product
Formula: C27H33N9O15P2
Exact mass: 785.15713
SMILES: C(C(CN(c54)C(=N6)C(C(=O)NC6=O)=Nc(cc(c(c5)C)C)4)O)(O)C(O)COP(OP(OCC(O1)C(C(C1n(c2)c(n3)c(c(N)nc3)n2)O)O)(O)=O)(O)=O
InChI: InChI=1S/C27H33N9O15P2/c1-10-3-12-13(4-11(10)2)35(24-18(32-12)25(42)34-27(43)33-24)5-14(37)19(39)15(38)6-48-52(44,45)51-53(46,47)49-7-16-20(40)21(41)26(50-16)36-9-31-17-22(28)29-8-30-23(17)36/h3-4,8-9,14-16,19-21,26,37-41H,5-7H2,1-2H3,(H,44,45)(H,46,47)(H2,28,29,30)(H,34,42,43)/t14-,15+,16+,19-,20+,21+,26+/m0/s1
Instrument: LTQ Orbitrap XL, Thermo Scientfic
Instrument type: LC-ESI-ITFT
Ms type: MS
Ion mode: POSITIVE
Collision energy: 35eV
Ionization: ESI
Column name: TOSOH TSKgel ODS-100V  5um Part no. 21456
Retention time: 14.636688 min
Base peak: 348.070190
m/z	relative intensity
100.110145	1
100.110713	1
100.111848	38
100.112794	1
100.113362	1
102.033553	16
102.091202	10
103.086455	1
107.069996	1
109.022163	1
109.521416	1
110.019964	45
110.021708	1
110.521485	3
111.018931	1
111.020036	7
112.017680	5
113.016576	1
113.963374	1
114.127396	2
116.052719	1
117.102367	1
118.086052	4
122.963861	1
123.055085	1
125.985947	1
128.106709	6
129.127203	1
130.122362	1
130.158817	9
130.491545	2
133.079206	7
135.101344	1
136.021355	1
136.057919	1
136.059118	1
136.061516	18
136.063015	1
137.132305	5
139.982321	1
141.958490	1
149.023248	19
151.096028	2
154.990068	3
155.142891	11
156.146743	1
158.002927	10
158.004428	1
158.096379	13
158.961247	4
159.112778	2
161.110679	1
162.998158	5
163.132671	36
163.134639	1
164.136124	1
167.012934	1
167.033727	3
170.096285	16
171.099654	1
171.110223	1
171.134324	1
171.138553	7
171.140244	1
171.141936	1
171.144050	1
171.145319	3
171.149125	274
171.152932	3
171.156738	2
171.188464	1
172.152452	21
172.154585	1
172.169092	1
173.078147	1
174.123678	1
174.127584	117
174.131490	1
174.135397	1
175.089843	6
175.130986	11
176.143085	2
178.035287	4
179.063653	24
180.066718	1
182.984796	9
185.114619	2
186.184865	7
186.955984	2
187.122192	1
187.126544	83
187.128961	1
187.130412	1
187.188448	1
188.129475	5
188.997594	1
189.121821	1
189.996332	1
190.993035	14
192.989857	1
194.117473	2
195.087107	1
195.122625	5
199.029134	3
199.177187	1
199.180373	47
199.183028	1
199.987228	1
200.183421	3
205.096502	2
207.094377	1
208.190213	1
209.138152	1
214.216026	1
215.157172	1
216.027748	1
217.104082	2
220.111991	7
221.115280	1
222.111688	1
223.063237	1
224.126718	1
225.195906	1
226.158371	3
227.161937	1
227.982221	1
228.232103	3
232.169093	1
233.174638	8
240.179082	1
240.180488	1
243.087108	1
255.155987	1
256.262765	1
264.130698	1
270.190927	1
275.146239	1
275.196246	2
277.200773	5
279.158552	6
279.162076	1
280.162057	1
282.221186	10
283.224159	1
294.226753	1
299.182617	2
305.195176	1
312.682857	1
320.294622	1
321.225628	1
322.257928	1
327.200623	4
343.208159	2
344.228852	4
345.231084	1
346.195111	1
347.428461	1
347.732011	1
347.856973	1
347.957482	2
348.027374	1
348.034732	1
348.037185	1
348.044543	2
348.048223	4
348.051902	3
348.055582	5
348.059261	9
348.062941	11
348.070300	999
348.076433	14
348.080113	10
348.086246	2
348.091153	4
348.098513	1
348.108327	1
348.112008	1
348.115688	1
348.123049	1
348.127957	1
348.183173	2
348.285051	1
348.409083	1
348.713919	1
349.073352	99
349.079512	1
349.083208	1
349.094295	1
349.181783	6
349.960767	1
350.073323	6
350.184696	1
358.241623	1
366.284389	1
372.258025	3
373.262604	1
391.258042	1
391.271198	2
391.284356	174
391.291666	2
391.296052	1
391.309210	1
392.287721	39
393.290531	3
393.572066	2
393.576491	1
393.585340	163
393.597139	2
393.611889	1
394.087275	47
394.094664	1
394.588691	5
395.088098	1
404.569196	3
405.070736	1
405.556240	1
405.563953	15
406.065799	3
412.548815	1
412.558312	20
413.060514	4
413.265143	3
413.562046	1
415.542132	1
416.046589	1
419.314811	1
419.546829	3
420.040710	8
420.530578	1
420.535464	1
420.545238	67
420.553383	1
420.558270	1
421.045779	17
421.053939	1
421.084947	1
421.542310	1
421.548850	2
422.047909	1
422.541293	1
423.548769	1
424.548287	13
425.049374	3
427.377851	2
435.166017	1
436.341219	3
436.444534	1
437.343196	1
438.620916	1
438.797952	1
438.940352	2
438.976832	1
439.039379	1
439.060231	1
439.063706	1
439.070657	3
439.079346	2
439.084560	7
439.089774	8
439.100201	896
439.114105	7
439.124534	2
439.131486	4
439.140177	1
439.145392	1
439.154083	1
439.159298	1
439.261876	2
439.404503	1
439.580272	1
440.014056	1
440.073337	1
440.076825	1
440.087288	1
440.092519	2
440.102982	159
440.118678	1
440.134375	1
441.105702	11
441.112702	1
441.781933	1
442.106585	1
457.109366	2
464.371917	1
527.714716	1
532.431012	1
532.586523	1
534.369313	1
537.093243	1
540.039489	1
540.371509	1
540.703835	1
542.081501	1
542.417793	3
542.749620	1
543.088924	1
550.025204	1
560.726600	1
616.182321	1
779.809184	1
785.782747	1
786.049090	1
786.074066	1
786.090718	2
786.099044	1
786.124023	4
786.165657	596
786.198967	4
786.211459	1
786.219787	2
786.236443	2
786.269758	1
786.294745	1
786.498851	1
786.548848	1
786.628020	1
786.665527	122
786.686365	1
786.698869	1
787.128331	1
787.165874	188
787.199247	1
787.240967	1
787.666698	11
788.168000	23
788.669781	1
789.172041	2
790.564130	1
791.068201	1
792.595955	1
797.154848	6
797.656726	3
798.142042	2
798.159078	2
798.640590	1
799.143872	1
801.547401	1
802.092049	1
804.134048	1
804.474421	1
804.806385	1
805.134239	3
805.639354	1
806.140621	1
808.119998	1
808.146034	4
808.623582	1
809.145027	1
810.054414	3
810.555449	1
812.616747	2
813.120161	9
813.624044	6
814.124007	2
814.628822	1
815.120921	1
817.124661	2
817.627855	1
818.131514	1
824.109105	1
839.074237	1
840.080549	1
848.089311	1
1047.888260	2
1048.215105	2
1048.554929	2
1048.888502	2
1049.228654	1
1049.890177	1
1055.541707	1
1178.744787	10
1179.249460	7
1179.746803	4
1180.252120	3
1180.757761	1
1189.736856	1
1190.233093	1
1190.729641	1
1191.242031	1
1205.700590	1
1206.206850	1
1206.705510	1
1221.995860	1
1224.258223	1
1309.605527	1
1309.936804	1
1310.268207	1
1321.983330	1
