Mass spectrum: NADP+; LC-ESI-ITFT; MS2; m/z:373.05; POS
Name: NADP+
Name: NADP
Name: Nicotinamide adenine dinucleotide phosphate
Name: beta-Nicotinamide adenine dinucleotide phosphate
Name: TPN
Name: Triphosphopyridine nucleotide
Class: Natural Product
Formula: [C21H29N7O17P3]+
Exact mass: 744.08328
SMILES: NC(=O)c(c5)c[n+1](cc5)[C@H](O1)[C@H](O)[C@H](O)[C@@H](COP(O)(=O)OP(O)(=O)OC[C@@H](O2)[C@@H](O)[C@@H](OP(O)(O)=O)[C@@H]2n(c3)c(n4)c(c(N)nc4)n3)1
InChI: InChI=1S/C21H28N7O17P3/c22-17-12-19(25-7-24-17)28(8-26-12)21-16(44-46(33,34)35)14(30)11(43-21)6-41-48(38,39)45-47(36,37)40-5-10-13(29)15(31)20(42-10)27-3-1-2-9(4-27)18(23)32/h1-4,7-8,10-11,13-16,20-21,29-31H,5-6H2,(H7-,22,23,24,25,32,33,34,35,36,37,38,39)/p+1/t10-,11-,13-,14-,15-,16-,20-,21-/m1/s1
Instrument: LTQ Orbitrap XL, Thermo Scientfic
Instrument type: LC-ESI-ITFT
Ms type: MS2
Ion mode: POSITIVE
Collision energy: 35eV
Ionization: ESI
Column name: TOSOH TSKgel ODS-100V  5um Part no. 21456
Retention time: 8.877492 min
Base peak: 604.138733
Precursor m/z: 373.05
m/z	relative intensity
122.970047	542
124.026672	20
136.043961	25
219.091827	1
232.263763	16
233.307343	1
272.953613	2
312.207916	1
330.080719	1
335.176453	5
363.647888	196
364.641510	2
365.595825	1
366.388580	1
368.476166	1
372.194519	1
392.456512	1
410.093933	42
411.208099	2
414.966064	1
428.164520	3
450.600006	1
469.015442	9
470.009003	2
486.943634	3
490.135437	94
491.104828	8
506.242828	8
507.946930	24
508.989532	4
524.315369	1
586.017517	15
587.144714	2
591.021973	1
604.138733	999
605.158386	102
609.138123	7
621.975281	377
623.091858	50
