Mass spectrum: S-Adenosyl-L-homocysteine; LC-ESI-ITFT; MS; NEG
Name: S-Adenosyl-L-homocysteine
Name: S-Adenosylhomocysteine
Class: Natural Product
Formula: C14H20N6O5S
Exact mass: 384.12159
SMILES: OC(=O)[C@@H](N)CCSC[C@@H](O1)[C@@H](O)[C@@H](O)[C@@H]1n(c3)c(n2)c(n3)c(N)nc2
InChI: InChI=1S/C14H20N6O5S/c15-6(14(23)24)1-2-26-3-7-9(21)10(22)13(25-7)20-5-19-8-11(16)17-4-18-12(8)20/h4-7,9-10,13,21-22H,1-3,15H2,(H,23,24)(H2,16,17,18)/t6-,7+,9+,10+,13+/m0/s1
Instrument: LTQ Orbitrap XL, Thermo Scientfic
Instrument type: LC-ESI-ITFT
Ms type: MS
Ion mode: NEGATIVE
Collision energy: 35eV
Ionization: ESI
Column name: TOSOH TSKgel ODS-100V  5um Part no. 21456
Retention time: 5.459175 min
Base peak: 383.112732
m/z	relative intensity
105.001529	1
107.034728	1
107.036402	12
107.038075	1
112.985508	1
129.001362	2
133.965678	1
134.019597	3
134.025753	1
134.028098	1
134.029271	1
134.030443	1
134.032202	1
134.033375	1
134.034548	1
134.036307	1
134.038652	2
134.039532	3
134.040411	2
134.042171	9
134.044223	23
134.046569	521
134.048914	22
134.050381	4
134.051553	5
134.052726	2
134.053606	2
134.055366	2
134.056538	1
134.058298	1
134.059764	1
134.061231	1
134.062110	1
134.064163	1
134.067976	1
134.073548	3
134.127533	1
135.043750	7
135.047604	1
135.049976	23
135.052348	1
139.006408	1
144.048230	1
147.011674	4
148.043199	1
176.038616	9
188.038187	10
248.053564	1
248.059469	33
248.065374	1
249.062674	3
250.054795	1
266.088889	3
267.072391	1
282.065697	1
302.065789	5
304.062347	1
312.094579	11
313.098040	1
329.084342	1
346.054414	1
382.721818	2
382.982234	4
382.997810	1
383.006307	1
383.011972	1
383.020469	1
383.028967	1
383.034632	1
383.040297	1
383.043130	1
383.048795	1
383.051628	1
383.054461	1
383.062960	2
383.070042	2
383.074292	2
383.078541	3
383.082791	3
383.089874	7
383.101207	25
383.112541	999
383.123875	25
383.129542	4
383.136627	6
383.142294	2
383.146545	3
383.153630	2
383.160715	2
383.164966	1
383.169217	1
383.176302	1
383.183388	1
383.187639	1
383.197560	1
383.215984	1
383.242915	4
383.503862	1
383.985328	1
384.093391	1
384.097658	1
384.103347	4
384.114725	154
384.127526	4
384.133216	1
384.138905	1
384.148863	1
384.245611	1
385.098001	1
385.107996	35
385.117991	8
386.110858	5
386.118025	1
405.095244	3
419.089629	2
437.031956	1
446.108804	1
451.100987	2
453.076889	1
481.081191	2
483.038844	1
504.939125	1
529.945447	1
650.185629	1
650.210687	43
650.229483	1
650.235748	1
651.214228	6
652.204358	1
652.220093	1
674.171056	1
694.129049	1
766.866525	1
767.171542	1
767.187601	1
767.203660	4
767.235780	199
767.263886	4
767.283963	1
767.291994	1
767.304041	1
767.605301	1
768.204331	1
768.236513	64
768.256628	1
768.268698	1
769.231144	5
769.247268	3
770.231747	1
789.217982	3
790.215878	1
791.194645	1
803.345416	1
811.158170	1
820.149421	1
821.157668	1
1151.349874	7
1151.394161	1
1152.354340	3
1153.352721	1
1154.359809	1
1205.275234	1
