Mass spectrum: Creatine; LC-ESI-ITFT; MS; POS
Name: Creatine
Name: alpha-Methylguanidino acetic acid
Name: Methylglycocyamine
Class: Natural Product
Formula: C4H9N3O2
Exact mass: 131.06948
SMILES: OC(=O)CN(C)C(N)=N
InChI: InChI=1S/C4H9N3O2/c1-7(4(5)6)2-3(8)9/h2H2,1H3,(H3,5,6)(H,8,9)
Instrument: LTQ Orbitrap XL, Thermo Scientfic
Instrument type: LC-ESI-ITFT
Ms type: MS
Ion mode: POSITIVE
Collision energy: 35eV
Ionization: ESI
Column name: TOSOH TSKgel ODS-100V  5um Part no. 21456
Retention time: 5.001542 min
Base peak: 132.076385
m/z	relative intensity
100.111848	1
102.033553	1
110.019746	1
116.034066	2
131.637095	1
131.917969	1
131.927986	1
131.997279	2
132.026788	1
132.047422	1
132.050001	5
132.052581	1
132.053727	1
132.056020	1
132.057167	1
132.059173	1
132.060033	1
132.061180	1
132.061753	1
132.063473	1
132.065766	1
132.066913	1
132.068060	1
132.069207	1
132.070353	2
132.072073	7
132.074080	14
132.076374	999
132.078381	14
132.080388	7
132.081248	4
132.082108	2
132.082682	1
132.083255	1
132.084115	2
132.084975	1
132.085549	1
132.086409	1
132.087556	1
132.088130	1
132.088703	1
132.090997	1
132.092431	1
132.093291	1
132.094438	1
132.096445	1
132.099600	1
132.102755	5
132.109925	1
132.125988	1
132.152383	1
132.155540	2
132.225012	1
132.235064	1
132.517855	1
133.073406	5
133.074856	1
133.077176	1
133.079496	36
134.043949	33
134.079718	1
141.957852	2
149.022904	2
158.002177	2
163.132278	1
171.148702	8
174.127150	4
179.063200	1
182.984328	2
187.125577	1
223.062608	1
263.145883	46
264.148537	1
391.282894	6
392.286254	1
522.352026	1
525.282239	1
