Mass spectrum: L-Tryptophan; LC-ESI-ITFT; MS; POS
Name: L-Tryptophan
Name: Tryptophan
Name: (S)-alpha-Amino-beta-(3-indolyl)-propionic acid
Class: Natural Product
Formula: C11H12N2O2
Exact mass: 204.08988
SMILES: C1=CC=C2C(=C1)C(=CN2)C[C@@H](C(=O)O)N
InChI: InChI=1S/C11H12N2O2/c12-9(11(14)15)5-7-6-13-10-4-2-1-3-8(7)10/h1-4,6,9,13H,5,12H2,(H,14,15)/t9-/m0/s1
Instrument: LTQ Orbitrap XL, Thermo Scientfic
Instrument type: LC-ESI-ITFT
Ms type: MS
Ion mode: POSITIVE
Collision energy: 35eV
Ionization: ESI
Column name: TOSOH TSKgel ODS-100V  5um Part no. 21456
Retention time: 13.954697 min
Base peak: 205.096817
m/z	relative intensity
100.111848	3
102.033553	3
110.019746	7
110.521485	1
111.019815	1
118.064726	1
130.064906	1
132.080388	3
143.072629	2
144.080628	4
146.059807	11
147.063208	1
149.022904	1
154.989704	1
158.002552	1
158.096003	1
158.961247	1
159.091551	6
162.998158	1
163.132671	3
167.012526	1
170.059836	2
170.096285	1
171.149125	24
172.152452	1
173.078147	1
174.127584	11
175.130986	1
179.063653	2
182.984796	3
185.114619	1
186.956467	1
187.126544	4
188.025702	1
188.057361	1
188.059309	1
188.062232	1
188.064181	1
188.066616	2
188.070514	182
188.073437	2
188.074898	2
188.078309	1
188.115341	1
189.073687	19
190.076988	1
190.992536	2
199.180373	3
204.247535	1
204.816617	1
204.943464	1
205.003329	1
205.045471	3
205.051017	1
205.052681	1
205.067656	1
205.070984	1
205.073758	1
205.076531	1
205.079305	1
205.082079	2
205.083743	2
205.087071	5
205.089290	2
205.092064	11
205.097057	999
205.100386	10
205.102051	12
205.105379	4
205.108709	2
205.110928	3
205.113147	1
205.116477	1
205.118696	1
205.120916	1
205.122025	1
205.124245	1
205.125355	1
205.127575	1
205.130904	1
205.136454	1
205.142003	1
205.148108	4
205.190295	1
205.250267	1
205.377518	1
205.951332	1
206.094882	2
206.096559	1
206.099353	123
206.103265	1
206.104942	1
207.102258	4
283.173748	1
300.200792	1
305.155904	3
375.237315	1
391.282894	18
392.286254	3
409.185630	11
410.188058	1
413.263556	1
436.339497	1
595.371480	5
596.374294	2
