Mass spectrum: L-Citrulline; LC-ESI-ITFT; MS2; m/z:159.08; POS
Name: L-Citrulline
Name: 2-Amino-5-ureidovaleric acid
Name: Citrulline
Class: Natural Product
Formula: C6H13N3O3
Exact mass: 175.09569
SMILES: NC(=O)NCCC[C@H](N)C(O)=O
InChI: InChI=1S/C6H13N3O3/c7-4(5(10)11)2-1-3-9-6(8)12/h4H,1-3,7H2,(H,10,11)(H3,8,9,12)/t4-/m0/s1
Instrument: LTQ Orbitrap XL, Thermo Scientfic
Instrument type: LC-ESI-ITFT
Ms type: MS2
Ion mode: POSITIVE
Collision energy: 35eV
Ionization: ESI
Column name: TOSOH TSKgel ODS-100V  5um Part no. 21456
Retention time: 4.865177 min
Base peak: 115.019852
Precursor m/z: 159.08
m/z	relative intensity
69.942619	557
71.979507	2
74.111168	1
85.995094	1
86.995987	18
97.059998	95
97.970062	5
107.075485	3
113.059845	561
114.076202	158
115.019852	999
116.053452	38
116.969025	7
117.955200	3
131.003769	16
141.005569	152
142.037048	24
144.046555	4
