Mass spectrum: Ribitol; LC-ESI-ITFT; MS2; m/z:176.10; POS
Name: Ribitol
Name: Adonitol
Class: Natural Product
Formula: C5H12O5
Exact mass: 152.06847
SMILES: OC([C@H]([C@H]([C@H](CO)O)O)O)
InChI: InChI=1S/C5H12O5/c6-1-3(8)5(10)4(9)2-7/h3-10H,1-2H2/t3-,4+,5-
Instrument: LTQ Orbitrap XL, Thermo Scientfic
Instrument type: LC-ESI-ITFT
Ms type: MS2
Ion mode: POSITIVE
Collision energy: 35eV
Ionization: ESI
Column name: TOSOH TSKgel ODS-100V  5um Part no. 21456
Retention time: 5.055590 min
Base peak: 159.020233
Precursor m/z: 176.10
m/z	relative intensity
70.034760	1
87.951263	1
94.025421	1
113.130096	2
115.050476	6
116.151505	1
119.328659	1
120.155029	3
130.118988	4
130.982269	1
132.018555	1
133.113876	8
141.140396	1
158.031891	25
159.020233	999
160.172104	1
