Mass spectrum: L-Ornithine; LC-ESI-ITFT; MS; POS
Name: L-Ornithine
Name: (S)-2,5-Diaminovaleric acid
Name: (S)-2,5-Diaminopentanoic acid
Name: (S)-2,5-Diaminopentanoate
Class: Natural Product
Formula: C5H12N2O2
Exact mass: 132.08988
SMILES: NCCC[C@H](N)C(O)=O
InChI: InChI=1S/C5H12N2O2/c6-3-1-2-4(7)5(8)9/h4H,1-3,6-7H2,(H,8,9)/t4-/m0/s1
Instrument: LTQ Orbitrap XL, Thermo Scientfic
Instrument type: LC-ESI-ITFT
Ms type: MS
Ion mode: POSITIVE
Collision energy: 35eV
Ionization: ESI
Column name: TOSOH TSKgel ODS-100V  5um Part no. 21456
Retention time: 3.922113 min
Base peak: 133.096985
m/z	relative intensity
100.111848	2
102.033748	1
115.065132	1
115.082619	1
115.084718	2
115.086583	101
115.088216	1
115.088682	1
115.090315	1
115.108041	1
116.048704	1
116.066416	1
116.068778	2
116.070432	115
116.072085	2
116.072794	1
116.074447	1
116.089330	4
116.092165	1
117.073650	5
130.008048	2
132.652520	1
132.948233	1
133.016883	2
133.020070	1
133.047314	1
133.070217	5
133.073696	1
133.075146	1
133.078046	1
133.079785	1
133.081525	1
133.083265	1
133.085005	1
133.086165	1
133.087325	1
133.087905	1
133.089355	2
133.090225	2
133.091965	6
133.094576	16
133.095446	7
133.096896	999
133.098926	15
133.099506	12
133.100956	3
133.101536	5
133.103277	1
133.104437	2
133.105597	1
133.106758	1
133.108208	1
133.109658	1
133.110238	1
133.111109	1
133.111979	1
133.113719	1
133.115170	1
133.116040	1
133.119521	1
133.120392	1
133.123583	5
133.146505	1
133.173788	1
133.177271	2
133.245808	1
133.543508	1
134.093795	2
134.097902	1
134.099955	45
134.102008	1
134.986037	1
135.100454	2
141.958171	2
143.039018	1
157.999926	1
158.002552	40
158.005178	1
163.132278	2
170.095866	1
171.149125	16
174.127584	7
176.013337	1
182.984796	2
187.125577	2
199.028604	1
199.179842	1
203.060157	2
249.065355	1
265.180585	1
265.187110	87
265.192820	1
265.194452	1
266.189980	6
335.149106	2
391.282894	5
392.286254	1
421.233509	1
523.372770	2
553.321953	1
