Mass spectrum: Adenine; LC-ESI-ITFT; MS2; m/z:134.05; NEG
Name: Adenine
Name: 6-Aminopurine
Class: Natural Product
Formula: C5H5N5
Exact mass: 135.05450
SMILES: C1=NC2=C(N1)C(=NC=N2)N
InChI: InChI=1S/C5H5N5/c6-4-3-5(9-1-7-3)10-2-8-4/h1-2H,(H3,6,7,8,9,10)
Instrument: LTQ Orbitrap XL, Thermo Scientfic
Instrument type: LC-ESI-ITFT
Ms type: MS2
Ion mode: NEGATIVE
Collision energy: 35eV
Ionization: ESI
Column name: TOSOH TSKgel ODS-100V  5um Part no. 21456
Retention time: 5.471168 min
Base peak: 107.039856
Ion type: [M-H]-
Precursor m/z: 134.05
m/z	relative intensity
106.068466	187
107.039856	999
