Mass spectrum: Uridine; LC-ESI-ITFT; MS2; m/z:171.15; POS
Name: Uridine
Class: Natural Product
Formula: C9H12N2O6
Exact mass: 244.06954
SMILES: OC[C@@H](O1)[C@@H](O)[C@@H](O)[C@@H]1N(C=2)C(=O)NC(=O)C2
InChI: InChI=1S/C9H12N2O6/c12-3-4-6(14)7(15)8(17-4)11-2-1-5(13)10-9(11)16/h1-2,4,6-8,12,14-15H,3H2,(H,10,13,16)/t4-,6-,7-,8-/m1/s1
Instrument: LTQ Orbitrap XL, Thermo Scientfic
Instrument type: LC-ESI-ITFT
Ms type: MS2
Ion mode: POSITIVE
Collision energy: 35eV
Ionization: ESI
Column name: TOSOH TSKgel ODS-100V  5um Part no. 21456
Retention time: 9.214213 min
Base peak: 88.985397
Precursor m/z: 171.15
m/z	relative intensity
57.029068	20
71.990784	183
73.022354	21
80.917503	1
83.020340	4
85.095963	1
88.985397	999
92.066055	4
93.071487	4
99.140610	1
100.165588	1
101.053238	15
107.152222	1
108.959579	6
113.038391	1
115.246140	1
129.098312	8
129.987854	2
135.214859	1
143.078094	1
153.062561	4
154.041763	1
171.107468	3
