Mass spectrum: Ribitol; LC-ESI-ITFT; MS2; m/z:175.06; POS
Name: Ribitol
Name: Adonitol
Class: Natural Product
Formula: C5H12O5
Exact mass: 152.06847
SMILES: OCC([H])(O)C([H])(O)C([H])(O)CO
InChI: InChI=1S/C5H12O5/c6-1-3(8)5(10)4(9)2-7/h3-10H,1-2H2/t3-,4+,5-
Instrument: LTQ Orbitrap XL, Thermo Scientfic
Instrument type: LC-ESI-ITFT
Ms type: MS2
Ion mode: POSITIVE
Collision energy: 35eV
Ionization: ESI
Column name: TOSOH TSKgel ODS-100V  5um Part no. 21456
Retention time: 5.030595 min
Base peak: 131.990402
Precursor m/z: 175.06
m/z	relative intensity
57.086388	5
57.853607	4
86.070274	5
87.953087	324
90.095642	2
99.080307	2
99.707092	3
105.052628	2
106.253433	17
107.200974	4
112.080627	2
113.083679	8
115.997528	2
117.968094	101
119.039963	48
122.073349	44
129.475998	10
130.106445	328
131.990402	999
133.130463	305
134.125504	2
138.945114	4
142.081726	3
144.081451	25
145.262344	152
146.146652	167
147.197952	27
157.064087	22
157.973755	36
159.146118	261
160.210220	113
171.972488	4
174.077774	14
175.132492	16
