Mass spectrum: Succinic acid; LC-ESI-ITFT; MS2; m/z:117.02; NEG
Name: Succinate
Name: Succinic acid
Name: Butanedionic acid
Name: Ethylenesuccinic acid
Class: Natural Product
Formula: C4H6O4
Exact mass: 118.02661
SMILES: OC(=O)CCC(O)=O
InChI: InChI=1S/C4H6O4/c5-3(6)1-2-4(7)8/h1-2H2,(H,5,6)(H,7,8)
Instrument: LTQ Orbitrap XL, Thermo Scientfic
Instrument type: LC-ESI-ITFT
Ms type: MS2
Ion mode: NEGATIVE
Collision energy: 35eV
Ionization: ESI
Column name: TOSOH TSKgel ODS-100V  5um Part no. 21456
Retention time: 10.253587 min
Base peak: 72.913879
Precursor m/z: 117.02
m/z	relative intensity
72.913879	999
98.948059	273
