Mass spectrum: Ribitol; LC-ESI-ITFT; MS; POS
Name: Ribitol
Name: Adonitol
Class: Natural Product
Formula: C5H12O5
Exact mass: 152.06847
SMILES: OCC([H])(O)C([H])(O)C([H])(O)CO
InChI: InChI=1S/C5H12O5/c6-1-3(8)5(10)4(9)2-7/h3-10H,1-2H2/t3-,4+,5-
Instrument: LTQ Orbitrap XL, Thermo Scientfic
Instrument type: LC-ESI-ITFT
Ms type: MS
Ion mode: POSITIVE
Collision energy: 35eV
Ionization: ESI
Column name: TOSOH TSKgel ODS-100V  5um Part no. 21456
Retention time: 5.042210 min
Base peak: 153.075958
m/z	relative intensity
100.112037	20
101.096275	2
102.033943	5
102.091007	1
107.070205	1
108.539558	1
110.019964	1
111.020256	1
112.050606	2
113.071062	1
116.528356	16
116.965336	1
117.052836	1
117.054750	92
117.056185	1
117.056903	1
117.076760	1
118.057941	1
123.055343	1
124.016224	1
124.514667	11
125.533627	4
126.035376	1
128.107257	2
128.511909	2
129.052957	7
129.127480	2
129.510250	1
129.554803	1
130.008048	1
130.032411	1
130.159097	1
130.492390	1
132.003868	1
132.076947	1
133.079785	2
133.520192	1
134.033103	1
134.983371	1
134.987518	1
135.038188	2
135.052120	1
135.055678	1
135.056864	1
135.058050	2
135.060125	2
135.063090	6
135.065462	470
135.067241	5
135.068130	6
135.069316	1
135.070799	2
135.072578	1
135.073467	1
135.092743	2
135.101344	1
135.147330	1
136.021355	1
136.061816	1
136.068711	21
137.041656	29
137.044384	1
137.069539	1
137.132609	17
137.543320	2
138.135712	1
139.982321	4
141.958810	6
144.030335	1
144.529534	2
145.025395	1
145.028035	42
145.031004	1
145.529782	3
146.028137	4
146.046804	1
147.026497	1
148.097067	1
149.023935	26
149.953288	2
150.027193	1
150.112962	14
151.097081	4
151.950356	1
152.528327	1
152.878337	1
152.894762	1
152.976927	1
153.015532	1
153.037701	1
153.043065	4
153.045568	1
153.052721	1
153.054151	1
153.058443	1
153.059874	1
153.061305	1
153.062735	1
153.064166	1
153.065597	1
153.067028	3
153.068101	1
153.069889	4
153.073109	13
153.075971	999
153.078117	10
153.079190	12
153.080621	2
153.082410	4
153.084556	2
153.085630	2
153.087061	1
153.090639	1
153.092070	1
153.093501	1
153.094932	1
153.096363	1
153.098510	1
153.101373	1
153.108887	4
153.136445	1
153.174752	1
153.257501	1
153.626569	1
154.076413	1
154.079303	53
154.082555	1
154.990068	1
155.079765	8
155.142891	11
156.146375	1
157.999926	1
158.002927	43
158.096379	9
158.961625	5
159.005926	1
159.065401	1
159.067296	1
159.068812	1
159.071843	1
159.073359	1
159.076770	52
159.079044	1
159.080181	1
159.112778	1
160.079698	1
161.111065	1
162.998158	1
163.129917	1
163.133065	41
164.060684	21
164.092045	1
164.136124	1
164.561151	1
164.562347	1
165.055099	1
165.059505	2
165.062710	1
167.034135	4
167.977590	1
168.123668	1
170.097123	12
170.102571	8
171.100923	1
171.110646	1
171.138553	7
171.142782	1
171.146165	2
171.149548	193
171.152509	2
171.153778	2
171.157161	1
171.159699	1
171.188464	1
172.046267	1
172.049677	51
172.052234	1
172.152879	14
172.169946	1
172.551203	4
173.079007	1
174.046019	1
174.124546	1
174.128018	59
174.131056	1
174.132358	1
175.018097	1
175.036467	1
175.046965	1
175.050465	1
175.054402	4
175.058339	351
175.060964	4
175.062277	4
175.064027	1
175.065777	1
175.068840	1
175.089843	5
175.098596	1
175.130986	6
175.179150	1
175.981143	1
176.013778	1
176.061424	15
176.092316	2
176.095406	2
176.099379	6
176.103351	484
176.106000	6
176.107324	6
176.109090	1
176.110856	2
176.113946	1
176.115270	1
176.117036	1
176.143969	2
176.225245	1
177.062029	1
177.099863	2
177.106540	23
178.035736	1
178.107101	1
179.037405	3
179.063653	16
179.536641	5
180.032037	1
180.035687	81
180.038425	1
180.039794	1
180.066718	1
180.158947	3
180.536817	7
181.035441	4
182.033339	3
182.985263	12
184.032354	7
184.564482	1
185.030920	3
185.114619	3
186.030447	3
186.184865	2
186.955984	3
187.122676	1
187.126544	49
188.129475	2
190.979076	1
190.993035	2
191.031430	2
192.976184	1
193.131221	1
194.116962	1
194.118495	1
194.975983	1
195.087622	1
195.122625	1
196.154284	1
198.084754	1
199.029134	2
199.180904	26
200.183421	1
205.085407	1
208.190780	6
214.216026	1
215.002862	1
216.207181	2
217.105290	1
220.111991	6
221.050706	1
222.112313	1
223.039327	17
223.063867	14
224.063353	1
225.060006	1
226.158371	1
228.232103	1
232.170430	1
233.174638	10
234.178607	1
237.028330	1
240.094735	20
240.180488	1
240.595840	3
241.093566	2
243.044876	1
244.238013	1
248.077138	1
248.083781	88
248.088209	1
248.091162	1
248.584945	11
248.589387	1
249.084660	1
249.087630	1
250.200711	1
251.992388	7
253.000315	7
253.003355	1
255.072094	2
255.156757	2
255.570669	3
256.029691	3
256.063742	1
256.066064	1
256.069934	82
256.074578	1
256.571439	9
257.069747	3
257.072861	2
258.066814	1
259.226501	1
260.066545	6
260.069714	2
260.567925	1
260.995079	1
261.064382	4
262.064767	2
262.991144	1
262.997589	2
264.989824	1
269.044478	19
270.048373	1
277.200773	3
277.205132	1
278.232298	1
279.158552	4
280.161171	1
282.221186	3
283.224159	1
293.018869	1
294.226753	1
297.054372	1
299.181639	1
301.141243	1
305.143821	23
305.148856	1
305.195176	1
306.147070	1
316.128228	2
316.630998	1
320.294622	1
321.226716	1
322.257928	2
324.116967	8
324.122478	1
324.216185	1
324.619036	2
327.125734	7
329.093636	1
329.097019	1
329.102657	141
329.110551	1
329.113935	1
330.105210	7
331.105521	1
332.103528	10
332.108100	2
332.607088	1
333.106053	1
335.110865	1
336.099115	1
343.208159	1
347.064237	1
348.062941	1
349.061034	32
349.106616	2
350.058477	1
350.063426	1
350.252784	1
351.056475	1
356.059028	1
358.055988	30
359.062702	8
359.197680	1
359.699693	1
366.079239	1
367.057566	1
367.186445	4
367.687993	1
367.693319	1
369.052804	1
369.059500	3
373.116899	1
374.175538	1
375.172795	2
375.678421	1
389.094806	1
391.268275	1
391.277046	1
391.284356	128
391.293128	1
391.298976	1
392.287721	21
393.290531	1
395.039153	2
397.035457	1
403.033470	1
405.029162	1
405.067656	1
413.265143	52
413.276252	1
414.268274	7
414.276238	1
415.271865	1
419.313189	1
426.356690	2
427.377851	2
429.237976	2
436.341219	9
436.348105	1
437.343196	2
449.358428	1
464.370027	1
475.379199	1
490.386985	1
500.131429	1
501.127962	4
521.127476	2
521.134217	1
565.331839	4
566.336057	1
566.376791	2
803.544293	1
804.547694	1
1221.995860	1
1321.992409	1
