Mass spectrum: Hypotaurine; LC-ESI-ITFT; MS2; m/z:251.04; POS
Name: Hypotaurine
Name: 2-Aminoethanesulfinic acid
Class: Natural Product
Formula: C2H7NO2S
Exact mass: 109.01975
SMILES: NCCS(O)=O
InChI: InChI=1S/C2H7NO2S/c3-1-2-6(4)5/h1-3H2,(H,4,5)
Instrument: LTQ Orbitrap XL, Thermo Scientfic
Instrument type: LC-ESI-ITFT
Ms type: MS2
Ion mode: POSITIVE
Collision energy: 35eV
Ionization: ESI
Column name: TOSOH TSKgel ODS-100V  5um Part no. 21456
Retention time: 4.799723 min
Base peak: 125.936035
Precursor m/z: 251.04
m/z	relative intensity
108.016052	12
117.054031	1
125.936035	999
126.790863	1
160.138809	3
175.107681	1
233.063187	1
