Mass spectrum: DL-Isocitric acid; LC-ESI-ITFT; MS2; m/z:173.01; NEG
Name: Isocitrate
Name: Isocitric acid
Name: 1-Hydroxytricarballylic acid
Name: 1-Hydroxypropane-1,2,3-tricarboxylic acid
Name: DL-Isocitric acid
Class: Natural Product
Formula: C6H8O7
Exact mass: 192.02700
SMILES: OC(=O)CC(C(O)=O)C(O)C(O)=O
InChI: InChI=1S/C6H8O7/c7-3(8)1-2(5(10)11)4(9)6(12)13/h2,4,9H,1H2,(H,7,8)(H,10,11)(H,12,13)
Instrument: LTQ Orbitrap XL, Thermo Scientfic
Instrument type: LC-ESI-ITFT
Ms type: MS2
Ion mode: NEGATIVE
Collision energy: 35eV
Ionization: ESI
Column name: TOSOH TSKgel ODS-100V  5um Part no. 21456
Retention time: 8.899847 min
Base peak: 110.952118
Precursor m/z: 173.01
m/z	relative intensity
110.952118	999
129.033508	216
155.000656	294
