Mass spectrum: Uridine; LC-ESI-ITFT; MS; POS
Name: Uridine
Class: Natural Product
Formula: C9H12N2O6
Exact mass: 244.06954
SMILES: OC[C@@H](O1)[C@@H](O)[C@@H](O)[C@@H]1N(C=2)C(=O)NC(=O)C2
InChI: InChI=1S/C9H12N2O6/c12-3-4-6(14)7(15)8(17-4)11-2-1-5(13)10-9(11)16/h1-2,4,6-8,12,14-15H,3H2,(H,10,13,16)/t4-,6-,7-,8-/m1/s1
Instrument: LTQ Orbitrap XL, Thermo Scientfic
Instrument type: LC-ESI-ITFT
Ms type: MS
Ion mode: POSITIVE
Collision energy: 35eV
Ionization: ESI
Column name: TOSOH TSKgel ODS-100V  5um Part no. 21456
Retention time: 5.539090 min
Base peak: 268.104004
m/z	relative intensity
100.111848	6
102.033553	3
102.091007	2
110.019746	3
111.020036	1
113.013399	1
113.030648	1
113.031556	1
113.032464	2
113.034280	124
113.036323	2
113.038139	1
113.055166	1
114.037404	2
114.060180	1
133.049343	1
133.078916	1
136.058218	1
136.061516	39
136.064214	1
137.064689	1
137.132002	1
141.958171	5
149.002289	1
149.022904	4
150.058089	5
151.096379	1
155.142891	2
158.002552	7
158.096003	2
162.528670	1
163.132671	11
167.012526	1
167.033727	1
170.096285	2
171.138130	2
171.145319	1
171.149125	55
171.152509	1
172.152452	3
172.976690	10
173.078147	1
174.127584	25
175.089406	1
175.130548	2
179.063200	4
180.158947	1
181.049244	1
182.028700	2
182.985263	19
183.041849	4
185.114144	1
186.184865	1
187.126060	10
190.028489	1
194.117473	9
195.122110	1
199.180373	8
208.190213	1
214.002990	1
220.111375	1
223.063237	1
224.127985	1
233.174638	2
242.561791	2
245.010555	1
245.064894	1
245.067792	1
245.070691	3
245.076488	345
245.083010	3
245.085184	1
245.088808	2
245.143172	1
246.073787	1
246.079620	31
247.080119	2
264.050445	1
266.835101	1
267.686784	1
267.874668	1
267.964956	1
268.027936	3
268.047000	1
268.058605	1
268.063579	1
268.066895	1
268.071869	1
268.075186	1
268.077673	1
268.081818	1
268.084305	1
268.085964	1
268.090938	4
268.093426	2
268.096742	9
268.104205	999
268.110838	10
268.115814	2
268.118301	5
268.121618	1
268.123277	1
268.124936	1
268.128253	1
268.129911	1
268.131570	1
268.133229	1
268.134887	1
268.138205	1
268.141522	1
268.148157	1
268.153133	1
268.161428	1
268.180506	3
268.242732	1
268.333206	1
268.521772	1
269.102002	6
269.106172	110
269.113676	1
269.382384	1
270.102865	1
270.106219	3
270.109573	3
272.034952	1
277.199902	1
279.157671	2
282.220291	2
290.079557	1
294.225799	1
299.181639	1
308.082650	1
308.090822	103
308.100015	1
309.093254	7
310.086146	2
315.038592	1
322.256836	1
343.992533	1
345.000994	8
353.044016	1
361.044848	1
382.088768	1
385.017230	1
386.026654	1
391.282894	55
392.286254	11
393.289058	1
394.069544	1
413.263556	1
436.339497	2
437.343196	1
484.113777	1
489.144285	11
490.147084	1
513.100567	1
542.052895	1
543.062629	1
658.379757	9
659.382842	3
