Mass spectrum: L-Citrulline; LC-ESI-ITFT; MS2; m/z:176.10; POS
Name: L-Citrulline
Name: 2-Amino-5-ureidovaleric acid
Name: Citrulline
Class: Natural Product
Formula: C6H13N3O3
Exact mass: 175.09569
SMILES: NC(=O)NCCC[C@H](N)C(O)=O
InChI: InChI=1S/C6H13N3O3/c7-4(5(10)11)2-1-3-9-6(8)12/h4H,1-3,7H2,(H,10,11)(H3,8,9,12)/t4-/m0/s1
Instrument: LTQ Orbitrap XL, Thermo Scientfic
Instrument type: LC-ESI-ITFT
Ms type: MS2
Ion mode: POSITIVE
Collision energy: 35eV
Ionization: ESI
Column name: TOSOH TSKgel ODS-100V  5um Part no. 21456
Retention time: 4.862303 min
Base peak: 159.063126
Precursor m/z: 176.10
m/z	relative intensity
70.089081	1
113.156357	2
115.074234	7
116.092255	1
130.137451	3
133.147705	5
141.015625	1
159.063126	999
