Mass spectrum: Guanine; LC-ESI-ITFT; MS2; m/z:136.06; POS
Name: Guanine
Name: 2-Amino-6-hydroxypurine
Class: Natural Product
Formula: C5H5N5O
Exact mass: 151.04941
SMILES: C1=NC2=C(N1)C(=O)N=C(N2)N
InChI: InChI=1S/C5H5N5O/c6-5-9-3-2(4(11)10-5)7-1-8-3/h1H,(H4,6,7,8,9,10,11)
Instrument: LTQ Orbitrap XL, Thermo Scientfic
Instrument type: LC-ESI-ITFT
Ms type: MS2
Ion mode: POSITIVE
Collision energy: 35eV
Ionization: ESI
Column name: TOSOH TSKgel ODS-100V  5um Part no. 21456
Retention time: 5.486912 min
Base peak: 108.047546
Precursor m/z: 136.06
m/z	relative intensity
80.744125	122
87.905106	200
94.075638	233
107.118454	395
108.047546	999
108.915878	415
119.137466	402
135.879715	186
