Mass spectrum: L-Carnosine; LC-ESI-ITFT; MS2; m/z:114.06; POS
Name: Carnosine
Name: Nalpha-(beta-alanyl)-L-histidine
Name: L-Carnosine
Class: Natural Product
Formula: C9H14N4O3
Exact mass: 226.10659
SMILES: C1=C(NC=N1)C[C@@H](C(=O)O)NC(=O)CCN
InChI: InChI=1S/C9H14N4O3/c10-2-1-8(14)13-7(9(15)16)3-6-4-11-5-12-6/h4-5,7H,1-3,10H2,(H,11,12)(H,13,14)(H,15,16)/t7-/m0/s1
Instrument: LTQ Orbitrap XL, Thermo Scientfic
Instrument type: LC-ESI-ITFT
Ms type: MS2
Ion mode: POSITIVE
Collision energy: 35eV
Ionization: ESI
Column name: TOSOH TSKgel ODS-100V  5um Part no. 21456
Retention time: 3.988485 min
Base peak: 156.123947
Precursor m/z: 114.06
m/z	relative intensity
71.993942	132
73.059525	10
90.105865	24
90.992531	15
105.342819	171
106.221359	8
110.003418	138
134.296005	6
138.038193	19
152.064743	191
154.072006	2
156.123947	999
157.107132	31
180.073959	521
181.159927	33
182.065292	57
198.067947	735
199.155930	27
210.249954	11
