Mass spectrum: NAD+; LC-ESI-ITFT; MS; NEG
Name: NAD+
Name: NAD
Name: Nicotinamide adenine dinucleotide
Name: DPN
Name: Diphosphopyridine nucleotide
Name: Nadide
Class: Natural Product
Formula: [C21H28N7O14P2]+
Exact mass: 664.11695
SMILES: NC(=O)c(c5)c[n+1](cc5)C(O1)C(O)C(O)C(COP(O)(=O)OP(O)(=O)OCC(O2)C(O)C(O)C2n(c4)c(n3)c(n4)c(N)nc3)1
InChI: InChI=1S/C21H27N7O14P2/c22-17-12-19(25-7-24-17)28(8-26-12)21-16(32)14(30)11(41-21)6-39-44(36,37)42-43(34,35)38-5-10-13(29)15(31)20(40-10)27-3-1-2-9(4-27)18(23)33/h1-4,7-8,10-11,13-16,20-21,29-32H,5-6H2,(H5-,22,23,24,25,33,34,35,36,37)/p+1/t10-,11-,13-,14-,15-,16-,20-,21-/m1/s1
Instrument: LTQ Orbitrap XL, Thermo Scientfic
Instrument type: LC-ESI-ITFT
Ms type: MS
Ion mode: NEGATIVE
Collision energy: 35eV
Ionization: ESI
Column name: TOSOH TSKgel ODS-100V  5um Part no. 21456
Retention time: 8.881592 min
Base peak: 540.053223
m/z	relative intensity
109.029627	4
115.003656	1
122.037119	3
123.044822	1
133.014007	14
133.016325	1
134.037186	1
134.047155	8
135.044936	9
150.979901	2
158.921918	1
158.924946	18
158.927974	1
174.979931	4
176.935622	1
179.034213	1
192.990400	5
194.977025	1
196.052894	1
196.057562	1
196.058599	1
196.061192	31
196.065342	1
197.064500	2
211.000984	10
218.042514	1
229.011286	1
230.945855	1
232.037162	1
254.945407	2
259.022108	1
266.961929	1
271.058062	1
272.942962	1
272.949778	1
272.956594	51
272.963410	2
273.959604	2
290.966890	5
294.028071	1
300.817930	1
304.983009	5
306.049428	1
328.035671	1
328.044651	45
328.053631	1
329.041487	1
329.048253	4
330.048537	1
330.082525	1
346.036171	1
346.045901	1
346.055630	56
346.065360	2
346.073875	1
347.058776	5
348.019674	1
348.058929	1
368.004563	1
373.998760	1
378.896017	1
386.014837	2
393.129933	6
394.133268	1
404.998215	1
407.985031	1
407.997487	1
408.011501	70
408.023957	2
408.034858	1
409.014549	7
410.015027	1
420.041108	1
426.007936	1
426.021226	47
426.034517	1
427.024762	4
437.025052	1
442.075776	1
447.942680	1
448.003586	1
455.056632	1
465.982102	7
466.985255	1
487.947899	1
489.939462	1
498.043595	2
504.939125	1
507.949386	1
509.899412	1
518.894282	3
522.043904	1
524.976769	1
525.477085	1
525.914310	1
527.078340	1
527.909211	6
529.473263	1
529.947752	4
530.951805	1
539.397887	1
539.836016	3
539.857344	1
539.909484	1
539.928446	1
539.937927	1
539.945039	1
539.959261	1
539.971114	2
539.978226	1
539.990079	2
539.999562	2
540.006675	2
540.013787	7
540.032755	20
540.054094	999
540.073064	24
540.089663	8
540.103892	3
540.113378	2
540.132351	2
540.151324	1
540.156068	1
540.165555	1
540.175043	1
540.184531	1
540.194019	1
540.203507	1
540.212996	1
540.217740	1
540.246208	1
540.269933	3
540.554753	1
540.709124	1
540.837422	1
541.008556	1
541.015688	1
541.034708	4
541.056107	185
541.075130	4
541.094153	1
541.274926	1
542.039453	1
542.058527	33
542.077603	1
543.058954	2
547.955018	2
555.901815	1
558.022600	1
558.042525	3
558.062450	146
558.082376	3
558.102304	1
559.067567	22
559.085049	1
560.067889	3
562.033807	3
572.056595	1
572.079861	66
572.100543	1
573.081629	9
574.083431	2
575.951277	1
576.029629	2
578.025121	1
580.046836	1
583.970215	1
586.058073	1
592.964460	1
593.972375	1
599.929795	3
601.078015	1
601.579481	1
601.981106	6
602.981334	1
643.919788	1
661.803088	1
661.989689	1
662.015434	1
662.028306	1
662.037961	1
662.047616	2
662.073364	6
662.102332	333
662.128082	7
662.150616	2
662.169931	1
662.182808	1
662.395336	1
662.601522	2
663.075469	1
663.104503	77
663.130312	2
663.934382	1
664.105718	13
665.109202	1
673.999117	2
674.075159	11
675.078135	2
687.008054	1
698.077729	2
700.075215	1
706.967406	1
715.962826	1
717.990369	1
720.059390	1
727.016164	1
730.088698	1
734.051700	1
737.123615	3
738.126614	1
752.132889	1
760.067288	1
760.633734	3
761.137331	2
761.637458	1
770.033893	1
781.038425	1
791.039097	1
796.124348	26
796.158301	1
797.126871	5
798.127030	1
814.059762	1
815.065589	1
816.038047	1
818.103123	1
858.045879	1
859.091530	1
859.115317	1
859.134347	2
859.167651	130
859.205716	3
859.243783	1
860.139092	1
860.172455	42
860.210587	1
861.174248	7
862.177792	1
881.153258	1
882.152334	1
883.207658	1
885.224466	1
886.080961	1
905.186211	4
906.190373	1
921.096281	1
922.100590	1
933.133376	1
993.658441	5
994.155719	3
994.659297	1
995.157327	1
1009.158522	1
1056.236483	9
1057.242453	3
1058.243356	1
1081.111215	4
1082.119310	2
1083.122082	1
1092.189631	2
1092.694444	1
1093.192778	1
1102.255975	1
1103.093037	1
1103.259179	1
1105.971207	1
1153.049371	1
1182.003940	1
1190.719943	1
1191.014983	1
1191.232450	1
1193.052189	1
1203.159344	8
1204.169223	3
1205.172469	1
1221.170647	4
1222.171002	1
1235.189835	1
1265.083681	1
1265.985290	1
1325.153826	1
1325.208510	29
1325.281429	1
1325.709944	1
1326.211663	12
1327.215954	4
1328.221387	1
1347.188689	2
1348.188849	1
1365.983177	1
1418.246984	1
1424.249866	1
