Mass spectrum: Cytosine; LC-ESI-ITFT; MS2; m/z:112.05; POS
Name: Cytosine
Class: Natural Product
Formula: C4H5N3O
Exact mass: 111.04326
SMILES: NC(C=1)=NC(=O)NC1
InChI: InChI=1S/C4H5N3O/c5-3-1-2-6-4(8)7-3/h1-2H,(H3,5,6,7,8)
Instrument: LTQ Orbitrap XL, Thermo Scientfic
Instrument type: LC-ESI-ITFT
Ms type: MS2
Ion mode: POSITIVE
Collision energy: 35eV
Ionization: ESI
Column name: TOSOH TSKgel ODS-100V  5um Part no. 21456
Retention time: 4.594460 min
Base peak: 94.973404
Precursor m/z: 112.05
m/z	relative intensity
68.902374	475
94.973404	999
