Mass spectrum: CDP; LC-ESI-ITFT; MS; POS
Name: CDP
Name: Cytidine 5'-diphosphate
Name: Cytidine diphosphate
Class: Natural Product
Formula: C9H15N3O11P2
Exact mass: 403.01818
SMILES: NC(C=2)=NC(=O)N(C2)[C@H](O1)[C@H](O)[C@H](O)[C@@H](COP(O)(=O)OP(O)(O)=O)1
InChI: InChI=1S/C9H15N3O11P2/c10-5-1-2-12(9(15)11-5)8-7(14)6(13)4(22-8)3-21-25(19,20)23-24(16,17)18/h1-2,4,6-8,13-14H,3H2,(H,19,20)(H2,10,11,15)(H2,16,17,18)/t4-,6-,7-,8-/m1/s1
Instrument: LTQ Orbitrap XL, Thermo Scientfic
Instrument type: LC-ESI-ITFT
Ms type: MS
Ion mode: POSITIVE
Collision energy: 35eV
Ionization: ESI
Column name: TOSOH TSKgel ODS-100V  5um Part no. 21456
Retention time: 6.916023 min
Base peak: 404.024384
m/z	relative intensity
100.110334	1
100.111848	101
100.113740	1
101.095891	6
101.115093	1
102.012921	5
102.033553	47
102.054582	2
102.091007	4
102.535519	2
103.074792	1
103.086455	1
107.069996	10
109.022163	1
109.978779	1
110.018002	1
110.019746	69
110.021926	1
110.518193	1
110.521485	2
111.020036	19
111.116655	1
112.017680	4
112.046573	3
112.050382	3
112.999558	2
113.059480	4
113.131950	1
113.963374	13
114.091248	1
114.127396	2
115.016887	1
115.111540	1
115.963743	1
116.021790	1
117.981656	1
117.982624	1
119.063287	1
119.063777	1
120.023390	2
122.963604	2
122.964634	1
123.050960	1
123.053022	1
123.055343	110
123.057664	1
123.116473	1
124.058233	2
127.111528	1
128.106983	22
128.142869	1
129.127203	13
130.007768	25
130.010008	1
130.031851	2
130.049778	1
130.122362	1
130.158817	4
130.491545	3
130.509004	1
132.101607	1
133.067897	1
133.079206	27
134.038966	1
134.081771	1
134.986037	1
135.065165	1
135.074653	1
135.101048	1
136.021355	3
136.061516	4
137.132305	45
137.996900	1
138.135712	1
138.494895	1
139.147692	1
139.982008	1
140.010480	9
141.127367	1
141.958490	30
142.122524	2
143.039341	43
143.106899	1
143.142799	3
144.023805	1
144.138466	1
147.094541	1
148.018461	1
149.002633	1
149.018781	2
149.020499	1
149.023248	126
149.026341	1
149.028746	1
149.044898	1
149.952594	1
150.026498	5
151.004858	1
151.035005	1
151.096379	18
152.002731	1
153.075613	4
153.127139	1
153.997692	6
153.999136	1
154.990068	13
155.106762	1
155.142891	40
156.146006	1
157.122047	1
157.158510	1
158.002927	72
158.005178	1
158.093375	1
158.096379	40
158.961247	10
159.006305	1
159.099890	1
159.104059	1
159.112399	10
159.968813	1
161.110293	3
162.033933	1
162.998158	1
163.112208	1
163.126375	1
163.129523	1
163.132671	151
163.136607	1
163.138969	1
164.040046	1
164.136124	6
166.112354	1
167.012934	3
167.033727	22
168.013372	18
168.036822	1
168.123257	1
169.013696	1
169.977345	1
170.010418	1
170.096285	45
170.501365	1
170.931107	1
171.034572	2
171.100077	1
171.109801	2
171.122485	1
171.129250	1
171.130941	1
171.134324	1
171.136016	1
171.138976	37
171.141090	2
171.142359	3
171.143628	2
171.145742	5
171.149125	650
171.152932	6
171.154201	2
171.155892	3
171.158007	1
171.159699	1
171.161391	1
171.163506	1
171.164774	1
171.168581	1
171.188464	2
171.265911	1
171.367561	1
171.800584	1
171.992572	2
172.111928	1
172.132828	1
172.140933	2
172.146053	1
172.152452	57
172.169092	5
172.956066	15
172.976690	21
173.029987	1
173.078147	4
173.116862	1
173.155589	1
174.120640	1
174.121942	1
174.124112	2
174.127584	208
174.131490	2
174.134528	1
174.952951	4
175.035155	2
175.089843	32
175.095970	1
175.130548	19
176.012896	2
176.143085	2
177.085173	1
177.086953	1
178.035287	7
179.037858	1
179.063653	66
179.090811	1
179.990068	1
180.066718	3
180.137938	1
180.158947	5
180.988981	1
181.058907	1
181.979075	1
181.987885	1
181.992059	1
182.028700	4
182.190238	1
182.981056	1
182.985263	72
182.989471	1
183.100801	1
183.981436	1
183.988035	2
184.464591	1
184.985290	2
185.114619	3
185.117474	1
185.153159	1
186.148401	1
186.184865	23
186.955984	2
186.980611	1
187.113973	1
187.118325	1
187.119775	1
187.122192	2
187.126544	277
187.130895	3
187.133797	1
187.171034	1
187.187964	2
188.125576	1
188.129475	17
188.142635	1
189.121821	5
189.147860	1
190.028489	2
190.049272	1
190.158191	1
190.987551	1
192.976184	1
193.929107	1
194.117473	7
194.174701	2
195.087622	4
195.122625	20
195.993002	1
196.008033	3
196.116927	1
196.154284	3
198.127415	1
199.029134	3
199.036559	31
199.168692	1
199.176125	1
199.180373	110
199.185152	1
199.973874	1
199.987228	3
200.142769	1
200.183421	4
200.200542	1
202.028386	1
204.137860	1
205.085407	1
207.027968	1
207.094377	1
207.984401	1
208.190213	9
209.193006	1
210.127097	2
212.142486	1
212.148906	1
212.318852	1
213.159308	1
213.982296	1
214.002990	2
214.158593	1
214.179314	1
214.216026	1
215.157172	3
215.163730	1
216.172957	1
216.206580	1
217.104082	5
218.066171	1
219.172502	1
219.185986	1
219.195180	1
220.111991	37
221.073055	1
221.114659	3
223.058203	1
223.063237	60
223.131844	1
224.062720	3
224.067788	1
225.042151	1
225.060644	1
225.195906	1
226.158371	6
226.198849	1
226.216200	1
226.820867	1
227.161290	1
228.231451	12
228.234708	1
229.142688	1
229.235096	1
229.469312	1
229.475878	3
231.061864	1
232.169093	2
233.174638	45
234.013534	1
234.177930	3
234.956252	1
235.007960	4
235.168638	1
238.481085	1
239.148196	1
240.180488	3
242.002617	15
242.006172	1
242.504716	1
243.122189	1
244.013227	1
244.093884	1
244.190437	1
244.237292	2
245.210609	1
248.991127	2
249.483879	2
249.486857	1
249.489834	2
249.982575	1
249.989294	81
250.199964	2
250.490256	5
250.988219	2
250.991224	1
251.987099	1
255.155987	2
255.520515	1
256.145027	1
256.159740	1
256.262765	1
259.225713	3
261.169584	1
261.489564	1
262.237939	1
263.086228	1
264.131509	3
264.216666	1
264.231268	1
264.633311	1
267.170502	1
268.080989	1
268.174699	1
270.478054	1
273.241534	1
274.157534	2
277.200773	15
277.204260	1
278.202495	1
278.231421	3
278.462112	1
279.158552	29
279.162957	1
279.234333	1
280.161171	3
282.221186	28
282.224768	1
283.224159	3
284.293141	1
284.970691	1
287.147484	1
287.497974	1
289.235929	1
294.226753	5
297.461920	1
299.181639	5
299.185549	1
300.185074	1
300.883781	1
304.174553	1
305.195176	2
307.509424	1
309.129182	1
320.241575	1
320.293539	3
321.226716	4
321.232153	1
322.220780	2
322.257928	9
323.261178	1
324.215082	1
327.176029	1
332.553244	1
332.562408	148
332.569281	1
332.572718	1
333.062421	27
333.068161	1
333.563562	2
338.252048	3
341.289883	1
343.206958	4
343.282631	1
344.211964	1
346.007818	2
349.219993	1
350.252784	1
351.537778	1
359.520650	3
360.020760	1
366.226136	1
366.247317	1
366.283065	2
367.290130	1
367.540215	1
371.203456	1
372.536291	1
372.544440	86
372.551231	1
372.556664	1
373.046120	8
373.544724	2
383.534619	1
384.522547	1
389.268828	1
391.148429	1
391.246348	1
391.255118	1
391.259504	2
391.263889	1
391.269737	3
391.284356	494
391.297514	3
391.301900	1
391.306286	1
391.320907	1
391.323832	1
391.326756	1
391.418890	1
391.515447	1
392.261306	1
392.274513	1
392.287721	122
392.296527	1
392.300930	1
393.289058	8
394.277967	1
399.343716	1
399.502035	2
401.678244	1
403.339303	1
403.601066	1
403.760392	1
403.883014	2
403.958148	1
403.970417	1
403.979619	1
403.985754	2
403.994956	2
403.999557	3
404.004159	2
404.011828	6
404.014896	3
404.024099	999
404.039439	6
404.042507	3
404.048643	4
404.056314	1
404.060916	1
404.070121	1
404.076258	1
404.088532	1
404.094669	1
404.166793	2
404.288065	1
404.447797	1
404.816773	1
405.027623	79
405.035321	1
405.260210	1
406.027163	10
406.034889	1
406.390564	1
407.031958	1
407.524101	1
409.630003	1
413.263556	8
413.269904	1
414.268274	1
415.129641	1
416.001711	4
419.313189	2
420.317274	1
422.324819	7
422.996101	2
423.328230	2
424.107470	1
425.115590	1
426.006044	13
426.356690	13
427.007611	1
427.352820	1
427.359495	2
427.376183	5
428.034459	2
428.352445	1
428.380914	2
429.237976	1
430.478628	6
430.981803	5
431.484169	1
431.489247	1
431.984021	1
431.992500	1
434.323630	1
435.164302	1
436.341219	104
436.349827	1
436.354992	1
436.368766	1
437.163587	1
437.343196	15
438.345162	1
438.350362	1
441.969661	1
442.457962	1
444.405126	1
445.991339	8
446.966065	1
447.986972	1
449.081476	1
449.358428	1
450.317144	1
451.260825	1
457.943038	3
459.345627	1
464.370027	7
465.373418	2
465.381003	1
465.948516	3
472.432858	1
472.949207	1
473.986396	5
473.994193	1
474.944878	10
474.989847	1
475.379199	3
475.951376	1
476.383151	1
478.349236	10
479.352704	4
479.360633	1
480.637856	1
488.960432	3
490.386985	3
491.387439	1
492.909372	1
498.967297	3
498.975718	1
499.973019	1
500.943665	1
501.999984	2
502.940322	7
523.970341	1
525.955984	1
527.700977	1
534.066121	2
534.075446	1
534.570029	1
542.064814	1
549.966732	1
560.075093	1
561.025169	1
561.037719	1
561.530016	1
574.051126	1
577.962665	1
586.029887	1
600.513827	1
601.011684	1
602.051110	1
617.510557	1
625.615249	1
631.988706	1
664.112670	18
665.115930	3
666.121465	1
685.888708	1
689.458397	1
735.580569	1
744.079379	8
745.081004	1
747.557253	1
762.538105	1
775.561229	1
788.038451	1
794.301474	2
795.304553	1
798.585172	1
799.587837	1
803.539991	2
804.543384	1
807.040616	20
808.041898	4
829.024131	1
830.997935	1
860.960341	1
861.968051	1
862.967954	1
1067.133961	1
1121.997036	1
1147.092842	1
1210.061681	1
1211.072059	1
1221.987792	2
1321.983330	1
1421.987910	1
1425.834358	1
