Mass spectrum: L-Tyrosine; LC-ESI-ITFT; MS2; m/z:361.14; NEG
Name: L-Tyrosine
Name: (S)-3-(p-Hydroxyphenyl)alanine
Name: (S)-2-Amino-3-(p-hydroxyphenyl)propionic acid
Name: Tyrosine
Class: Natural Product
Formula: C9H11NO3
Exact mass: 181.07389
SMILES: OC(=O)C(N)Cc(c1)ccc(O)c1
InChI: InChI=1S/C9H11NO3/c10-8(9(12)13)5-6-1-3-7(11)4-2-6/h1-4,8,11H,5,10H2,(H,12,13)/t8-/m0/s1
Instrument: LTQ Orbitrap XL, Thermo Scientfic
Instrument type: LC-ESI-ITFT
Ms type: MS2
Ion mode: NEGATIVE
Collision energy: 35eV
Ionization: ESI
Column name: TOSOH TSKgel ODS-100V  5um Part no. 21456
Retention time: 9.375730 min
Base peak: 180.050995
Precursor m/z: 361.14
m/z	relative intensity
180.050995	999
334.049561	41
