Mass spectrum: 4-Hydroxy-L-proline; LC-ESI-ITFT; MS; POS
Name: 4-Hydroxy-L-proline
Name: L-Hydroxyproline
Class: Natural Product
Formula: C5H9NO3
Exact mass: 131.05824
SMILES: OC(C1)CC(N1)C(O)=O
InChI: InChI=1S/C5H9NO3/c7-3-1-4(5(8)9)6-2-3/h3-4,6-7H,1-2H2,(H,8,9)/t3?,4-/m0/s1
Instrument: LTQ Orbitrap XL, Thermo Scientfic
Instrument type: LC-ESI-ITFT
Ms type: MS
Ion mode: POSITIVE
Collision energy: 35eV
Ionization: ESI
Column name: TOSOH TSKgel ODS-100V  5um Part no. 21456
Retention time: 4.809180 min
Base peak: 132.065231
m/z	relative intensity
100.111848	2
102.033553	2
110.019746	1
131.625970	1
131.917683	1
131.986108	1
131.989259	1
132.015900	1
132.031659	1
132.032806	1
132.037391	1
132.038824	5
132.041976	1
132.047708	1
132.048281	1
132.050574	1
132.051721	1
132.052294	1
132.053727	1
132.054587	1
132.055160	1
132.056307	1
132.056880	1
132.058027	2
132.060320	5
132.062613	8
132.065193	999
132.067487	10
132.070067	5
132.071213	2
132.072360	2
132.073220	1
132.074940	1
132.076374	2
132.078381	1
132.079241	1
132.081821	1
132.082682	1
132.090137	1
132.091571	5
132.093004	1
132.098166	1
132.099313	1
132.114514	1
132.141193	1
132.144636	2
132.213238	1
132.506618	1
133.061809	1
133.068187	46
134.068869	2
137.132002	1
139.981695	1
141.958171	5
149.022904	3
155.142526	1
158.002552	12
158.096003	1
158.960868	1
163.132671	3
170.095866	1
171.149125	26
172.152025	1
174.127584	9
179.063200	1
182.984796	8
186.955501	1
187.126060	4
199.028604	1
199.179842	3
223.063237	2
233.173293	1
263.123308	15
264.125833	1
302.206154	1
391.282894	11
392.286254	2
522.340752	10
523.343371	2
