Mass spectrum: Hypotaurine; LC-ESI-ITFT; MS2; m/z:126.02; POS
Name: Hypotaurine
Name: 2-Aminoethanesulfinic acid
Class: Natural Product
Formula: C2H7NO2S
Exact mass: 109.01975
SMILES: NCCS(O)=O
InChI: InChI=1S/C2H7NO2S/c3-1-2-6(4)5/h1-3H2,(H,4,5)
Instrument: LTQ Orbitrap XL, Thermo Scientfic
Instrument type: LC-ESI-ITFT
Ms type: MS2
Ion mode: POSITIVE
Collision energy: 35eV
Ionization: ESI
Column name: TOSOH TSKgel ODS-100V  5um Part no. 21456
Retention time: 4.792418 min
Base peak: 107.969452
Precursor m/z: 126.02
m/z	relative intensity
81.136276	1
84.919479	1
99.057983	1
107.969452	999
108.885025	3
