Mass spectrum: 4-Aminobutanoic acid; LC-ESI-ITFT; MS; POS
Name: 4-Aminobutanoate
Name: 4-Aminobutanoic acid
Name: 4-Aminobutyrate
Name: 4-Aminobutyric acid
Name: gamma-Aminobutyric acid
Class: Natural Product
Formula: C4H9NO2
Exact mass: 103.06333
SMILES: NCCCC(O)=O
InChI: InChI=1S/C4H9NO2/c5-3-1-2-4(6)7/h1-3,5H2,(H,6,7)
Instrument: LTQ Orbitrap XL, Thermo Scientfic
Instrument type: LC-ESI-ITFT
Ms type: MS
Ion mode: POSITIVE
Collision energy: 35eV
Ionization: ESI
Column name: TOSOH TSKgel ODS-100V  5um Part no. 21456
Retention time: 5.057092 min
Base peak: 104.070221
m/z	relative intensity
103.762922	1
103.966260	1
104.014734	2
104.035575	1
104.045598	1
104.051812	6
104.052815	1
104.056624	1
104.057226	1
104.058228	1
104.059231	1
104.060033	1
104.061236	1
104.062439	1
104.063642	1
104.064043	1
104.064644	1
104.065246	2
104.066850	6
104.067853	3
104.068454	6
104.068855	7
104.070259	999
104.071863	10
104.072465	2
104.073468	6
104.074470	2
104.075072	1
104.075674	1
104.076075	2
104.077278	1
104.077679	1
104.078481	1
104.078882	1
104.080286	1
104.080888	1
104.081690	1
104.082493	1
104.082894	1
104.084097	1
104.087306	1
104.088710	6
104.104960	1
104.125628	2
104.174414	1
104.181243	1
104.378963	1
105.066790	1
105.073300	30
106.073989	2
110.026504	2
112.050158	7
171.148702	8
174.127150	1
187.125577	1
199.179842	1
207.133224	16
223.062608	1
229.085044	42
230.087738	1
231.079777	1
235.039946	1
245.079387	5
266.194902	2
307.056668	1
336.236491	1
354.097605	1
364.114596	1
380.261407	1
391.282894	14
392.286254	3
437.215386	1
466.168968	1
494.344951	20
495.349218	3
