Mass spectrum: Citric acid; LC-ESI-ITFT; MS2; m/z:111.01; NEG
Name: Citrate
Name: Citric acid
Name: 2-Hydroxy-1,2,3-propanetricarboxylic acid
Name: 2-Hydroxytricarballylic acid
Class: Natural Product
Formula: C6H8O7
Exact mass: 192.02700
SMILES: OC(=O)CC(O)(CC(O)=O)C(O)=O
InChI: InChI=1S/C6H8O7/c7-3(8)1-6(13,5(11)12)2-4(9)10/h13H,1-2H2,(H,7,8)(H,9,10)(H,11,12)
Instrument: LTQ Orbitrap XL, Thermo Scientfic
Instrument type: LC-ESI-ITFT
Ms type: MS2
Ion mode: NEGATIVE
Collision energy: 35eV
Ionization: ESI
Column name: TOSOH TSKgel ODS-100V  5um Part no. 21456
Retention time: 9.131107 min
Base peak: 66.907478
Precursor m/z: 111.01
m/z	relative intensity
66.907478	999
