Mass spectrum: Acetyl-CoA; LC-ESI-ITFT; MS2; m/z:808.12; NEG
Name: Acetyl-CoA
Name: Acetyl coenzyme A
Class: Natural Product
Formula: C23H38N7O17P3S
Exact mass: 809.12577
SMILES: CC(=O)SCCNC(=O)CCNC(=O)C(O)C(C)(C)COP(O)(=O)OP(O)(=O)OCC(O1)C(OP(O)(O)=O)C(O)C1n(c2)c(n3)c(c(N)nc3)n2
InChI: InChI=1S/C23H38N7O17P3S/c1-12(31)51-7-6-25-14(32)4-5-26-21(35)18(34)23(2,3)9-44-50(41,42)47-49(39,40)43-8-13-17(46-48(36,37)38)16(33)22(45-13)30-11-29-15-19(24)27-10-28-20(15)30/h10-11,13,16-18,22,33-34H,4-9H2,1-3H3,(H,25,32)(H,26,35)(H,39,40)(H,41,42)(H2,24,27,28)(H2,36,37,38)/t13-,16-,17-,18+,22-/m1/s1
Instrument: LTQ Orbitrap XL, Thermo Scientfic
Instrument type: LC-ESI-ITFT
Ms type: MS2
Ion mode: NEGATIVE
Collision energy: 35eV
Ionization: ESI
Column name: TOSOH TSKgel ODS-100V  5um Part no. 21456
Retention time: 13.811363 min
Base peak: 461.114014
Precursor m/z: 808.12
m/z	relative intensity
243.187073	1
254.994278	3
261.217468	2
271.076324	42
273.162140	64
288.117523	1
289.369568	2
291.140625	5
305.326965	10
310.241241	2
321.331818	1
323.279083	1
328.222626	95
339.205872	26
346.153198	3
353.106812	5
357.243835	1
360.308899	1
367.277283	10
371.102783	5
381.178162	134
383.412537	1
385.234497	12
390.237549	1
399.257385	11
401.198364	3
408.067932	762
408.704834	2
419.197693	15
426.144714	428
443.208374	64
450.077759	4
461.114014	999
461.781189	3
468.171265	2
470.308472	1
479.169373	152
483.051758	2
488.124878	30
506.106445	29
510.255249	27
516.318665	1
520.157410	4
541.067200	29
554.196289	1
559.249207	2
575.225220	18
590.127869	3
592.971741	1
600.101624	1
618.092651	108
650.372375	1
655.035339	18
655.641418	1
673.112671	279
689.115479	4
708.166504	1
710.219299	204
728.145813	260
728.776062	2
732.137207	1
748.177368	5
767.744141	1
772.150452	1
790.189636	248
798.893860	1
