Mass spectrum: L-(+)-Arginine; LC-ESI-ITFT; MS2; m/z:175.12; POS
Name: L-Arginine
Name: (S)-2-Amino-5-guanidinovaleric acid
Name: L-(+)-Arginine
Class: Natural Product
Formula: C6H14N4O2
Exact mass: 174.11168
SMILES: NC(=N)NCCC[C@H](N)C(O)=O
InChI: InChI=1S/C6H14N4O2/c7-4(5(11)12)2-1-3-10-6(8)9/h4H,1-3,7H2,(H,11,12)(H4,8,9,10)/t4-/m0/s1
Instrument: LTQ Orbitrap XL, Thermo Scientfic
Instrument type: LC-ESI-ITFT
Ms type: MS2
Ion mode: POSITIVE
Collision energy: 35eV
Ionization: ESI
Column name: TOSOH TSKgel ODS-100V  5um Part no. 21456
Retention time: 4.081987 min
Base peak: 158.037003
Precursor m/z: 175.12
m/z	relative intensity
59.955185	565
70.031677	158
72.042114	25
97.148117	5
98.053879	7
112.095001	93
113.087402	9
114.174088	47
115.288940	44
115.996017	699
130.039566	423
131.019653	1
132.187653	2
133.010803	12
140.154587	36
141.184311	3
145.952713	1
157.089493	726
158.037003	999
158.748215	5
175.059250	1
