Mass spectrum: S-Adenosyl-L-homocysteine; LC-ESI-ITFT; MS; POS
Name: S-Adenosyl-L-homocysteine
Name: S-Adenosylhomocysteine
Class: Natural Product
Formula: C14H20N6O5S
Exact mass: 384.12159
SMILES: OC(=O)[C@@H](N)CCSC[C@@H](O1)[C@@H](O)[C@@H](O)[C@@H]1n(c3)c(n2)c(n3)c(N)nc2
InChI: InChI=1S/C14H20N6O5S/c15-6(14(23)24)1-2-26-3-7-9(21)10(22)13(25-7)20-5-19-8-11(16)17-4-18-12(8)20/h4-7,9-10,13,21-22H,1-3,15H2,(H,23,24)(H2,16,17,18)/t6-,7+,9+,10+,13+/m0/s1
Instrument: LTQ Orbitrap XL, Thermo Scientfic
Instrument type: LC-ESI-ITFT
Ms type: MS
Ion mode: POSITIVE
Collision energy: 35eV
Ionization: ESI
Column name: TOSOH TSKgel ODS-100V  5um Part no. 21456
Retention time: 5.475050 min
Base peak: 193.067993
m/z	relative intensity
134.022846	1
134.026949	5
136.058518	1
136.060017	1
136.061516	60
136.063614	1
137.064992	1
170.056066	1
170.058160	1
170.061930	1
170.065282	76
170.068214	1
170.564040	1
170.566985	9
171.062882	3
171.149125	4
174.127584	2
182.984796	1
184.554536	1
187.126544	1
192.292408	1
192.807174	1
192.928090	1
192.980742	1
193.021258	3
193.023790	1
193.028856	1
193.031895	1
193.043040	1
193.045067	1
193.049120	1
193.051146	1
193.053173	1
193.054186	1
193.056213	2
193.059759	4
193.061280	3
193.063813	14
193.065333	11
193.067867	999
193.071414	15
193.075974	5
193.077494	2
193.079015	1
193.080535	1
193.083069	1
193.084082	1
193.086110	1
193.087630	1
193.090164	1
193.092698	1
193.095739	1
193.111451	1
193.114999	3
193.155051	1
193.208302	1
193.329596	1
193.560317	1
193.564895	3
193.568964	184
193.572017	3
193.573543	2
193.576595	1
193.848535	1
194.061803	1
194.065888	37
194.069462	8
194.115941	2
194.566265	3
222.112313	1
224.127351	2
228.049856	1
236.076552	1
250.073680	1
266.835924	1
267.677684	1
267.875496	1
267.961642	1
268.027107	2
268.032080	1
268.063579	1
268.066895	1
268.073528	1
268.076844	1
268.080160	1
268.081818	1
268.085135	1
268.086793	1
268.090109	3
268.092597	3
268.097571	13
268.104205	969
268.109180	13
268.111668	8
268.114155	2
268.117472	4
268.119960	2
268.122448	1
268.124936	1
268.128253	1
268.129911	1
268.133229	1
268.136546	1
268.143181	1
268.144839	1
268.146498	1
268.174699	1
268.180506	2
268.246881	1
268.334036	1
268.531745	1
269.102002	7
269.107005	109
269.112008	1
269.114510	1
269.381549	1
270.103704	1
270.107058	3
270.109573	3
384.995826	1
385.094298	1
385.104290	2
385.108573	2
385.111428	1
385.117138	7
385.128558	589
385.137124	7
385.141407	4
385.149973	2
385.155684	1
385.164250	1
385.259930	1
385.522876	1
386.131254	95
386.139854	1
386.144153	1
387.123484	20
387.130678	3
387.329300	1
388.125321	1
391.281432	3
658.379757	1
769.248041	15
770.252475	4
771.242695	1
1153.370718	1
1154.377588	1
