Mass spectrum: Guanine; LC-ESI-ITFT; MS; POS
Name: Guanine
Name: 2-Amino-6-hydroxypurine
Class: Natural Product
Formula: C5H5N5O
Exact mass: 151.04941
SMILES: C1=NC2=C(N1)C(=O)N=C(N2)N
InChI: InChI=1S/C5H5N5O/c6-5-9-3-2(4(11)10-5)7-1-8-3/h1H,(H4,6,7,8,9,10,11)
Instrument: LTQ Orbitrap XL, Thermo Scientfic
Instrument type: LC-ESI-ITFT
Ms type: MS
Ion mode: POSITIVE
Collision energy: 35eV
Ionization: ESI
Column name: TOSOH TSKgel ODS-100V  5um Part no. 21456
Retention time: 5.466658 min
Base peak: 152.056488
m/z	relative intensity
110.034570	1
117.714878	1
117.960116	1
118.019184	2
118.021848	1
118.044132	1
118.063756	5
118.065453	1
118.066907	1
118.067876	1
118.069572	1
118.070299	1
118.071753	1
118.074176	1
118.075873	1
118.076600	1
118.077569	1
118.078539	1
118.079508	3
118.080478	2
118.081205	1
118.081932	5
118.082659	3
118.084113	11
118.086052	920
118.087264	19
118.088476	9
118.089930	5
118.091385	2
118.092354	3
118.094293	1
118.095263	1
118.095990	1
118.096960	1
118.097687	1
118.098414	1
118.099626	1
118.100839	1
118.102293	1
118.103990	1
118.104717	1
118.105687	1
118.108354	5
118.128237	1
118.150309	1
118.152977	2
118.212190	1
118.219959	1
118.458984	1
119.089303	46
119.091512	1
120.089731	1
128.044836	2
135.029593	1
136.061516	24
136.063015	1
151.514010	1
151.872551	1
151.958493	1
151.962739	1
151.994943	1
152.023971	5
152.026450	1
152.028574	1
152.029990	1
152.032115	1
152.033177	1
152.036364	1
152.037780	1
152.039197	1
152.041321	1
152.042738	1
152.044154	1
152.045571	1
152.046987	3
152.048049	2
152.049466	1
152.050528	4
152.051591	3
152.053716	9
152.054424	8
152.056549	999
152.058320	13
152.059737	9
152.062216	4
152.063987	2
152.065404	3
152.067529	1
152.068237	1
152.069654	1
152.071071	1
152.072488	1
152.074613	1
152.076030	1
152.080281	1
152.082406	1
152.083823	1
152.085240	1
152.089137	5
152.117838	1
152.150091	1
152.154345	2
152.240881	1
152.601651	1
153.040204	13
153.053436	12
153.059516	46
153.061305	1
154.059797	1
167.055748	1
171.148702	11
174.127150	2
182.984328	1
187.125577	1
194.116962	1
199.179842	1
222.111688	1
224.127351	1
230.087079	1
269.135358	38
270.138085	1
287.109806	1
303.014527	1
303.089263	1
303.098233	2
303.100227	1
303.106207	205
303.111191	2
303.115178	1
303.122156	1
303.197929	1
304.102420	2
304.108430	14
391.282894	4
391.288742	1
392.286254	1
436.339497	1
454.153607	17
455.157064	1
508.361001	5
509.362702	1
542.331901	1
605.202491	1
756.253297	9
757.255995	2
