Mass spectrum: L-(+)-Arginine; LC-ESI-ITFT; MS2; m/z:241.09; NEG
Name: L-Arginine
Name: (S)-2-Amino-5-guanidinovaleric acid
Name: L-(+)-Arginine
Class: Natural Product
Formula: C6H14N4O2
Exact mass: 174.11168
SMILES: NC(=N)NCCC[C@H](N)C(O)=O
InChI: InChI=1S/C6H14N4O2/c7-4(5(11)12)2-1-3-10-6(8)9/h4H,1-3,7H2,(H,11,12)(H4,8,9,10)/t4-/m0/s1
Instrument: LTQ Orbitrap XL, Thermo Scientfic
Instrument type: LC-ESI-ITFT
Ms type: MS2
Ion mode: NEGATIVE
Collision energy: 35eV
Ionization: ESI
Column name: TOSOH TSKgel ODS-100V  5um Part no. 21456
Retention time: 4.125995 min
Base peak: 173.019989
Precursor m/z: 241.09
m/z	relative intensity
104.862381	1
127.208832	1
131.123764	8
156.139221	1
173.019989	999
195.276428	1
199.163589	7
