Mass spectrum: L-Homoserine; LC-ESI-ITFT; MS; NEG
Name: L-Homoserine
Name: 2-Amino-4-hydroxybutyric acid
Class: Natural Product
Formula: C4H9NO3
Exact mass: 119.05824
SMILES: OCC[C@H](N)C(O)=O
InChI: InChI=1S/C4H9NO3/c5-3(1-2-6)4(7)8/h3,6H,1-2,5H2,(H,7,8)/t3-/m0/s1
Instrument: LTQ Orbitrap XL, Thermo Scientfic
Instrument type: LC-ESI-ITFT
Ms type: MS
Ion mode: NEGATIVE
Collision energy: 35eV
Ionization: ESI
Column name: TOSOH TSKgel ODS-100V  5um Part no. 21456
Retention time: 4.657770 min
Base peak: 118.051132
m/z	relative intensity
100.040280	2
100.623754	1
100.742284	1
101.628195	1
102.711442	1
102.920423	1
103.123118	1
103.258778	1
103.363132	1
103.920096	4
104.660372	1
104.802119	1
106.526200	1
107.491986	1
108.020738	1
109.490433	1
109.969933	1
110.649797	1
111.482839	1
112.983832	3
112.985421	74
112.986782	2
112.987463	3
112.998809	1
113.098502	1
114.120462	1
114.951622	20
115.233654	1
115.530801	1
115.790954	1
115.851712	1
116.510150	1
117.925229	1
117.984285	2
118.028848	6
118.034421	1
118.040720	1
118.041932	3
118.042659	3
118.045082	8
118.047020	18
118.049201	35
118.051140	999
118.053321	35
118.055017	16
118.056229	2
118.057198	7
118.059379	2
118.060349	2
118.061076	2
118.062045	2
118.068105	1
118.073437	6
118.118294	2
119.053944	14
119.054925	4
119.055662	1
119.619939	1
121.610229	1
123.639440	1
124.749714	2
127.022905	1
127.159604	1
127.943704	4
129.513489	1
129.675151	1
133.231519	1
134.047025	2
134.572542	1
134.819748	1
136.713369	1
136.917755	1
139.006578	9
139.460066	1
140.385981	1
140.621972	1
143.080591	2
143.974945	2
144.024242	4
144.180789	1
145.890149	2
147.921970	1
148.374734	1
148.952117	2
148.953491	1
149.796126	1
150.570154	1
151.982569	8
153.499353	1
154.027090	11
154.029257	2
154.393233	1
156.024001	5
158.030345	2
158.924781	2
159.034987	5
160.019023	5
160.242600	1
160.841358	5
161.904489	2
162.014693	2
162.218263	2
162.257304	1
162.838737	4
165.998396	2
168.961335	3
171.071772	1
171.969375	3
172.977601	2
172.988347	2
173.960469	1
173.985614	45
174.007729	4
174.918078	2
176.008842	8
178.005631	3
178.981500	2
179.063864	1
179.274556	1
179.977276	19
179.979101	3
181.045803	3
183.713482	1
184.345983	3
184.415989	1
186.037685	5
187.703700	1
188.013575	9
189.980043	10
190.673064	1
192.891898	1
192.927839	2
193.993403	2
196.991585	2
197.987839	22
200.390614	2
202.002201	7
202.829211	1
202.944414	2
202.987572	5
203.028011	11
203.229294	1
203.231483	1
205.924234	1
207.946068	32
209.935171	1
209.943217	10
210.135880	1
212.003681	2
212.279219	1
214.913125	8
215.060822	5
215.953807	2
215.995184	4
216.505872	2
217.076371	7
217.974656	14
219.703719	1
219.975300	2
221.358208	1
222.098638	1
225.982852	5
226.559669	1
227.614808	1
228.570879	1
232.033429	2
232.040107	8
232.042778	2
232.924121	3
237.035003	5
237.102586	8
237.104656	3
237.108105	182
237.112243	5
237.114313	5
237.995598	4
237.999760	1
238.111484	10
239.112863	2
239.249141	1
239.975120	2
243.922590	21
243.988820	2
244.448855	1
244.978999	1
244.981173	1
244.985519	20
245.919835	12
246.029891	8
248.938266	2
248.959045	2
250.050619	1
251.998251	2
252.609279	1
253.030032	2
253.913680	2
255.868816	1
257.706655	1
257.989048	2
259.083878	3
259.090181	135
259.097272	3
260.087397	2
260.093737	8
261.046549	3
261.052924	5
261.060096	12
261.066471	458
261.070456	10
261.073644	10
261.079223	5
261.086396	3
262.069519	30
263.070297	5
265.478520	1
271.631804	1
271.985698	3
273.048982	1
274.879796	6
275.054668	10
275.064149	2
275.879583	2
275.964444	2
278.175000	1
279.029852	9
280.028481	3
281.017350	2
281.025360	77
281.028920	3
281.072539	7
282.027572	4
283.845655	1
285.042035	2
286.025612	9
286.696696	2
288.024725	5
289.011727	2
289.032150	5
290.012208	2
290.019673	97
290.024339	2
290.029005	2
291.027274	138
291.033840	3
291.035716	3
292.030706	7
292.890598	3
293.027965	4
299.021518	2
299.035195	14
299.040080	2
299.736922	1
299.924270	2
300.036174	2
305.082023	1
310.991639	1
313.009476	2
319.950701	3
321.017311	4
321.060782	12
325.008510	4
325.995976	5
326.007097	3
326.992418	2
327.003590	63
327.077338	3
327.993436	2
328.003536	2
328.008026	3
329.001312	14
330.003647	1
330.053487	1
330.736531	1
337.033102	5
341.116886	1
344.947090	2
347.978408	1
348.985003	2
351.801638	1
352.953883	3
354.022428	3
355.138821	2
357.053306	8
359.001304	2
359.014156	4
371.055516	2
372.336295	2
372.567159	1
373.022725	2
376.294510	1
376.672666	2
377.012665	6
378.036816	2
378.135432	3
380.124280	36
381.127404	3
382.860959	1
386.925364	1
386.938306	2
392.561111	1
393.009685	1
394.113057	22
395.019275	1
395.115707	2
397.542529	2
397.948672	1
400.082477	14
400.129350	4
401.082209	2
402.105496	9
402.193868	1
406.122062	1
408.010441	3
408.089863	4
409.004108	2
409.077568	19
409.086948	3
410.072001	3
410.086122	75
411.088960	5
414.352203	2
414.691831	1
416.539160	1
417.888382	2
418.070820	3
421.605740	1
422.064065	4
426.020086	7
426.129752	2
429.063173	1
430.010087	2
431.059880	10
432.067706	9
434.029065	1
434.042732	3
442.051724	3
445.053794	3
454.002635	4
458.089199	1
458.754924	2
459.880116	1
462.009720	2
462.099790	3
462.998185	2
464.004933	6
468.043895	4
469.280275	1
470.020605	7
471.004003	3
476.975629	1
478.073753	5
478.920132	1
479.697294	1
492.583560	2
494.959160	1
497.052459	1
498.973703	2
499.097969	1
499.182243	57
499.218066	1
500.186747	6
511.793513	1
516.054893	1
520.820791	1
520.995992	1
528.136806	7
529.549884	1
533.890895	1
535.154021	4
543.100271	2
550.118872	2
551.124594	11
552.093860	3
552.653083	2
552.947752	2
553.102547	8
553.830712	1
558.898464	2
559.360569	1
573.959413	1
574.643272	1
575.521335	1
582.056007	4
583.062823	5
589.069797	2
595.038427	2
603.639997	1
604.035273	1
605.043439	2
613.097155	1
618.658676	1
619.112451	2
620.018584	4
637.948770	2
645.860539	1
652.948433	2
677.957908	2
683.119872	1
683.359435	2
685.873983	1
686.148952	2
692.164642	5
702.117265	2
708.191512	2
711.690280	2
715.486148	1
737.922929	2
742.064534	5
745.848416	2
746.183337	1
762.071393	2
790.015383	2
808.116724	10
809.120249	4
833.204041	2
833.444920	2
840.038924	2
840.163136	1
843.064619	2
843.161748	2
853.247235	2
872.837366	1
874.134744	1
882.118680	1
891.081272	1
901.407041	1
902.917293	2
905.974967	4
911.143820	1
912.064234	1
953.150538	1
955.763347	1
957.563442	1
963.519631	1
971.731160	1
980.082893	2
999.239699	1
1005.969235	26
1006.976678	4
1028.705617	1
1033.905352	2
1047.850271	1
1062.138088	2
1065.152854	1
1065.994028	2
1070.360420	2
1071.181276	1
1091.938519	1
1105.965432	29
1106.966746	8
1107.969421	2
1109.943929	1
1129.487699	1
1131.232445	1
1152.185581	2
1155.955800	2
1165.406333	1
1165.985321	22
1166.986407	7
1171.889954	2
1182.973150	2
1189.929770	1
1205.956640	14
1206.962121	4
1207.976791	2
1208.706876	2
1213.109301	1
1233.969956	2
1256.946286	2
1257.957211	3
1265.978062	52
1266.982865	13
1267.988864	2
1282.963258	5
1287.166990	1
1300.709039	1
1305.873658	2
1305.953902	3
1306.953119	2
1309.653159	1
1326.413749	2
1333.966349	9
1334.961032	2
1357.506514	1
1363.840935	1
1365.965443	34
1366.977040	13
1371.504776	2
1382.957032	3
1433.958002	6
1434.963914	3
1455.925551	2
1456.818092	1
1465.969084	20
1466.966411	7
1473.612841	2
1482.955151	2
1493.225652	1
