Mass spectrum: Inosine; LC-ESI-ITFT; MS2; m/z:267.07; NEG
Name: Inosine
Class: Natural Product
Formula: C10H12N4O5
Exact mass: 268.08077
SMILES: OC[C@@H](O1)[C@@H](O)[C@@H](O)[C@@H]1n(c3)c(N=2)c(n3)C(=O)NC2
InChI: InChI=1S/C10H12N4O5/c15-1-4-6(16)7(17)10(19-4)14-3-13-5-8(14)11-2-12-9(5)18/h2-4,6-7,10,15-17H,1H2,(H,11,12,18)/t4-,6-,7-,10-/m1/s1
Instrument: LTQ Orbitrap XL, Thermo Scientfic
Instrument type: LC-ESI-ITFT
Ms type: MS2
Ion mode: NEGATIVE
Collision energy: 35eV
Ionization: ESI
Column name: TOSOH TSKgel ODS-100V  5um Part no. 21456
Retention time: 5.696392 min
Base peak: 134.982483
Precursor m/z: 267.07
m/z	relative intensity
92.093498	10
108.043488	4
134.982483	999
149.077850	1
177.082977	5
249.086166	1
