Mass spectrum: L-Asparagine; LC-ESI-ITFT; MS; POS
Name: L-Asparagine
Name: 2-Aminosuccinamic acid
Class: Natural Product
Formula: C4H8N2O3
Exact mass: 132.05349
SMILES: NC(=O)C[C@@H](N)C(O)=O
InChI: InChI=1S/C4H8N2O3/c5-2(4(8)9)1-3(6)7/h2H,1,5H2,(H2,6,7)(H,8,9)/t2-/m0/s1
Instrument: LTQ Orbitrap XL, Thermo Scientfic
Instrument type: LC-ESI-ITFT
Ms type: MS
Ion mode: POSITIVE
Collision energy: 35eV
Ionization: ESI
Column name: TOSOH TSKgel ODS-100V  5um Part no. 21456
Retention time: 4.576637 min
Base peak: 133.060654
m/z	relative intensity
100.112037	3
106.049643	5
110.019964	1
112.050382	8
116.034066	7
129.127757	1
132.616743	1
132.912047	1
132.980669	1
133.011087	1
133.033981	4
133.037169	1
133.041807	1
133.044125	1
133.046444	1
133.048184	1
133.049923	2
133.051082	1
133.052242	1
133.053401	2
133.055141	3
133.056011	5
133.058330	17
133.060649	999
133.062678	18
133.064708	4
133.065578	5
133.066737	2
133.067897	2
133.069637	1
133.071087	2
133.072536	1
133.074276	1
133.077466	1
133.078336	1
133.080655	1
133.087615	4
133.110238	1
133.140992	1
133.209500	1
133.506787	1
134.044535	20
134.057141	2
134.061245	1
134.063591	36
134.065643	1
135.064276	2
137.132002	1
139.981695	1
141.958171	5
147.076346	5
149.023248	5
155.142891	2
158.002927	14
158.096003	1
158.961247	3
163.132671	6
170.096285	2
171.138130	1
171.146165	1
171.149125	39
171.152086	1
172.152452	2
174.127584	15
175.130548	1
178.107101	1
179.063200	2
182.985263	9
186.955984	2
187.126060	6
190.992536	1
199.180373	5
203.023543	1
220.111375	1
223.063237	11
223.092816	1
224.062720	1
231.977441	1
232.985098	1
233.173966	1
265.108006	1
265.114529	51
265.120237	1
266.116986	2
279.158552	1
282.220291	1
289.070615	1
318.024368	1
319.032652	1
365.226078	1
391.272660	1
391.284356	37
392.286254	7
393.289058	1
409.252866	1
421.124121	1
426.356690	1
436.339497	1
451.085243	2
523.336586	19
524.339807	3
