Mass spectrum: L-Cysteine Sulfinic acid; LC-ESI-ITFT; MS; POS
Name: 3-Sulfino-L-alanine
Name: L-Cysteinesulfinic acid
Name: 3-Sulphino-L-alanine
Name: 3-Sulfinoalanine
Name: L-Cysteine Sulfinic acid
Class: Natural Product
Formula: C3H7NO4S
Exact mass: 153.00958
SMILES: N[C@H](C(O)=O)CS(O)=O
InChI: InChI=1S/C3H7NO4S/c4-2(3(5)6)1-9(7)8/h2H,1,4H2,(H,5,6)(H,7,8)/t2-/m0/s1
Instrument: LTQ Orbitrap XL, Thermo Scientfic
Instrument type: LC-ESI-ITFT
Ms type: MS
Ion mode: POSITIVE
Collision energy: 35eV
Ionization: ESI
Column name: TOSOH TSKgel ODS-100V  5um Part no. 21456
Retention time: 6.749922 min
Base peak: 154.016632
m/z	relative intensity
100.110334	1
100.111848	53
100.113740	1
101.095699	4
101.115285	1
102.012921	1
102.033553	23
102.091007	2
107.069996	3
108.011154	2
109.021948	1
110.019746	36
110.020836	1
110.521266	1
111.019815	8
112.017456	1
113.059253	1
113.963374	5
114.127166	1
115.111540	1
116.998316	1
117.981172	1
122.963604	1
125.985947	1
126.500624	1
126.987102	1
128.018019	1
128.106709	8
128.950559	1
129.127203	5
130.007768	1
130.031571	1
130.122642	1
130.158817	4
130.491545	2
130.508722	1
130.517453	1
133.079206	11
134.039259	1
134.486797	1
136.000082	1
136.000981	1
136.003677	1
136.006074	68
136.008171	1
136.009070	1
136.021055	1
137.132305	16
137.511942	5
138.001800	1
138.135405	1
138.494895	2
139.982321	1
140.010480	18
141.958490	16
142.122204	1
143.039341	8
144.981860	1
149.020499	1
149.023248	57
149.024966	1
149.025653	1
149.026341	1
150.026498	3
151.096730	7
153.463412	1
153.835025	1
153.916868	2
153.955829	1
153.983255	3
153.988669	1
153.991917	1
153.992639	1
153.994805	1
153.999497	1
154.000580	1
154.002385	1
154.003468	1
154.004551	1
154.005995	2
154.007078	3
154.008161	3
154.010327	5
154.011410	2
154.013576	12
154.016464	999
154.018992	11
154.020075	11
154.021519	3
154.022602	3
154.023324	3
154.024407	2
154.025852	4
154.026935	2
154.028018	2
154.029462	1
154.031629	1
154.033434	1
154.037406	1
154.038129	1
154.040295	1
154.041017	1
154.042462	1
154.043906	1
154.045351	1
154.050046	3
154.077136	1
154.116519	2
154.198586	1
154.572875	1
154.989704	4
154.999909	1
155.013761	1
155.015584	4
155.019958	28
155.023240	1
155.142526	15
156.012310	38
156.020408	4
156.145638	1
158.002552	4
158.096003	18
158.960868	2
159.099132	1
159.112399	3
161.110293	1
163.129523	1
163.132671	68
163.134639	1
163.136607	1
164.136124	1
166.018172	1
167.012526	1
167.017418	1
167.033727	9
168.013372	27
168.122845	1
168.174738	1
169.012866	1
170.011674	6
170.096285	21
170.981350	1
171.005423	10
171.100077	1
171.110223	1
171.135170	1
171.136438	1
171.138553	16
171.141936	1
171.142782	1
171.144473	1
171.145742	3
171.149125	294
171.151240	3
171.152932	3
171.155892	1
171.159699	1
171.188041	1
171.992572	1
172.111502	1
172.140933	1
172.152452	25
172.169092	2
172.956066	1
172.976690	21
172.981417	1
173.010643	1
173.013222	1
173.017520	2
173.020959	179
173.023538	2
173.024828	2
173.026548	1
173.027837	1
173.031707	1
173.077717	2
174.023903	3
174.124112	1
174.127584	90
174.131490	1
175.035155	1
175.089406	14
175.130548	7
176.092758	1
176.142644	1
178.034839	2
179.063653	29
180.032950	1
180.066262	1
180.158947	5
180.989441	1
181.032220	1
181.979075	1
181.987885	1
182.028700	25
182.189309	1
182.984796	37
183.028285	1
183.032494	1
184.025752	1
184.985290	1
185.114144	3
186.184865	9
187.120742	1
187.122192	1
187.126060	119
187.129445	1
187.130895	1
187.187964	1
188.128987	6
188.130937	1
188.142635	1
189.121330	1
190.046798	2
193.929107	3
194.116962	4
194.174190	1
195.002212	8
195.086593	2
195.122110	6
196.007514	3
196.153765	1
199.180373	48
200.183421	2
206.952593	1
207.093814	1
208.068843	1
208.190213	3
213.158720	1
214.002399	2
215.157172	1
216.205980	1
217.104082	3
218.983245	1
220.111375	18
221.114659	2
223.063237	31
223.066384	1
223.131214	1
224.062086	2
224.947806	1
225.059369	1
225.195268	1
226.158371	2
228.231451	3
229.973734	1
232.169093	1
232.989800	1
233.173966	19
233.177329	1
234.177254	1
234.955572	2
235.167956	1
239.933898	1
240.106682	1
240.179082	1
242.984054	1
244.237292	2
247.979009	2
248.962187	24
249.965405	1
250.199964	2
251.993143	1
255.155217	1
256.262765	1
256.962344	2
259.225713	1
261.167989	1
261.984653	2
261.988658	1
264.130698	2
267.965785	5
267.969099	1
268.080989	1
271.936670	1
274.157534	1
277.199902	6
277.203389	1
278.203372	1
278.231421	1
279.158552	12
279.162076	1
280.161171	2
280.164715	1
282.220291	13
282.224768	1
283.223259	1
291.905055	1
294.225799	2
299.181639	4
299.185549	1
305.194169	1
307.025165	4
307.028214	1
307.974410	1
308.241029	1
308.991662	1
320.293539	1
321.225628	1
322.220780	1
322.257928	2
323.019796	1
324.013388	3
324.914201	1
326.021046	1
326.029941	92
326.037725	1
326.041061	1
327.031880	2
327.176029	1
328.024977	1
334.933652	1
338.252048	1
343.016085	1
343.206958	1
343.210561	1
344.936852	1
345.033677	5
346.938481	1
350.251546	1
352.043775	1
359.935616	1
360.942502	1
365.941686	1
371.202105	1
378.939879	1
379.947863	2
382.970584	1
391.148429	1
391.244886	1
391.249271	1
391.258042	1
391.266813	1
391.271198	2
391.282894	294
391.293128	2
391.297514	2
391.303362	1
391.306286	1
391.320907	1
391.418890	1
392.273046	1
392.286254	70
392.296527	1
393.289058	5
398.950586	1
413.263556	5
414.266682	1
419.311567	1
422.323179	3
426.355027	5
426.363342	1
427.352820	1
427.359495	1
427.376183	2
434.323630	1
435.164302	1
436.341219	35
437.163587	1
437.343196	6
438.916035	1
452.933076	1
456.928514	11
457.931932	1
461.933829	1
464.370027	5
465.373418	1
470.942922	2
475.379199	2
478.349236	5
478.357140	1
479.352704	1
479.943988	1
484.921577	1
484.957885	1
490.386985	2
493.959029	1
498.042274	1
498.937825	1
502.959496	1
507.936930	1
544.288590	2
545.292554	1
591.926356	1
592.920475	1
690.896823	1
798.585172	1
803.539991	1
804.543384	1
1221.995860	1
1321.992409	1
