Mass spectrum: L-Glutamine; LC-ESI-ITFT; MS; POS
Name: L-Glutamine
Name: L-2-Aminoglutaramic acid
Class: Natural Product
Formula: C5H10N2O3
Exact mass: 146.06914
SMILES: NC(=O)CC[C@H](N)C(O)=O
InChI: InChI=1S/C5H10N2O3/c6-3(5(9)10)1-2-4(7)8/h3H,1-2,6H2,(H2,7,8)(H,9,10)/t3-/m0/s1
Instrument: LTQ Orbitrap XL, Thermo Scientfic
Instrument type: LC-ESI-ITFT
Ms type: MS
Ion mode: POSITIVE
Collision energy: 35eV
Ionization: ESI
Column name: TOSOH TSKgel ODS-100V  5um Part no. 21456
Retention time: 4.678478 min
Base peak: 147.076263
m/z	relative intensity
100.111848	4
101.070744	2
102.033748	2
102.054776	2
110.019746	3
111.020036	1
129.127480	1
130.023729	1
130.045015	1
130.047536	3
130.048377	2
130.049778	174
130.052019	3
130.054540	1
131.053091	8
137.132305	3
139.982321	2
141.958810	7
146.560554	1
146.900975	1
146.983404	1
146.987107	1
147.017742	1
147.045019	3
147.057818	1
147.059166	1
147.060513	1
147.061187	1
147.062534	1
147.064892	1
147.065903	2
147.066914	1
147.067924	1
147.068935	1
147.070619	4
147.073651	17
147.076346	999
147.078705	15
147.080726	2
147.082074	4
147.083422	1
147.084096	1
147.085443	1
147.086117	2
147.088139	1
147.089487	1
147.091508	1
147.092856	1
147.094204	1
147.096226	1
147.098922	1
147.103640	1
147.107347	3
147.134986	1
147.165668	1
147.169377	2
147.252032	1
147.594866	1
148.073241	2
148.076644	1
148.079367	50
148.081750	1
149.022561	3
149.079961	2
154.990068	1
155.142526	1
158.002552	4
158.096003	2
158.960868	3
163.132671	5
167.012526	1
167.033320	1
169.058113	1
170.095866	2
171.149125	36
172.152025	2
174.127584	15
175.130548	1
179.063200	2
182.985263	12
186.955984	2
187.126060	6
190.992536	1
195.122110	1
199.179842	4
220.111375	1
223.063237	4
233.173966	1
247.000178	1
279.157671	1
282.221186	1
293.145864	22
294.147646	1
299.181639	1
347.063016	1
391.284356	21
392.286254	3
426.356690	1
436.339497	1
537.351958	5
538.353297	1
