Mass spectrum: D-Gluconic acid; LC-ESI-ITFT; MS2; m/z:195.05; NEG
Name: D-Gluconic acid
Name: D-Gluconate
Name: D-gluco-Hexonic acid
Class: Natural Product
Formula: C6H12O7
Exact mass: 196.05830
SMILES: OCC(O)C(O)C(O)C(O)C(O)=O
InChI: InChI=1S/C6H12O7/c7-1-2(8)3(9)4(10)5(11)6(12)13/h2-5,7-11H,1H2,(H,12,13)
Instrument: LTQ Orbitrap XL, Thermo Scientfic
Instrument type: LC-ESI-ITFT
Ms type: MS2
Ion mode: NEGATIVE
Collision energy: 35eV
Ionization: ESI
Column name: TOSOH TSKgel ODS-100V  5um Part no. 21456
Retention time: 5.470082 min
Base peak: 128.951462
Precursor m/z: 195.05
m/z	relative intensity
57.060200	1
58.990860	1
71.019707	2
74.907196	36
79.020477	1
84.964081	15
86.916466	22
89.075363	3
96.824585	2
98.957703	74
111.010223	8
128.951462	999
130.934784	2
140.990173	14
149.056671	2
151.032730	1
159.016724	110
177.053635	160
