Mass spectrum: NADP+; LC-ESI-ITFT; MS2; m/z:620.02; NEG
Name: NADP+
Name: NADP
Name: Nicotinamide adenine dinucleotide phosphate
Name: beta-Nicotinamide adenine dinucleotide phosphate
Name: TPN
Name: Triphosphopyridine nucleotide
Class: Natural Product
Formula: [C21H29N7O17P3]+
Exact mass: 744.08328
SMILES: NC(=O)c(c5)c[n+1](cc5)[C@H](O1)[C@H](O)[C@H](O)[C@@H](COP(O)(=O)OP(O)(=O)OC[C@@H](O2)[C@@H](O)[C@@H](OP(O)(O)=O)[C@@H]2n(c3)c(n4)c(c(N)nc4)n3)1
InChI: InChI=1S/C21H28N7O17P3/c22-17-12-19(25-7-24-17)28(8-26-12)21-16(44-46(33,34)35)14(30)11(43-21)6-41-48(38,39)45-47(36,37)40-5-10-13(29)15(31)20(42-10)27-3-1-2-9(4-27)18(23)32/h1-4,7-8,10-11,13-16,20-21,29-31H,5-6H2,(H7-,22,23,24,25,32,33,34,35,36,37,38,39)/p+1/t10-,11-,13-,14-,15-,16-,20-,21-/m1/s1
Instrument: LTQ Orbitrap XL, Thermo Scientfic
Instrument type: LC-ESI-ITFT
Ms type: MS2
Ion mode: NEGATIVE
Collision energy: 35eV
Ionization: ESI
Column name: TOSOH TSKgel ODS-100V  5um Part no. 21456
Retention time: 8.904257 min
Base peak: 408.044434
Precursor m/z: 620.02
m/z	relative intensity
175.146744	5
177.086456	8
193.159317	3
211.140930	1
214.212234	3
239.035950	3
255.005707	21
273.123779	219
291.156311	45
310.311646	4
328.213043	50
335.164917	2
346.187805	22
353.138000	55
369.152100	2
371.151245	56
387.227478	6
390.215454	14
408.044434	999
408.685059	3
424.338867	2
426.140686	143
448.968506	1
467.008972	28
468.152222	2
470.185669	2
474.286011	1
485.185059	191
488.045044	154
488.688782	1
504.177551	16
506.065491	460
522.153320	343
522.757629	1
540.085876	38
560.140198	1
584.179016	51
602.034607	618
602.676453	2
