Mass spectrum: L-(+)-Arginine; LC-ESI-ITFT; MS2; m/z:176.12; POS
Name: L-Arginine
Name: (S)-2-Amino-5-guanidinovaleric acid
Name: L-(+)-Arginine
Class: Natural Product
Formula: C6H14N4O2
Exact mass: 174.11168
SMILES: NC(=N)NCCC[C@H](N)C(O)=O
InChI: InChI=1S/C6H14N4O2/c7-4(5(11)12)2-1-3-10-6(8)9/h4H,1-3,7H2,(H,11,12)(H4,8,9,10)/t4-/m0/s1
Instrument: LTQ Orbitrap XL, Thermo Scientfic
Instrument type: LC-ESI-ITFT
Ms type: MS2
Ion mode: POSITIVE
Collision energy: 35eV
Ionization: ESI
Column name: TOSOH TSKgel ODS-100V  5um Part no. 21456
Retention time: 4.087983 min
Base peak: 159.056442
Precursor m/z: 176.12
m/z	relative intensity
59.895233	512
61.050106	174
70.005920	97
71.017548	84
71.958740	26
73.052780	16
88.148026	1
88.987907	1
97.017578	1
98.036423	11
98.985779	2
106.087860	1
112.034302	38
113.113525	69
114.119659	29
115.145142	55
115.974670	365
117.055328	501
120.028137	7
130.101334	169
131.031189	358
133.196930	11
134.167923	9
140.063400	9
141.065689	37
142.097824	3
157.066788	203
158.014374	992
159.056442	999
160.311432	4
161.292725	1
176.242996	2
