Mass spectrum: S-Adenosyl-L-methionine; LC-ESI-ITFT; MS; POS
Name: S-Adenosyl-L-methionine
Name: S-Adenosylmethionine
Name: Acylcarnitine
Class: Natural Product
Formula: C15H22N6O5S
Exact mass: 398.13724
SMILES: [O-1]C(=O)C(N)CC[S+1](C)CC(O1)C(O)C(O)C1n(c3)c(n2)c(n3)c(N)nc2
InChI: InChI=1S/C15H22N6O5S/c1-27(3-2-7(16)15(24)25)4-8-10(22)11(23)14(26-8)21-6-20-9-12(17)18-5-19-13(9)21/h5-8,10-11,14,22-23H,2-4,16H2,1H3,(H2-,17,18,19,24,25)/t7-,8+,10+,11+,14+,27?/m0/s1
Instrument: LTQ Orbitrap XL, Thermo Scientfic
Instrument type: LC-ESI-ITFT
Ms type: MS
Ion mode: POSITIVE
Collision energy: 35eV
Ionization: ESI
Column name: TOSOH TSKgel ODS-100V  5um Part no. 21456
Retention time: 4.115438 min
Base peak: 399.143982
m/z	relative intensity
100.112037	2
102.036668	1
102.049908	1
102.051466	2
102.052245	1
102.053024	3
102.054776	250
102.055945	2
102.056334	3
102.057892	2
102.072889	1
103.057993	7
110.070988	9
136.059118	1
136.061816	46
136.064214	1
137.064689	1
137.132305	1
139.982008	1
141.958171	3
149.023248	2
155.143256	1
156.042496	1
156.070482	1
156.071586	1
156.073428	2
156.076743	277
156.078952	2
156.079689	3
156.080794	1
156.082636	2
156.111000	1
157.073697	1
157.080019	15
158.002552	10
158.096003	1
162.084591	6
163.042191	1
163.132671	2
167.012526	1
169.140766	1
170.096285	1
171.149125	18
172.152452	1
173.078147	1
174.127584	10
175.118729	1
177.156858	1
178.058622	5
179.063200	1
182.984796	5
184.066782	1
185.114619	3
187.126060	3
190.993035	1
193.131221	4
199.181435	1
199.257385	1
199.801458	1
199.927945	1
199.984023	1
200.026230	2
200.054019	1
200.058295	1
200.060433	1
200.062571	2
200.064709	1
200.066847	5
200.068450	3
200.071123	7
200.075934	836
200.079141	5
200.080210	9
200.081814	4
200.084487	5
200.086090	3
200.087694	1
200.090367	1
200.092506	1
200.095713	1
200.096783	1
200.099991	1
200.106406	1
200.125656	2
200.167373	1
200.224086	1
200.351511	1
200.567555	1
200.571847	1
200.576676	158
200.579895	1
200.580968	2
200.583115	1
200.585261	1
200.899536	1
201.073376	33
201.077684	9
201.086840	1
201.574626	3
216.007958	2
217.104082	1
218.183609	1
223.063237	2
231.039309	2
233.173966	1
235.057644	4
247.044177	1
250.093102	33
251.096407	2
255.155987	1
264.089351	2
282.100329	1
298.007271	1
298.072386	1
298.080162	2
298.084050	1
298.087939	3
298.096688	336
298.102521	2
298.105437	3
298.108354	1
298.112243	2
298.115159	1
298.187118	1
299.094664	1
299.099550	32
299.181639	2
300.091769	8
300.098643	1
300.102571	1
304.104423	3
320.078186	8
321.081046	1
336.051403	1
343.208159	1
391.284356	13
392.287721	2
396.841269	1
397.294098	1
398.370240	1
398.727920	1
398.885874	1
399.004777	2
399.081565	1
399.087589	1
399.093612	1
399.099636	1
399.105660	2
399.111684	1
399.117708	4
399.123733	3
399.129757	7
399.143313	999
399.152350	4
399.156869	7
399.161388	4
399.167414	4
399.171933	2
399.176452	1
399.179465	1
399.185491	1
399.188503	1
399.191516	1
399.197542	1
399.203569	1
399.283428	2
399.402509	1
399.560864	1
399.920149	1
400.121137	1
400.125673	1
400.131720	1
400.146839	183
400.155910	1
400.158934	1
400.163470	1
400.169518	1
401.138977	32
401.148083	8
401.155671	1
401.466965	1
402.142427	4
402.148520	1
404.149911	1
405.150823	27
406.153911	2
407.146764	1
413.263556	5
414.266682	1
421.125753	6
422.128168	1
426.102387	1
426.604564	1
429.237976	2
436.339497	1
438.317428	1
457.164750	3
461.070540	1
469.104787	1
473.137710	3
489.111592	1
560.220331	1
566.229152	1
573.117022	1
582.200785	1
797.282399	27
798.282611	9
799.271901	2
799.288974	1
800.280136	1
802.285168	1
803.290511	6
804.293437	2
805.298241	1
819.264234	3
820.266170	1
855.300548	1
871.277883	1
1195.423346	1
1196.415441	1
