Mass spectrum: cis-Aconitic acid; LC-ESI-ITFT; MS; NEG
Name: cis-Aconitate
Name: cis-Aconitic acid
Class: Natural Product
Formula: C6H6O6
Exact mass: 174.01644
SMILES: OC(=O)CC(C(O)=O)=C([H])C(O)=O
InChI: InChI=1S/C6H6O6/c7-4(8)1-3(6(11)12)2-5(9)10/h1H,2H2,(H,7,8)(H,9,10)(H,11,12)/b3-1-
Instrument: LTQ Orbitrap XL, Thermo Scientfic
Instrument type: LC-ESI-ITFT
Ms type: MS
Ion mode: NEGATIVE
Collision energy: 35eV
Ionization: ESI
Column name: TOSOH TSKgel ODS-100V  5um Part no. 21456
Retention time: 10.905033 min
Base peak: 173.008957
m/z	relative intensity
100.586006	1
101.478543	1
102.748622	1
103.266709	1
104.887711	1
105.450922	1
105.522154	1
106.017032	1
106.943493	1
108.500427	1
111.006678	2
111.007562	1
111.008667	44
111.010656	2
112.012000	2
112.338821	1
112.956383	1
112.985421	14
112.986555	1
114.393891	1
114.951389	8
115.951667	1
118.764626	1
119.422442	1
121.744374	1
122.932619	1
128.993767	2
129.008439	1
129.009269	1
129.010100	1
129.012315	3
129.013422	2
129.014253	2
129.015360	4
129.016744	10
129.017852	5
129.019236	391
129.021728	12
129.023112	2
129.024220	3
129.026712	2
129.044712	2
129.095965	1
130.020110	1
130.022351	12
132.843909	1
133.402815	1
134.047025	1
135.971050	1
136.971952	2
136.976495	1
139.006578	4
140.964111	3
141.876012	1
143.019498	1
143.801790	1
145.008266	2
146.244355	1
148.924301	1
148.952117	3
151.000778	11
151.540692	1
152.470834	1
153.676283	1
154.459945	1
154.943444	1
154.998116	7
155.758130	1
156.834619	1
156.894379	1
156.959003	5
157.159816	1
158.121965	1
158.925159	1
159.893276	1
160.324644	1
160.805908	1
160.892241	1
162.951076	2
162.971513	1
163.295097	1
163.954682	1
164.895556	1
164.966788	7
166.586260	1
170.987678	2
172.000908	1
172.810951	1
172.889951	2
172.962558	1
172.969434	5
172.974592	1
172.975452	1
172.986197	2
172.987917	1
172.992215	2
172.994365	2
172.998234	5
173.001673	7
173.002963	5
173.005112	24
173.008982	999
173.012851	25
173.015001	5
173.016291	8
173.019301	5
173.020161	5
173.024030	3
173.025750	2
173.031341	2
173.048543	5
173.127705	2
174.008162	1
174.009897	1
174.012065	56
174.015969	1
174.925072	1
175.012962	5
176.702636	1
178.979238	2
180.961608	3
180.995187	3
182.146629	1
182.938290	2
182.977097	1
183.132447	1
183.874481	1
184.397538	2
184.976053	3
186.987171	1
189.435043	1
190.945951	7
191.014763	1
191.019252	5
194.990119	5
195.023561	2
198.512051	1
200.948621	8
201.062764	1
202.064594	1
205.442714	1
206.168425	1
206.960976	2
208.467694	1
208.946199	1
208.956471	17
209.955862	1
210.953756	1
211.333429	1
212.613855	1
216.628707	1
220.806707	1
221.961125	1
223.977129	1
223.987896	1
224.984926	10
226.927357	4
226.968051	1
227.022973	1
228.025396	1
228.345801	1
229.257947	1
229.711138	1
230.114224	1
232.940241	1
232.953003	1
232.992641	1
233.938884	2
234.931037	1
234.935799	21
234.975944	1
235.935677	1
235.938415	1
236.931615	1
237.192972	1
240.935290	1
240.979810	1
244.937712	6
245.983236	1
246.966528	3
248.938266	1
250.963754	3
250.985538	2
251.924956	1
251.977090	1
252.946406	5
254.974182	2
256.961057	1
258.971247	1
262.905922	1
263.181580	1
266.957324	1
267.526016	1
270.653316	1
272.330095	1
272.899866	1
275.033985	1
276.943164	1
278.981426	4
281.027140	23
282.030256	2
283.002770	2
284.691403	1
285.314084	1
289.280184	1
289.948768	1
290.955999	9
291.957178	1
292.957848	1
292.993851	1
293.957007	1
294.953629	7
296.992114	3
298.963888	3
299.011749	2
303.008655	6
312.964492	3
313.023078	2
314.262456	1
314.939281	1
316.213439	1
316.355844	1
317.075712	1
318.358578	1
318.973332	1
324.875712	1
324.990799	4
325.016259	7
326.889665	1
326.992418	4
327.285306	1
330.949137	1
334.945680	8
335.004754	1
335.949729	1
337.110269	1
338.481456	1
338.943129	2
340.957442	1
340.981233	6
342.784635	1
342.869783	1
342.953763	8
346.054849	11
346.950520	1
346.998143	9
347.025011	58
347.057990	2
348.027469	4
355.945643	1
356.953901	3
361.585424	1
363.231695	1
364.961674	1
364.982751	1
368.985959	1
368.993994	4
369.006047	77
369.018100	1
370.009827	10
370.982606	46
370.993406	1
371.009607	2
371.986335	5
373.089430	1
374.890397	1
374.938400	2
378.935504	2
382.931736	1
384.971437	11
384.980000	1
385.973765	1
386.610646	1
386.942620	1
390.940901	1
390.964268	1
390.975953	2
390.987638	34
391.991574	3
398.299865	1
398.947938	1
399.935862	20
399.949462	1
400.918360	3
400.936561	1
400.944145	25
401.947110	3
402.009540	10
402.943146	2
405.504257	1
406.953688	8
406.961443	3
407.955949	2
408.010441	2
408.925981	2
408.950980	13
412.956631	1
412.970900	19
413.348521	1
413.973206	3
414.974375	1
415.089390	1
420.931072	2
421.918302	2
421.928126	1
422.917225	1
422.925441	24
423.929594	2
426.020086	6
428.943980	2
430.933094	7
438.890519	1
438.899205	1
440.861844	1
442.476970	1
443.899485	1
444.906599	6
445.910030	1
449.911008	1
452.915321	3
453.803488	1
454.639322	1
454.862845	1
459.950927	1
462.870220	3
471.825861	1
476.843793	2
477.848694	1
480.856627	1
484.200888	1
484.851737	2
485.352352	1
485.855765	1
486.929899	1
488.956077	1
493.574418	1
494.051258	1
496.619356	1
514.078296	1
530.857704	1
540.895123	1
542.052042	1
543.021369	17
544.026860	3
545.027934	1
548.382454	1
553.732227	1
554.141110	1
558.895968	1
558.988342	6
559.728165	1
559.988451	1
564.958441	1
565.004110	9
566.007694	1
566.980793	1
568.194303	1
574.440327	1
575.910200	1
578.674885	1
580.969773	2
582.002949	1
586.938974	1
586.987335	4
587.990816	1
588.961765	2
595.590017	1
595.933433	1
596.943418	1
601.340543	1
602.951295	3
608.967985	3
609.971453	1
612.907904	2
612.948041	1
613.944122	1
617.918001	1
618.923318	10
619.928173	2
620.018584	3
624.933265	2
625.908419	1
626.524234	1
626.882891	1
626.930340	1
627.871531	1
628.877409	2
630.950323	1
632.101703	1
636.887654	2
638.027928	1
639.898500	1
640.905840	5
642.899949	1
643.877343	1
643.898951	1
647.550821	1
648.913451	2
649.341522	1
650.860367	2
654.372418	1
658.867298	2
658.915228	1
659.871737	1
660.868845	1
661.852131	1
661.881084	1
662.889201	3
667.719948	1
671.408971	1
674.909965	1
680.851976	1
681.053408	1
684.870565	1
686.855802	1
695.056769	1
702.831337	1
702.926395	1
709.153862	1
715.330694	1
717.039846	2
724.818408	1
731.919241	1
739.022442	1
740.025516	1
742.068353	5
755.987172	1
756.372175	1
756.847942	1
760.384989	1
761.003348	3
766.105670	2
766.995824	1
777.349178	1
782.985325	2
783.988008	1
787.082728	1
789.805664	1
790.061533	2
792.939148	1
794.278114	1
801.804203	1
801.898579	1
804.923136	1
808.116724	3
809.859968	1
811.621965	1
813.911519	1
814.921466	2
816.929361	1
819.019963	2
820.021689	1
820.443318	1
822.930867	1
824.878929	2
832.881519	2
833.890593	1
837.409361	1
837.871965	1
843.902330	1
844.866546	1
845.855654	1
852.865948	1
854.798553	1
854.869383	1
861.027232	2
874.315435	1
875.841334	1
876.066644	1
890.825028	2
891.820476	1
897.299989	1
898.830474	1
905.974967	2
908.784167	1
934.784529	1
940.937982	1
957.003862	1
964.254624	1
964.792267	1
988.936310	1
1002.829952	1
1005.969235	7
1006.976678	1
1029.884776	1
1030.309520	1
1065.034643	1
1071.857205	1
1087.629289	1
1105.965432	9
1106.966746	3
1112.351154	1
1113.838578	1
1115.519019	1
1153.746240	1
1160.857165	1
1162.263282	1
1162.293227	1
1165.985321	7
1166.986407	2
1177.312768	1
1181.736495	1
1190.333134	1
1205.964553	5
1206.962121	1
1210.192895	1
1228.908088	1
1233.969956	1
1241.894416	1
1244.859847	1
1263.276149	1
1265.978062	18
1266.982865	5
1267.988864	2
1305.953902	1
1333.966349	3
1334.970248	1
1335.375812	1
1342.819243	1
1365.974981	14
1366.967491	4
1367.980202	1
1393.982841	1
1433.947743	2
1434.963914	1
1465.969084	6
1466.966411	1
1482.965940	1
1493.967235	2
1499.404147	1
