Mass spectrum: L-(-)-Threonine; LC-ESI-ITFT; MS2; m/z:102.05; POS
Name: L-Threonine
Name: 2-Amino-3-hydroxybutyric acid
Name: L-(-)-Threonine
Class: Natural Product
Formula: C4H9NO3
Exact mass: 119.05824
SMILES: [H]C(C)(O)C([H])(N)C(O)=O
InChI: InChI=1S/C4H9NO3/c1-2(6)3(5)4(7)8/h2-3,6H,5H2,1H3,(H,7,8)/t2-,3+/m1/s1
Instrument: LTQ Orbitrap XL, Thermo Scientfic
Instrument type: LC-ESI-ITFT
Ms type: MS2
Ion mode: POSITIVE
Collision energy: 35eV
Ionization: ESI
Column name: TOSOH TSKgel ODS-100V  5um Part no. 21456
Retention time: 4.732117 min
Base peak: 55.935863
Precursor m/z: 102.05
m/z	relative intensity
55.935863	999
56.883202	20
57.940384	9
58.893787	2
59.984810	8
60.937927	3
70.092842	2
73.870361	25
79.728287	1
81.520264	62
83.990677	699
85.030235	11
90.399864	21
93.642044	2
100.541748	3
101.907990	23
146.415146	1
