Mass spectrum: L-(+)-Lysine; LC-ESI-ITFT; MS2; m/z:148.12; POS
Name: L-Lysine
Name: Lysine acid
Name: 2,6-Diaminohexanoic acid
Name: L-(+)-Lysine
Class: Natural Product
Formula: C6H14N2O2
Exact mass: 146.10553
SMILES: NCCCC[C@H](N)C(O)=O
InChI: InChI=1S/C6H14N2O2/c7-4-2-1-3-5(8)6(9)10/h5H,1-4,7-8H2,(H,9,10)/t5-/m0/s1
Instrument: LTQ Orbitrap XL, Thermo Scientfic
Instrument type: LC-ESI-ITFT
Ms type: MS2
Ion mode: POSITIVE
Collision energy: 35eV
Ionization: ESI
Column name: TOSOH TSKgel ODS-100V  5um Part no. 21456
Retention time: 3.924528 min
Base peak: 131.002106
Precursor m/z: 148.12
m/z	relative intensity
84.007416	9
85.066010	44
119.950378	2
124.739700	1
130.027802	185
131.002106	999
131.830765	2
147.887039	1
148.792908	1
