Mass spectrum: cis-Aconitic acid; LC-ESI-ITFT; MS; NEG
Name: cis-Aconitate
Name: cis-Aconitic acid
Class: Natural Product
Formula: C6H6O6
Exact mass: 174.01644
SMILES: OC(=O)CC(C(O)=O)=C([H])C(O)=O
InChI: InChI=1S/C6H6O6/c7-4(8)1-3(6(11)12)2-5(9)10/h1H,2H2,(H,7,8)(H,9,10)(H,11,12)/b3-1-
Instrument: LTQ Orbitrap XL, Thermo Scientfic
Instrument type: LC-ESI-ITFT
Ms type: MS
Ion mode: NEGATIVE
Collision energy: 35eV
Ionization: ESI
Column name: TOSOH TSKgel ODS-100V  5um Part no. 21456
Retention time: 10.976048 min
Base peak: 173.008957
m/z	relative intensity
102.807285	1
103.920296	2
104.928313	1
105.713898	1
107.226968	1
108.722834	1
109.187379	1
110.282818	1
111.007120	2
111.008667	43
111.010435	2
112.956156	1
112.983606	2
112.985421	33
112.987236	2
114.951389	12
115.299354	1
115.381031	1
115.831690	1
117.435376	1
118.188661	1
118.764871	1
119.729513	1
120.477278	1
120.675895	1
122.430207	1
125.061189	1
125.309408	1
125.476271	1
126.121643	1
126.762569	1
127.364932	1
127.556874	1
128.993767	2
129.014806	4
129.015914	3
129.017021	9
129.019236	315
129.021728	12
129.023943	4
129.026158	1
129.044712	2
129.964947	1
130.022351	9
130.023751	1
131.023041	1
134.733134	1
134.976931	1
136.485336	1
136.971952	4
137.464219	1
138.969429	1
139.006578	2
140.143374	1
140.963795	2
145.890482	2
148.952117	3
151.000778	6
152.004519	1
154.943080	2
154.998116	10
156.073353	1
156.894379	2
156.895493	1
156.959003	4
158.997103	1
159.893276	1
160.891855	2
161.893591	2
162.892928	4
162.951076	4
164.895156	1
164.966788	6
165.000419	1
165.460274	1
168.033639	1
170.987678	1
172.889951	2
172.904125	1
172.954393	1
172.969434	6
172.993075	1
172.993935	1
172.998234	4
173.001673	11
173.005112	30
173.008982	999
173.012421	35
173.014571	2
173.015861	10
173.018441	2
173.019731	4
173.027900	1
173.029191	2
173.048543	6
173.127705	2
173.362501	1
173.961336	1
174.008162	1
174.012065	54
174.015535	2
175.012962	7
175.014711	1
175.129814	1
175.778338	1
177.110285	1
180.961608	4
180.963908	1
180.994727	1
182.937823	2
184.469467	2
188.932610	1
189.245535	1
190.945951	4
190.947945	1
191.318378	1
193.639612	1
193.805172	1
194.990119	3
195.023561	1
195.307906	1
197.285482	1
198.254959	1
200.948083	7
203.143931	1
207.850357	1
207.960232	2
208.283568	1
208.956471	14
210.953177	1
217.814837	1
219.431413	1
222.510061	1
222.969169	1
223.977129	1
224.984289	5
225.889175	1
226.927357	3
230.077955	1
231.935298	1
232.470099	1
232.940241	1
234.926275	1
234.935119	16
238.491655	1
238.767448	1
239.970906	1
241.415057	1
242.148077	1
242.943094	1
244.256175	1
244.937712	6
246.935000	1
246.966528	3
248.937523	2
250.941972	1
250.963754	3
252.945646	4
253.001899	1
256.390793	1
257.335791	1
261.142198	1
262.904311	2
263.600731	1
267.966366	1
268.974473	1
270.236541	1
271.918760	1
272.016209	1
276.943164	1
278.981426	2
281.027140	16
281.282765	1
282.030256	1
283.003670	1
288.031190	1
290.955999	7
292.993851	1
294.952672	2
295.187287	1
296.727338	1
296.992114	3
298.963888	3
299.010772	2
302.961824	1
303.008655	4
303.675426	1
307.167591	1
308.981964	1
311.510365	1
311.956467	2
314.939281	2
315.285918	1
324.778378	1
324.875712	1
324.894520	1
324.903371	2
324.990799	3
325.016259	5
326.992418	1
328.828879	1
329.555590	1
332.694077	1
333.754816	1
333.938055	1
334.945680	8
335.948566	1
338.943129	1
340.981233	4
341.959988	1
342.953763	5
344.465853	1
344.993090	1
345.020936	1
346.998143	4
347.023790	33
348.027469	4
351.648349	1
355.946911	1
356.953901	3
358.336533	1
364.062331	1
364.603642	1
364.961674	1
366.994762	1
367.002732	1
368.980603	1
369.006047	46
370.009827	7
370.982606	34
371.504254	1
371.984979	4
374.890397	2
374.938400	2
378.935504	3
380.749539	1
384.971437	9
390.940901	1
390.987638	19
391.991574	3
393.344042	1
397.939673	2
399.935862	35
400.916844	1
400.944145	14
401.947110	2
402.943146	1
406.953688	6
408.950980	7
410.758467	1
412.970900	13
418.879499	1
421.918302	2
422.925441	18
423.809237	1
423.929594	2
430.933094	4
435.838733	1
440.863593	1
441.974473	1
443.899485	1
444.906599	4
445.671741	1
452.915321	2
454.862845	2
460.128028	1
461.235822	1
461.861535	1
462.870220	2
476.843793	2
481.113720	1
484.851737	3
484.863840	1
487.023294	1
495.652675	1
509.013671	1
510.897826	1
510.906553	1
510.939282	1
510.948010	1
511.255819	1
520.899396	1
531.359509	1
532.307245	1
541.218497	1
542.875565	1
543.023760	12
544.024462	4
547.953269	1
550.221271	1
555.266641	1
558.988342	2
565.004110	4
570.046314	1
570.205773	1
586.987335	2
587.988122	1
588.961765	1
594.419147	1
595.933433	3
596.943418	1
602.951295	2
607.845225	1
608.967985	2
617.915099	4
618.923318	6
619.928173	1
626.930340	2
627.868559	1
628.880388	1
630.947329	1
634.888184	1
635.877652	2
636.887654	1
637.270445	1
639.895442	1
640.905840	3
648.913451	1
649.382164	1
649.854516	2
650.860367	3
658.867298	1
663.896391	1
674.261162	2
675.994492	1
678.171403	1
688.225024	1
694.759129	1
706.308142	1
717.036218	2
722.894073	1
726.047660	1
732.772951	1
739.018646	1
750.822157	1
756.828273	1
761.003348	2
765.101100	1
766.859393	1
770.822621	1
770.846881	1
781.868898	1
782.981186	1
787.366492	1
789.277543	1
793.272517	2
796.456401	1
798.336732	1
800.086890	1
806.599785	1
813.793083	1
813.911519	2
814.921466	1
815.717572	1
822.926407	1
823.868291	2
838.091950	1
846.855812	1
853.854999	1
866.779176	1
878.846069	1
885.797984	1
891.835571	1
892.726877	1
896.914172	1
897.691136	1
905.974967	5
908.411611	1
918.462216	1
919.815240	1
920.801616	1
920.812174	1
923.759674	1
925.326473	1
931.800270	1
939.978973	1
940.768960	1
963.214573	1
992.843382	1
1002.272197	1
1005.902930	1
1005.969235	15
1006.976678	3
1007.043090	1
1016.485557	1
1032.343179	1
1046.262794	1
1065.389333	1
1065.994028	2
1068.424559	1
1073.529892	1
1074.234653	1
1076.846976	1
1088.958752	1
1094.868930	1
1098.574359	1
1105.965432	15
1106.966746	3
1116.336002	1
1123.352304	1
1129.301258	1
1138.360852	1
1148.220573	1
1150.598592	1
1153.738836	1
1161.724467	1
1165.985321	18
1166.986407	5
1167.724875	1
1180.816026	1
1189.836715	1
1196.947936	1
1202.884668	1
1205.869611	1
1205.956640	10
1206.954199	2
1233.978145	3
1250.137601	1
1255.953397	2
1261.361176	1
1265.875946	1
1265.978062	29
1266.982865	9
1267.980333	2
1277.476500	1
1282.971940	3
1286.042234	1
1299.159435	1
1305.739933	1
1307.390637	1
1319.948314	1
1333.966349	7
1336.565919	1
1344.205519	1
1359.966751	1
1365.974981	23
1366.977040	6
1382.957032	3
1393.982841	2
1414.140221	1
1417.270047	1
1423.652284	1
1433.958002	4
1434.963914	1
1443.930180	1
1444.801336	1
1448.450067	1
1465.969084	12
1466.966411	5
1467.986008	1
1469.442900	1
1472.608730	1
1487.746386	1
