Mass spectrum: alpha-D-Glucose 6-phosphate; LC-ESI-ITFT; MS2; m/z:261.04; POS
Name: alpha-D-Glucose 6-phosphate
Class: Natural Product
Formula: C6H13O9P
Exact mass: 260.02972
SMILES: O[C@@H](O1)[C@H](O)[C@@H](O)[C@H](O)[C@H]1COP(O)(O)=O
InChI: InChI=1S/C6H13O9P/c7-3-2(1-14-16(11,12)13)15-6(10)5(9)4(3)8/h2-10H,1H2,(H2,11,12,13)/t2-,3-,4+,5-,6+/m1/s1
Instrument: LTQ Orbitrap XL, Thermo Scientfic
Instrument type: LC-ESI-ITFT
Ms type: MS2
Ion mode: POSITIVE
Collision energy: 35eV
Ionization: ESI
Column name: TOSOH TSKgel ODS-100V  5um Part no. 21456
Retention time: 6.779527 min
Base peak: 242.927505
Precursor m/z: 261.04
m/z	relative intensity
85.019669	1
98.946503	13
127.051651	5
143.078674	1
145.136139	3
147.223160	1
158.218475	1
159.321457	1
171.262421	1
179.143814	3
182.917358	2
186.358017	1
205.196121	1
207.036880	20
224.965851	114
232.308701	1
236.544205	1
242.927505	999
243.594238	2
246.599442	1
261.288574	1
