Mass spectrum: L-Histidine; LC-ESI-ITFT; MS; POS
Name: L-Histidine
Name: (S)-alpha-Amino-1H-imidazole-4-propionic acid
Class: Natural Product
Formula: C6H9N3O2
Exact mass: 155.06948
SMILES: C1=C(NC=N1)C[C@@H](C(=O)O)N
InChI: InChI=1S/C6H9N3O2/c7-5(6(10)11)1-4-2-8-3-9-4/h2-3,5H,1,7H2,(H,8,9)(H,10,11)/t5-/m0/s1
Instrument: LTQ Orbitrap XL, Thermo Scientfic
Instrument type: LC-ESI-ITFT
Ms type: MS
Ion mode: POSITIVE
Collision energy: 35eV
Ionization: ESI
Column name: TOSOH TSKgel ODS-100V  5um Part no. 21456
Retention time: 4.002500 min
Base peak: 156.076752
m/z	relative intensity
100.111848	7
102.033748	3
102.054776	5
110.019964	3
110.069243	1
110.071206	47
110.072951	1
111.019815	1
111.074410	1
125.986214	1
127.016299	1
129.127203	1
130.007768	3
130.491545	1
133.079496	1
134.986925	1
136.061816	1
137.132305	4
139.982008	2
141.958490	9
142.990237	6
143.039341	1
149.023592	7
155.143621	1
155.512932	1
155.887608	1
155.975141	1
156.013414	1
156.042496	3
156.044705	1
156.052069	1
156.055015	1
156.058697	1
156.060170	1
156.061643	1
156.063853	2
156.065326	1
156.066799	2
156.069009	2
156.070850	6
156.073428	10
156.076743	999
156.079689	12
156.081162	3
156.083004	6
156.086319	2
156.087424	1
156.089266	2
156.091107	1
156.092581	1
156.094791	1
156.096264	1
156.097738	1
156.101053	1
156.102158	1
156.106579	1
156.109527	1
156.111000	3
156.139741	1
156.178812	2
156.266222	1
156.643995	1
157.073697	7
157.079647	62
157.082622	1
158.002552	38
158.005554	1
158.080235	2
158.082863	1
158.095628	2
158.960490	2
158.963518	3
161.083644	1
162.084591	40
163.087815	1
163.132671	4
167.012526	1
167.033320	1
167.092052	1
168.092791	5
169.140766	2
170.096285	2
171.138130	1
171.149125	35
172.152452	2
173.029557	1
173.078147	6
174.127584	25
174.981366	1
175.130548	1
176.013337	2
177.157303	2
178.055032	1
178.058622	77
178.062212	1
179.029713	1
179.063200	6
182.984796	14
184.066782	20
185.114619	21
186.117703	1
186.955501	1
187.126060	7
188.128987	1
190.993035	1
192.991882	1
193.131221	18
194.032190	2
194.134332	1
195.003241	1
199.029134	3
199.180373	4
200.040658	14
200.075934	26
200.577212	2
201.073376	1
201.992593	6
208.190213	1
210.977132	2
216.007958	8
217.104082	2
218.183001	1
220.111375	1
221.161866	1
223.063237	5
226.039572	3
226.950616	1
233.174638	1
236.079978	2
239.182429	1
252.053600	3
255.155987	5
256.001063	1
268.027936	1
270.029095	1
279.158552	1
282.100329	11
282.221186	1
283.102656	1
284.044316	1
298.096688	7
298.100576	1
299.182617	6
301.139269	1
304.066363	1
311.146021	6
312.148828	1
317.154170	7
320.040332	1
323.161301	1
327.176029	1
333.126724	4
336.014171	1
339.135059	2
343.208159	2
345.142654	1
355.109146	1
355.153389	1
361.116128	1
372.053259	1
391.284356	20
392.286254	3
397.291107	4
399.143313	21
400.145327	1
413.130293	1
413.265143	30
414.268274	4
426.356690	1
429.237976	3
436.341219	1
438.317428	1
803.539991	1
