Mass spectrum: L-Cysteine; LC-ESI-ITFT; MS; POS
Name: L-Cysteine
Name: L-2-Amino-3-mercaptopropionic acid
Class: Natural Product
Formula: C3H7NO2S
Exact mass: 121.01975
SMILES: N[C@@H](CS)C(O)=O
InChI: InChI=1S/C3H7NO2S/c4-2(1-7)3(5)6/h2,7H,1,4H2,(H,5,6)/t2-/m0/s1
Instrument: LTQ Orbitrap XL, Thermo Scientfic
Instrument type: LC-ESI-ITFT
Ms type: MS
Ion mode: POSITIVE
Collision energy: 35eV
Ionization: ESI
Column name: TOSOH TSKgel ODS-100V  5um Part no. 21456
Retention time: 4.992053 min
Base peak: 132.076385
m/z	relative intensity
100.021282	1
100.111848	1
105.000100	7
120.065375	4
121.895091	1
121.956376	1
121.982837	1
122.003198	2
122.009307	1
122.014907	1
122.015926	1
122.016689	1
122.018471	1
122.019490	1
122.020254	1
122.021017	1
122.022800	2
122.023818	2
122.024582	5
122.025091	4
122.026873	506
122.028146	5
122.028910	7
122.030692	2
122.032220	1
122.032984	1
122.033748	1
122.034767	1
122.037313	1
122.038332	1
122.050301	2
122.070678	1
122.097431	1
122.158614	1
123.023635	1
123.025955	3
123.029821	14
124.022485	21
124.030572	1
131.637381	1
131.928273	1
131.996993	1
132.000430	1
132.026788	1
132.046848	1
132.047995	1
132.050001	4
132.054874	1
132.056594	1
132.058887	1
132.061180	1
132.062900	1
132.064046	2
132.064906	1
132.065766	1
132.066913	1
132.068060	2
132.069207	2
132.069780	1
132.071500	4
132.072934	3
132.073794	10
132.076374	999
132.078668	12
132.080961	5
132.081821	2
132.082682	1
132.083255	1
132.084115	3
132.085262	2
132.086696	1
132.088130	2
132.089277	1
132.091284	1
132.093578	1
132.094438	1
132.095872	1
132.096732	1
132.098453	1
132.102755	4
132.104189	1
132.105336	1
132.125701	1
132.155827	2
132.225012	1
132.517567	1
133.073116	7
133.079496	39
133.080945	1
134.080012	2
141.958171	1
149.022904	2
158.002177	2
158.960868	1
163.132278	1
171.148702	9
174.127150	4
182.984328	1
187.125577	1
199.179842	1
223.062608	2
249.154472	1
263.145883	59
263.152333	1
264.148537	2
391.282894	11
392.284786	2
512.300207	1
522.349771	1
