Mass spectrum: Cytidine; LC-ESI-ITFT; MS; POS
Name: Cytidine
Class: Natural Product
Formula: C9H13N3O5
Exact mass: 243.08552
SMILES: OC[C@@H](O1)[C@@H](O)[C@@H](O)[C@@H]1N(C=2)C(=O)N=C(N)C2
InChI: InChI=1S/C9H13N3O5/c10-5-1-2-12(9(16)11-5)8-7(15)6(14)4(3-13)17-8/h1-2,4,6-8,13-15H,3H2,(H2,10,11,16)/t4-,6-,7-,8-/m1/s1
Instrument: LTQ Orbitrap XL, Thermo Scientfic
Instrument type: LC-ESI-ITFT
Ms type: MS
Ion mode: POSITIVE
Collision energy: 35eV
Ionization: ESI
Column name: TOSOH TSKgel ODS-100V  5um Part no. 21456
Retention time: 5.455707 min
Base peak: 244.092697
m/z	relative intensity
112.029549	1
112.043885	1
112.045229	1
112.046797	1
112.047469	2
112.048589	3
112.050382	251
112.052174	4
112.053742	2
112.055311	1
112.056655	1
112.071220	1
113.047219	1
113.053577	8
123.055085	1
134.026655	1
136.061516	6
149.023248	1
158.002552	1
170.065282	22
170.566564	3
171.062882	1
171.149125	4
174.127584	2
184.554536	1
193.021258	1
193.053173	1
193.056213	1
193.060266	2
193.062293	1
193.064320	3
193.067867	300
193.071920	4
193.073947	1
193.075974	2
193.079015	1
193.082055	1
193.114999	1
193.565912	1
193.568964	53
193.573034	1
194.065377	10
194.069973	2
194.566778	1
224.127985	1
242.989778	1
243.716869	1
243.893756	1
243.967875	1
244.026187	2
244.028347	1
244.054271	1
244.060032	1
244.062913	1
244.065793	1
244.067954	1
244.071555	2
244.075877	2
244.081639	5
244.084520	2
244.088121	10
244.092443	999
244.098206	11
244.101087	2
244.103969	5
244.108291	2
244.110452	1
244.112613	2
244.116936	1
244.118377	1
244.120538	1
244.124140	1
244.125581	1
244.129904	1
244.159447	2
244.218549	1
244.292095	1
244.468886	1
245.083735	1
245.090258	3
245.095331	101
245.101129	1
245.202632	1
246.095661	5
246.098578	1
332.560117	1
385.118565	1
385.128558	103
385.138552	1
386.131254	13
387.123484	2
387.129239	1
391.282894	3
487.145866	1
487.164145	1
487.178362	189
487.192580	2
487.208829	1
488.181230	37
489.181068	3
560.075093	1
628.212490	6
629.215966	1
634.366158	1
664.112670	1
803.161515	1
