Mass spectrum: 3',5'-Cyclic AMP; LC-ESI-ITFT; MS2; m/z:331.06; POS
Name: 3',5'-Cyclic AMP
Name: Cyclic adenylic acid
Name: Cyclic AMP
Name: Adenosine 3',5'-phosphate
Name: cAMP
Class: Natural Product
Formula: C10H12N5O6P
Exact mass: 329.05252
SMILES: Nc(n4)c(n3)c(nc4)n(c3)[C@H](O1)[C@H](O)[C@H](O2)[C@@H](COP(O)(=O)2)1
InChI: InChI=1S/C10H12N5O6P/c11-8-5-9(13-2-12-8)15(3-14-5)10-6(16)7-4(20-10)1-19-22(17,18)21-7/h2-4,6-7,10,16H,1H2,(H,17,18)(H2,11,12,13)/t4-,6-,7-,10-/m1/s1
Instrument: LTQ Orbitrap XL, Thermo Scientfic
Instrument type: LC-ESI-ITFT
Ms type: MS2
Ion mode: POSITIVE
Collision energy: 35eV
Ionization: ESI
Column name: TOSOH TSKgel ODS-100V  5um Part no. 21456
Retention time: 9.786815 min
Base peak: 312.174744
Precursor m/z: 331.06
m/z	relative intensity
97.165741	13
119.132538	7
136.146210	555
137.123398	23
148.157440	2
159.030334	1
162.117722	3
173.180527	1
174.211884	1
176.179733	5
177.087387	15
178.255859	4
186.221390	3
187.137756	1
190.277176	12
191.255859	1
202.232132	1
204.121185	33
205.165146	3
208.220001	3
214.162231	38
215.231110	3
216.262848	2
232.239563	82
233.302155	7
250.171600	53
251.237549	5
270.178314	3
284.178711	2
302.331665	1
312.174744	999
313.111908	78
330.098114	1
