Mass spectrum: DL-Isocitric acid; LC-ESI-ITFT; MS2; m/z:224.13; POS
Name: Isocitrate
Name: Isocitric acid
Name: 1-Hydroxytricarballylic acid
Name: 1-Hydroxypropane-1,2,3-tricarboxylic acid
Name: DL-Isocitric acid
Class: Natural Product
Formula: C6H8O7
Exact mass: 192.02700
SMILES: OC(=O)CC(C(O)=O)C(O)C(O)=O
InChI: InChI=1S/C6H8O7/c7-3(8)1-2(5(10)11)4(9)6(12)13/h2,4,9H,1H2,(H,7,8)(H,10,11)(H,12,13)
Instrument: LTQ Orbitrap XL, Thermo Scientfic
Instrument type: LC-ESI-ITFT
Ms type: MS2
Ion mode: POSITIVE
Collision energy: 35eV
Ionization: ESI
Column name: TOSOH TSKgel ODS-100V  5um Part no. 21456
Retention time: 8.853547 min
Base peak: 164.996643
Precursor m/z: 224.13
m/z	relative intensity
77.045418	11
79.036476	51
88.017654	1
90.970894	19
92.960892	163
117.128159	1
119.102737	9
120.979950	189
147.011826	1
149.106018	2
150.126938	4
164.996643	999
168.036606	3
178.136734	12
179.142151	13
180.143280	5
183.012161	6
193.919556	1
196.360962	1
201.151306	1
206.078537	2
207.229721	12
208.166641	50
209.051025	1
210.236221	7
215.084396	3
223.931931	1
224.987137	1
226.031479	5
