Mass spectrum: L-Tryptophan; LC-ESI-ITFT; MS2; m/z:429.15; NEG
Name: L-Tryptophan
Name: Tryptophan
Name: (S)-alpha-Amino-beta-(3-indolyl)-propionic acid
Class: Natural Product
Formula: C11H12N2O2
Exact mass: 204.08988
SMILES: C1=CC=C2C(=C1)C(=CN2)C[C@@H](C(=O)O)N
InChI: InChI=1S/C11H12N2O2/c12-9(11(14)15)5-7-6-13-10-4-2-1-3-8(7)10/h1-4,6,9,13H,5,12H2,(H,14,15)/t9-/m0/s1
Instrument: LTQ Orbitrap XL, Thermo Scientfic
Instrument type: LC-ESI-ITFT
Ms type: MS2
Ion mode: NEGATIVE
Collision energy: 35eV
Ionization: ESI
Column name: TOSOH TSKgel ODS-100V  5um Part no. 21456
Retention time: 13.961258 min
Base peak: 225.094284
Precursor m/z: 429.15
m/z	relative intensity
128.039780	2
130.121414	17
142.127319	9
159.125504	9
173.225555	2
195.151016	2
203.146317	297
225.094284	999
385.393097	3
410.745850	2
