Mass spectrum: Adenosine; LC-ESI-ITFT; MS2; m/z:269.11; POS
Name: Adenosine
Class: Natural Product
Formula: C10H13N5O4
Exact mass: 267.09675
SMILES: OC[C@@H](O1)[C@@H](O)[C@@H](O)[C@@H]1n(c3)c(n2)c(n3)c(N)nc2
InChI: InChI=1S/C10H13N5O4/c11-8-5-9(13-2-12-8)15(3-14-5)10-7(18)6(17)4(1-16)19-10/h2-4,6-7,10,16-18H,1H2,(H2,11,12,13)/t4-,6-,7-,10-/m1/s1
Instrument: LTQ Orbitrap XL, Thermo Scientfic
Instrument type: LC-ESI-ITFT
Ms type: MS2
Ion mode: POSITIVE
Collision energy: 35eV
Ionization: ESI
Column name: TOSOH TSKgel ODS-100V  5um Part no. 21456
Retention time: 5.481518 min
Base peak: 136.965866
Precursor m/z: 269.11
m/z	relative intensity
119.100723	1
136.024063	838
136.965866	999
202.204269	1
251.123276	1
