Mass spectrum: L-Glutathione (reduced form); LC-ESI-ITFT; MS; POS
Name: Glutathione
Name: 5-L-Glutamyl-L-cysteinylglycine
Name: N-(N-gamma-L-Glutamyl-L-cysteinyl)glycine
Name: gamma-L-Glutamyl-L-cysteinyl-glycine
Name: GSH
Name: Reduced glutathione
Name: L-Glutathione (reduced form)
Class: Natural Product
Formula: C10H17N3O6S
Exact mass: 307.08381
SMILES: OC(=O)CNC(=O)C(CS)NC(=O)CCC(N)C(O)=O
InChI: InChI=1S/C10H17N3O6S/c11-5(10(18)19)1-2-7(14)13-6(4-20)9(17)12-3-8(15)16/h5-6,20H,1-4,11H2,(H,12,17)(H,13,14)(H,15,16)(H,18,19)/t5-,6-/m0/s1
Instrument: LTQ Orbitrap XL, Thermo Scientfic
Instrument type: LC-ESI-ITFT
Ms type: MS
Ion mode: POSITIVE
Collision energy: 35eV
Ionization: ESI
Column name: TOSOH TSKgel ODS-100V  5um Part no. 21456
Retention time: 8.858290 min
Base peak: 308.091064
m/z	relative intensity
107.069996	1
130.049497	1
141.958171	1
149.022904	1
155.142891	1
162.021856	2
163.132671	1
171.149125	7
174.127584	3
179.048265	13
179.063200	1
182.984796	1
187.126060	1
199.179842	1
222.112313	8
223.063237	8
223.115476	1
224.062720	1
224.127985	27
225.130812	2
233.059005	3
235.037905	2
242.561791	1
290.080490	18
291.064711	1
291.084409	1
306.528872	1
307.574621	1
307.809097	1
307.918271	1
307.996871	3
308.018312	1
308.036692	1
308.042820	1
308.044862	1
308.053032	1
308.057117	1
308.059160	1
308.061202	1
308.065287	2
308.067330	1
308.073458	4
308.078565	3
308.081629	6
308.084693	7
308.090822	999
308.098994	9
308.105123	3
308.107166	3
308.110230	2
308.113295	1
308.115338	1
308.119424	1
308.123511	1
308.127597	1
308.130662	1
308.133727	1
308.138835	1
308.162335	1
308.184816	3
308.263518	1
308.373956	1
308.609347	1
309.084016	1
309.087095	1
309.093254	131
309.101465	1
309.665770	1
310.087177	41
310.092334	5
311.087975	2
311.095230	1
391.282894	6
392.286254	1
426.356690	1
615.175264	54
616.176542	11
617.168683	2
617.180268	1
698.366038	1
922.255457	6
923.261422	2
924.247803	1
1075.798956	1
1076.305668	1
1229.339000	1
1230.341017	1
