Mass spectrum: L-Aspartic acid; LC-ESI-ITFT; MS; NEG
Name: L-Aspartate
Name: L-Aspartic acid
Name: 2-Aminosuccinic acid
Class: Natural Product
Formula: C4H7NO4
Exact mass: 133.03751
SMILES: OC(=O)CC(N)C(O)=O
InChI: InChI=1S/C4H7NO4/c5-2(4(8)9)1-3(6)7/h2H,1,5H2,(H,6,7)(H,8,9)/t2-/m0/s1
Instrument: LTQ Orbitrap XL, Thermo Scientfic
Instrument type: LC-ESI-ITFT
Ms type: MS
Ion mode: NEGATIVE
Collision energy: 35eV
Ionization: ESI
Column name: TOSOH TSKgel ODS-100V  5um Part no. 21456
Retention time: 4.701022 min
Base peak: 132.030182
m/z	relative intensity
100.115941	3
100.546184	4
100.721464	4
101.053631	3
101.736677	4
101.743269	3
103.354198	3
103.920296	12
104.928110	7
105.467700	3
105.676328	3
106.171879	4
109.523992	4
112.135288	3
112.717023	3
112.717701	4
112.983606	12
112.985648	254
112.987463	10
113.035582	18
113.955726	4
114.019645	25
114.021255	3
114.951622	17
115.003565	9
118.048959	11
118.050897	383
118.053078	15
118.055259	5
118.814037	3
119.532486	4
121.755541	4
122.038796	4
122.784681	3
122.894001	6
123.951717	9
124.000226	4
124.002835	5
124.005183	13
124.007270	352
124.008836	9
124.009618	13
124.011966	5
124.713921	4
125.600640	3
126.002913	8
126.562462	4
127.435025	3
127.720340	4
127.980077	12
128.969413	3
130.992728	4
131.036643	4
131.041461	3
131.043445	8
131.045996	227
131.048546	8
132.003804	4
132.022718	7
132.023291	7
132.025297	24
132.027590	27
132.030169	999
132.032749	33
132.034182	9
132.035042	13
132.037335	7
132.049375	8
132.399828	3
133.033299	15
136.661438	3
138.848178	3
140.298030	4
140.966957	8
141.261495	3
142.220818	4
142.890974	5
142.977821	4
144.024242	11
144.826328	3
144.891220	4
145.890149	5
147.892743	5
148.543217	4
149.416869	4
151.408610	3
151.612265	4
151.982923	8
153.442599	4
153.806299	4
154.027451	4
154.946723	6
155.317250	4
156.894379	4
158.925538	7
159.744406	4
159.893276	6
160.009080	5
160.019406	11
160.892241	6
161.893981	4
165.962036	5
167.022582	22
168.961750	6
169.019442	5
170.003475	11
171.969801	6
173.014571	9
173.985180	27
173.998188	12
174.918078	6
175.994284	7
177.982301	5
178.020887	3
178.976976	5
179.977276	18
181.046263	4
182.460999	4
182.922397	4
184.208452	3
184.513971	8
184.516812	4
186.037206	5
188.014062	8
189.980043	30
193.956654	12
194.041398	5
196.000239	5
196.992107	5
197.987839	49
198.987958	6
200.995989	7
202.975006	5
203.959257	8
207.437686	4
207.485673	3
207.946068	17
208.378442	3
208.822428	4
208.983866	7
211.012234	4
211.966944	5
212.973355	4
213.992865	11
214.272885	4
214.913721	9
215.024479	11
217.040120	14
217.974656	12
218.023913	6
220.941287	6
221.925518	19
222.718399	4
225.982852	10
229.378667	4
230.023898	4
230.970664	4
232.003383	9
232.040107	34
232.924121	5
233.938884	5
234.020027	5
234.237969	5
234.572240	4
234.963015	4
236.887523	4
237.108105	25
237.995598	7
238.816249	4
239.862784	4
243.051874	6
243.055454	11
243.923309	5
244.096862	5
244.154514	4
244.985519	10
245.022471	17
245.037688	4
245.094224	18
245.920564	5
246.019684	5
246.935733	9
247.937286	4
248.499546	4
248.938266	12
249.021397	40
249.024367	3
250.103667	37
250.941972	10
251.689419	3
253.030032	11
253.114461	4
256.059919	22
256.918260	5
257.043568	17
257.498872	4
257.902169	4
257.996878	4
258.002358	5
258.915353	6
259.025584	5
259.090181	21
260.093737	4
260.993168	7
261.052127	4
261.059299	8
261.066471	387
261.071253	4
261.073644	9
262.069519	30
262.405689	4
263.098514	15
263.730961	4
264.083305	15
264.629820	4
265.046731	16
265.067113	17
269.028654	3
269.031989	3
269.034490	4
270.281030	4
270.784598	4
271.002770	85
272.085726	21
272.998695	7
273.003808	5
273.069441	7
274.061930	21
275.046050	219
275.054668	5
276.049344	13
277.034614	5
277.624465	4
278.041811	20
278.823027	4
279.025449	8
280.028481	6
280.779864	4
280.981752	5
281.025360	30
281.072539	14
281.955105	4
283.280011	4
285.081135	6
286.025612	4
286.976628	5
287.877018	3
288.024725	8
288.040425	5
288.518518	4
289.024723	59
289.034935	8
290.019673	229
291.027274	76
292.023164	5
292.030706	7
293.028912	4
294.067493	12
295.004359	12
295.052230	17
295.071381	3
296.983411	19
299.035195	20
300.038138	4
302.003684	6
302.045334	5
303.014634	21
303.998621	79
304.022656	33
304.991435	9
305.006530	27
306.776381	3
308.047236	11
309.030198	4
309.978687	5
310.963665	16
311.794137	4
312.031431	20
312.997967	5
316.994658	6
317.018118	7
317.977937	34
318.001506	21
318.971179	8
318.986248	7
320.067508	5
320.710006	4
321.060782	7
322.501384	4
322.758676	3
324.970876	4
325.995976	7
326.010433	11
326.156169	3
326.159508	3
327.004707	10
329.001312	5
330.177004	4
331.015121	4
331.072019	95
332.074693	14
332.960222	6
336.537996	3
337.031933	5
338.917194	5
338.991471	7
339.999566	19
341.995832	5
342.030487	6
344.066395	5
344.977352	5
345.051208	31
345.956355	10
349.657260	4
351.097088	6
351.167945	4
352.550829	4
352.970170	4
352.993975	11
353.464322	4
354.176013	4
362.706486	4
362.987240	3
368.311972	4
370.048826	7
371.056867	13
376.972560	4
377.012665	5
377.592829	3
380.124280	18
384.964302	4
386.081236	7
393.120108	17
394.104188	23
394.113057	8
397.756763	4
398.292356	3
399.075935	7
400.059799	13
400.082477	20
404.191487	4
406.115877	5
407.099524	23
407.108835	6
408.063387	7
408.089863	4
408.239427	3
408.531001	3
409.077568	9
410.086122	21
410.914221	4
411.087386	3
413.054947	6
413.078739	10
414.060744	5
415.033474	9
416.511857	4
420.093672	10
421.998544	5
422.072256	7
423.056930	4
423.081591	20
427.955419	11
428.029025	8
429.011125	5
429.037988	8
431.059880	5
432.502413	4
434.044440	7
434.994186	5
436.051974	7
436.076059	6
436.267093	4
438.977389	3
442.032410	12
444.046179	5
444.122206	4
444.784289	3
448.050710	4
449.048621	5
449.071994	4
454.031879	4
455.398505	3
460.292170	4
468.118514	3
470.766549	3
470.849541	4
474.105382	4
476.629432	4
480.858619	4
481.191486	4
483.388665	4
494.335617	4
499.182243	11
507.310421	4
531.012563	4
535.320125	4
539.978891	4
541.925696	4
543.215068	4
543.554889	3
544.216300	5
544.343448	6
545.215492	6
547.214894	7
554.826881	4
555.264169	4
561.109252	4
561.322760	6
563.300345	8
564.347513	5
566.259644	4
573.860706	4
582.056007	4
582.063966	3
583.062823	7
587.084073	5
590.346819	5
595.052139	5
604.419707	4
609.863312	4
612.100273	4
620.307449	4
621.306901	4
622.452512	3
622.898719	4
630.573212	4
632.263869	6
633.861826	4
640.008610	3
640.329926	4
641.350559	4
654.315495	4
654.334469	4
659.209317	4
659.484404	4
661.910039	4
663.398966	6
676.396463	5
683.359435	5
684.359533	4
696.620780	4
698.776005	4
704.813921	4
718.726006	4
768.297754	4
785.204580	4
786.886687	4
795.484814	4
802.701454	4
802.770205	4
807.500764	4
820.949701	5
828.935622	4
842.209683	4
848.964263	3
849.567456	4
856.036977	4
857.686073	4
860.240164	4
900.793784	4
905.974967	33
917.248620	4
932.827523	4
938.467158	4
946.678955	7
947.681309	6
948.580373	6
949.077338	4
989.247791	4
999.687425	4
1005.969235	97
1006.976678	17
1010.196127	4
1046.633735	4
1055.900455	4
1065.987452	7
1080.850496	4
1081.932182	5
1105.965432	110
1106.966746	19
1125.574965	4
1131.656677	5
1143.625414	4
1157.948347	4
1160.625551	4
1165.985321	97
1166.986407	31
1174.973235	4
1182.973150	8
1197.167030	4
1197.550590	4
1199.133745	4
1204.446825	5
1204.533701	4
1205.956640	55
1206.962121	11
1233.969956	22
1235.117286	4
1242.465141	4
1246.205238	4
1250.145952	6
1254.667758	5
1255.953397	8
1265.978062	196
1266.982865	49
1267.988864	6
1269.645400	4
1273.079785	4
1281.670610	4
1282.971940	12
1283.970969	7
1305.944986	10
1315.195539	4
1322.634216	4
1327.765551	4
1330.466192	4
1333.966349	29
1355.090644	4
1355.939238	7
1365.974981	113
1366.977040	33
1367.980202	6
1382.966749	11
1391.920198	4
1394.022174	4
1408.640471	4
1414.843778	4
1433.958002	24
1434.963914	6
1437.215649	4
1453.200512	5
1455.936047	4
1465.969084	46
1466.966411	14
1470.092288	4
1480.229224	5
1487.637976	4
