Mass spectrum: CDP; LC-ESI-ITFT; MS2; m/z:402.01; NEG
Name: CDP
Name: Cytidine 5'-diphosphate
Name: Cytidine diphosphate
Class: Natural Product
Formula: C9H15N3O11P2
Exact mass: 403.01818
SMILES: NC(C=2)=NC(=O)N(C2)[C@H](O1)[C@H](O)[C@H](O)[C@@H](COP(O)(=O)OP(O)(O)=O)1
InChI: InChI=1S/C9H15N3O11P2/c10-5-1-2-12(9(15)11-5)8-7(14)6(13)4(22-8)3-21-25(19,20)23-24(16,17)18/h1-2,4,6-8,13-14H,3H2,(H,19,20)(H2,10,11,15)(H2,16,17,18)/t4-,6-,7-,8-/m1/s1
Instrument: LTQ Orbitrap XL, Thermo Scientfic
Instrument type: LC-ESI-ITFT
Ms type: MS2
Ion mode: NEGATIVE
Collision energy: 35eV
Ionization: ESI
Column name: TOSOH TSKgel ODS-100V  5um Part no. 21456
Retention time: 6.976178 min
Base peak: 304.107452
Precursor m/z: 402.01
m/z	relative intensity
148.063843	2
159.031891	129
175.186462	1
176.104095	3
176.981079	4
190.048706	1
193.028946	14
206.206177	13
210.095551	1
261.158356	5
273.041321	26
291.103455	37
304.107452	999
322.255371	1
359.193085	13
384.059082	448
384.677429	1
