Mass spectrum: L-Cysteine Sulfinic acid; LC-ESI-ITFT; MS; POS
Name: 3-Sulfino-L-alanine
Name: L-Cysteinesulfinic acid
Name: 3-Sulphino-L-alanine
Name: 3-Sulfinoalanine
Name: L-Cysteine Sulfinic acid
Class: Natural Product
Formula: C3H7NO4S
Exact mass: 153.00958
SMILES: N[C@H](C(O)=O)CS(O)=O
InChI: InChI=1S/C3H7NO4S/c4-2(3(5)6)1-9(7)8/h2H,1,4H2,(H,5,6)(H,7,8)/t2-/m0/s1
Instrument: LTQ Orbitrap XL, Thermo Scientfic
Instrument type: LC-ESI-ITFT
Ms type: MS
Ion mode: POSITIVE
Collision energy: 35eV
Ionization: ESI
Column name: TOSOH TSKgel ODS-100V  5um Part no. 21456
Retention time: 6.737833 min
Base peak: 154.016800
m/z	relative intensity
100.110334	1
100.112037	46
100.113551	1
101.095891	4
101.115285	1
102.012921	3
102.033553	10
102.091202	4
103.075385	1
103.086455	1
104.070460	1
107.069996	5
108.011154	2
109.028184	1
110.019746	15
111.020036	2
112.017680	1
113.059480	1
113.963374	1
114.127626	1
115.111540	1
116.028400	1
119.063532	1
120.023141	1
121.064566	9
122.963861	1
123.055085	1
125.986214	1
127.038744	13
128.106983	14
129.127203	6
130.007768	4
130.032131	1
130.122642	1
130.159097	3
130.491827	1
131.929704	2
132.099313	2
132.101894	118
132.104189	2
133.067897	1
133.079206	16
133.105017	3
134.038966	3
136.000082	1
136.003677	1
136.006374	63
136.008770	1
136.021355	2
136.061816	1
137.009542	1
137.132305	25
137.134732	1
137.512247	1
138.001800	1
138.091257	26
138.093709	1
138.135712	1
139.094072	1
141.958490	6
142.122844	1
142.158694	1
143.039341	16
143.142799	1
145.133328	1
149.018781	1
149.020843	1
149.023248	59
149.025997	1
150.026845	2
151.096730	6
153.464130	1
153.832502	1
153.916868	1
153.955468	1
153.980367	1
153.983616	4
153.986864	1
153.994083	1
153.995526	1
153.998414	1
154.001302	1
154.002746	1
154.004190	1
154.006356	1
154.007078	1
154.007800	2
154.009605	1
154.010688	3
154.012132	5
154.013576	17
154.016825	999
154.019714	21
154.022241	4
154.024046	1
154.025490	1
154.026935	1
154.028740	1
154.030184	1
154.030907	1
154.031629	1
154.033795	1
154.035240	1
154.039212	1
154.050046	3
154.078219	1
154.116880	1
154.201118	1
154.572512	1
154.990068	3
155.013396	1
155.015948	3
155.019958	26
155.142891	19
156.009365	1
156.012310	36
156.015254	1
156.020776	4
156.146006	1
157.015707	1
158.002552	6
158.096379	23
158.099383	1
158.961625	1
159.099132	1
159.112399	6
161.005667	1
161.110679	1
163.111815	1
163.129523	1
163.132671	84
163.135820	2
164.040046	1
164.136124	4
166.018172	1
167.012934	2
167.017418	1
167.033727	12
168.013372	17
168.037233	1
168.122845	1
170.011674	10
170.096285	24
170.508935	1
171.100077	1
171.110223	1
171.134324	1
171.136861	1
171.138976	15
171.141090	1
171.141936	1
171.143628	2
171.145319	6
171.149125	363
171.152509	7
171.155892	1
171.159276	1
171.188464	1
171.992998	1
172.140933	1
172.146053	1
172.148612	1
172.152452	29
172.155865	1
172.169092	2
172.956066	23
172.959503	1
172.976690	7
173.077717	1
173.155159	1
174.124112	2
174.127584	104
174.131056	2
174.132792	1
174.952951	5
174.956011	1
175.035592	1
175.089843	21
175.130548	9
175.998341	1
176.093199	1
176.143085	1
178.035287	4
178.494745	5
179.063653	37
179.067273	1
180.066718	1
180.158947	1
182.028700	12
182.138225	1
182.984796	12
185.114619	1
185.979176	4
186.184865	13
187.119775	1
187.122192	3
187.126544	169
187.130412	3
187.133797	1
187.187964	1
187.976039	1
188.125088	1
188.129475	9
189.121821	2
189.147860	1
190.049272	1
191.021456	1
194.117473	4
194.174701	1
195.087107	1
195.122110	12
196.008033	2
196.153765	4
199.007921	2
199.036029	1
199.168692	1
199.175594	1
199.180373	59
199.184621	1
200.183421	3
200.200542	1
207.004901	5
208.190213	10
209.194149	1
210.127672	1
213.982296	1
214.002990	1
214.215434	1
215.157172	1
216.173558	1
217.104082	2
220.111991	19
221.114659	1
223.063237	23
223.132473	1
224.062086	1
225.007721	1
225.010271	1
225.011546	1
225.016009	110
225.021109	2
225.059369	1
225.195268	1
226.019032	2
226.158371	2
228.231451	4
232.169093	1
232.989800	1
233.174638	15
233.177329	1
234.177930	1
235.168638	1
240.179785	1
243.014105	1
243.016967	1
243.019829	3
243.026270	212
243.031994	4
243.037720	1
243.092119	1
244.029067	7
245.030115	1
246.966452	1
248.962187	11
253.178274	1
255.156757	1
256.262765	1
260.964022	1
261.023753	1
261.026143	1
261.030126	3
261.031719	3
261.037295	283
261.043668	5
261.049245	1
261.110599	1
261.167989	1
261.984653	1
262.039928	11
263.040291	2
264.130698	1
274.157534	1
277.199902	8
277.204260	1
278.063189	17
278.203372	1
278.231421	3
279.066071	1
279.158552	10
279.162076	2
280.161171	1
282.221186	9
283.019000	22
283.022598	1
283.224159	1
284.020808	1
284.294046	1
284.994317	1
294.225799	1
299.181639	2
303.003568	1
305.194169	1
306.093452	1
307.025165	5
307.082078	3
307.087160	1
308.089800	14
309.093254	1
310.086146	1
320.241575	1
320.293539	2
321.225628	4
322.257928	6
323.019796	1
323.260080	1
324.216185	1
326.019934	1
330.998575	2
331.215936	1
332.205292	1
336.978378	1
338.252048	1
340.008506	1
343.206958	1
343.210561	1
350.252784	2
350.931027	2
350.957104	1
355.981628	3
360.943797	1
366.283065	1
387.307703	1
391.263889	1
391.271198	3
391.284356	203
391.296052	3
391.300438	1
391.306286	1
391.957723	2
392.130737	3
392.286254	44
392.297995	1
393.289058	2
413.263556	2
414.032664	2
414.045395	157
414.058126	2
414.070857	1
415.048175	8
415.054564	1
416.040177	3
416.048191	2
419.313189	1
420.317274	1
422.324819	4
423.326585	1
426.356690	5
427.359495	1
427.376183	2
428.379239	1
436.325725	1
436.341219	86
436.354992	1
437.343196	13
438.002134	1
438.346895	1
444.405126	1
464.371917	10
464.379478	1
465.375314	3
467.963086	1
467.968823	1
472.434798	1
475.377241	1
478.351212	7
479.352704	2
490.386985	3
491.389496	1
521.064564	34
522.065762	2
522.376832	1
543.045896	2
544.290989	1
545.020874	1
567.054630	1
568.117152	1
574.982308	1
591.016144	1
613.154203	1
651.311915	1
674.073248	6
727.993931	1
781.094088	2
1221.987792	1
1321.983330	1
