Mass spectrum: L-Tyrosine; LC-ESI-ITFT; MS; POS
Name: L-Tyrosine
Name: (S)-3-(p-Hydroxyphenyl)alanine
Name: (S)-2-Amino-3-(p-hydroxyphenyl)propionic acid
Name: Tyrosine
Class: Natural Product
Formula: C9H11NO3
Exact mass: 181.07389
SMILES: OC(=O)C(N)Cc(c1)ccc(O)c1
InChI: InChI=1S/C9H11NO3/c10-8(9(12)13)5-6-1-3-7(11)4-2-6/h1-4,8,11H,5,10H2,(H,12,13)/t8-/m0/s1
Instrument: LTQ Orbitrap XL, Thermo Scientfic
Instrument type: LC-ESI-ITFT
Ms type: MS
Ion mode: POSITIVE
Collision energy: 35eV
Ionization: ESI
Column name: TOSOH TSKgel ODS-100V  5um Part no. 21456
Retention time: 5.719568 min
Base peak: 182.081085
m/z	relative intensity
100.111848	4
102.033553	4
102.054582	6
110.019746	3
111.019815	1
119.048810	1
123.043741	6
128.106709	1
134.080891	2
136.061816	3
136.072908	1
136.075607	33
136.078005	1
137.042869	1
137.045596	119
137.048020	2
137.078633	2
137.132002	2
138.042535	1
138.048969	4
141.958490	5
147.043672	1
149.002289	1
149.023248	3
151.096028	1
152.053362	1
152.056549	34
152.059382	1
153.040561	1
153.059874	1
155.142891	2
158.002552	8
158.096379	2
163.132671	8
165.051094	1
165.054699	53
165.057903	1
166.057775	4
167.012526	2
170.096285	2
171.138130	1
171.145319	1
171.149125	49
171.152509	1
172.152452	3
172.976690	8
173.078577	1
174.127584	22
175.130986	1
179.064105	3
181.370389	1
181.842363	1
181.952647	1
182.001334	1
182.031947	1
182.035194	1
182.038442	4
182.043545	1
182.048184	1
182.056536	1
182.057464	1
182.061176	1
182.063032	1
182.065816	1
182.068600	2
182.069992	2
182.073704	3
182.075097	1
182.076953	12
182.081130	999
182.084842	15
182.087627	3
182.088555	2
182.091804	1
182.092732	2
182.094589	1
182.095517	1
182.097373	1
182.099230	1
182.101087	1
182.103872	1
182.105728	1
182.113155	1
182.118262	1
182.123832	4
182.160513	1
182.209283	1
182.320367	1
182.796056	1
182.984328	12
183.077872	1
183.080211	1
183.083955	96
183.087698	1
184.084236	3
184.086595	3
185.113668	1
186.184385	1
187.125577	8
190.028489	2
194.116962	1
196.007514	1
198.075803	24
199.078467	1
199.179842	7
214.002990	1
220.111375	1
223.062608	1
226.158371	1
233.173966	2
269.011973	1
269.075322	1
269.080324	2
269.087828	231
269.094498	3
269.099501	1
269.164550	1
270.084420	1
270.091127	22
271.090774	1
277.199902	1
279.157671	1
282.220291	1
284.090437	1
284.098577	142
284.105813	2
285.095216	1
285.101581	9
285.105218	1
291.068463	1
299.180662	1
307.082078	2
307.583792	1
344.204727	1
348.067847	1
391.282894	34
392.286254	5
413.263556	1
428.032786	1
436.339497	2
437.343196	1
450.160152	48
451.163066	6
465.168690	1
466.153760	1
537.166135	10
538.169313	1
552.178084	4
572.355860	5
573.358114	1
