Mass spectrum: FAD; LC-ESI-ITFT; MS; POS
Name: FAD
Name: Flavin adenine dinucleotide
Class: Natural Product
Formula: C27H33N9O15P2
Exact mass: 785.15713
SMILES: C(C(CN(c54)C(=N6)C(C(=O)NC6=O)=Nc(cc(c(c5)C)C)4)O)(O)C(O)COP(OP(OCC(O1)C(C(C1n(c2)c(n3)c(c(N)nc3)n2)O)O)(O)=O)(O)=O
InChI: InChI=1S/C27H33N9O15P2/c1-10-3-12-13(4-11(10)2)35(24-18(32-12)25(42)34-27(43)33-24)5-14(37)19(39)15(38)6-48-52(44,45)51-53(46,47)49-7-16-20(40)21(41)26(50-16)36-9-31-17-22(28)29-8-30-23(17)36/h3-4,8-9,14-16,19-21,26,37-41H,5-7H2,1-2H3,(H,44,45)(H,46,47)(H2,28,29,30)(H,34,42,43)/t14-,15+,16+,19-,20+,21+,26+/m0/s1
Instrument: LTQ Orbitrap XL, Thermo Scientfic
Instrument type: LC-ESI-ITFT
Ms type: MS
Ion mode: POSITIVE
Collision energy: 35eV
Ionization: ESI
Column name: TOSOH TSKgel ODS-100V  5um Part no. 21456
Retention time: 14.661962 min
Base peak: 348.069885
m/z	relative intensity
100.075531	1
100.110713	1
100.111848	66
100.113362	2
100.509596	1
101.095891	1
101.115285	1
102.032385	1
102.033553	52
102.035111	1
102.091007	20
102.092566	1
102.535127	3
103.086257	1
107.069996	3
109.022163	4
109.521199	1
109.977907	1
110.008195	1
110.016041	1
110.018220	2
110.019746	104
110.020836	2
110.021490	2
110.039802	1
110.518193	1
110.520168	1
110.521266	5
111.020036	22
111.521299	1
112.017680	9
112.111568	1
113.016576	1
113.059026	1
113.106725	1
113.963144	3
113.964293	1
114.072836	1
114.090788	1
114.127396	3
116.523841	1
119.013487	1
119.063287	1
121.959429	1
122.963861	3
123.055085	14
125.986481	1
128.106709	12
128.142869	1
129.127203	2
130.007488	1
130.122081	1
130.158817	16
130.491545	4
133.079206	15
133.085295	1
135.101048	2
136.021355	2
136.057919	1
136.061516	17
137.132305	13
137.986490	1
139.497138	1
139.982008	5
139.987326	1
141.958171	2
142.122204	1
142.158694	1
144.982190	1
145.132998	1
149.023248	36
149.025653	1
149.951554	1
149.954675	1
149.966469	2
150.026151	1
151.005209	1
151.035005	1
151.096379	7
154.990068	14
155.142891	17
156.145638	1
157.133580	1
158.000302	1
158.002552	24
158.089621	1
158.096003	21
158.117032	1
158.961247	10
159.099511	1
159.103680	1
159.112399	2
161.002966	1
161.110679	1
161.116859	1
161.132698	1
162.997765	17
163.130310	1
163.132671	69
163.135820	1
163.138969	1
163.998385	1
164.135727	2
165.136839	1
167.012526	2
167.033727	6
168.123257	1
169.977345	1
170.096285	32
171.100077	2
171.110223	1
171.133478	1
171.138553	14
171.140244	1
171.141936	3
171.143205	2
171.146165	6
171.149125	450
171.151240	7
171.152509	7
171.154201	1
171.155892	2
171.157161	1
171.158853	1
171.188041	2
171.265911	1
172.132828	1
172.140933	1
172.145626	1
172.152452	32
172.155439	1
172.169092	3
173.029557	1
173.078147	2
173.155159	1
174.087228	1
174.120206	1
174.121508	1
174.124980	2
174.127584	198
174.129754	3
174.131056	3
174.134528	1
174.167520	1
175.035155	1
175.089406	9
175.130548	18
176.012896	1
176.093199	1
176.142644	1
178.034839	6
178.036634	1
179.063653	48
179.065916	1
180.066718	1
180.158947	1
180.989441	1
181.058907	1
182.984796	26
183.988506	1
184.466484	1
184.467904	1
184.985290	1
185.114619	6
186.184865	11
186.955984	8
187.123159	2
187.126060	133
187.129928	2
187.133797	1
188.128987	7
188.143122	1
188.997594	1
189.121821	2
189.995837	1
190.049767	1
190.158191	1
190.978577	2
190.992536	36
191.995591	1
192.975678	1
192.989350	1
193.066853	1
194.116962	5
194.974441	1
195.087107	2
195.122110	9
195.993002	1
196.125747	1
196.153765	1
198.184317	1
199.028604	7
199.176656	1
199.180373	82
199.183028	1
199.184621	1
199.987228	5
200.183421	5
200.200542	1
204.137860	1
207.094940	1
208.190213	1
212.148906	1
214.215434	1
215.157172	2
216.027148	1
216.173558	1
217.104082	6
218.153176	1
219.122867	1
220.111375	17
221.114659	1
222.111688	3
223.062608	2
223.116735	1
224.127351	2
225.195268	1
226.158371	5
226.215557	1
227.982221	1
228.194985	1
228.231451	5
232.169093	1
233.173966	16
234.177930	1
239.147498	1
240.179785	2
240.231117	1
243.087108	1
253.163818	2
255.155217	1
256.145801	1
256.175228	1
256.262765	1
261.147263	1
264.131509	2
264.633311	1
268.082647	1
272.200287	1
275.145377	2
275.196246	5
276.198383	1
277.200773	9
279.158552	9
279.162076	1
280.161171	1
282.221186	19
282.224768	2
283.224159	2
283.227760	1
283.261976	1
284.207146	1
289.235929	1
290.073958	1
294.226753	2
294.230566	1
298.221162	1
299.181639	5
300.185074	1
305.195176	2
309.130209	1
312.346843	1
320.293539	2
321.225628	2
321.296325	1
322.257928	2
327.177147	2
327.200623	6
330.058768	1
332.206436	1
338.253223	1
343.208159	5
344.211964	1
344.227646	9
345.229872	1
346.193894	1
347.730786	1
347.956256	2
348.024921	1
348.029827	1
348.035958	1
348.039638	1
348.043317	1
348.045770	1
348.049449	2
348.053129	3
348.061714	11
348.070300	999
348.080113	12
348.083793	3
348.088700	5
348.093606	2
348.098513	2
348.103420	1
348.105874	1
348.115688	1
348.118142	1
348.181946	3
348.282596	1
348.409083	1
348.711459	1
349.052411	1
349.073352	96
349.083208	1
349.181783	8
349.960767	1
350.073323	7
350.078272	1
350.251546	1
351.076354	1
353.154302	1
366.247317	1
366.283065	1
371.202105	1
371.315603	1
372.258025	2
381.118630	1
391.148429	1
391.259504	1
391.263889	1
391.274122	5
391.284356	305
391.296052	3
391.306286	1
391.418890	1
392.277448	1
392.287721	73
393.290531	5
393.296424	1
393.573541	4
393.585340	137
393.597139	2
394.076932	1
394.085798	32
394.587211	5
395.088098	1
404.567659	2
405.070736	1
405.261751	1
405.563953	12
406.064254	1
406.565480	1
411.019410	1
412.547232	1
412.558312	28
413.060514	5
413.263556	5
413.562046	1
414.061309	1
414.268274	2
414.555099	1
415.542132	3
416.044986	1
419.042476	1
419.314811	2
419.548452	2
420.040710	13
420.050467	1
420.533835	1
420.545238	97
421.045779	23
421.080051	1
421.547215	3
422.542933	1
423.550416	1
424.049736	1
424.548287	16
425.049374	5
425.057650	1
425.551348	1
426.047567	1
426.356690	2
427.376183	4
428.032786	1
428.379239	1
432.024725	1
432.527216	1
435.164302	1
435.169446	1
436.341219	6
436.444534	1
437.343196	2
438.620916	1
438.797952	1
438.940352	2
439.035904	1
439.056755	1
439.063706	1
439.070657	3
439.075871	3
439.084560	6
439.089774	10
439.100201	920
439.114105	10
439.121057	2
439.128010	3
439.133224	2
439.140177	2
439.260137	2
439.580272	1
440.008826	1
440.080312	1
440.087288	1
440.092519	2
440.102982	163
440.116934	3
440.130886	1
441.105702	11
441.119701	1
441.781933	1
442.106585	1
457.109366	1
460.026974	1
464.370027	1
464.375697	1
478.351212	1
493.018943	1
494.023318	1
537.093243	1
537.429609	1
542.417793	1
542.752009	1
543.088924	1
785.778586	1
786.090718	1
786.107370	1
786.124023	3
786.136513	5
786.161494	527
786.194803	4
786.211459	1
786.228115	2
786.244772	1
786.261429	1
786.544682	1
786.628020	1
786.636355	1
786.665527	67
787.128331	1
787.165874	162
787.186732	2
787.199247	2
787.666698	5
788.168000	20
789.172041	2
797.154848	6
797.656726	4
798.142042	1
798.159078	1
798.644853	1
799.143872	1
804.134048	1
805.134239	2
805.635035	2
808.119998	1
808.146034	5
808.623582	1
809.149374	2
812.616747	2
813.120161	9
813.624044	5
814.124007	2
814.624431	2
817.120250	2
817.627855	1
818.127094	1
824.109105	1
839.074237	1
840.080549	3
841.084064	1
842.084763	1
848.089311	1
1047.888260	1
1048.221515	1
1055.548185	1
1121.982839	1
1178.744787	5
1179.241811	5
1179.746803	3
1180.252120	1
1180.750098	1
1189.729105	1
1190.233093	1
1191.242031	1
1205.700590	1
1206.705510	1
1210.204808	1
1210.705950	1
1221.987792	1
1321.992409	1
1421.967653	1
