Mass spectrum: 4-Hydroxy-L-proline; LC-ESI-ITFT; MS2; m/z:133.07; POS
Name: 4-Hydroxy-L-proline
Name: L-Hydroxyproline
Class: Natural Product
Formula: C5H9NO3
Exact mass: 131.05824
SMILES: OC(C1)CC(N1)C(O)=O
InChI: InChI=1S/C5H9NO3/c7-3-1-4(5(8)9)6-2-3/h3-4,6-7H,1-2H2,(H,8,9)/t3?,4-/m0/s1
Instrument: LTQ Orbitrap XL, Thermo Scientfic
Instrument type: LC-ESI-ITFT
Ms type: MS2
Ion mode: POSITIVE
Collision energy: 35eV
Ionization: ESI
Column name: TOSOH TSKgel ODS-100V  5um Part no. 21456
Retention time: 4.820187 min
Base peak: 87.022873
Precursor m/z: 133.07
m/z	relative intensity
68.118301	14
68.943451	30
86.028580	315
87.022873	999
87.959976	3
97.004623	2
114.980865	42
