Mass spectrum: NADH; LC-ESI-ITFT; MS; NEG
Name: NADH
Name: DPNH
Class: Natural Product
Formula: C21H29N7O14P2
Exact mass: 665.12477
SMILES: NC(=O)C(C5)=CN(C=C5)[C@H](O1)[C@H](O)[C@H](O)[C@@H](COP(O)(=O)OP(O)(=O)OC[C@@H](O2)[C@@H](O)[C@@H](O)[C@@H]2n(c4)c(n3)c(n4)c(N)nc3)1
InChI: InChI=1S/C21H29N7O14P2/c22-17-12-19(25-7-24-17)28(8-26-12)21-16(32)14(30)11(41-21)6-39-44(36,37)42-43(34,35)38-5-10-13(29)15(31)20(40-10)27-3-1-2-9(4-27)18(23)33/h1,3-4,7-8,10-11,13-16,20-21,29-32H,2,5-6H2,(H2,23,33)(H,34,35)(H,36,37)(H2,22,24,25)/t10-,11-,13-,14-,15-,16-,20-,21-/m1/s1
Instrument: LTQ Orbitrap XL, Thermo Scientfic
Instrument type: LC-ESI-ITFT
Ms type: MS
Ion mode: NEGATIVE
Collision energy: 35eV
Ionization: ESI
Column name: TOSOH TSKgel ODS-100V  5um Part no. 21456
Retention time: 9.514767 min
Base peak: 664.115540
m/z	relative intensity
134.046862	12
134.049208	1
138.979783	1
150.979901	2
158.921918	1
158.924946	18
158.927974	1
174.979493	3
176.935177	3
191.019019	1
192.989893	3
211.000404	5
230.945855	1
245.032320	1
254.945407	1
272.949778	1
272.956594	33
272.963410	1
273.959604	1
299.042642	9
300.046605	1
310.033994	1
317.053984	5
318.056828	1
328.034548	1
328.044651	47
328.053631	1
329.041487	1
329.047125	5
335.064574	18
335.073844	1
336.066830	2
346.033739	1
346.043468	2
346.054414	95
346.064144	2
346.073875	1
347.051447	1
347.057555	9
348.057702	1
379.008909	1
396.982556	1
396.994511	1
397.007961	3
397.019918	137
397.031875	3
397.043832	1
398.023188	15
399.024242	2
407.983475	1
407.997487	3
408.009943	130
408.022400	3
408.034858	1
409.012986	13
410.015027	2
415.029773	2
426.021226	3
437.011243	1
505.986870	1
529.061481	2
529.945447	1
558.062450	2
558.897779	1
567.914796	1
584.148889	2
586.092920	1
663.223884	1
663.814809	2
663.866512	1
663.918221	1
663.937614	1
663.957007	1
663.969937	1
663.976401	1
663.999029	1
664.008727	1
664.034589	3
664.060453	6
664.086318	16
664.115418	999
664.141286	20
664.167156	6
664.193028	3
664.202730	3
664.235072	1
664.248010	1
664.254478	1
664.267416	1
664.280355	1
664.309468	1
664.319173	1
664.357994	1
664.370935	1
664.412996	2
665.008751	1
665.034672	1
665.063834	1
665.089758	4
665.118924	250
665.144851	5
665.170780	1
665.177262	1
665.193469	1
665.206434	1
666.092227	1
666.121459	47
666.147444	1
667.123006	4
678.093859	1
680.109998	1
682.125044	11
683.129180	2
684.132154	1
686.097204	13
687.099919	3
691.074487	1
695.076718	1
708.034033	1
717.028118	1
718.033988	2
726.043110	3
727.045793	1
764.037761	1
1329.237119	17
1329.731680	1
1330.244849	8
1331.244550	3
1332.254565	1
1351.224172	1
1352.228830	1
1383.150032	1
