Mass spectrum: NADH; LC-ESI-ITFT; MS2; m/z:408.01; NEG
Name: NADH
Name: DPNH
Class: Natural Product
Formula: C21H29N7O14P2
Exact mass: 665.12477
SMILES: NC(=O)C(C5)=CN(C=C5)[C@H](O1)[C@H](O)[C@H](O)[C@@H](COP(O)(=O)OP(O)(=O)OC[C@@H](O2)[C@@H](O)[C@@H](O)[C@@H]2n(c4)c(n3)c(n4)c(N)nc3)1
InChI: InChI=1S/C21H29N7O14P2/c22-17-12-19(25-7-24-17)28(8-26-12)21-16(32)14(30)11(41-21)6-39-44(36,37)42-43(34,35)38-5-10-13(29)15(31)20(40-10)27-3-1-2-9(4-27)18(23)33/h1,3-4,7-8,10-11,13-16,20-21,29-32H,2,5-6H2,(H2,23,33)(H,34,35)(H,36,37)(H2,22,24,25)/t10-,11-,13-,14-,15-,16-,20-,21-/m1/s1
Instrument: LTQ Orbitrap XL, Thermo Scientfic
Instrument type: LC-ESI-ITFT
Ms type: MS2
Ion mode: NEGATIVE
Collision energy: 35eV
Ionization: ESI
Column name: TOSOH TSKgel ODS-100V  5um Part no. 21456
Retention time: 9.573688 min
Base peak: 272.921692
Precursor m/z: 408.01
m/z	relative intensity
158.921539	145
175.013794	35
177.053726	2
214.237717	10
226.914948	1
255.232178	2
272.921692	999
273.943695	2
310.009003	10
328.103394	7
389.740417	1
