Mass spectrum: L-(+)-Arginine; LC-ESI-ITFT; MS; POS
Name: L-Arginine
Name: (S)-2-Amino-5-guanidinovaleric acid
Name: L-(+)-Arginine
Class: Natural Product
Formula: C6H14N4O2
Exact mass: 174.11168
SMILES: NC(=N)NCCC[C@H](N)C(O)=O
InChI: InChI=1S/C6H14N4O2/c7-4(5(11)12)2-1-3-10-6(8)9/h4H,1-3,7H2,(H,11,12)(H4,8,9,10)/t4-/m0/s1
Instrument: LTQ Orbitrap XL, Thermo Scientfic
Instrument type: LC-ESI-ITFT
Ms type: MS
Ion mode: POSITIVE
Collision energy: 35eV
Ionization: ESI
Column name: TOSOH TSKgel ODS-100V  5um Part no. 21456
Retention time: 4.079900 min
Base peak: 175.119278
m/z	relative intensity
100.112037	1
116.070432	3
130.097413	2
132.003295	3
133.097186	8
136.982283	1
155.079400	2
158.002927	9
158.092624	1
158.096754	1
158.961247	1
158.964275	55
158.966925	1
158.967682	1
163.133459	1
171.149971	10
173.079007	1
174.128452	3
174.449195	1
174.894832	1
174.998418	1
175.044341	1
175.078903	5
175.091594	1
175.095970	1
175.098596	1
175.100346	1
175.101222	1
175.102972	1
175.104723	1
175.105598	1
175.107349	2
175.109100	3
175.111726	5
175.113476	4
175.115665	16
175.119167	999
175.122231	14
175.123106	13
175.124857	4
175.126170	6
175.128797	3
175.130110	2
175.131861	2
175.133175	1
175.134488	1
175.135363	1
175.136677	1
175.138866	1
175.140617	1
175.143244	1
175.159444	5
175.194041	1
175.240040	1
175.343933	1
175.793446	1
176.116153	9
176.118802	1
176.122334	63
176.124983	1
176.126307	1
177.060249	1
177.122568	2
177.125240	1
179.063200	1
179.089906	4
185.115095	15
187.126060	2
193.131221	15
194.134332	1
197.053000	1
197.092192	1
197.094283	1
197.096896	2
197.101077	157
197.104736	2
197.105781	2
197.109440	1
197.149172	1
198.097920	1
198.104240	8
199.180373	1
217.104686	1
219.078149	1
219.083049	61
219.086724	1
219.088562	1
220.086087	2
221.161866	1
226.946741	1
226.951907	45
226.955782	1
235.008641	1
245.047503	1
255.156757	2
265.088440	21
266.091569	1
287.071216	36
288.073393	1
294.939188	11
299.182617	2
301.551298	13
302.052403	1
313.035105	1
333.075050	3
343.208159	1
349.231087	18
350.232974	1
355.057328	22
356.060297	1
362.925892	7
363.134932	1
371.212912	25
372.214617	1
374.126326	1
391.282894	2
393.193317	7
394.196647	1
397.128120	1
401.061594	1
408.118343	2
412.052285	1
413.265143	11
414.268274	2
415.175976	2
421.578278	1
423.045403	9
427.982610	1
430.912522	5
442.111852	1
445.993118	2
446.046494	1
457.037381	1
461.180891	2
469.049138	2
473.988345	9
474.991803	1
476.110279	1
480.039330	1
483.163528	2
491.031691	5
495.968269	1
497.643628	1
498.899936	2
507.185293	1
510.099600	1
514.032657	1
523.341109	2
529.169445	2
535.961802	1
537.036821	1
544.094363	1
545.323822	2
548.027834	1
551.147722	1
559.020062	5
566.886331	1
567.304667	1
578.086037	1
585.938789	1
593.013206	1
597.156320	1
602.092967	3
627.006739	1
634.873473	1
635.290650	1
643.160223	1
646.072273	1
665.141851	1
670.081302	1
673.013383	1
692.064564	1
694.993439	2
702.863615	1
733.129794	1
762.983759	1
776.206214	1
798.188894	1
828.037614	1
830.966263	1
