Mass spectrum: D-Ribose 5-phosphate; LC-ESI-ITFT; MS2; m/z:229.01; NEG
Name: D-Ribose 5-phosphate
Name: Ribose 5-phosphate
Class: Natural Product
Formula: C5H11O8P
Exact mass: 230.01915
SMILES: OC(O1)[C@H](O)[C@H](O)[C@H]1COP(O)(O)=O
InChI: InChI=1S/C5H11O8P/c6-3-2(1-12-14(9,10)11)13-5(8)4(3)7/h2-8H,1H2,(H2,9,10,11)/t2-,3-,4-,5?/m1/s1
Instrument: LTQ Orbitrap XL, Thermo Scientfic
Instrument type: LC-ESI-ITFT
Ms type: MS2
Ion mode: NEGATIVE
Collision energy: 35eV
Ionization: ESI
Column name: TOSOH TSKgel ODS-100V  5um Part no. 21456
Retention time: 6.802423 min
Base peak: 96.814850
Precursor m/z: 229.01
m/z	relative intensity
78.814789	124
96.814850	999
139.042206	73
169.023499	23
170.972260	7
187.102676	1
192.941055	24
198.979355	3
200.843948	4
210.991455	28
