Mass spectrum: Cytosine; LC-ESI-ITFT; MS2; m/z:224.10; POS
Name: Cytosine
Class: Natural Product
Formula: C4H5N3O
Exact mass: 111.04326
SMILES: NC(C=1)=NC(=O)NC1
InChI: InChI=1S/C4H5N3O/c5-3-1-2-6-4(8)7-3/h1-2H,(H3,5,6,7,8)
Instrument: LTQ Orbitrap XL, Thermo Scientfic
Instrument type: LC-ESI-ITFT
Ms type: MS2
Ion mode: POSITIVE
Collision energy: 35eV
Ionization: ESI
Column name: TOSOH TSKgel ODS-100V  5um Part no. 21456
Retention time: 4.726027 min
Base peak: 111.976425
Precursor m/z: 224.10
m/z	relative intensity
92.980927	2
96.038513	1
111.976425	999
112.974594	970
120.938004	1
165.039032	10
183.106232	1
196.380615	1
207.969757	29
210.124619	4
