Mass spectrum: L-(-)-Threonine; LC-ESI-ITFT; MS; POS
Name: L-Threonine
Name: 2-Amino-3-hydroxybutyric acid
Name: L-(-)-Threonine
Class: Natural Product
Formula: C4H9NO3
Exact mass: 119.05824
SMILES: [H]C(C)(O)C([H])(N)C(O)=O
InChI: InChI=1S/C4H9NO3/c1-2(6)3(5)4(7)8/h2-3,6H,5H2,1H3,(H,7,8)/t2-,3+/m1/s1
Instrument: LTQ Orbitrap XL, Thermo Scientfic
Instrument type: LC-ESI-ITFT
Ms type: MS
Ion mode: POSITIVE
Collision energy: 35eV
Ionization: ESI
Column name: TOSOH TSKgel ODS-100V  5um Part no. 21456
Retention time: 4.721038 min
Base peak: 120.065422
m/z	relative intensity
100.112037	3
102.033943	2
102.051466	1
102.053218	1
102.054776	74
102.056139	1
102.056529	1
103.057993	2
110.019746	2
111.020036	1
114.060640	1
119.684590	1
119.934275	1
119.956110	1
119.996570	2
120.021651	1
120.037796	1
120.040777	1
120.042516	5
120.047733	1
120.050715	1
120.052205	1
120.053199	1
120.053696	1
120.054193	1
120.054690	1
120.056181	1
120.056926	2
120.057672	1
120.058169	1
120.059163	3
120.061150	6
120.063387	15
120.065375	999
120.067114	14
120.067611	11
120.068854	4
120.069599	6
120.070842	1
120.072084	3
120.072830	1
120.073824	2
120.075067	1
120.075564	1
120.076309	1
120.077055	1
120.078049	1
120.079292	1
120.080286	1
120.081777	1
120.088488	5
120.092963	1
120.109122	1
120.134238	2
120.174789	1
120.196938	1
120.447980	1
121.061799	1
121.066579	1
121.068592	38
121.070102	1
122.069150	4
129.126926	1
137.132002	1
139.981695	1
141.958171	5
149.023248	4
155.142526	1
158.002552	9
158.096003	1
158.960868	1
163.132671	3
171.137707	1
171.149125	33
172.152025	1
174.127584	11
179.063200	1
182.985263	8
186.955501	1
187.126060	6
199.179842	2
219.989295	1
223.063237	3
227.112796	1
233.173966	1
239.123051	1
279.158552	1
282.189845	1
282.220291	1
352.230996	1
391.284356	24
392.286254	4
396.256577	1
412.099685	1
426.356690	1
436.341219	3
437.343196	1
510.341233	17
511.344429	3
