Mass spectrum: Cytidine; LC-ESI-ITFT; MS2; m/z:112.05; POS
Name: Cytidine
Class: Natural Product
Formula: C9H13N3O5
Exact mass: 243.08552
SMILES: OC[C@@H](O1)[C@@H](O)[C@@H](O)[C@@H]1N(C=2)C(=O)N=C(N)C2
InChI: InChI=1S/C9H13N3O5/c10-5-1-2-12(9(16)11-5)8-7(15)6(14)4(3-13)17-8/h1-2,4,6-8,13-15H,3H2,(H2,10,11,16)/t4-,6-,7-,8-/m1/s1
Instrument: LTQ Orbitrap XL, Thermo Scientfic
Instrument type: LC-ESI-ITFT
Ms type: MS2
Ion mode: POSITIVE
Collision energy: 35eV
Ionization: ESI
Column name: TOSOH TSKgel ODS-100V  5um Part no. 21456
Retention time: 5.469123 min
Base peak: 94.948654
Precursor m/z: 112.05
m/z	relative intensity
69.008301	240
82.918579	51
91.542122	464
94.030441	102
94.948654	999
