Mass spectrum: Ribitol; LC-ESI-ITFT; MS2; m/z:135.07; POS
Name: Ribitol
Name: Adonitol
Class: Natural Product
Formula: C5H12O5
Exact mass: 152.06847
SMILES: OC([C@H]([C@H]([C@H](CO)O)O)O)
InChI: InChI=1S/C5H12O5/c6-1-3(8)5(10)4(9)2-7/h3-10H,1-2H2/t3-,4+,5-
Instrument: LTQ Orbitrap XL, Thermo Scientfic
Instrument type: LC-ESI-ITFT
Ms type: MS2
Ion mode: POSITIVE
Collision energy: 35eV
Ionization: ESI
Column name: TOSOH TSKgel ODS-100V  5um Part no. 21456
Retention time: 5.059650 min
Base peak: 117.026672
Precursor m/z: 135.07
m/z	relative intensity
56.995621	131
58.758987	5
69.013504	55
71.001785	34
73.113281	6
89.022644	39
90.038239	40
98.898590	636
102.810760	12
106.962616	106
113.894653	3
114.591949	3
117.026672	999
119.267822	4
122.506882	4
