Mass spectrum: Uridine; LC-ESI-ITFT; MS2; m/z:245.08; POS
Name: Uridine
Class: Natural Product
Formula: C9H12N2O6
Exact mass: 244.06954
SMILES: OC[C@@H](O1)[C@@H](O)[C@@H](O)[C@@H]1N(C=2)C(=O)NC(=O)C2
InChI: InChI=1S/C9H12N2O6/c12-3-4-6(14)7(15)8(17-4)11-2-1-5(13)10-9(11)16/h1-2,4,6-8,12,14-15H,3H2,(H,10,13,16)/t4-,6-,7-,8-/m1/s1
Instrument: LTQ Orbitrap XL, Thermo Scientfic
Instrument type: LC-ESI-ITFT
Ms type: MS2
Ion mode: POSITIVE
Collision energy: 35eV
Ionization: ESI
Column name: TOSOH TSKgel ODS-100V  5um Part no. 21456
Retention time: 5.549927 min
Base peak: 113.006332
Precursor m/z: 245.08
m/z	relative intensity
94.841690	1
96.104843	2
97.115158	6
113.006332	999
115.002991	4
133.077545	7
154.949203	1
179.153641	2
199.090317	1
209.141312	6
215.143570	1
221.953812	1
227.023056	19
