Mass spectrum: NADH; LC-ESI-ITFT; MS2; m/z:333.57; POS
Name: NADH
Name: DPNH
Class: Natural Product
Formula: C21H29N7O14P2
Exact mass: 665.12477
SMILES: NC(=O)C(C5)=CN(C=C5)[C@H](O1)[C@H](O)[C@H](O)[C@@H](COP(O)(=O)OP(O)(=O)OC[C@@H](O2)[C@@H](O)[C@@H](O)[C@@H]2n(c4)c(n3)c(n4)c(N)nc3)1
InChI: InChI=1S/C21H29N7O14P2/c22-17-12-19(25-7-24-17)28(8-26-12)21-16(32)14(30)11(41-21)6-39-44(36,37)42-43(34,35)38-5-10-13(29)15(31)20(40-10)27-3-1-2-9(4-27)18(23)33/h1,3-4,7-8,10-11,13-16,20-21,29-32H,2,5-6H2,(H2,23,33)(H,34,35)(H,36,37)(H2,22,24,25)/t10-,11-,13-,14-,15-,16-,20-,21-/m1/s1
Instrument: LTQ Orbitrap XL, Thermo Scientfic
Instrument type: LC-ESI-ITFT
Ms type: MS2
Ion mode: POSITIVE
Collision energy: 35eV
Ionization: ESI
Column name: TOSOH TSKgel ODS-100V  5um Part no. 21456
Retention time: 9.532405 min
Base peak: 325.101807
Precursor m/z: 333.57
m/z	relative intensity
136.035339	61
178.071075	2
232.107117	2
301.172546	10
302.148865	21
312.180664	2
316.225616	4
319.121033	22
320.212280	7
321.332001	1
325.101807	999
326.924652	1
328.091736	1
348.100616	40
354.085968	2
372.199066	7
398.200714	4
400.129486	10
415.504242	1
416.202972	1
468.085419	1
496.167145	30
514.056030	42
515.198181	1
531.071960	2
531.971008	1
542.219543	1
