Mass spectrum: D-Gluconic acid; LC-ESI-ITFT; MS; NEG
Name: D-Gluconic acid
Name: D-Gluconate
Name: D-gluco-Hexonic acid
Class: Natural Product
Formula: C6H12O7
Exact mass: 196.05830
SMILES: OCC(O)C(O)C(O)C(O)C(O)=O
InChI: InChI=1S/C6H12O7/c7-1-2(8)3(9)4(10)5(11)6(12)13/h2-5,7-11H,1H2,(H,12,13)
Instrument: LTQ Orbitrap XL, Thermo Scientfic
Instrument type: LC-ESI-ITFT
Ms type: MS
Ion mode: NEGATIVE
Collision energy: 35eV
Ionization: ESI
Column name: TOSOH TSKgel ODS-100V  5um Part no. 21456
Retention time: 5.706950 min
Base peak: 195.050552
m/z	relative intensity
100.156455	1
100.233385	1
100.287630	1
100.367561	1
100.923057	1
102.476632	1
104.037282	1
104.177362	1
105.206662	1
105.383850	1
105.461562	1
106.737978	1
106.943493	1
108.018617	2
108.020314	64
108.022223	2
109.622590	1
109.912872	1
110.008726	1
110.176991	1
111.509086	1
112.928037	1
112.983606	1
112.985648	43
112.986782	1
112.987690	2
113.581110	1
113.622287	1
113.643342	1
114.235021	1
114.458411	1
114.645341	1
114.874588	1
114.951622	4
114.965827	1
115.457403	1
115.996972	1
117.136843	1
117.355351	1
121.946897	1
121.949950	1
123.771233	1
123.873016	1
124.014837	1
125.839799	1
126.030708	9
128.544602	1
129.015360	1
129.018959	3
131.384776	1
133.015327	7
135.642738	1
136.955598	1
139.006887	14
139.154703	1
139.892016	3
140.046256	5
140.371840	1
140.565910	1
140.966957	1
141.287192	1
142.890974	2
143.889796	4
144.891220	2
144.958792	2
145.436109	1
145.890482	4
146.979873	1
148.011744	1
148.252225	1
148.952461	8
150.018055	5
150.456422	1
151.020412	3
151.021464	2
151.022867	10
151.026022	319
151.028126	5
151.029178	8
151.031984	3
151.605211	1
152.022932	1
152.029307	14
153.030103	1
153.553622	1
154.959478	1
156.537437	1
156.728915	1
156.894379	2
156.959003	1
157.341996	1
158.892990	2
158.938408	2
159.030061	1
159.893658	3
160.841743	2
160.892241	2
161.893591	2
162.200698	1
162.838737	3
162.892928	6
164.894756	2
166.910081	1
166.946346	1
167.020543	40
167.895041	1
168.962165	1
169.532905	1
172.810093	1
174.334738	1
175.018648	2
176.863838	1
177.039946	2
184.406527	3
184.739577	1
185.525780	1
187.002148	9
188.123213	1
188.770313	1
188.933591	1
190.770101	1
191.006284	1
191.019252	18
192.022763	1
193.996466	1
194.908352	2
194.977259	2
195.002980	4
195.033338	3
195.037455	5
195.039513	3
195.042086	9
195.044145	4
195.046203	28
195.050321	999
195.054953	24
195.059585	10
195.062673	3
195.064217	3
195.067820	3
195.076571	1
195.098193	4
195.192960	1
196.053647	42
197.054283	8
199.631739	1
201.268143	1
202.381343	1
202.516310	1
203.075023	1
204.806633	1
205.238135	1
206.960413	4
214.021257	14
214.567111	1
214.798289	1
215.548467	1
219.011961	1
220.513169	1
221.046183	1
221.380610	1
224.919908	1
225.451719	1
225.672530	1
231.935298	1
233.939560	1
236.002790	1
237.019146	2
238.966930	1
239.014395	2
240.878068	1
242.985309	1
243.185802	1
245.239276	1
245.442566	1
246.847049	1
248.031724	1
248.923425	2
248.969435	4
248.993187	4
250.941221	1
252.266769	1
255.017263	1
255.895882	1
256.977400	2
259.675013	1
261.253854	1
265.014124	3
265.018200	5
269.503646	1
276.897891	3
278.894290	2
280.858993	4
280.959507	2
280.981752	2
283.938737	5
284.946592	6
284.972038	2
286.523435	1
286.942647	2
291.039468	11
293.017540	2
293.067771	3
294.974685	3
298.104359	1
298.870154	4
299.023472	3
303.058487	65
303.063470	3
304.055709	1
304.061720	5
304.918993	2
306.806838	1
306.874875	3
309.040462	2
311.167860	1
312.359718	1
313.505992	1
314.996310	9
316.930689	2
318.929208	2
319.052993	8
319.915022	1
319.930158	4
320.056690	2
320.922792	3
320.929309	3
322.919778	2
322.929645	5
324.931035	2
325.040615	9
325.182377	3
327.317749	1
328.999057	4
334.870413	1
335.002437	1
335.063842	3
339.228614	1
342.763054	2
344.978562	1
345.375972	1
347.062876	1
347.083643	136
347.089752	1
347.094639	2
348.080221	2
348.086356	13
352.129739	1
360.884969	1
363.078718	31
368.844054	1
369.064979	12
370.067655	1
372.069033	1
378.896485	20
383.379502	1
385.059931	4
388.287811	1
391.108900	66
392.111836	7
392.163185	1
393.962324	1
396.906839	2
398.097197	4
399.094010	12
401.003306	4
408.994732	1
412.918582	2
413.089843	50
413.346933	1
413.817300	1
414.094174	3
415.067022	28
416.068957	2
429.054778	2
429.064853	1
432.667297	1
433.029694	1
434.027356	1
435.025041	19
436.029610	2
437.048020	3
444.019663	9
445.027187	10
446.031025	2
453.697574	1
455.022343	2
457.007483	4
458.983347	3
459.029796	1
459.954655	1
466.001695	2
467.010633	5
468.984633	3
475.060549	1
475.320839	1
480.573864	1
485.479647	1
488.945864	1
489.686142	1
493.365241	1
497.939259	1
502.460124	1
513.950596	186
513.970409	3
514.953662	13
515.955239	2
517.989451	2
518.984266	1
519.312781	1
523.994791	1
524.219213	2
531.961689	84
532.964499	7
533.308706	2
533.327321	2
535.306085	3
535.322465	2
535.931395	2
537.300587	2
538.316179	1
541.218497	4
543.215068	4
544.216300	4
545.215492	4
546.219850	4
547.217313	6
549.220451	2
555.264169	4
557.137737	1
559.335576	1
559.343074	1
559.955905	53
560.958613	4
561.320247	5
561.958983	2
562.324104	2
563.300345	14
564.165187	1
564.304456	3
567.279339	1
579.311866	2
581.939290	2
590.807781	1
592.253813	3
595.019232	1
602.445320	1
603.981986	3
605.369736	3
609.465145	1
609.937300	9
611.302803	6
611.914343	1
613.280755	2
617.236596	1
621.303975	2
621.342014	18
622.346901	6
627.942875	1
629.309665	1
631.130019	3
631.288814	2
633.105729	2
638.171058	1
639.397248	1
641.347490	2
647.859141	1
650.299184	1
655.046563	1
655.090909	1
662.058062	1
665.985854	1
678.037957	1
684.765604	1
696.183297	1
699.275322	1
710.007357	20
711.012812	2
712.670556	1
715.110254	1
717.330139	9
718.333007	4
719.265085	3
721.006653	1
721.262761	2
722.262888	4
723.265097	4
724.265710	3
725.261021	4
726.269479	1
727.461648	1
731.990327	3
761.122349	1
763.926943	1
771.919516	1
779.964098	1
781.881290	1
785.949203	1
792.294108	1
796.889733	1
809.929641	1
819.959582	1
822.280077	1
824.355491	1
826.811456	1
835.685993	1
859.958989	1
864.383151	1
880.053280	1
894.832022	1
898.906846	1
905.974967	8
907.982422	1
916.283667	7
917.285361	4
917.647633	5
918.651565	5
919.630801	3
919.651877	2
920.637990	1
921.636262	2
922.964522	1
929.932983	1
938.554070	2
940.578182	1
943.133960	1
952.789267	1
955.088226	1
955.177458	1
957.938635	1
963.711778	1
981.963789	2
988.589740	1
990.736703	1
1005.969235	32
1006.976678	4
1008.977944	1
1012.955776	1
1015.237648	1
1023.674944	13
1024.678122	7
1025.676569	3
1026.925128	1
1031.842028	1
1038.866203	1
1053.099165	1
1054.618110	1
1063.532462	1
1078.337323	1
1080.810216	2
1080.897492	1
1083.210795	1
1090.923483	1
1092.907188	2
1099.923947	1
1105.652799	1
1105.965432	29
1106.465919	1
1106.918040	1
1106.966746	8
1107.962453	1
1119.556303	1
1155.963226	2
1156.958865	1
1165.985321	26
1166.986407	7
1181.475586	1
1182.980837	5
1205.956640	14
1206.954199	2
1208.357623	1
1220.269409	1
1229.575772	1
1233.969956	4
1234.977882	2
1250.171005	1
1255.953397	5
1261.310395	1
1264.167333	1
1265.978062	56
1266.889146	1
1266.982865	11
1267.980333	3
1281.410582	2
1282.971940	16
1283.970969	4
1287.079747	1
1305.953902	3
1325.291863	1
1333.966349	4
1334.970248	1
1355.948671	6
1364.021754	1
1365.974981	33
1366.977040	7
1370.986731	1
1382.957032	7
1383.968112	4
1395.833289	1
1396.030362	1
1396.079637	1
1430.179909	1
1433.958002	5
1434.963914	2
1445.953716	1
1454.237220	1
1455.936047	2
1460.660114	1
1465.958479	12
1466.966411	3
1481.047289	1
1482.955151	5
