Mass spectrum: alpha-D-Glucose 6-phosphate; LC-ESI-ITFT; MS2; m/z:259.02; NEG
Name: alpha-D-Glucose 6-phosphate
Class: Natural Product
Formula: C6H13O9P
Exact mass: 260.02972
SMILES: O[C@@H](O1)[C@H](O)[C@@H](O)[C@H](O)[C@H]1COP(O)(O)=O
InChI: InChI=1S/C6H13O9P/c7-3-2(1-14-16(11,12)13)15-6(10)5(9)4(3)8/h2-10H,1H2,(H2,11,12,13)/t2-,3-,4+,5-,6+/m1/s1
Instrument: LTQ Orbitrap XL, Thermo Scientfic
Instrument type: LC-ESI-ITFT
Ms type: MS2
Ion mode: NEGATIVE
Collision energy: 35eV
Ionization: ESI
Column name: TOSOH TSKgel ODS-100V  5um Part no. 21456
Retention time: 6.746868 min
Base peak: 96.867462
Precursor m/z: 259.02
m/z	relative intensity
78.794296	155
96.867462	999
100.991455	2
131.026855	1
138.983505	51
151.009094	1
161.111496	22
168.888107	196
198.939438	257
223.090530	37
229.197189	5
241.098694	22
