Mass spectrum: L-Methionine; LC-ESI-ITFT; MS; POS
Name: L-Methionine
Name: Methionine
Name: L-2-Amino-4methylthiobutyric acid
Class: Natural Product
Formula: C5H11NO2S
Exact mass: 149.05105
SMILES: N[C@@H](CCSC)C(O)=O
InChI: InChI=1S/C5H11NO2S/c1-9-3-2-4(6)5(7)8/h4H,2-3,6H2,1H3,(H,7,8)/t4-/m0/s1
Instrument: LTQ Orbitrap XL, Thermo Scientfic
Instrument type: LC-ESI-ITFT
Ms type: MS
Ion mode: POSITIVE
Collision energy: 35eV
Ionization: ESI
Column name: TOSOH TSKgel ODS-100V  5um Part no. 21456
Retention time: 5.538720 min
Base peak: 150.058228
m/z	relative intensity
100.111848	1
102.054776	3
104.052614	26
104.054218	1
113.034280	6
133.026156	1
133.029344	1
133.031662	64
133.033981	2
134.034862	2
135.027519	1
136.061816	19
137.043475	1
137.045596	56
137.048020	1
138.048969	2
141.958490	1
149.526201	1
149.879092	1
149.962306	2
149.998735	1
150.023722	1
150.026151	3
150.028928	1
150.034135	1
150.037606	1
150.041077	1
150.043160	1
150.043855	1
150.046285	1
150.047326	1
150.048368	2
150.050104	3
150.051492	3
150.052881	4
150.055659	18
150.058089	999
150.060867	22
150.063644	4
150.065728	3
150.066769	3
150.067811	3
150.068853	1
150.069895	2
150.071978	1
150.073367	1
150.074062	1
150.076145	1
150.078229	1
150.079618	1
150.083091	1
150.087258	1
150.090384	3
150.093163	1
150.118173	1
150.154311	2
150.237755	1
150.592820	1
151.054992	1
151.057446	5
151.061304	51
151.063759	1
152.050883	1
152.053716	40
152.056549	1
152.061507	2
153.056655	1
158.002552	2
163.132671	1
170.056485	1
170.065282	16
170.566564	1
171.149125	14
172.976690	1
174.127584	6
179.063200	1
182.984796	4
187.126060	1
190.028489	1
193.021258	1
193.053679	1
193.056213	1
193.058239	1
193.060266	1
193.064320	4
193.067867	257
193.071920	5
193.075974	1
193.079015	1
193.080535	1
193.082055	1
193.114999	1
193.564895	1
193.568964	38
193.573034	1
194.065377	8
194.068952	1
194.070484	1
194.116962	3
194.566778	1
199.179842	1
268.027107	1
268.085135	1
268.088451	1
268.091767	1
268.097571	4
268.104205	328
268.110838	6
268.116643	1
268.119131	1
268.121618	1
268.124106	1
268.126594	1
268.180506	1
269.081158	1
269.082826	1
269.088662	107
269.095332	2
269.099501	2
269.106172	33
269.112842	1
270.090289	8
270.107058	1
385.118565	2
385.128558	120
385.135696	1
385.139979	2
386.131254	13
387.123484	2
387.129239	1
391.282894	5
392.284786	1
418.138221	13
419.139708	1
536.184520	17
537.166135	6
537.184948	2
538.171671	1
540.333548	3
541.336099	1
653.206105	7
654.210027	2
658.376566	1
