Mass spectrum: Taurine; LC-ESI-ITFT; MS; NEG
Name: Taurine
Name: 2-Aminoethanesulfonic acid
Name: Aminoethylsulfonic acid
Class: Natural Product
Formula: C2H7NO3S
Exact mass: 125.01466
SMILES: NCCS(O)(=O)=O
InChI: InChI=1S/C2H7NO3S/c3-1-2-7(4,5)6/h1-3H2,(H,4,5,6)
Instrument: LTQ Orbitrap XL, Thermo Scientfic
Instrument type: LC-ESI-ITFT
Ms type: MS
Ion mode: NEGATIVE
Collision energy: 35eV
Ionization: ESI
Column name: TOSOH TSKgel ODS-100V  5um Part no. 21456
Retention time: 4.772357 min
Base peak: 249.021576
m/z	relative intensity
106.980904	1
112.985648	7
118.050897	2
121.991688	1
123.887083	1
123.892294	1
123.935293	2
123.938161	1
123.976229	1
123.981967	1
123.983271	5
123.985097	1
123.986140	1
123.987705	1
123.991096	1
123.991879	1
123.992661	1
123.994226	2
123.996052	2
123.997617	2
123.998400	2
124.000226	6
124.002835	13
124.003618	10
124.005183	37
124.007270	946
124.009096	34
124.011445	12
124.012749	3
124.014054	5
124.015880	2
124.016663	2
124.019011	2
124.020577	2
124.021621	1
124.023187	1
124.025796	1
124.028928	1
124.031276	5
124.032842	1
124.038323	1
124.076176	1
124.079310	2
124.122668	1
124.127632	1
125.004135	2
125.006511	3
125.010472	12
126.000775	1
126.002913	27
126.004783	1
126.011197	4
128.035075	1
130.050646	4
132.027877	1
132.030169	18
132.031889	1
132.032749	1
166.027493	1
184.513497	1
195.936488	1
212.939302	1
221.974246	9
223.932172	1
223.970163	1
248.694307	1
248.816612	2
248.953107	4
248.958302	1
248.961271	1
248.970177	1
248.977599	1
248.979826	1
248.985022	1
248.986507	1
248.989476	1
248.991703	1
248.993929	2
248.996156	1
249.001353	4
249.006549	2
249.009519	9
249.015458	28
249.017685	16
249.021397	999
249.026594	25
249.031049	4
249.033277	10
249.037732	3
249.040702	4
249.046642	2
249.048127	2
249.050355	1
249.054810	2
249.057038	1
249.059266	2
249.062979	1
249.083773	1
249.086001	1
249.089715	4
249.107542	1
249.227178	2
250.020740	10
250.024474	35
250.031197	1
251.004320	1
251.011082	2
251.017093	75
251.024607	7
251.029116	1
252.020170	2
253.012543	1
253.020907	1
255.064973	6
257.044347	5
261.066471	1
267.023262	1
269.896945	1
270.996870	1
271.003613	38
271.009513	1
272.006886	1
272.999547	3
275.046050	1
279.022808	1
286.977547	1
287.029908	1
290.020606	1
296.984378	1
297.971182	1
301.933295	1
302.940903	2
304.992441	2
310.949161	2
310.963665	1
316.992525	1
318.971179	1
331.072019	1
346.988373	1
374.025184	1
374.036117	66
374.045684	1
374.048418	1
375.039922	3
376.031241	7
376.039507	1
389.001449	1
392.037032	2
396.006032	1
396.017943	4
398.014673	1
398.080690	1
406.016936	1
411.983289	4
415.035071	1
417.999768	1
420.991448	3
425.960285	1
426.948604	2
426.958605	1
427.035287	2
427.942039	1
427.955419	20
428.959086	1
429.951129	2
433.967570	1
433.998316	1
434.971904	1
435.962531	8
436.961722	1
437.960890	1
442.006073	1
462.043493	2
468.087899	1
472.004052	3
472.013739	1
498.855799	1
498.994762	1
499.015822	2
499.022140	2
499.034777	7
499.051627	327
499.064265	6
499.070584	5
499.076903	1
499.085329	2
499.095862	1
499.106395	1
499.112715	1
499.245463	1
500.045174	3
500.053624	21
500.064187	1
501.031095	1
501.045928	54
501.067118	1
502.049689	3
503.041548	3
505.094149	1
507.073037	2
517.053022	1
521.031942	10
522.037792	1
523.028478	1
523.096281	1
529.050639	1
535.095553	1
543.014197	1
546.005258	2
551.961537	3
552.049747	1
552.969861	4
553.958781	1
558.005852	3
559.985947	1
560.976184	1
564.048747	1
597.017824	2
599.015423	1
623.795519	1
623.986891	1
624.016340	1
624.025176	2
624.042847	4
624.066410	232
624.084082	4
624.092919	4
624.101756	1
624.113539	1
624.128268	1
624.140052	1
624.337476	1
625.069059	18
626.038612	1
626.062287	43
627.063819	4
628.055860	3
628.067755	1
646.046642	6
647.049881	1
648.042992	1
677.984589	2
679.983488	1
685.992777	1
722.031905	1
749.014120	1
749.029612	1
749.048978	2
749.079964	127
749.107078	2
749.114826	2
749.141942	1
750.084185	13
751.035983	1
751.074871	22
751.094316	1
752.079211	3
753.069949	2
755.123949	1
757.103705	1
771.061229	4
772.065405	1
773.055300	1
787.049354	1
802.998006	3
804.004930	1
804.992173	1
811.010722	1
811.587018	1
812.583888	1
874.056624	1
874.095683	80
874.124978	1
874.139627	1
875.097449	12
875.596530	1
876.091139	16
877.091431	2
878.083605	1
896.077400	3
897.081667	1
898.072369	1
928.012549	1
999.060692	1
999.108423	29
1000.111550	6
1001.104220	9
1002.104361	2
1003.093998	1
1003.118007	1
1005.975263	2
1021.093291	2
1022.092675	1
1053.028146	1
1105.965432	2
1124.120941	12
1125.125627	3
1126.124522	4
1127.117598	1
1128.111988	1
1146.099115	1
1165.985321	3
1166.986407	1
1205.956640	1
1249.136085	3
1250.137601	1
1251.131961	2
1265.986573	3
1266.982865	1
1333.975554	1
1334.970248	1
1365.965443	2
1366.977040	1
1374.147530	1
1375.158596	1
1376.151489	1
1431.519472	1
1433.958002	1
1465.958479	1
