Mass spectrum: L-Carnosine; LC-ESI-ITFT; MS2; m/z:225.10; NEG
Name: Carnosine
Name: Nalpha-(beta-alanyl)-L-histidine
Name: L-Carnosine
Class: Natural Product
Formula: C9H14N4O3
Exact mass: 226.10659
SMILES: C1=C(NC=N1)C[C@@H](C(=O)O)NC(=O)CCN
InChI: InChI=1S/C9H14N4O3/c10-2-1-8(14)13-7(9(15)16)3-6-4-11-5-12-6/h4-5,7H,1-3,10H2,(H,11,12)(H,13,14)(H,15,16)/t7-/m0/s1
Instrument: LTQ Orbitrap XL, Thermo Scientfic
Instrument type: LC-ESI-ITFT
Ms type: MS2
Ion mode: NEGATIVE
Collision energy: 35eV
Ionization: ESI
Column name: TOSOH TSKgel ODS-100V  5um Part no. 21456
Retention time: 3.951513 min
Base peak: 154.044479
Precursor m/z: 225.10
m/z	relative intensity
86.015045	1
88.025238	32
110.119263	55
134.215149	2
136.090424	4
137.124100	4
139.108353	2
145.972382	4
152.077515	1
154.044479	999
161.274765	2
163.118896	307
164.103165	5
181.130051	44
195.986465	2
206.995056	55
208.147217	11
