Mass spectrum: Spermidine; LC-ESI-ITFT; MS2; m/z:146.17; POS
Name: Spermidine
Name: N-(3-Aminopropyl)-1,4-butane-diamine
Class: Natural Product
Formula: C7H19N3
Exact mass: 145.15790
SMILES: NCCCCNCCCN
InChI: InChI=1S/C7H19N3/c8-4-1-2-6-10-7-3-5-9/h10H,1-9H2
Instrument: LTQ Orbitrap XL, Thermo Scientfic
Instrument type: LC-ESI-ITFT
Ms type: MS2
Ion mode: POSITIVE
Collision energy: 35eV
Ionization: ESI
Column name: TOSOH TSKgel ODS-100V  5um Part no. 21456
Retention time: 3.376743 min
Base peak: 129.067474
Precursor m/z: 146.17
m/z	relative intensity
58.052601	51
72.003418	654
74.944992	277
84.040985	1
112.054367	220
129.067474	999
129.844879	1
