Mass spectrum: L-Asparagine; LC-ESI-ITFT; MS2; m/z:263.10; NEG
Name: L-Asparagine
Name: 2-Aminosuccinamic acid
Class: Natural Product
Formula: C4H8N2O3
Exact mass: 132.05349
SMILES: NC(=O)C[C@@H](N)C(O)=O
InChI: InChI=1S/C4H8N2O3/c5-2(4(8)9)1-3(6)7/h2H,1,5H2,(H2,6,7)(H,8,9)/t2-/m0/s1
Instrument: LTQ Orbitrap XL, Thermo Scientfic
Instrument type: LC-ESI-ITFT
Ms type: MS2
Ion mode: NEGATIVE
Collision energy: 35eV
Ionization: ESI
Column name: TOSOH TSKgel ODS-100V  5um Part no. 21456
Retention time: 4.609147 min
Base peak: 131.013550
Precursor m/z: 263.10
m/z	relative intensity
131.013550	999
