Mass spectrum: Hypoxanthine; LC-ESI-ITFT; MS; POS
Name: Hypoxanthine
Name: Purine-6-ol
Class: Natural Product
Formula: C5H4N4O
Exact mass: 136.03851
SMILES: C1=NC2=C(N1)C(=O)N=CN2
InChI: InChI=1S/C5H4N4O/c10-5-3-4(7-1-6-3)8-2-9-5/h1-2H,(H2,6,7,8,9,10)
Instrument: LTQ Orbitrap XL, Thermo Scientfic
Instrument type: LC-ESI-ITFT
Ms type: MS
Ion mode: POSITIVE
Collision energy: 35eV
Ionization: ESI
Column name: TOSOH TSKgel ODS-100V  5um Part no. 21456
Retention time: 5.474772 min
Base peak: 137.045670
m/z	relative intensity
100.111848	2
102.033748	1
102.091202	3
110.034570	3
116.070432	5
119.035071	5
133.072246	2
136.062116	24
136.063614	1
136.581316	1
136.889061	1
136.961996	2
136.993489	1
137.017721	6
137.021356	1
137.022871	1
137.025901	1
137.029839	1
137.030748	1
137.033172	1
137.034990	2
137.036505	2
137.037414	3
137.039232	2
137.040444	4
137.041656	4
137.042869	15
137.043778	14
137.045596	999
137.047111	26
137.048323	15
137.050445	3
137.051051	4
137.052566	1
137.053475	3
137.054384	3
137.055900	2
137.056809	1
137.058021	1
137.059233	1
137.060143	1
137.061052	1
137.065901	1
137.068933	1
137.069842	1
137.073479	6
137.097733	1
137.125936	1
137.129575	2
137.202703	1
137.213328	1
137.512247	1
138.042841	7
138.045905	1
138.048662	43
138.050194	1
138.051113	1
139.049463	1
141.958171	1
149.001946	1
149.022904	1
155.142891	1
158.002552	6
158.096379	1
159.027515	1
163.132671	2
170.095866	1
171.149125	21
172.152025	1
172.976690	1
174.127584	10
179.063200	1
182.028700	1
182.103407	4
182.984796	3
186.999930	1
187.126060	5
190.028489	2
194.117473	17
195.120051	1
199.179842	2
222.112313	2
224.127985	3
252.108787	1
272.099372	1
273.006222	1
273.076954	1
273.079511	1
273.084626	131
273.088888	2
273.091445	1
274.080382	1
274.087239	10
299.512294	1
323.037342	1
336.983052	1
349.474060	1
391.284356	13
392.286254	2
436.341219	1
482.002131	1
497.998190	1
515.964238	1
531.976473	1
533.975213	1
547.989064	1
561.947469	1
561.955017	1
561.970115	94
561.992763	1
562.972954	8
563.973420	2
577.965290	1
583.982659	1
599.997156	1
649.945183	1
652.003187	15
652.503474	1
653.007489	1
684.029764	2
698.010606	1
720.023837	1
720.524061	1
788.042629	6
789.046431	1
924.083297	1
