Mass spectrum: Ribitol; LC-ESI-ITFT; MS; POS
Name: Ribitol
Name: Adonitol
Class: Natural Product
Formula: C5H12O5
Exact mass: 152.06847
SMILES: OCC([H])(O)C([H])(O)C([H])(O)CO
InChI: InChI=1S/C5H12O5/c6-1-3(8)5(10)4(9)2-7/h3-10H,1-2H2/t3-,4+,5-
Instrument: LTQ Orbitrap XL, Thermo Scientfic
Instrument type: LC-ESI-ITFT
Ms type: MS
Ion mode: POSITIVE
Collision energy: 35eV
Ionization: ESI
Column name: TOSOH TSKgel ODS-100V  5um Part no. 21456
Retention time: 5.012830 min
Base peak: 153.075684
m/z	relative intensity
100.047172	2
100.111848	21
101.095891	2
102.033748	8
102.091007	1
107.070205	2
108.539344	1
110.019746	4
111.020036	2
113.059480	1
113.963374	2
116.528118	11
117.029637	1
117.052597	1
117.054510	101
117.056424	1
118.057699	2
118.086052	1
118.942400	1
124.514404	17
125.533627	1
128.106709	2
129.052680	2
129.127203	2
130.007768	1
130.159097	1
132.076661	2
133.079496	2
133.519900	1
134.983075	1
134.986925	1
135.014183	1
135.037596	2
135.053010	1
135.054196	1
135.055085	1
135.057457	1
135.059532	2
135.061014	1
135.062793	6
135.065165	482
135.067537	6
135.069020	1
135.070206	2
135.071985	1
135.072874	1
135.075543	1
135.076729	1
135.078508	1
135.092446	2
135.116176	1
135.147034	1
135.217987	1
135.521133	1
136.061516	1
136.068411	23
137.041353	15
137.069236	1
137.132305	12
137.543015	1
139.982008	2
141.958490	9
142.122204	1
144.030008	2
144.529534	1
145.025066	1
145.027705	55
145.030344	1
145.529118	4
146.027804	5
147.025487	1
149.023592	42
150.026845	2
151.096730	4
152.527971	1
152.891191	1
152.976927	1
153.014459	1
153.042707	3
153.048787	1
153.051648	1
153.054509	1
153.056655	1
153.059159	1
153.060947	1
153.062735	1
153.063808	2
153.066312	2
153.067743	1
153.068816	3
153.069889	2
153.070962	1
153.072751	11
153.075613	999
153.078475	12
153.080621	2
153.082052	4
153.083125	1
153.084914	2
153.088134	2
153.089923	1
153.090996	1
153.092070	1
153.097079	1
153.097794	1
153.100657	1
153.102088	1
153.108887	3
153.137161	1
153.170455	1
153.174394	2
153.260368	1
153.626209	1
154.076052	1
154.078942	50
154.080748	1
154.989704	1
155.079765	7
155.142526	9
158.002552	31
158.082487	1
158.096003	7
158.961247	4
159.080939	1
159.083971	37
159.086624	1
159.112399	1
160.086966	1
163.132671	41
164.060287	5
164.091648	1
164.136124	1
165.053898	1
167.012526	1
167.033727	6
168.122433	1
170.096704	10
170.102152	13
171.100077	1
171.138130	7
171.141513	1
171.145742	2
171.149125	157
171.152509	2
171.156738	1
172.049251	28
172.132828	1
172.140933	1
172.152452	10
172.550774	2
173.078577	1
174.124112	1
174.128018	64
175.017222	1
175.043028	1
175.046090	1
175.049590	1
175.050902	1
175.051777	1
175.054402	4
175.057902	337
175.061402	4
175.063589	1
175.065340	1
175.069277	1
175.073215	1
175.089406	3
175.098158	1
175.130548	4
175.178712	1
176.060542	13
176.142644	1
177.061584	1
178.034839	1
179.037405	2
179.063653	13
179.536641	3
180.031581	1
180.035231	89
180.038881	1
180.158947	4
180.536817	6
181.035441	4
182.032875	1
182.984796	12
185.114619	1
186.184865	3
186.955984	3
187.126544	38
188.129475	1
189.121330	1
190.992536	1
191.030931	3
194.116962	1
195.087107	1
195.122110	3
196.153246	1
199.028604	1
199.180373	24
200.183421	1
208.189645	3
216.206580	1
217.102873	1
220.111375	4
221.115280	1
222.111688	1
223.038698	11
223.063237	28
224.062720	2
224.127985	1
225.059369	1
226.158371	1
228.231451	1
233.174638	8
234.177254	1
238.017778	1
240.094033	4
240.179785	1
244.237292	1
248.083781	47
248.584205	3
249.086887	1
250.200711	1
251.992388	5
253.000315	7
253.003355	1
255.070556	2
255.074403	1
255.155987	1
255.569898	1
255.572213	1
256.029691	1
256.062968	1
256.069934	91
256.075352	1
256.570662	8
256.573767	1
257.068969	3
257.072083	1
258.067597	1
269.044478	9
269.047812	1
274.158392	1
277.199902	3
278.231421	1
279.158552	6
279.162076	1
282.220291	4
282.224768	1
283.223259	1
293.017922	1
294.226753	1
299.138636	1
299.181639	2
305.143821	26
306.147070	2
311.151204	4
316.127166	1
321.225628	1
322.221872	1
322.257928	1
324.116967	6
324.617932	1
327.124616	7
327.130204	1
329.102657	81
330.104077	2
331.104383	1
332.102385	14
332.108100	1
332.604797	3
332.608234	1
333.106053	1
335.109707	1
343.206958	1
347.063016	1
348.062941	1
349.059802	17
349.106616	1
350.063426	1
351.056475	1
354.059850	1
358.054708	21
358.061107	1
359.061417	7
359.067842	1
366.283065	1
367.186445	3
367.687993	1
375.171422	3
375.176913	1
375.674295	1
376.174044	1
378.568136	1
389.094806	1
391.272660	1
391.284356	148
391.294590	1
392.286254	29
393.044620	1
393.289058	1
395.037670	6
396.042117	1
397.033963	1
397.039940	1
397.291107	1
399.034887	1
405.066117	1
413.265143	58
414.268274	8
415.270267	1
422.323179	1
426.356690	3
427.376183	2
429.237976	3
430.240855	1
436.339497	11
437.343196	2
437.350107	1
464.370027	1
475.379199	1
501.125843	2
549.358202	1
565.334378	4
566.336057	1
580.046892	1
684.026385	1
803.539991	2
804.543384	1
1321.974251	1
