Mass spectrum: L-Tryptophan; LC-ESI-ITFT; MS2; m/z:429.15; NEG
Name: L-Tryptophan
Name: Tryptophan
Name: (S)-alpha-Amino-beta-(3-indolyl)-propionic acid
Class: Natural Product
Formula: C11H12N2O2
Exact mass: 204.08988
SMILES: C1=CC=C2C(=C1)C(=CN2)C[C@@H](C(=O)O)N
InChI: InChI=1S/C11H12N2O2/c12-9(11(14)15)5-7-6-13-10-4-2-1-3-8(7)10/h1-4,6,9,13H,5,12H2,(H,14,15)/t9-/m0/s1
Instrument: LTQ Orbitrap XL, Thermo Scientfic
Instrument type: LC-ESI-ITFT
Ms type: MS2
Ion mode: NEGATIVE
Collision energy: 35eV
Ionization: ESI
Column name: TOSOH TSKgel ODS-100V  5um Part no. 21456
Retention time: 13.936838 min
Base peak: 224.980392
Precursor m/z: 429.15
m/z	relative intensity
130.042221	23
142.196655	19
159.175385	12
196.359192	2
203.126038	282
224.980392	999
311.316315	3
411.197357	3
