Mass spectrum: L-(+)-Arginine; LC-ESI-ITFT; MS; NEG
Name: L-Arginine
Name: (S)-2-Amino-5-guanidinovaleric acid
Name: L-(+)-Arginine
Class: Natural Product
Formula: C6H14N4O2
Exact mass: 174.11168
SMILES: NC(=N)NCCC[C@H](N)C(O)=O
InChI: InChI=1S/C6H14N4O2/c7-4(5(11)12)2-1-3-10-6(8)9/h4H,1-3,7H2,(H,11,12)(H4,8,9,10)/t4-/m0/s1
Instrument: LTQ Orbitrap XL, Thermo Scientfic
Instrument type: LC-ESI-ITFT
Ms type: MS
Ion mode: NEGATIVE
Collision energy: 35eV
Ionization: ESI
Column name: TOSOH TSKgel ODS-100V  5um Part no. 21456
Retention time: 4.115618 min
Base peak: 241.091507
m/z	relative intensity
101.394700	1
102.366303	1
102.948957	1
102.957049	13
104.842391	1
104.954030	3
106.695618	1
108.266276	1
110.009952	1
112.088108	3
112.923193	2
112.925913	1
112.931808	1
112.962651	1
112.965146	6
112.974901	1
112.975808	1
112.977623	2
112.978304	2
112.980346	4
112.982388	10
112.983069	8
112.984203	33
112.986018	836
112.987834	37
112.988968	7
112.989649	10
112.990783	3
112.991691	4
112.992372	2
112.994187	2
112.994641	2
112.997137	1
112.998499	1
112.999634	1
113.006896	7
113.009166	1
113.048669	2
113.099101	1
113.301391	1
113.576911	1
113.681950	1
113.940934	1
113.988975	6
114.055914	1
114.990201	1
116.806442	1
117.398512	1
117.981536	1
118.085230	1
118.397376	1
118.993016	2
122.990749	1
123.341192	1
127.824485	1
127.842235	1
129.975772	5
131.056673	2
131.067728	1
131.070280	1
131.072264	1
131.075383	1
131.077084	2
131.078218	4
131.079069	3
131.080487	12
131.081337	7
131.082755	321
131.085023	14
131.086441	2
131.087575	3
131.089844	1
131.090978	1
131.108845	2
132.085984	14
132.087705	1
133.086850	1
134.118794	1
134.502570	1
134.769681	1
135.312244	1
137.401716	1
137.672326	1
139.007093	2
139.141265	1
139.900352	1
142.067343	1
142.946387	2
142.996125	1
144.580882	1
145.213904	1
145.444613	1
146.938359	3
146.960908	1
150.039810	1
150.429808	1
150.982782	2
153.487017	1
154.116213	1
154.136819	1
154.213495	1
154.392387	1
154.500452	1
154.882852	1
154.960085	1
156.070283	1
156.075072	1
156.077651	20
157.011649	17
157.514285	1
158.015209	1
159.978750	1
161.098981	1
162.968245	1
162.982789	8
164.999094	2
170.366599	1
170.941521	2
170.944055	2
171.542702	1
171.544400	1
172.985645	1
173.065195	4
173.078530	1
173.080251	1
173.081542	1
173.083693	1
173.085414	1
173.088425	2
173.090146	2
173.093158	3
173.094449	2
173.097891	8
173.099181	6
173.100903	24
173.104775	755
173.108218	27
173.110369	4
173.111660	7
173.113812	3
173.115533	3
173.116824	2
173.119836	2
173.121127	1
173.125431	1
173.128444	1
173.144369	4
173.223597	2
174.101316	7
174.103920	1
174.107826	32
174.955987	1
175.108238	2
175.110427	1
176.779756	1
178.059364	1
178.272333	1
178.977758	22
178.980020	1
179.141631	1
180.930674	1
180.948608	3
180.961945	1
180.966084	2
180.967004	2
180.969304	6
180.973443	239
180.977123	8
180.978963	2
180.980803	2
180.983103	1
181.015767	2
181.020829	1
181.459683	1
181.976173	4
182.032305	1
182.976972	1
184.354842	2
185.185239	1
186.118124	1
186.119563	1
186.929570	1
190.927875	6
195.086217	2
197.963492	1
198.933207	1
198.935857	7
199.069514	19
200.437109	1
201.045927	1
202.323556	1
203.690274	1
204.956640	1
204.993233	2
205.582840	1
206.963082	2
206.965332	1
206.967583	4
206.972646	139
206.977146	5
206.979959	1
206.982209	1
206.994025	1
207.708183	1
207.975954	3
210.949558	1
217.393201	1
218.250808	1
218.899184	1
218.904079	10
224.998804	2
225.117451	3
225.779382	1
226.204293	1
227.728886	1
230.889622	1
231.005000	1
231.062721	10
231.985203	1
232.065999	1
232.986439	5
233.059692	4
233.831954	1
234.076696	1
234.959456	2
235.170535	1
236.914920	4
238.127291	1
238.726167	1
238.931179	6
240.834119	1
240.895563	2
240.928767	3
241.026299	5
241.051752	1
241.053873	1
241.065187	2
241.068015	2
241.072258	3
241.080037	9
241.082159	6
241.085695	27
241.087817	15
241.091353	999
241.097011	31
241.101255	6
241.103377	9
241.106913	2
241.109742	3
241.111864	2
241.113986	1
241.116816	2
241.126012	1
241.128134	1
241.130964	1
241.133794	1
241.156433	5
241.287381	1
242.088122	8
242.090968	1
242.094527	66
242.100220	1
242.904299	7
242.942926	1
243.067456	9
243.095381	3
247.051431	1
248.754897	1
248.892083	4
248.914340	1
248.928438	1
248.932148	1
248.935858	2
248.940311	2
248.948474	6
248.950700	4
248.954411	17
248.960348	644
248.966285	19
248.969996	4
248.972965	5
248.975934	2
248.978903	2
248.981872	1
248.984841	1
248.986325	1
249.028640	3
249.165310	1
249.963055	17
250.785644	1
250.964320	8
252.969779	7
253.140901	1
253.164492	1
254.916306	2
255.959115	1
256.919617	2
256.954632	10
257.086975	1
258.024863	1
258.082036	2
258.896259	1
258.915936	1
260.914909	5
260.938002	1
261.078217	2
261.481167	1
262.787358	1
263.074115	1
264.909607	2
267.056843	3
270.826468	1
270.881210	1
273.029148	3
281.036701	3
282.896433	2
284.522448	1
284.914559	2
284.985443	1
285.117286	4
286.930482	1
287.095841	1
289.072776	17
289.943879	1
290.970777	1
292.986047	6
293.056174	1
293.105467	2
296.914549	2
297.568086	1
299.049631	4
300.973888	6
302.839098	1
302.925741	1
304.878538	1
306.919348	8
307.083985	2
308.916081	1
308.984821	2
309.062823	2
309.065903	2
309.071035	9
309.074115	5
309.079248	339
309.087461	9
309.092594	2
309.096701	3
309.104915	1
309.109022	1
309.174745	1
310.076443	4
310.082632	23
310.941686	1
311.082617	2
311.086763	1
313.942497	1
313.987692	1
314.925323	14
316.849455	2
316.918728	2
316.922992	1
316.930454	4
316.933652	2
316.938982	14
316.942180	7
316.947510	539
316.956039	13
316.961369	3
316.965634	4
316.981627	1
316.986958	1
317.046677	2
317.243016	1
317.950919	24
318.951567	7
319.034450	1
321.007288	1
322.904182	2
324.906439	1
326.069129	1
326.902810	3
327.042439	1
327.175450	4
331.061513	1
332.916341	1
332.935852	33
333.938940	1
334.888669	1
334.910669	3
335.045033	10
335.078637	13
335.101815	1
336.080956	1
340.133172	1
340.426095	1
341.016646	1
341.566988	1
342.969085	1
345.597720	1
347.215345	17
348.218631	1
350.375789	1
353.105243	3
354.904738	1
354.917370	3
360.931324	3
360.974079	4
361.093316	3
364.013497	11
365.016725	1
365.718679	1
365.951350	1
367.038319	4
368.040745	1
368.961575	3
369.033890	1
369.177245	2
369.179925	2
369.186626	4
369.190647	2
369.197348	181
369.208070	4
369.216112	1
369.220133	1
369.322024	1
370.193835	3
370.200564	19
371.174096	2
371.945390	1
374.906567	3
376.900374	1
376.939085	2
377.028973	1
377.033122	1
377.040038	1
377.048337	4
377.055253	8
377.059403	6
377.066320	415
377.077387	10
377.084304	2
377.089838	3
377.193619	2
378.069856	37
379.070432	4
382.913039	1
382.962591	1
383.022066	2
383.756735	1
384.802804	1
384.891240	1
384.896946	1
384.901226	1
384.916920	3
384.922628	5
384.935469	259
384.946884	6
384.959727	2
384.982560	1
385.061064	1
385.481112	1
385.937657	11
386.939450	3
387.021430	1
387.515302	1
390.892417	1
392.007407	1
393.040303	3
393.219969	1
394.056594	1
394.889962	3
395.162898	2
400.514936	1
400.908961	2
402.010762	1
402.897004	2
403.031492	8
404.034633	1
405.172465	1
408.214186	1
411.940324	1
413.554690	1
415.202540	9
415.760953	1
416.206569	1
417.011452	1
417.178826	2
418.869461	1
421.092327	3
422.954699	1
423.071404	1
424.751710	1
425.968267	26
426.926614	3
426.971616	2
427.156698	1
428.960441	2
429.081321	3
430.083899	1
431.331915	1
435.024720	5
436.949323	2
437.021809	1
437.170288	2
437.185831	121
437.199648	3
438.116459	1
438.189235	17
442.893709	3
443.964555	2
443.978694	118
443.992834	3
444.890329	1
444.938200	4
444.982533	8
445.012683	1
445.025099	2
445.030420	1
445.039289	8
445.044610	4
445.053479	381
445.067671	8
445.078314	2
445.083637	2
445.216720	1
445.984443	2
446.057408	38
447.059381	4
447.950073	3
448.233219	1
448.971014	1
451.010726	1
452.871301	1
452.880405	1
452.885868	1
452.898614	2
452.907719	3
452.922288	155
452.936857	3
452.953248	1
453.925565	8
454.494348	1
454.926679	3
455.009185	1
458.878998	1
461.027821	5
461.209286	2
461.990621	2
462.045032	1
462.877407	1
463.150343	4
463.184242	5
464.155697	1
465.219301	1
465.786659	1
465.946238	1
465.961440	46
466.703451	1
466.964527	3
467.798767	1
467.965118	1
468.896025	2
469.931703	5
469.943251	1
470.885861	1
471.021027	5
471.051931	1
471.943638	1
471.959135	3
471.964946	3
471.974632	167
471.990130	4
472.007567	1
472.933079	4
472.977774	15
473.586648	1
473.822342	1
473.978269	3
475.322429	2
483.191572	13
483.971112	2
484.194472	1
487.944090	11
489.080332	2
489.984809	14
490.988387	2
491.060336	4
491.980619	1
493.035839	1
493.938869	3
493.955461	162
493.974129	3
494.958787	15
495.143998	2
495.960999	2
496.949513	1
497.066742	4
497.140031	1
498.073266	1
503.013465	4
504.935108	2
505.010145	1
505.138817	1
505.155977	3
505.173138	144
505.190300	2
505.201027	1
505.209608	1
505.370552	1
505.954886	1
506.176425	18
507.180545	1
507.312207	1
509.993235	1
510.882180	2
511.955049	1
511.965992	11
512.925938	1
513.007153	2
513.013739	1
513.022520	5
513.042279	304
513.059844	6
513.070822	2
513.079604	1
513.244324	1
514.044888	33
515.046022	4
515.912791	1
515.937146	34
516.941595	2
517.982387	1
518.724866	1
519.312398	4
520.701409	1
520.878796	1
520.892272	2
520.899010	2
520.910241	130
520.928211	3
520.968647	1
520.975387	1
521.328283	3
521.913486	10
521.956290	2
522.915114	4
522.996453	1
526.866049	1
529.015763	3
529.197416	10
530.030999	1
530.864242	1
531.005233	1
531.137030	4
533.948771	41
534.272933	1
534.952532	3
535.308028	5
535.954439	1
536.313280	1
536.883946	2
537.304895	1
537.895999	1
537.983217	1
538.877829	1
539.007839	6
539.040940	2
539.950044	1
539.961897	20
540.916113	1
540.966030	3
541.149117	1
543.307965	5
543.937766	1
544.977051	1
547.475776	1
551.177967	26
551.958679	1
552.181694	3
552.787702	1
552.986650	1
554.984527	2
555.931804	4
557.067765	3
557.184535	1
558.070195	1
559.047861	11
559.965506	1
560.050634	1
561.923334	2
561.943468	132
561.963602	2
562.946475	11
563.302456	15
563.947109	2
564.306573	2
564.937729	2
565.056982	3
565.293062	10
565.920787	2
566.297416	1
567.332531	1
571.001074	4
572.923832	2
573.136343	2
573.159674	126
573.180415	2
574.164281	17
575.166318	2
577.920394	1
578.869128	3
579.954752	4
580.786841	1
580.958764	1
580.987867	2
580.995804	1
581.009033	5
581.030201	256
581.048724	5
581.064602	2
581.075187	2
581.273715	1
582.031703	22
583.033138	6
583.115599	1
583.925176	28
584.039825	1
584.928831	3
585.927036	1
585.969911	1
586.984218	1
587.904195	1
588.308376	1
588.829036	1
588.839834	1
588.874930	2
588.896529	112
588.918130	2
589.315248	3
589.902206	7
590.899606	2
590.983741	1
593.882419	1
597.003608	3
597.182783	7
598.019080	1
598.187655	2
598.851597	1
598.992827	1
599.125795	4
599.159044	1
600.080029	28
601.083874	3
601.936752	18
602.084657	1
602.939667	2
603.931070	1
604.871516	1
605.907137	2
606.993448	4
607.030180	2
607.949555	4
609.089644	1
611.296647	4
611.931057	1
612.434714	1
615.100675	1
617.186898	1
619.167303	23
619.974384	1
620.169836	1
622.062021	22
623.065719	4
623.918712	2
624.068902	1
625.056795	2
625.174909	1
626.047036	1
627.036665	7
629.786699	1
629.912130	1
629.930052	19
630.934895	1
631.120575	1
631.936141	1
632.924730	1
633.042073	3
633.279866	11
633.936750	1
634.283683	1
635.320143	2
638.987664	2
640.911507	2
641.123078	1
641.147614	82
641.172152	1
641.930459	1
642.151758	10
642.994967	1
643.152098	3
644.043597	11
646.086509	9
646.856661	1
647.089842	2
647.942799	13
648.947338	2
648.991066	4
649.000437	2
649.016056	202
649.041047	4
650.019961	17
651.023060	4
651.101524	1
651.358988	1
651.912110	24
652.916441	2
653.919935	1
654.973246	1
656.829829	1
656.858453	1
656.883899	60
657.303964	5
657.447259	1
657.886993	4
658.308020	1
658.889191	2
658.975474	1
662.054368	1
662.866154	1
664.989628	4
665.148409	1
665.171097	16
666.008106	1
666.027590	4
666.176997	2
666.983361	1
667.113557	4
668.068405	17
669.071078	2
669.925290	2
671.921533	2
672.079511	1
672.860345	1
673.896965	1
674.982364	4
675.015497	2
675.937561	9
676.941370	1
679.286731	3
679.912657	1
680.287957	1
687.154692	24
687.934680	1
688.006273	1
688.156315	2
689.160131	1
690.029142	1
690.049690	20
691.026764	1
691.054220	2
691.768666	1
691.906186	1
692.057506	1
693.042296	1
693.901396	1
695.021654	15
696.026657	3
697.917793	13
698.922104	2
699.925086	1
700.912699	1
701.031914	2
701.266927	11
702.271447	1
703.309840	2
704.311691	1
706.974842	3
708.900106	1
708.967864	1
709.106978	1
709.135519	56
710.139122	7
711.141274	2
712.034256	7
713.036827	1
713.115973	1
714.073961	10
715.080844	1
715.930589	6
716.567986	1
716.930523	1
716.974046	2
716.984927	1
717.003063	130
717.032082	3
718.008880	13
719.005888	2
719.093316	1
719.899132	13
720.903737	3
720.940308	1
722.955991	1
724.873199	41
725.290030	5
725.877154	5
726.298549	1
726.879492	2
726.960954	2
728.236503	1
732.978596	2
733.158590	18
733.252364	1
733.988171	1
734.014470	5
734.161021	2
735.018657	1
735.101491	3
735.135382	1
735.161743	1
736.055088	8
737.911047	1
737.998158	1
739.907104	1
740.847211	2
741.880728	2
742.969971	3
743.004407	1
743.923591	8
744.925140	2
746.533372	1
747.269969	2
747.652194	1
748.274418	1
748.839344	1
749.277020	1
751.408899	1
755.119498	1
755.143021	19
755.998423	1
756.143750	3
758.036822	8
759.039360	1
761.149587	1
763.009733	17
764.014176	3
765.012608	1
765.904862	6
766.911017	1
767.095627	1
769.021944	2
769.255686	9
770.256336	3
771.295362	4
774.193052	2
774.962821	1
777.123474	31
777.184872	1
777.860729	1
778.127218	5
780.021173	9
781.022290	2
781.055281	1
782.062522	15
783.067573	2
784.066266	1
784.992071	64
785.025314	1
785.994450	7
786.998749	3
787.887970	8
788.891716	1
790.606691	1
792.862669	22
793.094705	1
793.115805	1
793.276187	5
793.863261	2
793.909748	1
793.990054	1
794.277562	1
794.865749	1
794.950434	1
795.217280	1
796.171400	1
800.967855	2
801.147761	19
802.000998	2
802.151206	4
803.087737	3
803.147937	1
803.591047	1
803.750312	1
804.043138	9
805.047714	2
807.890520	1
808.493896	1
809.872471	3
810.434478	1
810.957800	2
810.992707	1
811.909801	11
812.916023	2
813.915344	1
815.052773	1
815.259435	2
815.549774	1
818.001825	1
818.156551	2
818.988400	2
820.012250	1
820.203049	1
822.921380	2
823.131042	17
823.979428	1
824.135853	3
826.025400	5
827.035517	1
829.016220	1
829.250773	1
830.009240	2
830.999520	12
831.502120	1
832.005176	2
832.436082	1
833.003573	1
833.044455	1
833.894569	5
836.891674	1
837.001463	2
837.243990	9
838.059288	1
838.247250	2
839.100750	1
839.284469	4
840.139555	2
840.286798	1
842.181399	3
845.111920	19
846.110760	5
847.116029	2
848.006441	8
849.010418	1
849.094553	1
850.048955	11
851.028418	1
851.047181	1
852.978312	31
853.981704	5
854.628014	1
854.982144	1
855.875529	3
856.590298	1
856.912473	1
857.410307	1
857.429281	1
860.845284	10
861.055285	1
861.083927	1
861.265363	4
861.896057	1
862.120790	1
862.269066	2
863.082873	1
864.166543	1
868.599075	1
869.136174	13
869.988812	1
870.139123	2
871.075804	2
871.143809	2
872.033459	9
873.031682	2
874.930588	3
877.861834	2
878.653532	1
878.948849	1
878.978389	1
879.899796	9
880.901680	2
881.405736	1
881.905277	1
883.247729	1
886.146145	1
887.233609	1
888.003025	2
888.183033	1
889.184074	1
891.115847	9
891.965810	1
892.116817	2
894.012707	3
896.913566	2
898.987713	8
899.986677	2
901.882136	5
905.232925	4
906.237164	1
907.268891	5
908.126562	2
908.276521	1
909.130443	1
910.161928	1
910.940590	1
913.100102	13
914.101801	2
914.958724	1
915.094688	1
915.110378	1
915.994909	4
918.035778	9
918.892978	2
919.040348	2
920.130933	1
920.922426	1
920.964668	11
921.974050	2
922.974497	1
923.865152	6
924.868679	2
925.517328	1
925.873843	1
928.835004	4
929.252306	4
930.259266	1
931.192698	1
931.966257	1
932.149044	1
936.135287	1
937.120938	13
937.983303	1
938.124432	3
940.021904	8
941.024609	2
941.373752	1
947.890160	1
951.234735	1
956.175948	3
957.126291	1
959.104181	5
962.000786	2
962.959829	1
965.981695	1
966.969422	5
969.867518	1
973.214458	3
974.224791	2
975.225190	1
975.259714	5
976.117649	3
976.261709	2
977.969802	1
978.154729	2
981.085877	7
982.091051	2
983.977734	5
984.800489	1
984.981516	1
986.021933	6
986.068732	1
987.028845	1
988.953285	7
989.876426	1
989.958807	1
991.850514	3
991.962654	1
996.826510	2
997.236916	3
998.249144	1
1000.134795	1
1003.892113	1
1005.113136	6
1005.896242	1
1005.962547	2
1005.980631	2
1006.107234	2
1008.003113	4
1009.013614	1
1015.872884	1
1020.076238	1
1024.163295	3
1027.092348	2
1028.088099	1
1029.984021	1
1033.339629	1
1034.960677	3
1037.847764	1
1041.210168	3
1042.207455	1
1043.212541	1
1043.244371	4
1044.104340	3
1044.250959	1
1045.718850	1
1046.140642	2
1047.599709	1
1049.074669	5
1050.076850	1
1051.975931	4
1052.975818	1
1054.015920	4
1055.018718	2
1056.944210	4
1057.944690	1
1059.832569	3
1063.977506	1
1064.810723	1
1068.127019	1
1073.097379	5
1074.100935	1
1075.992233	4
1076.999853	1
1091.181517	1
1092.149179	2
1094.129393	1
1095.080440	1
1097.982274	1
1102.948160	1
1103.162725	1
1104.215692	1
1104.992528	1
1105.867448	1
1105.971674	4
1106.499981	1
1106.966040	1
1108.505426	1
1109.196056	2
1111.236832	3
1112.091153	3
1114.132901	3
1115.138296	2
1117.061468	5
1117.979013	1
1118.070830	1
1119.959108	2
1120.965310	1
1121.994170	4
1124.925294	2
1125.838273	1
1127.832138	2
1129.193000	1
1130.477331	1
1132.800416	1
1133.218322	2
1136.099510	1
1136.121215	1
1137.113058	1
1140.096392	1
1141.086164	1
1143.975498	2
1145.446255	1
1149.374805	1
1151.852423	1
1156.059034	1
1160.139403	2
1164.196383	1
1165.984589	3
1166.993207	2
1169.301382	1
1177.014440	1
1177.182298	1
1179.230005	2
1180.079687	1
1182.127282	1
1185.042957	1
1187.946226	2
1189.983316	2
1195.813557	1
1204.106563	1
1205.323164	1
1205.963805	2
1207.960179	1
1209.071418	1
1211.967827	1
1215.827234	1
1217.350481	1
1219.037403	1
1224.046439	1
1228.126343	1
1246.021639	1
1247.210788	1
1248.068363	1
1250.103432	1
1250.153538	1
1253.039671	1
1257.948013	1
1257.981731	1
1265.985801	6
1266.990613	2
1267.988091	1
1296.279334	1
1298.009308	1
1313.142583	1
1331.208371	1
1338.765002	1
1365.983712	6
1366.976232	2
1414.410707	1
1425.856264	1
1426.161479	1
1432.388831	1
1443.587322	1
1446.035990	1
1446.794678	1
1465.978848	3
1480.174583	1
1487.788907	1
1493.486476	1
