Mass spectrum: L-Glutathione (reduced form); LC-ESI-ITFT; MS2; m/z:613.16; NEG
Name: Glutathione
Name: 5-L-Glutamyl-L-cysteinylglycine
Name: N-(N-gamma-L-Glutamyl-L-cysteinyl)glycine
Name: gamma-L-Glutamyl-L-cysteinyl-glycine
Name: GSH
Name: Reduced glutathione
Name: L-Glutathione (reduced form)
Class: Natural Product
Formula: C10H17N3O6S
Exact mass: 307.08381
SMILES: OC(=O)CNC(=O)C(CS)NC(=O)CCC(N)C(O)=O
InChI: InChI=1S/C10H17N3O6S/c11-5(10(18)19)1-2-7(14)13-6(4-20)9(17)12-3-8(15)16/h5-6,20H,1-4,11H2,(H,12,17)(H,13,14)(H,15,16)(H,18,19)/t5-,6-/m0/s1
Instrument: LTQ Orbitrap XL, Thermo Scientfic
Instrument type: LC-ESI-ITFT
Ms type: MS2
Ion mode: NEGATIVE
Collision energy: 35eV
Ionization: ESI
Column name: TOSOH TSKgel ODS-100V  5um Part no. 21456
Retention time: 8.896458 min
Base peak: 306.174988
Precursor m/z: 613.16
m/z	relative intensity
179.229309	8
236.253830	6
254.109787	32
272.207733	34
288.189087	24
306.174988	999
541.442749	7
