Mass spectrum: L-(-)-Malic acid; LC-ESI-ITFT; MS2; m/z:133.01; NEG
Name: (S)-Malate
Name: L-Malate
Name: L-Apple acid
Name: L-Malic acid
Name: L-2-Hydroxybutanedioic acid
Name: L-(-)-Malic acid
Class: Natural Product
Formula: C4H6O5
Exact mass: 134.02152
SMILES: OC(=O)CC(O)C(O)=O
InChI: InChI=1S/C4H6O5/c5-2(4(8)9)1-3(6)7/h2,5H,1H2,(H,6,7)(H,8,9)/t2-/m0/s1
Instrument: LTQ Orbitrap XL, Thermo Scientfic
Instrument type: LC-ESI-ITFT
Ms type: MS2
Ion mode: NEGATIVE
Collision energy: 35eV
Ionization: ESI
Column name: TOSOH TSKgel ODS-100V  5um Part no. 21456
Retention time: 5.491342 min
Base peak: 114.940552
Precursor m/z: 133.01
m/z	relative intensity
70.893372	20
86.845268	22
114.940552	999
