Mass spectrum: L-Glutamine; LC-ESI-ITFT; MS2; m/z:148.08; POS
Name: L-Glutamine
Name: L-2-Aminoglutaramic acid
Class: Natural Product
Formula: C5H10N2O3
Exact mass: 146.06914
SMILES: NC(=O)CC[C@H](N)C(O)=O
InChI: InChI=1S/C5H10N2O3/c6-3(5(9)10)1-2-4(7)8/h3H,1-2,6H2,(H2,7,8)(H,9,10)/t3-/m0/s1
Instrument: LTQ Orbitrap XL, Thermo Scientfic
Instrument type: LC-ESI-ITFT
Ms type: MS2
Ion mode: POSITIVE
Collision energy: 35eV
Ionization: ESI
Column name: TOSOH TSKgel ODS-100V  5um Part no. 21456
Retention time: 4.693592 min
Base peak: 130.974228
Precursor m/z: 148.08
m/z	relative intensity
84.193085	1
84.982437	5
101.077713	3
102.129822	16
120.029541	1
130.033463	82
130.974228	999
