Mass spectrum: S-Adenosyl-L-homocysteine; LC-ESI-ITFT; MS; POS
Name: S-Adenosyl-L-homocysteine
Name: S-Adenosylhomocysteine
Class: Natural Product
Formula: C14H20N6O5S
Exact mass: 384.12159
SMILES: OC(=O)[C@@H](N)CCSC[C@@H](O1)[C@@H](O)[C@@H](O)[C@@H]1n(c3)c(n2)c(n3)c(N)nc2
InChI: InChI=1S/C14H20N6O5S/c15-6(14(23)24)1-2-26-3-7-9(21)10(22)13(25-7)20-5-19-8-11(16)17-4-18-12(8)20/h4-7,9-10,13,21-22H,1-3,15H2,(H,23,24)(H2,16,17,18)/t6-,7+,9+,10+,13+/m0/s1
Instrument: LTQ Orbitrap XL, Thermo Scientfic
Instrument type: LC-ESI-ITFT
Ms type: MS
Ion mode: POSITIVE
Collision energy: 35eV
Ionization: ESI
Column name: TOSOH TSKgel ODS-100V  5um Part no. 21456
Retention time: 5.487977 min
Base peak: 193.068115
m/z	relative intensity
112.029773	1
112.047469	1
112.048365	1
112.049038	1
112.050382	123
112.051502	2
112.052174	2
112.070996	1
113.053577	2
123.055085	14
134.022846	1
134.026655	4
136.057619	1
136.061516	21
137.045596	1
158.002552	1
170.054391	1
170.057323	1
170.059836	1
170.061512	1
170.062768	1
170.065282	73
170.069052	1
170.564040	1
170.566985	9
171.063305	2
171.149125	4
174.127584	3
182.985731	1
184.555010	2
187.127027	1
192.291904	1
192.804140	1
192.928090	1
192.980235	1
193.016192	1
193.021764	5
193.026323	1
193.045067	1
193.047600	1
193.048613	1
193.050133	1
193.052160	1
193.054693	2
193.057226	3
193.059253	3
193.061280	3
193.063306	10
193.064826	10
193.067867	999
193.072427	12
193.074961	3
193.076988	4
193.081042	3
193.083069	2
193.085096	1
193.087123	1
193.088137	1
193.090164	1
193.091684	1
193.093205	1
193.114999	5
193.156065	1
193.208302	1
193.332642	1
193.522174	1
193.564386	2
193.565912	2
193.568964	190
193.571508	3
193.573034	2
193.576086	1
193.577612	1
193.615772	1
193.849045	1
194.065888	40
194.068952	10
194.116452	5
194.566778	3
195.119536	1
224.127985	1
242.989778	1
243.717587	1
243.893756	1
243.967875	1
244.026907	3
244.060032	1
244.067234	1
244.070115	1
244.073716	1
244.077317	2
244.079478	2
244.081639	1
244.083079	2
244.085960	6
244.088121	6
244.092443	668
244.098926	7
244.102528	2
244.105410	2
244.109011	1
244.111173	2
244.114054	1
244.116936	1
244.159447	3
244.292095	1
244.468886	1
245.089533	3
245.096056	65
245.101854	1
245.203357	1
246.096391	4
250.073680	1
332.561263	1
333.568164	1
384.997253	2
385.084307	1
385.090016	1
385.097153	1
385.101435	1
385.105718	1
385.108573	1
385.115710	4
385.119993	4
385.128558	526
385.135696	5
385.139979	5
385.147118	1
385.152828	1
385.161395	1
385.164250	1
385.169962	1
385.259930	2
386.118356	1
386.131254	81
386.138420	1
386.142720	1
387.123484	17
387.133555	3
388.125321	1
391.282894	4
392.284786	1
414.233238	1
487.158052	1
487.164145	1
487.178362	120
487.194611	1
488.181230	19
489.181068	1
560.077597	8
561.080393	1
574.092695	1
628.212490	15
629.215966	2
634.366158	1
664.115903	2
666.131207	1
769.248041	4
770.252475	1
803.165815	1
944.202510	3
945.206182	1
1328.325009	1
