Mass spectrum: L-(+)-Lysine; LC-ESI-ITFT; MS; POS
Name: L-Lysine
Name: Lysine acid
Name: 2,6-Diaminohexanoic acid
Name: L-(+)-Lysine
Class: Natural Product
Formula: C6H14N2O2
Exact mass: 146.10553
SMILES: NCCCC[C@H](N)C(O)=O
InChI: InChI=1S/C6H14N2O2/c7-4-2-1-3-5(8)6(9)10/h5H,1-4,7-8H2,(H,9,10)/t5-/m0/s1
Instrument: LTQ Orbitrap XL, Thermo Scientfic
Instrument type: LC-ESI-ITFT
Ms type: MS
Ion mode: POSITIVE
Collision energy: 35eV
Ionization: ESI
Column name: TOSOH TSKgel ODS-100V  5um Part no. 21456
Retention time: 3.948380 min
Base peak: 147.112564
m/z	relative intensity
100.111848	1
102.033553	2
105.547078	1
110.019964	1
110.069461	1
110.071206	41
110.072515	1
110.073169	1
111.020036	1
111.074631	1
113.707811	1
113.939019	1
113.996932	1
114.020155	1
114.039245	4
114.042695	1
114.048676	1
114.049366	1
114.050057	1
114.051437	1
114.053508	2
114.054658	2
114.055118	1
114.056729	5
114.057419	3
114.058569	14
114.059260	14
114.060410	859
114.061791	13
114.062481	13
114.064092	5
114.065472	2
114.066623	1
114.067313	2
114.068694	1
114.069154	1
114.069844	1
114.070535	1
114.071225	1
114.074907	1
114.077669	1
114.079050	1
114.081581	4
114.100917	1
114.124172	2
114.181995	1
114.414652	1
114.559034	3
114.559961	1
114.561814	77
114.563203	1
114.563898	1
115.061868	1
115.063034	1
129.101985	3
130.083960	1
130.086202	89
130.087884	1
130.088724	1
131.089371	3
137.132305	1
141.958490	5
146.596085	1
146.934947	1
146.964557	1
147.019426	2
147.053439	1
147.071630	1
147.081400	4
147.086791	1
147.089824	1
147.090835	1
147.091845	1
147.096226	1
147.097237	1
147.099259	1
147.100270	1
147.102292	2
147.103977	2
147.104988	2
147.107010	5
147.108021	3
147.109706	15
147.112402	999
147.114761	15
147.115436	14
147.117795	5
147.119817	2
147.120828	1
147.121502	1
147.122514	2
147.124536	1
147.125210	1
147.126559	1
147.127233	1
147.128581	1
147.129255	1
147.131278	1
147.133975	1
147.138020	1
147.143414	4
147.172075	1
147.205804	2
147.260808	1
147.290516	1
147.631452	1
148.109664	5
148.113068	1
148.115792	60
148.117835	1
148.118857	1
149.022561	2
149.041805	1
149.116412	2
152.081698	28
153.084914	1
155.142526	1
156.070113	1
156.071586	1
156.073428	2
156.074533	2
156.076374	127
156.078584	2
156.079689	2
156.082267	1
156.110263	1
157.079647	5
158.002552	7
158.960868	1
163.132278	2
167.012118	1
171.137707	1
171.149125	22
172.152025	1
174.127150	8
179.062747	1
180.073108	1
180.076760	70
180.079498	1
180.080868	1
181.079157	1
182.091804	5
182.984796	6
187.125577	3
190.992038	1
198.078436	1
198.083175	1
198.087387	116
198.090547	2
198.092127	1
199.090140	5
199.179842	1
210.086829	4
223.063237	1
227.053978	2
227.093403	1
227.096635	1
227.098574	1
227.102453	2
227.104392	1
227.108271	6
227.113443	482
227.117322	7
227.119261	5
227.121201	1
227.123787	2
227.127020	1
227.132192	1
227.172931	2
227.292626	1
228.110364	3
228.116872	41
229.117139	1
229.119104	1
279.157671	1
282.220291	1
293.216979	5
293.220772	1
294.221033	1
301.114593	3
301.118541	1
373.217658	3
391.282894	17
392.284786	2
453.217244	3
537.387252	4
538.388690	1
