Mass spectrum: alpha-D-Glucose 6-phosphate; LC-ESI-ITFT; MS2; m/z:171.15; POS
Name: alpha-D-Glucose 6-phosphate
Class: Natural Product
Formula: C6H13O9P
Exact mass: 260.02972
SMILES: O[C@@H](O1)[C@H](O)[C@@H](O)[C@H](O)[C@H]1COP(O)(O)=O
InChI: InChI=1S/C6H13O9P/c7-3-2(1-14-16(11,12)13)15-6(10)5(9)4(3)8/h2-10H,1H2,(H2,11,12,13)/t2-,3-,4+,5-,6+/m1/s1
Instrument: LTQ Orbitrap XL, Thermo Scientfic
Instrument type: LC-ESI-ITFT
Ms type: MS2
Ion mode: POSITIVE
Collision energy: 35eV
Ionization: ESI
Column name: TOSOH TSKgel ODS-100V  5um Part no. 21456
Retention time: 6.775172 min
Base peak: 88.947540
Precursor m/z: 171.15
m/z	relative intensity
56.985764	15
71.900116	178
72.968918	21
83.012703	5
85.084686	1
88.947540	999
92.043472	3
92.872452	2
99.069702	1
100.001816	1
100.957855	12
105.059265	1
109.127533	5
115.114456	1
124.898346	3
126.115585	1
126.984436	1
129.307129	6
130.082031	8
135.124878	2
142.113434	1
153.071274	4
154.110718	1
171.093277	1
