Mass spectrum: Guanosine; LC-ESI-ITFT; MS; NEG
Name: Guanosine
Class: Natural Product
Formula: C10H13N5O5
Exact mass: 283.09167
SMILES: OC[C@@H](O1)[C@@H](O)[C@@H](O)[C@@H]1n(c3)c(N=2)c(n3)C(=O)NC(N)2
InChI: InChI=1S/C10H13N5O5/c11-10-13-7-4(8(19)14-10)12-2-15(7)9-6(18)5(17)3(1-16)20-9/h2-3,5-6,9,16-18H,1H2,(H3,11,13,14,19)/t3-,5-,6-,9-/m1/s1
Instrument: LTQ Orbitrap XL, Thermo Scientfic
Instrument type: LC-ESI-ITFT
Ms type: MS
Ion mode: NEGATIVE
Collision energy: 35eV
Ionization: ESI
Column name: TOSOH TSKgel ODS-100V  5um Part no. 21456
Retention time: 5.501550 min
Base peak: 282.084198
m/z	relative intensity
107.036402	5
107.050421	1
108.020604	5
108.021664	1
109.029627	10
112.985735	1
121.029416	3
122.035590	1
122.037628	26
122.039666	1
123.040697	1
123.045080	3
126.030823	13
128.035194	3
133.011108	1
133.014007	1
133.015746	36
133.018064	1
134.019011	2
134.037186	4
134.047155	22
134.049794	1
134.060937	1
135.031298	7
135.042860	2
135.045232	50
135.046715	2
135.047604	2
136.048501	3
138.980092	1
139.007027	2
140.046398	3
143.046144	4
149.946027	1
150.009877	2
150.025846	1
150.029318	1
150.031053	1
150.032095	1
150.033484	1
150.034873	1
150.036262	3
150.039039	12
150.041817	345
150.043553	12
150.044595	11
150.047720	2
150.050151	1
150.052235	1
150.055360	6
150.057791	1
150.062653	1
150.073768	2
150.138047	1
150.979901	2
151.025826	1
151.038801	4
151.045114	16
151.048270	1
152.071262	2
153.066748	1
160.006953	1
164.057635	1
166.975061	1
179.035118	12
191.019518	1
192.052697	1
192.990400	1
195.918118	1
196.013483	2
196.037336	1
196.042522	1
196.045115	1
196.048226	1
196.050301	1
196.052894	3
196.057043	10
196.061192	346
196.063786	11
196.065342	10
196.070010	2
196.071566	1
196.073641	1
196.076234	1
196.079347	1
196.085053	1
196.108918	2
196.204942	1
197.058229	1
197.059797	1
197.064500	26
197.068682	1
198.064996	1
198.067630	1
210.087874	1
211.000984	5
218.043122	4
228.098657	1
232.037829	3
234.034630	1
242.066650	1
254.077796	1
259.056766	2
264.048921	1
267.066619	1
267.068268	1
267.073216	37
267.077339	1
267.079813	1
268.076282	3
272.088771	12
273.092113	1
275.017262	1
281.697315	1
281.836714	2
281.951171	1
282.002162	4
282.012004	1
282.019162	1
282.026321	1
282.029900	1
282.042428	2
282.047798	1
282.052273	1
282.056747	2
282.059432	1
282.062117	3
282.065697	1
282.070172	7
282.076438	23
282.084493	999
282.088969	24
282.091654	24
282.098815	5
282.102396	2
282.105082	3
282.110453	2
282.115824	2
282.119405	1
282.125672	2
282.131940	1
282.137312	1
282.140893	1
282.148056	1
282.166860	4
282.331703	2
283.077984	1
283.081584	7
283.086983	108
283.091482	3
283.095082	3
284.087589	5
284.090303	2
294.028071	1
294.037596	1
301.091163	2
304.060343	4
306.069660	1
306.076742	36
306.084835	1
307.078745	3
308.071374	1
310.053591	1
318.061114	7
319.064437	1
320.057369	2
328.035671	1
328.044651	46
328.050264	2
328.053631	1
328.089557	8
329.048253	4
329.092237	1
338.048474	2
345.079837	2
345.718976	1
345.942547	1
345.998474	1
346.010634	1
346.017930	1
346.021578	1
346.025226	1
346.036171	3
346.044684	8
346.055630	394
346.065360	9
346.075091	2
346.078740	1
346.083606	1
346.090904	1
346.093337	1
346.098203	1
346.103069	1
346.111584	1
346.166335	1
346.391558	1
347.052669	6
347.058776	38
347.068549	1
347.110086	19
347.116196	1
348.058929	3
348.063837	1
348.112916	2
349.062180	1
350.499571	1
364.043514	1
378.896017	2
380.051009	2
380.060808	1
383.113958	1
390.017629	1
391.114262	2
393.106371	1
393.110789	1
393.118152	3
393.129933	136
393.137296	3
393.141714	3
393.154969	1
394.133268	25
394.140660	1
395.137481	1
415.111254	5
416.114952	1
417.088498	1
422.097954	1
426.021226	1
431.076263	1
433.117709	1
433.133036	33
433.141552	1
433.146661	1
434.136184	4
446.041165	2
447.050225	3
455.056632	1
464.142233	4
465.145133	1
477.138402	1
478.970995	1
479.091826	1
479.105695	1
479.121545	1
479.137397	4
479.153249	263
479.163157	5
479.169102	5
479.186938	1
479.200811	1
479.335608	1
480.141608	1
480.155523	51
480.165462	1
480.173414	1
481.158950	4
482.101522	2
497.104161	2
498.159111	1
501.134291	2
503.111255	1
504.939125	9
505.943866	1
513.952153	1
522.951000	2
525.113148	5
526.117166	1
529.947752	3
532.065359	1
533.073114	1
543.104385	1
543.109167	1
543.123515	61
543.145038	1
544.126893	10
545.130649	1
547.957442	1
550.164515	7
551.170363	1
564.942527	1
565.104926	1
565.112540	1
565.135383	1
565.155689	3
565.160766	3
565.175997	207
565.188689	4
565.196305	3
565.219154	1
566.180039	38
566.200402	1
567.181655	4
584.183567	1
587.037673	1
587.158616	1
601.153194	3
603.152013	1
611.099371	1
611.125059	2
611.145040	156
611.159312	3
611.167876	2
611.179294	4
612.148174	26
612.185374	1
613.139437	7
614.147488	1
615.189736	1
628.171094	1
629.124026	1
629.147877	67
629.162785	1
629.171729	1
630.150848	10
630.174758	1
630.183724	1
630.201657	44
630.216603	1
630.228559	1
631.153224	1
631.207151	8
632.206042	1
633.126035	1
643.111732	1
644.117407	1
651.129464	1
663.143217	1
665.067075	1
676.003649	1
676.222866	10
677.223981	3
693.117809	3
694.125594	1
702.007484	3
703.013596	1
711.022718	1
716.227116	4
717.231300	1
720.136056	1
727.016164	1
730.140879	1
735.232957	1
747.234887	2
748.239267	1
762.185782	1
762.209636	2
762.245418	138
762.265299	2
762.277227	2
763.248352	34
764.249275	4
765.252168	1
780.197825	4
781.207533	1
781.252913	2
788.029687	1
826.217924	3
827.223900	1
827.273348	2
828.281253	1
833.257618	1
848.272053	9
849.271826	2
850.278052	1
867.275000	1
894.234561	3
895.245853	1
912.240175	17
913.245673	5
914.247611	1
958.212109	1
977.270591	1
999.316190	2
1000.325609	1
1045.277708	1
1045.296863	1
1045.335174	2
1046.344789	1
1131.353465	2
1132.367866	1
1133.369215	1
1165.976582	1
1195.328829	2
1196.336681	1
1196.391407	1
1197.384947	1
1265.976780	1
1365.983177	1
