Mass spectrum: L-Aspartic acid; LC-ESI-ITFT; MS2; m/z:133.06; POS
Name: L-Aspartate
Name: L-Aspartic acid
Name: 2-Aminosuccinic acid
Class: Natural Product
Formula: C4H7NO4
Exact mass: 133.03751
SMILES: OC(=O)CC(N)C(O)=O
InChI: InChI=1S/C4H7NO4/c5-2(4(8)9)1-3(6)7/h2H,1,5H2,(H,6,7)(H,8,9)/t2-/m0/s1
Instrument: LTQ Orbitrap XL, Thermo Scientfic
Instrument type: LC-ESI-ITFT
Ms type: MS2
Ion mode: POSITIVE
Collision energy: 35eV
Ionization: ESI
Column name: TOSOH TSKgel ODS-100V  5um Part no. 21456
Retention time: 4.713770 min
Base peak: 86.959152
Precursor m/z: 133.06
m/z	relative intensity
67.953934	4
69.083160	2
70.008209	1
73.999908	6
74.983253	2
86.002350	131
86.959152	999
88.002235	69
90.158318	1
95.866074	1
97.964157	3
104.900665	1
114.416580	11
115.080551	11
115.956146	74
118.119843	1
