Mass spectrum: NAD+; LC-ESI-ITFT; MS; POS
Name: NAD+
Name: NAD
Name: Nicotinamide adenine dinucleotide
Name: DPN
Name: Diphosphopyridine nucleotide
Name: Nadide
Class: Natural Product
Formula: [C21H28N7O14P2]+
Exact mass: 664.11695
SMILES: NC(=O)c(c5)c[n+1](cc5)C(O1)C(O)C(O)C(COP(O)(=O)OP(O)(=O)OCC(O2)C(O)C(O)C2n(c4)c(n3)c(n4)c(N)nc3)1
InChI: InChI=1S/C21H27N7O14P2/c22-17-12-19(25-7-24-17)28(8-26-12)21-16(32)14(30)11(41-21)6-39-44(36,37)42-43(34,35)38-5-10-13(29)15(31)20(40-10)27-3-1-2-9(4-27)18(23)33/h1-4,7-8,10-11,13-16,20-21,29-32H,5-6H2,(H5-,22,23,24,25,33,34,35,36,37)/p+1/t10-,11-,13-,14-,15-,16-,20-,21-/m1/s1
Instrument: LTQ Orbitrap XL, Thermo Scientfic
Instrument type: LC-ESI-ITFT
Ms type: MS
Ion mode: POSITIVE
Collision energy: 35eV
Ionization: ESI
Column name: TOSOH TSKgel ODS-100V  5um Part no. 21456
Retention time: 8.869670 min
Base peak: 198.076111
m/z	relative intensity
100.111848	2
101.095891	1
102.033748	2
107.070205	10
110.019964	1
112.050382	31
123.031625	1
123.044257	5
123.051218	1
123.053280	2
123.055343	109
123.056890	2
123.057406	2
123.059726	1
123.079067	1
123.080099	1
124.058494	5
124.096609	1
128.018019	1
129.052126	5
133.079206	1
135.043820	2
136.061516	4
137.132305	3
139.038934	5
141.958490	8
149.023248	7
152.070717	30
153.073824	1
155.142891	3
158.002552	1
158.096379	1
162.076016	2
163.039045	1
163.132671	6
167.033727	1
170.096285	3
171.138130	2
171.149125	38
171.152086	1
172.152452	2
174.127584	18
175.130986	1
179.063653	3
181.049704	27
182.052824	1
182.985263	10
186.185345	1
186.956467	1
187.126544	13
190.989046	1
190.993035	1
196.060913	14
197.270532	1
197.799651	1
197.930554	1
197.984214	1
198.022105	1
198.027895	4
198.044213	1
198.052110	1
198.053689	1
198.056848	1
198.058428	1
198.061060	1
198.064746	2
198.066325	3
198.067905	4
198.072117	12
198.076329	999
198.079489	14
198.083175	3
198.085281	4
198.088441	2
198.090547	1
198.091600	1
198.092654	1
198.094760	1
198.097920	1
198.100553	1
198.107400	1
198.108453	1
198.112667	1
198.124781	4
198.129522	1
198.167982	1
198.221739	1
198.353061	1
198.887074	1
199.074222	1
199.076345	1
199.078997	95
199.082181	1
199.083242	1
199.179311	3
200.079676	5
207.025717	1
208.190213	1
220.111991	1
221.149442	1
222.112313	18
223.063237	9
223.115476	1
224.062720	1
224.122915	1
224.124816	1
224.127985	57
224.131788	1
224.133055	1
225.131450	5
229.974392	1
233.173966	1
244.026907	1
244.081639	1
244.087401	2
244.088842	2
244.092443	163
244.097486	2
244.105410	1
244.159447	1
245.096056	11
277.199902	1
279.158552	1
282.220291	1
304.138483	4
304.142491	1
332.544080	1
332.553244	2
332.562408	167
332.569281	2
332.581883	1
333.063569	42
333.070458	1
333.563562	5
348.069074	1
351.534043	1
359.016441	1
359.520650	5
360.022050	1
360.200177	1
391.284356	25
392.286254	3
395.142987	5
426.356690	1
428.034459	1
436.339497	1
441.158203	1
475.379199	1
478.349236	1
487.176331	12
488.179193	1
542.064814	1
549.969168	1
560.077597	2
574.092695	3
577.965290	1
588.351977	4
589.353316	1
598.036557	1
634.366158	1
664.090042	1
664.115903	141
664.135299	1
664.141765	1
664.617253	2
665.119170	29
666.121465	3
667.122773	1
691.075227	1
691.576501	1
695.079965	1
718.035409	1
762.649482	3
763.150980	1
763.652974	1
861.184654	2
862.187976	1
1327.228365	1
1328.233570	1
