Mass spectrum: 3',5'-Cyclic AMP; LC-ESI-ITFT; MS2; m/z:330.06; POS
Name: 3',5'-Cyclic AMP
Name: Cyclic adenylic acid
Name: Cyclic AMP
Name: Adenosine 3',5'-phosphate
Name: cAMP
Class: Natural Product
Formula: C10H12N5O6P
Exact mass: 329.05252
SMILES: Nc(n4)c(n3)c(nc4)n(c3)[C@H](O1)[C@H](O)[C@H](O2)[C@@H](COP(O)(=O)2)1
InChI: InChI=1S/C10H12N5O6P/c11-8-5-9(13-2-12-8)15(3-14-5)10-6(16)7-4(20-10)1-19-22(17,18)21-7/h2-4,6-7,10,16H,1H2,(H,17,18)(H2,11,12,13)/t4-,6-,7-,10-/m1/s1
Instrument: LTQ Orbitrap XL, Thermo Scientfic
Instrument type: LC-ESI-ITFT
Ms type: MS2
Ion mode: POSITIVE
Collision energy: 35eV
Ionization: ESI
Column name: TOSOH TSKgel ODS-100V  5um Part no. 21456
Retention time: 9.783922 min
Base peak: 312.112305
Precursor m/z: 330.06
m/z	relative intensity
97.003716	16
119.044296	9
135.983246	687
136.933594	1
148.169769	2
161.134857	1
162.128571	2
173.144241	1
176.079529	5
177.068298	19
178.035019	4
186.140152	5
187.034149	1
190.116730	12
202.183289	3
204.086792	40
208.178864	3
214.065491	49
216.197479	2
232.163513	96
250.150360	54
270.169739	2
284.228180	1
302.277100	1
312.112305	999
330.087708	1
