Mass spectrum: cis-Aconitic acid; LC-ESI-ITFT; MS2; m/z:173.01; NEG
Name: cis-Aconitate
Name: cis-Aconitic acid
Class: Natural Product
Formula: C6H6O6
Exact mass: 174.01644
SMILES: OC(=O)CC(C(O)=O)=C([H])C(O)=O
InChI: InChI=1S/C6H6O6/c7-4(8)1-3(6(11)12)2-5(9)10/h1H,2H2,(H,7,8)(H,9,10)(H,11,12)/b3-1-
Instrument: LTQ Orbitrap XL, Thermo Scientfic
Instrument type: LC-ESI-ITFT
Ms type: MS2
Ion mode: NEGATIVE
Collision energy: 35eV
Ionization: ESI
Column name: TOSOH TSKgel ODS-100V  5um Part no. 21456
Retention time: 10.915352 min
Base peak: 128.962479
Precursor m/z: 173.01
m/z	relative intensity
84.874588	64
110.967682	10
128.962479	999
