Mass spectrum: NAD+; LC-ESI-ITFT; MS2; m/z:540.05; NEG
Name: NAD+
Name: NAD
Name: Nicotinamide adenine dinucleotide
Name: DPN
Name: Diphosphopyridine nucleotide
Name: Nadide
Class: Natural Product
Formula: [C21H28N7O14P2]+
Exact mass: 664.11695
SMILES: NC(=O)c(c5)c[n+1](cc5)C(O1)C(O)C(O)C(COP(O)(=O)OP(O)(=O)OCC(O2)C(O)C(O)C2n(c4)c(n3)c(n4)c(N)nc3)1
InChI: InChI=1S/C21H27N7O14P2/c22-17-12-19(25-7-24-17)28(8-26-12)21-16(32)14(30)11(41-21)6-39-44(36,37)42-43(34,35)38-5-10-13(29)15(31)20(40-10)27-3-1-2-9(4-27)18(23)33/h1-4,7-8,10-11,13-16,20-21,29-32H,5-6H2,(H5-,22,23,24,25,33,34,35,36,37)/p+1/t10-,11-,13-,14-,15-,16-,20-,21-/m1/s1
Instrument: LTQ Orbitrap XL, Thermo Scientfic
Instrument type: LC-ESI-ITFT
Ms type: MS2
Ion mode: NEGATIVE
Collision energy: 35eV
Ionization: ESI
Column name: TOSOH TSKgel ODS-100V  5um Part no. 21456
Retention time: 8.891137 min
Base peak: 328.136047
Precursor m/z: 540.05
m/z	relative intensity
158.981247	43
175.073578	13
176.926605	1
193.033844	12
211.024567	40
214.072083	2
243.409683	1
255.214386	4
273.085083	336
276.232300	1
291.112549	6
307.272522	1
328.136047	999
346.069397	620
388.278625	3
400.139404	4
405.137573	11
408.021729	627
408.690186	2
412.122253	2
424.044556	2
426.061157	916
426.671875	2
442.080566	51
460.065796	2
480.087524	14
522.179382	34
