Mass spectrum: Taurine; LC-ESI-ITFT; MS2; m/z:132.07; POS
Name: Taurine
Name: 2-Aminoethanesulfonic acid
Name: Aminoethylsulfonic acid
Class: Natural Product
Formula: C2H7NO3S
Exact mass: 125.01466
SMILES: NCCS(O)(=O)=O
InChI: InChI=1S/C2H7NO3S/c3-1-2-7(4,5)6/h1-3H2,(H,4,5,6)
Instrument: LTQ Orbitrap XL, Thermo Scientfic
Instrument type: LC-ESI-ITFT
Ms type: MS2
Ion mode: POSITIVE
Collision energy: 35eV
Ionization: ESI
Column name: TOSOH TSKgel ODS-100V  5um Part no. 21456
Retention time: 4.781968 min
Base peak: 85.940155
Precursor m/z: 132.07
m/z	relative intensity
67.962967	28
85.940155	999
86.725952	1
95.232895	1
95.988129	5
113.991486	43
