Mass spectrum: Guanosine; LC-ESI-ITFT; MS; NEG
Name: Guanosine
Class: Natural Product
Formula: C10H13N5O5
Exact mass: 283.091669
SMILES: C1=NC2=C(N1[C@H]3[C@@H]([C@@H]([C@H](O3)CO)O)O)N=C(NC2=O)N
InChI: InChI=1S/C10H13N5O5/c11-10-13-7-4(8(19)14-10)12-2-15(7)9-6(18)5(17)3(1-16)20-9/h2-3,5-6,9,16-18H,1H2,(H3,11,13,14,19)/t3-,5-,6-,9-/m1/s1
Instrument: LTQ Orbitrap XL, Thermo Scientfic
Instrument type: LC-ESI-ITFT
Ms type: MS
Ion mode: NEGATIVE
Collision energy: 35eV
Ionization: ESI
Column name: TOSOH TSKgel ODS-100V  5um Part no. 21456
Retention time: 5.497518 min
Base peak: 282.084259
m/z	relative intensity
107.036514	9
108.020506	10
112.985627	1
126.028544	1
126.031217	29
126.033356	1
127.034239	1
132.025267	1
132.027846	1
132.030426	52
132.032719	1
133.010659	1
133.012977	2
133.015586	54
133.018194	2
133.020803	1
133.033268	1
134.012399	1
134.018848	2
139.007160	2
140.046531	6
143.034969	1
149.034535	1
149.945827	2
150.010024	3
150.014537	1
150.015578	1
150.021480	1
150.024952	1
150.027729	1
150.028424	1
150.029812	1
150.031201	1
150.032590	3
150.035715	6
150.037104	1
150.038840	14
150.041965	559
150.044743	16
150.046479	2
150.047868	6
150.050646	3
150.052730	1
150.054813	1
150.056550	1
150.057591	1
150.058633	1
150.060370	1
150.063843	1
150.068705	1
150.073915	3
150.137847	1
151.025976	2
151.038951	7
151.042107	1
151.045263	24
151.048069	1
152.046261	1
158.925111	1
164.057411	1
192.052379	3
196.047374	1
211.001177	1
272.956860	1
275.017530	1
281.672578	1
281.836987	2
282.001540	4
282.014067	1
282.016751	1
282.020330	1
282.023909	1
282.026594	1
282.029278	1
282.031068	1
282.038227	1
282.040017	1
282.047176	1
282.049861	1
282.052545	2
282.057020	2
282.060600	5
282.065075	2
282.068655	9
282.072235	2
282.076711	18
282.083871	999
282.091927	20
282.096403	3
282.099984	8
282.107145	5
282.111621	2
282.114307	1
282.117888	2
282.122364	1
282.125050	1
282.128631	1
282.131317	1
282.136689	1
282.141166	1
282.148329	1
282.152806	1
282.159074	1
282.167133	4
282.182357	1
282.331976	2
283.062961	1
283.071959	1
283.081857	8
283.087256	108
284.083339	1
284.086958	4
284.090577	2
285.091055	1
318.060358	16
319.063678	2
320.057689	5
328.089889	15
329.092571	2
338.019458	1
340.042114	1
345.080175	5
346.054752	1
350.071348	5
351.074617	1
354.013518	1
356.083874	8
357.087621	1
374.094791	8
375.098833	1
380.051378	4
380.059777	1
382.008828	2
388.111418	1
390.016561	2
396.077407	2
398.053579	1
408.011880	2
412.041627	1
415.121221	29
416.124955	3
422.098340	1
426.021620	1
427.006820	1
428.013842	1
437.103159	1
469.040157	1
494.092597	1
504.939618	1
522.951509	1
540.054618	1
564.943072	1
565.108008	1
565.115623	1
565.130851	2
565.153696	4
565.176542	326
565.196850	5
565.209544	1
565.219699	2
565.240009	1
565.410156	1
566.134773	1
566.155133	1
566.178040	67
566.200947	1
567.182202	7
568.183920	1
587.159179	11
588.160406	2
589.134478	1
601.153769	13
602.157518	2
603.149790	3
604.152934	1
611.182731	32
612.185957	5
613.188787	1
618.086193	1
619.094830	1
620.021342	18
621.023026	3
628.171690	2
639.177209	1
643.979055	1
649.128830	1
655.097078	1
657.186483	5
658.190270	1
661.990312	4
662.992228	1
663.143841	2
664.093409	1
665.100105	1
671.205061	1
679.169990	1
698.214300	20
699.215758	3
700.219373	1
742.068168	23
743.069798	4
744.077292	1
812.032561	1
848.184134	1
848.216804	1
848.235473	1
848.268146	163
848.305489	2
848.352171	1
849.272588	46
849.309997	1
850.274130	8
851.272752	1
870.251052	2
871.255932	1
884.245791	1
892.187692	1
902.194755	1
916.257248	1
940.283731	1
946.238640	1
981.306953	4
982.312467	1
1025.161423	4
1026.160577	1
1131.361593	35
1132.361606	13
1133.362946	3
1134.372833	1
1153.346271	2
1154.338531	1
1265.986300	1
1308.257115	1
1365.974696	1
1414.451440	3
1415.457015	2
1416.453592	1
1465.968787	1
