Mass spectrum: Acetyl-CoA; LC-ESI-ITFT; MS2; m/z:405.57; POS
Name: Acetyl-CoA
Name: Acetyl coenzyme A
Class: Natural Product
Formula: C23H38N7O17P3S
Exact mass: 809.12577
SMILES: CC(=O)SCCNC(=O)CCNC(=O)C(O)C(C)(C)COP(O)(=O)OP(O)(=O)OCC(O1)C(OP(O)(O)=O)C(O)C1n(c2)c(n3)c(c(N)nc3)n2
InChI: InChI=1S/C23H38N7O17P3S/c1-12(31)51-7-6-25-14(32)4-5-26-21(35)18(34)23(2,3)9-44-50(41,42)47-49(39,40)43-8-13-17(46-48(36,37)38)16(33)22(45-13)30-11-29-15-19(24)27-10-28-20(15)30/h10-11,13,16-18,22,33-34H,4-9H2,1-3H3,(H,25,32)(H,26,35)(H,39,40)(H,41,42)(H2,24,27,28)(H2,36,37,38)/t13-,16-,17-,18+,22-/m1/s1
Instrument: LTQ Orbitrap XL, Thermo Scientfic
Instrument type: LC-ESI-ITFT
Ms type: MS2
Ion mode: POSITIVE
Collision energy: 35eV
Ionization: ESI
Column name: TOSOH TSKgel ODS-100V  5um Part no. 21456
Retention time: 13.649622 min
Base peak: 428.066925
Precursor m/z: 405.57
m/z	relative intensity
120.041351	1
131.920563	2
136.068619	45
141.105072	2
159.070847	36
174.095428	4
187.361633	1
191.249146	1
201.050232	431
202.177460	2
208.951324	1
232.052460	1
243.193237	3
261.108612	3
264.104492	1
282.103058	1
285.291199	3
292.068298	1
303.262909	221
312.151672	27
323.330444	5
330.158020	8
341.224731	15
359.156036	1
366.710968	1
367.396606	1
375.699738	7
376.541931	1
382.503204	28
383.202179	100
384.672089	127
386.298248	1
387.053741	1
396.679962	99
397.878754	1
410.101837	19
428.066925	999
429.056976	3
437.170502	1
469.909271	1
474.902130	1
479.307281	3
490.227814	2
508.038483	189
509.362610	1
556.203796	1
573.940247	1
592.182739	15
633.061462	2
657.146790	1
675.097900	8
691.037354	3
768.147400	1
