Mass spectrum: L-Ornithine; LC-ESI-ITFT; MS2; m/z:131.08; NEG
Name: L-Ornithine
Name: (S)-2,5-Diaminovaleric acid
Name: (S)-2,5-Diaminopentanoic acid
Name: (S)-2,5-Diaminopentanoate
Class: Natural Product
Formula: C5H12N2O2
Exact mass: 132.08988
SMILES: NCCC[C@H](N)C(O)=O
InChI: InChI=1S/C5H12N2O2/c6-3-1-2-4(7)5(8)9/h4H,1-3,6-7H2,(H,8,9)/t4-/m0/s1
Instrument: LTQ Orbitrap XL, Thermo Scientfic
Instrument type: LC-ESI-ITFT
Ms type: MS2
Ion mode: NEGATIVE
Collision energy: 35eV
Ionization: ESI
Column name: TOSOH TSKgel ODS-100V  5um Part no. 21456
Retention time: 3.974668 min
Base peak: 112.934296
Precursor m/z: 131.08
m/z	relative intensity
112.934296	999
113.999084	145
