Mass spectrum: Phosphoenolpyruvic acid; LC-ESI-ITFT; MS2; m/z:168.99; POS
Name: Phosphoenolpyruvate
Name: Phosphoenolpyruvic acid
Name: PEP
Class: Natural Product
Formula: C3H5O6P
Exact mass: 167.98237
SMILES: C=C(C(O)=O)OP(O)(O)=O
InChI: InChI=1S/C3H5O6P/c1-2(3(4)5)9-10(6,7)8/h1H2,(H,4,5)(H2,6,7,8)
Instrument: LTQ Orbitrap XL, Thermo Scientfic
Instrument type: LC-ESI-ITFT
Ms type: MS2
Ion mode: POSITIVE
Collision energy: 35eV
Ionization: ESI
Column name: TOSOH TSKgel ODS-100V  5um Part no. 21456
Retention time: 7.035827 min
Base peak: 150.932404
Precursor m/z: 168.99
m/z	relative intensity
86.033264	1
99.056366	1
123.077347	3
127.038116	5
128.068665	10
140.912872	2
145.108185	1
145.970978	1
150.932404	999
151.761520	1
