Mass spectrum: D-Glucose 1-phosphate; LC-ESI-ITFT; MS2; m/z:259.02; NEG
Name: D-Glucose 1-phosphate
Name: alpha-D-Glucose 1-phosphate
Name: Cori ester
Name: D-Glucose alpha-1-phosphate
Class: Natural Product
Formula: C6H13O9P
Exact mass: 260.02972
SMILES: OC[C@@H](O1)[C@@H](O)[C@H](O)[C@@H](O)C1OP(O)(O)=O
InChI: InChI=1S/C6H13O9P/c7-1-2-3(8)4(9)5(10)6(14-2)15-16(11,12)13/h2-10H,1H2,(H2,11,12,13)/t2-,3-,4+,5-,6-/m1/s1
Instrument: LTQ Orbitrap XL, Thermo Scientfic
Instrument type: LC-ESI-ITFT
Ms type: MS2
Ion mode: NEGATIVE
Collision energy: 35eV
Ionization: ESI
Column name: TOSOH TSKgel ODS-100V  5um Part no. 21456
Retention time: 6.609200 min
Base peak: 240.955872
Precursor m/z: 259.02
m/z	relative intensity
78.902153	28
86.643509	1
96.918083	188
138.975494	33
143.131027	1
168.959915	2
181.056778	8
199.094803	3
240.955872	999
