Mass spectrum: Acetyl-CoA; LC-ESI-ITFT; MS2; m/z:810.13; POS
Name: Acetyl-CoA
Name: Acetyl coenzyme A
Class: Natural Product
Formula: C23H38N7O17P3S
Exact mass: 809.12577
SMILES: CC(=O)SCCNC(=O)CCNC(=O)C(O)C(C)(C)COP(O)(=O)OP(O)(=O)OCC(O1)C(OP(O)(O)=O)C(O)C1n(c2)c(n3)c(c(N)nc3)n2
InChI: InChI=1S/C23H38N7O17P3S/c1-12(31)51-7-6-25-14(32)4-5-26-21(35)18(34)23(2,3)9-44-50(41,42)47-49(39,40)43-8-13-17(46-48(36,37)38)16(33)22(45-13)30-11-29-15-19(24)27-10-28-20(15)30/h10-11,13,16-18,22,33-34H,4-9H2,1-3H3,(H,25,32)(H,26,35)(H,39,40)(H,41,42)(H2,24,27,28)(H2,36,37,38)/t13-,16-,17-,18+,22-/m1/s1
Instrument: LTQ Orbitrap XL, Thermo Scientfic
Instrument type: LC-ESI-ITFT
Ms type: MS2
Ion mode: POSITIVE
Collision energy: 35eV
Ionization: ESI
Column name: TOSOH TSKgel ODS-100V  5um Part no. 21456
Retention time: 13.658300 min
Base peak: 428.074158
Precursor m/z: 810.13
m/z	relative intensity
232.211426	1
243.208725	6
261.248566	12
264.199219	1
273.262451	4
282.224670	1
285.348022	3
286.376984	1
303.236450	952
303.855743	1
312.111633	44
323.282898	3
330.108093	38
341.213379	2
383.038635	12
401.126343	202
410.105652	501
419.178162	2
428.074158	999
428.678894	4
437.066223	1
461.414124	1
474.920288	3
479.506165	1
489.996094	1
508.096069	21
512.151489	1
592.190247	21
609.899963	11
620.179871	1
674.991089	8
690.634460	5
691.244202	7
712.167053	1
768.006531	3
792.237488	16
801.053284	1
