Mass spectrum: Guanine; LC-ESI-ITFT; MS2; m/z:303.11; POS
Name: Guanine
Name: 2-Amino-6-hydroxypurine
Class: Natural Product
Formula: C5H5N5O
Exact mass: 151.04941
SMILES: C1=NC2=C(N1)C(=O)N=C(N2)N
InChI: InChI=1S/C5H5N5O/c6-5-9-3-2(4(11)10-5)7-1-8-3/h1H,(H4,6,7,8,9,10,11)
Instrument: LTQ Orbitrap XL, Thermo Scientfic
Instrument type: LC-ESI-ITFT
Ms type: MS2
Ion mode: POSITIVE
Collision energy: 35eV
Ionization: ESI
Column name: TOSOH TSKgel ODS-100V  5um Part no. 21456
Retention time: 5.479657 min
Base peak: 152.067688
Precursor m/z: 303.11
m/z	relative intensity
135.063477	2
152.067688	999
152.823975	1
