Mass spectrum: DOPA; LC-ESI-ITFT; MS; NEG
Name: 3,4-Dihydroxy-L-phenylalanine
Name: L-Dopa
Name: 3-Hydroxy-L-tyrosine
Name: L-beta-(3,4-Dihydroxyphenyl)alanine
Name: Levodopa
Name: Dihydroxy-L-phenylalanine
Name: DOPA
Class: Natural Product
Formula: C9H11NO4
Exact mass: 197.06881
SMILES: OC(=O)C([H])(N)Cc(c1)cc(O)c(O)c1
InChI: InChI=1S/C9H11NO4/c10-6(9(13)14)3-5-1-2-7(11)8(12)4-5/h1-2,4,6,11-12H,3,10H2,(H,13,14)/t6-/m0/s1
Instrument: LTQ Orbitrap XL, Thermo Scientfic
Instrument type: LC-ESI-ITFT
Ms type: MS
Ion mode: NEGATIVE
Collision energy: 35eV
Ionization: ESI
Column name: TOSOH TSKgel ODS-100V  5um Part no. 21456
Retention time: 5.478793 min
Base peak: 346.055267
m/z	relative intensity
106.042685	1
107.036611	6
107.050421	3
108.020604	2
108.021876	2
109.028122	1
109.029627	28
109.031348	1
110.033008	1
112.985735	1
121.029668	8
122.033553	1
122.035590	2
122.037628	62
122.039666	2
122.041704	1
123.040697	3
123.045338	10
123.047143	1
124.048352	1
126.031090	8
128.035194	4
133.011108	1
133.013427	1
133.015746	41
133.018064	1
134.019011	1
134.037479	11
134.039239	1
134.042757	1
134.045103	1
134.047448	52
134.049501	2
134.052140	1
134.061231	4
135.017958	1
135.039006	2
135.040488	2
135.042860	4
135.045232	123
135.047604	4
135.049976	3
135.051459	1
135.052941	1
135.072514	1
136.048501	9
137.024195	1
138.980092	4
139.007027	2
140.046398	1
143.046144	9
149.946027	1
150.010224	1
150.029665	1
150.032789	1
150.033831	1
150.035220	1
150.036609	3
150.039387	7
150.042164	248
150.044942	8
150.047720	3
150.049457	1
150.051193	1
150.055707	8
150.074115	1
150.980251	7
151.026177	1
151.039152	3
151.045465	11
152.071616	5
153.066748	1
155.082528	1
160.007336	1
164.071531	1
166.036971	1
166.975061	1
177.033487	1
179.031497	1
179.035118	36
179.038739	1
180.038190	2
182.031736	1
186.018759	3
188.015779	1
191.019518	1
192.990906	4
195.822305	1
195.917600	2
195.997412	1
196.013483	4
196.019187	1
196.023335	1
196.026446	1
196.030594	1
196.032669	1
196.035780	2
196.036817	1
196.039929	1
196.042522	1
196.045115	1
196.047189	4
196.048745	4
196.050819	4
196.052894	9
196.054968	5
196.057043	23
196.061192	936
196.065342	27
196.069491	9
196.072085	4
196.074160	4
196.076234	2
196.078309	1
196.081422	1
196.083497	1
196.085572	2
196.087128	1
196.090760	1
196.093872	1
196.096985	1
196.103211	1
196.108918	4
196.118777	1
196.121891	1
196.123966	1
196.204423	2
196.300517	1
197.056138	1
197.060842	2
197.064500	74
197.068682	2
197.072863	1
198.064996	4
198.067630	1
199.068886	1
203.049089	1
208.061445	2
210.087874	2
210.996351	1
211.000984	17
212.004598	1
213.037713	1
218.043122	9
219.046613	1
224.866120	1
228.098657	1
232.037829	9
234.034630	2
242.066650	3
242.078035	1
248.009284	1
254.077796	3
259.056766	4
264.048921	1
267.073216	1
272.088771	22
273.092113	2
275.017262	1
280.860416	1
281.837608	1
282.002162	1
282.063012	1
282.066592	1
282.070172	3
282.073752	1
282.077333	8
282.084493	373
282.091654	9
282.098815	3
282.103291	1
282.107767	1
282.110453	1
282.166860	1
282.331703	1
283.081584	4
283.087883	34
283.094182	1
284.087589	1
284.091208	1
288.065005	1
294.029023	4
294.038549	3
298.870761	1
301.083267	1
301.091163	40
301.099060	1
302.088604	1
302.094556	3
304.060343	7
306.068648	1
306.076742	70
306.084835	2
307.072645	1
307.079762	5
308.072396	2
310.053591	1
312.030005	1
318.061114	2
328.036793	1
328.044651	47
328.053631	1
328.089557	2
329.042614	1
329.048253	3
330.060999	1
336.076142	1
338.048474	2
338.952127	1
341.952384	1
345.079837	1
345.718976	2
345.906081	1
345.943763	3
345.965646	1
345.976588	1
345.983883	1
345.988746	1
345.996042	1
345.999690	1
346.004554	1
346.009418	1
346.017930	1
346.022794	3
346.026442	3
346.031307	3
346.036171	7
346.045901	19
346.055630	999
346.065360	21
346.071442	5
346.075091	7
346.081173	3
346.086038	3
346.090904	2
346.095770	1
346.100636	1
346.103069	1
346.107935	1
346.112801	1
346.116451	1
346.124967	1
346.139567	1
346.167552	3
346.190673	1
346.391558	1
346.617002	1
346.997707	1
347.039232	1
347.047783	1
347.058776	98
347.068549	2
347.078322	1
347.086873	1
347.090538	1
347.101534	3
347.110086	200
347.119861	5
347.129636	1
347.141856	1
347.222520	1
348.058929	7
348.106780	2
348.112916	25
348.122733	1
349.112703	1
349.117632	1
350.499571	1
363.003783	1
369.092661	2
378.897410	3
380.052409	1
383.088457	1
383.113958	4
386.033465	1
389.172069	1
391.114262	3
392.723790	1
392.994482	2
393.057782	1
393.063671	1
393.078394	1
393.084284	1
393.090174	1
393.094591	1
393.106371	3
393.119624	8
393.129933	490
393.141714	10
393.153497	3
393.160861	1
393.166752	1
393.172644	1
393.193265	1
393.199158	1
393.265454	2
394.109616	1
394.121442	1
394.133268	92
394.145095	2
394.156922	1
395.135997	6
396.138089	1
401.030128	1
405.129135	1
415.111254	15
416.114952	3
417.088498	3
417.165757	1
419.182037	1
426.021226	1
431.076263	1
433.119412	1
433.133036	32
434.136184	4
446.041165	3
447.050225	7
448.053753	1
449.035494	2
452.139989	5
453.144312	1
455.056632	3
456.061493	1
463.093615	1
479.095788	2
479.121545	1
479.129471	1
479.137397	2
479.143341	2
479.153249	146
479.169102	3
479.184956	1
480.111794	2
480.155523	24
481.156956	2
482.101522	8
483.105040	1
484.097608	1
492.046332	1
497.106255	37
497.123008	1
498.108699	5
498.161212	11
499.107859	1
499.162636	2
501.134291	1
504.939125	16
505.943866	1
513.952153	4
519.086387	1
522.951000	3
523.953353	1
525.115422	10
526.117166	2
529.947752	7
530.949493	1
542.905965	1
543.061345	1
543.068518	1
543.078082	1
543.087646	1
543.106776	4
543.125907	261
543.145038	5
543.156996	1
543.164171	1
543.176130	1
543.185697	1
543.343589	1
544.107709	1
544.129291	50
544.148476	1
544.179653	3
545.130649	4
545.183555	1
546.134773	1
547.957442	1
550.945517	1
553.141192	1
558.040034	1
558.543470	1
565.107464	3
565.175997	10
566.111323	1
566.180039	1
567.082140	2
584.183567	3
585.187888	1
587.043048	2
590.199791	1
596.037166	2
597.047416	1
598.101687	1
603.191195	1
605.051140	1
610.882518	1
611.067978	1
611.090809	1
611.099371	1
611.110788	1
611.122205	3
611.145040	231
611.167876	4
611.190713	1
611.219261	1
611.407731	1
612.125283	1
612.133867	1
612.148174	46
613.139437	10
614.156114	2
622.044135	1
628.147298	1
629.147877	35
630.150848	6
630.180735	1
630.201657	54
630.225570	1
631.150228	1
631.207151	9
632.209045	1
633.129044	1
634.117419	2
635.120206	1
643.111732	3
644.120495	3
645.122346	1
647.049105	1
648.154434	9
649.159465	1
649.209465	8
650.216952	1
665.067075	1
675.111275	1
676.003649	1
676.222866	3
677.227311	1
693.121256	12
694.125594	2
694.173968	1
695.229079	2
702.010998	6
703.013596	1
711.022718	2
715.098572	1
716.230737	1
727.019867	2
735.236724	1
740.195831	1
741.250861	1
754.241755	1
762.245418	6
763.248352	2
764.253267	1
780.197825	4
781.199282	1
781.257038	4
782.252269	1
784.103237	1
794.108055	1
799.197364	1
799.210170	1
800.261299	4
801.267364	1
826.217924	1
827.277844	2
828.276749	1
845.222947	1
846.287099	2
847.278704	1
890.196444	1
892.302713	1
894.234561	1
912.234970	2
913.240459	1
931.251342	1
950.253990	1
951.256487	1
951.300833	1
951.317463	1
958.212109	2
959.210391	1
977.259048	1
996.273321	1
997.325734	1
998.326177	1
1083.357834	1
1105.971207	1
1265.976780	1
1365.983177	1
