Mass spectrum: L-Glutamine; LC-ESI-ITFT; MS; POS
Name: L-Glutamine
Name: L-2-Aminoglutaramic acid
Class: Natural Product
Formula: C5H10N2O3
Exact mass: 146.06914
SMILES: NC(=O)CC[C@H](N)C(O)=O
InChI: InChI=1S/C5H10N2O3/c6-3(5(9)10)1-2-4(7)8/h3H,1-2,6H2,(H2,7,8)(H,9,10)/t3-/m0/s1
Instrument: LTQ Orbitrap XL, Thermo Scientfic
Instrument type: LC-ESI-ITFT
Ms type: MS
Ion mode: POSITIVE
Collision energy: 35eV
Ionization: ESI
Column name: TOSOH TSKgel ODS-100V  5um Part no. 21456
Retention time: 4.670423 min
Base peak: 147.076294
m/z	relative intensity
100.111848	4
101.070744	3
101.095891	1
102.033748	3
102.054776	1
102.114976	1
110.019746	2
111.020036	1
129.127480	1
130.008328	1
130.024009	1
130.043895	1
130.044735	1
130.045296	1
130.047536	2
130.049778	169
130.052019	2
130.054540	1
130.075834	1
131.053091	8
137.132305	3
139.982321	2
141.958810	7
143.778937	1
146.560554	1
146.587034	1
146.905683	1
146.983068	1
147.019426	1
147.045019	3
147.047040	1
147.049061	1
147.053776	1
147.054450	1
147.055797	1
147.060513	1
147.061187	1
147.063882	1
147.064892	2
147.065903	1
147.066914	1
147.067924	2
147.068935	2
147.070956	5
147.073314	13
147.076346	999
147.078031	12
147.079042	14
147.081063	2
147.082074	6
147.084096	2
147.086117	2
147.088139	2
147.089487	1
147.090161	1
147.090835	1
147.091508	1
147.096226	1
147.097574	1
147.098922	1
147.107684	3
147.133300	1
147.169377	1
147.247307	1
147.594866	1
148.073241	3
148.076304	1
148.079367	49
148.081069	1
148.082090	1
149.022561	4
149.079961	3
150.488504	1
155.142891	2
156.076374	1
158.002552	12
158.096003	2
158.961247	4
163.132671	7
167.033727	1
169.057698	1
170.096285	2
171.138130	1
171.149125	42
171.152509	1
172.152025	2
174.127584	18
175.118729	1
175.130548	1
179.063200	3
182.985263	13
186.955984	3
187.126060	6
190.992536	1
195.122110	1
199.029134	1
199.179842	6
199.987228	1
203.222581	2
220.111375	1
223.063237	10
233.173966	1
277.199902	1
279.158552	1
282.220291	1
293.145864	22
294.147646	1
391.284356	34
392.286254	6
423.269010	1
426.356690	1
436.339497	1
537.351958	6
538.353297	1
