Mass spectrum: DOPA; LC-ESI-ITFT; MS; POS
Name: 3,4-Dihydroxy-L-phenylalanine
Name: L-Dopa
Name: 3-Hydroxy-L-tyrosine
Name: L-beta-(3,4-Dihydroxyphenyl)alanine
Name: Levodopa
Name: Dihydroxy-L-phenylalanine
Name: DOPA
Class: Natural Product
Formula: C9H11NO4
Exact mass: 197.06881
SMILES: OC(=O)C([H])(N)Cc(c1)cc(O)c(O)c1
InChI: InChI=1S/C9H11NO4/c10-6(9(13)14)3-5-1-2-7(11)8(12)4-5/h1-2,4,6,11-12H,3,10H2,(H,13,14)/t6-/m0/s1
Instrument: LTQ Orbitrap XL, Thermo Scientfic
Instrument type: LC-ESI-ITFT
Ms type: MS
Ion mode: POSITIVE
Collision energy: 35eV
Ionization: ESI
Column name: TOSOH TSKgel ODS-100V  5um Part no. 21456
Retention time: 5.489702 min
Base peak: 152.056686
m/z	relative intensity
110.034570	1
119.034826	1
123.043741	1
128.045383	1
135.030186	1
135.044117	1
136.034240	1
136.054621	1
136.056420	1
136.059418	3
136.060017	2
136.061516	206
136.063614	3
136.064514	2
136.066313	1
136.067212	1
136.069011	1
136.089100	1
137.045596	1
137.058627	2
137.064992	10
139.038624	4
149.023935	1
151.514362	1
151.874319	1
151.958847	2
151.996005	1
152.024325	5
152.031052	1
152.033885	1
152.034947	1
152.038842	1
152.039905	1
152.042029	1
152.044154	2
152.046279	2
152.048404	3
152.050528	5
152.051945	2
152.054070	13
152.054778	12
152.056549	999
152.059028	14
152.060091	10
152.062216	5
152.063278	3
152.064341	2
152.065404	3
152.067175	4
152.069654	1
152.070717	1
152.072842	1
152.074259	1
152.078155	1
152.079218	1
152.082052	1
152.086303	1
152.089137	5
152.117838	1
152.154700	2
152.239107	1
152.601651	1
153.040204	12
153.053436	14
153.055582	1
153.056655	1
153.059516	52
153.061662	1
153.062735	1
153.072751	1
158.002552	1
163.132671	1
167.056156	1
171.149125	7
172.976690	1
174.127584	4
181.049244	18
182.052360	1
182.081130	1
182.984796	2
187.126544	1
193.068373	1
194.117984	12
195.121081	1
196.060913	4
197.270009	1
197.804905	1
197.930028	1
197.985793	1
198.027369	4
198.037370	1
198.043687	1
198.048951	1
198.051057	1
198.054216	1
198.057375	1
198.058428	1
198.060534	2
198.063693	3
198.066852	5
198.068958	2
198.071590	11
198.075803	949
198.079489	12
198.081068	8
198.084228	4
198.085808	3
198.087387	2
198.088967	2
198.090547	1
198.092127	1
198.093707	1
198.095287	1
198.100026	1
198.102133	1
198.107926	1
198.108980	1
198.124255	4
198.166401	1
198.221739	1
198.347257	1
198.886544	1
199.072100	1
199.074753	1
199.078997	88
199.082181	1
199.083773	1
199.179311	1
200.079676	5
210.075326	3
222.111688	1
224.127351	2
268.102546	1
269.086994	1
284.016287	1
284.077775	1
284.083202	1
284.092246	3
284.099482	240
284.104909	3
284.107622	2
284.113050	1
284.116668	1
284.181808	1
285.095216	1
285.101581	19
286.105336	1
287.110725	7
287.114400	1
303.098233	1
303.106207	81
303.112188	1
304.102420	1
304.108430	4
306.201714	1
307.083094	43
307.583792	3
308.079586	2
308.581700	1
314.090170	1
330.057635	1
348.069074	15
349.072120	1
349.115240	1
349.125097	118
349.132490	1
349.136187	1
350.121578	1
350.127766	11
391.282894	4
392.284786	1
395.142987	5
396.146347	1
419.151054	1
420.135037	1
435.147156	36
436.150183	3
454.153607	1
466.153760	1
481.167718	41
482.168074	5
483.171552	1
499.116803	2
567.189834	8
568.191334	1
586.193379	1
588.349282	1
613.157071	15
614.159174	2
631.161253	1
764.207335	1
764.255221	1
896.251120	1
