Mass spectrum: L-Serine; LC-ESI-ITFT; MS; POS
Name: L-Serine
Name: L-2-Amino-3-hydroxypropionic acid
Name: L-3-Hydroxy-alanine
Name: Serine
Class: Natural Product
Formula: C3H7NO3
Exact mass: 105.04259
SMILES: OC[C@H](N)C(O)=O
InChI: InChI=1S/C3H7NO3/c4-2(1-5)3(6)7/h2,5H,1,4H2,(H,6,7)/t2-/m0/s1
Instrument: LTQ Orbitrap XL, Thermo Scientfic
Instrument type: LC-ESI-ITFT
Ms type: MS
Ion mode: POSITIVE
Collision energy: 35eV
Ionization: ESI
Column name: TOSOH TSKgel ODS-100V  5um Part no. 21456
Retention time: 4.612950 min
Base peak: 104.070389
m/z	relative intensity
100.111848	1
103.763322	1
103.967061	1
104.014934	2
104.017338	1
104.035976	1
104.051812	5
104.057827	1
104.060233	1
104.061236	1
104.062439	1
104.063040	1
104.063642	1
104.064243	1
104.064845	1
104.065446	3
104.067251	5
104.068855	11
104.070460	999
104.071663	10
104.072064	11
104.072665	4
104.073869	5
104.075072	3
104.076275	2
104.077077	1
104.077880	1
104.078682	1
104.079484	1
104.080286	1
104.082292	1
104.083897	1
104.084699	1
104.085902	1
104.087507	1
104.088911	5
104.104960	1
104.125829	2
104.173811	1
104.181243	1
104.378963	1
105.073707	36
105.733298	1
105.942870	1
105.992320	2
106.013759	1
106.030255	4
106.038917	1
106.039949	1
106.040361	1
106.041186	1
106.042424	1
106.043043	1
106.044074	2
106.045930	5
106.046549	3
106.047580	9
106.049231	803
106.050675	8
106.051087	9
106.051706	4
106.052531	5
106.054182	2
106.055419	1
106.056245	1
106.057689	1
106.058927	1
106.059545	1
106.068211	4
106.073576	1
106.084720	1
106.106393	1
106.155751	1
106.366789	1
107.052629	17
108.053361	2
112.050158	27
149.022561	1
158.095628	1
171.148702	15
172.152025	1
174.127150	3
179.063200	1
187.125577	2
199.179842	1
207.133224	33
208.136321	1
211.091786	10
215.113067	10
223.062608	3
223.092816	1
265.010195	1
266.196543	1
274.211560	6
274.214991	1
298.185173	1
302.241881	1
338.214449	1
340.091416	1
354.079985	2
360.050438	3
368.071830	1
369.044770	2
370.052496	10
371.056255	1
380.262808	2
391.282894	20
392.286254	3
445.133305	6
474.087768	2
480.329506	1
494.347027	35
495.349218	7
496.325219	6
496.352371	1
497.327150	2
655.219434	1
684.171711	1
841.346748	2
842.347916	1
