Mass spectrum: beta-D-Fructose 6-phosphate; LC-ESI-ITFT; MS; NEG
Name: beta-D-Fructose 6-phosphate
Class: Natural Product
Formula: C6H13O9P
Exact mass: 260.02972
SMILES: OC[C@@](O)(O1)[C@@H](O)[C@H](O)[C@@H](COP(O)(O)=O)1
InChI: InChI=1S/C6H13O9P/c7-2-6(10)5(9)4(8)3(15-6)1-14-16(11,12)13/h3-5,7-10H,1-2H2,(H2,11,12,13)/t3-,4-,5+,6-/m1/s1
Instrument: LTQ Orbitrap XL, Thermo Scientfic
Instrument type: LC-ESI-ITFT
Ms type: MS
Ion mode: NEGATIVE
Collision energy: 35eV
Ionization: ESI
Column name: TOSOH TSKgel ODS-100V  5um Part no. 21456
Retention time: 6.815642 min
Base peak: 259.021790
m/z	relative intensity
101.024465	2
135.030869	2
138.973762	2
138.977476	1
138.979953	48
138.981501	1
138.982739	1
139.006887	1
139.983341	1
150.979747	2
167.011163	1
168.990385	25
168.993290	1
180.948271	1
186.865012	3
188.861978	1
197.021363	1
199.000686	3
200.906649	3
218.917076	1
223.000624	12
228.875424	3
229.010901	1
230.872543	1
230.916955	1
241.010910	3
257.006200	2
258.658943	1
258.804405	2
258.886232	2
258.898824	1
258.939755	1
258.942117	1
258.949202	5
258.957862	1
258.959437	1
258.973609	2
258.976759	1
258.979121	1
258.983058	1
258.985420	1
258.987782	1
258.989357	1
258.994082	3
258.999595	2
259.001170	2
259.003532	2
259.008257	5
259.010620	2
259.015345	17
259.021646	999
259.028734	15
259.035823	6
259.038974	3
259.042912	2
259.048426	2
259.057879	1
259.064182	1
259.066545	1
259.068908	1
259.071272	1
259.085453	1
259.094120	5
259.102788	1
259.239161	2
260.018466	1
260.024804	64
260.028764	2
260.882474	1
261.025832	13
261.029019	1
262.028645	1
267.007599	1
267.072731	2
272.927124	2
280.873222	2
282.979385	3
300.989892	1
302.875166	2
302.937914	3
310.882871	1
316.979730	4
318.957188	1
318.976561	1
320.948862	3
336.999204	1
338.914837	1
338.987934	3
347.909740	2
348.917269	5
350.914450	1
356.988306	6
356.998501	1
357.992043	1
358.946050	1
360.969175	2
362.945433	2
378.966166	1
380.908202	1
381.908793	1
382.904838	8
392.906666	2
392.969944	3
399.035271	1
452.928069	1
452.977244	1
457.049939	1
459.031654	1
466.966781	1
471.940124	1
472.935384	5
473.933797	1
482.939204	3
483.941317	1
487.025324	1
489.076619	1
494.919634	1
517.037473	2
518.435203	1
518.845802	2
518.915027	1
518.923960	1
518.946295	1
518.973098	1
518.979799	1
518.986500	1
518.995435	1
518.999903	1
519.013306	2
519.020008	1
519.033412	9
519.051285	722
519.062456	12
519.071393	8
519.082564	1
519.091502	3
519.100440	1
519.111613	1
519.125020	1
519.133959	1
519.151837	1
519.183126	1
519.192066	1
519.256889	2
519.668466	1
520.035718	1
520.053642	99
520.073809	1
521.054412	24
522.058074	2
527.035557	1
527.101855	1
535.046446	3
541.013977	1
541.032997	69
541.044885	1
541.054396	1
542.035352	7
543.009416	19
543.035713	1
544.012476	1
549.062421	1
557.006080	2
560.973674	2
561.971567	1
562.967078	17
563.970297	1
564.963515	1
564.973663	1
571.961662	3
572.970892	6
573.972403	1
579.016934	2
584.950642	1
592.973365	1
598.990495	1
607.938670	1
608.948111	4
609.951530	1
610.943166	1
616.886184	1
779.026632	1
779.047172	2
779.080038	113
779.100581	2
779.117015	1
780.083459	19
781.084695	5
782.087860	1
801.062639	23
802.065924	4
803.036699	5
803.066795	1
804.043695	1
817.026421	2
821.003032	1
822.997773	5
823.042382	2
824.002340	1
824.047030	1
825.022178	1
831.992146	2
832.999604	7
834.004342	1
835.006341	1
844.977908	1
905.980119	1
1005.975263	3
1006.976678	1
1039.112967	13
1040.113579	3
1041.109290	1
1061.092474	3
1062.098850	1
1063.067366	1
1077.053970	1
1083.028959	1
1083.076098	1
1093.030069	2
1105.965432	4
1106.966746	1
1115.012378	1
1155.955800	1
1165.985321	1
1205.956640	1
1255.953397	3
1256.946286	1
1257.957211	1
1265.978062	2
1299.141741	1
1321.126924	1
1355.948671	2
1365.974981	1
1455.925551	1
1465.969084	1
