Mass spectrum: 3',5'-Cyclic AMP; LC-ESI-ITFT; MS; POS
Name: 3',5'-Cyclic AMP
Name: Cyclic adenylic acid
Name: Cyclic AMP
Name: Adenosine 3',5'-phosphate
Name: cAMP
Class: Natural Product
Formula: C10H12N5O6P
Exact mass: 329.05252
SMILES: Nc(n4)c(n3)c(nc4)n(c3)[C@H](O1)[C@H](O)[C@H](O2)[C@@H](COP(O)(=O)2)1
InChI: InChI=1S/C10H12N5O6P/c11-8-5-9(13-2-12-8)15(3-14-5)10-6(16)7-4(20-10)1-19-22(17,18)21-7/h2-4,6-7,10,16H,1H2,(H,17,18)(H2,11,12,13)/t4-,6-,7-,10-/m1/s1
Instrument: LTQ Orbitrap XL, Thermo Scientfic
Instrument type: LC-ESI-ITFT
Ms type: MS
Ion mode: POSITIVE
Collision energy: 35eV
Ionization: ESI
Column name: TOSOH TSKgel ODS-100V  5um Part no. 21456
Retention time: 9.749348 min
Base peak: 330.059570
m/z	relative intensity
100.111848	4
102.033553	2
110.019746	5
133.078916	1
136.057919	2
136.061516	6
137.132002	1
139.981695	1
141.958171	1
149.022904	4
151.096379	3
152.056549	22
153.059516	1
155.142891	2
158.002552	2
158.096379	1
158.960868	1
162.997765	1
163.132671	5
168.122845	1
170.096285	2
171.137707	1
171.149125	39
171.151240	1
172.152025	2
173.078147	3
174.127584	16
175.089406	1
175.130548	1
179.063200	3
182.984796	6
186.184865	1
186.955984	1
187.126060	12
190.992536	2
194.116962	1
195.122110	1
199.179842	6
213.005967	3
217.544020	1
220.111991	1
221.027739	1
223.063237	1
225.533317	5
226.035078	1
230.033032	1
232.521632	1
233.174638	2
233.519360	20
234.020972	2
235.504822	1
237.523318	3
269.087828	1
277.200773	1
279.158552	1
282.221186	1
284.015383	1
284.083202	1
284.092246	2
284.099482	163
284.107622	1
284.113050	1
284.181808	1
285.096126	1
285.102490	16
299.182617	1
307.083094	2
328.327048	1
329.476243	1
329.746388	1
329.865176	1
329.955724	4
329.971573	1
329.986292	1
329.997615	1
330.006673	1
330.008938	1
330.013468	1
330.015732	1
330.017997	1
330.020262	1
330.024792	1
330.029322	2
330.032719	2
330.036116	1
330.039514	3
330.044044	2
330.047442	4
330.050839	9
330.059900	999
330.065563	12
330.070094	8
330.078023	3
330.081421	2
330.088217	2
330.092749	1
330.097280	1
330.099545	1
330.101811	1
330.104077	1
330.108608	1
330.110874	1
330.117671	1
330.119937	1
330.149395	1
330.162993	4
330.254797	1
330.372726	1
330.643974	1
331.053179	1
331.062281	116
331.069108	1
331.072522	1
331.805365	1
332.063521	9
334.037004	1
349.031472	2
352.040032	3
356.513782	2
357.017822	8
357.520379	1
361.021525	1
380.020616	1
384.024553	1
391.282894	25
392.286254	4
436.339497	1
494.585863	22
495.084860	5
495.586697	1
513.557501	1
521.543429	2
522.043231	1
525.546119	1
613.148467	3
614.150549	1
659.085511	1
659.111080	71
659.127062	1
659.613172	4
660.112634	9
661.116473	1
686.068570	1
720.334133	5
721.339409	1
823.635634	2
824.140386	1
824.636656	1
942.199954	1
988.162671	5
988.667454	1
989.166748	1
1317.220706	1
