Mass spectrum: L-Carnosine; LC-ESI-ITFT; MS; POS
Name: Carnosine
Name: Nalpha-(beta-alanyl)-L-histidine
Name: L-Carnosine
Class: Natural Product
Formula: C9H14N4O3
Exact mass: 226.10659
SMILES: C1=C(NC=N1)C[C@@H](C(=O)O)NC(=O)CCN
InChI: InChI=1S/C9H14N4O3/c10-2-1-8(14)13-7(9(15)16)3-6-4-11-5-12-6/h4-5,7H,1-3,10H2,(H,11,12)(H,13,14)(H,15,16)/t7-/m0/s1
Instrument: LTQ Orbitrap XL, Thermo Scientfic
Instrument type: LC-ESI-ITFT
Ms type: MS
Ion mode: POSITIVE
Collision energy: 35eV
Ionization: ESI
Column name: TOSOH TSKgel ODS-100V  5um Part no. 21456
Retention time: 3.944753 min
Base peak: 114.060249
m/z	relative intensity
105.054992	1
105.546874	2
110.069243	1
110.070988	51
110.072515	1
110.073169	1
111.074410	1
113.707582	1
113.933276	1
113.944303	1
113.996702	2
113.999460	1
114.021535	1
114.039015	4
114.042005	1
114.042925	1
114.044535	1
114.045226	1
114.047296	1
114.047986	1
114.048446	1
114.049827	1
114.050287	1
114.052127	1
114.052587	1
114.053508	1
114.054428	4
114.055118	1
114.056729	6
114.058339	13
114.060180	999
114.061791	10
114.062481	11
114.063401	5
114.064092	6
114.065242	2
114.065932	3
114.067083	1
114.067543	1
114.068003	1
114.068694	1
114.069844	1
114.070535	1
114.072836	1
114.075828	1
114.078129	1
114.078819	1
114.081581	4
114.084573	1
114.098845	1
114.121178	1
114.123942	2
114.176234	1
114.187526	1
114.414421	1
114.559034	2
114.561350	85
114.563666	1
114.565519	1
115.062101	1
115.062567	1
137.132002	1
138.065820	1
141.958171	1
149.022561	1
149.041805	5
149.543471	1
152.081698	44
153.084914	1
156.042496	1
156.067167	1
156.070482	1
156.073428	2
156.076374	175
156.078584	1
156.079689	2
156.081531	1
156.082636	1
157.073325	1
157.079647	8
158.002552	14
161.532919	1
163.132278	1
165.536792	1
171.148702	11
174.127150	3
179.063200	1
180.072652	1
180.076303	93
180.079498	1
180.080868	1
181.079617	3
182.091804	12
182.984328	2
187.125577	1
198.078436	1
198.082648	2
198.086861	167
198.089494	2
198.090547	1
198.091600	1
198.094233	1
198.095813	1
199.028604	1
199.089609	8
199.179311	1
210.086829	10
223.063237	1
226.934472	1
227.053331	1
227.091464	1
227.096635	2
227.103099	3
227.107625	5
227.112796	545
227.117322	4
227.119261	5
227.121847	2
227.124434	2
227.127020	1
227.128959	1
227.130252	1
227.172931	2
227.221445	1
227.291979	1
228.110364	4
228.116221	50
229.117139	1
229.119104	1
254.071662	1
282.221186	1
297.075648	1
391.282894	18
392.284786	2
453.219066	13
453.226356	1
454.221254	1
