Mass spectrum: Spermine; LC-ESI-ITFT; MS; POS
Name: Spermine
Name: N,N'-Bis(3-aminopropyl)-1,4-butanediamine
Class: Natural Product
Formula: C10H26N4
Exact mass: 202.21575
SMILES: NCCCNCCCCNCCCN
InChI: InChI=1S/C10H26N4/c11-5-3-9-13-7-1-2-8-14-10-4-6-12/h13-14H,1-12H2
Instrument: LTQ Orbitrap XL, Thermo Scientfic
Instrument type: LC-ESI-ITFT
Ms type: MS
Ion mode: POSITIVE
Collision energy: 35eV
Ionization: ESI
Column name: TOSOH TSKgel ODS-100V  5um Part no. 21456
Retention time: 3.274592 min
Base peak: 102.114906
m/z	relative intensity
100.111848	1
101.816254	1
102.016229	1
102.061008	2
102.082045	1
102.093345	1
102.097047	5
102.099580	1
102.100360	1
102.100944	1
102.102698	1
102.103478	1
102.104647	1
102.105232	1
102.105816	1
102.107180	1
102.108350	1
102.108740	1
102.109714	2
102.110299	2
102.111663	8
102.113417	18
102.114976	999
102.116146	16
102.116731	16
102.118095	8
102.119070	2
102.119849	2
102.120629	1
102.121409	1
102.122578	1
102.123748	1
102.124917	1
102.126087	1
102.126867	1
102.128036	1
102.129206	1
102.129986	1
102.130766	1
102.132910	5
102.137005	1
102.147924	1
102.168792	2
102.213867	1
102.414819	1
102.612635	1
102.613617	8
102.614598	2
102.616365	95
102.617543	2
102.618132	2
102.619507	1
103.117896	2
112.107981	1
112.109999	2
112.111793	96
112.113138	1
112.113811	1
113.114905	3
129.112792	1
129.133578	1
129.136072	2
129.136904	2
129.138290	148
129.140230	2
129.140784	2
129.143002	1
129.163795	1
130.141429	7
139.981382	1
141.138451	1
141.958171	2
146.134188	1
146.159217	1
146.160552	1
146.162221	2
146.164891	156
146.167227	2
146.167895	2
146.170565	1
146.195604	1
147.168028	6
149.022561	2
149.023935	1
158.002177	1
158.960868	1
163.132278	4
170.095866	1
171.149125	26
172.151599	1
174.127150	7
179.063200	1
182.984328	4
186.195422	1
186.196382	1
186.955501	1
187.125577	3
199.179842	2
202.385211	1
203.071635	1
203.172247	2
203.205619	1
203.207807	1
203.209996	1
203.213279	3
203.218203	8
203.219845	6
203.222581	576
203.225864	6
203.227506	6
203.231884	3
203.236262	1
203.240640	1
203.272934	2
203.373695	1
203.500301	1
204.219419	3
204.226034	52
204.229342	1
204.230996	1
205.228608	1
223.062608	4
233.173293	1
279.157671	1
297.252717	8
297.256589	1
297.753816	2
298.255211	1
391.282894	46
392.286254	6
393.289058	1
426.356690	1
436.341219	1
441.412091	1
