Mass spectrum: L-Aspartic acid; LC-ESI-ITFT; MS2; m/z:265.07; NEG
Name: L-Aspartate
Name: L-Aspartic acid
Name: 2-Aminosuccinic acid
Class: Natural Product
Formula: C4H7NO4
Exact mass: 133.03751
SMILES: OC(=O)CC(N)C(O)=O
InChI: InChI=1S/C4H7NO4/c5-2(4(8)9)1-3(6)7/h2H,1,5H2,(H,6,7)(H,8,9)/t2-/m0/s1
Instrument: LTQ Orbitrap XL, Thermo Scientfic
Instrument type: LC-ESI-ITFT
Ms type: MS2
Ion mode: NEGATIVE
Collision energy: 35eV
Ionization: ESI
Column name: TOSOH TSKgel ODS-100V  5um Part no. 21456
Retention time: 4.762215 min
Base peak: 131.924911
Precursor m/z: 265.07
m/z	relative intensity
131.924911	999
