Mass spectrum: NAD+; LC-ESI-ITFT; MS2; m/z:662.10; NEG
Name: NAD+
Name: NAD
Name: Nicotinamide adenine dinucleotide
Name: DPN
Name: Diphosphopyridine nucleotide
Name: Nadide
Class: Natural Product
Formula: [C21H28N7O14P2]+
Exact mass: 664.11695
SMILES: NC(=O)c(c5)c[n+1](cc5)C(O1)C(O)C(O)C(COP(O)(=O)OP(O)(=O)OCC(O2)C(O)C(O)C2n(c4)c(n3)c(n4)c(N)nc3)1
InChI: InChI=1S/C21H27N7O14P2/c22-17-12-19(25-7-24-17)28(8-26-12)21-16(32)14(30)11(41-21)6-39-44(36,37)42-43(34,35)38-5-10-13(29)15(31)20(40-10)27-3-1-2-9(4-27)18(23)33/h1-4,7-8,10-11,13-16,20-21,29-32H,5-6H2,(H5-,22,23,24,25,33,34,35,36,37)/p+1/t10-,11-,13-,14-,15-,16-,20-,21-/m1/s1
Instrument: LTQ Orbitrap XL, Thermo Scientfic
Instrument type: LC-ESI-ITFT
Ms type: MS2
Ion mode: NEGATIVE
Collision energy: 35eV
Ionization: ESI
Column name: TOSOH TSKgel ODS-100V  5um Part no. 21456
Retention time: 8.894958 min
Base peak: 540.042053
Precursor m/z: 662.10
m/z	relative intensity
327.984924	4
345.762024	2
408.176270	15
426.153076	9
483.762146	1
540.042053	999
547.840454	2
594.060425	1
600.333069	1
626.243103	2
652.330444	1
