Mass spectrum: L-Isoleucine; LC-ESI-ITFT; MS; POS
Name: L-Isoleucine
Name: 2-Amino-3-methylvaleric acid
Class: Natural Product
Formula: C6H13NO2
Exact mass: 131.09463
SMILES: CC[C@H](C)[C@H](N)C(O)=O
InChI: InChI=1S/C6H13NO2/c1-3-4(2)5(7)6(8)9/h4-5H,3,7H2,1-2H3,(H,8,9)/t4-,5-/m0/s1
Instrument: LTQ Orbitrap XL, Thermo Scientfic
Instrument type: LC-ESI-ITFT
Ms type: MS
Ion mode: POSITIVE
Collision energy: 35eV
Ionization: ESI
Column name: TOSOH TSKgel ODS-100V  5um Part no. 21456
Retention time: 6.200763 min
Base peak: 132.101547
m/z	relative intensity
100.111848	7
102.033553	3
110.019746	3
111.019815	1
121.064566	3
131.662203	1
131.955182	1
132.022203	2
132.052867	1
132.074940	3
132.078381	1
132.080101	1
132.081821	1
132.086409	1
132.088130	1
132.088703	1
132.089850	1
132.090997	1
132.092718	1
132.093291	1
132.094438	3
132.095298	1
132.096732	5
132.097593	2
132.099887	13
132.101607	999
132.103041	16
132.103902	13
132.104762	4
132.106196	5
132.106770	4
132.108204	2
132.109351	2
132.109925	1
132.110498	1
132.111072	1
132.111646	1
132.112793	1
132.113940	1
132.114514	1
132.115661	1
132.116522	1
132.119677	1
132.122545	1
132.124267	1
132.127996	4
132.135742	1
132.150375	1
132.177639	1
132.181083	1
132.247990	1
132.542927	1
133.098346	1
133.102697	1
133.104727	57
133.106758	1
134.038086	1
134.105235	1
137.131699	1
138.090951	7
141.958171	1
143.039018	1
149.022904	4
154.016464	19
155.142526	1
158.002177	1
158.095628	1
163.132278	4
170.095866	1
171.137707	1
171.148702	36
172.152025	2
172.976261	1
174.127150	10
179.062747	2
182.028236	2
182.984796	4
187.126060	11
199.179842	4
220.111375	1
233.173293	1
237.125548	1
243.025554	1
261.035702	1
279.156790	1
282.189845	1
282.220291	1
294.225799	2
307.081061	1
364.266877	1
391.282894	22
392.130737	8
392.286254	3
408.292817	1
413.263556	1
436.339497	4
437.343196	1
464.370027	1
522.376832	21
523.379555	4
