Mass spectrum: DL-Isocitric acid; LC-ESI-ITFT; MS2; m/z:193.03; POS
Name: Isocitrate
Name: Isocitric acid
Name: 1-Hydroxytricarballylic acid
Name: 1-Hydroxypropane-1,2,3-tricarboxylic acid
Name: DL-Isocitric acid
Class: Natural Product
Formula: C6H8O7
Exact mass: 192.02700
SMILES: OC(=O)CC(C(O)=O)C(O)C(O)=O
InChI: InChI=1S/C6H8O7/c7-3(8)1-2(5(10)11)4(9)6(12)13/h2,4,9H,1H2,(H,7,8)(H,10,11)(H,12,13)
Instrument: LTQ Orbitrap XL, Thermo Scientfic
Instrument type: LC-ESI-ITFT
Ms type: MS2
Ion mode: POSITIVE
Collision energy: 35eV
Ionization: ESI
Column name: TOSOH TSKgel ODS-100V  5um Part no. 21456
Retention time: 8.849103 min
Base peak: 174.952713
Precursor m/z: 193.03
m/z	relative intensity
69.157845	1
87.088928	1
99.126114	1
115.215408	1
116.121292	1
119.207382	2
135.865433	4
136.952316	2
146.882004	31
151.999863	20
156.984802	22
165.269699	1
170.112396	27
172.094376	1
174.952713	999
184.694870	1
193.017899	1
194.315018	1
