Mass spectrum: L-Glutathione (oxidized form); LC-ESI-ITFT; MS2; m/z:611.15; NEG
Name: Glutathione disulfide
Name: GSSG
Name: Oxiglutatione
Name: Oxidized glutathione
Name: L-Glutathione (oxidized form)
Class: Natural Product
Formula: C20H32N6O12S2
Exact mass: 612.15196
SMILES: OC(=O)CNC(=O)[C@H](CSSC[C@H](NC(=O)CC[C@H](N)C(O)=O)C(=O)NCC(O)=O)NC(=O)CC[C@H](N)C(O)=O
InChI: InChI=1S/C20H32N6O12S2/c21-9(19(35)36)1-3-13(27)25-11(17(33)23-5-15(29)30)7-39-40-8-12(18(34)24-6-16(31)32)26-14(28)4-2-10(22)20(37)38/h9-12H,1-8,21-22H2,(H,23,33)(H,24,34)(H,25,27)(H,26,28)(H,29,30)(H,31,32)(H,35,36)(H,37,38)/t9-,10-,11-,12-/m0/s1
Instrument: LTQ Orbitrap XL, Thermo Scientfic
Instrument type: LC-ESI-ITFT
Ms type: MS2
Ion mode: NEGATIVE
Collision energy: 35eV
Ionization: ESI
Column name: TOSOH TSKgel ODS-100V  5um Part no. 21456
Retention time: 8.895312 min
Base peak: 306.122314
Precursor m/z: 611.15
m/z	relative intensity
177.113205	1
179.141342	33
183.290466	1
185.057465	4
192.110931	4
193.280167	1
197.176010	7
210.187241	33
226.226974	3
229.175720	1
236.063599	2
254.131805	150
272.111389	399
286.158905	8
288.219330	62
304.171783	158
306.122314	999
320.098511	6
338.027161	434
352.992188	1
361.185974	1
464.137146	14
482.156433	411
482.766663	2
531.338257	1
536.112061	1
575.119141	8
593.164978	189
594.326843	1
