Mass spectrum: Perfluorohexanesulfonic acid; LC-ESI-QFT; MS2; CE:40; R=30000; [M-H]-
Name: Perfluorohexanesulfonic acid
Name: 1,1,2,2,3,3,4,4,5,5,6,6,6-tridecafluorohexane-1-sulfonic acid
Class: Perfluoroalkyl Acids; Organosulfonic acid; PFAS
Formula: C6HF13O3S
Exact mass: 399.9439
SMILES: OS(=O)(=O)C(F)(F)C(F)(F)C(F)(F)C(F)(F)C(F)(F)C(F)(F)F
InChI: InChI=1S/C6HF13O3S/c7-1(8,3(11,12)5(15,16)17)2(9,10)4(13,14)6(18,19)23(20,21)22/h(H,20,21,22)
Instrument: QExactive Orbitrap HF-X (Thermo Scientific)
Instrument type: LC-ESI-QFT
Ms type: MS2
Ion mode: NEGATIVE
Ionization: ESI
Collision energy: 40
Column name: Acquity UPLC BEH C18, 3.0 x 100 mm, 1.7 um, Waters
Ion type: [M-H]-
m/z	relative intensity
79.95764	307.078
81.95338	20.22
81.96174	19.985
98.95605	94.043
398.93799	999
