Mass spectrum: Perfluorononanoic acid; LC-ESI-QFT; MS2; CE:40; R=30000; [M-H]-
Name: Perfluorononanoic acid
Name: 2,2,3,3,4,4,5,5,6,6,7,7,8,8,9,9,9-heptadecafluorononanoic acid
Class: Perfluoroalkyl Acids; Carboxylic acid; Fluoroalkanoic acid; PFAS
Formula: C9HF17O2
Exact mass: 463.9705
SMILES: O=C(O)C(F)(F)C(F)(F)C(F)(F)C(F)(F)C(F)(F)C(F)(F)C(F)(F)C(F)(F)F
InChI: InChI=1S/C9HF17O2/c10-2(11,1(27)28)3(12,13)4(14,15)5(16,17)6(18,19)7(20,21)8(22,23)9(24,25)26/h(H,27,28)
Instrument: QExactive Orbitrap HF-X (Thermo Scientific)
Instrument type: LC-ESI-QFT
Ms type: MS2
Ion mode: NEGATIVE
Ionization: ESI
Collision energy: 40
Column name: Acquity UPLC BEH C18, 3.0 x 100 mm, 1.7 um, Waters
Ion type: [M-H]-
m/z	relative intensity
57.03452	1.107
59.01373	323.365
79.95746	756.824
98.95577	266.677
118.99274	45.679
168.98972	922.162
169.99307	28.251
171.99971	167.574
218.98557	999
219.98918	41.864
223.00064	179.031
268.98419	171.937
269.98602	46.965
272.99713	39.402
313.23853	45.297
330.97961	46.174
418.97455	429.114
419.97504	35.888
422.98511	190.745
