Mass spectrum: 4-Methyl-2-nitrophenol; LC-ESI-QFT; MS2; CE:40; R=30000; [M-H]-
Name: 4-Methyl-2-nitrophenol
Name: Nitrocresol
Class: Nitrophenols; Benzene Derivatives; Cresols
Formula: C7H7NO3
Exact mass: 153.0426
SMILES: Cc1cc(c(cc1)O)[N+](=O)[O-]
InChI: InChI=1S/C7H7NO3/c1-5-2-3-7(9)6(4-5)8(10)11/h2-4,9H,1H3
Instrument: QExactive Orbitrap HF-X (Thermo Scientific)
Instrument type: LC-ESI-QFT
Ms type: MS2
Ion mode: NEGATIVE
Ionization: ESI
Collision energy: 40
Column name: Acquity UPLC BEH C18, 3.0 x 100 mm, 1.7 um, Waters
Ion type: [M-H]-
m/z	relative intensity
121.02934	36.502
122.0318	993.918
122.03759	999
123.04094	76.731
152.03542	718.248
