Mass spectrum: Perfluoroheptanoic acid; LC-ESI-QFT; MS2; CE:40; R=30000; [M-H]-
Name: Perfluoroheptanoic acid
Name: 2,2,3,3,4,4,5,5,6,6,7,7,7-tridecafluoroheptanoic acid
Class: Perfluoroalkyl Acids; Carboxylic acid; Fluoroalkanoic acid; PFAS
Formula: C7HF13O2
Exact mass: 363.9769
SMILES: O=C(O)C(F)(F)C(F)(F)C(F)(F)C(F)(F)C(F)(F)C(F)(F)F
InChI: InChI=1S/C7HF13O2/c8-2(9,1(21)22)3(10,11)4(12,13)5(14,15)6(16,17)7(18,19)20/h(H,21,22)
Instrument: QExactive Orbitrap HF-X (Thermo Scientific)
Instrument type: LC-ESI-QFT
Ms type: MS2
Ion mode: NEGATIVE
Ionization: ESI
Collision energy: 40
Column name: Acquity UPLC BEH C18, 3.0 x 100 mm, 1.7 um, Waters
Ion type: [M-H]-
m/z	relative intensity
59.0138	34.248
61.98833	17.045
79.95764	36.747
98.95604	33.842
118.99256	313.957
130.99248	32.375
168.98932	999
169.99268	32.621
180.9895	29.266
230.9859	57.752
296.97903	14.097
318.97849	301.059
319.98373	19.457
