Mass spectrum: 2-Nitrophenol; LC-ESI-QFT; MS2; CE:40; R=30000; [M-H]-
Name: 2-Nitrophenol
Name: Mononitrophenol
Class: Benzene Derivatives; Phenols; Nitrophenols
Formula: C6H5NO3
Exact mass: 139.0269
SMILES: Oc1ccccc1[N+]([O-])=O
InChI: InChI=1S/C6H5NO3/c8-6-4-2-1-3-5(6)7(9)10/h1-4,8H
Instrument: QExactive Orbitrap HF-X (Thermo Scientific)
Instrument type: LC-ESI-QFT
Ms type: MS2
Ion mode: NEGATIVE
Ionization: ESI
Collision energy: 40
Column name: Acquity UPLC BEH C18, 3.0 x 100 mm, 1.7 um, Waters
Ion type: [M-H]-
m/z	relative intensity
59.00502	104.779
59.01377	104.204
65.00318	6.711
68.99598	5.299
80.02704	655.461
81.0301	34.744
91.01885	79.79
92.02216	9.997
92.02689	9.997
108.02158	999
109.02525	66.34
138.02025	803.097
