Mass spectrum: Perfluorohexanoic acid; LC-ESI-QFT; MS2; CE:40; R=30000; [M-H]-
Name: Perfluorohexanoic acid
Name: 2,2,3,3,4,4,5,5,6,6,6-undecafluorohexanoic acid
Class: Perfluoroalkyl Acids; Caproates; Carboxylic acid; Fluoroalkanoic acid; PFAS
Formula: C6HF11O2
Exact mass: 313.9801
SMILES: O=C(O)C(F)(F)C(F)(F)C(F)(F)C(F)(F)C(F)(F)F
InChI: InChI=1S/C6HF11O2/c7-2(8,1(18)19)3(9,10)4(11,12)5(13,14)6(15,16)17/h(H,18,19)
Instrument: QExactive Orbitrap HF-X (Thermo Scientific)
Instrument type: LC-ESI-QFT
Ms type: MS2
Ion mode: NEGATIVE
Ionization: ESI
Collision energy: 40
Column name: Acquity UPLC BEH C18, 3.0 x 100 mm, 1.7 um, Waters
Ion type: [M-H]-
m/z	relative intensity
59.0137	45.106
61.98823	118.404
68.99586	40.447
101.00203	27.691
103.9769	52.152
118.99278	620.203
119.9961	127.043
263.20142	13.522
268.98373	999
269.9859	502.424
279.15671	33.812
282.99637	24.315
299.02551	23.552
312.97418	40.053
