Mass spectrum: Benzophenone-3; LC-ESI-QTOF; MS2; CE: 40.0V; [M+H]+
Name: Benzophenone-3
Name: Oxybenzone
Formula: C14H12O3
Exact mass: 228.07865
SMILES: COc1ccc(c(c1)O)C(=O)c2ccccc2
InChI: InChI=1S/C14H12O3/c1-17-11-7-8-12(13(15)9-11)14(16)10-5-3-2-4-6-10/h2-9,15H,1H3
Instrument: 6550 Q-TOF (Agilent Technologies)
Instrument type: LC-ESI-QTOF
Ms type: MS2
Ion mode: POSITIVE
Collision energy: 40.0V
Resolution: 12000 (m/z 120) - 26000 (m/z 1000)
Column name: Flow injection
Precursor m/z: 229.08593
Precursor type: [M+H]+
m/z	relative intensity
41.0381	92
43.0170	8
51.0225	54
52.0306	68
55.0177	22
57.0695	9
65.0387	210
67.0543	93
68.9969	26
77.0386	999
80.0256	100
93.0335	37
95.0491	549
105.0333	246
108.0204	218
123.0438	54
136.0155	12
140.0608	8
151.0387	470
