Mass spectrum: Benzophenone-1; LC-ESI-QTOF; MS2; CE: 40.0V; [M+H]+
Name: Benzophenone-1
Name: 2,4-dihydroxybenzophenone
Formula: C13H10O3
Exact mass: 214.06300
SMILES: c1ccc(cc1)C(=O)c2ccc(cc2O)O
InChI: InChI=1S/C13H10O3/c14-10-6-7-11(12(15)8-10)13(16)9-4-2-1-3-5-9/h1-8,14-15H
Instrument: 6550 Q-TOF (Agilent Technologies)
Instrument type: LC-ESI-QTOF
Ms type: MS2
Ion mode: POSITIVE
Collision energy: 40.0V
Resolution: 12000 (m/z 120) - 26000 (m/z 1000)
Column name: Flow injection
Precursor m/z: 215.07028
Precursor type: [M+H]+
m/z	relative intensity
51.0227	49
53.0384	284
68.9970	137
70.9576	33
72.9370	50
77.0385	635
81.0336	999
105.0334	106
109.0282	100
113.9631	21
114.9478	10
115.0537	21
137.0232	511
