Mass spectrum: Metformin; LC-ESI-QTOF; MS2; CE: 40.0V; [M+H]+
Name: Metformin
Formula: C4H11N5
Exact mass: 129.10145
SMILES: CN(C)C(=N)NC(=N)N
InChI: InChI=1S/C4H11N5/c1-9(2)4(7)8-3(5)6/h1-2H3,(H5,5,6,7,8)
Instrument: 6550 Q-TOF (Agilent Technologies)
Instrument type: LC-ESI-QTOF
Ms type: MS2
Ion mode: POSITIVE
Collision energy: 40.0V
Resolution: 12000 (m/z 120) - 26000 (m/z 1000)
Column name: Flow injection
Precursor m/z: 130.10873
Precursor type: [M+H]+
m/z	relative intensity
42.0333	85
43.0287	617
44.0491	194
46.0648	304
55.0290	290
56.0369	375
57.0448	24
60.0556	49
68.0243	481
71.0605	999
85.0510	18
