Mass spectrum: Benzophenone-8; LC-ESI-QTOF; MS2; CE: 40.0V; [M+H]+
Name: Benzophenone-8
Name: Dioxybenzone
Formula: C14H12O4
Exact mass: 244.07356
SMILES: COc1ccc(c(c1)O)C(=O)c2ccccc2O
InChI: InChI=1S/C14H12O4/c1-18-9-6-7-11(13(16)8-9)14(17)10-4-2-3-5-12(10)15/h2-8,15-16H,1H3
Instrument: 6550 Q-TOF (Agilent Technologies)
Instrument type: LC-ESI-QTOF
Ms type: MS2
Ion mode: POSITIVE
Collision energy: 40.0V
Resolution: 12000 (m/z 120) - 26000 (m/z 1000)
Column name: Flow injection
Precursor m/z: 245.08084
Precursor type: [M+H]+
m/z	relative intensity
39.0223	43
41.0380	38
43.0165	8
51.0232	8
52.0304	30
55.0175	9
58.9785	15
65.0388	999
65.0728	10
67.0542	48
68.9968	9
77.0384	20
80.0258	35
83.9990	9
93.0336	529
95.0490	283
102.9673	36
108.0204	88
121.0284	744
123.0431	16
128.0608	16
139.0549	7
151.0387	236
