Mass spectrum: Benzophenone-3; LC-ESI-QTOF; MS2; CE: 10.0V; [M+H]+
Name: Benzophenone-3
Name: Oxybenzone
Formula: C14H12O3
Exact mass: 228.07865
SMILES: COc1ccc(c(c1)O)C(=O)c2ccccc2
InChI: InChI=1S/C14H12O3/c1-17-11-7-8-12(13(15)9-11)14(16)10-5-3-2-4-6-10/h2-9,15H,1H3
Instrument: 6550 Q-TOF (Agilent Technologies)
Instrument type: LC-ESI-QTOF
Ms type: MS2
Ion mode: POSITIVE
Collision energy: 10.0V
Resolution: 12000 (m/z 120) - 26000 (m/z 1000)
Column name: Flow injection
Precursor m/z: 229.08593
Precursor type: [M+H]+
m/z	relative intensity
77.0387	13
105.0335	194
151.0389	439
229.0861	999
