Mass spectrum: 5-Methylbenzotriazole; LC-ESI-QTOF; MS2; CE: 20.0V; [M+H]+
Name: 5-Methylbenzotriazole
Formula: C7H7N3
Exact mass: 133.06400
SMILES: Cc1ccc2c(c1)[nH]nn2
InChI: InChI=1S/C7H7N3/c1-5-2-3-6-7(4-5)9-10-8-6/h2-4H,1H3,(H,8,9,10)
Instrument: 6550 Q-TOF (Agilent Technologies)
Instrument type: LC-ESI-QTOF
Ms type: MS2
Ion mode: POSITIVE
Collision energy: 20.0V
Resolution: 12000 (m/z 120) - 26000 (m/z 1000)
Column name: Flow injection
Precursor m/z: 134.07128
Precursor type: [M+H]+
m/z	relative intensity
51.0226	31
53.0385	14
65.0386	7
66.0338	9
66.0463	25
67.0419	27
77.0387	999
78.0340	38
78.0449	7
79.0543	929
80.0494	37
89.0385	29
91.0415	31
106.0651	252
134.0712	902
