Mass spectrum: Bisoprolol; LC-ESI-QTOF; MS2; CE: 10.0V; [M+H]+
Name: Bisoprolol
Formula: C18H31NO4
Exact mass: 325.22531
SMILES: CC(C)NCC(COc1ccc(cc1)COCCOC(C)C)O
InChI: InChI=1S/C18H31NO4/c1-14(2)19-11-17(20)13-23-18-7-5-16(6-8-18)12-21-9-10-22-15(3)4/h5-8,14-15,17,19-20H,9-13H2,1-4H3
Instrument: 6550 Q-TOF (Agilent Technologies)
Instrument type: LC-ESI-QTOF
Ms type: MS2
Ion mode: POSITIVE
Collision energy: 10.0V
Resolution: 12000 (m/z 120) - 26000 (m/z 1000)
Column name: Flow injection
Precursor m/z: 326.23259
Precursor type: [M+H]+
m/z	relative intensity
74.0601	22
116.1071	264
222.1489	15
326.2331	999
