Mass spectrum: Metoprolol; LC-ESI-QTOF; MS2; CE: 40.0V; [M+H]+
Name: Metoprolol
Formula: C15H25NO3
Exact mass: 267.18344
SMILES: CC(C)NCC(COc1ccc(cc1)CCOC)O
InChI: InChI=1S/C15H25NO3/c1-12(2)16-10-14(17)11-19-15-6-4-13(5-7-15)8-9-18-3/h4-7,12,14,16-17H,8-11H2,1-3H3
Instrument: 6550 Q-TOF (Agilent Technologies)
Instrument type: LC-ESI-QTOF
Ms type: MS2
Ion mode: POSITIVE
Collision energy: 40.0V
Resolution: 12000 (m/z 120) - 26000 (m/z 1000)
Column name: Flow injection
Precursor m/z: 268.19072
Precursor type: [M+H]+
m/z	relative intensity
41.0381	75
43.0174	63
43.0538	235
44.0491	36
45.0332	56
55.0178	57
56.0495	999
57.0335	28
58.0653	141
65.0390	7
72.0808	252
74.0602	472
77.0387	218
79.0543	182
84.0808	34
91.0542	283
93.0698	85
98.0963	56
100.1121	32
103.0543	463
104.0614	12
105.0698	330
107.0492	13
115.0540	65
116.0620	55
116.1069	62
117.0699	23
119.0852	16
120.0566	20
121.0647	266
129.0698	36
131.0492	20
131.0854	47
133.0646	240
135.0805	70
141.0697	36
144.0568	64
147.0805	13
148.0756	51
159.0804	35
