Mass spectrum: 2-Aminobenzimidazol; LC-ESI-QTOF; MS2; CE: 20.0V; [M+H]+
Name: 2-Aminobenzimidazol
Formula: C7H7N3
Exact mass: 133.06400
SMILES: c1ccc2c(c1)[nH]c(=N)[nH]2
InChI: InChI=1S/C7H7N3/c8-7-9-5-3-1-2-4-6(5)10-7/h1-4H,(H3,8,9,10)
Instrument: 6550 Q-TOF (Agilent Technologies)
Instrument type: LC-ESI-QTOF
Ms type: MS2
Ion mode: POSITIVE
Collision energy: 20.0V
Resolution: 12000 (m/z 120) - 26000 (m/z 1000)
Column name: Flow injection
Precursor m/z: 134.07128
Precursor type: [M+H]+
m/z	relative intensity
65.0387	73
80.0494	18
92.0495	288
93.0573	60
107.0604	56
117.0447	12
133.0633	7
134.0713	999
