Mass spectrum: O-desmethylvenlafaxine; LC-ESI-QTOF; MS2; CE: 20.0V; [M+H]+
Name: O-desmethylvenlafaxine
Formula: C16H25NO2
Exact mass: 263.18853
SMILES: CN(C)CC(c1ccc(cc1)O)C2(CCCCC2)O
InChI: InChI=1S/C16H25NO2/c1-17(2)12-15(13-6-8-14(18)9-7-13)16(19)10-4-3-5-11-16/h6-9,15,18-19H,3-5,10-12H2,1-2H3
Instrument: 6550 Q-TOF (Agilent Technologies)
Instrument type: LC-ESI-QTOF
Ms type: MS2
Ion mode: POSITIVE
Collision energy: 20.0V
Resolution: 12000 (m/z 120) - 26000 (m/z 1000)
Column name: Flow injection
Precursor m/z: 264.19581
Precursor type: [M+H]+
m/z	relative intensity
46.0648	12
58.0652	999
107.0491	68
133.0645	49
145.0644	10
159.0803	18
201.1275	29
246.1854	28
