Mass spectrum: Phenylbenzimidazole sulfonic acid; LC-ESI-QTOF; MS2; CE: 40.0V; [M+H]+
Name: Phenylbenzimidazole sulfonic acid
Formula: C13H10N2O3S
Exact mass: 274.04122
SMILES: c1ccc(cc1)c2[nH]c3cc(ccc3n2)S(=O)(=O)O
InChI: InChI=1S/C13H10N2O3S/c16-19(17,18)10-6-7-11-12(8-10)15-13(14-11)9-4-2-1-3-5-9/h1-8H,(H,14,15)(H,16,17,18)
Instrument: 6550 Q-TOF (Agilent Technologies)
Instrument type: LC-ESI-QTOF
Ms type: MS2
Ion mode: POSITIVE
Collision energy: 40.0V
Resolution: 12000 (m/z 120) - 26000 (m/z 1000)
Column name: Flow injection
Precursor m/z: 275.04850
Precursor type: [M+H]+
m/z	relative intensity
64.0303	6
66.0466	7
79.0413	14
80.0489	34
81.0329	26
90.0458	20
91.0418	26
92.0495	34
104.0486	20
108.0442	52
139.0530	6
154.0637	6
166.0649	39
167.0729	32
168.0804	6
182.0841	30
193.0760	272
194.0838	999
194.1395	9
195.0919	112
211.0866	39
275.0485	73
