Mass spectrum: Gabapentin; LC-ESI-QTOF; MS2; CE: 20.0V; [M+H]+
Name: Gabapentin
Formula: C9H17NO2
Exact mass: 171.12593
SMILES: C1CCC(CC1)(CC(=O)O)CN
InChI: InChI=1S/C9H17NO2/c10-7-9(6-8(11)12)4-2-1-3-5-9/h1-7,10H2,(H,11,12)
Instrument: 6550 Q-TOF (Agilent Technologies)
Instrument type: LC-ESI-QTOF
Ms type: MS2
Ion mode: POSITIVE
Collision energy: 20.0V
Resolution: 12000 (m/z 120) - 26000 (m/z 1000)
Column name: Flow injection
Precursor m/z: 172.13321
Precursor type: [M+H]+
m/z	relative intensity
41.0377	7
43.0537	11
55.0177	999
55.0535	28
57.0337	7
67.0543	369
69.0697	19
73.0282	8
77.0384	9
79.0543	16
80.0491	6
81.0697	42
83.0844	7
91.0540	246
93.0699	218
95.0488	12
95.0853	681
98.9750	21
109.0640	7
109.1009	319
110.0962	66
112.1118	18
117.0698	6
119.0854	416
126.1275	47
136.1118	99
137.0960	802
154.1226	746
155.1063	20
172.1331	50
