Mass spectrum: Atenolol; LC-ESI-QTOF; MS2; CE: 10.0V; [M+H]+
Name: Atenolol
Formula: C14H22N2O3
Exact mass: 266.16304
SMILES: CC(C)NCC(COc1ccc(cc1)CC(=O)N)O
InChI: InChI=1S/C14H22N2O3/c1-10(2)16-8-12(17)9-19-13-5-3-11(4-6-13)7-14(15)18/h3-6,10,12,16-17H,7-9H2,1-2H3,(H2,15,18)
Instrument: 6550 Q-TOF (Agilent Technologies)
Instrument type: LC-ESI-QTOF
Ms type: MS2
Ion mode: POSITIVE
Collision energy: 10.0V
Resolution: 12000 (m/z 120) - 26000 (m/z 1000)
Column name: Flow injection
Precursor m/z: 267.17032
Precursor type: [M+H]+
m/z	relative intensity
72.0808	12
74.0602	17
98.0963	6
116.1071	17
145.0648	12
190.0864	31
225.1237	31
267.1709	999
