Mass spectrum: 4-Methylbenzotriazole; LC-ESI-QTOF; MS2; CE: 40.0V; [M-H]-
Name: 4-Methylbenzotriazole
Formula: C7H7N3
Exact mass: 133.06400
SMILES: Cc1cccc2c1[nH]nn2
InChI: InChI=1S/C7H7N3/c1-5-3-2-4-6-7(5)9-10-8-6/h2-4H,1H3,(H,8,9,10)
Instrument: 6550 Q-TOF (Agilent Technologies)
Instrument type: LC-ESI-QTOF
Ms type: MS2
Ion mode: NEGATIVE
Collision energy: 40.0V
Resolution: 12000 (m/z 120) - 26000 (m/z 1000)
Column name: Flow injection
Precursor m/z: 132.05672
Precursor type: [M-H]-
m/z	relative intensity
39.0228	32
40.0184	284
42.0088	49
49.0078	77
50.0033	999
51.0236	104
52.0184	41
63.0113	328
63.0251	17
64.0192	105
78.0349	24
88.0192	760
89.0268	173
90.0344	35
102.0351	34
103.0427	119
104.0493	35
132.0566	28
