Mass spectrum: 2,6-Xylidine; LC-ESI-QTOF; MS2; CE: 20.0V; [M+H]+
Name: 2,6-Xylidine
Formula: C8H11N
Exact mass: 121.08915
SMILES: Cc1cccc(c1N)C
InChI: InChI=1S/C8H11N/c1-6-4-3-5-7(2)8(6)9/h3-5H,9H2,1-2H3
Instrument: 6550 Q-TOF (Agilent Technologies)
Instrument type: LC-ESI-QTOF
Ms type: MS2
Ion mode: POSITIVE
Collision energy: 20.0V
Resolution: 12000 (m/z 120) - 26000 (m/z 1000)
Column name: Flow injection
Precursor m/z: 122.09643
Precursor type: [M+H]+
m/z	relative intensity
40.4934	23
51.0224	28
67.0293	14
68.0323	31
77.0387	434
79.0542	484
94.0401	18
95.0394	14
95.0433	77
103.0540	288
105.0699	999
106.0653	58
107.0727	318
120.0803	28
122.0959	245
