Mass spectrum: Benzophenone-2; LC-ESI-QTOF; MS2; CE: 10.0V; [M+H]+
Name: Benzophenone-2
Name: 2,2',4,4'-tetrahydroxybenzophenone
Formula: C13H10O5
Exact mass: 246.05282
SMILES: c1cc(c(cc1O)O)C(=O)c2ccc(cc2O)O
InChI: InChI=1S/C13H10O5/c14-7-1-3-9(11(16)5-7)13(18)10-4-2-8(15)6-12(10)17/h1-6,14-17H
Instrument: 6550 Q-TOF (Agilent Technologies)
Instrument type: LC-ESI-QTOF
Ms type: MS2
Ion mode: POSITIVE
Collision energy: 10.0V
Resolution: 12000 (m/z 120) - 26000 (m/z 1000)
Column name: Flow injection
Precursor m/z: 247.06010
Precursor type: [M+H]+
m/z	relative intensity
81.0337	17
104.9922	602
124.0867	286
137.0233	999
137.0713	6
164.9211	54
165.0000	8
206.1412	7
247.0605	595
