Mass spectrum: 2,6-Xylidine; LC-ESI-QTOF; MS2; CE: 40.0V; [M+H]+
Name: 2,6-Xylidine
Formula: C8H11N
Exact mass: 121.08915
SMILES: Cc1cccc(c1N)C
InChI: InChI=1S/C8H11N/c1-6-4-3-5-7(2)8(6)9/h3-5H,9H2,1-2H3
Instrument: 6550 Q-TOF (Agilent Technologies)
Instrument type: LC-ESI-QTOF
Ms type: MS2
Ion mode: POSITIVE
Collision energy: 40.0V
Resolution: 12000 (m/z 120) - 26000 (m/z 1000)
Column name: Flow injection
Precursor m/z: 122.09643
Precursor type: [M+H]+
m/z	relative intensity
39.0221	65
40.0169	26
40.0184	20
41.0206	16
41.0375	15
50.0145	19
51.0227	667
52.0180	18
53.0378	64
65.0388	67
66.0465	31
67.0290	84
68.0323	77
77.0386	999
78.0452	28
79.0541	116
95.0427	31
103.0541	62
105.0705	16
106.0651	107
