Mass spectrum: Atenolol; LC-ESI-QTOF; MS2; CE: 40.0V; [M+H]+
Name: Atenolol
Formula: C14H22N2O3
Exact mass: 266.16304
SMILES: CC(C)NCC(COc1ccc(cc1)CC(=O)N)O
InChI: InChI=1S/C14H22N2O3/c1-10(2)16-8-12(17)9-19-13-5-3-11(4-6-13)7-14(15)18/h3-6,10,12,16-17H,7-9H2,1-2H3,(H2,15,18)
Instrument: 6550 Q-TOF (Agilent Technologies)
Instrument type: LC-ESI-QTOF
Ms type: MS2
Ion mode: POSITIVE
Collision energy: 40.0V
Resolution: 12000 (m/z 120) - 26000 (m/z 1000)
Column name: Flow injection
Precursor m/z: 267.17032
Precursor type: [M+H]+
m/z	relative intensity
41.0381	68
43.0539	208
44.0130	21
44.0490	21
55.0174	9
56.0495	999
57.0335	20
58.0652	92
72.0809	208
74.0603	484
77.0385	82
79.0543	68
82.9976	25
84.0808	24
89.0387	125
91.0541	250
93.0699	103
94.0650	11
98.0965	38
100.1120	18
103.0543	28
105.0700	116
106.0651	101
107.0491	217
115.0541	146
116.0497	57
116.1070	36
117.0335	36
117.0697	170
119.0490	125
119.0843	6
121.0646	121
122.0603	21
127.0540	39
131.0490	14
133.0647	410
134.0601	121
141.0045	8
144.0571	17
144.0805	7
145.0648	843
147.0440	44
162.0908	9
164.0704	17
178.0861	10
