Mass spectrum: Sotalol; LC-ESI-QTOF; MS2; CE: 20.0V; [M+H]+
Name: Sotalol
Formula: C12H20N2O3S
Exact mass: 272.11947
SMILES: CC(C)NCC(c1ccc(cc1)NS(=O)(=O)C)O
InChI: InChI=1S/C12H20N2O3S/c1-9(2)13-8-12(15)10-4-6-11(7-5-10)14-18(3,16)17/h4-7,9,12-15H,8H2,1-3H3
Instrument: 6550 Q-TOF (Agilent Technologies)
Instrument type: LC-ESI-QTOF
Ms type: MS2
Ion mode: POSITIVE
Collision energy: 20.0V
Resolution: 12000 (m/z 120) - 26000 (m/z 1000)
Column name: Flow injection
Precursor m/z: 273.12675
Precursor type: [M+H]+
m/z	relative intensity
43.0538	20
106.0650	42
107.0728	20
117.0571	11
118.0650	14
133.0760	636
134.0839	217
176.1307	191
213.0695	999
255.1165	361
