Mass spectrum: Benzophenone-1; LC-ESI-QTOF; MS2; CE: 20.0V; [M-H]-
Name: Benzophenone-1
Name: 2,4-dihydroxybenzophenone
Formula: C13H10O3
Exact mass: 214.06300
SMILES: c1ccc(cc1)C(=O)c2ccc(cc2O)O
InChI: InChI=1S/C13H10O3/c14-10-6-7-11(12(15)8-10)13(16)9-4-2-1-3-5-9/h1-8,14-15H
Instrument: 6550 Q-TOF (Agilent Technologies)
Instrument type: LC-ESI-QTOF
Ms type: MS2
Ion mode: NEGATIVE
Collision energy: 20.0V
Resolution: 12000 (m/z 120) - 26000 (m/z 1000)
Column name: Flow injection
Precursor m/z: 213.05572
Precursor type: [M-H]-
m/z	relative intensity
41.0026	37
49.0080	6
65.0031	14
77.0395	23
91.0190	753
121.0291	21
135.0088	999
141.0707	20
143.0501	22
169.0659	417
171.0450	27
213.0558	634
