Mass spectrum: Sulfamethoxazole; LC-ESI-QTOF; MS2; CE: 40.0V; [M+H]+
Name: Sulfamethoxazole
Formula: C10H11N3O3S
Exact mass: 253.05211
SMILES: Cc1cc(no1)NS(=O)(=O)c2ccc(cc2)N
InChI: InChI=1S/C10H11N3O3S/c1-7-6-10(12-16-7)13-17(14,15)9-4-2-8(11)3-5-9/h2-6H,11H2,1H3,(H,12,13)
Instrument: 6550 Q-TOF (Agilent Technologies)
Instrument type: LC-ESI-QTOF
Ms type: MS2
Ion mode: POSITIVE
Collision energy: 40.0V
Resolution: 12000 (m/z 120) - 26000 (m/z 1000)
Column name: Flow injection
Precursor m/z: 254.05939
Precursor type: [M+H]+
m/z	relative intensity
39.0223	19
44.0491	61
53.0384	12
65.0387	827
66.0336	10
66.0459	13
72.0444	20
80.0495	237
92.0495	999
93.0574	206
94.0647	6
99.0553	62
107.0602	28
108.0443	575
131.0602	6
146.0712	32
147.0783	13
160.0876	9
