Mass spectrum: Lidocaine; LC-ESI-QTOF; MS2; CE: 10.0V; [M+H]+
Name: Lidocaine
Name: Lignocaine
Formula: C14H22N2O
Exact mass: 234.17321
SMILES: CCN(CC)C/C(=N\c1c(cccc1C)C)/O
InChI: InChI=1S/C14H22N2O/c1-5-16(6-2)10-13(17)15-14-11(3)8-7-9-12(14)4/h7-9H,5-6,10H2,1-4H3,(H,15,17)
Instrument: 6550 Q-TOF (Agilent Technologies)
Instrument type: LC-ESI-QTOF
Ms type: MS2
Ion mode: POSITIVE
Collision energy: 10.0V
Resolution: 12000 (m/z 120) - 26000 (m/z 1000)
Column name: Flow injection
Precursor m/z: 235.18049
Precursor type: [M+H]+
m/z	relative intensity
58.0653	10
86.0966	999
235.1810	752
