Mass spectrum: 5-Methylbenzotriazole; LC-ESI-QTOF; MS2; CE: 40.0V; [M+H]+
Name: 5-Methylbenzotriazole
Formula: C7H7N3
Exact mass: 133.06400
SMILES: Cc1ccc2c(c1)[nH]nn2
InChI: InChI=1S/C7H7N3/c1-5-2-3-6-7(4-5)9-10-8-6/h2-4H,1H3,(H,8,9,10)
Instrument: 6550 Q-TOF (Agilent Technologies)
Instrument type: LC-ESI-QTOF
Ms type: MS2
Ion mode: POSITIVE
Collision energy: 40.0V
Resolution: 12000 (m/z 120) - 26000 (m/z 1000)
Column name: Flow injection
Precursor m/z: 134.07128
Precursor type: [M+H]+
m/z	relative intensity
39.0224	48
41.0256	13
42.0333	9
50.0148	6
51.0227	593
52.0180	10
52.0302	6
53.0385	91
54.0338	23
63.0230	71
64.0309	37
65.0387	22
66.0337	17
66.0460	19
67.0417	43
77.0387	999
78.0339	17
78.0461	23
79.0542	66
80.0494	22
89.0388	9
91.0416	51
104.0495	25
