Mass spectrum: Benzophenone-8; LC-ESI-QTOF; MS2; CE: 20.0V; [M-H]-
Name: Benzophenone-8
Name: Dioxybenzone
Formula: C14H12O4
Exact mass: 244.07356
SMILES: COc1ccc(c(c1)O)C(=O)c2ccccc2O
InChI: InChI=1S/C14H12O4/c1-18-9-6-7-11(13(16)8-9)14(17)10-4-2-3-5-12(10)15/h2-8,15-16H,1H3
Instrument: 6550 Q-TOF (Agilent Technologies)
Instrument type: LC-ESI-QTOF
Ms type: MS2
Ion mode: NEGATIVE
Collision energy: 20.0V
Resolution: 12000 (m/z 120) - 26000 (m/z 1000)
Column name: Flow injection
Precursor m/z: 243.06628
Precursor type: [M-H]-
m/z	relative intensity
93.0346	999
108.0215	203
123.0450	817
184.0526	18
195.0448	32
210.0323	16
211.0403	12
225.0554	19
