Mass spectrum: Benzophenone-1; LC-ESI-QTOF; MS2; CE: 10.0V; [M+H]+
Name: Benzophenone-1
Name: 2,4-dihydroxybenzophenone
Formula: C13H10O3
Exact mass: 214.06300
SMILES: c1ccc(cc1)C(=O)c2ccc(cc2O)O
InChI: InChI=1S/C13H10O3/c14-10-6-7-11(12(15)8-10)13(16)9-4-2-1-3-5-9/h1-8,14-15H
Instrument: 6550 Q-TOF (Agilent Technologies)
Instrument type: LC-ESI-QTOF
Ms type: MS2
Ion mode: POSITIVE
Collision energy: 10.0V
Resolution: 12000 (m/z 120) - 26000 (m/z 1000)
Column name: Flow injection
Precursor m/z: 215.07028
Precursor type: [M+H]+
m/z	relative intensity
57.0699	14
77.0382	7
81.0334	16
105.0335	153
137.0233	623
155.9738	9
173.9847	55
215.0706	999
