Mass spectrum: Sulfamethoxazole; LC-ESI-QTOF; MS2; CE: 10.0V; [M+H]+
Name: Sulfamethoxazole
Formula: C10H11N3O3S
Exact mass: 253.05211
SMILES: Cc1cc(no1)NS(=O)(=O)c2ccc(cc2)N
InChI: InChI=1S/C10H11N3O3S/c1-7-6-10(12-16-7)13-17(14,15)9-4-2-8(11)3-5-9/h2-6H,11H2,1H3,(H,12,13)
Instrument: 6550 Q-TOF (Agilent Technologies)
Instrument type: LC-ESI-QTOF
Ms type: MS2
Ion mode: POSITIVE
Collision energy: 10.0V
Resolution: 12000 (m/z 120) - 26000 (m/z 1000)
Column name: Flow injection
Precursor m/z: 254.05939
Precursor type: [M+H]+
m/z	relative intensity
65.0386	9
92.0494	119
93.0573	97
94.0649	22
99.0554	89
107.0604	18
108.0443	122
146.0709	24
147.0787	103
148.0867	37
156.0113	671
160.0867	51
188.0817	146
190.0971	60
194.0383	35
236.0487	21
254.0595	999
