Mass spectrum: Tramadol; LC-ESI-QTOF; MS2; CE: 10.0V; [M+H]+
Name: Tramadol
Formula: C16H25NO2
Exact mass: 263.18853
SMILES: CN(C)CC1CCCCC1(c2cccc(c2)OC)O
InChI: InChI=1S/C16H25NO2/c1-17(2)12-14-7-4-5-10-16(14,18)13-8-6-9-15(11-13)19-3/h6,8-9,11,14,18H,4-5,7,10,12H2,1-3H3
Instrument: 6550 Q-TOF (Agilent Technologies)
Instrument type: LC-ESI-QTOF
Ms type: MS2
Ion mode: POSITIVE
Collision energy: 10.0V
Resolution: 12000 (m/z 120) - 26000 (m/z 1000)
Column name: Flow injection
Precursor m/z: 264.19581
Precursor type: [M+H]+
m/z	relative intensity
58.0652	999
246.1854	11
264.1962	313
