Mass spectrum: Atenolol; LC-ESI-QTOF; MS2; CE: 20.0V; [M+H]+
Name: Atenolol
Formula: C14H22N2O3
Exact mass: 266.16304
SMILES: CC(C)NCC(COc1ccc(cc1)CC(=O)N)O
InChI: InChI=1S/C14H22N2O3/c1-10(2)16-8-12(17)9-19-13-5-3-11(4-6-13)7-14(15)18/h3-6,10,12,16-17H,7-9H2,1-2H3,(H2,15,18)
Instrument: 6550 Q-TOF (Agilent Technologies)
Instrument type: LC-ESI-QTOF
Ms type: MS2
Ion mode: POSITIVE
Collision energy: 20.0V
Resolution: 12000 (m/z 120) - 26000 (m/z 1000)
Column name: Flow injection
Precursor m/z: 267.17032
Precursor type: [M+H]+
m/z	relative intensity
43.0538	29
44.0491	9
56.0494	349
58.0653	47
60.0808	16
72.0809	476
74.0603	708
91.0541	13
98.0964	287
107.0487	20
116.1070	392
117.0693	6
119.0489	16
121.0648	31
133.0647	75
134.0604	6
145.0649	549
147.0441	22
152.0707	13
162.0913	113
163.0754	17
164.0707	113
173.0597	71
178.0864	206
180.1021	91
184.9946	38
190.0865	669
204.1386	17
207.1129	6
208.0971	259
225.1235	272
249.1599	26
250.1445	16
267.1709	999
