Mass spectrum: Gabapentin; LC-ESI-QTOF; MS2; CE: 10.0V; [M+H]+
Name: Gabapentin
Formula: C9H17NO2
Exact mass: 171.12593
SMILES: C1CCC(CC1)(CC(=O)O)CN
InChI: InChI=1S/C9H17NO2/c10-7-9(6-8(11)12)4-2-1-3-5-9/h1-7,10H2,(H,11,12)
Instrument: 6550 Q-TOF (Agilent Technologies)
Instrument type: LC-ESI-QTOF
Ms type: MS2
Ion mode: POSITIVE
Collision energy: 10.0V
Resolution: 12000 (m/z 120) - 26000 (m/z 1000)
Column name: Flow injection
Precursor m/z: 172.13321
Precursor type: [M+H]+
m/z	relative intensity
55.0177	58
67.0541	24
91.0540	17
93.0697	18
95.0853	65
98.9752	8
109.1010	34
119.0856	65
136.1115	6
137.0960	299
154.1227	999
155.1064	53
172.1332	789
