Mass spectrum: Gabapentin; LC-ESI-QTOF; MS2; CE: 40.0V; [M+H]+
Name: Gabapentin
Formula: C9H17NO2
Exact mass: 171.12593
SMILES: C1CCC(CC1)(CC(=O)O)CN
InChI: InChI=1S/C9H17NO2/c10-7-9(6-8(11)12)4-2-1-3-5-9/h1-7,10H2,(H,11,12)
Instrument: 6550 Q-TOF (Agilent Technologies)
Instrument type: LC-ESI-QTOF
Ms type: MS2
Ion mode: POSITIVE
Collision energy: 40.0V
Resolution: 12000 (m/z 120) - 26000 (m/z 1000)
Column name: Flow injection
Precursor m/z: 172.13321
Precursor type: [M+H]+
m/z	relative intensity
39.0223	14
41.0381	222
43.0171	23
43.0537	46
44.0488	26
45.0330	7
51.0228	8
53.0384	54
54.9858	6
55.0177	836
55.0541	477
57.0333	20
65.0387	87
67.0543	999
69.0698	55
71.0492	21
77.0385	190
79.0541	73
80.0490	17
80.0610	23
81.0696	85
83.0491	6
83.0854	6
91.0542	338
93.0698	132
95.0853	324
109.1016	8
119.0853	10
