Mass spectrum: Metformin; LC-ESI-QTOF; MS2; CE: 10.0V; [M+H]+
Name: Metformin
Formula: C4H11N5
Exact mass: 129.10145
SMILES: CN(C)C(=N)NC(=N)N
InChI: InChI=1S/C4H11N5/c1-9(2)4(7)8-3(5)6/h1-2H3,(H5,5,6,7,8)
Instrument: 6550 Q-TOF (Agilent Technologies)
Instrument type: LC-ESI-QTOF
Ms type: MS2
Ion mode: POSITIVE
Collision energy: 10.0V
Resolution: 12000 (m/z 120) - 26000 (m/z 1000)
Column name: Flow injection
Precursor m/z: 130.10873
Precursor type: [M+H]+
m/z	relative intensity
43.0287	19
46.0648	109
60.0557	999
71.0605	303
85.0510	168
88.0871	172
113.0821	82
130.1087	750
