Mass spectrum: Hydrochlorothiazide; LC-ESI-QTOF; MS2; CE: 10.0V; [M-H]-
Name: Hydrochlorothiazide
Formula: C7H8ClN3O4S2
Exact mass: 296.96448
SMILES: c1c2c(cc(c1Cl)S(=O)(=O)N)S(=O)(=O)NCN2
InChI: InChI=1S/C7H8ClN3O4S2/c8-4-1-5-7(2-6(4)16(9,12)13)17(14,15)11-3-10-5/h1-2,10-11H,3H2,(H2,9,12,13)
Instrument: 6550 Q-TOF (Agilent Technologies)
Instrument type: LC-ESI-QTOF
Ms type: MS2
Ion mode: NEGATIVE
Collision energy: 10.0V
Resolution: 12000 (m/z 120) - 26000 (m/z 1000)
Column name: Flow injection
Precursor m/z: 295.95720
Precursor type: [M-H]-
m/z	relative intensity
77.9654	23
204.9843	69
231.9959	11
268.9461	177
295.9570	999
