Mass spectrum: 4-Methylbenzotriazole; LC-ESI-QTOF; MS2; CE: 20.0V; [M+H]+
Name: 4-Methylbenzotriazole
Formula: C7H7N3
Exact mass: 133.06400
SMILES: Cc1cccc2c1[nH]nn2
InChI: InChI=1S/C7H7N3/c1-5-3-2-4-6-7(5)9-10-8-6/h2-4H,1H3,(H,8,9,10)
Instrument: 6550 Q-TOF (Agilent Technologies)
Instrument type: LC-ESI-QTOF
Ms type: MS2
Ion mode: POSITIVE
Collision energy: 20.0V
Resolution: 12000 (m/z 120) - 26000 (m/z 1000)
Column name: Flow injection
Precursor m/z: 134.07128
Precursor type: [M+H]+
m/z	relative intensity
39.0224	15
51.0227	38
53.0384	15
65.0387	14
66.0461	27
67.0418	22
77.0387	999
78.0343	49
79.0544	941
80.0494	35
89.0387	17
91.0414	6
106.0651	266
134.0713	990
