Mass spectrum: Benzophenone-8; LC-ESI-QTOF; MS2; CE: 10.0V; [M+H]+
Name: Benzophenone-8
Name: Dioxybenzone
Formula: C14H12O4
Exact mass: 244.07356
SMILES: COc1ccc(c(c1)O)C(=O)c2ccccc2O
InChI: InChI=1S/C14H12O4/c1-18-9-6-7-11(13(16)8-9)14(17)10-4-2-3-5-12(10)15/h2-8,15-16H,1H3
Instrument: 6550 Q-TOF (Agilent Technologies)
Instrument type: LC-ESI-QTOF
Ms type: MS2
Ion mode: POSITIVE
Collision energy: 10.0V
Resolution: 12000 (m/z 120) - 26000 (m/z 1000)
Column name: Flow injection
Precursor m/z: 245.08084
Precursor type: [M+H]+
m/z	relative intensity
65.0382	19
80.9478	7
93.0330	16
102.9678	17
121.0284	999
121.0739	10
143.9936	7
144.0313	8
151.0390	345
162.9875	7
245.0810	905
