Mass spectrum: Metoprolol; LC-ESI-QTOF; MS2; CE: 10.0V; [M+H]+
Name: Metoprolol
Formula: C15H25NO3
Exact mass: 267.18344
SMILES: CC(C)NCC(COc1ccc(cc1)CCOC)O
InChI: InChI=1S/C15H25NO3/c1-12(2)16-10-14(17)11-19-15-6-4-13(5-7-15)8-9-18-3/h4-7,12,14,16-17H,8-11H2,1-3H3
Instrument: 6550 Q-TOF (Agilent Technologies)
Instrument type: LC-ESI-QTOF
Ms type: MS2
Ion mode: POSITIVE
Collision energy: 10.0V
Resolution: 12000 (m/z 120) - 26000 (m/z 1000)
Column name: Flow injection
Precursor m/z: 268.19072
Precursor type: [M+H]+
m/z	relative intensity
72.0807	21
74.0601	21
98.0964	16
116.1070	38
191.1067	19
226.1442	7
268.1912	999
