Mass spectrum: Diethyltoluamide; LC-ESI-QTOF; MS2; CE: 10.0V; [M+H]+
Name: Diethyltoluamide
Name: DEET
Formula: C12H17NO
Exact mass: 191.13101
SMILES: CCN(CC)C(=O)c1cccc(c1)C
InChI: InChI=1S/C12H17NO/c1-4-13(5-2)12(14)11-8-6-7-10(3)9-11/h6-9H,4-5H2,1-3H3
Instrument: 6550 Q-TOF (Agilent Technologies)
Instrument type: LC-ESI-QTOF
Ms type: MS2
Ion mode: POSITIVE
Collision energy: 10.0V
Resolution: 12000 (m/z 120) - 26000 (m/z 1000)
Column name: Flow injection
Precursor m/z: 192.13829
Precursor type: [M+H]+
m/z	relative intensity
72.0445	22
91.0542	41
100.0758	40
119.0491	573
192.1385	999
