Mass spectrum: 5-Methylbenzotriazole; LC-ESI-QTOF; MS2; CE: 10.0V; [M-H]-
Name: 5-Methylbenzotriazole
Formula: C7H7N3
Exact mass: 133.06400
SMILES: Cc1ccc2c(c1)[nH]nn2
InChI: InChI=1S/C7H7N3/c1-5-2-3-6-7(4-5)9-10-8-6/h2-4H,1H3,(H,8,9,10)
Instrument: 6550 Q-TOF (Agilent Technologies)
Instrument type: LC-ESI-QTOF
Ms type: MS2
Ion mode: NEGATIVE
Collision energy: 10.0V
Resolution: 12000 (m/z 120) - 26000 (m/z 1000)
Column name: Flow injection
Precursor m/z: 132.05672
Precursor type: [M-H]-
m/z	relative intensity
102.0347	12
103.0426	47
104.0504	39
132.0567	999
