Mass spectrum: 5-Methylbenzotriazole; LC-ESI-QTOF; MS2; CE: 20.0V; [M-H]-
Name: 5-Methylbenzotriazole
Formula: C7H7N3
Exact mass: 133.06400
SMILES: Cc1ccc2c(c1)[nH]nn2
InChI: InChI=1S/C7H7N3/c1-5-2-3-6-7(4-5)9-10-8-6/h2-4H,1H3,(H,8,9,10)
Instrument: 6550 Q-TOF (Agilent Technologies)
Instrument type: LC-ESI-QTOF
Ms type: MS2
Ion mode: NEGATIVE
Collision energy: 20.0V
Resolution: 12000 (m/z 120) - 26000 (m/z 1000)
Column name: Flow injection
Precursor m/z: 132.05672
Precursor type: [M-H]-
m/z	relative intensity
39.0232	8
40.0185	15
50.0032	8
64.0192	210
89.0268	16
102.0345	94
103.0426	369
104.0505	195
132.0564	999
