Mass spectrum: Benzotriazole; LC-ESI-QTOF; MS2; CE: 20.0V; [M+H]+
Name: Benzotriazole
Formula: C6H5N3
Exact mass: 119.04835
SMILES: c1ccc2c(c1)[nH]nn2
InChI: InChI=1S/C6H5N3/c1-2-4-6-5(3-1)7-9-8-6/h1-4H,(H,7,8,9)
Instrument: 6550 Q-TOF (Agilent Technologies)
Instrument type: LC-ESI-QTOF
Ms type: MS2
Ion mode: POSITIVE
Collision energy: 20.0V
Resolution: 12000 (m/z 120) - 26000 (m/z 1000)
Column name: Flow injection
Precursor m/z: 120.05563
Precursor type: [M+H]+
m/z	relative intensity
39.0218	49
65.0380	999
66.0329	18
92.0485	242
120.0546	691
