Mass spectrum: 2,6-Xylidine; LC-ESI-QTOF; MS2; CE: 10.0V; [M+H]+
Name: 2,6-Xylidine
Formula: C8H11N
Exact mass: 121.08915
SMILES: Cc1cccc(c1N)C
InChI: InChI=1S/C8H11N/c1-6-4-3-5-7(2)8(6)9/h3-5H,9H2,1-2H3
Instrument: 6550 Q-TOF (Agilent Technologies)
Instrument type: LC-ESI-QTOF
Ms type: MS2
Ion mode: POSITIVE
Collision energy: 10.0V
Resolution: 12000 (m/z 120) - 26000 (m/z 1000)
Column name: Flow injection
Precursor m/z: 122.09643
Precursor type: [M+H]+
m/z	relative intensity
77.0382	24
79.0545	34
103.0545	9
105.0700	250
107.0728	135
122.0964	999
