Mass spectrum: Benzophenone-4; LC-ESI-QTOF; MS2; CE: 20.0V; [M-H]-
Name: Benzophenone-4
Name: Sulisobenzone
Formula: C14H12O6S
Exact mass: 308.03546
SMILES: COc1cc(c(cc1S(=O)(=O)O)C(=O)c2ccccc2)O
InChI: InChI=1S/C14H12O6S/c1-20-12-8-11(15)10(7-13(12)21(17,18)19)14(16)9-5-3-2-4-6-9/h2-8,15H,1H3,(H,17,18,19)
Instrument: 6550 Q-TOF (Agilent Technologies)
Instrument type: LC-ESI-QTOF
Ms type: MS2
Ion mode: NEGATIVE
Collision energy: 20.0V
Resolution: 12000 (m/z 120) - 26000 (m/z 1000)
Column name: Flow injection
Precursor m/z: 307.02818
Precursor type: [M-H]-
m/z	relative intensity
79.9573	72
80.9650	8
94.9940	7
182.0370	41
200.0465	8
210.0321	98
211.0394	39
212.0479	13
213.9583	7
216.9874	6
227.0711	173
228.0424	80
228.9813	45
263.0007	9
264.0097	30
266.9863	31
290.9963	54
292.0032	22
307.0278	999
