Mass spectrum: Benzophenone-4; LC-ESI-QTOF; MS2; CE: 40.0V; [M-H]-
Name: Benzophenone-4
Name: Sulisobenzone
Formula: C14H12O6S
Exact mass: 308.03546
SMILES: COc1cc(c(cc1S(=O)(=O)O)C(=O)c2ccccc2)O
InChI: InChI=1S/C14H12O6S/c1-20-12-8-11(15)10(7-13(12)21(17,18)19)14(16)9-5-3-2-4-6-9/h2-8,15H,1H3,(H,17,18,19)
Instrument: 6550 Q-TOF (Agilent Technologies)
Instrument type: LC-ESI-QTOF
Ms type: MS2
Ion mode: NEGATIVE
Collision energy: 40.0V
Resolution: 12000 (m/z 120) - 26000 (m/z 1000)
Column name: Flow injection
Precursor m/z: 307.02818
Precursor type: [M-H]-
m/z	relative intensity
63.9622	64
68.9957	30
77.0396	8
78.0100	15
79.9573	999
80.9647	197
91.0193	14
92.9952	54
94.0054	137
94.9941	18
95.0134	26
104.9951	13
113.9771	19
116.9942	16
121.0291	8
122.0008	104
123.0074	21
141.9727	18
145.0293	39
149.0236	15
149.9955	52
154.9918	9
155.0502	45
157.9678	47
158.9754	10
167.0500	58
169.0296	8
171.0458	9
172.0515	18
182.0376	238
183.0449	155
184.0524	77
185.9628	76
199.0399	86
200.0473	127
200.9868	10
208.9748	11
210.0329	42
211.0398	934
212.0476	32
213.9578	107
216.9896	31
227.0345	33
227.0706	46
228.0425	101
228.9807	56
263.0010	136
264.0079	23
266.9850	11
290.9965	216
307.0281	16
