Mass spectrum: 2-Aminobenzimidazol; LC-ESI-QTOF; MS2; CE: 40.0V; [M-H]-
Name: 2-Aminobenzimidazol
Formula: C7H7N3
Exact mass: 133.06400
SMILES: c1ccc2c(c1)[nH]c(=N)[nH]2
InChI: InChI=1S/C7H7N3/c8-7-9-5-3-1-2-4-6(5)10-7/h1-4H,(H3,8,9,10)
Instrument: 6550 Q-TOF (Agilent Technologies)
Instrument type: LC-ESI-QTOF
Ms type: MS2
Ion mode: NEGATIVE
Collision energy: 40.0V
Resolution: 12000 (m/z 120) - 26000 (m/z 1000)
Column name: Flow injection
Precursor m/z: 132.05672
Precursor type: [M-H]-
m/z	relative intensity
40.0061	397
41.0140	999
50.0031	62
64.0195	45
90.0330	30
115.0294	31
131.0479	109
132.0567	258
