Mass spectrum: Guanylurea; LC-ESI-QTOF; MS2; CE: 40.0V; [M+H]+
Name: Guanylurea
Formula: C2H6N4O
Exact mass: 102.05416
SMILES: C(=NC(=O)N)(N)N
InChI: InChI=1S/C2H6N4O/c3-1(4)6-2(5)7/h(H6,3,4,5,6,7)
Instrument: 6550 Q-TOF (Agilent Technologies)
Instrument type: LC-ESI-QTOF
Ms type: MS2
Ion mode: POSITIVE
Collision energy: 40.0V
Resolution: 12000 (m/z 120) - 26000 (m/z 1000)
Column name: Flow injection
Precursor m/z: 103.06144
Precursor type: [M+H]+
m/z	relative intensity
41.0129	6
43.0287	999
43.0562	10
44.0128	213
60.0554	26
69.0085	34
