Mass spectrum: Sulfamethoxazole; LC-ESI-QTOF; MS2; CE: 20.0V; [M+H]+
Name: Sulfamethoxazole
Formula: C10H11N3O3S
Exact mass: 253.05211
SMILES: Cc1cc(no1)NS(=O)(=O)c2ccc(cc2)N
InChI: InChI=1S/C10H11N3O3S/c1-7-6-10(12-16-7)13-17(14,15)9-4-2-8(11)3-5-9/h2-6H,11H2,1H3,(H,12,13)
Instrument: 6550 Q-TOF (Agilent Technologies)
Instrument type: LC-ESI-QTOF
Ms type: MS2
Ion mode: POSITIVE
Collision energy: 20.0V
Resolution: 12000 (m/z 120) - 26000 (m/z 1000)
Column name: Flow injection
Precursor m/z: 254.05939
Precursor type: [M+H]+
m/z	relative intensity
65.0387	68
80.0494	28
92.0494	999
93.0573	252
94.0649	27
99.0552	255
107.0602	39
108.0444	914
146.0710	45
147.0789	131
148.0867	28
156.0112	796
160.0866	191
161.0010	15
188.0815	42
254.0598	32
