Mass spectrum: Hydrochlorothiazide; LC-ESI-QTOF; MS2; CE: 40.0V; [M-H]-
Name: Hydrochlorothiazide
Formula: C7H8ClN3O4S2
Exact mass: 296.96448
SMILES: c1c2c(cc(c1Cl)S(=O)(=O)N)S(=O)(=O)NCN2
InChI: InChI=1S/C7H8ClN3O4S2/c8-4-1-5-7(2-6(4)16(9,12)13)17(14,15)11-3-10-5/h1-2,10-11H,3H2,(H2,9,12,13)
Instrument: 6550 Q-TOF (Agilent Technologies)
Instrument type: LC-ESI-QTOF
Ms type: MS2
Ion mode: NEGATIVE
Collision energy: 40.0V
Resolution: 12000 (m/z 120) - 26000 (m/z 1000)
Column name: Flow injection
Precursor m/z: 295.95720
Precursor type: [M-H]-
m/z	relative intensity
34.9683	24
61.9705	17
63.9620	26
76.0195	24
77.9655	999
78.9733	68
79.9808	27
90.0345	40
94.0297	47
104.0378	60
105.0454	28
115.0292	9
116.0386	7
117.0455	13
121.0407	126
123.9957	62
125.0031	10
126.0116	242
169.0076	6
189.9736	17
194.0030	11
202.9682	51
203.9766	17
204.9840	55
