Mass spectrum: Sucralose; LC-ESI-QTOF; MS2; CE: 20.0V; [M-H]-
Name: Sucralose
Formula: C12H19Cl3O8
Exact mass: 396.01455
SMILES: C([C@@H]1[C@@H]([C@@H]([C@H]([C@H](O1)O[C@]2([C@H]([C@@H]([C@H](O2)CCl)O)O)CCl)O)O)Cl)O
InChI: InChI=1S/C12H19Cl3O8/c13-1-4-7(17)10(20)12(3-14,22-4)23-11-9(19)8(18)6(15)5(2-16)21-11/h4-11,16-20H,1-3H2/t4-,5-,6+,7-,8+,9-,10+,11-,12+/m1/s1
Instrument: 6550 Q-TOF (Agilent Technologies)
Instrument type: LC-ESI-QTOF
Ms type: MS2
Ion mode: NEGATIVE
Collision energy: 20.0V
Resolution: 12000 (m/z 120) - 26000 (m/z 1000)
Column name: Flow injection
Precursor m/z: 395.00727
Precursor type: [M-H]-
m/z	relative intensity
34.9685	999
59.0136	124
87.0081	59
91.0211	41
101.0235	71
143.0337	45
171.0132	34
334.9714	28
334.9894	34
354.9822	92
359.0300	75
374.9851	29
395.0104	123
