Mass spectrum: Bisoprolol; LC-ESI-QTOF; MS2; CE: 20.0V; [M+H]+
Name: Bisoprolol
Formula: C18H31NO4
Exact mass: 325.22531
SMILES: CC(C)NCC(COc1ccc(cc1)COCCOC(C)C)O
InChI: InChI=1S/C18H31NO4/c1-14(2)19-11-17(20)13-23-18-7-5-16(6-8-18)12-21-9-10-22-15(3)4/h5-8,14-15,17,19-20H,9-13H2,1-4H3
Instrument: 6550 Q-TOF (Agilent Technologies)
Instrument type: LC-ESI-QTOF
Ms type: MS2
Ion mode: POSITIVE
Collision energy: 20.0V
Resolution: 12000 (m/z 120) - 26000 (m/z 1000)
Column name: Flow injection
Precursor m/z: 326.23259
Precursor type: [M+H]+
m/z	relative intensity
45.0332	35
56.0494	72
58.0652	10
72.0809	139
74.0603	311
75.0442	17
91.0542	18
98.0964	97
107.0491	23
116.1071	999
133.0646	19
145.0647	17
147.0806	34
162.0911	23
204.1384	31
222.1489	13
326.2331	305
