Mass spectrum: 4-Methylbenzotriazole; LC-ESI-QTOF; MS2; CE: 40.0V; [M+H]+
Name: 4-Methylbenzotriazole
Formula: C7H7N3
Exact mass: 133.06400
SMILES: Cc1cccc2c1[nH]nn2
InChI: InChI=1S/C7H7N3/c1-5-3-2-4-6-7(5)9-10-8-6/h2-4H,1H3,(H,8,9,10)
Instrument: 6550 Q-TOF (Agilent Technologies)
Instrument type: LC-ESI-QTOF
Ms type: MS2
Ion mode: POSITIVE
Collision energy: 40.0V
Resolution: 12000 (m/z 120) - 26000 (m/z 1000)
Column name: Flow injection
Precursor m/z: 134.07128
Precursor type: [M+H]+
m/z	relative intensity
39.0224	57
50.0151	12
51.0228	639
53.0385	93
54.0338	18
63.0229	33
64.0307	19
65.0386	36
66.0338	16
66.0462	24
67.0419	36
77.0387	999
78.0338	17
78.0457	21
79.0543	60
80.0496	20
91.0416	19
104.0492	12
