Mass spectrum: Denatonium; LC-ESI-QTOF; MS2; CE: 10.0V; [M]+
Name: Denatonium
Name: N-Benzyl-2-[(2,6-dimethylphenyl)amino]-N,N-diethyl-2-oxoethanaminium
Formula: [C21H29N2O]+
Exact mass: 325.22799
SMILES: CC[N+](CC)(Cc1ccccc1)CC(=O)Nc2c(cccc2C)C
InChI: InChI=1S/C21H28N2O/c1-5-23(6-2,15-19-13-8-7-9-14-19)16-20(24)22-21-17(3)11-10-12-18(21)4/h7-14H,5-6,15-16H2,1-4H3/p+1
Instrument: 6550 QTOF (Agilent Technologies)
Instrument type: LC-ESI-QTOF
Ms type: MS2
Ion mode: POSITIVE
Collision energy: 10.0V
Resolution: 12000 (m/z 120) - 26000 (m/z 1000)
Column name: Flow injection
Precursor m/z: 325.22744
Precursor type: [M]+
m/z	relative intensity
86.0966	212
91.0543	63
233.1652	151
325.2280	999
