Mass spectrum: Metoprolol; LC-ESI-QTOF; MS2; CE: 20.0V; [M+H]+
Name: Metoprolol
Formula: C15H25NO3
Exact mass: 267.18344
SMILES: CC(C)NCC(COc1ccc(cc1)CCOC)O
InChI: InChI=1S/C15H25NO3/c1-12(2)16-10-14(17)11-19-15-6-4-13(5-7-15)8-9-18-3/h4-7,12,14,16-17H,8-11H2,1-3H3
Instrument: 6550 Q-TOF (Agilent Technologies)
Instrument type: LC-ESI-QTOF
Ms type: MS2
Ion mode: POSITIVE
Collision energy: 20.0V
Resolution: 12000 (m/z 120) - 26000 (m/z 1000)
Column name: Flow injection
Precursor m/z: 268.19072
Precursor type: [M+H]+
m/z	relative intensity
43.0173	41
43.0538	35
44.0491	32
45.0332	6
56.0494	419
58.0652	86
60.0808	26
72.0808	776
74.0602	785
77.0386	10
84.0806	14
86.0962	23
91.0542	23
98.0964	521
100.1122	6
103.0543	21
105.0698	37
116.1070	734
117.0698	9
119.0854	10
121.0647	352
129.0700	6
131.0854	60
133.0646	273
135.0805	31
141.0699	22
144.0565	16
147.0805	38
148.0755	57
159.0804	355
161.0959	23
163.1113	19
165.0911	95
176.1070	123
177.0908	75
179.1068	21
191.1067	340
194.1177	62
218.1541	68
226.1441	87
250.1807	25
268.1911	999
