Mass spectrum: Sucralose; LC-ESI-QTOF; MS2; CE: 20.0V; [M+Na]+
Name: Sucralose
Formula: C12H19Cl3O8
Exact mass: 396.01455
SMILES: C([C@@H]1[C@@H]([C@@H]([C@H]([C@H](O1)O[C@]2([C@H]([C@@H]([C@H](O2)CCl)O)O)CCl)O)O)Cl)O
InChI: InChI=1S/C12H19Cl3O8/c13-1-4-7(17)10(20)12(3-14,22-4)23-11-9(19)8(18)6(15)5(2-16)21-11/h4-11,16-20H,1-3H2/t4-,5-,6+,7-,8+,9-,10+,11-,12+/m1/s1
Instrument: 6550 Q-TOF (Agilent Technologies)
Instrument type: LC-ESI-QTOF
Ms type: MS2
Ion mode: POSITIVE
Collision energy: 20.0V
Resolution: 12000 (m/z 120) - 26000 (m/z 1000)
Column name: Flow injection
Precursor m/z: 419.00377
Precursor type: [M+Na]+
m/z	relative intensity
104.9921	17
186.9956	9
203.0082	29
221.0188	414
238.9850	449
337.0750	53
419.0039	999
