Mass spectrum: Melamine; LC-ESI-QTOF; MS2; CE: 10.0V; [M+H]+
Name: Melamine
Formula: C3H6N6
Exact mass: 126.06539
SMILES: c1(nc(nc(n1)N)N)N
InChI: InChI=1S/C3H6N6/c4-1-7-2(5)9-3(6)8-1/h(H6,4,5,6,7,8,9)
Instrument: 6550 Q-TOF (Agilent Technologies)
Instrument type: LC-ESI-QTOF
Ms type: MS2
Ion mode: POSITIVE
Collision energy: 10.0V
Resolution: 12000 (m/z 120) - 26000 (m/z 1000)
Column name: Flow injection
Precursor m/z: 127.07267
Precursor type: [M+H]+
m/z	relative intensity
43.0286	12
60.0559	10
68.0243	14
85.0509	151
127.0727	999
