Mass spectrum: Benzophenone-2; LC-ESI-QTOF; MS2; CE: 40.0V; [M+H]+
Name: Benzophenone-2
Name: 2,2',4,4'-tetrahydroxybenzophenone
Formula: C13H10O5
Exact mass: 246.05282
SMILES: c1cc(c(cc1O)O)C(=O)c2ccc(cc2O)O
InChI: InChI=1S/C13H10O5/c14-7-1-3-9(11(16)5-7)13(18)10-4-2-8(15)6-12(10)17/h1-6,14-17H
Instrument: 6550 Q-TOF (Agilent Technologies)
Instrument type: LC-ESI-QTOF
Ms type: MS2
Ion mode: POSITIVE
Collision energy: 40.0V
Resolution: 12000 (m/z 120) - 26000 (m/z 1000)
Column name: Flow injection
Precursor m/z: 247.06010
Precursor type: [M+H]+
m/z	relative intensity
42.0333	128
43.0174	9
53.0386	250
66.0336	14
68.9970	171
69.0332	6
81.0336	999
81.0714	11
109.0282	128
124.0868	38
127.0544	6
137.0233	799
