Mass spectrum: Benzotriazole; LC-ESI-QTOF; MS2; CE: 20.0V; [M-H]-
Name: Benzotriazole
Formula: C6H5N3
Exact mass: 119.04835
SMILES: c1ccc2c(c1)[nH]nn2
InChI: InChI=1S/C6H5N3/c1-2-4-6-5(3-1)7-9-8-6/h1-4H,(H,7,8,9)
Instrument: 6550 Q-TOF (Agilent Technologies)
Instrument type: LC-ESI-QTOF
Ms type: MS2
Ion mode: NEGATIVE
Collision energy: 20.0V
Resolution: 12000 (m/z 120) - 26000 (m/z 1000)
Column name: Flow injection
Precursor m/z: 118.04107
Precursor type: [M-H]-
m/z	relative intensity
39.0233	25
40.0184	32
50.0031	468
59.0136	31
64.0189	28
90.0347	629
118.0410	999
