Mass spectrum: 5-Methylbenzotriazole; LC-ESI-QTOF; MS2; CE: 40.0V; [M-H]-
Name: 5-Methylbenzotriazole
Formula: C7H7N3
Exact mass: 133.06400
SMILES: Cc1ccc2c(c1)[nH]nn2
InChI: InChI=1S/C7H7N3/c1-5-2-3-6-7(4-5)9-10-8-6/h2-4H,1H3,(H,8,9,10)
Instrument: 6550 Q-TOF (Agilent Technologies)
Instrument type: LC-ESI-QTOF
Ms type: MS2
Ion mode: NEGATIVE
Collision energy: 40.0V
Resolution: 12000 (m/z 120) - 26000 (m/z 1000)
Column name: Flow injection
Precursor m/z: 132.05672
Precursor type: [M-H]-
m/z	relative intensity
39.0236	44
40.0186	208
42.0094	23
50.0030	210
63.0114	79
64.0190	999
88.0192	230
89.0268	83
90.0344	27
102.0342	20
103.0425	40
104.0490	12
132.0544	31
