Mass spectrum: Hydrochlorothiazide; LC-ESI-QTOF; MS2; CE: 20.0V; [M-H]-
Name: Hydrochlorothiazide
Formula: C7H8ClN3O4S2
Exact mass: 296.96448
SMILES: c1c2c(cc(c1Cl)S(=O)(=O)N)S(=O)(=O)NCN2
InChI: InChI=1S/C7H8ClN3O4S2/c8-4-1-5-7(2-6(4)16(9,12)13)17(14,15)11-3-10-5/h1-2,10-11H,3H2,(H2,9,12,13)
Instrument: 6550 Q-TOF (Agilent Technologies)
Instrument type: LC-ESI-QTOF
Ms type: MS2
Ion mode: NEGATIVE
Collision energy: 20.0V
Resolution: 12000 (m/z 120) - 26000 (m/z 1000)
Column name: Flow injection
Precursor m/z: 295.95720
Precursor type: [M-H]-
m/z	relative intensity
77.9655	383
78.9733	10
105.0461	6
121.0400	11
126.0114	74
169.0072	13
189.9733	27
196.0178	9
203.9760	22
204.9843	815
216.9835	22
231.9948	35
268.9463	999
295.9566	442
