Mass spectrum: Bisoprolol; LC-ESI-QTOF; MS2; CE: 40.0V; [M+H]+
Name: Bisoprolol
Formula: C18H31NO4
Exact mass: 325.22531
SMILES: CC(C)NCC(COc1ccc(cc1)COCCOC(C)C)O
InChI: InChI=1S/C18H31NO4/c1-14(2)19-11-17(20)13-23-18-7-5-16(6-8-18)12-21-9-10-22-15(3)4/h5-8,14-15,17,19-20H,9-13H2,1-4H3
Instrument: 6550 Q-TOF (Agilent Technologies)
Instrument type: LC-ESI-QTOF
Ms type: MS2
Ion mode: POSITIVE
Collision energy: 40.0V
Resolution: 12000 (m/z 120) - 26000 (m/z 1000)
Column name: Flow injection
Precursor m/z: 326.23259
Precursor type: [M+H]+
m/z	relative intensity
41.0381	37
43.0538	130
44.0492	30
45.0333	320
56.0495	999
57.0337	13
58.0653	88
72.0808	343
73.0282	7
74.0602	993
75.0443	22
77.0386	18
79.0542	49
84.0806	24
89.0387	149
91.0542	141
98.0963	115
100.1119	24
105.0698	87
107.0492	287
115.0541	9
116.1069	237
117.0693	16
119.0490	98
119.0847	13
121.0645	54
133.0647	128
145.0647	43
147.0804	31
162.0913	8
