Mass spectrum: Sotalol; LC-ESI-QTOF; MS2; CE: 10.0V; [M+H]+
Name: Sotalol
Formula: C12H20N2O3S
Exact mass: 272.11947
SMILES: CC(C)NCC(c1ccc(cc1)NS(=O)(=O)C)O
InChI: InChI=1S/C12H20N2O3S/c1-9(2)13-8-12(15)10-4-6-11(7-5-10)14-18(3,16)17/h4-7,9,12-15H,8H2,1-3H3
Instrument: 6550 Q-TOF (Agilent Technologies)
Instrument type: LC-ESI-QTOF
Ms type: MS2
Ion mode: POSITIVE
Collision energy: 10.0V
Resolution: 12000 (m/z 120) - 26000 (m/z 1000)
Column name: Flow injection
Precursor m/z: 273.12675
Precursor type: [M+H]+
m/z	relative intensity
133.0759	40
134.0837	12
176.1306	19
213.0694	197
255.1165	999
273.1271	100
