Mass spectrum: Sotalol; LC-ESI-QTOF; MS2; CE: 40.0V; [M+H]+
Name: Sotalol
Formula: C12H20N2O3S
Exact mass: 272.11947
SMILES: CC(C)NCC(c1ccc(cc1)NS(=O)(=O)C)O
InChI: InChI=1S/C12H20N2O3S/c1-9(2)13-8-12(15)10-4-6-11(7-5-10)14-18(3,16)17/h4-7,9,12-15H,8H2,1-3H3
Instrument: 6550 Q-TOF (Agilent Technologies)
Instrument type: LC-ESI-QTOF
Ms type: MS2
Ion mode: POSITIVE
Collision energy: 40.0V
Resolution: 12000 (m/z 120) - 26000 (m/z 1000)
Column name: Flow injection
Precursor m/z: 273.12675
Precursor type: [M+H]+
m/z	relative intensity
41.0380	28
43.0538	88
77.0388	16
79.0543	69
80.0493	11
93.0573	21
106.0652	487
107.0729	246
116.0494	131
117.0571	101
118.0648	67
119.0604	45
132.0679	94
133.0760	999
134.0838	166
176.1305	9
