Mass spectrum: Denatonium_TP222; LC-ESI-QTOF; MS2; CE: 40.0V; [M]+
Name: Denatonium_TP222
Name: 2-(benzyldiethylammonio)acetate
Formula: [C13H20NO2]+
Exact mass: 222.14940
SMILES: CC[N+](CC)(CC(O)=O)CC1=CC=CC=C1
InChI: InChI=1S/C13H19NO2/c1-3-14(4-2,11-13(15)16)10-12-8-6-5-7-9-12/h5-9H,3-4,10-11H2,1-2H3/p+1
Instrument: 6550 QTOF (Agilent Technologies)
Instrument type: LC-ESI-QTOF
Ms type: MS2
Ion mode: POSITIVE
Collision energy: 40.0V
Resolution: 13000 (m/z 118) - 26000 (m/z 922)
Column name: Flow injection
Precursor m/z: 222.14885
Precursor type: [M]+
m/z	relative intensity
56.0488	39
58.0648	14
65.0383	165
91.0540	999
