Mass spectrum: Phenylbenzimidazole sulfonic acid; LC-ESI-QTOF; MS2; CE: 20.0V; [M-H]-
Name: Phenylbenzimidazole sulfonic acid
Formula: C13H10N2O3S
Exact mass: 274.04122
SMILES: c1ccc(cc1)c2[nH]c3cc(ccc3n2)S(=O)(=O)O
InChI: InChI=1S/C13H10N2O3S/c16-19(17,18)10-6-7-11-12(8-10)15-13(14-11)9-4-2-1-3-5-9/h1-8H,(H,14,15)(H,16,17,18)
Instrument: 6550 Q-TOF (Agilent Technologies)
Instrument type: LC-ESI-QTOF
Ms type: MS2
Ion mode: NEGATIVE
Collision energy: 20.0V
Resolution: 12000 (m/z 120) - 26000 (m/z 1000)
Column name: Flow injection
Precursor m/z: 273.03394
Precursor type: [M-H]-
m/z	relative intensity
79.9571	11
193.0770	999
209.0719	17
273.0337	638
