Mass spectrum: Benzophenone-8; LC-ESI-QTOF; MS2; CE: 20.0V; [M+H]+
Name: Benzophenone-8
Name: Dioxybenzone
Formula: C14H12O4
Exact mass: 244.07356
SMILES: COc1ccc(c(c1)O)C(=O)c2ccccc2O
InChI: InChI=1S/C14H12O4/c1-18-9-6-7-11(13(16)8-9)14(17)10-4-2-3-5-12(10)15/h2-8,15-16H,1H3
Instrument: 6550 Q-TOF (Agilent Technologies)
Instrument type: LC-ESI-QTOF
Ms type: MS2
Ion mode: POSITIVE
Collision energy: 20.0V
Resolution: 12000 (m/z 120) - 26000 (m/z 1000)
Column name: Flow injection
Precursor m/z: 245.08084
Precursor type: [M+H]+
m/z	relative intensity
65.0380	26
93.0333	35
95.0480	15
102.9684	23
121.0284	999
123.0430	6
151.0388	434
245.0813	14
