Mass spectrum: Benzyldiethylamine; LC-ESI-QTOF; MS2; CE: 20.0V; [M+H]+
Name: Benzyldiethylamine
Formula: C11H17N
Exact mass: 163.13610
SMILES: CCN(CC)Cc1ccccc1
InChI: InChI=1S/C11H17N/c1-3-12(4-2)10-11-8-6-5-7-9-11/h5-9H,3-4,10H2,1-2H3
Instrument: 6550 QTOF (Agilent Technologies)
Instrument type: LC-ESI-QTOF
Ms type: MS2
Ion mode: POSITIVE
Collision energy: 20.0V
Resolution: 13000 (m/z 118) - 26000 (m/z 922)
Column name: Flow injection
Precursor m/z: 164.14338
Precursor type: [M+H]+
m/z	relative intensity
65.0384	24
72.0805	41
81.9371	7
91.0540	999
