Mass spectrum: Sulfamethoxazole; LC-ESI-QTOF; MS2; CE: 40.0V; [M-H]-
Name: Sulfamethoxazole
Formula: C10H11N3O3S
Exact mass: 253.05211
SMILES: Cc1cc(no1)NS(=O)(=O)c2ccc(cc2)N
InChI: InChI=1S/C10H11N3O3S/c1-7-6-10(12-16-7)13-17(14,15)9-4-2-8(11)3-5-9/h2-6H,11H2,1H3,(H,12,13)
Instrument: 6550 Q-TOF (Agilent Technologies)
Instrument type: LC-ESI-QTOF
Ms type: MS2
Ion mode: NEGATIVE
Collision energy: 40.0V
Resolution: 12000 (m/z 120) - 26000 (m/z 1000)
Column name: Flow injection
Precursor m/z: 252.04483
Precursor type: [M-H]-
m/z	relative intensity
63.9623	999
92.0505	170
108.0450	15
156.0123	54
