Mass spectrum: Norlidocaine; LC-ESI-QTOF; MS2; CE: 20.0V; [M+H]+
Name: Norlidocaine
Name: Monoethylglycinexylidide
Formula: C12H18N2O
Exact mass: 206.14191
SMILES: CCNCC(=O)Nc1c(cccc1C)C
InChI: InChI=1S/C12H18N2O/c1-4-13-8-11(15)14-12-9(2)6-5-7-10(12)3/h5-7,13H,4,8H2,1-3H3,(H,14,15)
Instrument: 6550 QTOF (Agilent Technologies)
Instrument type: LC-ESI-QTOF
Ms type: MS2
Ion mode: POSITIVE
Collision energy: 20.0V
Resolution: 13000 (m/z 118) - 26000 (m/z 922)
Column name: Flow injection
Precursor m/z: 207.14919
Precursor type: [M+H]+
m/z	relative intensity
58.0648	999
122.0956	17
