Mass spectrum: Venlafaxine; LC-ESI-QTOF; MS2; CE: 20.0V; [M+H]+
Name: Venlafaxine
Formula: C17H27NO2
Exact mass: 277.20418
SMILES: CN(C)CC(c1ccc(cc1)OC)C2(CCCCC2)O
InChI: InChI=1S/C17H27NO2/c1-18(2)13-16(17(19)11-5-4-6-12-17)14-7-9-15(20-3)10-8-14/h7-10,16,19H,4-6,11-13H2,1-3H3
Instrument: 6550 Q-TOF (Agilent Technologies)
Instrument type: LC-ESI-QTOF
Ms type: MS2
Ion mode: POSITIVE
Collision energy: 20.0V
Resolution: 12000 (m/z 120) - 26000 (m/z 1000)
Column name: Flow injection
Precursor m/z: 278.21146
Precursor type: [M+H]+
m/z	relative intensity
58.0652	999
121.0646	112
147.0803	47
159.0803	13
173.0960	18
215.1431	55
260.2010	28
