Mass spectrum: Gabapentin; LC-ESI-QTOF; MS2; CE: 40.0V; [M-H]-
Name: Gabapentin
Formula: C9H17NO2
Exact mass: 171.12593
SMILES: C1CCC(CC1)(CC(=O)O)CN
InChI: InChI=1S/C9H17NO2/c10-7-9(6-8(11)12)4-2-1-3-5-9/h1-7,10H2,(H,11,12)
Instrument: 6550 Q-TOF (Agilent Technologies)
Instrument type: LC-ESI-QTOF
Ms type: MS2
Ion mode: NEGATIVE
Collision energy: 40.0V
Resolution: 12000 (m/z 120) - 26000 (m/z 1000)
Column name: Flow injection
Precursor m/z: 170.11865
Precursor type: [M-H]-
m/z	relative intensity
41.9977	999
