Mass spectrum: Retrorsine; LC-ESI-ITFT; MS2; CE: 60%; R=15000; [M+H]+
Name: Retrorsine
Name: beta-Longilobine
Name: (1R,4Z,6R,7S,17R)-4-ethylidene-7-hydroxy-7-(hydroxymethyl)-6-methyl-2,9-dioxa-14-azatricyclo[9.5.1.0^{14,17}]heptadec-11-ene-3,8-dione
Formula: C18H25NO6
Exact mass: 351.1682
SMILES: C\C=C1\C[C@@H](C)[C@](O)(CO)C(=O)OCC2=CCN3CC[C@@H](OC1=O)[C@@H]23
InChI: InChI=1S/C18H25NO6/c1-3-12-8-11(2)18(23,10-20)17(22)24-9-13-4-6-19-7-5-14(15(13)19)25-16(12)21/h3-4,11,14-15,20,23H,5-10H2,1-2H3/b12-3-/t11-,14-,15-,18-/m1/s1
Instrument: LTQ Orbitrap XL Thermo Scientific
Instrument type: LC-ESI-ITFT
Ms type: MS2
Ion mode: POSITIVE
Ionization: ESI
Fragmentation mode: CID
Collision energy: 60 % (nominal)
Resolution: 15000
Column name: Kinetex Evo C18 2.6 um 50x2.1 mm, Phenomenex
Retention time: 2.526 min
Base peak: 61.0394
Precursor m/z: 352.1755
Precursor type: [M+H]+
m/z	relative intensity	assigned
103.054	13	C8H7+
118.065	24	C8H8N+
120.0808	292	C8H10N+
122.0963	27	C8H12N+
123.08	10	C8H11O+
138.0913	168	C8H12NO+
140.1069	12	C8H14NO+
151.0752	30	C9H11O2+
156.1018	7	C8H14NO2+
169.086	13	C9H13O3+
220.1331	21	C13H18NO2+
242.154	10	C16H20NO+
258.1496	6	C16H20NO2+
260.165	6	C16H22NO2+
276.1594	195	C16H22NO3+
290.1749	28	C17H24NO3+
294.1697	11	C16H24NO4+
304.1547	20	C17H22NO4+
306.1701	55	C17H24NO4+
308.1856	25	C17H26NO4+
322.1649	272	C17H24NO5+
324.1804	999	C17H26NO5+
