Mass spectrum: Monocrotaline; LC-ESI-ITFT; MS2; CE: 25%; R=15000; [M+H]+
Name: Monocrotaline
Name: (1R,4R,5R,6R,16R)-5,6-dihydroxy-4,5,6-trimethyl-2,8-dioxa-13-azatricyclo[8.5.1.0^{13,16}]hexadec-10-ene-3,7-dione
Formula: C16H23NO6
Exact mass: 325.1525
SMILES: C[C@H]1C(=O)O[C@@H]2CCN3CC=C(COC(=O)[C@](C)(O)[C@]1(C)O)[C@H]23
InChI: InChI=1S/C16H23NO6/c1-9-13(18)23-11-5-7-17-6-4-10(12(11)17)8-22-14(19)16(3,21)15(9,2)20/h4,9,11-12,20-21H,5-8H2,1-3H3/t9-,11+,12+,15+,16-/m0/s1
Instrument: LTQ Orbitrap XL Thermo Scientific
Instrument type: LC-ESI-ITFT
Ms type: MS2
Ion mode: POSITIVE
Ionization: ESI
Fragmentation mode: CID
Collision energy: 25 % (nominal)
Resolution: 15000
Column name: Kinetex Evo C18 2.6 um 50x2.1 mm, Phenomenex
Retention time: 1.005 min
Base peak: 326.1598
Precursor m/z: 326.1598
Precursor type: [M+H]+
m/z	relative intensity	assigned
120.0808	203	C8H10N+
121.0887	127	C8H11N+
122.0964	94	C8H12N+
164.107	174	C10H14NO+
192.1019	20	C11H14NO2+
194.1176	163	C11H16NO2+
210.1125	127	C11H16NO3+
228.1231	49	C11H18NO4+
237.136	374	C13H19NO3+
238.1437	217	C13H20NO3+
280.1544	999	C15H22NO4+
298.1649	77	C15H24NO5+
326.1599	429	C16H24NO6+
