Mass spectrum: Senecionine N-oxide; LC-ESI-ITFT; MS2; CE: 45%; R=15000; [M+H]+
Name: Senecionine N-oxide
Name: (1R,4Z,6R,7R,17R)-4-ethylidene-7-hydroxy-6,7-dimethyl-14-oxido-2,9-dioxa-14-azoniatricyclo[9.5.1.0^{14,17}]heptadec-11-ene-3,8-dione
Formula: C18H25NO6
Exact mass: 351.1682
SMILES: C\C=C1\C[C@@H](C)[C@@](C)(O)C(=O)OCC2=CC[N+]3([O-])CC[C@@H](OC1=O)[C@@H]23
InChI: InChI=1S/C18H25NO6/c1-4-12-9-11(2)18(3,22)17(21)24-10-13-5-7-19(23)8-6-14(15(13)19)25-16(12)20/h4-5,11,14-15,22H,6-10H2,1-3H3/b12-4-/t11-,14-,15-,18-,19?/m1/s1
Instrument: LTQ Orbitrap XL Thermo Scientific
Instrument type: LC-ESI-ITFT
Ms type: MS2
Ion mode: POSITIVE
Ionization: ESI
Fragmentation mode: CID
Collision energy: 45 % (nominal)
Resolution: 15000
Column name: Kinetex Evo C18 2.6 um 50x2.1 mm, Phenomenex
Retention time: 6.177 min
Base peak: 195.0874
Precursor m/z: 352.1755
Precursor type: [M+H]+
m/z	relative intensity	assigned
94.0652	2	C6H8N+
95.0728	4	C6H9N+
103.0543	2	C8H7+
106.0651	50	C7H8N+
107.0857	4	C8H11+
108.0808	17	C7H10N+
109.0649	4	C7H9O+
112.0757	8	C6H10NO+
117.0573	37	C8H7N+
118.0651	285	C8H8N+
119.073	110	C8H9N+
120.0808	183	C8H10N+
121.0886	85	C8H11N+
122.0964	33	C8H12N+
123.0439	4	C7H7O2+
125.0963	7	C8H13O+
126.0907	2	C7H12NO+
134.0964	3	C9H12N+
135.0806	2	C9H11O+
136.0757	58	C8H10NO+
137.0834	19	C8H11NO+
138.0913	39	C8H12NO+
139.0752	3	C8H11O2+
139.0995	3	C8H13NO+
140.1072	2	C8H14NO+
148.1121	3	C10H14N+
152.107	19	C9H14NO+
153.091	16	C9H13O2+
154.0862	41	C8H12NO2+
164.1068	3	C10H14NO+
165.0784	12	C9H11NO2+
166.1226	4	C10H16NO+
174.0908	5	C11H12NO+
174.1278	6	C12H16N+
176.1071	14	C11H14NO+
178.1226	23	C11H16NO+
190.1224	5	C12H16NO+
192.1384	10	C12H18NO+
200.1069	2	C13H14NO+
202.1226	38	C13H16NO+
204.1023	3	C12H14NO2+
218.1176	26	C13H16NO2+
218.1539	55	C14H20NO+
220.1332	347	C13H18NO2+
228.1383	4	C15H18NO+
232.1335	5	C14H18NO2+
234.1489	3	C14H20NO2+
235.1214	2	C13H17NO3+
236.1278	14	C13H18NO3+
246.1488	218	C15H20NO2+
247.1565	4	C15H21NO2+
248.1644	88	C15H22NO2+
254.1386	107	C13H20NO4+
262.1439	10	C15H20NO3+
272.1649	2	C17H22NO2+
276.1597	4	C16H22NO3+
290.1751	23	C17H24NO3+
306.1713	3	C17H24NO4+
307.1775	4	C17H25NO4+
308.1857	6	C17H26NO4+
318.1703	5	C18H24NO4+
320.1491	7	C17H22NO5+
324.1806	281	C17H26NO5+
334.1649	51	C18H24NO5+
335.1718	1	C18H25NO5+
352.1757	999	C18H26NO6+
