Mass spectrum: Monocrotaline; LC-ESI-ITFT; MS2; CE: 50%; R=15000; [M+H]+
Name: Monocrotaline
Name: (1R,4R,5R,6R,16R)-5,6-dihydroxy-4,5,6-trimethyl-2,8-dioxa-13-azatricyclo[8.5.1.0^{13,16}]hexadec-10-ene-3,7-dione
Formula: C16H23NO6
Exact mass: 325.1525
SMILES: C[C@H]1C(=O)O[C@@H]2CCN3CC=C(COC(=O)[C@](C)(O)[C@]1(C)O)[C@H]23
InChI: InChI=1S/C16H23NO6/c1-9-13(18)23-11-5-7-17-6-4-10(12(11)17)8-22-14(19)16(3,21)15(9,2)20/h4,9,11-12,20-21H,5-8H2,1-3H3/t9-,11+,12+,15+,16-/m0/s1
Instrument: LTQ Orbitrap XL Thermo Scientific
Instrument type: LC-ESI-ITFT
Ms type: MS2
Ion mode: POSITIVE
Ionization: ESI
Fragmentation mode: HCD
Collision energy: 50 % (nominal)
Resolution: 15000
Column name: Kinetex Evo C18 2.6 um 50x2.1 mm, Phenomenex
Retention time: 0.930 min
Base peak: 326.1599
Precursor m/z: 326.1598
Precursor type: [M+H]+
m/z	relative intensity	assigned
67.0416	18	C4H5N+
80.0494	9	C5H6N+
93.0699	12	C7H9+
94.0652	123	C6H8N+
95.073	99	C6H9N+
96.0808	15	C6H10N+
106.0649	17	C7H8N+
108.081	20	C7H10N+
120.0808	385	C8H10N+
121.0887	880	C8H11N+
122.0964	125	C8H12N+
136.0758	9	C8H10NO+
138.0914	170	C8H12NO+
139.0992	23	C8H13NO+
140.1069	22	C8H14NO+
156.1022	20	C8H14NO2+
164.1071	130	C10H14NO+
182.1171	12	C10H16NO2+
184.0971	50	C9H14NO3+
192.1015	12	C11H14NO2+
194.1176	226	C11H16NO2+
195.1253	44	C11H17NO2+
210.1126	38	C11H16NO3+
212.1284	14	C11H18NO3+
228.1232	18	C11H18NO4+
237.136	424	C13H19NO3+
238.144	78	C13H20NO3+
252.1239	13	C13H18NO4+
254.1383	28	C13H20NO4+
280.1544	193	C15H22NO4+
298.1654	62	C15H24NO5+
326.16	999	C16H24NO6+
