Mass spectrum: Jacobine; LC-ESI-ITFT; MS2; CE: 60%; R=15000; [M+H]+
Name: Jacobine
Name: (1R,3`S,4S,6R,7R,17R)-7-hydroxy-3`,6,7-trimethylspiro[2,9-dioxa-14-azatricyclo[9.5.1.0^{14,17}]heptadec-11-ene-4,2`-oxirane]-3,8-dione
Formula: C18H25NO6
Exact mass: 351.1682
SMILES: C[C@@H]1O[C@@]11C[C@@H](C)[C@@](C)(O)C(=O)OCC2=CCN3CC[C@@H](OC1=O)[C@@H]23
InChI: InChI=1S/C18H25NO6/c1-10-8-18(11(2)25-18)16(21)24-13-5-7-19-6-4-12(14(13)19)9-23-15(20)17(10,3)22/h4,10-11,13-14,22H,5-9H2,1-3H3/t10-,11+,13-,14-,17-,18+/m1/s1
Instrument: LTQ Orbitrap XL Thermo Scientific
Instrument type: LC-ESI-ITFT
Ms type: MS2
Ion mode: POSITIVE
Ionization: ESI
Fragmentation mode: HCD
Collision energy: 60 % (nominal)
Resolution: 15000
Column name: Kinetex Evo C18 2.6 um 50x2.1 mm, Phenomenex
Retention time: 1.289 min
Base peak: 352.1752
Precursor m/z: 352.1755
Precursor type: [M+H]+
m/z	relative intensity	assigned
70.065	219	C4H8N+
79.0543	133	C6H7+
80.0494	258	C5H6N+
93.0699	228	C7H9+
94.0651	307	C6H8N+
96.0809	61	C6H10N+
97.0646	64	C6H9O+
105.0698	165	C8H9+
107.0732	65	C7H9N+
108.081	136	C7H10N+
110.096	37	C7H12N+
113.0598	161	C6H9O2+
115.0755	52	C6H11O2+
120.0808	999	C8H10N+
121.0888	65	C8H11N+
122.0964	643	C8H12N+
123.1043	382	C8H13N+
137.0957	73	C9H13O+
138.0914	136	C8H12NO+
140.1071	155	C8H14NO+
155.1067	586	C9H15O2+
162.0911	134	C10H12NO+
234.1481	110	C14H20NO2+
262.1439	79	C15H20NO3+
280.1542	108	C15H22NO4+
