Mass spectrum: Jacobine; LC-ESI-ITFT; MS2; CE: 75%; R=15000; [M+H]+
Name: Jacobine
Name: (1R,3`S,4S,6R,7R,17R)-7-hydroxy-3`,6,7-trimethylspiro[2,9-dioxa-14-azatricyclo[9.5.1.0^{14,17}]heptadec-11-ene-4,2`-oxirane]-3,8-dione
Formula: C18H25NO6
Exact mass: 351.1682
SMILES: C[C@@H]1O[C@@]11C[C@@H](C)[C@@](C)(O)C(=O)OCC2=CCN3CC[C@@H](OC1=O)[C@@H]23
InChI: InChI=1S/C18H25NO6/c1-10-8-18(11(2)25-18)16(21)24-13-5-7-19-6-4-12(14(13)19)9-23-15(20)17(10,3)22/h4,10-11,13-14,22H,5-9H2,1-3H3/t10-,11+,13-,14-,17-,18+/m1/s1
Instrument: LTQ Orbitrap XL Thermo Scientific
Instrument type: LC-ESI-ITFT
Ms type: MS2
Ion mode: POSITIVE
Ionization: ESI
Fragmentation mode: CID
Collision energy: 75 % (nominal)
Resolution: 15000
Column name: Kinetex Evo C18 2.6 um 50x2.1 mm, Phenomenex
Retention time: 1.299 min
Base peak: 352.1754
Precursor m/z: 352.1755
Precursor type: [M+H]+
m/z	relative intensity	assigned
115.0755	12	C6H11O2+
118.0652	4	C8H8N+
120.0808	119	C8H10N+
122.0964	50	C8H12N+
123.1042	55	C8H13N+
134.0961	4	C9H12N+
138.0912	9	C8H12NO+
140.1071	11	C8H14NO+
146.0965	10	C10H12N+
148.0757	8	C9H10NO+
148.1123	5	C10H14N+
155.1067	192	C9H15O2+
162.0913	52	C10H12NO+
174.1278	12	C12H16N+
190.0862	9	C11H12NO2+
200.1434	65	C14H18N+
204.1383	45	C13H18NO+
211.0964	11	C11H15O4+
216.1383	43	C14H18NO+
218.154	48	C14H20NO+
234.1488	87	C14H20NO2+
244.1331	18	C15H18NO2+
250.1443	8	C14H20NO3+
262.1438	379	C15H20NO3+
264.1593	66	C15H22NO3+
280.1543	730	C15H22NO4+
290.1388	13	C16H20NO4+
292.1536	4	C16H22NO4+
306.1708	11	C17H24NO4+
308.1494	999	C16H22NO5+
324.1805	47	C17H26NO5+
