Mass spectrum: Jacobine N-oxide; LC-ESI-ITFT; MS2; CE: 70%; R=15000; [M+H]+
Name: Jacobine N-oxide
Name: (1R,3`S,4S,6R,7R,17R)-7-hydroxy-3`,6,7-trimethyl-14-oxidospiro[2,9-dioxa-14-azoniatricyclo[9.5.1.0^{14,17}]heptadec-11-ene-4,2`-oxirane]-3,8-dione
Formula: C18H25NO7
Exact mass: 367.1631
SMILES: C[C@@H]1O[C@@]11C[C@@H](C)[C@@](C)(O)C(=O)OCC2=CCN3(=O)CC[C@@H](OC1=O)[C@@H]23
InChI: InChI=1S/C18H25NO7/c1-10-8-18(11(2)26-18)16(21)25-13-5-7-19(23)6-4-12(14(13)19)9-24-15(20)17(10,3)22/h4,10-11,13-14,22H,5-9H2,1-3H3/t10-,11+,13-,14-,17-,18+,19?/m1/s1
Instrument: LTQ Orbitrap XL Thermo Scientific
Instrument type: LC-ESI-ITFT
Ms type: MS2
Ion mode: POSITIVE
Ionization: ESI
Fragmentation mode: HCD
Collision energy: 70 % (nominal)
Resolution: 15000
Column name: Kinetex Evo C18 2.6 um 50x2.1 mm, Phenomenex
Retention time: 1.670 min
Base peak: 61.0394
Precursor m/z: 368.1704
Precursor type: [M+H]+
m/z	relative intensity	assigned
77.0386	62	C6H5+
79.0542	47	C6H7+
80.0494	99	C5H6N+
91.0542	157	C7H7+
93.0572	179	C6H7N+
93.0701	55	C7H9+
94.0651	314	C6H8N+
95.0729	120	C6H9N+
106.0651	85	C7H8N+
118.065	220	C8H8N+
119.073	211	C8H9N+
120.0808	999	C8H10N+
121.0883	144	C8H11N+
122.0964	149	C8H12N+
136.0759	77	C8H10NO+
138.091	40	C8H12NO+
156.1024	41	C8H14NO2+
190.1226	54	C12H16NO+
