Mass spectrum: Senkirkine; LC-ESI-ITFT; MS2; CE: 65%; R=15000; [M+H]+
Name: Senkirkine
Name: (1R,4Z,6R,7R,11Z)-4-Ethylidene-7-hydroxy-6,7,14-trimethyl-2,9-dioxa-14-azabicyclo[9.5.1]heptadec-11-ene-3,8,17-trione
Formula: C19H27NO6
Exact mass: 365.1838
SMILES: C/C=C\1/C[C@H]([C@@](C(=O)OC/C/2=C/CN(CC[C@H](C2=O)OC1=O)C)(C)O)C
InChI: InChI=1S/C19H27NO6/c1-5-13-10-12(2)19(3,24)18(23)25-11-14-6-8-20(4)9-7-15(16(14)21)26-17(13)22/h5-6,12,15,24H,7-11H2,1-4H3/b13-5-,14-6-/t12-,15-,19-/m1/s1
Instrument: LTQ Orbitrap XL Thermo Scientific
Instrument type: LC-ESI-ITFT
Ms type: MS2
Ion mode: POSITIVE
Ionization: ESI
Fragmentation mode: HCD
Collision energy: 65 % (nominal)
Resolution: 15000
Column name: Kinetex Evo C18 2.6 um 50x2.1 mm, Phenomenex
Retention time: 6.922 min
Base peak: 366.191
Precursor m/z: 366.1911
Precursor type: [M+H]+
m/z	relative intensity	assigned
53.0385	12	C4H5+
55.0541	12	C4H7+
67.0541	10	C5H7+
70.0651	298	C4H8N+
79.0542	59	C6H7+
81.0699	45	C6H9+
83.0491	33	C5H7O+
91.0541	15	C7H7+
93.0697	8	C7H9+
94.0651	65	C6H8N+
95.0492	11	C6H7O+
96.0807	34	C6H10N+
97.0647	25	C6H9O+
98.06	20	C5H8NO+
101.0596	42	C5H9O2+
107.0491	198	C7H7O+
107.0727	17	C7H9N+
107.0855	112	C8H11+
108.0805	10	C7H10N+
109.0647	23	C7H9O+
109.1011	34	C8H13+
110.0599	25	C6H8NO+
112.0758	8	C6H10NO+
116.0707	16	C5H10NO2+
120.0807	18	C8H10N+
122.06	316	C7H8NO+
122.0963	97	C8H12N+
123.0679	33	C7H9NO+
124.0756	45	C7H10NO+
125.0596	63	C7H9O2+
125.0961	98	C8H13O+
135.0804	72	C9H11O+
137.0834	19	C8H11NO+
138.0916	10	C8H12NO+
140.0705	104	C7H10NO2+
140.1068	12	C8H14NO+
150.0913	178	C9H12NO+
153.091	71	C9H13O2+
168.1019	999	C9H14NO2+
169.1054	12	C4H15N3O4+
366.1917	10	C19H28NO6+
