Mass spectrum: Monocrotaline; LC-ESI-ITFT; MS2; CE: 50%; R=15000; [M+H]+
Name: Monocrotaline
Name: (1R,4R,5R,6R,16R)-5,6-dihydroxy-4,5,6-trimethyl-2,8-dioxa-13-azatricyclo[8.5.1.0^{13,16}]hexadec-10-ene-3,7-dione
Formula: C16H23NO6
Exact mass: 325.1525
SMILES: C[C@H]1C(=O)O[C@@H]2CCN3CC=C(COC(=O)[C@](C)(O)[C@]1(C)O)[C@H]23
InChI: InChI=1S/C16H23NO6/c1-9-13(18)23-11-5-7-17-6-4-10(12(11)17)8-22-14(19)16(3,21)15(9,2)20/h4,9,11-12,20-21H,5-8H2,1-3H3/t9-,11+,12+,15+,16-/m0/s1
Instrument: LTQ Orbitrap XL Thermo Scientific
Instrument type: LC-ESI-ITFT
Ms type: MS2
Ion mode: POSITIVE
Ionization: ESI
Fragmentation mode: CID
Collision energy: 50 % (nominal)
Resolution: 15000
Column name: Kinetex Evo C18 2.6 um 50x2.1 mm, Phenomenex
Retention time: 0.963 min
Base peak: 326.1597
Precursor m/z: 326.1598
Precursor type: [M+H]+
m/z	relative intensity	assigned
94.065	6	C6H8N+
106.065	13	C7H8N+
108.0807	7	C7H10N+
110.0602	10	C6H8NO+
120.0808	205	C8H10N+
121.0886	123	C8H11N+
122.0963	86	C8H12N+
136.0758	17	C8H10NO+
136.1121	7	C9H14N+
138.0913	42	C8H12NO+
139.0992	6	C8H13NO+
140.1071	10	C8H14NO+
146.0962	7	C10H12N+
148.1121	19	C10H14N+
164.1069	176	C10H14NO+
166.0864	7	C9H12NO2+
180.1018	13	C10H14NO2+
182.1176	26	C10H16NO2+
184.0969	12	C9H14NO3+
192.1023	23	C11H14NO2+
194.1176	169	C11H16NO2+
195.125	7	C11H17NO2+
208.0972	16	C11H14NO3+
210.1124	130	C11H16NO3+
228.123	43	C11H18NO4+
237.1359	343	C13H19NO3+
238.1437	214	C13H20NO3+
252.1226	15	C13H18NO4+
254.1385	10	C13H20NO4+
280.1543	999	C15H22NO4+
298.165	77	C15H24NO5+
308.1499	30	C16H22NO5+
