Mass spectrum: Erucifoline; LC-ESI-ITFT; MS2; CE: 85%; R=15000; [M+H]+
Name: Erucifoline
Name: CID 75092738
Name: 9-ethylidene-7-(hydroxymethyl)-5-methyl-3,6,11-trioxa-15-azatetracyclo[10.5.1.0^{5,7}.0^{15,18}]octadec-1(17)-ene-4,10-dione
Formula: C18H23NO6
Exact mass: 349.1525
SMILES: CC=C1CC2(C(O2)(C(=O)OCC3=CCN4C3C(CC4)OC1=O)C)CO
InChI: InChI=1S/C18H23NO6/c1-3-11-8-18(10-20)17(2,25-18)16(22)23-9-12-4-6-19-7-5-13(14(12)19)24-15(11)21/h3-4,13-14,20H,5-10H2,1-2H3
Instrument: LTQ Orbitrap XL Thermo Scientific
Instrument type: LC-ESI-ITFT
Ms type: MS2
Ion mode: POSITIVE
Ionization: ESI
Fragmentation mode: CID
Collision energy: 85 % (nominal)
Resolution: 15000
Column name: Kinetex Evo C18 2.6 um 50x2.1 mm, Phenomenex
Retention time: 1.039 min
Base peak: 350.1596
Precursor m/z: 350.1598
Precursor type: [M+H]+
m/z	relative intensity	assigned
96.0805	8	C6H10N+
103.0541	65	C8H7+
105.0699	8	C8H9+
106.0651	54	C7H8N+
107.073	6	C7H9N+
108.0807	23	C7H10N+
109.0648	27	C7H9O+
110.0962	24	C7H12N+
117.0572	17	C8H7N+
118.0651	137	C8H8N+
119.073	6	C8H9N+
120.0807	979	C8H10N+
121.0646	26	C8H9O+
121.0885	30	C8H11N+
122.0963	116	C8H12N+
123.0441	30	C7H7O2+
123.0805	12	C8H11O+
125.0597	13	C7H9O2+
134.0961	17	C9H12N+
136.0756	24	C8H10NO+
136.112	39	C9H14N+
137.0593	12	C8H9O2+
138.0913	457	C8H12NO+
139.0754	10	C8H11O2+
140.107	10	C8H14NO+
141.0546	38	C7H9O3+
146.0964	39	C10H12N+
148.1119	24	C10H14N+
149.0598	18	C9H9O2+
149.0835	12	C9H11NO+
151.0751	10	C9H11O2+
156.1018	25	C8H14NO2+
162.092	7	C10H12NO+
164.1069	536	C10H14NO+
165.0545	37	C9H9O3+
167.0705	14	C9H11O3+
174.0911	22	C11H12NO+
176.1071	30	C11H14NO+
182.0808	19	C9H12NO3+
182.1175	225	C10H16NO2+
192.1022	15	C11H14NO2+
194.1171	6	C11H16NO2+
206.117	6	C12H16NO2+
207.1245	9	C12H17NO2+
208.0967	16	C11H14NO3+
210.1123	6	C11H16NO3+
220.1329	26	C13H18NO2+
222.1486	5	C13H20NO2+
234.1119	12	C13H16NO3+
246.1485	15	C15H20NO2+
278.138	31	C15H20NO4+
280.1539	62	C15H22NO4+
288.1594	10	C17H22NO3+
292.154	49	C16H22NO4+
294.1333	34	C15H20NO5+
302.1384	62	C17H20NO4+
306.1349	7	C16H20NO5+
306.1701	16	C17H24NO4+
320.1494	122	C17H22NO5+
322.1648	999	C17H24NO5+
