Mass spectrum: Erucifoline; LC-ESI-ITFT; MS2; CE: 55%; R=15000; [M+H]+
Name: Erucifoline
Name: CID 75092738
Name: 9-ethylidene-7-(hydroxymethyl)-5-methyl-3,6,11-trioxa-15-azatetracyclo[10.5.1.0^{5,7}.0^{15,18}]octadec-1(17)-ene-4,10-dione
Formula: C18H23NO6
Exact mass: 349.1525
SMILES: CC=C1CC2(C(O2)(C(=O)OCC3=CCN4C3C(CC4)OC1=O)C)CO
InChI: InChI=1S/C18H23NO6/c1-3-11-8-18(10-20)17(2,25-18)16(22)23-9-12-4-6-19-7-5-13(14(12)19)24-15(11)21/h3-4,13-14,20H,5-10H2,1-2H3
Instrument: LTQ Orbitrap XL Thermo Scientific
Instrument type: LC-ESI-ITFT
Ms type: MS2
Ion mode: POSITIVE
Ionization: ESI
Fragmentation mode: HCD
Collision energy: 55 % (nominal)
Resolution: 15000
Column name: Kinetex Evo C18 2.6 um 50x2.1 mm, Phenomenex
Retention time: 1.052 min
Base peak: 350.1595
Precursor m/z: 350.1598
Precursor type: [M+H]+
m/z	relative intensity	assigned
55.0541	14	C4H7+
67.0542	108	C5H7+
68.0494	65	C4H6N+
77.0386	34	C6H5+
79.0542	61	C6H7+
80.0495	121	C5H6N+
81.0573	11	C5H7N+
81.0699	62	C6H9+
82.0651	90	C5H8N+
83.0492	32	C5H7O+
91.0542	109	C7H7+
92.0495	20	C6H6N+
93.0699	199	C7H9+
94.0651	280	C6H8N+
95.0493	33	C6H7O+
95.073	26	C6H9N+
95.0855	19	C7H11+
96.0808	213	C6H10N+
97.0646	29	C6H9O+
103.0542	76	C8H7+
105.0448	14	C6H5N2+
105.0699	21	C8H9+
106.0651	42	C7H8N+
107.0729	11	C7H9N+
108.0807	72	C7H10N+
109.0648	79	C7H9O+
110.06	40	C6H8NO+
110.0964	81	C7H12N+
111.0438	34	C6H7O2+
118.0651	83	C8H8N+
119.073	10	C8H9N+
120.0808	999	C8H10N+
121.0646	45	C8H9O+
121.0886	76	C8H11N+
122.0963	155	C8H12N+
123.044	44	C7H7O2+
123.0808	13	C8H11O+
125.0597	47	C7H9O2+
136.0758	19	C8H10NO+
136.1125	17	C9H14N+
137.0598	22	C8H9O2+
138.0913	820	C8H12NO+
139.0754	15	C8H11O2+
140.1074	12	C8H14NO+
141.0545	57	C7H9O3+
146.0965	22	C10H12N+
149.0594	14	C9H9O2+
156.1021	18	C8H14NO2+
164.1069	142	C10H14NO+
165.0546	26	C9H9O3+
167.0699	15	C9H11O3+
182.1175	24	C10H16NO2+
220.1332	50	C13H18NO2+
280.1541	16	C15H22NO4+
322.1647	52	C17H24NO5+
350.1597	337	C18H24NO6+
