Mass spectrum: 13a-Hydroxylupanin; LC-ESI-ITFT; MS2; CE: 50%; R=15000; [M+H]+
Name: 13a-Hydroxylupanin
Name: Hydroxylupanine
Name: (1S,2R,9S,10S,12S)-12-hydroxy-7,15-diazatetracyclo[7.7.1.0^{2,7}.0^{10,15}]heptadecan-6-one
Formula: C15H24N2O2
Exact mass: 264.1838
SMILES: C1C[C@@H]2[C@H]3C[C@@H](CN2C(=O)C1)[C@@H]4C[C@H](CCN4C3)O
InChI: InChI=1S/C15H24N2O2/c18-12-4-5-16-8-10-6-11(14(16)7-12)9-17-13(10)2-1-3-15(17)19/h10-14,18H,1-9H2/t10-,11-,12-,13+,14-/m0/s1
Instrument: LTQ Orbitrap XL Thermo Scientific
Instrument type: LC-ESI-ITFT
Ms type: MS2
Ion mode: POSITIVE
Ionization: ESI
Fragmentation mode: CID
Collision energy: 50 % (nominal)
Resolution: 15000
Column name: Synergi Polar RP, 2.5 um 100x3.0 mm, Phenomenex
Retention time: 5.399 min
Base peak: 236.0739
Precursor m/z: 265.1911
Precursor type: [M+H]+
m/z	relative intensity	assigned
84.0809	4	C5H10N+
91.0543	5	C7H7+
94.065	7	C6H8N+
96.0808	43	C6H10N+
98.0602	4	C5H8NO+
98.0967	5	C6H12N+
105.0701	4	C8H9+
108.0806	10	C7H10N+
110.0963	17	C7H12N+
112.0756	33	C6H10NO+
114.0913	92	C6H12NO+
119.0858	6	C9H11+
120.0812	4	C8H10N+
122.0965	9	C8H12N+
124.112	6	C8H14N+
132.0811	4	C9H10N+
134.0965	29	C9H12N+
146.0967	7	C10H12N+
148.112	99	C10H14N+
150.0913	51	C9H12NO+
150.1278	15	C10H16N+
152.107	338	C9H14NO+
162.0913	23	C10H12NO+
162.1271	4	C11H16N+
164.1069	50	C10H14NO+
166.1227	38	C10H16NO+
176.1073	11	C11H14NO+
178.1224	9	C11H16NO+
193.1337	23	C11H17N2O+
204.1383	18	C13H18NO+
207.1497	12	C12H19N2O+
221.1648	21	C13H21N2O+
222.1484	5	C13H20NO2+
229.17	43	C15H21N2+
245.165	59	C15H21N2O+
247.1805	999	C15H23N2O+
