Mass spectrum: Erucifoline; LC-ESI-ITFT; MS2; CE: 90%; R=15000; [M+H]+
Name: Erucifoline
Name: CID 75092738
Name: 9-ethylidene-7-(hydroxymethyl)-5-methyl-3,6,11-trioxa-15-azatetracyclo[10.5.1.0^{5,7}.0^{15,18}]octadec-1(17)-ene-4,10-dione
Formula: C18H23NO6
Exact mass: 349.1525
SMILES: CC=C1CC2(C(O2)(C(=O)OCC3=CCN4C3C(CC4)OC1=O)C)CO
InChI: InChI=1S/C18H23NO6/c1-3-11-8-18(10-20)17(2,25-18)16(22)23-9-12-4-6-19-7-5-13(14(12)19)24-15(11)21/h3-4,13-14,20H,5-10H2,1-2H3
Instrument: LTQ Orbitrap XL Thermo Scientific
Instrument type: LC-ESI-ITFT
Ms type: MS2
Ion mode: POSITIVE
Ionization: ESI
Fragmentation mode: HCD
Collision energy: 90 % (nominal)
Resolution: 15000
Column name: Kinetex Evo C18 2.6 um 50x2.1 mm, Phenomenex
Retention time: 1.044 min
Base peak: 350.1594
Precursor m/z: 350.1598
Precursor type: [M+H]+
m/z	relative intensity	assigned
53.0385	159	C4H5+
67.0541	653	C5H7+
68.0493	174	C4H6N+
77.0385	265	C6H5+
79.0543	193	C6H7+
80.0495	317	C5H6N+
81.0572	110	C5H7N+
82.0651	237	C5H8N+
83.0492	95	C5H7O+
91.0543	432	C7H7+
93.0698	215	C7H9+
94.0652	999	C6H8N+
96.0809	335	C6H10N+
103.0543	165	C8H7+
105.0448	159	C6H5N2+
106.0654	113	C7H8N+
108.0808	226	C7H10N+
109.0645	202	C7H9O+
118.0655	234	C8H8N+
120.0808	602	C8H10N+
122.0963	126	C8H12N+
138.0908	183	C8H12NO+
