Mass spectrum: Senkirkine; LC-ESI-ITFT; MS2; CE: 70%; R=15000; [M+H]+
Name: Senkirkine
Name: (1R,4Z,6R,7R,11Z)-4-Ethylidene-7-hydroxy-6,7,14-trimethyl-2,9-dioxa-14-azabicyclo[9.5.1]heptadec-11-ene-3,8,17-trione
Formula: C19H27NO6
Exact mass: 365.1838
SMILES: C/C=C\1/C[C@H]([C@@](C(=O)OC/C/2=C/CN(CC[C@H](C2=O)OC1=O)C)(C)O)C
InChI: InChI=1S/C19H27NO6/c1-5-13-10-12(2)19(3,24)18(23)25-11-14-6-8-20(4)9-7-15(16(14)21)26-17(13)22/h5-6,12,15,24H,7-11H2,1-4H3/b13-5-,14-6-/t12-,15-,19-/m1/s1
Instrument: LTQ Orbitrap XL Thermo Scientific
Instrument type: LC-ESI-ITFT
Ms type: MS2
Ion mode: POSITIVE
Ionization: ESI
Fragmentation mode: CID
Collision energy: 70 % (nominal)
Resolution: 15000
Column name: Kinetex Evo C18 2.6 um 50x2.1 mm, Phenomenex
Retention time: 6.949 min
Base peak: 366.1909
Precursor m/z: 366.1911
Precursor type: [M+H]+
m/z	relative intensity	assigned
94.0649	6	C6H8N+
106.0651	5	C7H8N+
107.0729	9	C7H9N+
107.0855	11	C8H11+
108.0807	11	C7H10N+
109.0648	7	C7H9O+
116.0706	4	C5H10NO2+
117.0574	11	C8H7N+
120.0808	9	C8H10N+
122.0601	219	C7H8NO+
122.0964	105	C8H12N+
123.0679	15	C7H9NO+
124.0757	59	C7H10NO+
125.0597	51	C7H9O2+
125.0961	16	C8H13O+
132.081	7	C9H10N+
134.0601	4	C8H8NO+
135.068	3	C8H9NO+
135.0804	25	C9H11O+
137.0594	7	C8H9O2+
137.0835	48	C8H11NO+
137.0959	4	C9H13O+
138.0913	16	C8H12NO+
140.0707	5	C7H10NO2+
140.1068	8	C8H14NO+
148.0756	4	C9H10NO+
150.0913	904	C9H12NO+
151.0945	5	C4H13N3O3+
153.0909	73	C9H13O2+
163.0759	2	C10H11O2+
168.1019	999	C9H14NO2+
169.1051	6	C4H15N3O4+
181.086	9	C10H13O3+
186.1127	13	C9H16NO3+
199.0964	4	C10H15O4+
220.1333	22	C13H18NO2+
232.1326	3	C14H18NO2+
248.1282	13	C14H18NO3+
250.1435	18	C14H20NO3+
268.1542	33	C14H22NO4+
302.1748	3	C18H24NO3+
304.1906	51	C18H26NO3+
318.17	27	C18H24NO4+
320.1493	10	C17H22NO5+
320.1857	43	C18H26NO4+
322.201	12	C18H28NO4+
330.1697	8	C19H24NO4+
338.1964	84	C18H28NO5+
348.1805	113	C19H26NO5+
