Mass spectrum: Jacobine; LC-ESI-ITFT; MS2; CE: 50%; R=15000; [M+H]+
Name: Jacobine
Name: (1R,3`S,4S,6R,7R,17R)-7-hydroxy-3`,6,7-trimethylspiro[2,9-dioxa-14-azatricyclo[9.5.1.0^{14,17}]heptadec-11-ene-4,2`-oxirane]-3,8-dione
Formula: C18H25NO6
Exact mass: 351.1682
SMILES: C[C@@H]1O[C@@]11C[C@@H](C)[C@@](C)(O)C(=O)OCC2=CCN3CC[C@@H](OC1=O)[C@@H]23
InChI: InChI=1S/C18H25NO6/c1-10-8-18(11(2)25-18)16(21)24-13-5-7-19-6-4-12(14(13)19)9-23-15(20)17(10,3)22/h4,10-11,13-14,22H,5-9H2,1-3H3/t10-,11+,13-,14-,17-,18+/m1/s1
Instrument: LTQ Orbitrap XL Thermo Scientific
Instrument type: LC-ESI-ITFT
Ms type: MS2
Ion mode: POSITIVE
Ionization: ESI
Fragmentation mode: CID
Collision energy: 50 % (nominal)
Resolution: 15000
Column name: Kinetex Evo C18 2.6 um 50x2.1 mm, Phenomenex
Retention time: 1.310 min
Base peak: 352.1753
Precursor m/z: 352.1755
Precursor type: [M+H]+
m/z	relative intensity	assigned
115.0754	13	C6H11O2+
118.0649	6	C8H8N+
120.0808	125	C8H10N+
122.0965	44	C8H12N+
123.1043	56	C8H13N+
138.0914	10	C8H12NO+
140.107	10	C8H14NO+
144.0808	5	C10H10N+
146.0967	9	C10H12N+
147.0801	7	C10H11O+
148.076	8	C9H10NO+
155.1067	171	C9H15O2+
162.0915	44	C10H12NO+
165.0907	7	C10H13O2+
172.1122	7	C12H14N+
174.128	8	C12H16N+
183.1013	5	C10H15O3+
186.1275	6	C13H16N+
190.0861	13	C11H12NO2+
193.0859	10	C11H13O3+
200.1435	54	C14H18N+
204.1383	47	C13H18NO+
210.1126	7	C11H16NO3+
211.096	9	C11H15O4+
216.1383	45	C14H18NO+
218.1541	45	C14H20NO+
234.149	81	C14H20NO2+
236.1639	7	C14H22NO2+
244.1333	21	C15H18NO2+
250.1435	6	C14H20NO3+
262.1439	363	C15H20NO3+
264.1595	57	C15H22NO3+
280.1545	760	C15H22NO4+
290.1376	14	C16H20NO4+
306.1697	9	C17H24NO4+
308.1495	999	C16H22NO5+
324.1805	40	C17H26NO5+
