Mass spectrum: Erucifoline; LC-ESI-ITFT; MS2; CE: 50%; R=15000; [M+H]+
Name: Erucifoline
Name: CID 75092738
Name: 9-ethylidene-7-(hydroxymethyl)-5-methyl-3,6,11-trioxa-15-azatetracyclo[10.5.1.0^{5,7}.0^{15,18}]octadec-1(17)-ene-4,10-dione
Formula: C18H23NO6
Exact mass: 349.1525
SMILES: CC=C1CC2(C(O2)(C(=O)OCC3=CCN4C3C(CC4)OC1=O)C)CO
InChI: InChI=1S/C18H23NO6/c1-3-11-8-18(10-20)17(2,25-18)16(22)23-9-12-4-6-19-7-5-13(14(12)19)24-15(11)21/h3-4,13-14,20H,5-10H2,1-2H3
Instrument: LTQ Orbitrap XL Thermo Scientific
Instrument type: LC-ESI-ITFT
Ms type: MS2
Ion mode: POSITIVE
Ionization: ESI
Fragmentation mode: CID
Collision energy: 50 % (nominal)
Resolution: 15000
Column name: Kinetex Evo C18 2.6 um 50x2.1 mm, Phenomenex
Retention time: 1.052 min
Base peak: 350.1595
Precursor m/z: 350.1598
Precursor type: [M+H]+
m/z	relative intensity	assigned
94.0647	6	C6H8N+
96.081	9	C6H10N+
103.0542	66	C8H7+
106.0652	46	C7H8N+
108.0807	19	C7H10N+
109.0647	22	C7H9O+
110.0601	8	C6H8NO+
110.0964	24	C7H12N+
111.0443	9	C6H7O2+
117.0573	15	C8H7N+
118.0651	131	C8H8N+
120.0808	959	C8H10N+
121.0648	21	C8H9O+
121.0887	23	C8H11N+
122.0963	99	C8H12N+
123.0443	11	C7H7O2+
123.0806	12	C8H11O+
125.06	10	C7H9O2+
134.0962	14	C9H12N+
136.0757	16	C8H10NO+
136.112	36	C9H14N+
137.0602	13	C8H9O2+
138.0913	448	C8H12NO+
139.0753	11	C8H11O2+
140.1065	6	C8H14NO+
141.0546	31	C7H9O3+
146.0965	43	C10H12N+
148.1121	27	C10H14N+
149.0597	15	C9H9O2+
149.0834	10	C9H11NO+
151.0755	9	C9H11O2+
156.102	26	C8H14NO2+
164.107	459	C10H14NO+
165.0543	29	C9H9O3+
167.0705	14	C9H11O3+
174.0918	18	C11H12NO+
176.107	21	C11H14NO+
182.0814	17	C9H12NO3+
182.1176	230	C10H16NO2+
192.1021	26	C11H14NO2+
208.0965	16	C11H14NO3+
220.1335	30	C13H18NO2+
246.1482	15	C15H20NO2+
250.1045	5	C10H18O7+
276.1226	6	C15H18NO4+
278.1388	27	C15H20NO4+
280.1541	64	C15H22NO4+
292.1542	38	C16H22NO4+
294.1332	30	C15H20NO5+
302.1386	57	C17H20NO4+
306.1335	8	C16H20NO5+
306.1707	17	C17H24NO4+
320.1493	118	C17H22NO5+
322.1649	999	C17H24NO5+
332.1483	7	C18H22NO5+
