Mass spectrum: Jacobine; LC-ESI-ITFT; MS2; CE: 85%; R=15000; [M+H]+
Name: Jacobine
Name: (1R,3`S,4S,6R,7R,17R)-7-hydroxy-3`,6,7-trimethylspiro[2,9-dioxa-14-azatricyclo[9.5.1.0^{14,17}]heptadec-11-ene-4,2`-oxirane]-3,8-dione
Formula: C18H25NO6
Exact mass: 351.1682
SMILES: C[C@@H]1O[C@@]11C[C@@H](C)[C@@](C)(O)C(=O)OCC2=CCN3CC[C@@H](OC1=O)[C@@H]23
InChI: InChI=1S/C18H25NO6/c1-10-8-18(11(2)25-18)16(21)24-13-5-7-19-6-4-12(14(13)19)9-23-15(20)17(10,3)22/h4,10-11,13-14,22H,5-9H2,1-3H3/t10-,11+,13-,14-,17-,18+/m1/s1
Instrument: LTQ Orbitrap XL Thermo Scientific
Instrument type: LC-ESI-ITFT
Ms type: MS2
Ion mode: POSITIVE
Ionization: ESI
Fragmentation mode: CID
Collision energy: 85 % (nominal)
Resolution: 15000
Column name: Kinetex Evo C18 2.6 um 50x2.1 mm, Phenomenex
Retention time: 1.299 min
Base peak: 352.1754
Precursor m/z: 352.1755
Precursor type: [M+H]+
m/z	relative intensity	assigned
115.0753	13	C6H11O2+
118.0651	10	C8H8N+
120.0807	124	C8H10N+
122.0964	45	C8H12N+
123.1043	51	C8H13N+
134.0962	7	C9H12N+
138.0916	7	C8H12NO+
140.1068	11	C8H14NO+
146.0965	15	C10H12N+
148.0759	11	C9H10NO+
148.1122	7	C10H14N+
155.1066	192	C9H15O2+
162.0914	49	C10H12NO+
174.1275	7	C12H16N+
190.0857	12	C11H12NO2+
200.1434	52	C14H18N+
204.1382	59	C13H18NO+
211.0971	13	C11H15O4+
216.1381	42	C14H18NO+
218.1538	53	C14H20NO+
234.1486	89	C14H20NO2+
244.1326	23	C15H18NO2+
250.1433	10	C14H20NO3+
262.1436	377	C15H20NO3+
264.1592	70	C15H22NO3+
280.1541	730	C15H22NO4+
290.1387	16	C16H20NO4+
292.1539	8	C16H22NO4+
306.1702	17	C17H24NO4+
308.1492	999	C16H22NO5+
324.1806	43	C17H26NO5+
