Mass spectrum: Jacobine N-oxide; LC-ESI-ITFT; MS2; CE: 40%; R=15000; [M+H]+
Name: Jacobine N-oxide
Name: (1R,3`S,4S,6R,7R,17R)-7-hydroxy-3`,6,7-trimethyl-14-oxidospiro[2,9-dioxa-14-azoniatricyclo[9.5.1.0^{14,17}]heptadec-11-ene-4,2`-oxirane]-3,8-dione
Formula: C18H25NO7
Exact mass: 367.1631
SMILES: C[C@@H]1O[C@@]11C[C@@H](C)[C@@](C)(O)C(=O)OCC2=CCN3(=O)CC[C@@H](OC1=O)[C@@H]23
InChI: InChI=1S/C18H25NO7/c1-10-8-18(11(2)26-18)16(21)25-13-5-7-19(23)6-4-12(14(13)19)9-24-15(20)17(10,3)22/h4,10-11,13-14,22H,5-9H2,1-3H3/t10-,11+,13-,14-,17-,18+,19?/m1/s1
Instrument: LTQ Orbitrap XL Thermo Scientific
Instrument type: LC-ESI-ITFT
Ms type: MS2
Ion mode: POSITIVE
Ionization: ESI
Fragmentation mode: CID
Collision energy: 40 % (nominal)
Resolution: 15000
Column name: Kinetex Evo C18 2.6 um 50x2.1 mm, Phenomenex
Retention time: 1.679 min
Base peak: 61.0395
Precursor m/z: 368.1704
Precursor type: [M+H]+
m/z	relative intensity	assigned
106.0652	1	C7H8N+
108.0806	1	C7H10N+
118.0652	9	C8H8N+
119.073	6	C8H9N+
120.0808	27	C8H10N+
121.0886	6	C8H11N+
122.0964	2	C8H12N+
124.0755	2	C7H10NO+
136.0757	4	C8H10NO+
138.0912	3	C8H12NO+
139.0991	15	C8H13NO+
148.112	1	C10H14N+
154.0861	3	C8H12NO2+
156.1017	3	C8H14NO2+
174.1279	1	C12H16N+
178.0861	1	C10H12NO2+
190.1228	7	C12H16NO+
192.1024	2	C11H14NO2+
200.1434	3	C14H18N+
218.1539	5	C14H20NO+
232.1332	1	C14H18NO2+
236.1278	1	C13H18NO3+
254.1378	3	C13H20NO4+
260.1285	6	C15H18NO3+
262.1439	4	C15H20NO3+
268.1546	7	C14H22NO4+
274.1433	2	C16H20NO3+
278.1392	3	C15H20NO4+
280.1546	9	C15H22NO4+
296.1492	999	C15H22NO5+
306.1335	5	C16H20NO5+
308.15	4	C16H22NO5+
324.1441	67	C16H22NO6+
340.1754	10	C17H26NO6+
