Mass spectrum: Jacobine N-oxide; LC-ESI-ITFT; MS2; CE: 80%; R=15000; [M+H]+
Name: Jacobine N-oxide
Name: (1R,3`S,4S,6R,7R,17R)-7-hydroxy-3`,6,7-trimethyl-14-oxidospiro[2,9-dioxa-14-azoniatricyclo[9.5.1.0^{14,17}]heptadec-11-ene-4,2`-oxirane]-3,8-dione
Formula: C18H25NO7
Exact mass: 367.1631
SMILES: C[C@@H]1O[C@@]11C[C@@H](C)[C@@](C)(O)C(=O)OCC2=CCN3(=O)CC[C@@H](OC1=O)[C@@H]23
InChI: InChI=1S/C18H25NO7/c1-10-8-18(11(2)26-18)16(21)25-13-5-7-19(23)6-4-12(14(13)19)9-24-15(20)17(10,3)22/h4,10-11,13-14,22H,5-9H2,1-3H3/t10-,11+,13-,14-,17-,18+,19?/m1/s1
Instrument: LTQ Orbitrap XL Thermo Scientific
Instrument type: LC-ESI-ITFT
Ms type: MS2
Ion mode: POSITIVE
Ionization: ESI
Fragmentation mode: CID
Collision energy: 80 % (nominal)
Resolution: 15000
Column name: Kinetex Evo C18 2.6 um 50x2.1 mm, Phenomenex
Retention time: 1.556 min
Base peak: 61.0394
Precursor m/z: 368.1704
Precursor type: [M+H]+
m/z	relative intensity	assigned
118.0652	11	C8H8N+
120.0808	25	C8H10N+
139.099	15	C8H13NO+
190.1228	9	C12H16NO+
296.1491	999	C15H22NO5+
324.144	67	C16H22NO6+
