Mass spectrum: Senkirkine; LC-ESI-ITFT; MS2; CE: 80%; R=15000; [M+H]+
Name: Senkirkine
Name: (1R,4Z,6R,7R,11Z)-4-Ethylidene-7-hydroxy-6,7,14-trimethyl-2,9-dioxa-14-azabicyclo[9.5.1]heptadec-11-ene-3,8,17-trione
Formula: C19H27NO6
Exact mass: 365.1838
SMILES: C/C=C\1/C[C@H]([C@@](C(=O)OC/C/2=C/CN(CC[C@H](C2=O)OC1=O)C)(C)O)C
InChI: InChI=1S/C19H27NO6/c1-5-13-10-12(2)19(3,24)18(23)25-11-14-6-8-20(4)9-7-15(16(14)21)26-17(13)22/h5-6,12,15,24H,7-11H2,1-4H3/b13-5-,14-6-/t12-,15-,19-/m1/s1
Instrument: LTQ Orbitrap XL Thermo Scientific
Instrument type: LC-ESI-ITFT
Ms type: MS2
Ion mode: POSITIVE
Ionization: ESI
Fragmentation mode: CID
Collision energy: 80 % (nominal)
Resolution: 15000
Column name: Kinetex Evo C18 2.6 um 50x2.1 mm, Phenomenex
Retention time: 6.910 min
Base peak: 366.1909
Precursor m/z: 366.1911
Precursor type: [M+H]+
m/z	relative intensity	assigned
94.0654	5	C6H8N+
107.0489	2	C7H7O+
107.073	9	C7H9N+
107.0854	9	C8H11+
117.0573	8	C8H7N+
120.0808	8	C8H10N+
122.0601	208	C7H8NO+
122.0965	107	C8H12N+
123.0681	10	C7H9NO+
124.0757	59	C7H10NO+
125.0598	48	C7H9O2+
125.096	16	C8H13O+
132.0809	9	C9H10N+
134.0601	3	C8H8NO+
135.0806	24	C9H11O+
137.0595	9	C8H9O2+
137.0836	38	C8H11NO+
137.096	6	C9H13O+
138.0914	18	C8H12NO+
140.0704	6	C7H10NO2+
140.1071	8	C8H14NO+
150.0914	859	C9H12NO+
153.0911	65	C9H13O2+
168.102	999	C9H14NO2+
181.0861	10	C10H13O3+
220.1335	22	C13H18NO2+
248.1286	13	C14H18NO3+
250.1439	19	C14H20NO3+
268.1547	30	C14H22NO4+
304.1908	50	C18H26NO3+
318.1703	27	C18H24NO4+
320.1496	13	C17H22NO5+
320.1858	34	C18H26NO4+
330.17	11	C19H24NO4+
338.1964	80	C18H28NO5+
348.1808	115	C19H26NO5+
