Mass spectrum: Gramine; LC-ESI-ITFT; MS2; CE: 35%; R=15000; [M+H]+
Name: Gramine
Name: 1-(1H-indol-3-yl)-N,N-dimethylmethanamine
Formula: C11H14N2
Exact mass: 174.1157
SMILES: CN(C)CC1=CNC2=CC=CC=C12
InChI: InChI=1S/C11H14N2/c1-13(2)8-9-7-12-11-6-4-3-5-10(9)11/h3-7,12H,8H2,1-2H3
Instrument: LTQ Orbitrap XL Thermo Scientific
Instrument type: LC-ESI-ITFT
Ms type: MS2
Ion mode: POSITIVE
Ionization: ESI
Fragmentation mode: HCD
Collision energy: 35 % (nominal)
Resolution: 15000
Column name: Synergi Polar RP, 2.5 um 100x3.0 mm, Phenomenex
Retention time: 7.584 min
Base peak: 195.0841
Precursor m/z: 175.123
Precursor type: [M+H]+
m/z	relative intensity	assigned
130.0652	999	C9H8N+
