Mass spectrum: Senkirkine; LC-ESI-ITFT; MS2; CE: 45%; R=15000; [M+H]+
Name: Senkirkine
Name: (1R,4Z,6R,7R,11Z)-4-Ethylidene-7-hydroxy-6,7,14-trimethyl-2,9-dioxa-14-azabicyclo[9.5.1]heptadec-11-ene-3,8,17-trione
Formula: C19H27NO6
Exact mass: 365.1838
SMILES: C/C=C\1/C[C@H]([C@@](C(=O)OC/C/2=C/CN(CC[C@H](C2=O)OC1=O)C)(C)O)C
InChI: InChI=1S/C19H27NO6/c1-5-13-10-12(2)19(3,24)18(23)25-11-14-6-8-20(4)9-7-15(16(14)21)26-17(13)22/h5-6,12,15,24H,7-11H2,1-4H3/b13-5-,14-6-/t12-,15-,19-/m1/s1
Instrument: LTQ Orbitrap XL Thermo Scientific
Instrument type: LC-ESI-ITFT
Ms type: MS2
Ion mode: POSITIVE
Ionization: ESI
Fragmentation mode: HCD
Collision energy: 45 % (nominal)
Resolution: 15000
Column name: Kinetex Evo C18 2.6 um 50x2.1 mm, Phenomenex
Retention time: 6.922 min
Base peak: 366.191
Precursor m/z: 366.1911
Precursor type: [M+H]+
m/z	relative intensity	assigned
55.0542	6	C4H7+
70.0651	41	C4H8N+
79.0542	7	C6H7+
81.07	16	C6H9+
83.0492	28	C5H7O+
94.0651	15	C6H8N+
96.0807	6	C6H10N+
97.0649	6	C6H9O+
99.0444	5	C5H7O2+
101.0598	31	C5H9O2+
107.0492	107	C7H7O+
107.0855	62	C8H11+
109.0649	12	C7H9O+
109.1012	25	C8H13+
110.0602	5	C6H8NO+
116.0707	21	C5H10NO2+
120.0811	8	C8H10N+
122.0601	154	C7H8NO+
122.0964	69	C8H12N+
123.0634	6	C2H9N3O3+
123.068	16	C7H9NO+
124.0757	49	C7H10NO+
125.0596	51	C7H9O2+
125.0961	72	C8H13O+
135.0805	71	C9H11O+
137.0594	7	C8H9O2+
137.0836	6	C8H11NO+
137.096	14	C9H13O+
138.0909	5	C8H12NO+
140.0707	12	C7H10NO2+
140.1071	15	C8H14NO+
150.0914	393	C9H12NO+
151.0951	22	C4H13N3O3+
152.1072	5	C9H14NO+
153.091	234	C9H13O2+
154.0944	11	C4H14N2O4+
163.0755	7	C10H11O2+
168.1019	999	C9H14NO2+
169.1051	65	C4H15N3O4+
181.0859	24	C10H13O3+
186.1119	8	C9H16NO3+
199.0973	4	C10H15O4+
268.1547	6	C14H22NO4+
304.191	6	C18H26NO3+
320.186	7	C18H26NO4+
338.1951	5	C18H28NO5+
348.1814	10	C19H26NO5+
366.1913	452	C19H28NO6+
