Mass spectrum: Jacobine; LC-ESI-ITFT; MS2; CE: 70%; R=15000; [M+H]+
Name: Jacobine
Name: (1R,3`S,4S,6R,7R,17R)-7-hydroxy-3`,6,7-trimethylspiro[2,9-dioxa-14-azatricyclo[9.5.1.0^{14,17}]heptadec-11-ene-4,2`-oxirane]-3,8-dione
Formula: C18H25NO6
Exact mass: 351.1682
SMILES: C[C@@H]1O[C@@]11C[C@@H](C)[C@@](C)(O)C(=O)OCC2=CCN3CC[C@@H](OC1=O)[C@@H]23
InChI: InChI=1S/C18H25NO6/c1-10-8-18(11(2)25-18)16(21)24-13-5-7-19-6-4-12(14(13)19)9-23-15(20)17(10,3)22/h4,10-11,13-14,22H,5-9H2,1-3H3/t10-,11+,13-,14-,17-,18+/m1/s1
Instrument: LTQ Orbitrap XL Thermo Scientific
Instrument type: LC-ESI-ITFT
Ms type: MS2
Ion mode: POSITIVE
Ionization: ESI
Fragmentation mode: CID
Collision energy: 70 % (nominal)
Resolution: 15000
Column name: Kinetex Evo C18 2.6 um 50x2.1 mm, Phenomenex
Retention time: 1.303 min
Base peak: 352.1752
Precursor m/z: 352.1755
Precursor type: [M+H]+
m/z	relative intensity	assigned
115.0753	13	C6H11O2+
120.0808	134	C8H10N+
122.0965	48	C8H12N+
123.1043	65	C8H13N+
138.0918	7	C8H12NO+
140.1067	12	C8H14NO+
146.0966	14	C10H12N+
148.0757	7	C9H10NO+
155.1067	181	C9H15O2+
162.0915	49	C10H12NO+
173.1195	8	C12H15N+
174.1272	8	C12H16N+
190.0862	8	C11H12NO2+
200.1434	60	C14H18N+
201.1113	6	C10H17O4+
204.1383	46	C13H18NO+
211.0965	16	C11H15O4+
216.1384	45	C14H18NO+
218.1539	43	C14H20NO+
234.1488	84	C14H20NO2+
244.133	19	C15H18NO2+
250.145	6	C14H20NO3+
262.1439	372	C15H20NO3+
264.1593	65	C15H22NO3+
280.1544	783	C15H22NO4+
290.1385	12	C16H20NO4+
306.1708	11	C17H24NO4+
308.1494	999	C16H22NO5+
324.1804	41	C17H26NO5+
