Mass spectrum: 13a-Hydroxylupanin; LC-ESI-ITFT; MS2; CE: 55%; R=15000; [M+H]+
Name: 13a-Hydroxylupanin
Name: Hydroxylupanine
Name: (1S,2R,9S,10S,12S)-12-hydroxy-7,15-diazatetracyclo[7.7.1.0^{2,7}.0^{10,15}]heptadecan-6-one
Formula: C15H24N2O2
Exact mass: 264.1838
SMILES: C1C[C@@H]2[C@H]3C[C@@H](CN2C(=O)C1)[C@@H]4C[C@H](CCN4C3)O
InChI: InChI=1S/C15H24N2O2/c18-12-4-5-16-8-10-6-11(14(16)7-12)9-17-13(10)2-1-3-15(17)19/h10-14,18H,1-9H2/t10-,11-,12-,13+,14-/m0/s1
Instrument: LTQ Orbitrap XL Thermo Scientific
Instrument type: LC-ESI-ITFT
Ms type: MS2
Ion mode: POSITIVE
Ionization: ESI
Fragmentation mode: CID
Collision energy: 55 % (nominal)
Resolution: 15000
Column name: Synergi Polar RP, 2.5 um 100x3.0 mm, Phenomenex
Retention time: 5.228 min
Base peak: 236.0739
Precursor m/z: 265.1911
Precursor type: [M+H]+
m/z	relative intensity	assigned
82.0651	2	C5H8N+
84.0807	7	C5H10N+
91.0542	3	C7H7+
96.0808	42	C6H10N+
98.0966	4	C6H12N+
105.0695	3	C8H9+
108.0807	13	C7H10N+
110.0965	22	C7H12N+
112.0757	38	C6H10NO+
114.0913	91	C6H12NO+
119.0857	6	C9H11+
120.0808	3	C8H10N+
122.0963	10	C8H12N+
124.0755	3	C7H10NO+
124.1121	10	C8H14N+
131.0851	2	C10H11+
132.0808	6	C9H10N+
134.0964	30	C9H12N+
136.0758	2	C8H10NO+
146.0966	7	C10H12N+
148.1121	94	C10H14N+
150.0914	58	C9H12NO+
150.1276	18	C10H16N+
152.107	337	C9H14NO+
158.165	2	C8H20N3+
162.0913	26	C10H12NO+
162.1281	4	C11H16N+
164.107	56	C10H14NO+
166.1226	42	C10H16NO+
168.1383	8	C10H18NO+
176.1069	17	C11H14NO+
176.144	4	C12H18N+
178.1228	7	C11H16NO+
190.1219	3	C12H16NO+
193.1336	28	C11H17N2O+
204.1382	18	C13H18NO+
207.1491	15	C12H19N2O+
216.1378	2	C14H18NO+
221.1648	20	C13H21N2O+
222.149	6	C13H20NO2+
229.17	45	C15H21N2+
245.165	63	C15H21N2O+
247.1805	999	C15H23N2O+
