Mass spectrum: Senecionine N-oxide; LC-ESI-ITFT; MS2; CE: 40%; R=15000; [M+H]+
Name: Senecionine N-oxide
Name: (1R,4Z,6R,7R,17R)-4-ethylidene-7-hydroxy-6,7-dimethyl-14-oxido-2,9-dioxa-14-azoniatricyclo[9.5.1.0^{14,17}]heptadec-11-ene-3,8-dione
Formula: C18H25NO6
Exact mass: 351.1682
SMILES: C\C=C1\C[C@@H](C)[C@@](C)(O)C(=O)OCC2=CC[N+]3([O-])CC[C@@H](OC1=O)[C@@H]23
InChI: InChI=1S/C18H25NO6/c1-4-12-9-11(2)18(3,22)17(21)24-10-13-5-7-19(23)8-6-14(15(13)19)25-16(12)20/h4-5,11,14-15,22H,6-10H2,1-3H3/b12-4-/t11-,14-,15-,18-,19?/m1/s1
Instrument: LTQ Orbitrap XL Thermo Scientific
Instrument type: LC-ESI-ITFT
Ms type: MS2
Ion mode: POSITIVE
Ionization: ESI
Fragmentation mode: HCD
Collision energy: 40 % (nominal)
Resolution: 15000
Column name: Kinetex Evo C18 2.6 um 50x2.1 mm, Phenomenex
Retention time: 6.177 min
Base peak: 195.0874
Precursor m/z: 352.1755
Precursor type: [M+H]+
m/z	relative intensity	assigned
93.0573	20	C6H7N+
94.0651	28	C6H8N+
95.0729	78	C6H9N+
106.065	21	C7H8N+
118.065	178	C8H8N+
119.0728	125	C8H9N+
120.0807	89	C8H10N+
121.0885	94	C8H11N+
136.0756	96	C8H10NO+
138.0911	52	C8H12NO+
153.0906	27	C9H13O2+
154.0861	53	C8H12NO2+
220.1329	125	C13H18NO2+
246.1484	39	C15H20NO2+
248.1641	31	C15H22NO2+
352.1752	999	C18H26NO6+
