Mass spectrum: Jacobine; LC-ESI-ITFT; MS2; CE: 55%; R=15000; [M+H]+
Name: Jacobine
Name: (1R,3`S,4S,6R,7R,17R)-7-hydroxy-3`,6,7-trimethylspiro[2,9-dioxa-14-azatricyclo[9.5.1.0^{14,17}]heptadec-11-ene-4,2`-oxirane]-3,8-dione
Formula: C18H25NO6
Exact mass: 351.1682
SMILES: C[C@@H]1O[C@@]11C[C@@H](C)[C@@](C)(O)C(=O)OCC2=CCN3CC[C@@H](OC1=O)[C@@H]23
InChI: InChI=1S/C18H25NO6/c1-10-8-18(11(2)25-18)16(21)24-13-5-7-19-6-4-12(14(13)19)9-23-15(20)17(10,3)22/h4,10-11,13-14,22H,5-9H2,1-3H3/t10-,11+,13-,14-,17-,18+/m1/s1
Instrument: LTQ Orbitrap XL Thermo Scientific
Instrument type: LC-ESI-ITFT
Ms type: MS2
Ion mode: POSITIVE
Ionization: ESI
Fragmentation mode: HCD
Collision energy: 55 % (nominal)
Resolution: 15000
Column name: Kinetex Evo C18 2.6 um 50x2.1 mm, Phenomenex
Retention time: 1.310 min
Base peak: 352.1753
Precursor m/z: 352.1755
Precursor type: [M+H]+
m/z	relative intensity	assigned
70.0651	160	C4H8N+
79.0544	111	C6H7+
80.0495	271	C5H6N+
91.0541	63	C7H7+
93.0698	159	C7H9+
94.0652	240	C6H8N+
96.0807	47	C6H10N+
105.07	62	C8H9+
107.0725	52	C7H9N+
108.0806	121	C7H10N+
110.0961	38	C7H12N+
113.0598	112	C6H9O2+
120.0808	999	C8H10N+
121.0884	65	C8H11N+
122.0964	796	C8H12N+
123.1043	521	C8H13N+
138.0912	158	C8H12NO+
140.1069	168	C8H14NO+
144.0812	32	C10H10N+
146.0966	42	C10H12N+
148.0758	39	C9H10NO+
149.0963	43	C10H13O+
155.1066	660	C9H15O2+
162.0914	209	C10H12NO+
165.0911	55	C10H13O2+
216.1375	40	C14H18NO+
234.1488	153	C14H20NO2+
262.143	112	C15H20NO3+
264.1591	65	C15H22NO3+
280.1541	283	C15H22NO4+
308.1496	64	C16H22NO5+
324.1795	56	C17H26NO5+
352.1767	154	C18H26NO6+
