Mass spectrum: Monocrotaline; LC-ESI-ITFT; MS2; CE: 45%; R=15000; [M+H]+
Name: Monocrotaline
Name: (1R,4R,5R,6R,16R)-5,6-dihydroxy-4,5,6-trimethyl-2,8-dioxa-13-azatricyclo[8.5.1.0^{13,16}]hexadec-10-ene-3,7-dione
Formula: C16H23NO6
Exact mass: 325.1525
SMILES: C[C@H]1C(=O)O[C@@H]2CCN3CC=C(COC(=O)[C@](C)(O)[C@]1(C)O)[C@H]23
InChI: InChI=1S/C16H23NO6/c1-9-13(18)23-11-5-7-17-6-4-10(12(11)17)8-22-14(19)16(3,21)15(9,2)20/h4,9,11-12,20-21H,5-8H2,1-3H3/t9-,11+,12+,15+,16-/m0/s1
Instrument: LTQ Orbitrap XL Thermo Scientific
Instrument type: LC-ESI-ITFT
Ms type: MS2
Ion mode: POSITIVE
Ionization: ESI
Fragmentation mode: CID
Collision energy: 45 % (nominal)
Resolution: 15000
Column name: Kinetex Evo C18 2.6 um 50x2.1 mm, Phenomenex
Retention time: 0.930 min
Base peak: 326.1599
Precursor m/z: 326.1598
Precursor type: [M+H]+
m/z	relative intensity	assigned
94.0652	12	C6H8N+
103.0543	2	C8H7+
105.07	2	C8H9+
106.0652	16	C7H8N+
108.0808	9	C7H10N+
110.06	8	C6H8NO+
118.0651	3	C8H8N+
120.0809	218	C8H10N+
121.0887	128	C8H11N+
122.0965	82	C8H12N+
123.1044	2	C8H13N+
136.0757	17	C8H10NO+
136.112	5	C9H14N+
138.0914	34	C8H12NO+
139.0995	9	C8H13NO+
140.107	9	C8H14NO+
146.0965	11	C10H12N+
148.1122	24	C10H14N+
153.0784	8	C8H11NO2+
156.1019	2	C8H14NO2+
164.1071	185	C10H14NO+
166.0866	6	C9H12NO2+
174.0916	11	C11H12NO+
180.1019	12	C10H14NO2+
182.1176	28	C10H16NO2+
184.0968	11	C9H14NO3+
192.102	24	C11H14NO2+
194.1177	188	C11H16NO2+
195.1257	8	C11H17NO2+
208.097	18	C11H14NO3+
210.1125	122	C11H16NO3+
212.128	4	C11H18NO3+
222.1127	2	C12H16NO3+
228.1231	49	C11H18NO4+
236.1282	6	C13H18NO3+
237.1361	348	C13H19NO3+
238.1439	214	C13H20NO3+
252.1231	21	C13H18NO4+
254.1387	11	C13H20NO4+
270.134	2	C13H20NO5+
280.1544	999	C15H22NO4+
282.1691	4	C15H24NO4+
298.1651	86	C15H24NO5+
308.1495	27	C16H22NO5+
