Mass spectrum: Erucifoline; LC-ESI-ITFT; MS2; CE: 70%; R=15000; [M+H]+
Name: Erucifoline
Name: CID 75092738
Name: 9-ethylidene-7-(hydroxymethyl)-5-methyl-3,6,11-trioxa-15-azatetracyclo[10.5.1.0^{5,7}.0^{15,18}]octadec-1(17)-ene-4,10-dione
Formula: C18H23NO6
Exact mass: 349.1525
SMILES: CC=C1CC2(C(O2)(C(=O)OCC3=CCN4C3C(CC4)OC1=O)C)CO
InChI: InChI=1S/C18H23NO6/c1-3-11-8-18(10-20)17(2,25-18)16(22)23-9-12-4-6-19-7-5-13(14(12)19)24-15(11)21/h3-4,13-14,20H,5-10H2,1-2H3
Instrument: LTQ Orbitrap XL Thermo Scientific
Instrument type: LC-ESI-ITFT
Ms type: MS2
Ion mode: POSITIVE
Ionization: ESI
Fragmentation mode: CID
Collision energy: 70 % (nominal)
Resolution: 15000
Column name: Kinetex Evo C18 2.6 um 50x2.1 mm, Phenomenex
Retention time: 1.053 min
Base peak: 350.1596
Precursor m/z: 350.1598
Precursor type: [M+H]+
m/z	relative intensity	assigned
94.0653	7	C6H8N+
103.0543	61	C8H7+
106.0651	50	C7H8N+
108.0807	18	C7H10N+
109.0649	15	C7H9O+
110.0599	6	C6H8NO+
110.0964	23	C7H12N+
117.0572	10	C8H7N+
118.0652	134	C8H8N+
120.0808	948	C8H10N+
121.0647	24	C8H9O+
121.0887	25	C8H11N+
122.0964	93	C8H12N+
123.044	30	C7H7O2+
123.0801	8	C8H11O+
125.0597	14	C7H9O2+
134.0965	11	C9H12N+
136.076	21	C8H10NO+
136.1121	30	C9H14N+
137.0596	16	C8H9O2+
138.0914	438	C8H12NO+
139.075	10	C8H11O2+
139.0992	6	C8H13NO+
141.0546	39	C7H9O3+
146.0965	37	C10H12N+
148.1122	29	C10H14N+
149.0597	15	C9H9O2+
149.0831	8	C9H11NO+
151.0754	10	C9H11O2+
156.1022	19	C8H14NO2+
164.107	486	C10H14NO+
165.0547	37	C9H9O3+
167.07	8	C9H11O3+
174.0912	23	C11H12NO+
176.1072	29	C11H14NO+
182.0808	17	C9H12NO3+
182.1176	238	C10H16NO2+
192.1018	24	C11H14NO2+
206.118	7	C12H16NO2+
208.0966	17	C11H14NO3+
210.113	12	C11H16NO3+
220.1329	29	C13H18NO2+
232.1325	7	C14H18NO2+
278.1388	32	C15H20NO4+
280.1543	52	C15H22NO4+
292.1546	43	C16H22NO4+
294.1338	28	C15H20NO5+
302.139	65	C17H20NO4+
306.1332	12	C16H20NO5+
306.1695	19	C17H24NO4+
320.1494	125	C17H22NO5+
322.165	999	C17H24NO5+
