Mass spectrum: Senecionine N-oxide; LC-ESI-ITFT; MS2; CE: 20%; R=15000; [M+H]+
Name: Senecionine N-oxide
Name: (1R,4Z,6R,7R,17R)-4-ethylidene-7-hydroxy-6,7-dimethyl-14-oxido-2,9-dioxa-14-azoniatricyclo[9.5.1.0^{14,17}]heptadec-11-ene-3,8-dione
Formula: C18H25NO6
Exact mass: 351.1682
SMILES: C\C=C1\C[C@@H](C)[C@@](C)(O)C(=O)OCC2=CC[N+]3([O-])CC[C@@H](OC1=O)[C@@H]23
InChI: InChI=1S/C18H25NO6/c1-4-12-9-11(2)18(3,22)17(21)24-10-13-5-7-19(23)8-6-14(15(13)19)25-16(12)20/h4-5,11,14-15,22H,6-10H2,1-3H3/b12-4-/t11-,14-,15-,18-,19?/m1/s1
Instrument: LTQ Orbitrap XL Thermo Scientific
Instrument type: LC-ESI-ITFT
Ms type: MS2
Ion mode: POSITIVE
Ionization: ESI
Fragmentation mode: CID
Collision energy: 20 % (nominal)
Resolution: 15000
Column name: Kinetex Evo C18 2.6 um 50x2.1 mm, Phenomenex
Retention time: 6.233 min
Base peak: 116.9858
Precursor m/z: 352.1755
Precursor type: [M+H]+
m/z	relative intensity	assigned
106.0655	5	C7H8N+
118.065	23	C8H8N+
119.073	7	C8H9N+
120.0808	16	C8H10N+
121.0888	6	C8H11N+
136.0755	5	C8H10NO+
220.1332	28	C13H18NO2+
246.1488	19	C15H20NO2+
248.164	7	C15H22NO2+
254.1387	8	C13H20NO4+
324.1803	24	C17H26NO5+
352.1754	999	C18H26NO6+
