Mass spectrum: Senkirkine; LC-ESI-ITFT; MS2; CE: 30%; R=15000; [M+H]+
Name: Senkirkine
Name: (1R,4Z,6R,7R,11Z)-4-Ethylidene-7-hydroxy-6,7,14-trimethyl-2,9-dioxa-14-azabicyclo[9.5.1]heptadec-11-ene-3,8,17-trione
Formula: C19H27NO6
Exact mass: 365.1838
SMILES: C/C=C\1/C[C@H]([C@@](C(=O)OC/C/2=C/CN(CC[C@H](C2=O)OC1=O)C)(C)O)C
InChI: InChI=1S/C19H27NO6/c1-5-13-10-12(2)19(3,24)18(23)25-11-14-6-8-20(4)9-7-15(16(14)21)26-17(13)22/h5-6,12,15,24H,7-11H2,1-4H3/b13-5-,14-6-/t12-,15-,19-/m1/s1
Instrument: LTQ Orbitrap XL Thermo Scientific
Instrument type: LC-ESI-ITFT
Ms type: MS2
Ion mode: POSITIVE
Ionization: ESI
Fragmentation mode: CID
Collision energy: 30 % (nominal)
Resolution: 15000
Column name: Kinetex Evo C18 2.6 um 50x2.1 mm, Phenomenex
Retention time: 6.877 min
Base peak: 366.1908
Precursor m/z: 366.1911
Precursor type: [M+H]+
m/z	relative intensity	assigned
120.0808	3	C8H10N+
122.06	119	C7H8NO+
122.0964	53	C8H12N+
123.068	6	C7H9NO+
124.0757	27	C7H10NO+
125.0598	23	C7H9O2+
125.0963	6	C8H13O+
135.0804	12	C9H11O+
137.0835	19	C8H11NO+
150.0913	512	C9H12NO+
153.091	30	C9H13O2+
168.1019	547	C9H14NO2+
248.128	8	C14H18NO3+
250.1439	8	C14H20NO3+
268.1543	14	C14H22NO4+
304.1909	21	C18H26NO3+
320.1859	15	C18H26NO4+
338.1962	44	C18H28NO5+
348.1806	70	C19H26NO5+
366.1911	999	C19H28NO6+
