Mass spectrum: Lupinine; LC-ESI-ITFT; MS2; CE: 75%; R=15000; [M+H]+
Name: Lupinine
Name: [(1R,9aR)-2,3,4,6,7,8,9,9a-octahydro-1H-quinolizin-1-yl]methanol
Formula: C10H19NO
Exact mass: 169.1467
SMILES: OC[C@@H]1CCCN2CCCC[C@H]12
InChI: InChI=1S/C10H19NO/c12-8-9-4-3-7-11-6-2-1-5-10(9)11/h9-10,12H,1-8H2/t9-,10+/m0/s1
Instrument: LTQ Orbitrap XL Thermo Scientific
Instrument type: LC-ESI-ITFT
Ms type: MS2
Ion mode: POSITIVE
Ionization: ESI
Fragmentation mode: HCD
Collision energy: 75 % (nominal)
Resolution: 15000
Column name: Synergi Polar RP, 2.5 um 100x3.0 mm, Phenomenex
Retention time: 3.957 min
Base peak: 236.0738
Precursor m/z: 170.1539
Precursor type: [M+H]+
m/z	relative intensity	assigned
55.054	2	C4H7+
67.0541	3	C5H7+
70.0651	4	C4H8N+
79.0543	2	C6H7+
81.0699	5	C6H9+
84.0808	8	C5H10N+
93.0699	4	C7H9+
96.0808	5	C6H10N+
98.0964	8	C6H12N+
107.086	2	C8H11+
109.1012	1	C8H13+
110.0965	5	C7H12N+
124.112	21	C8H14N+
137.1198	8	C9H15N+
150.1275	3	C10H16N+
152.1434	142	C10H18N+
170.154	999	C10H20NO+
