Mass spectrum: Erucifoline; LC-ESI-ITFT; MS2; CE: 55%; R=15000; [M+H]+
Name: Erucifoline
Name: CID 75092738
Name: 9-ethylidene-7-(hydroxymethyl)-5-methyl-3,6,11-trioxa-15-azatetracyclo[10.5.1.0^{5,7}.0^{15,18}]octadec-1(17)-ene-4,10-dione
Formula: C18H23NO6
Exact mass: 349.1525
SMILES: CC=C1CC2(C(O2)(C(=O)OCC3=CCN4C3C(CC4)OC1=O)C)CO
InChI: InChI=1S/C18H23NO6/c1-3-11-8-18(10-20)17(2,25-18)16(22)23-9-12-4-6-19-7-5-13(14(12)19)24-15(11)21/h3-4,13-14,20H,5-10H2,1-2H3
Instrument: LTQ Orbitrap XL Thermo Scientific
Instrument type: LC-ESI-ITFT
Ms type: MS2
Ion mode: POSITIVE
Ionization: ESI
Fragmentation mode: CID
Collision energy: 55 % (nominal)
Resolution: 15000
Column name: Kinetex Evo C18 2.6 um 50x2.1 mm, Phenomenex
Retention time: 1.044 min
Base peak: 350.1594
Precursor m/z: 350.1598
Precursor type: [M+H]+
m/z	relative intensity	assigned
91.0542	5	C7H7+
93.0702	6	C7H9+
96.0806	7	C6H10N+
103.0543	66	C8H7+
105.0574	4	C7H7N+
105.0699	10	C8H9+
106.0652	52	C7H8N+
107.0731	5	C7H9N+
108.0808	24	C7H10N+
109.065	18	C7H9O+
110.0597	5	C6H8NO+
110.0964	24	C7H12N+
111.0442	7	C6H7O2+
117.0573	16	C8H7N+
118.0652	142	C8H8N+
119.0729	7	C8H9N+
120.0808	999	C8H10N+
121.0648	23	C8H9O+
121.0887	29	C8H11N+
122.0964	112	C8H12N+
123.0441	25	C7H7O2+
123.0805	10	C8H11O+
125.0599	13	C7H9O2+
131.0857	5	C10H11+
134.0967	11	C9H12N+
136.0757	16	C8H10NO+
136.112	31	C9H14N+
137.06	15	C8H9O2+
138.0914	464	C8H12NO+
139.0759	8	C8H11O2+
141.0546	42	C7H9O3+
146.0965	43	C10H12N+
148.1121	24	C10H14N+
149.0599	21	C9H9O2+
151.0755	12	C9H11O2+
154.0864	4	C8H12NO2+
156.1019	24	C8H14NO2+
162.0908	4	C10H12NO+
164.1071	490	C10H14NO+
165.0547	32	C9H9O3+
167.0705	15	C9H11O3+
174.0914	19	C11H12NO+
176.1073	33	C11H14NO+
182.0812	17	C9H12NO3+
182.1177	228	C10H16NO2+
192.1019	20	C11H14NO2+
195.0649	4	C10H11O4+
207.126	9	C12H17NO2+
208.0971	19	C11H14NO3+
210.1123	11	C11H16NO3+
220.1334	32	C13H18NO2+
234.1125	5	C13H16NO3+
234.1487	6	C14H20NO2+
246.1486	9	C15H20NO2+
248.128	5	C14H18NO3+
276.1237	7	C15H18NO4+
278.1389	33	C15H20NO4+
280.1544	64	C15H22NO4+
292.1543	49	C16H22NO4+
294.1335	35	C15H20NO5+
302.1388	61	C17H20NO4+
306.1338	8	C16H20NO5+
306.1703	17	C17H24NO4+
320.1495	117	C17H22NO5+
322.165	971	C17H24NO5+
332.1494	11	C18H22NO5+
