Mass spectrum: Erucifoline; LC-ESI-ITFT; MS2; CE: 60%; R=15000; [M+H]+
Name: Erucifoline
Name: CID 75092738
Name: 9-ethylidene-7-(hydroxymethyl)-5-methyl-3,6,11-trioxa-15-azatetracyclo[10.5.1.0^{5,7}.0^{15,18}]octadec-1(17)-ene-4,10-dione
Formula: C18H23NO6
Exact mass: 349.1525
SMILES: CC=C1CC2(C(O2)(C(=O)OCC3=CCN4C3C(CC4)OC1=O)C)CO
InChI: InChI=1S/C18H23NO6/c1-3-11-8-18(10-20)17(2,25-18)16(22)23-9-12-4-6-19-7-5-13(14(12)19)24-15(11)21/h3-4,13-14,20H,5-10H2,1-2H3
Instrument: LTQ Orbitrap XL Thermo Scientific
Instrument type: LC-ESI-ITFT
Ms type: MS2
Ion mode: POSITIVE
Ionization: ESI
Fragmentation mode: CID
Collision energy: 60 % (nominal)
Resolution: 15000
Column name: Kinetex Evo C18 2.6 um 50x2.1 mm, Phenomenex
Retention time: 1.053 min
Base peak: 350.1596
Precursor m/z: 350.1598
Precursor type: [M+H]+
m/z	relative intensity	assigned
93.0699	7	C7H9+
96.0806	11	C6H10N+
103.0542	65	C8H7+
105.0701	8	C8H9+
106.0651	51	C7H8N+
108.0807	24	C7H10N+
109.0647	22	C7H9O+
110.0603	5	C6H8NO+
110.0965	20	C7H12N+
111.0437	7	C6H7O2+
117.0572	15	C8H7N+
118.0651	130	C8H8N+
119.0729	7	C8H9N+
120.0808	981	C8H10N+
121.0648	27	C8H9O+
121.0886	26	C8H11N+
122.0964	114	C8H12N+
123.0441	24	C7H7O2+
123.0806	16	C8H11O+
125.0599	9	C7H9O2+
134.0962	13	C9H12N+
136.0757	15	C8H10NO+
136.112	35	C9H14N+
137.0597	14	C8H9O2+
138.0913	489	C8H12NO+
139.075	8	C8H11O2+
140.107	6	C8H14NO+
141.0546	45	C7H9O3+
146.0964	40	C10H12N+
148.112	27	C10H14N+
149.0597	19	C9H9O2+
149.0833	9	C9H11NO+
151.0755	12	C9H11O2+
156.1019	25	C8H14NO2+
164.1069	486	C10H14NO+
165.0546	33	C9H9O3+
167.0705	14	C9H11O3+
174.0914	23	C11H12NO+
176.1068	29	C11H14NO+
182.0813	18	C9H12NO3+
182.1176	237	C10H16NO2+
192.1018	23	C11H14NO2+
206.1177	6	C12H16NO2+
208.0969	16	C11H14NO3+
210.1127	9	C11H16NO3+
220.1332	28	C13H18NO2+
232.1338	4	C14H18NO2+
278.1386	32	C15H20NO4+
280.1543	68	C15H22NO4+
292.1542	39	C16H22NO4+
294.1339	38	C15H20NO5+
302.1387	59	C17H20NO4+
306.1326	7	C16H20NO5+
306.17	16	C17H24NO4+
320.1494	119	C17H22NO5+
322.1649	999	C17H24NO5+
