Mass spectrum: Jacobine N-oxide; LC-ESI-ITFT; MS2; CE: 50%; R=15000; [M+H]+
Name: Jacobine N-oxide
Name: (1R,3`S,4S,6R,7R,17R)-7-hydroxy-3`,6,7-trimethyl-14-oxidospiro[2,9-dioxa-14-azoniatricyclo[9.5.1.0^{14,17}]heptadec-11-ene-4,2`-oxirane]-3,8-dione
Formula: C18H25NO7
Exact mass: 367.1631
SMILES: C[C@@H]1O[C@@]11C[C@@H](C)[C@@](C)(O)C(=O)OCC2=CCN3(=O)CC[C@@H](OC1=O)[C@@H]23
InChI: InChI=1S/C18H25NO7/c1-10-8-18(11(2)26-18)16(21)25-13-5-7-19(23)6-4-12(14(13)19)9-24-15(20)17(10,3)22/h4,10-11,13-14,22H,5-9H2,1-3H3/t10-,11+,13-,14-,17-,18+,19?/m1/s1
Instrument: LTQ Orbitrap XL Thermo Scientific
Instrument type: LC-ESI-ITFT
Ms type: MS2
Ion mode: POSITIVE
Ionization: ESI
Fragmentation mode: HCD
Collision energy: 50 % (nominal)
Resolution: 15000
Column name: Kinetex Evo C18 2.6 um 50x2.1 mm, Phenomenex
Retention time: 1.730 min
Base peak: 368.1703
Precursor m/z: 368.1704
Precursor type: [M+H]+
m/z	relative intensity	assigned
79.0542	53	C6H7+
80.0495	106	C5H6N+
91.0543	65	C7H7+
93.0571	69	C6H7N+
93.0699	76	C7H9+
94.0653	94	C6H8N+
95.0729	235	C6H9N+
106.0654	66	C7H8N+
113.0599	63	C6H9O2+
118.0651	195	C8H8N+
119.073	290	C8H9N+
120.0808	999	C8H10N+
121.0886	293	C8H11N+
122.0963	193	C8H12N+
136.076	58	C8H10NO+
138.091	153	C8H12NO+
139.0992	282	C8H13NO+
154.086	51	C8H12NO2+
156.1022	59	C8H14NO2+
190.1222	62	C12H16NO+
268.1554	51	C14H22NO4+
296.1493	959	C15H22NO5+
324.1452	33	C16H22NO6+
368.1694	168	C18H26NO7+
