Mass spectrum: Retrorsine; LC-ESI-ITFT; MS2; CE: 70%; R=15000; [M+H]+
Name: Retrorsine
Name: beta-Longilobine
Name: (1R,4Z,6R,7S,17R)-4-ethylidene-7-hydroxy-7-(hydroxymethyl)-6-methyl-2,9-dioxa-14-azatricyclo[9.5.1.0^{14,17}]heptadec-11-ene-3,8-dione
Formula: C18H25NO6
Exact mass: 351.1682
SMILES: C\C=C1\C[C@@H](C)[C@](O)(CO)C(=O)OCC2=CCN3CC[C@@H](OC1=O)[C@@H]23
InChI: InChI=1S/C18H25NO6/c1-3-12-8-11(2)18(23,10-20)17(22)24-9-13-4-6-19-7-5-14(15(13)19)25-16(12)21/h3-4,11,14-15,20,23H,5-10H2,1-2H3/b12-3-/t11-,14-,15-,18-/m1/s1
Instrument: LTQ Orbitrap XL Thermo Scientific
Instrument type: LC-ESI-ITFT
Ms type: MS2
Ion mode: POSITIVE
Ionization: ESI
Fragmentation mode: CID
Collision energy: 70 % (nominal)
Resolution: 15000
Column name: Kinetex Evo C18 2.6 um 50x2.1 mm, Phenomenex
Retention time: 2.526 min
Base peak: 61.0394
Precursor m/z: 352.1755
Precursor type: [M+H]+
m/z	relative intensity	assigned
103.0542	12	C8H7+
108.0808	5	C7H10N+
118.0651	31	C8H8N+
120.0808	292	C8H10N+
122.0964	28	C8H12N+
123.0804	11	C8H11O+
138.0913	172	C8H12NO+
140.1069	12	C8H14NO+
142.0133	6	C5H4NO4+
151.0755	29	C9H11O2+
156.1022	14	C8H14NO2+
169.0859	19	C9H13O3+
220.1331	19	C13H18NO2+
242.154	8	C16H20NO+
258.149	6	C16H20NO2+
260.164	9	C16H22NO2+
276.1594	194	C16H22NO3+
290.1752	28	C17H24NO3+
294.1693	12	C16H24NO4+
304.1547	30	C17H22NO4+
306.1699	54	C17H24NO4+
308.186	21	C17H26NO4+
322.165	264	C17H24NO5+
324.1805	999	C17H26NO5+
