Mass spectrum: Retrorsine; LC-ESI-ITFT; MS2; CE: 60%; R=15000; [M+H]+
Name: Retrorsine
Name: beta-Longilobine
Name: (1R,4Z,6R,7S,17R)-4-ethylidene-7-hydroxy-7-(hydroxymethyl)-6-methyl-2,9-dioxa-14-azatricyclo[9.5.1.0^{14,17}]heptadec-11-ene-3,8-dione
Formula: C18H25NO6
Exact mass: 351.1682
SMILES: C\C=C1\C[C@@H](C)[C@](O)(CO)C(=O)OCC2=CCN3CC[C@@H](OC1=O)[C@@H]23
InChI: InChI=1S/C18H25NO6/c1-3-12-8-11(2)18(23,10-20)17(22)24-9-13-4-6-19-7-5-14(15(13)19)25-16(12)21/h3-4,11,14-15,20,23H,5-10H2,1-2H3/b12-3-/t11-,14-,15-,18-/m1/s1
Instrument: LTQ Orbitrap XL Thermo Scientific
Instrument type: LC-ESI-ITFT
Ms type: MS2
Ion mode: POSITIVE
Ionization: ESI
Fragmentation mode: HCD
Collision energy: 60 % (nominal)
Resolution: 15000
Column name: Kinetex Evo C18 2.6 um 50x2.1 mm, Phenomenex
Retention time: 2.526 min
Base peak: 61.0394
Precursor m/z: 352.1755
Precursor type: [M+H]+
m/z	relative intensity	assigned
80.0495	101	C5H6N+
93.0698	188	C7H9+
94.0652	515	C6H8N+
95.0855	213	C7H11+
96.0809	196	C6H10N+
103.0544	78	C8H7+
108.0808	161	C7H10N+
118.0652	81	C8H8N+
120.0808	999	C8H10N+
122.0965	197	C8H12N+
123.0804	172	C8H11O+
138.0914	876	C8H12NO+
151.0753	86	C9H11O2+
169.0852	49	C9H13O3+
220.1337	103	C13H18NO2+
324.1803	171	C17H26NO5+
352.1753	172	C18H26NO6+
