Mass spectrum: Angustifoline; LC-ESI-ITFT; MS2; CE: 80%; R=15000; [M+H]+
Name: Angustifoline
Name: (2R,10S)-10-prop-2-enyl-7,11-diazatricyclo[7.3.1.0^{2,7}]tridecan-6-one
Formula: C14H22N2O
Exact mass: 234.1732
SMILES: C=CC[C@@H]1NCC2CC1CN1[C@@H]2CCCC1=O
InChI: InChI=1S/C14H22N2O/c1-2-4-12-11-7-10(8-15-12)13-5-3-6-14(17)16(13)9-11/h2,10-13,15H,1,3-9H2/t10?,11?,12-,13+/m0/s1
Instrument: LTQ Orbitrap XL Thermo Scientific
Instrument type: LC-ESI-ITFT
Ms type: MS2
Ion mode: POSITIVE
Ionization: ESI
Fragmentation mode: CID
Collision energy: 80 % (nominal)
Resolution: 15000
Column name: Synergi Polar RP, 2.5 um 100x3.0 mm, Phenomenex
Retention time: 7.343 min
Base peak: 195.0836
Precursor m/z: 235.1805
Precursor type: [M+H]+
m/z	relative intensity	assigned
70.0649	1	C4H8N+
80.0495	2	C5H6N+
82.0652	3	C5H8N+
84.0807	6	C5H10N+
86.0964	8	C5H12N+
91.0543	3	C7H7+
93.0696	2	C7H9+
94.0652	15	C6H8N+
95.0728	1	C6H9N+
96.0808	8	C6H10N+
98.0601	1	C5H8NO+
98.0965	9	C6H12N+
100.0757	2	C5H10NO+
108.0809	5	C7H10N+
110.0963	1	C7H12N+
112.0757	79	C6H10NO+
112.1121	8	C7H14N+
114.0913	4	C6H12NO+
119.0856	11	C9H11+
122.0964	5	C8H12N+
134.0965	5	C9H12N+
136.112	148	C9H14N+
138.1277	40	C9H16N+
150.0913	95	C9H12NO+
152.107	9	C9H14NO+
164.1073	4	C10H14NO+
166.1227	16	C10H16NO+
188.1434	8	C13H18N+
192.1385	33	C12H18NO+
193.1336	999	C11H17N2O+
206.154	29	C13H20NO+
217.17	364	C14H21N2+
218.154	10	C14H20NO+
