Mass spectrum: Erucifoline; LC-ESI-ITFT; MS2; CE: 80%; R=15000; [M+H]+
Name: Erucifoline
Name: CID 75092738
Name: 9-ethylidene-7-(hydroxymethyl)-5-methyl-3,6,11-trioxa-15-azatetracyclo[10.5.1.0^{5,7}.0^{15,18}]octadec-1(17)-ene-4,10-dione
Formula: C18H23NO6
Exact mass: 349.1525
SMILES: CC=C1CC2(C(O2)(C(=O)OCC3=CCN4C3C(CC4)OC1=O)C)CO
InChI: InChI=1S/C18H23NO6/c1-3-11-8-18(10-20)17(2,25-18)16(22)23-9-12-4-6-19-7-5-13(14(12)19)24-15(11)21/h3-4,13-14,20H,5-10H2,1-2H3
Instrument: LTQ Orbitrap XL Thermo Scientific
Instrument type: LC-ESI-ITFT
Ms type: MS2
Ion mode: POSITIVE
Ionization: ESI
Fragmentation mode: CID
Collision energy: 80 % (nominal)
Resolution: 15000
Column name: Kinetex Evo C18 2.6 um 50x2.1 mm, Phenomenex
Retention time: 1.045 min
Base peak: 61.0395
Precursor m/z: 350.1598
Precursor type: [M+H]+
m/z	relative intensity	assigned
93.0698	9	C7H9+
103.0542	66	C8H7+
106.0651	53	C7H8N+
108.0807	23	C7H10N+
109.0646	22	C7H9O+
118.0651	121	C8H8N+
120.0807	945	C8H10N+
121.0884	24	C8H11N+
122.0964	114	C8H12N+
136.112	33	C9H14N+
138.0913	451	C8H12NO+
141.0544	32	C7H9O3+
146.0965	45	C10H12N+
164.1069	500	C10H14NO+
165.0547	26	C9H9O3+
174.0912	19	C11H12NO+
176.107	29	C11H14NO+
182.1175	238	C10H16NO2+
192.1024	29	C11H14NO2+
220.1329	30	C13H18NO2+
278.1382	32	C15H20NO4+
280.1544	73	C15H22NO4+
292.1542	33	C16H22NO4+
294.1343	28	C15H20NO5+
302.1388	59	C17H20NO4+
320.1494	118	C17H22NO5+
322.1648	999	C17H24NO5+
