Mass spectrum: Lupanine; LC-ESI-ITFT; MS2; CE: 75%; R=15000; [M+H]+
Name: Lupanine
Name: 11-Isolupanine
Name: 7,15-diazatetracyclo[7.7.1.0^{2,7}.0^{10,15}]heptadecan-6-one
Formula: C15H24N2O
Exact mass: 248.1889
SMILES: C1CCN2CC3CC(C2C1)CN4C3CCCC4=O
InChI: InChI=1S/C15H24N2O/c18-15-6-3-5-14-11-8-12(10-17(14)15)13-4-1-2-7-16(13)9-11/h11-14H,1-10H2
Instrument: LTQ Orbitrap XL Thermo Scientific
Instrument type: LC-ESI-ITFT
Ms type: MS2
Ion mode: POSITIVE
Ionization: ESI
Fragmentation mode: HCD
Collision energy: 75 % (nominal)
Resolution: 15000
Column name: Synergi Polar RP, 2.5 um 100x3.0 mm, Phenomenex
Retention time: 7.156 min
Base peak: 236.0738
Precursor m/z: 249.1961
Precursor type: [M+H]+
m/z	relative intensity	assigned
70.0651	32	C4H8N+
84.0808	15	C5H10N+
85.0648	19	C5H9O+
96.0809	14	C6H10N+
98.0965	31	C6H12N+
112.0759	10	C6H10NO+
114.0914	246	C6H12NO+
134.0965	29	C9H12N+
136.1122	339	C9H14N+
150.1277	44	C10H16N+
152.1429	8	C10H18N+
204.1382	5	C13H18NO+
206.1543	6	C13H20NO+
247.1807	67	C15H23N2O+
249.1962	999	C15H25N2O+
