Mass spectrum: Senkirkine; LC-ESI-ITFT; MS2; CE: 40%; R=15000; [M+H]+
Name: Senkirkine
Name: (1R,4Z,6R,7R,11Z)-4-Ethylidene-7-hydroxy-6,7,14-trimethyl-2,9-dioxa-14-azabicyclo[9.5.1]heptadec-11-ene-3,8,17-trione
Formula: C19H27NO6
Exact mass: 365.1838
SMILES: C/C=C\1/C[C@H]([C@@](C(=O)OC/C/2=C/CN(CC[C@H](C2=O)OC1=O)C)(C)O)C
InChI: InChI=1S/C19H27NO6/c1-5-13-10-12(2)19(3,24)18(23)25-11-14-6-8-20(4)9-7-15(16(14)21)26-17(13)22/h5-6,12,15,24H,7-11H2,1-4H3/b13-5-,14-6-/t12-,15-,19-/m1/s1
Instrument: LTQ Orbitrap XL Thermo Scientific
Instrument type: LC-ESI-ITFT
Ms type: MS2
Ion mode: POSITIVE
Ionization: ESI
Fragmentation mode: HCD
Collision energy: 40 % (nominal)
Resolution: 15000
Column name: Kinetex Evo C18 2.6 um 50x2.1 mm, Phenomenex
Retention time: 6.974 min
Base peak: 366.1909
Precursor m/z: 366.1911
Precursor type: [M+H]+
m/z	relative intensity	assigned
70.0651	11	C4H8N+
81.0698	9	C6H9+
83.0492	10	C5H7O+
94.0652	10	C6H8N+
101.0598	20	C5H9O2+
107.0491	57	C7H7O+
107.0855	31	C8H11+
109.0647	8	C7H9O+
109.1012	19	C8H13+
116.0707	19	C5H10NO2+
122.06	83	C7H8NO+
122.0964	37	C8H12N+
123.068	6	C7H9NO+
124.0757	35	C7H10NO+
125.0597	40	C7H9O2+
125.0961	41	C8H13O+
135.0804	58	C9H11O+
137.0596	4	C8H9O2+
137.0832	5	C8H11NO+
137.096	8	C9H13O+
140.1071	9	C8H14NO+
150.0913	340	C9H12NO+
153.091	223	C9H13O2+
168.1019	908	C9H14NO2+
181.0858	22	C10H13O3+
186.1125	7	C9H16NO3+
199.0964	13	C10H15O4+
268.154	4	C14H22NO4+
304.1904	8	C18H26NO3+
338.1961	11	C18H28NO5+
348.1811	9	C19H26NO5+
366.1912	999	C19H28NO6+
