Mass spectrum: Monocrotaline; LC-ESI-ITFT; MS2; CE: 20%; R=15000; [M+H]+
Name: Monocrotaline
Name: (1R,4R,5R,6R,16R)-5,6-dihydroxy-4,5,6-trimethyl-2,8-dioxa-13-azatricyclo[8.5.1.0^{13,16}]hexadec-10-ene-3,7-dione
Formula: C16H23NO6
Exact mass: 325.1525
SMILES: C[C@H]1C(=O)O[C@@H]2CCN3CC=C(COC(=O)[C@](C)(O)[C@]1(C)O)[C@H]23
InChI: InChI=1S/C16H23NO6/c1-9-13(18)23-11-5-7-17-6-4-10(12(11)17)8-22-14(19)16(3,21)15(9,2)20/h4,9,11-12,20-21H,5-8H2,1-3H3/t9-,11+,12+,15+,16-/m0/s1
Instrument: LTQ Orbitrap XL Thermo Scientific
Instrument type: LC-ESI-ITFT
Ms type: MS2
Ion mode: POSITIVE
Ionization: ESI
Fragmentation mode: CID
Collision energy: 20 % (nominal)
Resolution: 15000
Column name: Kinetex Evo C18 2.6 um 50x2.1 mm, Phenomenex
Retention time: 0.865 min
Base peak: 326.1599
Precursor m/z: 326.1598
Precursor type: [M+H]+
m/z	relative intensity	assigned
120.0809	16	C8H10N+
121.0887	9	C8H11N+
122.0964	5	C8H12N+
138.0913	2	C8H12NO+
148.1121	1	C10H14N+
164.1071	13	C10H14NO+
180.1018	1	C10H14NO2+
182.1181	2	C10H16NO2+
192.102	2	C11H14NO2+
194.1177	12	C11H16NO2+
210.1126	11	C11H16NO3+
228.1231	4	C11H18NO4+
237.1362	31	C13H19NO3+
238.1439	16	C13H20NO3+
252.1234	1	C13H18NO4+
280.1546	85	C15H22NO4+
298.1651	6	C15H24NO5+
308.1496	2	C16H22NO5+
326.16	999	C16H24NO6+
