Mass spectrum: Erucifoline; LC-ESI-ITFT; MS2; CE: 65%; R=15000; [M+H]+
Name: Erucifoline
Name: CID 75092738
Name: 9-ethylidene-7-(hydroxymethyl)-5-methyl-3,6,11-trioxa-15-azatetracyclo[10.5.1.0^{5,7}.0^{15,18}]octadec-1(17)-ene-4,10-dione
Formula: C18H23NO6
Exact mass: 349.1525
SMILES: CC=C1CC2(C(O2)(C(=O)OCC3=CCN4C3C(CC4)OC1=O)C)CO
InChI: InChI=1S/C18H23NO6/c1-3-11-8-18(10-20)17(2,25-18)16(22)23-9-12-4-6-19-7-5-13(14(12)19)24-15(11)21/h3-4,13-14,20H,5-10H2,1-2H3
Instrument: LTQ Orbitrap XL Thermo Scientific
Instrument type: LC-ESI-ITFT
Ms type: MS2
Ion mode: POSITIVE
Ionization: ESI
Fragmentation mode: CID
Collision energy: 65 % (nominal)
Resolution: 15000
Column name: Kinetex Evo C18 2.6 um 50x2.1 mm, Phenomenex
Retention time: 1.044 min
Base peak: 350.1594
Precursor m/z: 350.1598
Precursor type: [M+H]+
m/z	relative intensity	assigned
96.0807	8	C6H10N+
103.0542	63	C8H7+
105.0568	5	C7H7N+
105.0698	9	C8H9+
106.0651	47	C7H8N+
108.0806	20	C7H10N+
109.0646	20	C7H9O+
110.0964	24	C7H12N+
111.0439	5	C6H7O2+
117.0572	13	C8H7N+
118.0651	135	C8H8N+
119.0731	8	C8H9N+
120.0808	945	C8H10N+
121.0647	24	C8H9O+
121.0886	27	C8H11N+
122.0964	108	C8H12N+
123.0439	18	C7H7O2+
123.0803	8	C8H11O+
125.0594	10	C7H9O2+
131.0853	4	C10H11+
134.0964	11	C9H12N+
136.0757	18	C8H10NO+
136.112	35	C9H14N+
137.0598	10	C8H9O2+
138.0913	460	C8H12NO+
139.0751	6	C8H11O2+
141.0545	39	C7H9O3+
146.0963	40	C10H12N+
148.112	26	C10H14N+
149.0599	18	C9H9O2+
151.0755	10	C9H11O2+
154.0866	6	C8H12NO2+
156.1019	23	C8H14NO2+
162.0909	5	C10H12NO+
164.1069	463	C10H14NO+
165.0547	35	C9H9O3+
167.0706	10	C9H11O3+
174.0912	24	C11H12NO+
176.1069	31	C11H14NO+
182.0812	21	C9H12NO3+
182.1175	220	C10H16NO2+
192.1019	24	C11H14NO2+
195.065	6	C10H11O4+
207.1253	7	C12H17NO2+
208.0961	15	C11H14NO3+
210.1115	8	C11H16NO3+
220.133	33	C13H18NO2+
234.1119	8	C13H16NO3+
234.1492	6	C14H20NO2+
246.1478	11	C15H20NO2+
248.1284	8	C14H18NO3+
276.1227	11	C15H18NO4+
278.1387	30	C15H20NO4+
280.1541	58	C15H22NO4+
292.154	38	C16H22NO4+
294.1334	33	C15H20NO5+
302.1386	58	C17H20NO4+
306.1343	8	C16H20NO5+
306.1706	12	C17H24NO4+
320.1493	121	C17H22NO5+
322.1647	999	C17H24NO5+
332.1481	14	C18H22NO5+
