Mass spectrum: Jacobine; LC-ESI-ITFT; MS2; CE: 70%; R=15000; [M+H]+
Name: Jacobine
Name: (1R,3`S,4S,6R,7R,17R)-7-hydroxy-3`,6,7-trimethylspiro[2,9-dioxa-14-azatricyclo[9.5.1.0^{14,17}]heptadec-11-ene-4,2`-oxirane]-3,8-dione
Formula: C18H25NO6
Exact mass: 351.1682
SMILES: C[C@@H]1O[C@@]11C[C@@H](C)[C@@](C)(O)C(=O)OCC2=CCN3CC[C@@H](OC1=O)[C@@H]23
InChI: InChI=1S/C18H25NO6/c1-10-8-18(11(2)25-18)16(21)24-13-5-7-19-6-4-12(14(13)19)9-23-15(20)17(10,3)22/h4,10-11,13-14,22H,5-9H2,1-3H3/t10-,11+,13-,14-,17-,18+/m1/s1
Instrument: LTQ Orbitrap XL Thermo Scientific
Instrument type: LC-ESI-ITFT
Ms type: MS2
Ion mode: POSITIVE
Ionization: ESI
Fragmentation mode: HCD
Collision energy: 70 % (nominal)
Resolution: 15000
Column name: Kinetex Evo C18 2.6 um 50x2.1 mm, Phenomenex
Retention time: 1.302 min
Base peak: 352.1753
Precursor m/z: 352.1755
Precursor type: [M+H]+
m/z	relative intensity	assigned
67.0542	152	C5H7+
70.0651	443	C4H8N+
77.0386	145	C6H5+
79.0543	272	C6H7+
80.0495	308	C5H6N+
82.0652	108	C5H8N+
91.0543	268	C7H7+
93.07	311	C7H9+
94.0651	439	C6H8N+
103.0543	70	C8H7+
105.0449	53	C6H5N2+
105.0701	133	C8H9+
107.0731	151	C7H9N+
108.0808	104	C7H10N+
109.065	58	C7H9O+
113.0598	213	C6H9O2+
118.0651	49	C8H8N+
120.0809	999	C8H10N+
122.0965	684	C8H12N+
123.1042	304	C8H13N+
137.096	62	C9H13O+
138.0914	137	C8H12NO+
140.1071	227	C8H14NO+
155.1068	433	C9H15O2+
162.0913	69	C10H12NO+
165.0911	65	C10H13O2+
234.15	70	C14H20NO2+
