Mass spectrum: 13a-Hydroxylupanin; LC-ESI-ITFT; MS2; CE: 85%; R=15000; [M+H]+
Name: 13a-Hydroxylupanin
Name: Hydroxylupanine
Name: (1S,2R,9S,10S,12S)-12-hydroxy-7,15-diazatetracyclo[7.7.1.0^{2,7}.0^{10,15}]heptadecan-6-one
Formula: C15H24N2O2
Exact mass: 264.1838
SMILES: C1C[C@@H]2[C@H]3C[C@@H](CN2C(=O)C1)[C@@H]4C[C@H](CCN4C3)O
InChI: InChI=1S/C15H24N2O2/c18-12-4-5-16-8-10-6-11(14(16)7-12)9-17-13(10)2-1-3-15(17)19/h10-14,18H,1-9H2/t10-,11-,12-,13+,14-/m0/s1
Instrument: LTQ Orbitrap XL Thermo Scientific
Instrument type: LC-ESI-ITFT
Ms type: MS2
Ion mode: POSITIVE
Ionization: ESI
Fragmentation mode: HCD
Collision energy: 85 % (nominal)
Resolution: 15000
Column name: Synergi Polar RP, 2.5 um 100x3.0 mm, Phenomenex
Retention time: 5.368 min
Base peak: 236.0739
Precursor m/z: 265.1911
Precursor type: [M+H]+
m/z	relative intensity	assigned
58.0652	12	C3H8N+
70.0651	71	C4H8N+
84.0807	39	C5H10N+
85.0648	43	C5H9O+
91.0543	11	C7H7+
96.0808	26	C6H10N+
98.06	18	C5H8NO+
98.0964	27	C6H12N+
108.0808	27	C7H10N+
110.0966	20	C7H12N+
112.0757	135	C6H10NO+
114.0913	285	C6H12NO+
122.0966	22	C8H12N+
124.1121	11	C8H14N+
134.0965	47	C9H12N+
148.1121	87	C10H14N+
150.0914	35	C9H12NO+
150.1276	12	C10H16N+
152.107	254	C9H14NO+
164.107	21	C10H14NO+
166.1225	49	C10H16NO+
193.1332	11	C11H17N2O+
245.1649	37	C15H21N2O+
247.1802	67	C15H23N2O+
265.1911	999	C15H25N2O2+
