Mass spectrum: Erucifoline; LC-ESI-ITFT; MS2; CE: 90%; R=15000; [M+H]+
Name: Erucifoline
Name: CID 75092738
Name: 9-ethylidene-7-(hydroxymethyl)-5-methyl-3,6,11-trioxa-15-azatetracyclo[10.5.1.0^{5,7}.0^{15,18}]octadec-1(17)-ene-4,10-dione
Formula: C18H23NO6
Exact mass: 349.1525
SMILES: CC=C1CC2(C(O2)(C(=O)OCC3=CCN4C3C(CC4)OC1=O)C)CO
InChI: InChI=1S/C18H23NO6/c1-3-11-8-18(10-20)17(2,25-18)16(22)23-9-12-4-6-19-7-5-13(14(12)19)24-15(11)21/h3-4,13-14,20H,5-10H2,1-2H3
Instrument: LTQ Orbitrap XL Thermo Scientific
Instrument type: LC-ESI-ITFT
Ms type: MS2
Ion mode: POSITIVE
Ionization: ESI
Fragmentation mode: CID
Collision energy: 90 % (nominal)
Resolution: 15000
Column name: Kinetex Evo C18 2.6 um 50x2.1 mm, Phenomenex
Retention time: 1.045 min
Base peak: 61.0395
Precursor m/z: 350.1598
Precursor type: [M+H]+
m/z	relative intensity	assigned
103.0541	59	C8H7+
106.0651	31	C7H8N+
108.0809	28	C7H10N+
109.0647	21	C7H9O+
118.0651	85	C8H8N+
120.0807	914	C8H10N+
121.0886	19	C8H11N+
122.0964	119	C8H12N+
136.112	23	C9H14N+
138.0913	436	C8H12NO+
141.054	35	C7H9O3+
146.0967	48	C10H12N+
164.1069	458	C10H14NO+
165.0542	22	C9H9O3+
174.0911	31	C11H12NO+
176.1067	20	C11H14NO+
182.1175	205	C10H16NO2+
192.1019	20	C11H14NO2+
220.1336	20	C13H18NO2+
278.1394	21	C15H20NO4+
280.1541	48	C15H22NO4+
292.1545	28	C16H22NO4+
294.1332	28	C15H20NO5+
302.1387	65	C17H20NO4+
320.1488	108	C17H22NO5+
322.1648	999	C17H24NO5+
