Mass spectrum: Monocrotaline; LC-ESI-ITFT; MS2; CE: 80%; R=15000; [M+H]+
Name: Monocrotaline
Name: (1R,4R,5R,6R,16R)-5,6-dihydroxy-4,5,6-trimethyl-2,8-dioxa-13-azatricyclo[8.5.1.0^{13,16}]hexadec-10-ene-3,7-dione
Formula: C16H23NO6
Exact mass: 325.1525
SMILES: C[C@H]1C(=O)O[C@@H]2CCN3CC=C(COC(=O)[C@](C)(O)[C@]1(C)O)[C@H]23
InChI: InChI=1S/C16H23NO6/c1-9-13(18)23-11-5-7-17-6-4-10(12(11)17)8-22-14(19)16(3,21)15(9,2)20/h4,9,11-12,20-21H,5-8H2,1-3H3/t9-,11+,12+,15+,16-/m0/s1
Instrument: LTQ Orbitrap XL Thermo Scientific
Instrument type: LC-ESI-ITFT
Ms type: MS2
Ion mode: POSITIVE
Ionization: ESI
Fragmentation mode: HCD
Collision energy: 80 % (nominal)
Resolution: 15000
Column name: Kinetex Evo C18 2.6 um 50x2.1 mm, Phenomenex
Retention time: 0.955 min
Base peak: 326.1595
Precursor m/z: 326.1598
Precursor type: [M+H]+
m/z	relative intensity	assigned
57.0332	23	C3H5O+
67.0415	140	C4H5N+
67.0542	31	C5H7+
68.0493	54	C4H6N+
79.054	27	C6H7+
80.0494	106	C5H6N+
82.0652	56	C5H8N+
91.054	26	C7H7+
93.0571	33	C6H7N+
93.0698	76	C7H9+
94.0651	496	C6H8N+
95.0729	282	C6H9N+
96.0807	64	C6H10N+
103.0543	25	C8H7+
106.0649	53	C7H8N+
108.0808	72	C7H10N+
118.0655	30	C8H8N+
120.0807	999	C8H10N+
121.0885	424	C8H11N+
122.0963	141	C8H12N+
138.0912	195	C8H12NO+
139.0989	79	C8H13NO+
140.1071	31	C8H14NO+
156.1018	65	C8H14NO2+
184.0961	53	C9H14NO3+
194.1175	99	C11H16NO2+
