Mass spectrum: Monocrotaline N-oxide; LC-ESI-ITFT; MS2; CE: 60%; R=15000; [M+H]+
Name: Monocrotaline N-oxide
Name: (1R,4R,5R,6R,16R)-5,6-dihydroxy-4,5,6-trimethyl-13-oxido-2,8-dioxa-13-azoniatricyclo[8.5.1.0^{13,16}]hexadec-10-ene-3,7-dione
Formula: C16H23NO7
Exact mass: 341.1475
SMILES: C[C@H]1C(=O)O[C@@H]2CCN3(=O)CC=C(COC(=O)[C@](C)(O)[C@]1(C)O)[C@H]23
InChI: InChI=1S/C16H23NO7/c1-9-13(18)24-11-5-7-17(22)6-4-10(12(11)17)8-23-14(19)16(3,21)15(9,2)20/h4,9,11-12,20-21H,5-8H2,1-3H3/t9-,11+,12+,15+,16-,17?/m0/s1
Instrument: LTQ Orbitrap XL Thermo Scientific
Instrument type: LC-ESI-ITFT
Ms type: MS2
Ion mode: POSITIVE
Ionization: ESI
Fragmentation mode: CID
Collision energy: 60 % (nominal)
Resolution: 15000
Column name: Kinetex Evo C18 2.6 um 50x2.1 mm, Phenomenex
Retention time: 1.137 min
Base peak: 350.1595
Precursor m/z: 342.1547
Precursor type: [M+H]+
m/z	relative intensity	assigned
106.0652	4	C7H8N+
108.0808	18	C7H10N+
109.0645	3	C7H9O+
115.0753	3	C6H11O2+
117.0572	8	C8H7N+
118.0651	76	C8H8N+
119.0729	70	C8H9N+
120.0808	162	C8H10N+
121.0884	6	C8H11N+
122.0603	3	C7H8NO+
122.0967	4	C8H12N+
136.0757	45	C8H10NO+
137.0835	301	C8H11NO+
138.0914	19	C8H12NO+
140.1072	6	C8H14NO+
154.0863	13	C8H12NO2+
157.086	12	C8H13O3+
162.0914	8	C10H12NO+
164.0709	4	C9H10NO2+
172.097	3	C8H14NO3+
180.1019	13	C10H14NO2+
183.0893	7	C9H13NO3+
190.0864	6	C11H12NO2+
192.1019	10	C11H14NO2+
194.1175	27	C11H16NO2+
198.1124	5	C10H16NO3+
208.0967	23	C11H14NO3+
209.1046	67	C11H15NO3+
210.1124	34	C11H16NO3+
226.1073	36	C11H16NO4+
228.1232	19	C11H18NO4+
234.1125	11	C13H16NO3+
235.1209	5	C13H17NO3+
236.1281	296	C13H18NO3+
238.1432	4	C13H20NO3+
244.118	40	C11H18NO5+
253.1308	128	C13H19NO4+
254.1386	54	C13H20NO4+
268.118	28	C13H18NO5+
270.1338	43	C13H20NO5+
280.1532	5	C15H22NO4+
296.1493	999	C15H22NO5+
298.1642	7	C15H24NO5+
314.1599	93	C15H24NO6+
324.1442	35	C16H22NO6+
