Mass spectrum: Senkirkine; LC-ESI-ITFT; MS2; CE: 55%; R=15000; [M+H]+
Name: Senkirkine
Name: (1R,4Z,6R,7R,11Z)-4-Ethylidene-7-hydroxy-6,7,14-trimethyl-2,9-dioxa-14-azabicyclo[9.5.1]heptadec-11-ene-3,8,17-trione
Formula: C19H27NO6
Exact mass: 365.1838
SMILES: C/C=C\1/C[C@H]([C@@](C(=O)OC/C/2=C/CN(CC[C@H](C2=O)OC1=O)C)(C)O)C
InChI: InChI=1S/C19H27NO6/c1-5-13-10-12(2)19(3,24)18(23)25-11-14-6-8-20(4)9-7-15(16(14)21)26-17(13)22/h5-6,12,15,24H,7-11H2,1-4H3/b13-5-,14-6-/t12-,15-,19-/m1/s1
Instrument: LTQ Orbitrap XL Thermo Scientific
Instrument type: LC-ESI-ITFT
Ms type: MS2
Ion mode: POSITIVE
Ionization: ESI
Fragmentation mode: CID
Collision energy: 55 % (nominal)
Resolution: 15000
Column name: Kinetex Evo C18 2.6 um 50x2.1 mm, Phenomenex
Retention time: 7.061 min
Base peak: 195.0876
Precursor m/z: 366.1911
Precursor type: [M+H]+
m/z	relative intensity	assigned
122.06	203	C7H8NO+
122.0964	95	C8H12N+
124.0753	68	C7H10NO+
150.0913	943	C9H12NO+
153.091	60	C9H13O2+
168.1019	999	C9H14NO2+
304.1904	28	C18H26NO3+
318.1715	31	C18H24NO4+
338.1959	76	C18H28NO5+
348.1808	125	C19H26NO5+
