Mass spectrum: Senecionine N-oxide; LC-ESI-ITFT; MS2; CE: 35%; R=15000; [M+H]+
Name: Senecionine N-oxide
Name: (1R,4Z,6R,7R,17R)-4-ethylidene-7-hydroxy-6,7-dimethyl-14-oxido-2,9-dioxa-14-azoniatricyclo[9.5.1.0^{14,17}]heptadec-11-ene-3,8-dione
Formula: C18H25NO6
Exact mass: 351.1682
SMILES: C\C=C1\C[C@@H](C)[C@@](C)(O)C(=O)OCC2=CC[N+]3([O-])CC[C@@H](OC1=O)[C@@H]23
InChI: InChI=1S/C18H25NO6/c1-4-12-9-11(2)18(3,22)17(21)24-10-13-5-7-19(23)8-6-14(15(13)19)25-16(12)20/h4-5,11,14-15,22H,6-10H2,1-3H3/b12-4-/t11-,14-,15-,18-,19?/m1/s1
Instrument: LTQ Orbitrap XL Thermo Scientific
Instrument type: LC-ESI-ITFT
Ms type: MS2
Ion mode: POSITIVE
Ionization: ESI
Fragmentation mode: CID
Collision energy: 35 % (nominal)
Resolution: 15000
Column name: Kinetex Evo C18 2.6 um 50x2.1 mm, Phenomenex
Retention time: 6.177 min
Base peak: 195.0874
Precursor m/z: 352.1755
Precursor type: [M+H]+
m/z	relative intensity	assigned
94.0651	5	C6H8N+
95.0729	5	C6H9N+
103.0542	2	C8H7+
106.065	61	C7H8N+
107.0852	5	C8H11+
108.0807	17	C7H10N+
109.0648	5	C7H9O+
109.0884	2	C7H11N+
112.0756	8	C6H10NO+
117.0572	42	C8H7N+
118.065	346	C8H8N+
119.0728	137	C8H9N+
120.0807	211	C8H10N+
121.0885	111	C8H11N+
122.0963	34	C8H12N+
123.0438	2	C7H7O2+
125.0959	7	C8H13O+
135.0804	4	C9H11O+
136.0756	81	C8H10NO+
137.0834	22	C8H11NO+
138.0912	46	C8H12NO+
139.0751	3	C8H11O2+
139.0991	5	C8H13NO+
140.1068	4	C8H14NO+
148.1119	3	C10H14N+
152.1068	23	C9H14NO+
153.091	15	C9H13O2+
154.0861	46	C8H12NO2+
164.1069	4	C10H14NO+
165.0783	12	C9H11NO2+
166.1226	3	C10H16NO+
174.0909	4	C11H12NO+
174.1275	6	C12H16N+
176.1069	14	C11H14NO+
178.1225	20	C11H16NO+
190.1219	3	C12H16NO+
192.1379	10	C12H18NO+
200.1069	2	C13H14NO+
202.1224	37	C13H16NO+
204.1017	3	C12H14NO2+
211.1328	2	C12H19O3+
218.1174	32	C13H16NO2+
218.1537	61	C14H20NO+
220.133	382	C13H18NO2+
228.1381	5	C15H18NO+
232.1333	5	C14H18NO2+
234.1487	2	C14H20NO2+
235.1204	2	C13H17NO3+
236.1277	13	C13H18NO3+
246.1486	263	C15H20NO2+
247.1565	6	C15H21NO2+
248.1642	102	C15H22NO2+
254.1384	127	C13H20NO4+
262.1434	9	C15H20NO3+
272.1644	2	C17H22NO2+
276.159	4	C16H22NO3+
290.1748	26	C17H24NO3+
306.1697	5	C17H24NO4+
307.1777	6	C17H25NO4+
308.1854	6	C17H26NO4+
318.1697	6	C18H24NO4+
320.1486	8	C17H22NO5+
324.1803	316	C17H26NO5+
334.1647	59	C18H24NO5+
335.1727	3	C18H25NO5+
352.1752	999	C18H26NO6+
