Mass spectrum: Monocrotaline; LC-ESI-ITFT; MS2; CE: 75%; R=15000; [M+H]+
Name: Monocrotaline
Name: (1R,4R,5R,6R,16R)-5,6-dihydroxy-4,5,6-trimethyl-2,8-dioxa-13-azatricyclo[8.5.1.0^{13,16}]hexadec-10-ene-3,7-dione
Formula: C16H23NO6
Exact mass: 325.1525
SMILES: C[C@H]1C(=O)O[C@@H]2CCN3CC=C(COC(=O)[C@](C)(O)[C@]1(C)O)[C@H]23
InChI: InChI=1S/C16H23NO6/c1-9-13(18)23-11-5-7-17-6-4-10(12(11)17)8-22-14(19)16(3,21)15(9,2)20/h4,9,11-12,20-21H,5-8H2,1-3H3/t9-,11+,12+,15+,16-/m0/s1
Instrument: LTQ Orbitrap XL Thermo Scientific
Instrument type: LC-ESI-ITFT
Ms type: MS2
Ion mode: POSITIVE
Ionization: ESI
Fragmentation mode: HCD
Collision energy: 75 % (nominal)
Resolution: 15000
Column name: Kinetex Evo C18 2.6 um 50x2.1 mm, Phenomenex
Retention time: 0.964 min
Base peak: 326.1598
Precursor m/z: 326.1598
Precursor type: [M+H]+
m/z	relative intensity	assigned
67.0416	141	C4H5N+
68.0494	64	C4H6N+
80.0495	107	C5H6N+
82.0651	64	C5H8N+
93.0573	30	C6H7N+
94.0651	411	C6H8N+
95.0729	364	C6H9N+
96.0807	87	C6H10N+
106.0652	50	C7H8N+
108.0808	61	C7H10N+
110.06	16	C6H8NO+
120.0808	999	C8H10N+
121.0886	685	C8H11N+
122.0964	168	C8H12N+
138.0913	218	C8H12NO+
139.099	76	C8H13NO+
140.1068	32	C8H14NO+
156.1017	65	C8H14NO2+
164.1072	34	C10H14NO+
184.0967	70	C9H14NO3+
194.1176	165	C11H16NO2+
195.1258	18	C11H17NO2+
237.1359	15	C13H19NO3+
280.1536	12	C15H22NO4+
