Mass spectrum: Erucifoline; LC-ESI-ITFT; MS2; CE: 45%; R=15000; [M+H]+
Name: Erucifoline
Name: CID 75092738
Name: 9-ethylidene-7-(hydroxymethyl)-5-methyl-3,6,11-trioxa-15-azatetracyclo[10.5.1.0^{5,7}.0^{15,18}]octadec-1(17)-ene-4,10-dione
Formula: C18H23NO6
Exact mass: 349.1525
SMILES: CC=C1CC2(C(O2)(C(=O)OCC3=CCN4C3C(CC4)OC1=O)C)CO
InChI: InChI=1S/C18H23NO6/c1-3-11-8-18(10-20)17(2,25-18)16(22)23-9-12-4-6-19-7-5-13(14(12)19)24-15(11)21/h3-4,13-14,20H,5-10H2,1-2H3
Instrument: LTQ Orbitrap XL Thermo Scientific
Instrument type: LC-ESI-ITFT
Ms type: MS2
Ion mode: POSITIVE
Ionization: ESI
Fragmentation mode: CID
Collision energy: 45 % (nominal)
Resolution: 15000
Column name: Kinetex Evo C18 2.6 um 50x2.1 mm, Phenomenex
Retention time: 1.109 min
Base peak: 350.1596
Precursor m/z: 350.1598
Precursor type: [M+H]+
m/z	relative intensity	assigned
103.0544	63	C8H7+
106.065	54	C7H8N+
108.0808	36	C7H10N+
118.0651	130	C8H8N+
120.0808	974	C8H10N+
122.0963	99	C8H12N+
138.0913	422	C8H12NO+
141.0549	41	C7H9O3+
156.1016	33	C8H14NO2+
164.107	432	C10H14NO+
165.054	38	C9H9O3+
176.1066	28	C11H14NO+
182.1175	244	C10H16NO2+
280.1534	51	C15H22NO4+
292.1541	38	C16H22NO4+
294.1345	30	C15H20NO5+
320.1495	111	C17H22NO5+
322.1648	999	C17H24NO5+
