Mass spectrum: 13a-Hydroxylupanin; LC-ESI-ITFT; MS2; CE: 80%; R=15000; [M+H]+
Name: 13a-Hydroxylupanin
Name: Hydroxylupanine
Name: (1S,2R,9S,10S,12S)-12-hydroxy-7,15-diazatetracyclo[7.7.1.0^{2,7}.0^{10,15}]heptadecan-6-one
Formula: C15H24N2O2
Exact mass: 264.1838
SMILES: C1C[C@@H]2[C@H]3C[C@@H](CN2C(=O)C1)[C@@H]4C[C@H](CCN4C3)O
InChI: InChI=1S/C15H24N2O2/c18-12-4-5-16-8-10-6-11(14(16)7-12)9-17-13(10)2-1-3-15(17)19/h10-14,18H,1-9H2/t10-,11-,12-,13+,14-/m0/s1
Instrument: LTQ Orbitrap XL Thermo Scientific
Instrument type: LC-ESI-ITFT
Ms type: MS2
Ion mode: POSITIVE
Ionization: ESI
Fragmentation mode: HCD
Collision energy: 80 % (nominal)
Resolution: 15000
Column name: Synergi Polar RP, 2.5 um 100x3.0 mm, Phenomenex
Retention time: 5.228 min
Base peak: 236.0739
Precursor m/z: 265.1911
Precursor type: [M+H]+
m/z	relative intensity	assigned
56.0493	4	C3H6N+
58.0651	10	C3H8N+
70.0651	45	C4H8N+
84.0807	25	C5H10N+
85.0648	28	C5H9O+
96.0807	18	C6H10N+
98.06	9	C5H8NO+
98.0964	18	C6H12N+
100.0757	6	C5H10NO+
108.0807	10	C7H10N+
110.0964	8	C7H12N+
112.0757	76	C6H10NO+
114.0913	233	C6H12NO+
122.0966	11	C8H12N+
124.1122	10	C8H14N+
134.0965	23	C9H12N+
148.112	55	C10H14N+
150.0912	26	C9H12NO+
150.1277	10	C10H16N+
152.107	200	C9H14NO+
162.0909	5	C10H12NO+
164.107	12	C10H14NO+
166.1226	35	C10H16NO+
176.1068	6	C11H14NO+
193.1337	8	C11H17N2O+
204.1385	7	C13H18NO+
221.1649	8	C13H21N2O+
245.1649	28	C15H21N2O+
247.1804	78	C15H23N2O+
265.191	999	C15H25N2O2+
