Mass spectrum: Monocrotaline N-oxide; LC-ESI-ITFT; MS2; CE: 30%; R=15000; [M+H]+
Name: Monocrotaline N-oxide
Name: (1R,4R,5R,6R,16R)-5,6-dihydroxy-4,5,6-trimethyl-13-oxido-2,8-dioxa-13-azoniatricyclo[8.5.1.0^{13,16}]hexadec-10-ene-3,7-dione
Formula: C16H23NO7
Exact mass: 341.1475
SMILES: C[C@H]1C(=O)O[C@@H]2CCN3(=O)CC=C(COC(=O)[C@](C)(O)[C@]1(C)O)[C@H]23
InChI: InChI=1S/C16H23NO7/c1-9-13(18)24-11-5-7-17(22)6-4-10(12(11)17)8-23-14(19)16(3,21)15(9,2)20/h4,9,11-12,20-21H,5-8H2,1-3H3/t9-,11+,12+,15+,16-,17?/m0/s1
Instrument: LTQ Orbitrap XL Thermo Scientific
Instrument type: LC-ESI-ITFT
Ms type: MS2
Ion mode: POSITIVE
Ionization: ESI
Fragmentation mode: CID
Collision energy: 30 % (nominal)
Resolution: 15000
Column name: Kinetex Evo C18 2.6 um 50x2.1 mm, Phenomenex
Retention time: 1.039 min
Base peak: 195.1225
Precursor m/z: 342.1547
Precursor type: [M+H]+
m/z	relative intensity	assigned
118.0651	73	C8H8N+
119.0724	75	C8H9N+
120.0807	141	C8H10N+
137.0835	299	C8H11NO+
209.1049	62	C11H15NO3+
236.1282	287	C13H18NO3+
253.1312	166	C13H19NO4+
296.149	999	C15H22NO5+
314.1603	81	C15H24NO6+
