Mass spectrum: Erucifoline; LC-ESI-ITFT; MS2; CE: 65%; R=15000; [M+H]+
Name: Erucifoline
Name: CID 75092738
Name: 9-ethylidene-7-(hydroxymethyl)-5-methyl-3,6,11-trioxa-15-azatetracyclo[10.5.1.0^{5,7}.0^{15,18}]octadec-1(17)-ene-4,10-dione
Formula: C18H23NO6
Exact mass: 349.1525
SMILES: CC=C1CC2(C(O2)(C(=O)OCC3=CCN4C3C(CC4)OC1=O)C)CO
InChI: InChI=1S/C18H23NO6/c1-3-11-8-18(10-20)17(2,25-18)16(22)23-9-12-4-6-19-7-5-13(14(12)19)24-15(11)21/h3-4,13-14,20H,5-10H2,1-2H3
Instrument: LTQ Orbitrap XL Thermo Scientific
Instrument type: LC-ESI-ITFT
Ms type: MS2
Ion mode: POSITIVE
Ionization: ESI
Fragmentation mode: HCD
Collision energy: 65 % (nominal)
Resolution: 15000
Column name: Kinetex Evo C18 2.6 um 50x2.1 mm, Phenomenex
Retention time: 1.052 min
Base peak: 350.1595
Precursor m/z: 350.1598
Precursor type: [M+H]+
m/z	relative intensity	assigned
55.0541	62	C4H7+
67.0542	266	C5H7+
68.0494	105	C4H6N+
77.0386	68	C6H5+
79.0542	125	C6H7+
80.0495	216	C5H6N+
81.0572	36	C5H7N+
81.0699	87	C6H9+
82.0651	186	C5H8N+
83.049	82	C5H7O+
91.0542	206	C7H7+
92.0495	50	C6H6N+
93.0698	242	C7H9+
94.0651	559	C6H8N+
95.0493	70	C6H7O+
95.0728	46	C6H9N+
96.0808	370	C6H10N+
97.0648	41	C6H9O+
103.0542	93	C8H7+
105.0445	33	C6H5N2+
105.0698	38	C8H9+
106.0653	69	C7H8N+
108.0808	134	C7H10N+
109.0648	127	C7H9O+
110.0601	30	C6H8NO+
110.0964	153	C7H12N+
111.044	46	C6H7O2+
118.0651	155	C8H8N+
120.0808	999	C8H10N+
121.0645	48	C8H9O+
121.0885	74	C8H11N+
122.0964	198	C8H12N+
123.0438	63	C7H7O2+
125.0596	38	C7H9O2+
136.0752	34	C8H10NO+
138.0913	757	C8H12NO+
141.0546	58	C7H9O3+
164.107	75	C10H14NO+
220.133	108	C13H18NO2+
322.1644	28	C17H24NO5+
350.1603	83	C18H24NO6+
