Mass spectrum: Lupinine; LC-ESI-ITFT; MS2; CE: 125%; R=15000; [M+H]+
Name: Lupinine
Name: [(1R,9aR)-2,3,4,6,7,8,9,9a-octahydro-1H-quinolizin-1-yl]methanol
Formula: C10H19NO
Exact mass: 169.1467
SMILES: OC[C@@H]1CCCN2CCCC[C@H]12
InChI: InChI=1S/C10H19NO/c12-8-9-4-3-7-11-6-2-1-5-10(9)11/h9-10,12H,1-8H2/t9-,10+/m0/s1
Instrument: LTQ Orbitrap XL Thermo Scientific
Instrument type: LC-ESI-ITFT
Ms type: MS2
Ion mode: POSITIVE
Ionization: ESI
Fragmentation mode: HCD
Collision energy: 125 % (nominal)
Resolution: 15000
Column name: Synergi Polar RP, 2.5 um 100x3.0 mm, Phenomenex
Retention time: 3.846 min
Base peak: 236.074
Precursor m/z: 170.1539
Precursor type: [M+H]+
m/z	relative intensity	assigned
55.0541	301	C4H7+
56.0493	135	C3H6N+
67.0542	541	C5H7+
69.0699	170	C5H9+
70.0651	349	C4H8N+
79.0543	353	C6H7+
81.0699	725	C6H9+
82.0652	291	C5H8N+
83.0729	121	C5H9N+
84.0808	537	C5H10N+
91.0546	147	C7H7+
93.0698	123	C7H9+
96.0808	997	C6H10N+
98.0963	366	C6H12N+
108.0809	125	C7H10N+
110.0964	371	C7H12N+
122.0964	378	C8H12N+
124.112	977	C8H14N+
136.112	636	C9H14N+
137.1201	262	C9H15N+
152.1434	758	C10H18N+
170.154	999	C10H20NO+
