Mass spectrum: Lupinine; LC-ESI-ITFT; MS2; CE: 65%; R=15000; [M+H]+
Name: Lupinine
Name: [(1R,9aR)-2,3,4,6,7,8,9,9a-octahydro-1H-quinolizin-1-yl]methanol
Formula: C10H19NO
Exact mass: 169.1467
SMILES: OC[C@@H]1CCCN2CCCC[C@H]12
InChI: InChI=1S/C10H19NO/c12-8-9-4-3-7-11-6-2-1-5-10(9)11/h9-10,12H,1-8H2/t9-,10+/m0/s1
Instrument: LTQ Orbitrap XL Thermo Scientific
Instrument type: LC-ESI-ITFT
Ms type: MS2
Ion mode: POSITIVE
Ionization: ESI
Fragmentation mode: HCD
Collision energy: 65 % (nominal)
Resolution: 15000
Column name: Synergi Polar RP, 2.5 um 100x3.0 mm, Phenomenex
Retention time: 3.877 min
Base peak: 236.0739
Precursor m/z: 170.1539
Precursor type: [M+H]+
m/z	relative intensity	assigned
84.0807	2	C5H10N+
98.0965	3	C6H12N+
124.112	7	C8H14N+
137.12	1	C9H15N+
152.1434	73	C10H18N+
170.154	999	C10H20NO+
