Mass spectrum: Angustifoline; LC-ESI-ITFT; MS2; CE: 90%; R=15000; [M+H]+
Name: Angustifoline
Name: (2R,10S)-10-prop-2-enyl-7,11-diazatricyclo[7.3.1.0^{2,7}]tridecan-6-one
Formula: C14H22N2O
Exact mass: 234.1732
SMILES: C=CC[C@@H]1NCC2CC1CN1[C@@H]2CCCC1=O
InChI: InChI=1S/C14H22N2O/c1-2-4-12-11-7-10(8-15-12)13-5-3-6-14(17)16(13)9-11/h2,10-13,15H,1,3-9H2/t10?,11?,12-,13+/m0/s1
Instrument: LTQ Orbitrap XL Thermo Scientific
Instrument type: LC-ESI-ITFT
Ms type: MS2
Ion mode: POSITIVE
Ionization: ESI
Fragmentation mode: CID
Collision energy: 90 % (nominal)
Resolution: 15000
Column name: Synergi Polar RP, 2.5 um 100x3.0 mm, Phenomenex
Retention time: 7.343 min
Base peak: 195.0836
Precursor m/z: 235.1805
Precursor type: [M+H]+
m/z	relative intensity	assigned
86.0967	6	C5H12N+
94.0654	12	C6H8N+
96.0809	7	C6H10N+
98.0963	11	C6H12N+
100.0757	5	C5H10NO+
112.0758	69	C6H10NO+
112.1121	11	C7H14N+
114.0915	5	C6H12NO+
119.0858	7	C9H11+
122.0962	7	C8H12N+
134.0964	5	C9H12N+
136.1121	136	C9H14N+
138.1277	41	C9H16N+
150.0914	83	C9H12NO+
152.1072	9	C9H14NO+
164.1075	6	C10H14NO+
166.1228	15	C10H16NO+
188.1431	9	C13H18N+
192.1384	31	C12H18NO+
193.1337	999	C11H17N2O+
206.1541	25	C13H20NO+
217.1701	365	C14H21N2+
218.1542	6	C14H20NO+
