Mass spectrum: Senecionine N-oxide; LC-ESI-ITFT; MS2; CE: 100%; R=15000; [M+H]+
Name: Senecionine N-oxide
Name: (1R,4Z,6R,7R,17R)-4-ethylidene-7-hydroxy-6,7-dimethyl-14-oxido-2,9-dioxa-14-azoniatricyclo[9.5.1.0^{14,17}]heptadec-11-ene-3,8-dione
Formula: C18H25NO6
Exact mass: 351.1682
SMILES: C\C=C1\C[C@@H](C)[C@@](C)(O)C(=O)OCC2=CC[N+]3([O-])CC[C@@H](OC1=O)[C@@H]23
InChI: InChI=1S/C18H25NO6/c1-4-12-9-11(2)18(3,22)17(21)24-10-13-5-7-19(23)8-6-14(15(13)19)25-16(12)20/h4-5,11,14-15,22H,6-10H2,1-3H3/b12-4-/t11-,14-,15-,18-,19?/m1/s1
Instrument: LTQ Orbitrap XL Thermo Scientific
Instrument type: LC-ESI-ITFT
Ms type: MS2
Ion mode: POSITIVE
Ionization: ESI
Fragmentation mode: HCD
Collision energy: 100 % (nominal)
Resolution: 15000
Column name: Kinetex Evo C18 2.6 um 50x2.1 mm, Phenomenex
Retention time: 6.210 min
Base peak: 352.1753
Precursor m/z: 352.1755
Precursor type: [M+H]+
m/z	relative intensity	assigned
53.0384	50	C4H5+
55.0541	30	C4H7+
67.0415	41	C4H5N+
67.0541	42	C5H7+
77.0386	16	C6H5+
79.0542	56	C6H7+
80.0495	202	C5H6N+
81.0575	17	C5H7N+
81.0698	54	C6H9+
91.0542	68	C7H7+
92.0496	63	C6H6N+
93.0573	364	C6H7N+
94.0651	999	C6H8N+
95.0687	32	CH9N3O2+
95.0729	35	C6H9N+
96.0809	28	C6H10N+
106.0651	85	C7H8N+
107.0854	24	C8H11+
108.0808	142	C7H10N+
110.0604	22	C6H8NO+
117.0574	42	C8H7N+
118.0651	316	C8H8N+
119.073	76	C8H9N+
120.0808	385	C8H10N+
136.0757	323	C8H10NO+
