Mass spectrum: Lupanine; LC-ESI-ITFT; MS2; CE: 125%; R=15000; [M+H]+
Name: Lupanine
Name: 11-Isolupanine
Name: 7,15-diazatetracyclo[7.7.1.0^{2,7}.0^{10,15}]heptadecan-6-one
Formula: C15H24N2O
Exact mass: 248.1889
SMILES: C1CCN2CC3CC(C2C1)CN4C3CCCC4=O
InChI: InChI=1S/C15H24N2O/c18-15-6-3-5-14-11-8-12(10-17(14)15)13-4-1-2-7-16(13)9-11/h11-14H,1-10H2
Instrument: LTQ Orbitrap XL Thermo Scientific
Instrument type: LC-ESI-ITFT
Ms type: MS2
Ion mode: POSITIVE
Ionization: ESI
Fragmentation mode: HCD
Collision energy: 125 % (nominal)
Resolution: 15000
Column name: Synergi Polar RP, 2.5 um 100x3.0 mm, Phenomenex
Retention time: 7.065 min
Base peak: 195.0837
Precursor m/z: 249.1961
Precursor type: [M+H]+
m/z	relative intensity	assigned
70.0652	653	C4H8N+
84.0809	999	C5H10N+
98.0969	474	C6H12N+
112.0762	448	C6H10NO+
122.0969	456	C8H12N+
134.0964	648	C9H12N+
136.1122	979	C9H14N+
158.177	518	C9H22N2+
