Mass spectrum: Monocrotaline N-oxide; LC-ESI-ITFT; MS2; CE: 70%; R=15000; [M+H]+
Name: Monocrotaline N-oxide
Name: (1R,4R,5R,6R,16R)-5,6-dihydroxy-4,5,6-trimethyl-13-oxido-2,8-dioxa-13-azoniatricyclo[8.5.1.0^{13,16}]hexadec-10-ene-3,7-dione
Formula: C16H23NO7
Exact mass: 341.1475
SMILES: C[C@H]1C(=O)O[C@@H]2CCN3(=O)CC=C(COC(=O)[C@](C)(O)[C@]1(C)O)[C@H]23
InChI: InChI=1S/C16H23NO7/c1-9-13(18)24-11-5-7-17(22)6-4-10(12(11)17)8-23-14(19)16(3,21)15(9,2)20/h4,9,11-12,20-21H,5-8H2,1-3H3/t9-,11+,12+,15+,16-,17?/m0/s1
Instrument: LTQ Orbitrap XL Thermo Scientific
Instrument type: LC-ESI-ITFT
Ms type: MS2
Ion mode: POSITIVE
Ionization: ESI
Fragmentation mode: CID
Collision energy: 70 % (nominal)
Resolution: 15000
Column name: Kinetex Evo C18 2.6 um 50x2.1 mm, Phenomenex
Retention time: 1.137 min
Base peak: 350.1595
Precursor m/z: 342.1547
Precursor type: [M+H]+
m/z	relative intensity	assigned
106.0652	5	C7H8N+
108.0809	19	C7H10N+
109.065	3	C7H9O+
117.0574	7	C8H7N+
118.0652	84	C8H8N+
119.073	68	C8H9N+
120.0809	168	C8H10N+
121.0886	10	C8H11N+
122.0598	5	C7H8NO+
122.0963	7	C8H12N+
136.0758	53	C8H10NO+
137.0836	291	C8H11NO+
138.0915	15	C8H12NO+
140.107	8	C8H14NO+
154.086	13	C8H12NO2+
157.0861	9	C8H13O3+
162.0917	6	C10H12NO+
164.0703	6	C9H10NO2+
172.0973	4	C8H14NO3+
180.1021	14	C10H14NO2+
183.0889	11	C9H13NO3+
190.0862	7	C11H12NO2+
192.1016	10	C11H14NO2+
194.1177	31	C11H16NO2+
198.1123	5	C10H16NO3+
208.0971	20	C11H14NO3+
209.1048	72	C11H15NO3+
210.1127	34	C11H16NO3+
226.1077	34	C11H16NO4+
228.1231	14	C11H18NO4+
234.1123	8	C13H16NO3+
235.1195	5	C13H17NO3+
236.1282	298	C13H18NO3+
238.1442	4	C13H20NO3+
244.1182	35	C11H18NO5+
253.1309	127	C13H19NO4+
254.1388	55	C13H20NO4+
268.1182	36	C13H18NO5+
270.1337	40	C13H20NO5+
280.1554	5	C15H22NO4+
296.1494	999	C15H22NO5+
298.1654	5	C15H24NO5+
314.16	90	C15H24NO6+
324.1443	36	C16H22NO6+
