Mass spectrum: Erucifoline; LC-ESI-ITFT; MS2; CE: 50%; R=15000; [M+H]+
Name: Erucifoline
Name: CID 75092738
Name: 9-ethylidene-7-(hydroxymethyl)-5-methyl-3,6,11-trioxa-15-azatetracyclo[10.5.1.0^{5,7}.0^{15,18}]octadec-1(17)-ene-4,10-dione
Formula: C18H23NO6
Exact mass: 349.1525
SMILES: CC=C1CC2(C(O2)(C(=O)OCC3=CCN4C3C(CC4)OC1=O)C)CO
InChI: InChI=1S/C18H23NO6/c1-3-11-8-18(10-20)17(2,25-18)16(22)23-9-12-4-6-19-7-5-13(14(12)19)24-15(11)21/h3-4,13-14,20H,5-10H2,1-2H3
Instrument: LTQ Orbitrap XL Thermo Scientific
Instrument type: LC-ESI-ITFT
Ms type: MS2
Ion mode: POSITIVE
Ionization: ESI
Fragmentation mode: HCD
Collision energy: 50 % (nominal)
Resolution: 15000
Column name: Kinetex Evo C18 2.6 um 50x2.1 mm, Phenomenex
Retention time: 1.109 min
Base peak: 350.1596
Precursor m/z: 350.1598
Precursor type: [M+H]+
m/z	relative intensity	assigned
67.0543	91	C5H7+
80.0496	93	C5H6N+
93.0699	162	C7H9+
94.065	245	C6H8N+
95.0491	53	C6H7O+
96.0808	139	C6H10N+
110.0964	55	C7H12N+
118.0648	71	C8H8N+
120.0809	999	C8H10N+
121.0883	41	C8H11N+
122.0965	103	C8H12N+
138.0913	879	C8H12NO+
141.0551	70	C7H9O3+
164.1071	198	C10H14NO+
322.1644	70	C17H24NO5+
350.1598	716	C18H24NO6+
