Mass spectrum: Monocrotaline N-oxide; LC-ESI-ITFT; MS2; CE: 85%; R=15000; [M+H]+
Name: Monocrotaline N-oxide
Name: (1R,4R,5R,6R,16R)-5,6-dihydroxy-4,5,6-trimethyl-13-oxido-2,8-dioxa-13-azoniatricyclo[8.5.1.0^{13,16}]hexadec-10-ene-3,7-dione
Formula: C16H23NO7
Exact mass: 341.1475
SMILES: C[C@H]1C(=O)O[C@@H]2CCN3(=O)CC=C(COC(=O)[C@](C)(O)[C@]1(C)O)[C@H]23
InChI: InChI=1S/C16H23NO7/c1-9-13(18)24-11-5-7-17(22)6-4-10(12(11)17)8-23-14(19)16(3,21)15(9,2)20/h4,9,11-12,20-21H,5-8H2,1-3H3/t9-,11+,12+,15+,16-,17?/m0/s1
Instrument: LTQ Orbitrap XL Thermo Scientific
Instrument type: LC-ESI-ITFT
Ms type: MS2
Ion mode: POSITIVE
Ionization: ESI
Fragmentation mode: CID
Collision energy: 85 % (nominal)
Resolution: 15000
Column name: Kinetex Evo C18 2.6 um 50x2.1 mm, Phenomenex
Retention time: 1.126 min
Base peak: 350.1597
Precursor m/z: 342.1547
Precursor type: [M+H]+
m/z	relative intensity	assigned
106.0655	7	C7H8N+
108.0809	20	C7H10N+
117.0573	11	C8H7N+
118.0651	83	C8H8N+
119.073	86	C8H9N+
120.0808	168	C8H10N+
121.0887	11	C8H11N+
122.0605	4	C7H8NO+
122.0966	6	C8H12N+
136.0758	51	C8H10NO+
137.0835	335	C8H11NO+
138.0911	14	C8H12NO+
140.107	7	C8H14NO+
154.0865	16	C8H12NO2+
157.086	12	C8H13O3+
162.091	8	C10H12NO+
164.0706	7	C9H10NO2+
164.1069	5	C10H14NO+
180.1023	16	C10H14NO2+
183.0886	8	C9H13NO3+
190.0854	5	C11H12NO2+
192.1017	12	C11H14NO2+
194.1178	26	C11H16NO2+
198.1131	7	C10H16NO3+
208.0968	19	C11H14NO3+
209.1046	74	C11H15NO3+
210.1123	33	C11H16NO3+
226.1075	31	C11H16NO4+
228.1227	19	C11H18NO4+
234.1118	11	C13H16NO3+
235.12	7	C13H17NO3+
236.1279	303	C13H18NO3+
244.1177	33	C11H18NO5+
253.1307	126	C13H19NO4+
254.1385	56	C13H20NO4+
268.118	29	C13H18NO5+
270.1333	45	C13H20NO5+
280.1537	4	C15H22NO4+
286.1284	4	C13H20NO6+
296.1492	999	C15H22NO5+
298.1654	9	C15H24NO5+
314.1599	97	C15H24NO6+
324.1441	35	C16H22NO6+
