Mass spectrum: Monocrotaline; LC-ESI-ITFT; MS2; CE: 55%; R=15000; [M+H]+
Name: Monocrotaline
Name: (1R,4R,5R,6R,16R)-5,6-dihydroxy-4,5,6-trimethyl-2,8-dioxa-13-azatricyclo[8.5.1.0^{13,16}]hexadec-10-ene-3,7-dione
Formula: C16H23NO6
Exact mass: 325.1525
SMILES: C[C@H]1C(=O)O[C@@H]2CCN3CC=C(COC(=O)[C@](C)(O)[C@]1(C)O)[C@H]23
InChI: InChI=1S/C16H23NO6/c1-9-13(18)23-11-5-7-17-6-4-10(12(11)17)8-22-14(19)16(3,21)15(9,2)20/h4,9,11-12,20-21H,5-8H2,1-3H3/t9-,11+,12+,15+,16-/m0/s1
Instrument: LTQ Orbitrap XL Thermo Scientific
Instrument type: LC-ESI-ITFT
Ms type: MS2
Ion mode: POSITIVE
Ionization: ESI
Fragmentation mode: CID
Collision energy: 55 % (nominal)
Resolution: 15000
Column name: Kinetex Evo C18 2.6 um 50x2.1 mm, Phenomenex
Retention time: 0.955 min
Base peak: 326.1595
Precursor m/z: 326.1598
Precursor type: [M+H]+
m/z	relative intensity	assigned
94.0651	13	C6H8N+
96.0809	1	C6H10N+
103.0543	4	C8H7+
105.0702	3	C8H9+
106.0651	16	C7H8N+
108.0808	10	C7H10N+
110.06	10	C6H8NO+
118.0652	4	C8H8N+
120.0808	231	C8H10N+
121.0886	133	C8H11N+
122.0964	94	C8H12N+
136.0757	12	C8H10NO+
138.0913	38	C8H12NO+
139.0992	7	C8H13NO+
140.107	9	C8H14NO+
146.0962	9	C10H12N+
148.1122	25	C10H14N+
153.0783	6	C8H11NO2+
156.1017	4	C8H14NO2+
164.107	190	C10H14NO+
166.0863	4	C9H12NO2+
174.0914	11	C11H12NO+
180.1021	14	C10H14NO2+
182.1175	32	C10H16NO2+
184.0969	12	C9H14NO3+
192.102	28	C11H14NO2+
194.1176	191	C11H16NO2+
195.1254	8	C11H17NO2+
208.0968	15	C11H14NO3+
210.1124	130	C11H16NO3+
212.1284	4	C11H18NO3+
228.1231	48	C11H18NO4+
236.1282	6	C13H18NO3+
237.136	352	C13H19NO3+
238.1437	226	C13H20NO3+
252.1228	24	C13H18NO4+
254.1385	15	C13H20NO4+
280.1542	999	C15H22NO4+
298.1649	92	C15H24NO5+
308.1493	28	C16H22NO5+
