Mass spectrum: Senkirkine; LC-ESI-ITFT; MS2; CE: 35%; R=15000; [M+H]+
Name: Senkirkine
Name: (1R,4Z,6R,7R,11Z)-4-Ethylidene-7-hydroxy-6,7,14-trimethyl-2,9-dioxa-14-azabicyclo[9.5.1]heptadec-11-ene-3,8,17-trione
Formula: C19H27NO6
Exact mass: 365.1838
SMILES: C/C=C\1/C[C@H]([C@@](C(=O)OC/C/2=C/CN(CC[C@H](C2=O)OC1=O)C)(C)O)C
InChI: InChI=1S/C19H27NO6/c1-5-13-10-12(2)19(3,24)18(23)25-11-14-6-8-20(4)9-7-15(16(14)21)26-17(13)22/h5-6,12,15,24H,7-11H2,1-4H3/b13-5-,14-6-/t12-,15-,19-/m1/s1
Instrument: LTQ Orbitrap XL Thermo Scientific
Instrument type: LC-ESI-ITFT
Ms type: MS2
Ion mode: POSITIVE
Ionization: ESI
Fragmentation mode: CID
Collision energy: 35 % (nominal)
Resolution: 15000
Column name: Kinetex Evo C18 2.6 um 50x2.1 mm, Phenomenex
Retention time: 6.974 min
Base peak: 366.1909
Precursor m/z: 366.1911
Precursor type: [M+H]+
m/z	relative intensity	assigned
94.0652	5	C6H8N+
107.0856	8	C8H11+
108.0808	7	C7H10N+
109.0648	3	C7H9O+
109.1013	2	C8H13+
116.0708	2	C5H10NO2+
117.0573	8	C8H7N+
122.0601	188	C7H8NO+
122.0965	87	C8H12N+
123.0679	11	C7H9NO+
124.0758	45	C7H10NO+
125.0598	33	C7H9O2+
125.0962	10	C8H13O+
132.0809	8	C9H10N+
134.0602	3	C8H8NO+
135.0805	20	C9H11O+
137.0597	4	C8H9O2+
137.0836	35	C8H11NO+
137.0959	5	C9H13O+
138.0915	12	C8H12NO+
140.0709	3	C7H10NO2+
140.1071	6	C8H14NO+
150.0914	786	C9H12NO+
153.0911	55	C9H13O2+
168.102	852	C9H14NO2+
181.0861	7	C10H13O3+
186.1126	9	C9H16NO3+
199.0965	5	C10H15O4+
220.1333	15	C13H18NO2+
248.1283	13	C14H18NO3+
250.144	12	C14H20NO3+
268.1546	28	C14H22NO4+
304.1909	42	C18H26NO3+
318.1702	22	C18H24NO4+
320.1494	10	C17H22NO5+
320.1859	35	C18H26NO4+
322.2016	11	C18H28NO4+
330.1705	7	C19H24NO4+
338.1965	73	C18H28NO5+
348.1808	113	C19H26NO5+
366.1914	999	C19H28NO6+
