Mass spectrum: Jacobine; LC-ESI-ITFT; MS2; CE: 50%; R=15000; [M+H]+
Name: Jacobine
Name: (1R,3`S,4S,6R,7R,17R)-7-hydroxy-3`,6,7-trimethylspiro[2,9-dioxa-14-azatricyclo[9.5.1.0^{14,17}]heptadec-11-ene-4,2`-oxirane]-3,8-dione
Formula: C18H25NO6
Exact mass: 351.1682
SMILES: C[C@@H]1O[C@@]11C[C@@H](C)[C@@](C)(O)C(=O)OCC2=CCN3CC[C@@H](OC1=O)[C@@H]23
InChI: InChI=1S/C18H25NO6/c1-10-8-18(11(2)25-18)16(21)24-13-5-7-19-6-4-12(14(13)19)9-23-15(20)17(10,3)22/h4,10-11,13-14,22H,5-9H2,1-3H3/t10-,11+,13-,14-,17-,18+/m1/s1
Instrument: LTQ Orbitrap XL Thermo Scientific
Instrument type: LC-ESI-ITFT
Ms type: MS2
Ion mode: POSITIVE
Ionization: ESI
Fragmentation mode: HCD
Collision energy: 50 % (nominal)
Resolution: 15000
Column name: Kinetex Evo C18 2.6 um 50x2.1 mm, Phenomenex
Retention time: 1.289 min
Base peak: 352.1752
Precursor m/z: 352.1755
Precursor type: [M+H]+
m/z	relative intensity	assigned
70.0651	117	C4H8N+
79.0541	104	C6H7+
80.0494	241	C5H6N+
93.0698	135	C7H9+
94.0651	174	C6H8N+
96.0807	54	C6H10N+
97.0648	45	C6H9O+
105.0697	61	C8H9+
107.0728	41	C7H9N+
108.0807	86	C7H10N+
110.0965	29	C7H12N+
113.0596	107	C6H9O2+
115.075	65	C6H11O2+
120.0808	999	C8H10N+
121.0883	45	C8H11N+
122.0964	720	C8H12N+
123.1042	577	C8H13N+
134.0967	26	C9H12N+
137.0959	45	C9H13O+
138.0913	159	C8H12NO+
140.1069	134	C8H14NO+
148.1115	23	C10H14N+
155.1066	715	C9H15O2+
162.0914	176	C10H12NO+
165.0914	40	C10H13O2+
183.1015	68	C10H15O3+
200.1435	42	C14H18N+
210.112	37	C11H16NO3+
216.1385	31	C14H18NO+
218.1543	49	C14H20NO+
234.1486	132	C14H20NO2+
262.1438	249	C15H20NO3+
264.1588	92	C15H22NO3+
280.1541	453	C15H22NO4+
308.1492	156	C16H22NO5+
324.1796	36	C17H26NO5+
352.1756	336	C18H26NO6+
