Mass spectrum: Senkirkine; LC-ESI-ITFT; MS2; CE: 60%; R=15000; [M+H]+
Name: Senkirkine
Name: (1R,4Z,6R,7R,11Z)-4-Ethylidene-7-hydroxy-6,7,14-trimethyl-2,9-dioxa-14-azabicyclo[9.5.1]heptadec-11-ene-3,8,17-trione
Formula: C19H27NO6
Exact mass: 365.1838
SMILES: C/C=C\1/C[C@H]([C@@](C(=O)OC/C/2=C/CN(CC[C@H](C2=O)OC1=O)C)(C)O)C
InChI: InChI=1S/C19H27NO6/c1-5-13-10-12(2)19(3,24)18(23)25-11-14-6-8-20(4)9-7-15(16(14)21)26-17(13)22/h5-6,12,15,24H,7-11H2,1-4H3/b13-5-,14-6-/t12-,15-,19-/m1/s1
Instrument: LTQ Orbitrap XL Thermo Scientific
Instrument type: LC-ESI-ITFT
Ms type: MS2
Ion mode: POSITIVE
Ionization: ESI
Fragmentation mode: CID
Collision energy: 60 % (nominal)
Resolution: 15000
Column name: Kinetex Evo C18 2.6 um 50x2.1 mm, Phenomenex
Retention time: 6.949 min
Base peak: 366.1909
Precursor m/z: 366.1911
Precursor type: [M+H]+
m/z	relative intensity	assigned
91.0545	1	C7H7+
94.0652	6	C6H8N+
97.0652	2	C6H9O+
106.0652	6	C7H8N+
107.0492	2	C7H7O+
107.073	9	C7H9N+
107.0856	10	C8H11+
108.0808	12	C7H10N+
109.0648	6	C7H9O+
109.1009	3	C8H13+
110.06	2	C6H8NO+
116.0708	3	C5H10NO2+
117.0574	11	C8H7N+
120.0808	10	C8H10N+
122.0601	203	C7H8NO+
122.0965	107	C8H12N+
123.0679	15	C7H9NO+
124.0757	57	C7H10NO+
125.0598	49	C7H9O2+
125.0961	14	C8H13O+
132.0809	10	C9H10N+
134.06	4	C8H8NO+
135.068	3	C8H9NO+
135.0805	26	C9H11O+
137.0599	7	C8H9O2+
137.0836	39	C8H11NO+
137.0964	4	C9H13O+
138.0913	15	C8H12NO+
140.0707	3	C7H10NO2+
140.107	7	C8H14NO+
148.076	5	C9H10NO+
150.0914	860	C9H12NO+
151.0946	32	C4H13N3O3+
153.091	67	C9H13O2+
163.0753	3	C10H11O2+
168.1019	999	C9H14NO2+
169.1051	32	C4H15N3O4+
181.086	8	C10H13O3+
186.1124	14	C9H16NO3+
199.0967	6	C10H15O4+
220.1333	23	C13H18NO2+
232.1332	1	C14H18NO2+
248.1284	11	C14H18NO3+
250.1439	18	C14H20NO3+
268.1544	32	C14H22NO4+
302.1745	1	C18H24NO3+
304.1909	53	C18H26NO3+
318.1702	25	C18H24NO4+
320.1493	11	C17H22NO5+
320.1855	34	C18H26NO4+
322.2013	13	C18H28NO4+
330.1694	12	C19H24NO4+
338.1964	81	C18H28NO5+
348.1806	112	C19H26NO5+
