Mass spectrum: Senkirkine; LC-ESI-ITFT; MS2; CE: 50%; R=15000; [M+H]+
Name: Senkirkine
Name: (1R,4Z,6R,7R,11Z)-4-Ethylidene-7-hydroxy-6,7,14-trimethyl-2,9-dioxa-14-azabicyclo[9.5.1]heptadec-11-ene-3,8,17-trione
Formula: C19H27NO6
Exact mass: 365.1838
SMILES: C/C=C\1/C[C@H]([C@@](C(=O)OC/C/2=C/CN(CC[C@H](C2=O)OC1=O)C)(C)O)C
InChI: InChI=1S/C19H27NO6/c1-5-13-10-12(2)19(3,24)18(23)25-11-14-6-8-20(4)9-7-15(16(14)21)26-17(13)22/h5-6,12,15,24H,7-11H2,1-4H3/b13-5-,14-6-/t12-,15-,19-/m1/s1
Instrument: LTQ Orbitrap XL Thermo Scientific
Instrument type: LC-ESI-ITFT
Ms type: MS2
Ion mode: POSITIVE
Ionization: ESI
Fragmentation mode: CID
Collision energy: 50 % (nominal)
Resolution: 15000
Column name: Kinetex Evo C18 2.6 um 50x2.1 mm, Phenomenex
Retention time: 6.922 min
Base peak: 366.191
Precursor m/z: 366.1911
Precursor type: [M+H]+
m/z	relative intensity	assigned
94.0652	5	C6H8N+
106.0652	6	C7H8N+
107.0494	3	C7H7O+
107.0731	9	C7H9N+
107.0856	13	C8H11+
108.0808	7	C7H10N+
109.0649	6	C7H9O+
109.1013	3	C8H13+
116.0704	2	C5H10NO2+
117.0574	8	C8H7N+
120.0809	11	C8H10N+
121.0888	2	C8H11N+
122.0601	205	C7H8NO+
122.0965	100	C8H12N+
123.0679	14	C7H9NO+
124.0757	59	C7H10NO+
125.0598	49	C7H9O2+
125.0833	3	C7H11NO+
125.0963	13	C8H13O+
132.0809	11	C9H10N+
134.0602	4	C8H8NO+
135.0674	2	C8H9NO+
135.0806	26	C9H11O+
136.0754	2	C8H10NO+
137.0597	8	C8H9O2+
137.0836	41	C8H11NO+
137.0962	5	C9H13O+
138.0915	15	C8H12NO+
140.0705	4	C7H10NO2+
140.107	7	C8H14NO+
148.0757	4	C9H10NO+
150.0914	877	C9H12NO+
151.0948	3	C4H13N3O3+
153.091	69	C9H13O2+
163.0756	4	C10H11O2+
168.102	999	C9H14NO2+
181.0858	9	C10H13O3+
186.1125	14	C9H16NO3+
199.0967	7	C10H15O4+
220.1334	21	C13H18NO2+
248.1282	12	C14H18NO3+
250.1437	18	C14H20NO3+
268.1544	30	C14H22NO4+
304.1909	53	C18H26NO3+
318.1702	28	C18H24NO4+
320.1496	11	C17H22NO5+
320.1857	38	C18H26NO4+
322.2013	13	C18H28NO4+
330.1704	11	C19H24NO4+
338.1964	83	C18H28NO5+
348.1808	120	C19H26NO5+
