Mass spectrum: Monocrotaline; LC-ESI-ITFT; MS2; CE: 70%; R=15000; [M+H]+
Name: Monocrotaline
Name: (1R,4R,5R,6R,16R)-5,6-dihydroxy-4,5,6-trimethyl-2,8-dioxa-13-azatricyclo[8.5.1.0^{13,16}]hexadec-10-ene-3,7-dione
Formula: C16H23NO6
Exact mass: 325.1525
SMILES: C[C@H]1C(=O)O[C@@H]2CCN3CC=C(COC(=O)[C@](C)(O)[C@]1(C)O)[C@H]23
InChI: InChI=1S/C16H23NO6/c1-9-13(18)23-11-5-7-17-6-4-10(12(11)17)8-22-14(19)16(3,21)15(9,2)20/h4,9,11-12,20-21H,5-8H2,1-3H3/t9-,11+,12+,15+,16-/m0/s1
Instrument: LTQ Orbitrap XL Thermo Scientific
Instrument type: LC-ESI-ITFT
Ms type: MS2
Ion mode: POSITIVE
Ionization: ESI
Fragmentation mode: HCD
Collision energy: 70 % (nominal)
Resolution: 15000
Column name: Kinetex Evo C18 2.6 um 50x2.1 mm, Phenomenex
Retention time: 0.955 min
Base peak: 326.1595
Precursor m/z: 326.1598
Precursor type: [M+H]+
m/z	relative intensity	assigned
57.0333	9	C3H5O+
67.0416	113	C4H5N+
67.0542	17	C5H7+
68.0494	56	C4H6N+
79.0542	30	C6H7+
80.0495	72	C5H6N+
82.0651	43	C5H8N+
91.0543	26	C7H7+
93.0572	25	C6H7N+
93.0699	68	C7H9+
94.0651	363	C6H8N+
95.0729	379	C6H9N+
96.0808	70	C6H10N+
103.054	19	C8H7+
105.07	16	C8H9+
106.0652	42	C7H8N+
108.0808	65	C7H10N+
118.0652	20	C8H8N+
120.0808	999	C8H10N+
121.0886	908	C8H11N+
122.0964	176	C8H12N+
136.0758	17	C8H10NO+
138.0913	265	C8H12NO+
139.0993	67	C8H13NO+
140.1068	41	C8H14NO+
156.1019	71	C8H14NO2+
164.107	62	C10H14NO+
166.0861	10	C9H12NO2+
184.0969	103	C9H14NO3+
192.1011	13	C11H14NO2+
194.1175	211	C11H16NO2+
195.1256	27	C11H17NO2+
212.1283	32	C11H18NO3+
237.1361	55	C13H19NO3+
238.143	19	C13H20NO3+
254.138	13	C13H20NO4+
280.1543	20	C15H22NO4+
298.1654	22	C15H24NO5+
