Mass spectrum: Senkirkine; LC-ESI-ITFT; MS2; CE: 40%; R=15000; [M+H]+
Name: Senkirkine
Name: (1R,4Z,6R,7R,11Z)-4-Ethylidene-7-hydroxy-6,7,14-trimethyl-2,9-dioxa-14-azabicyclo[9.5.1]heptadec-11-ene-3,8,17-trione
Formula: C19H27NO6
Exact mass: 365.1838
SMILES: C/C=C\1/C[C@H]([C@@](C(=O)OC/C/2=C/CN(CC[C@H](C2=O)OC1=O)C)(C)O)C
InChI: InChI=1S/C19H27NO6/c1-5-13-10-12(2)19(3,24)18(23)25-11-14-6-8-20(4)9-7-15(16(14)21)26-17(13)22/h5-6,12,15,24H,7-11H2,1-4H3/b13-5-,14-6-/t12-,15-,19-/m1/s1
Instrument: LTQ Orbitrap XL Thermo Scientific
Instrument type: LC-ESI-ITFT
Ms type: MS2
Ion mode: POSITIVE
Ionization: ESI
Fragmentation mode: CID
Collision energy: 40 % (nominal)
Resolution: 15000
Column name: Kinetex Evo C18 2.6 um 50x2.1 mm, Phenomenex
Retention time: 6.922 min
Base peak: 366.191
Precursor m/z: 366.1911
Precursor type: [M+H]+
m/z	relative intensity	assigned
94.0653	4	C6H8N+
106.0651	4	C7H8N+
107.0489	2	C7H7O+
107.073	6	C7H9N+
107.0855	9	C8H11+
108.0809	8	C7H10N+
109.065	3	C7H9O+
109.1012	3	C8H13+
117.0574	9	C8H7N+
120.0808	7	C8H10N+
121.0887	2	C8H11N+
122.0601	181	C7H8NO+
122.0965	84	C8H12N+
123.068	11	C7H9NO+
124.0757	44	C7H10NO+
125.0598	39	C7H9O2+
125.0961	13	C8H13O+
132.0808	10	C9H10N+
134.0602	3	C8H8NO+
135.0676	2	C8H9NO+
135.0806	23	C9H11O+
136.0755	2	C8H10NO+
137.0599	7	C8H9O2+
137.0835	32	C8H11NO+
137.0962	4	C9H13O+
138.0915	11	C8H12NO+
140.0708	2	C7H10NO2+
140.1072	5	C8H14NO+
148.0762	4	C9H10NO+
150.0914	761	C9H12NO+
153.091	59	C9H13O2+
163.0752	4	C10H11O2+
166.0866	2	C9H12NO2+
168.102	847	C9H14NO2+
181.086	7	C10H13O3+
186.1127	9	C9H16NO3+
199.0967	5	C10H15O4+
220.1333	19	C13H18NO2+
248.1284	12	C14H18NO3+
250.1438	13	C14H20NO3+
268.1545	27	C14H22NO4+
304.1909	39	C18H26NO3+
318.1702	20	C18H24NO4+
320.1501	11	C17H22NO5+
320.1858	32	C18H26NO4+
322.2013	9	C18H28NO4+
330.1701	9	C19H24NO4+
338.1965	67	C18H28NO5+
348.1808	104	C19H26NO5+
366.1914	999	C19H28NO6+
