Mass spectrum: Monocrotaline; LC-ESI-ITFT; MS2; CE: 110%; R=15000; [M+H]+
Name: Monocrotaline
Name: (1R,4R,5R,6R,16R)-5,6-dihydroxy-4,5,6-trimethyl-2,8-dioxa-13-azatricyclo[8.5.1.0^{13,16}]hexadec-10-ene-3,7-dione
Formula: C16H23NO6
Exact mass: 325.1525
SMILES: C[C@H]1C(=O)O[C@@H]2CCN3CC=C(COC(=O)[C@](C)(O)[C@]1(C)O)[C@H]23
InChI: InChI=1S/C16H23NO6/c1-9-13(18)23-11-5-7-17-6-4-10(12(11)17)8-22-14(19)16(3,21)15(9,2)20/h4,9,11-12,20-21H,5-8H2,1-3H3/t9-,11+,12+,15+,16-/m0/s1
Instrument: LTQ Orbitrap XL Thermo Scientific
Instrument type: LC-ESI-ITFT
Ms type: MS2
Ion mode: POSITIVE
Ionization: ESI
Fragmentation mode: HCD
Collision energy: 110 % (nominal)
Resolution: 15000
Column name: Kinetex Evo C18 2.6 um 50x2.1 mm, Phenomenex
Retention time: 0.950 min
Base peak: 326.1599
Precursor m/z: 326.1598
Precursor type: [M+H]+
m/z	relative intensity	assigned
67.0414	160	C4H5N+
67.0542	103	C5H7+
68.0496	120	C4H6N+
79.0545	84	C6H7+
80.0494	244	C5H6N+
91.0541	97	C7H7+
94.0651	999	C6H8N+
95.0731	126	C6H9N+
106.0648	119	C7H8N+
120.0808	655	C8H10N+
