Mass spectrum: Jacobine; LC-ESI-ITFT; MS2; CE: 65%; R=15000; [M+H]+
Name: Jacobine
Name: (1R,3`S,4S,6R,7R,17R)-7-hydroxy-3`,6,7-trimethylspiro[2,9-dioxa-14-azatricyclo[9.5.1.0^{14,17}]heptadec-11-ene-4,2`-oxirane]-3,8-dione
Formula: C18H25NO6
Exact mass: 351.1682
SMILES: C[C@@H]1O[C@@]11C[C@@H](C)[C@@](C)(O)C(=O)OCC2=CCN3CC[C@@H](OC1=O)[C@@H]23
InChI: InChI=1S/C18H25NO6/c1-10-8-18(11(2)25-18)16(21)24-13-5-7-19-6-4-12(14(13)19)9-23-15(20)17(10,3)22/h4,10-11,13-14,22H,5-9H2,1-3H3/t10-,11+,13-,14-,17-,18+/m1/s1
Instrument: LTQ Orbitrap XL Thermo Scientific
Instrument type: LC-ESI-ITFT
Ms type: MS2
Ion mode: POSITIVE
Ionization: ESI
Fragmentation mode: CID
Collision energy: 65 % (nominal)
Resolution: 15000
Column name: Kinetex Evo C18 2.6 um 50x2.1 mm, Phenomenex
Retention time: 1.302 min
Base peak: 352.1753
Precursor m/z: 352.1755
Precursor type: [M+H]+
m/z	relative intensity	assigned
115.0756	12	C6H11O2+
120.0808	118	C8H10N+
122.0965	42	C8H12N+
123.1043	51	C8H13N+
138.0916	8	C8H12NO+
140.107	11	C8H14NO+
144.0803	6	C10H10N+
146.0965	11	C10H12N+
147.0807	7	C10H11O+
148.0755	8	C9H10NO+
149.096	5	C10H13O+
155.1067	150	C9H15O2+
162.0913	52	C10H12NO+
165.0906	8	C10H13O2+
172.1114	4	C12H14N+
173.1193	4	C12H15N+
174.1272	7	C12H16N+
183.102	6	C10H15O3+
185.1191	5	C13H15N+
190.0863	11	C11H12NO2+
198.128	4	C14H16N+
200.1434	59	C14H18N+
204.1381	53	C13H18NO+
210.1124	8	C11H16NO3+
211.0962	11	C11H15O4+
216.138	39	C14H18NO+
218.1537	40	C14H20NO+
219.1254	8	C13H17NO2+
234.1488	82	C14H20NO2+
236.1641	9	C14H22NO2+
244.1333	28	C15H18NO2+
250.144	7	C14H20NO3+
262.1437	375	C15H20NO3+
264.1591	63	C15H22NO3+
280.1542	759	C15H22NO4+
290.1385	14	C16H20NO4+
306.1695	16	C17H24NO4+
308.1493	999	C16H22NO5+
324.181	47	C17H26NO5+
