Mass spectrum: Monocrotaline; LC-ESI-ITFT; MS2; CE: 80%; R=15000; [M+H]+
Name: Monocrotaline
Name: (1R,4R,5R,6R,16R)-5,6-dihydroxy-4,5,6-trimethyl-2,8-dioxa-13-azatricyclo[8.5.1.0^{13,16}]hexadec-10-ene-3,7-dione
Formula: C16H23NO6
Exact mass: 325.1525
SMILES: C[C@H]1C(=O)O[C@@H]2CCN3CC=C(COC(=O)[C@](C)(O)[C@]1(C)O)[C@H]23
InChI: InChI=1S/C16H23NO6/c1-9-13(18)23-11-5-7-17-6-4-10(12(11)17)8-22-14(19)16(3,21)15(9,2)20/h4,9,11-12,20-21H,5-8H2,1-3H3/t9-,11+,12+,15+,16-/m0/s1
Instrument: LTQ Orbitrap XL Thermo Scientific
Instrument type: LC-ESI-ITFT
Ms type: MS2
Ion mode: POSITIVE
Ionization: ESI
Fragmentation mode: CID
Collision energy: 80 % (nominal)
Resolution: 15000
Column name: Kinetex Evo C18 2.6 um 50x2.1 mm, Phenomenex
Retention time: 0.957 min
Base peak: 326.1596
Precursor m/z: 326.1598
Precursor type: [M+H]+
m/z	relative intensity	assigned
94.0652	9	C6H8N+
120.0807	219	C8H10N+
121.0886	138	C8H11N+
122.0963	101	C8H12N+
138.0913	34	C8H12NO+
148.1123	24	C10H14N+
164.1069	188	C10H14NO+
182.1174	26	C10H16NO2+
192.1021	25	C11H14NO2+
194.1176	175	C11H16NO2+
208.0963	16	C11H14NO3+
210.1124	116	C11H16NO3+
228.1229	42	C11H18NO4+
237.1359	360	C13H19NO3+
238.1437	219	C13H20NO3+
252.1232	21	C13H18NO4+
254.1381	12	C13H20NO4+
280.1543	999	C15H22NO4+
298.1653	83	C15H24NO5+
308.149	27	C16H22NO5+
