Mass spectrum: Senkirkine; LC-ESI-ITFT; MS2; CE: 50%; R=15000; [M+H]+
Name: Senkirkine
Name: (1R,4Z,6R,7R,11Z)-4-Ethylidene-7-hydroxy-6,7,14-trimethyl-2,9-dioxa-14-azabicyclo[9.5.1]heptadec-11-ene-3,8,17-trione
Formula: C19H27NO6
Exact mass: 365.1838
SMILES: C/C=C\1/C[C@H]([C@@](C(=O)OC/C/2=C/CN(CC[C@H](C2=O)OC1=O)C)(C)O)C
InChI: InChI=1S/C19H27NO6/c1-5-13-10-12(2)19(3,24)18(23)25-11-14-6-8-20(4)9-7-15(16(14)21)26-17(13)22/h5-6,12,15,24H,7-11H2,1-4H3/b13-5-,14-6-/t12-,15-,19-/m1/s1
Instrument: LTQ Orbitrap XL Thermo Scientific
Instrument type: LC-ESI-ITFT
Ms type: MS2
Ion mode: POSITIVE
Ionization: ESI
Fragmentation mode: HCD
Collision energy: 50 % (nominal)
Resolution: 15000
Column name: Kinetex Evo C18 2.6 um 50x2.1 mm, Phenomenex
Retention time: 6.974 min
Base peak: 366.1909
Precursor m/z: 366.1911
Precursor type: [M+H]+
m/z	relative intensity	assigned
70.065	70	C4H8N+
81.0699	20	C6H9+
83.0492	22	C5H7O+
94.0654	19	C6H8N+
101.0596	34	C5H9O2+
107.0491	134	C7H7O+
107.0856	52	C8H11+
109.1011	28	C8H13+
122.0601	219	C7H8NO+
122.0966	75	C8H12N+
124.0756	55	C7H10NO+
125.0598	53	C7H9O2+
125.096	107	C8H13O+
135.0804	80	C9H11O+
137.0966	11	C9H13O+
140.0708	18	C7H10NO2+
150.0914	341	C9H12NO+
153.091	204	C9H13O2+
168.102	999	C9H14NO2+
181.086	16	C10H13O3+
366.1913	220	C19H28NO6+
