Mass spectrum: Jacobine N-oxide; LC-ESI-ITFT; MS2; CE: 65%; R=15000; [M+H]+
Name: Jacobine N-oxide
Name: (1R,3`S,4S,6R,7R,17R)-7-hydroxy-3`,6,7-trimethyl-14-oxidospiro[2,9-dioxa-14-azoniatricyclo[9.5.1.0^{14,17}]heptadec-11-ene-4,2`-oxirane]-3,8-dione
Formula: C18H25NO7
Exact mass: 367.1631
SMILES: C[C@@H]1O[C@@]11C[C@@H](C)[C@@](C)(O)C(=O)OCC2=CCN3(=O)CC[C@@H](OC1=O)[C@@H]23
InChI: InChI=1S/C18H25NO7/c1-10-8-18(11(2)26-18)16(21)25-13-5-7-19(23)6-4-12(14(13)19)9-24-15(20)17(10,3)22/h4,10-11,13-14,22H,5-9H2,1-3H3/t10-,11+,13-,14-,17-,18+,19?/m1/s1
Instrument: LTQ Orbitrap XL Thermo Scientific
Instrument type: LC-ESI-ITFT
Ms type: MS2
Ion mode: POSITIVE
Ionization: ESI
Fragmentation mode: CID
Collision energy: 65 % (nominal)
Resolution: 15000
Column name: Kinetex Evo C18 2.6 um 50x2.1 mm, Phenomenex
Retention time: 1.670 min
Base peak: 61.0394
Precursor m/z: 368.1704
Precursor type: [M+H]+
m/z	relative intensity	assigned
106.0651	2	C7H8N+
118.0651	10	C8H8N+
119.0729	5	C8H9N+
120.0807	28	C8H10N+
121.0885	7	C8H11N+
122.0965	3	C8H12N+
124.0756	1	C7H10NO+
136.0756	3	C8H10NO+
138.0914	3	C8H12NO+
139.0992	14	C8H13NO+
154.0859	2	C8H12NO2+
156.102	4	C8H14NO2+
190.1226	10	C12H16NO+
192.1025	1	C11H14NO2+
200.1431	3	C14H18N+
218.1539	6	C14H20NO+
220.1328	2	C13H18NO2+
236.1284	2	C13H18NO3+
254.138	4	C13H20NO4+
260.1279	7	C15H18NO3+
262.1441	4	C15H20NO3+
268.1543	6	C14H22NO4+
274.1437	3	C16H20NO3+
278.1385	5	C15H20NO4+
280.154	11	C15H22NO4+
296.1491	999	C15H22NO5+
306.1331	6	C16H20NO5+
308.1497	1	C16H22NO5+
324.144	70	C16H22NO6+
340.1752	10	C17H26NO6+
