Mass spectrum: Sparteine; LC-ESI-ITFT; MS2; CE: 105%; R=15000; [M+H]+
Name: Sparteine
Name: Lupinidine
Name: (1S,2R,9S,10S)-7,15-diazatetracyclo[7.7.1.0^{2,7}.0^{10,15}]heptadecane
Formula: C15H26N2
Exact mass: 234.2096
SMILES: C1CCN2C[C@@H]3C[C@@H](CN4CCCC[C@H]34)[C@@H]2C1
InChI: InChI=1S/C15H26N2/c1-3-7-16-11-13-9-12(14(16)5-1)10-17-8-4-2-6-15(13)17/h12-15H,1-11H2/t12-,13-,14-,15+/m0/s1
Instrument: LTQ Orbitrap XL Thermo Scientific
Instrument type: LC-ESI-ITFT
Ms type: MS2
Ion mode: POSITIVE
Ionization: ESI
Fragmentation mode: HCD
Collision energy: 105 % (nominal)
Resolution: 15000
Column name: Synergi Polar RP, 2.5 um 100x3.0 mm, Phenomenex
Retention time: 6.807 min
Base peak: 195.0839
Precursor m/z: 235.2169
Precursor type: [M+H]+
m/z	relative intensity	assigned
70.0651	14	C4H8N+
84.0808	50	C5H10N+
96.081	12	C6H10N+
98.0965	999	C6H12N+
124.112	7	C8H14N+
134.0959	16	C9H12N+
150.1279	22	C10H16N+
152.1435	18	C10H18N+
233.2013	75	C15H25N2+
235.217	181	C15H27N2+
