Mass spectrum: Angustifoline; LC-ESI-ITFT; MS2; CE: 30%; R=15000; [M+H]+
Name: Angustifoline
Name: (2R,10S)-10-prop-2-enyl-7,11-diazatricyclo[7.3.1.0^{2,7}]tridecan-6-one
Formula: C14H22N2O
Exact mass: 234.1732
SMILES: C=CC[C@@H]1NCC2CC1CN1[C@@H]2CCCC1=O
InChI: InChI=1S/C14H22N2O/c1-2-4-12-11-7-10(8-15-12)13-5-3-6-14(17)16(13)9-11/h2,10-13,15H,1,3-9H2/t10?,11?,12-,13+/m0/s1
Instrument: LTQ Orbitrap XL Thermo Scientific
Instrument type: LC-ESI-ITFT
Ms type: MS2
Ion mode: POSITIVE
Ionization: ESI
Fragmentation mode: CID
Collision energy: 30 % (nominal)
Resolution: 15000
Column name: Synergi Polar RP, 2.5 um 100x3.0 mm, Phenomenex
Retention time: 7.399 min
Base peak: 195.0845
Precursor m/z: 235.1805
Precursor type: [M+H]+
m/z	relative intensity	assigned
94.065	6	C6H8N+
98.0963	3	C6H12N+
112.0756	29	C6H10NO+
112.112	3	C7H14N+
119.0855	3	C9H11+
136.1119	62	C9H14N+
138.1276	15	C9H16N+
150.0912	37	C9H12NO+
152.1068	3	C9H14NO+
166.1226	5	C10H16NO+
188.1434	3	C13H18N+
192.1382	12	C12H18NO+
193.1334	449	C11H17N2O+
206.1537	10	C13H20NO+
217.1697	157	C14H21N2+
218.1537	4	C14H20NO+
235.1803	999	C14H23N2O+
