Mass spectrum: Jacobine; LC-ESI-ITFT; MS2; CE: 40%; R=15000; [M+H]+
Name: Jacobine
Name: (1R,3`S,4S,6R,7R,17R)-7-hydroxy-3`,6,7-trimethylspiro[2,9-dioxa-14-azatricyclo[9.5.1.0^{14,17}]heptadec-11-ene-4,2`-oxirane]-3,8-dione
Formula: C18H25NO6
Exact mass: 351.1682
SMILES: C[C@@H]1O[C@@]11C[C@@H](C)[C@@](C)(O)C(=O)OCC2=CCN3CC[C@@H](OC1=O)[C@@H]23
InChI: InChI=1S/C18H25NO6/c1-10-8-18(11(2)25-18)16(21)24-13-5-7-19-6-4-12(14(13)19)9-23-15(20)17(10,3)22/h4,10-11,13-14,22H,5-9H2,1-3H3/t10-,11+,13-,14-,17-,18+/m1/s1
Instrument: LTQ Orbitrap XL Thermo Scientific
Instrument type: LC-ESI-ITFT
Ms type: MS2
Ion mode: POSITIVE
Ionization: ESI
Fragmentation mode: CID
Collision energy: 40 % (nominal)
Resolution: 15000
Column name: Kinetex Evo C18 2.6 um 50x2.1 mm, Phenomenex
Retention time: 1.310 min
Base peak: 352.1753
Precursor m/z: 352.1755
Precursor type: [M+H]+
m/z	relative intensity	assigned
108.0809	2	C7H10N+
110.0964	3	C7H12N+
115.0754	11	C6H11O2+
118.0651	5	C8H8N+
120.0808	119	C8H10N+
122.0965	48	C8H12N+
123.1043	53	C8H13N+
138.0914	5	C8H12NO+
140.107	13	C8H14NO+
144.0811	4	C10H10N+
146.0964	8	C10H12N+
147.0807	5	C10H11O+
148.0757	9	C9H10NO+
149.0964	5	C10H13O+
155.1067	157	C9H15O2+
162.0913	46	C10H12NO+
165.0911	8	C10H13O2+
172.1116	4	C12H14N+
174.1278	11	C12H16N+
183.1015	10	C10H15O3+
186.1278	3	C13H16N+
190.0861	8	C11H12NO2+
193.0857	5	C11H13O3+
200.1434	53	C14H18N+
204.1384	45	C13H18NO+
210.1128	5	C11H16NO3+
211.0964	13	C11H15O4+
216.1383	37	C14H18NO+
218.1539	49	C14H20NO+
234.1489	85	C14H20NO2+
236.1642	7	C14H22NO2+
244.1332	18	C15H18NO2+
250.1428	6	C14H20NO3+
262.1439	358	C15H20NO3+
264.1594	67	C15H22NO3+
280.1544	728	C15H22NO4+
290.1386	17	C16H20NO4+
306.1703	15	C17H24NO4+
308.1494	999	C16H22NO5+
324.1805	33	C17H26NO5+
