Mass spectrum: Senecionine N-oxide; LC-ESI-ITFT; MS2; CE: 80%; R=15000; [M+H]+
Name: Senecionine N-oxide
Name: (1R,4Z,6R,7R,17R)-4-ethylidene-7-hydroxy-6,7-dimethyl-14-oxido-2,9-dioxa-14-azoniatricyclo[9.5.1.0^{14,17}]heptadec-11-ene-3,8-dione
Formula: C18H25NO6
Exact mass: 351.1682
SMILES: C\C=C1\C[C@@H](C)[C@@](C)(O)C(=O)OCC2=CC[N+]3([O-])CC[C@@H](OC1=O)[C@@H]23
InChI: InChI=1S/C18H25NO6/c1-4-12-9-11(2)18(3,22)17(21)24-10-13-5-7-19(23)8-6-14(15(13)19)25-16(12)20/h4-5,11,14-15,22H,6-10H2,1-3H3/b12-4-/t11-,14-,15-,18-,19?/m1/s1
Instrument: LTQ Orbitrap XL Thermo Scientific
Instrument type: LC-ESI-ITFT
Ms type: MS2
Ion mode: POSITIVE
Ionization: ESI
Fragmentation mode: CID
Collision energy: 80 % (nominal)
Resolution: 15000
Column name: Kinetex Evo C18 2.6 um 50x2.1 mm, Phenomenex
Retention time: 6.098 min
Base peak: 195.0876
Precursor m/z: 352.1755
Precursor type: [M+H]+
m/z	relative intensity	assigned
106.0652	126	C7H8N+
108.0808	38	C7H10N+
117.0573	105	C8H7N+
118.0651	784	C8H8N+
119.073	298	C8H9N+
120.0808	508	C8H10N+
121.0886	255	C8H11N+
122.0965	96	C8H12N+
136.0757	290	C8H10NO+
137.0834	57	C8H11NO+
138.0913	111	C8H12NO+
139.0993	16	C8H13NO+
152.107	63	C9H14NO+
153.0911	53	C9H13O2+
154.0862	116	C8H12NO2+
165.079	30	C9H11NO2+
176.1074	28	C11H14NO+
178.1227	60	C11H16NO+
192.1386	23	C12H18NO+
202.1226	97	C13H16NO+
218.1177	92	C13H16NO2+
218.1539	149	C14H20NO+
220.1332	999	C13H18NO2+
236.1282	40	C13H18NO3+
246.1489	633	C15H20NO2+
248.1644	251	C15H22NO2+
254.1387	267	C13H20NO4+
262.1438	32	C15H20NO3+
290.1749	55	C17H24NO3+
324.1805	856	C17H26NO5+
334.1654	117	C18H24NO5+
