Mass spectrum: Jacobine; LC-ESI-ITFT; MS2; CE: 55%; R=15000; [M+H]+
Name: Jacobine
Name: (1R,3`S,4S,6R,7R,17R)-7-hydroxy-3`,6,7-trimethylspiro[2,9-dioxa-14-azatricyclo[9.5.1.0^{14,17}]heptadec-11-ene-4,2`-oxirane]-3,8-dione
Formula: C18H25NO6
Exact mass: 351.1682
SMILES: C[C@@H]1O[C@@]11C[C@@H](C)[C@@](C)(O)C(=O)OCC2=CCN3CC[C@@H](OC1=O)[C@@H]23
InChI: InChI=1S/C18H25NO6/c1-10-8-18(11(2)25-18)16(21)24-13-5-7-19-6-4-12(14(13)19)9-23-15(20)17(10,3)22/h4,10-11,13-14,22H,5-9H2,1-3H3/t10-,11+,13-,14-,17-,18+/m1/s1
Instrument: LTQ Orbitrap XL Thermo Scientific
Instrument type: LC-ESI-ITFT
Ms type: MS2
Ion mode: POSITIVE
Ionization: ESI
Fragmentation mode: CID
Collision energy: 55 % (nominal)
Resolution: 15000
Column name: Kinetex Evo C18 2.6 um 50x2.1 mm, Phenomenex
Retention time: 1.302 min
Base peak: 352.1753
Precursor m/z: 352.1755
Precursor type: [M+H]+
m/z	relative intensity	assigned
103.0542	5	C8H7+
109.0651	5	C7H9O+
115.0753	16	C6H11O2+
118.0649	7	C8H8N+
120.0808	120	C8H10N+
122.0965	45	C8H12N+
123.1043	57	C8H13N+
137.0964	4	C9H13O+
138.0914	10	C8H12NO+
140.1069	10	C8H14NO+
144.0812	5	C10H10N+
146.0964	10	C10H12N+
147.0805	6	C10H11O+
148.0758	9	C9H10NO+
149.0967	6	C10H13O+
155.1067	163	C9H15O2+
162.0914	48	C10H12NO+
165.0908	8	C10H13O2+
172.1112	3	C12H14N+
173.12	4	C12H15N+
174.1279	9	C12H16N+
183.101	8	C10H15O3+
185.12	5	C13H15N+
190.0865	10	C11H12NO2+
198.1279	5	C14H16N+
200.1435	61	C14H18N+
204.1384	44	C13H18NO+
210.1135	5	C11H16NO3+
211.0965	12	C11H15O4+
216.1384	39	C14H18NO+
218.1538	53	C14H20NO+
219.1255	7	C13H17NO2+
234.1489	80	C14H20NO2+
236.1656	6	C14H22NO2+
244.1332	18	C15H18NO2+
250.1436	7	C14H20NO3+
262.1439	379	C15H20NO3+
264.1594	61	C15H22NO3+
280.1544	757	C15H22NO4+
290.1394	16	C16H20NO4+
306.1704	15	C17H24NO4+
308.1494	999	C16H22NO5+
324.1806	41	C17H26NO5+
