Mass spectrum: Erucifoline; LC-ESI-ITFT; MS2; CE: 40%; R=15000; [M+H]+
Name: Erucifoline
Name: CID 75092738
Name: 9-ethylidene-7-(hydroxymethyl)-5-methyl-3,6,11-trioxa-15-azatetracyclo[10.5.1.0^{5,7}.0^{15,18}]octadec-1(17)-ene-4,10-dione
Formula: C18H23NO6
Exact mass: 349.1525
SMILES: CC=C1CC2(C(O2)(C(=O)OCC3=CCN4C3C(CC4)OC1=O)C)CO
InChI: InChI=1S/C18H23NO6/c1-3-11-8-18(10-20)17(2,25-18)16(22)23-9-12-4-6-19-7-5-13(14(12)19)24-15(11)21/h3-4,13-14,20H,5-10H2,1-2H3
Instrument: LTQ Orbitrap XL Thermo Scientific
Instrument type: LC-ESI-ITFT
Ms type: MS2
Ion mode: POSITIVE
Ionization: ESI
Fragmentation mode: CID
Collision energy: 40 % (nominal)
Resolution: 15000
Column name: Kinetex Evo C18 2.6 um 50x2.1 mm, Phenomenex
Retention time: 1.052 min
Base peak: 350.1595
Precursor m/z: 350.1598
Precursor type: [M+H]+
m/z	relative intensity	assigned
93.0701	1	C7H9+
96.0809	2	C6H10N+
103.0543	12	C8H7+
105.0698	1	C8H9+
106.0651	10	C7H8N+
107.0733	1	C7H9N+
108.0807	4	C7H10N+
109.0649	5	C7H9O+
110.0965	4	C7H12N+
111.0444	1	C6H7O2+
117.0573	3	C8H7N+
118.0651	31	C8H8N+
119.0732	2	C8H9N+
120.0808	220	C8H10N+
121.0647	5	C8H9O+
121.0888	5	C8H11N+
122.0964	24	C8H12N+
123.0442	5	C7H7O2+
123.0807	1	C8H11O+
125.0594	2	C7H9O2+
134.0967	1	C9H12N+
136.0759	3	C8H10NO+
136.112	7	C9H14N+
137.0598	3	C8H9O2+
138.0913	111	C8H12NO+
139.0757	1	C8H11O2+
140.1067	1	C8H14NO+
141.0545	8	C7H9O3+
146.0964	9	C10H12N+
148.1121	6	C10H14N+
149.0598	4	C9H9O2+
149.0835	1	C9H11NO+
151.0755	2	C9H11O2+
156.102	5	C8H14NO2+
164.107	110	C10H14NO+
165.0547	7	C9H9O3+
167.0708	3	C9H11O3+
174.0915	4	C11H12NO+
176.1068	7	C11H14NO+
182.0814	4	C9H12NO3+
182.1176	51	C10H16NO2+
192.1023	5	C11H14NO2+
208.0969	3	C11H14NO3+
220.1334	6	C13H18NO2+
246.1483	2	C15H20NO2+
250.1045	1	C10H18O7+
276.1233	1	C15H18NO4+
278.1392	7	C15H20NO4+
280.1543	15	C15H22NO4+
292.1543	8	C16H22NO4+
294.1334	6	C15H20NO5+
302.1387	14	C17H20NO4+
306.1338	2	C16H20NO5+
306.1702	3	C17H24NO4+
320.1494	28	C17H22NO5+
322.165	225	C17H24NO5+
332.1491	2	C18H22NO5+
350.1599	999	C18H24NO6+
