Mass spectrum: Lupanine; LC-ESI-ITFT; MS2; CE: 65%; R=15000; [M+H]+
Name: Lupanine
Name: 11-Isolupanine
Name: 7,15-diazatetracyclo[7.7.1.0^{2,7}.0^{10,15}]heptadecan-6-one
Formula: C15H24N2O
Exact mass: 248.1889
SMILES: C1CCN2CC3CC(C2C1)CN4C3CCCC4=O
InChI: InChI=1S/C15H24N2O/c18-15-6-3-5-14-11-8-12(10-17(14)15)13-4-1-2-7-16(13)9-11/h11-14H,1-10H2
Instrument: LTQ Orbitrap XL Thermo Scientific
Instrument type: LC-ESI-ITFT
Ms type: MS2
Ion mode: POSITIVE
Ionization: ESI
Fragmentation mode: CID
Collision energy: 65 % (nominal)
Resolution: 15000
Column name: Synergi Polar RP, 2.5 um 100x3.0 mm, Phenomenex
Retention time: 7.145 min
Base peak: 236.0738
Precursor m/z: 249.1961
Precursor type: [M+H]+
m/z	relative intensity	assigned
84.0808	15	C5H10N+
96.0808	147	C6H10N+
98.0965	109	C6H12N+
105.0696	14	C8H9+
112.0756	20	C6H10NO+
114.0913	232	C6H12NO+
134.0964	144	C9H12N+
136.1121	999	C9H14N+
148.1121	32	C10H14N+
150.1276	107	C10H16N+
152.1072	14	C9H14NO+
152.1432	18	C10H18N+
166.1224	30	C10H16NO+
204.1381	50	C13H18NO+
206.1531	26	C13H20NO+
231.1856	425	C15H23N2+
