Mass spectrum: 13a-Hydroxylupanin; LC-ESI-ITFT; MS2; CE: 60%; R=15000; [M+H]+
Name: 13a-Hydroxylupanin
Name: Hydroxylupanine
Name: (1S,2R,9S,10S,12S)-12-hydroxy-7,15-diazatetracyclo[7.7.1.0^{2,7}.0^{10,15}]heptadecan-6-one
Formula: C15H24N2O2
Exact mass: 264.1838
SMILES: C1C[C@@H]2[C@H]3C[C@@H](CN2C(=O)C1)[C@@H]4C[C@H](CCN4C3)O
InChI: InChI=1S/C15H24N2O2/c18-12-4-5-16-8-10-6-11(14(16)7-12)9-17-13(10)2-1-3-15(17)19/h10-14,18H,1-9H2/t10-,11-,12-,13+,14-/m0/s1
Instrument: LTQ Orbitrap XL Thermo Scientific
Instrument type: LC-ESI-ITFT
Ms type: MS2
Ion mode: POSITIVE
Ionization: ESI
Fragmentation mode: CID
Collision energy: 60 % (nominal)
Resolution: 15000
Column name: Synergi Polar RP, 2.5 um 100x3.0 mm, Phenomenex
Retention time: 5.368 min
Base peak: 236.0739
Precursor m/z: 265.1911
Precursor type: [M+H]+
m/z	relative intensity	assigned
84.0808	4	C5H10N+
85.0647	3	C5H9O+
91.0542	5	C7H7+
94.0653	3	C6H8N+
96.0808	38	C6H10N+
98.0601	4	C5H8NO+
98.0965	5	C6H12N+
108.0809	9	C7H10N+
110.0964	18	C7H12N+
112.0757	28	C6H10NO+
114.0913	94	C6H12NO+
119.0857	5	C9H11+
122.0964	7	C8H12N+
124.1121	9	C8H14N+
134.0965	32	C9H12N+
146.0969	6	C10H12N+
148.1121	81	C10H14N+
150.0914	60	C9H12NO+
150.1277	17	C10H16N+
152.1071	339	C9H14NO+
162.0914	19	C10H12NO+
164.107	42	C10H14NO+
166.1227	36	C10H16NO+
168.1384	4	C10H18NO+
176.1071	12	C11H14NO+
178.123	8	C11H16NO+
193.1337	22	C11H17N2O+
204.1383	18	C13H18NO+
207.1491	8	C12H19N2O+
221.1649	20	C13H21N2O+
222.1493	3	C13H20NO2+
229.17	42	C15H21N2+
245.165	60	C15H21N2O+
247.1805	999	C15H23N2O+
