Mass spectrum: Senkirkine; LC-ESI-ITFT; MS2; CE: 85%; R=15000; [M+H]+
Name: Senkirkine
Name: (1R,4Z,6R,7R,11Z)-4-Ethylidene-7-hydroxy-6,7,14-trimethyl-2,9-dioxa-14-azabicyclo[9.5.1]heptadec-11-ene-3,8,17-trione
Formula: C19H27NO6
Exact mass: 365.1838
SMILES: C/C=C\1/C[C@H]([C@@](C(=O)OC/C/2=C/CN(CC[C@H](C2=O)OC1=O)C)(C)O)C
InChI: InChI=1S/C19H27NO6/c1-5-13-10-12(2)19(3,24)18(23)25-11-14-6-8-20(4)9-7-15(16(14)21)26-17(13)22/h5-6,12,15,24H,7-11H2,1-4H3/b13-5-,14-6-/t12-,15-,19-/m1/s1
Instrument: LTQ Orbitrap XL Thermo Scientific
Instrument type: LC-ESI-ITFT
Ms type: MS2
Ion mode: POSITIVE
Ionization: ESI
Fragmentation mode: HCD
Collision energy: 85 % (nominal)
Resolution: 15000
Column name: Kinetex Evo C18 2.6 um 50x2.1 mm, Phenomenex
Retention time: 6.949 min
Base peak: 366.1909
Precursor m/z: 366.1911
Precursor type: [M+H]+
m/z	relative intensity	assigned
55.0541	75	C4H7+
67.0543	110	C5H7+
70.065	999	C4H8N+
77.0386	72	C6H5+
79.0542	295	C6H7+
81.0699	107	C6H9+
83.0492	43	C5H7O+
91.0542	100	C7H7+
94.0651	468	C6H8N+
95.0491	162	C6H7O+
96.0807	79	C6H10N+
97.0644	38	C6H9O+
105.07	43	C8H9+
107.0491	248	C7H7O+
107.0729	67	C7H9N+
107.0854	215	C8H11+
110.06	283	C6H8NO+
120.0808	66	C8H10N+
122.06	570	C7H8NO+
122.0963	101	C8H12N+
124.0757	37	C7H10NO+
125.0596	73	C7H9O2+
125.0961	58	C8H13O+
135.0804	54	C9H11O+
140.0705	506	C7H10NO2+
150.0914	86	C9H12NO+
168.1018	982	C9H14NO2+
