Mass spectrum: Senkirkine; LC-ESI-ITFT; MS2; CE: 60%; R=15000; [M+H]+
Name: Senkirkine
Name: (1R,4Z,6R,7R,11Z)-4-Ethylidene-7-hydroxy-6,7,14-trimethyl-2,9-dioxa-14-azabicyclo[9.5.1]heptadec-11-ene-3,8,17-trione
Formula: C19H27NO6
Exact mass: 365.1838
SMILES: C/C=C\1/C[C@H]([C@@](C(=O)OC/C/2=C/CN(CC[C@H](C2=O)OC1=O)C)(C)O)C
InChI: InChI=1S/C19H27NO6/c1-5-13-10-12(2)19(3,24)18(23)25-11-14-6-8-20(4)9-7-15(16(14)21)26-17(13)22/h5-6,12,15,24H,7-11H2,1-4H3/b13-5-,14-6-/t12-,15-,19-/m1/s1
Instrument: LTQ Orbitrap XL Thermo Scientific
Instrument type: LC-ESI-ITFT
Ms type: MS2
Ion mode: POSITIVE
Ionization: ESI
Fragmentation mode: HCD
Collision energy: 60 % (nominal)
Resolution: 15000
Column name: Kinetex Evo C18 2.6 um 50x2.1 mm, Phenomenex
Retention time: 6.974 min
Base peak: 366.1909
Precursor m/z: 366.1911
Precursor type: [M+H]+
m/z	relative intensity	assigned
70.0651	180	C4H8N+
94.0652	32	C6H8N+
101.0596	47	C5H9O2+
107.0491	177	C7H7O+
107.0857	109	C8H11+
122.06	294	C7H8NO+
122.0963	72	C8H12N+
124.0755	41	C7H10NO+
125.0594	60	C7H9O2+
125.0962	91	C8H13O+
135.0806	74	C9H11O+
140.071	33	C7H10NO2+
150.0913	176	C9H12NO+
153.0913	80	C9H13O2+
168.102	999	C9H14NO2+
366.1898	31	C19H28NO6+
