Mass spectrum: Sparteine; LC-ESI-ITFT; MS2; CE: 80%; R=15000; [M+H]+
Name: Sparteine
Name: Lupinidine
Name: (1S,2R,9S,10S)-7,15-diazatetracyclo[7.7.1.0^{2,7}.0^{10,15}]heptadecane
Formula: C15H26N2
Exact mass: 234.2096
SMILES: C1CCN2C[C@@H]3C[C@@H](CN4CCCC[C@H]34)[C@@H]2C1
InChI: InChI=1S/C15H26N2/c1-3-7-16-11-13-9-12(14(16)5-1)10-17-8-4-2-6-15(13)17/h12-15H,1-11H2/t12-,13-,14-,15+/m0/s1
Instrument: LTQ Orbitrap XL Thermo Scientific
Instrument type: LC-ESI-ITFT
Ms type: MS2
Ion mode: POSITIVE
Ionization: ESI
Fragmentation mode: CID
Collision energy: 80 % (nominal)
Resolution: 15000
Column name: Synergi Polar RP, 2.5 um 100x3.0 mm, Phenomenex
Retention time: 6.807 min
Base peak: 195.0839
Precursor m/z: 235.2169
Precursor type: [M+H]+
m/z	relative intensity	assigned
70.0652	10	C4H8N+
84.0807	3	C5H10N+
96.0809	12	C6H10N+
98.0964	999	C6H12N+
124.1116	4	C8H14N+
134.0964	159	C9H12N+
136.1127	2	C9H14N+
138.1275	4	C9H16N+
150.1277	11	C10H16N+
152.1435	12	C10H18N+
164.1433	3	C11H18N+
190.1589	11	C13H20N+
