Mass spectrum: Erucifoline; LC-ESI-ITFT; MS2; CE: 45%; R=15000; [M+H]+
Name: Erucifoline
Name: CID 75092738
Name: 9-ethylidene-7-(hydroxymethyl)-5-methyl-3,6,11-trioxa-15-azatetracyclo[10.5.1.0^{5,7}.0^{15,18}]octadec-1(17)-ene-4,10-dione
Formula: C18H23NO6
Exact mass: 349.1525
SMILES: CC=C1CC2(C(O2)(C(=O)OCC3=CCN4C3C(CC4)OC1=O)C)CO
InChI: InChI=1S/C18H23NO6/c1-3-11-8-18(10-20)17(2,25-18)16(22)23-9-12-4-6-19-7-5-13(14(12)19)24-15(11)21/h3-4,13-14,20H,5-10H2,1-2H3
Instrument: LTQ Orbitrap XL Thermo Scientific
Instrument type: LC-ESI-ITFT
Ms type: MS2
Ion mode: POSITIVE
Ionization: ESI
Fragmentation mode: HCD
Collision energy: 45 % (nominal)
Resolution: 15000
Column name: Kinetex Evo C18 2.6 um 50x2.1 mm, Phenomenex
Retention time: 1.052 min
Base peak: 350.1595
Precursor m/z: 350.1598
Precursor type: [M+H]+
m/z	relative intensity	assigned
67.0542	23	C5H7+
68.0495	20	C4H6N+
79.0543	17	C6H7+
80.0495	41	C5H6N+
81.0699	14	C6H9+
82.0652	33	C5H8N+
83.0489	9	C5H7O+
91.0543	29	C7H7+
93.0699	87	C7H9+
94.0652	110	C6H8N+
95.0493	10	C6H7O+
95.0855	8	C7H11+
96.0808	76	C6H10N+
103.0542	35	C8H7+
106.0652	20	C7H8N+
108.0808	31	C7H10N+
109.0647	21	C7H9O+
110.0601	18	C6H8NO+
110.0964	39	C7H12N+
111.044	11	C6H7O2+
118.0651	36	C8H8N+
119.073	9	C8H9N+
120.0808	638	C8H10N+
121.0649	12	C8H9O+
121.0887	26	C8H11N+
122.0965	55	C8H12N+
123.0439	14	C7H7O2+
125.0599	18	C7H9O2+
136.0754	13	C8H10NO+
136.112	7	C9H14N+
138.0913	532	C8H12NO+
139.0756	8	C8H11O2+
141.0547	31	C7H9O3+
146.0966	7	C10H12N+
148.1116	7	C10H14N+
149.0597	12	C9H9O2+
151.0748	11	C9H11O2+
164.107	115	C10H14NO+
165.0548	24	C9H9O3+
182.117	18	C10H16NO2+
192.1015	7	C11H14NO2+
220.1324	17	C13H18NO2+
322.1645	63	C17H24NO5+
350.1599	999	C18H24NO6+
