Mass spectrum: Lupanine; LC-ESI-ITFT; MS2; CE: 55%; R=15000; [M+H]+
Name: Lupanine
Name: 11-Isolupanine
Name: 7,15-diazatetracyclo[7.7.1.0^{2,7}.0^{10,15}]heptadecan-6-one
Formula: C15H24N2O
Exact mass: 248.1889
SMILES: C1CCN2CC3CC(C2C1)CN4C3CCCC4=O
InChI: InChI=1S/C15H24N2O/c18-15-6-3-5-14-11-8-12(10-17(14)15)13-4-1-2-7-16(13)9-11/h11-14H,1-10H2
Instrument: LTQ Orbitrap XL Thermo Scientific
Instrument type: LC-ESI-ITFT
Ms type: MS2
Ion mode: POSITIVE
Ionization: ESI
Fragmentation mode: CID
Collision energy: 55 % (nominal)
Resolution: 15000
Column name: Synergi Polar RP, 2.5 um 100x3.0 mm, Phenomenex
Retention time: 7.145 min
Base peak: 236.0738
Precursor m/z: 249.1961
Precursor type: [M+H]+
m/z	relative intensity	assigned
80.0494	11	C5H6N+
84.0806	12	C5H10N+
85.0649	8	C5H9O+
96.0808	134	C6H10N+
98.0964	90	C6H12N+
105.0698	10	C8H9+
112.0757	42	C6H10NO+
114.0914	247	C6H12NO+
134.0965	134	C9H12N+
136.1121	999	C9H14N+
148.1121	40	C10H14N+
150.1277	141	C10H16N+
152.1068	21	C9H14NO+
152.1432	16	C10H18N+
166.1227	34	C10H16NO+
204.1383	63	C13H18NO+
206.1547	14	C13H20NO+
231.1856	430	C15H23N2+
