Mass spectrum: Senecionine N-oxide; LC-ESI-ITFT; MS2; CE: 85%; R=15000; [M+H]+
Name: Senecionine N-oxide
Name: (1R,4Z,6R,7R,17R)-4-ethylidene-7-hydroxy-6,7-dimethyl-14-oxido-2,9-dioxa-14-azoniatricyclo[9.5.1.0^{14,17}]heptadec-11-ene-3,8-dione
Formula: C18H25NO6
Exact mass: 351.1682
SMILES: C\C=C1\C[C@@H](C)[C@@](C)(O)C(=O)OCC2=CC[N+]3([O-])CC[C@@H](OC1=O)[C@@H]23
InChI: InChI=1S/C18H25NO6/c1-4-12-9-11(2)18(3,22)17(21)24-10-13-5-7-19(23)8-6-14(15(13)19)25-16(12)20/h4-5,11,14-15,22H,6-10H2,1-3H3/b12-4-/t11-,14-,15-,18-,19?/m1/s1
Instrument: LTQ Orbitrap XL Thermo Scientific
Instrument type: LC-ESI-ITFT
Ms type: MS2
Ion mode: POSITIVE
Ionization: ESI
Fragmentation mode: CID
Collision energy: 85 % (nominal)
Resolution: 15000
Column name: Kinetex Evo C18 2.6 um 50x2.1 mm, Phenomenex
Retention time: 6.210 min
Base peak: 352.1753
Precursor m/z: 352.1755
Precursor type: [M+H]+
m/z	relative intensity	assigned
94.0651	13	C6H8N+
95.0729	11	C6H9N+
106.0652	165	C7H8N+
107.0857	7	C8H11+
108.0808	66	C7H10N+
109.0649	8	C7H9O+
112.0757	30	C6H10NO+
117.0574	111	C8H7N+
118.0652	847	C8H8N+
119.073	344	C8H9N+
120.0808	567	C8H10N+
121.0886	255	C8H11N+
122.0964	108	C8H12N+
125.0961	14	C8H13O+
126.0913	7	C7H12NO+
134.0965	23	C9H12N+
135.0807	9	C9H11O+
136.0758	237	C8H10NO+
137.0836	58	C8H11NO+
138.0913	129	C8H12NO+
139.099	16	C8H13NO+
140.107	15	C8H14NO+
148.1119	11	C10H14N+
152.107	82	C9H14NO+
153.091	55	C9H13O2+
154.0863	106	C8H12NO2+
160.1118	5	C11H14N+
162.0906	9	C10H12NO+
164.1075	9	C10H14NO+
165.0785	33	C9H11NO2+
174.0913	18	C11H12NO+
174.1278	25	C12H16N+
176.107	43	C11H14NO+
178.1227	80	C11H16NO+
190.1223	17	C12H16NO+
192.1384	32	C12H18NO+
200.1066	6	C13H14NO+
202.1227	121	C13H16NO+
204.1009	7	C12H14NO2+
218.1176	88	C13H16NO2+
218.1539	181	C14H20NO+
220.1332	999	C13H18NO2+
221.1361	20	C8H19N3O4+
228.138	22	C15H18NO+
232.1332	15	C14H18NO2+
234.149	8	C14H20NO2+
236.128	55	C13H18NO3+
246.1488	622	C15H20NO2+
248.1644	243	C15H22NO2+
254.1386	311	C13H20NO4+
262.1432	16	C15H20NO3+
262.1795	6	C16H24NO2+
276.1591	11	C16H22NO3+
290.1752	60	C17H24NO3+
306.1703	14	C17H24NO4+
307.1779	15	C17H25NO4+
308.1855	16	C17H26NO4+
318.17	13	C18H24NO4+
320.1483	24	C17H22NO5+
324.1807	877	C17H26NO5+
334.1652	142	C18H24NO5+
