Mass spectrum: Monocrotaline; LC-ESI-ITFT; MS2; CE: 85%; R=15000; [M+H]+
Name: Monocrotaline
Name: (1R,4R,5R,6R,16R)-5,6-dihydroxy-4,5,6-trimethyl-2,8-dioxa-13-azatricyclo[8.5.1.0^{13,16}]hexadec-10-ene-3,7-dione
Formula: C16H23NO6
Exact mass: 325.1525
SMILES: C[C@H]1C(=O)O[C@@H]2CCN3CC=C(COC(=O)[C@](C)(O)[C@]1(C)O)[C@H]23
InChI: InChI=1S/C16H23NO6/c1-9-13(18)23-11-5-7-17-6-4-10(12(11)17)8-22-14(19)16(3,21)15(9,2)20/h4,9,11-12,20-21H,5-8H2,1-3H3/t9-,11+,12+,15+,16-/m0/s1
Instrument: LTQ Orbitrap XL Thermo Scientific
Instrument type: LC-ESI-ITFT
Ms type: MS2
Ion mode: POSITIVE
Ionization: ESI
Fragmentation mode: HCD
Collision energy: 85 % (nominal)
Resolution: 15000
Column name: Kinetex Evo C18 2.6 um 50x2.1 mm, Phenomenex
Retention time: 0.964 min
Base peak: 326.1598
Precursor m/z: 326.1598
Precursor type: [M+H]+
m/z	relative intensity	assigned
67.0415	174	C4H5N+
68.0494	104	C4H6N+
80.0494	181	C5H6N+
82.065	71	C5H8N+
93.0574	76	C6H7N+
94.0651	639	C6H8N+
95.073	305	C6H9N+
96.0806	116	C6H10N+
106.0654	85	C7H8N+
108.0804	66	C7H10N+
120.0807	999	C8H10N+
121.0885	287	C8H11N+
122.0965	189	C8H12N+
138.0917	141	C8H12NO+
156.1016	92	C8H14NO2+
