Mass spectrum: Angustifoline; LC-ESI-ITFT; MS2; CE: 105%; R=15000; [M+H]+
Name: Angustifoline
Name: (2R,10S)-10-prop-2-enyl-7,11-diazatricyclo[7.3.1.0^{2,7}]tridecan-6-one
Formula: C14H22N2O
Exact mass: 234.1732
SMILES: C=CC[C@@H]1NCC2CC1CN1[C@@H]2CCCC1=O
InChI: InChI=1S/C14H22N2O/c1-2-4-12-11-7-10(8-15-12)13-5-3-6-14(17)16(13)9-11/h2,10-13,15H,1,3-9H2/t10?,11?,12-,13+/m0/s1
Instrument: LTQ Orbitrap XL Thermo Scientific
Instrument type: LC-ESI-ITFT
Ms type: MS2
Ion mode: POSITIVE
Ionization: ESI
Fragmentation mode: HCD
Collision energy: 105 % (nominal)
Resolution: 15000
Column name: Synergi Polar RP, 2.5 um 100x3.0 mm, Phenomenex
Retention time: 7.343 min
Base peak: 195.0836
Precursor m/z: 235.1805
Precursor type: [M+H]+
m/z	relative intensity	assigned
55.0177	162	C3H3O+
55.054	47	C4H7+
56.0493	124	C3H6N+
67.0541	134	C5H7+
70.065	101	C4H8N+
79.0541	127	C6H7+
80.0494	76	C5H6N+
81.0698	102	C6H9+
82.065	69	C5H8N+
84.0807	516	C5H10N+
91.0541	175	C7H7+
93.0698	77	C7H9+
94.0651	177	C6H8N+
95.0729	68	C6H9N+
96.0806	147	C6H10N+
98.0599	47	C5H8NO+
98.0962	40	C6H12N+
100.0753	19	C5H10NO+
105.0698	52	C8H9+
108.0806	73	C7H10N+
110.0964	38	C7H12N+
112.0756	999	C6H10NO+
114.0912	40	C6H12NO+
119.0851	38	C9H11+
120.0805	44	C8H10N+
122.0962	81	C8H12N+
134.0964	54	C9H12N+
136.1119	127	C9H14N+
138.1277	20	C9H16N+
150.0913	124	C9H12NO+
193.134	57	C11H17N2O+
