Mass spectrum: Monocrotaline N-oxide; LC-ESI-ITFT; MS2; CE: 40%; R=15000; [M+H]+
Name: Monocrotaline N-oxide
Name: (1R,4R,5R,6R,16R)-5,6-dihydroxy-4,5,6-trimethyl-13-oxido-2,8-dioxa-13-azoniatricyclo[8.5.1.0^{13,16}]hexadec-10-ene-3,7-dione
Formula: C16H23NO7
Exact mass: 341.1475
SMILES: C[C@H]1C(=O)O[C@@H]2CCN3(=O)CC=C(COC(=O)[C@](C)(O)[C@]1(C)O)[C@H]23
InChI: InChI=1S/C16H23NO7/c1-9-13(18)24-11-5-7-17(22)6-4-10(12(11)17)8-23-14(19)16(3,21)15(9,2)20/h4,9,11-12,20-21H,5-8H2,1-3H3/t9-,11+,12+,15+,16-,17?/m0/s1
Instrument: LTQ Orbitrap XL Thermo Scientific
Instrument type: LC-ESI-ITFT
Ms type: MS2
Ion mode: POSITIVE
Ionization: ESI
Fragmentation mode: CID
Collision energy: 40 % (nominal)
Resolution: 15000
Column name: Kinetex Evo C18 2.6 um 50x2.1 mm, Phenomenex
Retention time: 1.138 min
Base peak: 350.1595
Precursor m/z: 342.1547
Precursor type: [M+H]+
m/z	relative intensity	assigned
106.0654	7	C7H8N+
108.0808	17	C7H10N+
109.0651	3	C7H9O+
115.0753	4	C6H11O2+
117.0573	6	C8H7N+
118.0651	81	C8H8N+
119.073	71	C8H9N+
120.0808	153	C8H10N+
121.0885	8	C8H11N+
136.0757	50	C8H10NO+
137.0835	281	C8H11NO+
138.0913	15	C8H12NO+
140.1072	9	C8H14NO+
141.9881	3	C3N3O4+
154.0861	17	C8H12NO2+
157.0859	9	C8H13O3+
162.0913	8	C10H12NO+
163.0996	4	C10H13NO+
164.1069	6	C10H14NO+
180.102	11	C10H14NO2+
183.0895	6	C9H13NO3+
190.0869	5	C11H12NO2+
192.1021	10	C11H14NO2+
194.1176	29	C11H16NO2+
198.1121	8	C10H16NO3+
208.0967	23	C11H14NO3+
209.1046	74	C11H15NO3+
210.1126	29	C11H16NO3+
226.1074	34	C11H16NO4+
228.1227	20	C11H18NO4+
234.1124	12	C13H16NO3+
235.1203	7	C13H17NO3+
236.1281	294	C13H18NO3+
244.1179	39	C11H18NO5+
253.1308	130	C13H19NO4+
254.1387	52	C13H20NO4+
268.1179	27	C13H18NO5+
270.1336	40	C13H20NO5+
296.1493	999	C15H22NO5+
298.1638	9	C15H24NO5+
314.1599	89	C15H24NO6+
324.1441	34	C16H22NO6+
