Mass spectrum: Monocrotaline N-oxide; LC-ESI-ITFT; MS2; CE: 75%; R=15000; [M+H]+
Name: Monocrotaline N-oxide
Name: (1R,4R,5R,6R,16R)-5,6-dihydroxy-4,5,6-trimethyl-13-oxido-2,8-dioxa-13-azoniatricyclo[8.5.1.0^{13,16}]hexadec-10-ene-3,7-dione
Formula: C16H23NO7
Exact mass: 341.1475
SMILES: C[C@H]1C(=O)O[C@@H]2CCN3(=O)CC=C(COC(=O)[C@](C)(O)[C@]1(C)O)[C@H]23
InChI: InChI=1S/C16H23NO7/c1-9-13(18)24-11-5-7-17(22)6-4-10(12(11)17)8-23-14(19)16(3,21)15(9,2)20/h4,9,11-12,20-21H,5-8H2,1-3H3/t9-,11+,12+,15+,16-,17?/m0/s1
Instrument: LTQ Orbitrap XL Thermo Scientific
Instrument type: LC-ESI-ITFT
Ms type: MS2
Ion mode: POSITIVE
Ionization: ESI
Fragmentation mode: HCD
Collision energy: 75 % (nominal)
Resolution: 15000
Column name: Kinetex Evo C18 2.6 um 50x2.1 mm, Phenomenex
Retention time: 1.137 min
Base peak: 350.1595
Precursor m/z: 342.1547
Precursor type: [M+H]+
m/z	relative intensity	assigned
57.0333	91	C3H5O+
79.0544	112	C6H7+
80.0494	170	C5H6N+
81.0699	88	C6H9+
82.0651	90	C5H8N+
83.0492	214	C5H7O+
84.0445	79	C4H6NO+
91.0542	93	C7H7+
93.0573	471	C6H7N+
94.0651	765	C6H8N+
95.0729	123	C6H9N+
106.0653	133	C7H8N+
108.0808	427	C7H10N+
115.0754	203	C6H11O2+
118.0651	450	C8H8N+
119.0729	996	C8H9N+
120.0808	963	C8H10N+
136.0757	999	C8H10NO+
137.0835	864	C8H11NO+
138.0913	243	C8H12NO+
154.0862	89	C8H12NO2+
157.0857	212	C8H13O3+
236.1274	309	C13H18NO3+
