Mass spectrum: Lupinine; LC-ESI-ITFT; MS2; CE: 60%; R=15000; [M+H]+
Name: Lupinine
Name: [(1R,9aR)-2,3,4,6,7,8,9,9a-octahydro-1H-quinolizin-1-yl]methanol
Formula: C10H19NO
Exact mass: 169.1467
SMILES: OC[C@@H]1CCCN2CCCC[C@H]12
InChI: InChI=1S/C10H19NO/c12-8-9-4-3-7-11-6-2-1-5-10(9)11/h9-10,12H,1-8H2/t9-,10+/m0/s1
Instrument: LTQ Orbitrap XL Thermo Scientific
Instrument type: LC-ESI-ITFT
Ms type: MS2
Ion mode: POSITIVE
Ionization: ESI
Fragmentation mode: CID
Collision energy: 60 % (nominal)
Resolution: 15000
Column name: Synergi Polar RP, 2.5 um 100x3.0 mm, Phenomenex
Retention time: 3.957 min
Base peak: 236.0738
Precursor m/z: 170.1539
Precursor type: [M+H]+
m/z	relative intensity	assigned
67.0541	6	C5H7+
70.0651	5	C4H8N+
79.0542	9	C6H7+
84.0808	24	C5H10N+
93.0699	17	C7H9+
96.0807	10	C6H10N+
98.0964	43	C6H12N+
107.0854	6	C8H11+
109.1014	8	C8H13+
110.0963	19	C7H12N+
124.1121	82	C8H14N+
137.1199	24	C9H15N+
150.1276	14	C10H16N+
152.1433	999	C10H18N+
