Mass spectrum: Jacobine; LC-ESI-ITFT; MS2; CE: 30%; R=15000; [M+H]+
Name: Jacobine
Name: (1R,3`S,4S,6R,7R,17R)-7-hydroxy-3`,6,7-trimethylspiro[2,9-dioxa-14-azatricyclo[9.5.1.0^{14,17}]heptadec-11-ene-4,2`-oxirane]-3,8-dione
Formula: C18H25NO6
Exact mass: 351.1682
SMILES: C[C@@H]1O[C@@]11C[C@@H](C)[C@@](C)(O)C(=O)OCC2=CCN3CC[C@@H](OC1=O)[C@@H]23
InChI: InChI=1S/C18H25NO6/c1-10-8-18(11(2)25-18)16(21)24-13-5-7-19-6-4-12(14(13)19)9-23-15(20)17(10,3)22/h4,10-11,13-14,22H,5-9H2,1-3H3/t10-,11+,13-,14-,17-,18+/m1/s1
Instrument: LTQ Orbitrap XL Thermo Scientific
Instrument type: LC-ESI-ITFT
Ms type: MS2
Ion mode: POSITIVE
Ionization: ESI
Fragmentation mode: CID
Collision energy: 30 % (nominal)
Resolution: 15000
Column name: Kinetex Evo C18 2.6 um 50x2.1 mm, Phenomenex
Retention time: 1.127 min
Base peak: 195.1226
Precursor m/z: 352.1755
Precursor type: [M+H]+
m/z	relative intensity	assigned
120.0807	105	C8H10N+
122.0962	35	C8H12N+
123.1041	42	C8H13N+
155.1067	151	C9H15O2+
200.143	57	C14H18N+
204.1381	49	C13H18NO+
216.1381	40	C14H18NO+
218.1545	46	C14H20NO+
234.1481	48	C14H20NO2+
262.1439	414	C15H20NO3+
264.1597	71	C15H22NO3+
280.1543	803	C15H22NO4+
308.1492	999	C16H22NO5+
