Mass spectrum: Sparteine; LC-ESI-ITFT; MS2; CE: 115%; R=15000; [M+H]+
Name: Sparteine
Name: Lupinidine
Name: (1S,2R,9S,10S)-7,15-diazatetracyclo[7.7.1.0^{2,7}.0^{10,15}]heptadecane
Formula: C15H26N2
Exact mass: 234.2096
SMILES: C1CCN2C[C@@H]3C[C@@H](CN4CCCC[C@H]34)[C@@H]2C1
InChI: InChI=1S/C15H26N2/c1-3-7-16-11-13-9-12(14(16)5-1)10-17-8-4-2-6-15(13)17/h12-15H,1-11H2/t12-,13-,14-,15+/m0/s1
Instrument: LTQ Orbitrap XL Thermo Scientific
Instrument type: LC-ESI-ITFT
Ms type: MS2
Ion mode: POSITIVE
Ionization: ESI
Fragmentation mode: HCD
Collision energy: 115 % (nominal)
Resolution: 15000
Column name: Synergi Polar RP, 2.5 um 100x3.0 mm, Phenomenex
Retention time: 6.807 min
Base peak: 195.0839
Precursor m/z: 235.2169
Precursor type: [M+H]+
m/z	relative intensity	assigned
55.054	7	C4H7+
70.0652	35	C4H8N+
84.0808	69	C5H10N+
96.0807	10	C6H10N+
98.0965	999	C6H12N+
124.1123	6	C8H14N+
134.0962	15	C9H12N+
136.1116	4	C9H14N+
150.1276	31	C10H16N+
152.1439	7	C10H18N+
233.2012	31	C15H25N2+
235.2169	68	C15H27N2+
