Mass spectrum: 13a-Hydroxylupanin; LC-ESI-ITFT; MS2; CE: 30%; R=15000; [M+H]+
Name: 13a-Hydroxylupanin
Name: Hydroxylupanine
Name: (1S,2R,9S,10S,12S)-12-hydroxy-7,15-diazatetracyclo[7.7.1.0^{2,7}.0^{10,15}]heptadecan-6-one
Formula: C15H24N2O2
Exact mass: 264.1838
SMILES: C1C[C@@H]2[C@H]3C[C@@H](CN2C(=O)C1)[C@@H]4C[C@H](CCN4C3)O
InChI: InChI=1S/C15H24N2O2/c18-12-4-5-16-8-10-6-11(14(16)7-12)9-17-13(10)2-1-3-15(17)19/h10-14,18H,1-9H2/t10-,11-,12-,13+,14-/m0/s1
Instrument: LTQ Orbitrap XL Thermo Scientific
Instrument type: LC-ESI-ITFT
Ms type: MS2
Ion mode: POSITIVE
Ionization: ESI
Fragmentation mode: CID
Collision energy: 30 % (nominal)
Resolution: 15000
Column name: Synergi Polar RP, 2.5 um 100x3.0 mm, Phenomenex
Retention time: 5.508 min
Base peak: 107.0703
Precursor m/z: 265.1911
Precursor type: [M+H]+
m/z	relative intensity	assigned
96.0808	35	C6H10N+
114.0914	101	C6H12NO+
134.0966	27	C9H12N+
148.1122	79	C10H14N+
150.0914	49	C9H12NO+
152.1071	324	C9H14NO+
164.1071	49	C10H14NO+
166.1226	36	C10H16NO+
221.1649	16	C13H21N2O+
229.1699	39	C15H21N2+
245.165	55	C15H21N2O+
247.1805	999	C15H23N2O+
265.191	284	C15H25N2O2+
