Mass spectrum: Angustifoline; LC-ESI-ITFT; MS2; CE: 45%; R=15000; [M+H]+
Name: Angustifoline
Name: (2R,10S)-10-prop-2-enyl-7,11-diazatricyclo[7.3.1.0^{2,7}]tridecan-6-one
Formula: C14H22N2O
Exact mass: 234.1732
SMILES: C=CC[C@@H]1NCC2CC1CN1[C@@H]2CCCC1=O
InChI: InChI=1S/C14H22N2O/c1-2-4-12-11-7-10(8-15-12)13-5-3-6-14(17)16(13)9-11/h2,10-13,15H,1,3-9H2/t10?,11?,12-,13+/m0/s1
Instrument: LTQ Orbitrap XL Thermo Scientific
Instrument type: LC-ESI-ITFT
Ms type: MS2
Ion mode: POSITIVE
Ionization: ESI
Fragmentation mode: HCD
Collision energy: 45 % (nominal)
Resolution: 15000
Column name: Synergi Polar RP, 2.5 um 100x3.0 mm, Phenomenex
Retention time: 7.394 min
Base peak: 236.0738
Precursor m/z: 235.1805
Precursor type: [M+H]+
m/z	relative intensity	assigned
84.0809	4	C5H10N+
86.0962	6	C5H12N+
112.0756	37	C6H10NO+
114.0913	8	C6H12NO+
136.112	54	C9H14N+
138.1277	9	C9H16N+
150.0913	13	C9H12NO+
192.1381	6	C12H18NO+
193.1335	157	C11H17N2O+
206.154	4	C13H20NO+
217.1698	38	C14H21N2+
235.1805	999	C14H23N2O+
