Mass spectrum: Monocrotaline; LC-ESI-ITFT; MS2; CE: 60%; R=15000; [M+H]+
Name: Monocrotaline
Name: (1R,4R,5R,6R,16R)-5,6-dihydroxy-4,5,6-trimethyl-2,8-dioxa-13-azatricyclo[8.5.1.0^{13,16}]hexadec-10-ene-3,7-dione
Formula: C16H23NO6
Exact mass: 325.1525
SMILES: C[C@H]1C(=O)O[C@@H]2CCN3CC=C(COC(=O)[C@](C)(O)[C@]1(C)O)[C@H]23
InChI: InChI=1S/C16H23NO6/c1-9-13(18)23-11-5-7-17-6-4-10(12(11)17)8-22-14(19)16(3,21)15(9,2)20/h4,9,11-12,20-21H,5-8H2,1-3H3/t9-,11+,12+,15+,16-/m0/s1
Instrument: LTQ Orbitrap XL Thermo Scientific
Instrument type: LC-ESI-ITFT
Ms type: MS2
Ion mode: POSITIVE
Ionization: ESI
Fragmentation mode: CID
Collision energy: 60 % (nominal)
Resolution: 15000
Column name: Kinetex Evo C18 2.6 um 50x2.1 mm, Phenomenex
Retention time: 0.964 min
Base peak: 326.1598
Precursor m/z: 326.1598
Precursor type: [M+H]+
m/z	relative intensity	assigned
94.0651	10	C6H8N+
106.0651	15	C7H8N+
108.0808	9	C7H10N+
110.0602	8	C6H8NO+
120.0808	222	C8H10N+
121.0886	131	C8H11N+
122.0964	97	C8H12N+
136.0756	14	C8H10NO+
138.0913	36	C8H12NO+
139.0989	7	C8H13NO+
140.1069	9	C8H14NO+
146.0963	7	C10H12N+
148.1121	25	C10H14N+
164.107	192	C10H14NO+
180.1017	14	C10H14NO2+
182.1176	29	C10H16NO2+
184.0969	11	C9H14NO3+
192.1018	27	C11H14NO2+
194.1176	183	C11H16NO2+
195.1253	9	C11H17NO2+
208.0968	20	C11H14NO3+
210.1124	121	C11H16NO3+
228.123	45	C11H18NO4+
237.136	361	C13H19NO3+
238.1437	225	C13H20NO3+
252.1228	24	C13H18NO4+
254.1391	12	C13H20NO4+
280.1543	999	C15H22NO4+
298.165	90	C15H24NO5+
308.1495	31	C16H22NO5+
