Mass spectrum: Angustifoline; LC-ESI-ITFT; MS2; CE: 115%; R=15000; [M+H]+
Name: Angustifoline
Name: (2R,10S)-10-prop-2-enyl-7,11-diazatricyclo[7.3.1.0^{2,7}]tridecan-6-one
Formula: C14H22N2O
Exact mass: 234.1732
SMILES: C=CC[C@@H]1NCC2CC1CN1[C@@H]2CCCC1=O
InChI: InChI=1S/C14H22N2O/c1-2-4-12-11-7-10(8-15-12)13-5-3-6-14(17)16(13)9-11/h2,10-13,15H,1,3-9H2/t10?,11?,12-,13+/m0/s1
Instrument: LTQ Orbitrap XL Thermo Scientific
Instrument type: LC-ESI-ITFT
Ms type: MS2
Ion mode: POSITIVE
Ionization: ESI
Fragmentation mode: HCD
Collision energy: 115 % (nominal)
Resolution: 15000
Column name: Synergi Polar RP, 2.5 um 100x3.0 mm, Phenomenex
Retention time: 7.343 min
Base peak: 195.0836
Precursor m/z: 235.1805
Precursor type: [M+H]+
m/z	relative intensity	assigned
55.0178	293	C3H3O+
55.0541	112	C4H7+
56.0495	146	C3H6N+
67.0542	285	C5H7+
70.065	103	C4H8N+
79.0542	263	C6H7+
80.0495	142	C5H6N+
81.0699	84	C6H9+
82.0652	106	C5H8N+
84.0807	772	C5H10N+
91.0542	297	C7H7+
93.07	109	C7H9+
94.0651	333	C6H8N+
95.0728	94	C6H9N+
96.0807	183	C6H10N+
105.0696	81	C8H9+
108.081	155	C7H10N+
112.0757	999	C6H10NO+
120.0804	168	C8H10N+
136.112	149	C9H14N+
150.0912	127	C9H12NO+
