Mass spectrum: Erucifoline; LC-ESI-ITFT; MS2; CE: 75%; R=15000; [M+H]+
Name: Erucifoline
Name: CID 75092738
Name: 9-ethylidene-7-(hydroxymethyl)-5-methyl-3,6,11-trioxa-15-azatetracyclo[10.5.1.0^{5,7}.0^{15,18}]octadec-1(17)-ene-4,10-dione
Formula: C18H23NO6
Exact mass: 349.1525
SMILES: CC=C1CC2(C(O2)(C(=O)OCC3=CCN4C3C(CC4)OC1=O)C)CO
InChI: InChI=1S/C18H23NO6/c1-3-11-8-18(10-20)17(2,25-18)16(22)23-9-12-4-6-19-7-5-13(14(12)19)24-15(11)21/h3-4,13-14,20H,5-10H2,1-2H3
Instrument: LTQ Orbitrap XL Thermo Scientific
Instrument type: LC-ESI-ITFT
Ms type: MS2
Ion mode: POSITIVE
Ionization: ESI
Fragmentation mode: HCD
Collision energy: 75 % (nominal)
Resolution: 15000
Column name: Kinetex Evo C18 2.6 um 50x2.1 mm, Phenomenex
Retention time: 1.053 min
Base peak: 350.1596
Precursor m/z: 350.1598
Precursor type: [M+H]+
m/z	relative intensity	assigned
53.0384	49	C4H5+
55.0541	96	C4H7+
65.0385	63	C5H5+
67.0417	70	C4H5N+
67.0542	578	C5H7+
68.0494	217	C4H6N+
77.0387	168	C6H5+
79.0543	227	C6H7+
80.0495	379	C5H6N+
81.0574	97	C5H7N+
81.0699	168	C6H9+
82.0652	294	C5H8N+
83.0492	110	C5H7O+
91.0543	398	C7H7+
92.0495	78	C6H6N+
93.0574	47	C6H7N+
93.0699	323	C7H9+
94.0652	874	C6H8N+
95.0493	102	C6H7O+
95.073	89	C6H9N+
96.0808	560	C6H10N+
103.0543	163	C8H7+
105.0448	123	C6H5N2+
105.0575	43	C7H7N+
105.0698	67	C8H9+
106.0653	87	C7H8N+
108.0809	190	C7H10N+
109.0649	190	C7H9O+
110.0601	49	C6H8NO+
110.0965	139	C7H12N+
111.0442	75	C6H7O2+
118.0652	195	C8H8N+
119.073	49	C8H9N+
120.0809	999	C8H10N+
121.0648	74	C8H9O+
121.0886	90	C8H11N+
122.0965	244	C8H12N+
123.0442	62	C7H7O2+
125.06	43	C7H9O2+
134.0959	19	C9H12N+
136.0759	38	C8H10NO+
137.0594	28	C8H9O2+
138.0914	588	C8H12NO+
139.0996	18	C8H13NO+
140.1067	22	C8H14NO+
141.0549	25	C7H9O3+
146.0966	20	C10H12N+
164.1072	35	C10H14NO+
220.1334	75	C13H18NO2+
