Mass spectrum: Senecionine N-oxide; LC-ESI-ITFT; MS2; CE: 50%; R=15000; [M+H]+
Name: Senecionine N-oxide
Name: (1R,4Z,6R,7R,17R)-4-ethylidene-7-hydroxy-6,7-dimethyl-14-oxido-2,9-dioxa-14-azoniatricyclo[9.5.1.0^{14,17}]heptadec-11-ene-3,8-dione
Formula: C18H25NO6
Exact mass: 351.1682
SMILES: C\C=C1\C[C@@H](C)[C@@](C)(O)C(=O)OCC2=CC[N+]3([O-])CC[C@@H](OC1=O)[C@@H]23
InChI: InChI=1S/C18H25NO6/c1-4-12-9-11(2)18(3,22)17(21)24-10-13-5-7-19(23)8-6-14(15(13)19)25-16(12)20/h4-5,11,14-15,22H,6-10H2,1-3H3/b12-4-/t11-,14-,15-,18-,19?/m1/s1
Instrument: LTQ Orbitrap XL Thermo Scientific
Instrument type: LC-ESI-ITFT
Ms type: MS2
Ion mode: POSITIVE
Ionization: ESI
Fragmentation mode: HCD
Collision energy: 50 % (nominal)
Resolution: 15000
Column name: Kinetex Evo C18 2.6 um 50x2.1 mm, Phenomenex
Retention time: 6.177 min
Base peak: 195.0874
Precursor m/z: 352.1755
Precursor type: [M+H]+
m/z	relative intensity	assigned
53.0384	12	C4H5+
67.0541	14	C5H7+
79.0541	30	C6H7+
80.0494	48	C5H6N+
81.0698	200	C6H9+
82.0649	19	C5H8N+
84.0445	18	C4H6NO+
91.0541	31	C7H7+
93.0573	236	C6H7N+
94.0651	309	C6H8N+
95.0729	470	C6H9N+
98.0601	24	C5H8NO+
106.065	131	C7H8N+
107.0489	21	C7H7O+
107.0856	52	C8H11+
108.0807	120	C7H10N+
109.0647	89	C7H9O+
109.0886	52	C7H11N+
109.1013	27	C8H13+
110.0602	17	C6H8NO+
112.0756	80	C6H10NO+
118.0651	999	C8H8N+
119.0729	748	C8H9N+
120.0807	740	C8H10N+
121.0886	374	C8H11N+
122.0963	162	C8H12N+
125.096	62	C8H13O+
126.0916	15	C7H12NO+
135.0798	26	C9H11O+
136.0756	748	C8H10NO+
137.0834	177	C8H11NO+
138.0912	526	C8H12NO+
139.0753	28	C8H11O2+
139.0989	26	C8H13NO+
152.1071	34	C9H14NO+
153.0909	180	C9H13O2+
154.0862	283	C8H12NO2+
164.1075	15	C10H14NO+
176.107	11	C11H14NO+
178.1224	78	C11H16NO+
190.1224	18	C12H16NO+
202.1218	28	C13H16NO+
211.1336	33	C12H19O3+
218.1175	53	C13H16NO2+
218.1538	34	C14H20NO+
220.1331	408	C13H18NO2+
246.1488	112	C15H20NO2+
248.1646	97	C15H22NO2+
254.1384	51	C13H20NO4+
290.1749	29	C17H24NO3+
324.1804	108	C17H26NO5+
352.1754	965	C18H26NO6+
