Mass spectrum: Senkirkine; LC-ESI-ITFT; MS2; CE: 90%; R=15000; [M+H]+
Name: Senkirkine
Name: (1R,4Z,6R,7R,11Z)-4-Ethylidene-7-hydroxy-6,7,14-trimethyl-2,9-dioxa-14-azabicyclo[9.5.1]heptadec-11-ene-3,8,17-trione
Formula: C19H27NO6
Exact mass: 365.1838
SMILES: C/C=C\1/C[C@H]([C@@](C(=O)OC/C/2=C/CN(CC[C@H](C2=O)OC1=O)C)(C)O)C
InChI: InChI=1S/C19H27NO6/c1-5-13-10-12(2)19(3,24)18(23)25-11-14-6-8-20(4)9-7-15(16(14)21)26-17(13)22/h5-6,12,15,24H,7-11H2,1-4H3/b13-5-,14-6-/t12-,15-,19-/m1/s1
Instrument: LTQ Orbitrap XL Thermo Scientific
Instrument type: LC-ESI-ITFT
Ms type: MS2
Ion mode: POSITIVE
Ionization: ESI
Fragmentation mode: CID
Collision energy: 90 % (nominal)
Resolution: 15000
Column name: Kinetex Evo C18 2.6 um 50x2.1 mm, Phenomenex
Retention time: 6.910 min
Base peak: 366.1909
Precursor m/z: 366.1911
Precursor type: [M+H]+
m/z	relative intensity	assigned
107.073	10	C7H9N+
107.0858	6	C8H11+
117.0574	8	C8H7N+
120.0809	8	C8H10N+
122.0601	199	C7H8NO+
122.0964	100	C8H12N+
123.0678	14	C7H9NO+
124.0757	50	C7H10NO+
125.0597	48	C7H9O2+
125.0961	14	C8H13O+
132.081	9	C9H10N+
134.0599	8	C8H8NO+
135.0801	22	C9H11O+
137.0598	12	C8H9O2+
137.0834	45	C8H11NO+
137.0956	8	C9H13O+
138.0912	15	C8H12NO+
140.0704	8	C7H10NO2+
140.1065	14	C8H14NO+
150.0913	884	C9H12NO+
153.091	73	C9H13O2+
168.102	999	C9H14NO2+
181.0858	10	C10H13O3+
220.1331	27	C13H18NO2+
248.128	12	C14H18NO3+
250.1438	17	C14H20NO3+
268.1551	35	C14H22NO4+
304.1905	53	C18H26NO3+
318.1704	28	C18H24NO4+
320.1485	10	C17H22NO5+
320.1856	38	C18H26NO4+
330.1689	9	C19H24NO4+
338.1961	74	C18H28NO5+
348.1807	116	C19H26NO5+
