Mass spectrum: Lupinine; LC-ESI-ITFT; MS2; CE: 95%; R=15000; [M+H]+
Name: Lupinine
Name: [(1R,9aR)-2,3,4,6,7,8,9,9a-octahydro-1H-quinolizin-1-yl]methanol
Formula: C10H19NO
Exact mass: 169.1467
SMILES: OC[C@@H]1CCCN2CCCC[C@H]12
InChI: InChI=1S/C10H19NO/c12-8-9-4-3-7-11-6-2-1-5-10(9)11/h9-10,12H,1-8H2/t9-,10+/m0/s1
Instrument: LTQ Orbitrap XL Thermo Scientific
Instrument type: LC-ESI-ITFT
Ms type: MS2
Ion mode: POSITIVE
Ionization: ESI
Fragmentation mode: HCD
Collision energy: 95 % (nominal)
Resolution: 15000
Column name: Synergi Polar RP, 2.5 um 100x3.0 mm, Phenomenex
Retention time: 3.957 min
Base peak: 236.0738
Precursor m/z: 170.1539
Precursor type: [M+H]+
m/z	relative intensity	assigned
55.0541	22	C4H7+
67.0542	26	C5H7+
69.0698	16	C5H9+
70.0651	29	C4H8N+
79.0543	19	C6H7+
81.0698	52	C6H9+
82.065	9	C5H8N+
84.0807	63	C5H10N+
93.0698	23	C7H9+
96.0807	48	C6H10N+
97.0885	14	C6H11N+
98.0963	53	C6H12N+
109.1011	7	C8H13+
110.0965	37	C7H12N+
122.0966	19	C8H12N+
124.112	120	C8H14N+
136.112	25	C9H14N+
137.1198	53	C9H15N+
150.1276	12	C10H16N+
152.1433	335	C10H18N+
170.1539	999	C10H20NO+
