Mass spectrum: Senkirkine; LC-ESI-ITFT; MS2; CE: 55%; R=15000; [M+H]+
Name: Senkirkine
Name: (1R,4Z,6R,7R,11Z)-4-Ethylidene-7-hydroxy-6,7,14-trimethyl-2,9-dioxa-14-azabicyclo[9.5.1]heptadec-11-ene-3,8,17-trione
Formula: C19H27NO6
Exact mass: 365.1838
SMILES: C/C=C\1/C[C@H]([C@@](C(=O)OC/C/2=C/CN(CC[C@H](C2=O)OC1=O)C)(C)O)C
InChI: InChI=1S/C19H27NO6/c1-5-13-10-12(2)19(3,24)18(23)25-11-14-6-8-20(4)9-7-15(16(14)21)26-17(13)22/h5-6,12,15,24H,7-11H2,1-4H3/b13-5-,14-6-/t12-,15-,19-/m1/s1
Instrument: LTQ Orbitrap XL Thermo Scientific
Instrument type: LC-ESI-ITFT
Ms type: MS2
Ion mode: POSITIVE
Ionization: ESI
Fragmentation mode: HCD
Collision energy: 55 % (nominal)
Resolution: 15000
Column name: Kinetex Evo C18 2.6 um 50x2.1 mm, Phenomenex
Retention time: 6.922 min
Base peak: 366.191
Precursor m/z: 366.1911
Precursor type: [M+H]+
m/z	relative intensity	assigned
53.0386	4	C4H5+
55.0541	15	C4H7+
67.0542	8	C5H7+
70.0651	131	C4H8N+
79.0543	24	C6H7+
81.0699	20	C6H9+
83.0492	28	C5H7O+
91.0543	4	C7H7+
93.0696	6	C7H9+
94.0652	31	C6H8N+
95.0493	4	C6H7O+
96.0808	18	C6H10N+
97.0649	13	C6H9O+
98.06	8	C5H8NO+
99.0443	7	C5H7O2+
101.0597	35	C5H9O2+
107.0491	164	C7H7O+
107.0855	91	C8H11+
108.0808	8	C7H10N+
109.0647	18	C7H9O+
109.1012	32	C8H13+
110.0599	10	C6H8NO+
112.0755	3	C6H10NO+
116.0707	21	C5H10NO2+
120.0807	14	C8H10N+
122.0601	264	C7H8NO+
122.0964	79	C8H12N+
123.0632	13	C2H9N3O3+
123.0678	27	C7H9NO+
124.0757	50	C7H10NO+
125.0597	62	C7H9O2+
125.084	5	C7H11NO+
125.0961	97	C8H13O+
135.0805	76	C9H11O+
137.0598	4	C8H9O2+
137.0837	11	C8H11NO+
137.0962	14	C9H13O+
138.0914	7	C8H12NO+
140.0705	34	C7H10NO2+
140.1068	15	C8H14NO+
150.0913	285	C9H12NO+
152.107	4	C9H14NO+
153.091	164	C9H13O2+
154.0943	8	C4H14N2O4+
163.0756	4	C10H11O2+
166.0864	4	C9H12NO2+
168.1019	999	C9H14NO2+
169.1052	57	C4H15N3O4+
181.0861	11	C10H13O3+
250.1447	4	C14H20NO3+
268.1536	4	C14H22NO4+
304.1909	6	C18H26NO3+
366.1911	86	C19H28NO6+
