Mass spectrum: 13a-Hydroxylupanin; LC-ESI-ITFT; MS2; CE: 65%; R=15000; [M+H]+
Name: 13a-Hydroxylupanin
Name: Hydroxylupanine
Name: (1S,2R,9S,10S,12S)-12-hydroxy-7,15-diazatetracyclo[7.7.1.0^{2,7}.0^{10,15}]heptadecan-6-one
Formula: C15H24N2O2
Exact mass: 264.1838
SMILES: C1C[C@@H]2[C@H]3C[C@@H](CN2C(=O)C1)[C@@H]4C[C@H](CCN4C3)O
InChI: InChI=1S/C15H24N2O2/c18-12-4-5-16-8-10-6-11(14(16)7-12)9-17-13(10)2-1-3-15(17)19/h10-14,18H,1-9H2/t10-,11-,12-,13+,14-/m0/s1
Instrument: LTQ Orbitrap XL Thermo Scientific
Instrument type: LC-ESI-ITFT
Ms type: MS2
Ion mode: POSITIVE
Ionization: ESI
Fragmentation mode: CID
Collision energy: 65 % (nominal)
Resolution: 15000
Column name: Synergi Polar RP, 2.5 um 100x3.0 mm, Phenomenex
Retention time: 5.228 min
Base peak: 236.0739
Precursor m/z: 265.1911
Precursor type: [M+H]+
m/z	relative intensity	assigned
70.065	3	C4H8N+
79.0543	3	C6H7+
82.0655	3	C5H8N+
84.0808	6	C5H10N+
85.0651	3	C5H9O+
91.0544	6	C7H7+
93.0697	3	C7H9+
94.0651	5	C6H8N+
96.0808	40	C6H10N+
98.06	3	C5H8NO+
98.0965	6	C6H12N+
100.0755	2	C5H10NO+
105.0701	2	C8H9+
108.0809	14	C7H10N+
110.0964	20	C7H12N+
112.0757	37	C6H10NO+
114.0914	94	C6H12NO+
119.0853	6	C9H11+
120.0809	3	C8H10N+
122.0966	9	C8H12N+
124.0755	2	C7H10NO+
124.1122	10	C8H14N+
131.0855	4	C10H11+
132.0814	4	C9H10N+
134.0965	38	C9H12N+
136.0762	2	C8H10NO+
136.1119	3	C9H14N+
146.0964	4	C10H12N+
148.1122	94	C10H14N+
150.0914	58	C9H12NO+
150.1278	17	C10H16N+
152.1071	343	C9H14NO+
162.0914	25	C10H12NO+
162.1278	3	C11H16N+
164.107	59	C10H14NO+
166.1227	43	C10H16NO+
168.1387	5	C10H18NO+
176.107	14	C11H14NO+
176.1434	2	C12H18N+
178.1228	8	C11H16NO+
190.122	3	C12H16NO+
193.1336	25	C11H17N2O+
204.1383	21	C13H18NO+
207.1494	14	C12H19N2O+
216.1389	3	C14H18NO+
221.1649	21	C13H21N2O+
222.1493	7	C13H20NO2+
229.1701	47	C15H21N2+
245.1652	60	C15H21N2O+
247.1806	999	C15H23N2O+
