Mass spectrum: Monocrotaline; LC-ESI-ITFT; MS2; CE: 40%; R=15000; [M+H]+
Name: Monocrotaline
Name: (1R,4R,5R,6R,16R)-5,6-dihydroxy-4,5,6-trimethyl-2,8-dioxa-13-azatricyclo[8.5.1.0^{13,16}]hexadec-10-ene-3,7-dione
Formula: C16H23NO6
Exact mass: 325.1525
SMILES: C[C@H]1C(=O)O[C@@H]2CCN3CC=C(COC(=O)[C@](C)(O)[C@]1(C)O)[C@H]23
InChI: InChI=1S/C16H23NO6/c1-9-13(18)23-11-5-7-17-6-4-10(12(11)17)8-22-14(19)16(3,21)15(9,2)20/h4,9,11-12,20-21H,5-8H2,1-3H3/t9-,11+,12+,15+,16-/m0/s1
Instrument: LTQ Orbitrap XL Thermo Scientific
Instrument type: LC-ESI-ITFT
Ms type: MS2
Ion mode: POSITIVE
Ionization: ESI
Fragmentation mode: CID
Collision energy: 40 % (nominal)
Resolution: 15000
Column name: Kinetex Evo C18 2.6 um 50x2.1 mm, Phenomenex
Retention time: 0.963 min
Base peak: 326.1597
Precursor m/z: 326.1598
Precursor type: [M+H]+
m/z	relative intensity	assigned
94.0652	11	C6H8N+
106.0651	15	C7H8N+
108.0808	9	C7H10N+
110.06	9	C6H8NO+
120.0808	220	C8H10N+
121.0886	131	C8H11N+
122.0964	85	C8H12N+
136.0757	15	C8H10NO+
136.1121	7	C9H14N+
138.0913	36	C8H12NO+
139.0993	9	C8H13NO+
140.1068	10	C8H14NO+
146.0965	9	C10H12N+
148.1121	22	C10H14N+
156.102	3	C8H14NO2+
164.107	194	C10H14NO+
166.0861	7	C9H12NO2+
180.1019	15	C10H14NO2+
182.1175	26	C10H16NO2+
184.0969	12	C9H14NO3+
192.1019	24	C11H14NO2+
194.1176	182	C11H16NO2+
195.1255	7	C11H17NO2+
208.0969	16	C11H14NO3+
210.1125	126	C11H16NO3+
212.1278	5	C11H18NO3+
228.1231	53	C11H18NO4+
237.136	364	C13H19NO3+
238.1438	216	C13H20NO3+
252.1229	20	C13H18NO4+
254.1389	10	C13H20NO4+
280.1543	999	C15H22NO4+
298.165	89	C15H24NO5+
308.1495	31	C16H22NO5+
