Mass spectrum: 13a-Hydroxylupanin; LC-ESI-ITFT; MS2; CE: 45%; R=15000; [M+H]+
Name: 13a-Hydroxylupanin
Name: Hydroxylupanine
Name: (1S,2R,9S,10S,12S)-12-hydroxy-7,15-diazatetracyclo[7.7.1.0^{2,7}.0^{10,15}]heptadecan-6-one
Formula: C15H24N2O2
Exact mass: 264.1838
SMILES: C1C[C@@H]2[C@H]3C[C@@H](CN2C(=O)C1)[C@@H]4C[C@H](CCN4C3)O
InChI: InChI=1S/C15H24N2O2/c18-12-4-5-16-8-10-6-11(14(16)7-12)9-17-13(10)2-1-3-15(17)19/h10-14,18H,1-9H2/t10-,11-,12-,13+,14-/m0/s1
Instrument: LTQ Orbitrap XL Thermo Scientific
Instrument type: LC-ESI-ITFT
Ms type: MS2
Ion mode: POSITIVE
Ionization: ESI
Fragmentation mode: CID
Collision energy: 45 % (nominal)
Resolution: 15000
Column name: Synergi Polar RP, 2.5 um 100x3.0 mm, Phenomenex
Retention time: 5.416 min
Base peak: 236.0739
Precursor m/z: 265.1911
Precursor type: [M+H]+
m/z	relative intensity	assigned
94.0651	6	C6H8N+
96.0808	35	C6H10N+
98.0961	7	C6H12N+
110.0963	21	C7H12N+
112.0756	32	C6H10NO+
114.0913	89	C6H12NO+
122.0962	9	C8H12N+
124.1119	10	C8H14N+
134.0963	28	C9H12N+
148.1121	94	C10H14N+
150.0912	54	C9H12NO+
150.1277	16	C10H16N+
152.1069	341	C9H14NO+
162.0914	25	C10H12NO+
164.1069	52	C10H14NO+
166.1225	36	C10H16NO+
176.1068	14	C11H14NO+
193.1335	24	C11H17N2O+
204.1381	19	C13H18NO+
207.1495	15	C12H19N2O+
221.1653	21	C13H21N2O+
229.1698	49	C15H21N2+
245.1649	61	C15H21N2O+
247.1804	999	C15H23N2O+
