Mass spectrum: Lupinine; LC-ESI-ITFT; MS2; CE: 115%; R=15000; [M+H]+
Name: Lupinine
Name: [(1R,9aR)-2,3,4,6,7,8,9,9a-octahydro-1H-quinolizin-1-yl]methanol
Formula: C10H19NO
Exact mass: 169.1467
SMILES: OC[C@@H]1CCCN2CCCC[C@H]12
InChI: InChI=1S/C10H19NO/c12-8-9-4-3-7-11-6-2-1-5-10(9)11/h9-10,12H,1-8H2/t9-,10+/m0/s1
Instrument: LTQ Orbitrap XL Thermo Scientific
Instrument type: LC-ESI-ITFT
Ms type: MS2
Ion mode: POSITIVE
Ionization: ESI
Fragmentation mode: HCD
Collision energy: 115 % (nominal)
Resolution: 15000
Column name: Synergi Polar RP, 2.5 um 100x3.0 mm, Phenomenex
Retention time: 3.846 min
Base peak: 236.074
Precursor m/z: 170.1539
Precursor type: [M+H]+
m/z	relative intensity	assigned
55.0541	162	C4H7+
56.0494	52	C3H6N+
67.0542	211	C5H7+
69.0699	100	C5H9+
70.0651	169	C4H8N+
79.0542	157	C6H7+
81.0699	282	C6H9+
82.0651	129	C5H8N+
83.0732	27	C5H9N+
84.0808	262	C5H10N+
91.0544	63	C7H7+
93.0698	100	C7H9+
95.0855	25	C7H11+
96.0808	334	C6H10N+
97.0887	56	C6H11N+
98.0964	187	C6H12N+
107.0856	35	C8H11+
110.0964	145	C7H12N+
122.0963	156	C8H12N+
124.112	488	C8H14N+
136.1121	253	C9H14N+
137.1199	194	C9H15N+
150.1271	25	C10H16N+
152.1435	575	C10H18N+
170.154	999	C10H20NO+
