Mass spectrum: 13a-Hydroxylupanin; LC-ESI-ITFT; MS2; CE: 70%; R=15000; [M+H]+
Name: 13a-Hydroxylupanin
Name: Hydroxylupanine
Name: (1S,2R,9S,10S,12S)-12-hydroxy-7,15-diazatetracyclo[7.7.1.0^{2,7}.0^{10,15}]heptadecan-6-one
Formula: C15H24N2O2
Exact mass: 264.1838
SMILES: C1C[C@@H]2[C@H]3C[C@@H](CN2C(=O)C1)[C@@H]4C[C@H](CCN4C3)O
InChI: InChI=1S/C15H24N2O2/c18-12-4-5-16-8-10-6-11(14(16)7-12)9-17-13(10)2-1-3-15(17)19/h10-14,18H,1-9H2/t10-,11-,12-,13+,14-/m0/s1
Instrument: LTQ Orbitrap XL Thermo Scientific
Instrument type: LC-ESI-ITFT
Ms type: MS2
Ion mode: POSITIVE
Ionization: ESI
Fragmentation mode: HCD
Collision energy: 70 % (nominal)
Resolution: 15000
Column name: Synergi Polar RP, 2.5 um 100x3.0 mm, Phenomenex
Retention time: 5.228 min
Base peak: 236.0739
Precursor m/z: 265.1911
Precursor type: [M+H]+
m/z	relative intensity	assigned
70.0651	17	C4H8N+
84.0806	4	C5H10N+
85.0648	10	C5H9O+
96.0808	9	C6H10N+
98.0605	3	C5H8NO+
98.0964	7	C6H12N+
112.0756	27	C6H10NO+
114.0914	176	C6H12NO+
134.0963	7	C9H12N+
148.112	24	C10H14N+
150.0914	13	C9H12NO+
152.107	161	C9H14NO+
158.1647	4	C8H20N3+
164.1063	4	C10H14NO+
166.1227	12	C10H16NO+
168.1388	4	C10H18NO+
221.1654	4	C13H21N2O+
245.165	19	C15H21N2O+
247.1805	81	C15H23N2O+
265.1911	999	C15H25N2O2+
