Mass spectrum: Jacobine; LC-ESI-ITFT; MS2; CE: 60%; R=15000; [M+H]+
Name: Jacobine
Name: (1R,3`S,4S,6R,7R,17R)-7-hydroxy-3`,6,7-trimethylspiro[2,9-dioxa-14-azatricyclo[9.5.1.0^{14,17}]heptadec-11-ene-4,2`-oxirane]-3,8-dione
Formula: C18H25NO6
Exact mass: 351.1682
SMILES: C[C@@H]1O[C@@]11C[C@@H](C)[C@@](C)(O)C(=O)OCC2=CCN3CC[C@@H](OC1=O)[C@@H]23
InChI: InChI=1S/C18H25NO6/c1-10-8-18(11(2)25-18)16(21)24-13-5-7-19-6-4-12(14(13)19)9-23-15(20)17(10,3)22/h4,10-11,13-14,22H,5-9H2,1-3H3/t10-,11+,13-,14-,17-,18+/m1/s1
Instrument: LTQ Orbitrap XL Thermo Scientific
Instrument type: LC-ESI-ITFT
Ms type: MS2
Ion mode: POSITIVE
Ionization: ESI
Fragmentation mode: CID
Collision energy: 60 % (nominal)
Resolution: 15000
Column name: Kinetex Evo C18 2.6 um 50x2.1 mm, Phenomenex
Retention time: 1.303 min
Base peak: 352.1752
Precursor m/z: 352.1755
Precursor type: [M+H]+
m/z	relative intensity	assigned
108.081	3	C7H10N+
115.0754	8	C6H11O2+
120.0808	121	C8H10N+
122.0964	45	C8H12N+
123.1043	54	C8H13N+
138.0914	8	C8H12NO+
140.107	13	C8H14NO+
146.0965	11	C10H12N+
148.0757	9	C9H10NO+
155.1067	167	C9H15O2+
162.0913	50	C10H12NO+
173.1202	4	C12H15N+
174.1276	12	C12H16N+
190.0858	8	C11H12NO2+
200.1433	56	C14H18N+
201.1119	7	C10H17O4+
204.1383	54	C13H18NO+
211.0964	15	C11H15O4+
216.1383	47	C14H18NO+
218.1538	47	C14H20NO+
234.1488	84	C14H20NO2+
244.1332	23	C15H18NO2+
250.1428	7	C14H20NO3+
262.1437	364	C15H20NO3+
264.1593	64	C15H22NO3+
280.1543	763	C15H22NO4+
290.1377	15	C16H20NO4+
306.1697	13	C17H24NO4+
308.1493	999	C16H22NO5+
324.1804	44	C17H26NO5+
