Mass spectrum: Senkirkine; LC-ESI-ITFT; MS2; CE: 75%; R=15000; [M+H]+
Name: Senkirkine
Name: (1R,4Z,6R,7R,11Z)-4-Ethylidene-7-hydroxy-6,7,14-trimethyl-2,9-dioxa-14-azabicyclo[9.5.1]heptadec-11-ene-3,8,17-trione
Formula: C19H27NO6
Exact mass: 365.1838
SMILES: C/C=C\1/C[C@H]([C@@](C(=O)OC/C/2=C/CN(CC[C@H](C2=O)OC1=O)C)(C)O)C
InChI: InChI=1S/C19H27NO6/c1-5-13-10-12(2)19(3,24)18(23)25-11-14-6-8-20(4)9-7-15(16(14)21)26-17(13)22/h5-6,12,15,24H,7-11H2,1-4H3/b13-5-,14-6-/t12-,15-,19-/m1/s1
Instrument: LTQ Orbitrap XL Thermo Scientific
Instrument type: LC-ESI-ITFT
Ms type: MS2
Ion mode: POSITIVE
Ionization: ESI
Fragmentation mode: HCD
Collision energy: 75 % (nominal)
Resolution: 15000
Column name: Kinetex Evo C18 2.6 um 50x2.1 mm, Phenomenex
Retention time: 6.949 min
Base peak: 366.1909
Precursor m/z: 366.1911
Precursor type: [M+H]+
m/z	relative intensity	assigned
55.0541	26	C4H7+
67.0542	36	C5H7+
70.065	494	C4H8N+
77.0386	20	C6H5+
79.0542	139	C6H7+
81.0699	62	C6H9+
83.0492	30	C5H7O+
91.0543	31	C7H7+
94.0651	167	C6H8N+
95.0491	58	C6H7O+
96.0808	46	C6H10N+
97.0647	29	C6H9O+
105.0697	20	C8H9+
107.0491	226	C7H7O+
107.0729	38	C7H9N+
107.0855	154	C8H11+
109.0647	26	C7H9O+
109.101	30	C8H13+
110.06	89	C6H8NO+
116.0711	16	C5H10NO2+
120.0809	29	C8H10N+
122.06	428	C7H8NO+
122.0964	101	C8H12N+
123.0677	32	C7H9NO+
124.0756	44	C7H10NO+
125.0597	76	C7H9O2+
125.096	84	C8H13O+
135.0804	70	C9H11O+
137.083	24	C8H11NO+
140.0705	238	C7H10NO2+
150.0913	117	C9H12NO+
153.091	25	C9H13O2+
168.1019	999	C9H14NO2+
