Mass spectrum: 13a-Hydroxylupanin; LC-ESI-ITFT; MS2; CE: 90%; R=15000; [M+H]+
Name: 13a-Hydroxylupanin
Name: Hydroxylupanine
Name: (1S,2R,9S,10S,12S)-12-hydroxy-7,15-diazatetracyclo[7.7.1.0^{2,7}.0^{10,15}]heptadecan-6-one
Formula: C15H24N2O2
Exact mass: 264.1838
SMILES: C1C[C@@H]2[C@H]3C[C@@H](CN2C(=O)C1)[C@@H]4C[C@H](CCN4C3)O
InChI: InChI=1S/C15H24N2O2/c18-12-4-5-16-8-10-6-11(14(16)7-12)9-17-13(10)2-1-3-15(17)19/h10-14,18H,1-9H2/t10-,11-,12-,13+,14-/m0/s1
Instrument: LTQ Orbitrap XL Thermo Scientific
Instrument type: LC-ESI-ITFT
Ms type: MS2
Ion mode: POSITIVE
Ionization: ESI
Fragmentation mode: HCD
Collision energy: 90 % (nominal)
Resolution: 15000
Column name: Synergi Polar RP, 2.5 um 100x3.0 mm, Phenomenex
Retention time: 5.228 min
Base peak: 236.0739
Precursor m/z: 265.1911
Precursor type: [M+H]+
m/z	relative intensity	assigned
56.0494	13	C3H6N+
58.0651	21	C3H8N+
70.0651	109	C4H8N+
79.0544	12	C6H7+
82.0649	17	C5H8N+
84.0808	75	C5H10N+
85.0648	59	C5H9O+
91.0542	10	C7H7+
93.0699	7	C7H9+
94.0651	18	C6H8N+
96.0808	38	C6H10N+
98.06	24	C5H8NO+
98.0965	31	C6H12N+
100.0757	11	C5H10NO+
105.0702	13	C8H9+
108.0807	30	C7H10N+
110.0965	19	C7H12N+
112.0757	186	C6H10NO+
114.0913	287	C6H12NO+
120.0809	15	C8H10N+
122.0965	45	C8H12N+
124.112	25	C8H14N+
132.0812	10	C9H10N+
134.0963	69	C9H12N+
136.1121	10	C9H14N+
146.0964	8	C10H12N+
148.112	117	C10H14N+
150.0913	48	C9H12NO+
150.1278	23	C10H16N+
152.107	230	C9H14NO+
162.0913	15	C10H12NO+
164.1069	33	C10H14NO+
166.1226	63	C10H16NO+
176.107	16	C11H14NO+
178.1222	16	C11H16NO+
193.1339	21	C11H17N2O+
204.1384	7	C13H18NO+
207.1491	9	C12H19N2O+
245.1651	34	C15H21N2O+
247.1805	67	C15H23N2O+
265.191	999	C15H25N2O2+
