Mass spectrum: Jacobine; LC-ESI-ITFT; MS2; CE: 45%; R=15000; [M+H]+
Name: Jacobine
Name: (1R,3`S,4S,6R,7R,17R)-7-hydroxy-3`,6,7-trimethylspiro[2,9-dioxa-14-azatricyclo[9.5.1.0^{14,17}]heptadec-11-ene-4,2`-oxirane]-3,8-dione
Formula: C18H25NO6
Exact mass: 351.1682
SMILES: C[C@@H]1O[C@@]11C[C@@H](C)[C@@](C)(O)C(=O)OCC2=CCN3CC[C@@H](OC1=O)[C@@H]23
InChI: InChI=1S/C18H25NO6/c1-10-8-18(11(2)25-18)16(21)24-13-5-7-19-6-4-12(14(13)19)9-23-15(20)17(10,3)22/h4,10-11,13-14,22H,5-9H2,1-3H3/t10-,11+,13-,14-,17-,18+/m1/s1
Instrument: LTQ Orbitrap XL Thermo Scientific
Instrument type: LC-ESI-ITFT
Ms type: MS2
Ion mode: POSITIVE
Ionization: ESI
Fragmentation mode: HCD
Collision energy: 45 % (nominal)
Resolution: 15000
Column name: Kinetex Evo C18 2.6 um 50x2.1 mm, Phenomenex
Retention time: 1.310 min
Base peak: 352.1753
Precursor m/z: 352.1755
Precursor type: [M+H]+
m/z	relative intensity	assigned
70.0652	105	C4H8N+
79.0542	35	C6H7+
80.0496	269	C5H6N+
93.0699	97	C7H9+
94.0651	137	C6H8N+
105.0698	61	C8H9+
108.0811	52	C7H10N+
113.0599	61	C6H9O2+
115.0752	59	C6H11O2+
120.0808	999	C8H10N+
121.0887	45	C8H11N+
122.0964	750	C8H12N+
123.1043	671	C8H13N+
138.0912	103	C8H12NO+
140.107	145	C8H14NO+
155.1068	609	C9H15O2+
162.0915	132	C10H12NO+
165.0911	45	C10H13O2+
183.1015	82	C10H15O3+
200.1434	50	C14H18N+
216.1381	38	C14H18NO+
218.1545	59	C14H20NO+
234.149	203	C14H20NO2+
244.1332	31	C15H18NO2+
262.1439	402	C15H20NO3+
264.1601	100	C15H22NO3+
280.1544	812	C15H22NO4+
308.1496	242	C16H22NO5+
324.1819	41	C17H26NO5+
352.1757	815	C18H26NO6+
