Mass spectrum: Monocrotaline; LC-ESI-ITFT; MS2; CE: 55%; R=15000; [M+H]+
Name: Monocrotaline
Name: (1R,4R,5R,6R,16R)-5,6-dihydroxy-4,5,6-trimethyl-2,8-dioxa-13-azatricyclo[8.5.1.0^{13,16}]hexadec-10-ene-3,7-dione
Formula: C16H23NO6
Exact mass: 325.1525
SMILES: C[C@H]1C(=O)O[C@@H]2CCN3CC=C(COC(=O)[C@](C)(O)[C@]1(C)O)[C@H]23
InChI: InChI=1S/C16H23NO6/c1-9-13(18)23-11-5-7-17-6-4-10(12(11)17)8-22-14(19)16(3,21)15(9,2)20/h4,9,11-12,20-21H,5-8H2,1-3H3/t9-,11+,12+,15+,16-/m0/s1
Instrument: LTQ Orbitrap XL Thermo Scientific
Instrument type: LC-ESI-ITFT
Ms type: MS2
Ion mode: POSITIVE
Ionization: ESI
Fragmentation mode: HCD
Collision energy: 55 % (nominal)
Resolution: 15000
Column name: Kinetex Evo C18 2.6 um 50x2.1 mm, Phenomenex
Retention time: 0.963 min
Base peak: 326.1597
Precursor m/z: 326.1598
Precursor type: [M+H]+
m/z	relative intensity	assigned
94.0651	155	C6H8N+
95.0729	153	C6H9N+
108.0807	19	C7H10N+
120.0808	501	C8H10N+
121.0886	999	C8H11N+
122.0963	130	C8H12N+
138.0913	167	C8H12NO+
139.0994	31	C8H13NO+
140.1067	25	C8H14NO+
156.1014	25	C8H14NO2+
164.1068	125	C10H14NO+
184.0966	51	C9H14NO3+
194.1174	234	C11H16NO2+
195.1251	54	C11H17NO2+
210.1126	30	C11H16NO3+
212.1285	19	C11H18NO3+
237.1359	279	C13H19NO3+
238.1439	57	C13H20NO3+
280.1543	113	C15H22NO4+
298.1653	52	C15H24NO5+
326.1598	457	C16H24NO6+
