Mass spectrum: Angustifoline; LC-ESI-ITFT; MS2; CE: 40%; R=15000; [M+H]+
Name: Angustifoline
Name: (2R,10S)-10-prop-2-enyl-7,11-diazatricyclo[7.3.1.0^{2,7}]tridecan-6-one
Formula: C14H22N2O
Exact mass: 234.1732
SMILES: C=CC[C@@H]1NCC2CC1CN1[C@@H]2CCCC1=O
InChI: InChI=1S/C14H22N2O/c1-2-4-12-11-7-10(8-15-12)13-5-3-6-14(17)16(13)9-11/h2,10-13,15H,1,3-9H2/t10?,11?,12-,13+/m0/s1
Instrument: LTQ Orbitrap XL Thermo Scientific
Instrument type: LC-ESI-ITFT
Ms type: MS2
Ion mode: POSITIVE
Ionization: ESI
Fragmentation mode: HCD
Collision energy: 40 % (nominal)
Resolution: 15000
Column name: Synergi Polar RP, 2.5 um 100x3.0 mm, Phenomenex
Retention time: 7.381 min
Base peak: 236.0737
Precursor m/z: 235.1805
Precursor type: [M+H]+
m/z	relative intensity	assigned
112.0756	12	C6H10NO+
136.112	20	C9H14N+
138.1278	4	C9H16N+
150.0911	7	C9H12NO+
193.1335	78	C11H17N2O+
217.1698	20	C14H21N2+
235.1804	999	C14H23N2O+
