Mass spectrum: Monocrotaline N-oxide; LC-ESI-ITFT; MS2; CE: 50%; R=15000; [M+H]+
Name: Monocrotaline N-oxide
Name: (1R,4R,5R,6R,16R)-5,6-dihydroxy-4,5,6-trimethyl-13-oxido-2,8-dioxa-13-azoniatricyclo[8.5.1.0^{13,16}]hexadec-10-ene-3,7-dione
Formula: C16H23NO7
Exact mass: 341.1475
SMILES: C[C@H]1C(=O)O[C@@H]2CCN3(=O)CC=C(COC(=O)[C@](C)(O)[C@]1(C)O)[C@H]23
InChI: InChI=1S/C16H23NO7/c1-9-13(18)24-11-5-7-17(22)6-4-10(12(11)17)8-23-14(19)16(3,21)15(9,2)20/h4,9,11-12,20-21H,5-8H2,1-3H3/t9-,11+,12+,15+,16-,17?/m0/s1
Instrument: LTQ Orbitrap XL Thermo Scientific
Instrument type: LC-ESI-ITFT
Ms type: MS2
Ion mode: POSITIVE
Ionization: ESI
Fragmentation mode: HCD
Collision energy: 50 % (nominal)
Resolution: 15000
Column name: Kinetex Evo C18 2.6 um 50x2.1 mm, Phenomenex
Retention time: 1.200 min
Base peak: 342.1544
Precursor m/z: 342.1547
Precursor type: [M+H]+
m/z	relative intensity	assigned
94.0651	53	C6H8N+
118.0653	120	C8H8N+
119.0729	314	C8H9N+
120.0807	200	C8H10N+
136.0756	148	C8H10NO+
137.0834	999	C8H11NO+
138.0913	64	C8H12NO+
154.0863	46	C8H12NO2+
210.1119	41	C11H16NO3+
236.128	253	C13H18NO3+
253.1308	99	C13H19NO4+
296.1506	79	C15H22NO5+
342.1549	753	C16H24NO7+
