Mass spectrum: Monocrotaline; LC-ESI-ITFT; MS2; CE: 30%; R=15000; [M+H]+
Name: Monocrotaline
Name: (1R,4R,5R,6R,16R)-5,6-dihydroxy-4,5,6-trimethyl-2,8-dioxa-13-azatricyclo[8.5.1.0^{13,16}]hexadec-10-ene-3,7-dione
Formula: C16H23NO6
Exact mass: 325.1525
SMILES: C[C@H]1C(=O)O[C@@H]2CCN3CC=C(COC(=O)[C@](C)(O)[C@]1(C)O)[C@H]23
InChI: InChI=1S/C16H23NO6/c1-9-13(18)23-11-5-7-17-6-4-10(12(11)17)8-22-14(19)16(3,21)15(9,2)20/h4,9,11-12,20-21H,5-8H2,1-3H3/t9-,11+,12+,15+,16-/m0/s1
Instrument: LTQ Orbitrap XL Thermo Scientific
Instrument type: LC-ESI-ITFT
Ms type: MS2
Ion mode: POSITIVE
Ionization: ESI
Fragmentation mode: CID
Collision energy: 30 % (nominal)
Resolution: 15000
Column name: Kinetex Evo C18 2.6 um 50x2.1 mm, Phenomenex
Retention time: 0.865 min
Base peak: 326.1599
Precursor m/z: 326.1598
Precursor type: [M+H]+
m/z	relative intensity	assigned
94.065	10	C6H8N+
106.0652	13	C7H8N+
108.0808	6	C7H10N+
120.0808	218	C8H10N+
121.0886	126	C8H11N+
122.0964	91	C8H12N+
136.0757	18	C8H10NO+
138.0913	33	C8H12NO+
140.1068	8	C8H14NO+
146.0966	7	C10H12N+
148.1121	20	C10H14N+
164.107	180	C10H14NO+
166.0862	5	C9H12NO2+
174.0912	9	C11H12NO+
180.102	13	C10H14NO2+
182.1176	32	C10H16NO2+
184.0967	11	C9H14NO3+
192.1019	26	C11H14NO2+
194.1176	167	C11H16NO2+
208.0968	15	C11H14NO3+
210.1125	125	C11H16NO3+
212.1278	6	C11H18NO3+
228.123	52	C11H18NO4+
237.136	338	C13H19NO3+
238.1438	209	C13H20NO3+
252.1229	22	C13H18NO4+
254.1382	9	C13H20NO4+
280.1544	999	C15H22NO4+
298.1649	79	C15H24NO5+
308.1493	29	C16H22NO5+
326.1599	279	C16H24NO6+
