Mass spectrum: Jacobine; LC-ESI-ITFT; MS2; CE: 35%; R=15000; [M+H]+
Name: Jacobine
Name: (1R,3`S,4S,6R,7R,17R)-7-hydroxy-3`,6,7-trimethylspiro[2,9-dioxa-14-azatricyclo[9.5.1.0^{14,17}]heptadec-11-ene-4,2`-oxirane]-3,8-dione
Formula: C18H25NO6
Exact mass: 351.1682
SMILES: C[C@@H]1O[C@@]11C[C@@H](C)[C@@](C)(O)C(=O)OCC2=CCN3CC[C@@H](OC1=O)[C@@H]23
InChI: InChI=1S/C18H25NO6/c1-10-8-18(11(2)25-18)16(21)24-13-5-7-19-6-4-12(14(13)19)9-23-15(20)17(10,3)22/h4,10-11,13-14,22H,5-9H2,1-3H3/t10-,11+,13-,14-,17-,18+/m1/s1
Instrument: LTQ Orbitrap XL Thermo Scientific
Instrument type: LC-ESI-ITFT
Ms type: MS2
Ion mode: POSITIVE
Ionization: ESI
Fragmentation mode: CID
Collision energy: 35 % (nominal)
Resolution: 15000
Column name: Kinetex Evo C18 2.6 um 50x2.1 mm, Phenomenex
Retention time: 1.289 min
Base peak: 352.1752
Precursor m/z: 352.1755
Precursor type: [M+H]+
m/z	relative intensity	assigned
108.0806	2	C7H10N+
110.0965	3	C7H12N+
115.0754	13	C6H11O2+
118.0652	5	C8H8N+
120.0808	127	C8H10N+
122.0965	51	C8H12N+
123.1042	56	C8H13N+
134.0965	3	C9H12N+
136.0757	4	C8H10NO+
137.0963	5	C9H13O+
138.0914	8	C8H12NO+
140.107	13	C8H14NO+
146.0965	11	C10H12N+
148.0758	8	C9H10NO+
148.1121	6	C10H14N+
155.1067	166	C9H15O2+
158.0961	2	C11H12N+
162.0914	41	C10H12NO+
165.0912	7	C10H13O2+
172.1121	4	C12H14N+
174.1277	11	C12H16N+
183.1017	6	C10H15O3+
185.1199	2	C13H15N+
190.0863	8	C11H12NO2+
193.1089	3	C11H15NO2+
200.1434	56	C14H18N+
201.1122	7	C10H17O4+
204.1383	48	C13H18NO+
210.1126	7	C11H16NO3+
211.0966	15	C11H15O4+
216.1383	38	C14H18NO+
218.1539	45	C14H20NO+
219.1251	6	C13H17NO2+
234.1488	84	C14H20NO2+
236.1645	6	C14H22NO2+
244.1332	19	C15H18NO2+
250.1439	6	C14H20NO3+
262.1438	368	C15H20NO3+
264.1594	68	C15H22NO3+
280.1544	774	C15H22NO4+
290.1386	14	C16H20NO4+
306.1702	12	C17H24NO4+
308.1493	999	C16H22NO5+
324.1807	37	C17H26NO5+
