Mass spectrum: Monocrotaline N-oxide; LC-ESI-ITFT; MS2; CE: 55%; R=15000; [M+H]+
Name: Monocrotaline N-oxide
Name: (1R,4R,5R,6R,16R)-5,6-dihydroxy-4,5,6-trimethyl-13-oxido-2,8-dioxa-13-azoniatricyclo[8.5.1.0^{13,16}]hexadec-10-ene-3,7-dione
Formula: C16H23NO7
Exact mass: 341.1475
SMILES: C[C@H]1C(=O)O[C@@H]2CCN3(=O)CC=C(COC(=O)[C@](C)(O)[C@]1(C)O)[C@H]23
InChI: InChI=1S/C16H23NO7/c1-9-13(18)24-11-5-7-17(22)6-4-10(12(11)17)8-23-14(19)16(3,21)15(9,2)20/h4,9,11-12,20-21H,5-8H2,1-3H3/t9-,11+,12+,15+,16-,17?/m0/s1
Instrument: LTQ Orbitrap XL Thermo Scientific
Instrument type: LC-ESI-ITFT
Ms type: MS2
Ion mode: POSITIVE
Ionization: ESI
Fragmentation mode: HCD
Collision energy: 55 % (nominal)
Resolution: 15000
Column name: Kinetex Evo C18 2.6 um 50x2.1 mm, Phenomenex
Retention time: 1.138 min
Base peak: 350.1595
Precursor m/z: 342.1547
Precursor type: [M+H]+
m/z	relative intensity	assigned
80.0498	18	C5H6N+
81.0699	27	C6H9+
82.0651	16	C5H8N+
83.0492	50	C5H7O+
93.0572	64	C6H7N+
94.0652	67	C6H8N+
95.0729	30	C6H9N+
106.0652	19	C7H8N+
108.0808	76	C7H10N+
111.0678	38	C6H9NO+
115.0759	20	C6H11O2+
118.0651	153	C8H8N+
119.073	430	C8H9N+
120.0808	247	C8H10N+
136.0757	217	C8H10NO+
137.0835	999	C8H11NO+
138.0913	55	C8H12NO+
154.0863	77	C8H12NO2+
157.0856	35	C8H13O3+
183.0889	21	C9H13NO3+
209.1047	24	C11H15NO3+
210.1123	33	C11H16NO3+
228.1235	22	C11H18NO4+
236.128	305	C13H18NO3+
253.1303	73	C13H19NO4+
268.1186	18	C13H18NO5+
270.1339	16	C13H20NO5+
296.1491	60	C15H22NO5+
314.1595	38	C15H24NO6+
342.1547	385	C16H24NO7+
