Mass spectrum: Erucifoline; LC-ESI-ITFT; MS2; CE: 70%; R=15000; [M+H]+
Name: Erucifoline
Name: CID 75092738
Name: 9-ethylidene-7-(hydroxymethyl)-5-methyl-3,6,11-trioxa-15-azatetracyclo[10.5.1.0^{5,7}.0^{15,18}]octadec-1(17)-ene-4,10-dione
Formula: C18H23NO6
Exact mass: 349.1525
SMILES: CC=C1CC2(C(O2)(C(=O)OCC3=CCN4C3C(CC4)OC1=O)C)CO
InChI: InChI=1S/C18H23NO6/c1-3-11-8-18(10-20)17(2,25-18)16(22)23-9-12-4-6-19-7-5-13(14(12)19)24-15(11)21/h3-4,13-14,20H,5-10H2,1-2H3
Instrument: LTQ Orbitrap XL Thermo Scientific
Instrument type: LC-ESI-ITFT
Ms type: MS2
Ion mode: POSITIVE
Ionization: ESI
Fragmentation mode: HCD
Collision energy: 70 % (nominal)
Resolution: 15000
Column name: Kinetex Evo C18 2.6 um 50x2.1 mm, Phenomenex
Retention time: 1.044 min
Base peak: 350.1594
Precursor m/z: 350.1598
Precursor type: [M+H]+
m/z	relative intensity	assigned
55.054	45	C4H7+
65.0384	23	C5H5+
67.0416	27	C4H5N+
67.0542	375	C5H7+
68.0494	163	C4H6N+
69.0698	23	C5H9+
77.0386	102	C6H5+
79.0543	140	C6H7+
80.0495	279	C5H6N+
81.0574	56	C5H7N+
81.07	119	C6H9+
82.0652	213	C5H8N+
83.0493	82	C5H7O+
91.0543	280	C7H7+
92.0496	49	C6H6N+
93.0569	30	C6H7N+
93.0699	274	C7H9+
94.0652	678	C6H8N+
95.0491	71	C6H7O+
95.0729	55	C6H9N+
96.0808	433	C6H10N+
97.0646	32	C6H9O+
103.0543	133	C8H7+
105.0448	65	C6H5N2+
105.0572	28	C7H7N+
105.0702	26	C8H9+
106.0651	77	C7H8N+
107.073	46	C7H9N+
108.0808	143	C7H10N+
109.0648	159	C7H9O+
110.0598	36	C6H8NO+
110.0965	132	C7H12N+
111.0443	59	C6H7O2+
118.0652	164	C8H8N+
120.0809	999	C8H10N+
121.0648	59	C8H9O+
121.0886	113	C8H11N+
122.0965	208	C8H12N+
123.0442	61	C7H7O2+
125.0597	49	C7H9O2+
136.0755	24	C8H10NO+
137.0599	46	C8H9O2+
138.0914	610	C8H12NO+
141.0548	46	C7H9O3+
164.1074	50	C10H14NO+
220.1332	81	C13H18NO2+
