Mass spectrum: Jacobine; LC-ESI-ITFT; MS2; CE: 80%; R=15000; [M+H]+
Name: Jacobine
Name: (1R,3`S,4S,6R,7R,17R)-7-hydroxy-3`,6,7-trimethylspiro[2,9-dioxa-14-azatricyclo[9.5.1.0^{14,17}]heptadec-11-ene-4,2`-oxirane]-3,8-dione
Formula: C18H25NO6
Exact mass: 351.1682
SMILES: C[C@@H]1O[C@@]11C[C@@H](C)[C@@](C)(O)C(=O)OCC2=CCN3CC[C@@H](OC1=O)[C@@H]23
InChI: InChI=1S/C18H25NO6/c1-10-8-18(11(2)25-18)16(21)24-13-5-7-19-6-4-12(14(13)19)9-23-15(20)17(10,3)22/h4,10-11,13-14,22H,5-9H2,1-3H3/t10-,11+,13-,14-,17-,18+/m1/s1
Instrument: LTQ Orbitrap XL Thermo Scientific
Instrument type: LC-ESI-ITFT
Ms type: MS2
Ion mode: POSITIVE
Ionization: ESI
Fragmentation mode: HCD
Collision energy: 80 % (nominal)
Resolution: 15000
Column name: Kinetex Evo C18 2.6 um 50x2.1 mm, Phenomenex
Retention time: 1.302 min
Base peak: 352.1753
Precursor m/z: 352.1755
Precursor type: [M+H]+
m/z	relative intensity	assigned
67.0541	216	C5H7+
70.0651	416	C4H8N+
77.0384	142	C6H5+
79.0543	468	C6H7+
80.0495	363	C5H6N+
82.065	139	C5H8N+
91.054	351	C7H7+
93.0697	288	C7H9+
94.0652	457	C6H8N+
105.0446	136	C6H5N2+
105.0696	170	C8H9+
106.0649	112	C7H8N+
107.0728	130	C7H9N+
108.081	151	C7H10N+
113.0597	204	C6H9O2+
120.0807	999	C8H10N+
122.0965	452	C8H12N+
140.1066	201	C8H14NO+
155.1063	259	C9H15O2+
