Mass spectrum: Lupinine; LC-ESI-ITFT; MS2; CE: 80%; R=15000; [M+H]+
Name: Lupinine
Name: [(1R,9aR)-2,3,4,6,7,8,9,9a-octahydro-1H-quinolizin-1-yl]methanol
Formula: C10H19NO
Exact mass: 169.1467
SMILES: OC[C@@H]1CCCN2CCCC[C@H]12
InChI: InChI=1S/C10H19NO/c12-8-9-4-3-7-11-6-2-1-5-10(9)11/h9-10,12H,1-8H2/t9-,10+/m0/s1
Instrument: LTQ Orbitrap XL Thermo Scientific
Instrument type: LC-ESI-ITFT
Ms type: MS2
Ion mode: POSITIVE
Ionization: ESI
Fragmentation mode: HCD
Collision energy: 80 % (nominal)
Resolution: 15000
Column name: Synergi Polar RP, 2.5 um 100x3.0 mm, Phenomenex
Retention time: 3.909 min
Base peak: 236.0739
Precursor m/z: 170.1539
Precursor type: [M+H]+
m/z	relative intensity	assigned
55.0542	4	C4H7+
56.0495	2	C3H6N+
58.0651	1	C3H8N+
67.0542	7	C5H7+
69.0699	3	C5H9+
70.0651	6	C4H8N+
79.0544	3	C6H7+
81.0699	9	C6H9+
84.0808	15	C5H10N+
93.07	7	C7H9+
96.0808	6	C6H10N+
97.0885	2	C6H11N+
98.0965	19	C6H12N+
107.0858	1	C8H11+
110.0964	9	C7H12N+
122.097	2	C8H12N+
124.1121	44	C8H14N+
136.1123	4	C9H14N+
137.12	18	C9H15N+
150.1278	5	C10H16N+
152.1434	210	C10H18N+
170.154	999	C10H20NO+
