Mass spectrum: Erucifoline; LC-ESI-ITFT; MS2; CE: 75%; R=15000; [M+H]+
Name: Erucifoline
Name: CID 75092738
Name: 9-ethylidene-7-(hydroxymethyl)-5-methyl-3,6,11-trioxa-15-azatetracyclo[10.5.1.0^{5,7}.0^{15,18}]octadec-1(17)-ene-4,10-dione
Formula: C18H23NO6
Exact mass: 349.1525
SMILES: CC=C1CC2(C(O2)(C(=O)OCC3=CCN4C3C(CC4)OC1=O)C)CO
InChI: InChI=1S/C18H23NO6/c1-3-11-8-18(10-20)17(2,25-18)16(22)23-9-12-4-6-19-7-5-13(14(12)19)24-15(11)21/h3-4,13-14,20H,5-10H2,1-2H3
Instrument: LTQ Orbitrap XL Thermo Scientific
Instrument type: LC-ESI-ITFT
Ms type: MS2
Ion mode: POSITIVE
Ionization: ESI
Fragmentation mode: CID
Collision energy: 75 % (nominal)
Resolution: 15000
Column name: Kinetex Evo C18 2.6 um 50x2.1 mm, Phenomenex
Retention time: 1.039 min
Base peak: 350.1596
Precursor m/z: 350.1598
Precursor type: [M+H]+
m/z	relative intensity	assigned
93.0698	8	C7H9+
96.0805	9	C6H10N+
103.0542	68	C8H7+
105.0697	12	C8H9+
106.0651	57	C7H8N+
107.0731	7	C7H9N+
108.0809	22	C7H10N+
109.0648	19	C7H9O+
110.0963	25	C7H12N+
117.0573	15	C8H7N+
118.0651	147	C8H8N+
119.073	8	C8H9N+
120.0807	985	C8H10N+
121.0648	23	C8H9O+
121.0886	32	C8H11N+
122.0963	112	C8H12N+
123.044	27	C7H7O2+
123.0801	13	C8H11O+
125.0597	11	C7H9O2+
134.0962	15	C9H12N+
136.0756	20	C8H10NO+
136.112	39	C9H14N+
137.0598	11	C8H9O2+
138.0913	481	C8H12NO+
139.0749	8	C8H11O2+
140.1071	7	C8H14NO+
141.0545	43	C7H9O3+
146.0964	46	C10H12N+
148.1119	32	C10H14N+
149.0597	17	C9H9O2+
149.0832	11	C9H11NO+
151.0754	11	C9H11O2+
156.1017	26	C8H14NO2+
162.0913	5	C10H12NO+
164.1069	505	C10H14NO+
165.0546	34	C9H9O3+
167.0705	12	C9H11O3+
174.0913	27	C11H12NO+
176.1069	31	C11H14NO+
182.081	14	C9H12NO3+
182.1174	247	C10H16NO2+
192.1015	23	C11H14NO2+
194.1169	7	C11H16NO2+
206.1177	8	C12H16NO2+
207.1256	8	C12H17NO2+
208.0967	14	C11H14NO3+
210.1124	11	C11H16NO3+
220.1332	30	C13H18NO2+
222.1497	6	C13H20NO2+
234.1117	9	C13H16NO3+
246.1485	10	C15H20NO2+
278.1385	33	C15H20NO4+
280.1541	63	C15H22NO4+
288.1596	7	C17H22NO3+
292.1542	40	C16H22NO4+
294.1335	40	C15H20NO5+
302.1385	61	C17H20NO4+
306.1341	9	C16H20NO5+
306.1699	15	C17H24NO4+
320.1492	111	C17H22NO5+
322.1648	999	C17H24NO5+
