Mass spectrum: Monocrotaline; LC-ESI-ITFT; MS2; CE: 65%; R=15000; [M+H]+
Name: Monocrotaline
Name: (1R,4R,5R,6R,16R)-5,6-dihydroxy-4,5,6-trimethyl-2,8-dioxa-13-azatricyclo[8.5.1.0^{13,16}]hexadec-10-ene-3,7-dione
Formula: C16H23NO6
Exact mass: 325.1525
SMILES: C[C@H]1C(=O)O[C@@H]2CCN3CC=C(COC(=O)[C@](C)(O)[C@]1(C)O)[C@H]23
InChI: InChI=1S/C16H23NO6/c1-9-13(18)23-11-5-7-17-6-4-10(12(11)17)8-22-14(19)16(3,21)15(9,2)20/h4,9,11-12,20-21H,5-8H2,1-3H3/t9-,11+,12+,15+,16-/m0/s1
Instrument: LTQ Orbitrap XL Thermo Scientific
Instrument type: LC-ESI-ITFT
Ms type: MS2
Ion mode: POSITIVE
Ionization: ESI
Fragmentation mode: CID
Collision energy: 65 % (nominal)
Resolution: 15000
Column name: Kinetex Evo C18 2.6 um 50x2.1 mm, Phenomenex
Retention time: 0.955 min
Base peak: 326.1595
Precursor m/z: 326.1598
Precursor type: [M+H]+
m/z	relative intensity	assigned
94.0648	6	C6H8N+
103.0541	3	C8H7+
106.0651	17	C7H8N+
108.0807	8	C7H10N+
110.0599	9	C6H8NO+
120.0808	221	C8H10N+
121.0886	144	C8H11N+
122.0964	86	C8H12N+
136.0753	17	C8H10NO+
138.0914	34	C8H12NO+
140.1067	10	C8H14NO+
146.0958	5	C10H12N+
148.1119	24	C10H14N+
153.0778	5	C8H11NO2+
164.1069	189	C10H14NO+
166.0863	4	C9H12NO2+
174.091	6	C11H12NO+
180.1016	12	C10H14NO2+
182.1176	28	C10H16NO2+
184.0969	10	C9H14NO3+
192.1016	25	C11H14NO2+
194.1175	175	C11H16NO2+
195.1254	8	C11H17NO2+
208.0963	13	C11H14NO3+
210.1124	119	C11H16NO3+
228.1228	41	C11H18NO4+
236.1276	6	C13H18NO3+
237.1359	355	C13H19NO3+
238.1436	220	C13H20NO3+
252.123	25	C13H18NO4+
254.139	10	C13H20NO4+
280.1542	999	C15H22NO4+
298.1648	86	C15H24NO5+
308.1493	28	C16H22NO5+
