Mass spectrum: 13a-Hydroxylupanin; LC-ESI-ITFT; MS2; CE: 70%; R=15000; [M+H]+
Name: 13a-Hydroxylupanin
Name: Hydroxylupanine
Name: (1S,2R,9S,10S,12S)-12-hydroxy-7,15-diazatetracyclo[7.7.1.0^{2,7}.0^{10,15}]heptadecan-6-one
Formula: C15H24N2O2
Exact mass: 264.1838
SMILES: C1C[C@@H]2[C@H]3C[C@@H](CN2C(=O)C1)[C@@H]4C[C@H](CCN4C3)O
InChI: InChI=1S/C15H24N2O2/c18-12-4-5-16-8-10-6-11(14(16)7-12)9-17-13(10)2-1-3-15(17)19/h10-14,18H,1-9H2/t10-,11-,12-,13+,14-/m0/s1
Instrument: LTQ Orbitrap XL Thermo Scientific
Instrument type: LC-ESI-ITFT
Ms type: MS2
Ion mode: POSITIVE
Ionization: ESI
Fragmentation mode: CID
Collision energy: 70 % (nominal)
Resolution: 15000
Column name: Synergi Polar RP, 2.5 um 100x3.0 mm, Phenomenex
Retention time: 5.368 min
Base peak: 236.0739
Precursor m/z: 265.1911
Precursor type: [M+H]+
m/z	relative intensity	assigned
94.0656	4	C6H8N+
96.0808	41	C6H10N+
98.0965	3	C6H12N+
108.0806	10	C7H10N+
110.0964	13	C7H12N+
112.0757	24	C6H10NO+
114.0913	89	C6H12NO+
119.0856	5	C9H11+
122.0962	5	C8H12N+
124.1121	5	C8H14N+
134.0965	31	C9H12N+
146.0969	3	C10H12N+
148.1121	72	C10H14N+
150.0913	58	C9H12NO+
150.1278	14	C10H16N+
152.1071	354	C9H14NO+
162.0914	19	C10H12NO+
164.107	42	C10H14NO+
166.1226	33	C10H16NO+
168.1378	5	C10H18NO+
176.1068	10	C11H14NO+
178.1226	4	C11H16NO+
193.1337	19	C11H17N2O+
204.1386	17	C13H18NO+
207.1491	10	C12H19N2O+
221.1647	17	C13H21N2O+
222.1488	4	C13H20NO2+
229.17	45	C15H21N2+
245.1651	61	C15H21N2O+
247.1805	999	C15H23N2O+
