Mass spectrum: Monocrotaline N-oxide; LC-ESI-ITFT; MS2; CE: 65%; R=15000; [M+H]+
Name: Monocrotaline N-oxide
Name: (1R,4R,5R,6R,16R)-5,6-dihydroxy-4,5,6-trimethyl-13-oxido-2,8-dioxa-13-azoniatricyclo[8.5.1.0^{13,16}]hexadec-10-ene-3,7-dione
Formula: C16H23NO7
Exact mass: 341.1475
SMILES: C[C@H]1C(=O)O[C@@H]2CCN3(=O)CC=C(COC(=O)[C@](C)(O)[C@]1(C)O)[C@H]23
InChI: InChI=1S/C16H23NO7/c1-9-13(18)24-11-5-7-17(22)6-4-10(12(11)17)8-23-14(19)16(3,21)15(9,2)20/h4,9,11-12,20-21H,5-8H2,1-3H3/t9-,11+,12+,15+,16-,17?/m0/s1
Instrument: LTQ Orbitrap XL Thermo Scientific
Instrument type: LC-ESI-ITFT
Ms type: MS2
Ion mode: POSITIVE
Ionization: ESI
Fragmentation mode: CID
Collision energy: 65 % (nominal)
Resolution: 15000
Column name: Kinetex Evo C18 2.6 um 50x2.1 mm, Phenomenex
Retention time: 1.129 min
Base peak: 350.1595
Precursor m/z: 342.1547
Precursor type: [M+H]+
m/z	relative intensity	assigned
106.0652	7	C7H8N+
108.0808	17	C7H10N+
117.0575	5	C8H7N+
118.0652	83	C8H8N+
119.0729	74	C8H9N+
120.0808	162	C8H10N+
121.0885	7	C8H11N+
136.0758	43	C8H10NO+
137.0835	291	C8H11NO+
138.0914	16	C8H12NO+
140.1068	10	C8H14NO+
154.0863	17	C8H12NO2+
157.0856	11	C8H13O3+
162.0913	8	C10H12NO+
164.071	6	C9H10NO2+
164.107	7	C10H14NO+
180.102	13	C10H14NO2+
183.0886	8	C9H13NO3+
190.0866	4	C11H12NO2+
192.1018	10	C11H14NO2+
194.1175	23	C11H16NO2+
198.1134	4	C10H16NO3+
208.0968	23	C11H14NO3+
209.1048	72	C11H15NO3+
210.1125	29	C11H16NO3+
226.1074	37	C11H16NO4+
228.1231	20	C11H18NO4+
234.1128	10	C13H16NO3+
235.1192	7	C13H17NO3+
236.1281	300	C13H18NO3+
238.144	5	C13H20NO3+
244.118	33	C11H18NO5+
253.1308	126	C13H19NO4+
254.1386	53	C13H20NO4+
268.118	33	C13H18NO5+
270.1336	42	C13H20NO5+
296.1492	999	C15H22NO5+
298.165	8	C15H24NO5+
314.1598	100	C15H24NO6+
324.1446	37	C16H22NO6+
