Mass spectrum: Jacobine; LC-ESI-ITFT; MS2; CE: 40%; R=15000; [M+H]+
Name: Jacobine
Name: (1R,3`S,4S,6R,7R,17R)-7-hydroxy-3`,6,7-trimethylspiro[2,9-dioxa-14-azatricyclo[9.5.1.0^{14,17}]heptadec-11-ene-4,2`-oxirane]-3,8-dione
Formula: C18H25NO6
Exact mass: 351.1682
SMILES: C[C@@H]1O[C@@]11C[C@@H](C)[C@@](C)(O)C(=O)OCC2=CCN3CC[C@@H](OC1=O)[C@@H]23
InChI: InChI=1S/C18H25NO6/c1-10-8-18(11(2)25-18)16(21)24-13-5-7-19-6-4-12(14(13)19)9-23-15(20)17(10,3)22/h4,10-11,13-14,22H,5-9H2,1-3H3/t10-,11+,13-,14-,17-,18+/m1/s1
Instrument: LTQ Orbitrap XL Thermo Scientific
Instrument type: LC-ESI-ITFT
Ms type: MS2
Ion mode: POSITIVE
Ionization: ESI
Fragmentation mode: HCD
Collision energy: 40 % (nominal)
Resolution: 15000
Column name: Kinetex Evo C18 2.6 um 50x2.1 mm, Phenomenex
Retention time: 1.289 min
Base peak: 352.1752
Precursor m/z: 352.1755
Precursor type: [M+H]+
m/z	relative intensity	assigned
70.0651	23	C4H8N+
80.0495	90	C5H6N+
93.0698	26	C7H9+
94.0651	37	C6H8N+
96.0808	16	C6H10N+
105.0699	17	C8H9+
115.0754	32	C6H11O2+
120.0808	404	C8H10N+
122.0964	266	C8H12N+
123.1042	330	C8H13N+
138.0915	46	C8H12NO+
140.107	44	C8H14NO+
148.1121	13	C10H14N+
155.1067	279	C9H15O2+
162.0913	57	C10H12NO+
165.0911	20	C10H13O2+
183.1016	42	C10H15O3+
200.1436	20	C14H18N+
204.1377	14	C13H18NO+
216.139	19	C14H18NO+
218.1538	35	C14H20NO+
234.1488	56	C14H20NO2+
262.1437	210	C15H20NO3+
264.1593	70	C15H22NO3+
280.1544	509	C15H22NO4+
308.1492	166	C16H22NO5+
352.1755	999	C18H26NO6+
