Mass spectrum: Lupanine; LC-ESI-ITFT; MS2; CE: 90%; R=15000; [M+H]+
Name: Lupanine
Name: 11-Isolupanine
Name: 7,15-diazatetracyclo[7.7.1.0^{2,7}.0^{10,15}]heptadecan-6-one
Formula: C15H24N2O
Exact mass: 248.1889
SMILES: C1CCN2CC3CC(C2C1)CN4C3CCCC4=O
InChI: InChI=1S/C15H24N2O/c18-15-6-3-5-14-11-8-12(10-17(14)15)13-4-1-2-7-16(13)9-11/h11-14H,1-10H2
Instrument: LTQ Orbitrap XL Thermo Scientific
Instrument type: LC-ESI-ITFT
Ms type: MS2
Ion mode: POSITIVE
Ionization: ESI
Fragmentation mode: HCD
Collision energy: 90 % (nominal)
Resolution: 15000
Column name: Synergi Polar RP, 2.5 um 100x3.0 mm, Phenomenex
Retention time: 7.145 min
Base peak: 236.0738
Precursor m/z: 249.1961
Precursor type: [M+H]+
m/z	relative intensity	assigned
70.0652	131	C4H8N+
84.0809	61	C5H10N+
85.0649	88	C5H9O+
98.0966	143	C6H12N+
112.0753	64	C6H10NO+
114.0913	390	C6H12NO+
136.112	496	C9H14N+
150.1277	128	C10H16N+
249.1963	999	C15H25N2O+
