Mass spectrum: Erucifoline; LC-ESI-ITFT; MS2; CE: 110%; R=15000; [M+H]+
Name: Erucifoline
Name: CID 75092738
Name: 9-ethylidene-7-(hydroxymethyl)-5-methyl-3,6,11-trioxa-15-azatetracyclo[10.5.1.0^{5,7}.0^{15,18}]octadec-1(17)-ene-4,10-dione
Formula: C18H23NO6
Exact mass: 349.1525
SMILES: CC=C1CC2(C(O2)(C(=O)OCC3=CCN4C3C(CC4)OC1=O)C)CO
InChI: InChI=1S/C18H23NO6/c1-3-11-8-18(10-20)17(2,25-18)16(22)23-9-12-4-6-19-7-5-13(14(12)19)24-15(11)21/h3-4,13-14,20H,5-10H2,1-2H3
Instrument: LTQ Orbitrap XL Thermo Scientific
Instrument type: LC-ESI-ITFT
Ms type: MS2
Ion mode: POSITIVE
Ionization: ESI
Fragmentation mode: HCD
Collision energy: 110 % (nominal)
Resolution: 15000
Column name: Kinetex Evo C18 2.6 um 50x2.1 mm, Phenomenex
Retention time: 1.039 min
Base peak: 350.1596
Precursor m/z: 350.1598
Precursor type: [M+H]+
m/z	relative intensity	assigned
55.054	239	C4H7+
65.0384	342	C5H5+
67.0415	214	C4H5N+
67.0541	915	C5H7+
68.0493	352	C4H6N+
77.0385	639	C6H5+
79.0541	433	C6H7+
80.0494	990	C5H6N+
81.0569	135	C5H7N+
82.0651	241	C5H8N+
91.0542	640	C7H7+
93.0571	198	C6H7N+
93.0699	152	C7H9+
94.0651	999	C6H8N+
96.0808	203	C6H10N+
103.054	214	C8H7+
105.0448	387	C6H5N2+
106.0651	186	C7H8N+
108.0806	259	C7H10N+
118.0652	306	C8H8N+
120.0807	648	C8H10N+
