Mass spectrum: Erucifoline; LC-ESI-ITFT; MS2; CE: 80%; R=15000; [M+H]+
Name: Erucifoline
Name: CID 75092738
Name: 9-ethylidene-7-(hydroxymethyl)-5-methyl-3,6,11-trioxa-15-azatetracyclo[10.5.1.0^{5,7}.0^{15,18}]octadec-1(17)-ene-4,10-dione
Formula: C18H23NO6
Exact mass: 349.1525
SMILES: CC=C1CC2(C(O2)(C(=O)OCC3=CCN4C3C(CC4)OC1=O)C)CO
InChI: InChI=1S/C18H23NO6/c1-3-11-8-18(10-20)17(2,25-18)16(22)23-9-12-4-6-19-7-5-13(14(12)19)24-15(11)21/h3-4,13-14,20H,5-10H2,1-2H3
Instrument: LTQ Orbitrap XL Thermo Scientific
Instrument type: LC-ESI-ITFT
Ms type: MS2
Ion mode: POSITIVE
Ionization: ESI
Fragmentation mode: HCD
Collision energy: 80 % (nominal)
Resolution: 15000
Column name: Kinetex Evo C18 2.6 um 50x2.1 mm, Phenomenex
Retention time: 1.044 min
Base peak: 350.1594
Precursor m/z: 350.1598
Precursor type: [M+H]+
m/z	relative intensity	assigned
53.0385	55	C4H5+
55.054	91	C4H7+
65.0385	68	C5H5+
67.0415	64	C4H5N+
67.0541	616	C5H7+
68.0494	241	C4H6N+
69.0698	44	C5H9+
77.0386	211	C6H5+
79.0542	252	C6H7+
80.0495	445	C5H6N+
81.0573	117	C5H7N+
81.0699	159	C6H9+
82.0651	300	C5H8N+
83.0492	92	C5H7O+
91.0542	477	C7H7+
92.0495	83	C6H6N+
93.0573	83	C6H7N+
93.0699	290	C7H9+
94.0651	999	C6H8N+
95.0491	137	C6H7O+
95.0729	90	C6H9N+
96.0807	533	C6H10N+
97.0647	66	C6H9O+
103.0542	162	C8H7+
105.0447	145	C6H5N2+
105.07	92	C8H9+
106.065	105	C7H8N+
107.0726	41	C7H9N+
108.0807	186	C7H10N+
109.0648	177	C7H9O+
110.0602	69	C6H8NO+
110.0964	158	C7H12N+
111.0439	51	C6H7O2+
118.0651	174	C8H8N+
119.0729	67	C8H9N+
120.0808	882	C8H10N+
121.0654	32	C8H9O+
121.0888	66	C8H11N+
122.0963	265	C8H12N+
123.0442	44	C7H7O2+
125.0593	36	C7H9O2+
138.0913	469	C8H12NO+
164.1067	38	C10H14NO+
220.1333	74	C13H18NO2+
