Mass spectrum: Senecionine N-oxide; LC-ESI-ITFT; MS2; CE: 75%; R=15000; [M+H]+
Name: Senecionine N-oxide
Name: (1R,4Z,6R,7R,17R)-4-ethylidene-7-hydroxy-6,7-dimethyl-14-oxido-2,9-dioxa-14-azoniatricyclo[9.5.1.0^{14,17}]heptadec-11-ene-3,8-dione
Formula: C18H25NO6
Exact mass: 351.1682
SMILES: C\C=C1\C[C@@H](C)[C@@](C)(O)C(=O)OCC2=CC[N+]3([O-])CC[C@@H](OC1=O)[C@@H]23
InChI: InChI=1S/C18H25NO6/c1-4-12-9-11(2)18(3,22)17(21)24-10-13-5-7-19(23)8-6-14(15(13)19)25-16(12)20/h4-5,11,14-15,22H,6-10H2,1-3H3/b12-4-/t11-,14-,15-,18-,19?/m1/s1
Instrument: LTQ Orbitrap XL Thermo Scientific
Instrument type: LC-ESI-ITFT
Ms type: MS2
Ion mode: POSITIVE
Ionization: ESI
Fragmentation mode: CID
Collision energy: 75 % (nominal)
Resolution: 15000
Column name: Kinetex Evo C18 2.6 um 50x2.1 mm, Phenomenex
Retention time: 6.210 min
Base peak: 352.1753
Precursor m/z: 352.1755
Precursor type: [M+H]+
m/z	relative intensity	assigned
94.0652	7	C6H8N+
95.0729	9	C6H9N+
106.0651	141	C7H8N+
107.0856	8	C8H11+
108.0808	51	C7H10N+
109.0648	9	C7H9O+
112.0756	26	C6H10NO+
117.0573	119	C8H7N+
118.0651	840	C8H8N+
119.0729	323	C8H9N+
120.0807	539	C8H10N+
121.0885	250	C8H11N+
122.0964	109	C8H12N+
125.0959	16	C8H13O+
126.0914	7	C7H12NO+
134.0962	15	C9H12N+
135.0805	15	C9H11O+
136.0757	231	C8H10NO+
137.0835	46	C8H11NO+
138.0913	123	C8H12NO+
139.0992	12	C8H13NO+
140.1073	12	C8H14NO+
148.1123	9	C10H14N+
152.107	71	C9H14NO+
153.091	58	C9H13O2+
154.0862	122	C8H12NO2+
160.1122	8	C11H14N+
162.0917	11	C10H12NO+
164.107	9	C10H14NO+
165.0783	36	C9H11NO2+
174.0913	16	C11H12NO+
174.1278	18	C12H16N+
176.1069	44	C11H14NO+
178.1227	79	C11H16NO+
190.1227	13	C12H16NO+
192.1383	33	C12H18NO+
200.107	7	C13H14NO+
202.1226	131	C13H16NO+
204.1014	8	C12H14NO2+
218.1175	86	C13H16NO2+
218.1539	155	C14H20NO+
220.1331	999	C13H18NO2+
221.1364	24	C8H19N3O4+
228.1382	17	C15H18NO+
232.1334	13	C14H18NO2+
234.149	5	C14H20NO2+
236.1281	39	C13H18NO3+
246.1487	606	C15H20NO2+
248.1643	276	C15H22NO2+
254.1385	313	C13H20NO4+
262.1434	20	C15H20NO3+
262.1804	7	C16H24NO2+
276.1595	14	C16H22NO3+
290.1748	70	C17H24NO3+
306.1696	13	C17H24NO4+
307.1775	14	C17H25NO4+
308.1858	18	C17H26NO4+
318.1703	18	C18H24NO4+
320.1492	19	C17H22NO5+
324.1806	875	C17H26NO5+
334.1649	149	C18H24NO5+
