Mass spectrum: Monocrotaline N-oxide; LC-ESI-ITFT; MS2; CE: 90%; R=15000; [M+H]+
Name: Monocrotaline N-oxide
Name: (1R,4R,5R,6R,16R)-5,6-dihydroxy-4,5,6-trimethyl-13-oxido-2,8-dioxa-13-azoniatricyclo[8.5.1.0^{13,16}]hexadec-10-ene-3,7-dione
Formula: C16H23NO7
Exact mass: 341.1475
SMILES: C[C@H]1C(=O)O[C@@H]2CCN3(=O)CC=C(COC(=O)[C@](C)(O)[C@]1(C)O)[C@H]23
InChI: InChI=1S/C16H23NO7/c1-9-13(18)24-11-5-7-17(22)6-4-10(12(11)17)8-23-14(19)16(3,21)15(9,2)20/h4,9,11-12,20-21H,5-8H2,1-3H3/t9-,11+,12+,15+,16-,17?/m0/s1
Instrument: LTQ Orbitrap XL Thermo Scientific
Instrument type: LC-ESI-ITFT
Ms type: MS2
Ion mode: POSITIVE
Ionization: ESI
Fragmentation mode: CID
Collision energy: 90 % (nominal)
Resolution: 15000
Column name: Kinetex Evo C18 2.6 um 50x2.1 mm, Phenomenex
Retention time: 1.132 min
Base peak: 61.0395
Precursor m/z: 342.1547
Precursor type: [M+H]+
m/z	relative intensity	assigned
108.0807	24	C7H10N+
118.0651	75	C8H8N+
119.0729	72	C8H9N+
120.0808	179	C8H10N+
136.0757	48	C8H10NO+
137.0835	312	C8H11NO+
138.0916	14	C8H12NO+
154.0863	18	C8H12NO2+
194.1174	24	C11H16NO2+
208.0965	27	C11H14NO3+
209.1047	65	C11H15NO3+
210.1125	38	C11H16NO3+
226.1078	31	C11H16NO4+
236.128	333	C13H18NO3+
244.118	30	C11H18NO5+
253.1307	110	C13H19NO4+
254.1386	52	C13H20NO4+
268.1183	34	C13H18NO5+
270.1333	47	C13H20NO5+
296.1492	999	C15H22NO5+
314.1599	103	C15H24NO6+
324.1444	41	C16H22NO6+
