Mass spectrum: Erucifoline; LC-ESI-ITFT; MS2; CE: 85%; R=15000; [M+H]+
Name: Erucifoline
Name: CID 75092738
Name: 9-ethylidene-7-(hydroxymethyl)-5-methyl-3,6,11-trioxa-15-azatetracyclo[10.5.1.0^{5,7}.0^{15,18}]octadec-1(17)-ene-4,10-dione
Formula: C18H23NO6
Exact mass: 349.1525
SMILES: CC=C1CC2(C(O2)(C(=O)OCC3=CCN4C3C(CC4)OC1=O)C)CO
InChI: InChI=1S/C18H23NO6/c1-3-11-8-18(10-20)17(2,25-18)16(22)23-9-12-4-6-19-7-5-13(14(12)19)24-15(11)21/h3-4,13-14,20H,5-10H2,1-2H3
Instrument: LTQ Orbitrap XL Thermo Scientific
Instrument type: LC-ESI-ITFT
Ms type: MS2
Ion mode: POSITIVE
Ionization: ESI
Fragmentation mode: HCD
Collision energy: 85 % (nominal)
Resolution: 15000
Column name: Kinetex Evo C18 2.6 um 50x2.1 mm, Phenomenex
Retention time: 1.053 min
Base peak: 350.1596
Precursor m/z: 350.1598
Precursor type: [M+H]+
m/z	relative intensity	assigned
53.0383	75	C4H5+
55.054	66	C4H7+
65.0385	109	C5H5+
67.0416	84	C4H5N+
67.0542	761	C5H7+
68.0494	252	C4H6N+
77.0386	238	C6H5+
79.0542	257	C6H7+
80.0495	433	C5H6N+
81.0573	123	C5H7N+
81.0699	142	C6H9+
82.0651	235	C5H8N+
83.0493	108	C5H7O+
91.0543	449	C7H7+
92.0497	79	C6H6N+
93.0574	81	C6H7N+
93.0699	270	C7H9+
94.0651	999	C6H8N+
95.0491	88	C6H7O+
95.0731	58	C6H9N+
96.0807	472	C6H10N+
103.0541	174	C8H7+
105.0446	171	C6H5N2+
105.0575	76	C7H7N+
105.0702	43	C8H9+
106.0651	107	C7H8N+
108.0807	236	C7H10N+
109.065	159	C7H9O+
110.0597	76	C6H8NO+
110.0964	106	C7H12N+
111.044	44	C6H7O2+
118.0652	197	C8H8N+
119.073	59	C8H9N+
120.0808	782	C8H10N+
121.0653	54	C8H9O+
122.0965	176	C8H12N+
123.0437	39	C7H7O2+
138.0912	253	C8H12NO+
220.1328	52	C13H18NO2+
