Mass spectrum: 13a-Hydroxylupanin; LC-ESI-ITFT; MS2; CE: 40%; R=15000; [M+H]+
Name: 13a-Hydroxylupanin
Name: Hydroxylupanine
Name: (1S,2R,9S,10S,12S)-12-hydroxy-7,15-diazatetracyclo[7.7.1.0^{2,7}.0^{10,15}]heptadecan-6-one
Formula: C15H24N2O2
Exact mass: 264.1838
SMILES: C1C[C@@H]2[C@H]3C[C@@H](CN2C(=O)C1)[C@@H]4C[C@H](CCN4C3)O
InChI: InChI=1S/C15H24N2O2/c18-12-4-5-16-8-10-6-11(14(16)7-12)9-17-13(10)2-1-3-15(17)19/h10-14,18H,1-9H2/t10-,11-,12-,13+,14-/m0/s1
Instrument: LTQ Orbitrap XL Thermo Scientific
Instrument type: LC-ESI-ITFT
Ms type: MS2
Ion mode: POSITIVE
Ionization: ESI
Fragmentation mode: CID
Collision energy: 40 % (nominal)
Resolution: 15000
Column name: Synergi Polar RP, 2.5 um 100x3.0 mm, Phenomenex
Retention time: 5.399 min
Base peak: 236.0739
Precursor m/z: 265.1911
Precursor type: [M+H]+
m/z	relative intensity	assigned
84.0808	6	C5H10N+
91.0542	6	C7H7+
94.0651	7	C6H8N+
96.0808	42	C6H10N+
98.0602	6	C5H8NO+
98.0963	5	C6H12N+
105.0703	5	C8H9+
108.0809	16	C7H10N+
110.0966	23	C7H12N+
112.0757	49	C6H10NO+
114.0914	88	C6H12NO+
119.0856	8	C9H11+
120.0812	5	C8H10N+
122.0965	13	C8H12N+
124.1123	11	C8H14N+
132.0805	7	C9H10N+
134.0965	37	C9H12N+
146.0967	9	C10H12N+
148.1121	114	C10H14N+
150.0914	66	C9H12NO+
150.1279	23	C10H16N+
152.1071	346	C9H14NO+
162.0915	29	C10H12NO+
162.1277	5	C11H16N+
164.1071	70	C10H14NO+
166.1227	51	C10H16NO+
176.1071	18	C11H14NO+
178.1226	9	C11H16NO+
193.1337	34	C11H17N2O+
204.1384	21	C13H18NO+
207.1492	14	C12H19N2O+
221.1647	23	C13H21N2O+
222.1488	4	C13H20NO2+
229.1701	41	C15H21N2+
245.1652	70	C15H21N2O+
247.1806	999	C15H23N2O+
265.1912	27	C15H25N2O2+
