Mass spectrum: Senecionine N-oxide; LC-ESI-ITFT; MS2; CE: 60%; R=15000; [M+H]+
Name: Senecionine N-oxide
Name: (1R,4Z,6R,7R,17R)-4-ethylidene-7-hydroxy-6,7-dimethyl-14-oxido-2,9-dioxa-14-azoniatricyclo[9.5.1.0^{14,17}]heptadec-11-ene-3,8-dione
Formula: C18H25NO6
Exact mass: 351.1682
SMILES: C\C=C1\C[C@@H](C)[C@@](C)(O)C(=O)OCC2=CC[N+]3([O-])CC[C@@H](OC1=O)[C@@H]23
InChI: InChI=1S/C18H25NO6/c1-4-12-9-11(2)18(3,22)17(21)24-10-13-5-7-19(23)8-6-14(15(13)19)25-16(12)20/h4-5,11,14-15,22H,6-10H2,1-3H3/b12-4-/t11-,14-,15-,18-,19?/m1/s1
Instrument: LTQ Orbitrap XL Thermo Scientific
Instrument type: LC-ESI-ITFT
Ms type: MS2
Ion mode: POSITIVE
Ionization: ESI
Fragmentation mode: HCD
Collision energy: 60 % (nominal)
Resolution: 15000
Column name: Kinetex Evo C18 2.6 um 50x2.1 mm, Phenomenex
Retention time: 6.177 min
Base peak: 195.0874
Precursor m/z: 352.1755
Precursor type: [M+H]+
m/z	relative intensity	assigned
53.0384	39	C4H5+
67.0542	36	C5H7+
79.0542	58	C6H7+
80.0495	85	C5H6N+
81.0698	193	C6H9+
82.0651	28	C5H8N+
84.0443	28	C4H6NO+
91.0543	48	C7H7+
93.0573	427	C6H7N+
94.0651	523	C6H8N+
95.0729	388	C6H9N+
98.0601	47	C5H8NO+
106.0651	160	C7H8N+
107.049	20	C7H7O+
107.0855	80	C8H11+
108.0808	180	C7H10N+
109.0647	48	C7H9O+
109.0886	51	C7H11N+
109.1012	41	C8H13+
110.0598	19	C6H8NO+
112.0756	85	C6H10NO+
118.0651	729	C8H8N+
119.0729	605	C8H9N+
120.0807	785	C8H10N+
121.0886	188	C8H11N+
122.0963	173	C8H12N+
125.0959	95	C8H13O+
126.0911	12	C7H12NO+
134.0966	12	C9H12N+
135.0802	28	C9H11O+
136.0757	999	C8H10NO+
137.0834	108	C8H11NO+
138.0913	514	C8H12NO+
139.0751	65	C8H11O2+
148.1119	15	C10H14N+
152.1071	33	C9H14NO+
153.091	103	C9H13O2+
154.0862	151	C8H12NO2+
164.107	26	C10H14NO+
178.1225	60	C11H16NO+
190.1217	13	C12H16NO+
192.1391	16	C12H18NO+
202.1227	20	C13H16NO+
211.1331	31	C12H19O3+
218.1174	30	C13H16NO2+
218.1545	29	C14H20NO+
220.1332	172	C13H18NO2+
246.1486	56	C15H20NO2+
248.1647	19	C15H22NO2+
254.1384	29	C13H20NO4+
324.1802	35	C17H26NO5+
352.1757	132	C18H26NO6+
