Mass spectrum: Senkirkine; LC-ESI-ITFT; MS2; CE: 45%; R=15000; [M+H]+
Name: Senkirkine
Name: (1R,4Z,6R,7R,11Z)-4-Ethylidene-7-hydroxy-6,7,14-trimethyl-2,9-dioxa-14-azabicyclo[9.5.1]heptadec-11-ene-3,8,17-trione
Formula: C19H27NO6
Exact mass: 365.1838
SMILES: C/C=C\1/C[C@H]([C@@](C(=O)OC/C/2=C/CN(CC[C@H](C2=O)OC1=O)C)(C)O)C
InChI: InChI=1S/C19H27NO6/c1-5-13-10-12(2)19(3,24)18(23)25-11-14-6-8-20(4)9-7-15(16(14)21)26-17(13)22/h5-6,12,15,24H,7-11H2,1-4H3/b13-5-,14-6-/t12-,15-,19-/m1/s1
Instrument: LTQ Orbitrap XL Thermo Scientific
Instrument type: LC-ESI-ITFT
Ms type: MS2
Ion mode: POSITIVE
Ionization: ESI
Fragmentation mode: CID
Collision energy: 45 % (nominal)
Resolution: 15000
Column name: Kinetex Evo C18 2.6 um 50x2.1 mm, Phenomenex
Retention time: 6.974 min
Base peak: 366.1909
Precursor m/z: 366.1911
Precursor type: [M+H]+
m/z	relative intensity	assigned
108.0809	9	C7H10N+
117.0574	10	C8H7N+
122.0602	223	C7H8NO+
122.0965	103	C8H12N+
123.0678	9	C7H9NO+
124.0758	50	C7H10NO+
125.0599	43	C7H9O2+
125.0964	15	C8H13O+
132.0808	11	C9H10N+
134.0603	7	C8H8NO+
135.0805	27	C9H11O+
137.0835	39	C8H11NO+
138.0916	16	C8H12NO+
150.0915	879	C9H12NO+
153.0912	58	C9H13O2+
168.1021	999	C9H14NO2+
181.0855	10	C10H13O3+
186.1123	10	C9H16NO3+
220.1341	14	C13H18NO2+
248.1291	12	C14H18NO3+
250.144	13	C14H20NO3+
268.1544	28	C14H22NO4+
304.1909	43	C18H26NO3+
318.1701	23	C18H24NO4+
320.1493	17	C17H22NO5+
320.1857	37	C18H26NO4+
322.2021	13	C18H28NO4+
330.1685	9	C19H24NO4+
338.1968	75	C18H28NO5+
348.1808	125	C19H26NO5+
