Mass spectrum: Angustifoline; LC-ESI-ITFT; MS2; CE: 20%; R=15000; [M+H]+
Name: Angustifoline
Name: (2R,10S)-10-prop-2-enyl-7,11-diazatricyclo[7.3.1.0^{2,7}]tridecan-6-one
Formula: C14H22N2O
Exact mass: 234.1732
SMILES: C=CC[C@@H]1NCC2CC1CN1[C@@H]2CCCC1=O
InChI: InChI=1S/C14H22N2O/c1-2-4-12-11-7-10(8-15-12)13-5-3-6-14(17)16(13)9-11/h2,10-13,15H,1,3-9H2/t10?,11?,12-,13+/m0/s1
Instrument: LTQ Orbitrap XL Thermo Scientific
Instrument type: LC-ESI-ITFT
Ms type: MS2
Ion mode: POSITIVE
Ionization: ESI
Fragmentation mode: CID
Collision energy: 20 % (nominal)
Resolution: 15000
Column name: Synergi Polar RP, 2.5 um 100x3.0 mm, Phenomenex
Retention time: 7.399 min
Base peak: 195.0845
Precursor m/z: 235.1805
Precursor type: [M+H]+
m/z	relative intensity	assigned
112.0758	4	C6H10NO+
136.1121	11	C9H14N+
138.1278	2	C9H16N+
150.0914	5	C9H12NO+
166.1228	1	C10H16NO+
192.1382	2	C12H18NO+
193.1336	97	C11H17N2O+
206.1539	1	C13H20NO+
217.17	33	C14H21N2+
235.1805	999	C14H23N2O+
