Mass spectrum: 6-beta-Hydroxycortisol; LC-ESI-ITFT; MS2; CE: 85%; R=15000; [M+H]+
Name: 6-beta-Hydroxycortisol
Name: 6beta-Hydroxycortisol
Name: (6R,8S,9S,10R,11S,13S,14S,17R)-6,11,17-trihydroxy-17-(2-hydroxyacetyl)-10,13-dimethyl-2,6,7,8,9,11,12,14,15,16-decahydro-1H-cyclopenta[a]phenanthren-3-one
Formula: C21H30O6
Exact mass: 378.2042
SMILES: C[C@]12C[C@H](O)[C@H]3[C@@H](C[C@@H](O)C4=CC(=O)CC[C@]34C)[C@@H]1CC[C@]2(O)C(=O)CO
InChI: InChI=1S/C21H30O6/c1-19-5-3-11(23)7-14(19)15(24)8-12-13-4-6-21(27,17(26)10-22)20(13,2)9-16(25)18(12)19/h7,12-13,15-16,18,22,24-25,27H,3-6,8-10H2,1-2H3/t12-,13-,15+,16-,18+,19-,20-,21-/m0/s1
Instrument: LTQ Orbitrap XL Thermo Scientific
Instrument type: LC-ESI-ITFT
Ms type: MS2
Ion mode: POSITIVE
Ionization: ESI
Fragmentation mode: CID
Collision energy: 85 % (nominal)
Resolution: 15000
Column name: Kinetex Evo C18 2.6 um 50 x 2.1 mm
Retention time: 6.511 min
Base peak: 379.2119
Precursor m/z: 379.2115
Precursor type: [M+H]+
m/z	relative intensity	assigned
135.0809	8	C9H11O+
143.0858	10	C11H11+
157.1015	10	C12H13+
159.0809	11	C11H11O+
169.1009	15	C13H13+
171.0802	18	C12H11O+
173.0967	23	C12H13O+
175.1119	13	C12H15O+
181.1018	9	C14H13+
183.1171	9	C14H15+
185.0961	12	C13H13O+
187.112	19	C13H15O+
189.0911	18	C12H13O2+
195.1171	24	C15H15+
197.096	17	C14H13O+
197.1327	14	C15H17+
199.1119	25	C14H15O+
201.1281	8	C14H17O+
207.1173	27	C16H15+
209.1334	20	C16H17+
211.1119	27	C15H15O+
211.1474	11	C16H19+
213.1274	32	C15H17O+
215.1068	11	C14H15O2+
215.1431	13	C15H19O+
217.1224	31	C14H17O2+
219.1162	10	C17H15+
221.1326	44	C17H17+
223.1117	38	C16H15O+
223.1487	28	C17H19+
225.1276	31	C16H17O+
227.1434	24	C16H19O+
229.1223	20	C15H17O2+
231.1379	8	C15H19O2+
235.1486	23	C18H19+
237.1278	77	C17H17O+
237.1647	26	C18H21+
239.1432	184	C17H19O+
241.1217	19	C16H17O2+
241.159	25	C17H21O+
243.138	12	C16H19O2+
245.1327	17	C19H17+
247.1121	7	C18H15O+
247.133	21	C15H19O3+
247.1482	94	C19H19+
249.1275	76	C18H17O+
249.1641	39	C19H21+
251.1426	27	C18H19O+
253.1591	28	C18H21O+
255.1379	37	C17H19O2+
255.175	20	C18H23O+
257.1538	43	C17H21O2+
259.1482	15	C20H19+
261.164	59	C20H21+
263.1432	64	C19H19O+
265.1589	244	C19H21O+
267.1382	57	C18H19O2+
267.1746	202	C19H23O+
269.1533	33	C18H21O2+
271.1478	21	C21H19+
277.1586	67	C20H21O+
279.1378	17	C19H19O2+
279.1745	166	C20H23O+
281.1542	38	C19H21O2+
283.1693	385	C19H23O2+
285.1482	23	C18H21O3+
285.185	147	C19H25O2+
289.1589	173	C21H21O+
295.1693	223	C20H23O2+
297.1852	225	C20H25O2+
299.1642	21	C19H23O3+
301.1802	49	C19H25O3+
303.1965	15	C19H27O3+
307.1694	472	C21H23O2+
313.1799	539	C20H25O3+
315.1955	57	C20H27O3+
317.1748	19	C19H25O4+
325.1799	878	C21H25O3+
331.1903	164	C20H27O4+
343.1904	999	C21H27O4+
349.2009	50	C20H29O5+
361.201	672	C21H29O5+
