Mass spectrum: Huperzin A; LC-ESI-ITFT; MS2; CE: 40%; R=15000; [M+H]+
Name: Huperzin A
Name: (-)-Huperazine A
Name: (1R,9R,13E)-1-amino-13-ethylidene-11-methyl-6-azatricyclo[7.3.1.02,7]trideca-2(7),3,10-trien-5-one
Formula: C15H18N2O
Exact mass: 242.1419
SMILES: C/C=C/1\[C@@H]2CC3=C([C@]1(CC(=C2)C)N)C=CC(=O)N3
InChI: InChI=1S/C15H18N2O/c1-3-11-10-6-9(2)8-15(11,16)12-4-5-14(18)17-13(12)7-10/h3-6,10H,7-8,16H2,1-2H3,(H,17,18)/b11-3+/t10-,15+/m0/s1
Instrument: LTQ Orbitrap XL Thermo Scientific
Instrument type: LC-ESI-ITFT
Ms type: MS2
Ion mode: POSITIVE
Ionization: ESI
Fragmentation mode: HCD
Collision energy: 40% (nominal)
Resolution: 15000
Column name: Kinetex Evo C18 2.6 um 50 x 2.1 mm
Retention time: 1.536 min
Base peak: 143.0015
Precursor m/z: 243.1492
Precursor type: [M+H]+
m/z	relative intensity	assigned
210.0914	10	C14H12NO+
211.0989	10	C14H13NO+
226.1228	138	C15H16NO+
243.1493	999	C15H19N2O+
