Mass spectrum: (-)-Scopolamine; LC-ESI-ITFT; MS2; CE: 45%; R=15000; [M+H]+
Name: (-)-Scopolamine
Formula: C17H21NO4
Exact mass: 303.1471
SMILES: CN1[C@@H]2C[C@H](C[C@H]1[C@H]3[C@@H]2O3)OC(=O)[C@H](CO)c4ccccc4
InChI: InChI=1S/C17H21NO4/c1-18-13-7-11(8-14(18)16-15(13)22-16)21-17(20)12(9-19)10-5-3-2-4-6-10/h2-6,11-16,19H,7-9H2,1H3/t11-,12-,13-,14+,15-,16+/m1/s1
Instrument: LTQ Orbitrap XL Thermo Scientific
Instrument type: LC-ESI-ITFT
Ms type: MS2
Ion mode: POSITIVE
Ionization: ESI
Fragmentation mode: HCD
Collision energy: 45% (nominal)
Resolution: 15000
Column name: Kinetex Evo C18 2.6 um 50 x 2.1 mm
Retention time: 1.124 min
Base peak: 304.1542
Precursor m/z: 304.1543
Precursor type: [M+H]+
m/z	relative intensity	assigned
70.065	3	C4H8N+
74.0598	6	C3H8NO+
79.0543	44	C6H7+
81.0335	6	C5H5O+
81.0697	4	C6H9+
82.0652	17	C5H8N+
83.0492	12	C5H7O+
84.0808	14	C5H10N+
91.0542	5	C7H7+
93.0699	11	C7H9+
94.0653	11	C6H8N+
96.0444	5	C5H6NO+
96.0808	5	C6H10N+
97.0523	5	C5H7NO+
98.0601	91	C5H8NO+
103.0542	85	C8H7+
107.0493	6	C7H7O+
108.0804	4	C7H10N+
110.0601	10	C6H8NO+
110.0964	127	C7H12N+
120.0808	12	C8H10N+
121.0648	458	C8H9O+
138.0914	999	C8H12NO+
156.102	531	C8H14NO2+
159.1046	3	C11H13N+
274.1439	3	C16H20NO3+
304.1546	277	C17H22NO4+
