Mass spectrum: Seneciphylline N-oxide; LC-ESI-ITFT; MS2; CE: 35%; R=15000; [M+H]+
Name: Seneciphylline N-oxide
Name: (1R,4E,7R,17R)-4-ethylidene-7-hydroxy-7-methyl-6-methylidene-14-oxido-2,9-dioxa-14-azoniatricyclo[9.5.1.014,17]heptadec-11-ene-3,8-dione
Formula: C18H23NO6
Exact mass: 349.1525
SMILES: C/C=C/1\CC(=C)[C@@](C(=O)OCC2=CC[N+]3([C@H]2[C@@H](CC3)OC1=O)[O-])(C)O
InChI: InChI=1S/C18H23NO6/c1-4-12-9-11(2)18(3,22)17(21)24-10-13-5-7-19(23)8-6-14(15(13)19)25-16(12)20/h4-5,14-15,22H,2,6-10H2,1,3H3/b12-4+/t14-,15-,18-,19?/m1/s1
Instrument: LTQ Orbitrap XL Thermo Scientific
Instrument type: LC-ESI-ITFT
Ms type: MS2
Ion mode: POSITIVE
Ionization: ESI
Fragmentation mode: HCD
Collision energy: 35% (nominal)
Resolution: 15000
Column name: Kinetex Evo C18 2.6 um 50 x 2.1 mm
Retention time: 2.971 min
Base peak: 350.1596
Precursor m/z: 350.1598
Precursor type: [M+H]+
m/z	relative intensity	assigned
80.0495	1	C5H6N+
94.0651	6	C6H8N+
95.0729	17	C6H9N+
106.0651	3	C7H8N+
107.0492	3	C7H7O+
109.0648	1	C7H9O+
112.0755	1	C6H10NO+
118.0651	32	C8H8N+
119.073	27	C8H9N+
120.0808	32	C8H10N+
121.0887	9	C8H11N+
122.0728	2	C8H10O+
122.0966	3	C8H12N+
136.0757	14	C8H10NO+
137.0835	3	C8H11NO+
138.0914	17	C8H12NO+
139.0991	3	C8H13NO+
151.0755	4	C9H11O2+
154.0863	15	C8H12NO2+
167.0706	2	C9H11O3+
246.1487	6	C15H20NO2+
322.1642	11	C17H24NO5+
350.1599	999	C18H24NO6+
