Mass spectrum: (+)-Lupanine; LC-ESI-ITFT; MS2; CE: 45%; R=15000; [M+H]+
Name: (+)-Lupanine
Formula: C15H24N2O
Exact mass: 248.1889
SMILES: C1CCN2CC3CC(C2C1)CN4C3CCCC4=O
InChI: InChI=1S/C15H24N2O/c18-15-6-3-5-14-11-8-12(10-17(14)15)13-4-1-2-7-16(13)9-11/h11-14H,1-10H2
Instrument: LTQ Orbitrap XL Thermo Scientific
Instrument type: LC-ESI-ITFT
Ms type: MS2
Ion mode: POSITIVE
Ionization: ESI
Fragmentation mode: CID
Collision energy: 45 % (nominal)
Resolution: 15000
Column name: Kinetex Evo C18 2.6 um 50 x 2.1 mm
Retention time: 0.484 min
Base peak: 249.1958
Precursor m/z: 249.1961
Precursor type: [M+H]+
m/z	relative intensity	assigned
70.065	4	C4H8N+
77.0385	2	C6H5+
79.0543	5	C6H7+
80.0495	23	C5H6N+
82.0653	3	C5H8N+
84.0808	20	C5H10N+
85.0648	4	C5H9O+
91.0542	20	C7H7+
93.0699	5	C7H9+
94.0652	17	C6H8N+
96.0808	96	C6H10N+
98.0964	96	C6H12N+
100.0757	4	C5H10NO+
105.0698	23	C8H9+
107.0855	6	C8H11+
108.0808	16	C7H10N+
110.0964	11	C7H12N+
112.0757	60	C6H10NO+
112.1122	4	C7H14N+
114.0913	286	C6H12NO+
117.0699	3	C9H9+
119.0855	5	C9H11+
120.0808	3	C8H10N+
121.1011	4	C9H13+
122.0964	33	C8H12N+
124.0757	9	C7H10NO+
124.1121	20	C8H14N+
131.0858	5	C10H11+
133.1013	13	C10H13+
134.0965	145	C9H12N+
135.1043	4	C9H13N+
136.1121	999	C9H14N+
138.0913	8	C8H12NO+
138.1278	11	C9H16N+
141.0697	4	C11H9+
145.1013	8	C11H13+
146.0964	5	C10H12N+
148.0758	13	C9H10NO+
148.1121	60	C10H14N+
150.0914	14	C9H12NO+
150.1277	248	C10H16N+
152.107	43	C9H14NO+
152.1434	31	C10H18N+
159.1169	8	C12H15+
162.0914	7	C10H12NO+
162.1279	13	C11H16N+
164.1073	7	C10H14NO+
164.1431	4	C11H18N+
166.1227	37	C10H16NO+
169.1014	5	C13H13+
173.1319	2	C13H17+
174.1278	26	C12H16N+
176.1069	7	C11H14NO+
176.1434	31	C12H18N+
178.1229	8	C11H16NO+
183.1171	3	C14H15+
186.1277	3	C13H16N+
187.1112	3	C13H15O+
188.1435	10	C13H18N+
189.1387	51	C12H17N2+
190.1464	3	C12H18N2+
190.159	11	C13H20N+
193.1704	3	C12H21N2+
200.1433	10	C14H18N+
204.1383	107	C13H18NO+
206.1539	25	C13H20NO+
218.154	27	C14H20NO+
220.1695	3	C14H22NO+
229.17	8	C15H21N2+
231.1856	379	C15H23N2+
