Mass spectrum: Jacobine N-oxide; LC-ESI-ITFT; MS2; CE: 35%; R=15000; [M+H]+
Name: Jacobine N-oxide
Name: (1R,3`S,4S,6R,7R,17R)-7-hydroxy-3`,6,7-trimethyl-14-oxidospiro[2,9-dioxa-14-azoniatricyclo[9.5.1.014,17]heptadec-11-ene-4,2`-oxirane]-3,8-dione
Formula: C18H25NO7
Exact mass: 367.1631
SMILES: C[C@@H]1C[C@]2([C@@H](O2)C)C(=O)O[C@@H]3CC[N+]4([C@@H]3C(=CC4)COC(=O)[C@]1(C)O)[O-]
InChI: InChI=1S/C18H25NO7/c1-10-8-18(11(2)26-18)16(21)25-13-5-7-19(23)6-4-12(14(13)19)9-24-15(20)17(10,3)22/h4,10-11,13-14,22H,5-9H2,1-3H3/t10-,11+,13-,14-,17-,18+,19?/m1/s1
Instrument: LTQ Orbitrap XL Thermo Scientific
Instrument type: LC-ESI-ITFT
Ms type: MS2
Ion mode: POSITIVE
Ionization: ESI
Fragmentation mode: HCD
Collision energy: 35% (nominal)
Resolution: 15000
Column name: Kinetex Evo C18 2.6 um 50 x 2.1 mm
Retention time: 1.290 min
Base peak: 143.0015
Precursor m/z: 368.1704
Precursor type: [M+H]+
m/z	relative intensity	assigned
93.0698	2	C7H9+
94.0652	3	C6H8N+
95.0731	15	C6H9N+
106.0652	3	C7H8N+
108.0812	2	C7H10N+
118.0652	20	C8H8N+
119.073	19	C8H9N+
120.0808	49	C8H10N+
121.0887	20	C8H11N+
122.0965	12	C8H12N+
136.0758	13	C8H10NO+
138.0915	12	C8H12NO+
139.0992	36	C8H13NO+
154.0863	5	C8H12NO2+
156.1024	8	C8H14NO2+
218.1538	3	C14H20NO+
236.1273	2	C13H18NO3+
280.1545	5	C15H22NO4+
296.1494	263	C15H22NO5+
324.1444	20	C16H22NO6+
340.177	3	C17H26NO6+
368.1705	999	C18H26NO7+
