Mass spectrum: Coumarin; LC-ESI-ITFT; MS2; CE: 15%; R=15000; [M+H]+
Name: Coumarin
Name: chromen-2-one
Formula: C9H6O2
Exact mass: 146.0368
SMILES: O=C1OC2=CC=CC=C2C=C1
InChI: InChI=1S/C9H6O2/c10-9-6-5-7-3-1-2-4-8(7)11-9/h1-6H
Instrument: LTQ Orbitrap XL Thermo Scientific
Instrument type: LC-ESI-ITFT
Ms type: MS2
Ion mode: POSITIVE
Ionization: ESI
Fragmentation mode: HCD
Collision energy: 15% (nominal)
Resolution: 15000
Column name: Kinetex Evo C18 2.6 um 50x2.1 mm, Phenomenex
Retention time: 7.074 min
Base peak: 116.9858
Precursor m/z: 147.0441
Precursor type: [M+H]+
m/z	relative intensity	assigned
147.044	999	C9H7O2+
