Mass spectrum: Alpinetin; LC-ESI-ITFT; MS2; CE: 50%; R=15000; [M+H]+
Name: Alpinetin
Formula: C16H14O4
Exact mass: 270.0892
SMILES: COC1=C2C(=O)CC(OC2=CC(=C1)O)C3=CC=CC=C3
InChI: InChI=1S/C16H14O4/c1-19-14-7-11(17)8-15-16(14)12(18)9-13(20-15)10-5-3-2-4-6-10/h2-8,13,17H,9H2,1H3
Instrument: LTQ Orbitrap XL Thermo Scientific
Instrument type: LC-ESI-ITFT
Ms type: MS2
Ion mode: POSITIVE
Ionization: ESI
Fragmentation mode: CID
Collision energy: 50 % (nominal)
Resolution: 15000
Column name: Kinetex Evo C18 2.6 um 50x2.1 mm, Phenomenex
Retention time: 10.235 min
Base peak: 271.0964
Precursor m/z: 271.0965
Precursor type: [M+H]+
m/z	relative intensity	assigned
91.0544	1	C7H7+
103.0543	2	C8H7+
131.0492	57	C9H7O+
152.0105	2	C7H4O4+
165.0548	1	C9H9O3+
167.034	999	C8H7O4+
169.0649	1	C12H9O+
171.0804	1	C12H11O+
197.0602	1	C13H9O2+
201.091	2	C13H13O2+
203.1068	5	C13H15O2+
211.0754	1	C14H11O2+
225.0911	1	C15H13O2+
227.1071	1	C15H15O2+
229.0861	98	C14H13O3+
239.0702	1	C15H11O3+
253.0861	13	C16H13O3+
