Mass spectrum: Conessine; LC-ESI-ITFT; MS2; CE: 125%; R=15000; [M+H]+
Name: Conessine
Formula: C24H40N2
Exact mass: 356.3191
SMILES: C[C@H]1[C@H]2CC[C@H]3[C@@H]4CC=C5C[C@H](CC[C@]5(C)[C@H]4CC[C@]23CN1C)N(C)C
InChI: InChI=1S/C24H40N2/c1-16-20-8-9-22-19-7-6-17-14-18(25(3)4)10-12-23(17,2)21(19)11-13-24(20,22)15-26(16)5/h6,16,18-22H,7-15H2,1-5H3/t16-,18-,19+,20+,21-,22-,23-,24-/m0/s1
Instrument: LTQ Orbitrap XL Thermo Scientific
Instrument type: LC-ESI-ITFT
Ms type: MS2
Ion mode: POSITIVE
Ionization: ESI
Fragmentation mode: HCD
Collision energy: 125 % (nominal)
Resolution: 15000
Column name: Kinetex Evo C18 2.6 um 50 x 2.1 mm
Retention time: 5.398 min
Base peak: 179.1666
Precursor m/z: 357.3264
Precursor type: [M+H]+
m/z	relative intensity	assigned
58.0651	24	C3H8N+
65.0386	21	C5H5+
67.0542	248	C5H7+
70.0652	35	C4H8N+
72.0808	25	C4H10N+
77.0386	211	C6H5+
79.0542	409	C6H7+
81.0699	295	C6H9+
84.0808	999	C5H10N+
91.0542	866	C7H7+
93.0698	242	C7H9+
95.0856	59	C7H11+
103.0542	41	C8H7+
105.0445	56	C6H5N2+
105.0698	600	C8H9+
107.0854	49	C8H11+
115.0542	124	C9H7+
116.0618	61	C9H8+
117.0699	203	C9H9+
118.0782	26	C9H10+
119.0856	160	C9H11+
128.0621	108	C10H8+
129.0698	236	C10H9+
130.0776	76	C10H10+
131.0856	137	C10H11+
136.112	26	C9H14N+
141.0697	61	C11H9+
142.0777	71	C11H10+
143.0854	63	C11H11+
144.0927	25	C11H12+
145.1012	46	C11H13+
155.0856	26	C12H11+
157.1019	25	C12H13+
169.1006	16	C13H13+
