Mass spectrum: Cevadine; LC-ESI-ITFT; MS2; CE: 75%; R=15000; [M+H]+
Name: Cevadine
Name: Veratrine
Name: [(1R,2S,6S,9S,10R,11S,12S,14R,15S,18S,19S,22S,23S,25R)-1,10,11,12,14,23-hexahydroxy-6,10,19-trimethyl-24-oxa-4-azaheptacyclo[12.12.0.02,11.04,9.015,25.018,23.019,25]hexacosan-22-yl] (Z)-2-methylbut-2-enoate
Formula: C32H49NO9
Exact mass: 591.3407
SMILES: C/C=C(/C)\C(=O)O[C@H]1CC[C@]2([C@H]3[C@@]1(O[C@@]24C[C@]5([C@@H]6CN7C[C@H](CC[C@H]7[C@@]([C@]6([C@H](C[C@]5([C@@H]4CC3)O)O)O)(C)O)C)O)O)C
InChI: InChI=1S/C32H49NO9/c1-6-18(3)25(35)41-24-11-12-26(4)19-8-9-20-28(37)13-23(34)31(39)21(29(28,38)16-30(20,26)42-32(19,24)40)15-33-14-17(2)7-10-22(33)27(31,5)36/h6,17,19-24,34,36-40H,7-16H2,1-5H3/b18-6-/t17-,19-,20-,21-,22-,23-,24-,26-,27+,28+,29+,30+,31-,32-/m0/s1
Instrument: LTQ Orbitrap XL Thermo Scientific
Instrument type: LC-ESI-ITFT
Ms type: MS2
Ion mode: POSITIVE
Ionization: ESI
Fragmentation mode: HCD
Collision energy: 75% (nominal)
Resolution: 15000
Column name: Kinetex Evo C18 2.6 um 50 x 2.1 mm
Retention time: 9.283 min
Base peak: 592.3471
Precursor m/z: 592.348
Precursor type: [M+H]+
m/z	relative intensity	assigned
55.0541	177	C4H7+
68.0493	14	C4H6N+
69.0697	12	C5H9+
70.0651	12	C4H8N+
79.0541	22	C6H7+
81.0338	8	C5H5O+
81.0698	41	C6H9+
82.0652	25	C5H8N+
83.0491	419	C5H7O+
84.0807	50	C5H10N+
91.0541	13	C7H7+
93.0699	31	C7H9+
94.0649	14	C6H8N+
95.0856	14	C7H11+
96.0807	84	C6H10N+
97.0649	9	C6H9O+
98.0964	298	C6H12N+
105.0699	39	C8H9+
107.0853	26	C8H11+
108.0807	28	C7H10N+
109.0648	63	C7H9O+
110.0963	146	C7H12N+
111.1042	29	C7H13N+
112.1121	48	C7H14N+
117.0697	12	C9H9+
119.0856	24	C9H11+
120.0807	25	C8H10N+
121.0649	34	C8H9O+
121.0887	10	C8H11N+
122.0597	10	C7H8NO+
122.0964	68	C8H12N+
124.112	161	C8H14N+
125.1199	85	C8H15N+
126.0911	29	C7H12NO+
126.1276	206	C8H16N+
128.107	30	C7H14NO+
129.0697	11	C10H9+
131.0853	27	C10H11+
132.0809	43	C9H10N+
133.0881	11	C9H11N+
133.1011	31	C10H13+
134.0963	37	C9H12N+
136.112	108	C9H14N+
137.1198	52	C9H15N+
138.1276	999	C9H16N+
140.1069	12	C8H14NO+
142.1224	14	C8H16NO+
143.0855	31	C11H11+
145.0647	13	C10H9O+
145.101	28	C11H13+
146.0963	70	C10H12N+
147.0801	22	C10H11O+
147.1041	35	C10H13N+
147.1164	11	C11H15+
148.112	170	C10H14N+
149.096	9	C10H13O+
149.1198	80	C10H15N+
150.1276	210	C10H16N+
152.1068	56	C9H14NO+
154.1226	140	C9H16NO+
155.0854	13	C12H11+
157.1013	30	C12H13+
158.0965	17	C11H12N+
159.0803	28	C11H11O+
159.1045	10	C11H13N+
159.1169	14	C12H15+
160.1121	109	C11H14N+
161.096	22	C11H13O+
161.1198	101	C11H15N+
162.1277	697	C11H16N+
163.1348	122	C11H17N+
164.1069	96	C10H14NO+
164.1433	650	C11H18N+
166.1226	16	C10H16NO+
167.0861	10	C13H11+
169.1014	18	C13H13+
171.0802	10	C12H11O+
171.1172	13	C13H15+
173.0959	17	C12H13O+
173.1201	20	C12H15N+
174.1276	383	C12H16N+
175.1352	88	C12H17N+
176.1069	57	C11H14NO+
176.1432	63	C12H18N+
177.1147	33	C11H15NO+
177.1487	10	C9H21O3+
178.1225	150	C11H16NO+
179.1302	26	C11H17NO+
180.1382	134	C11H18NO+
181.1012	21	C14H13+
182.1176	21	C10H16NO2+
183.08	10	C13H11O+
183.1161	20	C14H15+
185.0961	23	C13H13O+
185.1319	16	C14H17+
186.1275	43	C13H16N+
187.1115	13	C13H15O+
187.1359	17	C13H17N+
188.1432	781	C13H18N+
189.115	18	C12H15NO+
190.1224	218	C12H16NO+
190.1592	41	C13H20N+
191.1305	174	C12H17NO+
192.1382	271	C12H18NO+
193.101	10	C15H13+
193.1462	149	C12H19NO+
195.1168	15	C15H15+
197.0958	13	C14H13O+
199.1116	22	C14H15O+
199.1362	11	C14H17N+
200.1433	28	C14H18N+
201.1269	15	C14H17O+
204.1381	110	C13H18NO+
206.1183	10	C12H16NO2+
206.1538	167	C13H20NO+
208.1694	530	C13H22NO+
209.096	12	C15H13O+
211.1114	19	C15H15O+
212.143	16	C15H18N+
213.1275	19	C15H17O+
214.1588	12	C15H20N+
215.13	10	C14H17NO+
216.1379	18	C14H18NO+
218.1548	17	C14H20NO+
220.1325	15	C13H18NO2+
224.1443	11	C16H18N+
225.127	12	C16H17O+
227.1303	12	C15H17NO+
228.1389	14	C15H18NO+
234.1486	52	C14H20NO2+
242.1539	13	C16H20NO+
244.1328	18	C15H18NO2+
250.1589	11	C18H20N+
260.1642	35	C16H22NO2+
262.1436	39	C15H20NO3+
263.1512	29	C15H21NO3+
264.1603	15	C15H22NO3+
264.1753	15	C19H22N+
266.1544	16	C18H20NO+
266.1916	9	C19H24N+
280.1546	16	C15H22NO4+
280.1688	12	C19H22NO+
281.1624	39	C15H23NO4+
294.1847	23	C20H24NO+
304.205	11	C22H26N+
334.217	13	C23H28NO+
366.2431	11	C24H32NO2+
374.2489	12	C26H32NO+
376.2268	18	C25H30NO2+
378.2431	34	C25H32NO2+
390.205	22	C22H30O6+
390.2416	11	C26H32NO2+
392.2579	52	C26H34NO2+
393.2639	13	C23H37O5+
394.2366	21	C25H32NO3+
402.2436	45	C27H32NO2+
403.2482	10	C24H35O5+
404.2214	10	C26H30NO3+
406.2384	10	C26H32NO3+
408.2523	11	C26H34NO3+
410.2687	19	C26H36NO3+
420.2527	138	C27H34NO3+
438.2635	269	C27H36NO4+
440.2437	43	C26H34NO5+
441.248	12	C23H37O8+
454.2587	31	C27H36NO5+
455.2625	11	C24H39O8+
456.274	286	C27H38NO5+
474.2864	17	C27H40NO6+
522.1668	17	C32H26O7+
