Mass spectrum: Sophocarpine; LC-ESI-ITFT; MS2; CE: 85%; R=15000; [M+H]+
Name: Sophocarpine
Name: (1R,2R,9S,17S)-7,13-diazatetracyclo[7.7.1.02,7.013,17]heptadec-4-en-6-one
Formula: C15H22N2O
Exact mass: 246.1732
SMILES: C1C[C@H]2CN3[C@H](CC=CC3=O)[C@@H]4[C@H]2N(C1)CCC4
InChI: InChI=1S/C15H22N2O/c18-14-7-1-6-13-12-5-3-9-16-8-2-4-11(15(12)16)10-17(13)14/h1,7,11-13,15H,2-6,8-10H2/t11-,12+,13+,15-/m0/s1
Instrument: LTQ Orbitrap XL Thermo Scientific
Instrument type: LC-ESI-ITFT
Ms type: MS2
Ion mode: POSITIVE
Ionization: ESI
Fragmentation mode: HCD
Collision energy: 85% (nominal)
Resolution: 15000
Column name: Kinetex Evo C18 2.6 um 50 x 2.1 mm
Retention time: 0.710 min
Base peak: 143.0015
Precursor m/z: 247.1805
Precursor type: [M+H]+
m/z	relative intensity	assigned
68.0493	8	C4H6N+
70.0651	26	C4H8N+
79.0544	12	C6H7+
80.0494	10	C5H6N+
81.0334	10	C5H5O+
82.0652	18	C5H8N+
84.0809	27	C5H10N+
91.0541	12	C7H7+
93.0698	9	C7H9+
94.0651	12	C6H8N+
96.0808	869	C6H10N+
98.0964	90	C6H12N+
100.1119	7	C6H14N+
105.0701	5	C8H9+
108.0442	9	C6H6NO+
108.0808	137	C7H10N+
109.0522	7	C6H7NO+
110.06	50	C6H8NO+
110.0964	38	C7H12N+
112.112	10	C7H14N+
119.0854	7	C9H11+
120.0808	17	C8H10N+
122.0602	35	C7H8NO+
122.0964	43	C8H12N+
124.1124	13	C8H14N+
134.0601	20	C8H8NO+
134.0967	14	C9H12N+
136.1121	999	C9H14N+
138.1278	75	C9H16N+
146.06	23	C9H8NO+
147.0678	8	C9H9NO+
148.0757	41	C9H10NO+
148.1121	71	C10H14N+
149.12	17	C10H15N+
150.0912	28	C9H12NO+
150.1278	275	C10H16N+
152.1435	37	C10H18N+
160.0759	22	C10H10NO+
162.0914	35	C10H12NO+
162.1277	21	C11H16N+
164.1072	17	C10H14NO+
174.0915	16	C11H12NO+
176.1072	18	C11H14NO+
179.1543	702	C11H19N2+
186.0916	7	C12H12NO+
187.099	6	C12H13NO+
188.1075	12	C12H14NO+
191.118	16	C11H15N2O+
202.123	14	C13H16NO+
227.1545	15	C15H19N2+
228.1382	14	C15H18NO+
229.1697	15	C15H21N2+
230.1535	9	C15H20NO+
245.1648	353	C15H21N2O+
247.1804	450	C15H23N2O+
