Mass spectrum: Citrinin; LC-ESI-ITFT; MS2; CE: 100%; R=15000; [M+H]+
Name: Citrinin
Formula: C13H14O5
Exact mass: 250.0841
SMILES: C[C@H]1OC=C2C(O)=C(C(O)=O)C(=O)C(C)=C2[C@@H]1C
InChI: InChI=1S/C13H14O5/c1-5-7(3)18-4-8-9(5)6(2)11(14)10(12(8)15)13(16)17/h4-5,7,15H,1-3H3,(H,16,17)/t5-,7-/m1/s1
Instrument: LTQ Orbitrap XL Thermo Scientific
Instrument type: LC-ESI-ITFT
Ms type: MS2
Ion mode: POSITIVE
Ionization: ESI
Fragmentation mode: HCD
Collision energy: 100 % (nominal)
Resolution: 15000
Column name: Kinetex Evo C18 2.6 um 50 x 2.1 mm
Retention time: 11.904 min
Base peak: 251.0911
Precursor m/z: 251.0914
Precursor type: [M+H]+
m/z	relative intensity	assigned
51.0228	11	C4H3+
65.0384	28	C5H5+
67.0542	98	C5H7+
68.9971	37	C3HO2+
77.0386	152	C6H5+
78.0465	26	C6H6+
79.0178	87	C5H3O+
79.0542	227	C6H7+
81.0699	29	C6H9+
83.0127	21	C4H3O2+
89.0385	10	C7H5+
91.0542	999	C7H7+
92.0619	16	C7H8+
93.0335	26	C6H5O+
93.0699	111	C7H9+
94.0415	8	C6H6O+
95.0491	40	C6H7O+
95.0855	162	C7H11+
102.0466	16	C8H6+
103.0542	94	C8H7+
104.0621	31	C8H8+
105.0335	36	C7H5O+
105.0698	187	C8H9+
106.0777	12	C8H10+
107.0127	80	C6H3O2+
107.0491	232	C7H7O+
107.0855	120	C8H11+
109.0647	32	C7H9O+
115.0542	321	C9H7+
116.062	308	C9H8+
117.0699	120	C9H9+
119.0491	132	C8H7O+
119.0855	312	C9H11+
120.057	76	C8H8O+
121.0647	64	C8H9O+
122.0727	23	C8H10O+
123.0805	31	C8H11O+
128.062	84	C10H8+
129.0699	99	C10H9+
130.0779	10	C10H10+
131.0491	24	C9H7O+
131.0855	188	C10H11+
132.0569	43	C9H8O+
133.0647	114	C9H9O+
134.0362	11	C8H6O2+
134.0726	55	C9H10O+
135.044	45	C8H7O2+
135.0804	53	C9H11O+
137.0961	27	C9H13O+
141.0699	82	C11H9+
144.057	129	C10H8O+
145.0284	24	C9H5O2+
145.0647	34	C10H9O+
147.044	138	C9H7O2+
147.0804	44	C10H11O+
148.0519	98	C9H8O2+
149.0234	7	C8H5O3+
149.0593	17	C9H9O2+
149.0962	7	C10H13O+
151.0384	6	C8H7O3+
157.0651	11	C11H9O+
159.0805	68	C11H11O+
161.0597	71	C10H9O2+
162.0675	117	C10H10O2+
163.0391	20	C9H7O3+
169.0651	50	C12H9O+
172.0517	35	C11H8O2+
175.039	139	C10H7O3+
177.0181	31	C9H5O4+
185.0234	40	C11H5O3+
189.0543	27	C11H9O3+
190.0625	41	C11H10O3+
203.0338	197	C11H7O4+
204.0417	22	C11H8O4+
205.0858	143	C12H13O3+
233.0801	22	C13H13O4+
