Mass spectrum: Bergapten/Heraclin; LC-ESI-ITFT; MS2; CE: 65%; R=15000; [M+H]+
Name: Bergapten/Heraclin
Formula: C12H8O4
Exact mass: 216.0423
SMILES: COC1=C2C=COC2=CC2=C1C=CC(=O)O2
InChI: InChI=1S/C12H8O4/c1-14-12-7-2-3-11(13)16-10(7)6-9-8(12)4-5-15-9/h2-6H,1H3
Instrument: LTQ Orbitrap XL Thermo Scientific
Instrument type: LC-ESI-ITFT
Ms type: MS2
Ion mode: POSITIVE
Ionization: ESI
Fragmentation mode: HCD
Collision energy: 65 % (nominal)
Resolution: 15000
Column name: Kinetex Evo C18 2.6 um 50 x 2.1 mm
Retention time: 9.958 min
Base peak: 217.0492
Precursor m/z: 217.0495
Precursor type: [M+H]+
m/z	relative intensity	assigned
91.0543	3	C7H7+
105.0697	14	C8H9+
115.0541	59	C9H7+
117.0697	13	C9H9+
131.049	44	C9H7O+
133.0648	9	C9H9O+
143.0489	8	C10H7O+
145.0645	9	C10H9O+
158.0361	9	C10H6O2+
161.0596	32	C10H9O2+
173.0597	26	C11H9O2+
174.0311	204	C10H6O3+
202.0259	999	C11H6O4+
217.0493	131	C12H9O4+
