Mass spectrum: Formononetin; LC-ESI-ITFT; MS2; CE: 40%; R=15000; [M+H]+
Name: Formononetin
Name: 7-hydroxy-3-(4-methoxyphenyl)chromen-4-one
Formula: C16H12O4
Exact mass: 268.0736
SMILES: COc1ccc(cc1)c2coc3cc(ccc3c2=O)O
InChI: InChI=1S/C16H12O4/c1-19-12-5-2-10(3-6-12)14-9-20-15-8-11(17)4-7-13(15)16(14)18/h2-9,17H,1H3
Instrument: LTQ Orbitrap XL Thermo Scientific
Instrument type: LC-ESI-ITFT
Ms type: MS2
Ion mode: POSITIVE
Ionization: ESI
Fragmentation mode: HCD
Collision energy: 40% (nominal)
Resolution: 15000
Column name: Kinetex Evo C18 2.6 um 50 x 2.1 mm
Retention time: 10.645 min
Base peak: 116.9858
Precursor m/z: 269.0808
Precursor type: [M+H]+
m/z	relative intensity	assigned
118.0408	3	C8H6O+
213.0909	20	C14H13O2+
237.0544	8	C15H9O3+
254.057	33	C15H10O4+
269.0808	999	C16H13O4+
