Mass spectrum: Senecionine; LC-ESI-ITFT; MS2; CE: 40%; R=15000; [M+H]+
Name: Senecionine
Name: (1R,4Z,6R,7R,17R)-4-ethylidene-7-hydroxy-6,7-dimethyl-2,9-dioxa-14-azatricyclo[9.5.1.014,17]heptadec-11-ene-3,8-dione
Formula: C18H25NO5
Exact mass: 335.1733
SMILES: C/C=C\1/C[C@H]([C@@](C(=O)OCC2=CCN3[C@H]2[C@@H](CC3)OC1=O)(C)O)C
InChI: InChI=1S/C18H25NO5/c1-4-12-9-11(2)18(3,22)17(21)23-10-13-5-7-19-8-6-14(15(13)19)24-16(12)20/h4-5,11,14-15,22H,6-10H2,1-3H3/b12-4-/t11-,14-,15-,18-/m1/s1
Instrument: LTQ Orbitrap XL Thermo Scientific
Instrument type: LC-ESI-ITFT
Ms type: MS2
Ion mode: POSITIVE
Ionization: ESI
Fragmentation mode: HCD
Collision energy: 40% (nominal)
Resolution: 15000
Column name: Kinetex Evo C18 2.6 um 50 x 2.1 mm
Retention time: 4.142 min
Base peak: 336.1804
Precursor m/z: 336.1805
Precursor type: [M+H]+
m/z	relative intensity	assigned
79.0541	2	C6H7+
94.0651	21	C6H8N+
108.0812	3	C7H10N+
120.0807	66	C8H10N+
122.0963	10	C8H12N+
125.0959	3	C8H13O+
138.0913	62	C8H12NO+
153.0908	8	C9H13O2+
290.1749	3	C17H24NO3+
292.1901	4	C17H26NO3+
308.1856	40	C17H26NO4+
336.1806	999	C18H26NO5+
