Mass spectrum: Alpinetin; LC-ESI-ITFT; MS2; CE: 60%; R=15000; [M+H]+
Name: Alpinetin
Formula: C16H14O4
Exact mass: 270.0892
SMILES: COC1=C2C(=O)CC(OC2=CC(=C1)O)C3=CC=CC=C3
InChI: InChI=1S/C16H14O4/c1-19-14-7-11(17)8-15-16(14)12(18)9-13(20-15)10-5-3-2-4-6-10/h2-8,13,17H,9H2,1H3
Instrument: LTQ Orbitrap XL Thermo Scientific
Instrument type: LC-ESI-ITFT
Ms type: MS2
Ion mode: POSITIVE
Ionization: ESI
Fragmentation mode: CID
Collision energy: 60 % (nominal)
Resolution: 15000
Column name: Kinetex Evo C18 2.6 um 50 x 2.1 mm
Retention time: 10.247 min
Base peak: 271.0964
Precursor m/z: 271.0965
Precursor type: [M+H]+
m/z	relative intensity	assigned
91.0544	1	C7H7+
103.0543	3	C8H7+
105.0339	1	C7H5O+
131.0493	56	C9H7O+
152.0107	3	C7H4O4+
165.0551	1	C9H9O3+
167.034	999	C8H7O4+
169.0645	1	C12H9O+
171.0805	1	C12H11O+
193.0499	1	C10H9O4+
197.06	1	C13H9O2+
201.0911	2	C13H13O2+
203.1068	5	C13H15O2+
211.0756	2	C14H11O2+
225.0913	1	C15H13O2+
227.1069	1	C15H15O2+
229.0862	93	C14H13O3+
239.0704	2	C15H11O3+
253.0862	13	C16H13O3+
