Mass spectrum: Cevadine; LC-ESI-ITFT; MS2; CE: 50%; R=15000; [M+H]+
Name: Cevadine
Name: Veratrine
Name: [(1R,2S,6S,9S,10R,11S,12S,14R,15S,18S,19S,22S,23S,25R)-1,10,11,12,14,23-hexahydroxy-6,10,19-trimethyl-24-oxa-4-azaheptacyclo[12.12.0.02,11.04,9.015,25.018,23.019,25]hexacosan-22-yl] (Z)-2-methylbut-2-enoate
Formula: C32H49NO9
Exact mass: 591.3407
SMILES: C/C=C(/C)\C(=O)O[C@H]1CC[C@]2([C@H]3[C@@]1(O[C@@]24C[C@]5([C@@H]6CN7C[C@H](CC[C@H]7[C@@]([C@]6([C@H](C[C@]5([C@@H]4CC3)O)O)O)(C)O)C)O)O)C
InChI: InChI=1S/C32H49NO9/c1-6-18(3)25(35)41-24-11-12-26(4)19-8-9-20-28(37)13-23(34)31(39)21(29(28,38)16-30(20,26)42-32(19,24)40)15-33-14-17(2)7-10-22(33)27(31,5)36/h6,17,19-24,34,36-40H,7-16H2,1-5H3/b18-6-/t17-,19-,20-,21-,22-,23-,24-,26-,27+,28+,29+,30+,31-,32-/m0/s1
Instrument: LTQ Orbitrap XL Thermo Scientific
Instrument type: LC-ESI-ITFT
Ms type: MS2
Ion mode: POSITIVE
Ionization: ESI
Fragmentation mode: HCD
Collision energy: 50% (nominal)
Resolution: 15000
Column name: Kinetex Evo C18 2.6 um 50 x 2.1 mm
Retention time: 9.257 min
Base peak: 116.9857
Precursor m/z: 592.348
Precursor type: [M+H]+
m/z	relative intensity	assigned
55.054	187	C4H7+
83.0491	417	C5H7O+
98.0963	182	C6H12N+
109.0647	23	C7H9O+
110.0963	127	C7H12N+
112.1118	37	C7H14N+
124.1116	20	C8H14N+
126.0912	45	C7H12NO+
126.1276	85	C8H16N+
128.1069	50	C7H14NO+
136.1119	19	C9H14N+
137.12	24	C9H15N+
138.0914	28	C8H12NO+
138.1276	257	C9H16N+
140.1068	10	C8H14NO+
148.1121	9	C10H14N+
150.1281	22	C10H16N+
152.1068	25	C9H14NO+
154.1225	205	C9H16NO+
161.1197	31	C11H15N+
162.1275	217	C11H16N+
163.1351	86	C11H17N+
164.1067	27	C10H14NO+
164.1433	104	C11H18N+
174.1277	40	C12H16N+
178.1223	31	C11H16NO+
182.1177	10	C10H16NO2+
188.1431	91	C13H18N+
189.1512	22	C13H19N+
190.1222	56	C12H16NO+
191.131	15	C12H17NO+
192.1379	31	C12H18NO+
193.1459	46	C12H19NO+
206.1171	18	C12H16NO2+
206.1537	27	C13H20NO+
208.1693	103	C13H22NO+
255.1388	12	C17H19O2+
281.162	35	C15H23NO4+
294.1865	13	C20H24NO+
392.2586	37	C26H34NO2+
402.2423	39	C27H32NO2+
408.2505	20	C23H36O6+
410.2692	19	C26H36NO3+
420.2528	212	C27H34NO3+
438.2633	403	C27H36NO4+
456.2737	999	C27H38NO5+
474.2841	797	C24H42O9+
492.2946	322	C27H42NO7+
520.3063	45	C32H42NO5+
521.3089	21	C29H45O8+
538.3154	89	C29H46O9+
556.3267	240	C32H46NO7+
574.3371	376	C32H48NO8+
592.3477	494	C32H50NO9+
