Mass spectrum: 4-Hydroxycoumarin; LC-ESI-ITFT; MS2; CE: 30%; R=15000; [M+H]+
Name: 4-Hydroxycoumarin
Name: 4-hydroxychromen-2-one
Formula: C9H6O3
Exact mass: 162.0317
SMILES: OC1=CC(=O)OC2=CC=CC=C12
InChI: InChI=1S/C9H6O3/c10-7-5-9(11)12-8-4-2-1-3-6(7)8/h1-5,10H
Instrument: LTQ Orbitrap XL Thermo Scientific
Instrument type: LC-ESI-ITFT
Ms type: MS2
Ion mode: POSITIVE
Ionization: ESI
Fragmentation mode: HCD
Collision energy: 30 % (nominal)
Resolution: 15000
Column name: Kinetex Evo C18 2.6 um 50 x 2.1 mm
Retention time: 7.979 min
Base peak: 163.0394
Precursor m/z: 163.039
Precursor type: [M+H]+
m/z	relative intensity	assigned
95.0489	1	C6H7O+
121.0284	5	C7H5O2+
163.0388	999	C9H7O3+
