Mass spectrum: Bergapten/Heraclin; LC-ESI-ITFT; MS2; CE: 70%; R=15000; [M+H]+
Name: Bergapten/Heraclin
Formula: C12H8O4
Exact mass: 216.0423
SMILES: COC1=C2C=COC2=CC2=C1C=CC(=O)O2
InChI: InChI=1S/C12H8O4/c1-14-12-7-2-3-11(13)16-10(7)6-9-8(12)4-5-15-9/h2-6H,1H3
Instrument: LTQ Orbitrap XL Thermo Scientific
Instrument type: LC-ESI-ITFT
Ms type: MS2
Ion mode: POSITIVE
Ionization: ESI
Fragmentation mode: HCD
Collision energy: 70 % (nominal)
Resolution: 15000
Column name: Kinetex Evo C18 2.6 um 50 x 2.1 mm
Retention time: 9.930 min
Base peak: 416.3518
Precursor m/z: 217.0495
Precursor type: [M+H]+
m/z	relative intensity	assigned
79.0543	2	C6H7+
89.0386	2	C7H5+
90.0465	15	C7H6+
91.0542	8	C7H7+
102.0464	3	C8H6+
103.0542	3	C8H7+
105.0699	15	C8H9+
115.0543	69	C9H7+
117.0699	11	C9H9+
118.0413	58	C8H6O+
130.0412	8	C9H6O+
131.0492	64	C9H7O+
133.0648	10	C9H9O+
143.0491	8	C10H7O+
145.0287	3	C9H5O2+
145.065	5	C10H9O+
146.0364	85	C9H6O2+
156.0207	3	C10H4O2+
158.0364	12	C10H6O2+
161.0599	27	C10H9O2+
171.0441	3	C11H7O2+
173.0598	14	C11H9O2+
174.0313	317	C10H6O3+
189.0547	3	C11H9O3+
202.0261	999	C11H6O4+
217.0495	73	C12H9O4+
