Mass spectrum: Senkirkine; LC-ESI-ITFT; MS2; CE: 60%; R=15000; [M+H]+
Name: Senkirkine
Name: (1R,4Z,6R,7R,11Z)-4-ethylidene-7-hydroxy-6,7,14-trimethyl-2,9-dioxa-14-azabicyclo[9.5.1]heptadec-11-ene-3,8,17-trione
Formula: C19H27NO6
Exact mass: 365.1838
SMILES: C/C=C\1/C[C@H]([C@@](C(=O)OC/C/2=C/CN(CC[C@H](C2=O)OC1=O)C)(C)O)C
InChI: InChI=1S/C19H27NO6/c1-5-13-10-12(2)19(3,24)18(23)25-11-14-6-8-20(4)9-7-15(16(14)21)26-17(13)22/h5-6,12,15,24H,7-11H2,1-4H3/b13-5-,14-6-/t12-,15-,19-/m1/s1
Instrument: LTQ Orbitrap XL Thermo Scientific
Instrument type: LC-ESI-ITFT
Ms type: MS2
Ion mode: POSITIVE
Ionization: ESI
Fragmentation mode: HCD
Collision energy: 60% (nominal)
Resolution: 15000
Column name: Kinetex Evo C18 2.6 um 50 x 2.1 mm
Retention time: 6.388 min
Base peak: 366.1908
Precursor m/z: 366.1911
Precursor type: [M+H]+
m/z	relative intensity	assigned
53.0384	4	C4H5+
55.0541	10	C4H7+
59.0491	2	C3H7O+
67.0542	12	C5H7+
68.0493	2	C4H6N+
69.0334	4	C4H5O+
69.0699	2	C5H9+
70.0651	172	C4H8N+
77.0388	3	C6H5+
79.0542	35	C6H7+
81.0335	5	C5H5O+
81.0699	34	C6H9+
82.0652	3	C5H8N+
83.0492	28	C5H7O+
91.0543	10	C7H7+
93.0698	6	C7H9+
94.0651	44	C6H8N+
95.0492	13	C6H7O+
95.0857	2	C7H11+
96.0807	22	C6H10N+
97.0283	2	C5H5O2+
97.0647	21	C6H9O+
98.06	15	C5H8NO+
99.0441	9	C5H7O2+
100.0759	1	C5H10NO+
101.0596	38	C5H9O2+
105.0697	4	C8H9+
107.0491	188	C7H7O+
107.0729	13	C7H9N+
107.0855	114	C8H11+
108.0568	4	C7H8O+
108.0807	10	C7H10N+
109.0648	20	C7H9O+
109.1011	37	C8H13+
110.06	16	C6H8NO+
111.0441	5	C6H7O2+
111.0802	7	C7H11O+
112.0756	3	C6H10NO+
116.0706	17	C5H10NO2+
117.0572	1	C8H7N+
117.0696	2	C9H9+
120.0807	15	C8H10N+
121.0889	4	C8H11N+
122.06	314	C7H8NO+
122.0964	94	C8H12N+
123.0678	30	C7H9NO+
124.0757	58	C7H10NO+
125.0596	64	C7H9O2+
125.0835	7	C7H11NO+
125.096	103	C8H13O+
126.0912	4	C7H12NO+
132.0807	4	C9H10N+
135.0804	86	C9H11O+
136.0757	2	C8H10NO+
137.0596	6	C8H9O2+
137.0835	18	C8H11NO+
137.096	13	C9H13O+
138.0913	9	C8H12NO+
139.075	3	C8H11O2+
140.0706	73	C7H10NO2+
140.1069	13	C8H14NO+
148.0754	3	C9H10NO+
150.0913	235	C9H12NO+
152.1066	4	C9H14NO+
153.0909	126	C9H13O2+
166.087	2	C9H12NO2+
168.1018	999	C9H14NO2+
181.086	6	C10H13O3+
186.1125	3	C9H16NO3+
250.1437	4	C14H20NO3+
366.191	89	C19H28NO6+
