Mass spectrum: Galantamine; LC-ESI-ITFT; MS2; CE: 70%; R=15000; [M+H]+
Name: Galantamine
Formula: C17H21NO3
Exact mass: 287.1521
SMILES: CN1CCC23C=CC(CC2OC4=C(C=CC(=C34)C1)OC)O
InChI: InChI=1S/C17H21NO3/c1-18-8-7-17-6-5-12(19)9-14(17)21-16-13(20-2)4-3-11(10-18)15(16)17/h3-6,12,14,19H,7-10H2,1-2H3
Instrument: LTQ Orbitrap XL Thermo Scientific
Instrument type: LC-ESI-ITFT
Ms type: MS2
Ion mode: POSITIVE
Ionization: ESI
Fragmentation mode: HCD
Collision energy: 70 % (nominal)
Resolution: 15000
Column name: Kinetex Evo C18 2.6 um 50 x 2.1 mm
Retention time: 0.609 min
Base peak: 249.1957
Precursor m/z: 288.1594
Precursor type: [M+H]+
m/z	relative intensity	assigned
91.0541	28	C7H7+
93.0697	21	C7H9+
94.0652	9	C6H8N+
105.0698	34	C8H9+
109.0647	20	C7H9O+
121.065	9	C8H9O+
128.062	17	C10H8+
129.0698	18	C10H9+
132.0804	10	C9H10N+
133.0648	8	C9H9O+
134.0962	9	C9H12N+
135.0803	58	C9H11O+
141.0696	10	C11H9+
142.0774	18	C11H10+
143.0855	34	C11H11+
145.0651	11	C10H9O+
151.0754	9	C9H11O2+
152.0617	13	C12H8+
153.0698	31	C12H9+
155.0493	8	C11H7O+
155.085	12	C12H11+
159.0804	18	C11H11O+
160.0879	16	C11H12O+
161.0589	10	C10H9O2+
161.0961	47	C11H13O+
162.0675	17	C10H10O2+
165.0698	18	C13H9+
166.0778	41	C13H10+
167.0854	18	C13H11+
168.0566	7	C12H8O+
169.0642	24	C12H9O+
169.1009	10	C13H13+
170.0726	79	C12H10O+
171.0805	27	C12H11O+
175.0754	51	C11H11O2+
175.1117	37	C12H15O+
179.0857	36	C14H11+
181.0647	67	C13H9O+
181.1011	47	C14H13+
182.0725	197	C13H10O+
183.044	66	C12H7O2+
183.0802	18	C13H11O+
185.096	122	C13H13O+
187.0754	13	C12H11O2+
188.0836	17	C12H12O2+
189.091	27	C12H13O2+
191.0855	23	C15H11+
194.0723	18	C14H10O+
195.0807	12	C14H11O+
197.0597	32	C13H9O2+
197.0962	34	C14H13O+
198.0674	999	C13H10O2+
199.0755	14	C13H11O2+
203.1066	35	C13H15O2+
207.0805	8	C15H11O+
209.0962	23	C15H13O+
210.0675	26	C14H10O2+
211.0745	7	C14H11O2+
212.0832	15	C14H12O2+
213.0909	710	C14H13O2+
214.0618	15	C13H10O3+
216.0786	8	C13H12O3+
225.0905	21	C15H13O2+
227.07	7	C14H11O3+
231.1012	16	C14H15O3+
254.1167	11	C16H16NO2+
255.125	7	C16H17NO2+
