Mass spectrum: Senkirkine; LC-ESI-ITFT; MS2; CE: 80%; R=15000; [M+H]+
Name: Senkirkine
Name: (1R,4Z,6R,7R,11Z)-4-ethylidene-7-hydroxy-6,7,14-trimethyl-2,9-dioxa-14-azabicyclo[9.5.1]heptadec-11-ene-3,8,17-trione
Formula: C19H27NO6
Exact mass: 365.1838
SMILES: C/C=C\1/C[C@H]([C@@](C(=O)OC/C/2=C/CN(CC[C@H](C2=O)OC1=O)C)(C)O)C
InChI: InChI=1S/C19H27NO6/c1-5-13-10-12(2)19(3,24)18(23)25-11-14-6-8-20(4)9-7-15(16(14)21)26-17(13)22/h5-6,12,15,24H,7-11H2,1-4H3/b13-5-,14-6-/t12-,15-,19-/m1/s1
Instrument: LTQ Orbitrap XL Thermo Scientific
Instrument type: LC-ESI-ITFT
Ms type: MS2
Ion mode: POSITIVE
Ionization: ESI
Fragmentation mode: HCD
Collision energy: 80% (nominal)
Resolution: 15000
Column name: Kinetex Evo C18 2.6 um 50 x 2.1 mm
Retention time: 6.388 min
Base peak: 366.1908
Precursor m/z: 366.1911
Precursor type: [M+H]+
m/z	relative intensity	assigned
53.0384	14	C4H5+
55.0541	18	C4H7+
67.0542	55	C5H7+
69.0335	17	C4H5O+
69.0698	11	C5H9+
70.0651	705	C4H8N+
77.0386	46	C6H5+
79.0542	256	C6H7+
80.0494	5	C5H6N+
81.0335	13	C5H5O+
81.0573	11	C5H7N+
81.0699	92	C6H9+
82.0652	29	C5H8N+
83.0492	54	C5H7O+
84.0809	7	C5H10N+
91.0542	78	C7H7+
93.0574	6	C6H7N+
93.0698	23	C7H9+
94.0651	315	C6H8N+
95.0491	101	C6H7O+
95.0727	6	C6H9N+
95.0856	6	C7H11+
96.0808	93	C6H10N+
97.0287	9	C5H5O2+
97.0648	60	C6H9O+
98.06	48	C5H8NO+
99.0441	6	C5H7O2+
101.0597	47	C5H9O2+
105.0699	32	C8H9+
106.0654	7	C7H8N+
107.0491	284	C7H7O+
107.0729	63	C7H9N+
107.0855	242	C8H11+
108.057	7	C7H8O+
108.0807	20	C7H10N+
109.0647	30	C7H9O+
109.1011	32	C8H13+
110.06	191	C6H8NO+
111.0442	9	C6H7O2+
111.0802	9	C7H11O+
112.0758	19	C6H10NO+
116.0703	19	C5H10NO2+
117.0574	10	C8H7N+
117.0698	11	C9H9+
120.0808	43	C8H10N+
121.0887	7	C8H11N+
122.06	537	C7H8NO+
122.0964	124	C8H12N+
123.0678	41	C7H9NO+
124.0756	55	C7H10NO+
125.0597	91	C7H9O2+
125.0835	8	C7H11NO+
125.0961	93	C8H13O+
126.091	6	C7H12NO+
132.0809	11	C9H10N+
135.0804	71	C9H11O+
137.0834	27	C8H11NO+
138.0912	12	C8H12NO+
140.0706	394	C7H10NO2+
150.0913	110	C9H12NO+
151.099	4	C9H13NO+
153.0909	15	C9H13O2+
168.1019	999	C9H14NO2+
