Mass spectrum: Solasodin; LC-ESI-ITFT; MS2; CE: 90%; R=15000; [M+H]+
Name: Solasodin
Name: Solasodine
Name: (1S,2S,4S,5`R,6R,7S,8R,9S,12S,13R,16S)-5`,7,9,13-tetramethylspiro[5-oxapentacyclo[10.8.0.02,9.04,8.013,18]icos-18-ene-6,2`-piperidine]-16-ol
Formula: C27H43NO2
Exact mass: 413.3294
SMILES: C[C@@H]1CC[C@@]2([C@H]([C@H]3[C@@H](O2)C[C@@H]4[C@@]3(CC[C@H]5[C@H]4CC=C6[C@@]5(CC[C@@H](C6)O)C)C)C)NC1
InChI: InChI=1S/C27H43NO2/c1-16-7-12-27(28-15-16)17(2)24-23(30-27)14-22-20-6-5-18-13-19(29)8-10-25(18,3)21(20)9-11-26(22,24)4/h5,16-17,19-24,28-29H,6-15H2,1-4H3/t16-,17+,19+,20-,21+,22+,23+,24+,25+,26+,27-/m1/s1
Instrument: LTQ Orbitrap XL Thermo Scientific
Instrument type: LC-ESI-ITFT
Ms type: MS2
Ion mode: POSITIVE
Ionization: ESI
Fragmentation mode: HCD
Collision energy: 90% (nominal)
Resolution: 15000
Column name: Kinetex Evo C18 2.6 um 50 x 2.1 mm
Retention time: 10.818 min
Base peak: 414.3361
Precursor m/z: 414.3367
Precursor type: [M+H]+
m/z	relative intensity	assigned
55.0541	23	C4H7+
58.065	9	C3H8N+
67.0542	349	C5H7+
68.0495	21	C4H6N+
69.0698	83	C5H9+
70.0651	561	C4H8N+
77.0386	47	C6H5+
79.0542	451	C6H7+
80.0494	50	C5H6N+
81.0699	446	C6H9+
82.0651	69	C5H8N+
83.049	14	C5H7O+
83.0855	19	C6H11+
84.0807	37	C5H10N+
86.0964	26	C5H12N+
91.0542	665	C7H7+
93.0698	683	C7H9+
94.0652	51	C6H8N+
95.0491	27	C6H7O+
95.0729	82	C6H9N+
95.0855	409	C7H11+
96.0808	112	C6H10N+
97.0647	20	C6H9O+
98.0964	48	C6H12N+
103.0541	13	C8H7+
105.0699	999	C8H9+
107.0855	462	C8H11+
108.0807	74	C7H10N+
109.0647	19	C7H9O+
109.0886	67	C7H11N+
109.1011	261	C8H13+
110.0965	44	C7H12N+
111.1041	21	C7H13N+
114.0913	31	C6H12NO+
115.0542	41	C9H7+
116.0622	26	C9H8+
117.0698	334	C9H9+
118.0776	30	C9H10+
119.0855	412	C9H11+
121.1011	248	C9H13+
122.0964	82	C8H12N+
123.1166	19	C9H15+
124.112	421	C8H14N+
125.1199	47	C8H15N+
126.1277	222	C8H16N+
128.062	118	C10H8+
129.0698	346	C10H9+
130.0777	104	C10H10+
131.0855	594	C10H11+
133.1011	628	C10H13+
134.0965	20	C9H12N+
135.1167	29	C10H15+
136.112	46	C9H14N+
138.1276	22	C9H16N+
141.0699	112	C11H9+
142.0777	485	C11H10+
143.0854	341	C11H11+
144.0931	144	C11H12+
145.1011	448	C11H13+
147.1168	440	C11H15+
148.112	101	C10H14N+
149.1198	28	C10H15N+
150.1277	202	C10H16N+
152.1435	16	C10H18N+
153.0693	14	C12H9+
154.0774	26	C12H10+
155.0855	178	C12H11+
156.0929	78	C12H12+
157.1011	961	C12H13+
159.1168	444	C12H15+
161.1325	16	C12H17+
162.1277	98	C11H16N+
163.1348	16	C11H17N+
164.1433	124	C11H18N+
167.0855	49	C13H11+
168.0937	45	C13H12+
169.1011	188	C13H13+
171.1168	181	C13H15+
173.1326	67	C13H17+
174.1277	11	C12H16N+
175.1118	34	C12H15O+
176.1433	23	C12H18N+
178.1589	18	C12H20N+
181.1012	77	C14H13+
182.109	69	C14H14+
183.1168	184	C14H15+
185.1325	79	C14H17+
188.1433	16	C13H18N+
190.1592	14	C13H20N+
195.1165	38	C15H15+
196.1247	57	C15H16+
197.1324	143	C15H17+
198.1405	20	C15H18+
199.1475	14	C15H19+
202.1593	28	C14H20N+
203.1672	20	C14H21N+
204.1749	36	C14H22N+
209.1321	55	C16H17+
211.1481	86	C16H19+
212.1568	31	C16H20+
213.1643	8	C16H21+
216.175	25	C15H22N+
218.1911	9	C15H24N+
223.148	87	C17H19+
224.1568	29	C17H20+
225.1637	27	C17H21+
237.1639	15	C18H21+
238.1711	42	C18H22+
253.195	26	C19H25+
366.2804	8	C25H36NO+
380.2948	41	C26H38NO+
396.3277	11	C27H42NO+
