Mass spectrum: Vincamin; LC-ESI-ITFT; MS2; CE: 50%; R=15000; [M+H]+
Name: Vincamin
Name: Vincamine
Name: methyl (15S,17S,19S)-15-ethyl-17-hydroxy-1,11-diazapentacyclo[9.6.2.02,7.08,18.015,19]nonadeca-2,4,6,8(18)-tetraene-17-carboxylate
Formula: C21H26N2O3
Exact mass: 354.1943
SMILES: CC[C@@]12CCCN3[C@@H]1C4=C(CC3)C5=CC=CC=C5N4[C@](C2)(C(=O)OC)O
InChI: InChI=1S/C21H26N2O3/c1-3-20-10-6-11-22-12-9-15-14-7-4-5-8-16(14)23(17(15)18(20)22)21(25,13-20)19(24)26-2/h4-5,7-8,18,25H,3,6,9-13H2,1-2H3/t18-,20+,21+/m1/s1
Instrument: LTQ Orbitrap XL Thermo Scientific
Instrument type: LC-ESI-ITFT
Ms type: MS2
Ion mode: POSITIVE
Ionization: ESI
Fragmentation mode: HCD
Collision energy: 50% (nominal)
Resolution: 15000
Column name: Kinetex Evo C18 2.6 um 50 x 2.1 mm
Retention time: 6.630 min
Base peak: 355.2015
Precursor m/z: 355.2016
Precursor type: [M+H]+
m/z	relative intensity	assigned
70.065	25	C4H8N+
83.0491	13	C5H7O+
84.0808	5	C5H10N+
93.0698	6	C7H9+
95.0855	9	C7H11+
98.0964	7	C6H12N+
105.0701	2	C8H9+
107.0855	4	C8H11+
110.0964	25	C7H12N+
111.1042	4	C7H13N+
112.1119	15	C7H14N+
121.0647	4	C8H9O+
122.0602	3	C7H8NO+
122.0963	3	C8H12N+
123.0803	10	C8H11O+
124.0755	3	C7H10NO+
124.112	25	C8H14N+
130.065	15	C9H8N+
132.0804	3	C9H10N+
134.0964	14	C9H12N+
135.0802	6	C9H11O+
138.1278	7	C9H16N+
144.0807	413	C10H10N+
146.0965	3	C10H12N+
150.0911	5	C9H12NO+
151.0749	4	C9H11O2+
152.1069	145	C9H14NO+
154.0859	7	C8H12NO2+
156.0808	10	C11H10N+
158.0962	14	C11H12N+
162.0912	17	C10H12NO+
164.1069	6	C10H14NO+
165.0911	6	C10H13O2+
168.0815	3	C12H10N+
170.06	5	C11H8NO+
170.0963	9	C12H12N+
171.0914	5	C11H11N2+
172.1123	5	C12H14N+
177.0918	4	C11H13O2+
180.081	4	C13H10N+
180.1017	7	C10H14NO2+
182.081	7	C9H12NO3+
182.0959	6	C13H12N+
184.1121	5	C13H14N+
192.1016	4	C11H14NO2+
194.1175	61	C11H16NO2+
196.0966	4	C10H14NO3+
198.0909	4	C13H12NO+
198.1275	5	C14H16N+
206.0961	6	C15H12N+
208.1121	12	C15H14N+
209.1198	16	C15H15N+
210.1278	12	C15H16N+
212.128	251	C11H18NO3+
216.1023	3	C13H14NO2+
220.1124	7	C16H14N+
221.1199	12	C16H15N+
222.1276	28	C16H16N+
223.1355	6	C16H17N+
224.143	31	C16H18N+
234.1277	28	C17H16N+
235.1359	14	C17H17N+
236.1076	4	C16H14NO+
236.1433	40	C17H18N+
237.1513	6	C17H19N+
238.1229	4	C16H16NO+
239.094	18	C15H13NO2+
240.1021	8	C15H14NO2+
246.128	13	C18H16N+
248.1432	22	C18H18N+
249.1389	6	C17H17N2+
249.1515	8	C18H19N+
250.1588	30	C18H20N+
252.102	12	C16H14NO2+
252.1393	3	C17H18NO+
253.1102	14	C16H15NO2+
253.1697	25	C17H21N2+
254.1177	9	C16H16NO2+
260.143	6	C19H18N+
262.1222	8	C18H16NO+
264.1021	3	C17H14NO2+
265.1096	26	C17H15NO2+
266.1176	32	C17H16NO2+
266.1537	9	C18H20NO+
267.1254	53	C17H17NO2+
267.1858	3	C18H23N2+
268.1331	151	C17H18NO2+
270.1489	3	C17H20NO2+
276.1268	5	C18H16N2O+
277.1699	49	C19H21N2+
278.1176	6	C18H16NO2+
278.1537	4	C19H20NO+
278.1779	11	C19H22N2+
279.1251	26	C18H17NO2+
280.133	405	C18H18NO2+
282.1488	28	C18H20NO2+
291.125	12	C19H17NO2+
292.1337	15	C19H18NO2+
293.1412	18	C19H19NO2+
294.1488	434	C19H20NO2+
295.1804	110	C19H23N2O+
305.1648	14	C20H21N2O+
306.1489	22	C20H20NO2+
307.1442	26	C19H19N2O2+
308.1631	268	C20H22NO2+
309.1587	17	C19H21N2O2+
310.1799	21	C20H24NO2+
320.1645	21	C21H22NO2+
324.1603	4	C20H22NO3+
325.1909	5	C20H25N2O2+
326.1745	15	C20H24NO3+
337.1908	999	C21H25N2O2+
355.2014	173	C21H27N2O3+
