Mass spectrum: 5,7-Dihydroxy-4-phenylcoumarin; LC-ESI-ITFT; MS2; CE: 80%; R=15000; [M+H]+
Name: 5,7-Dihydroxy-4-phenylcoumarin
Name: 5,7-dihydroxy-4-phenylchromen-2-one
Formula: C15H10O4
Exact mass: 254.0579
SMILES: OC1=CC(O)=C2C(OC(=O)C=C2C2=CC=CC=C2)=C1
InChI: InChI=1S/C15H10O4/c16-10-6-12(17)15-11(9-4-2-1-3-5-9)8-14(18)19-13(15)7-10/h1-8,16-17H
Instrument: LTQ Orbitrap XL Thermo Scientific
Instrument type: LC-ESI-ITFT
Ms type: MS2
Ion mode: POSITIVE
Ionization: ESI
Fragmentation mode: HCD
Collision energy: 80% (nominal)
Resolution: 15000
Column name: Kinetex Evo C18 2.6 um 50 x 2.1 mm
Retention time: 9.813 min
Base peak: 116.9857
Precursor m/z: 255.0652
Precursor type: [M+H]+
m/z	relative intensity	assigned
68.9971	294	C3HO2+
77.0386	58	C6H5+
91.0542	216	C7H7+
103.0542	89	C8H7+
105.0335	328	C7H5O+
111.0075	82	C5H3O3+
115.0542	306	C9H7+
121.0284	143	C7H5O2+
128.0621	295	C10H8+
129.0699	216	C10H9+
131.0494	31	C9H7O+
131.0855	79	C10H11+
139.0538	23	C11H7+
141.0699	294	C11H9+
143.0491	33	C10H7O+
143.0857	39	C11H11+
149.0233	173	C8H5O3+
152.0621	374	C12H8+
153.0183	413	C7H5O4+
153.0699	768	C12H9+
154.0776	35	C12H10+
155.0857	94	C12H11+
157.0647	37	C11H9O+
164.0622	79	C13H8+
165.0699	999	C13H9+
166.078	24	C13H10+
168.0574	30	C12H8O+
169.0651	62	C12H9O+
171.0441	548	C11H7O2+
171.0807	56	C12H11O+
181.0648	365	C13H9O+
182.0728	46	C13H10O+
184.0519	84	C12H8O2+
193.0649	52	C14H9O+
197.0598	86	C13H9O2+
199.0753	275	C13H11O2+
210.0667	46	C14H10O2+
255.0649	83	C15H11O4+
