Mass spectrum: Protopin; LC-ESI-ITFT; MS2; CE: 80%; R=15000; [M+H]+
Name: Protopin
Name: Protopine
Name: 15-methyl-7,9,19,21-tetraoxa-15-azapentacyclo[15.7.0.04,12.06,10.018,22]tetracosa-1(17),4,6(10),11,18(22),23-hexaen-3-one
Formula: C20H19NO5
Exact mass: 353.1263
SMILES: CN1CCC2=CC3=C(C=C2C(=O)CC4=C(C1)C5=C(C=C4)OCO5)OCO3
InChI: InChI=1S/C20H19NO5/c1-21-5-4-13-7-18-19(25-10-24-18)8-14(13)16(22)6-12-2-3-17-20(15(12)9-21)26-11-23-17/h2-3,7-8H,4-6,9-11H2,1H3
Instrument: LTQ Orbitrap XL Thermo Scientific
Instrument type: LC-ESI-ITFT
Ms type: MS2
Ion mode: POSITIVE
Ionization: ESI
Fragmentation mode: HCD
Collision energy: 80% (nominal)
Resolution: 15000
Column name: Kinetex Evo C18 2.6 um 50 x 2.1 mm
Retention time: 6.714 min
Base peak: 354.1335
Precursor m/z: 354.1336
Precursor type: [M+H]+
m/z	relative intensity	assigned
77.0387	10	C6H5+
79.0542	29	C6H7+
91.0542	106	C7H7+
93.0698	8	C7H9+
103.0541	17	C8H7+
107.0491	107	C7H7O+
109.0649	9	C7H9O+
115.0542	7	C9H7+
118.065	12	C8H8N+
119.0492	82	C8H7O+
120.0809	6	C8H10N+
121.0648	3	C8H9O+
130.0652	21	C9H8N+
131.0491	26	C9H7O+
131.0729	71	C9H9N+
132.0806	12	C9H10N+
135.0441	136	C8H7O2+
143.0489	6	C10H7O+
144.0808	22	C10H10N+
146.06	20	C9H8NO+
147.0441	116	C9H7O2+
148.0516	4	C9H8O2+
148.0754	7	C9H10NO+
149.0597	320	C9H9O2+
158.0601	4	C10H8NO+
159.0441	34	C10H7O2+
159.0679	150	C10H9NO+
160.0524	4	C10H8O2+
160.0757	82	C10H10NO+
161.0595	16	C10H9O2+
161.0828	5	C10H11NO+
163.0391	79	C9H7O3+
165.0548	33	C9H9O3+
165.07	21	C13H9+
167.0855	83	C13H11+
173.06	10	C11H9O2+
174.055	48	C10H8NO2+
175.0389	37	C10H7O3+
176.0708	17	C10H10NO2+
177.0701	35	C14H9+
177.0787	17	C10H11NO2+
178.0778	24	C14H10+
178.0863	6	C10H12NO2+
179.0856	139	C14H11+
181.0647	6	C13H9O+
187.0398	3	C11H7O3+
188.0706	999	C11H10NO2+
189.0696	205	C15H9+
189.0784	491	C11H11NO2+
190.0866	20	C11H12NO2+
191.0855	32	C15H11+
193.0647	11	C14H9O+
195.0804	78	C14H11O+
204.0651	6	C11H10NO3+
205.0647	55	C15H9O+
206.0811	64	C11H12NO3+
207.0803	138	C15H11O+
209.0596	138	C14H9O2+
217.0647	141	C16H9O+
219.0805	42	C16H11O+
220.1122	5	C16H14N+
222.0675	19	C15H10O2+
223.0755	26	C15H11O2+
225.0914	5	C15H13O2+
233.0599	11	C16H9O2+
233.0841	4	C16H11NO+
235.0753	109	C16H11O2+
237.0545	34	C15H9O3+
237.0909	47	C16H13O2+
245.0598	10	C17H9O2+
246.0672	9	C17H10O2+
247.0753	177	C17H11O2+
248.1071	9	C17H14NO+
249.0913	3	C17H13O2+
250.0622	5	C16H10O3+
262.0617	3	C17H10O3+
262.0864	4	C17H12NO2+
263.0705	26	C17H11O3+
263.0943	8	C17H13NO2+
265.0859	27	C17H13O3+
266.0574	8	C16H10O4+
267.065	7	C16H11O4+
275.0703	66	C18H11O3+
276.102	7	C18H14NO2+
278.1174	13	C18H16NO2+
280.0733	4	C17H12O4+
290.0817	4	C18H12NO3+
291.0876	4	C18H13NO3+
292.0728	4	C18H12O4+
293.0808	10	C18H13O4+
304.0975	3	C19H14NO3+
320.0916	42	C19H14NO4+
334.1076	7	C20H16NO4+
