Mass spectrum: alpha-Cyperone; LC-ESI-ITFT; MS2; CE: 45%; R=15000; [M+H]+
Name: alpha-Cyperone
Formula: C15H22O
Exact mass: 218.1671
SMILES: CC1=C2CC(CCC2(CCC1=O)C)C(=C)C
InChI: InChI=1S/C15H22O/c1-10(2)12-5-7-15(4)8-6-14(16)11(3)13(15)9-12/h12H,1,5-9H2,2-4H3
Instrument: LTQ Orbitrap XL Thermo Scientific
Instrument type: LC-ESI-ITFT
Ms type: MS2
Ion mode: POSITIVE
Ionization: ESI
Fragmentation mode: CID
Collision energy: 45 % (nominal)
Resolution: 15000
Column name: Kinetex Evo C18 2.6 um 50 x 2.1 mm
Retention time: 13.141 min
Base peak: 219.1741
Precursor m/z: 219.1743
Precursor type: [M+H]+
m/z	relative intensity	assigned
67.0542	19	C5H7+
69.0701	3	C5H9+
77.0387	3	C6H5+
79.0543	18	C6H7+
81.07	52	C6H9+
91.0544	18	C7H7+
93.07	52	C7H9+
95.0856	174	C7H11+
97.0649	218	C6H9O+
99.0806	4	C6H11O+
105.07	120	C8H9+
107.0856	140	C8H11+
109.0649	24	C7H9O+
109.1013	333	C8H13+
111.0805	322	C7H11O+
113.0959	2	C7H13O+
117.07	10	C9H9+
119.0856	178	C9H11+
121.0649	24	C8H9O+
121.1012	147	C9H13+
123.0805	152	C8H11O+
123.1169	125	C9H15+
125.0962	36	C8H13O+
131.0856	96	C10H11+
133.1013	65	C10H13+
135.0806	127	C9H11O+
135.1169	111	C10H15+
137.0962	55	C9H13O+
137.1326	7	C10H17+
139.1118	8	C9H15O+
145.1013	427	C11H13+
147.1169	209	C11H15+
149.0962	145	C10H13O+
149.1326	36	C11H17+
151.1121	9	C10H15O+
159.117	419	C12H15+
161.1327	322	C12H17+
162.1043	8	C11H14O+
163.1119	999	C11H15O+
173.1327	350	C13H17+
175.1483	97	C13H19+
176.1197	17	C12H16O+
177.1276	93	C12H17O+
177.1639	54	C13H21+
190.1346	2	C13H18O+
191.1433	35	C13H19O+
191.1797	64	C14H23+
199.1479	2	C15H19+
201.164	886	C15H21+
204.1513	11	C14H20O+
219.1743	4	C15H23O+
