Mass spectrum: Vincamin; LC-ESI-ITFT; MS2; CE: 95%; R=15000; [M+H]+
Name: Vincamin
Name: Vincamine
Name: methyl (15S,17S,19S)-15-ethyl-17-hydroxy-1,11-diazapentacyclo[9.6.2.02,7.08,18.015,19]nonadeca-2,4,6,8(18)-tetraene-17-carboxylate
Formula: C21H26N2O3
Exact mass: 354.1943
SMILES: CC[C@@]12CCCN3[C@@H]1C4=C(CC3)C5=CC=CC=C5N4[C@](C2)(C(=O)OC)O
InChI: InChI=1S/C21H26N2O3/c1-3-20-10-6-11-22-12-9-15-14-7-4-5-8-16(14)23(17(15)18(20)22)21(25,13-20)19(24)26-2/h4-5,7-8,18,25H,3,6,9-13H2,1-2H3/t18-,20+,21+/m1/s1
Instrument: LTQ Orbitrap XL Thermo Scientific
Instrument type: LC-ESI-ITFT
Ms type: MS2
Ion mode: POSITIVE
Ionization: ESI
Fragmentation mode: HCD
Collision energy: 95% (nominal)
Resolution: 15000
Column name: Kinetex Evo C18 2.6 um 50 x 2.1 mm
Retention time: 6.603 min
Base peak: 355.2016
Precursor m/z: 355.2016
Precursor type: [M+H]+
m/z	relative intensity	assigned
55.0542	8	C4H7+
67.0542	126	C5H7+
68.0494	21	C4H6N+
70.0651	83	C4H8N+
77.0386	25	C6H5+
79.0543	97	C6H7+
80.0495	29	C5H6N+
81.0334	19	C5H5O+
81.0699	60	C6H9+
82.0652	24	C5H8N+
83.0492	106	C5H7O+
84.0808	19	C5H10N+
91.0542	156	C7H7+
93.0575	14	C6H7N+
93.0699	117	C7H9+
94.0652	46	C6H8N+
95.0492	23	C6H7O+
95.073	21	C6H9N+
95.0855	300	C7H11+
96.0808	52	C6H10N+
98.0966	24	C6H12N+
103.0543	42	C8H7+
105.0448	25	C6H5N2+
105.0699	100	C8H9+
106.0652	37	C7H8N+
107.0855	50	C8H11+
108.0809	52	C7H10N+
109.0646	13	C7H9O+
109.0885	12	C7H11N+
110.0964	181	C7H12N+
111.1045	13	C7H13N+
112.1125	11	C7H14N+
115.0542	89	C9H7+
117.0571	39	C8H7N+
117.0699	176	C9H9+
118.0652	36	C8H8N+
119.0603	8	C7H7N2+
119.0732	17	C8H9N+
119.0856	11	C9H11+
120.0809	33	C8H10N+
121.0647	21	C8H9O+
122.0601	25	C7H8NO+
122.0965	32	C8H12N+
123.0677	9	C7H9NO+
123.0804	54	C8H11O+
123.1043	16	C8H13N+
124.0758	41	C7H10NO+
124.1121	129	C8H14N+
128.0495	28	C9H6N+
128.0622	25	C10H8+
129.0699	51	C10H9+
130.0651	106	C9H8N+
131.073	55	C9H9N+
132.0808	33	C9H10N+
133.0649	17	C9H9O+
134.0964	94	C9H12N+
135.0803	27	C9H11O+
136.0762	25	C8H10NO+
141.0696	12	C11H9+
142.065	33	C10H8N+
143.073	213	C10H9N+
144.0808	999	C10H10N+
146.0599	11	C9H8NO+
146.0968	11	C10H12N+
152.1071	69	C9H14NO+
153.0698	18	C12H9+
154.0652	42	C11H8N+
155.0606	69	C10H7N2+
155.0729	47	C11H9N+
156.0809	93	C11H10N+
157.0885	46	C11H11N+
158.0963	38	C11H12N+
165.0701	44	C13H9+
166.0771	16	C13H10+
167.073	86	C12H9N+
167.0849	10	C13H11+
168.0808	108	C12H10N+
169.0758	12	C11H9N2+
169.0887	22	C12H11N+
170.0599	34	C11H8NO+
170.0966	48	C12H12N+
171.0916	14	C11H11N2+
178.0778	41	C14H10+
179.0731	14	C13H9N+
179.0858	30	C14H11+
180.0808	181	C13H10N+
181.0764	9	C12H9N2+
181.0889	75	C13H11N+
181.1011	11	C14H13+
182.0964	56	C13H12N+
184.0763	12	C12H10NO+
184.1121	11	C13H14N+
190.0651	26	C14H8N+
191.073	89	C14H9N+
191.0854	14	C15H11+
192.0808	106	C14H10N+
192.0933	17	C15H12+
193.0887	170	C14H11N+
193.1012	16	C15H13+
194.0965	135	C14H12N+
195.0924	9	C13H11N2+
195.1042	48	C14H13N+
196.0763	8	C13H10NO+
196.1125	26	C14H14N+
198.1277	9	C14H16N+
204.0807	310	C15H10N+
205.0888	190	C15H11N+
206.0965	293	C15H12N+
207.1046	115	C15H13N+
208.0749	9	C14H10NO+
208.1121	185	C15H14N+
209.1207	29	C15H15N+
210.128	35	C15H16N+
216.08	13	C16H10N+
217.0885	98	C16H11N+
218.0965	194	C16H12N+
219.0925	29	C15H11N2+
219.1045	154	C16H13N+
220.1122	247	C16H14N+
221.1208	44	C16H15N+
222.0912	24	C15H12NO+
222.1277	113	C16H16N+
223.1234	40	C15H15N2+
224.071	7	C14H10NO2+
224.1437	13	C16H18N+
230.0966	27	C17H12N+
231.1049	22	C17H13N+
232.0757	13	C16H10NO+
232.1121	72	C17H14N+
233.1074	17	C16H13N2+
233.1203	30	C17H15N+
234.0915	11	C16H12NO+
234.1277	126	C17H16N+
236.0703	11	C15H10NO2+
236.1065	10	C16H14NO+
236.1436	20	C17H18N+
237.079	20	C15H11NO2+
237.1388	28	C16H17N2+
238.0862	192	C15H12NO2+
239.0947	46	C15H13NO2+
239.1541	8	C16H19N2+
246.1276	12	C18H16N+
247.123	62	C17H15N2+
248.0709	7	C16H10NO2+
248.1434	25	C18H18N+
249.0776	16	C16H11NO2+
249.1387	28	C17H17N2+
250.0862	142	C16H12NO2+
251.0942	263	C16H13NO2+
252.1022	222	C16H14NO2+
253.1108	48	C16H15NO2+
262.0865	19	C17H12NO2+
263.0938	28	C17H13NO2+
264.1018	755	C17H14NO2+
265.1104	206	C17H15NO2+
266.1176	348	C17H16NO2+
267.1264	44	C17H17NO2+
268.1332	10	C17H18NO2+
275.094	21	C18H13NO2+
276.1016	40	C18H14NO2+
277.1098	18	C18H15NO2+
278.1174	313	C18H16NO2+
279.1261	55	C18H17NO2+
280.133	114	C18H18NO2+
290.1179	37	C19H16NO2+
292.132	100	C19H18NO2+
294.1493	18	C19H20NO2+
307.1437	31	C19H19N2O2+
