Mass spectrum: Kaempferol; LC-ESI-ITFT; MS2; CE: 60%; R=15000; [M+H]+
Name: Kaempferol
Name: 3,5,7-trihydroxy-2-(4-hydroxyphenyl)chromen-4-one
Formula: C15H10O6
Exact mass: 286.0477
SMILES: OC1=CC=C(C=C1)C1=C(O)C(=O)C2=C(O)C=C(O)C=C2O1
InChI: InChI=1S/C15H10O6/c16-8-3-1-7(2-4-8)15-14(20)13(19)12-10(18)5-9(17)6-11(12)21-15/h1-6,16-18,20H
Instrument: LTQ Orbitrap XL Thermo Scientific
Instrument type: LC-ESI-ITFT
Ms type: MS2
Ion mode: POSITIVE
Ionization: ESI
Fragmentation mode: HCD
Collision energy: 60% (nominal)
Resolution: 15000
Column name: Kinetex Evo C18 2.6 um 50 x 2.1 mm
Retention time: 10.404 min
Base peak: 116.9859
Precursor m/z: 287.055
Precursor type: [M+H]+
m/z	relative intensity	assigned
68.9971	28	C3HO2+
105.0331	21	C7H5O+
107.0491	29	C7H7O+
111.0077	26	C5H3O3+
121.0285	160	C7H5O2+
133.0284	18	C8H5O2+
137.0232	51	C7H5O3+
147.044	47	C9H7O2+
153.0183	355	C7H5O4+
157.0647	28	C11H9O+
165.0184	160	C8H5O4+
185.0596	29	C12H9O2+
213.0547	101	C13H9O3+
231.065	55	C13H11O4+
241.0496	60	C14H9O4+
258.0526	66	C14H10O5+
259.0606	34	C14H11O5+
287.0551	999	C15H11O6+
