Mass spectrum: (+)-Lupanine; LC-ESI-ITFT; MS2; CE: 20%; R=15000; [M+H]+
Name: (+)-Lupanine
Formula: C15H24N2O
Exact mass: 248.1889
SMILES: C1CCN2CC3CC(C2C1)CN4C3CCCC4=O
InChI: InChI=1S/C15H24N2O/c18-15-6-3-5-14-11-8-12(10-17(14)15)13-4-1-2-7-16(13)9-11/h11-14H,1-10H2
Instrument: LTQ Orbitrap XL Thermo Scientific
Instrument type: LC-ESI-ITFT
Ms type: MS2
Ion mode: POSITIVE
Ionization: ESI
Fragmentation mode: CID
Collision energy: 20 % (nominal)
Resolution: 15000
Column name: Kinetex Evo C18 2.6 um 50 x 2.1 mm
Retention time: 0.483 min
Base peak: 249.1956
Precursor m/z: 249.1961
Precursor type: [M+H]+
m/z	relative intensity	assigned
96.0808	4	C6H10N+
98.0964	4	C6H12N+
112.0757	1	C6H10NO+
114.0913	14	C6H12NO+
134.0964	6	C9H12N+
136.1121	51	C9H14N+
148.1119	1	C10H14N+
150.1276	3	C10H16N+
166.1225	1	C10H16NO+
204.1386	1	C13H18NO+
231.1857	23	C15H23N2+
247.181	8	C15H23N2O+
249.1961	999	C15H25N2O+
