Mass spectrum: 5,7-Dihydroxy-4-phenylcoumarin; LC-ESI-ITFT; MS2; CE: 100%; R=15000; [M+H]+
Name: 5,7-Dihydroxy-4-phenylcoumarin
Name: 5,7-dihydroxy-4-phenylchromen-2-one
Formula: C15H10O4
Exact mass: 254.0579
SMILES: OC1=CC(O)=C2C(OC(=O)C=C2C2=CC=CC=C2)=C1
InChI: InChI=1S/C15H10O4/c16-10-6-12(17)15-11(9-4-2-1-3-5-9)8-14(18)19-13(15)7-10/h1-8,16-17H
Instrument: LTQ Orbitrap XL Thermo Scientific
Instrument type: LC-ESI-ITFT
Ms type: MS2
Ion mode: POSITIVE
Ionization: ESI
Fragmentation mode: HCD
Collision energy: 100% (nominal)
Resolution: 15000
Column name: Kinetex Evo C18 2.6 um 50 x 2.1 mm
Retention time: 9.862 min
Base peak: 116.9858
Precursor m/z: 255.0652
Precursor type: [M+H]+
m/z	relative intensity	assigned
65.0385	68	C5H5+
68.9971	288	C3HO2+
77.0386	166	C6H5+
91.0542	390	C7H7+
103.0543	134	C8H7+
105.0335	154	C7H5O+
115.0542	562	C9H7+
121.0285	178	C7H5O2+
127.054	38	C10H7+
128.0621	458	C10H8+
129.07	123	C10H9+
131.0494	43	C9H7O+
139.0544	82	C11H7+
141.07	142	C11H9+
151.0542	61	C12H7+
152.0621	999	C12H8+
153.0181	168	C7H5O4+
153.0699	477	C12H9+
163.0545	32	C13H7+
164.0621	179	C13H8+
165.0699	555	C13H9+
171.0442	97	C11H7O2+
181.0649	228	C13H9O+
184.0518	54	C12H8O2+
197.0597	111	C13H9O2+
