Mass spectrum: Pterosin A; LC-ESI-ITFT; MS2; CE: 70%; R=15000; [M+H]+
Name: Pterosin A
Name: (2S)-6-(2-hydroxyethyl)-2-(hydroxymethyl)-2,5,7-trimethyl-3H-inden-1-one
Formula: C15H20O3
Exact mass: 248.1412
SMILES: CC1=CC2=C(C(=C1CCO)C)C(=O)[C@](C2)(C)CO
InChI: InChI=1S/C15H20O3/c1-9-6-11-7-15(3,8-17)14(18)13(11)10(2)12(9)4-5-16/h6,16-17H,4-5,7-8H2,1-3H3/t15-/m0/s1
Instrument: LTQ Orbitrap XL Thermo Scientific
Instrument type: LC-ESI-ITFT
Ms type: MS2
Ion mode: POSITIVE
Ionization: ESI
Fragmentation mode: HCD
Collision energy: 70 % (nominal)
Resolution: 15000
Column name: Kinetex Evo C18 2.6 um 50 x 2.1 mm
Retention time: 9.228 min
Base peak: 249.1476
Precursor m/z: 249.1485
Precursor type: [M+H]+
m/z	relative intensity	assigned
79.0541	24	C6H7+
105.0697	28	C8H9+
119.0852	39	C9H11+
128.0616	27	C10H8+
129.0695	45	C10H9+
131.0851	10	C10H11+
133.1009	88	C10H13+
141.0695	50	C11H9+
142.0774	231	C11H10+
143.0852	166	C11H11+
144.093	40	C11H12+
145.1008	46	C11H13+
154.0773	10	C12H10+
155.0853	244	C12H11+
156.0931	222	C12H12+
157.1009	506	C12H13+
158.1087	17	C12H14+
159.1166	37	C12H15+
163.1117	9	C11H15O+
168.0931	12	C13H12+
169.1008	42	C13H13+
170.1087	999	C13H14+
171.1164	7	C13H15+
172.088	12	C12H12O+
172.1243	21	C13H16+
173.132	26	C13H17+
183.0804	22	C13H11O+
183.1164	29	C14H15+
184.0879	23	C13H12O+
185.0958	33	C13H13O+
185.132	603	C14H17+
198.1036	36	C14H14O+
200.1201	7	C14H16O+
201.1276	11	C14H17O+
203.1425	146	C14H19O+
213.1272	39	C15H17O+
231.1373	7	C15H19O2+
