Mass spectrum: 8-Prenylnaringenin; LC-ESI-ITFT; MS2; CE: 70%; R=15000; [M+H]+
Name: 8-Prenylnaringenin
Name: (2S)-5,7-dihydroxy-2-(4-hydroxyphenyl)-8-(3-methylbut-2-enyl)-2,3-dihydrochromen-4-one
Formula: C20H20O5
Exact mass: 340.1311
SMILES: CC(=CCC1=C(C=C(C2=C1O[C@@H](CC2=O)C3=CC=C(C=C3)O)O)O)C
InChI: InChI=1S/C20H20O5/c1-11(2)3-8-14-15(22)9-16(23)19-17(24)10-18(25-20(14)19)12-4-6-13(21)7-5-12/h3-7,9,18,21-23H,8,10H2,1-2H3/t18-/m0/s1
Instrument: LTQ Orbitrap XL Thermo Scientific
Instrument type: LC-ESI-ITFT
Ms type: MS2
Ion mode: POSITIVE
Ionization: ESI
Fragmentation mode: HCD
Collision energy: 70% (nominal)
Resolution: 15000
Column name: Kinetex Evo C18 2.6 um 50 x 2.1 mm
Retention time: 11.902 min
Base peak: 116.9858
Precursor m/z: 341.1384
Precursor type: [M+H]+
m/z	relative intensity	assigned
55.0177	22	C3H3O+
68.9971	10	C3HO2+
69.0335	5	C4H5O+
79.0179	9	C5H3O+
81.0334	15	C5H5O+
92.9971	11	C5HO2+
97.0284	9	C5H5O2+
99.0077	13	C4H3O3+
107.0491	36	C7H7O+
109.0284	9	C6H5O2+
119.0492	11	C8H7O+
121.0648	12	C8H9O+
123.0077	62	C6H3O3+
137.0234	36	C7H5O3+
141.0183	22	C6H5O4+
147.0078	3	C8H3O3+
147.0441	18	C9H7O2+
157.0654	2	C11H9O+
165.0183	999	C8H5O4+
169.0647	5	C12H9O+
171.0442	3	C11H7O2+
179.034	13	C9H7O4+
183.0288	39	C8H7O5+
185.0599	3	C12H9O2+
197.0446	7	C9H9O5+
197.0597	4	C13H9O2+
211.076	2	C14H11O2+
213.0548	5	C13H9O3+
243.064	2	C14H11O4+
