Mass spectrum: Daidzein; LC-ESI-ITFT; MS2; CE: 15%; R=15000; [M+H]+
Name: Daidzein
Name: 7-hydroxy-3-(4-hydroxyphenyl)chromen-4-one
Formula: C15H10O4
Exact mass: 254.0579
SMILES: c1cc(ccc1c2coc3cc(ccc3c2=O)O)O
InChI: InChI=1S/C15H10O4/c16-10-3-1-9(2-4-10)13-8-19-14-7-11(17)5-6-12(14)15(13)18/h1-8,16-17H
Instrument: LTQ Orbitrap XL Thermo Scientific
Instrument type: LC-ESI-ITFT
Ms type: MS2
Ion mode: POSITIVE
Ionization: ESI
Fragmentation mode: HCD
Collision energy: 15% (nominal)
Resolution: 15000
Column name: Kinetex Evo C18 2.6 um 50 x 2.1 mm
Retention time: 9.183 min
Base peak: 116.9859
Precursor m/z: 255.0652
Precursor type: [M+H]+
m/z	relative intensity	assigned
255.0651	999	C15H11O4+
