Mass spectrum: Gelsemine; LC-ESI-ITFT; MS2; CE: 35%; R=15000; [M+H]+
Name: Gelsemine
Name: (2`S,3S,5`S,6`S,11`S)-2`-ethenyl-4`-methylspiro[1H-indole-3,7`-9-oxa-4-azatetracyclo[6.3.1.02,6.05,11]dodecane]-2-one
Formula: C20H22N2O2
Exact mass: 322.1681
SMILES: CN1C[C@@]2([C@@H]3[C@H]1[C@@H]4C2CC([C@@]35c6ccccc6NC5=O)OC4)C=C
InChI: InChI=1S/C20H22N2O2/c1-3-19-10-22(2)16-11-9-24-15(8-13(11)19)20(17(16)19)12-6-4-5-7-14(12)21-18(20)23/h3-7,11,13,15-17H,1,8-10H2,2H3,(H,21,23)/t11-,13?,15?,16+,17-,19-,20-/m0/s1
Instrument: LTQ Orbitrap XL Thermo Scientific
Instrument type: LC-ESI-ITFT
Ms type: MS2
Ion mode: POSITIVE
Ionization: ESI
Fragmentation mode: HCD
Collision energy: 35% (nominal)
Resolution: 15000
Column name: Kinetex Evo C18 2.6 um 50 x 2.1 mm
Retention time: 1.783 min
Base peak: 323.1752
Precursor m/z: 323.1754
Precursor type: [M+H]+
m/z	relative intensity	assigned
70.065	57	C4H8N+
86.0601	5	C4H8NO+
88.0757	4	C4H10NO+
117.0698	4	C9H9+
131.0857	5	C10H11+
146.0598	3	C9H8NO+
159.0805	6	C11H11O+
191.1305	2	C12H17NO+
210.0912	3	C14H12NO+
236.1069	34	C16H14NO+
238.1227	15	C16H16NO+
248.107	2	C17H14NO+
254.1184	1	C16H16NO2+
262.1234	3	C18H16NO+
274.1229	2	C19H16NO+
292.1327	3	C19H18NO2+
323.1754	999	C20H23N2O2+
