Mass spectrum: Beauvericin; LC-ESI-ITFT; MS2; CE: 25%; R=15000; [M+H]+
Name: Beauvericin
Name: (3S,6R,9S,12R,15S,18R)-3,9,15-tribenzyl-4,10,16-trimethyl-6,12,18-tri(propan-2-yl)-1,7,13-trioxa-4,10,16-triazacyclooctadecane-2,5,8,11,14,17-hexone
Formula: C45H57N3O9
Exact mass: 783.4095
SMILES: CC(C)[C@@H]1C(=O)N([C@H](C(=O)O[C@@H](C(=O)N([C@H](C(=O)O[C@@H](C(=O)N([C@H](C(=O)O1)Cc2ccccc2)C)C(C)C)Cc3ccccc3)C)C(C)C)Cc4ccccc4)C
InChI: InChI=1S/C45H57N3O9/c1-28(2)37-40(49)46(7)35(26-32-21-15-11-16-22-32)44(53)56-39(30(5)6)42(51)48(9)36(27-33-23-17-12-18-24-33)45(54)57-38(29(3)4)41(50)47(8)34(43(52)55-37)25-31-19-13-10-14-20-31/h10-24,28-30,34-39H,25-27H2,1-9H3/t34-,35-,36-,37+,38+,39+/m0/s1
Instrument: LTQ Orbitrap XL Thermo Scientific
Instrument type: LC-ESI-ITFT
Ms type: MS2
Ion mode: POSITIVE
Ionization: ESI
Fragmentation mode: HCD
Collision energy: 25% (nominal)
Resolution: 15000
Column name: Kinetex Evo C18 2.6 um 50 x 2.1 mm
Retention time: 14.556 min
Base peak: 806.3992
Precursor m/z: 784.4168
Precursor type: [M+H]+
m/z	relative intensity	assigned
134.0964	168	C9H12N+
234.1494	48	C14H20NO2+
244.1331	999	C15H18NO2+
262.1437	610	C15H20NO3+
362.195	58	C20H28NO5+
521.978	45	C32N3O6+
522.0402	64	C35H8NO5+
523.2797	100	C30H39N2O6+
623.3386	36	C40H47O6+
