Mass spectrum: Conessine; LC-ESI-ITFT; MS2; CE: 45%; R=15000; [M+H]+
Name: Conessine
Formula: C24H40N2
Exact mass: 356.3191
SMILES: C[C@H]1[C@H]2CC[C@H]3[C@@H]4CC=C5C[C@H](CC[C@]5(C)[C@H]4CC[C@]23CN1C)N(C)C
InChI: InChI=1S/C24H40N2/c1-16-20-8-9-22-19-7-6-17-14-18(25(3)4)10-12-23(17,2)21(19)11-13-24(20,22)15-26(16)5/h6,16,18-22H,7-15H2,1-5H3/t16-,18-,19+,20+,21-,22-,23-,24-/m0/s1
Instrument: LTQ Orbitrap XL Thermo Scientific
Instrument type: LC-ESI-ITFT
Ms type: MS2
Ion mode: POSITIVE
Ionization: ESI
Fragmentation mode: HCD
Collision energy: 45 % (nominal)
Resolution: 15000
Column name: Kinetex Evo C18 2.6 um 50 x 2.1 mm
Retention time: 5.555 min
Base peak: 179.1667
Precursor m/z: 357.3264
Precursor type: [M+H]+
m/z	relative intensity	assigned
72.0807	61	C4H10N+
81.0698	24	C6H9+
83.0854	14	C6H11+
84.0807	70	C5H10N+
91.0539	13	C7H7+
93.0698	24	C7H9+
95.0855	17	C7H11+
105.0697	20	C8H9+
107.0854	16	C8H11+
109.1011	50	C8H13+
119.0851	14	C9H11+
121.1013	25	C9H13+
131.0852	14	C10H11+
133.1012	41	C10H13+
135.1167	110	C10H15+
145.1012	33	C11H13+
147.1167	140	C11H15+
149.1327	11	C11H17+
159.1168	173	C12H15+
161.1324	131	C12H17+
173.1323	54	C13H17+
187.148	103	C14H19+
199.1483	11	C15H19+
213.1635	11	C16H21+
269.2262	226	C20H29+
312.2685	171	C22H34N+
357.3262	999	C24H41N2+
