Mass spectrum: Jervine; LC-ESI-ITFT; MS2; CE: 35%; R=15000; [M+H]+
Name: Jervine
Name: (3S,3`R,3`aS,6`S,6aS,6bS,7`aR,9R,11aS,11bR)-3-hydroxy-3`,6`,10,11b-tetramethylspiro[1,2,3,4,6,6a,6b,7,8,11a-decahydrobenzo[a]fluorene-9,2`-3a,4,5,6,7,7a-hexahydro-3H-furo[3,2-b]pyridine]-11-one
Formula: C27H39NO3
Exact mass: 425.2930
SMILES: C[C@H]1C[C@@H]2[C@H]([C@H]([C@]3(O2)CC[C@H]4[C@@H]5CC=C6C[C@H](CC[C@@]6([C@H]5C(=O)C4=C3C)C)O)C)NC1
InChI: InChI=1S/C27H39NO3/c1-14-11-21-24(28-13-14)16(3)27(31-21)10-8-19-20-6-5-17-12-18(29)7-9-26(17,4)23(20)25(30)22(19)15(27)2/h5,14,16,18-21,23-24,28-29H,6-13H2,1-4H3/t14-,16+,18-,19-,20-,21+,23+,24-,26-,27-/m0/s1
Instrument: LTQ Orbitrap XL Thermo Scientific
Instrument type: LC-ESI-ITFT
Ms type: MS2
Ion mode: POSITIVE
Ionization: ESI
Fragmentation mode: HCD
Collision energy: 35% (nominal)
Resolution: 15000
Column name: Kinetex Evo C18 2.6 um 50 x 2.1 mm
Retention time: 8.928 min
Base peak: 426.3
Precursor m/z: 426.3003
Precursor type: [M+H]+
m/z	relative intensity	assigned
67.054	3	C5H7+
70.0653	1	C4H8N+
81.0698	3	C6H9+
83.0489	1	C5H7O+
84.0807	25	C5H10N+
85.0647	6	C5H9O+
95.0854	1	C7H11+
96.0808	1	C6H10N+
98.0962	4	C6H12N+
100.0756	2	C5H10NO+
102.0912	11	C5H12NO+
105.0696	1	C8H9+
107.0852	2	C8H11+
109.101	48	C8H13+
112.0756	4	C6H10NO+
114.0911	84	C6H12NO+
119.0853	1	C9H11+
121.1011	4	C9H13+
124.1118	1	C8H14N+
126.1275	26	C8H16N+
131.0849	1	C10H11+
133.1008	1	C10H13+
140.1074	2	C8H14NO+
145.1011	8	C11H13+
147.1166	3	C11H15+
149.096	7	C10H13O+
157.1012	3	C12H13+
163.1115	2	C11H15O+
173.0964	1	C12H13O+
175.1112	3	C12H15O+
199.148	2	C15H19+
211.1473	1	C16H19+
213.1629	2	C16H21+
253.1584	1	C18H21O+
265.1938	2	C20H25+
289.1946	1	C22H25+
293.19	2	C21H25O+
295.2047	4	C21H27O+
311.1999	3	C21H27O2+
313.2158	49	C21H29O2+
349.2169	1	C24H29O2+
351.2334	1	C24H31O2+
379.2642	1	C26H35O2+
391.2622	7	C27H35O2+
408.289	10	C27H38NO2+
426.2994	999	C27H40NO3+
