Mass spectrum: alpha-Cyperone; LC-ESI-ITFT; MS2; CE: 60%; R=15000; [M+H]+
Name: alpha-Cyperone
Formula: C15H22O
Exact mass: 218.1671
SMILES: CC1=C2CC(CCC2(CCC1=O)C)C(=C)C
InChI: InChI=1S/C15H22O/c1-10(2)12-5-7-15(4)8-6-14(16)11(3)13(15)9-12/h12H,1,5-9H2,2-4H3
Instrument: LTQ Orbitrap XL Thermo Scientific
Instrument type: LC-ESI-ITFT
Ms type: MS2
Ion mode: POSITIVE
Ionization: ESI
Fragmentation mode: HCD
Collision energy: 60 % (nominal)
Resolution: 15000
Column name: Kinetex Evo C18 2.6 um 50 x 2.1 mm
Retention time: 13.141 min
Base peak: 219.1741
Precursor m/z: 219.1743
Precursor type: [M+H]+
m/z	relative intensity	assigned
55.0541	26	C4H7+
67.0542	123	C5H7+
69.0699	38	C5H9+
77.0386	11	C6H5+
79.0542	70	C6H7+
81.0699	214	C6H9+
83.049	10	C5H7O+
83.0855	23	C6H11+
91.0542	61	C7H7+
93.0699	172	C7H9+
95.0855	197	C7H11+
97.0648	294	C6H9O+
105.0698	113	C8H9+
107.0855	142	C8H11+
109.0647	29	C7H9O+
109.1011	254	C8H13+
111.0804	999	C7H11O+
117.0698	27	C9H9+
119.0855	137	C9H11+
121.0647	30	C8H9O+
121.1011	94	C9H13+
123.0804	356	C8H11O+
123.1168	34	C9H15+
125.0958	15	C8H13O+
131.0855	44	C10H11+
133.1012	46	C10H13+
135.0804	99	C9H11O+
135.1168	65	C10H15+
137.096	252	C9H13O+
138.1039	45	C9H14O+
145.1011	104	C11H13+
147.1168	81	C11H15+
149.096	50	C10H13O+
149.1329	6	C11H17+
150.1038	13	C10H14O+
151.1116	7	C10H15O+
158.1091	7	C12H14+
159.1168	55	C12H15+
161.096	31	C11H13O+
161.1326	21	C12H17+
162.104	10	C11H14O+
163.1117	189	C11H15O+
164.119	6	C11H16O+
173.1322	13	C13H17+
175.1484	7	C13H19+
176.1196	28	C12H16O+
177.1273	20	C12H17O+
189.1272	16	C13H17O+
201.1635	14	C15H21+
204.1509	16	C14H20O+
219.1743	70	C15H23O+
