Mass spectrum: Tetrahydropalmatin; LC-ESI-ITFT; MS2; CE: 95%; R=15000; [M+H]+
Name: Tetrahydropalmatin
Name: D-Tetrahydropalmatine
Name: (13aR)-2,3,9,10-tetramethoxy-6,8,13,13a-tetrahydro-5H-isoquinolino[2,1-b]isoquinoline
Formula: C21H25NO4
Exact mass: 355.1784
SMILES: COC1=C(C2=C(C[C@@H]3C4=CC(=C(C=C4CCN3C2)OC)OC)C=C1)OC
InChI: InChI=1S/C21H25NO4/c1-23-18-6-5-13-9-17-15-11-20(25-3)19(24-2)10-14(15)7-8-22(17)12-16(13)21(18)26-4/h5-6,10-11,17H,7-9,12H2,1-4H3/t17-/m1/s1
Instrument: LTQ Orbitrap XL Thermo Scientific
Instrument type: LC-ESI-ITFT
Ms type: MS2
Ion mode: POSITIVE
Ionization: ESI
Fragmentation mode: HCD
Collision energy: 95% (nominal)
Resolution: 15000
Column name: Kinetex Evo C18 2.6 um 50 x 2.1 mm
Retention time: 7.471 min
Base peak: 356.1854
Precursor m/z: 356.1856
Precursor type: [M+H]+
m/z	relative intensity	assigned
77.0386	12	C6H5+
78.0464	6	C6H6+
79.0542	40	C6H7+
90.0464	6	C7H6+
91.0542	34	C7H7+
92.0619	4	C7H8+
93.0699	6	C7H9+
95.049	3	C6H7O+
102.0464	4	C8H6+
103.0542	42	C8H7+
104.062	15	C8H8+
105.0335	4	C7H5O+
105.0699	51	C8H9+
107.0491	63	C7H7O+
108.057	6	C7H8O+
109.0647	2	C7H9O+
115.054	5	C9H7+
117.0572	2	C8H7N+
118.0413	15	C8H6O+
118.0651	26	C8H8N+
119.0491	24	C8H7O+
119.073	17	C8H9N+
120.057	26	C8H8O+
120.0807	5	C8H10N+
121.0648	66	C8H9O+
122.0726	10	C8H10O+
124.0518	4	C7H8O2+
130.0651	30	C9H8N+
131.0729	546	C9H9N+
132.057	4	C9H8O+
133.0521	13	C8H7NO+
133.0646	24	C9H9O+
134.06	13	C8H8NO+
134.0726	46	C9H10O+
135.0441	75	C8H7O2+
135.0803	10	C9H11O+
139.0752	2	C8H11O2+
145.0523	2	C9H7NO+
145.0649	4	C10H9O+
146.06	32	C9H8NO+
146.0731	4	C10H10O+
147.0679	152	C9H9NO+
148.0519	32	C9H8O2+
148.0756	654	C9H10NO+
149.0468	3	C8H7NO2+
149.0595	20	C9H9O2+
150.0675	113	C9H10O2+
151.0748	18	C9H11O2+
158.0599	5	C10H8NO+
158.0728	6	C11H10O+
159.0679	135	C10H9NO+
160.0756	84	C10H10NO+
161.0595	4	C10H9O2+
161.0833	19	C10H11NO+
162.055	12	C9H8NO2+
162.0911	3	C10H12NO+
163.063	5	C9H9NO2+
165.091	53	C10H13O2+
174.055	35	C10H8NO2+
175.0627	8	C10H9NO2+
176.0706	999	C10H10NO2+
177.0783	396	C10H11NO2+
179.086	3	C14H11+
188.0705	3	C11H10NO2+
190.0862	39	C11H12NO2+
192.1018	493	C11H14NO2+
195.0809	2	C14H11O+
203.0849	3	C16H11+
207.0805	5	C15H11O+
218.073	3	C16H10O+
219.0801	4	C16H11O+
221.0959	6	C16H13O+
223.0761	3	C15H11O2+
233.0961	2	C17H13O+
235.0759	7	C16H11O2+
235.099	3	C16H13NO+
236.1077	3	C16H14NO+
237.091	4	C16H13O2+
249.0909	6	C17H13O2+
250.0861	4	C16H12NO2+
250.0986	4	C17H14O2+
251.0699	2	C16H11O3+
252.1026	2	C16H14NO2+
264.1021	9	C17H14NO2+
265.0855	2	C17H13O3+
266.1172	3	C17H16NO2+
278.1174	6	C18H16NO2+
279.1261	2	C18H17NO2+
292.0958	3	C18H14NO3+
294.1135	4	C18H16NO3+
296.128	6	C18H18NO3+
306.1125	7	C19H16NO3+
324.1231	8	C19H18NO4+
