Mass spectrum: Senecivernine N-oxide; LC-ESI-ITFT; MS2; CE: 105%; R=15000; [M+H]+
Name: Senecivernine N-oxide
Name: CID 14313723
Name: 7-hydroxy-5,6,7-trimethyl-4-methylidene-14-oxido-2,9-dioxa-14-azoniatricyclo[9.5.1.014,17]heptadec-11-ene-3,8-dione
Formula: C18H25NO6
Exact mass: 351.1682
SMILES: CC1C(C(C(=O)OCC2=CC[N+]3(C2C(CC3)OC(=O)C1=C)[O-])(C)O)C
InChI: InChI=1S/C18H25NO6/c1-10-11(2)16(20)25-14-6-8-19(23)7-5-13(15(14)19)9-24-17(21)18(4,22)12(10)3/h5,10,12,14-15,22H,2,6-9H2,1,3-4H3
Instrument: LTQ Orbitrap XL Thermo Scientific
Instrument type: LC-ESI-ITFT
Ms type: MS2
Ion mode: POSITIVE
Ionization: ESI
Fragmentation mode: HCD
Collision energy: 105% (nominal)
Resolution: 15000
Column name: Kinetex Evo C18 2.6 um 50x2.1 mm, Phenomenex
Retention time: 4.725 min
Base peak: 352.1753
Precursor m/z: 352.1755
Precursor type: [M+H]+
m/z	relative intensity	assigned
65.0385	21	C5H5+
66.0464	42	C5H6+
67.0416	32	C4H5N+
67.0542	65	C5H7+
68.0494	15	C4H6N+
77.0387	16	C6H5+
79.0543	115	C6H7+
80.0495	260	C5H6N+
81.0572	17	C5H7N+
81.0699	129	C6H9+
82.0651	20	C5H8N+
83.0493	17	C5H7O+
84.0447	13	C4H6NO+
91.0542	123	C7H7+
92.0495	98	C6H6N+
93.0573	430	C6H7N+
94.0651	999	C6H8N+
95.073	61	C6H9N+
96.0446	14	C5H6NO+
96.0807	28	C6H10N+
105.07	13	C8H9+
106.0651	159	C7H8N+
107.0726	19	C7H9N+
108.0447	19	C6H6NO+
108.0808	141	C7H10N+
110.0602	41	C6H8NO+
111.0439	22	C6H7O2+
117.0574	96	C8H7N+
118.0652	513	C8H8N+
119.073	88	C8H9N+
120.0808	603	C8H10N+
132.0802	11	C9H10N+
134.097	12	C9H12N+
136.0757	211	C8H10NO+
138.0915	16	C8H12NO+
