Mass spectrum: Echimidine N-oxide; LC-ESI-ITFT; MS2; CE: 50%; R=15000; [M+H]+
Name: Echimidine N-oxide
Name: [(7R,8R)-7-[(Z)-2-methylbut-2-enoyl]oxy-4-oxido-5,6,7,8-tetrahydro-3H-pyrrolizin-4-ium-1-yl]methyl (2R)-2,3-dihydroxy-2-[(1S)-1-hydroxyethyl]-3-methylbutanoate
Formula: C20H31NO8
Exact mass: 413.2050
SMILES: C/C=C(/C)\C(=O)O[C@@H]1CC[N+]2([C@@H]1C(=CC2)COC(=O)[C@@]([C@H](C)O)(C(C)(C)O)O)[O-]
InChI: InChI=1S/C20H31NO8/c1-6-12(2)17(23)29-15-8-10-21(27)9-7-14(16(15)21)11-28-18(24)20(26,13(3)22)19(4,5)25/h6-7,13,15-16,22,25-26H,8-11H2,1-5H3/b12-6-/t13-,15+,16+,20-,21?/m0/s1
Instrument: LTQ Orbitrap XL Thermo Scientific
Instrument type: LC-ESI-ITFT
Ms type: MS2
Ion mode: POSITIVE
Ionization: ESI
Fragmentation mode: HCD
Collision energy: 50% (nominal)
Resolution: 15000
Column name: Kinetex Evo C18 2.6 um 50 x 2.1 mm
Retention time: 6.563 min
Base peak: 414.2118
Precursor m/z: 414.2122
Precursor type: [M+H]+
m/z	relative intensity	assigned
55.0541	37	C4H7+
68.0494	8	C4H6N+
79.0542	4	C6H7+
80.0496	8	C5H6N+
81.0699	15	C6H9+
82.0652	4	C5H8N+
83.0492	126	C5H7O+
84.0444	9	C4H6NO+
91.0543	6	C7H7+
93.0574	33	C6H7N+
94.0651	24	C6H8N+
95.073	11	C6H9N+
106.0652	34	C7H8N+
108.0808	31	C7H10N+
109.0649	11	C7H9O+
109.0888	4	C7H11N+
110.06	7	C6H8NO+
111.068	8	C6H9NO+
112.0756	7	C6H10NO+
118.0651	24	C8H8N+
119.073	87	C8H9N+
120.0808	145	C8H10N+
121.0647	5	C8H9O+
121.0887	13	C8H11N+
122.0965	3	C8H12N+
124.0759	7	C7H10NO+
126.0909	5	C7H12NO+
136.0757	117	C8H10NO+
137.0836	285	C8H11NO+
138.0913	21	C8H12NO+
141.0911	66	C8H13O2+
152.107	6	C9H14NO+
154.0863	105	C8H12NO2+
172.097	3	C8H14NO3+
174.0915	3	C11H12NO+
174.1274	7	C12H16N+
176.1071	5	C11H14NO+
182.1184	3	C10H16NO2+
190.1228	11	C12H16NO+
192.1384	18	C12H18NO+
202.1227	5	C13H16NO+
218.1177	65	C13H16NO2+
219.1253	9	C13H17NO2+
220.1333	311	C13H18NO2+
236.1283	7	C13H18NO3+
237.136	109	C13H19NO3+
238.1436	7	C13H20NO3+
252.1227	3	C13H18NO4+
254.1387	999	C13H20NO4+
256.1171	2	C12H18NO5+
310.165	18	C16H24NO5+
312.1439	5	C15H22NO6+
314.1592	4	C15H24NO6+
338.16	74	C17H24NO6+
352.1756	141	C18H26NO6+
356.1707	18	C17H26NO7+
396.2019	99	C20H30NO7+
414.2126	60	C20H32NO8+
