Mass spectrum: Jacobine; LC-ESI-ITFT; MS2; CE: 50%; R=15000; [M+H]+
Name: Jacobine
Name: (1R,3`S,4S,6R,7R,17R)-7-hydroxy-3`,6,7-trimethylspiro[2,9-dioxa-14-azatricyclo[9.5.1.014,17]heptadec-11-ene-4,2`-oxirane]-3,8-dione
Formula: C18H25NO6
Exact mass: 351.1682
SMILES: C[C@@H]1C[C@]2([C@@H](O2)C)C(=O)O[C@@H]3CCN4[C@@H]3C(=CC4)COC(=O)[C@]1(C)O
InChI: InChI=1S/C18H25NO6/c1-10-8-18(11(2)25-18)16(21)24-13-5-7-19-6-4-12(14(13)19)9-23-15(20)17(10,3)22/h4,10-11,13-14,22H,5-9H2,1-3H3/t10-,11+,13-,14-,17-,18+/m1/s1
Instrument: LTQ Orbitrap XL Thermo Scientific
Instrument type: LC-ESI-ITFT
Ms type: MS2
Ion mode: POSITIVE
Ionization: ESI
Fragmentation mode: HCD
Collision energy: 50% (nominal)
Resolution: 15000
Column name: Kinetex Evo C18 2.6 um 50 x 2.1 mm
Retention time: 1.045 min
Base peak: 352.1754
Precursor m/z: 352.1755
Precursor type: [M+H]+
m/z	relative intensity	assigned
70.0651	92	C4H8N+
79.0543	60	C6H7+
80.0495	195	C5H6N+
91.0544	42	C7H7+
93.0698	118	C7H9+
94.0651	177	C6H8N+
95.0854	31	C7H11+
97.0647	25	C6H9O+
105.07	90	C8H9+
108.0807	83	C7H10N+
113.0598	99	C6H9O2+
115.0754	54	C6H11O2+
120.0808	999	C8H10N+
121.0889	29	C8H11N+
122.0964	712	C8H12N+
123.1043	513	C8H13N+
136.0763	40	C8H10NO+
137.0957	31	C9H13O+
138.0913	189	C8H12NO+
140.1071	155	C8H14NO+
147.0803	32	C10H11O+
155.1067	730	C9H15O2+
162.0914	139	C10H12NO+
165.091	45	C10H13O2+
183.1017	108	C10H15O3+
200.1432	42	C14H18N+
218.1535	36	C14H20NO+
234.1487	184	C14H20NO2+
262.1436	225	C15H20NO3+
264.1593	84	C15H22NO3+
280.1544	434	C15H22NO4+
308.1496	178	C16H22NO5+
324.1811	53	C17H26NO5+
352.1755	771	C18H26NO6+
