Mass spectrum: Senecionine N-oxide; LC-ESI-ITFT; MS2; CE: 105%; R=15000; [M+H]+
Name: Senecionine N-oxide
Name: (1R,4Z,6R,7R,17R)-4-ethylidene-7-hydroxy-6,7-dimethyl-14-oxido-2,9-dioxa-14-azoniatricyclo[9.5.1.014,17]heptadec-11-ene-3,8-dione
Formula: C18H25NO6
Exact mass: 351.1682
SMILES: C/C=C\1/C[C@H]([C@@](C(=O)OCC2=CC[N+]3([C@H]2[C@@H](CC3)OC1=O)[O-])(C)O)C
InChI: InChI=1S/C18H25NO6/c1-4-12-9-11(2)18(3,22)17(21)24-10-13-5-7-19(23)8-6-14(15(13)19)25-16(12)20/h4-5,11,14-15,22H,6-10H2,1-3H3/b12-4-/t11-,14-,15-,18-,19?/m1/s1
Instrument: LTQ Orbitrap XL Thermo Scientific
Instrument type: LC-ESI-ITFT
Ms type: MS2
Ion mode: POSITIVE
Ionization: ESI
Fragmentation mode: HCD
Collision energy: 105% (nominal)
Resolution: 15000
Column name: Kinetex Evo C18 2.6 um 50 x 2.1 mm
Retention time: 5.367 min
Base peak: 352.1752
Precursor m/z: 352.1755
Precursor type: [M+H]+
m/z	relative intensity	assigned
53.0384	8	C4H5+
65.0386	13	C5H5+
66.0464	31	C5H6+
67.0416	34	C4H5N+
67.0542	58	C5H7+
68.0496	12	C4H6N+
77.0387	16	C6H5+
78.034	9	C5H4N+
79.0543	73	C6H7+
80.0495	279	C5H6N+
81.0334	6	C5H5O+
81.0573	26	C5H7N+
81.0699	65	C6H9+
82.0652	16	C5H8N+
83.0492	8	C5H7O+
84.0446	6	C4H6NO+
91.0543	91	C7H7+
92.0495	78	C6H6N+
93.0573	348	C6H7N+
94.0651	999	C6H8N+
95.073	43	C6H9N+
96.0443	8	C5H6NO+
96.0809	37	C6H10N+
98.06	8	C5H8NO+
104.0494	6	C7H6N+
105.0697	15	C8H9+
106.0652	116	C7H8N+
107.0728	15	C7H9N+
107.0855	18	C8H11+
108.0442	11	C6H6NO+
108.0808	145	C7H10N+
110.0598	21	C6H8NO+
117.0573	82	C8H7N+
118.0652	362	C8H8N+
119.073	66	C8H9N+
120.0808	392	C8H10N+
136.0758	280	C8H10NO+
138.0914	15	C8H12NO+
139.0759	5	C8H11O2+
148.1122	7	C10H14N+
158.0957	8	C11H12N+
