Mass spectrum: Psoralen; LC-ESI-ITFT; MS2; CE: 115%; R=15000; [M+H]+
Name: Psoralen
Name: furo[3,2-g]chromen-7-one
Formula: C11H6O3
Exact mass: 186.0317
SMILES: O=C1OC2=CC3=C(C=CO3)C=C2C=C1
InChI: InChI=1S/C11H6O3/c12-11-2-1-7-5-8-3-4-13-9(8)6-10(7)14-11/h1-6H
Instrument: LTQ Orbitrap XL Thermo Scientific
Instrument type: LC-ESI-ITFT
Ms type: MS2
Ion mode: POSITIVE
Ionization: ESI
Fragmentation mode: HCD
Collision energy: 115 % (nominal)
Resolution: 15000
Column name: Kinetex Evo C18 2.6 um 50 x 2.1 mm
Retention time: 9.109 min
Base peak: 187.0389
Precursor m/z: 187.039
Precursor type: [M+H]+
m/z	relative intensity	assigned
51.0229	4	C4H3+
63.0229	3	C5H3+
65.0386	11	C5H5+
77.0386	484	C6H5+
89.0386	91	C7H5+
94.0412	4	C6H6O+
95.0492	100	C6H7O+
102.0465	65	C8H6+
103.0543	323	C8H7+
113.0387	5	C9H5+
114.0462	1	C9H6+
115.0543	299	C9H7+
131.0492	999	C9H7O+
143.0491	4	C10H7O+
159.0437	2	C10H7O2+
