Mass spectrum: (+)-Lupanine; LC-ESI-ITFT; MS2; CE: 70%; R=15000; [M+H]+
Name: (+)-Lupanine
Formula: C15H24N2O
Exact mass: 248.1889
SMILES: C1CCN2CC3CC(C2C1)CN4C3CCCC4=O
InChI: InChI=1S/C15H24N2O/c18-15-6-3-5-14-11-8-12(10-17(14)15)13-4-1-2-7-16(13)9-11/h11-14H,1-10H2
Instrument: LTQ Orbitrap XL Thermo Scientific
Instrument type: LC-ESI-ITFT
Ms type: MS2
Ion mode: POSITIVE
Ionization: ESI
Fragmentation mode: CID
Collision energy: 70 % (nominal)
Resolution: 15000
Column name: Kinetex Evo C18 2.6 um 50 x 2.1 mm
Retention time: 0.482 min
Base peak: 249.1955
Precursor m/z: 249.1961
Precursor type: [M+H]+
m/z	relative intensity	assigned
70.0651	8	C4H8N+
79.0543	6	C6H7+
80.0495	19	C5H6N+
82.0652	5	C5H8N+
84.0808	15	C5H10N+
85.065	6	C5H9O+
91.0543	19	C7H7+
93.07	6	C7H9+
94.0652	13	C6H8N+
96.0808	105	C6H10N+
98.0964	86	C6H12N+
100.0759	4	C5H10NO+
105.0699	21	C8H9+
107.0857	5	C8H11+
108.0808	16	C7H10N+
109.0887	3	C7H11N+
110.06	3	C6H8NO+
110.0966	9	C7H12N+
112.0757	46	C6H10NO+
112.1121	4	C7H14N+
114.0913	282	C6H12NO+
119.0855	3	C9H11+
120.0808	5	C8H10N+
122.0964	32	C8H12N+
124.0757	9	C7H10NO+
124.112	16	C8H14N+
131.0857	8	C10H11+
133.1012	16	C10H13+
134.0965	148	C9H12N+
135.1038	5	C9H13N+
136.1121	999	C9H14N+
138.0913	8	C8H12NO+
138.1278	12	C9H16N+
141.0697	3	C11H9+
145.1013	6	C11H13+
148.0757	11	C9H10NO+
148.1121	53	C10H14N+
150.1278	238	C10H16N+
152.107	38	C9H14NO+
152.1433	32	C10H18N+
155.085	2	C12H11+
157.1019	2	C12H13+
159.1169	9	C12H15+
162.0914	8	C10H12NO+
162.1279	15	C11H16N+
164.1071	8	C10H14NO+
164.1427	2	C11H18N+
166.1227	35	C10H16NO+
169.1014	4	C13H13+
174.1276	26	C12H16N+
176.1071	7	C11H14NO+
176.1434	32	C12H18N+
178.1225	8	C11H16NO+
183.117	3	C14H15+
186.1276	5	C13H16N+
187.1113	6	C13H15O+
188.1434	10	C13H18N+
189.1387	50	C12H17N2+
190.1591	10	C13H20N+
200.1433	7	C14H18N+
204.1382	105	C13H18NO+
206.1538	25	C13H20NO+
214.1588	3	C15H20N+
218.1539	23	C14H20NO+
229.1706	7	C15H21N2+
231.1855	387	C15H23N2+
232.1699	3	C15H22NO+
