Mass spectrum: (+)-Chelidonine; LC-ESI-ITFT; MS2; CE: 105%; R=15000; [M+H]+
Name: (+)-Chelidonine
Name: Chelidonine
Name: (1S,12S,13R)-24-methyl-5,7,18,20-tetraoxa-24-azahexacyclo[11.11.0.02,10.04,8.014,22.017,21]tetracosa-2,4(8),9,14(22),15,17(21)-hexaen-12-ol
Formula: C20H19NO5
Exact mass: 353.1263
SMILES: CN1Cc2c(ccc3c2OCO3)[C@@H]4[C@H]1c5cc6c(cc5C[C@@H]4O)OCO6
InChI: InChI=1S/C20H19NO5/c1-21-7-13-11(2-3-15-20(13)26-9-23-15)18-14(22)4-10-5-16-17(25-8-24-16)6-12(10)19(18)21/h2-3,5-6,14,18-19,22H,4,7-9H2,1H3/t14-,18-,19+/m0/s1
Instrument: LTQ Orbitrap XL Thermo Scientific
Instrument type: LC-ESI-ITFT
Ms type: MS2
Ion mode: POSITIVE
Ionization: ESI
Fragmentation mode: HCD
Collision energy: 105% (nominal)
Resolution: 15000
Column name: Kinetex Evo C18 2.6 um 50 x 2.1 mm
Retention time: 7.008 min
Base peak: 354.1337
Precursor m/z: 354.1336
Precursor type: [M+H]+
m/z	relative intensity	assigned
65.0385	2	C5H5+
77.0386	12	C6H5+
79.0543	16	C6H7+
89.0386	2	C7H5+
91.0542	7	C7H7+
103.0542	31	C8H7+
105.0334	8	C7H5O+
107.0492	1	C7H7O+
115.0543	9	C9H7+
117.0335	1	C8H5O+
117.0573	2	C8H7N+
118.0651	20	C8H8N+
119.0492	2	C8H7O+
130.0651	13	C9H8N+
131.0492	11	C9H7O+
132.0807	2	C9H10N+
135.0441	27	C8H7O2+
146.06	2	C9H8NO+
147.0437	3	C9H7O2+
148.0517	1	C9H8O2+
149.0599	2	C9H9O2+
151.0542	3	C12H7+
152.062	6	C12H8+
153.0698	3	C12H9+
158.0602	9	C10H8NO+
159.0435	5	C10H7O2+
160.0757	8	C10H10NO+
162.0553	1	C9H8NO2+
163.039	10	C9H7O3+
163.054	8	C13H7+
164.062	5	C13H8+
165.07	15	C13H9+
166.078	2	C13H10+
172.0514	1	C11H8O2+
176.062	15	C14H8+
177.0699	27	C14H9+
178.0777	79	C14H10+
179.0856	49	C14H11+
181.0645	1	C13H9O+
186.0552	2	C11H8NO2+
188.0621	32	C15H8+
188.0706	10	C11H10NO2+
189.0699	999	C15H9+
190.0777	49	C15H10+
191.0854	23	C15H11+
192.0572	3	C14H8O+
193.0646	1	C14H9O+
194.0732	2	C14H10O+
201.0702	5	C16H9+
202.0777	4	C16H10+
204.0576	1	C15H8O+
205.0647	22	C15H9O+
206.0724	3	C15H10O+
207.0804	18	C15H11O+
209.0594	2	C14H9O2+
216.0568	2	C16H8O+
217.0647	95	C16H9O+
218.0725	23	C16H10O+
219.0806	10	C16H11O+
221.0591	2	C15H9O2+
222.0678	7	C15H10O2+
233.0604	2	C16H9O2+
234.0682	1	C16H10O2+
235.0749	8	C16H11O2+
237.0905	3	C16H13O2+
245.0602	3	C17H9O2+
246.0674	43	C17H10O2+
247.0752	37	C17H11O2+
275.0705	3	C18H11O3+
