Mass spectrum: Erucifoline; LC-ESI-ITFT; MS2; CE: 70%; R=15000; [M+H]+
Name: Erucifoline
Name: (5R,7S,9Z,12R,18R)-9-ethylidene-7-(hydroxymethyl)-5-methyl-3,6,11-trioxa-15-azatetracyclo[10.5.1.05,7.015,18]octadec-1(17)-ene-4,10-dione
Formula: C18H23NO6
Exact mass: 349.1525
SMILES: C/C=C\1/C[C@@]2([C@@](O2)(C(=O)OCC3=CCN4[C@H]3[C@@H](CC4)OC1=O)C)CO
InChI: InChI=1S/C18H23NO6/c1-3-11-8-18(10-20)17(2,25-18)16(22)23-9-12-4-6-19-7-5-13(14(12)19)24-15(11)21/h3-4,13-14,20H,5-10H2,1-2H3/b11-3-/t13-,14-,17+,18+/m1/s1
Instrument: LTQ Orbitrap XL Thermo Scientific
Instrument type: LC-ESI-ITFT
Ms type: MS2
Ion mode: POSITIVE
Ionization: ESI
Fragmentation mode: HCD
Collision energy: 70% (nominal)
Resolution: 15000
Column name: Kinetex Evo C18 2.6 um 50 x 2.1 mm
Retention time: 0.959 min
Base peak: 350.1597
Precursor m/z: 350.1598
Precursor type: [M+H]+
m/z	relative intensity	assigned
53.0385	16	C4H5+
55.054	21	C4H7+
65.0385	30	C5H5+
67.0416	25	C4H5N+
67.0542	355	C5H7+
68.0494	124	C4H6N+
69.0573	15	C4H7N+
69.0699	22	C5H9+
77.0386	107	C6H5+
79.0542	160	C6H7+
80.0495	257	C5H6N+
81.0336	24	C5H5O+
81.0573	58	C5H7N+
81.0699	135	C6H9+
82.0651	259	C5H8N+
83.0492	80	C5H7O+
84.0444	27	C4H6NO+
84.0805	10	C5H10N+
86.0601	14	C4H8NO+
91.0543	271	C7H7+
92.0493	41	C6H6N+
93.0574	32	C6H7N+
93.0699	302	C7H9+
94.0651	739	C6H8N+
95.0492	86	C6H7O+
95.0729	64	C6H9N+
95.0855	34	C7H11+
96.0808	462	C6H10N+
97.0648	35	C6H9O+
103.0542	166	C8H7+
105.0572	40	C7H7N+
105.0699	53	C8H9+
106.0652	78	C7H8N+
107.073	32	C7H9N+
108.0808	163	C7H10N+
109.0648	177	C7H9O+
109.0885	26	C7H11N+
110.0599	44	C6H8NO+
110.0964	177	C7H12N+
111.0441	66	C6H7O2+
111.0807	18	C7H11O+
118.0651	171	C8H8N+
119.0729	41	C8H9N+
120.0808	999	C8H10N+
121.0648	69	C8H9O+
121.0887	92	C8H11N+
122.0964	251	C8H12N+
123.0441	60	C7H7O2+
123.0802	25	C8H11O+
125.0596	47	C7H9O2+
136.0756	59	C8H10NO+
136.1124	13	C9H14N+
137.0597	30	C8H9O2+
138.0913	708	C8H12NO+
139.0753	10	C8H11O2+
139.0992	12	C8H13NO+
140.1074	18	C8H14NO+
141.0546	33	C7H9O3+
146.0964	34	C10H12N+
156.1022	23	C8H14NO2+
164.1071	65	C10H14NO+
165.0548	16	C9H9O3+
182.1176	13	C10H16NO2+
220.1332	98	C13H18NO2+
236.1288	14	C13H18NO3+
350.1601	57	C18H24NO6+
