Mass spectrum: 8-Prenylnaringenin; LC-ESI-ITFT; MS2; CE: 55%; R=15000; [M+H]+
Name: 8-Prenylnaringenin
Name: (2S)-5,7-dihydroxy-2-(4-hydroxyphenyl)-8-(3-methylbut-2-enyl)-2,3-dihydrochromen-4-one
Formula: C20H20O5
Exact mass: 340.1311
SMILES: CC(=CCC1=C(C=C(C2=C1O[C@@H](CC2=O)C3=CC=C(C=C3)O)O)O)C
InChI: InChI=1S/C20H20O5/c1-11(2)3-8-14-15(22)9-16(23)19-17(24)10-18(25-20(14)19)12-4-6-13(21)7-5-12/h3-7,9,18,21-23H,8,10H2,1-2H3/t18-/m0/s1
Instrument: LTQ Orbitrap XL Thermo Scientific
Instrument type: LC-ESI-ITFT
Ms type: MS2
Ion mode: POSITIVE
Ionization: ESI
Fragmentation mode: HCD
Collision energy: 55% (nominal)
Resolution: 15000
Column name: Kinetex Evo C18 2.6 um 50 x 2.1 mm
Retention time: 11.918 min
Base peak: 116.9859
Precursor m/z: 341.1384
Precursor type: [M+H]+
m/z	relative intensity	assigned
55.0177	10	C3H3O+
107.0492	26	C7H7O+
121.0648	13	C8H9O+
123.0077	26	C6H3O3+
137.0233	7	C7H5O3+
141.0183	9	C6H5O4+
147.0441	22	C9H7O2+
165.0183	999	C8H5O4+
179.0339	16	C9H7O4+
183.0289	41	C8H7O5+
191.0336	6	C10H7O4+
197.0443	7	C9H9O5+
221.0805	4	C12H13O4+
225.0546	5	C14H9O3+
243.0652	6	C14H11O4+
267.0655	5	C16H11O4+
285.0769	9	C16H13O5+
