Mass spectrum: Lasiocarpine N-oxide; LC-ESI-ITFT; MS2; CE: 60%; R=15000; [M+H]+
Name: Lasiocarpine N-oxide
Name: [(7S,8R)-7-[(Z)-2-methylbut-2-enoyl]oxy-4-oxido-5,6,7,8-tetrahydro-3H-pyrrolizin-4-ium-1-yl]methyl (2R)-2,3-dihydroxy-2-[(1S)-1-methoxyethyl]-3-methylbutanoate
Formula: C21H33NO8
Exact mass: 427.2206
SMILES: C/C=C(/C)\C(=O)O[C@H]1CC[N+]2([C@@H]1C(=CC2)COC(=O)[C@@]([C@H](C)OC)(C(C)(C)O)O)[O-]
InChI: InChI=1S/C21H33NO8/c1-7-13(2)18(23)30-16-9-11-22(27)10-8-15(17(16)22)12-29-19(24)21(26,14(3)28-6)20(4,5)25/h7-8,14,16-17,25-26H,9-12H2,1-6H3/b13-7-/t14-,16-,17+,21-,22?/m0/s1
Instrument: LTQ Orbitrap XL Thermo Scientific
Instrument type: LC-ESI-ITFT
Ms type: MS2
Ion mode: POSITIVE
Ionization: ESI
Fragmentation mode: HCD
Collision energy: 60% (nominal)
Resolution: 15000
Column name: Kinetex Evo C18 2.6 um 50 x 2.1 mm
Retention time: 7.965 min
Base peak: 428.2271
Precursor m/z: 428.2279
Precursor type: [M+H]+
m/z	relative intensity	assigned
55.0541	101	C4H7+
59.049	34	C3H7O+
67.0542	4	C5H7+
68.0494	27	C4H6N+
69.0698	9	C5H9+
79.0542	23	C6H7+
80.0494	108	C5H6N+
81.0572	17	C5H7N+
81.0698	71	C6H9+
82.0413	8	C5H6O+
82.065	22	C5H8N+
83.0491	211	C5H7O+
84.0443	30	C4H6NO+
91.0541	17	C7H7+
92.0495	7	C6H6N+
92.062	6	C7H8+
93.0573	406	C6H7N+
94.065	722	C6H8N+
95.0729	32	C6H9N+
96.0806	19	C6H10N+
97.0647	32	C6H9O+
98.06	6	C5H8NO+
106.0651	589	C7H8N+
107.0727	9	C7H9N+
107.0854	15	C8H11+
108.0807	176	C7H10N+
109.0646	28	C7H9O+
109.0884	18	C7H11N+
110.0599	29	C6H8NO+
111.0678	432	C6H9NO+
112.0757	17	C6H10NO+
118.065	144	C8H8N+
119.0729	959	C8H9N+
120.0807	750	C8H10N+
121.0885	127	C8H11N+
122.0596	9	C7H8NO+
122.0962	22	C8H12N+
124.0756	46	C7H10NO+
126.091	12	C7H12NO+
134.0966	12	C9H12N+
136.0756	736	C8H10NO+
137.0834	999	C8H11NO+
138.0911	830	C8H12NO+
141.0909	73	C8H13O2+
148.1118	11	C10H14N+
150.0906	4	C9H12NO+
152.1068	18	C9H14NO+
154.0862	187	C8H12NO2+
155.0938	56	C8H13NO2+
156.1015	15	C8H14NO2+
172.0967	307	C8H14NO3+
190.1224	21	C12H16NO+
192.139	8	C12H18NO+
218.1174	31	C13H16NO2+
220.133	53	C13H18NO2+
237.1356	25	C13H19NO3+
254.1385	768	C13H20NO4+
256.1177	30	C12H18NO5+
270.1332	16	C13H20NO5+
328.1747	12	C16H26NO6+
338.1589	23	C17H24NO6+
