Mass spectrum: (+)-Costunolide; LC-ESI-ITFT; MS2; CE: 55%; R=15000; [M+H]+
Name: (+)-Costunolide
Name: Costunolide
Name: (3aS,6E,10E,11aR)-6,10-dimethyl-3-methylidene-3a,4,5,8,9,11a-hexahydrocyclodeca[b]furan-2-one
Formula: C15H20O2
Exact mass: 232.1463
SMILES: C/C/1=C\CC/C(=C/[C@@H]2[C@@H](CC1)C(=C)C(=O)O2)/C
InChI: InChI=1S/C15H20O2/c1-10-5-4-6-11(2)9-14-13(8-7-10)12(3)15(16)17-14/h5,9,13-14H,3-4,6-8H2,1-2H3/b10-5+,11-9+/t13-,14+/m0/s1
Instrument: LTQ Orbitrap XL Thermo Scientific
Instrument type: LC-ESI-ITFT
Ms type: MS2
Ion mode: POSITIVE
Ionization: ESI
Fragmentation mode: HCD
Collision energy: 55% (nominal)
Resolution: 15000
Column name: Kinetex Evo C18 2.6 um 50 x 2.1 mm
Retention time: 11.700 min
Base peak: 116.9859
Precursor m/z: 233.1536
Precursor type: [M+H]+
m/z	relative intensity	assigned
55.054	9	C4H7+
67.0542	31	C5H7+
69.0699	33	C5H9+
79.0543	68	C6H7+
81.0699	225	C6H9+
83.0856	11	C6H11+
91.0543	104	C7H7+
93.0699	217	C7H9+
95.0856	264	C7H11+
97.065	15	C6H9O+
105.0699	339	C8H9+
107.0856	215	C8H11+
109.065	10	C7H9O+
109.1012	91	C8H13+
111.0805	17	C7H11O+
117.0699	60	C9H9+
119.0856	160	C9H11+
121.0648	22	C8H9O+
121.1012	65	C9H13+
125.0598	31	C7H9O2+
131.0856	404	C10H11+
133.0647	17	C9H9O+
133.1013	120	C10H13+
134.109	11	C10H14+
135.0445	8	C8H7O2+
135.0802	18	C9H11O+
135.1166	24	C10H15+
137.0598	17	C8H9O2+
139.0754	44	C8H11O2+
143.0857	25	C11H11+
145.1013	456	C11H13+
147.0803	9	C10H11O+
147.117	99	C11H15+
149.06	19	C9H9O2+
149.0964	8	C10H13O+
151.0756	25	C9H11O2+
153.0913	7	C9H13O2+
155.0857	32	C12H11+
157.1012	21	C12H13+
159.0805	47	C11H11O+
159.1169	236	C12H15+
161.1326	165	C12H17+
163.0754	34	C10H11O2+
165.0917	8	C10H13O2+
169.1011	23	C13H13+
171.1171	21	C13H15+
173.0961	43	C12H13O+
173.1326	20	C13H17+
177.091	84	C11H13O2+
182.1092	22	C14H14+
185.1323	15	C14H17+
187.1482	999	C14H19+
191.1065	35	C12H15O2+
197.1326	56	C15H17+
215.1431	122	C15H19O+
233.1537	95	C15H21O2+
