Mass spectrum: Protopin; LC-ESI-ITFT; MS2; CE: 35%; R=15000; [M+H]+
Name: Protopin
Name: Protopine
Name: 15-methyl-7,9,19,21-tetraoxa-15-azapentacyclo[15.7.0.04,12.06,10.018,22]tetracosa-1(17),4,6(10),11,18(22),23-hexaen-3-one
Formula: C20H19NO5
Exact mass: 353.1263
SMILES: CN1CCC2=CC3=C(C=C2C(=O)CC4=C(C1)C5=C(C=C4)OCO5)OCO3
InChI: InChI=1S/C20H19NO5/c1-21-5-4-13-7-18-19(25-10-24-18)8-14(13)16(22)6-12-2-3-17-20(15(12)9-21)26-11-23-17/h2-3,7-8H,4-6,9-11H2,1H3
Instrument: LTQ Orbitrap XL Thermo Scientific
Instrument type: LC-ESI-ITFT
Ms type: MS2
Ion mode: POSITIVE
Ionization: ESI
Fragmentation mode: HCD
Collision energy: 35% (nominal)
Resolution: 15000
Column name: Kinetex Evo C18 2.6 um 50 x 2.1 mm
Retention time: 6.747 min
Base peak: 354.1337
Precursor m/z: 354.1336
Precursor type: [M+H]+
m/z	relative intensity	assigned
135.044	5	C8H7O2+
144.081	4	C10H10N+
149.0597	133	C9H9O2+
161.0603	1	C10H9O2+
165.0546	42	C9H9O3+
175.0389	12	C10H7O3+
176.0709	2	C10H10NO2+
177.0547	1	C10H9O3+
177.0782	8	C10H11NO2+
178.0863	11	C10H12NO2+
188.0706	181	C11H10NO2+
189.0784	162	C11H11NO2+
190.0861	8	C11H12NO2+
192.102	5	C11H14NO2+
204.0655	4	C11H10NO3+
206.0811	48	C11H12NO3+
212.1284	1	C11H18NO3+
223.0755	2	C15H11O2+
225.0914	3	C15H13O2+
235.0755	3	C16H11O2+
247.0757	7	C17H11O2+
253.0859	7	C16H13O3+
265.0859	11	C17H13O3+
267.0647	5	C16H11O4+
275.0703	25	C18H11O3+
283.0966	5	C17H15O4+
293.0806	9	C18H13O4+
295.0967	9	C18H15O4+
305.0808	17	C19H13O4+
306.1133	4	C19H16NO3+
307.0961	2	C19H15O4+
311.091	3	C18H15O5+
321.099	2	C19H15NO4+
323.0914	21	C19H15O5+
336.1231	46	C20H18NO4+
354.1336	999	C20H20NO5+
