Mass spectrum: (+)-Lupanine; LC-ESI-ITFT; MS2; CE: 125%; R=15000; [M+H]+
Name: (+)-Lupanine
Formula: C15H24N2O
Exact mass: 248.1889
SMILES: C1CCN2CC3CC(C2C1)CN4C3CCCC4=O
InChI: InChI=1S/C15H24N2O/c18-15-6-3-5-14-11-8-12(10-17(14)15)13-4-1-2-7-16(13)9-11/h11-14H,1-10H2
Instrument: LTQ Orbitrap XL Thermo Scientific
Instrument type: LC-ESI-ITFT
Ms type: MS2
Ion mode: POSITIVE
Ionization: ESI
Fragmentation mode: HCD
Collision energy: 125 % (nominal)
Resolution: 15000
Column name: Kinetex Evo C18 2.6 um 50 x 2.1 mm
Retention time: 0.587 min
Base peak: 235.2166
Precursor m/z: 249.1961
Precursor type: [M+H]+
m/z	relative intensity	assigned
55.0541	37	C4H7+
56.0495	22	C3H6N+
67.0542	217	C5H7+
68.0493	48	C4H6N+
69.0699	35	C5H9+
70.0651	532	C4H8N+
77.0386	83	C6H5+
79.0542	221	C6H7+
80.0495	253	C5H6N+
81.0575	22	C5H7N+
81.0699	159	C6H9+
82.0651	209	C5H8N+
84.0808	999	C5H10N+
85.0647	69	C5H9O+
91.0542	249	C7H7+
93.0572	54	C6H7N+
93.0699	133	C7H9+
94.0651	174	C6H8N+
95.0855	48	C7H11+
96.0808	286	C6H10N+
98.06	62	C5H8NO+
98.0964	583	C6H12N+
100.0759	20	C5H10NO+
105.0699	120	C8H9+
106.065	57	C7H8N+
107.0729	49	C7H9N+
108.0808	226	C7H10N+
109.0886	62	C7H11N+
110.0963	146	C7H12N+
112.0756	325	C6H10NO+
114.0914	45	C6H12NO+
119.0856	22	C9H11+
120.0807	126	C8H10N+
121.0884	37	C8H11N+
122.0964	229	C8H12N+
124.1123	54	C8H14N+
132.0809	28	C9H10N+
134.0964	351	C9H12N+
135.1046	41	C9H13N+
136.1121	410	C9H14N+
146.0969	18	C10H12N+
148.112	145	C10H14N+
150.1276	284	C10H16N+
152.1432	77	C10H18N+
174.1273	20	C12H16N+
249.1962	121	C15H25N2O+
