Mass spectrum: Adenine; LC-ESI-ITFT; MS2; CE: 90%; R=15000; [M+H]+
Name: Adenine
Name: 7H-purin-6-amine
Formula: C5H5N5
Exact mass: 135.0545
SMILES: NC1=C2N=CNC2=NC=N1
InChI: InChI=1S/C5H5N5/c6-4-3-5(9-1-7-3)10-2-8-4/h1-2H,(H3,6,7,8,9,10)
Instrument: LTQ Orbitrap XL Thermo Scientific
Instrument type: LC-ESI-ITFT
Ms type: MS2
Ion mode: POSITIVE
Ionization: ESI
Fragmentation mode: HCD
Collision energy: 90% (nominal)
Resolution: 15000
Column name: Kinetex Evo C18 2.6 um 50 x 2.1 mm
Retention time: 0.712 min
Base peak: 136.0616
Precursor m/z: 136.0618
Precursor type: [M+H]+
m/z	relative intensity	assigned
67.029	21	C3H3N2+
82.04	5	C3H4N3+
92.0243	59	C4H2N3+
94.04	119	C4H4N3+
109.0508	60	C4H5N4+
119.0352	999	C5H3N4+
136.0617	965	C5H6N5+
