Mass spectrum: Yohimbine; LC-ESI-ITFT; MS2; CE: 50%; R=15000; [M+H]+
Name: Yohimbine
Name: methyl (1S,15R,18S,19R,20S)-18-hydroxy-1,3,11,12,14,15,16,17,18,19,20,21-dodecahydroyohimban-19-carboxylate
Formula: C21H26N2O3
Exact mass: 354.1943
SMILES: COC(=O)[C@H]1[C@H](CC[C@@H]2[C@@H]1C[C@H]3c4c(c5ccccc5[nH]4)CCN3C2)O
InChI: InChI=1S/C21H26N2O3/c1-26-21(25)19-15-10-17-20-14(13-4-2-3-5-16(13)22-20)8-9-23(17)11-12(15)6-7-18(19)24/h2-5,12,15,17-19,22,24H,6-11H2,1H3/t12-,15-,17-,18-,19+/m0/s1
Instrument: LTQ Orbitrap XL Thermo Scientific
Instrument type: LC-ESI-ITFT
Ms type: MS2
Ion mode: POSITIVE
Ionization: ESI
Fragmentation mode: HCD
Collision energy: 50% (nominal)
Resolution: 15000
Column name: Kinetex Evo C18 2.6 um 50 x 2.1 mm
Retention time: 6.501 min
Base peak: 355.2017
Precursor m/z: 355.2016
Precursor type: [M+H]+
m/z	relative intensity	assigned
79.054	1	C6H7+
94.0653	1	C6H8N+
105.0698	2	C8H9+
106.0652	2	C7H8N+
107.0857	1	C8H11+
117.0699	14	C9H9+
119.0859	1	C9H11+
130.0652	9	C9H8N+
132.0808	3	C9H10N+
134.0965	21	C9H12N+
135.0809	1	C9H11O+
136.1123	2	C9H14N+
144.0808	999	C10H10N+
145.0648	1	C10H9O+
146.096	2	C10H12N+
152.1071	1	C9H14NO+
156.0806	1	C11H10N+
158.0965	12	C11H12N+
162.0913	19	C10H12NO+
163.0751	1	C10H11O2+
168.0807	1	C12H10N+
170.0964	2	C12H12N+
177.0904	2	C11H13O2+
180.102	18	C10H14NO2+
192.1019	4	C11H14NO2+
194.1176	36	C11H16NO2+
198.1125	1	C10H16NO3+
206.1177	3	C12H16NO2+
208.1125	1	C15H14N+
210.1128	2	C11H16NO3+
212.1282	281	C11H18NO3+
220.1125	1	C16H14N+
221.1207	1	C16H15N+
224.1281	45	C12H18NO3+
226.1441	2	C12H20NO3+
234.1276	2	C17H16N+
246.1272	2	C18H16N+
248.1433	6	C18H18N+
260.1431	5	C19H18N+
266.1543	3	C18H20NO+
276.139	1	C19H18NO+
278.1541	1	C19H20NO+
288.138	2	C20H18NO+
294.1492	8	C19H20NO2+
306.1483	5	C20H20NO2+
308.1643	6	C20H22NO2+
320.1644	2	C21H22NO2+
323.1752	1	C20H23N2O2+
326.1749	7	C20H24NO3+
337.1908	2	C21H25N2O2+
338.1751	6	C21H24NO3+
355.2018	89	C21H27N2O3+
