Mass spectrum: Cortisone; LC-ESI-ITFT; MS2; CE: 130%; R=15000; [M+H]+
Name: Cortisone
Name: (8S,9S,10R,13S,14S,17R)-17-hydroxy-17-(2-hydroxyacetyl)-10,13-dimethyl-1,2,6,7,8,9,12,14,15,16-decahydrocyclopenta[a]phenanthrene-3,11-dione
Formula: C21H28O5
Exact mass: 360.1937
SMILES: C[C@]12CC(=O)[C@H]3[C@@H](CCC4=CC(=O)CC[C@]34C)[C@@H]1CC[C@]2(O)C(=O)CO
InChI: InChI=1S/C21H28O5/c1-19-7-5-13(23)9-12(19)3-4-14-15-6-8-21(26,17(25)11-22)20(15,2)10-16(24)18(14)19/h9,14-15,18,22,26H,3-8,10-11H2,1-2H3/t14-,15-,18+,19-,20-,21-/m0/s1
Instrument: LTQ Orbitrap XL Thermo Scientific
Instrument type: LC-ESI-ITFT
Ms type: MS2
Ion mode: POSITIVE
Ionization: ESI
Fragmentation mode: HCD
Collision energy: 130 % (nominal)
Resolution: 15000
Column name: Kinetex Evo C18 2.6 um 50 x 2.1 mm
Retention time: 9.601 min
Base peak: 361.2009
Precursor m/z: 361.201
Precursor type: [M+H]+
m/z	relative intensity	assigned
77.0383	291	C6H5+
78.0462	18	C6H6+
79.054	427	C6H7+
81.0333	23	C5H5O+
81.0697	146	C6H9+
83.049	152	C5H7O+
91.0541	999	C7H7+
92.0618	21	C7H8+
93.0697	194	C7H9+
95.049	99	C6H7O+
97.0647	167	C6H9O+
103.0542	151	C8H7+
104.062	53	C8H8+
105.0446	483	C6H5N2+
105.0698	491	C8H9+
107.049	133	C7H7O+
107.0854	44	C8H11+
109.0646	25	C7H9O+
115.0541	313	C9H7+
116.0619	74	C9H8+
117.0697	167	C9H9+
119.0489	15	C8H7O+
119.0603	34	C7H7N2+
119.0854	84	C9H11+
121.0646	150	C8H9O+
128.0618	295	C10H8+
129.0696	257	C10H9+
130.0775	105	C10H10+
131.049	41	C9H7O+
131.0853	58	C10H11+
132.0569	19	C9H8O+
133.0645	149	C9H9O+
133.1014	9	C10H13+
141.0696	180	C11H9+
142.0774	81	C11H10+
143.0853	56	C11H11+
144.0569	18	C10H8O+
145.0644	39	C10H9O+
145.1015	14	C11H13+
146.0726	22	C10H10O+
147.0802	215	C10H11O+
148.0879	134	C10H12O+
152.0616	59	C12H8+
153.0696	99	C12H9+
154.0774	44	C12H10+
155.0601	73	C10H7N2+
155.0853	64	C12H11+
157.1008	13	C12H13+
159.0801	22	C11H11O+
165.0696	133	C13H9+
166.0771	36	C13H10+
167.085	66	C13H11+
169.1004	12	C13H13+
171.0806	10	C12H11O+
173.0968	11	C12H13O+
178.0774	66	C14H10+
179.0856	45	C14H11+
181.1013	19	C14H13+
189.0694	13	C15H9+
191.0853	26	C15H11+
225.1264	8	C16H17O+
