Mass spectrum: Homoharringtonine; LC-ESI-ITFT; MS2; CE: 105%; R=15000; [M+H]+
Name: Homoharringtonine
Name: Omacetaxine mepesuccinate
Name: 1-O-[(2S,3S,6R)-4-methoxy-16,18-dioxa-10-azapentacyclo[11.7.0.02,6.06,10.015,19]icosa-1(20),4,13,15(19)-tetraen-3-yl] 4-O-methyl (2R)-2-hydroxy-2-(4-hydroxy-4-methylpentyl)butanedioate
Formula: C29H39NO9
Exact mass: 545.2625
SMILES: CC(C)(CCC[C@@](CC(=O)OC)(C(=O)O[C@H]1[C@H]2c3cc4c(cc3CCN5[C@@]2(CCC5)C=C1OC)OCO4)O)O
InChI: InChI=1S/C29H39NO9/c1-27(2,33)8-5-10-29(34,16-23(31)36-4)26(32)39-25-22(35-3)15-28-9-6-11-30(28)12-7-18-13-20-21(38-17-37-20)14-19(18)24(25)28/h13-15,24-25,33-34H,5-12,16-17H2,1-4H3/t24-,25-,28+,29-/m1/s1
Instrument: LTQ Orbitrap XL Thermo Scientific
Instrument type: LC-ESI-ITFT
Ms type: MS2
Ion mode: POSITIVE
Ionization: ESI
Fragmentation mode: HCD
Collision energy: 105% (nominal)
Resolution: 15000
Column name: Kinetex Evo C18 2.6 um 50 x 2.1 mm
Retention time: 7.154 min
Base peak: 546.2694
Precursor m/z: 546.2698
Precursor type: [M+H]+
m/z	relative intensity	assigned
69.0699	53	C5H9+
77.0385	96	C6H5+
79.0542	141	C6H7+
91.0542	293	C7H7+
93.0698	105	C7H9+
95.0496	44	C6H7O+
96.0805	39	C6H10N+
103.0542	248	C8H7+
107.0729	142	C7H9N+
110.0602	111	C6H8NO+
115.0543	498	C9H7+
116.0624	58	C9H8+
117.0699	52	C9H9+
118.0652	70	C8H8N+
119.049	58	C8H7O+
122.0599	59	C7H8NO+
128.0622	216	C10H8+
129.0699	127	C10H9+
135.0443	81	C8H7O2+
135.0676	67	C8H9NO+
139.0543	214	C11H7+
140.0624	71	C11H8+
141.0699	287	C11H9+
142.0652	91	C10H8N+
143.0491	58	C10H7O+
145.0652	46	C10H9O+
147.0443	41	C9H7O2+
150.0915	616	C9H12NO+
151.0545	53	C12H7+
152.0621	635	C12H8+
153.0571	55	C11H7N+
153.0701	605	C12H9+
154.0653	263	C11H8N+
154.0774	52	C12H10+
155.0496	70	C11H7O+
155.0733	59	C11H9N+
155.0859	92	C12H11+
156.0813	87	C11H10N+
159.044	81	C10H7O2+
161.0598	40	C10H9O2+
164.0622	70	C13H8+
165.07	999	C13H9+
166.0654	78	C12H8N+
166.0777	187	C13H10+
167.0494	110	C12H7O+
167.0731	339	C12H9N+
167.0855	137	C13H11+
168.0571	145	C12H8O+
168.0809	357	C12H10N+
169.0648	76	C12H9O+
169.0883	92	C12H11N+
170.0605	66	C11H8NO+
170.0967	189	C12H12N+
171.0448	112	C11H7O2+
171.1038	51	C12H13N+
172.0519	105	C11H8O2+
172.1123	46	C12H14N+
173.0476	90	C10H7NO2+
173.0605	46	C11H9O2+
174.055	108	C10H8NO2+
176.062	55	C14H8+
176.0708	102	C10H10NO2+
178.0778	333	C14H10+
179.0856	252	C14H11+
180.0573	87	C13H8O+
180.081	302	C13H10N+
181.0648	261	C13H9O+
181.0888	174	C13H11N+
182.06	127	C12H8NO+
182.0729	121	C13H10O+
182.0966	342	C13H12N+
183.0683	77	C12H9NO+
183.0799	54	C13H11O+
184.0757	89	C12H10NO+
185.0601	143	C12H9O2+
186.0554	52	C11H8NO2+
189.07	163	C15H9+
190.0781	109	C15H10+
191.0858	137	C15H11+
192.0811	191	C14H10N+
193.0648	101	C14H9O+
193.0892	168	C14H11N+
194.0734	53	C14H10O+
194.0964	224	C14H12N+
195.0805	168	C14H11O+
196.076	232	C13H10NO+
196.1122	153	C14H14N+
197.06	153	C13H9O2+
197.0836	60	C13H11NO+
198.055	276	C12H8NO2+
198.0676	83	C13H10O2+
198.0916	142	C13H12NO+
199.0386	48	C12H7O3+
199.0625	175	C12H9NO2+
200.0708	127	C12H10NO2+
200.1068	75	C13H14NO+
206.0963	121	C15H12N+
207.0807	65	C15H11O+
207.1039	80	C15H13N+
208.1121	306	C15H14N+
209.0598	146	C14H9O2+
209.0841	48	C14H11NO+
210.0678	57	C14H10O2+
210.0912	274	C14H12NO+
211.0626	305	C13H9NO2+
211.0749	69	C14H11O2+
211.0989	64	C14H13NO+
212.0704	241	C13H10NO2+
212.1065	92	C14H14NO+
213.0786	108	C13H11NO2+
214.0863	217	C13H12NO2+
220.0764	74	C15H10NO+
222.0912	162	C15H12NO+
223.0758	81	C15H11O2+
223.0987	79	C15H13NO+
224.0704	340	C14H10NO2+
224.1067	118	C15H14NO+
225.055	56	C14H9O3+
225.0786	217	C14H11NO2+
226.0863	600	C14H12NO2+
227.058	142	C13H9NO3+
227.0933	60	C14H13NO2+
228.1019	151	C14H14NO2+
236.1067	111	C16H14NO+
237.0794	47	C15H11NO2+
238.0863	353	C15H12NO2+
238.1231	93	C16H16NO+
239.0944	187	C15H13NO2+
240.102	626	C15H14NO2+
250.0868	161	C16H12NO2+
251.0949	122	C16H13NO2+
252.1018	175	C16H14NO2+
254.117	89	C16H16NO2+
264.1021	74	C17H14NO2+
266.1176	186	C17H16NO2+
268.097	62	C16H14NO3+
