Mass spectrum: Senkirkine; LC-ESI-ITFT; MS2; CE: 95%; R=15000; [M+H]+
Name: Senkirkine
Name: (1R,4Z,6R,7R,11Z)-4-ethylidene-7-hydroxy-6,7,14-trimethyl-2,9-dioxa-14-azabicyclo[9.5.1]heptadec-11-ene-3,8,17-trione
Formula: C19H27NO6
Exact mass: 365.1838
SMILES: C/C=C\1/C[C@H]([C@@](C(=O)OC/C/2=C/CN(CC[C@H](C2=O)OC1=O)C)(C)O)C
InChI: InChI=1S/C19H27NO6/c1-5-13-10-12(2)19(3,24)18(23)25-11-14-6-8-20(4)9-7-15(16(14)21)26-17(13)22/h5-6,12,15,24H,7-11H2,1-4H3/b13-5-,14-6-/t12-,15-,19-/m1/s1
Instrument: LTQ Orbitrap XL Thermo Scientific
Instrument type: LC-ESI-ITFT
Ms type: MS2
Ion mode: POSITIVE
Ionization: ESI
Fragmentation mode: HCD
Collision energy: 95% (nominal)
Resolution: 15000
Column name: Kinetex Evo C18 2.6 um 50 x 2.1 mm
Retention time: 6.359 min
Base peak: 366.1908
Precursor m/z: 366.1911
Precursor type: [M+H]+
m/z	relative intensity	assigned
53.0384	10	C4H5+
55.0541	15	C4H7+
65.0385	21	C5H5+
67.0541	105	C5H7+
68.0496	9	C4H6N+
69.0334	29	C4H5O+
69.0698	12	C5H9+
70.065	999	C4H8N+
73.0644	5	C4H9O+
77.0385	131	C6H5+
79.0542	398	C6H7+
80.0494	14	C5H6N+
81.0335	23	C5H5O+
81.0573	18	C5H7N+
81.0698	120	C6H9+
82.0651	59	C5H8N+
83.0125	8	C4H3O2+
83.0491	51	C5H7O+
84.0807	11	C5H10N+
91.0542	201	C7H7+
92.062	8	C7H8+
93.0573	21	C6H7N+
93.0698	15	C7H9+
94.0651	691	C6H8N+
95.0491	167	C6H7O+
95.0727	16	C6H9N+
96.0807	127	C6H10N+
97.0284	15	C5H5O2+
97.0647	51	C6H9O+
98.06	63	C5H8NO+
101.0595	29	C5H9O2+
105.0699	53	C8H9+
106.0649	19	C7H8N+
107.049	215	C7H7O+
107.0729	113	C7H9N+
107.0855	183	C8H11+
108.0808	30	C7H10N+
109.0647	30	C7H9O+
109.1013	12	C8H13+
110.06	500	C6H8NO+
111.0442	7	C6H7O2+
111.0808	7	C7H11O+
112.0756	37	C6H10NO+
115.0541	7	C9H7+
116.0706	10	C5H10NO2+
117.057	10	C8H7N+
117.0699	13	C9H9+
120.0808	45	C8H10N+
121.0889	7	C8H11N+
122.0599	423	C7H8NO+
122.0963	89	C8H12N+
123.0678	41	C7H9NO+
124.0756	30	C7H10NO+
125.0596	54	C7H9O2+
125.0834	9	C7H11NO+
125.0961	37	C8H13O+
132.0806	13	C9H10N+
135.0681	6	C8H9NO+
135.0804	27	C9H11O+
137.0838	15	C8H11NO+
140.0705	469	C7H10NO2+
148.0759	8	C9H10NO+
150.0913	51	C9H12NO+
168.1018	452	C9H14NO2+
