Mass spectrum: Hyoscyamine; LC-ESI-ITFT; MS2; CE: 95%; R=15000; [M+H]+
Name: Hyoscyamine
Formula: C17H23NO3
Exact mass: 289.1678
SMILES: CN1[C@@H]2CC[C@H]1C[C@H](C2)OC(=O)[C@H](CO)c3ccccc3
InChI: InChI=1S/C17H23NO3/c1-18-13-7-8-14(18)10-15(9-13)21-17(20)16(11-19)12-5-3-2-4-6-12/h2-6,13-16,19H,7-11H2,1H3/t13-,14+,15+,16-/m1/s1
Instrument: LTQ Orbitrap XL Thermo Scientific
Instrument type: LC-ESI-ITFT
Ms type: MS2
Ion mode: POSITIVE
Ionization: ESI
Fragmentation mode: HCD
Collision energy: 95% (nominal)
Resolution: 15000
Column name: Kinetex Evo C18 2.6 um 50 x 2.1 mm
Retention time: 2.818 min
Base peak: 143.0015
Precursor m/z: 290.1751
Precursor type: [M+H]+
m/z	relative intensity	assigned
67.0542	320	C5H7+
68.0494	64	C4H6N+
70.0651	55	C4H8N+
77.0386	230	C6H5+
79.0543	42	C6H7+
82.0652	106	C5H8N+
83.073	82	C5H9N+
91.0543	508	C7H7+
93.0699	999	C7H9+
94.0652	19	C6H8N+
95.0492	22	C6H7O+
95.0731	29	C6H9N+
95.0855	83	C7H11+
96.0808	71	C6H10N+
98.0964	59	C6H12N+
103.0543	428	C8H7+
108.0808	22	C7H10N+
109.0884	24	C7H11N+
121.0648	84	C8H9O+
122.0959	9	C8H12N+
124.1121	541	C8H14N+
140.107	35	C8H14NO+
142.1227	122	C8H16NO+
