Mass spectrum: Conessine; LC-ESI-ITFT; MS2; CE: 30%; R=15000; [M+H]+
Name: Conessine
Formula: C24H40N2
Exact mass: 356.3191
SMILES: C[C@H]1[C@H]2CC[C@H]3[C@@H]4CC=C5C[C@H](CC[C@]5(C)[C@H]4CC[C@]23CN1C)N(C)C
InChI: InChI=1S/C24H40N2/c1-16-20-8-9-22-19-7-6-17-14-18(25(3)4)10-12-23(17,2)21(19)11-13-24(20,22)15-26(16)5/h6,16,18-22H,7-15H2,1-5H3/t16-,18-,19+,20+,21-,22-,23-,24-/m0/s1
Instrument: LTQ Orbitrap XL Thermo Scientific
Instrument type: LC-ESI-ITFT
Ms type: MS2
Ion mode: POSITIVE
Ionization: ESI
Fragmentation mode: CID
Collision energy: 30 % (nominal)
Resolution: 15000
Column name: Kinetex Evo C18 2.6 um 50 x 2.1 mm
Retention time: 5.566 min
Base peak: 179.1664
Precursor m/z: 357.3264
Precursor type: [M+H]+
m/z	relative intensity	assigned
105.0699	7	C8H9+
117.0698	6	C9H9+
119.0855	11	C9H11+
121.1012	3	C9H13+
129.07	4	C10H9+
131.0855	15	C10H11+
133.1012	10	C10H13+
135.1167	5	C10H15+
145.1011	20	C11H13+
147.1168	35	C11H15+
149.1323	3	C11H17+
157.1012	7	C12H13+
159.1168	74	C12H15+
161.1324	61	C12H17+
171.1168	8	C13H15+
173.1324	34	C13H17+
175.148	6	C13H19+
185.1324	9	C14H17+
187.148	42	C14H19+
199.148	14	C15H19+
201.1637	7	C15H21+
213.1638	11	C16H21+
227.1795	10	C17H23+
269.2264	112	C20H29+
281.2257	2	C21H29+
312.2686	677	C22H34N+
357.3265	999	C24H41N2+
