Mass spectrum: Coniferaldehyde; LC-ESI-ITFT; MS2; CE: 70%; R=15000; [M+H]+
Name: Coniferaldehyde
Formula: C10H10O3
Exact mass: 178.0630
SMILES: COC1=CC(\C=C\C=O)=CC=C1O
InChI: InChI=1S/C10H10O3/c1-13-10-7-8(3-2-6-11)4-5-9(10)12/h2-7,12H,1H3/b3-2+
Instrument: LTQ Orbitrap XL Thermo Scientific
Instrument type: LC-ESI-ITFT
Ms type: MS2
Ion mode: POSITIVE
Ionization: ESI
Fragmentation mode: CID
Collision energy: 70 % (nominal)
Resolution: 15000
Column name: Kinetex Evo C18 2.6 um 50 x 2.1 mm
Retention time: 7.411 min
Base peak: 179.0702
Precursor m/z: 179.0703
Precursor type: [M+H]+
m/z	relative intensity	assigned
55.0179	9	C3H3O+
91.0544	1	C7H7+
95.0493	12	C6H7O+
105.0701	30	C8H9+
107.0491	1	C7H7O+
109.0283	2	C6H5O2+
115.0544	10	C9H7+
119.0494	36	C8H7O+
123.0443	31	C7H7O2+
123.0806	3	C8H11O+
133.065	129	C9H9O+
135.0442	8	C8H7O2+
137.06	8	C8H9O2+
143.0488	1	C10H7O+
146.0363	1	C9H6O2+
147.0443	999	C9H7O2+
149.06	2	C9H9O2+
151.0756	16	C9H11O2+
161.06	992	C10H9O2+
164.0475	3	C9H8O3+
