Mass spectrum: Lycorine; LC-ESI-ITFT; MS2; CE: 40%; R=15000; [M+H]+
Name: Lycorine
Name: (1S,17S,18S,19S)-5,7-dioxa-12-azapentacyclo[10.6.1.02,10.04,8.015,19]nonadeca-2,4(8),9,15-tetraene-17,18-diol
Formula: C16H17NO4
Exact mass: 287.1158
SMILES: C1CN2CC3=CC4=C(C=C3[C@H]5[C@H]2C1=C[C@@H]([C@H]5O)O)OCO4
InChI: InChI=1S/C16H17NO4/c18-11-3-8-1-2-17-6-9-4-12-13(21-7-20-12)5-10(9)14(15(8)17)16(11)19/h3-5,11,14-16,18-19H,1-2,6-7H2/t11-,14-,15+,16+/m0/s1
Instrument: LTQ Orbitrap XL Thermo Scientific
Instrument type: LC-ESI-ITFT
Ms type: MS2
Ion mode: POSITIVE
Ionization: ESI
Fragmentation mode: HCD
Collision energy: 40% (nominal)
Resolution: 15000
Column name: Kinetex Evo C18 2.6 um 50 x 2.1 mm
Retention time: 0.632 min
Base peak: 288.1228
Precursor m/z: 288.123
Precursor type: [M+H]+
m/z	relative intensity	assigned
82.0652	6	C5H8N+
83.0492	7	C5H7O+
95.0492	23	C6H7O+
106.0651	4	C7H8N+
110.0601	3	C6H8NO+
111.0679	6	C6H9NO+
112.0757	38	C6H10NO+
119.0492	43	C8H7O+
122.0599	3	C7H8NO+
124.0757	21	C7H10NO+
134.0601	10	C8H8NO+
135.044	6	C8H7O2+
147.0441	148	C9H7O2+
149.0597	3	C9H9O2+
152.0706	3	C8H10NO2+
173.0598	2	C11H9O2+
175.0392	2	C10H7O3+
177.0547	156	C10H9O3+
188.0706	1	C11H10NO2+
194.0963	4	C14H12N+
199.0753	5	C13H11O2+
212.107	3	C14H14NO+
213.0917	3	C14H13O2+
222.0914	22	C15H12NO+
225.0913	4	C15H13O2+
228.101	3	C14H14NO2+
240.1025	6	C15H14NO2+
241.0858	5	C15H13O3+
242.1178	12	C15H16NO2+
250.0863	1	C16H12NO2+
252.1019	30	C16H14NO2+
270.1125	126	C16H16NO3+
288.1232	999	C16H18NO4+
