Mass spectrum: 6-beta-Hydroxycortisol; LC-ESI-ITFT; MS2; CE: 110%; R=15000; [M+H]+
Name: 6-beta-Hydroxycortisol
Name: 6beta-Hydroxycortisol
Name: (6R,8S,9S,10R,11S,13S,14S,17R)-6,11,17-trihydroxy-17-(2-hydroxyacetyl)-10,13-dimethyl-2,6,7,8,9,11,12,14,15,16-decahydro-1H-cyclopenta[a]phenanthren-3-one
Formula: C21H30O6
Exact mass: 378.2042
SMILES: C[C@]12C[C@H](O)[C@H]3[C@@H](C[C@@H](O)C4=CC(=O)CC[C@]34C)[C@@H]1CC[C@]2(O)C(=O)CO
InChI: InChI=1S/C21H30O6/c1-19-5-3-11(23)7-14(19)15(24)8-12-13-4-6-21(27,17(26)10-22)20(13,2)9-16(25)18(12)19/h7,12-13,15-16,18,22,24-25,27H,3-6,8-10H2,1-2H3/t12-,13-,15+,16-,18+,19-,20-,21-/m0/s1
Instrument: LTQ Orbitrap XL Thermo Scientific
Instrument type: LC-ESI-ITFT
Ms type: MS2
Ion mode: POSITIVE
Ionization: ESI
Fragmentation mode: HCD
Collision energy: 110 % (nominal)
Resolution: 15000
Column name: Kinetex Evo C18 2.6 um 50 x 2.1 mm
Retention time: 6.511 min
Base peak: 379.2119
Precursor m/z: 379.2115
Precursor type: [M+H]+
m/z	relative intensity	assigned
55.0178	69	C3H3O+
55.0541	136	C4H7+
67.0542	193	C5H7+
69.0336	42	C4H5O+
69.0699	34	C5H9+
77.0388	108	C6H5+
79.0544	434	C6H7+
81.07	194	C6H9+
83.0493	120	C5H7O+
91.0545	999	C7H7+
93.0702	321	C7H9+
95.0493	88	C6H7O+
95.0857	78	C7H11+
97.0651	115	C6H9O+
103.0544	116	C8H7+
105.045	252	C6H5N2+
105.0702	729	C8H9+
107.0495	86	C7H7O+
107.0859	47	C8H11+
109.0652	52	C7H9O+
115.0545	269	C9H7+
116.0623	131	C9H8+
117.0702	232	C9H9+
119.0856	209	C9H11+
121.0651	129	C8H9O+
128.0623	583	C10H8+
129.0702	350	C10H9+
130.078	108	C10H10+
131.0856	157	C10H11+
133.1015	49	C10H13+
135.0804	37	C9H11O+
141.0701	366	C11H9+
142.078	259	C11H10+
143.0859	223	C11H11+
145.0653	73	C10H9O+
145.1013	41	C11H13+
152.0625	76	C12H8+
153.0702	272	C12H9+
154.078	160	C12H10+
155.0608	117	C10H7N2+
155.0858	290	C12H11+
156.0937	60	C12H12+
157.0646	40	C11H9O+
157.1014	45	C12H13+
159.0805	37	C11H11O+
165.0701	410	C13H9+
166.0778	145	C13H10+
167.0859	281	C13H11+
168.0931	64	C13H12+
169.1016	116	C13H13+
178.078	186	C14H10+
179.0858	254	C14H11+
180.0934	91	C14H12+
181.1018	111	C14H13+
190.0784	39	C15H10+
191.086	127	C15H11+
192.0938	72	C15H12+
193.1016	88	C15H13+
195.1173	61	C15H15+
202.0775	37	C16H10+
203.0856	45	C16H11+
