Mass spectrum: Bergapten/Heraclin; LC-ESI-ITFT; MS2; CE: 95%; R=15000; [M+H]+
Name: Bergapten/Heraclin
Formula: C12H8O4
Exact mass: 216.0423
SMILES: COC1=C2C=COC2=CC2=C1C=CC(=O)O2
InChI: InChI=1S/C12H8O4/c1-14-12-7-2-3-11(13)16-10(7)6-9-8(12)4-5-15-9/h2-6H,1H3
Instrument: LTQ Orbitrap XL Thermo Scientific
Instrument type: LC-ESI-ITFT
Ms type: MS2
Ion mode: POSITIVE
Ionization: ESI
Fragmentation mode: HCD
Collision energy: 95 % (nominal)
Resolution: 15000
Column name: Kinetex Evo C18 2.6 um 50 x 2.1 mm
Retention time: 9.965 min
Base peak: 217.0493
Precursor m/z: 217.0495
Precursor type: [M+H]+
m/z	relative intensity	assigned
79.0543	16	C6H7+
89.0386	182	C7H5+
90.0464	588	C7H6+
91.0542	18	C7H7+
100.0308	49	C8H4+
102.0465	76	C8H6+
103.0543	26	C8H7+
105.0699	26	C8H9+
115.0543	123	C9H7+
117.0697	3	C9H9+
118.0414	847	C8H6O+
128.0256	21	C9H4O+
129.0335	30	C9H5O+
130.0415	17	C9H6O+
131.0492	136	C9H7O+
133.0649	5	C9H9O+
145.0285	134	C9H5O2+
146.0363	585	C9H6O2+
156.0207	118	C10H4O2+
158.0361	10	C10H6O2+
161.0605	5	C10H9O2+
173.0235	30	C10H5O3+
174.0313	999	C10H6O3+
202.0261	514	C11H6O4+
