Mass spectrum: Harmine; LC-ESI-ITFT; MS2; CE: 160%; R=15000; [M+H]+
Name: Harmine
Name: 7-methoxy-1-methyl-9H-pyrido[3,4-b]indole
Formula: C13H12N2O
Exact mass: 212.0950
SMILES: COC1=CC2=C(C=C1)C1=C(N2)C(C)=NC=C1
InChI: InChI=1S/C13H12N2O/c1-8-13-11(5-6-14-8)10-4-3-9(16-2)7-12(10)15-13/h3-7,15H,1-2H3
Instrument: LTQ Orbitrap XL Thermo Scientific
Instrument type: LC-ESI-ITFT
Ms type: MS2
Ion mode: POSITIVE
Ionization: ESI
Fragmentation mode: HCD
Collision energy: 160 % (nominal)
Resolution: 15000
Column name: Kinetex Evo C18 2.6 um 50 x 2.1 mm
Retention time: 6.605 min
Base peak: 213.1027
Precursor m/z: 213.1022
Precursor type: [M+H]+
m/z	relative intensity	assigned
65.0385	3	C5H5+
67.0414	3	C4H5N+
75.0228	8	C6H3+
76.0306	3	C6H4+
77.0384	18	C6H5+
78.0336	4	C5H4N+
78.0464	4	C6H6+
89.0386	27	C7H5+
90.0464	21	C7H6+
91.0544	10	C7H7+
92.0496	11	C6H6N+
93.0574	128	C6H7N+
95.0492	4	C6H7O+
96.0445	2	C5H6NO+
101.0388	9	C8H5+
102.0339	3	C7H4N+
102.0465	38	C8H6+
103.0421	4	C7H5N+
103.0543	26	C8H7+
104.0496	3	C7H6N+
105.0448	18	C6H5N2+
114.046	3	C9H6+
115.0543	187	C9H7+
116.0495	46	C8H6N+
116.062	9	C9H8+
117.0573	63	C8H7N+
118.0524	6	C7H6N2+
118.0651	94	C8H8N+
119.0491	4	C8H7O+
120.0443	2	C7H6NO+
126.0334	4	C9H4N+
127.0417	4	C9H5N+
128.0493	121	C9H6N+
129.0446	58	C8H5N2+
129.0571	15	C9H7N+
130.0399	7	C7H4N3+
130.0653	7	C9H8N+
134.06	3	C8H8NO+
140.0494	28	C10H6N+
141.0572	33	C10H7N+
142.0524	8	C9H6N2+
142.0649	136	C10H8N+
143.0602	59	C9H7N2+
143.0728	24	C10H9N+
144.068	39	C9H8N2+
144.0806	119	C10H10N+
146.0598	9	C9H8NO+
152.0495	9	C11H6N+
153.0446	26	C10H5N2+
154.0399	12	C9H4N3+
154.0519	3	C10H6N2+
155.0602	120	C10H7N2+
167.0606	13	C11H7N2+
168.0681	141	C11H8N2+
169.0758	999	C11H9N2+
170.0835	69	C11H10N2+
171.055	20	C10H7N2O+
