Mass spectrum: Lycopsamine N-oxide; LC-ESI-ITFT; MS2; CE: 45%; R=15000; [M+H]+
Name: Lycopsamine N-oxide
Name: [(7R,8R)-7-hydroxy-4-oxido-5,6,7,8-tetrahydro-3H-pyrrolizin-4-ium-1-yl]methyl (2S)-2-hydroxy-2-[(1S)-1-hydroxyethyl]-3-methylbutanoate
Formula: C15H25NO6
Exact mass: 315.1682
SMILES: C[C@@H]([C@@](C(C)C)(C(=O)OCC1=CC[N+]2([C@H]1[C@@H](CC2)O)[O-])O)O
InChI: InChI=1S/C15H25NO6/c1-9(2)15(20,10(3)17)14(19)22-8-11-4-6-16(21)7-5-12(18)13(11)16/h4,9-10,12-13,17-18,20H,5-8H2,1-3H3/t10-,12+,13+,15-,16?/m0/s1
Instrument: LTQ Orbitrap XL Thermo Scientific
Instrument type: LC-ESI-ITFT
Ms type: MS2
Ion mode: POSITIVE
Ionization: ESI
Fragmentation mode: HCD
Collision energy: 45% (nominal)
Resolution: 15000
Column name: Kinetex Evo C18 2.6 um 50 x 2.1 mm
Retention time: 1.288 min
Base peak: 143.0015
Precursor m/z: 316.1755
Precursor type: [M+H]+
m/z	relative intensity	assigned
67.0543	2	C5H7+
68.0495	4	C4H6N+
80.0495	4	C5H6N+
82.0414	4	C5H6O+
82.0652	4	C5H8N+
93.0573	27	C6H7N+
94.0651	24	C6H8N+
95.0729	5	C6H9N+
98.0603	5	C5H8NO+
100.0754	2	C5H10NO+
108.0809	11	C7H10N+
109.0644	3	C7H9O+
109.0887	3	C7H11N+
110.06	4	C6H8NO+
111.0677	6	C6H9NO+
112.0756	9	C6H10NO+
118.0653	2	C8H8N+
120.0808	3	C8H10N+
126.0909	2	C7H12NO+
136.0758	60	C8H10NO+
137.0836	15	C8H11NO+
138.0914	225	C8H12NO+
139.0994	4	C8H13NO+
154.0863	53	C8H12NO2+
155.0942	66	C8H13NO2+
172.0969	370	C8H14NO3+
226.1439	17	C12H20NO3+
272.1495	14	C13H22NO5+
298.1646	7	C15H24NO5+
316.1756	999	C15H26NO6+
