Mass spectrum: Piperine; LC-ESI-ITFT; MS2; CE: 30%; R=15000; [M+H]+
Name: Piperine
Name: (2E,4E)-5-(1,3-benzodioxol-5-yl)-1-piperidin-1-ylpenta-2,4-dien-1-one
Formula: C17H19NO3
Exact mass: 285.1365
SMILES: O=C(\C=C\C=C\C1=CC2=C(OCO2)C=C1)N1CCCCC1
InChI: InChI=1S/C17H19NO3/c19-17(18-10-4-1-5-11-18)7-3-2-6-14-8-9-15-16(12-14)21-13-20-15/h2-3,6-9,12H,1,4-5,10-11,13H2/b6-2+,7-3+
Instrument: LTQ Orbitrap XL Thermo Scientific
Instrument type: LC-ESI-ITFT
Ms type: MS2
Ion mode: POSITIVE
Ionization: ESI
Fragmentation mode: HCD
Collision energy: 30 % (nominal)
Resolution: 15000
Column name: Kinetex Evo C18 2.6 um 50 x 2.1 mm
Retention time: 11.768 min
Base peak: 286.1441
Precursor m/z: 286.1438
Precursor type: [M+H]+
m/z	relative intensity	assigned
69.0696	4	C5H9+
84.0807	17	C5H10N+
86.0964	15	C5H12N+
112.0756	36	C6H10NO+
135.0439	71	C8H7O2+
143.049	3	C10H7O+
150.0911	4	C9H12NO+
151.0991	5	C9H13NO+
171.044	6	C11H7O2+
173.0594	15	C11H9O2+
185.0961	1	C13H13O+
201.0544	587	C12H9O3+
215.1069	4	C14H15O2+
286.1434	999	C17H20NO3+
