Mass spectrum: Atropine; LC-ESI-ITFT; MS2; CE: 75%; R=15000; [M+H]+
Name: Atropine
Formula: C17H23NO3
Exact mass: 289.1678
SMILES: CN1[C@@H]2CC[C@H]1C[C@H](C2)OC(=O)C(CO)c3ccccc3
InChI: InChI=1S/C17H23NO3/c1-18-13-7-8-14(18)10-15(9-13)21-17(20)16(11-19)12-5-3-2-4-6-12/h2-6,13-16,19H,7-11H2,1H3/t13-,14+,15+,16?
Instrument: LTQ Orbitrap XL Thermo Scientific
Instrument type: LC-ESI-ITFT
Ms type: MS2
Ion mode: POSITIVE
Ionization: ESI
Fragmentation mode: HCD
Collision energy: 75% (nominal)
Resolution: 15000
Column name: Kinetex Evo C18 2.6 um 50 x 2.1 mm
Retention time: 2.857 min
Base peak: 143.0015
Precursor m/z: 290.1751
Precursor type: [M+H]+
m/z	relative intensity	assigned
67.0542	116	C5H7+
68.0495	18	C4H6N+
70.0651	28	C4H8N+
77.0386	59	C6H5+
79.0543	26	C6H7+
82.0652	59	C5H8N+
83.073	39	C5H9N+
91.0543	222	C7H7+
93.0699	827	C7H9+
95.073	18	C6H9N+
95.0855	63	C7H11+
96.0808	45	C6H10N+
98.0965	32	C6H12N+
103.0543	93	C8H7+
109.0885	12	C7H11N+
121.0649	102	C8H9O+
122.0964	4	C8H12N+
124.1121	999	C8H14N+
125.1199	14	C8H15N+
140.107	22	C8H14NO+
142.1227	92	C8H16NO+
290.1748	14	C17H24NO3+
