Mass spectrum: Harmine; LC-ESI-ITFT; MS2; CE: 150%; R=15000; [M+H]+
Name: Harmine
Name: 7-methoxy-1-methyl-9H-pyrido[3,4-b]indole
Formula: C13H12N2O
Exact mass: 212.0950
SMILES: COC1=CC2=C(C=C1)C1=C(N2)C(C)=NC=C1
InChI: InChI=1S/C13H12N2O/c1-8-13-11(5-6-14-8)10-4-3-9(16-2)7-12(10)15-13/h3-7,15H,1-2H3
Instrument: LTQ Orbitrap XL Thermo Scientific
Instrument type: LC-ESI-ITFT
Ms type: MS2
Ion mode: POSITIVE
Ionization: ESI
Fragmentation mode: HCD
Collision energy: 150 % (nominal)
Resolution: 15000
Column name: Kinetex Evo C18 2.6 um 50 x 2.1 mm
Retention time: 6.601 min
Base peak: 213.1034
Precursor m/z: 213.1022
Precursor type: [M+H]+
m/z	relative intensity	assigned
66.0464	2	C5H6+
67.0415	1	C4H5N+
77.0387	8	C6H5+
89.0388	9	C7H5+
90.0467	14	C7H6+
91.0545	4	C7H7+
92.0497	3	C6H6N+
93.0576	98	C6H7N+
102.0468	28	C8H6+
103.042	3	C7H5N+
103.0545	18	C8H7+
104.0498	2	C7H6N+
105.045	6	C6H5N2+
115.0546	108	C9H7+
116.0498	24	C8H6N+
116.0626	3	C9H8+
117.0576	44	C8H7N+
118.0529	5	C7H6N2+
118.0655	74	C8H8N+
119.0732	1	C8H9N+
127.0422	2	C9H5N+
128.0498	85	C9H6N+
129.0451	26	C8H5N2+
129.0576	12	C9H7N+
130.0654	6	C9H8N+
134.0604	2	C8H8NO+
140.0498	13	C10H6N+
141.0577	13	C10H7N+
142.0655	100	C10H8N+
143.0608	42	C9H7N2+
143.0733	23	C10H9N+
144.0686	53	C9H8N2+
144.0811	133	C10H10N+
146.0604	6	C9H8NO+
152.0498	5	C11H6N+
153.0451	20	C10H5N2+
154.0408	3	C11H6O+
154.0527	2	C10H6N2+
154.0657	1	C11H8N+
155.0607	117	C10H7N2+
167.0607	4	C11H7N2+
168.0688	84	C11H8N2+
169.0765	999	C11H9N2+
170.0841	132	C11H10N2+
171.0556	11	C10H7N2O+
