Mass spectrum: Echimidine; LC-ESI-ITFT; MS2; CE: 25%; R=15000; [M+H]+
Name: Echimidine
Name: [(7R,8R)-7-[(Z)-2-methylbut-2-enoyl]oxy-5,6,7,8-tetrahydro-3H-pyrrolizin-1-yl]methyl (2R)-2,3-dihydroxy-2-[(1S)-1-hydroxyethyl]-3-methylbutanoate
Formula: C20H31NO7
Exact mass: 397.2101
SMILES: C/C=C(/C)\C(=O)O[C@@H]1CCN2[C@@H]1C(=CC2)COC(=O)[C@@]([C@H](C)O)(C(C)(C)O)O
InChI: InChI=1S/C20H31NO7/c1-6-12(2)17(23)28-15-8-10-21-9-7-14(16(15)21)11-27-18(24)20(26,13(3)22)19(4,5)25/h6-7,13,15-16,22,25-26H,8-11H2,1-5H3/b12-6-/t13-,15+,16+,20-/m0/s1
Instrument: LTQ Orbitrap XL Thermo Scientific
Instrument type: LC-ESI-ITFT
Ms type: MS2
Ion mode: POSITIVE
Ionization: ESI
Fragmentation mode: HCD
Collision energy: 25% (nominal)
Resolution: 15000
Column name: Kinetex Evo C18 2.6 um 50 x 2.1 mm
Retention time: 6.502 min
Base peak: 398.2175
Precursor m/z: 398.2173
Precursor type: [M+H]+
m/z	relative intensity	assigned
83.0491	78	C5H7O+
120.0808	999	C8H10N+
138.0916	16	C8H12NO+
220.1334	579	C13H18NO2+
238.1438	13	C13H20NO3+
254.1381	4	C13H20NO4+
336.1807	43	C18H26NO5+
380.2069	14	C20H30NO6+
398.2178	765	C20H32NO7+
