Mass spectrum: Formononetin; LC-ESI-ITFT; MS2; CE: 65%; R=15000; [M+H]+
Name: Formononetin
Name: 7-hydroxy-3-(4-methoxyphenyl)chromen-4-one
Formula: C16H12O4
Exact mass: 268.0736
SMILES: COc1ccc(cc1)c2coc3cc(ccc3c2=O)O
InChI: InChI=1S/C16H12O4/c1-19-12-5-2-10(3-6-12)14-9-20-15-8-11(17)4-7-13(15)16(14)18/h2-9,17H,1H3
Instrument: LTQ Orbitrap XL Thermo Scientific
Instrument type: LC-ESI-ITFT
Ms type: MS2
Ion mode: POSITIVE
Ionization: ESI
Fragmentation mode: HCD
Collision energy: 65% (nominal)
Resolution: 15000
Column name: Kinetex Evo C18 2.6 um 50 x 2.1 mm
Retention time: 10.650 min
Base peak: 116.9859
Precursor m/z: 269.0808
Precursor type: [M+H]+
m/z	relative intensity	assigned
107.0491	154	C7H7O+
118.0414	400	C8H6O+
133.0647	92	C9H9O+
136.0156	154	C7H4O3+
137.0233	207	C7H5O3+
153.0694	36	C12H9+
156.0567	66	C11H8O+
163.0392	49	C9H7O3+
170.0726	63	C12H10O+
181.0648	145	C13H9O+
182.0729	64	C13H10O+
197.0598	413	C13H9O2+
198.0676	190	C13H10O2+
210.0673	27	C14H10O2+
213.0911	842	C14H13O2+
225.0548	227	C14H9O3+
226.0624	999	C14H10O3+
237.0547	666	C15H9O3+
253.0497	676	C15H9O4+
254.0576	658	C15H10O4+
269.081	986	C16H13O4+
