Mass spectrum: Colchicine; LC-ESI-ITFT; MS2; CE: 70%; R=15000; [M+H]+
Name: Colchicine
Name: N-[(7S)-1,2,3,10-tetramethoxy-9-oxo-6,7-dihydro-5H-benzo[a]heptalen-7-yl]acetamide
Formula: C22H25NO6
Exact mass: 399.1682
SMILES: CC(=O)N[C@H]1CCC2=CC(=C(C(=C2C3=CC=C(C(=O)C=C13)OC)OC)OC)OC
InChI: InChI=1S/C22H25NO6/c1-12(24)23-16-8-6-13-10-19(27-3)21(28-4)22(29-5)20(13)14-7-9-18(26-2)17(25)11-15(14)16/h7,9-11,16H,6,8H2,1-5H3,(H,23,24)/t16-/m0/s1
Instrument: LTQ Orbitrap XL Thermo Scientific
Instrument type: LC-ESI-ITFT
Ms type: MS2
Ion mode: POSITIVE
Ionization: ESI
Fragmentation mode: HCD
Collision energy: 70% (nominal)
Resolution: 15000
Column name: Kinetex Evo C18 2.6 um 50 x 2.1 mm
Retention time: 9.278 min
Base peak: 116.9858
Precursor m/z: 400.1755
Precursor type: [M+H]+
m/z	relative intensity	assigned
133.0522	142	C8H7NO+
137.0599	175	C8H9O2+
150.0548	99	C8H8NO2+
161.0594	58	C10H9O2+
165.0701	42	C13H9+
165.0791	44	C9H11NO2+
176.0707	127	C10H10NO2+
176.0831	78	C11H12O2+
177.0549	55	C10H9O3+
179.0697	61	C10H11O3+
179.0857	67	C14H11+
181.0648	89	C13H9O+
181.0858	137	C10H13O3+
183.08	61	C13H11O+
188.0709	48	C11H10NO2+
191.07	58	C11H11O3+
192.0654	50	C10H10NO3+
194.0724	58	C14H10O+
195.0806	182	C14H11O+
196.0883	47	C14H12O+
197.0594	48	C13H9O2+
199.0752	87	C13H11O2+
203.094	76	C12H13NO2+
204.066	55	C11H10NO3+
205.0651	84	C15H9O+
207.0806	239	C15H11O+
208.0884	80	C15H12O+
209.06	61	C14H9O2+
209.096	138	C15H13O+
210.068	55	C14H10O2+
211.0755	203	C14H11O2+
211.1121	38	C15H15O+
212.0831	122	C14H12O2+
213.0914	63	C14H13O2+
219.0812	81	C16H11O+
221.0601	63	C15H9O2+
221.0962	71	C16H13O+
222.0678	81	C15H10O2+
222.0911	49	C15H12NO+
223.0755	318	C15H11O2+
224.0833	361	C15H12O2+
225.0909	175	C15H13O2+
226.063	60	C14H10O3+
226.0871	45	C14H12NO2+
227.0702	340	C14H11O3+
233.0596	50	C16H9O2+
234.067	88	C16H10O2+
235.0755	381	C16H11O2+
236.0829	197	C16H12O2+
236.1064	61	C16H14NO+
237.0545	113	C15H9O3+
237.0911	308	C16H13O2+
238.0853	53	C15H12NO2+
238.0991	122	C16H14O2+
239.0707	84	C15H11O3+
239.1068	445	C16H15O2+
240.0781	259	C15H12O3+
240.102	59	C15H14NO2+
241.0861	259	C15H13O3+
242.0819	42	C14H12NO3+
242.0941	121	C15H14O3+
243.0663	60	C14H11O4+
247.0746	64	C17H11O2+
249.0903	112	C17H13O2+
250.0615	101	C16H10O3+
250.0865	142	C16H12NO2+
250.0982	73	C17H14O2+
251.0703	469	C16H11O3+
251.0953	53	C16H13NO2+
251.1068	193	C17H15O2+
252.0781	378	C16H12O3+
252.1023	123	C16H14NO2+
252.1152	36	C17H16O2+
253.0736	76	C15H11NO3+
253.0855	154	C16H13O3+
253.1104	51	C16H15NO2+
254.082	40	C15H12NO3+
254.0948	63	C16H14O3+
255.0655	346	C15H11O4+
255.1019	294	C16H15O3+
256.0725	67	C15H12O4+
263.0704	198	C17H11O3+
264.0776	92	C17H12O3+
264.1014	153	C17H14NO2+
265.086	271	C17H13O3+
265.1108	59	C17H15NO2+
266.0936	184	C17H14O3+
266.1166	40	C17H16NO2+
267.064	92	C16H11O4+
267.1018	999	C17H15O3+
268.0728	179	C16H12O4+
268.097	234	C16H14NO3+
269.0808	172	C16H13O4+
270.0883	106	C16H14O4+
270.1117	54	C16H16NO3+
271.0959	70	C16H15O4+
277.0853	53	C18H13O3+
279.0651	159	C17H11O4+
279.1009	71	C18H15O3+
280.0732	156	C17H12O4+
280.097	119	C17H14NO3+
281.0814	37	C17H13O4+
283.0967	452	C17H15O4+
284.0919	66	C16H14NO4+
285.0762	63	C16H13O5+
286.1079	90	C16H16NO4+
287.0914	116	C16H15O5+
292.0975	96	C18H14NO3+
293.0816	48	C18H13O4+
293.1047	59	C18H15NO3+
294.1133	137	C18H16NO3+
295.0965	548	C18H15O4+
295.1216	47	C18H17NO3+
296.0688	60	C17H12O5+
296.0917	133	C17H14NO4+
297.1108	71	C18H17O4+
300.123	282	C17H18NO4+
308.0906	42	C18H14NO4+
308.1285	62	C19H18NO3+
311.0915	291	C18H15O5+
312.1233	57	C18H18NO4+
314.1027	66	C17H16NO5+
324.1242	159	C19H18NO4+
326.1384	49	C19H20NO4+
328.1173	52	C18H18NO5+
