Mass spectrum: Senkirkine; LC-ESI-ITFT; MS2; CE: 75%; R=15000; [M+H]+
Name: Senkirkine
Name: (1R,4Z,6R,7R,11Z)-4-ethylidene-7-hydroxy-6,7,14-trimethyl-2,9-dioxa-14-azabicyclo[9.5.1]heptadec-11-ene-3,8,17-trione
Formula: C19H27NO6
Exact mass: 365.1838
SMILES: C/C=C\1/C[C@H]([C@@](C(=O)OC/C/2=C/CN(CC[C@H](C2=O)OC1=O)C)(C)O)C
InChI: InChI=1S/C19H27NO6/c1-5-13-10-12(2)19(3,24)18(23)25-11-14-6-8-20(4)9-7-15(16(14)21)26-17(13)22/h5-6,12,15,24H,7-11H2,1-4H3/b13-5-,14-6-/t12-,15-,19-/m1/s1
Instrument: LTQ Orbitrap XL Thermo Scientific
Instrument type: LC-ESI-ITFT
Ms type: MS2
Ion mode: POSITIVE
Ionization: ESI
Fragmentation mode: HCD
Collision energy: 75% (nominal)
Resolution: 15000
Column name: Kinetex Evo C18 2.6 um 50 x 2.1 mm
Retention time: 6.388 min
Base peak: 366.1908
Precursor m/z: 366.1911
Precursor type: [M+H]+
m/z	relative intensity	assigned
53.0384	11	C4H5+
55.054	9	C4H7+
67.0541	33	C5H7+
69.0334	12	C4H5O+
69.0697	4	C5H9+
70.065	478	C4H8N+
77.0385	24	C6H5+
79.0542	151	C6H7+
81.0334	12	C5H5O+
81.0698	64	C6H9+
82.0651	15	C5H8N+
83.0491	40	C5H7O+
91.0542	48	C7H7+
93.0573	3	C6H7N+
93.0698	15	C7H9+
94.065	191	C6H8N+
95.0491	67	C6H7O+
95.073	5	C6H9N+
96.0807	58	C6H10N+
97.0283	5	C5H5O2+
97.0647	45	C6H9O+
98.06	35	C5H8NO+
99.044	6	C5H7O2+
100.0757	4	C5H10NO+
101.0596	37	C5H9O2+
105.0698	20	C8H9+
106.0649	4	C7H8N+
107.049	227	C7H7O+
107.0728	41	C7H9N+
107.0854	198	C8H11+
108.057	7	C7H8O+
108.0807	19	C7H10N+
109.0647	32	C7H9O+
109.1011	34	C8H13+
110.0599	98	C6H8NO+
111.0441	7	C6H7O2+
111.0804	8	C7H11O+
112.0756	16	C6H10NO+
116.0707	19	C5H10NO2+
117.0571	5	C8H7N+
117.0698	9	C9H9+
120.0807	28	C8H10N+
121.0887	5	C8H11N+
122.0599	462	C7H8NO+
122.0963	102	C8H12N+
123.0677	37	C7H9NO+
124.0756	48	C7H10NO+
125.0596	80	C7H9O2+
125.0834	9	C7H11NO+
125.096	99	C8H13O+
132.0805	10	C9H10N+
135.0803	70	C9H11O+
137.0596	5	C8H9O2+
137.0834	20	C8H11NO+
137.0961	4	C9H13O+
138.0914	12	C8H12NO+
140.0705	263	C7H10NO2+
148.0759	5	C9H10NO+
150.0912	122	C9H12NO+
151.0987	6	C9H13NO+
153.0908	28	C9H13O2+
168.1018	999	C9H14NO2+
