Mass spectrum: Pterosin B; LC-ESI-ITFT; MS2; CE: 100%; R=15000; [M+H]+
Name: Pterosin B
Name: (2R)-6-(2-hydroxyethyl)-2,5,7-trimethyl-2,3-dihydroinden-1-one
Formula: C14H18O2
Exact mass: 218.1307
SMILES: C[C@@H]1CC2=C(C1=O)C(=C(C(=C2)C)CCO)C
InChI: InChI=1S/C14H18O2/c1-8-6-11-7-9(2)14(16)13(11)10(3)12(8)4-5-15/h6,9,15H,4-5,7H2,1-3H3/t9-/m1/s1
Instrument: LTQ Orbitrap XL Thermo Scientific
Instrument type: LC-ESI-ITFT
Ms type: MS2
Ion mode: POSITIVE
Ionization: ESI
Fragmentation mode: HCD
Collision energy: 100 % (nominal)
Resolution: 15000
Column name: Kinetex Evo C18 2.6 um 50 x 2.1 mm
Retention time: 10.329 min
Base peak: 149.0117
Precursor m/z: 219.138
Precursor type: [M+H]+
m/z	relative intensity	assigned
67.0539	21	C5H7+
79.0541	48	C6H7+
91.0541	369	C7H7+
93.0697	31	C7H9+
103.0542	33	C8H7+
105.0697	543	C8H9+
107.0853	23	C8H11+
115.054	197	C9H7+
116.0618	108	C9H8+
117.0697	199	C9H9+
119.0853	231	C9H11+
128.0618	426	C10H8+
129.0697	735	C10H9+
130.0775	468	C10H10+
131.0853	219	C10H11+
132.0929	21	C10H12+
133.101	111	C10H13+
141.0697	217	C11H9+
142.0775	235	C11H10+
143.0853	999	C11H11+
144.057	35	C10H8O+
144.0932	155	C11H12+
145.0646	56	C10H9O+
145.101	543	C11H13+
152.0618	51	C12H8+
153.0697	542	C12H9+
154.0774	29	C12H10+
155.0854	196	C12H11+
156.0931	84	C12H12+
157.0646	101	C11H9O+
157.101	104	C12H13+
158.0724	179	C11H10O+
158.1087	90	C12H14+
159.0802	462	C11H11O+
165.0697	20	C13H9+
167.0852	226	C13H11+
168.0932	191	C13H12+
171.0802	632	C12H11O+
172.088	85	C12H12O+
173.0958	635	C12H13O+
183.1166	21	C14H15+
185.0956	92	C13H13O+
186.1037	153	C13H14O+
201.1281	29	C14H17O+
