Mass spectrum: Colchicine; LC-ESI-ITFT; MS2; CE: 60%; R=15000; [M+H]+
Name: Colchicine
Name: N-[(7S)-1,2,3,10-tetramethoxy-9-oxo-6,7-dihydro-5H-benzo[a]heptalen-7-yl]acetamide
Formula: C22H25NO6
Exact mass: 399.1682
SMILES: CC(=O)N[C@H]1CCC2=CC(=C(C(=C2C3=CC=C(C(=O)C=C13)OC)OC)OC)OC
InChI: InChI=1S/C22H25NO6/c1-12(24)23-16-8-6-13-10-19(27-3)21(28-4)22(29-5)20(13)14-7-9-18(26-2)17(25)11-15(14)16/h7,9-11,16H,6,8H2,1-5H3,(H,23,24)/t16-/m0/s1
Instrument: LTQ Orbitrap XL Thermo Scientific
Instrument type: LC-ESI-ITFT
Ms type: MS2
Ion mode: POSITIVE
Ionization: ESI
Fragmentation mode: HCD
Collision energy: 60% (nominal)
Resolution: 15000
Column name: Kinetex Evo C18 2.6 um 50 x 2.1 mm
Retention time: 9.278 min
Base peak: 116.9858
Precursor m/z: 400.1755
Precursor type: [M+H]+
m/z	relative intensity	assigned
137.0596	146	C8H9O2+
150.0552	54	C8H8NO2+
152.0704	88	C8H10NO2+
160.0758	32	C10H10NO+
165.0785	73	C9H11NO2+
176.0708	121	C10H10NO2+
176.083	49	C11H12O2+
177.0539	37	C10H9O3+
179.0708	43	C10H11O3+
181.086	200	C10H13O3+
188.071	40	C11H10NO2+
191.0697	37	C11H11O3+
192.066	29	C10H10NO3+
195.0803	66	C14H11O+
196.0888	26	C14H12O+
203.0939	120	C12H13NO2+
204.0654	58	C11H10NO3+
206.0734	26	C15H10O+
207.0809	100	C15H11O+
207.1013	103	C12H15O3+
209.0606	25	C14H9O2+
209.0959	46	C15H13O+
211.075	71	C14H11O2+
211.1123	27	C15H15O+
212.0826	73	C14H12O2+
219.0813	73	C16H11O+
221.0598	24	C15H9O2+
221.0965	67	C16H13O+
222.0665	31	C15H10O2+
223.0753	151	C15H11O2+
224.0833	128	C15H12O2+
224.1063	25	C15H14NO+
225.0909	116	C15H13O2+
226.0984	86	C15H14O2+
227.0701	175	C14H11O3+
227.1062	46	C15H15O2+
233.0605	23	C16H9O2+
234.0674	37	C16H10O2+
234.0918	40	C16H12NO+
234.1123	99	C13H16NO3+
235.0754	219	C16H11O2+
236.0831	124	C16H12O2+
236.1071	51	C16H14NO+
237.091	177	C16H13O2+
238.0987	85	C16H14O2+
239.0697	70	C15H11O3+
239.1066	308	C16H15O2+
240.0778	150	C15H12O3+
240.1027	33	C15H14NO2+
240.115	23	C16H16O2+
241.0862	130	C15H13O3+
242.0936	151	C15H14O3+
243.0664	29	C14H11O4+
247.0744	53	C17H11O2+
248.0839	41	C17H12O2+
249.0909	125	C17H13O2+
250.0622	27	C16H10O3+
250.0863	58	C16H12NO2+
250.0987	138	C17H14O2+
251.0703	315	C16H11O3+
251.1066	194	C17H15O2+
252.078	249	C16H12O3+
252.1018	90	C16H14NO2+
252.1136	95	C17H16O2+
253.0859	140	C16H13O3+
254.0937	73	C16H14O3+
255.0653	148	C15H11O4+
255.1016	276	C16H15O3+
256.0738	32	C15H12O4+
256.0965	22	C15H14NO3+
256.1092	41	C16H16O3+
263.0705	187	C17H11O3+
264.0776	47	C17H12O3+
264.1013	113	C17H14NO2+
265.086	267	C17H13O3+
265.1092	69	C17H15NO2+
266.0938	215	C17H14O3+
266.1172	56	C17H16NO2+
267.1014	999	C17H15O3+
268.0724	74	C16H12O4+
268.0971	227	C16H14NO3+
269.0808	161	C16H13O4+
270.0886	198	C16H14O4+
270.113	45	C16H16NO3+
271.0959	69	C16H15O4+
272.1282	47	C16H18NO3+
277.0858	89	C18H13O3+
279.0653	203	C17H11O4+
279.1008	155	C18H15O3+
280.0725	55	C17H12O4+
280.0975	160	C17H14NO3+
281.08	51	C17H13O4+
281.1169	174	C18H17O3+
282.0879	35	C17H14O4+
283.0966	573	C17H15O4+
284.1283	50	C17H18NO3+
285.0758	55	C16H13O5+
285.1119	288	C17H17O4+
286.1073	92	C16H16NO4+
287.0913	175	C16H15O5+
292.0975	84	C18H14NO3+
293.0808	117	C18H13O4+
293.1049	78	C18H15NO3+
294.1119	155	C18H16NO3+
295.0965	869	C18H15O4+
295.1202	144	C18H17NO3+
296.068	54	C17H12O5+
296.092	234	C17H14NO4+
296.1283	94	C18H18NO3+
297.1114	116	C18H17O4+
298.1192	170	C18H18O4+
298.1443	107	C18H20NO3+
300.1231	428	C17H18NO4+
301.1306	97	C17H19NO4+
306.1112	42	C19H16NO3+
308.1271	104	C19H18NO3+
311.0914	582	C18H15O5+
311.1152	86	C18H17NO4+
312.1235	116	C18H18NO4+
314.1023	140	C17H16NO5+
314.1383	73	C18H20NO4+
324.1229	237	C19H18NO4+
325.1071	60	C19H17O5+
326.1143	97	C19H18O5+
326.1381	89	C19H20NO4+
328.1179	282	C18H18NO5+
342.1335	194	C19H20NO5+
