Mass spectrum: Erucifoline; LC-ESI-ITFT; MS2; CE: 45%; R=15000; [M+H]+
Name: Erucifoline
Name: (5R,7S,9Z,12R,18R)-9-ethylidene-7-(hydroxymethyl)-5-methyl-3,6,11-trioxa-15-azatetracyclo[10.5.1.05,7.015,18]octadec-1(17)-ene-4,10-dione
Formula: C18H23NO6
Exact mass: 349.1525
SMILES: C/C=C\1/C[C@@]2([C@@](O2)(C(=O)OCC3=CCN4[C@H]3[C@@H](CC4)OC1=O)C)CO
InChI: InChI=1S/C18H23NO6/c1-3-11-8-18(10-20)17(2,25-18)16(22)23-9-12-4-6-19-7-5-13(14(12)19)24-15(11)21/h3-4,13-14,20H,5-10H2,1-2H3/b11-3-/t13-,14-,17+,18+/m1/s1
Instrument: LTQ Orbitrap XL Thermo Scientific
Instrument type: LC-ESI-ITFT
Ms type: MS2
Ion mode: POSITIVE
Ionization: ESI
Fragmentation mode: HCD
Collision energy: 45% (nominal)
Resolution: 15000
Column name: Kinetex Evo C18 2.6 um 50 x 2.1 mm
Retention time: 0.960 min
Base peak: 350.1595
Precursor m/z: 350.1598
Precursor type: [M+H]+
m/z	relative intensity	assigned
67.0542	10	C5H7+
68.0494	8	C4H6N+
79.0542	8	C6H7+
80.0495	13	C5H6N+
81.0699	5	C6H9+
82.0652	13	C5H8N+
83.0493	5	C5H7O+
91.0542	16	C7H7+
92.0494	2	C6H6N+
93.0699	38	C7H9+
94.0651	46	C6H8N+
95.049	5	C6H7O+
95.0853	4	C7H11+
96.0807	25	C6H10N+
97.0648	4	C6H9O+
103.0541	12	C8H7+
106.0651	10	C7H8N+
108.0807	15	C7H10N+
109.0649	9	C7H9O+
110.06	10	C6H8NO+
110.0964	19	C7H12N+
111.044	9	C6H7O2+
118.0651	21	C8H8N+
120.0807	314	C8H10N+
121.0645	9	C8H9O+
121.0886	16	C8H11N+
122.0964	25	C8H12N+
123.0439	10	C7H7O2+
123.0804	4	C8H11O+
125.0598	9	C7H9O2+
136.0757	6	C8H10NO+
136.1122	3	C9H14N+
137.0598	3	C8H9O2+
138.0913	239	C8H12NO+
139.0749	5	C8H11O2+
141.0546	18	C7H9O3+
146.0962	3	C10H12N+
148.1122	4	C10H14N+
149.0594	7	C9H9O2+
151.0758	3	C9H11O2+
156.1019	7	C8H14NO2+
164.107	52	C10H14NO+
165.0549	11	C9H9O3+
167.0701	4	C9H11O3+
182.1173	8	C10H16NO2+
192.1022	4	C11H14NO2+
220.1331	9	C13H18NO2+
320.1496	3	C17H22NO5+
322.1649	44	C17H24NO5+
350.1598	999	C18H24NO6+
