Mass spectrum: Galantamine; LC-ESI-ITFT; MS2; CE: 75%; R=15000; [M+H]+
Name: Galantamine
Formula: C17H21NO3
Exact mass: 287.1521
SMILES: CN1CCC23C=CC(CC2OC4=C(C=CC(=C34)C1)OC)O
InChI: InChI=1S/C17H21NO3/c1-18-8-7-17-6-5-12(19)9-14(17)21-16-13(20-2)4-3-11(10-18)15(16)17/h3-6,12,14,19H,7-10H2,1-2H3
Instrument: LTQ Orbitrap XL Thermo Scientific
Instrument type: LC-ESI-ITFT
Ms type: MS2
Ion mode: POSITIVE
Ionization: ESI
Fragmentation mode: CID
Collision energy: 75 % (nominal)
Resolution: 15000
Column name: Kinetex Evo C18 2.6 um 50 x 2.1 mm
Retention time: 0.657 min
Base peak: 288.159
Precursor m/z: 288.1594
Precursor type: [M+H]+
m/z	relative intensity	assigned
94.0654	2	C6H8N+
109.0648	3	C7H9O+
132.0809	5	C9H10N+
133.0889	7	C9H11N+
134.0966	9	C9H12N+
137.0601	4	C8H9O2+
142.0778	1	C11H10+
150.0915	6	C9H12NO+
151.0994	31	C9H13NO+
167.086	3	C13H11+
171.0811	1	C12H11O+
175.0757	10	C11H11O2+
179.0859	16	C14H11+
181.1013	5	C14H13+
183.0811	1	C13H11O+
189.0914	5	C12H13O2+
197.0964	111	C14H13O+
198.0669	1	C13H10O2+
199.0756	68	C13H11O2+
203.107	16	C13H15O2+
207.0808	21	C15H11O+
209.0963	97	C15H13O+
210.0678	5	C14H10O2+
211.1121	2	C15H15O+
213.0913	421	C14H13O2+
216.1027	4	C13H14NO2+
220.1126	4	C16H14N+
221.0962	7	C16H13O+
225.0913	781	C15H13O2+
227.107	6	C15H15O2+
231.1018	783	C14H15O3+
238.123	7	C16H16NO+
239.1069	25	C16H15O2+
241.1225	7	C16H17O2+
242.094	5	C15H14O3+
245.1175	13	C15H17O3+
253.1226	11	C17H17O2+
255.1258	15	C16H17NO2+
257.1176	47	C16H17O3+
270.1492	999	C17H20NO2+
