Mass spectrum: (-)-Nuciferine; LC-ESI-ITFT; MS2; CE: 70%; R=15000; [M+H]+
Name: (-)-Nuciferine
Name: Nuciferine
Name: (6aR)-1,2-dimethoxy-6-methyl-5,6,6a,7-tetrahydro-4H-dibenzo[de,g]quinoline
Formula: C19H21NO2
Exact mass: 295.1572
SMILES: CN1CCc2cc(c(c-3c2[C@H]1Cc4c3cccc4)OC)OC
InChI: InChI=1S/C19H21NO2/c1-20-9-8-13-11-16(21-2)19(22-3)18-14-7-5-4-6-12(14)10-15(20)17(13)18/h4-7,11,15H,8-10H2,1-3H3/t15-/m1/s1
Instrument: LTQ Orbitrap XL Thermo Scientific
Instrument type: LC-ESI-ITFT
Ms type: MS2
Ion mode: POSITIVE
Ionization: ESI
Fragmentation mode: HCD
Collision energy: 70% (nominal)
Resolution: 15000
Column name: Kinetex Evo C18 2.6 um 50 x 2.1 mm
Retention time: 7.612 min
Base peak: 296.1642
Precursor m/z: 296.1645
Precursor type: [M+H]+
m/z	relative intensity	assigned
128.0619	11	C10H8+
165.0699	12	C13H9+
167.0854	3	C13H11+
177.0697	5	C14H9+
178.0776	26	C14H10+
179.0855	140	C14H11+
181.064	2	C13H9O+
189.0698	34	C15H9+
190.0777	70	C15H10+
191.0855	180	C15H11+
192.0932	18	C15H12+
193.0646	16	C14H9O+
193.1012	33	C15H13+
194.0726	4	C14H10O+
194.1089	13	C15H14+
195.0803	14	C14H11O+
202.0777	38	C16H10+
203.0855	152	C16H11+
204.0933	42	C16H12+
205.0646	30	C15H9O+
205.1011	78	C16H13+
206.0728	19	C15H10O+
206.1095	5	C16H14+
207.0804	237	C15H11O+
208.0886	11	C15H12O+
215.0853	16	C17H11+
217.0648	72	C16H9O+
218.0726	141	C16H10O+
219.0804	369	C16H11O+
220.0882	30	C16H12O+
221.0596	112	C15H9O2+
221.096	202	C16H13O+
222.0676	9	C15H10O2+
222.1038	85	C16H14O+
223.0753	15	C15H11O2+
231.0805	34	C17H11O+
232.0883	18	C17H12O+
233.0961	108	C17H13O+
234.1038	567	C17H14O+
235.0751	999	C16H11O2+
236.0833	43	C16H12O2+
237.0911	3	C16H13O2+
238.0985	12	C16H14O2+
249.0909	118	C17H13O2+
250.0987	400	C17H14O2+
265.1222	140	C18H17O2+
