Mass spectrum: Kaempferol; LC-ESI-ITFT; MS2; CE: 85%; R=15000; [M+H]+
Name: Kaempferol
Name: 3,5,7-trihydroxy-2-(4-hydroxyphenyl)chromen-4-one
Formula: C15H10O6
Exact mass: 286.0477
SMILES: OC1=CC=C(C=C1)C1=C(O)C(=O)C2=C(O)C=C(O)C=C2O1
InChI: InChI=1S/C15H10O6/c16-8-3-1-7(2-4-8)15-14(20)13(19)12-10(18)5-9(17)6-11(12)21-15/h1-6,16-18,20H
Instrument: LTQ Orbitrap XL Thermo Scientific
Instrument type: LC-ESI-ITFT
Ms type: MS2
Ion mode: POSITIVE
Ionization: ESI
Fragmentation mode: HCD
Collision energy: 85% (nominal)
Resolution: 15000
Column name: Kinetex Evo C18 2.6 um 50 x 2.1 mm
Retention time: 10.422 min
Base peak: 116.9859
Precursor m/z: 287.055
Precursor type: [M+H]+
m/z	relative intensity	assigned
68.9971	214	C3HO2+
93.0335	48	C6H5O+
105.0339	50	C7H5O+
107.0491	152	C7H7O+
119.0494	41	C8H7O+
121.0283	576	C7H5O2+
137.0234	115	C7H5O3+
147.0439	71	C9H7O2+
153.0182	999	C7H5O4+
157.0648	237	C11H9O+
165.0182	153	C8H5O4+
213.0544	193	C13H9O3+
229.049	61	C13H9O4+
