Mass spectrum: Tetrahydropalmatin; LC-ESI-ITFT; MS2; CE: 65%; R=15000; [M+H]+
Name: Tetrahydropalmatin
Name: D-Tetrahydropalmatine
Name: (13aR)-2,3,9,10-tetramethoxy-6,8,13,13a-tetrahydro-5H-isoquinolino[2,1-b]isoquinoline
Formula: C21H25NO4
Exact mass: 355.1784
SMILES: COC1=C(C2=C(C[C@@H]3C4=CC(=C(C=C4CCN3C2)OC)OC)C=C1)OC
InChI: InChI=1S/C21H25NO4/c1-23-18-6-5-13-9-17-15-11-20(25-3)19(24-2)10-14(15)7-8-22(17)12-16(13)21(18)26-4/h5-6,10-11,17H,7-9,12H2,1-4H3/t17-/m1/s1
Instrument: LTQ Orbitrap XL Thermo Scientific
Instrument type: LC-ESI-ITFT
Ms type: MS2
Ion mode: POSITIVE
Ionization: ESI
Fragmentation mode: HCD
Collision energy: 65% (nominal)
Resolution: 15000
Column name: Kinetex Evo C18 2.6 um 50 x 2.1 mm
Retention time: 7.478 min
Base peak: 356.1854
Precursor m/z: 356.1856
Precursor type: [M+H]+
m/z	relative intensity	assigned
79.0542	3	C6H7+
91.0541	2	C7H7+
103.0541	4	C8H7+
105.0698	19	C8H9+
107.0489	3	C7H7O+
118.0413	2	C8H6O+
119.0493	1	C8H7O+
120.057	2	C8H8O+
121.0647	6	C8H9O+
122.0726	2	C8H10O+
131.0729	13	C9H9N+
133.0647	12	C9H9O+
134.0725	12	C9H10O+
135.044	8	C8H7O2+
135.0803	7	C9H11O+
136.0513	2	C8H8O2+
147.0679	4	C9H9NO+
148.0756	38	C9H10NO+
149.0597	2	C9H9O2+
150.0674	80	C9H10O2+
151.0751	17	C9H11O2+
158.0722	1	C11H10O+
159.0678	17	C10H9NO+
160.0755	5	C10H10NO+
161.0833	5	C10H11NO+
164.1067	1	C10H14NO+
165.0909	123	C10H13O2+
174.0552	1	C10H8NO2+
174.0678	2	C11H10O2+
174.0911	1	C11H12NO+
175.063	1	C10H9NO2+
175.0749	1	C11H11O2+
176.0705	79	C10H10NO2+
177.0783	134	C10H11NO2+
189.0786	1	C11H11NO2+
189.0909	3	C12H13O2+
190.0863	29	C11H12NO2+
192.1017	999	C11H14NO2+
204.1014	4	C12H14NO2+
205.1098	6	C12H15NO2+
250.0979	1	C17H14O2+
265.1222	2	C18H17O2+
275.1304	1	C19H17NO+
280.133	2	C18H18NO2+
281.1173	3	C18H17O3+
293.1169	5	C19H17O3+
294.1488	1	C19H20NO2+
297.1119	1	C18H17O4+
298.1434	4	C18H20NO3+
308.1286	6	C19H18NO3+
309.1126	1	C19H17O4+
310.1437	2	C19H20NO3+
312.1597	3	C19H22NO3+
322.1434	6	C20H20NO3+
326.1382	3	C19H20NO4+
340.154	15	C20H22NO4+
356.1869	1	C21H26NO4+
