Mass spectrum: (+)-Sparteine; LC-ESI-ITFT; MS2; CE: 75%; R=15000; [M+H]+
Name: (+)-Sparteine
Formula: C15H26N2
Exact mass: 234.2096
SMILES: C1CCN2C[C@H]3C[C@@H]([C@H]2C1)CN4[C@H]3CCCC4
InChI: InChI=1S/C15H26N2/c1-3-7-16-11-13-9-12(14(16)5-1)10-17-8-4-2-6-15(13)17/h12-15H,1-11H2/t12-,13-,14-,15+/m1/s1
Instrument: LTQ Orbitrap XL Thermo Scientific
Instrument type: LC-ESI-ITFT
Ms type: MS2
Ion mode: POSITIVE
Ionization: ESI
Fragmentation mode: HCD
Collision energy: 75 % (nominal)
Resolution: 15000
Column name: Kinetex Evo C18 2.6 um 50 x 2.1 mm
Retention time: 0.538 min
Base peak: 235.2164
Precursor m/z: 235.2169
Precursor type: [M+H]+
m/z	relative intensity	assigned
70.0651	7	C4H8N+
84.0808	19	C5H10N+
96.0808	8	C6H10N+
98.0964	713	C6H12N+
124.1119	3	C8H14N+
134.0963	19	C9H12N+
138.1281	2	C9H16N+
150.1276	8	C10H16N+
152.1436	10	C10H18N+
190.1598	2	C13H20N+
233.2011	209	C15H25N2+
235.2167	999	C15H27N2+
