Mass spectrum: Cevadine; LC-ESI-ITFT; MS2; CE: 70%; R=15000; [M+H]+
Name: Cevadine
Name: Veratrine
Name: [(1R,2S,6S,9S,10R,11S,12S,14R,15S,18S,19S,22S,23S,25R)-1,10,11,12,14,23-hexahydroxy-6,10,19-trimethyl-24-oxa-4-azaheptacyclo[12.12.0.02,11.04,9.015,25.018,23.019,25]hexacosan-22-yl] (Z)-2-methylbut-2-enoate
Formula: C32H49NO9
Exact mass: 591.3407
SMILES: C/C=C(/C)\C(=O)O[C@H]1CC[C@]2([C@H]3[C@@]1(O[C@@]24C[C@]5([C@@H]6CN7C[C@H](CC[C@H]7[C@@]([C@]6([C@H](C[C@]5([C@@H]4CC3)O)O)O)(C)O)C)O)O)C
InChI: InChI=1S/C32H49NO9/c1-6-18(3)25(35)41-24-11-12-26(4)19-8-9-20-28(37)13-23(34)31(39)21(29(28,38)16-30(20,26)42-32(19,24)40)15-33-14-17(2)7-10-22(33)27(31,5)36/h6,17,19-24,34,36-40H,7-16H2,1-5H3/b18-6-/t17-,19-,20-,21-,22-,23-,24-,26-,27+,28+,29+,30+,31-,32-/m0/s1
Instrument: LTQ Orbitrap XL Thermo Scientific
Instrument type: LC-ESI-ITFT
Ms type: MS2
Ion mode: POSITIVE
Ionization: ESI
Fragmentation mode: HCD
Collision energy: 70% (nominal)
Resolution: 15000
Column name: Kinetex Evo C18 2.6 um 50 x 2.1 mm
Retention time: 9.283 min
Base peak: 592.3471
Precursor m/z: 592.348
Precursor type: [M+H]+
m/z	relative intensity	assigned
55.0541	209	C4H7+
68.0493	11	C4H6N+
81.0699	25	C6H9+
82.0652	13	C5H8N+
83.0491	619	C5H7O+
84.0807	51	C5H10N+
91.0543	12	C7H7+
93.0697	29	C7H9+
94.065	16	C6H8N+
96.0807	59	C6H10N+
98.0963	310	C6H12N+
107.0854	17	C8H11+
108.0807	20	C7H10N+
109.0646	69	C7H9O+
110.0963	146	C7H12N+
111.1044	31	C7H13N+
112.1119	44	C7H14N+
117.0699	14	C9H9+
119.085	22	C9H11+
120.0808	17	C8H10N+
121.0646	31	C8H9O+
121.0887	9	C8H11N+
122.0963	42	C8H12N+
124.112	170	C8H14N+
125.1198	57	C8H15N+
126.0912	40	C7H12NO+
126.1276	209	C8H16N+
128.1069	39	C7H14NO+
129.0695	16	C10H9+
131.0856	28	C10H11+
132.0806	28	C9H10N+
133.0646	13	C9H9O+
133.1011	27	C10H13+
134.0965	17	C9H12N+
135.0808	11	C9H11O+
136.1121	96	C9H14N+
137.1196	50	C9H15N+
138.1276	999	C9H16N+
140.1069	11	C8H14NO+
143.0854	43	C11H11+
145.0647	8	C10H9O+
145.1011	26	C11H13+
146.0963	43	C10H12N+
147.0805	14	C10H11O+
147.1046	26	C10H13N+
147.1163	13	C11H15+
148.1119	146	C10H14N+
149.0957	19	C10H13O+
149.1197	72	C10H15N+
150.1276	189	C10H16N+
152.1069	55	C9H14NO+
154.1225	214	C9H16NO+
155.0851	21	C12H11+
157.101	30	C12H13+
159.08	23	C11H11O+
159.1165	13	C12H15+
160.1122	64	C11H14N+
161.0958	17	C11H13O+
161.1197	119	C11H15N+
162.1276	672	C11H16N+
164.107	91	C10H14NO+
164.1433	555	C11H18N+
166.1224	21	C10H16NO+
169.1003	24	C13H13+
171.0806	13	C12H11O+
171.1167	13	C13H15+
173.1199	13	C12H15N+
174.1276	300	C12H16N+
175.1352	77	C12H17N+
176.1069	37	C11H14NO+
176.1432	52	C12H18N+
177.115	26	C11H15NO+
178.1225	145	C11H16NO+
179.1301	26	C11H17NO+
180.1381	92	C11H18NO+
181.101	20	C14H13+
182.1173	18	C10H16NO2+
183.0807	10	C13H11O+
183.1165	21	C14H15+
185.1327	15	C14H17+
186.1277	39	C13H16N+
187.1353	26	C13H17N+
188.1432	719	C13H18N+
189.1147	22	C12H15NO+
189.1505	68	C13H19N+
190.1225	191	C12H16NO+
190.1589	42	C13H20N+
191.1304	162	C12H17NO+
192.1382	269	C12H18NO+
193.1013	12	C15H13+
193.1461	170	C12H19NO+
195.1166	11	C15H15+
197.0961	15	C14H13O+
199.1114	11	C14H15O+
204.1381	88	C13H18NO+
206.1177	13	C12H16NO2+
206.1538	176	C13H20NO+
208.1694	657	C13H22NO+
209.0959	11	C15H13O+
211.1113	22	C15H15O+
212.1441	17	C15H18N+
213.1281	14	C15H17O+
216.1379	25	C14H18NO+
218.1539	21	C14H20NO+
223.1124	11	C16H15O+
224.1429	12	C16H18N+
225.1273	11	C16H17O+
228.1379	23	C15H18NO+
229.1214	10	C15H17O2+
230.1535	13	C15H20NO+
234.1485	45	C14H20NO2+
235.157	12	C14H21NO2+
242.1538	23	C16H20NO+
244.1331	22	C15H18NO2+
245.1412	10	C15H19NO2+
250.1601	10	C18H20N+
260.1642	41	C16H22NO2+
262.1433	30	C15H20NO3+
263.1512	41	C15H21NO3+
280.1551	10	C15H22NO4+
280.1694	18	C19H22NO+
281.1622	55	C15H23NO4+
294.1852	31	C20H24NO+
334.2176	15	C23H28NO+
366.2429	14	C24H32NO2+
374.248	15	C26H32NO+
376.2267	14	C25H30NO2+
378.2422	34	C25H32NO2+
390.2042	13	C22H30O6+
390.2425	19	C26H32NO2+
392.2587	82	C26H34NO2+
393.2619	16	C23H37O5+
394.2376	19	C25H32NO3+
402.2423	73	C27H32NO2+
403.2433	25	C31H31+
404.2212	16	C26H30NO3+
405.2298	14	C26H31NO3+
408.2546	15	C26H34NO3+
410.2679	32	C26H36NO3+
420.2526	241	C27H34NO3+
423.24	10	C26H33NO4+
436.2466	14	C27H34NO4+
438.2633	461	C27H36NO4+
440.2431	37	C26H34NO5+
454.2572	35	C27H36NO5+
456.2735	623	C27H38NO5+
474.2837	69	C27H40NO6+
492.2956	13	C27H42NO7+
522.1678	21	C32H26O7+
538.3151	15	C32H44NO6+
556.3285	15	C32H46NO7+
