Mass spectrum: alpha-Cyperone; LC-ESI-ITFT; MS2; CE: 15%; R=15000; [M+H]+
Name: alpha-Cyperone
Formula: C15H22O
Exact mass: 218.1671
SMILES: CC1=C2CC(CCC2(CCC1=O)C)C(=C)C
InChI: InChI=1S/C15H22O/c1-10(2)12-5-7-15(4)8-6-14(16)11(3)13(15)9-12/h12H,1,5-9H2,2-4H3
Instrument: LTQ Orbitrap XL Thermo Scientific
Instrument type: LC-ESI-ITFT
Ms type: MS2
Ion mode: POSITIVE
Ionization: ESI
Fragmentation mode: CID
Collision energy: 15 % (nominal)
Resolution: 15000
Column name: Kinetex Evo C18 2.6 um 50 x 2.1 mm
Retention time: 13.110 min
Base peak: 219.1741
Precursor m/z: 219.1743
Precursor type: [M+H]+
m/z	relative intensity	assigned
67.0542	1	C5H7+
79.0542	1	C6H7+
81.0699	5	C6H9+
91.0544	1	C7H7+
93.0699	5	C7H9+
95.0856	19	C7H11+
97.0648	22	C6H9O+
105.0699	11	C8H9+
107.0856	15	C8H11+
109.0648	2	C7H9O+
109.1012	36	C8H13+
111.0805	35	C7H11O+
119.0856	18	C9H11+
121.0651	1	C8H9O+
121.1012	13	C9H13+
123.0805	14	C8H11O+
123.1169	14	C9H15+
125.0961	4	C8H13O+
131.0856	8	C10H11+
133.1012	5	C10H13+
135.0805	12	C9H11O+
135.1169	8	C10H15+
137.0963	4	C9H13O+
139.1119	1	C9H15O+
145.1013	41	C11H13+
147.1169	18	C11H15+
149.0962	9	C10H13O+
149.1325	3	C11H17+
159.1169	42	C12H15+
161.1326	34	C12H17+
163.1118	89	C11H15O+
173.1326	37	C13H17+
175.1481	9	C13H19+
177.1275	8	C12H17O+
177.1638	5	C13H21+
191.1431	3	C13H19O+
191.1795	6	C14H23+
201.1639	114	C15H21+
219.1744	999	C15H23O+
