Mass spectrum: Fraxidin; LC-ESI-ITFT; MS2; CE: 85%; R=15000; [M+H]+
Name: Fraxidin
Name: 8-hydroxy-6,7-dimethoxychromen-2-one
Formula: C11H10O5
Exact mass: 222.0528
SMILES: COC1=C(OC)C(O)=C2OC(=O)C=CC2=C1
InChI: InChI=1S/C11H10O5/c1-14-7-5-6-3-4-8(12)16-10(6)9(13)11(7)15-2/h3-5,13H,1-2H3
Instrument: LTQ Orbitrap XL Thermo Scientific
Instrument type: LC-ESI-ITFT
Ms type: MS2
Ion mode: POSITIVE
Ionization: ESI
Fragmentation mode: HCD
Collision energy: 85% (nominal)
Resolution: 15000
Column name: Kinetex Evo C18 2.6 um 50 x 2.1 mm
Retention time: 7.626 min
Base peak: 116.9858
Precursor m/z: 223.0601
Precursor type: [M+H]+
m/z	relative intensity	assigned
66.0463	18	C5H6+
76.0308	14	C6H4+
77.0386	31	C6H5+
78.0464	426	C6H6+
79.0542	29	C6H7+
81.0334	16	C5H5O+
88.0307	9	C7H4+
89.0386	19	C7H5+
90.0464	12	C7H6+
92.0257	26	C6H4O+
94.0413	17	C6H6O+
95.049	13	C6H7O+
104.0256	13	C7H4O+
105.0335	216	C7H5O+
106.0413	257	C7H6O+
107.0491	64	C7H7O+
109.0282	18	C6H5O2+
116.0256	30	C8H4O+
117.0335	18	C8H5O+
118.0413	48	C8H6O+
120.0206	41	C7H4O2+
121.0284	8	C7H5O2+
122.0364	15	C7H6O2+
123.044	88	C7H7O2+
132.0206	50	C8H4O2+
133.0284	220	C8H5O2+
134.0362	517	C8H6O2+
135.0441	287	C8H7O2+
137.0232	25	C7H5O3+
144.0206	45	C9H4O2+
145.0285	8	C9H5O2+
146.0359	13	C9H6O2+
149.0237	7	C8H5O3+
150.0312	95	C8H6O3+
151.0389	44	C8H7O3+
152.0468	41	C8H8O3+
160.0155	21	C9H4O3+
161.0233	99	C9H5O3+
162.0312	999	C9H6O3+
163.0389	35	C9H7O3+
165.0182	48	C8H5O4+
167.0704	13	C9H11O3+
172.016	9	C10H4O3+
178.026	214	C9H6O4+
179.0338	341	C9H7O4+
180.0416	17	C9H8O4+
190.026	202	C10H6O4+
193.0129	18	C9H5O5+
205.0132	12	C10H5O5+
207.0287	433	C10H7O5+
208.0366	29	C10H8O5+
