Mass spectrum: Senkirkine; LC-ESI-ITFT; MS2; CE: 105%; R=15000; [M+H]+
Name: Senkirkine
Name: (1R,4Z,6R,7R,11Z)-4-ethylidene-7-hydroxy-6,7,14-trimethyl-2,9-dioxa-14-azabicyclo[9.5.1]heptadec-11-ene-3,8,17-trione
Formula: C19H27NO6
Exact mass: 365.1838
SMILES: C/C=C\1/C[C@H]([C@@](C(=O)OC/C/2=C/CN(CC[C@H](C2=O)OC1=O)C)(C)O)C
InChI: InChI=1S/C19H27NO6/c1-5-13-10-12(2)19(3,24)18(23)25-11-14-6-8-20(4)9-7-15(16(14)21)26-17(13)22/h5-6,12,15,24H,7-11H2,1-4H3/b13-5-,14-6-/t12-,15-,19-/m1/s1
Instrument: LTQ Orbitrap XL Thermo Scientific
Instrument type: LC-ESI-ITFT
Ms type: MS2
Ion mode: POSITIVE
Ionization: ESI
Fragmentation mode: HCD
Collision energy: 105% (nominal)
Resolution: 15000
Column name: Kinetex Evo C18 2.6 um 50 x 2.1 mm
Retention time: 6.359 min
Base peak: 366.1908
Precursor m/z: 366.1911
Precursor type: [M+H]+
m/z	relative intensity	assigned
55.054	15	C4H7+
65.0385	30	C5H5+
67.0541	129	C5H7+
68.0492	8	C4H6N+
69.0334	24	C4H5O+
69.0698	13	C5H9+
70.065	999	C4H8N+
77.0385	179	C6H5+
79.0541	414	C6H7+
80.0492	17	C5H6N+
81.0333	17	C5H5O+
81.0573	37	C5H7N+
81.0698	93	C6H9+
82.065	85	C5H8N+
83.0491	47	C5H7O+
83.0727	8	C5H9N+
84.0806	12	C5H10N+
91.0541	242	C7H7+
92.0499	6	C6H6N+
92.062	9	C7H8+
93.0572	25	C6H7N+
93.0697	20	C7H9+
94.065	783	C6H8N+
95.049	164	C6H7O+
95.073	11	C6H9N+
96.0444	14	C5H6NO+
96.0807	117	C6H10N+
97.0282	9	C5H5O2+
97.0647	41	C6H9O+
98.06	42	C5H8NO+
101.0592	7	C5H9O2+
105.0697	63	C8H9+
106.0648	30	C7H8N+
107.049	143	C7H7O+
107.0728	96	C7H9N+
107.0854	113	C8H11+
108.0806	39	C7H10N+
109.0647	21	C7H9O+
109.1017	8	C8H13+
110.0599	602	C6H8NO+
112.0755	39	C6H10NO+
115.0539	9	C9H7+
116.0703	9	C5H10NO2+
117.0572	17	C8H7N+
117.0696	8	C9H9+
120.0807	45	C8H10N+
121.0886	12	C8H11N+
122.0599	286	C7H8NO+
122.0963	67	C8H12N+
123.0677	30	C7H9NO+
124.0756	17	C7H10NO+
125.0595	28	C7H9O2+
125.0961	11	C8H13O+
132.0806	11	C9H10N+
137.0833	12	C8H11NO+
140.0704	312	C7H10NO2+
150.0908	26	C9H12NO+
168.1017	170	C9H14NO2+
