Mass spectrum: Coniferaldehyde; LC-ESI-ITFT; MS2; CE: 115%; R=15000; [M+H]+
Name: Coniferaldehyde
Formula: C10H10O3
Exact mass: 178.0630
SMILES: COC1=CC(\C=C\C=O)=CC=C1O
InChI: InChI=1S/C10H10O3/c1-13-10-7-8(3-2-6-11)4-5-9(10)12/h2-7,12H,1H3/b3-2+
Instrument: LTQ Orbitrap XL Thermo Scientific
Instrument type: LC-ESI-ITFT
Ms type: MS2
Ion mode: POSITIVE
Ionization: ESI
Fragmentation mode: HCD
Collision energy: 115 % (nominal)
Resolution: 15000
Column name: Kinetex Evo C18 2.6 um 50 x 2.1 mm
Retention time: 7.426 min
Base peak: 179.07
Precursor m/z: 179.0703
Precursor type: [M+H]+
m/z	relative intensity	assigned
65.0386	219	C5H5+
66.0464	20	C5H6+
67.0541	8	C5H7+
77.0386	160	C6H5+
78.0464	15	C6H6+
79.0543	438	C6H7+
80.0621	80	C6H8+
81.0338	8	C5H5O+
82.0414	51	C5H6O+
89.0386	156	C7H5+
90.0465	221	C7H6+
91.0543	999	C7H7+
92.0257	32	C6H4O+
93.0336	13	C6H5O+
94.0413	70	C6H6O+
95.0494	27	C6H7O+
102.0465	15	C8H6+
103.0543	52	C8H7+
105.0337	7	C7H5O+
105.0704	10	C8H9+
107.0492	427	C7H7O+
108.0572	36	C7H8O+
110.0363	22	C6H6O2+
115.054	15	C9H7+
117.0333	10	C8H5O+
118.0414	305	C8H6O+
119.0492	97	C8H7O+
121.0283	12	C7H5O2+
122.0361	10	C7H6O2+
133.0648	8	C9H9O+
135.0442	90	C8H7O2+
136.052	100	C8H8O2+
146.0364	74	C9H6O2+
147.0439	20	C9H7O2+
163.0393	8	C9H7O3+
