Mass spectrum: Senecivernine N-oxide; LC-ESI-ITFT; MS2; CE: 70%; R=15000; [M+H]+
Name: Senecivernine N-oxide
Name: CID 14313723
Name: 7-hydroxy-5,6,7-trimethyl-4-methylidene-14-oxido-2,9-dioxa-14-azoniatricyclo[9.5.1.014,17]heptadec-11-ene-3,8-dione
Formula: C18H25NO6
Exact mass: 351.1682
SMILES: CC1C(C(C(=O)OCC2=CC[N+]3(C2C(CC3)OC(=O)C1=C)[O-])(C)O)C
InChI: InChI=1S/C18H25NO6/c1-10-11(2)16(20)25-14-6-8-19(23)7-5-13(15(14)19)9-24-17(21)18(4,22)12(10)3/h5,10,12,14-15,22H,2,6-9H2,1,3-4H3
Instrument: LTQ Orbitrap XL Thermo Scientific
Instrument type: LC-ESI-ITFT
Ms type: MS2
Ion mode: POSITIVE
Ionization: ESI
Fragmentation mode: HCD
Collision energy: 70% (nominal)
Resolution: 15000
Column name: Kinetex Evo C18 2.6 um 50 x 2.1 mm
Retention time: 4.638 min
Base peak: 352.1753
Precursor m/z: 352.1755
Precursor type: [M+H]+
m/z	relative intensity	assigned
55.0541	14	C4H7+
67.0542	28	C5H7+
68.0492	17	C4H6N+
79.0543	115	C6H7+
80.0495	92	C5H6N+
81.0572	18	C5H7N+
81.0699	244	C6H9+
82.0653	28	C5H8N+
83.0491	38	C5H7O+
84.0444	35	C4H6NO+
91.0542	51	C7H7+
92.0498	15	C6H6N+
93.0573	440	C6H7N+
94.0651	772	C6H8N+
95.073	433	C6H9N+
96.0448	10	C5H6NO+
96.081	19	C6H10N+
98.0601	52	C5H8NO+
106.0652	262	C7H8N+
107.0732	14	C7H9N+
107.0856	43	C8H11+
108.0808	161	C7H10N+
109.0647	39	C7H9O+
109.0885	23	C7H11N+
109.1013	11	C8H13+
110.0601	19	C6H8NO+
111.0441	42	C6H7O2+
111.0679	43	C6H9NO+
112.0757	48	C6H10NO+
117.0574	13	C8H7N+
118.0651	642	C8H8N+
119.0729	524	C8H9N+
120.0808	999	C8H10N+
121.0886	96	C8H11N+
122.0964	74	C8H12N+
124.0757	30	C7H10NO+
125.0962	23	C8H13O+
126.0915	13	C7H12NO+
132.0809	18	C9H10N+
134.0965	21	C9H12N+
136.0757	628	C8H10NO+
137.0835	38	C8H11NO+
138.0913	281	C8H12NO+
141.0911	22	C8H13O2+
146.0962	10	C10H12N+
152.1071	49	C9H14NO+
153.091	61	C9H13O2+
154.0862	87	C8H12NO2+
167.106	12	C10H15O2+
174.0918	14	C11H12NO+
192.1379	15	C12H18NO+
202.1224	21	C13H16NO+
211.1328	53	C12H19O3+
218.1171	22	C13H16NO2+
220.1331	27	C13H18NO2+
324.1808	20	C17H26NO5+
352.1759	27	C18H26NO6+
