Mass spectrum: Erucifoline N-oxide; LC-ESI-ITFT; MS2; CE: 80%; R=15000; [M+H]+
Name: Erucifoline N-oxide
Name: (5R,7S,9Z,12R,18R)-9-ethylidene-7-(hydroxymethyl)-5-methyl-15-oxido-3,6,11-trioxa-15-azoniatetracyclo[10.5.1.05,7.015,18]octadec-1(17)-ene-4,10-dione
Formula: C18H23NO7
Exact mass: 365.1475
SMILES: C/C=C\1/C[C@@]2([C@@](O2)(C(=O)OCC3=CC[N+]4([C@H]3[C@@H](CC4)OC1=O)[O-])C)CO
InChI: InChI=1S/C18H23NO7/c1-3-11-8-18(10-20)17(2,26-18)16(22)24-9-12-4-6-19(23)7-5-13(14(12)19)25-15(11)21/h3-4,13-14,20H,5-10H2,1-2H3/b11-3-/t13-,14-,17+,18+,19?/m1/s1
Instrument: LTQ Orbitrap XL Thermo Scientific
Instrument type: LC-ESI-ITFT
Ms type: MS2
Ion mode: POSITIVE
Ionization: ESI
Fragmentation mode: HCD
Collision energy: 80% (nominal)
Resolution: 15000
Column name: Kinetex Evo C18 2.6 um 50 x 2.1 mm
Retention time: 1.120 min
Base peak: 366.1547
Precursor m/z: 366.1547
Precursor type: [M+H]+
m/z	relative intensity	assigned
53.0385	29	C4H5+
67.0415	11	C4H5N+
67.0542	46	C5H7+
68.0497	9	C4H6N+
69.0334	10	C4H5O+
77.0386	15	C6H5+
79.0542	41	C6H7+
80.0495	127	C5H6N+
81.0336	24	C5H5O+
81.0573	19	C5H7N+
81.07	43	C6H9+
82.0653	19	C5H8N+
83.0491	17	C5H7O+
84.0445	9	C4H6NO+
91.0543	88	C7H7+
92.0496	19	C6H6N+
93.0574	385	C6H7N+
93.07	25	C7H9+
94.0652	999	C6H8N+
95.0492	20	C6H7O+
95.0729	46	C6H9N+
96.0442	14	C5H6NO+
96.0806	10	C6H10N+
97.0649	14	C6H9O+
98.0601	23	C5H8NO+
105.0697	17	C8H9+
106.0652	84	C7H8N+
107.0729	20	C7H9N+
108.0808	167	C7H10N+
109.0647	65	C7H9O+
109.0883	11	C7H11N+
110.0602	13	C6H8NO+
111.0439	18	C6H7O2+
112.0757	27	C6H10NO+
117.0573	35	C8H7N+
118.0652	520	C8H8N+
119.073	318	C8H9N+
120.0808	433	C8H10N+
121.0649	19	C8H9O+
121.0888	9	C8H11N+
122.0965	45	C8H12N+
123.0442	29	C7H7O2+
123.0807	14	C8H11O+
125.0597	20	C7H9O2+
130.0655	12	C9H8N+
132.0808	22	C9H10N+
134.0963	10	C9H12N+
136.0758	508	C8H10NO+
138.0917	43	C8H12NO+
139.0752	32	C8H11O2+
141.055	15	C7H9O3+
144.0809	11	C10H10N+
146.0969	23	C10H12N+
158.0958	10	C11H12N+
164.107	27	C10H14NO+
172.1127	13	C12H14N+
190.1227	10	C12H16NO+
204.1022	8	C12H14NO2+
