Mass spectrum: Crotonoside; LC-ESI-ITFT; MS2; CE: 25%; R=15000; [M+H]+
Name: Crotonoside
Name: 2-Hydroxyadenosine
Name: 6-amino-9-[(2R,3R,4S,5R)-3,4-dihydroxy-5-(hydroxymethyl)oxolan-2-yl]-1H-purin-2-one
Formula: C10H13N5O5
Exact mass: 283.0917
SMILES: NC1=C2N=CN([C@@H]3O[C@H](CO)[C@@H](O)[C@H]3O)C2=NC(O)=N1
InChI: InChI=1S/C10H13N5O5/c11-7-4-8(14-10(19)13-7)15(2-12-4)9-6(18)5(17)3(1-16)20-9/h2-3,5-6,9,16-18H,1H2,(H3,11,13,14,19)/t3-,5-,6-,9-/m1/s1
Instrument: LTQ Orbitrap XL Thermo Scientific
Instrument type: LC-ESI-ITFT
Ms type: MS2
Ion mode: POSITIVE
Ionization: ESI
Fragmentation mode: HCD
Collision energy: 25 % (nominal)
Resolution: 15000
Column name: Kinetex Evo C18 2.6 um 50x2.1 mm, Phenomenex
Retention time: 0.535 min
Base peak: 249.1957
Precursor m/z: 284.0989
Precursor type: [M+H]+
m/z	relative intensity	assigned
152.0567	999	C5H6N5O+
284.0992	126	C10H14N5O5+
