Mass spectrum: Intermedine N-oxide; LC-ESI-ITFT; MS2; CE: 60%; R=15000; [M+H]+
Name: Intermedine N-oxide
Name: [(7R,8R)-7-hydroxy-4-oxido-5,6,7,8-tetrahydro-3H-pyrrolizin-4-ium-1-yl]methyl (2S)-2-hydroxy-2-[(1R)-1-hydroxyethyl]-3-methylbutanoate
Formula: C15H25NO6
Exact mass: 315.1682
SMILES: C[C@H]([C@@](C(C)C)(C(=O)OCC1=CC[N+]2([C@H]1[C@@H](CC2)O)[O-])O)O
InChI: InChI=1S/C15H25NO6/c1-9(2)15(20,10(3)17)14(19)22-8-11-4-6-16(21)7-5-12(18)13(11)16/h4,9-10,12-13,17-18,20H,5-8H2,1-3H3/t10-,12-,13-,15+,16?/m1/s1
Instrument: LTQ Orbitrap XL Thermo Scientific
Instrument type: LC-ESI-ITFT
Ms type: MS2
Ion mode: POSITIVE
Ionization: ESI
Fragmentation mode: HCD
Collision energy: 60% (nominal)
Resolution: 15000
Column name: Kinetex Evo C18 2.6 um 50 x 2.1 mm
Retention time: 1.205 min
Base peak: 143.0015
Precursor m/z: 316.1755
Precursor type: [M+H]+
m/z	relative intensity	assigned
55.0542	3	C4H7+
67.0541	5	C5H7+
68.0494	13	C4H6N+
73.0648	14	C4H9O+
79.0542	5	C6H7+
80.0495	21	C5H6N+
81.0571	3	C5H7N+
81.0699	10	C6H9+
82.0413	27	C5H6O+
82.0651	19	C5H8N+
83.0492	35	C5H7O+
93.0573	154	C6H7N+
94.0651	151	C6H8N+
95.073	11	C6H9N+
96.0447	4	C5H6NO+
98.06	25	C5H8NO+
100.0758	5	C5H10NO+
102.055	10	C4H8NO2+
106.0652	12	C7H8N+
108.0808	39	C7H10N+
109.0649	13	C7H9O+
109.0887	7	C7H11N+
110.0601	17	C6H8NO+
111.0679	85	C6H9NO+
112.0757	38	C6H10NO+
118.065	8	C8H8N+
120.0808	6	C8H10N+
126.0914	9	C7H12NO+
128.0703	6	C6H10NO2+
136.0757	136	C8H10NO+
137.0835	46	C8H11NO+
138.0913	547	C8H12NO+
140.0704	6	C7H10NO2+
154.0863	83	C8H12NO2+
155.0941	150	C8H13NO2+
172.0969	999	C8H14NO3+
226.1439	19	C12H20NO3+
316.1755	218	C15H26NO6+
