Mass spectrum: Artemisinin; LC-ESI-ITFT; MS2; CE: 80%; R=15000; [M+H]+
Name: Artemisinin
Formula: C15H22O5
Exact mass: 282.1467
SMILES: C[C@@H]1CC[C@H]2[C@@H](C)C(=O)O[C@@H]3O[C@@]4(C)CC[C@@H]1[C@@]23OO4
InChI: InChI=1S/C15H22O5/c1-8-4-5-11-9(2)12(16)17-13-15(11)10(8)6-7-14(3,18-13)19-20-15/h8-11,13H,4-7H2,1-3H3/t8-,9-,10+,11+,13-,14-,15-/m1/s1
Instrument: LTQ Orbitrap XL Thermo Scientific
Instrument type: LC-ESI-ITFT
Ms type: MS2
Ion mode: POSITIVE
Ionization: ESI
Fragmentation mode: HCD
Collision energy: 80 % (nominal)
Resolution: 15000
Column name: Kinetex Evo C18 2.6 um 50x2.1 mm, Phenomenex
Retention time: 11.426 min
Base peak: 305.1359
Precursor m/z: 283.154
Precursor type: [M+H]+
m/z	relative intensity	assigned
81.0698	340	C6H9+
93.0699	999	C7H9+
95.0859	647	C7H11+
105.0698	927	C8H9+
107.086	461	C8H11+
131.0854	321	C10H11+
