Mass spectrum: Intermedine N-oxide; LC-ESI-ITFT; MS2; CE: 40%; R=15000; [M+H]+
Name: Intermedine N-oxide
Name: [(7R,8R)-7-hydroxy-4-oxido-5,6,7,8-tetrahydro-3H-pyrrolizin-4-ium-1-yl]methyl (2S)-2-hydroxy-2-[(1R)-1-hydroxyethyl]-3-methylbutanoate
Formula: C15H25NO6
Exact mass: 315.1682
SMILES: C[C@H]([C@@](C(C)C)(C(=O)OCC1=CC[N+]2([C@H]1[C@@H](CC2)O)[O-])O)O
InChI: InChI=1S/C15H25NO6/c1-9(2)15(20,10(3)17)14(19)22-8-11-4-6-16(21)7-5-12(18)13(11)16/h4,9-10,12-13,17-18,20H,5-8H2,1-3H3/t10-,12-,13-,15+,16?/m1/s1
Instrument: LTQ Orbitrap XL Thermo Scientific
Instrument type: LC-ESI-ITFT
Ms type: MS2
Ion mode: POSITIVE
Ionization: ESI
Fragmentation mode: HCD
Collision energy: 40% (nominal)
Resolution: 15000
Column name: Kinetex Evo C18 2.6 um 50 x 2.1 mm
Retention time: 1.204 min
Base peak: 143.0015
Precursor m/z: 316.1755
Precursor type: [M+H]+
m/z	relative intensity	assigned
93.0575	6	C6H7N+
94.065	8	C6H8N+
108.0809	3	C7H10N+
112.0756	2	C6H10NO+
136.0757	22	C8H10NO+
137.0833	6	C8H11NO+
138.0914	78	C8H12NO+
139.0989	4	C8H13NO+
154.0863	26	C8H12NO2+
155.0941	28	C8H13NO2+
172.097	164	C8H14NO3+
210.1487	2	C12H20NO2+
226.1436	8	C12H20NO3+
272.149	15	C13H22NO5+
298.1639	3	C15H24NO5+
316.1756	999	C15H26NO6+
