Mass spectrum: Senecivernine; LC-ESI-ITFT; MS2; CE: 100%; R=15000; [M+H]+
Name: Senecivernine
Name: (1R,5R,6R,7R,17R)-7-hydroxy-5,6,7-trimethyl-4-methylidene-2,9-dioxa-14-azatricyclo[9.5.1.014,17]heptadec-11-ene-3,8-dione
Formula: C18H25NO5
Exact mass: 335.1733
SMILES: C[C@@H]1[C@H]([C@@](C(=O)OCC2=CCN3[C@H]2[C@@H](CC3)OC(=O)C1=C)(C)O)C
InChI: InChI=1S/C18H25NO5/c1-10-11(2)16(20)24-14-6-8-19-7-5-13(15(14)19)9-23-17(21)18(4,22)12(10)3/h5,10,12,14-15,22H,2,6-9H2,1,3-4H3/t10-,12+,14+,15+,18+/m0/s1
Instrument: LTQ Orbitrap XL Thermo Scientific
Instrument type: LC-ESI-ITFT
Ms type: MS2
Ion mode: POSITIVE
Ionization: ESI
Fragmentation mode: HCD
Collision energy: 100% (nominal)
Resolution: 15000
Column name: Kinetex Evo C18 2.6 um 50 x 2.1 mm
Retention time: 3.395 min
Base peak: 143.0015
Precursor m/z: 336.1805
Precursor type: [M+H]+
m/z	relative intensity	assigned
55.054	51	C4H7+
65.0384	101	C5H5+
67.0542	581	C5H7+
68.0495	264	C4H6N+
77.0385	233	C6H5+
79.0542	514	C6H7+
80.0495	517	C5H6N+
81.0573	147	C5H7N+
81.0699	577	C6H9+
82.0652	259	C5H8N+
83.0493	119	C5H7O+
84.0444	41	C4H6NO+
91.0542	637	C7H7+
92.0495	118	C6H6N+
93.0573	175	C6H7N+
93.0699	257	C7H9+
94.0651	999	C6H8N+
95.0492	66	C6H7O+
95.0727	44	C6H9N+
96.0807	301	C6H10N+
103.0542	188	C8H7+
105.0573	73	C7H7N+
105.0697	139	C8H9+
106.0653	158	C7H8N+
107.0728	63	C7H9N+
107.0857	73	C8H11+
108.0807	363	C7H10N+
110.06	140	C6H8NO+
110.0965	55	C7H12N+
111.0439	86	C6H7O2+
117.0703	47	C9H9+
118.0651	259	C8H8N+
119.073	70	C8H9N+
120.0808	708	C8H10N+
122.0961	78	C8H12N+
136.0754	71	C8H10NO+
138.0915	171	C8H12NO+
