Mass spectrum: Gibberellin A4; LC-ESI-ITFT; MS2; CE: 80%; R=15000; [M+H]+
Name: Gibberellin A4
Name: (1R,2R,5R,8R,9S,10R,11S,12S)-12-hydroxy-11-methyl-6-methylidene-16-oxo-15-oxapentacyclo[9.3.2.15,8.01,10.02,8]heptadecane-9-carboxylic acid
Formula: C19H24O5
Exact mass: 332.1624
SMILES: C[C@]12[C@H]3[C@H](C(O)=O)[C@@]45C[C@@H](CC[C@H]4[C@@]3(CC[C@@H]1O)OC2=O)C(=C)C5
InChI: InChI=1S/C19H24O5/c1-9-7-18-8-10(9)3-4-11(18)19-6-5-12(20)17(2,16(23)24-19)14(19)13(18)15(21)22/h10-14,20H,1,3-8H2,2H3,(H,21,22)/t10-,11-,12+,13-,14-,17-,18+,19-/m1/s1
Instrument: LTQ Orbitrap XL Thermo Scientific
Instrument type: LC-ESI-ITFT
Ms type: MS2
Ion mode: POSITIVE
Ionization: ESI
Fragmentation mode: CID
Collision energy: 80 % (nominal)
Resolution: 15000
Column name: Kinetex Evo C18 2.6 um 50 x 2.1 mm
Retention time: 10.998 min
Base peak: 416.3518
Precursor m/z: 333.1697
Precursor type: [M+H]+
m/z	relative intensity	assigned
315.1596	999	C19H23O4+
