Mass spectrum: Jervine; LC-ESI-ITFT; MS2; CE: 70%; R=15000; [M+H]+
Name: Jervine
Name: (3S,3`R,3`aS,6`S,6aS,6bS,7`aR,9R,11aS,11bR)-3-hydroxy-3`,6`,10,11b-tetramethylspiro[1,2,3,4,6,6a,6b,7,8,11a-decahydrobenzo[a]fluorene-9,2`-3a,4,5,6,7,7a-hexahydro-3H-furo[3,2-b]pyridine]-11-one
Formula: C27H39NO3
Exact mass: 425.2930
SMILES: C[C@H]1C[C@@H]2[C@H]([C@H]([C@]3(O2)CC[C@H]4[C@@H]5CC=C6C[C@H](CC[C@@]6([C@H]5C(=O)C4=C3C)C)O)C)NC1
InChI: InChI=1S/C27H39NO3/c1-14-11-21-24(28-13-14)16(3)27(31-21)10-8-19-20-6-5-17-12-18(29)7-9-26(17,4)23(20)25(30)22(19)15(27)2/h5,14,16,18-21,23-24,28-29H,6-13H2,1-4H3/t14-,16+,18-,19-,20-,21+,23+,24-,26-,27-/m0/s1
Instrument: LTQ Orbitrap XL Thermo Scientific
Instrument type: LC-ESI-ITFT
Ms type: MS2
Ion mode: POSITIVE
Ionization: ESI
Fragmentation mode: HCD
Collision energy: 70% (nominal)
Resolution: 15000
Column name: Kinetex Evo C18 2.6 um 50 x 2.1 mm
Retention time: 8.952 min
Base peak: 426.3
Precursor m/z: 426.3003
Precursor type: [M+H]+
m/z	relative intensity	assigned
55.0541	22	C4H7+
57.0697	22	C4H9+
67.0542	534	C5H7+
69.0698	46	C5H9+
70.0651	104	C4H8N+
72.0444	22	C3H6NO+
79.0542	110	C6H7+
81.0699	482	C6H9+
82.065	19	C5H8N+
83.0491	120	C5H7O+
84.0808	591	C5H10N+
85.0648	284	C5H9O+
91.0542	119	C7H7+
93.0698	234	C7H9+
95.0855	139	C7H11+
96.0808	200	C6H10N+
98.0964	57	C6H12N+
100.0758	30	C5H10NO+
101.0596	14	C5H9O2+
102.0913	49	C5H12NO+
105.0698	346	C8H9+
107.0855	313	C8H11+
109.1011	737	C8H13+
112.0756	103	C6H10NO+
114.0913	999	C6H12NO+
117.0698	71	C9H9+
119.0855	226	C9H11+
121.0646	26	C8H9O+
121.1011	348	C9H13+
123.0802	43	C8H11O+
123.1166	16	C9H15+
124.1122	35	C8H14N+
125.0961	16	C8H13O+
129.0701	51	C10H9+
130.0776	22	C10H10+
131.0855	154	C10H11+
133.1012	172	C10H13+
135.0802	33	C9H11O+
135.1168	21	C10H15+
140.1067	26	C8H14NO+
142.0777	56	C11H10+
143.0856	108	C11H11+
144.0933	22	C11H12+
145.1011	439	C11H13+
147.0803	45	C10H11O+
147.1168	82	C11H15+
149.096	210	C10H13O+
151.1111	16	C10H15O+
155.0855	61	C12H11+
156.0929	27	C12H12+
157.1011	244	C12H13+
159.1168	116	C12H15+
161.0962	25	C11H13O+
163.1122	18	C11H15O+
167.0854	23	C13H11+
169.1012	81	C13H13+
171.0809	13	C12H11O+
171.1167	106	C13H15+
173.0961	81	C12H13O+
173.1325	43	C13H17+
175.1116	139	C12H15O+
179.0858	27	C14H11+
180.0938	18	C14H12+
181.1013	65	C14H13+
183.1166	58	C14H15+
185.0958	23	C13H13O+
185.1324	22	C14H17+
187.1117	47	C13H15O+
189.1274	37	C13H17O+
193.1006	33	C15H13+
194.1087	23	C15H14+
195.1168	72	C15H15+
197.0956	21	C14H13O+
197.1327	24	C15H17+
198.1038	20	C14H14O+
199.1482	32	C15H19+
201.1273	14	C14H17O+
207.1171	33	C16H15+
209.1321	43	C16H17+
211.1117	23	C15H15O+
211.1481	31	C16H19+
213.1638	29	C16H21+
220.1248	17	C17H16+
221.132	33	C17H17+
223.1487	28	C17H19+
225.1644	12	C17H21+
231.1169	18	C18H15+
233.1324	37	C18H17+
235.1478	37	C18H19+
237.1636	22	C18H21+
245.133	28	C19H17+
246.1399	15	C19H18+
247.1485	22	C19H19+
249.1634	19	C19H21+
260.155	12	C20H20+
277.1948	24	C21H25+
295.2068	24	C21H27O+
