Mass spectrum: Lasiocarpine; LC-ESI-ITFT; MS2; CE: 95%; R=15000; [M+H]+
Name: Lasiocarpine
Name: [(7S,8R)-7-[(Z)-2-methylbut-2-enoyl]oxy-5,6,7,8-tetrahydro-3H-pyrrolizin-1-yl]methyl (2R)-2,3-dihydroxy-2-[(1S)-1-methoxyethyl]-3-methylbutanoate
Formula: C21H33NO7
Exact mass: 411.2257
SMILES: C/C=C(/C)\C(=O)O[C@H]1CCN2[C@@H]1C(=CC2)COC(=O)[C@@]([C@H](C)OC)(C(C)(C)O)O
InChI: InChI=1S/C21H33NO7/c1-7-13(2)18(23)29-16-9-11-22-10-8-15(17(16)22)12-28-19(24)21(26,14(3)27-6)20(4,5)25/h7-8,14,16-17,25-26H,9-12H2,1-6H3/b13-7-/t14-,16-,17+,21-/m0/s1
Instrument: LTQ Orbitrap XL Thermo Scientific
Instrument type: LC-ESI-ITFT
Ms type: MS2
Ion mode: POSITIVE
Ionization: ESI
Fragmentation mode: HCD
Collision energy: 95% (nominal)
Resolution: 15000
Column name: Kinetex Evo C18 2.6 um 50 x 2.1 mm
Retention time: 7.418 min
Base peak: 412.2329
Precursor m/z: 412.233
Precursor type: [M+H]+
m/z	relative intensity	assigned
55.0541	9	C4H7+
59.0491	29	C3H7O+
65.0385	10	C5H5+
67.0416	4	C4H5N+
67.0542	15	C5H7+
68.0495	34	C4H6N+
69.0702	3	C5H9+
77.0386	67	C6H5+
78.0341	3	C5H4N+
79.0542	35	C6H7+
80.0495	136	C5H6N+
81.0574	8	C5H7N+
81.07	9	C6H9+
82.0652	19	C5H8N+
83.0492	14	C5H7O+
91.0543	136	C7H7+
92.0495	69	C6H6N+
93.0573	30	C6H7N+
93.0699	108	C7H9+
94.0651	99	C6H8N+
95.0491	10	C6H7O+
95.0728	5	C6H9N+
96.0444	3	C5H6NO+
96.0807	8	C6H10N+
97.065	3	C6H9O+
103.0542	131	C8H7+
104.0494	5	C7H6N+
105.0573	58	C7H7N+
106.0652	13	C7H8N+
107.0732	2	C7H9N+
108.0808	97	C7H10N+
110.0601	22	C6H8NO+
110.0966	4	C7H12N+
117.0574	6	C8H7N+
118.0652	126	C8H8N+
119.073	54	C8H9N+
120.0808	999	C8H10N+
121.0886	16	C8H11N+
122.0962	2	C8H12N+
138.0913	52	C8H12NO+
156.1022	2	C8H14NO2+
