Mass spectrum: Harmine; LC-ESI-ITFT; MS2; CE: 140%; R=15000; [M+H]+
Name: Harmine
Name: 7-methoxy-1-methyl-9H-pyrido[3,4-b]indole
Formula: C13H12N2O
Exact mass: 212.0950
SMILES: COC1=CC2=C(C=C1)C1=C(N2)C(C)=NC=C1
InChI: InChI=1S/C13H12N2O/c1-8-13-11(5-6-14-8)10-4-3-9(16-2)7-12(10)15-13/h3-7,15H,1-2H3
Instrument: LTQ Orbitrap XL Thermo Scientific
Instrument type: LC-ESI-ITFT
Ms type: MS2
Ion mode: POSITIVE
Ionization: ESI
Fragmentation mode: HCD
Collision energy: 140 % (nominal)
Resolution: 15000
Column name: Kinetex Evo C18 2.6 um 50 x 2.1 mm
Retention time: 6.601 min
Base peak: 213.1034
Precursor m/z: 213.1022
Precursor type: [M+H]+
m/z	relative intensity	assigned
67.0417	1	C4H5N+
77.0387	3	C6H5+
89.0388	4	C7H5+
90.0466	7	C7H6+
91.0546	2	C7H7+
92.0496	2	C6H6N+
93.0576	74	C6H7N+
102.0467	20	C8H6+
103.0419	2	C7H5N+
103.0546	10	C8H7+
104.0499	1	C7H6N+
105.045	2	C6H5N2+
115.0546	58	C9H7+
116.0499	10	C8H6N+
116.0625	3	C9H8+
117.0576	26	C8H7N+
118.0527	3	C7H6N2+
118.0654	54	C8H8N+
119.0734	2	C8H9N+
128.0498	52	C9H6N+
129.0451	11	C8H5N2+
129.0576	9	C9H7N+
130.0654	6	C9H8N+
134.0601	1	C8H8NO+
140.0497	6	C10H6N+
141.0576	6	C10H7N+
142.0655	71	C10H8N+
143.0608	28	C9H7N2+
143.0733	25	C10H9N+
144.0685	53	C9H8N2+
144.0811	135	C10H10N+
146.0604	4	C9H8NO+
152.0498	3	C11H6N+
153.045	11	C10H5N2+
154.0407	1	C11H6O+
154.0525	1	C10H6N2+
154.0656	1	C11H8N+
155.0607	116	C10H7N2+
168.0688	44	C11H8N2+
169.0765	999	C11H9N2+
170.0841	243	C11H10N2+
171.0556	8	C10H7N2O+
171.087	1	C6H11N4O2+
198.0792	1	C12H10N2O+
