Mass spectrum: Lasiocarpine; LC-ESI-ITFT; MS2; CE: 105%; R=15000; [M+H]+
Name: Lasiocarpine
Name: [(7S,8R)-7-[(Z)-2-methylbut-2-enoyl]oxy-5,6,7,8-tetrahydro-3H-pyrrolizin-1-yl]methyl (2R)-2,3-dihydroxy-2-[(1S)-1-methoxyethyl]-3-methylbutanoate
Formula: C21H33NO7
Exact mass: 411.2257
SMILES: C/C=C(/C)\C(=O)O[C@H]1CCN2[C@@H]1C(=CC2)COC(=O)[C@@]([C@H](C)OC)(C(C)(C)O)O
InChI: InChI=1S/C21H33NO7/c1-7-13(2)18(23)29-16-9-11-22-10-8-15(17(16)22)12-28-19(24)21(26,14(3)27-6)20(4,5)25/h7-8,14,16-17,25-26H,9-12H2,1-6H3/b13-7-/t14-,16-,17+,21-/m0/s1
Instrument: LTQ Orbitrap XL Thermo Scientific
Instrument type: LC-ESI-ITFT
Ms type: MS2
Ion mode: POSITIVE
Ionization: ESI
Fragmentation mode: HCD
Collision energy: 105% (nominal)
Resolution: 15000
Column name: Kinetex Evo C18 2.6 um 50 x 2.1 mm
Retention time: 7.418 min
Base peak: 412.2329
Precursor m/z: 412.233
Precursor type: [M+H]+
m/z	relative intensity	assigned
55.0542	12	C4H7+
59.0491	28	C3H7O+
65.0386	26	C5H5+
67.0415	9	C4H5N+
67.0543	30	C5H7+
68.0495	46	C4H6N+
77.0386	117	C6H5+
78.034	8	C5H4N+
79.0543	47	C6H7+
80.0495	243	C5H6N+
81.0573	13	C5H7N+
81.0699	12	C6H9+
82.0651	27	C5H8N+
83.0492	16	C5H7O+
91.0543	223	C7H7+
92.0495	93	C6H6N+
93.0573	57	C6H7N+
93.0699	119	C7H9+
94.0652	128	C6H8N+
95.0492	15	C6H7O+
96.0445	8	C5H6NO+
96.0808	7	C6H10N+
103.0543	165	C8H7+
104.0494	7	C7H6N+
105.0573	92	C7H7N+
106.0652	22	C7H8N+
108.0808	98	C7H10N+
110.0601	33	C6H8NO+
117.0576	8	C8H7N+
118.0652	195	C8H8N+
119.073	73	C8H9N+
120.0808	999	C8H10N+
121.0887	12	C8H11N+
136.076	5	C8H10NO+
138.0913	33	C8H12NO+
