Mass spectrum: 4-Hydroxycoumarin; LC-ESI-ITFT; MS2; CE: 80%; R=15000; [M+H]+
Name: 4-Hydroxycoumarin
Name: CID 14101
Name: 2-hydroxychromen-4-one
Formula: C9H6O3
Exact mass: 162.0317
SMILES: OC1=CC(=O)C2=CC=CC=C2O1
InChI: InChI=1S/C9H6O3/c10-7-5-9(11)12-8-4-2-1-3-6(7)8/h1-5,11H
Instrument: LTQ Orbitrap XL Thermo Scientific
Instrument type: LC-ESI-ITFT
Ms type: MS2
Ion mode: POSITIVE
Ionization: ESI
Fragmentation mode: HCD
Collision energy: 80% (nominal)
Resolution: 15000
Column name: Kinetex Evo C18 2.6 um 50 x 2.1 mm
Retention time: 8.096 min
Base peak: 116.9858
Precursor m/z: 163.039
Precursor type: [M+H]+
m/z	relative intensity	assigned
65.0385	39	C5H5+
68.997	87	C3HO2+
77.0386	37	C6H5+
79.0543	30	C6H7+
91.0542	282	C7H7+
93.0334	53	C6H5O+
95.0491	129	C6H7O+
107.0488	12	C7H7O+
119.0493	23	C8H7O+
121.0284	999	C7H5O2+
163.0389	297	C9H7O3+
