Mass spectrum: Senecionine; LC-ESI-ITFT; MS2; CE: 65%; R=15000; [M+H]+
Name: Senecionine
Name: (1R,4Z,6R,7R,17R)-4-ethylidene-7-hydroxy-6,7-dimethyl-2,9-dioxa-14-azatricyclo[9.5.1.014,17]heptadec-11-ene-3,8-dione
Formula: C18H25NO5
Exact mass: 335.1733
SMILES: C/C=C\1/C[C@H]([C@@](C(=O)OCC2=CCN3[C@H]2[C@@H](CC3)OC1=O)(C)O)C
InChI: InChI=1S/C18H25NO5/c1-4-12-9-11(2)18(3,22)17(21)23-10-13-5-7-19-8-6-14(15(13)19)24-16(12)20/h4-5,11,14-15,22H,6-10H2,1-3H3/b12-4-/t11-,14-,15-,18-/m1/s1
Instrument: LTQ Orbitrap XL Thermo Scientific
Instrument type: LC-ESI-ITFT
Ms type: MS2
Ion mode: POSITIVE
Ionization: ESI
Fragmentation mode: HCD
Collision energy: 65% (nominal)
Resolution: 15000
Column name: Kinetex Evo C18 2.6 um 50 x 2.1 mm
Retention time: 4.053 min
Base peak: 143.0016
Precursor m/z: 336.1805
Precursor type: [M+H]+
m/z	relative intensity	assigned
67.0542	118	C5H7+
68.0495	64	C4H6N+
77.0387	34	C6H5+
79.0543	70	C6H7+
80.0495	117	C5H6N+
81.0572	22	C5H7N+
81.0699	134	C6H9+
82.0652	108	C5H8N+
83.0493	21	C5H7O+
91.0543	120	C7H7+
92.0494	27	C6H6N+
93.0699	213	C7H9+
94.0652	691	C6H8N+
95.0857	19	C7H11+
96.0808	310	C6H10N+
101.0598	23	C5H9O2+
103.0543	77	C8H7+
105.0698	38	C8H9+
106.0652	17	C7H8N+
107.073	34	C7H9N+
107.0856	153	C8H11+
108.0808	181	C7H10N+
109.0644	24	C7H9O+
109.1013	35	C8H13+
110.0601	37	C6H8NO+
110.0965	117	C7H12N+
118.0652	99	C8H8N+
119.0733	24	C8H9N+
120.0809	999	C8H10N+
121.0886	47	C8H11N+
122.0964	163	C8H12N+
125.0962	146	C8H13O+
135.0803	59	C9H11O+
138.0914	873	C8H12NO+
140.1072	33	C8H14NO+
153.0911	125	C9H13O2+
156.102	38	C8H14NO2+
220.1335	48	C13H18NO2+
308.1858	252	C17H26NO4+
336.1808	234	C18H26NO5+
