Mass spectrum: Senecionine N-oxide; LC-ESI-ITFT; MS2; CE: 75%; R=15000; [M+H]+
Name: Senecionine N-oxide
Name: (1R,4Z,6R,7R,17R)-4-ethylidene-7-hydroxy-6,7-dimethyl-14-oxido-2,9-dioxa-14-azoniatricyclo[9.5.1.014,17]heptadec-11-ene-3,8-dione
Formula: C18H25NO6
Exact mass: 351.1682
SMILES: C/C=C\1/C[C@H]([C@@](C(=O)OCC2=CC[N+]3([C@H]2[C@@H](CC3)OC1=O)[O-])(C)O)C
InChI: InChI=1S/C18H25NO6/c1-4-12-9-11(2)18(3,22)17(21)24-10-13-5-7-19(23)8-6-14(15(13)19)25-16(12)20/h4-5,11,14-15,22H,6-10H2,1-3H3/b12-4-/t11-,14-,15-,18-,19?/m1/s1
Instrument: LTQ Orbitrap XL Thermo Scientific
Instrument type: LC-ESI-ITFT
Ms type: MS2
Ion mode: POSITIVE
Ionization: ESI
Fragmentation mode: HCD
Collision energy: 75% (nominal)
Resolution: 15000
Column name: Kinetex Evo C18 2.6 um 50 x 2.1 mm
Retention time: 5.378 min
Base peak: 352.1755
Precursor m/z: 352.1755
Precursor type: [M+H]+
m/z	relative intensity	assigned
53.0385	19	C4H5+
67.0416	12	C4H5N+
67.0542	33	C5H7+
68.0495	9	C4H6N+
77.0385	11	C6H5+
79.0542	71	C6H7+
80.0495	134	C5H6N+
81.0335	20	C5H5O+
81.0574	23	C5H7N+
81.0699	154	C6H9+
82.0651	28	C5H8N+
83.0491	25	C5H7O+
84.0445	23	C4H6NO+
91.0543	54	C7H7+
92.0497	13	C6H6N+
93.0573	546	C6H7N+
94.0651	999	C6H8N+
95.073	183	C6H9N+
96.0444	14	C5H6NO+
96.0808	18	C6H10N+
98.06	41	C5H8NO+
106.0652	157	C7H8N+
107.0491	9	C7H7O+
107.0729	26	C7H9N+
107.0856	82	C8H11+
108.0808	221	C7H10N+
109.0648	27	C7H9O+
109.0886	34	C7H11N+
109.1012	18	C8H13+
110.0599	20	C6H8NO+
111.0678	21	C6H9NO+
112.0756	41	C6H10NO+
117.0574	28	C8H7N+
118.0651	624	C8H8N+
119.073	342	C8H9N+
120.0808	784	C8H10N+
121.0886	40	C8H11N+
122.0964	97	C8H12N+
124.0756	18	C7H10NO+
125.0962	43	C8H13O+
132.0812	7	C9H10N+
134.0963	15	C9H12N+
135.0806	18	C9H11O+
136.0757	955	C8H10NO+
137.0837	23	C8H11NO+
138.0913	207	C8H12NO+
139.0754	88	C8H11O2+
146.0966	15	C10H12N+
148.1124	23	C10H14N+
152.1069	13	C9H14NO+
153.0909	28	C9H13O2+
154.0863	48	C8H12NO2+
164.1072	13	C10H14NO+
167.1063	17	C10H15O2+
178.1223	26	C11H16NO+
190.1222	8	C12H16NO+
211.1328	10	C12H19O3+
220.1329	16	C13H18NO2+
