Mass spectrum: Gelsemine; LC-ESI-ITFT; MS2; CE: 60%; R=15000; [M+H]+
Name: Gelsemine
Name: (2`S,3S,5`S,6`S,11`S)-2`-ethenyl-4`-methylspiro[1H-indole-3,7`-9-oxa-4-azatetracyclo[6.3.1.02,6.05,11]dodecane]-2-one
Formula: C20H22N2O2
Exact mass: 322.1681
SMILES: CN1C[C@@]2([C@@H]3[C@H]1[C@@H]4C2CC([C@@]35c6ccccc6NC5=O)OC4)C=C
InChI: InChI=1S/C20H22N2O2/c1-3-19-10-22(2)16-11-9-24-15(8-13(11)19)20(17(16)19)12-6-4-5-7-14(12)21-18(20)23/h3-7,11,13,15-17H,1,8-10H2,2H3,(H,21,23)/t11-,13?,15?,16+,17-,19-,20-/m0/s1
Instrument: LTQ Orbitrap XL Thermo Scientific
Instrument type: LC-ESI-ITFT
Ms type: MS2
Ion mode: POSITIVE
Ionization: ESI
Fragmentation mode: HCD
Collision energy: 60% (nominal)
Resolution: 15000
Column name: Kinetex Evo C18 2.6 um 50 x 2.1 mm
Retention time: 1.781 min
Base peak: 323.1753
Precursor m/z: 323.1754
Precursor type: [M+H]+
m/z	relative intensity	assigned
70.0651	999	C4H8N+
86.0601	71	C4H8NO+
88.0757	44	C4H10NO+
91.0542	25	C7H7+
93.0697	7	C7H9+
94.0653	7	C6H8N+
96.081	5	C6H10N+
105.0699	24	C8H9+
108.0808	7	C7H10N+
109.0886	7	C7H11N+
117.0699	104	C9H9+
119.0853	6	C9H11+
120.0807	9	C8H10N+
121.088	4	C8H11N+
122.0962	4	C8H12N+
129.0699	13	C10H9+
130.0656	6	C9H8N+
131.0856	114	C10H11+
132.0444	44	C8H6NO+
134.0598	16	C8H8NO+
134.0964	28	C9H12N+
135.1039	7	C9H13N+
141.0701	6	C11H9+
146.0601	92	C9H8NO+
146.0964	13	C10H12N+
147.1041	9	C10H13N+
148.112	22	C10H14N+
150.0916	7	C9H12NO+
158.0601	72	C10H8NO+
159.0804	55	C11H11O+
160.1118	8	C11H14N+
162.1278	24	C11H16N+
172.0758	13	C11H10NO+
180.0808	5	C13H10N+
183.0678	7	C12H9NO+
184.0757	24	C12H10NO+
190.1224	21	C12H16NO+
191.1306	15	C12H17NO+
195.0679	125	C13H9NO+
196.0757	90	C13H10NO+
208.0759	31	C14H10NO+
208.1116	11	C15H14N+
209.0841	5	C14H11NO+
210.0913	111	C14H12NO+
218.0966	46	C16H12N+
220.0758	5	C15H10NO+
220.1119	6	C16H14N+
222.0918	12	C15H12NO+
233.0833	5	C16H11NO+
234.091	13	C16H12NO+
236.107	525	C16H14NO+
238.1226	99	C16H16NO+
248.1063	14	C17H14NO+
262.1226	22	C18H16NO+
274.1225	13	C19H16NO+
323.1756	338	C20H23N2O2+
