Mass spectrum: Yohimbine; LC-ESI-ITFT; MS2; CE: 45%; R=15000; [M+H]+
Name: Yohimbine
Name: methyl (1S,15R,18S,19R,20S)-18-hydroxy-1,3,11,12,14,15,16,17,18,19,20,21-dodecahydroyohimban-19-carboxylate
Formula: C21H26N2O3
Exact mass: 354.1943
SMILES: COC(=O)[C@H]1[C@H](CC[C@@H]2[C@@H]1C[C@H]3c4c(c5ccccc5[nH]4)CCN3C2)O
InChI: InChI=1S/C21H26N2O3/c1-26-21(25)19-15-10-17-20-14(13-4-2-3-5-16(13)22-20)8-9-23(17)11-12(15)6-7-18(19)24/h2-5,12,15,17-19,22,24H,6-11H2,1H3/t12-,15-,17-,18-,19+/m0/s1
Instrument: LTQ Orbitrap XL Thermo Scientific
Instrument type: LC-ESI-ITFT
Ms type: MS2
Ion mode: POSITIVE
Ionization: ESI
Fragmentation mode: HCD
Collision energy: 45% (nominal)
Resolution: 15000
Column name: Kinetex Evo C18 2.6 um 50 x 2.1 mm
Retention time: 6.501 min
Base peak: 355.2017
Precursor m/z: 355.2016
Precursor type: [M+H]+
m/z	relative intensity	assigned
105.0698	1	C8H9+
106.0649	1	C7H8N+
117.0698	8	C9H9+
130.0651	6	C9H8N+
132.0808	2	C9H10N+
134.0963	10	C9H12N+
144.0807	999	C10H10N+
152.1063	1	C9H14NO+
158.0963	13	C11H12N+
162.0913	12	C10H12NO+
163.0755	2	C10H11O2+
170.0965	1	C12H12N+
177.0911	2	C11H13O2+
180.1019	13	C10H14NO2+
192.1018	4	C11H14NO2+
194.1174	27	C11H16NO2+
198.1118	2	C10H16NO3+
206.1176	3	C12H16NO2+
210.1123	3	C11H16NO3+
212.128	405	C11H18NO3+
220.1129	1	C16H14N+
224.1279	64	C12H18NO3+
226.1436	3	C12H20NO3+
234.1273	1	C17H16N+
246.1282	1	C18H16N+
248.1431	6	C18H18N+
260.1439	4	C19H18N+
266.1539	2	C18H20NO+
276.1388	2	C19H18NO+
278.1545	1	C19H20NO+
288.1382	1	C20H18NO+
294.1486	12	C19H20NO2+
306.1491	6	C20H20NO2+
308.1634	6	C20H22NO2+
312.1593	1	C19H22NO3+
320.1648	4	C21H22NO2+
323.176	1	C20H23N2O2+
324.1597	1	C20H22NO3+
326.1749	11	C20H24NO3+
337.1909	3	C21H25N2O2+
338.1751	10	C21H24NO3+
355.2014	256	C21H27N2O3+
