Mass spectrum: Echimidine; LC-ESI-ITFT; MS2; CE: 40%; R=15000; [M+H]+
Name: Echimidine
Name: [(7R,8R)-7-[(Z)-2-methylbut-2-enoyl]oxy-5,6,7,8-tetrahydro-3H-pyrrolizin-1-yl]methyl (2R)-2,3-dihydroxy-2-[(1S)-1-hydroxyethyl]-3-methylbutanoate
Formula: C20H31NO7
Exact mass: 397.2101
SMILES: C/C=C(/C)\C(=O)O[C@@H]1CCN2[C@@H]1C(=CC2)COC(=O)[C@@]([C@H](C)O)(C(C)(C)O)O
InChI: InChI=1S/C20H31NO7/c1-6-12(2)17(23)28-15-8-10-21-9-7-14(16(15)21)11-27-18(24)20(26,13(3)22)19(4,5)25/h6-7,13,15-16,22,25-26H,8-11H2,1-5H3/b12-6-/t13-,15+,16+,20-/m0/s1
Instrument: LTQ Orbitrap XL Thermo Scientific
Instrument type: LC-ESI-ITFT
Ms type: MS2
Ion mode: POSITIVE
Ionization: ESI
Fragmentation mode: HCD
Collision energy: 40% (nominal)
Resolution: 15000
Column name: Kinetex Evo C18 2.6 um 50 x 2.1 mm
Retention time: 6.481 min
Base peak: 398.2173
Precursor m/z: 398.2173
Precursor type: [M+H]+
m/z	relative intensity	assigned
55.054	67	C4H7+
83.0491	157	C5H7O+
94.0652	4	C6H8N+
108.0805	2	C7H10N+
120.0807	999	C8H10N+
121.0883	4	C8H11N+
138.0913	20	C8H12NO+
156.1012	1	C8H14NO2+
174.1278	10	C12H16N+
202.1225	5	C13H16NO+
220.1331	88	C13H18NO2+
221.141	9	C13H19NO2+
222.1484	3	C13H20NO2+
238.1437	34	C13H20NO3+
254.1385	4	C13H20NO4+
298.1639	1	C15H24NO5+
316.1766	1	C15H26NO6+
336.1804	10	C18H26NO5+
340.1756	3	C17H26NO6+
380.2077	1	C20H30NO6+
398.217	13	C20H32NO7+
