Mass spectrum: Solasodin; LC-ESI-ITFT; MS2; CE: 100%; R=15000; [M+H]+
Name: Solasodin
Name: Solasodine
Name: (1S,2S,4S,5`R,6R,7S,8R,9S,12S,13R,16S)-5`,7,9,13-tetramethylspiro[5-oxapentacyclo[10.8.0.02,9.04,8.013,18]icos-18-ene-6,2`-piperidine]-16-ol
Formula: C27H43NO2
Exact mass: 413.3294
SMILES: C[C@@H]1CC[C@@]2([C@H]([C@H]3[C@@H](O2)C[C@@H]4[C@@]3(CC[C@H]5[C@H]4CC=C6[C@@]5(CC[C@@H](C6)O)C)C)C)NC1
InChI: InChI=1S/C27H43NO2/c1-16-7-12-27(28-15-16)17(2)24-23(30-27)14-22-20-6-5-18-13-19(29)8-10-25(18,3)21(20)9-11-26(22,24)4/h5,16-17,19-24,28-29H,6-15H2,1-4H3/t16-,17+,19+,20-,21+,22+,23+,24+,25+,26+,27-/m1/s1
Instrument: LTQ Orbitrap XL Thermo Scientific
Instrument type: LC-ESI-ITFT
Ms type: MS2
Ion mode: POSITIVE
Ionization: ESI
Fragmentation mode: HCD
Collision energy: 100% (nominal)
Resolution: 15000
Column name: Kinetex Evo C18 2.6 um 50 x 2.1 mm
Retention time: 10.818 min
Base peak: 414.3361
Precursor m/z: 414.3367
Precursor type: [M+H]+
m/z	relative intensity	assigned
55.0541	15	C4H7+
58.065	10	C3H8N+
65.0384	12	C5H5+
67.0542	352	C5H7+
68.0494	22	C4H6N+
69.0698	69	C5H9+
70.0651	487	C4H8N+
77.0386	70	C6H5+
79.0542	481	C6H7+
80.0495	52	C5H6N+
81.0699	394	C6H9+
82.0651	76	C5H8N+
83.0854	8	C6H11+
84.0808	31	C5H10N+
86.0965	23	C5H12N+
91.0542	742	C7H7+
92.0617	10	C7H8+
93.0698	549	C7H9+
94.0651	79	C6H8N+
95.0491	35	C6H7O+
95.0729	67	C6H9N+
95.0855	289	C7H11+
96.0807	89	C6H10N+
98.0964	38	C6H12N+
103.0541	28	C8H7+
105.0698	999	C8H9+
107.0728	17	C7H9N+
107.0855	275	C8H11+
108.0807	96	C7H10N+
109.0649	12	C7H9O+
109.0885	38	C7H11N+
109.1011	122	C8H13+
110.0964	51	C7H12N+
114.0915	12	C6H12NO+
115.0542	86	C9H7+
116.0621	38	C9H8+
117.0698	349	C9H9+
118.0777	38	C9H10+
119.0855	332	C9H11+
120.0806	14	C8H10N+
121.1011	116	C9H13+
122.0963	60	C8H12N+
124.112	239	C8H14N+
125.1197	25	C8H15N+
126.1277	97	C8H16N+
128.062	178	C10H8+
129.0698	404	C10H9+
130.0776	125	C10H10+
131.0855	424	C10H11+
133.1011	326	C10H13+
134.0964	21	C9H12N+
136.1121	46	C9H14N+
138.1278	17	C9H16N+
141.0699	158	C11H9+
142.0777	567	C11H10+
143.0853	270	C11H11+
144.0931	127	C11H12+
145.1011	242	C11H13+
147.1168	212	C11H15+
148.112	101	C10H14N+
149.1199	18	C10H15N+
150.1276	168	C10H16N+
153.0696	28	C12H9+
154.0777	31	C12H10+
155.0855	158	C12H11+
156.093	68	C12H12+
157.1011	459	C12H13+
159.1168	191	C12H15+
162.1279	78	C11H16N+
164.1434	79	C11H18N+
167.0855	64	C13H11+
168.0932	49	C13H12+
169.1012	138	C13H13+
171.1167	90	C13H15+
173.1325	24	C13H17+
176.1433	24	C12H18N+
178.1597	9	C12H20N+
181.1011	81	C14H13+
182.1091	46	C14H14+
183.1168	132	C14H15+
185.1326	23	C14H17+
188.1436	20	C13H18N+
195.1165	40	C15H15+
196.1246	35	C15H16+
197.1326	86	C15H17+
199.1475	15	C15H19+
202.1597	23	C14H20N+
204.1749	24	C14H22N+
209.1326	43	C16H17+
210.1411	12	C16H18+
211.1485	26	C16H19+
212.1562	10	C16H20+
216.1749	12	C15H22N+
223.1479	68	C17H19+
225.1637	9	C17H21+
237.1639	10	C18H21+
238.1716	13	C18H22+
380.2949	15	C26H38NO+
