Mass spectrum: Jacobine; LC-ESI-ITFT; MS2; CE: 40%; R=15000; [M+H]+
Name: Jacobine
Name: (1R,3`S,4S,6R,7R,17R)-7-hydroxy-3`,6,7-trimethylspiro[2,9-dioxa-14-azatricyclo[9.5.1.014,17]heptadec-11-ene-4,2`-oxirane]-3,8-dione
Formula: C18H25NO6
Exact mass: 351.1682
SMILES: C[C@@H]1C[C@]2([C@@H](O2)C)C(=O)O[C@@H]3CCN4[C@@H]3C(=CC4)COC(=O)[C@]1(C)O
InChI: InChI=1S/C18H25NO6/c1-10-8-18(11(2)25-18)16(21)24-13-5-7-19-6-4-12(14(13)19)9-23-15(20)17(10,3)22/h4,10-11,13-14,22H,5-9H2,1-3H3/t10-,11+,13-,14-,17-,18+/m1/s1
Instrument: LTQ Orbitrap XL Thermo Scientific
Instrument type: LC-ESI-ITFT
Ms type: MS2
Ion mode: POSITIVE
Ionization: ESI
Fragmentation mode: HCD
Collision energy: 40% (nominal)
Resolution: 15000
Column name: Kinetex Evo C18 2.6 um 50 x 2.1 mm
Retention time: 1.045 min
Base peak: 352.1754
Precursor m/z: 352.1755
Precursor type: [M+H]+
m/z	relative intensity	assigned
70.0651	11	C4H8N+
79.0543	5	C6H7+
80.0495	42	C5H6N+
93.0699	10	C7H9+
94.0651	19	C6H8N+
97.0649	6	C6H9O+
105.07	5	C8H9+
108.0808	5	C7H10N+
113.0599	7	C6H9O2+
115.0755	12	C6H11O2+
120.0808	183	C8H10N+
122.0964	111	C8H12N+
123.1043	115	C8H13N+
136.0763	5	C8H10NO+
138.0914	20	C8H12NO+
140.107	25	C8H14NO+
146.0966	6	C10H12N+
155.1067	101	C9H15O2+
162.0915	23	C10H12NO+
165.0911	10	C10H13O2+
183.1016	13	C10H15O3+
200.1431	7	C14H18N+
216.1391	10	C14H18NO+
218.1535	9	C14H20NO+
234.1491	35	C14H20NO2+
236.1647	4	C14H22NO2+
262.1439	91	C15H20NO3+
264.1596	28	C15H22NO3+
280.1545	222	C15H22NO4+
308.1495	113	C16H22NO5+
324.1806	13	C17H26NO5+
352.1756	999	C18H26NO6+
