Mass spectrum: Huperzin A; LC-ESI-ITFT; MS2; CE: 75%; R=15000; [M+H]+
Name: Huperzin A
Name: (-)-Huperazine A
Name: (1R,9R,13E)-1-amino-13-ethylidene-11-methyl-6-azatricyclo[7.3.1.02,7]trideca-2(7),3,10-trien-5-one
Formula: C15H18N2O
Exact mass: 242.1419
SMILES: C/C=C/1\[C@@H]2CC3=C([C@]1(CC(=C2)C)N)C=CC(=O)N3
InChI: InChI=1S/C15H18N2O/c1-3-11-10-6-9(2)8-15(11,16)12-4-5-14(18)17-13(12)7-10/h3-6,10H,7-8,16H2,1-2H3,(H,17,18)/b11-3+/t10-,15+/m0/s1
Instrument: LTQ Orbitrap XL Thermo Scientific
Instrument type: LC-ESI-ITFT
Ms type: MS2
Ion mode: POSITIVE
Ionization: ESI
Fragmentation mode: HCD
Collision energy: 75% (nominal)
Resolution: 15000
Column name: Kinetex Evo C18 2.6 um 50 x 2.1 mm
Retention time: 1.529 min
Base peak: 143.0015
Precursor m/z: 243.1492
Precursor type: [M+H]+
m/z	relative intensity	assigned
110.0601	94	C6H8NO+
134.0964	307	C9H12N+
161.0705	68	C9H9N2O+
165.0704	60	C13H9+
166.078	136	C13H10+
168.081	98	C12H10N+
170.0961	69	C12H12N+
181.1009	143	C14H13+
183.1042	57	C13H13N+
184.0757	135	C12H10NO+
187.0865	192	C11H11N2O+
192.0813	66	C14H10N+
193.0888	195	C14H11N+
196.0756	466	C13H10NO+
197.0836	323	C13H11NO+
208.1121	281	C15H14N+
210.0913	999	C14H12NO+
211.0991	230	C14H13NO+
212.1068	86	C14H14NO+
213.1016	89	C13H13N2O+
224.1069	182	C15H14NO+
226.1228	770	C15H16NO+
227.1179	632	C14H15N2O+
228.1256	103	C14H16N2O+
243.1494	288	C15H19N2O+
