Mass spectrum: Galantamine; LC-ESI-ITFT; MS2; CE: 55%; R=15000; [M+H]+
Name: Galantamine
Formula: C17H21NO3
Exact mass: 287.1521
SMILES: CN1CCC23C=CC(CC2OC4=C(C=CC(=C34)C1)OC)O
InChI: InChI=1S/C17H21NO3/c1-18-8-7-17-6-5-12(19)9-14(17)21-16-13(20-2)4-3-11(10-18)15(16)17/h3-6,12,14,19H,7-10H2,1-2H3
Instrument: LTQ Orbitrap XL Thermo Scientific
Instrument type: LC-ESI-ITFT
Ms type: MS2
Ion mode: POSITIVE
Ionization: ESI
Fragmentation mode: HCD
Collision energy: 55 % (nominal)
Resolution: 15000
Column name: Kinetex Evo C18 2.6 um 50 x 2.1 mm
Retention time: 0.589 min
Base peak: 235.2166
Precursor m/z: 288.1594
Precursor type: [M+H]+
m/z	relative intensity	assigned
58.065	7	C3H8N+
91.0542	10	C7H7+
93.07	17	C7H9+
105.0699	5	C8H9+
109.0649	20	C7H9O+
128.0621	3	C10H8+
132.0805	7	C9H10N+
133.0886	6	C9H11N+
134.0966	5	C9H12N+
135.0806	22	C9H11O+
137.0598	8	C8H9O2+
143.0858	10	C11H11+
151.0755	7	C9H11O2+
151.0992	9	C9H13NO+
159.0806	8	C11H11O+
161.0962	26	C11H13O+
162.0681	6	C10H10O2+
163.0759	4	C10H11O2+
166.0777	10	C13H10+
167.0853	7	C13H11+
170.0734	3	C12H10O+
171.0807	13	C12H11O+
175.0756	33	C11H11O2+
175.1117	29	C12H15O+
179.0855	23	C14H11+
181.0645	11	C13H9O+
181.1013	37	C14H13+
182.0727	54	C13H10O+
183.0807	5	C13H11O+
185.0963	45	C13H13O+
187.076	4	C12H11O2+
188.0832	6	C12H12O2+
189.0912	24	C12H13O2+
191.0859	11	C15H11+
194.0727	5	C14H10O+
195.0801	3	C14H11O+
197.0963	48	C14H13O+
198.0676	255	C13H10O2+
199.0755	18	C13H11O2+
203.1068	64	C13H15O2+
207.0807	14	C15H11O+
209.0962	60	C15H13O+
210.068	13	C14H10O2+
213.0911	999	C14H13O2+
224.0837	3	C15H12O2+
225.091	61	C15H13O2+
227.1076	8	C15H15O2+
229.0853	11	C14H13O3+
231.1017	123	C14H15O3+
254.1182	5	C16H16NO2+
255.1257	16	C16H17NO2+
270.1489	17	C17H20NO2+
288.1596	5	C17H22NO3+
