Mass spectrum: Europine; LC-ESI-ITFT; MS2; CE: 60%; R=15000; [M+H]+
Name: Europine
Name: [(7S,8R)-7-hydroxy-5,6,7,8-tetrahydro-3H-pyrrolizin-1-yl]methyl (2R)-2,3-dihydroxy-2-[(1S)-1-methoxyethyl]-3-methylbutanoate
Formula: C16H27NO6
Exact mass: 329.1838
SMILES: C[C@@H]([C@](C(=O)OCC1=CCN2[C@H]1[C@H](CC2)O)(C(C)(C)O)O)OC
InChI: InChI=1S/C16H27NO6/c1-10(22-4)16(21,15(2,3)20)14(19)23-9-11-5-7-17-8-6-12(18)13(11)17/h5,10,12-13,18,20-21H,6-9H2,1-4H3/t10-,12-,13+,16-/m0/s1
Instrument: LTQ Orbitrap XL Thermo Scientific
Instrument type: LC-ESI-ITFT
Ms type: MS2
Ion mode: POSITIVE
Ionization: ESI
Fragmentation mode: HCD
Collision energy: 60% (nominal)
Resolution: 15000
Column name: Kinetex Evo C18 2.6 um 50 x 2.1 mm
Retention time: 1.033 min
Base peak: 143.0014
Precursor m/z: 330.1911
Precursor type: [M+H]+
m/z	relative intensity	assigned
59.049	22	C3H7O+
67.0417	5	C4H5N+
80.0495	8	C5H6N+
82.0652	61	C5H8N+
86.0597	5	C4H8NO+
94.0651	158	C6H8N+
95.073	50	C6H9N+
96.0807	123	C6H10N+
108.0807	36	C7H10N+
109.0644	6	C7H9O+
110.06	21	C6H8NO+
112.0756	4	C6H10NO+
118.0651	5	C8H8N+
120.0808	180	C8H10N+
136.0757	11	C8H10NO+
138.0913	999	C8H12NO+
139.0991	110	C8H13NO+
156.1019	735	C8H14NO2+
240.1231	27	C12H18NO4+
254.1388	36	C13H20NO4+
