Mass spectrum: (-)-Nuciferine; LC-ESI-ITFT; MS2; CE: 90%; R=15000; [M+H]+
Name: (-)-Nuciferine
Name: Nuciferine
Name: (6aR)-1,2-dimethoxy-6-methyl-5,6,6a,7-tetrahydro-4H-dibenzo[de,g]quinoline
Formula: C19H21NO2
Exact mass: 295.1572
SMILES: CN1CCc2cc(c(c-3c2[C@H]1Cc4c3cccc4)OC)OC
InChI: InChI=1S/C19H21NO2/c1-20-9-8-13-11-16(21-2)19(22-3)18-14-7-5-4-6-12(14)10-15(20)17(13)18/h4-7,11,15H,8-10H2,1-3H3/t15-/m1/s1
Instrument: LTQ Orbitrap XL Thermo Scientific
Instrument type: LC-ESI-ITFT
Ms type: MS2
Ion mode: POSITIVE
Ionization: ESI
Fragmentation mode: HCD
Collision energy: 90% (nominal)
Resolution: 15000
Column name: Kinetex Evo C18 2.6 um 50 x 2.1 mm
Retention time: 7.626 min
Base peak: 296.1643
Precursor m/z: 296.1645
Precursor type: [M+H]+
m/z	relative intensity	assigned
128.0622	23	C10H8+
141.0694	5	C11H9+
152.0622	8	C12H8+
153.0703	6	C12H9+
165.0699	135	C13H9+
166.0776	11	C13H10+
167.0856	19	C13H11+
176.0623	6	C14H8+
177.07	41	C14H9+
178.0777	415	C14H10+
179.0855	967	C14H11+
180.0568	6	C13H8O+
180.0926	5	C14H12+
181.0648	13	C13H9O+
189.0699	412	C15H9+
190.0777	234	C15H10+
191.0854	999	C15H11+
192.0578	4	C14H8O+
192.0934	49	C15H12+
193.0647	77	C14H9O+
193.1011	115	C15H13+
194.0723	13	C14H10O+
194.1096	6	C15H14+
195.0802	32	C14H11O+
201.0699	15	C16H9+
202.0776	208	C16H10+
203.0854	453	C16H11+
204.0934	52	C16H12+
205.0646	109	C15H9O+
205.1011	64	C16H13+
206.0727	26	C15H10O+
207.0803	626	C15H11O+
208.0889	7	C15H12O+
214.0782	8	C17H10+
215.0855	29	C17H11+
217.0647	178	C16H9O+
218.0725	154	C16H10O+
219.0803	479	C16H11O+
220.052	6	C15H8O2+
220.0884	27	C16H12O+
221.0595	139	C15H9O2+
221.096	191	C16H13O+
222.104	45	C16H14O+
223.0754	14	C15H11O2+
231.0804	79	C17H11O+
232.0877	9	C17H12O+
233.0594	23	C16H9O2+
233.096	113	C17H13O+
234.0674	12	C16H10O2+
234.1038	140	C17H14O+
235.0751	764	C16H11O2+
249.0908	108	C17H13O2+
250.0987	51	C17H14O2+
265.1224	5	C18H17O2+
