Mass spectrum: Seneciphylline; LC-ESI-ITFT; MS2; CE: 40%; R=15000; [M+H]+
Name: Seneciphylline
Name: (1R,4Z,7R,17R)-4-ethylidene-7-hydroxy-7-methyl-6-methylidene-2,9-dioxa-14-azatricyclo[9.5.1.014,17]heptadec-11-ene-3,8-dione
Formula: C18H23NO5
Exact mass: 333.1576
SMILES: C/C=C\1/CC(=C)[C@@](C(=O)OCC2=CCN3[C@H]2[C@@H](CC3)OC1=O)(C)O
InChI: InChI=1S/C18H23NO5/c1-4-12-9-11(2)18(3,22)17(21)23-10-13-5-7-19-8-6-14(15(13)19)24-16(12)20/h4-5,14-15,22H,2,6-10H2,1,3H3/b12-4-/t14-,15-,18-/m1/s1
Instrument: LTQ Orbitrap XL Thermo Scientific
Instrument type: LC-ESI-ITFT
Ms type: MS2
Ion mode: POSITIVE
Ionization: ESI
Fragmentation mode: HCD
Collision energy: 40% (nominal)
Resolution: 15000
Column name: Kinetex Evo C18 2.6 um 50 x 2.1 mm
Retention time: 2.030 min
Base peak: 143.0015
Precursor m/z: 334.1649
Precursor type: [M+H]+
m/z	relative intensity	assigned
91.0543	2	C7H7+
93.0698	6	C7H9+
94.0651	23	C6H8N+
96.0808	3	C6H10N+
103.0541	3	C8H7+
105.0701	2	C8H9+
108.0811	3	C7H10N+
109.0649	5	C7H9O+
118.0652	2	C8H8N+
120.0808	89	C8H10N+
122.0965	16	C8H12N+
123.0801	4	C8H11O+
138.0914	66	C8H12NO+
151.0755	9	C9H11O2+
288.1594	4	C17H22NO3+
290.1756	5	C17H24NO3+
306.17	63	C17H24NO4+
334.1649	999	C18H24NO5+
