Mass spectrum: 6-beta-Hydroxycortisol; LC-ESI-ITFT; MS2; CE: 65%; R=15000; [M+H]+
Name: 6-beta-Hydroxycortisol
Name: 6beta-Hydroxycortisol
Name: (6R,8S,9S,10R,11S,13S,14S,17R)-6,11,17-trihydroxy-17-(2-hydroxyacetyl)-10,13-dimethyl-2,6,7,8,9,11,12,14,15,16-decahydro-1H-cyclopenta[a]phenanthren-3-one
Formula: C21H30O6
Exact mass: 378.2042
SMILES: C[C@]12C[C@H](O)[C@H]3[C@@H](C[C@@H](O)C4=CC(=O)CC[C@]34C)[C@@H]1CC[C@]2(O)C(=O)CO
InChI: InChI=1S/C21H30O6/c1-19-5-3-11(23)7-14(19)15(24)8-12-13-4-6-21(27,17(26)10-22)20(13,2)9-16(25)18(12)19/h7,12-13,15-16,18,22,24-25,27H,3-6,8-10H2,1-2H3/t12-,13-,15+,16-,18+,19-,20-,21-/m0/s1
Instrument: LTQ Orbitrap XL Thermo Scientific
Instrument type: LC-ESI-ITFT
Ms type: MS2
Ion mode: POSITIVE
Ionization: ESI
Fragmentation mode: CID
Collision energy: 65 % (nominal)
Resolution: 15000
Column name: Kinetex Evo C18 2.6 um 50 x 2.1 mm
Retention time: 6.513 min
Base peak: 379.2118
Precursor m/z: 379.2115
Precursor type: [M+H]+
m/z	relative intensity	assigned
121.0652	7	C8H9O+
143.0861	11	C11H11+
145.1017	11	C11H13+
147.0809	7	C10H11O+
157.1017	7	C12H13+
161.0966	10	C11H13O+
163.1123	8	C11H15O+
175.1116	9	C12H15O+
183.117	10	C14H15+
187.1124	19	C13H15O+
189.0915	16	C12H13O2+
195.1176	16	C15H15+
197.1331	6	C15H17+
199.1119	22	C14H15O+
207.1177	17	C16H15+
209.1332	17	C16H17+
211.1475	8	C16H19+
213.1281	20	C15H17O+
215.107	14	C14H15O2+
217.1231	29	C14H17O2+
219.1171	12	C17H15+
221.1331	37	C17H17+
223.1124	22	C16H15O+
223.1489	16	C17H19+
225.128	30	C16H17O+
227.144	14	C16H19O+
229.1228	26	C15H17O2+
233.1332	7	C18H17+
235.1487	20	C18H19+
237.1279	65	C17H17O+
237.1645	24	C18H21+
239.1435	158	C17H19O+
241.1226	9	C16H17O2+
241.1594	21	C17H21O+
245.133	15	C19H17+
247.1339	18	C15H19O3+
247.1489	79	C19H19+
249.1276	68	C18H17O+
249.1645	32	C19H21+
251.1436	17	C18H19O+
253.1596	24	C18H21O+
255.1385	31	C17H19O2+
255.1753	9	C18H23O+
257.1544	39	C17H21O2+
261.1643	48	C20H21+
263.1438	49	C19H19O+
265.1593	212	C19H21O+
267.1387	54	C18H19O2+
267.1749	169	C19H23O+
269.1542	26	C18H21O2+
269.1905	20	C19H25O+
271.1333	9	C17H19O3+
271.1492	14	C21H19+
277.1595	58	C20H21O+
279.1386	8	C19H19O2+
279.1749	157	C20H23O+
281.1541	41	C19H21O2+
283.1699	301	C19H23O2+
285.1494	12	C18H21O3+
285.1853	118	C19H25O2+
289.1593	142	C21H21O+
295.1698	203	C20H23O2+
297.1855	193	C20H25O2+
299.1646	27	C19H23O3+
301.1802	50	C19H25O3+
303.1959	14	C19H27O3+
307.1699	422	C21H23O2+
313.1804	523	C20H25O3+
315.1962	52	C20H27O3+
317.1747	21	C19H25O4+
325.1804	796	C21H25O3+
331.1909	157	C20H27O4+
343.1908	999	C21H27O4+
349.2018	40	C20H29O5+
361.2013	663	C21H29O5+
