Mass spectrum: Cevadine; LC-ESI-ITFT; MS2; CE: 100%; R=15000; [M+H]+
Name: Cevadine
Name: Veratrine
Name: [(1R,2S,6S,9S,10R,11S,12S,14R,15S,18S,19S,22S,23S,25R)-1,10,11,12,14,23-hexahydroxy-6,10,19-trimethyl-24-oxa-4-azaheptacyclo[12.12.0.02,11.04,9.015,25.018,23.019,25]hexacosan-22-yl] (Z)-2-methylbut-2-enoate
Formula: C32H49NO9
Exact mass: 591.3407
SMILES: C/C=C(/C)\C(=O)O[C@H]1CC[C@]2([C@H]3[C@@]1(O[C@@]24C[C@]5([C@@H]6CN7C[C@H](CC[C@H]7[C@@]([C@]6([C@H](C[C@]5([C@@H]4CC3)O)O)O)(C)O)C)O)O)C
InChI: InChI=1S/C32H49NO9/c1-6-18(3)25(35)41-24-11-12-26(4)19-8-9-20-28(37)13-23(34)31(39)21(29(28,38)16-30(20,26)42-32(19,24)40)15-33-14-17(2)7-10-22(33)27(31,5)36/h6,17,19-24,34,36-40H,7-16H2,1-5H3/b18-6-/t17-,19-,20-,21-,22-,23-,24-,26-,27+,28+,29+,30+,31-,32-/m0/s1
Instrument: LTQ Orbitrap XL Thermo Scientific
Instrument type: LC-ESI-ITFT
Ms type: MS2
Ion mode: POSITIVE
Ionization: ESI
Fragmentation mode: HCD
Collision energy: 100% (nominal)
Resolution: 15000
Column name: Kinetex Evo C18 2.6 um 50 x 2.1 mm
Retention time: 9.296 min
Base peak: 116.9858
Precursor m/z: 592.348
Precursor type: [M+H]+
m/z	relative intensity	assigned
55.0542	95	C4H7+
67.0541	45	C5H7+
68.0494	53	C4H6N+
69.0699	55	C5H9+
70.065	40	C4H8N+
79.0542	84	C6H7+
80.0494	25	C5H6N+
81.0699	104	C6H9+
82.0652	112	C5H8N+
83.0492	126	C5H7O+
84.0808	81	C5H10N+
91.0542	100	C7H7+
93.0698	75	C7H9+
94.065	129	C6H8N+
95.073	35	C6H9N+
95.0858	24	C7H11+
96.0807	325	C6H10N+
98.0964	249	C6H12N+
105.0698	131	C8H9+
106.0649	58	C7H8N+
107.0728	72	C7H9N+
107.0853	43	C8H11+
108.0808	107	C7H10N+
109.0647	59	C7H9O+
109.0885	38	C7H11N+
110.0964	186	C7H12N+
111.1041	20	C7H13N+
112.112	37	C7H14N+
117.0574	39	C8H7N+
117.0699	50	C9H9+
118.0653	52	C8H8N+
119.0728	41	C8H9N+
119.0854	50	C9H11+
120.0807	91	C8H10N+
121.0649	53	C8H9O+
121.0885	51	C8H11N+
122.0602	37	C7H8NO+
122.0964	142	C8H12N+
124.1121	242	C8H14N+
125.1198	66	C8H15N+
126.1277	136	C8H16N+
128.0622	48	C10H8+
129.0698	80	C10H9+
130.0652	23	C9H8N+
131.0728	35	C9H9N+
131.0852	55	C10H11+
132.0807	299	C9H10N+
133.0646	19	C9H9O+
133.0882	53	C9H11N+
133.1011	23	C10H13+
134.0963	129	C9H12N+
135.1039	21	C9H13N+
136.0759	24	C8H10NO+
136.1121	176	C9H14N+
138.1277	999	C9H16N+
141.0702	31	C11H9+
142.0776	41	C11H10+
143.0857	57	C11H11+
144.0805	64	C10H10N+
145.0887	36	C10H11N+
145.101	31	C11H13+
146.0964	245	C10H12N+
147.0804	22	C10H11O+
147.1036	75	C10H13N+
148.0755	45	C9H10NO+
148.112	409	C10H14N+
149.1194	63	C10H15N+
150.0915	26	C9H12NO+
150.1277	281	C10H16N+
152.1069	71	C9H14NO+
154.1227	38	C9H16NO+
155.0851	43	C12H11+
157.1014	21	C12H13+
158.0962	87	C11H12N+
159.0807	27	C11H11O+
159.1042	42	C11H13N+
160.0757	31	C10H10NO+
160.112	294	C11H14N+
161.1196	101	C11H15N+
162.1277	862	C11H16N+
164.1073	80	C10H14NO+
164.1433	658	C11H18N+
165.0696	29	C13H9+
165.1144	17	C10H15NO+
166.1224	29	C10H16NO+
167.0849	37	C13H11+
169.1007	24	C13H13+
171.0802	21	C12H11O+
172.1119	80	C12H14N+
173.1197	42	C12H15N+
174.1277	532	C12H16N+
175.0983	18	C11H13NO+
175.135	73	C12H17N+
176.1069	237	C11H14NO+
176.1434	83	C12H18N+
177.1147	135	C11H15NO+
178.1225	224	C11H16NO+
180.1382	103	C11H18NO+
186.1274	69	C13H16N+
188.1432	801	C13H18N+
190.1225	527	C12H16NO+
190.1589	27	C13H20N+
191.1308	106	C12H17NO+
192.1381	195	C12H18NO+
193.1013	26	C15H13+
193.1458	56	C12H19NO+
197.0962	20	C14H13O+
200.1432	32	C14H18N+
202.1226	40	C13H16NO+
204.1382	127	C13H18NO+
206.1536	86	C13H20NO+
208.1693	94	C13H22NO+
212.1439	30	C15H18N+
216.1377	71	C14H18NO+
228.1385	28	C15H18NO+
234.1486	38	C14H20NO2+
238.1594	38	C17H20N+
244.1322	34	C15H18NO2+
250.1585	29	C18H20N+
266.1543	23	C18H20NO+
290.1889	21	C21H24N+
314.1899	25	C23H24N+
332.2003	26	C23H26NO+
334.2146	27	C20H30O4+
522.0395	35	C32H10O8+
