Mass spectrum: (-)-Nuciferine; LC-ESI-ITFT; MS2; CE: 55%; R=15000; [M+H]+
Name: (-)-Nuciferine
Name: Nuciferine
Name: (6aR)-1,2-dimethoxy-6-methyl-5,6,6a,7-tetrahydro-4H-dibenzo[de,g]quinoline
Formula: C19H21NO2
Exact mass: 295.1572
SMILES: CN1CCc2cc(c(c-3c2[C@H]1Cc4c3cccc4)OC)OC
InChI: InChI=1S/C19H21NO2/c1-20-9-8-13-11-16(21-2)19(22-3)18-14-7-5-4-6-12(14)10-15(20)17(13)18/h4-7,11,15H,8-10H2,1-3H3/t15-/m1/s1
Instrument: LTQ Orbitrap XL Thermo Scientific
Instrument type: LC-ESI-ITFT
Ms type: MS2
Ion mode: POSITIVE
Ionization: ESI
Fragmentation mode: HCD
Collision energy: 55% (nominal)
Resolution: 15000
Column name: Kinetex Evo C18 2.6 um 50 x 2.1 mm
Retention time: 7.654 min
Base peak: 296.1644
Precursor m/z: 296.1645
Precursor type: [M+H]+
m/z	relative intensity	assigned
190.078	15	C15H10+
191.0855	22	C15H11+
202.0779	13	C16H10+
203.0856	45	C16H11+
204.0934	14	C16H12+
205.0646	6	C15H9O+
205.1013	65	C16H13+
206.0725	19	C15H10O+
207.0805	41	C15H11O+
218.0726	80	C16H10O+
219.0805	96	C16H11O+
220.0885	17	C16H12O+
221.0595	39	C15H9O2+
221.0962	106	C16H13O+
222.0671	13	C15H10O2+
222.104	62	C16H14O+
232.0889	13	C17H12O+
233.0961	113	C17H13O+
234.104	799	C17H14O+
235.0753	529	C16H11O2+
235.1118	26	C17H15O+
236.0832	121	C16H12O2+
237.091	15	C16H13O2+
238.0988	21	C16H14O2+
249.0912	50	C17H13O2+
250.0988	999	C17H14O2+
253.1213	8	C17H17O2+
265.1223	931	C18H17O2+
