Mass spectrum: Matairesinol; LC-ESI-ITFT; MS2; CE: 120%; R=15000; [M+H]+
Name: Matairesinol
Formula: C20H22O6
Exact mass: 358.1416
SMILES: COC1=CC(C[C@H]2COC(=O)[C@@H]2CC2=CC=C(O)C(OC)=C2)=CC=C1O
InChI: InChI=1S/C20H22O6/c1-24-18-9-12(3-5-16(18)21)7-14-11-26-20(23)15(14)8-13-4-6-17(22)19(10-13)25-2/h3-6,9-10,14-15,21-22H,7-8,11H2,1-2H3/t14-,15+/m0/s1
Instrument: LTQ Orbitrap XL Thermo Scientific
Instrument type: LC-ESI-ITFT
Ms type: MS2
Ion mode: POSITIVE
Ionization: ESI
Fragmentation mode: HCD
Collision energy: 120 % (nominal)
Resolution: 15000
Column name: Kinetex Evo C18 2.6 um 50 x 2.1 mm
Retention time: 9.337 min
Base peak: 147.0804
Precursor m/z: 359.1489
Precursor type: [M+H]+
m/z	relative intensity	assigned
65.0386	33	C5H5+
66.0464	189	C5H6+
77.0387	129	C6H5+
79.0544	26	C6H7+
81.0699	7	C6H9+
91.0543	64	C7H7+
94.0414	999	C6H6O+
95.0493	18	C6H7O+
102.0465	10	C8H6+
103.0543	276	C8H7+
105.0332	6	C7H5O+
107.0491	14	C7H7O+
115.0543	27	C9H7+
117.0699	15	C9H9+
122.0363	328	C7H6O2+
128.0622	36	C10H8+
131.0492	28	C9H7O+
137.0598	159	C8H9O2+
147.0436	8	C9H7O2+
202.0775	16	C16H10+
