Mass spectrum: (+)-Costunolide; LC-ESI-ITFT; MS2; CE: 85%; R=15000; [M+H]+
Name: (+)-Costunolide
Name: Costunolide
Name: (3aS,6E,10E,11aR)-6,10-dimethyl-3-methylidene-3a,4,5,8,9,11a-hexahydrocyclodeca[b]furan-2-one
Formula: C15H20O2
Exact mass: 232.1463
SMILES: C/C/1=C\CC/C(=C/[C@@H]2[C@@H](CC1)C(=C)C(=O)O2)/C
InChI: InChI=1S/C15H20O2/c1-10-5-4-6-11(2)9-14-13(8-7-10)12(3)15(16)17-14/h5,9,13-14H,3-4,6-8H2,1-2H3/b10-5+,11-9+/t13-,14+/m0/s1
Instrument: LTQ Orbitrap XL Thermo Scientific
Instrument type: LC-ESI-ITFT
Ms type: MS2
Ion mode: POSITIVE
Ionization: ESI
Fragmentation mode: HCD
Collision energy: 85% (nominal)
Resolution: 15000
Column name: Kinetex Evo C18 2.6 um 50 x 2.1 mm
Retention time: 11.752 min
Base peak: 116.9859
Precursor m/z: 233.1536
Precursor type: [M+H]+
m/z	relative intensity	assigned
55.0542	16	C4H7+
67.0543	153	C5H7+
69.0699	61	C5H9+
77.0387	82	C6H5+
79.0543	298	C6H7+
81.0699	411	C6H9+
91.0543	717	C7H7+
93.07	448	C7H9+
95.0856	339	C7H11+
103.0543	35	C8H7+
105.07	999	C8H9+
107.0856	314	C8H11+
109.0649	23	C7H9O+
109.1011	41	C8H13+
115.0544	72	C9H7+
116.0621	71	C9H8+
117.07	360	C9H9+
119.0856	472	C9H11+
121.0649	50	C8H9O+
121.1013	78	C9H13+
128.0618	29	C10H8+
129.07	110	C10H9+
130.0779	115	C10H10+
131.0856	840	C10H11+
132.0933	47	C10H12+
133.0652	18	C9H9O+
133.1013	187	C10H13+
135.0443	24	C8H7O2+
135.0802	16	C9H11O+
141.0699	24	C11H9+
143.0858	145	C11H11+
144.0935	67	C11H12+
145.1013	687	C11H13+
146.1092	27	C11H14+
147.117	53	C11H15+
155.0856	47	C12H11+
157.1013	59	C12H13+
158.1094	26	C12H14+
159.0807	36	C11H11O+
159.117	235	C12H15+
161.1327	70	C12H17+
167.0857	44	C13H11+
172.1249	39	C13H16+
187.1482	154	C14H19+
