Mass spectrum: (-)-Nuciferine; LC-ESI-ITFT; MS2; CE: 65%; R=15000; [M+H]+
Name: (-)-Nuciferine
Name: Nuciferine
Name: (6aR)-1,2-dimethoxy-6-methyl-5,6,6a,7-tetrahydro-4H-dibenzo[de,g]quinoline
Formula: C19H21NO2
Exact mass: 295.1572
SMILES: CN1CCc2cc(c(c-3c2[C@H]1Cc4c3cccc4)OC)OC
InChI: InChI=1S/C19H21NO2/c1-20-9-8-13-11-16(21-2)19(22-3)18-14-7-5-4-6-12(14)10-15(20)17(13)18/h4-7,11,15H,8-10H2,1-3H3/t15-/m1/s1
Instrument: LTQ Orbitrap XL Thermo Scientific
Instrument type: LC-ESI-ITFT
Ms type: MS2
Ion mode: POSITIVE
Ionization: ESI
Fragmentation mode: HCD
Collision energy: 65% (nominal)
Resolution: 15000
Column name: Kinetex Evo C18 2.6 um 50 x 2.1 mm
Retention time: 7.612 min
Base peak: 296.1642
Precursor m/z: 296.1645
Precursor type: [M+H]+
m/z	relative intensity	assigned
128.0621	7	C10H8+
165.07	7	C13H9+
178.0776	16	C14H10+
179.0856	70	C14H11+
189.0699	19	C15H9+
190.0777	57	C15H10+
191.0855	117	C15H11+
192.0934	17	C15H12+
193.0652	8	C14H9O+
193.1011	19	C15H13+
194.0721	4	C14H10O+
194.109	12	C15H14+
195.0802	7	C14H11O+
201.069	2	C16H9+
202.0778	29	C16H10+
203.0855	128	C16H11+
204.0933	34	C16H12+
205.0646	22	C15H9O+
205.1012	90	C16H13+
206.0726	24	C15H10O+
207.0804	168	C15H11O+
208.0883	10	C15H12O+
214.077	4	C17H10+
215.0854	18	C17H11+
217.0649	55	C16H9O+
218.0726	144	C16H10O+
219.0804	293	C16H11O+
220.0884	31	C16H12O+
221.0596	99	C15H9O2+
221.096	201	C16H13O+
222.0677	13	C15H10O2+
222.1039	100	C16H14O+
223.0752	9	C15H11O2+
231.0807	23	C17H11O+
232.0884	31	C17H12O+
233.0961	120	C17H13O+
234.1039	767	C17H14O+
235.0752	999	C16H11O2+
236.0833	73	C16H12O2+
237.0909	9	C16H13O2+
238.0987	16	C16H14O2+
249.091	108	C17H13O2+
250.0987	668	C17H14O2+
265.1222	318	C18H17O2+
