Mass spectrum: Monocrotaline; LC-ESI-ITFT; MS2; CE: 85%; R=15000; [M+H]+
Name: Monocrotaline
Name: (1R,4R,5R,6R,16R)-5,6-dihydroxy-4,5,6-trimethyl-2,8-dioxa-13-azatricyclo[8.5.1.013,16]hexadec-10-ene-3,7-dione
Formula: C16H23NO6
Exact mass: 325.1525
SMILES: C[C@H]1C(=O)O[C@@H]2CCN3[C@@H]2C(=CC3)COC(=O)[C@]([C@]1(C)O)(C)O
InChI: InChI=1S/C16H23NO6/c1-9-13(18)23-11-5-7-17-6-4-10(12(11)17)8-22-14(19)16(3,21)15(9,2)20/h4,9,11-12,20-21H,5-8H2,1-3H3/t9-,11+,12+,15+,16-/m0/s1
Instrument: LTQ Orbitrap XL Thermo Scientific
Instrument type: LC-ESI-ITFT
Ms type: MS2
Ion mode: POSITIVE
Ionization: ESI
Fragmentation mode: HCD
Collision energy: 85% (nominal)
Resolution: 15000
Column name: Kinetex Evo C18 2.6 um 50 x 2.1 mm
Retention time: 0.629 min
Base peak: 326.1597
Precursor m/z: 326.1598
Precursor type: [M+H]+
m/z	relative intensity	assigned
67.0416	117	C4H5N+
67.0542	50	C5H7+
68.0495	83	C4H6N+
69.0573	15	C4H7N+
79.0542	60	C6H7+
80.0495	146	C5H6N+
81.0572	18	C5H7N+
82.0652	82	C5H8N+
86.0602	13	C4H8NO+
91.0542	56	C7H7+
92.0495	15	C6H6N+
93.0574	47	C6H7N+
93.0699	87	C7H9+
94.0652	542	C6H8N+
95.073	303	C6H9N+
96.0808	107	C6H10N+
103.0542	21	C8H7+
106.0651	58	C7H8N+
108.0808	86	C7H10N+
110.0598	19	C6H8NO+
110.0961	27	C7H12N+
118.0653	24	C8H8N+
120.0808	999	C8H10N+
121.0886	316	C8H11N+
122.0965	146	C8H12N+
138.0914	184	C8H12NO+
139.0996	29	C8H13NO+
156.1021	66	C8H14NO2+
184.0966	28	C9H14NO3+
194.1177	65	C11H16NO2+
