Mass spectrum: Tomatidine; LC-ESI-ITFT; MS2; CE: 125%; R=15000; [M+H]+
Name: Tomatidine
Formula: C27H45NO2
Exact mass: 415.3450
SMILES: C[C@H]1[C@H]2[C@H](C[C@H]3[C@@H]4CC[C@H]5C[C@@H](O)CC[C@]5(C)[C@H]4CC[C@]23C)O[C@@]11CC[C@H](C)CN1
InChI: InChI=1S/C27H45NO2/c1-16-7-12-27(28-15-16)17(2)24-23(30-27)14-22-20-6-5-18-13-19(29)8-10-25(18,3)21(20)9-11-26(22,24)4/h16-24,28-29H,5-15H2,1-4H3/t16-,17-,18-,19-,20+,21-,22-,23-,24-,25-,26-,27-/m0/s1
Instrument: LTQ Orbitrap XL Thermo Scientific
Instrument type: LC-ESI-ITFT
Ms type: MS2
Ion mode: POSITIVE
Ionization: ESI
Fragmentation mode: HCD
Collision energy: 125 % (nominal)
Resolution: 15000
Column name: Kinetex Evo C18 2.6 um 50 x 2.1 mm
Retention time: 10.056 min
Base peak: 217.0493
Precursor m/z: 416.3523
Precursor type: [M+H]+
m/z	relative intensity	assigned
65.0386	32	C5H5+
67.0543	217	C5H7+
70.0652	69	C4H8N+
77.0387	292	C6H5+
79.0543	494	C6H7+
80.0495	39	C5H6N+
81.0699	253	C6H9+
82.0652	37	C5H8N+
91.0543	999	C7H7+
93.07	293	C7H9+
94.0652	127	C6H8N+
95.0493	48	C6H7O+
95.0855	92	C7H11+
96.0809	34	C6H10N+
103.0542	61	C8H7+
104.0624	40	C8H8+
105.0699	918	C8H9+
107.0856	77	C8H11+
108.081	74	C7H10N+
109.089	27	C7H11N+
110.0966	51	C7H12N+
115.0544	44	C9H7+
117.07	179	C9H9+
119.0857	306	C9H11+
122.0965	32	C8H12N+
124.1123	31	C8H14N+
129.0703	97	C10H9+
130.0776	34	C10H10+
131.0858	114	C10H11+
133.1014	58	C10H13+
143.0856	39	C11H11+
144.0933	25	C11H12+
145.1008	26	C11H13+
148.1125	54	C10H14N+
150.1281	48	C10H16N+
162.1278	23	C11H16N+
