Mass spectrum: Bergapten/Heraclin; LC-ESI-ITFT; MS2; CE: 75%; R=15000; [M+H]+
Name: Bergapten/Heraclin
Formula: C12H8O4
Exact mass: 216.0423
SMILES: COC1=C2C=COC2=CC2=C1C=CC(=O)O2
InChI: InChI=1S/C12H8O4/c1-14-12-7-2-3-11(13)16-10(7)6-9-8(12)4-5-15-9/h2-6H,1H3
Instrument: LTQ Orbitrap XL Thermo Scientific
Instrument type: LC-ESI-ITFT
Ms type: MS2
Ion mode: POSITIVE
Ionization: ESI
Fragmentation mode: HCD
Collision energy: 75 % (nominal)
Resolution: 15000
Column name: Kinetex Evo C18 2.6 um 50 x 2.1 mm
Retention time: 9.965 min
Base peak: 217.0493
Precursor m/z: 217.0495
Precursor type: [M+H]+
m/z	relative intensity	assigned
89.0385	6	C7H5+
90.0464	38	C7H6+
91.0543	7	C7H7+
102.0465	8	C8H6+
103.0541	4	C8H7+
105.07	16	C8H9+
115.0543	88	C9H7+
117.0696	7	C9H9+
118.0413	125	C8H6O+
130.0412	8	C9H6O+
131.0491	81	C9H7O+
133.0646	9	C9H9O+
143.049	6	C10H7O+
145.0285	4	C9H5O2+
145.0652	4	C10H9O+
146.0363	140	C9H6O2+
156.0207	12	C10H4O2+
158.0361	10	C10H6O2+
161.0598	18	C10H9O2+
173.0596	6	C11H9O2+
174.0312	480	C10H6O3+
202.0261	999	C11H6O4+
217.0495	36	C12H9O4+
