Mass spectrum: Cortisone; LC-ESI-ITFT; MS2; CE: 140%; R=15000; [M+H]+
Name: Cortisone
Name: (8S,9S,10R,13S,14S,17R)-17-hydroxy-17-(2-hydroxyacetyl)-10,13-dimethyl-1,2,6,7,8,9,12,14,15,16-decahydrocyclopenta[a]phenanthrene-3,11-dione
Formula: C21H28O5
Exact mass: 360.1937
SMILES: C[C@]12CC(=O)[C@H]3[C@@H](CCC4=CC(=O)CC[C@]34C)[C@@H]1CC[C@]2(O)C(=O)CO
InChI: InChI=1S/C21H28O5/c1-19-7-5-13(23)9-12(19)3-4-14-15-6-8-21(26,17(25)11-22)20(15,2)10-16(24)18(14)19/h9,14-15,18,22,26H,3-8,10-11H2,1-2H3/t14-,15-,18+,19-,20-,21-/m0/s1
Instrument: LTQ Orbitrap XL Thermo Scientific
Instrument type: LC-ESI-ITFT
Ms type: MS2
Ion mode: POSITIVE
Ionization: ESI
Fragmentation mode: HCD
Collision energy: 140 % (nominal)
Resolution: 15000
Column name: Kinetex Evo C18 2.6 um 50 x 2.1 mm
Retention time: 9.601 min
Base peak: 361.2009
Precursor m/z: 361.201
Precursor type: [M+H]+
m/z	relative intensity	assigned
77.0383	324	C6H5+
78.0461	27	C6H6+
79.054	419	C6H7+
81.0333	18	C5H5O+
81.0697	96	C6H9+
83.049	111	C5H7O+
91.0541	999	C7H7+
92.062	19	C7H8+
93.0697	123	C7H9+
95.0491	97	C6H7O+
97.0648	89	C6H9O+
103.0542	127	C8H7+
104.0619	64	C8H8+
105.0446	577	C6H5N2+
105.0698	377	C8H9+
107.049	104	C7H7O+
107.0856	30	C8H11+
109.0646	16	C7H9O+
115.0541	355	C9H7+
116.062	75	C9H8+
117.0698	162	C9H9+
119.0489	25	C8H7O+
119.0603	19	C7H7N2+
119.0854	60	C9H11+
121.0646	96	C8H9O+
128.0619	362	C10H8+
129.0697	206	C10H9+
130.0775	50	C10H10+
131.049	45	C9H7O+
131.0852	35	C10H11+
132.0566	25	C9H8O+
133.0646	119	C9H9O+
141.0696	186	C11H9+
142.0777	45	C11H10+
143.0852	21	C11H11+
144.0568	21	C10H8O+
145.0647	19	C10H9O+
146.0731	12	C10H10O+
147.0803	226	C10H11O+
148.088	61	C10H12O+
152.0618	68	C12H8+
153.0696	89	C12H9+
154.0774	30	C12H10+
155.0599	82	C10H7N2+
155.0852	65	C12H11+
159.0802	14	C11H11O+
165.0696	146	C13H9+
166.0778	26	C13H10+
167.0855	46	C13H11+
178.0773	62	C14H10+
179.0858	39	C14H11+
181.1015	13	C14H13+
189.0693	17	C15H9+
191.0853	23	C15H11+
