Mass spectrum: Lycorine; LC-ESI-ITFT; MS2; CE: 80%; R=15000; [M+H]+
Name: Lycorine
Name: (1S,17S,18S,19S)-5,7-dioxa-12-azapentacyclo[10.6.1.02,10.04,8.015,19]nonadeca-2,4(8),9,15-tetraene-17,18-diol
Formula: C16H17NO4
Exact mass: 287.1158
SMILES: C1CN2CC3=CC4=C(C=C3[C@H]5[C@H]2C1=C[C@@H]([C@H]5O)O)OCO4
InChI: InChI=1S/C16H17NO4/c18-11-3-8-1-2-17-6-9-4-12-13(21-7-20-12)5-10(9)14(15(8)17)16(11)19/h3-5,11,14-16,18-19H,1-2,6-7H2/t11-,14-,15+,16+/m0/s1
Instrument: LTQ Orbitrap XL Thermo Scientific
Instrument type: LC-ESI-ITFT
Ms type: MS2
Ion mode: POSITIVE
Ionization: ESI
Fragmentation mode: HCD
Collision energy: 80% (nominal)
Resolution: 15000
Column name: Kinetex Evo C18 2.6 um 50 x 2.1 mm
Retention time: 0.623 min
Base peak: 288.1227
Precursor m/z: 288.123
Precursor type: [M+H]+
m/z	relative intensity	assigned
67.054	8	C5H7+
82.0652	41	C5H8N+
83.0492	28	C5H7O+
91.0542	71	C7H7+
95.0491	65	C6H7O+
106.0651	19	C7H8N+
107.0488	6	C7H7O+
110.0597	7	C6H8NO+
111.0679	48	C6H9NO+
112.0757	31	C6H10NO+
119.0491	999	C8H7O+
124.0757	33	C7H10NO+
132.0446	6	C8H6NO+
134.0601	24	C8H8NO+
135.0439	31	C8H7O2+
136.0515	8	C8H8O2+
147.0441	926	C9H7O2+
149.0596	38	C9H9O2+
159.0441	10	C10H7O2+
167.0851	6	C13H11+
177.0546	27	C10H9O3+
183.0812	6	C13H11O+
184.1117	9	C13H14N+
193.0886	7	C14H11N+
194.0965	38	C14H12N+
197.0833	6	C13H11NO+
212.1068	17	C14H14NO+
222.0917	19	C15H12NO+
225.0782	15	C14H11NO2+
226.0853	7	C14H12NO2+
240.1023	6	C15H14NO2+
250.0861	8	C16H12NO2+
270.1128	8	C16H16NO3+
