Mass spectrum: Jacobine; LC-ESI-ITFT; MS2; CE: 100%; R=15000; [M+H]+
Name: Jacobine
Name: (1R,3`S,4S,6R,7R,17R)-7-hydroxy-3`,6,7-trimethylspiro[2,9-dioxa-14-azatricyclo[9.5.1.014,17]heptadec-11-ene-4,2`-oxirane]-3,8-dione
Formula: C18H25NO6
Exact mass: 351.1682
SMILES: C[C@@H]1C[C@]2([C@@H](O2)C)C(=O)O[C@@H]3CCN4[C@@H]3C(=CC4)COC(=O)[C@]1(C)O
InChI: InChI=1S/C18H25NO6/c1-10-8-18(11(2)25-18)16(21)24-13-5-7-19-6-4-12(14(13)19)9-23-15(20)17(10,3)22/h4,10-11,13-14,22H,5-9H2,1-3H3/t10-,11+,13-,14-,17-,18+/m1/s1
Instrument: LTQ Orbitrap XL Thermo Scientific
Instrument type: LC-ESI-ITFT
Ms type: MS2
Ion mode: POSITIVE
Ionization: ESI
Fragmentation mode: HCD
Collision energy: 100% (nominal)
Resolution: 15000
Column name: Kinetex Evo C18 2.6 um 50 x 2.1 mm
Retention time: 1.041 min
Base peak: 143.0015
Precursor m/z: 352.1755
Precursor type: [M+H]+
m/z	relative intensity	assigned
67.0542	335	C5H7+
68.0494	208	C4H6N+
69.0336	118	C4H5O+
69.07	125	C5H9+
70.0651	427	C4H8N+
77.0387	541	C6H5+
79.0543	624	C6H7+
80.0495	735	C5H6N+
81.0573	142	C5H7N+
81.0697	109	C6H9+
82.0653	340	C5H8N+
91.0543	668	C7H7+
93.0573	87	C6H7N+
93.0698	285	C7H9+
94.0652	857	C6H8N+
95.0493	171	C6H7O+
103.0543	153	C8H7+
105.07	179	C8H9+
106.0653	265	C7H8N+
107.073	258	C7H9N+
108.0809	225	C7H10N+
110.0968	183	C7H12N+
118.0653	191	C8H8N+
120.0809	999	C8H10N+
122.0965	255	C8H12N+
