Mass spectrum: Colchicine; LC-ESI-ITFT; MS2; CE: 100%; R=15000; [M+H]+
Name: Colchicine
Name: N-[(7S)-1,2,3,10-tetramethoxy-9-oxo-6,7-dihydro-5H-benzo[a]heptalen-7-yl]acetamide
Formula: C22H25NO6
Exact mass: 399.1682
SMILES: CC(=O)N[C@H]1CCC2=CC(=C(C(=C2C3=CC=C(C(=O)C=C13)OC)OC)OC)OC
InChI: InChI=1S/C22H25NO6/c1-12(24)23-16-8-6-13-10-19(27-3)21(28-4)22(29-5)20(13)14-7-9-18(26-2)17(25)11-15(14)16/h7,9-11,16H,6,8H2,1-5H3,(H,23,24)/t16-/m0/s1
Instrument: LTQ Orbitrap XL Thermo Scientific
Instrument type: LC-ESI-ITFT
Ms type: MS2
Ion mode: POSITIVE
Ionization: ESI
Fragmentation mode: HCD
Collision energy: 100% (nominal)
Resolution: 15000
Column name: Kinetex Evo C18 2.6 um 50 x 2.1 mm
Retention time: 9.276 min
Base peak: 400.1752
Precursor m/z: 400.1755
Precursor type: [M+H]+
m/z	relative intensity	assigned
91.0543	105	C7H7+
115.0543	135	C9H7+
128.062	78	C10H8+
131.0495	100	C9H7O+
133.0523	284	C8H7NO+
137.0597	147	C8H9O2+
141.07	186	C11H9+
145.0646	73	C10H9O+
147.0437	82	C9H7O2+
148.0524	71	C9H8O2+
150.0549	99	C8H8NO2+
152.0622	459	C12H8+
153.07	408	C12H9+
154.078	75	C12H10+
156.0572	92	C11H8O+
160.0756	75	C10H10NO+
161.0592	104	C10H9O2+
165.07	999	C13H9+
166.0781	318	C13H10+
167.0493	99	C12H7O+
167.0855	281	C13H11+
168.057	216	C12H8O+
168.0812	151	C12H10N+
169.0648	439	C12H9O+
171.081	92	C12H11O+
176.062	127	C14H8+
176.0701	79	C10H10NO2+
177.0545	65	C10H9O3+
177.0695	302	C14H9+
178.0777	410	C14H10+
179.0857	303	C14H11+
180.0568	199	C13H8O+
180.0807	129	C13H10N+
181.0648	944	C13H9O+
182.0727	239	C13H10O+
183.0442	112	C12H7O2+
183.0805	203	C13H11O+
184.0521	287	C12H8O2+
184.0753	72	C12H10NO+
184.0879	128	C13H12O+
185.0603	94	C12H9O2+
188.0713	84	C11H10NO2+
189.0699	223	C15H9+
190.0772	147	C15H10+
191.0859	93	C15H11+
192.0567	124	C14H8O+
192.0799	66	C14H10N+
193.0647	300	C14H9O+
194.0727	461	C14H10O+
195.0804	702	C14H11O+
196.0756	227	C13H10NO+
196.0883	351	C14H12O+
197.0596	628	C13H9O2+
197.0835	171	C13H11NO+
198.0674	221	C13H10O2+
199.0753	232	C13H11O2+
205.0647	522	C15H9O+
206.073	248	C15H10O+
207.0674	69	C14H9NO+
207.0804	376	C15H11O+
208.052	276	C14H8O2+
208.0759	99	C14H10NO+
208.0883	178	C15H12O+
209.0595	566	C14H9O2+
209.0839	158	C14H11NO+
209.097	134	C15H13O+
210.0675	224	C14H10O2+
210.0911	96	C14H12NO+
211.0751	331	C14H11O2+
212.046	147	C13H8O3+
212.0708	87	C13H10NO2+
212.0829	230	C14H12O2+
213.0542	144	C13H9O3+
214.0862	110	C13H12NO2+
219.0809	81	C16H11O+
220.0514	157	C15H8O2+
220.0758	209	C15H10NO+
221.0597	440	C15H9O2+
221.0833	193	C15H11NO+
222.0672	283	C15H10O2+
222.0914	105	C15H12NO+
223.0753	458	C15H11O2+
224.0705	143	C14H10NO2+
224.0831	513	C15H12O2+
225.0546	427	C14H9O3+
225.0786	164	C14H11NO2+
225.0915	85	C15H13O2+
226.0625	144	C14H10O3+
226.0867	145	C14H12NO2+
227.0701	299	C14H11O3+
234.0675	121	C16H10O2+
234.0915	140	C16H12NO+
235.0753	333	C16H11O2+
236.0462	104	C15H8O3+
236.0697	158	C15H10NO2+
236.084	125	C16H12O2+
237.0546	445	C15H9O3+
237.0905	172	C16H13O2+
238.0613	69	C15H10O3+
238.0855	148	C15H12NO2+
239.0698	222	C15H11O3+
239.0932	74	C15H13NO2+
240.0781	234	C15H12O3+
242.0822	122	C14H12NO3+
249.0545	97	C16H9O3+
249.0784	173	C16H11NO2+
250.063	111	C16H10O3+
250.0861	196	C16H12NO2+
251.0699	372	C16H11O3+
252.0658	127	C15H10NO3+
252.0787	235	C16H12O3+
252.1015	77	C16H14NO2+
253.0499	167	C15H9O4+
266.0816	101	C16H12NO3+
268.0728	126	C16H12O4+
270.0749	69	C15H12NO4+
