Mass spectrum: Alpinetin; LC-ESI-ITFT; MS2; CE: 85%; R=15000; [M+H]+
Name: Alpinetin
Formula: C16H14O4
Exact mass: 270.0892
SMILES: COC1=C2C(=O)CC(OC2=CC(=C1)O)C3=CC=CC=C3
InChI: InChI=1S/C16H14O4/c1-19-14-7-11(17)8-15-16(14)12(18)9-13(20-15)10-5-3-2-4-6-10/h2-8,13,17H,9H2,1H3
Instrument: LTQ Orbitrap XL Thermo Scientific
Instrument type: LC-ESI-ITFT
Ms type: MS2
Ion mode: POSITIVE
Ionization: ESI
Fragmentation mode: HCD
Collision energy: 85 % (nominal)
Resolution: 15000
Column name: Kinetex Evo C18 2.6 um 50 x 2.1 mm
Retention time: 10.247 min
Base peak: 271.0964
Precursor m/z: 271.0965
Precursor type: [M+H]+
m/z	relative intensity	assigned
50.015	5	C4H2+
53.0385	15	C4H5+
55.0178	4	C3H3O+
65.0385	9	C5H5+
67.0178	11	C4H3O+
68.0256	9	C4H4O+
68.9971	117	C3HO2+
69.0335	13	C4H5O+
71.0128	9	C3H3O2+
71.0491	3	C4H7O+
77.0385	17	C6H5+
78.0101	9	C5H2O+
79.0178	9	C5H3O+
79.0543	17	C6H7+
81.0335	33	C5H5O+
83.0491	7	C5H7O+
91.0542	36	C7H7+
93.0334	6	C6H5O+
95.0491	4	C6H7O+
96.0205	34	C5H4O2+
97.0285	15	C5H5O2+
99.0441	29	C5H7O2+
103.0542	359	C8H7+
107.0492	4	C7H7O+
109.0284	15	C6H5O2+
111.044	49	C6H7O2+
121.0285	8	C7H5O2+
124.0154	378	C6H4O3+
125.023	3	C6H5O3+
127.039	6	C6H7O3+
131.0491	82	C9H7O+
137.0231	17	C7H5O3+
139.039	20	C7H7O3+
141.0695	5	C11H9+
152.0104	385	C7H4O4+
167.0338	999	C8H7O4+
