Mass spectrum: Conessine; LC-ESI-ITFT; MS2; CE: 70%; R=15000; [M+H]+
Name: Conessine
Formula: C24H40N2
Exact mass: 356.3191
SMILES: C[C@H]1[C@H]2CC[C@H]3[C@@H]4CC=C5C[C@H](CC[C@]5(C)[C@H]4CC[C@]23CN1C)N(C)C
InChI: InChI=1S/C24H40N2/c1-16-20-8-9-22-19-7-6-17-14-18(25(3)4)10-12-23(17,2)21(19)11-13-24(20,22)15-26(16)5/h6,16,18-22H,7-15H2,1-5H3/t16-,18-,19+,20+,21-,22-,23-,24-/m0/s1
Instrument: LTQ Orbitrap XL Thermo Scientific
Instrument type: LC-ESI-ITFT
Ms type: MS2
Ion mode: POSITIVE
Ionization: ESI
Fragmentation mode: CID
Collision energy: 70 % (nominal)
Resolution: 15000
Column name: Kinetex Evo C18 2.6 um 50 x 2.1 mm
Retention time: 5.420 min
Base peak: 179.1667
Precursor m/z: 357.3264
Precursor type: [M+H]+
m/z	relative intensity	assigned
105.0699	12	C8H9+
107.0855	3	C8H11+
109.1013	2	C8H13+
115.0543	3	C9H7+
117.0699	12	C9H9+
119.0856	19	C9H11+
121.1012	5	C9H13+
123.1169	2	C9H15+
128.062	3	C10H8+
129.07	9	C10H9+
130.0778	2	C10H10+
131.0856	32	C10H11+
133.1012	23	C10H13+
135.117	12	C10H15+
142.0778	2	C11H10+
143.0856	8	C11H11+
144.0931	3	C11H12+
145.1012	38	C11H13+
147.1169	58	C11H15+
149.1325	5	C11H17+
155.0851	1	C12H11+
157.1013	14	C12H13+
159.1169	129	C12H15+
161.1326	107	C12H17+
163.148	1	C12H19+
169.1016	2	C13H13+
171.117	13	C13H15+
173.1326	66	C13H17+
175.1482	9	C13H19+
183.1169	2	C14H15+
185.1326	16	C14H17+
187.1482	75	C14H19+
189.1643	2	C14H21+
197.1325	1	C15H17+
199.1481	22	C15H19+
200.1561	2	C15H20+
201.1638	11	C15H21+
211.1485	5	C16H19+
213.1638	20	C16H21+
225.1636	4	C17H21+
227.1795	17	C17H23+
239.179	2	C18H23+
240.1876	4	C18H24+
241.1956	3	C18H25+
269.2264	175	C20H29+
273.245	1	C19H31N+
281.2261	3	C21H29+
298.2524	3	C21H32N+
299.2611	8	C21H33N+
312.2686	999	C22H34N+
326.2839	4	C23H36N+
