Mass spectrum: Lycopsamine N-oxide; LC-ESI-ITFT; MS2; CE: 70%; R=15000; [M+H]+
Name: Lycopsamine N-oxide
Name: [(7R,8R)-7-hydroxy-4-oxido-5,6,7,8-tetrahydro-3H-pyrrolizin-4-ium-1-yl]methyl (2S)-2-hydroxy-2-[(1S)-1-hydroxyethyl]-3-methylbutanoate
Formula: C15H25NO6
Exact mass: 315.1682
SMILES: C[C@@H]([C@@](C(C)C)(C(=O)OCC1=CC[N+]2([C@H]1[C@@H](CC2)O)[O-])O)O
InChI: InChI=1S/C15H25NO6/c1-9(2)15(20,10(3)17)14(19)22-8-11-4-6-16(21)7-5-12(18)13(11)16/h4,9-10,12-13,17-18,20H,5-8H2,1-3H3/t10-,12+,13+,15-,16?/m0/s1
Instrument: LTQ Orbitrap XL Thermo Scientific
Instrument type: LC-ESI-ITFT
Ms type: MS2
Ion mode: POSITIVE
Ionization: ESI
Fragmentation mode: HCD
Collision energy: 70% (nominal)
Resolution: 15000
Column name: Kinetex Evo C18 2.6 um 50 x 2.1 mm
Retention time: 1.287 min
Base peak: 143.0014
Precursor m/z: 316.1755
Precursor type: [M+H]+
m/z	relative intensity	assigned
55.0541	6	C4H7+
67.0543	19	C5H7+
68.0494	23	C4H6N+
70.0652	5	C4H8N+
73.0648	17	C4H9O+
79.0542	9	C6H7+
80.0495	56	C5H6N+
81.0574	6	C5H7N+
81.0699	20	C6H9+
82.0413	48	C5H6O+
82.0651	35	C5H8N+
83.0492	67	C5H7O+
91.0541	5	C7H7+
92.0494	4	C6H6N+
93.0573	294	C6H7N+
94.0651	398	C6H8N+
95.0489	4	C6H7O+
95.0729	15	C6H9N+
96.0444	16	C5H6NO+
96.0806	11	C6H10N+
98.06	38	C5H8NO+
102.0549	29	C4H8NO2+
106.0651	33	C7H8N+
108.0807	54	C7H10N+
109.0649	15	C7H9O+
109.0884	11	C7H11N+
110.0599	32	C6H8NO+
111.0679	272	C6H9NO+
112.0757	42	C6H10NO+
118.0649	9	C8H8N+
120.0806	8	C8H10N+
124.0759	15	C7H10NO+
126.0913	14	C7H12NO+
128.0707	17	C6H10NO2+
136.0757	189	C8H10NO+
137.0836	69	C8H11NO+
138.0913	640	C8H12NO+
140.071	13	C7H10NO2+
154.0863	71	C8H12NO2+
155.0941	127	C8H13NO2+
172.0969	999	C8H14NO3+
226.1437	5	C12H20NO3+
316.1755	36	C15H26NO6+
