Mass spectrum: Intermedine N-oxide; LC-ESI-ITFT; MS2; CE: 95%; R=15000; [M+H]+
Name: Intermedine N-oxide
Name: [(7R,8R)-7-hydroxy-4-oxido-5,6,7,8-tetrahydro-3H-pyrrolizin-4-ium-1-yl]methyl (2S)-2-hydroxy-2-[(1R)-1-hydroxyethyl]-3-methylbutanoate
Formula: C15H25NO6
Exact mass: 315.1682
SMILES: C[C@H]([C@@](C(C)C)(C(=O)OCC1=CC[N+]2([C@H]1[C@@H](CC2)O)[O-])O)O
InChI: InChI=1S/C15H25NO6/c1-9(2)15(20,10(3)17)14(19)22-8-11-4-6-16(21)7-5-12(18)13(11)16/h4,9-10,12-13,17-18,20H,5-8H2,1-3H3/t10-,12-,13-,15+,16?/m1/s1
Instrument: LTQ Orbitrap XL Thermo Scientific
Instrument type: LC-ESI-ITFT
Ms type: MS2
Ion mode: POSITIVE
Ionization: ESI
Fragmentation mode: HCD
Collision energy: 95% (nominal)
Resolution: 15000
Column name: Kinetex Evo C18 2.6 um 50 x 2.1 mm
Retention time: 1.194 min
Base peak: 143.0016
Precursor m/z: 316.1755
Precursor type: [M+H]+
m/z	relative intensity	assigned
66.0467	10	C5H6+
67.0417	25	C4H5N+
67.0543	49	C5H7+
68.0495	78	C4H6N+
70.065	9	C4H8N+
73.0649	20	C4H9O+
79.0542	17	C6H7+
80.0495	396	C5H6N+
81.0574	27	C5H7N+
81.0699	27	C6H9+
82.0414	51	C5H6O+
82.0652	76	C5H8N+
83.0492	82	C5H7O+
92.0495	16	C6H6N+
93.0573	555	C6H7N+
94.0652	999	C6H8N+
95.0733	20	C6H9N+
96.0445	34	C5H6NO+
96.0809	30	C6H10N+
98.0601	34	C5H8NO+
102.0551	60	C4H8NO2+
106.0652	95	C7H8N+
108.0808	98	C7H10N+
109.0646	15	C7H9O+
110.06	70	C6H8NO+
111.0679	773	C6H9NO+
112.0756	32	C6H10NO+
118.0651	18	C8H8N+
124.0758	26	C7H10NO+
128.0704	42	C6H10NO2+
136.0758	152	C8H10NO+
137.0835	42	C8H11NO+
138.0914	225	C8H12NO+
140.071	18	C7H10NO2+
154.0865	39	C8H12NO2+
155.0941	59	C8H13NO2+
172.0969	295	C8H14NO3+
