Mass spectrum: Pterosin B; LC-ESI-ITFT; MS2; CE: 120%; R=15000; [M+H]+
Name: Pterosin B
Name: (2R)-6-(2-hydroxyethyl)-2,5,7-trimethyl-2,3-dihydroinden-1-one
Formula: C14H18O2
Exact mass: 218.1307
SMILES: C[C@@H]1CC2=C(C1=O)C(=C(C(=C2)C)CCO)C
InChI: InChI=1S/C14H18O2/c1-8-6-11-7-9(2)14(16)13(11)10(3)12(8)4-5-15/h6,9,15H,4-5,7H2,1-3H3/t9-/m1/s1
Instrument: LTQ Orbitrap XL Thermo Scientific
Instrument type: LC-ESI-ITFT
Ms type: MS2
Ion mode: POSITIVE
Ionization: ESI
Fragmentation mode: HCD
Collision energy: 120 % (nominal)
Resolution: 15000
Column name: Kinetex Evo C18 2.6 um 50 x 2.1 mm
Retention time: 10.329 min
Base peak: 149.0117
Precursor m/z: 219.138
Precursor type: [M+H]+
m/z	relative intensity	assigned
67.0541	14	C5H7+
77.0384	59	C6H5+
79.0541	83	C6H7+
91.054	531	C7H7+
93.0697	15	C7H9+
103.054	81	C8H7+
104.0617	11	C8H8+
105.0696	524	C8H9+
115.054	436	C9H7+
116.0618	160	C9H8+
117.0696	234	C9H9+
119.0853	117	C9H11+
127.054	27	C10H7+
128.0618	999	C10H8+
129.0696	861	C10H9+
130.0774	429	C10H10+
131.0489	18	C9H7O+
131.0852	144	C10H11+
132.093	21	C10H12+
133.101	28	C10H13+
141.0696	361	C11H9+
142.0774	198	C11H10+
143.0852	599	C11H11+
144.0565	57	C10H8O+
144.0931	48	C11H12+
145.0644	76	C10H9O+
145.1009	280	C11H13+
152.0618	153	C12H8+
153.0696	404	C12H9+
154.0776	35	C12H10+
155.0853	171	C12H11+
156.0929	47	C12H12+
157.0645	133	C11H9O+
157.1009	49	C12H13+
158.0723	275	C11H10O+
158.1084	20	C12H14+
159.0801	243	C11H11O+
165.0696	51	C13H9+
166.0775	20	C13H10+
167.0852	169	C13H11+
168.0928	43	C13H12+
169.1006	15	C13H13+
170.0727	12	C12H10O+
171.0801	357	C12H11O+
172.0875	24	C12H12O+
173.0957	335	C12H13O+
185.0955	46	C13H13O+
186.104	26	C13H14O+
187.111	13	C13H15O+
