Mass spectrum: Intermedine N-oxide; LC-ESI-ITFT; MS2; CE: 80%; R=15000; [M+H]+
Name: Intermedine N-oxide
Name: [(7R,8R)-7-hydroxy-4-oxido-5,6,7,8-tetrahydro-3H-pyrrolizin-4-ium-1-yl]methyl (2S)-2-hydroxy-2-[(1R)-1-hydroxyethyl]-3-methylbutanoate
Formula: C15H25NO6
Exact mass: 315.1682
SMILES: C[C@H]([C@@](C(C)C)(C(=O)OCC1=CC[N+]2([C@H]1[C@@H](CC2)O)[O-])O)O
InChI: InChI=1S/C15H25NO6/c1-9(2)15(20,10(3)17)14(19)22-8-11-4-6-16(21)7-5-12(18)13(11)16/h4,9-10,12-13,17-18,20H,5-8H2,1-3H3/t10-,12-,13-,15+,16?/m1/s1
Instrument: LTQ Orbitrap XL Thermo Scientific
Instrument type: LC-ESI-ITFT
Ms type: MS2
Ion mode: POSITIVE
Ionization: ESI
Fragmentation mode: HCD
Collision energy: 80% (nominal)
Resolution: 15000
Column name: Kinetex Evo C18 2.6 um 50 x 2.1 mm
Retention time: 1.205 min
Base peak: 143.0015
Precursor m/z: 316.1755
Precursor type: [M+H]+
m/z	relative intensity	assigned
67.0541	31	C5H7+
68.0493	46	C4H6N+
73.0647	29	C4H9O+
80.0495	165	C5H6N+
81.0575	22	C5H7N+
81.0699	17	C6H9+
82.0414	63	C5H6O+
82.0651	60	C5H8N+
83.0491	95	C5H7O+
93.0573	505	C6H7N+
94.0651	922	C6H8N+
95.0732	20	C6H9N+
96.0442	16	C5H6NO+
96.081	27	C6H10N+
98.0601	48	C5H8NO+
102.0549	46	C4H8NO2+
106.0652	80	C7H8N+
108.0808	108	C7H10N+
109.0647	18	C7H9O+
110.0602	54	C6H8NO+
111.0678	734	C6H9NO+
112.0757	41	C6H10NO+
124.0756	24	C7H10NO+
128.0705	46	C6H10NO2+
136.0756	252	C8H10NO+
137.0835	92	C8H11NO+
138.0913	596	C8H12NO+
154.0862	83	C8H12NO2+
155.0941	143	C8H13NO2+
172.0968	999	C8H14NO3+
