Mass spectrum: Senecionine; LC-ESI-ITFT; MS2; CE: 60%; R=15000; [M+H]+
Name: Senecionine
Name: (1R,4Z,6R,7R,17R)-4-ethylidene-7-hydroxy-6,7-dimethyl-2,9-dioxa-14-azatricyclo[9.5.1.014,17]heptadec-11-ene-3,8-dione
Formula: C18H25NO5
Exact mass: 335.1733
SMILES: C/C=C\1/C[C@H]([C@@](C(=O)OCC2=CCN3[C@H]2[C@@H](CC3)OC1=O)(C)O)C
InChI: InChI=1S/C18H25NO5/c1-4-12-9-11(2)18(3,22)17(21)23-10-13-5-7-19-8-6-14(15(13)19)24-16(12)20/h4-5,11,14-15,22H,6-10H2,1-3H3/b12-4-/t11-,14-,15-,18-/m1/s1
Instrument: LTQ Orbitrap XL Thermo Scientific
Instrument type: LC-ESI-ITFT
Ms type: MS2
Ion mode: POSITIVE
Ionization: ESI
Fragmentation mode: HCD
Collision energy: 60% (nominal)
Resolution: 15000
Column name: Kinetex Evo C18 2.6 um 50 x 2.1 mm
Retention time: 4.053 min
Base peak: 143.0016
Precursor m/z: 336.1805
Precursor type: [M+H]+
m/z	relative intensity	assigned
67.0542	66	C5H7+
68.0494	41	C4H6N+
77.0387	18	C6H5+
79.0543	56	C6H7+
80.0495	96	C5H6N+
81.0575	18	C5H7N+
81.07	87	C6H9+
82.0652	75	C5H8N+
83.0492	24	C5H7O+
91.0543	82	C7H7+
92.0494	21	C6H6N+
93.07	161	C7H9+
94.0652	544	C6H8N+
95.0855	14	C7H11+
96.0809	217	C6H10N+
101.06	13	C5H9O2+
103.0543	62	C8H7+
105.0698	29	C8H9+
107.073	21	C7H9N+
107.0855	111	C8H11+
108.0808	138	C7H10N+
109.065	28	C7H9O+
109.1011	29	C8H13+
110.0601	21	C6H8NO+
110.0965	88	C7H12N+
118.0653	70	C8H8N+
119.0733	13	C8H9N+
120.0809	999	C8H10N+
121.0886	39	C8H11N+
122.0965	145	C8H12N+
125.0961	110	C8H13O+
135.0806	53	C9H11O+
138.0915	904	C8H12NO+
140.1074	26	C8H14NO+
153.0911	151	C9H13O2+
156.1015	30	C8H14NO2+
220.1335	52	C13H18NO2+
308.1858	332	C17H26NO4+
336.1808	633	C18H26NO5+
