Mass spectrum: Pterosin A; LC-ESI-ITFT; MS2; CE: 65%; R=15000; [M+H]+
Name: Pterosin A
Name: (2S)-6-(2-hydroxyethyl)-2-(hydroxymethyl)-2,5,7-trimethyl-3H-inden-1-one
Formula: C15H20O3
Exact mass: 248.1412
SMILES: CC1=CC2=C(C(=C1CCO)C)C(=O)[C@](C2)(C)CO
InChI: InChI=1S/C15H20O3/c1-9-6-11-7-15(3,8-17)14(18)13(11)10(2)12(9)4-5-16/h6,16-17H,4-5,7-8H2,1-3H3/t15-/m0/s1
Instrument: LTQ Orbitrap XL Thermo Scientific
Instrument type: LC-ESI-ITFT
Ms type: MS2
Ion mode: POSITIVE
Ionization: ESI
Fragmentation mode: CID
Collision energy: 65 % (nominal)
Resolution: 15000
Column name: Kinetex Evo C18 2.6 um 50x2.1 mm, Phenomenex
Retention time: 9.228 min
Base peak: 249.1476
Precursor m/z: 249.1485
Precursor type: [M+H]+
m/z	relative intensity	assigned
171.1166	1	C13H15+
185.1324	29	C14H17+
201.1273	52	C14H17O+
203.1428	688	C14H19O+
213.1271	48	C15H17O+
231.1376	999	C15H19O2+
