Mass spectrum: Galantamine; LC-ESI-ITFT; MS2; CE: 90%; R=15000; [M+H]+
Name: Galantamine
Formula: C17H21NO3
Exact mass: 287.1521
SMILES: CN1CCC23C=CC(CC2OC4=C(C=CC(=C34)C1)OC)O
InChI: InChI=1S/C17H21NO3/c1-18-8-7-17-6-5-12(19)9-14(17)21-16-13(20-2)4-3-11(10-18)15(16)17/h3-6,12,14,19H,7-10H2,1-2H3
Instrument: LTQ Orbitrap XL Thermo Scientific
Instrument type: LC-ESI-ITFT
Ms type: MS2
Ion mode: POSITIVE
Ionization: ESI
Fragmentation mode: HCD
Collision energy: 90 % (nominal)
Resolution: 15000
Column name: Kinetex Evo C18 2.6 um 50 x 2.1 mm
Retention time: 0.609 min
Base peak: 249.1957
Precursor m/z: 288.1594
Precursor type: [M+H]+
m/z	relative intensity	assigned
58.065	7	C3H8N+
77.0386	24	C6H5+
79.0542	18	C6H7+
81.0335	13	C5H5O+
81.0698	6	C6H9+
91.0542	73	C7H7+
93.0699	12	C7H9+
94.0412	9	C6H6O+
94.0652	8	C6H8N+
103.0541	23	C8H7+
105.0699	105	C8H9+
107.0493	16	C7H7O+
108.0572	7	C7H8O+
109.0648	16	C7H9O+
115.0542	32	C9H7+
117.0699	25	C9H9+
119.0858	5	C9H11+
121.0648	28	C8H9O+
122.0723	6	C8H10O+
123.0807	9	C8H11O+
128.0621	94	C10H8+
129.0699	52	C10H9+
131.0491	23	C9H7O+
131.0854	12	C10H11+
132.0809	10	C9H10N+
133.0649	9	C9H9O+
134.0968	13	C9H12N+
135.0805	91	C9H11O+
136.052	5	C8H8O2+
141.0699	90	C11H9+
142.0777	108	C11H10+
143.0855	31	C11H11+
144.057	26	C10H8O+
145.0648	60	C10H9O+
146.0726	45	C10H10O+
147.0798	6	C10H11O+
148.0519	14	C9H8O2+
151.0756	8	C9H11O2+
152.0621	84	C12H8+
153.0699	113	C12H9+
154.0775	31	C12H10+
155.0492	130	C11H7O+
155.0853	32	C12H11+
157.0648	19	C11H9O+
158.0725	24	C11H10O+
159.0804	37	C11H11O+
160.0523	7	C10H8O2+
160.0882	45	C11H12O+
161.0597	21	C10H9O2+
161.0961	20	C11H13O+
162.068	14	C10H10O2+
165.07	104	C13H9+
166.0776	74	C13H10+
167.0857	25	C13H11+
168.0569	42	C12H8O+
169.0649	254	C12H9O+
170.0727	208	C12H10O+
172.088	6	C12H12O+
173.0599	17	C11H9O2+
174.0677	11	C11H10O2+
175.0754	51	C11H11O2+
175.1125	12	C12H15O+
178.0779	23	C14H10+
179.0854	40	C14H11+
180.0569	11	C13H8O+
181.0648	271	C13H9O+
182.0727	303	C13H10O+
183.0441	573	C12H7O2+
185.0961	88	C13H13O+
187.0751	10	C12H11O2+
188.0835	22	C12H12O2+
189.0699	12	C15H9+
189.0915	6	C12H13O2+
190.0775	14	C15H10+
194.0727	21	C14H10O+
195.0805	20	C14H11O+
197.0597	125	C13H9O2+
197.0965	12	C14H13O+
198.0675	999	C13H10O2+
203.1071	7	C13H15O2+
207.0798	7	C15H11O+
210.0672	23	C14H10O2+
211.0756	12	C14H11O2+
213.0911	124	C14H13O2+
214.0622	9	C13H10O3+
225.0909	5	C15H13O2+
