Mass spectrum: Erucifoline N-oxide; LC-ESI-ITFT; MS2; CE: 95%; R=15000; [M+H]+
Name: Erucifoline N-oxide
Name: (5R,7S,9Z,12R,18R)-9-ethylidene-7-(hydroxymethyl)-5-methyl-15-oxido-3,6,11-trioxa-15-azoniatetracyclo[10.5.1.05,7.015,18]octadec-1(17)-ene-4,10-dione
Formula: C18H23NO7
Exact mass: 365.1475
SMILES: C/C=C\1/C[C@@]2([C@@](O2)(C(=O)OCC3=CC[N+]4([C@H]3[C@@H](CC4)OC1=O)[O-])C)CO
InChI: InChI=1S/C18H23NO7/c1-3-11-8-18(10-20)17(2,26-18)16(22)24-9-12-4-6-19(23)7-5-13(14(12)19)25-15(11)21/h3-4,13-14,20H,5-10H2,1-2H3/b11-3-/t13-,14-,17+,18+,19?/m1/s1
Instrument: LTQ Orbitrap XL Thermo Scientific
Instrument type: LC-ESI-ITFT
Ms type: MS2
Ion mode: POSITIVE
Ionization: ESI
Fragmentation mode: HCD
Collision energy: 95% (nominal)
Resolution: 15000
Column name: Kinetex Evo C18 2.6 um 50 x 2.1 mm
Retention time: 1.123 min
Base peak: 366.1545
Precursor m/z: 366.1547
Precursor type: [M+H]+
m/z	relative intensity	assigned
53.0385	19	C4H5+
65.0385	14	C5H5+
66.0465	21	C5H6+
67.0417	19	C4H5N+
67.0543	58	C5H7+
68.0494	10	C4H6N+
69.0335	8	C4H5O+
77.0386	31	C6H5+
79.0543	65	C6H7+
80.0496	184	C5H6N+
81.0337	23	C5H5O+
81.0575	21	C5H7N+
81.0699	35	C6H9+
82.0652	18	C5H8N+
83.0492	17	C5H7O+
84.0445	8	C4H6NO+
91.0543	98	C7H7+
92.0495	43	C6H6N+
93.0574	317	C6H7N+
93.0699	23	C7H9+
94.0652	999	C6H8N+
95.0493	20	C6H7O+
95.073	19	C6H9N+
95.0854	6	C7H11+
96.0446	9	C5H6NO+
97.0647	10	C6H9O+
98.06	10	C5H8NO+
103.0544	17	C8H7+
105.07	14	C8H9+
106.0652	96	C7H8N+
107.073	20	C7H9N+
108.0442	15	C6H6NO+
108.0808	152	C7H10N+
109.0649	53	C7H9O+
110.0596	11	C6H8NO+
111.0442	14	C6H7O2+
117.0575	57	C8H7N+
118.0652	497	C8H8N+
119.073	155	C8H9N+
120.0809	317	C8H10N+
121.0652	9	C8H9O+
122.097	11	C8H12N+
123.0441	14	C7H7O2+
125.0597	10	C7H9O2+
131.0735	8	C9H9N+
132.0811	12	C9H10N+
134.0965	12	C9H12N+
136.0758	284	C8H10NO+
138.0917	11	C8H12NO+
139.0752	8	C8H11O2+
144.0811	17	C10H10N+
146.0962	16	C10H12N+
164.1065	9	C10H14NO+
172.1126	9	C12H14N+
