Mass spectrum: Atropine; LC-ESI-ITFT; MS2; CE: 105%; R=15000; [M+H]+
Name: Atropine
Formula: C17H23NO3
Exact mass: 289.1678
SMILES: CN1[C@@H]2CC[C@H]1C[C@H](C2)OC(=O)C(CO)c3ccccc3
InChI: InChI=1S/C17H23NO3/c1-18-13-7-8-14(18)10-15(9-13)21-17(20)16(11-19)12-5-3-2-4-6-12/h2-6,13-16,19H,7-11H2,1H3/t13-,14+,15+,16?
Instrument: LTQ Orbitrap XL Thermo Scientific
Instrument type: LC-ESI-ITFT
Ms type: MS2
Ion mode: POSITIVE
Ionization: ESI
Fragmentation mode: HCD
Collision energy: 105% (nominal)
Resolution: 15000
Column name: Kinetex Evo C18 2.6 um 50 x 2.1 mm
Retention time: 2.854 min
Base peak: 143.0015
Precursor m/z: 290.1751
Precursor type: [M+H]+
m/z	relative intensity	assigned
65.0386	35	C5H5+
67.0542	478	C5H7+
68.0494	127	C4H6N+
70.065	58	C4H8N+
77.0386	350	C6H5+
79.0541	62	C6H7+
82.0651	150	C5H8N+
83.073	85	C5H9N+
91.0542	757	C7H7+
93.0699	999	C7H9+
94.0649	42	C6H8N+
95.0491	47	C6H7O+
95.0729	37	C6H9N+
95.0855	72	C7H11+
96.0807	86	C6H10N+
98.0964	80	C6H12N+
103.0542	739	C8H7+
108.0808	36	C7H10N+
109.0885	19	C7H11N+
121.0647	61	C8H9O+
124.1121	432	C8H14N+
140.1069	23	C8H14NO+
142.1227	143	C8H16NO+
