Mass spectrum: Nicotine; LC-ESI-ITFT; MS2; CE: 50%; R=15000; [M+H]+
Name: Nicotine
Name: 3-[(2S)-1-methylpyrrolidin-2-yl]pyridine
Formula: C10H14N2
Exact mass: 162.1157
SMILES: CN1CCC[C@H]1c2cccnc2
InChI: InChI=1S/C10H14N2/c1-12-7-3-5-10(12)9-4-2-6-11-8-9/h2,4,6,8,10H,3,5,7H2,1H3/t10-/m0/s1
Instrument: LTQ Orbitrap XL Thermo Scientific
Instrument type: LC-ESI-ITFT
Ms type: MS2
Ion mode: POSITIVE
Ionization: ESI
Fragmentation mode: HCD
Collision energy: 50% (nominal)
Resolution: 15000
Column name: Kinetex Evo C18 2.6 um 50x2.1 mm, Phenomenex
Retention time: 0.467 min
Base peak: 226.9512
Precursor m/z: 163.123
Precursor type: [M+H]+
m/z	relative intensity	assigned
84.0807	58	C5H10N+
106.0652	225	C7H8N+
117.0571	46	C8H7N+
120.081	113	C8H10N+
130.0652	382	C9H8N+
132.0809	999	C9H10N+
163.1231	815	C10H15N2+
