Mass spectrum: Europine; LC-ESI-ITFT; MS2; CE: 85%; R=15000; [M+H]+
Name: Europine
Name: [(7S,8R)-7-hydroxy-5,6,7,8-tetrahydro-3H-pyrrolizin-1-yl]methyl (2R)-2,3-dihydroxy-2-[(1S)-1-methoxyethyl]-3-methylbutanoate
Formula: C16H27NO6
Exact mass: 329.1838
SMILES: C[C@@H]([C@](C(=O)OCC1=CCN2[C@H]1[C@H](CC2)O)(C(C)(C)O)O)OC
InChI: InChI=1S/C16H27NO6/c1-10(22-4)16(21,15(2,3)20)14(19)23-9-11-5-7-17-8-6-12(18)13(11)17/h5,10,12-13,18,20-21H,6-9H2,1-4H3/t10-,12-,13+,16-/m0/s1
Instrument: LTQ Orbitrap XL Thermo Scientific
Instrument type: LC-ESI-ITFT
Ms type: MS2
Ion mode: POSITIVE
Ionization: ESI
Fragmentation mode: HCD
Collision energy: 85% (nominal)
Resolution: 15000
Column name: Kinetex Evo C18 2.6 um 50 x 2.1 mm
Retention time: 1.035 min
Base peak: 143.0015
Precursor m/z: 330.1911
Precursor type: [M+H]+
m/z	relative intensity	assigned
59.0491	62	C3H7O+
67.0416	89	C4H5N+
67.0541	48	C5H7+
68.0496	31	C4H6N+
79.0543	17	C6H7+
80.0495	217	C5H6N+
81.0573	45	C5H7N+
81.0699	39	C6H9+
82.0652	459	C5H8N+
86.0601	71	C4H8NO+
91.0543	45	C7H7+
92.0495	28	C6H6N+
93.07	40	C7H9+
94.0652	780	C6H8N+
95.073	291	C6H9N+
96.0808	280	C6H10N+
108.0808	503	C7H10N+
109.0651	25	C7H9O+
110.0602	82	C6H8NO+
112.0758	116	C6H10NO+
118.065	45	C8H8N+
120.0809	748	C8H10N+
138.0914	777	C8H12NO+
139.0992	83	C8H13NO+
156.102	999	C8H14NO2+
