Mass spectrum: (+)-Sparteine; LC-ESI-ITFT; MS2; CE: 75%; R=15000; [M+H]+
Name: (+)-Sparteine
Formula: C15H26N2
Exact mass: 234.2096
SMILES: C1CCN2C[C@H]3C[C@@H]([C@H]2C1)CN4[C@H]3CCCC4
InChI: InChI=1S/C15H26N2/c1-3-7-16-11-13-9-12(14(16)5-1)10-17-8-4-2-6-15(13)17/h12-15H,1-11H2/t12-,13-,14-,15+/m1/s1
Instrument: LTQ Orbitrap XL Thermo Scientific
Instrument type: LC-ESI-ITFT
Ms type: MS2
Ion mode: POSITIVE
Ionization: ESI
Fragmentation mode: CID
Collision energy: 75 % (nominal)
Resolution: 15000
Column name: Kinetex Evo C18 2.6 um 50 x 2.1 mm
Retention time: 0.549 min
Base peak: 235.2165
Precursor m/z: 235.2169
Precursor type: [M+H]+
m/z	relative intensity	assigned
70.0651	8	C4H8N+
84.0809	7	C5H10N+
96.0809	14	C6H10N+
98.0965	999	C6H12N+
108.0807	1	C7H10N+
110.0965	4	C7H12N+
122.0966	1	C8H12N+
124.1122	9	C8H14N+
134.0965	184	C9H12N+
136.1122	4	C9H14N+
138.1278	10	C9H16N+
148.1122	2	C10H14N+
150.1279	22	C10H16N+
152.1435	26	C10H18N+
164.1436	11	C11H18N+
190.159	23	C13H20N+
202.1593	4	C14H20N+
204.1742	3	C14H22N+
