Mass spectrum: alpha-Cyperone; LC-ESI-ITFT; MS2; CE: 95%; R=15000; [M+H]+
Name: alpha-Cyperone
Formula: C15H22O
Exact mass: 218.1671
SMILES: CC1=C2CC(CCC2(CCC1=O)C)C(=C)C
InChI: InChI=1S/C15H22O/c1-10(2)12-5-7-15(4)8-6-14(16)11(3)13(15)9-12/h12H,1,5-9H2,2-4H3
Instrument: LTQ Orbitrap XL Thermo Scientific
Instrument type: LC-ESI-ITFT
Ms type: MS2
Ion mode: POSITIVE
Ionization: ESI
Fragmentation mode: HCD
Collision energy: 95 % (nominal)
Resolution: 15000
Column name: Kinetex Evo C18 2.6 um 50 x 2.1 mm
Retention time: 13.102 min
Base peak: 219.1742
Precursor m/z: 219.1743
Precursor type: [M+H]+
m/z	relative intensity	assigned
55.0541	25	C4H7+
65.0386	14	C5H5+
67.0542	280	C5H7+
69.0334	19	C4H5O+
69.0698	44	C5H9+
77.0386	122	C6H5+
79.0542	238	C6H7+
81.0699	296	C6H9+
83.0491	17	C5H7O+
83.0856	36	C6H11+
91.0542	334	C7H7+
93.0699	355	C7H9+
95.0492	37	C6H7O+
95.0855	210	C7H11+
97.0648	230	C6H9O+
103.0541	19	C8H7+
105.0699	250	C8H9+
107.0491	14	C7H7O+
107.0855	121	C8H11+
108.0569	9	C7H8O+
109.0647	48	C7H9O+
109.1012	93	C8H13+
111.0804	999	C7H11O+
116.0619	6	C9H8+
117.0698	55	C9H9+
119.0855	162	C9H11+
121.0648	54	C8H9O+
121.1012	37	C9H13+
122.0726	19	C8H10O+
123.0804	336	C8H11O+
124.0886	8	C8H12O+
129.0698	33	C10H9+
130.0778	26	C10H10+
131.0855	44	C10H11+
133.1012	25	C10H13+
135.0805	90	C9H11O+
135.1165	12	C10H15+
136.0887	13	C9H12O+
137.0961	162	C9H13O+
138.1038	16	C9H14O+
143.0855	44	C11H11+
144.0935	14	C11H12+
145.1011	48	C11H13+
147.0802	19	C10H11O+
147.117	20	C11H15+
148.0881	11	C10H12O+
149.0961	24	C10H13O+
159.1171	13	C12H15+
161.0961	65	C11H13O+
162.1041	7	C11H14O+
163.1117	36	C11H15O+
175.112	7	C12H15O+
176.1194	7	C12H16O+
189.1274	37	C13H17O+
