Mass spectrum: (+)-Sparteine; LC-ESI-ITFT; MS2; CE: 110%; R=15000; [M+H]+
Name: (+)-Sparteine
Formula: C15H26N2
Exact mass: 234.2096
SMILES: C1CCN2C[C@H]3C[C@@H]([C@H]2C1)CN4[C@H]3CCCC4
InChI: InChI=1S/C15H26N2/c1-3-7-16-11-13-9-12(14(16)5-1)10-17-8-4-2-6-15(13)17/h12-15H,1-11H2/t12-,13-,14-,15+/m1/s1
Instrument: LTQ Orbitrap XL Thermo Scientific
Instrument type: LC-ESI-ITFT
Ms type: MS2
Ion mode: POSITIVE
Ionization: ESI
Fragmentation mode: HCD
Collision energy: 110 % (nominal)
Resolution: 15000
Column name: Kinetex Evo C18 2.6 um 50 x 2.1 mm
Retention time: 0.549 min
Base peak: 235.2165
Precursor m/z: 235.2169
Precursor type: [M+H]+
m/z	relative intensity	assigned
67.0541	6	C5H7+
68.0491	1	C4H6N+
69.0699	2	C5H9+
70.0651	37	C4H8N+
79.0543	4	C6H7+
81.0698	5	C6H9+
82.0652	4	C5H8N+
84.0808	112	C5H10N+
91.0543	2	C7H7+
93.0699	4	C7H9+
95.0856	3	C7H11+
96.0808	18	C6H10N+
98.0964	999	C6H12N+
108.0808	4	C7H10N+
110.0964	11	C7H12N+
122.0963	4	C8H12N+
124.1122	7	C8H14N+
134.0964	11	C9H12N+
136.1121	3	C9H14N+
138.1279	3	C9H16N+
148.1123	5	C10H14N+
150.1278	26	C10H16N+
152.1434	17	C10H18N+
164.1433	2	C11H18N+
190.1595	2	C13H20N+
233.2012	23	C15H25N2+
235.2168	101	C15H27N2+
