Mass spectrum: Senecionine N-oxide; LC-ESI-ITFT; MS2; CE: 85%; R=15000; [M+H]+
Name: Senecionine N-oxide
Name: (1R,4Z,6R,7R,17R)-4-ethylidene-7-hydroxy-6,7-dimethyl-14-oxido-2,9-dioxa-14-azoniatricyclo[9.5.1.014,17]heptadec-11-ene-3,8-dione
Formula: C18H25NO6
Exact mass: 351.1682
SMILES: C/C=C\1/C[C@H]([C@@](C(=O)OCC2=CC[N+]3([C@H]2[C@@H](CC3)OC1=O)[O-])(C)O)C
InChI: InChI=1S/C18H25NO6/c1-4-12-9-11(2)18(3,22)17(21)24-10-13-5-7-19(23)8-6-14(15(13)19)25-16(12)20/h4-5,11,14-15,22H,6-10H2,1-3H3/b12-4-/t11-,14-,15-,18-,19?/m1/s1
Instrument: LTQ Orbitrap XL Thermo Scientific
Instrument type: LC-ESI-ITFT
Ms type: MS2
Ion mode: POSITIVE
Ionization: ESI
Fragmentation mode: HCD
Collision energy: 85% (nominal)
Resolution: 15000
Column name: Kinetex Evo C18 2.6 um 50 x 2.1 mm
Retention time: 5.367 min
Base peak: 352.1752
Precursor m/z: 352.1755
Precursor type: [M+H]+
m/z	relative intensity	assigned
53.0385	19	C4H5+
66.0464	8	C5H6+
67.0416	12	C4H5N+
67.0542	42	C5H7+
68.0494	12	C4H6N+
77.0386	7	C6H5+
79.0542	59	C6H7+
80.0495	156	C5H6N+
81.0337	8	C5H5O+
81.0573	23	C5H7N+
81.0699	113	C6H9+
82.0651	20	C5H8N+
83.049	22	C5H7O+
84.0446	12	C4H6NO+
91.0542	75	C7H7+
92.0495	24	C6H6N+
93.0573	457	C6H7N+
94.0651	999	C6H8N+
95.0729	97	C6H9N+
96.0444	8	C5H6NO+
96.0808	26	C6H10N+
98.0601	23	C5H8NO+
105.0699	8	C8H9+
106.0651	139	C7H8N+
107.073	17	C7H9N+
107.0855	56	C8H11+
108.0808	211	C7H10N+
109.0647	22	C7H9O+
109.0884	23	C7H11N+
109.1012	9	C8H13+
110.06	20	C6H8NO+
111.0678	14	C6H9NO+
112.0757	21	C6H10NO+
117.0574	30	C8H7N+
118.0651	450	C8H8N+
119.0729	208	C8H9N+
120.0808	583	C8H10N+
121.089	8	C8H11N+
122.0964	59	C8H12N+
124.0757	12	C7H10NO+
125.0961	14	C8H13O+
132.0805	7	C9H10N+
134.0961	6	C9H12N+
136.0757	668	C8H10NO+
137.0838	9	C8H11NO+
138.0914	92	C8H12NO+
139.0753	41	C8H11O2+
146.0961	10	C10H12N+
148.1122	17	C10H14N+
