Mass spectrum: Senecivernine N-oxide; LC-ESI-ITFT; MS2; CE: 85%; R=15000; [M+H]+
Name: Senecivernine N-oxide
Name: CID 14313723
Name: 7-hydroxy-5,6,7-trimethyl-4-methylidene-14-oxido-2,9-dioxa-14-azoniatricyclo[9.5.1.014,17]heptadec-11-ene-3,8-dione
Formula: C18H25NO6
Exact mass: 351.1682
SMILES: CC1C(C(C(=O)OCC2=CC[N+]3(C2C(CC3)OC(=O)C1=C)[O-])(C)O)C
InChI: InChI=1S/C18H25NO6/c1-10-11(2)16(20)25-14-6-8-19(23)7-5-13(15(14)19)9-24-17(21)18(4,22)12(10)3/h5,10,12,14-15,22H,2,6-9H2,1,3-4H3
Instrument: LTQ Orbitrap XL Thermo Scientific
Instrument type: LC-ESI-ITFT
Ms type: MS2
Ion mode: POSITIVE
Ionization: ESI
Fragmentation mode: HCD
Collision energy: 85% (nominal)
Resolution: 15000
Column name: Kinetex Evo C18 2.6 um 50 x 2.1 mm
Retention time: 4.725 min
Base peak: 352.1753
Precursor m/z: 352.1755
Precursor type: [M+H]+
m/z	relative intensity	assigned
66.0464	12	C5H6+
67.0416	16	C4H5N+
67.0543	46	C5H7+
68.0496	11	C4H6N+
77.0387	10	C6H5+
79.0543	122	C6H7+
80.0495	181	C5H6N+
81.0573	22	C5H7N+
81.0699	195	C6H9+
82.0652	21	C5H8N+
83.0492	30	C5H7O+
84.0444	32	C4H6NO+
91.0542	71	C7H7+
92.0496	30	C6H6N+
93.0573	486	C6H7N+
94.0652	999	C6H8N+
95.073	180	C6H9N+
96.0446	12	C5H6NO+
96.0809	31	C6H10N+
98.0601	22	C5H8NO+
105.0699	17	C8H9+
106.0652	206	C7H8N+
107.0731	12	C7H9N+
107.0854	39	C8H11+
108.0444	13	C6H6NO+
108.0808	144	C7H10N+
109.0649	22	C7H9O+
109.0885	12	C7H11N+
109.1015	15	C8H13+
110.0598	16	C6H8NO+
111.0442	34	C6H7O2+
111.0675	11	C6H9NO+
112.0753	16	C6H10NO+
117.0574	29	C8H7N+
118.0652	549	C8H8N+
119.073	277	C8H9N+
120.0808	834	C8H10N+
122.0965	32	C8H12N+
124.0759	23	C7H10NO+
134.0967	15	C9H12N+
136.0757	456	C8H10NO+
138.0913	97	C8H12NO+
146.0964	14	C10H12N+
148.1118	22	C10H14N+
154.0864	21	C8H12NO2+
174.0917	13	C11H12NO+
