Mass spectrum: (+)-Chelidonine; LC-ESI-ITFT; MS2; CE: 75%; R=15000; [M+H]+
Name: (+)-Chelidonine
Name: Chelidonine
Name: (1S,12S,13R)-24-methyl-5,7,18,20-tetraoxa-24-azahexacyclo[11.11.0.02,10.04,8.014,22.017,21]tetracosa-2,4(8),9,14(22),15,17(21)-hexaen-12-ol
Formula: C20H19NO5
Exact mass: 353.1263
SMILES: CN1Cc2c(ccc3c2OCO3)[C@@H]4[C@H]1c5cc6c(cc5C[C@@H]4O)OCO6
InChI: InChI=1S/C20H19NO5/c1-21-7-13-11(2-3-15-20(13)26-9-23-15)18-14(22)4-10-5-16-17(25-8-24-16)6-12(10)19(18)21/h2-3,5-6,14,18-19,22H,4,7-9H2,1H3/t14-,18-,19+/m0/s1
Instrument: LTQ Orbitrap XL Thermo Scientific
Instrument type: LC-ESI-ITFT
Ms type: MS2
Ion mode: POSITIVE
Ionization: ESI
Fragmentation mode: HCD
Collision energy: 75% (nominal)
Resolution: 15000
Column name: Kinetex Evo C18 2.6 um 50 x 2.1 mm
Retention time: 7.015 min
Base peak: 354.1337
Precursor m/z: 354.1336
Precursor type: [M+H]+
m/z	relative intensity	assigned
77.0387	4	C6H5+
79.0544	17	C6H7+
91.0541	3	C7H7+
103.0544	14	C8H7+
105.0337	4	C7H5O+
115.0545	9	C9H7+
118.0653	19	C8H8N+
131.0493	38	C9H7O+
135.0442	162	C8H7O2+
143.0495	13	C10H7O+
146.0601	19	C9H8NO+
147.0443	5	C9H7O2+
148.0518	10	C9H8O2+
149.0236	5	C8H5O3+
149.0597	15	C9H9O2+
158.0602	6	C10H8NO+
159.0442	32	C10H7O2+
160.0758	12	C10H10NO+
161.0599	38	C10H9O2+
163.0392	143	C9H7O3+
173.0601	8	C11H9O2+
175.0398	6	C10H7O3+
175.0628	8	C10H9NO2+
176.0709	23	C10H10NO2+
177.0702	10	C14H9+
178.0779	13	C14H10+
179.0857	100	C14H11+
186.055	3	C11H8NO2+
187.0382	7	C11H7O3+
188.0708	121	C11H10NO2+
189.0701	804	C15H9+
190.0779	17	C15H10+
191.0857	59	C15H11+
201.0706	5	C16H9+
205.0649	42	C15H9O+
207.0806	108	C15H11O+
209.0602	9	C14H9O2+
217.065	626	C16H9O+
218.0729	15	C16H10O+
219.0806	72	C16H11O+
222.0678	15	C15H10O2+
223.0746	6	C15H11O2+
233.0596	8	C16H9O2+
235.0755	116	C16H11O2+
237.0912	108	C16H13O2+
245.06	57	C17H9O2+
246.0677	41	C17H10O2+
247.0756	999	C17H11O2+
249.0913	3	C17H13O2+
250.0632	7	C16H10O3+
263.0705	12	C17H11O3+
265.0861	53	C17H13O3+
274.0616	3	C18H10O3+
275.0705	577	C18H11O3+
278.0568	3	C17H10O4+
293.0815	8	C18H13O4+
