Mass spectrum: Brucine; LC-ESI-ITFT; MS2; CE: 75%; R=15000; [M+H]+
Name: Brucine
Name: (-)-Brucine
Name: (4aR,5aS,8aR,15bR)-10,11-dimethoxy-4a,5,5a,7,8,13a,15,15a,15b,16-decahydro-2H-4,6-methanoindolo[3,2,1-ij]oxepino[2,3,4-de]pyrrolo[2,3-h]quinolin-14-one
Formula: C23H26N2O4
Exact mass: 394.1893
SMILES: COc1cc2c(cc1OC)N3C4[C@]25CCN6[C@H]5C[C@@H]7[C@H]4C(CC3=O)OCC=C7C6
InChI: InChI=1S/C23H26N2O4/c1-27-16-8-14-15(9-17(16)28-2)25-20(26)10-18-21-13-7-19-23(14,22(21)25)4-5-24(19)11-12(13)3-6-29-18/h3,8-9,13,18-19,21-22H,4-7,10-11H2,1-2H3/t13-,18?,19-,21-,22?,23+/m0/s1
Instrument: LTQ Orbitrap XL Thermo Scientific
Instrument type: LC-ESI-ITFT
Ms type: MS2
Ion mode: POSITIVE
Ionization: ESI
Fragmentation mode: HCD
Collision energy: 75% (nominal)
Resolution: 15000
Column name: Kinetex Evo C18 2.6 um 50 x 2.1 mm
Retention time: 5.942 min
Base peak: 116.9859
Precursor m/z: 395.1965
Precursor type: [M+H]+
m/z	relative intensity	assigned
68.0492	10	C4H6N+
70.0651	15	C4H8N+
79.0543	39	C6H7+
80.0494	38	C5H6N+
81.0699	38	C6H9+
82.065	17	C5H8N+
91.0543	33	C7H7+
93.0573	51	C6H7N+
93.0698	27	C7H9+
94.0652	39	C6H8N+
95.0491	20	C6H7O+
95.0857	12	C7H11+
96.0808	42	C6H10N+
106.0651	94	C7H8N+
107.0733	10	C7H9N+
108.0808	144	C7H10N+
120.081	10	C8H10N+
121.0647	15	C8H9O+
122.0601	90	C7H8NO+
124.0756	75	C7H10NO+
144.0809	12	C10H10N+
146.06	10	C9H8NO+
147.0681	23	C9H9NO+
148.0757	36	C9H10NO+
160.0756	19	C10H10NO+
163.0629	20	C9H9NO2+
170.0604	20	C11H8NO+
172.0755	28	C11H10NO+
176.0708	16	C10H10NO2+
177.0781	17	C10H11NO2+
178.0864	77	C10H12NO2+
183.0676	9	C12H9NO+
184.0759	65	C12H10NO+
185.0835	185	C12H11NO+
186.0553	14	C11H8NO2+
186.0913	19	C12H12NO+
188.0706	16	C11H10NO2+
190.0862	67	C11H12NO2+
192.0654	54	C10H10NO3+
197.0839	60	C13H11NO+
198.0549	79	C12H8NO2+
200.0708	43	C12H10NO2+
201.0784	61	C12H11NO2+
202.0861	19	C12H12NO2+
203.0939	9	C12H13NO2+
204.1018	34	C12H14NO2+
209.0842	10	C14H11NO+
210.091	24	C14H12NO+
212.0703	76	C13H10NO2+
213.0784	783	C13H11NO2+
214.0497	76	C12H8NO3+
214.0859	38	C13H12NO2+
216.1018	491	C13H14NO2+
222.0913	14	C15H12NO+
223.0988	25	C15H13NO+
224.0707	13	C14H10NO2+
224.107	10	C15H14NO+
226.0865	54	C14H12NO2+
227.0939	88	C14H13NO2+
228.0657	65	C13H10NO3+
228.1019	67	C14H14NO2+
229.0733	625	C13H11NO3+
230.0812	29	C13H12NO3+
230.1179	18	C14H16NO2+
234.091	33	C16H12NO+
235.0992	27	C16H13NO+
236.0708	70	C15H10NO2+
236.1068	40	C16H14NO+
238.0867	31	C15H12NO2+
239.0944	19	C15H13NO2+
240.065	14	C14H10NO3+
240.1025	35	C15H14NO2+
241.1106	10	C15H15NO2+
242.081	21	C14H12NO3+
243.0888	41	C14H13NO3+
244.0968	999	C14H14NO3+
246.1122	11	C14H16NO3+
247.0994	15	C17H13NO+
248.0699	30	C16H10NO2+
248.1076	28	C17H14NO+
249.0781	27	C16H11NO2+
249.1148	25	C17H15NO+
250.0864	38	C16H12NO2+
251.0941	196	C16H13NO2+
252.0654	66	C15H10NO3+
252.1016	16	C16H14NO2+
254.0823	17	C15H12NO3+
254.1176	152	C16H16NO2+
256.0968	67	C15H14NO3+
257.1055	15	C15H15NO3+
258.112	45	C15H16NO3+
260.0909	17	C14H14NO4+
260.108	20	C18H14NO+
262.0874	20	C17H12NO2+
263.0942	166	C17H13NO2+
264.0653	23	C16H10NO3+
264.1021	61	C17H14NO2+
265.0739	36	C16H11NO3+
265.1097	15	C17H15NO2+
266.0813	25	C16H12NO3+
266.1175	34	C17H16NO2+
267.0891	139	C16H13NO3+
270.1131	11	C16H16NO3+
272.0913	10	C15H14NO4+
276.1018	22	C18H14NO2+
278.1175	72	C18H16NO2+
279.0889	17	C17H13NO3+
279.1245	8	C18H17NO2+
280.0968	101	C17H14NO3+
280.1324	29	C18H18NO2+
281.1058	17	C17H15NO3+
282.1125	98	C17H16NO3+
288.1006	24	C19H14NO2+
289.1103	14	C19H15NO2+
290.1177	13	C19H16NO2+
291.1248	35	C19H17NO2+
292.0963	26	C18H14NO3+
294.1127	52	C18H16NO3+
296.1275	21	C18H18NO3+
301.1101	31	C20H15NO2+
304.0962	11	C19H14NO3+
306.1127	80	C19H16NO3+
307.1209	17	C19H17NO3+
309.1239	15	C18H17N2O3+
319.1206	12	C20H17NO3+
320.1294	10	C20H18NO3+
321.136	61	C20H19NO3+
322.1435	53	C20H20NO3+
324.1231	103	C19H18NO4+
335.1158	10	C20H17NO4+
350.1383	26	C21H20NO4+
352.1414	21	C20H20N2O4+
367.1656	43	C21H23N2O4+
379.1651	51	C22H23N2O4+
395.1977	36	C23H27N2O4+
