Mass spectrum: Jacobine N-oxide; LC-ESI-ITFT; MS2; CE: 75%; R=15000; [M+H]+
Name: Jacobine N-oxide
Name: (1R,3`S,4S,6R,7R,17R)-7-hydroxy-3`,6,7-trimethyl-14-oxidospiro[2,9-dioxa-14-azoniatricyclo[9.5.1.014,17]heptadec-11-ene-4,2`-oxirane]-3,8-dione
Formula: C18H25NO7
Exact mass: 367.1631
SMILES: C[C@@H]1C[C@]2([C@@H](O2)C)C(=O)O[C@@H]3CC[N+]4([C@@H]3C(=CC4)COC(=O)[C@]1(C)O)[O-]
InChI: InChI=1S/C18H25NO7/c1-10-8-18(11(2)26-18)16(21)25-13-5-7-19(23)6-4-12(14(13)19)9-24-15(20)17(10,3)22/h4,10-11,13-14,22H,5-9H2,1-3H3/t10-,11+,13-,14-,17-,18+,19?/m1/s1
Instrument: LTQ Orbitrap XL Thermo Scientific
Instrument type: LC-ESI-ITFT
Ms type: MS2
Ion mode: POSITIVE
Ionization: ESI
Fragmentation mode: HCD
Collision energy: 75% (nominal)
Resolution: 15000
Column name: Kinetex Evo C18 2.6 um 50 x 2.1 mm
Retention time: 1.283 min
Base peak: 368.1701
Precursor m/z: 368.1704
Precursor type: [M+H]+
m/z	relative intensity	assigned
67.0542	37	C5H7+
68.0493	17	C4H6N+
77.0386	65	C6H5+
79.0543	83	C6H7+
80.0495	118	C5H6N+
81.0334	11	C5H5O+
81.0571	14	C5H7N+
81.0699	23	C6H9+
82.065	30	C5H8N+
83.0489	15	C5H7O+
84.0448	10	C4H6NO+
85.0648	11	C5H9O+
86.0599	12	C4H8NO+
91.0542	143	C7H7+
92.0494	22	C6H6N+
93.0573	218	C6H7N+
93.07	59	C7H9+
94.0651	329	C6H8N+
95.049	26	C6H7O+
95.073	109	C6H9N+
96.0807	25	C6H10N+
97.0648	20	C6H9O+
99.0441	12	C5H7O2+
103.0542	14	C8H7+
105.0696	11	C8H9+
106.0651	121	C7H8N+
107.0732	19	C7H9N+
108.0808	77	C7H10N+
109.0888	15	C7H11N+
110.06	23	C6H8NO+
113.0596	71	C6H9O2+
118.0652	207	C8H8N+
119.073	185	C8H9N+
120.0808	999	C8H10N+
121.0885	105	C8H11N+
122.0964	111	C8H12N+
124.0758	31	C7H10NO+
132.0814	14	C9H10N+
136.0756	71	C8H10NO+
138.0914	51	C8H12NO+
146.0962	11	C10H12N+
148.0758	11	C9H10NO+
156.1019	32	C8H14NO2+
162.0916	49	C10H12NO+
190.1227	27	C12H16NO+
192.0648	16	C10H10NO3+
