Mass spectrum: Tomatidine; LC-ESI-ITFT; MS2; CE: 115%; R=15000; [M+H]+
Name: Tomatidine
Formula: C27H45NO2
Exact mass: 415.3450
SMILES: C[C@H]1[C@H]2[C@H](C[C@H]3[C@@H]4CC[C@H]5C[C@@H](O)CC[C@]5(C)[C@H]4CC[C@]23C)O[C@@]11CC[C@H](C)CN1
InChI: InChI=1S/C27H45NO2/c1-16-7-12-27(28-15-16)17(2)24-23(30-27)14-22-20-6-5-18-13-19(29)8-10-25(18,3)21(20)9-11-26(22,24)4/h16-24,28-29H,5-15H2,1-4H3/t16-,17-,18-,19-,20+,21-,22-,23-,24-,25-,26-,27-/m0/s1
Instrument: LTQ Orbitrap XL Thermo Scientific
Instrument type: LC-ESI-ITFT
Ms type: MS2
Ion mode: POSITIVE
Ionization: ESI
Fragmentation mode: HCD
Collision energy: 115 % (nominal)
Resolution: 15000
Column name: Kinetex Evo C18 2.6 um 50 x 2.1 mm
Retention time: 10.056 min
Base peak: 217.0493
Precursor m/z: 416.3523
Precursor type: [M+H]+
m/z	relative intensity	assigned
67.0542	192	C5H7+
69.0698	53	C5H9+
70.0651	62	C4H8N+
77.0386	172	C6H5+
79.0543	478	C6H7+
80.0496	32	C5H6N+
81.0699	295	C6H9+
82.0651	52	C5H8N+
91.0542	806	C7H7+
93.0699	391	C7H9+
94.0652	76	C6H8N+
95.0491	33	C6H7O+
95.0729	30	C6H9N+
95.0855	155	C7H11+
96.0808	56	C6H10N+
103.0544	50	C8H7+
104.062	20	C8H8+
105.0699	999	C8H9+
106.065	15	C7H8N+
107.0856	138	C8H11+
108.0808	84	C7H10N+
109.1012	31	C8H13+
110.0963	41	C7H12N+
115.0543	29	C9H7+
116.062	20	C9H8+
117.0699	158	C9H9+
119.0856	460	C9H11+
120.0811	24	C8H10N+
121.1013	14	C9H13+
122.0964	29	C8H12N+
124.1123	50	C8H14N+
126.1278	18	C8H16N+
128.0622	27	C10H8+
129.07	73	C10H9+
130.0777	37	C10H10+
131.0856	118	C10H11+
133.1012	92	C10H13+
134.096	23	C9H12N+
136.1119	30	C9H14N+
142.0775	26	C11H10+
143.0856	38	C11H11+
144.0937	32	C11H12+
145.1011	50	C11H13+
147.1169	38	C11H15+
148.1121	35	C10H14N+
150.1277	74	C10H16N+
157.1015	30	C12H13+
161.1324	66	C12H17+
162.1278	33	C11H16N+
164.1434	25	C11H18N+
