Mass spectrum: Senecionine N-oxide; LC-ESI-ITFT; MS2; CE: 95%; R=15000; [M+H]+
Name: Senecionine N-oxide
Name: (1R,4Z,6R,7R,17R)-4-ethylidene-7-hydroxy-6,7-dimethyl-14-oxido-2,9-dioxa-14-azoniatricyclo[9.5.1.014,17]heptadec-11-ene-3,8-dione
Formula: C18H25NO6
Exact mass: 351.1682
SMILES: C/C=C\1/C[C@H]([C@@](C(=O)OCC2=CC[N+]3([C@H]2[C@@H](CC3)OC1=O)[O-])(C)O)C
InChI: InChI=1S/C18H25NO6/c1-4-12-9-11(2)18(3,22)17(21)24-10-13-5-7-19(23)8-6-14(15(13)19)25-16(12)20/h4-5,11,14-15,22H,6-10H2,1-3H3/b12-4-/t11-,14-,15-,18-,19?/m1/s1
Instrument: LTQ Orbitrap XL Thermo Scientific
Instrument type: LC-ESI-ITFT
Ms type: MS2
Ion mode: POSITIVE
Ionization: ESI
Fragmentation mode: HCD
Collision energy: 95% (nominal)
Resolution: 15000
Column name: Kinetex Evo C18 2.6 um 50 x 2.1 mm
Retention time: 5.367 min
Base peak: 352.1752
Precursor m/z: 352.1755
Precursor type: [M+H]+
m/z	relative intensity	assigned
53.0385	8	C4H5+
65.0386	11	C5H5+
66.0463	11	C5H6+
67.0417	17	C4H5N+
67.0541	41	C5H7+
68.0494	9	C4H6N+
77.0383	12	C6H5+
78.0338	6	C5H4N+
79.0542	63	C6H7+
80.0495	211	C5H6N+
81.0335	14	C5H5O+
81.0574	20	C5H7N+
81.0699	86	C6H9+
82.065	21	C5H8N+
83.0494	9	C5H7O+
84.0445	14	C4H6NO+
91.0542	87	C7H7+
92.0495	49	C6H6N+
93.0573	391	C6H7N+
94.0651	999	C6H8N+
95.0729	58	C6H9N+
96.0444	8	C5H6NO+
96.0806	24	C6H10N+
98.0599	14	C5H8NO+
105.0698	15	C8H9+
106.0651	111	C7H8N+
107.0727	13	C7H9N+
107.0855	34	C8H11+
108.0807	169	C7H10N+
109.0649	6	C7H9O+
109.0885	9	C7H11N+
109.1016	7	C8H13+
110.06	19	C6H8NO+
111.0679	5	C6H9NO+
117.0573	52	C8H7N+
118.0651	408	C8H8N+
119.073	112	C8H9N+
120.0808	453	C8H10N+
122.0962	21	C8H12N+
124.0756	5	C7H10NO+
132.0807	12	C9H10N+
134.0964	11	C9H12N+
136.0757	420	C8H10NO+
137.0837	4	C8H11NO+
138.0914	36	C8H12NO+
139.0754	11	C8H11O2+
146.0958	7	C10H12N+
148.1122	12	C10H14N+
158.0966	5	C11H12N+
