Mass spectrum: Fraxidin; LC-ESI-ITFT; MS2; CE: 40%; R=15000; [M+H]+
Name: Fraxidin
Name: 8-hydroxy-6,7-dimethoxychromen-2-one
Formula: C11H10O5
Exact mass: 222.0528
SMILES: COC1=C(OC)C(O)=C2OC(=O)C=CC2=C1
InChI: InChI=1S/C11H10O5/c1-14-7-5-6-3-4-8(12)16-10(6)9(13)11(7)15-2/h3-5,13H,1-2H3
Instrument: LTQ Orbitrap XL Thermo Scientific
Instrument type: LC-ESI-ITFT
Ms type: MS2
Ion mode: POSITIVE
Ionization: ESI
Fragmentation mode: HCD
Collision energy: 40% (nominal)
Resolution: 15000
Column name: Kinetex Evo C18 2.6 um 50 x 2.1 mm
Retention time: 7.612 min
Base peak: 116.9858
Precursor m/z: 223.0601
Precursor type: [M+H]+
m/z	relative intensity	assigned
107.049	1	C7H7O+
134.036	1	C8H6O2+
135.0441	13	C8H7O2+
162.0312	16	C9H6O3+
163.039	73	C9H7O3+
167.0703	2	C9H11O3+
178.0261	1	C9H6O4+
179.034	15	C9H7O4+
179.0706	2	C10H11O3+
190.0261	138	C10H6O4+
191.0341	3	C10H7O4+
195.0652	19	C10H11O4+
207.0288	23	C10H7O5+
208.0367	264	C10H8O5+
223.0601	999	C11H11O5+
