Mass spectrum: (+)-Isocorydin; LC-ESI-ITFT; MS2; CE: 65%; R=15000; [M+H]+
Name: (+)-Isocorydin
Name: Isocorydine
Name: (6aS)-1,2,10-trimethoxy-6-methyl-5,6,6a,7-tetrahydro-4H-dibenzo[de,g]quinolin-11-ol
Formula: C20H23NO4
Exact mass: 341.1627
SMILES: CN1CCC2=CC(=C(C3=C2[C@@H]1CC4=C3C(=C(C=C4)OC)O)OC)OC
InChI: InChI=1S/C20H23NO4/c1-21-8-7-12-10-15(24-3)20(25-4)18-16(12)13(21)9-11-5-6-14(23-2)19(22)17(11)18/h5-6,10,13,22H,7-9H2,1-4H3/t13-/m0/s1
Instrument: LTQ Orbitrap XL Thermo Scientific
Instrument type: LC-ESI-ITFT
Ms type: MS2
Ion mode: POSITIVE
Ionization: ESI
Fragmentation mode: HCD
Collision energy: 65% (nominal)
Resolution: 15000
Column name: Kinetex Evo C18 2.6 um 50 x 2.1 mm
Retention time: 6.274 min
Base peak: 342.1698
Precursor m/z: 342.17
Precursor type: [M+H]+
m/z	relative intensity	assigned
165.07	21	C13H9+
166.0772	10	C13H10+
177.0698	10	C14H9+
178.0777	34	C14H10+
179.0855	25	C14H11+
180.0935	22	C14H12+
181.0641	4	C13H9O+
189.0701	13	C15H9+
190.0776	54	C15H10+
191.0855	294	C15H11+
192.0937	28	C15H12+
193.0647	44	C14H9O+
193.1013	35	C15H13+
194.0726	51	C14H10O+
195.0806	10	C14H11O+
201.0702	7	C16H9+
202.0777	26	C16H10+
203.0854	41	C16H11+
205.0647	41	C15H9O+
205.101	13	C16H13+
206.0727	69	C15H10O+
207.0805	116	C15H11O+
208.0883	176	C15H12O+
209.0593	9	C14H9O2+
209.0967	30	C15H13O+
217.0645	12	C16H9O+
218.0726	71	C16H10O+
219.0804	267	C16H11O+
220.0888	85	C16H12O+
221.0597	88	C15H9O2+
221.0963	76	C16H13O+
222.0681	29	C15H10O2+
222.1047	12	C16H14O+
223.0756	12	C15H11O2+
223.1117	52	C16H15O+
224.0831	53	C15H12O2+
225.0916	15	C15H13O2+
231.0805	82	C17H11O+
233.06	32	C16H9O2+
233.096	44	C17H13O+
234.0676	40	C16H10O2+
235.0753	314	C16H11O2+
236.0831	999	C16H12O2+
237.0922	155	C16H13O2+
238.0621	146	C15H10O3+
239.1063	7	C16H15O2+
241.0852	6	C15H13O3+
246.0672	32	C17H10O2+
247.0753	388	C17H11O2+
248.0833	456	C17H12O2+
249.0546	61	C16H9O3+
250.0627	8	C16H10O3+
250.0989	57	C17H14O2+
251.0704	25	C16H11O3+
251.1066	159	C17H15O2+
252.0779	26	C16H12O3+
253.0858	339	C16H13O3+
261.0907	17	C18H13O2+
262.0988	25	C18H14O2+
263.0702	161	C17H11O3+
264.078	636	C17H12O3+
265.0858	915	C17H13O3+
266.0571	24	C16H10O4+
267.1013	34	C17H15O3+
268.1101	10	C17H16O3+
269.0812	8	C16H13O4+
277.0858	21	C18H13O3+
278.0946	14	C18H14O3+
279.1014	203	C18H15O3+
280.1097	91	C18H16O3+
281.0807	507	C17H13O4+
295.0971	7	C18H15O4+
296.1042	114	C18H16O4+
311.1279	20	C19H19O4+
