Mass spectrum: Huperzin A; LC-ESI-ITFT; MS2; CE: 65%; R=15000; [M+H]+
Name: Huperzin A
Name: (-)-Huperazine A
Name: (1R,9R,13E)-1-amino-13-ethylidene-11-methyl-6-azatricyclo[7.3.1.02,7]trideca-2(7),3,10-trien-5-one
Formula: C15H18N2O
Exact mass: 242.1419
SMILES: C/C=C/1\[C@@H]2CC3=C([C@]1(CC(=C2)C)N)C=CC(=O)N3
InChI: InChI=1S/C15H18N2O/c1-3-11-10-6-9(2)8-15(11,16)12-4-5-14(18)17-13(12)7-10/h3-6,10H,7-8,16H2,1-2H3,(H,17,18)/b11-3+/t10-,15+/m0/s1
Instrument: LTQ Orbitrap XL Thermo Scientific
Instrument type: LC-ESI-ITFT
Ms type: MS2
Ion mode: POSITIVE
Ionization: ESI
Fragmentation mode: HCD
Collision energy: 65% (nominal)
Resolution: 15000
Column name: Kinetex Evo C18 2.6 um 50 x 2.1 mm
Retention time: 1.529 min
Base peak: 143.0015
Precursor m/z: 243.1492
Precursor type: [M+H]+
m/z	relative intensity	assigned
110.06	122	C6H8NO+
134.0963	175	C9H12N+
166.0778	42	C13H10+
180.0802	45	C13H10N+
181.1012	143	C14H13+
183.1042	48	C13H13N+
184.0761	99	C12H10NO+
187.0865	83	C11H11N2O+
193.0885	115	C14H11N+
196.0758	307	C13H10NO+
197.0839	185	C13H11NO+
198.0916	52	C13H12NO+
198.1271	47	C14H16N+
208.1122	237	C15H14N+
210.0914	576	C14H12NO+
211.099	246	C14H13NO+
212.1071	79	C14H14NO+
213.1018	62	C13H13N2O+
224.107	123	C15H14NO+
226.1227	999	C15H16NO+
227.1181	275	C14H15N2O+
228.1254	127	C14H16N2O+
243.1493	842	C15H19N2O+
