Mass spectrum: Retrorsine; LC-ESI-ITFT; MS2; CE: 70%; R=15000; [M+H]+
Name: Retrorsine
Name: (1R,4Z,6R,7S,17R)-4-ethylidene-7-hydroxy-7-(hydroxymethyl)-6-methyl-2,9-dioxa-14-azatricyclo[9.5.1.014,17]heptadec-11-ene-3,8-dione
Formula: C18H25NO6
Exact mass: 351.1682
SMILES: C/C=C\1/C[C@H]([C@@](C(=O)OCC2=CCN3[C@H]2[C@@H](CC3)OC1=O)(CO)O)C
InChI: InChI=1S/C18H25NO6/c1-3-12-8-11(2)18(23,10-20)17(22)24-9-13-4-6-19-7-5-14(15(13)19)25-16(12)21/h3-4,11,14-15,20,23H,5-10H2,1-2H3/b12-3-/t11-,14-,15-,18-/m1/s1
Instrument: LTQ Orbitrap XL Thermo Scientific
Instrument type: LC-ESI-ITFT
Ms type: MS2
Ion mode: POSITIVE
Ionization: ESI
Fragmentation mode: HCD
Collision energy: 70% (nominal)
Resolution: 15000
Column name: Kinetex Evo C18 2.6 um 50 x 2.1 mm
Retention time: 1.607 min
Base peak: 143.0015
Precursor m/z: 352.1755
Precursor type: [M+H]+
m/z	relative intensity	assigned
53.0385	25	C4H5+
67.0415	14	C4H5N+
67.0542	216	C5H7+
68.0495	74	C4H6N+
69.0698	17	C5H9+
71.0491	15	C4H7O+
77.0386	55	C6H5+
79.0543	128	C6H7+
80.0495	163	C5H6N+
81.0335	17	C5H5O+
81.0574	45	C5H7N+
81.0699	154	C6H9+
82.0652	153	C5H8N+
83.0492	30	C5H7O+
84.0445	24	C4H6NO+
91.0543	210	C7H7+
92.0496	38	C6H6N+
93.0572	30	C6H7N+
93.0699	292	C7H9+
94.0651	690	C6H8N+
95.0492	23	C6H7O+
95.0729	38	C6H9N+
95.0855	279	C7H11+
96.0808	400	C6H10N+
99.0442	33	C5H7O2+
103.0542	142	C8H7+
105.0574	22	C7H7N+
105.0699	109	C8H9+
106.0649	22	C7H8N+
107.0731	35	C7H9N+
107.0857	46	C8H11+
108.0808	201	C7H10N+
109.0648	63	C7H9O+
109.0888	22	C7H11N+
110.0601	33	C6H8NO+
110.0965	113	C7H12N+
111.0806	33	C7H11O+
112.0756	18	C6H10NO+
118.0651	99	C8H8N+
119.0727	27	C8H9N+
120.0808	999	C8H10N+
121.0648	49	C8H9O+
121.0887	59	C8H11N+
122.0964	199	C8H12N+
123.0805	272	C8H11O+
136.0756	53	C8H10NO+
138.0914	887	C8H12NO+
139.0755	20	C8H11O2+
140.107	46	C8H14NO+
151.0755	130	C9H11O2+
156.1018	44	C8H14NO2+
169.086	31	C9H13O3+
220.1334	130	C13H18NO2+
236.1281	21	C13H18NO3+
276.1594	36	C16H22NO3+
324.1807	86	C17H26NO5+
352.1761	82	C18H26NO6+
