Mass spectrum: Echimidine N-oxide; LC-ESI-ITFT; MS2; CE: 45%; R=15000; [M+H]+
Name: Echimidine N-oxide
Name: [(7R,8R)-7-[(Z)-2-methylbut-2-enoyl]oxy-4-oxido-5,6,7,8-tetrahydro-3H-pyrrolizin-4-ium-1-yl]methyl (2R)-2,3-dihydroxy-2-[(1S)-1-hydroxyethyl]-3-methylbutanoate
Formula: C20H31NO8
Exact mass: 413.2050
SMILES: C/C=C(/C)\C(=O)O[C@@H]1CC[N+]2([C@@H]1C(=CC2)COC(=O)[C@@]([C@H](C)O)(C(C)(C)O)O)[O-]
InChI: InChI=1S/C20H31NO8/c1-6-12(2)17(23)29-15-8-10-21(27)9-7-14(16(15)21)11-28-18(24)20(26,13(3)22)19(4,5)25/h6-7,13,15-16,22,25-26H,8-11H2,1-5H3/b12-6-/t13-,15+,16+,20-,21?/m0/s1
Instrument: LTQ Orbitrap XL Thermo Scientific
Instrument type: LC-ESI-ITFT
Ms type: MS2
Ion mode: POSITIVE
Ionization: ESI
Fragmentation mode: HCD
Collision energy: 45% (nominal)
Resolution: 15000
Column name: Kinetex Evo C18 2.6 um 50 x 2.1 mm
Retention time: 6.563 min
Base peak: 414.2118
Precursor m/z: 414.2122
Precursor type: [M+H]+
m/z	relative intensity	assigned
55.0541	33	C4H7+
68.0494	3	C4H6N+
79.0543	3	C6H7+
80.0496	3	C5H6N+
81.0698	8	C6H9+
82.065	3	C5H8N+
83.0491	85	C5H7O+
84.0444	6	C4H6NO+
91.0541	4	C7H7+
93.0573	18	C6H7N+
94.0651	13	C6H8N+
95.0731	6	C6H9N+
106.0651	19	C7H8N+
107.0734	3	C7H9N+
108.0808	20	C7H10N+
109.0647	9	C7H9O+
110.0602	2	C6H8NO+
111.0677	3	C6H9NO+
112.0758	4	C6H10NO+
118.0651	18	C8H8N+
119.0729	63	C8H9N+
120.0808	120	C8H10N+
121.0646	3	C8H9O+
121.0887	15	C8H11N+
122.0963	2	C8H12N+
124.0755	4	C7H10NO+
136.0757	85	C8H10NO+
137.0835	233	C8H11NO+
138.0912	12	C8H12NO+
141.0911	27	C8H13O2+
154.0862	81	C8H12NO2+
174.1278	4	C12H16N+
176.1069	6	C11H14NO+
190.1226	10	C12H16NO+
192.1384	15	C12H18NO+
218.1176	66	C13H16NO2+
219.1255	7	C13H17NO2+
220.1332	310	C13H18NO2+
234.1133	3	C13H16NO3+
236.1277	10	C13H18NO3+
237.1359	134	C13H19NO3+
238.1071	6	C12H16NO4+
238.1437	10	C13H20NO3+
254.1386	999	C13H20NO4+
256.1181	3	C12H18NO5+
296.1492	4	C15H22NO5+
308.185	4	C17H26NO4+
310.1651	29	C16H24NO5+
312.1445	9	C15H22NO6+
338.1599	129	C17H24NO6+
352.1754	276	C18H26NO6+
356.1703	45	C17H26NO7+
370.1869	5	C18H28NO7+
396.2017	226	C20H30NO7+
414.2123	208	C20H32NO8+
