Mass spectrum: 4-Hydroxycoumarin; LC-ESI-ITFT; MS2; CE: 150%; R=15000; [M+H]+
Name: 4-Hydroxycoumarin
Name: 4-hydroxychromen-2-one
Formula: C9H6O3
Exact mass: 162.0317
SMILES: OC1=CC(=O)OC2=CC=CC=C12
InChI: InChI=1S/C9H6O3/c10-7-5-9(11)12-8-4-2-1-3-6(7)8/h1-5,10H
Instrument: LTQ Orbitrap XL Thermo Scientific
Instrument type: LC-ESI-ITFT
Ms type: MS2
Ion mode: POSITIVE
Ionization: ESI
Fragmentation mode: HCD
Collision energy: 150 % (nominal)
Resolution: 15000
Column name: Kinetex Evo C18 2.6 um 50 x 2.1 mm
Retention time: 8.021 min
Base peak: 163.0392
Precursor m/z: 163.039
Precursor type: [M+H]+
m/z	relative intensity	assigned
68.9968	999	C3HO2+
75.0228	92	C6H3+
77.0384	796	C6H5+
79.0541	126	C6H7+
89.0385	278	C7H5+
91.0542	291	C7H7+
93.0335	179	C6H5O+
94.0413	6	C6H6O+
95.0491	193	C6H7O+
101.0386	6	C8H5+
105.0447	509	C6H5N2+
107.0491	8	C7H7O+
111.044	54	C6H7O2+
113.0384	11	C9H5+
121.0284	294	C7H5O2+
121.0396	337	C6H5N2O+
129.0446	18	C8H5N2+
