Mass spectrum: Colchicine; LC-ESI-ITFT; MS2; CE: 85%; R=15000; [M+H]+
Name: Colchicine
Name: N-[(7S)-1,2,3,10-tetramethoxy-9-oxo-6,7-dihydro-5H-benzo[a]heptalen-7-yl]acetamide
Formula: C22H25NO6
Exact mass: 399.1682
SMILES: CC(=O)N[C@H]1CCC2=CC(=C(C(=C2C3=CC=C(C(=O)C=C13)OC)OC)OC)OC
InChI: InChI=1S/C22H25NO6/c1-12(24)23-16-8-6-13-10-19(27-3)21(28-4)22(29-5)20(13)14-7-9-18(26-2)17(25)11-15(14)16/h7,9-11,16H,6,8H2,1-5H3,(H,23,24)/t16-/m0/s1
Instrument: LTQ Orbitrap XL Thermo Scientific
Instrument type: LC-ESI-ITFT
Ms type: MS2
Ion mode: POSITIVE
Ionization: ESI
Fragmentation mode: HCD
Collision energy: 85% (nominal)
Resolution: 15000
Column name: Kinetex Evo C18 2.6 um 50 x 2.1 mm
Retention time: 9.276 min
Base peak: 400.1752
Precursor m/z: 400.1755
Precursor type: [M+H]+
m/z	relative intensity	assigned
91.0542	83	C7H7+
115.0542	79	C9H7+
129.0705	38	C10H9+
131.0493	71	C9H7O+
133.0523	330	C8H7NO+
133.0648	49	C9H9O+
137.0596	250	C8H9O2+
141.0695	71	C11H9+
145.0648	118	C10H9O+
147.0439	61	C9H7O2+
148.0519	98	C9H8O2+
150.0549	171	C8H8NO2+
152.0621	171	C12H8+
153.0699	153	C12H9+
160.0757	71	C10H10NO+
161.0599	89	C10H9O2+
165.07	362	C13H9+
166.0779	158	C13H10+
167.0856	200	C13H11+
168.0578	47	C12H8O+
169.0651	203	C12H9O+
170.0727	41	C12H10O+
171.0804	85	C12H11O+
176.0706	117	C10H10NO2+
176.0832	106	C11H12O2+
177.0548	73	C10H9O3+
177.0702	159	C14H9+
178.0777	267	C14H10+
179.0857	335	C14H11+
180.0573	110	C13H8O+
180.0807	44	C13H10N+
181.0648	504	C13H9O+
182.0725	231	C13H10O+
183.0805	234	C13H11O+
184.0519	95	C12H8O2+
185.0597	83	C12H9O2+
188.0706	103	C11H10NO2+
189.0702	161	C15H9+
190.0773	75	C15H10+
191.0858	190	C15H11+
192.0569	75	C14H8O+
193.0647	165	C14H9O+
194.0726	382	C14H10O+
194.0969	39	C14H12N+
195.0805	668	C14H11O+
196.0518	99	C13H8O2+
196.0759	90	C13H10NO+
196.0883	305	C14H12O+
197.0596	364	C13H9O2+
197.0839	135	C13H11NO+
197.0962	89	C14H13O+
198.0677	201	C13H10O2+
199.0754	322	C13H11O2+
204.0803	71	C15H10N+
205.0647	352	C15H9O+
206.0728	241	C15H10O+
207.0682	75	C14H9NO+
207.0806	516	C15H11O+
208.0517	181	C14H8O2+
208.0752	69	C14H10NO+
208.0883	317	C15H12O+
209.0597	337	C14H9O2+
209.0831	59	C14H11NO+
209.0959	246	C15H13O+
210.0675	256	C14H10O2+
210.0913	71	C14H12NO+
211.0753	459	C14H11O2+
211.0988	51	C14H13NO+
212.047	169	C13H8O3+
212.0834	356	C14H12O2+
213.0552	120	C13H9O3+
213.0911	158	C14H13O2+
215.0704	58	C13H11O3+
219.0808	188	C16H11O+
220.0516	191	C15H8O2+
220.0756	133	C15H10NO+
221.0597	331	C15H9O2+
221.0837	121	C15H11NO+
222.0675	409	C15H10O2+
222.0915	105	C15H12NO+
223.0754	798	C15H11O2+
224.0707	124	C14H10NO2+
224.0833	999	C15H12O2+
224.1069	59	C15H14NO+
225.0546	364	C14H9O3+
225.0784	273	C14H11NO2+
225.0913	285	C15H13O2+
226.0624	160	C14H10O3+
226.086	109	C14H12NO2+
226.099	65	C15H14O2+
227.0702	551	C14H11O3+
227.1074	54	C15H15O2+
228.0658	63	C13H10NO3+
228.0789	75	C14H12O3+
228.1022	62	C14H14NO2+
229.05	56	C13H9O4+
233.0594	150	C16H9O2+
233.0841	57	C16H11NO+
234.0678	212	C16H10O2+
234.0911	89	C16H12NO+
235.0754	645	C16H11O2+
236.047	118	C15H8O3+
236.0702	175	C15H10NO2+
236.0833	326	C16H12O2+
236.1075	158	C16H14NO+
237.0545	472	C15H9O3+
237.0783	153	C15H11NO2+
237.091	438	C16H13O2+
238.0624	105	C15H10O3+
238.086	186	C15H12NO2+
238.099	116	C16H14O2+
239.0703	326	C15H11O3+
239.0942	200	C15H13NO2+
239.1066	490	C16H15O2+
240.0653	51	C14H10NO3+
240.0781	634	C15H12O3+
240.1018	124	C15H14NO2+
241.0859	357	C15H13O3+
242.081	157	C14H12NO3+
243.0656	137	C14H11O4+
247.0759	91	C17H11O2+
248.084	51	C17H12O2+
249.0546	97	C16H9O3+
249.0785	129	C16H11NO2+
249.0906	119	C17H13O2+
250.0625	223	C16H10O3+
250.0863	249	C16H12NO2+
251.0703	793	C16H11O3+
251.094	93	C16H13NO2+
251.1076	131	C17H15O2+
252.0781	736	C16H12O3+
252.1019	240	C16H14NO2+
253.0497	292	C15H9O4+
253.0738	206	C15H11NO3+
253.0851	200	C16H13O3+
254.0568	69	C15H10O4+
254.0818	145	C15H12NO3+
255.0655	300	C15H11O4+
255.1016	168	C16H15O3+
256.0603	83	C14H10NO4+
256.0732	129	C15H12O4+
256.0964	121	C15H14NO3+
263.0705	128	C17H11O3+
263.0947	84	C17H13NO2+
264.0782	89	C17H12O3+
265.0496	96	C16H9O4+
265.0859	280	C17H13O3+
266.0814	202	C16H12NO3+
267.065	143	C16H11O4+
267.1014	751	C17H15O3+
268.073	289	C16H12O4+
268.0968	212	C16H14NO3+
269.081	129	C16H13O4+
278.0814	155	C17H12NO3+
279.0656	106	C17H11O4+
280.0727	163	C17H12O4+
280.0975	132	C17H14NO3+
282.1124	119	C17H16NO3+
283.096	163	C17H15O4+
292.0972	76	C18H14NO3+
294.0757	94	C17H12NO4+
