Mass spectrum: Lasiocarpine N-oxide; LC-ESI-ITFT; MS2; CE: 45%; R=15000; [M+H]+
Name: Lasiocarpine N-oxide
Name: [(7S,8R)-7-[(Z)-2-methylbut-2-enoyl]oxy-4-oxido-5,6,7,8-tetrahydro-3H-pyrrolizin-4-ium-1-yl]methyl (2R)-2,3-dihydroxy-2-[(1S)-1-methoxyethyl]-3-methylbutanoate
Formula: C21H33NO8
Exact mass: 427.2206
SMILES: C/C=C(/C)\C(=O)O[C@H]1CC[N+]2([C@@H]1C(=CC2)COC(=O)[C@@]([C@H](C)OC)(C(C)(C)O)O)[O-]
InChI: InChI=1S/C21H33NO8/c1-7-13(2)18(23)30-16-9-11-22(27)10-8-15(17(16)22)12-29-19(24)21(26,14(3)28-6)20(4,5)25/h7-8,14,16-17,25-26H,9-12H2,1-6H3/b13-7-/t14-,16-,17+,21-,22?/m0/s1
Instrument: LTQ Orbitrap XL Thermo Scientific
Instrument type: LC-ESI-ITFT
Ms type: MS2
Ion mode: POSITIVE
Ionization: ESI
Fragmentation mode: HCD
Collision energy: 45% (nominal)
Resolution: 15000
Column name: Kinetex Evo C18 2.6 um 50 x 2.1 mm
Retention time: 8.001 min
Base peak: 428.2278
Precursor m/z: 428.2279
Precursor type: [M+H]+
m/z	relative intensity	assigned
55.0541	18	C4H7+
59.049	17	C3H7O+
80.0495	11	C5H6N+
81.0697	9	C6H9+
83.0492	42	C5H7O+
84.0444	9	C4H6NO+
93.0573	101	C6H7N+
94.0652	103	C6H8N+
95.0728	6	C6H9N+
97.0649	6	C6H9O+
106.0651	69	C7H8N+
108.0808	38	C7H10N+
109.0647	9	C7H9O+
109.0886	7	C7H11N+
111.0679	32	C6H9NO+
118.0653	36	C8H8N+
119.073	382	C8H9N+
120.0808	329	C8H10N+
121.0886	105	C8H11N+
122.0966	24	C8H12N+
124.0756	5	C7H10NO+
134.0968	7	C9H12N+
136.0757	377	C8H10NO+
137.0835	451	C8H11NO+
138.0914	498	C8H12NO+
154.0863	69	C8H12NO2+
155.0941	17	C8H13NO2+
156.1017	9	C8H14NO2+
172.0971	25	C8H14NO3+
190.1223	11	C12H16NO+
218.1175	37	C13H16NO2+
220.1333	48	C13H18NO2+
222.1121	7	C12H16NO3+
234.1121	18	C13H16NO3+
237.1361	94	C13H19NO3+
252.1221	14	C13H18NO4+
254.1387	999	C13H20NO4+
270.1326	12	C13H20NO5+
324.1813	6	C17H26NO5+
328.176	22	C16H26NO6+
338.1601	131	C17H24NO6+
346.1862	22	C16H28NO7+
352.1755	202	C18H26NO6+
370.1868	9	C18H28NO7+
410.2175	122	C21H32NO7+
428.2279	102	C21H34NO8+
