Mass spectrum: Lycorine; LC-ESI-ITFT; MS2; CE: 100%; R=15000; [M+H]+
Name: Lycorine
Name: (1S,17S,18S,19S)-5,7-dioxa-12-azapentacyclo[10.6.1.02,10.04,8.015,19]nonadeca-2,4(8),9,15-tetraene-17,18-diol
Formula: C16H17NO4
Exact mass: 287.1158
SMILES: C1CN2CC3=CC4=C(C=C3[C@H]5[C@H]2C1=C[C@@H]([C@H]5O)O)OCO4
InChI: InChI=1S/C16H17NO4/c18-11-3-8-1-2-17-6-9-4-12-13(21-7-20-12)5-10(9)14(15(8)17)16(11)19/h3-5,11,14-16,18-19H,1-2,6-7H2/t11-,14-,15+,16+/m0/s1
Instrument: LTQ Orbitrap XL Thermo Scientific
Instrument type: LC-ESI-ITFT
Ms type: MS2
Ion mode: POSITIVE
Ionization: ESI
Fragmentation mode: HCD
Collision energy: 100% (nominal)
Resolution: 15000
Column name: Kinetex Evo C18 2.6 um 50 x 2.1 mm
Retention time: 0.625 min
Base peak: 288.1228
Precursor m/z: 288.123
Precursor type: [M+H]+
m/z	relative intensity	assigned
65.0384	7	C5H5+
67.0542	12	C5H7+
77.0386	8	C6H5+
79.0542	13	C6H7+
82.0651	47	C5H8N+
83.0493	21	C5H7O+
91.0542	441	C7H7+
95.0491	33	C6H7O+
103.0544	6	C8H7+
106.0652	12	C7H8N+
111.068	22	C6H9NO+
115.054	12	C9H7+
119.0491	999	C8H7O+
129.0701	8	C10H9+
134.06	19	C8H8NO+
135.0437	31	C8H7O2+
141.0699	8	C11H9+
147.0441	472	C9H7O2+
149.0592	20	C9H9O2+
152.062	9	C12H8+
159.0438	7	C10H7O2+
167.0724	8	C12H9N+
169.088	8	C12H11N+
192.0811	11	C14H10N+
193.0892	11	C14H11N+
194.0965	17	C14H12N+
196.0757	11	C13H10NO+
224.0707	6	C14H10NO2+
226.0856	8	C14H12NO2+
