Mass spectrum: (+)-Chelidonine; LC-ESI-ITFT; MS2; CE: 15%; R=15000; [M+H]+
Name: (+)-Chelidonine
Name: Chelidonine
Name: (1S,12S,13R)-24-methyl-5,7,18,20-tetraoxa-24-azahexacyclo[11.11.0.02,10.04,8.014,22.017,21]tetracosa-2,4(8),9,14(22),15,17(21)-hexaen-12-ol
Formula: C20H19NO5
Exact mass: 353.1263
SMILES: CN1Cc2c(ccc3c2OCO3)[C@@H]4[C@H]1c5cc6c(cc5C[C@@H]4O)OCO6
InChI: InChI=1S/C20H19NO5/c1-21-7-13-11(2-3-15-20(13)26-9-23-15)18-14(22)4-10-5-16-17(25-8-24-16)6-12(10)19(18)21/h2-3,5-6,14,18-19,22H,4,7-9H2,1H3/t14-,18-,19+/m0/s1
Instrument: LTQ Orbitrap XL Thermo Scientific
Instrument type: LC-ESI-ITFT
Ms type: MS2
Ion mode: POSITIVE
Ionization: ESI
Fragmentation mode: HCD
Collision energy: 15% (nominal)
Resolution: 15000
Column name: Kinetex Evo C18 2.6 um 50x2.1 mm, Phenomenex
Retention time: 7.006 min
Base peak: 354.1337
Precursor m/z: 354.1336
Precursor type: [M+H]+
m/z	relative intensity	assigned
275.0706	1	C18H11O3+
305.0811	7	C19H13O4+
323.0922	6	C19H15O5+
336.1227	2	C20H18NO4+
354.1338	999	C20H20NO5+
