Mass spectrum: Conessine; LC-ESI-ITFT; MS2; CE: 75%; R=15000; [M+H]+
Name: Conessine
Formula: C24H40N2
Exact mass: 356.3191
SMILES: C[C@H]1[C@H]2CC[C@H]3[C@@H]4CC=C5C[C@H](CC[C@]5(C)[C@H]4CC[C@]23CN1C)N(C)C
InChI: InChI=1S/C24H40N2/c1-16-20-8-9-22-19-7-6-17-14-18(25(3)4)10-12-23(17,2)21(19)11-13-24(20,22)15-26(16)5/h6,16,18-22H,7-15H2,1-5H3/t16-,18-,19+,20+,21-,22-,23-,24-/m0/s1
Instrument: LTQ Orbitrap XL Thermo Scientific
Instrument type: LC-ESI-ITFT
Ms type: MS2
Ion mode: POSITIVE
Ionization: ESI
Fragmentation mode: HCD
Collision energy: 75 % (nominal)
Resolution: 15000
Column name: Kinetex Evo C18 2.6 um 50 x 2.1 mm
Retention time: 5.420 min
Base peak: 179.1667
Precursor m/z: 357.3264
Precursor type: [M+H]+
m/z	relative intensity	assigned
55.0541	19	C4H7+
58.0651	10	C3H8N+
67.0542	115	C5H7+
69.0698	12	C5H9+
72.0807	38	C4H10N+
77.0386	14	C6H5+
79.0542	126	C6H7+
81.0699	236	C6H9+
83.0856	25	C6H11+
84.0808	999	C5H10N+
91.0542	151	C7H7+
93.0699	225	C7H9+
95.0855	145	C7H11+
105.0698	260	C8H9+
107.0855	130	C8H11+
109.1011	220	C8H13+
117.0698	81	C9H9+
119.0855	139	C9H11+
121.1011	89	C9H13+
123.1169	26	C9H15+
129.0698	20	C10H9+
130.0779	9	C10H10+
131.0855	141	C10H11+
133.1011	169	C10H13+
135.1168	120	C10H15+
143.0855	50	C11H11+
144.093	15	C11H12+
145.1012	196	C11H13+
147.1168	329	C11H15+
149.1324	25	C11H17+
157.101	56	C12H13+
158.2717	16	C8H34N2+
159.1168	361	C12H15+
161.1324	211	C12H17+
171.1172	26	C13H15+
173.1325	130	C13H17+
175.1482	14	C13H19+
185.1323	34	C14H17+
187.148	120	C14H19+
199.1479	39	C15H19+
201.1639	10	C15H21+
213.1637	23	C16H21+
227.1785	13	C17H23+
269.2262	25	C20H29+
312.2679	9	C22H34N+
