Mass spectrum: Seneciphylline; LC-ESI-ITFT; MS2; CE: 85%; R=15000; [M+H]+
Name: Seneciphylline
Name: (1R,4Z,7R,17R)-4-ethylidene-7-hydroxy-7-methyl-6-methylidene-2,9-dioxa-14-azatricyclo[9.5.1.014,17]heptadec-11-ene-3,8-dione
Formula: C18H23NO5
Exact mass: 333.1576
SMILES: C/C=C\1/CC(=C)[C@@](C(=O)OCC2=CCN3[C@H]2[C@@H](CC3)OC1=O)(C)O
InChI: InChI=1S/C18H23NO5/c1-4-12-9-11(2)18(3,22)17(21)23-10-13-5-7-19-8-6-14(15(13)19)24-16(12)20/h4-5,14-15,22H,2,6-10H2,1,3H3/b12-4-/t14-,15-,18-/m1/s1
Instrument: LTQ Orbitrap XL Thermo Scientific
Instrument type: LC-ESI-ITFT
Ms type: MS2
Ion mode: POSITIVE
Ionization: ESI
Fragmentation mode: HCD
Collision energy: 85% (nominal)
Resolution: 15000
Column name: Kinetex Evo C18 2.6 um 50 x 2.1 mm
Retention time: 2.026 min
Base peak: 143.0016
Precursor m/z: 334.1649
Precursor type: [M+H]+
m/z	relative intensity	assigned
65.0386	37	C5H5+
67.0416	38	C4H5N+
67.0542	378	C5H7+
68.0495	160	C4H6N+
77.0387	143	C6H5+
79.0543	230	C6H7+
80.0495	359	C5H6N+
81.0573	118	C5H7N+
81.0699	194	C6H9+
82.0652	204	C5H8N+
84.0443	36	C4H6NO+
91.0543	450	C7H7+
92.0493	61	C6H6N+
93.0573	80	C6H7N+
93.0699	255	C7H9+
94.0652	999	C6H8N+
95.0493	30	C6H7O+
95.073	49	C6H9N+
95.0855	96	C7H11+
96.0808	293	C6H10N+
103.0542	150	C8H7+
105.0571	29	C7H7N+
105.07	168	C8H9+
106.0652	92	C7H8N+
107.0731	80	C7H9N+
108.0808	261	C7H10N+
109.0649	243	C7H9O+
110.0603	39	C6H8NO+
110.0964	116	C7H12N+
112.0759	23	C6H10NO+
118.0652	159	C8H8N+
119.073	42	C8H9N+
120.0808	557	C8H10N+
122.0963	90	C8H12N+
123.0807	54	C8H11O+
138.0914	255	C8H12NO+
156.1017	32	C8H14NO2+
