Mass spectrum: Fraxidin; LC-ESI-ITFT; MS2; CE: 65%; R=15000; [M+H]+
Name: Fraxidin
Name: 8-hydroxy-6,7-dimethoxychromen-2-one
Formula: C11H10O5
Exact mass: 222.0528
SMILES: COC1=C(OC)C(O)=C2OC(=O)C=CC2=C1
InChI: InChI=1S/C11H10O5/c1-14-7-5-6-3-4-8(12)16-10(6)9(13)11(7)15-2/h3-5,13H,1-2H3
Instrument: LTQ Orbitrap XL Thermo Scientific
Instrument type: LC-ESI-ITFT
Ms type: MS2
Ion mode: POSITIVE
Ionization: ESI
Fragmentation mode: HCD
Collision energy: 65% (nominal)
Resolution: 15000
Column name: Kinetex Evo C18 2.6 um 50 x 2.1 mm
Retention time: 7.600 min
Base peak: 116.9858
Precursor m/z: 223.0601
Precursor type: [M+H]+
m/z	relative intensity	assigned
78.0464	40	C6H6+
79.0542	4	C6H7+
105.0335	29	C7H5O+
106.0413	56	C7H6O+
107.0491	29	C7H7O+
118.0414	18	C8H6O+
120.0203	7	C7H4O2+
123.0437	7	C7H7O2+
124.0521	4	C7H8O2+
132.0203	3	C8H4O2+
133.0285	23	C8H5O2+
134.0362	176	C8H6O2+
135.0441	269	C8H7O2+
137.0229	6	C7H5O3+
144.0206	15	C9H4O2+
146.0361	13	C9H6O2+
150.0311	8	C8H6O3+
151.039	5	C8H7O3+
152.0469	32	C8H8O3+
161.0232	17	C9H5O3+
162.0312	999	C9H6O3+
163.039	155	C9H7O3+
164.0469	8	C9H8O3+
165.0184	16	C8H5O4+
167.0702	31	C9H11O3+
172.0153	5	C10H4O3+
178.0261	131	C9H6O4+
179.0339	324	C9H7O4+
180.0417	37	C9H8O4+
190.0261	824	C10H6O4+
191.0339	7	C10H7O4+
193.0131	29	C9H5O5+
195.0649	8	C10H11O4+
207.0288	456	C10H7O5+
208.0366	336	C10H8O5+
223.0601	165	C11H11O5+
