Mass spectrum: Homoharringtonine; LC-ESI-ITFT; MS2; CE: 90%; R=15000; [M+H]+
Name: Homoharringtonine
Name: Omacetaxine mepesuccinate
Name: 1-O-[(2S,3S,6R)-4-methoxy-16,18-dioxa-10-azapentacyclo[11.7.0.02,6.06,10.015,19]icosa-1(20),4,13,15(19)-tetraen-3-yl] 4-O-methyl (2R)-2-hydroxy-2-(4-hydroxy-4-methylpentyl)butanedioate
Formula: C29H39NO9
Exact mass: 545.2625
SMILES: CC(C)(CCC[C@@](CC(=O)OC)(C(=O)O[C@H]1[C@H]2c3cc4c(cc3CCN5[C@@]2(CCC5)C=C1OC)OCO4)O)O
InChI: InChI=1S/C29H39NO9/c1-27(2,33)8-5-10-29(34,16-23(31)36-4)26(32)39-25-22(35-3)15-28-9-6-11-30(28)12-7-18-13-20-21(38-17-37-20)14-19(18)24(25)28/h13-15,24-25,33-34H,5-12,16-17H2,1-4H3/t24-,25-,28+,29-/m1/s1
Instrument: LTQ Orbitrap XL Thermo Scientific
Instrument type: LC-ESI-ITFT
Ms type: MS2
Ion mode: POSITIVE
Ionization: ESI
Fragmentation mode: HCD
Collision energy: 90% (nominal)
Resolution: 15000
Column name: Kinetex Evo C18 2.6 um 50 x 2.1 mm
Retention time: 7.154 min
Base peak: 546.2694
Precursor m/z: 546.2698
Precursor type: [M+H]+
m/z	relative intensity	assigned
55.0177	16	C3H3O+
59.0491	30	C3H7O+
67.0542	19	C5H7+
69.0699	59	C5H9+
70.0651	32	C4H8N+
77.0386	35	C6H5+
79.0542	77	C6H7+
81.07	26	C6H9+
91.0542	206	C7H7+
93.0699	159	C7H9+
94.0652	30	C6H8N+
95.0488	16	C6H7O+
96.0809	28	C6H10N+
97.0648	17	C6H9O+
103.0542	144	C8H7+
105.0697	26	C8H9+
106.0652	20	C7H8N+
107.0729	56	C7H9N+
107.0855	85	C8H11+
108.0568	35	C7H8O+
108.0809	19	C7H10N+
109.0649	65	C7H9O+
110.06	101	C6H8NO+
111.0677	22	C6H9NO+
115.0542	260	C9H7+
117.0573	18	C8H7N+
117.0699	35	C9H9+
118.0651	60	C8H8N+
119.0491	57	C8H7O+
120.0806	54	C8H10N+
121.0651	27	C8H9O+
122.0601	16	C7H8NO+
123.0803	25	C8H11O+
126.091	35	C7H12NO+
128.0621	86	C10H8+
129.0699	92	C10H9+
131.0491	79	C9H7O+
135.0442	104	C8H7O2+
135.0679	55	C8H9NO+
139.0542	77	C11H7+
141.0574	21	C10H7N+
141.0699	147	C11H9+
142.0652	66	C10H8N+
143.0493	59	C10H7O+
143.0732	14	C10H9N+
143.0855	20	C11H11+
144.0567	13	C10H8O+
144.0806	21	C10H10N+
145.0649	19	C10H9O+
146.0602	31	C9H8NO+
147.0441	28	C9H7O2+
148.0521	13	C9H8O2+
148.0758	36	C9H10NO+
149.0596	99	C9H9O2+
150.0914	821	C9H12NO+
152.0621	244	C12H8+
153.0698	274	C12H9+
154.065	67	C11H8N+
154.0772	72	C12H10+
155.0491	30	C11H7O+
155.0729	31	C11H9N+
155.0855	84	C12H11+
156.0573	21	C11H8O+
156.0808	47	C11H10N+
157.065	59	C11H9O+
159.0442	104	C10H7O2+
160.0521	26	C10H8O2+
161.0596	20	C10H9O2+
164.0619	16	C13H8+
165.0699	543	C13H9+
166.0645	25	C12H8N+
167.0491	71	C12H7O+
167.073	109	C12H9N+
167.0854	93	C13H11+
168.0569	49	C12H8O+
168.0806	156	C12H10N+
169.0523	28	C11H7NO+
169.0648	78	C12H9O+
169.0887	75	C12H11N+
169.1006	15	C13H13+
170.0602	62	C11H8NO+
170.0963	73	C12H12N+
171.0442	41	C11H7O2+
171.0799	50	C12H11O+
171.1042	60	C12H13N+
172.0521	85	C11H8O2+
172.1119	44	C12H14N+
173.0464	20	C10H7NO2+
173.0595	69	C11H9O2+
174.0549	101	C10H8NO2+
175.0628	28	C10H9NO2+
176.0616	15	C14H8+
176.0706	148	C10H10NO2+
177.0693	22	C14H9+
178.0654	20	C13H8N+
178.0778	162	C14H10+
179.0856	225	C14H11+
180.0571	79	C13H8O+
180.0808	152	C13H10N+
181.0648	194	C13H9O+
181.0885	57	C13H11N+
181.1013	34	C14H13+
182.0599	53	C12H8NO+
182.0727	146	C13H10O+
182.0965	199	C13H12N+
183.0675	37	C12H9NO+
183.0806	62	C13H11O+
184.0518	22	C12H8O2+
184.0755	56	C12H10NO+
184.112	21	C13H14N+
185.0597	161	C12H9O2+
186.0543	33	C11H8NO2+
186.0676	33	C12H10O2+
187.0632	32	C11H9NO2+
187.0753	37	C12H11O2+
189.0696	71	C15H9+
190.0777	74	C15H10+
191.0856	175	C15H11+
192.081	84	C14H10N+
192.0936	60	C15H12+
193.0648	93	C14H9O+
193.0887	115	C14H11N+
194.0726	42	C14H10O+
194.0967	108	C14H12N+
195.0805	204	C14H11O+
196.0526	26	C13H8O2+
196.0759	93	C13H10NO+
196.0885	34	C14H12O+
196.1122	108	C14H14N+
197.0596	120	C13H9O2+
197.0842	53	C13H11NO+
197.0962	27	C14H13O+
198.055	126	C12H8NO2+
198.0677	43	C13H10O2+
198.0914	79	C13H12NO+
199.0389	53	C12H7O3+
199.0628	234	C12H9NO2+
199.0756	57	C13H11O2+
200.0471	24	C12H8O3+
200.0708	86	C12H10NO2+
200.1069	52	C13H14NO+
201.0791	21	C12H11NO2+
202.0863	35	C12H12NO2+
206.0961	52	C15H12N+
207.0806	82	C15H11O+
207.1043	59	C15H13N+
208.0757	62	C14H10NO+
208.0886	78	C15H12O+
208.1122	265	C15H14N+
209.0596	139	C14H9O2+
209.0971	19	C15H13O+
210.0678	113	C14H10O2+
210.0913	231	C14H12NO+
211.0628	189	C13H9NO2+
211.0755	124	C14H11O2+
212.0709	217	C13H10NO2+
212.1072	56	C14H14NO+
213.0544	42	C13H9O3+
213.0788	78	C13H11NO2+
214.0863	296	C13H12NO2+
215.0697	22	C13H11O3+
216.102	29	C13H14NO2+
219.0803	36	C16H11O+
220.0761	36	C15H10NO+
221.0589	28	C15H9O2+
221.0846	28	C15H11NO+
222.0671	56	C15H10O2+
222.0914	106	C15H12NO+
223.0628	17	C14H9NO2+
223.0755	161	C15H11O2+
223.1002	37	C15H13NO+
223.1122	21	C16H15O+
224.0709	224	C14H10NO2+
224.1071	147	C15H14NO+
225.0548	69	C14H9O3+
225.0789	143	C14H11NO2+
225.0913	26	C15H13O2+
226.0863	787	C14H12NO2+
227.0576	205	C13H9NO3+
227.0858	50	C18H11+
228.0663	43	C13H10NO3+
228.102	207	C14H14NO2+
229.1103	88	C14H15NO2+
235.0753	37	C16H11O2+
236.0716	25	C15H10NO2+
236.1069	127	C16H14NO+
237.0791	41	C15H11NO2+
237.0918	19	C16H13O2+
238.062	54	C15H10O3+
238.0862	309	C15H12NO2+
238.1226	138	C16H16NO+
239.0709	44	C15H11O3+
239.0951	118	C15H13NO2+
240.1018	999	C15H14NO2+
242.0808	119	C14H12NO3+
242.1169	22	C15H16NO2+
250.0863	177	C16H12NO2+
251.0945	114	C16H13NO2+
252.1021	263	C16H14NO2+
254.0813	71	C15H12NO3+
254.1177	175	C16H16NO2+
256.1322	14	C16H18NO2+
264.1014	82	C17H14NO2+
266.1174	388	C17H16NO2+
268.0968	241	C16H14NO3+
270.1135	30	C16H16NO3+
282.1125	148	C17H16NO3+
284.1275	19	C17H18NO3+
