Mass spectrum: Vincamin; LC-ESI-ITFT; MS2; CE: 75%; R=15000; [M+H]+
Name: Vincamin
Name: Vincamine
Name: methyl (15S,17S,19S)-15-ethyl-17-hydroxy-1,11-diazapentacyclo[9.6.2.02,7.08,18.015,19]nonadeca-2,4,6,8(18)-tetraene-17-carboxylate
Formula: C21H26N2O3
Exact mass: 354.1943
SMILES: CC[C@@]12CCCN3[C@@H]1C4=C(CC3)C5=CC=CC=C5N4[C@](C2)(C(=O)OC)O
InChI: InChI=1S/C21H26N2O3/c1-3-20-10-6-11-22-12-9-15-14-7-4-5-8-16(14)23(17(15)18(20)22)21(25,13-20)19(24)26-2/h4-5,7-8,18,25H,3,6,9-13H2,1-2H3/t18-,20+,21+/m1/s1
Instrument: LTQ Orbitrap XL Thermo Scientific
Instrument type: LC-ESI-ITFT
Ms type: MS2
Ion mode: POSITIVE
Ionization: ESI
Fragmentation mode: HCD
Collision energy: 75% (nominal)
Resolution: 15000
Column name: Kinetex Evo C18 2.6 um 50 x 2.1 mm
Retention time: 6.603 min
Base peak: 355.2014
Precursor m/z: 355.2016
Precursor type: [M+H]+
m/z	relative intensity	assigned
55.0542	5	C4H7+
67.0541	41	C5H7+
68.0495	12	C4H6N+
70.065	83	C4H8N+
79.0542	32	C6H7+
80.0494	6	C5H6N+
81.0334	5	C5H5O+
81.0699	30	C6H9+
82.0651	12	C5H8N+
83.0491	87	C5H7O+
84.0806	9	C5H10N+
91.0542	51	C7H7+
93.0698	54	C7H9+
94.0649	13	C6H8N+
95.0492	11	C6H7O+
95.0854	150	C7H11+
96.0807	26	C6H10N+
98.0963	23	C6H12N+
103.054	6	C8H7+
105.0698	61	C8H9+
106.065	12	C7H8N+
107.0854	48	C8H11+
108.0806	24	C7H10N+
109.0647	12	C7H9O+
109.1012	6	C8H13+
110.0964	143	C7H12N+
111.1042	26	C7H13N+
112.1121	25	C7H14N+
115.0541	7	C9H7+
117.057	7	C8H7N+
117.0698	62	C9H9+
118.065	10	C8H8N+
119.0855	9	C9H11+
120.0808	19	C8H10N+
121.0647	22	C8H9O+
122.06	28	C7H8NO+
122.0962	26	C8H12N+
123.0804	79	C8H11O+
123.1044	15	C8H13N+
124.0755	23	C7H10NO+
124.112	149	C8H14N+
129.0697	16	C10H9+
130.065	60	C9H8N+
131.073	21	C9H9N+
132.0806	29	C9H10N+
133.0646	16	C9H9O+
134.0963	116	C9H12N+
135.0804	34	C9H11O+
136.0755	15	C8H10NO+
137.0959	6	C9H13O+
138.1277	8	C9H16N+
143.0729	45	C10H9N+
144.0806	999	C10H10N+
146.0964	17	C10H12N+
148.0763	5	C9H10NO+
150.0915	10	C9H12NO+
151.0758	8	C9H11O2+
152.1068	256	C9H14NO+
154.0649	8	C11H8N+
154.0863	9	C8H12NO2+
155.0597	9	C10H7N2+
155.0724	6	C11H9N+
156.0807	52	C11H10N+
157.0883	20	C11H11N+
158.0964	56	C11H12N+
160.1123	7	C11H14N+
162.0911	34	C10H12NO+
164.1069	9	C10H14NO+
165.0908	6	C10H13O2+
167.0733	15	C12H9N+
168.0806	39	C12H10N+
169.0887	12	C12H11N+
170.06	32	C11H8NO+
170.0963	36	C12H12N+
171.0913	8	C11H11N2+
172.0986	6	C11H12N2+
172.1123	19	C12H14N+
174.091	8	C11H12NO+
178.0772	6	C14H10+
179.0859	12	C14H11+
180.0807	63	C13H10N+
181.0886	58	C13H11N+
182.0964	43	C13H12N+
183.1045	7	C13H13N+
184.0753	13	C12H10NO+
184.1117	13	C13H14N+
191.0729	23	C14H9N+
192.0808	25	C14H10N+
192.0926	8	C15H12+
193.0886	34	C14H11N+
193.1007	11	C15H13+
194.0962	55	C14H12N+
194.1171	18	C11H16NO2+
195.1047	27	C14H13N+
196.1122	24	C14H14N+
197.1077	10	C13H13N2+
198.1277	20	C14H16N+
204.0805	45	C15H10N+
205.0885	74	C15H11N+
206.0963	122	C15H12N+
207.1044	58	C15H13N+
207.1165	11	C16H15+
208.0756	9	C14H10NO+
208.1119	172	C15H14N+
209.1201	52	C15H15N+
210.1281	35	C15H16N+
212.1277	43	C11H18NO3+
217.0887	18	C16H11N+
218.0962	51	C16H12N+
219.1043	98	C16H13N+
220.112	155	C16H14N+
221.1204	44	C16H15N+
222.1276	135	C16H16N+
223.1235	17	C15H15N2+
223.1366	16	C16H17N+
224.1307	33	C15H16N2+
224.1431	54	C16H18N+
225.1398	9	C15H17N2+
226.1222	11	C15H16NO+
230.0956	7	C17H12N+
231.1039	11	C17H13N+
232.0751	8	C16H10NO+
232.1122	33	C17H14N+
233.0836	8	C16H11NO+
233.1064	6	C16H13N2+
233.1202	28	C17H15N+
234.1275	197	C17H16N+
236.1065	12	C16H14NO+
236.1432	36	C17H18N+
237.0783	20	C15H11NO2+
237.1385	28	C16H17N2+
238.086	41	C15H12NO2+
238.1224	10	C16H16NO+
239.094	79	C15H13NO2+
239.154	8	C16H19N2+
246.1282	11	C18H16N+
247.0992	7	C17H13NO+
247.123	19	C17H15N2+
248.1309	24	C17H16N2+
248.1434	55	C18H18N+
249.1386	42	C17H17N2+
249.1523	16	C18H19N+
250.086	44	C16H12NO2+
250.1227	9	C17H16NO+
250.1593	27	C18H20N+
251.0941	62	C16H13NO2+
252.1017	106	C16H14NO2+
252.1381	9	C17H18NO+
253.1096	87	C16H15NO2+
253.1691	9	C17H21N2+
262.1224	15	C18H16NO+
262.1461	7	C18H18N2+
263.1554	5	C18H19N2+
264.1018	240	C17H14NO2+
265.1096	286	C17H15NO2+
266.1176	247	C17H16NO2+
267.1254	184	C17H17NO2+
268.1332	97	C17H18NO2+
275.1171	13	C18H15N2O+
276.1017	17	C18H14NO2+
277.17	23	C19H21N2+
278.1172	165	C18H16NO2+
279.1252	193	C18H17NO2+
280.1329	520	C18H18NO2+
290.1171	35	C19H16NO2+
291.1261	17	C19H17NO2+
292.1328	112	C19H18NO2+
293.1403	33	C19H19NO2+
294.1486	287	C19H20NO2+
295.18	21	C19H23N2O+
307.1438	87	C19H19N2O2+
337.1902	28	C21H25N2O2+
