Mass spectrum: (+)-Costunolide; LC-ESI-ITFT; MS2; CE: 35%; R=15000; [M+H]+
Name: (+)-Costunolide
Name: Costunolide
Name: (3aS,6E,10E,11aR)-6,10-dimethyl-3-methylidene-3a,4,5,8,9,11a-hexahydrocyclodeca[b]furan-2-one
Formula: C15H20O2
Exact mass: 232.1463
SMILES: C/C/1=C\CC/C(=C/[C@@H]2[C@@H](CC1)C(=C)C(=O)O2)/C
InChI: InChI=1S/C15H20O2/c1-10-5-4-6-11(2)9-14-13(8-7-10)12(3)15(16)17-14/h5,9,13-14H,3-4,6-8H2,1-2H3/b10-5+,11-9+/t13-,14+/m0/s1
Instrument: LTQ Orbitrap XL Thermo Scientific
Instrument type: LC-ESI-ITFT
Ms type: MS2
Ion mode: POSITIVE
Ionization: ESI
Fragmentation mode: HCD
Collision energy: 35% (nominal)
Resolution: 15000
Column name: Kinetex Evo C18 2.6 um 50 x 2.1 mm
Retention time: 11.700 min
Base peak: 116.9859
Precursor m/z: 233.1536
Precursor type: [M+H]+
m/z	relative intensity	assigned
67.0543	5	C5H7+
69.0699	4	C5H9+
79.0542	14	C6H7+
81.0699	75	C6H9+
83.0858	5	C6H11+
91.0543	19	C7H7+
93.0699	61	C7H9+
95.0856	98	C7H11+
97.101	4	C7H13+
105.07	90	C8H9+
107.0856	66	C8H11+
109.1012	38	C8H13+
111.0804	6	C7H11O+
117.0699	9	C9H9+
119.0856	39	C9H11+
121.0646	4	C8H9O+
121.1012	31	C9H13+
123.0804	4	C8H11O+
123.1169	5	C9H15+
125.0598	24	C7H9O2+
131.0856	80	C10H11+
133.1012	39	C10H13+
134.1087	3	C10H14+
135.081	5	C9H11O+
135.1169	12	C10H15+
137.0599	23	C8H9O2+
139.0754	46	C8H11O2+
145.1013	104	C11H13+
147.1169	60	C11H15+
149.0599	10	C9H9O2+
151.0754	28	C9H11O2+
153.0909	4	C9H13O2+
155.0859	11	C12H11+
157.1011	8	C12H13+
159.0804	18	C11H11O+
159.117	81	C12H15+
161.1326	110	C12H17+
163.0754	31	C10H11O2+
165.0912	7	C10H13O2+
171.1171	10	C13H15+
173.0961	19	C12H13O+
173.1327	9	C13H17+
177.0911	95	C11H13O2+
187.1482	999	C14H19+
189.1638	18	C14H21+
191.1067	28	C12H15O2+
197.1325	89	C15H17+
205.159	40	C14H21O+
215.1431	288	C15H19O+
233.1537	767	C15H21O2+
