Mass spectrum: (-)-Nuciferine; LC-ESI-ITFT; MS2; CE: 100%; R=15000; [M+H]+
Name: (-)-Nuciferine
Name: Nuciferine
Name: (6aR)-1,2-dimethoxy-6-methyl-5,6,6a,7-tetrahydro-4H-dibenzo[de,g]quinoline
Formula: C19H21NO2
Exact mass: 295.1572
SMILES: CN1CCc2cc(c(c-3c2[C@H]1Cc4c3cccc4)OC)OC
InChI: InChI=1S/C19H21NO2/c1-20-9-8-13-11-16(21-2)19(22-3)18-14-7-5-4-6-12(14)10-15(20)17(13)18/h4-7,11,15H,8-10H2,1-3H3/t15-/m1/s1
Instrument: LTQ Orbitrap XL Thermo Scientific
Instrument type: LC-ESI-ITFT
Ms type: MS2
Ion mode: POSITIVE
Ionization: ESI
Fragmentation mode: HCD
Collision energy: 100% (nominal)
Resolution: 15000
Column name: Kinetex Evo C18 2.6 um 50 x 2.1 mm
Retention time: 7.626 min
Base peak: 296.1643
Precursor m/z: 296.1645
Precursor type: [M+H]+
m/z	relative intensity	assigned
128.0621	19	C10H8+
141.0698	11	C11H9+
152.062	16	C12H8+
153.07	17	C12H9+
164.0623	5	C13H8+
165.07	197	C13H9+
166.0776	11	C13H10+
167.0857	19	C13H11+
176.0622	11	C14H8+
177.07	74	C14H9+
178.0778	745	C14H10+
179.0856	934	C14H11+
180.0571	10	C13H8O+
181.0648	14	C13H9O+
189.0699	557	C15H9+
190.0778	298	C15H10+
191.0855	999	C15H11+
192.0569	9	C14H8O+
192.0934	31	C15H12+
193.0648	73	C14H9O+
193.1012	85	C15H13+
194.0722	11	C14H10O+
195.0807	21	C14H11O+
201.0699	29	C16H9+
202.0777	313	C16H10+
203.0855	379	C16H11+
204.0931	27	C16H12+
205.0647	114	C15H9O+
205.1011	36	C16H13+
206.0724	29	C15H10O+
207.0804	402	C15H11O+
214.078	6	C17H10+
215.0853	24	C17H11+
217.0647	115	C16H9O+
218.0726	120	C16H10O+
219.0804	205	C16H11O+
220.0518	14	C15H8O2+
220.088	16	C16H12O+
221.0597	76	C15H9O2+
221.096	81	C16H13O+
222.1039	13	C16H14O+
231.0805	54	C17H11O+
232.0881	5	C17H12O+
233.0595	15	C16H9O2+
233.0959	59	C17H13O+
234.0674	14	C16H10O2+
234.1039	30	C17H14O+
235.0752	286	C16H11O2+
249.0909	43	C17H13O2+
250.0992	5	C17H14O2+
