Mass spectrum: (-)-Strychnine; LC-ESI-ITFT; MS2; CE: 90%; R=15000; [M+H]+
Name: (-)-Strychnine
Name: Strychnine
Name: (4aR,5aS,8aR,13aS,15aS,15bR)-4a,5,5a,7,8,13a,15,15a,15b,16-decahydro-2H-4,6-methanoindolo[3,2,1-ij]oxepino[2,3,4-de]pyrrolo[2,3-h]quinolin-14-one
Formula: C21H22N2O2
Exact mass: 334.1681
SMILES: c1ccc2c(c1)[C@]34CCN5[C@H]3C[C@@H]6[C@@H]7[C@@H]4N2C(=O)C[C@@H]7OCC=C6C5
InChI: InChI=1S/C21H22N2O2/c24-18-10-16-19-13-9-17-21(6-7-22(17)11-12(13)5-8-25-16)14-3-1-2-4-15(14)23(18)20(19)21/h1-5,13,16-17,19-20H,6-11H2/t13-,16-,17-,19-,20-,21+/m0/s1
Instrument: LTQ Orbitrap XL Thermo Scientific
Instrument type: LC-ESI-ITFT
Ms type: MS2
Ion mode: POSITIVE
Ionization: ESI
Fragmentation mode: HCD
Collision energy: 90% (nominal)
Resolution: 15000
Column name: Kinetex Evo C18 2.6 um 50 x 2.1 mm
Retention time: 3.141 min
Base peak: 143.0015
Precursor m/z: 335.1754
Precursor type: [M+H]+
m/z	relative intensity	assigned
67.0542	24	C5H7+
68.0493	14	C4H6N+
79.0542	70	C6H7+
81.0699	70	C6H9+
91.0542	75	C7H7+
93.0571	34	C6H7N+
93.0698	41	C7H9+
94.0652	37	C6H8N+
95.0496	14	C6H7O+
95.086	19	C7H11+
96.0807	37	C6H10N+
105.0699	42	C8H9+
106.0651	73	C7H8N+
108.0809	72	C7H10N+
117.07	19	C9H9+
118.0651	33	C8H8N+
120.0803	13	C8H10N+
121.0647	33	C8H9O+
122.0601	37	C7H8NO+
124.076	35	C7H10NO+
128.0622	19	C10H8+
129.0699	240	C10H9+
130.065	109	C9H8N+
132.0441	23	C8H6NO+
132.081	19	C9H10N+
142.0653	34	C10H8N+
143.0726	17	C10H9N+
144.0808	251	C10H10N+
154.0654	58	C11H8N+
155.0725	29	C11H9N+
156.0808	999	C11H10N+
166.0651	57	C12H8N+
167.0731	62	C12H9N+
168.0807	134	C12H10N+
169.0762	37	C11H9N2+
170.0598	26	C11H8NO+
170.0963	77	C12H12N+
171.0915	56	C11H11N2+
180.0807	70	C13H10N+
181.0885	36	C13H11N+
182.0964	70	C13H12N+
183.0678	27	C12H9NO+
184.0757	965	C12H10NO+
191.0728	15	C14H9N+
192.0807	30	C14H10N+
193.0882	33	C14H11N+
194.0599	26	C13H8NO+
194.0964	193	C14H12N+
196.0755	60	C13H10NO+
198.0912	78	C13H12NO+
204.0805	57	C15H10N+
205.0888	53	C15H11N+
206.0962	68	C15H12N+
207.1044	20	C15H13N+
208.1121	27	C15H14N+
210.0906	27	C14H12NO+
217.0886	61	C16H11N+
218.0963	98	C16H12N+
219.104	29	C16H13N+
220.0756	139	C15H10NO+
220.1122	89	C16H14N+
221.0836	34	C15H11NO+
222.0913	154	C15H12NO+
222.1282	18	C16H16N+
230.0959	29	C17H12N+
231.1037	28	C17H13N+
232.1125	23	C17H14N+
234.0912	99	C16H12NO+
234.1278	34	C17H16N+
246.0909	45	C17H12NO+
246.1282	22	C18H16N+
248.1071	35	C17H14NO+
262.1218	43	C18H16NO+
264.1021	47	C17H14NO2+
272.1063	24	C19H14NO+
335.1755	99	C21H23N2O2+
