Mass spectrum: Heliotrine N-oxide; LC-ESI-ITFT; MS2; CE: 55%; R=15000; [M+H]+
Name: Heliotrine N-oxide
Name: [(7S,8R)-7-hydroxy-4-oxido-5,6,7,8-tetrahydro-3H-pyrrolizin-4-ium-1-yl]methyl (2S)-2-hydroxy-2-[(1R)-1-methoxyethyl]-3-methylbutanoate
Formula: C16H27NO6
Exact mass: 329.1838
SMILES: C[C@H]([C@@](C(C)C)(C(=O)OCC1=CC[N+]2([C@H]1[C@H](CC2)O)[O-])O)OC
InChI: InChI=1S/C16H27NO6/c1-10(2)16(20,11(3)22-4)15(19)23-9-12-5-7-17(21)8-6-13(18)14(12)17/h5,10-11,13-14,18,20H,6-9H2,1-4H3/t11-,13+,14-,16+,17?/m1/s1
Instrument: LTQ Orbitrap XL Thermo Scientific
Instrument type: LC-ESI-ITFT
Ms type: MS2
Ion mode: POSITIVE
Ionization: ESI
Fragmentation mode: HCD
Collision energy: 55% (nominal)
Resolution: 15000
Column name: Kinetex Evo C18 2.6 um 50x2.1 mm, Phenomenex
Retention time: 2.723 min
Base peak: 330.1911
Precursor m/z: 330.1911
Precursor type: [M+H]+
m/z	relative intensity	assigned
59.0492	4	C3H7O+
80.0495	9	C5H6N+
81.07	3	C6H9+
82.0414	7	C5H6O+
82.0652	7	C5H8N+
83.0492	8	C5H7O+
93.0573	39	C6H7N+
94.0652	38	C6H8N+
98.0599	9	C5H8NO+
102.0548	8	C4H8NO2+
106.0651	4	C7H8N+
108.0808	15	C7H10N+
109.0648	4	C7H9O+
110.0602	5	C6H8NO+
111.0679	37	C6H9NO+
112.0757	17	C6H10NO+
124.0759	10	C7H10NO+
136.0757	55	C8H10NO+
137.0836	14	C8H11NO+
138.0913	140	C8H12NO+
154.0863	49	C8H12NO2+
155.0942	46	C8H13NO2+
172.0969	999	C8H14NO3+
330.1912	141	C16H28NO6+
