Mass spectrum: Conessine; LC-ESI-ITFT; MS2; CE: 55%; R=15000; [M+H]+
Name: Conessine
Formula: C24H40N2
Exact mass: 356.3191
SMILES: C[C@H]1[C@H]2CC[C@H]3[C@@H]4CC=C5C[C@H](CC[C@]5(C)[C@H]4CC[C@]23CN1C)N(C)C
InChI: InChI=1S/C24H40N2/c1-16-20-8-9-22-19-7-6-17-14-18(25(3)4)10-12-23(17,2)21(19)11-13-24(20,22)15-26(16)5/h6,16,18-22H,7-15H2,1-5H3/t16-,18-,19+,20+,21-,22-,23-,24-/m0/s1
Instrument: LTQ Orbitrap XL Thermo Scientific
Instrument type: LC-ESI-ITFT
Ms type: MS2
Ion mode: POSITIVE
Ionization: ESI
Fragmentation mode: CID
Collision energy: 55 % (nominal)
Resolution: 15000
Column name: Kinetex Evo C18 2.6 um 50 x 2.1 mm
Retention time: 5.272 min
Base peak: 179.1668
Precursor m/z: 357.3264
Precursor type: [M+H]+
m/z	relative intensity	assigned
93.07	1	C7H9+
105.0699	15	C8H9+
107.0854	3	C8H11+
109.101	3	C8H13+
115.0542	5	C9H7+
117.0699	16	C9H9+
119.0855	23	C9H11+
121.1013	8	C9H13+
123.1167	3	C9H15+
128.0622	3	C10H8+
129.0699	12	C10H9+
131.0855	39	C10H11+
133.1012	26	C10H13+
135.1168	14	C10H15+
142.0774	1	C11H10+
143.0856	10	C11H11+
144.0932	4	C11H12+
145.1012	49	C11H13+
147.1168	77	C11H15+
149.1326	8	C11H17+
157.1012	15	C12H13+
159.1169	160	C12H15+
161.1325	136	C12H17+
163.1479	1	C12H19+
169.1015	3	C13H13+
171.1169	20	C13H15+
173.1326	79	C13H17+
175.1481	11	C13H19+
183.117	5	C14H15+
185.1325	22	C14H17+
187.1482	94	C14H19+
189.1636	2	C14H21+
197.1319	2	C15H17+
199.148	28	C15H19+
201.1637	16	C15H21+
211.1479	5	C16H19+
213.1637	22	C16H21+
215.1796	1	C16H23+
225.1644	4	C17H21+
227.1794	20	C17H23+
239.1793	4	C18H23+
240.1873	4	C18H24+
241.1956	4	C18H25+
269.2263	210	C20H29+
281.2261	4	C21H29+
298.2528	6	C21H32N+
299.2611	10	C21H33N+
312.2685	999	C22H34N+
314.2845	1	C22H36N+
326.2844	7	C23H36N+
