Mass spectrum: Cevadine; LC-ESI-ITFT; MS2; CE: 85%; R=15000; [M+H]+
Name: Cevadine
Name: Veratrine
Name: [(1R,2S,6S,9S,10R,11S,12S,14R,15S,18S,19S,22S,23S,25R)-1,10,11,12,14,23-hexahydroxy-6,10,19-trimethyl-24-oxa-4-azaheptacyclo[12.12.0.02,11.04,9.015,25.018,23.019,25]hexacosan-22-yl] (Z)-2-methylbut-2-enoate
Formula: C32H49NO9
Exact mass: 591.3407
SMILES: C/C=C(/C)\C(=O)O[C@H]1CC[C@]2([C@H]3[C@@]1(O[C@@]24C[C@]5([C@@H]6CN7C[C@H](CC[C@H]7[C@@]([C@]6([C@H](C[C@]5([C@@H]4CC3)O)O)O)(C)O)C)O)O)C
InChI: InChI=1S/C32H49NO9/c1-6-18(3)25(35)41-24-11-12-26(4)19-8-9-20-28(37)13-23(34)31(39)21(29(28,38)16-30(20,26)42-32(19,24)40)15-33-14-17(2)7-10-22(33)27(31,5)36/h6,17,19-24,34,36-40H,7-16H2,1-5H3/b18-6-/t17-,19-,20-,21-,22-,23-,24-,26-,27+,28+,29+,30+,31-,32-/m0/s1
Instrument: LTQ Orbitrap XL Thermo Scientific
Instrument type: LC-ESI-ITFT
Ms type: MS2
Ion mode: POSITIVE
Ionization: ESI
Fragmentation mode: HCD
Collision energy: 85% (nominal)
Resolution: 15000
Column name: Kinetex Evo C18 2.6 um 50 x 2.1 mm
Retention time: 9.296 min
Base peak: 116.9858
Precursor m/z: 592.348
Precursor type: [M+H]+
m/z	relative intensity	assigned
55.0541	96	C4H7+
67.0544	10	C5H7+
68.0495	13	C4H6N+
69.0698	29	C5H9+
70.0652	16	C4H8N+
79.0542	42	C6H7+
81.0698	66	C6H9+
82.065	34	C5H8N+
83.0491	256	C5H7O+
84.0807	32	C5H10N+
91.0542	28	C7H7+
93.0698	46	C7H9+
94.0652	37	C6H8N+
95.0489	9	C6H7O+
95.0729	20	C6H9N+
95.0855	15	C7H11+
96.0807	159	C6H10N+
98.0963	237	C6H12N+
105.0698	68	C8H9+
106.0652	17	C7H8N+
107.0489	15	C7H7O+
107.0729	13	C7H9N+
107.0856	26	C8H11+
108.0806	48	C7H10N+
109.0647	48	C7H9O+
109.0886	13	C7H11N+
110.0964	148	C7H12N+
111.1041	23	C7H13N+
112.1119	37	C7H14N+
117.0698	19	C9H9+
119.0853	26	C9H11+
120.0806	49	C8H10N+
121.0647	48	C8H9O+
121.0884	20	C8H11N+
122.0598	14	C7H8NO+
122.0963	94	C8H12N+
124.112	197	C8H14N+
125.1198	78	C8H15N+
126.1276	151	C8H16N+
128.1071	16	C7H14NO+
129.0699	17	C10H9+
131.0732	9	C9H9N+
131.0857	49	C10H11+
132.0808	82	C9H10N+
133.065	23	C9H9O+
133.0884	13	C9H11N+
133.1009	33	C10H13+
134.0962	59	C9H12N+
135.0804	17	C9H11O+
135.1043	16	C9H13N+
136.112	127	C9H14N+
137.1197	27	C9H15N+
138.1276	999	C9H16N+
141.0703	14	C11H9+
143.0854	52	C11H11+
144.0808	24	C10H10N+
145.0646	18	C10H9O+
145.0891	9	C10H11N+
145.1008	30	C11H13+
146.0964	139	C10H12N+
147.0801	16	C10H11O+
147.104	48	C10H13N+
148.0759	13	C9H10NO+
148.112	217	C10H14N+
149.1195	83	C10H15N+
150.1277	218	C10H16N+
152.107	49	C9H14NO+
154.1225	90	C9H16NO+
155.0852	17	C12H11+
157.101	34	C12H13+
158.0963	33	C11H12N+
159.0802	29	C11H11O+
159.1039	13	C11H13N+
159.1171	10	C12H15+
160.112	138	C11H14N+
161.0961	24	C11H13O+
161.1197	92	C11H15N+
162.1276	696	C11H16N+
164.1068	81	C10H14NO+
164.1433	670	C11H18N+
165.1142	11	C10H15NO+
166.1223	28	C10H16NO+
167.0848	18	C13H11+
169.1011	32	C13H13+
171.0803	13	C12H11O+
172.1119	20	C12H14N+
173.0964	17	C12H13O+
173.1204	18	C12H15N+
174.1276	428	C12H16N+
175.0987	10	C11H13NO+
175.1351	87	C12H17N+
176.1069	98	C11H14NO+
176.143	80	C12H18N+
177.1147	56	C11H15NO+
178.1225	157	C11H16NO+
179.0859	11	C14H11+
180.1381	138	C11H18NO+
181.1008	22	C14H13+
183.0807	12	C13H11O+
183.1162	19	C14H15+
185.0959	18	C13H13O+
186.1274	52	C13H16N+
188.1432	784	C13H18N+
190.1224	315	C12H16NO+
190.159	43	C13H20N+
191.1305	162	C12H17NO+
192.1382	260	C12H18NO+
193.101	9	C15H13+
193.146	108	C12H19NO+
197.0962	12	C14H13O+
198.128	17	C14H16N+
200.1424	26	C14H18N+
202.1218	17	C13H16NO+
204.1381	125	C13H18NO+
206.1537	141	C13H20NO+
208.1692	286	C13H22NO+
209.0953	9	C15H13O+
212.1433	17	C15H18N+
214.1582	18	C15H20N+
216.1383	50	C14H18NO+
218.1545	11	C14H20NO+
224.1438	11	C16H18N+
226.1589	16	C16H20N+
228.1375	31	C15H18NO+
230.1538	18	C15H20NO+
234.1482	43	C14H20NO2+
238.1583	15	C17H20N+
242.1537	17	C16H20NO+
244.1327	20	C15H18NO2+
248.1276	14	C14H18NO3+
250.1591	16	C18H20N+
252.1748	15	C18H22N+
254.1538	11	C17H20NO+
260.1635	34	C16H22NO2+
262.1429	33	C15H20NO3+
262.1583	17	C19H20N+
264.1753	16	C19H22N+
266.1536	16	C18H20NO+
280.1692	21	C19H22NO+
290.1898	8	C21H24N+
294.1866	14	C20H24NO+
304.2058	15	C22H26N+
320.1982	15	C19H28O4+
332.1993	11	C23H26NO+
334.2171	13	C23H28NO+
390.2061	15	C25H28NO3+
392.2568	23	C26H34NO2+
394.2357	15	C25H32NO3+
402.2433	20	C27H32NO2+
404.2218	18	C26H30NO3+
420.2523	41	C27H34NO3+
438.2642	57	C27H36NO4+
440.2424	35	C26H34NO5+
454.2599	13	C27H36NO5+
522.0251	14	C31H8NO8+
