Mass spectrum: Jervine; LC-ESI-ITFT; MS2; CE: 60%; R=15000; [M+H]+
Name: Jervine
Name: (3S,3`R,3`aS,6`S,6aS,6bS,7`aR,9R,11aS,11bR)-3-hydroxy-3`,6`,10,11b-tetramethylspiro[1,2,3,4,6,6a,6b,7,8,11a-decahydrobenzo[a]fluorene-9,2`-3a,4,5,6,7,7a-hexahydro-3H-furo[3,2-b]pyridine]-11-one
Formula: C27H39NO3
Exact mass: 425.2930
SMILES: C[C@H]1C[C@@H]2[C@H]([C@H]([C@]3(O2)CC[C@H]4[C@@H]5CC=C6C[C@H](CC[C@@]6([C@H]5C(=O)C4=C3C)C)O)C)NC1
InChI: InChI=1S/C27H39NO3/c1-14-11-21-24(28-13-14)16(3)27(31-21)10-8-19-20-6-5-17-12-18(29)7-9-26(17,4)23(20)25(30)22(19)15(27)2/h5,14,16,18-21,23-24,28-29H,6-13H2,1-4H3/t14-,16+,18-,19-,20-,21+,23+,24-,26-,27-/m0/s1
Instrument: LTQ Orbitrap XL Thermo Scientific
Instrument type: LC-ESI-ITFT
Ms type: MS2
Ion mode: POSITIVE
Ionization: ESI
Fragmentation mode: HCD
Collision energy: 60% (nominal)
Resolution: 15000
Column name: Kinetex Evo C18 2.6 um 50 x 2.1 mm
Retention time: 8.952 min
Base peak: 426.3
Precursor m/z: 426.3003
Precursor type: [M+H]+
m/z	relative intensity	assigned
55.0541	11	C4H7+
57.0698	13	C4H9+
67.0542	313	C5H7+
69.0335	4	C4H5O+
69.0699	20	C5H9+
70.0651	51	C4H8N+
72.0443	8	C3H6NO+
79.0543	39	C6H7+
81.0699	278	C6H9+
82.0651	15	C5H8N+
83.0492	75	C5H7O+
84.0808	412	C5H10N+
85.0648	208	C5H9O+
91.0543	45	C7H7+
93.0699	120	C7H9+
95.0855	95	C7H11+
96.0808	104	C6H10N+
97.0647	18	C6H9O+
98.0964	53	C6H12N+
99.0442	8	C5H7O2+
99.0806	6	C6H11O+
100.0757	29	C5H10NO+
101.0596	14	C5H9O2+
102.0913	83	C5H12NO+
105.0699	150	C8H9+
107.0855	172	C8H11+
109.1012	862	C8H13+
110.0965	9	C7H12N+
111.0803	8	C7H11O+
112.0757	105	C6H10NO+
113.0837	6	C6H11NO+
114.0913	999	C6H12NO+
117.0699	26	C9H9+
119.0855	127	C9H11+
121.1012	246	C9H13+
123.0806	27	C8H11O+
123.1167	15	C9H15+
124.112	25	C8H14N+
125.096	15	C8H13O+
126.1277	62	C8H16N+
129.0698	22	C10H9+
130.0776	6	C10H10+
131.0855	84	C10H11+
133.0647	6	C9H9O+
133.1012	127	C10H13+
135.0804	26	C9H11O+
135.1169	26	C10H15+
137.0965	8	C9H13O+
140.107	25	C8H14NO+
141.0696	5	C11H9+
142.0775	11	C11H10+
143.0855	65	C11H11+
144.093	6	C11H12+
145.1012	308	C11H13+
147.0806	42	C10H11O+
147.1169	81	C11H15+
149.0961	244	C10H13O+
151.1118	19	C10H15O+
155.0856	27	C12H11+
156.0937	8	C12H12+
157.1012	150	C12H13+
159.0809	9	C11H11O+
159.1169	83	C12H15+
161.0962	31	C11H13O+
163.1121	16	C11H15O+
167.0855	6	C13H11+
168.0926	5	C13H12+
169.1012	46	C13H13+
171.0803	10	C12H11O+
171.1168	75	C13H15+
173.0962	72	C12H13O+
173.1325	38	C13H17+
175.1118	149	C12H15O+
181.1011	34	C14H13+
183.117	45	C14H15+
185.0961	16	C13H13O+
185.1326	27	C14H17+
187.1117	43	C13H15O+
187.1479	8	C14H19+
189.1276	25	C13H17O+
193.1009	17	C15H13+
195.1167	45	C15H15+
196.1253	8	C15H16+
197.0959	16	C14H13O+
197.1325	29	C15H17+
198.1037	16	C14H14O+
199.1118	18	C14H15O+
199.148	41	C15H19+
201.1277	14	C14H17O+
201.1638	7	C15H21+
205.1018	4	C16H13+
207.1167	14	C16H15+
209.1324	34	C16H17+
211.1119	17	C15H15O+
211.1481	39	C16H19+
213.1274	16	C15H17O+
213.1638	42	C16H21+
219.1173	11	C17H15+
221.1326	26	C17H17+
223.148	17	C17H19+
225.1637	14	C17H21+
227.1429	15	C16H19O+
231.1163	5	C18H15+
233.1328	11	C18H17+
235.1477	28	C18H19+
237.1632	21	C18H21+
247.148	8	C19H19+
249.1649	13	C19H21+
253.1587	15	C18H21O+
260.1561	7	C20H20+
265.1945	13	C20H25+
275.1794	28	C21H23+
277.195	39	C21H25+
293.1905	18	C21H25O+
295.2057	39	C21H27O+
313.2162	85	C21H29O2+
426.2999	77	C27H40NO3+
