Mass spectrum: Isophorone; LC-ESI-ITFT; MS2; CE: 30%; R=15000; [M+H]+
Name: Isophorone
Name: 3,5,5-trimethylcyclohex-2-en-1-one
Formula: C9H14O
Exact mass: 138.1045
SMILES: CC1=CC(=O)CC(C)(C)C1
InChI: InChI=1S/C9H14O/c1-7-4-8(10)6-9(2,3)5-7/h4H,5-6H2,1-3H3
Instrument: LTQ Orbitrap XL Thermo Scientific
Instrument type: LC-ESI-ITFT
Ms type: MS2
Ion mode: POSITIVE
Ionization: ESI
Fragmentation mode: HCD
Collision energy: 30 % (nominal)
Resolution: 15000
Column name: Kinetex Evo C18 2.6 um 50 x 2.1 mm
Retention time: 8.529 min
Base peak: 139.112
Precursor m/z: 139.1117
Precursor type: [M+H]+
m/z	relative intensity	assigned
69.0333	50	C4H5O+
83.049	4	C5H7O+
95.0855	2	C7H11+
97.0647	3	C6H9O+
121.1011	7	C9H13+
139.1115	999	C9H15O+
