Mass spectrum: Isophorone; LC-ESI-ITFT; MS2; CE: 50%; R=15000; [M+H]+
Name: Isophorone
Name: 3,5,5-trimethylcyclohex-2-en-1-one
Formula: C9H14O
Exact mass: 138.1045
SMILES: CC1=CC(=O)CC(C)(C)C1
InChI: InChI=1S/C9H14O/c1-7-4-8(10)6-9(2,3)5-7/h4H,5-6H2,1-3H3
Instrument: LTQ Orbitrap XL Thermo Scientific
Instrument type: LC-ESI-ITFT
Ms type: MS2
Ion mode: POSITIVE
Ionization: ESI
Fragmentation mode: HCD
Collision energy: 50 % (nominal)
Resolution: 15000
Column name: Kinetex Evo C18 2.6 um 50 x 2.1 mm
Retention time: 8.532 min
Base peak: 139.1119
Precursor m/z: 139.1117
Precursor type: [M+H]+
m/z	relative intensity	assigned
55.0176	1	C3H3O+
59.0489	6	C3H7O+
69.0333	387	C4H5O+
79.0542	4	C6H7+
81.0698	6	C6H9+
83.049	40	C5H7O+
91.0543	1	C7H7+
93.0698	24	C7H9+
95.0855	21	C7H11+
97.0647	60	C6H9O+
97.1011	3	C7H13+
105.0698	5	C8H9+
109.101	1	C8H13+
111.0804	3	C7H11O+
119.085	1	C9H11+
121.101	71	C9H13+
139.1115	999	C9H15O+
