Mass spectrum: Tomatidine; LC-ESI-ITFT; MS2; CE: 70%; R=15000; [M+H]+
Name: Tomatidine
Formula: C27H45NO2
Exact mass: 415.3450
SMILES: C[C@H]1[C@H]2[C@H](C[C@H]3[C@@H]4CC[C@H]5C[C@@H](O)CC[C@]5(C)[C@H]4CC[C@]23C)O[C@@]11CC[C@H](C)CN1
InChI: InChI=1S/C27H45NO2/c1-16-7-12-27(28-15-16)17(2)24-23(30-27)14-22-20-6-5-18-13-19(29)8-10-25(18,3)21(20)9-11-26(22,24)4/h16-24,28-29H,5-15H2,1-4H3/t16-,17-,18-,19-,20+,21-,22-,23-,24-,25-,26-,27-/m0/s1
Instrument: LTQ Orbitrap XL Thermo Scientific
Instrument type: LC-ESI-ITFT
Ms type: MS2
Ion mode: POSITIVE
Ionization: ESI
Fragmentation mode: HCD
Collision energy: 70 % (nominal)
Resolution: 15000
Column name: Kinetex Evo C18 2.6 um 50 x 2.1 mm
Retention time: 10.056 min
Base peak: 217.0494
Precursor m/z: 416.3523
Precursor type: [M+H]+
m/z	relative intensity	assigned
67.0542	38	C5H7+
69.0699	15	C5H9+
70.0651	44	C4H8N+
77.0387	7	C6H5+
79.0543	108	C6H7+
81.0699	93	C6H9+
82.0652	5	C5H8N+
83.0856	6	C6H11+
91.0543	80	C7H7+
93.0699	127	C7H9+
94.0653	6	C6H8N+
95.0856	129	C7H11+
96.0808	14	C6H10N+
97.0649	4	C6H9O+
98.0964	13	C6H12N+
105.0699	220	C8H9+
107.0856	162	C8H11+
109.1012	58	C8H13+
117.0699	25	C9H9+
119.0856	122	C9H11+
121.1012	64	C9H13+
122.0965	7	C8H12N+
123.117	14	C9H15+
124.1121	118	C8H14N+
125.1197	8	C8H15N+
126.1278	145	C8H16N+
131.0856	45	C10H11+
133.1012	95	C10H13+
135.1168	64	C10H15+
136.1123	7	C9H14N+
138.1278	6	C9H16N+
143.0856	6	C11H11+
145.1013	87	C11H13+
147.1169	247	C11H15+
148.1122	5	C10H14N+
149.1326	50	C11H17+
150.1278	25	C10H16N+
151.112	6	C10H15O+
157.1015	11	C12H13+
159.117	130	C12H15+
161.1326	999	C12H17+
163.1119	11	C11H15O+
163.1482	3	C12H19+
164.1435	36	C11H18N+
171.1172	11	C13H15+
173.1327	54	C13H17+
175.1481	8	C13H19+
185.1325	13	C14H17+
187.1483	12	C14H19+
199.1481	31	C15H19+
201.1638	5	C15H21+
213.1641	12	C16H21+
215.1793	4	C16H23+
227.1804	3	C17H23+
255.2109	37	C19H27+
398.3418	6	C27H44NO+
