Mass spectrum: Protopin; LC-ESI-ITFT; MS2; CE: 90%; R=15000; [M+H]+
Name: Protopin
Name: Protopine
Name: 15-methyl-7,9,19,21-tetraoxa-15-azapentacyclo[15.7.0.04,12.06,10.018,22]tetracosa-1(17),4,6(10),11,18(22),23-hexaen-3-one
Formula: C20H19NO5
Exact mass: 353.1263
SMILES: CN1CCC2=CC3=C(C=C2C(=O)CC4=C(C1)C5=C(C=C4)OCO5)OCO3
InChI: InChI=1S/C20H19NO5/c1-21-5-4-13-7-18-19(25-10-24-18)8-14(13)16(22)6-12-2-3-17-20(15(12)9-21)26-11-23-17/h2-3,7-8H,4-6,9-11H2,1H3
Instrument: LTQ Orbitrap XL Thermo Scientific
Instrument type: LC-ESI-ITFT
Ms type: MS2
Ion mode: POSITIVE
Ionization: ESI
Fragmentation mode: HCD
Collision energy: 90% (nominal)
Resolution: 15000
Column name: Kinetex Evo C18 2.6 um 50 x 2.1 mm
Retention time: 6.681 min
Base peak: 354.1335
Precursor m/z: 354.1336
Precursor type: [M+H]+
m/z	relative intensity	assigned
65.0385	4	C5H5+
77.0385	28	C6H5+
79.0542	60	C6H7+
89.0386	11	C7H5+
91.0541	200	C7H7+
93.0698	16	C7H9+
95.049	3	C6H7O+
103.0542	44	C8H7+
105.0333	11	C7H5O+
107.049	99	C7H7O+
109.0645	8	C7H9O+
115.0542	18	C9H7+
117.0334	10	C8H5O+
117.0575	3	C8H7N+
117.0698	14	C9H9+
118.0649	26	C8H8N+
119.049	116	C8H7O+
120.0807	11	C8H10N+
121.0648	7	C8H9O+
130.065	67	C9H8N+
131.049	42	C9H7O+
131.0728	165	C9H9N+
132.0806	28	C9H10N+
135.044	159	C8H7O2+
137.0598	3	C8H9O2+
143.0486	5	C10H7O+
143.0727	7	C10H9N+
144.0806	60	C10H10N+
146.0599	20	C9H8NO+
147.044	154	C9H7O2+
148.0754	12	C9H10NO+
149.0596	268	C9H9O2+
151.0542	7	C12H7+
152.0619	28	C12H8+
153.0696	14	C12H9+
158.0599	15	C10H8NO+
159.0439	35	C10H7O2+
159.0678	182	C10H9NO+
160.0755	142	C10H10NO+
161.0597	17	C10H9O2+
161.081	11	C7H13O4+
163.0388	78	C9H7O3+
164.0624	3	C13H8+
165.0543	10	C9H9O3+
165.0698	48	C13H9+
166.0775	15	C13H10+
167.0854	101	C13H11+
172.0521	3	C11H8O2+
173.0593	8	C11H9O2+
174.0549	74	C10H8NO2+
175.0388	19	C10H7O3+
176.0618	10	C14H8+
176.0704	8	C10H10NO2+
177.0697	78	C14H9+
177.0784	11	C10H11NO2+
178.0775	90	C14H10+
178.0864	4	C10H12NO2+
179.0854	191	C14H11+
181.0647	11	C13H9O+
185.0597	4	C12H9O2+
186.0548	3	C11H8NO2+
187.0383	4	C11H7O3+
187.0632	4	C11H9NO2+
188.0704	999	C11H10NO2+
189.0694	348	C15H9+
189.0784	266	C11H11NO2+
191.0853	45	C15H11+
192.0567	7	C14H8O+
193.0647	10	C14H9O+
194.0732	6	C14H10O+
195.0801	52	C14H11O+
201.0694	6	C16H9+
202.0778	6	C16H10+
204.0812	3	C15H10N+
205.0645	76	C15H9O+
206.0805	29	C11H12NO3+
207.0802	119	C15H11O+
209.0594	157	C14H9O2+
217.0645	138	C16H9O+
219.0802	33	C16H11O+
220.0524	3	C15H8O2+
221.0595	6	C15H9O2+
222.0672	35	C15H10O2+
223.0757	11	C15H11O2+
225.0911	2	C15H13O2+
233.0599	10	C16H9O2+
233.0841	5	C16H11NO+
234.0677	7	C16H10O2+
234.0915	4	C16H12NO+
235.0751	72	C16H11O2+
237.0538	16	C15H9O3+
237.0908	24	C16H13O2+
245.0592	7	C17H9O2+
246.0671	14	C17H10O2+
247.0751	96	C17H11O2+
248.1074	6	C17H14NO+
249.055	4	C16H9O3+
250.0626	6	C16H10O3+
262.0858	15	C17H12NO2+
263.07	14	C17H11O3+
263.0942	8	C17H13NO2+
265.0863	9	C17H13O3+
266.0564	7	C16H10O4+
275.0699	26	C18H11O3+
276.102	7	C18H14NO2+
278.1168	4	C18H16NO2+
290.0806	13	C18H12NO3+
292.0967	9	C18H14NO3+
293.0809	6	C18H13O4+
304.0969	4	C19H14NO3+
318.0766	3	C19H12NO4+
320.0912	34	C19H14NO4+
334.1064	5	C20H16NO4+
