Mass spectrum: 7-Acetyllycopsamine; LC-ESI-ITFT; MS2; CE: 105%; R=15000; [M+H]+
Name: 7-Acetyllycopsamine
Name: Acetyllycopsamine
Name: [(7R,8R)-7-acetyloxy-5,6,7,8-tetrahydro-3H-pyrrolizin-1-yl]methyl (2S)-2-hydroxy-2-[(1S)-1-hydroxyethyl]-3-methylbutanoate
Formula: C17H27NO6
Exact mass: 341.1838
SMILES: C[C@@H]([C@@](C(C)C)(C(=O)OCC1=CCN2[C@H]1[C@@H](CC2)OC(=O)C)O)O
InChI: InChI=1S/C17H27NO6/c1-10(2)17(22,11(3)19)16(21)23-9-13-5-7-18-8-6-14(15(13)18)24-12(4)20/h5,10-11,14-15,19,22H,6-9H2,1-4H3/t11-,14+,15+,17-/m0/s1
Instrument: LTQ Orbitrap XL Thermo Scientific
Instrument type: LC-ESI-ITFT
Ms type: MS2
Ion mode: POSITIVE
Ionization: ESI
Fragmentation mode: HCD
Collision energy: 105% (nominal)
Resolution: 15000
Column name: Kinetex Evo C18 2.6 um 50 x 2.1 mm
Retention time: 2.569 min
Base peak: 143.0015
Precursor m/z: 342.1911
Precursor type: [M+H]+
m/z	relative intensity	assigned
65.0385	42	C5H5+
67.0417	48	C4H5N+
67.0541	64	C5H7+
68.0494	74	C4H6N+
77.0386	130	C6H5+
79.0542	57	C6H7+
80.0495	300	C5H6N+
81.0699	35	C6H9+
82.0651	55	C5H8N+
86.0602	52	C4H8NO+
91.0542	202	C7H7+
92.0494	123	C6H6N+
93.0573	71	C6H7N+
93.0698	144	C7H9+
94.0651	457	C6H8N+
95.073	50	C6H9N+
96.0807	38	C6H10N+
103.0542	99	C8H7+
104.0496	25	C7H6N+
105.0573	129	C7H7N+
106.0651	31	C7H8N+
108.0807	105	C7H10N+
110.0602	50	C6H8NO+
110.0963	17	C7H12N+
112.0752	21	C6H10NO+
118.0651	172	C8H8N+
119.073	71	C8H9N+
120.0808	999	C8H10N+
138.0913	73	C8H12NO+
