Mass spectrum: Conessine; LC-ESI-ITFT; MS2; CE: 85%; R=15000; [M+H]+
Name: Conessine
Formula: C24H40N2
Exact mass: 356.3191
SMILES: C[C@H]1[C@H]2CC[C@H]3[C@@H]4CC=C5C[C@H](CC[C@]5(C)[C@H]4CC[C@]23CN1C)N(C)C
InChI: InChI=1S/C24H40N2/c1-16-20-8-9-22-19-7-6-17-14-18(25(3)4)10-12-23(17,2)21(19)11-13-24(20,22)15-26(16)5/h6,16,18-22H,7-15H2,1-5H3/t16-,18-,19+,20+,21-,22-,23-,24-/m0/s1
Instrument: LTQ Orbitrap XL Thermo Scientific
Instrument type: LC-ESI-ITFT
Ms type: MS2
Ion mode: POSITIVE
Ionization: ESI
Fragmentation mode: CID
Collision energy: 85 % (nominal)
Resolution: 15000
Column name: Kinetex Evo C18 2.6 um 50 x 2.1 mm
Retention time: 5.491 min
Base peak: 179.1666
Precursor m/z: 357.3264
Precursor type: [M+H]+
m/z	relative intensity	assigned
105.0698	13	C8H9+
107.0854	5	C8H11+
109.1008	2	C8H13+
115.0541	6	C9H7+
117.0699	13	C9H9+
119.0855	19	C9H11+
121.1012	7	C9H13+
128.0625	2	C10H8+
129.07	9	C10H9+
131.0855	31	C10H11+
133.1011	24	C10H13+
135.1169	12	C10H15+
143.0855	7	C11H11+
145.1012	34	C11H13+
147.1169	57	C11H15+
149.1326	7	C11H17+
157.1014	11	C12H13+
159.1169	132	C12H15+
161.1325	111	C12H17+
163.1478	2	C12H19+
169.1018	2	C13H13+
171.1171	14	C13H15+
173.1325	64	C13H17+
175.1483	9	C13H19+
183.1166	3	C14H15+
185.1324	18	C14H17+
187.148	77	C14H19+
199.1481	21	C15H19+
201.1638	10	C15H21+
213.1637	18	C16H21+
225.164	4	C17H21+
227.1792	19	C17H23+
239.1792	3	C18H23+
241.1944	5	C18H25+
269.2263	169	C20H29+
298.2532	5	C21H32N+
299.2604	9	C21H33N+
312.2685	999	C22H34N+
326.283	8	C23H36N+
