Mass spectrum: Brucine; LC-ESI-ITFT; MS2; CE: 80%; R=15000; [M+H]+
Name: Brucine
Name: (-)-Brucine
Name: (4aR,5aS,8aR,15bR)-10,11-dimethoxy-4a,5,5a,7,8,13a,15,15a,15b,16-decahydro-2H-4,6-methanoindolo[3,2,1-ij]oxepino[2,3,4-de]pyrrolo[2,3-h]quinolin-14-one
Formula: C23H26N2O4
Exact mass: 394.1893
SMILES: COc1cc2c(cc1OC)N3C4[C@]25CCN6[C@H]5C[C@@H]7[C@H]4C(CC3=O)OCC=C7C6
InChI: InChI=1S/C23H26N2O4/c1-27-16-8-14-15(9-17(16)28-2)25-20(26)10-18-21-13-7-19-23(14,22(21)25)4-5-24(19)11-12(13)3-6-29-18/h3,8-9,13,18-19,21-22H,4-7,10-11H2,1-2H3/t13-,18?,19-,21-,22?,23+/m0/s1
Instrument: LTQ Orbitrap XL Thermo Scientific
Instrument type: LC-ESI-ITFT
Ms type: MS2
Ion mode: POSITIVE
Ionization: ESI
Fragmentation mode: HCD
Collision energy: 80% (nominal)
Resolution: 15000
Column name: Kinetex Evo C18 2.6 um 50 x 2.1 mm
Retention time: 5.942 min
Base peak: 116.9859
Precursor m/z: 395.1965
Precursor type: [M+H]+
m/z	relative intensity	assigned
68.0494	27	C4H6N+
70.0651	20	C4H8N+
79.0542	49	C6H7+
80.0495	33	C5H6N+
81.0699	38	C6H9+
82.065	28	C5H8N+
91.0543	50	C7H7+
93.0573	60	C6H7N+
93.0699	32	C7H9+
94.0651	45	C6H8N+
95.0492	22	C6H7O+
96.081	41	C6H10N+
106.0652	117	C7H8N+
107.0733	13	C7H9N+
108.0809	122	C7H10N+
120.0812	14	C8H10N+
122.06	93	C7H8NO+
124.0758	85	C7H10NO+
144.0804	18	C10H10N+
146.0603	22	C9H8NO+
147.0678	19	C9H9NO+
148.0756	35	C9H10NO+
160.0755	19	C10H10NO+
163.0629	23	C9H9NO2+
170.0604	61	C11H8NO+
172.0758	48	C11H10NO+
173.0838	22	C11H11NO+
176.0706	31	C10H10NO2+
177.0783	25	C10H11NO2+
178.0863	56	C10H12NO2+
183.0676	26	C12H9NO+
184.076	118	C12H10NO+
185.0836	368	C12H11NO+
186.0553	53	C11H8NO2+
186.0917	21	C12H12NO+
187.0622	19	C11H9NO2+
188.0712	21	C11H10NO2+
189.0779	14	C11H11NO2+
190.0864	84	C11H12NO2+
192.0659	59	C10H10NO3+
197.0838	92	C13H11NO+
198.0551	157	C12H8NO2+
200.0706	87	C12H10NO2+
201.0787	108	C12H11NO2+
202.0867	34	C12H12NO2+
203.0951	13	C12H13NO2+
204.1019	34	C12H14NO2+
209.0834	16	C14H11NO+
210.0916	34	C14H12NO+
211.063	28	C13H9NO2+
212.0709	130	C13H10NO2+
213.0785	999	C13H11NO2+
214.0498	197	C12H8NO3+
214.0865	49	C13H12NO2+
216.102	571	C13H14NO2+
221.0843	29	C15H11NO+
222.091	32	C15H12NO+
223.0996	52	C15H13NO+
224.0702	27	C14H10NO2+
224.1066	16	C15H14NO+
226.0864	83	C14H12NO2+
227.0945	91	C14H13NO2+
228.0657	102	C13H10NO3+
228.1019	76	C14H14NO2+
229.0735	669	C13H11NO3+
230.0809	52	C13H12NO3+
230.1174	17	C14H16NO2+
234.0914	53	C16H12NO+
235.0993	40	C16H13NO+
236.0707	111	C15H10NO2+
236.1072	77	C16H14NO+
238.0864	54	C15H12NO2+
239.0937	32	C15H13NO2+
240.1021	40	C15H14NO2+
241.109	14	C15H15NO2+
242.0816	29	C14H12NO3+
243.0895	29	C14H13NO3+
244.097	806	C14H14NO3+
247.0989	28	C17H13NO+
248.0708	56	C16H10NO2+
248.1066	53	C17H14NO+
249.0785	50	C16H11NO2+
249.1141	34	C17H15NO+
250.0866	53	C16H12NO2+
251.0942	211	C16H13NO2+
252.0657	88	C15H10NO3+
252.1024	38	C16H14NO2+
254.0813	24	C15H12NO3+
254.1177	124	C16H16NO2+
256.0966	56	C15H14NO3+
258.1123	31	C15H16NO3+
260.0918	13	C14H14NO4+
260.1082	21	C18H14NO+
262.0862	38	C17H12NO2+
263.0943	171	C17H13NO2+
264.0657	49	C16H10NO3+
264.1022	100	C17H14NO2+
265.0743	34	C16H11NO3+
265.1089	24	C17H15NO2+
266.0815	29	C16H12NO3+
266.1177	44	C17H16NO2+
267.0894	133	C16H13NO3+
268.0972	23	C16H14NO3+
276.1018	42	C18H14NO2+
277.1102	23	C18H15NO2+
278.118	88	C18H16NO2+
280.0971	114	C17H14NO3+
280.1342	22	C18H18NO2+
281.1048	19	C17H15NO3+
282.1127	59	C17H16NO3+
288.1026	25	C19H14NO2+
290.1166	36	C19H16NO2+
291.125	23	C19H17NO2+
292.0964	34	C18H14NO3+
294.1127	47	C18H16NO3+
301.1095	27	C20H15NO2+
306.1128	115	C19H16NO3+
309.1245	15	C18H17N2O3+
321.1354	40	C20H19NO3+
322.1443	31	C20H20NO3+
324.1238	38	C19H18NO4+
379.1642	29	C22H23N2O4+
