Mass spectrum: Isophorone; LC-ESI-ITFT; MS2; CE: 85%; R=15000; [M+H]+
Name: Isophorone
Name: 3,5,5-trimethylcyclohex-2-en-1-one
Formula: C9H14O
Exact mass: 138.1045
SMILES: CC1=CC(=O)CC(C)(C)C1
InChI: InChI=1S/C9H14O/c1-7-4-8(10)6-9(2,3)5-7/h4H,5-6H2,1-3H3
Instrument: LTQ Orbitrap XL Thermo Scientific
Instrument type: LC-ESI-ITFT
Ms type: MS2
Ion mode: POSITIVE
Ionization: ESI
Fragmentation mode: HCD
Collision energy: 85% (nominal)
Resolution: 15000
Column name: Kinetex Evo C18 2.6 um 50 x 2.1 mm
Retention time: 8.704 min
Base peak: 116.9858
Precursor m/z: 139.1117
Precursor type: [M+H]+
m/z	relative intensity	assigned
55.0541	17	C4H7+
67.0539	16	C5H7+
69.0334	999	C4H5O+
77.0385	37	C6H5+
79.0542	108	C6H7+
81.0698	20	C6H9+
83.0491	134	C5H7O+
91.0541	81	C7H7+
93.0699	166	C7H9+
95.0492	25	C6H7O+
95.0854	53	C7H11+
97.0647	351	C6H9O+
103.0543	19	C8H7+
105.0698	112	C8H9+
106.0777	18	C8H10+
110.0724	21	C7H10O+
119.0852	24	C9H11+
121.1011	133	C9H13+
139.1117	218	C9H15O+
