Mass spectrum: Galantamine; LC-ESI-ITFT; MS2; CE: 95%; R=15000; [M+H]+
Name: Galantamine
Formula: C17H21NO3
Exact mass: 287.1521
SMILES: CN1CCC23C=CC(CC2OC4=C(C=CC(=C34)C1)OC)O
InChI: InChI=1S/C17H21NO3/c1-18-8-7-17-6-5-12(19)9-14(17)21-16-13(20-2)4-3-11(10-18)15(16)17/h3-6,12,14,19H,7-10H2,1-2H3
Instrument: LTQ Orbitrap XL Thermo Scientific
Instrument type: LC-ESI-ITFT
Ms type: MS2
Ion mode: POSITIVE
Ionization: ESI
Fragmentation mode: HCD
Collision energy: 95 % (nominal)
Resolution: 15000
Column name: Kinetex Evo C18 2.6 um 50 x 2.1 mm
Retention time: 0.583 min
Base peak: 235.2167
Precursor m/z: 288.1594
Precursor type: [M+H]+
m/z	relative intensity	assigned
77.0386	42	C6H5+
79.0543	37	C6H7+
81.0335	19	C5H5O+
81.0698	10	C6H9+
91.0542	99	C7H7+
93.07	8	C7H9+
94.0649	7	C6H8N+
103.0542	35	C8H7+
105.0699	144	C8H9+
107.0492	19	C7H7O+
109.0647	16	C7H9O+
115.0542	64	C9H7+
121.0649	32	C8H9O+
123.0803	11	C8H11O+
128.0621	148	C10H8+
129.0699	77	C10H9+
131.0491	44	C9H7O+
131.0856	19	C10H11+
132.057	29	C9H8O+
132.0808	23	C9H10N+
133.0655	12	C9H9O+
134.0965	15	C9H12N+
135.0806	98	C9H11O+
137.0603	4	C8H9O2+
141.0699	157	C11H9+
142.0776	161	C11H10+
143.085	31	C11H11+
144.0571	40	C10H8O+
145.0648	91	C10H9O+
146.0724	61	C10H10O+
147.044	14	C9H7O2+
148.0518	15	C9H8O2+
150.0914	6	C9H12NO+
151.0757	13	C9H11O2+
152.0621	142	C12H8+
153.0699	168	C12H9+
154.0772	54	C12H10+
155.0492	314	C11H7O+
155.0853	44	C12H11+
157.0649	38	C11H9O+
158.0725	34	C11H10O+
159.0803	52	C11H11O+
160.0518	20	C10H8O2+
160.0882	46	C11H12O+
161.0595	23	C10H9O2+
161.096	26	C11H13O+
162.0677	12	C10H10O2+
165.07	165	C13H9+
166.0777	92	C13H10+
167.0851	24	C13H11+
168.0571	67	C12H8O+
169.0649	423	C12H9O+
170.0726	285	C12H10O+
173.0599	21	C11H9O2+
174.0677	17	C11H10O2+
175.0754	60	C11H11O2+
175.1123	11	C12H15O+
178.0777	60	C14H10+
179.0856	63	C14H11+
180.0571	22	C13H8O+
181.0648	439	C13H9O+
182.0727	391	C13H10O+
183.044	853	C12H7O2+
185.0962	79	C13H13O+
188.0827	18	C12H12O2+
189.0909	7	C12H13O2+
190.0785	10	C15H10+
191.0859	14	C15H11+
194.0728	24	C14H10O+
195.0804	22	C14H11O+
197.0596	216	C13H9O2+
198.0675	999	C13H10O2+
201.0548	17	C12H9O3+
207.0812	8	C15H11O+
210.0676	26	C14H10O2+
212.0841	7	C14H12O2+
213.0909	87	C14H13O2+
214.0624	15	C13H10O3+
