Mass spectrum: Formononetin; LC-ESI-ITFT; MS2; CE: 70%; R=15000; [M+H]+
Name: Formononetin
Name: 7-hydroxy-3-(4-methoxyphenyl)chromen-4-one
Formula: C16H12O4
Exact mass: 268.0736
SMILES: COc1ccc(cc1)c2coc3cc(ccc3c2=O)O
InChI: InChI=1S/C16H12O4/c1-19-12-5-2-10(3-6-12)14-9-20-15-8-11(17)4-7-13(15)16(14)18/h2-9,17H,1H3
Instrument: LTQ Orbitrap XL Thermo Scientific
Instrument type: LC-ESI-ITFT
Ms type: MS2
Ion mode: POSITIVE
Ionization: ESI
Fragmentation mode: HCD
Collision energy: 70% (nominal)
Resolution: 15000
Column name: Kinetex Evo C18 2.6 um 50 x 2.1 mm
Retention time: 10.650 min
Base peak: 116.9859
Precursor m/z: 269.0808
Precursor type: [M+H]+
m/z	relative intensity	assigned
107.0491	80	C7H7O+
108.021	50	C6H4O2+
118.0413	404	C8H6O+
133.0647	149	C9H9O+
136.0156	192	C7H4O3+
137.0232	206	C7H5O3+
152.0622	35	C12H8+
153.0702	43	C12H9+
156.057	140	C11H8O+
157.065	45	C11H9O+
169.0653	47	C12H9O+
170.0729	118	C12H10O+
181.0647	191	C13H9O+
182.0726	73	C13H10O+
196.052	35	C13H8O2+
197.0597	634	C13H9O2+
198.0676	232	C13H10O2+
209.0601	47	C14H9O2+
213.091	576	C14H13O2+
225.0548	290	C14H9O3+
226.0624	999	C14H10O3+
237.0547	541	C15H9O3+
253.0496	600	C15H9O4+
254.0576	354	C15H10O4+
269.0808	445	C16H13O4+
