Mass spectrum: Fraxidin; LC-ESI-ITFT; MS2; CE: 75%; R=15000; [M+H]+
Name: Fraxidin
Name: 8-hydroxy-6,7-dimethoxychromen-2-one
Formula: C11H10O5
Exact mass: 222.0528
SMILES: COC1=C(OC)C(O)=C2OC(=O)C=CC2=C1
InChI: InChI=1S/C11H10O5/c1-14-7-5-6-3-4-8(12)16-10(6)9(13)11(7)15-2/h3-5,13H,1-2H3
Instrument: LTQ Orbitrap XL Thermo Scientific
Instrument type: LC-ESI-ITFT
Ms type: MS2
Ion mode: POSITIVE
Ionization: ESI
Fragmentation mode: HCD
Collision energy: 75% (nominal)
Resolution: 15000
Column name: Kinetex Evo C18 2.6 um 50 x 2.1 mm
Retention time: 7.600 min
Base peak: 116.9858
Precursor m/z: 223.0601
Precursor type: [M+H]+
m/z	relative intensity	assigned
77.0386	9	C6H5+
78.0465	156	C6H6+
79.0543	15	C6H7+
92.0257	8	C6H4O+
95.049	4	C6H7O+
105.0335	79	C7H5O+
106.0414	134	C7H6O+
107.0491	35	C7H7O+
109.0285	5	C6H5O2+
116.0257	13	C8H4O+
117.0337	7	C8H5O+
118.0413	27	C8H6O+
120.0206	14	C7H4O2+
122.0364	4	C7H6O2+
123.044	31	C7H7O2+
124.0523	5	C7H8O2+
132.0208	13	C8H4O2+
133.0285	79	C8H5O2+
134.0363	319	C8H6O2+
135.0441	257	C8H7O2+
137.0234	15	C7H5O3+
144.0206	26	C9H4O2+
146.0358	11	C9H6O2+
150.0312	34	C8H6O3+
151.0387	16	C8H7O3+
152.0469	32	C8H8O3+
160.0151	4	C9H4O3+
161.0234	47	C9H5O3+
162.0313	999	C9H6O3+
163.0391	70	C9H7O3+
164.0474	5	C9H8O3+
165.0184	28	C8H5O4+
167.0702	19	C9H11O3+
172.0158	5	C10H4O3+
178.0261	168	C9H6O4+
179.0339	302	C9H7O4+
180.0418	26	C9H8O4+
190.0261	391	C10H6O4+
191.0331	4	C10H7O4+
193.0131	26	C9H5O5+
207.0289	425	C10H7O5+
208.0367	92	C10H8O5+
223.0602	31	C11H11O5+
