Mass spectrum: Huperzin A; LC-ESI-ITFT; MS2; CE: 105%; R=15000; [M+H]+
Name: Huperzin A
Name: (-)-Huperazine A
Name: (1R,9R,13E)-1-amino-13-ethylidene-11-methyl-6-azatricyclo[7.3.1.02,7]trideca-2(7),3,10-trien-5-one
Formula: C15H18N2O
Exact mass: 242.1419
SMILES: C/C=C/1\[C@@H]2CC3=C([C@]1(CC(=C2)C)N)C=CC(=O)N3
InChI: InChI=1S/C15H18N2O/c1-3-11-10-6-9(2)8-15(11,16)12-4-5-14(18)17-13(12)7-10/h3-6,10H,7-8,16H2,1-2H3,(H,17,18)/b11-3+/t10-,15+/m0/s1
Instrument: LTQ Orbitrap XL Thermo Scientific
Instrument type: LC-ESI-ITFT
Ms type: MS2
Ion mode: POSITIVE
Ionization: ESI
Fragmentation mode: HCD
Collision energy: 105% (nominal)
Resolution: 15000
Column name: Kinetex Evo C18 2.6 um 50 x 2.1 mm
Retention time: 1.533 min
Base peak: 143.0016
Precursor m/z: 243.1492
Precursor type: [M+H]+
m/z	relative intensity	assigned
118.0653	126	C8H8N+
119.0731	215	C8H9N+
134.0965	189	C9H12N+
154.0655	327	C11H8N+
165.07	492	C13H9+
166.0778	271	C13H10+
167.0726	269	C12H9N+
168.0806	321	C12H10N+
178.0653	419	C13H8N+
181.101	202	C14H13+
182.096	140	C13H12N+
187.0867	144	C11H11N2O+
191.0725	192	C14H9N+
192.0806	589	C14H10N+
193.0888	157	C14H11N+
196.0757	621	C13H10NO+
208.1114	134	C15H14N+
210.0914	999	C14H12NO+
226.1226	263	C15H16NO+
227.1179	348	C14H15N2O+
