Mass spectrum: (+)-Costunolide; LC-ESI-ITFT; MS2; CE: 105%; R=15000; [M+H]+
Name: (+)-Costunolide
Name: Costunolide
Name: (3aS,6E,10E,11aR)-6,10-dimethyl-3-methylidene-3a,4,5,8,9,11a-hexahydrocyclodeca[b]furan-2-one
Formula: C15H20O2
Exact mass: 232.1463
SMILES: C/C/1=C\CC/C(=C/[C@@H]2[C@@H](CC1)C(=C)C(=O)O2)/C
InChI: InChI=1S/C15H20O2/c1-10-5-4-6-11(2)9-14-13(8-7-10)12(3)15(16)17-14/h5,9,13-14H,3-4,6-8H2,1-2H3/b10-5+,11-9+/t13-,14+/m0/s1
Instrument: LTQ Orbitrap XL Thermo Scientific
Instrument type: LC-ESI-ITFT
Ms type: MS2
Ion mode: POSITIVE
Ionization: ESI
Fragmentation mode: HCD
Collision energy: 105% (nominal)
Resolution: 15000
Column name: Kinetex Evo C18 2.6 um 50 x 2.1 mm
Retention time: 11.752 min
Base peak: 116.9859
Precursor m/z: 233.1536
Precursor type: [M+H]+
m/z	relative intensity	assigned
67.0542	134	C5H7+
77.0385	175	C6H5+
79.0542	444	C6H7+
81.0698	339	C6H9+
91.0542	999	C7H7+
93.0699	323	C7H9+
95.0856	146	C7H11+
103.0542	137	C8H7+
105.0699	931	C8H9+
107.0855	137	C8H11+
115.0542	168	C9H7+
116.0621	199	C9H8+
117.0699	414	C9H9+
119.0856	277	C9H11+
128.062	103	C10H8+
129.0699	257	C10H9+
130.0778	197	C10H10+
131.0855	517	C10H11+
133.1009	58	C10H13+
141.0699	39	C11H9+
142.078	46	C11H10+
143.0855	119	C11H11+
144.0935	63	C11H12+
145.1012	247	C11H13+
157.1008	89	C12H13+
159.1169	66	C12H15+
