Mass spectrum: Vincamin; LC-ESI-ITFT; MS2; CE: 70%; R=15000; [M+H]+
Name: Vincamin
Name: Vincamine
Name: methyl (15S,17S,19S)-15-ethyl-17-hydroxy-1,11-diazapentacyclo[9.6.2.02,7.08,18.015,19]nonadeca-2,4,6,8(18)-tetraene-17-carboxylate
Formula: C21H26N2O3
Exact mass: 354.1943
SMILES: CC[C@@]12CCCN3[C@@H]1C4=C(CC3)C5=CC=CC=C5N4[C@](C2)(C(=O)OC)O
InChI: InChI=1S/C21H26N2O3/c1-3-20-10-6-11-22-12-9-15-14-7-4-5-8-16(14)23(17(15)18(20)22)21(25,13-20)19(24)26-2/h4-5,7-8,18,25H,3,6,9-13H2,1-2H3/t18-,20+,21+/m1/s1
Instrument: LTQ Orbitrap XL Thermo Scientific
Instrument type: LC-ESI-ITFT
Ms type: MS2
Ion mode: POSITIVE
Ionization: ESI
Fragmentation mode: HCD
Collision energy: 70% (nominal)
Resolution: 15000
Column name: Kinetex Evo C18 2.6 um 50 x 2.1 mm
Retention time: 6.603 min
Base peak: 355.2014
Precursor m/z: 355.2016
Precursor type: [M+H]+
m/z	relative intensity	assigned
55.0541	6	C4H7+
67.0542	23	C5H7+
68.0493	13	C4H6N+
70.065	66	C4H8N+
79.0542	18	C6H7+
80.0496	6	C5H6N+
81.0698	19	C6H9+
82.065	7	C5H8N+
83.0491	68	C5H7O+
84.0807	15	C5H10N+
91.0541	30	C7H7+
93.0698	53	C7H9+
94.0651	10	C6H8N+
95.0487	10	C6H7O+
95.0854	121	C7H11+
96.0807	18	C6H10N+
98.0963	20	C6H12N+
103.0542	5	C8H7+
105.0698	46	C8H9+
107.0494	4	C7H7O+
107.0854	59	C8H11+
108.0807	24	C7H10N+
109.0648	9	C7H9O+
110.0964	122	C7H12N+
111.1041	30	C7H13N+
112.1119	28	C7H14N+
115.0538	6	C9H7+
117.0573	6	C8H7N+
117.0697	48	C9H9+
118.0653	9	C8H8N+
119.0857	11	C9H11+
120.0807	11	C8H10N+
121.0646	25	C8H9O+
122.0601	24	C7H8NO+
122.0963	21	C8H12N+
123.0803	76	C8H11O+
123.1041	12	C8H13N+
124.0755	20	C7H10NO+
124.112	130	C8H14N+
129.0703	9	C10H9+
130.065	48	C9H8N+
131.073	9	C9H9N+
132.0806	27	C9H10N+
133.0645	18	C9H9O+
134.0963	111	C9H12N+
135.0802	41	C9H11O+
136.0757	10	C8H10NO+
136.1119	8	C9H14N+
137.096	6	C9H13O+
138.1278	8	C9H16N+
143.073	25	C10H9N+
144.0806	999	C10H10N+
146.0964	11	C10H12N+
150.0912	10	C9H12NO+
151.0753	11	C9H11O2+
152.1068	313	C9H14NO+
154.0863	11	C8H12NO2+
155.0729	6	C11H9N+
156.0807	55	C11H10N+
157.0881	18	C11H11N+
158.0964	45	C11H12N+
160.0759	6	C10H10NO+
160.1125	10	C11H14N+
162.0913	39	C10H12NO+
164.1069	15	C10H14NO+
165.0906	7	C10H13O2+
168.0807	35	C12H10N+
169.0892	9	C12H11N+
170.06	33	C11H8NO+
170.0963	38	C12H12N+
171.0913	7	C11H11N2+
172.0991	4	C11H12N2+
172.1121	18	C12H14N+
174.0909	5	C11H12NO+
179.0854	6	C14H11+
180.0805	37	C13H10N+
181.0886	39	C13H11N+
182.0964	43	C13H12N+
184.0752	11	C12H10NO+
184.1114	15	C13H14N+
186.0907	6	C12H12NO+
191.0721	12	C14H9N+
192.0806	14	C14H10N+
193.0889	21	C14H11N+
193.1005	14	C15H13+
194.0964	37	C14H12N+
194.1171	24	C11H16NO2+
195.1044	20	C14H13N+
196.1121	22	C14H14N+
197.1072	8	C13H13N2+
198.0917	9	C13H12NO+
198.1277	17	C14H16N+
204.0807	24	C15H10N+
205.0885	52	C15H11N+
206.0963	80	C15H12N+
207.1042	31	C15H13N+
207.1163	13	C16H15+
208.0756	7	C14H10NO+
208.1119	128	C15H14N+
209.1201	46	C15H15N+
210.1281	33	C15H16N+
212.1279	75	C11H18NO3+
217.0884	15	C16H11N+
218.0964	31	C16H12N+
219.1041	79	C16H13N+
220.112	134	C16H14N+
221.1201	58	C16H15N+
222.0913	6	C15H12NO+
222.1276	117	C16H16N+
224.1306	32	C15H16N2+
224.1432	62	C16H18N+
226.1224	17	C15H16NO+
231.1047	10	C17H13N+
232.1119	32	C17H14N+
233.0837	12	C16H11NO+
233.1072	6	C16H13N2+
233.1204	18	C17H15N+
234.1275	191	C17H16N+
236.1069	12	C16H14NO+
236.1434	44	C17H18N+
237.0786	16	C15H11NO2+
237.1386	21	C16H17N2+
238.0862	31	C15H12NO2+
238.123	10	C16H16NO+
239.094	75	C15H13NO2+
239.154	18	C16H19N2+
246.1275	14	C18H16N+
247.1224	14	C17H15N2+
248.1074	6	C17H14NO+
248.1304	24	C17H16N2+
248.1432	74	C18H18N+
249.1387	42	C17H17N2+
249.152	26	C18H19N+
250.0859	37	C16H12NO2+
250.1596	20	C18H20N+
251.094	41	C16H13NO2+
252.1017	78	C16H14NO2+
252.1394	5	C17H18NO+
253.1101	61	C16H15NO2+
253.1698	17	C17H21N2+
254.1186	6	C16H16NO2+
260.1428	9	C19H18N+
262.1224	18	C18H16NO+
262.1473	6	C18H18N2+
264.1017	143	C17H14NO2+
265.1096	278	C17H15NO2+
266.1175	196	C17H16NO2+
266.1541	13	C18H20NO+
267.1254	196	C17H17NO2+
268.1334	144	C17H18NO2+
275.1171	12	C18H15N2O+
276.1015	10	C18H14NO2+
277.1697	42	C19H21N2+
278.1173	111	C18H16NO2+
278.1784	9	C19H22N2+
279.1252	226	C18H17NO2+
280.133	623	C18H18NO2+
282.1492	10	C18H20NO2+
290.117	28	C19H16NO2+
291.1256	23	C19H17NO2+
292.133	101	C19H18NO2+
293.1411	39	C19H19NO2+
294.1486	449	C19H20NO2+
295.1805	35	C19H23N2O+
306.1497	7	C20H20NO2+
307.1437	93	C19H19N2O2+
320.1649	8	C21H22NO2+
337.1906	65	C21H25N2O2+
