Mass spectrum: (-)-Nuciferine; LC-ESI-ITFT; MS2; CE: 40%; R=15000; [M+H]+
Name: (-)-Nuciferine
Name: Nuciferine
Name: (6aR)-1,2-dimethoxy-6-methyl-5,6,6a,7-tetrahydro-4H-dibenzo[de,g]quinoline
Formula: C19H21NO2
Exact mass: 295.1572
SMILES: CN1CCc2cc(c(c-3c2[C@H]1Cc4c3cccc4)OC)OC
InChI: InChI=1S/C19H21NO2/c1-20-9-8-13-11-16(21-2)19(22-3)18-14-7-5-4-6-12(14)10-15(20)17(13)18/h4-7,11,15H,8-10H2,1-3H3/t15-/m1/s1
Instrument: LTQ Orbitrap XL Thermo Scientific
Instrument type: LC-ESI-ITFT
Ms type: MS2
Ion mode: POSITIVE
Ionization: ESI
Fragmentation mode: HCD
Collision energy: 40% (nominal)
Resolution: 15000
Column name: Kinetex Evo C18 2.6 um 50 x 2.1 mm
Retention time: 7.654 min
Base peak: 296.1644
Precursor m/z: 296.1645
Precursor type: [M+H]+
m/z	relative intensity	assigned
205.1014	6	C16H13+
206.0727	1	C15H10O+
207.081	1	C15H11O+
218.0729	4	C16H10O+
221.0962	5	C16H13O+
222.0673	4	C15H10O2+
222.1041	4	C16H14O+
233.0962	19	C17H13O+
234.1039	189	C17H14O+
235.0752	17	C16H11O2+
235.1118	10	C17H15O+
236.0831	44	C16H12O2+
237.091	11	C16H13O2+
238.0986	5	C16H14O2+
249.0909	1	C17H13O2+
250.0988	413	C17H14O2+
253.122	11	C17H17O2+
265.1222	999	C18H17O2+
296.1646	39	C19H22NO2+
