Mass spectrum: Daidzein; LC-ESI-ITFT; MS2; CE: 105%; R=15000; [M+H]+
Name: Daidzein
Name: 7-hydroxy-3-(4-hydroxyphenyl)chromen-4-one
Formula: C15H10O4
Exact mass: 254.0579
SMILES: c1cc(ccc1c2coc3cc(ccc3c2=O)O)O
InChI: InChI=1S/C15H10O4/c16-10-3-1-9(2-4-10)13-8-19-14-7-11(17)5-6-12(14)15(13)18/h1-8,16-17H
Instrument: LTQ Orbitrap XL Thermo Scientific
Instrument type: LC-ESI-ITFT
Ms type: MS2
Ion mode: POSITIVE
Ionization: ESI
Fragmentation mode: HCD
Collision energy: 105% (nominal)
Resolution: 15000
Column name: Kinetex Evo C18 2.6 um 50 x 2.1 mm
Retention time: 9.213 min
Base peak: 116.9859
Precursor m/z: 255.0652
Precursor type: [M+H]+
m/z	relative intensity	assigned
65.0385	225	C5H5+
77.0386	43	C6H5+
81.0335	240	C5H5O+
89.0388	44	C7H5+
91.0543	999	C7H7+
106.0415	53	C7H6O+
115.0543	62	C9H7+
119.0491	75	C8H7O+
128.0621	349	C10H8+
131.0492	124	C9H7O+
137.0233	368	C7H5O3+
141.07	60	C11H9+
147.0442	50	C9H7O2+
152.0621	680	C12H8+
153.0699	226	C12H9+
169.0656	59	C12H9O+
181.065	378	C13H9O+
197.0593	101	C13H9O2+
199.0747	61	C13H11O2+
