Mass spectrum: (+)-Isocorydin; LC-ESI-ITFT; MS2; CE: 75%; R=15000; [M+H]+
Name: (+)-Isocorydin
Name: Isocorydine
Name: (6aS)-1,2,10-trimethoxy-6-methyl-5,6,6a,7-tetrahydro-4H-dibenzo[de,g]quinolin-11-ol
Formula: C20H23NO4
Exact mass: 341.1627
SMILES: CN1CCC2=CC(=C(C3=C2[C@@H]1CC4=C3C(=C(C=C4)OC)O)OC)OC
InChI: InChI=1S/C20H23NO4/c1-21-8-7-12-10-15(24-3)20(25-4)18-16(12)13(21)9-11-5-6-14(23-2)19(22)17(11)18/h5-6,10,13,22H,7-9H2,1-4H3/t13-/m0/s1
Instrument: LTQ Orbitrap XL Thermo Scientific
Instrument type: LC-ESI-ITFT
Ms type: MS2
Ion mode: POSITIVE
Ionization: ESI
Fragmentation mode: HCD
Collision energy: 75% (nominal)
Resolution: 15000
Column name: Kinetex Evo C18 2.6 um 50 x 2.1 mm
Retention time: 6.274 min
Base peak: 342.1698
Precursor m/z: 342.17
Precursor type: [M+H]+
m/z	relative intensity	assigned
152.0626	6	C12H8+
165.0698	85	C13H9+
166.0777	39	C13H10+
167.0849	10	C13H11+
177.0698	24	C14H9+
178.0775	123	C14H10+
179.0855	96	C14H11+
180.057	5	C13H8O+
180.0932	68	C14H12+
181.0648	27	C13H9O+
181.1019	8	C14H13+
182.0721	9	C13H10O+
189.0697	66	C15H9+
190.0776	168	C15H10+
191.0854	429	C15H11+
192.0936	41	C15H12+
193.0646	131	C14H9O+
193.101	36	C15H13+
194.0725	116	C14H10O+
195.0805	31	C14H11O+
196.0886	9	C14H12O+
197.0955	6	C14H13O+
201.0697	17	C16H9+
202.0775	52	C16H10+
203.0854	60	C16H11+
204.0564	10	C15H8O+
204.0935	6	C16H12+
205.0646	117	C15H9O+
205.101	11	C16H13+
206.0726	197	C15H10O+
207.0803	335	C15H11O+
208.0882	255	C15H12O+
209.0594	32	C14H9O2+
209.0963	65	C15H13O+
210.0674	27	C14H10O2+
217.0647	34	C16H9O+
218.0725	135	C16H10O+
219.0803	344	C16H11O+
220.0516	9	C15H8O2+
220.0885	102	C16H12O+
221.0595	230	C15H9O2+
221.096	71	C16H13O+
222.0676	119	C15H10O2+
222.1045	15	C16H14O+
223.0753	33	C15H11O2+
223.1116	28	C16H15O+
224.0832	63	C15H12O2+
225.0911	52	C15H13O2+
226.0623	8	C14H10O3+
231.0803	140	C17H11O+
233.0595	70	C16H9O2+
233.0959	24	C17H13O+
234.0674	61	C16H10O2+
235.0752	488	C16H11O2+
236.083	999	C16H12O2+
237.0911	439	C16H13O2+
238.0621	415	C15H10O3+
246.0673	35	C17H10O2+
247.0752	557	C17H11O2+
248.0833	234	C17H12O2+
249.0544	75	C16H9O3+
249.0916	40	C17H13O2+
250.0625	17	C16H10O3+
250.0987	30	C17H14O2+
251.0701	27	C16H11O3+
251.1065	60	C17H15O2+
252.0779	36	C16H12O3+
253.0857	532	C16H13O3+
261.0909	14	C18H13O2+
262.0992	12	C18H14O2+
263.0701	184	C17H11O3+
264.0779	358	C17H12O3+
265.0857	782	C17H13O3+
266.057	32	C16H10O4+
267.1017	29	C17H15O3+
277.0858	18	C18H13O3+
278.0944	7	C18H14O3+
279.1013	79	C18H15O3+
280.11	19	C18H16O3+
281.0806	252	C17H13O4+
295.096	7	C18H15O4+
296.1046	19	C18H16O4+
