Mass spectrum: Colchicine; LC-ESI-ITFT; MS2; CE: 80%; R=15000; [M+H]+
Name: Colchicine
Name: N-[(7S)-1,2,3,10-tetramethoxy-9-oxo-6,7-dihydro-5H-benzo[a]heptalen-7-yl]acetamide
Formula: C22H25NO6
Exact mass: 399.1682
SMILES: CC(=O)N[C@H]1CCC2=CC(=C(C(=C2C3=CC=C(C(=O)C=C13)OC)OC)OC)OC
InChI: InChI=1S/C22H25NO6/c1-12(24)23-16-8-6-13-10-19(27-3)21(28-4)22(29-5)20(13)14-7-9-18(26-2)17(25)11-15(14)16/h7,9-11,16H,6,8H2,1-5H3,(H,23,24)/t16-/m0/s1
Instrument: LTQ Orbitrap XL Thermo Scientific
Instrument type: LC-ESI-ITFT
Ms type: MS2
Ion mode: POSITIVE
Ionization: ESI
Fragmentation mode: HCD
Collision energy: 80% (nominal)
Resolution: 15000
Column name: Kinetex Evo C18 2.6 um 50 x 2.1 mm
Retention time: 9.278 min
Base peak: 116.9858
Precursor m/z: 400.1755
Precursor type: [M+H]+
m/z	relative intensity	assigned
133.0523	279	C8H7NO+
137.0598	252	C8H9O2+
148.0521	170	C9H8O2+
150.0553	170	C8H8NO2+
165.0699	229	C13H9+
176.0708	146	C10H10NO2+
176.0836	123	C11H12O2+
177.0538	94	C10H9O3+
178.0783	141	C14H10+
179.0856	208	C14H11+
181.0652	237	C13H9O+
181.0862	145	C10H13O3+
183.0804	96	C13H11O+
188.071	108	C11H10NO2+
194.073	224	C14H10O+
195.0803	517	C14H11O+
196.0885	241	C14H12O+
197.059	214	C13H9O2+
198.0685	161	C13H10O2+
199.0754	167	C13H11O2+
205.0648	259	C15H9O+
206.0728	197	C15H10O+
207.0809	534	C15H11O+
208.0886	264	C15H12O+
209.0596	224	C14H9O2+
209.096	242	C15H13O+
210.0676	159	C14H10O2+
211.0752	368	C14H11O2+
212.083	387	C14H12O2+
213.0912	105	C14H13O2+
219.0807	160	C16H11O+
220.0524	94	C15H8O2+
221.0594	223	C15H9O2+
221.0965	116	C16H13O+
222.0677	352	C15H10O2+
222.091	138	C15H12NO+
223.0754	693	C15H11O2+
224.0832	829	C15H12O2+
225.0551	308	C14H9O3+
225.0778	180	C14H11NO2+
225.091	263	C15H13O2+
226.0622	214	C14H10O3+
226.0859	121	C14H12NO2+
226.0996	103	C15H14O2+
227.0703	582	C14H11O3+
234.0681	143	C16H10O2+
234.0919	106	C16H12NO+
235.0755	755	C16H11O2+
236.0706	130	C15H10NO2+
236.0833	345	C16H12O2+
236.1078	185	C16H14NO+
237.0545	297	C15H9O3+
237.091	443	C16H13O2+
238.0859	156	C15H12NO2+
238.0992	103	C16H14O2+
239.0706	366	C15H11O3+
239.1069	610	C16H15O2+
240.0781	659	C15H12O3+
240.1021	185	C15H14NO2+
241.0858	479	C15H13O3+
242.0813	144	C14H12NO3+
243.0654	85	C14H11O4+
247.076	98	C17H11O2+
249.0773	133	C16H11NO2+
249.0907	157	C17H13O2+
250.063	248	C16H10O3+
250.0867	214	C16H12NO2+
251.0701	836	C16H11O3+
251.0941	70	C16H13NO2+
251.1066	214	C17H15O2+
252.0783	613	C16H12O3+
252.1019	235	C16H14NO2+
253.0498	167	C15H9O4+
253.0731	170	C15H11NO3+
253.0864	232	C16H13O3+
254.0804	86	C15H12NO3+
254.0944	94	C16H14O3+
255.0652	423	C15H11O4+
255.102	277	C16H15O3+
256.0737	128	C15H12O4+
256.0967	98	C15H14NO3+
263.0712	202	C17H11O3+
264.0779	100	C17H12O3+
264.1016	143	C17H14NO2+
265.0859	378	C17H13O3+
267.0651	201	C16H11O4+
267.1015	999	C17H15O3+
268.0734	298	C16H12O4+
268.0974	279	C16H14NO3+
269.0818	194	C16H13O4+
279.0649	147	C17H11O4+
280.0726	155	C17H12O4+
283.0973	314	C17H15O4+
287.0906	90	C16H15O5+
292.0973	87	C18H14NO3+
293.0815	86	C18H13O4+
294.1118	109	C18H16NO3+
295.0964	278	C18H15O4+
300.1237	148	C17H18NO4+
308.0919	99	C18H14NO4+
311.0911	197	C18H15O5+
