Mass spectrum: Retrorsine; LC-ESI-ITFT; MS2; CE: 35%; R=15000; [M+H]+
Name: Retrorsine
Name: (1R,4Z,6R,7S,17R)-4-ethylidene-7-hydroxy-7-(hydroxymethyl)-6-methyl-2,9-dioxa-14-azatricyclo[9.5.1.014,17]heptadec-11-ene-3,8-dione
Formula: C18H25NO6
Exact mass: 351.1682
SMILES: C/C=C\1/C[C@H]([C@@](C(=O)OCC2=CCN3[C@H]2[C@@H](CC3)OC1=O)(CO)O)C
InChI: InChI=1S/C18H25NO6/c1-3-12-8-11(2)18(23,10-20)17(22)24-9-13-4-6-19-7-5-14(15(13)19)25-16(12)21/h3-4,11,14-15,20,23H,5-10H2,1-2H3/b12-3-/t11-,14-,15-,18-/m1/s1
Instrument: LTQ Orbitrap XL Thermo Scientific
Instrument type: LC-ESI-ITFT
Ms type: MS2
Ion mode: POSITIVE
Ionization: ESI
Fragmentation mode: HCD
Collision energy: 35% (nominal)
Resolution: 15000
Column name: Kinetex Evo C18 2.6 um 50 x 2.1 mm
Retention time: 1.617 min
Base peak: 143.0014
Precursor m/z: 352.1755
Precursor type: [M+H]+
m/z	relative intensity	assigned
94.065	5	C6H8N+
120.0807	28	C8H10N+
122.096	2	C8H12N+
138.0913	24	C8H12NO+
151.0757	2	C9H11O2+
322.1646	6	C17H24NO5+
324.1804	15	C17H26NO5+
352.1752	999	C18H26NO6+
