Mass spectrum: Galantamine; LC-ESI-ITFT; MS2; CE: 50%; R=15000; [M+H]+
Name: Galantamine
Formula: C17H21NO3
Exact mass: 287.1521
SMILES: CN1CCC23C=CC(CC2OC4=C(C=CC(=C34)C1)OC)O
InChI: InChI=1S/C17H21NO3/c1-18-8-7-17-6-5-12(19)9-14(17)21-16-13(20-2)4-3-11(10-18)15(16)17/h3-6,12,14,19H,7-10H2,1-2H3
Instrument: LTQ Orbitrap XL Thermo Scientific
Instrument type: LC-ESI-ITFT
Ms type: MS2
Ion mode: POSITIVE
Ionization: ESI
Fragmentation mode: CID
Collision energy: 50 % (nominal)
Resolution: 15000
Column name: Kinetex Evo C18 2.6 um 50x2.1 mm, Phenomenex
Retention time: 0.589 min
Base peak: 235.2166
Precursor m/z: 288.1594
Precursor type: [M+H]+
m/z	relative intensity	assigned
91.0543	1	C7H7+
94.0651	2	C6H8N+
109.065	3	C7H9O+
132.0809	5	C9H10N+
133.0886	6	C9H11N+
134.0966	10	C9H12N+
137.0597	5	C8H9O2+
150.0916	6	C9H12NO+
151.0993	36	C9H13NO+
161.0964	1	C11H13O+
167.0857	2	C13H11+
171.0806	1	C12H11O+
175.0756	10	C11H11O2+
179.0857	15	C14H11+
181.1014	6	C14H13+
189.0912	6	C12H13O2+
197.0963	121	C14H13O+
198.067	2	C13H10O2+
199.0756	70	C13H11O2+
203.107	17	C13H15O2+
207.0808	21	C15H11O+
209.0963	96	C15H13O+
210.0677	7	C14H10O2+
211.1115	4	C15H15O+
213.0912	417	C14H13O2+
216.1021	5	C13H14NO2+
220.1123	5	C16H14N+
221.0965	8	C16H13O+
225.0912	784	C15H13O2+
227.1071	6	C15H15O2+
229.0852	1	C14H13O3+
229.1226	2	C15H17O2+
230.1171	1	C14H16NO2+
231.1017	768	C14H15O3+
238.1228	8	C16H16NO+
239.1068	26	C16H15O2+
241.1224	7	C16H17O2+
242.0939	6	C15H14O3+
245.1173	14	C15H17O3+
253.1225	11	C17H17O2+
255.1256	16	C16H17NO2+
257.1174	53	C16H17O3+
270.149	999	C17H20NO2+
