Mass spectrum: Coniferaldehyde; LC-ESI-ITFT; MS2; CE: 100%; R=15000; [M+H]+
Name: Coniferaldehyde
Formula: C10H10O3
Exact mass: 178.0630
SMILES: COC1=CC(\C=C\C=O)=CC=C1O
InChI: InChI=1S/C10H10O3/c1-13-10-7-8(3-2-6-11)4-5-9(10)12/h2-7,12H,1H3/b3-2+
Instrument: LTQ Orbitrap XL Thermo Scientific
Instrument type: LC-ESI-ITFT
Ms type: MS2
Ion mode: POSITIVE
Ionization: ESI
Fragmentation mode: HCD
Collision energy: 100 % (nominal)
Resolution: 15000
Column name: Kinetex Evo C18 2.6 um 50 x 2.1 mm
Retention time: 7.281 min
Base peak: 179.0702
Precursor m/z: 179.0703
Precursor type: [M+H]+
m/z	relative intensity	assigned
65.0386	102	C5H5+
66.0464	6	C5H6+
67.0541	6	C5H7+
77.0386	71	C6H5+
78.0467	4	C6H6+
79.0542	257	C6H7+
80.0621	104	C6H8+
82.0413	26	C5H6O+
89.0386	60	C7H5+
90.0464	130	C7H6+
91.0542	999	C7H7+
92.0257	17	C6H4O+
93.0334	8	C6H5O+
94.0413	60	C6H6O+
95.0491	21	C6H7O+
102.0463	7	C8H6+
103.0543	61	C8H7+
105.0699	23	C8H9+
107.0491	293	C7H7O+
108.057	51	C7H8O+
109.028	4	C6H5O2+
110.0363	17	C6H6O2+
115.0543	21	C9H7+
117.0331	4	C8H5O+
118.0413	268	C8H6O+
119.0491	177	C8H7O+
121.0284	10	C7H5O2+
122.0363	14	C7H6O2+
131.0494	9	C9H7O+
133.0649	15	C9H9O+
135.0441	100	C8H7O2+
136.0519	168	C8H8O2+
137.0595	3	C8H9O2+
146.0363	142	C9H6O2+
147.0441	31	C9H7O2+
161.0601	4	C10H9O2+
163.0391	9	C9H7O3+
