Mass spectrum: Erucifoline; LC-ESI-ITFT; MS2; CE: 65%; R=15000; [M+H]+
Name: Erucifoline
Name: (5R,7S,9Z,12R,18R)-9-ethylidene-7-(hydroxymethyl)-5-methyl-3,6,11-trioxa-15-azatetracyclo[10.5.1.05,7.015,18]octadec-1(17)-ene-4,10-dione
Formula: C18H23NO6
Exact mass: 349.1525
SMILES: C/C=C\1/C[C@@]2([C@@](O2)(C(=O)OCC3=CCN4[C@H]3[C@@H](CC4)OC1=O)C)CO
InChI: InChI=1S/C18H23NO6/c1-3-11-8-18(10-20)17(2,25-18)16(22)23-9-12-4-6-19-7-5-13(14(12)19)24-15(11)21/h3-4,13-14,20H,5-10H2,1-2H3/b11-3-/t13-,14-,17+,18+/m1/s1
Instrument: LTQ Orbitrap XL Thermo Scientific
Instrument type: LC-ESI-ITFT
Ms type: MS2
Ion mode: POSITIVE
Ionization: ESI
Fragmentation mode: HCD
Collision energy: 65% (nominal)
Resolution: 15000
Column name: Kinetex Evo C18 2.6 um 50 x 2.1 mm
Retention time: 0.959 min
Base peak: 350.1597
Precursor m/z: 350.1598
Precursor type: [M+H]+
m/z	relative intensity	assigned
53.0385	18	C4H5+
55.0542	17	C4H7+
65.0385	17	C5H5+
67.0542	226	C5H7+
68.0495	107	C4H6N+
69.0335	9	C4H5O+
69.0574	9	C4H7N+
69.0698	23	C5H9+
77.0386	75	C6H5+
79.0543	126	C6H7+
80.0495	183	C5H6N+
81.0337	19	C5H5O+
81.0573	42	C5H7N+
81.0699	97	C6H9+
82.0652	179	C5H8N+
83.0492	63	C5H7O+
84.0444	20	C4H6NO+
84.0809	14	C5H10N+
86.0599	8	C4H8NO+
91.0543	226	C7H7+
92.0495	45	C6H6N+
93.0574	19	C6H7N+
93.0699	274	C7H9+
94.0652	549	C6H8N+
95.0492	72	C6H7O+
95.073	65	C6H9N+
95.0856	27	C7H11+
96.0808	406	C6H10N+
97.0648	48	C6H9O+
99.044	15	C5H7O2+
103.0543	130	C8H7+
105.0573	30	C7H7N+
105.0698	32	C8H9+
106.0652	73	C7H8N+
107.0488	15	C7H7O+
107.073	29	C7H9N+
108.0808	141	C7H10N+
109.0648	137	C7H9O+
109.0885	19	C7H11N+
110.06	41	C6H8NO+
110.0965	133	C7H12N+
111.0441	69	C6H7O2+
111.0805	15	C7H11O+
113.0592	8	C6H9O2+
118.0652	133	C8H8N+
119.0731	34	C8H9N+
120.0808	999	C8H10N+
121.0648	64	C8H9O+
121.0886	90	C8H11N+
122.0964	198	C8H12N+
123.0441	57	C7H7O2+
123.0802	15	C8H11O+
125.0598	59	C7H9O2+
136.0758	44	C8H10NO+
136.1123	14	C9H14N+
137.0595	24	C8H9O2+
138.0914	820	C8H12NO+
139.0392	6	C7H7O3+
139.0755	15	C8H11O2+
139.0998	10	C8H13NO+
140.1069	25	C8H14NO+
141.0545	48	C7H9O3+
146.0965	27	C10H12N+
148.1118	13	C10H14N+
149.0594	21	C9H9O2+
154.0857	8	C8H12NO2+
156.1018	23	C8H14NO2+
164.1071	94	C10H14NO+
165.0549	21	C9H9O3+
174.0918	10	C11H12NO+
182.0809	10	C9H12NO3+
182.1176	12	C10H16NO2+
192.102	12	C11H14NO2+
220.1333	101	C13H18NO2+
236.1276	10	C13H18NO3+
322.1652	30	C17H24NO5+
350.1599	164	C18H24NO6+
