Mass spectrum: Senecionine N-oxide; LC-ESI-ITFT; MS2; CE: 35%; R=15000; [M+H]+
Name: Senecionine N-oxide
Name: (1R,4Z,6R,7R,17R)-4-ethylidene-7-hydroxy-6,7-dimethyl-14-oxido-2,9-dioxa-14-azoniatricyclo[9.5.1.014,17]heptadec-11-ene-3,8-dione
Formula: C18H25NO6
Exact mass: 351.1682
SMILES: C/C=C\1/C[C@H]([C@@](C(=O)OCC2=CC[N+]3([C@H]2[C@@H](CC3)OC1=O)[O-])(C)O)C
InChI: InChI=1S/C18H25NO6/c1-4-12-9-11(2)18(3,22)17(21)24-10-13-5-7-19(23)8-6-14(15(13)19)25-16(12)20/h4-5,11,14-15,22H,6-10H2,1-3H3/b12-4-/t11-,14-,15-,18-,19?/m1/s1
Instrument: LTQ Orbitrap XL Thermo Scientific
Instrument type: LC-ESI-ITFT
Ms type: MS2
Ion mode: POSITIVE
Ionization: ESI
Fragmentation mode: HCD
Collision energy: 35% (nominal)
Resolution: 15000
Column name: Kinetex Evo C18 2.6 um 50 x 2.1 mm
Retention time: 5.458 min
Base peak: 352.1754
Precursor m/z: 352.1755
Precursor type: [M+H]+
m/z	relative intensity	assigned
81.0699	2	C6H9+
93.0572	2	C6H7N+
94.065	3	C6H8N+
95.0729	10	C6H9N+
106.0651	2	C7H8N+
118.0651	31	C8H8N+
119.073	19	C8H9N+
120.0807	16	C8H10N+
121.0886	18	C8H11N+
122.0966	2	C8H12N+
136.0754	12	C8H10NO+
137.0834	4	C8H11NO+
138.0914	10	C8H12NO+
153.0909	2	C9H13O2+
154.0862	9	C8H12NO2+
220.1332	22	C13H18NO2+
246.1488	5	C15H20NO2+
248.1646	6	C15H22NO2+
324.181	7	C17H26NO5+
352.1754	999	C18H26NO6+
