Mass spectrum: Tomatidine; LC-ESI-ITFT; MS2; CE: 80%; R=15000; [M+H]+
Name: Tomatidine
Formula: C27H45NO2
Exact mass: 415.3450
SMILES: C[C@H]1[C@H]2[C@H](C[C@H]3[C@@H]4CC[C@H]5C[C@@H](O)CC[C@]5(C)[C@H]4CC[C@]23C)O[C@@]11CC[C@H](C)CN1
InChI: InChI=1S/C27H45NO2/c1-16-7-12-27(28-15-16)17(2)24-23(30-27)14-22-20-6-5-18-13-19(29)8-10-25(18,3)21(20)9-11-26(22,24)4/h16-24,28-29H,5-15H2,1-4H3/t16-,17-,18-,19-,20+,21-,22-,23-,24-,25-,26-,27-/m0/s1
Instrument: LTQ Orbitrap XL Thermo Scientific
Instrument type: LC-ESI-ITFT
Ms type: MS2
Ion mode: POSITIVE
Ionization: ESI
Fragmentation mode: CID
Collision energy: 80 % (nominal)
Resolution: 15000
Column name: Kinetex Evo C18 2.6 um 50 x 2.1 mm
Retention time: 10.056 min
Base peak: 217.0493
Precursor m/z: 416.3523
Precursor type: [M+H]+
m/z	relative intensity	assigned
105.0699	2	C8H9+
119.0856	4	C9H11+
121.1011	4	C9H13+
124.1122	6	C8H14N+
126.1278	45	C8H16N+
128.0624	1	C10H8+
129.0697	3	C10H9+
131.0856	12	C10H11+
133.1013	15	C10H13+
135.1169	10	C10H15+
143.0855	4	C11H11+
145.1013	43	C11H13+
147.1169	55	C11H15+
149.1324	7	C11H17+
151.1122	5	C10H15O+
157.1015	5	C12H13+
159.1169	59	C12H15+
161.1325	173	C12H17+
163.1118	18	C11H15O+
164.1429	1	C11H18N+
171.117	8	C13H15+
173.1325	57	C13H17+
175.1482	7	C13H19+
185.1325	24	C14H17+
187.1482	15	C14H19+
189.1633	2	C14H21+
191.1431	1	C13H19O+
199.1481	34	C15H19+
213.1638	25	C16H21+
215.1796	12	C16H23+
227.1795	20	C17H23+
255.2108	496	C19H27+
273.2212	352	C19H29O+
398.3417	999	C27H44NO+
