Mass spectrum: Echimidine N-oxide; LC-ESI-ITFT; MS2; CE: 105%; R=15000; [M+H]+
Name: Echimidine N-oxide
Name: [(7R,8R)-7-[(Z)-2-methylbut-2-enoyl]oxy-4-oxido-5,6,7,8-tetrahydro-3H-pyrrolizin-4-ium-1-yl]methyl (2R)-2,3-dihydroxy-2-[(1S)-1-hydroxyethyl]-3-methylbutanoate
Formula: C20H31NO8
Exact mass: 413.2050
SMILES: C/C=C(/C)\C(=O)O[C@@H]1CC[N+]2([C@@H]1C(=CC2)COC(=O)[C@@]([C@H](C)O)(C(C)(C)O)O)[O-]
InChI: InChI=1S/C20H31NO8/c1-6-12(2)17(23)29-15-8-10-21(27)9-7-14(16(15)21)11-28-18(24)20(26,13(3)22)19(4,5)25/h6-7,13,15-16,22,25-26H,8-11H2,1-5H3/b12-6-/t13-,15+,16+,20-,21?/m0/s1
Instrument: LTQ Orbitrap XL Thermo Scientific
Instrument type: LC-ESI-ITFT
Ms type: MS2
Ion mode: POSITIVE
Ionization: ESI
Fragmentation mode: HCD
Collision energy: 105% (nominal)
Resolution: 15000
Column name: Kinetex Evo C18 2.6 um 50 x 2.1 mm
Retention time: 6.545 min
Base peak: 414.2117
Precursor m/z: 414.2122
Precursor type: [M+H]+
m/z	relative intensity	assigned
55.0541	184	C4H7+
65.0386	15	C5H5+
66.0463	33	C5H6+
67.0416	32	C4H5N+
67.0541	71	C5H7+
68.0495	56	C4H6N+
77.0385	26	C6H5+
79.0542	122	C6H7+
80.0494	585	C5H6N+
81.0572	38	C5H7N+
81.0698	53	C6H9+
82.0413	26	C5H6O+
82.0651	61	C5H8N+
83.0491	674	C5H7O+
84.0443	64	C4H6NO+
91.0542	169	C7H7+
92.0494	74	C6H6N+
93.0573	348	C6H7N+
93.0698	30	C7H9+
94.0651	999	C6H8N+
95.0492	14	C6H7O+
95.073	39	C6H9N+
96.0442	28	C5H6NO+
98.0602	21	C5H8NO+
103.0542	32	C8H7+
105.0571	12	C7H7N+
105.0694	10	C8H9+
106.065	466	C7H8N+
107.0727	29	C7H9N+
108.0807	204	C7H10N+
109.0885	22	C7H11N+
110.0599	56	C6H8NO+
111.0678	113	C6H9NO+
112.0756	37	C6H10NO+
117.0571	37	C8H7N+
118.065	412	C8H8N+
119.0729	160	C8H9N+
120.0807	340	C8H10N+
122.0602	11	C7H8NO+
124.0756	65	C7H10NO+
132.0803	13	C9H10N+
136.0756	259	C8H10NO+
137.0833	28	C8H11NO+
138.0911	17	C8H12NO+
141.091	42	C8H13O2+
146.0971	12	C10H12N+
154.0863	42	C8H12NO2+
172.097	10	C8H14NO3+
