Mass spectrum: Isophorone; LC-ESI-ITFT; MS2; CE: 65%; R=15000; [M+H]+
Name: Isophorone
Name: 3,5,5-trimethylcyclohex-2-en-1-one
Formula: C9H14O
Exact mass: 138.1045
SMILES: CC1=CC(=O)CC(C)(C)C1
InChI: InChI=1S/C9H14O/c1-7-4-8(10)6-9(2,3)5-7/h4H,5-6H2,1-3H3
Instrument: LTQ Orbitrap XL Thermo Scientific
Instrument type: LC-ESI-ITFT
Ms type: MS2
Ion mode: POSITIVE
Ionization: ESI
Fragmentation mode: HCD
Collision energy: 65% (nominal)
Resolution: 15000
Column name: Kinetex Evo C18 2.6 um 50 x 2.1 mm
Retention time: 8.687 min
Base peak: 116.9858
Precursor m/z: 139.1117
Precursor type: [M+H]+
m/z	relative intensity	assigned
55.0541	11	C4H7+
69.0334	985	C4H5O+
79.0542	31	C6H7+
81.0698	23	C6H9+
83.0491	124	C5H7O+
93.0698	117	C7H9+
95.0855	55	C7H11+
97.0648	232	C6H9O+
105.0698	58	C8H9+
111.0805	12	C7H11O+
121.1011	181	C9H13+
139.1117	999	C9H15O+
