Mass spectrum: Papaverin; LC-ESI-ITFT; MS2; CE: 80%; R=15000; [M+H]+
Name: Papaverin
Name: Papaverine
Name: 1-[(3,4-dimethoxyphenyl)methyl]-6,7-dimethoxyisoquinoline
Formula: C20H21NO4
Exact mass: 339.1471
SMILES: COC1=C(C=C(C=C1)CC2=NC=CC3=CC(=C(C=C32)OC)OC)OC
InChI: InChI=1S/C20H21NO4/c1-22-17-6-5-13(10-18(17)23-2)9-16-15-12-20(25-4)19(24-3)11-14(15)7-8-21-16/h5-8,10-12H,9H2,1-4H3
Instrument: LTQ Orbitrap XL Thermo Scientific
Instrument type: LC-ESI-ITFT
Ms type: MS2
Ion mode: POSITIVE
Ionization: ESI
Fragmentation mode: HCD
Collision energy: 80% (nominal)
Resolution: 15000
Column name: Kinetex Evo C18 2.6 um 50 x 2.1 mm
Retention time: 7.588 min
Base peak: 340.1542
Precursor m/z: 340.1543
Precursor type: [M+H]+
m/z	relative intensity	assigned
77.0384	9	C6H5+
91.0542	11	C7H7+
95.0491	79	C6H7O+
103.0542	24	C8H7+
107.0491	19	C7H7O+
108.057	7	C7H8O+
115.0542	58	C9H7+
116.0494	15	C8H6N+
117.0698	14	C9H9+
118.065	12	C8H8N+
121.065	5	C8H9O+
123.0441	144	C7H7O2+
128.0495	79	C9H6N+
129.0573	15	C9H7N+
130.041	5	C9H6O+
130.0651	33	C9H8N+
131.0492	38	C9H7O+
131.073	19	C9H9N+
132.057	16	C9H8O+
133.0287	6	C8H5O2+
133.0645	7	C9H9O+
135.0443	15	C8H7O2+
136.0518	8	C8H8O2+
138.0677	13	C8H10O2+
140.0495	23	C10H6N+
141.0573	37	C10H7N+
142.0651	55	C10H8N+
143.0727	13	C10H9N+
144.0444	23	C9H6NO+
144.0573	5	C10H8O+
144.0806	11	C10H10N+
145.0647	24	C10H9O+
146.06	20	C9H8NO+
146.0726	3	C10H10O+
147.0806	9	C10H11O+
148.0519	32	C9H8O2+
151.0755	16	C9H11O2+
155.0364	10	C10H5NO+
155.0729	4	C11H9N+
156.0444	159	C10H6NO+
157.0516	33	C10H7NO+
157.0886	6	C11H11N+
158.0601	216	C10H8NO+
159.0677	98	C10H9NO+
160.0521	11	C10H8O2+
160.0756	32	C10H10NO+
161.0598	12	C10H9O2+
162.067	2	C10H10O2+
170.0603	55	C11H8NO+
171.0679	999	C11H9NO+
172.0394	15	C10H6NO2+
172.0722	92	C8H12O4+
174.0551	32	C10H8NO2+
174.0675	6	C11H10O2+
174.0915	13	C11H12NO+
175.0753	63	C11H11O2+
183.068	9	C12H9NO+
186.055	206	C11H8NO2+
187.0628	182	C11H9NO2+
188.0708	35	C11H10NO2+
189.0785	66	C11H11NO2+
190.0865	14	C11H12NO2+
200.0704	12	C12H10NO2+
202.0862	708	C12H12NO2+
204.0651	6	C11H10NO3+
209.0839	8	C14H11NO+
220.0757	24	C15H10NO+
221.0841	10	C15H11NO+
222.0916	18	C15H12NO+
223.0999	19	C15H13NO+
224.1073	23	C15H14NO+
227.094	11	C14H13NO2+
234.0914	26	C16H12NO+
235.0994	39	C16H13NO+
236.1079	15	C16H14NO+
237.0784	11	C15H11NO2+
238.0863	20	C15H12NO2+
240.102	64	C15H14NO2+
248.0696	9	C16H10NO2+
248.107	5	C17H14NO+
249.0795	6	C16H11NO2+
250.0864	36	C16H12NO2+
251.0944	42	C16H13NO2+
252.1021	94	C16H14NO2+
254.1178	23	C16H16NO2+
262.0864	17	C17H12NO2+
263.0943	48	C17H13NO2+
264.1025	40	C17H14NO2+
266.0812	18	C16H12NO3+
266.1175	64	C17H16NO2+
267.0902	5	C16H13NO3+
278.0815	17	C17H12NO3+
278.1171	14	C18H16NO2+
279.0891	73	C17H13NO3+
280.0968	351	C17H14NO3+
282.1128	47	C17H16NO3+
292.097	15	C18H14NO3+
294.1124	64	C18H16NO3+
296.1281	90	C18H18NO3+
308.0918	404	C18H14NO4+
309.099	73	C18H15NO4+
322.1072	26	C19H16NO4+
324.123	677	C19H18NO4+
