Mass spectrum: Papaverin; LC-ESI-ITFT; MS2; CE: 70%; R=15000; [M+H]+
Name: Papaverin
Name: Papaverine
Name: 1-[(3,4-dimethoxyphenyl)methyl]-6,7-dimethoxyisoquinoline
Formula: C20H21NO4
Exact mass: 339.1471
SMILES: COC1=C(C=C(C=C1)CC2=NC=CC3=CC(=C(C=C32)OC)OC)OC
InChI: InChI=1S/C20H21NO4/c1-22-17-6-5-13(10-18(17)23-2)9-16-15-12-20(25-4)19(24-3)11-14(15)7-8-21-16/h5-8,10-12H,9H2,1-4H3
Instrument: LTQ Orbitrap XL Thermo Scientific
Instrument type: LC-ESI-ITFT
Ms type: MS2
Ion mode: POSITIVE
Ionization: ESI
Fragmentation mode: HCD
Collision energy: 70% (nominal)
Resolution: 15000
Column name: Kinetex Evo C18 2.6 um 50 x 2.1 mm
Retention time: 7.588 min
Base peak: 340.1542
Precursor m/z: 340.1543
Precursor type: [M+H]+
m/z	relative intensity	assigned
91.054	2	C7H7+
95.0491	29	C6H7O+
103.0543	4	C8H7+
107.049	5	C7H7O+
108.0568	2	C7H8O+
115.0542	15	C9H7+
116.0495	6	C8H6N+
117.0699	6	C9H9+
123.044	104	C7H7O2+
128.0496	14	C9H6N+
129.0572	6	C9H7N+
130.0651	6	C9H8N+
131.0492	7	C9H7O+
131.0729	6	C9H9N+
132.0569	5	C9H8O+
133.0647	5	C9H9O+
135.0442	5	C8H7O2+
136.0517	6	C8H8O2+
138.0675	5	C8H10O2+
140.0495	4	C10H6N+
141.0571	9	C10H7N+
142.0651	31	C10H8N+
143.0725	7	C10H9N+
144.0445	7	C9H6NO+
144.0806	11	C10H10N+
145.0648	10	C10H9O+
146.0602	7	C9H8NO+
147.0805	7	C10H11O+
148.0518	24	C9H8O2+
151.0752	12	C9H11O2+
155.0367	4	C10H5NO+
155.0728	4	C11H9N+
156.0444	37	C10H6NO+
157.0519	12	C10H7NO+
157.0887	5	C11H11N+
158.0601	94	C10H8NO+
159.0677	48	C10H9NO+
160.0519	4	C10H8O2+
160.0753	14	C10H10NO+
161.0597	7	C10H9O2+
162.068	4	C10H10O2+
170.0601	30	C11H8NO+
171.0678	649	C11H9NO+
172.0395	6	C10H6NO2+
172.0725	65	C8H12O4+
174.0549	11	C10H8NO2+
174.0674	4	C11H10O2+
174.0913	11	C11H12NO+
175.0753	40	C11H11O2+
183.068	2	C12H9NO+
186.055	98	C11H8NO2+
187.0628	132	C11H9NO2+
188.0708	29	C11H10NO2+
189.0784	35	C11H11NO2+
190.0864	7	C11H12NO2+
200.0704	2	C12H10NO2+
202.0862	752	C12H12NO2+
204.0655	2	C11H10NO3+
219.1045	4	C16H13N+
220.0761	4	C15H10NO+
222.0919	2	C15H12NO+
223.0992	3	C15H13NO+
224.1066	5	C15H14NO+
227.0935	3	C14H13NO2+
234.0906	6	C16H12NO+
235.0992	17	C16H13NO+
236.1074	11	C16H14NO+
237.0789	3	C15H11NO2+
238.0858	2	C15H12NO2+
240.1017	27	C15H14NO2+
241.1108	11	C15H15NO2+
248.0703	2	C16H10NO2+
248.1071	6	C17H14NO+
249.0788	2	C16H11NO2+
249.115	13	C17H15NO+
250.0869	3	C16H12NO2+
251.0944	11	C16H13NO2+
252.1019	47	C16H14NO2+
254.1179	8	C16H16NO2+
262.0859	4	C17H12NO2+
263.0945	10	C17H13NO2+
264.1021	33	C17H14NO2+
266.1174	41	C17H16NO2+
267.0899	4	C16H13NO3+
267.1267	6	C17H17NO2+
278.0804	3	C17H12NO3+
278.1175	15	C18H16NO2+
279.0895	20	C17H13NO3+
279.1255	6	C18H17NO2+
280.0968	107	C17H14NO3+
281.1058	18	C17H15NO3+
282.1125	44	C17H16NO3+
292.0975	10	C18H14NO3+
294.1124	61	C18H16NO3+
295.1204	28	C18H17NO3+
296.128	157	C18H18NO3+
308.0917	108	C18H14NO4+
308.1275	12	C19H18NO3+
309.0998	57	C18H15NO4+
310.1073	14	C18H16NO4+
322.1079	16	C19H16NO4+
324.1229	999	C19H18NO4+
340.1546	11	C20H22NO4+
