Mass spectrum: Psoralen; LC-ESI-ITFT; MS2; CE: 80%; R=15000; [M+H]+
Name: Psoralen
Name: furo[3,2-g]chromen-7-one
Formula: C11H6O3
Exact mass: 186.0317
SMILES: O=C1OC2=CC3=C(C=CO3)C=C2C=C1
InChI: InChI=1S/C11H6O3/c12-11-2-1-7-5-8-3-4-13-9(8)6-10(7)14-11/h1-6H
Instrument: LTQ Orbitrap XL Thermo Scientific
Instrument type: LC-ESI-ITFT
Ms type: MS2
Ion mode: POSITIVE
Ionization: ESI
Fragmentation mode: HCD
Collision energy: 80 % (nominal)
Resolution: 15000
Column name: Kinetex Evo C18 2.6 um 50 x 2.1 mm
Retention time: 9.108 min
Base peak: 187.0389
Precursor m/z: 187.039
Precursor type: [M+H]+
m/z	relative intensity	assigned
77.0387	21	C6H5+
89.0385	4	C7H5+
95.0494	2	C6H7O+
102.0464	3	C8H6+
103.0544	47	C8H7+
115.0544	432	C9H7+
131.0493	999	C9H7O+
143.0493	95	C10H7O+
159.0443	24	C10H7O2+
187.0393	77	C11H7O3+
