Mass spectrum: Nicotine; LC-ESI-ITFT; MS2; CE: 105%; R=15000; [M+H]+
Name: Nicotine
Name: 3-[(2S)-1-methylpyrrolidin-2-yl]pyridine
Formula: C10H14N2
Exact mass: 162.1157
SMILES: CN1CCC[C@H]1c2cccnc2
InChI: InChI=1S/C10H14N2/c1-12-7-3-5-10(12)9-4-2-6-11-8-9/h2,4,6,8,10H,3,5,7H2,1H3/t10-/m0/s1
Instrument: LTQ Orbitrap XL Thermo Scientific
Instrument type: LC-ESI-ITFT
Ms type: MS2
Ion mode: POSITIVE
Ionization: ESI
Fragmentation mode: HCD
Collision energy: 105% (nominal)
Resolution: 15000
Column name: Kinetex Evo C18 2.6 um 50 x 2.1 mm
Retention time: 0.457 min
Base peak: 226.9511
Precursor m/z: 163.123
Precursor type: [M+H]+
m/z	relative intensity	assigned
77.0386	28	C6H5+
79.0543	20	C6H7+
84.0809	22	C5H10N+
91.0542	14	C7H7+
92.0494	64	C6H6N+
103.054	37	C8H7+
106.0652	161	C7H8N+
115.0542	55	C9H7+
117.0573	999	C8H7N+
118.0657	16	C8H8N+
120.0807	79	C8H10N+
130.0651	735	C9H8N+
131.073	31	C9H9N+
132.0808	89	C9H10N+
