Mass spectrum: Conessine; LC-ESI-ITFT; MS2; CE: 60%; R=15000; [M+H]+
Name: Conessine
Formula: C24H40N2
Exact mass: 356.3191
SMILES: C[C@H]1[C@H]2CC[C@H]3[C@@H]4CC=C5C[C@H](CC[C@]5(C)[C@H]4CC[C@]23CN1C)N(C)C
InChI: InChI=1S/C24H40N2/c1-16-20-8-9-22-19-7-6-17-14-18(25(3)4)10-12-23(17,2)21(19)11-13-24(20,22)15-26(16)5/h6,16,18-22H,7-15H2,1-5H3/t16-,18-,19+,20+,21-,22-,23-,24-/m0/s1
Instrument: LTQ Orbitrap XL Thermo Scientific
Instrument type: LC-ESI-ITFT
Ms type: MS2
Ion mode: POSITIVE
Ionization: ESI
Fragmentation mode: CID
Collision energy: 60 % (nominal)
Resolution: 15000
Column name: Kinetex Evo C18 2.6 um 50 x 2.1 mm
Retention time: 5.420 min
Base peak: 179.1667
Precursor m/z: 357.3264
Precursor type: [M+H]+
m/z	relative intensity	assigned
91.0542	1	C7H7+
103.0546	1	C8H7+
105.0699	16	C8H9+
107.0856	4	C8H11+
109.1011	3	C8H13+
115.0543	7	C9H7+
117.0699	15	C9H9+
119.0856	25	C9H11+
121.1012	8	C9H13+
123.1168	2	C9H15+
128.0622	3	C10H8+
129.0699	12	C10H9+
130.0783	2	C10H10+
131.0856	40	C10H11+
133.1013	26	C10H13+
135.1169	14	C10H15+
142.0778	4	C11H10+
143.0855	10	C11H11+
144.0931	4	C11H12+
145.1013	45	C11H13+
147.1169	70	C11H15+
149.1327	8	C11H17+
155.0855	1	C12H11+
157.1013	15	C12H13+
158.272	1	C8H34N2+
159.1169	156	C12H15+
161.1326	131	C12H17+
163.1487	2	C12H19+
169.1012	2	C13H13+
171.1169	16	C13H15+
173.1326	73	C13H17+
175.1483	12	C13H19+
183.1167	3	C14H15+
185.1326	21	C14H17+
187.1482	92	C14H19+
189.1636	2	C14H21+
197.1326	3	C15H17+
199.1482	28	C15H19+
200.1568	2	C15H20+
201.164	13	C15H21+
211.1481	5	C16H19+
213.1638	23	C16H21+
225.1641	6	C17H21+
227.1795	21	C17H23+
239.1788	2	C18H23+
240.1874	5	C18H24+
241.1955	5	C18H25+
269.2265	202	C20H29+
273.2461	2	C19H31N+
281.227	5	C21H29+
298.2529	4	C21H32N+
299.2611	10	C21H33N+
312.2687	999	C22H34N+
326.284	7	C23H36N+
