Mass spectrum: Hyoscyamine; LC-ESI-ITFT; MS2; CE: 75%; R=15000; [M+H]+
Name: Hyoscyamine
Formula: C17H23NO3
Exact mass: 289.1678
SMILES: CN1[C@@H]2CC[C@H]1C[C@H](C2)OC(=O)[C@H](CO)c3ccccc3
InChI: InChI=1S/C17H23NO3/c1-18-13-7-8-14(18)10-15(9-13)21-17(20)16(11-19)12-5-3-2-4-6-12/h2-6,13-16,19H,7-11H2,1H3/t13-,14+,15+,16-/m1/s1
Instrument: LTQ Orbitrap XL Thermo Scientific
Instrument type: LC-ESI-ITFT
Ms type: MS2
Ion mode: POSITIVE
Ionization: ESI
Fragmentation mode: HCD
Collision energy: 75% (nominal)
Resolution: 15000
Column name: Kinetex Evo C18 2.6 um 50 x 2.1 mm
Retention time: 2.816 min
Base peak: 290.175
Precursor m/z: 290.1751
Precursor type: [M+H]+
m/z	relative intensity	assigned
67.0542	96	C5H7+
68.0495	22	C4H6N+
70.0651	25	C4H8N+
77.0386	61	C6H5+
79.0542	22	C6H7+
82.0652	55	C5H8N+
83.073	31	C5H9N+
91.0543	207	C7H7+
93.0699	825	C7H9+
95.0492	5	C6H7O+
95.0729	15	C6H9N+
95.0856	63	C7H11+
96.0808	47	C6H10N+
98.0965	22	C6H12N+
103.0543	93	C8H7+
108.0809	7	C7H10N+
109.0884	9	C7H11N+
121.0649	99	C8H9O+
122.0963	6	C8H12N+
124.1121	999	C8H14N+
125.1197	13	C8H15N+
140.1071	23	C8H14NO+
142.1227	76	C8H16NO+
290.1752	19	C17H24NO3+
