Mass spectrum: Galantamine; LC-ESI-ITFT; MS2; CE: 20%; R=15000; [M+H]+
Name: Galantamine
Formula: C17H21NO3
Exact mass: 287.1521
SMILES: CN1CCC23C=CC(CC2OC4=C(C=CC(=C34)C1)OC)O
InChI: InChI=1S/C17H21NO3/c1-18-8-7-17-6-5-12(19)9-14(17)21-16-13(20-2)4-3-11(10-18)15(16)17/h3-6,12,14,19H,7-10H2,1-2H3
Instrument: LTQ Orbitrap XL Thermo Scientific
Instrument type: LC-ESI-ITFT
Ms type: MS2
Ion mode: POSITIVE
Ionization: ESI
Fragmentation mode: CID
Collision energy: 20 % (nominal)
Resolution: 15000
Column name: Kinetex Evo C18 2.6 um 50 x 2.1 mm
Retention time: 1.168 min
Base peak: 220.1188
Precursor m/z: 288.1594
Precursor type: [M+H]+
m/z	relative intensity	assigned
151.0988	4	C9H13NO+
179.0856	9	C14H11+
181.101	9	C14H13+
189.0909	7	C12H13O2+
197.0963	11	C14H13O+
199.0751	5	C13H11O2+
203.1068	2	C13H15O2+
207.0807	4	C15H11O+
209.096	212	C15H13O+
211.1118	5	C15H15O+
213.091	228	C14H13O2+
216.1016	12	C13H14NO2+
220.1121	14	C16H14N+
221.0961	14	C16H13O+
225.0911	125	C15H13O2+
225.1273	18	C16H17O+
227.1067	6	C15H15O2+
231.1016	153	C14H15O3+
239.1066	53	C16H15O2+
241.1223	15	C16H17O2+
253.1224	30	C17H17O2+
255.1254	2	C16H17NO2+
257.1174	12	C16H17O3+
270.1488	999	C17H20NO2+
288.1596	8	C17H22NO3+
