Mass spectrum: Kaempferitrin; LC-ESI-ITFT; MS2; CE: 45%; R=15000; [M+H]+
Name: Kaempferitrin
Name: 5-hydroxy-2-(4-hydroxyphenyl)-3-[(2S,3S,5R)-3,4,5-trihydroxy-6-methyloxan-2-yl]oxy-7-[(2S,4S,5R)-3,4,5-trihydroxy-6-methyloxan-2-yl]oxychromen-4-one
Formula: C27H30O14
Exact mass: 578.1636
SMILES: CC1O[C@@H](OC2=CC(O)=C3C(=O)C(O[C@@H]4OC(C)[C@H](O)C(O)[C@@H]4O)=C(OC3=C2)C2=CC=C(O)C=C2)C(O)[C@@H](O)[C@H]1O
InChI: InChI=1S/C27H30O14/c1-9-17(30)20(33)22(35)26(37-9)39-13-7-14(29)16-15(8-13)40-24(11-3-5-12(28)6-4-11)25(19(16)32)41-27-23(36)21(34)18(31)10(2)38-27/h3-10,17-18,20-23,26-31,33-36H,1-2H3/t9?,10?,17-,18-,20-,21?,22?,23-,26-,27-/m0/s1
Instrument: LTQ Orbitrap XL Thermo Scientific
Instrument type: LC-ESI-ITFT
Ms type: MS2
Ion mode: POSITIVE
Ionization: ESI
Fragmentation mode: HCD
Collision energy: 45% (nominal)
Resolution: 15000
Column name: Kinetex Evo C18 2.6 um 50 x 2.1 mm
Retention time: 9.197 min
Base peak: 116.9858
Precursor m/z: 579.1708
Precursor type: [M+H]+
m/z	relative intensity	assigned
287.0545	999	C15H11O6+
