Mass spectrum: Aconitin; LC-ESI-ITFT; MS2; CE: 90%; R=15000; [M+H]+
Name: Aconitin
Name: Aconitine
Name: [(1S,2R,3R,4R,5R,6S,7S,8R,9R,13R,14R,16S,17S,18R)-8-acetyloxy-11-ethyl-5,7,14-trihydroxy-6,16,18-trimethoxy-13-(methoxymethyl)-11-azahexacyclo[7.7.2.12,5.01,10.03,8.013,17]nonadecan-4-yl] benzoate
Formula: C34H47NO11
Exact mass: 645.3149
SMILES: CCN1C[C@@]2([C@@H](C[C@@H]([C@@]34[C@@H]2[C@H]([C@@H](C31)[C@@]5([C@@H]6[C@H]4C[C@@]([C@@H]6OC(=O)C7=CC=CC=C7)([C@H]([C@@H]5O)OC)O)OC(=O)C)OC)OC)O)COC
InChI: InChI=1S/C34H47NO11/c1-7-35-15-31(16-41-3)20(37)13-21(42-4)33-19-14-32(40)28(45-30(39)18-11-9-8-10-12-18)22(19)34(46-17(2)36,27(38)29(32)44-6)23(26(33)35)24(43-5)25(31)33/h8-12,19-29,37-38,40H,7,13-16H2,1-6H3/t19-,20-,21+,22-,23+,24+,25-,26?,27+,28-,29+,31+,32-,33+,34-/m1/s1
Instrument: LTQ Orbitrap XL Thermo Scientific
Instrument type: LC-ESI-ITFT
Ms type: MS2
Ion mode: POSITIVE
Ionization: ESI
Fragmentation mode: HCD
Collision energy: 90% (nominal)
Resolution: 15000
Column name: Kinetex Evo C18 2.6 um 50 x 2.1 mm
Retention time: 9.733 min
Base peak: 116.9858
Precursor m/z: 646.3222
Precursor type: [M+H]+
m/z	relative intensity	assigned
71.0491	7	C4H7O+
72.0807	7	C4H10N+
75.044	14	C3H7O2+
77.0386	210	C6H5+
79.0542	28	C6H7+
80.0497	7	C5H6N+
81.0699	11	C6H9+
82.0651	14	C5H8N+
85.0284	16	C4H5O2+
91.0542	73	C7H7+
94.0648	6	C6H8N+
95.0491	30	C6H7O+
96.0805	7	C6H10N+
103.0544	10	C8H7+
105.0335	999	C7H5O+
106.0652	16	C7H8N+
107.049	18	C7H7O+
108.0808	34	C7H10N+
109.0649	19	C7H9O+
110.0964	11	C7H12N+
111.0807	13	C7H11O+
115.0542	33	C9H7+
116.0622	14	C9H8+
117.0574	15	C8H7N+
117.0699	41	C9H9+
118.0651	14	C8H8N+
119.0491	10	C8H7O+
119.0857	6	C9H11+
120.0811	10	C8H10N+
121.0647	17	C8H9O+
121.0886	19	C8H11N+
122.0965	31	C8H12N+
124.0756	8	C7H10NO+
128.0621	41	C10H8+
129.0698	51	C10H9+
130.0654	14	C9H8N+
131.0496	9	C9H7O+
131.0729	6	C9H9N+
131.0856	26	C10H11+
132.0809	20	C9H10N+
133.0284	9	C8H5O2+
134.0602	11	C8H8NO+
134.0964	23	C9H12N+
135.0804	6	C9H11O+
137.0594	7	C8H9O2+
138.0915	7	C8H12NO+
141.0699	41	C11H9+
142.0773	11	C11H10+
143.0857	10	C11H11+
144.0809	10	C10H10N+
145.0652	9	C10H9O+
146.0361	8	C9H6O2+
146.0601	7	C9H8NO+
146.0962	27	C10H12N+
147.0442	18	C9H7O2+
147.1037	13	C10H13N+
148.1122	16	C10H14N+
152.0618	14	C12H8+
152.1071	39	C9H14NO+
153.0698	32	C12H9+
154.0776	17	C12H10+
155.0853	16	C12H11+
156.0807	8	C11H10N+
157.0648	8	C11H9O+
158.0964	26	C11H12N+
160.0755	14	C10H10NO+
160.1121	29	C11H14N+
162.091	16	C10H12NO+
165.0698	68	C13H9+
166.0776	29	C13H10+
167.0855	26	C13H11+
169.0647	11	C12H9O+
170.0969	7	C12H12N+
171.0805	11	C12H11O+
172.1122	32	C12H14N+
174.0918	17	C11H12NO+
174.1282	9	C12H16N+
178.0778	45	C14H10+
178.1227	28	C11H16NO+
179.0855	43	C14H11+
181.0645	14	C13H9O+
182.0962	14	C13H12N+
184.1121	27	C13H14N+
186.1282	10	C13H16N+
188.0706	7	C11H10NO2+
189.0697	24	C15H9+
190.0778	26	C15H10+
190.1227	11	C12H16NO+
191.0857	33	C15H11+
192.0934	13	C15H12+
193.1011	12	C15H13+
194.0723	8	C14H10O+
194.0973	7	C14H12N+
196.1125	7	C14H14N+
198.1283	8	C14H16N+
202.0774	28	C16H10+
202.1225	34	C13H16NO+
203.0853	25	C16H11+
204.0942	13	C16H12+
205.1012	14	C16H13+
208.1118	9	C15H14N+
215.0856	20	C17H11+
218.0726	8	CH16NO11+
222.1277	8	C16H16N+
231.0797	7	C2H17NO11+
263.1077	4	C18H15O2+
