Mass spectrum: Conessine; LC-ESI-ITFT; MS2; CE: 65%; R=15000; [M+H]+
Name: Conessine
Formula: C24H40N2
Exact mass: 356.3191
SMILES: C[C@H]1[C@H]2CC[C@H]3[C@@H]4CC=C5C[C@H](CC[C@]5(C)[C@H]4CC[C@]23CN1C)N(C)C
InChI: InChI=1S/C24H40N2/c1-16-20-8-9-22-19-7-6-17-14-18(25(3)4)10-12-23(17,2)21(19)11-13-24(20,22)15-26(16)5/h6,16,18-22H,7-15H2,1-5H3/t16-,18-,19+,20+,21-,22-,23-,24-/m0/s1
Instrument: LTQ Orbitrap XL Thermo Scientific
Instrument type: LC-ESI-ITFT
Ms type: MS2
Ion mode: POSITIVE
Ionization: ESI
Fragmentation mode: CID
Collision energy: 65 % (nominal)
Resolution: 15000
Column name: Kinetex Evo C18 2.6 um 50 x 2.1 mm
Retention time: 5.272 min
Base peak: 179.1668
Precursor m/z: 357.3264
Precursor type: [M+H]+
m/z	relative intensity	assigned
91.0544	1	C7H7+
105.0698	14	C8H9+
107.0856	3	C8H11+
109.1012	2	C8H13+
115.0543	4	C9H7+
117.0699	13	C9H9+
119.0856	23	C9H11+
121.1011	7	C9H13+
123.1168	4	C9H15+
128.062	4	C10H8+
129.07	9	C10H9+
130.0782	1	C10H10+
131.0855	35	C10H11+
133.1012	26	C10H13+
135.1168	12	C10H15+
142.0777	2	C11H10+
143.0854	9	C11H11+
144.0932	3	C11H12+
145.1012	42	C11H13+
147.1169	67	C11H15+
149.1326	7	C11H17+
157.1013	15	C12H13+
159.1169	140	C12H15+
161.1326	115	C12H17+
163.1483	1	C12H19+
169.102	1	C13H13+
171.1169	18	C13H15+
173.1326	71	C13H17+
175.1482	9	C13H19+
183.1168	3	C14H15+
185.1325	18	C14H17+
187.1482	87	C14H19+
189.1639	2	C14H21+
197.1324	3	C15H17+
199.1481	27	C15H19+
201.1639	15	C15H21+
211.1483	5	C16H19+
213.1637	20	C16H21+
215.1791	2	C16H23+
225.1643	3	C17H21+
227.1794	20	C17H23+
239.1791	2	C18H23+
240.187	3	C18H24+
241.1959	4	C18H25+
269.2264	191	C20H29+
281.2259	4	C21H29+
298.2525	4	C21H32N+
299.261	9	C21H33N+
312.2686	999	C22H34N+
314.2847	2	C22H36N+
326.2842	8	C23H36N+
