Mass spectrum: Cevadine; LC-ESI-ITFT; MS2; CE: 45%; R=15000; [M+H]+
Name: Cevadine
Name: Veratrine
Name: [(1R,2S,6S,9S,10R,11S,12S,14R,15S,18S,19S,22S,23S,25R)-1,10,11,12,14,23-hexahydroxy-6,10,19-trimethyl-24-oxa-4-azaheptacyclo[12.12.0.02,11.04,9.015,25.018,23.019,25]hexacosan-22-yl] (Z)-2-methylbut-2-enoate
Formula: C32H49NO9
Exact mass: 591.3407
SMILES: C/C=C(/C)\C(=O)O[C@H]1CC[C@]2([C@H]3[C@@]1(O[C@@]24C[C@]5([C@@H]6CN7C[C@H](CC[C@H]7[C@@]([C@]6([C@H](C[C@]5([C@@H]4CC3)O)O)O)(C)O)C)O)O)C
InChI: InChI=1S/C32H49NO9/c1-6-18(3)25(35)41-24-11-12-26(4)19-8-9-20-28(37)13-23(34)31(39)21(29(28,38)16-30(20,26)42-32(19,24)40)15-33-14-17(2)7-10-22(33)27(31,5)36/h6,17,19-24,34,36-40H,7-16H2,1-5H3/b18-6-/t17-,19-,20-,21-,22-,23-,24-,26-,27+,28+,29+,30+,31-,32-/m0/s1
Instrument: LTQ Orbitrap XL Thermo Scientific
Instrument type: LC-ESI-ITFT
Ms type: MS2
Ion mode: POSITIVE
Ionization: ESI
Fragmentation mode: HCD
Collision energy: 45% (nominal)
Resolution: 15000
Column name: Kinetex Evo C18 2.6 um 50 x 2.1 mm
Retention time: 9.257 min
Base peak: 116.9857
Precursor m/z: 592.348
Precursor type: [M+H]+
m/z	relative intensity	assigned
55.054	79	C4H7+
83.0491	190	C5H7O+
98.0963	75	C6H12N+
109.0647	9	C7H9O+
110.0963	80	C7H12N+
112.112	32	C7H14N+
126.0911	18	C7H12NO+
126.1278	23	C8H16N+
128.1069	32	C7H14NO+
136.1122	11	C9H14N+
138.0913	12	C8H12NO+
138.1276	96	C9H16N+
152.1074	10	C9H14NO+
154.1224	124	C9H16NO+
161.1199	13	C11H15N+
162.1275	86	C11H16N+
163.1353	21	C11H17N+
164.1432	24	C11H18N+
178.1225	16	C11H16NO+
182.1174	11	C10H16NO2+
188.1434	23	C13H18N+
189.1509	13	C13H19N+
190.1224	16	C12H16NO+
192.1388	11	C12H18NO+
193.1467	12	C12H19NO+
208.1696	15	C13H22NO+
374.2436	9	C23H34O4+
402.2421	21	C27H32NO2+
410.2696	16	C26H36NO3+
420.2522	96	C27H34NO3+
438.2632	171	C27H36NO4+
456.2735	486	C27H38NO5+
474.2841	584	C24H42O9+
492.2946	387	C27H42NO7+
520.3043	29	C32H42NO5+
538.316	65	C29H46O9+
539.3208	18	C29H47O9+
556.3265	187	C32H46NO7+
574.337	409	C32H48NO8+
592.3475	999	C32H50NO9+
