Mass spectrum: (-)-Strychnine; LC-ESI-ITFT; MS2; CE: 100%; R=15000; [M+H]+
Name: (-)-Strychnine
Name: Strychnine
Name: (4aR,5aS,8aR,13aS,15aS,15bR)-4a,5,5a,7,8,13a,15,15a,15b,16-decahydro-2H-4,6-methanoindolo[3,2,1-ij]oxepino[2,3,4-de]pyrrolo[2,3-h]quinolin-14-one
Formula: C21H22N2O2
Exact mass: 334.1681
SMILES: c1ccc2c(c1)[C@]34CCN5[C@H]3C[C@@H]6[C@@H]7[C@@H]4N2C(=O)C[C@@H]7OCC=C6C5
InChI: InChI=1S/C21H22N2O2/c24-18-10-16-19-13-9-17-21(6-7-22(17)11-12(13)5-8-25-16)14-3-1-2-4-15(14)23(18)20(19)21/h1-5,13,16-17,19-20H,6-11H2/t13-,16-,17-,19-,20-,21+/m0/s1
Instrument: LTQ Orbitrap XL Thermo Scientific
Instrument type: LC-ESI-ITFT
Ms type: MS2
Ion mode: POSITIVE
Ionization: ESI
Fragmentation mode: HCD
Collision energy: 100% (nominal)
Resolution: 15000
Column name: Kinetex Evo C18 2.6 um 50 x 2.1 mm
Retention time: 3.141 min
Base peak: 143.0015
Precursor m/z: 335.1754
Precursor type: [M+H]+
m/z	relative intensity	assigned
67.0542	22	C5H7+
68.0494	12	C4H6N+
77.0386	18	C6H5+
79.0542	69	C6H7+
80.0493	27	C5H6N+
81.0699	53	C6H9+
91.0541	82	C7H7+
93.0573	45	C6H7N+
93.0698	31	C7H9+
94.0651	51	C6H8N+
95.0495	19	C6H7O+
96.0807	34	C6H10N+
105.0444	29	C6H5N2+
105.0697	25	C8H9+
106.0651	81	C7H8N+
108.0807	36	C7H10N+
115.054	29	C9H7+
117.0695	32	C9H9+
118.0649	24	C8H8N+
121.065	24	C8H9O+
122.0601	24	C7H8NO+
128.0619	58	C10H8+
129.0698	458	C10H9+
130.065	127	C9H8N+
132.0444	19	C8H6NO+
143.0731	46	C10H9N+
144.0807	232	C10H10N+
154.0652	69	C11H8N+
155.0606	23	C10H7N2+
155.073	47	C11H9N+
156.0807	999	C11H10N+
166.0652	68	C12H8N+
167.0728	121	C12H9N+
168.0807	165	C12H10N+
170.0607	22	C11H8NO+
170.0966	61	C12H12N+
171.0918	46	C11H11N2+
180.0808	102	C13H10N+
181.0889	46	C13H11N+
182.0965	50	C13H12N+
183.0679	43	C12H9NO+
184.0756	473	C12H10NO+
191.0727	25	C14H9N+
192.0805	50	C14H10N+
193.0885	44	C14H11N+
194.0597	24	C13H8NO+
194.0964	169	C14H12N+
196.0755	40	C13H10NO+
198.0911	49	C13H12NO+
204.0803	74	C15H10N+
205.0883	53	C15H11N+
206.0963	78	C15H12N+
207.1048	30	C15H13N+
208.1127	25	C15H14N+
210.091	18	C14H12NO+
217.0886	104	C16H11N+
218.0961	101	C16H12N+
219.1038	29	C16H13N+
220.0757	102	C15H10NO+
220.1116	70	C16H14N+
222.0913	61	C15H12NO+
230.0957	34	C17H12N+
231.1044	36	C17H13N+
232.1122	46	C17H14N+
234.0913	59	C16H12NO+
234.128	27	C17H16N+
244.1117	28	C18H14N+
246.091	37	C17H12NO+
246.127	19	C18H16N+
248.1073	18	C17H14NO+
