Mass spectrum: Seneciphylline; LC-ESI-ITFT; MS2; CE: 50%; R=15000; [M+H]+
Name: Seneciphylline
Name: (1R,4Z,7R,17R)-4-ethylidene-7-hydroxy-7-methyl-6-methylidene-2,9-dioxa-14-azatricyclo[9.5.1.014,17]heptadec-11-ene-3,8-dione
Formula: C18H23NO5
Exact mass: 333.1576
SMILES: C/C=C\1/CC(=C)[C@@](C(=O)OCC2=CCN3[C@H]2[C@@H](CC3)OC1=O)(C)O
InChI: InChI=1S/C18H23NO5/c1-4-12-9-11(2)18(3,22)17(21)23-10-13-5-7-19-8-6-14(15(13)19)24-16(12)20/h4-5,14-15,22H,2,6-10H2,1,3H3/b12-4-/t14-,15-,18-/m1/s1
Instrument: LTQ Orbitrap XL Thermo Scientific
Instrument type: LC-ESI-ITFT
Ms type: MS2
Ion mode: POSITIVE
Ionization: ESI
Fragmentation mode: HCD
Collision energy: 50% (nominal)
Resolution: 15000
Column name: Kinetex Evo C18 2.6 um 50 x 2.1 mm
Retention time: 2.030 min
Base peak: 143.0015
Precursor m/z: 334.1649
Precursor type: [M+H]+
m/z	relative intensity	assigned
67.0542	8	C5H7+
68.0493	8	C4H6N+
79.0543	17	C6H7+
80.0495	19	C5H6N+
81.0701	14	C6H9+
82.0651	20	C5H8N+
91.0543	27	C7H7+
93.07	61	C7H9+
94.0652	194	C6H8N+
95.0855	16	C7H11+
96.0808	47	C6H10N+
103.0542	25	C8H7+
105.0699	32	C8H9+
107.0732	9	C7H9N+
107.0854	7	C8H11+
108.0809	44	C7H10N+
109.0648	51	C7H9O+
110.0599	8	C6H8NO+
110.0965	27	C7H12N+
118.0651	20	C8H8N+
119.0725	5	C8H9N+
120.0808	420	C8H10N+
121.0646	7	C8H9O+
121.0885	11	C8H11N+
122.0964	84	C8H12N+
123.0804	48	C8H11O+
133.065	11	C9H9O+
134.0961	4	C9H12N+
136.0761	15	C8H10NO+
138.0914	396	C8H12NO+
151.0754	57	C9H11O2+
156.1022	7	C8H14NO2+
246.1494	10	C15H20NO2+
288.1601	22	C17H22NO3+
290.1747	12	C17H24NO3+
306.1701	254	C17H24NO4+
334.1649	999	C18H24NO5+
