Mass spectrum: Seneciphylline; LC-ESI-ITFT; MS2; CE: 45%; R=15000; [M+H]+
Name: Seneciphylline
Name: (1R,4Z,7R,17R)-4-ethylidene-7-hydroxy-7-methyl-6-methylidene-2,9-dioxa-14-azatricyclo[9.5.1.014,17]heptadec-11-ene-3,8-dione
Formula: C18H23NO5
Exact mass: 333.1576
SMILES: C/C=C\1/CC(=C)[C@@](C(=O)OCC2=CCN3[C@H]2[C@@H](CC3)OC1=O)(C)O
InChI: InChI=1S/C18H23NO5/c1-4-12-9-11(2)18(3,22)17(21)23-10-13-5-7-19-8-6-14(15(13)19)24-16(12)20/h4-5,14-15,22H,2,6-10H2,1,3H3/b12-4-/t14-,15-,18-/m1/s1
Instrument: LTQ Orbitrap XL Thermo Scientific
Instrument type: LC-ESI-ITFT
Ms type: MS2
Ion mode: POSITIVE
Ionization: ESI
Fragmentation mode: HCD
Collision energy: 45% (nominal)
Resolution: 15000
Column name: Kinetex Evo C18 2.6 um 50 x 2.1 mm
Retention time: 2.030 min
Base peak: 143.0015
Precursor m/z: 334.1649
Precursor type: [M+H]+
m/z	relative intensity	assigned
68.0495	4	C4H6N+
79.0542	4	C6H7+
80.0494	8	C5H6N+
81.0699	6	C6H9+
82.0652	4	C5H8N+
91.0541	8	C7H7+
93.0699	22	C7H9+
94.0651	73	C6H8N+
95.0856	5	C7H11+
96.0808	16	C6H10N+
103.0543	7	C8H7+
105.0698	9	C8H9+
107.0855	5	C8H11+
108.0807	16	C7H10N+
109.0647	13	C7H9O+
110.0604	5	C6H8NO+
110.0963	5	C7H12N+
118.0654	6	C8H8N+
120.0808	216	C8H10N+
121.0884	3	C8H11N+
122.0964	41	C8H12N+
123.0803	18	C8H11O+
133.0645	3	C9H9O+
138.0913	185	C8H12NO+
148.1121	4	C10H14N+
151.0751	22	C9H11O2+
156.102	3	C8H14NO2+
246.1488	3	C15H20NO2+
288.1594	13	C17H22NO3+
290.1759	8	C17H24NO3+
306.17	129	C17H24NO4+
334.1648	999	C18H24NO5+
