Mass spectrum: Intermedine; LC-ESI-ITFT; MS2; CE: 85%; R=15000; [M+H]+
Name: Intermedine
Name: [(7R,8R)-7-hydroxy-5,6,7,8-tetrahydro-3H-pyrrolizin-1-yl]methyl (2S)-2-hydroxy-2-[(1R)-1-hydroxyethyl]-3-methylbutanoate
Formula: C15H25NO5
Exact mass: 299.1733
SMILES: C[C@H]([C@@](C(C)C)(C(=O)OCC1=CCN2[C@H]1[C@@H](CC2)O)O)O
InChI: InChI=1S/C15H25NO5/c1-9(2)15(20,10(3)17)14(19)21-8-11-4-6-16-7-5-12(18)13(11)16/h4,9-10,12-13,17-18,20H,5-8H2,1-3H3/t10-,12-,13-,15+/m1/s1
Instrument: LTQ Orbitrap XL Thermo Scientific
Instrument type: LC-ESI-ITFT
Ms type: MS2
Ion mode: POSITIVE
Ionization: ESI
Fragmentation mode: HCD
Collision energy: 85% (nominal)
Resolution: 15000
Column name: Kinetex Evo C18 2.6 um 50 x 2.1 mm
Retention time: 1.038 min
Base peak: 143.0015
Precursor m/z: 300.1805
Precursor type: [M+H]+
m/z	relative intensity	assigned
67.0416	58	C4H5N+
67.0542	74	C5H7+
79.0544	17	C6H7+
80.0495	80	C5H6N+
81.0574	28	C5H7N+
81.0699	15	C6H9+
82.0651	175	C5H8N+
86.06	79	C4H8NO+
91.0541	21	C7H7+
93.0574	12	C6H7N+
93.0701	10	C7H9+
94.0651	999	C6H8N+
95.0729	228	C6H9N+
96.0807	126	C6H10N+
108.0808	132	C7H10N+
110.0966	24	C7H12N+
112.0757	254	C6H10NO+
118.0651	14	C8H8N+
120.0807	149	C8H10N+
126.0913	55	C7H12NO+
138.0913	143	C8H12NO+
139.0992	84	C8H13NO+
156.1019	790	C8H14NO2+
