Mass spectrum: Retrorsine; LC-ESI-ITFT; MS2; CE: 80%; R=15000; [M+H]+
Name: Retrorsine
Name: (1R,4Z,6R,7S,17R)-4-ethylidene-7-hydroxy-7-(hydroxymethyl)-6-methyl-2,9-dioxa-14-azatricyclo[9.5.1.014,17]heptadec-11-ene-3,8-dione
Formula: C18H25NO6
Exact mass: 351.1682
SMILES: C/C=C\1/C[C@H]([C@@](C(=O)OCC2=CCN3[C@H]2[C@@H](CC3)OC1=O)(CO)O)C
InChI: InChI=1S/C18H25NO6/c1-3-12-8-11(2)18(23,10-20)17(22)24-9-13-4-6-19-7-5-14(15(13)19)25-16(12)21/h3-4,11,14-15,20,23H,5-10H2,1-2H3/b12-3-/t11-,14-,15-,18-/m1/s1
Instrument: LTQ Orbitrap XL Thermo Scientific
Instrument type: LC-ESI-ITFT
Ms type: MS2
Ion mode: POSITIVE
Ionization: ESI
Fragmentation mode: HCD
Collision energy: 80% (nominal)
Resolution: 15000
Column name: Kinetex Evo C18 2.6 um 50 x 2.1 mm
Retention time: 1.607 min
Base peak: 143.0015
Precursor m/z: 352.1755
Precursor type: [M+H]+
m/z	relative intensity	assigned
53.0385	31	C4H5+
55.0542	35	C4H7+
67.0415	26	C4H5N+
67.0542	470	C5H7+
68.0495	149	C4H6N+
77.0386	124	C6H5+
79.0543	239	C6H7+
80.0495	348	C5H6N+
81.0334	38	C5H5O+
81.0573	115	C5H7N+
81.0699	276	C6H9+
82.0652	267	C5H8N+
83.049	45	C5H7O+
84.0443	32	C4H6NO+
91.0543	404	C7H7+
92.0496	47	C6H6N+
93.0699	395	C7H9+
94.0651	999	C6H8N+
95.049	38	C6H7O+
95.0731	62	C6H9N+
95.0856	469	C7H11+
96.0808	480	C6H10N+
103.0542	151	C8H7+
105.0699	150	C8H9+
106.0654	51	C7H8N+
107.073	63	C7H9N+
108.0808	315	C7H10N+
109.0649	63	C7H9O+
109.0887	49	C7H11N+
110.0601	69	C6H8NO+
110.0965	136	C7H12N+
112.076	37	C6H10NO+
118.0652	178	C8H8N+
119.0727	50	C8H9N+
120.0808	978	C8H10N+
121.0648	33	C8H9O+
122.0965	203	C8H12N+
123.0804	244	C8H11O+
136.0752	30	C8H10NO+
138.0913	514	C8H12NO+
151.0754	108	C9H11O2+
154.0863	33	C8H12NO2+
156.102	45	C8H14NO2+
220.1332	98	C13H18NO2+
236.1274	30	C13H18NO3+
