Mass spectrum: Lasiocarpine N-oxide; LC-ESI-ITFT; MS2; CE: 55%; R=15000; [M+H]+
Name: Lasiocarpine N-oxide
Name: [(7S,8R)-7-[(Z)-2-methylbut-2-enoyl]oxy-4-oxido-5,6,7,8-tetrahydro-3H-pyrrolizin-4-ium-1-yl]methyl (2R)-2,3-dihydroxy-2-[(1S)-1-methoxyethyl]-3-methylbutanoate
Formula: C21H33NO8
Exact mass: 427.2206
SMILES: C/C=C(/C)\C(=O)O[C@H]1CC[N+]2([C@@H]1C(=CC2)COC(=O)[C@@]([C@H](C)OC)(C(C)(C)O)O)[O-]
InChI: InChI=1S/C21H33NO8/c1-7-13(2)18(23)30-16-9-11-22(27)10-8-15(17(16)22)12-29-19(24)21(26,14(3)28-6)20(4,5)25/h7-8,14,16-17,25-26H,9-12H2,1-6H3/b13-7-/t14-,16-,17+,21-,22?/m0/s1
Instrument: LTQ Orbitrap XL Thermo Scientific
Instrument type: LC-ESI-ITFT
Ms type: MS2
Ion mode: POSITIVE
Ionization: ESI
Fragmentation mode: HCD
Collision energy: 55% (nominal)
Resolution: 15000
Column name: Kinetex Evo C18 2.6 um 50 x 2.1 mm
Retention time: 8.001 min
Base peak: 428.2278
Precursor m/z: 428.2279
Precursor type: [M+H]+
m/z	relative intensity	assigned
55.054	67	C4H7+
80.0497	45	C5H6N+
83.0492	122	C5H7O+
93.0573	270	C6H7N+
94.0651	416	C6H8N+
106.0651	349	C7H8N+
108.0807	112	C7H10N+
111.0679	279	C6H9NO+
118.0652	70	C8H8N+
119.073	872	C8H9N+
120.0808	685	C8H10N+
121.0887	156	C8H11N+
136.0757	686	C8H10NO+
137.0835	928	C8H11NO+
138.0913	866	C8H12NO+
154.0862	125	C8H12NO2+
155.0937	32	C8H13NO2+
172.097	159	C8H14NO3+
220.1334	78	C13H18NO2+
254.1387	999	C13H20NO4+
270.1325	31	C13H20NO5+
338.1605	37	C17H24NO6+
352.1757	35	C18H26NO6+
