Mass spectrum: Harmine; LC-ESI-ITFT; MS2; CE: 170%; R=15000; [M+H]+
Name: Harmine
Name: 7-methoxy-1-methyl-9H-pyrido[3,4-b]indole
Formula: C13H12N2O
Exact mass: 212.0950
SMILES: COC1=CC2=C(C=C1)C1=C(N2)C(C)=NC=C1
InChI: InChI=1S/C13H12N2O/c1-8-13-11(5-6-14-8)10-4-3-9(16-2)7-12(10)15-13/h3-7,15H,1-2H3
Instrument: LTQ Orbitrap XL Thermo Scientific
Instrument type: LC-ESI-ITFT
Ms type: MS2
Ion mode: POSITIVE
Ionization: ESI
Fragmentation mode: HCD
Collision energy: 170 % (nominal)
Resolution: 15000
Column name: Kinetex Evo C18 2.6 um 50 x 2.1 mm
Retention time: 6.605 min
Base peak: 213.1027
Precursor m/z: 213.1022
Precursor type: [M+H]+
m/z	relative intensity	assigned
65.0384	6	C5H5+
66.0462	14	C5H6+
67.0416	8	C4H5N+
75.0229	23	C6H3+
76.0307	8	C6H4+
77.0386	44	C6H5+
78.0338	6	C5H4N+
78.0463	5	C6H6+
79.042	2	C5H5N+
89.0387	58	C7H5+
90.0465	36	C7H6+
91.042	4	C6H5N+
91.0544	23	C7H7+
92.0496	22	C6H6N+
93.0574	171	C6H7N+
95.0494	8	C6H7O+
96.0444	3	C5H6NO+
101.0387	27	C8H5+
102.034	12	C7H4N+
102.0466	62	C8H6+
103.0419	10	C7H5N+
103.0544	49	C8H7+
104.0497	7	C7H6N+
105.0449	48	C6H5N2+
113.0384	2	C9H5+
114.0337	3	C8H4N+
114.0467	8	C9H6+
115.0544	333	C9H7+
116.0496	98	C8H6N+
116.0623	7	C9H8+
117.0574	98	C8H7N+
118.0526	13	C7H6N2+
118.0652	136	C8H8N+
119.0491	7	C8H7O+
120.0444	5	C7H6NO+
125.0388	3	C10H5+
126.0339	11	C9H4N+
127.0416	11	C9H5N+
128.0495	178	C9H6N+
129.0447	116	C8H5N2+
129.0573	21	C9H7N+
130.0398	19	C7H4N3+
130.0652	6	C9H8N+
132.0565	2	C9H8O+
134.0599	7	C8H8NO+
140.0494	54	C10H6N+
141.0573	73	C10H7N+
142.0526	19	C9H6N2+
142.0651	171	C10H8N+
143.0603	88	C9H7N2+
143.0728	23	C10H9N+
144.0681	40	C9H8N2+
144.0807	124	C10H10N+
146.06	13	C9H8NO+
152.0495	15	C11H6N+
153.0447	57	C10H5N2+
154.04	24	C9H4N3+
154.0525	13	C10H6N2+
155.0603	126	C10H7N2+
160.0756	3	C10H10NO+
167.0605	28	C11H7N2+
168.0682	225	C11H8N2+
169.076	999	C11H9N2+
170.0604	4	C11H8NO+
170.0835	39	C11H10N2+
171.0551	28	C10H7N2O+
180.0554	2	C11H6N3+
