Mass spectrum: Cortisone; LC-ESI-ITFT; MS2; CE: 50%; R=15000; [M+H]+
Name: Cortisone
Name: (8S,9S,10R,13S,14S,17R)-17-hydroxy-17-(2-hydroxyacetyl)-10,13-dimethyl-1,2,6,7,8,9,12,14,15,16-decahydrocyclopenta[a]phenanthrene-3,11-dione
Formula: C21H28O5
Exact mass: 360.1937
SMILES: C[C@]12CC(=O)[C@H]3[C@@H](CCC4=CC(=O)CC[C@]34C)[C@@H]1CC[C@]2(O)C(=O)CO
InChI: InChI=1S/C21H28O5/c1-19-7-5-13(23)9-12(19)3-4-14-15-6-8-21(26,17(25)11-22)20(15,2)10-16(24)18(14)19/h9,14-15,18,22,26H,3-8,10-11H2,1-2H3/t14-,15-,18+,19-,20-,21-/m0/s1
Instrument: LTQ Orbitrap XL Thermo Scientific
Instrument type: LC-ESI-ITFT
Ms type: MS2
Ion mode: POSITIVE
Ionization: ESI
Fragmentation mode: HCD
Collision energy: 50 % (nominal)
Resolution: 15000
Column name: Kinetex Evo C18 2.6 um 50 x 2.1 mm
Retention time: 9.636 min
Base peak: 361.2014
Precursor m/z: 361.201
Precursor type: [M+H]+
m/z	relative intensity	assigned
67.0541	10	C5H7+
69.0698	7	C5H9+
79.0543	13	C6H7+
81.07	38	C6H9+
83.0493	22	C5H7O+
91.0543	13	C7H7+
93.0701	86	C7H9+
95.0495	4	C6H7O+
95.0858	36	C7H11+
97.065	69	C6H9O+
105.07	111	C8H9+
107.0491	8	C7H7O+
107.0857	95	C8H11+
109.065	17	C7H9O+
109.1009	6	C8H13+
111.0806	8	C7H11O+
117.0698	8	C9H9+
119.0856	63	C9H11+
121.0649	229	C8H9O+
121.1013	48	C9H13+
123.0805	47	C8H11O+
131.0857	32	C10H11+
133.065	12	C9H9O+
133.1014	36	C10H13+
135.0805	77	C9H11O+
135.1169	68	C10H15+
137.0963	10	C9H13O+
139.0756	29	C8H11O2+
143.0856	34	C11H11+
145.0652	8	C10H9O+
145.1013	150	C11H13+
147.0805	67	C10H11O+
147.1169	18	C11H15+
149.096	35	C10H13O+
151.0757	7	C9H11O2+
151.1114	3	C10H15O+
153.0907	4	C9H13O2+
155.0856	13	C12H11+
157.1012	32	C12H13+
159.0805	34	C11H11O+
159.1169	22	C12H15+
161.06	5	C10H9O2+
161.0962	68	C11H13O+
163.1118	999	C11H15O+
165.0907	10	C10H13O2+
169.1011	22	C13H13+
171.0805	21	C12H11O+
171.117	33	C13H15+
173.0962	35	C12H13O+
173.1326	11	C13H17+
175.1118	26	C12H15O+
177.091	8	C11H13O2+
179.1066	7	C11H15O2+
181.1013	16	C14H13+
183.1167	31	C14H15+
185.096	21	C13H13O+
185.1326	16	C14H17+
187.0755	4	C12H11O2+
187.1116	32	C13H15O+
189.0911	19	C12H13O2+
189.1274	26	C13H17O+
191.1068	14	C12H15O2+
195.1168	23	C15H15+
197.0966	6	C14H13O+
197.1324	25	C15H17+
199.1118	25	C14H15O+
199.1481	6	C15H19+
201.0901	5	C13H13O2+
201.1277	14	C14H17O+
203.1065	9	C13H15O2+
203.1426	7	C14H19O+
207.1169	14	C16H15+
209.0968	5	C15H13O+
209.1326	21	C16H17+
211.1114	18	C15H15O+
211.1484	12	C16H19+
213.1273	19	C15H17O+
215.1429	9	C15H19O+
217.1215	4	C14H17O2+
221.1323	18	C17H17+
223.1119	18	C16H15O+
223.1481	22	C17H19+
225.1273	27	C16H17O+
225.164	19	C17H21+
227.1429	13	C16H19O+
229.1226	7	C15H17O2+
235.1483	6	C18H19+
237.1275	12	C17H17O+
237.1639	14	C18H21+
239.1431	46	C17H19O+
239.1793	9	C18H23+
241.1226	14	C16H17O2+
241.1586	57	C17H21O+
242.1666	15	C17H22O+
243.1378	8	C16H19O2+
243.1751	17	C17H23O+
247.1485	8	C19H19+
249.1269	7	C18H17O+
249.1646	9	C19H21+
251.1423	10	C18H19O+
253.1583	14	C18H21O+
255.138	8	C17H19O2+
255.1747	25	C18H23O+
256.1819	18	C18H24O+
257.154	13	C17H21O2+
257.1898	6	C18H25O+
258.1615	49	C17H22O2+
265.1586	25	C19H21O+
266.1663	8	C19H22O+
267.1384	10	C18H19O2+
267.1744	39	C19H23O+
269.1539	15	C18H21O2+
269.1905	4	C19H25O+
279.1742	13	C20H23O+
281.1543	6	C19H21O2+
283.1691	37	C19H23O2+
284.1771	36	C19H24O2+
285.1492	7	C18H21O3+
285.1842	14	C19H25O2+
295.1694	11	C20H23O2+
297.1838	11	C20H25O2+
299.1638	41	C19H23O3+
300.1721	9	C19H24O3+
301.1799	21	C19H25O3+
307.1693	7	C21H23O2+
313.181	6	C20H25O3+
325.1791	9	C21H25O3+
343.19	9	C21H27O4+
361.2009	20	C21H29O5+
