Mass spectrum: Jacobine; LC-ESI-ITFT; MS2; CE: 35%; R=15000; [M+H]+
Name: Jacobine
Name: (1R,3`S,4S,6R,7R,17R)-7-hydroxy-3`,6,7-trimethylspiro[2,9-dioxa-14-azatricyclo[9.5.1.014,17]heptadec-11-ene-4,2`-oxirane]-3,8-dione
Formula: C18H25NO6
Exact mass: 351.1682
SMILES: C[C@@H]1C[C@]2([C@@H](O2)C)C(=O)O[C@@H]3CCN4[C@@H]3C(=CC4)COC(=O)[C@]1(C)O
InChI: InChI=1S/C18H25NO6/c1-10-8-18(11(2)25-18)16(21)24-13-5-7-19-6-4-12(14(13)19)9-23-15(20)17(10,3)22/h4,10-11,13-14,22H,5-9H2,1-3H3/t10-,11+,13-,14-,17-,18+/m1/s1
Instrument: LTQ Orbitrap XL Thermo Scientific
Instrument type: LC-ESI-ITFT
Ms type: MS2
Ion mode: POSITIVE
Ionization: ESI
Fragmentation mode: HCD
Collision energy: 35% (nominal)
Resolution: 15000
Column name: Kinetex Evo C18 2.6 um 50 x 2.1 mm
Retention time: 1.045 min
Base peak: 352.1754
Precursor m/z: 352.1755
Precursor type: [M+H]+
m/z	relative intensity	assigned
70.065	3	C4H8N+
80.0495	10	C5H6N+
93.0697	3	C7H9+
94.0652	4	C6H8N+
113.0599	2	C6H9O2+
115.0754	4	C6H11O2+
120.0808	66	C8H10N+
121.0888	1	C8H11N+
122.0965	31	C8H12N+
123.1043	49	C8H13N+
138.0915	6	C8H12NO+
140.107	7	C8H14NO+
155.1067	31	C9H15O2+
162.0913	6	C10H12NO+
165.0916	2	C10H13O2+
183.1019	4	C10H15O3+
200.1433	3	C14H18N+
218.154	3	C14H20NO+
234.1486	11	C14H20NO2+
236.1646	2	C14H22NO2+
262.1439	36	C15H20NO3+
264.1594	12	C15H22NO3+
280.1545	122	C15H22NO4+
308.1495	52	C16H22NO5+
324.1806	6	C17H26NO5+
352.1756	999	C18H26NO6+
