Mass spectrum: Heliotrine; LC-ESI-ITFT; MS2; CE: 100%; R=15000; [M+H]+
Name: Heliotrine
Name: [(7S,8R)-7-hydroxy-5,6,7,8-tetrahydro-3H-pyrrolizin-1-yl]methyl (2S)-2-hydroxy-2-[(1R)-1-methoxyethyl]-3-methylbutanoate
Formula: C16H27NO5
Exact mass: 313.1889
SMILES: C[C@H]([C@@](C(C)C)(C(=O)OCC1=CCN2[C@H]1[C@H](CC2)O)O)OC
InChI: InChI=1S/C16H27NO5/c1-10(2)16(20,11(3)21-4)15(19)22-9-12-5-7-17-8-6-13(18)14(12)17/h5,10-11,13-14,18,20H,6-9H2,1-4H3/t11-,13+,14-,16+/m1/s1
Instrument: LTQ Orbitrap XL Thermo Scientific
Instrument type: LC-ESI-ITFT
Ms type: MS2
Ion mode: POSITIVE
Ionization: ESI
Fragmentation mode: HCD
Collision energy: 100% (nominal)
Resolution: 15000
Column name: Kinetex Evo C18 2.6 um 50 x 2.1 mm
Retention time: 1.773 min
Base peak: 143.0015
Precursor m/z: 314.1962
Precursor type: [M+H]+
m/z	relative intensity	assigned
65.0385	20	C5H5+
67.0416	116	C4H5N+
67.0542	132	C5H7+
68.0494	70	C4H6N+
77.0386	41	C6H5+
78.0339	21	C5H4N+
79.0543	37	C6H7+
80.0495	497	C5H6N+
81.0573	106	C5H7N+
81.0698	77	C6H9+
82.0652	560	C5H8N+
85.0522	23	C4H7NO+
86.0601	82	C4H8NO+
91.0542	129	C7H7+
92.0497	68	C6H6N+
93.0573	69	C6H7N+
93.07	57	C7H9+
94.0651	999	C6H8N+
95.0729	196	C6H9N+
96.0808	201	C6H10N+
103.0542	43	C8H7+
105.0573	37	C7H7N+
106.0654	17	C7H8N+
108.0808	726	C7H10N+
110.06	66	C6H8NO+
110.0964	33	C7H12N+
112.0757	125	C6H10NO+
118.0651	69	C8H8N+
120.0808	827	C8H10N+
126.0912	25	C7H12NO+
138.0913	366	C8H12NO+
156.102	338	C8H14NO2+
