Mass spectrum: (-)-Nuciferine; LC-ESI-ITFT; MS2; CE: 85%; R=15000; [M+H]+
Name: (-)-Nuciferine
Name: Nuciferine
Name: (6aR)-1,2-dimethoxy-6-methyl-5,6,6a,7-tetrahydro-4H-dibenzo[de,g]quinoline
Formula: C19H21NO2
Exact mass: 295.1572
SMILES: CN1CCc2cc(c(c-3c2[C@H]1Cc4c3cccc4)OC)OC
InChI: InChI=1S/C19H21NO2/c1-20-9-8-13-11-16(21-2)19(22-3)18-14-7-5-4-6-12(14)10-15(20)17(13)18/h4-7,11,15H,8-10H2,1-3H3/t15-/m1/s1
Instrument: LTQ Orbitrap XL Thermo Scientific
Instrument type: LC-ESI-ITFT
Ms type: MS2
Ion mode: POSITIVE
Ionization: ESI
Fragmentation mode: HCD
Collision energy: 85% (nominal)
Resolution: 15000
Column name: Kinetex Evo C18 2.6 um 50 x 2.1 mm
Retention time: 7.626 min
Base peak: 296.1643
Precursor m/z: 296.1645
Precursor type: [M+H]+
m/z	relative intensity	assigned
128.0622	19	C10H8+
153.0694	5	C12H9+
165.07	93	C13H9+
166.0779	12	C13H10+
167.0857	15	C13H11+
177.0701	28	C14H9+
178.0779	265	C14H10+
179.0857	777	C14H11+
180.0569	3	C13H8O+
181.0648	10	C13H9O+
189.0701	281	C15H9+
190.0779	200	C15H10+
191.0856	844	C15H11+
192.0936	47	C15H12+
193.0648	62	C14H9O+
193.1012	108	C15H13+
194.0728	15	C14H10O+
194.1096	11	C15H14+
195.0805	38	C14H11O+
201.0694	16	C16H9+
202.0778	161	C16H10+
203.0856	419	C16H11+
204.0935	51	C16H12+
205.0648	98	C15H9O+
205.1013	73	C16H13+
206.0728	31	C15H10O+
207.0805	642	C15H11O+
208.0886	7	C15H12O+
214.0778	7	C17H10+
215.0856	28	C17H11+
217.0649	194	C16H9O+
218.0726	172	C16H10O+
219.0805	581	C16H11O+
220.0521	5	C15H8O2+
220.0886	35	C16H12O+
221.0597	160	C15H9O2+
221.0961	229	C16H13O+
222.104	65	C16H14O+
223.0755	16	C15H11O2+
231.0806	76	C17H11O+
232.0887	16	C17H12O+
233.0604	14	C16H9O2+
233.0962	136	C17H13O+
234.104	244	C17H14O+
235.0754	999	C16H11O2+
249.091	138	C17H13O2+
250.099	115	C17H14O2+
265.1224	15	C18H17O2+
