Mass spectrum: Intermedine; LC-ESI-ITFT; MS2; CE: 90%; R=15000; [M+H]+
Name: Intermedine
Name: [(7R,8R)-7-hydroxy-5,6,7,8-tetrahydro-3H-pyrrolizin-1-yl]methyl (2S)-2-hydroxy-2-[(1R)-1-hydroxyethyl]-3-methylbutanoate
Formula: C15H25NO5
Exact mass: 299.1733
SMILES: C[C@H]([C@@](C(C)C)(C(=O)OCC1=CCN2[C@H]1[C@@H](CC2)O)O)O
InChI: InChI=1S/C15H25NO5/c1-9(2)15(20,10(3)17)14(19)21-8-11-4-6-16-7-5-12(18)13(11)16/h4,9-10,12-13,17-18,20H,5-8H2,1-3H3/t10-,12-,13-,15+/m1/s1
Instrument: LTQ Orbitrap XL Thermo Scientific
Instrument type: LC-ESI-ITFT
Ms type: MS2
Ion mode: POSITIVE
Ionization: ESI
Fragmentation mode: HCD
Collision energy: 90% (nominal)
Resolution: 15000
Column name: Kinetex Evo C18 2.6 um 50 x 2.1 mm
Retention time: 1.038 min
Base peak: 143.0015
Precursor m/z: 300.1805
Precursor type: [M+H]+
m/z	relative intensity	assigned
67.0416	58	C4H5N+
67.0542	79	C5H7+
68.0494	21	C4H6N+
78.0339	14	C5H4N+
80.0495	99	C5H6N+
81.0571	21	C5H7N+
81.0699	35	C6H9+
82.0651	222	C5H8N+
84.0444	20	C4H6NO+
86.0601	78	C4H8NO+
92.0495	13	C6H6N+
93.0573	30	C6H7N+
93.0699	14	C7H9+
94.0651	999	C6H8N+
95.0729	235	C6H9N+
96.0807	121	C6H10N+
108.0808	170	C7H10N+
110.0964	35	C7H12N+
112.0756	300	C6H10NO+
118.0651	12	C8H8N+
120.0808	110	C8H10N+
126.0914	51	C7H12NO+
138.0913	134	C8H12NO+
139.0991	54	C8H13NO+
156.1019	693	C8H14NO2+
