Mass spectrum: Vincamin; LC-ESI-ITFT; MS2; CE: 40%; R=15000; [M+H]+
Name: Vincamin
Name: Vincamine
Name: methyl (15S,17S,19S)-15-ethyl-17-hydroxy-1,11-diazapentacyclo[9.6.2.02,7.08,18.015,19]nonadeca-2,4,6,8(18)-tetraene-17-carboxylate
Formula: C21H26N2O3
Exact mass: 354.1943
SMILES: CC[C@@]12CCCN3[C@@H]1C4=C(CC3)C5=CC=CC=C5N4[C@](C2)(C(=O)OC)O
InChI: InChI=1S/C21H26N2O3/c1-3-20-10-6-11-22-12-9-15-14-7-4-5-8-16(14)23(17(15)18(20)22)21(25,13-20)19(24)26-2/h4-5,7-8,18,25H,3,6,9-13H2,1-2H3/t18-,20+,21+/m1/s1
Instrument: LTQ Orbitrap XL Thermo Scientific
Instrument type: LC-ESI-ITFT
Ms type: MS2
Ion mode: POSITIVE
Ionization: ESI
Fragmentation mode: HCD
Collision energy: 40% (nominal)
Resolution: 15000
Column name: Kinetex Evo C18 2.6 um 50 x 2.1 mm
Retention time: 6.630 min
Base peak: 355.2015
Precursor m/z: 355.2016
Precursor type: [M+H]+
m/z	relative intensity	assigned
70.065	6	C4H8N+
98.0965	1	C6H12N+
110.0964	4	C7H12N+
112.1119	3	C7H14N+
124.1122	4	C8H14N+
144.0807	93	C10H10N+
152.1069	19	C9H14NO+
158.0963	3	C11H12N+
162.0915	3	C10H12NO+
165.0911	1	C10H13O2+
180.1021	1	C10H14NO2+
194.1175	21	C11H16NO2+
209.1191	2	C15H15N+
210.1277	1	C15H16N+
212.1281	110	C11H18NO3+
222.1282	3	C16H16N+
224.1281	4	C12H18NO3+
224.143	5	C16H18N+
236.1434	7	C17H18N+
239.094	2	C15H13NO2+
240.1021	2	C15H14NO2+
246.1276	3	C18H16N+
248.1425	1	C18H18N+
249.1524	1	C18H19N+
250.1587	9	C18H20N+
252.102	2	C16H14NO2+
253.1701	9	C17H21N2+
254.1177	1	C16H16NO2+
258.1135	1	C15H16NO3+
260.143	1	C19H18N+
262.1223	1	C18H16NO+
266.1168	3	C17H16NO2+
267.1254	9	C17H17NO2+
268.1332	44	C17H18NO2+
274.1228	1	C19H16NO+
277.1699	14	C19H21N2+
278.1546	1	C19H20NO+
279.1256	1	C18H17NO2+
280.1331	88	C18H18NO2+
282.1489	7	C18H20NO2+
293.1398	2	C19H19NO2+
294.1489	101	C19H20NO2+
295.1805	55	C19H23N2O+
305.1646	5	C20H21N2O+
306.1488	8	C20H20NO2+
307.1442	2	C19H19N2O2+
308.1633	105	C20H22NO2+
310.1801	25	C20H24NO2+
320.164	5	C21H22NO2+
324.1595	3	C20H22NO3+
326.1749	9	C20H24NO3+
337.1909	999	C21H25N2O2+
355.2014	489	C21H27N2O3+
