Mass spectrum: Senecionine N-oxide; LC-ESI-ITFT; MS2; CE: 50%; R=15000; [M+H]+
Name: Senecionine N-oxide
Name: (1R,4Z,6R,7R,17R)-4-ethylidene-7-hydroxy-6,7-dimethyl-14-oxido-2,9-dioxa-14-azoniatricyclo[9.5.1.014,17]heptadec-11-ene-3,8-dione
Formula: C18H25NO6
Exact mass: 351.1682
SMILES: C/C=C\1/C[C@H]([C@@](C(=O)OCC2=CC[N+]3([C@H]2[C@@H](CC3)OC1=O)[O-])(C)O)C
InChI: InChI=1S/C18H25NO6/c1-4-12-9-11(2)18(3,22)17(21)24-10-13-5-7-19(23)8-6-14(15(13)19)25-16(12)20/h4-5,11,14-15,22H,6-10H2,1-3H3/b12-4-/t11-,14-,15-,18-,19?/m1/s1
Instrument: LTQ Orbitrap XL Thermo Scientific
Instrument type: LC-ESI-ITFT
Ms type: MS2
Ion mode: POSITIVE
Ionization: ESI
Fragmentation mode: HCD
Collision energy: 50% (nominal)
Resolution: 15000
Column name: Kinetex Evo C18 2.6 um 50 x 2.1 mm
Retention time: 5.458 min
Base peak: 352.1754
Precursor m/z: 352.1755
Precursor type: [M+H]+
m/z	relative intensity	assigned
53.0384	5	C4H5+
79.0543	13	C6H7+
80.0496	19	C5H6N+
81.0333	6	C5H5O+
81.07	73	C6H9+
83.0488	5	C5H7O+
91.0543	12	C7H7+
93.0574	101	C6H7N+
94.0652	123	C6H8N+
95.073	201	C6H9N+
98.0602	15	C5H8NO+
106.0652	75	C7H8N+
107.0494	8	C7H7O+
107.0856	24	C8H11+
108.0809	70	C7H10N+
109.0649	20	C7H9O+
109.0887	22	C7H11N+
109.1012	9	C8H13+
110.0605	9	C6H8NO+
112.0758	38	C6H10NO+
118.0652	410	C8H8N+
119.073	335	C8H9N+
120.0809	338	C8H10N+
121.0887	169	C8H11N+
122.0965	63	C8H12N+
124.076	8	C7H10NO+
125.0962	47	C8H13O+
135.0807	12	C9H11O+
136.0758	385	C8H10NO+
137.0836	77	C8H11NO+
138.0914	254	C8H12NO+
139.0755	15	C8H11O2+
139.0995	15	C8H13NO+
152.1072	19	C9H14NO+
153.0911	76	C9H13O2+
154.0864	132	C8H12NO2+
178.1227	29	C11H16NO+
190.1221	6	C12H16NO+
211.1328	13	C12H19O3+
218.1177	19	C13H16NO2+
218.154	10	C14H20NO+
220.1333	221	C13H18NO2+
246.1491	54	C15H20NO2+
248.165	41	C15H22NO2+
254.1388	27	C13H20NO4+
290.1753	12	C17H24NO3+
324.1808	87	C17H26NO5+
352.1758	999	C18H26NO6+
