Mass spectrum: Lycopsamine N-oxide; LC-ESI-ITFT; MS2; CE: 35%; R=15000; [M+H]+
Name: Lycopsamine N-oxide
Name: [(7R,8R)-7-hydroxy-4-oxido-5,6,7,8-tetrahydro-3H-pyrrolizin-4-ium-1-yl]methyl (2S)-2-hydroxy-2-[(1S)-1-hydroxyethyl]-3-methylbutanoate
Formula: C15H25NO6
Exact mass: 315.1682
SMILES: C[C@@H]([C@@](C(C)C)(C(=O)OCC1=CC[N+]2([C@H]1[C@@H](CC2)O)[O-])O)O
InChI: InChI=1S/C15H25NO6/c1-9(2)15(20,10(3)17)14(19)22-8-11-4-6-16(21)7-5-12(18)13(11)16/h4,9-10,12-13,17-18,20H,5-8H2,1-3H3/t10-,12+,13+,15-,16?/m0/s1
Instrument: LTQ Orbitrap XL Thermo Scientific
Instrument type: LC-ESI-ITFT
Ms type: MS2
Ion mode: POSITIVE
Ionization: ESI
Fragmentation mode: HCD
Collision energy: 35% (nominal)
Resolution: 15000
Column name: Kinetex Evo C18 2.6 um 50 x 2.1 mm
Retention time: 1.288 min
Base peak: 143.0015
Precursor m/z: 316.1755
Precursor type: [M+H]+
m/z	relative intensity	assigned
93.0573	2	C6H7N+
94.065	2	C6H8N+
136.0758	6	C8H10NO+
137.0832	1	C8H11NO+
138.0913	25	C8H12NO+
154.0862	7	C8H12NO2+
155.094	7	C8H13NO2+
172.0969	46	C8H14NO3+
226.143	2	C12H20NO3+
272.1495	6	C13H22NO5+
316.1755	999	C15H26NO6+
