Mass spectrum: Colchicine; LC-ESI-ITFT; MS2; CE: 90%; R=15000; [M+H]+
Name: Colchicine
Name: N-[(7S)-1,2,3,10-tetramethoxy-9-oxo-6,7-dihydro-5H-benzo[a]heptalen-7-yl]acetamide
Formula: C22H25NO6
Exact mass: 399.1682
SMILES: CC(=O)N[C@H]1CCC2=CC(=C(C(=C2C3=CC=C(C(=O)C=C13)OC)OC)OC)OC
InChI: InChI=1S/C22H25NO6/c1-12(24)23-16-8-6-13-10-19(27-3)21(28-4)22(29-5)20(13)14-7-9-18(26-2)17(25)11-15(14)16/h7,9-11,16H,6,8H2,1-5H3,(H,23,24)/t16-/m0/s1
Instrument: LTQ Orbitrap XL Thermo Scientific
Instrument type: LC-ESI-ITFT
Ms type: MS2
Ion mode: POSITIVE
Ionization: ESI
Fragmentation mode: HCD
Collision energy: 90% (nominal)
Resolution: 15000
Column name: Kinetex Evo C18 2.6 um 50 x 2.1 mm
Retention time: 9.276 min
Base peak: 400.1752
Precursor m/z: 400.1755
Precursor type: [M+H]+
m/z	relative intensity	assigned
91.0544	94	C7H7+
119.0497	77	C8H7O+
128.0621	85	C10H8+
131.0494	103	C9H7O+
133.0523	390	C8H7NO+
137.0597	265	C8H9O2+
141.0697	88	C11H9+
145.065	88	C10H9O+
147.044	79	C9H7O2+
148.0523	108	C9H8O2+
150.0548	190	C8H8NO2+
152.0621	235	C12H8+
153.0699	337	C12H9+
160.0757	62	C10H10NO+
161.0597	122	C10H9O2+
165.07	598	C13H9+
166.0778	199	C13H10+
167.0857	251	C13H11+
168.0575	77	C12H8O+
169.065	285	C12H9O+
171.0801	89	C12H11O+
176.0707	87	C10H10NO2+
176.0834	90	C11H12O2+
177.0549	60	C10H9O3+
177.0697	190	C14H9+
178.0777	368	C14H10+
179.0856	309	C14H11+
180.0569	200	C13H8O+
180.0811	96	C13H10N+
181.0649	755	C13H9O+
182.0729	235	C13H10O+
183.0804	206	C13H11O+
184.0521	172	C12H8O2+
184.0763	60	C12H10NO+
184.0882	98	C13H12O+
185.0597	112	C12H9O2+
188.0706	97	C11H10NO2+
189.0699	210	C15H9+
190.0773	144	C15H10+
191.0857	203	C15H11+
192.0572	150	C14H8O+
193.0649	243	C14H9O+
194.0728	543	C14H10O+
194.096	72	C14H12N+
195.045	51	C13H7O2+
195.0804	729	C14H11O+
196.0514	114	C13H8O2+
196.0752	174	C13H10NO+
196.0884	442	C14H12O+
197.0596	446	C13H9O2+
197.0841	201	C13H11NO+
197.0958	144	C14H13O+
198.0678	248	C13H10O2+
199.0754	351	C13H11O2+
205.065	446	C15H9O+
206.0727	289	C15H10O+
207.0805	639	C15H11O+
208.0517	203	C14H8O2+
208.0758	122	C14H10NO+
208.0883	383	C15H12O+
209.0598	569	C14H9O2+
209.0838	81	C14H11NO+
209.0962	235	C15H13O+
210.0677	223	C14H10O2+
210.0916	109	C14H12NO+
211.0753	465	C14H11O2+
211.1001	70	C14H13NO+
212.0471	204	C13H8O3+
212.0706	79	C13H10NO2+
212.0832	421	C14H12O2+
213.054	145	C13H9O3+
213.0907	143	C14H13O2+
214.0868	90	C13H12NO2+
219.0808	221	C16H11O+
220.0522	190	C15H8O2+
220.0761	123	C15H10NO+
221.0597	493	C15H9O2+
221.0833	154	C15H11NO+
222.0676	326	C15H10O2+
222.091	142	C15H12NO+
223.0754	723	C15H11O2+
224.0706	135	C14H10NO2+
224.0833	999	C15H12O2+
224.107	79	C15H14NO+
225.0545	438	C14H9O3+
225.0783	343	C14H11NO2+
225.0913	286	C15H13O2+
226.0622	208	C14H10O3+
226.0853	156	C14H12NO2+
226.098	60	C15H14O2+
227.0703	593	C14H11O3+
227.1058	62	C15H15O2+
228.0659	63	C13H10NO3+
228.0791	79	C14H12O3+
233.0597	154	C16H9O2+
233.0835	103	C16H11NO+
234.0677	265	C16H10O2+
234.0918	139	C16H12NO+
235.0754	622	C16H11O2+
236.047	240	C15H8O3+
236.0699	153	C15H10NO2+
236.0833	414	C16H12O2+
236.1079	98	C16H14NO+
237.0543	468	C15H9O3+
237.0782	98	C15H11NO2+
237.091	333	C16H13O2+
238.0622	69	C15H10O3+
238.0867	218	C15H12NO2+
238.0993	74	C16H14O2+
239.0704	395	C15H11O3+
239.0934	119	C15H13NO2+
239.1067	405	C16H15O2+
240.0652	116	C14H10NO3+
240.0782	569	C15H12O3+
240.1014	126	C15H14NO2+
241.0862	290	C15H13O3+
242.0816	199	C14H12NO3+
243.0659	81	C14H11O4+
247.0746	87	C17H11O2+
248.0838	60	C17H12O2+
249.0545	168	C16H9O3+
249.0785	133	C16H11NO2+
249.0915	101	C17H13O2+
250.0627	245	C16H10O3+
250.0862	297	C16H12NO2+
251.0702	733	C16H11O3+
251.0941	103	C16H13NO2+
251.1067	117	C17H15O2+
252.078	728	C16H12O3+
252.1015	160	C16H14NO2+
253.0493	306	C15H9O4+
253.0741	162	C15H11NO3+
253.086	88	C16H13O3+
254.0575	77	C15H10O4+
254.0818	111	C15H12NO3+
255.0646	188	C15H11O4+
255.102	168	C16H15O3+
256.0609	65	C14H10NO4+
256.0735	76	C15H12O4+
256.0978	90	C15H14NO3+
263.0699	158	C17H11O3+
263.0943	81	C17H13NO2+
264.0769	144	C17H12O3+
264.1023	124	C17H14NO2+
265.0491	109	C16H9O4+
265.0856	201	C17H13O3+
266.0808	177	C16H12NO3+
267.0653	214	C16H11O4+
267.1012	496	C17H15O3+
268.0728	266	C16H12O4+
268.0966	176	C16H14NO3+
269.0799	124	C16H13O4+
270.0761	136	C15H12NO4+
278.0812	126	C17H12NO3+
279.0643	83	C17H11O4+
280.0717	122	C17H12O4+
280.0965	132	C17H14NO3+
282.1124	88	C17H16NO3+
283.0968	83	C17H15O4+
294.0766	78	C17H12NO4+
