Mass spectrum: Pilocarpine; LC-ESI-ITFT; MS2; CE: 60%; R=15000; [M+H]+
Name: Pilocarpine
Name: (3S,4R)-3-ethyl-4-[(3-methylimidazol-4-yl)methyl]oxolan-2-one
Formula: C11H16N2O2
Exact mass: 208.1212
SMILES: CC[C@H]1[C@H](COC1=O)Cc2cncn2C
InChI: InChI=1S/C11H16N2O2/c1-3-10-8(6-15-11(10)14)4-9-5-12-7-13(9)2/h5,7-8,10H,3-4,6H2,1-2H3/t8-,10-/m0/s1
Instrument: LTQ Orbitrap XL Thermo Scientific
Instrument type: LC-ESI-ITFT
Ms type: MS2
Ion mode: POSITIVE
Ionization: ESI
Fragmentation mode: HCD
Collision energy: 60% (nominal)
Resolution: 15000
Column name: Kinetex Evo C18 2.6 um 50 x 2.1 mm
Retention time: 0.631 min
Base peak: 209.1281
Precursor m/z: 209.1285
Precursor type: [M+H]+
m/z	relative intensity	assigned
81.07	2	C6H9+
83.0604	3	C4H7N2+
94.0652	12	C6H8N+
95.0604	229	C5H7N2+
95.073	13	C6H9N+
96.0682	232	C5H8N2+
97.076	13	C5H9N2+
97.1007	1	C7H13+
107.0604	1	C6H7N2+
107.0731	2	C7H9N+
109.0761	23	C6H9N2+
121.0761	70	C7H9N2+
122.0839	22	C7H10N2+
122.0965	24	C8H12N+
123.0917	6	C7H11N2+
132.0809	3	C9H10N+
133.076	7	C8H9N2+
134.084	10	C8H10N2+
135.0917	21	C8H11N2+
136.1121	12	C9H14N+
138.1279	1	C9H16N+
139.0866	2	C7H11N2O+
147.0919	5	C9H11N2+
148.0995	9	C9H12N2+
149.1076	3	C9H13N2+
151.1231	20	C9H15N2+
161.1076	5	C10H13N2+
162.0791	2	C9H10N2O+
163.1231	213	C10H15N2+
165.1386	4	C10H17N2+
181.0969	2	C9H13N2O2+
181.1337	13	C10H17N2O+
182.1177	6	C10H16NO2+
191.1179	16	C11H15N2O+
209.1285	999	C11H17N2O2+
