Mass spectrum: Citrinin; LC-ESI-ITFT; MS2; CE: 120%; R=15000; [M+H]+
Name: Citrinin
Formula: C13H14O5
Exact mass: 250.0841
SMILES: C[C@H]1OC=C2C(O)=C(C(O)=O)C(=O)C(C)=C2[C@@H]1C
InChI: InChI=1S/C13H14O5/c1-5-7(3)18-4-8-9(5)6(2)11(14)10(12(8)15)13(16)17/h4-5,7,15H,1-3H3,(H,16,17)/t5-,7-/m1/s1
Instrument: LTQ Orbitrap XL Thermo Scientific
Instrument type: LC-ESI-ITFT
Ms type: MS2
Ion mode: POSITIVE
Ionization: ESI
Fragmentation mode: HCD
Collision energy: 120 % (nominal)
Resolution: 15000
Column name: Kinetex Evo C18 2.6 um 50 x 2.1 mm
Retention time: 11.904 min
Base peak: 251.0911
Precursor m/z: 251.0914
Precursor type: [M+H]+
m/z	relative intensity	assigned
51.0228	7	C4H3+
65.0385	53	C5H5+
67.0178	9	C4H3O+
67.0542	66	C5H7+
68.9971	42	C3HO2+
77.0386	241	C6H5+
78.0464	33	C6H6+
79.0178	84	C5H3O+
79.0542	167	C6H7+
81.0699	12	C6H9+
83.0128	8	C4H3O2+
89.0385	21	C7H5+
91.0542	999	C7H7+
92.0619	24	C7H8+
93.0335	15	C6H5O+
93.0698	61	C7H9+
94.0413	11	C6H6O+
95.0491	44	C6H7O+
95.0855	42	C7H11+
101.0387	18	C8H5+
102.0463	25	C8H6+
103.0542	107	C8H7+
104.062	39	C8H8+
105.0334	40	C7H5O+
105.0698	162	C8H9+
106.0415	9	C7H6O+
107.0127	34	C6H3O2+
107.0491	121	C7H7O+
107.0854	36	C8H11+
109.0651	7	C7H9O+
115.0542	459	C9H7+
116.062	237	C9H8+
117.0699	58	C9H9+
119.0491	143	C8H7O+
119.0855	77	C9H11+
120.0569	50	C8H8O+
121.0647	21	C8H9O+
122.0725	11	C8H10O+
123.0805	8	C8H11O+
128.062	85	C10H8+
129.0334	23	C9H5O+
129.0698	60	C10H9+
131.0491	35	C9H7O+
131.0856	30	C10H11+
132.0568	28	C9H8O+
133.0285	10	C8H5O2+
133.0648	90	C9H9O+
134.0363	8	C8H6O2+
134.0725	12	C9H10O+
135.044	12	C8H7O2+
135.0806	7	C9H11O+
141.0697	35	C11H9+
144.0569	61	C10H8O+
145.0286	6	C9H5O2+
145.0646	30	C10H9O+
147.0441	109	C9H7O2+
148.0519	41	C9H8O2+
157.0286	6	C10H5O2+
159.0802	6	C11H11O+
161.0597	46	C10H9O2+
162.0674	20	C10H10O2+
169.0656	5	C12H9O+
172.0519	8	C11H8O2+
175.039	71	C10H7O3+
185.0232	46	C11H5O3+
189.0546	6	C11H9O3+
203.0338	45	C11H7O4+
205.0857	11	C12H13O3+
