Mass spectrum: Isophorone; LC-ESI-ITFT; MS2; CE: 60%; R=15000; [M+H]+
Name: Isophorone
Name: 3,5,5-trimethylcyclohex-2-en-1-one
Formula: C9H14O
Exact mass: 138.1045
SMILES: CC1=CC(=O)CC(C)(C)C1
InChI: InChI=1S/C9H14O/c1-7-4-8(10)6-9(2,3)5-7/h4H,5-6H2,1-3H3
Instrument: LTQ Orbitrap XL Thermo Scientific
Instrument type: LC-ESI-ITFT
Ms type: MS2
Ion mode: POSITIVE
Ionization: ESI
Fragmentation mode: HCD
Collision energy: 60 % (nominal)
Resolution: 15000
Column name: Kinetex Evo C18 2.6 um 50 x 2.1 mm
Retention time: 8.532 min
Base peak: 139.1119
Precursor m/z: 139.1117
Precursor type: [M+H]+
m/z	relative intensity	assigned
55.0176	4	C3H3O+
57.0696	23	C4H9+
59.0489	18	C3H7O+
67.0541	4	C5H7+
69.0333	798	C4H5O+
79.0541	19	C6H7+
81.0698	13	C6H9+
83.0491	93	C5H7O+
91.0543	5	C7H7+
93.0699	75	C7H9+
95.0855	47	C7H11+
97.0648	150	C6H9O+
105.0698	28	C8H9+
109.1011	5	C8H13+
111.0804	10	C7H11O+
111.117	2	C8H15+
119.0853	4	C9H11+
121.1011	136	C9H13+
133.0756	2	C8H9N2+
139.1115	999	C9H15O+
