Mass spectrum: Anabasine; LC-ESI-ITFT; MS2; CE: 85%; R=15000; [M+H]+
Name: Anabasine
Formula: C10H14N2
Exact mass: 162.1157
SMILES: C1CCC(NC1)C1=CC=CN=C1
InChI: InChI=1S/C10H14N2/c1-2-7-12-10(5-1)9-4-3-6-11-8-9/h3-4,6,8,10,12H,1-2,5,7H2
Instrument: LTQ Orbitrap XL Thermo Scientific
Instrument type: LC-ESI-ITFT
Ms type: MS2
Ion mode: POSITIVE
Ionization: ESI
Fragmentation mode: HCD
Collision energy: 85 % (nominal)
Resolution: 15000
Column name: Kinetex Evo C18 2.6 um 50 x 2.1 mm
Retention time: 0.419 min
Base peak: 233.201
Precursor m/z: 163.123
Precursor type: [M+H]+
m/z	relative intensity	assigned
65.0385	48	C5H5+
67.0542	9	C5H7+
70.0652	14	C4H8N+
77.0384	5	C6H5+
79.0415	12	C5H5N+
80.0494	113	C5H6N+
82.0651	13	C5H8N+
84.0807	47	C5H10N+
91.0542	186	C7H7+
92.0494	741	C6H6N+
93.0572	179	C6H7N+
94.0651	472	C6H8N+
103.0544	8	C8H7+
105.0701	8	C8H9+
106.065	74	C7H8N+
107.073	23	C7H9N+
115.0546	5	C9H7+
117.0573	411	C8H7N+
118.065	999	C8H8N+
119.0728	17	C8H9N+
119.0853	4	C9H11+
120.0807	211	C8H10N+
128.0618	18	C10H8+
129.0698	28	C10H9+
130.065	354	C9H8N+
131.0728	298	C9H9N+
132.0807	60	C9H10N+
133.0886	7	C9H11N+
134.0964	156	C9H12N+
144.0807	128	C10H10N+
145.0893	4	C10H11N+
146.0963	279	C10H12N+
163.1229	178	C10H15N2+
