Mass spectrum: Anabasine; LC-ESI-ITFT; MS2; CE: 35%; R=15000; [M+H]+
Name: Anabasine
Formula: C10H14N2
Exact mass: 162.1157
SMILES: C1CCC(NC1)C1=CC=CN=C1
InChI: InChI=1S/C10H14N2/c1-2-7-12-10(5-1)9-4-3-6-11-8-9/h3-4,6,8,10,12H,1-2,5,7H2
Instrument: LTQ Orbitrap XL Thermo Scientific
Instrument type: LC-ESI-ITFT
Ms type: MS2
Ion mode: POSITIVE
Ionization: ESI
Fragmentation mode: HCD
Collision energy: 35 % (nominal)
Resolution: 15000
Column name: Kinetex Evo C18 2.6 um 50 x 2.1 mm
Retention time: 0.423 min
Base peak: 233.2012
Precursor m/z: 163.123
Precursor type: [M+H]+
m/z	relative intensity	assigned
82.0651	4	C5H8N+
92.0495	8	C6H6N+
94.065	20	C6H8N+
118.0652	8	C8H8N+
120.0806	23	C8H10N+
134.0963	11	C9H12N+
146.0962	51	C10H12N+
163.1227	999	C10H15N2+
