Mass spectrum: Senecionine; LC-ESI-ITFT; MS2; CE: 95%; R=15000; [M+H]+
Name: Senecionine
Name: (1R,4Z,6R,7R,17R)-4-ethylidene-7-hydroxy-6,7-dimethyl-2,9-dioxa-14-azatricyclo[9.5.1.014,17]heptadec-11-ene-3,8-dione
Formula: C18H25NO5
Exact mass: 335.1733
SMILES: C/C=C\1/C[C@H]([C@@](C(=O)OCC2=CCN3[C@H]2[C@@H](CC3)OC1=O)(C)O)C
InChI: InChI=1S/C18H25NO5/c1-4-12-9-11(2)18(3,22)17(21)23-10-13-5-7-19-8-6-14(15(13)19)24-16(12)20/h4-5,11,14-15,22H,6-10H2,1-3H3/b12-4-/t11-,14-,15-,18-/m1/s1
Instrument: LTQ Orbitrap XL Thermo Scientific
Instrument type: LC-ESI-ITFT
Ms type: MS2
Ion mode: POSITIVE
Ionization: ESI
Fragmentation mode: HCD
Collision energy: 95% (nominal)
Resolution: 15000
Column name: Kinetex Evo C18 2.6 um 50 x 2.1 mm
Retention time: 4.051 min
Base peak: 143.0017
Precursor m/z: 336.1805
Precursor type: [M+H]+
m/z	relative intensity	assigned
65.0385	67	C5H5+
67.0418	39	C4H5N+
67.0542	496	C5H7+
68.0494	169	C4H6N+
77.0386	193	C6H5+
79.0543	286	C6H7+
80.0495	410	C5H6N+
81.0573	138	C5H7N+
81.0699	286	C6H9+
82.0652	246	C5H8N+
91.0543	544	C7H7+
92.0495	88	C6H6N+
93.0573	67	C6H7N+
93.07	245	C7H9+
94.0652	999	C6H8N+
95.0733	46	C6H9N+
96.0807	340	C6H10N+
103.0544	161	C8H7+
105.0573	44	C7H7N+
105.07	65	C8H9+
106.0652	91	C7H8N+
107.0729	72	C7H9N+
107.0859	136	C8H11+
108.0808	301	C7H10N+
110.06	62	C6H8NO+
110.0966	77	C7H12N+
118.0651	198	C8H8N+
119.0729	64	C8H9N+
120.0808	571	C8H10N+
122.0965	67	C8H12N+
138.0915	152	C8H12NO+
