Mass spectrum: Intermedine N-oxide; LC-ESI-ITFT; MS2; CE: 105%; R=15000; [M+H]+
Name: Intermedine N-oxide
Name: [(7R,8R)-7-hydroxy-4-oxido-5,6,7,8-tetrahydro-3H-pyrrolizin-4-ium-1-yl]methyl (2S)-2-hydroxy-2-[(1R)-1-hydroxyethyl]-3-methylbutanoate
Formula: C15H25NO6
Exact mass: 315.1682
SMILES: C[C@H]([C@@](C(C)C)(C(=O)OCC1=CC[N+]2([C@H]1[C@@H](CC2)O)[O-])O)O
InChI: InChI=1S/C15H25NO6/c1-9(2)15(20,10(3)17)14(19)22-8-11-4-6-16(21)7-5-12(18)13(11)16/h4,9-10,12-13,17-18,20H,5-8H2,1-3H3/t10-,12-,13-,15+,16?/m1/s1
Instrument: LTQ Orbitrap XL Thermo Scientific
Instrument type: LC-ESI-ITFT
Ms type: MS2
Ion mode: POSITIVE
Ionization: ESI
Fragmentation mode: HCD
Collision energy: 105% (nominal)
Resolution: 15000
Column name: Kinetex Evo C18 2.6 um 50 x 2.1 mm
Retention time: 1.194 min
Base peak: 143.0016
Precursor m/z: 316.1755
Precursor type: [M+H]+
m/z	relative intensity	assigned
66.0464	30	C5H6+
67.0415	46	C4H5N+
67.0542	44	C5H7+
68.0494	61	C4H6N+
73.0647	18	C4H9O+
79.0542	22	C6H7+
80.0495	591	C5H6N+
81.0574	35	C5H7N+
82.0412	34	C5H6O+
82.0651	85	C5H8N+
83.0491	80	C5H7O+
92.0494	72	C6H6N+
93.0573	543	C6H7N+
94.0651	999	C6H8N+
96.0445	46	C5H6NO+
96.0805	15	C6H10N+
98.06	26	C5H8NO+
102.055	62	C4H8NO2+
106.0651	94	C7H8N+
108.0807	96	C7H10N+
110.06	63	C6H8NO+
111.0678	690	C6H9NO+
124.0755	24	C7H10NO+
136.0756	112	C8H10NO+
137.083	20	C8H11NO+
138.0913	95	C8H12NO+
154.0863	37	C8H12NO2+
155.0934	24	C8H13NO2+
172.0968	140	C8H14NO3+
