Mass spectrum: Digitoxigenin; LC-ESI-ITFT; MS2; CE: 60%; R=15000; [M+H]+
Name: Digitoxigenin
Formula: C23H34O4
Exact mass: 374.2457
SMILES: C[C@]12CC[C@H]3[C@@H](CC[C@@H]4C[C@@H](O)CC[C@]34C)[C@@]1(O)CC[C@@H]2C1=CC(=O)OC1
InChI: InChI=1S/C23H34O4/c1-21-8-5-16(24)12-15(21)3-4-19-18(21)6-9-22(2)17(7-10-23(19,22)26)14-11-20(25)27-13-14/h11,15-19,24,26H,3-10,12-13H2,1-2H3/t15-,16+,17-,18+,19-,21+,22-,23+/m1/s1
Instrument: LTQ Orbitrap XL Thermo Scientific
Instrument type: LC-ESI-ITFT
Ms type: MS2
Ion mode: POSITIVE
Ionization: ESI
Fragmentation mode: CID
Collision energy: 60 % (nominal)
Resolution: 15000
Column name: Kinetex Evo C18 2.6 um 50 x 2.1 mm
Retention time: 11.040 min
Base peak: 416.3515
Precursor m/z: 375.253
Precursor type: [M+H]+
m/z	relative intensity	assigned
135.1169	21	C10H15+
231.1378	5	C15H19O2+
257.1547	6	C17H21O2+
293.2265	34	C22H29+
295.2423	4	C22H31+
311.2377	11	C22H31O+
321.2212	47	C23H29O+
339.232	999	C23H31O2+
357.2425	140	C23H33O3+
