Mass spectrum: Alpinetin; LC-ESI-ITFT; MS2; CE: 95%; R=15000; [M+H]+
Name: Alpinetin
Formula: C16H14O4
Exact mass: 270.0892
SMILES: COC1=C2C(=O)CC(OC2=CC(=C1)O)C3=CC=CC=C3
InChI: InChI=1S/C16H14O4/c1-19-14-7-11(17)8-15-16(14)12(18)9-13(20-15)10-5-3-2-4-6-10/h2-8,13,17H,9H2,1H3
Instrument: LTQ Orbitrap XL Thermo Scientific
Instrument type: LC-ESI-ITFT
Ms type: MS2
Ion mode: POSITIVE
Ionization: ESI
Fragmentation mode: HCD
Collision energy: 95 % (nominal)
Resolution: 15000
Column name: Kinetex Evo C18 2.6 um 50 x 2.1 mm
Retention time: 10.247 min
Base peak: 271.0964
Precursor m/z: 271.0965
Precursor type: [M+H]+
m/z	relative intensity	assigned
50.015	26	C4H2+
53.0385	30	C4H5+
55.0178	10	C3H3O+
65.0385	18	C5H5+
67.0178	36	C4H3O+
68.0257	36	C4H4O+
68.9971	285	C3HO2+
69.0335	23	C4H5O+
71.0127	23	C3H3O2+
71.0489	4	C4H7O+
77.0386	68	C6H5+
78.01	52	C5H2O+
79.0178	22	C5H3O+
79.0542	43	C6H7+
81.0335	80	C5H5O+
83.0492	19	C5H7O+
91.0542	55	C7H7+
93.0335	13	C6H5O+
95.0492	18	C6H7O+
96.0206	139	C5H4O2+
97.0284	38	C5H5O2+
99.044	44	C5H7O2+
103.0542	656	C8H7+
107.0489	5	C7H7O+
109.0284	27	C6H5O2+
111.044	68	C6H7O2+
121.0285	7	C7H5O2+
124.0155	999	C6H4O3+
125.0232	6	C6H5O3+
127.0389	13	C6H7O3+
131.0491	71	C9H7O+
137.0234	29	C7H5O3+
139.039	19	C7H7O3+
141.0699	6	C11H9+
152.0104	616	C7H4O4+
167.0339	876	C8H7O4+
179.0342	10	C9H7O4+
