Mass spectrum: alpha-Santonin; LC-ESI-ITFT; MS2; CE: 85%; R=15000; [M+H]+
Name: alpha-Santonin
Name: Santonin
Name: (3S,3aS,5aS,9bS)-3,5a,9-trimethyl-3a,4,5,9b-tetrahydro-3H-benzo[g][1]benzofuran-2,8-dione
Formula: C15H18O3
Exact mass: 246.1256
SMILES: C[C@H]1[C@@H]2CC[C@]3(C=CC(=O)C(=C3[C@H]2OC1=O)C)C
InChI: InChI=1S/C15H18O3/c1-8-10-4-6-15(3)7-5-11(16)9(2)12(15)13(10)18-14(8)17/h5,7-8,10,13H,4,6H2,1-3H3/t8-,10-,13-,15-/m0/s1
Instrument: LTQ Orbitrap XL Thermo Scientific
Instrument type: LC-ESI-ITFT
Ms type: MS2
Ion mode: POSITIVE
Ionization: ESI
Fragmentation mode: HCD
Collision energy: 85% (nominal)
Resolution: 15000
Column name: Kinetex Evo C18 2.6 um 50 x 2.1 mm
Retention time: 8.952 min
Base peak: 116.9858
Precursor m/z: 247.1329
Precursor type: [M+H]+
m/z	relative intensity	assigned
67.054	5	C5H7+
77.0387	5	C6H5+
79.0542	28	C6H7+
91.0542	129	C7H7+
93.07	9	C7H9+
103.0543	6	C8H7+
105.0698	104	C8H9+
107.0855	21	C8H11+
115.0542	56	C9H7+
116.062	12	C9H8+
117.0698	97	C9H9+
119.0856	7	C9H11+
121.0646	12	C8H9O+
121.1007	10	C9H13+
128.0619	27	C10H8+
129.0698	88	C10H9+
130.0776	107	C10H10+
131.0855	59	C10H11+
133.1015	11	C10H13+
135.0804	304	C9H11O+
140.0618	9	C11H8+
141.0697	9	C11H9+
143.0855	37	C11H11+
144.0569	10	C10H8O+
144.094	4	C11H12+
145.0646	24	C10H9O+
145.1012	298	C11H13+
146.0725	28	C10H10O+
149.0961	23	C10H13O+
153.0698	46	C12H9+
154.0778	22	C12H10+
155.0855	198	C12H11+
156.0937	4	C12H12+
157.0649	52	C11H9O+
158.0726	999	C11H10O+
159.0804	166	C11H11O+
160.0882	25	C11H12O+
161.0959	28	C11H13O+
171.0804	58	C12H11O+
172.0883	47	C12H12O+
173.0961	545	C12H13O+
174.1039	35	C12H14O+
186.1038	49	C13H14O+
201.1275	17	C14H17O+
