Mass spectrum: Yohimbine; LC-ESI-ITFT; MS2; CE: 80%; R=15000; [M+H]+
Name: Yohimbine
Name: methyl (1S,15R,18S,19R,20S)-18-hydroxy-1,3,11,12,14,15,16,17,18,19,20,21-dodecahydroyohimban-19-carboxylate
Formula: C21H26N2O3
Exact mass: 354.1943
SMILES: COC(=O)[C@H]1[C@H](CC[C@@H]2[C@@H]1C[C@H]3c4c(c5ccccc5[nH]4)CCN3C2)O
InChI: InChI=1S/C21H26N2O3/c1-26-21(25)19-15-10-17-20-14(13-4-2-3-5-16(13)22-20)8-9-23(17)11-12(15)6-7-18(19)24/h2-5,12,15,17-19,22,24H,6-11H2,1H3/t12-,15-,17-,18-,19+/m0/s1
Instrument: LTQ Orbitrap XL Thermo Scientific
Instrument type: LC-ESI-ITFT
Ms type: MS2
Ion mode: POSITIVE
Ionization: ESI
Fragmentation mode: HCD
Collision energy: 80% (nominal)
Resolution: 15000
Column name: Kinetex Evo C18 2.6 um 50 x 2.1 mm
Retention time: 6.550 min
Base peak: 355.2014
Precursor m/z: 355.2016
Precursor type: [M+H]+
m/z	relative intensity	assigned
79.0543	6	C6H7+
80.0496	4	C5H6N+
91.0542	15	C7H7+
93.0699	3	C7H9+
94.0651	12	C6H8N+
103.0542	4	C8H7+
105.0699	8	C8H9+
106.0651	21	C7H8N+
107.0853	2	C8H11+
115.0542	18	C9H7+
117.0699	137	C9H9+
118.0652	6	C8H8N+
119.0493	2	C8H7O+
120.0809	3	C8H10N+
128.0495	6	C9H6N+
128.062	3	C10H8+
129.0698	3	C10H9+
130.0651	22	C9H8N+
131.0731	4	C9H9N+
132.0808	6	C9H10N+
133.0651	2	C9H9O+
134.0964	46	C9H12N+
135.0809	2	C9H11O+
136.112	2	C9H14N+
142.0655	2	C10H8N+
143.073	72	C10H9N+
144.0807	999	C10H10N+
145.0648	5	C10H9O+
146.0964	5	C10H12N+
155.0603	38	C10H7N2+
156.0809	7	C11H10N+
157.0887	6	C11H11N+
158.0964	15	C11H12N+
162.0914	13	C10H12NO+
168.0808	7	C12H10N+
170.0959	3	C12H12N+
180.0804	5	C13H10N+
180.1015	5	C10H14NO2+
181.0893	2	C13H11N+
182.096	3	C13H12N+
192.1016	2	C11H14NO2+
194.0963	4	C14H12N+
194.1176	7	C11H16NO2+
206.0964	5	C15H12N+
208.1121	5	C15H14N+
212.1281	8	C11H18NO3+
217.0888	2	C16H11N+
218.0963	3	C16H12N+
219.1033	3	C16H13N+
220.1117	5	C16H14N+
231.1041	2	C17H13N+
232.1128	4	C17H14N+
234.1272	3	C17H16N+
245.1203	2	C18H15N+
246.1268	2	C18H16N+
248.1437	2	C18H18N+
