Mass spectrum: Norharmane; LC-ESI-ITFT; MS2; CE: 35%; R=15000; [M+H]+
Name: Norharmane
Name: Norharman
Name: 9H-pyrido[3,4-b]indole
Formula: C11H8N2
Exact mass: 168.0687
SMILES: N1C2=C(C=CC=C2)C2=C1C=NC=C2
InChI: InChI=1S/C11H8N2/c1-2-4-10-8(3-1)9-5-6-12-7-11(9)13-10/h1-7,13H
Instrument: LTQ Orbitrap XL Thermo Scientific
Instrument type: LC-ESI-ITFT
Ms type: MS2
Ionization: ESI
Ion mode: POSITIVE
Fragmentation mode: CID
Collision energy: 35 % (nominal)
Resolution: 15000
Column name: Kinetex Evo C18 2.6 um 50 x 2.1 mm
Retention time: 6.971 min
Base peak: 169.0767
Precursor m/z: 169.076
Precursor type: [M+H]+
m/z	relative intensity	assigned
169.0762	999	C11H9N2+
