Mass spectrum: Lasiocarpine; LC-ESI-ITFT; MS2; CE: 55%; R=15000; [M+H]+
Name: Lasiocarpine
Name: [(7S,8R)-7-[(Z)-2-methylbut-2-enoyl]oxy-5,6,7,8-tetrahydro-3H-pyrrolizin-1-yl]methyl (2R)-2,3-dihydroxy-2-[(1S)-1-methoxyethyl]-3-methylbutanoate
Formula: C21H33NO7
Exact mass: 411.2257
SMILES: C/C=C(/C)\C(=O)O[C@H]1CCN2[C@@H]1C(=CC2)COC(=O)[C@@]([C@H](C)OC)(C(C)(C)O)O
InChI: InChI=1S/C21H33NO7/c1-7-13(2)18(23)29-16-9-11-22-10-8-15(17(16)22)12-28-19(24)21(26,14(3)27-6)20(4,5)25/h7-8,14,16-17,25-26H,9-12H2,1-6H3/b13-7-/t14-,16-,17+,21-/m0/s1
Instrument: LTQ Orbitrap XL Thermo Scientific
Instrument type: LC-ESI-ITFT
Ms type: MS2
Ion mode: POSITIVE
Ionization: ESI
Fragmentation mode: HCD
Collision energy: 55% (nominal)
Resolution: 15000
Column name: Kinetex Evo C18 2.6 um 50 x 2.1 mm
Retention time: 7.434 min
Base peak: 412.2328
Precursor m/z: 412.233
Precursor type: [M+H]+
m/z	relative intensity	assigned
55.0541	6	C4H7+
59.049	14	C3H7O+
68.0496	2	C4H6N+
79.0542	1	C6H7+
80.0496	5	C5H6N+
83.0492	14	C5H7O+
89.0596	1	C4H9O2+
91.0542	6	C7H7+
92.0492	1	C6H6N+
93.0699	16	C7H9+
94.0652	28	C6H8N+
97.0647	7	C6H9O+
103.0543	9	C8H7+
108.0808	25	C7H10N+
118.0652	9	C8H8N+
119.0729	6	C8H9N+
120.0808	999	C8H10N+
121.0886	41	C8H11N+
122.0965	2	C8H12N+
136.0754	2	C8H10NO+
138.0914	72	C8H12NO+
156.1018	7	C8H14NO2+
220.1332	10	C13H18NO2+
221.141	4	C13H19NO2+
236.1282	2	C13H18NO3+
238.1439	44	C13H20NO3+
