Mass spectrum: Adenine; LC-ESI-ITFT; MS2; CE: 45%; R=15000; [M+H]+
Name: Adenine
Name: 7H-purin-6-amine
Formula: C5H5N5
Exact mass: 135.0545
SMILES: NC1=C2N=CNC2=NC=N1
InChI: InChI=1S/C5H5N5/c6-4-3-5(9-1-7-3)10-2-8-4/h1-2H,(H3,6,7,8,9,10)
Instrument: LTQ Orbitrap XL Thermo Scientific
Instrument type: LC-ESI-ITFT
Ms type: MS2
Ion mode: POSITIVE
Ionization: ESI
Fragmentation mode: HCD
Collision energy: 45% (nominal)
Resolution: 15000
Column name: Kinetex Evo C18 2.6 um 50x2.1 mm, Phenomenex
Retention time: 0.698 min
Base peak: 143.0013
Precursor m/z: 136.0618
Precursor type: [M+H]+
m/z	relative intensity	assigned
119.0352	6	C5H3N4+
136.0618	999	C5H6N5+
