Mass spectrum: Umbelliferone; LC-ESI-ITFT; MS2; CE: 100%; R=15000; [M+H]+
Name: Umbelliferone
Name: 7-hydroxychromen-2-one
Formula: C9H6O3
Exact mass: 162.0317
SMILES: c1cc(cc2c1ccc(=O)o2)O
InChI: InChI=1S/C9H6O3/c10-7-3-1-6-2-4-9(11)12-8(6)5-7/h1-5,10H
Instrument: LTQ Orbitrap XL Thermo Scientific
Instrument type: LC-ESI-ITFT
Ms type: MS2
Ion mode: POSITIVE
Ionization: ESI
Fragmentation mode: HCD
Collision energy: 100% (nominal)
Resolution: 15000
Column name: Kinetex Evo C18 2.6 um 50 x 2.1 mm
Retention time: 6.195 min
Base peak: 116.9859
Precursor m/z: 163.039
Precursor type: [M+H]+
m/z	relative intensity	assigned
65.0385	16	C5H5+
77.0386	207	C6H5+
79.0543	86	C6H7+
91.0542	178	C7H7+
95.049	29	C6H7O+
107.0491	999	C7H7O+
119.0491	30	C8H7O+
135.0445	21	C8H7O2+
163.039	40	C9H7O3+
