Mass spectrum: Cortisone; LC-ESI-ITFT; MS2; CE: 85%; R=15000; [M+H]+
Name: Cortisone
Name: (8S,9S,10R,13S,14S,17R)-17-hydroxy-17-(2-hydroxyacetyl)-10,13-dimethyl-1,2,6,7,8,9,12,14,15,16-decahydrocyclopenta[a]phenanthrene-3,11-dione
Formula: C21H28O5
Exact mass: 360.1937
SMILES: C[C@]12CC(=O)[C@H]3[C@@H](CCC4=CC(=O)CC[C@]34C)[C@@H]1CC[C@]2(O)C(=O)CO
InChI: InChI=1S/C21H28O5/c1-19-7-5-13(23)9-12(19)3-4-14-15-6-8-21(26,17(25)11-22)20(15,2)10-16(24)18(14)19/h9,14-15,18,22,26H,3-8,10-11H2,1-2H3/t14-,15-,18+,19-,20-,21-/m0/s1
Instrument: LTQ Orbitrap XL Thermo Scientific
Instrument type: LC-ESI-ITFT
Ms type: MS2
Ion mode: POSITIVE
Ionization: ESI
Fragmentation mode: CID
Collision energy: 85 % (nominal)
Resolution: 15000
Column name: Kinetex Evo C18 2.6 um 50 x 2.1 mm
Retention time: 9.587 min
Base peak: 361.2013
Precursor m/z: 361.201
Precursor type: [M+H]+
m/z	relative intensity	assigned
93.0699	7	C7H9+
105.0698	33	C8H9+
107.0856	11	C8H11+
115.0542	9	C9H7+
117.0697	17	C9H9+
119.0855	27	C9H11+
121.0647	110	C8H9O+
121.1011	11	C9H13+
123.0804	12	C8H11O+
128.0619	6	C10H8+
129.0698	13	C10H9+
130.0774	5	C10H10+
131.0854	34	C10H11+
133.0648	14	C9H9O+
133.1009	14	C10H13+
135.0803	61	C9H11O+
135.1168	18	C10H15+
137.0958	10	C9H13O+
139.0755	9	C8H11O2+
143.0852	24	C11H11+
145.0646	16	C10H9O+
145.101	102	C11H13+
147.0803	97	C10H11O+
147.1165	11	C11H15+
148.0883	6	C10H12O+
149.0959	27	C10H13O+
151.0754	17	C9H11O2+
153.0908	11	C9H13O2+
155.0855	19	C12H11+
157.0646	9	C11H9O+
157.1009	21	C12H13+
159.0803	38	C11H11O+
159.1168	20	C12H15+
161.0596	5	C10H9O2+
161.096	67	C11H13O+
163.1116	999	C11H15O+
164.1149	35	C6H16N2O3+
165.0698	3	C13H9+
165.0907	8	C10H13O2+
165.1274	10	C11H17O+
167.0854	7	C13H11+
169.1011	22	C13H13+
171.0803	56	C12H11O+
171.1167	98	C13H15+
173.0959	78	C12H13O+
175.1114	27	C12H15O+
177.0908	33	C11H13O2+
179.0853	4	C14H11+
179.1065	15	C11H15O2+
181.0863	10	C10H13O3+
181.101	36	C14H13+
183.0803	9	C13H11O+
183.1165	36	C14H15+
185.096	42	C13H13O+
185.1316	10	C14H17+
187.0752	13	C12H11O2+
187.1115	46	C13H15O+
189.0907	42	C12H13O2+
189.1273	17	C13H17O+
191.1064	39	C12H15O2+
193.101	15	C15H13+
195.0797	4	C14H11O+
195.1166	40	C15H15+
197.096	21	C14H13O+
197.1322	32	C15H17+
199.1115	68	C14H15O+
199.1475	4	C15H19+
201.0906	18	C13H13O2+
201.1272	21	C14H17O+
203.1058	14	C13H15O2+
203.1421	3	C14H19O+
205.1009	8	C16H13+
205.1221	13	C13H17O2+
207.1014	11	C12H15O3+
207.1167	33	C16H15+
209.0959	17	C15H13O+
209.1173	5	C12H17O3+
209.1321	31	C16H17+
211.1116	38	C15H15O+
211.1479	15	C16H19+
213.0909	11	C14H13O2+
213.1271	42	C15H17O+
215.1061	13	C14H15O2+
215.1427	19	C15H19O+
217.1221	27	C14H17O2+
219.1169	11	C17H15+
221.0951	7	C16H13O+
221.1321	54	C17H17+
223.1114	55	C16H15O+
223.1478	49	C17H19+
225.127	75	C16H17O+
225.1636	28	C17H21+
227.1061	12	C15H15O2+
227.1428	35	C16H19O+
229.1219	31	C15H17O2+
231.1373	6	C15H19O2+
232.1251	6	C18H16+
233.1324	16	C18H17+
235.1121	5	C17H15O+
235.1478	41	C18H19+
237.1271	56	C17H17O+
237.1635	52	C18H21+
239.107	8	C16H15O2+
239.1426	124	C17H19O+
239.1789	20	C18H23+
240.147	4	C12H20N2O3+
241.1219	88	C16H17O2+
241.1583	59	C17H21O+
243.1377	34	C16H19O2+
243.1742	22	C17H23O+
245.1164	5	C15H17O3+
245.1318	14	C19H17+
245.1526	4	C16H21O2+
247.1116	9	C18H15O+
247.1324	7	C15H19O3+
247.1479	84	C19H19+
249.1271	44	C18H17O+
249.1634	55	C19H21+
251.1056	7	C17H15O2+
251.1426	30	C18H19O+
251.1793	24	C19H23+
253.1212	8	C17H17O2+
253.1584	42	C18H21O+
255.1377	50	C17H19O2+
255.1739	50	C18H23O+
257.1533	74	C17H21O2+
257.1897	23	C18H25O+
259.1484	6	C20H19+
261.1279	11	C19H17O+
261.1479	19	C16H21O3+
261.1634	47	C20H21+
263.1427	51	C19H19O+
265.1584	397	C19H21O+
266.1604	18	C11H24NO6+
267.1375	87	C18H19O2+
267.174	321	C19H23O+
268.1415	3	C13H20N2O4+
268.1775	17	C14H24N2O3+
269.1533	18	C18H21O2+
269.1898	24	C19H25O+
271.1477	10	C21H19+
271.1687	16	C18H23O2+
273.149	5	C17H21O3+
274.136	7	C20H18O+
277.1583	53	C20H21O+
279.1372	16	C19H19O2+
279.1739	197	C20H23O+
280.1772	13	C15H24N2O3+
281.1534	36	C19H21O2+
283.1689	397	C19H23O2+
285.1481	51	C18H21O3+
285.1844	225	C19H25O2+
286.1876	11	C14H26N2O4+
289.1583	116	C21H21O+
290.1615	7	C16H22N2O3+
295.1689	222	C20H23O2+
296.172	13	C15H24N2O4+
297.1845	182	C20H25O2+
298.1873	10	C15H26N2O4+
299.1638	346	C19H23O3+
301.1794	338	C19H25O3+
302.1829	16	C14H26N2O5+
303.1587	28	C18H23O4+
303.1957	5	C19H27O3+
307.1688	380	C21H23O2+
308.1721	20	C16H24N2O4+
313.1794	315	C20H25O3+
314.1824	16	C15H26N2O5+
315.1948	66	C20H27O3+
317.1741	23	C19H25O4+
325.1794	518	C21H25O3+
326.183	27	C16H26N2O5+
331.1896	22	C20H27O4+
343.1898	887	C21H27O4+
344.1934	48	C16H28N2O6+
