Mass spectrum: Seneciphylline N-oxide; LC-ESI-ITFT; MS2; CE: 50%; R=15000; [M+H]+
Name: Seneciphylline N-oxide
Name: (1R,4E,7R,17R)-4-ethylidene-7-hydroxy-7-methyl-6-methylidene-14-oxido-2,9-dioxa-14-azoniatricyclo[9.5.1.014,17]heptadec-11-ene-3,8-dione
Formula: C18H23NO6
Exact mass: 349.1525
SMILES: C/C=C/1\CC(=C)[C@@](C(=O)OCC2=CC[N+]3([C@H]2[C@@H](CC3)OC1=O)[O-])(C)O
InChI: InChI=1S/C18H23NO6/c1-4-12-9-11(2)18(3,22)17(21)24-10-13-5-7-19(23)8-6-14(15(13)19)25-16(12)20/h4-5,14-15,22H,2,6-10H2,1,3H3/b12-4+/t14-,15-,18-,19?/m1/s1
Instrument: LTQ Orbitrap XL Thermo Scientific
Instrument type: LC-ESI-ITFT
Ms type: MS2
Ion mode: POSITIVE
Ionization: ESI
Fragmentation mode: HCD
Collision energy: 50% (nominal)
Resolution: 15000
Column name: Kinetex Evo C18 2.6 um 50 x 2.1 mm
Retention time: 2.971 min
Base peak: 350.1596
Precursor m/z: 350.1598
Precursor type: [M+H]+
m/z	relative intensity	assigned
68.0493	15	C4H6N+
79.0544	26	C6H7+
80.0495	29	C5H6N+
81.0699	23	C6H9+
82.0651	13	C5H8N+
84.0445	13	C4H6NO+
91.0542	30	C7H7+
93.0573	111	C6H7N+
93.0701	10	C7H9+
94.0652	194	C6H8N+
95.073	311	C6H9N+
96.0809	8	C6H10N+
98.06	23	C5H8NO+
105.07	26	C8H9+
106.0651	108	C7H8N+
107.0492	72	C7H7O+
107.0727	11	C7H9N+
107.0857	15	C8H11+
108.0808	84	C7H10N+
109.0648	55	C7H9O+
109.0886	30	C7H11N+
110.0602	12	C6H8NO+
112.0757	61	C6H10NO+
118.0651	441	C8H8N+
119.073	484	C8H9N+
120.0808	605	C8H10N+
121.0886	135	C8H11N+
122.0727	42	C8H10O+
122.0964	75	C8H12N+
123.0804	57	C8H11O+
124.0757	9	C7H10NO+
132.081	13	C9H10N+
133.0648	15	C9H9O+
135.0441	12	C8H7O2+
136.0757	398	C8H10NO+
137.0835	63	C8H11NO+
138.0914	343	C8H12NO+
139.0989	18	C8H13NO+
140.1069	14	C8H14NO+
149.0594	11	C9H9O2+
150.0674	27	C9H10O2+
151.0753	80	C9H11O2+
154.0863	197	C8H12NO2+
167.0704	20	C9H11O3+
178.1228	19	C11H16NO+
197.0814	7	C10H13O4+
209.1173	32	C12H17O3+
218.1171	16	C13H16NO2+
218.1538	18	C14H20NO+
232.1333	11	C14H18NO2+
246.149	53	C15H20NO2+
288.1598	27	C17H22NO3+
322.1651	123	C17H24NO5+
350.16	999	C18H24NO6+
