Mass spectrum: Fraxidin; LC-ESI-ITFT; MS2; CE: 70%; R=15000; [M+H]+
Name: Fraxidin
Name: 8-hydroxy-6,7-dimethoxychromen-2-one
Formula: C11H10O5
Exact mass: 222.0528
SMILES: COC1=C(OC)C(O)=C2OC(=O)C=CC2=C1
InChI: InChI=1S/C11H10O5/c1-14-7-5-6-3-4-8(12)16-10(6)9(13)11(7)15-2/h3-5,13H,1-2H3
Instrument: LTQ Orbitrap XL Thermo Scientific
Instrument type: LC-ESI-ITFT
Ms type: MS2
Ion mode: POSITIVE
Ionization: ESI
Fragmentation mode: HCD
Collision energy: 70% (nominal)
Resolution: 15000
Column name: Kinetex Evo C18 2.6 um 50 x 2.1 mm
Retention time: 7.600 min
Base peak: 116.9858
Precursor m/z: 223.0601
Precursor type: [M+H]+
m/z	relative intensity	assigned
77.0386	7	C6H5+
78.0464	74	C6H6+
79.0542	7	C6H7+
90.0468	5	C7H6+
105.0335	42	C7H5O+
106.0413	91	C7H6O+
107.0491	31	C7H7O+
117.0332	6	C8H5O+
118.0412	22	C8H6O+
120.0207	8	C7H4O2+
121.0285	3	C7H5O2+
122.0361	3	C7H6O2+
123.0441	15	C7H7O2+
124.0519	3	C7H8O2+
132.0205	6	C8H4O2+
133.0284	41	C8H5O2+
134.0362	228	C8H6O2+
135.0441	262	C8H7O2+
137.0231	8	C7H5O3+
144.0204	21	C9H4O2+
146.0363	9	C9H6O2+
149.0229	7	C8H5O3+
150.0313	16	C8H6O3+
151.039	9	C8H7O3+
152.0468	35	C8H8O3+
161.0233	31	C9H5O3+
162.0312	999	C9H6O3+
163.0389	100	C9H7O3+
164.0468	7	C9H8O3+
165.0183	23	C8H5O4+
167.0703	23	C9H11O3+
172.0153	8	C10H4O3+
178.026	144	C9H6O4+
179.0339	298	C9H7O4+
180.0419	31	C9H8O4+
190.026	556	C10H6O4+
191.0336	7	C10H7O4+
193.0132	26	C9H5O5+
207.0288	435	C10H7O5+
208.0366	175	C10H8O5+
223.0602	66	C11H11O5+
