Mass spectrum: Fraxidin; LC-ESI-ITFT; MS2; CE: 105%; R=15000; [M+H]+
Name: Fraxidin
Name: 8-hydroxy-6,7-dimethoxychromen-2-one
Formula: C11H10O5
Exact mass: 222.0528
SMILES: COC1=C(OC)C(O)=C2OC(=O)C=CC2=C1
InChI: InChI=1S/C11H10O5/c1-14-7-5-6-3-4-8(12)16-10(6)9(13)11(7)15-2/h3-5,13H,1-2H3
Instrument: LTQ Orbitrap XL Thermo Scientific
Instrument type: LC-ESI-ITFT
Ms type: MS2
Ion mode: POSITIVE
Ionization: ESI
Fragmentation mode: HCD
Collision energy: 105% (nominal)
Resolution: 15000
Column name: Kinetex Evo C18 2.6 um 50 x 2.1 mm
Retention time: 7.626 min
Base peak: 116.9858
Precursor m/z: 223.0601
Precursor type: [M+H]+
m/z	relative intensity	assigned
65.0384	21	C5H5+
66.0464	70	C5H6+
76.0308	147	C6H4+
77.0386	169	C6H5+
78.0464	999	C6H6+
79.0543	38	C6H7+
81.0335	58	C5H5O+
88.0308	68	C7H4+
89.0386	80	C7H5+
90.0465	34	C7H6+
92.0257	110	C6H4O+
94.0413	51	C6H6O+
95.0492	45	C6H7O+
104.0257	82	C7H4O+
105.0335	552	C7H5O+
106.0413	309	C7H6O+
107.0491	72	C7H7O+
109.0284	37	C6H5O2+
116.0257	117	C8H4O+
117.0337	22	C8H5O+
118.0414	63	C8H6O+
119.0127	15	C7H3O2+
120.0206	51	C7H4O2+
121.0287	22	C7H5O2+
122.036	29	C7H6O2+
123.0441	302	C7H7O2+
132.0206	101	C8H4O2+
133.0284	545	C8H5O2+
134.0362	444	C8H6O2+
135.044	150	C8H7O2+
137.0232	32	C7H5O3+
144.0206	27	C9H4O2+
147.0078	11	C8H3O3+
149.0234	18	C8H5O3+
150.0311	165	C8H6O3+
151.039	46	C8H7O3+
160.0154	44	C9H4O3+
161.0234	129	C9H5O3+
162.0312	307	C9H6O3+
165.0186	42	C8H5O4+
178.026	131	C9H6O4+
179.0339	123	C9H7O4+
190.0259	12	C10H6O4+
205.0131	24	C10H5O5+
207.0288	136	C10H7O5+
