Mass spectrum: Kaempferol; LC-ESI-ITFT; MS2; CE: 90%; R=15000; [M+H]+
Name: Kaempferol
Name: 3,5,7-trihydroxy-2-(4-hydroxyphenyl)chromen-4-one
Formula: C15H10O6
Exact mass: 286.0477
SMILES: OC1=CC=C(C=C1)C1=C(O)C(=O)C2=C(O)C=C(O)C=C2O1
InChI: InChI=1S/C15H10O6/c16-8-3-1-7(2-4-8)15-14(20)13(19)12-10(18)5-9(17)6-11(12)21-15/h1-6,16-18,20H
Instrument: LTQ Orbitrap XL Thermo Scientific
Instrument type: LC-ESI-ITFT
Ms type: MS2
Ion mode: POSITIVE
Ionization: ESI
Fragmentation mode: HCD
Collision energy: 90% (nominal)
Resolution: 15000
Column name: Kinetex Evo C18 2.6 um 50 x 2.1 mm
Retention time: 10.422 min
Base peak: 116.9859
Precursor m/z: 287.055
Precursor type: [M+H]+
m/z	relative intensity	assigned
65.0385	45	C5H5+
67.018	88	C4H3O+
68.9971	290	C3HO2+
79.0543	75	C6H7+
93.0335	45	C6H5O+
105.0334	82	C7H5O+
107.0492	163	C7H7O+
115.0539	73	C9H7+
121.0284	574	C7H5O2+
128.062	66	C10H8+
129.0701	64	C10H9+
137.0232	110	C7H5O3+
153.0182	999	C7H5O4+
157.065	206	C11H9O+
165.0181	58	C8H5O4+
213.0544	143	C13H9O3+
229.0501	53	C13H9O4+
