Mass spectrum: Daphnetin; LC-ESI-ITFT; MS2; CE: 60%; R=15000; [M+H]+
Name: Daphnetin
Formula: C9H6O4
Exact mass: 178.0266
SMILES: OC1=CC=C2C=CC(=O)OC2=C1O
InChI: InChI=1S/C9H6O4/c10-6-3-1-5-2-4-7(11)13-9(5)8(6)12/h1-4,10,12H
Instrument: LTQ Orbitrap XL Thermo Scientific
Instrument type: LC-ESI-ITFT
Ms type: MS2
Ion mode: POSITIVE
Ionization: ESI
Fragmentation mode: CID
Collision energy: 60 % (nominal)
Resolution: 15000
Column name: Kinetex Evo C18 2.6 um 50 x 2.1 mm
Retention time: 4.615 min
Base peak: 143.0016
Precursor m/z: 179.0339
Precursor type: [M+H]+
m/z	relative intensity	assigned
89.0388	27	C7H5+
107.0491	45	C7H7O+
117.0336	83	C8H5O+
119.0492	34	C8H7O+
123.0442	62	C7H7O2+
133.0285	588	C8H5O2+
135.0442	414	C8H7O2+
147.0442	999	C9H7O2+
161.0235	128	C9H5O3+
