Mass spectrum: Lasiocarpine; LC-ESI-ITFT; MS2; CE: 80%; R=15000; [M+H]+
Name: Lasiocarpine
Name: [(7S,8R)-7-[(Z)-2-methylbut-2-enoyl]oxy-5,6,7,8-tetrahydro-3H-pyrrolizin-1-yl]methyl (2R)-2,3-dihydroxy-2-[(1S)-1-methoxyethyl]-3-methylbutanoate
Formula: C21H33NO7
Exact mass: 411.2257
SMILES: C/C=C(/C)\C(=O)O[C@H]1CCN2[C@@H]1C(=CC2)COC(=O)[C@@]([C@H](C)OC)(C(C)(C)O)O
InChI: InChI=1S/C21H33NO7/c1-7-13(2)18(23)29-16-9-11-22-10-8-15(17(16)22)12-28-19(24)21(26,14(3)27-6)20(4,5)25/h7-8,14,16-17,25-26H,9-12H2,1-6H3/b13-7-/t14-,16-,17+,21-/m0/s1
Instrument: LTQ Orbitrap XL Thermo Scientific
Instrument type: LC-ESI-ITFT
Ms type: MS2
Ion mode: POSITIVE
Ionization: ESI
Fragmentation mode: HCD
Collision energy: 80% (nominal)
Resolution: 15000
Column name: Kinetex Evo C18 2.6 um 50 x 2.1 mm
Retention time: 7.424 min
Base peak: 412.2327
Precursor m/z: 412.233
Precursor type: [M+H]+
m/z	relative intensity	assigned
55.0541	8	C4H7+
59.049	17	C3H7O+
67.0543	3	C5H7+
68.0495	15	C4H6N+
69.07	2	C5H9+
77.0386	23	C6H5+
79.0543	14	C6H7+
80.0495	50	C5H6N+
81.0701	4	C6H9+
82.0652	8	C5H8N+
83.0492	16	C5H7O+
91.0543	56	C7H7+
92.0495	21	C6H6N+
93.0573	10	C6H7N+
93.0699	62	C7H9+
94.0652	65	C6H8N+
95.073	4	C6H9N+
96.0806	5	C6H10N+
97.0649	5	C6H9O+
103.0542	64	C8H7+
105.0573	21	C7H7N+
106.0652	6	C7H8N+
108.0808	75	C7H10N+
110.06	10	C6H8NO+
110.0967	5	C7H12N+
118.0652	50	C8H8N+
119.0731	34	C8H9N+
120.0808	999	C8H10N+
121.0886	31	C8H11N+
122.0966	3	C8H12N+
138.0914	73	C8H12NO+
156.1019	5	C8H14NO2+
