Mass spectrum: Protopin; LC-ESI-ITFT; MS2; CE: 60%; R=15000; [M+H]+
Name: Protopin
Name: Protopine
Name: 15-methyl-7,9,19,21-tetraoxa-15-azapentacyclo[15.7.0.04,12.06,10.018,22]tetracosa-1(17),4,6(10),11,18(22),23-hexaen-3-one
Formula: C20H19NO5
Exact mass: 353.1263
SMILES: CN1CCC2=CC3=C(C=C2C(=O)CC4=C(C1)C5=C(C=C4)OCO5)OCO3
InChI: InChI=1S/C20H19NO5/c1-21-5-4-13-7-18-19(25-10-24-18)8-14(13)16(22)6-12-2-3-17-20(15(12)9-21)26-11-23-17/h2-3,7-8H,4-6,9-11H2,1H3
Instrument: LTQ Orbitrap XL Thermo Scientific
Instrument type: LC-ESI-ITFT
Ms type: MS2
Ion mode: POSITIVE
Ionization: ESI
Fragmentation mode: HCD
Collision energy: 60% (nominal)
Resolution: 15000
Column name: Kinetex Evo C18 2.6 um 50 x 2.1 mm
Retention time: 6.714 min
Base peak: 354.1335
Precursor m/z: 354.1336
Precursor type: [M+H]+
m/z	relative intensity	assigned
79.0542	7	C6H7+
91.0542	39	C7H7+
107.0491	46	C7H7O+
109.0647	9	C7H9O+
115.0546	2	C9H7+
117.0696	2	C9H9+
118.065	2	C8H8N+
119.0491	49	C8H7O+
131.049	10	C9H7O+
131.0731	4	C9H9N+
132.0808	6	C9H10N+
135.044	116	C8H7O2+
137.0601	4	C8H9O2+
144.0807	65	C10H10N+
146.0599	7	C9H8NO+
147.044	45	C9H7O2+
149.0597	399	C9H9O2+
159.0442	16	C10H7O2+
159.0678	27	C10H9NO+
160.0756	15	C10H10NO+
161.0598	16	C10H9O2+
163.0389	50	C9H7O3+
165.0546	167	C9H9O3+
167.0855	18	C13H11+
173.0597	15	C11H9O2+
174.0546	6	C10H8NO2+
175.0389	79	C10H7O3+
176.0705	26	C10H10NO2+
177.0546	7	C10H9O3+
177.0784	39	C10H11NO2+
178.0863	27	C10H12NO2+
179.0855	16	C14H11+
181.0649	3	C13H9O+
187.039	12	C11H7O3+
188.0706	999	C11H10NO2+
189.0784	965	C11H11NO2+
191.0853	3	C15H11+
195.0803	98	C14H11O+
201.0789	5	C12H11NO2+
204.0656	10	C11H10NO3+
205.0644	11	C15H9O+
206.0811	206	C11H12NO3+
207.0798	67	C15H11O+
209.0596	35	C14H9O2+
212.1278	5	C11H18NO3+
217.0647	49	C16H9O+
219.0804	15	C16H11O+
222.067	3	C15H10O2+
223.0754	38	C15H11O2+
225.0909	29	C15H13O2+
233.0596	8	C16H9O2+
235.0752	136	C16H11O2+
237.0546	39	C15H9O3+
237.0907	59	C16H13O2+
245.0596	19	C17H9O2+
247.0753	214	C17H11O2+
248.1072	2	C17H14NO+
249.091	16	C17H13O2+
251.0708	8	C16H11O3+
253.0859	15	C16H13O3+
263.0703	43	C17H11O3+
265.0858	90	C17H13O3+
266.0574	6	C16H10O4+
267.0653	52	C16H11O4+
275.0703	195	C18H11O3+
277.0859	10	C18H13O3+
278.1175	25	C18H16NO2+
279.0651	4	C17H11O4+
280.0723	3	C17H12O4+
292.0731	6	C18H12O4+
293.0808	41	C18H13O4+
295.0965	22	C18H15O4+
304.097	3	C19H14NO3+
305.0808	14	C19H13O4+
306.1127	15	C19H16NO3+
311.0913	5	C18H15O5+
320.0915	36	C19H14NO4+
321.0997	22	C19H15NO4+
323.0915	14	C19H15O5+
334.1074	19	C20H16NO4+
336.1232	30	C20H18NO4+
354.1336	54	C20H20NO5+
