Mass spectrum: Monocrotaline; LC-ESI-ITFT; MS2; CE: 75%; R=15000; [M+H]+
Name: Monocrotaline
Name: (1R,4R,5R,6R,16R)-5,6-dihydroxy-4,5,6-trimethyl-2,8-dioxa-13-azatricyclo[8.5.1.013,16]hexadec-10-ene-3,7-dione
Formula: C16H23NO6
Exact mass: 325.1525
SMILES: C[C@H]1C(=O)O[C@@H]2CCN3[C@@H]2C(=CC3)COC(=O)[C@]([C@]1(C)O)(C)O
InChI: InChI=1S/C16H23NO6/c1-9-13(18)23-11-5-7-17-6-4-10(12(11)17)8-22-14(19)16(3,21)15(9,2)20/h4,9,11-12,20-21H,5-8H2,1-3H3/t9-,11+,12+,15+,16-/m0/s1
Instrument: LTQ Orbitrap XL Thermo Scientific
Instrument type: LC-ESI-ITFT
Ms type: MS2
Ion mode: POSITIVE
Ionization: ESI
Fragmentation mode: HCD
Collision energy: 75% (nominal)
Resolution: 15000
Column name: Kinetex Evo C18 2.6 um 50 x 2.1 mm
Retention time: 0.626 min
Base peak: 326.1596
Precursor m/z: 326.1598
Precursor type: [M+H]+
m/z	relative intensity	assigned
67.0416	114	C4H5N+
67.0543	21	C5H7+
68.0495	40	C4H6N+
79.0545	30	C6H7+
80.0496	92	C5H6N+
82.0651	49	C5H8N+
91.0542	34	C7H7+
93.0573	39	C6H7N+
93.0699	80	C7H9+
94.0652	414	C6H8N+
95.073	401	C6H9N+
96.0808	86	C6H10N+
106.0653	43	C7H8N+
108.0808	53	C7H10N+
110.0596	16	C6H8NO+
118.0656	24	C8H8N+
120.0808	999	C8H10N+
121.0886	619	C8H11N+
122.0965	172	C8H12N+
138.0914	261	C8H12NO+
139.0991	71	C8H13NO+
140.1071	30	C8H14NO+
156.1022	58	C8H14NO2+
164.1068	35	C10H14NO+
180.101	17	C10H14NO2+
184.0972	61	C9H14NO3+
194.1176	136	C11H16NO2+
237.1349	18	C13H19NO3+
