Mass spectrum: Anabasine; LC-ESI-ITFT; MS2; CE: 65%; R=15000; [M+H]+
Name: Anabasine
Formula: C10H14N2
Exact mass: 162.1157
SMILES: C1CCC(NC1)C1=CC=CN=C1
InChI: InChI=1S/C10H14N2/c1-2-7-12-10(5-1)9-4-3-6-11-8-9/h3-4,6,8,10,12H,1-2,5,7H2
Instrument: LTQ Orbitrap XL Thermo Scientific
Instrument type: LC-ESI-ITFT
Ms type: MS2
Ion mode: POSITIVE
Ionization: ESI
Fragmentation mode: CID
Collision energy: 65 % (nominal)
Resolution: 15000
Column name: Kinetex Evo C18 2.6 um 50 x 2.1 mm
Retention time: 0.423 min
Base peak: 163.123
Precursor m/z: 163.123
Precursor type: [M+H]+
m/z	relative intensity	assigned
67.0541	1	C5H7+
70.0652	7	C4H8N+
80.0495	71	C5H6N+
82.0652	32	C5H8N+
84.0809	9	C5H10N+
92.0496	32	C6H6N+
93.0576	1	C6H7N+
94.0652	491	C6H8N+
106.065	3	C7H8N+
108.0808	12	C7H10N+
117.0574	10	C8H7N+
118.0652	95	C8H8N+
120.0808	416	C8H10N+
129.0702	5	C10H9+
130.0654	1	C9H8N+
131.073	26	C9H9N+
132.081	7	C9H10N+
134.0965	256	C9H12N+
135.0917	2	C8H11N2+
136.1121	1	C9H14N+
144.0809	19	C10H10N+
146.0965	999	C10H12N+
