Mass spectrum: Jacobine N-oxide; LC-ESI-ITFT; MS2; CE: 90%; R=15000; [M+H]+
Name: Jacobine N-oxide
Name: (1R,3`S,4S,6R,7R,17R)-7-hydroxy-3`,6,7-trimethyl-14-oxidospiro[2,9-dioxa-14-azoniatricyclo[9.5.1.014,17]heptadec-11-ene-4,2`-oxirane]-3,8-dione
Formula: C18H25NO7
Exact mass: 367.1631
SMILES: C[C@@H]1C[C@]2([C@@H](O2)C)C(=O)O[C@@H]3CC[N+]4([C@@H]3C(=CC4)COC(=O)[C@]1(C)O)[O-]
InChI: InChI=1S/C18H25NO7/c1-10-8-18(11(2)26-18)16(21)25-13-5-7-19(23)6-4-12(14(13)19)9-24-15(20)17(10,3)22/h4,10-11,13-14,22H,5-9H2,1-3H3/t10-,11+,13-,14-,17-,18+,19?/m1/s1
Instrument: LTQ Orbitrap XL Thermo Scientific
Instrument type: LC-ESI-ITFT
Ms type: MS2
Ion mode: POSITIVE
Ionization: ESI
Fragmentation mode: HCD
Collision energy: 90% (nominal)
Resolution: 15000
Column name: Kinetex Evo C18 2.6 um 50 x 2.1 mm
Retention time: 1.286 min
Base peak: 143.0016
Precursor m/z: 368.1704
Precursor type: [M+H]+
m/z	relative intensity	assigned
65.0385	11	C5H5+
66.0464	12	C5H6+
67.0416	11	C4H5N+
67.0542	45	C5H7+
68.0494	29	C4H6N+
77.0386	122	C6H5+
79.0543	75	C6H7+
80.0495	172	C5H6N+
81.0336	12	C5H5O+
81.0572	11	C5H7N+
81.0699	28	C6H9+
82.0652	16	C5H8N+
84.0447	8	C4H6NO+
86.06	14	C4H8NO+
91.0542	174	C7H7+
92.0494	41	C6H6N+
93.0573	292	C6H7N+
93.0699	39	C7H9+
94.0652	432	C6H8N+
95.0492	29	C6H7O+
95.073	65	C6H9N+
95.0854	10	C7H11+
96.0444	17	C5H6NO+
96.0808	29	C6H10N+
97.0645	13	C6H9O+
98.0601	13	C5H8NO+
103.0541	15	C8H7+
105.0574	13	C7H7N+
105.0697	15	C8H9+
106.0652	162	C7H8N+
107.0729	19	C7H9N+
108.0808	74	C7H10N+
109.0646	12	C7H9O+
110.06	34	C6H8NO+
113.0597	27	C6H9O2+
117.0574	26	C8H7N+
118.0652	277	C8H8N+
119.073	115	C8H9N+
120.0808	999	C8H10N+
121.0888	32	C8H11N+
122.0965	55	C8H12N+
124.0759	22	C7H10NO+
132.0804	12	C9H10N+
134.0602	15	C8H8NO+
134.0965	16	C9H12N+
136.0757	58	C8H10NO+
138.0915	31	C8H12NO+
148.0762	12	C9H10NO+
156.102	17	C8H14NO2+
162.0916	29	C10H12NO+
