Mass spectrum: Brucine; LC-ESI-ITFT; MS2; CE: 65%; R=15000; [M+H]+
Name: Brucine
Name: (-)-Brucine
Name: (4aR,5aS,8aR,15bR)-10,11-dimethoxy-4a,5,5a,7,8,13a,15,15a,15b,16-decahydro-2H-4,6-methanoindolo[3,2,1-ij]oxepino[2,3,4-de]pyrrolo[2,3-h]quinolin-14-one
Formula: C23H26N2O4
Exact mass: 394.1893
SMILES: COc1cc2c(cc1OC)N3C4[C@]25CCN6[C@H]5C[C@@H]7[C@H]4C(CC3=O)OCC=C7C6
InChI: InChI=1S/C23H26N2O4/c1-27-16-8-14-15(9-17(16)28-2)25-20(26)10-18-21-13-7-19-23(14,22(21)25)4-5-24(19)11-12(13)3-6-29-18/h3,8-9,13,18-19,21-22H,4-7,10-11H2,1-2H3/t13-,18?,19-,21-,22?,23+/m0/s1
Instrument: LTQ Orbitrap XL Thermo Scientific
Instrument type: LC-ESI-ITFT
Ms type: MS2
Ion mode: POSITIVE
Ionization: ESI
Fragmentation mode: HCD
Collision energy: 65% (nominal)
Resolution: 15000
Column name: Kinetex Evo C18 2.6 um 50 x 2.1 mm
Retention time: 5.942 min
Base peak: 116.9859
Precursor m/z: 395.1965
Precursor type: [M+H]+
m/z	relative intensity	assigned
67.0543	6	C5H7+
70.0649	9	C4H8N+
79.0543	12	C6H7+
80.0494	11	C5H6N+
81.0699	11	C6H9+
91.0543	7	C7H7+
93.0574	13	C6H7N+
93.0698	12	C7H9+
94.0651	17	C6H8N+
95.0491	15	C6H7O+
96.0808	16	C6H10N+
106.0652	49	C7H8N+
107.0731	7	C7H9N+
108.0808	107	C7H10N+
120.0812	5	C8H10N+
121.0645	6	C8H9O+
122.0601	70	C7H8NO+
124.0758	65	C7H10NO+
144.0809	7	C10H10N+
148.0757	16	C9H10NO+
176.0704	10	C10H10NO2+
177.0791	8	C10H11NO2+
178.0864	47	C10H12NO2+
184.0749	7	C12H10NO+
185.0836	30	C12H11NO+
187.0627	5	C11H9NO2+
190.0865	37	C11H12NO2+
192.0656	24	C10H10NO3+
197.0837	22	C13H11NO+
198.055	6	C12H8NO2+
200.0703	6	C12H10NO2+
201.0779	8	C12H11NO2+
202.0864	7	C12H12NO2+
204.0658	5	C11H10NO3+
204.1021	27	C12H14NO2+
211.0627	9	C13H9NO2+
212.0703	14	C13H10NO2+
213.0785	311	C13H11NO2+
214.0503	16	C12H8NO3+
214.0868	16	C13H12NO2+
216.1019	161	C13H14NO2+
220.0974	6	C12H14NO3+
221.0843	4	C15H11NO+
224.0708	5	C14H10NO2+
226.0861	18	C14H12NO2+
227.0942	41	C14H13NO2+
228.0658	15	C13H10NO3+
228.1019	27	C14H14NO2+
229.0734	290	C13H11NO3+
230.0821	21	C13H12NO3+
230.118	10	C14H16NO2+
236.0712	6	C15H10NO2+
236.1067	6	C16H14NO+
240.0646	5	C14H10NO3+
240.1024	12	C15H14NO2+
241.1091	7	C15H15NO2+
242.0808	12	C14H12NO3+
243.0892	23	C14H13NO3+
244.0968	999	C14H14NO3+
246.1128	11	C14H16NO3+
247.0981	5	C17H13NO+
248.0713	6	C16H10NO2+
249.0785	12	C16H11NO2+
249.1155	14	C17H15NO+
251.0941	100	C16H13NO2+
252.065	13	C15H10NO3+
254.082	6	C15H12NO3+
254.1175	88	C16H16NO2+
256.0969	59	C15H14NO3+
257.1048	9	C15H15NO3+
258.0762	7	C14H12NO4+
258.1124	32	C15H16NO3+
260.0919	17	C14H14NO4+
262.0855	11	C17H12NO2+
263.0941	122	C17H13NO2+
264.0656	5	C16H10NO3+
264.1026	15	C17H14NO2+
265.0731	17	C16H11NO3+
265.1098	9	C17H15NO2+
266.0805	10	C16H12NO3+
266.118	14	C17H16NO2+
267.0891	115	C16H13NO3+
268.0959	6	C16H14NO3+
270.1124	10	C16H16NO3+
272.0912	17	C15H14NO4+
276.1027	5	C18H14NO2+
278.1178	32	C18H16NO2+
279.0893	10	C17H13NO3+
279.1258	4	C18H17NO2+
280.0969	96	C17H14NO3+
280.1328	13	C18H18NO2+
281.1043	17	C17H15NO3+
282.1126	161	C17H16NO3+
284.093	8	C16H14NO4+
286.0863	7	C19H12NO2+
288.1009	8	C19H14NO2+
289.1094	5	C19H15NO2+
290.117	8	C19H16NO2+
291.1252	23	C19H17NO2+
292.0958	14	C18H14NO3+
294.1125	47	C18H16NO3+
296.1274	11	C18H18NO3+
297.0985	7	C17H15NO4+
298.1082	9	C17H16NO4+
301.11	30	C20H15NO2+
303.1247	4	C20H17NO2+
304.097	9	C19H14NO3+
306.1125	55	C19H16NO3+
307.1194	14	C19H17NO3+
308.1279	24	C19H18NO3+
309.1237	9	C18H17N2O3+
317.1036	11	C20H15NO3+
319.1201	25	C20H17NO3+
320.1292	11	C20H18NO3+
321.1359	66	C20H19NO3+
322.1437	88	C20H20NO3+
323.1393	10	C19H19N2O3+
324.1231	288	C19H18NO4+
326.1391	7	C19H20NO4+
332.1281	33	C21H18NO3+
335.1152	7	C20H17NO4+
336.1478	13	C20H20N2O3+
338.1396	13	C20H20NO4+
349.1552	27	C21H21N2O3+
350.139	108	C21H20NO4+
351.1699	10	C21H23N2O3+
352.1418	27	C20H20N2O4+
366.1697	9	C22H24NO4+
367.1653	147	C21H23N2O4+
379.1649	30	C22H23N2O4+
380.1727	15	C22H24N2O4+
395.1965	193	C23H27N2O4+
