Mass spectrum: Anabasine; LC-ESI-ITFT; MS2; CE: 125%; R=15000; [M+H]+
Name: Anabasine
Formula: C10H14N2
Exact mass: 162.1157
SMILES: C1CCC(NC1)C1=CC=CN=C1
InChI: InChI=1S/C10H14N2/c1-2-7-12-10(5-1)9-4-3-6-11-8-9/h3-4,6,8,10,12H,1-2,5,7H2
Instrument: LTQ Orbitrap XL Thermo Scientific
Instrument type: LC-ESI-ITFT
Ms type: MS2
Ion mode: POSITIVE
Ionization: ESI
Fragmentation mode: HCD
Collision energy: 125 % (nominal)
Resolution: 15000
Column name: Kinetex Evo C18 2.6 um 50 x 2.1 mm
Retention time: 0.468 min
Base peak: 249.1955
Precursor m/z: 163.123
Precursor type: [M+H]+
m/z	relative intensity	assigned
65.0386	176	C5H5+
67.0542	17	C5H7+
77.0385	28	C6H5+
78.0338	28	C5H4N+
79.0417	67	C5H5N+
80.0495	90	C5H6N+
84.0809	41	C5H10N+
90.0465	75	C7H6+
91.0543	816	C7H7+
92.0495	518	C6H6N+
93.0573	450	C6H7N+
94.0651	136	C6H8N+
103.0544	18	C8H7+
104.0495	21	C7H6N+
106.0651	164	C7H8N+
115.0545	19	C9H7+
117.0573	999	C8H7N+
118.0652	853	C8H8N+
120.0808	56	C8H10N+
128.062	28	C10H8+
130.0651	776	C9H8N+
131.0731	103	C9H9N+
132.081	70	C9H10N+
134.0967	16	C9H12N+
143.0726	17	C10H9N+
144.0809	92	C10H10N+
146.097	17	C10H12N+
