Mass spectrum: Lasiocarpine N-oxide; LC-ESI-ITFT; MS2; CE: 90%; R=15000; [M+H]+
Name: Lasiocarpine N-oxide
Name: [(7S,8R)-7-[(Z)-2-methylbut-2-enoyl]oxy-4-oxido-5,6,7,8-tetrahydro-3H-pyrrolizin-4-ium-1-yl]methyl (2R)-2,3-dihydroxy-2-[(1S)-1-methoxyethyl]-3-methylbutanoate
Formula: C21H33NO8
Exact mass: 427.2206
SMILES: C/C=C(/C)\C(=O)O[C@H]1CC[N+]2([C@@H]1C(=CC2)COC(=O)[C@@]([C@H](C)OC)(C(C)(C)O)O)[O-]
InChI: InChI=1S/C21H33NO8/c1-7-13(2)18(23)30-16-9-11-22(27)10-8-15(17(16)22)12-29-19(24)21(26,14(3)28-6)20(4,5)25/h7-8,14,16-17,25-26H,9-12H2,1-6H3/b13-7-/t14-,16-,17+,21-,22?/m0/s1
Instrument: LTQ Orbitrap XL Thermo Scientific
Instrument type: LC-ESI-ITFT
Ms type: MS2
Ion mode: POSITIVE
Ionization: ESI
Fragmentation mode: HCD
Collision energy: 90% (nominal)
Resolution: 15000
Column name: Kinetex Evo C18 2.6 um 50 x 2.1 mm
Retention time: 7.959 min
Base peak: 428.2273
Precursor m/z: 428.2279
Precursor type: [M+H]+
m/z	relative intensity	assigned
55.0541	86	C4H7+
59.049	33	C3H7O+
66.0463	19	C5H6+
67.0415	21	C4H5N+
67.0542	31	C5H7+
68.0494	61	C4H6N+
69.0697	5	C5H9+
77.0386	12	C6H5+
78.0336	10	C5H4N+
79.0542	70	C6H7+
80.0495	448	C5H6N+
81.0573	32	C5H7N+
81.0698	68	C6H9+
82.0412	7	C5H6O+
82.0652	43	C5H8N+
83.0491	181	C5H7O+
84.0444	48	C4H6NO+
91.0542	81	C7H7+
92.0495	47	C6H6N+
93.0573	457	C6H7N+
93.07	25	C7H9+
94.0651	999	C6H8N+
95.049	7	C6H7O+
95.0729	19	C6H9N+
96.0443	14	C5H6NO+
96.0808	19	C6H10N+
97.0649	6	C6H9O+
98.06	7	C5H8NO+
102.0549	16	C4H8NO2+
103.0542	17	C8H7+
104.0498	10	C7H6N+
105.0575	6	C7H7N+
105.0699	9	C8H9+
106.0651	849	C7H8N+
107.0729	16	C7H9N+
107.0856	11	C8H11+
108.0807	205	C7H10N+
109.0645	16	C7H9O+
110.06	48	C6H8NO+
111.0678	322	C6H9NO+
112.0757	14	C6H10NO+
117.0573	15	C8H7N+
118.0651	535	C8H8N+
119.0729	512	C8H9N+
120.0807	563	C8H10N+
121.0886	13	C8H11N+
122.0601	12	C7H8NO+
122.0961	5	C8H12N+
124.0757	43	C7H10NO+
126.0916	5	C7H12NO+
136.0757	352	C8H10NO+
137.0834	91	C8H11NO+
138.0913	125	C8H12NO+
141.091	19	C8H13O2+
154.0862	42	C8H12NO2+
155.0943	6	C8H13NO2+
172.0968	143	C8H14NO3+
