Mass spectrum: Cevadine; LC-ESI-ITFT; MS2; CE: 105%; R=15000; [M+H]+
Name: Cevadine
Name: Veratrine
Name: [(1R,2S,6S,9S,10R,11S,12S,14R,15S,18S,19S,22S,23S,25R)-1,10,11,12,14,23-hexahydroxy-6,10,19-trimethyl-24-oxa-4-azaheptacyclo[12.12.0.02,11.04,9.015,25.018,23.019,25]hexacosan-22-yl] (Z)-2-methylbut-2-enoate
Formula: C32H49NO9
Exact mass: 591.3407
SMILES: C/C=C(/C)\C(=O)O[C@H]1CC[C@]2([C@H]3[C@@]1(O[C@@]24C[C@]5([C@@H]6CN7C[C@H](CC[C@H]7[C@@]([C@]6([C@H](C[C@]5([C@@H]4CC3)O)O)O)(C)O)C)O)O)C
InChI: InChI=1S/C32H49NO9/c1-6-18(3)25(35)41-24-11-12-26(4)19-8-9-20-28(37)13-23(34)31(39)21(29(28,38)16-30(20,26)42-32(19,24)40)15-33-14-17(2)7-10-22(33)27(31,5)36/h6,17,19-24,34,36-40H,7-16H2,1-5H3/b18-6-/t17-,19-,20-,21-,22-,23-,24-,26-,27+,28+,29+,30+,31-,32-/m0/s1
Instrument: LTQ Orbitrap XL Thermo Scientific
Instrument type: LC-ESI-ITFT
Ms type: MS2
Ion mode: POSITIVE
Ionization: ESI
Fragmentation mode: HCD
Collision energy: 105% (nominal)
Resolution: 15000
Column name: Kinetex Evo C18 2.6 um 50 x 2.1 mm
Retention time: 9.296 min
Base peak: 116.9858
Precursor m/z: 592.348
Precursor type: [M+H]+
m/z	relative intensity	assigned
55.0541	108	C4H7+
67.0542	62	C5H7+
68.0493	34	C4H6N+
69.0697	83	C5H9+
79.0542	131	C6H7+
80.0493	61	C5H6N+
81.07	104	C6H9+
82.0652	93	C5H8N+
83.0493	68	C5H7O+
84.0807	65	C5H10N+
91.0543	157	C7H7+
93.0699	59	C7H9+
94.0652	134	C6H8N+
95.0727	35	C6H9N+
95.0853	40	C7H11+
96.0808	373	C6H10N+
98.0965	228	C6H12N+
105.0699	166	C8H9+
106.0651	83	C7H8N+
107.0489	31	C7H7O+
107.0731	117	C7H9N+
108.0808	155	C7H10N+
109.0645	39	C7H9O+
109.0885	41	C7H11N+
110.0965	185	C7H12N+
117.0575	43	C8H7N+
117.0697	39	C9H9+
118.0652	65	C8H8N+
119.0729	75	C8H9N+
119.0853	63	C9H11+
120.0808	123	C8H10N+
121.0647	57	C8H9O+
122.0597	46	C7H8NO+
122.0963	134	C8H12N+
124.112	233	C8H14N+
125.1199	47	C8H15N+
126.1279	104	C8H16N+
128.0623	64	C10H8+
129.0702	84	C10H9+
131.0725	66	C9H9N+
131.0856	62	C10H11+
132.0809	374	C9H10N+
133.0882	68	C9H11N+
133.1016	30	C10H13+
134.0965	159	C9H12N+
136.0753	69	C8H10NO+
136.112	163	C9H14N+
138.1278	958	C9H16N+
141.0703	36	C11H9+
142.0774	42	C11H10+
143.0851	71	C11H11+
144.0807	78	C10H10N+
145.0648	36	C10H9O+
145.0887	78	C10H11N+
146.0964	298	C10H12N+
147.1044	102	C10H13N+
148.0762	60	C9H10NO+
148.1121	497	C10H14N+
149.1195	68	C10H15N+
150.1276	277	C10H16N+
152.1072	65	C9H14NO+
154.1229	71	C9H16NO+
155.0851	46	C12H11+
158.0967	131	C11H12N+
159.1037	32	C11H13N+
160.1122	259	C11H14N+
161.1197	82	C11H15N+
162.1278	999	C11H16N+
163.1323	61	C8H19O3+
164.1069	81	C10H14NO+
164.1434	709	C11H18N+
165.0697	31	C13H9+
165.1154	32	C10H15NO+
167.0853	49	C13H11+
172.1118	78	C12H14N+
174.1277	596	C12H16N+
175.1353	74	C12H17N+
176.1071	301	C11H14NO+
176.143	115	C12H18N+
177.1151	139	C11H15NO+
178.1228	255	C11H16NO+
180.138	76	C11H18NO+
186.1277	71	C13H16N+
188.1433	759	C13H18N+
190.1227	605	C12H16NO+
190.159	38	C13H20N+
191.13	75	C12H17NO+
192.1385	167	C12H18NO+
200.1429	79	C14H18N+
204.1382	90	C13H18NO+
206.1542	98	C13H20NO+
208.1691	51	C13H22NO+
216.1373	59	C14H18NO+
224.1438	44	C16H18N+
226.1592	36	C16H20N+
230.1537	34	C15H20NO+
522.0262	57	C31H8NO8+
