Mass spectrum: Heliotrine; LC-ESI-ITFT; MS2; CE: 75%; R=15000; [M+H]+
Name: Heliotrine
Name: [(7S,8R)-7-hydroxy-5,6,7,8-tetrahydro-3H-pyrrolizin-1-yl]methyl (2S)-2-hydroxy-2-[(1R)-1-methoxyethyl]-3-methylbutanoate
Formula: C16H27NO5
Exact mass: 313.1889
SMILES: CO[C@H](C)[C@@](O)(C(C)C)C(=O)OCC1=CCN2CC[C@H](O)[C@@H]12
InChI: InChI=1S/C16H27NO5/c1-10(2)16(20,11(3)21-4)15(19)22-9-12-5-7-17-8-6-13(18)14(12)17/h5,10-11,13-14,18,20H,6-9H2,1-4H3/t11-,13+,14-,16+/m1/s1
Instrument: LTQ Orbitrap XL Thermo Scientific
Instrument type: LC-ESI-ITFT
Ms type: MS2
Ion mode: POSITIVE
Ionization: ESI
Fragmentation mode: HCD
Collision energy: 75 % (nominal)
Resolution: 15000
Column name: Kinetex Evo C18 2.6 um 50x2.1 mm, Phenomenex
Retention time: 3.388 min
Base peak: 61.0395
Precursor m/z: 314.1962
Precursor type: [M+H]+
m/z	relative intensity	assigned
82.0651	235	C5H8N+
94.0652	491	C6H8N+
96.0808	190	C6H10N+
120.0807	769	C8H10N+
138.0913	754	C8H12NO+
156.1018	999	C8H14NO2+
