Mass spectrum: Kaempferol; LC-ESI-ITFT; MS2; CE: 100%; R=15000; [M+H]+
Name: Kaempferol
Name: 3,5,7-trihydroxy-2-(4-hydroxyphenyl)chromen-4-one
Formula: C15H10O6
Exact mass: 286.0477
SMILES: OC1=CC=C(C=C1)C1=C(O)C(=O)C2=C(O)C=C(O)C=C2O1
InChI: InChI=1S/C15H10O6/c16-8-3-1-7(2-4-8)15-14(20)13(19)12-10(18)5-9(17)6-11(12)21-15/h1-6,16-18,20H
Instrument: LTQ Orbitrap XL Thermo Scientific
Instrument type: LC-ESI-ITFT
Ms type: MS2
Ion mode: POSITIVE
Ionization: ESI
Fragmentation mode: HCD
Collision energy: 100% (nominal)
Resolution: 15000
Column name: Kinetex Evo C18 2.6 um 50 x 2.1 mm
Retention time: 10.422 min
Base peak: 116.9859
Precursor m/z: 287.055
Precursor type: [M+H]+
m/z	relative intensity	assigned
65.0387	102	C5H5+
68.9971	426	C3HO2+
69.0336	84	C4H5O+
77.0386	135	C6H5+
79.0543	116	C6H7+
93.0336	150	C6H5O+
105.0337	100	C7H5O+
107.049	201	C7H7O+
115.0545	139	C9H7+
119.0492	89	C8H7O+
121.0284	581	C7H5O2+
128.0622	240	C10H8+
147.0437	106	C9H7O2+
153.0183	999	C7H5O4+
157.0649	184	C11H9O+
213.0542	73	C13H9O3+
