Mass spectrum: Sophocarpine; LC-ESI-ITFT; MS2; CE: 65%; R=15000; [M+H]+
Name: Sophocarpine
Name: (1R,2R,9S,17S)-7,13-diazatetracyclo[7.7.1.02,7.013,17]heptadec-4-en-6-one
Formula: C15H22N2O
Exact mass: 246.1732
SMILES: C1C[C@H]2CN3[C@H](CC=CC3=O)[C@@H]4[C@H]2N(C1)CCC4
InChI: InChI=1S/C15H22N2O/c18-14-7-1-6-13-12-5-3-9-16-8-2-4-11(15(12)16)10-17(13)14/h1,7,11-13,15H,2-6,8-10H2/t11-,12+,13+,15-/m0/s1
Instrument: LTQ Orbitrap XL Thermo Scientific
Instrument type: LC-ESI-ITFT
Ms type: MS2
Ion mode: POSITIVE
Ionization: ESI
Fragmentation mode: HCD
Collision energy: 65% (nominal)
Resolution: 15000
Column name: Kinetex Evo C18 2.6 um 50 x 2.1 mm
Retention time: 0.877 min
Base peak: 247.1804
Precursor m/z: 247.1805
Precursor type: [M+H]+
m/z	relative intensity	assigned
82.0653	2	C5H8N+
84.0807	4	C5H10N+
96.0444	3	C5H6NO+
96.0808	53	C6H10N+
98.0964	10	C6H12N+
108.0807	8	C7H10N+
110.0601	10	C6H8NO+
110.0965	4	C7H12N+
112.0757	5	C6H10NO+
112.1119	3	C7H14N+
122.0965	5	C8H12N+
134.0964	2	C9H12N+
136.1121	218	C9H14N+
138.0913	2	C8H12NO+
138.1277	19	C9H16N+
148.0757	5	C9H10NO+
148.1122	22	C10H14N+
149.1196	6	C10H15N+
150.0915	6	C9H12NO+
150.1278	83	C10H16N+
152.1434	11	C10H18N+
162.0913	3	C10H12NO+
164.1069	6	C10H14NO+
174.0916	2	C11H12NO+
176.107	7	C11H14NO+
179.1543	351	C11H19N2+
216.1381	3	C14H18NO+
218.1535	3	C14H20NO+
227.1534	4	C15H19N2+
228.1378	3	C15H18NO+
229.17	15	C15H21N2+
230.1539	5	C15H20NO+
245.165	194	C15H21N2O+
247.1805	999	C15H23N2O+
