Mass spectrum: Protopin; LC-ESI-ITFT; MS2; CE: 85%; R=15000; [M+H]+
Name: Protopin
Name: Protopine
Name: 15-methyl-7,9,19,21-tetraoxa-15-azapentacyclo[15.7.0.04,12.06,10.018,22]tetracosa-1(17),4,6(10),11,18(22),23-hexaen-3-one
Formula: C20H19NO5
Exact mass: 353.1263
SMILES: CN1CCC2=CC3=C(C=C2C(=O)CC4=C(C1)C5=C(C=C4)OCO5)OCO3
InChI: InChI=1S/C20H19NO5/c1-21-5-4-13-7-18-19(25-10-24-18)8-14(13)16(22)6-12-2-3-17-20(15(12)9-21)26-11-23-17/h2-3,7-8H,4-6,9-11H2,1H3
Instrument: LTQ Orbitrap XL Thermo Scientific
Instrument type: LC-ESI-ITFT
Ms type: MS2
Ion mode: POSITIVE
Ionization: ESI
Fragmentation mode: HCD
Collision energy: 85% (nominal)
Resolution: 15000
Column name: Kinetex Evo C18 2.6 um 50 x 2.1 mm
Retention time: 6.681 min
Base peak: 354.1335
Precursor m/z: 354.1336
Precursor type: [M+H]+
m/z	relative intensity	assigned
65.0387	3	C5H5+
77.0385	22	C6H5+
79.0542	42	C6H7+
81.0697	4	C6H9+
89.0386	5	C7H5+
91.0541	150	C7H7+
93.07	8	C7H9+
94.0412	3	C6H6O+
103.0541	29	C8H7+
105.0333	9	C7H5O+
105.07	4	C8H9+
107.049	92	C7H7O+
109.0647	9	C7H9O+
115.0541	12	C9H7+
117.0334	4	C8H5O+
117.0573	4	C8H7N+
117.0696	12	C9H9+
118.065	20	C8H8N+
119.0491	97	C8H7O+
120.0807	7	C8H10N+
121.0648	6	C8H9O+
130.065	39	C9H8N+
131.0491	35	C9H7O+
131.0728	120	C9H9N+
132.057	3	C9H8O+
132.0806	25	C9H10N+
135.044	146	C8H7O2+
137.0601	3	C8H9O2+
143.0492	6	C10H7O+
143.0727	8	C10H9N+
144.0806	83	C10H10N+
146.0599	21	C9H8NO+
147.044	132	C9H7O2+
148.0753	8	C9H10NO+
149.0596	311	C9H9O2+
152.062	15	C12H8+
153.0697	11	C12H9+
158.0602	10	C10H8NO+
159.044	36	C10H7O2+
159.0678	179	C10H9NO+
160.0755	113	C10H10NO+
161.0596	15	C10H9O2+
161.0815	9	C7H13O4+
163.0389	94	C9H7O3+
165.0544	17	C9H9O3+
165.0697	28	C13H9+
166.0775	7	C13H10+
167.0854	95	C13H11+
172.0518	3	C11H8O2+
172.0751	2	C11H10NO+
173.0597	8	C11H9O2+
174.0548	62	C10H8NO2+
175.0388	26	C10H7O3+
175.0608	5	C7H11O5+
176.062	6	C14H8+
176.0704	15	C10H10NO2+
177.0698	57	C14H9+
177.0783	16	C10H11NO2+
178.0775	44	C14H10+
178.0865	7	C10H12NO2+
179.0854	179	C14H11+
181.0648	8	C13H9O+
185.0598	3	C12H9O2+
187.0395	3	C11H7O3+
188.0704	999	C11H10NO2+
189.0693	280	C15H9+
189.0784	369	C11H11NO2+
191.0853	43	C15H11+
192.0567	6	C14H8O+
193.0646	9	C14H9O+
194.0724	4	C14H10O+
195.0801	68	C14H11O+
201.0699	6	C16H9+
204.0811	2	C15H10N+
205.0644	70	C15H9O+
205.0881	3	C15H11N+
206.0808	45	C11H12NO3+
207.0802	134	C15H11O+
209.0594	154	C14H9O2+
217.0645	148	C16H9O+
219.0802	39	C16H11O+
220.0517	5	C15H8O2+
220.112	3	C16H14N+
221.0597	5	C15H9O2+
222.0672	28	C15H10O2+
223.0753	17	C15H11O2+
225.0904	3	C15H13O2+
233.0592	10	C16H9O2+
234.0674	7	C16H10O2+
235.075	94	C16H11O2+
237.054	22	C15H9O3+
237.0906	40	C16H13O2+
245.0591	10	C17H9O2+
246.0675	9	C17H10O2+
247.075	136	C17H11O2+
248.1063	6	C17H14NO+
250.0619	8	C16H10O3+
262.0862	10	C17H12NO2+
263.0699	17	C17H11O3+
263.0946	9	C17H13NO2+
265.0858	18	C17H13O3+
266.0567	6	C16H10O4+
275.07	40	C18H11O3+
276.1012	8	C18H14NO2+
278.1169	8	C18H16NO2+
292.0965	9	C18H14NO3+
293.0811	8	C18H13O4+
320.0911	40	C19H14NO4+
334.1076	3	C20H16NO4+
