Mass spectrum: (-)-Scopolamine; LC-ESI-ITFT; MS2; CE: 100%; R=15000; [M+H]+
Name: (-)-Scopolamine
Formula: C17H21NO4
Exact mass: 303.1471
SMILES: CN1[C@@H]2C[C@H](C[C@H]1[C@H]3[C@@H]2O3)OC(=O)[C@H](CO)c4ccccc4
InChI: InChI=1S/C17H21NO4/c1-18-13-7-11(8-14(18)16-15(13)22-16)21-17(20)12(9-19)10-5-3-2-4-6-10/h2-6,11-16,19H,7-9H2,1H3/t11-,12-,13-,14+,15-,16+/m1/s1
Instrument: LTQ Orbitrap XL Thermo Scientific
Instrument type: LC-ESI-ITFT
Ms type: MS2
Ion mode: POSITIVE
Ionization: ESI
Fragmentation mode: HCD
Collision energy: 100% (nominal)
Resolution: 15000
Column name: Kinetex Evo C18 2.6 um 50 x 2.1 mm
Retention time: 1.117 min
Base peak: 143.0015
Precursor m/z: 304.1543
Precursor type: [M+H]+
m/z	relative intensity	assigned
67.0542	18	C5H7+
68.0495	18	C4H6N+
70.0651	67	C4H8N+
72.0444	11	C3H6NO+
77.0386	77	C6H5+
79.0542	110	C6H7+
80.0497	13	C5H6N+
81.0335	41	C5H5O+
81.0573	8	C5H7N+
81.0699	21	C6H9+
82.0651	52	C5H8N+
83.049	20	C5H7O+
84.0806	16	C5H10N+
86.06	5	C4H8NO+
91.0543	58	C7H7+
93.0698	22	C7H9+
94.0651	48	C6H8N+
95.0493	12	C6H7O+
95.073	24	C6H9N+
96.0444	23	C5H6NO+
96.0807	30	C6H10N+
97.0522	155	C5H7NO+
98.0601	54	C5H8NO+
103.0542	999	C8H7+
107.0492	13	C7H7O+
108.0807	36	C7H10N+
109.0883	7	C7H11N+
110.0599	30	C6H8NO+
110.0964	104	C7H12N+
120.0808	18	C8H10N+
121.0648	32	C8H9O+
123.0677	8	C7H9NO+
138.0913	151	C8H12NO+
156.1019	47	C8H14NO2+
