Mass spectrum: 6-beta-Hydroxycortisol; LC-ESI-ITFT; MS2; CE: 75%; R=15000; [M+H]+
Name: 6-beta-Hydroxycortisol
Name: 6beta-Hydroxycortisol
Name: (6R,8S,9S,10R,11S,13S,14S,17R)-6,11,17-trihydroxy-17-(2-hydroxyacetyl)-10,13-dimethyl-2,6,7,8,9,11,12,14,15,16-decahydro-1H-cyclopenta[a]phenanthren-3-one
Formula: C21H30O6
Exact mass: 378.2042
SMILES: C[C@]12C[C@H](O)[C@H]3[C@@H](C[C@@H](O)C4=CC(=O)CC[C@]34C)[C@@H]1CC[C@]2(O)C(=O)CO
InChI: InChI=1S/C21H30O6/c1-19-5-3-11(23)7-14(19)15(24)8-12-13-4-6-21(27,17(26)10-22)20(13,2)9-16(25)18(12)19/h7,12-13,15-16,18,22,24-25,27H,3-6,8-10H2,1-2H3/t12-,13-,15+,16-,18+,19-,20-,21-/m0/s1
Instrument: LTQ Orbitrap XL Thermo Scientific
Instrument type: LC-ESI-ITFT
Ms type: MS2
Ionization: ESI
Ion mode: POSITIVE
Fragmentation mode: CID
Collision energy: 75 % (nominal)
Resolution: 15000
Column name: Kinetex Evo C18 2.6 um 50 x 2.1 mm
Retention time: 6.511 min
Base peak: 379.2119
Precursor m/z: 379.2115
Precursor type: [M+H]+
m/z	relative intensity	assigned
121.065	8	C8H9O+
131.0859	7	C10H11+
143.0859	12	C11H11+
145.1016	13	C11H13+
155.0861	8	C12H11+
159.0811	6	C11H11O+
169.1015	14	C13H13+
171.0807	21	C12H11O+
173.0965	23	C12H13O+
175.1116	10	C12H15O+
181.1016	14	C14H13+
183.1175	9	C14H15+
185.0968	13	C13H13O+
187.1123	20	C13H15O+
189.0912	11	C12H13O2+
193.102	4	C15H13+
195.1177	20	C15H15+
197.0969	17	C14H13O+
197.1327	12	C15H17+
199.1121	23	C14H15O+
201.1274	6	C14H17O+
205.1008	9	C16H13+
207.1172	24	C16H15+
209.1328	27	C16H17+
211.1121	15	C15H15O+
211.1484	7	C16H19+
213.1277	24	C15H17O+
215.1076	12	C14H15O2+
215.1437	7	C15H19O+
217.1227	40	C14H17O2+
219.1178	14	C17H15+
221.1329	38	C17H17+
223.1119	29	C16H15O+
223.1487	21	C17H19+
225.1282	26	C16H17O+
227.1435	24	C16H19O+
229.1229	18	C15H17O2+
231.1381	6	C15H19O2+
235.1488	20	C18H19+
237.1277	70	C17H17O+
237.1641	22	C18H21+
239.1434	184	C17H19O+
241.1229	11	C16H17O2+
241.1592	26	C17H21O+
243.1383	13	C16H19O2+
245.1327	16	C19H17+
247.1119	4	C18H15O+
247.1333	18	C15H19O3+
247.1484	82	C19H19+
249.1278	70	C18H17O+
249.1641	36	C19H21+
251.1432	20	C18H19O+
253.159	26	C18H21O+
255.1386	29	C17H19O2+
255.1749	13	C18H23O+
257.1538	42	C17H21O2+
259.1479	7	C20H19+
261.1642	49	C20H21+
263.1434	60	C19H19O+
265.1591	239	C19H21O+
267.1383	58	C18H19O2+
267.1748	174	C19H23O+
269.1543	29	C18H21O2+
271.1484	24	C21H19+
277.1591	62	C20H21O+
279.1389	18	C19H19O2+
279.1748	167	C20H23O+
281.1542	38	C19H21O2+
283.1696	343	C19H23O2+
285.1489	15	C18H21O3+
285.1853	129	C19H25O2+
289.159	151	C21H21O+
295.1697	218	C20H23O2+
297.1852	218	C20H25O2+
299.165	23	C19H23O3+
301.1801	55	C19H25O3+
303.1962	14	C19H27O3+
307.1697	445	C21H23O2+
313.1802	512	C20H25O3+
315.1957	49	C20H27O3+
317.1746	18	C19H25O4+
325.1801	809	C21H25O3+
331.1906	145	C20H27O4+
343.1906	999	C21H27O4+
349.2013	45	C20H29O5+
361.2012	647	C21H29O5+
