Mass spectrum: (-)-Nuciferine; LC-ESI-ITFT; MS2; CE: 75%; R=15000; [M+H]+
Name: (-)-Nuciferine
Name: Nuciferine
Name: (6aR)-1,2-dimethoxy-6-methyl-5,6,6a,7-tetrahydro-4H-dibenzo[de,g]quinoline
Formula: C19H21NO2
Exact mass: 295.1572
SMILES: CN1CCc2cc(c(c-3c2[C@H]1Cc4c3cccc4)OC)OC
InChI: InChI=1S/C19H21NO2/c1-20-9-8-13-11-16(21-2)19(22-3)18-14-7-5-4-6-12(14)10-15(20)17(13)18/h4-7,11,15H,8-10H2,1-3H3/t15-/m1/s1
Instrument: LTQ Orbitrap XL Thermo Scientific
Instrument type: LC-ESI-ITFT
Ms type: MS2
Ion mode: POSITIVE
Ionization: ESI
Fragmentation mode: HCD
Collision energy: 75% (nominal)
Resolution: 15000
Column name: Kinetex Evo C18 2.6 um 50 x 2.1 mm
Retention time: 7.612 min
Base peak: 296.1642
Precursor m/z: 296.1645
Precursor type: [M+H]+
m/z	relative intensity	assigned
128.0621	12	C10H8+
165.0699	24	C13H9+
167.0857	4	C13H11+
177.07	5	C14H9+
178.0777	52	C14H10+
179.0856	250	C14H11+
180.0939	3	C14H12+
181.0647	4	C13H9O+
189.07	69	C15H9+
190.0778	97	C15H10+
191.0855	308	C15H11+
192.0936	25	C15H12+
193.0648	24	C14H9O+
193.1012	54	C15H13+
194.0726	9	C14H10O+
194.109	15	C15H14+
195.0804	15	C14H11O+
201.0697	4	C16H9+
202.0776	52	C16H10+
203.0855	208	C16H11+
204.0933	48	C16H12+
205.0648	46	C15H9O+
205.1013	67	C16H13+
206.0726	19	C15H10O+
206.1098	4	C16H14+
207.0805	351	C15H11O+
208.0884	11	C15H12O+
214.0777	4	C17H10+
215.0855	21	C17H11+
217.0649	108	C16H9O+
218.0726	132	C16H10O+
219.0805	432	C16H11O+
220.0885	27	C16H12O+
221.0597	117	C15H9O2+
221.0961	208	C16H13O+
222.0676	9	C15H10O2+
222.1039	80	C16H14O+
223.0754	16	C15H11O2+
231.0805	37	C17H11O+
232.0883	16	C17H12O+
233.0596	5	C16H9O2+
233.0962	111	C17H13O+
234.1039	414	C17H14O+
235.0753	999	C16H11O2+
236.0833	29	C16H12O2+
238.0985	9	C16H14O2+
249.091	121	C17H13O2+
250.0988	259	C17H14O2+
265.1224	63	C18H17O2+
