Mass spectrum: Vincamin; LC-ESI-ITFT; MS2; CE: 105%; R=15000; [M+H]+
Name: Vincamin
Name: Vincamine
Name: methyl (15S,17S,19S)-15-ethyl-17-hydroxy-1,11-diazapentacyclo[9.6.2.02,7.08,18.015,19]nonadeca-2,4,6,8(18)-tetraene-17-carboxylate
Formula: C21H26N2O3
Exact mass: 354.1943
SMILES: CC[C@@]12CCCN3[C@@H]1C4=C(CC3)C5=CC=CC=C5N4[C@](C2)(C(=O)OC)O
InChI: InChI=1S/C21H26N2O3/c1-3-20-10-6-11-22-12-9-15-14-7-4-5-8-16(14)23(17(15)18(20)22)21(25,13-20)19(24)26-2/h4-5,7-8,18,25H,3,6,9-13H2,1-2H3/t18-,20+,21+/m1/s1
Instrument: LTQ Orbitrap XL Thermo Scientific
Instrument type: LC-ESI-ITFT
Ms type: MS2
Ion mode: POSITIVE
Ionization: ESI
Fragmentation mode: HCD
Collision energy: 105% (nominal)
Resolution: 15000
Column name: Kinetex Evo C18 2.6 um 50 x 2.1 mm
Retention time: 6.603 min
Base peak: 355.2016
Precursor m/z: 355.2016
Precursor type: [M+H]+
m/z	relative intensity	assigned
55.0541	21	C4H7+
67.0542	221	C5H7+
68.0495	39	C4H6N+
70.0651	96	C4H8N+
77.0386	66	C6H5+
79.0543	146	C6H7+
80.0495	39	C5H6N+
81.0336	22	C5H5O+
81.0699	90	C6H9+
82.0652	39	C5H8N+
83.0492	111	C5H7O+
84.0808	20	C5H10N+
91.0543	275	C7H7+
93.0572	18	C6H7N+
93.0699	136	C7H9+
94.0652	61	C6H8N+
95.0494	33	C6H7O+
95.073	66	C6H9N+
95.0856	314	C7H11+
96.0808	77	C6H10N+
98.0963	22	C6H12N+
103.0542	96	C8H7+
105.0448	58	C6H5N2+
105.0699	148	C8H9+
106.0653	43	C7H8N+
107.0857	38	C8H11+
108.0808	74	C7H10N+
109.0887	32	C7H11N+
110.0965	192	C7H12N+
112.1123	21	C7H14N+
115.0543	191	C9H7+
117.0574	88	C8H7N+
117.0699	226	C9H9+
118.0652	57	C8H8N+
119.073	39	C8H9N+
120.0809	33	C8H10N+
122.0597	28	C7H8NO+
122.0964	33	C8H12N+
123.0682	13	C7H9NO+
123.0805	45	C8H11O+
123.1043	17	C8H13N+
124.0756	44	C7H10NO+
124.1121	125	C8H14N+
128.0494	53	C9H6N+
128.062	60	C10H8+
129.0699	77	C10H9+
130.0652	207	C9H8N+
131.0731	61	C9H9N+
132.081	39	C9H10N+
134.0966	75	C9H12N+
135.0801	16	C9H11O+
136.0759	21	C8H10NO+
142.0652	56	C10H8N+
143.0731	381	C10H9N+
144.0808	999	C10H10N+
146.096	11	C10H12N+
152.0621	14	C12H8+
152.107	38	C9H14NO+
153.0699	20	C12H9+
154.0653	84	C11H8N+
155.0605	123	C10H7N2+
155.0728	38	C11H9N+
156.0809	101	C11H10N+
157.0886	59	C11H11N+
158.0965	42	C11H12N+
162.0911	12	C10H12NO+
165.07	93	C13H9+
166.0652	29	C12H8N+
166.078	22	C13H10+
167.0731	191	C12H9N+
167.0858	19	C13H11+
168.0808	179	C12H10N+
169.0763	11	C11H9N2+
169.0889	27	C12H11N+
170.06	23	C11H8NO+
170.0966	34	C12H12N+
178.0654	29	C13H8N+
178.0778	84	C14H10+
179.0733	50	C13H9N+
179.0857	36	C14H11+
180.0808	321	C13H10N+
181.0765	12	C12H9N2+
181.0887	128	C13H11N+
182.0966	82	C13H12N+
184.0751	13	C12H10NO+
184.1126	21	C13H14N+
190.0655	54	C14H8N+
191.073	198	C14H9N+
191.0855	19	C15H11+
192.0808	231	C14H10N+
192.0936	22	C15H12+
193.0887	362	C14H11N+
194.0965	225	C14H12N+
195.0919	13	C13H11N2+
195.1046	40	C14H13N+
196.0758	15	C13H10NO+
196.1121	35	C14H14N+
202.0779	15	C16H10+
203.0731	35	C15H9N+
204.0808	661	C15H10N+
205.0886	346	C15H11N+
206.0965	443	C15H12N+
207.1043	156	C15H13N+
208.0756	24	C14H10NO+
208.1121	189	C15H14N+
209.108	30	C14H13N2+
209.1205	25	C15H15N+
216.0808	29	C16H10N+
217.0886	220	C16H11N+
218.0964	411	C16H12N+
219.0921	43	C15H11N2+
219.1044	194	C16H13N+
220.1121	270	C16H14N+
221.121	38	C16H15N+
222.0912	35	C15H12NO+
222.1274	74	C16H16N+
223.1234	64	C15H15N2+
224.0697	13	C14H10NO2+
230.096	48	C17H12N+
231.1045	30	C17H13N+
232.1123	88	C17H14N+
233.084	12	C16H11NO+
233.1077	29	C16H13N2+
233.1207	33	C17H15N+
234.0911	13	C16H12NO+
234.1275	82	C17H16N+
236.0715	20	C15H10NO2+
237.0792	19	C15H11NO2+
237.1378	20	C16H17N2+
238.0862	332	C15H12NO2+
247.1233	80	C17H15N2+
248.0706	21	C16H10NO2+
248.1311	18	C17H16N2+
248.1444	17	C18H18N+
249.0784	48	C16H11NO2+
250.0863	214	C16H12NO2+
251.0941	541	C16H13NO2+
252.1022	240	C16H14NO2+
253.1105	48	C16H15NO2+
262.0865	40	C17H12NO2+
263.0943	54	C17H13NO2+
264.1019	922	C17H14NO2+
265.1109	113	C17H15NO2+
266.1176	338	C17H16NO2+
275.0951	32	C18H13NO2+
276.1019	93	C18H14NO2+
277.1102	17	C18H15NO2+
278.1175	318	C18H16NO2+
280.133	41	C18H18NO2+
290.1179	33	C19H16NO2+
