Mass spectrum: Zearalenone; LC-ESI-ITFT; MS2; CE: 50%; R=15000; [M+H]+
Name: Zearalenone
Name: (4S,12E)-16,18-dihydroxy-4-methyl-3-oxabicyclo[12.4.0]octadeca-1(14),12,15,17-tetraene-2,8-dione
Formula: C18H22O5
Exact mass: 318.1467
SMILES: C[C@H]1CCCC(=O)CCC/C=C/C2=CC(=CC(=C2C(=O)O1)O)O
InChI: InChI=1S/C18H22O5/c1-12-6-5-9-14(19)8-4-2-3-7-13-10-15(20)11-16(21)17(13)18(22)23-12/h3,7,10-12,20-21H,2,4-6,8-9H2,1H3/b7-3+/t12-/m0/s1
Instrument: LTQ Orbitrap XL Thermo Scientific
Instrument type: LC-ESI-ITFT
Ms type: MS2
Ion mode: POSITIVE
Ionization: ESI
Fragmentation mode: HCD
Collision energy: 50% (nominal)
Resolution: 15000
Column name: Kinetex Evo C18 2.6 um 50x2.1 mm, Phenomenex
Retention time: 11.708 min
Base peak: 116.9859
Precursor m/z: 319.154
Precursor type: [M+H]+
m/z	relative intensity	assigned
185.0593	703	C12H9O2+
187.0759	677	C12H11O2+
203.0701	999	C12H11O3+
205.0862	422	C12H13O3+
