Mass spectrum: Formononetin; LC-ESI-ITFT; MS2; CE: 90%; R=15000; [M+H]+
Name: Formononetin
Name: 7-hydroxy-3-(4-methoxyphenyl)chromen-4-one
Formula: C16H12O4
Exact mass: 268.0736
SMILES: COc1ccc(cc1)c2coc3cc(ccc3c2=O)O
InChI: InChI=1S/C16H12O4/c1-19-12-5-2-10(3-6-12)14-9-20-15-8-11(17)4-7-13(15)16(14)18/h2-9,17H,1H3
Instrument: LTQ Orbitrap XL Thermo Scientific
Instrument type: LC-ESI-ITFT
Ms type: MS2
Ion mode: POSITIVE
Ionization: ESI
Fragmentation mode: HCD
Collision energy: 90% (nominal)
Resolution: 15000
Column name: Kinetex Evo C18 2.6 um 50 x 2.1 mm
Retention time: 10.629 min
Base peak: 116.9859
Precursor m/z: 269.0808
Precursor type: [M+H]+
m/z	relative intensity	assigned
77.0385	23	C6H5+
79.0542	25	C6H7+
81.0334	24	C5H5O+
89.0383	14	C7H5+
90.0464	134	C7H6+
103.0541	29	C8H7+
105.0699	23	C8H9+
107.0493	33	C7H7O+
108.0206	64	C6H4O2+
118.0413	258	C8H6O+
128.0619	32	C10H8+
129.0701	31	C10H9+
133.0649	71	C9H9O+
136.0155	49	C7H4O3+
137.0233	169	C7H5O3+
141.07	56	C11H9+
152.0622	102	C12H8+
153.0698	68	C12H9+
155.0496	21	C11H7O+
156.0569	101	C11H8O+
157.0648	34	C11H9O+
158.0727	33	C11H10O+
165.0701	23	C13H9+
169.0648	209	C12H9O+
170.0727	186	C12H10O+
180.057	20	C13H8O+
181.0649	229	C13H9O+
182.0729	41	C13H10O+
184.0517	17	C12H8O2+
195.0803	23	C14H11O+
196.0521	35	C13H8O2+
197.0597	999	C13H9O2+
198.0675	124	C13H10O2+
200.0468	53	C12H8O3+
209.0592	30	C14H9O2+
213.0908	65	C14H13O2+
225.0546	433	C14H9O3+
226.0623	197	C14H10O3+
237.0546	180	C15H9O3+
253.0494	240	C15H9O4+
254.0568	19	C15H10O4+
