Mass spectrum: Aconitin; LC-ESI-ITFT; MS2; CE: 80%; R=15000; [M+H]+
Name: Aconitin
Name: Aconitine
Name: [(1S,2R,3R,4R,5R,6S,7S,8R,9R,13R,14R,16S,17S,18R)-8-acetyloxy-11-ethyl-5,7,14-trihydroxy-6,16,18-trimethoxy-13-(methoxymethyl)-11-azahexacyclo[7.7.2.12,5.01,10.03,8.013,17]nonadecan-4-yl] benzoate
Formula: C34H47NO11
Exact mass: 645.3149
SMILES: CCN1C[C@@]2([C@@H](C[C@@H]([C@@]34[C@@H]2[C@H]([C@@H](C31)[C@@]5([C@@H]6[C@H]4C[C@@]([C@@H]6OC(=O)C7=CC=CC=C7)([C@H]([C@@H]5O)OC)O)OC(=O)C)OC)OC)O)COC
InChI: InChI=1S/C34H47NO11/c1-7-35-15-31(16-41-3)20(37)13-21(42-4)33-19-14-32(40)28(45-30(39)18-11-9-8-10-12-18)22(19)34(46-17(2)36,27(38)29(32)44-6)23(26(33)35)24(43-5)25(31)33/h8-12,19-29,37-38,40H,7,13-16H2,1-6H3/t19-,20-,21+,22-,23+,24+,25-,26?,27+,28-,29+,31+,32-,33+,34-/m1/s1
Instrument: LTQ Orbitrap XL Thermo Scientific
Instrument type: LC-ESI-ITFT
Ms type: MS2
Ion mode: POSITIVE
Ionization: ESI
Fragmentation mode: HCD
Collision energy: 80% (nominal)
Resolution: 15000
Column name: Kinetex Evo C18 2.6 um 50 x 2.1 mm
Retention time: 9.736 min
Base peak: 116.9859
Precursor m/z: 646.3222
Precursor type: [M+H]+
m/z	relative intensity	assigned
71.049	13	C4H7O+
75.0441	9	C3H7O2+
77.0386	79	C6H5+
79.0542	13	C6H7+
81.0701	5	C6H9+
85.0286	9	C4H5O2+
91.0542	43	C7H7+
95.0492	14	C6H7O+
103.0544	9	C8H7+
105.0335	999	C7H5O+
107.0491	16	C7H7O+
108.0808	30	C7H10N+
109.0648	11	C7H9O+
110.0963	8	C7H12N+
111.0804	17	C7H11O+
115.0542	13	C9H7+
117.0699	34	C9H9+
119.0487	11	C8H7O+
119.0857	7	C9H11+
121.065	10	C8H9O+
121.0885	7	C8H11N+
122.0964	20	C8H12N+
124.0762	7	C7H10NO+
128.0622	17	C10H8+
129.0699	38	C10H9+
131.0855	30	C10H11+
132.0804	10	C9H10N+
133.0283	9	C8H5O2+
134.0964	18	C9H12N+
135.0441	8	C8H7O2+
135.0802	6	C9H11O+
140.1064	6	C8H14NO+
141.0697	21	C11H9+
143.0856	8	C11H11+
146.0367	9	C9H6O2+
146.0601	7	C9H8NO+
146.0964	24	C10H12N+
147.0441	12	C9H7O2+
147.0801	7	C10H11O+
147.1044	11	C10H13N+
148.112	15	C10H14N+
152.1069	34	C9H14NO+
153.0699	20	C12H9+
155.0854	20	C12H11+
157.0655	7	C11H9O+
158.0965	20	C11H12N+
159.0799	9	C11H11O+
160.0757	11	C10H10NO+
160.1121	27	C11H14N+
162.0916	19	C10H12NO+
165.0697	32	C13H9+
166.0776	15	C13H10+
167.0855	20	C13H11+
171.1044	12	C12H13N+
172.1121	19	C12H14N+
174.0914	20	C11H12NO+
178.0777	28	C14H10+
178.1227	21	C11H16NO+
179.0854	30	C14H11+
181.1017	7	C14H13+
182.0956	5	C13H12N+
184.1121	15	C13H14N+
186.1277	12	C13H16N+
188.071	14	C11H10NO2+
188.1073	7	C12H14NO+
190.0776	18	C15H10+
190.1226	10	C12H16NO+
191.0859	22	C15H11+
192.0932	12	C15H12+
193.1011	9	C15H13+
194.0728	10	C14H10O+
195.0802	15	C14H11O+
198.1272	5	C14H16N+
200.108	7	C13H14NO+
202.0782	15	C16H10+
202.1226	41	C13H16NO+
203.0852	17	C16H11+
204.093	10	C16H12+
205.1009	19	C16H13+
207.0802	11	C15H11O+
207.1169	6	C16H15+
209.0957	7	C15H13O+
210.128	9	C15H16N+
215.0846	15	C2H17NO10+
216.1388	10	C14H18NO+
218.1546	9	C14H20NO+
219.0803	6	C16H11O+
220.0885	7	C16H12O+
221.0959	6	C16H13O+
222.1276	11	C16H16N+
225.091	6	C15H13O2+
233.096	8	C17H13O+
234.1271	9	C17H16N+
237.0903	6	C16H13O2+
250.1226	9	C17H16NO+
261.09	7	C18H13O2+
322.1425	5	C20H20NO3+
522.1286	13	C31H22O8+
