Mass spectrum: Tomatidine; LC-ESI-ITFT; MS2; CE: 90%; R=15000; [M+H]+
Name: Tomatidine
Formula: C27H45NO2
Exact mass: 415.3450
SMILES: C[C@H]1[C@H]2[C@H](C[C@H]3[C@@H]4CC[C@H]5C[C@@H](O)CC[C@]5(C)[C@H]4CC[C@]23C)O[C@@]11CC[C@H](C)CN1
InChI: InChI=1S/C27H45NO2/c1-16-7-12-27(28-15-16)17(2)24-23(30-27)14-22-20-6-5-18-13-19(29)8-10-25(18,3)21(20)9-11-26(22,24)4/h16-24,28-29H,5-15H2,1-4H3/t16-,17-,18-,19-,20+,21-,22-,23-,24-,25-,26-,27-/m0/s1
Instrument: LTQ Orbitrap XL Thermo Scientific
Instrument type: LC-ESI-ITFT
Ms type: MS2
Ion mode: POSITIVE
Ionization: ESI
Fragmentation mode: CID
Collision energy: 90 % (nominal)
Resolution: 15000
Column name: Kinetex Evo C18 2.6 um 50 x 2.1 mm
Retention time: 10.056 min
Base peak: 217.0493
Precursor m/z: 416.3523
Precursor type: [M+H]+
m/z	relative intensity	assigned
124.1119	5	C8H14N+
126.1278	41	C8H16N+
129.0705	3	C10H9+
131.0854	11	C10H11+
133.1012	15	C10H13+
135.1169	12	C10H15+
145.1012	36	C11H13+
147.1168	49	C11H15+
149.1327	8	C11H17+
151.1117	5	C10H15O+
157.101	5	C12H13+
159.1169	63	C12H15+
161.1325	194	C12H17+
163.1119	15	C11H15O+
171.1169	10	C13H15+
173.1325	55	C13H17+
175.1487	4	C13H19+
185.1327	17	C14H17+
187.1486	13	C14H19+
189.1633	4	C14H21+
191.1438	3	C13H19O+
199.148	32	C15H19+
213.1638	23	C16H21+
215.1795	7	C16H23+
227.1791	15	C17H23+
255.2108	504	C19H27+
273.2212	356	C19H29O+
398.3417	999	C27H44NO+
