Mass spectrum: Seneciphylline N-oxide; LC-ESI-ITFT; MS2; CE: 85%; R=15000; [M+H]+
Name: Seneciphylline N-oxide
Name: (1R,4E,7R,17R)-4-ethylidene-7-hydroxy-7-methyl-6-methylidene-14-oxido-2,9-dioxa-14-azoniatricyclo[9.5.1.014,17]heptadec-11-ene-3,8-dione
Formula: C18H23NO6
Exact mass: 349.1525
SMILES: C/C=C/1\CC(=C)[C@@](C(=O)OCC2=CC[N+]3([C@H]2[C@@H](CC3)OC1=O)[O-])(C)O
InChI: InChI=1S/C18H23NO6/c1-4-12-9-11(2)18(3,22)17(21)24-10-13-5-7-19(23)8-6-14(15(13)19)25-16(12)20/h4-5,14-15,22H,2,6-10H2,1,3H3/b12-4+/t14-,15-,18-,19?/m1/s1
Instrument: LTQ Orbitrap XL Thermo Scientific
Instrument type: LC-ESI-ITFT
Ms type: MS2
Ion mode: POSITIVE
Ionization: ESI
Fragmentation mode: HCD
Collision energy: 85% (nominal)
Resolution: 15000
Column name: Kinetex Evo C18 2.6 um 50 x 2.1 mm
Retention time: 2.982 min
Base peak: 350.1597
Precursor m/z: 350.1598
Precursor type: [M+H]+
m/z	relative intensity	assigned
67.0542	35	C5H7+
68.0494	8	C4H6N+
70.0653	9	C4H8N+
77.0384	22	C6H5+
79.0543	76	C6H7+
80.0495	179	C5H6N+
81.0574	21	C5H7N+
81.0699	47	C6H9+
82.0652	26	C5H8N+
84.0445	19	C4H6NO+
91.0543	93	C7H7+
92.0495	24	C6H6N+
93.0573	391	C6H7N+
94.0652	999	C6H8N+
95.073	91	C6H9N+
95.0855	31	C7H11+
96.0446	11	C5H6NO+
96.081	22	C6H10N+
98.06	26	C5H8NO+
103.0541	10	C8H7+
105.0699	56	C8H9+
106.0652	172	C7H8N+
107.0492	38	C7H7O+
107.0729	20	C7H9N+
108.0808	170	C7H10N+
109.0648	78	C7H9O+
109.0886	15	C7H11N+
110.0599	13	C6H8NO+
112.0757	16	C6H10NO+
117.0573	45	C8H7N+
118.0652	497	C8H8N+
119.073	218	C8H9N+
120.0808	720	C8H10N+
121.0645	12	C8H9O+
122.0964	23	C8H12N+
123.0805	22	C8H11O+
124.0758	7	C7H10NO+
132.0808	21	C9H10N+
133.0646	12	C9H9O+
134.0968	16	C9H12N+
136.0757	420	C8H10NO+
138.0913	66	C8H12NO+
