Mass spectrum: Jervine; LC-ESI-ITFT; MS2; CE: 80%; R=15000; [M+H]+
Name: Jervine
Name: (3S,3`R,3`aS,6`S,6aS,6bS,7`aR,9R,11aS,11bR)-3-hydroxy-3`,6`,10,11b-tetramethylspiro[1,2,3,4,6,6a,6b,7,8,11a-decahydrobenzo[a]fluorene-9,2`-3a,4,5,6,7,7a-hexahydro-3H-furo[3,2-b]pyridine]-11-one
Formula: C27H39NO3
Exact mass: 425.2930
SMILES: C[C@H]1C[C@@H]2[C@H]([C@H]([C@]3(O2)CC[C@H]4[C@@H]5CC=C6C[C@H](CC[C@@]6([C@H]5C(=O)C4=C3C)C)O)C)NC1
InChI: InChI=1S/C27H39NO3/c1-14-11-21-24(28-13-14)16(3)27(31-21)10-8-19-20-6-5-17-12-18(29)7-9-26(17,4)23(20)25(30)22(19)15(27)2/h5,14,16,18-21,23-24,28-29H,6-13H2,1-4H3/t14-,16+,18-,19-,20-,21+,23+,24-,26-,27-/m0/s1
Instrument: LTQ Orbitrap XL Thermo Scientific
Instrument type: LC-ESI-ITFT
Ms type: MS2
Ion mode: POSITIVE
Ionization: ESI
Fragmentation mode: HCD
Collision energy: 80% (nominal)
Resolution: 15000
Column name: Kinetex Evo C18 2.6 um 50 x 2.1 mm
Retention time: 8.952 min
Base peak: 426.3
Precursor m/z: 426.3003
Precursor type: [M+H]+
m/z	relative intensity	assigned
67.0542	935	C5H7+
69.0697	72	C5H9+
70.065	136	C4H8N+
72.0444	42	C3H6NO+
79.0543	245	C6H7+
81.0572	45	C5H7N+
81.0699	726	C6H9+
83.0492	165	C5H7O+
84.0808	771	C5H10N+
85.0648	332	C5H9O+
91.0542	269	C7H7+
93.0699	397	C7H9+
95.0855	156	C7H11+
96.0807	291	C6H10N+
98.0964	65	C6H12N+
102.0913	37	C5H12NO+
105.0699	719	C8H9+
107.0855	361	C8H11+
109.1012	543	C8H13+
112.0757	121	C6H10NO+
114.0913	999	C6H12NO+
117.0699	118	C9H9+
119.0855	373	C9H11+
121.1012	350	C9H13+
124.1124	42	C8H14N+
129.0698	135	C10H9+
130.0777	89	C10H10+
131.0856	273	C10H11+
133.1012	189	C10H13+
141.0698	36	C11H9+
142.0776	98	C11H10+
143.0856	155	C11H11+
145.1011	462	C11H13+
147.0805	39	C10H11O+
147.1165	79	C11H15+
149.0959	111	C10H13O+
155.0853	94	C12H11+
156.0931	54	C12H12+
157.1012	243	C12H13+
159.1168	88	C12H15+
167.0856	79	C13H11+
168.0932	42	C13H12+
169.1012	99	C13H13+
171.1167	100	C13H15+
173.0959	75	C12H13O+
173.1323	52	C13H17+
175.1117	130	C12H15O+
179.0858	48	C14H11+
181.1011	75	C14H13+
189.1266	35	C13H17O+
193.1014	44	C15H13+
195.1174	79	C15H15+
205.1011	37	C16H13+
209.1321	39	C16H17+
233.1336	40	C18H17+
