Mass spectrum: Daphnetin; LC-ESI-ITFT; MS2; CE: 55%; R=15000; [M+H]+
Name: Daphnetin
Formula: C9H6O4
Exact mass: 178.0266
SMILES: OC1=CC=C2C=CC(=O)OC2=C1O
InChI: InChI=1S/C9H6O4/c10-6-3-1-5-2-4-7(11)13-9(5)8(6)12/h1-4,10,12H
Instrument: LTQ Orbitrap XL Thermo Scientific
Instrument type: LC-ESI-ITFT
Ms type: MS2
Ion mode: POSITIVE
Ionization: ESI
Fragmentation mode: CID
Collision energy: 55 % (nominal)
Resolution: 15000
Column name: Kinetex Evo C18 2.6 um 50 x 2.1 mm
Retention time: 4.661 min
Base peak: 143.0016
Precursor m/z: 179.0339
Precursor type: [M+H]+
m/z	relative intensity	assigned
89.0388	28	C7H5+
107.0494	39	C7H7O+
117.0338	61	C8H5O+
119.0494	22	C8H7O+
123.0442	59	C7H7O2+
133.0286	689	C8H5O2+
135.0442	432	C8H7O2+
147.0443	999	C9H7O2+
151.0391	23	C8H7O3+
161.0236	162	C9H5O3+
