Mass spectrum: Jacobine; LC-ESI-ITFT; MS2; CE: 105%; R=15000; [M+H]+
Name: Jacobine
Name: (1R,3`S,4S,6R,7R,17R)-7-hydroxy-3`,6,7-trimethylspiro[2,9-dioxa-14-azatricyclo[9.5.1.014,17]heptadec-11-ene-4,2`-oxirane]-3,8-dione
Formula: C18H25NO6
Exact mass: 351.1682
SMILES: C[C@@H]1C[C@]2([C@@H](O2)C)C(=O)O[C@@H]3CCN4[C@@H]3C(=CC4)COC(=O)[C@]1(C)O
InChI: InChI=1S/C18H25NO6/c1-10-8-18(11(2)25-18)16(21)24-13-5-7-19-6-4-12(14(13)19)9-23-15(20)17(10,3)22/h4,10-11,13-14,22H,5-9H2,1-3H3/t10-,11+,13-,14-,17-,18+/m1/s1
Instrument: LTQ Orbitrap XL Thermo Scientific
Instrument type: LC-ESI-ITFT
Ms type: MS2
Ion mode: POSITIVE
Ionization: ESI
Fragmentation mode: HCD
Collision energy: 105% (nominal)
Resolution: 15000
Column name: Kinetex Evo C18 2.6 um 50 x 2.1 mm
Retention time: 1.041 min
Base peak: 143.0015
Precursor m/z: 352.1755
Precursor type: [M+H]+
m/z	relative intensity	assigned
67.0542	484	C5H7+
70.0651	593	C4H8N+
77.0387	582	C6H5+
79.0542	741	C6H7+
80.0496	831	C5H6N+
81.07	150	C6H9+
82.0653	376	C5H8N+
91.0543	725	C7H7+
93.0698	371	C7H9+
94.0652	999	C6H8N+
95.049	219	C6H7O+
106.0651	384	C7H8N+
107.0728	195	C7H9N+
108.0808	200	C7H10N+
110.0965	240	C7H12N+
118.065	286	C8H8N+
120.0809	910	C8H10N+
122.0966	165	C8H12N+
