Mass spectrum: Pterosin A; LC-ESI-ITFT; MS2; CE: 90%; R=15000; [M+H]+
Name: Pterosin A
Name: (2S)-6-(2-hydroxyethyl)-2-(hydroxymethyl)-2,5,7-trimethyl-3H-inden-1-one
Formula: C15H20O3
Exact mass: 248.1412
SMILES: CC1=CC2=C(C(=C1CCO)C)C(=O)[C@](C2)(C)CO
InChI: InChI=1S/C15H20O3/c1-9-6-11-7-15(3,8-17)14(18)13(11)10(2)12(9)4-5-16/h6,16-17H,4-5,7-8H2,1-3H3/t15-/m0/s1
Instrument: LTQ Orbitrap XL Thermo Scientific
Instrument type: LC-ESI-ITFT
Ms type: MS2
Ion mode: POSITIVE
Ionization: ESI
Fragmentation mode: HCD
Collision energy: 90 % (nominal)
Resolution: 15000
Column name: Kinetex Evo C18 2.6 um 50 x 2.1 mm
Retention time: 9.228 min
Base peak: 249.1476
Precursor m/z: 249.1485
Precursor type: [M+H]+
m/z	relative intensity	assigned
79.0541	27	C6H7+
91.0539	36	C7H7+
105.0696	78	C8H9+
115.0541	26	C9H7+
117.0694	14	C9H9+
119.0853	81	C9H11+
128.0618	114	C10H8+
129.0696	156	C10H9+
130.0776	28	C10H10+
131.0852	40	C10H11+
133.1009	97	C10H13+
141.0696	282	C11H9+
142.0774	570	C11H10+
143.0852	205	C11H11+
144.0931	62	C11H12+
145.1009	67	C11H13+
153.0694	42	C12H9+
154.0772	25	C12H10+
155.0853	999	C12H11+
156.0931	243	C12H12+
157.1009	341	C12H13+
158.1083	25	C12H14+
159.0807	12	C11H11O+
159.1165	19	C12H15+
165.0695	17	C13H9+
168.0932	26	C13H12+
169.0643	23	C12H9O+
169.1009	116	C13H13+
170.1088	754	C13H14+
171.0797	13	C12H11O+
171.1165	9	C13H15+
172.1241	12	C13H16+
173.0968	10	C12H13O+
173.1333	10	C13H17+
183.0801	43	C13H11O+
183.1163	20	C14H15+
185.0956	64	C13H13O+
185.1323	91	C14H17+
198.1042	10	C14H14O+
