Mass spectrum: Jacobine; LC-ESI-ITFT; MS2; CE: 75%; R=15000; [M+H]+
Name: Jacobine
Name: (1R,3`S,4S,6R,7R,17R)-7-hydroxy-3`,6,7-trimethylspiro[2,9-dioxa-14-azatricyclo[9.5.1.014,17]heptadec-11-ene-4,2`-oxirane]-3,8-dione
Formula: C18H25NO6
Exact mass: 351.1682
SMILES: C[C@@H]1C[C@]2([C@@H](O2)C)C(=O)O[C@@H]3CCN4[C@@H]3C(=CC4)COC(=O)[C@]1(C)O
InChI: InChI=1S/C18H25NO6/c1-10-8-18(11(2)25-18)16(21)24-13-5-7-19-6-4-12(14(13)19)9-23-15(20)17(10,3)22/h4,10-11,13-14,22H,5-9H2,1-3H3/t10-,11+,13-,14-,17-,18+/m1/s1
Instrument: LTQ Orbitrap XL Thermo Scientific
Instrument type: LC-ESI-ITFT
Ms type: MS2
Ion mode: POSITIVE
Ionization: ESI
Fragmentation mode: HCD
Collision energy: 75% (nominal)
Resolution: 15000
Column name: Kinetex Evo C18 2.6 um 50 x 2.1 mm
Retention time: 1.038 min
Base peak: 352.1753
Precursor m/z: 352.1755
Precursor type: [M+H]+
m/z	relative intensity	assigned
67.0542	122	C5H7+
69.0333	56	C4H5O+
69.0699	74	C5H9+
70.0652	282	C4H8N+
71.049	48	C4H7O+
77.0387	125	C6H5+
79.0543	294	C6H7+
80.0496	369	C5H6N+
81.0575	52	C5H7N+
81.0699	72	C6H9+
82.0651	115	C5H8N+
85.065	45	C5H9O+
91.0543	243	C7H7+
93.07	346	C7H9+
94.0652	441	C6H8N+
95.0493	76	C6H7O+
95.0731	59	C6H9N+
95.0854	68	C7H11+
96.0809	84	C6H10N+
97.0649	66	C6H9O+
103.0541	72	C8H7+
105.07	195	C8H9+
106.0653	125	C7H8N+
107.0731	137	C7H9N+
108.0809	173	C7H10N+
109.0648	73	C7H9O+
109.1016	49	C8H13+
110.0969	93	C7H12N+
113.0598	189	C6H9O2+
118.0653	68	C8H8N+
119.0729	34	C8H9N+
119.0857	38	C9H11+
120.0808	999	C8H10N+
121.0887	56	C8H11N+
122.0965	534	C8H12N+
123.0804	38	C8H11O+
123.1044	166	C8H13N+
134.0964	52	C9H12N+
137.0962	94	C9H13O+
138.0915	82	C8H12NO+
140.1071	240	C8H14NO+
155.1068	272	C9H15O2+
162.0915	75	C10H12NO+
165.0904	47	C10H13O2+
234.1491	47	C14H20NO2+
