Mass spectrum: 8-Prenylnaringenin; LC-ESI-ITFT; MS2; CE: 75%; R=15000; [M+H]+
Name: 8-Prenylnaringenin
Name: (2S)-5,7-dihydroxy-2-(4-hydroxyphenyl)-8-(3-methylbut-2-enyl)-2,3-dihydrochromen-4-one
Formula: C20H20O5
Exact mass: 340.1311
SMILES: CC(=CCC1=C(C=C(C2=C1O[C@@H](CC2=O)C3=CC=C(C=C3)O)O)O)C
InChI: InChI=1S/C20H20O5/c1-11(2)3-8-14-15(22)9-16(23)19-17(24)10-18(25-20(14)19)12-4-6-13(21)7-5-12/h3-7,9,18,21-23H,8,10H2,1-2H3/t18-/m0/s1
Instrument: LTQ Orbitrap XL Thermo Scientific
Instrument type: LC-ESI-ITFT
Ms type: MS2
Ion mode: POSITIVE
Ionization: ESI
Fragmentation mode: HCD
Collision energy: 75% (nominal)
Resolution: 15000
Column name: Kinetex Evo C18 2.6 um 50 x 2.1 mm
Retention time: 11.902 min
Base peak: 116.9858
Precursor m/z: 341.1384
Precursor type: [M+H]+
m/z	relative intensity	assigned
55.0177	18	C3H3O+
68.9971	21	C3HO2+
69.0335	12	C4H5O+
79.0179	15	C5H3O+
81.0336	31	C5H5O+
92.9971	17	C5HO2+
97.0284	12	C5H5O2+
99.0077	27	C4H3O3+
107.0491	42	C7H7O+
109.0284	12	C6H5O2+
119.0493	11	C8H7O+
121.065	9	C8H9O+
123.0077	75	C6H3O3+
137.0233	51	C7H5O3+
141.0183	24	C6H5O4+
147.0442	17	C9H7O2+
157.0647	4	C11H9O+
165.0183	999	C8H5O4+
169.0653	5	C12H9O+
179.0336	10	C9H7O4+
183.0289	37	C8H7O5+
185.0596	5	C12H9O2+
197.0443	8	C9H9O5+
213.0549	4	C13H9O3+
