Mass spectrum: Daidzein; LC-ESI-ITFT; MS2; CE: 50%; R=15000; [M+H]+
Name: Daidzein
Name: 7-hydroxy-3-(4-hydroxyphenyl)chromen-4-one
Formula: C15H10O4
Exact mass: 254.0579
SMILES: c1cc(ccc1c2coc3cc(ccc3c2=O)O)O
InChI: InChI=1S/C15H10O4/c16-10-3-1-9(2-4-10)13-8-19-14-7-11(17)5-6-12(14)15(13)18/h1-8,16-17H
Instrument: LTQ Orbitrap XL Thermo Scientific
Instrument type: LC-ESI-ITFT
Ms type: MS2
Ion mode: POSITIVE
Ionization: ESI
Fragmentation mode: HCD
Collision energy: 50% (nominal)
Resolution: 15000
Column name: Kinetex Evo C18 2.6 um 50 x 2.1 mm
Retention time: 9.174 min
Base peak: 116.9858
Precursor m/z: 255.0652
Precursor type: [M+H]+
m/z	relative intensity	assigned
91.0541	3	C7H7+
119.0494	6	C8H7O+
133.0281	5	C8H5O2+
137.0233	70	C7H5O3+
145.0283	11	C9H5O2+
153.0698	5	C12H9+
157.0646	7	C11H9O+
171.0808	8	C12H11O+
181.0648	15	C13H9O+
199.0753	162	C13H11O2+
227.0701	81	C14H11O3+
237.0544	17	C15H9O3+
255.0651	999	C15H11O4+
