Mass spectrum: (+)-Isocorydin; LC-ESI-ITFT; MS2; CE: 45%; R=15000; [M+H]+
Name: (+)-Isocorydin
Name: Isocorydine
Name: (6aS)-1,2,10-trimethoxy-6-methyl-5,6,6a,7-tetrahydro-4H-dibenzo[de,g]quinolin-11-ol
Formula: C20H23NO4
Exact mass: 341.1627
SMILES: CN1CCC2=CC(=C(C3=C2[C@@H]1CC4=C3C(=C(C=C4)OC)O)OC)OC
InChI: InChI=1S/C20H23NO4/c1-21-8-7-12-10-15(24-3)20(25-4)18-16(12)13(21)9-11-5-6-14(23-2)19(22)17(11)18/h5-6,10,13,22H,7-9H2,1-4H3/t13-/m0/s1
Instrument: LTQ Orbitrap XL Thermo Scientific
Instrument type: LC-ESI-ITFT
Ms type: MS2
Ion mode: POSITIVE
Ionization: ESI
Fragmentation mode: HCD
Collision energy: 45% (nominal)
Resolution: 15000
Column name: Kinetex Evo C18 2.6 um 50 x 2.1 mm
Retention time: 6.305 min
Base peak: 342.1697
Precursor m/z: 342.17
Precursor type: [M+H]+
m/z	relative intensity	assigned
191.0853	30	C15H11+
193.1013	3	C15H13+
194.0726	3	C14H10O+
205.0646	3	C15H9O+
208.0884	12	C15H12O+
219.0804	55	C16H11O+
220.0886	11	C16H12O+
221.0962	18	C16H13O+
223.1115	28	C16H15O+
224.0834	7	C15H12O2+
231.0808	4	C17H11O+
233.096	13	C17H13O+
235.0749	10	C16H11O2+
236.0831	216	C16H12O2+
239.1066	6	C16H15O2+
246.0676	3	C17H10O2+
247.0754	101	C17H11O2+
248.0832	446	C17H12O2+
250.0991	11	C17H14O2+
251.1065	287	C17H15O2+
252.0783	4	C16H12O3+
253.0864	8	C16H13O3+
261.0907	15	C18H13O2+
262.0987	25	C18H14O2+
263.0703	7	C17H11O3+
264.078	326	C17H12O3+
265.086	160	C17H13O3+
267.1015	62	C17H15O3+
268.1097	13	C17H16O3+
278.0936	12	C18H14O3+
279.1015	999	C18H15O3+
280.1095	355	C18H16O3+
281.0807	132	C17H13O4+
284.1044	8	C17H16O4+
294.1242	3	C19H18O3+
296.1042	404	C18H16O4+
298.1204	3	C18H18O4+
299.1273	4	C18H19O4+
311.1277	281	C19H19O4+
313.1443	2	C19H21O4+
342.1697	14	C20H24NO4+
