Mass spectrum: Erucifoline N-oxide; LC-ESI-ITFT; MS2; CE: 60%; R=15000; [M+H]+
Name: Erucifoline N-oxide
Name: (5R,7S,9Z,12R,18R)-9-ethylidene-7-(hydroxymethyl)-5-methyl-15-oxido-3,6,11-trioxa-15-azoniatetracyclo[10.5.1.05,7.015,18]octadec-1(17)-ene-4,10-dione
Formula: C18H23NO7
Exact mass: 365.1475
SMILES: C/C=C\1/C[C@@]2([C@@](O2)(C(=O)OCC3=CC[N+]4([C@H]3[C@@H](CC4)OC1=O)[O-])C)CO
InChI: InChI=1S/C18H23NO7/c1-3-11-8-18(10-20)17(2,26-18)16(22)24-9-12-4-6-19(23)7-5-13(14(12)19)25-15(11)21/h3-4,13-14,20H,5-10H2,1-2H3/b11-3-/t13-,14-,17+,18+,19?/m1/s1
Instrument: LTQ Orbitrap XL Thermo Scientific
Instrument type: LC-ESI-ITFT
Ms type: MS2
Ion mode: POSITIVE
Ionization: ESI
Fragmentation mode: HCD
Collision energy: 60% (nominal)
Resolution: 15000
Column name: Kinetex Evo C18 2.6 um 50 x 2.1 mm
Retention time: 1.120 min
Base peak: 366.1547
Precursor m/z: 366.1547
Precursor type: [M+H]+
m/z	relative intensity	assigned
53.0385	19	C4H5+
67.0417	11	C4H5N+
67.0542	40	C5H7+
68.0496	14	C4H6N+
69.0335	7	C4H5O+
77.0384	9	C6H5+
79.0543	50	C6H7+
80.0495	81	C5H6N+
81.0335	8	C5H5O+
81.0573	22	C5H7N+
81.0699	46	C6H9+
82.0652	29	C5H8N+
83.0492	20	C5H7O+
84.0446	19	C4H6NO+
91.0542	58	C7H7+
92.0497	8	C6H6N+
93.0574	351	C6H7N+
93.07	30	C7H9+
94.0652	635	C6H8N+
95.0491	34	C6H7O+
95.073	140	C6H9N+
96.0444	17	C5H6NO+
96.0806	6	C6H10N+
97.0648	17	C6H9O+
98.0601	65	C5H8NO+
99.0444	5	C5H7O2+
103.0545	9	C8H7+
105.0699	13	C8H9+
106.0652	94	C7H8N+
107.0493	11	C7H7O+
107.073	42	C7H9N+
107.0854	14	C8H11+
108.0808	204	C7H10N+
109.0648	64	C7H9O+
109.0887	51	C7H11N+
110.0601	20	C6H8NO+
111.0443	23	C6H7O2+
112.0757	88	C6H10NO+
117.0572	10	C8H7N+
118.0652	665	C8H8N+
119.073	710	C8H9N+
120.0808	659	C8H10N+
121.0649	30	C8H9O+
121.0887	43	C8H11N+
122.06	6	C7H8NO+
122.0965	129	C8H12N+
123.044	48	C7H7O2+
123.068	11	C7H9NO+
123.0803	19	C8H11O+
124.0757	27	C7H10NO+
125.0597	37	C7H9O2+
126.0911	14	C7H12NO+
132.081	10	C9H10N+
134.0605	10	C8H8NO+
134.0964	19	C9H12N+
135.0441	10	C8H7O2+
136.0758	999	C8H10NO+
137.06	26	C8H9O2+
137.0836	98	C8H11NO+
138.0914	167	C8H12NO+
139.0389	18	C7H7O3+
139.0754	73	C8H11O2+
140.1071	19	C8H14NO+
141.0546	26	C7H9O3+
144.0809	10	C10H10N+
146.0964	32	C10H12N+
148.1122	18	C10H14N+
149.0597	24	C9H9O2+
151.0389	15	C8H7O3+
151.0752	24	C9H11O2+
152.0708	15	C8H10NO2+
154.0864	126	C8H12NO2+
158.0964	10	C11H12N+
160.1121	10	C11H14N+
162.0914	24	C10H12NO+
164.1071	138	C10H14NO+
165.0547	70	C9H9O3+
167.0705	11	C9H11O3+
172.1121	13	C12H14N+
176.1074	13	C11H14NO+
178.1221	9	C11H16NO+
183.0651	36	C9H11O4+
188.1064	6	C12H14NO+
190.0861	12	C11H12NO2+
190.1225	59	C12H16NO+
199.0966	28	C10H15O4+
204.1028	9	C12H14NO2+
209.1172	45	C12H17O3+
216.1381	13	C14H18NO+
218.1177	49	C13H16NO2+
220.1335	27	C13H18NO2+
232.1333	12	C14H18NO2+
244.1334	14	C15H18NO2+
278.1388	41	C15H20NO4+
366.155	137	C18H24NO7+
