Mass spectrum: Erucifoline; LC-ESI-ITFT; MS2; CE: 35%; R=15000; [M+H]+
Name: Erucifoline
Name: (5R,7S,9Z,12R,18R)-9-ethylidene-7-(hydroxymethyl)-5-methyl-3,6,11-trioxa-15-azatetracyclo[10.5.1.05,7.015,18]octadec-1(17)-ene-4,10-dione
Formula: C18H23NO6
Exact mass: 349.1525
SMILES: C/C=C\1/C[C@@]2([C@@](O2)(C(=O)OCC3=CCN4[C@H]3[C@@H](CC4)OC1=O)C)CO
InChI: InChI=1S/C18H23NO6/c1-3-11-8-18(10-20)17(2,25-18)16(22)23-9-12-4-6-19-7-5-13(14(12)19)24-15(11)21/h3-4,13-14,20H,5-10H2,1-2H3/b11-3-/t13-,14-,17+,18+/m1/s1
Instrument: LTQ Orbitrap XL Thermo Scientific
Instrument type: LC-ESI-ITFT
Ms type: MS2
Ion mode: POSITIVE
Ionization: ESI
Fragmentation mode: HCD
Collision energy: 35% (nominal)
Resolution: 15000
Column name: Kinetex Evo C18 2.6 um 50 x 2.1 mm
Retention time: 0.960 min
Base peak: 350.1595
Precursor m/z: 350.1598
Precursor type: [M+H]+
m/z	relative intensity	assigned
79.0542	1	C6H7+
93.0702	1	C7H9+
94.0651	4	C6H8N+
96.0807	2	C6H10N+
103.0543	1	C8H7+
109.0643	1	C7H9O+
118.0651	2	C8H8N+
120.0807	47	C8H10N+
121.0883	2	C8H11N+
122.0965	2	C8H12N+
125.0601	1	C7H9O2+
138.0913	35	C8H12NO+
141.0546	1	C7H9O3+
164.1069	7	C10H14NO+
165.0549	1	C9H9O3+
322.1648	13	C17H24NO5+
350.1597	999	C18H24NO6+
