Mass spectrum: Kaempferol; LC-ESI-ITFT; MS2; CE: 95%; R=15000; [M+H]+
Name: Kaempferol
Name: 3,5,7-trihydroxy-2-(4-hydroxyphenyl)chromen-4-one
Formula: C15H10O6
Exact mass: 286.0477
SMILES: OC1=CC=C(C=C1)C1=C(O)C(=O)C2=C(O)C=C(O)C=C2O1
InChI: InChI=1S/C15H10O6/c16-8-3-1-7(2-4-8)15-14(20)13(19)12-10(18)5-9(17)6-11(12)21-15/h1-6,16-18,20H
Instrument: LTQ Orbitrap XL Thermo Scientific
Instrument type: LC-ESI-ITFT
Ms type: MS2
Ion mode: POSITIVE
Ionization: ESI
Fragmentation mode: HCD
Collision energy: 95% (nominal)
Resolution: 15000
Column name: Kinetex Evo C18 2.6 um 50 x 2.1 mm
Retention time: 10.422 min
Base peak: 116.9859
Precursor m/z: 287.055
Precursor type: [M+H]+
m/z	relative intensity	assigned
67.0176	48	C4H3O+
68.997	299	C3HO2+
69.0335	53	C4H5O+
79.0543	78	C6H7+
93.0334	96	C6H5O+
105.0339	82	C7H5O+
107.0493	144	C7H7O+
115.0542	113	C9H7+
119.0493	70	C8H7O+
121.0283	514	C7H5O2+
128.0618	130	C10H8+
129.0694	69	C10H9+
153.0182	999	C7H5O4+
157.0648	189	C11H9O+
213.054	99	C13H9O3+
