Mass spectrum: Citrinin; LC-ESI-ITFT; MS2; CE: 70%; R=15000; [M+H]+
Name: Citrinin
Formula: C13H14O5
Exact mass: 250.0841
SMILES: C[C@H]1OC=C2C(O)=C(C(O)=O)C(=O)C(C)=C2[C@@H]1C
InChI: InChI=1S/C13H14O5/c1-5-7(3)18-4-8-9(5)6(2)11(14)10(12(8)15)13(16)17/h4-5,7,15H,1-3H3,(H,16,17)/t5-,7-/m1/s1
Instrument: LTQ Orbitrap XL Thermo Scientific
Instrument type: LC-ESI-ITFT
Ms type: MS2
Ion mode: POSITIVE
Ionization: ESI
Fragmentation mode: HCD
Collision energy: 70 % (nominal)
Resolution: 15000
Column name: Kinetex Evo C18 2.6 um 50 x 2.1 mm
Retention time: 11.909 min
Base peak: 251.0912
Precursor m/z: 251.0914
Precursor type: [M+H]+
m/z	relative intensity	assigned
55.0541	5	C4H7+
67.0541	34	C5H7+
68.997	13	C3HO2+
77.0387	19	C6H5+
79.0179	15	C5H3O+
79.0542	45	C6H7+
81.0698	8	C6H9+
83.0125	7	C4H3O2+
91.0542	156	C7H7+
93.0699	44	C7H9+
95.0855	134	C7H11+
103.0543	12	C8H7+
105.0699	61	C8H9+
107.0128	30	C6H3O2+
107.0491	95	C7H7O+
107.0855	76	C8H11+
109.0647	15	C7H9O+
109.1012	34	C8H13+
115.0541	14	C9H7+
116.0619	29	C9H8+
117.0698	35	C9H9+
119.0493	18	C8H7O+
119.0855	339	C9H11+
121.0647	36	C8H9O+
121.101	22	C9H13+
122.0726	7	C8H10O+
123.0804	76	C8H11O+
128.0619	17	C10H8+
129.07	25	C10H9+
131.0855	172	C10H11+
132.057	8	C9H8O+
133.0649	6	C9H9O+
134.0724	10	C9H10O+
135.044	26	C8H7O2+
135.0804	85	C9H11O+
137.0961	158	C9H13O+
141.0699	33	C11H9+
144.057	27	C10H8O+
145.0287	5	C9H5O2+
145.0647	30	C10H9O+
147.044	17	C9H7O2+
147.0804	284	C10H11O+
148.0517	16	C9H8O2+
149.0596	23	C9H9O2+
149.0961	42	C10H13O+
159.0805	104	C11H11O+
161.06	11	C10H9O2+
162.0676	64	C10H10O2+
163.039	29	C9H7O3+
163.0754	75	C10H11O2+
165.091	17	C10H13O2+
169.0648	63	C12H9O+
172.0519	19	C11H8O2+
175.0391	47	C10H7O3+
176.047	14	C10H8O3+
177.0183	60	C9H5O4+
177.0548	22	C10H9O3+
177.0911	40	C11H13O2+
185.0597	27	C12H9O2+
187.0753	102	C12H11O2+
189.0543	30	C11H9O3+
190.0625	84	C11H10O3+
191.0339	23	C10H7O4+
191.0702	351	C11H11O3+
195.0287	15	C9H7O5+
200.0468	15	C12H8O3+
203.0338	127	C11H7O4+
203.0703	24	C12H11O3+
204.0419	61	C11H8O4+
205.0859	686	C12H13O3+
209.0808	41	C11H13O4+
215.0702	202	C13H11O3+
218.0574	109	C12H10O4+
231.0655	11	C13H11O4+
233.0807	999	C13H13O4+
251.0913	30	C13H15O5+
