Mass spectrum: Senecionine N-oxide; LC-ESI-ITFT; MS2; CE: 70%; R=15000; [M+H]+
Name: Senecionine N-oxide
Name: (1R,4Z,6R,7R,17R)-4-ethylidene-7-hydroxy-6,7-dimethyl-14-oxido-2,9-dioxa-14-azoniatricyclo[9.5.1.014,17]heptadec-11-ene-3,8-dione
Formula: C18H25NO6
Exact mass: 351.1682
SMILES: C/C=C\1/C[C@H]([C@@](C(=O)OCC2=CC[N+]3([C@H]2[C@@H](CC3)OC1=O)[O-])(C)O)C
InChI: InChI=1S/C18H25NO6/c1-4-12-9-11(2)18(3,22)17(21)24-10-13-5-7-19(23)8-6-14(15(13)19)25-16(12)20/h4-5,11,14-15,22H,6-10H2,1-3H3/b12-4-/t11-,14-,15-,18-,19?/m1/s1
Instrument: LTQ Orbitrap XL Thermo Scientific
Instrument type: LC-ESI-ITFT
Ms type: MS2
Ion mode: POSITIVE
Ionization: ESI
Fragmentation mode: HCD
Collision energy: 70% (nominal)
Resolution: 15000
Column name: Kinetex Evo C18 2.6 um 50 x 2.1 mm
Retention time: 5.378 min
Base peak: 352.1755
Precursor m/z: 352.1755
Precursor type: [M+H]+
m/z	relative intensity	assigned
53.0384	17	C4H5+
55.0542	8	C4H7+
67.0541	29	C5H7+
68.0493	11	C4H6N+
79.0543	66	C6H7+
80.0495	102	C5H6N+
81.0334	19	C5H5O+
81.0574	27	C5H7N+
81.0699	151	C6H9+
82.0652	27	C5H8N+
83.0492	26	C5H7O+
84.0444	24	C4H6NO+
91.0542	54	C7H7+
92.0493	7	C6H6N+
93.0573	510	C6H7N+
94.0651	816	C6H8N+
95.073	225	C6H9N+
96.0804	14	C6H10N+
98.0601	42	C5H8NO+
106.0651	162	C7H8N+
107.0493	11	C7H7O+
107.0728	16	C7H9N+
107.0856	83	C8H11+
108.0808	219	C7H10N+
109.0648	32	C7H9O+
109.0887	49	C7H11N+
109.1011	17	C8H13+
110.0601	26	C6H8NO+
111.0676	23	C6H9NO+
112.0755	44	C6H10NO+
117.0573	19	C8H7N+
118.0651	610	C8H8N+
119.073	424	C8H9N+
120.0808	776	C8H10N+
121.0886	62	C8H11N+
122.0964	131	C8H12N+
124.0756	25	C7H10NO+
125.0961	71	C8H13O+
126.0913	19	C7H12NO+
132.0803	8	C9H10N+
134.0965	10	C9H12N+
135.0806	24	C9H11O+
136.0757	999	C8H10NO+
137.0595	7	C8H9O2+
137.0836	55	C8H11NO+
138.0913	295	C8H12NO+
139.0754	73	C8H11O2+
146.0963	11	C10H12N+
148.1122	22	C10H14N+
152.1072	28	C9H14NO+
153.0912	56	C9H13O2+
154.0862	86	C8H12NO2+
164.107	22	C10H14NO+
167.1068	18	C10H15O2+
174.127	9	C12H16N+
178.1227	36	C11H16NO+
190.1233	16	C12H16NO+
202.1228	7	C13H16NO+
218.118	7	C13H16NO2+
218.1544	9	C14H20NO+
220.1333	32	C13H18NO2+
352.1763	22	C18H26NO6+
