Mass spectrum: (+)-Costunolide; LC-ESI-ITFT; MS2; CE: 45%; R=15000; [M+H]+
Name: (+)-Costunolide
Name: Costunolide
Name: (3aS,6E,10E,11aR)-6,10-dimethyl-3-methylidene-3a,4,5,8,9,11a-hexahydrocyclodeca[b]furan-2-one
Formula: C15H20O2
Exact mass: 232.1463
SMILES: C/C/1=C\CC/C(=C/[C@@H]2[C@@H](CC1)C(=C)C(=O)O2)/C
InChI: InChI=1S/C15H20O2/c1-10-5-4-6-11(2)9-14-13(8-7-10)12(3)15(16)17-14/h5,9,13-14H,3-4,6-8H2,1-2H3/b10-5+,11-9+/t13-,14+/m0/s1
Instrument: LTQ Orbitrap XL Thermo Scientific
Instrument type: LC-ESI-ITFT
Ms type: MS2
Ion mode: POSITIVE
Ionization: ESI
Fragmentation mode: HCD
Collision energy: 45% (nominal)
Resolution: 15000
Column name: Kinetex Evo C18 2.6 um 50 x 2.1 mm
Retention time: 11.700 min
Base peak: 116.9859
Precursor m/z: 233.1536
Precursor type: [M+H]+
m/z	relative intensity	assigned
55.0541	7	C4H7+
67.0542	10	C5H7+
69.0699	15	C5H9+
79.0543	21	C6H7+
81.0699	122	C6H9+
83.0855	12	C6H11+
91.0543	34	C7H7+
93.0699	101	C7H9+
95.0856	146	C7H11+
97.0649	9	C6H9O+
97.1013	4	C7H13+
105.0699	143	C8H9+
107.0856	115	C8H11+
109.1012	50	C8H13+
111.0805	9	C7H11O+
117.07	23	C9H9+
119.0856	67	C9H11+
121.0647	9	C8H9O+
121.1012	48	C9H13+
123.0806	5	C8H11O+
123.1169	5	C9H15+
125.0597	28	C7H9O2+
131.0856	178	C10H11+
133.065	11	C9H9O+
133.1012	78	C10H13+
135.0805	8	C9H11O+
135.1167	11	C10H15+
137.0597	21	C8H9O2+
139.0755	47	C8H11O2+
143.0857	10	C11H11+
145.1013	210	C11H13+
147.1169	77	C11H15+
149.0598	16	C9H9O2+
149.0962	11	C10H13O+
149.1324	3	C11H17+
151.0753	32	C9H11O2+
153.091	6	C9H13O2+
155.0856	17	C12H11+
157.1014	8	C12H13+
159.0807	36	C11H11O+
159.1169	129	C12H15+
161.1326	144	C12H17+
163.0754	33	C10H11O2+
165.0909	9	C10H13O2+
169.1015	15	C13H13+
171.1167	17	C13H15+
173.0965	25	C12H13O+
173.1325	17	C13H17+
177.0911	107	C11H13O2+
182.1092	12	C14H14+
185.1326	6	C14H17+
187.1482	999	C14H19+
189.1641	15	C14H21+
191.1069	31	C12H15O2+
197.1325	71	C15H17+
205.1586	22	C14H21O+
215.143	177	C15H19O+
233.1536	253	C15H21O2+
