Mass spectrum: (+)-Lupanine; LC-ESI-ITFT; MS2; CE: 85%; R=15000; [M+H]+
Name: (+)-Lupanine
Formula: C15H24N2O
Exact mass: 248.1889
SMILES: C1CCN2CC3CC(C2C1)CN4C3CCCC4=O
InChI: InChI=1S/C15H24N2O/c18-15-6-3-5-14-11-8-12(10-17(14)15)13-4-1-2-7-16(13)9-11/h11-14H,1-10H2
Instrument: LTQ Orbitrap XL Thermo Scientific
Instrument type: LC-ESI-ITFT
Ms type: MS2
Ion mode: POSITIVE
Ionization: ESI
Fragmentation mode: CID
Collision energy: 85 % (nominal)
Resolution: 15000
Column name: Kinetex Evo C18 2.6 um 50 x 2.1 mm
Retention time: 0.596 min
Base peak: 235.2168
Precursor m/z: 249.1961
Precursor type: [M+H]+
m/z	relative intensity	assigned
70.0651	6	C4H8N+
79.0542	7	C6H7+
80.0495	26	C5H6N+
82.0653	3	C5H8N+
84.0808	20	C5H10N+
85.0648	9	C5H9O+
91.0542	23	C7H7+
93.0702	6	C7H9+
94.0652	16	C6H8N+
96.0808	118	C6H10N+
98.0964	189	C6H12N+
100.0756	5	C5H10NO+
105.0698	26	C8H9+
107.0856	9	C8H11+
108.0809	22	C7H10N+
110.0603	5	C6H8NO+
110.0965	11	C7H12N+
112.0757	57	C6H10NO+
112.1122	5	C7H14N+
114.0913	286	C6H12NO+
120.0808	8	C8H10N+
121.1012	6	C9H13+
122.0964	43	C8H12N+
124.076	11	C7H10NO+
124.1122	22	C8H14N+
131.0852	10	C10H11+
133.1012	20	C10H13+
134.0965	142	C9H12N+
135.1047	6	C9H13N+
136.1121	999	C9H14N+
138.0912	15	C8H12NO+
138.1275	19	C9H16N+
141.0696	4	C11H9+
145.101	7	C11H13+
148.0758	19	C9H10NO+
148.1121	65	C10H14N+
150.0914	30	C9H12NO+
150.1277	322	C10H16N+
152.1071	56	C9H14NO+
152.1434	43	C10H18N+
159.117	11	C12H15+
162.0914	9	C10H12NO+
162.1277	17	C11H16N+
164.1068	14	C10H14NO+
166.1226	40	C10H16NO+
169.1016	8	C13H13+
174.1277	30	C12H16N+
176.1071	6	C11H14NO+
176.1435	45	C12H18N+
178.1228	10	C11H16NO+
187.1117	6	C13H15O+
188.1431	9	C13H18N+
189.1386	64	C12H17N2+
190.1589	15	C13H20N+
200.1431	7	C14H18N+
204.1382	152	C13H18NO+
206.1541	28	C13H20NO+
207.149	4	C12H19N2O+
214.1592	4	C15H20N+
218.1537	44	C14H20NO+
220.1693	7	C14H22NO+
221.2013	7	C14H25N2+
231.1855	395	C15H23N2+
