Mass spectrum: Isophorone; LC-ESI-ITFT; MS2; CE: 55%; R=15000; [M+H]+
Name: Isophorone
Name: 3,5,5-trimethylcyclohex-2-en-1-one
Formula: C9H14O
Exact mass: 138.1045
SMILES: CC1=CC(=O)CC(C)(C)C1
InChI: InChI=1S/C9H14O/c1-7-4-8(10)6-9(2,3)5-7/h4H,5-6H2,1-3H3
Instrument: LTQ Orbitrap XL Thermo Scientific
Instrument type: LC-ESI-ITFT
Ms type: MS2
Ion mode: POSITIVE
Ionization: ESI
Fragmentation mode: CID
Collision energy: 55 % (nominal)
Resolution: 15000
Column name: Kinetex Evo C18 2.6 um 50 x 2.1 mm
Retention time: 8.537 min
Base peak: 139.1118
Precursor m/z: 139.1117
Precursor type: [M+H]+
m/z	relative intensity	assigned
69.0332	999	C4H5O+
79.0541	5	C6H7+
81.0697	14	C6H9+
83.0489	137	C5H7O+
93.0697	44	C7H9+
95.0854	97	C7H11+
97.0646	73	C6H9O+
97.1011	10	C7H13+
105.0697	4	C8H9+
109.101	4	C8H13+
111.0803	20	C7H11O+
111.1167	3	C8H15+
121.101	287	C9H13+
139.1115	601	C9H15O+
