Mass spectrum: Monocrotaline; LC-ESI-ITFT; MS2; CE: 55%; R=15000; [M+H]+
Name: Monocrotaline
Name: (1R,4R,5R,6R,16R)-5,6-dihydroxy-4,5,6-trimethyl-2,8-dioxa-13-azatricyclo[8.5.1.013,16]hexadec-10-ene-3,7-dione
Formula: C16H23NO6
Exact mass: 325.1525
SMILES: C[C@H]1C(=O)O[C@@H]2CCN3[C@@H]2C(=CC3)COC(=O)[C@]([C@]1(C)O)(C)O
InChI: InChI=1S/C16H23NO6/c1-9-13(18)23-11-5-7-17-6-4-10(12(11)17)8-22-14(19)16(3,21)15(9,2)20/h4,9,11-12,20-21H,5-8H2,1-3H3/t9-,11+,12+,15+,16-/m0/s1
Instrument: LTQ Orbitrap XL Thermo Scientific
Instrument type: LC-ESI-ITFT
Ms type: MS2
Ion mode: POSITIVE
Ionization: ESI
Fragmentation mode: HCD
Collision energy: 55% (nominal)
Resolution: 15000
Column name: Kinetex Evo C18 2.6 um 50 x 2.1 mm
Retention time: 0.634 min
Base peak: 326.1594
Precursor m/z: 326.1598
Precursor type: [M+H]+
m/z	relative intensity	assigned
94.0652	157	C6H8N+
95.073	148	C6H9N+
106.0651	27	C7H8N+
120.0808	441	C8H10N+
121.0886	999	C8H11N+
122.0963	94	C8H12N+
138.0913	178	C8H12NO+
139.0987	37	C8H13NO+
140.1074	33	C8H14NO+
164.1069	127	C10H14NO+
184.0967	57	C9H14NO3+
194.1174	200	C11H16NO2+
195.1258	44	C11H17NO2+
210.112	46	C11H16NO3+
212.1281	21	C11H18NO3+
237.1358	299	C13H19NO3+
238.1439	51	C13H20NO3+
280.1547	130	C15H22NO4+
298.1642	58	C15H24NO5+
326.1597	690	C16H24NO6+
