Mass spectrum: 4-Phenyl-3-buten-2-one; LC-ESI-ITFT; MS2; CE: 90%; R=15000; [M+H]+
Name: 4-Phenyl-3-buten-2-one
Formula: C10H10O
Exact mass: 146.0732
SMILES: CC(=O)\C=C\C1=CC=CC=C1
InChI: InChI=1S/C10H10O/c1-9(11)7-8-10-5-3-2-4-6-10/h2-8H,1H3/b8-7+
Instrument: LTQ Orbitrap XL Thermo Scientific
Instrument type: LC-ESI-ITFT
Ms type: MS2
Ion mode: POSITIVE
Ionization: ESI
Fragmentation mode: HCD
Collision energy: 90 % (nominal)
Resolution: 15000
Column name: Kinetex Evo C18 2.6 um 50 x 2.1 mm
Retention time: 9.430 min
Base peak: 147.0804
Precursor m/z: 147.0804
Precursor type: [M+H]+
m/z	relative intensity	assigned
77.0387	15	C6H5+
79.0543	50	C6H7+
91.0543	186	C7H7+
103.0543	41	C8H7+
105.07	23	C8H9+
107.0491	16	C7H7O+
115.0541	8	C9H7+
117.0699	22	C9H9+
119.0494	12	C8H7O+
119.0858	16	C9H11+
127.0544	44	C10H7+
128.0622	999	C10H8+
129.07	676	C10H9+
132.0569	22	C9H8O+
145.065	53	C10H9O+
147.0806	52	C10H11O+
