Mass spectrum: (+)-Sparteine; LC-ESI-ITFT; MS2; CE: 85%; R=15000; [M+H]+
Name: (+)-Sparteine
Formula: C15H26N2
Exact mass: 234.2096
SMILES: C1CCN2C[C@H]3C[C@@H]([C@H]2C1)CN4[C@H]3CCCC4
InChI: InChI=1S/C15H26N2/c1-3-7-16-11-13-9-12(14(16)5-1)10-17-8-4-2-6-15(13)17/h12-15H,1-11H2/t12-,13-,14-,15+/m1/s1
Instrument: LTQ Orbitrap XL Thermo Scientific
Instrument type: LC-ESI-ITFT
Ms type: MS2
Ion mode: POSITIVE
Ionization: ESI
Fragmentation mode: HCD
Collision energy: 85 % (nominal)
Resolution: 15000
Column name: Kinetex Evo C18 2.6 um 50 x 2.1 mm
Retention time: 0.538 min
Base peak: 235.2164
Precursor m/z: 235.2169
Precursor type: [M+H]+
m/z	relative intensity	assigned
70.0651	12	C4H8N+
84.0808	38	C5H10N+
96.0807	12	C6H10N+
98.0964	999	C6H12N+
110.0965	5	C7H12N+
124.112	3	C8H14N+
134.0964	20	C9H12N+
136.1117	2	C9H14N+
150.1277	14	C10H16N+
152.1433	20	C10H18N+
164.1441	3	C11H18N+
190.1585	5	C13H20N+
233.2012	173	C15H25N2+
235.2167	681	C15H27N2+
