Mass spectrum: Pilocarpine; LC-ESI-ITFT; MS2; CE: 75%; R=15000; [M+H]+
Name: Pilocarpine
Name: (3S,4R)-3-ethyl-4-[(3-methylimidazol-4-yl)methyl]oxolan-2-one
Formula: C11H16N2O2
Exact mass: 208.1212
SMILES: CC[C@H]1[C@H](COC1=O)Cc2cncn2C
InChI: InChI=1S/C11H16N2O2/c1-3-10-8(6-15-11(10)14)4-9-5-12-7-13(9)2/h5,7-8,10H,3-4,6H2,1-2H3/t8-,10-/m0/s1
Instrument: LTQ Orbitrap XL Thermo Scientific
Instrument type: LC-ESI-ITFT
Ms type: MS2
Ion mode: POSITIVE
Ionization: ESI
Fragmentation mode: HCD
Collision energy: 75% (nominal)
Resolution: 15000
Column name: Kinetex Evo C18 2.6 um 50 x 2.1 mm
Retention time: 0.631 min
Base peak: 209.1281
Precursor m/z: 209.1285
Precursor type: [M+H]+
m/z	relative intensity	assigned
68.0495	8	C4H6N+
80.0495	7	C5H6N+
81.0699	7	C6H9+
83.0605	12	C4H7N2+
94.0652	34	C6H8N+
95.0604	598	C5H7N2+
95.073	31	C6H9N+
96.0682	999	C5H8N2+
97.076	29	C5H9N2+
105.0698	7	C8H9+
107.0728	12	C7H9N+
109.076	61	C6H9N2+
121.076	144	C7H9N2+
122.0839	43	C7H10N2+
122.0964	39	C8H12N+
123.0917	39	C7H11N2+
133.076	19	C8H9N2+
134.0839	24	C8H10N2+
135.0918	64	C8H11N2+
136.1121	14	C9H14N+
139.0864	10	C7H11N2O+
147.0913	17	C9H11N2+
148.0996	19	C9H12N2+
149.1075	8	C9H13N2+
151.1229	43	C9H15N2+
161.1073	6	C10H13N2+
163.123	206	C10H15N2+
181.1336	7	C10H17N2O+
182.1172	8	C10H16NO2+
191.1184	9	C11H15N2O+
209.1284	521	C11H17N2O2+
