Mass spectrum: Senecivernine; LC-ESI-ITFT; MS2; CE: 80%; R=15000; [M+H]+
Name: Senecivernine
Name: (1R,5R,6R,7R,17R)-7-hydroxy-5,6,7-trimethyl-4-methylidene-2,9-dioxa-14-azatricyclo[9.5.1.014,17]heptadec-11-ene-3,8-dione
Formula: C18H25NO5
Exact mass: 335.1733
SMILES: C[C@@H]1[C@H]([C@@](C(=O)OCC2=CCN3[C@H]2[C@@H](CC3)OC(=O)C1=C)(C)O)C
InChI: InChI=1S/C18H25NO5/c1-10-11(2)16(20)24-14-6-8-19-7-5-13(15(14)19)9-23-17(21)18(4,22)12(10)3/h5,10,12,14-15,22H,2,6-9H2,1,3-4H3/t10-,12+,14+,15+,18+/m0/s1
Instrument: LTQ Orbitrap XL Thermo Scientific
Instrument type: LC-ESI-ITFT
Ms type: MS2
Ion mode: POSITIVE
Ionization: ESI
Fragmentation mode: HCD
Collision energy: 80% (nominal)
Resolution: 15000
Column name: Kinetex Evo C18 2.6 um 50 x 2.1 mm
Retention time: 3.393 min
Base peak: 143.0015
Precursor m/z: 336.1805
Precursor type: [M+H]+
m/z	relative intensity	assigned
55.0541	26	C4H7+
67.0542	288	C5H7+
68.0494	120	C4H6N+
70.0654	18	C4H8N+
77.0386	61	C6H5+
79.0542	306	C6H7+
80.0495	246	C5H6N+
81.0574	67	C5H7N+
81.0699	597	C6H9+
82.0651	167	C5H8N+
83.0492	81	C5H7O+
84.0444	34	C4H6NO+
91.0543	312	C7H7+
92.0495	57	C6H6N+
93.0573	43	C6H7N+
93.0699	303	C7H9+
94.0651	669	C6H8N+
95.0492	27	C6H7O+
95.0728	61	C6H9N+
95.0853	30	C7H11+
96.0445	29	C5H6NO+
96.0808	378	C6H10N+
103.0543	152	C8H7+
105.0575	42	C7H7N+
105.0699	61	C8H9+
106.0651	80	C7H8N+
107.073	79	C7H9N+
107.0856	158	C8H11+
108.0808	341	C7H10N+
109.0648	61	C7H9O+
109.0884	85	C7H11N+
109.101	50	C8H13+
110.0602	70	C6H8NO+
110.0965	123	C7H12N+
111.044	138	C6H7O2+
111.0679	35	C6H9NO+
111.0802	23	C7H11O+
118.0652	136	C8H8N+
119.0727	29	C8H9N+
120.0808	999	C8H10N+
121.0884	72	C8H11N+
122.0965	150	C8H12N+
125.0961	32	C8H13O+
136.0758	84	C8H10NO+
138.0913	588	C8H12NO+
148.1117	25	C10H14N+
153.0908	28	C9H13O2+
154.0864	74	C8H12NO2+
156.1017	38	C8H14NO2+
220.1334	56	C13H18NO2+
