Mass spectrum: (+)-Lupanine; LC-ESI-ITFT; MS2; CE: 75%; R=15000; [M+H]+
Name: (+)-Lupanine
Formula: C15H24N2O
Exact mass: 248.1889
SMILES: C1CCN2CC3CC(C2C1)CN4C3CCCC4=O
InChI: InChI=1S/C15H24N2O/c18-15-6-3-5-14-11-8-12(10-17(14)15)13-4-1-2-7-16(13)9-11/h11-14H,1-10H2
Instrument: LTQ Orbitrap XL Thermo Scientific
Instrument type: LC-ESI-ITFT
Ms type: MS2
Ion mode: POSITIVE
Ionization: ESI
Fragmentation mode: HCD
Collision energy: 75 % (nominal)
Resolution: 15000
Column name: Kinetex Evo C18 2.6 um 50 x 2.1 mm
Retention time: 0.482 min
Base peak: 249.1955
Precursor m/z: 249.1961
Precursor type: [M+H]+
m/z	relative intensity	assigned
67.054	12	C5H7+
70.065	130	C4H8N+
79.0542	10	C6H7+
80.0493	11	C5H6N+
84.0807	58	C5H10N+
85.0646	88	C5H9O+
96.0808	33	C6H10N+
98.0963	129	C6H12N+
112.0756	41	C6H10NO+
114.0912	529	C6H12NO+
124.1124	12	C8H14N+
134.0963	90	C9H12N+
136.1119	999	C9H14N+
148.1119	14	C10H14N+
150.1277	130	C10H16N+
231.1852	16	C15H23N2+
247.1803	75	C15H23N2O+
249.1958	937	C15H25N2O+
