Mass spectrum: Homoharringtonine; LC-ESI-ITFT; MS2; CE: 55%; R=15000; [M+H]+
Name: Homoharringtonine
Name: Omacetaxine mepesuccinate
Name: 1-O-[(2S,3S,6R)-4-methoxy-16,18-dioxa-10-azapentacyclo[11.7.0.02,6.06,10.015,19]icosa-1(20),4,13,15(19)-tetraen-3-yl] 4-O-methyl (2R)-2-hydroxy-2-(4-hydroxy-4-methylpentyl)butanedioate
Formula: C29H39NO9
Exact mass: 545.2625
SMILES: CC(C)(CCC[C@@](CC(=O)OC)(C(=O)O[C@H]1[C@H]2c3cc4c(cc3CCN5[C@@]2(CCC5)C=C1OC)OCO4)O)O
InChI: InChI=1S/C29H39NO9/c1-27(2,33)8-5-10-29(34,16-23(31)36-4)26(32)39-25-22(35-3)15-28-9-6-11-30(28)12-7-18-13-20-21(38-17-37-20)14-19(18)24(25)28/h13-15,24-25,33-34H,5-12,16-17H2,1-4H3/t24-,25-,28+,29-/m1/s1
Instrument: LTQ Orbitrap XL Thermo Scientific
Instrument type: LC-ESI-ITFT
Ms type: MS2
Ion mode: POSITIVE
Ionization: ESI
Fragmentation mode: HCD
Collision energy: 55% (nominal)
Resolution: 15000
Column name: Kinetex Evo C18 2.6 um 50 x 2.1 mm
Retention time: 7.145 min
Base peak: 546.2695
Precursor m/z: 546.2698
Precursor type: [M+H]+
m/z	relative intensity	assigned
55.0177	7	C3H3O+
59.049	26	C3H7O+
70.065	23	C4H8N+
75.0441	10	C3H7O2+
79.0544	10	C6H7+
85.0648	28	C5H9O+
91.0543	13	C7H7+
93.0699	51	C7H9+
96.0807	11	C6H10N+
97.0286	7	C5H5O2+
100.0757	14	C5H10NO+
107.0855	58	C8H11+
109.0648	78	C7H9O+
110.0599	11	C6H8NO+
111.0804	9	C7H11O+
120.0806	25	C8H10N+
121.0645	25	C8H9O+
123.0804	60	C8H11O+
126.0912	72	C7H12NO+
129.0547	27	C6H9O3+
131.0492	18	C9H7O+
135.044	27	C8H7O2+
135.0803	13	C9H11O+
143.0488	10	C10H7O+
149.0596	46	C9H9O2+
150.0913	470	C9H12NO+
153.0905	7	C9H13O2+
159.044	37	C10H7O2+
161.0595	28	C10H9O2+
170.0597	15	C11H8NO+
171.0801	15	C12H11O+
173.0597	52	C11H9O2+
174.0549	18	C10H8NO2+
175.0632	7	C10H9NO2+
176.0706	179	C10H10NO2+
179.0855	22	C14H11+
181.0653	11	C13H9O+
181.1011	13	C14H13+
185.0596	26	C12H9O2+
187.0754	21	C12H11O2+
190.086	10	C11H12NO2+
191.0855	41	C15H11+
193.0651	14	C14H9O+
195.0802	40	C14H11O+
197.0592	12	C13H9O2+
197.0962	33	C14H13O+
199.0754	44	C13H11O2+
200.0707	35	C12H10NO2+
202.0858	20	C12H12NO2+
207.0803	33	C15H11O+
208.088	17	C15H12O+
208.112	74	C15H14N+
209.0598	22	C14H9O2+
209.0963	12	C15H13O+
210.0673	16	C14H10O2+
210.0907	10	C14H12NO+
211.0754	42	C14H11O2+
211.1122	9	C15H15O+
212.0709	22	C13H10NO2+
213.0912	14	C14H13O2+
214.0863	47	C13H12NO2+
215.0703	79	C13H11O3+
216.1023	17	C13H14NO2+
219.0805	37	C16H11O+
220.0893	9	C16H12O+
223.0753	165	C15H11O2+
223.1116	104	C16H15O+
225.0782	11	C14H11NO2+
225.091	67	C15H13O2+
226.0862	323	C14H12NO2+
227.0941	436	C14H13NO2+
229.0856	65	C14H13O3+
229.1097	182	C14H15NO2+
236.0834	25	C16H12O2+
236.1069	89	C16H14NO+
237.091	77	C16H13O2+
238.0862	95	C15H12NO2+
238.1228	20	C16H16NO+
239.0702	25	C15H11O3+
239.1067	24	C16H15O2+
240.0783	67	C15H12O3+
240.1018	531	C15H14NO2+
241.0858	33	C15H13O3+
242.0811	133	C14H12NO3+
242.1178	9	C15H16NO2+
243.1017	20	C15H15O3+
249.091	31	C17H13O2+
250.0864	9	C16H12NO2+
250.099	19	C17H14O2+
251.0942	81	C16H13NO2+
251.1065	215	C17H15O2+
252.0776	16	C16H12O3+
253.086	100	C16H13O3+
253.1097	135	C16H15NO2+
254.1177	81	C16H16NO2+
255.1015	51	C16H15O3+
255.1256	27	C16H17NO2+
256.0967	31	C15H14NO3+
256.133	13	C16H18NO2+
257.1041	9	C15H15NO3+
264.1023	25	C17H14NO2+
266.1175	697	C17H16NO2+
267.1256	392	C17H17NO2+
268.0967	158	C16H14NO3+
268.1344	55	C17H18NO2+
269.1173	25	C17H17O3+
269.1382	9	C14H21O5+
270.1122	154	C16H16NO3+
281.1171	32	C18H17O3+
282.1123	74	C17H16NO3+
283.1204	110	C17H17NO3+
284.1283	301	C17H18NO3+
296.128	45	C18H18NO3+
298.1437	999	C18H20NO3+
316.1542	74	C18H22NO4+
