Mass spectrum: Matairesinol; LC-ESI-ITFT; MS2; CE: 70%; R=15000; [M+H]+
Name: Matairesinol
Formula: C20H22O6
Exact mass: 358.1416
SMILES: COC1=CC(C[C@H]2COC(=O)[C@@H]2CC2=CC=C(O)C(OC)=C2)=CC=C1O
InChI: InChI=1S/C20H22O6/c1-24-18-9-12(3-5-16(18)21)7-14-11-26-20(23)15(14)8-13-4-6-17(22)19(10-13)25-2/h3-6,9-10,14-15,21-22H,7-8,11H2,1-2H3/t14-,15+/m0/s1
Instrument: LTQ Orbitrap XL Thermo Scientific
Instrument type: LC-ESI-ITFT
Ms type: MS2
Ion mode: POSITIVE
Ionization: ESI
Fragmentation mode: HCD
Collision energy: 70 % (nominal)
Resolution: 15000
Column name: Kinetex Evo C18 2.6 um 50 x 2.1 mm
Retention time: 9.347 min
Base peak: 359.1488
Precursor m/z: 359.1489
Precursor type: [M+H]+
m/z	relative intensity	assigned
79.0542	5	C6H7+
81.0699	3	C6H9+
91.0541	14	C7H7+
94.0413	35	C6H6O+
103.0542	121	C8H7+
107.0492	7	C7H7O+
117.0698	6	C9H9+
119.049	5	C8H7O+
122.0361	98	C7H6O2+
129.0699	19	C10H9+
131.0491	114	C9H7O+
137.0596	999	C8H9O2+
145.0649	15	C10H9O+
147.044	7	C9H7O2+
149.0597	8	C9H9O2+
151.0385	6	C8H7O3+
151.0749	4	C9H11O2+
157.0648	12	C11H9O+
163.0757	5	C10H11O2+
174.0675	5	C11H10O2+
203.0858	7	C16H11+
231.0809	9	C17H11O+
