Mass spectrum: Sophocarpine; LC-ESI-ITFT; MS2; CE: 105%; R=15000; [M+H]+
Name: Sophocarpine
Name: (1R,2R,9S,17S)-7,13-diazatetracyclo[7.7.1.02,7.013,17]heptadec-4-en-6-one
Formula: C15H22N2O
Exact mass: 246.1732
SMILES: C1C[C@H]2CN3[C@H](CC=CC3=O)[C@@H]4[C@H]2N(C1)CCC4
InChI: InChI=1S/C15H22N2O/c18-14-7-1-6-13-12-5-3-9-16-8-2-4-11(15(12)16)10-17(13)14/h1,7,11-13,15H,2-6,8-10H2/t11-,12+,13+,15-/m0/s1
Instrument: LTQ Orbitrap XL Thermo Scientific
Instrument type: LC-ESI-ITFT
Ms type: MS2
Ion mode: POSITIVE
Ionization: ESI
Fragmentation mode: HCD
Collision energy: 105% (nominal)
Resolution: 15000
Column name: Kinetex Evo C18 2.6 um 50 x 2.1 mm
Retention time: 0.710 min
Base peak: 143.0015
Precursor m/z: 247.1805
Precursor type: [M+H]+
m/z	relative intensity	assigned
67.0542	21	C5H7+
68.0495	57	C4H6N+
69.0698	12	C5H9+
70.0651	41	C4H8N+
79.0542	29	C6H7+
80.0496	15	C5H6N+
81.0332	8	C5H5O+
81.0573	24	C5H7N+
81.0698	10	C6H9+
82.0651	15	C5H8N+
84.0808	21	C5H10N+
91.0543	20	C7H7+
93.0699	8	C7H9+
94.0651	39	C6H8N+
96.0808	999	C6H10N+
98.0964	126	C6H12N+
106.0654	15	C7H8N+
108.0445	8	C6H6NO+
108.0808	149	C7H10N+
109.0523	10	C6H7NO+
110.0601	24	C6H8NO+
110.0964	42	C7H12N+
120.0811	22	C8H10N+
122.0602	34	C7H8NO+
122.0964	64	C8H12N+
134.0601	22	C8H8NO+
134.0965	31	C9H12N+
136.1121	465	C9H14N+
138.1279	48	C9H16N+
146.0603	30	C9H8NO+
146.0963	8	C10H12N+
147.0678	11	C9H9NO+
148.0757	38	C9H10NO+
148.1122	35	C10H14N+
150.1278	145	C10H16N+
152.1435	16	C10H18N+
160.0757	20	C10H10NO+
162.0911	13	C10H12NO+
162.1273	8	C11H16N+
179.1544	121	C11H19N2+
186.0915	9	C12H12NO+
191.1174	11	C11H15N2O+
245.1644	43	C15H21N2O+
247.1805	18	C15H23N2O+
