Mass spectrum: Alpinetin; LC-ESI-ITFT; MS2; CE: 70%; R=15000; [M+H]+
Name: Alpinetin
Formula: C16H14O4
Exact mass: 270.0892
SMILES: COC1=C2C(=O)CC(OC2=CC(=C1)O)C3=CC=CC=C3
InChI: InChI=1S/C16H14O4/c1-19-14-7-11(17)8-15-16(14)12(18)9-13(20-15)10-5-3-2-4-6-10/h2-8,13,17H,9H2,1H3
Instrument: LTQ Orbitrap XL Thermo Scientific
Instrument type: LC-ESI-ITFT
Ms type: MS2
Ion mode: POSITIVE
Ionization: ESI
Fragmentation mode: HCD
Collision energy: 70 % (nominal)
Resolution: 15000
Column name: Kinetex Evo C18 2.6 um 50 x 2.1 mm
Retention time: 10.452 min
Base peak: 271.0962
Precursor m/z: 271.0965
Precursor type: [M+H]+
m/z	relative intensity	assigned
68.9971	22	C3HO2+
79.0542	7	C6H7+
81.0339	5	C5H5O+
91.0542	16	C7H7+
103.0543	127	C8H7+
111.0442	16	C6H7O2+
124.0155	36	C6H4O3+
131.0492	97	C9H7O+
152.0105	97	C7H4O4+
167.0341	999	C8H7O4+
