Mass spectrum: Brucine; LC-ESI-ITFT; MS2; CE: 70%; R=15000; [M+H]+
Name: Brucine
Name: (-)-Brucine
Name: (4aR,5aS,8aR,15bR)-10,11-dimethoxy-4a,5,5a,7,8,13a,15,15a,15b,16-decahydro-2H-4,6-methanoindolo[3,2,1-ij]oxepino[2,3,4-de]pyrrolo[2,3-h]quinolin-14-one
Formula: C23H26N2O4
Exact mass: 394.1893
SMILES: COc1cc2c(cc1OC)N3C4[C@]25CCN6[C@H]5C[C@@H]7[C@H]4C(CC3=O)OCC=C7C6
InChI: InChI=1S/C23H26N2O4/c1-27-16-8-14-15(9-17(16)28-2)25-20(26)10-18-21-13-7-19-23(14,22(21)25)4-5-24(19)11-12(13)3-6-29-18/h3,8-9,13,18-19,21-22H,4-7,10-11H2,1-2H3/t13-,18?,19-,21-,22?,23+/m0/s1
Instrument: LTQ Orbitrap XL Thermo Scientific
Instrument type: LC-ESI-ITFT
Ms type: MS2
Ion mode: POSITIVE
Ionization: ESI
Fragmentation mode: HCD
Collision energy: 70% (nominal)
Resolution: 15000
Column name: Kinetex Evo C18 2.6 um 50 x 2.1 mm
Retention time: 5.942 min
Base peak: 116.9859
Precursor m/z: 395.1965
Precursor type: [M+H]+
m/z	relative intensity	assigned
67.0543	9	C5H7+
68.0494	11	C4H6N+
70.0651	12	C4H8N+
79.0543	18	C6H7+
80.0496	15	C5H6N+
81.0698	26	C6H9+
82.0651	9	C5H8N+
91.0542	12	C7H7+
93.0574	16	C6H7N+
93.07	16	C7H9+
94.0652	21	C6H8N+
95.0492	16	C6H7O+
95.0858	6	C7H11+
96.0807	23	C6H10N+
106.0652	64	C7H8N+
107.0732	6	C7H9N+
108.0808	125	C7H10N+
120.0806	7	C8H10N+
121.0647	6	C8H9O+
122.0601	80	C7H8NO+
124.0758	77	C7H10NO+
144.0806	8	C10H10N+
147.0678	10	C9H9NO+
148.0755	14	C9H10NO+
163.0626	8	C9H9NO2+
170.06	7	C11H8NO+
172.0753	7	C11H10NO+
173.0838	9	C11H11NO+
176.0707	11	C10H10NO2+
177.0791	11	C10H11NO2+
178.0864	48	C10H12NO2+
183.0677	6	C12H9NO+
184.0758	25	C12H10NO+
185.0836	88	C12H11NO+
186.0551	8	C11H8NO2+
186.0915	7	C12H12NO+
189.0792	8	C11H11NO2+
190.0862	53	C11H12NO2+
192.0654	41	C10H10NO3+
197.0839	44	C13H11NO+
198.0549	30	C12H8NO2+
200.0705	17	C12H10NO2+
201.0788	29	C12H11NO2+
202.0863	9	C12H12NO2+
204.066	8	C11H10NO3+
204.1019	31	C12H14NO2+
211.063	7	C13H9NO2+
212.0707	41	C13H10NO2+
213.0784	508	C13H11NO2+
214.05	40	C12H8NO3+
214.0866	20	C13H12NO2+
216.1019	302	C13H14NO2+
223.0989	15	C15H13NO+
226.086	30	C14H12NO2+
227.0941	57	C14H13NO2+
228.0655	32	C13H10NO3+
228.102	49	C14H14NO2+
229.0734	438	C13H11NO3+
230.0813	23	C13H12NO3+
230.1166	13	C14H16NO2+
234.0905	10	C16H12NO+
235.0998	11	C16H13NO+
236.0708	25	C15H10NO2+
236.1064	20	C16H14NO+
238.0858	17	C15H12NO2+
240.065	9	C14H10NO3+
240.1014	15	C15H14NO2+
241.0733	13	C14H11NO3+
241.1106	10	C15H15NO2+
242.0812	12	C14H12NO3+
243.0893	35	C14H13NO3+
244.0969	999	C14H14NO3+
247.0994	9	C17H13NO+
248.0698	11	C16H10NO2+
248.1073	13	C17H14NO+
249.0793	17	C16H11NO2+
249.1144	16	C17H15NO+
250.0862	18	C16H12NO2+
251.0941	135	C16H13NO2+
252.0658	37	C15H10NO3+
252.102	21	C16H14NO2+
254.0817	20	C15H12NO3+
254.1176	96	C16H16NO2+
256.0968	65	C15H14NO3+
258.1122	39	C15H16NO3+
260.0914	16	C14H14NO4+
260.1076	6	C18H14NO+
262.0863	20	C17H12NO2+
263.0942	148	C17H13NO2+
264.0652	22	C16H10NO3+
264.1017	34	C17H14NO2+
265.0737	27	C16H11NO3+
265.1099	18	C17H15NO2+
266.0807	19	C16H12NO3+
266.1177	21	C17H16NO2+
267.0891	114	C16H13NO3+
268.0974	7	C16H14NO3+
272.0915	13	C15H14NO4+
276.1018	16	C18H14NO2+
277.1111	15	C18H15NO2+
278.1173	43	C18H16NO2+
279.09	9	C17H13NO3+
279.1247	10	C18H17NO2+
280.0969	98	C17H14NO3+
280.1325	17	C18H18NO2+
281.1055	15	C17H15NO3+
282.1126	124	C17H16NO3+
286.0859	7	C19H12NO2+
288.1018	11	C19H14NO2+
289.11	9	C19H15NO2+
291.1252	27	C19H17NO2+
292.0977	19	C18H14NO3+
294.1124	57	C18H16NO3+
296.128	9	C18H18NO3+
298.1065	10	C17H16NO4+
301.1094	29	C20H15NO2+
304.0977	8	C19H14NO3+
306.1125	73	C19H16NO3+
307.1208	19	C19H17NO3+
308.1289	25	C19H18NO3+
309.1236	9	C18H17N2O3+
317.1055	7	C20H15NO3+
319.1198	19	C20H17NO3+
321.1359	63	C20H19NO3+
322.1437	66	C20H20NO3+
324.1233	181	C19H18NO4+
332.1278	26	C21H18NO3+
336.1481	8	C20H20N2O3+
338.1382	9	C20H20NO4+
349.1553	12	C21H21N2O3+
350.1388	68	C21H20NO4+
352.1413	25	C20H20N2O4+
367.1652	78	C21H23N2O4+
379.1651	37	C22H23N2O4+
395.1967	88	C23H27N2O4+
