Mass spectrum: Tetrahydropalmatin; LC-ESI-ITFT; MS2; CE: 35%; R=15000; [M+H]+
Name: Tetrahydropalmatin
Name: D-Tetrahydropalmatine
Name: (13aR)-2,3,9,10-tetramethoxy-6,8,13,13a-tetrahydro-5H-isoquinolino[2,1-b]isoquinoline
Formula: C21H25NO4
Exact mass: 355.1784
SMILES: COC1=C(C2=C(C[C@@H]3C4=CC(=C(C=C4CCN3C2)OC)OC)C=C1)OC
InChI: InChI=1S/C21H25NO4/c1-23-18-6-5-13-9-17-15-11-20(25-3)19(24-2)10-14(15)7-8-22(17)12-16(13)21(18)26-4/h5-6,10-11,17H,7-9,12H2,1-4H3/t17-/m1/s1
Instrument: LTQ Orbitrap XL Thermo Scientific
Instrument type: LC-ESI-ITFT
Ms type: MS2
Ion mode: POSITIVE
Ionization: ESI
Fragmentation mode: HCD
Collision energy: 35% (nominal)
Resolution: 15000
Column name: Kinetex Evo C18 2.6 um 50 x 2.1 mm
Retention time: 7.439 min
Base peak: 356.1855
Precursor m/z: 356.1856
Precursor type: [M+H]+
m/z	relative intensity	assigned
150.0675	10	C9H10O2+
151.0752	10	C9H11O2+
165.091	231	C10H13O2+
175.0752	1	C11H11O2+
189.0908	4	C12H13O2+
190.0863	23	C11H12NO2+
192.1018	999	C11H14NO2+
204.1018	7	C12H14NO2+
205.1097	8	C12H15NO2+
295.1328	1	C19H19O3+
296.141	1	C19H20O3+
308.1403	11	C20H20O3+
309.1132	1	C19H17O4+
324.1358	3	C20H20O4+
324.1589	3	C20H22NO3+
327.1592	6	C20H23O4+
339.159	9	C21H23O4+
341.1622	14	C20H23NO4+
356.1855	909	C21H26NO4+
