Mass spectrum: Cortisone; LC-ESI-ITFT; MS2; CE: 75%; R=15000; [M+H]+
Name: Cortisone
Name: (8S,9S,10R,13S,14S,17R)-17-hydroxy-17-(2-hydroxyacetyl)-10,13-dimethyl-1,2,6,7,8,9,12,14,15,16-decahydrocyclopenta[a]phenanthrene-3,11-dione
Formula: C21H28O5
Exact mass: 360.1937
SMILES: C[C@]12CC(=O)[C@H]3[C@@H](CCC4=CC(=O)CC[C@]34C)[C@@H]1CC[C@]2(O)C(=O)CO
InChI: InChI=1S/C21H28O5/c1-19-7-5-13(23)9-12(19)3-4-14-15-6-8-21(26,17(25)11-22)20(15,2)10-16(24)18(14)19/h9,14-15,18,22,26H,3-8,10-11H2,1-2H3/t14-,15-,18+,19-,20-,21-/m0/s1
Instrument: LTQ Orbitrap XL Thermo Scientific
Instrument type: LC-ESI-ITFT
Ms type: MS2
Ion mode: POSITIVE
Ionization: ESI
Fragmentation mode: CID
Collision energy: 75 % (nominal)
Resolution: 15000
Column name: Kinetex Evo C18 2.6 um 50 x 2.1 mm
Retention time: 9.587 min
Base peak: 361.2013
Precursor m/z: 361.201
Precursor type: [M+H]+
m/z	relative intensity	assigned
93.0701	5	C7H9+
105.07	32	C8H9+
107.0856	15	C8H11+
109.0646	4	C7H9O+
115.0543	8	C9H7+
117.0698	17	C9H9+
119.0856	26	C9H11+
121.0648	112	C8H9O+
121.1014	9	C9H13+
123.0804	20	C8H11O+
128.0626	6	C10H8+
129.0697	15	C10H9+
131.0855	35	C10H11+
133.0649	15	C9H9O+
133.1012	16	C10H13+
135.0804	60	C9H11O+
135.1168	19	C10H15+
137.096	10	C9H13O+
139.0754	10	C8H11O2+
143.0854	28	C11H11+
145.0648	18	C10H9O+
145.1011	108	C11H13+
147.0804	96	C10H11O+
147.1167	14	C11H15+
148.0875	5	C10H12O+
149.096	20	C10H13O+
151.0753	21	C9H11O2+
153.0908	14	C9H13O2+
155.0855	19	C12H11+
157.0646	7	C11H9O+
157.1012	26	C12H13+
159.0804	39	C11H11O+
159.1167	16	C12H15+
161.0597	11	C10H9O2+
161.0961	62	C11H13O+
163.1117	999	C11H15O+
164.1151	29	C6H16N2O3+
165.091	11	C10H13O2+
165.1273	11	C11H17O+
167.0856	6	C13H11+
169.1012	33	C13H13+
171.0804	46	C12H11O+
171.1168	86	C13H15+
173.0961	85	C12H13O+
175.1117	29	C12H15O+
177.0909	29	C11H13O2+
179.0864	4	C14H11+
179.1066	15	C11H15O2+
181.0857	8	C10H13O3+
181.1011	43	C14H13+
183.0804	8	C13H11O+
183.1167	37	C14H15+
185.096	37	C13H13O+
185.1326	11	C14H17+
187.0751	16	C12H11O2+
187.1117	49	C13H15O+
189.0909	41	C12H13O2+
189.1272	19	C13H17O+
191.1065	32	C12H15O2+
193.1014	11	C15H13+
195.0801	4	C14H11O+
195.1167	37	C15H15+
197.0961	21	C14H13O+
197.1322	29	C15H17+
199.1116	64	C14H15O+
199.1483	7	C15H19+
201.0909	13	C13H13O2+
201.1273	18	C14H17O+
203.1065	18	C13H15O2+
203.1434	5	C14H19O+
205.1011	7	C16H13+
205.122	16	C13H17O2+
207.1016	12	C12H15O3+
207.1168	33	C16H15+
209.0961	17	C15H13O+
209.1166	7	C12H17O3+
209.1325	31	C16H17+
211.1116	43	C15H15O+
211.1481	21	C16H19+
213.0906	7	C14H13O2+
213.1271	35	C15H17O+
215.107	11	C14H15O2+
215.143	16	C15H19O+
217.1222	29	C14H17O2+
219.1169	16	C17H15+
221.0955	6	C16H13O+
221.1324	65	C17H17+
223.1116	52	C16H15O+
223.1481	49	C17H19+
225.1272	67	C16H17O+
225.1637	31	C17H21+
227.1067	12	C15H15O2+
227.143	39	C16H19O+
229.1221	26	C15H17O2+
231.1376	7	C15H19O2+
232.1245	4	C18H16+
233.1324	17	C18H17+
235.1127	6	C17H15O+
235.148	45	C18H19+
237.1274	54	C17H17O+
237.1637	61	C18H21+
239.1064	12	C16H15O2+
239.1429	121	C17H19O+
239.1794	20	C18H23+
240.1461	7	C12H20N2O3+
241.1221	99	C16H17O2+
241.1585	54	C17H21O+
243.1377	38	C16H19O2+
243.1741	23	C17H23O+
245.1172	6	C15H17O3+
245.1322	13	C19H17+
245.1524	4	C16H21O2+
247.1114	9	C18H15O+
247.1321	5	C15H19O3+
247.1479	83	C19H19+
249.1273	49	C18H17O+
249.1636	49	C19H21+
251.1064	7	C17H15O2+
251.143	33	C18H19O+
251.1793	25	C19H23+
253.1224	9	C17H17O2+
253.1588	40	C18H21O+
255.1379	47	C17H19O2+
255.1742	54	C18H23O+
257.1535	83	C17H21O2+
257.1899	23	C18H25O+
259.1483	6	C20H19+
261.1272	8	C19H17O+
261.1481	27	C16H21O3+
261.1636	54	C20H21+
263.1429	53	C19H19O+
265.1586	390	C19H21O+
266.1607	17	C11H24NO6+
267.1377	89	C18H19O2+
267.1742	309	C19H23O+
268.1415	5	C13H20N2O4+
268.1776	17	C14H24N2O3+
269.1535	13	C18H21O2+
269.1895	20	C19H25O+
271.1479	14	C21H19+
271.1691	21	C18H23O2+
273.148	9	C17H21O3+
274.1348	9	C20H18O+
277.1586	55	C20H21O+
279.138	18	C19H19O2+
279.1742	199	C20H23O+
280.1772	9	C15H24N2O3+
281.1536	41	C19H21O2+
283.1691	415	C19H23O2+
285.1484	51	C18H21O3+
285.1847	224	C19H25O2+
286.1874	10	C14H26N2O4+
289.1585	129	C21H21O+
290.1621	9	C16H22N2O3+
295.169	231	C20H23O2+
296.1722	9	C15H24N2O4+
297.1848	176	C20H25O2+
298.1883	7	C15H26N2O4+
299.1639	363	C19H23O3+
301.1796	352	C19H25O3+
302.1833	15	C14H26N2O5+
303.1589	29	C18H23O4+
303.1957	4	C19H27O3+
307.1691	414	C21H23O2+
308.1726	17	C16H24N2O4+
313.1796	331	C20H25O3+
314.1832	10	C15H26N2O5+
315.1952	73	C20H27O3+
317.1743	22	C19H25O4+
325.1796	544	C21H25O3+
326.1829	25	C16H26N2O5+
331.1899	27	C20H27O4+
343.19	943	C21H27O4+
344.1932	45	C16H28N2O6+
