Mass spectrum: Pilocarpine; LC-ESI-ITFT; MS2; CE: 100%; R=15000; [M+H]+
Name: Pilocarpine
Name: (3S,4R)-3-ethyl-4-[(3-methylimidazol-4-yl)methyl]oxolan-2-one
Formula: C11H16N2O2
Exact mass: 208.1212
SMILES: CC[C@H]1[C@H](COC1=O)Cc2cncn2C
InChI: InChI=1S/C11H16N2O2/c1-3-10-8(6-15-11(10)14)4-9-5-12-7-13(9)2/h5,7-8,10H,3-4,6H2,1-2H3/t8-,10-/m0/s1
Instrument: LTQ Orbitrap XL Thermo Scientific
Instrument type: LC-ESI-ITFT
Ms type: MS2
Ion mode: POSITIVE
Ionization: ESI
Fragmentation mode: HCD
Collision energy: 100% (nominal)
Resolution: 15000
Column name: Kinetex Evo C18 2.6 um 50 x 2.1 mm
Retention time: 0.620 min
Base peak: 209.1282
Precursor m/z: 209.1285
Precursor type: [M+H]+
m/z	relative intensity	assigned
68.0495	43	C4H6N+
80.0496	14	C5H6N+
81.0447	27	C4H5N2+
81.057	11	C5H7N+
81.0697	6	C6H9+
83.0604	18	C4H7N2+
94.0651	31	C6H8N+
95.0604	677	C5H7N2+
96.0682	999	C5H8N2+
97.0761	14	C5H9N2+
107.0606	7	C6H7N2+
107.0729	12	C7H9N+
109.076	40	C6H9N2+
121.076	85	C7H9N2+
122.084	10	C7H10N2+
122.0962	9	C8H12N+
123.0916	49	C7H11N2+
133.076	30	C8H9N2+
134.084	10	C8H10N2+
135.0916	34	C8H11N2+
147.0915	13	C9H11N2+
151.1229	8	C9H15N2+
163.123	18	C10H15N2+
209.1285	21	C11H17N2O2+
