Mass spectrum: Matairesinol; LC-ESI-ITFT; MS2; CE: 110%; R=15000; [M+H]+
Name: Matairesinol
Formula: C20H22O6
Exact mass: 358.1416
SMILES: COC1=CC(C[C@H]2COC(=O)[C@@H]2CC2=CC=C(O)C(OC)=C2)=CC=C1O
InChI: InChI=1S/C20H22O6/c1-24-18-9-12(3-5-16(18)21)7-14-11-26-20(23)15(14)8-13-4-6-17(22)19(10-13)25-2/h3-6,9-10,14-15,21-22H,7-8,11H2,1-2H3/t14-,15+/m0/s1
Instrument: LTQ Orbitrap XL Thermo Scientific
Instrument type: LC-ESI-ITFT
Ms type: MS2
Ion mode: POSITIVE
Ionization: ESI
Fragmentation mode: HCD
Collision energy: 110 % (nominal)
Resolution: 15000
Column name: Kinetex Evo C18 2.6 um 50 x 2.1 mm
Retention time: 9.337 min
Base peak: 147.0804
Precursor m/z: 359.1489
Precursor type: [M+H]+
m/z	relative intensity	assigned
65.0386	11	C5H5+
66.0463	133	C5H6+
77.0385	101	C6H5+
79.0542	40	C6H7+
81.0698	10	C6H9+
91.0541	89	C7H7+
94.0412	999	C6H6O+
95.049	23	C6H7O+
102.046	9	C8H6+
103.0541	445	C8H7+
105.0333	11	C7H5O+
107.0491	29	C7H7O+
115.054	25	C9H7+
117.0698	23	C9H9+
118.0413	12	C8H6O+
122.0361	509	C7H6O2+
128.0619	54	C10H8+
129.0692	23	C10H9+
131.0491	40	C9H7O+
137.0596	375	C8H9O2+
145.0641	9	C10H9O+
147.0439	12	C9H7O2+
