Mass spectrum: Erucifoline; LC-ESI-ITFT; MS2; CE: 75%; R=15000; [M+H]+
Name: Erucifoline
Name: (5R,7S,9Z,12R,18R)-9-ethylidene-7-(hydroxymethyl)-5-methyl-3,6,11-trioxa-15-azatetracyclo[10.5.1.05,7.015,18]octadec-1(17)-ene-4,10-dione
Formula: C18H23NO6
Exact mass: 349.1525
SMILES: C/C=C\1/C[C@@]2([C@@](O2)(C(=O)OCC3=CCN4[C@H]3[C@@H](CC4)OC1=O)C)CO
InChI: InChI=1S/C18H23NO6/c1-3-11-8-18(10-20)17(2,25-18)16(22)23-9-12-4-6-19-7-5-13(14(12)19)24-15(11)21/h3-4,13-14,20H,5-10H2,1-2H3/b11-3-/t13-,14-,17+,18+/m1/s1
Instrument: LTQ Orbitrap XL Thermo Scientific
Instrument type: LC-ESI-ITFT
Ms type: MS2
Ion mode: POSITIVE
Ionization: ESI
Fragmentation mode: HCD
Collision energy: 75% (nominal)
Resolution: 15000
Column name: Kinetex Evo C18 2.6 um 50 x 2.1 mm
Retention time: 0.959 min
Base peak: 350.1597
Precursor m/z: 350.1598
Precursor type: [M+H]+
m/z	relative intensity	assigned
55.054	18	C4H7+
65.0384	38	C5H5+
67.0416	34	C4H5N+
67.0542	441	C5H7+
68.0495	174	C4H6N+
69.0336	19	C4H5O+
69.057	24	C4H7N+
69.0697	27	C5H9+
77.0386	155	C6H5+
79.0543	217	C6H7+
80.0495	354	C5H6N+
81.0574	72	C5H7N+
81.0699	159	C6H9+
82.0652	263	C5H8N+
83.0492	81	C5H7O+
84.0444	29	C4H6NO+
91.0543	395	C7H7+
92.0495	60	C6H6N+
93.0574	67	C6H7N+
93.0699	349	C7H9+
94.0652	860	C6H8N+
95.0492	119	C6H7O+
95.073	80	C6H9N+
95.0857	29	C7H11+
96.0808	592	C6H10N+
97.0648	49	C6H9O+
99.0438	21	C5H7O2+
103.0543	223	C8H7+
105.0573	63	C7H7N+
105.0699	35	C8H9+
106.0651	108	C7H8N+
107.0726	49	C7H9N+
108.0808	211	C7H10N+
109.0648	224	C7H9O+
110.0602	57	C6H8NO+
110.0965	162	C7H12N+
111.0441	77	C6H7O2+
118.0651	194	C8H8N+
119.0729	40	C8H9N+
120.0808	999	C8H10N+
121.0649	72	C8H9O+
121.0888	118	C8H11N+
122.0965	218	C8H12N+
123.0441	57	C7H7O2+
125.0599	54	C7H9O2+
136.0756	37	C8H10NO+
137.0594	18	C8H9O2+
138.0914	615	C8H12NO+
146.0966	40	C10H12N+
164.1074	48	C10H14NO+
220.1334	95	C13H18NO2+
