Mass spectrum: Isophorone; LC-ESI-ITFT; MS2; CE: 170%; R=15000; [M+H]+
Name: Isophorone
Name: 3,5,5-trimethylcyclohex-2-en-1-one
Formula: C9H14O
Exact mass: 138.1045
SMILES: CC1=CC(=O)CC(C)(C)C1
InChI: InChI=1S/C9H14O/c1-7-4-8(10)6-9(2,3)5-7/h4H,5-6H2,1-3H3
Instrument: LTQ Orbitrap XL Thermo Scientific
Instrument type: LC-ESI-ITFT
Ms type: MS2
Ion mode: POSITIVE
Ionization: ESI
Fragmentation mode: HCD
Collision energy: 170 % (nominal)
Resolution: 15000
Column name: Kinetex Evo C18 2.6 um 50 x 2.1 mm
Retention time: 8.610 min
Base peak: 139.1114
Precursor m/z: 139.1117
Precursor type: [M+H]+
m/z	relative intensity	assigned
79.0538	369	C6H7+
81.0331	47	C5H5O+
81.0695	82	C6H9+
83.0488	13	C5H7O+
91.0539	999	C7H7+
94.041	146	C6H6O+
95.0488	428	C6H7O+
103.054	58	C8H7+
105.0443	718	C6H5N2+
105.0695	67	C8H9+
107.0487	40	C7H7O+
109.0643	69	C7H9O+
