Mass spectrum: Jervine; LC-ESI-ITFT; MS2; CE: 40%; R=15000; [M+H]+
Name: Jervine
Name: (3S,3`R,3`aS,6`S,6aS,6bS,7`aR,9R,11aS,11bR)-3-hydroxy-3`,6`,10,11b-tetramethylspiro[1,2,3,4,6,6a,6b,7,8,11a-decahydrobenzo[a]fluorene-9,2`-3a,4,5,6,7,7a-hexahydro-3H-furo[3,2-b]pyridine]-11-one
Formula: C27H39NO3
Exact mass: 425.2930
SMILES: C[C@H]1C[C@@H]2[C@H]([C@H]([C@]3(O2)CC[C@H]4[C@@H]5CC=C6C[C@H](CC[C@@]6([C@H]5C(=O)C4=C3C)C)O)C)NC1
InChI: InChI=1S/C27H39NO3/c1-14-11-21-24(28-13-14)16(3)27(31-21)10-8-19-20-6-5-17-12-18(29)7-9-26(17,4)23(20)25(30)22(19)15(27)2/h5,14,16,18-21,23-24,28-29H,6-13H2,1-4H3/t14-,16+,18-,19-,20-,21+,23+,24-,26-,27-/m0/s1
Instrument: LTQ Orbitrap XL Thermo Scientific
Instrument type: LC-ESI-ITFT
Ms type: MS2
Ion mode: POSITIVE
Ionization: ESI
Fragmentation mode: HCD
Collision energy: 40% (nominal)
Resolution: 15000
Column name: Kinetex Evo C18 2.6 um 50 x 2.1 mm
Retention time: 8.928 min
Base peak: 426.3
Precursor m/z: 426.3003
Precursor type: [M+H]+
m/z	relative intensity	assigned
67.0542	20	C5H7+
70.0651	6	C4H8N+
79.0542	3	C6H7+
81.0699	23	C6H9+
82.0651	2	C5H8N+
83.0491	7	C5H7O+
84.0808	75	C5H10N+
85.0648	26	C5H9O+
91.0542	3	C7H7+
93.0699	5	C7H9+
95.0856	9	C7H11+
96.0807	6	C6H10N+
98.0964	15	C6H12N+
99.0802	3	C6H11O+
100.0757	8	C5H10NO+
102.0913	34	C5H12NO+
105.0698	8	C8H9+
107.0855	9	C8H11+
109.1011	181	C8H13+
112.0757	19	C6H10NO+
114.0913	257	C6H12NO+
119.0856	8	C9H11+
121.1011	18	C9H13+
123.081	2	C8H11O+
123.1169	2	C9H15+
124.112	4	C8H14N+
125.096	5	C8H13O+
126.1277	69	C8H16N+
131.0855	6	C10H11+
133.1012	8	C10H13+
135.1167	5	C10H15+
137.0966	2	C9H13O+
140.1071	5	C8H14NO+
143.0855	4	C11H11+
145.1011	38	C11H13+
147.0803	3	C10H11O+
147.1168	13	C11H15+
149.0961	29	C10H13O+
151.1114	3	C10H15O+
157.1011	12	C12H13+
159.1169	10	C12H15+
161.096	3	C11H13O+
163.1118	6	C11H15O+
169.1008	3	C13H13+
171.1168	7	C13H15+
173.0962	6	C12H13O+
173.1324	6	C13H17+
175.1118	16	C12H15O+
183.1166	4	C14H15+
185.1322	4	C14H17+
187.1117	4	C13H15O+
189.1276	5	C13H17O+
195.1173	2	C15H15+
197.1319	3	C15H17+
199.1481	8	C15H19+
201.1633	2	C15H21+
209.1322	4	C16H17+
211.1481	7	C16H19+
213.1278	2	C15H17O+
213.1635	9	C16H21+
221.1322	2	C17H17+
223.148	2	C17H19+
229.159	3	C16H21O+
235.1481	4	C18H19+
237.1632	4	C18H21+
249.1628	2	C19H21+
251.18	2	C19H23+
253.1586	6	C18H21O+
263.1785	1	C20H23+
265.1951	5	C20H25+
275.1801	3	C21H23+
277.1952	6	C21H25+
283.205	1	C20H27O+
289.1959	2	C22H25+
293.1902	7	C21H25O+
295.2054	17	C21H27O+
311.2005	12	C21H27O2+
313.2162	125	C21H29O2+
325.2162	3	C22H29O2+
335.2001	5	C23H27O2+
345.2583	2	C26H33+
349.2166	4	C24H29O2+
351.2321	5	C24H31O2+
379.262	7	C26H35O2+
391.2634	13	C27H35O2+
408.2898	27	C27H38NO2+
426.3001	999	C27H40NO3+
