Mass spectrum: Retrorsine N-oxide; LC-ESI-ITFT; MS2; CE: 90%; R=15000; [M+H]+
Name: Retrorsine N-oxide
Name: Unii-51819grv4U
Name: (1R,4Z,6R,7S,14S,17R)-4-ethylidene-7-hydroxy-7-(hydroxymethyl)-6-methyl-14-oxido-2,9-dioxa-14-azoniatricyclo[9.5.1.014,17]heptadec-11-ene-3,8-dione
Formula: C18H25NO7
Exact mass: 367.1631
SMILES: C/C=C\1/C[C@H]([C@@](C(=O)OCC2=CC[N@@+]3([C@H]2[C@@H](CC3)OC1=O)[O-])(CO)O)C
InChI: InChI=1S/C18H25NO7/c1-3-12-8-11(2)18(23,10-20)17(22)25-9-13-4-6-19(24)7-5-14(15(13)19)26-16(12)21/h3-4,11,14-15,20,23H,5-10H2,1-2H3/b12-3-/t11-,14-,15-,18-,19-/m1/s1
Instrument: LTQ Orbitrap XL Thermo Scientific
Instrument type: LC-ESI-ITFT
Ms type: MS2
Ion mode: POSITIVE
Ionization: ESI
Fragmentation mode: HCD
Collision energy: 90% (nominal)
Resolution: 15000
Column name: Kinetex Evo C18 2.6 um 50 x 2.1 mm
Retention time: 2.074 min
Base peak: 143.0016
Precursor m/z: 368.1704
Precursor type: [M+H]+
m/z	relative intensity	assigned
53.0384	13	C4H5+
67.0417	21	C4H5N+
67.0543	49	C5H7+
68.0496	12	C4H6N+
77.0386	15	C6H5+
79.0543	56	C6H7+
80.0496	175	C5H6N+
81.0335	19	C5H5O+
81.0574	25	C5H7N+
81.07	103	C6H9+
82.0653	15	C5H8N+
83.0491	17	C5H7O+
84.0445	16	C4H6NO+
91.0543	72	C7H7+
92.0495	29	C6H6N+
93.0574	375	C6H7N+
93.0701	25	C7H9+
94.0652	999	C6H8N+
95.0731	76	C6H9N+
95.0856	63	C7H11+
96.081	27	C6H10N+
98.0603	13	C5H8NO+
105.0699	21	C8H9+
106.0652	130	C7H8N+
107.0731	20	C7H9N+
108.0444	9	C6H6NO+
108.0809	172	C7H10N+
109.0649	17	C7H9O+
109.0883	11	C7H11N+
111.0681	9	C6H9NO+
117.0574	36	C8H7N+
118.0652	378	C8H8N+
119.073	117	C8H9N+
120.0809	492	C8H10N+
122.0964	34	C8H12N+
123.0806	24	C8H11O+
124.0757	12	C7H10NO+
132.0812	17	C9H10N+
134.0967	12	C9H12N+
136.0758	460	C8H10NO+
138.0914	50	C8H12NO+
139.0754	23	C8H11O2+
146.0962	11	C10H12N+
151.0753	15	C9H11O2+
154.0868	8	C8H12NO2+
