Mass spectrum: Isophorone; LC-ESI-ITFT; MS2; CE: 120%; R=15000; [M+H]+
Name: Isophorone
Name: 3,5,5-trimethylcyclohex-2-en-1-one
Formula: C9H14O
Exact mass: 138.1045
SMILES: CC1=CC(=O)CC(C)(C)C1
InChI: InChI=1S/C9H14O/c1-7-4-8(10)6-9(2,3)5-7/h4H,5-6H2,1-3H3
Instrument: LTQ Orbitrap XL Thermo Scientific
Instrument type: LC-ESI-ITFT
Ms type: MS2
Ion mode: POSITIVE
Ionization: ESI
Fragmentation mode: HCD
Collision energy: 120 % (nominal)
Resolution: 15000
Column name: Kinetex Evo C18 2.6 um 50 x 2.1 mm
Retention time: 8.577 min
Base peak: 139.1118
Precursor m/z: 139.1117
Precursor type: [M+H]+
m/z	relative intensity	assigned
67.0539	80	C5H7+
69.0332	999	C4H5O+
69.0696	57	C5H9+
77.0383	286	C6H5+
78.0461	5	C6H6+
79.054	239	C6H7+
81.0333	6	C5H5O+
81.0697	46	C6H9+
83.049	77	C5H7O+
91.0541	268	C7H7+
93.0697	94	C7H9+
94.0411	4	C6H6O+
95.049	150	C6H7O+
95.0854	18	C7H11+
96.0568	39	C6H8O+
97.0647	128	C6H9O+
103.0541	52	C8H7+
105.0445	149	C6H5N2+
105.0697	110	C8H9+
106.0776	27	C8H10+
109.0646	45	C7H9O+
110.0725	9	C7H10O+
119.0853	17	C9H11+
121.101	16	C9H13+
133.0759	3	C8H9N2+
139.1117	3	C9H15O+
