Mass spectrum: (+)-Costunolide; LC-ESI-ITFT; MS2; CE: 20%; R=15000; [M+H]+
Name: (+)-Costunolide
Name: Costunolide
Name: (3aS,6E,10E,11aR)-6,10-dimethyl-3-methylidene-3a,4,5,8,9,11a-hexahydrocyclodeca[b]furan-2-one
Formula: C15H20O2
Exact mass: 232.1463
SMILES: C/C/1=C\CC/C(=C/[C@@H]2[C@@H](CC1)C(=C)C(=O)O2)/C
InChI: InChI=1S/C15H20O2/c1-10-5-4-6-11(2)9-14-13(8-7-10)12(3)15(16)17-14/h5,9,13-14H,3-4,6-8H2,1-2H3/b10-5+,11-9+/t13-,14+/m0/s1
Instrument: LTQ Orbitrap XL Thermo Scientific
Instrument type: LC-ESI-ITFT
Ms type: MS2
Ion mode: POSITIVE
Ionization: ESI
Fragmentation mode: HCD
Collision energy: 20% (nominal)
Resolution: 15000
Column name: Kinetex Evo C18 2.6 um 50 x 2.1 mm
Retention time: 11.701 min
Base peak: 116.9858
Precursor m/z: 233.1536
Precursor type: [M+H]+
m/z	relative intensity	assigned
79.0541	1	C6H7+
81.0697	15	C6H9+
93.0698	5	C7H9+
95.0855	15	C7H11+
105.0696	8	C8H9+
107.0856	5	C8H11+
109.1011	7	C8H13+
119.0855	4	C9H11+
121.1011	3	C9H13+
125.0594	2	C7H9O2+
131.0856	7	C10H11+
133.1013	3	C10H13+
135.081	1	C9H11O+
137.0599	4	C8H9O2+
139.0751	4	C8H11O2+
145.1012	9	C11H13+
147.1168	7	C11H15+
151.0756	4	C9H11O2+
159.0806	2	C11H11O+
159.1169	10	C12H15+
161.1326	13	C12H17+
163.0754	4	C10H11O2+
177.091	17	C11H13O2+
187.1482	216	C14H19+
189.1632	5	C14H21+
191.1069	4	C12H15O2+
197.1325	18	C15H17+
205.1586	19	C14H21O+
215.1431	118	C15H19O+
233.1536	999	C15H21O2+
