Mass spectrum: Aconitin; LC-ESI-ITFT; MS2; CE: 65%; R=15000; [M+H]+
Name: Aconitin
Name: Aconitine
Name: [(1S,2R,3R,4R,5R,6S,7S,8R,9R,13R,14R,16S,17S,18R)-8-acetyloxy-11-ethyl-5,7,14-trihydroxy-6,16,18-trimethoxy-13-(methoxymethyl)-11-azahexacyclo[7.7.2.12,5.01,10.03,8.013,17]nonadecan-4-yl] benzoate
Formula: C34H47NO11
Exact mass: 645.3149
SMILES: CCN1C[C@@]2([C@@H](C[C@@H]([C@@]34[C@@H]2[C@H]([C@@H](C31)[C@@]5([C@@H]6[C@H]4C[C@@]([C@@H]6OC(=O)C7=CC=CC=C7)([C@H]([C@@H]5O)OC)O)OC(=O)C)OC)OC)O)COC
InChI: InChI=1S/C34H47NO11/c1-7-35-15-31(16-41-3)20(37)13-21(42-4)33-19-14-32(40)28(45-30(39)18-11-9-8-10-12-18)22(19)34(46-17(2)36,27(38)29(32)44-6)23(26(33)35)24(43-5)25(31)33/h8-12,19-29,37-38,40H,7,13-16H2,1-6H3/t19-,20-,21+,22-,23+,24+,25-,26?,27+,28-,29+,31+,32-,33+,34-/m1/s1
Instrument: LTQ Orbitrap XL Thermo Scientific
Instrument type: LC-ESI-ITFT
Ms type: MS2
Ion mode: POSITIVE
Ionization: ESI
Fragmentation mode: HCD
Collision energy: 65% (nominal)
Resolution: 15000
Column name: Kinetex Evo C18 2.6 um 50 x 2.1 mm
Retention time: 9.736 min
Base peak: 116.9859
Precursor m/z: 646.3222
Precursor type: [M+H]+
m/z	relative intensity	assigned
67.0541	3	C5H7+
71.0492	10	C4H7O+
72.0809	3	C4H10N+
75.0441	20	C3H7O2+
77.0386	21	C6H5+
79.0543	11	C6H7+
81.0701	4	C6H9+
84.0808	12	C5H10N+
85.0284	12	C4H5O2+
87.0439	4	C4H7O2+
88.0757	3	C4H10NO+
91.0542	18	C7H7+
95.0491	4	C6H7O+
96.0811	6	C6H10N+
97.0651	5	C6H9O+
102.0915	7	C5H12NO+
105.0335	999	C7H5O+
107.049	6	C7H7O+
108.0808	23	C7H10N+
109.0649	16	C7H9O+
110.0963	16	C7H12N+
111.0804	28	C7H11O+
112.0756	11	C6H10NO+
113.0831	5	C6H11NO+
115.0545	4	C9H7+
117.0698	22	C9H9+
118.0777	2	C9H10+
119.049	4	C8H7O+
119.0856	4	C9H11+
121.0647	13	C8H9O+
121.0888	5	C8H11N+
122.0965	21	C8H12N+
123.0444	6	C7H7O2+
124.0756	3	C7H10NO+
128.0624	7	C10H8+
129.0699	30	C10H9+
131.0493	5	C9H7O+
131.0855	22	C10H11+
132.0814	2	C9H10N+
133.0287	5	C8H5O2+
133.0649	7	C9H9O+
134.0964	9	C9H12N+
135.0441	5	C8H7O2+
135.0807	8	C9H11O+
137.0598	10	C8H9O2+
138.0914	9	C8H12NO+
140.107	9	C8H14NO+
141.0702	11	C11H9+
143.0857	11	C11H11+
145.0647	7	C10H9O+
146.0363	8	C9H6O2+
146.06	3	C9H8NO+
146.0962	10	C10H12N+
147.0439	15	C9H7O2+
147.0806	10	C10H11O+
147.1041	8	C10H13N+
148.1122	10	C10H14N+
149.0598	4	C9H9O2+
152.107	47	C9H14NO+
153.0699	10	C12H9+
155.0855	12	C12H11+
157.0649	9	C11H9O+
158.0731	3	C11H10O+
158.0963	12	C11H12N+
159.0804	12	C11H11O+
159.1035	3	C11H13N+
160.0762	4	C10H10NO+
160.112	19	C11H14N+
161.0232	6	C9H5O3+
161.0597	4	C10H9O2+
161.0962	8	C11H13O+
162.0914	31	C10H12NO+
164.1071	10	C10H14NO+
165.0696	11	C13H9+
166.0779	6	C13H10+
167.0854	16	C13H11+
169.0652	4	C12H9O+
171.0804	10	C12H11O+
171.1045	6	C12H13N+
172.1121	17	C12H14N+
173.0597	3	C11H9O2+
173.0961	4	C12H13O+
174.0914	39	C11H12NO+
174.1281	5	C12H16N+
176.1068	6	C11H14NO+
177.0544	6	C10H9O3+
178.0778	9	C14H10+
178.1226	18	C11H16NO+
179.0854	21	C14H11+
181.065	5	C13H9O+
181.101	13	C14H13+
182.073	4	C13H10O+
183.0807	5	C13H11O+
184.1119	9	C13H14N+
185.0598	4	C12H9O2+
185.0963	5	C13H13O+
186.0917	3	C12H12NO+
186.128	17	C13H16N+
187.0759	4	C12H11O2+
188.0706	28	C11H10NO2+
188.1076	6	C12H14NO+
189.0789	4	C11H11NO2+
190.0776	10	C15H10+
190.0866	7	C11H12NO2+
190.1229	17	C12H16NO+
191.0857	18	C15H11+
192.0934	6	C15H12+
193.1013	18	C15H13+
194.073	3	C14H10O+
195.0805	11	C14H11O+
196.1125	3	C14H14N+
197.0962	9	C14H13O+
198.128	6	C14H16N+
200.1062	5	C13H14NO+
202.0785	5	C16H10+
202.1225	36	C13H16NO+
203.0859	14	C16H11+
203.0935	11	C12H13NO2+
204.0938	7	C16H12+
204.1017	5	C12H14NO2+
204.1387	6	C13H18NO+
205.1012	27	C16H13+
207.0807	10	C15H11O+
207.1168	7	C16H15+
208.089	5	C15H12O+
209.0963	12	C15H13O+
210.1287	4	C15H16N+
216.1383	11	C14H18NO+
217.101	10	C17H13+
218.0727	8	C16H10O+
218.1539	34	C14H20NO+
219.0805	10	C16H11O+
219.116	4	C17H15+
221.0966	10	C16H13O+
222.1283	5	C16H16N+
223.0749	5	C15H11O2+
223.1118	8	C16H15O+
225.0915	5	C15H13O2+
232.0884	5	C2H18NO11+
233.096	17	C17H13O+
234.1485	3	C14H20NO2+
235.0746	4	C16H11O2+
235.1119	7	C17H15O+
236.1642	11	C14H22NO2+
237.091	9	C16H13O2+
238.1232	6	C16H16NO+
239.1067	3	C16H15O2+
247.1118	6	C18H15O+
249.0912	5	C17H13O2+
250.1238	4	C17H16NO+
251.1069	11	C17H15O2+
252.1385	9	C17H18NO+
261.091	10	C18H13O2+
263.1065	9	C18H15O2+
264.138	8	C18H18NO+
265.1233	4	C18H17O2+
266.1536	3	C18H20NO+
276.1393	6	C19H18NO+
278.1533	5	C19H20NO+
279.1009	4	C18H15O3+
280.1332	7	C18H18NO2+
282.1498	6	C18H20NO2+
290.1554	7	C20H20NO+
294.1501	3	C19H20NO2+
296.1656	6	C19H22NO2+
306.1487	8	C20H20NO2+
308.1648	12	C20H22NO2+
310.1797	3	C20H24NO2+
312.1963	5	C20H26NO2+
322.1438	3	C20H20NO3+
322.1809	5	C21H24NO2+
324.1607	6	C20H22NO3+
340.1913	24	C21H26NO3+
344.2227	5	C21H30NO3+
354.2061	15	C22H28NO3+
368.1858	26	C22H26NO4+
369.1893	5	C19H29O7+
372.2167	17	C22H30NO4+
386.2338	6	C23H32NO4+
