Mass spectrum: alpha-Cyperone; LC-ESI-ITFT; MS2; CE: 75%; R=15000; [M+H]+
Name: alpha-Cyperone
Formula: C15H22O
Exact mass: 218.1671
SMILES: CC1=C2CC(CCC2(CCC1=O)C)C(=C)C
InChI: InChI=1S/C15H22O/c1-10(2)12-5-7-15(4)8-6-14(16)11(3)13(15)9-12/h12H,1,5-9H2,2-4H3
Instrument: LTQ Orbitrap XL Thermo Scientific
Instrument type: LC-ESI-ITFT
Ms type: MS2
Ion mode: POSITIVE
Ionization: ESI
Fragmentation mode: CID
Collision energy: 75 % (nominal)
Resolution: 15000
Column name: Kinetex Evo C18 2.6 um 50 x 2.1 mm
Retention time: 13.126 min
Base peak: 219.174
Precursor m/z: 219.1743
Precursor type: [M+H]+
m/z	relative intensity	assigned
67.0542	21	C5H7+
69.07	2	C5H9+
77.0385	4	C6H5+
79.0543	19	C6H7+
81.0699	52	C6H9+
91.0543	17	C7H7+
93.0699	57	C7H9+
95.0856	169	C7H11+
97.0649	229	C6H9O+
105.0699	121	C8H9+
107.0856	136	C8H11+
109.0649	23	C7H9O+
109.1013	330	C8H13+
111.0805	330	C7H11O+
117.07	9	C9H9+
119.0856	171	C9H11+
121.0649	22	C8H9O+
121.1013	141	C9H13+
123.0805	155	C8H11O+
123.1169	124	C9H15+
125.0962	35	C8H13O+
131.0856	87	C10H11+
133.1013	68	C10H13+
135.0806	131	C9H11O+
135.1169	108	C10H15+
137.0962	53	C9H13O+
137.1326	7	C10H17+
139.112	7	C9H15O+
145.1013	412	C11H13+
147.1169	202	C11H15+
149.0962	135	C10H13O+
149.1326	36	C11H17+
151.1119	9	C10H15O+
157.1014	1	C12H13+
159.117	418	C12H15+
161.1327	307	C12H17+
162.104	6	C11H14O+
163.1119	999	C11H15O+
173.1327	330	C13H17+
175.1482	92	C13H19+
176.1197	18	C12H16O+
177.1275	94	C12H17O+
177.1639	53	C13H21+
191.1432	32	C13H19O+
191.1796	53	C14H23+
201.1639	840	C15H21+
204.151	10	C14H20O+
