Mass spectrum: Kaempferol; LC-ESI-ITFT; MS2; CE: 80%; R=15000; [M+H]+
Name: Kaempferol
Name: 3,5,7-trihydroxy-2-(4-hydroxyphenyl)chromen-4-one
Formula: C15H10O6
Exact mass: 286.0477
SMILES: OC1=CC=C(C=C1)C1=C(O)C(=O)C2=C(O)C=C(O)C=C2O1
InChI: InChI=1S/C15H10O6/c16-8-3-1-7(2-4-8)15-14(20)13(19)12-10(18)5-9(17)6-11(12)21-15/h1-6,16-18,20H
Instrument: LTQ Orbitrap XL Thermo Scientific
Instrument type: LC-ESI-ITFT
Ms type: MS2
Ion mode: POSITIVE
Ionization: ESI
Fragmentation mode: HCD
Collision energy: 80% (nominal)
Resolution: 15000
Column name: Kinetex Evo C18 2.6 um 50 x 2.1 mm
Retention time: 10.404 min
Base peak: 116.9859
Precursor m/z: 287.055
Precursor type: [M+H]+
m/z	relative intensity	assigned
68.9971	153	C3HO2+
79.0544	62	C6H7+
105.0336	46	C7H5O+
107.0491	101	C7H7O+
111.0079	37	C5H3O3+
121.0284	458	C7H5O2+
137.0234	109	C7H5O3+
147.0436	71	C9H7O2+
153.0182	999	C7H5O4+
157.0648	148	C11H9O+
165.0182	109	C8H5O4+
171.0438	39	C11H7O2+
183.0279	41	C8H7O5+
185.0595	74	C12H9O2+
213.0544	174	C13H9O3+
258.0529	54	C14H10O5+
287.0541	113	C15H11O6+
