Mass spectrum: 6-beta-Hydroxycortisol; LC-ESI-ITFT; MS2; CE: 25%; R=15000; [M+H]+
Name: 6-beta-Hydroxycortisol
Name: 6beta-Hydroxycortisol
Name: (6R,8S,9S,10R,11S,13S,14S,17R)-6,11,17-trihydroxy-17-(2-hydroxyacetyl)-10,13-dimethyl-2,6,7,8,9,11,12,14,15,16-decahydro-1H-cyclopenta[a]phenanthren-3-one
Formula: C21H30O6
Exact mass: 378.2042
SMILES: C[C@]12C[C@H](O)[C@H]3[C@@H](C[C@@H](O)C4=CC(=O)CC[C@]34C)[C@@H]1CC[C@]2(O)C(=O)CO
InChI: InChI=1S/C21H30O6/c1-19-5-3-11(23)7-14(19)15(24)8-12-13-4-6-21(27,17(26)10-22)20(13,2)9-16(25)18(12)19/h7,12-13,15-16,18,22,24-25,27H,3-6,8-10H2,1-2H3/t12-,13-,15+,16-,18+,19-,20-,21-/m0/s1
Instrument: LTQ Orbitrap XL Thermo Scientific
Instrument type: LC-ESI-ITFT
Ms type: MS2
Ion mode: POSITIVE
Ionization: ESI
Fragmentation mode: CID
Collision energy: 25 % (nominal)
Resolution: 15000
Column name: Kinetex Evo C18 2.6 um 50 x 2.1 mm
Retention time: 6.523 min
Base peak: 379.2119
Precursor m/z: 379.2115
Precursor type: [M+H]+
m/z	relative intensity	assigned
143.0855	8	C11H11+
171.0807	12	C12H11O+
173.0964	10	C12H13O+
185.0967	9	C13H13O+
187.1118	11	C13H15O+
189.0916	9	C12H13O2+
197.0963	10	C14H13O+
197.1333	8	C15H17+
199.1116	14	C14H15O+
207.1173	16	C16H15+
209.133	9	C16H17+
213.1272	8	C15H17O+
215.1076	12	C14H15O2+
217.1225	27	C14H17O2+
219.1177	8	C17H15+
221.1324	19	C17H17+
223.1117	15	C16H15O+
223.1482	11	C17H19+
225.1273	15	C16H17O+
227.1439	9	C16H19O+
229.1232	9	C15H17O2+
233.1177	8	C14H17O3+
237.128	41	C17H17O+
237.164	13	C18H21+
239.1433	113	C17H19O+
241.1597	13	C17H21O+
243.1377	12	C16H19O2+
247.1326	22	C15H19O3+
247.148	53	C19H19+
249.1278	49	C18H17O+
249.1639	19	C19H21+
251.1429	15	C18H19O+
253.1593	15	C18H21O+
255.138	11	C17H19O2+
257.1537	34	C17H21O2+
261.1639	32	C20H21+
263.1434	35	C19H19O+
265.1589	151	C19H21O+
267.1384	39	C18H19O2+
267.1746	111	C19H23O+
269.1534	13	C18H21O2+
269.1897	11	C19H25O+
271.1483	16	C21H19+
277.1595	41	C20H21O+
279.1746	111	C20H23O+
281.1542	32	C19H21O2+
283.1695	258	C19H23O2+
285.1493	10	C18H21O3+
285.1852	98	C19H25O2+
289.1591	99	C21H21O+
295.1696	154	C20H23O2+
297.1852	177	C20H25O2+
299.1641	9	C19H23O3+
301.18	48	C19H25O3+
303.1946	9	C19H27O3+
307.1695	356	C21H23O2+
313.1801	466	C20H25O3+
315.1954	44	C20H27O3+
325.1801	718	C21H25O3+
331.1905	172	C20H27O4+
343.1906	999	C21H27O4+
349.2009	57	C20H29O5+
361.2011	679	C21H29O5+
