Mass spectrum: Erucifoline N-oxide; LC-ESI-ITFT; MS2; CE: 100%; R=15000; [M+H]+
Name: Erucifoline N-oxide
Name: (5R,7S,9Z,12R,18R)-9-ethylidene-7-(hydroxymethyl)-5-methyl-15-oxido-3,6,11-trioxa-15-azoniatetracyclo[10.5.1.05,7.015,18]octadec-1(17)-ene-4,10-dione
Formula: C18H23NO7
Exact mass: 365.1475
SMILES: C/C=C\1/C[C@@]2([C@@](O2)(C(=O)OCC3=CC[N+]4([C@H]3[C@@H](CC4)OC1=O)[O-])C)CO
InChI: InChI=1S/C18H23NO7/c1-3-11-8-18(10-20)17(2,26-18)16(22)24-9-12-4-6-19(23)7-5-13(14(12)19)25-15(11)21/h3-4,13-14,20H,5-10H2,1-2H3/b11-3-/t13-,14-,17+,18+,19?/m1/s1
Instrument: LTQ Orbitrap XL Thermo Scientific
Instrument type: LC-ESI-ITFT
Ms type: MS2
Ion mode: POSITIVE
Ionization: ESI
Fragmentation mode: HCD
Collision energy: 100% (nominal)
Resolution: 15000
Column name: Kinetex Evo C18 2.6 um 50 x 2.1 mm
Retention time: 1.123 min
Base peak: 366.1545
Precursor m/z: 366.1547
Precursor type: [M+H]+
m/z	relative intensity	assigned
53.0386	12	C4H5+
65.0386	21	C5H5+
66.0465	21	C5H6+
67.0417	30	C4H5N+
67.0542	76	C5H7+
68.0495	11	C4H6N+
77.0387	32	C6H5+
79.0542	66	C6H7+
80.0496	223	C5H6N+
81.0572	18	C5H7N+
81.07	27	C6H9+
82.065	11	C5H8N+
83.0492	13	C5H7O+
91.0543	125	C7H7+
92.0496	71	C6H6N+
93.0574	308	C6H7N+
93.0698	17	C7H9+
94.0652	999	C6H8N+
95.0493	19	C6H7O+
95.073	18	C6H9N+
96.0445	12	C5H6NO+
103.0544	12	C8H7+
105.0698	14	C8H9+
106.0652	76	C7H8N+
107.0731	21	C7H9N+
108.0444	14	C6H6NO+
108.0808	145	C7H10N+
109.0648	40	C7H9O+
110.0603	15	C6H8NO+
117.0574	72	C8H7N+
118.0652	477	C8H8N+
119.0731	125	C8H9N+
120.0809	256	C8H10N+
130.065	11	C9H8N+
131.0734	10	C9H9N+
132.0805	12	C9H10N+
136.0758	236	C8H10NO+
138.0916	12	C8H12NO+
144.0811	10	C10H10N+
