Mass spectrum: Isophorone; LC-ESI-ITFT; MS2; CE: 140%; R=15000; [M+H]+
Name: Isophorone
Name: 3,5,5-trimethylcyclohex-2-en-1-one
Formula: C9H14O
Exact mass: 138.1045
SMILES: CC1=CC(=O)CC(C)(C)C1
InChI: InChI=1S/C9H14O/c1-7-4-8(10)6-9(2,3)5-7/h4H,5-6H2,1-3H3
Instrument: LTQ Orbitrap XL Thermo Scientific
Instrument type: LC-ESI-ITFT
Ms type: MS2
Ion mode: POSITIVE
Ionization: ESI
Fragmentation mode: HCD
Collision energy: 140 % (nominal)
Resolution: 15000
Column name: Kinetex Evo C18 2.6 um 50 x 2.1 mm
Retention time: 8.532 min
Base peak: 139.1118
Precursor m/z: 139.1117
Precursor type: [M+H]+
m/z	relative intensity	assigned
77.0383	999	C6H5+
78.0461	40	C6H6+
79.054	530	C6H7+
80.0618	18	C6H8+
81.0333	34	C5H5O+
81.0696	113	C6H9+
83.0489	87	C5H7O+
91.0541	914	C7H7+
93.0698	86	C7H9+
94.0413	34	C6H6O+
95.049	505	C6H7O+
96.0568	51	C6H8O+
97.0647	116	C6H9O+
103.0541	129	C8H7+
105.0446	595	C6H5N2+
105.0698	177	C8H9+
106.0774	23	C8H10+
107.0489	29	C7H7O+
109.0646	141	C7H9O+
