Mass spectrum: Matairesinol; LC-ESI-ITFT; MS2; CE: 85%; R=15000; [M+H]+
Name: Matairesinol
Formula: C20H22O6
Exact mass: 358.1416
SMILES: COC1=CC(C[C@H]2COC(=O)[C@@H]2CC2=CC=C(O)C(OC)=C2)=CC=C1O
InChI: InChI=1S/C20H22O6/c1-24-18-9-12(3-5-16(18)21)7-14-11-26-20(23)15(14)8-13-4-6-17(22)19(10-13)25-2/h3-6,9-10,14-15,21-22H,7-8,11H2,1-2H3/t14-,15+/m0/s1
Instrument: LTQ Orbitrap XL Thermo Scientific
Instrument type: LC-ESI-ITFT
Ms type: MS2
Ion mode: POSITIVE
Ionization: ESI
Fragmentation mode: HCD
Collision energy: 85 % (nominal)
Resolution: 15000
Column name: Kinetex Evo C18 2.6 um 50 x 2.1 mm
Retention time: 9.296 min
Base peak: 147.0803
Precursor m/z: 359.1489
Precursor type: [M+H]+
m/z	relative intensity	assigned
66.0464	10	C5H6+
77.0386	21	C6H5+
79.0542	22	C6H7+
81.0699	11	C6H9+
91.0542	48	C7H7+
94.0413	203	C6H6O+
95.0493	5	C6H7O+
103.0542	294	C8H7+
105.0332	5	C7H5O+
107.0491	19	C7H7O+
109.0649	5	C7H9O+
115.0539	6	C9H7+
117.0698	20	C9H9+
119.049	9	C8H7O+
122.0361	320	C7H6O2+
128.0619	14	C10H8+
129.0698	22	C10H9+
131.049	87	C9H7O+
137.0596	999	C8H9O2+
145.0648	17	C10H9O+
146.0363	8	C9H6O2+
149.0595	11	C9H9O2+
157.0652	5	C11H9O+
174.0672	7	C11H10O2+
203.0857	10	C16H11+
