Mass spectrum: Protopin; LC-ESI-ITFT; MS2; CE: 70%; R=15000; [M+H]+
Name: Protopin
Name: Protopine
Name: 15-methyl-7,9,19,21-tetraoxa-15-azapentacyclo[15.7.0.04,12.06,10.018,22]tetracosa-1(17),4,6(10),11,18(22),23-hexaen-3-one
Formula: C20H19NO5
Exact mass: 353.1263
SMILES: CN1CCC2=CC3=C(C=C2C(=O)CC4=C(C1)C5=C(C=C4)OCO5)OCO3
InChI: InChI=1S/C20H19NO5/c1-21-5-4-13-7-18-19(25-10-24-18)8-14(13)16(22)6-12-2-3-17-20(15(12)9-21)26-11-23-17/h2-3,7-8H,4-6,9-11H2,1H3
Instrument: LTQ Orbitrap XL Thermo Scientific
Instrument type: LC-ESI-ITFT
Ms type: MS2
Ion mode: POSITIVE
Ionization: ESI
Fragmentation mode: HCD
Collision energy: 70% (nominal)
Resolution: 15000
Column name: Kinetex Evo C18 2.6 um 50 x 2.1 mm
Retention time: 6.714 min
Base peak: 354.1335
Precursor m/z: 354.1336
Precursor type: [M+H]+
m/z	relative intensity	assigned
77.0384	3	C6H5+
79.0543	17	C6H7+
91.0542	66	C7H7+
93.0701	4	C7H9+
103.0541	9	C8H7+
107.0491	71	C7H7O+
109.0647	13	C7H9O+
115.0542	4	C9H7+
118.0652	6	C8H8N+
119.0492	68	C8H7O+
120.0807	4	C8H10N+
121.0645	3	C8H9O+
130.065	7	C9H8N+
131.049	15	C9H7O+
131.0729	19	C9H9N+
132.0806	9	C9H10N+
135.0441	144	C8H7O2+
137.0597	5	C8H9O2+
143.0496	3	C10H7O+
144.0808	33	C10H10N+
146.0602	17	C9H8NO+
147.0441	82	C9H7O2+
148.0758	4	C9H10NO+
149.0597	352	C9H9O2+
158.0607	2	C10H8NO+
159.0441	26	C10H7O2+
159.0679	90	C10H9NO+
160.0512	4	C10H8O2+
160.0757	39	C10H10NO+
161.0599	21	C10H9O2+
161.0838	6	C10H11NO+
163.039	72	C9H7O3+
165.0547	79	C9H9O3+
167.0855	51	C13H11+
173.0599	12	C11H9O2+
174.055	26	C10H8NO2+
175.039	54	C10H7O3+
176.0705	23	C10H10NO2+
177.055	3	C10H9O3+
177.0699	11	C14H9+
177.0785	26	C10H11NO2+
178.077	4	C14H10+
178.0862	18	C10H12NO2+
179.0855	64	C14H11+
181.0655	4	C13H9O+
187.0394	9	C11H7O3+
188.0706	999	C11H10NO2+
189.0693	71	C15H9+
189.0784	753	C11H11NO2+
191.0853	14	C15H11+
193.0643	8	C14H9O+
195.0804	95	C14H11O+
204.0656	8	C11H10NO3+
205.0646	32	C15H9O+
206.0811	133	C11H12NO3+
207.0803	134	C15H11O+
209.0595	85	C14H9O2+
211.075	3	C14H11O2+
217.0647	107	C16H9O+
219.0804	29	C16H11O+
220.1129	4	C16H14N+
222.0673	8	C15H10O2+
223.0755	30	C15H11O2+
225.0909	14	C15H13O2+
233.0597	6	C16H9O2+
235.0753	144	C16H11O2+
237.0545	46	C15H9O3+
237.0908	71	C16H13O2+
245.0599	17	C17H9O2+
246.0681	3	C17H10O2+
247.0754	216	C17H11O2+
248.1068	5	C17H14NO+
249.0907	10	C17H13O2+
250.0621	6	C16H10O3+
251.0703	6	C16H11O3+
253.0864	4	C16H13O3+
263.0702	40	C17H11O3+
263.0942	7	C17H13NO2+
265.0858	53	C17H13O3+
266.0568	7	C16H10O4+
267.0653	25	C16H11O4+
275.0703	135	C18H11O3+
276.1023	3	C18H14NO2+
277.085	5	C18H13O3+
278.0577	4	C17H10O4+
278.1175	20	C18H16NO2+
279.0661	3	C17H11O4+
280.0728	5	C17H12O4+
292.0725	8	C18H12O4+
293.0809	25	C18H13O4+
295.0962	7	C18H15O4+
304.0981	5	C19H14NO3+
305.0796	5	C19H13O4+
306.1125	9	C19H16NO3+
311.0919	2	C18H15O5+
320.0916	47	C19H14NO4+
321.0993	14	C19H15NO4+
334.1076	14	C20H16NO4+
336.123	5	C20H18NO4+
354.1343	4	C20H20NO5+
