Mass spectrum: (-)-Nuciferine; LC-ESI-ITFT; MS2; CE: 105%; R=15000; [M+H]+
Name: (-)-Nuciferine
Name: Nuciferine
Name: (6aR)-1,2-dimethoxy-6-methyl-5,6,6a,7-tetrahydro-4H-dibenzo[de,g]quinoline
Formula: C19H21NO2
Exact mass: 295.1572
SMILES: CN1CCc2cc(c(c-3c2[C@H]1Cc4c3cccc4)OC)OC
InChI: InChI=1S/C19H21NO2/c1-20-9-8-13-11-16(21-2)19(22-3)18-14-7-5-4-6-12(14)10-15(20)17(13)18/h4-7,11,15H,8-10H2,1-3H3/t15-/m1/s1
Instrument: LTQ Orbitrap XL Thermo Scientific
Instrument type: LC-ESI-ITFT
Ms type: MS2
Ion mode: POSITIVE
Ionization: ESI
Fragmentation mode: HCD
Collision energy: 105% (nominal)
Resolution: 15000
Column name: Kinetex Evo C18 2.6 um 50 x 2.1 mm
Retention time: 7.626 min
Base peak: 296.1643
Precursor m/z: 296.1645
Precursor type: [M+H]+
m/z	relative intensity	assigned
128.0621	16	C10H8+
141.07	18	C11H9+
152.0622	33	C12H8+
153.0701	23	C12H9+
164.0622	12	C13H8+
165.07	241	C13H9+
166.0776	11	C13H10+
167.0856	20	C13H11+
176.0625	22	C14H8+
177.07	80	C14H9+
178.0777	999	C14H10+
179.0856	897	C14H11+
180.0568	8	C13H8O+
181.0646	13	C13H9O+
189.0699	663	C15H9+
190.0778	357	C15H10+
191.0855	959	C15H11+
192.0566	8	C14H8O+
192.0933	33	C15H12+
193.0647	69	C14H9O+
193.1011	84	C15H13+
194.0725	10	C14H10O+
195.0803	23	C14H11O+
201.07	38	C16H9+
202.0777	399	C16H10+
203.0855	332	C16H11+
204.0933	31	C16H12+
205.0646	105	C15H9O+
205.1013	26	C16H13+
206.0725	31	C15H10O+
207.0804	301	C15H11O+
215.0854	23	C17H11+
217.0647	86	C16H9O+
218.0725	108	C16H10O+
219.0804	156	C16H11O+
220.0517	12	C15H8O2+
220.0877	20	C16H12O+
221.0595	59	C15H9O2+
221.096	47	C16H13O+
222.1039	5	C16H14O+
231.0802	45	C17H11O+
233.0599	10	C16H9O2+
233.0958	39	C17H13O+
234.0676	13	C16H10O2+
234.1042	9	C17H14O+
235.0753	190	C16H11O2+
249.0909	20	C17H13O2+
250.0985	4	C17H14O2+
