Mass spectrum: alpha-Santonin; LC-ESI-ITFT; MS2; CE: 105%; R=15000; [M+H]+
Name: alpha-Santonin
Name: Santonin
Name: (3S,3aS,5aS,9bS)-3,5a,9-trimethyl-3a,4,5,9b-tetrahydro-3H-benzo[g][1]benzofuran-2,8-dione
Formula: C15H18O3
Exact mass: 246.1256
SMILES: C[C@H]1[C@@H]2CC[C@]3(C=CC(=O)C(=C3[C@H]2OC1=O)C)C
InChI: InChI=1S/C15H18O3/c1-8-10-4-6-15(3)7-5-11(16)9(2)12(15)13(10)18-14(8)17/h5,7-8,10,13H,4,6H2,1-3H3/t8-,10-,13-,15-/m0/s1
Instrument: LTQ Orbitrap XL Thermo Scientific
Instrument type: LC-ESI-ITFT
Ms type: MS2
Ion mode: POSITIVE
Ionization: ESI
Fragmentation mode: HCD
Collision energy: 105% (nominal)
Resolution: 15000
Column name: Kinetex Evo C18 2.6 um 50 x 2.1 mm
Retention time: 8.952 min
Base peak: 116.9858
Precursor m/z: 247.1329
Precursor type: [M+H]+
m/z	relative intensity	assigned
67.0544	9	C5H7+
77.0385	22	C6H5+
79.0542	62	C6H7+
91.0542	265	C7H7+
103.0542	16	C8H7+
105.0698	164	C8H9+
107.0857	20	C8H11+
115.0542	232	C9H7+
116.062	55	C9H8+
117.0699	104	C9H9+
128.062	100	C10H8+
129.0699	392	C10H9+
130.0777	232	C10H10+
131.0492	27	C9H7O+
131.0856	64	C10H11+
135.0805	194	C9H11O+
140.0621	45	C11H8+
141.0697	67	C11H9+
143.0857	48	C11H11+
144.0569	34	C10H8O+
145.0647	79	C10H9O+
145.1012	99	C11H13+
146.0729	43	C10H10O+
153.0699	73	C12H9+
154.0778	34	C12H10+
155.0856	98	C12H11+
157.0648	269	C11H9O+
158.0727	999	C11H10O+
159.0806	139	C11H11O+
171.0804	81	C12H11O+
172.0878	30	C12H12O+
173.0961	154	C12H13O+
