Mass spectrum: alpha-Cyperone; LC-ESI-ITFT; MS2; CE: 110%; R=15000; [M+H]+
Name: alpha-Cyperone
Formula: C15H22O
Exact mass: 218.1671
SMILES: CC1=C2CC(CCC2(CCC1=O)C)C(=C)C
InChI: InChI=1S/C15H22O/c1-10(2)12-5-7-15(4)8-6-14(16)11(3)13(15)9-12/h12H,1,5-9H2,2-4H3
Instrument: LTQ Orbitrap XL Thermo Scientific
Instrument type: LC-ESI-ITFT
Ms type: MS2
Ion mode: POSITIVE
Ionization: ESI
Fragmentation mode: HCD
Collision energy: 110 % (nominal)
Resolution: 15000
Column name: Kinetex Evo C18 2.6 um 50 x 2.1 mm
Retention time: 13.126 min
Base peak: 219.174
Precursor m/z: 219.1743
Precursor type: [M+H]+
m/z	relative intensity	assigned
55.054	29	C4H7+
65.0385	34	C5H5+
67.0541	377	C5H7+
69.0334	28	C4H5O+
69.0697	47	C5H9+
71.0491	11	C4H7O+
77.0385	286	C6H5+
79.0542	435	C6H7+
80.0622	12	C6H8+
81.0698	365	C6H9+
83.0491	28	C5H7O+
83.0855	46	C6H11+
91.0541	649	C7H7+
93.0698	477	C7H9+
95.0491	96	C6H7O+
95.0854	209	C7H11+
96.0569	12	C6H8O+
97.0647	201	C6H9O+
103.0541	45	C8H7+
104.0617	10	C8H8+
105.0697	370	C8H9+
107.0491	50	C7H7O+
107.0854	117	C8H11+
108.0569	33	C7H8O+
109.0646	72	C7H9O+
109.1011	60	C8H13+
110.0724	11	C7H10O+
111.0803	999	C7H11O+
115.0541	42	C9H7+
116.0618	26	C9H8+
117.0698	94	C9H9+
119.0854	151	C9H11+
121.0648	108	C8H9O+
121.1009	16	C9H13+
122.0723	23	C8H10O+
123.0803	370	C8H11O+
128.062	53	C10H8+
129.0697	75	C10H9+
130.0776	46	C10H10+
131.0855	52	C10H11+
133.0646	22	C9H9O+
133.1012	25	C10H13+
135.0804	94	C9H11O+
137.096	112	C9H13O+
143.0855	55	C11H11+
144.0932	9	C11H12+
145.1012	26	C11H13+
147.0802	28	C10H11O+
161.0962	63	C11H13O+
163.1113	15	C11H15O+
189.1272	38	C13H17O+
