Mass spectrum: alpha-Cyperone; LC-ESI-ITFT; MS2; CE: 30%; R=15000; [M+H]+
Name: alpha-Cyperone
Formula: C15H22O
Exact mass: 218.1671
SMILES: CC1=C2CC(CCC2(CCC1=O)C)C(=C)C
InChI: InChI=1S/C15H22O/c1-10(2)12-5-7-15(4)8-6-14(16)11(3)13(15)9-12/h12H,1,5-9H2,2-4H3
Instrument: LTQ Orbitrap XL Thermo Scientific
Instrument type: LC-ESI-ITFT
Ms type: MS2
Ion mode: POSITIVE
Ionization: ESI
Fragmentation mode: CID
Collision energy: 30 % (nominal)
Resolution: 15000
Column name: Kinetex Evo C18 2.6 um 50 x 2.1 mm
Retention time: 13.069 min
Base peak: 219.174
Precursor m/z: 219.1743
Precursor type: [M+H]+
m/z	relative intensity	assigned
67.0541	20	C5H7+
79.0542	15	C6H7+
81.0699	51	C6H9+
91.0542	12	C7H7+
93.0699	45	C7H9+
95.0855	168	C7H11+
97.0648	219	C6H9O+
105.0699	111	C8H9+
107.0855	137	C8H11+
109.0647	26	C7H9O+
109.1012	331	C8H13+
111.0804	330	C7H11O+
119.0855	170	C9H11+
121.0647	23	C8H9O+
121.1011	118	C9H13+
123.0804	156	C8H11O+
123.1168	132	C9H15+
125.0961	36	C8H13O+
131.0855	75	C10H11+
133.1012	61	C10H13+
135.0804	132	C9H11O+
135.1168	88	C10H15+
137.0961	46	C9H13O+
137.1324	9	C10H17+
139.1115	8	C9H15O+
145.1011	396	C11H13+
147.1168	181	C11H15+
149.096	135	C10H13O+
149.1325	35	C11H17+
151.1115	8	C10H15O+
159.1168	415	C12H15+
161.1325	334	C12H17+
163.1117	979	C11H15O+
173.1325	341	C13H17+
175.148	88	C13H19+
176.1195	18	C12H16O+
177.1273	97	C12H17O+
177.1637	53	C13H21+
191.143	39	C13H19O+
191.1794	65	C14H23+
201.1637	999	C15H21+
219.1743	416	C15H23O+
