Mass spectrum: alpha-Cyperone; LC-ESI-ITFT; MS2; CE: 85%; R=15000; [M+H]+
Name: alpha-Cyperone
Formula: C15H22O
Exact mass: 218.1671
SMILES: CC1=C2CC(CCC2(CCC1=O)C)C(=C)C
InChI: InChI=1S/C15H22O/c1-10(2)12-5-7-15(4)8-6-14(16)11(3)13(15)9-12/h12H,1,5-9H2,2-4H3
Instrument: LTQ Orbitrap XL Thermo Scientific
Instrument type: LC-ESI-ITFT
Ms type: MS2
Ion mode: POSITIVE
Ionization: ESI
Fragmentation mode: HCD
Collision energy: 85 % (nominal)
Resolution: 15000
Column name: Kinetex Evo C18 2.6 um 50 x 2.1 mm
Retention time: 13.102 min
Base peak: 219.1742
Precursor m/z: 219.1743
Precursor type: [M+H]+
m/z	relative intensity	assigned
55.0542	17	C4H7+
65.0386	7	C5H5+
67.0542	181	C5H7+
69.0335	8	C4H5O+
69.0698	36	C5H9+
77.0386	51	C6H5+
79.0543	143	C6H7+
81.0699	226	C6H9+
83.0491	10	C5H7O+
83.0856	22	C6H11+
91.0543	173	C7H7+
93.0699	255	C7H9+
95.0492	19	C6H7O+
95.0856	172	C7H11+
97.0648	227	C6H9O+
103.0542	9	C8H7+
105.0699	160	C8H9+
107.0492	7	C7H7O+
107.0856	115	C8H11+
108.0571	7	C7H8O+
109.0648	35	C7H9O+
109.1012	107	C8H13+
111.0804	999	C7H11O+
116.0625	4	C9H8+
117.0699	35	C9H9+
119.0856	138	C9H11+
121.0648	38	C8H9O+
121.1012	43	C9H13+
122.0728	16	C8H10O+
123.0805	321	C8H11O+
124.0883	5	C8H12O+
129.0698	11	C10H9+
130.0777	20	C10H10+
131.0855	39	C10H11+
133.1012	23	C10H13+
135.0805	81	C9H11O+
135.1169	19	C10H15+
136.0884	15	C9H12O+
137.0961	181	C9H13O+
138.104	22	C9H14O+
143.0855	23	C11H11+
144.0935	8	C11H12+
145.1012	69	C11H13+
147.0807	13	C10H11O+
147.1168	17	C11H15+
148.0886	6	C10H12O+
149.0962	23	C10H13O+
149.133	5	C11H17+
150.1039	6	C10H14O+
159.117	13	C12H15+
161.0961	56	C11H13O+
162.1042	8	C11H14O+
163.1118	54	C11H15O+
175.1117	6	C12H15O+
176.1194	7	C12H16O+
189.1275	35	C13H17O+
