Mass spectrum: Pterosin G; LC-ESI-ITFT; MS2; CE: 90%; R=15000; [M+H]+
Name: Pterosin G
Name: (S)-2,3-Dihydro-6-(2-hydroxyethyl)-2-(hydroxymethyl)-5,7-dimethyl-1H-inden-1-one
Name: (2S)-6-(2-hydroxyethyl)-2-(hydroxymethyl)-5,7-dimethyl-2,3-dihydroinden-1-one
Formula: C14H18O3
Exact mass: 234.1256
SMILES: CC1=CC2=C(C(=C1CCO)C)C(=O)[C@@H](C2)CO
InChI: InChI=1S/C14H18O3/c1-8-5-10-6-11(7-16)14(17)13(10)9(2)12(8)3-4-15/h5,11,15-16H,3-4,6-7H2,1-2H3/t11-/m0/s1
Instrument: LTQ Orbitrap XL Thermo Scientific
Instrument type: LC-ESI-ITFT
Ms type: MS2
Ion mode: POSITIVE
Ionization: ESI
Fragmentation mode: HCD
Collision energy: 90 % (nominal)
Resolution: 15000
Column name: Kinetex Evo C18 2.6 um 50 x 2.1 mm
Retention time: 8.432 min
Base peak: 235.1318
Precursor m/z: 235.1329
Precursor type: [M+H]+
m/z	relative intensity	assigned
91.0539	81	C7H7+
105.0696	118	C8H9+
119.0854	48	C9H11+
128.0617	305	C10H8+
129.0695	186	C10H9+
130.0773	70	C10H10+
141.0695	939	C11H9+
142.0775	120	C11H10+
143.0852	387	C11H11+
144.093	71	C11H12+
145.1009	47	C11H13+
154.0771	41	C12H10+
155.0854	197	C12H11+
156.093	999	C12H12+
169.1011	34	C13H13+
171.1167	51	C13H15+
