Mass spectrum: Coniferaldehyde; LC-ESI-ITFT; MS2; CE: 70%; R=15000; [M+H]+
Name: Coniferaldehyde
Formula: C10H10O3
Exact mass: 178.0630
SMILES: COC1=CC(\C=C\C=O)=CC=C1O
InChI: InChI=1S/C10H10O3/c1-13-10-7-8(3-2-6-11)4-5-9(10)12/h2-7,12H,1H3/b3-2+
Instrument: LTQ Orbitrap XL Thermo Scientific
Instrument type: LC-ESI-ITFT
Ms type: MS2
Ion mode: POSITIVE
Ionization: ESI
Fragmentation mode: HCD
Collision energy: 70 % (nominal)
Resolution: 15000
Column name: Kinetex Evo C18 2.6 um 50 x 2.1 mm
Retention time: 7.512 min
Base peak: 179.0702
Precursor m/z: 179.0703
Precursor type: [M+H]+
m/z	relative intensity	assigned
65.0386	15	C5H5+
77.0385	18	C6H5+
79.0542	57	C6H7+
80.062	25	C6H8+
90.0465	26	C7H6+
91.0542	999	C7H7+
94.0412	23	C6H6O+
95.0493	21	C6H7O+
103.0543	79	C8H7+
105.0699	151	C8H9+
107.0492	60	C7H7O+
108.0569	32	C7H8O+
115.0542	52	C9H7+
118.0414	141	C8H6O+
119.0492	754	C8H7O+
122.0362	15	C7H6O2+
123.0439	19	C7H7O2+
131.0494	15	C9H7O+
133.0648	179	C9H9O+
135.0441	60	C8H7O2+
136.052	310	C8H8O2+
137.0601	16	C8H9O2+
146.0363	272	C9H6O2+
147.0441	367	C9H7O2+
161.0599	131	C10H9O2+
163.0394	12	C9H7O3+
164.0467	33	C9H8O3+
