Mass spectrum: Piperine; LC-ESI-ITFT; MS2; CE: 130%; R=15000; [M+H]+
Name: Piperine
Name: (2E,4E)-5-(1,3-benzodioxol-5-yl)-1-piperidin-1-ylpenta-2,4-dien-1-one
Formula: C17H19NO3
Exact mass: 285.1365
SMILES: O=C(\C=C\C=C\C1=CC2=C(OCO2)C=C1)N1CCCCC1
InChI: InChI=1S/C17H19NO3/c19-17(18-10-4-1-5-11-18)7-3-2-6-14-8-9-15-16(12-14)21-13-20-15/h2-3,6-9,12H,1,4-5,10-11,13H2/b6-2+,7-3+
Instrument: LTQ Orbitrap XL Thermo Scientific
Instrument type: LC-ESI-ITFT
Ms type: MS2
Ion mode: POSITIVE
Ionization: ESI
Fragmentation mode: HCD
Collision energy: 130 % (nominal)
Resolution: 15000
Column name: Kinetex Evo C18 2.6 um 50 x 2.1 mm
Retention time: 11.797 min
Base peak: 286.1441
Precursor m/z: 286.1438
Precursor type: [M+H]+
m/z	relative intensity	assigned
63.0226	4	C5H3+
67.0539	1	C5H7+
75.0228	2	C6H3+
77.0383	65	C6H5+
79.054	13	C6H7+
80.0492	7	C5H6N+
81.0571	3	C5H7N+
84.0806	3	C5H10N+
87.023	1	C7H3+
89.0384	91	C7H5+
91.0541	14	C7H7+
94.0652	2	C6H8N+
95.0491	10	C6H7O+
101.0384	2	C8H5+
103.0541	25	C8H7+
105.0334	22	C7H5O+
105.0446	47	C6H5N2+
114.0465	4	C9H6+
115.0541	999	C9H7+
116.0618	2	C9H8+
122.0963	3	C8H12N+
127.0541	3	C10H7+
129.0442	3	C8H5N2+
135.0438	34	C8H7O2+
143.0489	24	C10H7O+
155.0604	4	C10H7N2+
159.0443	1	C10H7O2+
171.044	3	C11H7O2+
