Mass spectrum: Primin; LC-ESI-ITFT; MS2; CE: 40%; R=15000; [M+H]+
Name: Primin
Formula: C12H16O3
Exact mass: 208.1099
SMILES: CCCCCC1=CC(=O)C=C(C1=O)OC
InChI: InChI=1S/C12H16O3/c1-3-4-5-6-9-7-10(13)8-11(15-2)12(9)14/h7-8H,3-6H2,1-2H3
Instrument: LTQ Orbitrap XL Thermo Scientific
Instrument type: LC-ESI-ITFT
Ms type: MS2
Ion mode: POSITIVE
Ionization: ESI
Fragmentation mode: HCD
Collision energy: 40% (nominal)
Resolution: 15000
Column name: Kinetex Evo C18 2.6 um 50 x 2.1 mm
Retention time: 11.164 min
Base peak: 116.9858
Precursor m/z: 209.1172
Precursor type: [M+H]+
m/z	relative intensity	assigned
107.0491	80	C7H7O+
125.0598	198	C7H9O2+
153.0546	999	C8H9O3+
177.0909	40	C11H13O2+
