Mass spectrum: Jacobine N-oxide; LC-ESI-ITFT; MS2; CE: 85%; R=15000; [M+H]+
Name: Jacobine N-oxide
Name: (1R,3`S,4S,6R,7R,17R)-7-hydroxy-3`,6,7-trimethyl-14-oxidospiro[2,9-dioxa-14-azoniatricyclo[9.5.1.014,17]heptadec-11-ene-4,2`-oxirane]-3,8-dione
Formula: C18H25NO7
Exact mass: 367.1631
SMILES: C[C@@H]1C[C@]2([C@@H](O2)C)C(=O)O[C@@H]3CC[N+]4([C@@H]3C(=CC4)COC(=O)[C@]1(C)O)[O-]
InChI: InChI=1S/C18H25NO7/c1-10-8-18(11(2)26-18)16(21)25-13-5-7-19(23)6-4-12(14(13)19)9-24-15(20)17(10,3)22/h4,10-11,13-14,22H,5-9H2,1-3H3/t10-,11+,13-,14-,17-,18+,19?/m1/s1
Instrument: LTQ Orbitrap XL Thermo Scientific
Instrument type: LC-ESI-ITFT
Ms type: MS2
Ion mode: POSITIVE
Ionization: ESI
Fragmentation mode: HCD
Collision energy: 85% (nominal)
Resolution: 15000
Column name: Kinetex Evo C18 2.6 um 50 x 2.1 mm
Retention time: 1.286 min
Base peak: 143.0016
Precursor m/z: 368.1704
Precursor type: [M+H]+
m/z	relative intensity	assigned
65.0385	11	C5H5+
66.0462	8	C5H6+
67.0542	43	C5H7+
68.0495	20	C4H6N+
69.0699	18	C5H9+
77.0386	104	C6H5+
79.0543	82	C6H7+
80.0495	148	C5H6N+
81.0338	8	C5H5O+
81.0573	22	C5H7N+
81.0699	29	C6H9+
82.0651	17	C5H8N+
83.049	9	C5H7O+
84.0447	10	C4H6NO+
86.06	10	C4H8NO+
91.0543	177	C7H7+
92.0495	29	C6H6N+
93.0574	271	C6H7N+
93.07	53	C7H9+
94.0652	431	C6H8N+
95.0493	34	C6H7O+
95.073	90	C6H9N+
95.0857	16	C7H11+
96.0808	29	C6H10N+
97.0648	14	C6H9O+
98.0602	7	C5H8NO+
103.0542	15	C8H7+
105.0699	14	C8H9+
106.0652	175	C7H8N+
107.073	16	C7H9N+
108.0809	69	C7H10N+
110.0602	23	C6H8NO+
113.0597	42	C6H9O2+
117.0575	18	C8H7N+
118.0652	266	C8H8N+
119.073	142	C8H9N+
120.0809	999	C8H10N+
121.0887	55	C8H11N+
122.0965	73	C8H12N+
124.0759	35	C7H10NO+
134.0601	12	C8H8NO+
134.0971	12	C9H12N+
136.0759	69	C8H10NO+
138.0914	31	C8H12NO+
148.0757	14	C9H10NO+
156.1019	19	C8H14NO2+
162.0917	45	C10H12NO+
