Mass spectrum: Gramine; LC-ESI-ITFT; MS2; CE: 100%; R=15000; [M+H]+
Name: Gramine
Formula: C11H14N2
Exact mass: 174.1157
SMILES: CN(C)Cc1c[nH]c2c1cccc2
InChI: InChI=1S/C11H14N2/c1-13(2)8-9-7-12-11-6-4-3-5-10(9)11/h3-7,12H,8H2,1-2H3
Instrument: LTQ Orbitrap XL Thermo Scientific
Instrument type: LC-ESI-ITFT
Ms type: MS2
Ion mode: POSITIVE
Ionization: ESI
Fragmentation mode: HCD
Collision energy: 100 % (nominal)
Resolution: 15000
Column name: Kinetex Evo C18 2.6 um 50 x 2.1 mm
Retention time: 0.791 min
Base peak: 130.0649
Precursor m/z: 175.123
Precursor type: [M+H]+
m/z	relative intensity	assigned
77.0387	46	C6H5+
103.0543	195	C8H7+
105.0447	12	C6H5N2+
128.0497	23	C9H6N+
130.0652	999	C9H8N+
