Mass spectrum: Lycorine; LC-ESI-ITFT; MS2; CE: 70%; R=15000; [M+H]+
Name: Lycorine
Name: (1S,17S,18S,19S)-5,7-dioxa-12-azapentacyclo[10.6.1.02,10.04,8.015,19]nonadeca-2,4(8),9,15-tetraene-17,18-diol
Formula: C16H17NO4
Exact mass: 287.1158
SMILES: C1CN2CC3=CC4=C(C=C3[C@H]5[C@H]2C1=C[C@@H]([C@H]5O)O)OCO4
InChI: InChI=1S/C16H17NO4/c18-11-3-8-1-2-17-6-9-4-12-13(21-7-20-12)5-10(9)14(15(8)17)16(11)19/h3-5,11,14-16,18-19H,1-2,6-7H2/t11-,14-,15+,16+/m0/s1
Instrument: LTQ Orbitrap XL Thermo Scientific
Instrument type: LC-ESI-ITFT
Ms type: MS2
Ion mode: POSITIVE
Ionization: ESI
Fragmentation mode: HCD
Collision energy: 70% (nominal)
Resolution: 15000
Column name: Kinetex Evo C18 2.6 um 50 x 2.1 mm
Retention time: 0.623 min
Base peak: 288.1227
Precursor m/z: 288.123
Precursor type: [M+H]+
m/z	relative intensity	assigned
67.0543	7	C5H7+
82.0651	27	C5H8N+
83.0491	37	C5H7O+
91.0541	23	C7H7+
94.0649	3	C6H8N+
95.0491	85	C6H7O+
106.0651	24	C7H8N+
107.049	4	C7H7O+
110.0598	4	C6H8NO+
111.0678	50	C6H9NO+
112.0756	57	C6H10NO+
119.0491	764	C8H7O+
122.0601	8	C7H8NO+
124.0756	39	C7H10NO+
132.0444	7	C8H6NO+
134.0599	32	C8H8NO+
135.044	29	C8H7O2+
136.0519	11	C8H8O2+
147.044	999	C9H7O2+
149.0595	38	C9H9O2+
159.0439	5	C10H7O2+
165.0697	3	C13H9+
167.0852	5	C13H11+
169.0893	4	C12H11N+
173.0594	7	C11H9O2+
175.0387	6	C10H7O3+
177.0546	78	C10H9O3+
183.0801	5	C13H11O+
184.1118	8	C13H14N+
188.071	7	C11H10NO2+
193.0884	3	C14H11N+
194.0964	44	C14H12N+
197.0837	9	C13H11NO+
198.0915	3	C13H12NO+
199.075	9	C13H11O2+
210.0919	4	C14H12NO+
212.1069	29	C14H14NO+
213.0907	4	C14H13O2+
222.0914	40	C15H12NO+
224.1066	3	C15H14NO+
225.0785	14	C14H11NO2+
227.0936	6	C14H13NO2+
228.1025	4	C14H14NO2+
237.0789	3	C15H11NO2+
240.1016	22	C15H14NO2+
242.1173	15	C15H16NO2+
250.0866	9	C16H12NO2+
252.1015	14	C16H14NO2+
270.112	37	C16H16NO3+
288.1233	18	C16H18NO4+
