Mass spectrum: (+)-Isocorydin; LC-ESI-ITFT; MS2; CE: 100%; R=15000; [M+H]+
Name: (+)-Isocorydin
Name: Isocorydine
Name: (6aS)-1,2,10-trimethoxy-6-methyl-5,6,6a,7-tetrahydro-4H-dibenzo[de,g]quinolin-11-ol
Formula: C20H23NO4
Exact mass: 341.1627
SMILES: CN1CCC2=CC(=C(C3=C2[C@@H]1CC4=C3C(=C(C=C4)OC)O)OC)OC
InChI: InChI=1S/C20H23NO4/c1-21-8-7-12-10-15(24-3)20(25-4)18-16(12)13(21)9-11-5-6-14(23-2)19(22)17(11)18/h5-6,10,13,22H,7-9H2,1-4H3/t13-/m0/s1
Instrument: LTQ Orbitrap XL Thermo Scientific
Instrument type: LC-ESI-ITFT
Ms type: MS2
Ion mode: POSITIVE
Ionization: ESI
Fragmentation mode: HCD
Collision energy: 100% (nominal)
Resolution: 15000
Column name: Kinetex Evo C18 2.6 um 50 x 2.1 mm
Retention time: 6.279 min
Base peak: 342.1699
Precursor m/z: 342.17
Precursor type: [M+H]+
m/z	relative intensity	assigned
139.0541	12	C11H7+
141.07	21	C11H9+
151.0541	14	C12H7+
152.0621	120	C12H8+
153.0699	117	C12H9+
154.0777	53	C12H10+
163.0541	6	C13H7+
164.0622	36	C13H8+
165.0699	999	C13H9+
166.0776	185	C13H10+
167.0489	16	C12H7O+
167.0855	54	C13H11+
168.0571	23	C12H8O+
169.0649	20	C12H9O+
176.0621	97	C14H8+
177.0699	213	C14H9+
178.0777	851	C14H10+
179.0855	606	C14H11+
180.0571	12	C13H8O+
180.0933	59	C14H12+
181.0649	179	C13H9O+
182.0726	154	C13H10O+
183.0799	20	C13H11O+
189.0699	694	C15H9+
190.0778	500	C15H10+
191.0855	570	C15H11+
192.0569	136	C14H8O+
192.0941	19	C15H12+
193.0647	584	C14H9O+
194.0726	431	C14H10O+
195.0446	7	C13H7O2+
195.0806	71	C14H11O+
196.0515	13	C13H8O2+
196.0887	10	C14H12O+
197.0592	11	C13H9O2+
197.0963	33	C14H13O+
200.0624	16	C16H8+
201.0697	47	C16H9+
202.0776	181	C16H10+
203.0859	51	C16H11+
204.0571	31	C15H8O+
205.0647	408	C15H9O+
206.0727	336	C15H10O+
207.0804	639	C15H11O+
208.0513	9	C14H8O2+
208.0887	100	C15H12O+
209.0595	83	C14H9O2+
209.0961	147	C15H13O+
210.0675	254	C14H10O2+
217.0648	91	C16H9O+
218.0725	173	C16H10O+
219.0804	343	C16H11O+
220.0518	87	C15H8O2+
221.0596	390	C15H9O2+
221.0966	22	C16H13O+
222.0675	336	C15H10O2+
223.0761	38	C15H11O2+
224.0835	14	C15H12O2+
225.091	63	C15H13O2+
226.0625	16	C14H10O3+
229.0639	14	C17H9O+
231.0804	146	C17H11O+
233.0596	91	C16H9O2+
234.0676	55	C16H10O2+
235.0753	313	C16H11O2+
236.0833	244	C16H12O2+
237.0543	73	C15H9O3+
237.091	288	C16H13O2+
238.0622	709	C15H10O3+
245.0598	17	C17H9O2+
246.0679	20	C17H10O2+
247.0753	575	C17H11O2+
249.0544	25	C16H9O3+
250.0624	33	C16H10O3+
252.0778	10	C16H12O3+
253.0858	154	C16H13O3+
263.0701	68	C17H11O3+
264.0782	21	C17H12O3+
265.0857	70	C17H13O3+
