Mass spectrum: Aconitin; LC-ESI-ITFT; MS2; CE: 75%; R=15000; [M+H]+
Name: Aconitin
Name: Aconitine
Name: [(1S,2R,3R,4R,5R,6S,7S,8R,9R,13R,14R,16S,17S,18R)-8-acetyloxy-11-ethyl-5,7,14-trihydroxy-6,16,18-trimethoxy-13-(methoxymethyl)-11-azahexacyclo[7.7.2.12,5.01,10.03,8.013,17]nonadecan-4-yl] benzoate
Formula: C34H47NO11
Exact mass: 645.3149
SMILES: CCN1C[C@@]2([C@@H](C[C@@H]([C@@]34[C@@H]2[C@H]([C@@H](C31)[C@@]5([C@@H]6[C@H]4C[C@@]([C@@H]6OC(=O)C7=CC=CC=C7)([C@H]([C@@H]5O)OC)O)OC(=O)C)OC)OC)O)COC
InChI: InChI=1S/C34H47NO11/c1-7-35-15-31(16-41-3)20(37)13-21(42-4)33-19-14-32(40)28(45-30(39)18-11-9-8-10-12-18)22(19)34(46-17(2)36,27(38)29(32)44-6)23(26(33)35)24(43-5)25(31)33/h8-12,19-29,37-38,40H,7,13-16H2,1-6H3/t19-,20-,21+,22-,23+,24+,25-,26?,27+,28-,29+,31+,32-,33+,34-/m1/s1
Instrument: LTQ Orbitrap XL Thermo Scientific
Instrument type: LC-ESI-ITFT
Ms type: MS2
Ion mode: POSITIVE
Ionization: ESI
Fragmentation mode: HCD
Collision energy: 75% (nominal)
Resolution: 15000
Column name: Kinetex Evo C18 2.6 um 50 x 2.1 mm
Retention time: 9.736 min
Base peak: 116.9859
Precursor m/z: 646.3222
Precursor type: [M+H]+
m/z	relative intensity	assigned
67.0544	5	C5H7+
75.0441	15	C3H7O2+
77.0386	54	C6H5+
79.0543	17	C6H7+
82.0653	5	C5H8N+
84.0807	5	C5H10N+
85.0283	12	C4H5O2+
91.0543	37	C7H7+
93.07	6	C7H9+
95.0488	7	C6H7O+
96.0807	11	C6H10N+
102.0916	4	C5H12NO+
105.0335	999	C7H5O+
107.0491	10	C7H7O+
108.0808	23	C7H10N+
109.0649	17	C7H9O+
110.0966	13	C7H12N+
111.0806	21	C7H11O+
112.0758	8	C6H10NO+
113.0836	4	C6H11NO+
115.0542	13	C9H7+
117.0699	42	C9H9+
119.0489	8	C8H7O+
119.0859	5	C9H11+
121.0647	10	C8H9O+
121.0885	7	C8H11N+
122.0965	25	C8H12N+
123.0442	9	C7H7O2+
124.076	10	C7H10NO+
128.0619	16	C10H8+
129.0699	39	C10H9+
131.0491	6	C9H7O+
131.0855	27	C10H11+
132.081	9	C9H10N+
133.0283	10	C8H5O2+
133.0651	6	C9H9O+
134.0966	24	C9H12N+
135.044	4	C8H7O2+
135.081	8	C9H11O+
137.0596	7	C8H9O2+
138.0915	6	C8H12NO+
140.1074	4	C8H14NO+
141.0701	19	C11H9+
143.0856	13	C11H11+
145.065	7	C10H9O+
145.0893	6	C10H11N+
146.0362	12	C9H6O2+
146.06	7	C9H8NO+
146.0963	16	C10H12N+
147.0441	15	C9H7O2+
147.0805	11	C10H11O+
147.1041	13	C10H13N+
148.1124	10	C10H14N+
149.0596	5	C9H9O2+
152.1069	51	C9H14NO+
153.0702	15	C12H9+
154.0778	7	C12H10+
155.086	15	C12H11+
157.0647	7	C11H9O+
158.073	5	C11H10O+
158.0966	17	C11H12N+
159.0807	12	C11H11O+
160.0755	9	C10H10NO+
160.1124	26	C11H14N+
161.0598	5	C10H9O2+
161.0965	5	C11H13O+
162.0914	22	C10H12NO+
164.1073	4	C10H14NO+
165.0699	22	C13H9+
166.0777	14	C13H10+
167.0857	16	C13H11+
169.0648	7	C12H9O+
171.0806	15	C12H11O+
171.1044	8	C12H13N+
172.1123	18	C12H14N+
173.0961	5	C12H13O+
173.1206	6	C12H15N+
174.0912	22	C11H12NO+
174.1286	8	C12H16N+
177.0548	5	C10H9O3+
178.0778	19	C14H10+
178.1228	25	C11H16NO+
179.0856	30	C14H11+
181.0646	11	C13H9O+
181.1016	8	C14H13+
183.0808	9	C13H11O+
184.1119	14	C13H14N+
186.1282	10	C13H16N+
188.0704	18	C11H10NO2+
188.1071	7	C12H14NO+
189.0787	5	C11H11NO2+
190.0779	16	C15H10+
190.0863	4	C11H12NO2+
190.1226	21	C12H16NO+
191.0854	21	C15H11+
192.0933	10	C15H12+
193.1012	15	C15H13+
194.0728	6	C14H10O+
195.0807	14	C14H11O+
196.1125	10	C14H14N+
197.0958	8	C14H13O+
202.0774	17	C16H10+
202.1228	40	C13H16NO+
203.0859	15	C16H11+
204.0936	7	C16H12+
205.1014	23	C16H13+
207.0807	14	C15H11O+
208.0893	6	C15H12O+
209.0959	13	C15H13O+
210.1282	6	C15H16N+
215.085	11	C2H17NO10+
216.1387	8	C14H18NO+
217.1021	7	C17H13+
218.0728	9	C16H10O+
218.154	15	C14H20NO+
219.0806	14	C16H11O+
220.0879	6	C16H12O+
221.0963	10	C16H13O+
223.0755	4	C15H11O2+
223.1113	5	C16H15O+
232.088	5	C2H18NO11+
233.096	11	C17H13O+
234.1276	5	C17H16N+
235.076	8	C16H11O2+
237.0901	4	C16H13O2+
238.123	4	C16H16NO+
239.1056	5	C16H15O2+
250.123	6	C17H16NO+
251.1079	6	C17H15O2+
252.1384	8	C17H18NO+
261.0918	5	C18H13O2+
264.1385	6	C18H18NO+
266.1544	6	C18H20NO+
280.1325	5	C18H18NO2+
280.1686	4	C19H22NO+
282.1488	5	C18H20NO2+
308.164	6	C20H22NO2+
522.1531	7	C28H26O10+
