Mass spectrum: alpha-Cyperone; LC-ESI-ITFT; MS2; CE: 85%; R=15000; [M+H]+
Name: alpha-Cyperone
Formula: C15H22O
Exact mass: 218.1671
SMILES: CC1=C2CC(CCC2(CCC1=O)C)C(=C)C
InChI: InChI=1S/C15H22O/c1-10(2)12-5-7-15(4)8-6-14(16)11(3)13(15)9-12/h12H,1,5-9H2,2-4H3
Instrument: LTQ Orbitrap XL Thermo Scientific
Instrument type: LC-ESI-ITFT
Ms type: MS2
Ion mode: POSITIVE
Ionization: ESI
Fragmentation mode: CID
Collision energy: 85 % (nominal)
Resolution: 15000
Column name: Kinetex Evo C18 2.6 um 50 x 2.1 mm
Retention time: 13.126 min
Base peak: 219.174
Precursor m/z: 219.1743
Precursor type: [M+H]+
m/z	relative intensity	assigned
67.0542	23	C5H7+
69.0698	4	C5H9+
77.0386	4	C6H5+
79.0543	20	C6H7+
81.0699	57	C6H9+
83.0491	2	C5H7O+
91.0543	17	C7H7+
93.0699	53	C7H9+
95.0856	162	C7H11+
97.0649	236	C6H9O+
105.0699	124	C8H9+
107.0856	147	C8H11+
109.0649	25	C7H9O+
109.1013	336	C8H13+
111.0805	338	C7H11O+
117.0699	11	C9H9+
119.0856	173	C9H11+
121.0648	26	C8H9O+
121.1013	141	C9H13+
123.0805	160	C8H11O+
123.1169	118	C9H15+
125.0962	34	C8H13O+
131.0856	87	C10H11+
133.1013	68	C10H13+
135.0806	137	C9H11O+
135.1169	107	C10H15+
137.0962	53	C9H13O+
137.1327	5	C10H17+
139.112	8	C9H15O+
145.1013	411	C11H13+
147.1169	198	C11H15+
149.0962	124	C10H13O+
149.1326	38	C11H17+
151.112	8	C10H15O+
159.117	429	C12H15+
161.1327	316	C12H17+
162.104	5	C11H14O+
163.1119	999	C11H15O+
173.1326	353	C13H17+
175.1482	97	C13H19+
176.1197	19	C12H16O+
177.1275	91	C12H17O+
177.1639	49	C13H21+
191.1433	31	C13H19O+
191.1796	52	C14H23+
201.1638	842	C15H21+
204.1511	9	C14H20O+
