Mass spectrum: Senecionine N-oxide; LC-ESI-ITFT; MS2; CE: 55%; R=15000; [M+H]+
Name: Senecionine N-oxide
Name: (1R,4Z,6R,7R,17R)-4-ethylidene-7-hydroxy-6,7-dimethyl-14-oxido-2,9-dioxa-14-azoniatricyclo[9.5.1.014,17]heptadec-11-ene-3,8-dione
Formula: C18H25NO6
Exact mass: 351.1682
SMILES: C/C=C\1/C[C@H]([C@@](C(=O)OCC2=CC[N+]3([C@H]2[C@@H](CC3)OC1=O)[O-])(C)O)C
InChI: InChI=1S/C18H25NO6/c1-4-12-9-11(2)18(3,22)17(21)24-10-13-5-7-19(23)8-6-14(15(13)19)25-16(12)20/h4-5,11,14-15,22H,6-10H2,1-3H3/b12-4-/t11-,14-,15-,18-,19?/m1/s1
Instrument: LTQ Orbitrap XL Thermo Scientific
Instrument type: LC-ESI-ITFT
Ms type: MS2
Ion mode: POSITIVE
Ionization: ESI
Fragmentation mode: HCD
Collision energy: 55% (nominal)
Resolution: 15000
Column name: Kinetex Evo C18 2.6 um 50 x 2.1 mm
Retention time: 5.458 min
Base peak: 352.1754
Precursor m/z: 352.1755
Precursor type: [M+H]+
m/z	relative intensity	assigned
53.0383	21	C4H5+
67.0542	28	C5H7+
79.0541	36	C6H7+
80.0495	66	C5H6N+
81.0334	11	C5H5O+
81.0699	208	C6H9+
83.0491	27	C5H7O+
84.0441	20	C4H6NO+
91.0542	47	C7H7+
93.0573	346	C6H7N+
94.0651	414	C6H8N+
95.0729	440	C6H9N+
98.06	34	C5H8NO+
106.0651	146	C7H8N+
107.049	15	C7H7O+
107.0855	67	C8H11+
108.0808	184	C7H10N+
109.0648	78	C7H9O+
109.0886	57	C7H11N+
109.1012	24	C8H13+
110.0601	19	C6H8NO+
112.0757	85	C6H10NO+
118.0651	883	C8H8N+
119.073	688	C8H9N+
120.0807	784	C8H10N+
121.0886	278	C8H11N+
122.0964	165	C8H12N+
124.076	18	C7H10NO+
124.0884	12	C8H12O+
125.0961	93	C8H13O+
135.0806	22	C9H11O+
136.0757	999	C8H10NO+
137.0835	148	C8H11NO+
138.0913	541	C8H12NO+
139.0754	42	C8H11O2+
139.0995	14	C8H13NO+
148.1119	21	C10H14N+
152.107	48	C9H14NO+
153.0909	146	C9H13O2+
154.0863	281	C8H12NO2+
178.1226	79	C11H16NO+
190.1225	20	C12H16NO+
192.138	14	C12H18NO+
202.1222	24	C13H16NO+
211.133	37	C12H19O3+
218.1174	54	C13H16NO2+
218.1541	39	C14H20NO+
220.1333	345	C13H18NO2+
246.1488	86	C15H20NO2+
248.1647	45	C15H22NO2+
254.1387	38	C13H20NO4+
290.1758	29	C17H24NO3+
324.1808	126	C17H26NO5+
352.1755	874	C18H26NO6+
