Mass spectrum: Conessine; LC-ESI-ITFT; MS2; CE: 95%; R=15000; [M+H]+
Name: Conessine
Formula: C24H40N2
Exact mass: 356.3191
SMILES: C[C@H]1[C@H]2CC[C@H]3[C@@H]4CC=C5C[C@H](CC[C@]5(C)[C@H]4CC[C@]23CN1C)N(C)C
InChI: InChI=1S/C24H40N2/c1-16-20-8-9-22-19-7-6-17-14-18(25(3)4)10-12-23(17,2)21(19)11-13-24(20,22)15-26(16)5/h6,16,18-22H,7-15H2,1-5H3/t16-,18-,19+,20+,21-,22-,23-,24-/m0/s1
Instrument: LTQ Orbitrap XL Thermo Scientific
Instrument type: LC-ESI-ITFT
Ms type: MS2
Ion mode: POSITIVE
Ionization: ESI
Fragmentation mode: HCD
Collision energy: 95 % (nominal)
Resolution: 15000
Column name: Kinetex Evo C18 2.6 um 50 x 2.1 mm
Retention time: 5.420 min
Base peak: 179.1667
Precursor m/z: 357.3264
Precursor type: [M+H]+
m/z	relative intensity	assigned
55.054	8	C4H7+
58.0651	18	C3H8N+
67.0542	160	C5H7+
69.0697	20	C5H9+
70.0652	13	C4H8N+
72.0808	32	C4H10N+
77.0386	35	C6H5+
79.0542	205	C6H7+
81.0699	256	C6H9+
84.0807	999	C5H10N+
91.0542	312	C7H7+
93.0699	267	C7H9+
95.0855	125	C7H11+
98.0963	12	C6H12N+
103.0544	8	C8H7+
105.0698	400	C8H9+
107.0855	109	C8H11+
109.1011	102	C8H13+
115.0542	14	C9H7+
117.0698	151	C9H9+
119.0855	199	C9H11+
121.1011	32	C9H13+
128.0619	15	C10H8+
129.0698	71	C10H9+
130.0777	30	C10H10+
131.0854	175	C10H11+
133.1011	81	C10H13+
135.1167	17	C10H15+
142.0777	29	C11H10+
143.0855	61	C11H11+
144.0932	58	C11H12+
145.1011	122	C11H13+
147.1168	95	C11H15+
155.0856	12	C12H11+
157.101	46	C12H13+
159.1169	105	C12H15+
161.1327	32	C12H17+
169.1008	10	C13H13+
171.1168	29	C13H15+
173.1322	28	C13H17+
183.1162	8	C14H15+
185.1325	16	C14H17+
187.148	21	C14H19+
