Mass spectrum: Coniferaldehyde; LC-ESI-ITFT; MS2; CE: 55%; R=15000; [M+H]+
Name: Coniferaldehyde
Formula: C10H10O3
Exact mass: 178.0630
SMILES: COC1=CC(\C=C\C=O)=CC=C1O
InChI: InChI=1S/C10H10O3/c1-13-10-7-8(3-2-6-11)4-5-9(10)12/h2-7,12H,1H3/b3-2+
Instrument: LTQ Orbitrap XL Thermo Scientific
Instrument type: LC-ESI-ITFT
Ms type: MS2
Ion mode: POSITIVE
Ionization: ESI
Fragmentation mode: HCD
Collision energy: 55 % (nominal)
Resolution: 15000
Column name: Kinetex Evo C18 2.6 um 50 x 2.1 mm
Retention time: 7.534 min
Base peak: 179.0703
Precursor m/z: 179.0703
Precursor type: [M+H]+
m/z	relative intensity	assigned
79.0543	30	C6H7+
91.0543	510	C7H7+
95.0492	27	C6H7O+
103.0545	48	C8H7+
105.07	242	C8H9+
108.0569	14	C7H8O+
115.0544	54	C9H7+
118.0413	54	C8H6O+
119.0493	838	C8H7O+
123.0443	39	C7H7O2+
133.0649	353	C9H9O+
135.0442	15	C8H7O2+
136.0521	162	C8H8O2+
137.06	34	C8H9O2+
146.0365	163	C9H6O2+
147.0442	999	C9H7O2+
161.06	460	C10H9O2+
164.0472	38	C9H8O3+
179.0705	90	C10H11O3+
