Mass spectrum: Daidzein; LC-ESI-ITFT; MS2; CE: 95%; R=15000; [M+H]+
Name: Daidzein
Name: 7-hydroxy-3-(4-hydroxyphenyl)chromen-4-one
Formula: C15H10O4
Exact mass: 254.0579
SMILES: c1cc(ccc1c2coc3cc(ccc3c2=O)O)O
InChI: InChI=1S/C15H10O4/c16-10-3-1-9(2-4-10)13-8-19-14-7-11(17)5-6-12(14)15(13)18/h1-8,16-17H
Instrument: LTQ Orbitrap XL Thermo Scientific
Instrument type: LC-ESI-ITFT
Ms type: MS2
Ion mode: POSITIVE
Ionization: ESI
Fragmentation mode: HCD
Collision energy: 95% (nominal)
Resolution: 15000
Column name: Kinetex Evo C18 2.6 um 50 x 2.1 mm
Retention time: 9.213 min
Base peak: 116.9859
Precursor m/z: 255.0652
Precursor type: [M+H]+
m/z	relative intensity	assigned
65.0385	132	C5H5+
77.0388	24	C6H5+
81.0334	142	C5H5O+
91.0542	999	C7H7+
105.0336	52	C7H5O+
106.0414	79	C7H6O+
115.0543	50	C9H7+
119.0491	144	C8H7O+
121.0285	36	C7H5O2+
128.062	274	C10H8+
129.0697	54	C10H9+
131.0491	67	C9H7O+
134.0359	42	C8H6O2+
137.0233	512	C7H5O3+
141.0698	36	C11H9+
143.0853	46	C11H11+
145.028	42	C9H5O2+
152.062	554	C12H8+
153.0698	351	C12H9+
157.0646	55	C11H9O+
169.0649	63	C12H9O+
171.0802	39	C12H11O+
181.0646	460	C13H9O+
182.0732	56	C13H10O+
184.0523	93	C12H8O2+
197.0596	103	C13H9O2+
198.0676	57	C13H10O2+
199.0749	144	C13H11O2+
227.07	28	C14H11O3+
237.0554	42	C15H9O3+
