Mass spectrum: 5,7-Dihydroxy-4-phenylcoumarin; LC-ESI-ITFT; MS2; CE: 50%; R=15000; [M+H]+
Name: 5,7-Dihydroxy-4-phenylcoumarin
Name: 5,7-dihydroxy-4-phenylchromen-2-one
Formula: C15H10O4
Exact mass: 254.0579
SMILES: OC1=CC(O)=C2C(OC(=O)C=C2C2=CC=CC=C2)=C1
InChI: InChI=1S/C15H10O4/c16-10-6-12(17)15-11(9-4-2-1-3-5-9)8-14(18)19-13(15)7-10/h1-8,16-17H
Instrument: LTQ Orbitrap XL Thermo Scientific
Instrument type: LC-ESI-ITFT
Ms type: MS2
Ion mode: POSITIVE
Ionization: ESI
Fragmentation mode: HCD
Collision energy: 50% (nominal)
Resolution: 15000
Column name: Kinetex Evo C18 2.6 um 50 x 2.1 mm
Retention time: 9.817 min
Base peak: 116.9858
Precursor m/z: 255.0652
Precursor type: [M+H]+
m/z	relative intensity	assigned
68.997	11	C3HO2+
105.0335	40	C7H5O+
111.0077	15	C5H3O3+
129.07	4	C10H9+
131.0856	8	C10H11+
141.0699	24	C11H9+
145.0646	14	C10H9O+
149.0232	20	C8H5O3+
152.0617	4	C12H8+
153.0182	68	C7H5O4+
153.0699	17	C12H9+
155.0855	21	C12H11+
165.0699	115	C13H9+
169.0649	17	C12H9O+
171.044	110	C11H7O2+
181.0647	21	C13H9O+
183.0805	4	C13H11O+
193.0647	40	C14H9O+
199.0753	98	C13H11O2+
211.0753	83	C14H11O2+
227.0701	4	C14H11O3+
255.0651	999	C15H11O4+
