Mass spectrum: Echimidine N-oxide; LC-ESI-ITFT; MS2; CE: 35%; R=15000; [M+H]+
Name: Echimidine N-oxide
Name: [(7R,8R)-7-[(Z)-2-methylbut-2-enoyl]oxy-4-oxido-5,6,7,8-tetrahydro-3H-pyrrolizin-4-ium-1-yl]methyl (2R)-2,3-dihydroxy-2-[(1S)-1-hydroxyethyl]-3-methylbutanoate
Formula: C20H31NO8
Exact mass: 413.2050
SMILES: C/C=C(/C)\C(=O)O[C@@H]1CC[N+]2([C@@H]1C(=CC2)COC(=O)[C@@]([C@H](C)O)(C(C)(C)O)O)[O-]
InChI: InChI=1S/C20H31NO8/c1-6-12(2)17(23)29-15-8-10-21(27)9-7-14(16(15)21)11-28-18(24)20(26,13(3)22)19(4,5)25/h6-7,13,15-16,22,25-26H,8-11H2,1-5H3/b12-6-/t13-,15+,16+,20-,21?/m0/s1
Instrument: LTQ Orbitrap XL Thermo Scientific
Instrument type: LC-ESI-ITFT
Ms type: MS2
Ion mode: POSITIVE
Ionization: ESI
Fragmentation mode: HCD
Collision energy: 35% (nominal)
Resolution: 15000
Column name: Kinetex Evo C18 2.6 um 50 x 2.1 mm
Retention time: 6.563 min
Base peak: 414.2118
Precursor m/z: 414.2122
Precursor type: [M+H]+
m/z	relative intensity	assigned
55.0541	6	C4H7+
83.0492	12	C5H7O+
94.0655	2	C6H8N+
108.0808	5	C7H10N+
109.065	2	C7H9O+
118.0652	4	C8H8N+
119.073	13	C8H9N+
120.0807	26	C8H10N+
121.0888	7	C8H11N+
136.0755	18	C8H10NO+
137.0834	42	C8H11NO+
154.0863	19	C8H12NO2+
218.1174	23	C13H16NO2+
219.1247	3	C13H17NO2+
220.1331	81	C13H18NO2+
236.1282	5	C13H18NO3+
237.1359	66	C13H19NO3+
238.1077	3	C12H16NO4+
239.1143	2	C12H17NO4+
254.1386	372	C13H20NO4+
308.1853	3	C17H26NO4+
310.1649	14	C16H24NO5+
312.1447	7	C15H22NO6+
338.1598	117	C17H24NO6+
352.1753	297	C18H26NO6+
356.1703	66	C17H26NO7+
370.1855	8	C18H28NO7+
396.2015	284	C20H30NO7+
414.2122	999	C20H32NO8+
