Mass spectrum: Gelsemine; LC-ESI-ITFT; MS2; CE: 80%; R=15000; [M+H]+
Name: Gelsemine
Name: (2`S,3S,5`S,6`S,11`S)-2`-ethenyl-4`-methylspiro[1H-indole-3,7`-9-oxa-4-azatetracyclo[6.3.1.02,6.05,11]dodecane]-2-one
Formula: C20H22N2O2
Exact mass: 322.1681
SMILES: CN1C[C@@]2([C@@H]3[C@H]1[C@@H]4C2CC([C@@]35c6ccccc6NC5=O)OC4)C=C
InChI: InChI=1S/C20H22N2O2/c1-3-19-10-22(2)16-11-9-24-15(8-13(11)19)20(17(16)19)12-6-4-5-7-14(12)21-18(20)23/h3-7,11,13,15-17H,1,8-10H2,2H3,(H,21,23)/t11-,13?,15?,16+,17-,19-,20-/m0/s1
Instrument: LTQ Orbitrap XL Thermo Scientific
Instrument type: LC-ESI-ITFT
Ms type: MS2
Ion mode: POSITIVE
Ionization: ESI
Fragmentation mode: HCD
Collision energy: 80% (nominal)
Resolution: 15000
Column name: Kinetex Evo C18 2.6 um 50 x 2.1 mm
Retention time: 1.781 min
Base peak: 323.1753
Precursor m/z: 323.1754
Precursor type: [M+H]+
m/z	relative intensity	assigned
70.0651	999	C4H8N+
79.0542	6	C6H7+
86.0601	42	C4H8NO+
88.0757	19	C4H10NO+
91.0542	84	C7H7+
93.0699	8	C7H9+
94.0652	9	C6H8N+
105.0699	29	C8H9+
108.0807	12	C7H10N+
115.0542	33	C9H7+
116.0621	17	C9H8+
117.0699	116	C9H9+
118.0652	4	C8H8N+
120.0809	12	C8H10N+
121.0885	7	C8H11N+
128.0497	9	C9H6N+
129.0699	26	C10H9+
130.0652	40	C9H8N+
131.0856	83	C10H11+
132.0445	86	C8H6NO+
132.0813	5	C9H10N+
134.06	13	C8H8NO+
134.0963	25	C9H12N+
141.0702	7	C11H9+
146.06	98	C9H8NO+
146.0963	32	C10H12N+
148.112	20	C10H14N+
150.0911	7	C9H12NO+
158.0602	63	C10H8NO+
159.0805	13	C11H11O+
160.1119	9	C11H14N+
162.1282	8	C11H16N+
165.0699	10	C13H9+
167.0727	12	C12H9N+
170.0596	5	C11H8NO+
172.0754	8	C11H10NO+
176.1072	7	C11H14NO+
178.0653	31	C13H8N+
180.0807	27	C13H10N+
183.0677	20	C12H9NO+
184.0754	19	C12H10NO+
190.065	9	C14H8N+
191.0852	14	C15H11+
192.0808	14	C14H10N+
193.0881	10	C14H11N+
195.0678	286	C13H9NO+
196.0757	108	C13H10NO+
203.0728	35	C15H9N+
204.0799	7	C15H10N+
208.0757	68	C14H10NO+
208.1116	7	C15H14N+
209.0838	15	C14H11NO+
210.0913	99	C14H12NO+
216.0799	8	C16H10N+
217.0885	38	C16H11N+
218.0964	76	C16H12N+
220.0762	13	C15H10NO+
220.1111	9	C16H14N+
221.0829	6	C15H11NO+
222.0916	13	C15H12NO+
233.0829	8	C16H11NO+
234.0915	16	C16H12NO+
236.107	191	C16H14NO+
238.1216	8	C16H16NO+
244.1118	6	C18H14N+
251.1185	6	C16H15N2O+
