Mass spectrum: Echimidine N-oxide; LC-ESI-ITFT; MS2; CE: 40%; R=15000; [M+H]+
Name: Echimidine N-oxide
Name: [(7R,8R)-7-[(Z)-2-methylbut-2-enoyl]oxy-4-oxido-5,6,7,8-tetrahydro-3H-pyrrolizin-4-ium-1-yl]methyl (2R)-2,3-dihydroxy-2-[(1S)-1-hydroxyethyl]-3-methylbutanoate
Formula: C20H31NO8
Exact mass: 413.2050
SMILES: C/C=C(/C)\C(=O)O[C@@H]1CC[N+]2([C@@H]1C(=CC2)COC(=O)[C@@]([C@H](C)O)(C(C)(C)O)O)[O-]
InChI: InChI=1S/C20H31NO8/c1-6-12(2)17(23)29-15-8-10-21(27)9-7-14(16(15)21)11-28-18(24)20(26,13(3)22)19(4,5)25/h6-7,13,15-16,22,25-26H,8-11H2,1-5H3/b12-6-/t13-,15+,16+,20-,21?/m0/s1
Instrument: LTQ Orbitrap XL Thermo Scientific
Instrument type: LC-ESI-ITFT
Ms type: MS2
Ion mode: POSITIVE
Ionization: ESI
Fragmentation mode: HCD
Collision energy: 40% (nominal)
Resolution: 15000
Column name: Kinetex Evo C18 2.6 um 50 x 2.1 mm
Retention time: 6.563 min
Base peak: 414.2118
Precursor m/z: 414.2122
Precursor type: [M+H]+
m/z	relative intensity	assigned
55.0541	22	C4H7+
83.0492	58	C5H7O+
93.0574	11	C6H7N+
94.0652	11	C6H8N+
95.0727	6	C6H9N+
106.065	8	C7H8N+
108.0807	16	C7H10N+
109.0647	9	C7H9O+
109.089	3	C7H11N+
118.0651	13	C8H8N+
119.073	49	C8H9N+
120.0807	93	C8H10N+
121.0887	17	C8H11N+
124.076	6	C7H10NO+
136.0757	57	C8H10NO+
137.0835	166	C8H11NO+
138.0917	9	C8H12NO+
141.0909	11	C8H13O2+
154.0862	61	C8H12NO2+
190.1226	6	C12H16NO+
192.1376	8	C12H18NO+
218.1176	70	C13H16NO2+
219.1255	12	C13H17NO2+
220.1331	267	C13H18NO2+
234.1131	4	C13H16NO3+
236.128	13	C13H18NO3+
237.1359	171	C13H19NO3+
238.144	12	C13H20NO3+
239.1145	5	C12H17NO4+
252.1233	5	C13H18NO4+
254.1386	999	C13H20NO4+
256.1167	6	C12H18NO5+
296.1483	5	C15H22NO5+
308.1849	7	C17H26NO4+
310.1646	34	C16H24NO5+
312.1431	14	C15H22NO6+
314.1602	8	C15H24NO6+
338.1598	206	C17H24NO6+
352.1754	510	C18H26NO6+
356.1704	81	C17H26NO7+
370.1852	10	C18H28NO7+
396.2015	411	C20H30NO7+
414.2123	725	C20H32NO8+
