Mass spectrum: Europine; LC-ESI-ITFT; MS2; CE: 25%; R=15000; [M+H]+
Name: Europine
Name: [(7S,8R)-7-hydroxy-5,6,7,8-tetrahydro-3H-pyrrolizin-1-yl]methyl (2R)-2,3-dihydroxy-2-[(1S)-1-methoxyethyl]-3-methylbutanoate
Formula: C16H27NO6
Exact mass: 329.1838
SMILES: C[C@@H]([C@](C(=O)OCC1=CCN2[C@H]1[C@H](CC2)O)(C(C)(C)O)O)OC
InChI: InChI=1S/C16H27NO6/c1-10(22-4)16(21,15(2,3)20)14(19)23-9-11-5-7-17-8-6-12(18)13(11)17/h5,10,12-13,18,20-21H,6-9H2,1-4H3/t10-,12-,13+,16-/m0/s1
Instrument: LTQ Orbitrap XL Thermo Scientific
Instrument type: LC-ESI-ITFT
Ms type: MS2
Ion mode: POSITIVE
Ionization: ESI
Fragmentation mode: HCD
Collision energy: 25% (nominal)
Resolution: 15000
Column name: Kinetex Evo C18 2.6 um 50 x 2.1 mm
Retention time: 0.960 min
Base peak: 235.2168
Precursor m/z: 330.1911
Precursor type: [M+H]+
m/z	relative intensity	assigned
96.0806	1	C6H10N+
120.0811	2	C8H10N+
136.0761	1	C8H10NO+
138.0913	297	C8H12NO+
156.1018	11	C8H14NO2+
240.1229	4	C12H18NO4+
254.1387	128	C13H20NO4+
312.1804	17	C16H26NO5+
330.1912	999	C16H28NO6+
