Mass spectrum: Matrine; LC-ESI-ITFT; MS2; CE: 90%; R=15000; [M+H]+
Name: Matrine
Name: (1R,2R,9S,17S)-7,13-diazatetracyclo[7.7.1.02,7.013,17]heptadecan-6-one
Formula: C15H24N2O
Exact mass: 248.1889
SMILES: C1C[C@@H]2[C@H]3CCCN4[C@H]3[C@@H](CCC4)CN2C(=O)C1
InChI: InChI=1S/C15H24N2O/c18-14-7-1-6-13-12-5-3-9-16-8-2-4-11(15(12)16)10-17(13)14/h11-13,15H,1-10H2/t11-,12+,13+,15-/m0/s1
Instrument: LTQ Orbitrap XL Thermo Scientific
Instrument type: LC-ESI-ITFT
Ms type: MS2
Ion mode: POSITIVE
Ionization: ESI
Fragmentation mode: HCD
Collision energy: 90% (nominal)
Resolution: 15000
Column name: Kinetex Evo C18 2.6 um 50 x 2.1 mm
Retention time: 0.702 min
Base peak: 249.1959
Precursor m/z: 249.1961
Precursor type: [M+H]+
m/z	relative intensity	assigned
67.0542	30	C5H7+
70.0651	44	C4H8N+
79.0543	25	C6H7+
81.07	38	C6H9+
82.0653	19	C5H8N+
84.0808	90	C5H10N+
91.0543	16	C7H7+
93.0699	44	C7H9+
95.0857	30	C7H11+
96.0809	132	C6H10N+
98.0601	158	C5H8NO+
98.0965	94	C6H12N+
100.0754	9	C5H10NO+
105.0697	18	C8H9+
106.0652	12	C7H8N+
107.0858	23	C8H11+
108.0809	31	C7H10N+
110.0965	217	C7H12N+
112.0757	147	C6H10NO+
119.0856	14	C9H11+
120.0809	69	C8H10N+
122.0965	89	C8H12N+
123.1041	10	C8H13N+
124.1121	36	C8H14N+
131.0854	16	C10H11+
134.0965	73	C9H12N+
136.1121	102	C9H14N+
137.1203	13	C9H15N+
138.0913	25	C8H12NO+
138.1278	46	C9H16N+
145.1018	9	C11H13+
148.0759	45	C9H10NO+
148.1122	613	C10H14N+
149.1201	17	C10H15N+
150.0915	33	C9H12NO+
150.1279	327	C10H16N+
152.1067	8	C9H14NO+
152.1435	81	C10H18N+
160.1123	9	C11H14N+
162.0914	36	C10H12NO+
162.128	57	C11H16N+
164.1075	30	C10H14NO+
164.1434	18	C11H18N+
166.1227	25	C10H16NO+
174.1273	14	C12H16N+
176.1071	230	C11H14NO+
176.1436	52	C12H18N+
178.1223	18	C11H16NO+
178.1594	15	C12H20N+
188.144	22	C13H18N+
190.1225	87	C12H16NO+
190.159	32	C13H20N+
192.1385	10	C12H18NO+
204.138	36	C13H18NO+
204.1752	11	C14H22N+
218.154	43	C14H20NO+
219.1857	14	C14H23N2+
220.1699	39	C14H22NO+
229.1704	15	C15H21N2+
230.1544	13	C15H20NO+
231.1847	13	C15H23N2+
232.1697	31	C15H22NO+
247.1806	206	C15H23N2O+
249.1961	999	C15H25N2O+
