Mass spectrum: Gelsemine; LC-ESI-ITFT; MS2; CE: 55%; R=15000; [M+H]+
Name: Gelsemine
Name: (2`S,3S,5`S,6`S,11`S)-2`-ethenyl-4`-methylspiro[1H-indole-3,7`-9-oxa-4-azatetracyclo[6.3.1.02,6.05,11]dodecane]-2-one
Formula: C20H22N2O2
Exact mass: 322.1681
SMILES: CN1C[C@@]2([C@@H]3[C@H]1[C@@H]4C2CC([C@@]35c6ccccc6NC5=O)OC4)C=C
InChI: InChI=1S/C20H22N2O2/c1-3-19-10-22(2)16-11-9-24-15(8-13(11)19)20(17(16)19)12-6-4-5-7-14(12)21-18(20)23/h3-7,11,13,15-17H,1,8-10H2,2H3,(H,21,23)/t11-,13?,15?,16+,17-,19-,20-/m0/s1
Instrument: LTQ Orbitrap XL Thermo Scientific
Instrument type: LC-ESI-ITFT
Ms type: MS2
Ion mode: POSITIVE
Ionization: ESI
Fragmentation mode: HCD
Collision energy: 55% (nominal)
Resolution: 15000
Column name: Kinetex Evo C18 2.6 um 50 x 2.1 mm
Retention time: 1.783 min
Base peak: 323.1752
Precursor m/z: 323.1754
Precursor type: [M+H]+
m/z	relative intensity	assigned
70.065	999	C4H8N+
81.0333	5	C5H5O+
86.06	74	C4H8NO+
88.0756	44	C4H10NO+
91.0541	12	C7H7+
93.0701	9	C7H9+
94.0652	7	C6H8N+
96.0808	6	C6H10N+
105.0698	21	C8H9+
117.0698	93	C9H9+
129.0698	12	C10H9+
131.0855	108	C10H11+
132.0444	39	C8H6NO+
134.0595	10	C8H8NO+
134.0965	20	C9H12N+
146.06	85	C9H8NO+
148.1117	14	C10H14N+
158.0601	64	C10H8NO+
159.0804	57	C11H11O+
160.1121	7	C11H14N+
162.1273	16	C11H16N+
165.1149	7	C10H15NO+
172.0757	13	C11H10NO+
184.0756	17	C12H10NO+
190.1226	29	C12H16NO+
191.1305	18	C12H17NO+
195.0678	91	C13H9NO+
196.0757	81	C13H10NO+
208.0759	23	C14H10NO+
210.0912	89	C14H12NO+
210.1282	11	C15H16N+
218.0962	31	C16H12N+
222.0911	12	C15H12NO+
234.0913	11	C16H12NO+
236.1069	584	C16H14NO+
238.1225	120	C16H16NO+
248.107	20	C17H14NO+
262.1223	30	C18H16NO+
264.1385	7	C18H18NO+
274.1228	18	C19H16NO+
279.149	6	C18H19N2O+
293.1653	9	C19H21N2O+
305.1639	6	C20H21N2O+
323.1754	656	C20H23N2O2+
