Mass spectrum: Vincamin; LC-ESI-ITFT; MS2; CE: 35%; R=15000; [M+H]+
Name: Vincamin
Name: Vincamine
Name: methyl (15S,17S,19S)-15-ethyl-17-hydroxy-1,11-diazapentacyclo[9.6.2.02,7.08,18.015,19]nonadeca-2,4,6,8(18)-tetraene-17-carboxylate
Formula: C21H26N2O3
Exact mass: 354.1943
SMILES: CC[C@@]12CCCN3[C@@H]1C4=C(CC3)C5=CC=CC=C5N4[C@](C2)(C(=O)OC)O
InChI: InChI=1S/C21H26N2O3/c1-3-20-10-6-11-22-12-9-15-14-7-4-5-8-16(14)23(17(15)18(20)22)21(25,13-20)19(24)26-2/h4-5,7-8,18,25H,3,6,9-13H2,1-2H3/t18-,20+,21+/m1/s1
Instrument: LTQ Orbitrap XL Thermo Scientific
Instrument type: LC-ESI-ITFT
Ms type: MS2
Ion mode: POSITIVE
Ionization: ESI
Fragmentation mode: HCD
Collision energy: 35% (nominal)
Resolution: 15000
Column name: Kinetex Evo C18 2.6 um 50 x 2.1 mm
Retention time: 6.630 min
Base peak: 355.2015
Precursor m/z: 355.2016
Precursor type: [M+H]+
m/z	relative intensity	assigned
110.0961	2	C7H12N+
124.1116	1	C8H14N+
144.0807	37	C10H10N+
152.107	5	C9H14NO+
194.1175	12	C11H16NO2+
212.128	59	C11H18NO3+
221.1193	1	C16H15N+
224.1284	1	C12H18NO3+
224.1433	2	C16H18N+
236.1437	4	C17H18N+
240.1015	1	C15H14NO2+
246.1268	1	C18H16N+
250.1593	5	C18H20N+
253.1706	2	C17H21N2+
267.1253	3	C17H17NO2+
268.1331	22	C17H18NO2+
277.17	5	C19H21N2+
280.133	35	C18H18NO2+
282.1493	3	C18H20NO2+
294.1487	48	C19H20NO2+
295.1803	39	C19H23N2O+
305.1656	3	C20H21N2O+
306.1482	5	C20H20NO2+
308.1632	60	C20H22NO2+
310.1799	21	C20H24NO2+
320.1637	2	C21H22NO2+
325.1917	1	C20H25N2O2+
326.1745	6	C20H24NO3+
337.1908	999	C21H25N2O2+
355.2013	904	C21H27N2O3+
