Mass spectrum: Yohimbine; LC-ESI-ITFT; MS2; CE: 90%; R=15000; [M+H]+
Name: Yohimbine
Name: methyl (1S,15R,18S,19R,20S)-18-hydroxy-1,3,11,12,14,15,16,17,18,19,20,21-dodecahydroyohimban-19-carboxylate
Formula: C21H26N2O3
Exact mass: 354.1943
SMILES: COC(=O)[C@H]1[C@H](CC[C@@H]2[C@@H]1C[C@H]3c4c(c5ccccc5[nH]4)CCN3C2)O
InChI: InChI=1S/C21H26N2O3/c1-26-21(25)19-15-10-17-20-14(13-4-2-3-5-16(13)22-20)8-9-23(17)11-12(15)6-7-18(19)24/h2-5,12,15,17-19,22,24H,6-11H2,1H3/t12-,15-,17-,18-,19+/m0/s1
Instrument: LTQ Orbitrap XL Thermo Scientific
Instrument type: LC-ESI-ITFT
Ms type: MS2
Ion mode: POSITIVE
Ionization: ESI
Fragmentation mode: HCD
Collision energy: 90% (nominal)
Resolution: 15000
Column name: Kinetex Evo C18 2.6 um 50 x 2.1 mm
Retention time: 6.517 min
Base peak: 355.2013
Precursor m/z: 355.2016
Precursor type: [M+H]+
m/z	relative intensity	assigned
70.0651	2	C4H8N+
77.0386	3	C6H5+
79.0542	9	C6H7+
80.0495	7	C5H6N+
81.0336	2	C5H5O+
81.0703	2	C6H9+
82.0649	1	C5H8N+
91.0542	35	C7H7+
93.0573	3	C6H7N+
93.0699	4	C7H9+
94.0651	23	C6H8N+
95.0729	2	C6H9N+
103.0542	14	C8H7+
104.0495	1	C7H6N+
105.0446	3	C6H5N2+
105.0699	11	C8H9+
106.0651	33	C7H8N+
107.0727	2	C7H9N+
107.0855	3	C8H11+
108.0806	2	C7H10N+
110.0965	1	C7H12N+
113.0596	3	C6H9O2+
115.0542	56	C9H7+
116.0494	6	C8H6N+
116.0575	2	C4H8N2O2+
116.0621	5	C9H8+
117.0573	27	C8H7N+
117.0698	235	C9H9+
118.0651	15	C8H8N+
118.0733	6	C4H10N2O2+
119.0493	1	C8H7O+
119.073	2	C8H9N+
119.0851	1	C9H11+
120.0808	6	C8H10N+
127.0541	8	C10H7+
128.0494	16	C9H6N+
128.0619	7	C10H8+
129.0573	3	C9H7N+
129.07	7	C10H9+
130.065	34	C9H8N+
131.0728	6	C9H9N+
132.0808	7	C9H10N+
133.0643	1	C9H9O+
134.06	2	C8H8NO+
134.0964	42	C9H12N+
135.1042	1	C9H13N+
138.0915	1	C8H12NO+
142.0652	8	C10H8N+
143.073	167	C10H9N+
144.0807	999	C10H10N+
145.0646	6	C10H9O+
146.0597	4	C9H8NO+
146.0965	4	C10H12N+
154.0655	1	C11H8N+
155.0603	82	C10H7N2+
155.0725	4	C11H9N+
156.0806	10	C11H10N+
157.0885	7	C11H11N+
158.0964	13	C11H12N+
162.0911	9	C10H12NO+
167.073	6	C12H9N+
168.0805	12	C12H10N+
169.0887	1	C12H11N+
170.0965	4	C12H12N+
180.0806	8	C13H10N+
180.1019	4	C10H14NO2+
181.0884	4	C13H11N+
182.0965	4	C13H12N+
193.0887	4	C14H11N+
194.0961	8	C14H12N+
194.1174	2	C11H16NO2+
196.112	1	C14H14N+
204.0807	5	C15H10N+
205.0888	3	C15H11N+
206.0963	7	C15H12N+
207.1041	1	C15H13N+
208.1117	6	C15H14N+
212.1276	2	C11H18NO3+
217.0883	5	C16H11N+
218.0965	6	C16H12N+
219.1042	5	C16H13N+
220.1118	7	C16H14N+
230.0961	5	C17H12N+
231.1047	3	C17H13N+
232.1121	7	C17H14N+
233.1206	3	C17H15N+
234.1271	5	C17H16N+
244.1128	2	C18H14N+
246.1272	1	C18H16N+
