Mass spectrum: Senecionine N-oxide; LC-ESI-ITFT; MS2; CE: 100%; R=15000; [M+H]+
Name: Senecionine N-oxide
Name: (1R,4Z,6R,7R,17R)-4-ethylidene-7-hydroxy-6,7-dimethyl-14-oxido-2,9-dioxa-14-azoniatricyclo[9.5.1.014,17]heptadec-11-ene-3,8-dione
Formula: C18H25NO6
Exact mass: 351.1682
SMILES: C/C=C\1/C[C@H]([C@@](C(=O)OCC2=CC[N+]3([C@H]2[C@@H](CC3)OC1=O)[O-])(C)O)C
InChI: InChI=1S/C18H25NO6/c1-4-12-9-11(2)18(3,22)17(21)24-10-13-5-7-19(23)8-6-14(15(13)19)25-16(12)20/h4-5,11,14-15,22H,6-10H2,1-3H3/b12-4-/t11-,14-,15-,18-,19?/m1/s1
Instrument: LTQ Orbitrap XL Thermo Scientific
Instrument type: LC-ESI-ITFT
Ms type: MS2
Ion mode: POSITIVE
Ionization: ESI
Fragmentation mode: HCD
Collision energy: 100% (nominal)
Resolution: 15000
Column name: Kinetex Evo C18 2.6 um 50 x 2.1 mm
Retention time: 5.367 min
Base peak: 352.1752
Precursor m/z: 352.1755
Precursor type: [M+H]+
m/z	relative intensity	assigned
53.0384	11	C4H5+
65.0386	14	C5H5+
66.0464	26	C5H6+
67.0416	27	C4H5N+
67.0542	48	C5H7+
68.0495	15	C4H6N+
77.0386	16	C6H5+
78.0337	9	C5H4N+
79.0542	71	C6H7+
80.0495	272	C5H6N+
81.0335	8	C5H5O+
81.0574	26	C5H7N+
81.0699	86	C6H9+
82.0651	19	C5H8N+
83.0491	10	C5H7O+
84.0444	16	C4H6NO+
91.0542	94	C7H7+
92.0495	53	C6H6N+
93.0573	397	C6H7N+
94.0651	999	C6H8N+
95.073	46	C6H9N+
96.0443	12	C5H6NO+
96.0808	33	C6H10N+
98.0598	10	C5H8NO+
104.0496	5	C7H6N+
105.0699	9	C8H9+
106.0651	119	C7H8N+
107.0728	20	C7H9N+
107.0855	20	C8H11+
108.0445	12	C6H6NO+
108.0808	175	C7H10N+
109.0884	10	C7H11N+
110.0601	21	C6H8NO+
117.0573	58	C8H7N+
118.0651	377	C8H8N+
119.073	91	C8H9N+
120.0808	446	C8H10N+
122.0967	19	C8H12N+
124.0756	8	C7H10NO+
132.0807	9	C9H10N+
134.0968	9	C9H12N+
136.0757	381	C8H10NO+
138.0913	28	C8H12NO+
139.0754	10	C8H11O2+
146.0967	8	C10H12N+
148.1117	5	C10H14N+
