Mass spectrum: Conessine; LC-ESI-ITFT; MS2; CE: 115%; R=15000; [M+H]+
Name: Conessine
Formula: C24H40N2
Exact mass: 356.3191
SMILES: C[C@H]1[C@H]2CC[C@H]3[C@@H]4CC=C5C[C@H](CC[C@]5(C)[C@H]4CC[C@]23CN1C)N(C)C
InChI: InChI=1S/C24H40N2/c1-16-20-8-9-22-19-7-6-17-14-18(25(3)4)10-12-23(17,2)21(19)11-13-24(20,22)15-26(16)5/h6,16,18-22H,7-15H2,1-5H3/t16-,18-,19+,20+,21-,22-,23-,24-/m0/s1
Instrument: LTQ Orbitrap XL Thermo Scientific
Instrument type: LC-ESI-ITFT
Ms type: MS2
Ion mode: POSITIVE
Ionization: ESI
Fragmentation mode: HCD
Collision energy: 115 % (nominal)
Resolution: 15000
Column name: Kinetex Evo C18 2.6 um 50 x 2.1 mm
Retention time: 5.398 min
Base peak: 179.1666
Precursor m/z: 357.3264
Precursor type: [M+H]+
m/z	relative intensity	assigned
58.065	15	C3H8N+
65.0385	17	C5H5+
67.0542	208	C5H7+
69.0699	16	C5H9+
70.065	29	C4H8N+
72.0807	21	C4H10N+
77.0386	114	C6H5+
79.0542	370	C6H7+
81.0698	277	C6H9+
84.0807	999	C5H10N+
91.0542	591	C7H7+
93.0698	259	C7H9+
95.0855	95	C7H11+
103.0542	37	C8H7+
105.0448	35	C6H5N2+
105.0698	535	C8H9+
107.0855	57	C8H11+
109.1012	34	C8H13+
115.0543	64	C9H7+
116.062	37	C9H8+
117.0698	202	C9H9+
118.0776	16	C9H10+
119.0855	175	C9H11+
121.1009	13	C9H13+
128.062	72	C10H8+
129.0698	163	C10H9+
130.0776	68	C10H10+
131.0854	170	C10H11+
133.1012	44	C10H13+
136.1124	19	C9H14N+
141.0697	35	C11H9+
142.0777	49	C11H10+
143.0854	76	C11H11+
144.0931	42	C11H12+
145.101	60	C11H13+
147.1167	26	C11H15+
155.0853	28	C12H11+
157.1012	37	C12H13+
159.1167	32	C12H15+
161.1331	11	C12H17+
