Mass spectrum: (+)-Lupanine; LC-ESI-ITFT; MS2; CE: 60%; R=15000; [M+H]+
Name: (+)-Lupanine
Formula: C15H24N2O
Exact mass: 248.1889
SMILES: C1CCN2CC3CC(C2C1)CN4C3CCCC4=O
InChI: InChI=1S/C15H24N2O/c18-15-6-3-5-14-11-8-12(10-17(14)15)13-4-1-2-7-16(13)9-11/h11-14H,1-10H2
Instrument: LTQ Orbitrap XL Thermo Scientific
Instrument type: LC-ESI-ITFT
Ms type: MS2
Ion mode: POSITIVE
Ionization: ESI
Fragmentation mode: CID
Collision energy: 60 % (nominal)
Resolution: 15000
Column name: Kinetex Evo C18 2.6 um 50 x 2.1 mm
Retention time: 0.482 min
Base peak: 249.1955
Precursor m/z: 249.1961
Precursor type: [M+H]+
m/z	relative intensity	assigned
70.0651	6	C4H8N+
79.0543	6	C6H7+
80.0495	14	C5H6N+
82.0652	2	C5H8N+
84.0808	16	C5H10N+
85.0648	7	C5H9O+
91.0542	13	C7H7+
93.0699	4	C7H9+
94.0652	13	C6H8N+
96.0808	90	C6H10N+
98.0964	90	C6H12N+
100.0757	2	C5H10NO+
105.0698	13	C8H9+
106.0652	1	C7H8N+
107.0854	5	C8H11+
108.0808	11	C7H10N+
109.0885	2	C7H11N+
110.0602	2	C6H8NO+
110.0965	8	C7H12N+
112.0757	43	C6H10NO+
112.112	2	C7H14N+
114.0913	300	C6H12NO+
119.0856	3	C9H11+
120.0808	3	C8H10N+
122.0964	26	C8H12N+
124.0758	6	C7H10NO+
124.1121	14	C8H14N+
131.0856	4	C10H11+
133.1012	9	C10H13+
134.0965	151	C9H12N+
135.1043	1	C9H13N+
136.1121	999	C9H14N+
138.0913	7	C8H12NO+
138.1277	8	C9H16N+
141.0697	1	C11H9+
145.1011	4	C11H13+
147.1165	1	C11H15+
148.0757	8	C9H10NO+
148.1121	51	C10H14N+
150.1277	172	C10H16N+
152.107	32	C9H14NO+
152.1434	25	C10H18N+
155.0859	1	C12H11+
157.1017	1	C12H13+
159.1168	5	C12H15+
162.0915	4	C10H12NO+
162.1278	8	C11H16N+
164.1072	6	C10H14NO+
164.1441	3	C11H18N+
166.1227	37	C10H16NO+
169.1014	2	C13H13+
174.1278	17	C12H16N+
176.1067	4	C11H14NO+
176.1434	23	C12H18N+
178.1228	5	C11H16NO+
183.1161	2	C14H15+
186.1282	3	C13H16N+
187.1119	2	C13H15O+
188.1432	7	C13H18N+
189.1386	34	C12H17N2+
190.1591	7	C13H20N+
200.1433	7	C14H18N+
204.1382	73	C13H18NO+
206.154	19	C13H20NO+
214.159	2	C15H20N+
218.154	17	C14H20NO+
220.1698	3	C14H22NO+
229.1695	5	C15H21N2+
231.1855	370	C15H23N2+
232.1691	3	C15H22NO+
