Mass spectrum: Pterosin B; LC-ESI-ITFT; MS2; CE: 70%; R=15000; [M+H]+
Name: Pterosin B
Name: (2R)-6-(2-hydroxyethyl)-2,5,7-trimethyl-2,3-dihydroinden-1-one
Formula: C14H18O2
Exact mass: 218.1307
SMILES: C[C@@H]1CC2=C(C1=O)C(=C(C(=C2)C)CCO)C
InChI: InChI=1S/C14H18O2/c1-8-6-11-7-9(2)14(16)13(11)10(3)12(8)4-5-15/h6,9,15H,4-5,7H2,1-3H3/t9-/m1/s1
Instrument: LTQ Orbitrap XL Thermo Scientific
Instrument type: LC-ESI-ITFT
Ms type: MS2
Ion mode: POSITIVE
Ionization: ESI
Fragmentation mode: HCD
Collision energy: 70 % (nominal)
Resolution: 15000
Column name: Kinetex Evo C18 2.6 um 50 x 2.1 mm
Retention time: 10.370 min
Base peak: 219.137
Precursor m/z: 219.138
Precursor type: [M+H]+
m/z	relative intensity	assigned
67.0539	26	C5H7+
79.0538	10	C6H7+
81.0697	9	C6H9+
91.0539	67	C7H7+
93.0699	6	C7H9+
105.0695	148	C8H9+
107.0851	18	C8H11+
115.0537	12	C9H7+
116.0616	13	C9H8+
117.0695	87	C9H9+
119.0851	191	C9H11+
121.1006	12	C9H13+
128.0616	31	C10H8+
129.0694	139	C10H9+
130.0773	131	C10H10+
131.0851	339	C10H11+
132.093	10	C10H12+
133.1007	185	C10H13+
141.0694	31	C11H9+
142.0773	111	C11H10+
143.0851	385	C11H11+
144.093	208	C11H12+
145.1007	999	C11H13+
147.1165	15	C11H15+
153.0694	160	C12H9+
155.0851	172	C12H11+
156.093	77	C12H12+
157.0641	18	C11H9O+
157.1007	111	C12H13+
158.072	28	C11H10O+
158.1085	319	C12H14+
159.08	132	C11H11O+
159.1163	114	C12H15+
160.1242	14	C12H16+
163.1115	52	C11H15O+
167.0849	29	C13H11+
168.0929	536	C13H12+
170.1087	20	C13H14+
171.08	200	C12H11O+
171.1162	77	C13H15+
172.0878	186	C12H12O+
173.0956	379	C12H13O+
173.1319	365	C13H17+
174.1034	135	C12H14O+
175.1111	14	C12H15O+
181.1007	24	C14H13+
183.1163	303	C14H15+
185.0954	24	C13H13O+
186.1033	654	C13H14O+
188.1191	37	C13H16O+
199.111	31	C14H15O+
201.1267	739	C14H17O+
204.1136	31	C13H16O2+
219.1372	159	C14H19O2+
