Mass spectrum: alpha-Cyperone; LC-ESI-ITFT; MS2; CE: 55%; R=15000; [M+H]+
Name: alpha-Cyperone
Formula: C15H22O
Exact mass: 218.1671
SMILES: CC1=C2CC(CCC2(CCC1=O)C)C(=C)C
InChI: InChI=1S/C15H22O/c1-10(2)12-5-7-15(4)8-6-14(16)11(3)13(15)9-12/h12H,1,5-9H2,2-4H3
Instrument: LTQ Orbitrap XL Thermo Scientific
Instrument type: LC-ESI-ITFT
Ms type: MS2
Ion mode: POSITIVE
Ionization: ESI
Fragmentation mode: CID
Collision energy: 55 % (nominal)
Resolution: 15000
Column name: Kinetex Evo C18 2.6 um 50 x 2.1 mm
Retention time: 13.126 min
Base peak: 219.174
Precursor m/z: 219.1743
Precursor type: [M+H]+
m/z	relative intensity	assigned
55.0542	1	C4H7+
67.0542	20	C5H7+
69.07	2	C5H9+
77.0388	2	C6H5+
79.0543	19	C6H7+
81.0699	52	C6H9+
91.0543	17	C7H7+
93.0699	54	C7H9+
95.0856	163	C7H11+
97.0648	232	C6H9O+
99.0804	2	C6H11O+
105.0699	118	C8H9+
107.0856	139	C8H11+
109.0649	23	C7H9O+
109.1012	339	C8H13+
111.0804	331	C7H11O+
117.0699	10	C9H9+
119.0856	180	C9H11+
121.0649	23	C8H9O+
121.1012	139	C9H13+
123.0805	163	C8H11O+
123.1169	126	C9H15+
125.0961	41	C8H13O+
131.0855	95	C10H11+
133.1012	67	C10H13+
135.0805	139	C9H11O+
135.1168	100	C10H15+
137.0962	46	C9H13O+
137.1325	9	C10H17+
139.1119	8	C9H15O+
145.1012	421	C11H13+
147.1169	199	C11H15+
149.0962	128	C10H13O+
149.1326	43	C11H17+
151.1117	10	C10H15O+
159.117	423	C12H15+
161.1326	316	C12H17+
162.1042	7	C11H14O+
163.1118	999	C11H15O+
164.1187	2	C11H16O+
173.1326	345	C13H17+
175.1482	95	C13H19+
176.1198	22	C12H16O+
177.1275	88	C12H17O+
177.1639	53	C13H21+
191.1432	33	C13H19O+
191.1795	59	C14H23+
201.1638	872	C15H21+
204.1511	10	C14H20O+
