Mass spectrum: Coniferaldehyde; LC-ESI-ITFT; MS2; CE: 60%; R=15000; [M+H]+
Name: Coniferaldehyde
Formula: C10H10O3
Exact mass: 178.0630
SMILES: COC1=CC(\C=C\C=O)=CC=C1O
InChI: InChI=1S/C10H10O3/c1-13-10-7-8(3-2-6-11)4-5-9(10)12/h2-7,12H,1H3/b3-2+
Instrument: LTQ Orbitrap XL Thermo Scientific
Instrument type: LC-ESI-ITFT
Ms type: MS2
Ion mode: POSITIVE
Ionization: ESI
Fragmentation mode: HCD
Collision energy: 60 % (nominal)
Resolution: 15000
Column name: Kinetex Evo C18 2.6 um 50 x 2.1 mm
Retention time: 7.534 min
Base peak: 179.0703
Precursor m/z: 179.0703
Precursor type: [M+H]+
m/z	relative intensity	assigned
79.0543	51	C6H7+
91.0543	927	C7H7+
95.0491	29	C6H7O+
103.0542	78	C8H7+
105.0699	240	C8H9+
108.057	27	C7H8O+
115.0544	70	C9H7+
118.0413	125	C8H6O+
119.0492	999	C8H7O+
123.0441	29	C7H7O2+
131.0493	21	C9H7O+
133.0648	276	C9H9O+
135.0444	42	C8H7O2+
136.0519	303	C8H8O2+
137.0593	19	C8H9O2+
146.0363	267	C9H6O2+
147.0441	566	C9H7O2+
161.0598	236	C10H9O2+
164.0464	26	C9H8O3+
179.0704	18	C10H11O3+
