Mass spectrum: Matairesinol; LC-ESI-ITFT; MS2; CE: 90%; R=15000; [M+H]+
Name: Matairesinol
Formula: C20H22O6
Exact mass: 358.1416
SMILES: COC1=CC(C[C@H]2COC(=O)[C@@H]2CC2=CC=C(O)C(OC)=C2)=CC=C1O
InChI: InChI=1S/C20H22O6/c1-24-18-9-12(3-5-16(18)21)7-14-11-26-20(23)15(14)8-13-4-6-17(22)19(10-13)25-2/h3-6,9-10,14-15,21-22H,7-8,11H2,1-2H3/t14-,15+/m0/s1
Instrument: LTQ Orbitrap XL Thermo Scientific
Instrument type: LC-ESI-ITFT
Ms type: MS2
Ion mode: POSITIVE
Ionization: ESI
Fragmentation mode: CID
Collision energy: 90 % (nominal)
Resolution: 15000
Column name: Kinetex Evo C18 2.6 um 50 x 2.1 mm
Retention time: 9.348 min
Base peak: 359.1486
Precursor m/z: 359.1489
Precursor type: [M+H]+
m/z	relative intensity	assigned
94.0416	3	C6H6O+
122.0362	18	C7H6O2+
131.0492	17	C9H7O+
137.0598	470	C8H9O2+
145.0649	6	C10H9O+
149.0598	3	C9H9O2+
151.0391	25	C8H7O3+
163.0755	54	C10H11O2+
177.0546	4	C10H9O3+
177.091	12	C11H13O2+
179.0703	11	C10H11O3+
187.0754	2	C12H11O2+
189.091	5	C12H13O2+
191.0703	43	C11H11O3+
203.0704	32	C12H11O3+
205.086	71	C12H13O3+
217.0861	20	C13H13O3+
221.0811	24	C12H13O4+
223.0965	263	C12H15O4+
235.0965	86	C13H15O4+
259.0759	4	C18H11O2+
263.107	10	C18H15O2+
281.1175	9	C18H17O3+
291.1017	98	C19H15O3+
295.1332	20	C19H19O3+
305.1173	80	C20H17O3+
309.1123	26	C19H17O4+
323.1278	229	C20H19O4+
341.1384	999	C20H21O5+
