Mass spectrum: Galantamine; LC-ESI-ITFT; MS2; CE: 115%; R=15000; [M+H]+
Name: Galantamine
Formula: C17H21NO3
Exact mass: 287.1521
SMILES: CN1CCC23C=CC(CC2OC4=C(C=CC(=C34)C1)OC)O
InChI: InChI=1S/C17H21NO3/c1-18-8-7-17-6-5-12(19)9-14(17)21-16-13(20-2)4-3-11(10-18)15(16)17/h3-6,12,14,19H,7-10H2,1-2H3
Instrument: LTQ Orbitrap XL Thermo Scientific
Instrument type: LC-ESI-ITFT
Ms type: MS2
Ion mode: POSITIVE
Ionization: ESI
Fragmentation mode: HCD
Collision energy: 115 % (nominal)
Resolution: 15000
Column name: Kinetex Evo C18 2.6 um 50 x 2.1 mm
Retention time: 0.643 min
Base peak: 288.1592
Precursor m/z: 288.1594
Precursor type: [M+H]+
m/z	relative intensity	assigned
77.0386	59	C6H5+
79.0542	56	C6H7+
91.0542	164	C7H7+
94.0412	22	C6H6O+
102.0463	18	C8H6+
103.0542	109	C8H7+
105.0698	122	C8H9+
115.0542	163	C9H7+
116.0622	35	C9H8+
117.0699	78	C9H9+
119.0494	18	C8H7O+
127.0543	53	C10H7+
128.0621	192	C10H8+
129.0698	79	C10H9+
131.0491	97	C9H7O+
132.0571	29	C9H8O+
135.0803	56	C9H11O+
139.0541	25	C11H7+
141.0698	516	C11H9+
142.0777	171	C11H10+
144.0569	52	C10H8O+
145.0648	162	C10H9O+
146.0725	30	C10H10O+
147.0445	33	C9H7O2+
152.0621	293	C12H8+
153.0699	193	C12H9+
155.0491	999	C11H7O+
157.0643	26	C11H9O+
159.0801	35	C11H11O+
160.0518	22	C10H8O2+
161.0594	17	C10H9O2+
165.0699	232	C13H9+
166.0779	43	C13H10+
168.0569	91	C12H8O+
169.0648	606	C12H9O+
170.0727	121	C12H10O+
171.044	23	C11H7O2+
173.0593	24	C11H9O2+
178.0774	42	C14H10+
181.0648	564	C13H9O+
182.0727	124	C13H10O+
183.044	832	C12H7O2+
184.0513	21	C12H8O2+
189.0701	22	C15H9+
197.0597	207	C13H9O2+
198.0674	209	C13H10O2+
