Mass spectrum: Tetrahydropalmatin; LC-ESI-ITFT; MS2; CE: 50%; R=15000; [M+H]+
Name: Tetrahydropalmatin
Name: D-Tetrahydropalmatine
Name: (13aR)-2,3,9,10-tetramethoxy-6,8,13,13a-tetrahydro-5H-isoquinolino[2,1-b]isoquinoline
Formula: C21H25NO4
Exact mass: 355.1784
SMILES: COC1=C(C2=C(C[C@@H]3C4=CC(=C(C=C4CCN3C2)OC)OC)C=C1)OC
InChI: InChI=1S/C21H25NO4/c1-23-18-6-5-13-9-17-15-11-20(25-3)19(24-2)10-14(15)7-8-22(17)12-16(13)21(18)26-4/h5-6,10-11,17H,7-9,12H2,1-4H3/t17-/m1/s1
Instrument: LTQ Orbitrap XL Thermo Scientific
Instrument type: LC-ESI-ITFT
Ms type: MS2
Ion mode: POSITIVE
Ionization: ESI
Fragmentation mode: HCD
Collision energy: 50% (nominal)
Resolution: 15000
Column name: Kinetex Evo C18 2.6 um 50 x 2.1 mm
Retention time: 7.439 min
Base peak: 356.1855
Precursor m/z: 356.1856
Precursor type: [M+H]+
m/z	relative intensity	assigned
105.0698	5	C8H9+
133.0647	5	C9H9O+
134.0725	3	C9H10O+
135.0804	4	C9H11O+
136.0521	1	C8H8O2+
148.0758	2	C9H10NO+
150.0675	48	C9H10O2+
151.0751	17	C9H11O2+
159.0682	1	C10H9NO+
165.091	227	C10H13O2+
174.0671	1	C11H10O2+
175.075	1	C11H11O2+
176.0708	5	C10H10NO2+
177.0784	17	C10H11NO2+
189.0911	7	C12H13O2+
190.0864	22	C11H12NO2+
192.1018	999	C11H14NO2+
204.1018	7	C12H14NO2+
205.1098	11	C12H15NO2+
265.1225	1	C18H17O2+
281.1173	1	C18H17O3+
293.1174	6	C19H17O3+
295.1334	1	C19H19O3+
296.1401	2	C19H20O3+
298.1434	1	C18H20NO3+
309.1121	2	C19H17O4+
310.143	2	C19H20NO3+
311.1511	1	C19H21NO3+
312.136	1	C19H20O4+
312.1594	4	C19H22NO3+
322.1435	4	C20H20NO3+
323.152	2	C20H21NO3+
324.1348	2	C20H20O4+
324.1592	3	C20H22NO3+
326.1389	4	C19H20NO4+
327.158	1	C20H23O4+
339.1583	1	C21H23O4+
340.1541	16	C20H22NO4+
341.1617	7	C20H23NO4+
356.1855	54	C21H26NO4+
