Mass spectrum: (+)-Lupanine; LC-ESI-ITFT; MS2; CE: 90%; R=15000; [M+H]+
Name: (+)-Lupanine
Formula: C15H24N2O
Exact mass: 248.1889
SMILES: C1CCN2CC3CC(C2C1)CN4C3CCCC4=O
InChI: InChI=1S/C15H24N2O/c18-15-6-3-5-14-11-8-12(10-17(14)15)13-4-1-2-7-16(13)9-11/h11-14H,1-10H2
Instrument: LTQ Orbitrap XL Thermo Scientific
Instrument type: LC-ESI-ITFT
Ms type: MS2
Ion mode: POSITIVE
Ionization: ESI
Fragmentation mode: HCD
Collision energy: 90 % (nominal)
Resolution: 15000
Column name: Kinetex Evo C18 2.6 um 50 x 2.1 mm
Retention time: 0.491 min
Base peak: 249.1956
Precursor m/z: 249.1961
Precursor type: [M+H]+
m/z	relative intensity	assigned
67.0542	32	C5H7+
70.0651	174	C4H8N+
79.0543	26	C6H7+
80.0495	72	C5H6N+
81.0697	22	C6H9+
82.0651	35	C5H8N+
84.0807	200	C5H10N+
85.0648	81	C5H9O+
91.0542	34	C7H7+
93.0699	32	C7H9+
94.0651	33	C6H8N+
95.0855	17	C7H11+
96.0807	80	C6H10N+
98.06	30	C5H8NO+
98.0964	169	C6H12N+
100.0756	10	C5H10NO+
105.0698	25	C8H9+
107.0854	17	C8H11+
108.0807	43	C7H10N+
109.0884	15	C7H11N+
110.0599	11	C6H8NO+
110.0964	32	C7H12N+
112.0756	152	C6H10NO+
112.112	13	C7H14N+
114.0913	245	C6H12NO+
119.0853	9	C9H11+
120.0809	9	C8H10N+
122.0964	41	C8H12N+
124.0755	11	C7H10NO+
124.112	32	C8H14N+
131.0851	5	C10H11+
133.1013	14	C10H13+
134.0964	101	C9H12N+
135.1042	10	C9H13N+
136.112	502	C9H14N+
138.0914	6	C8H12NO+
138.1278	19	C9H16N+
148.1121	49	C10H14N+
150.0913	21	C9H12NO+
150.1277	339	C10H16N+
152.1066	21	C9H14NO+
152.1432	55	C10H18N+
162.1276	8	C11H16N+
164.1067	9	C10H14NO+
166.1227	5	C10H16NO+
174.1275	10	C12H16N+
176.1074	7	C11H14NO+
176.1434	12	C12H18N+
189.1383	11	C12H17N2+
190.1585	8	C13H20N+
204.1381	18	C13H18NO+
218.1548	7	C14H20NO+
231.1854	13	C15H23N2+
247.1805	55	C15H23N2O+
249.1961	999	C15H25N2O+
