Mass spectrum: Conessine; LC-ESI-ITFT; MS2; CE: 80%; R=15000; [M+H]+
Name: Conessine
Formula: C24H40N2
Exact mass: 356.3191
SMILES: C[C@H]1[C@H]2CC[C@H]3[C@@H]4CC=C5C[C@H](CC[C@]5(C)[C@H]4CC[C@]23CN1C)N(C)C
InChI: InChI=1S/C24H40N2/c1-16-20-8-9-22-19-7-6-17-14-18(25(3)4)10-12-23(17,2)21(19)11-13-24(20,22)15-26(16)5/h6,16,18-22H,7-15H2,1-5H3/t16-,18-,19+,20+,21-,22-,23-,24-/m0/s1
Instrument: LTQ Orbitrap XL Thermo Scientific
Instrument type: LC-ESI-ITFT
Ms type: MS2
Ion mode: POSITIVE
Ionization: ESI
Fragmentation mode: CID
Collision energy: 80 % (nominal)
Resolution: 15000
Column name: Kinetex Evo C18 2.6 um 50 x 2.1 mm
Retention time: 5.398 min
Base peak: 179.1666
Precursor m/z: 357.3264
Precursor type: [M+H]+
m/z	relative intensity	assigned
105.0698	15	C8H9+
107.0854	2	C8H11+
109.1011	4	C8H13+
115.054	6	C9H7+
117.0698	14	C9H9+
119.0855	22	C9H11+
121.101	8	C9H13+
123.1168	2	C9H15+
128.0617	2	C10H8+
129.0698	10	C10H9+
130.0777	2	C10H10+
131.0854	41	C10H11+
133.1011	28	C10H13+
135.1168	12	C10H15+
143.0855	8	C11H11+
144.0935	3	C11H12+
145.1011	44	C11H13+
147.1167	66	C11H15+
149.1325	7	C11H17+
155.0854	3	C12H11+
157.1012	14	C12H13+
159.1168	151	C12H15+
161.1324	124	C12H17+
169.1011	2	C13H13+
171.1168	18	C13H15+
173.1325	74	C13H17+
175.148	10	C13H19+
185.1324	19	C14H17+
187.148	92	C14H19+
199.1479	27	C15H19+
201.1639	11	C15H21+
211.1484	4	C16H19+
213.1636	24	C16H21+
227.179	19	C17H23+
240.1869	5	C18H24+
241.1948	4	C18H25+
269.2262	195	C20H29+
281.2262	3	C21H29+
298.2527	5	C21H32N+
299.2608	10	C21H33N+
312.2684	999	C22H34N+
326.2848	5	C23H36N+
