Mass spectrum: Valerophenone; LC-ESI-ITFT; MS2; CE: 70%; R=15000; [M+H]+
Name: Valerophenone
Formula: C11H14O
Exact mass: 162.1045
SMILES: CCCCC(=O)C1=CC=CC=C1
InChI: InChI=1S/C11H14O/c1-2-3-9-11(12)10-7-5-4-6-8-10/h4-8H,2-3,9H2,1H3
Instrument: LTQ Orbitrap XL Thermo Scientific
Instrument type: LC-ESI-ITFT
Ms type: MS2
Ion mode: POSITIVE
Ionization: ESI
Fragmentation mode: CID
Collision energy: 70 % (nominal)
Resolution: 15000
Column name: Kinetex Evo C18 2.6 um 50 x 2.1 mm
Retention time: 11.570 min
Base peak: 305.1357
Precursor m/z: 163.1117
Precursor type: [M+H]+
m/z	relative intensity	assigned
57.0698	823	C4H9+
67.0542	11	C5H7+
79.0543	75	C6H7+
81.0697	7	C6H9+
85.0649	466	C5H9O+
91.0543	233	C7H7+
93.0701	11	C7H9+
105.07	119	C8H9+
107.0492	707	C7H7O+
117.07	70	C9H9+
119.0857	50	C9H11+
121.0649	181	C8H9O+
121.1011	17	C9H13+
133.1013	5	C10H13+
135.0805	9	C9H11O+
135.117	10	C10H15+
145.1013	999	C11H13+
