Mass spectrum: Gelsemine; LC-ESI-ITFT; MS2; CE: 75%; R=15000; [M+H]+
Name: Gelsemine
Name: (2`S,3S,5`S,6`S,11`S)-2`-ethenyl-4`-methylspiro[1H-indole-3,7`-9-oxa-4-azatetracyclo[6.3.1.02,6.05,11]dodecane]-2-one
Formula: C20H22N2O2
Exact mass: 322.1681
SMILES: CN1C[C@@]2([C@@H]3[C@H]1[C@@H]4C2CC([C@@]35c6ccccc6NC5=O)OC4)C=C
InChI: InChI=1S/C20H22N2O2/c1-3-19-10-22(2)16-11-9-24-15(8-13(11)19)20(17(16)19)12-6-4-5-7-14(12)21-18(20)23/h3-7,11,13,15-17H,1,8-10H2,2H3,(H,21,23)/t11-,13?,15?,16+,17-,19-,20-/m0/s1
Instrument: LTQ Orbitrap XL Thermo Scientific
Instrument type: LC-ESI-ITFT
Ms type: MS2
Ion mode: POSITIVE
Ionization: ESI
Fragmentation mode: HCD
Collision energy: 75% (nominal)
Resolution: 15000
Column name: Kinetex Evo C18 2.6 um 50 x 2.1 mm
Retention time: 1.781 min
Base peak: 323.1753
Precursor m/z: 323.1754
Precursor type: [M+H]+
m/z	relative intensity	assigned
70.0651	999	C4H8N+
79.0543	7	C6H7+
86.0601	36	C4H8NO+
88.0757	20	C4H10NO+
91.0543	62	C7H7+
94.0654	9	C6H8N+
105.0698	32	C8H9+
108.0808	12	C7H10N+
115.0542	26	C9H7+
116.0623	15	C9H8+
117.0699	114	C9H9+
120.0809	16	C8H10N+
121.0881	7	C8H11N+
128.0494	9	C9H6N+
129.0698	23	C10H9+
130.0652	30	C9H8N+
131.0856	97	C10H11+
132.0444	78	C8H6NO+
134.0965	35	C9H12N+
141.0693	6	C11H9+
146.06	89	C9H8NO+
146.0964	19	C10H12N+
148.112	22	C10H14N+
158.0601	71	C10H8NO+
159.0802	15	C11H11O+
160.1124	8	C11H14N+
162.1278	12	C11H16N+
167.0728	7	C12H9N+
172.0755	8	C11H10NO+
178.0653	17	C13H8N+
180.0808	17	C13H10N+
182.0606	6	C12H8NO+
183.0684	11	C12H9NO+
184.0755	23	C12H10NO+
190.0649	6	C14H8N+
190.1226	8	C12H16NO+
191.1314	6	C12H17NO+
192.0809	11	C14H10N+
193.0883	8	C14H11N+
195.0679	241	C13H9NO+
196.0758	114	C13H10NO+
203.073	21	C15H9N+
204.0809	9	C15H10N+
206.0962	6	C15H12N+
208.0757	62	C14H10NO+
209.0838	10	C14H11NO+
210.0913	110	C14H12NO+
216.0807	8	C16H10N+
217.0883	26	C16H11N+
218.0963	82	C16H12N+
220.0756	9	C15H10NO+
220.112	8	C16H14N+
221.0839	6	C15H11NO+
222.0916	12	C15H12NO+
230.0962	10	C17H12N+
233.0846	8	C16H11NO+
234.0913	14	C16H12NO+
236.107	292	C16H14NO+
238.1224	24	C16H16NO+
246.0904	5	C17H12NO+
248.1065	6	C17H14NO+
323.1757	23	C20H23N2O2+
