Mass spectrum: Protopin; LC-ESI-ITFT; MS2; CE: 55%; R=15000; [M+H]+
Name: Protopin
Name: Protopine
Name: 15-methyl-7,9,19,21-tetraoxa-15-azapentacyclo[15.7.0.04,12.06,10.018,22]tetracosa-1(17),4,6(10),11,18(22),23-hexaen-3-one
Formula: C20H19NO5
Exact mass: 353.1263
SMILES: CN1CCC2=CC3=C(C=C2C(=O)CC4=C(C1)C5=C(C=C4)OCO5)OCO3
InChI: InChI=1S/C20H19NO5/c1-21-5-4-13-7-18-19(25-10-24-18)8-14(13)16(22)6-12-2-3-17-20(15(12)9-21)26-11-23-17/h2-3,7-8H,4-6,9-11H2,1H3
Instrument: LTQ Orbitrap XL Thermo Scientific
Instrument type: LC-ESI-ITFT
Ms type: MS2
Ion mode: POSITIVE
Ionization: ESI
Fragmentation mode: HCD
Collision energy: 55% (nominal)
Resolution: 15000
Column name: Kinetex Evo C18 2.6 um 50 x 2.1 mm
Retention time: 6.747 min
Base peak: 354.1337
Precursor m/z: 354.1336
Precursor type: [M+H]+
m/z	relative intensity	assigned
91.0543	16	C7H7+
107.0492	32	C7H7O+
109.0652	4	C7H9O+
119.0492	34	C8H7O+
135.0441	78	C8H7O2+
147.0441	26	C9H7O2+
149.0598	387	C9H9O2+
159.0442	9	C10H7O2+
160.0755	7	C10H10NO+
161.0601	10	C10H9O2+
163.0391	34	C9H7O3+
165.0547	198	C9H9O3+
173.0602	8	C11H9O2+
175.039	75	C10H7O3+
176.0708	24	C10H10NO2+
177.0546	9	C10H9O3+
177.0786	34	C10H11NO2+
178.0864	34	C10H12NO2+
187.0391	10	C11H7O3+
188.0707	888	C11H10NO2+
189.0785	999	C11H11NO2+
190.0864	35	C11H12NO2+
192.1024	5	C11H14NO2+
195.0805	76	C14H11O+
201.0784	3	C12H11NO2+
202.0859	3	C12H12NO2+
204.0653	10	C11H10NO3+
206.0812	209	C11H12NO3+
207.0805	43	C15H11O+
209.0597	11	C14H9O2+
217.0649	25	C16H9O+
223.0754	31	C15H11O2+
225.0912	33	C15H13O2+
235.0754	100	C16H11O2+
237.0545	29	C15H9O3+
237.091	44	C16H13O2+
245.0595	12	C17H9O2+
247.0755	161	C17H11O2+
249.0908	14	C17H13O2+
251.0701	4	C16H11O3+
253.0864	17	C16H13O3+
263.0705	35	C17H11O3+
265.086	94	C17H13O3+
267.0653	58	C16H11O4+
275.0704	192	C18H11O3+
277.0859	7	C18H13O3+
278.1179	23	C18H16NO2+
281.0809	5	C17H13O4+
283.097	4	C17H15O4+
292.073	3	C18H12O4+
293.081	48	C18H13O4+
295.0966	34	C18H15O4+
305.081	20	C19H13O4+
306.1129	18	C19H16NO3+
307.0958	5	C19H15O4+
311.0918	10	C18H15O5+
320.0919	25	C19H14NO4+
321.0995	26	C19H15NO4+
323.0915	24	C19H15O5+
334.1075	22	C20H16NO4+
336.1233	64	C20H18NO4+
354.1339	143	C20H20NO5+
