Mass spectrum: Coniferaldehyde; LC-ESI-ITFT; MS2; CE: 75%; R=15000; [M+H]+
Name: Coniferaldehyde
Formula: C10H10O3
Exact mass: 178.0630
SMILES: COC1=CC(\C=C\C=O)=CC=C1O
InChI: InChI=1S/C10H10O3/c1-13-10-7-8(3-2-6-11)4-5-9(10)12/h2-7,12H,1H3/b3-2+
Instrument: LTQ Orbitrap XL Thermo Scientific
Instrument type: LC-ESI-ITFT
Ms type: MS2
Ion mode: POSITIVE
Ionization: ESI
Fragmentation mode: CID
Collision energy: 75 % (nominal)
Resolution: 15000
Column name: Kinetex Evo C18 2.6 um 50 x 2.1 mm
Retention time: 7.281 min
Base peak: 179.0702
Precursor m/z: 179.0703
Precursor type: [M+H]+
m/z	relative intensity	assigned
55.0178	9	C3H3O+
91.0543	3	C7H7+
95.0492	10	C6H7O+
103.0546	1	C8H7+
105.07	35	C8H9+
107.0492	1	C7H7O+
109.0284	1	C6H5O2+
115.0543	9	C9H7+
119.0493	41	C8H7O+
123.0442	28	C7H7O2+
123.0804	2	C8H11O+
131.0493	1	C9H7O+
133.0649	140	C9H9O+
135.0441	8	C8H7O2+
137.0599	9	C8H9O2+
143.0492	1	C10H7O+
146.0367	1	C9H6O2+
147.0442	999	C9H7O2+
149.0597	3	C9H9O2+
151.0755	14	C9H11O2+
161.0598	972	C10H9O2+
164.0468	3	C9H8O3+
