Mass spectrum: Valerophenone; LC-ESI-ITFT; MS2; CE: 30%; R=15000; [M+H]+
Name: Valerophenone
Formula: C11H14O
Exact mass: 162.1045
SMILES: CCCCC(=O)C1=CC=CC=C1
InChI: InChI=1S/C11H14O/c1-2-3-9-11(12)10-7-5-4-6-8-10/h4-8H,2-3,9H2,1H3
Instrument: LTQ Orbitrap XL Thermo Scientific
Instrument type: LC-ESI-ITFT
Ms type: MS2
Ion mode: POSITIVE
Ionization: ESI
Fragmentation mode: CID
Collision energy: 30 % (nominal)
Resolution: 15000
Column name: Kinetex Evo C18 2.6 um 50 x 2.1 mm
Retention time: 11.605 min
Base peak: 440.3517
Precursor m/z: 163.1117
Precursor type: [M+H]+
m/z	relative intensity	assigned
57.0697	793	C4H9+
79.0543	75	C6H7+
85.0649	471	C5H9O+
91.0543	223	C7H7+
105.0699	106	C8H9+
107.0492	702	C7H7O+
117.0699	67	C9H9+
119.0856	44	C9H11+
121.0648	169	C8H9O+
121.101	12	C9H13+
145.1012	999	C11H13+
163.112	18	C11H15O+
