Mass spectrum: Coniferaldehyde; LC-ESI-ITFT; MS2; CE: 75%; R=15000; [M+H]+
Name: Coniferaldehyde
Formula: C10H10O3
Exact mass: 178.0630
SMILES: COC1=CC(\C=C\C=O)=CC=C1O
InChI: InChI=1S/C10H10O3/c1-13-10-7-8(3-2-6-11)4-5-9(10)12/h2-7,12H,1H3/b3-2+
Instrument: LTQ Orbitrap XL Thermo Scientific
Instrument type: LC-ESI-ITFT
Ms type: MS2
Ion mode: POSITIVE
Ionization: ESI
Fragmentation mode: HCD
Collision energy: 75 % (nominal)
Resolution: 15000
Column name: Kinetex Evo C18 2.6 um 50 x 2.1 mm
Retention time: 7.411 min
Base peak: 179.0702
Precursor m/z: 179.0703
Precursor type: [M+H]+
m/z	relative intensity	assigned
65.0386	21	C5H5+
77.0386	24	C6H5+
79.0543	79	C6H7+
80.0621	50	C6H8+
89.0386	14	C7H5+
90.0465	40	C7H6+
91.0543	999	C7H7+
92.0257	3	C6H4O+
94.0414	27	C6H6O+
95.0492	19	C6H7O+
102.0462	5	C8H6+
103.0543	85	C8H7+
105.0699	120	C8H9+
107.0492	95	C7H7O+
108.0571	49	C7H8O+
110.0367	4	C6H6O2+
115.0544	40	C9H7+
118.0414	158	C8H6O+
119.0492	610	C8H7O+
121.0286	5	C7H5O2+
122.0364	16	C7H6O2+
123.0441	21	C7H7O2+
131.0492	15	C9H7O+
133.0649	128	C9H9O+
135.0441	80	C8H7O2+
136.052	293	C8H8O2+
137.0598	17	C8H9O2+
146.0364	241	C9H6O2+
147.0442	221	C9H7O2+
148.0517	6	C9H8O2+
149.0602	5	C9H9O2+
150.0677	21	C9H10O2+
161.0599	82	C10H9O2+
163.0387	9	C9H7O3+
164.047	19	C9H8O3+
