Mass spectrum: Brucine; LC-ESI-ITFT; MS2; CE: 95%; R=15000; [M+H]+
Name: Brucine
Name: (-)-Brucine
Name: (4aR,5aS,8aR,15bR)-10,11-dimethoxy-4a,5,5a,7,8,13a,15,15a,15b,16-decahydro-2H-4,6-methanoindolo[3,2,1-ij]oxepino[2,3,4-de]pyrrolo[2,3-h]quinolin-14-one
Formula: C23H26N2O4
Exact mass: 394.1893
SMILES: COc1cc2c(cc1OC)N3C4[C@]25CCN6[C@H]5C[C@@H]7[C@H]4C(CC3=O)OCC=C7C6
InChI: InChI=1S/C23H26N2O4/c1-27-16-8-14-15(9-17(16)28-2)25-20(26)10-18-21-13-7-19-23(14,22(21)25)4-5-24(19)11-12(13)3-6-29-18/h3,8-9,13,18-19,21-22H,4-7,10-11H2,1-2H3/t13-,18?,19-,21-,22?,23+/m0/s1
Instrument: LTQ Orbitrap XL Thermo Scientific
Instrument type: LC-ESI-ITFT
Ms type: MS2
Ion mode: POSITIVE
Ionization: ESI
Fragmentation mode: HCD
Collision energy: 95% (nominal)
Resolution: 15000
Column name: Kinetex Evo C18 2.6 um 50 x 2.1 mm
Retention time: 5.946 min
Base peak: 395.1964
Precursor m/z: 395.1965
Precursor type: [M+H]+
m/z	relative intensity	assigned
67.0543	31	C5H7+
77.0387	24	C6H5+
79.0543	73	C6H7+
80.0495	67	C5H6N+
81.0699	53	C6H9+
82.0654	17	C5H8N+
91.0542	89	C7H7+
93.0573	125	C6H7N+
94.0651	66	C6H8N+
95.0493	25	C6H7O+
96.0809	63	C6H10N+
106.0651	210	C7H8N+
107.0731	20	C7H9N+
108.0808	98	C7H10N+
115.0543	18	C9H7+
117.0701	21	C9H9+
120.0809	19	C8H10N+
122.0599	77	C7H8NO+
124.0757	32	C7H10NO+
129.07	25	C10H9+
130.0652	47	C9H8N+
132.081	20	C9H10N+
133.0517	16	C8H7NO+
142.0654	30	C10H8N+
143.0722	22	C10H9N+
144.0809	40	C10H10N+
146.06	101	C9H8NO+
147.0679	60	C9H9NO+
148.0391	47	C8H6NO2+
148.0757	25	C9H10NO+
154.065	75	C11H8N+
155.0731	31	C11H9N+
156.0808	64	C11H10N+
158.0601	126	C10H8NO+
159.0681	35	C10H9NO+
160.0759	101	C10H10NO+
162.0549	20	C9H8NO2+
163.0631	21	C9H9NO2+
166.0654	21	C12H8N+
167.0737	15	C12H9N+
169.0524	42	C11H7NO+
170.0601	479	C11H8NO+
171.0679	38	C11H9NO+
172.0757	233	C11H10NO+
173.0833	31	C11H11NO+
174.0549	43	C10H8NO2+
174.0675	37	C11H10O2+
175.0633	19	C10H9NO2+
176.0704	31	C10H10NO2+
177.0778	17	C10H11NO2+
178.0861	34	C10H12NO2+
180.0804	27	C13H10N+
182.0601	133	C12H8NO+
183.0677	148	C12H9NO+
184.0758	293	C12H10NO+
185.0835	737	C12H11NO+
186.055	277	C11H8NO2+
186.0911	60	C12H12NO+
187.0628	27	C11H9NO2+
188.0703	58	C11H10NO2+
188.1078	21	C12H14NO+
189.0788	17	C11H11NO2+
190.0861	69	C11H12NO2+
191.0732	16	C14H9N+
192.066	29	C10H10NO3+
192.0806	18	C14H10N+
193.0887	22	C14H11N+
194.0606	33	C13H8NO+
194.0963	26	C14H12N+
196.0757	92	C13H10NO+
197.0837	129	C13H11NO+
198.0549	662	C12H8NO2+
198.0913	54	C13H12NO+
199.0626	57	C12H9NO2+
200.0706	227	C12H10NO2+
201.0785	205	C12H11NO2+
202.0862	37	C12H12NO2+
204.0809	33	C15H10N+
205.0879	21	C15H11N+
206.0599	19	C14H8NO+
206.0962	56	C15H12N+
207.0689	25	C14H9NO+
208.0756	101	C14H10NO+
209.0835	88	C14H11NO+
210.0549	25	C13H8NO2+
210.0912	122	C14H12NO+
211.0629	42	C13H9NO2+
212.0706	237	C13H10NO2+
213.0783	999	C13H11NO2+
214.0497	434	C12H8NO3+
214.0861	63	C13H12NO2+
215.0944	19	C13H13NO2+
216.1018	440	C13H14NO2+
217.0887	37	C16H11N+
218.0967	35	C16H12N+
220.0755	124	C15H10NO+
221.0839	73	C15H11NO+
222.055	27	C14H8NO2+
222.091	95	C15H12NO+
223.0994	61	C15H13NO+
224.0702	101	C14H10NO2+
224.107	20	C15H14NO+
225.0784	47	C14H11NO2+
226.0864	99	C14H12NO2+
227.0945	60	C14H13NO2+
228.0656	154	C13H10NO3+
228.1017	46	C14H14NO2+
229.0733	431	C13H11NO3+
230.081	18	C13H12NO3+
232.0752	60	C16H10NO+
233.0832	59	C16H11NO+
234.0554	32	C15H8NO2+
234.0912	169	C16H12NO+
235.0991	71	C16H13NO+
236.0705	260	C15H10NO2+
236.1071	133	C16H14NO+
237.0786	32	C15H11NO2+
238.0859	94	C15H12NO2+
239.0938	34	C15H13NO2+
240.0651	29	C14H10NO3+
240.1019	32	C15H14NO2+
241.0735	18	C14H11NO3+
242.0812	20	C14H12NO3+
243.0886	21	C14H13NO3+
244.0967	200	C14H14NO3+
246.0542	46	C16H8NO2+
246.091	47	C17H12NO+
247.099	43	C17H13NO+
248.0705	85	C16H10NO2+
248.1069	99	C17H14NO+
249.0785	60	C16H11NO2+
249.1142	29	C17H15NO+
250.0864	88	C16H12NO2+
250.1232	29	C17H16NO+
251.094	108	C16H13NO2+
252.0652	92	C15H10NO3+
252.1024	56	C16H14NO2+
254.082	29	C15H12NO3+
254.1175	78	C16H16NO2+
258.0908	30	C18H12NO+
260.1068	45	C18H14NO+
262.0866	62	C17H12NO2+
263.0942	92	C17H13NO2+
264.0659	66	C16H10NO3+
264.1019	129	C17H14NO2+
265.0723	28	C16H11NO3+
265.11	20	C17H15NO2+
266.1183	32	C17H16NO2+
267.0885	39	C16H13NO3+
274.0872	29	C18H12NO2+
276.1019	57	C18H14NO2+
278.1168	76	C18H16NO2+
280.0972	39	C17H14NO3+
288.1022	33	C19H14NO2+
292.0978	20	C18H14NO3+
306.1123	47	C19H16NO3+
337.1551	27	C20H21N2O3+
