Mass spectrum: alpha-Cyperone; LC-ESI-ITFT; MS2; CE: 30%; R=15000; [M+H]+
Name: alpha-Cyperone
Formula: C15H22O
Exact mass: 218.1671
SMILES: CC1=C2CC(CCC2(CCC1=O)C)C(=C)C
InChI: InChI=1S/C15H22O/c1-10(2)12-5-7-15(4)8-6-14(16)11(3)13(15)9-12/h12H,1,5-9H2,2-4H3
Instrument: LTQ Orbitrap XL Thermo Scientific
Instrument type: LC-ESI-ITFT
Ms type: MS2
Ion mode: POSITIVE
Ionization: ESI
Fragmentation mode: HCD
Collision energy: 30 % (nominal)
Resolution: 15000
Column name: Kinetex Evo C18 2.6 um 50 x 2.1 mm
Retention time: 13.110 min
Base peak: 219.1741
Precursor m/z: 219.1743
Precursor type: [M+H]+
m/z	relative intensity	assigned
67.054	7	C5H7+
81.0699	13	C6H9+
93.07	4	C7H9+
95.0855	13	C7H11+
97.0647	32	C6H9O+
105.0701	6	C8H9+
107.0854	14	C8H11+
109.1011	49	C8H13+
111.0804	53	C7H11O+
119.0854	12	C9H11+
121.101	17	C9H13+
123.0804	23	C8H11O+
123.1166	16	C9H15+
131.0853	6	C10H11+
133.1014	4	C10H13+
135.0804	18	C9H11O+
135.1168	10	C10H15+
137.0962	11	C9H13O+
145.1011	21	C11H13+
147.1166	19	C11H15+
149.0961	6	C10H13O+
159.1166	21	C12H15+
161.1322	24	C12H17+
163.1117	58	C11H15O+
173.1326	17	C13H17+
177.1269	5	C12H17O+
191.1799	6	C14H23+
201.1637	73	C15H21+
219.1742	999	C15H23O+
