Mass spectrum: Intermedine N-oxide; LC-ESI-ITFT; MS2; CE: 75%; R=15000; [M+H]+
Name: Intermedine N-oxide
Name: [(7R,8R)-7-hydroxy-4-oxido-5,6,7,8-tetrahydro-3H-pyrrolizin-4-ium-1-yl]methyl (2S)-2-hydroxy-2-[(1R)-1-hydroxyethyl]-3-methylbutanoate
Formula: C15H25NO6
Exact mass: 315.1682
SMILES: C[C@H]([C@@](C(C)C)(C(=O)OCC1=CC[N+]2([C@H]1[C@@H](CC2)O)[O-])O)O
InChI: InChI=1S/C15H25NO6/c1-9(2)15(20,10(3)17)14(19)22-8-11-4-6-16(21)7-5-12(18)13(11)16/h4,9-10,12-13,17-18,20H,5-8H2,1-3H3/t10-,12-,13-,15+,16?/m1/s1
Instrument: LTQ Orbitrap XL Thermo Scientific
Instrument type: LC-ESI-ITFT
Ms type: MS2
Ion mode: POSITIVE
Ionization: ESI
Fragmentation mode: HCD
Collision energy: 75% (nominal)
Resolution: 15000
Column name: Kinetex Evo C18 2.6 um 50 x 2.1 mm
Retention time: 1.205 min
Base peak: 143.0015
Precursor m/z: 316.1755
Precursor type: [M+H]+
m/z	relative intensity	assigned
67.054	13	C5H7+
68.0495	38	C4H6N+
79.0544	13	C6H7+
80.0495	100	C5H6N+
81.0573	12	C5H7N+
81.0699	12	C6H9+
82.0413	54	C5H6O+
82.065	51	C5H8N+
83.0492	81	C5H7O+
84.0805	10	C5H10N+
93.0573	374	C6H7N+
94.0651	599	C6H8N+
95.0732	15	C6H9N+
96.0445	18	C5H6NO+
96.0807	15	C6H10N+
98.0601	33	C5H8NO+
100.076	9	C5H10NO+
102.0549	35	C4H8NO2+
106.0651	63	C7H8N+
108.0807	62	C7H10N+
109.0649	13	C7H9O+
109.0887	9	C7H11N+
110.0598	44	C6H8NO+
111.0678	474	C6H9NO+
112.0756	44	C6H10NO+
124.0753	22	C7H10NO+
126.0911	21	C7H12NO+
128.0706	28	C6H10NO2+
136.0756	214	C8H10NO+
137.0836	70	C8H11NO+
138.0913	579	C8H12NO+
140.0704	15	C7H10NO2+
154.0862	65	C8H12NO2+
155.0941	154	C8H13NO2+
172.0968	999	C8H14NO3+
316.1768	12	C15H26NO6+
