Mass spectrum: Alpinetin; LC-ESI-ITFT; MS2; CE: 125%; R=15000; [M+H]+
Name: Alpinetin
Formula: C16H14O4
Exact mass: 270.0892
SMILES: COC1=C2C(=O)CC(OC2=CC(=C1)O)C3=CC=CC=C3
InChI: InChI=1S/C16H14O4/c1-19-14-7-11(17)8-15-16(14)12(18)9-13(20-15)10-5-3-2-4-6-10/h2-8,13,17H,9H2,1H3
Instrument: LTQ Orbitrap XL Thermo Scientific
Instrument type: LC-ESI-ITFT
Ms type: MS2
Ion mode: POSITIVE
Ionization: ESI
Fragmentation mode: HCD
Collision energy: 125 % (nominal)
Resolution: 15000
Column name: Kinetex Evo C18 2.6 um 50 x 2.1 mm
Retention time: 10.226 min
Base peak: 217.0495
Precursor m/z: 271.0965
Precursor type: [M+H]+
m/z	relative intensity	assigned
50.015	219	C4H2+
53.0384	18	C4H5+
55.0177	8	C3H3O+
65.0385	20	C5H5+
67.0178	113	C4H3O+
68.0257	156	C4H4O+
68.9971	532	C3HO2+
71.0126	15	C3H3O2+
77.0386	338	C6H5+
78.01	222	C5H2O+
79.0179	33	C5H3O+
79.0542	34	C6H7+
81.0335	75	C5H5O+
91.0542	62	C7H7+
95.0127	15	C5H3O2+
95.0491	53	C6H7O+
96.0205	391	C5H4O2+
97.0282	11	C5H5O2+
99.044	12	C5H7O2+
102.0464	21	C8H6+
103.0542	528	C8H7+
109.0287	6	C6H5O2+
111.0077	81	C5H3O3+
111.044	21	C6H7O2+
115.0543	9	C9H7+
124.0155	999	C6H4O3+
131.0498	11	C9H7O+
137.0237	8	C7H5O3+
152.0104	179	C7H4O4+
165.0697	8	C13H9+
167.034	61	C8H7O4+
