Mass spectrum: Alpinetin; LC-ESI-ITFT; MS2; CE: 90%; R=15000; [M+H]+
Name: Alpinetin
Formula: C16H14O4
Exact mass: 270.0892
SMILES: COC1=C2C(=O)CC(OC2=CC(=C1)O)C3=CC=CC=C3
InChI: InChI=1S/C16H14O4/c1-19-14-7-11(17)8-15-16(14)12(18)9-13(20-15)10-5-3-2-4-6-10/h2-8,13,17H,9H2,1H3
Instrument: LTQ Orbitrap XL Thermo Scientific
Instrument type: LC-ESI-ITFT
Ms type: MS2
Ion mode: POSITIVE
Ionization: ESI
Fragmentation mode: CID
Collision energy: 90 % (nominal)
Resolution: 15000
Column name: Kinetex Evo C18 2.6 um 50 x 2.1 mm
Retention time: 10.226 min
Base peak: 217.0495
Precursor m/z: 271.0965
Precursor type: [M+H]+
m/z	relative intensity	assigned
103.0543	4	C8H7+
105.0337	1	C7H5O+
131.0492	53	C9H7O+
152.0104	2	C7H4O4+
165.0546	1	C9H9O3+
167.0339	999	C8H7O4+
169.0653	1	C12H9O+
197.0593	1	C13H9O2+
201.0916	1	C13H13O2+
203.1065	4	C13H15O2+
225.0911	1	C15H13O2+
229.086	84	C14H13O3+
239.0707	1	C15H11O3+
243.1015	1	C15H15O3+
253.086	12	C16H13O3+
