Mass spectrum: Protopin; LC-ESI-ITFT; MS2; CE: 95%; R=15000; [M+H]+
Name: Protopin
Name: Protopine
Name: 15-methyl-7,9,19,21-tetraoxa-15-azapentacyclo[15.7.0.04,12.06,10.018,22]tetracosa-1(17),4,6(10),11,18(22),23-hexaen-3-one
Formula: C20H19NO5
Exact mass: 353.1263
SMILES: CN1CCC2=CC3=C(C=C2C(=O)CC4=C(C1)C5=C(C=C4)OCO5)OCO3
InChI: InChI=1S/C20H19NO5/c1-21-5-4-13-7-18-19(25-10-24-18)8-14(13)16(22)6-12-2-3-17-20(15(12)9-21)26-11-23-17/h2-3,7-8H,4-6,9-11H2,1H3
Instrument: LTQ Orbitrap XL Thermo Scientific
Instrument type: LC-ESI-ITFT
Ms type: MS2
Ion mode: POSITIVE
Ionization: ESI
Fragmentation mode: HCD
Collision energy: 95% (nominal)
Resolution: 15000
Column name: Kinetex Evo C18 2.6 um 50 x 2.1 mm
Retention time: 6.681 min
Base peak: 354.1335
Precursor m/z: 354.1336
Precursor type: [M+H]+
m/z	relative intensity	assigned
65.0385	7	C5H5+
77.0385	49	C6H5+
79.0542	68	C6H7+
89.0385	17	C7H5+
91.0542	231	C7H7+
93.0697	11	C7H9+
94.0415	3	C6H6O+
95.049	6	C6H7O+
103.0542	63	C8H7+
105.0334	19	C7H5O+
107.0491	101	C7H7O+
115.0541	20	C9H7+
116.0495	5	C8H6N+
117.0334	12	C8H5O+
117.0572	8	C8H7N+
117.0699	10	C9H9+
118.0651	30	C8H8N+
119.0491	117	C8H7O+
120.0806	10	C8H10N+
121.0647	8	C8H9O+
130.0651	115	C9H8N+
131.0491	44	C9H7O+
131.0729	203	C9H9N+
132.0565	3	C9H8O+
132.0807	43	C9H10N+
135.044	137	C8H7O2+
136.0519	4	C8H8O2+
143.0493	6	C10H7O+
143.0727	7	C10H9N+
144.0807	38	C10H10N+
146.06	24	C9H8NO+
147.044	167	C9H7O2+
148.0756	10	C9H10NO+
149.0596	244	C9H9O2+
151.0541	15	C12H7+
152.062	48	C12H8+
153.0696	22	C12H9+
158.0602	17	C10H8NO+
159.0441	36	C10H7O2+
159.0678	170	C10H9NO+
160.0756	146	C10H10NO+
161.0598	16	C10H9O2+
161.0801	9	C7H13O4+
163.0389	66	C9H7O3+
164.0621	8	C13H8+
165.0546	6	C9H9O3+
165.0698	60	C13H9+
166.0773	24	C13H10+
167.0855	104	C13H11+
172.0514	6	C11H8O2+
172.076	4	C11H10NO+
173.0596	6	C11H9O2+
174.0549	96	C10H8NO2+
175.039	15	C10H7O3+
176.062	24	C14H8+
177.0698	106	C14H9+
177.0785	6	C10H11NO2+
178.0777	138	C14H10+
179.0855	209	C14H11+
180.057	3	C13H8O+
181.0647	14	C13H9O+
186.0551	4	C11H8NO2+
188.0705	999	C11H10NO2+
189.0696	477	C15H9+
189.0786	185	C11H11NO2+
190.0869	10	C11H12NO2+
191.0854	48	C15H11+
192.0567	12	C14H8O+
193.0653	6	C14H9O+
194.0724	9	C14H10O+
195.0803	43	C14H11O+
201.0696	7	C16H9+
202.0772	4	C16H10+
204.0809	6	C15H10N+
205.0646	80	C15H9O+
205.0887	5	C15H11N+
206.0805	15	C11H12NO3+
207.0803	111	C15H11O+
208.052	7	C14H8O2+
209.0595	167	C14H9O2+
217.0646	120	C16H9O+
218.0959	4	C16H12N+
219.0805	29	C16H11O+
220.0518	5	C15H8O2+
220.1117	4	C16H14N+
221.0594	6	C15H9O2+
222.0672	39	C15H10O2+
223.0759	8	C15H11O2+
232.0764	3	C16H10NO+
233.06	8	C16H9O2+
233.0844	7	C16H11NO+
234.0674	7	C16H10O2+
234.0921	5	C16H12NO+
235.0752	51	C16H11O2+
237.0549	12	C15H9O3+
237.0905	21	C16H13O2+
245.0593	6	C17H9O2+
246.0677	16	C17H10O2+
247.0752	72	C17H11O2+
248.1068	3	C17H14NO+
249.054	4	C16H9O3+
250.0636	4	C16H10O3+
262.0862	22	C17H12NO2+
263.0692	5	C17H11O3+
263.0948	8	C17H13NO2+
265.0862	5	C17H13O3+
266.0571	6	C16H10O4+
275.0692	12	C18H11O3+
276.1017	9	C18H14NO2+
290.0816	9	C18H12NO3+
292.0957	9	C18H14NO3+
304.0976	4	C19H14NO3+
320.0912	23	C19H14NO4+
