Mass spectrum: Bergapten/Heraclin; LC-ESI-ITFT; MS2; CE: 120%; R=15000; [M+H]+
Name: Bergapten/Heraclin
Formula: C12H8O4
Exact mass: 216.0423
SMILES: COC1=C2C=COC2=CC2=C1C=CC(=O)O2
InChI: InChI=1S/C12H8O4/c1-14-12-7-2-3-11(13)16-10(7)6-9-8(12)4-5-15-9/h2-6H,1H3
Instrument: LTQ Orbitrap XL Thermo Scientific
Instrument type: LC-ESI-ITFT
Ms type: MS2
Ion mode: POSITIVE
Ionization: ESI
Fragmentation mode: HCD
Collision energy: 120 % (nominal)
Resolution: 15000
Column name: Kinetex Evo C18 2.6 um 50 x 2.1 mm
Retention time: 9.922 min
Base peak: 416.3517
Precursor m/z: 217.0495
Precursor type: [M+H]+
m/z	relative intensity	assigned
63.0229	25	C5H3+
74.0151	55	C6H2+
76.0306	18	C6H4+
77.0022	17	C5HO+
77.0386	55	C6H5+
89.0386	813	C7H5+
90.0464	999	C7H6+
91.0542	14	C7H7+
92.0256	67	C6H4O+
100.0307	167	C8H4+
102.0464	85	C8H6+
103.054	20	C8H7+
105.07	8	C8H9+
115.0542	61	C9H7+
117.0335	38	C8H5O+
118.0413	652	C8H6O+
119.0128	18	C7H3O2+
120.0203	15	C7H4O2+
127.0175	15	C9H3O+
128.0255	19	C9H4O+
129.0334	48	C9H5O+
131.0493	38	C9H7O+
132.0212	6	C8H4O2+
145.0284	198	C9H5O2+
146.0362	203	C9H6O2+
156.0206	54	C10H4O2+
173.0234	22	C10H5O3+
174.0311	221	C10H6O3+
202.0259	38	C11H6O4+
