Mass spectrum: Isophorone; LC-ESI-ITFT; MS2; CE: 65%; R=15000; [M+H]+
Name: Isophorone
Name: 3,5,5-trimethylcyclohex-2-en-1-one
Formula: C9H14O
Exact mass: 138.1045
SMILES: CC1=CC(=O)CC(C)(C)C1
InChI: InChI=1S/C9H14O/c1-7-4-8(10)6-9(2,3)5-7/h4H,5-6H2,1-3H3
Instrument: LTQ Orbitrap XL Thermo Scientific
Instrument type: LC-ESI-ITFT
Ms type: MS2
Ion mode: POSITIVE
Ionization: ESI
Fragmentation mode: CID
Collision energy: 65 % (nominal)
Resolution: 15000
Column name: Kinetex Evo C18 2.6 um 50 x 2.1 mm
Retention time: 8.537 min
Base peak: 139.1118
Precursor m/z: 139.1117
Precursor type: [M+H]+
m/z	relative intensity	assigned
67.054	1	C5H7+
69.0332	999	C4H5O+
79.0541	5	C6H7+
81.0697	17	C6H9+
83.049	132	C5H7O+
93.0697	46	C7H9+
95.0854	93	C7H11+
97.0647	74	C6H9O+
97.101	9	C7H13+
105.0697	5	C8H9+
109.1013	3	C8H13+
111.0803	18	C7H11O+
111.1166	3	C8H15+
121.101	286	C9H13+
139.1115	38	C9H15O+
