Mass spectrum: Erucifoline; LC-ESI-ITFT; MS2; CE: 80%; R=15000; [M+H]+
Name: Erucifoline
Name: (5R,7S,9Z,12R,18R)-9-ethylidene-7-(hydroxymethyl)-5-methyl-3,6,11-trioxa-15-azatetracyclo[10.5.1.05,7.015,18]octadec-1(17)-ene-4,10-dione
Formula: C18H23NO6
Exact mass: 349.1525
SMILES: C/C=C\1/C[C@@]2([C@@](O2)(C(=O)OCC3=CCN4[C@H]3[C@@H](CC4)OC1=O)C)CO
InChI: InChI=1S/C18H23NO6/c1-3-11-8-18(10-20)17(2,25-18)16(22)23-9-12-4-6-19-7-5-13(14(12)19)24-15(11)21/h3-4,13-14,20H,5-10H2,1-2H3/b11-3-/t13-,14-,17+,18+/m1/s1
Instrument: LTQ Orbitrap XL Thermo Scientific
Instrument type: LC-ESI-ITFT
Ms type: MS2
Ion mode: POSITIVE
Ionization: ESI
Fragmentation mode: HCD
Collision energy: 80% (nominal)
Resolution: 15000
Column name: Kinetex Evo C18 2.6 um 50 x 2.1 mm
Retention time: 0.959 min
Base peak: 350.1597
Precursor m/z: 350.1598
Precursor type: [M+H]+
m/z	relative intensity	assigned
65.0385	54	C5H5+
67.0416	45	C4H5N+
67.0542	581	C5H7+
68.0494	205	C4H6N+
77.0386	190	C6H5+
79.0543	220	C6H7+
80.0495	398	C5H6N+
81.0335	33	C5H5O+
81.0573	127	C5H7N+
81.07	162	C6H9+
82.0652	249	C5H8N+
83.0492	117	C5H7O+
91.0543	437	C7H7+
92.0495	129	C6H6N+
93.0573	52	C6H7N+
93.0699	349	C7H9+
94.0651	999	C6H8N+
95.049	98	C6H7O+
95.073	72	C6H9N+
96.0808	526	C6H10N+
97.0646	66	C6H9O+
103.0541	164	C8H7+
105.0573	76	C7H7N+
105.0699	90	C8H9+
106.0651	106	C7H8N+
108.0808	236	C7H10N+
109.0648	215	C7H9O+
110.0601	53	C6H8NO+
110.0964	190	C7H12N+
111.0439	79	C6H7O2+
118.0651	207	C8H8N+
119.0731	55	C8H9N+
120.0808	902	C8H10N+
121.0647	61	C8H9O+
121.0887	79	C8H11N+
122.0965	244	C8H12N+
123.044	65	C7H7O2+
125.0597	60	C7H9O2+
136.0757	58	C8H10NO+
137.0597	37	C8H9O2+
138.0913	404	C8H12NO+
220.1332	107	C13H18NO2+
