Mass spectrum: alpha-Santonin; LC-ESI-ITFT; MS2; CE: 100%; R=15000; [M+H]+
Name: alpha-Santonin
Name: Santonin
Name: (3S,3aS,5aS,9bS)-3,5a,9-trimethyl-3a,4,5,9b-tetrahydro-3H-benzo[g][1]benzofuran-2,8-dione
Formula: C15H18O3
Exact mass: 246.1256
SMILES: C[C@H]1[C@@H]2CC[C@]3(C=CC(=O)C(=C3[C@H]2OC1=O)C)C
InChI: InChI=1S/C15H18O3/c1-8-10-4-6-15(3)7-5-11(16)9(2)12(15)13(10)18-14(8)17/h5,7-8,10,13H,4,6H2,1-3H3/t8-,10-,13-,15-/m0/s1
Instrument: LTQ Orbitrap XL Thermo Scientific
Instrument type: LC-ESI-ITFT
Ms type: MS2
Ion mode: POSITIVE
Ionization: ESI
Fragmentation mode: HCD
Collision energy: 100% (nominal)
Resolution: 15000
Column name: Kinetex Evo C18 2.6 um 50 x 2.1 mm
Retention time: 8.952 min
Base peak: 116.9858
Precursor m/z: 247.1329
Precursor type: [M+H]+
m/z	relative intensity	assigned
79.0542	47	C6H7+
91.0542	215	C7H7+
93.0695	7	C7H9+
103.0543	15	C8H7+
105.0699	175	C8H9+
107.0855	28	C8H11+
115.0542	159	C9H7+
116.062	39	C9H8+
117.0699	99	C9H9+
119.0855	12	C9H11+
121.0647	9	C8H9O+
128.0621	72	C10H8+
129.0698	278	C10H9+
130.0777	197	C10H10+
131.0492	9	C9H7O+
131.0856	61	C10H11+
133.1012	8	C10H13+
135.0804	211	C9H11O+
140.0619	27	C11H8+
141.0698	35	C11H9+
143.0855	38	C11H11+
144.0568	36	C10H8O+
144.0936	6	C11H12+
145.0647	50	C10H9O+
145.1012	130	C11H13+
146.0726	35	C10H10O+
153.0698	68	C12H9+
154.0777	29	C12H10+
155.0855	103	C12H11+
157.0648	162	C11H9O+
158.0726	999	C11H10O+
159.0805	141	C11H11O+
160.0888	13	C11H12O+
171.0804	85	C12H11O+
172.0885	31	C12H12O+
173.0961	216	C12H13O+
185.0959	11	C13H13O+
186.1041	24	C13H14O+
