Mass spectrum: Citrinin; LC-ESI-ITFT; MS2; CE: 110%; R=15000; [M+H]+
Name: Citrinin
Formula: C13H14O5
Exact mass: 250.0841
SMILES: C[C@H]1OC=C2C(O)=C(C(O)=O)C(=O)C(C)=C2[C@@H]1C
InChI: InChI=1S/C13H14O5/c1-5-7(3)18-4-8-9(5)6(2)11(14)10(12(8)15)13(16)17/h4-5,7,15H,1-3H3,(H,16,17)/t5-,7-/m1/s1
Instrument: LTQ Orbitrap XL Thermo Scientific
Instrument type: LC-ESI-ITFT
Ms type: MS2
Ion mode: POSITIVE
Ionization: ESI
Fragmentation mode: HCD
Collision energy: 110 % (nominal)
Resolution: 15000
Column name: Kinetex Evo C18 2.6 um 50 x 2.1 mm
Retention time: 11.904 min
Base peak: 251.0911
Precursor m/z: 251.0914
Precursor type: [M+H]+
m/z	relative intensity	assigned
65.0385	55	C5H5+
67.018	8	C4H3O+
67.0542	78	C5H7+
68.9971	41	C3HO2+
77.0386	207	C6H5+
78.0464	28	C6H6+
79.0178	105	C5H3O+
79.0542	198	C6H7+
81.0698	21	C6H9+
83.0125	7	C4H3O2+
89.0386	22	C7H5+
91.0542	999	C7H7+
92.062	23	C7H8+
93.0335	12	C6H5O+
93.0698	76	C7H9+
94.0412	13	C6H6O+
95.0491	37	C6H7O+
95.0855	89	C7H11+
101.0389	8	C8H5+
102.0464	24	C8H6+
103.0542	108	C8H7+
104.062	29	C8H8+
105.0335	33	C7H5O+
105.0698	188	C8H9+
106.0417	11	C7H6O+
106.0775	15	C8H10+
107.0128	53	C6H3O2+
107.0491	163	C7H7O+
107.0856	75	C8H11+
109.0646	18	C7H9O+
115.0542	381	C9H7+
116.062	288	C9H8+
117.0699	84	C9H9+
119.0491	152	C8H7O+
119.0855	167	C9H11+
120.0569	52	C8H8O+
121.0648	41	C8H9O+
122.0725	18	C8H10O+
123.0804	14	C8H11O+
128.062	89	C10H8+
129.0337	10	C9H5O+
129.0698	64	C10H9+
130.0781	8	C10H10+
131.0492	31	C9H7O+
131.0855	91	C10H11+
132.057	37	C9H8O+
133.0279	6	C8H5O2+
133.0648	108	C9H9O+
134.036	11	C8H6O2+
134.0726	26	C9H10O+
135.044	27	C8H7O2+
135.0804	18	C9H11O+
137.0964	7	C9H13O+
141.0698	62	C11H9+
144.057	108	C10H8O+
145.0284	11	C9H5O2+
145.0647	37	C10H9O+
147.0441	152	C9H7O2+
147.0804	13	C10H11O+
148.0519	76	C9H8O2+
149.0232	10	C8H5O3+
149.0597	11	C9H9O2+
149.0961	10	C10H13O+
151.0386	11	C8H7O3+
157.0279	7	C10H5O2+
157.0654	10	C11H9O+
159.0806	32	C11H11O+
161.0599	70	C10H9O2+
162.0677	59	C10H10O2+
163.0389	6	C9H7O3+
169.0649	21	C12H9O+
172.0522	22	C11H8O2+
175.039	105	C10H7O3+
177.0177	9	C9H5O4+
185.0232	56	C11H5O3+
189.055	19	C11H9O3+
190.0622	11	C11H10O3+
203.0338	84	C11H7O4+
204.041	10	C11H8O4+
205.0857	44	C12H13O3+
