Mass spectrum: Retrorsine N-oxide; LC-ESI-ITFT; MS2; CE: 70%; R=15000; [M+H]+
Name: Retrorsine N-oxide
Name: Unii-51819grv4U
Name: (1R,4Z,6R,7S,14S,17R)-4-ethylidene-7-hydroxy-7-(hydroxymethyl)-6-methyl-14-oxido-2,9-dioxa-14-azoniatricyclo[9.5.1.014,17]heptadec-11-ene-3,8-dione
Formula: C18H25NO7
Exact mass: 367.1631
SMILES: C/C=C\1/C[C@H]([C@@](C(=O)OCC2=CC[N@@+]3([C@H]2[C@@H](CC3)OC1=O)[O-])(CO)O)C
InChI: InChI=1S/C18H25NO7/c1-3-12-8-11(2)18(23,10-20)17(22)25-9-13-4-6-19(24)7-5-14(15(13)19)26-16(12)21/h3-4,11,14-15,20,23H,5-10H2,1-2H3/b12-3-/t11-,14-,15-,18-,19-/m1/s1
Instrument: LTQ Orbitrap XL Thermo Scientific
Instrument type: LC-ESI-ITFT
Ms type: MS2
Ion mode: POSITIVE
Ionization: ESI
Fragmentation mode: HCD
Collision energy: 70% (nominal)
Resolution: 15000
Column name: Kinetex Evo C18 2.6 um 50 x 2.1 mm
Retention time: 2.073 min
Base peak: 368.1703
Precursor m/z: 368.1704
Precursor type: [M+H]+
m/z	relative intensity	assigned
53.0385	21	C4H5+
67.0543	34	C5H7+
79.0543	65	C6H7+
80.0495	95	C5H6N+
81.0335	24	C5H5O+
81.0573	23	C5H7N+
81.0699	122	C6H9+
82.0653	21	C5H8N+
83.0491	14	C5H7O+
84.0444	20	C4H6NO+
91.0542	51	C7H7+
93.0574	499	C6H7N+
93.0701	34	C7H9+
94.0652	824	C6H8N+
95.073	230	C6H9N+
95.0856	121	C7H11+
96.0807	17	C6H10N+
98.06	52	C5H8NO+
99.044	12	C5H7O2+
105.07	28	C8H9+
106.0652	180	C7H8N+
107.0491	16	C7H7O+
107.0728	13	C7H9N+
107.0855	16	C8H11+
108.0808	206	C7H10N+
109.0647	31	C7H9O+
109.0887	39	C7H11N+
110.0602	29	C6H8NO+
111.0677	26	C6H9NO+
112.0757	48	C6H10NO+
117.0573	23	C8H7N+
118.0652	562	C8H8N+
119.073	370	C8H9N+
120.0808	795	C8H10N+
121.065	10	C8H9O+
121.0887	57	C8H11N+
122.0964	153	C8H12N+
123.0804	110	C8H11O+
124.0758	26	C7H10NO+
136.0757	999	C8H10NO+
137.0597	13	C8H9O2+
137.0835	36	C8H11NO+
138.0914	285	C8H12NO+
139.0755	69	C8H11O2+
141.0907	13	C8H13O2+
148.1125	17	C10H14N+
151.0754	52	C9H11O2+
152.1071	17	C9H14NO+
154.0862	67	C8H12NO2+
164.1073	22	C10H14NO+
167.107	16	C10H15O2+
169.0858	25	C9H13O3+
178.1227	38	C11H16NO+
218.1174	19	C13H16NO2+
218.1537	12	C14H20NO+
220.1334	20	C13H18NO2+
227.1283	19	C12H19O4+
