Mass spectrum: 8-Prenylnaringenin; LC-ESI-ITFT; MS2; CE: 100%; R=15000; [M+H]+
Name: 8-Prenylnaringenin
Name: (2S)-5,7-dihydroxy-2-(4-hydroxyphenyl)-8-(3-methylbut-2-enyl)-2,3-dihydrochromen-4-one
Formula: C20H20O5
Exact mass: 340.1311
SMILES: CC(=CCC1=C(C=C(C2=C1O[C@@H](CC2=O)C3=CC=C(C=C3)O)O)O)C
InChI: InChI=1S/C20H20O5/c1-11(2)3-8-14-15(22)9-16(23)19-17(24)10-18(25-20(14)19)12-4-6-13(21)7-5-12/h3-7,9,18,21-23H,8,10H2,1-2H3/t18-/m0/s1
Instrument: LTQ Orbitrap XL Thermo Scientific
Instrument type: LC-ESI-ITFT
Ms type: MS2
Ion mode: POSITIVE
Ionization: ESI
Fragmentation mode: HCD
Collision energy: 100% (nominal)
Resolution: 15000
Column name: Kinetex Evo C18 2.6 um 50 x 2.1 mm
Retention time: 11.913 min
Base peak: 116.9859
Precursor m/z: 341.1384
Precursor type: [M+H]+
m/z	relative intensity	assigned
55.0178	46	C3H3O+
65.0386	35	C5H5+
68.9971	345	C3HO2+
69.0335	70	C4H5O+
79.0178	117	C5H3O+
81.0335	372	C5H5O+
91.0543	72	C7H7+
92.9972	479	C5HO2+
97.0283	48	C5H5O2+
99.0077	233	C4H3O3+
107.0492	140	C7H7O+
109.0284	138	C6H5O2+
111.0078	39	C5H3O3+
115.0539	22	C9H7+
119.0495	49	C8H7O+
121.0285	25	C7H5O2+
123.0077	78	C6H3O3+
137.0234	216	C7H5O3+
141.0698	22	C11H9+
147.0076	25	C8H3O3+
147.044	25	C9H7O2+
157.0647	33	C11H9O+
165.0184	999	C8H5O4+
183.0284	26	C8H7O5+
