Mass spectrum: Jacobine; LC-ESI-ITFT; MS2; CE: 70%; R=15000; [M+H]+
Name: Jacobine
Name: (1R,3`S,4S,6R,7R,17R)-7-hydroxy-3`,6,7-trimethylspiro[2,9-dioxa-14-azatricyclo[9.5.1.014,17]heptadec-11-ene-4,2`-oxirane]-3,8-dione
Formula: C18H25NO6
Exact mass: 351.1682
SMILES: C[C@@H]1C[C@]2([C@@H](O2)C)C(=O)O[C@@H]3CCN4[C@@H]3C(=CC4)COC(=O)[C@]1(C)O
InChI: InChI=1S/C18H25NO6/c1-10-8-18(11(2)25-18)16(21)24-13-5-7-19-6-4-12(14(13)19)9-23-15(20)17(10,3)22/h4,10-11,13-14,22H,5-9H2,1-3H3/t10-,11+,13-,14-,17-,18+/m1/s1
Instrument: LTQ Orbitrap XL Thermo Scientific
Instrument type: LC-ESI-ITFT
Ms type: MS2
Ion mode: POSITIVE
Ionization: ESI
Fragmentation mode: HCD
Collision energy: 70% (nominal)
Resolution: 15000
Column name: Kinetex Evo C18 2.6 um 50 x 2.1 mm
Retention time: 1.038 min
Base peak: 352.1753
Precursor m/z: 352.1755
Precursor type: [M+H]+
m/z	relative intensity	assigned
67.0542	81	C5H7+
68.0495	63	C4H6N+
69.0335	52	C4H5O+
69.0699	39	C5H9+
70.0651	304	C4H8N+
71.0491	55	C4H7O+
77.0387	87	C6H5+
79.0542	249	C6H7+
80.0495	297	C5H6N+
81.0573	37	C5H7N+
81.0699	67	C6H9+
82.0652	108	C5H8N+
85.0649	30	C5H9O+
91.0542	214	C7H7+
93.07	285	C7H9+
94.0651	343	C6H8N+
95.0493	79	C6H7O+
95.073	66	C6H9N+
95.0856	119	C7H11+
96.0809	78	C6H10N+
97.0646	68	C6H9O+
103.0543	71	C8H7+
105.0699	188	C8H9+
106.0653	69	C7H8N+
107.073	121	C7H9N+
108.0808	175	C7H10N+
109.0648	48	C7H9O+
109.1011	35	C8H13+
110.06	23	C6H8NO+
110.0965	62	C7H12N+
113.0597	205	C6H9O2+
118.0654	52	C8H8N+
119.0732	46	C8H9N+
119.0856	29	C9H11+
120.0808	999	C8H10N+
121.0887	64	C8H11N+
122.0964	604	C8H12N+
123.081	31	C8H11O+
123.1042	214	C8H13N+
132.0803	18	C9H10N+
134.0965	59	C9H12N+
136.0756	26	C8H10NO+
137.096	91	C9H13O+
138.0914	137	C8H12NO+
139.1119	20	C9H15O+
140.1071	235	C8H14NO+
144.0809	21	C10H10N+
146.0963	29	C10H12N+
148.0754	41	C9H10NO+
148.1125	23	C10H14N+
149.083	17	C9H11NO+
155.1067	413	C9H15O2+
162.0915	94	C10H12NO+
165.0918	41	C10H13O2+
174.1281	22	C12H16N+
234.1484	50	C14H20NO2+
280.1545	39	C15H22NO4+
