Mass spectrum: Anabasine; LC-ESI-ITFT; MS2; CE: 120%; R=15000; [M+H]+
Name: Anabasine
Formula: C10H14N2
Exact mass: 162.1157
SMILES: C1CCC(NC1)C1=CC=CN=C1
InChI: InChI=1S/C10H14N2/c1-2-7-12-10(5-1)9-4-3-6-11-8-9/h3-4,6,8,10,12H,1-2,5,7H2
Instrument: LTQ Orbitrap XL Thermo Scientific
Instrument type: LC-ESI-ITFT
Ms type: MS2
Ion mode: POSITIVE
Ionization: ESI
Fragmentation mode: HCD
Collision energy: 120 % (nominal)
Resolution: 15000
Column name: Kinetex Evo C18 2.6 um 50 x 2.1 mm
Retention time: 0.481 min
Base peak: 249.1958
Precursor m/z: 163.123
Precursor type: [M+H]+
m/z	relative intensity	assigned
65.0386	173	C5H5+
67.0543	31	C5H7+
77.0387	31	C6H5+
78.0338	19	C5H4N+
79.0417	78	C5H5N+
80.0496	108	C5H6N+
84.0809	44	C5H10N+
90.0465	61	C7H6+
91.0543	898	C7H7+
92.0496	670	C6H6N+
93.0574	485	C6H7N+
94.0652	202	C6H8N+
104.0493	17	C7H6N+
105.0701	14	C8H9+
106.0653	175	C7H8N+
107.0728	11	C7H9N+
115.0547	13	C9H7+
117.0574	999	C8H7N+
118.0652	986	C8H8N+
119.0731	14	C8H9N+
120.0808	79	C8H10N+
128.0623	18	C10H8+
129.0698	11	C10H9+
130.0653	874	C9H8N+
131.0731	144	C9H9N+
132.081	94	C9H10N+
134.0968	19	C9H12N+
143.0733	25	C10H9N+
144.0809	106	C10H10N+
146.0967	23	C10H12N+
