Mass spectrum: Aloin A; LC-ESI-ITFT; MS2; CE: 90%; R=15000; [M+H]+
Name: Aloin A
Name: Barbaloin
Name: (10S)-1,8-dihydroxy-3-(hydroxymethyl)-10-[(2S,3R,4R,5S,6R)-3,4,5-trihydroxy-6-(hydroxymethyl)oxan-2-yl]-10H-anthracen-9-one
Formula: C21H22O9
Exact mass: 418.1264
SMILES: c1cc2c(c(c1)O)C(=O)c3c(cc(cc3O)CO)[C@H]2[C@H]4[C@@H]([C@H]([C@@H]([C@H](O4)CO)O)O)O
InChI: InChI=1S/C21H22O9/c22-6-8-4-10-14(21-20(29)19(28)17(26)13(7-23)30-21)9-2-1-3-11(24)15(9)18(27)16(10)12(25)5-8/h1-5,13-14,17,19-26,28-29H,6-7H2/t13-,14+,17-,19+,20-,21+/m1/s1
Instrument: LTQ Orbitrap XL Thermo Scientific
Instrument type: LC-ESI-ITFT
Ms type: MS2
Ion mode: POSITIVE
Ionization: ESI
Fragmentation mode: CID
Collision energy: 90 % (nominal)
Resolution: 15000
Column name: Kinetex Evo C18 2.6 um 50x2.1 mm, Phenomenex
Retention time: 9.513 min
Base peak: 147.0804
Precursor m/z: 419.1337
Precursor type: [M+H]+
m/z	relative intensity	assigned
211.0754	259	C14H11O2+
239.0703	999	C15H11O3+
257.0811	74	C15H13O4+
383.1122	65	C21H19O7+
401.123	377	C21H21O8+
