Mass spectrum: Jacobine; LC-ESI-ITFT; MS2; CE: 85%; R=15000; [M+H]+
Name: Jacobine
Name: (1R,3`S,4S,6R,7R,17R)-7-hydroxy-3`,6,7-trimethylspiro[2,9-dioxa-14-azatricyclo[9.5.1.014,17]heptadec-11-ene-4,2`-oxirane]-3,8-dione
Formula: C18H25NO6
Exact mass: 351.1682
SMILES: C[C@@H]1C[C@]2([C@@H](O2)C)C(=O)O[C@@H]3CCN4[C@@H]3C(=CC4)COC(=O)[C@]1(C)O
InChI: InChI=1S/C18H25NO6/c1-10-8-18(11(2)25-18)16(21)24-13-5-7-19-6-4-12(14(13)19)9-23-15(20)17(10,3)22/h4,10-11,13-14,22H,5-9H2,1-3H3/t10-,11+,13-,14-,17-,18+/m1/s1
Instrument: LTQ Orbitrap XL Thermo Scientific
Instrument type: LC-ESI-ITFT
Ms type: MS2
Ion mode: POSITIVE
Ionization: ESI
Fragmentation mode: HCD
Collision energy: 85% (nominal)
Resolution: 15000
Column name: Kinetex Evo C18 2.6 um 50 x 2.1 mm
Retention time: 1.041 min
Base peak: 143.0015
Precursor m/z: 352.1755
Precursor type: [M+H]+
m/z	relative intensity	assigned
67.0542	228	C5H7+
68.0494	76	C4H6N+
69.0335	110	C4H5O+
69.0699	56	C5H9+
70.0651	376	C4H8N+
71.0491	62	C4H7O+
77.0386	233	C6H5+
79.0543	375	C6H7+
80.0495	441	C5H6N+
81.0574	64	C5H7N+
81.0699	124	C6H9+
82.0651	200	C5H8N+
85.0648	36	C5H9O+
91.0542	414	C7H7+
92.0495	29	C6H6N+
93.0574	50	C6H7N+
93.0699	352	C7H9+
94.0651	588	C6H8N+
95.0492	144	C6H7O+
95.0729	75	C6H9N+
95.0854	108	C7H11+
96.0807	105	C6H10N+
97.0648	65	C6H9O+
103.0542	121	C8H7+
105.0571	18	C7H7N+
105.0699	206	C8H9+
106.0651	143	C7H8N+
107.073	181	C7H9N+
108.0808	204	C7H10N+
109.0648	66	C7H9O+
109.0891	18	C7H11N+
109.1012	63	C8H13+
110.0598	34	C6H8NO+
110.0964	134	C7H12N+
111.0806	43	C7H11O+
113.0598	184	C6H9O2+
118.0651	107	C8H8N+
119.0729	53	C8H9N+
119.0857	53	C9H11+
120.0808	999	C8H10N+
121.0886	50	C8H11N+
122.0964	393	C8H12N+
123.1043	98	C8H13N+
132.0807	47	C9H10N+
134.0964	92	C9H12N+
137.0963	68	C9H13O+
138.0915	76	C8H12NO+
140.1071	218	C8H14NO+
144.0809	30	C10H10N+
146.0964	39	C10H12N+
155.1068	101	C9H15O2+
162.0914	32	C10H12NO+
