Mass spectrum: (+)-Isocorydin; LC-ESI-ITFT; MS2; CE: 85%; R=15000; [M+H]+
Name: (+)-Isocorydin
Name: Isocorydine
Name: (6aS)-1,2,10-trimethoxy-6-methyl-5,6,6a,7-tetrahydro-4H-dibenzo[de,g]quinolin-11-ol
Formula: C20H23NO4
Exact mass: 341.1627
SMILES: CN1CCC2=CC(=C(C3=C2[C@@H]1CC4=C3C(=C(C=C4)OC)O)OC)OC
InChI: InChI=1S/C20H23NO4/c1-21-8-7-12-10-15(24-3)20(25-4)18-16(12)13(21)9-11-5-6-14(23-2)19(22)17(11)18/h5-6,10,13,22H,7-9H2,1-4H3/t13-/m0/s1
Instrument: LTQ Orbitrap XL Thermo Scientific
Instrument type: LC-ESI-ITFT
Ms type: MS2
Ion mode: POSITIVE
Ionization: ESI
Fragmentation mode: HCD
Collision energy: 85% (nominal)
Resolution: 15000
Column name: Kinetex Evo C18 2.6 um 50 x 2.1 mm
Retention time: 6.279 min
Base peak: 342.1699
Precursor m/z: 342.17
Precursor type: [M+H]+
m/z	relative intensity	assigned
141.0695	8	C11H9+
152.062	28	C12H8+
153.07	35	C12H9+
154.0776	7	C12H10+
165.0699	430	C13H9+
166.0776	120	C13H10+
167.0855	32	C13H11+
168.0565	12	C12H8O+
176.062	39	C14H8+
177.0698	106	C14H9+
178.0776	476	C14H10+
179.0855	380	C14H11+
180.0933	124	C14H12+
181.0646	83	C13H9O+
181.1011	21	C14H13+
182.0726	55	C13H10O+
183.0801	8	C13H11O+
189.0699	268	C15H9+
190.0776	448	C15H10+
191.0854	771	C15H11+
192.0568	39	C14H8O+
192.0934	72	C15H12+
193.0646	450	C14H9O+
194.0725	301	C14H10O+
195.0806	59	C14H11O+
196.0883	25	C14H12O+
197.0592	13	C13H9O2+
197.0958	25	C14H13O+
201.0697	43	C16H9+
202.0776	136	C16H10+
203.0855	107	C16H11+
204.0564	24	C15H8O+
205.0646	324	C15H9O+
206.0725	444	C15H10O+
207.0803	852	C15H11O+
208.0883	297	C15H12O+
209.0596	73	C14H9O2+
209.0959	172	C15H13O+
210.0674	150	C14H10O2+
217.0647	107	C16H9O+
218.0725	259	C16H10O+
219.0803	613	C16H11O+
220.0516	51	C15H8O2+
220.0887	82	C16H12O+
221.0595	525	C15H9O2+
221.0961	77	C16H13O+
222.0674	361	C15H10O2+
223.0755	64	C15H11O2+
224.0832	50	C15H12O2+
225.091	114	C15H13O2+
226.0623	23	C14H10O3+
231.0803	239	C17H11O+
233.0595	150	C16H9O2+
233.0961	20	C17H13O+
234.0674	101	C16H10O2+
235.0751	760	C16H11O2+
236.083	997	C16H12O2+
237.0545	50	C15H9O3+
237.0909	729	C16H13O2+
238.0621	999	C15H10O3+
245.0599	18	C17H9O2+
246.0673	51	C17H10O2+
247.0751	937	C17H11O2+
248.0836	134	C17H12O2+
249.0543	84	C16H9O3+
249.0912	36	C17H13O2+
250.0621	45	C16H10O3+
251.0699	29	C16H11O3+
251.1066	21	C17H15O2+
252.0782	34	C16H12O3+
253.0857	682	C16H13O3+
263.07	175	C17H11O3+
264.0779	192	C17H12O3+
265.0857	561	C17H13O3+
277.0848	21	C18H13O3+
281.0806	111	C17H13O4+
