Mass spectrum: (+)-Sparteine; LC-ESI-ITFT; MS2; CE: 100%; R=15000; [M+H]+
Name: (+)-Sparteine
Formula: C15H26N2
Exact mass: 234.2096
SMILES: C1CCN2C[C@H]3C[C@@H]([C@H]2C1)CN4[C@H]3CCCC4
InChI: InChI=1S/C15H26N2/c1-3-7-16-11-13-9-12(14(16)5-1)10-17-8-4-2-6-15(13)17/h12-15H,1-11H2/t12-,13-,14-,15+/m1/s1
Instrument: LTQ Orbitrap XL Thermo Scientific
Instrument type: LC-ESI-ITFT
Ms type: MS2
Ion mode: POSITIVE
Ionization: ESI
Fragmentation mode: HCD
Collision energy: 100 % (nominal)
Resolution: 15000
Column name: Kinetex Evo C18 2.6 um 50 x 2.1 mm
Retention time: 0.549 min
Base peak: 235.2165
Precursor m/z: 235.2169
Precursor type: [M+H]+
m/z	relative intensity	assigned
67.0542	3	C5H7+
70.0651	20	C4H8N+
79.0542	2	C6H7+
81.07	3	C6H9+
82.0653	2	C5H8N+
84.0808	74	C5H10N+
91.0538	1	C7H7+
93.0699	3	C7H9+
96.0808	15	C6H10N+
98.0964	999	C6H12N+
108.0809	2	C7H10N+
109.0887	1	C7H11N+
110.0964	10	C7H12N+
122.0965	4	C8H12N+
124.1121	6	C8H14N+
134.0965	13	C9H12N+
136.1123	2	C9H14N+
138.1279	2	C9H16N+
148.1121	3	C10H14N+
150.1278	25	C10H16N+
152.1435	22	C10H18N+
164.1434	3	C11H18N+
190.1586	1	C13H20N+
233.2013	45	C15H25N2+
235.2169	169	C15H27N2+
