Mass spectrum: Matrine; LC-ESI-ITFT; MS2; CE: 65%; R=15000; [M+H]+
Name: Matrine
Name: (1R,2R,9S,17S)-7,13-diazatetracyclo[7.7.1.02,7.013,17]heptadecan-6-one
Formula: C15H24N2O
Exact mass: 248.1889
SMILES: C1C[C@@H]2[C@H]3CCCN4[C@H]3[C@@H](CCC4)CN2C(=O)C1
InChI: InChI=1S/C15H24N2O/c18-14-7-1-6-13-12-5-3-9-16-8-2-4-11(15(12)16)10-17(13)14/h11-13,15H,1-10H2/t11-,12+,13+,15-/m0/s1
Instrument: LTQ Orbitrap XL Thermo Scientific
Instrument type: LC-ESI-ITFT
Ms type: MS2
Ion mode: POSITIVE
Ionization: ESI
Fragmentation mode: HCD
Collision energy: 65% (nominal)
Resolution: 15000
Column name: Kinetex Evo C18 2.6 um 50 x 2.1 mm
Retention time: 0.713 min
Base peak: 249.196
Precursor m/z: 249.1961
Precursor type: [M+H]+
m/z	relative intensity	assigned
84.0806	1	C5H10N+
96.0808	3	C6H10N+
98.0601	5	C5H8NO+
98.096	1	C6H12N+
110.0967	6	C7H12N+
112.0757	16	C6H10NO+
133.1015	1	C10H13+
134.0969	1	C9H12N+
136.1124	2	C9H14N+
138.1278	4	C9H16N+
148.1122	61	C10H14N+
150.1279	31	C10H16N+
152.1437	7	C10H18N+
162.0909	1	C10H12NO+
164.1069	1	C10H14NO+
166.1229	3	C10H16NO+
176.1072	12	C11H14NO+
190.1228	5	C12H16NO+
204.1377	3	C13H18NO+
218.1539	5	C14H20NO+
220.1698	2	C14H22NO+
231.1855	5	C15H23N2+
232.1701	3	C15H22NO+
247.1807	69	C15H23N2O+
249.1962	999	C15H25N2O+
