Mass spectrum: Erucifoline N-oxide; LC-ESI-ITFT; MS2; CE: 50%; R=15000; [M+H]+
Name: Erucifoline N-oxide
Name: (5R,7S,9Z,12R,18R)-9-ethylidene-7-(hydroxymethyl)-5-methyl-15-oxido-3,6,11-trioxa-15-azoniatetracyclo[10.5.1.05,7.015,18]octadec-1(17)-ene-4,10-dione
Formula: C18H23NO7
Exact mass: 365.1475
SMILES: C/C=C\1/C[C@@]2([C@@](O2)(C(=O)OCC3=CC[N+]4([C@H]3[C@@H](CC4)OC1=O)[O-])C)CO
InChI: InChI=1S/C18H23NO7/c1-3-11-8-18(10-20)17(2,26-18)16(22)24-9-12-4-6-19(23)7-5-13(14(12)19)25-15(11)21/h3-4,13-14,20H,5-10H2,1-2H3/b11-3-/t13-,14-,17+,18+,19?/m1/s1
Instrument: LTQ Orbitrap XL Thermo Scientific
Instrument type: LC-ESI-ITFT
Ms type: MS2
Ion mode: POSITIVE
Ionization: ESI
Fragmentation mode: HCD
Collision energy: 50% (nominal)
Resolution: 15000
Column name: Kinetex Evo C18 2.6 um 50 x 2.1 mm
Retention time: 1.127 min
Base peak: 366.1547
Precursor m/z: 366.1547
Precursor type: [M+H]+
m/z	relative intensity	assigned
67.0541	26	C5H7+
79.0542	41	C6H7+
80.0494	41	C5H6N+
81.0574	15	C5H7N+
81.0701	28	C6H9+
82.0651	13	C5H8N+
84.0448	13	C4H6NO+
91.0542	37	C7H7+
93.0574	209	C6H7N+
93.0699	26	C7H9+
94.0652	285	C6H8N+
95.0492	14	C6H7O+
95.073	160	C6H9N+
98.0599	41	C5H8NO+
106.0652	66	C7H8N+
107.0731	39	C7H9N+
108.0808	139	C7H10N+
109.0648	35	C7H9O+
109.0887	32	C7H11N+
112.0757	94	C6H10NO+
118.0652	651	C8H8N+
119.073	794	C8H9N+
120.0808	613	C8H10N+
121.0646	16	C8H9O+
121.0886	64	C8H11N+
122.0964	120	C8H12N+
123.0441	28	C7H7O2+
123.0807	12	C8H11O+
124.0756	28	C7H10NO+
125.0597	28	C7H9O2+
126.0912	14	C7H12NO+
136.0757	765	C8H10NO+
137.0595	19	C8H9O2+
137.0836	128	C8H11NO+
138.0676	11	C8H10O2+
138.0914	168	C8H12NO+
139.0752	45	C8H11O2+
140.107	31	C8H14NO+
141.0543	20	C7H9O3+
146.0969	22	C10H12N+
148.1119	18	C10H14N+
149.0598	26	C9H9O2+
151.0391	16	C8H7O3+
151.0755	14	C9H11O2+
152.0703	15	C8H10NO2+
154.0863	217	C8H12NO2+
160.1126	11	C11H14N+
162.0917	21	C10H12NO+
164.107	127	C10H14NO+
165.0547	66	C9H9O3+
167.0704	16	C9H11O3+
176.1074	13	C11H14NO+
183.0653	41	C9H11O4+
190.1228	53	C12H16NO+
199.0956	13	C10H15O4+
202.1225	12	C13H16NO+
204.1016	13	C12H14NO2+
209.1169	15	C12H17O3+
218.1176	75	C13H16NO2+
220.1334	30	C13H18NO2+
244.1334	23	C15H18NO2+
278.1389	62	C15H20NO4+
288.1595	33	C17H22NO3+
304.1551	14	C17H22NO4+
338.1607	21	C17H24NO6+
366.1549	999	C18H24NO7+
