Mass spectrum: (+)-Lupanine; LC-ESI-ITFT; MS2; CE: 75%; R=15000; [M+H]+
Name: (+)-Lupanine
Formula: C15H24N2O
Exact mass: 248.1889
SMILES: C1CCN2CC3CC(C2C1)CN4C3CCCC4=O
InChI: InChI=1S/C15H24N2O/c18-15-6-3-5-14-11-8-12(10-17(14)15)13-4-1-2-7-16(13)9-11/h11-14H,1-10H2
Instrument: LTQ Orbitrap XL Thermo Scientific
Instrument type: LC-ESI-ITFT
Ms type: MS2
Ion mode: POSITIVE
Ionization: ESI
Fragmentation mode: CID
Collision energy: 75 % (nominal)
Resolution: 15000
Column name: Kinetex Evo C18 2.6 um 50 x 2.1 mm
Retention time: 0.596 min
Base peak: 235.2168
Precursor m/z: 249.1961
Precursor type: [M+H]+
m/z	relative intensity	assigned
70.065	7	C4H8N+
77.0387	4	C6H5+
79.0543	8	C6H7+
80.0495	29	C5H6N+
82.0651	6	C5H8N+
84.0808	22	C5H10N+
85.0649	6	C5H9O+
91.0542	26	C7H7+
93.0698	12	C7H9+
94.0652	17	C6H8N+
95.0857	3	C7H11+
96.0808	105	C6H10N+
98.0601	6	C5H8NO+
98.0965	134	C6H12N+
100.0759	4	C5H10NO+
105.0698	27	C8H9+
107.0856	10	C8H11+
108.0808	25	C7H10N+
109.0888	3	C7H11N+
110.0604	4	C6H8NO+
110.0965	14	C7H12N+
112.0757	64	C6H10NO+
112.112	4	C7H14N+
114.0913	280	C6H12NO+
119.0855	6	C9H11+
120.0809	8	C8H10N+
121.1013	9	C9H13+
122.0965	52	C8H12N+
124.0758	16	C7H10NO+
124.1121	25	C8H14N+
131.0854	7	C10H11+
133.1012	21	C10H13+
134.0965	158	C9H12N+
135.1041	5	C9H13N+
136.1121	999	C9H14N+
138.0912	13	C8H12NO+
138.1276	14	C9H16N+
141.0698	4	C11H9+
145.1013	6	C11H13+
148.0757	17	C9H10NO+
148.1122	72	C10H14N+
150.0915	21	C9H12NO+
150.1278	332	C10H16N+
152.1071	62	C9H14NO+
152.1434	42	C10H18N+
159.1168	10	C12H15+
162.0917	11	C10H12NO+
162.1278	16	C11H16N+
164.107	16	C10H14NO+
164.1432	2	C11H18N+
166.1227	42	C10H16NO+
169.1012	6	C13H13+
174.1278	28	C12H16N+
176.1073	11	C11H14NO+
176.1434	50	C12H18N+
178.1228	12	C11H16NO+
187.1115	6	C13H15O+
188.1436	12	C13H18N+
189.1387	72	C12H17N2+
190.1589	16	C13H20N+
200.1431	14	C14H18N+
204.1383	148	C13H18NO+
206.154	31	C13H20NO+
207.1493	3	C12H19N2O+
214.1593	3	C15H20N+
218.1539	38	C14H20NO+
220.1702	7	C14H22NO+
221.2013	2	C14H25N2+
231.1855	370	C15H23N2+
