Mass spectrum: (+)-Isocorydin; LC-ESI-ITFT; MS2; CE: 40%; R=15000; [M+H]+
Name: (+)-Isocorydin
Name: Isocorydine
Name: (6aS)-1,2,10-trimethoxy-6-methyl-5,6,6a,7-tetrahydro-4H-dibenzo[de,g]quinolin-11-ol
Formula: C20H23NO4
Exact mass: 341.1627
SMILES: CN1CCC2=CC(=C(C3=C2[C@@H]1CC4=C3C(=C(C=C4)OC)O)OC)OC
InChI: InChI=1S/C20H23NO4/c1-21-8-7-12-10-15(24-3)20(25-4)18-16(12)13(21)9-11-5-6-14(23-2)19(22)17(11)18/h5-6,10,13,22H,7-9H2,1-4H3/t13-/m0/s1
Instrument: LTQ Orbitrap XL Thermo Scientific
Instrument type: LC-ESI-ITFT
Ms type: MS2
Ion mode: POSITIVE
Ionization: ESI
Fragmentation mode: HCD
Collision energy: 40% (nominal)
Resolution: 15000
Column name: Kinetex Evo C18 2.6 um 50 x 2.1 mm
Retention time: 6.305 min
Base peak: 342.1697
Precursor m/z: 342.17
Precursor type: [M+H]+
m/z	relative intensity	assigned
191.0851	8	C15H11+
208.0884	2	C15H12O+
219.0803	20	C16H11O+
220.0882	3	C16H12O+
221.0962	7	C16H13O+
223.1114	8	C16H15O+
224.0836	2	C15H12O2+
233.096	3	C17H13O+
235.0755	3	C16H11O2+
236.0829	85	C16H12O2+
237.091	6	C16H13O2+
239.1061	3	C16H15O2+
247.0751	72	C17H11O2+
248.083	297	C17H12O2+
249.0919	18	C17H13O2+
250.099	4	C17H14O2+
251.1064	210	C17H15O2+
253.0866	3	C16H13O3+
261.0905	10	C18H13O2+
262.0989	15	C18H14O2+
264.0778	146	C17H12O3+
265.0858	45	C17H13O3+
267.1013	58	C17H15O3+
268.1097	7	C17H16O3+
278.0934	3	C18H14O3+
279.1013	999	C18H15O3+
280.1092	277	C18H16O3+
281.0804	40	C17H13O4+
284.1042	6	C17H16O4+
293.118	2	C19H17O3+
294.125	2	C19H18O3+
296.104	296	C18H16O4+
299.1279	5	C18H19O4+
311.1276	357	C19H19O4+
313.1428	3	C19H21O4+
342.1697	43	C20H24NO4+
