Mass spectrum: Aconitin; LC-ESI-ITFT; MS2; CE: 60%; R=15000; [M+H]+
Name: Aconitin
Name: Aconitine
Name: [(1S,2R,3R,4R,5R,6S,7S,8R,9R,13R,14R,16S,17S,18R)-8-acetyloxy-11-ethyl-5,7,14-trihydroxy-6,16,18-trimethoxy-13-(methoxymethyl)-11-azahexacyclo[7.7.2.12,5.01,10.03,8.013,17]nonadecan-4-yl] benzoate
Formula: C34H47NO11
Exact mass: 645.3149
SMILES: CCN1C[C@@]2([C@@H](C[C@@H]([C@@]34[C@@H]2[C@H]([C@@H](C31)[C@@]5([C@@H]6[C@H]4C[C@@]([C@@H]6OC(=O)C7=CC=CC=C7)([C@H]([C@@H]5O)OC)O)OC(=O)C)OC)OC)O)COC
InChI: InChI=1S/C34H47NO11/c1-7-35-15-31(16-41-3)20(37)13-21(42-4)33-19-14-32(40)28(45-30(39)18-11-9-8-10-12-18)22(19)34(46-17(2)36,27(38)29(32)44-6)23(26(33)35)24(43-5)25(31)33/h8-12,19-29,37-38,40H,7,13-16H2,1-6H3/t19-,20-,21+,22-,23+,24+,25-,26?,27+,28-,29+,31+,32-,33+,34-/m1/s1
Instrument: LTQ Orbitrap XL Thermo Scientific
Instrument type: LC-ESI-ITFT
Ms type: MS2
Ion mode: POSITIVE
Ionization: ESI
Fragmentation mode: HCD
Collision energy: 60% (nominal)
Resolution: 15000
Column name: Kinetex Evo C18 2.6 um 50 x 2.1 mm
Retention time: 9.736 min
Base peak: 116.9859
Precursor m/z: 646.3222
Precursor type: [M+H]+
m/z	relative intensity	assigned
71.0491	9	C4H7O+
72.0808	6	C4H10N+
75.0441	22	C3H7O2+
77.0386	18	C6H5+
79.0542	6	C6H7+
81.0699	5	C6H9+
82.0651	4	C5H8N+
84.081	7	C5H10N+
85.0284	13	C4H5O2+
87.0441	2	C4H7O2+
88.0757	3	C4H10NO+
91.0542	16	C7H7+
93.0701	3	C7H9+
95.0492	4	C6H7O+
96.0809	4	C6H10N+
97.0649	5	C6H9O+
102.0915	10	C5H12NO+
105.0335	999	C7H5O+
107.0491	6	C7H7O+
108.0808	19	C7H10N+
109.0649	17	C7H9O+
110.0964	15	C7H12N+
111.0804	38	C7H11O+
112.0756	9	C6H10NO+
113.0833	7	C6H11NO+
114.0914	5	C6H12NO+
115.0541	2	C9H7+
117.0699	26	C9H9+
118.0781	4	C9H10+
119.0493	3	C8H7O+
119.0855	4	C9H11+
121.0648	13	C8H9O+
121.0888	4	C8H11N+
122.0964	21	C8H12N+
123.0444	4	C7H7O2+
128.0626	3	C10H8+
129.0699	23	C10H9+
131.0487	4	C9H7O+
131.0855	26	C10H11+
132.0809	3	C9H10N+
133.0284	5	C8H5O2+
133.0646	3	C9H9O+
134.0967	12	C9H12N+
135.0441	5	C8H7O2+
135.0805	9	C9H11O+
137.0599	11	C8H9O2+
138.0911	6	C8H12NO+
140.1071	14	C8H14NO+
141.07	10	C11H9+
143.0855	10	C11H11+
145.0647	7	C10H9O+
146.0362	6	C9H6O2+
146.0962	9	C10H12N+
147.044	14	C9H7O2+
147.0805	12	C10H11O+
147.1047	5	C10H13N+
148.112	8	C10H14N+
149.0601	5	C9H9O2+
152.1069	42	C9H14NO+
153.07	8	C12H9+
154.1226	4	C9H16NO+
155.0856	15	C12H11+
157.0648	7	C11H9O+
158.0965	9	C11H12N+
159.0806	12	C11H11O+
160.0757	3	C10H10NO+
160.1121	14	C11H14N+
161.0233	6	C9H5O3+
161.0599	3	C10H9O2+
161.0963	11	C11H13O+
162.0915	28	C10H12NO+
164.1073	9	C10H14NO+
165.0701	7	C13H9+
167.0855	12	C13H11+
169.0646	5	C12H9O+
171.0805	11	C12H11O+
172.1122	14	C12H14N+
173.0597	3	C11H9O2+
173.0959	4	C12H13O+
173.1195	3	C12H15N+
174.0914	40	C11H12NO+
174.1277	8	C12H16N+
176.1071	7	C11H14NO+
177.0549	4	C10H9O3+
178.0777	5	C14H10+
178.1226	18	C11H16NO+
179.0856	17	C14H11+
181.0651	5	C13H9O+
181.101	12	C14H13+
182.0731	2	C13H10O+
183.0808	9	C13H11O+
184.112	11	C13H14N+
185.06	3	C12H9O2+
185.0962	8	C13H13O+
186.0905	2	C12H12NO+
186.1279	16	C13H16N+
187.0751	6	C12H11O2+
188.0706	26	C11H10NO2+
188.1076	7	C12H14NO+
189.0789	5	C11H11NO2+
190.0776	7	C15H10+
190.0865	12	C11H12NO2+
190.1227	17	C12H16NO+
191.0856	13	C15H11+
192.0933	4	C15H12+
193.1013	14	C15H13+
194.0726	3	C14H10O+
195.0807	10	C14H11O+
196.1126	4	C14H14N+
197.0961	8	C14H13O+
198.1282	4	C14H16N+
200.1068	2	C13H14NO+
202.0784	6	C16H10+
202.1226	30	C13H16NO+
203.0863	11	C16H11+
203.0933	11	C12H13NO2+
204.094	4	C16H12+
204.102	5	C12H14NO2+
204.1381	7	C13H18NO+
205.101	22	C16H13+
207.0807	13	C15H11O+
207.1177	9	C16H15+
208.0892	4	C15H12O+
209.096	15	C15H13O+
210.1277	3	C15H16N+
215.085	7	C2H17NO10+
216.1383	14	C14H18NO+
217.1014	12	C17H13+
218.0727	6	C16H10O+
218.1539	49	C14H20NO+
219.0808	10	C16H11O+
219.1172	5	C17H15+
221.0964	12	C16H13O+
222.1288	3	C16H16N+
223.0756	4	C15H11O2+
223.112	11	C16H15O+
225.0907	6	C15H13O2+
226.1232	3	C15H16NO+
232.0886	5	C2H18NO11+
233.0962	19	C17H13O+
234.1273	3	C17H16N+
234.148	2	C14H20NO2+
235.0752	6	C16H11O2+
235.1119	14	C17H15O+
236.1436	5	C17H18N+
236.1646	11	C14H22NO2+
237.0911	9	C16H13O2+
238.1228	4	C16H16NO+
240.1377	3	C16H18NO+
245.0959	6	C18H13O+
247.112	4	C18H15O+
249.091	8	C17H13O2+
250.1236	4	C17H16NO+
251.1068	15	C17H15O2+
252.1385	6	C17H18NO+
261.0913	18	C18H13O2+
263.107	12	C18H15O2+
264.1386	7	C18H18NO+
265.1223	6	C18H17O2+
266.1538	3	C18H20NO+
276.1382	4	C19H18NO+
278.1539	8	C19H20NO+
279.1011	7	C18H15O3+
280.1335	5	C18H18NO2+
280.1686	3	C19H22NO+
282.1487	3	C18H20NO2+
290.1539	9	C20H20NO+
292.1324	4	C19H18NO2+
294.1491	5	C19H20NO2+
296.1651	11	C19H22NO2+
306.1496	8	C20H20NO2+
308.1642	16	C20H22NO2+
310.1806	3	C20H24NO2+
312.1965	3	C20H26NO2+
322.1448	5	C20H20NO3+
322.18	10	C21H24NO2+
324.1596	11	C20H22NO3+
340.1908	42	C21H26NO3+
344.2223	7	C21H30NO3+
354.2062	28	C22H28NO3+
368.1856	84	C22H26NO4+
369.1891	17	C19H29O7+
372.217	37	C22H30NO4+
386.2332	9	C23H32NO4+
522.1495	4	C28H26O10+
