Mass spectrum: Bergapten/Heraclin; LC-ESI-ITFT; MS2; CE: 115%; R=15000; [M+H]+
Name: Bergapten/Heraclin
Formula: C12H8O4
Exact mass: 216.0423
SMILES: COC1=C2C=COC2=CC2=C1C=CC(=O)O2
InChI: InChI=1S/C12H8O4/c1-14-12-7-2-3-11(13)16-10(7)6-9-8(12)4-5-15-9/h2-6H,1H3
Instrument: LTQ Orbitrap XL Thermo Scientific
Instrument type: LC-ESI-ITFT
Ms type: MS2
Ion mode: POSITIVE
Ionization: ESI
Fragmentation mode: HCD
Collision energy: 115 % (nominal)
Resolution: 15000
Column name: Kinetex Evo C18 2.6 um 50 x 2.1 mm
Retention time: 9.930 min
Base peak: 416.3518
Precursor m/z: 217.0495
Precursor type: [M+H]+
m/z	relative intensity	assigned
54.0099	5	C3H2O+
63.0228	23	C5H3+
64.0308	12	C5H4+
65.0385	5	C5H5+
68.9971	6	C3HO2+
74.0151	49	C6H2+
75.0229	3	C6H3+
76.0308	12	C6H4+
77.0022	9	C5HO+
77.0386	58	C6H5+
79.0543	11	C6H7+
82.0049	5	C4H2O2+
89.0386	668	C7H5+
90.0464	999	C7H6+
91.0541	14	C7H7+
92.0256	67	C6H4O+
95.0491	11	C6H7O+
99.0231	6	C8H3+
100.0308	151	C8H4+
102.0464	103	C8H6+
103.0542	31	C8H7+
105.0336	10	C7H5O+
105.0698	10	C8H9+
107.0492	3	C7H7O+
115.0542	75	C9H7+
117.0335	39	C8H5O+
118.0413	802	C8H6O+
119.0128	16	C7H3O2+
120.0206	23	C7H4O2+
127.0178	18	C9H3O+
128.0257	37	C9H4O+
129.0335	46	C9H5O+
130.0414	7	C9H6O+
131.0491	57	C9H7O+
132.0209	3	C8H4O2+
145.0284	213	C9H5O2+
146.0362	296	C9H6O2+
156.0206	78	C10H4O2+
173.0232	32	C10H5O3+
174.0312	334	C10H6O3+
202.0261	70	C11H6O4+
