Mass spectrum: Citrinin; LC-ESI-ITFT; MS2; CE: 85%; R=15000; [M+H]+
Name: Citrinin
Formula: C13H14O5
Exact mass: 250.0841
SMILES: C[C@H]1OC=C2C(O)=C(C(O)=O)C(=O)C(C)=C2[C@@H]1C
InChI: InChI=1S/C13H14O5/c1-5-7(3)18-4-8-9(5)6(2)11(14)10(12(8)15)13(16)17/h4-5,7,15H,1-3H3,(H,16,17)/t5-,7-/m1/s1
Instrument: LTQ Orbitrap XL Thermo Scientific
Instrument type: LC-ESI-ITFT
Ms type: MS2
Ion mode: POSITIVE
Ionization: ESI
Fragmentation mode: HCD
Collision energy: 85 % (nominal)
Resolution: 15000
Column name: Kinetex Evo C18 2.6 um 50 x 2.1 mm
Retention time: 11.741 min
Base peak: 251.091
Precursor m/z: 251.0914
Precursor type: [M+H]+
m/z	relative intensity	assigned
65.0385	38	C5H5+
67.0542	154	C5H7+
68.9971	53	C3HO2+
69.0335	18	C4H5O+
77.0386	140	C6H5+
79.0179	102	C5H3O+
79.0542	272	C6H7+
81.0699	44	C6H9+
83.0128	29	C4H3O2+
83.0493	13	C5H7O+
91.0542	999	C7H7+
93.0334	19	C6H5O+
93.0698	210	C7H9+
95.0492	49	C6H7O+
95.0855	394	C7H11+
103.0541	88	C8H7+
104.0625	18	C8H8+
105.0335	15	C7H5O+
105.0698	296	C8H9+
106.0779	24	C8H10+
107.0127	149	C6H3O2+
107.0491	416	C7H7O+
107.0855	307	C8H11+
109.0647	48	C7H9O+
109.1012	65	C8H13+
115.0542	218	C9H7+
116.0619	265	C9H8+
117.0698	166	C9H9+
119.0491	100	C8H7O+
119.0855	796	C9H11+
120.0571	56	C8H8O+
121.0285	18	C7H5O2+
121.0647	147	C8H9O+
121.1011	37	C9H13+
122.0725	46	C8H10O+
123.0803	132	C8H11O+
128.062	66	C10H8+
129.0698	120	C10H9+
131.0492	34	C9H7O+
131.0854	448	C10H11+
132.0569	44	C9H8O+
133.0646	109	C9H9O+
134.0363	17	C8H6O2+
134.0725	100	C9H10O+
135.0439	72	C8H7O2+
135.0804	186	C9H11O+
137.0961	156	C9H13O+
141.0698	169	C11H9+
143.0852	12	C11H11+
144.0569	172	C10H8O+
145.0284	36	C9H5O2+
145.0648	77	C10H9O+
147.044	155	C9H7O2+
147.0804	306	C10H11O+
148.0518	160	C9H8O2+
149.0239	26	C8H5O3+
149.0596	69	C9H9O2+
149.096	68	C10H13O+
157.0648	16	C11H9O+
159.0804	246	C11H11O+
161.0595	74	C10H9O2+
162.0675	275	C10H10O2+
163.0389	80	C9H7O3+
163.0753	122	C10H11O2+
169.0648	140	C12H9O+
172.0517	75	C11H8O2+
173.0591	13	C11H9O2+
175.0389	248	C10H7O3+
176.0467	56	C10H8O3+
177.0181	115	C9H5O4+
177.0547	44	C10H9O3+
177.0909	38	C11H13O2+
185.0596	75	C12H9O2+
187.0752	132	C12H11O2+
189.0544	67	C11H9O3+
190.0625	190	C11H10O3+
191.0332	35	C10H7O4+
191.0702	302	C11H11O3+
195.0281	22	C9H7O5+
200.0466	33	C12H8O3+
203.0338	406	C11H7O4+
203.0702	74	C12H11O3+
204.0416	119	C11H8O4+
205.0858	902	C12H13O3+
209.0801	25	C11H13O4+
215.0701	183	C13H11O3+
217.0503	18	C12H9O4+
218.057	105	C12H10O4+
233.0806	492	C13H13O4+
