Mass spectrum: Jacobine; LC-ESI-ITFT; MS2; CE: 65%; R=15000; [M+H]+
Name: Jacobine
Name: (1R,3`S,4S,6R,7R,17R)-7-hydroxy-3`,6,7-trimethylspiro[2,9-dioxa-14-azatricyclo[9.5.1.014,17]heptadec-11-ene-4,2`-oxirane]-3,8-dione
Formula: C18H25NO6
Exact mass: 351.1682
SMILES: C[C@@H]1C[C@]2([C@@H](O2)C)C(=O)O[C@@H]3CCN4[C@@H]3C(=CC4)COC(=O)[C@]1(C)O
InChI: InChI=1S/C18H25NO6/c1-10-8-18(11(2)25-18)16(21)24-13-5-7-19-6-4-12(14(13)19)9-23-15(20)17(10,3)22/h4,10-11,13-14,22H,5-9H2,1-3H3/t10-,11+,13-,14-,17-,18+/m1/s1
Instrument: LTQ Orbitrap XL Thermo Scientific
Instrument type: LC-ESI-ITFT
Ms type: MS2
Ion mode: POSITIVE
Ionization: ESI
Fragmentation mode: HCD
Collision energy: 65% (nominal)
Resolution: 15000
Column name: Kinetex Evo C18 2.6 um 50 x 2.1 mm
Retention time: 1.038 min
Base peak: 352.1753
Precursor m/z: 352.1755
Precursor type: [M+H]+
m/z	relative intensity	assigned
67.0542	80	C5H7+
68.0494	43	C4H6N+
69.0336	34	C4H5O+
69.0697	28	C5H9+
70.0651	248	C4H8N+
71.0492	42	C4H7O+
77.0386	64	C6H5+
79.0543	205	C6H7+
80.0495	281	C5H6N+
81.0571	22	C5H7N+
81.07	38	C6H9+
82.0652	80	C5H8N+
85.0648	18	C5H9O+
87.0441	21	C4H7O2+
91.0543	162	C7H7+
93.0699	300	C7H9+
94.0652	348	C6H8N+
95.0492	57	C6H7O+
95.073	59	C6H9N+
95.0856	84	C7H11+
96.0809	62	C6H10N+
97.0649	66	C6H9O+
103.0542	62	C8H7+
105.0699	165	C8H9+
106.0652	72	C7H8N+
107.073	96	C7H9N+
108.0808	144	C7H10N+
109.0648	35	C7H9O+
109.1013	49	C8H13+
110.0602	22	C6H8NO+
110.0965	62	C7H12N+
111.0805	27	C7H11O+
113.0598	210	C6H9O2+
115.0753	23	C6H11O2+
118.065	35	C8H8N+
119.0733	30	C8H9N+
119.0857	40	C9H11+
120.0809	999	C8H10N+
121.0887	64	C8H11N+
121.1012	24	C9H13+
122.0965	713	C8H12N+
123.0801	18	C8H11O+
123.1043	317	C8H13N+
132.0807	26	C9H10N+
134.0966	56	C9H12N+
136.0757	22	C8H10NO+
137.0961	80	C9H13O+
138.0914	167	C8H12NO+
140.0709	17	C7H10NO2+
140.1071	227	C8H14NO+
144.0807	16	C10H10N+
146.0965	38	C10H12N+
147.0809	12	C10H11O+
148.0755	23	C9H10NO+
148.1119	26	C10H14N+
149.0841	10	C9H11NO+
155.1068	517	C9H15O2+
162.0915	109	C10H12NO+
165.091	48	C10H13O2+
172.1126	20	C12H14N+
174.128	28	C12H16N+
183.1015	38	C10H15O3+
192.1012	15	C11H14NO2+
210.1123	27	C11H16NO3+
216.1375	16	C14H18NO+
234.1489	90	C14H20NO2+
262.1434	33	C15H20NO3+
264.1594	24	C15H22NO3+
280.1545	53	C15H22NO4+
352.1758	27	C18H26NO6+
