Mass spectrum: Isophorone; LC-ESI-ITFT; MS2; CE: 160%; R=15000; [M+H]+
Name: Isophorone
Name: 3,5,5-trimethylcyclohex-2-en-1-one
Formula: C9H14O
Exact mass: 138.1045
SMILES: CC1=CC(=O)CC(C)(C)C1
InChI: InChI=1S/C9H14O/c1-7-4-8(10)6-9(2,3)5-7/h4H,5-6H2,1-3H3
Instrument: LTQ Orbitrap XL Thermo Scientific
Instrument type: LC-ESI-ITFT
Ms type: MS2
Ion mode: POSITIVE
Ionization: ESI
Fragmentation mode: HCD
Collision energy: 160 % (nominal)
Resolution: 15000
Column name: Kinetex Evo C18 2.6 um 50 x 2.1 mm
Retention time: 8.610 min
Base peak: 139.1114
Precursor m/z: 139.1117
Precursor type: [M+H]+
m/z	relative intensity	assigned
81.0695	83	C6H9+
83.0488	24	C5H7O+
91.0539	999	C7H7+
93.0695	36	C7H9+
94.041	103	C6H6O+
95.0488	503	C6H7O+
97.0645	34	C6H9O+
103.0539	99	C8H7+
105.0444	742	C6H5N2+
105.0695	118	C8H9+
107.0488	32	C7H7O+
109.0643	104	C7H9O+
