Mass spectrum: Seneciphylline; LC-ESI-ITFT; MS2; CE: 105%; R=15000; [M+H]+
Name: Seneciphylline
Name: (1R,4Z,7R,17R)-4-ethylidene-7-hydroxy-7-methyl-6-methylidene-2,9-dioxa-14-azatricyclo[9.5.1.014,17]heptadec-11-ene-3,8-dione
Formula: C18H23NO5
Exact mass: 333.1576
SMILES: C/C=C\1/CC(=C)[C@@](C(=O)OCC2=CCN3[C@H]2[C@@H](CC3)OC1=O)(C)O
InChI: InChI=1S/C18H23NO5/c1-4-12-9-11(2)18(3,22)17(21)23-10-13-5-7-19-8-6-14(15(13)19)24-16(12)20/h4-5,14-15,22H,2,6-10H2,1,3H3/b12-4-/t14-,15-,18-/m1/s1
Instrument: LTQ Orbitrap XL Thermo Scientific
Instrument type: LC-ESI-ITFT
Ms type: MS2
Ion mode: POSITIVE
Ionization: ESI
Fragmentation mode: HCD
Collision energy: 105% (nominal)
Resolution: 15000
Column name: Kinetex Evo C18 2.6 um 50 x 2.1 mm
Retention time: 2.026 min
Base peak: 143.0016
Precursor m/z: 334.1649
Precursor type: [M+H]+
m/z	relative intensity	assigned
65.0385	102	C5H5+
67.0416	87	C4H5N+
67.0542	536	C5H7+
68.0494	203	C4H6N+
77.0386	348	C6H5+
78.0339	51	C5H4N+
79.0542	325	C6H7+
80.0495	570	C5H6N+
81.0573	170	C5H7N+
81.0699	251	C6H9+
82.0652	240	C5H8N+
91.0542	702	C7H7+
92.0496	106	C6H6N+
93.0574	208	C6H7N+
93.0699	138	C7H9+
94.0651	999	C6H8N+
95.0493	55	C6H7O+
95.0728	40	C6H9N+
95.0855	69	C7H11+
96.0805	118	C6H10N+
103.0542	121	C8H7+
105.0571	91	C7H7N+
105.0698	131	C8H9+
106.0652	218	C7H8N+
107.0734	72	C7H9N+
108.0808	228	C7H10N+
109.0648	149	C7H9O+
110.0603	38	C6H8NO+
110.0965	52	C7H12N+
118.065	169	C8H8N+
119.0728	40	C8H9N+
120.0808	370	C8H10N+
