Mass spectrum: Heliotrine; LC-ESI-ITFT; MS2; CE: 65%; R=15000; [M+H]+
Name: Heliotrine
Name: [(7S,8R)-7-hydroxy-5,6,7,8-tetrahydro-3H-pyrrolizin-1-yl]methyl (2S)-2-hydroxy-2-[(1R)-1-methoxyethyl]-3-methylbutanoate
Formula: C16H27NO5
Exact mass: 313.1889
SMILES: C[C@H]([C@@](C(C)C)(C(=O)OCC1=CCN2[C@H]1[C@H](CC2)O)O)OC
InChI: InChI=1S/C16H27NO5/c1-10(2)16(20,11(3)21-4)15(19)22-9-12-5-7-17-8-6-13(18)14(12)17/h5,10-11,13-14,18,20H,6-9H2,1-4H3/t11-,13+,14-,16+/m1/s1
Instrument: LTQ Orbitrap XL Thermo Scientific
Instrument type: LC-ESI-ITFT
Ms type: MS2
Ion mode: POSITIVE
Ionization: ESI
Fragmentation mode: HCD
Collision energy: 65% (nominal)
Resolution: 15000
Column name: Kinetex Evo C18 2.6 um 50 x 2.1 mm
Retention time: 1.853 min
Base peak: 143.0014
Precursor m/z: 314.1962
Precursor type: [M+H]+
m/z	relative intensity	assigned
67.0415	10	C4H5N+
67.0541	14	C5H7+
68.0495	5	C4H6N+
71.0859	3	C5H11+
79.0542	8	C6H7+
80.0495	27	C5H6N+
81.0699	8	C6H9+
82.0651	134	C5H8N+
86.06	16	C4H8NO+
91.0541	9	C7H7+
93.0696	10	C7H9+
94.0651	321	C6H8N+
95.0729	63	C6H9N+
96.0807	223	C6H10N+
103.0541	8	C8H7+
108.0808	145	C7H10N+
109.0648	8	C7H9O+
110.06	34	C6H8NO+
110.0963	8	C7H12N+
112.0757	25	C6H10NO+
118.0651	10	C8H8N+
120.0807	380	C8H10N+
121.0885	3	C8H11N+
138.0913	999	C8H12NO+
139.0991	62	C8H13NO+
156.1019	933	C8H14NO2+
