Mass spectrum: alpha-Cyperone; LC-ESI-ITFT; MS2; CE: 40%; R=15000; [M+H]+
Name: alpha-Cyperone
Formula: C15H22O
Exact mass: 218.1671
SMILES: CC1=C2CC(CCC2(CCC1=O)C)C(=C)C
InChI: InChI=1S/C15H22O/c1-10(2)12-5-7-15(4)8-6-14(16)11(3)13(15)9-12/h12H,1,5-9H2,2-4H3
Instrument: LTQ Orbitrap XL Thermo Scientific
Instrument type: LC-ESI-ITFT
Ms type: MS2
Ion mode: POSITIVE
Ionization: ESI
Fragmentation mode: CID
Collision energy: 40 % (nominal)
Resolution: 15000
Column name: Kinetex Evo C18 2.6 um 50 x 2.1 mm
Retention time: 13.141 min
Base peak: 219.1741
Precursor m/z: 219.1743
Precursor type: [M+H]+
m/z	relative intensity	assigned
55.0543	1	C4H7+
67.0542	19	C5H7+
69.07	4	C5H9+
77.0386	3	C6H5+
79.0543	19	C6H7+
81.0699	52	C6H9+
91.0543	14	C7H7+
93.0699	58	C7H9+
95.0856	174	C7H11+
97.0648	232	C6H9O+
99.0803	4	C6H11O+
105.0699	115	C8H9+
107.0856	141	C8H11+
109.0649	25	C7H9O+
109.1012	334	C8H13+
111.0805	337	C7H11O+
113.0967	1	C7H13O+
117.07	8	C9H9+
119.0856	174	C9H11+
121.0649	23	C8H9O+
121.1012	146	C9H13+
123.0805	165	C8H11O+
123.1169	126	C9H15+
125.0961	39	C8H13O+
131.0856	93	C10H11+
133.1012	66	C10H13+
135.0805	143	C9H11O+
135.1169	100	C10H15+
137.0961	52	C9H13O+
137.1326	8	C10H17+
139.1118	8	C9H15O+
145.1013	439	C11H13+
147.1169	205	C11H15+
149.0962	135	C10H13O+
149.1325	40	C11H17+
151.1118	9	C10H15O+
159.117	432	C12H15+
161.1327	324	C12H17+
162.1042	6	C11H14O+
163.1118	999	C11H15O+
173.1327	343	C13H17+
175.1482	99	C13H19+
176.1198	19	C12H16O+
177.1275	100	C12H17O+
177.1639	51	C13H21+
190.1346	3	C13H18O+
191.1432	36	C13H19O+
191.1795	62	C14H23+
199.1486	3	C15H19+
201.1639	935	C15H21+
204.1508	9	C14H20O+
219.1744	490	C15H23O+
