Mass spectrum: Pterosin A; LC-ESI-ITFT; MS2; CE: 120%; R=15000; [M+H]+
Name: Pterosin A
Name: (2S)-6-(2-hydroxyethyl)-2-(hydroxymethyl)-2,5,7-trimethyl-3H-inden-1-one
Formula: C15H20O3
Exact mass: 248.1412
SMILES: CC1=CC2=C(C(=C1CCO)C)C(=O)[C@](C2)(C)CO
InChI: InChI=1S/C15H20O3/c1-9-6-11-7-15(3,8-17)14(18)13(11)10(2)12(9)4-5-16/h6,16-17H,4-5,7-8H2,1-3H3/t15-/m0/s1
Instrument: LTQ Orbitrap XL Thermo Scientific
Instrument type: LC-ESI-ITFT
Ms type: MS2
Ion mode: POSITIVE
Ionization: ESI
Fragmentation mode: HCD
Collision energy: 120 % (nominal)
Resolution: 15000
Column name: Kinetex Evo C18 2.6 um 50 x 2.1 mm
Retention time: 9.267 min
Base peak: 249.1477
Precursor m/z: 249.1485
Precursor type: [M+H]+
m/z	relative intensity	assigned
91.0541	77	C7H7+
105.0697	71	C8H9+
115.0539	168	C9H7+
117.0695	40	C9H9+
119.0855	36	C9H11+
128.0618	317	C10H8+
129.0696	294	C10H9+
141.0696	577	C11H9+
142.0774	400	C11H10+
143.0853	118	C11H11+
152.0621	33	C12H8+
153.0695	205	C12H9+
154.0775	99	C12H10+
155.0853	999	C12H11+
156.093	63	C12H12+
157.1006	94	C12H13+
167.0858	39	C13H11+
169.1008	95	C13H13+
170.1089	46	C13H14+
