Mass spectrum: Retrorsine N-oxide; LC-ESI-ITFT; MS2; CE: 85%; R=15000; [M+H]+
Name: Retrorsine N-oxide
Name: Unii-51819grv4U
Name: (1R,4Z,6R,7S,14S,17R)-4-ethylidene-7-hydroxy-7-(hydroxymethyl)-6-methyl-14-oxido-2,9-dioxa-14-azoniatricyclo[9.5.1.014,17]heptadec-11-ene-3,8-dione
Formula: C18H25NO7
Exact mass: 367.1631
SMILES: C/C=C\1/C[C@H]([C@@](C(=O)OCC2=CC[N@@+]3([C@H]2[C@@H](CC3)OC1=O)[O-])(CO)O)C
InChI: InChI=1S/C18H25NO7/c1-3-12-8-11(2)18(23,10-20)17(22)25-9-13-4-6-19(24)7-5-14(15(13)19)26-16(12)21/h3-4,11,14-15,20,23H,5-10H2,1-2H3/b12-3-/t11-,14-,15-,18-,19-/m1/s1
Instrument: LTQ Orbitrap XL Thermo Scientific
Instrument type: LC-ESI-ITFT
Ms type: MS2
Ion mode: POSITIVE
Ionization: ESI
Fragmentation mode: HCD
Collision energy: 85% (nominal)
Resolution: 15000
Column name: Kinetex Evo C18 2.6 um 50 x 2.1 mm
Retention time: 2.074 min
Base peak: 143.0016
Precursor m/z: 368.1704
Precursor type: [M+H]+
m/z	relative intensity	assigned
53.0385	18	C4H5+
65.0385	6	C5H5+
67.0417	15	C4H5N+
67.0543	48	C5H7+
68.0493	8	C4H6N+
77.0387	16	C6H5+
79.0543	61	C6H7+
80.0496	147	C5H6N+
81.0337	17	C5H5O+
81.0574	21	C5H7N+
81.0699	97	C6H9+
82.0651	18	C5H8N+
83.0493	14	C5H7O+
84.0446	15	C4H6NO+
91.0543	61	C7H7+
92.0495	24	C6H6N+
93.0574	408	C6H7N+
93.0701	25	C7H9+
94.0652	999	C6H8N+
95.0731	94	C6H9N+
95.0856	76	C7H11+
96.0445	10	C5H6NO+
96.0808	26	C6H10N+
98.0602	24	C5H8NO+
105.0701	21	C8H9+
106.0652	119	C7H8N+
107.073	17	C7H9N+
108.0809	182	C7H10N+
109.065	14	C7H9O+
109.0888	13	C7H11N+
110.0601	20	C6H8NO+
111.068	11	C6H9NO+
117.0575	36	C8H7N+
118.0652	403	C8H8N+
119.0731	163	C8H9N+
120.0809	548	C8H10N+
122.0965	54	C8H12N+
123.0805	42	C8H11O+
124.0756	10	C7H10NO+
132.0807	16	C9H10N+
134.0965	15	C9H12N+
136.0758	583	C8H10NO+
138.0914	84	C8H12NO+
139.0755	29	C8H11O2+
146.0961	7	C10H12N+
151.0756	18	C9H11O2+
154.0861	7	C8H12NO2+
