Mass spectrum: alpha-Cyperone; LC-ESI-ITFT; MS2; CE: 90%; R=15000; [M+H]+
Name: alpha-Cyperone
Formula: C15H22O
Exact mass: 218.1671
SMILES: CC1=C2CC(CCC2(CCC1=O)C)C(=C)C
InChI: InChI=1S/C15H22O/c1-10(2)12-5-7-15(4)8-6-14(16)11(3)13(15)9-12/h12H,1,5-9H2,2-4H3
Instrument: LTQ Orbitrap XL Thermo Scientific
Instrument type: LC-ESI-ITFT
Ms type: MS2
Ion mode: POSITIVE
Ionization: ESI
Fragmentation mode: HCD
Collision energy: 90 % (nominal)
Resolution: 15000
Column name: Kinetex Evo C18 2.6 um 50 x 2.1 mm
Retention time: 13.126 min
Base peak: 219.174
Precursor m/z: 219.1743
Precursor type: [M+H]+
m/z	relative intensity	assigned
55.054	24	C4H7+
67.0541	221	C5H7+
69.0335	15	C4H5O+
69.0698	42	C5H9+
77.0386	80	C6H5+
79.0542	180	C6H7+
81.0698	262	C6H9+
83.0491	23	C5H7O+
83.0855	37	C6H11+
91.0542	242	C7H7+
93.0698	297	C7H9+
95.0491	31	C6H7O+
95.0855	204	C7H11+
97.0647	224	C6H9O+
105.0698	199	C8H9+
107.049	13	C7H7O+
107.0855	130	C8H11+
108.0568	10	C7H8O+
109.0648	47	C7H9O+
109.1011	107	C8H13+
111.0804	999	C7H11O+
117.0698	43	C9H9+
119.0854	125	C9H11+
121.0647	55	C8H9O+
121.1011	32	C9H13+
122.0724	15	C8H10O+
123.0804	344	C8H11O+
124.0878	6	C8H12O+
129.0697	21	C10H9+
130.0777	26	C10H10+
131.0855	46	C10H11+
133.1011	24	C10H13+
135.0803	80	C9H11O+
135.1166	18	C10H15+
136.0882	13	C9H12O+
137.096	173	C9H13O+
138.1038	20	C9H14O+
143.0855	37	C11H11+
144.0933	9	C11H12+
145.1011	54	C11H13+
147.0808	15	C10H11O+
147.1167	16	C11H15+
148.0878	9	C10H12O+
149.096	26	C10H13O+
157.1016	5	C12H13+
159.1171	6	C12H15+
161.0962	64	C11H13O+
162.1037	10	C11H14O+
163.1116	44	C11H15O+
175.1116	5	C12H15O+
176.1199	8	C12H16O+
189.1275	45	C13H17O+
