Mass spectrum: Piperine; LC-ESI-ITFT; MS2; CE: 150%; R=15000; [M+H]+
Name: Piperine
Name: (2E,4E)-5-(1,3-benzodioxol-5-yl)-1-piperidin-1-ylpenta-2,4-dien-1-one
Formula: C17H19NO3
Exact mass: 285.1365
SMILES: O=C(\C=C\C=C\C1=CC2=C(OCO2)C=C1)N1CCCCC1
InChI: InChI=1S/C17H19NO3/c19-17(18-10-4-1-5-11-18)7-3-2-6-14-8-9-15-16(12-14)21-13-20-15/h2-3,6-9,12H,1,4-5,10-11,13H2/b6-2+,7-3+
Instrument: LTQ Orbitrap XL Thermo Scientific
Instrument type: LC-ESI-ITFT
Ms type: MS2
Ion mode: POSITIVE
Ionization: ESI
Fragmentation mode: HCD
Collision energy: 150 % (nominal)
Resolution: 15000
Column name: Kinetex Evo C18 2.6 um 50 x 2.1 mm
Retention time: 11.797 min
Base peak: 286.1441
Precursor m/z: 286.1438
Precursor type: [M+H]+
m/z	relative intensity	assigned
63.0227	31	C5H3+
67.0541	2	C5H7+
69.0696	5	C5H9+
75.0228	9	C6H3+
77.0385	76	C6H5+
79.0542	8	C6H7+
80.0495	10	C5H6N+
84.0805	2	C5H10N+
87.023	5	C7H3+
89.0387	271	C7H5+
91.0543	19	C7H7+
94.0653	2	C6H8N+
95.0493	11	C6H7O+
101.0384	3	C8H5+
102.0468	2	C8H6+
103.0544	17	C8H7+
105.0336	14	C7H5O+
105.0448	67	C6H5N2+
114.0466	11	C9H6+
115.0543	999	C9H7+
122.0964	3	C8H12N+
129.0448	4	C8H5N2+
135.0441	12	C8H7O2+
143.0492	7	C10H7O+
155.0607	3	C10H7N2+
171.0449	2	C11H7O2+
