Mass spectrum: Lasiocarpine N-oxide; LC-ESI-ITFT; MS2; CE: 85%; R=15000; [M+H]+
Name: Lasiocarpine N-oxide
Name: [(7S,8R)-7-[(Z)-2-methylbut-2-enoyl]oxy-4-oxido-5,6,7,8-tetrahydro-3H-pyrrolizin-4-ium-1-yl]methyl (2R)-2,3-dihydroxy-2-[(1S)-1-methoxyethyl]-3-methylbutanoate
Formula: C21H33NO8
Exact mass: 427.2206
SMILES: C/C=C(/C)\C(=O)O[C@H]1CC[N+]2([C@@H]1C(=CC2)COC(=O)[C@@]([C@H](C)OC)(C(C)(C)O)O)[O-]
InChI: InChI=1S/C21H33NO8/c1-7-13(2)18(23)30-16-9-11-22(27)10-8-15(17(16)22)12-29-19(24)21(26,14(3)28-6)20(4,5)25/h7-8,14,16-17,25-26H,9-12H2,1-6H3/b13-7-/t14-,16-,17+,21-,22?/m0/s1
Instrument: LTQ Orbitrap XL Thermo Scientific
Instrument type: LC-ESI-ITFT
Ms type: MS2
Ion mode: POSITIVE
Ionization: ESI
Fragmentation mode: HCD
Collision energy: 85% (nominal)
Resolution: 15000
Column name: Kinetex Evo C18 2.6 um 50 x 2.1 mm
Retention time: 7.959 min
Base peak: 428.2273
Precursor m/z: 428.2279
Precursor type: [M+H]+
m/z	relative intensity	assigned
55.0541	100	C4H7+
59.049	25	C3H7O+
65.0384	8	C5H5+
66.0463	13	C5H6+
67.0417	18	C4H5N+
67.0542	22	C5H7+
68.0494	51	C4H6N+
69.0697	10	C5H9+
77.0386	11	C6H5+
79.0542	64	C6H7+
80.0495	364	C5H6N+
81.0572	31	C5H7N+
81.0698	72	C6H9+
82.0412	10	C5H6O+
82.0651	46	C5H8N+
83.0491	192	C5H7O+
84.0444	44	C4H6NO+
91.0542	67	C7H7+
92.0494	39	C6H6N+
92.062	8	C7H8+
93.0573	464	C6H7N+
94.0651	999	C6H8N+
95.0492	10	C6H7O+
95.0729	21	C6H9N+
96.0442	17	C5H6NO+
96.0808	15	C6H10N+
97.0648	14	C6H9O+
98.0599	7	C5H8NO+
102.0549	9	C4H8NO2+
103.0543	12	C8H7+
106.0651	849	C7H8N+
107.0729	15	C7H9N+
107.0855	12	C8H11+
108.0807	217	C7H10N+
109.0647	14	C7H9O+
110.06	45	C6H8NO+
111.0678	380	C6H9NO+
112.0756	16	C6H10NO+
117.0573	14	C8H7N+
118.0651	469	C8H8N+
119.0729	575	C8H9N+
120.0807	601	C8H10N+
121.0887	16	C8H11N+
122.0598	17	C7H8NO+
122.0968	5	C8H12N+
124.0756	47	C7H10NO+
126.0912	6	C7H12NO+
136.0756	387	C8H10NO+
137.0834	170	C8H11NO+
138.0913	177	C8H12NO+
141.091	27	C8H13O2+
154.0862	64	C8H12NO2+
155.0941	11	C8H13NO2+
172.0968	215	C8H14NO3+
