Mass spectrum: (-)-Strychnine; LC-ESI-ITFT; MS2; CE: 50%; R=15000; [M+H]+
Name: (-)-Strychnine
Name: Strychnine
Name: (4aR,5aS,8aR,13aS,15aS,15bR)-4a,5,5a,7,8,13a,15,15a,15b,16-decahydro-2H-4,6-methanoindolo[3,2,1-ij]oxepino[2,3,4-de]pyrrolo[2,3-h]quinolin-14-one
Formula: C21H22N2O2
Exact mass: 334.1681
SMILES: c1ccc2c(c1)[C@]34CCN5[C@H]3C[C@@H]6[C@@H]7[C@@H]4N2C(=O)C[C@@H]7OCC=C6C5
InChI: InChI=1S/C21H22N2O2/c24-18-10-16-19-13-9-17-21(6-7-22(17)11-12(13)5-8-25-16)14-3-1-2-4-15(14)23(18)20(19)21/h1-5,13,16-17,19-20H,6-11H2/t13-,16-,17-,19-,20-,21+/m0/s1
Instrument: LTQ Orbitrap XL Thermo Scientific
Instrument type: LC-ESI-ITFT
Ms type: MS2
Ion mode: POSITIVE
Ionization: ESI
Fragmentation mode: HCD
Collision energy: 50% (nominal)
Resolution: 15000
Column name: Kinetex Evo C18 2.6 um 50 x 2.1 mm
Retention time: 3.182 min
Base peak: 143.0015
Precursor m/z: 335.1754
Precursor type: [M+H]+
m/z	relative intensity	assigned
144.0807	2	C10H10N+
184.0755	26	C12H10NO+
198.0918	2	C13H12NO+
220.0759	4	C15H10NO+
222.0907	10	C15H12NO+
262.1222	5	C18H16NO+
264.102	23	C17H14NO2+
266.1188	1	C17H16NO2+
272.1079	3	C19H14NO+
290.1179	3	C19H16NO2+
307.1437	12	C19H19N2O2+
335.1753	999	C21H23N2O2+
