Mass spectrum: Daidzein; LC-ESI-ITFT; MS2; CE: 180%; R=15000; [M+H]+
Name: Daidzein
Name: 7-hydroxy-3-(4-hydroxyphenyl)chromen-4-one
Formula: C15H10O4
Exact mass: 254.0579
SMILES: OC1=CC=C(C=C1)C1=COC2=C(C=CC(O)=C2)C1=O
InChI: InChI=1S/C15H10O4/c16-10-3-1-9(2-4-10)13-8-19-14-7-11(17)5-6-12(14)15(13)18/h1-8,16-17H
Instrument: LTQ Orbitrap XL Thermo Scientific
Instrument type: LC-ESI-ITFT
Ms type: MS2
Ion mode: POSITIVE
Ionization: ESI
Fragmentation mode: HCD
Collision energy: 180 % (nominal)
Resolution: 15000
Column name: Kinetex Evo C18 2.6 um 50 x 2.1 mm
Retention time: 9.260 min
Base peak: 221.0748
Precursor m/z: 255.0652
Precursor type: [M+H]+
m/z	relative intensity	assigned
53.0385	90	C4H5+
63.023	75	C5H3+
65.0386	999	C5H5+
68.9973	76	C3HO2+
75.023	106	C6H3+
77.0389	172	C6H5+
78.0467	111	C6H6+
81.0337	139	C5H5O+
89.039	138	C7H5+
91.0546	251	C7H7+
102.0468	98	C8H6+
105.0339	50	C7H5O+
105.0452	296	C6H5N2+
128.0627	145	C10H8+
139.0543	73	C11H7+
150.0471	85	C12H6+
151.0548	115	C12H7+
152.0625	481	C12H8+
179.0612	48	C12H7N2+
