Mass spectrum: Lycopsamine N-oxide; LC-ESI-ITFT; MS2; CE: 90%; R=15000; [M+H]+
Name: Lycopsamine N-oxide
Name: [(7R,8R)-7-hydroxy-4-oxido-5,6,7,8-tetrahydro-3H-pyrrolizin-4-ium-1-yl]methyl (2S)-2-hydroxy-2-[(1S)-1-hydroxyethyl]-3-methylbutanoate
Formula: C15H25NO6
Exact mass: 315.1682
SMILES: C[C@@H]([C@@](C(C)C)(C(=O)OCC1=CC[N+]2([C@H]1[C@@H](CC2)O)[O-])O)O
InChI: InChI=1S/C15H25NO6/c1-9(2)15(20,10(3)17)14(19)22-8-11-4-6-16(21)7-5-12(18)13(11)16/h4,9-10,12-13,17-18,20H,5-8H2,1-3H3/t10-,12+,13+,15-,16?/m0/s1
Instrument: LTQ Orbitrap XL Thermo Scientific
Instrument type: LC-ESI-ITFT
Ms type: MS2
Ion mode: POSITIVE
Ionization: ESI
Fragmentation mode: HCD
Collision energy: 90% (nominal)
Resolution: 15000
Column name: Kinetex Evo C18 2.6 um 50 x 2.1 mm
Retention time: 1.285 min
Base peak: 143.0014
Precursor m/z: 316.1755
Precursor type: [M+H]+
m/z	relative intensity	assigned
67.0416	8	C4H5N+
67.0542	38	C5H7+
68.0494	54	C4H6N+
70.0649	8	C4H8N+
73.0649	21	C4H9O+
79.0542	13	C6H7+
80.0495	286	C5H6N+
81.0573	31	C5H7N+
81.0698	32	C6H9+
82.0413	47	C5H6O+
82.0651	65	C5H8N+
83.0491	93	C5H7O+
84.0444	9	C4H6NO+
84.0807	7	C5H10N+
92.0495	21	C6H6N+
93.0573	538	C6H7N+
94.0651	999	C6H8N+
95.0728	15	C6H9N+
96.0444	30	C5H6NO+
96.0807	20	C6H10N+
98.0601	37	C5H8NO+
102.0549	42	C4H8NO2+
106.0651	102	C7H8N+
108.0808	90	C7H10N+
109.0648	11	C7H9O+
110.0601	64	C6H8NO+
111.0679	726	C6H9NO+
112.0756	35	C6H10NO+
118.0651	13	C8H8N+
120.0808	9	C8H10N+
124.0758	34	C7H10NO+
126.0912	12	C7H12NO+
128.0707	37	C6H10NO2+
136.0757	177	C8H10NO+
137.0836	62	C8H11NO+
138.0914	291	C8H12NO+
140.0704	14	C7H10NO2+
142.0861	9	C7H12NO2+
154.0864	48	C8H12NO2+
155.0941	65	C8H13NO2+
172.0969	433	C8H14NO3+
