Mass spectrum: Senecionine N-oxide; LC-ESI-ITFT; MS2; CE: 45%; R=15000; [M+H]+
Name: Senecionine N-oxide
Name: (1R,4Z,6R,7R,17R)-4-ethylidene-7-hydroxy-6,7-dimethyl-14-oxido-2,9-dioxa-14-azoniatricyclo[9.5.1.014,17]heptadec-11-ene-3,8-dione
Formula: C18H25NO6
Exact mass: 351.1682
SMILES: C/C=C\1/C[C@H]([C@@](C(=O)OCC2=CC[N+]3([C@H]2[C@@H](CC3)OC1=O)[O-])(C)O)C
InChI: InChI=1S/C18H25NO6/c1-4-12-9-11(2)18(3,22)17(21)24-10-13-5-7-19(23)8-6-14(15(13)19)25-16(12)20/h4-5,11,14-15,22H,6-10H2,1-3H3/b12-4-/t11-,14-,15-,18-,19?/m1/s1
Instrument: LTQ Orbitrap XL Thermo Scientific
Instrument type: LC-ESI-ITFT
Ms type: MS2
Ion mode: POSITIVE
Ionization: ESI
Fragmentation mode: HCD
Collision energy: 45% (nominal)
Resolution: 15000
Column name: Kinetex Evo C18 2.6 um 50 x 2.1 mm
Retention time: 5.458 min
Base peak: 352.1754
Precursor m/z: 352.1755
Precursor type: [M+H]+
m/z	relative intensity	assigned
67.0544	3	C5H7+
79.0545	4	C6H7+
80.0493	7	C5H6N+
81.0699	33	C6H9+
84.0443	3	C4H6NO+
91.0543	6	C7H7+
93.0573	33	C6H7N+
94.0651	39	C6H8N+
95.073	88	C6H9N+
98.06	4	C5H8NO+
106.0651	25	C7H8N+
107.0854	5	C8H11+
108.0808	18	C7H10N+
109.0648	10	C7H9O+
109.0887	9	C7H11N+
110.0598	6	C6H8NO+
112.0756	12	C6H10NO+
118.0651	196	C8H8N+
119.073	133	C8H9N+
120.0808	133	C8H10N+
121.0886	93	C8H11N+
122.0964	21	C8H12N+
124.0884	3	C8H12O+
125.0962	14	C8H13O+
135.0807	4	C9H11O+
136.0757	137	C8H10NO+
137.0836	30	C8H11NO+
138.0914	104	C8H12NO+
139.0756	3	C8H11O2+
139.0994	4	C8H13NO+
148.112	2	C10H14N+
153.0909	30	C9H13O2+
154.0863	64	C8H12NO2+
178.1225	14	C11H16NO+
192.1379	3	C12H18NO+
202.1225	5	C13H16NO+
211.1326	4	C12H19O3+
218.1176	7	C13H16NO2+
218.1539	7	C14H20NO+
220.1333	121	C13H18NO2+
246.1489	38	C15H20NO2+
248.1644	25	C15H22NO2+
254.1393	10	C13H20NO4+
290.1754	8	C17H24NO3+
324.1807	47	C17H26NO5+
352.1756	999	C18H26NO6+
