Mass spectrum: Coniferaldehyde; LC-ESI-ITFT; MS2; CE: 105%; R=15000; [M+H]+
Name: Coniferaldehyde
Formula: C10H10O3
Exact mass: 178.0630
SMILES: COC1=CC(\C=C\C=O)=CC=C1O
InChI: InChI=1S/C10H10O3/c1-13-10-7-8(3-2-6-11)4-5-9(10)12/h2-7,12H,1H3/b3-2+
Instrument: LTQ Orbitrap XL Thermo Scientific
Instrument type: LC-ESI-ITFT
Ms type: MS2
Ion mode: POSITIVE
Ionization: ESI
Fragmentation mode: HCD
Collision energy: 105 % (nominal)
Resolution: 15000
Column name: Kinetex Evo C18 2.6 um 50 x 2.1 mm
Retention time: 7.426 min
Base peak: 179.07
Precursor m/z: 179.0703
Precursor type: [M+H]+
m/z	relative intensity	assigned
65.0386	124	C5H5+
66.0465	8	C5H6+
67.0543	6	C5H7+
77.0387	93	C6H5+
78.0462	8	C6H6+
79.0543	307	C6H7+
80.0621	103	C6H8+
81.0337	6	C5H5O+
82.0413	31	C5H6O+
89.0387	87	C7H5+
90.0465	151	C7H6+
91.0543	999	C7H7+
92.0258	22	C6H4O+
93.0336	8	C6H5O+
94.0414	56	C6H6O+
95.0492	24	C6H7O+
102.0465	7	C8H6+
103.0543	56	C8H7+
105.0333	9	C7H5O+
105.07	18	C8H9+
107.0492	321	C7H7O+
108.057	37	C7H8O+
110.0362	21	C6H6O2+
115.0544	18	C9H7+
117.0338	8	C8H5O+
118.0414	284	C8H6O+
119.0493	146	C8H7O+
121.0283	12	C7H5O2+
122.0362	12	C7H6O2+
131.0491	8	C9H7O+
133.065	18	C9H9O+
135.0442	107	C8H7O2+
136.052	159	C8H8O2+
137.0596	5	C8H9O2+
146.0364	116	C9H6O2+
147.0441	24	C9H7O2+
163.0389	12	C9H7O3+
