Mass spectrum: Lasiocarpine N-oxide; LC-ESI-ITFT; MS2; CE: 50%; R=15000; [M+H]+
Name: Lasiocarpine N-oxide
Name: [(7S,8R)-7-[(Z)-2-methylbut-2-enoyl]oxy-4-oxido-5,6,7,8-tetrahydro-3H-pyrrolizin-4-ium-1-yl]methyl (2R)-2,3-dihydroxy-2-[(1S)-1-methoxyethyl]-3-methylbutanoate
Formula: C21H33NO8
Exact mass: 427.2206
SMILES: C/C=C(/C)\C(=O)O[C@H]1CC[N+]2([C@@H]1C(=CC2)COC(=O)[C@@]([C@H](C)OC)(C(C)(C)O)O)[O-]
InChI: InChI=1S/C21H33NO8/c1-7-13(2)18(23)30-16-9-11-22(27)10-8-15(17(16)22)12-29-19(24)21(26,14(3)28-6)20(4,5)25/h7-8,14,16-17,25-26H,9-12H2,1-6H3/b13-7-/t14-,16-,17+,21-,22?/m0/s1
Instrument: LTQ Orbitrap XL Thermo Scientific
Instrument type: LC-ESI-ITFT
Ms type: MS2
Ion mode: POSITIVE
Ionization: ESI
Fragmentation mode: HCD
Collision energy: 50% (nominal)
Resolution: 15000
Column name: Kinetex Evo C18 2.6 um 50 x 2.1 mm
Retention time: 8.001 min
Base peak: 428.2278
Precursor m/z: 428.2279
Precursor type: [M+H]+
m/z	relative intensity	assigned
55.0541	43	C4H7+
59.049	25	C3H7O+
80.0495	28	C5H6N+
83.0492	71	C5H7O+
84.0443	13	C4H6NO+
93.0573	167	C6H7N+
94.0651	209	C6H8N+
97.0645	15	C6H9O+
106.0651	173	C7H8N+
108.0808	64	C7H10N+
109.0645	12	C7H9O+
111.0678	113	C6H9NO+
118.065	51	C8H8N+
119.073	568	C8H9N+
120.0808	445	C8H10N+
121.0887	130	C8H11N+
122.0962	26	C8H12N+
124.0757	16	C7H10NO+
136.0757	509	C8H10NO+
137.0836	663	C8H11NO+
138.0914	662	C8H12NO+
154.0863	107	C8H12NO2+
155.0945	25	C8H13NO2+
172.0968	84	C8H14NO3+
218.1178	31	C13H16NO2+
220.1333	59	C13H18NO2+
234.1127	21	C13H16NO3+
237.1359	86	C13H19NO3+
252.1218	15	C13H18NO4+
254.1387	999	C13H20NO4+
270.1337	17	C13H20NO5+
328.1753	27	C16H26NO6+
338.1597	74	C17H24NO6+
346.1872	12	C16H28NO7+
352.1756	114	C18H26NO6+
410.2174	62	C21H32NO7+
428.2274	29	C21H34NO8+
