Mass spectrum: Cortisone; LC-ESI-ITFT; MS2; CE: 80%; R=15000; [M+H]+
Name: Cortisone
Name: (8S,9S,10R,13S,14S,17R)-17-hydroxy-17-(2-hydroxyacetyl)-10,13-dimethyl-1,2,6,7,8,9,12,14,15,16-decahydrocyclopenta[a]phenanthrene-3,11-dione
Formula: C21H28O5
Exact mass: 360.1937
SMILES: C[C@]12CC(=O)[C@H]3[C@@H](CCC4=CC(=O)CC[C@]34C)[C@@H]1CC[C@]2(O)C(=O)CO
InChI: InChI=1S/C21H28O5/c1-19-7-5-13(23)9-12(19)3-4-14-15-6-8-21(26,17(25)11-22)20(15,2)10-16(24)18(14)19/h9,14-15,18,22,26H,3-8,10-11H2,1-2H3/t14-,15-,18+,19-,20-,21-/m0/s1
Instrument: LTQ Orbitrap XL Thermo Scientific
Instrument type: LC-ESI-ITFT
Ms type: MS2
Ion mode: POSITIVE
Ionization: ESI
Fragmentation mode: HCD
Collision energy: 80 % (nominal)
Resolution: 15000
Column name: Kinetex Evo C18 2.6 um 50 x 2.1 mm
Retention time: 9.572 min
Base peak: 361.2009
Precursor m/z: 361.201
Precursor type: [M+H]+
m/z	relative intensity	assigned
67.054	141	C5H7+
69.0333	46	C4H5O+
69.0697	94	C5H9+
71.0489	27	C4H7O+
77.0384	49	C6H5+
79.0541	312	C6H7+
81.0334	20	C5H5O+
81.0698	320	C6H9+
83.049	275	C5H7O+
91.0542	363	C7H7+
93.0699	735	C7H9+
94.0734	19	C2H10N2O2+
95.0491	63	C6H7O+
95.0855	199	C7H11+
97.0648	464	C6H9O+
103.0542	30	C8H7+
105.0699	919	C8H9+
107.0491	118	C7H7O+
107.0855	566	C8H11+
108.0891	11	C3H12N2O2+
109.0647	114	C7H9O+
109.1014	21	C8H13+
111.0806	13	C7H11O+
115.0543	48	C9H7+
116.0618	20	C9H8+
117.0698	249	C9H9+
119.0855	467	C9H11+
121.0647	879	C8H9O+
121.1011	189	C9H13+
123.0803	161	C8H11O+
128.0619	72	C10H8+
129.0698	132	C10H9+
130.0776	94	C10H10+
131.0854	250	C10H11+
132.057	11	C9H8O+
132.0896	12	C5H12N2O2+
133.0647	74	C9H9O+
133.1011	137	C10H13+
135.0803	115	C9H11O+
135.1167	83	C10H15+
137.096	13	C9H13O+
139.0751	13	C8H11O2+
141.0698	65	C11H9+
142.0776	69	C11H10+
143.0854	242	C11H11+
144.0571	14	C10H8O+
144.093	26	C11H12+
145.0646	56	C10H9O+
145.101	486	C11H13+
146.0723	33	C10H10O+
146.1047	18	C6H14N2O2+
147.0803	181	C10H11O+
147.1167	27	C11H15+
148.0881	404	C10H12O+
149.0954	41	C10H13O+
153.0696	34	C12H9+
154.0774	25	C12H10+
155.0605	10	C10H7N2+
155.0853	120	C12H11+
156.093	44	C12H12+
157.0646	24	C11H9O+
157.101	134	C12H13+
158.0724	19	C11H10O+
159.0802	101	C11H11O+
159.1168	62	C12H15+
160.0876	17	C11H12O+
161.096	141	C11H13O+
163.1115	999	C11H15O+
164.1149	39	C6H16N2O3+
165.0698	38	C13H9+
166.0778	36	C13H10+
167.0855	54	C13H11+
168.0931	35	C13H12+
169.0648	11	C12H9O+
169.101	115	C13H13+
170.1089	20	C13H14+
171.0802	49	C12H11O+
171.1167	70	C13H15+
173.0958	67	C12H13O+
174.1037	80	C12H14O+
175.1114	26	C12H15O+
179.0854	39	C14H11+
180.093	25	C14H12+
181.1008	81	C14H13+
182.1089	33	C14H14+
183.08	27	C13H11O+
183.1166	93	C14H15+
184.0881	11	C13H12O+
185.096	39	C13H13O+
185.1321	56	C14H17+
187.1114	34	C13H15O+
189.1272	41	C13H17O+
191.0854	20	C15H11+
192.0931	24	C15H12+
193.101	46	C15H13+
194.1088	13	C15H14+
195.0807	15	C14H11O+
195.1166	67	C15H15+
196.1248	14	C15H16+
197.0962	18	C14H13O+
197.1322	41	C15H17+
199.1112	50	C14H15O+
199.1478	33	C15H19+
201.1273	18	C14H17O+
205.1002	22	C16H13+
206.109	26	C16H14+
207.1168	44	C16H15+
209.0957	24	C15H13O+
209.1323	29	C16H17+
211.1115	34	C15H15O+
213.1272	27	C15H17O+
217.1006	11	C17H13+
221.133	19	C17H17+
223.1113	19	C16H15O+
223.1481	24	C17H19+
224.119	11	C16H16O+
225.1269	65	C16H17O+
226.1354	31	C16H18O+
227.1428	55	C16H19O+
229.1579	9	C16H21O+
231.1167	10	C18H15+
240.1511	24	C17H20O+
241.1582	84	C17H21O+
242.1662	24	C17H22O+
243.1375	159	C16H19O2+
251.1428	18	C18H19O+
255.1743	13	C18H23O+
256.1819	12	C18H24O+
257.1526	10	C17H21O2+
258.1608	117	C17H22O2+
269.1532	55	C18H21O2+
