Mass spectrum: Valerophenone; LC-ESI-ITFT; MS2; CE: 50%; R=15000; [M+H]+
Name: Valerophenone
Formula: C11H14O
Exact mass: 162.1045
SMILES: CCCCC(=O)C1=CC=CC=C1
InChI: InChI=1S/C11H14O/c1-2-3-9-11(12)10-7-5-4-6-8-10/h4-8H,2-3,9H2,1H3
Instrument: LTQ Orbitrap XL Thermo Scientific
Instrument type: LC-ESI-ITFT
Ms type: MS2
Ion mode: POSITIVE
Ionization: ESI
Fragmentation mode: HCD
Collision energy: 50 % (nominal)
Resolution: 15000
Column name: Kinetex Evo C18 2.6 um 50x2.1 mm, Phenomenex
Retention time: 11.605 min
Base peak: 440.3516
Precursor m/z: 163.1117
Precursor type: [M+H]+
m/z	relative intensity	assigned
57.0698	653	C4H9+
71.0493	49	C4H7O+
79.0543	999	C6H7+
85.0648	161	C5H9O+
91.0542	760	C7H7+
103.0542	133	C8H7+
105.0698	157	C8H9+
107.0492	835	C7H7O+
117.0699	327	C9H9+
121.0649	63	C8H9O+
130.0781	66	C10H10+
143.0855	39	C11H11+
145.1012	495	C11H13+
163.112	363	C11H15O+
