Mass spectrum: Citrinin; LC-ESI-ITFT; MS2; CE: 125%; R=15000; [M+H]+
Name: Citrinin
Formula: C13H14O5
Exact mass: 250.0841
SMILES: C[C@H]1OC=C2C(O)=C(C(O)=O)C(=O)C(C)=C2[C@@H]1C
InChI: InChI=1S/C13H14O5/c1-5-7(3)18-4-8-9(5)6(2)11(14)10(12(8)15)13(16)17/h4-5,7,15H,1-3H3,(H,16,17)/t5-,7-/m1/s1
Instrument: LTQ Orbitrap XL Thermo Scientific
Instrument type: LC-ESI-ITFT
Ms type: MS2
Ion mode: POSITIVE
Ionization: ESI
Fragmentation mode: HCD
Collision energy: 125 % (nominal)
Resolution: 15000
Column name: Kinetex Evo C18 2.6 um 50 x 2.1 mm
Retention time: 11.916 min
Base peak: 251.0913
Precursor m/z: 251.0914
Precursor type: [M+H]+
m/z	relative intensity	assigned
51.0228	6	C4H3+
65.0385	69	C5H5+
67.0179	11	C4H3O+
67.0542	69	C5H7+
68.9971	42	C3HO2+
69.0332	6	C4H5O+
75.0228	7	C6H3+
77.0386	263	C6H5+
78.0464	38	C6H6+
79.0178	92	C5H3O+
79.0542	162	C6H7+
81.0698	15	C6H9+
89.0385	28	C7H5+
91.0542	999	C7H7+
92.062	19	C7H8+
93.0337	12	C6H5O+
93.0697	45	C7H9+
94.0412	10	C6H6O+
95.0491	43	C6H7O+
95.0854	37	C7H11+
101.0386	23	C8H5+
102.0463	33	C8H6+
103.0542	109	C8H7+
104.0621	35	C8H8+
105.0334	44	C7H5O+
105.0698	159	C8H9+
106.0412	12	C7H6O+
106.0782	7	C8H10+
107.0127	25	C6H3O2+
107.0491	108	C7H7O+
107.0854	30	C8H11+
109.0648	6	C7H9O+
115.0542	495	C9H7+
116.062	235	C9H8+
117.0698	62	C9H9+
119.0491	151	C8H7O+
119.0855	53	C9H11+
120.0569	45	C8H8O+
121.0649	18	C8H9O+
122.0725	9	C8H10O+
127.054	7	C10H7+
128.062	94	C10H8+
129.0335	31	C9H5O+
129.0699	43	C10H9+
131.0491	30	C9H7O+
131.0853	22	C10H11+
132.057	24	C9H8O+
133.0288	6	C8H5O2+
133.0647	75	C9H9O+
135.0442	15	C8H7O2+
141.0697	26	C11H9+
144.0569	52	C10H8O+
145.0286	7	C9H5O2+
145.0649	24	C10H9O+
147.044	101	C9H7O2+
147.0806	5	C10H11O+
148.0517	26	C9H8O2+
157.0285	8	C10H5O2+
157.0647	9	C11H9O+
159.0803	7	C11H11O+
161.0596	45	C10H9O2+
162.0678	12	C10H10O2+
175.0388	60	C10H7O3+
185.0232	33	C11H5O3+
203.0337	36	C11H7O4+
