Mass spectrum: Formononetin; LC-ESI-ITFT; MS2; CE: 75%; R=15000; [M+H]+
Name: Formononetin
Name: 7-hydroxy-3-(4-methoxyphenyl)chromen-4-one
Formula: C16H12O4
Exact mass: 268.0736
SMILES: COc1ccc(cc1)c2coc3cc(ccc3c2=O)O
InChI: InChI=1S/C16H12O4/c1-19-12-5-2-10(3-6-12)14-9-20-15-8-11(17)4-7-13(15)16(14)18/h2-9,17H,1H3
Instrument: LTQ Orbitrap XL Thermo Scientific
Instrument type: LC-ESI-ITFT
Ms type: MS2
Ion mode: POSITIVE
Ionization: ESI
Fragmentation mode: HCD
Collision energy: 75% (nominal)
Resolution: 15000
Column name: Kinetex Evo C18 2.6 um 50 x 2.1 mm
Retention time: 10.650 min
Base peak: 116.9859
Precursor m/z: 269.0808
Precursor type: [M+H]+
m/z	relative intensity	assigned
90.0463	47	C7H6+
105.0699	41	C8H9+
107.0491	104	C7H7O+
108.0204	62	C6H4O2+
118.0414	394	C8H6O+
133.0648	148	C9H9O+
136.0154	164	C7H4O3+
137.0235	205	C7H5O3+
152.0625	76	C12H8+
153.0698	45	C12H9+
156.0569	139	C11H8O+
157.0653	50	C11H9O+
169.0648	93	C12H9O+
170.0728	192	C12H10O+
180.0577	40	C13H8O+
181.0651	319	C13H9O+
182.073	94	C13H10O+
196.0519	51	C13H8O2+
197.0597	936	C13H9O2+
198.0674	304	C13H10O2+
200.0469	45	C12H8O3+
213.0911	562	C14H13O2+
225.0546	398	C14H9O3+
226.0624	999	C14H10O3+
237.0546	485	C15H9O3+
253.0496	613	C15H9O4+
254.0574	271	C15H10O4+
269.0811	190	C16H13O4+
