Mass spectrum: Retrorsine N-oxide; LC-ESI-ITFT; MS2; CE: 95%; R=15000; [M+H]+
Name: Retrorsine N-oxide
Name: Unii-51819grv4U
Name: (1R,4Z,6R,7S,14S,17R)-4-ethylidene-7-hydroxy-7-(hydroxymethyl)-6-methyl-14-oxido-2,9-dioxa-14-azoniatricyclo[9.5.1.014,17]heptadec-11-ene-3,8-dione
Formula: C18H25NO7
Exact mass: 367.1631
SMILES: C/C=C\1/C[C@H]([C@@](C(=O)OCC2=CC[N@@+]3([C@H]2[C@@H](CC3)OC1=O)[O-])(CO)O)C
InChI: InChI=1S/C18H25NO7/c1-3-12-8-11(2)18(23,10-20)17(22)25-9-13-4-6-19(24)7-5-14(15(13)19)26-16(12)21/h3-4,11,14-15,20,23H,5-10H2,1-2H3/b12-3-/t11-,14-,15-,18-,19-/m1/s1
Instrument: LTQ Orbitrap XL Thermo Scientific
Instrument type: LC-ESI-ITFT
Ms type: MS2
Ion mode: POSITIVE
Ionization: ESI
Fragmentation mode: HCD
Collision energy: 95% (nominal)
Resolution: 15000
Column name: Kinetex Evo C18 2.6 um 50 x 2.1 mm
Retention time: 2.074 min
Base peak: 143.0016
Precursor m/z: 368.1704
Precursor type: [M+H]+
m/z	relative intensity	assigned
53.0386	12	C4H5+
66.0463	15	C5H6+
67.0416	20	C4H5N+
67.0542	58	C5H7+
68.0493	11	C4H6N+
77.0386	17	C6H5+
78.0337	7	C5H4N+
79.0543	71	C6H7+
80.0495	198	C5H6N+
81.0337	10	C5H5O+
81.0573	22	C5H7N+
81.0699	86	C6H9+
82.0652	13	C5H8N+
83.0493	18	C5H7O+
84.0446	9	C4H6NO+
91.0542	78	C7H7+
92.0494	38	C6H6N+
93.0573	355	C6H7N+
93.0698	27	C7H9+
94.0651	999	C6H8N+
95.0729	50	C6H9N+
95.0856	56	C7H11+
96.0444	9	C5H6NO+
96.0808	18	C6H10N+
98.0602	10	C5H8NO+
105.07	24	C8H9+
106.0651	108	C7H8N+
107.0729	15	C7H9N+
108.0443	10	C6H6NO+
108.0808	151	C7H10N+
109.0644	13	C7H9O+
109.0883	11	C7H11N+
110.0602	24	C6H8NO+
111.068	7	C6H9NO+
117.0574	46	C8H7N+
118.0652	338	C8H8N+
119.073	95	C8H9N+
120.0808	425	C8H10N+
122.0964	19	C8H12N+
123.0806	19	C8H11O+
132.081	10	C9H10N+
136.0757	341	C8H10NO+
138.0913	24	C8H12NO+
139.0752	14	C8H11O2+
146.0964	8	C10H12N+
154.0857	8	C8H12NO2+
