Mass spectrum: Isophorone; LC-ESI-ITFT; MS2; CE: 105%; R=15000; [M+H]+
Name: Isophorone
Name: 3,5,5-trimethylcyclohex-2-en-1-one
Formula: C9H14O
Exact mass: 138.1045
SMILES: CC1=CC(=O)CC(C)(C)C1
InChI: InChI=1S/C9H14O/c1-7-4-8(10)6-9(2,3)5-7/h4H,5-6H2,1-3H3
Instrument: LTQ Orbitrap XL Thermo Scientific
Instrument type: LC-ESI-ITFT
Ms type: MS2
Ion mode: POSITIVE
Ionization: ESI
Fragmentation mode: HCD
Collision energy: 105% (nominal)
Resolution: 15000
Column name: Kinetex Evo C18 2.6 um 50 x 2.1 mm
Retention time: 8.704 min
Base peak: 116.9858
Precursor m/z: 139.1117
Precursor type: [M+H]+
m/z	relative intensity	assigned
67.0543	49	C5H7+
69.0335	999	C4H5O+
77.0385	171	C6H5+
79.0543	213	C6H7+
83.0491	104	C5H7O+
91.0543	198	C7H7+
93.0698	132	C7H9+
95.0493	60	C6H7O+
96.0571	34	C6H8O+
97.0648	204	C6H9O+
103.0542	35	C8H7+
105.0698	132	C8H9+
109.0647	39	C7H9O+
121.1013	37	C9H13+
