Mass spectrum: Isophorone; LC-ESI-ITFT; MS2; CE: 95%; R=15000; [M+H]+
Name: Isophorone
Name: 3,5,5-trimethylcyclohex-2-en-1-one
Formula: C9H14O
Exact mass: 138.1045
SMILES: CC1=CC(=O)CC(C)(C)C1
InChI: InChI=1S/C9H14O/c1-7-4-8(10)6-9(2,3)5-7/h4H,5-6H2,1-3H3
Instrument: LTQ Orbitrap XL Thermo Scientific
Instrument type: LC-ESI-ITFT
Ms type: MS2
Ion mode: POSITIVE
Ionization: ESI
Fragmentation mode: HCD
Collision energy: 95% (nominal)
Resolution: 15000
Column name: Kinetex Evo C18 2.6 um 50 x 2.1 mm
Retention time: 8.704 min
Base peak: 116.9858
Precursor m/z: 139.1117
Precursor type: [M+H]+
m/z	relative intensity	assigned
55.0543	18	C4H7+
67.0542	34	C5H7+
69.0335	999	C4H5O+
77.0386	85	C6H5+
79.0543	146	C6H7+
81.0699	40	C6H9+
83.0491	141	C5H7O+
91.0541	109	C7H7+
93.0698	194	C7H9+
95.0489	32	C6H7O+
95.0858	47	C7H11+
96.057	26	C6H8O+
97.0647	258	C6H9O+
103.0542	28	C8H7+
105.0698	169	C8H9+
106.0776	22	C8H10+
109.0645	21	C7H9O+
119.0855	23	C9H11+
121.1012	95	C9H13+
139.1118	101	C9H15O+
