Mass spectrum: Tomatidine; LC-ESI-ITFT; MS2; CE: 70%; R=15000; [M+H]+
Name: Tomatidine
Formula: C27H45NO2
Exact mass: 415.3450
SMILES: C[C@H]1[C@H]2[C@H](C[C@H]3[C@@H]4CC[C@H]5C[C@@H](O)CC[C@]5(C)[C@H]4CC[C@]23C)O[C@@]11CC[C@H](C)CN1
InChI: InChI=1S/C27H45NO2/c1-16-7-12-27(28-15-16)17(2)24-23(30-27)14-22-20-6-5-18-13-19(29)8-10-25(18,3)21(20)9-11-26(22,24)4/h16-24,28-29H,5-15H2,1-4H3/t16-,17-,18-,19-,20+,21-,22-,23-,24-,25-,26-,27-/m0/s1
Instrument: LTQ Orbitrap XL Thermo Scientific
Instrument type: LC-ESI-ITFT
Ms type: MS2
Ion mode: POSITIVE
Ionization: ESI
Fragmentation mode: CID
Collision energy: 70 % (nominal)
Resolution: 15000
Column name: Kinetex Evo C18 2.6 um 50 x 2.1 mm
Retention time: 10.008 min
Base peak: 217.0493
Precursor m/z: 416.3523
Precursor type: [M+H]+
m/z	relative intensity	assigned
105.0699	1	C8H9+
119.0856	8	C9H11+
121.1013	4	C9H13+
124.1122	5	C8H14N+
126.1278	53	C8H16N+
128.0623	2	C10H8+
129.0702	4	C10H9+
131.0856	13	C10H11+
133.1013	18	C10H13+
135.1169	13	C10H15+
143.0855	5	C11H11+
145.1013	41	C11H13+
147.117	57	C11H15+
149.1327	9	C11H17+
151.1119	6	C10H15O+
157.1015	4	C12H13+
159.117	55	C12H15+
161.1327	177	C12H17+
163.1119	18	C11H15O+
171.1171	9	C13H15+
173.1327	62	C13H17+
175.1482	6	C13H19+
177.1277	2	C12H17O+
185.1327	25	C14H17+
187.1483	15	C14H19+
189.1638	3	C14H21+
191.1432	2	C13H19O+
199.1482	39	C15H19+
201.1644	2	C15H21+
213.1639	26	C16H21+
215.1795	13	C16H23+
227.1796	21	C17H23+
253.196	1	C19H25+
255.2109	531	C19H27+
273.2214	363	C19H29O+
398.342	999	C27H44NO+
