Mass spectrum: 6-beta-Hydroxycortisol; LC-ESI-ITFT; MS2; CE: 100%; R=15000; [M+H]+
Name: 6-beta-Hydroxycortisol
Name: 6beta-Hydroxycortisol
Name: (6R,8S,9S,10R,11S,13S,14S,17R)-6,11,17-trihydroxy-17-(2-hydroxyacetyl)-10,13-dimethyl-2,6,7,8,9,11,12,14,15,16-decahydro-1H-cyclopenta[a]phenanthren-3-one
Formula: C21H30O6
Exact mass: 378.2042
SMILES: C[C@]12C[C@H](O)[C@H]3[C@@H](C[C@@H](O)C4=CC(=O)CC[C@]34C)[C@@H]1CC[C@]2(O)C(=O)CO
InChI: InChI=1S/C21H30O6/c1-19-5-3-11(23)7-14(19)15(24)8-12-13-4-6-21(27,17(26)10-22)20(13,2)9-16(25)18(12)19/h7,12-13,15-16,18,22,24-25,27H,3-6,8-10H2,1-2H3/t12-,13-,15+,16-,18+,19-,20-,21-/m0/s1
Instrument: LTQ Orbitrap XL Thermo Scientific
Instrument type: LC-ESI-ITFT
Ms type: MS2
Ion mode: POSITIVE
Ionization: ESI
Fragmentation mode: HCD
Collision energy: 100 % (nominal)
Resolution: 15000
Column name: Kinetex Evo C18 2.6 um 50 x 2.1 mm
Retention time: 6.511 min
Base peak: 379.2119
Precursor m/z: 379.2115
Precursor type: [M+H]+
m/z	relative intensity	assigned
55.0177	85	C3H3O+
55.0541	131	C4H7+
67.0543	234	C5H7+
69.0336	33	C4H5O+
69.0699	47	C5H9+
77.0388	132	C6H5+
79.0544	382	C6H7+
81.0701	242	C6H9+
83.0494	143	C5H7O+
91.0546	999	C7H7+
93.0702	391	C7H9+
95.0494	84	C6H7O+
95.0859	101	C7H11+
97.0651	210	C6H9O+
103.0546	104	C8H7+
105.0451	167	C6H5N2+
105.0703	878	C8H9+
107.0494	91	C7H7O+
107.086	110	C8H11+
109.0653	113	C7H9O+
115.0547	205	C9H7+
116.0624	80	C9H8+
117.0702	290	C9H9+
119.0858	248	C9H11+
121.0652	208	C8H9O+
128.0624	456	C10H8+
129.0702	378	C10H9+
130.0779	141	C10H10+
131.0859	327	C10H11+
133.1016	52	C10H13+
135.0808	51	C9H11O+
141.0702	355	C11H9+
142.078	325	C11H10+
143.0859	288	C11H11+
145.065	85	C10H9O+
145.1016	114	C11H13+
152.0623	62	C12H8+
153.0703	235	C12H9+
154.078	130	C12H10+
155.0607	60	C10H7N2+
155.086	367	C12H11+
156.0939	90	C12H12+
157.0648	49	C11H9O+
157.1018	121	C12H13+
159.0806	80	C11H11O+
165.0703	322	C13H9+
166.0782	145	C13H10+
167.0859	293	C13H11+
168.0935	127	C13H12+
169.1014	178	C13H13+
178.0785	118	C14H10+
179.0859	264	C14H11+
180.0939	100	C14H12+
181.1016	227	C14H13+
183.1173	108	C14H15+
190.0778	39	C15H10+
191.0861	129	C15H11+
192.0937	98	C15H12+
193.1017	128	C15H13+
195.1175	110	C15H15+
202.0784	50	C16H10+
203.0859	44	C16H11+
205.101	75	C16H13+
207.1167	41	C16H15+
209.1332	63	C16H17+
223.1488	37	C17H19+
