Mass spectrum: Formononetin; LC-ESI-ITFT; MS2; CE: 80%; R=15000; [M+H]+
Name: Formononetin
Name: 7-hydroxy-3-(4-methoxyphenyl)chromen-4-one
Formula: C16H12O4
Exact mass: 268.0736
SMILES: COc1ccc(cc1)c2coc3cc(ccc3c2=O)O
InChI: InChI=1S/C16H12O4/c1-19-12-5-2-10(3-6-12)14-9-20-15-8-11(17)4-7-13(15)16(14)18/h2-9,17H,1H3
Instrument: LTQ Orbitrap XL Thermo Scientific
Instrument type: LC-ESI-ITFT
Ms type: MS2
Ion mode: POSITIVE
Ionization: ESI
Fragmentation mode: HCD
Collision energy: 80% (nominal)
Resolution: 15000
Column name: Kinetex Evo C18 2.6 um 50 x 2.1 mm
Retention time: 10.650 min
Base peak: 116.9859
Precursor m/z: 269.0808
Precursor type: [M+H]+
m/z	relative intensity	assigned
90.0464	65	C7H6+
105.0697	34	C8H9+
107.0492	73	C7H7O+
108.0209	65	C6H4O2+
118.0413	424	C8H6O+
133.0646	100	C9H9O+
136.0155	94	C7H4O3+
137.0233	180	C7H5O3+
152.062	74	C12H8+
153.0699	51	C12H9+
156.0569	135	C11H8O+
169.0648	121	C12H9O+
170.0727	228	C12H10O+
180.0575	32	C13H8O+
181.0648	280	C13H9O+
182.0727	87	C13H10O+
196.0516	56	C13H8O2+
197.0598	999	C13H9O2+
198.0675	257	C13H10O2+
200.0471	76	C12H8O3+
209.0593	43	C14H9O2+
213.0913	262	C14H13O2+
225.0548	401	C14H9O3+
226.0624	632	C14H10O3+
237.0547	332	C15H9O3+
253.0498	480	C15H9O4+
254.0576	110	C15H10O4+
269.0813	86	C16H13O4+
