Mass spectrum: Vincamin; LC-ESI-ITFT; MS2; CE: 60%; R=15000; [M+H]+
Name: Vincamin
Name: Vincamine
Name: methyl (15S,17S,19S)-15-ethyl-17-hydroxy-1,11-diazapentacyclo[9.6.2.02,7.08,18.015,19]nonadeca-2,4,6,8(18)-tetraene-17-carboxylate
Formula: C21H26N2O3
Exact mass: 354.1943
SMILES: CC[C@@]12CCCN3[C@@H]1C4=C(CC3)C5=CC=CC=C5N4[C@](C2)(C(=O)OC)O
InChI: InChI=1S/C21H26N2O3/c1-3-20-10-6-11-22-12-9-15-14-7-4-5-8-16(14)23(17(15)18(20)22)21(25,13-20)19(24)26-2/h4-5,7-8,18,25H,3,6,9-13H2,1-2H3/t18-,20+,21+/m1/s1
Instrument: LTQ Orbitrap XL Thermo Scientific
Instrument type: LC-ESI-ITFT
Ms type: MS2
Ion mode: POSITIVE
Ionization: ESI
Fragmentation mode: HCD
Collision energy: 60% (nominal)
Resolution: 15000
Column name: Kinetex Evo C18 2.6 um 50 x 2.1 mm
Retention time: 6.603 min
Base peak: 355.2014
Precursor m/z: 355.2016
Precursor type: [M+H]+
m/z	relative intensity	assigned
55.0541	5	C4H7+
67.0542	15	C5H7+
70.0651	64	C4H8N+
79.0541	10	C6H7+
81.0698	10	C6H9+
83.0491	60	C5H7O+
84.0807	13	C5H10N+
91.0542	13	C7H7+
93.0698	30	C7H9+
94.0648	4	C6H8N+
95.0855	45	C7H11+
98.0964	18	C6H12N+
105.0698	23	C8H9+
107.0855	37	C8H11+
108.0806	14	C7H10N+
109.0649	9	C7H9O+
109.1009	9	C8H13+
110.0963	105	C7H12N+
111.1042	27	C7H13N+
112.112	33	C7H14N+
117.0698	19	C9H9+
120.0804	10	C8H10N+
121.0648	15	C8H9O+
122.0597	27	C7H8NO+
122.0963	25	C8H12N+
123.0804	53	C8H11O+
123.1046	6	C8H13N+
124.0757	19	C7H10NO+
124.112	105	C8H14N+
130.0649	31	C9H8N+
131.0727	5	C9H9N+
132.0807	16	C9H10N+
133.0647	12	C9H9O+
134.0963	78	C9H12N+
135.0803	33	C9H11O+
136.1122	8	C9H14N+
138.1276	11	C9H16N+
143.0732	9	C10H9N+
144.0807	999	C10H10N+
146.0963	14	C10H12N+
148.0753	6	C9H10NO+
150.0914	18	C9H12NO+
151.0751	14	C9H11O2+
152.1069	400	C9H14NO+
154.0864	13	C8H12NO2+
156.0806	44	C11H10N+
157.0889	7	C11H11N+
158.0962	51	C11H12N+
160.1116	14	C11H14N+
162.0913	51	C10H12NO+
164.1068	22	C10H14NO+
165.0912	8	C10H13O2+
168.0808	17	C12H10N+
170.0601	26	C11H8NO+
170.0964	33	C12H12N+
171.0919	6	C11H11N2+
172.1117	12	C12H14N+
174.0922	7	C11H12NO+
180.0808	24	C13H10N+
181.0888	23	C13H11N+
182.0962	31	C13H12N+
184.0759	11	C12H10NO+
184.1126	13	C13H14N+
194.0963	19	C14H12N+
194.1174	69	C11H16NO2+
195.104	5	C14H13N+
196.0761	7	C13H10NO+
196.0965	11	C10H14NO3+
196.1119	16	C14H14N+
198.0911	13	C13H12NO+
198.1274	21	C14H16N+
204.0799	7	C15H10N+
205.0886	16	C15H11N+
206.0965	33	C15H12N+
207.1043	16	C15H13N+
207.1165	7	C16H15+
208.0749	6	C14H10NO+
208.1118	64	C15H14N+
209.1199	57	C15H15N+
210.1276	45	C15H16N+
212.1279	274	C11H18NO3+
216.1016	11	C13H14NO2+
218.0965	5	C16H12N+
219.1042	39	C16H13N+
220.1121	57	C16H14N+
221.1199	38	C16H15N+
222.1276	109	C16H16N+
223.1235	9	C15H15N2+
223.1362	18	C16H17N+
224.1306	28	C15H16N2+
224.1432	79	C16H18N+
226.1232	13	C15H16NO+
231.1048	8	C17H13N+
232.1119	7	C17H14N+
233.1203	8	C17H15N+
234.1275	140	C17H16N+
235.1236	8	C16H15N2+
235.1358	45	C17H17N+
236.1073	11	C16H14NO+
236.1433	85	C17H18N+
237.0774	6	C15H11NO2+
237.1394	14	C16H17N2+
238.0858	11	C15H12NO2+
238.1226	14	C16H16NO+
238.1598	8	C17H20N+
239.094	59	C15H13NO2+
239.1543	11	C16H19N2+
246.1274	18	C18H16N+
247.1233	6	C17H15N2+
248.131	25	C17H16N2+
248.1432	84	C18H18N+
249.1387	36	C17H17N2+
249.1515	25	C18H19N+
250.0854	9	C16H12NO2+
250.123	7	C17H16NO+
250.159	56	C18H20N+
251.0936	9	C16H13NO2+
252.1016	49	C16H14NO2+
252.1392	10	C17H18NO+
253.1094	50	C16H15NO2+
253.1698	38	C17H21N2+
254.118	14	C16H16NO2+
260.1441	12	C19H18N+
262.1222	27	C18H16NO+
262.1473	8	C18H18N2+
264.1015	42	C17H14NO2+
265.1096	162	C17H15NO2+
266.1176	132	C17H16NO2+
266.1533	25	C18H20NO+
267.1253	203	C17H17NO2+
268.1331	265	C17H18NO2+
276.1018	7	C18H14NO2+
277.1339	7	C18H17N2O+
277.1699	81	C19H21N2+
278.1176	38	C18H16NO2+
278.1783	20	C19H22N2+
279.1252	171	C18H17NO2+
280.1329	927	C18H18NO2+
282.1486	29	C18H20NO2+
290.1178	18	C19H16NO2+
291.1255	37	C19H17NO2+
292.133	82	C19H18NO2+
293.1408	60	C19H19NO2+
294.1487	836	C19H20NO2+
295.1803	113	C19H23N2O+
305.1649	14	C20H21N2O+
306.1484	34	C20H20NO2+
307.144	97	C19H19N2O2+
320.1636	25	C21H22NO2+
326.1744	8	C20H24NO3+
337.1907	487	C21H25N2O2+
355.2009	40	C21H27N2O3+
