Mass spectrum: Echimidine N-oxide; LC-ESI-ITFT; MS2; CE: 90%; R=15000; [M+H]+
Name: Echimidine N-oxide
Name: [(7R,8R)-7-[(Z)-2-methylbut-2-enoyl]oxy-4-oxido-5,6,7,8-tetrahydro-3H-pyrrolizin-4-ium-1-yl]methyl (2R)-2,3-dihydroxy-2-[(1S)-1-hydroxyethyl]-3-methylbutanoate
Formula: C20H31NO8
Exact mass: 413.2050
SMILES: C/C=C(/C)\C(=O)O[C@@H]1CC[N+]2([C@@H]1C(=CC2)COC(=O)[C@@]([C@H](C)O)(C(C)(C)O)O)[O-]
InChI: InChI=1S/C20H31NO8/c1-6-12(2)17(23)29-15-8-10-21(27)9-7-14(16(15)21)11-28-18(24)20(26,13(3)22)19(4,5)25/h6-7,13,15-16,22,25-26H,8-11H2,1-5H3/b12-6-/t13-,15+,16+,20-,21?/m0/s1
Instrument: LTQ Orbitrap XL Thermo Scientific
Instrument type: LC-ESI-ITFT
Ms type: MS2
Ion mode: POSITIVE
Ionization: ESI
Fragmentation mode: HCD
Collision energy: 90% (nominal)
Resolution: 15000
Column name: Kinetex Evo C18 2.6 um 50 x 2.1 mm
Retention time: 6.545 min
Base peak: 414.2117
Precursor m/z: 414.2122
Precursor type: [M+H]+
m/z	relative intensity	assigned
55.0541	282	C4H7+
66.0463	17	C5H6+
67.0415	23	C4H5N+
67.0542	58	C5H7+
68.0494	73	C4H6N+
69.0334	9	C4H5O+
70.065	9	C4H8N+
77.0386	25	C6H5+
79.0542	130	C6H7+
80.0495	416	C5H6N+
81.0573	65	C5H7N+
81.0698	96	C6H9+
82.0413	35	C5H6O+
82.0652	71	C5H8N+
83.0491	871	C5H7O+
84.0444	87	C4H6NO+
91.0542	120	C7H7+
92.0495	34	C6H6N+
93.0573	460	C6H7N+
93.0698	52	C7H9+
94.0651	999	C6H8N+
95.0494	12	C6H7O+
95.0729	78	C6H9N+
96.0442	20	C5H6NO+
96.0806	12	C6H10N+
98.0599	33	C5H8NO+
103.0543	18	C8H7+
105.0702	13	C8H9+
106.0651	593	C7H8N+
107.073	41	C7H9N+
107.0856	16	C8H11+
108.0807	281	C7H10N+
109.0645	15	C7H9O+
109.0886	33	C7H11N+
110.06	70	C6H8NO+
111.0678	232	C6H9NO+
112.0756	74	C6H10NO+
117.0573	19	C8H7N+
118.0651	380	C8H8N+
119.0729	279	C8H9N+
120.0807	553	C8H10N+
121.0885	29	C8H11N+
122.0601	20	C7H8NO+
122.0965	22	C8H12N+
124.0756	122	C7H10NO+
126.0908	17	C7H12NO+
132.0806	21	C9H10N+
134.0968	15	C9H12N+
136.0756	526	C8H10NO+
137.0834	140	C8H11NO+
138.0913	54	C8H12NO+
140.0835	16	C8H12O2+
141.091	197	C8H13O2+
146.0965	24	C10H12N+
148.1117	25	C10H14N+
154.0862	135	C8H12NO2+
172.0969	11	C8H14NO3+
176.1072	16	C11H14NO+
254.139	31	C13H20NO4+
