Mass spectrum: Senecionine; LC-ESI-ITFT; MS2; CE: 85%; R=15000; [M+H]+
Name: Senecionine
Name: (1R,4Z,6R,7R,17R)-4-ethylidene-7-hydroxy-6,7-dimethyl-2,9-dioxa-14-azatricyclo[9.5.1.014,17]heptadec-11-ene-3,8-dione
Formula: C18H25NO5
Exact mass: 335.1733
SMILES: C/C=C\1/C[C@H]([C@@](C(=O)OCC2=CCN3[C@H]2[C@@H](CC3)OC1=O)(C)O)C
InChI: InChI=1S/C18H25NO5/c1-4-12-9-11(2)18(3,22)17(21)23-10-13-5-7-19-8-6-14(15(13)19)24-16(12)20/h4-5,11,14-15,22H,6-10H2,1-3H3/b12-4-/t11-,14-,15-,18-/m1/s1
Instrument: LTQ Orbitrap XL Thermo Scientific
Instrument type: LC-ESI-ITFT
Ms type: MS2
Ion mode: POSITIVE
Ionization: ESI
Fragmentation mode: HCD
Collision energy: 85% (nominal)
Resolution: 15000
Column name: Kinetex Evo C18 2.6 um 50 x 2.1 mm
Retention time: 4.051 min
Base peak: 143.0017
Precursor m/z: 336.1805
Precursor type: [M+H]+
m/z	relative intensity	assigned
67.0543	388	C5H7+
68.0495	139	C4H6N+
77.0386	128	C6H5+
79.0543	220	C6H7+
80.0495	354	C5H6N+
81.0573	83	C5H7N+
81.07	229	C6H9+
82.0652	223	C5H8N+
83.0492	38	C5H7O+
84.0443	25	C4H6NO+
91.0543	375	C7H7+
92.0497	47	C6H6N+
93.0575	68	C6H7N+
93.07	238	C7H9+
94.0652	999	C6H8N+
95.0733	30	C6H9N+
96.0808	379	C6H10N+
103.0542	126	C8H7+
105.057	35	C7H7N+
105.0698	75	C8H9+
106.0651	72	C7H8N+
107.073	69	C7H9N+
107.0856	134	C8H11+
108.0809	241	C7H10N+
110.0599	60	C6H8NO+
110.0965	131	C7H12N+
118.0652	167	C8H8N+
119.0731	31	C8H9N+
120.0809	681	C8H10N+
122.0966	111	C8H12N+
125.0962	74	C8H13O+
138.0914	426	C8H12NO+
156.1017	46	C8H14NO2+
