Mass spectrum: Senecivernine N-oxide; LC-ESI-ITFT; MS2; CE: 45%; R=15000; [M+H]+
Name: Senecivernine N-oxide
Name: CID 14313723
Name: 7-hydroxy-5,6,7-trimethyl-4-methylidene-14-oxido-2,9-dioxa-14-azoniatricyclo[9.5.1.014,17]heptadec-11-ene-3,8-dione
Formula: C18H25NO6
Exact mass: 351.1682
SMILES: CC1C(C(C(=O)OCC2=CC[N+]3(C2C(CC3)OC(=O)C1=C)[O-])(C)O)C
InChI: InChI=1S/C18H25NO6/c1-10-11(2)16(20)25-14-6-8-19(23)7-5-13(15(14)19)9-24-17(21)18(4,22)12(10)3/h5,10,12,14-15,22H,2,6-9H2,1,3-4H3
Instrument: LTQ Orbitrap XL Thermo Scientific
Instrument type: LC-ESI-ITFT
Ms type: MS2
Ion mode: POSITIVE
Ionization: ESI
Fragmentation mode: HCD
Collision energy: 45% (nominal)
Resolution: 15000
Column name: Kinetex Evo C18 2.6 um 50 x 2.1 mm
Retention time: 4.712 min
Base peak: 352.1754
Precursor m/z: 352.1755
Precursor type: [M+H]+
m/z	relative intensity	assigned
79.0543	5	C6H7+
80.0494	3	C5H6N+
81.0699	16	C6H9+
93.0574	15	C6H7N+
94.0651	30	C6H8N+
95.073	110	C6H9N+
106.0651	31	C7H8N+
107.0859	5	C8H11+
108.0807	15	C7H10N+
109.065	5	C7H9O+
110.0726	6	C7H10O+
112.0758	7	C6H10NO+
118.0652	133	C8H8N+
119.073	102	C8H9N+
120.0808	87	C8H10N+
121.0886	98	C8H11N+
122.0964	20	C8H12N+
125.0965	3	C8H13O+
136.0757	69	C8H10NO+
137.0836	11	C8H11NO+
138.0914	77	C8H12NO+
152.1071	7	C9H14NO+
153.0911	16	C9H13O2+
154.0863	50	C8H12NO2+
192.1381	3	C12H18NO+
202.1235	5	C13H16NO+
211.133	5	C12H19O3+
218.1182	6	C13H16NO2+
218.1537	5	C14H20NO+
220.1332	48	C13H18NO2+
246.1492	7	C15H20NO2+
248.1643	26	C15H22NO2+
290.1758	6	C17H24NO3+
324.1807	48	C17H26NO5+
352.1756	999	C18H26NO6+
