Mass spectrum: Ajmalicine; LC-ESI-ITFT; MS2; CE: 90%; R=15000; [M+H]+
Name: Ajmalicine
Name: methyl (1S,15R,16S,20S)-16-methyl-17-oxa-3,13-diazapentacyclo[11.8.0.02,10.04,9.015,20]henicosa-2(10),4,6,8,18-pentaene-19-carboxylate
Formula: C21H24N2O3
Exact mass: 352.1787
SMILES: C[C@H]1[C@H]2CN3CCc4c5ccccc5[nH]c4[C@@H]3C[C@@H]2C(=CO1)C(=O)OC
InChI: InChI=1S/C21H24N2O3/c1-12-16-10-23-8-7-14-13-5-3-4-6-18(13)22-20(14)19(23)9-15(16)17(11-26-12)21(24)25-2/h3-6,11-12,15-16,19,22H,7-10H2,1-2H3/t12-,15-,16+,19-/m0/s1
Instrument: LTQ Orbitrap XL Thermo Scientific
Instrument type: LC-ESI-ITFT
Ms type: MS2
Ion mode: POSITIVE
Ionization: ESI
Fragmentation mode: HCD
Collision energy: 90% (nominal)
Resolution: 15000
Column name: Kinetex Evo C18 2.6 um 50 x 2.1 mm
Retention time: 7.548 min
Base peak: 353.1858
Precursor m/z: 353.186
Precursor type: [M+H]+
m/z	relative intensity	assigned
56.0493	1	C3H6N+
77.0386	8	C6H5+
79.0542	14	C6H7+
80.0494	2	C5H6N+
81.0699	14	C6H9+
82.065	2	C5H8N+
83.0129	5	C4H3O2+
91.0542	34	C7H7+
93.0575	3	C6H7N+
93.0699	2	C7H9+
95.0491	7	C6H7O+
96.0807	2	C6H10N+
103.0542	20	C8H7+
104.0493	3	C7H6N+
105.0448	5	C6H5N2+
105.0698	8	C8H9+
106.0652	3	C7H8N+
107.049	5	C7H7O+
108.0808	14	C7H10N+
109.0283	5	C6H5O2+
109.0647	3	C7H9O+
115.0542	75	C9H7+
116.0495	7	C8H6N+
116.0575	2	C4H8N2O2+
116.062	4	C9H8+
117.0573	39	C8H7N+
117.0699	242	C9H9+
118.0651	12	C8H8N+
118.0732	13	C4H10N2O2+
119.0731	2	C8H9N+
120.0808	2	C8H10N+
121.0645	4	C8H9O+
122.0236	3	C6H4NO2+
124.0394	16	C6H6NO2+
127.0542	10	C10H7+
128.0494	22	C9H6N+
128.0621	25	C10H8+
129.057	4	C9H7N+
129.0699	31	C10H9+
130.0651	50	C9H8N+
131.0727	7	C9H9N+
132.0807	3	C9H10N+
133.0646	2	C9H9O+
134.06	2	C8H8NO+
134.097	3	C9H12N+
135.0441	1	C8H7O2+
141.0701	1	C11H9+
142.0653	12	C10H8N+
143.073	217	C10H9N+
144.0807	999	C10H10N+
145.0647	7	C10H9O+
146.0599	5	C9H8NO+
148.0757	1	C9H10NO+
153.0698	3	C12H9+
154.0652	25	C11H8N+
155.0604	111	C10H7N2+
155.0729	40	C11H9N+
156.0807	45	C11H10N+
157.0886	19	C11H11N+
158.0604	2	C10H8NO+
158.0963	11	C11H12N+
162.091	2	C10H12NO+
165.07	4	C13H9+
167.0732	41	C12H9N+
168.0807	55	C12H10N+
169.0884	8	C12H11N+
170.0964	41	C12H12N+
178.0775	1	C14H10+
178.0862	3	C10H12NO2+
180.0808	31	C13H10N+
181.0886	18	C13H11N+
182.0964	28	C13H12N+
183.0916	2	C12H11N2+
184.0988	1	C12H12N2+
191.0728	6	C14H9N+
192.0807	11	C14H10N+
193.0887	9	C14H11N+
194.0963	14	C14H12N+
196.0753	2	C13H10NO+
196.1113	1	C14H14N+
204.081	13	C15H10N+
205.089	8	C15H11N+
206.0963	14	C15H12N+
207.1046	5	C15H13N+
208.0755	2	C14H10NO+
208.1125	3	C15H14N+
217.0885	13	C16H11N+
218.0964	11	C16H12N+
220.0751	3	C15H10NO+
220.1128	5	C16H14N+
221.084	2	C15H11NO+
222.0908	1	C15H12NO+
224.1071	1	C15H14NO+
230.0969	5	C17H12N+
231.1045	5	C17H13N+
232.1127	2	C17H14N+
234.0913	5	C16H12NO+
246.0906	2	C17H12NO+
248.1068	1	C17H14NO+
