Mass spectrum: Sophocarpine; LC-ESI-ITFT; MS2; CE: 60%; R=15000; [M+H]+
Name: Sophocarpine
Name: (1R,2R,9S,17S)-7,13-diazatetracyclo[7.7.1.02,7.013,17]heptadec-4-en-6-one
Formula: C15H22N2O
Exact mass: 246.1732
SMILES: C1C[C@H]2CN3[C@H](CC=CC3=O)[C@@H]4[C@H]2N(C1)CCC4
InChI: InChI=1S/C15H22N2O/c18-14-7-1-6-13-12-5-3-9-16-8-2-4-11(15(12)16)10-17(13)14/h1,7,11-13,15H,2-6,8-10H2/t11-,12+,13+,15-/m0/s1
Instrument: LTQ Orbitrap XL Thermo Scientific
Instrument type: LC-ESI-ITFT
Ms type: MS2
Ion mode: POSITIVE
Ionization: ESI
Fragmentation mode: HCD
Collision energy: 60% (nominal)
Resolution: 15000
Column name: Kinetex Evo C18 2.6 um 50 x 2.1 mm
Retention time: 0.877 min
Base peak: 247.1804
Precursor m/z: 247.1805
Precursor type: [M+H]+
m/z	relative intensity	assigned
81.0335	2	C5H5O+
96.0808	20	C6H10N+
98.0965	5	C6H12N+
110.0602	3	C6H8NO+
110.096	2	C7H12N+
112.0761	2	C6H10NO+
136.1122	98	C9H14N+
138.1277	13	C9H16N+
148.076	2	C9H10NO+
148.1121	15	C10H14N+
150.0911	2	C9H12NO+
150.1279	44	C10H16N+
152.1436	6	C10H18N+
162.0913	2	C10H12NO+
164.1072	4	C10H14NO+
176.107	4	C11H14NO+
179.1544	217	C11H19N2+
218.1547	2	C14H20NO+
227.1549	2	C15H19N2+
228.138	2	C15H18NO+
229.1703	8	C15H21N2+
230.1538	4	C15H20NO+
245.1651	126	C15H21N2O+
247.1805	999	C15H23N2O+
