Mass spectrum: Lasiocarpine; LC-ESI-ITFT; MS2; CE: 35%; R=15000; [M+H]+
Name: Lasiocarpine
Name: [(7S,8R)-7-[(Z)-2-methylbut-2-enoyl]oxy-5,6,7,8-tetrahydro-3H-pyrrolizin-1-yl]methyl (2R)-2,3-dihydroxy-2-[(1S)-1-methoxyethyl]-3-methylbutanoate
Formula: C21H33NO7
Exact mass: 411.2257
SMILES: C/C=C(/C)\C(=O)O[C@H]1CCN2[C@@H]1C(=CC2)COC(=O)[C@@]([C@H](C)OC)(C(C)(C)O)O
InChI: InChI=1S/C21H33NO7/c1-7-13(2)18(23)29-16-9-11-22-10-8-15(17(16)22)12-28-19(24)21(26,14(3)27-6)20(4,5)25/h7-8,14,16-17,25-26H,9-12H2,1-6H3/b13-7-/t14-,16-,17+,21-/m0/s1
Instrument: LTQ Orbitrap XL Thermo Scientific
Instrument type: LC-ESI-ITFT
Ms type: MS2
Ion mode: POSITIVE
Ionization: ESI
Fragmentation mode: HCD
Collision energy: 35% (nominal)
Resolution: 15000
Column name: Kinetex Evo C18 2.6 um 50 x 2.1 mm
Retention time: 7.434 min
Base peak: 412.2328
Precursor m/z: 412.233
Precursor type: [M+H]+
m/z	relative intensity	assigned
55.0541	3	C4H7+
59.049	10	C3H7O+
83.0491	5	C5H7O+
89.0597	1	C4H9O2+
93.07	1	C7H9+
94.0652	2	C6H8N+
97.0648	3	C6H9O+
108.0809	2	C7H10N+
120.0808	999	C8H10N+
121.0889	4	C8H11N+
136.0757	2	C8H10NO+
138.0913	23	C8H12NO+
152.1068	1	C9H14NO+
156.1022	1	C8H14NO2+
157.0861	2	C8H13O3+
218.1179	2	C13H16NO2+
220.1333	391	C13H18NO2+
222.112	2	C12H16NO3+
236.1281	6	C13H18NO3+
238.1439	107	C13H20NO3+
252.1594	1	C14H22NO3+
254.1387	14	C13H20NO4+
294.1708	2	C16H24NO4+
312.1806	4	C16H26NO5+
322.1654	11	C17H24NO5+
336.1806	200	C18H26NO5+
394.2232	5	C21H32NO6+
412.2333	35	C21H34NO7+
