Mass spectrum: Anabasine; LC-ESI-ITFT; MS2; CE: 80%; R=15000; [M+H]+
Name: Anabasine
Formula: C10H14N2
Exact mass: 162.1157
SMILES: C1CCC(NC1)C1=CC=CN=C1
InChI: InChI=1S/C10H14N2/c1-2-7-12-10(5-1)9-4-3-6-11-8-9/h3-4,6,8,10,12H,1-2,5,7H2
Instrument: LTQ Orbitrap XL Thermo Scientific
Instrument type: LC-ESI-ITFT
Ms type: MS2
Ion mode: POSITIVE
Ionization: ESI
Fragmentation mode: HCD
Collision energy: 80 % (nominal)
Resolution: 15000
Column name: Kinetex Evo C18 2.6 um 50 x 2.1 mm
Retention time: 0.423 min
Base peak: 163.123
Precursor m/z: 163.123
Precursor type: [M+H]+
m/z	relative intensity	assigned
65.0385	32	C5H5+
67.0542	14	C5H7+
70.0651	18	C4H8N+
79.0418	5	C5H5N+
79.0541	5	C6H7+
80.0495	115	C5H6N+
82.0651	20	C5H8N+
84.0807	36	C5H10N+
91.0542	138	C7H7+
92.0495	822	C6H6N+
93.0573	155	C6H7N+
94.0651	569	C6H8N+
103.0541	7	C8H7+
105.07	9	C8H9+
106.065	63	C7H8N+
107.0728	22	C7H9N+
117.0573	371	C8H7N+
118.0651	999	C8H8N+
119.0727	16	C8H9N+
119.0856	6	C9H11+
120.0807	252	C8H10N+
128.0621	10	C10H8+
129.0699	32	C10H9+
130.0651	332	C9H8N+
131.0729	314	C9H9N+
132.0808	57	C9H10N+
133.0886	6	C9H11N+
134.0964	225	C9H12N+
144.0808	123	C10H10N+
146.0964	382	C10H12N+
163.123	318	C10H15N2+
