Mass spectrum: Senecivernine N-oxide; LC-ESI-ITFT; MS2; CE: 90%; R=15000; [M+H]+
Name: Senecivernine N-oxide
Name: CID 14313723
Name: 7-hydroxy-5,6,7-trimethyl-4-methylidene-14-oxido-2,9-dioxa-14-azoniatricyclo[9.5.1.014,17]heptadec-11-ene-3,8-dione
Formula: C18H25NO6
Exact mass: 351.1682
SMILES: CC1C(C(C(=O)OCC2=CC[N+]3(C2C(CC3)OC(=O)C1=C)[O-])(C)O)C
InChI: InChI=1S/C18H25NO6/c1-10-11(2)16(20)25-14-6-8-19(23)7-5-13(15(14)19)9-24-17(21)18(4,22)12(10)3/h5,10,12,14-15,22H,2,6-9H2,1,3-4H3
Instrument: LTQ Orbitrap XL Thermo Scientific
Instrument type: LC-ESI-ITFT
Ms type: MS2
Ion mode: POSITIVE
Ionization: ESI
Fragmentation mode: HCD
Collision energy: 90% (nominal)
Resolution: 15000
Column name: Kinetex Evo C18 2.6 um 50 x 2.1 mm
Retention time: 4.725 min
Base peak: 352.1753
Precursor m/z: 352.1755
Precursor type: [M+H]+
m/z	relative intensity	assigned
65.0388	10	C5H5+
66.0463	17	C5H6+
67.0417	18	C4H5N+
67.0542	55	C5H7+
68.0494	20	C4H6N+
79.0543	136	C6H7+
80.0495	205	C5H6N+
81.0573	22	C5H7N+
81.0699	197	C6H9+
82.0651	25	C5H8N+
83.0493	31	C5H7O+
84.0444	18	C4H6NO+
91.0543	84	C7H7+
92.0495	27	C6H6N+
93.0574	457	C6H7N+
94.0652	999	C6H8N+
95.0729	134	C6H9N+
96.0808	28	C6H10N+
98.0598	16	C5H8NO+
106.0652	205	C7H8N+
107.0728	17	C7H9N+
107.0856	31	C8H11+
108.0808	168	C7H10N+
109.0643	12	C7H9O+
109.0889	12	C7H11N+
109.1013	9	C8H13+
110.0603	27	C6H8NO+
111.044	37	C6H7O2+
111.068	9	C6H9NO+
112.0757	13	C6H10NO+
117.0573	47	C8H7N+
118.0652	521	C8H8N+
119.073	227	C8H9N+
120.0808	781	C8H10N+
122.0965	25	C8H12N+
124.0754	15	C7H10NO+
136.0757	376	C8H10NO+
138.0914	66	C8H12NO+
148.1127	7	C10H14N+
174.0912	10	C11H12NO+
