Mass spectrum: Ajmalicine; LC-ESI-ITFT; MS2; CE: 85%; R=15000; [M+H]+
Name: Ajmalicine
Name: methyl (1S,15R,16S,20S)-16-methyl-17-oxa-3,13-diazapentacyclo[11.8.0.02,10.04,9.015,20]henicosa-2(10),4,6,8,18-pentaene-19-carboxylate
Formula: C21H24N2O3
Exact mass: 352.1787
SMILES: C[C@H]1[C@H]2CN3CCc4c5ccccc5[nH]c4[C@@H]3C[C@@H]2C(=CO1)C(=O)OC
InChI: InChI=1S/C21H24N2O3/c1-12-16-10-23-8-7-14-13-5-3-4-6-18(13)22-20(14)19(23)9-15(16)17(11-26-12)21(24)25-2/h3-6,11-12,15-16,19,22H,7-10H2,1-2H3/t12-,15-,16+,19-/m0/s1
Instrument: LTQ Orbitrap XL Thermo Scientific
Instrument type: LC-ESI-ITFT
Ms type: MS2
Ion mode: POSITIVE
Ionization: ESI
Fragmentation mode: HCD
Collision energy: 85% (nominal)
Resolution: 15000
Column name: Kinetex Evo C18 2.6 um 50 x 2.1 mm
Retention time: 7.548 min
Base peak: 353.1858
Precursor m/z: 353.186
Precursor type: [M+H]+
m/z	relative intensity	assigned
56.0492	1	C3H6N+
68.0496	1	C4H6N+
77.0386	6	C6H5+
79.0543	9	C6H7+
80.0494	1	C5H6N+
81.0699	10	C6H9+
82.0652	1	C5H8N+
83.0128	5	C4H3O2+
84.0809	2	C5H10N+
91.0542	22	C7H7+
93.0573	1	C6H7N+
93.0699	3	C7H9+
94.0652	1	C6H8N+
95.049	4	C6H7O+
96.081	1	C6H10N+
103.0542	13	C8H7+
104.0494	1	C7H6N+
105.0448	2	C6H5N2+
105.0698	6	C8H9+
106.0651	2	C7H8N+
107.0492	5	C7H7O+
108.0808	16	C7H10N+
109.0286	4	C6H5O2+
109.0647	3	C7H9O+
115.0542	43	C9H7+
116.0495	5	C8H6N+
116.0575	2	C4H8N2O2+
116.0619	3	C9H8+
117.0573	27	C8H7N+
117.0699	194	C9H9+
118.0651	10	C8H8N+
118.0732	15	C4H10N2O2+
119.0728	1	C8H9N+
120.0808	2	C8H10N+
121.0648	4	C8H9O+
122.0238	2	C6H4NO2+
124.0393	19	C6H6NO2+
127.0542	7	C10H7+
128.0495	16	C9H6N+
128.0621	15	C10H8+
129.0571	3	C9H7N+
129.0699	20	C10H9+
130.0651	34	C9H8N+
131.0727	5	C9H9N+
132.0807	4	C9H10N+
133.0645	1	C9H9O+
134.06	2	C8H8NO+
134.0964	3	C9H12N+
135.0443	2	C8H7O2+
136.0755	1	C8H10NO+
142.0653	8	C10H8N+
143.073	147	C10H9N+
144.0808	999	C10H10N+
145.0647	5	C10H9O+
146.0599	6	C9H8NO+
148.076	1	C9H10NO+
153.0703	2	C12H9+
154.0651	14	C11H8N+
155.0604	83	C10H7N2+
155.0729	30	C11H9N+
156.0807	37	C11H10N+
157.0883	14	C11H11N+
158.0601	2	C10H8NO+
158.0964	14	C11H12N+
162.0919	2	C10H12NO+
165.0696	2	C13H9+
167.0734	24	C12H9N+
168.0808	38	C12H10N+
169.0755	2	C11H9N2+
169.0882	9	C12H11N+
170.0964	48	C12H12N+
178.0865	5	C10H12NO2+
179.0852	1	C14H11+
180.0808	23	C13H10N+
181.0886	13	C13H11N+
182.0963	27	C13H12N+
184.0986	1	C12H12N2+
191.073	5	C14H9N+
192.0808	6	C14H10N+
193.0886	6	C14H11N+
194.0964	13	C14H12N+
196.0756	1	C13H10NO+
196.1118	3	C14H14N+
204.0809	9	C15H10N+
205.0887	7	C15H11N+
206.0965	10	C15H12N+
207.1046	6	C15H13N+
208.0762	2	C14H10NO+
208.1121	5	C15H14N+
210.0918	1	C14H12NO+
217.0884	9	C16H11N+
218.0969	8	C16H12N+
219.1051	2	C16H13N+
220.0761	5	C15H10NO+
220.1125	4	C16H14N+
221.0838	1	C15H11NO+
222.0913	1	C15H12NO+
224.1067	1	C15H14NO+
230.097	3	C17H12N+
231.1049	3	C17H13N+
232.1124	4	C17H14N+
233.0833	1	C16H11NO+
234.0921	3	C16H12NO+
246.0909	1	C17H12NO+
248.1073	1	C17H14NO+
