Mass spectrum: Fraxidin; LC-ESI-ITFT; MS2; CE: 80%; R=15000; [M+H]+
Name: Fraxidin
Name: 8-hydroxy-6,7-dimethoxychromen-2-one
Formula: C11H10O5
Exact mass: 222.0528
SMILES: COC1=C(OC)C(O)=C2OC(=O)C=CC2=C1
InChI: InChI=1S/C11H10O5/c1-14-7-5-6-3-4-8(12)16-10(6)9(13)11(7)15-2/h3-5,13H,1-2H3
Instrument: LTQ Orbitrap XL Thermo Scientific
Instrument type: LC-ESI-ITFT
Ms type: MS2
Ion mode: POSITIVE
Ionization: ESI
Fragmentation mode: HCD
Collision energy: 80% (nominal)
Resolution: 15000
Column name: Kinetex Evo C18 2.6 um 50 x 2.1 mm
Retention time: 7.600 min
Base peak: 116.9858
Precursor m/z: 223.0601
Precursor type: [M+H]+
m/z	relative intensity	assigned
77.0386	16	C6H5+
78.0464	265	C6H6+
79.0541	13	C6H7+
90.0462	9	C7H6+
92.0259	13	C6H4O+
95.0488	6	C6H7O+
105.0335	112	C7H5O+
106.0413	195	C7H6O+
107.0491	53	C7H7O+
109.0281	11	C6H5O2+
116.0256	16	C8H4O+
117.0333	10	C8H5O+
118.0413	33	C8H6O+
120.0207	22	C7H4O2+
122.0362	12	C7H6O2+
123.0441	54	C7H7O2+
132.0206	22	C8H4O2+
133.0284	130	C8H5O2+
134.0362	413	C8H6O2+
135.0441	269	C8H7O2+
137.0235	19	C7H5O3+
144.0206	39	C9H4O2+
146.0365	12	C9H6O2+
149.0235	6	C8H5O3+
150.0311	60	C8H6O3+
151.0389	32	C8H7O3+
152.0469	34	C8H8O3+
160.0154	14	C9H4O3+
161.0234	77	C9H5O3+
162.0312	999	C9H6O3+
163.0389	43	C9H7O3+
164.047	5	C9H8O3+
165.0183	34	C8H5O4+
167.0705	19	C9H11O3+
172.0154	7	C10H4O3+
178.0261	189	C9H6O4+
179.0339	319	C9H7O4+
180.0415	17	C9H8O4+
190.026	282	C10H6O4+
193.0131	18	C9H5O5+
207.0288	428	C10H7O5+
208.0366	48	C10H8O5+
223.0603	12	C11H11O5+
