Mass spectrum: Lycorine; LC-ESI-ITFT; MS2; CE: 65%; R=15000; [M+H]+
Name: Lycorine
Name: (1S,17S,18S,19S)-5,7-dioxa-12-azapentacyclo[10.6.1.02,10.04,8.015,19]nonadeca-2,4(8),9,15-tetraene-17,18-diol
Formula: C16H17NO4
Exact mass: 287.1158
SMILES: C1CN2CC3=CC4=C(C=C3[C@H]5[C@H]2C1=C[C@@H]([C@H]5O)O)OCO4
InChI: InChI=1S/C16H17NO4/c18-11-3-8-1-2-17-6-9-4-12-13(21-7-20-12)5-10(9)14(15(8)17)16(11)19/h3-5,11,14-16,18-19H,1-2,6-7H2/t11-,14-,15+,16+/m0/s1
Instrument: LTQ Orbitrap XL Thermo Scientific
Instrument type: LC-ESI-ITFT
Ms type: MS2
Ion mode: POSITIVE
Ionization: ESI
Fragmentation mode: HCD
Collision energy: 65% (nominal)
Resolution: 15000
Column name: Kinetex Evo C18 2.6 um 50 x 2.1 mm
Retention time: 0.623 min
Base peak: 288.1227
Precursor m/z: 288.123
Precursor type: [M+H]+
m/z	relative intensity	assigned
67.0541	4	C5H7+
82.0651	23	C5H8N+
83.0491	40	C5H7O+
91.0542	9	C7H7+
94.0649	2	C6H8N+
95.0492	85	C6H7O+
106.0651	21	C7H8N+
110.0602	5	C6H8NO+
111.0678	48	C6H9NO+
112.0757	73	C6H10NO+
119.0492	641	C8H7O+
122.0601	12	C7H8NO+
124.0757	50	C7H10NO+
132.044	5	C8H6NO+
134.0601	36	C8H8NO+
135.0441	28	C8H7O2+
136.0516	10	C8H8O2+
145.0644	2	C10H9O+
147.0441	999	C9H7O2+
149.0597	32	C9H9O2+
155.0855	4	C12H11+
159.0445	4	C10H7O2+
165.0697	2	C13H9+
167.0853	5	C13H11+
173.0595	6	C11H9O2+
175.0388	5	C10H7O3+
177.0547	146	C10H9O3+
183.0803	6	C13H11O+
184.1119	8	C13H14N+
188.0708	6	C11H10NO2+
194.0965	37	C14H12N+
195.08	5	C14H11O+
197.0845	6	C13H11NO+
198.0911	5	C13H12NO+
199.0753	10	C13H11O2+
210.0908	3	C14H12NO+
211.0747	5	C14H11O2+
212.0706	4	C13H10NO2+
212.107	29	C14H14NO+
213.0913	5	C14H13O2+
214.0859	3	C13H12NO2+
222.0914	50	C15H12NO+
223.0751	6	C15H11O2+
224.1062	6	C15H14NO+
225.0784	14	C14H11NO2+
225.0912	3	C15H13O2+
226.0857	3	C14H12NO2+
227.0948	5	C14H13NO2+
228.1019	4	C14H14NO2+
230.1174	2	C14H16NO2+
237.0782	5	C15H11NO2+
238.0858	6	C15H12NO2+
240.1019	30	C15H14NO2+
241.0862	4	C15H13O3+
242.1177	22	C15H16NO2+
250.0854	8	C16H12NO2+
252.1017	26	C16H14NO2+
255.0891	2	C15H13NO3+
268.0966	4	C16H14NO3+
270.1125	73	C16H16NO3+
288.1232	65	C16H18NO4+
