Mass spectrum: Anabasine; LC-ESI-ITFT; MS2; CE: 115%; R=15000; [M+H]+
Name: Anabasine
Formula: C10H14N2
Exact mass: 162.1157
SMILES: C1CCC(NC1)C1=CC=CN=C1
InChI: InChI=1S/C10H14N2/c1-2-7-12-10(5-1)9-4-3-6-11-8-9/h3-4,6,8,10,12H,1-2,5,7H2
Instrument: LTQ Orbitrap XL Thermo Scientific
Instrument type: LC-ESI-ITFT
Ms type: MS2
Ion mode: POSITIVE
Ionization: ESI
Fragmentation mode: HCD
Collision energy: 115 % (nominal)
Resolution: 15000
Column name: Kinetex Evo C18 2.6 um 50 x 2.1 mm
Retention time: 0.468 min
Base peak: 249.1955
Precursor m/z: 163.123
Precursor type: [M+H]+
m/z	relative intensity	assigned
65.0385	151	C5H5+
67.0542	19	C5H7+
77.0385	23	C6H5+
78.0337	22	C5H4N+
79.0416	59	C5H5N+
79.0543	14	C6H7+
80.0495	130	C5H6N+
84.0808	48	C5H10N+
90.0464	37	C7H6+
91.0542	705	C7H7+
92.0495	659	C6H6N+
93.0573	470	C6H7N+
94.0651	222	C6H8N+
103.0544	14	C8H7+
104.0495	16	C7H6N+
105.0694	8	C8H9+
106.0651	182	C7H8N+
107.0733	5	C7H9N+
115.0543	18	C9H7+
117.0573	896	C8H7N+
118.0651	999	C8H8N+
120.0807	82	C8H10N+
128.062	23	C10H8+
130.0651	769	C9H8N+
131.0729	150	C9H9N+
132.0807	111	C9H10N+
134.0963	35	C9H12N+
143.0729	13	C10H9N+
144.0807	119	C10H10N+
146.0964	37	C10H12N+
155.0608	9	C10H7N2+
163.1226	7	C10H15N2+
