Mass spectrum: (+)-Costunolide; LC-ESI-ITFT; MS2; CE: 40%; R=15000; [M+H]+
Name: (+)-Costunolide
Name: Costunolide
Name: (3aS,6E,10E,11aR)-6,10-dimethyl-3-methylidene-3a,4,5,8,9,11a-hexahydrocyclodeca[b]furan-2-one
Formula: C15H20O2
Exact mass: 232.1463
SMILES: C/C/1=C\CC/C(=C/[C@@H]2[C@@H](CC1)C(=C)C(=O)O2)/C
InChI: InChI=1S/C15H20O2/c1-10-5-4-6-11(2)9-14-13(8-7-10)12(3)15(16)17-14/h5,9,13-14H,3-4,6-8H2,1-2H3/b10-5+,11-9+/t13-,14+/m0/s1
Instrument: LTQ Orbitrap XL Thermo Scientific
Instrument type: LC-ESI-ITFT
Ms type: MS2
Ion mode: POSITIVE
Ionization: ESI
Fragmentation mode: HCD
Collision energy: 40% (nominal)
Resolution: 15000
Column name: Kinetex Evo C18 2.6 um 50 x 2.1 mm
Retention time: 11.700 min
Base peak: 116.9859
Precursor m/z: 233.1536
Precursor type: [M+H]+
m/z	relative intensity	assigned
55.0541	8	C4H7+
67.0542	9	C5H7+
69.0698	10	C5H9+
79.0542	15	C6H7+
81.0699	90	C6H9+
83.0856	12	C6H11+
91.0543	25	C7H7+
93.07	76	C7H9+
95.0856	119	C7H11+
97.065	4	C6H9O+
97.1013	8	C7H13+
105.07	111	C8H9+
107.0856	86	C8H11+
109.1012	48	C8H13+
111.0805	6	C7H11O+
117.07	16	C9H9+
119.0489	3	C8H7O+
119.0856	53	C9H11+
121.0646	5	C8H9O+
121.1013	38	C9H13+
123.0807	5	C8H11O+
123.1169	3	C9H15+
125.0598	22	C7H9O2+
131.0856	112	C10H11+
133.0649	13	C9H9O+
133.1013	56	C10H13+
135.0805	9	C9H11O+
135.1169	7	C10H15+
137.0596	20	C8H9O2+
139.0755	38	C8H11O2+
143.0856	5	C11H11+
145.1013	143	C11H13+
147.0805	7	C10H11O+
147.117	59	C11H15+
149.0597	7	C9H9O2+
149.0955	3	C10H13O+
149.1327	5	C11H17+
151.0755	23	C9H11O2+
153.0904	3	C9H13O2+
155.0856	15	C12H11+
157.1014	8	C12H13+
159.0806	18	C11H11O+
159.117	95	C12H15+
161.1326	120	C12H17+
163.0752	30	C10H11O2+
165.0912	10	C10H13O2+
169.1011	12	C13H13+
171.1168	14	C13H15+
173.0961	22	C12H13O+
173.1326	18	C13H17+
177.0911	100	C11H13O2+
182.1092	7	C14H14+
185.133	3	C14H17+
187.1483	999	C14H19+
189.1639	17	C14H21+
191.1069	34	C12H15O2+
197.1326	78	C15H17+
205.1587	26	C14H21O+
215.1431	239	C15H19O+
233.1537	431	C15H21O2+
