Mass spectrum: Sterigmatocystin; LC-ESI-ITFT; MS2; CE: 105%; R=15000; [M+H]+
Name: Sterigmatocystin
Name: (3S,7R)-15-hydroxy-11-methoxy-6,8,20-trioxapentacyclo[10.8.0.02,9.03,7.014,19]icosa-1,4,9,11,14,16,18-heptaen-13-one
Formula: C18H12O6
Exact mass: 324.0634
SMILES: COc1cc2c(c3c1c(=O)c4c(cccc4o3)O)[C@@H]5C=CO[C@@H]5O2
InChI: InChI=1S/C18H12O6/c1-21-11-7-12-13(8-5-6-22-18(8)24-12)17-15(11)16(20)14-9(19)3-2-4-10(14)23-17/h2-8,18-19H,1H3/t8-,18+/m0/s1
Instrument: LTQ Orbitrap XL Thermo Scientific
Instrument type: LC-ESI-ITFT
Ms type: MS2
Ion mode: POSITIVE
Ionization: ESI
Fragmentation mode: HCD
Collision energy: 105% (nominal)
Resolution: 15000
Column name: Kinetex Evo C18 2.6 um 50 x 2.1 mm
Retention time: 11.851 min
Base peak: 116.9858
Precursor m/z: 325.0707
Precursor type: [M+H]+
m/z	relative intensity	assigned
115.0545	97	C9H7+
117.0334	73	C8H5O+
141.0702	278	C11H9+
145.0287	81	C9H5O2+
169.0651	199	C12H9O+
179.0495	94	C13H7O+
189.0192	117	C10H5O4+
197.0598	449	C13H9O2+
200.0468	78	C12H8O3+
225.0548	353	C14H9O3+
253.0498	497	C15H9O4+
254.0581	49	C15H10O4+
281.0448	999	C16H9O5+
