Mass spectrum: (-)-Nuciferine; LC-ESI-ITFT; MS2; CE: 50%; R=15000; [M+H]+
Name: (-)-Nuciferine
Name: Nuciferine
Name: (6aR)-1,2-dimethoxy-6-methyl-5,6,6a,7-tetrahydro-4H-dibenzo[de,g]quinoline
Formula: C19H21NO2
Exact mass: 295.1572
SMILES: CN1CCc2cc(c(c-3c2[C@H]1Cc4c3cccc4)OC)OC
InChI: InChI=1S/C19H21NO2/c1-20-9-8-13-11-16(21-2)19(22-3)18-14-7-5-4-6-12(14)10-15(20)17(13)18/h4-7,11,15H,8-10H2,1-3H3/t15-/m1/s1
Instrument: LTQ Orbitrap XL Thermo Scientific
Instrument type: LC-ESI-ITFT
Ms type: MS2
Ion mode: POSITIVE
Ionization: ESI
Fragmentation mode: HCD
Collision energy: 50% (nominal)
Resolution: 15000
Column name: Kinetex Evo C18 2.6 um 50 x 2.1 mm
Retention time: 7.654 min
Base peak: 296.1644
Precursor m/z: 296.1645
Precursor type: [M+H]+
m/z	relative intensity	assigned
190.0777	6	C15H10+
191.0859	6	C15H11+
202.0781	5	C16H10+
203.0857	17	C16H11+
204.0936	7	C16H12+
205.0644	2	C15H9O+
205.1013	29	C16H13+
206.0727	10	C15H10O+
207.0808	12	C15H11O+
218.0726	34	C16H10O+
219.0805	28	C16H11O+
220.0882	7	C16H12O+
221.0598	13	C15H9O2+
221.0962	37	C16H13O+
222.0677	8	C15H10O2+
222.104	27	C16H14O+
232.0881	8	C17H12O+
233.0962	63	C17H13O+
234.104	500	C17H14O+
235.0753	213	C16H11O2+
235.112	21	C17H15O+
236.0832	93	C16H12O2+
237.091	17	C16H13O2+
238.0987	10	C16H14O2+
249.0912	14	C17H13O2+
250.0989	755	C17H14O2+
253.1224	7	C17H17O2+
265.1223	999	C18H17O2+
296.1643	2	C19H22NO2+
