Mass spectrum: alpha-Santonin; LC-ESI-ITFT; MS2; CE: 95%; R=15000; [M+H]+
Name: alpha-Santonin
Name: Santonin
Name: (3S,3aS,5aS,9bS)-3,5a,9-trimethyl-3a,4,5,9b-tetrahydro-3H-benzo[g][1]benzofuran-2,8-dione
Formula: C15H18O3
Exact mass: 246.1256
SMILES: C[C@H]1[C@@H]2CC[C@]3(C=CC(=O)C(=C3[C@H]2OC1=O)C)C
InChI: InChI=1S/C15H18O3/c1-8-10-4-6-15(3)7-5-11(16)9(2)12(15)13(10)18-14(8)17/h5,7-8,10,13H,4,6H2,1-3H3/t8-,10-,13-,15-/m0/s1
Instrument: LTQ Orbitrap XL Thermo Scientific
Instrument type: LC-ESI-ITFT
Ms type: MS2
Ion mode: POSITIVE
Ionization: ESI
Fragmentation mode: HCD
Collision energy: 95% (nominal)
Resolution: 15000
Column name: Kinetex Evo C18 2.6 um 50 x 2.1 mm
Retention time: 8.952 min
Base peak: 116.9858
Precursor m/z: 247.1329
Precursor type: [M+H]+
m/z	relative intensity	assigned
67.0545	5	C5H7+
77.0386	11	C6H5+
79.0542	42	C6H7+
91.0542	175	C7H7+
103.0546	6	C8H7+
105.0698	134	C8H9+
107.0854	20	C8H11+
115.0542	106	C9H7+
116.062	27	C9H8+
117.0698	102	C9H9+
119.0853	8	C9H11+
121.0649	10	C8H9O+
128.0619	43	C10H8+
129.0698	200	C10H9+
130.0777	169	C10H10+
131.0491	10	C9H7O+
131.0854	62	C10H11+
133.1013	9	C10H13+
135.0804	221	C9H11O+
140.0618	23	C11H8+
141.0699	23	C11H9+
143.0855	40	C11H11+
144.0569	26	C10H8O+
145.0647	42	C10H9O+
145.1011	170	C11H13+
146.0727	28	C10H10O+
153.0698	54	C12H9+
154.0777	25	C12H10+
155.0855	159	C12H11+
156.0937	8	C12H12+
157.0648	117	C11H9O+
158.0726	999	C11H10O+
159.0804	162	C11H11O+
160.0881	15	C11H12O+
161.0962	15	C11H13O+
171.0803	59	C12H11O+
172.0882	38	C12H12O+
173.0961	277	C12H13O+
174.1039	12	C12H14O+
185.0956	9	C13H13O+
186.1039	30	C13H14O+
