Mass spectrum: Galantamine; LC-ESI-ITFT; MS2; CE: 85%; R=15000; [M+H]+
Name: Galantamine
Formula: C17H21NO3
Exact mass: 287.1521
SMILES: CN1CCC23C=CC(CC2OC4=C(C=CC(=C34)C1)OC)O
InChI: InChI=1S/C17H21NO3/c1-18-8-7-17-6-5-12(19)9-14(17)21-16-13(20-2)4-3-11(10-18)15(16)17/h3-6,12,14,19H,7-10H2,1-2H3
Instrument: LTQ Orbitrap XL Thermo Scientific
Instrument type: LC-ESI-ITFT
Ms type: MS2
Ion mode: POSITIVE
Ionization: ESI
Fragmentation mode: CID
Collision energy: 85 % (nominal)
Resolution: 15000
Column name: Kinetex Evo C18 2.6 um 50 x 2.1 mm
Retention time: 0.657 min
Base peak: 288.159
Precursor m/z: 288.1594
Precursor type: [M+H]+
m/z	relative intensity	assigned
94.0653	2	C6H8N+
109.0653	2	C7H9O+
132.0809	3	C9H10N+
133.0887	5	C9H11N+
134.0964	9	C9H12N+
137.0602	3	C8H9O2+
150.0916	5	C9H12NO+
151.0993	31	C9H13NO+
167.0858	2	C13H11+
175.0756	8	C11H11O2+
179.0857	11	C14H11+
181.1013	5	C14H13+
183.0797	1	C13H11O+
189.0911	4	C12H13O2+
197.0963	105	C14H13O+
199.0756	62	C13H11O2+
203.1067	13	C13H15O2+
207.0807	19	C15H11O+
209.0963	92	C15H13O+
210.0681	3	C14H10O2+
211.1119	3	C15H15O+
213.0912	400	C14H13O2+
216.1021	4	C13H14NO2+
220.1117	5	C16H14N+
221.0962	6	C16H13O+
225.0912	765	C15H13O2+
227.1063	6	C15H15O2+
231.1017	761	C14H15O3+
238.1228	4	C16H16NO+
239.1068	23	C16H15O2+
241.1224	6	C16H17O2+
242.0947	5	C15H14O3+
245.1176	13	C15H17O3+
253.1226	8	C17H17O2+
255.1256	12	C16H17NO2+
257.1174	45	C16H17O3+
270.149	999	C17H20NO2+
