Mass spectrum: Matrine; LC-ESI-ITFT; MS2; CE: 70%; R=15000; [M+H]+
Name: Matrine
Name: (1R,2R,9S,17S)-7,13-diazatetracyclo[7.7.1.02,7.013,17]heptadecan-6-one
Formula: C15H24N2O
Exact mass: 248.1889
SMILES: C1C[C@@H]2[C@H]3CCCN4[C@H]3[C@@H](CCC4)CN2C(=O)C1
InChI: InChI=1S/C15H24N2O/c18-14-7-1-6-13-12-5-3-9-16-8-2-4-11(15(12)16)10-17(13)14/h11-13,15H,1-10H2/t11-,12+,13+,15-/m0/s1
Instrument: LTQ Orbitrap XL Thermo Scientific
Instrument type: LC-ESI-ITFT
Ms type: MS2
Ion mode: POSITIVE
Ionization: ESI
Fragmentation mode: HCD
Collision energy: 70% (nominal)
Resolution: 15000
Column name: Kinetex Evo C18 2.6 um 50 x 2.1 mm
Retention time: 0.713 min
Base peak: 249.196
Precursor m/z: 249.1961
Precursor type: [M+H]+
m/z	relative intensity	assigned
70.0651	3	C4H8N+
84.0808	5	C5H10N+
93.07	3	C7H9+
96.0808	7	C6H10N+
98.0601	13	C5H8NO+
98.0964	5	C6H12N+
107.0856	2	C8H11+
109.1008	2	C8H13+
110.0965	18	C7H12N+
112.0757	31	C6H10NO+
114.0915	3	C6H12NO+
122.0967	5	C8H12N+
134.0963	3	C9H12N+
136.112	9	C9H14N+
138.0913	2	C8H12NO+
138.1277	8	C9H16N+
148.1121	103	C10H14N+
150.1278	53	C10H16N+
152.1435	12	C10H18N+
162.091	2	C10H12NO+
166.1225	6	C10H16NO+
176.1071	26	C11H14NO+
188.1436	2	C13H18N+
190.123	11	C12H16NO+
190.1591	2	C13H20N+
204.1381	6	C13H18NO+
204.175	2	C14H22N+
218.1538	8	C14H20NO+
220.1694	7	C14H22NO+
231.1855	7	C15H23N2+
232.1694	7	C15H22NO+
247.1806	107	C15H23N2O+
249.1961	999	C15H25N2O+
