Mass spectrum: Gelsemine; LC-ESI-ITFT; MS2; CE: 45%; R=15000; [M+H]+
Name: Gelsemine
Name: (2`S,3S,5`S,6`S,11`S)-2`-ethenyl-4`-methylspiro[1H-indole-3,7`-9-oxa-4-azatetracyclo[6.3.1.02,6.05,11]dodecane]-2-one
Formula: C20H22N2O2
Exact mass: 322.1681
SMILES: CN1C[C@@]2([C@@H]3[C@H]1[C@@H]4C2CC([C@@]35c6ccccc6NC5=O)OC4)C=C
InChI: InChI=1S/C20H22N2O2/c1-3-19-10-22(2)16-11-9-24-15(8-13(11)19)20(17(16)19)12-6-4-5-7-14(12)21-18(20)23/h3-7,11,13,15-17H,1,8-10H2,2H3,(H,21,23)/t11-,13?,15?,16+,17-,19-,20-/m0/s1
Instrument: LTQ Orbitrap XL Thermo Scientific
Instrument type: LC-ESI-ITFT
Ms type: MS2
Ion mode: POSITIVE
Ionization: ESI
Fragmentation mode: HCD
Collision energy: 45% (nominal)
Resolution: 15000
Column name: Kinetex Evo C18 2.6 um 50 x 2.1 mm
Retention time: 1.783 min
Base peak: 323.1752
Precursor m/z: 323.1754
Precursor type: [M+H]+
m/z	relative intensity	assigned
70.065	305	C4H8N+
81.0335	3	C5H5O+
86.06	30	C4H8NO+
88.0757	21	C4H10NO+
93.0702	4	C7H9+
105.0697	6	C8H9+
117.0698	27	C9H9+
131.0856	33	C10H11+
132.0444	10	C8H6NO+
134.06	5	C8H8NO+
134.0963	6	C9H12N+
135.1036	2	C9H13N+
146.06	26	C9H8NO+
148.1118	4	C10H14N+
158.06	14	C10H8NO+
159.0805	34	C11H11O+
162.1279	7	C11H16N+
165.1146	3	C10H15NO+
190.1225	14	C12H16NO+
191.1303	11	C12H17NO+
195.0676	13	C13H9NO+
196.0755	20	C13H10NO+
208.0749	5	C14H10NO+
210.0914	25	C14H12NO+
218.0962	2	C16H12N+
222.0915	3	C15H12NO+
236.1069	209	C16H14NO+
238.1225	68	C16H16NO+
248.107	8	C17H14NO+
254.117	3	C16H16NO2+
262.1226	12	C18H16NO+
274.1228	12	C19H16NO+
292.1326	7	C19H18NO2+
293.1661	4	C19H21N2O+
305.1645	4	C20H21N2O+
323.1753	999	C20H23N2O2+
