Mass spectrum: Monocrotaline; LC-ESI-ITFT; MS2; CE: 100%; R=15000; [M+H]+
Name: Monocrotaline
Name: (1R,4R,5R,6R,16R)-5,6-dihydroxy-4,5,6-trimethyl-2,8-dioxa-13-azatricyclo[8.5.1.013,16]hexadec-10-ene-3,7-dione
Formula: C16H23NO6
Exact mass: 325.1525
SMILES: C[C@H]1C(=O)O[C@@H]2CCN3[C@@H]2C(=CC3)COC(=O)[C@]([C@]1(C)O)(C)O
InChI: InChI=1S/C16H23NO6/c1-9-13(18)23-11-5-7-17-6-4-10(12(11)17)8-22-14(19)16(3,21)15(9,2)20/h4,9,11-12,20-21H,5-8H2,1-3H3/t9-,11+,12+,15+,16-/m0/s1
Instrument: LTQ Orbitrap XL Thermo Scientific
Instrument type: LC-ESI-ITFT
Ms type: MS2
Ion mode: POSITIVE
Ionization: ESI
Fragmentation mode: HCD
Collision energy: 100% (nominal)
Resolution: 15000
Column name: Kinetex Evo C18 2.6 um 50 x 2.1 mm
Retention time: 0.629 min
Base peak: 326.1597
Precursor m/z: 326.1598
Precursor type: [M+H]+
m/z	relative intensity	assigned
67.0416	175	C4H5N+
67.0542	113	C5H7+
68.0495	154	C4H6N+
77.0387	55	C6H5+
79.0543	79	C6H7+
80.0495	244	C5H6N+
81.07	54	C6H9+
82.0653	118	C5H8N+
91.0543	104	C7H7+
93.0573	77	C6H7N+
93.0699	100	C7H9+
94.0652	890	C6H8N+
95.0729	225	C6H9N+
96.0809	116	C6H10N+
103.054	40	C8H7+
106.0652	69	C7H8N+
108.0809	132	C7H10N+
120.0809	999	C8H10N+
121.0887	66	C8H11N+
122.0966	80	C8H12N+
138.0914	131	C8H12NO+
