Mass spectrum: Formononetin; LC-ESI-ITFT; MS2; CE: 50%; R=15000; [M+H]+
Name: Formononetin
Name: 7-hydroxy-3-(4-methoxyphenyl)chromen-4-one
Formula: C16H12O4
Exact mass: 268.0736
SMILES: COc1ccc(cc1)c2coc3cc(ccc3c2=O)O
InChI: InChI=1S/C16H12O4/c1-19-12-5-2-10(3-6-12)14-9-20-15-8-11(17)4-7-13(15)16(14)18/h2-9,17H,1H3
Instrument: LTQ Orbitrap XL Thermo Scientific
Instrument type: LC-ESI-ITFT
Ms type: MS2
Ion mode: POSITIVE
Ionization: ESI
Fragmentation mode: HCD
Collision energy: 50% (nominal)
Resolution: 15000
Column name: Kinetex Evo C18 2.6 um 50 x 2.1 mm
Retention time: 10.645 min
Base peak: 116.9858
Precursor m/z: 269.0808
Precursor type: [M+H]+
m/z	relative intensity	assigned
107.0492	23	C7H7O+
118.0413	35	C8H6O+
136.0159	11	C7H4O3+
137.0235	12	C7H5O3+
197.0604	9	C13H9O2+
213.0911	147	C14H13O2+
226.0622	46	C14H10O3+
237.0548	71	C15H9O3+
253.0495	53	C15H9O4+
254.0575	160	C15H10O4+
269.0809	999	C16H13O4+
