Mass spectrum: Seneciphylline; LC-ESI-ITFT; MS2; CE: 60%; R=15000; [M+H]+
Name: Seneciphylline
Name: (1R,4Z,7R,17R)-4-ethylidene-7-hydroxy-7-methyl-6-methylidene-2,9-dioxa-14-azatricyclo[9.5.1.014,17]heptadec-11-ene-3,8-dione
Formula: C18H23NO5
Exact mass: 333.1576
SMILES: C/C=C\1/CC(=C)[C@@](C(=O)OCC2=CCN3[C@H]2[C@@H](CC3)OC1=O)(C)O
InChI: InChI=1S/C18H23NO5/c1-4-12-9-11(2)18(3,22)17(21)23-10-13-5-7-19-8-6-14(15(13)19)24-16(12)20/h4-5,14-15,22H,2,6-10H2,1,3H3/b12-4-/t14-,15-,18-/m1/s1
Instrument: LTQ Orbitrap XL Thermo Scientific
Instrument type: LC-ESI-ITFT
Ms type: MS2
Ion mode: POSITIVE
Ionization: ESI
Fragmentation mode: HCD
Collision energy: 60% (nominal)
Resolution: 15000
Column name: Kinetex Evo C18 2.6 um 50 x 2.1 mm
Retention time: 2.029 min
Base peak: 143.0015
Precursor m/z: 334.1649
Precursor type: [M+H]+
m/z	relative intensity	assigned
67.0542	86	C5H7+
68.0494	59	C4H6N+
77.0386	37	C6H5+
79.0543	73	C6H7+
80.0495	120	C5H6N+
81.0573	17	C5H7N+
81.0699	90	C6H9+
82.0651	109	C5H8N+
84.0445	12	C4H6NO+
91.0542	150	C7H7+
92.0493	27	C6H6N+
93.0699	229	C7H9+
94.0651	660	C6H8N+
95.0491	15	C6H7O+
95.0855	70	C7H11+
96.0807	235	C6H10N+
103.0542	102	C8H7+
105.0698	145	C8H9+
106.0653	19	C7H8N+
107.0729	45	C7H9N+
107.0857	25	C8H11+
108.0808	211	C7H10N+
109.0648	202	C7H9O+
109.0885	19	C7H11N+
110.0602	40	C6H8NO+
110.0964	111	C7H12N+
112.0756	18	C6H10NO+
118.0652	80	C8H8N+
119.0729	22	C8H9N+
120.0808	999	C8H10N+
121.0651	14	C8H9O+
121.0888	44	C8H11N+
122.0964	214	C8H12N+
123.0804	187	C8H11O+
133.0648	34	C9H9O+
136.0756	35	C8H10NO+
138.0913	995	C8H12NO+
140.1068	17	C8H14NO+
146.0961	12	C10H12N+
148.1126	19	C10H14N+
151.0754	154	C9H11O2+
156.1022	20	C8H14NO2+
246.1491	21	C15H20NO2+
306.1701	359	C17H24NO4+
334.1648	519	C18H24NO5+
