Mass spectrum: Daidzein; LC-ESI-ITFT; MS2; CE: 170%; R=15000; [M+H]+
Name: Daidzein
Name: 7-hydroxy-3-(4-hydroxyphenyl)chromen-4-one
Formula: C15H10O4
Exact mass: 254.0579
SMILES: OC1=CC=C(C=C1)C1=COC2=C(C=CC(O)=C2)C1=O
InChI: InChI=1S/C15H10O4/c16-10-3-1-9(2-4-10)13-8-19-14-7-11(17)5-6-12(14)15(13)18/h1-8,16-17H
Instrument: LTQ Orbitrap XL Thermo Scientific
Instrument type: LC-ESI-ITFT
Ms type: MS2
Ion mode: POSITIVE
Ionization: ESI
Fragmentation mode: HCD
Collision energy: 170 % (nominal)
Resolution: 15000
Column name: Kinetex Evo C18 2.6 um 50 x 2.1 mm
Retention time: 9.260 min
Base peak: 221.0748
Precursor m/z: 255.0652
Precursor type: [M+H]+
m/z	relative intensity	assigned
51.0228	60	C4H3+
53.0386	92	C4H5+
63.023	85	C5H3+
65.0387	999	C5H5+
68.9973	104	C3HO2+
75.0231	76	C6H3+
77.0389	120	C6H5+
78.0468	85	C6H6+
81.0338	183	C5H5O+
91.0547	293	C7H7+
95.0495	26	C6H7O+
103.0547	21	C8H7+
105.0338	36	C7H5O+
115.0548	227	C9H7+
126.0468	94	C10H6+
127.0547	38	C10H7+
128.0625	156	C10H8+
131.0492	28	C9H7O+
141.0705	61	C11H9+
150.0466	52	C12H6+
151.0548	98	C12H7+
152.0625	461	C12H8+
155.0609	101	C10H7N2+
168.057	23	C12H8O+
169.0076	21	C14H+
179.0607	53	C12H7N2+
