Mass spectrum: Senecivernine N-oxide; LC-ESI-ITFT; MS2; CE: 80%; R=15000; [M+H]+
Name: Senecivernine N-oxide
Name: CID 14313723
Name: 7-hydroxy-5,6,7-trimethyl-4-methylidene-14-oxido-2,9-dioxa-14-azoniatricyclo[9.5.1.014,17]heptadec-11-ene-3,8-dione
Formula: C18H25NO6
Exact mass: 351.1682
SMILES: CC1C(C(C(=O)OCC2=CC[N+]3(C2C(CC3)OC(=O)C1=C)[O-])(C)O)C
InChI: InChI=1S/C18H25NO6/c1-10-11(2)16(20)25-14-6-8-19(23)7-5-13(15(14)19)9-24-17(21)18(4,22)12(10)3/h5,10,12,14-15,22H,2,6-9H2,1,3-4H3
Instrument: LTQ Orbitrap XL Thermo Scientific
Instrument type: LC-ESI-ITFT
Ms type: MS2
Ion mode: POSITIVE
Ionization: ESI
Fragmentation mode: HCD
Collision energy: 80% (nominal)
Resolution: 15000
Column name: Kinetex Evo C18 2.6 um 50 x 2.1 mm
Retention time: 4.638 min
Base peak: 352.1753
Precursor m/z: 352.1755
Precursor type: [M+H]+
m/z	relative intensity	assigned
67.0543	39	C5H7+
68.0494	17	C4H6N+
79.0543	117	C6H7+
80.0495	159	C5H6N+
81.0574	23	C5H7N+
81.0699	238	C6H9+
82.0653	15	C5H8N+
83.0492	45	C5H7O+
84.0446	34	C4H6NO+
91.0543	72	C7H7+
92.0497	22	C6H6N+
93.0574	564	C6H7N+
94.0652	999	C6H8N+
95.073	282	C6H9N+
96.081	30	C6H10N+
98.0601	38	C5H8NO+
106.0652	266	C7H8N+
107.0856	51	C8H11+
108.0808	191	C7H10N+
109.0648	43	C7H9O+
109.0886	21	C7H11N+
110.0601	14	C6H8NO+
111.0441	54	C6H7O2+
111.068	26	C6H9NO+
112.0757	26	C6H10NO+
117.0575	34	C8H7N+
118.0652	634	C8H8N+
119.073	446	C8H9N+
120.0809	994	C8H10N+
121.0886	39	C8H11N+
122.0965	49	C8H12N+
124.0761	27	C7H10NO+
125.096	16	C8H13O+
134.0961	20	C9H12N+
136.0758	551	C8H10NO+
137.0597	16	C8H9O2+
137.0833	21	C8H11NO+
138.0915	164	C8H12NO+
146.0963	28	C10H12N+
148.1122	16	C10H14N+
153.0911	27	C9H13O2+
154.0864	37	C8H12NO2+
174.0913	17	C11H12NO+
211.1328	21	C12H19O3+
