Mass spectrum: Jacobine N-oxide; LC-ESI-ITFT; MS2; CE: 95%; R=15000; [M+H]+
Name: Jacobine N-oxide
Name: (1R,3`S,4S,6R,7R,17R)-7-hydroxy-3`,6,7-trimethyl-14-oxidospiro[2,9-dioxa-14-azoniatricyclo[9.5.1.014,17]heptadec-11-ene-4,2`-oxirane]-3,8-dione
Formula: C18H25NO7
Exact mass: 367.1631
SMILES: C[C@@H]1C[C@]2([C@@H](O2)C)C(=O)O[C@@H]3CC[N+]4([C@@H]3C(=CC4)COC(=O)[C@]1(C)O)[O-]
InChI: InChI=1S/C18H25NO7/c1-10-8-18(11(2)26-18)16(21)25-13-5-7-19(23)6-4-12(14(13)19)9-24-15(20)17(10,3)22/h4,10-11,13-14,22H,5-9H2,1-3H3/t10-,11+,13-,14-,17-,18+,19?/m1/s1
Instrument: LTQ Orbitrap XL Thermo Scientific
Instrument type: LC-ESI-ITFT
Ms type: MS2
Ion mode: POSITIVE
Ionization: ESI
Fragmentation mode: HCD
Collision energy: 95% (nominal)
Resolution: 15000
Column name: Kinetex Evo C18 2.6 um 50 x 2.1 mm
Retention time: 1.286 min
Base peak: 143.0016
Precursor m/z: 368.1704
Precursor type: [M+H]+
m/z	relative intensity	assigned
65.0385	16	C5H5+
67.0416	22	C4H5N+
67.0542	46	C5H7+
68.0493	27	C4H6N+
69.0699	27	C5H9+
77.0386	119	C6H5+
79.0543	101	C6H7+
80.0495	207	C5H6N+
81.0333	11	C5H5O+
81.0573	22	C5H7N+
81.07	20	C6H9+
82.0652	21	C5H8N+
86.06	16	C4H8NO+
91.0542	209	C7H7+
92.0495	58	C6H6N+
93.0573	309	C6H7N+
93.0698	50	C7H9+
94.0651	491	C6H8N+
95.0492	33	C6H7O+
95.073	47	C6H9N+
95.0857	14	C7H11+
96.0808	30	C6H10N+
97.0647	15	C6H9O+
103.054	28	C8H7+
105.0697	22	C8H9+
106.0651	154	C7H8N+
107.073	15	C7H9N+
108.0808	92	C7H10N+
109.0651	12	C7H9O+
110.0601	24	C6H8NO+
117.0573	36	C8H7N+
118.0652	344	C8H8N+
119.073	118	C8H9N+
120.0808	999	C8H10N+
121.0885	41	C8H11N+
122.0964	53	C8H12N+
124.0758	24	C7H10NO+
134.0961	15	C9H12N+
136.0757	45	C8H10NO+
138.091	23	C8H12NO+
162.0918	29	C10H12NO+
