Mass spectrum: Protopin; LC-ESI-ITFT; MS2; CE: 25%; R=15000; [M+H]+
Name: Protopin
Name: Protopine
Name: 15-methyl-7,9,19,21-tetraoxa-15-azapentacyclo[15.7.0.04,12.06,10.018,22]tetracosa-1(17),4,6(10),11,18(22),23-hexaen-3-one
Formula: C20H19NO5
Exact mass: 353.1263
SMILES: CN1CCC2=CC3=C(C=C2C(=O)CC4=C(C1)C5=C(C=C4)OCO5)OCO3
InChI: InChI=1S/C20H19NO5/c1-21-5-4-13-7-18-19(25-10-24-18)8-14(13)16(22)6-12-2-3-17-20(15(12)9-21)26-11-23-17/h2-3,7-8H,4-6,9-11H2,1H3
Instrument: LTQ Orbitrap XL Thermo Scientific
Instrument type: LC-ESI-ITFT
Ms type: MS2
Ion mode: POSITIVE
Ionization: ESI
Fragmentation mode: HCD
Collision energy: 25% (nominal)
Resolution: 15000
Column name: Kinetex Evo C18 2.6 um 50 x 2.1 mm
Retention time: 6.692 min
Base peak: 354.1334
Precursor m/z: 354.1336
Precursor type: [M+H]+
m/z	relative intensity	assigned
149.0596	15	C9H9O2+
165.0545	2	C9H9O3+
188.0705	14	C11H10NO2+
189.0784	10	C11H11NO2+
206.081	4	C11H12NO3+
305.0812	2	C19H13O4+
323.09	2	C19H15O5+
336.1225	5	C20H18NO4+
354.1335	999	C20H20NO5+
