Mass spectrum: 5,7-Dihydroxy-4-phenylcoumarin; LC-ESI-ITFT; MS2; CE: 60%; R=15000; [M+H]+
Name: 5,7-Dihydroxy-4-phenylcoumarin
Name: 5,7-dihydroxy-4-phenylchromen-2-one
Formula: C15H10O4
Exact mass: 254.0579
SMILES: OC1=CC(O)=C2C(OC(=O)C=C2C2=CC=CC=C2)=C1
InChI: InChI=1S/C15H10O4/c16-10-6-12(17)15-11(9-4-2-1-3-5-9)8-14(18)19-13(15)7-10/h1-8,16-17H
Instrument: LTQ Orbitrap XL Thermo Scientific
Instrument type: LC-ESI-ITFT
Ms type: MS2
Ion mode: POSITIVE
Ionization: ESI
Fragmentation mode: HCD
Collision energy: 60% (nominal)
Resolution: 15000
Column name: Kinetex Evo C18 2.6 um 50 x 2.1 mm
Retention time: 9.813 min
Base peak: 116.9857
Precursor m/z: 255.0652
Precursor type: [M+H]+
m/z	relative intensity	assigned
68.997	79	C3HO2+
91.0541	18	C7H7+
105.0335	167	C7H5O+
111.0076	52	C5H3O3+
115.0542	38	C9H7+
121.0285	18	C7H5O2+
128.0622	35	C10H8+
129.0699	40	C10H9+
131.0491	14	C9H7O+
131.0855	33	C10H11+
141.0698	109	C11H9+
143.0491	13	C10H7O+
143.0855	28	C11H11+
145.0647	31	C10H9O+
149.0233	100	C8H5O3+
152.062	23	C12H8+
153.0182	261	C7H5O4+
153.0698	175	C12H9+
154.0777	17	C12H10+
155.0855	84	C12H11+
157.0648	20	C11H9O+
165.0698	517	C13H9+
168.0568	17	C12H8O+
169.0647	66	C12H9O+
171.044	384	C11H7O2+
171.0802	36	C12H11O+
181.0647	125	C13H9O+
182.0725	23	C13H10O+
183.0804	20	C13H11O+
184.0517	9	C12H8O2+
193.0647	100	C14H9O+
194.0718	10	C14H10O+
197.0599	9	C13H9O2+
199.0752	381	C13H11O2+
210.0672	20	C14H10O2+
211.0753	158	C14H11O2+
227.0692	10	C14H11O3+
255.065	999	C15H11O4+
