Mass spectrum: Heliotrine N-oxide; LC-ESI-ITFT; MS2; CE: 80%; R=15000; [M+H]+
Name: Heliotrine N-oxide
Name: [(7S,8R)-7-hydroxy-4-oxido-5,6,7,8-tetrahydro-3H-pyrrolizin-4-ium-1-yl]methyl (2S)-2-hydroxy-2-[(1R)-1-methoxyethyl]-3-methylbutanoate
Formula: C16H27NO6
Exact mass: 329.1838
SMILES: C[C@H]([C@@](C(C)C)(C(=O)OCC1=CC[N+]2([C@H]1[C@H](CC2)O)[O-])O)OC
InChI: InChI=1S/C16H27NO6/c1-10(2)16(20,11(3)22-4)15(19)23-9-12-5-7-17(21)8-6-13(18)14(12)17/h5,10-11,13-14,18,20H,6-9H2,1-4H3/t11-,13+,14-,16+,17?/m1/s1
Instrument: LTQ Orbitrap XL Thermo Scientific
Instrument type: LC-ESI-ITFT
Ms type: MS2
Ion mode: POSITIVE
Ionization: ESI
Fragmentation mode: HCD
Collision energy: 80% (nominal)
Resolution: 15000
Column name: Kinetex Evo C18 2.6 um 50 x 2.1 mm
Retention time: 2.733 min
Base peak: 143.0015
Precursor m/z: 330.1911
Precursor type: [M+H]+
m/z	relative intensity	assigned
59.049	7	C3H7O+
67.0541	17	C5H7+
68.0494	34	C4H6N+
79.0542	15	C6H7+
80.0495	136	C5H6N+
81.0573	21	C5H7N+
81.0699	22	C6H9+
82.0413	25	C5H6O+
82.0651	43	C5H8N+
83.0491	55	C5H7O+
93.0573	202	C6H7N+
94.0651	394	C6H8N+
96.0442	23	C5H6NO+
96.0808	13	C6H10N+
98.0601	39	C5H8NO+
102.0549	80	C4H8NO2+
106.0652	64	C7H8N+
108.0808	61	C7H10N+
109.0649	10	C7H9O+
110.06	46	C6H8NO+
111.0679	678	C6H9NO+
112.0756	25	C6H10NO+
124.0757	121	C7H10NO+
126.0916	11	C7H12NO+
128.0707	30	C6H10NO2+
136.0757	100	C8H10NO+
137.0835	44	C8H11NO+
138.0914	127	C8H12NO+
140.0701	12	C7H10NO2+
142.0863	13	C7H12NO2+
154.0864	37	C8H12NO2+
155.0942	59	C8H13NO2+
172.0969	999	C8H14NO3+
