Mass spectrum: Papaverin; LC-ESI-ITFT; MS2; CE: 65%; R=15000; [M+H]+
Name: Papaverin
Name: Papaverine
Name: 1-[(3,4-dimethoxyphenyl)methyl]-6,7-dimethoxyisoquinoline
Formula: C20H21NO4
Exact mass: 339.1471
SMILES: COC1=C(C=C(C=C1)CC2=NC=CC3=CC(=C(C=C32)OC)OC)OC
InChI: InChI=1S/C20H21NO4/c1-22-17-6-5-13(10-18(17)23-2)9-16-15-12-20(25-4)19(24-3)11-14(15)7-8-21-16/h5-8,10-12H,9H2,1-4H3
Instrument: LTQ Orbitrap XL Thermo Scientific
Instrument type: LC-ESI-ITFT
Ms type: MS2
Ion mode: POSITIVE
Ionization: ESI
Fragmentation mode: HCD
Collision energy: 65% (nominal)
Resolution: 15000
Column name: Kinetex Evo C18 2.6 um 50 x 2.1 mm
Retention time: 7.588 min
Base peak: 340.1542
Precursor m/z: 340.1543
Precursor type: [M+H]+
m/z	relative intensity	assigned
91.0543	2	C7H7+
95.0491	17	C6H7O+
107.049	3	C7H7O+
115.0542	9	C9H7+
116.0497	2	C8H6N+
117.07	4	C9H9+
121.065	2	C8H9O+
123.0441	76	C7H7O2+
128.0493	5	C9H6N+
130.0656	2	C9H8N+
131.0494	3	C9H7O+
131.0725	3	C9H9N+
133.0652	2	C9H9O+
135.0444	2	C8H7O2+
136.0518	4	C8H8O2+
138.0676	4	C8H10O2+
141.0573	3	C10H7N+
142.0651	21	C10H8N+
143.0725	4	C10H9N+
144.0439	3	C9H6NO+
144.0805	5	C10H10N+
145.0649	6	C10H9O+
146.06	2	C9H8NO+
147.0806	4	C10H11O+
148.0519	17	C9H8O2+
151.0754	12	C9H11O2+
155.0364	2	C10H5NO+
155.0728	2	C11H9N+
156.0443	13	C10H6NO+
157.0522	4	C10H7NO+
157.0886	4	C11H11N+
158.0601	56	C10H8NO+
159.0678	30	C10H9NO+
160.0517	3	C10H8O2+
160.0757	8	C10H10NO+
161.0595	6	C10H9O2+
162.067	3	C10H10O2+
170.0602	20	C11H8NO+
171.0679	473	C11H9NO+
172.039	3	C10H6NO2+
174.0552	6	C10H8NO2+
174.0675	3	C11H10O2+
174.0913	12	C11H12NO+
175.0754	30	C11H11O2+
186.055	58	C11H8NO2+
187.0628	95	C11H9NO2+
188.0707	25	C11H10NO2+
189.0785	19	C11H11NO2+
190.0863	6	C11H12NO2+
202.0862	791	C12H12NO2+
220.0753	1	C15H10NO+
224.1073	5	C15H14NO+
235.0994	9	C16H13NO+
236.1075	7	C16H14NO+
240.1018	12	C15H14NO2+
241.1108	6	C15H15NO2+
248.1075	4	C17H14NO+
249.1146	12	C17H15NO+
251.0942	4	C16H13NO2+
252.1018	25	C16H14NO2+
254.1168	3	C16H16NO2+
263.0945	4	C17H13NO2+
264.1018	22	C17H14NO2+
266.1175	26	C17H16NO2+
267.09	2	C16H13NO3+
278.0802	2	C17H12NO3+
278.1175	8	C18H16NO2+
279.0885	5	C17H13NO3+
279.1251	7	C18H17NO2+
280.0969	49	C17H14NO3+
281.1054	12	C17H15NO3+
282.1126	34	C17H16NO3+
292.0971	7	C18H14NO3+
294.1126	44	C18H16NO3+
295.1206	43	C18H17NO3+
296.1281	160	C18H18NO3+
306.1125	2	C19H16NO3+
308.0917	38	C18H14NO4+
308.1281	13	C19H18NO3+
309.0994	29	C18H15NO4+
310.1076	17	C18H16NO4+
322.1076	6	C19H16NO4+
324.123	999	C19H18NO4+
340.1544	32	C20H22NO4+
