Mass spectrum: Papaverin; LC-ESI-ITFT; MS2; CE: 55%; R=15000; [M+H]+
Name: Papaverin
Name: Papaverine
Name: 1-[(3,4-dimethoxyphenyl)methyl]-6,7-dimethoxyisoquinoline
Formula: C20H21NO4
Exact mass: 339.1471
SMILES: COC1=C(C=C(C=C1)CC2=NC=CC3=CC(=C(C=C32)OC)OC)OC
InChI: InChI=1S/C20H21NO4/c1-22-17-6-5-13(10-18(17)23-2)9-16-15-12-20(25-4)19(24-3)11-14(15)7-8-21-16/h5-8,10-12H,9H2,1-4H3
Instrument: LTQ Orbitrap XL Thermo Scientific
Instrument type: LC-ESI-ITFT
Ms type: MS2
Ion mode: POSITIVE
Ionization: ESI
Fragmentation mode: HCD
Collision energy: 55% (nominal)
Resolution: 15000
Column name: Kinetex Evo C18 2.6 um 50 x 2.1 mm
Retention time: 7.598 min
Base peak: 340.1542
Precursor m/z: 340.1543
Precursor type: [M+H]+
m/z	relative intensity	assigned
95.0492	2	C6H7O+
123.044	45	C7H7O2+
142.0652	7	C10H8N+
148.0518	7	C9H8O2+
151.0754	8	C9H11O2+
158.0602	13	C10H8NO+
159.0676	7	C10H9NO+
170.06	10	C11H8NO+
171.0679	195	C11H9NO+
172.0754	22	C11H10NO+
174.0915	7	C11H12NO+
175.0753	13	C11H11O2+
186.0548	11	C11H8NO2+
187.0627	43	C11H9NO2+
188.0705	9	C11H10NO2+
189.0787	2	C11H11NO2+
190.086	2	C11H12NO2+
202.0862	999	C12H12NO2+
236.1074	2	C16H14NO+
241.1095	3	C15H15NO2+
249.115	9	C17H15NO+
264.102	9	C17H14NO2+
266.1172	7	C17H16NO2+
278.1179	4	C18H16NO2+
279.1252	7	C18H17NO2+
280.0965	10	C17H14NO3+
282.1121	12	C17H16NO3+
292.0978	2	C18H14NO3+
294.1123	17	C18H16NO3+
295.1203	54	C18H17NO3+
296.1281	148	C18H18NO3+
306.1133	2	C19H16NO3+
308.1281	11	C19H18NO3+
310.1073	27	C18H16NO4+
324.1229	846	C19H18NO4+
325.13	85	C19H19NO4+
340.1542	272	C20H22NO4+
