Mass spectrum: (-)-Scopolamine; LC-ESI-ITFT; MS2; CE: 75%; R=15000; [M+H]+
Name: (-)-Scopolamine
Formula: C17H21NO4
Exact mass: 303.1471
SMILES: CN1[C@@H]2C[C@H](C[C@H]1[C@H]3[C@@H]2O3)OC(=O)[C@H](CO)c4ccccc4
InChI: InChI=1S/C17H21NO4/c1-18-13-7-11(8-14(18)16-15(13)22-16)21-17(20)12(9-19)10-5-3-2-4-6-10/h2-6,11-16,19H,7-9H2,1H3/t11-,12-,13-,14+,15-,16+/m1/s1
Instrument: LTQ Orbitrap XL Thermo Scientific
Instrument type: LC-ESI-ITFT
Ms type: MS2
Ion mode: POSITIVE
Ionization: ESI
Fragmentation mode: HCD
Collision energy: 75% (nominal)
Resolution: 15000
Column name: Kinetex Evo C18 2.6 um 50 x 2.1 mm
Retention time: 1.115 min
Base peak: 143.0015
Precursor m/z: 304.1543
Precursor type: [M+H]+
m/z	relative intensity	assigned
67.0542	15	C5H7+
68.0496	11	C4H6N+
70.0651	62	C4H8N+
72.0445	13	C3H6NO+
74.06	6	C3H8NO+
77.0386	16	C6H5+
79.0543	184	C6H7+
81.0336	41	C5H5O+
81.0573	8	C5H7N+
81.0699	26	C6H9+
82.0652	79	C5H8N+
83.0491	30	C5H7O+
84.0808	42	C5H10N+
91.0544	38	C7H7+
93.0699	52	C7H9+
94.0652	51	C6H8N+
95.0493	6	C6H7O+
95.073	19	C6H9N+
96.0444	34	C5H6NO+
96.0809	47	C6H10N+
97.0523	120	C5H7NO+
97.0647	6	C6H9O+
98.0601	156	C5H8NO+
103.0543	999	C8H7+
107.049	16	C7H7O+
108.0807	28	C7H10N+
109.089	14	C7H11N+
110.0601	64	C6H8NO+
110.0965	278	C7H12N+
120.0809	38	C8H10N+
121.0648	341	C8H9O+
138.0914	868	C8H12NO+
154.0863	7	C8H12NO2+
156.102	163	C8H14NO2+
