Mass spectrum: Cortisone; LC-ESI-ITFT; MS2; CE: 110%; R=15000; [M+H]+
Name: Cortisone
Name: (8S,9S,10R,13S,14S,17R)-17-hydroxy-17-(2-hydroxyacetyl)-10,13-dimethyl-1,2,6,7,8,9,12,14,15,16-decahydrocyclopenta[a]phenanthrene-3,11-dione
Formula: C21H28O5
Exact mass: 360.1937
SMILES: C[C@]12CC(=O)[C@H]3[C@@H](CCC4=CC(=O)CC[C@]34C)[C@@H]1CC[C@]2(O)C(=O)CO
InChI: InChI=1S/C21H28O5/c1-19-7-5-13(23)9-12(19)3-4-14-15-6-8-21(26,17(25)11-22)20(15,2)10-16(24)18(14)19/h9,14-15,18,22,26H,3-8,10-11H2,1-2H3/t14-,15-,18+,19-,20-,21-/m0/s1
Instrument: LTQ Orbitrap XL Thermo Scientific
Instrument type: LC-ESI-ITFT
Ms type: MS2
Ionization: ESI
Ion mode: POSITIVE
Fragmentation mode: HCD
Collision energy: 110 % (nominal)
Resolution: 15000
Column name: Kinetex Evo C18 2.6 um 50 x 2.1 mm
Retention time: 9.587 min
Base peak: 361.2013
Precursor m/z: 361.201
Precursor type: [M+H]+
m/z	relative intensity	assigned
67.054	194	C5H7+
69.0332	25	C4H5O+
69.0696	74	C5H9+
77.0384	199	C6H5+
79.0541	498	C6H7+
81.0333	17	C5H5O+
81.0698	265	C6H9+
83.049	251	C5H7O+
91.0542	999	C7H7+
92.0622	15	C7H8+
93.0698	491	C7H9+
94.0412	14	C6H6O+
95.049	100	C6H7O+
95.0855	94	C7H11+
97.0647	339	C6H9O+
103.0542	122	C8H7+
104.0619	37	C8H8+
105.0447	288	C6H5N2+
105.0698	797	C8H9+
106.0777	14	C8H10+
107.0491	170	C7H7O+
107.0854	186	C8H11+
108.0568	15	C7H8O+
109.0648	70	C7H9O+
115.0541	217	C9H7+
116.062	88	C9H8+
117.0697	274	C9H9+
119.0493	21	C8H7O+
119.0603	44	C7H7N2+
119.0854	230	C9H11+
121.0647	423	C8H9O+
121.1012	23	C9H13+
123.0803	39	C8H11O+
128.0619	256	C10H8+
129.0697	272	C10H9+
130.0775	170	C10H10+
131.0491	26	C9H7O+
131.0853	150	C10H11+
132.0569	31	C9H8O+
133.0646	171	C9H9O+
133.1011	33	C10H13+
135.0804	41	C9H11O+
141.0697	140	C11H9+
142.0775	121	C11H10+
143.0853	129	C11H11+
144.0565	24	C10H8O+
145.0645	49	C10H9O+
145.101	105	C11H13+
146.0721	28	C10H10O+
147.0802	209	C10H11O+
148.0881	395	C10H12O+
152.0617	33	C12H8+
153.0697	78	C12H9+
154.0776	44	C12H10+
155.0602	54	C10H7N2+
155.0853	114	C12H11+
156.0933	34	C12H12+
157.0644	26	C11H9O+
157.1011	41	C12H13+
158.0724	25	C11H10O+
159.0803	48	C11H11O+
161.0956	27	C11H13O+
163.1116	70	C11H15O+
165.0697	130	C13H9+
166.0775	55	C13H10+
167.0852	92	C13H11+
168.093	34	C13H12+
169.0648	10	C12H9O+
169.1011	59	C13H13+
170.1088	11	C13H14+
171.0805	19	C12H11O+
171.1169	26	C13H15+
173.096	32	C12H13O+
174.1035	55	C12H14O+
178.0773	46	C14H10+
179.0853	68	C14H11+
180.0932	24	C14H12+
181.1012	49	C14H13+
182.0717	10	C13H10O+
182.1091	22	C14H14+
183.0802	29	C13H11O+
183.1165	24	C14H15+
185.1322	14	C14H17+
187.1113	16	C13H15O+
190.0778	14	C15H10+
191.0854	41	C15H11+
192.0931	20	C15H12+
193.1008	28	C15H13+
195.0803	15	C14H11O+
195.1164	17	C15H15+
197.1331	11	C15H17+
202.0778	13	C16H10+
203.0855	18	C16H11+
205.1007	15	C16H13+
207.1169	9	C16H15+
209.0963	17	C15H13O+
211.1115	26	C15H15O+
225.1269	31	C16H17O+
227.1432	11	C16H19O+
243.1379	51	C16H19O2+
