Mass spectrum: Imperatorin; LC-ESI-ITFT; MS2; CE: 95%; R=15000; [M+H]+
Name: Imperatorin
Name: 9-(3-methylbut-2-enoxy)furo[3,2-g]chromen-7-one
Formula: C16H14O4
Exact mass: 270.0892
SMILES: CC(=CCOc1c2c(ccc(=O)o2)cc3c1occ3)C
InChI: InChI=1S/C16H14O4/c1-10(2)5-7-19-16-14-12(6-8-18-14)9-11-3-4-13(17)20-15(11)16/h3-6,8-9H,7H2,1-2H3
Instrument: LTQ Orbitrap XL Thermo Scientific
Instrument type: LC-ESI-ITFT
Ms type: MS2
Ion mode: POSITIVE
Ionization: ESI
Fragmentation mode: HCD
Collision energy: 95% (nominal)
Resolution: 15000
Column name: Kinetex Evo C18 2.6 um 50 x 2.1 mm
Retention time: 11.498 min
Base peak: 203.0338
Precursor m/z: 271.0965
Precursor type: [M+H]+
m/z	relative intensity	assigned
65.0386	16	C5H5+
69.0699	21	C5H9+
75.023	10	C6H3+
77.0386	28	C6H5+
89.0386	8	C7H5+
90.0466	8	C7H6+
91.0543	250	C7H7+
101.0386	20	C8H5+
103.0543	36	C8H7+
105.0338	5	C7H5O+
118.0414	5	C8H6O+
119.0493	30	C8H7O+
129.0336	267	C9H5O+
131.0492	98	C9H7O+
147.0442	999	C9H7O2+
157.0285	66	C10H5O2+
159.0444	7	C10H7O2+
174.0316	17	C10H6O3+
175.039	28	C10H7O3+
203.0338	13	C11H7O4+
