Mass spectrum: Solasodin; LC-ESI-ITFT; MS2; CE: 75%; R=15000; [M+H]+
Name: Solasodin
Name: Solasodine
Formula: C27H43NO2
Exact mass: 413.3294
SMILES: C[C@@H]1CC[C@@]2([C@H]([C@H]3[C@@H](O2)C[C@@H]4[C@@]3(CC[C@H]5[C@H]4CC=C6[C@@]5(CC[C@@H](C6)O)C)C)C)NC1
InChI: InChI=1S/C27H43NO2/c1-16-7-12-27(28-15-16)17(2)24-23(30-27)14-22-20-6-5-18-13-19(29)8-10-25(18,3)21(20)9-11-26(22,24)4/h5,16-17,19-24,28-29H,6-15H2,1-4H3/t16-,17+,19+,20-,21+,22+,23+,24+,25+,26+,27-/m1/s1
Instrument: LTQ Orbitrap XL Thermo Scientific
Instrument type: LC-ESI-ITFT
Ms type: MS2
Ion mode: POSITIVE
Ionization: ESI
Fragmentation mode: HCD
Collision energy: 75% (nominal)
Resolution: 15000
Column name: Kinetex Evo C18 2.6 um 50 x 2.1 mm
Retention time: 10.879 min
Base peak: 414.3363
Precursor m/z: 414.3367
Precursor type: [M+H]+
m/z	relative intensity	assigned
55.0541	18	C4H7+
58.0649	15	C3H8N+
67.0542	155	C5H7+
69.0699	57	C5H9+
70.0651	544	C4H8N+
79.0543	163	C6H7+
81.0699	236	C6H9+
82.0653	17	C5H8N+
83.0853	15	C6H11+
86.0964	35	C5H12N+
91.0543	186	C7H7+
93.0699	342	C7H9+
95.0494	17	C6H7O+
95.0856	294	C7H11+
96.0809	53	C6H10N+
97.0649	28	C6H9O+
98.0964	27	C6H12N+
105.0699	310	C8H9+
107.0856	366	C8H11+
108.0803	18	C7H10N+
109.0648	19	C7H9O+
109.1012	317	C8H13+
114.0914	83	C6H12NO+
117.0699	102	C9H9+
119.0856	211	C9H11+
121.1012	346	C9H13+
122.0963	22	C8H12N+
123.1168	26	C9H15+
124.1122	288	C8H14N+
126.1278	171	C8H16N+
129.0699	109	C10H9+
131.0856	295	C10H11+
133.1012	544	C10H13+
135.1169	49	C10H15+
136.1123	23	C9H14N+
138.1282	12	C9H16N+
141.0697	23	C11H9+
142.0778	115	C11H10+
143.0856	196	C11H11+
144.0933	31	C11H12+
145.1013	402	C11H13+
147.1169	499	C11H15+
148.1123	16	C10H14N+
150.1278	67	C10H16N+
151.1119	25	C10H15O+
152.1437	14	C10H18N+
155.0857	72	C12H11+
156.0934	22	C12H12+
157.1013	999	C12H13+
159.117	610	C12H15+
161.1324	33	C12H17+
162.1279	26	C11H16N+
163.1121	17	C11H15O+
164.1437	51	C11H18N+
169.1012	91	C13H13+
171.1169	188	C13H15+
173.1326	117	C13H17+
175.1118	163	C12H15O+
177.1275	16	C12H17O+
178.1594	12	C12H20N+
182.1093	18	C14H14+
183.1168	125	C14H15+
184.1246	24	C14H16+
185.1325	94	C14H17+
187.1482	17	C14H19+
196.1248	26	C15H16+
197.1326	147	C15H17+
198.1402	36	C15H18+
199.1478	36	C15H19+
209.1326	29	C16H17+
211.1482	145	C16H19+
212.1563	28	C16H20+
213.164	31	C16H21+
223.1483	42	C17H19+
224.156	50	C17H20+
225.1639	64	C17H21+
238.1719	60	C18H22+
253.1953	263	C19H25+
380.2964	23	C26H38NO+
396.3264	85	C27H42NO+
