Mass spectrum: Solasodin; LC-ESI-ITFT; MS2; CE: 60%; R=15000; [M+H]+
Name: Solasodin
Name: Solasodine
Formula: C27H43NO2
Exact mass: 413.3294
SMILES: C[C@@H]1CC[C@@]2([C@H]([C@H]3[C@@H](O2)C[C@@H]4[C@@]3(CC[C@H]5[C@H]4CC=C6[C@@]5(CC[C@@H](C6)O)C)C)C)NC1
InChI: InChI=1S/C27H43NO2/c1-16-7-12-27(28-15-16)17(2)24-23(30-27)14-22-20-6-5-18-13-19(29)8-10-25(18,3)21(20)9-11-26(22,24)4/h5,16-17,19-24,28-29H,6-15H2,1-4H3/t16-,17+,19+,20-,21+,22+,23+,24+,25+,26+,27-/m1/s1
Instrument: LTQ Orbitrap XL Thermo Scientific
Instrument type: LC-ESI-ITFT
Ms type: MS2
Ion mode: POSITIVE
Ionization: ESI
Fragmentation mode: HCD
Collision energy: 60% (nominal)
Resolution: 15000
Column name: Kinetex Evo C18 2.6 um 50 x 2.1 mm
Retention time: 10.879 min
Base peak: 414.3363
Precursor m/z: 414.3367
Precursor type: [M+H]+
m/z	relative intensity	assigned
55.0542	7	C4H7+
67.0542	80	C5H7+
69.0699	30	C5H9+
70.0651	306	C4H8N+
79.0542	80	C6H7+
80.0494	5	C5H6N+
81.0699	174	C6H9+
83.0854	14	C6H11+
84.0808	8	C5H10N+
86.0963	13	C5H12N+
91.0542	51	C7H7+
93.0699	196	C7H9+
95.0491	15	C6H7O+
95.0855	189	C7H11+
96.0808	52	C6H10N+
97.0647	24	C6H9O+
98.0964	47	C6H12N+
105.0699	131	C8H9+
107.0855	332	C8H11+
109.1011	487	C8H13+
114.0913	153	C6H12NO+
117.0699	44	C9H9+
119.0855	165	C9H11+
121.1011	446	C9H13+
123.0803	10	C8H11O+
123.1168	38	C9H15+
124.1121	554	C8H14N+
125.1197	19	C8H15N+
126.1277	528	C8H16N+
129.0699	34	C10H9+
131.0855	201	C10H11+
133.1012	528	C10H13+
135.1167	86	C10H15+
136.1124	7	C9H14N+
137.096	14	C9H13O+
138.1278	11	C9H16N+
141.0697	12	C11H9+
142.0778	7	C11H10+
143.0855	119	C11H11+
145.1012	365	C11H13+
147.1168	585	C11H15+
149.0961	30	C10H13O+
149.1325	19	C11H17+
150.1276	36	C10H16N+
151.1117	93	C10H15O+
152.1433	10	C10H18N+
155.0856	36	C12H11+
157.1011	971	C12H13+
159.1168	647	C12H15+
161.0959	21	C11H13O+
161.1325	51	C12H17+
162.1277	15	C11H16N+
163.1119	49	C11H15O+
164.1433	66	C11H18N+
169.1011	44	C13H13+
171.1168	232	C13H15+
173.1325	150	C13H17+
175.1117	371	C12H15O+
177.1273	44	C12H17O+
178.1591	12	C12H20N+
182.1097	6	C14H14+
183.1168	97	C14H15+
185.1324	124	C14H17+
187.1479	26	C14H19+
189.1277	6	C13H17O+
196.1251	7	C15H16+
197.1324	182	C15H17+
199.1482	32	C15H19+
201.1639	9	C15H21+
209.1321	10	C16H17+
211.1481	186	C16H19+
213.1638	85	C16H21+
223.1484	11	C17H19+
224.1561	48	C17H20+
225.1638	85	C17H21+
238.1717	44	C18H22+
242.1663	14	C17H22O+
253.195	999	C19H25+
271.2055	190	C19H27O+
380.2954	6	C26H38NO+
396.3259	625	C27H42NO+
414.3363	143	C27H44NO2+
