Mass spectrum: Cortisone; LC-ESI-ITFT; MS2; CE: 65%; R=15000; [M+H]+
Name: Cortisone
Name: (8S,9S,10R,13S,14S,17R)-17-hydroxy-17-(2-hydroxyacetyl)-10,13-dimethyl-1,2,6,7,8,9,12,14,15,16-decahydrocyclopenta[a]phenanthrene-3,11-dione
Formula: C21H28O5
Exact mass: 360.1937
SMILES: C[C@]12CC(=O)[C@H]3[C@@H](CCC4=CC(=O)CC[C@]34C)[C@@H]1CC[C@]2(O)C(=O)CO
InChI: InChI=1S/C21H28O5/c1-19-7-5-13(23)9-12(19)3-4-14-15-6-8-21(26,17(25)11-22)20(15,2)10-16(24)18(14)19/h9,14-15,18,22,26H,3-8,10-11H2,1-2H3/t14-,15-,18+,19-,20-,21-/m0/s1
Instrument: LTQ Orbitrap XL Thermo Scientific
Instrument type: LC-ESI-ITFT
Ms type: MS2
Ionization: ESI
Ion mode: POSITIVE
Fragmentation mode: CID
Collision energy: 65 % (nominal)
Resolution: 15000
Column name: Kinetex Evo C18 2.6 um 50 x 2.1 mm
Retention time: 9.572 min
Base peak: 361.2008
Precursor m/z: 361.201
Precursor type: [M+H]+
m/z	relative intensity	assigned
93.0699	7	C7H9+
105.0699	31	C8H9+
107.0856	11	C8H11+
109.0644	3	C7H9O+
115.0543	10	C9H7+
117.0699	17	C9H9+
119.0854	30	C9H11+
121.0648	109	C8H9O+
121.1012	12	C9H13+
123.0805	14	C8H11O+
128.0626	4	C10H8+
129.0696	13	C10H9+
131.0855	29	C10H11+
133.0648	14	C9H9O+
133.101	13	C10H13+
135.0804	55	C9H11O+
135.1167	19	C10H15+
137.0963	9	C9H13O+
139.075	8	C8H11O2+
143.0855	24	C11H11+
145.0646	14	C10H9O+
145.1011	100	C11H13+
147.0804	89	C10H11O+
147.1168	9	C11H15+
148.0877	7	C10H12O+
149.0959	23	C10H13O+
151.075	17	C9H11O2+
153.091	15	C9H13O2+
155.0855	15	C12H11+
157.0645	7	C11H9O+
157.1012	26	C12H13+
159.0804	32	C11H11O+
159.1167	17	C12H15+
161.0596	10	C10H9O2+
161.096	67	C11H13O+
163.1116	974	C11H15O+
164.1148	31	C6H16N2O3+
165.0908	14	C10H13O2+
165.127	12	C11H17O+
167.0856	5	C13H11+
169.086	5	C9H13O3+
169.101	29	C13H13+
171.0803	47	C12H11O+
171.1166	82	C13H15+
173.0959	73	C12H13O+
175.1116	25	C12H15O+
177.0909	34	C11H13O2+
177.1268	3	C12H17O+
179.1066	13	C11H15O2+
181.086	7	C10H13O3+
181.1011	36	C14H13+
183.0805	10	C13H11O+
183.1166	36	C14H15+
185.096	38	C13H13O+
185.1324	9	C14H17+
187.0752	14	C12H11O2+
187.1117	45	C13H15O+
189.0909	40	C12H13O2+
189.1271	19	C13H17O+
191.1066	38	C12H15O2+
193.1014	11	C15H13+
195.1168	35	C15H15+
197.0961	19	C14H13O+
197.1324	30	C15H17+
199.1117	66	C14H15O+
201.0911	9	C13H13O2+
201.1273	22	C14H17O+
203.1067	18	C13H15O2+
203.1432	3	C14H19O+
205.101	8	C16H13+
205.1225	16	C13H17O2+
207.1017	11	C12H15O3+
207.1169	33	C16H15+
209.0962	18	C15H13O+
209.1173	8	C12H17O3+
209.1323	31	C16H17+
211.1118	40	C15H15O+
211.1482	22	C16H19+
213.0911	7	C14H13O2+
213.1273	39	C15H17O+
215.1068	13	C14H15O2+
215.143	16	C15H19O+
217.1222	30	C14H17O2+
219.1017	5	C13H15O3+
219.1166	15	C17H15+
221.1323	56	C17H17+
223.1118	47	C16H15O+
223.1479	46	C17H19+
225.1273	64	C16H17O+
225.1637	25	C17H21+
227.1064	13	C15H15O2+
227.1428	36	C16H19O+
229.1223	26	C15H17O2+
231.1374	8	C15H19O2+
232.124	5	C18H16+
233.1327	12	C18H17+
235.1115	6	C17H15O+
235.1482	39	C18H19+
237.1273	54	C17H17O+
237.1636	48	C18H21+
239.1062	12	C16H15O2+
239.1429	117	C17H19O+
239.1796	21	C18H23+
241.1221	97	C16H17O2+
241.1586	55	C17H21O+
243.1379	30	C16H19O2+
243.1745	18	C17H23O+
245.1169	4	C15H17O3+
245.1324	14	C19H17+
247.1115	9	C18H15O+
247.1327	5	C15H19O3+
247.1479	81	C19H19+
249.1273	44	C18H17O+
249.1637	58	C19H21+
251.107	7	C17H15O2+
251.1429	31	C18H19O+
251.1793	23	C19H23+
253.1223	11	C17H17O2+
253.1585	45	C18H21O+
255.1377	50	C17H19O2+
255.1741	50	C18H23O+
257.1535	72	C17H21O2+
257.1901	20	C18H25O+
259.1486	3	C20H19+
261.127	9	C19H17O+
261.1482	25	C16H21O3+
261.1636	47	C20H21+
263.1428	45	C19H19O+
265.1585	386	C19H21O+
266.161	15	C11H24NO6+
267.1378	83	C18H19O2+
267.1741	309	C19H23O+
268.1769	15	C14H24N2O3+
269.1534	12	C18H21O2+
269.1898	23	C19H25O+
271.1478	11	C21H19+
271.169	15	C18H23O2+
273.1475	7	C17H21O3+
274.134	8	C20H18O+
277.1585	55	C20H21O+
279.1378	17	C19H19O2+
279.1739	203	C20H23O+
280.1775	12	C15H24N2O3+
281.1534	41	C19H21O2+
281.1906	7	C20H25O+
283.1689	391	C19H23O2+
284.1758	15	C19H24O2+
285.1481	47	C18H21O3+
285.1845	234	C19H25O2+
286.1878	10	C14H26N2O4+
289.1583	126	C21H21O+
295.1689	217	C20H23O2+
297.1845	189	C20H25O2+
298.1883	10	C15H26N2O4+
299.1637	337	C19H23O3+
301.1793	346	C19H25O3+
302.1824	20	C14H26N2O5+
303.1584	29	C18H23O4+
303.1953	7	C19H27O3+
307.1688	398	C21H23O2+
308.1722	24	C16H24N2O4+
313.1793	311	C20H25O3+
314.1827	18	C15H26N2O5+
315.1949	74	C20H27O3+
317.1738	27	C19H25O4+
325.1792	536	C21H25O3+
326.1826	31	C16H26N2O5+
331.1891	23	C20H27O4+
343.1896	999	C21H27O4+
344.193	47	C16H28N2O6+
