Mass spectrum: Jacobine N-oxide; LC-ESI-ITFT; MS2; CE: 70%; R=15000; [M+H]+
Name: Jacobine N-oxide
Name: (1R,3`S,4S,6R,7R,17R)-7-hydroxy-3`,6,7-trimethyl-14-oxidospiro[2,9-dioxa-14-azoniatricyclo[9.5.1.014,17]heptadec-11-ene-4,2`-oxirane]-3,8-dione
Formula: C18H25NO7
Exact mass: 367.1631
SMILES: C[C@@H]1C[C@]2([C@@H](O2)C)C(=O)O[C@@H]3CC[N+]4([C@@H]3C(=CC4)COC(=O)[C@]1(C)O)[O-]
InChI: InChI=1S/C18H25NO7/c1-10-8-18(11(2)26-18)16(21)25-13-5-7-19(23)6-4-12(14(13)19)9-24-15(20)17(10,3)22/h4,10-11,13-14,22H,5-9H2,1-3H3/t10-,11+,13-,14-,17-,18+,19?/m1/s1
Instrument: LTQ Orbitrap XL Thermo Scientific
Instrument type: LC-ESI-ITFT
Ms type: MS2
Ion mode: POSITIVE
Ionization: ESI
Fragmentation mode: HCD
Collision energy: 70% (nominal)
Resolution: 15000
Column name: Kinetex Evo C18 2.6 um 50 x 2.1 mm
Retention time: 1.283 min
Base peak: 368.1701
Precursor m/z: 368.1704
Precursor type: [M+H]+
m/z	relative intensity	assigned
67.0542	28	C5H7+
68.0494	19	C4H6N+
77.0387	67	C6H5+
79.0543	71	C6H7+
80.0496	101	C5H6N+
81.0576	16	C5H7N+
81.0699	29	C6H9+
82.0651	27	C5H8N+
83.0491	11	C5H7O+
84.0445	10	C4H6NO+
85.0649	11	C5H9O+
91.0543	138	C7H7+
92.0497	15	C6H6N+
93.0574	204	C6H7N+
93.0699	71	C7H9+
94.0652	262	C6H8N+
95.0491	35	C6H7O+
95.073	136	C6H9N+
95.0856	10	C7H11+
96.0444	12	C5H6NO+
96.0808	37	C6H10N+
97.0646	18	C6H9O+
98.0601	18	C5H8NO+
99.0442	10	C5H7O2+
103.0543	15	C8H7+
105.0699	18	C8H9+
106.0652	123	C7H8N+
107.0733	12	C7H9N+
108.0809	66	C7H10N+
109.0886	19	C7H11N+
110.0602	30	C6H8NO+
110.0966	11	C7H12N+
111.068	13	C6H9NO+
113.0598	74	C6H9O2+
117.0573	7	C8H7N+
118.0652	217	C8H8N+
119.0731	206	C8H9N+
120.0809	999	C8H10N+
121.0887	138	C8H11N+
122.0964	125	C8H12N+
124.0758	28	C7H10NO+
132.081	11	C9H10N+
134.096	9	C9H12N+
136.0759	91	C8H10NO+
138.0915	67	C8H12NO+
139.0993	42	C8H13NO+
140.1072	9	C8H14NO+
146.0963	15	C10H12N+
148.0757	12	C9H10NO+
154.0864	14	C8H12NO2+
156.1022	44	C8H14NO2+
157.0861	8	C8H13O3+
162.0915	43	C10H12NO+
163.0995	20	C10H13NO+
174.1281	11	C12H16N+
190.1227	43	C12H16NO+
192.0658	26	C10H10NO3+
232.1344	10	C14H18NO2+
296.1504	31	C15H22NO5+
