Mass spectrum: Tomatidine; LC-ESI-ITFT; MS2; CE: 95%; R=15000; [M+H]+
Name: Tomatidine
Formula: C27H45NO2
Exact mass: 415.3450
SMILES: C[C@H]1[C@H]2[C@H](C[C@H]3[C@@H]4CC[C@H]5C[C@@H](O)CC[C@]5(C)[C@H]4CC[C@]23C)O[C@@]11CC[C@H](C)CN1
InChI: InChI=1S/C27H45NO2/c1-16-7-12-27(28-15-16)17(2)24-23(30-27)14-22-20-6-5-18-13-19(29)8-10-25(18,3)21(20)9-11-26(22,24)4/h16-24,28-29H,5-15H2,1-4H3/t16-,17-,18-,19-,20+,21-,22-,23-,24-,25-,26-,27-/m0/s1
Instrument: LTQ Orbitrap XL Thermo Scientific
Instrument type: LC-ESI-ITFT
Ms type: MS2
Ion mode: POSITIVE
Ionization: ESI
Fragmentation mode: HCD
Collision energy: 95 % (nominal)
Resolution: 15000
Column name: Kinetex Evo C18 2.6 um 50 x 2.1 mm
Retention time: 10.008 min
Base peak: 217.0493
Precursor m/z: 416.3523
Precursor type: [M+H]+
m/z	relative intensity	assigned
55.054	11	C4H7+
67.0542	161	C5H7+
68.0495	10	C4H6N+
69.0699	40	C5H9+
70.0651	71	C4H8N+
77.0386	67	C6H5+
79.0542	380	C6H7+
80.0495	23	C5H6N+
81.0699	291	C6H9+
82.0651	31	C5H8N+
83.0857	9	C6H11+
84.0808	14	C5H10N+
91.0542	482	C7H7+
93.0699	434	C7H9+
94.0651	39	C6H8N+
95.073	18	C6H9N+
95.0855	277	C7H11+
96.0808	38	C6H10N+
98.0965	20	C6H12N+
105.0699	999	C8H9+
107.0855	267	C8H11+
108.0809	41	C7H10N+
109.0885	16	C7H11N+
109.1012	65	C8H13+
110.0963	25	C7H12N+
117.0699	104	C9H9+
119.0855	490	C9H11+
121.1013	45	C9H13+
122.0965	25	C8H12N+
123.1168	7	C9H15+
124.112	106	C8H14N+
126.1277	76	C8H16N+
128.0622	6	C10H8+
129.0698	30	C10H9+
130.0779	21	C10H10+
131.0855	125	C10H11+
133.1012	152	C10H13+
135.1166	27	C10H15+
136.1117	22	C9H14N+
138.1277	10	C9H16N+
143.0855	38	C11H11+
144.0931	30	C11H12+
145.1012	125	C11H13+
147.1168	148	C11H15+
148.1119	32	C10H14N+
149.1326	20	C11H17+
150.1278	106	C10H16N+
157.1014	30	C12H13+
159.1169	84	C12H15+
161.1325	435	C12H17+
162.128	20	C11H16N+
164.1433	44	C11H18N+
171.1169	14	C13H15+
173.1322	22	C13H17+
176.1434	8	C12H18N+
185.133	9	C14H17+
