Mass spectrum: Pterosin G; LC-ESI-ITFT; MS2; CE: 75%; R=15000; [M+H]+
Name: Pterosin G
Name: (S)-2,3-Dihydro-6-(2-hydroxyethyl)-2-(hydroxymethyl)-5,7-dimethyl-1H-inden-1-one
Name: (2S)-6-(2-hydroxyethyl)-2-(hydroxymethyl)-5,7-dimethyl-2,3-dihydroinden-1-one
Formula: C14H18O3
Exact mass: 234.1256
SMILES: CC1=CC2=C(C(=C1CCO)C)C(=O)[C@@H](C2)CO
InChI: InChI=1S/C14H18O3/c1-8-5-10-6-11(7-16)14(17)13(10)9(2)12(8)3-4-15/h5,11,15-16H,3-4,6-7H2,1-2H3/t11-/m0/s1
Instrument: LTQ Orbitrap XL Thermo Scientific
Instrument type: LC-ESI-ITFT
Ms type: MS2
Ion mode: POSITIVE
Ionization: ESI
Fragmentation mode: HCD
Collision energy: 75 % (nominal)
Resolution: 15000
Column name: Kinetex Evo C18 2.6 um 50 x 2.1 mm
Retention time: 8.475 min
Base peak: 235.132
Precursor m/z: 235.1329
Precursor type: [M+H]+
m/z	relative intensity	assigned
119.0852	34	C9H11+
128.0618	145	C10H8+
129.0696	86	C10H9+
141.0697	247	C11H9+
142.0774	92	C11H10+
143.0853	301	C11H11+
155.0854	81	C12H11+
156.0931	999	C12H12+
171.1165	219	C13H15+
187.1111	26	C13H15O+
189.127	92	C13H17O+
199.111	21	C14H15O+
217.1216	52	C14H17O2+
