Mass spectrum: 8-Prenylnaringenin; LC-ESI-ITFT; MS2; CE: 95%; R=15000; [M+H]+
Name: 8-Prenylnaringenin
Name: (2S)-5,7-dihydroxy-2-(4-hydroxyphenyl)-8-(3-methylbut-2-enyl)-2,3-dihydrochromen-4-one
Formula: C20H20O5
Exact mass: 340.1311
SMILES: CC(=CCC1=C(C=C(C2=C1O[C@@H](CC2=O)C3=CC=C(C=C3)O)O)O)C
InChI: InChI=1S/C20H20O5/c1-11(2)3-8-14-15(22)9-16(23)19-17(24)10-18(25-20(14)19)12-4-6-13(21)7-5-12/h3-7,9,18,21-23H,8,10H2,1-2H3/t18-/m0/s1
Instrument: LTQ Orbitrap XL Thermo Scientific
Instrument type: LC-ESI-ITFT
Ms type: MS2
Ion mode: POSITIVE
Ionization: ESI
Fragmentation mode: HCD
Collision energy: 95% (nominal)
Resolution: 15000
Column name: Kinetex Evo C18 2.6 um 50 x 2.1 mm
Retention time: 11.913 min
Base peak: 116.9859
Precursor m/z: 341.1384
Precursor type: [M+H]+
m/z	relative intensity	assigned
51.0228	10	C4H3+
55.0178	40	C3H3O+
59.049	10	C3H7O+
65.0385	18	C5H5+
67.0178	11	C4H3O+
68.9972	237	C3HO2+
69.0335	50	C4H5O+
79.0179	87	C5H3O+
81.0336	259	C5H5O+
91.0544	48	C7H7+
92.9972	292	C5HO2+
97.0285	41	C5H5O2+
99.0078	162	C4H3O3+
107.0492	101	C7H7O+
109.0285	100	C6H5O2+
111.0078	24	C5H3O3+
115.0544	9	C9H7+
119.0492	44	C8H7O+
121.0285	21	C7H5O2+
121.0649	10	C8H9O+
123.0078	81	C6H3O3+
137.0235	184	C7H5O3+
141.0184	25	C6H5O4+
147.0082	14	C8H3O3+
147.0442	23	C9H7O2+
157.0652	26	C11H9O+
165.0184	999	C8H5O4+
183.029	35	C8H7O5+
185.0598	9	C12H9O2+
197.0453	9	C9H9O5+
197.0601	7	C13H9O2+
