Mass spectrum: Seneciphylline; LC-ESI-ITFT; MS2; CE: 80%; R=15000; [M+H]+
Name: Seneciphylline
Name: (1R,4Z,7R,17R)-4-ethylidene-7-hydroxy-7-methyl-6-methylidene-2,9-dioxa-14-azatricyclo[9.5.1.014,17]heptadec-11-ene-3,8-dione
Formula: C18H23NO5
Exact mass: 333.1576
SMILES: C/C=C\1/CC(=C)[C@@](C(=O)OCC2=CCN3[C@H]2[C@@H](CC3)OC1=O)(C)O
InChI: InChI=1S/C18H23NO5/c1-4-12-9-11(2)18(3,22)17(21)23-10-13-5-7-19-8-6-14(15(13)19)24-16(12)20/h4-5,14-15,22H,2,6-10H2,1,3H3/b12-4-/t14-,15-,18-/m1/s1
Instrument: LTQ Orbitrap XL Thermo Scientific
Instrument type: LC-ESI-ITFT
Ms type: MS2
Ion mode: POSITIVE
Ionization: ESI
Fragmentation mode: HCD
Collision energy: 80% (nominal)
Resolution: 15000
Column name: Kinetex Evo C18 2.6 um 50 x 2.1 mm
Retention time: 2.029 min
Base peak: 143.0015
Precursor m/z: 334.1649
Precursor type: [M+H]+
m/z	relative intensity	assigned
65.0384	22	C5H5+
67.0416	21	C4H5N+
67.0542	313	C5H7+
68.0494	119	C4H6N+
77.0386	117	C6H5+
79.0542	192	C6H7+
80.0495	286	C5H6N+
81.0573	98	C5H7N+
81.0699	190	C6H9+
82.0652	193	C5H8N+
86.06	15	C4H8NO+
91.0542	379	C7H7+
92.0496	50	C6H6N+
93.0573	60	C6H7N+
93.0698	235	C7H9+
94.0651	999	C6H8N+
95.0493	28	C6H7O+
95.0729	40	C6H9N+
95.0855	102	C7H11+
96.0807	340	C6H10N+
103.0543	143	C8H7+
105.0572	41	C7H7N+
105.0699	187	C8H9+
106.0651	85	C7H8N+
107.073	99	C7H9N+
107.0856	22	C8H11+
108.0808	277	C7H10N+
109.0648	227	C7H9O+
110.0598	42	C6H8NO+
110.0964	126	C7H12N+
112.0762	18	C6H10NO+
118.0651	137	C8H8N+
119.0729	36	C8H9N+
120.0808	605	C8H10N+
121.0887	33	C8H11N+
122.0963	87	C8H12N+
123.0804	73	C8H11O+
133.0646	29	C9H9O+
138.0913	353	C8H12NO+
151.0754	28	C9H11O2+
156.1015	48	C8H14NO2+
