Mass spectrum: Senecivernine; LC-ESI-ITFT; MS2; CE: 70%; R=15000; [M+H]+
Name: Senecivernine
Name: (1R,5R,6R,7R,17R)-7-hydroxy-5,6,7-trimethyl-4-methylidene-2,9-dioxa-14-azatricyclo[9.5.1.014,17]heptadec-11-ene-3,8-dione
Formula: C18H25NO5
Exact mass: 335.1733
SMILES: C[C@@H]1[C@H]([C@@](C(=O)OCC2=CCN3[C@H]2[C@@H](CC3)OC(=O)C1=C)(C)O)C
InChI: InChI=1S/C18H25NO5/c1-10-11(2)16(20)24-14-6-8-19-7-5-13(15(14)19)9-23-17(21)18(4,22)12(10)3/h5,10,12,14-15,22H,2,6-9H2,1,3-4H3/t10-,12+,14+,15+,18+/m0/s1
Instrument: LTQ Orbitrap XL Thermo Scientific
Instrument type: LC-ESI-ITFT
Ms type: MS2
Ion mode: POSITIVE
Ionization: ESI
Fragmentation mode: HCD
Collision energy: 70% (nominal)
Resolution: 15000
Column name: Kinetex Evo C18 2.6 um 50 x 2.1 mm
Retention time: 3.393 min
Base peak: 143.0015
Precursor m/z: 336.1805
Precursor type: [M+H]+
m/z	relative intensity	assigned
55.0542	21	C4H7+
67.0542	163	C5H7+
68.0495	84	C4H6N+
70.0652	15	C4H8N+
77.0388	38	C6H5+
79.0543	199	C6H7+
80.0495	163	C5H6N+
81.0574	42	C5H7N+
81.0699	380	C6H9+
82.0652	98	C5H8N+
83.0492	52	C5H7O+
91.0543	165	C7H7+
92.0496	21	C6H6N+
93.0574	15	C6H7N+
93.0699	219	C7H9+
94.0652	447	C6H8N+
95.0729	30	C6H9N+
95.0857	26	C7H11+
96.0809	263	C6H10N+
103.0543	94	C8H7+
105.0573	15	C7H7N+
105.0701	41	C8H9+
106.0652	45	C7H8N+
107.0729	30	C7H9N+
107.0856	120	C8H11+
108.0809	285	C7H10N+
109.0649	53	C7H9O+
109.0887	61	C7H11N+
109.1012	44	C8H13+
110.06	24	C6H8NO+
110.0964	111	C7H12N+
111.0441	113	C6H7O2+
111.0678	18	C6H9NO+
118.0652	88	C8H8N+
119.073	19	C8H9N+
120.0809	999	C8H10N+
121.065	17	C8H9O+
121.0887	64	C8H11N+
122.0964	147	C8H12N+
125.0961	40	C8H13O+
135.0802	25	C9H11O+
136.0758	50	C8H10NO+
137.0837	17	C8H11NO+
138.0914	778	C8H12NO+
140.1071	17	C8H14NO+
153.091	100	C9H13O2+
154.0865	48	C8H12NO2+
220.1335	83	C13H18NO2+
238.1435	16	C13H20NO3+
290.174	15	C17H24NO3+
308.1858	185	C17H26NO4+
336.1811	143	C18H26NO5+
