Mass spectrum: (+)-Chelidonine; LC-ESI-ITFT; MS2; CE: 60%; R=15000; [M+H]+
Name: (+)-Chelidonine
Name: Chelidonine
Name: (1S,12S,13R)-24-methyl-5,7,18,20-tetraoxa-24-azahexacyclo[11.11.0.02,10.04,8.014,22.017,21]tetracosa-2,4(8),9,14(22),15,17(21)-hexaen-12-ol
Formula: C20H19NO5
Exact mass: 353.1263
SMILES: CN1Cc2c(ccc3c2OCO3)[C@@H]4[C@H]1c5cc6c(cc5C[C@@H]4O)OCO6
InChI: InChI=1S/C20H19NO5/c1-21-7-13-11(2-3-15-20(13)26-9-23-15)18-14(22)4-10-5-16-17(25-8-24-16)6-12(10)19(18)21/h2-3,5-6,14,18-19,22H,4,7-9H2,1H3/t14-,18-,19+/m0/s1
Instrument: LTQ Orbitrap XL Thermo Scientific
Instrument type: LC-ESI-ITFT
Ms type: MS2
Ion mode: POSITIVE
Ionization: ESI
Fragmentation mode: HCD
Collision energy: 60% (nominal)
Resolution: 15000
Column name: Kinetex Evo C18 2.6 um 50 x 2.1 mm
Retention time: 7.015 min
Base peak: 354.1337
Precursor m/z: 354.1336
Precursor type: [M+H]+
m/z	relative intensity	assigned
79.0544	2	C6H7+
103.0541	2	C8H7+
115.0548	2	C9H7+
118.0651	2	C8H8N+
131.0493	12	C9H7O+
135.0441	130	C8H7O2+
143.0493	13	C10H7O+
146.0603	10	C9H8NO+
148.0519	5	C9H8O2+
149.0233	5	C8H5O3+
149.0598	12	C9H9O2+
159.0442	22	C10H7O2+
161.0598	54	C10H9O2+
163.0391	135	C9H7O3+
173.0599	14	C11H9O2+
175.0393	6	C10H7O3+
175.0628	4	C10H9NO2+
176.0708	30	C10H10NO2+
179.0859	12	C14H11+
187.0389	8	C11H7O3+
188.0707	89	C11H10NO2+
189.07	75	C15H9+
191.0857	8	C15H11+
205.0645	5	C15H9O+
207.0805	40	C15H11O+
209.0592	3	C14H9O2+
217.0649	176	C16H9O+
219.0806	21	C16H11O+
222.0684	4	C15H10O2+
223.0751	2	C15H11O2+
233.0604	3	C16H9O2+
235.0754	62	C16H11O2+
237.0911	80	C16H13O2+
245.0599	53	C17H9O2+
246.0687	3	C17H10O2+
247.0755	728	C17H11O2+
249.0911	8	C17H13O2+
263.0704	18	C17H11O3+
265.0861	85	C17H13O3+
275.0704	999	C18H11O3+
277.0858	5	C18H13O3+
278.0574	2	C17H10O4+
279.0647	2	C17H11O4+
280.0729	1	C17H12O4+
293.0811	23	C18H13O4+
295.0967	25	C18H15O4+
305.081	14	C19H13O4+
334.1086	2	C20H16NO4+
336.1232	10	C20H18NO4+
