Mass spectrum: Epigallocatechin; LC-ESI-ITFT; MS2; CE: 25%; R=15000; [M+H]+
Name: Epigallocatechin
Formula: C15H14O7
Exact mass: 306.0740
SMILES: O[C@@H]1CC2=C(O)C=C(O)C=C2O[C@@H]1C1=CC(O)=C(O)C(O)=C1
InChI: InChI=1S/C15H14O7/c16-7-3-9(17)8-5-12(20)15(22-13(8)4-7)6-1-10(18)14(21)11(19)2-6/h1-4,12,15-21H,5H2/t12-,15-/m1/s1
Instrument: LTQ Orbitrap XL Thermo Scientific
Instrument type: LC-ESI-ITFT
Ms type: MS2
Ion mode: POSITIVE
Ionization: ESI
Fragmentation mode: CID
Collision energy: 25 % (nominal)
Resolution: 15000
Column name: Kinetex Evo C18 2.6 um 50 x 2.1 mm
Retention time: 3.266 min
Base peak: 143.0013
Precursor m/z: 307.0812
Precursor type: [M+H]+
m/z	relative intensity	assigned
139.039	999	C7H7O3+
151.039	702	C8H7O3+
153.055	21	C8H9O3+
163.039	22	C9H7O3+
169.0495	48	C8H9O4+
181.0498	40	C9H9O4+
289.0708	672	C15H13O6+
