Mass spectrum: Heliotrine N-oxide; LC-ESI-ITFT; MS2; CE: 90%; R=15000; [M+H]+
Name: Heliotrine N-oxide
Name: [(7S,8R)-7-hydroxy-4-oxido-5,6,7,8-tetrahydro-3H-pyrrolizin-4-ium-1-yl]methyl (2S)-2-hydroxy-2-[(1R)-1-methoxyethyl]-3-methylbutanoate
Formula: C16H27NO6
Exact mass: 329.1838
SMILES: C[C@H]([C@@](C(C)C)(C(=O)OCC1=CC[N+]2([C@H]1[C@H](CC2)O)[O-])O)OC
InChI: InChI=1S/C16H27NO6/c1-10(2)16(20,11(3)22-4)15(19)23-9-12-5-7-17(21)8-6-13(18)14(12)17/h5,10-11,13-14,18,20H,6-9H2,1-4H3/t11-,13+,14-,16+,17?/m1/s1
Instrument: LTQ Orbitrap XL Thermo Scientific
Instrument type: LC-ESI-ITFT
Ms type: MS2
Ion mode: POSITIVE
Ionization: ESI
Fragmentation mode: HCD
Collision energy: 90% (nominal)
Resolution: 15000
Column name: Kinetex Evo C18 2.6 um 50 x 2.1 mm
Retention time: 2.735 min
Base peak: 143.0015
Precursor m/z: 330.1911
Precursor type: [M+H]+
m/z	relative intensity	assigned
59.0491	14	C3H7O+
65.0385	9	C5H5+
67.0416	23	C4H5N+
67.0541	37	C5H7+
68.0494	70	C4H6N+
79.0542	21	C6H7+
80.0495	388	C5H6N+
81.0335	9	C5H5O+
81.0573	45	C5H7N+
81.0699	34	C6H9+
82.0412	26	C5H6O+
82.0651	69	C5H8N+
83.0492	75	C5H7O+
92.0495	11	C6H6N+
93.0573	335	C6H7N+
94.0651	642	C6H8N+
95.0728	11	C6H9N+
96.0444	34	C5H6NO+
96.0808	22	C6H10N+
98.0601	41	C5H8NO+
102.0549	128	C4H8NO2+
106.0651	109	C7H8N+
108.0808	104	C7H10N+
109.0653	12	C7H9O+
110.0601	77	C6H8NO+
111.0678	999	C6H9NO+
112.0757	39	C6H10NO+
124.0757	162	C7H10NO+
128.0707	46	C6H10NO2+
136.0757	145	C8H10NO+
137.0837	48	C8H11NO+
138.0913	99	C8H12NO+
154.0863	42	C8H12NO2+
155.0941	62	C8H13NO2+
172.0969	689	C8H14NO3+
