Mass spectrum: Echimidine N-oxide; LC-ESI-ITFT; MS2; CE: 70%; R=15000; [M+H]+
Name: Echimidine N-oxide
Name: [(7R,8R)-7-[(Z)-2-methylbut-2-enoyl]oxy-4-oxido-5,6,7,8-tetrahydro-3H-pyrrolizin-4-ium-1-yl]methyl (2R)-2,3-dihydroxy-2-[(1S)-1-hydroxyethyl]-3-methylbutanoate
Formula: C20H31NO8
Exact mass: 413.2050
SMILES: C/C=C(/C)\C(=O)O[C@@H]1CC[N+]2([C@@H]1C(=CC2)COC(=O)[C@@]([C@H](C)O)(C(C)(C)O)O)[O-]
InChI: InChI=1S/C20H31NO8/c1-6-12(2)17(23)29-15-8-10-21(27)9-7-14(16(15)21)11-28-18(24)20(26,13(3)22)19(4,5)25/h6-7,13,15-16,22,25-26H,8-11H2,1-5H3/b12-6-/t13-,15+,16+,20-,21?/m0/s1
Instrument: LTQ Orbitrap XL Thermo Scientific
Instrument type: LC-ESI-ITFT
Ms type: MS2
Ion mode: POSITIVE
Ionization: ESI
Fragmentation mode: HCD
Collision energy: 70% (nominal)
Resolution: 15000
Column name: Kinetex Evo C18 2.6 um 50 x 2.1 mm
Retention time: 6.568 min
Base peak: 414.2116
Precursor m/z: 414.2122
Precursor type: [M+H]+
m/z	relative intensity	assigned
53.0386	11	C4H5+
55.0541	291	C4H7+
67.0542	18	C5H7+
68.0495	58	C4H6N+
79.0542	96	C6H7+
80.0495	134	C5H6N+
81.0338	13	C5H5O+
81.0573	41	C5H7N+
81.0699	110	C6H9+
82.0413	12	C5H6O+
82.0651	42	C5H8N+
83.0491	999	C5H7O+
84.0444	97	C4H6NO+
91.0542	60	C7H7+
93.0573	345	C6H7N+
93.0698	18	C7H9+
94.0651	457	C6H8N+
95.0493	12	C6H7O+
95.073	98	C6H9N+
96.0444	21	C5H6NO+
96.081	10	C6H10N+
97.0648	13	C6H9O+
98.0601	26	C5H8NO+
106.0651	536	C7H8N+
107.073	45	C7H9N+
107.0857	22	C8H11+
108.0808	270	C7H10N+
109.0648	58	C7H9O+
109.0886	38	C7H11N+
110.0601	60	C6H8NO+
111.0679	259	C6H9NO+
112.0756	64	C6H10NO+
118.0652	212	C8H8N+
119.073	387	C8H9N+
120.0808	646	C8H10N+
121.0645	10	C8H9O+
121.0886	53	C8H11N+
122.0597	17	C7H8NO+
122.0965	30	C8H12N+
124.0757	106	C7H10NO+
126.0913	36	C7H12NO+
136.0757	750	C8H10NO+
137.0835	689	C8H11NO+
138.0914	114	C8H12NO+
141.091	647	C8H13O2+
146.0965	11	C10H12N+
147.1045	17	C10H13N+
148.1121	33	C10H14N+
152.1069	33	C9H14NO+
154.0863	427	C8H12NO2+
160.112	24	C11H14N+
172.0967	44	C8H14NO3+
174.0913	13	C11H12NO+
174.1279	47	C12H16N+
175.0984	10	C11H13NO+
176.1067	26	C11H14NO+
190.1227	42	C12H16NO+
192.1382	47	C12H18NO+
202.1221	11	C13H16NO+
218.1176	60	C13H16NO2+
219.1258	21	C13H17NO2+
220.1332	208	C13H18NO2+
237.1354	30	C13H19NO3+
254.1386	770	C13H20NO4+
