Mass spectrum: Daphnetin; LC-ESI-ITFT; MS2; CE: 40%; R=15000; [M+H]+
Name: Daphnetin
Formula: C9H6O4
Exact mass: 178.0266
SMILES: OC1=CC=C2C=CC(=O)OC2=C1O
InChI: InChI=1S/C9H6O4/c10-6-3-1-5-2-4-7(11)13-9(5)8(6)12/h1-4,10,12H
Instrument: LTQ Orbitrap XL Thermo Scientific
Instrument type: LC-ESI-ITFT
Ms type: MS2
Ion mode: POSITIVE
Ionization: ESI
Fragmentation mode: CID
Collision energy: 40 % (nominal)
Resolution: 15000
Column name: Kinetex Evo C18 2.6 um 50 x 2.1 mm
Retention time: 4.551 min
Base peak: 143.0016
Precursor m/z: 179.0339
Precursor type: [M+H]+
m/z	relative intensity	assigned
89.0387	59	C7H5+
107.0492	73	C7H7O+
117.0336	114	C8H5O+
123.0442	107	C7H7O2+
133.0285	999	C8H5O2+
135.0442	589	C8H7O2+
147.0442	896	C9H7O2+
151.039	35	C8H7O3+
161.0236	191	C9H5O3+
