Mass spectrum: Senecionine; LC-ESI-ITFT; MS2; CE: 80%; R=15000; [M+H]+
Name: Senecionine
Name: (1R,4Z,6R,7R,17R)-4-ethylidene-7-hydroxy-6,7-dimethyl-2,9-dioxa-14-azatricyclo[9.5.1.014,17]heptadec-11-ene-3,8-dione
Formula: C18H25NO5
Exact mass: 335.1733
SMILES: C/C=C\1/C[C@H]([C@@](C(=O)OCC2=CCN3[C@H]2[C@@H](CC3)OC1=O)(C)O)C
InChI: InChI=1S/C18H25NO5/c1-4-12-9-11(2)18(3,22)17(21)23-10-13-5-7-19-8-6-14(15(13)19)24-16(12)20/h4-5,11,14-15,22H,6-10H2,1-3H3/b12-4-/t11-,14-,15-,18-/m1/s1
Instrument: LTQ Orbitrap XL Thermo Scientific
Instrument type: LC-ESI-ITFT
Ms type: MS2
Ion mode: POSITIVE
Ionization: ESI
Fragmentation mode: HCD
Collision energy: 80% (nominal)
Resolution: 15000
Column name: Kinetex Evo C18 2.6 um 50 x 2.1 mm
Retention time: 4.053 min
Base peak: 143.0016
Precursor m/z: 336.1805
Precursor type: [M+H]+
m/z	relative intensity	assigned
53.0386	26	C4H5+
67.0542	337	C5H7+
68.0494	90	C4H6N+
77.0387	117	C6H5+
79.0543	184	C6H7+
80.0495	276	C5H6N+
81.0573	96	C5H7N+
81.0699	251	C6H9+
82.0652	216	C5H8N+
83.0492	47	C5H7O+
84.0445	30	C4H6NO+
91.0543	293	C7H7+
92.0495	52	C6H6N+
93.0574	40	C6H7N+
93.07	269	C7H9+
94.0652	999	C6H8N+
95.073	29	C6H9N+
95.0854	23	C7H11+
96.0808	363	C6H10N+
103.0542	142	C8H7+
105.0574	34	C7H7N+
105.0698	47	C8H9+
106.0653	49	C7H8N+
107.073	60	C7H9N+
107.0856	183	C8H11+
108.0809	259	C7H10N+
109.0651	32	C7H9O+
109.1011	32	C8H13+
110.0602	39	C6H8NO+
110.0964	102	C7H12N+
118.0654	129	C8H8N+
119.0731	37	C8H9N+
120.0809	897	C8H10N+
121.0886	40	C8H11N+
122.0965	123	C8H12N+
125.0961	103	C8H13O+
135.0808	37	C9H11O+
138.0914	460	C8H12NO+
140.107	27	C8H14NO+
153.0908	64	C9H13O2+
156.1016	54	C8H14NO2+
