Mass spectrum: Heliotrine N-oxide; LC-ESI-ITFT; MS2; CE: 50%; R=15000; [M+H]+
Name: Heliotrine N-oxide
Name: [(7S,8R)-7-hydroxy-4-oxido-5,6,7,8-tetrahydro-3H-pyrrolizin-4-ium-1-yl]methyl (2S)-2-hydroxy-2-[(1R)-1-methoxyethyl]-3-methylbutanoate
Formula: C16H27NO6
Exact mass: 329.1838
SMILES: C[C@H]([C@@](C(C)C)(C(=O)OCC1=CC[N+]2([C@H]1[C@H](CC2)O)[O-])O)OC
InChI: InChI=1S/C16H27NO6/c1-10(2)16(20,11(3)22-4)15(19)23-9-12-5-7-17(21)8-6-13(18)14(12)17/h5,10-11,13-14,18,20H,6-9H2,1-4H3/t11-,13+,14-,16+,17?/m1/s1
Instrument: LTQ Orbitrap XL Thermo Scientific
Instrument type: LC-ESI-ITFT
Ms type: MS2
Ion mode: POSITIVE
Ionization: ESI
Fragmentation mode: HCD
Collision energy: 50% (nominal)
Resolution: 15000
Column name: Kinetex Evo C18 2.6 um 50 x 2.1 mm
Retention time: 2.723 min
Base peak: 330.1911
Precursor m/z: 330.1911
Precursor type: [M+H]+
m/z	relative intensity	assigned
59.049	4	C3H7O+
80.0495	5	C5H6N+
81.0701	3	C6H9+
82.0415	5	C5H6O+
82.0652	7	C5H8N+
83.0491	7	C5H7O+
93.0574	30	C6H7N+
94.0652	25	C6H8N+
98.06	8	C5H8NO+
102.0551	4	C4H8NO2+
106.0651	4	C7H8N+
108.0808	12	C7H10N+
109.0646	4	C7H9O+
110.0601	6	C6H8NO+
111.0679	16	C6H9NO+
112.0756	15	C6H10NO+
124.0758	7	C7H10NO+
136.0757	52	C8H10NO+
137.0836	16	C8H11NO+
138.0914	131	C8H12NO+
154.0864	59	C8H12NO2+
155.0942	53	C8H13NO2+
172.097	999	C8H14NO3+
298.1655	4	C15H24NO5+
330.1914	354	C16H28NO6+
