Mass spectrum: (+)-Costunolide; LC-ESI-ITFT; MS2; CE: 100%; R=15000; [M+H]+
Name: (+)-Costunolide
Name: Costunolide
Name: (3aS,6E,10E,11aR)-6,10-dimethyl-3-methylidene-3a,4,5,8,9,11a-hexahydrocyclodeca[b]furan-2-one
Formula: C15H20O2
Exact mass: 232.1463
SMILES: C/C/1=C\CC/C(=C/[C@@H]2[C@@H](CC1)C(=C)C(=O)O2)/C
InChI: InChI=1S/C15H20O2/c1-10-5-4-6-11(2)9-14-13(8-7-10)12(3)15(16)17-14/h5,9,13-14H,3-4,6-8H2,1-2H3/b10-5+,11-9+/t13-,14+/m0/s1
Instrument: LTQ Orbitrap XL Thermo Scientific
Instrument type: LC-ESI-ITFT
Ms type: MS2
Ion mode: POSITIVE
Ionization: ESI
Fragmentation mode: HCD
Collision energy: 100% (nominal)
Resolution: 15000
Column name: Kinetex Evo C18 2.6 um 50 x 2.1 mm
Retention time: 11.752 min
Base peak: 116.9859
Precursor m/z: 233.1536
Precursor type: [M+H]+
m/z	relative intensity	assigned
67.0542	165	C5H7+
69.0698	39	C5H9+
77.0385	163	C6H5+
79.0542	396	C6H7+
81.0699	323	C6H9+
91.0542	999	C7H7+
93.0699	313	C7H9+
95.0855	160	C7H11+
103.0543	90	C8H7+
105.0699	962	C8H9+
107.0854	156	C8H11+
115.0542	112	C9H7+
116.0622	149	C9H8+
117.0698	418	C9H9+
119.0855	325	C9H11+
121.0648	39	C8H9O+
128.0621	80	C10H8+
129.0698	186	C10H9+
130.0777	157	C10H10+
131.0856	542	C10H11+
133.1012	104	C10H13+
142.0773	47	C11H10+
143.0855	121	C11H11+
144.0935	57	C11H12+
145.1013	306	C11H13+
155.0848	23	C12H11+
157.1011	54	C12H13+
159.117	97	C12H15+
187.1483	27	C14H19+
