Mass spectrum: Imperatorin; LC-ESI-ITFT; MS2; CE: 65%; R=15000; [M+H]+
Name: Imperatorin
Name: 9-(3-methylbut-2-enoxy)furo[3,2-g]chromen-7-one
Formula: C16H14O4
Exact mass: 270.0892
SMILES: CC(=CCOc1c2c(ccc(=O)o2)cc3c1occ3)C
InChI: InChI=1S/C16H14O4/c1-10(2)5-7-19-16-14-12(6-8-18-14)9-11-3-4-13(17)20-15(11)16/h3-6,8-9H,7H2,1-2H3
Instrument: LTQ Orbitrap XL Thermo Scientific
Instrument type: LC-ESI-ITFT
Ms type: MS2
Ion mode: POSITIVE
Ionization: ESI
Fragmentation mode: HCD
Collision energy: 65% (nominal)
Resolution: 15000
Column name: Kinetex Evo C18 2.6 um 50 x 2.1 mm
Retention time: 11.549 min
Base peak: 116.9858
Precursor m/z: 271.0965
Precursor type: [M+H]+
m/z	relative intensity	assigned
69.0699	112	C5H9+
91.0541	13	C7H7+
103.0543	15	C8H7+
119.0492	12	C8H7O+
129.0334	40	C9H5O+
131.0492	208	C9H7O+
147.0441	999	C9H7O2+
157.0285	162	C10H5O2+
159.0442	97	C10H7O2+
174.0309	10	C10H6O3+
175.0391	293	C10H7O3+
185.0232	74	C11H5O3+
202.0264	14	C11H6O4+
203.0339	700	C11H7O4+
