Mass spectrum: Tetrahydropalmatin; LC-ESI-ITFT; MS2; CE: 70%; R=15000; [M+H]+
Name: Tetrahydropalmatin
Name: D-Tetrahydropalmatine
Name: (13aR)-2,3,9,10-tetramethoxy-6,8,13,13a-tetrahydro-5H-isoquinolino[2,1-b]isoquinoline
Formula: C21H25NO4
Exact mass: 355.1784
SMILES: COC1=C(C2=C(C[C@@H]3C4=CC(=C(C=C4CCN3C2)OC)OC)C=C1)OC
InChI: InChI=1S/C21H25NO4/c1-23-18-6-5-13-9-17-15-11-20(25-3)19(24-2)10-14(15)7-8-22(17)12-16(13)21(18)26-4/h5-6,10-11,17H,7-9,12H2,1-4H3/t17-/m1/s1
Instrument: LTQ Orbitrap XL Thermo Scientific
Instrument type: LC-ESI-ITFT
Ms type: MS2
Ion mode: POSITIVE
Ionization: ESI
Fragmentation mode: HCD
Collision energy: 70% (nominal)
Resolution: 15000
Column name: Kinetex Evo C18 2.6 um 50 x 2.1 mm
Retention time: 7.478 min
Base peak: 356.1854
Precursor m/z: 356.1856
Precursor type: [M+H]+
m/z	relative intensity	assigned
77.0387	1	C6H5+
79.0542	6	C6H7+
91.0543	4	C7H7+
103.0542	7	C8H7+
104.0619	2	C8H8+
105.0699	29	C8H9+
107.0491	4	C7H7O+
118.0415	3	C8H6O+
119.049	2	C8H7O+
120.0569	4	C8H8O+
121.0647	10	C8H9O+
122.0725	2	C8H10O+
131.0729	39	C9H9N+
132.0571	1	C9H8O+
133.0647	17	C9H9O+
134.0726	19	C9H10O+
135.0441	13	C8H7O2+
135.0804	10	C9H11O+
136.0518	2	C8H8O2+
137.0593	1	C8H9O2+
145.0647	1	C10H9O+
146.0601	2	C9H8NO+
147.0679	11	C9H9NO+
148.0757	85	C9H10NO+
149.0595	4	C9H9O2+
150.0675	102	C9H10O2+
151.075	19	C9H11O2+
158.0726	3	C11H10O+
159.0679	34	C10H9NO+
160.0755	11	C10H10NO+
161.0591	1	C10H9O2+
161.0835	8	C10H11NO+
162.0547	1	C9H8NO2+
164.0829	1	C10H12O2+
164.1068	1	C10H14NO+
165.091	108	C10H13O2+
174.0552	2	C10H8NO2+
174.0675	3	C11H10O2+
175.0628	2	C10H9NO2+
175.0756	2	C11H11O2+
176.0706	153	C10H10NO2+
177.0784	217	C10H11NO2+
189.0784	2	C11H11NO2+
189.0908	2	C12H13O2+
190.0864	32	C11H12NO2+
192.1018	999	C11H14NO2+
204.102	1	C12H14NO2+
205.1098	4	C12H15NO2+
221.0963	1	C16H13O+
237.0908	1	C16H13O2+
249.0909	1	C17H13O2+
250.0993	2	C17H14O2+
263.1076	1	C18H15O2+
264.1152	1	C18H16O2+
265.1216	3	C18H17O2+
275.1314	1	C19H17NO+
278.1166	1	C18H16NO2+
280.1336	2	C18H18NO2+
281.117	4	C18H17O3+
293.117	4	C19H17O3+
294.1487	2	C19H20NO2+
296.1293	2	C18H18NO3+
297.1111	1	C18H17O4+
298.1439	3	C18H20NO3+
306.1116	1	C19H16NO3+
308.1279	3	C19H18NO3+
309.112	1	C19H17O4+
310.1446	2	C19H20NO3+
312.1593	3	C19H22NO3+
322.1435	6	C20H20NO3+
324.1233	1	C19H18NO4+
324.1607	1	C20H22NO3+
325.1313	1	C19H19NO4+
326.1384	3	C19H20NO4+
340.1541	14	C20H22NO4+
