Mass spectrum: Pterosin B; LC-ESI-ITFT; MS2; CE: 75%; R=15000; [M+H]+
Name: Pterosin B
Name: (2R)-6-(2-hydroxyethyl)-2,5,7-trimethyl-2,3-dihydroinden-1-one
Formula: C14H18O2
Exact mass: 218.1307
SMILES: C[C@@H]1CC2=C(C1=O)C(=C(C(=C2)C)CCO)C
InChI: InChI=1S/C14H18O2/c1-8-6-11-7-9(2)14(16)13(11)10(3)12(8)4-5-15/h6,9,15H,4-5,7H2,1-3H3/t9-/m1/s1
Instrument: LTQ Orbitrap XL Thermo Scientific
Instrument type: LC-ESI-ITFT
Ms type: MS2
Ion mode: POSITIVE
Ionization: ESI
Fragmentation mode: HCD
Collision energy: 75 % (nominal)
Resolution: 15000
Column name: Kinetex Evo C18 2.6 um 50 x 2.1 mm
Retention time: 10.560 min
Base peak: 149.0117
Precursor m/z: 219.138
Precursor type: [M+H]+
m/z	relative intensity	assigned
119.0854	204	C9H11+
129.0698	348	C10H9+
130.0776	249	C10H10+
131.0855	282	C10H11+
142.078	155	C11H10+
143.0852	531	C11H11+
144.0932	261	C11H12+
145.1009	999	C11H13+
159.0801	177	C11H11O+
168.0931	590	C13H12+
171.0805	198	C12H11O+
173.096	468	C12H13O+
173.132	297	C13H17+
183.1163	167	C14H15+
186.1036	735	C13H14O+
201.1272	385	C14H17O+
