Mass spectrum: (+)-Isocorydin; LC-ESI-ITFT; MS2; CE: 55%; R=15000; [M+H]+
Name: (+)-Isocorydin
Name: Isocorydine
Name: (6aS)-1,2,10-trimethoxy-6-methyl-5,6,6a,7-tetrahydro-4H-dibenzo[de,g]quinolin-11-ol
Formula: C20H23NO4
Exact mass: 341.1627
SMILES: CN1CCC2=CC(=C(C3=C2[C@@H]1CC4=C3C(=C(C=C4)OC)O)OC)OC
InChI: InChI=1S/C20H23NO4/c1-21-8-7-12-10-15(24-3)20(25-4)18-16(12)13(21)9-11-5-6-14(23-2)19(22)17(11)18/h5-6,10,13,22H,7-9H2,1-4H3/t13-/m0/s1
Instrument: LTQ Orbitrap XL Thermo Scientific
Instrument type: LC-ESI-ITFT
Ms type: MS2
Ion mode: POSITIVE
Ionization: ESI
Fragmentation mode: HCD
Collision energy: 55% (nominal)
Resolution: 15000
Column name: Kinetex Evo C18 2.6 um 50 x 2.1 mm
Retention time: 6.305 min
Base peak: 342.1697
Precursor m/z: 342.17
Precursor type: [M+H]+
m/z	relative intensity	assigned
191.0855	178	C15H11+
192.0933	20	C15H12+
193.1009	24	C15H13+
194.0727	28	C14H10O+
203.0855	22	C16H11+
205.0647	17	C15H9O+
205.1008	9	C16H13+
206.0726	16	C15H10O+
207.0805	27	C15H11O+
208.0882	95	C15H12O+
209.0961	19	C15H13O+
218.0726	33	C16H10O+
219.0803	234	C16H11O+
220.0883	82	C16H12O+
221.0596	20	C15H9O2+
221.0961	84	C16H13O+
223.1117	88	C16H15O+
224.0831	39	C15H12O2+
231.0802	43	C17H11O+
233.0961	66	C17H13O+
234.0674	19	C16H10O2+
235.0752	132	C16H11O2+
236.0831	922	C16H12O2+
237.0913	68	C16H13O2+
238.0626	27	C15H10O3+
239.106	16	C16H15O2+
246.0676	25	C17H10O2+
247.0753	309	C17H11O2+
248.0831	822	C17H12O2+
249.0544	27	C16H9O3+
249.0912	64	C17H13O2+
250.0986	78	C17H14O2+
251.1065	430	C17H15O2+
252.0775	32	C16H12O3+
253.0858	123	C16H13O3+
261.0911	33	C18H13O2+
262.0988	54	C18H14O2+
263.0701	94	C17H11O3+
264.078	999	C17H12O3+
265.0858	876	C17H13O3+
266.0562	9	C16H10O4+
267.1014	84	C17H15O3+
268.1091	25	C17H16O3+
277.086	18	C18H13O3+
278.0936	38	C18H14O3+
279.1014	804	C18H15O3+
280.1094	387	C18H16O3+
281.0806	649	C17H13O4+
284.1038	5	C17H16O4+
295.0961	5	C18H15O4+
296.1041	437	C18H16O4+
298.1211	5	C18H18O4+
311.1277	146	C19H19O4+
