Mass spectrum: Pterosin A; LC-ESI-ITFT; MS2; CE: 20%; R=15000; [M+H]+
Name: Pterosin A
Name: (2S)-6-(2-hydroxyethyl)-2-(hydroxymethyl)-2,5,7-trimethyl-3H-inden-1-one
Formula: C15H20O3
Exact mass: 248.1412
SMILES: CC1=CC2=C(C(=C1CCO)C)C(=O)[C@](C2)(C)CO
InChI: InChI=1S/C15H20O3/c1-9-6-11-7-15(3,8-17)14(18)13(11)10(2)12(9)4-5-16/h6,16-17H,4-5,7-8H2,1-3H3/t15-/m0/s1
Instrument: LTQ Orbitrap XL Thermo Scientific
Instrument type: LC-ESI-ITFT
Ms type: MS2
Ion mode: POSITIVE
Ionization: ESI
Fragmentation mode: CID
Collision energy: 20 % (nominal)
Resolution: 15000
Column name: Kinetex Evo C18 2.6 um 50x2.1 mm, Phenomenex
Retention time: 9.286 min
Base peak: 249.1481
Precursor m/z: 249.1485
Precursor type: [M+H]+
m/z	relative intensity	assigned
185.1325	16	C14H17+
201.1275	53	C14H17O+
203.1431	591	C14H19O+
213.1274	35	C15H17O+
231.1381	939	C15H19O2+
249.1486	999	C15H21O3+
