Mass spectrum: Jervine; LC-ESI-ITFT; MS2; CE: 55%; R=15000; [M+H]+
Name: Jervine
Name: (3S,3`R,3`aS,6`S,6aS,6bS,7`aR,9R,11aS,11bR)-3-hydroxy-3`,6`,10,11b-tetramethylspiro[1,2,3,4,6,6a,6b,7,8,11a-decahydrobenzo[a]fluorene-9,2`-3a,4,5,6,7,7a-hexahydro-3H-furo[3,2-b]pyridine]-11-one
Formula: C27H39NO3
Exact mass: 425.2930
SMILES: C[C@H]1C[C@@H]2[C@H]([C@H]([C@]3(O2)CC[C@H]4[C@@H]5CC=C6C[C@H](CC[C@@]6([C@H]5C(=O)C4=C3C)C)O)C)NC1
InChI: InChI=1S/C27H39NO3/c1-14-11-21-24(28-13-14)16(3)27(31-21)10-8-19-20-6-5-17-12-18(29)7-9-26(17,4)23(20)25(30)22(19)15(27)2/h5,14,16,18-21,23-24,28-29H,6-13H2,1-4H3/t14-,16+,18-,19-,20-,21+,23+,24-,26-,27-/m0/s1
Instrument: LTQ Orbitrap XL Thermo Scientific
Instrument type: LC-ESI-ITFT
Ms type: MS2
Ion mode: POSITIVE
Ionization: ESI
Fragmentation mode: HCD
Collision energy: 55% (nominal)
Resolution: 15000
Column name: Kinetex Evo C18 2.6 um 50 x 2.1 mm
Retention time: 8.928 min
Base peak: 426.3
Precursor m/z: 426.3003
Precursor type: [M+H]+
m/z	relative intensity	assigned
55.0541	11	C4H7+
57.0699	8	C4H9+
67.0542	223	C5H7+
69.0699	11	C5H9+
70.0651	50	C4H8N+
79.0544	23	C6H7+
81.0699	192	C6H9+
82.0653	9	C5H8N+
83.0491	56	C5H7O+
84.0808	357	C5H10N+
85.0648	165	C5H9O+
91.0542	27	C7H7+
93.0699	69	C7H9+
95.0855	69	C7H11+
96.0808	70	C6H10N+
97.0648	11	C6H9O+
98.0965	57	C6H12N+
99.0802	9	C6H11O+
100.0757	29	C5H10NO+
101.0596	13	C5H9O2+
102.0914	91	C5H12NO+
105.0699	86	C8H9+
107.0856	124	C8H11+
109.1012	881	C8H13+
110.0963	10	C7H12N+
111.0805	12	C7H11O+
112.0757	102	C6H10NO+
113.0831	8	C6H11NO+
114.0913	999	C6H12NO+
117.0699	15	C9H9+
119.0856	94	C9H11+
121.1012	212	C9H13+
123.0801	12	C8H11O+
123.1167	9	C9H15+
124.112	22	C8H14N+
125.0963	23	C8H13O+
126.1277	108	C8H16N+
129.0702	11	C10H9+
131.0856	59	C10H11+
133.1012	108	C10H13+
135.0802	17	C9H11O+
135.117	28	C10H15+
137.0958	9	C9H13O+
140.107	27	C8H14NO+
143.0855	45	C11H11+
145.1012	275	C11H13+
147.0805	29	C10H11O+
147.1169	87	C11H15+
149.0961	235	C10H13O+
151.1116	24	C10H15O+
155.0856	22	C12H11+
157.1012	108	C12H13+
159.0808	18	C11H11O+
159.1169	65	C12H15+
161.0962	20	C11H13O+
161.1326	13	C12H17+
163.1119	22	C11H15O+
169.1011	25	C13H13+
171.1168	66	C13H15+
173.0961	64	C12H13O+
173.1324	43	C13H17+
175.1118	126	C12H15O+
181.1014	14	C14H13+
183.1168	43	C14H15+
185.1325	31	C14H17+
187.1117	35	C13H15O+
187.1486	7	C14H19+
189.1274	24	C13H17O+
193.1021	11	C15H13+
195.1169	36	C15H15+
197.1324	26	C15H17+
198.1045	8	C14H14O+
199.1119	17	C14H15O+
199.1483	51	C15H19+
201.1274	12	C14H17O+
207.1168	17	C16H15+
209.1325	34	C16H17+
211.1122	25	C15H15O+
211.1483	41	C16H19+
213.1274	20	C15H17O+
213.1638	38	C16H21+
215.1426	7	C15H19O+
221.1326	16	C17H17+
223.1481	17	C17H19+
225.1637	18	C17H21+
227.1434	13	C16H19O+
229.1579	7	C16H21O+
233.1323	12	C18H17+
235.1486	12	C18H19+
237.1638	21	C18H21+
239.1786	11	C18H23+
247.1477	9	C19H19+
249.1641	14	C19H21+
253.1588	18	C18H21O+
255.1742	8	C18H23O+
265.1943	16	C20H25+
275.1799	25	C21H23+
277.1953	44	C21H25+
289.1958	9	C22H25+
293.1898	22	C21H25O+
295.2056	68	C21H27O+
311.2001	26	C21H27O2+
313.2163	155	C21H29O2+
335.2018	9	C23H27O2+
349.2157	12	C24H29O2+
379.2624	16	C26H35O2+
391.2638	14	C27H35O2+
408.2896	37	C27H38NO2+
426.3003	250	C27H40NO3+
