Mass spectrum: Isophorone; LC-ESI-ITFT; MS2; CE: 100%; R=15000; [M+H]+
Name: Isophorone
Name: 3,5,5-trimethylcyclohex-2-en-1-one
Formula: C9H14O
Exact mass: 138.1045
SMILES: CC1=CC(=O)CC(C)(C)C1
InChI: InChI=1S/C9H14O/c1-7-4-8(10)6-9(2,3)5-7/h4H,5-6H2,1-3H3
Instrument: LTQ Orbitrap XL Thermo Scientific
Instrument type: LC-ESI-ITFT
Ms type: MS2
Ionization: ESI
Ion mode: POSITIVE
Fragmentation mode: HCD
Collision energy: 100 % (nominal)
Resolution: 15000
Column name: Kinetex Evo C18 2.6 um 50 x 2.1 mm
Retention time: 8.577 min
Base peak: 139.1118
Precursor m/z: 139.1117
Precursor type: [M+H]+
m/z	relative intensity	assigned
67.0539	40	C5H7+
69.0332	999	C4H5O+
77.0384	93	C6H5+
78.0461	2	C6H6+
79.054	140	C6H7+
80.0618	4	C6H8+
81.0697	34	C6H9+
83.049	102	C5H7O+
91.0541	101	C7H7+
93.0698	114	C7H9+
95.0491	53	C6H7O+
95.0854	30	C7H11+
96.0569	26	C6H8O+
97.0647	177	C6H9O+
103.0542	26	C8H7+
105.0446	40	C6H5N2+
105.0697	110	C8H9+
106.0775	20	C8H10+
107.06	2	C6H7N2+
109.0647	15	C7H9O+
109.101	3	C8H13+
110.0725	8	C7H10O+
111.0805	4	C7H11O+
119.0852	16	C9H11+
121.101	43	C9H13+
133.0758	4	C8H9N2+
139.1114	42	C9H15O+
