Mass spectrum: Senecionine; LC-ESI-ITFT; MS2; CE: 50%; R=15000; [M+H]+
Name: Senecionine
Name: (1R,4Z,6R,7R,17R)-4-ethylidene-7-hydroxy-6,7-dimethyl-2,9-dioxa-14-azatricyclo[9.5.1.014,17]heptadec-11-ene-3,8-dione
Formula: C18H25NO5
Exact mass: 335.1733
SMILES: C/C=C\1/C[C@H]([C@@](C(=O)OCC2=CCN3[C@H]2[C@@H](CC3)OC1=O)(C)O)C
InChI: InChI=1S/C18H25NO5/c1-4-12-9-11(2)18(3,22)17(21)23-10-13-5-7-19-8-6-14(15(13)19)24-16(12)20/h4-5,11,14-15,22H,6-10H2,1-3H3/b12-4-/t11-,14-,15-,18-/m1/s1
Instrument: LTQ Orbitrap XL Thermo Scientific
Instrument type: LC-ESI-ITFT
Ms type: MS2
Ion mode: POSITIVE
Ionization: ESI
Fragmentation mode: HCD
Collision energy: 50% (nominal)
Resolution: 15000
Column name: Kinetex Evo C18 2.6 um 50 x 2.1 mm
Retention time: 4.142 min
Base peak: 336.1804
Precursor m/z: 336.1805
Precursor type: [M+H]+
m/z	relative intensity	assigned
67.0541	12	C5H7+
79.0542	11	C6H7+
80.0495	12	C5H6N+
81.0698	14	C6H9+
82.0653	13	C5H8N+
91.0542	16	C7H7+
93.0698	43	C7H9+
94.0651	154	C6H8N+
96.0808	40	C6H10N+
103.0542	16	C8H7+
105.0699	6	C8H9+
107.0854	18	C8H11+
108.0807	25	C7H10N+
110.0599	8	C6H8NO+
110.0963	17	C7H12N+
118.0652	14	C8H8N+
120.0808	392	C8H10N+
121.0886	8	C8H11N+
122.0964	57	C8H12N+
125.096	34	C8H13O+
135.0805	8	C9H11O+
138.0913	352	C8H12NO+
140.107	10	C8H14NO+
153.091	66	C9H13O2+
220.1328	18	C13H18NO2+
290.1753	15	C17H24NO3+
292.1914	6	C17H26NO3+
308.1857	195	C17H26NO4+
336.1806	999	C18H26NO5+
