Mass spectrum: Cytisin; LC-ESI-ITFT; MS2; CE: 100%; R=15000; [M+H]+
Name: Cytisin
Name: Cytisine
Name: (1R,9S)-7,11-diazatricyclo[7.3.1.02,7]trideca-2,4-dien-6-one
Formula: C11H14N2O
Exact mass: 190.1106
SMILES: C1[C@H]2CNC[C@@H]1C3=CC=CC(=O)N3C2
InChI: InChI=1S/C11H14N2O/c14-11-3-1-2-10-9-4-8(5-12-6-9)7-13(10)11/h1-3,8-9,12H,4-7H2/t8-,9+/m0/s1
Instrument: LTQ Orbitrap XL Thermo Scientific
Instrument type: LC-ESI-ITFT
Ms type: MS2
Ion mode: POSITIVE
Ionization: ESI
Fragmentation mode: HCD
Collision energy: 100% (nominal)
Resolution: 15000
Column name: Kinetex Evo C18 2.6 um 50 x 2.1 mm
Retention time: 0.465 min
Base peak: 226.9513
Precursor m/z: 191.1179
Precursor type: [M+H]+
m/z	relative intensity	assigned
79.0544	22	C6H7+
80.0495	40	C5H6N+
82.0652	49	C5H8N+
91.0541	29	C7H7+
103.054	20	C8H7+
104.0496	28	C7H6N+
106.0652	49	C7H8N+
109.0524	24	C6H7NO+
117.0698	39	C9H9+
120.0807	87	C8H10N+
122.06	23	C7H8NO+
130.065	36	C9H8N+
133.0523	168	C8H7NO+
134.0602	162	C8H8NO+
134.0962	20	C9H12N+
146.0599	83	C9H8NO+
147.0682	66	C9H9NO+
148.0757	999	C9H10NO+
162.0913	110	C10H12NO+
191.1178	105	C11H15N2O+
