Mass spectrum: 7-Acetyllycopsamine; LC-ESI-ITFT; MS2; CE: 60%; R=15000; [M+H]+
Name: 7-Acetyllycopsamine
Name: Acetyllycopsamine
Name: [(7R,8R)-7-acetyloxy-5,6,7,8-tetrahydro-3H-pyrrolizin-1-yl]methyl (2S)-2-hydroxy-2-[(1S)-1-hydroxyethyl]-3-methylbutanoate
Formula: C17H27NO6
Exact mass: 341.1838
SMILES: C[C@@H]([C@@](C(C)C)(C(=O)OCC1=CCN2[C@H]1[C@@H](CC2)OC(=O)C)O)O
InChI: InChI=1S/C17H27NO6/c1-10(2)17(22,11(3)19)16(21)23-9-13-5-7-18-8-6-14(15(13)18)24-12(4)20/h5,10-11,14-15,19,22H,6-9H2,1-4H3/t11-,14+,15+,17-/m0/s1
Instrument: LTQ Orbitrap XL Thermo Scientific
Instrument type: LC-ESI-ITFT
Ms type: MS2
Ion mode: POSITIVE
Ionization: ESI
Fragmentation mode: HCD
Collision energy: 60% (nominal)
Resolution: 15000
Column name: Kinetex Evo C18 2.6 um 50 x 2.1 mm
Retention time: 2.568 min
Base peak: 143.0015
Precursor m/z: 342.1911
Precursor type: [M+H]+
m/z	relative intensity	assigned
67.0416	2	C4H5N+
73.0648	6	C4H9O+
79.0542	6	C6H7+
80.0494	7	C5H6N+
82.0653	4	C5H8N+
86.0601	2	C4H8NO+
91.0543	10	C7H7+
92.0497	4	C6H6N+
93.0699	23	C7H9+
94.0651	62	C6H8N+
95.073	10	C6H9N+
103.0542	14	C8H7+
105.0572	7	C7H7N+
106.0651	3	C7H8N+
108.0808	21	C7H10N+
112.0759	4	C6H10NO+
118.0652	13	C8H8N+
119.073	14	C8H9N+
120.0808	999	C8H10N+
121.0886	60	C8H11N+
124.0761	3	C7H10NO+
128.0706	6	C6H10NO2+
136.0759	11	C8H10NO+
138.0914	62	C8H12NO+
162.0913	13	C10H12NO+
180.1021	18	C10H14NO2+
181.11	14	C10H15NO2+
198.1125	153	C10H16NO3+
