Mass spectrum: Isophorone; LC-ESI-ITFT; MS2; CE: 75%; R=15000; [M+H]+
Name: Isophorone
Name: 3,5,5-trimethylcyclohex-2-en-1-one
Formula: C9H14O
Exact mass: 138.1045
SMILES: CC1=CC(=O)CC(C)(C)C1
InChI: InChI=1S/C9H14O/c1-7-4-8(10)6-9(2,3)5-7/h4H,5-6H2,1-3H3
Instrument: LTQ Orbitrap XL Thermo Scientific
Instrument type: LC-ESI-ITFT
Ms type: MS2
Ion mode: POSITIVE
Ionization: ESI
Fragmentation mode: HCD
Collision energy: 75% (nominal)
Resolution: 15000
Column name: Kinetex Evo C18 2.6 um 50 x 2.1 mm
Retention time: 8.687 min
Base peak: 116.9858
Precursor m/z: 139.1117
Precursor type: [M+H]+
m/z	relative intensity	assigned
55.0541	13	C4H7+
69.0334	999	C4H5O+
77.0386	17	C6H5+
79.0542	62	C6H7+
81.07	18	C6H9+
83.0491	135	C5H7O+
91.0541	27	C7H7+
93.0699	176	C7H9+
95.0856	71	C7H11+
96.0568	12	C6H8O+
97.0647	297	C6H9O+
105.0699	94	C8H9+
111.0804	17	C7H11O+
121.1012	178	C9H13+
139.1117	485	C9H15O+
