Mass spectrum: Colchicine; LC-ESI-ITFT; MS2; CE: 35%; R=15000; [M+H]+
Name: Colchicine
Name: N-[(7S)-1,2,3,10-tetramethoxy-9-oxo-6,7-dihydro-5H-benzo[a]heptalen-7-yl]acetamide
Formula: C22H25NO6
Exact mass: 399.1682
SMILES: CC(=O)N[C@H]1CCC2=CC(=C(C(=C2C3=CC=C(C(=O)C=C13)OC)OC)OC)OC
InChI: InChI=1S/C22H25NO6/c1-12(24)23-16-8-6-13-10-19(27-3)21(28-4)22(29-5)20(13)14-7-9-18(26-2)17(25)11-15(14)16/h7,9-11,16H,6,8H2,1-5H3,(H,23,24)/t16-/m0/s1
Instrument: LTQ Orbitrap XL Thermo Scientific
Instrument type: LC-ESI-ITFT
Ms type: MS2
Ion mode: POSITIVE
Ionization: ESI
Fragmentation mode: HCD
Collision energy: 35% (nominal)
Resolution: 15000
Column name: Kinetex Evo C18 2.6 um 50 x 2.1 mm
Retention time: 9.282 min
Base peak: 116.9858
Precursor m/z: 400.1755
Precursor type: [M+H]+
m/z	relative intensity	assigned
137.0597	6	C8H9O2+
181.0866	19	C10H13O3+
207.1009	6	C12H15O3+
234.1127	45	C13H16NO3+
239.1075	7	C16H15O2+
267.1012	17	C17H15O3+
268.1097	9	C17H16O3+
277.0854	14	C18H13O3+
278.0934	33	C18H14O3+
281.1171	44	C18H17O3+
282.125	188	C18H18O3+
283.0972	10	C17H15O4+
284.1038	10	C17H16O4+
285.1122	70	C17H17O4+
294.0889	13	C18H14O4+
295.096	16	C18H15O4+
295.1208	36	C18H17NO3+
298.12	57	C18H18O4+
298.1437	41	C18H20NO3+
302.1157	13	C17H18O5+
308.1285	12	C19H18NO3+
309.1124	99	C19H17O4+
309.1348	6	C19H19NO3+
310.1199	272	C19H18O4+
311.092	23	C18H15O5+
313.1074	44	C18H17O5+
313.1435	116	C19H21O4+
316.1546	39	C18H22NO4+
323.1513	7	C20H21NO3+
324.1223	8	C19H18NO4+
325.1317	17	C19H19NO4+
326.1149	106	C19H18O5+
326.1388	219	C19H20NO4+
327.1454	11	C19H21NO4+
329.1261	11	C18H19NO5+
330.1329	19	C18H20NO5+
330.1702	10	C19H24NO4+
339.1466	22	C20H21NO4+
340.1543	84	C20H22NO4+
341.1384	301	C20H21O5+
342.1337	12	C19H20NO5+
343.1408	24	C19H21NO5+
350.1374	8	C21H20NO4+
352.1192	9	C20H18NO5+
354.1696	16	C21H24NO4+
357.1575	9	C20H23NO5+
358.1649	573	C20H24NO5+
367.1409	29	C21H21NO5+
368.1492	31	C21H22NO5+
382.1649	129	C22H24NO5+
400.1756	999	C22H26NO6+
