Mass spectrum: Jacobine; LC-ESI-ITFT; MS2; CE: 90%; R=15000; [M+H]+
Name: Jacobine
Name: (1R,3`S,4S,6R,7R,17R)-7-hydroxy-3`,6,7-trimethylspiro[2,9-dioxa-14-azatricyclo[9.5.1.014,17]heptadec-11-ene-4,2`-oxirane]-3,8-dione
Formula: C18H25NO6
Exact mass: 351.1682
SMILES: C[C@@H]1C[C@]2([C@@H](O2)C)C(=O)O[C@@H]3CCN4[C@@H]3C(=CC4)COC(=O)[C@]1(C)O
InChI: InChI=1S/C18H25NO6/c1-10-8-18(11(2)25-18)16(21)24-13-5-7-19-6-4-12(14(13)19)9-23-15(20)17(10,3)22/h4,10-11,13-14,22H,5-9H2,1-3H3/t10-,11+,13-,14-,17-,18+/m1/s1
Instrument: LTQ Orbitrap XL Thermo Scientific
Instrument type: LC-ESI-ITFT
Ms type: MS2
Ion mode: POSITIVE
Ionization: ESI
Fragmentation mode: HCD
Collision energy: 90% (nominal)
Resolution: 15000
Column name: Kinetex Evo C18 2.6 um 50 x 2.1 mm
Retention time: 1.041 min
Base peak: 143.0015
Precursor m/z: 352.1755
Precursor type: [M+H]+
m/z	relative intensity	assigned
67.0542	279	C5H7+
68.0495	76	C4H6N+
69.0335	121	C4H5O+
69.07	64	C5H9+
70.0651	452	C4H8N+
71.0492	59	C4H7O+
77.0386	313	C6H5+
79.0543	499	C6H7+
80.0495	511	C5H6N+
81.0575	84	C5H7N+
81.07	119	C6H9+
82.0652	185	C5H8N+
85.065	35	C5H9O+
91.0542	543	C7H7+
92.0495	46	C6H6N+
93.0575	64	C6H7N+
93.0699	322	C7H9+
94.0652	614	C6H8N+
95.0491	154	C6H7O+
95.0729	87	C6H9N+
95.0856	77	C7H11+
96.081	77	C6H10N+
97.0647	40	C6H9O+
103.0543	174	C8H7+
105.0572	44	C7H7N+
105.0699	184	C8H9+
106.0652	205	C7H8N+
107.0729	232	C7H9N+
108.0809	233	C7H10N+
109.0647	81	C7H9O+
109.0885	34	C7H11N+
110.06	28	C6H8NO+
110.0965	120	C7H12N+
111.0806	39	C7H11O+
113.0597	162	C6H9O2+
118.0652	127	C8H8N+
119.0731	42	C8H9N+
119.0855	40	C9H11+
120.0808	999	C8H10N+
121.0889	76	C8H11N+
122.0964	339	C8H12N+
123.104	63	C8H13N+
132.0809	51	C9H10N+
134.0963	93	C9H12N+
137.0959	64	C9H13O+
138.0912	67	C8H12NO+
140.1071	191	C8H14NO+
144.0807	51	C10H10N+
146.0966	32	C10H12N+
155.1066	76	C9H15O2+
162.0919	33	C10H12NO+
