Mass spectrum: alpha-Cyperone; LC-ESI-ITFT; MS2; CE: 100%; R=15000; [M+H]+
Name: alpha-Cyperone
Formula: C15H22O
Exact mass: 218.1671
SMILES: CC1=C2CC(CCC2(CCC1=O)C)C(=C)C
InChI: InChI=1S/C15H22O/c1-10(2)12-5-7-15(4)8-6-14(16)11(3)13(15)9-12/h12H,1,5-9H2,2-4H3
Instrument: LTQ Orbitrap XL Thermo Scientific
Instrument type: LC-ESI-ITFT
Ms type: MS2
Ion mode: POSITIVE
Ionization: ESI
Fragmentation mode: HCD
Collision energy: 100 % (nominal)
Resolution: 15000
Column name: Kinetex Evo C18 2.6 um 50 x 2.1 mm
Retention time: 13.126 min
Base peak: 219.174
Precursor m/z: 219.1743
Precursor type: [M+H]+
m/z	relative intensity	assigned
55.0541	29	C4H7+
65.0385	15	C5H5+
67.0542	291	C5H7+
69.0334	18	C4H5O+
69.0699	36	C5H9+
71.0492	7	C4H7O+
77.0386	148	C6H5+
79.0542	264	C6H7+
80.062	10	C6H8+
81.0698	328	C6H9+
83.049	19	C5H7O+
83.0855	37	C6H11+
91.0542	375	C7H7+
93.0698	356	C7H9+
94.0778	7	C7H10+
95.0491	40	C6H7O+
95.0855	196	C7H11+
97.0647	203	C6H9O+
103.0541	20	C8H7+
105.0698	237	C8H9+
107.0493	19	C7H7O+
107.0855	106	C8H11+
108.0572	14	C7H8O+
109.0648	51	C7H9O+
109.1011	62	C8H13+
110.0729	10	C7H10O+
111.0804	999	C7H11O+
115.0542	26	C9H7+
116.0621	12	C9H8+
117.0698	64	C9H9+
119.0855	136	C9H11+
121.0647	78	C8H9O+
121.1012	23	C9H13+
122.0725	14	C8H10O+
123.0804	350	C8H11O+
128.062	18	C10H8+
129.0698	41	C10H9+
130.0776	32	C10H10+
131.0855	40	C10H11+
133.0649	16	C9H9O+
133.1011	30	C10H13+
135.0804	99	C9H11O+
137.096	132	C9H13O+
143.0855	43	C11H11+
144.0935	10	C11H12+
145.101	42	C11H13+
147.0805	26	C10H11O+
149.096	20	C10H13O+
157.1007	13	C12H13+
161.0961	70	C11H13O+
163.1118	19	C11H15O+
189.1274	38	C13H17O+
