Mass spectrum: Matrine; LC-ESI-ITFT; MS2; CE: 95%; R=15000; [M+H]+
Name: Matrine
Name: (1R,2R,9S,17S)-7,13-diazatetracyclo[7.7.1.02,7.013,17]heptadecan-6-one
Formula: C15H24N2O
Exact mass: 248.1889
SMILES: C1C[C@@H]2[C@H]3CCCN4[C@H]3[C@@H](CCC4)CN2C(=O)C1
InChI: InChI=1S/C15H24N2O/c18-14-7-1-6-13-12-5-3-9-16-8-2-4-11(15(12)16)10-17(13)14/h11-13,15H,1-10H2/t11-,12+,13+,15-/m0/s1
Instrument: LTQ Orbitrap XL Thermo Scientific
Instrument type: LC-ESI-ITFT
Ms type: MS2
Ion mode: POSITIVE
Ionization: ESI
Fragmentation mode: HCD
Collision energy: 95% (nominal)
Resolution: 15000
Column name: Kinetex Evo C18 2.6 um 50 x 2.1 mm
Retention time: 0.702 min
Base peak: 249.1959
Precursor m/z: 249.1961
Precursor type: [M+H]+
m/z	relative intensity	assigned
55.0542	16	C4H7+
67.0542	41	C5H7+
69.0698	25	C5H9+
70.0651	103	C4H8N+
79.0543	75	C6H7+
80.0496	18	C5H6N+
81.0699	69	C6H9+
82.0653	41	C5H8N+
84.0808	174	C5H10N+
91.0542	69	C7H7+
93.0698	88	C7H9+
94.0653	35	C6H8N+
95.0856	55	C7H11+
96.0808	315	C6H10N+
98.06	288	C5H8NO+
98.0964	161	C6H12N+
105.0699	41	C8H9+
106.0652	33	C7H8N+
107.0856	46	C8H11+
108.0808	82	C7H10N+
109.1011	30	C8H13+
110.06	24	C6H8NO+
110.0964	426	C7H12N+
112.0757	222	C6H10NO+
119.0857	39	C9H11+
120.0808	160	C8H10N+
121.1013	16	C9H13+
122.0964	200	C8H12N+
123.1048	20	C8H13N+
124.112	82	C8H14N+
131.0859	27	C10H11+
133.1016	24	C10H13+
134.0964	163	C9H12N+
135.1049	24	C9H13N+
136.1121	209	C9H14N+
138.0914	55	C8H12NO+
138.1278	62	C9H16N+
145.1015	30	C11H13+
146.0964	18	C10H12N+
148.0757	74	C9H10NO+
148.1121	909	C10H14N+
149.12	33	C10H15N+
150.0915	52	C9H12NO+
150.1277	498	C10H16N+
152.1434	139	C10H18N+
160.1127	29	C11H14N+
162.0914	91	C10H12NO+
162.1278	119	C11H16N+
164.1072	48	C10H14NO+
164.1438	15	C11H18N+
166.1232	27	C10H16NO+
174.1284	47	C12H16N+
176.107	358	C11H14NO+
176.1433	113	C12H18N+
178.1222	33	C11H16NO+
178.1592	29	C12H20N+
188.1431	47	C13H18N+
190.1226	98	C12H16NO+
190.1593	50	C13H20N+
192.1385	18	C12H18NO+
202.1587	16	C14H20N+
204.1381	47	C13H18NO+
204.1745	27	C14H22N+
218.1543	47	C14H20NO+
220.1695	46	C14H22NO+
232.1695	42	C15H22NO+
247.1804	246	C15H23N2O+
249.196	999	C15H25N2O+
