Mass spectrum: Bergapten/Heraclin; LC-ESI-ITFT; MS2; CE: 40%; R=15000; [M+H]+
Name: Bergapten/Heraclin
Formula: C12H8O4
Exact mass: 216.0423
SMILES: COC1=C2C=COC2=CC2=C1C=CC(=O)O2
InChI: InChI=1S/C12H8O4/c1-14-12-7-2-3-11(13)16-10(7)6-9-8(12)4-5-15-9/h2-6H,1H3
Instrument: LTQ Orbitrap XL Thermo Scientific
Instrument type: LC-ESI-ITFT
Ms type: MS2
Ion mode: POSITIVE
Ionization: ESI
Fragmentation mode: HCD
Collision energy: 40 % (nominal)
Resolution: 15000
Column name: Kinetex Evo C18 2.6 um 50 x 2.1 mm
Retention time: 9.958 min
Base peak: 217.0492
Precursor m/z: 217.0495
Precursor type: [M+H]+
m/z	relative intensity	assigned
115.0541	14	C9H7+
117.0698	13	C9H9+
161.0598	27	C10H9O2+
173.0597	71	C11H9O2+
174.0309	11	C10H6O3+
189.0538	11	C11H9O3+
202.0259	788	C11H6O4+
217.0493	999	C12H9O4+
