Mass spectrum: Seneciphylline N-oxide; LC-ESI-ITFT; MS2; CE: 100%; R=15000; [M+H]+
Name: Seneciphylline N-oxide
Name: (1R,4E,7R,17R)-4-ethylidene-7-hydroxy-7-methyl-6-methylidene-14-oxido-2,9-dioxa-14-azoniatricyclo[9.5.1.014,17]heptadec-11-ene-3,8-dione
Formula: C18H23NO6
Exact mass: 349.1525
SMILES: C/C=C/1\CC(=C)[C@@](C(=O)OCC2=CC[N+]3([C@H]2[C@@H](CC3)OC1=O)[O-])(C)O
InChI: InChI=1S/C18H23NO6/c1-4-12-9-11(2)18(3,22)17(21)24-10-13-5-7-19(23)8-6-14(15(13)19)25-16(12)20/h4-5,14-15,22H,2,6-10H2,1,3H3/b12-4+/t14-,15-,18-,19?/m1/s1
Instrument: LTQ Orbitrap XL Thermo Scientific
Instrument type: LC-ESI-ITFT
Ms type: MS2
Ion mode: POSITIVE
Ionization: ESI
Fragmentation mode: HCD
Collision energy: 100% (nominal)
Resolution: 15000
Column name: Kinetex Evo C18 2.6 um 50 x 2.1 mm
Retention time: 2.982 min
Base peak: 350.1597
Precursor m/z: 350.1598
Precursor type: [M+H]+
m/z	relative intensity	assigned
65.0386	14	C5H5+
66.0463	21	C5H6+
67.0416	28	C4H5N+
67.0542	66	C5H7+
68.0495	11	C4H6N+
77.0386	30	C6H5+
79.0543	93	C6H7+
80.0495	289	C5H6N+
81.0573	21	C5H7N+
81.0699	45	C6H9+
82.0652	24	C5H8N+
91.0543	116	C7H7+
92.0495	75	C6H6N+
93.0574	364	C6H7N+
94.0652	999	C6H8N+
95.0492	10	C6H7O+
95.0731	41	C6H9N+
95.0856	14	C7H11+
96.0443	13	C5H6NO+
96.0809	15	C6H10N+
98.0601	11	C5H8NO+
103.0545	19	C8H7+
105.07	40	C8H9+
106.0652	154	C7H8N+
107.0493	20	C7H7O+
107.0732	19	C7H9N+
108.0446	8	C6H6NO+
108.0808	148	C7H10N+
109.0648	36	C7H9O+
110.0601	28	C6H8NO+
117.0574	79	C8H7N+
118.0652	435	C8H8N+
119.0731	111	C8H9N+
120.0809	538	C8H10N+
122.0961	11	C8H12N+
123.0808	8	C8H11O+
132.0803	10	C9H10N+
136.0758	237	C8H10NO+
138.0916	21	C8H12NO+
144.0813	12	C10H10N+
