Mass spectrum: Daidzein; LC-ESI-ITFT; MS2; CE: 60%; R=15000; [M+H]+
Name: Daidzein
Name: 7-hydroxy-3-(4-hydroxyphenyl)chromen-4-one
Formula: C15H10O4
Exact mass: 254.0579
SMILES: c1cc(ccc1c2coc3cc(ccc3c2=O)O)O
InChI: InChI=1S/C15H10O4/c16-10-3-1-9(2-4-10)13-8-19-14-7-11(17)5-6-12(14)15(13)18/h1-8,16-17H
Instrument: LTQ Orbitrap XL Thermo Scientific
Instrument type: LC-ESI-ITFT
Ms type: MS2
Ion mode: POSITIVE
Ionization: ESI
Fragmentation mode: HCD
Collision energy: 60% (nominal)
Resolution: 15000
Column name: Kinetex Evo C18 2.6 um 50 x 2.1 mm
Retention time: 9.200 min
Base peak: 116.9858
Precursor m/z: 255.0652
Precursor type: [M+H]+
m/z	relative intensity	assigned
91.0542	62	C7H7+
119.0491	42	C8H7O+
121.0285	8	C7H5O2+
128.0619	10	C10H8+
129.0698	23	C10H9+
133.0283	29	C8H5O2+
137.0233	262	C7H5O3+
143.0855	17	C11H11+
145.0284	43	C9H5O2+
149.0233	20	C8H5O3+
153.0698	41	C12H9+
157.0648	42	C11H9O+
165.0694	7	C13H9+
171.0804	51	C12H11O+
181.0648	118	C13H9O+
184.0526	8	C12H8O2+
185.0602	10	C12H9O2+
197.0607	8	C13H9O2+
199.0753	554	C13H11O2+
209.0593	23	C14H9O2+
210.0671	9	C14H10O2+
211.0753	11	C14H11O2+
226.0616	7	C14H10O3+
227.0701	254	C14H11O3+
237.0544	103	C15H9O3+
255.0651	999	C15H11O4+
