Mass spectrum: Yohimbine; LC-ESI-ITFT; MS2; CE: 60%; R=15000; [M+H]+
Name: Yohimbine
Name: methyl (1S,15R,18S,19R,20S)-18-hydroxy-1,3,11,12,14,15,16,17,18,19,20,21-dodecahydroyohimban-19-carboxylate
Formula: C21H26N2O3
Exact mass: 354.1943
SMILES: COC(=O)[C@H]1[C@H](CC[C@@H]2[C@@H]1C[C@H]3c4c(c5ccccc5[nH]4)CCN3C2)O
InChI: InChI=1S/C21H26N2O3/c1-26-21(25)19-15-10-17-20-14(13-4-2-3-5-16(13)22-20)8-9-23(17)11-12(15)6-7-18(19)24/h2-5,12,15,17-19,22,24H,6-11H2,1H3/t12-,15-,17-,18-,19+/m0/s1
Instrument: LTQ Orbitrap XL Thermo Scientific
Instrument type: LC-ESI-ITFT
Ms type: MS2
Ion mode: POSITIVE
Ionization: ESI
Fragmentation mode: HCD
Collision energy: 60% (nominal)
Resolution: 15000
Column name: Kinetex Evo C18 2.6 um 50 x 2.1 mm
Retention time: 6.550 min
Base peak: 355.2014
Precursor m/z: 355.2016
Precursor type: [M+H]+
m/z	relative intensity	assigned
79.0543	2	C6H7+
91.0542	2	C7H7+
93.0696	2	C7H9+
94.0649	4	C6H8N+
105.0699	3	C8H9+
106.0651	7	C7H8N+
107.0857	2	C8H11+
117.0698	28	C9H9+
118.0652	2	C8H8N+
119.0853	1	C9H11+
120.0809	1	C8H10N+
130.0651	14	C9H8N+
131.0735	1	C9H9N+
132.0807	4	C9H10N+
134.0964	40	C9H12N+
135.0804	2	C9H11O+
136.1121	2	C9H14N+
138.0912	1	C8H12NO+
143.073	7	C10H9N+
144.0807	999	C10H10N+
145.0647	2	C10H9O+
146.096	2	C10H12N+
152.1071	2	C9H14NO+
155.0601	3	C10H7N2+
156.0809	2	C11H10N+
157.0887	2	C11H11N+
158.0964	12	C11H12N+
162.0913	26	C10H12NO+
168.0801	2	C12H10N+
170.0963	4	C12H12N+
180.0807	1	C13H10N+
180.1018	19	C10H14NO2+
182.0962	1	C13H12N+
192.1016	3	C11H14NO2+
194.1174	35	C11H16NO2+
196.1119	1	C14H14N+
206.0964	1	C15H12N+
206.1176	3	C12H16NO2+
208.1118	3	C15H14N+
209.1202	2	C15H15N+
212.128	115	C11H18NO3+
218.0957	1	C16H12N+
220.1119	3	C16H14N+
221.1204	1	C16H15N+
222.1287	1	C16H16N+
224.1279	21	C12H18NO3+
226.1428	1	C12H20NO3+
232.1119	1	C17H14N+
234.1275	3	C17H16N+
246.1283	2	C18H16N+
248.1431	7	C18H18N+
260.1432	6	C19H18N+
276.1379	2	C19H18NO+
294.1488	3	C19H20NO2+
355.2014	9	C21H27N2O3+
