Mass spectrum: Kaempferol; LC-ESI-ITFT; MS2; CE: 50%; R=15000; [M+H]+
Name: Kaempferol
Name: 3,5,7-trihydroxy-2-(4-hydroxyphenyl)chromen-4-one
Formula: C15H10O6
Exact mass: 286.0477
SMILES: OC1=CC=C(C=C1)C1=C(O)C(=O)C2=C(O)C=C(O)C=C2O1
InChI: InChI=1S/C15H10O6/c16-8-3-1-7(2-4-8)15-14(20)13(19)12-10(18)5-9(17)6-11(12)21-15/h1-6,16-18,20H
Instrument: LTQ Orbitrap XL Thermo Scientific
Instrument type: LC-ESI-ITFT
Ms type: MS2
Ion mode: POSITIVE
Ionization: ESI
Fragmentation mode: HCD
Collision energy: 50% (nominal)
Resolution: 15000
Column name: Kinetex Evo C18 2.6 um 50 x 2.1 mm
Retention time: 10.406 min
Base peak: 116.9858
Precursor m/z: 287.055
Precursor type: [M+H]+
m/z	relative intensity	assigned
111.0078	14	C5H3O3+
121.0284	22	C7H5O2+
153.0182	57	C7H5O4+
165.0184	42	C8H5O4+
213.0552	32	C13H9O3+
231.0655	14	C13H11O4+
241.0497	18	C14H9O4+
258.0532	28	C14H10O5+
287.055	999	C15H11O6+
