Mass spectrum: Matairesinol; LC-ESI-ITFT; MS2; CE: 15%; R=15000; [M+H]+
Name: Matairesinol
Formula: C20H22O6
Exact mass: 358.1416
SMILES: COC1=CC(C[C@H]2COC(=O)[C@@H]2CC2=CC=C(O)C(OC)=C2)=CC=C1O
InChI: InChI=1S/C20H22O6/c1-24-18-9-12(3-5-16(18)21)7-14-11-26-20(23)15(14)8-13-4-6-17(22)19(10-13)25-2/h3-6,9-10,14-15,21-22H,7-8,11H2,1-2H3/t14-,15+/m0/s1
Instrument: LTQ Orbitrap XL Thermo Scientific
Instrument type: LC-ESI-ITFT
Ms type: MS2
Ion mode: POSITIVE
Ionization: ESI
Fragmentation mode: CID
Collision energy: 15 % (nominal)
Resolution: 15000
Column name: Kinetex Evo C18 2.6 um 50 x 2.1 mm
Retention time: 9.292 min
Base peak: 147.0803
Precursor m/z: 359.1489
Precursor type: [M+H]+
m/z	relative intensity	assigned
122.0363	9	C7H6O2+
131.0492	6	C9H7O+
137.0597	264	C8H9O2+
151.0389	16	C8H7O3+
163.0754	24	C10H11O2+
177.0905	2	C11H13O2+
179.0701	3	C10H11O3+
189.0903	1	C12H13O2+
191.0703	24	C11H11O3+
203.0703	22	C12H11O3+
205.086	24	C12H13O3+
217.0856	5	C13H13O3+
221.081	36	C12H13O4+
223.0965	231	C12H15O4+
235.0966	97	C13H15O4+
281.1174	2	C18H17O3+
291.1017	25	C19H15O3+
295.1332	5	C19H19O3+
305.1172	21	C20H17O3+
309.1121	12	C19H17O4+
323.1279	86	C20H19O4+
341.1385	816	C20H21O5+
359.1491	999	C20H23O6+
