Mass spectrum: Senecivernine N-oxide; LC-ESI-ITFT; MS2; CE: 75%; R=15000; [M+H]+
Name: Senecivernine N-oxide
Name: CID 14313723
Name: 7-hydroxy-5,6,7-trimethyl-4-methylidene-14-oxido-2,9-dioxa-14-azoniatricyclo[9.5.1.014,17]heptadec-11-ene-3,8-dione
Formula: C18H25NO6
Exact mass: 351.1682
SMILES: CC1C(C(C(=O)OCC2=CC[N+]3(C2C(CC3)OC(=O)C1=C)[O-])(C)O)C
InChI: InChI=1S/C18H25NO6/c1-10-11(2)16(20)25-14-6-8-19(23)7-5-13(15(14)19)9-24-17(21)18(4,22)12(10)3/h5,10,12,14-15,22H,2,6-9H2,1,3-4H3
Instrument: LTQ Orbitrap XL Thermo Scientific
Instrument type: LC-ESI-ITFT
Ms type: MS2
Ion mode: POSITIVE
Ionization: ESI
Fragmentation mode: HCD
Collision energy: 75% (nominal)
Resolution: 15000
Column name: Kinetex Evo C18 2.6 um 50 x 2.1 mm
Retention time: 4.638 min
Base peak: 352.1753
Precursor m/z: 352.1755
Precursor type: [M+H]+
m/z	relative intensity	assigned
67.0542	45	C5H7+
68.0495	16	C4H6N+
79.0543	129	C6H7+
80.0496	132	C5H6N+
81.0575	27	C5H7N+
81.0699	277	C6H9+
82.0651	22	C5H8N+
83.0492	44	C5H7O+
84.0444	36	C4H6NO+
91.0542	54	C7H7+
92.0497	14	C6H6N+
93.0574	502	C6H7N+
94.0652	987	C6H8N+
95.073	334	C6H9N+
96.0444	17	C5H6NO+
96.0809	15	C6H10N+
98.0603	30	C5H8NO+
106.0652	268	C7H8N+
107.0732	15	C7H9N+
107.0856	73	C8H11+
108.0808	200	C7H10N+
109.0648	30	C7H9O+
109.0886	37	C7H11N+
109.1013	14	C8H13+
110.0598	21	C6H8NO+
111.0441	57	C6H7O2+
111.0679	36	C6H9NO+
112.0757	35	C6H10NO+
117.0574	25	C8H7N+
118.0652	640	C8H8N+
119.073	496	C8H9N+
120.0808	999	C8H10N+
121.0887	56	C8H11N+
122.0965	59	C8H12N+
124.0757	32	C7H10NO+
125.0961	20	C8H13O+
132.0804	14	C9H10N+
134.0964	18	C9H12N+
135.0807	12	C9H11O+
136.0758	647	C8H10NO+
137.0599	11	C8H9O2+
137.0837	30	C8H11NO+
138.0914	228	C8H12NO+
141.0909	16	C8H13O2+
146.0964	25	C10H12N+
148.1122	18	C10H14N+
152.1069	24	C9H14NO+
153.0911	47	C9H13O2+
154.0862	62	C8H12NO2+
174.0915	13	C11H12NO+
211.1331	31	C12H19O3+
218.1179	18	C13H16NO2+
