Mass spectrum: 4-Hydroxycoumarin; LC-ESI-ITFT; MS2; CE: 65%; R=15000; [M+H]+
Name: 4-Hydroxycoumarin
Name: 4-hydroxychromen-2-one
Formula: C9H6O3
Exact mass: 162.0317
SMILES: OC1=CC(=O)OC2=CC=CC=C12
InChI: InChI=1S/C9H6O3/c10-7-5-9(11)12-8-4-2-1-3-6(7)8/h1-5,10H
Instrument: LTQ Orbitrap XL Thermo Scientific
Instrument type: LC-ESI-ITFT
Ms type: MS2
Ion mode: POSITIVE
Ionization: ESI
Fragmentation mode: CID
Collision energy: 65 % (nominal)
Resolution: 15000
Column name: Kinetex Evo C18 2.6 um 50 x 2.1 mm
Retention time: 7.999 min
Base peak: 163.0392
Precursor m/z: 163.039
Precursor type: [M+H]+
m/z	relative intensity	assigned
68.9968	41	C3HO2+
77.0384	8	C6H5+
91.0541	152	C7H7+
93.0334	1	C6H5O+
95.049	175	C6H7O+
119.049	79	C8H7O+
121.0282	999	C7H5O2+
