Mass spectrum: Alpinetin; LC-ESI-ITFT; MS2; CE: 75%; R=15000; [M+H]+
Name: Alpinetin
Formula: C16H14O4
Exact mass: 270.0892
SMILES: COC1=C2C(=O)CC(OC2=CC(=C1)O)C3=CC=CC=C3
InChI: InChI=1S/C16H14O4/c1-19-14-7-11(17)8-15-16(14)12(18)9-13(20-15)10-5-3-2-4-6-10/h2-8,13,17H,9H2,1H3
Instrument: LTQ Orbitrap XL Thermo Scientific
Instrument type: LC-ESI-ITFT
Ms type: MS2
Ion mode: POSITIVE
Ionization: ESI
Fragmentation mode: HCD
Collision energy: 75 % (nominal)
Resolution: 15000
Column name: Kinetex Evo C18 2.6 um 50 x 2.1 mm
Retention time: 10.247 min
Base peak: 271.0964
Precursor m/z: 271.0965
Precursor type: [M+H]+
m/z	relative intensity	assigned
53.0385	7	C4H5+
55.0178	3	C3H3O+
65.0386	4	C5H5+
67.0178	4	C4H3O+
68.0257	3	C4H4O+
68.9971	47	C3HO2+
69.0334	6	C4H5O+
71.0127	4	C3H3O2+
71.0491	2	C4H7O+
77.0386	5	C6H5+
79.018	3	C5H3O+
79.0543	11	C6H7+
81.0335	14	C5H5O+
83.0492	5	C5H7O+
91.0543	19	C7H7+
93.0338	3	C6H5O+
95.0493	1	C6H7O+
96.0207	7	C5H4O2+
97.0284	10	C5H5O2+
99.0441	16	C5H7O2+
103.0542	194	C8H7+
105.0336	1	C7H5O+
107.0491	4	C7H7O+
109.0285	8	C6H5O2+
111.0441	24	C6H7O2+
121.0282	3	C7H5O2+
124.0155	114	C6H4O3+
125.0233	2	C6H5O3+
127.0392	3	C6H7O3+
131.0491	108	C9H7O+
137.0234	12	C7H5O3+
137.0593	3	C8H9O2+
139.0391	14	C7H7O3+
141.0693	2	C11H9+
152.0105	179	C7H4O4+
167.0339	999	C8H7O4+
179.0336	2	C9H7O4+
