Mass spectrum: Artemisinin; LC-ESI-ITFT; MS2; CE: 90%; R=15000; [M+H]+
Name: Artemisinin
Formula: C15H22O5
Exact mass: 282.1467
SMILES: C[C@@H]1CC[C@H]2[C@@H](C)C(=O)O[C@@H]3O[C@@]4(C)CC[C@@H]1[C@@]23OO4
InChI: InChI=1S/C15H22O5/c1-8-4-5-11-9(2)12(16)17-13-15(11)10(8)6-7-14(3,18-13)19-20-15/h8-11,13H,4-7H2,1-3H3/t8-,9-,10+,11+,13-,14-,15-/m1/s1
Instrument: LTQ Orbitrap XL Thermo Scientific
Instrument type: LC-ESI-ITFT
Ms type: MS2
Ion mode: POSITIVE
Ionization: ESI
Fragmentation mode: CID
Collision energy: 90 % (nominal)
Resolution: 15000
Column name: Kinetex Evo C18 2.6 um 50 x 2.1 mm
Retention time: 11.432 min
Base peak: 305.1357
Precursor m/z: 283.154
Precursor type: [M+H]+
m/z	relative intensity	assigned
157.0859	37	C8H13O3+
173.0963	43	C12H13O+
191.1066	43	C12H15O2+
201.1275	88	C14H17O+
205.1223	100	C13H17O2+
219.1378	151	C14H19O2+
223.1332	95	C13H19O3+
229.1224	78	C15H17O2+
237.1486	43	C14H21O3+
247.1329	999	C15H19O3+
265.1436	515	C15H21O4+
