Mass spectrum: Seneciphylline N-oxide; LC-ESI-ITFT; MS2; CE: 90%; R=15000; [M+H]+
Name: Seneciphylline N-oxide
Name: (1R,4E,7R,17R)-4-ethylidene-7-hydroxy-7-methyl-6-methylidene-14-oxido-2,9-dioxa-14-azoniatricyclo[9.5.1.014,17]heptadec-11-ene-3,8-dione
Formula: C18H23NO6
Exact mass: 349.1525
SMILES: C/C=C/1\CC(=C)[C@@](C(=O)OCC2=CC[N+]3([C@H]2[C@@H](CC3)OC1=O)[O-])(C)O
InChI: InChI=1S/C18H23NO6/c1-4-12-9-11(2)18(3,22)17(21)24-10-13-5-7-19(23)8-6-14(15(13)19)25-16(12)20/h4-5,14-15,22H,2,6-10H2,1,3H3/b12-4+/t14-,15-,18-,19?/m1/s1
Instrument: LTQ Orbitrap XL Thermo Scientific
Instrument type: LC-ESI-ITFT
Ms type: MS2
Ion mode: POSITIVE
Ionization: ESI
Fragmentation mode: HCD
Collision energy: 90% (nominal)
Resolution: 15000
Column name: Kinetex Evo C18 2.6 um 50 x 2.1 mm
Retention time: 2.982 min
Base peak: 350.1597
Precursor m/z: 350.1598
Precursor type: [M+H]+
m/z	relative intensity	assigned
65.0385	12	C5H5+
66.0463	9	C5H6+
67.0416	18	C4H5N+
67.0542	45	C5H7+
68.0496	12	C4H6N+
70.0652	10	C4H8N+
77.0386	19	C6H5+
79.0542	79	C6H7+
80.0495	206	C5H6N+
81.0574	30	C5H7N+
81.0699	62	C6H9+
82.0651	19	C5H8N+
84.0444	16	C4H6NO+
91.0542	109	C7H7+
92.0495	40	C6H6N+
93.0573	403	C6H7N+
94.0651	999	C6H8N+
95.0488	9	C6H7O+
95.0729	88	C6H9N+
95.0856	34	C7H11+
96.0443	17	C5H6NO+
96.0808	23	C6H10N+
98.0602	20	C5H8NO+
103.0543	16	C8H7+
105.0698	54	C8H9+
106.0651	180	C7H8N+
107.0491	29	C7H7O+
107.073	14	C7H9N+
108.0808	175	C7H10N+
109.0647	73	C7H9O+
110.06	15	C6H8NO+
112.0759	11	C6H10NO+
117.0573	56	C8H7N+
118.0651	472	C8H8N+
119.0729	191	C8H9N+
120.0808	670	C8H10N+
121.0647	9	C8H9O+
122.0963	18	C8H12N+
123.0804	18	C8H11O+
124.0758	11	C7H10NO+
132.0807	19	C9H10N+
133.0645	14	C9H9O+
134.0963	13	C9H12N+
136.0757	366	C8H10NO+
138.0913	38	C8H12NO+
144.0808	10	C10H10N+
158.0967	7	C11H12N+
