Mass spectrum: Tetrahydropalmatin; LC-ESI-ITFT; MS2; CE: 75%; R=15000; [M+H]+
Name: Tetrahydropalmatin
Name: D-Tetrahydropalmatine
Name: (13aR)-2,3,9,10-tetramethoxy-6,8,13,13a-tetrahydro-5H-isoquinolino[2,1-b]isoquinoline
Formula: C21H25NO4
Exact mass: 355.1784
SMILES: COC1=C(C2=C(C[C@@H]3C4=CC(=C(C=C4CCN3C2)OC)OC)C=C1)OC
InChI: InChI=1S/C21H25NO4/c1-23-18-6-5-13-9-17-15-11-20(25-3)19(24-2)10-14(15)7-8-22(17)12-16(13)21(18)26-4/h5-6,10-11,17H,7-9,12H2,1-4H3/t17-/m1/s1
Instrument: LTQ Orbitrap XL Thermo Scientific
Instrument type: LC-ESI-ITFT
Ms type: MS2
Ion mode: POSITIVE
Ionization: ESI
Fragmentation mode: HCD
Collision energy: 75% (nominal)
Resolution: 15000
Column name: Kinetex Evo C18 2.6 um 50 x 2.1 mm
Retention time: 7.478 min
Base peak: 356.1854
Precursor m/z: 356.1856
Precursor type: [M+H]+
m/z	relative intensity	assigned
79.0543	10	C6H7+
91.0542	6	C7H7+
103.0542	9	C8H7+
104.062	2	C8H8+
105.0698	38	C8H9+
107.0491	8	C7H7O+
108.0569	1	C7H8O+
118.0411	6	C8H6O+
119.0492	4	C8H7O+
120.057	7	C8H8O+
121.0647	15	C8H9O+
122.0726	6	C8H10O+
131.0729	81	C9H9N+
133.0648	21	C9H9O+
134.0726	24	C9H10O+
135.044	21	C8H7O2+
135.0802	9	C9H11O+
136.0517	3	C8H8O2+
137.0599	2	C8H9O2+
146.0601	4	C9H8NO+
147.0679	20	C9H9NO+
148.0519	7	C9H8O2+
148.0757	154	C9H10NO+
149.0595	5	C9H9O2+
150.0675	114	C9H10O2+
151.0751	20	C9H11O2+
158.0727	4	C11H10O+
159.0679	62	C10H9NO+
160.0755	20	C10H10NO+
161.0835	9	C10H11NO+
162.0551	1	C9H8NO2+
164.084	1	C10H12O2+
165.091	100	C10H13O2+
174.0548	3	C10H8NO2+
174.0671	2	C11H10O2+
174.0918	1	C11H12NO+
175.063	4	C10H9NO2+
175.0751	1	C11H11O2+
176.0706	265	C10H10NO2+
177.0784	296	C10H11NO2+
190.0863	38	C11H12NO2+
192.1018	999	C11H14NO2+
204.102	2	C12H14NO2+
249.0913	1	C17H13O2+
250.0989	1	C17H14O2+
251.1068	2	C17H15O2+
263.1076	2	C18H15O2+
265.1218	3	C18H17O2+
278.1166	1	C18H16NO2+
280.1331	3	C18H18NO2+
281.1168	3	C18H17O3+
293.1158	2	C19H17O3+
294.1499	2	C19H20NO2+
296.1283	3	C18H18NO3+
298.1439	4	C18H20NO3+
306.1117	3	C19H16NO3+
308.128	3	C19H18NO3+
310.1065	2	C18H16NO4+
310.1437	3	C19H20NO3+
312.1602	3	C19H22NO3+
322.1426	4	C20H20NO3+
324.1225	4	C19H18NO4+
325.1303	3	C19H19NO4+
326.1386	1	C19H20NO4+
340.1543	10	C20H22NO4+
