Mass spectrum: Lycopsamine N-oxide; LC-ESI-ITFT; MS2; CE: 40%; R=15000; [M+H]+
Name: Lycopsamine N-oxide
Name: [(7R,8R)-7-hydroxy-4-oxido-5,6,7,8-tetrahydro-3H-pyrrolizin-4-ium-1-yl]methyl (2S)-2-hydroxy-2-[(1S)-1-hydroxyethyl]-3-methylbutanoate
Formula: C15H25NO6
Exact mass: 315.1682
SMILES: C[C@@H]([C@@](C(C)C)(C(=O)OCC1=CC[N+]2([C@H]1[C@@H](CC2)O)[O-])O)O
InChI: InChI=1S/C15H25NO6/c1-9(2)15(20,10(3)17)14(19)22-8-11-4-6-16(21)7-5-12(18)13(11)16/h4,9-10,12-13,17-18,20H,5-8H2,1-3H3/t10-,12+,13+,15-,16?/m0/s1
Instrument: LTQ Orbitrap XL Thermo Scientific
Instrument type: LC-ESI-ITFT
Ms type: MS2
Ion mode: POSITIVE
Ionization: ESI
Fragmentation mode: HCD
Collision energy: 40% (nominal)
Resolution: 15000
Column name: Kinetex Evo C18 2.6 um 50 x 2.1 mm
Retention time: 1.288 min
Base peak: 143.0015
Precursor m/z: 316.1755
Precursor type: [M+H]+
m/z	relative intensity	assigned
82.0651	1	C5H8N+
93.0573	7	C6H7N+
94.0652	8	C6H8N+
108.0809	2	C7H10N+
110.06	1	C6H8NO+
111.0678	1	C6H9NO+
112.0756	3	C6H10NO+
136.0758	25	C8H10NO+
137.0837	6	C8H11NO+
138.0914	90	C8H12NO+
154.0863	26	C8H12NO2+
155.0942	25	C8H13NO2+
172.0969	145	C8H14NO3+
226.144	6	C12H20NO3+
272.1493	12	C13H22NO5+
298.1638	3	C15H24NO5+
316.1756	999	C15H26NO6+
