Mass spectrum: Seneciphylline N-oxide; LC-ESI-ITFT; MS2; CE: 40%; R=15000; [M+H]+
Name: Seneciphylline N-oxide
Name: (1R,4E,7R,17R)-4-ethylidene-7-hydroxy-7-methyl-6-methylidene-14-oxido-2,9-dioxa-14-azoniatricyclo[9.5.1.014,17]heptadec-11-ene-3,8-dione
Formula: C18H23NO6
Exact mass: 349.1525
SMILES: C/C=C/1\CC(=C)[C@@](C(=O)OCC2=CC[N+]3([C@H]2[C@@H](CC3)OC1=O)[O-])(C)O
InChI: InChI=1S/C18H23NO6/c1-4-12-9-11(2)18(3,22)17(21)24-10-13-5-7-19(23)8-6-14(15(13)19)25-16(12)20/h4-5,14-15,22H,2,6-10H2,1,3H3/b12-4+/t14-,15-,18-,19?/m1/s1
Instrument: LTQ Orbitrap XL Thermo Scientific
Instrument type: LC-ESI-ITFT
Ms type: MS2
Ion mode: POSITIVE
Ionization: ESI
Fragmentation mode: HCD
Collision energy: 40% (nominal)
Resolution: 15000
Column name: Kinetex Evo C18 2.6 um 50 x 2.1 mm
Retention time: 2.971 min
Base peak: 350.1596
Precursor m/z: 350.1598
Precursor type: [M+H]+
m/z	relative intensity	assigned
68.0492	2	C4H6N+
79.0542	2	C6H7+
93.0572	7	C6H7N+
94.0651	21	C6H8N+
95.0729	50	C6H9N+
96.0806	2	C6H10N+
98.06	3	C5H8NO+
106.0651	9	C7H8N+
107.0491	10	C7H7O+
108.0808	9	C7H10N+
109.0648	5	C7H9O+
109.0887	4	C7H11N+
112.0757	6	C6H10NO+
118.0651	75	C8H8N+
119.073	78	C8H9N+
120.0808	91	C8H10N+
121.0886	28	C8H11N+
122.0726	9	C8H10O+
122.0963	9	C8H12N+
123.0804	7	C8H11O+
136.0757	49	C8H10NO+
137.0836	11	C8H11NO+
138.0913	47	C8H12NO+
139.0992	8	C8H13NO+
140.1064	2	C8H14NO+
150.0677	6	C9H10O2+
151.0753	9	C9H11O2+
154.0862	37	C8H12NO2+
167.0705	5	C9H11O3+
178.1229	3	C11H16NO+
218.1173	3	C13H16NO2+
246.1488	15	C15H20NO2+
274.1431	3	C16H20NO3+
288.159	6	C17H22NO3+
322.165	26	C17H24NO5+
350.1598	999	C18H24NO6+
