Mass spectrum: Senecivernine; LC-ESI-ITFT; MS2; CE: 55%; R=15000; [M+H]+
Name: Senecivernine
Name: (1R,5R,6R,7R,17R)-7-hydroxy-5,6,7-trimethyl-4-methylidene-2,9-dioxa-14-azatricyclo[9.5.1.014,17]heptadec-11-ene-3,8-dione
Formula: C18H25NO5
Exact mass: 335.1733
SMILES: C[C@@H]1[C@H]([C@@](C(=O)OCC2=CCN3[C@H]2[C@@H](CC3)OC(=O)C1=C)(C)O)C
InChI: InChI=1S/C18H25NO5/c1-10-11(2)16(20)24-14-6-8-19-7-5-13(15(14)19)9-23-17(21)18(4,22)12(10)3/h5,10,12,14-15,22H,2,6-9H2,1,3-4H3/t10-,12+,14+,15+,18+/m0/s1
Instrument: LTQ Orbitrap XL Thermo Scientific
Instrument type: LC-ESI-ITFT
Ms type: MS2
Ion mode: POSITIVE
Ionization: ESI
Fragmentation mode: HCD
Collision energy: 55% (nominal)
Resolution: 15000
Column name: Kinetex Evo C18 2.6 um 50 x 2.1 mm
Retention time: 3.466 min
Base peak: 143.0015
Precursor m/z: 336.1805
Precursor type: [M+H]+
m/z	relative intensity	assigned
67.0542	25	C5H7+
79.0542	35	C6H7+
80.0496	36	C5H6N+
81.0699	93	C6H9+
91.0542	35	C7H7+
93.0698	76	C7H9+
94.0651	115	C6H8N+
96.0807	72	C6H10N+
103.0542	28	C8H7+
107.0856	44	C8H11+
108.0807	69	C7H10N+
109.0647	26	C7H9O+
109.1011	16	C8H13+
110.0963	37	C7H12N+
111.0438	21	C6H7O2+
118.065	31	C8H8N+
120.0807	611	C8H10N+
121.0886	35	C8H11N+
122.0963	117	C8H12N+
125.096	33	C8H13O+
138.0913	531	C8H12NO+
140.1069	20	C8H14NO+
153.091	73	C9H13O2+
220.1332	49	C13H18NO2+
290.1745	22	C17H24NO3+
308.1855	365	C17H26NO4+
336.1806	999	C18H26NO5+
