Mass spectrum: Piperine; LC-ESI-ITFT; MS2; CE: 90%; R=15000; [M+H]+
Name: Piperine
Name: (2E,4E)-5-(1,3-benzodioxol-5-yl)-1-piperidin-1-ylpenta-2,4-dien-1-one
Formula: C17H19NO3
Exact mass: 285.1365
SMILES: O=C(\C=C\C=C\C1=CC2=C(OCO2)C=C1)N1CCCCC1
InChI: InChI=1S/C17H19NO3/c19-17(18-10-4-1-5-11-18)7-3-2-6-14-8-9-15-16(12-14)21-13-20-15/h2-3,6-9,12H,1,4-5,10-11,13H2/b6-2+,7-3+
Instrument: LTQ Orbitrap XL Thermo Scientific
Instrument type: LC-ESI-ITFT
Ms type: MS2
Ion mode: POSITIVE
Ionization: ESI
Fragmentation mode: HCD
Collision energy: 90 % (nominal)
Resolution: 15000
Column name: Kinetex Evo C18 2.6 um 50 x 2.1 mm
Retention time: 11.786 min
Base peak: 286.1441
Precursor m/z: 286.1438
Precursor type: [M+H]+
m/z	relative intensity	assigned
67.0541	2	C5H7+
69.0696	71	C5H9+
70.0649	2	C4H8N+
77.0384	21	C6H5+
79.0541	22	C6H7+
81.0571	8	C5H7N+
84.0807	12	C5H10N+
86.0963	9	C5H12N+
91.0542	4	C7H7+
103.0542	34	C8H7+
105.0335	22	C7H5O+
105.0447	13	C6H5N2+
109.0525	1	C6H7NO+
112.0756	8	C6H10NO+
115.0542	999	C9H7+
117.0698	26	C9H9+
122.0963	8	C8H12N+
127.0543	4	C10H7+
129.0697	1	C10H9+
131.0489	5	C9H7O+
134.0965	3	C9H12N+
135.0439	246	C8H7O2+
143.049	322	C10H7O+
144.0531	2	C5H8N2O3+
145.0645	5	C10H9O+
150.0913	6	C9H12NO+
151.099	12	C9H13NO+
155.0601	14	C10H7N2+
159.0438	49	C10H7O2+
161.0596	1	C10H9O2+
171.0438	107	C11H7O2+
172.0513	2	C11H8O2+
173.0594	23	C11H9O2+
201.0542	55	C12H9O3+
