Mass spectrum: 5,7-Dihydroxy-4-phenylcoumarin; LC-ESI-ITFT; MS2; CE: 75%; R=15000; [M+H]+
Name: 5,7-Dihydroxy-4-phenylcoumarin
Name: 5,7-dihydroxy-4-phenylchromen-2-one
Formula: C15H10O4
Exact mass: 254.0579
SMILES: OC1=CC(O)=C2C(OC(=O)C=C2C2=CC=CC=C2)=C1
InChI: InChI=1S/C15H10O4/c16-10-6-12(17)15-11(9-4-2-1-3-5-9)8-14(18)19-13(15)7-10/h1-8,16-17H
Instrument: LTQ Orbitrap XL Thermo Scientific
Instrument type: LC-ESI-ITFT
Ms type: MS2
Ion mode: POSITIVE
Ionization: ESI
Fragmentation mode: HCD
Collision energy: 75% (nominal)
Resolution: 15000
Column name: Kinetex Evo C18 2.6 um 50 x 2.1 mm
Retention time: 9.813 min
Base peak: 116.9857
Precursor m/z: 255.0652
Precursor type: [M+H]+
m/z	relative intensity	assigned
68.9971	253	C3HO2+
77.0386	42	C6H5+
91.0543	161	C7H7+
103.0542	55	C8H7+
105.0335	354	C7H5O+
111.0076	57	C5H3O3+
115.0542	209	C9H7+
121.0285	121	C7H5O2+
128.0621	199	C10H8+
129.0699	172	C10H9+
131.0491	57	C9H7O+
131.0855	96	C10H11+
139.0539	15	C11H7+
141.0699	228	C11H9+
143.049	37	C10H7O+
143.0855	54	C11H11+
145.0646	26	C10H9O+
149.0234	172	C8H5O3+
152.0621	229	C12H8+
153.0182	410	C7H5O4+
153.0699	600	C12H9+
154.0778	48	C12H10+
155.0855	84	C12H11+
157.0646	44	C11H9O+
164.0617	33	C13H8+
165.0699	999	C13H9+
166.0778	20	C13H10+
168.0571	49	C12H8O+
169.0646	59	C12H9O+
171.0441	537	C11H7O2+
171.0806	68	C12H11O+
181.0648	379	C13H9O+
182.0723	28	C13H10O+
184.052	39	C12H8O2+
193.0649	45	C14H9O+
194.0726	21	C14H10O+
197.0596	64	C13H9O2+
199.0753	401	C13H11O2+
210.0677	26	C14H10O2+
211.0753	53	C14H11O2+
255.0651	215	C15H11O4+
