Mass spectrum: Pterosin B; LC-ESI-ITFT; MS2; CE: 50%; R=15000; [M+H]+
Name: Pterosin B
Name: (2R)-6-(2-hydroxyethyl)-2,5,7-trimethyl-2,3-dihydroinden-1-one
Formula: C14H18O2
Exact mass: 218.1307
SMILES: C[C@@H]1CC2=C(C1=O)C(=C(C(=C2)C)CCO)C
InChI: InChI=1S/C14H18O2/c1-8-6-11-7-9(2)14(16)13(11)10(3)12(8)4-5-15/h6,9,15H,4-5,7H2,1-3H3/t9-/m1/s1
Instrument: LTQ Orbitrap XL Thermo Scientific
Instrument type: LC-ESI-ITFT
Ms type: MS2
Ion mode: POSITIVE
Ionization: ESI
Fragmentation mode: HCD
Collision energy: 50 % (nominal)
Resolution: 15000
Column name: Kinetex Evo C18 2.6 um 50x2.1 mm, Phenomenex
Retention time: 10.492 min
Base peak: 149.0116
Precursor m/z: 219.138
Precursor type: [M+H]+
m/z	relative intensity	assigned
77.0384	34	C6H5+
131.0855	46	C10H11+
145.1009	185	C11H13+
158.1092	39	C12H14+
159.1164	43	C12H15+
168.0933	100	C13H12+
173.1322	190	C13H17+
183.1164	192	C14H15+
186.104	106	C13H14O+
201.1271	999	C14H17O+
219.1375	629	C14H19O2+
