Mass spectrum: Citrinin; LC-ESI-ITFT; MS2; CE: 75%; R=15000; [M+H]+
Name: Citrinin
Formula: C13H14O5
Exact mass: 250.0841
SMILES: C[C@H]1OC=C2C(O)=C(C(O)=O)C(=O)C(C)=C2[C@@H]1C
InChI: InChI=1S/C13H14O5/c1-5-7(3)18-4-8-9(5)6(2)11(14)10(12(8)15)13(16)17/h4-5,7,15H,1-3H3,(H,16,17)/t5-,7-/m1/s1
Instrument: LTQ Orbitrap XL Thermo Scientific
Instrument type: LC-ESI-ITFT
Ms type: MS2
Ion mode: POSITIVE
Ionization: ESI
Fragmentation mode: HCD
Collision energy: 75 % (nominal)
Resolution: 15000
Column name: Kinetex Evo C18 2.6 um 50 x 2.1 mm
Retention time: 11.741 min
Base peak: 251.091
Precursor m/z: 251.0914
Precursor type: [M+H]+
m/z	relative intensity	assigned
67.0542	74	C5H7+
68.9971	24	C3HO2+
77.0386	45	C6H5+
79.0179	52	C5H3O+
79.0542	119	C6H7+
83.0127	19	C4H3O2+
83.0494	8	C5H7O+
91.0542	434	C7H7+
93.0698	106	C7H9+
95.049	16	C6H7O+
95.0855	282	C7H11+
103.0541	19	C8H7+
105.0698	130	C8H9+
106.0777	11	C8H10+
107.0127	72	C6H3O2+
107.0491	219	C7H7O+
107.0855	164	C8H11+
109.0648	40	C7H9O+
109.101	41	C8H13+
115.0542	75	C9H7+
116.062	105	C9H8+
117.0698	89	C9H9+
119.0491	46	C8H7O+
119.0855	627	C9H11+
120.0566	10	C8H8O+
121.0648	66	C8H9O+
121.1011	38	C9H13+
122.0725	12	C8H10O+
123.0804	127	C8H11O+
128.0621	41	C10H8+
129.0698	73	C10H9+
131.0855	340	C10H11+
132.0568	12	C9H8O+
133.0649	45	C9H9O+
134.0727	34	C9H10O+
135.044	56	C8H7O2+
135.0804	183	C9H11O+
137.096	242	C9H13O+
141.0697	58	C11H9+
143.0856	17	C11H11+
144.057	65	C10H8O+
145.0286	20	C9H5O2+
145.0647	44	C10H9O+
147.0438	46	C9H7O2+
147.0804	396	C10H11O+
148.052	43	C9H8O2+
149.0236	19	C8H5O3+
149.0597	45	C9H9O2+
149.096	67	C10H13O+
159.0804	207	C11H11O+
161.0595	42	C10H9O2+
162.0675	145	C10H10O2+
163.0389	56	C9H7O3+
163.0753	116	C10H11O2+
169.0647	118	C12H9O+
172.052	39	C11H8O2+
173.0597	11	C11H9O2+
175.039	117	C10H7O3+
176.0466	38	C10H8O3+
177.0181	97	C9H5O4+
177.0549	32	C10H9O3+
177.091	60	C11H13O2+
185.0597	55	C12H9O2+
187.0753	140	C12H11O2+
189.0546	41	C11H9O3+
190.0624	145	C11H10O3+
191.0335	38	C10H7O4+
191.0702	490	C11H11O3+
195.0284	30	C9H7O5+
200.0468	21	C12H8O3+
203.0337	288	C11H7O4+
203.0701	55	C12H11O3+
204.0417	123	C11H8O4+
205.0858	999	C12H13O3+
209.0809	50	C11H13O4+
215.0702	297	C13H11O3+
217.0487	13	C12H9O4+
218.0572	158	C12H10O4+
233.0807	978	C13H13O4+
251.0914	25	C13H15O5+
