Mass spectrum: Erucifoline; LC-ESI-ITFT; MS2; CE: 90%; R=15000; [M+H]+
Name: Erucifoline
Name: (5R,7S,9Z,12R,18R)-9-ethylidene-7-(hydroxymethyl)-5-methyl-3,6,11-trioxa-15-azatetracyclo[10.5.1.05,7.015,18]octadec-1(17)-ene-4,10-dione
Formula: C18H23NO6
Exact mass: 349.1525
SMILES: C/C=C\1/C[C@@]2([C@@](O2)(C(=O)OCC3=CCN4[C@H]3[C@@H](CC4)OC1=O)C)CO
InChI: InChI=1S/C18H23NO6/c1-3-11-8-18(10-20)17(2,25-18)16(22)23-9-12-4-6-19-7-5-13(14(12)19)24-15(11)21/h3-4,13-14,20H,5-10H2,1-2H3/b11-3-/t13-,14-,17+,18+/m1/s1
Instrument: LTQ Orbitrap XL Thermo Scientific
Instrument type: LC-ESI-ITFT
Ms type: MS2
Ion mode: POSITIVE
Ionization: ESI
Fragmentation mode: HCD
Collision energy: 90% (nominal)
Resolution: 15000
Column name: Kinetex Evo C18 2.6 um 50 x 2.1 mm
Retention time: 0.956 min
Base peak: 143.0015
Precursor m/z: 350.1598
Precursor type: [M+H]+
m/z	relative intensity	assigned
53.0384	15	C4H5+
55.0542	20	C4H7+
65.0386	82	C5H5+
67.0416	66	C4H5N+
67.0542	687	C5H7+
68.0494	224	C4H6N+
69.0334	20	C4H5O+
69.0699	50	C5H9+
77.0386	288	C6H5+
78.0337	18	C5H4N+
79.0542	315	C6H7+
80.0495	469	C5H6N+
81.0336	17	C5H5O+
81.0573	144	C5H7N+
81.0699	171	C6H9+
82.0651	296	C5H8N+
83.0127	34	C4H3O2+
83.0492	101	C5H7O+
83.073	17	C5H9N+
84.0445	17	C4H6NO+
91.0542	428	C7H7+
92.0494	106	C6H6N+
93.0573	108	C6H7N+
93.0699	237	C7H9+
94.0651	999	C6H8N+
95.049	102	C6H7O+
95.0729	74	C6H9N+
95.0857	21	C7H11+
96.0807	423	C6H10N+
97.0649	37	C6H9O+
103.0542	185	C8H7+
105.0573	76	C7H7N+
105.0698	72	C8H9+
106.0652	107	C7H8N+
107.0489	18	C7H7O+
107.0729	74	C7H9N+
108.0808	233	C7H10N+
109.0648	186	C7H9O+
109.0888	19	C7H11N+
110.06	51	C6H8NO+
110.0963	89	C7H12N+
111.044	64	C6H7O2+
117.0571	31	C8H7N+
118.0651	219	C8H8N+
119.0729	53	C8H9N+
120.0808	705	C8H10N+
121.0649	30	C8H9O+
121.0887	52	C8H11N+
122.0964	168	C8H12N+
125.0596	19	C7H9O2+
136.0758	24	C8H10NO+
138.0914	175	C8H12NO+
146.096	20	C10H12N+
220.1336	19	C13H18NO2+
