Mass spectrum: Artemisinin; LC-ESI-ITFT; MS2; CE: 30%; R=15000; [M+H]+
Name: Artemisinin
Formula: C15H22O5
Exact mass: 282.1467
SMILES: C[C@@H]1CC[C@H]2[C@@H](C)C(=O)O[C@@H]3O[C@@]4(C)CC[C@@H]1[C@@]23OO4
InChI: InChI=1S/C15H22O5/c1-8-4-5-11-9(2)12(16)17-13-15(11)10(8)6-7-14(3,18-13)19-20-15/h8-11,13H,4-7H2,1-3H3/t8-,9-,10+,11+,13-,14-,15-/m1/s1
Instrument: LTQ Orbitrap XL Thermo Scientific
Instrument type: LC-ESI-ITFT
Ms type: MS2
Ion mode: POSITIVE
Ionization: ESI
Fragmentation mode: HCD
Collision energy: 30 % (nominal)
Resolution: 15000
Column name: Kinetex Evo C18 2.6 um 50 x 2.1 mm
Retention time: 11.318 min
Base peak: 305.1353
Precursor m/z: 283.154
Precursor type: [M+H]+
m/z	relative intensity	assigned
95.0854	388	C7H11+
121.1011	306	C9H13+
149.0958	269	C10H13O+
159.1166	392	C12H15+
161.0961	217	C11H13O+
163.1118	233	C11H15O+
173.132	284	C13H17+
177.1278	336	C12H17O+
191.1433	320	C13H19O+
201.1274	388	C14H17O+
205.1224	492	C13H17O2+
219.1381	999	C14H19O2+
247.1326	474	C15H19O3+
265.1438	230	C15H21O4+
