Mass spectrum: Atropine; LC-ESI-ITFT; MS2; CE: 90%; R=15000; [M+H]+
Name: Atropine
Formula: C17H23NO3
Exact mass: 289.1678
SMILES: CN1[C@@H]2CC[C@H]1C[C@H](C2)OC(=O)C(CO)c3ccccc3
InChI: InChI=1S/C17H23NO3/c1-18-13-7-8-14(18)10-15(9-13)21-17(20)16(11-19)12-5-3-2-4-6-12/h2-6,13-16,19H,7-11H2,1H3/t13-,14+,15+,16?
Instrument: LTQ Orbitrap XL Thermo Scientific
Instrument type: LC-ESI-ITFT
Ms type: MS2
Ion mode: POSITIVE
Ionization: ESI
Fragmentation mode: HCD
Collision energy: 90% (nominal)
Resolution: 15000
Column name: Kinetex Evo C18 2.6 um 50 x 2.1 mm
Retention time: 2.854 min
Base peak: 143.0015
Precursor m/z: 290.1751
Precursor type: [M+H]+
m/z	relative intensity	assigned
65.0383	8	C5H5+
67.0542	289	C5H7+
68.0495	64	C4H6N+
70.0651	52	C4H8N+
77.0386	193	C6H5+
79.0543	44	C6H7+
82.0652	102	C5H8N+
83.073	75	C5H9N+
91.0543	425	C7H7+
93.0699	999	C7H9+
94.065	19	C6H8N+
95.0491	20	C6H7O+
95.0731	36	C6H9N+
95.0856	85	C7H11+
96.0808	69	C6H10N+
98.0965	56	C6H12N+
103.0543	331	C8H7+
109.0885	33	C7H11N+
121.0648	107	C8H9O+
124.1121	738	C8H14N+
140.1072	27	C8H14NO+
142.1227	135	C8H16NO+
