Mass spectrum: Tomatidine; LC-ESI-ITFT; MS2; CE: 50%; R=15000; [M+H]+
Name: Tomatidine
Formula: C27H45NO2
Exact mass: 415.3450
SMILES: C[C@H]1[C@H]2[C@H](C[C@H]3[C@@H]4CC[C@H]5C[C@@H](O)CC[C@]5(C)[C@H]4CC[C@]23C)O[C@@]11CC[C@H](C)CN1
InChI: InChI=1S/C27H45NO2/c1-16-7-12-27(28-15-16)17(2)24-23(30-27)14-22-20-6-5-18-13-19(29)8-10-25(18,3)21(20)9-11-26(22,24)4/h16-24,28-29H,5-15H2,1-4H3/t16-,17-,18-,19-,20+,21-,22-,23-,24-,25-,26-,27-/m0/s1
Instrument: LTQ Orbitrap XL Thermo Scientific
Instrument type: LC-ESI-ITFT
Ms type: MS2
Ion mode: POSITIVE
Ionization: ESI
Fragmentation mode: HCD
Collision energy: 50 % (nominal)
Resolution: 15000
Column name: Kinetex Evo C18 2.6 um 50 x 2.1 mm
Retention time: 9.999 min
Base peak: 217.0492
Precursor m/z: 416.3523
Precursor type: [M+H]+
m/z	relative intensity	assigned
67.0542	22	C5H7+
69.0697	7	C5H9+
70.0651	56	C4H8N+
79.0542	50	C6H7+
81.0699	47	C6H9+
83.0854	4	C6H11+
91.0542	28	C7H7+
93.0699	51	C7H9+
95.0855	66	C7H11+
96.0808	5	C6H10N+
98.0964	8	C6H12N+
105.0698	63	C8H9+
107.0855	91	C8H11+
109.1012	40	C8H13+
114.0912	25	C6H12NO+
117.0698	14	C9H9+
119.0856	39	C9H11+
121.1011	49	C9H13+
123.0807	4	C8H11O+
123.1167	15	C9H15+
124.112	109	C8H14N+
126.1277	233	C8H16N+
131.0854	30	C10H11+
133.1011	71	C10H13+
135.1168	70	C10H15+
145.1012	81	C11H13+
147.1168	202	C11H15+
149.1325	51	C11H17+
150.1281	3	C10H16N+
151.1117	14	C10H15O+
159.1169	118	C12H15+
161.1325	999	C12H17+
163.1118	25	C11H15O+
164.1433	15	C11H18N+
171.1167	8	C13H15+
173.1325	59	C13H17+
175.1483	13	C13H19+
185.1325	19	C14H17+
187.1481	18	C14H19+
189.1636	4	C14H21+
199.1481	28	C15H19+
213.1636	16	C16H21+
215.1792	11	C16H23+
227.1792	6	C17H23+
255.2108	194	C19H27+
273.2212	59	C19H29O+
398.342	31	C27H44NO+
416.3522	43	C27H46NO2+
