Mass spectrum: Conessine; LC-ESI-ITFT; MS2; CE: 80%; R=15000; [M+H]+
Name: Conessine
Formula: C24H40N2
Exact mass: 356.3191
SMILES: C[C@H]1[C@H]2CC[C@H]3[C@@H]4CC=C5C[C@H](CC[C@]5(C)[C@H]4CC[C@]23CN1C)N(C)C
InChI: InChI=1S/C24H40N2/c1-16-20-8-9-22-19-7-6-17-14-18(25(3)4)10-12-23(17,2)21(19)11-13-24(20,22)15-26(16)5/h6,16,18-22H,7-15H2,1-5H3/t16-,18-,19+,20+,21-,22-,23-,24-/m0/s1
Instrument: LTQ Orbitrap XL Thermo Scientific
Instrument type: LC-ESI-ITFT
Ms type: MS2
Ion mode: POSITIVE
Ionization: ESI
Fragmentation mode: HCD
Collision energy: 80 % (nominal)
Resolution: 15000
Column name: Kinetex Evo C18 2.6 um 50 x 2.1 mm
Retention time: 5.272 min
Base peak: 179.1668
Precursor m/z: 357.3264
Precursor type: [M+H]+
m/z	relative intensity	assigned
55.0541	18	C4H7+
67.0542	131	C5H7+
72.0807	36	C4H10N+
79.0542	132	C6H7+
81.0699	234	C6H9+
83.0855	26	C6H11+
84.0808	999	C5H10N+
91.0542	182	C7H7+
93.0699	218	C7H9+
95.0855	137	C7H11+
105.0698	263	C8H9+
107.0854	113	C8H11+
109.1012	163	C8H13+
117.0699	93	C9H9+
119.0855	161	C9H11+
121.1011	71	C9H13+
123.1167	17	C9H15+
129.0697	25	C10H9+
131.0854	158	C10H11+
133.1012	128	C10H13+
135.1168	99	C10H15+
136.1127	13	C9H14N+
142.078	10	C11H10+
143.0856	41	C11H11+
144.0931	29	C11H12+
145.1012	164	C11H13+
147.1168	228	C11H15+
149.1329	22	C11H17+
157.1015	53	C12H13+
159.1168	279	C12H15+
161.1325	147	C12H17+
171.1173	29	C13H15+
173.1324	88	C13H17+
175.1479	11	C13H19+
185.1326	36	C14H17+
187.1481	77	C14H19+
199.1486	26	C15H19+
213.163	18	C16H21+
269.2257	10	C20H29+
357.3259	21	C24H41N2+
