Mass spectrum: (+)-Lupanine; LC-ESI-ITFT; MS2; CE: 90%; R=15000; [M+H]+
Name: (+)-Lupanine
Formula: C15H24N2O
Exact mass: 248.1889
SMILES: C1CCN2CC3CC(C2C1)CN4C3CCCC4=O
InChI: InChI=1S/C15H24N2O/c18-15-6-3-5-14-11-8-12(10-17(14)15)13-4-1-2-7-16(13)9-11/h11-14H,1-10H2
Instrument: LTQ Orbitrap XL Thermo Scientific
Instrument type: LC-ESI-ITFT
Ms type: MS2
Ion mode: POSITIVE
Ionization: ESI
Fragmentation mode: CID
Collision energy: 90 % (nominal)
Resolution: 15000
Column name: Kinetex Evo C18 2.6 um 50 x 2.1 mm
Retention time: 0.587 min
Base peak: 235.2166
Precursor m/z: 249.1961
Precursor type: [M+H]+
m/z	relative intensity	assigned
70.0651	4	C4H8N+
79.0543	8	C6H7+
80.0495	23	C5H6N+
82.065	4	C5H8N+
84.0808	16	C5H10N+
85.0646	3	C5H9O+
91.0544	21	C7H7+
93.0697	7	C7H9+
94.0652	16	C6H8N+
96.0808	109	C6H10N+
98.0964	155	C6H12N+
100.0755	6	C5H10NO+
105.0699	22	C8H9+
107.0859	7	C8H11+
108.0805	17	C7H10N+
110.0964	12	C7H12N+
112.0756	49	C6H10NO+
114.0913	257	C6H12NO+
119.0857	4	C9H11+
121.1009	7	C9H13+
122.0963	32	C8H12N+
124.0757	12	C7H10NO+
124.112	21	C8H14N+
131.0854	8	C10H11+
133.1012	18	C10H13+
134.0964	133	C9H12N+
136.112	999	C9H14N+
138.0915	11	C8H12NO+
138.1277	10	C9H16N+
145.1011	6	C11H13+
148.0758	13	C9H10NO+
148.112	57	C10H14N+
150.0914	23	C9H12NO+
150.1277	292	C10H16N+
152.1069	53	C9H14NO+
152.1433	32	C10H18N+
159.1167	8	C12H15+
162.0914	6	C10H12NO+
162.1278	12	C11H16N+
164.1072	12	C10H14NO+
166.1225	39	C10H16NO+
174.1276	25	C12H16N+
176.1073	8	C11H14NO+
176.1433	40	C12H18N+
178.1222	9	C11H16NO+
188.143	9	C13H18N+
189.1386	54	C12H17N2+
190.1592	13	C13H20N+
200.1433	10	C14H18N+
204.1382	120	C13H18NO+
206.1538	24	C13H20NO+
218.1538	31	C14H20NO+
220.1696	5	C14H22NO+
221.2021	7	C14H25N2+
229.1701	5	C15H21N2+
231.1854	368	C15H23N2+
