Mass spectrum: Aconitin; LC-ESI-ITFT; MS2; CE: 35%; R=15000; [M+H]+
Name: Aconitin
Name: Aconitine
Name: [(1S,2R,3R,4R,5R,6S,7S,8R,9R,13R,14R,16S,17S,18R)-8-acetyloxy-11-ethyl-5,7,14-trihydroxy-6,16,18-trimethoxy-13-(methoxymethyl)-11-azahexacyclo[7.7.2.12,5.01,10.03,8.013,17]nonadecan-4-yl] benzoate
Formula: C34H47NO11
Exact mass: 645.3149
SMILES: CCN1C[C@@]2([C@@H](C[C@@H]([C@@]34[C@@H]2[C@H]([C@@H](C31)[C@@]5([C@@H]6[C@H]4C[C@@]([C@@H]6OC(=O)C7=CC=CC=C7)([C@H]([C@@H]5O)OC)O)OC(=O)C)OC)OC)O)COC
InChI: InChI=1S/C34H47NO11/c1-7-35-15-31(16-41-3)20(37)13-21(42-4)33-19-14-32(40)28(45-30(39)18-11-9-8-10-12-18)22(19)34(46-17(2)36,27(38)29(32)44-6)23(26(33)35)24(43-5)25(31)33/h8-12,19-29,37-38,40H,7,13-16H2,1-6H3/t19-,20-,21+,22-,23+,24+,25-,26?,27+,28-,29+,31+,32-,33+,34-/m1/s1
Instrument: LTQ Orbitrap XL Thermo Scientific
Instrument type: LC-ESI-ITFT
Ms type: MS2
Ion mode: POSITIVE
Ionization: ESI
Fragmentation mode: HCD
Collision energy: 35% (nominal)
Resolution: 15000
Column name: Kinetex Evo C18 2.6 um 50 x 2.1 mm
Retention time: 9.743 min
Base peak: 116.9858
Precursor m/z: 646.3222
Precursor type: [M+H]+
m/z	relative intensity	assigned
105.0334	156	C7H5O+
111.0804	17	C7H11O+
142.1226	15	C8H16NO+
152.1071	9	C9H14NO+
233.0959	10	C17H13O+
251.1063	8	C17H15O2+
259.0958	7	C15H15O4+
261.0919	9	C18H13O2+
265.1218	10	C18H17O2+
293.1162	17	C19H17O3+
350.1748	22	C22H24NO3+
355.1545	6	C21H23O5+
368.1852	197	C22H26NO4+
372.2159	9	C22H30NO4+
404.2422	25	C23H34NO5+
405.2448	6	C30H31N+
476.2451	9	C29H34NO5+
490.2238	10	C29H32NO6+
494.2531	25	C29H36NO6+
504.2384	28	C30H34NO6+
522.0255	8	C31H8NO8+
522.2475	36	C30H36NO7+
526.2794	162	C30H40NO7+
536.2636	82	C31H38NO7+
537.2672	30	C28H41O10+
554.2744	191	C31H40NO8+
555.2785	67	C28H43O11+
568.2894	10	C32H42NO8+
586.3009	999	C32H44NO9+
596.2856	29	C33H42NO9+
614.2958	10	C33H44NO10+
646.3226	575	C34H48NO11+
