Mass spectrum: Valerophenone; LC-ESI-ITFT; MS2; CE: 50%; R=15000; [M+H]+
Name: Valerophenone
Formula: C11H14O
Exact mass: 162.1045
SMILES: CCCCC(=O)C1=CC=CC=C1
InChI: InChI=1S/C11H14O/c1-2-3-9-11(12)10-7-5-4-6-8-10/h4-8H,2-3,9H2,1H3
Instrument: LTQ Orbitrap XL Thermo Scientific
Instrument type: LC-ESI-ITFT
Ms type: MS2
Ion mode: POSITIVE
Ionization: ESI
Fragmentation mode: CID
Collision energy: 50 % (nominal)
Resolution: 15000
Column name: Kinetex Evo C18 2.6 um 50 x 2.1 mm
Retention time: 11.605 min
Base peak: 440.3516
Precursor m/z: 163.1117
Precursor type: [M+H]+
m/z	relative intensity	assigned
57.0698	800	C4H9+
67.0543	7	C5H7+
71.0492	5	C4H7O+
79.0543	77	C6H7+
85.0649	483	C5H9O+
91.0543	241	C7H7+
93.0702	5	C7H9+
105.0699	124	C8H9+
107.0492	731	C7H7O+
117.07	76	C9H9+
119.0856	49	C9H11+
121.0649	156	C8H9O+
135.1169	7	C10H15+
145.1013	999	C11H13+
