Mass spectrum: Echimidine; LC-ESI-ITFT; MS2; CE: 80%; R=15000; [M+H]+
Name: Echimidine
Name: [(7R,8R)-7-[(Z)-2-methylbut-2-enoyl]oxy-5,6,7,8-tetrahydro-3H-pyrrolizin-1-yl]methyl (2R)-2,3-dihydroxy-2-[(1S)-1-hydroxyethyl]-3-methylbutanoate
Formula: C20H31NO7
Exact mass: 397.2101
SMILES: C/C=C(/C)\C(=O)O[C@@H]1CCN2[C@@H]1C(=CC2)COC(=O)[C@@]([C@H](C)O)(C(C)(C)O)O
InChI: InChI=1S/C20H31NO7/c1-6-12(2)17(23)28-15-8-10-21-9-7-14(16(15)21)11-27-18(24)20(26,13(3)22)19(4,5)25/h6-7,13,15-16,22,25-26H,8-11H2,1-5H3/b12-6-/t13-,15+,16+,20-/m0/s1
Instrument: LTQ Orbitrap XL Thermo Scientific
Instrument type: LC-ESI-ITFT
Ms type: MS2
Ion mode: POSITIVE
Ionization: ESI
Fragmentation mode: HCD
Collision energy: 80% (nominal)
Resolution: 15000
Column name: Kinetex Evo C18 2.6 um 50 x 2.1 mm
Retention time: 6.486 min
Base peak: 398.2172
Precursor m/z: 398.2173
Precursor type: [M+H]+
m/z	relative intensity	assigned
55.0541	42	C4H7+
67.0415	3	C4H5N+
67.0542	6	C5H7+
68.0493	9	C4H6N+
77.0385	15	C6H5+
79.0542	21	C6H7+
80.0494	42	C5H6N+
82.0651	7	C5H8N+
83.0491	216	C5H7O+
91.0542	37	C7H7+
92.0495	22	C6H6N+
93.0698	59	C7H9+
94.065	36	C6H8N+
95.0727	10	C6H9N+
96.0808	18	C6H10N+
103.0541	35	C8H7+
105.0572	28	C7H7N+
106.0649	8	C7H8N+
108.0807	24	C7H10N+
110.0602	9	C6H8NO+
110.0964	6	C7H12N+
118.0651	43	C8H8N+
119.0728	10	C8H9N+
120.0807	999	C8H10N+
121.0885	18	C8H11N+
122.0963	10	C8H12N+
138.0912	72	C8H12NO+
156.1018	8	C8H14NO2+
168.1019	3	C9H14NO2+
238.1434	17	C13H20NO3+
