Mass spectrum: Senkirkine; LC-ESI-ITFT; MS2; CE: 55%; R=15000; [M+H]+
Name: Senkirkine
Name: (1R,4Z,6R,7R,11Z)-4-ethylidene-7-hydroxy-6,7,14-trimethyl-2,9-dioxa-14-azabicyclo[9.5.1]heptadec-11-ene-3,8,17-trione
Formula: C19H27NO6
Exact mass: 365.1838
SMILES: C/C=C\1/C[C@H]([C@@](C(=O)OC/C/2=C/CN(CC[C@H](C2=O)OC1=O)C)(C)O)C
InChI: InChI=1S/C19H27NO6/c1-5-13-10-12(2)19(3,24)18(23)25-11-14-6-8-20(4)9-7-15(16(14)21)26-17(13)22/h5-6,12,15,24H,7-11H2,1-4H3/b13-5-,14-6-/t12-,15-,19-/m1/s1
Instrument: LTQ Orbitrap XL Thermo Scientific
Instrument type: LC-ESI-ITFT
Ms type: MS2
Ion mode: POSITIVE
Ionization: ESI
Fragmentation mode: HCD
Collision energy: 55% (nominal)
Resolution: 15000
Column name: Kinetex Evo C18 2.6 um 50 x 2.1 mm
Retention time: 6.344 min
Base peak: 366.1909
Precursor m/z: 366.1911
Precursor type: [M+H]+
m/z	relative intensity	assigned
53.0385	3	C4H5+
55.0541	8	C4H7+
59.0491	1	C3H7O+
67.0542	6	C5H7+
69.0335	2	C4H5O+
70.0651	106	C4H8N+
79.0542	23	C6H7+
81.0335	4	C5H5O+
81.0699	28	C6H9+
83.0491	24	C5H7O+
91.0543	5	C7H7+
93.0699	7	C7H9+
94.0651	29	C6H8N+
95.0493	5	C6H7O+
96.0808	16	C6H10N+
97.0649	15	C6H9O+
98.06	9	C5H8NO+
99.0441	8	C5H7O2+
101.0597	35	C5H9O2+
105.0702	2	C8H9+
107.0491	153	C7H7O+
107.0855	89	C8H11+
108.0807	7	C7H10N+
109.0648	19	C7H9O+
109.1012	39	C8H13+
110.0601	8	C6H8NO+
111.0807	3	C7H11O+
112.0758	2	C6H10NO+
116.0707	18	C5H10NO2+
120.0809	14	C8H10N+
122.0601	260	C7H8NO+
122.0964	85	C8H12N+
123.0679	29	C7H9NO+
124.0757	57	C7H10NO+
125.0597	60	C7H9O2+
125.0835	6	C7H11NO+
125.0961	95	C8H13O+
126.0915	4	C7H12NO+
132.0806	3	C9H10N+
135.0804	79	C9H11O+
136.0763	2	C8H10NO+
137.0596	7	C8H9O2+
137.0835	12	C8H11NO+
137.096	14	C9H13O+
138.0913	8	C8H12NO+
139.0749	2	C8H11O2+
140.0706	41	C7H10NO2+
140.107	16	C8H14NO+
150.0914	303	C9H12NO+
152.107	4	C9H14NO+
153.091	173	C9H13O2+
163.0755	5	C10H11O2+
166.0859	2	C9H12NO2+
168.1019	999	C9H14NO2+
181.0859	12	C10H13O3+
186.1127	6	C9H16NO3+
250.1439	3	C14H20NO3+
268.1552	2	C14H22NO4+
304.1902	2	C18H26NO3+
320.1852	5	C18H26NO4+
338.1968	4	C18H28NO5+
348.1804	7	C19H26NO5+
366.1911	229	C19H28NO6+
