Mass spectrum: Aconitin; LC-ESI-ITFT; MS2; CE: 45%; R=15000; [M+H]+
Name: Aconitin
Name: Aconitine
Name: [(1S,2R,3R,4R,5R,6S,7S,8R,9R,13R,14R,16S,17S,18R)-8-acetyloxy-11-ethyl-5,7,14-trihydroxy-6,16,18-trimethoxy-13-(methoxymethyl)-11-azahexacyclo[7.7.2.12,5.01,10.03,8.013,17]nonadecan-4-yl] benzoate
Formula: C34H47NO11
Exact mass: 645.3149
SMILES: CCN1C[C@@]2([C@@H](C[C@@H]([C@@]34[C@@H]2[C@H]([C@@H](C31)[C@@]5([C@@H]6[C@H]4C[C@@]([C@@H]6OC(=O)C7=CC=CC=C7)([C@H]([C@@H]5O)OC)O)OC(=O)C)OC)OC)O)COC
InChI: InChI=1S/C34H47NO11/c1-7-35-15-31(16-41-3)20(37)13-21(42-4)33-19-14-32(40)28(45-30(39)18-11-9-8-10-12-18)22(19)34(46-17(2)36,27(38)29(32)44-6)23(26(33)35)24(43-5)25(31)33/h8-12,19-29,37-38,40H,7,13-16H2,1-6H3/t19-,20-,21+,22-,23+,24+,25-,26?,27+,28-,29+,31+,32-,33+,34-/m1/s1
Instrument: LTQ Orbitrap XL Thermo Scientific
Instrument type: LC-ESI-ITFT
Ms type: MS2
Ion mode: POSITIVE
Ionization: ESI
Fragmentation mode: HCD
Collision energy: 45% (nominal)
Resolution: 15000
Column name: Kinetex Evo C18 2.6 um 50 x 2.1 mm
Retention time: 9.743 min
Base peak: 116.9858
Precursor m/z: 646.3222
Precursor type: [M+H]+
m/z	relative intensity	assigned
71.0489	10	C4H7O+
75.0441	35	C3H7O2+
79.0543	7	C6H7+
84.0812	8	C5H10N+
85.0283	8	C4H5O2+
102.0912	12	C5H12NO+
105.0335	999	C7H5O+
108.0806	19	C7H10N+
109.0648	18	C7H9O+
110.0964	36	C7H12N+
111.0804	73	C7H11O+
113.0836	7	C6H11NO+
117.07	19	C9H9+
121.0649	10	C8H9O+
122.0967	15	C8H12N+
129.0698	16	C10H9+
131.0857	18	C10H11+
137.0596	18	C8H9O2+
140.1071	20	C8H14NO+
141.091	12	C8H13O2+
142.1228	49	C8H16NO+
145.0644	6	C10H9O+
147.044	9	C9H7O2+
147.0803	13	C10H11O+
152.107	50	C9H14NO+
155.086	10	C12H11+
157.0653	7	C11H9O+
159.0804	15	C11H11O+
161.0955	11	C11H13O+
165.0545	11	C9H9O3+
174.0916	44	C11H12NO+
179.0856	14	C14H11+
184.1124	9	C13H14N+
185.0955	8	C13H13O+
186.1279	12	C13H16N+
188.071	15	C11H10NO2+
190.087	12	C11H12NO2+
190.1228	12	C12H16NO+
193.1005	13	C15H13+
195.0803	9	C14H11O+
202.0864	17	C12H12NO2+
203.0944	8	C12H13NO2+
205.1013	22	C16H13+
207.0806	8	C15H11O+
207.1177	8	C16H15+
209.0963	14	C15H13O+
213.0917	6	C14H13O2+
216.1375	8	C14H18NO+
217.1017	11	C17H13+
218.154	58	C14H20NO+
219.0812	7	C16H11O+
221.0965	13	C16H13O+
223.1118	13	C16H15O+
225.0912	10	C15H13O2+
229.0851	7	C14H13O3+
233.096	39	C17H13O+
235.1116	31	C17H15O+
236.1636	8	C14H22NO2+
237.0911	13	C16H13O2+
245.0963	11	C18H13O+
249.0916	12	C17H13O2+
251.1063	33	C17H15O2+
259.0966	35	C15H15O4+
261.0911	33	C18H13O2+
263.1068	30	C18H15O2+
265.1222	32	C18H17O2+
275.1054	12	C19H15O2+
279.1018	23	C18H15O3+
283.133	13	C18H19O3+
293.1173	37	C19H17O3+
294.1494	7	C19H20NO2+
295.1336	12	C19H19O3+
306.1482	13	C20H20NO2+
318.1482	17	C21H20NO2+
322.1815	14	C21H24NO2+
325.1432	24	C20H21O4+
326.2116	11	C21H28NO2+
336.1606	11	C21H22NO3+
340.1908	66	C21H26NO3+
344.2224	21	C21H30NO3+
350.1752	43	C22H24NO3+
351.1808	8	C19H27O6+
354.2061	47	C22H28NO3+
355.2117	8	C19H31O6+
368.1857	668	C22H26NO4+
369.1893	122	C19H29O7+
372.2168	91	C22H30NO4+
376.2481	36	C22H34NO4+
382.2014	20	C23H28NO4+
386.2334	21	C23H32NO4+
400.2113	21	C23H30NO5+
404.243	158	C23H34NO5+
405.2461	28	C30H31N+
414.2282	16	C24H32NO5+
418.2215	9	C23H32NO6+
462.2266	21	C28H32NO5+
472.2109	16	C29H30NO5+
476.2436	62	C29H34NO5+
478.222	19	C28H32NO6+
490.2224	35	C29H32NO6+
494.2536	106	C29H36NO6+
495.2577	30	C26H39O9+
504.2381	54	C30H34NO6+
505.2409	16	C27H37O9+
508.2708	10	C30H38NO6+
510.2506	10	C29H36NO7+
522.0437	8	C28H12NO10+
522.2484	96	C30H36NO7+
523.252	22	C27H39O10+
526.2804	234	C30H40NO7+
527.283	71	C27H43O10+
536.2647	98	C31H38NO7+
537.2675	31	C28H41O10+
554.2753	206	C31H40NO8+
555.2789	58	C28H43O11+
568.2899	14	C32H42NO8+
586.3019	354	C32H44NO9+
646.3254	31	C34H48NO11+
