Mass spectrum: (+)-Isocorydin; LC-ESI-ITFT; MS2; CE: 80%; R=15000; [M+H]+
Name: (+)-Isocorydin
Name: Isocorydine
Name: (6aS)-1,2,10-trimethoxy-6-methyl-5,6,6a,7-tetrahydro-4H-dibenzo[de,g]quinolin-11-ol
Formula: C20H23NO4
Exact mass: 341.1627
SMILES: CN1CCC2=CC(=C(C3=C2[C@@H]1CC4=C3C(=C(C=C4)OC)O)OC)OC
InChI: InChI=1S/C20H23NO4/c1-21-8-7-12-10-15(24-3)20(25-4)18-16(12)13(21)9-11-5-6-14(23-2)19(22)17(11)18/h5-6,10,13,22H,7-9H2,1-4H3/t13-/m0/s1
Instrument: LTQ Orbitrap XL Thermo Scientific
Instrument type: LC-ESI-ITFT
Ms type: MS2
Ion mode: POSITIVE
Ionization: ESI
Fragmentation mode: HCD
Collision energy: 80% (nominal)
Resolution: 15000
Column name: Kinetex Evo C18 2.6 um 50 x 2.1 mm
Retention time: 6.274 min
Base peak: 342.1698
Precursor m/z: 342.17
Precursor type: [M+H]+
m/z	relative intensity	assigned
152.0621	12	C12H8+
153.0699	15	C12H9+
165.0699	196	C13H9+
166.0778	66	C13H10+
167.0852	17	C13H11+
177.07	53	C14H9+
178.0777	249	C14H10+
179.0856	205	C14H11+
180.0576	6	C13H8O+
180.0934	86	C14H12+
181.0649	50	C13H9O+
181.1009	9	C14H13+
182.0724	15	C13H10O+
189.07	129	C15H9+
190.0777	262	C15H10+
191.0856	563	C15H11+
192.0938	45	C15H12+
193.0648	260	C14H9O+
193.1012	41	C15H13+
194.0727	176	C14H10O+
195.0803	37	C14H11O+
196.0881	11	C14H12O+
197.0958	15	C14H13O+
201.0699	34	C16H9+
202.0777	82	C16H10+
203.0856	75	C16H11+
204.0576	12	C15H8O+
204.0938	9	C16H12+
205.0648	198	C15H9O+
206.0727	271	C15H10O+
207.0805	527	C15H11O+
208.0884	258	C15H12O+
209.0598	44	C14H9O2+
209.0962	118	C15H13O+
210.0676	62	C14H10O2+
217.0648	64	C16H9O+
218.0727	169	C16H10O+
219.0805	452	C16H11O+
220.0514	21	C15H8O2+
220.0888	79	C16H12O+
221.0597	381	C15H9O2+
221.0961	76	C16H13O+
222.0677	197	C15H10O2+
222.1045	20	C16H14O+
223.0757	49	C15H11O2+
223.1118	19	C16H15O+
224.0834	43	C15H12O2+
225.0911	75	C15H13O2+
226.0627	14	C14H10O3+
231.0805	180	C17H11O+
233.0597	96	C16H9O2+
233.0962	25	C17H13O+
234.0678	71	C16H10O2+
235.0754	605	C16H11O2+
236.0832	999	C16H12O2+
237.0911	614	C16H13O2+
238.0623	596	C15H10O3+
245.0597	10	C17H9O2+
246.0674	51	C17H10O2+
247.0754	685	C17H11O2+
248.0836	180	C17H12O2+
249.0546	83	C16H9O3+
249.0916	43	C17H13O2+
250.0628	43	C16H10O3+
250.0994	23	C17H14O2+
251.0704	30	C16H11O3+
251.1066	35	C17H15O2+
252.0787	29	C16H12O3+
253.0859	621	C16H13O3+
261.0911	11	C18H13O2+
263.0704	172	C17H11O3+
264.0782	248	C17H12O3+
265.0859	685	C17H13O3+
266.0571	27	C16H10O4+
267.1017	15	C17H15O3+
277.0855	20	C18H13O3+
279.1017	46	C18H15O3+
281.0808	172	C17H13O4+
