Mass spectrum: (-)-Scopolamine; LC-ESI-ITFT; MS2; CE: 60%; R=15000; [M+H]+
Name: (-)-Scopolamine
Formula: C17H21NO4
Exact mass: 303.1471
SMILES: CN1[C@@H]2C[C@H](C[C@H]1[C@H]3[C@@H]2O3)OC(=O)[C@H](CO)c4ccccc4
InChI: InChI=1S/C17H21NO4/c1-18-13-7-11(8-14(18)16-15(13)22-16)21-17(20)12(9-19)10-5-3-2-4-6-10/h2-6,11-16,19H,7-9H2,1H3/t11-,12-,13-,14+,15-,16+/m1/s1
Instrument: LTQ Orbitrap XL Thermo Scientific
Instrument type: LC-ESI-ITFT
Ms type: MS2
Ion mode: POSITIVE
Ionization: ESI
Fragmentation mode: HCD
Collision energy: 60% (nominal)
Resolution: 15000
Column name: Kinetex Evo C18 2.6 um 50 x 2.1 mm
Retention time: 1.115 min
Base peak: 143.0015
Precursor m/z: 304.1543
Precursor type: [M+H]+
m/z	relative intensity	assigned
67.0542	8	C5H7+
70.0651	21	C4H8N+
72.0444	5	C3H6NO+
74.0599	6	C3H8NO+
79.0542	101	C6H7+
81.0335	17	C5H5O+
81.0699	18	C6H9+
82.0651	35	C5H8N+
83.0491	20	C5H7O+
84.0807	37	C5H10N+
91.0542	17	C7H7+
93.0699	34	C7H9+
94.0651	29	C6H8N+
95.0727	4	C6H9N+
96.0443	19	C5H6NO+
96.0808	27	C6H10N+
97.0522	37	C5H7NO+
97.0648	6	C6H9O+
98.06	131	C5H8NO+
103.0542	375	C8H7+
107.0491	9	C7H7O+
108.0807	10	C7H10N+
109.0888	3	C7H11N+
110.06	38	C6H8NO+
110.0964	205	C7H12N+
115.0627	4	C5H9NO2+
120.0808	27	C8H10N+
121.0648	490	C8H9O+
123.0677	3	C7H9NO+
138.0913	999	C8H12NO+
154.0861	3	C8H12NO2+
156.1019	273	C8H14NO2+
304.1543	32	C17H22NO4+
