Mass spectrum: 6-beta-Hydroxycortisol; LC-ESI-ITFT; MS2; CE: 55%; R=15000; [M+H]+
Name: 6-beta-Hydroxycortisol
Name: 6beta-Hydroxycortisol
Name: (6R,8S,9S,10R,11S,13S,14S,17R)-6,11,17-trihydroxy-17-(2-hydroxyacetyl)-10,13-dimethyl-2,6,7,8,9,11,12,14,15,16-decahydro-1H-cyclopenta[a]phenanthren-3-one
Formula: C21H30O6
Exact mass: 378.2042
SMILES: C[C@]12C[C@H](O)[C@H]3[C@@H](C[C@@H](O)C4=CC(=O)CC[C@]34C)[C@@H]1CC[C@]2(O)C(=O)CO
InChI: InChI=1S/C21H30O6/c1-19-5-3-11(23)7-14(19)15(24)8-12-13-4-6-21(27,17(26)10-22)20(13,2)9-16(25)18(12)19/h7,12-13,15-16,18,22,24-25,27H,3-6,8-10H2,1-2H3/t12-,13-,15+,16-,18+,19-,20-,21-/m0/s1
Instrument: LTQ Orbitrap XL Thermo Scientific
Instrument type: LC-ESI-ITFT
Ms type: MS2
Ion mode: POSITIVE
Ionization: ESI
Fragmentation mode: CID
Collision energy: 55 % (nominal)
Resolution: 15000
Column name: Kinetex Evo C18 2.6 um 50 x 2.1 mm
Retention time: 6.513 min
Base peak: 379.2118
Precursor m/z: 379.2115
Precursor type: [M+H]+
m/z	relative intensity	assigned
121.0652	8	C8H9O+
135.0808	4	C9H11O+
137.0602	6	C8H9O2+
143.0858	6	C11H11+
145.1015	7	C11H13+
147.0806	9	C10H11O+
157.1017	8	C12H13+
159.0812	7	C11H11O+
161.0969	11	C11H13O+
163.1121	3	C11H15O+
169.1017	9	C13H13+
171.0809	16	C12H11O+
171.1166	6	C13H15+
173.0968	21	C12H13O+
175.1125	8	C12H15O+
181.1013	9	C14H13+
183.117	10	C14H15+
185.0968	9	C13H13O+
187.1126	19	C13H15O+
189.0918	10	C12H13O2+
193.1017	6	C15H13+
195.1171	13	C15H15+
197.0967	18	C14H13O+
197.1332	10	C15H17+
199.1124	24	C14H15O+
201.1273	5	C14H17O+
205.1004	4	C16H13+
207.1175	24	C16H15+
209.0969	6	C15H13O+
209.1331	16	C16H17+
211.1123	19	C15H15O+
211.148	7	C16H19+
213.128	23	C15H17O+
215.1075	14	C14H15O2+
217.123	29	C14H17O2+
219.1174	8	C17H15+
221.1329	34	C17H17+
223.112	21	C16H15O+
223.1486	15	C17H19+
225.1277	20	C16H17O+
225.163	4	C17H21+
227.1436	16	C16H19O+
229.1232	17	C15H17O2+
231.1161	4	C18H15+
233.1334	4	C18H17+
235.1489	17	C18H19+
237.1279	67	C17H17O+
237.1643	16	C18H21+
239.1436	162	C17H19O+
241.1227	11	C16H17O2+
241.1595	25	C17H21O+
245.1327	18	C19H17+
247.1332	19	C15H19O3+
247.1486	74	C19H19+
249.1279	62	C18H17O+
249.1641	25	C19H21+
251.1432	16	C18H19O+
253.1594	24	C18H21O+
255.1382	27	C17H19O2+
255.1753	17	C18H23O+
257.1542	42	C17H21O2+
261.1645	45	C20H21+
263.1436	54	C19H19O+
265.1593	207	C19H21O+
267.1386	50	C18H19O2+
267.1749	168	C19H23O+
269.154	20	C18H21O2+
269.1901	14	C19H25O+
271.1336	7	C17H19O3+
271.1489	19	C21H19+
277.1594	57	C20H21O+
279.1384	10	C19H19O2+
279.1748	148	C20H23O+
281.1542	36	C19H21O2+
283.1698	319	C19H23O2+
285.149	16	C18H21O3+
285.1854	122	C19H25O2+
289.1592	134	C21H21O+
295.1698	203	C20H23O2+
297.1855	205	C20H25O2+
299.165	20	C19H23O3+
301.1803	57	C19H25O3+
303.1958	10	C19H27O3+
307.1698	422	C21H23O2+
313.1804	499	C20H25O3+
315.1958	47	C20H27O3+
317.1753	14	C19H25O4+
325.1803	793	C21H25O3+
331.1907	161	C20H27O4+
343.1907	999	C21H27O4+
349.201	49	C20H29O5+
361.2012	641	C21H29O5+
