Mass spectrum: Galantamine; LC-ESI-ITFT; MS2; CE: 30%; R=15000; [M+H]+
Name: Galantamine
Formula: C17H21NO3
Exact mass: 287.1521
SMILES: CN1CCC23C=CC(CC2OC4=C(C=CC(=C34)C1)OC)O
InChI: InChI=1S/C17H21NO3/c1-18-8-7-17-6-5-12(19)9-14(17)21-16-13(20-2)4-3-11(10-18)15(16)17/h3-6,12,14,19H,7-10H2,1-2H3
Instrument: LTQ Orbitrap XL Thermo Scientific
Instrument type: LC-ESI-ITFT
Ms type: MS2
Ion mode: POSITIVE
Ionization: ESI
Fragmentation mode: CID
Collision energy: 30 % (nominal)
Resolution: 15000
Column name: Kinetex Evo C18 2.6 um 50 x 2.1 mm
Retention time: 1.168 min
Base peak: 220.1188
Precursor m/z: 288.1594
Precursor type: [M+H]+
m/z	relative intensity	assigned
151.0992	6	C9H13NO+
179.0854	10	C14H11+
181.1011	10	C14H13+
189.0915	5	C12H13O2+
197.0958	14	C14H13O+
199.0754	7	C13H11O2+
203.1059	3	C13H15O2+
207.0806	4	C15H11O+
209.0961	199	C15H13O+
211.1118	6	C15H15O+
213.091	247	C14H13O2+
216.102	11	C13H14NO2+
220.1125	15	C16H14N+
221.0959	14	C16H13O+
225.0911	162	C15H13O2+
225.1273	16	C16H17O+
227.1077	4	C15H15O2+
231.1017	198	C14H15O3+
239.1067	50	C16H15O2+
241.1222	16	C16H17O2+
253.1225	25	C17H17O2+
255.1246	3	C16H17NO2+
257.1178	11	C16H17O3+
270.1489	999	C17H20NO2+
