Mass spectrum: Huperzin A; LC-ESI-ITFT; MS2; CE: 90%; R=15000; [M+H]+
Name: Huperzin A
Name: (-)-Huperazine A
Name: (1R,9R,13E)-1-amino-13-ethylidene-11-methyl-6-azatricyclo[7.3.1.02,7]trideca-2(7),3,10-trien-5-one
Formula: C15H18N2O
Exact mass: 242.1419
SMILES: C/C=C/1\[C@@H]2CC3=C([C@]1(CC(=C2)C)N)C=CC(=O)N3
InChI: InChI=1S/C15H18N2O/c1-3-11-10-6-9(2)8-15(11,16)12-4-5-14(18)17-13(12)7-10/h3-6,10H,7-8,16H2,1-2H3,(H,17,18)/b11-3+/t10-,15+/m0/s1
Instrument: LTQ Orbitrap XL Thermo Scientific
Instrument type: LC-ESI-ITFT
Ms type: MS2
Ion mode: POSITIVE
Ionization: ESI
Fragmentation mode: HCD
Collision energy: 90% (nominal)
Resolution: 15000
Column name: Kinetex Evo C18 2.6 um 50 x 2.1 mm
Retention time: 1.533 min
Base peak: 143.0016
Precursor m/z: 243.1492
Precursor type: [M+H]+
m/z	relative intensity	assigned
110.0599	99	C6H8NO+
119.0733	138	C8H9N+
134.0965	164	C9H12N+
153.0694	69	C12H9+
154.0656	106	C11H8N+
165.0698	194	C13H9+
166.0781	123	C13H10+
168.0808	197	C12H10N+
178.0655	183	C13H8N+
181.101	97	C14H13+
182.0599	73	C12H8NO+
182.096	77	C13H12N+
187.0866	212	C11H11N2O+
191.0723	77	C14H9N+
192.0809	222	C14H10N+
193.0887	216	C14H11N+
196.0757	612	C13H10NO+
197.0832	112	C13H11NO+
208.1116	71	C15H14N+
210.0912	999	C14H12NO+
213.1026	118	C13H13N2O+
224.1068	88	C15H14NO+
226.1227	366	C15H16NO+
227.1178	535	C14H15N2O+
