Mass spectrum: alpha-Cyperone; LC-ESI-ITFT; MS2; CE: 20%; R=15000; [M+H]+
Name: alpha-Cyperone
Formula: C15H22O
Exact mass: 218.1671
SMILES: CC1=C2CC(CCC2(CCC1=O)C)C(=C)C
InChI: InChI=1S/C15H22O/c1-10(2)12-5-7-15(4)8-6-14(16)11(3)13(15)9-12/h12H,1,5-9H2,2-4H3
Instrument: LTQ Orbitrap XL Thermo Scientific
Instrument type: LC-ESI-ITFT
Ms type: MS2
Ion mode: POSITIVE
Ionization: ESI
Fragmentation mode: CID
Collision energy: 20 % (nominal)
Resolution: 15000
Column name: Kinetex Evo C18 2.6 um 50 x 2.1 mm
Retention time: 13.069 min
Base peak: 219.174
Precursor m/z: 219.1743
Precursor type: [M+H]+
m/z	relative intensity	assigned
67.0541	4	C5H7+
79.0542	3	C6H7+
81.0699	10	C6H9+
91.0543	3	C7H7+
93.0699	8	C7H9+
95.0856	38	C7H11+
97.0648	47	C6H9O+
105.0699	24	C8H9+
107.0855	30	C8H11+
109.0649	5	C7H9O+
109.1012	75	C8H13+
111.0804	72	C7H11O+
119.0855	35	C9H11+
121.0646	4	C8H9O+
121.1011	26	C9H13+
123.0804	31	C8H11O+
123.1169	27	C9H15+
125.0961	7	C8H13O+
131.0855	18	C10H11+
133.1011	12	C10H13+
135.0804	26	C9H11O+
135.1168	18	C10H15+
137.0961	7	C9H13O+
137.1326	1	C10H17+
139.1122	1	C9H15O+
145.1012	91	C11H13+
147.1168	40	C11H15+
149.0961	25	C10H13O+
149.1322	7	C11H17+
151.1119	1	C10H15O+
159.1168	90	C12H15+
161.1325	70	C12H17+
163.1117	192	C11H15O+
173.1325	70	C13H17+
175.1481	20	C13H19+
176.1199	2	C12H16O+
177.1274	18	C12H17O+
177.1638	10	C13H21+
191.1431	7	C13H19O+
191.1794	13	C14H23+
201.1638	228	C15H21+
219.1743	999	C15H23O+
