Mass spectrum: Seneciphylline; LC-ESI-ITFT; MS2; CE: 65%; R=15000; [M+H]+
Name: Seneciphylline
Name: (1R,4Z,7R,17R)-4-ethylidene-7-hydroxy-7-methyl-6-methylidene-2,9-dioxa-14-azatricyclo[9.5.1.014,17]heptadec-11-ene-3,8-dione
Formula: C18H23NO5
Exact mass: 333.1576
SMILES: C/C=C\1/CC(=C)[C@@](C(=O)OCC2=CCN3[C@H]2[C@@H](CC3)OC1=O)(C)O
InChI: InChI=1S/C18H23NO5/c1-4-12-9-11(2)18(3,22)17(21)23-10-13-5-7-19-8-6-14(15(13)19)24-16(12)20/h4-5,14-15,22H,2,6-10H2,1,3H3/b12-4-/t14-,15-,18-/m1/s1
Instrument: LTQ Orbitrap XL Thermo Scientific
Instrument type: LC-ESI-ITFT
Ms type: MS2
Ion mode: POSITIVE
Ionization: ESI
Fragmentation mode: HCD
Collision energy: 65% (nominal)
Resolution: 15000
Column name: Kinetex Evo C18 2.6 um 50 x 2.1 mm
Retention time: 2.029 min
Base peak: 143.0015
Precursor m/z: 334.1649
Precursor type: [M+H]+
m/z	relative intensity	assigned
65.0387	17	C5H5+
67.0542	160	C5H7+
68.0494	78	C4H6N+
77.0386	48	C6H5+
79.0542	128	C6H7+
80.0495	178	C5H6N+
81.0573	48	C5H7N+
81.0699	161	C6H9+
82.0651	142	C5H8N+
84.0444	24	C4H6NO+
91.0542	249	C7H7+
92.0495	32	C6H6N+
93.0573	22	C6H7N+
93.0699	268	C7H9+
94.0651	852	C6H8N+
95.0492	21	C6H7O+
95.073	35	C6H9N+
95.0855	84	C7H11+
96.0808	338	C6H10N+
103.0542	136	C8H7+
105.0574	14	C7H7N+
105.0698	154	C8H9+
106.0653	45	C7H8N+
107.073	82	C7H9N+
107.0855	48	C8H11+
108.0808	286	C7H10N+
109.0648	253	C7H9O+
109.0887	24	C7H11N+
110.06	46	C6H8NO+
110.0965	154	C7H12N+
112.0753	18	C6H10NO+
117.0695	19	C9H9+
118.065	114	C8H8N+
119.0724	20	C8H9N+
120.0808	991	C8H10N+
121.065	21	C8H9O+
121.0886	60	C8H11N+
122.0964	211	C8H12N+
123.0804	198	C8H11O+
133.0647	48	C9H9O+
135.0803	13	C9H11O+
136.0758	20	C8H10NO+
138.0913	999	C8H12NO+
140.1072	27	C8H14NO+
151.0754	132	C9H11O2+
156.1019	43	C8H14NO2+
246.1488	28	C15H20NO2+
306.1699	230	C17H24NO4+
334.1649	232	C18H24NO5+
