Mass spectrum: Anabasine; LC-ESI-ITFT; MS2; CE: 95%; R=15000; [M+H]+
Name: Anabasine
Formula: C10H14N2
Exact mass: 162.1157
SMILES: C1CCC(NC1)C1=CC=CN=C1
InChI: InChI=1S/C10H14N2/c1-2-7-12-10(5-1)9-4-3-6-11-8-9/h3-4,6,8,10,12H,1-2,5,7H2
Instrument: LTQ Orbitrap XL Thermo Scientific
Instrument type: LC-ESI-ITFT
Ms type: MS2
Ion mode: POSITIVE
Ionization: ESI
Fragmentation mode: HCD
Collision energy: 95 % (nominal)
Resolution: 15000
Column name: Kinetex Evo C18 2.6 um 50 x 2.1 mm
Retention time: 0.419 min
Base peak: 233.201
Precursor m/z: 163.123
Precursor type: [M+H]+
m/z	relative intensity	assigned
65.0385	58	C5H5+
67.0542	14	C5H7+
70.0651	8	C4H8N+
77.0386	8	C6H5+
79.0416	21	C5H5N+
79.0541	9	C6H7+
80.0495	87	C5H6N+
82.0651	10	C5H8N+
84.0807	36	C5H10N+
91.0542	309	C7H7+
92.0495	700	C6H6N+
93.0573	244	C6H7N+
94.0651	357	C6H8N+
103.0541	8	C8H7+
105.0696	11	C8H9+
106.065	93	C7H8N+
107.0729	19	C7H9N+
117.0573	542	C8H7N+
118.0651	999	C8H8N+
119.0728	16	C8H9N+
120.0807	157	C8H10N+
128.0622	21	C10H8+
129.0699	22	C10H9+
130.0651	488	C9H8N+
131.0729	265	C9H9N+
132.0807	69	C9H10N+
133.0886	7	C9H11N+
134.0964	99	C9H12N+
144.0808	120	C10H10N+
145.089	6	C10H11N+
146.0964	133	C10H12N+
163.1229	58	C10H15N2+
