Mass spectrum: Retrorsine N-oxide; LC-ESI-ITFT; MS2; CE: 45%; R=15000; [M+H]+
Name: Retrorsine N-oxide
Name: Unii-51819grv4U
Name: (1R,4Z,6R,7S,14S,17R)-4-ethylidene-7-hydroxy-7-(hydroxymethyl)-6-methyl-14-oxido-2,9-dioxa-14-azoniatricyclo[9.5.1.014,17]heptadec-11-ene-3,8-dione
Formula: C18H25NO7
Exact mass: 367.1631
SMILES: C/C=C\1/C[C@H]([C@@](C(=O)OCC2=CC[N@@+]3([C@H]2[C@@H](CC3)OC1=O)[O-])(CO)O)C
InChI: InChI=1S/C18H25NO7/c1-3-12-8-11(2)18(23,10-20)17(22)25-9-13-4-6-19(24)7-5-14(15(13)19)26-16(12)21/h3-4,11,14-15,20,23H,5-10H2,1-2H3/b12-3-/t11-,14-,15-,18-,19-/m1/s1
Instrument: LTQ Orbitrap XL Thermo Scientific
Instrument type: LC-ESI-ITFT
Ms type: MS2
Ion mode: POSITIVE
Ionization: ESI
Fragmentation mode: HCD
Collision energy: 45% (nominal)
Resolution: 15000
Column name: Kinetex Evo C18 2.6 um 50 x 2.1 mm
Retention time: 2.062 min
Base peak: 143.0015
Precursor m/z: 368.1704
Precursor type: [M+H]+
m/z	relative intensity	assigned
79.0543	6	C6H7+
80.0497	10	C5H6N+
81.0699	27	C6H9+
91.0545	7	C7H7+
93.0574	41	C6H7N+
93.0701	4	C7H9+
94.0652	54	C6H8N+
95.073	120	C6H9N+
95.0858	8	C7H11+
98.0602	7	C5H8NO+
105.0704	5	C8H9+
106.0652	27	C7H8N+
108.0808	26	C7H10N+
109.0648	9	C7H9O+
109.0887	7	C7H11N+
112.0759	15	C6H10NO+
118.0652	229	C8H8N+
119.0731	169	C8H9N+
120.0809	190	C8H10N+
121.0887	126	C8H11N+
122.0965	42	C8H12N+
123.0805	20	C8H11O+
124.0759	5	C7H10NO+
125.0962	6	C8H13O+
136.0758	184	C8H10NO+
137.0836	48	C8H11NO+
138.0914	120	C8H12NO+
139.0758	6	C8H11O2+
139.099	5	C8H13NO+
140.107	6	C8H14NO+
151.0754	16	C9H11O2+
152.1073	5	C9H14NO+
154.0863	81	C8H12NO2+
169.0859	19	C9H13O3+
178.1225	13	C11H16NO+
218.1179	16	C13H16NO2+
218.154	8	C14H20NO+
220.1335	133	C13H18NO2+
227.1285	8	C12H19O4+
246.1492	44	C15H20NO2+
248.1646	20	C15H22NO2+
270.134	5	C13H20NO5+
292.1552	6	C16H22NO4+
306.1705	8	C17H24NO4+
320.1494	7	C17H22NO5+
338.1605	17	C17H24NO6+
340.1755	52	C17H26NO6+
368.1707	999	C18H26NO7+
