Mass spectrum: Erucifoline; LC-ESI-ITFT; MS2; CE: 60%; R=15000; [M+H]+
Name: Erucifoline
Name: (5R,7S,9Z,12R,18R)-9-ethylidene-7-(hydroxymethyl)-5-methyl-3,6,11-trioxa-15-azatetracyclo[10.5.1.05,7.015,18]octadec-1(17)-ene-4,10-dione
Formula: C18H23NO6
Exact mass: 349.1525
SMILES: C/C=C\1/C[C@@]2([C@@](O2)(C(=O)OCC3=CCN4[C@H]3[C@@H](CC4)OC1=O)C)CO
InChI: InChI=1S/C18H23NO6/c1-3-11-8-18(10-20)17(2,25-18)16(22)23-9-12-4-6-19-7-5-13(14(12)19)24-15(11)21/h3-4,13-14,20H,5-10H2,1-2H3/b11-3-/t13-,14-,17+,18+/m1/s1
Instrument: LTQ Orbitrap XL Thermo Scientific
Instrument type: LC-ESI-ITFT
Ms type: MS2
Ion mode: POSITIVE
Ionization: ESI
Fragmentation mode: HCD
Collision energy: 60% (nominal)
Resolution: 15000
Column name: Kinetex Evo C18 2.6 um 50 x 2.1 mm
Retention time: 0.959 min
Base peak: 350.1597
Precursor m/z: 350.1598
Precursor type: [M+H]+
m/z	relative intensity	assigned
53.0384	5	C4H5+
55.0543	10	C4H7+
65.0385	9	C5H5+
67.0542	158	C5H7+
68.0494	73	C4H6N+
69.0335	8	C4H5O+
69.0575	7	C4H7N+
69.0699	14	C5H9+
77.0386	38	C6H5+
79.0543	83	C6H7+
80.0496	154	C5H6N+
81.0337	8	C5H5O+
81.0574	22	C5H7N+
81.0699	60	C6H9+
82.0652	125	C5H8N+
83.0492	45	C5H7O+
84.0445	12	C4H6NO+
84.0809	7	C5H10N+
86.06	10	C4H8NO+
91.0543	148	C7H7+
92.0496	23	C6H6N+
93.0699	238	C7H9+
94.0652	404	C6H8N+
95.0492	56	C6H7O+
95.073	40	C6H9N+
95.0855	35	C7H11+
96.0808	304	C6H10N+
97.0649	34	C6H9O+
99.0443	11	C5H7O2+
103.0543	95	C8H7+
105.0572	15	C7H7N+
105.0699	22	C8H9+
106.0652	61	C7H8N+
107.0496	9	C7H7O+
107.0731	18	C7H9N+
108.0808	106	C7H10N+
109.0649	100	C7H9O+
109.0886	12	C7H11N+
110.0601	37	C6H8NO+
110.0965	117	C7H12N+
111.0441	46	C6H7O2+
111.0804	16	C7H11O+
113.0599	6	C6H9O2+
118.0652	110	C8H8N+
119.073	24	C8H9N+
120.0808	999	C8H10N+
121.0648	61	C8H9O+
121.0886	99	C8H11N+
122.0965	176	C8H12N+
123.044	47	C7H7O2+
123.0808	13	C8H11O+
125.0598	44	C7H9O2+
136.0757	37	C8H10NO+
136.1122	18	C9H14N+
137.0599	26	C8H9O2+
138.0914	900	C8H12NO+
139.0392	6	C7H7O3+
139.0755	15	C8H11O2+
139.0994	9	C8H13NO+
140.1072	15	C8H14NO+
141.0548	59	C7H9O3+
146.0967	21	C10H12N+
148.1122	11	C10H14N+
149.0595	20	C9H9O2+
154.0865	13	C8H12NO2+
156.1021	22	C8H14NO2+
164.1071	119	C10H14NO+
165.0547	27	C9H9O3+
174.0905	7	C11H12NO+
182.0804	7	C9H12NO3+
182.1176	25	C10H16NO2+
192.1025	13	C11H14NO2+
220.1333	87	C13H18NO2+
322.1652	55	C17H24NO5+
350.1601	386	C18H24NO6+
