Mass spectrum: Senecivernine; LC-ESI-ITFT; MS2; CE: 45%; R=15000; [M+H]+
Name: Senecivernine
Name: (1R,5R,6R,7R,17R)-7-hydroxy-5,6,7-trimethyl-4-methylidene-2,9-dioxa-14-azatricyclo[9.5.1.014,17]heptadec-11-ene-3,8-dione
Formula: C18H25NO5
Exact mass: 335.1733
SMILES: C[C@@H]1[C@H]([C@@](C(=O)OCC2=CCN3[C@H]2[C@@H](CC3)OC(=O)C1=C)(C)O)C
InChI: InChI=1S/C18H25NO5/c1-10-11(2)16(20)24-14-6-8-19-7-5-13(15(14)19)9-23-17(21)18(4,22)12(10)3/h5,10,12,14-15,22H,2,6-9H2,1,3-4H3/t10-,12+,14+,15+,18+/m0/s1
Instrument: LTQ Orbitrap XL Thermo Scientific
Instrument type: LC-ESI-ITFT
Ms type: MS2
Ion mode: POSITIVE
Ionization: ESI
Fragmentation mode: HCD
Collision energy: 45% (nominal)
Resolution: 15000
Column name: Kinetex Evo C18 2.6 um 50 x 2.1 mm
Retention time: 3.466 min
Base peak: 143.0015
Precursor m/z: 336.1805
Precursor type: [M+H]+
m/z	relative intensity	assigned
81.07	7	C6H9+
93.0698	9	C7H9+
94.0651	17	C6H8N+
96.0809	8	C6H10N+
107.0855	4	C8H11+
108.081	8	C7H10N+
109.0646	4	C7H9O+
110.0965	3	C7H12N+
118.0651	4	C8H8N+
120.0808	134	C8H10N+
122.0965	22	C8H12N+
138.0914	93	C8H12NO+
153.0912	12	C9H13O2+
290.1761	10	C17H24NO3+
292.1905	4	C17H26NO3+
308.1857	112	C17H26NO4+
336.1808	999	C18H26NO5+
