Mass spectrum: Pilocarpine; LC-ESI-ITFT; MS2; CE: 105%; R=15000; [M+H]+
Name: Pilocarpine
Name: (3S,4R)-3-ethyl-4-[(3-methylimidazol-4-yl)methyl]oxolan-2-one
Formula: C11H16N2O2
Exact mass: 208.1212
SMILES: CC[C@H]1[C@H](COC1=O)Cc2cncn2C
InChI: InChI=1S/C11H16N2O2/c1-3-10-8(6-15-11(10)14)4-9-5-12-7-13(9)2/h5,7-8,10H,3-4,6H2,1-2H3/t8-,10-/m0/s1
Instrument: LTQ Orbitrap XL Thermo Scientific
Instrument type: LC-ESI-ITFT
Ms type: MS2
Ion mode: POSITIVE
Ionization: ESI
Fragmentation mode: HCD
Collision energy: 105% (nominal)
Resolution: 15000
Column name: Kinetex Evo C18 2.6 um 50 x 2.1 mm
Retention time: 0.620 min
Base peak: 209.1282
Precursor m/z: 209.1285
Precursor type: [M+H]+
m/z	relative intensity	assigned
68.0495	55	C4H6N+
80.0495	18	C5H6N+
81.0447	47	C4H5N2+
81.0573	12	C5H7N+
83.0604	29	C4H7N2+
94.0651	29	C6H8N+
95.0604	783	C5H7N2+
96.0682	999	C5H8N2+
97.0761	9	C5H9N2+
109.0762	31	C6H9N2+
121.0761	84	C7H9N2+
122.084	13	C7H10N2+
122.0966	9	C8H12N+
123.0917	51	C7H11N2+
133.0759	25	C8H9N2+
135.0917	40	C8H11N2+
147.0917	16	C9H11N2+
151.1227	8	C9H15N2+
163.1226	17	C10H15N2+
