Mass spectrum: 7-Acetyllycopsamine; LC-ESI-ITFT; MS2; CE: 85%; R=15000; [M+H]+
Name: 7-Acetyllycopsamine
Name: Acetyllycopsamine
Name: [(7R,8R)-7-acetyloxy-5,6,7,8-tetrahydro-3H-pyrrolizin-1-yl]methyl (2S)-2-hydroxy-2-[(1S)-1-hydroxyethyl]-3-methylbutanoate
Formula: C17H27NO6
Exact mass: 341.1838
SMILES: C[C@@H]([C@@](C(C)C)(C(=O)OCC1=CCN2[C@H]1[C@@H](CC2)OC(=O)C)O)O
InChI: InChI=1S/C17H27NO6/c1-10(2)17(22,11(3)19)16(21)23-9-13-5-7-18-8-6-14(15(13)18)24-12(4)20/h5,10-11,14-15,19,22H,6-9H2,1-4H3/t11-,14+,15+,17-/m0/s1
Instrument: LTQ Orbitrap XL Thermo Scientific
Instrument type: LC-ESI-ITFT
Ms type: MS2
Ion mode: POSITIVE
Ionization: ESI
Fragmentation mode: HCD
Collision energy: 85% (nominal)
Resolution: 15000
Column name: Kinetex Evo C18 2.6 um 50 x 2.1 mm
Retention time: 2.569 min
Base peak: 143.0015
Precursor m/z: 342.1911
Precursor type: [M+H]+
m/z	relative intensity	assigned
65.0385	6	C5H5+
67.0416	14	C4H5N+
67.0542	20	C5H7+
68.0495	16	C4H6N+
73.0649	7	C4H9O+
77.0386	33	C6H5+
79.0543	29	C6H7+
80.0495	96	C5H6N+
81.0699	11	C6H9+
82.0652	20	C5H8N+
86.06	23	C4H8NO+
91.0543	80	C7H7+
92.0495	45	C6H6N+
93.0573	17	C6H7N+
93.0699	88	C7H9+
94.0652	217	C6H8N+
95.073	44	C6H9N+
96.0808	16	C6H10N+
103.0542	64	C8H7+
104.0493	6	C7H6N+
105.0573	51	C7H7N+
106.0654	16	C7H8N+
108.0808	82	C7H10N+
110.06	19	C6H8NO+
110.0964	15	C7H12N+
112.0759	12	C6H10NO+
118.0652	75	C8H8N+
119.0731	46	C8H9N+
120.0808	999	C8H10N+
121.0886	68	C8H11N+
128.0705	26	C6H10NO2+
138.0914	92	C8H12NO+
156.1021	13	C8H14NO2+
198.1124	70	C10H16NO3+
