Mass spectrum: Retrorsine N-oxide; LC-ESI-ITFT; MS2; CE: 60%; R=15000; [M+H]+
Name: Retrorsine N-oxide
Name: Unii-51819grv4U
Name: (1R,4Z,6R,7S,14S,17R)-4-ethylidene-7-hydroxy-7-(hydroxymethyl)-6-methyl-14-oxido-2,9-dioxa-14-azoniatricyclo[9.5.1.014,17]heptadec-11-ene-3,8-dione
Formula: C18H25NO7
Exact mass: 367.1631
SMILES: C/C=C\1/C[C@H]([C@@](C(=O)OCC2=CC[N@@+]3([C@H]2[C@@H](CC3)OC1=O)[O-])(CO)O)C
InChI: InChI=1S/C18H25NO7/c1-3-12-8-11(2)18(23,10-20)17(22)25-9-13-4-6-19(24)7-5-14(15(13)19)26-16(12)21/h3-4,11,14-15,20,23H,5-10H2,1-2H3/b12-3-/t11-,14-,15-,18-,19-/m1/s1
Instrument: LTQ Orbitrap XL Thermo Scientific
Instrument type: LC-ESI-ITFT
Ms type: MS2
Ion mode: POSITIVE
Ionization: ESI
Fragmentation mode: HCD
Collision energy: 60% (nominal)
Resolution: 15000
Column name: Kinetex Evo C18 2.6 um 50 x 2.1 mm
Retention time: 2.073 min
Base peak: 368.1703
Precursor m/z: 368.1704
Precursor type: [M+H]+
m/z	relative intensity	assigned
53.0385	29	C4H5+
55.0542	11	C4H7+
67.0541	23	C5H7+
68.0494	13	C4H6N+
79.0543	65	C6H7+
80.0495	76	C5H6N+
81.0336	21	C5H5O+
81.0574	14	C5H7N+
81.0699	157	C6H9+
82.0652	28	C5H8N+
83.0492	11	C5H7O+
84.0445	20	C4H6NO+
91.0543	44	C7H7+
93.0574	409	C6H7N+
93.07	32	C7H9+
94.0652	543	C6H8N+
95.073	352	C6H9N+
95.0855	98	C7H11+
96.0808	12	C6H10N+
98.0601	41	C5H8NO+
99.0441	15	C5H7O2+
105.0699	26	C8H9+
106.0652	184	C7H8N+
107.0489	9	C7H7O+
107.073	24	C7H9N+
107.0856	30	C8H11+
108.0808	204	C7H10N+
109.0649	48	C7H9O+
109.0886	57	C7H11N+
110.0602	25	C6H8NO+
111.0441	12	C6H7O2+
111.0684	19	C6H9NO+
112.0757	78	C6H10NO+
117.0574	8	C8H7N+
118.0652	690	C8H8N+
119.073	527	C8H9N+
120.0808	881	C8H10N+
121.0651	10	C8H9O+
121.0887	142	C8H11N+
122.0965	209	C8H12N+
123.0805	121	C8H11O+
124.076	25	C7H10NO+
125.0963	14	C8H13O+
136.0757	999	C8H10NO+
137.0601	18	C8H9O2+
137.0836	105	C8H11NO+
138.0914	454	C8H12NO+
139.0754	74	C8H11O2+
141.0912	11	C8H13O2+
146.097	13	C10H12N+
148.1123	14	C10H14N+
151.0754	80	C9H11O2+
152.1071	42	C9H14NO+
154.0864	184	C8H12NO2+
164.1071	25	C10H14NO+
167.1062	18	C10H15O2+
169.0861	38	C9H13O3+
176.1073	14	C11H14NO+
178.1227	68	C11H16NO+
190.123	19	C12H16NO+
218.1174	42	C13H16NO2+
218.1542	23	C14H20NO+
220.1334	146	C13H18NO2+
227.1279	34	C12H19O4+
236.1277	13	C13H18NO3+
246.1486	42	C15H20NO2+
340.1755	49	C17H26NO6+
368.1707	186	C18H26NO7+
