Mass spectrum: Formononetin; LC-ESI-ITFT; MS2; CE: 105%; R=15000; [M+H]+
Name: Formononetin
Name: 7-hydroxy-3-(4-methoxyphenyl)chromen-4-one
Formula: C16H12O4
Exact mass: 268.0736
SMILES: COc1ccc(cc1)c2coc3cc(ccc3c2=O)O
InChI: InChI=1S/C16H12O4/c1-19-12-5-2-10(3-6-12)14-9-20-15-8-11(17)4-7-13(15)16(14)18/h2-9,17H,1H3
Instrument: LTQ Orbitrap XL Thermo Scientific
Instrument type: LC-ESI-ITFT
Ms type: MS2
Ion mode: POSITIVE
Ionization: ESI
Fragmentation mode: HCD
Collision energy: 105% (nominal)
Resolution: 15000
Column name: Kinetex Evo C18 2.6 um 50 x 2.1 mm
Retention time: 10.629 min
Base peak: 116.9859
Precursor m/z: 269.0808
Precursor type: [M+H]+
m/z	relative intensity	assigned
68.9971	32	C3HO2+
77.0387	32	C6H5+
79.0541	27	C6H7+
81.0336	61	C5H5O+
90.0464	326	C7H6+
108.0206	65	C6H4O2+
115.0542	31	C9H7+
118.0413	209	C8H6O+
128.0618	79	C10H8+
129.0697	68	C10H9+
137.0233	123	C7H5O3+
141.0699	218	C11H9+
144.0569	31	C10H8O+
152.062	159	C12H8+
153.0701	96	C12H9+
156.0562	47	C11H8O+
157.0648	28	C11H9O+
158.0731	25	C11H10O+
168.0573	29	C12H8O+
169.0648	348	C12H9O+
170.0725	133	C12H10O+
181.0648	247	C13H9O+
196.0515	29	C13H8O2+
197.0596	999	C13H9O2+
198.0666	29	C13H10O2+
200.0466	58	C12H8O3+
225.0545	351	C14H9O3+
237.054	66	C15H9O3+
253.0492	117	C15H9O4+
