Mass spectrum: Jervine; LC-ESI-ITFT; MS2; CE: 50%; R=15000; [M+H]+
Name: Jervine
Name: (3S,3`R,3`aS,6`S,6aS,6bS,7`aR,9R,11aS,11bR)-3-hydroxy-3`,6`,10,11b-tetramethylspiro[1,2,3,4,6,6a,6b,7,8,11a-decahydrobenzo[a]fluorene-9,2`-3a,4,5,6,7,7a-hexahydro-3H-furo[3,2-b]pyridine]-11-one
Formula: C27H39NO3
Exact mass: 425.2930
SMILES: C[C@H]1C[C@@H]2[C@H]([C@H]([C@]3(O2)CC[C@H]4[C@@H]5CC=C6C[C@H](CC[C@@]6([C@H]5C(=O)C4=C3C)C)O)C)NC1
InChI: InChI=1S/C27H39NO3/c1-14-11-21-24(28-13-14)16(3)27(31-21)10-8-19-20-6-5-17-12-18(29)7-9-26(17,4)23(20)25(30)22(19)15(27)2/h5,14,16,18-21,23-24,28-29H,6-13H2,1-4H3/t14-,16+,18-,19-,20-,21+,23+,24-,26-,27-/m0/s1
Instrument: LTQ Orbitrap XL Thermo Scientific
Instrument type: LC-ESI-ITFT
Ms type: MS2
Ion mode: POSITIVE
Ionization: ESI
Fragmentation mode: HCD
Collision energy: 50% (nominal)
Resolution: 15000
Column name: Kinetex Evo C18 2.6 um 50 x 2.1 mm
Retention time: 8.928 min
Base peak: 426.3
Precursor m/z: 426.3003
Precursor type: [M+H]+
m/z	relative intensity	assigned
55.0541	6	C4H7+
57.0697	6	C4H9+
67.0542	160	C5H7+
69.0698	10	C5H9+
70.0651	34	C4H8N+
79.0542	17	C6H7+
81.0699	151	C6H9+
82.0653	8	C5H8N+
83.0492	49	C5H7O+
84.0808	334	C5H10N+
85.0648	141	C5H9O+
91.0543	19	C7H7+
93.0698	47	C7H9+
95.0855	55	C7H11+
96.0808	53	C6H10N+
97.0648	10	C6H9O+
98.0965	45	C6H12N+
99.0803	7	C6H11O+
100.0757	29	C5H10NO+
101.0597	13	C5H9O2+
102.0913	116	C5H12NO+
105.0699	64	C8H9+
107.0855	91	C8H11+
109.1012	831	C8H13+
110.0962	7	C7H12N+
111.0802	9	C7H11O+
112.0757	88	C6H10NO+
114.0913	999	C6H12NO+
117.0699	12	C9H9+
119.0855	67	C9H11+
121.1012	133	C9H13+
123.0804	15	C8H11O+
123.1172	10	C9H15+
124.112	23	C8H14N+
125.0962	12	C8H13O+
126.1277	146	C8H16N+
129.0695	9	C10H9+
131.0855	47	C10H11+
133.1012	73	C10H13+
135.0801	19	C9H11O+
135.1168	25	C10H15+
137.0958	13	C9H13O+
140.107	26	C8H14NO+
143.0855	26	C11H11+
145.1012	228	C11H13+
147.0804	21	C10H11O+
147.1168	68	C11H15+
149.0961	227	C10H13O+
151.1116	19	C10H15O+
152.144	6	C10H18N+
155.0852	11	C12H11+
157.1011	97	C12H13+
159.0803	7	C11H11O+
159.1168	57	C12H15+
161.0959	15	C11H13O+
161.1322	8	C12H17+
163.1118	26	C11H15O+
169.1011	22	C13H13+
171.1169	48	C13H15+
173.0961	44	C12H13O+
173.1324	36	C13H17+
175.1117	90	C12H15O+
181.1013	16	C14H13+
183.1168	24	C14H15+
185.0965	6	C13H13O+
185.1324	22	C14H17+
187.1118	29	C13H15O+
187.1484	9	C14H19+
189.1276	25	C13H17O+
193.1017	9	C15H13+
195.1173	23	C15H15+
197.1326	24	C15H17+
198.1042	8	C14H14O+
199.1116	13	C14H15O+
199.1481	38	C15H19+
201.1274	15	C14H17O+
201.1637	12	C15H21+
207.1166	7	C16H15+
209.1324	31	C16H17+
211.1121	16	C15H15O+
211.148	34	C16H19+
213.1278	21	C15H17O+
213.1639	42	C16H21+
215.1425	7	C15H19O+
221.133	9	C17H17+
223.148	14	C17H19+
225.1278	7	C16H17O+
225.1644	12	C17H21+
227.1433	15	C16H19O+
233.1322	8	C18H17+
235.1482	22	C18H19+
237.1639	21	C18H21+
239.1791	11	C18H23+
247.148	12	C19H19+
249.1633	12	C19H21+
251.1798	9	C19H23+
253.1592	25	C18H21O+
255.1742	11	C18H23O+
263.1797	8	C20H23+
265.1956	20	C20H25+
275.1793	20	C21H23+
277.1951	52	C21H25+
283.2062	8	C20H27O+
289.1955	12	C22H25+
293.1902	28	C21H25O+
295.2056	79	C21H27O+
311.2006	38	C21H27O2+
313.2164	280	C21H29O2+
325.2167	9	C22H29O2+
335.2022	8	C23H27O2+
336.2089	9	C23H28O2+
349.2157	8	C24H29O2+
351.2324	15	C24H31O2+
379.2637	12	C26H35O2+
391.2632	18	C27H35O2+
408.2898	50	C27H38NO2+
426.3002	638	C27H40NO3+
