Mass spectrum: Cortisone; LC-ESI-ITFT; MS2; CE: 95%; R=15000; [M+H]+
Name: Cortisone
Name: (8S,9S,10R,13S,14S,17R)-17-hydroxy-17-(2-hydroxyacetyl)-10,13-dimethyl-1,2,6,7,8,9,12,14,15,16-decahydrocyclopenta[a]phenanthrene-3,11-dione
Formula: C21H28O5
Exact mass: 360.1937
SMILES: C[C@]12CC(=O)[C@H]3[C@@H](CCC4=CC(=O)CC[C@]34C)[C@@H]1CC[C@]2(O)C(=O)CO
InChI: InChI=1S/C21H28O5/c1-19-7-5-13(23)9-12(19)3-4-14-15-6-8-21(26,17(25)11-22)20(15,2)10-16(24)18(14)19/h9,14-15,18,22,26H,3-8,10-11H2,1-2H3/t14-,15-,18+,19-,20-,21-/m0/s1
Instrument: LTQ Orbitrap XL Thermo Scientific
Instrument type: LC-ESI-ITFT
Ms type: MS2
Ion mode: POSITIVE
Ionization: ESI
Fragmentation mode: CID
Collision energy: 95 % (nominal)
Resolution: 15000
Column name: Kinetex Evo C18 2.6 um 50 x 2.1 mm
Retention time: 9.601 min
Base peak: 361.2009
Precursor m/z: 361.201
Precursor type: [M+H]+
m/z	relative intensity	assigned
93.0697	7	C7H9+
105.0699	39	C8H9+
107.0855	14	C8H11+
109.0644	4	C7H9O+
115.0542	9	C9H7+
117.0697	16	C9H9+
119.0854	26	C9H11+
121.0647	107	C8H9O+
121.101	10	C9H13+
123.0802	17	C8H11O+
128.0623	9	C10H8+
129.0699	13	C10H9+
130.0773	4	C10H10+
131.0854	33	C10H11+
133.0646	20	C9H9O+
133.101	16	C10H13+
135.0803	63	C9H11O+
135.1166	19	C10H15+
137.0961	15	C9H13O+
139.0754	9	C8H11O2+
143.0854	25	C11H11+
145.0648	14	C10H9O+
145.101	105	C11H13+
147.0803	100	C10H11O+
147.1166	13	C11H15+
148.0876	9	C10H12O+
149.096	20	C10H13O+
151.0752	18	C9H11O2+
153.091	13	C9H13O2+
155.0855	22	C12H11+
157.0645	6	C11H9O+
157.101	27	C12H13+
159.0803	41	C11H11O+
159.1167	21	C12H15+
161.096	64	C11H13O+
163.1116	999	C11H15O+
164.1148	17	C6H16N2O3+
165.0911	12	C10H13O2+
165.1275	10	C11H17O+
167.0856	5	C13H11+
169.1009	27	C13H13+
171.0802	54	C12H11O+
171.1167	90	C13H15+
173.0958	84	C12H13O+
175.1117	28	C12H15O+
177.0908	38	C11H13O2+
179.0855	6	C14H11+
179.1067	15	C11H15O2+
181.086	12	C10H13O3+
181.101	38	C14H13+
183.0802	6	C13H11O+
183.1167	28	C14H15+
185.096	40	C13H13O+
185.1318	9	C14H17+
187.0752	13	C12H11O2+
187.1116	48	C13H15O+
189.0909	41	C12H13O2+
189.1274	17	C13H17O+
191.1066	40	C12H15O2+
193.1008	12	C15H13+
195.1168	44	C15H15+
197.096	22	C14H13O+
197.1326	27	C15H17+
199.1116	73	C14H15O+
201.0905	13	C13H13O2+
201.127	23	C14H17O+
203.1064	16	C13H15O2+
205.1223	16	C13H17O2+
207.101	14	C12H15O3+
207.1167	39	C16H15+
209.0963	19	C15H13O+
209.1322	30	C16H17+
211.1118	46	C15H15O+
211.1481	19	C16H19+
213.0911	8	C14H13O2+
213.1275	35	C15H17O+
215.1068	11	C14H15O2+
215.1437	11	C15H19O+
217.1226	25	C14H17O2+
219.1167	18	C17H15+
221.1325	64	C17H17+
223.1117	55	C16H15O+
223.148	50	C17H19+
225.1272	75	C16H17O+
225.1638	26	C17H21+
227.1065	15	C15H15O2+
227.1428	37	C16H19O+
229.1222	30	C15H17O2+
231.1371	5	C15H19O2+
233.1321	15	C18H17+
235.1119	8	C17H15O+
235.1481	47	C18H19+
237.1272	59	C17H17O+
237.1637	52	C18H21+
239.106	10	C16H15O2+
239.1428	141	C17H19O+
239.1795	21	C18H23+
241.1221	90	C16H17O2+
241.1585	54	C17H21O+
243.1377	28	C16H19O2+
243.1737	26	C17H23O+
245.1325	12	C19H17+
247.1479	81	C19H19+
249.1272	53	C18H17O+
249.1637	50	C19H21+
251.1429	32	C18H19O+
251.1794	23	C19H23+
253.1217	8	C17H17O2+
253.1586	36	C18H21O+
255.1378	51	C17H19O2+
255.1742	56	C18H23O+
257.1534	86	C17H21O2+
257.1899	19	C18H25O+
261.1272	15	C19H17O+
261.1482	26	C16H21O3+
261.1637	52	C20H21+
263.1429	52	C19H19O+
264.15	5	C19H20O+
265.1585	412	C19H21O+
267.1378	85	C18H19O2+
267.1741	327	C19H23O+
269.1895	22	C19H25O+
271.1477	13	C21H19+
271.1697	15	C18H23O2+
277.1584	56	C20H21O+
279.1382	19	C19H19O2+
279.174	195	C20H23O+
281.1532	42	C19H21O2+
281.1889	6	C20H25O+
283.169	403	C19H23O2+
284.1774	16	C19H24O2+
285.1481	50	C18H21O3+
285.1846	229	C19H25O2+
289.1583	125	C21H21O+
295.1689	224	C20H23O2+
297.1845	185	C20H25O2+
299.1638	386	C19H23O3+
300.1707	18	C19H24O3+
301.1795	354	C19H25O3+
303.1588	24	C18H23O4+
307.1689	420	C21H23O2+
313.1793	312	C20H25O3+
314.1839	10	C15H26N2O5+
315.1948	77	C20H27O3+
317.1744	29	C19H25O4+
325.1793	521	C21H25O3+
331.1893	20	C20H27O4+
343.1897	905	C21H27O4+
344.1931	28	C16H28N2O6+
