Mass spectrum: Cevadine; LC-ESI-ITFT; MS2; CE: 95%; R=15000; [M+H]+
Name: Cevadine
Name: Veratrine
Name: [(1R,2S,6S,9S,10R,11S,12S,14R,15S,18S,19S,22S,23S,25R)-1,10,11,12,14,23-hexahydroxy-6,10,19-trimethyl-24-oxa-4-azaheptacyclo[12.12.0.02,11.04,9.015,25.018,23.019,25]hexacosan-22-yl] (Z)-2-methylbut-2-enoate
Formula: C32H49NO9
Exact mass: 591.3407
SMILES: C/C=C(/C)\C(=O)O[C@H]1CC[C@]2([C@H]3[C@@]1(O[C@@]24C[C@]5([C@@H]6CN7C[C@H](CC[C@H]7[C@@]([C@]6([C@H](C[C@]5([C@@H]4CC3)O)O)O)(C)O)C)O)O)C
InChI: InChI=1S/C32H49NO9/c1-6-18(3)25(35)41-24-11-12-26(4)19-8-9-20-28(37)13-23(34)31(39)21(29(28,38)16-30(20,26)42-32(19,24)40)15-33-14-17(2)7-10-22(33)27(31,5)36/h6,17,19-24,34,36-40H,7-16H2,1-5H3/b18-6-/t17-,19-,20-,21-,22-,23-,24-,26-,27+,28+,29+,30+,31-,32-/m0/s1
Instrument: LTQ Orbitrap XL Thermo Scientific
Instrument type: LC-ESI-ITFT
Ms type: MS2
Ion mode: POSITIVE
Ionization: ESI
Fragmentation mode: HCD
Collision energy: 95% (nominal)
Resolution: 15000
Column name: Kinetex Evo C18 2.6 um 50 x 2.1 mm
Retention time: 9.296 min
Base peak: 116.9858
Precursor m/z: 592.348
Precursor type: [M+H]+
m/z	relative intensity	assigned
55.0541	91	C4H7+
67.0541	32	C5H7+
68.0494	39	C4H6N+
69.0699	57	C5H9+
70.0648	24	C4H8N+
79.0542	67	C6H7+
80.0494	21	C5H6N+
81.0698	100	C6H9+
82.0651	65	C5H8N+
83.0491	157	C5H7O+
84.0807	62	C5H10N+
91.0542	82	C7H7+
93.0697	71	C7H9+
94.0651	70	C6H8N+
95.0493	17	C6H7O+
95.073	26	C6H9N+
95.0855	27	C7H11+
96.0807	262	C6H10N+
98.0964	255	C6H12N+
105.0698	116	C8H9+
106.0648	39	C7H8N+
107.0728	54	C7H9N+
107.0855	46	C8H11+
108.0807	111	C7H10N+
109.0648	48	C7H9O+
109.0884	30	C7H11N+
110.0963	163	C7H12N+
111.1042	42	C7H13N+
112.1118	33	C7H14N+
117.0699	27	C9H9+
118.0651	30	C8H8N+
119.0729	32	C8H9N+
119.0855	59	C9H11+
120.0807	72	C8H10N+
121.0648	48	C8H9O+
121.0884	19	C8H11N+
122.0599	39	C7H8NO+
122.0964	133	C8H12N+
124.112	233	C8H14N+
125.1197	77	C8H15N+
126.1276	129	C8H16N+
128.0619	28	C10H8+
129.0697	50	C10H9+
130.0652	15	C9H8N+
131.0855	61	C10H11+
132.0807	178	C9H10N+
133.0651	25	C9H9O+
133.0887	38	C9H11N+
133.101	35	C10H13+
134.0963	123	C9H12N+
135.1041	19	C9H13N+
136.0759	23	C8H10NO+
136.112	148	C9H14N+
137.1196	18	C9H15N+
138.1276	999	C9H16N+
141.0698	25	C11H9+
142.0775	28	C11H10+
143.0856	60	C11H11+
144.0806	45	C10H10N+
145.0646	15	C10H9O+
145.0883	34	C10H11N+
145.101	31	C11H13+
146.0963	198	C10H12N+
147.0807	18	C10H11O+
147.1042	79	C10H13N+
148.0757	23	C9H10NO+
148.112	373	C10H14N+
149.1193	88	C10H15N+
150.091	21	C9H12NO+
150.1277	309	C10H16N+
152.1071	57	C9H14NO+
154.1224	62	C9H16NO+
155.0853	40	C12H11+
157.1018	26	C12H13+
158.0966	52	C11H12N+
159.0807	33	C11H11O+
160.0755	15	C10H10NO+
160.112	255	C11H14N+
161.1197	98	C11H15N+
162.1277	788	C11H16N+
163.1328	83	C8H19O3+
164.1069	79	C10H14NO+
164.1433	715	C11H18N+
165.0697	22	C13H9+
165.1144	20	C10H15NO+
166.0777	15	C13H10+
167.0856	22	C13H11+
168.0928	14	C13H12+
169.1012	32	C13H13+
171.081	23	C12H11O+
172.1121	47	C12H14N+
173.0959	17	C12H13O+
173.1197	33	C12H15N+
174.1276	568	C12H16N+
176.1069	193	C11H14NO+
176.1433	91	C12H18N+
177.1146	84	C11H15NO+
178.1225	216	C11H16NO+
180.138	108	C11H18NO+
181.1005	20	C14H13+
183.1161	17	C14H15+
186.1276	79	C13H16N+
188.1432	810	C13H18N+
190.1224	443	C12H16NO+
190.1589	45	C13H20N+
191.1305	133	C12H17NO+
192.1383	246	C12H18NO+
193.1462	76	C12H19NO+
198.128	22	C14H16N+
200.1434	42	C14H18N+
202.1226	26	C13H16NO+
204.1381	122	C13H18NO+
206.1538	106	C13H20NO+
208.1692	170	C13H22NO+
212.1432	41	C15H18N+
214.1595	25	C15H20N+
216.1382	67	C14H18NO+
218.1535	24	C14H20NO+
220.133	15	C13H18NO2+
226.1589	15	C16H20N+
234.1484	55	C14H20NO2+
236.1434	14	C17H18N+
238.1585	30	C17H20N+
242.154	25	C16H20NO+
250.1596	22	C18H20N+
252.1746	19	C18H22N+
260.1642	24	C16H22NO2+
262.1443	26	C15H20NO3+
264.1754	18	C19H22N+
290.1907	17	C21H24N+
294.1842	14	C20H24NO+
314.1889	19	C23H24N+
320.1982	21	C19H28O4+
332.2014	14	C23H26NO+
334.2143	13	C20H30O4+
390.2067	19	C25H28NO3+
404.2223	21	C26H30NO3+
440.2428	32	C26H34NO5+
