Mass spectrum: Bergapten/Heraclin; LC-ESI-ITFT; MS2; CE: 50%; R=15000; [M+H]+
Name: Bergapten/Heraclin
Formula: C12H8O4
Exact mass: 216.0423
SMILES: COC1=C2C=COC2=CC2=C1C=CC(=O)O2
InChI: InChI=1S/C12H8O4/c1-14-12-7-2-3-11(13)16-10(7)6-9-8(12)4-5-15-9/h2-6H,1H3
Instrument: LTQ Orbitrap XL Thermo Scientific
Instrument type: LC-ESI-ITFT
Ms type: MS2
Ion mode: POSITIVE
Ionization: ESI
Fragmentation mode: CID
Collision energy: 50 % (nominal)
Resolution: 15000
Column name: Kinetex Evo C18 2.6 um 50x2.1 mm, Phenomenex
Retention time: 9.958 min
Base peak: 217.0492
Precursor m/z: 217.0495
Precursor type: [M+H]+
m/z	relative intensity	assigned
115.0542	19	C9H7+
117.0698	23	C9H9+
131.049	2	C9H7O+
133.0649	2	C9H9O+
143.0491	6	C10H7O+
145.0648	18	C10H9O+
158.0362	5	C10H6O2+
161.0597	20	C10H9O2+
171.0444	2	C11H7O2+
173.0597	156	C11H9O2+
174.031	3	C10H6O3+
189.0547	21	C11H9O3+
202.026	999	C11H6O4+
