Mass spectrum: (-)-Strychnine; LC-ESI-ITFT; MS2; CE: 105%; R=15000; [M+H]+
Name: (-)-Strychnine
Name: Strychnine
Name: (4aR,5aS,8aR,13aS,15aS,15bR)-4a,5,5a,7,8,13a,15,15a,15b,16-decahydro-2H-4,6-methanoindolo[3,2,1-ij]oxepino[2,3,4-de]pyrrolo[2,3-h]quinolin-14-one
Formula: C21H22N2O2
Exact mass: 334.1681
SMILES: c1ccc2c(c1)[C@]34CCN5[C@H]3C[C@@H]6[C@@H]7[C@@H]4N2C(=O)C[C@@H]7OCC=C6C5
InChI: InChI=1S/C21H22N2O2/c24-18-10-16-19-13-9-17-21(6-7-22(17)11-12(13)5-8-25-16)14-3-1-2-4-15(14)23(18)20(19)21/h1-5,13,16-17,19-20H,6-11H2/t13-,16-,17-,19-,20-,21+/m0/s1
Instrument: LTQ Orbitrap XL Thermo Scientific
Instrument type: LC-ESI-ITFT
Ms type: MS2
Ion mode: POSITIVE
Ionization: ESI
Fragmentation mode: HCD
Collision energy: 105% (nominal)
Resolution: 15000
Column name: Kinetex Evo C18 2.6 um 50 x 2.1 mm
Retention time: 3.141 min
Base peak: 143.0015
Precursor m/z: 335.1754
Precursor type: [M+H]+
m/z	relative intensity	assigned
77.0386	21	C6H5+
79.0543	99	C6H7+
80.0495	26	C5H6N+
81.0699	69	C6H9+
91.0542	134	C7H7+
93.0574	77	C6H7N+
93.0699	22	C7H9+
94.0652	34	C6H8N+
105.0446	25	C6H5N2+
105.07	29	C8H9+
106.0651	77	C7H8N+
108.0809	35	C7H10N+
115.0542	41	C9H7+
117.0698	41	C9H9+
118.0648	40	C8H8N+
120.0804	22	C8H10N+
121.0647	17	C8H9O+
128.0622	81	C10H8+
129.0699	568	C10H9+
130.0652	143	C9H8N+
132.0802	21	C9H10N+
142.0648	27	C10H8N+
143.073	43	C10H9N+
144.0809	228	C10H10N+
154.0653	100	C11H8N+
155.0606	23	C10H7N2+
155.0729	65	C11H9N+
156.0808	999	C11H10N+
166.0653	78	C12H8N+
167.0731	152	C12H9N+
168.0809	176	C12H10N+
169.0765	22	C11H9N2+
170.0598	25	C11H8NO+
170.0962	61	C12H12N+
171.0921	19	C11H11N2+
180.0809	117	C13H10N+
181.089	42	C13H11N+
182.0963	47	C13H12N+
183.0676	44	C12H9NO+
184.0756	392	C12H10NO+
191.0732	53	C14H9N+
192.0806	70	C14H10N+
193.0885	60	C14H11N+
194.0606	17	C13H8NO+
194.0964	146	C14H12N+
196.0757	37	C13H10NO+
198.0919	29	C13H12NO+
204.0809	122	C15H10N+
205.0887	76	C15H11N+
206.0965	96	C15H12N+
207.1046	28	C15H13N+
217.0886	114	C16H11N+
218.0964	113	C16H12N+
220.076	84	C15H10NO+
220.1114	62	C16H14N+
222.0918	33	C15H12NO+
222.1273	18	C16H16N+
230.0969	49	C17H12N+
231.1043	21	C17H13N+
232.1117	19	C17H14N+
234.0913	38	C16H12NO+
244.1128	31	C18H14N+
