Mass spectrum: Valerophenone; LC-ESI-ITFT; MS2; CE: 90%; R=15000; [M+H]+
Name: Valerophenone
Formula: C11H14O
Exact mass: 162.1045
SMILES: CCCCC(=O)C1=CC=CC=C1
InChI: InChI=1S/C11H14O/c1-2-3-9-11(12)10-7-5-4-6-8-10/h4-8H,2-3,9H2,1H3
Instrument: LTQ Orbitrap XL Thermo Scientific
Instrument type: LC-ESI-ITFT
Ms type: MS2
Ion mode: POSITIVE
Ionization: ESI
Fragmentation mode: CID
Collision energy: 90 % (nominal)
Resolution: 15000
Column name: Kinetex Evo C18 2.6 um 50 x 2.1 mm
Retention time: 11.599 min
Base peak: 440.3515
Precursor m/z: 163.1117
Precursor type: [M+H]+
m/z	relative intensity	assigned
57.0698	805	C4H9+
67.0542	10	C5H7+
79.0542	62	C6H7+
85.0648	454	C5H9O+
91.0542	255	C7H7+
105.0699	118	C8H9+
107.0492	727	C7H7O+
117.07	59	C9H9+
119.0857	37	C9H11+
121.0649	160	C8H9O+
121.1012	14	C9H13+
135.1168	14	C10H15+
145.1012	999	C11H13+
