Mass spectrum: Galantamine; LC-ESI-ITFT; MS2; CE: 85%; R=15000; [M+H]+
Name: Galantamine
Formula: C17H21NO3
Exact mass: 287.1521
SMILES: CN1CCC23C=CC(CC2OC4=C(C=CC(=C34)C1)OC)O
InChI: InChI=1S/C17H21NO3/c1-18-8-7-17-6-5-12(19)9-14(17)21-16-13(20-2)4-3-11(10-18)15(16)17/h3-6,12,14,19H,7-10H2,1-2H3
Instrument: LTQ Orbitrap XL Thermo Scientific
Instrument type: LC-ESI-ITFT
Ms type: MS2
Ion mode: POSITIVE
Ionization: ESI
Fragmentation mode: HCD
Collision energy: 85 % (nominal)
Resolution: 15000
Column name: Kinetex Evo C18 2.6 um 50 x 2.1 mm
Retention time: 0.583 min
Base peak: 235.2167
Precursor m/z: 288.1594
Precursor type: [M+H]+
m/z	relative intensity	assigned
77.0386	15	C6H5+
79.0542	12	C6H7+
81.0334	8	C5H5O+
81.0699	9	C6H9+
91.0542	44	C7H7+
93.0698	11	C7H9+
103.0541	15	C8H7+
105.0698	68	C8H9+
107.049	10	C7H7O+
109.0647	16	C7H9O+
115.0543	20	C9H7+
121.0646	20	C8H9O+
123.08	10	C8H11O+
128.062	53	C10H8+
129.0697	34	C10H9+
131.0491	17	C9H7O+
131.0858	8	C10H11+
132.0571	7	C9H8O+
132.0802	9	C9H10N+
133.0642	8	C9H9O+
134.0963	9	C9H12N+
135.0804	63	C9H11O+
141.0698	46	C11H9+
142.0776	70	C11H10+
143.0854	31	C11H11+
144.057	14	C10H8O+
145.0648	33	C10H9O+
146.0726	29	C10H10O+
147.0442	7	C9H7O2+
148.0524	8	C9H8O2+
151.075	11	C9H11O2+
152.062	47	C12H8+
153.0698	81	C12H9+
154.0775	22	C12H10+
155.049	61	C11H7O+
155.0854	24	C12H11+
157.0653	13	C11H9O+
158.0725	17	C11H10O+
159.0804	26	C11H11O+
160.0523	10	C10H8O2+
160.0882	36	C11H12O+
161.0593	11	C10H9O2+
161.0961	26	C11H13O+
162.0678	17	C10H10O2+
165.0698	59	C13H9+
166.0777	55	C13H10+
167.0855	16	C13H11+
168.0568	23	C12H8O+
169.0647	148	C12H9O+
170.0726	159	C12H10O+
171.0804	17	C12H11O+
173.0596	11	C11H9O2+
174.067	8	C11H10O2+
175.0752	46	C11H11O2+
175.1118	15	C12H15O+
178.0778	19	C14H10+
179.0854	39	C14H11+
180.0568	8	C13H8O+
181.0646	179	C13H9O+
181.1014	11	C14H13+
182.0725	281	C13H10O+
183.0439	348	C12H7O2+
183.0803	21	C13H11O+
185.0961	86	C13H13O+
188.0834	17	C12H12O2+
190.0777	9	C15H10+
191.0858	9	C15H11+
194.0727	19	C14H10O+
195.0802	17	C14H11O+
197.0596	90	C13H9O2+
197.0956	8	C14H13O+
198.0673	999	C13H10O2+
201.0554	11	C12H9O3+
203.106	7	C13H15O2+
207.0808	6	C15H11O+
210.0675	17	C14H10O2+
211.0747	8	C14H11O2+
212.0826	14	C14H12O2+
213.0909	184	C14H13O2+
214.0627	11	C13H10O3+
