Mass spectrum: Galantamine; LC-ESI-ITFT; MS2; CE: 30%; R=15000; [M+H]+
Name: Galantamine
Formula: C17H21NO3
Exact mass: 287.1521
SMILES: CN1CCC23C=CC(CC2OC4=C(C=CC(=C34)C1)OC)O
InChI: InChI=1S/C17H21NO3/c1-18-8-7-17-6-5-12(19)9-14(17)21-16-13(20-2)4-3-11(10-18)15(16)17/h3-6,12,14,19H,7-10H2,1-2H3
Instrument: LTQ Orbitrap XL Thermo Scientific
Instrument type: LC-ESI-ITFT
Ms type: MS2
Ion mode: POSITIVE
Ionization: ESI
Fragmentation mode: HCD
Collision energy: 30 % (nominal)
Resolution: 15000
Column name: Kinetex Evo C18 2.6 um 50 x 2.1 mm
Retention time: 0.580 min
Base peak: 235.2166
Precursor m/z: 288.1594
Precursor type: [M+H]+
m/z	relative intensity	assigned
94.065	7	C6H8N+
109.0645	16	C7H9O+
134.0962	8	C9H12N+
137.0593	9	C8H9O2+
151.0989	50	C9H13NO+
175.0757	9	C11H11O2+
181.1013	10	C14H13+
197.0957	67	C14H13O+
198.0672	7	C13H10O2+
199.0749	41	C13H11O2+
203.1065	39	C13H15O2+
207.0809	10	C15H11O+
209.0958	129	C15H13O+
213.0907	759	C14H13O2+
225.0908	308	C15H13O2+
231.1013	718	C14H15O3+
239.1059	8	C16H15O2+
241.1233	10	C16H17O2+
257.117	20	C16H17O3+
270.1484	286	C17H20NO2+
288.159	999	C17H22NO3+
