Mass spectrum: Vincamin; LC-ESI-ITFT; MS2; CE: 65%; R=15000; [M+H]+
Name: Vincamin
Name: Vincamine
Name: methyl (15S,17S,19S)-15-ethyl-17-hydroxy-1,11-diazapentacyclo[9.6.2.02,7.08,18.015,19]nonadeca-2,4,6,8(18)-tetraene-17-carboxylate
Formula: C21H26N2O3
Exact mass: 354.1943
SMILES: CC[C@@]12CCCN3[C@@H]1C4=C(CC3)C5=CC=CC=C5N4[C@](C2)(C(=O)OC)O
InChI: InChI=1S/C21H26N2O3/c1-3-20-10-6-11-22-12-9-15-14-7-4-5-8-16(14)23(17(15)18(20)22)21(25,13-20)19(24)26-2/h4-5,7-8,18,25H,3,6,9-13H2,1-2H3/t18-,20+,21+/m1/s1
Instrument: LTQ Orbitrap XL Thermo Scientific
Instrument type: LC-ESI-ITFT
Ms type: MS2
Ion mode: POSITIVE
Ionization: ESI
Fragmentation mode: HCD
Collision energy: 65% (nominal)
Resolution: 15000
Column name: Kinetex Evo C18 2.6 um 50 x 2.1 mm
Retention time: 6.603 min
Base peak: 355.2014
Precursor m/z: 355.2016
Precursor type: [M+H]+
m/z	relative intensity	assigned
55.0542	5	C4H7+
67.0543	16	C5H7+
68.0495	10	C4H6N+
70.065	75	C4H8N+
79.0542	18	C6H7+
81.0334	4	C5H5O+
81.0698	15	C6H9+
82.0651	7	C5H8N+
83.0491	63	C5H7O+
84.0809	13	C5H10N+
91.0542	24	C7H7+
93.0698	38	C7H9+
94.065	7	C6H8N+
95.0491	7	C6H7O+
95.0855	82	C7H11+
96.0808	15	C6H10N+
98.0963	26	C6H12N+
105.0698	38	C8H9+
106.0648	8	C7H8N+
107.0854	41	C8H11+
108.0808	18	C7H10N+
109.0645	10	C7H9O+
109.1012	5	C8H13+
110.0964	115	C7H12N+
111.1041	22	C7H13N+
112.1121	26	C7H14N+
117.0698	30	C9H9+
118.0648	8	C8H8N+
119.0855	7	C9H11+
120.081	8	C8H10N+
121.0647	20	C8H9O+
122.0602	24	C7H8NO+
122.0964	21	C8H12N+
123.0804	63	C8H11O+
123.1042	8	C8H13N+
124.0755	19	C7H10NO+
124.112	109	C8H14N+
130.0651	36	C9H8N+
131.073	10	C9H9N+
132.0809	22	C9H10N+
133.0647	16	C9H9O+
134.0964	93	C9H12N+
135.0804	39	C9H11O+
136.0757	12	C8H10NO+
136.1118	8	C9H14N+
137.096	5	C9H13O+
138.1277	8	C9H16N+
143.0731	15	C10H9N+
144.0807	999	C10H10N+
146.0961	12	C10H12N+
148.0757	9	C9H10NO+
150.0914	15	C9H12NO+
151.0755	12	C9H11O2+
152.1069	369	C9H14NO+
154.0862	8	C8H12NO2+
156.0807	43	C11H10N+
157.0881	6	C11H11N+
158.0963	43	C11H12N+
160.0756	6	C10H10NO+
160.1122	8	C11H14N+
162.0912	53	C10H12NO+
164.1071	15	C10H14NO+
165.0907	8	C10H13O2+
168.0808	24	C12H10N+
170.06	24	C11H8NO+
170.0963	36	C12H12N+
171.0918	8	C11H11N2+
172.1121	20	C12H14N+
174.0911	6	C11H12NO+
180.0807	28	C13H10N+
181.0888	29	C13H11N+
182.0964	39	C13H12N+
184.0764	13	C12H10NO+
184.1114	10	C13H14N+
186.0908	9	C12H12NO+
193.0883	11	C14H11N+
193.1018	9	C15H13+
194.0963	26	C14H12N+
194.1174	43	C11H16NO2+
195.1044	11	C14H13N+
196.0966	10	C10H14NO3+
196.1119	21	C14H14N+
197.1075	10	C13H13N2+
198.0914	9	C13H12NO+
198.1278	18	C14H16N+
204.0808	11	C15H10N+
205.0889	25	C15H11N+
206.0964	59	C15H12N+
207.1046	30	C15H13N+
207.1166	8	C16H15+
208.0755	7	C14H10NO+
208.112	100	C15H14N+
209.1202	49	C15H15N+
210.1279	34	C15H16N+
212.128	147	C11H18NO3+
216.1021	6	C13H14NO2+
217.0884	8	C16H11N+
218.0964	14	C16H12N+
219.1043	56	C16H13N+
220.1121	89	C16H14N+
221.1202	42	C16H15N+
222.0916	5	C15H12NO+
222.1278	103	C16H16N+
224.131	34	C15H16N2+
224.1433	75	C16H18N+
226.1226	16	C15H16NO+
231.1053	6	C17H13N+
232.112	18	C17H14N+
233.083	8	C16H11NO+
233.1202	13	C17H15N+
234.1276	164	C17H16N+
236.1068	15	C16H14NO+
236.1436	62	C17H18N+
237.0787	9	C15H11NO2+
237.1389	16	C16H17N2+
238.0862	18	C15H12NO2+
238.1233	14	C16H16NO+
238.159	6	C17H20N+
239.0941	74	C15H13NO2+
239.1542	11	C16H19N2+
246.128	13	C18H16N+
247.0999	4	C17H13NO+
247.1231	12	C17H15N2+
248.1308	17	C17H16N2+
248.1432	72	C18H18N+
249.1389	31	C17H17N2+
249.1521	27	C18H19N+
250.0866	15	C16H12NO2+
250.1224	5	C17H16NO+
250.1592	44	C18H20N+
251.0944	19	C16H13NO2+
252.1018	60	C16H14NO2+
252.1383	10	C17H18NO+
253.1099	58	C16H15NO2+
253.1701	21	C17H21N2+
254.1184	8	C16H16NO2+
260.1431	10	C19H18N+
262.123	21	C18H16NO+
262.1455	8	C18H18N2+
263.1544	4	C18H19N2+
264.1018	73	C17H14NO2+
265.1097	216	C17H15NO2+
266.1178	163	C17H16NO2+
266.154	16	C18H20NO+
267.1256	184	C17H17NO2+
268.1333	188	C17H18NO2+
276.1015	9	C18H14NO2+
277.134	8	C18H17N2O+
277.1697	59	C19H21N2+
278.1175	63	C18H16NO2+
278.1783	16	C19H22N2+
279.1252	202	C18H17NO2+
280.133	766	C18H18NO2+
282.1487	18	C18H20NO2+
290.1177	19	C19H16NO2+
291.1259	25	C19H17NO2+
292.1332	90	C19H18NO2+
293.141	50	C19H19NO2+
294.1487	601	C19H20NO2+
295.1804	66	C19H23N2O+
305.1645	8	C20H21N2O+
306.1489	13	C20H20NO2+
307.1439	92	C19H19N2O2+
320.1638	9	C21H22NO2+
326.1738	8	C20H24NO3+
337.1909	176	C21H25N2O2+
355.202	10	C21H27N2O3+
