Mass spectrum: 4-Phenyl-3-buten-2-one; LC-ESI-ITFT; MS2; CE: 95%; R=15000; [M+H]+
Name: 4-Phenyl-3-buten-2-one
Formula: C10H10O
Exact mass: 146.0732
SMILES: CC(=O)\C=C\C1=CC=CC=C1
InChI: InChI=1S/C10H10O/c1-9(11)7-8-10-5-3-2-4-6-10/h2-8H,1H3/b8-7+
Instrument: LTQ Orbitrap XL Thermo Scientific
Instrument type: LC-ESI-ITFT
Ms type: MS2
Ion mode: POSITIVE
Ionization: ESI
Fragmentation mode: HCD
Collision energy: 95 % (nominal)
Resolution: 15000
Column name: Kinetex Evo C18 2.6 um 50 x 2.1 mm
Retention time: 9.231 min
Base peak: 147.0804
Precursor m/z: 147.0804
Precursor type: [M+H]+
m/z	relative intensity	assigned
69.0334	5	C4H5O+
77.0386	17	C6H5+
79.0543	56	C6H7+
91.0542	154	C7H7+
103.0542	45	C8H7+
105.0332	5	C7H5O+
105.0697	18	C8H9+
107.0491	10	C7H7O+
115.0539	7	C9H7+
117.0699	21	C9H9+
119.0858	6	C9H11+
127.0541	50	C10H7+
128.0621	999	C10H8+
129.0698	454	C10H9+
131.0489	11	C9H7O+
132.057	21	C9H8O+
145.0649	56	C10H9O+
147.0804	31	C10H11O+
