Mass spectrum: (+)-Chelidonine; LC-ESI-ITFT; MS2; CE: 80%; R=15000; [M+H]+
Name: (+)-Chelidonine
Name: Chelidonine
Name: (1S,12S,13R)-24-methyl-5,7,18,20-tetraoxa-24-azahexacyclo[11.11.0.02,10.04,8.014,22.017,21]tetracosa-2,4(8),9,14(22),15,17(21)-hexaen-12-ol
Formula: C20H19NO5
Exact mass: 353.1263
SMILES: CN1Cc2c(ccc3c2OCO3)[C@@H]4[C@H]1c5cc6c(cc5C[C@@H]4O)OCO6
InChI: InChI=1S/C20H19NO5/c1-21-7-13-11(2-3-15-20(13)26-9-23-15)18-14(22)4-10-5-16-17(25-8-24-16)6-12(10)19(18)21/h2-3,5-6,14,18-19,22H,4,7-9H2,1H3/t14-,18-,19+/m0/s1
Instrument: LTQ Orbitrap XL Thermo Scientific
Instrument type: LC-ESI-ITFT
Ms type: MS2
Ion mode: POSITIVE
Ionization: ESI
Fragmentation mode: HCD
Collision energy: 80% (nominal)
Resolution: 15000
Column name: Kinetex Evo C18 2.6 um 50 x 2.1 mm
Retention time: 7.015 min
Base peak: 354.1337
Precursor m/z: 354.1336
Precursor type: [M+H]+
m/z	relative intensity	assigned
77.0387	5	C6H5+
79.0542	19	C6H7+
91.0542	4	C7H7+
103.0543	22	C8H7+
105.0336	6	C7H5O+
115.0543	10	C9H7+
118.0652	20	C8H8N+
131.0492	40	C9H7O+
133.0285	3	C8H5O2+
135.0442	118	C8H7O2+
143.0489	9	C10H7O+
146.0601	17	C9H8NO+
147.0439	6	C9H7O2+
148.0522	10	C9H8O2+
149.0596	11	C9H9O2+
158.0601	7	C10H8NO+
159.0441	26	C10H7O2+
160.0759	13	C10H10NO+
161.0599	27	C10H9O2+
163.0391	101	C9H7O3+
173.0596	5	C11H9O2+
175.0392	6	C10H7O3+
175.063	6	C10H9NO2+
176.0709	10	C10H10NO2+
177.07	16	C14H9+
178.0777	19	C14H10+
179.0857	96	C14H11+
186.0551	4	C11H8NO2+
187.0393	3	C11H7O3+
188.0708	91	C11H10NO2+
189.07	999	C15H9+
190.0778	33	C15H10+
191.0856	66	C15H11+
201.0699	6	C16H9+
205.0649	45	C15H9O+
206.0723	5	C15H10O+
207.0806	89	C15H11O+
209.0601	7	C14H9O2+
217.0649	570	C16H9O+
218.0727	17	C16H10O+
219.0805	63	C16H11O+
222.0677	15	C15H10O2+
233.0598	8	C16H9O2+
235.0753	80	C16H11O2+
237.091	66	C16H13O2+
245.0599	35	C17H9O2+
246.0675	53	C17H10O2+
247.0755	684	C17H11O2+
250.0629	4	C16H10O3+
263.0708	6	C17H11O3+
265.086	24	C17H13O3+
274.063	2	C18H10O3+
275.0704	304	C18H11O3+
