Mass spectrum: Papaverin; LC-ESI-ITFT; MS2; CE: 40%; R=15000; [M+H]+
Name: Papaverin
Name: Papaverine
Name: 1-[(3,4-dimethoxyphenyl)methyl]-6,7-dimethoxyisoquinoline
Formula: C20H21NO4
Exact mass: 339.1471
SMILES: COC1=C(C=C(C=C1)CC2=NC=CC3=CC(=C(C=C32)OC)OC)OC
InChI: InChI=1S/C20H21NO4/c1-22-17-6-5-13(10-18(17)23-2)9-16-15-12-20(25-4)19(24-3)11-14(15)7-8-21-16/h5-8,10-12H,9H2,1-4H3
Instrument: LTQ Orbitrap XL Thermo Scientific
Instrument type: LC-ESI-ITFT
Ms type: MS2
Ion mode: POSITIVE
Ionization: ESI
Fragmentation mode: HCD
Collision energy: 40% (nominal)
Resolution: 15000
Column name: Kinetex Evo C18 2.6 um 50 x 2.1 mm
Retention time: 7.598 min
Base peak: 340.1542
Precursor m/z: 340.1543
Precursor type: [M+H]+
m/z	relative intensity	assigned
123.0441	3	C7H7O2+
171.0679	6	C11H9NO+
187.0624	3	C11H9NO2+
202.0862	375	C12H12NO2+
279.1248	1	C18H17NO2+
295.1203	7	C18H17NO3+
296.1282	18	C18H18NO3+
308.1286	1	C19H18NO3+
310.107	5	C18H16NO4+
324.123	103	C19H18NO4+
325.1308	75	C19H19NO4+
340.1543	999	C20H22NO4+
