Mass spectrum: Daphnetin; LC-ESI-ITFT; MS2; CE: 70%; R=15000; [M+H]+
Name: Daphnetin
Formula: C9H6O4
Exact mass: 178.0266
SMILES: OC1=CC=C2C=CC(=O)OC2=C1O
InChI: InChI=1S/C9H6O4/c10-6-3-1-5-2-4-7(11)13-9(5)8(6)12/h1-4,10,12H
Instrument: LTQ Orbitrap XL Thermo Scientific
Instrument type: LC-ESI-ITFT
Ms type: MS2
Ion mode: POSITIVE
Ionization: ESI
Fragmentation mode: HCD
Collision energy: 70 % (nominal)
Resolution: 15000
Column name: Kinetex Evo C18 2.6 um 50 x 2.1 mm
Retention time: 4.661 min
Base peak: 143.0016
Precursor m/z: 179.0339
Precursor type: [M+H]+
m/z	relative intensity	assigned
51.0229	20	C4H3+
67.054	18	C5H7+
77.0387	187	C6H5+
89.0386	113	C7H5+
91.0543	115	C7H7+
95.0493	22	C6H7O+
105.0336	262	C7H5O+
107.0491	44	C7H7O+
117.0335	64	C8H5O+
119.0493	81	C8H7O+
123.0442	463	C7H7O2+
133.0285	999	C8H5O2+
135.0443	88	C8H7O2+
146.0361	25	C9H6O2+
147.0442	38	C9H7O2+
179.0341	301	C9H7O4+
