Mass spectrum: Gelsemine; LC-ESI-ITFT; MS2; CE: 65%; R=15000; [M+H]+
Name: Gelsemine
Name: (2`S,3S,5`S,6`S,11`S)-2`-ethenyl-4`-methylspiro[1H-indole-3,7`-9-oxa-4-azatetracyclo[6.3.1.02,6.05,11]dodecane]-2-one
Formula: C20H22N2O2
Exact mass: 322.1681
SMILES: CN1C[C@@]2([C@@H]3[C@H]1[C@@H]4C2CC([C@@]35c6ccccc6NC5=O)OC4)C=C
InChI: InChI=1S/C20H22N2O2/c1-3-19-10-22(2)16-11-9-24-15(8-13(11)19)20(17(16)19)12-6-4-5-7-14(12)21-18(20)23/h3-7,11,13,15-17H,1,8-10H2,2H3,(H,21,23)/t11-,13?,15?,16+,17-,19-,20-/m0/s1
Instrument: LTQ Orbitrap XL Thermo Scientific
Instrument type: LC-ESI-ITFT
Ms type: MS2
Ion mode: POSITIVE
Ionization: ESI
Fragmentation mode: HCD
Collision energy: 65% (nominal)
Resolution: 15000
Column name: Kinetex Evo C18 2.6 um 50 x 2.1 mm
Retention time: 1.781 min
Base peak: 323.1753
Precursor m/z: 323.1754
Precursor type: [M+H]+
m/z	relative intensity	assigned
70.0651	999	C4H8N+
86.06	58	C4H8NO+
88.0757	35	C4H10NO+
91.0542	34	C7H7+
93.0698	10	C7H9+
94.0651	13	C6H8N+
105.0698	25	C8H9+
108.0803	7	C7H10N+
109.0887	8	C7H11N+
115.0542	9	C9H7+
116.0623	5	C9H8+
117.0698	114	C9H9+
120.0803	9	C8H10N+
122.0969	5	C8H12N+
129.0697	20	C10H9+
130.0654	14	C9H8N+
131.0855	115	C10H11+
132.0444	62	C8H6NO+
132.0805	6	C9H10N+
134.0597	8	C8H8NO+
134.0963	40	C9H12N+
135.1044	10	C9H13N+
141.0702	7	C11H9+
146.06	110	C9H8NO+
146.0964	16	C10H12N+
147.1043	12	C10H13N+
148.112	24	C10H14N+
150.0909	8	C9H12NO+
158.0601	84	C10H8NO+
159.0803	37	C11H11O+
160.1116	10	C11H14N+
162.1276	19	C11H16N+
170.0599	6	C11H8NO+
172.0758	11	C11H10NO+
178.065	11	C13H8N+
180.0811	7	C13H10N+
183.0675	12	C12H9NO+
184.0757	25	C12H10NO+
190.1224	13	C12H16NO+
191.1309	13	C12H17NO+
195.0678	172	C13H9NO+
196.0757	97	C13H10NO+
206.096	5	C15H12N+
208.0757	60	C14H10NO+
208.1114	7	C15H14N+
210.0913	110	C14H12NO+
217.0892	8	C16H11N+
218.0964	79	C16H12N+
220.0757	8	C15H10NO+
220.1116	7	C16H14N+
222.0917	15	C15H12NO+
233.0825	10	C16H11NO+
234.0911	12	C16H12NO+
236.1069	457	C16H14NO+
238.1225	72	C16H16NO+
244.1117	6	C18H14N+
248.1078	11	C17H14NO+
251.1173	8	C16H15N2O+
262.1225	16	C18H16NO+
274.1219	7	C19H16NO+
323.1755	147	C20H23N2O2+
