Mass spectrum: Pterosin B; LC-ESI-ITFT; MS2; CE: 35%; R=15000; [M+H]+
Name: Pterosin B
Name: (2R)-6-(2-hydroxyethyl)-2,5,7-trimethyl-2,3-dihydroinden-1-one
Formula: C14H18O2
Exact mass: 218.1307
SMILES: C[C@@H]1CC2=C(C1=O)C(=C(C(=C2)C)CCO)C
InChI: InChI=1S/C14H18O2/c1-8-6-11-7-9(2)14(16)13(11)10(3)12(8)4-5-15/h6,9,15H,4-5,7H2,1-3H3/t9-/m1/s1
Instrument: LTQ Orbitrap XL Thermo Scientific
Instrument type: LC-ESI-ITFT
Ms type: MS2
Ion mode: POSITIVE
Ionization: ESI
Fragmentation mode: CID
Collision energy: 35 % (nominal)
Resolution: 15000
Column name: Kinetex Evo C18 2.6 um 50 x 2.1 mm
Retention time: 10.492 min
Base peak: 149.0116
Precursor m/z: 219.138
Precursor type: [M+H]+
m/z	relative intensity	assigned
77.0384	2	C6H5+
119.0855	1	C9H11+
131.0854	1	C10H11+
145.1009	3	C11H13+
159.1167	4	C12H15+
163.1114	5	C11H15O+
168.0933	2	C13H12+
173.0959	3	C12H13O+
173.1322	22	C13H17+
183.1166	34	C14H15+
191.1427	6	C13H19O+
199.1115	9	C14H15O+
201.127	999	C14H17O+
