Mass spectrum: Coumarin; LC-ESI-ITFT; MS2; CE: 85%; R=15000; [M+H]+
Name: Coumarin
Name: chromen-2-one
Formula: C9H6O2
Exact mass: 146.0368
SMILES: O=C1OC2=CC=CC=C2C=C1
InChI: InChI=1S/C9H6O2/c10-9-6-5-7-3-1-2-4-8(7)11-9/h1-6H
Instrument: LTQ Orbitrap XL Thermo Scientific
Instrument type: LC-ESI-ITFT
Ms type: MS2
Ion mode: POSITIVE
Ionization: ESI
Fragmentation mode: HCD
Collision energy: 85% (nominal)
Resolution: 15000
Column name: Kinetex Evo C18 2.6 um 50 x 2.1 mm
Retention time: 7.129 min
Base peak: 116.9859
Precursor m/z: 147.0441
Precursor type: [M+H]+
m/z	relative intensity	assigned
65.0384	8	C5H5+
77.0386	68	C6H5+
91.0542	999	C7H7+
95.049	8	C6H7O+
102.0464	9	C8H6+
103.0542	649	C8H7+
119.049	6	C8H7O+
147.0441	256	C9H7O2+
