Mass spectrum: Ajmalicine; LC-ESI-ITFT; MS2; CE: 50%; R=15000; [M+H]+
Name: Ajmalicine
Name: methyl (1S,15R,16S,20S)-16-methyl-17-oxa-3,13-diazapentacyclo[11.8.0.02,10.04,9.015,20]henicosa-2(10),4,6,8,18-pentaene-19-carboxylate
Formula: C21H24N2O3
Exact mass: 352.1787
SMILES: C[C@H]1[C@H]2CN3CCc4c5ccccc5[nH]c4[C@@H]3C[C@@H]2C(=CO1)C(=O)OC
InChI: InChI=1S/C21H24N2O3/c1-12-16-10-23-8-7-14-13-5-3-4-6-18(13)22-20(14)19(23)9-15(16)17(11-26-12)21(24)25-2/h3-6,11-12,15-16,19,22H,7-10H2,1-2H3/t12-,15-,16+,19-/m0/s1
Instrument: LTQ Orbitrap XL Thermo Scientific
Instrument type: LC-ESI-ITFT
Ms type: MS2
Ion mode: POSITIVE
Ionization: ESI
Fragmentation mode: HCD
Collision energy: 50% (nominal)
Resolution: 15000
Column name: Kinetex Evo C18 2.6 um 50 x 2.1 mm
Retention time: 7.574 min
Base peak: 353.1856
Precursor m/z: 353.186
Precursor type: [M+H]+
m/z	relative intensity	assigned
68.0493	2	C4H6N+
81.0698	3	C6H9+
84.0807	3	C5H10N+
95.0491	1	C6H7O+
108.0807	8	C7H10N+
109.0281	1	C6H5O2+
109.0648	2	C7H9O+
117.0698	3	C9H9+
124.0392	8	C6H6NO2+
130.0651	8	C9H8N+
132.0806	1	C9H10N+
133.0643	1	C9H9O+
134.0966	1	C9H12N+
143.0729	3	C10H9N+
144.0806	999	C10H10N+
149.0596	1	C9H9O2+
150.0912	1	C9H12NO+
156.0806	17	C11H10N+
157.0879	1	C11H11N+
158.0963	22	C11H12N+
162.0912	3	C10H12NO+
164.0706	4	C9H10NO2+
167.0699	5	C9H11O3+
168.0804	2	C12H10N+
168.1015	1	C9H14NO2+
170.0963	41	C12H12N+
172.1125	1	C12H14N+
178.0861	63	C10H12NO2+
180.0808	2	C13H10N+
182.0962	19	C13H12N+
185.1073	2	C12H13N2+
190.0859	1	C11H12NO2+
194.0968	1	C14H12N+
194.1175	1	C11H16NO2+
196.0966	3	C10H14NO3+
196.1115	2	C14H14N+
199.1226	7	C13H15N2+
206.0966	2	C15H12N+
208.0757	1	C14H10NO+
208.0968	3	C11H14NO3+
208.112	2	C15H14N+
210.1123	51	C11H16NO3+
222.091	1	C15H12NO+
222.1124	15	C12H16NO3+
222.1279	5	C16H16N+
224.1066	4	C15H14NO+
225.1383	1	C15H17N2+
232.1121	1	C17H14N+
234.0914	2	C16H12NO+
234.1277	3	C17H16N+
236.1433	2	C17H18N+
238.0866	1	C15H12NO2+
240.1019	1	C15H14NO2+
246.1272	1	C18H16N+
248.1072	1	C17H14NO+
250.0862	1	C16H12NO2+
250.1222	6	C17H16NO+
251.1537	5	C17H19N2+
252.1017	28	C16H14NO2+
253.1702	1	C17H21N2+
254.1171	2	C16H16NO2+
260.1068	2	C18H14NO+
262.1228	1	C18H16NO+
264.1381	4	C18H18NO+
266.1168	1	C17H16NO2+
274.1223	1	C19H16NO+
276.1375	1	C19H18NO+
278.1174	13	C18H16NO2+
284.128	12	C17H18NO3+
292.1327	4	C19H18NO2+
293.1641	2	C19H21N2O+
303.1486	1	C20H19N2O+
321.1601	9	C20H21N2O2+
324.1601	1	C20H22NO3+
353.1856	19	C21H25N2O3+
