Mass spectrum: alpha-Cyperone; LC-ESI-ITFT; MS2; CE: 125%; R=15000; [M+H]+
Name: alpha-Cyperone
Formula: C15H22O
Exact mass: 218.1671
SMILES: CC1=C2CC(CCC2(CCC1=O)C)C(=C)C
InChI: InChI=1S/C15H22O/c1-10(2)12-5-7-15(4)8-6-14(16)11(3)13(15)9-12/h12H,1,5-9H2,2-4H3
Instrument: LTQ Orbitrap XL Thermo Scientific
Instrument type: LC-ESI-ITFT
Ms type: MS2
Ion mode: POSITIVE
Ionization: ESI
Fragmentation mode: HCD
Collision energy: 125 % (nominal)
Resolution: 15000
Column name: Kinetex Evo C18 2.6 um 50 x 2.1 mm
Retention time: 13.134 min
Base peak: 219.1742
Precursor m/z: 219.1743
Precursor type: [M+H]+
m/z	relative intensity	assigned
55.0542	33	C4H7+
65.0386	81	C5H5+
67.0542	448	C5H7+
69.0335	42	C4H5O+
69.0699	38	C5H9+
77.0386	545	C6H5+
79.0542	598	C6H7+
80.0623	32	C6H8+
81.0699	377	C6H9+
83.0492	35	C5H7O+
83.0854	31	C6H11+
91.0542	999	C7H7+
92.0621	16	C7H8+
93.0699	439	C7H9+
95.0491	157	C6H7O+
95.0855	194	C7H11+
96.0571	21	C6H8O+
97.0648	143	C6H9O+
103.0542	87	C8H7+
104.062	25	C8H8+
105.0698	387	C8H9+
107.0492	83	C7H7O+
107.0855	79	C8H11+
108.057	64	C7H8O+
109.0647	73	C7H9O+
109.1012	24	C8H13+
111.0804	641	C7H11O+
115.0541	78	C9H7+
116.0616	21	C9H8+
117.0699	125	C9H9+
119.0855	124	C9H11+
121.0647	123	C8H9O+
121.1014	11	C9H13+
122.0726	19	C8H10O+
123.0804	262	C8H11O+
128.0621	105	C10H8+
129.0699	115	C10H9+
130.0777	19	C10H10+
131.0852	40	C10H11+
133.0646	33	C9H9O+
133.101	22	C10H13+
135.0804	84	C9H11O+
137.0959	30	C9H13O+
142.0777	25	C11H10+
143.0854	67	C11H11+
146.0729	20	C10H10O+
147.0805	18	C10H11O+
149.096	12	C10H13O+
161.0961	51	C11H13O+
