Mass spectrum: Senecionine; LC-ESI-ITFT; MS2; CE: 70%; R=15000; [M+H]+
Name: Senecionine
Name: (1R,4Z,6R,7R,17R)-4-ethylidene-7-hydroxy-6,7-dimethyl-2,9-dioxa-14-azatricyclo[9.5.1.014,17]heptadec-11-ene-3,8-dione
Formula: C18H25NO5
Exact mass: 335.1733
SMILES: C/C=C\1/C[C@H]([C@@](C(=O)OCC2=CCN3[C@H]2[C@@H](CC3)OC1=O)(C)O)C
InChI: InChI=1S/C18H25NO5/c1-4-12-9-11(2)18(3,22)17(21)23-10-13-5-7-19-8-6-14(15(13)19)24-16(12)20/h4-5,11,14-15,22H,6-10H2,1-3H3/b12-4-/t11-,14-,15-,18-/m1/s1
Instrument: LTQ Orbitrap XL Thermo Scientific
Instrument type: LC-ESI-ITFT
Ms type: MS2
Ion mode: POSITIVE
Ionization: ESI
Fragmentation mode: HCD
Collision energy: 70% (nominal)
Resolution: 15000
Column name: Kinetex Evo C18 2.6 um 50 x 2.1 mm
Retention time: 4.053 min
Base peak: 143.0016
Precursor m/z: 336.1805
Precursor type: [M+H]+
m/z	relative intensity	assigned
53.0386	32	C4H5+
67.0542	191	C5H7+
68.0494	78	C4H6N+
77.0387	59	C6H5+
79.0543	122	C6H7+
80.0496	166	C5H6N+
81.0575	36	C5H7N+
81.0699	198	C6H9+
82.0652	179	C5H8N+
83.0493	33	C5H7O+
84.0442	28	C4H6NO+
91.0543	181	C7H7+
92.0494	23	C6H6N+
93.0574	20	C6H7N+
93.07	259	C7H9+
94.0652	868	C6H8N+
95.073	33	C6H9N+
95.0857	21	C7H11+
96.0808	327	C6H10N+
101.0598	21	C5H9O2+
103.0543	121	C8H7+
105.0572	27	C7H7N+
105.0699	57	C8H9+
106.0655	31	C7H8N+
107.073	34	C7H9N+
107.0856	144	C8H11+
108.0808	223	C7H10N+
109.065	42	C7H9O+
109.101	27	C8H13+
110.0603	35	C6H8NO+
110.0965	142	C7H12N+
118.0653	106	C8H8N+
119.0729	23	C8H9N+
120.0808	999	C8H10N+
121.0887	41	C8H11N+
122.0964	168	C8H12N+
125.0962	155	C8H13O+
135.0804	38	C9H11O+
138.0914	778	C8H12NO+
140.107	31	C8H14NO+
153.0912	96	C9H13O2+
156.102	59	C8H14NO2+
220.1332	59	C13H18NO2+
308.1856	114	C17H26NO4+
336.1805	101	C18H26NO5+
