Mass spectrum: 8-Prenylnaringenin; LC-ESI-ITFT; MS2; CE: 90%; R=15000; [M+H]+
Name: 8-Prenylnaringenin
Name: (2S)-5,7-dihydroxy-2-(4-hydroxyphenyl)-8-(3-methylbut-2-enyl)-2,3-dihydrochromen-4-one
Formula: C20H20O5
Exact mass: 340.1311
SMILES: CC(=CCC1=C(C=C(C2=C1O[C@@H](CC2=O)C3=CC=C(C=C3)O)O)O)C
InChI: InChI=1S/C20H20O5/c1-11(2)3-8-14-15(22)9-16(23)19-17(24)10-18(25-20(14)19)12-4-6-13(21)7-5-12/h3-7,9,18,21-23H,8,10H2,1-2H3/t18-/m0/s1
Instrument: LTQ Orbitrap XL Thermo Scientific
Instrument type: LC-ESI-ITFT
Ms type: MS2
Ion mode: POSITIVE
Ionization: ESI
Fragmentation mode: HCD
Collision energy: 90% (nominal)
Resolution: 15000
Column name: Kinetex Evo C18 2.6 um 50 x 2.1 mm
Retention time: 11.913 min
Base peak: 116.9859
Precursor m/z: 341.1384
Precursor type: [M+H]+
m/z	relative intensity	assigned
51.0229	7	C4H3+
55.0178	41	C3H3O+
59.0492	4	C3H7O+
65.0385	12	C5H5+
67.0177	10	C4H3O+
68.9971	121	C3HO2+
69.0334	32	C4H5O+
79.0179	60	C5H3O+
81.0335	162	C5H5O+
91.0542	22	C7H7+
92.9971	165	C5HO2+
97.0285	30	C5H5O2+
99.0077	107	C4H3O3+
103.0543	5	C8H7+
107.0492	80	C7H7O+
109.0284	75	C6H5O2+
111.0076	12	C5H3O3+
115.0541	5	C9H7+
119.0492	38	C8H7O+
121.0283	12	C7H5O2+
121.0646	13	C8H9O+
123.0077	93	C6H3O3+
137.0234	129	C7H5O3+
141.0184	23	C6H5O4+
141.0697	5	C11H9+
147.0075	14	C8H3O3+
147.0442	32	C9H7O2+
157.065	16	C11H9O+
165.0183	999	C8H5O4+
169.0648	8	C12H9O+
179.0337	10	C9H7O4+
183.0289	41	C8H7O5+
197.0443	4	C9H9O5+
