Mass spectrum: Seneciphylline N-oxide; LC-ESI-ITFT; MS2; CE: 80%; R=15000; [M+H]+
Name: Seneciphylline N-oxide
Name: (1R,4E,7R,17R)-4-ethylidene-7-hydroxy-7-methyl-6-methylidene-14-oxido-2,9-dioxa-14-azoniatricyclo[9.5.1.014,17]heptadec-11-ene-3,8-dione
Formula: C18H23NO6
Exact mass: 349.1525
SMILES: C/C=C/1\CC(=C)[C@@](C(=O)OCC2=CC[N+]3([C@H]2[C@@H](CC3)OC1=O)[O-])(C)O
InChI: InChI=1S/C18H23NO6/c1-4-12-9-11(2)18(3,22)17(21)24-10-13-5-7-19(23)8-6-14(15(13)19)25-16(12)20/h4-5,14-15,22H,2,6-10H2,1,3H3/b12-4+/t14-,15-,18-,19?/m1/s1
Instrument: LTQ Orbitrap XL Thermo Scientific
Instrument type: LC-ESI-ITFT
Ms type: MS2
Ion mode: POSITIVE
Ionization: ESI
Fragmentation mode: HCD
Collision energy: 80% (nominal)
Resolution: 15000
Column name: Kinetex Evo C18 2.6 um 50 x 2.1 mm
Retention time: 2.981 min
Base peak: 350.1597
Precursor m/z: 350.1598
Precursor type: [M+H]+
m/z	relative intensity	assigned
67.0417	11	C4H5N+
67.0542	32	C5H7+
68.0494	18	C4H6N+
70.0652	10	C4H8N+
77.0386	14	C6H5+
79.0543	64	C6H7+
80.0495	148	C5H6N+
81.0575	32	C5H7N+
81.0699	48	C6H9+
82.0653	26	C5H8N+
84.0444	28	C4H6NO+
91.0543	99	C7H7+
92.0494	20	C6H6N+
93.0573	439	C6H7N+
94.0651	999	C6H8N+
95.073	128	C6H9N+
95.0856	39	C7H11+
96.0446	11	C5H6NO+
96.0806	13	C6H10N+
98.0601	37	C5H8NO+
105.0699	53	C8H9+
106.0652	170	C7H8N+
107.0492	60	C7H7O+
107.0731	11	C7H9N+
108.0808	173	C7H10N+
109.0648	93	C7H9O+
109.0886	27	C7H11N+
110.0602	20	C6H8NO+
111.0683	18	C6H9NO+
112.0759	20	C6H10NO+
117.0574	33	C8H7N+
118.0652	548	C8H8N+
119.073	307	C8H9N+
120.0808	812	C8H10N+
122.0963	41	C8H12N+
123.0808	29	C8H11O+
124.0755	14	C7H10NO+
132.0807	25	C9H10N+
133.0646	15	C9H9O+
134.0965	16	C9H12N+
136.0758	523	C8H10NO+
138.0914	106	C8H12NO+
146.0962	13	C10H12N+
151.0753	18	C9H11O2+
154.0866	23	C8H12NO2+
158.096	9	C11H12N+
