Mass spectrum: Pterosin A; LC-ESI-ITFT; MS2; CE: 80%; R=15000; [M+H]+
Name: Pterosin A
Name: (2S)-6-(2-hydroxyethyl)-2-(hydroxymethyl)-2,5,7-trimethyl-3H-inden-1-one
Formula: C15H20O3
Exact mass: 248.1412
SMILES: CC1=CC2=C(C(=C1CCO)C)C(=O)[C@](C2)(C)CO
InChI: InChI=1S/C15H20O3/c1-9-6-11-7-15(3,8-17)14(18)13(11)10(2)12(9)4-5-16/h6,16-17H,4-5,7-8H2,1-3H3/t15-/m0/s1
Instrument: LTQ Orbitrap XL Thermo Scientific
Instrument type: LC-ESI-ITFT
Ms type: MS2
Ion mode: POSITIVE
Ionization: ESI
Fragmentation mode: HCD
Collision energy: 80 % (nominal)
Resolution: 15000
Column name: Kinetex Evo C18 2.6 um 50 x 2.1 mm
Retention time: 9.228 min
Base peak: 249.1476
Precursor m/z: 249.1485
Precursor type: [M+H]+
m/z	relative intensity	assigned
79.0541	36	C6H7+
91.0541	17	C7H7+
105.0697	47	C8H9+
115.054	14	C9H7+
117.0694	7	C9H9+
119.0853	67	C9H11+
128.0618	65	C10H8+
129.0696	101	C10H9+
130.0774	14	C10H10+
131.0853	22	C10H11+
133.1009	97	C10H13+
141.0696	123	C11H9+
142.0774	408	C11H10+
143.0852	179	C11H11+
144.0932	61	C11H12+
145.1009	70	C11H13+
153.0699	17	C12H9+
154.0775	21	C12H10+
155.0853	583	C12H11+
156.0931	281	C12H12+
157.1009	442	C12H13+
158.109	26	C12H14+
159.0797	9	C11H11O+
159.1166	28	C12H15+
163.1118	9	C11H15O+
165.0698	17	C13H9+
168.0931	19	C13H12+
169.0644	16	C12H9O+
169.1009	62	C13H13+
170.1087	999	C13H14+
171.0802	7	C12H11O+
171.1172	5	C13H15+
172.0876	14	C12H12O+
172.1243	20	C13H16+
173.0963	6	C12H13O+
173.1318	13	C13H17+
183.0801	33	C13H11O+
183.1165	25	C14H15+
184.0877	14	C13H12O+
185.0958	48	C13H13O+
185.1321	271	C14H17+
198.1033	24	C14H14O+
200.1187	7	C14H16O+
201.1272	5	C14H17O+
203.1426	33	C14H19O+
213.1273	10	C15H17O+
