Mass spectrum: Seneciphylline N-oxide; LC-ESI-ITFT; MS2; CE: 75%; R=15000; [M+H]+
Name: Seneciphylline N-oxide
Name: (1R,4E,7R,17R)-4-ethylidene-7-hydroxy-7-methyl-6-methylidene-14-oxido-2,9-dioxa-14-azoniatricyclo[9.5.1.014,17]heptadec-11-ene-3,8-dione
Formula: C18H23NO6
Exact mass: 349.1525
SMILES: C/C=C/1\CC(=C)[C@@](C(=O)OCC2=CC[N+]3([C@H]2[C@@H](CC3)OC1=O)[O-])(C)O
InChI: InChI=1S/C18H23NO6/c1-4-12-9-11(2)18(3,22)17(21)24-10-13-5-7-19(23)8-6-14(15(13)19)25-16(12)20/h4-5,14-15,22H,2,6-10H2,1,3H3/b12-4+/t14-,15-,18-,19?/m1/s1
Instrument: LTQ Orbitrap XL Thermo Scientific
Instrument type: LC-ESI-ITFT
Ms type: MS2
Ion mode: POSITIVE
Ionization: ESI
Fragmentation mode: HCD
Collision energy: 75% (nominal)
Resolution: 15000
Column name: Kinetex Evo C18 2.6 um 50 x 2.1 mm
Retention time: 2.981 min
Base peak: 350.1597
Precursor m/z: 350.1598
Precursor type: [M+H]+
m/z	relative intensity	assigned
67.0415	10	C4H5N+
67.0543	28	C5H7+
68.0495	19	C4H6N+
70.0652	25	C4H8N+
77.0386	17	C6H5+
79.0543	77	C6H7+
80.0495	155	C5H6N+
81.0572	25	C5H7N+
81.07	57	C6H9+
82.0652	32	C5H8N+
84.0446	35	C4H6NO+
91.0543	96	C7H7+
92.0498	14	C6H6N+
93.0574	448	C6H7N+
94.0652	999	C6H8N+
95.073	200	C6H9N+
95.0857	29	C7H11+
96.0808	22	C6H10N+
98.0603	44	C5H8NO+
105.07	71	C8H9+
106.0652	205	C7H8N+
107.0492	61	C7H7O+
107.0732	18	C7H9N+
107.0855	18	C8H11+
108.0809	185	C7H10N+
109.0649	113	C7H9O+
109.0887	36	C7H11N+
110.0603	25	C6H8NO+
111.0678	21	C6H9NO+
112.0757	37	C6H10NO+
117.0577	18	C8H7N+
118.0652	548	C8H8N+
119.0731	383	C8H9N+
120.0809	930	C8H10N+
121.0647	15	C8H9O+
121.0889	24	C8H11N+
122.0725	12	C8H10O+
122.0964	54	C8H12N+
123.0806	63	C8H11O+
124.0757	27	C7H10NO+
132.081	22	C9H10N+
133.0652	22	C9H9O+
134.0964	15	C9H12N+
136.0758	585	C8H10NO+
137.0837	12	C8H11NO+
138.0914	158	C8H12NO+
146.0965	16	C10H12N+
149.0599	10	C9H9O2+
151.0753	30	C9H11O2+
154.0865	36	C8H12NO2+
178.1234	16	C11H16NO+
209.1179	16	C12H17O3+
