Mass spectrum: Echimidine N-oxide; LC-ESI-ITFT; MS2; CE: 100%; R=15000; [M+H]+
Name: Echimidine N-oxide
Name: [(7R,8R)-7-[(Z)-2-methylbut-2-enoyl]oxy-4-oxido-5,6,7,8-tetrahydro-3H-pyrrolizin-4-ium-1-yl]methyl (2R)-2,3-dihydroxy-2-[(1S)-1-hydroxyethyl]-3-methylbutanoate
Formula: C20H31NO8
Exact mass: 413.2050
SMILES: C/C=C(/C)\C(=O)O[C@@H]1CC[N+]2([C@@H]1C(=CC2)COC(=O)[C@@]([C@H](C)O)(C(C)(C)O)O)[O-]
InChI: InChI=1S/C20H31NO8/c1-6-12(2)17(23)29-15-8-10-21(27)9-7-14(16(15)21)11-28-18(24)20(26,13(3)22)19(4,5)25/h6-7,13,15-16,22,25-26H,8-11H2,1-5H3/b12-6-/t13-,15+,16+,20-,21?/m0/s1
Instrument: LTQ Orbitrap XL Thermo Scientific
Instrument type: LC-ESI-ITFT
Ms type: MS2
Ion mode: POSITIVE
Ionization: ESI
Fragmentation mode: HCD
Collision energy: 100% (nominal)
Resolution: 15000
Column name: Kinetex Evo C18 2.6 um 50 x 2.1 mm
Retention time: 6.545 min
Base peak: 414.2117
Precursor m/z: 414.2122
Precursor type: [M+H]+
m/z	relative intensity	assigned
55.0541	195	C4H7+
65.0384	11	C5H5+
66.0464	19	C5H6+
67.0417	33	C4H5N+
67.0542	65	C5H7+
68.0494	64	C4H6N+
69.0334	11	C4H5O+
77.0385	28	C6H5+
79.0543	137	C6H7+
80.0495	496	C5H6N+
81.0573	37	C5H7N+
81.0698	65	C6H9+
82.0416	15	C5H6O+
82.0652	69	C5H8N+
83.0491	718	C5H7O+
84.0445	73	C4H6NO+
91.0542	152	C7H7+
92.0495	46	C6H6N+
93.0573	421	C6H7N+
93.07	36	C7H9+
94.0651	999	C6H8N+
95.0493	15	C6H7O+
95.073	51	C6H9N+
96.0443	23	C5H6NO+
96.0809	20	C6H10N+
98.0602	24	C5H8NO+
103.0543	21	C8H7+
105.0574	21	C7H7N+
105.07	19	C8H9+
106.0651	483	C7H8N+
107.0729	33	C7H9N+
107.0856	10	C8H11+
108.0808	237	C7H10N+
109.0884	18	C7H11N+
110.06	73	C6H8NO+
111.0679	130	C6H9NO+
112.0757	46	C6H10NO+
117.0574	37	C8H7N+
118.0651	390	C8H8N+
119.073	180	C8H9N+
120.0808	360	C8H10N+
121.0888	14	C8H11N+
122.06	16	C7H8NO+
124.0757	82	C7H10NO+
132.0814	12	C9H10N+
136.0757	327	C8H10NO+
137.0835	47	C8H11NO+
138.0914	34	C8H12NO+
141.091	72	C8H13O2+
154.0862	58	C8H12NO2+
172.0968	11	C8H14NO3+
