Mass spectrum: Senkirkine; LC-ESI-ITFT; MS2; CE: 90%; R=15000; [M+H]+
Name: Senkirkine
Name: (1R,4Z,6R,7R,11Z)-4-ethylidene-7-hydroxy-6,7,14-trimethyl-2,9-dioxa-14-azabicyclo[9.5.1]heptadec-11-ene-3,8,17-trione
Formula: C19H27NO6
Exact mass: 365.1838
SMILES: C/C=C\1/C[C@H]([C@@](C(=O)OC/C/2=C/CN(CC[C@H](C2=O)OC1=O)C)(C)O)C
InChI: InChI=1S/C19H27NO6/c1-5-13-10-12(2)19(3,24)18(23)25-11-14-6-8-20(4)9-7-15(16(14)21)26-17(13)22/h5-6,12,15,24H,7-11H2,1-4H3/b13-5-,14-6-/t12-,15-,19-/m1/s1
Instrument: LTQ Orbitrap XL Thermo Scientific
Instrument type: LC-ESI-ITFT
Ms type: MS2
Ion mode: POSITIVE
Ionization: ESI
Fragmentation mode: HCD
Collision energy: 90% (nominal)
Resolution: 15000
Column name: Kinetex Evo C18 2.6 um 50 x 2.1 mm
Retention time: 6.359 min
Base peak: 366.1908
Precursor m/z: 366.1911
Precursor type: [M+H]+
m/z	relative intensity	assigned
53.0385	17	C4H5+
55.0541	12	C4H7+
57.9921	4	CNO2+
65.0385	13	C5H5+
67.0541	99	C5H7+
68.0494	12	C4H6N+
69.0335	25	C4H5O+
69.0698	12	C5H9+
70.0651	999	C4H8N+
73.0645	8	C4H9O+
77.0385	129	C6H5+
79.0542	432	C6H7+
80.0494	10	C5H6N+
81.0334	17	C5H5O+
81.0573	18	C5H7N+
81.0698	131	C6H9+
82.0651	66	C5H8N+
83.0127	5	C4H3O2+
83.0491	73	C5H7O+
84.0807	13	C5H10N+
91.0542	166	C7H7+
92.0623	5	C7H8+
93.0572	19	C6H7N+
93.0699	24	C7H9+
94.0651	619	C6H8N+
95.0491	171	C6H7O+
95.0729	10	C6H9N+
96.0807	115	C6H10N+
97.0282	12	C5H5O2+
97.0647	62	C6H9O+
98.06	63	C5H8NO+
99.0441	10	C5H7O2+
101.0596	37	C5H9O2+
105.0698	56	C8H9+
106.0651	18	C7H8N+
107.049	261	C7H7O+
107.0729	108	C7H9N+
107.0854	238	C8H11+
108.0807	31	C7H10N+
109.0527	5	C6H7NO+
109.0647	37	C7H9O+
109.1011	22	C8H13+
110.0599	460	C6H8NO+
111.044	6	C6H7O2+
111.0799	8	C7H11O+
112.0756	39	C6H10NO+
115.054	5	C9H7+
116.0706	15	C5H10NO2+
117.0574	13	C8H7N+
117.0698	14	C9H9+
120.0807	50	C8H10N+
121.0886	12	C8H11N+
122.0599	550	C7H8NO+
122.0963	129	C8H12N+
123.0678	44	C7H9NO+
124.0755	54	C7H10NO+
125.0596	75	C7H9O2+
125.0832	14	C7H11NO+
125.0961	63	C8H13O+
132.0806	16	C9H10N+
134.0603	7	C8H8NO+
135.0803	42	C9H11O+
137.0834	22	C8H11NO+
138.0912	8	C8H12NO+
140.0705	512	C7H10NO2+
148.0757	8	C9H10NO+
150.0912	75	C9H12NO+
168.1018	704	C9H14NO2+
