Mass spectrum: Coniferaldehyde; LC-ESI-ITFT; MS2; CE: 90%; R=15000; [M+H]+
Name: Coniferaldehyde
Formula: C10H10O3
Exact mass: 178.0630
SMILES: COC1=CC(\C=C\C=O)=CC=C1O
InChI: InChI=1S/C10H10O3/c1-13-10-7-8(3-2-6-11)4-5-9(10)12/h2-7,12H,1H3/b3-2+
Instrument: LTQ Orbitrap XL Thermo Scientific
Instrument type: LC-ESI-ITFT
Ms type: MS2
Ion mode: POSITIVE
Ionization: ESI
Fragmentation mode: CID
Collision energy: 90 % (nominal)
Resolution: 15000
Column name: Kinetex Evo C18 2.6 um 50 x 2.1 mm
Retention time: 7.426 min
Base peak: 179.07
Precursor m/z: 179.0703
Precursor type: [M+H]+
m/z	relative intensity	assigned
55.0178	8	C3H3O+
91.0542	1	C7H7+
95.0492	13	C6H7O+
105.0699	29	C8H9+
115.0543	9	C9H7+
119.0492	40	C8H7O+
123.0442	30	C7H7O2+
123.0807	3	C8H11O+
131.0495	2	C9H7O+
133.0649	124	C9H9O+
135.0442	9	C8H7O2+
137.0597	7	C8H9O2+
143.0498	1	C10H7O+
147.0441	999	C9H7O2+
149.0596	1	C9H9O2+
151.0754	17	C9H11O2+
161.0598	991	C10H9O2+
164.0473	3	C9H8O3+
