Mass spectrum: Coniferaldehyde; LC-ESI-ITFT; MS2; CE: 95%; R=15000; [M+H]+
Name: Coniferaldehyde
Formula: C10H10O3
Exact mass: 178.0630
SMILES: COC1=CC(\C=C\C=O)=CC=C1O
InChI: InChI=1S/C10H10O3/c1-13-10-7-8(3-2-6-11)4-5-9(10)12/h2-7,12H,1H3/b3-2+
Instrument: LTQ Orbitrap XL Thermo Scientific
Instrument type: LC-ESI-ITFT
Ms type: MS2
Ion mode: POSITIVE
Ionization: ESI
Fragmentation mode: HCD
Collision energy: 95 % (nominal)
Resolution: 15000
Column name: Kinetex Evo C18 2.6 um 50 x 2.1 mm
Retention time: 7.411 min
Base peak: 179.0702
Precursor m/z: 179.0703
Precursor type: [M+H]+
m/z	relative intensity	assigned
65.0386	79	C5H5+
77.0387	59	C6H5+
79.0543	179	C6H7+
80.0621	82	C6H8+
82.0414	14	C5H6O+
89.0387	43	C7H5+
90.0465	102	C7H6+
91.0543	999	C7H7+
92.0257	12	C6H4O+
93.0331	8	C6H5O+
94.0414	46	C6H6O+
95.0493	19	C6H7O+
102.0464	9	C8H6+
103.0543	68	C8H7+
105.07	39	C8H9+
107.0492	223	C7H7O+
108.057	43	C7H8O+
110.0364	14	C6H6O2+
115.0544	18	C9H7+
118.0414	229	C8H6O+
119.0493	197	C8H7O+
121.0287	8	C7H5O2+
122.0362	9	C7H6O2+
123.044	4	C7H7O2+
131.0493	6	C9H7O+
133.0647	15	C9H9O+
135.0442	95	C8H7O2+
136.052	168	C8H8O2+
137.0601	6	C8H9O2+
146.0363	151	C9H6O2+
147.0442	38	C9H7O2+
150.0678	5	C9H10O2+
161.0603	8	C10H9O2+
163.0396	10	C9H7O3+
