Mass spectrum: 5,7-Dihydroxy-4-phenylcoumarin; LC-ESI-ITFT; MS2; CE: 40%; R=15000; [M+H]+
Name: 5,7-Dihydroxy-4-phenylcoumarin
Name: 5,7-dihydroxy-4-phenylchromen-2-one
Formula: C15H10O4
Exact mass: 254.0579
SMILES: OC1=CC(O)=C2C(OC(=O)C=C2C2=CC=CC=C2)=C1
InChI: InChI=1S/C15H10O4/c16-10-6-12(17)15-11(9-4-2-1-3-5-9)8-14(18)19-13(15)7-10/h1-8,16-17H
Instrument: LTQ Orbitrap XL Thermo Scientific
Instrument type: LC-ESI-ITFT
Ms type: MS2
Ion mode: POSITIVE
Ionization: ESI
Fragmentation mode: HCD
Collision energy: 40% (nominal)
Resolution: 15000
Column name: Kinetex Evo C18 2.6 um 50 x 2.1 mm
Retention time: 9.817 min
Base peak: 116.9858
Precursor m/z: 255.0652
Precursor type: [M+H]+
m/z	relative intensity	assigned
105.0334	7	C7H5O+
141.0702	2	C11H9+
145.0646	3	C10H9O+
149.0235	3	C8H5O3+
153.0182	12	C7H5O4+
155.0854	4	C12H11+
165.07	14	C13H9+
169.0646	3	C12H9O+
171.044	26	C11H7O2+
183.0804	2	C13H11O+
193.0647	10	C14H9O+
199.0753	14	C13H11O2+
211.0752	26	C14H11O2+
255.0651	999	C15H11O4+
