Mass spectrum: alpha-Cyperone; LC-ESI-ITFT; MS2; CE: 70%; R=15000; [M+H]+
Name: alpha-Cyperone
Formula: C15H22O
Exact mass: 218.1671
SMILES: CC1=C2CC(CCC2(CCC1=O)C)C(=C)C
InChI: InChI=1S/C15H22O/c1-10(2)12-5-7-15(4)8-6-14(16)11(3)13(15)9-12/h12H,1,5-9H2,2-4H3
Instrument: LTQ Orbitrap XL Thermo Scientific
Instrument type: LC-ESI-ITFT
Ms type: MS2
Ion mode: POSITIVE
Ionization: ESI
Fragmentation mode: CID
Collision energy: 70 % (nominal)
Resolution: 15000
Column name: Kinetex Evo C18 2.6 um 50 x 2.1 mm
Retention time: 13.102 min
Base peak: 219.1742
Precursor m/z: 219.1743
Precursor type: [M+H]+
m/z	relative intensity	assigned
67.0543	22	C5H7+
69.07	3	C5H9+
77.0388	3	C6H5+
79.0544	23	C6H7+
81.07	52	C6H9+
91.0544	17	C7H7+
93.07	55	C7H9+
95.0857	163	C7H11+
97.0649	225	C6H9O+
105.07	118	C8H9+
107.0857	136	C8H11+
109.0649	28	C7H9O+
109.1013	326	C8H13+
111.0805	330	C7H11O+
117.07	7	C9H9+
119.0857	184	C9H11+
121.065	28	C8H9O+
121.1013	139	C9H13+
123.0806	160	C8H11O+
123.117	127	C9H15+
125.0962	38	C8H13O+
131.0857	94	C10H11+
133.1013	66	C10H13+
135.0806	131	C9H11O+
135.117	115	C10H15+
137.0963	44	C9H13O+
137.1326	6	C10H17+
139.1118	5	C9H15O+
145.1014	419	C11H13+
147.117	201	C11H15+
149.0963	138	C10H13O+
149.1327	39	C11H17+
151.1119	7	C10H15O+
159.1171	415	C12H15+
161.1328	303	C12H17+
162.104	8	C11H14O+
163.1119	999	C11H15O+
173.1327	345	C13H17+
175.1483	91	C13H19+
176.1198	21	C12H16O+
177.1277	101	C12H17O+
177.164	48	C13H21+
191.1433	34	C13H19O+
191.1797	59	C14H23+
201.164	853	C15H21+
204.1511	11	C14H20O+
