Mass spectrum: Senecivernine; LC-ESI-ITFT; MS2; CE: 90%; R=15000; [M+H]+
Name: Senecivernine
Name: (1R,5R,6R,7R,17R)-7-hydroxy-5,6,7-trimethyl-4-methylidene-2,9-dioxa-14-azatricyclo[9.5.1.014,17]heptadec-11-ene-3,8-dione
Formula: C18H25NO5
Exact mass: 335.1733
SMILES: C[C@@H]1[C@H]([C@@](C(=O)OCC2=CCN3[C@H]2[C@@H](CC3)OC(=O)C1=C)(C)O)C
InChI: InChI=1S/C18H25NO5/c1-10-11(2)16(20)24-14-6-8-19-7-5-13(15(14)19)9-23-17(21)18(4,22)12(10)3/h5,10,12,14-15,22H,2,6-9H2,1,3-4H3/t10-,12+,14+,15+,18+/m0/s1
Instrument: LTQ Orbitrap XL Thermo Scientific
Instrument type: LC-ESI-ITFT
Ms type: MS2
Ion mode: POSITIVE
Ionization: ESI
Fragmentation mode: HCD
Collision energy: 90% (nominal)
Resolution: 15000
Column name: Kinetex Evo C18 2.6 um 50 x 2.1 mm
Retention time: 3.395 min
Base peak: 143.0015
Precursor m/z: 336.1805
Precursor type: [M+H]+
m/z	relative intensity	assigned
65.0384	53	C5H5+
67.0542	537	C5H7+
68.0494	238	C4H6N+
77.0385	137	C6H5+
79.0543	544	C6H7+
80.0495	474	C5H6N+
81.0574	135	C5H7N+
81.0699	655	C6H9+
82.0652	238	C5H8N+
83.0492	113	C5H7O+
91.0543	499	C7H7+
92.0494	80	C6H6N+
93.0573	138	C6H7N+
93.0699	329	C7H9+
94.0651	999	C6H8N+
95.0733	61	C6H9N+
95.0852	40	C7H11+
96.0444	36	C5H6NO+
96.0808	379	C6H10N+
103.0542	172	C8H7+
105.0572	52	C7H7N+
105.07	121	C8H9+
106.0651	83	C7H8N+
107.073	88	C7H9N+
107.0857	141	C8H11+
108.0808	470	C7H10N+
109.0887	57	C7H11N+
109.1013	38	C8H13+
110.0601	139	C6H8NO+
110.0964	164	C7H12N+
111.0441	110	C6H7O2+
117.0698	36	C9H9+
118.0651	197	C8H8N+
119.0734	47	C8H9N+
120.0809	961	C8H10N+
121.0884	73	C8H11N+
122.0964	97	C8H12N+
125.0962	33	C8H13O+
136.0758	109	C8H10NO+
138.0914	312	C8H12NO+
154.0866	69	C8H12NO2+
156.1015	37	C8H14NO2+
