Mass spectrum: Senecivernine N-oxide; LC-ESI-ITFT; MS2; CE: 35%; R=15000; [M+H]+
Name: Senecivernine N-oxide
Name: CID 14313723
Name: 7-hydroxy-5,6,7-trimethyl-4-methylidene-14-oxido-2,9-dioxa-14-azoniatricyclo[9.5.1.014,17]heptadec-11-ene-3,8-dione
Formula: C18H25NO6
Exact mass: 351.1682
SMILES: CC1C(C(C(=O)OCC2=CC[N+]3(C2C(CC3)OC(=O)C1=C)[O-])(C)O)C
InChI: InChI=1S/C18H25NO6/c1-10-11(2)16(20)25-14-6-8-19(23)7-5-13(15(14)19)9-24-17(21)18(4,22)12(10)3/h5,10,12,14-15,22H,2,6-9H2,1,3-4H3
Instrument: LTQ Orbitrap XL Thermo Scientific
Instrument type: LC-ESI-ITFT
Ms type: MS2
Ion mode: POSITIVE
Ionization: ESI
Fragmentation mode: HCD
Collision energy: 35% (nominal)
Resolution: 15000
Column name: Kinetex Evo C18 2.6 um 50 x 2.1 mm
Retention time: 4.712 min
Base peak: 352.1754
Precursor m/z: 352.1755
Precursor type: [M+H]+
m/z	relative intensity	assigned
95.0731	10	C6H9N+
106.065	3	C7H8N+
118.0652	16	C8H8N+
119.073	9	C8H9N+
120.081	7	C8H10N+
121.0886	19	C8H11N+
122.0965	2	C8H12N+
136.0758	7	C8H10NO+
138.0915	9	C8H12NO+
153.0912	2	C9H13O2+
154.0859	5	C8H12NO2+
220.1333	8	C13H18NO2+
246.1488	2	C15H20NO2+
248.165	6	C15H22NO2+
324.1809	6	C17H26NO5+
352.1756	999	C18H26NO6+
