Mass spectrum: Gelsemine; LC-ESI-ITFT; MS2; CE: 105%; R=15000; [M+H]+
Name: Gelsemine
Name: (2`S,3S,5`S,6`S,11`S)-2`-ethenyl-4`-methylspiro[1H-indole-3,7`-9-oxa-4-azatetracyclo[6.3.1.02,6.05,11]dodecane]-2-one
Formula: C20H22N2O2
Exact mass: 322.1681
SMILES: CN1C[C@@]2([C@@H]3[C@H]1[C@@H]4C2CC([C@@]35c6ccccc6NC5=O)OC4)C=C
InChI: InChI=1S/C20H22N2O2/c1-3-19-10-22(2)16-11-9-24-15(8-13(11)19)20(17(16)19)12-6-4-5-7-14(12)21-18(20)23/h3-7,11,13,15-17H,1,8-10H2,2H3,(H,21,23)/t11-,13?,15?,16+,17-,19-,20-/m0/s1
Instrument: LTQ Orbitrap XL Thermo Scientific
Instrument type: LC-ESI-ITFT
Ms type: MS2
Ion mode: POSITIVE
Ionization: ESI
Fragmentation mode: HCD
Collision energy: 105% (nominal)
Resolution: 15000
Column name: Kinetex Evo C18 2.6 um 50 x 2.1 mm
Retention time: 1.779 min
Base peak: 143.0015
Precursor m/z: 323.1754
Precursor type: [M+H]+
m/z	relative intensity	assigned
70.0651	999	C4H8N+
77.0386	16	C6H5+
79.0542	20	C6H7+
86.0599	23	C4H8NO+
91.0543	211	C7H7+
94.0652	19	C6H8N+
103.0542	32	C8H7+
104.0495	39	C7H6N+
105.07	29	C8H9+
106.0649	22	C7H8N+
108.0809	13	C7H10N+
115.0543	133	C9H7+
116.0621	54	C9H8+
117.0699	92	C9H9+
118.065	18	C8H8N+
120.081	35	C8H10N+
128.0495	70	C9H6N+
128.062	18	C10H8+
129.0701	21	C10H9+
130.0652	110	C9H8N+
131.0856	25	C10H11+
132.0444	115	C8H6NO+
132.0809	16	C9H10N+
134.0966	36	C9H12N+
146.0601	56	C9H8NO+
146.0966	28	C10H12N+
152.0622	23	C12H8+
154.0644	28	C11H8N+
160.1125	10	C11H14N+
165.0702	64	C13H9+
166.0651	41	C12H8N+
167.0729	164	C12H9N+
168.0806	19	C12H10N+
177.0573	55	C13H7N+
178.0653	60	C13H8N+
180.0808	65	C13H10N+
183.0686	15	C12H9NO+
190.065	47	C14H8N+
191.0728	29	C14H9N+
191.0852	13	C15H11+
192.0809	21	C14H10N+
193.0884	27	C14H11N+
195.0678	271	C13H9NO+
196.0756	79	C13H10NO+
202.0781	12	C16H10+
203.073	87	C15H9N+
204.0805	36	C15H10N+
208.0759	43	C14H10NO+
210.0914	40	C14H12NO+
216.08	34	C16H10N+
217.0884	66	C16H11N+
218.0962	26	C16H12N+
220.0752	30	C15H10NO+
222.0913	11	C15H12NO+
236.1077	26	C16H14NO+
