Mass spectrum: Colchicine; LC-ESI-ITFT; MS2; CE: 45%; R=15000; [M+H]+
Name: Colchicine
Name: N-[(7S)-1,2,3,10-tetramethoxy-9-oxo-6,7-dihydro-5H-benzo[a]heptalen-7-yl]acetamide
Formula: C22H25NO6
Exact mass: 399.1682
SMILES: CC(=O)N[C@H]1CCC2=CC(=C(C(=C2C3=CC=C(C(=O)C=C13)OC)OC)OC)OC
InChI: InChI=1S/C22H25NO6/c1-12(24)23-16-8-6-13-10-19(27-3)21(28-4)22(29-5)20(13)14-7-9-18(26-2)17(25)11-15(14)16/h7,9-11,16H,6,8H2,1-5H3,(H,23,24)/t16-/m0/s1
Instrument: LTQ Orbitrap XL Thermo Scientific
Instrument type: LC-ESI-ITFT
Ms type: MS2
Ion mode: POSITIVE
Ionization: ESI
Fragmentation mode: HCD
Collision energy: 45% (nominal)
Resolution: 15000
Column name: Kinetex Evo C18 2.6 um 50 x 2.1 mm
Retention time: 9.282 min
Base peak: 116.9858
Precursor m/z: 400.1755
Precursor type: [M+H]+
m/z	relative intensity	assigned
137.06	59	C8H9O2+
152.0706	53	C8H10NO2+
165.0789	51	C9H11NO2+
181.0857	92	C10H13O3+
193.0729	25	C10H11NO3+
203.0933	38	C12H13NO2+
207.1011	51	C12H15O3+
234.1128	178	C13H16NO3+
235.0756	27	C16H11O2+
239.1071	40	C16H15O2+
242.0942	39	C15H14O3+
249.0914	52	C17H13O2+
250.1	47	C17H14O2+
251.1062	35	C17H15O2+
255.1019	63	C16H15O3+
266.094	91	C17H14O3+
267.1018	237	C17H15O3+
268.1092	59	C17H16O3+
270.0894	57	C16H14O4+
270.1249	57	C17H18O3+
273.1125	44	C16H17O4+
277.0854	70	C18H13O3+
278.0936	190	C18H14O3+
279.0665	43	C17H11O4+
279.1018	74	C18H15O3+
281.1178	237	C18H17O3+
282.1251	810	C18H18O3+
283.0965	143	C17H15O4+
283.1317	39	C18H19O3+
284.105	58	C17H16O4+
285.1124	399	C17H17O4+
286.1196	35	C17H18O4+
287.0917	46	C16H15O5+
293.082	38	C18H13O4+
294.0893	106	C18H14O4+
294.1121	62	C18H16NO3+
295.0969	254	C18H15O4+
295.121	204	C18H17NO3+
297.1371	84	C18H19NO3+
298.0845	44	C17H14O5+
298.1202	288	C18H18O4+
298.144	204	C18H20NO3+
300.1237	73	C17H18NO4+
301.1078	30	C17H17O5+
301.1301	49	C17H19NO4+
302.1145	80	C17H18O5+
308.1291	43	C19H18NO3+
309.1126	254	C19H17O4+
309.1359	50	C19H19NO3+
310.1199	999	C19H18O4+
311.0917	286	C18H15O5+
311.1158	129	C18H17NO4+
312.1225	57	C18H18NO4+
313.1067	83	C18H17O5+
313.144	226	C19H21O4+
314.1026	28	C17H16NO5+
314.1396	77	C18H20NO4+
316.155	107	C18H22NO4+
323.1524	31	C20H21NO3+
324.1232	96	C19H18NO4+
325.1308	101	C19H19NO4+
326.1156	412	C19H18O5+
326.139	485	C19H20NO4+
327.146	63	C19H21NO4+
328.1185	265	C18H18NO5+
330.1692	29	C19H24NO4+
336.1223	27	C20H18NO4+
339.1474	142	C20H21NO4+
340.1548	256	C20H22NO4+
341.1389	441	C20H21O5+
342.1341	132	C19H20NO5+
343.1421	112	C19H21NO5+
352.1181	41	C20H18NO5+
354.1708	51	C21H24NO4+
357.1574	34	C20H23NO5+
358.1651	780	C20H24NO5+
367.1412	91	C21H21NO5+
382.1657	173	C22H24NO5+
400.1761	287	C22H26NO6+
