Mass spectrum: Galantamine; LC-ESI-ITFT; MS2; CE: 125%; R=15000; [M+H]+
Name: Galantamine
Formula: C17H21NO3
Exact mass: 287.1521
SMILES: CN1CCC23C=CC(CC2OC4=C(C=CC(=C34)C1)OC)O
InChI: InChI=1S/C17H21NO3/c1-18-8-7-17-6-5-12(19)9-14(17)21-16-13(20-2)4-3-11(10-18)15(16)17/h3-6,12,14,19H,7-10H2,1-2H3
Instrument: LTQ Orbitrap XL Thermo Scientific
Instrument type: LC-ESI-ITFT
Ms type: MS2
Ion mode: POSITIVE
Ionization: ESI
Fragmentation mode: HCD
Collision energy: 125 % (nominal)
Resolution: 15000
Column name: Kinetex Evo C18 2.6 um 50 x 2.1 mm
Retention time: 0.643 min
Base peak: 288.1592
Precursor m/z: 288.1594
Precursor type: [M+H]+
m/z	relative intensity	assigned
77.0386	73	C6H5+
79.0544	54	C6H7+
91.0543	138	C7H7+
94.0416	21	C6H6O+
102.0465	30	C8H6+
103.0544	92	C8H7+
105.07	55	C8H9+
115.0544	267	C9H7+
116.062	53	C9H8+
117.07	51	C9H9+
127.0542	126	C10H7+
128.0622	203	C10H8+
129.0699	57	C10H9+
131.0494	80	C9H7O+
132.0569	22	C9H8O+
139.0542	34	C11H7+
141.07	557	C11H9+
142.0779	75	C11H10+
144.0571	43	C10H8O+
145.065	169	C10H9O+
152.0623	262	C12H8+
153.07	138	C12H9+
154.0775	19	C12H10+
155.0493	999	C11H7O+
161.0596	20	C10H9O2+
165.0702	230	C13H9+
168.0571	68	C12H8O+
169.065	488	C12H9O+
170.0728	69	C12H10O+
171.0444	26	C11H7O2+
178.0784	17	C14H10+
181.0649	465	C13H9O+
182.0725	50	C13H10O+
183.0442	425	C12H7O2+
197.0599	148	C13H9O2+
198.0676	53	C13H10O2+
