Mass spectrum: Cevadine; LC-ESI-ITFT; MS2; CE: 65%; R=15000; [M+H]+
Name: Cevadine
Name: Veratrine
Name: [(1R,2S,6S,9S,10R,11S,12S,14R,15S,18S,19S,22S,23S,25R)-1,10,11,12,14,23-hexahydroxy-6,10,19-trimethyl-24-oxa-4-azaheptacyclo[12.12.0.02,11.04,9.015,25.018,23.019,25]hexacosan-22-yl] (Z)-2-methylbut-2-enoate
Formula: C32H49NO9
Exact mass: 591.3407
SMILES: C/C=C(/C)\C(=O)O[C@H]1CC[C@]2([C@H]3[C@@]1(O[C@@]24C[C@]5([C@@H]6CN7C[C@H](CC[C@H]7[C@@]([C@]6([C@H](C[C@]5([C@@H]4CC3)O)O)O)(C)O)C)O)O)C
InChI: InChI=1S/C32H49NO9/c1-6-18(3)25(35)41-24-11-12-26(4)19-8-9-20-28(37)13-23(34)31(39)21(29(28,38)16-30(20,26)42-32(19,24)40)15-33-14-17(2)7-10-22(33)27(31,5)36/h6,17,19-24,34,36-40H,7-16H2,1-5H3/b18-6-/t17-,19-,20-,21-,22-,23-,24-,26-,27+,28+,29+,30+,31-,32-/m0/s1
Instrument: LTQ Orbitrap XL Thermo Scientific
Instrument type: LC-ESI-ITFT
Ms type: MS2
Ion mode: POSITIVE
Ionization: ESI
Fragmentation mode: HCD
Collision energy: 65% (nominal)
Resolution: 15000
Column name: Kinetex Evo C18 2.6 um 50 x 2.1 mm
Retention time: 9.283 min
Base peak: 592.3471
Precursor m/z: 592.348
Precursor type: [M+H]+
m/z	relative intensity	assigned
55.0541	232	C4H7+
70.065	10	C4H8N+
81.0698	31	C6H9+
83.0491	619	C5H7O+
84.0808	39	C5H10N+
93.0697	12	C7H9+
95.0858	10	C7H11+
96.0806	26	C6H10N+
98.0964	284	C6H12N+
107.0854	11	C8H11+
108.0808	18	C7H10N+
109.0647	68	C7H9O+
110.0964	154	C7H12N+
111.1042	23	C7H13N+
112.1119	58	C7H14N+
119.0855	11	C9H11+
121.0649	27	C8H9O+
122.0965	31	C8H12N+
124.112	131	C8H14N+
125.1197	43	C8H15N+
126.0913	57	C7H12NO+
126.1276	212	C8H16N+
127.0749	14	C7H11O2+
128.107	45	C7H14NO+
131.0853	14	C10H11+
132.0807	19	C9H10N+
133.0649	13	C9H9O+
133.1008	16	C10H13+
135.0802	11	C9H11O+
136.1121	77	C9H14N+
137.12	48	C9H15N+
138.1276	832	C9H16N+
140.1066	15	C8H14NO+
143.0854	22	C11H11+
145.0645	8	C10H9O+
145.1013	26	C11H13+
146.0964	32	C10H12N+
147.0804	15	C10H11O+
147.1038	17	C10H13N+
148.1119	90	C10H14N+
149.1195	58	C10H15N+
150.1275	120	C10H16N+
152.1067	69	C9H14NO+
154.1225	213	C9H16NO+
155.0858	8	C12H11+
157.1015	22	C12H13+
159.0806	16	C11H11O+
160.1119	58	C11H14N+
161.0957	16	C11H13O+
161.1198	97	C11H15N+
162.1276	636	C11H16N+
163.135	140	C11H17N+
164.107	100	C10H14NO+
164.1432	431	C11H18N+
166.1226	23	C10H16NO+
169.1009	13	C13H13+
171.081	18	C12H11O+
171.1168	15	C13H15+
173.0958	13	C12H13O+
174.1276	217	C12H16N+
175.1351	55	C12H17N+
176.1074	27	C11H14NO+
176.1434	34	C12H18N+
177.1149	14	C11H15NO+
178.1225	116	C11H16NO+
179.1305	26	C11H17NO+
180.1379	78	C11H18NO+
181.1004	14	C14H13+
182.1174	27	C10H16NO2+
183.1168	14	C14H15+
185.0955	16	C13H13O+
186.1277	21	C13H16N+
187.1111	11	C13H15O+
187.1354	22	C13H17N+
188.1432	545	C13H18N+
189.1143	30	C12H15NO+
189.1509	63	C13H19N+
190.1224	177	C12H16NO+
190.1593	22	C13H20N+
191.1306	113	C12H17NO+
192.1381	195	C12H18NO+
193.146	170	C12H19NO+
195.1165	19	C15H15+
197.0963	19	C14H13O+
199.1117	16	C14H15O+
199.1357	11	C14H17N+
200.1436	14	C14H18N+
201.1272	15	C14H17O+
204.1381	67	C13H18NO+
206.1171	15	C12H16NO2+
206.1537	153	C13H20NO+
208.1693	562	C13H22NO+
211.1112	17	C15H15O+
212.1433	10	C15H18N+
213.1276	16	C15H17O+
215.1298	10	C14H17NO+
216.1379	22	C14H18NO+
220.1332	14	C13H18NO2+
221.1314	9	C17H17+
227.1305	13	C15H17NO+
229.1227	9	C15H17O2+
234.1491	27	C14H20NO2+
242.153	10	C16H20NO+
244.1323	17	C15H18NO2+
245.1416	11	C15H19NO2+
260.1644	34	C16H22NO2+
262.1439	32	C15H20NO3+
263.1513	40	C15H21NO3+
268.1703	13	C18H22NO+
280.1546	15	C15H22NO4+
280.1701	11	C19H22NO+
281.1621	74	C15H23NO4+
362.2087	8	C21H30O5+
374.2495	15	C26H32NO+
376.2282	9	C25H30NO2+
377.2327	11	C22H33O5+
378.2428	28	C25H32NO2+
390.2052	11	C25H28NO3+
390.2415	19	C26H32NO2+
392.2577	86	C26H34NO2+
393.2622	22	C23H37O5+
394.2386	21	C25H32NO3+
402.2421	88	C27H32NO2+
403.247	25	C24H35O5+
405.23	19	C26H31NO3+
408.253	31	C26H34NO3+
410.2681	39	C26H36NO3+
420.2528	322	C27H34NO3+
436.2491	10	C27H34NO4+
438.2633	634	C27H36NO4+
440.2417	19	C26H34NO5+
441.2485	9	C23H37O8+
454.2583	36	C27H36NO5+
455.2626	14	C24H39O8+
456.2736	999	C27H38NO5+
474.284	207	C27H40NO6+
492.2951	25	C27H42NO7+
502.293	14	C29H42O7+
520.3019	25	C29H44O8+
522.1673	15	C32H26O7+
556.3274	56	C32H46NO7+
574.3353	29	C32H48NO8+
