Mass spectrum: Sophocarpine; LC-ESI-ITFT; MS2; CE: 100%; R=15000; [M+H]+
Name: Sophocarpine
Name: (1R,2R,9S,17S)-7,13-diazatetracyclo[7.7.1.02,7.013,17]heptadec-4-en-6-one
Formula: C15H22N2O
Exact mass: 246.1732
SMILES: C1C[C@H]2CN3[C@H](CC=CC3=O)[C@@H]4[C@H]2N(C1)CCC4
InChI: InChI=1S/C15H22N2O/c18-14-7-1-6-13-12-5-3-9-16-8-2-4-11(15(12)16)10-17(13)14/h1,7,11-13,15H,2-6,8-10H2/t11-,12+,13+,15-/m0/s1
Instrument: LTQ Orbitrap XL Thermo Scientific
Instrument type: LC-ESI-ITFT
Ms type: MS2
Ion mode: POSITIVE
Ionization: ESI
Fragmentation mode: HCD
Collision energy: 100% (nominal)
Resolution: 15000
Column name: Kinetex Evo C18 2.6 um 50 x 2.1 mm
Retention time: 0.710 min
Base peak: 143.0015
Precursor m/z: 247.1805
Precursor type: [M+H]+
m/z	relative intensity	assigned
67.0542	18	C5H7+
68.0495	39	C4H6N+
70.0651	32	C4H8N+
79.0542	25	C6H7+
80.0494	9	C5H6N+
81.0574	18	C5H7N+
81.07	9	C6H9+
82.0652	10	C5H8N+
84.0809	22	C5H10N+
91.0542	19	C7H7+
93.0698	8	C7H9+
94.0651	30	C6H8N+
96.0808	999	C6H10N+
98.0964	114	C6H12N+
108.0808	142	C7H10N+
109.0522	10	C6H7NO+
110.0601	22	C6H8NO+
110.0964	42	C7H12N+
119.0856	7	C9H11+
120.0806	15	C8H10N+
122.06	30	C7H8NO+
122.0965	58	C8H12N+
124.112	14	C8H14N+
134.0601	16	C8H8NO+
134.0965	21	C9H12N+
136.1121	530	C9H14N+
138.1278	38	C9H16N+
146.0598	27	C9H8NO+
146.0966	10	C10H12N+
147.0677	9	C9H9NO+
148.0757	35	C9H10NO+
148.112	45	C10H14N+
150.0916	10	C9H12NO+
150.1278	151	C10H16N+
152.1435	17	C10H18N+
160.0756	21	C10H10NO+
162.0913	17	C10H12NO+
162.1281	12	C11H16N+
174.091	10	C11H12NO+
179.1543	173	C11H19N2+
228.1377	9	C15H18NO+
245.1648	74	C15H21N2O+
247.1804	41	C15H23N2O+
