Mass spectrum: Seneciphylline N-oxide; LC-ESI-ITFT; MS2; CE: 55%; R=15000; [M+H]+
Name: Seneciphylline N-oxide
Name: (1R,4E,7R,17R)-4-ethylidene-7-hydroxy-7-methyl-6-methylidene-14-oxido-2,9-dioxa-14-azoniatricyclo[9.5.1.014,17]heptadec-11-ene-3,8-dione
Formula: C18H23NO6
Exact mass: 349.1525
SMILES: C/C=C/1\CC(=C)[C@@](C(=O)OCC2=CC[N+]3([C@H]2[C@@H](CC3)OC1=O)[O-])(C)O
InChI: InChI=1S/C18H23NO6/c1-4-12-9-11(2)18(3,22)17(21)24-10-13-5-7-19(23)8-6-14(15(13)19)25-16(12)20/h4-5,14-15,22H,2,6-10H2,1,3H3/b12-4+/t14-,15-,18-,19?/m1/s1
Instrument: LTQ Orbitrap XL Thermo Scientific
Instrument type: LC-ESI-ITFT
Ms type: MS2
Ion mode: POSITIVE
Ionization: ESI
Fragmentation mode: HCD
Collision energy: 55% (nominal)
Resolution: 15000
Column name: Kinetex Evo C18 2.6 um 50 x 2.1 mm
Retention time: 2.971 min
Base peak: 350.1596
Precursor m/z: 350.1598
Precursor type: [M+H]+
m/z	relative intensity	assigned
68.0494	13	C4H6N+
79.0543	42	C6H7+
80.0495	63	C5H6N+
81.0699	48	C6H9+
82.0652	24	C5H8N+
84.0445	15	C4H6NO+
91.0543	52	C7H7+
93.0574	255	C6H7N+
93.07	22	C7H9+
94.0652	493	C6H8N+
95.073	451	C6H9N+
98.0601	43	C5H8NO+
105.0699	55	C8H9+
106.0652	170	C7H8N+
107.0491	135	C7H7O+
107.0729	26	C7H9N+
107.0856	24	C8H11+
108.0808	158	C7H10N+
109.0648	110	C7H9O+
109.0885	45	C7H11N+
110.0601	34	C6H8NO+
111.0676	19	C6H9NO+
112.0758	84	C6H10NO+
118.0652	668	C8H8N+
119.073	756	C8H9N+
120.0808	999	C8H10N+
121.0887	145	C8H11N+
122.0727	48	C8H10O+
122.0964	123	C8H12N+
123.0804	97	C8H11O+
124.0756	16	C7H10NO+
132.0804	22	C9H10N+
133.0647	33	C9H9O+
134.096	13	C9H12N+
135.0441	22	C8H7O2+
136.0757	701	C8H10NO+
137.0836	95	C8H11NO+
138.0914	492	C8H12NO+
139.099	21	C8H13NO+
140.1067	22	C8H14NO+
149.0598	18	C9H9O2+
150.0676	26	C9H10O2+
151.0753	91	C9H11O2+
154.0863	213	C8H12NO2+
167.0702	28	C9H11O3+
178.1228	33	C11H16NO+
179.0698	17	C10H11O3+
197.0801	14	C10H13O4+
209.1174	56	C12H17O3+
218.1533	10	C14H20NO+
246.1488	59	C15H20NO2+
322.165	130	C17H24NO5+
350.16	629	C18H24NO6+
