Mass spectrum: Jervine; LC-ESI-ITFT; MS2; CE: 85%; R=15000; [M+H]+
Name: Jervine
Name: (3S,3`R,3`aS,6`S,6aS,6bS,7`aR,9R,11aS,11bR)-3-hydroxy-3`,6`,10,11b-tetramethylspiro[1,2,3,4,6,6a,6b,7,8,11a-decahydrobenzo[a]fluorene-9,2`-3a,4,5,6,7,7a-hexahydro-3H-furo[3,2-b]pyridine]-11-one
Formula: C27H39NO3
Exact mass: 425.2930
SMILES: C[C@H]1C[C@@H]2[C@H]([C@H]([C@]3(O2)CC[C@H]4[C@@H]5CC=C6C[C@H](CC[C@@]6([C@H]5C(=O)C4=C3C)C)O)C)NC1
InChI: InChI=1S/C27H39NO3/c1-14-11-21-24(28-13-14)16(3)27(31-21)10-8-19-20-6-5-17-12-18(29)7-9-26(17,4)23(20)25(30)22(19)15(27)2/h5,14,16,18-21,23-24,28-29H,6-13H2,1-4H3/t14-,16+,18-,19-,20-,21+,23+,24-,26-,27-/m0/s1
Instrument: LTQ Orbitrap XL Thermo Scientific
Instrument type: LC-ESI-ITFT
Ms type: MS2
Ion mode: POSITIVE
Ionization: ESI
Fragmentation mode: HCD
Collision energy: 85% (nominal)
Resolution: 15000
Column name: Kinetex Evo C18 2.6 um 50 x 2.1 mm
Retention time: 8.892 min
Base peak: 426.2999
Precursor m/z: 426.3003
Precursor type: [M+H]+
m/z	relative intensity	assigned
55.0542	24	C4H7+
57.0698	33	C4H9+
67.0542	999	C5H7+
68.0494	18	C4H6N+
69.0335	20	C4H5O+
69.0698	119	C5H9+
70.0651	164	C4H8N+
72.0443	46	C3H6NO+
77.0386	46	C6H5+
79.0542	397	C6H7+
80.0495	40	C5H6N+
81.0573	64	C5H7N+
81.0699	728	C6H9+
82.0651	48	C5H8N+
83.0491	185	C5H7O+
84.0807	901	C5H10N+
85.0648	316	C5H9O+
91.0542	455	C7H7+
93.0699	478	C7H9+
94.0651	33	C6H8N+
94.0778	23	C7H10+
95.0855	172	C7H11+
96.0808	333	C6H10N+
98.0964	55	C6H12N+
100.0757	21	C5H10NO+
103.0544	33	C8H7+
105.0698	875	C8H9+
106.0777	18	C8H10+
107.0493	21	C7H7O+
107.0855	367	C8H11+
109.0647	24	C7H9O+
109.1011	478	C8H13+
110.0964	23	C7H12N+
112.0757	150	C6H10NO+
114.0913	878	C6H12NO+
115.0541	32	C9H7+
116.0619	30	C9H8+
117.0698	231	C9H9+
119.0855	417	C9H11+
121.0647	50	C8H9O+
121.1011	312	C9H13+
123.0803	52	C8H11O+
124.1119	32	C8H14N+
128.0619	82	C10H8+
129.0698	182	C10H9+
130.0777	156	C10H10+
131.0854	279	C10H11+
133.0645	21	C9H9O+
133.1012	204	C10H13+
135.0803	32	C9H11O+
140.107	24	C8H14NO+
141.0697	68	C11H9+
142.0776	208	C11H10+
143.0854	217	C11H11+
144.0929	50	C11H12+
145.0646	44	C10H9O+
145.1011	460	C11H13+
146.072	12	C10H10O+
147.0805	55	C10H11O+
147.1168	34	C11H15+
149.0961	75	C10H13O+
153.0698	40	C12H9+
154.0775	48	C12H10+
155.0854	122	C12H11+
156.0931	90	C12H12+
157.0647	16	C11H9O+
157.1011	251	C12H13+
158.0723	43	C11H10O+
159.0805	37	C11H11O+
159.1168	77	C12H15+
160.0882	26	C11H12O+
161.0964	12	C11H13O+
165.0696	41	C13H9+
166.0776	19	C13H10+
167.0856	45	C13H11+
168.093	44	C13H12+
169.101	118	C13H13+
170.1082	34	C13H14+
171.0797	22	C12H11O+
171.1167	84	C13H15+
173.0962	67	C12H13O+
175.1117	110	C12H15O+
178.0778	20	C14H10+
179.0857	71	C14H11+
180.0931	39	C14H12+
181.1011	91	C14H13+
182.1091	28	C14H14+
183.0808	24	C13H11O+
183.1167	61	C14H15+
185.1321	29	C14H17+
191.085	11	C15H11+
192.093	26	C15H12+
193.1013	72	C15H13+
194.109	49	C15H14+
195.1169	63	C15H15+
197.0965	24	C14H13O+
197.1329	18	C15H17+
205.1012	32	C16H13+
206.1092	19	C16H14+
207.1169	39	C16H15+
208.1252	18	C16H16+
209.1327	27	C16H17+
217.1011	20	C17H13+
219.1169	53	C17H15+
221.1323	45	C17H17+
231.1166	34	C18H15+
233.1327	30	C18H17+
235.1475	20	C18H19+
245.1328	30	C19H17+
247.1483	46	C19H19+
