Mass spectrum: Homoharringtonine; LC-ESI-ITFT; MS2; CE: 60%; R=15000; [M+H]+
Name: Homoharringtonine
Name: Omacetaxine mepesuccinate
Name: 1-O-[(2S,3S,6R)-4-methoxy-16,18-dioxa-10-azapentacyclo[11.7.0.02,6.06,10.015,19]icosa-1(20),4,13,15(19)-tetraen-3-yl] 4-O-methyl (2R)-2-hydroxy-2-(4-hydroxy-4-methylpentyl)butanedioate
Formula: C29H39NO9
Exact mass: 545.2625
SMILES: CC(C)(CCC[C@@](CC(=O)OC)(C(=O)O[C@H]1[C@H]2c3cc4c(cc3CCN5[C@@]2(CCC5)C=C1OC)OCO4)O)O
InChI: InChI=1S/C29H39NO9/c1-27(2,33)8-5-10-29(34,16-23(31)36-4)26(32)39-25-22(35-3)15-28-9-6-11-30(28)12-7-18-13-20-21(38-17-37-20)14-19(18)24(25)28/h13-15,24-25,33-34H,5-12,16-17H2,1-4H3/t24-,25-,28+,29-/m1/s1
Instrument: LTQ Orbitrap XL Thermo Scientific
Instrument type: LC-ESI-ITFT
Ms type: MS2
Ion mode: POSITIVE
Ionization: ESI
Fragmentation mode: HCD
Collision energy: 60% (nominal)
Resolution: 15000
Column name: Kinetex Evo C18 2.6 um 50 x 2.1 mm
Retention time: 7.126 min
Base peak: 546.2685
Precursor m/z: 546.2698
Precursor type: [M+H]+
m/z	relative intensity	assigned
55.0177	20	C3H3O+
55.0542	7	C4H7+
59.049	49	C3H7O+
70.0651	39	C4H8N+
79.0542	16	C6H7+
81.0699	9	C6H9+
83.0853	14	C6H11+
85.0647	41	C5H9O+
91.0541	31	C7H7+
93.0698	92	C7H9+
94.065	15	C6H8N+
95.0493	9	C6H7O+
96.0808	15	C6H10N+
97.0283	12	C5H5O2+
97.0646	7	C6H9O+
100.0756	14	C5H10NO+
103.054	8	C8H7+
107.0855	95	C8H11+
108.0569	12	C7H8O+
109.0647	125	C7H9O+
110.06	22	C6H8NO+
111.0802	14	C7H11O+
115.0541	24	C9H7+
118.065	15	C8H8N+
119.0489	20	C8H7O+
120.0807	40	C8H10N+
121.0646	33	C8H9O+
123.0804	90	C8H11O+
124.0758	10	C7H10NO+
125.0592	16	C7H9O2+
125.0963	14	C8H13O+
126.0912	93	C7H12NO+
129.0544	27	C6H9O3+
129.0694	12	C10H9+
131.0491	42	C9H7O+
135.0441	39	C8H7O2+
135.0805	12	C9H11O+
138.0916	11	C8H12NO+
141.0694	8	C11H9+
142.0652	9	C10H8N+
143.049	30	C10H7O+
148.0758	14	C9H10NO+
149.0597	109	C9H9O2+
150.0913	784	C9H12NO+
153.0696	18	C12H9+
157.0643	14	C11H9O+
159.0441	67	C10H7O2+
161.0596	40	C10H9O2+
163.0994	7	C10H13NO+
165.0699	46	C13H9+
166.0773	11	C13H10+
167.0494	14	C12H7O+
167.0859	23	C13H11+
168.0812	23	C12H10N+
169.0647	13	C12H9O+
170.0602	36	C11H8NO+
171.0805	33	C12H11O+
172.0516	18	C11H8O2+
173.0597	100	C11H9O2+
174.0549	35	C10H8NO2+
175.063	19	C10H9NO2+
176.0705	257	C10H10NO2+
179.0853	59	C14H11+
180.0804	16	C13H10N+
181.0649	40	C13H9O+
181.1012	24	C14H13+
182.0728	17	C13H10O+
182.0963	18	C13H12N+
183.0806	27	C13H11O+
185.0596	65	C12H9O2+
186.067	8	C12H10O2+
187.0622	13	C11H9NO2+
187.0752	32	C12H11O2+
189.0782	12	C11H11NO2+
190.0867	10	C11H12NO2+
191.0853	93	C15H11+
192.0937	13	C15H12+
193.0643	37	C14H9O+
193.1007	21	C15H13+
194.0735	10	C14H10O+
195.0803	83	C14H11O+
196.0756	23	C13H10NO+
197.0595	34	C13H9O2+
197.0963	49	C14H13O+
198.0678	9	C13H10O2+
199.0622	20	C12H9NO2+
199.0752	68	C13H11O2+
200.0462	19	C12H8O3+
200.0706	63	C12H10NO2+
202.0861	24	C12H12NO2+
207.0803	59	C15H11O+
208.0883	43	C15H12O+
208.1119	144	C15H14N+
209.0595	39	C14H9O2+
209.0963	40	C15H13O+
210.0676	46	C14H10O2+
210.0915	25	C14H12NO+
210.1281	10	C15H16N+
211.0625	20	C13H9NO2+
211.0754	70	C14H11O2+
211.1123	13	C15H15O+
212.071	53	C13H10NO2+
212.1072	10	C14H14NO+
213.0913	21	C14H13O2+
214.0863	86	C13H12NO2+
215.0703	113	C13H11O3+
216.1016	38	C13H14NO2+
219.0804	60	C16H11O+
221.0839	9	C15H11NO+
221.096	18	C16H13O+
222.0673	26	C15H10O2+
222.0913	8	C15H12NO+
223.0753	271	C15H11O2+
223.1115	155	C16H15O+
225.0543	31	C14H9O3+
225.0788	26	C14H11NO2+
225.091	108	C15H13O2+
225.1147	20	C15H15NO+
226.0862	552	C14H12NO2+
227.0577	49	C13H9NO3+
227.0942	580	C14H13NO2+
228.0656	32	C13H10NO3+
228.0778	17	C14H12O3+
228.0945	48	C18H12+
229.0859	81	C14H13O3+
229.1097	320	C14H15NO2+
236.0834	42	C16H12O2+
236.1069	148	C16H14NO+
237.0781	26	C15H11NO2+
237.0912	81	C16H13O2+
238.0621	33	C15H10O3+
238.0862	187	C15H12NO2+
238.1227	39	C16H16NO+
239.0702	52	C15H11O3+
239.1069	36	C16H15O2+
240.0782	91	C15H12O3+
240.1017	999	C15H14NO2+
241.0868	40	C15H13O3+
241.1154	7	C8H19NO7+
242.0811	246	C14H12NO3+
242.1185	29	C15H16NO2+
243.1008	14	C15H15O3+
249.0908	45	C17H13O2+
250.0864	36	C16H12NO2+
250.0994	22	C17H14O2+
251.094	146	C16H13NO2+
251.1065	240	C17H15O2+
252.0783	23	C16H12O3+
252.1027	116	C16H14NO2+
253.086	130	C16H13O3+
253.1097	188	C16H15NO2+
254.0818	46	C15H12NO3+
254.1181	128	C16H16NO2+
255.0891	87	C15H13NO3+
255.1011	60	C16H15O3+
255.1162	10	C20H15+
256.0977	52	C15H14NO3+
256.1338	22	C16H18NO2+
264.1018	66	C17H14NO2+
266.1173	932	C17H16NO2+
267.1258	556	C17H17NO2+
268.0965	318	C16H14NO3+
269.1164	25	C17H17O3+
270.1123	182	C16H16NO3+
281.1168	23	C18H17O3+
282.1122	133	C17H16NO3+
283.1206	110	C17H17NO3+
284.1282	346	C17H18NO3+
294.1139	16	C18H16NO3+
296.1277	34	C18H18NO3+
298.1436	737	C18H20NO3+
316.1543	53	C18H22NO4+
