Mass spectrum: Senkirkine; LC-ESI-ITFT; MS2; CE: 45%; R=15000; [M+H]+
Name: Senkirkine
Name: (1R,4Z,6R,7R,11Z)-4-ethylidene-7-hydroxy-6,7,14-trimethyl-2,9-dioxa-14-azabicyclo[9.5.1]heptadec-11-ene-3,8,17-trione
Formula: C19H27NO6
Exact mass: 365.1838
SMILES: C/C=C\1/C[C@H]([C@@](C(=O)OC/C/2=C/CN(CC[C@H](C2=O)OC1=O)C)(C)O)C
InChI: InChI=1S/C19H27NO6/c1-5-13-10-12(2)19(3,24)18(23)25-11-14-6-8-20(4)9-7-15(16(14)21)26-17(13)22/h5-6,12,15,24H,7-11H2,1-4H3/b13-5-,14-6-/t12-,15-,19-/m1/s1
Instrument: LTQ Orbitrap XL Thermo Scientific
Instrument type: LC-ESI-ITFT
Ms type: MS2
Ion mode: POSITIVE
Ionization: ESI
Fragmentation mode: HCD
Collision energy: 45% (nominal)
Resolution: 15000
Column name: Kinetex Evo C18 2.6 um 50 x 2.1 mm
Retention time: 6.344 min
Base peak: 366.1909
Precursor m/z: 366.1911
Precursor type: [M+H]+
m/z	relative intensity	assigned
55.0541	7	C4H7+
67.0541	4	C5H7+
70.0651	30	C4H8N+
79.0542	8	C6H7+
81.0338	3	C5H5O+
81.0699	15	C6H9+
83.0492	18	C5H7O+
91.0541	2	C7H7+
93.0701	3	C7H9+
94.0651	12	C6H8N+
96.0809	8	C6H10N+
97.0649	7	C6H9O+
98.06	4	C5H8NO+
99.0442	5	C5H7O2+
101.0598	24	C5H9O2+
107.0492	93	C7H7O+
107.0856	48	C8H11+
108.0807	4	C7H10N+
109.0648	10	C7H9O+
109.1012	25	C8H13+
110.0598	4	C6H8NO+
116.0707	15	C5H10NO2+
120.0807	8	C8H10N+
122.0601	138	C7H8NO+
122.0965	56	C8H12N+
123.068	15	C7H9NO+
124.0757	44	C7H10NO+
125.0597	51	C7H9O2+
125.0961	58	C8H13O+
126.0909	2	C7H12NO+
132.0809	3	C9H10N+
135.0805	67	C9H11O+
137.0598	7	C8H9O2+
137.0832	6	C8H11NO+
137.0961	14	C9H13O+
138.0913	4	C8H12NO+
139.076	2	C8H11O2+
140.0706	11	C7H10NO2+
140.1069	12	C8H14NO+
150.0914	348	C9H12NO+
152.1068	4	C9H14NO+
153.091	217	C9H13O2+
163.0756	5	C10H11O2+
168.1019	868	C9H14NO2+
181.0859	19	C10H13O3+
186.1122	7	C9H16NO3+
199.0965	5	C10H15O4+
220.1331	3	C13H18NO2+
250.1444	3	C14H20NO3+
268.1545	6	C14H22NO4+
304.1904	8	C18H26NO3+
318.1689	4	C18H24NO4+
320.186	9	C18H26NO4+
338.1964	18	C18H28NO5+
348.1807	20	C19H26NO5+
366.1912	999	C19H28NO6+
