Mass spectrum: Anabasine; LC-ESI-ITFT; MS2; CE: 100%; R=15000; [M+H]+
Name: Anabasine
Formula: C10H14N2
Exact mass: 162.1157
SMILES: C1CCC(NC1)C1=CC=CN=C1
InChI: InChI=1S/C10H14N2/c1-2-7-12-10(5-1)9-4-3-6-11-8-9/h3-4,6,8,10,12H,1-2,5,7H2
Instrument: LTQ Orbitrap XL Thermo Scientific
Instrument type: LC-ESI-ITFT
Ms type: MS2
Ion mode: POSITIVE
Ionization: ESI
Fragmentation mode: HCD
Collision energy: 100 % (nominal)
Resolution: 15000
Column name: Kinetex Evo C18 2.6 um 50 x 2.1 mm
Retention time: 0.481 min
Base peak: 249.1958
Precursor m/z: 163.123
Precursor type: [M+H]+
m/z	relative intensity	assigned
65.0386	61	C5H5+
67.0542	15	C5H7+
70.0651	8	C4H8N+
77.0387	11	C6H5+
78.0338	6	C5H4N+
79.0416	31	C5H5N+
79.0543	6	C6H7+
80.0495	101	C5H6N+
82.0651	5	C5H8N+
84.0809	40	C5H10N+
90.0462	9	C7H6+
91.0542	386	C7H7+
92.0495	705	C6H6N+
93.0573	278	C6H7N+
94.0651	315	C6H8N+
103.0542	9	C8H7+
104.0494	9	C7H6N+
105.0697	10	C8H9+
106.0651	126	C7H8N+
107.073	14	C7H9N+
115.0542	8	C9H7+
117.0573	626	C8H7N+
118.0651	999	C8H8N+
119.073	16	C8H9N+
120.0808	136	C8H10N+
128.062	20	C10H8+
129.0701	23	C10H9+
130.0651	533	C9H8N+
131.0729	238	C9H9N+
132.0807	92	C9H10N+
134.0964	66	C9H12N+
143.0726	6	C10H9N+
144.0808	121	C10H10N+
146.0965	99	C10H12N+
155.0604	10	C10H7N2+
163.1231	29	C10H15N2+
