Mass spectrum: Heliotrine; LC-ESI-ITFT; MS2; CE: 105%; R=15000; [M+H]+
Name: Heliotrine
Name: [(7S,8R)-7-hydroxy-5,6,7,8-tetrahydro-3H-pyrrolizin-1-yl]methyl (2S)-2-hydroxy-2-[(1R)-1-methoxyethyl]-3-methylbutanoate
Formula: C16H27NO5
Exact mass: 313.1889
SMILES: C[C@H]([C@@](C(C)C)(C(=O)OCC1=CCN2[C@H]1[C@H](CC2)O)O)OC
InChI: InChI=1S/C16H27NO5/c1-10(2)16(20,11(3)21-4)15(19)22-9-12-5-7-17-8-6-13(18)14(12)17/h5,10-11,13-14,18,20H,6-9H2,1-4H3/t11-,13+,14-,16+/m1/s1
Instrument: LTQ Orbitrap XL Thermo Scientific
Instrument type: LC-ESI-ITFT
Ms type: MS2
Ion mode: POSITIVE
Ionization: ESI
Fragmentation mode: HCD
Collision energy: 105% (nominal)
Resolution: 15000
Column name: Kinetex Evo C18 2.6 um 50 x 2.1 mm
Retention time: 1.773 min
Base peak: 143.0015
Precursor m/z: 314.1962
Precursor type: [M+H]+
m/z	relative intensity	assigned
65.0385	40	C5H5+
67.0416	118	C4H5N+
67.0542	146	C5H7+
68.0494	69	C4H6N+
77.0386	46	C6H5+
78.0337	25	C5H4N+
79.0542	52	C6H7+
80.0495	561	C5H6N+
81.0574	93	C5H7N+
81.0699	72	C6H9+
82.0651	547	C5H8N+
85.052	25	C4H7NO+
86.06	80	C4H8NO+
91.0542	129	C7H7+
92.0495	82	C6H6N+
93.0574	89	C6H7N+
93.0699	60	C7H9+
94.0651	999	C6H8N+
95.0729	167	C6H9N+
96.0444	20	C5H6NO+
96.0807	162	C6H10N+
103.0543	55	C8H7+
105.057	29	C7H7N+
108.0808	653	C7H10N+
109.0648	18	C7H9O+
110.0601	53	C6H8NO+
110.0964	24	C7H12N+
112.0757	142	C6H10NO+
118.0652	80	C8H8N+
119.0732	18	C8H9N+
120.0808	708	C8H10N+
126.0918	18	C7H12NO+
138.0913	229	C8H12NO+
156.102	187	C8H14NO2+
