Mass spectrum: 7-Acetyllycopsamine; LC-ESI-ITFT; MS2; CE: 75%; R=15000; [M+H]+
Name: 7-Acetyllycopsamine
Name: Acetyllycopsamine
Name: [(7R,8R)-7-acetyloxy-5,6,7,8-tetrahydro-3H-pyrrolizin-1-yl]methyl (2S)-2-hydroxy-2-[(1S)-1-hydroxyethyl]-3-methylbutanoate
Formula: C17H27NO6
Exact mass: 341.1838
SMILES: C[C@@H]([C@@](C(C)C)(C(=O)OCC1=CCN2[C@H]1[C@@H](CC2)OC(=O)C)O)O
InChI: InChI=1S/C17H27NO6/c1-10(2)17(22,11(3)19)16(21)23-9-13-5-7-18-8-6-14(15(13)18)24-12(4)20/h5,10-11,14-15,19,22H,6-9H2,1-4H3/t11-,14+,15+,17-/m0/s1
Instrument: LTQ Orbitrap XL Thermo Scientific
Instrument type: LC-ESI-ITFT
Ms type: MS2
Ion mode: POSITIVE
Ionization: ESI
Fragmentation mode: HCD
Collision energy: 75% (nominal)
Resolution: 15000
Column name: Kinetex Evo C18 2.6 um 50 x 2.1 mm
Retention time: 2.568 min
Base peak: 143.0015
Precursor m/z: 342.1911
Precursor type: [M+H]+
m/z	relative intensity	assigned
67.0416	7	C4H5N+
67.0544	6	C5H7+
68.0495	6	C4H6N+
73.0647	10	C4H9O+
77.0386	13	C6H5+
79.0543	18	C6H7+
80.0495	46	C5H6N+
82.0653	14	C5H8N+
86.0601	9	C4H8NO+
91.0543	42	C7H7+
92.0495	20	C6H6N+
93.0573	6	C6H7N+
93.0699	63	C7H9+
94.0652	129	C6H8N+
95.0729	30	C6H9N+
96.0808	18	C6H10N+
103.0543	45	C8H7+
105.0574	16	C7H7N+
106.0654	7	C7H8N+
108.0808	44	C7H10N+
109.065	4	C7H9O+
110.06	6	C6H8NO+
110.0964	10	C7H12N+
112.0758	11	C6H10NO+
118.0652	44	C8H8N+
119.073	29	C8H9N+
120.0808	999	C8H10N+
121.0886	80	C8H11N+
128.0707	17	C6H10NO2+
136.0757	8	C8H10NO+
138.0914	90	C8H12NO+
156.1021	11	C8H14NO2+
180.1011	4	C10H14NO2+
198.1126	123	C10H16NO3+
