Mass spectrum: Coniferaldehyde; LC-ESI-ITFT; MS2; CE: 45%; R=15000; [M+H]+
Name: Coniferaldehyde
Formula: C10H10O3
Exact mass: 178.0630
SMILES: COC1=CC(\C=C\C=O)=CC=C1O
InChI: InChI=1S/C10H10O3/c1-13-10-7-8(3-2-6-11)4-5-9(10)12/h2-7,12H,1H3/b3-2+
Instrument: LTQ Orbitrap XL Thermo Scientific
Instrument type: LC-ESI-ITFT
Ms type: MS2
Ion mode: POSITIVE
Ionization: ESI
Fragmentation mode: HCD
Collision energy: 45 % (nominal)
Resolution: 15000
Column name: Kinetex Evo C18 2.6 um 50 x 2.1 mm
Retention time: 7.534 min
Base peak: 179.0703
Precursor m/z: 179.0703
Precursor type: [M+H]+
m/z	relative intensity	assigned
91.0543	138	C7H7+
95.0492	28	C6H7O+
103.0543	19	C8H7+
105.07	142	C8H9+
115.0544	41	C9H7+
119.0493	410	C8H7O+
123.0442	25	C7H7O2+
131.0492	10	C9H7O+
133.065	273	C9H9O+
136.052	29	C8H8O2+
137.06	15	C8H9O2+
146.0366	44	C9H6O2+
147.0442	999	C9H7O2+
151.0756	15	C9H11O2+
161.0599	491	C10H9O2+
164.0476	13	C9H8O3+
179.0706	276	C10H11O3+
