Mass spectrum: (+)-Sparteine; LC-ESI-ITFT; MS2; CE: 70%; R=15000; [M+H]+
Name: (+)-Sparteine
Formula: C15H26N2
Exact mass: 234.2096
SMILES: C1CCN2C[C@H]3C[C@@H]([C@H]2C1)CN4[C@H]3CCCC4
InChI: InChI=1S/C15H26N2/c1-3-7-16-11-13-9-12(14(16)5-1)10-17-8-4-2-6-15(13)17/h12-15H,1-11H2/t12-,13-,14-,15+/m1/s1
Instrument: LTQ Orbitrap XL Thermo Scientific
Instrument type: LC-ESI-ITFT
Ms type: MS2
Ion mode: POSITIVE
Ionization: ESI
Fragmentation mode: CID
Collision energy: 70 % (nominal)
Resolution: 15000
Column name: Kinetex Evo C18 2.6 um 50 x 2.1 mm
Retention time: 0.538 min
Base peak: 235.2164
Precursor m/z: 235.2169
Precursor type: [M+H]+
m/z	relative intensity	assigned
70.0651	9	C4H8N+
84.0807	7	C5H10N+
96.0808	11	C6H10N+
98.0964	999	C6H12N+
110.0963	3	C7H12N+
124.112	6	C8H14N+
134.0964	175	C9H12N+
136.1121	3	C9H14N+
138.1277	9	C9H16N+
148.1121	3	C10H14N+
150.1277	22	C10H16N+
152.1433	23	C10H18N+
162.1274	1	C11H16N+
164.1433	10	C11H18N+
190.1589	20	C13H20N+
204.1747	3	C14H22N+
