Mass spectrum: 6-beta-Hydroxycortisol; LC-ESI-ITFT; MS2; CE: 105%; R=15000; [M+H]+
Name: 6-beta-Hydroxycortisol
Name: 6beta-Hydroxycortisol
Name: (6R,8S,9S,10R,11S,13S,14S,17R)-6,11,17-trihydroxy-17-(2-hydroxyacetyl)-10,13-dimethyl-2,6,7,8,9,11,12,14,15,16-decahydro-1H-cyclopenta[a]phenanthren-3-one
Formula: C21H30O6
Exact mass: 378.2042
SMILES: C[C@]12C[C@H](O)[C@H]3[C@@H](C[C@@H](O)C4=CC(=O)CC[C@]34C)[C@@H]1CC[C@]2(O)C(=O)CO
InChI: InChI=1S/C21H30O6/c1-19-5-3-11(23)7-14(19)15(24)8-12-13-4-6-21(27,17(26)10-22)20(13,2)9-16(25)18(12)19/h7,12-13,15-16,18,22,24-25,27H,3-6,8-10H2,1-2H3/t12-,13-,15+,16-,18+,19-,20-,21-/m0/s1
Instrument: LTQ Orbitrap XL Thermo Scientific
Instrument type: LC-ESI-ITFT
Ms type: MS2
Ion mode: POSITIVE
Ionization: ESI
Fragmentation mode: CID
Collision energy: 105 % (nominal)
Resolution: 15000
Column name: Kinetex Evo C18 2.6 um 50 x 2.1 mm
Retention time: 6.535 min
Base peak: 379.2118
Precursor m/z: 379.2115
Precursor type: [M+H]+
m/z	relative intensity	assigned
161.0958	39	C11H13O+
187.1118	36	C13H15O+
213.128	39	C15H17O+
223.1119	51	C16H15O+
237.1278	90	C17H17O+
239.1439	200	C17H19O+
247.1484	91	C19H19+
249.1278	115	C18H17O+
249.1637	49	C19H21+
255.1387	34	C17H19O2+
261.1644	53	C20H21+
263.1431	73	C19H19O+
265.1592	246	C19H21O+
267.1391	78	C18H19O2+
267.1757	160	C19H23O+
277.158	50	C20H21O+
279.1753	224	C20H23O+
283.1698	328	C19H23O2+
285.186	117	C19H25O2+
289.1589	160	C21H21O+
295.1696	242	C20H23O2+
297.1856	208	C20H25O2+
307.1699	499	C21H23O2+
313.1801	490	C20H25O3+
315.1954	53	C20H27O3+
325.18	797	C21H25O3+
331.1908	146	C20H27O4+
343.1907	999	C21H27O4+
361.2011	667	C21H29O5+
