Mass spectrum: 4-Hydroxycoumarin; LC-ESI-ITFT; MS2; CE: 60%; R=15000; [M+H]+
Name: 4-Hydroxycoumarin
Name: 4-hydroxychromen-2-one
Formula: C9H6O3
Exact mass: 162.0317
SMILES: OC1=CC(=O)OC2=CC=CC=C12
InChI: InChI=1S/C9H6O3/c10-7-5-9(11)12-8-4-2-1-3-6(7)8/h1-5,10H
Instrument: LTQ Orbitrap XL Thermo Scientific
Instrument type: LC-ESI-ITFT
Ms type: MS2
Ion mode: POSITIVE
Ionization: ESI
Fragmentation mode: HCD
Collision energy: 60 % (nominal)
Resolution: 15000
Column name: Kinetex Evo C18 2.6 um 50 x 2.1 mm
Retention time: 7.949 min
Base peak: 163.0393
Precursor m/z: 163.039
Precursor type: [M+H]+
m/z	relative intensity	assigned
65.0383	4	C5H5+
68.9969	69	C3HO2+
77.0385	7	C6H5+
79.0542	7	C6H7+
91.0542	159	C7H7+
93.0335	10	C6H5O+
95.0491	98	C6H7O+
107.049	6	C7H7O+
119.0491	42	C8H7O+
121.0283	587	C7H5O2+
139.0387	3	C7H7O3+
145.0283	1	C9H5O2+
163.0387	999	C9H7O3+
