Mass spectrum: Pterosin B; LC-ESI-ITFT; MS2; CE: 115%; R=15000; [M+H]+
Name: Pterosin B
Name: (2R)-6-(2-hydroxyethyl)-2,5,7-trimethyl-2,3-dihydroinden-1-one
Formula: C14H18O2
Exact mass: 218.1307
SMILES: C[C@@H]1CC2=C(C1=O)C(=C(C(=C2)C)CCO)C
InChI: InChI=1S/C14H18O2/c1-8-6-11-7-9(2)14(16)13(11)10(3)12(8)4-5-15/h6,9,15H,4-5,7H2,1-3H3/t9-/m1/s1
Instrument: LTQ Orbitrap XL Thermo Scientific
Instrument type: LC-ESI-ITFT
Ms type: MS2
Ion mode: POSITIVE
Ionization: ESI
Fragmentation mode: HCD
Collision energy: 115 % (nominal)
Resolution: 15000
Column name: Kinetex Evo C18 2.6 um 50 x 2.1 mm
Retention time: 10.404 min
Base peak: 149.0117
Precursor m/z: 219.138
Precursor type: [M+H]+
m/z	relative intensity	assigned
91.0541	475	C7H7+
105.0695	445	C8H9+
115.054	476	C9H7+
128.0618	999	C10H8+
129.0698	861	C10H9+
130.0776	466	C10H10+
143.0852	646	C11H11+
145.101	421	C11H13+
153.0693	317	C12H9+
159.0805	445	C11H11O+
171.0803	462	C12H11O+
173.0957	413	C12H13O+
