Mass spectrum: Citrinin; LC-ESI-ITFT; MS2; CE: 115%; R=15000; [M+H]+
Name: Citrinin
Formula: C13H14O5
Exact mass: 250.0841
SMILES: C[C@H]1OC=C2C(O)=C(C(O)=O)C(=O)C(C)=C2[C@@H]1C
InChI: InChI=1S/C13H14O5/c1-5-7(3)18-4-8-9(5)6(2)11(14)10(12(8)15)13(16)17/h4-5,7,15H,1-3H3,(H,16,17)/t5-,7-/m1/s1
Instrument: LTQ Orbitrap XL Thermo Scientific
Instrument type: LC-ESI-ITFT
Ms type: MS2
Ion mode: POSITIVE
Ionization: ESI
Fragmentation mode: HCD
Collision energy: 115 % (nominal)
Resolution: 15000
Column name: Kinetex Evo C18 2.6 um 50 x 2.1 mm
Retention time: 11.916 min
Base peak: 251.0913
Precursor m/z: 251.0914
Precursor type: [M+H]+
m/z	relative intensity	assigned
51.0228	7	C4H3+
65.0385	52	C5H5+
67.0181	8	C4H3O+
67.0542	69	C5H7+
68.997	34	C3HO2+
69.0335	9	C4H5O+
75.0231	7	C6H3+
77.0386	210	C6H5+
78.0464	35	C6H6+
79.0178	92	C5H3O+
79.0542	178	C6H7+
81.0698	19	C6H9+
89.0386	28	C7H5+
91.0542	999	C7H7+
92.0621	27	C7H8+
93.0332	13	C6H5O+
93.0699	66	C7H9+
94.0413	12	C6H6O+
95.0491	48	C6H7O+
95.0856	64	C7H11+
101.0386	8	C8H5+
102.0464	15	C8H6+
103.0542	116	C8H7+
104.062	33	C8H8+
105.0335	36	C7H5O+
105.0698	173	C8H9+
106.0413	9	C7H6O+
107.0128	44	C6H3O2+
107.0491	142	C7H7O+
107.0855	55	C8H11+
109.0648	9	C7H9O+
115.0542	430	C9H7+
116.062	256	C9H8+
117.0698	74	C9H9+
119.0491	155	C8H7O+
119.0855	112	C9H11+
120.0569	59	C8H8O+
121.0289	11	C7H5O2+
121.0648	35	C8H9O+
122.0725	18	C8H10O+
123.0803	11	C8H11O+
128.062	95	C10H8+
129.0335	21	C9H5O+
129.0699	58	C10H9+
131.049	32	C9H7O+
131.0854	52	C10H11+
132.057	30	C9H8O+
133.0648	95	C9H9O+
134.0366	7	C8H6O2+
134.0728	23	C9H10O+
135.0441	21	C8H7O2+
135.0804	10	C9H11O+
141.0698	48	C11H9+
144.057	90	C10H8O+
145.0284	10	C9H5O2+
145.065	28	C10H9O+
147.044	140	C9H7O2+
147.0805	7	C10H11O+
148.0519	53	C9H8O2+
149.0597	9	C9H9O2+
157.0289	7	C10H5O2+
159.0806	18	C11H11O+
161.0597	54	C10H9O2+
162.0676	33	C10H10O2+
169.0655	11	C12H9O+
172.0522	12	C11H8O2+
175.039	93	C10H7O3+
177.0181	9	C9H5O4+
185.0233	49	C11H5O3+
185.0595	7	C12H9O2+
189.0543	16	C11H9O3+
203.0338	80	C11H7O4+
205.0858	17	C12H13O3+
