Mass spectrum: Senecivernine; LC-ESI-ITFT; MS2; CE: 85%; R=15000; [M+H]+
Name: Senecivernine
Name: (1R,5R,6R,7R,17R)-7-hydroxy-5,6,7-trimethyl-4-methylidene-2,9-dioxa-14-azatricyclo[9.5.1.014,17]heptadec-11-ene-3,8-dione
Formula: C18H25NO5
Exact mass: 335.1733
SMILES: C[C@@H]1[C@H]([C@@](C(=O)OCC2=CCN3[C@H]2[C@@H](CC3)OC(=O)C1=C)(C)O)C
InChI: InChI=1S/C18H25NO5/c1-10-11(2)16(20)24-14-6-8-19-7-5-13(15(14)19)9-23-17(21)18(4,22)12(10)3/h5,10,12,14-15,22H,2,6-9H2,1,3-4H3/t10-,12+,14+,15+,18+/m0/s1
Instrument: LTQ Orbitrap XL Thermo Scientific
Instrument type: LC-ESI-ITFT
Ms type: MS2
Ion mode: POSITIVE
Ionization: ESI
Fragmentation mode: HCD
Collision energy: 85% (nominal)
Resolution: 15000
Column name: Kinetex Evo C18 2.6 um 50 x 2.1 mm
Retention time: 3.395 min
Base peak: 143.0015
Precursor m/z: 336.1805
Precursor type: [M+H]+
m/z	relative intensity	assigned
67.0417	35	C4H5N+
67.0542	438	C5H7+
68.0495	232	C4H6N+
77.0386	163	C6H5+
79.0543	411	C6H7+
80.0495	369	C5H6N+
81.0573	107	C5H7N+
81.0699	738	C6H9+
82.0652	246	C5H8N+
83.0492	72	C5H7O+
84.0443	48	C4H6NO+
91.0543	422	C7H7+
92.0497	65	C6H6N+
93.0574	111	C6H7N+
93.0699	320	C7H9+
94.0651	867	C6H8N+
95.0731	70	C6H9N+
95.0855	50	C7H11+
96.0809	411	C6H10N+
103.0543	195	C8H7+
105.0573	51	C7H7N+
105.07	105	C8H9+
106.0651	134	C7H8N+
107.073	99	C7H9N+
107.0856	156	C8H11+
108.0808	446	C7H10N+
109.0885	86	C7H11N+
109.1012	49	C8H13+
110.0602	97	C6H8NO+
110.0965	139	C7H12N+
111.0441	122	C6H7O2+
112.0762	45	C6H10NO+
118.0651	206	C8H8N+
119.0731	55	C8H9N+
120.0808	999	C8H10N+
121.0888	84	C8H11N+
122.0963	125	C8H12N+
125.0964	44	C8H13O+
136.076	82	C8H10NO+
138.0914	544	C8H12NO+
154.0862	119	C8H12NO2+
156.1021	55	C8H14NO2+
