Mass spectrum: (+)-Sparteine; LC-ESI-ITFT; MS2; CE: 20%; R=15000; [M+H]+
Name: (+)-Sparteine
Formula: C15H26N2
Exact mass: 234.2096
SMILES: C1CCN2C[C@H]3C[C@@H]([C@H]2C1)CN4[C@H]3CCCC4
InChI: InChI=1S/C15H26N2/c1-3-7-16-11-13-9-12(14(16)5-1)10-17-8-4-2-6-15(13)17/h12-15H,1-11H2/t12-,13-,14-,15+/m1/s1
Instrument: LTQ Orbitrap XL Thermo Scientific
Instrument type: LC-ESI-ITFT
Ms type: MS2
Ion mode: POSITIVE
Ionization: ESI
Fragmentation mode: HCD
Collision energy: 20 % (nominal)
Resolution: 15000
Column name: Kinetex Evo C18 2.6 um 50 x 2.1 mm
Retention time: 0.535 min
Base peak: 235.2164
Precursor m/z: 235.2169
Precursor type: [M+H]+
m/z	relative intensity	assigned
235.2165	999	C15H27N2+
