Mass spectrum: (+)-Isocorydin; LC-ESI-ITFT; MS2; CE: 60%; R=15000; [M+H]+
Name: (+)-Isocorydin
Name: Isocorydine
Name: (6aS)-1,2,10-trimethoxy-6-methyl-5,6,6a,7-tetrahydro-4H-dibenzo[de,g]quinolin-11-ol
Formula: C20H23NO4
Exact mass: 341.1627
SMILES: CN1CCC2=CC(=C(C3=C2[C@@H]1CC4=C3C(=C(C=C4)OC)O)OC)OC
InChI: InChI=1S/C20H23NO4/c1-21-8-7-12-10-15(24-3)20(25-4)18-16(12)13(21)9-11-5-6-14(23-2)19(22)17(11)18/h5-6,10,13,22H,7-9H2,1-4H3/t13-/m0/s1
Instrument: LTQ Orbitrap XL Thermo Scientific
Instrument type: LC-ESI-ITFT
Ms type: MS2
Ion mode: POSITIVE
Ionization: ESI
Fragmentation mode: HCD
Collision energy: 60% (nominal)
Resolution: 15000
Column name: Kinetex Evo C18 2.6 um 50 x 2.1 mm
Retention time: 6.274 min
Base peak: 342.1698
Precursor m/z: 342.17
Precursor type: [M+H]+
m/z	relative intensity	assigned
165.0699	13	C13H9+
166.0778	4	C13H10+
178.0776	17	C14H10+
179.0856	14	C14H11+
180.0931	15	C14H12+
189.0701	9	C15H9+
190.0774	26	C15H10+
191.0854	244	C15H11+
192.0928	16	C15H12+
193.0646	16	C14H9O+
193.1011	32	C15H13+
194.0726	39	C14H10O+
195.0814	7	C14H11O+
201.0697	6	C16H9+
202.0775	12	C16H10+
203.0855	31	C16H11+
205.0647	30	C15H9O+
205.1015	10	C16H13+
206.0727	35	C15H10O+
207.0805	57	C15H11O+
208.0882	131	C15H12O+
209.0604	5	C14H9O2+
209.0969	23	C15H13O+
217.0648	4	C16H9O+
218.0724	52	C16H10O+
219.0804	250	C16H11O+
220.0888	90	C16H12O+
221.0595	46	C15H9O2+
221.0963	74	C16H13O+
222.0677	16	C15H10O2+
223.0757	10	C15H11O2+
223.1116	77	C16H15O+
224.083	48	C15H12O2+
225.0913	5	C15H13O2+
231.0803	66	C17H11O+
233.0598	17	C16H9O2+
233.0959	40	C17H13O+
234.0675	31	C16H10O2+
235.0752	207	C16H11O2+
236.0831	999	C16H12O2+
238.0622	72	C15H10O3+
239.1067	11	C16H15O2+
246.0674	23	C17H10O2+
247.0753	308	C17H11O2+
248.0832	628	C17H12O2+
249.0545	47	C16H9O3+
250.099	58	C17H14O2+
251.0701	20	C16H11O3+
251.1065	270	C17H15O2+
252.0779	26	C16H12O3+
253.0858	235	C16H13O3+
261.0909	25	C18H13O2+
262.099	43	C18H14O2+
263.0702	134	C17H11O3+
264.0779	784	C17H12O3+
265.0858	880	C17H13O3+
266.0574	16	C16H10O4+
267.1013	62	C17H15O3+
268.11	23	C17H16O3+
269.0804	8	C16H13O4+
277.086	23	C18H13O3+
278.094	30	C18H14O3+
279.1014	374	C18H15O3+
280.1097	167	C18H16O3+
281.0806	601	C17H13O4+
295.0966	8	C18H15O4+
296.1041	248	C18H16O4+
311.1277	47	C19H19O4+
