Mass spectrum: Lasiocarpine; LC-ESI-ITFT; MS2; CE: 70%; R=15000; [M+H]+
Name: Lasiocarpine
Name: [(7S,8R)-7-[(Z)-2-methylbut-2-enoyl]oxy-5,6,7,8-tetrahydro-3H-pyrrolizin-1-yl]methyl (2R)-2,3-dihydroxy-2-[(1S)-1-methoxyethyl]-3-methylbutanoate
Formula: C21H33NO7
Exact mass: 411.2257
SMILES: C/C=C(/C)\C(=O)O[C@H]1CCN2[C@@H]1C(=CC2)COC(=O)[C@@]([C@H](C)OC)(C(C)(C)O)O
InChI: InChI=1S/C21H33NO7/c1-7-13(2)18(23)29-16-9-11-22-10-8-15(17(16)22)12-28-19(24)21(26,14(3)27-6)20(4,5)25/h7-8,14,16-17,25-26H,9-12H2,1-6H3/b13-7-/t14-,16-,17+,21-/m0/s1
Instrument: LTQ Orbitrap XL Thermo Scientific
Instrument type: LC-ESI-ITFT
Ms type: MS2
Ion mode: POSITIVE
Ionization: ESI
Fragmentation mode: HCD
Collision energy: 70% (nominal)
Resolution: 15000
Column name: Kinetex Evo C18 2.6 um 50 x 2.1 mm
Retention time: 7.424 min
Base peak: 412.2327
Precursor m/z: 412.233
Precursor type: [M+H]+
m/z	relative intensity	assigned
55.0541	7	C4H7+
59.049	16	C3H7O+
67.0542	2	C5H7+
68.0494	10	C4H6N+
69.0698	2	C5H9+
71.049	1	C4H7O+
77.0386	11	C6H5+
79.0542	8	C6H7+
80.0495	26	C5H6N+
81.07	1	C6H9+
82.0652	6	C5H8N+
83.0491	17	C5H7O+
91.0542	29	C7H7+
92.0494	11	C6H6N+
93.0574	3	C6H7N+
93.0699	51	C7H9+
94.0651	57	C6H8N+
95.073	4	C6H9N+
96.0807	5	C6H10N+
97.0647	7	C6H9O+
101.0596	2	C5H9O2+
103.0542	42	C8H7+
105.0572	9	C7H7N+
106.0652	4	C7H8N+
108.0808	59	C7H10N+
110.06	4	C6H8NO+
110.0965	2	C7H12N+
118.0652	30	C8H8N+
119.073	19	C8H9N+
120.0808	999	C8H10N+
121.0886	35	C8H11N+
122.0966	2	C8H12N+
136.0754	3	C8H10NO+
138.0913	93	C8H12NO+
152.1072	2	C9H14NO+
156.1019	8	C8H14NO2+
168.1022	1	C9H14NO2+
238.1438	8	C13H20NO3+
