Mass spectrum: Pterosin A; LC-ESI-ITFT; MS2; CE: 65%; R=15000; [M+H]+
Name: Pterosin A
Name: (2S)-6-(2-hydroxyethyl)-2-(hydroxymethyl)-2,5,7-trimethyl-3H-inden-1-one
Formula: C15H20O3
Exact mass: 248.1412
SMILES: CC1=CC2=C(C(=C1CCO)C)C(=O)[C@](C2)(C)CO
InChI: InChI=1S/C15H20O3/c1-9-6-11-7-15(3,8-17)14(18)13(11)10(2)12(9)4-5-16/h6,16-17H,4-5,7-8H2,1-3H3/t15-/m0/s1
Instrument: LTQ Orbitrap XL Thermo Scientific
Instrument type: LC-ESI-ITFT
Ms type: MS2
Ion mode: POSITIVE
Ionization: ESI
Fragmentation mode: HCD
Collision energy: 65 % (nominal)
Resolution: 15000
Column name: Kinetex Evo C18 2.6 um 50 x 2.1 mm
Retention time: 9.274 min
Base peak: 249.1476
Precursor m/z: 249.1485
Precursor type: [M+H]+
m/z	relative intensity	assigned
129.07	44	C10H9+
142.0775	147	C11H10+
143.085	165	C11H11+
145.1005	56	C11H13+
155.0851	141	C12H11+
156.0932	238	C12H12+
157.1007	499	C12H13+
170.1087	939	C13H14+
173.1322	44	C13H17+
185.132	999	C14H17+
203.1427	289	C14H19O+
213.1268	84	C15H17O+
231.1375	30	C15H19O2+
