Mass spectrum: Lasiocarpine N-oxide; LC-ESI-ITFT; MS2; CE: 40%; R=15000; [M+H]+
Name: Lasiocarpine N-oxide
Name: [(7S,8R)-7-[(Z)-2-methylbut-2-enoyl]oxy-4-oxido-5,6,7,8-tetrahydro-3H-pyrrolizin-4-ium-1-yl]methyl (2R)-2,3-dihydroxy-2-[(1S)-1-methoxyethyl]-3-methylbutanoate
Formula: C21H33NO8
Exact mass: 427.2206
SMILES: C/C=C(/C)\C(=O)O[C@H]1CC[N+]2([C@@H]1C(=CC2)COC(=O)[C@@]([C@H](C)OC)(C(C)(C)O)O)[O-]
InChI: InChI=1S/C21H33NO8/c1-7-13(2)18(23)30-16-9-11-22(27)10-8-15(17(16)22)12-29-19(24)21(26,14(3)28-6)20(4,5)25/h7-8,14,16-17,25-26H,9-12H2,1-6H3/b13-7-/t14-,16-,17+,21-,22?/m0/s1
Instrument: LTQ Orbitrap XL Thermo Scientific
Instrument type: LC-ESI-ITFT
Ms type: MS2
Ion mode: POSITIVE
Ionization: ESI
Fragmentation mode: HCD
Collision energy: 40% (nominal)
Resolution: 15000
Column name: Kinetex Evo C18 2.6 um 50 x 2.1 mm
Retention time: 8.001 min
Base peak: 428.2278
Precursor m/z: 428.2279
Precursor type: [M+H]+
m/z	relative intensity	assigned
55.0541	15	C4H7+
59.049	12	C3H7O+
80.0495	12	C5H6N+
81.0697	4	C6H9+
83.0491	22	C5H7O+
93.0573	73	C6H7N+
94.0651	69	C6H8N+
95.073	7	C6H9N+
106.0651	28	C7H8N+
108.0806	23	C7H10N+
109.0886	6	C7H11N+
111.0679	14	C6H9NO+
118.0651	46	C8H8N+
119.0729	337	C8H9N+
120.0807	286	C8H10N+
121.0885	121	C8H11N+
122.0964	33	C8H12N+
134.0963	7	C9H12N+
136.0757	390	C8H10NO+
137.0835	323	C8H11NO+
138.0913	463	C8H12NO+
152.1068	9	C9H14NO+
154.0863	47	C8H12NO2+
155.0945	7	C8H13NO2+
156.1016	6	C8H14NO2+
172.0967	10	C8H14NO3+
178.2502	3	C8H34O3+
190.1232	7	C12H16NO+
218.1173	56	C13H16NO2+
220.1332	37	C13H18NO2+
222.1124	13	C12H16NO3+
234.1124	19	C13H16NO3+
237.1359	137	C13H19NO3+
252.1228	14	C13H18NO4+
253.1306	16	C13H19NO4+
254.1386	999	C13H20NO4+
270.1335	13	C13H20NO5+
310.1648	10	C16H24NO5+
328.175	21	C16H26NO6+
338.1598	219	C17H24NO6+
346.1862	27	C16H28NO7+
352.1754	383	C18H26NO6+
370.1861	37	C18H28NO7+
410.2173	244	C21H32NO7+
428.2278	374	C21H34NO8+
