Mass spectrum: Lasiocarpine N-oxide; LC-ESI-ITFT; MS2; CE: 95%; R=15000; [M+H]+
Name: Lasiocarpine N-oxide
Name: [(7S,8R)-7-[(Z)-2-methylbut-2-enoyl]oxy-4-oxido-5,6,7,8-tetrahydro-3H-pyrrolizin-4-ium-1-yl]methyl (2R)-2,3-dihydroxy-2-[(1S)-1-methoxyethyl]-3-methylbutanoate
Formula: C21H33NO8
Exact mass: 427.2206
SMILES: C/C=C(/C)\C(=O)O[C@H]1CC[N+]2([C@@H]1C(=CC2)COC(=O)[C@@]([C@H](C)OC)(C(C)(C)O)O)[O-]
InChI: InChI=1S/C21H33NO8/c1-7-13(2)18(23)30-16-9-11-22(27)10-8-15(17(16)22)12-29-19(24)21(26,14(3)28-6)20(4,5)25/h7-8,14,16-17,25-26H,9-12H2,1-6H3/b13-7-/t14-,16-,17+,21-,22?/m0/s1
Instrument: LTQ Orbitrap XL Thermo Scientific
Instrument type: LC-ESI-ITFT
Ms type: MS2
Ion mode: POSITIVE
Ionization: ESI
Fragmentation mode: HCD
Collision energy: 95% (nominal)
Resolution: 15000
Column name: Kinetex Evo C18 2.6 um 50 x 2.1 mm
Retention time: 7.959 min
Base peak: 428.2273
Precursor m/z: 428.2279
Precursor type: [M+H]+
m/z	relative intensity	assigned
55.0541	84	C4H7+
59.049	28	C3H7O+
65.0385	13	C5H5+
66.0464	20	C5H6+
67.0416	18	C4H5N+
67.0541	41	C5H7+
68.0494	55	C4H6N+
69.0697	7	C5H9+
77.0386	21	C6H5+
78.0338	11	C5H4N+
79.0542	79	C6H7+
80.0495	497	C5H6N+
81.0574	38	C5H7N+
81.0699	63	C6H9+
82.0413	11	C5H6O+
82.0652	39	C5H8N+
83.0491	151	C5H7O+
84.0444	42	C4H6NO+
91.0542	86	C7H7+
92.0494	56	C6H6N+
92.0621	8	C7H8+
93.0573	434	C6H7N+
93.07	30	C7H9+
94.0651	999	C6H8N+
95.0492	9	C6H7O+
95.073	20	C6H9N+
96.0443	18	C5H6NO+
96.0806	15	C6H10N+
98.06	10	C5H8NO+
102.0551	11	C4H8NO2+
103.0541	19	C8H7+
104.0491	11	C7H6N+
105.0571	8	C7H7N+
105.0698	6	C8H9+
106.0651	846	C7H8N+
107.0726	14	C7H9N+
107.0858	10	C8H11+
108.0442	12	C6H6NO+
108.0807	208	C7H10N+
109.0646	11	C7H9O+
110.0601	44	C6H8NO+
111.0678	274	C6H9NO+
112.0755	13	C6H10NO+
117.0571	20	C8H7N+
118.0651	637	C8H8N+
119.0729	426	C8H9N+
120.0807	528	C8H10N+
121.0887	6	C8H11N+
122.0598	8	C7H8NO+
124.0757	34	C7H10NO+
136.0757	315	C8H10NO+
137.0834	60	C8H11NO+
138.0912	89	C8H12NO+
141.0914	13	C8H13O2+
154.0863	31	C8H12NO2+
155.0935	9	C8H13NO2+
172.0968	103	C8H14NO3+
