Mass spectrum: (+)-Costunolide; LC-ESI-ITFT; MS2; CE: 70%; R=15000; [M+H]+
Name: (+)-Costunolide
Name: Costunolide
Name: (3aS,6E,10E,11aR)-6,10-dimethyl-3-methylidene-3a,4,5,8,9,11a-hexahydrocyclodeca[b]furan-2-one
Formula: C15H20O2
Exact mass: 232.1463
SMILES: C/C/1=C\CC/C(=C/[C@@H]2[C@@H](CC1)C(=C)C(=O)O2)/C
InChI: InChI=1S/C15H20O2/c1-10-5-4-6-11(2)9-14-13(8-7-10)12(3)15(16)17-14/h5,9,13-14H,3-4,6-8H2,1-2H3/b10-5+,11-9+/t13-,14+/m0/s1
Instrument: LTQ Orbitrap XL Thermo Scientific
Instrument type: LC-ESI-ITFT
Ms type: MS2
Ion mode: POSITIVE
Ionization: ESI
Fragmentation mode: HCD
Collision energy: 70% (nominal)
Resolution: 15000
Column name: Kinetex Evo C18 2.6 um 50 x 2.1 mm
Retention time: 11.767 min
Base peak: 116.9858
Precursor m/z: 233.1536
Precursor type: [M+H]+
m/z	relative intensity	assigned
67.0541	145	C5H7+
69.0336	23	C4H5O+
69.0698	41	C5H9+
79.0542	223	C6H7+
81.0699	484	C6H9+
91.0542	391	C7H7+
93.0698	485	C7H9+
95.0855	447	C7H11+
97.0647	51	C6H9O+
103.0547	26	C8H7+
105.0699	850	C8H9+
107.0856	408	C8H11+
109.1011	91	C8H13+
117.0698	235	C9H9+
119.0855	466	C9H11+
121.0646	50	C8H9O+
121.1011	140	C9H13+
123.0806	27	C8H11O+
125.0595	29	C7H9O2+
129.0699	32	C10H9+
131.0855	966	C10H11+
133.0644	44	C9H9O+
133.1012	204	C10H13+
135.1167	31	C10H15+
139.0748	35	C8H11O2+
143.0854	76	C11H11+
144.0933	34	C11H12+
145.1012	999	C11H13+
147.1168	124	C11H15+
149.06	30	C9H9O2+
149.0956	36	C10H13O+
155.086	70	C12H11+
157.1006	43	C12H13+
158.1087	24	C12H14+
159.0803	87	C11H11O+
159.1169	391	C12H15+
161.1326	175	C12H17+
167.085	27	C13H11+
169.1007	38	C13H13+
171.1167	24	C13H15+
172.1245	33	C13H16+
173.0967	34	C12H13O+
177.0911	55	C11H13O2+
182.1089	26	C14H14+
187.1481	689	C14H19+
197.1331	35	C15H17+
215.1428	37	C15H19O+
