Mass spectrum: Pterosin A; LC-ESI-ITFT; MS2; CE: 75%; R=15000; [M+H]+
Name: Pterosin A
Name: (2S)-6-(2-hydroxyethyl)-2-(hydroxymethyl)-2,5,7-trimethyl-3H-inden-1-one
Formula: C15H20O3
Exact mass: 248.1412
SMILES: CC1=CC2=C(C(=C1CCO)C)C(=O)[C@](C2)(C)CO
InChI: InChI=1S/C15H20O3/c1-9-6-11-7-15(3,8-17)14(18)13(11)10(2)12(9)4-5-16/h6,16-17H,4-5,7-8H2,1-3H3/t15-/m0/s1
Instrument: LTQ Orbitrap XL Thermo Scientific
Instrument type: LC-ESI-ITFT
Ms type: MS2
Ion mode: POSITIVE
Ionization: ESI
Fragmentation mode: HCD
Collision energy: 75 % (nominal)
Resolution: 15000
Column name: Kinetex Evo C18 2.6 um 50 x 2.1 mm
Retention time: 9.250 min
Base peak: 249.1476
Precursor m/z: 249.1485
Precursor type: [M+H]+
m/z	relative intensity	assigned
77.0386	9	C6H5+
79.054	23	C6H7+
91.0539	14	C7H7+
105.0697	35	C8H9+
115.0542	5	C9H7+
119.0852	44	C9H11+
128.0618	47	C10H8+
129.0696	63	C10H9+
130.0774	7	C10H10+
131.0852	22	C10H11+
133.1009	95	C10H13+
141.0695	80	C11H9+
142.0774	309	C11H10+
143.0852	169	C11H11+
144.093	50	C11H12+
145.1009	56	C11H13+
153.0695	9	C12H9+
154.0775	13	C12H10+
155.0852	359	C12H11+
156.0931	271	C12H12+
157.1009	463	C12H13+
158.1086	29	C12H14+
159.08	5	C11H11O+
159.1166	31	C12H15+
165.0692	5	C13H9+
168.093	16	C13H12+
169.0639	12	C12H9O+
169.1008	46	C13H13+
170.1087	999	C13H14+
171.1165	8	C13H15+
172.088	16	C12H12O+
172.1243	21	C13H16+
173.1319	17	C13H17+
183.08	22	C13H11O+
183.1165	29	C14H15+
184.0878	17	C13H12O+
185.0956	45	C13H13O+
185.1321	410	C14H17+
198.1037	31	C14H14O+
200.1194	7	C14H16O+
201.1266	7	C14H17O+
203.1426	73	C14H19O+
213.1266	23	C15H17O+
