Mass spectrum: Lycorine; LC-ESI-ITFT; MS2; CE: 95%; R=15000; [M+H]+
Name: Lycorine
Name: (1S,17S,18S,19S)-5,7-dioxa-12-azapentacyclo[10.6.1.02,10.04,8.015,19]nonadeca-2,4(8),9,15-tetraene-17,18-diol
Formula: C16H17NO4
Exact mass: 287.1158
SMILES: C1CN2CC3=CC4=C(C=C3[C@H]5[C@H]2C1=C[C@@H]([C@H]5O)O)OCO4
InChI: InChI=1S/C16H17NO4/c18-11-3-8-1-2-17-6-9-4-12-13(21-7-20-12)5-10(9)14(15(8)17)16(11)19/h3-5,11,14-16,18-19H,1-2,6-7H2/t11-,14-,15+,16+/m0/s1
Instrument: LTQ Orbitrap XL Thermo Scientific
Instrument type: LC-ESI-ITFT
Ms type: MS2
Ion mode: POSITIVE
Ionization: ESI
Fragmentation mode: HCD
Collision energy: 95% (nominal)
Resolution: 15000
Column name: Kinetex Evo C18 2.6 um 50 x 2.1 mm
Retention time: 0.625 min
Base peak: 288.1228
Precursor m/z: 288.123
Precursor type: [M+H]+
m/z	relative intensity	assigned
67.0542	11	C5H7+
79.0544	10	C6H7+
82.0652	44	C5H8N+
83.0492	27	C5H7O+
91.0543	300	C7H7+
95.0492	47	C6H7O+
103.0546	7	C8H7+
106.0651	18	C7H8N+
111.0679	29	C6H9NO+
112.0755	8	C6H10NO+
115.0539	9	C9H7+
119.0492	999	C8H7O+
124.076	11	C7H10NO+
129.0698	5	C10H9+
134.06	9	C8H8NO+
135.0441	28	C8H7O2+
147.0441	553	C9H7O2+
149.0595	29	C9H9O2+
152.0624	9	C12H8+
153.0697	5	C12H9+
159.0439	5	C10H7O2+
165.0706	9	C13H9+
167.0855	10	C13H11+
168.0807	7	C12H10N+
169.089	6	C12H11N+
192.0811	7	C14H10N+
193.0888	10	C14H11N+
194.0965	22	C14H12N+
196.0757	10	C13H10NO+
197.0833	9	C13H11NO+
212.1069	5	C14H14NO+
222.0922	6	C15H12NO+
224.0711	9	C14H10NO2+
226.0868	7	C14H12NO2+
