Mass spectrum: Tomatidine; LC-ESI-ITFT; MS2; CE: 40%; R=15000; [M+H]+
Name: Tomatidine
Formula: C27H45NO2
Exact mass: 415.3450
SMILES: C[C@H]1[C@H]2[C@H](C[C@H]3[C@@H]4CC[C@H]5C[C@@H](O)CC[C@]5(C)[C@H]4CC[C@]23C)O[C@@]11CC[C@H](C)CN1
InChI: InChI=1S/C27H45NO2/c1-16-7-12-27(28-15-16)17(2)24-23(30-27)14-22-20-6-5-18-13-19(29)8-10-25(18,3)21(20)9-11-26(22,24)4/h16-24,28-29H,5-15H2,1-4H3/t16-,17-,18-,19-,20+,21-,22-,23-,24-,25-,26-,27-/m0/s1
Instrument: LTQ Orbitrap XL Thermo Scientific
Instrument type: LC-ESI-ITFT
Ms type: MS2
Ion mode: POSITIVE
Ionization: ESI
Fragmentation mode: HCD
Collision energy: 40 % (nominal)
Resolution: 15000
Column name: Kinetex Evo C18 2.6 um 50 x 2.1 mm
Retention time: 9.999 min
Base peak: 217.0492
Precursor m/z: 416.3523
Precursor type: [M+H]+
m/z	relative intensity	assigned
67.0541	14	C5H7+
69.07	11	C5H9+
70.065	65	C4H8N+
79.0542	39	C6H7+
81.0699	39	C6H9+
91.0542	30	C7H7+
93.0698	32	C7H9+
95.0855	54	C7H11+
96.0809	18	C6H10N+
105.0697	49	C8H9+
107.0854	76	C8H11+
109.1012	34	C8H13+
114.0912	88	C6H12NO+
119.0853	32	C9H11+
121.1011	46	C9H13+
123.1171	9	C9H15+
124.112	121	C8H14N+
126.1276	446	C8H16N+
131.0855	24	C10H11+
133.101	67	C10H13+
135.1167	70	C10H15+
145.1011	77	C11H13+
147.1167	207	C11H15+
149.1323	37	C11H17+
151.1121	9	C10H15O+
159.1167	116	C12H15+
161.1324	999	C12H17+
163.1116	44	C11H15O+
173.1323	64	C13H17+
175.1477	15	C13H19+
185.1327	19	C14H17+
187.1481	16	C14H19+
199.1476	25	C15H19+
213.1637	21	C16H21+
215.179	15	C16H23+
227.1801	9	C17H23+
255.2106	370	C19H27+
273.221	232	C19H29O+
398.3418	89	C27H44NO+
416.3519	509	C27H46NO2+
