Mass spectrum: Heliotrine; LC-ESI-ITFT; MS2; CE: 60%; R=15000; [M+H]+
Name: Heliotrine
Name: [(7S,8R)-7-hydroxy-5,6,7,8-tetrahydro-3H-pyrrolizin-1-yl]methyl (2S)-2-hydroxy-2-[(1R)-1-methoxyethyl]-3-methylbutanoate
Formula: C16H27NO5
Exact mass: 313.1889
SMILES: C[C@H]([C@@](C(C)C)(C(=O)OCC1=CCN2[C@H]1[C@H](CC2)O)O)OC
InChI: InChI=1S/C16H27NO5/c1-10(2)16(20,11(3)21-4)15(19)22-9-12-5-7-17-8-6-13(18)14(12)17/h5,10-11,13-14,18,20H,6-9H2,1-4H3/t11-,13+,14-,16+/m1/s1
Instrument: LTQ Orbitrap XL Thermo Scientific
Instrument type: LC-ESI-ITFT
Ms type: MS2
Ion mode: POSITIVE
Ionization: ESI
Fragmentation mode: HCD
Collision energy: 60% (nominal)
Resolution: 15000
Column name: Kinetex Evo C18 2.6 um 50 x 2.1 mm
Retention time: 1.853 min
Base peak: 143.0014
Precursor m/z: 314.1962
Precursor type: [M+H]+
m/z	relative intensity	assigned
67.0416	4	C4H5N+
67.0543	8	C5H7+
68.0494	4	C4H6N+
80.0494	15	C5H6N+
81.07	5	C6H9+
82.0651	87	C5H8N+
86.06	7	C4H8NO+
91.0542	4	C7H7+
93.0699	8	C7H9+
94.0651	229	C6H8N+
95.0729	33	C6H9N+
96.0807	165	C6H10N+
103.0539	4	C8H7+
108.0807	78	C7H10N+
109.0647	6	C7H9O+
110.06	29	C6H8NO+
110.0963	6	C7H12N+
112.0756	14	C6H10NO+
118.065	8	C8H8N+
120.0807	281	C8H10N+
126.0917	5	C7H12NO+
138.0913	999	C8H12NO+
139.0991	62	C8H13NO+
156.1019	830	C8H14NO2+
