Mass spectrum: Echimidine N-oxide; LC-ESI-ITFT; MS2; CE: 85%; R=15000; [M+H]+
Name: Echimidine N-oxide
Name: [(7R,8R)-7-[(Z)-2-methylbut-2-enoyl]oxy-4-oxido-5,6,7,8-tetrahydro-3H-pyrrolizin-4-ium-1-yl]methyl (2R)-2,3-dihydroxy-2-[(1S)-1-hydroxyethyl]-3-methylbutanoate
Formula: C20H31NO8
Exact mass: 413.2050
SMILES: C/C=C(/C)\C(=O)O[C@@H]1CC[N+]2([C@@H]1C(=CC2)COC(=O)[C@@]([C@H](C)O)(C(C)(C)O)O)[O-]
InChI: InChI=1S/C20H31NO8/c1-6-12(2)17(23)29-15-8-10-21(27)9-7-14(16(15)21)11-28-18(24)20(26,13(3)22)19(4,5)25/h6-7,13,15-16,22,25-26H,8-11H2,1-5H3/b12-6-/t13-,15+,16+,20-,21?/m0/s1
Instrument: LTQ Orbitrap XL Thermo Scientific
Instrument type: LC-ESI-ITFT
Ms type: MS2
Ion mode: POSITIVE
Ionization: ESI
Fragmentation mode: HCD
Collision energy: 85% (nominal)
Resolution: 15000
Column name: Kinetex Evo C18 2.6 um 50 x 2.1 mm
Retention time: 6.545 min
Base peak: 414.2117
Precursor m/z: 414.2122
Precursor type: [M+H]+
m/z	relative intensity	assigned
55.0541	359	C4H7+
66.0463	11	C5H6+
67.0416	15	C4H5N+
67.0542	56	C5H7+
68.0494	78	C4H6N+
69.0333	12	C4H5O+
70.0651	11	C4H8N+
77.0386	20	C6H5+
79.0542	143	C6H7+
80.0495	341	C5H6N+
81.0573	58	C5H7N+
81.0699	126	C6H9+
82.0413	35	C5H6O+
82.0651	76	C5H8N+
83.0492	951	C5H7O+
84.0444	107	C4H6NO+
91.0543	114	C7H7+
92.0496	24	C6H6N+
93.0573	501	C6H7N+
93.0699	47	C7H9+
94.0651	999	C6H8N+
95.0491	22	C6H7O+
95.0729	115	C6H9N+
96.0443	27	C5H6NO+
96.0806	16	C6H10N+
98.0601	46	C5H8NO+
103.0542	19	C8H7+
105.0572	9	C7H7N+
105.0701	15	C8H9+
106.0651	654	C7H8N+
107.073	56	C7H9N+
107.0856	28	C8H11+
108.0808	311	C7H10N+
109.0648	32	C7H9O+
109.0886	56	C7H11N+
110.0601	86	C6H8NO+
111.0679	254	C6H9NO+
112.0756	83	C6H10NO+
117.0574	25	C8H7N+
118.0652	372	C8H8N+
119.073	378	C8H9N+
120.0808	706	C8H10N+
121.0887	39	C8H11N+
122.0601	27	C7H8NO+
122.0964	21	C8H12N+
124.0757	176	C7H10NO+
126.0915	22	C7H12NO+
132.0807	22	C9H10N+
134.0967	21	C9H12N+
136.0757	677	C8H10NO+
137.0835	244	C8H11NO+
138.0913	78	C8H12NO+
140.083	15	C8H12O2+
141.091	391	C8H13O2+
146.0964	24	C10H12N+
148.1122	36	C10H14N+
154.0863	214	C8H12NO2+
172.0971	21	C8H14NO3+
176.107	21	C11H14NO+
218.1178	19	C13H16NO2+
254.1386	80	C13H20NO4+
