Mass spectrum: Hyoscyamine; LC-ESI-ITFT; MS2; CE: 55%; R=15000; [M+H]+
Name: Hyoscyamine
Formula: C17H23NO3
Exact mass: 289.1678
SMILES: CN1[C@@H]2CC[C@H]1C[C@H](C2)OC(=O)[C@H](CO)c3ccccc3
InChI: InChI=1S/C17H23NO3/c1-18-13-7-8-14(18)10-15(9-13)21-17(20)16(11-19)12-5-3-2-4-6-12/h2-6,13-16,19H,7-11H2,1H3/t13-,14+,15+,16-/m1/s1
Instrument: LTQ Orbitrap XL Thermo Scientific
Instrument type: LC-ESI-ITFT
Ms type: MS2
Ion mode: POSITIVE
Ionization: ESI
Fragmentation mode: HCD
Collision energy: 55% (nominal)
Resolution: 15000
Column name: Kinetex Evo C18 2.6 um 50 x 2.1 mm
Retention time: 2.806 min
Base peak: 290.1749
Precursor m/z: 290.1751
Precursor type: [M+H]+
m/z	relative intensity	assigned
67.0542	12	C5H7+
70.065	4	C4H8N+
77.0385	9	C6H5+
82.0652	11	C5H8N+
83.0731	4	C5H9N+
91.0543	48	C7H7+
93.0699	290	C7H9+
95.0855	17	C7H11+
96.0809	12	C6H10N+
98.0964	8	C6H12N+
121.0648	29	C8H9O+
124.1121	999	C8H14N+
125.1199	19	C8H15N+
140.1072	3	C8H14NO+
142.1226	21	C8H16NO+
260.1642	11	C16H22NO2+
290.1752	308	C17H24NO3+
