Mass spectrum: Formononetin; LC-ESI-ITFT; MS2; CE: 85%; R=15000; [M+H]+
Name: Formononetin
Name: 7-hydroxy-3-(4-methoxyphenyl)chromen-4-one
Formula: C16H12O4
Exact mass: 268.0736
SMILES: COc1ccc(cc1)c2coc3cc(ccc3c2=O)O
InChI: InChI=1S/C16H12O4/c1-19-12-5-2-10(3-6-12)14-9-20-15-8-11(17)4-7-13(15)16(14)18/h2-9,17H,1H3
Instrument: LTQ Orbitrap XL Thermo Scientific
Instrument type: LC-ESI-ITFT
Ms type: MS2
Ion mode: POSITIVE
Ionization: ESI
Fragmentation mode: HCD
Collision energy: 85% (nominal)
Resolution: 15000
Column name: Kinetex Evo C18 2.6 um 50 x 2.1 mm
Retention time: 10.629 min
Base peak: 116.9859
Precursor m/z: 269.0808
Precursor type: [M+H]+
m/z	relative intensity	assigned
68.9972	19	C3HO2+
79.0542	13	C6H7+
81.0334	11	C5H5O+
90.0464	105	C7H6+
103.0542	35	C8H7+
105.0699	30	C8H9+
107.0491	34	C7H7O+
108.0207	74	C6H4O2+
118.0414	281	C8H6O+
128.0621	28	C10H8+
129.0697	18	C10H9+
133.0648	79	C9H9O+
136.0155	61	C7H4O3+
137.0234	181	C7H5O3+
141.0699	25	C11H9+
142.0772	15	C11H10+
152.0622	94	C12H8+
153.0701	60	C12H9+
156.057	116	C11H8O+
157.065	39	C11H9O+
158.0725	41	C11H10O+
165.0702	27	C13H9+
168.0562	11	C12H8O+
169.065	176	C12H9O+
170.0728	188	C12H10O+
180.0569	36	C13H8O+
181.0649	252	C13H9O+
182.0729	53	C13H10O+
184.052	35	C12H8O2+
195.0798	19	C14H11O+
196.0522	30	C13H8O2+
197.0597	999	C13H9O2+
198.0676	185	C13H10O2+
200.0469	87	C12H8O3+
209.0596	45	C14H9O2+
211.0388	25	C13H7O3+
213.0909	134	C14H13O2+
225.0546	447	C14H9O3+
226.0624	370	C14H10O3+
237.0546	211	C15H9O3+
253.0496	350	C15H9O4+
254.0575	34	C15H10O4+
