Mass spectrum: Lycopsamine; LC-ESI-ITFT; MS2; CE: 90%; R=15000; [M+H]+
Name: Lycopsamine
Name: [(7R,8R)-7-hydroxy-5,6,7,8-tetrahydro-3H-pyrrolizin-1-yl]methyl (2S)-2-hydroxy-2-[(1S)-1-hydroxyethyl]-3-methylbutanoate
Formula: C15H25NO5
Exact mass: 299.1733
SMILES: C[C@@H]([C@@](C(C)C)(C(=O)OCC1=CCN2[C@H]1[C@@H](CC2)O)O)O
InChI: InChI=1S/C15H25NO5/c1-9(2)15(20,10(3)17)14(19)21-8-11-4-6-16-7-5-12(18)13(11)16/h4,9-10,12-13,17-18,20H,5-8H2,1-3H3/t10-,12+,13+,15-/m0/s1
Instrument: LTQ Orbitrap XL Thermo Scientific
Instrument type: LC-ESI-ITFT
Ms type: MS2
Ion mode: POSITIVE
Ionization: ESI
Fragmentation mode: HCD
Collision energy: 90% (nominal)
Resolution: 15000
Column name: Kinetex Evo C18 2.6 um 50 x 2.1 mm
Retention time: 1.030 min
Base peak: 143.0015
Precursor m/z: 300.1805
Precursor type: [M+H]+
m/z	relative intensity	assigned
67.0416	75	C4H5N+
67.0542	93	C5H7+
68.0495	23	C4H6N+
78.0339	17	C5H4N+
79.0543	16	C6H7+
80.0495	116	C5H6N+
81.0573	22	C5H7N+
81.0701	29	C6H9+
82.0652	237	C5H8N+
84.0444	22	C4H6NO+
85.0524	18	C4H7NO+
86.0601	97	C4H8NO+
91.0544	25	C7H7+
94.0652	999	C6H8N+
95.073	263	C6H9N+
96.0442	11	C5H6NO+
96.0808	116	C6H10N+
108.0808	165	C7H10N+
109.0648	14	C7H9O+
110.0601	18	C6H8NO+
110.0964	22	C7H12N+
112.0757	321	C6H10NO+
120.0808	117	C8H10N+
126.0914	48	C7H12NO+
138.0914	128	C8H12NO+
139.0992	59	C8H13NO+
156.102	737	C8H14NO2+
