Mass spectrum: Tetrahydropalmatin; LC-ESI-ITFT; MS2; CE: 90%; R=15000; [M+H]+
Name: Tetrahydropalmatin
Name: D-Tetrahydropalmatine
Name: (13aR)-2,3,9,10-tetramethoxy-6,8,13,13a-tetrahydro-5H-isoquinolino[2,1-b]isoquinoline
Formula: C21H25NO4
Exact mass: 355.1784
SMILES: COC1=C(C2=C(C[C@@H]3C4=CC(=C(C=C4CCN3C2)OC)OC)C=C1)OC
InChI: InChI=1S/C21H25NO4/c1-23-18-6-5-13-9-17-15-11-20(25-3)19(24-2)10-14(15)7-8-22(17)12-16(13)21(18)26-4/h5-6,10-11,17H,7-9,12H2,1-4H3/t17-/m1/s1
Instrument: LTQ Orbitrap XL Thermo Scientific
Instrument type: LC-ESI-ITFT
Ms type: MS2
Ion mode: POSITIVE
Ionization: ESI
Fragmentation mode: HCD
Collision energy: 90% (nominal)
Resolution: 15000
Column name: Kinetex Evo C18 2.6 um 50 x 2.1 mm
Retention time: 7.471 min
Base peak: 356.1854
Precursor m/z: 356.1856
Precursor type: [M+H]+
m/z	relative intensity	assigned
77.0387	9	C6H5+
78.0464	3	C6H6+
79.0542	40	C6H7+
90.0465	3	C7H6+
91.0542	30	C7H7+
92.062	5	C7H8+
93.0699	4	C7H9+
95.0492	3	C6H7O+
102.0465	3	C8H6+
103.0542	40	C8H7+
104.062	15	C8H8+
105.0699	63	C8H9+
107.0491	52	C7H7O+
108.057	4	C7H8O+
109.0645	3	C7H9O+
115.0543	3	C9H7+
117.0576	3	C8H7N+
118.0413	18	C8H6O+
118.0651	16	C8H8N+
119.049	19	C8H7O+
119.0729	13	C8H9N+
120.0569	21	C8H8O+
120.0808	3	C8H10N+
121.0647	56	C8H9O+
122.0726	13	C8H10O+
130.065	19	C9H8N+
131.0729	482	C9H9N+
132.057	7	C9H8O+
133.0524	5	C8H7NO+
133.0648	30	C9H9O+
134.0602	10	C8H8NO+
134.0726	53	C9H10O+
135.044	72	C8H7O2+
135.0803	12	C9H11O+
136.0517	6	C8H8O2+
137.0598	2	C8H9O2+
139.0753	3	C8H11O2+
145.065	2	C10H9O+
146.0602	23	C9H8NO+
146.073	4	C10H10O+
147.0679	131	C9H9NO+
148.0756	653	C9H10NO+
149.0467	4	C8H7NO2+
149.0593	15	C9H9O2+
150.0674	155	C9H10O2+
151.0749	28	C9H11O2+
158.0604	6	C10H8NO+
158.0721	5	C11H10O+
159.0679	151	C10H9NO+
160.0755	85	C10H10NO+
161.0594	5	C10H9O2+
161.0833	22	C10H11NO+
162.0549	13	C9H8NO2+
162.0911	6	C10H12NO+
163.0631	5	C9H9NO2+
165.0909	81	C10H13O2+
174.055	21	C10H8NO2+
175.0629	8	C10H9NO2+
175.0753	2	C11H11O2+
176.0706	999	C10H10NO2+
177.0783	499	C10H11NO2+
179.0863	3	C14H11+
188.0709	3	C11H10NO2+
190.0862	48	C11H12NO2+
192.1018	792	C11H14NO2+
195.0807	4	C14H11O+
207.0811	4	C15H11O+
219.08	5	C16H11O+
221.0963	2	C16H13O+
223.0755	3	C15H11O2+
233.0962	2	C17H13O+
234.1043	3	C17H14O+
235.0758	6	C16H11O2+
236.1072	5	C16H14NO+
237.0908	5	C16H13O2+
238.0994	2	C16H14O2+
249.091	4	C17H13O2+
250.0994	5	C17H14O2+
254.1177	3	C16H16NO2+
264.1022	10	C17H14NO2+
266.1177	6	C17H16NO2+
278.1167	7	C18H16NO2+
279.125	2	C18H17NO2+
282.1131	3	C17H16NO3+
292.0968	5	C18H14NO3+
296.1277	9	C18H18NO3+
306.1121	7	C19H16NO3+
308.1288	4	C19H18NO3+
324.1233	8	C19H18NO4+
