Mass spectrum: Matairesinol; LC-ESI-ITFT; MS2; CE: 40%; R=15000; [M+H]+
Name: Matairesinol
Formula: C20H22O6
Exact mass: 358.1416
SMILES: COC1=CC(C[C@H]2COC(=O)[C@@H]2CC2=CC=C(O)C(OC)=C2)=CC=C1O
InChI: InChI=1S/C20H22O6/c1-24-18-9-12(3-5-16(18)21)7-14-11-26-20(23)15(14)8-13-4-6-17(22)19(10-13)25-2/h3-6,9-10,14-15,21-22H,7-8,11H2,1-2H3/t14-,15+/m0/s1
Instrument: LTQ Orbitrap XL Thermo Scientific
Instrument type: LC-ESI-ITFT
Ms type: MS2
Ion mode: POSITIVE
Ionization: ESI
Fragmentation mode: HCD
Collision energy: 40 % (nominal)
Resolution: 15000
Column name: Kinetex Evo C18 2.6 um 50 x 2.1 mm
Retention time: 9.367 min
Base peak: 381.1304
Precursor m/z: 359.1489
Precursor type: [M+H]+
m/z	relative intensity	assigned
103.0542	22	C8H7+
122.0362	3	C7H6O2+
131.049	143	C9H7O+
137.0596	999	C8H9O2+
145.065	6	C10H9O+
147.0439	7	C9H7O2+
149.0595	6	C9H9O2+
151.0388	15	C8H7O3+
151.0753	5	C9H11O2+
157.0647	6	C11H9O+
163.0753	46	C10H11O2+
165.0544	8	C9H9O3+
177.055	4	C10H9O3+
177.091	11	C11H13O2+
179.0698	4	C10H11O3+
189.0908	10	C12H13O2+
191.0696	5	C11H11O3+
203.0863	3	C16H11+
205.0858	13	C12H13O3+
217.0858	16	C13H13O3+
223.0964	5	C12H15O4+
231.0804	7	C17H11O+
263.1065	3	C18H15O2+
