Mass spectrum: Lycopsamine N-oxide; LC-ESI-ITFT; MS2; CE: 80%; R=15000; [M+H]+
Name: Lycopsamine N-oxide
Name: [(7R,8R)-7-hydroxy-4-oxido-5,6,7,8-tetrahydro-3H-pyrrolizin-4-ium-1-yl]methyl (2S)-2-hydroxy-2-[(1S)-1-hydroxyethyl]-3-methylbutanoate
Formula: C15H25NO6
Exact mass: 315.1682
SMILES: C[C@@H]([C@@](C(C)C)(C(=O)OCC1=CC[N+]2([C@H]1[C@@H](CC2)O)[O-])O)O
InChI: InChI=1S/C15H25NO6/c1-9(2)15(20,10(3)17)14(19)22-8-11-4-6-16(21)7-5-12(18)13(11)16/h4,9-10,12-13,17-18,20H,5-8H2,1-3H3/t10-,12+,13+,15-,16?/m0/s1
Instrument: LTQ Orbitrap XL Thermo Scientific
Instrument type: LC-ESI-ITFT
Ms type: MS2
Ion mode: POSITIVE
Ionization: ESI
Fragmentation mode: HCD
Collision energy: 80% (nominal)
Resolution: 15000
Column name: Kinetex Evo C18 2.6 um 50 x 2.1 mm
Retention time: 1.287 min
Base peak: 143.0014
Precursor m/z: 316.1755
Precursor type: [M+H]+
m/z	relative intensity	assigned
67.0543	29	C5H7+
68.0494	51	C4H6N+
70.065	9	C4H8N+
73.0648	28	C4H9O+
79.0542	15	C6H7+
80.0495	180	C5H6N+
81.0573	21	C5H7N+
81.0699	29	C6H9+
82.0413	55	C5H6O+
82.0652	69	C5H8N+
83.0491	117	C5H7O+
91.0542	15	C7H7+
92.0494	14	C6H6N+
93.0573	564	C6H7N+
94.0651	999	C6H8N+
95.0729	25	C6H9N+
96.0446	32	C5H6NO+
96.0807	26	C6H10N+
98.06	43	C5H8NO+
102.0549	63	C4H8NO2+
106.0651	89	C7H8N+
108.0807	103	C7H10N+
110.0601	53	C6H8NO+
111.0678	691	C6H9NO+
112.0756	47	C6H10NO+
118.065	10	C8H8N+
120.0804	19	C8H10N+
124.0757	36	C7H10NO+
126.0913	29	C7H12NO+
128.0704	40	C6H10NO2+
136.0757	249	C8H10NO+
137.0834	93	C8H11NO+
138.0913	657	C8H12NO+
140.0706	18	C7H10NO2+
154.0862	75	C8H12NO2+
155.0941	130	C8H13NO2+
172.0968	942	C8H14NO3+
