Mass spectrum: Lycorine; LC-ESI-ITFT; MS2; CE: 90%; R=15000; [M+H]+
Name: Lycorine
Name: (1S,17S,18S,19S)-5,7-dioxa-12-azapentacyclo[10.6.1.02,10.04,8.015,19]nonadeca-2,4(8),9,15-tetraene-17,18-diol
Formula: C16H17NO4
Exact mass: 287.1158
SMILES: C1CN2CC3=CC4=C(C=C3[C@H]5[C@H]2C1=C[C@@H]([C@H]5O)O)OCO4
InChI: InChI=1S/C16H17NO4/c18-11-3-8-1-2-17-6-9-4-12-13(21-7-20-12)5-10(9)14(15(8)17)16(11)19/h3-5,11,14-16,18-19H,1-2,6-7H2/t11-,14-,15+,16+/m0/s1
Instrument: LTQ Orbitrap XL Thermo Scientific
Instrument type: LC-ESI-ITFT
Ms type: MS2
Ion mode: POSITIVE
Ionization: ESI
Fragmentation mode: HCD
Collision energy: 90% (nominal)
Resolution: 15000
Column name: Kinetex Evo C18 2.6 um 50 x 2.1 mm
Retention time: 0.625 min
Base peak: 288.1228
Precursor m/z: 288.123
Precursor type: [M+H]+
m/z	relative intensity	assigned
67.0542	12	C5H7+
77.0386	7	C6H5+
79.0544	10	C6H7+
82.0651	44	C5H8N+
83.0491	22	C5H7O+
91.0543	209	C7H7+
95.0492	41	C6H7O+
103.0541	5	C8H7+
106.0653	15	C7H8N+
111.0678	29	C6H9NO+
112.0756	17	C6H10NO+
119.0492	999	C8H7O+
124.0758	13	C7H10NO+
134.0602	14	C8H8NO+
135.0441	32	C8H7O2+
136.0517	5	C8H8O2+
141.07	5	C11H9+
147.0441	697	C9H7O2+
149.0597	37	C9H9O2+
152.0624	5	C12H8+
159.0435	7	C10H7O2+
165.0695	8	C13H9+
167.0732	7	C12H9N+
167.0853	6	C13H11+
168.0806	7	C12H10N+
169.0888	10	C12H11N+
177.0545	6	C10H9O3+
184.1117	6	C13H14N+
192.0815	7	C14H10N+
193.0884	10	C14H11N+
194.0966	33	C14H12N+
196.0754	6	C13H10NO+
197.0835	11	C13H11NO+
212.0705	6	C13H10NO2+
212.1068	8	C14H14NO+
222.0915	9	C15H12NO+
225.0785	7	C14H11NO2+
226.0863	10	C14H12NO2+
250.0859	5	C16H12NO2+
