Mass spectrum: Homoharringtonine; LC-ESI-ITFT; MS2; CE: 35%; R=15000; [M+H]+
Name: Homoharringtonine
Name: Omacetaxine mepesuccinate
Name: 1-O-[(2S,3S,6R)-4-methoxy-16,18-dioxa-10-azapentacyclo[11.7.0.02,6.06,10.015,19]icosa-1(20),4,13,15(19)-tetraen-3-yl] 4-O-methyl (2R)-2-hydroxy-2-(4-hydroxy-4-methylpentyl)butanedioate
Formula: C29H39NO9
Exact mass: 545.2625
SMILES: CC(C)(CCC[C@@](CC(=O)OC)(C(=O)O[C@H]1[C@H]2c3cc4c(cc3CCN5[C@@]2(CCC5)C=C1OC)OCO4)O)O
InChI: InChI=1S/C29H39NO9/c1-27(2,33)8-5-10-29(34,16-23(31)36-4)26(32)39-25-22(35-3)15-28-9-6-11-30(28)12-7-18-13-20-21(38-17-37-20)14-19(18)24(25)28/h13-15,24-25,33-34H,5-12,16-17H2,1-4H3/t24-,25-,28+,29-/m1/s1
Instrument: LTQ Orbitrap XL Thermo Scientific
Instrument type: LC-ESI-ITFT
Ms type: MS2
Ion mode: POSITIVE
Ionization: ESI
Fragmentation mode: HCD
Collision energy: 35% (nominal)
Resolution: 15000
Column name: Kinetex Evo C18 2.6 um 50 x 2.1 mm
Retention time: 7.145 min
Base peak: 546.2695
Precursor m/z: 546.2698
Precursor type: [M+H]+
m/z	relative intensity	assigned
70.065	2	C4H8N+
85.0648	1	C5H9O+
93.0701	1	C7H9+
100.0758	1	C5H10NO+
107.0856	2	C8H11+
109.0647	11	C7H9O+
120.0805	5	C8H10N+
121.0645	1	C8H9O+
123.0802	7	C8H11O+
126.0912	12	C7H12NO+
129.0548	1	C6H9O3+
135.044	2	C8H7O2+
150.0912	44	C9H12NO+
161.0596	5	C10H9O2+
163.0987	1	C10H13NO+
167.1065	6	C10H15O2+
173.0596	4	C11H9O2+
176.0705	31	C10H10NO2+
185.0603	1	C12H9O2+
190.0862	2	C11H12NO2+
199.076	1	C13H11O2+
200.0703	1	C12H10NO2+
214.087	2	C13H12NO2+
215.07	12	C13H11O3+
219.0809	1	C16H11O+
223.0752	7	C15H11O2+
223.1117	6	C16H15O+
224.0765	1	C7H14NO7+
225.0908	3	C15H13O2+
226.0861	35	C14H12NO2+
227.0942	40	C14H13NO2+
229.0854	10	C14H13O3+
229.1095	15	C14H15NO2+
236.1074	3	C16H14NO+
237.0903	5	C16H13O2+
239.107	2	C16H15O2+
240.0779	3	C15H12O3+
240.1017	9	C15H14NO2+
241.0871	1	C15H13O3+
243.1008	1	C15H15O3+
249.091	4	C17H13O2+
250.0994	2	C17H14O2+
251.1064	44	C17H15O2+
252.0778	1	C16H12O3+
253.0858	15	C16H13O3+
253.1101	3	C16H15NO2+
255.1013	14	C16H15O3+
266.1173	64	C17H16NO2+
268.1341	3	C17H18NO2+
269.1169	8	C17H17O3+
270.112	10	C16H16NO3+
281.1169	23	C18H17O3+
283.1203	6	C17H17NO3+
284.128	52	C17H18NO3+
296.1281	3	C18H18NO3+
298.1435	999	C18H20NO3+
316.1539	60	C18H22NO4+
546.2697	26	C29H40NO9+
