Mass spectrum: Solasodin; LC-ESI-ITFT; MS2; CE: 70%; R=15000; [M+H]+
Name: Solasodin
Name: Solasodine
Formula: C27H43NO2
Exact mass: 413.3294
SMILES: C[C@@H]1CC[C@@]2([C@H]([C@H]3[C@@H](O2)C[C@@H]4[C@@]3(CC[C@H]5[C@H]4CC=C6[C@@]5(CC[C@@H](C6)O)C)C)C)NC1
InChI: InChI=1S/C27H43NO2/c1-16-7-12-27(28-15-16)17(2)24-23(30-27)14-22-20-6-5-18-13-19(29)8-10-25(18,3)21(20)9-11-26(22,24)4/h5,16-17,19-24,28-29H,6-15H2,1-4H3/t16-,17+,19+,20-,21+,22+,23+,24+,25+,26+,27-/m1/s1
Instrument: LTQ Orbitrap XL Thermo Scientific
Instrument type: LC-ESI-ITFT
Ms type: MS2
Ion mode: POSITIVE
Ionization: ESI
Fragmentation mode: HCD
Collision energy: 70% (nominal)
Resolution: 15000
Column name: Kinetex Evo C18 2.6 um 50 x 2.1 mm
Retention time: 10.879 min
Base peak: 414.3363
Precursor m/z: 414.3367
Precursor type: [M+H]+
m/z	relative intensity	assigned
55.0543	16	C4H7+
67.0542	123	C5H7+
69.0699	37	C5H9+
70.0651	380	C4H8N+
79.0543	113	C6H7+
80.0495	7	C5H6N+
81.0699	200	C6H9+
82.0651	9	C5H8N+
83.0494	9	C5H7O+
83.0855	18	C6H11+
84.081	8	C5H10N+
86.0965	28	C5H12N+
91.0543	110	C7H7+
93.0699	248	C7H9+
95.0495	14	C6H7O+
95.0856	242	C7H11+
96.0808	52	C6H10N+
97.0649	20	C6H9O+
98.0966	34	C6H12N+
105.0699	231	C8H9+
107.0856	364	C8H11+
108.0808	9	C7H10N+
109.0886	18	C7H11N+
109.1012	361	C8H13+
114.0914	83	C6H12NO+
115.054	9	C9H7+
117.0699	80	C9H9+
119.0856	181	C9H11+
121.1013	372	C9H13+
122.0963	14	C8H12N+
123.1169	37	C9H15+
124.1122	389	C8H14N+
125.1199	22	C8H15N+
126.1278	267	C8H16N+
129.07	82	C10H9+
131.0856	255	C10H11+
133.1013	541	C10H13+
135.117	64	C10H15+
141.0696	20	C11H9+
142.0779	51	C11H10+
143.0857	157	C11H11+
144.0933	16	C11H12+
145.1013	380	C11H13+
147.1169	522	C11H15+
148.1122	13	C10H14N+
149.0964	13	C10H13O+
149.1328	10	C11H17+
150.1279	55	C10H16N+
151.1117	42	C10H15O+
152.1431	17	C10H18N+
155.0857	57	C12H11+
156.0937	6	C12H12+
157.1013	999	C12H13+
159.117	607	C12H15+
161.0968	10	C11H13O+
161.1326	37	C12H17+
162.128	17	C11H16N+
163.1119	15	C11H15O+
164.1435	71	C11H18N+
169.1013	57	C13H13+
171.1169	188	C13H15+
173.1326	119	C13H17+
175.1119	222	C12H15O+
176.1435	10	C12H18N+
177.1274	17	C12H17O+
178.1582	13	C12H20N+
182.1088	14	C14H14+
183.117	119	C14H15+
184.1248	11	C14H16+
185.1326	113	C14H17+
187.1484	9	C14H19+
196.1247	16	C15H16+
197.1325	186	C15H17+
198.1403	12	C15H18+
199.1483	37	C15H19+
209.1323	20	C16H17+
211.1482	173	C16H19+
212.1563	31	C16H20+
213.1639	38	C16H21+
216.1747	10	C15H22N+
223.1484	29	C17H19+
224.1559	51	C17H20+
225.1639	73	C17H21+
227.1801	12	C17H23+
238.1715	52	C18H22+
242.1667	10	C17H22O+
253.1952	386	C19H25+
271.2057	36	C19H27O+
380.2949	16	C26H38NO+
396.3261	197	C27H42NO+
