Mass spectrum: Coniferaldehyde; LC-ESI-ITFT; MS2; CE: 120%; R=15000; [M+H]+
Name: Coniferaldehyde
Formula: C10H10O3
Exact mass: 178.0630
SMILES: COC1=CC(\C=C\C=O)=CC=C1O
InChI: InChI=1S/C10H10O3/c1-13-10-7-8(3-2-6-11)4-5-9(10)12/h2-7,12H,1H3/b3-2+
Instrument: LTQ Orbitrap XL Thermo Scientific
Instrument type: LC-ESI-ITFT
Ms type: MS2
Ion mode: POSITIVE
Ionization: ESI
Fragmentation mode: HCD
Collision energy: 120 % (nominal)
Resolution: 15000
Column name: Kinetex Evo C18 2.6 um 50 x 2.1 mm
Retention time: 7.281 min
Base peak: 179.0702
Precursor m/z: 179.0703
Precursor type: [M+H]+
m/z	relative intensity	assigned
63.023	4	C5H3+
65.0386	250	C5H5+
66.0464	17	C5H6+
77.0386	194	C6H5+
78.0465	13	C6H6+
79.0543	533	C6H7+
80.0621	104	C6H8+
81.0335	12	C5H5O+
82.0413	61	C5H6O+
89.0386	210	C7H5+
90.0464	252	C7H6+
91.0542	999	C7H7+
92.0257	35	C6H4O+
93.0334	14	C6H5O+
94.0413	76	C6H6O+
95.0492	44	C6H7O+
102.0465	10	C8H6+
103.0542	46	C8H7+
105.0335	19	C7H5O+
105.0699	5	C8H9+
107.0492	473	C7H7O+
108.0571	33	C7H8O+
110.0362	35	C6H6O2+
115.0545	14	C9H7+
117.0334	14	C8H5O+
118.0413	334	C8H6O+
119.0492	74	C8H7O+
121.0285	14	C7H5O2+
131.0489	7	C9H7O+
135.0441	97	C8H7O2+
136.052	84	C8H8O2+
146.0364	60	C9H6O2+
147.0442	15	C9H7O2+
163.039	7	C9H7O3+
