Mass spectrum: Aconitin; LC-ESI-ITFT; MS2; CE: 95%; R=15000; [M+H]+
Name: Aconitin
Name: Aconitine
Name: [(1S,2R,3R,4R,5R,6S,7S,8R,9R,13R,14R,16S,17S,18R)-8-acetyloxy-11-ethyl-5,7,14-trihydroxy-6,16,18-trimethoxy-13-(methoxymethyl)-11-azahexacyclo[7.7.2.12,5.01,10.03,8.013,17]nonadecan-4-yl] benzoate
Formula: C34H47NO11
Exact mass: 645.3149
SMILES: CCN1C[C@@]2([C@@H](C[C@@H]([C@@]34[C@@H]2[C@H]([C@@H](C31)[C@@]5([C@@H]6[C@H]4C[C@@]([C@@H]6OC(=O)C7=CC=CC=C7)([C@H]([C@@H]5O)OC)O)OC(=O)C)OC)OC)O)COC
InChI: InChI=1S/C34H47NO11/c1-7-35-15-31(16-41-3)20(37)13-21(42-4)33-19-14-32(40)28(45-30(39)18-11-9-8-10-12-18)22(19)34(46-17(2)36,27(38)29(32)44-6)23(26(33)35)24(43-5)25(31)33/h8-12,19-29,37-38,40H,7,13-16H2,1-6H3/t19-,20-,21+,22-,23+,24+,25-,26?,27+,28-,29+,31+,32-,33+,34-/m1/s1
Instrument: LTQ Orbitrap XL Thermo Scientific
Instrument type: LC-ESI-ITFT
Ms type: MS2
Ion mode: POSITIVE
Ionization: ESI
Fragmentation mode: HCD
Collision energy: 95% (nominal)
Resolution: 15000
Column name: Kinetex Evo C18 2.6 um 50 x 2.1 mm
Retention time: 9.733 min
Base peak: 116.9858
Precursor m/z: 646.3222
Precursor type: [M+H]+
m/z	relative intensity	assigned
71.0493	12	C4H7O+
77.0386	295	C6H5+
79.0542	34	C6H7+
82.0651	14	C5H8N+
85.0284	20	C4H5O2+
91.0542	84	C7H7+
94.0652	14	C6H8N+
95.0491	41	C6H7O+
103.0545	17	C8H7+
105.0335	999	C7H5O+
106.0651	20	C7H8N+
107.0491	12	C7H7O+
108.0807	32	C7H10N+
109.065	10	C7H9O+
115.0542	49	C9H7+
116.0619	17	C9H8+
117.0573	16	C8H7N+
117.0698	63	C9H9+
118.065	20	C8H8N+
119.049	15	C8H7O+
120.0806	12	C8H10N+
121.0649	11	C8H9O+
121.0888	15	C8H11N+
122.0963	23	C8H12N+
124.0762	12	C7H10NO+
128.0621	43	C10H8+
129.0697	56	C10H9+
130.0651	16	C9H8N+
131.0731	14	C9H9N+
131.0853	13	C10H11+
132.0808	13	C9H10N+
133.0285	11	C8H5O2+
134.0963	20	C9H12N+
136.0756	13	C8H10NO+
141.0699	43	C11H9+
144.0808	16	C10H10N+
145.0648	16	C10H9O+
145.088	12	C10H11N+
146.0603	13	C9H8NO+
146.0963	25	C10H12N+
147.0439	18	C9H7O2+
147.1038	16	C10H13N+
148.1117	14	C10H14N+
150.0918	8	C9H12NO+
152.0621	28	C12H8+
152.1069	28	C9H14NO+
153.0697	47	C12H9+
154.0778	17	C12H10+
155.0858	26	C12H11+
156.081	13	C11H10N+
158.0965	36	C11H12N+
160.0758	20	C10H10NO+
160.1121	29	C11H14N+
162.0911	16	C10H12NO+
165.0698	79	C13H9+
166.0772	26	C13H10+
167.0856	29	C13H11+
169.0652	15	C12H9O+
171.1035	11	C12H13N+
172.112	24	C12H14N+
176.1072	9	C11H14NO+
178.0777	71	C14H10+
178.1227	18	C11H16NO+
179.0856	41	C14H11+
181.0642	18	C13H9O+
182.096	14	C13H12N+
184.1121	24	C13H14N+
186.1271	13	C13H16N+
188.1072	17	C12H14NO+
189.0698	40	C15H9+
190.0775	31	C15H10+
191.0852	46	C15H11+
192.0943	14	C15H12+
193.1015	14	C15H13+
195.0804	14	C14H11O+
198.1278	10	C14H16N+
202.0774	33	C16H10+
202.1221	23	C13H16NO+
203.0859	29	C16H11+
204.0943	14	C16H12+
205.0647	11	H15NO11+
205.1019	15	C16H13+
206.0966	9	C15H12N+
208.1125	15	C15H14N+
215.0851	24	C17H11+
218.0714	18	CH16NO11+
219.0794	12	C16H11O+
250.1224	12	C17H16NO+
