Mass spectrum: Harmine; LC-ESI-ITFT; MS2; CE: 130%; R=15000; [M+H]+
Name: Harmine
Name: 7-methoxy-1-methyl-9H-pyrido[3,4-b]indole
Formula: C13H12N2O
Exact mass: 212.0950
SMILES: COC1=CC2=C(C=C1)C1=C(N2)C(C)=NC=C1
InChI: InChI=1S/C13H12N2O/c1-8-13-11(5-6-14-8)10-4-3-9(16-2)7-12(10)15-13/h3-7,15H,1-2H3
Instrument: LTQ Orbitrap XL Thermo Scientific
Instrument type: LC-ESI-ITFT
Ms type: MS2
Ion mode: POSITIVE
Ionization: ESI
Fragmentation mode: HCD
Collision energy: 130 % (nominal)
Resolution: 15000
Column name: Kinetex Evo C18 2.6 um 50 x 2.1 mm
Retention time: 6.601 min
Base peak: 213.1034
Precursor m/z: 213.1022
Precursor type: [M+H]+
m/z	relative intensity	assigned
77.0386	1	C6H5+
89.0388	1	C7H5+
90.0466	4	C7H6+
91.0544	1	C7H7+
93.0576	56	C6H7N+
102.0467	14	C8H6+
103.0419	1	C7H5N+
103.0545	5	C8H7+
115.0545	29	C9H7+
116.0498	5	C8H6N+
116.0624	3	C9H8+
117.0576	18	C8H7N+
118.0654	42	C8H8N+
119.073	1	C8H9N+
128.0498	29	C9H6N+
129.045	3	C8H5N2+
129.0576	9	C9H7N+
130.0654	6	C9H8N+
140.0498	3	C10H6N+
141.0577	2	C10H7N+
142.0654	44	C10H8N+
143.0607	19	C9H7N2+
143.0733	28	C10H9N+
144.0685	68	C9H8N2+
144.0811	146	C10H10N+
146.0604	2	C9H8NO+
152.0499	1	C11H6N+
153.045	6	C10H5N2+
154.0524	1	C10H6N2+
154.0658	1	C11H8N+
155.0607	123	C10H7N2+
167.0609	1	C11H7N2+
168.0688	23	C11H8N2+
169.0764	999	C11H9N2+
170.084	473	C11H10N2+
171.0553	3	C10H7N2O+
171.0873	9	C6H11N4O2+
198.0794	7	C12H10N2O+
