Mass spectrum: Daidzein; LC-ESI-ITFT; MS2; CE: 80%; R=15000; [M+H]+
Name: Daidzein
Name: 7-hydroxy-3-(4-hydroxyphenyl)chromen-4-one
Formula: C15H10O4
Exact mass: 254.0579
SMILES: c1cc(ccc1c2coc3cc(ccc3c2=O)O)O
InChI: InChI=1S/C15H10O4/c16-10-3-1-9(2-4-10)13-8-19-14-7-11(17)5-6-12(14)15(13)18/h1-8,16-17H
Instrument: LTQ Orbitrap XL Thermo Scientific
Instrument type: LC-ESI-ITFT
Ms type: MS2
Ion mode: POSITIVE
Ionization: ESI
Fragmentation mode: HCD
Collision energy: 80% (nominal)
Resolution: 15000
Column name: Kinetex Evo C18 2.6 um 50 x 2.1 mm
Retention time: 9.200 min
Base peak: 116.9858
Precursor m/z: 255.0652
Precursor type: [M+H]+
m/z	relative intensity	assigned
81.0337	67	C5H5O+
91.0542	996	C7H7+
119.0492	285	C8H7O+
121.0284	90	C7H5O2+
128.0619	189	C10H8+
129.0697	126	C10H9+
131.0493	89	C9H7O+
134.036	64	C8H6O2+
137.0234	999	C7H5O3+
143.0858	102	C11H11+
145.0282	107	C9H5O2+
149.0238	56	C8H5O3+
152.0621	296	C12H8+
153.0698	632	C12H9+
157.0651	153	C11H9O+
171.0806	155	C12H11O+
181.0648	963	C13H9O+
182.0731	86	C13H10O+
184.0515	106	C12H8O2+
197.0593	126	C13H9O2+
198.0676	70	C13H10O2+
199.0754	945	C13H11O2+
209.0591	82	C14H9O2+
227.07	300	C14H11O3+
237.0545	187	C15H9O3+
255.0654	265	C15H11O4+
