Mass spectrum: Protopin; LC-ESI-ITFT; MS2; CE: 50%; R=15000; [M+H]+
Name: Protopin
Name: Protopine
Name: 15-methyl-7,9,19,21-tetraoxa-15-azapentacyclo[15.7.0.04,12.06,10.018,22]tetracosa-1(17),4,6(10),11,18(22),23-hexaen-3-one
Formula: C20H19NO5
Exact mass: 353.1263
SMILES: CN1CCC2=CC3=C(C=C2C(=O)CC4=C(C1)C5=C(C=C4)OCO5)OCO3
InChI: InChI=1S/C20H19NO5/c1-21-5-4-13-7-18-19(25-10-24-18)8-14(13)16(22)6-12-2-3-17-20(15(12)9-21)26-11-23-17/h2-3,7-8H,4-6,9-11H2,1H3
Instrument: LTQ Orbitrap XL Thermo Scientific
Instrument type: LC-ESI-ITFT
Ms type: MS2
Ion mode: POSITIVE
Ionization: ESI
Fragmentation mode: HCD
Collision energy: 50% (nominal)
Resolution: 15000
Column name: Kinetex Evo C18 2.6 um 50 x 2.1 mm
Retention time: 6.747 min
Base peak: 354.1337
Precursor m/z: 354.1336
Precursor type: [M+H]+
m/z	relative intensity	assigned
91.0542	12	C7H7+
107.0492	17	C7H7O+
109.0647	4	C7H9O+
119.0492	20	C8H7O+
135.0441	68	C8H7O2+
147.0441	15	C9H7O2+
149.0597	446	C9H9O2+
159.0445	6	C10H7O2+
160.0757	3	C10H10NO+
161.0597	9	C10H9O2+
163.0391	22	C9H7O3+
165.0547	240	C9H9O3+
173.0599	8	C11H9O2+
175.039	83	C10H7O3+
176.0707	26	C10H10NO2+
177.0545	14	C10H9O3+
177.0784	38	C10H11NO2+
178.0864	45	C10H12NO2+
187.0388	12	C11H7O3+
188.0706	893	C11H10NO2+
189.0784	999	C11H11NO2+
190.0863	44	C11H12NO2+
192.1011	8	C11H14NO2+
195.0805	46	C14H11O+
201.0792	4	C12H11NO2+
204.0657	16	C11H10NO3+
206.0812	236	C11H12NO3+
207.0802	26	C15H11O+
209.0594	5	C14H9O2+
217.0647	11	C16H9O+
223.0754	31	C15H11O2+
225.0909	37	C15H13O2+
235.0754	74	C16H11O2+
237.0547	16	C15H9O3+
237.0912	30	C16H13O2+
245.0605	7	C17H9O2+
247.0754	130	C17H11O2+
249.0909	7	C17H13O2+
251.0694	3	C16H11O3+
253.0859	25	C16H13O3+
263.0705	30	C17H11O3+
265.0859	99	C17H13O3+
267.0653	59	C16H11O4+
275.0703	210	C18H11O3+
277.0866	6	C18H13O3+
278.1179	20	C18H16NO2+
281.0817	6	C17H13O4+
283.097	8	C17H15O4+
292.0738	3	C18H12O4+
293.0809	58	C18H13O4+
295.0966	45	C18H15O4+
305.0809	34	C19H13O4+
306.1128	24	C19H16NO3+
307.0972	8	C19H15O4+
311.0914	14	C18H15O5+
320.0915	16	C19H14NO4+
321.0997	28	C19H15NO4+
323.0915	44	C19H15O5+
334.1076	16	C20H16NO4+
336.1231	95	C20H18NO4+
354.1338	386	C20H20NO5+
