Mass spectrum: Conessine; LC-ESI-ITFT; MS2; CE: 100%; R=15000; [M+H]+
Name: Conessine
Formula: C24H40N2
Exact mass: 356.3191
SMILES: C[C@H]1[C@H]2CC[C@H]3[C@@H]4CC=C5C[C@H](CC[C@]5(C)[C@H]4CC[C@]23CN1C)N(C)C
InChI: InChI=1S/C24H40N2/c1-16-20-8-9-22-19-7-6-17-14-18(25(3)4)10-12-23(17,2)21(19)11-13-24(20,22)15-26(16)5/h6,16,18-22H,7-15H2,1-5H3/t16-,18-,19+,20+,21-,22-,23-,24-/m0/s1
Instrument: LTQ Orbitrap XL Thermo Scientific
Instrument type: LC-ESI-ITFT
Ms type: MS2
Ion mode: POSITIVE
Ionization: ESI
Fragmentation mode: HCD
Collision energy: 100 % (nominal)
Resolution: 15000
Column name: Kinetex Evo C18 2.6 um 50x2.1 mm, Phenomenex
Retention time: 5.491 min
Base peak: 179.1666
Precursor m/z: 357.3264
Precursor type: [M+H]+
m/z	relative intensity	assigned
58.065	18	C3H8N+
67.0542	170	C5H7+
69.0697	15	C5H9+
70.065	13	C4H8N+
72.0808	32	C4H10N+
77.0385	40	C6H5+
79.0542	228	C6H7+
81.0698	263	C6H9+
84.0807	999	C5H10N+
91.0542	370	C7H7+
93.0698	287	C7H9+
95.0855	115	C7H11+
98.0965	15	C6H12N+
105.0698	425	C8H9+
107.0855	100	C8H11+
109.1011	77	C8H13+
115.0544	23	C9H7+
116.0621	11	C9H8+
117.0698	147	C9H9+
119.0855	174	C9H11+
121.1012	22	C9H13+
128.062	27	C10H8+
129.0698	84	C10H9+
130.0776	44	C10H10+
131.0854	178	C10H11+
133.1009	68	C10H13+
135.1164	16	C10H15+
136.1119	18	C9H14N+
141.0699	12	C11H9+
142.0775	27	C11H10+
143.0855	60	C11H11+
144.0931	39	C11H12+
145.1011	105	C11H13+
147.1167	63	C11H15+
155.086	11	C12H11+
157.1009	45	C12H13+
159.1168	71	C12H15+
161.1326	20	C12H17+
169.1004	11	C13H13+
171.1163	20	C13H15+
173.1322	19	C13H17+
185.1322	10	C14H17+
187.1485	8	C14H19+
