Mass spectrum: Brucine; LC-ESI-ITFT; MS2; CE: 50%; R=15000; [M+H]+
Name: Brucine
Name: (-)-Brucine
Name: (4aR,5aS,8aR,15bR)-10,11-dimethoxy-4a,5,5a,7,8,13a,15,15a,15b,16-decahydro-2H-4,6-methanoindolo[3,2,1-ij]oxepino[2,3,4-de]pyrrolo[2,3-h]quinolin-14-one
Formula: C23H26N2O4
Exact mass: 394.1893
SMILES: COc1cc2c(cc1OC)N3C4[C@]25CCN6[C@H]5C[C@@H]7[C@H]4C(CC3=O)OCC=C7C6
InChI: InChI=1S/C23H26N2O4/c1-27-16-8-14-15(9-17(16)28-2)25-20(26)10-18-21-13-7-19-23(14,22(21)25)4-5-24(19)11-12(13)3-6-29-18/h3,8-9,13,18-19,21-22H,4-7,10-11H2,1-2H3/t13-,18?,19-,21-,22?,23+/m0/s1
Instrument: LTQ Orbitrap XL Thermo Scientific
Instrument type: LC-ESI-ITFT
Ms type: MS2
Ion mode: POSITIVE
Ionization: ESI
Fragmentation mode: HCD
Collision energy: 50% (nominal)
Resolution: 15000
Column name: Kinetex Evo C18 2.6 um 50 x 2.1 mm
Retention time: 5.973 min
Base peak: 395.1965
Precursor m/z: 395.1965
Precursor type: [M+H]+
m/z	relative intensity	assigned
70.0652	5	C4H8N+
108.0809	24	C7H10N+
122.0601	15	C7H8NO+
124.0757	17	C7H10NO+
178.0862	7	C10H12NO2+
190.0861	6	C11H12NO2+
213.0786	20	C13H11NO2+
216.1022	9	C13H14NO2+
227.0935	6	C14H13NO2+
228.1019	6	C14H14NO2+
229.0733	27	C13H11NO3+
243.0894	6	C14H13NO3+
244.0968	293	C14H14NO3+
251.0945	10	C16H13NO2+
254.1167	12	C16H16NO2+
256.0968	19	C15H14NO3+
258.1124	14	C15H16NO3+
260.0917	6	C14H14NO4+
263.0943	22	C17H13NO2+
267.089	30	C16H13NO3+
272.0918	6	C15H14NO4+
280.0969	28	C17H14NO3+
281.1057	8	C17H15NO3+
282.1125	128	C17H16NO3+
294.1126	20	C18H16NO3+
298.1068	9	C17H16NO4+
301.1096	7	C20H15NO2+
306.1127	8	C19H16NO3+
308.1274	7	C19H18NO3+
317.1049	4	C20H15NO3+
321.1359	15	C20H19NO3+
322.1438	42	C20H20NO3+
323.1381	8	C19H19N2O3+
324.1232	337	C19H18NO4+
332.1283	23	C21H18NO3+
335.1151	4	C20H17NO4+
338.1381	8	C20H20NO4+
349.1546	25	C21H21N2O3+
350.1388	118	C21H20NO4+
352.1429	16	C20H20N2O4+
366.1686	7	C22H24NO4+
367.1654	236	C21H23N2O4+
379.1649	5	C22H23N2O4+
380.1737	14	C22H24N2O4+
395.1965	999	C23H27N2O4+
