Mass spectrum: Genistein; LC-ESI-ITFT; MS2; CE: 15%; R=15000; [M+H]+
Name: Genistein
Name: 5,7-dihydroxy-3-(4-hydroxyphenyl)chromen-4-one
Formula: C15H10O5
Exact mass: 270.0528
SMILES: OC1=CC=C(C=C1)C1=COC2=CC(O)=CC(O)=C2C1=O
InChI: InChI=1S/C15H10O5/c16-9-3-1-8(2-4-9)11-7-20-13-6-10(17)5-12(18)14(13)15(11)19/h1-7,16-18H
Instrument: LTQ Orbitrap XL Thermo Scientific
Instrument type: LC-ESI-ITFT
Ms type: MS2
Ion mode: POSITIVE
Ionization: ESI
Fragmentation mode: CID
Collision energy: 15 % (nominal)
Resolution: 15000
Column name: Kinetex Evo C18 2.6 um 50 x 2.1 mm
Retention time: 9.882 min
Base peak: 242.1442
Precursor m/z: 271.0601
Precursor type: [M+H]+
m/z	relative intensity	assigned
149.0238	1	C8H5O3+
153.0186	4	C7H5O4+
215.0706	2	C13H11O3+
243.0658	2	C14H11O4+
253.0501	1	C15H9O4+
271.0605	999	C15H11O5+
