Mass spectrum: Echimidine N-oxide; LC-ESI-ITFT; MS2; CE: 55%; R=15000; [M+H]+
Name: Echimidine N-oxide
Name: [(7R,8R)-7-[(Z)-2-methylbut-2-enoyl]oxy-4-oxido-5,6,7,8-tetrahydro-3H-pyrrolizin-4-ium-1-yl]methyl (2R)-2,3-dihydroxy-2-[(1S)-1-hydroxyethyl]-3-methylbutanoate
Formula: C20H31NO8
Exact mass: 413.2050
SMILES: C/C=C(/C)\C(=O)O[C@@H]1CC[N+]2([C@@H]1C(=CC2)COC(=O)[C@@]([C@H](C)O)(C(C)(C)O)O)[O-]
InChI: InChI=1S/C20H31NO8/c1-6-12(2)17(23)29-15-8-10-21(27)9-7-14(16(15)21)11-28-18(24)20(26,13(3)22)19(4,5)25/h6-7,13,15-16,22,25-26H,8-11H2,1-5H3/b12-6-/t13-,15+,16+,20-,21?/m0/s1
Instrument: LTQ Orbitrap XL Thermo Scientific
Instrument type: LC-ESI-ITFT
Ms type: MS2
Ion mode: POSITIVE
Ionization: ESI
Fragmentation mode: HCD
Collision energy: 55% (nominal)
Resolution: 15000
Column name: Kinetex Evo C18 2.6 um 50 x 2.1 mm
Retention time: 6.563 min
Base peak: 414.2118
Precursor m/z: 414.2122
Precursor type: [M+H]+
m/z	relative intensity	assigned
55.0541	56	C4H7+
68.0494	9	C4H6N+
79.0542	13	C6H7+
80.0495	14	C5H6N+
81.0699	29	C6H9+
82.0653	6	C5H8N+
83.0492	221	C5H7O+
84.0445	15	C4H6NO+
91.0541	8	C7H7+
93.0573	57	C6H7N+
94.0651	46	C6H8N+
95.0729	15	C6H9N+
106.0651	71	C7H8N+
107.073	6	C7H9N+
108.0808	47	C7H10N+
109.0647	15	C7H9O+
109.0885	9	C7H11N+
110.06	6	C6H8NO+
111.0678	22	C6H9NO+
112.0757	13	C6H10NO+
118.0651	36	C8H8N+
119.0729	112	C8H9N+
120.0808	177	C8H10N+
121.0645	4	C8H9O+
121.0886	21	C8H11N+
122.0964	8	C8H12N+
124.0757	14	C7H10NO+
126.0912	5	C7H12NO+
136.0757	177	C8H10NO+
137.0835	381	C8H11NO+
138.0912	26	C8H12NO+
141.091	136	C8H13O2+
152.1071	13	C9H14NO+
154.0863	146	C8H12NO2+
172.0966	7	C8H14NO3+
174.0919	4	C11H12NO+
174.1277	15	C12H16N+
176.1076	8	C11H14NO+
182.1175	3	C10H16NO2+
190.1226	18	C12H16NO+
192.1383	29	C12H18NO+
202.1234	7	C13H16NO+
218.1175	61	C13H16NO2+
219.1253	12	C13H17NO2+
220.1332	328	C13H18NO2+
236.1282	7	C13H18NO3+
237.136	72	C13H19NO3+
238.1069	5	C12H16NO4+
252.1235	4	C13H18NO4+
254.1386	999	C13H20NO4+
296.1484	5	C15H22NO5+
310.1645	14	C16H24NO5+
314.1585	4	C15H24NO6+
338.1599	46	C17H24NO6+
352.1755	67	C18H26NO6+
356.1705	6	C17H26NO7+
396.2017	38	C20H30NO7+
414.2125	18	C20H32NO8+
