Mass spectrum: Yohimbine; LC-ESI-ITFT; MS2; CE: 105%; R=15000; [M+H]+
Name: Yohimbine
Name: methyl (1S,15R,18S,19R,20S)-18-hydroxy-1,3,11,12,14,15,16,17,18,19,20,21-dodecahydroyohimban-19-carboxylate
Formula: C21H26N2O3
Exact mass: 354.1943
SMILES: COC(=O)[C@H]1[C@H](CC[C@@H]2[C@@H]1C[C@H]3c4c(c5ccccc5[nH]4)CCN3C2)O
InChI: InChI=1S/C21H26N2O3/c1-26-21(25)19-15-10-17-20-14(13-4-2-3-5-16(13)22-20)8-9-23(17)11-12(15)6-7-18(19)24/h2-5,12,15,17-19,22,24H,6-11H2,1H3/t12-,15-,17-,18-,19+/m0/s1
Instrument: LTQ Orbitrap XL Thermo Scientific
Instrument type: LC-ESI-ITFT
Ms type: MS2
Ion mode: POSITIVE
Ionization: ESI
Fragmentation mode: HCD
Collision energy: 105% (nominal)
Resolution: 15000
Column name: Kinetex Evo C18 2.6 um 50 x 2.1 mm
Retention time: 6.517 min
Base peak: 355.2013
Precursor m/z: 355.2016
Precursor type: [M+H]+
m/z	relative intensity	assigned
67.0541	4	C5H7+
77.0385	14	C6H5+
79.0542	18	C6H7+
80.0494	11	C5H6N+
81.0699	5	C6H9+
91.0542	122	C7H7+
92.0494	4	C6H6N+
93.0573	7	C6H7N+
93.0699	4	C7H9+
94.0651	38	C6H8N+
103.0542	54	C8H7+
104.0495	5	C7H6N+
105.0448	14	C6H5N2+
105.0698	17	C8H9+
106.0651	48	C7H8N+
107.0729	5	C7H9N+
108.081	4	C7H10N+
115.0542	236	C9H7+
116.0495	26	C8H6N+
116.062	23	C9H8+
117.0573	107	C8H7N+
117.0698	430	C9H9+
118.065	30	C8H8N+
120.0808	12	C8H10N+
127.0542	29	C10H7+
128.0494	49	C9H6N+
128.062	25	C10H8+
129.0572	12	C9H7N+
129.0697	16	C10H9+
130.0651	68	C9H8N+
131.0727	11	C9H9N+
132.0807	14	C9H10N+
134.0598	5	C8H8NO+
134.0963	27	C9H12N+
142.0652	20	C10H8N+
143.0729	463	C10H9N+
144.0807	999	C10H10N+
145.0651	11	C10H9O+
146.06	8	C9H8NO+
146.0967	6	C10H12N+
154.065	12	C11H8N+
155.0604	196	C10H7N2+
155.0727	12	C11H9N+
156.081	23	C11H10N+
157.0889	8	C11H11N+
158.0963	10	C11H12N+
162.0915	4	C10H12NO+
167.073	30	C12H9N+
168.0809	26	C12H10N+
169.089	3	C12H11N+
170.0967	4	C12H12N+
180.0807	27	C13H10N+
181.0889	8	C13H11N+
182.0966	6	C13H12N+
192.0807	7	C14H10N+
193.0888	12	C14H11N+
194.0964	16	C14H12N+
204.0806	13	C15H10N+
205.0881	12	C15H11N+
206.0962	16	C15H12N+
207.1035	4	C15H13N+
208.1119	6	C15H14N+
217.0885	15	C16H11N+
218.0964	15	C16H12N+
219.1037	4	C16H13N+
220.1118	5	C16H14N+
230.0965	12	C17H12N+
231.1041	4	C17H13N+
232.1119	8	C17H14N+
244.1121	4	C18H14N+
