Mass spectrum: Lasiocarpine N-oxide; LC-ESI-ITFT; MS2; CE: 100%; R=15000; [M+H]+
Name: Lasiocarpine N-oxide
Name: [(7S,8R)-7-[(Z)-2-methylbut-2-enoyl]oxy-4-oxido-5,6,7,8-tetrahydro-3H-pyrrolizin-4-ium-1-yl]methyl (2R)-2,3-dihydroxy-2-[(1S)-1-methoxyethyl]-3-methylbutanoate
Formula: C21H33NO8
Exact mass: 427.2206
SMILES: C/C=C(/C)\C(=O)O[C@H]1CC[N+]2([C@@H]1C(=CC2)COC(=O)[C@@]([C@H](C)OC)(C(C)(C)O)O)[O-]
InChI: InChI=1S/C21H33NO8/c1-7-13(2)18(23)30-16-9-11-22(27)10-8-15(17(16)22)12-29-19(24)21(26,14(3)28-6)20(4,5)25/h7-8,14,16-17,25-26H,9-12H2,1-6H3/b13-7-/t14-,16-,17+,21-,22?/m0/s1
Instrument: LTQ Orbitrap XL Thermo Scientific
Instrument type: LC-ESI-ITFT
Ms type: MS2
Ion mode: POSITIVE
Ionization: ESI
Fragmentation mode: HCD
Collision energy: 100% (nominal)
Resolution: 15000
Column name: Kinetex Evo C18 2.6 um 50 x 2.1 mm
Retention time: 7.959 min
Base peak: 428.2273
Precursor m/z: 428.2279
Precursor type: [M+H]+
m/z	relative intensity	assigned
55.0541	74	C4H7+
59.049	21	C3H7O+
65.0385	15	C5H5+
66.0463	24	C5H6+
67.0416	37	C4H5N+
67.0542	42	C5H7+
68.0495	73	C4H6N+
77.0386	27	C6H5+
78.0338	13	C5H4N+
79.0542	96	C6H7+
80.0495	614	C5H6N+
81.0573	40	C5H7N+
81.0698	57	C6H9+
82.0414	11	C5H6O+
82.0651	44	C5H8N+
83.0491	148	C5H7O+
84.0444	45	C4H6NO+
91.0542	115	C7H7+
92.0495	67	C6H6N+
93.0573	465	C6H7N+
94.0651	999	C6H8N+
95.0491	19	C6H7O+
95.0728	18	C6H9N+
96.0441	23	C5H6NO+
96.0806	12	C6H10N+
98.0602	6	C5H8NO+
103.0541	25	C8H7+
104.0495	15	C7H6N+
105.0573	10	C7H7N+
106.0651	906	C7H8N+
107.073	20	C7H9N+
107.0857	7	C8H11+
108.044	15	C6H6NO+
108.0807	184	C7H10N+
110.06	46	C6H8NO+
111.0678	223	C6H9NO+
112.0756	15	C6H10NO+
117.0574	29	C8H7N+
118.0651	735	C8H8N+
119.0729	393	C8H9N+
120.0808	499	C8H10N+
121.0889	7	C8H11N+
124.0756	35	C7H10NO+
136.0757	260	C8H10NO+
137.0834	48	C8H11NO+
138.0912	63	C8H12NO+
154.0865	21	C8H12NO2+
172.0968	77	C8H14NO3+
