Mass spectrum: Artemisinin; LC-ESI-ITFT; MS2; CE: 60%; R=15000; [M+H]+
Name: Artemisinin
Formula: C15H22O5
Exact mass: 282.1467
SMILES: C[C@@H]1CC[C@H]2[C@@H](C)C(=O)O[C@@H]3O[C@@]4(C)CC[C@@H]1[C@@]23OO4
InChI: InChI=1S/C15H22O5/c1-8-4-5-11-9(2)12(16)17-13-15(11)10(8)6-7-14(3,18-13)19-20-15/h8-11,13H,4-7H2,1-3H3/t8-,9-,10+,11+,13-,14-,15-/m1/s1
Instrument: LTQ Orbitrap XL Thermo Scientific
Instrument type: LC-ESI-ITFT
Ms type: MS2
Ion mode: POSITIVE
Ionization: ESI
Fragmentation mode: CID
Collision energy: 60 % (nominal)
Resolution: 15000
Column name: Kinetex Evo C18 2.6 um 50 x 2.1 mm
Retention time: 11.319 min
Base peak: 283.1539
Precursor m/z: 283.154
Precursor type: [M+H]+
m/z	relative intensity	assigned
107.0857	23	C8H11+
119.0856	120	C9H11+
121.1013	33	C9H13+
125.0963	68	C8H13O+
133.1011	28	C10H13+
135.0443	29	C8H7O2+
145.1013	25	C11H13+
149.0963	63	C10H13O+
149.1327	30	C11H17+
151.112	28	C10H15O+
157.0859	69	C8H13O3+
159.1168	44	C12H15+
161.1323	26	C12H17+
173.0962	49	C12H13O+
177.1276	63	C12H17O+
179.1071	52	C11H15O2+
181.1227	30	C11H17O2+
191.1066	63	C12H15O2+
191.1436	19	C13H19O+
195.1383	61	C12H19O2+
197.1178	18	C11H17O3+
201.1273	100	C14H17O+
203.1434	29	C14H19O+
205.1223	367	C13H17O2+
209.1171	108	C12H17O3+
219.1381	166	C14H19O2+
221.1539	64	C14H21O2+
223.133	114	C13H19O3+
229.1223	124	C15H17O2+
237.1487	128	C14H21O3+
247.1329	863	C15H19O3+
255.1592	26	C14H23O4+
265.1436	999	C15H21O4+
