Mass spectrum: Formononetin; LC-ESI-ITFT; MS2; CE: 95%; R=15000; [M+H]+
Name: Formononetin
Name: 7-hydroxy-3-(4-methoxyphenyl)chromen-4-one
Formula: C16H12O4
Exact mass: 268.0736
SMILES: COc1ccc(cc1)c2coc3cc(ccc3c2=O)O
InChI: InChI=1S/C16H12O4/c1-19-12-5-2-10(3-6-12)14-9-20-15-8-11(17)4-7-13(15)16(14)18/h2-9,17H,1H3
Instrument: LTQ Orbitrap XL Thermo Scientific
Instrument type: LC-ESI-ITFT
Ms type: MS2
Ion mode: POSITIVE
Ionization: ESI
Fragmentation mode: HCD
Collision energy: 95% (nominal)
Resolution: 15000
Column name: Kinetex Evo C18 2.6 um 50 x 2.1 mm
Retention time: 10.629 min
Base peak: 116.9859
Precursor m/z: 269.0808
Precursor type: [M+H]+
m/z	relative intensity	assigned
68.997	24	C3HO2+
77.039	18	C6H5+
79.0542	36	C6H7+
81.0334	17	C5H5O+
90.0464	201	C7H6+
103.0542	25	C8H7+
107.0493	26	C7H7O+
108.0206	90	C6H4O2+
118.0413	258	C8H6O+
128.0622	58	C10H8+
129.0699	38	C10H9+
133.0648	54	C9H9O+
136.0159	43	C7H4O3+
137.0233	156	C7H5O3+
141.07	83	C11H9+
142.0776	22	C11H10+
144.0568	18	C10H8O+
152.0622	152	C12H8+
153.07	88	C12H9+
155.0499	23	C11H7O+
156.0571	74	C11H8O+
157.0646	58	C11H9O+
158.0727	27	C11H10O+
169.0648	295	C12H9O+
170.0727	176	C12H10O+
180.0565	37	C13H8O+
181.0649	249	C13H9O+
182.0732	21	C13H10O+
184.0524	20	C12H8O2+
196.052	32	C13H8O2+
197.0597	999	C13H9O2+
198.0677	96	C13H10O2+
200.0471	69	C12H8O3+
209.0595	33	C14H9O2+
213.091	25	C14H13O2+
225.0546	471	C14H9O3+
226.0623	129	C14H10O3+
237.0546	131	C15H9O3+
253.0496	185	C15H9O4+
