Mass spectrum: (+)-Chelidonine; LC-ESI-ITFT; MS2; CE: 90%; R=15000; [M+H]+
Name: (+)-Chelidonine
Name: Chelidonine
Name: (1S,12S,13R)-24-methyl-5,7,18,20-tetraoxa-24-azahexacyclo[11.11.0.02,10.04,8.014,22.017,21]tetracosa-2,4(8),9,14(22),15,17(21)-hexaen-12-ol
Formula: C20H19NO5
Exact mass: 353.1263
SMILES: CN1Cc2c(ccc3c2OCO3)[C@@H]4[C@H]1c5cc6c(cc5C[C@@H]4O)OCO6
InChI: InChI=1S/C20H19NO5/c1-21-7-13-11(2-3-15-20(13)26-9-23-15)18-14(22)4-10-5-16-17(25-8-24-16)6-12(10)19(18)21/h2-3,5-6,14,18-19,22H,4,7-9H2,1H3/t14-,18-,19+/m0/s1
Instrument: LTQ Orbitrap XL Thermo Scientific
Instrument type: LC-ESI-ITFT
Ms type: MS2
Ion mode: POSITIVE
Ionization: ESI
Fragmentation mode: HCD
Collision energy: 90% (nominal)
Resolution: 15000
Column name: Kinetex Evo C18 2.6 um 50 x 2.1 mm
Retention time: 7.008 min
Base peak: 354.1337
Precursor m/z: 354.1336
Precursor type: [M+H]+
m/z	relative intensity	assigned
77.0387	11	C6H5+
79.0543	20	C6H7+
91.0543	6	C7H7+
103.0543	27	C8H7+
105.0336	7	C7H5O+
107.0489	1	C7H7O+
115.0543	10	C9H7+
117.0571	1	C8H7N+
118.0652	19	C8H8N+
119.0494	1	C8H7O+
130.0652	7	C9H8N+
131.0493	27	C9H7O+
132.0811	1	C9H10N+
135.0442	66	C8H7O2+
143.0492	4	C10H7O+
146.0601	9	C9H8NO+
147.0443	4	C9H7O2+
148.052	5	C9H8O2+
149.06	6	C9H9O2+
158.0601	7	C10H8NO+
159.0443	12	C10H7O2+
160.0758	15	C10H10NO+
161.0598	7	C10H9O2+
162.055	1	C9H8NO2+
163.0392	40	C9H7O3+
165.07	11	C13H9+
166.0771	2	C13H10+
175.0395	2	C10H7O3+
175.0634	4	C10H9NO2+
176.0621	5	C14H8+
176.0709	3	C10H10NO2+
177.07	23	C14H9+
178.0778	36	C14H10+
179.0857	83	C14H11+
186.0551	4	C11H8NO2+
188.0707	37	C11H10NO2+
189.07	999	C15H9+
191.0855	46	C15H11+
192.0572	3	C14H8O+
193.0645	1	C14H9O+
194.0728	2	C14H10O+
201.0699	7	C16H9+
202.0784	4	C16H10+
204.057	1	C15H8O+
205.0648	37	C15H9O+
206.0731	3	C15H10O+
207.0806	54	C15H11O+
209.0595	5	C14H9O2+
217.0649	300	C16H9O+
219.0805	35	C16H11O+
220.0517	2	C15H8O2+
221.0601	2	C15H9O2+
222.0675	13	C15H10O2+
233.0597	3	C16H9O2+
234.0675	2	C16H10O2+
235.0754	29	C16H11O2+
237.091	23	C16H13O2+
245.0599	11	C17H9O2+
246.0676	57	C17H10O2+
247.0755	228	C17H11O2+
263.0695	3	C17H11O3+
265.0865	5	C17H13O3+
275.0704	65	C18H11O3+
