Mass spectrum: Bergapten/Heraclin; LC-ESI-ITFT; MS2; CE: 100%; R=15000; [M+H]+
Name: Bergapten/Heraclin
Formula: C12H8O4
Exact mass: 216.0423
SMILES: COC1=C2C=COC2=CC2=C1C=CC(=O)O2
InChI: InChI=1S/C12H8O4/c1-14-12-7-2-3-11(13)16-10(7)6-9-8(12)4-5-15-9/h2-6H,1H3
Instrument: LTQ Orbitrap XL Thermo Scientific
Instrument type: LC-ESI-ITFT
Ms type: MS2
Ion mode: POSITIVE
Ionization: ESI
Fragmentation mode: HCD
Collision energy: 100 % (nominal)
Resolution: 15000
Column name: Kinetex Evo C18 2.6 um 50 x 2.1 mm
Retention time: 9.922 min
Base peak: 416.3517
Precursor m/z: 217.0495
Precursor type: [M+H]+
m/z	relative intensity	assigned
63.0228	4	C5H3+
74.0151	18	C6H2+
76.0308	8	C6H4+
77.0022	3	C5HO+
77.0386	37	C6H5+
79.0542	12	C6H7+
82.0051	4	C4H2O2+
89.0386	309	C7H5+
90.0464	776	C7H6+
91.0541	22	C7H7+
92.0256	41	C6H4O+
100.0307	76	C8H4+
102.0464	98	C8H6+
103.0542	38	C8H7+
105.0336	11	C7H5O+
105.0699	23	C8H9+
115.0543	125	C9H7+
117.0336	19	C8H5O+
118.0413	999	C8H6O+
119.0127	10	C7H3O2+
120.0206	18	C7H4O2+
128.0257	31	C9H4O+
129.0335	36	C9H5O+
130.0413	16	C9H6O+
131.0491	129	C9H7O+
132.0205	3	C8H4O2+
133.0646	4	C9H9O+
145.0284	167	C9H5O2+
146.0362	561	C9H6O2+
156.0207	110	C10H4O2+
158.0366	9	C10H6O2+
173.0234	35	C10H5O3+
174.0312	853	C10H6O3+
202.0261	345	C11H6O4+
