Mass spectrum: (+)-Lupanine; LC-ESI-ITFT; MS2; CE: 65%; R=15000; [M+H]+
Name: (+)-Lupanine
Formula: C15H24N2O
Exact mass: 248.1889
SMILES: C1CCN2CC3CC(C2C1)CN4C3CCCC4=O
InChI: InChI=1S/C15H24N2O/c18-15-6-3-5-14-11-8-12(10-17(14)15)13-4-1-2-7-16(13)9-11/h11-14H,1-10H2
Instrument: LTQ Orbitrap XL Thermo Scientific
Instrument type: LC-ESI-ITFT
Ms type: MS2
Ion mode: POSITIVE
Ionization: ESI
Fragmentation mode: CID
Collision energy: 65 % (nominal)
Resolution: 15000
Column name: Kinetex Evo C18 2.6 um 50 x 2.1 mm
Retention time: 0.491 min
Base peak: 249.1956
Precursor m/z: 249.1961
Precursor type: [M+H]+
m/z	relative intensity	assigned
70.0651	5	C4H8N+
79.0542	10	C6H7+
80.0495	34	C5H6N+
81.0698	2	C6H9+
82.0651	7	C5H8N+
84.0808	26	C5H10N+
85.0648	7	C5H9O+
91.0542	24	C7H7+
93.0699	8	C7H9+
94.0651	23	C6H8N+
95.0857	2	C7H11+
96.0808	88	C6H10N+
98.06	9	C5H8NO+
98.0964	100	C6H12N+
100.0757	5	C5H10NO+
105.0699	31	C8H9+
107.0855	9	C8H11+
108.0808	27	C7H10N+
109.0886	4	C7H11N+
109.1013	3	C8H13+
110.0599	4	C6H8NO+
110.0965	14	C7H12N+
112.0757	63	C6H10NO+
112.1121	8	C7H14N+
114.0913	284	C6H12NO+
117.0697	4	C9H9+
119.0858	5	C9H11+
120.0808	8	C8H10N+
121.1011	5	C9H13+
122.0964	55	C8H12N+
124.0758	13	C7H10NO+
124.1122	26	C8H14N+
131.0854	10	C10H11+
133.1013	21	C10H13+
134.0965	153	C9H12N+
135.1044	7	C9H13N+
136.1121	999	C9H14N+
138.0913	12	C8H12NO+
138.128	17	C9H16N+
140.1071	2	C8H14NO+
141.0699	6	C11H9+
143.0857	6	C11H11+
145.1011	9	C11H13+
146.0966	2	C10H12N+
148.0758	15	C9H10NO+
148.1122	73	C10H14N+
150.0915	20	C9H12NO+
150.1278	344	C10H16N+
152.1071	65	C9H14NO+
152.1434	47	C10H18N+
155.0858	3	C12H11+
157.1012	3	C12H13+
159.1171	12	C12H15+
162.0914	11	C10H12NO+
162.1277	20	C11H16N+
164.1073	16	C10H14NO+
166.1227	44	C10H16NO+
169.1016	4	C13H13+
173.1328	2	C13H17+
174.1278	38	C12H16N+
176.1071	13	C11H14NO+
176.1435	50	C12H18N+
178.1227	12	C11H16NO+
183.1163	5	C14H15+
186.1277	6	C13H16N+
187.1118	8	C13H15O+
188.1436	16	C13H18N+
189.1387	81	C12H17N2+
190.1232	2	C12H16NO+
190.147	4	C12H18N2+
190.159	15	C13H20N+
193.1334	2	C11H17N2O+
193.1705	2	C12H21N2+
200.1434	12	C14H18N+
202.1224	3	C13H16NO+
204.1383	154	C13H18NO+
206.1539	31	C13H20NO+
207.1499	2	C12H19N2O+
214.1586	4	C15H20N+
218.154	41	C14H20NO+
220.1697	6	C14H22NO+
229.1703	6	C15H21N2+
231.1855	374	C15H23N2+
232.1693	7	C15H22NO+
