Mass spectrum: alpha-Cyperone; LC-ESI-ITFT; MS2; CE: 80%; R=15000; [M+H]+
Name: alpha-Cyperone
Formula: C15H22O
Exact mass: 218.1671
SMILES: CC1=C2CC(CCC2(CCC1=O)C)C(=C)C
InChI: InChI=1S/C15H22O/c1-10(2)12-5-7-15(4)8-6-14(16)11(3)13(15)9-12/h12H,1,5-9H2,2-4H3
Instrument: LTQ Orbitrap XL Thermo Scientific
Instrument type: LC-ESI-ITFT
Ms type: MS2
Ion mode: POSITIVE
Ionization: ESI
Fragmentation mode: HCD
Collision energy: 80 % (nominal)
Resolution: 15000
Column name: Kinetex Evo C18 2.6 um 50 x 2.1 mm
Retention time: 13.126 min
Base peak: 219.174
Precursor m/z: 219.1743
Precursor type: [M+H]+
m/z	relative intensity	assigned
55.0541	16	C4H7+
67.0542	157	C5H7+
69.0334	8	C4H5O+
69.0698	33	C5H9+
77.0386	38	C6H5+
79.0542	117	C6H7+
81.0698	220	C6H9+
83.0492	8	C5H7O+
83.0854	25	C6H11+
91.0542	131	C7H7+
93.0698	232	C7H9+
95.049	15	C6H7O+
95.0855	175	C7H11+
97.0647	233	C6H9O+
105.0698	149	C8H9+
107.0494	6	C7H7O+
107.0855	136	C8H11+
108.0565	4	C7H8O+
109.0648	30	C7H9O+
109.1011	136	C8H13+
111.0804	999	C7H11O+
117.0699	33	C9H9+
119.0855	126	C9H11+
121.0647	34	C8H9O+
121.1011	58	C9H13+
122.0725	10	C8H10O+
123.0804	340	C8H11O+
125.0958	7	C8H13O+
129.0696	10	C10H9+
130.0778	13	C10H10+
131.0854	43	C10H11+
133.1012	31	C10H13+
135.0804	81	C9H11O+
135.1168	23	C10H15+
136.0885	13	C9H12O+
137.096	197	C9H13O+
138.1039	30	C9H14O+
143.0855	25	C11H11+
144.0935	12	C11H12+
145.1011	71	C11H13+
147.0803	11	C10H11O+
147.117	30	C11H15+
148.0881	8	C10H12O+
149.096	24	C10H13O+
150.1039	9	C10H14O+
157.1007	5	C12H13+
159.1168	19	C12H15+
161.0962	49	C11H13O+
162.1041	13	C11H14O+
163.1117	78	C11H15O+
164.1191	5	C11H16O+
173.1327	8	C13H17+
175.1126	5	C12H15O+
176.1195	17	C12H16O+
177.1272	5	C12H17O+
189.1277	31	C13H17O+
219.1741	7	C15H23O+
