Mass spectrum: 4-Hydroxycoumarin; LC-ESI-ITFT; MS2; CE: 140%; R=15000; [M+H]+
Name: 4-Hydroxycoumarin
Name: 4-hydroxychromen-2-one
Formula: C9H6O3
Exact mass: 162.0317
SMILES: OC1=CC(=O)OC2=CC=CC=C12
InChI: InChI=1S/C9H6O3/c10-7-5-9(11)12-8-4-2-1-3-6(7)8/h1-5,10H
Instrument: LTQ Orbitrap XL Thermo Scientific
Instrument type: LC-ESI-ITFT
Ms type: MS2
Ion mode: POSITIVE
Ionization: ESI
Fragmentation mode: HCD
Collision energy: 140 % (nominal)
Resolution: 15000
Column name: Kinetex Evo C18 2.6 um 50 x 2.1 mm
Retention time: 8.021 min
Base peak: 163.0392
Precursor m/z: 163.039
Precursor type: [M+H]+
m/z	relative intensity	assigned
75.0227	98	C6H3+
77.0383	999	C6H5+
79.054	243	C6H7+
89.0384	318	C7H5+
91.0541	567	C7H7+
93.0334	378	C6H5O+
94.0412	7	C6H6O+
95.049	295	C6H7O+
101.0384	13	C8H5+
105.0446	625	C6H5N2+
107.0488	13	C7H7O+
111.0439	111	C6H7O2+
113.0387	8	C9H5+
121.0283	713	C7H5O2+
121.0395	692	C6H5N2O+
129.0446	28	C8H5N2+
