Mass spectrum: Galantamine; LC-ESI-ITFT; MS2; CE: 60%; R=15000; [M+H]+
Name: Galantamine
Formula: C17H21NO3
Exact mass: 287.1521
SMILES: CN1CCC23C=CC(CC2OC4=C(C=CC(=C34)C1)OC)O
InChI: InChI=1S/C17H21NO3/c1-18-8-7-17-6-5-12(19)9-14(17)21-16-13(20-2)4-3-11(10-18)15(16)17/h3-6,12,14,19H,7-10H2,1-2H3
Instrument: LTQ Orbitrap XL Thermo Scientific
Instrument type: LC-ESI-ITFT
Ms type: MS2
Ion mode: POSITIVE
Ionization: ESI
Fragmentation mode: CID
Collision energy: 60 % (nominal)
Resolution: 15000
Column name: Kinetex Evo C18 2.6 um 50 x 2.1 mm
Retention time: 0.583 min
Base peak: 235.2167
Precursor m/z: 288.1594
Precursor type: [M+H]+
m/z	relative intensity	assigned
109.065	3	C7H9O+
132.0809	3	C9H10N+
133.089	5	C9H11N+
134.0968	8	C9H12N+
137.0599	5	C8H9O2+
150.0919	8	C9H12NO+
151.0995	33	C9H13NO+
175.0758	5	C11H11O2+
179.0859	10	C14H11+
181.1013	3	C14H13+
189.0916	4	C12H13O2+
197.0965	107	C14H13O+
199.0758	57	C13H11O2+
203.1071	12	C13H15O2+
207.0809	16	C15H11O+
209.0966	82	C15H13O+
210.0681	3	C14H10O2+
211.0757	1	C14H11O2+
211.1122	3	C15H15O+
213.0915	337	C14H13O2+
216.0781	1	C13H12O3+
216.1019	3	C13H14NO2+
220.1125	5	C16H14N+
221.0966	4	C16H13O+
223.0981	1	C15H13NO+
225.0915	756	C15H13O2+
227.1072	5	C15H15O2+
230.1184	1	C14H16NO2+
231.102	755	C14H15O3+
238.123	5	C16H16NO+
239.107	25	C16H15O2+
241.1228	6	C16H17O2+
242.0947	4	C15H14O3+
245.1177	13	C15H17O3+
252.1394	1	C17H18NO+
253.1231	10	C17H17O2+
255.1259	11	C16H17NO2+
256.1334	1	C16H18NO2+
257.1178	53	C16H17O3+
270.1494	999	C17H20NO2+
273.1358	2	C16H19NO3+
