Mass spectrum: Senkirkine; LC-ESI-ITFT; MS2; CE: 35%; R=15000; [M+H]+
Name: Senkirkine
Name: (1R,4Z,6R,7R,11Z)-4-ethylidene-7-hydroxy-6,7,14-trimethyl-2,9-dioxa-14-azabicyclo[9.5.1]heptadec-11-ene-3,8,17-trione
Formula: C19H27NO6
Exact mass: 365.1838
SMILES: C/C=C\1/C[C@H]([C@@](C(=O)OC/C/2=C/CN(CC[C@H](C2=O)OC1=O)C)(C)O)C
InChI: InChI=1S/C19H27NO6/c1-5-13-10-12(2)19(3,24)18(23)25-11-14-6-8-20(4)9-7-15(16(14)21)26-17(13)22/h5-6,12,15,24H,7-11H2,1-4H3/b13-5-,14-6-/t12-,15-,19-/m1/s1
Instrument: LTQ Orbitrap XL Thermo Scientific
Instrument type: LC-ESI-ITFT
Ms type: MS2
Ion mode: POSITIVE
Ionization: ESI
Fragmentation mode: HCD
Collision energy: 35% (nominal)
Resolution: 15000
Column name: Kinetex Evo C18 2.6 um 50 x 2.1 mm
Retention time: 6.344 min
Base peak: 366.1909
Precursor m/z: 366.1911
Precursor type: [M+H]+
m/z	relative intensity	assigned
70.065	1	C4H8N+
79.0543	1	C6H7+
81.0701	1	C6H9+
83.0492	2	C5H7O+
94.0653	1	C6H8N+
101.0597	3	C5H9O2+
107.0491	9	C7H7O+
107.0856	6	C8H11+
109.1013	3	C8H13+
116.0707	3	C5H10NO2+
120.0807	1	C8H10N+
122.0601	17	C7H8NO+
122.0965	6	C8H12N+
124.0757	5	C7H10NO+
125.0597	7	C7H9O2+
125.0961	7	C8H13O+
135.0804	11	C9H11O+
137.0959	3	C9H13O+
140.1069	2	C8H14NO+
150.0913	73	C9H12NO+
153.091	39	C9H13O2+
163.075	1	C10H11O2+
168.1019	183	C9H14NO2+
181.0858	5	C10H13O3+
186.1127	1	C9H16NO3+
199.0964	2	C10H15O4+
268.1541	2	C14H22NO4+
304.1909	2	C18H26NO3+
320.1853	2	C18H26NO4+
338.196	8	C18H28NO5+
348.1807	6	C19H26NO5+
366.191	999	C19H28NO6+
