Mass spectrum: Jacobine N-oxide; LC-ESI-ITFT; MS2; CE: 60%; R=15000; [M+H]+
Name: Jacobine N-oxide
Name: (1R,3`S,4S,6R,7R,17R)-7-hydroxy-3`,6,7-trimethyl-14-oxidospiro[2,9-dioxa-14-azoniatricyclo[9.5.1.014,17]heptadec-11-ene-4,2`-oxirane]-3,8-dione
Formula: C18H25NO7
Exact mass: 367.1631
SMILES: C[C@@H]1C[C@]2([C@@H](O2)C)C(=O)O[C@@H]3CC[N+]4([C@@H]3C(=CC4)COC(=O)[C@]1(C)O)[O-]
InChI: InChI=1S/C18H25NO7/c1-10-8-18(11(2)26-18)16(21)25-13-5-7-19(23)6-4-12(14(13)19)9-24-15(20)17(10,3)22/h4,10-11,13-14,22H,5-9H2,1-3H3/t10-,11+,13-,14-,17-,18+,19?/m1/s1
Instrument: LTQ Orbitrap XL Thermo Scientific
Instrument type: LC-ESI-ITFT
Ms type: MS2
Ion mode: POSITIVE
Ionization: ESI
Fragmentation mode: HCD
Collision energy: 60% (nominal)
Resolution: 15000
Column name: Kinetex Evo C18 2.6 um 50 x 2.1 mm
Retention time: 1.283 min
Base peak: 368.1701
Precursor m/z: 368.1704
Precursor type: [M+H]+
m/z	relative intensity	assigned
67.0541	24	C5H7+
68.0494	16	C4H6N+
69.0698	7	C5H9+
77.0385	58	C6H5+
79.0542	54	C6H7+
80.0495	92	C5H6N+
81.0573	12	C5H7N+
81.0699	24	C6H9+
82.0652	29	C5H8N+
84.0445	13	C4H6NO+
86.0601	10	C4H8NO+
91.0543	94	C7H7+
92.0494	15	C6H6N+
93.0573	156	C6H7N+
93.0699	77	C7H9+
94.0651	198	C6H8N+
95.0491	22	C6H7O+
95.073	175	C6H9N+
96.0443	11	C5H6NO+
96.0809	36	C6H10N+
97.0648	14	C6H9O+
98.0599	13	C5H8NO+
103.0542	13	C8H7+
105.0698	17	C8H9+
106.0651	115	C7H8N+
108.0808	71	C7H10N+
109.0886	21	C7H11N+
110.06	30	C6H8NO+
110.0964	23	C7H12N+
111.068	14	C6H9NO+
112.0754	11	C6H10NO+
113.0597	103	C6H9O2+
118.0651	221	C8H8N+
119.073	235	C8H9N+
120.0808	999	C8H10N+
121.0886	213	C8H11N+
122.0964	165	C8H12N+
124.0757	34	C7H10NO+
134.0968	12	C9H12N+
136.0757	105	C8H10NO+
137.0835	14	C8H11NO+
138.0913	115	C8H12NO+
139.0991	93	C8H13NO+
140.107	21	C8H14NO+
141.0544	7	C7H9O3+
146.0962	9	C10H12N+
148.0759	9	C9H10NO+
150.0915	7	C9H12NO+
152.107	13	C9H14NO+
154.0864	30	C8H12NO2+
156.1019	59	C8H14NO2+
157.0865	8	C8H13O3+
162.0915	41	C10H12NO+
163.0991	25	C10H13NO+
174.1276	21	C12H16N+
190.1227	71	C12H16NO+
192.0657	26	C10H10NO3+
192.1023	12	C11H14NO2+
218.1181	6	C13H16NO2+
232.1335	20	C14H18NO2+
268.1542	33	C14H22NO4+
278.1389	25	C15H20NO4+
296.1494	241	C15H22NO5+
368.1702	35	C18H26NO7+
