Mass spectrum: Citrinin; LC-ESI-ITFT; MS2; CE: 80%; R=15000; [M+H]+
Name: Citrinin
Formula: C13H14O5
Exact mass: 250.0841
SMILES: C[C@H]1OC=C2C(O)=C(C(O)=O)C(=O)C(C)=C2[C@@H]1C
InChI: InChI=1S/C13H14O5/c1-5-7(3)18-4-8-9(5)6(2)11(14)10(12(8)15)13(16)17/h4-5,7,15H,1-3H3,(H,16,17)/t5-,7-/m1/s1
Instrument: LTQ Orbitrap XL Thermo Scientific
Instrument type: LC-ESI-ITFT
Ms type: MS2
Ion mode: POSITIVE
Ionization: ESI
Fragmentation mode: HCD
Collision energy: 80 % (nominal)
Resolution: 15000
Column name: Kinetex Evo C18 2.6 um 50 x 2.1 mm
Retention time: 11.909 min
Base peak: 251.0912
Precursor m/z: 251.0914
Precursor type: [M+H]+
m/z	relative intensity	assigned
65.0384	16	C5H5+
67.0541	111	C5H7+
68.9971	40	C3HO2+
77.0386	81	C6H5+
79.0178	58	C5H3O+
79.0542	172	C6H7+
81.0698	26	C6H9+
83.0128	20	C4H3O2+
83.0495	13	C5H7O+
91.0542	770	C7H7+
93.0334	12	C6H5O+
93.0698	167	C7H9+
95.0493	38	C6H7O+
95.0855	375	C7H11+
103.0541	54	C8H7+
105.0698	224	C8H9+
107.0127	109	C6H3O2+
107.0491	363	C7H7O+
107.0854	260	C8H11+
109.0647	44	C7H9O+
109.101	63	C8H13+
115.0542	132	C9H7+
116.062	169	C9H8+
117.0698	134	C9H9+
119.0491	68	C8H7O+
119.0855	781	C9H11+
120.0568	31	C8H8O+
121.0284	12	C7H5O2+
121.0647	101	C8H9O+
121.1012	37	C9H13+
122.0726	34	C8H10O+
123.0803	141	C8H11O+
128.0619	64	C10H8+
129.0697	92	C10H9+
131.0491	29	C9H7O+
131.0855	445	C10H11+
132.0568	29	C9H8O+
133.0647	54	C9H9O+
134.0727	52	C9H10O+
135.044	77	C8H7O2+
135.0804	193	C9H11O+
137.096	233	C9H13O+
141.0698	130	C11H9+
144.0569	152	C10H8O+
145.0283	29	C9H5O2+
145.0648	68	C10H9O+
147.0439	96	C9H7O2+
147.0804	407	C10H11O+
148.0519	91	C9H8O2+
149.023	21	C8H5O3+
149.0596	63	C9H9O2+
149.0961	79	C10H13O+
157.0644	15	C11H9O+
159.0805	239	C11H11O+
161.0596	60	C10H9O2+
162.0676	250	C10H10O2+
163.039	81	C9H7O3+
163.0754	125	C10H11O2+
165.0913	13	C10H13O2+
169.0647	148	C12H9O+
172.0518	75	C11H8O2+
173.0592	15	C11H9O2+
175.039	170	C10H7O3+
176.0468	46	C10H8O3+
177.0181	138	C9H5O4+
177.0545	41	C10H9O3+
177.091	57	C11H13O2+
185.0597	50	C12H9O2+
187.0754	159	C12H11O2+
189.0545	70	C11H9O3+
190.0625	175	C11H10O3+
191.0336	36	C10H7O4+
191.0702	411	C11H11O3+
195.0286	33	C9H7O5+
200.0466	28	C12H8O3+
203.0338	385	C11H7O4+
203.07	60	C12H11O3+
204.0416	127	C11H8O4+
205.0858	999	C12H13O3+
209.0805	47	C11H13O4+
215.0702	247	C13H11O3+
218.0573	130	C12H10O4+
231.0653	12	C13H11O4+
233.0806	796	C13H13O4+
251.0902	22	C13H15O5+
