Mass spectrum: Pilocarpine; LC-ESI-ITFT; MS2; CE: 90%; R=15000; [M+H]+
Name: Pilocarpine
Name: (3S,4R)-3-ethyl-4-[(3-methylimidazol-4-yl)methyl]oxolan-2-one
Formula: C11H16N2O2
Exact mass: 208.1212
SMILES: CC[C@H]1[C@H](COC1=O)Cc2cncn2C
InChI: InChI=1S/C11H16N2O2/c1-3-10-8(6-15-11(10)14)4-9-5-12-7-13(9)2/h5,7-8,10H,3-4,6H2,1-2H3/t8-,10-/m0/s1
Instrument: LTQ Orbitrap XL Thermo Scientific
Instrument type: LC-ESI-ITFT
Ms type: MS2
Ion mode: POSITIVE
Ionization: ESI
Fragmentation mode: HCD
Collision energy: 90% (nominal)
Resolution: 15000
Column name: Kinetex Evo C18 2.6 um 50 x 2.1 mm
Retention time: 0.620 min
Base peak: 209.1282
Precursor m/z: 209.1285
Precursor type: [M+H]+
m/z	relative intensity	assigned
68.0495	23	C4H6N+
80.0495	10	C5H6N+
81.0447	14	C4H5N2+
81.0574	8	C5H7N+
81.0699	5	C6H9+
83.0605	15	C4H7N2+
94.0652	33	C6H8N+
95.0605	574	C5H7N2+
96.0683	999	C5H8N2+
97.0761	17	C5H9N2+
105.0701	5	C8H9+
107.0606	7	C6H7N2+
107.073	13	C7H9N+
108.0808	5	C7H10N+
109.0761	43	C6H9N2+
121.0761	107	C7H9N2+
122.0839	25	C7H10N2+
122.0964	18	C8H12N+
123.0918	47	C7H11N2+
133.076	26	C8H9N2+
134.084	16	C8H10N2+
135.0917	44	C8H11N2+
136.1119	7	C9H14N+
139.0865	4	C7H11N2O+
147.0919	21	C9H11N2+
148.0995	10	C9H12N2+
149.1074	7	C9H13N2+
151.1232	19	C9H15N2+
163.1232	60	C10H15N2+
209.1284	73	C11H17N2O2+
