Mass spectrum: alpha-Cyperone; LC-ESI-ITFT; MS2; CE: 70%; R=15000; [M+H]+
Name: alpha-Cyperone
Formula: C15H22O
Exact mass: 218.1671
SMILES: CC1=C2CC(CCC2(CCC1=O)C)C(=C)C
InChI: InChI=1S/C15H22O/c1-10(2)12-5-7-15(4)8-6-14(16)11(3)13(15)9-12/h12H,1,5-9H2,2-4H3
Instrument: LTQ Orbitrap XL Thermo Scientific
Instrument type: LC-ESI-ITFT
Ms type: MS2
Ion mode: POSITIVE
Ionization: ESI
Fragmentation mode: HCD
Collision energy: 70 % (nominal)
Resolution: 15000
Column name: Kinetex Evo C18 2.6 um 50 x 2.1 mm
Retention time: 13.126 min
Base peak: 219.174
Precursor m/z: 219.1743
Precursor type: [M+H]+
m/z	relative intensity	assigned
55.0541	24	C4H7+
67.0541	142	C5H7+
69.0334	7	C4H5O+
69.0698	38	C5H9+
77.0386	22	C6H5+
79.0542	93	C6H7+
81.0698	229	C6H9+
83.0492	8	C5H7O+
83.0855	21	C6H11+
91.0541	80	C7H7+
93.0698	188	C7H9+
95.0855	179	C7H11+
97.0647	268	C6H9O+
105.0698	123	C8H9+
107.0855	129	C8H11+
109.0647	29	C7H9O+
109.1011	208	C8H13+
111.0804	999	C7H11O+
117.0698	23	C9H9+
119.0855	146	C9H11+
121.0647	34	C8H9O+
121.1011	87	C9H13+
122.0723	5	C8H10O+
123.0804	370	C8H11O+
123.1168	26	C9H15+
124.088	4	C8H12O+
125.096	11	C8H13O+
130.0774	7	C10H10+
131.0855	37	C10H11+
133.1011	35	C10H13+
135.0804	94	C9H11O+
135.1168	50	C10H15+
136.0882	7	C9H12O+
137.096	231	C9H13O+
138.1039	40	C9H14O+
143.0855	12	C11H11+
145.1011	86	C11H13+
147.0804	6	C10H11O+
147.1168	59	C11H15+
148.088	6	C10H12O+
149.0962	36	C10H13O+
150.1043	11	C10H14O+
151.1117	7	C10H15O+
159.1168	35	C12H15+
161.0962	37	C11H13O+
161.1322	11	C12H17+
162.1039	12	C11H14O+
163.1118	136	C11H15O+
173.1319	9	C13H17+
175.1124	6	C12H15O+
175.1487	5	C13H19+
176.1195	24	C12H16O+
177.1272	13	C12H17O+
189.1274	26	C13H17O+
201.1634	7	C15H21+
204.1505	15	C14H20O+
219.174	25	C15H23O+
