Mass spectrum: Anabasine; LC-ESI-ITFT; MS2; CE: 25%; R=15000; [M+H]+
Name: Anabasine
Formula: C10H14N2
Exact mass: 162.1157
SMILES: C1CCC(NC1)C1=CC=CN=C1
InChI: InChI=1S/C10H14N2/c1-2-7-12-10(5-1)9-4-3-6-11-8-9/h3-4,6,8,10,12H,1-2,5,7H2
Instrument: LTQ Orbitrap XL Thermo Scientific
Instrument type: LC-ESI-ITFT
Ms type: MS2
Ion mode: POSITIVE
Ionization: ESI
Fragmentation mode: HCD
Collision energy: 25 % (nominal)
Resolution: 15000
Column name: Kinetex Evo C18 2.6 um 50x2.1 mm, Phenomenex
Retention time: 0.423 min
Base peak: 233.2012
Precursor m/z: 163.123
Precursor type: [M+H]+
m/z	relative intensity	assigned
94.065	4	C6H8N+
120.0805	4	C8H10N+
146.096	14	C10H12N+
163.1227	999	C10H15N2+
