Mass spectrum: Jervine; LC-ESI-ITFT; MS2; CE: 45%; R=15000; [M+H]+
Name: Jervine
Name: (3S,3`R,3`aS,6`S,6aS,6bS,7`aR,9R,11aS,11bR)-3-hydroxy-3`,6`,10,11b-tetramethylspiro[1,2,3,4,6,6a,6b,7,8,11a-decahydrobenzo[a]fluorene-9,2`-3a,4,5,6,7,7a-hexahydro-3H-furo[3,2-b]pyridine]-11-one
Formula: C27H39NO3
Exact mass: 425.2930
SMILES: C[C@H]1C[C@@H]2[C@H]([C@H]([C@]3(O2)CC[C@H]4[C@@H]5CC=C6C[C@H](CC[C@@]6([C@H]5C(=O)C4=C3C)C)O)C)NC1
InChI: InChI=1S/C27H39NO3/c1-14-11-21-24(28-13-14)16(3)27(31-21)10-8-19-20-6-5-17-12-18(29)7-9-26(17,4)23(20)25(30)22(19)15(27)2/h5,14,16,18-21,23-24,28-29H,6-13H2,1-4H3/t14-,16+,18-,19-,20-,21+,23+,24-,26-,27-/m0/s1
Instrument: LTQ Orbitrap XL Thermo Scientific
Instrument type: LC-ESI-ITFT
Ms type: MS2
Ion mode: POSITIVE
Ionization: ESI
Fragmentation mode: HCD
Collision energy: 45% (nominal)
Resolution: 15000
Column name: Kinetex Evo C18 2.6 um 50 x 2.1 mm
Retention time: 8.928 min
Base peak: 426.3
Precursor m/z: 426.3003
Precursor type: [M+H]+
m/z	relative intensity	assigned
57.0698	4	C4H9+
67.0541	77	C5H7+
70.065	20	C4H8N+
79.0542	6	C6H7+
81.0699	78	C6H9+
82.0653	3	C5H8N+
83.0492	27	C5H7O+
84.0808	209	C5H10N+
85.0648	80	C5H9O+
91.0543	7	C7H7+
93.0699	24	C7H9+
95.0855	26	C7H11+
96.0807	25	C6H10N+
97.0648	6	C6H9O+
98.0964	39	C6H12N+
99.0805	8	C6H11O+
100.0757	20	C5H10NO+
101.0599	6	C5H9O2+
102.0913	83	C5H12NO+
105.0698	35	C8H9+
107.0855	46	C8H11+
109.1011	513	C8H13+
111.0804	5	C7H11O+
112.0757	47	C6H10NO+
113.0833	3	C6H11NO+
114.0913	645	C6H12NO+
117.0699	5	C9H9+
119.0855	28	C9H11+
121.1011	58	C9H13+
123.0806	5	C8H11O+
123.1167	8	C9H15+
124.112	17	C8H14N+
125.096	10	C8H13O+
126.1277	138	C8H16N+
129.0697	5	C10H9+
131.0855	22	C10H11+
133.1011	35	C10H13+
135.0808	6	C9H11O+
135.1168	11	C10H15+
137.0961	4	C9H13O+
140.107	18	C8H14NO+
143.0856	11	C11H11+
145.1012	115	C11H13+
147.0803	11	C10H11O+
147.1167	52	C11H15+
149.0961	109	C10H13O+
151.1115	8	C10H15O+
152.1435	3	C10H18N+
155.0855	5	C12H11+
157.1011	46	C12H13+
159.1168	34	C12H15+
161.0959	6	C11H13O+
161.1326	8	C12H17+
163.1118	12	C11H15O+
169.1013	9	C13H13+
171.1167	23	C13H15+
173.096	22	C12H13O+
173.1324	17	C13H17+
175.1117	51	C12H15O+
183.1169	11	C14H15+
185.0958	3	C13H13O+
185.1321	14	C14H17+
187.1118	14	C13H15O+
187.1483	3	C14H19+
189.1275	15	C13H17O+
195.1168	13	C15H15+
197.1327	12	C15H17+
199.1114	5	C14H15O+
199.1482	29	C15H19+
201.1272	7	C14H17O+
201.1639	9	C15H21+
207.1168	4	C16H15+
209.1325	16	C16H17+
211.1111	7	C15H15O+
211.1479	16	C16H19+
213.1272	11	C15H17O+
213.1639	27	C16H21+
215.1424	3	C15H19O+
221.1328	9	C17H17+
223.1475	6	C17H19+
225.1275	4	C16H17O+
225.1628	4	C17H21+
227.1425	8	C16H19O+
229.1589	5	C16H21O+
235.1482	11	C18H19+
237.1636	13	C18H21+
249.1644	8	C19H21+
253.1588	18	C18H21O+
255.1746	4	C18H23O+
263.1806	3	C20H23+
265.1947	12	C20H25+
275.1796	14	C21H23+
277.1949	22	C21H25+
283.206	6	C20H27O+
289.1948	7	C22H25+
293.1901	25	C21H25O+
295.2056	48	C21H27O+
311.2006	26	C21H27O2+
313.2162	251	C21H29O2+
325.2164	7	C22H29O2+
335.2005	10	C23H27O2+
336.2087	7	C23H28O2+
345.2588	3	C26H33+
349.2163	13	C24H29O2+
351.2328	7	C24H31O2+
379.2631	14	C26H35O2+
391.2636	23	C27H35O2+
408.2895	47	C27H38NO2+
426.3	999	C27H40NO3+
