Mass spectrum: (+)-Lupanine; LC-ESI-ITFT; MS2; CE: 120%; R=15000; [M+H]+
Name: (+)-Lupanine
Formula: C15H24N2O
Exact mass: 248.1889
SMILES: C1CCN2CC3CC(C2C1)CN4C3CCCC4=O
InChI: InChI=1S/C15H24N2O/c18-15-6-3-5-14-11-8-12(10-17(14)15)13-4-1-2-7-16(13)9-11/h11-14H,1-10H2
Instrument: LTQ Orbitrap XL Thermo Scientific
Instrument type: LC-ESI-ITFT
Ms type: MS2
Ion mode: POSITIVE
Ionization: ESI
Fragmentation mode: HCD
Collision energy: 120 % (nominal)
Resolution: 15000
Column name: Kinetex Evo C18 2.6 um 50 x 2.1 mm
Retention time: 0.596 min
Base peak: 235.2168
Precursor m/z: 249.1961
Precursor type: [M+H]+
m/z	relative intensity	assigned
67.0542	253	C5H7+
68.0493	53	C4H6N+
69.07	24	C5H9+
70.0651	602	C4H8N+
77.0386	52	C6H5+
79.0542	218	C6H7+
80.0495	213	C5H6N+
81.0572	22	C5H7N+
81.0699	134	C6H9+
82.0651	207	C5H8N+
84.0808	999	C5H10N+
85.0648	108	C5H9O+
91.0542	190	C7H7+
93.0575	27	C6H7N+
93.0699	125	C7H9+
94.0651	185	C6H8N+
95.0729	37	C6H9N+
95.0855	80	C7H11+
96.0808	268	C6H10N+
98.0601	83	C5H8NO+
98.0964	763	C6H12N+
100.0761	27	C5H10NO+
105.0698	101	C8H9+
106.0651	36	C7H8N+
107.0731	43	C7H9N+
107.0855	45	C8H11+
108.0808	238	C7H10N+
109.0886	52	C7H11N+
109.1014	18	C8H13+
110.0964	161	C7H12N+
112.0756	373	C6H10NO+
114.0912	103	C6H12NO+
120.0808	107	C8H10N+
121.0888	19	C8H11N+
122.0964	224	C8H12N+
124.1122	78	C8H14N+
134.0964	358	C9H12N+
135.1041	64	C9H13N+
136.1121	458	C9H14N+
138.1279	33	C9H16N+
148.1121	171	C10H14N+
150.0912	34	C9H12NO+
150.1277	334	C10H16N+
152.1434	101	C10H18N+
162.128	24	C11H16N+
189.1384	31	C12H17N2+
249.1959	195	C15H25N2O+
