Mass spectrum: Fraxidin; LC-ESI-ITFT; MS2; CE: 60%; R=15000; [M+H]+
Name: Fraxidin
Name: 8-hydroxy-6,7-dimethoxychromen-2-one
Formula: C11H10O5
Exact mass: 222.0528
SMILES: COC1=C(OC)C(O)=C2OC(=O)C=CC2=C1
InChI: InChI=1S/C11H10O5/c1-14-7-5-6-3-4-8(12)16-10(6)9(13)11(7)15-2/h3-5,13H,1-2H3
Instrument: LTQ Orbitrap XL Thermo Scientific
Instrument type: LC-ESI-ITFT
Ms type: MS2
Ion mode: POSITIVE
Ionization: ESI
Fragmentation mode: HCD
Collision energy: 60% (nominal)
Resolution: 15000
Column name: Kinetex Evo C18 2.6 um 50 x 2.1 mm
Retention time: 7.600 min
Base peak: 116.9858
Precursor m/z: 223.0601
Precursor type: [M+H]+
m/z	relative intensity	assigned
78.0464	17	C6H6+
79.0544	5	C6H7+
105.0336	11	C7H5O+
106.0414	30	C7H6O+
107.0491	21	C7H7O+
118.0415	7	C8H6O+
121.0287	4	C7H5O2+
123.0443	3	C7H7O2+
133.0285	12	C8H5O2+
134.0363	100	C8H6O2+
135.0441	251	C8H7O2+
144.0208	7	C9H4O2+
146.0362	11	C9H6O2+
150.0312	3	C8H6O3+
151.0395	3	C8H7O3+
152.0468	24	C8H8O3+
161.0233	9	C9H5O3+
162.0313	798	C9H6O3+
163.039	223	C9H7O3+
164.047	8	C9H8O3+
165.0186	8	C8H5O4+
167.0704	30	C9H11O3+
172.0153	5	C10H4O3+
178.0262	96	C9H6O4+
179.034	277	C9H7O4+
180.0419	38	C9H8O4+
190.0261	999	C10H6O4+
191.0341	8	C10H7O4+
193.0132	24	C9H5O5+
195.0652	16	C10H11O4+
207.0289	419	C10H7O5+
208.0367	526	C10H8O5+
223.0602	382	C11H11O5+
