Mass spectrum: Tetrahydropalmatin; LC-ESI-ITFT; MS2; CE: 60%; R=15000; [M+H]+
Name: Tetrahydropalmatin
Name: D-Tetrahydropalmatine
Name: (13aR)-2,3,9,10-tetramethoxy-6,8,13,13a-tetrahydro-5H-isoquinolino[2,1-b]isoquinoline
Formula: C21H25NO4
Exact mass: 355.1784
SMILES: COC1=C(C2=C(C[C@@H]3C4=CC(=C(C=C4CCN3C2)OC)OC)C=C1)OC
InChI: InChI=1S/C21H25NO4/c1-23-18-6-5-13-9-17-15-11-20(25-3)19(24-2)10-14(15)7-8-22(17)12-16(13)21(18)26-4/h5-6,10-11,17H,7-9,12H2,1-4H3/t17-/m1/s1
Instrument: LTQ Orbitrap XL Thermo Scientific
Instrument type: LC-ESI-ITFT
Ms type: MS2
Ion mode: POSITIVE
Ionization: ESI
Fragmentation mode: HCD
Collision energy: 60% (nominal)
Resolution: 15000
Column name: Kinetex Evo C18 2.6 um 50 x 2.1 mm
Retention time: 7.478 min
Base peak: 356.1854
Precursor m/z: 356.1856
Precursor type: [M+H]+
m/z	relative intensity	assigned
79.0542	1	C6H7+
103.0545	1	C8H7+
105.0699	14	C8H9+
107.0495	1	C7H7O+
118.0415	1	C8H6O+
120.0571	2	C8H8O+
121.0647	3	C8H9O+
122.0728	1	C8H10O+
131.073	5	C9H9N+
133.0648	10	C9H9O+
134.0725	8	C9H10O+
135.0441	4	C8H7O2+
135.0804	8	C9H11O+
136.0518	2	C8H8O2+
147.0678	1	C9H9NO+
148.0757	17	C9H10NO+
149.0601	1	C9H9O2+
150.0675	73	C9H10O2+
151.075	18	C9H11O2+
158.073	2	C11H10O+
159.0678	9	C10H9NO+
160.0756	2	C10H10NO+
161.0833	2	C10H11NO+
164.0833	1	C10H12O2+
165.091	159	C10H13O2+
174.0674	1	C11H10O2+
175.075	1	C11H11O2+
176.0706	38	C10H10NO2+
177.0784	85	C10H11NO2+
189.0791	1	C11H11NO2+
189.0912	4	C12H13O2+
190.0864	26	C11H12NO2+
192.1018	999	C11H14NO2+
204.1018	5	C12H14NO2+
205.11	7	C12H15NO2+
249.0903	1	C17H13O2+
264.1155	1	C18H16O2+
265.1225	2	C18H17O2+
280.133	2	C18H18NO2+
281.1176	2	C18H17O3+
293.1169	6	C19H17O3+
294.1477	1	C19H20NO2+
297.1124	1	C18H17O4+
298.1438	3	C18H20NO3+
308.1295	5	C19H18NO3+
309.1125	2	C19H17O4+
310.1447	2	C19H20NO3+
312.1597	4	C19H22NO3+
322.1439	6	C20H20NO3+
324.1599	2	C20H22NO3+
326.139	4	C19H20NO4+
340.1545	18	C20H22NO4+
356.1857	6	C21H26NO4+
