Mass spectrum: Vincamin; LC-ESI-ITFT; MS2; CE: 80%; R=15000; [M+H]+
Name: Vincamin
Name: Vincamine
Name: methyl (15S,17S,19S)-15-ethyl-17-hydroxy-1,11-diazapentacyclo[9.6.2.02,7.08,18.015,19]nonadeca-2,4,6,8(18)-tetraene-17-carboxylate
Formula: C21H26N2O3
Exact mass: 354.1943
SMILES: CC[C@@]12CCCN3[C@@H]1C4=C(CC3)C5=CC=CC=C5N4[C@](C2)(C(=O)OC)O
InChI: InChI=1S/C21H26N2O3/c1-3-20-10-6-11-22-12-9-15-14-7-4-5-8-16(14)23(17(15)18(20)22)21(25,13-20)19(24)26-2/h4-5,7-8,18,25H,3,6,9-13H2,1-2H3/t18-,20+,21+/m1/s1
Instrument: LTQ Orbitrap XL Thermo Scientific
Instrument type: LC-ESI-ITFT
Ms type: MS2
Ion mode: POSITIVE
Ionization: ESI
Fragmentation mode: HCD
Collision energy: 80% (nominal)
Resolution: 15000
Column name: Kinetex Evo C18 2.6 um 50 x 2.1 mm
Retention time: 6.603 min
Base peak: 355.2014
Precursor m/z: 355.2016
Precursor type: [M+H]+
m/z	relative intensity	assigned
55.054	10	C4H7+
67.0541	50	C5H7+
68.0494	16	C4H6N+
70.065	70	C4H8N+
79.0541	46	C6H7+
80.0493	10	C5H6N+
81.0699	27	C6H9+
82.0651	8	C5H8N+
83.0491	96	C5H7O+
84.0808	14	C5H10N+
91.0542	61	C7H7+
93.0698	72	C7H9+
94.0652	20	C6H8N+
95.0493	10	C6H7O+
95.0855	183	C7H11+
96.0807	32	C6H10N+
98.0963	23	C6H12N+
103.0544	8	C8H7+
105.0698	81	C8H9+
106.065	13	C7H8N+
107.0494	8	C7H7O+
107.0854	57	C8H11+
108.0807	36	C7H10N+
109.0648	16	C7H9O+
109.1009	7	C8H13+
110.0963	160	C7H12N+
111.1043	20	C7H13N+
112.1121	19	C7H14N+
115.0541	18	C9H7+
117.0577	8	C8H7N+
117.0698	100	C9H9+
118.0651	20	C8H8N+
119.0856	14	C9H11+
120.0809	19	C8H10N+
121.0648	24	C8H9O+
122.0599	27	C7H8NO+
122.0963	19	C8H12N+
123.0804	80	C8H11O+
123.1044	18	C8H13N+
124.0756	24	C7H10NO+
124.112	148	C8H14N+
129.0699	25	C10H9+
130.065	56	C9H8N+
131.0729	20	C9H9N+
132.0806	26	C9H10N+
133.0648	25	C9H9O+
134.0963	133	C9H12N+
135.0804	34	C9H11O+
136.0756	20	C8H10NO+
136.1117	7	C9H14N+
137.0956	9	C9H13O+
143.0729	67	C10H9N+
144.0807	999	C10H10N+
146.0965	17	C10H12N+
152.1069	196	C9H14NO+
154.0651	17	C11H8N+
154.0859	12	C8H12NO2+
155.0605	20	C10H7N2+
155.0728	9	C11H9N+
156.0807	69	C11H10N+
157.0885	27	C11H11N+
158.0964	46	C11H12N+
162.0912	30	C10H12NO+
167.0731	25	C12H9N+
168.0806	60	C12H10N+
169.0888	14	C12H11N+
170.0599	29	C11H8NO+
170.0963	44	C12H12N+
171.0913	11	C11H11N2+
172.1125	14	C12H14N+
174.0917	8	C11H12NO+
178.0779	14	C14H10+
179.0851	17	C14H11+
180.0806	83	C13H10N+
181.0886	61	C13H11N+
182.0963	51	C13H12N+
183.1048	9	C13H13N+
184.0757	10	C12H10NO+
184.1122	15	C13H14N+
191.0727	32	C14H9N+
192.0804	26	C14H10N+
192.0926	15	C15H12+
193.0886	58	C14H11N+
193.1012	19	C15H13+
194.0964	77	C14H12N+
194.1175	9	C11H16NO2+
195.1044	38	C14H13N+
196.0762	10	C13H10NO+
196.112	33	C14H14N+
197.1071	10	C13H13N2+
198.1278	16	C14H16N+
204.0806	87	C15H10N+
205.0886	97	C15H11N+
206.0963	154	C15H12N+
207.1044	59	C15H13N+
207.1165	13	C16H15+
208.0755	10	C14H10NO+
208.112	180	C15H14N+
209.1201	48	C15H15N+
210.1282	27	C15H16N+
212.1278	22	C11H18NO3+
217.088	31	C16H11N+
218.0963	86	C16H12N+
219.1043	120	C16H13N+
220.112	191	C16H14N+
221.1204	61	C16H15N+
222.091	8	C15H12NO+
222.1275	144	C16H16N+
223.1235	25	C15H15N2+
224.1311	27	C15H16N2+
224.1434	37	C16H18N+
225.1396	8	C15H17N2+
226.1224	11	C15H16NO+
230.0958	10	C17H12N+
231.1043	14	C17H13N+
232.075	8	C16H10NO+
232.1119	59	C17H14N+
233.083	7	C16H11NO+
233.1075	14	C16H13N2+
233.12	31	C17H15N+
234.1275	171	C17H16N+
235.1241	8	C16H15N2+
235.1364	27	C17H17N+
236.1066	15	C16H14NO+
236.1434	31	C17H18N+
237.0782	18	C15H11NO2+
237.1388	32	C16H17N2+
238.0863	76	C15H12NO2+
238.1227	10	C16H16NO+
239.0941	79	C15H13NO2+
239.1548	11	C16H19N2+
246.1282	15	C18H16N+
247.123	35	C17H15N2+
248.1067	10	C17H14NO+
248.1312	18	C17H16N2+
248.1433	55	C18H18N+
249.1388	34	C17H17N2+
250.086	70	C16H12NO2+
250.1585	12	C18H20N+
251.094	90	C16H13NO2+
252.1018	136	C16H14NO2+
253.11	66	C16H15NO2+
262.1219	14	C18H16NO+
264.1018	355	C17H14NO2+
265.1097	320	C17H15NO2+
266.1174	298	C17H16NO2+
267.1255	160	C17H17NO2+
268.1334	61	C17H18NO2+
275.1168	8	C18H15N2O+
276.1021	19	C18H14NO2+
277.1705	12	C19H21N2+
278.1173	230	C18H16NO2+
279.1253	172	C18H17NO2+
280.1329	388	C18H18NO2+
290.1176	36	C19H16NO2+
291.125	13	C19H17NO2+
292.1325	121	C19H18NO2+
293.1414	21	C19H19NO2+
294.1487	178	C19H20NO2+
295.1807	7	C19H23N2O+
307.1439	71	C19H19N2O2+
