Mass spectrum: 5,7-Dihydroxy-4-phenylcoumarin; LC-ESI-ITFT; MS2; CE: 70%; R=15000; [M+H]+
Name: 5,7-Dihydroxy-4-phenylcoumarin
Name: 5,7-dihydroxy-4-phenylchromen-2-one
Formula: C15H10O4
Exact mass: 254.0579
SMILES: OC1=CC(O)=C2C(OC(=O)C=C2C2=CC=CC=C2)=C1
InChI: InChI=1S/C15H10O4/c16-10-6-12(17)15-11(9-4-2-1-3-5-9)8-14(18)19-13(15)7-10/h1-8,16-17H
Instrument: LTQ Orbitrap XL Thermo Scientific
Instrument type: LC-ESI-ITFT
Ms type: MS2
Ion mode: POSITIVE
Ionization: ESI
Fragmentation mode: HCD
Collision energy: 70% (nominal)
Resolution: 15000
Column name: Kinetex Evo C18 2.6 um 50 x 2.1 mm
Retention time: 9.813 min
Base peak: 116.9857
Precursor m/z: 255.0652
Precursor type: [M+H]+
m/z	relative intensity	assigned
68.9971	189	C3HO2+
77.0385	20	C6H5+
91.0542	98	C7H7+
103.0541	34	C8H7+
105.0335	295	C7H5O+
111.0077	71	C5H3O3+
115.0542	156	C9H7+
121.0284	78	C7H5O2+
128.0621	118	C10H8+
129.0699	134	C10H9+
131.049	22	C9H7O+
131.0855	87	C10H11+
141.0699	213	C11H9+
143.0495	24	C10H7O+
143.0857	53	C11H11+
145.0649	34	C10H9O+
149.0234	193	C8H5O3+
152.0621	113	C12H8+
153.0183	453	C7H5O4+
153.0699	482	C12H9+
154.0778	34	C12H10+
155.0855	114	C12H11+
157.0649	47	C11H9O+
164.0618	23	C13H8+
165.0699	999	C13H9+
166.0777	10	C13H10+
168.0569	36	C12H8O+
169.0648	93	C12H9O+
171.0441	510	C11H7O2+
171.0806	53	C12H11O+
181.0648	281	C13H9O+
182.0726	48	C13H10O+
183.0803	27	C13H11O+
184.052	33	C12H8O2+
193.0648	75	C14H9O+
194.0735	20	C14H10O+
197.0596	52	C13H9O2+
199.0753	445	C13H11O2+
210.0673	43	C14H10O2+
211.0752	101	C14H11O2+
227.07	15	C14H11O3+
255.0652	423	C15H11O4+
