Mass spectrum: (-)-Scopolamine; LC-ESI-ITFT; MS2; CE: 70%; R=15000; [M+H]+
Name: (-)-Scopolamine
Formula: C17H21NO4
Exact mass: 303.1471
SMILES: CN1[C@@H]2C[C@H](C[C@H]1[C@H]3[C@@H]2O3)OC(=O)[C@H](CO)c4ccccc4
InChI: InChI=1S/C17H21NO4/c1-18-13-7-11(8-14(18)16-15(13)22-16)21-17(20)12(9-19)10-5-3-2-4-6-10/h2-6,11-16,19H,7-9H2,1H3/t11-,12-,13-,14+,15-,16+/m1/s1
Instrument: LTQ Orbitrap XL Thermo Scientific
Instrument type: LC-ESI-ITFT
Ms type: MS2
Ion mode: POSITIVE
Ionization: ESI
Fragmentation mode: HCD
Collision energy: 70% (nominal)
Resolution: 15000
Column name: Kinetex Evo C18 2.6 um 50 x 2.1 mm
Retention time: 1.115 min
Base peak: 143.0015
Precursor m/z: 304.1543
Precursor type: [M+H]+
m/z	relative intensity	assigned
67.0541	15	C5H7+
68.0495	5	C4H6N+
70.0651	41	C4H8N+
72.0444	16	C3H6NO+
74.0602	7	C3H8NO+
77.0388	5	C6H5+
79.0543	156	C6H7+
81.0335	38	C5H5O+
81.0574	6	C5H7N+
81.0699	33	C6H9+
82.0652	68	C5H8N+
83.0492	33	C5H7O+
84.0808	52	C5H10N+
91.0543	34	C7H7+
93.0699	51	C7H9+
94.0652	47	C6H8N+
95.073	17	C6H9N+
96.0444	33	C5H6NO+
96.0808	50	C6H10N+
97.0523	98	C5H7NO+
97.0646	8	C6H9O+
98.0601	160	C5H8NO+
103.0542	809	C8H7+
107.049	16	C7H7O+
108.0808	25	C7H10N+
109.0887	7	C7H11N+
110.0601	55	C6H8NO+
110.0965	284	C7H12N+
115.0627	6	C5H9NO2+
120.0808	42	C8H10N+
121.0648	452	C8H9O+
123.0676	5	C7H9NO+
138.0914	999	C8H12NO+
154.0869	6	C8H12NO2+
156.102	216	C8H14NO2+
