Mass spectrum: Ajmalicine; LC-ESI-ITFT; MS2; CE: 35%; R=15000; [M+H]+
Name: Ajmalicine
Name: methyl (1S,15R,16S,20S)-16-methyl-17-oxa-3,13-diazapentacyclo[11.8.0.02,10.04,9.015,20]henicosa-2(10),4,6,8,18-pentaene-19-carboxylate
Formula: C21H24N2O3
Exact mass: 352.1787
SMILES: C[C@H]1[C@H]2CN3CCc4c5ccccc5[nH]c4[C@@H]3C[C@@H]2C(=CO1)C(=O)OC
InChI: InChI=1S/C21H24N2O3/c1-12-16-10-23-8-7-14-13-5-3-4-6-18(13)22-20(14)19(23)9-15(16)17(11-26-12)21(24)25-2/h3-6,11-12,15-16,19,22H,7-10H2,1-2H3/t12-,15-,16+,19-/m0/s1
Instrument: LTQ Orbitrap XL Thermo Scientific
Instrument type: LC-ESI-ITFT
Ms type: MS2
Ion mode: POSITIVE
Ionization: ESI
Fragmentation mode: HCD
Collision energy: 35% (nominal)
Resolution: 15000
Column name: Kinetex Evo C18 2.6 um 50 x 2.1 mm
Retention time: 7.574 min
Base peak: 353.1856
Precursor m/z: 353.186
Precursor type: [M+H]+
m/z	relative intensity	assigned
68.0494	2	C4H6N+
108.0809	2	C7H10N+
124.0392	1	C6H6NO2+
130.065	5	C9H8N+
144.0806	999	C10H10N+
156.0806	7	C11H10N+
158.0963	15	C11H12N+
164.0706	2	C9H10NO2+
167.0702	4	C9H11O3+
170.0962	17	C12H12N+
172.1113	1	C12H14N+
178.0861	33	C10H12NO2+
181.0853	2	C10H13O3+
182.0962	5	C13H12N+
185.1072	7	C12H13N2+
190.0857	1	C11H12NO2+
196.0965	11	C10H14NO3+
199.1228	20	C13H15N2+
208.0965	6	C11H14NO3+
210.1122	172	C11H16NO3+
222.1122	42	C12H16NO3+
224.1076	1	C15H14NO+
225.1387	3	C15H17N2+
234.1274	3	C17H16N+
240.1021	2	C15H14NO2+
250.1218	2	C17H16NO+
251.1541	7	C17H19N2+
252.1017	11	C16H14NO2+
253.1689	1	C17H21N2+
254.1175	6	C16H16NO2+
264.1388	1	C18H18NO+
266.1168	1	C17H16NO2+
278.1173	13	C18H16NO2+
284.128	27	C17H18NO3+
292.1332	4	C19H18NO2+
293.1642	4	C19H21N2O+
303.15	1	C20H19N2O+
304.1327	2	C20H18NO2+
310.1437	5	C19H20NO3+
321.1595	47	C20H21N2O2+
324.1595	6	C20H22NO3+
336.1593	6	C21H22NO3+
353.1856	556	C21H25N2O3+
