Mass spectrum: Solasodin; LC-ESI-ITFT; MS2; CE: 45%; R=15000; [M+H]+
Name: Solasodin
Name: Solasodine
Formula: C27H43NO2
Exact mass: 413.3294
SMILES: C[C@@H]1CC[C@@]2([C@H]([C@H]3[C@@H](O2)C[C@@H]4[C@@]3(CC[C@H]5[C@H]4CC=C6[C@@]5(CC[C@@H](C6)O)C)C)C)NC1
InChI: InChI=1S/C27H43NO2/c1-16-7-12-27(28-15-16)17(2)24-23(30-27)14-22-20-6-5-18-13-19(29)8-10-25(18,3)21(20)9-11-26(22,24)4/h5,16-17,19-24,28-29H,6-15H2,1-4H3/t16-,17+,19+,20-,21+,22+,23+,24+,25+,26+,27-/m1/s1
Instrument: LTQ Orbitrap XL Thermo Scientific
Instrument type: LC-ESI-ITFT
Ms type: MS2
Ion mode: POSITIVE
Ionization: ESI
Fragmentation mode: HCD
Collision energy: 45% (nominal)
Resolution: 15000
Column name: Kinetex Evo C18 2.6 um 50 x 2.1 mm
Retention time: 10.837 min
Base peak: 414.3361
Precursor m/z: 414.3367
Precursor type: [M+H]+
m/z	relative intensity	assigned
67.0542	7	C5H7+
69.0698	4	C5H9+
70.065	69	C4H8N+
79.0542	7	C6H7+
81.0699	22	C6H9+
83.0856	2	C6H11+
86.0966	2	C5H12N+
91.054	4	C7H7+
93.0699	18	C7H9+
95.0855	20	C7H11+
96.0808	12	C6H10N+
97.0649	6	C6H9O+
98.0962	4	C6H12N+
105.0698	11	C8H9+
107.0855	49	C8H11+
109.1011	105	C8H13+
114.0913	116	C6H12NO+
117.07	3	C9H9+
119.0855	26	C9H11+
121.1011	101	C9H13+
123.1166	9	C9H15+
124.112	122	C8H14N+
126.1277	200	C8H16N+
127.1117	7	C8H15O+
131.0854	30	C10H11+
133.1011	83	C10H13+
135.1168	19	C10H15+
137.0956	3	C9H13O+
143.0855	21	C11H11+
144.1381	6	C8H18NO+
145.1012	52	C11H13+
147.1168	118	C11H15+
149.096	12	C10H13O+
149.1323	6	C11H17+
151.1117	35	C10H15O+
157.1011	160	C12H13+
159.1168	110	C12H15+
161.0961	4	C11H13O+
161.1327	11	C12H17+
163.1116	16	C11H15O+
164.1433	4	C11H18N+
169.1013	3	C13H13+
171.1168	44	C13H15+
173.1323	25	C13H17+
175.1117	94	C12H15O+
177.1272	12	C12H17O+
183.1168	15	C14H15+
185.1323	16	C14H17+
187.1487	3	C14H19+
197.1322	34	C15H17+
199.1481	4	C15H19+
211.1479	35	C16H19+
213.1635	18	C16H21+
224.1562	6	C17H20+
225.1637	15	C17H21+
227.1794	3	C17H23+
253.1949	503	C19H25+
271.2055	299	C19H27O+
396.3259	442	C27H42NO+
414.3364	999	C27H44NO2+
