Mass spectrum: Solasodin; LC-ESI-ITFT; MS2; CE: 65%; R=15000; [M+H]+
Name: Solasodin
Name: Solasodine
Formula: C27H43NO2
Exact mass: 413.3294
SMILES: C[C@@H]1CC[C@@]2([C@H]([C@H]3[C@@H](O2)C[C@@H]4[C@@]3(CC[C@H]5[C@H]4CC=C6[C@@]5(CC[C@@H](C6)O)C)C)C)NC1
InChI: InChI=1S/C27H43NO2/c1-16-7-12-27(28-15-16)17(2)24-23(30-27)14-22-20-6-5-18-13-19(29)8-10-25(18,3)21(20)9-11-26(22,24)4/h5,16-17,19-24,28-29H,6-15H2,1-4H3/t16-,17+,19+,20-,21+,22+,23+,24+,25+,26+,27-/m1/s1
Instrument: LTQ Orbitrap XL Thermo Scientific
Instrument type: LC-ESI-ITFT
Ms type: MS2
Ion mode: POSITIVE
Ionization: ESI
Fragmentation mode: HCD
Collision energy: 65% (nominal)
Resolution: 15000
Column name: Kinetex Evo C18 2.6 um 50 x 2.1 mm
Retention time: 10.879 min
Base peak: 414.3363
Precursor m/z: 414.3367
Precursor type: [M+H]+
m/z	relative intensity	assigned
55.0541	9	C4H7+
58.065	7	C3H8N+
67.0542	98	C5H7+
69.0699	31	C5H9+
70.0651	313	C4H8N+
79.0543	111	C6H7+
81.0699	215	C6H9+
82.0652	11	C5H8N+
83.0489	7	C5H7O+
83.0855	17	C6H11+
86.0965	11	C5H12N+
91.0543	99	C7H7+
93.0699	242	C7H9+
95.0494	14	C6H7O+
95.0856	237	C7H11+
96.0808	55	C6H10N+
97.065	19	C6H9O+
98.0966	41	C6H12N+
105.0699	166	C8H9+
107.0856	355	C8H11+
108.0806	6	C7H10N+
109.1012	455	C8H13+
114.0914	113	C6H12NO+
117.0699	66	C9H9+
119.0856	183	C9H11+
121.1012	414	C9H13+
122.0963	13	C8H12N+
123.0803	9	C8H11O+
123.1169	45	C9H15+
124.1121	511	C8H14N+
125.1202	17	C8H15N+
126.1278	417	C8H16N+
129.0698	54	C10H9+
131.0856	222	C10H11+
133.1012	545	C10H13+
135.1169	79	C10H15+
136.112	7	C9H14N+
137.0962	8	C9H13O+
138.1276	13	C9H16N+
141.0703	13	C11H9+
142.0779	32	C11H10+
143.0856	152	C11H11+
145.1012	384	C11H13+
147.1169	566	C11H15+
148.1125	9	C10H14N+
149.0964	20	C10H13O+
149.1327	17	C11H17+
150.1276	59	C10H16N+
151.1117	67	C10H15O+
152.1436	12	C10H18N+
155.0857	42	C12H11+
157.1012	999	C12H13+
159.1169	663	C12H15+
161.0965	17	C11H13O+
161.1326	42	C12H17+
162.1278	22	C11H16N+
163.1118	36	C11H15O+
164.1434	75	C11H18N+
169.1012	57	C13H13+
171.1169	202	C13H15+
173.1325	135	C13H17+
175.1118	277	C12H15O+
176.1429	8	C12H18N+
177.1273	28	C12H17O+
178.1586	10	C12H20N+
182.1092	10	C14H14+
183.1169	119	C14H15+
185.1325	127	C14H17+
187.1485	18	C14H19+
189.1279	8	C13H17O+
196.1246	15	C15H16+
197.1325	189	C15H17+
198.1405	13	C15H18+
199.1483	34	C15H19+
201.1635	12	C15H21+
209.1324	17	C16H17+
211.1482	192	C16H19+
213.1639	70	C16H21+
216.1742	10	C15H22N+
223.1479	15	C17H19+
224.1561	47	C17H20+
225.1639	79	C17H21+
227.18	11	C17H23+
238.1718	49	C18H22+
242.1668	17	C17H22O+
253.1951	664	C19H25+
271.2055	94	C19H27O+
380.2956	14	C26H38NO+
396.3261	373	C27H42NO+
414.3355	38	C27H44NO2+
