Mass spectrum: Intermedine N-oxide; LC-ESI-ITFT; MS2; CE: 55%; R=15000; [M+H]+
Name: Intermedine N-oxide
Name: [(7R,8R)-7-hydroxy-4-oxido-5,6,7,8-tetrahydro-3H-pyrrolizin-4-ium-1-yl]methyl (2S)-2-hydroxy-2-[(1R)-1-hydroxyethyl]-3-methylbutanoate
Formula: C15H25NO6
Exact mass: 315.1682
SMILES: C[C@H]([C@@](C(C)C)(C(=O)OCC1=CC[N+]2([C@H]1[C@@H](CC2)O)[O-])O)O
InChI: InChI=1S/C15H25NO6/c1-9(2)15(20,10(3)17)14(19)22-8-11-4-6-16(21)7-5-12(18)13(11)16/h4,9-10,12-13,17-18,20H,5-8H2,1-3H3/t10-,12-,13-,15+,16?/m1/s1
Instrument: LTQ Orbitrap XL Thermo Scientific
Instrument type: LC-ESI-ITFT
Ms type: MS2
Ion mode: POSITIVE
Ionization: ESI
Fragmentation mode: HCD
Collision energy: 55% (nominal)
Resolution: 15000
Column name: Kinetex Evo C18 2.6 um 50 x 2.1 mm
Retention time: 1.204 min
Base peak: 143.0015
Precursor m/z: 316.1755
Precursor type: [M+H]+
m/z	relative intensity	assigned
68.0492	9	C4H6N+
80.0494	14	C5H6N+
81.0699	5	C6H9+
82.0413	17	C5H6O+
82.065	14	C5H8N+
83.0492	18	C5H7O+
93.0573	115	C6H7N+
94.0652	104	C6H8N+
98.0598	14	C5H8NO+
100.076	7	C5H10NO+
108.0807	31	C7H10N+
109.0649	13	C7H9O+
110.0602	17	C6H8NO+
111.0679	53	C6H9NO+
112.0758	29	C6H10NO+
136.0757	143	C8H10NO+
137.0837	44	C8H11NO+
138.0913	552	C8H12NO+
154.0862	96	C8H12NO2+
155.0941	167	C8H13NO2+
172.0969	999	C8H14NO3+
226.1437	30	C12H20NO3+
272.15	15	C13H22NO5+
298.1652	12	C15H24NO5+
316.1755	469	C15H26NO6+
