Mass spectrum: Lycopsamine; LC-ESI-ITFT; MS2; CE: 95%; R=15000; [M+H]+
Name: Lycopsamine
Name: [(7R,8R)-7-hydroxy-5,6,7,8-tetrahydro-3H-pyrrolizin-1-yl]methyl (2S)-2-hydroxy-2-[(1S)-1-hydroxyethyl]-3-methylbutanoate
Formula: C15H25NO5
Exact mass: 299.1733
SMILES: C[C@@H]([C@@](C(C)C)(C(=O)OCC1=CCN2[C@H]1[C@@H](CC2)O)O)O
InChI: InChI=1S/C15H25NO5/c1-9(2)15(20,10(3)17)14(19)21-8-11-4-6-16-7-5-12(18)13(11)16/h4,9-10,12-13,17-18,20H,5-8H2,1-3H3/t10-,12+,13+,15-/m0/s1
Instrument: LTQ Orbitrap XL Thermo Scientific
Instrument type: LC-ESI-ITFT
Ms type: MS2
Ion mode: POSITIVE
Ionization: ESI
Fragmentation mode: HCD
Collision energy: 95% (nominal)
Resolution: 15000
Column name: Kinetex Evo C18 2.6 um 50 x 2.1 mm
Retention time: 1.030 min
Base peak: 143.0015
Precursor m/z: 300.1805
Precursor type: [M+H]+
m/z	relative intensity	assigned
67.0416	108	C4H5N+
67.0542	103	C5H7+
80.0495	164	C5H6N+
81.0573	31	C5H7N+
81.07	26	C6H9+
82.0652	285	C5H8N+
85.0522	18	C4H7NO+
86.0601	101	C4H8NO+
91.0545	30	C7H7+
93.0573	23	C6H7N+
94.0652	999	C6H8N+
95.073	296	C6H9N+
96.0808	109	C6H10N+
108.0809	195	C7H10N+
109.065	23	C7H9O+
110.0599	21	C6H8NO+
110.0962	26	C7H12N+
112.0757	268	C6H10NO+
120.0807	109	C8H10N+
126.0916	42	C7H12NO+
138.0913	118	C8H12NO+
139.099	40	C8H13NO+
156.102	593	C8H14NO2+
