Mass spectrum: Aconitin; LC-ESI-ITFT; MS2; CE: 55%; R=15000; [M+H]+
Name: Aconitin
Name: Aconitine
Name: [(1S,2R,3R,4R,5R,6S,7S,8R,9R,13R,14R,16S,17S,18R)-8-acetyloxy-11-ethyl-5,7,14-trihydroxy-6,16,18-trimethoxy-13-(methoxymethyl)-11-azahexacyclo[7.7.2.12,5.01,10.03,8.013,17]nonadecan-4-yl] benzoate
Formula: C34H47NO11
Exact mass: 645.3149
SMILES: CCN1C[C@@]2([C@@H](C[C@@H]([C@@]34[C@@H]2[C@H]([C@@H](C31)[C@@]5([C@@H]6[C@H]4C[C@@]([C@@H]6OC(=O)C7=CC=CC=C7)([C@H]([C@@H]5O)OC)O)OC(=O)C)OC)OC)O)COC
InChI: InChI=1S/C34H47NO11/c1-7-35-15-31(16-41-3)20(37)13-21(42-4)33-19-14-32(40)28(45-30(39)18-11-9-8-10-12-18)22(19)34(46-17(2)36,27(38)29(32)44-6)23(26(33)35)24(43-5)25(31)33/h8-12,19-29,37-38,40H,7,13-16H2,1-6H3/t19-,20-,21+,22-,23+,24+,25-,26?,27+,28-,29+,31+,32-,33+,34-/m1/s1
Instrument: LTQ Orbitrap XL Thermo Scientific
Instrument type: LC-ESI-ITFT
Ms type: MS2
Ion mode: POSITIVE
Ionization: ESI
Fragmentation mode: HCD
Collision energy: 55% (nominal)
Resolution: 15000
Column name: Kinetex Evo C18 2.6 um 50 x 2.1 mm
Retention time: 9.743 min
Base peak: 116.9858
Precursor m/z: 646.3222
Precursor type: [M+H]+
m/z	relative intensity	assigned
75.0441	30	C3H7O2+
79.0542	7	C6H7+
84.0806	4	C5H10N+
85.0284	13	C4H5O2+
88.0756	7	C4H10NO+
91.0545	11	C7H7+
102.0915	7	C5H12NO+
105.0335	999	C7H5O+
108.0807	17	C7H10N+
109.0648	16	C7H9O+
110.0967	25	C7H12N+
111.0804	50	C7H11O+
112.0757	6	C6H10NO+
113.0836	6	C6H11NO+
117.07	20	C9H9+
121.0648	13	C8H9O+
122.0964	21	C8H12N+
129.0698	24	C10H9+
131.0855	23	C10H11+
137.0597	8	C8H9O2+
140.107	14	C8H14NO+
141.0699	8	C11H9+
141.0912	6	C8H13O2+
142.1225	12	C8H16NO+
145.0652	5	C10H9O+
147.0443	15	C9H7O2+
147.0805	11	C10H11O+
148.1118	8	C10H14N+
152.107	48	C9H14NO+
155.0858	11	C12H11+
157.0653	7	C11H9O+
159.08	9	C11H11O+
161.0963	15	C11H13O+
162.0915	24	C10H12NO+
164.1073	6	C10H14NO+
165.0547	6	C9H9O3+
165.0698	5	C13H9+
167.0858	9	C13H11+
169.0647	8	C12H9O+
171.0802	10	C12H11O+
172.1121	11	C12H14N+
174.0915	47	C11H12NO+
178.1227	15	C11H16NO+
179.0856	14	C14H11+
181.1012	11	C14H13+
183.0804	9	C13H11O+
185.0962	15	C13H13O+
186.1277	15	C13H16N+
188.0705	29	C11H10NO2+
190.0861	12	C11H12NO2+
190.1227	19	C12H16NO+
191.085	9	H17NO10+
193.1014	13	C15H13+
195.0807	13	C14H11O+
197.0958	9	C14H13O+
202.0858	6	C12H12NO2+
202.1228	25	C13H16NO+
203.0857	10	C16H11+
203.0941	16	C12H13NO2+
205.1014	31	C16H13+
207.0806	11	C15H11O+
207.116	8	C16H15+
209.0959	17	C15H13O+
213.0914	7	C14H13O2+
216.1381	12	C14H18NO+
217.1014	9	C17H13+
218.1539	59	C14H20NO+
219.0808	6	C16H11O+
221.0962	13	C16H13O+
223.1118	14	C16H15O+
225.0906	7	C15H13O2+
233.0959	34	C17H13O+
235.1115	22	C17H15O+
236.1647	11	C14H22NO2+
237.0909	11	C16H13O2+
239.1062	6	C16H15O2+
245.097	9	C18H13O+
249.0899	10	C17H13O2+
251.1064	24	C17H15O2+
259.0972	7	C15H15O4+
261.0911	19	C18H13O2+
263.1066	15	C18H15O2+
265.1222	16	C18H17O2+
279.102	8	C18H15O3+
280.1333	8	C18H18NO2+
290.1545	13	C20H20NO+
293.1178	13	C19H17O3+
294.1493	7	C19H20NO2+
306.1497	14	C20H20NO2+
308.1645	26	C20H22NO2+
312.1973	5	C20H26NO2+
318.1501	8	C21H20NO2+
322.1805	13	C21H24NO2+
324.1582	11	C20H22NO3+
326.2119	12	C21H28NO2+
336.1596	8	C21H22NO3+
340.1908	67	C21H26NO3+
344.2219	19	C21H30NO3+
350.175	13	C22H24NO3+
354.2065	42	C22H28NO3+
368.1859	186	C22H26NO4+
369.1906	10	C19H29O7+
372.2173	64	C22H30NO4+
376.248	13	C22H34NO4+
382.2012	7	C23H28NO4+
386.2325	16	C23H32NO4+
404.2432	57	C23H34NO5+
418.222	10	C23H32NO6+
462.2295	10	C28H32NO5+
476.2426	22	C29H34NO5+
478.2212	16	C28H32NO6+
490.221	7	C29H32NO6+
494.2534	21	C29H36NO6+
521.9495	6	C29NO10+
522.0471	6	C28H12NO10+
522.247	17	C30H36NO7+
526.2804	32	C30H40NO7+
536.2644	16	C31H38NO7+
554.2749	19	C31H40NO8+
586.3	21	C32H44NO9+
