Mass spectrum: Lycopsamine N-oxide; LC-ESI-ITFT; MS2; CE: 65%; R=15000; [M+H]+
Name: Lycopsamine N-oxide
Name: [(7R,8R)-7-hydroxy-4-oxido-5,6,7,8-tetrahydro-3H-pyrrolizin-4-ium-1-yl]methyl (2S)-2-hydroxy-2-[(1S)-1-hydroxyethyl]-3-methylbutanoate
Formula: C15H25NO6
Exact mass: 315.1682
SMILES: C[C@@H]([C@@](C(C)C)(C(=O)OCC1=CC[N+]2([C@H]1[C@@H](CC2)O)[O-])O)O
InChI: InChI=1S/C15H25NO6/c1-9(2)15(20,10(3)17)14(19)22-8-11-4-6-16(21)7-5-12(18)13(11)16/h4,9-10,12-13,17-18,20H,5-8H2,1-3H3/t10-,12+,13+,15-,16?/m0/s1
Instrument: LTQ Orbitrap XL Thermo Scientific
Instrument type: LC-ESI-ITFT
Ms type: MS2
Ion mode: POSITIVE
Ionization: ESI
Fragmentation mode: HCD
Collision energy: 65% (nominal)
Resolution: 15000
Column name: Kinetex Evo C18 2.6 um 50 x 2.1 mm
Retention time: 1.287 min
Base peak: 143.0014
Precursor m/z: 316.1755
Precursor type: [M+H]+
m/z	relative intensity	assigned
55.0541	5	C4H7+
67.0543	9	C5H7+
68.0495	17	C4H6N+
73.0648	15	C4H9O+
79.0543	4	C6H7+
80.0496	37	C5H6N+
81.0573	8	C5H7N+
81.0699	12	C6H9+
82.0413	39	C5H6O+
82.0652	26	C5H8N+
83.0492	47	C5H7O+
84.0811	4	C5H10N+
93.0574	228	C6H7N+
94.0651	275	C6H8N+
95.073	16	C6H9N+
96.0444	7	C5H6NO+
96.0808	9	C6H10N+
98.0601	33	C5H8NO+
100.0757	4	C5H10NO+
102.0549	19	C4H8NO2+
106.0652	25	C7H8N+
108.0808	46	C7H10N+
109.0649	11	C7H9O+
109.0884	7	C7H11N+
110.0601	21	C6H8NO+
111.0679	154	C6H9NO+
112.0757	43	C6H10NO+
118.0654	9	C8H8N+
120.0811	7	C8H10N+
124.0758	3	C7H10NO+
126.0913	15	C7H12NO+
128.0707	13	C6H10NO2+
136.0758	178	C8H10NO+
137.0836	52	C8H11NO+
138.0914	657	C8H12NO+
140.0712	8	C7H10NO2+
154.0864	86	C8H12NO2+
155.0942	142	C8H13NO2+
172.0969	999	C8H14NO3+
226.1437	14	C12H20NO3+
316.1756	100	C15H26NO6+
