Mass spectrum: Artemisinin; LC-ESI-ITFT; MS2; CE: 15%; R=15000; [M+H]+
Name: Artemisinin
Formula: C15H22O5
Exact mass: 282.1467
SMILES: C[C@@H]1CC[C@H]2[C@@H](C)C(=O)O[C@@H]3O[C@@]4(C)CC[C@@H]1[C@@]23OO4
InChI: InChI=1S/C15H22O5/c1-8-4-5-11-9(2)12(16)17-13-15(11)10(8)6-7-14(3,18-13)19-20-15/h8-11,13H,4-7H2,1-3H3/t8-,9-,10+,11+,13-,14-,15-/m1/s1
Instrument: LTQ Orbitrap XL Thermo Scientific
Instrument type: LC-ESI-ITFT
Ms type: MS2
Ion mode: POSITIVE
Ionization: ESI
Fragmentation mode: CID
Collision energy: 15 % (nominal)
Resolution: 15000
Column name: Kinetex Evo C18 2.6 um 50 x 2.1 mm
Retention time: 11.318 min
Base peak: 305.1353
Precursor m/z: 283.154
Precursor type: [M+H]+
m/z	relative intensity	assigned
95.0854	13	C7H11+
119.0854	104	C9H11+
121.1011	20	C9H13+
125.0961	62	C8H13O+
133.1014	16	C10H13+
135.044	25	C8H7O2+
145.1011	31	C11H13+
149.0961	27	C10H13O+
149.1326	30	C11H17+
151.1125	11	C10H15O+
157.0858	64	C8H13O3+
159.1169	58	C12H15+
161.0957	13	C11H13O+
161.1325	24	C12H17+
163.1113	18	C11H15O+
173.0962	31	C12H13O+
177.1271	39	C12H17O+
179.1064	43	C11H15O2+
187.1116	19	C13H15O+
191.1059	34	C12H15O2+
191.1432	21	C13H19O+
195.1379	37	C12H19O2+
201.1275	71	C14H17O+
203.1427	25	C14H19O+
205.1222	279	C13H17O2+
209.1169	74	C12H17O3+
209.1532	25	C13H21O2+
219.1378	125	C14H19O2+
221.1534	46	C14H21O2+
223.133	98	C13H19O3+
229.122	85	C15H17O2+
237.1485	106	C14H21O3+
247.1328	748	C15H19O3+
265.1434	999	C15H21O4+
