Mass spectrum: (+)-Isocorydin; LC-ESI-ITFT; MS2; CE: 50%; R=15000; [M+H]+
Name: (+)-Isocorydin
Name: Isocorydine
Name: (6aS)-1,2,10-trimethoxy-6-methyl-5,6,6a,7-tetrahydro-4H-dibenzo[de,g]quinolin-11-ol
Formula: C20H23NO4
Exact mass: 341.1627
SMILES: CN1CCC2=CC(=C(C3=C2[C@@H]1CC4=C3C(=C(C=C4)OC)O)OC)OC
InChI: InChI=1S/C20H23NO4/c1-21-8-7-12-10-15(24-3)20(25-4)18-16(12)13(21)9-11-5-6-14(23-2)19(22)17(11)18/h5-6,10,13,22H,7-9H2,1-4H3/t13-/m0/s1
Instrument: LTQ Orbitrap XL Thermo Scientific
Instrument type: LC-ESI-ITFT
Ms type: MS2
Ion mode: POSITIVE
Ionization: ESI
Fragmentation mode: HCD
Collision energy: 50% (nominal)
Resolution: 15000
Column name: Kinetex Evo C18 2.6 um 50 x 2.1 mm
Retention time: 6.305 min
Base peak: 342.1697
Precursor m/z: 342.17
Precursor type: [M+H]+
m/z	relative intensity	assigned
191.0855	81	C15H11+
192.0939	7	C15H12+
193.1009	12	C15H13+
194.0726	8	C14H10O+
203.0853	10	C16H11+
205.0644	11	C15H9O+
205.1002	4	C16H13+
206.0729	5	C15H10O+
207.0803	11	C15H11O+
208.0882	44	C15H12O+
209.096	8	C15H13O+
218.0721	10	C16H10O+
219.0804	141	C16H11O+
220.0885	40	C16H12O+
221.0604	5	C15H9O2+
221.0962	47	C16H13O+
223.1116	58	C16H15O+
224.083	22	C15H12O2+
231.0802	13	C17H11O+
233.096	41	C17H13O+
234.0678	7	C16H10O2+
235.0754	52	C16H11O2+
236.0831	523	C16H12O2+
237.0917	28	C16H13O2+
238.0627	4	C15H10O3+
239.1063	7	C16H15O2+
246.0674	12	C17H10O2+
247.0753	182	C17H11O2+
248.0832	677	C17H12O2+
249.0544	7	C16H9O3+
249.0918	45	C17H13O2+
250.0988	42	C17H14O2+
251.1065	399	C17H15O2+
252.0779	17	C16H12O3+
253.086	35	C16H13O3+
261.0908	34	C18H13O2+
262.0986	39	C18H14O2+
263.0703	32	C17H11O3+
264.0779	663	C17H12O3+
265.0858	483	C17H13O3+
266.0571	3	C16H10O4+
267.1013	73	C17H15O3+
268.1092	26	C17H16O3+
277.0853	10	C18H13O3+
278.094	21	C18H14O3+
279.1015	999	C18H15O3+
280.1094	431	C18H16O3+
281.0806	381	C17H13O4+
284.1042	11	C17H16O4+
295.0968	3	C18H15O4+
296.1041	502	C18H16O4+
299.1287	4	C18H19O4+
311.1277	240	C19H19O4+
