Mass spectrum: Homoharringtonine; LC-ESI-ITFT; MS2; CE: 75%; R=15000; [M+H]+
Name: Homoharringtonine
Name: Omacetaxine mepesuccinate
Name: 1-O-[(2S,3S,6R)-4-methoxy-16,18-dioxa-10-azapentacyclo[11.7.0.02,6.06,10.015,19]icosa-1(20),4,13,15(19)-tetraen-3-yl] 4-O-methyl (2R)-2-hydroxy-2-(4-hydroxy-4-methylpentyl)butanedioate
Formula: C29H39NO9
Exact mass: 545.2625
SMILES: CC(C)(CCC[C@@](CC(=O)OC)(C(=O)O[C@H]1[C@H]2c3cc4c(cc3CCN5[C@@]2(CCC5)C=C1OC)OCO4)O)O
InChI: InChI=1S/C29H39NO9/c1-27(2,33)8-5-10-29(34,16-23(31)36-4)26(32)39-25-22(35-3)15-28-9-6-11-30(28)12-7-18-13-20-21(38-17-37-20)14-19(18)24(25)28/h13-15,24-25,33-34H,5-12,16-17H2,1-4H3/t24-,25-,28+,29-/m1/s1
Instrument: LTQ Orbitrap XL Thermo Scientific
Instrument type: LC-ESI-ITFT
Ms type: MS2
Ion mode: POSITIVE
Ionization: ESI
Fragmentation mode: HCD
Collision energy: 75% (nominal)
Resolution: 15000
Column name: Kinetex Evo C18 2.6 um 50 x 2.1 mm
Retention time: 7.126 min
Base peak: 546.2685
Precursor m/z: 546.2698
Precursor type: [M+H]+
m/z	relative intensity	assigned
55.0177	17	C3H3O+
59.049	35	C3H7O+
67.0542	14	C5H7+
69.0697	18	C5H9+
70.0651	34	C4H8N+
79.0542	33	C6H7+
83.0855	17	C6H11+
85.0648	21	C5H9O+
91.0541	67	C7H7+
93.0698	90	C7H9+
94.0652	14	C6H8N+
95.0489	12	C6H7O+
96.0807	22	C6H10N+
97.0285	11	C5H5O2+
97.0647	11	C6H9O+
100.0758	9	C5H10NO+
103.0541	41	C8H7+
105.0695	13	C8H9+
107.0855	87	C8H11+
108.0568	13	C7H8O+
109.0647	71	C7H9O+
110.06	44	C6H8NO+
111.0679	17	C6H9NO+
111.0804	15	C7H11O+
115.0542	65	C9H7+
117.0696	9	C9H9+
118.0648	23	C8H8N+
119.0491	26	C8H7O+
120.0808	29	C8H10N+
121.0649	21	C8H9O+
123.0803	35	C8H11O+
125.0594	16	C7H9O2+
126.0913	53	C7H12NO+
129.0697	25	C10H9+
131.049	49	C9H7O+
135.0439	46	C8H7O2+
135.0678	9	C8H9NO+
138.0909	8	C8H12NO+
139.0539	16	C11H7+
141.0697	37	C11H9+
142.065	32	C10H8N+
143.0489	41	C10H7O+
145.0644	14	C10H9O+
146.0597	9	C9H8NO+
147.0441	11	C9H7O2+
148.0758	24	C9H10NO+
149.0596	82	C9H9O2+
150.0912	648	C9H12NO+
152.0619	26	C12H8+
153.0697	68	C12H9+
155.0857	26	C12H11+
156.0807	8	C11H10N+
157.0647	27	C11H9O+
159.0439	83	C10H7O2+
160.0524	11	C10H8O2+
161.0598	30	C10H9O2+
165.0697	152	C13H9+
166.0771	51	C13H10+
167.0494	17	C12H7O+
167.073	20	C12H9N+
167.0853	48	C13H11+
168.0808	51	C12H10N+
169.0649	23	C12H9O+
170.06	43	C11H8NO+
170.0964	15	C12H12N+
171.0804	59	C12H11O+
171.1042	16	C12H13N+
172.0518	38	C11H8O2+
173.0597	62	C11H9O2+
174.0549	43	C10H8NO2+
175.0627	23	C10H9NO2+
176.0705	167	C10H10NO2+
178.0776	40	C14H10+
179.0854	103	C14H11+
180.0571	17	C13H8O+
180.0806	56	C13H10N+
180.0926	13	C14H12+
181.0647	82	C13H9O+
181.0878	8	C13H11N+
181.1008	24	C14H13+
182.0726	67	C13H10O+
182.0963	63	C13H12N+
183.0801	43	C13H11O+
185.0597	79	C12H9O2+
186.0679	25	C12H10O2+
187.0625	19	C11H9NO2+
187.0754	34	C12H11O2+
189.0786	13	C11H11NO2+
190.0776	29	C15H10+
191.0853	114	C15H11+
192.0805	20	C14H10N+
192.0938	31	C15H12+
193.0646	59	C14H9O+
193.0885	34	C14H11N+
193.101	20	C15H13+
194.0731	21	C14H10O+
194.097	19	C14H12N+
195.0804	132	C14H11O+
196.0759	30	C13H10NO+
196.0883	17	C14H12O+
196.112	22	C14H14N+
197.0597	53	C13H9O2+
197.0841	13	C13H11NO+
197.0958	48	C14H13O+
198.055	17	C12H8NO2+
198.0673	27	C13H10O2+
198.0913	39	C13H12NO+
199.0387	16	C12H7O3+
199.0628	92	C12H9NO2+
199.0753	57	C13H11O2+
200.047	26	C12H8O3+
200.0706	60	C12H10NO2+
200.1071	17	C13H14NO+
202.0866	23	C12H12NO2+
206.0959	18	C15H12N+
207.0805	59	C15H11O+
207.1036	18	C15H13N+
208.0761	25	C14H10NO+
208.0884	77	C15H12O+
208.1119	175	C15H14N+
209.0596	90	C14H9O2+
209.0857	12	C4H17O9+
209.0967	23	C15H13O+
210.0677	84	C14H10O2+
210.0912	82	C14H12NO+
210.1276	14	C15H16N+
211.0629	63	C13H9NO2+
211.0753	80	C14H11O2+
212.0708	108	C13H10NO2+
212.1071	40	C14H14NO+
213.0547	18	C13H9O3+
213.079	42	C13H11NO2+
213.0914	20	C14H13O2+
214.0863	158	C13H12NO2+
215.0702	36	C13H11O3+
216.1016	36	C13H14NO2+
219.0804	34	C16H11O+
220.0889	13	C16H12O+
221.0594	12	C15H9O2+
221.084	16	C15H11NO+
222.0678	39	C15H10O2+
222.0915	35	C15H12NO+
223.0754	188	C15H11O2+
223.1116	60	C16H15O+
224.0713	79	C14H10NO2+
224.1076	58	C15H14NO+
225.0546	58	C14H9O3+
225.0785	61	C14H11NO2+
225.091	43	C15H13O2+
225.1152	32	C15H15NO+
226.0861	567	C14H12NO2+
227.0575	132	C13H9NO3+
227.0702	14	C14H11O3+
227.0945	290	C14H13NO2+
228.0665	47	C13H10NO3+
228.1026	111	C14H14NO2+
229.0867	14	C14H13O3+
229.1097	200	C14H15NO2+
235.0758	16	C16H11O2+
236.0838	24	C16H12O2+
236.1069	124	C16H14NO+
237.0787	22	C15H11NO2+
237.0912	43	C16H13O2+
238.0625	44	C15H10O3+
238.0862	239	C15H12NO2+
238.1226	75	C16H16NO+
239.0707	38	C15H11O3+
239.0952	50	C15H13NO2+
239.1063	8	C16H15O2+
240.1016	999	C15H14NO2+
241.0738	9	C14H11NO3+
241.086	18	C15H13O3+
242.0811	144	C14H12NO3+
242.1175	32	C15H16NO2+
249.0917	13	C17H13O2+
250.0862	89	C16H12NO2+
251.0941	133	C16H13NO2+
252.102	224	C16H14NO2+
253.086	40	C16H13O3+
253.1105	96	C16H15NO2+
254.0811	56	C15H12NO3+
254.1177	154	C16H16NO2+
255.0894	49	C15H13NO3+
256.0971	40	C15H14NO3+
256.1333	14	C16H18NO2+
264.1019	61	C17H14NO2+
266.1173	527	C17H16NO2+
267.1261	208	C17H17NO2+
268.0966	273	C16H14NO3+
270.1123	54	C16H16NO3+
282.1122	160	C17H16NO3+
284.1279	87	C17H18NO3+
294.1125	12	C18H16NO3+
298.144	46	C18H20NO3+
