Mass spectrum: Anabasine; LC-ESI-ITFT; MS2; CE: 105%; R=15000; [M+H]+
Name: Anabasine
Formula: C10H14N2
Exact mass: 162.1157
SMILES: C1CCC(NC1)C1=CC=CN=C1
InChI: InChI=1S/C10H14N2/c1-2-7-12-10(5-1)9-4-3-6-11-8-9/h3-4,6,8,10,12H,1-2,5,7H2
Instrument: LTQ Orbitrap XL Thermo Scientific
Instrument type: LC-ESI-ITFT
Ms type: MS2
Ion mode: POSITIVE
Ionization: ESI
Fragmentation mode: HCD
Collision energy: 105 % (nominal)
Resolution: 15000
Column name: Kinetex Evo C18 2.6 um 50 x 2.1 mm
Retention time: 0.468 min
Base peak: 249.1955
Precursor m/z: 163.123
Precursor type: [M+H]+
m/z	relative intensity	assigned
65.0385	87	C5H5+
67.0542	14	C5H7+
70.065	7	C4H8N+
77.0386	13	C6H5+
78.0338	7	C5H4N+
79.0416	33	C5H5N+
79.0541	9	C6H7+
80.0494	86	C5H6N+
82.0649	5	C5H8N+
84.0807	37	C5H10N+
90.0465	13	C7H6+
91.0542	492	C7H7+
92.0494	667	C6H6N+
93.0572	365	C6H7N+
94.0651	303	C6H8N+
103.054	8	C8H7+
104.0494	13	C7H6N+
105.0699	11	C8H9+
106.065	118	C7H8N+
107.0729	14	C7H9N+
115.0543	8	C9H7+
117.0572	693	C8H7N+
118.065	999	C8H8N+
120.0807	124	C8H10N+
128.0621	27	C10H8+
129.0699	26	C10H9+
130.065	579	C9H8N+
131.0728	198	C9H9N+
132.0806	97	C9H10N+
134.0964	51	C9H12N+
143.0729	7	C10H9N+
144.0806	121	C10H10N+
146.0962	64	C10H12N+
155.0606	7	C10H7N2+
163.1227	23	C10H15N2+
