Mass spectrum: Tomatidine; LC-ESI-ITFT; MS2; CE: 80%; R=15000; [M+H]+
Name: Tomatidine
Formula: C27H45NO2
Exact mass: 415.3450
SMILES: C[C@H]1[C@H]2[C@H](C[C@H]3[C@@H]4CC[C@H]5C[C@@H](O)CC[C@]5(C)[C@H]4CC[C@]23C)O[C@@]11CC[C@H](C)CN1
InChI: InChI=1S/C27H45NO2/c1-16-7-12-27(28-15-16)17(2)24-23(30-27)14-22-20-6-5-18-13-19(29)8-10-25(18,3)21(20)9-11-26(22,24)4/h16-24,28-29H,5-15H2,1-4H3/t16-,17-,18-,19-,20+,21-,22-,23-,24-,25-,26-,27-/m0/s1
Instrument: LTQ Orbitrap XL Thermo Scientific
Instrument type: LC-ESI-ITFT
Ms type: MS2
Ion mode: POSITIVE
Ionization: ESI
Fragmentation mode: HCD
Collision energy: 80 % (nominal)
Resolution: 15000
Column name: Kinetex Evo C18 2.6 um 50 x 2.1 mm
Retention time: 10.056 min
Base peak: 217.0494
Precursor m/z: 416.3523
Precursor type: [M+H]+
m/z	relative intensity	assigned
67.0542	93	C5H7+
69.07	22	C5H9+
70.0651	57	C4H8N+
77.0387	16	C6H5+
79.0543	215	C6H7+
81.0699	172	C6H9+
82.0652	8	C5H8N+
83.0855	13	C6H11+
91.0543	203	C7H7+
93.0699	279	C7H9+
94.0652	13	C6H8N+
95.0856	211	C7H11+
96.0809	26	C6H10N+
97.0649	8	C6H9O+
98.0965	19	C6H12N+
105.0699	545	C8H9+
107.0855	256	C8H11+
108.0809	17	C7H10N+
109.1013	79	C8H13+
110.0966	11	C7H12N+
117.0699	45	C9H9+
119.0856	293	C9H11+
121.1012	78	C9H13+
122.0969	11	C8H12N+
123.1174	7	C9H15+
124.1122	120	C8H14N+
125.1199	14	C8H15N+
126.1278	154	C8H16N+
129.0698	17	C10H9+
131.0856	84	C10H11+
133.1013	151	C10H13+
135.1168	52	C10H15+
136.1123	10	C9H14N+
138.1279	9	C9H16N+
143.0854	27	C11H11+
145.1013	123	C11H13+
147.117	274	C11H15+
148.112	13	C10H14N+
149.1327	44	C11H17+
150.1278	54	C10H16N+
157.1014	21	C12H13+
159.117	146	C12H15+
161.1326	999	C12H17+
164.1436	57	C11H18N+
171.1172	21	C13H15+
173.1326	52	C13H17+
185.1328	24	C14H17+
187.1484	19	C14H19+
199.1483	19	C15H19+
213.1632	17	C16H21+
