Mass spectrum: Gelsemine; LC-ESI-ITFT; MS2; CE: 85%; R=15000; [M+H]+
Name: Gelsemine
Name: (2`S,3S,5`S,6`S,11`S)-2`-ethenyl-4`-methylspiro[1H-indole-3,7`-9-oxa-4-azatetracyclo[6.3.1.02,6.05,11]dodecane]-2-one
Formula: C20H22N2O2
Exact mass: 322.1681
SMILES: CN1C[C@@]2([C@@H]3[C@H]1[C@@H]4C2CC([C@@]35c6ccccc6NC5=O)OC4)C=C
InChI: InChI=1S/C20H22N2O2/c1-3-19-10-22(2)16-11-9-24-15(8-13(11)19)20(17(16)19)12-6-4-5-7-14(12)21-18(20)23/h3-7,11,13,15-17H,1,8-10H2,2H3,(H,21,23)/t11-,13?,15?,16+,17-,19-,20-/m0/s1
Instrument: LTQ Orbitrap XL Thermo Scientific
Instrument type: LC-ESI-ITFT
Ms type: MS2
Ion mode: POSITIVE
Ionization: ESI
Fragmentation mode: HCD
Collision energy: 85% (nominal)
Resolution: 15000
Column name: Kinetex Evo C18 2.6 um 50 x 2.1 mm
Retention time: 1.779 min
Base peak: 143.0015
Precursor m/z: 323.1754
Precursor type: [M+H]+
m/z	relative intensity	assigned
70.0651	999	C4H8N+
79.0542	12	C6H7+
86.06	28	C4H8NO+
88.0757	15	C4H10NO+
91.0543	115	C7H7+
94.0651	19	C6H8N+
103.0542	11	C8H7+
104.0494	10	C7H6N+
105.0699	25	C8H9+
106.0651	7	C7H8N+
108.0806	10	C7H10N+
115.0543	44	C9H7+
116.0619	25	C9H8+
117.0699	100	C9H9+
118.0653	7	C8H8N+
120.081	17	C8H10N+
121.0886	7	C8H11N+
128.0497	20	C9H6N+
129.0697	21	C10H9+
130.0651	56	C9H8N+
131.0856	60	C10H11+
132.0444	94	C8H6NO+
132.0804	6	C9H10N+
134.0596	8	C8H8NO+
134.0964	36	C9H12N+
144.0807	7	C10H10N+
146.06	74	C9H8NO+
146.0963	34	C10H12N+
148.1119	16	C10H14N+
154.0652	12	C11H8N+
158.0603	52	C10H8NO+
160.1124	11	C11H14N+
165.0699	17	C13H9+
166.0649	8	C12H8N+
167.0731	32	C12H9N+
168.0802	6	C12H10N+
177.0571	19	C13H7N+
178.0651	39	C13H8N+
180.0808	31	C13H10N+
183.0677	19	C12H9NO+
184.0752	20	C12H10NO+
190.0648	14	C14H8N+
191.0739	7	C14H9N+
191.0851	14	C15H11+
192.0807	17	C14H10N+
193.0881	9	C14H11N+
195.0679	278	C13H9NO+
196.0756	74	C13H10NO+
202.0776	7	C16H10+
203.0729	57	C15H9N+
208.0757	65	C14H10NO+
209.0841	10	C14H11NO+
210.0913	90	C14H12NO+
216.0804	8	C16H10N+
217.0886	47	C16H11N+
218.0965	85	C16H12N+
220.0765	18	C15H10NO+
222.0912	17	C15H12NO+
230.0966	11	C17H12N+
233.0841	7	C16H11NO+
234.0917	13	C16H12NO+
236.1069	141	C16H14NO+
