Mass spectrum: Galantamine; LC-ESI-ITFT; MS2; CE: 70%; R=15000; [M+H]+
Name: Galantamine
Formula: C17H21NO3
Exact mass: 287.1521
SMILES: CN1CCC23C=CC(CC2OC4=C(C=CC(=C34)C1)OC)O
InChI: InChI=1S/C17H21NO3/c1-18-8-7-17-6-5-12(19)9-14(17)21-16-13(20-2)4-3-11(10-18)15(16)17/h3-6,12,14,19H,7-10H2,1-2H3
Instrument: LTQ Orbitrap XL Thermo Scientific
Instrument type: LC-ESI-ITFT
Ms type: MS2
Ion mode: POSITIVE
Ionization: ESI
Fragmentation mode: CID
Collision energy: 70 % (nominal)
Resolution: 15000
Column name: Kinetex Evo C18 2.6 um 50 x 2.1 mm
Retention time: 0.583 min
Base peak: 235.2167
Precursor m/z: 288.1594
Precursor type: [M+H]+
m/z	relative intensity	assigned
94.0652	1	C6H8N+
109.0647	3	C7H9O+
132.0808	4	C9H10N+
133.0887	8	C9H11N+
134.0965	9	C9H12N+
137.0599	4	C8H9O2+
150.0915	5	C9H12NO+
151.0992	33	C9H13NO+
159.0797	1	C11H11O+
167.0859	1	C13H11+
175.0753	7	C11H11O2+
179.0858	13	C14H11+
181.1014	6	C14H13+
182.0721	1	C13H10O+
183.0804	1	C13H11O+
189.091	6	C12H13O2+
197.0962	111	C14H13O+
199.0754	68	C13H11O2+
203.1067	17	C13H15O2+
207.0805	21	C15H11O+
209.0962	95	C15H13O+
210.0674	5	C14H10O2+
211.0753	1	C14H11O2+
211.1117	4	C15H15O+
213.0911	403	C14H13O2+
216.1019	5	C13H14NO2+
220.1124	7	C16H14N+
221.0963	7	C16H13O+
223.0997	2	C15H13NO+
225.0911	772	C15H13O2+
227.1064	6	C15H15O2+
230.1174	2	C14H16NO2+
231.1016	788	C14H15O3+
238.1228	6	C16H16NO+
239.1066	27	C16H15O2+
241.1226	7	C16H17O2+
242.0938	4	C15H14O3+
245.1174	14	C15H17O3+
252.1388	1	C17H18NO+
253.1224	11	C17H17O2+
255.1254	15	C16H17NO2+
256.1327	1	C16H18NO2+
257.1173	47	C16H17O3+
270.1489	999	C17H20NO2+
273.1365	2	C16H19NO3+
