Mass spectrum: Tomatidine; LC-ESI-ITFT; MS2; CE: 15%; R=15000; [M+H]+
Name: Tomatidine
Formula: C27H45NO2
Exact mass: 415.3450
SMILES: C[C@H]1[C@H]2[C@H](C[C@H]3[C@@H]4CC[C@H]5C[C@@H](O)CC[C@]5(C)[C@H]4CC[C@]23C)O[C@@]11CC[C@H](C)CN1
InChI: InChI=1S/C27H45NO2/c1-16-7-12-27(28-15-16)17(2)24-23(30-27)14-22-20-6-5-18-13-19(29)8-10-25(18,3)21(20)9-11-26(22,24)4/h16-24,28-29H,5-15H2,1-4H3/t16-,17-,18-,19-,20+,21-,22-,23-,24-,25-,26-,27-/m0/s1
Instrument: LTQ Orbitrap XL Thermo Scientific
Instrument type: LC-ESI-ITFT
Ms type: MS2
Ion mode: POSITIVE
Ionization: ESI
Fragmentation mode: CID
Collision energy: 15 % (nominal)
Resolution: 15000
Column name: Kinetex Evo C18 2.6 um 50 x 2.1 mm
Retention time: 10.007 min
Base peak: 217.0492
Precursor m/z: 416.3523
Precursor type: [M+H]+
m/z	relative intensity	assigned
126.1276	4	C8H16N+
131.0856	1	C10H11+
145.1012	2	C11H13+
147.1167	2	C11H15+
159.1169	2	C12H15+
161.1324	7	C12H17+
163.1116	1	C11H15O+
173.1324	3	C13H17+
199.1476	1	C15H19+
213.1636	1	C16H21+
227.1788	1	C17H23+
255.2108	45	C19H27+
273.2212	40	C19H29O+
398.3421	119	C27H44NO+
416.3522	999	C27H46NO2+
