Mass spectrum: Coniferaldehyde; LC-ESI-ITFT; MS2; CE: 65%; R=15000; [M+H]+
Name: Coniferaldehyde
Formula: C10H10O3
Exact mass: 178.0630
SMILES: COC1=CC(\C=C\C=O)=CC=C1O
InChI: InChI=1S/C10H10O3/c1-13-10-7-8(3-2-6-11)4-5-9(10)12/h2-7,12H,1H3/b3-2+
Instrument: LTQ Orbitrap XL Thermo Scientific
Instrument type: LC-ESI-ITFT
Ms type: MS2
Ion mode: POSITIVE
Ionization: ESI
Fragmentation mode: CID
Collision energy: 65 % (nominal)
Resolution: 15000
Column name: Kinetex Evo C18 2.6 um 50 x 2.1 mm
Retention time: 7.512 min
Base peak: 179.0702
Precursor m/z: 179.0703
Precursor type: [M+H]+
m/z	relative intensity	assigned
55.0179	7	C3H3O+
95.0493	10	C6H7O+
105.07	27	C8H9+
115.0544	7	C9H7+
119.0493	33	C8H7O+
123.0442	25	C7H7O2+
133.065	116	C9H9O+
135.0442	9	C8H7O2+
137.0599	8	C8H9O2+
147.0443	999	C9H7O2+
149.06	5	C9H9O2+
151.0756	15	C9H11O2+
161.0599	990	C10H9O2+
