Mass spectrum: Valerophenone; LC-ESI-ITFT; MS2; CE: 110%; R=15000; [M+H]+
Name: Valerophenone
Formula: C11H14O
Exact mass: 162.1045
SMILES: CCCCC(=O)C1=CC=CC=C1
InChI: InChI=1S/C11H14O/c1-2-3-9-11(12)10-7-5-4-6-8-10/h4-8H,2-3,9H2,1H3
Instrument: LTQ Orbitrap XL Thermo Scientific
Instrument type: LC-ESI-ITFT
Ms type: MS2
Ion mode: POSITIVE
Ionization: ESI
Fragmentation mode: HCD
Collision energy: 110 % (nominal)
Resolution: 15000
Column name: Kinetex Evo C18 2.6 um 50 x 2.1 mm
Retention time: 11.591 min
Base peak: 440.3518
Precursor m/z: 163.1117
Precursor type: [M+H]+
m/z	relative intensity	assigned
77.0386	269	C6H5+
79.0543	999	C6H7+
91.0542	600	C7H7+
103.0542	153	C8H7+
105.0698	79	C8H9+
115.0542	88	C9H7+
117.0699	51	C9H9+
