Mass spectrum: (+)-Costunolide; LC-ESI-ITFT; MS2; CE: 95%; R=15000; [M+H]+
Name: (+)-Costunolide
Name: Costunolide
Name: (3aS,6E,10E,11aR)-6,10-dimethyl-3-methylidene-3a,4,5,8,9,11a-hexahydrocyclodeca[b]furan-2-one
Formula: C15H20O2
Exact mass: 232.1463
SMILES: C/C/1=C\CC/C(=C/[C@@H]2[C@@H](CC1)C(=C)C(=O)O2)/C
InChI: InChI=1S/C15H20O2/c1-10-5-4-6-11(2)9-14-13(8-7-10)12(3)15(16)17-14/h5,9,13-14H,3-4,6-8H2,1-2H3/b10-5+,11-9+/t13-,14+/m0/s1
Instrument: LTQ Orbitrap XL Thermo Scientific
Instrument type: LC-ESI-ITFT
Ms type: MS2
Ion mode: POSITIVE
Ionization: ESI
Fragmentation mode: HCD
Collision energy: 95% (nominal)
Resolution: 15000
Column name: Kinetex Evo C18 2.6 um 50 x 2.1 mm
Retention time: 11.752 min
Base peak: 116.9859
Precursor m/z: 233.1536
Precursor type: [M+H]+
m/z	relative intensity	assigned
55.0541	31	C4H7+
67.0542	172	C5H7+
69.0699	65	C5H9+
77.0386	85	C6H5+
79.0543	336	C6H7+
81.0699	363	C6H9+
91.0543	993	C7H7+
93.07	392	C7H9+
95.0856	219	C7H11+
103.0542	94	C8H7+
105.07	999	C8H9+
107.0856	234	C8H11+
109.0652	20	C7H9O+
109.1009	29	C8H13+
115.0543	101	C9H7+
116.0622	109	C9H8+
117.0699	396	C9H9+
119.0856	337	C9H11+
121.0648	44	C8H9O+
121.1013	36	C9H13+
128.0623	48	C10H8+
129.0698	171	C10H9+
130.0779	178	C10H10+
131.0856	651	C10H11+
133.1012	108	C10H13+
143.0856	125	C11H11+
144.0933	59	C11H12+
145.1013	412	C11H13+
146.1092	24	C11H14+
155.0858	21	C12H11+
157.1015	87	C12H13+
159.117	117	C12H15+
167.0857	44	C13H11+
187.148	49	C14H19+
