Mass spectrum: Harmine; LC-ESI-ITFT; MS2; CE: 15%; R=15000; [M+H]+
Name: Harmine
Name: 7-methoxy-1-methyl-9H-pyrido[3,4-b]indole
Formula: C13H12N2O
Exact mass: 212.0950
SMILES: COC1=CC2=C(C=C1)C1=C(N2)C(C)=NC=C1
InChI: InChI=1S/C13H12N2O/c1-8-13-11(5-6-14-8)10-4-3-9(16-2)7-12(10)15-13/h3-7,15H,1-2H3
Instrument: LTQ Orbitrap XL Thermo Scientific
Instrument type: LC-ESI-ITFT
Ms type: MS2
Ion mode: POSITIVE
Ionization: ESI
Fragmentation mode: CID
Collision energy: 15 % (nominal)
Resolution: 15000
Column name: Kinetex Evo C18 2.6 um 50 x 2.1 mm
Retention time: 6.617 min
Base peak: 213.1031
Precursor m/z: 213.1022
Precursor type: [M+H]+
m/z	relative intensity	assigned
198.0787	2	C12H10N2O+
213.1025	999	C13H13N2O+
