Mass spectrum: Alpinetin; LC-ESI-ITFT; MS2; CE: 50%; R=15000; [M+H]+
Name: Alpinetin
Formula: C16H14O4
Exact mass: 270.0892
SMILES: COC1=C2C(=O)CC(OC2=CC(=C1)O)C3=CC=CC=C3
InChI: InChI=1S/C16H14O4/c1-19-14-7-11(17)8-15-16(14)12(18)9-13(20-15)10-5-3-2-4-6-10/h2-8,13,17H,9H2,1H3
Instrument: LTQ Orbitrap XL Thermo Scientific
Instrument type: LC-ESI-ITFT
Ms type: MS2
Ion mode: POSITIVE
Ionization: ESI
Fragmentation mode: HCD
Collision energy: 50 % (nominal)
Resolution: 15000
Column name: Kinetex Evo C18 2.6 um 50 x 2.1 mm
Retention time: 10.235 min
Base peak: 271.0964
Precursor m/z: 271.0965
Precursor type: [M+H]+
m/z	relative intensity	assigned
55.0177	1	C3H3O+
68.9971	2	C3HO2+
79.0543	2	C6H7+
91.0542	12	C7H7+
99.0437	1	C5H7O2+
103.0542	37	C8H7+
105.0336	1	C7H5O+
107.0491	2	C7H7O+
111.0437	1	C6H7O2+
124.0153	3	C6H4O3+
131.0491	127	C9H7O+
137.0594	2	C8H9O2+
139.0389	1	C7H7O3+
152.0104	14	C7H4O4+
165.0547	2	C9H9O3+
167.0339	999	C8H7O4+
229.0853	2	C14H13O3+
271.0964	8	C16H15O4+
