Mass spectrum: Solasodin; LC-ESI-ITFT; MS2; CE: 50%; R=15000; [M+H]+
Name: Solasodin
Name: Solasodine
Formula: C27H43NO2
Exact mass: 413.3294
SMILES: C[C@@H]1CC[C@@]2([C@H]([C@H]3[C@@H](O2)C[C@@H]4[C@@]3(CC[C@H]5[C@H]4CC=C6[C@@]5(CC[C@@H](C6)O)C)C)C)NC1
InChI: InChI=1S/C27H43NO2/c1-16-7-12-27(28-15-16)17(2)24-23(30-27)14-22-20-6-5-18-13-19(29)8-10-25(18,3)21(20)9-11-26(22,24)4/h5,16-17,19-24,28-29H,6-15H2,1-4H3/t16-,17+,19+,20-,21+,22+,23+,24+,25+,26+,27-/m1/s1
Instrument: LTQ Orbitrap XL Thermo Scientific
Instrument type: LC-ESI-ITFT
Ms type: MS2
Ion mode: POSITIVE
Ionization: ESI
Fragmentation mode: HCD
Collision energy: 50% (nominal)
Resolution: 15000
Column name: Kinetex Evo C18 2.6 um 50 x 2.1 mm
Retention time: 10.837 min
Base peak: 414.3361
Precursor m/z: 414.3367
Precursor type: [M+H]+
m/z	relative intensity	assigned
55.054	5	C4H7+
67.0542	31	C5H7+
69.0699	14	C5H9+
70.0651	163	C4H8N+
79.0543	24	C6H7+
81.0699	68	C6H9+
86.0965	8	C5H12N+
91.0542	15	C7H7+
93.07	57	C7H9+
95.0856	71	C7H11+
96.0808	24	C6H10N+
97.0648	14	C6H9O+
98.0966	20	C6H12N+
105.07	34	C8H9+
107.0856	146	C8H11+
109.1012	256	C8H13+
114.0913	191	C6H12NO+
117.0699	10	C9H9+
119.0856	67	C9H11+
121.1012	235	C9H13+
123.1169	27	C9H15+
124.1121	296	C8H14N+
125.096	4	C8H13O+
126.1278	386	C8H16N+
127.1117	13	C8H15O+
129.0698	8	C10H9+
131.0856	85	C10H11+
133.1012	209	C10H13+
135.1169	48	C10H15+
137.0961	9	C9H13O+
143.0856	60	C11H11+
144.1387	7	C8H18NO+
145.1012	146	C11H13+
147.1169	310	C11H15+
149.0962	24	C10H13O+
149.1324	15	C11H17+
151.1117	71	C10H15O+
155.0855	8	C12H11+
157.1012	420	C12H13+
159.1169	290	C12H15+
161.0959	9	C11H13O+
161.1325	25	C12H17+
163.1119	37	C11H15O+
164.1433	12	C11H18N+
165.1274	10	C11H17O+
168.1383	10	C10H18NO+
169.1014	13	C13H13+
171.1169	116	C13H15+
173.1325	68	C13H17+
175.1118	231	C12H15O+
177.1274	36	C12H17O+
183.1169	37	C14H15+
185.1325	43	C14H17+
187.1483	18	C14H19+
197.1325	87	C15H17+
199.1484	14	C15H19+
211.1482	95	C16H19+
213.164	47	C16H21+
224.1565	13	C17H20+
225.1641	42	C17H21+
227.1794	7	C17H23+
238.1716	16	C18H22+
242.1661	6	C17H22O+
253.1951	999	C19H25+
271.2057	387	C19H27O+
396.3262	713	C27H42NO+
414.3367	757	C27H44NO2+
