Mass spectrum: Monocrotaline; LC-ESI-ITFT; MS2; CE: 90%; R=15000; [M+H]+
Name: Monocrotaline
Name: (1R,4R,5R,6R,16R)-5,6-dihydroxy-4,5,6-trimethyl-2,8-dioxa-13-azatricyclo[8.5.1.013,16]hexadec-10-ene-3,7-dione
Formula: C16H23NO6
Exact mass: 325.1525
SMILES: C[C@H]1C(=O)O[C@@H]2CCN3[C@@H]2C(=CC3)COC(=O)[C@]([C@]1(C)O)(C)O
InChI: InChI=1S/C16H23NO6/c1-9-13(18)23-11-5-7-17-6-4-10(12(11)17)8-22-14(19)16(3,21)15(9,2)20/h4,9,11-12,20-21H,5-8H2,1-3H3/t9-,11+,12+,15+,16-/m0/s1
Instrument: LTQ Orbitrap XL Thermo Scientific
Instrument type: LC-ESI-ITFT
Ms type: MS2
Ion mode: POSITIVE
Ionization: ESI
Fragmentation mode: HCD
Collision energy: 90% (nominal)
Resolution: 15000
Column name: Kinetex Evo C18 2.6 um 50 x 2.1 mm
Retention time: 0.629 min
Base peak: 326.1597
Precursor m/z: 326.1598
Precursor type: [M+H]+
m/z	relative intensity	assigned
67.0416	152	C4H5N+
67.0542	74	C5H7+
68.0494	98	C4H6N+
77.0388	15	C6H5+
79.0543	65	C6H7+
80.0495	174	C5H6N+
81.0573	44	C5H7N+
81.0702	25	C6H9+
82.0652	84	C5H8N+
86.0601	33	C4H8NO+
91.0542	78	C7H7+
93.0574	70	C6H7N+
93.0699	95	C7H9+
94.0652	662	C6H8N+
95.073	269	C6H9N+
96.0808	129	C6H10N+
103.0543	33	C8H7+
106.0653	75	C7H8N+
108.0808	99	C7H10N+
110.06	19	C6H8NO+
110.0965	23	C7H12N+
112.0754	20	C6H10NO+
118.0653	36	C8H8N+
120.0809	999	C8H10N+
121.0887	191	C8H11N+
122.0965	149	C8H12N+
138.0914	155	C8H12NO+
139.0994	36	C8H13NO+
156.1021	60	C8H14NO2+
184.0975	17	C9H14NO3+
194.1175	45	C11H16NO2+
