Mass spectrum: Huperzin A; LC-ESI-ITFT; MS2; CE: 50%; R=15000; [M+H]+
Name: Huperzin A
Name: (-)-Huperazine A
Name: (1R,9R,13E)-1-amino-13-ethylidene-11-methyl-6-azatricyclo[7.3.1.02,7]trideca-2(7),3,10-trien-5-one
Formula: C15H18N2O
Exact mass: 242.1419
SMILES: C/C=C/1\[C@@H]2CC3=C([C@]1(CC(=C2)C)N)C=CC(=O)N3
InChI: InChI=1S/C15H18N2O/c1-3-11-10-6-9(2)8-15(11,16)12-4-5-14(18)17-13(12)7-10/h3-6,10H,7-8,16H2,1-2H3,(H,17,18)/b11-3+/t10-,15+/m0/s1
Instrument: LTQ Orbitrap XL Thermo Scientific
Instrument type: LC-ESI-ITFT
Ms type: MS2
Ion mode: POSITIVE
Ionization: ESI
Fragmentation mode: HCD
Collision energy: 50% (nominal)
Resolution: 15000
Column name: Kinetex Evo C18 2.6 um 50 x 2.1 mm
Retention time: 1.536 min
Base peak: 143.0015
Precursor m/z: 243.1492
Precursor type: [M+H]+
m/z	relative intensity	assigned
110.06	14	C6H8NO+
181.1015	15	C14H13+
184.075	19	C12H10NO+
187.0864	11	C11H11N2O+
196.0757	16	C13H10NO+
197.0834	33	C13H11NO+
198.1272	14	C14H16N+
208.1121	44	C15H14N+
210.0912	45	C14H12NO+
211.0995	33	C14H13NO+
224.1067	33	C15H14NO+
226.1225	356	C15H16NO+
227.1182	23	C14H15N2O+
228.1262	21	C14H16N2O+
243.1491	999	C15H19N2O+
