Mass spectrum: alpha-Cyperone; LC-ESI-ITFT; MS2; CE: 65%; R=15000; [M+H]+
Name: alpha-Cyperone
Formula: C15H22O
Exact mass: 218.1671
SMILES: CC1=C2CC(CCC2(CCC1=O)C)C(=C)C
InChI: InChI=1S/C15H22O/c1-10(2)12-5-7-15(4)8-6-14(16)11(3)13(15)9-12/h12H,1,5-9H2,2-4H3
Instrument: LTQ Orbitrap XL Thermo Scientific
Instrument type: LC-ESI-ITFT
Ms type: MS2
Ion mode: POSITIVE
Ionization: ESI
Fragmentation mode: CID
Collision energy: 65 % (nominal)
Resolution: 15000
Column name: Kinetex Evo C18 2.6 um 50 x 2.1 mm
Retention time: 13.126 min
Base peak: 219.174
Precursor m/z: 219.1743
Precursor type: [M+H]+
m/z	relative intensity	assigned
67.0542	22	C5H7+
69.0336	2	C4H5O+
69.0699	4	C5H9+
77.0388	2	C6H5+
79.0543	18	C6H7+
81.0699	52	C6H9+
91.0543	18	C7H7+
93.0699	59	C7H9+
95.0856	175	C7H11+
97.0649	234	C6H9O+
99.0807	2	C6H11O+
105.0699	120	C8H9+
107.0856	144	C8H11+
109.0649	25	C7H9O+
109.1012	329	C8H13+
111.0805	334	C7H11O+
117.07	10	C9H9+
119.0856	184	C9H11+
121.0649	26	C8H9O+
121.1013	145	C9H13+
123.0805	167	C8H11O+
123.1169	124	C9H15+
125.0962	36	C8H13O+
131.0856	88	C10H11+
133.1013	66	C10H13+
135.0805	139	C9H11O+
135.1169	108	C10H15+
137.0962	56	C9H13O+
137.1328	7	C10H17+
139.1119	9	C9H15O+
143.0849	2	C11H11+
145.1013	435	C11H13+
147.117	206	C11H15+
149.0962	131	C10H13O+
149.1326	41	C11H17+
151.112	10	C10H15O+
159.1171	421	C12H15+
161.1327	308	C12H17+
162.1039	7	C11H14O+
163.1119	999	C11H15O+
173.1327	336	C13H17+
175.1483	93	C13H19+
176.1198	18	C12H16O+
177.1276	91	C12H17O+
177.164	53	C13H21+
191.1432	34	C13H19O+
191.1796	62	C14H23+
201.1639	877	C15H21+
204.1508	13	C14H20O+
