Mass spectrum: Pterosin B; LC-ESI-ITFT; MS2; CE: 50%; R=15000; [M+H]+
Name: Pterosin B
Name: (2R)-6-(2-hydroxyethyl)-2,5,7-trimethyl-2,3-dihydroinden-1-one
Formula: C14H18O2
Exact mass: 218.1307
SMILES: C[C@@H]1CC2=C(C1=O)C(=C(C(=C2)C)CCO)C
InChI: InChI=1S/C14H18O2/c1-8-6-11-7-9(2)14(16)13(11)10(3)12(8)4-5-15/h6,9,15H,4-5,7H2,1-3H3/t9-/m1/s1
Instrument: LTQ Orbitrap XL Thermo Scientific
Instrument type: LC-ESI-ITFT
Ms type: MS2
Ion mode: POSITIVE
Ionization: ESI
Fragmentation mode: CID
Collision energy: 50 % (nominal)
Resolution: 15000
Column name: Kinetex Evo C18 2.6 um 50 x 2.1 mm
Retention time: 10.332 min
Base peak: 219.1371
Precursor m/z: 219.138
Precursor type: [M+H]+
m/z	relative intensity	assigned
119.0854	1	C9H11+
131.0854	3	C10H11+
133.1008	1	C10H13+
143.0851	1	C11H11+
145.101	9	C11H13+
149.096	2	C10H13O+
155.0855	5	C12H11+
157.1011	3	C12H13+
159.0804	1	C11H11O+
159.1167	7	C12H15+
163.1117	9	C11H15O+
168.0933	10	C13H12+
171.1167	2	C13H15+
173.096	7	C12H13O+
173.1324	38	C13H17+
183.1167	61	C14H15+
186.1037	3	C13H14O+
191.143	8	C13H19O+
199.1118	13	C14H15O+
201.1271	999	C14H17O+
219.1377	3	C14H19O2+
