Mass spectrum: Seneciphylline; LC-ESI-ITFT; MS2; CE: 90%; R=15000; [M+H]+
Name: Seneciphylline
Name: (1R,4Z,7R,17R)-4-ethylidene-7-hydroxy-7-methyl-6-methylidene-2,9-dioxa-14-azatricyclo[9.5.1.014,17]heptadec-11-ene-3,8-dione
Formula: C18H23NO5
Exact mass: 333.1576
SMILES: C/C=C\1/CC(=C)[C@@](C(=O)OCC2=CCN3[C@H]2[C@@H](CC3)OC1=O)(C)O
InChI: InChI=1S/C18H23NO5/c1-4-12-9-11(2)18(3,22)17(21)23-10-13-5-7-19-8-6-14(15(13)19)24-16(12)20/h4-5,14-15,22H,2,6-10H2,1,3H3/b12-4-/t14-,15-,18-/m1/s1
Instrument: LTQ Orbitrap XL Thermo Scientific
Instrument type: LC-ESI-ITFT
Ms type: MS2
Ion mode: POSITIVE
Ionization: ESI
Fragmentation mode: HCD
Collision energy: 90% (nominal)
Resolution: 15000
Column name: Kinetex Evo C18 2.6 um 50 x 2.1 mm
Retention time: 2.026 min
Base peak: 143.0016
Precursor m/z: 334.1649
Precursor type: [M+H]+
m/z	relative intensity	assigned
65.0386	64	C5H5+
67.0417	40	C4H5N+
67.0542	386	C5H7+
68.0495	140	C4H6N+
77.0386	175	C6H5+
79.0543	244	C6H7+
80.0495	361	C5H6N+
81.0574	93	C5H7N+
81.0699	198	C6H9+
82.0652	248	C5H8N+
84.0443	27	C4H6NO+
91.0542	471	C7H7+
92.0495	91	C6H6N+
93.0573	84	C6H7N+
93.0699	212	C7H9+
94.0652	999	C6H8N+
95.0491	48	C6H7O+
95.0728	41	C6H9N+
95.0855	100	C7H11+
96.0808	245	C6H10N+
103.0542	158	C8H7+
105.0573	70	C7H7N+
105.0699	187	C8H9+
106.0652	91	C7H8N+
107.0489	21	C7H7O+
107.0729	98	C7H9N+
108.0808	269	C7H10N+
109.0648	237	C7H9O+
110.0599	36	C6H8NO+
110.0965	89	C7H12N+
112.0757	41	C6H10NO+
118.0652	167	C8H8N+
119.0729	46	C8H9N+
120.0808	464	C8H10N+
122.0967	51	C8H12N+
123.0805	44	C8H11O+
129.0705	21	C10H9+
138.0914	166	C8H12NO+
156.1025	31	C8H14NO2+
