Mass spectrum: (+)-Isocorydin; LC-ESI-ITFT; MS2; CE: 35%; R=15000; [M+H]+
Name: (+)-Isocorydin
Name: Isocorydine
Name: (6aS)-1,2,10-trimethoxy-6-methyl-5,6,6a,7-tetrahydro-4H-dibenzo[de,g]quinolin-11-ol
Formula: C20H23NO4
Exact mass: 341.1627
SMILES: CN1CCC2=CC(=C(C3=C2[C@@H]1CC4=C3C(=C(C=C4)OC)O)OC)OC
InChI: InChI=1S/C20H23NO4/c1-21-8-7-12-10-15(24-3)20(25-4)18-16(12)13(21)9-11-5-6-14(23-2)19(22)17(11)18/h5-6,10,13,22H,7-9H2,1-4H3/t13-/m0/s1
Instrument: LTQ Orbitrap XL Thermo Scientific
Instrument type: LC-ESI-ITFT
Ms type: MS2
Ion mode: POSITIVE
Ionization: ESI
Fragmentation mode: HCD
Collision energy: 35% (nominal)
Resolution: 15000
Column name: Kinetex Evo C18 2.6 um 50 x 2.1 mm
Retention time: 6.305 min
Base peak: 342.1697
Precursor m/z: 342.17
Precursor type: [M+H]+
m/z	relative intensity	assigned
191.0849	3	C15H11+
219.0804	9	C16H11O+
221.0964	2	C16H13O+
223.1115	4	C16H15O+
233.0965	2	C17H13O+
236.083	27	C16H12O2+
247.0753	53	C17H11O2+
248.0831	196	C17H12O2+
251.1064	152	C17H15O2+
253.0863	2	C16H13O3+
261.091	6	C18H13O2+
262.0988	10	C18H14O2+
264.0779	58	C17H12O3+
265.0864	10	C17H13O3+
267.1013	58	C17H15O3+
268.1102	4	C17H16O3+
278.0937	2	C18H14O3+
279.1014	999	C18H15O3+
280.1091	219	C18H16O3+
281.0805	8	C17H13O4+
284.1044	4	C17H16O4+
293.1177	1	C19H17O3+
294.126	2	C19H18O3+
296.1041	228	C18H16O4+
299.1275	10	C18H19O4+
311.1276	547	C19H19O4+
313.1443	4	C19H21O4+
342.1697	159	C20H24NO4+
