Mass spectrum: Galantamine; LC-ESI-ITFT; MS2; CE: 20%; R=15000; [M+H]+
Name: Galantamine
Formula: C17H21NO3
Exact mass: 287.1521
SMILES: CN1CCC23C=CC(CC2OC4=C(C=CC(=C34)C1)OC)O
InChI: InChI=1S/C17H21NO3/c1-18-8-7-17-6-5-12(19)9-14(17)21-16-13(20-2)4-3-11(10-18)15(16)17/h3-6,12,14,19H,7-10H2,1-2H3
Instrument: LTQ Orbitrap XL Thermo Scientific
Instrument type: LC-ESI-ITFT
Ms type: MS2
Ion mode: POSITIVE
Ionization: ESI
Fragmentation mode: HCD
Collision energy: 20 % (nominal)
Resolution: 15000
Column name: Kinetex Evo C18 2.6 um 50 x 2.1 mm
Retention time: 0.580 min
Base peak: 235.2166
Precursor m/z: 288.1594
Precursor type: [M+H]+
m/z	relative intensity	assigned
213.0909	25	C14H13O2+
225.0907	25	C15H13O2+
231.1015	93	C14H15O3+
270.1484	45	C17H20NO2+
288.1592	999	C17H22NO3+
