Mass spectrum: (+)-Costunolide; LC-ESI-ITFT; MS2; CE: 60%; R=15000; [M+H]+
Name: (+)-Costunolide
Name: Costunolide
Name: (3aS,6E,10E,11aR)-6,10-dimethyl-3-methylidene-3a,4,5,8,9,11a-hexahydrocyclodeca[b]furan-2-one
Formula: C15H20O2
Exact mass: 232.1463
SMILES: C/C/1=C\CC/C(=C/[C@@H]2[C@@H](CC1)C(=C)C(=O)O2)/C
InChI: InChI=1S/C15H20O2/c1-10-5-4-6-11(2)9-14-13(8-7-10)12(3)15(16)17-14/h5,9,13-14H,3-4,6-8H2,1-2H3/b10-5+,11-9+/t13-,14+/m0/s1
Instrument: LTQ Orbitrap XL Thermo Scientific
Instrument type: LC-ESI-ITFT
Ms type: MS2
Ion mode: POSITIVE
Ionization: ESI
Fragmentation mode: HCD
Collision energy: 60% (nominal)
Resolution: 15000
Column name: Kinetex Evo C18 2.6 um 50 x 2.1 mm
Retention time: 11.767 min
Base peak: 116.9858
Precursor m/z: 233.1536
Precursor type: [M+H]+
m/z	relative intensity	assigned
67.0542	48	C5H7+
69.0698	36	C5H9+
79.0543	85	C6H7+
81.0699	306	C6H9+
91.0542	165	C7H7+
93.0699	314	C7H9+
95.0855	330	C7H11+
97.0649	25	C6H9O+
105.0699	476	C8H9+
107.0855	319	C8H11+
109.1011	90	C8H13+
111.0804	19	C7H11O+
117.0699	103	C9H9+
119.0488	14	C8H7O+
119.0856	224	C9H11+
121.065	37	C8H9O+
121.1012	108	C9H13+
125.0601	21	C7H9O2+
129.0694	14	C10H9+
131.0855	612	C10H11+
133.0648	25	C9H9O+
133.1012	171	C10H13+
135.0802	22	C9H11O+
135.1169	27	C10H15+
139.0754	32	C8H11O2+
143.0855	38	C11H11+
145.1012	619	C11H13+
147.1168	117	C11H15+
149.0594	26	C9H9O2+
149.0957	12	C10H13O+
155.0856	50	C12H11+
157.1013	15	C12H13+
158.1088	11	C12H14+
159.0804	48	C11H11O+
159.1169	299	C12H15+
161.1326	201	C12H17+
163.0754	39	C10H11O2+
169.1012	31	C13H13+
171.1172	21	C13H15+
172.1247	32	C13H16+
173.0963	50	C12H13O+
173.133	19	C13H17+
177.091	84	C11H13O2+
182.1089	31	C14H14+
187.1481	999	C14H19+
191.1065	28	C12H15O2+
197.1325	52	C15H17+
215.1429	102	C15H19O+
233.1536	58	C15H21O2+
