Mass spectrum: Erucifoline N-oxide; LC-ESI-ITFT; MS2; CE: 35%; R=15000; [M+H]+
Name: Erucifoline N-oxide
Name: (5R,7S,9Z,12R,18R)-9-ethylidene-7-(hydroxymethyl)-5-methyl-15-oxido-3,6,11-trioxa-15-azoniatetracyclo[10.5.1.05,7.015,18]octadec-1(17)-ene-4,10-dione
Formula: C18H23NO7
Exact mass: 365.1475
SMILES: C/C=C\1/C[C@@]2([C@@](O2)(C(=O)OCC3=CC[N+]4([C@H]3[C@@H](CC4)OC1=O)[O-])C)CO
InChI: InChI=1S/C18H23NO7/c1-3-11-8-18(10-20)17(2,26-18)16(22)24-9-12-4-6-19(23)7-5-13(14(12)19)25-15(11)21/h3-4,13-14,20H,5-10H2,1-2H3/b11-3-/t13-,14-,17+,18+,19?/m1/s1
Instrument: LTQ Orbitrap XL Thermo Scientific
Instrument type: LC-ESI-ITFT
Ms type: MS2
Ion mode: POSITIVE
Ionization: ESI
Fragmentation mode: HCD
Collision energy: 35% (nominal)
Resolution: 15000
Column name: Kinetex Evo C18 2.6 um 50 x 2.1 mm
Retention time: 1.127 min
Base peak: 366.1547
Precursor m/z: 366.1547
Precursor type: [M+H]+
m/z	relative intensity	assigned
80.0495	1	C5H6N+
93.0573	4	C6H7N+
94.0652	7	C6H8N+
95.073	9	C6H9N+
106.0651	3	C7H8N+
107.073	1	C7H9N+
108.0807	5	C7H10N+
109.0643	1	C7H9O+
112.0757	2	C6H10NO+
118.0652	51	C8H8N+
119.073	58	C8H9N+
120.0808	37	C8H10N+
121.0886	6	C8H11N+
122.0964	5	C8H12N+
123.1044	1	C8H13N+
125.0598	1	C7H9O2+
136.0757	31	C8H10NO+
137.0599	1	C8H9O2+
137.0835	6	C8H11NO+
138.0915	9	C8H12NO+
140.1072	2	C8H14NO+
154.0863	20	C8H12NO2+
164.107	3	C10H14NO+
165.0548	3	C9H9O3+
165.0787	1	C9H11NO2+
183.0653	2	C9H11O4+
190.1224	1	C12H16NO+
218.1175	7	C13H16NO2+
220.1335	1	C13H18NO2+
262.1436	1	C15H20NO3+
278.1389	5	C15H20NO4+
288.1597	1	C17H22NO3+
290.1378	1	C16H20NO4+
304.1553	2	C17H22NO4+
338.1611	3	C17H24NO6+
366.1548	999	C18H24NO7+
