Mass spectrum: Heliotrine; LC-ESI-ITFT; MS2; CE: 85%; R=15000; [M+H]+
Name: Heliotrine
Name: [(7S,8R)-7-hydroxy-5,6,7,8-tetrahydro-3H-pyrrolizin-1-yl]methyl (2S)-2-hydroxy-2-[(1R)-1-methoxyethyl]-3-methylbutanoate
Formula: C16H27NO5
Exact mass: 313.1889
SMILES: C[C@H]([C@@](C(C)C)(C(=O)OCC1=CCN2[C@H]1[C@H](CC2)O)O)OC
InChI: InChI=1S/C16H27NO5/c1-10(2)16(20,11(3)21-4)15(19)22-9-12-5-7-17-8-6-13(18)14(12)17/h5,10-11,13-14,18,20H,6-9H2,1-4H3/t11-,13+,14-,16+/m1/s1
Instrument: LTQ Orbitrap XL Thermo Scientific
Instrument type: LC-ESI-ITFT
Ms type: MS2
Ion mode: POSITIVE
Ionization: ESI
Fragmentation mode: HCD
Collision energy: 85% (nominal)
Resolution: 15000
Column name: Kinetex Evo C18 2.6 um 50 x 2.1 mm
Retention time: 1.773 min
Base peak: 143.0015
Precursor m/z: 314.1962
Precursor type: [M+H]+
m/z	relative intensity	assigned
65.0387	16	C5H5+
67.0416	76	C4H5N+
67.0542	82	C5H7+
68.0495	49	C4H6N+
69.07	12	C5H9+
79.0542	32	C6H7+
80.0495	265	C5H6N+
81.0573	75	C5H7N+
81.0699	47	C6H9+
82.0652	541	C5H8N+
86.06	77	C4H8NO+
91.0542	55	C7H7+
92.0496	49	C6H6N+
93.0572	20	C6H7N+
93.0699	32	C7H9+
94.0652	951	C6H8N+
95.0729	222	C6H9N+
96.0808	335	C6H10N+
103.0543	51	C8H7+
105.0573	16	C7H7N+
108.0808	739	C7H10N+
109.0646	27	C7H9O+
110.0601	81	C6H8NO+
110.0965	26	C7H12N+
112.0757	149	C6H10NO+
118.0653	57	C8H8N+
119.0731	14	C8H9N+
120.0808	999	C8H10N+
126.0914	27	C7H12NO+
138.0914	773	C8H12NO+
139.0992	50	C8H13NO+
156.102	920	C8H14NO2+
