Mass spectrum: Erucifoline N-oxide; LC-ESI-ITFT; MS2; CE: 65%; R=15000; [M+H]+
Name: Erucifoline N-oxide
Name: (5R,7S,9Z,12R,18R)-9-ethylidene-7-(hydroxymethyl)-5-methyl-15-oxido-3,6,11-trioxa-15-azoniatetracyclo[10.5.1.05,7.015,18]octadec-1(17)-ene-4,10-dione
Formula: C18H23NO7
Exact mass: 365.1475
SMILES: C/C=C\1/C[C@@]2([C@@](O2)(C(=O)OCC3=CC[N+]4([C@H]3[C@@H](CC4)OC1=O)[O-])C)CO
InChI: InChI=1S/C18H23NO7/c1-3-11-8-18(10-20)17(2,26-18)16(22)24-9-12-4-6-19(23)7-5-13(14(12)19)25-15(11)21/h3-4,13-14,20H,5-10H2,1-2H3/b11-3-/t13-,14-,17+,18+,19?/m1/s1
Instrument: LTQ Orbitrap XL Thermo Scientific
Instrument type: LC-ESI-ITFT
Ms type: MS2
Ion mode: POSITIVE
Ionization: ESI
Fragmentation mode: HCD
Collision energy: 65% (nominal)
Resolution: 15000
Column name: Kinetex Evo C18 2.6 um 50 x 2.1 mm
Retention time: 1.120 min
Base peak: 366.1547
Precursor m/z: 366.1547
Precursor type: [M+H]+
m/z	relative intensity	assigned
53.0385	21	C4H5+
67.0542	41	C5H7+
68.0494	12	C4H6N+
69.0335	8	C4H5O+
70.065	6	C4H8N+
77.0386	12	C6H5+
79.0543	58	C6H7+
80.0495	93	C5H6N+
81.0335	17	C5H5O+
81.0573	28	C5H7N+
81.0698	54	C6H9+
82.0651	26	C5H8N+
83.0491	23	C5H7O+
84.0443	21	C4H6NO+
91.0542	71	C7H7+
92.0495	12	C6H6N+
93.0573	424	C6H7N+
93.0699	36	C7H9+
94.0651	881	C6H8N+
95.0491	28	C6H7O+
95.073	131	C6H9N+
95.0857	12	C7H11+
96.0445	15	C5H6NO+
96.0809	7	C6H10N+
97.0648	24	C6H9O+
98.0601	66	C5H8NO+
99.0439	9	C5H7O2+
105.0699	18	C8H9+
106.0651	123	C7H8N+
107.049	15	C7H7O+
107.0731	27	C7H9N+
107.0857	14	C8H11+
108.0808	238	C7H10N+
109.0525	9	C6H7NO+
109.0648	87	C7H9O+
109.0887	49	C7H11N+
110.06	27	C6H8NO+
111.0442	24	C6H7O2+
112.0758	73	C6H10NO+
117.0571	15	C8H7N+
118.0651	698	C8H8N+
119.073	717	C8H9N+
120.0808	690	C8H10N+
121.0649	35	C8H9O+
121.0885	31	C8H11N+
122.06	10	C7H8NO+
122.0964	112	C8H12N+
123.0441	49	C7H7O2+
123.0677	10	C7H9NO+
123.0802	26	C8H11O+
124.0756	22	C7H10NO+
125.0597	36	C7H9O2+
126.091	10	C7H12NO+
132.0808	16	C9H10N+
134.0602	10	C8H8NO+
134.0964	18	C9H12N+
136.0757	999	C8H10NO+
137.0599	32	C8H9O2+
137.0835	84	C8H11NO+
138.0913	137	C8H12NO+
139.0389	14	C7H7O3+
139.0753	81	C8H11O2+
140.1069	13	C8H14NO+
141.0546	37	C7H9O3+
144.0806	13	C10H10N+
146.0964	34	C10H12N+
148.1119	16	C10H14N+
149.0597	25	C9H9O2+
151.0388	7	C8H7O3+
151.0753	35	C9H11O2+
152.0707	14	C8H10NO2+
154.0863	78	C8H12NO2+
158.0967	9	C11H12N+
160.1122	10	C11H14N+
162.0914	28	C10H12NO+
164.1071	120	C10H14NO+
165.0546	44	C9H9O3+
167.0706	8	C9H11O3+
172.1117	17	C12H14N+
176.1075	10	C11H14NO+
178.1228	7	C11H16NO+
183.0652	25	C9H11O4+
188.1071	17	C12H14NO+
190.0862	9	C11H12NO2+
190.1227	52	C12H16NO+
199.0964	37	C10H15O4+
204.1016	8	C12H14NO2+
209.1172	40	C12H17O3+
216.139	7	C14H18NO+
218.1176	34	C13H16NO2+
220.1334	23	C13H18NO2+
232.133	8	C14H18NO2+
244.1329	10	C15H18NO2+
278.138	24	C15H20NO4+
366.1543	34	C18H24NO7+
