Mass spectrum: Cortisone; LC-ESI-ITFT; MS2; CE: 100%; R=15000; [M+H]+
Name: Cortisone
Name: (8S,9S,10R,13S,14S,17R)-17-hydroxy-17-(2-hydroxyacetyl)-10,13-dimethyl-1,2,6,7,8,9,12,14,15,16-decahydrocyclopenta[a]phenanthrene-3,11-dione
Formula: C21H28O5
Exact mass: 360.1937
SMILES: C[C@]12CC(=O)[C@H]3[C@@H](CCC4=CC(=O)CC[C@]34C)[C@@H]1CC[C@]2(O)C(=O)CO
InChI: InChI=1S/C21H28O5/c1-19-7-5-13(23)9-12(19)3-4-14-15-6-8-21(26,17(25)11-22)20(15,2)10-16(24)18(14)19/h9,14-15,18,22,26H,3-8,10-11H2,1-2H3/t14-,15-,18+,19-,20-,21-/m0/s1
Instrument: LTQ Orbitrap XL Thermo Scientific
Instrument type: LC-ESI-ITFT
Ms type: MS2
Ion mode: POSITIVE
Ionization: ESI
Fragmentation mode: HCD
Collision energy: 100 % (nominal)
Resolution: 15000
Column name: Kinetex Evo C18 2.6 um 50 x 2.1 mm
Retention time: 9.587 min
Base peak: 361.2013
Precursor m/z: 361.201
Precursor type: [M+H]+
m/z	relative intensity	assigned
65.0384	20	C5H5+
67.054	194	C5H7+
69.0333	36	C4H5O+
69.0696	97	C5H9+
77.0384	158	C6H5+
79.0541	535	C6H7+
81.0335	24	C5H5O+
81.0698	333	C6H9+
83.049	303	C5H7O+
91.0542	913	C7H7+
93.0699	674	C7H9+
94.0415	14	C6H6O+
95.0491	95	C6H7O+
95.0856	135	C7H11+
97.0648	468	C6H9O+
103.0542	105	C8H7+
104.0621	33	C8H8+
105.0447	176	C6H5N2+
105.0698	999	C8H9+
106.0732	18	C3H10N2O2+
107.0491	172	C7H7O+
107.0855	337	C8H11+
108.0566	19	C7H8O+
109.0647	92	C7H9O+
115.0541	160	C9H7+
116.0621	57	C9H8+
117.0698	295	C9H9+
119.0604	35	C7H7N2+
119.0855	335	C9H11+
120.057	12	C8H8O+
121.0647	666	C8H9O+
121.1011	58	C9H13+
123.0804	83	C8H11O+
128.062	208	C10H8+
129.0698	241	C10H9+
130.0775	176	C10H10+
131.0488	19	C9H7O+
131.0854	167	C10H11+
132.0569	35	C9H8O+
133.0646	148	C9H9O+
133.101	68	C10H13+
134.072	20	C9H10O+
135.0802	66	C9H11O+
135.1164	13	C10H15+
141.0698	119	C11H9+
142.0776	130	C11H10+
143.0854	185	C11H11+
144.0568	25	C10H8O+
145.0647	61	C10H9O+
145.101	180	C11H13+
146.0724	42	C10H10O+
147.0802	218	C10H11O+
148.0881	543	C10H12O+
152.0617	19	C12H8+
153.0697	61	C12H9+
154.0775	67	C12H10+
155.06	47	C10H7N2+
155.0854	144	C12H11+
156.093	49	C12H12+
157.0648	29	C11H9O+
157.101	70	C12H13+
158.0722	27	C11H10O+
159.0803	57	C11H11O+
159.1165	24	C12H15+
161.0961	49	C11H13O+
163.1116	197	C11H15O+
165.0697	109	C13H9+
166.0775	51	C13H10+
167.0854	112	C13H11+
168.0931	48	C13H12+
169.0649	19	C12H9O+
169.101	72	C13H13+
170.1084	17	C13H14+
171.0802	38	C12H11O+
171.1168	37	C13H15+
173.0956	44	C12H13O+
174.1035	81	C12H14O+
178.0775	49	C14H10+
179.0851	78	C14H11+
180.0933	29	C14H12+
181.1011	78	C14H13+
182.0719	9	C13H10O+
182.1087	16	C14H14+
183.0807	14	C13H11O+
183.1164	26	C14H15+
185.0958	18	C13H13O+
185.1321	30	C14H17+
187.1117	17	C13H15O+
190.0784	14	C15H10+
191.0853	42	C15H11+
192.093	29	C15H12+
193.1009	32	C15H13+
195.0798	14	C14H11O+
195.1161	27	C15H15+
197.1326	17	C15H17+
199.1115	22	C14H15O+
202.0778	12	C16H10+
203.0853	10	C16H11+
207.1167	26	C16H15+
209.0956	15	C15H13O+
223.1481	9	C17H19+
225.1276	51	C16H17O+
227.1432	20	C16H19O+
241.1591	17	C17H21O+
243.1375	123	C16H19O2+
251.1424	11	C18H19O+
