Mass spectrum: Anabasine; LC-ESI-ITFT; MS2; CE: 40%; R=15000; [M+H]+
Name: Anabasine
Formula: C10H14N2
Exact mass: 162.1157
SMILES: C1CCC(NC1)C1=CC=CN=C1
InChI: InChI=1S/C10H14N2/c1-2-7-12-10(5-1)9-4-3-6-11-8-9/h3-4,6,8,10,12H,1-2,5,7H2
Instrument: LTQ Orbitrap XL Thermo Scientific
Instrument type: LC-ESI-ITFT
Ms type: MS2
Ion mode: POSITIVE
Ionization: ESI
Fragmentation mode: HCD
Collision energy: 40 % (nominal)
Resolution: 15000
Column name: Kinetex Evo C18 2.6 um 50 x 2.1 mm
Retention time: 0.423 min
Base peak: 233.2013
Precursor m/z: 163.123
Precursor type: [M+H]+
m/z	relative intensity	assigned
65.0384	3	C5H5+
70.0652	1	C4H8N+
80.0495	20	C5H6N+
82.0651	6	C5H8N+
84.0808	3	C5H10N+
92.0495	61	C6H6N+
94.0652	89	C6H8N+
106.065	1	C7H8N+
117.0573	9	C8H7N+
118.0652	54	C8H8N+
120.0808	65	C8H10N+
129.0697	2	C10H9+
130.0651	4	C9H8N+
131.0729	15	C9H9N+
132.0807	1	C9H10N+
134.0965	53	C9H12N+
144.081	6	C10H10N+
146.0965	173	C10H12N+
163.123	999	C10H15N2+
