Mass spectrum: (-)-Nuciferine; LC-ESI-ITFT; MS2; CE: 80%; R=15000; [M+H]+
Name: (-)-Nuciferine
Name: Nuciferine
Name: (6aR)-1,2-dimethoxy-6-methyl-5,6,6a,7-tetrahydro-4H-dibenzo[de,g]quinoline
Formula: C19H21NO2
Exact mass: 295.1572
SMILES: CN1CCc2cc(c(c-3c2[C@H]1Cc4c3cccc4)OC)OC
InChI: InChI=1S/C19H21NO2/c1-20-9-8-13-11-16(21-2)19(22-3)18-14-7-5-4-6-12(14)10-15(20)17(13)18/h4-7,11,15H,8-10H2,1-3H3/t15-/m1/s1
Instrument: LTQ Orbitrap XL Thermo Scientific
Instrument type: LC-ESI-ITFT
Ms type: MS2
Ion mode: POSITIVE
Ionization: ESI
Fragmentation mode: HCD
Collision energy: 80% (nominal)
Resolution: 15000
Column name: Kinetex Evo C18 2.6 um 50 x 2.1 mm
Retention time: 7.612 min
Base peak: 296.1642
Precursor m/z: 296.1645
Precursor type: [M+H]+
m/z	relative intensity	assigned
128.0621	17	C10H8+
165.0699	49	C13H9+
167.086	6	C13H11+
177.07	9	C14H9+
178.0777	117	C14H10+
179.0855	441	C14H11+
180.0935	6	C14H12+
181.065	8	C13H9O+
189.0699	137	C15H9+
190.0777	132	C15H10+
191.0855	505	C15H11+
192.0933	38	C15H12+
193.0647	30	C14H9O+
193.1012	80	C15H13+
194.0728	9	C14H10O+
194.1085	12	C15H14+
195.0804	25	C14H11O+
201.0698	8	C16H9+
202.0777	77	C16H10+
203.0855	288	C16H11+
204.0933	50	C16H12+
205.0646	58	C15H9O+
205.1011	64	C16H13+
206.0726	21	C15H10O+
206.1089	5	C16H14+
207.0804	482	C15H11O+
208.0882	10	C15H12O+
214.078	9	C17H10+
215.0854	23	C17H11+
217.0647	143	C16H9O+
218.0725	146	C16H10O+
219.0804	501	C16H11O+
220.0881	32	C16H12O+
221.0596	140	C15H9O2+
221.096	219	C16H13O+
222.0674	7	C15H10O2+
222.1038	70	C16H14O+
223.0753	17	C15H11O2+
231.0804	53	C17H11O+
232.0881	18	C17H12O+
233.0601	12	C16H9O2+
233.096	121	C17H13O+
234.1038	324	C17H14O+
235.0752	999	C16H11O2+
236.0829	14	C16H12O2+
237.0907	3	C16H13O2+
238.0989	8	C16H14O2+
249.0909	129	C17H13O2+
250.0987	166	C17H14O2+
265.122	25	C18H17O2+
