Mass spectrum: Cortisone; LC-ESI-ITFT; MS2; CE: 65%; R=15000; [M+H]+
Name: Cortisone
Name: (8S,9S,10R,13S,14S,17R)-17-hydroxy-17-(2-hydroxyacetyl)-10,13-dimethyl-1,2,6,7,8,9,12,14,15,16-decahydrocyclopenta[a]phenanthrene-3,11-dione
Formula: C21H28O5
Exact mass: 360.1937
SMILES: C[C@]12CC(=O)[C@H]3[C@@H](CCC4=CC(=O)CC[C@]34C)[C@@H]1CC[C@]2(O)C(=O)CO
InChI: InChI=1S/C21H28O5/c1-19-7-5-13(23)9-12(19)3-4-14-15-6-8-21(26,17(25)11-22)20(15,2)10-16(24)18(14)19/h9,14-15,18,22,26H,3-8,10-11H2,1-2H3/t14-,15-,18+,19-,20-,21-/m0/s1
Instrument: LTQ Orbitrap XL Thermo Scientific
Instrument type: LC-ESI-ITFT
Ms type: MS2
Ion mode: POSITIVE
Ionization: ESI
Fragmentation mode: CID
Collision energy: 65 % (nominal)
Resolution: 15000
Column name: Kinetex Evo C18 2.6 um 50 x 2.1 mm
Retention time: 9.572 min
Base peak: 361.2009
Precursor m/z: 361.201
Precursor type: [M+H]+
m/z	relative intensity	assigned
93.0699	7	C7H9+
105.0699	31	C8H9+
107.0856	11	C8H11+
109.0644	3	C7H9O+
115.0543	10	C9H7+
117.0699	17	C9H9+
119.0855	30	C9H11+
121.0648	109	C8H9O+
121.1012	12	C9H13+
123.0805	14	C8H11O+
128.0626	4	C10H8+
129.0697	13	C10H9+
131.0855	29	C10H11+
133.0648	14	C9H9O+
133.1011	13	C10H13+
135.0804	55	C9H11O+
135.1167	19	C10H15+
137.0963	9	C9H13O+
139.0751	8	C8H11O2+
143.0855	24	C11H11+
145.0647	14	C10H9O+
145.1011	100	C11H13+
147.0804	89	C10H11O+
147.1168	9	C11H15+
148.0877	7	C10H12O+
149.0959	23	C10H13O+
151.075	17	C9H11O2+
153.091	15	C9H13O2+
155.0855	15	C12H11+
157.0645	7	C11H9O+
157.1012	26	C12H13+
159.0804	32	C11H11O+
159.1167	17	C12H15+
161.0597	10	C10H9O2+
161.0961	67	C11H13O+
163.1116	974	C11H15O+
164.1149	31	C6H16N2O3+
165.0909	14	C10H13O2+
165.1271	12	C11H17O+
167.0856	5	C13H11+
169.086	5	C9H13O3+
169.101	29	C13H13+
171.0803	47	C12H11O+
171.1167	82	C13H15+
173.096	73	C12H13O+
175.1116	25	C12H15O+
177.0909	34	C11H13O2+
177.1268	3	C12H17O+
179.1066	13	C11H15O2+
181.0859	7	C10H13O3+
181.1011	36	C14H13+
183.0805	10	C13H11O+
183.1166	36	C14H15+
185.0959	38	C13H13O+
185.1324	9	C14H17+
187.0751	14	C12H11O2+
187.1116	45	C13H15O+
189.0908	40	C12H13O2+
189.127	19	C13H17O+
191.1064	38	C12H15O2+
193.1012	11	C15H13+
195.1166	35	C15H15+
197.096	19	C14H13O+
197.1322	30	C15H17+
199.1115	66	C14H15O+
201.091	9	C13H13O2+
201.1271	22	C14H17O+
203.1065	18	C13H15O2+
203.143	3	C14H19O+
205.1008	8	C16H13+
205.1223	16	C13H17O2+
207.1015	11	C12H15O3+
207.1166	33	C16H15+
209.0959	18	C15H13O+
209.1171	8	C12H17O3+
209.1321	31	C16H17+
211.1116	40	C15H15O+
211.148	22	C16H19+
213.0909	7	C14H13O2+
213.1271	39	C15H17O+
215.1066	13	C14H15O2+
215.1428	16	C15H19O+
217.122	30	C14H17O2+
219.1015	5	C13H15O3+
219.1163	15	C17H15+
221.1321	56	C17H17+
223.1116	47	C16H15O+
223.1477	46	C17H19+
225.1271	64	C16H17O+
225.1635	25	C17H21+
227.1062	13	C15H15O2+
227.1426	36	C16H19O+
229.1221	26	C15H17O2+
231.1372	8	C15H19O2+
232.1238	5	C18H16+
233.1325	12	C18H17+
235.1113	6	C17H15O+
235.1479	39	C18H19+
237.1271	54	C17H17O+
237.1634	48	C18H21+
239.106	12	C16H15O2+
239.1427	117	C17H19O+
239.1794	21	C18H23+
241.1219	97	C16H17O2+
241.1584	55	C17H21O+
243.1377	30	C16H19O2+
243.1743	18	C17H23O+
245.1167	4	C15H17O3+
245.1322	14	C19H17+
247.1113	9	C18H15O+
247.1325	5	C15H19O3+
247.1477	81	C19H19+
249.1271	44	C18H17O+
249.1635	58	C19H21+
251.1068	7	C17H15O2+
251.1427	31	C18H19O+
251.1791	23	C19H23+
253.1221	11	C17H17O2+
253.1583	45	C18H21O+
255.1375	50	C17H19O2+
255.1739	50	C18H23O+
257.1533	72	C17H21O2+
257.1899	20	C18H25O+
259.1485	3	C20H19+
261.1268	9	C19H17O+
261.148	25	C16H21O3+
261.1634	47	C20H21+
263.1426	45	C19H19O+
265.1583	386	C19H21O+
266.1608	15	C11H24NO6+
267.1376	83	C18H19O2+
267.1739	309	C19H23O+
269.1532	12	C18H21O2+
269.1896	23	C19H25O+
271.1476	11	C21H19+
271.1689	15	C18H23O2+
273.1474	7	C17H21O3+
277.1583	55	C20H21O+
279.1376	17	C19H19O2+
279.1738	203	C20H23O+
280.1774	12	C15H24N2O3+
281.1532	41	C19H21O2+
281.1904	7	C20H25O+
283.1688	391	C19H23O2+
284.1757	15	C19H24O2+
285.148	47	C18H21O3+
285.1844	234	C19H25O2+
286.1877	10	C14H26N2O4+
289.1582	126	C21H21O+
295.1688	217	C20H23O2+
297.1844	189	C20H25O2+
298.1882	10	C15H26N2O4+
299.1637	337	C19H23O3+
301.1793	346	C19H25O3+
303.1584	29	C18H23O4+
303.1953	7	C19H27O3+
307.1687	398	C21H23O2+
308.1721	24	C16H24N2O4+
313.1793	311	C20H25O3+
314.1827	18	C15H26N2O5+
315.1949	74	C20H27O3+
317.1738	27	C19H25O4+
325.1792	536	C21H25O3+
326.1826	31	C16H26N2O5+
331.1892	23	C20H27O4+
343.1896	999	C21H27O4+
344.1931	47	C16H28N2O6+
