Mass spectrum: Pterosin B; LC-ESI-ITFT; MS2; CE: 80%; R=15000; [M+H]+
Name: Pterosin B
Name: (2R)-6-(2-hydroxyethyl)-2,5,7-trimethyl-2,3-dihydroinden-1-one
Formula: C14H18O2
Exact mass: 218.1307
SMILES: C[C@@H]1CC2=C(C1=O)C(=C(C(=C2)C)CCO)C
InChI: InChI=1S/C14H18O2/c1-8-6-11-7-9(2)14(16)13(11)10(3)12(8)4-5-15/h6,9,15H,4-5,7H2,1-3H3/t9-/m1/s1
Instrument: LTQ Orbitrap XL Thermo Scientific
Instrument type: LC-ESI-ITFT
Ms type: MS2
Ion mode: POSITIVE
Ionization: ESI
Fragmentation mode: HCD
Collision energy: 80 % (nominal)
Resolution: 15000
Column name: Kinetex Evo C18 2.6 um 50 x 2.1 mm
Retention time: 10.370 min
Base peak: 219.137
Precursor m/z: 219.138
Precursor type: [M+H]+
m/z	relative intensity	assigned
67.054	17	C5H7+
79.054	22	C6H7+
81.0695	13	C6H9+
91.054	145	C7H7+
93.0697	21	C7H9+
105.0696	296	C8H9+
107.0853	17	C8H11+
115.0537	32	C9H7+
116.0618	36	C9H8+
117.0696	151	C9H9+
119.0852	281	C9H11+
121.1007	9	C9H13+
128.0617	88	C10H8+
129.0696	331	C10H9+
130.0774	280	C10H10+
131.0852	332	C10H11+
132.093	20	C10H12+
133.1009	208	C10H13+
141.0696	66	C11H9+
142.0774	166	C11H10+
143.0852	755	C11H11+
144.0931	276	C11H12+
145.1009	999	C11H13+
147.1165	16	C11H15+
153.0696	320	C12H9+
155.0853	194	C12H11+
156.0931	129	C12H12+
157.0646	49	C11H9O+
157.1008	134	C12H13+
158.0724	60	C11H10O+
158.1087	320	C12H14+
159.0802	305	C11H11O+
159.1166	86	C12H15+
160.1241	22	C12H16+
163.111	26	C11H15O+
166.0773	18	C13H10+
167.0854	61	C13H11+
168.093	509	C13H12+
170.1087	29	C13H14+
171.0801	459	C12H11O+
171.1164	73	C13H15+
172.088	209	C12H12O+
173.0958	581	C12H13O+
173.1321	195	C13H17+
174.1036	154	C12H14O+
175.1118	12	C12H15O+
181.1013	24	C14H13+
183.1164	186	C14H15+
185.0957	47	C13H13O+
186.1035	595	C13H14O+
187.1113	15	C13H15O+
188.1191	35	C13H16O+
199.1123	22	C14H15O+
201.1269	300	C14H17O+
204.1141	23	C13H16O2+
219.1376	49	C14H19O2+
