Mass spectrum: Seneciphylline N-oxide; LC-ESI-ITFT; MS2; CE: 95%; R=15000; [M+H]+
Name: Seneciphylline N-oxide
Name: (1R,4E,7R,17R)-4-ethylidene-7-hydroxy-7-methyl-6-methylidene-14-oxido-2,9-dioxa-14-azoniatricyclo[9.5.1.014,17]heptadec-11-ene-3,8-dione
Formula: C18H23NO6
Exact mass: 349.1525
SMILES: C/C=C/1\CC(=C)[C@@](C(=O)OCC2=CC[N+]3([C@H]2[C@@H](CC3)OC1=O)[O-])(C)O
InChI: InChI=1S/C18H23NO6/c1-4-12-9-11(2)18(3,22)17(21)24-10-13-5-7-19(23)8-6-14(15(13)19)25-16(12)20/h4-5,14-15,22H,2,6-10H2,1,3H3/b12-4+/t14-,15-,18-,19?/m1/s1
Instrument: LTQ Orbitrap XL Thermo Scientific
Instrument type: LC-ESI-ITFT
Ms type: MS2
Ion mode: POSITIVE
Ionization: ESI
Fragmentation mode: HCD
Collision energy: 95% (nominal)
Resolution: 15000
Column name: Kinetex Evo C18 2.6 um 50 x 2.1 mm
Retention time: 2.982 min
Base peak: 350.1597
Precursor m/z: 350.1598
Precursor type: [M+H]+
m/z	relative intensity	assigned
65.0383	9	C5H5+
66.0464	13	C5H6+
67.0417	32	C4H5N+
67.0543	54	C5H7+
68.0494	11	C4H6N+
77.0386	22	C6H5+
78.0341	8	C5H4N+
79.0543	73	C6H7+
80.0495	226	C5H6N+
81.0574	27	C5H7N+
81.0699	44	C6H9+
82.0652	20	C5H8N+
84.0446	19	C4H6NO+
91.0543	110	C7H7+
92.0495	58	C6H6N+
93.0574	354	C6H7N+
94.0652	999	C6H8N+
95.073	66	C6H9N+
95.0855	22	C7H11+
96.0445	10	C5H6NO+
96.081	14	C6H10N+
98.06	8	C5H8NO+
103.0544	22	C8H7+
105.07	48	C8H9+
106.0652	151	C7H8N+
107.049	22	C7H7O+
107.0731	20	C7H9N+
108.0444	10	C6H6NO+
108.0808	153	C7H10N+
109.0649	55	C7H9O+
109.0887	11	C7H11N+
110.06	19	C6H8NO+
117.0573	58	C8H7N+
118.0652	442	C8H8N+
119.073	127	C8H9N+
120.0808	596	C8H10N+
122.0963	13	C8H12N+
132.0807	12	C9H10N+
136.0757	291	C8H10NO+
138.0913	18	C8H12NO+
