Mass spectrum: Umbelliferone; LC-ESI-ITFT; MS2; CE: 25%; R=15000; [M+H]+
Name: Umbelliferone
Name: 7-hydroxychromen-2-one
Formula: C9H6O3
Exact mass: 162.0317
SMILES: c1cc(cc2c1ccc(=O)o2)O
InChI: InChI=1S/C9H6O3/c10-7-3-1-6-2-4-9(11)12-8(6)5-7/h1-5,10H
Instrument: LTQ Orbitrap XL Thermo Scientific
Instrument type: LC-ESI-ITFT
Ms type: MS2
Ion mode: POSITIVE
Ionization: ESI
Fragmentation mode: HCD
Collision energy: 25% (nominal)
Resolution: 15000
Column name: Kinetex Evo C18 2.6 um 50x2.1 mm, Phenomenex
Retention time: 6.183 min
Base peak: 116.9859
Precursor m/z: 163.039
Precursor type: [M+H]+
m/z	relative intensity	assigned
163.039	999	C9H7O3+
