Mass spectrum: (-)-Scopolamine; LC-ESI-ITFT; MS2; CE: 35%; R=15000; [M+H]+
Name: (-)-Scopolamine
Formula: C17H21NO4
Exact mass: 303.1471
SMILES: CN1[C@@H]2C[C@H](C[C@H]1[C@H]3[C@@H]2O3)OC(=O)[C@H](CO)c4ccccc4
InChI: InChI=1S/C17H21NO4/c1-18-13-7-11(8-14(18)16-15(13)22-16)21-17(20)12(9-19)10-5-3-2-4-6-10/h2-6,11-16,19H,7-9H2,1H3/t11-,12-,13-,14+,15-,16+/m1/s1
Instrument: LTQ Orbitrap XL Thermo Scientific
Instrument type: LC-ESI-ITFT
Ms type: MS2
Ion mode: POSITIVE
Ionization: ESI
Fragmentation mode: HCD
Collision energy: 35% (nominal)
Resolution: 15000
Column name: Kinetex Evo C18 2.6 um 50 x 2.1 mm
Retention time: 1.124 min
Base peak: 304.1542
Precursor m/z: 304.1543
Precursor type: [M+H]+
m/z	relative intensity	assigned
74.0603	3	C3H8NO+
79.0543	26	C6H7+
81.0337	4	C5H5O+
82.0653	6	C5H8N+
84.0809	7	C5H10N+
93.07	5	C7H9+
94.0652	7	C6H8N+
98.0601	63	C5H8NO+
103.0543	40	C8H7+
110.0601	6	C6H8NO+
110.0965	95	C7H12N+
120.0808	9	C8H10N+
121.0648	350	C8H9O+
138.0914	999	C8H12NO+
156.102	862	C8H14NO2+
304.1546	790	C17H22NO4+
