Mass spectrum: Diosgenin; LC-ESI-ITFT; MS2; CE: 75%; R=15000; [M+H]+
Name: Diosgenin
Name: (1S,2S,4S,5`R,6R,7S,8R,9S,12S,13R,16S)-5`,7,9,13-tetramethylspiro[5-oxapentacyclo[10.8.0.02,9.04,8.013,18]icos-18-ene-6,2`-oxane]-16-ol
Formula: C27H42O3
Exact mass: 414.3134
SMILES: C[C@@H]1CC[C@@]2([C@H]([C@H]3[C@@H](O2)C[C@@H]4[C@@]3(CC[C@H]5[C@H]4CC=C6[C@@]5(CC[C@@H](C6)O)C)C)C)OC1
InChI: InChI=1S/C27H42O3/c1-16-7-12-27(29-15-16)17(2)24-23(30-27)14-22-20-6-5-18-13-19(28)8-10-25(18,3)21(20)9-11-26(22,24)4/h5,16-17,19-24,28H,6-15H2,1-4H3/t16-,17+,19+,20-,21+,22+,23+,24+,25+,26+,27-/m1/s1
Instrument: LTQ Orbitrap XL Thermo Scientific
Instrument type: LC-ESI-ITFT
Ms type: MS2
Ion mode: POSITIVE
Ionization: ESI
Fragmentation mode: HCD
Collision energy: 75% (nominal)
Resolution: 15000
Column name: Kinetex Evo C18 2.6 um 50 x 2.1 mm
Retention time: 15.254 min
Base peak: 116.9858
Precursor m/z: 415.3207
Precursor type: [M+H]+
m/z	relative intensity	assigned
69.0698	628	C5H9+
73.0645	208	C4H9O+
81.0699	235	C6H9+
93.0698	460	C7H9+
95.0853	210	C7H11+
105.07	402	C8H9+
107.0853	296	C8H11+
109.1011	294	C8H13+
121.1013	318	C9H13+
131.0857	439	C10H11+
133.1011	486	C10H13+
142.0777	338	C11H10+
143.0857	172	C11H11+
145.1009	337	C11H13+
147.1167	386	C11H15+
157.1011	999	C12H13+
159.1169	838	C12H15+
