Mass spectrum: Retrorsine N-oxide; LC-ESI-ITFT; MS2; CE: 55%; R=15000; [M+H]+
Name: Retrorsine N-oxide
Name: Unii-51819grv4U
Name: (1R,4Z,6R,7S,14S,17R)-4-ethylidene-7-hydroxy-7-(hydroxymethyl)-6-methyl-14-oxido-2,9-dioxa-14-azoniatricyclo[9.5.1.014,17]heptadec-11-ene-3,8-dione
Formula: C18H25NO7
Exact mass: 367.1631
SMILES: C/C=C\1/C[C@H]([C@@](C(=O)OCC2=CC[N@@+]3([C@H]2[C@@H](CC3)OC1=O)[O-])(CO)O)C
InChI: InChI=1S/C18H25NO7/c1-3-12-8-11(2)18(23,10-20)17(22)25-9-13-4-6-19(24)7-5-14(15(13)19)26-16(12)21/h3-4,11,14-15,20,23H,5-10H2,1-2H3/b12-3-/t11-,14-,15-,18-,19-/m1/s1
Instrument: LTQ Orbitrap XL Thermo Scientific
Instrument type: LC-ESI-ITFT
Ms type: MS2
Ion mode: POSITIVE
Ionization: ESI
Fragmentation mode: HCD
Collision energy: 55% (nominal)
Resolution: 15000
Column name: Kinetex Evo C18 2.6 um 50 x 2.1 mm
Retention time: 2.062 min
Base peak: 143.0015
Precursor m/z: 368.1704
Precursor type: [M+H]+
m/z	relative intensity	assigned
53.0385	14	C4H5+
67.0542	22	C5H7+
79.0543	46	C6H7+
80.0496	63	C5H6N+
81.0699	140	C6H9+
82.0652	22	C5H8N+
83.0491	16	C5H7O+
84.0445	25	C4H6NO+
91.0542	54	C7H7+
93.0574	339	C6H7N+
93.0699	23	C7H9+
94.0652	431	C6H8N+
95.073	390	C6H9N+
95.0856	69	C7H11+
98.0601	39	C5H8NO+
105.0695	12	C8H9+
106.0652	167	C7H8N+
107.0491	20	C7H7O+
107.0859	20	C8H11+
108.0809	157	C7H10N+
109.0649	55	C7H9O+
109.0888	50	C7H11N+
110.0601	27	C6H8NO+
112.0758	89	C6H10NO+
118.0652	772	C8H8N+
119.0731	640	C8H9N+
120.0809	846	C8H10N+
121.0887	273	C8H11N+
122.0965	212	C8H12N+
123.0805	130	C8H11O+
124.0757	15	C7H10NO+
125.0962	20	C8H13O+
136.0758	999	C8H10NO+
137.0602	17	C8H9O2+
137.0837	167	C8H11NO+
138.0914	482	C8H12NO+
139.0754	66	C8H11O2+
140.1074	11	C8H14NO+
151.0755	92	C9H11O2+
152.1071	35	C9H14NO+
154.0864	229	C8H12NO2+
169.0863	47	C9H13O3+
178.1227	95	C11H16NO+
218.118	60	C13H16NO2+
218.1536	26	C14H20NO+
220.1333	271	C13H18NO2+
227.1282	58	C12H19O4+
236.1278	14	C13H18NO3+
246.1491	84	C15H20NO2+
248.1649	42	C15H22NO2+
292.1545	19	C16H22NO4+
306.1696	22	C17H24NO4+
320.1481	21	C17H22NO5+
340.1757	102	C17H26NO6+
368.1707	523	C18H26NO7+
