Mass spectrum: Pterosin A; LC-ESI-ITFT; MS2; CE: 100%; R=15000; [M+H]+
Name: Pterosin A
Name: (2S)-6-(2-hydroxyethyl)-2-(hydroxymethyl)-2,5,7-trimethyl-3H-inden-1-one
Formula: C15H20O3
Exact mass: 248.1412
SMILES: CC1=CC2=C(C(=C1CCO)C)C(=O)[C@](C2)(C)CO
InChI: InChI=1S/C15H20O3/c1-9-6-11-7-15(3,8-17)14(18)13(11)10(2)12(9)4-5-16/h6,16-17H,4-5,7-8H2,1-3H3/t15-/m0/s1
Instrument: LTQ Orbitrap XL Thermo Scientific
Instrument type: LC-ESI-ITFT
Ms type: MS2
Ion mode: POSITIVE
Ionization: ESI
Fragmentation mode: HCD
Collision energy: 100 % (nominal)
Resolution: 15000
Column name: Kinetex Evo C18 2.6 um 50 x 2.1 mm
Retention time: 9.267 min
Base peak: 249.1477
Precursor m/z: 249.1485
Precursor type: [M+H]+
m/z	relative intensity	assigned
77.0385	21	C6H5+
79.054	27	C6H7+
91.0541	54	C7H7+
103.0543	6	C8H7+
105.0697	69	C8H9+
115.054	44	C9H7+
116.062	8	C9H8+
117.0696	20	C9H9+
119.0853	58	C9H11+
128.0618	141	C10H8+
129.0697	167	C10H9+
130.0776	27	C10H10+
131.0855	19	C10H11+
132.0938	11	C10H12+
133.1011	49	C10H13+
141.0697	328	C11H9+
142.0775	437	C11H10+
143.0853	140	C11H11+
144.0932	37	C11H12+
145.1009	36	C11H13+
152.0616	7	C12H8+
153.0697	76	C12H9+
154.0776	46	C12H10+
155.0853	999	C12H11+
156.0931	144	C12H12+
157.101	195	C12H13+
165.0696	21	C13H9+
167.0851	12	C13H11+
168.093	21	C13H12+
169.1009	101	C13H13+
170.1088	309	C13H14+
171.0799	15	C12H11O+
183.0803	28	C13H11O+
185.0958	35	C13H13O+
185.1329	15	C14H17+
