Mass spectrum: Conessine; LC-ESI-ITFT; MS2; CE: 90%; R=15000; [M+H]+
Name: Conessine
Formula: C24H40N2
Exact mass: 356.3191
SMILES: C[C@H]1[C@H]2CC[C@H]3[C@@H]4CC=C5C[C@H](CC[C@]5(C)[C@H]4CC[C@]23CN1C)N(C)C
InChI: InChI=1S/C24H40N2/c1-16-20-8-9-22-19-7-6-17-14-18(25(3)4)10-12-23(17,2)21(19)11-13-24(20,22)15-26(16)5/h6,16,18-22H,7-15H2,1-5H3/t16-,18-,19+,20+,21-,22-,23-,24-/m0/s1
Instrument: LTQ Orbitrap XL Thermo Scientific
Instrument type: LC-ESI-ITFT
Ms type: MS2
Ion mode: POSITIVE
Ionization: ESI
Fragmentation mode: CID
Collision energy: 90 % (nominal)
Resolution: 15000
Column name: Kinetex Evo C18 2.6 um 50 x 2.1 mm
Retention time: 5.398 min
Base peak: 179.1666
Precursor m/z: 357.3264
Precursor type: [M+H]+
m/z	relative intensity	assigned
105.0698	11	C8H9+
107.0852	4	C8H11+
115.0542	3	C9H7+
117.0697	13	C9H9+
119.0855	14	C9H11+
121.1012	4	C9H13+
123.1167	3	C9H15+
129.0697	7	C10H9+
131.0854	29	C10H11+
133.1011	16	C10H13+
135.1169	9	C10H15+
143.0856	3	C11H11+
144.0929	3	C11H12+
145.1011	31	C11H13+
147.1167	44	C11H15+
149.1324	6	C11H17+
157.1009	10	C12H13+
159.1168	109	C12H15+
161.1324	84	C12H17+
171.1168	11	C13H15+
173.1325	53	C13H17+
175.1477	6	C13H19+
185.1322	17	C14H17+
187.1481	68	C14H19+
199.148	20	C15H19+
201.1637	8	C15H21+
211.149	2	C16H19+
213.1637	19	C16H21+
227.1794	13	C17H23+
240.1873	2	C18H24+
241.1956	2	C18H25+
269.2262	156	C20H29+
281.2269	5	C21H29+
298.2537	3	C21H32N+
299.261	7	C21H33N+
312.2683	999	C22H34N+
326.2836	5	C23H36N+
