Mass spectrum: Huperzin A; LC-ESI-ITFT; MS2; CE: 55%; R=15000; [M+H]+
Name: Huperzin A
Name: (-)-Huperazine A
Name: (1R,9R,13E)-1-amino-13-ethylidene-11-methyl-6-azatricyclo[7.3.1.02,7]trideca-2(7),3,10-trien-5-one
Formula: C15H18N2O
Exact mass: 242.1419
SMILES: C/C=C/1\[C@@H]2CC3=C([C@]1(CC(=C2)C)N)C=CC(=O)N3
InChI: InChI=1S/C15H18N2O/c1-3-11-10-6-9(2)8-15(11,16)12-4-5-14(18)17-13(12)7-10/h3-6,10H,7-8,16H2,1-2H3,(H,17,18)/b11-3+/t10-,15+/m0/s1
Instrument: LTQ Orbitrap XL Thermo Scientific
Instrument type: LC-ESI-ITFT
Ms type: MS2
Ion mode: POSITIVE
Ionization: ESI
Fragmentation mode: HCD
Collision energy: 55% (nominal)
Resolution: 15000
Column name: Kinetex Evo C18 2.6 um 50 x 2.1 mm
Retention time: 1.536 min
Base peak: 143.0015
Precursor m/z: 243.1492
Precursor type: [M+H]+
m/z	relative intensity	assigned
110.0601	44	C6H8NO+
134.0963	58	C9H12N+
181.1013	49	C14H13+
184.0753	34	C12H10NO+
187.0867	24	C11H11N2O+
196.0758	50	C13H10NO+
197.0835	68	C13H11NO+
198.1273	19	C14H16N+
208.112	115	C15H14N+
210.0912	155	C14H12NO+
211.0988	72	C14H13NO+
224.1073	69	C15H14NO+
226.1226	518	C15H16NO+
227.1184	59	C14H15N2O+
228.1261	43	C14H16N2O+
243.1492	999	C15H19N2O+
