Mass spectrum: Tomatidine; LC-ESI-ITFT; MS2; CE: 100%; R=15000; [M+H]+
Name: Tomatidine
Formula: C27H45NO2
Exact mass: 415.3450
SMILES: C[C@H]1[C@H]2[C@H](C[C@H]3[C@@H]4CC[C@H]5C[C@@H](O)CC[C@]5(C)[C@H]4CC[C@]23C)O[C@@]11CC[C@H](C)CN1
InChI: InChI=1S/C27H45NO2/c1-16-7-12-27(28-15-16)17(2)24-23(30-27)14-22-20-6-5-18-13-19(29)8-10-25(18,3)21(20)9-11-26(22,24)4/h16-24,28-29H,5-15H2,1-4H3/t16-,17-,18-,19-,20+,21-,22-,23-,24-,25-,26-,27-/m0/s1
Instrument: LTQ Orbitrap XL Thermo Scientific
Instrument type: LC-ESI-ITFT
Ms type: MS2
Ion mode: POSITIVE
Ionization: ESI
Fragmentation mode: HCD
Collision energy: 100 % (nominal)
Resolution: 15000
Column name: Kinetex Evo C18 2.6 um 50 x 2.1 mm
Retention time: 10.053 min
Base peak: 217.0493
Precursor m/z: 416.3523
Precursor type: [M+H]+
m/z	relative intensity	assigned
55.0541	9	C4H7+
65.0385	12	C5H5+
67.0542	177	C5H7+
69.0698	47	C5H9+
70.0651	71	C4H8N+
77.0386	79	C6H5+
79.0542	402	C6H7+
80.0494	17	C5H6N+
81.0699	304	C6H9+
82.0651	35	C5H8N+
91.0542	515	C7H7+
93.0699	437	C7H9+
94.0651	44	C6H8N+
95.0491	21	C6H7O+
95.073	32	C6H9N+
95.0855	232	C7H11+
96.0807	38	C6H10N+
103.0543	10	C8H7+
105.0698	999	C8H9+
107.0855	224	C8H11+
108.0807	52	C7H10N+
109.0884	12	C7H11N+
109.1011	42	C8H13+
110.0964	37	C7H12N+
115.0541	10	C9H7+
116.0625	8	C9H8+
117.0699	121	C9H9+
119.0855	479	C9H11+
121.1012	40	C9H13+
122.0964	33	C8H12N+
124.1121	93	C8H14N+
126.1276	52	C8H16N+
129.0699	33	C10H9+
130.0779	23	C10H10+
131.0855	125	C10H11+
133.1012	130	C10H13+
134.0965	19	C9H12N+
135.1168	19	C10H15+
136.112	18	C9H14N+
142.078	13	C11H10+
143.0855	32	C11H11+
144.0933	24	C11H12+
145.1012	90	C11H13+
147.1168	105	C11H15+
148.1121	53	C10H14N+
149.1323	11	C11H17+
150.1278	96	C10H16N+
157.1013	25	C12H13+
159.1168	66	C12H15+
161.1325	280	C12H17+
162.1276	25	C11H16N+
164.1434	37	C11H18N+
171.1168	15	C13H15+
173.1321	9	C13H17+
185.1319	7	C14H17+
