Mass spectrum: Tetrahydropalmatin; LC-ESI-ITFT; MS2; CE: 45%; R=15000; [M+H]+
Name: Tetrahydropalmatin
Name: D-Tetrahydropalmatine
Name: (13aR)-2,3,9,10-tetramethoxy-6,8,13,13a-tetrahydro-5H-isoquinolino[2,1-b]isoquinoline
Formula: C21H25NO4
Exact mass: 355.1784
SMILES: COC1=C(C2=C(C[C@@H]3C4=CC(=C(C=C4CCN3C2)OC)OC)C=C1)OC
InChI: InChI=1S/C21H25NO4/c1-23-18-6-5-13-9-17-15-11-20(25-3)19(24-2)10-14(15)7-8-22(17)12-16(13)21(18)26-4/h5-6,10-11,17H,7-9,12H2,1-4H3/t17-/m1/s1
Instrument: LTQ Orbitrap XL Thermo Scientific
Instrument type: LC-ESI-ITFT
Ms type: MS2
Ion mode: POSITIVE
Ionization: ESI
Fragmentation mode: HCD
Collision energy: 45% (nominal)
Resolution: 15000
Column name: Kinetex Evo C18 2.6 um 50 x 2.1 mm
Retention time: 7.439 min
Base peak: 356.1855
Precursor m/z: 356.1856
Precursor type: [M+H]+
m/z	relative intensity	assigned
105.0699	2	C8H9+
133.0648	2	C9H9O+
135.0805	2	C9H11O+
150.0676	29	C9H10O2+
151.0753	16	C9H11O2+
161.06	1	C10H9O2+
165.0911	253	C10H13O2+
174.0912	1	C11H12NO+
175.0755	1	C11H11O2+
176.0708	3	C10H10NO2+
177.0783	6	C10H11NO2+
179.1067	1	C11H15O2+
189.0912	7	C12H13O2+
190.0865	21	C11H12NO2+
191.0947	1	C11H13NO2+
192.1019	999	C11H14NO2+
204.1018	7	C12H14NO2+
205.1099	12	C12H15NO2+
293.1175	4	C19H17O3+
296.1411	1	C19H20O3+
308.1394	8	C20H20O3+
309.1129	1	C19H17O4+
310.1436	1	C19H20NO3+
311.1505	1	C19H21NO3+
312.1352	1	C19H20O4+
312.1598	3	C19H22NO3+
322.1438	3	C20H20NO3+
323.1513	2	C20H21NO3+
324.1358	3	C20H20O4+
324.1592	3	C20H22NO3+
326.1384	3	C19H20NO4+
327.1588	3	C20H23O4+
339.1592	3	C21H23O4+
340.1541	13	C20H22NO4+
341.1623	9	C20H23NO4+
356.1857	151	C21H26NO4+
