Mass spectrum: Homoharringtonine; LC-ESI-ITFT; MS2; CE: 30%; R=15000; [M+H]+
Name: Homoharringtonine
Name: Omacetaxine mepesuccinate
Name: 1-O-[(2S,3S,6R)-4-methoxy-16,18-dioxa-10-azapentacyclo[11.7.0.02,6.06,10.015,19]icosa-1(20),4,13,15(19)-tetraen-3-yl] 4-O-methyl (2R)-2-hydroxy-2-(4-hydroxy-4-methylpentyl)butanedioate
Formula: C29H39NO9
Exact mass: 545.2625
SMILES: CC(C)(CCC[C@@](CC(=O)OC)(C(=O)O[C@H]1[C@H]2c3cc4c(cc3CCN5[C@@]2(CCC5)C=C1OC)OCO4)O)O
InChI: InChI=1S/C29H39NO9/c1-27(2,33)8-5-10-29(34,16-23(31)36-4)26(32)39-25-22(35-3)15-28-9-6-11-30(28)12-7-18-13-20-21(38-17-37-20)14-19(18)24(25)28/h13-15,24-25,33-34H,5-12,16-17H2,1-4H3/t24-,25-,28+,29-/m1/s1
Instrument: LTQ Orbitrap XL Thermo Scientific
Instrument type: LC-ESI-ITFT
Ms type: MS2
Ion mode: POSITIVE
Ionization: ESI
Fragmentation mode: HCD
Collision energy: 30% (nominal)
Resolution: 15000
Column name: Kinetex Evo C18 2.6 um 50 x 2.1 mm
Retention time: 7.111 min
Base peak: 546.2696
Precursor m/z: 546.2698
Precursor type: [M+H]+
m/z	relative intensity	assigned
126.0912	7	C7H12NO+
150.0912	21	C9H12NO+
176.0705	22	C10H10NO2+
215.0701	6	C13H11O3+
226.0861	19	C14H12NO2+
227.0945	14	C14H13NO2+
229.1094	7	C14H15NO2+
251.1064	23	C17H15O2+
255.1014	8	C16H15O3+
266.1174	28	C17H16NO2+
281.117	17	C18H17O3+
284.128	34	C17H18NO3+
298.1435	999	C18H20NO3+
316.154	47	C18H22NO4+
546.2698	84	C29H40NO9+
