Mass spectrum: Senkirkine; LC-ESI-ITFT; MS2; CE: 40%; R=15000; [M+H]+
Name: Senkirkine
Name: (1R,4Z,6R,7R,11Z)-4-ethylidene-7-hydroxy-6,7,14-trimethyl-2,9-dioxa-14-azabicyclo[9.5.1]heptadec-11-ene-3,8,17-trione
Formula: C19H27NO6
Exact mass: 365.1838
SMILES: C/C=C\1/C[C@H]([C@@](C(=O)OC/C/2=C/CN(CC[C@H](C2=O)OC1=O)C)(C)O)C
InChI: InChI=1S/C19H27NO6/c1-5-13-10-12(2)19(3,24)18(23)25-11-14-6-8-20(4)9-7-15(16(14)21)26-17(13)22/h5-6,12,15,24H,7-11H2,1-4H3/b13-5-,14-6-/t12-,15-,19-/m1/s1
Instrument: LTQ Orbitrap XL Thermo Scientific
Instrument type: LC-ESI-ITFT
Ms type: MS2
Ion mode: POSITIVE
Ionization: ESI
Fragmentation mode: HCD
Collision energy: 40% (nominal)
Resolution: 15000
Column name: Kinetex Evo C18 2.6 um 50 x 2.1 mm
Retention time: 6.344 min
Base peak: 366.1909
Precursor m/z: 366.1911
Precursor type: [M+H]+
m/z	relative intensity	assigned
55.0541	3	C4H7+
70.0651	7	C4H8N+
79.0542	2	C6H7+
81.0699	5	C6H9+
83.0491	7	C5H7O+
94.065	4	C6H8N+
96.0809	1	C6H10N+
97.0648	2	C6H9O+
98.06	1	C5H8NO+
99.0439	2	C5H7O2+
101.0597	10	C5H9O2+
107.0491	32	C7H7O+
107.0855	16	C8H11+
108.0807	1	C7H10N+
109.0646	4	C7H9O+
109.1011	7	C8H13+
110.0598	1	C6H8NO+
116.0706	8	C5H10NO2+
120.0808	3	C8H10N+
122.06	57	C7H8NO+
122.0964	23	C8H12N+
123.0679	4	C7H9NO+
124.0757	16	C7H10NO+
125.0597	21	C7H9O2+
125.0835	1	C7H11NO+
125.0961	23	C8H13O+
128.0709	1	C6H10NO2+
135.0804	32	C9H11O+
137.0596	4	C8H9O2+
137.0831	2	C8H11NO+
137.0961	8	C9H13O+
138.0911	2	C8H12NO+
140.0704	4	C7H10NO2+
140.107	5	C8H14NO+
150.0913	181	C9H12NO+
152.1067	1	C9H14NO+
153.091	104	C9H13O2+
163.0752	3	C10H11O2+
168.1018	427	C9H14NO2+
181.0858	12	C10H13O3+
186.1123	4	C9H16NO3+
199.0964	4	C10H15O4+
250.145	1	C14H20NO3+
268.1543	3	C14H22NO4+
304.1911	5	C18H26NO3+
318.1709	1	C18H24NO4+
320.1856	4	C18H26NO4+
338.1962	16	C18H28NO5+
348.1807	13	C19H26NO5+
366.191	999	C19H28NO6+
