Mass spectrum: (-)-Scopolamine; LC-ESI-ITFT; MS2; CE: 50%; R=15000; [M+H]+
Name: (-)-Scopolamine
Formula: C17H21NO4
Exact mass: 303.1471
SMILES: CN1[C@@H]2C[C@H](C[C@H]1[C@H]3[C@@H]2O3)OC(=O)[C@H](CO)c4ccccc4
InChI: InChI=1S/C17H21NO4/c1-18-13-7-11(8-14(18)16-15(13)22-16)21-17(20)12(9-19)10-5-3-2-4-6-10/h2-6,11-16,19H,7-9H2,1H3/t11-,12-,13-,14+,15-,16+/m1/s1
Instrument: LTQ Orbitrap XL Thermo Scientific
Instrument type: LC-ESI-ITFT
Ms type: MS2
Ion mode: POSITIVE
Ionization: ESI
Fragmentation mode: HCD
Collision energy: 50% (nominal)
Resolution: 15000
Column name: Kinetex Evo C18 2.6 um 50 x 2.1 mm
Retention time: 1.124 min
Base peak: 304.1542
Precursor m/z: 304.1543
Precursor type: [M+H]+
m/z	relative intensity	assigned
70.065	7	C4H8N+
74.0599	6	C3H8NO+
79.0543	54	C6H7+
81.0336	10	C5H5O+
81.0699	6	C6H9+
82.0652	21	C5H8N+
83.0491	12	C5H7O+
84.0809	23	C5H10N+
91.0543	6	C7H7+
93.0699	13	C7H9+
94.0651	15	C6H8N+
96.0445	10	C5H6NO+
96.0807	12	C6H10N+
97.0523	14	C5H7NO+
97.065	5	C6H9O+
98.0601	105	C5H8NO+
103.0543	142	C8H7+
107.0493	6	C7H7O+
108.0809	5	C7H10N+
110.0601	15	C6H8NO+
110.0965	141	C7H12N+
120.0808	18	C8H10N+
121.0648	488	C8H9O+
138.0914	999	C8H12NO+
156.102	410	C8H14NO2+
159.1047	2	C11H13N+
304.1546	132	C17H22NO4+
