Mass spectrum: Ajmalicine; LC-ESI-ITFT; MS2; CE: 55%; R=15000; [M+H]+
Name: Ajmalicine
Name: methyl (1S,15R,16S,20S)-16-methyl-17-oxa-3,13-diazapentacyclo[11.8.0.02,10.04,9.015,20]henicosa-2(10),4,6,8,18-pentaene-19-carboxylate
Formula: C21H24N2O3
Exact mass: 352.1787
SMILES: C[C@H]1[C@H]2CN3CCc4c5ccccc5[nH]c4[C@@H]3C[C@@H]2C(=CO1)C(=O)OC
InChI: InChI=1S/C21H24N2O3/c1-12-16-10-23-8-7-14-13-5-3-4-6-18(13)22-20(14)19(23)9-15(16)17(11-26-12)21(24)25-2/h3-6,11-12,15-16,19,22H,7-10H2,1-2H3/t12-,15-,16+,19-/m0/s1
Instrument: LTQ Orbitrap XL Thermo Scientific
Instrument type: LC-ESI-ITFT
Ms type: MS2
Ion mode: POSITIVE
Ionization: ESI
Fragmentation mode: HCD
Collision energy: 55% (nominal)
Resolution: 15000
Column name: Kinetex Evo C18 2.6 um 50 x 2.1 mm
Retention time: 7.574 min
Base peak: 353.1856
Precursor m/z: 353.186
Precursor type: [M+H]+
m/z	relative intensity	assigned
68.0494	2	C4H6N+
81.0698	4	C6H9+
84.0808	2	C5H10N+
95.0492	2	C6H7O+
108.0808	10	C7H10N+
109.0281	1	C6H5O2+
109.0649	2	C7H9O+
117.0699	7	C9H9+
124.0393	10	C6H6NO2+
130.0651	11	C9H8N+
132.0806	1	C9H10N+
133.0645	1	C9H9O+
134.0962	1	C9H12N+
136.0758	1	C8H10NO+
143.073	5	C10H9N+
144.0808	999	C10H10N+
149.0595	1	C9H9O2+
150.0912	2	C9H12NO+
156.0808	22	C11H10N+
157.0886	2	C11H11N+
158.0965	20	C11H12N+
162.0916	3	C10H12NO+
164.0706	4	C9H10NO2+
167.0701	5	C9H11O3+
168.0807	4	C12H10N+
170.0965	49	C12H12N+
172.1122	1	C12H14N+
178.0863	58	C10H12NO2+
180.0813	2	C13H10N+
182.0965	22	C13H12N+
185.1072	1	C12H13N2+
190.0854	1	C11H12NO2+
194.0965	3	C14H12N+
194.1181	1	C11H16NO2+
196.0967	1	C10H14NO3+
196.1123	3	C14H14N+
198.1271	1	C14H16N+
199.1228	4	C13H15N2+
206.0965	4	C15H12N+
208.0973	2	C11H14NO3+
208.112	3	C15H14N+
210.1125	25	C11H16NO3+
218.0972	1	C16H12N+
222.0916	2	C15H12NO+
222.1125	9	C12H16NO3+
222.1277	5	C16H16N+
224.1069	6	C15H14NO+
232.1123	2	C17H14N+
234.0913	3	C16H12NO+
234.1276	4	C17H16N+
236.1428	2	C17H18N+
238.0867	1	C15H12NO2+
246.1281	1	C18H16N+
250.0866	1	C16H12NO2+
250.1228	6	C17H16NO+
251.1546	3	C17H19N2+
252.102	26	C16H14NO2+
254.1164	2	C16H16NO2+
260.1075	2	C18H14NO+
262.1221	1	C18H16NO+
264.1386	2	C18H18NO+
274.1239	1	C19H16NO+
276.1379	1	C19H18NO+
278.1178	8	C18H16NO2+
284.1283	5	C17H18NO3+
292.1334	3	C19H18NO2+
293.1647	1	C19H21N2O+
303.1498	1	C20H19N2O+
321.1593	5	C20H21N2O2+
353.186	5	C21H25N2O3+
