Mass spectrum: Tomatidine; LC-ESI-ITFT; MS2; CE: 65%; R=15000; [M+H]+
Name: Tomatidine
Formula: C27H45NO2
Exact mass: 415.3450
SMILES: C[C@H]1[C@H]2[C@H](C[C@H]3[C@@H]4CC[C@H]5C[C@@H](O)CC[C@]5(C)[C@H]4CC[C@]23C)O[C@@]11CC[C@H](C)CN1
InChI: InChI=1S/C27H45NO2/c1-16-7-12-27(28-15-16)17(2)24-23(30-27)14-22-20-6-5-18-13-19(29)8-10-25(18,3)21(20)9-11-26(22,24)4/h16-24,28-29H,5-15H2,1-4H3/t16-,17-,18-,19-,20+,21-,22-,23-,24-,25-,26-,27-/m0/s1
Instrument: LTQ Orbitrap XL Thermo Scientific
Instrument type: LC-ESI-ITFT
Ms type: MS2
Ion mode: POSITIVE
Ionization: ESI
Fragmentation mode: CID
Collision energy: 65 % (nominal)
Resolution: 15000
Column name: Kinetex Evo C18 2.6 um 50 x 2.1 mm
Retention time: 10.056 min
Base peak: 217.0494
Precursor m/z: 416.3523
Precursor type: [M+H]+
m/z	relative intensity	assigned
105.0698	1	C8H9+
119.0856	3	C9H11+
121.1009	2	C9H13+
124.1122	4	C8H14N+
126.1279	41	C8H16N+
128.0622	1	C10H8+
129.0695	1	C10H9+
131.0857	11	C10H11+
133.1014	12	C10H13+
135.1169	10	C10H15+
143.0859	2	C11H11+
145.1014	37	C11H13+
147.117	44	C11H15+
149.1327	7	C11H17+
151.1119	4	C10H15O+
157.1015	3	C12H13+
159.1171	53	C12H15+
161.1327	142	C12H17+
163.1119	18	C11H15O+
171.1171	6	C13H15+
173.1327	48	C13H17+
175.1483	5	C13H19+
177.1271	2	C12H17O+
185.1327	18	C14H17+
187.1482	12	C14H19+
189.1639	2	C14H21+
191.1435	3	C13H19O+
199.1483	27	C15H19+
201.164	3	C15H21+
213.164	19	C16H21+
215.1793	10	C16H23+
226.1725	1	C17H22+
227.1794	16	C17H23+
255.211	459	C19H27+
273.2215	345	C19H29O+
398.342	999	C27H44NO+
