Mass spectrum: Lasiocarpine N-oxide; LC-ESI-ITFT; MS2; CE: 80%; R=15000; [M+H]+
Name: Lasiocarpine N-oxide
Name: [(7S,8R)-7-[(Z)-2-methylbut-2-enoyl]oxy-4-oxido-5,6,7,8-tetrahydro-3H-pyrrolizin-4-ium-1-yl]methyl (2R)-2,3-dihydroxy-2-[(1S)-1-methoxyethyl]-3-methylbutanoate
Formula: C21H33NO8
Exact mass: 427.2206
SMILES: C/C=C(/C)\C(=O)O[C@H]1CC[N+]2([C@@H]1C(=CC2)COC(=O)[C@@]([C@H](C)OC)(C(C)(C)O)O)[O-]
InChI: InChI=1S/C21H33NO8/c1-7-13(2)18(23)30-16-9-11-22(27)10-8-15(17(16)22)12-29-19(24)21(26,14(3)28-6)20(4,5)25/h7-8,14,16-17,25-26H,9-12H2,1-6H3/b13-7-/t14-,16-,17+,21-,22?/m0/s1
Instrument: LTQ Orbitrap XL Thermo Scientific
Instrument type: LC-ESI-ITFT
Ms type: MS2
Ion mode: POSITIVE
Ionization: ESI
Fragmentation mode: HCD
Collision energy: 80% (nominal)
Resolution: 15000
Column name: Kinetex Evo C18 2.6 um 50 x 2.1 mm
Retention time: 7.965 min
Base peak: 428.2271
Precursor m/z: 428.2279
Precursor type: [M+H]+
m/z	relative intensity	assigned
55.0541	93	C4H7+
59.049	23	C3H7O+
67.0542	14	C5H7+
68.0495	46	C4H6N+
79.0543	55	C6H7+
80.0495	267	C5H6N+
81.0572	31	C5H7N+
81.0699	76	C6H9+
82.0651	34	C5H8N+
83.0491	223	C5H7O+
84.0444	44	C4H6NO+
91.0542	49	C7H7+
92.0495	20	C6H6N+
93.0573	435	C6H7N+
94.0651	999	C6H8N+
95.0729	27	C6H9N+
96.0448	9	C5H6NO+
96.0808	19	C6H10N+
97.0647	14	C6H9O+
98.06	10	C5H8NO+
106.0651	736	C7H8N+
107.073	11	C7H9N+
107.0856	21	C8H11+
108.0808	221	C7H10N+
109.0649	14	C7H9O+
109.089	11	C7H11N+
110.0599	39	C6H8NO+
111.0679	391	C6H9NO+
112.0756	21	C6H10NO+
118.0651	348	C8H8N+
119.073	667	C8H9N+
120.0808	592	C8H10N+
121.0885	23	C8H11N+
122.0599	11	C7H8NO+
124.0757	47	C7H10NO+
136.0757	428	C8H10NO+
137.0835	256	C8H11NO+
138.0914	253	C8H12NO+
141.0907	35	C8H13O2+
154.0863	79	C8H12NO2+
155.0938	10	C8H13NO2+
172.0969	233	C8H14NO3+
254.1388	27	C13H20NO4+
