Mass spectrum: Daidzein; LC-ESI-ITFT; MS2; CE: 55%; R=15000; [M+H]+
Name: Daidzein
Name: 7-hydroxy-3-(4-hydroxyphenyl)chromen-4-one
Formula: C15H10O4
Exact mass: 254.0579
SMILES: c1cc(ccc1c2coc3cc(ccc3c2=O)O)O
InChI: InChI=1S/C15H10O4/c16-10-3-1-9(2-4-10)13-8-19-14-7-11(17)5-6-12(14)15(13)18/h1-8,16-17H
Instrument: LTQ Orbitrap XL Thermo Scientific
Instrument type: LC-ESI-ITFT
Ms type: MS2
Ion mode: POSITIVE
Ionization: ESI
Fragmentation mode: HCD
Collision energy: 55% (nominal)
Resolution: 15000
Column name: Kinetex Evo C18 2.6 um 50 x 2.1 mm
Retention time: 9.174 min
Base peak: 116.9858
Precursor m/z: 255.0652
Precursor type: [M+H]+
m/z	relative intensity	assigned
91.0543	12	C7H7+
119.0492	22	C8H7O+
133.0287	9	C8H5O2+
137.0233	128	C7H5O3+
145.0287	17	C9H5O2+
153.0701	22	C12H9+
157.0649	18	C11H9O+
171.0809	24	C12H11O+
181.0649	45	C13H9O+
199.0753	303	C13H11O2+
227.0702	148	C14H11O3+
237.0547	46	C15H9O3+
255.0652	999	C15H11O4+
