Mass spectrum: (+)-Lupanine; LC-ESI-ITFT; MS2; CE: 35%; R=15000; [M+H]+
Name: (+)-Lupanine
Formula: C15H24N2O
Exact mass: 248.1889
SMILES: C1CCN2CC3CC(C2C1)CN4C3CCCC4=O
InChI: InChI=1S/C15H24N2O/c18-15-6-3-5-14-11-8-12(10-17(14)15)13-4-1-2-7-16(13)9-11/h11-14H,1-10H2
Instrument: LTQ Orbitrap XL Thermo Scientific
Instrument type: LC-ESI-ITFT
Ms type: MS2
Ion mode: POSITIVE
Ionization: ESI
Fragmentation mode: CID
Collision energy: 35 % (nominal)
Resolution: 15000
Column name: Kinetex Evo C18 2.6 um 50 x 2.1 mm
Retention time: 0.484 min
Base peak: 249.1958
Precursor m/z: 249.1961
Precursor type: [M+H]+
m/z	relative intensity	assigned
70.0651	6	C4H8N+
77.0386	2	C6H5+
79.0543	5	C6H7+
80.0495	19	C5H6N+
82.0653	4	C5H8N+
84.0808	17	C5H10N+
85.0648	7	C5H9O+
91.0543	14	C7H7+
93.0698	4	C7H9+
94.0652	16	C6H8N+
96.0808	77	C6H10N+
98.0965	95	C6H12N+
100.0757	3	C5H10NO+
105.0699	14	C8H9+
107.0855	5	C8H11+
108.0808	10	C7H10N+
110.0964	7	C7H12N+
112.0757	48	C6H10NO+
112.1122	2	C7H14N+
114.0913	288	C6H12NO+
117.07	1	C9H9+
119.0856	3	C9H11+
120.0808	4	C8H10N+
121.101	4	C9H13+
122.0964	28	C8H12N+
124.0756	7	C7H10NO+
124.1121	14	C8H14N+
131.0856	4	C10H11+
133.1012	10	C10H13+
134.0965	148	C9H12N+
135.1042	3	C9H13N+
136.1121	999	C9H14N+
138.0913	7	C8H12NO+
138.1276	10	C9H16N+
141.0696	1	C11H9+
145.1012	4	C11H13+
146.0969	3	C10H12N+
148.0757	9	C9H10NO+
148.1121	56	C10H14N+
150.0916	10	C9H12NO+
150.1278	188	C10H16N+
152.107	33	C9H14NO+
152.1434	25	C10H18N+
159.1165	4	C12H15+
162.0916	5	C10H12NO+
162.128	8	C11H16N+
164.107	8	C10H14NO+
164.1434	2	C11H18N+
166.1227	37	C10H16NO+
169.1013	3	C13H13+
173.1321	2	C13H17+
174.1278	18	C12H16N+
176.1072	5	C11H14NO+
176.1435	24	C12H18N+
178.1226	6	C11H16NO+
183.117	2	C14H15+
186.1283	3	C13H16N+
187.1122	3	C13H15O+
188.1432	7	C13H18N+
189.1387	38	C12H17N2+
190.1457	2	C12H18N2+
190.1591	6	C13H20N+
193.1697	5	C12H21N2+
200.1429	7	C14H18N+
204.1384	83	C13H18NO+
206.1541	17	C13H20NO+
218.154	21	C14H20NO+
220.1695	3	C14H22NO+
229.1701	7	C15H21N2+
231.1856	384	C15H23N2+
247.1796	2	C15H23N2O+
249.1962	775	C15H25N2O+
