Mass spectrum: Citrinin; LC-ESI-ITFT; MS2; CE: 60%; R=15000; [M+H]+
Name: Citrinin
Formula: C13H14O5
Exact mass: 250.0841
SMILES: C[C@H]1OC=C2C(O)=C(C(O)=O)C(=O)C(C)=C2[C@@H]1C
InChI: InChI=1S/C13H14O5/c1-5-7(3)18-4-8-9(5)6(2)11(14)10(12(8)15)13(16)17/h4-5,7,15H,1-3H3,(H,16,17)/t5-,7-/m1/s1
Instrument: LTQ Orbitrap XL Thermo Scientific
Instrument type: LC-ESI-ITFT
Ms type: MS2
Ion mode: POSITIVE
Ionization: ESI
Fragmentation mode: HCD
Collision energy: 60 % (nominal)
Resolution: 15000
Column name: Kinetex Evo C18 2.6 um 50 x 2.1 mm
Retention time: 11.923 min
Base peak: 251.0912
Precursor m/z: 251.0914
Precursor type: [M+H]+
m/z	relative intensity	assigned
83.0126	6	C4H3O2+
91.0542	52	C7H7+
93.0698	19	C7H9+
95.0856	54	C7H11+
105.0698	22	C8H9+
107.0491	29	C7H7O+
107.0854	34	C8H11+
109.1011	15	C8H13+
119.0855	162	C9H11+
121.0647	13	C8H9O+
121.1013	10	C9H13+
123.0804	38	C8H11O+
131.0855	69	C10H11+
135.0804	41	C9H11O+
137.096	89	C9H13O+
145.0647	12	C10H9O+
147.0804	174	C10H11O+
149.0599	13	C9H9O2+
149.096	22	C10H13O+
159.0804	58	C11H11O+
162.0677	31	C10H10O2+
163.0391	11	C9H7O3+
163.0753	43	C10H11O2+
165.0911	11	C10H13O2+
169.0647	32	C12H9O+
177.0183	30	C9H5O4+
177.055	5	C10H9O3+
177.091	26	C11H13O2+
187.0753	51	C12H11O2+
189.0551	11	C11H9O3+
190.0626	30	C11H10O3+
191.0703	242	C11H11O3+
203.0338	58	C11H7O4+
203.0707	10	C12H11O3+
204.0416	33	C11H8O4+
205.0859	396	C12H13O3+
209.0807	32	C11H13O4+
215.0702	130	C13H11O3+
218.0574	63	C12H10O4+
231.0653	8	C13H11O4+
233.0807	999	C13H13O4+
251.0913	33	C13H15O5+
