Mass spectrum: Isophorone; LC-ESI-ITFT; MS2; CE: 110%; R=15000; [M+H]+
Name: Isophorone
Name: 3,5,5-trimethylcyclohex-2-en-1-one
Formula: C9H14O
Exact mass: 138.1045
SMILES: CC1=CC(=O)CC(C)(C)C1
InChI: InChI=1S/C9H14O/c1-7-4-8(10)6-9(2,3)5-7/h4H,5-6H2,1-3H3
Instrument: LTQ Orbitrap XL Thermo Scientific
Instrument type: LC-ESI-ITFT
Ms type: MS2
Ionization: ESI
Ion mode: POSITIVE
Fragmentation mode: HCD
Collision energy: 110 % (nominal)
Resolution: 15000
Column name: Kinetex Evo C18 2.6 um 50 x 2.1 mm
Retention time: 8.577 min
Base peak: 139.1118
Precursor m/z: 139.1117
Precursor type: [M+H]+
m/z	relative intensity	assigned
67.0539	57	C5H7+
69.0332	999	C4H5O+
77.0383	172	C6H5+
78.0462	4	C6H6+
79.054	186	C6H7+
80.0619	4	C6H8+
81.0335	3	C5H5O+
81.0696	36	C6H9+
83.0489	84	C5H7O+
91.0541	162	C7H7+
93.0697	102	C7H9+
94.0411	2	C6H6O+
95.049	89	C6H7O+
95.0854	22	C7H11+
96.0568	31	C6H8O+
97.0646	149	C6H9O+
103.0541	46	C8H7+
105.0446	82	C6H5N2+
105.0697	111	C8H9+
106.0775	21	C8H10+
107.0606	4	C6H7N2+
109.0646	29	C7H9O+
110.0725	12	C7H10O+
111.0803	4	C7H11O+
119.0853	19	C9H11+
121.101	31	C9H13+
133.0754	3	C8H9N2+
139.1114	15	C9H15O+
