Mass spectrum: Matrine; LC-ESI-ITFT; MS2; CE: 105%; R=15000; [M+H]+
Name: Matrine
Name: (1R,2R,9S,17S)-7,13-diazatetracyclo[7.7.1.02,7.013,17]heptadecan-6-one
Formula: C15H24N2O
Exact mass: 248.1889
SMILES: C1C[C@@H]2[C@H]3CCCN4[C@H]3[C@@H](CCC4)CN2C(=O)C1
InChI: InChI=1S/C15H24N2O/c18-14-7-1-6-13-12-5-3-9-16-8-2-4-11(15(12)16)10-17(13)14/h11-13,15H,1-10H2/t11-,12+,13+,15-/m0/s1
Instrument: LTQ Orbitrap XL Thermo Scientific
Instrument type: LC-ESI-ITFT
Ms type: MS2
Ion mode: POSITIVE
Ionization: ESI
Fragmentation mode: HCD
Collision energy: 105% (nominal)
Resolution: 15000
Column name: Kinetex Evo C18 2.6 um 50 x 2.1 mm
Retention time: 0.702 min
Base peak: 249.1959
Precursor m/z: 249.1961
Precursor type: [M+H]+
m/z	relative intensity	assigned
67.0543	101	C5H7+
70.0651	142	C4H8N+
79.0542	112	C6H7+
80.0494	42	C5H6N+
81.0699	143	C6H9+
82.0651	76	C5H8N+
84.0808	284	C5H10N+
91.0542	86	C7H7+
93.0699	153	C7H9+
94.0651	71	C6H8N+
95.0855	94	C7H11+
96.0808	454	C6H10N+
98.06	339	C5H8NO+
98.0964	269	C6H12N+
105.0698	75	C8H9+
106.0651	59	C7H8N+
107.0857	75	C8H11+
108.0807	160	C7H10N+
109.0885	33	C7H11N+
110.0602	31	C6H8NO+
110.0964	591	C7H12N+
112.0757	177	C6H10NO+
117.0702	31	C9H9+
119.0853	54	C9H11+
120.0807	289	C8H10N+
122.0964	384	C8H12N+
123.104	35	C8H13N+
124.1122	77	C8H14N+
131.0851	42	C10H11+
132.0802	52	C9H10N+
133.0887	51	C9H11N+
134.0965	339	C9H12N+
135.1043	42	C9H13N+
136.076	36	C8H10NO+
136.1121	301	C9H14N+
138.0912	50	C8H12NO+
138.1278	77	C9H16N+
148.0758	93	C9H10NO+
148.1121	999	C10H14N+
149.1199	58	C10H15N+
150.0915	40	C9H12NO+
150.1277	514	C10H16N+
152.1436	102	C10H18N+
160.1117	40	C11H14N+
162.0912	94	C10H12NO+
162.1276	174	C11H16N+
164.1068	44	C10H14NO+
174.1276	47	C12H16N+
176.107	287	C11H14NO+
176.1432	145	C12H18N+
178.1587	31	C12H20N+
188.143	50	C13H18N+
190.1224	108	C12H16NO+
190.1583	47	C13H20N+
204.138	60	C13H18NO+
218.1536	43	C14H20NO+
219.1857	36	C14H23N2+
220.1692	34	C14H22NO+
247.1804	122	C15H23N2O+
249.1959	455	C15H25N2O+
