Mass spectrum: Tomatidine; LC-ESI-ITFT; MS2; CE: 105%; R=15000; [M+H]+
Name: Tomatidine
Formula: C27H45NO2
Exact mass: 415.3450
SMILES: C[C@H]1[C@H]2[C@H](C[C@H]3[C@@H]4CC[C@H]5C[C@@H](O)CC[C@]5(C)[C@H]4CC[C@]23C)O[C@@]11CC[C@H](C)CN1
InChI: InChI=1S/C27H45NO2/c1-16-7-12-27(28-15-16)17(2)24-23(30-27)14-22-20-6-5-18-13-19(29)8-10-25(18,3)21(20)9-11-26(22,24)4/h16-24,28-29H,5-15H2,1-4H3/t16-,17-,18-,19-,20+,21-,22-,23-,24-,25-,26-,27-/m0/s1
Instrument: LTQ Orbitrap XL Thermo Scientific
Instrument type: LC-ESI-ITFT
Ms type: MS2
Ion mode: POSITIVE
Ionization: ESI
Fragmentation mode: HCD
Collision energy: 105 % (nominal)
Resolution: 15000
Column name: Kinetex Evo C18 2.6 um 50 x 2.1 mm
Retention time: 10.056 min
Base peak: 217.0493
Precursor m/z: 416.3523
Precursor type: [M+H]+
m/z	relative intensity	assigned
65.0387	8	C5H5+
67.0543	185	C5H7+
69.07	38	C5H9+
70.0652	56	C4H8N+
77.0386	118	C6H5+
79.0543	409	C6H7+
80.0496	20	C5H6N+
81.0699	312	C6H9+
82.0652	50	C5H8N+
91.0543	651	C7H7+
93.0699	452	C7H9+
94.0652	58	C6H8N+
95.0493	24	C6H7O+
95.073	25	C6H9N+
95.0856	242	C7H11+
96.0808	44	C6H10N+
103.0542	22	C8H7+
105.0699	999	C8H9+
106.0648	8	C7H8N+
107.0856	192	C8H11+
108.0809	65	C7H10N+
109.0888	16	C7H11N+
109.1013	45	C8H13+
110.0965	48	C7H12N+
115.0541	13	C9H7+
116.062	11	C9H8+
117.07	129	C9H9+
119.0856	477	C9H11+
120.0807	10	C8H10N+
121.1012	32	C9H13+
122.0965	35	C8H12N+
124.1123	75	C8H14N+
126.1279	49	C8H16N+
128.0619	11	C10H8+
129.0701	44	C10H9+
130.0778	31	C10H10+
131.0856	130	C10H11+
133.1013	119	C10H13+
134.0967	15	C9H12N+
135.1168	16	C10H15+
136.1124	22	C9H14N+
142.0771	13	C11H10+
143.0856	41	C11H11+
144.0933	35	C11H12+
145.1013	69	C11H13+
147.1169	83	C11H15+
148.1123	42	C10H14N+
150.1279	87	C10H16N+
157.1013	23	C12H13+
159.117	48	C12H15+
161.1327	182	C12H17+
162.1275	28	C11H16N+
164.1437	29	C11H18N+
171.1172	9	C13H15+
