Mass spectrum: Papaverin; LC-ESI-ITFT; MS2; CE: 60%; R=15000; [M+H]+
Name: Papaverin
Name: Papaverine
Name: 1-[(3,4-dimethoxyphenyl)methyl]-6,7-dimethoxyisoquinoline
Formula: C20H21NO4
Exact mass: 339.1471
SMILES: COC1=C(C=C(C=C1)CC2=NC=CC3=CC(=C(C=C32)OC)OC)OC
InChI: InChI=1S/C20H21NO4/c1-22-17-6-5-13(10-18(17)23-2)9-16-15-12-20(25-4)19(24-3)11-14(15)7-8-21-16/h5-8,10-12H,9H2,1-4H3
Instrument: LTQ Orbitrap XL Thermo Scientific
Instrument type: LC-ESI-ITFT
Ms type: MS2
Ion mode: POSITIVE
Ionization: ESI
Fragmentation mode: HCD
Collision energy: 60% (nominal)
Resolution: 15000
Column name: Kinetex Evo C18 2.6 um 50 x 2.1 mm
Retention time: 7.588 min
Base peak: 340.1542
Precursor m/z: 340.1543
Precursor type: [M+H]+
m/z	relative intensity	assigned
95.0491	9	C6H7O+
115.0543	3	C9H7+
116.0492	1	C8H6N+
123.044	68	C7H7O2+
128.0495	2	C9H6N+
131.0487	1	C9H7O+
136.0524	1	C8H8O2+
138.0673	2	C8H10O2+
142.0652	12	C10H8N+
144.0439	1	C9H6NO+
144.0806	3	C10H10N+
145.0649	3	C10H9O+
146.06	1	C9H8NO+
146.0731	1	C10H10O+
147.0805	4	C10H11O+
148.0519	12	C9H8O2+
151.0755	7	C9H11O2+
156.0441	5	C10H6NO+
157.0521	2	C10H7NO+
157.0884	4	C11H11N+
158.0601	28	C10H8NO+
159.0677	14	C10H9NO+
160.0753	4	C10H10NO+
161.0596	4	C10H9O2+
162.0672	3	C10H10O2+
170.06	17	C11H8NO+
171.0678	325	C11H9NO+
172.0732	34	C8H12O4+
174.0549	3	C10H8NO2+
174.0677	3	C11H10O2+
174.0913	10	C11H12NO+
175.0753	22	C11H11O2+
186.0549	30	C11H8NO2+
187.0628	69	C11H9NO2+
188.0709	17	C11H10NO2+
189.0786	9	C11H11NO2+
190.0863	4	C11H12NO2+
202.0862	914	C12H12NO2+
224.107	2	C15H14NO+
227.0932	1	C14H13NO2+
235.0993	5	C16H13NO+
236.1072	6	C16H14NO+
240.1023	4	C15H14NO2+
241.1098	5	C15H15NO2+
248.1067	4	C17H14NO+
249.1149	13	C17H15NO+
252.1018	13	C16H14NO2+
254.1171	2	C16H16NO2+
263.0934	3	C17H13NO2+
264.102	14	C17H14NO2+
266.1177	18	C17H16NO2+
267.1267	4	C17H17NO2+
278.1174	8	C18H16NO2+
279.0886	2	C17H13NO3+
279.1255	7	C18H17NO2+
280.0968	20	C17H14NO3+
281.1054	5	C17H15NO3+
282.1126	23	C17H16NO3+
292.0965	5	C18H14NO3+
294.1125	30	C18H16NO3+
295.1205	56	C18H17NO3+
296.1281	173	C18H18NO3+
306.1132	1	C19H16NO3+
308.0917	11	C18H14NO4+
308.1277	11	C19H18NO3+
309.0996	17	C18H15NO4+
310.1076	25	C18H16NO4+
322.108	3	C19H16NO4+
324.1229	999	C19H18NO4+
340.1541	104	C20H22NO4+
