Mass spectrum: alpha-Cyperone; LC-ESI-ITFT; MS2; CE: 105%; R=15000; [M+H]+
Name: alpha-Cyperone
Formula: C15H22O
Exact mass: 218.1671
SMILES: CC1=C2CC(CCC2(CCC1=O)C)C(=C)C
InChI: InChI=1S/C15H22O/c1-10(2)12-5-7-15(4)8-6-14(16)11(3)13(15)9-12/h12H,1,5-9H2,2-4H3
Instrument: LTQ Orbitrap XL Thermo Scientific
Instrument type: LC-ESI-ITFT
Ms type: MS2
Ion mode: POSITIVE
Ionization: ESI
Fragmentation mode: HCD
Collision energy: 105 % (nominal)
Resolution: 15000
Column name: Kinetex Evo C18 2.6 um 50 x 2.1 mm
Retention time: 13.134 min
Base peak: 219.1742
Precursor m/z: 219.1743
Precursor type: [M+H]+
m/z	relative intensity	assigned
55.0541	24	C4H7+
65.0385	25	C5H5+
67.0542	373	C5H7+
69.0334	23	C4H5O+
69.0698	46	C5H9+
77.0385	218	C6H5+
79.0542	344	C6H7+
80.0623	13	C6H8+
81.0698	376	C6H9+
83.0491	33	C5H7O+
83.0855	48	C6H11+
91.0542	526	C7H7+
92.062	8	C7H8+
93.0698	451	C7H9+
95.0491	64	C6H7O+
95.0855	210	C7H11+
96.0567	8	C6H8O+
97.0647	229	C6H9O+
103.0541	31	C8H7+
105.0698	316	C8H9+
107.049	23	C7H7O+
107.0855	128	C8H11+
108.057	23	C7H8O+
109.0647	69	C7H9O+
109.1011	57	C8H13+
111.0804	999	C7H11O+
115.0541	36	C9H7+
116.0621	11	C9H8+
117.0698	73	C9H9+
119.0854	159	C9H11+
121.0647	82	C8H9O+
121.1011	20	C9H13+
122.0724	23	C8H10O+
123.0803	341	C8H11O+
128.062	36	C10H8+
129.0697	48	C10H9+
130.0776	36	C10H10+
131.0854	63	C10H11+
133.0647	16	C9H9O+
133.1008	22	C10H13+
135.0803	87	C9H11O+
137.096	131	C9H13O+
143.0856	65	C11H11+
145.101	38	C11H13+
146.072	8	C10H10O+
147.0803	22	C10H11O+
149.0958	15	C10H13O+
161.096	84	C11H13O+
163.1117	16	C11H15O+
189.127	41	C13H17O+
