Mass spectrum: alpha-Santonin; LC-ESI-ITFT; MS2; CE: 30%; R=15000; [M+H]+
Name: alpha-Santonin
Name: Santonin
Name: (3S,3aS,5aS,9bS)-3,5a,9-trimethyl-3a,4,5,9b-tetrahydro-3H-benzo[g][1]benzofuran-2,8-dione
Formula: C15H18O3
Exact mass: 246.1256
SMILES: C[C@H]1[C@@H]2CC[C@]3(C=CC(=O)C(=C3[C@H]2OC1=O)C)C
InChI: InChI=1S/C15H18O3/c1-8-10-4-6-15(3)7-5-11(16)9(2)12(15)13(10)18-14(8)17/h5,7-8,10,13H,4,6H2,1-3H3/t8-,10-,13-,15-/m0/s1
Instrument: LTQ Orbitrap XL Thermo Scientific
Instrument type: LC-ESI-ITFT
Ms type: MS2
Ion mode: POSITIVE
Ionization: ESI
Fragmentation mode: HCD
Collision energy: 30% (nominal)
Resolution: 15000
Column name: Kinetex Evo C18 2.6 um 50 x 2.1 mm
Retention time: 8.954 min
Base peak: 247.1328
Precursor m/z: 247.1329
Precursor type: [M+H]+
m/z	relative intensity	assigned
135.0803	27	C9H11O+
145.1012	9	C11H13+
161.0962	5	C11H13O+
173.0961	999	C12H13O+
201.1273	73	C14H17O+
229.122	23	C15H17O2+
247.1328	148	C15H19O3+
