Mass spectrum: Pterosin A; LC-ESI-ITFT; MS2; CE: 85%; R=15000; [M+H]+
Name: Pterosin A
Name: (2S)-6-(2-hydroxyethyl)-2-(hydroxymethyl)-2,5,7-trimethyl-3H-inden-1-one
Formula: C15H20O3
Exact mass: 248.1412
SMILES: CC1=CC2=C(C(=C1CCO)C)C(=O)[C@](C2)(C)CO
InChI: InChI=1S/C15H20O3/c1-9-6-11-7-15(3,8-17)14(18)13(11)10(2)12(9)4-5-16/h6,16-17H,4-5,7-8H2,1-3H3/t15-/m0/s1
Instrument: LTQ Orbitrap XL Thermo Scientific
Instrument type: LC-ESI-ITFT
Ms type: MS2
Ion mode: POSITIVE
Ionization: ESI
Fragmentation mode: HCD
Collision energy: 85 % (nominal)
Resolution: 15000
Column name: Kinetex Evo C18 2.6 um 50 x 2.1 mm
Retention time: 9.250 min
Base peak: 249.1476
Precursor m/z: 249.1485
Precursor type: [M+H]+
m/z	relative intensity	assigned
77.0386	12	C6H5+
79.0541	38	C6H7+
91.054	37	C7H7+
105.0697	74	C8H9+
115.054	18	C9H7+
117.0696	23	C9H9+
119.0853	80	C9H11+
128.0617	95	C10H8+
129.0696	133	C10H9+
130.0774	20	C10H10+
131.085	29	C10H11+
133.1009	119	C10H13+
141.0696	213	C11H9+
142.0774	502	C11H10+
143.0852	210	C11H11+
144.093	80	C11H12+
145.1009	70	C11H13+
153.0696	29	C12H9+
154.0772	26	C12H10+
155.0852	875	C12H11+
156.093	302	C12H12+
157.1008	460	C12H13+
158.1085	30	C12H14+
159.0803	11	C11H11O+
159.1166	34	C12H15+
165.0694	17	C13H9+
167.0856	7	C13H11+
168.093	32	C13H12+
169.0648	7	C12H9O+
169.1008	85	C13H13+
170.1086	999	C13H14+
171.08	11	C12H11O+
171.1166	13	C13H15+
172.0876	7	C12H12O+
172.1243	19	C13H16+
173.1321	13	C13H17+
183.0799	38	C13H11O+
183.1166	28	C14H15+
184.0881	18	C13H12O+
185.0957	66	C13H13O+
185.1321	175	C14H17+
198.1036	17	C14H14O+
200.1192	7	C14H16O+
203.1429	16	C14H19O+
213.1263	7	C15H17O+
