Mass spectrum: Alpinetin; LC-ESI-ITFT; MS2; CE: 45%; R=15000; [M+H]+
Name: Alpinetin
Formula: C16H14O4
Exact mass: 270.0892
SMILES: COC1=C2C(=O)CC(OC2=CC(=C1)O)C3=CC=CC=C3
InChI: InChI=1S/C16H14O4/c1-19-14-7-11(17)8-15-16(14)12(18)9-13(20-15)10-5-3-2-4-6-10/h2-8,13,17H,9H2,1H3
Instrument: LTQ Orbitrap XL Thermo Scientific
Instrument type: LC-ESI-ITFT
Ms type: MS2
Ion mode: POSITIVE
Ionization: ESI
Fragmentation mode: HCD
Collision energy: 45 % (nominal)
Resolution: 15000
Column name: Kinetex Evo C18 2.6 um 50 x 2.1 mm
Retention time: 10.235 min
Base peak: 271.0964
Precursor m/z: 271.0965
Precursor type: [M+H]+
m/z	relative intensity	assigned
91.0542	8	C7H7+
103.0542	14	C8H7+
105.0336	2	C7H5O+
107.0491	3	C7H7O+
131.0491	130	C9H7O+
137.0591	2	C8H9O2+
165.0548	3	C9H9O3+
167.0339	999	C8H7O4+
229.0862	10	C14H13O3+
271.0965	66	C16H15O4+
