Mass spectrum: Bergapten/Heraclin; LC-ESI-ITFT; MS2; CE: 80%; R=15000; [M+H]+
Name: Bergapten/Heraclin
Formula: C12H8O4
Exact mass: 216.0423
SMILES: COC1=C2C=COC2=CC2=C1C=CC(=O)O2
InChI: InChI=1S/C12H8O4/c1-14-12-7-2-3-11(13)16-10(7)6-9-8(12)4-5-15-9/h2-6H,1H3
Instrument: LTQ Orbitrap XL Thermo Scientific
Instrument type: LC-ESI-ITFT
Ms type: MS2
Ion mode: POSITIVE
Ionization: ESI
Fragmentation mode: HCD
Collision energy: 80 % (nominal)
Resolution: 15000
Column name: Kinetex Evo C18 2.6 um 50 x 2.1 mm
Retention time: 9.930 min
Base peak: 416.3518
Precursor m/z: 217.0495
Precursor type: [M+H]+
m/z	relative intensity	assigned
77.0384	6	C6H5+
79.0542	6	C6H7+
89.0386	18	C7H5+
90.0464	108	C7H6+
91.0542	14	C7H7+
100.0306	4	C8H4+
102.0464	19	C8H6+
103.0544	9	C8H7+
105.0335	3	C7H5O+
105.0699	23	C8H9+
115.0543	107	C9H7+
117.0332	3	C8H5O+
117.0701	11	C9H9+
118.0413	256	C8H6O+
128.0257	5	C9H4O+
129.0334	5	C9H5O+
130.0412	11	C9H6O+
131.0492	106	C9H7O+
133.065	11	C9H9O+
143.0494	4	C10H7O+
145.0285	23	C9H5O2+
145.0648	4	C10H9O+
146.0363	277	C9H6O2+
156.0207	29	C10H4O2+
158.0365	16	C10H6O2+
161.0598	15	C10H9O2+
173.0233	4	C10H5O3+
173.0598	7	C11H9O2+
174.0313	721	C10H6O3+
202.0262	999	C11H6O4+
217.0496	23	C12H9O4+
