Mass spectrum: Heliotrine N-oxide; LC-ESI-ITFT; MS2; CE: 70%; R=15000; [M+H]+
Name: Heliotrine N-oxide
Name: [(7S,8R)-7-hydroxy-4-oxido-5,6,7,8-tetrahydro-3H-pyrrolizin-4-ium-1-yl]methyl (2S)-2-hydroxy-2-[(1R)-1-methoxyethyl]-3-methylbutanoate
Formula: C16H27NO6
Exact mass: 329.1838
SMILES: C[C@H]([C@@](C(C)C)(C(=O)OCC1=CC[N+]2([C@H]1[C@H](CC2)O)[O-])O)OC
InChI: InChI=1S/C16H27NO6/c1-10(2)16(20,11(3)22-4)15(19)23-9-12-5-7-17(21)8-6-13(18)14(12)17/h5,10-11,13-14,18,20H,6-9H2,1-4H3/t11-,13+,14-,16+,17?/m1/s1
Instrument: LTQ Orbitrap XL Thermo Scientific
Instrument type: LC-ESI-ITFT
Ms type: MS2
Ion mode: POSITIVE
Ionization: ESI
Fragmentation mode: HCD
Collision energy: 70% (nominal)
Resolution: 15000
Column name: Kinetex Evo C18 2.6 um 50 x 2.1 mm
Retention time: 2.733 min
Base peak: 143.0015
Precursor m/z: 330.1911
Precursor type: [M+H]+
m/z	relative intensity	assigned
59.049	9	C3H7O+
67.0542	7	C5H7+
68.0494	15	C4H6N+
71.0854	3	C5H11+
80.0495	44	C5H6N+
81.0573	6	C5H7N+
81.0699	9	C6H9+
82.0413	14	C5H6O+
82.0652	15	C5H8N+
83.0491	25	C5H7O+
93.0573	99	C6H7N+
94.0652	156	C6H8N+
95.0729	3	C6H9N+
96.0446	6	C5H6NO+
96.0809	7	C6H10N+
98.06	22	C5H8NO+
102.055	38	C4H8NO2+
106.0651	26	C7H8N+
108.0808	36	C7H10N+
109.0653	6	C7H9O+
110.06	17	C6H8NO+
111.0679	242	C6H9NO+
112.0756	22	C6H10NO+
124.0757	56	C7H10NO+
126.0915	4	C7H12NO+
128.0705	13	C6H10NO2+
136.0757	74	C8H10NO+
137.0836	38	C8H11NO+
138.0914	137	C8H12NO+
140.0704	4	C7H10NO2+
142.0862	6	C7H12NO2+
154.0863	37	C8H12NO2+
155.0942	59	C8H13NO2+
172.0969	999	C8H14NO3+
330.1915	4	C16H28NO6+
