Mass spectrum: Ajmalicine; LC-ESI-ITFT; MS2; CE: 60%; R=15000; [M+H]+
Name: Ajmalicine
Name: methyl (1S,15R,16S,20S)-16-methyl-17-oxa-3,13-diazapentacyclo[11.8.0.02,10.04,9.015,20]henicosa-2(10),4,6,8,18-pentaene-19-carboxylate
Formula: C21H24N2O3
Exact mass: 352.1787
SMILES: C[C@H]1[C@H]2CN3CCc4c5ccccc5[nH]c4[C@@H]3C[C@@H]2C(=CO1)C(=O)OC
InChI: InChI=1S/C21H24N2O3/c1-12-16-10-23-8-7-14-13-5-3-4-6-18(13)22-20(14)19(23)9-15(16)17(11-26-12)21(24)25-2/h3-6,11-12,15-16,19,22H,7-10H2,1-2H3/t12-,15-,16+,19-/m0/s1
Instrument: LTQ Orbitrap XL Thermo Scientific
Instrument type: LC-ESI-ITFT
Ms type: MS2
Ion mode: POSITIVE
Ionization: ESI
Fragmentation mode: HCD
Collision energy: 60% (nominal)
Resolution: 15000
Column name: Kinetex Evo C18 2.6 um 50 x 2.1 mm
Retention time: 7.532 min
Base peak: 116.9858
Precursor m/z: 353.186
Precursor type: [M+H]+
m/z	relative intensity	assigned
68.0494	2	C4H6N+
79.0543	1	C6H7+
81.0336	1	C5H5O+
81.0699	6	C6H9+
82.0649	1	C5H8N+
83.0126	1	C4H3O2+
84.0808	3	C5H10N+
91.0541	1	C7H7+
95.0492	3	C6H7O+
105.0696	1	C8H9+
107.049	2	C7H7O+
108.0807	14	C7H10N+
109.0281	3	C6H5O2+
109.0648	3	C7H9O+
115.0545	1	C9H7+
117.0698	20	C9H9+
118.0649	1	C8H8N+
120.0806	1	C8H10N+
121.065	1	C8H9O+
124.0392	15	C6H6NO2+
129.0699	1	C10H9+
130.065	12	C9H8N+
132.0807	2	C9H10N+
133.0648	2	C9H9O+
134.0959	2	C9H12N+
135.044	1	C8H7O2+
136.0756	1	C8H10NO+
143.073	12	C10H9N+
143.0855	1	C11H11+
144.0807	999	C10H10N+
149.0595	2	C9H9O2+
150.0911	2	C9H12NO+
155.0603	5	C10H7N2+
155.0728	2	C11H9N+
156.0807	26	C11H10N+
157.0883	5	C11H11N+
158.06	1	C10H8NO+
158.0964	16	C11H12N+
162.0913	3	C10H12NO+
164.0706	3	C9H10NO2+
168.0807	6	C12H10N+
169.0887	3	C12H11N+
170.0963	57	C12H12N+
171.0909	1	C11H11N2+
178.0862	48	C10H12NO2+
180.0808	3	C13H10N+
181.089	1	C13H11N+
182.0963	27	C13H12N+
184.0994	1	C12H12N2+
190.0862	2	C11H12NO2+
194.0961	4	C14H12N+
194.1169	1	C11H16NO2+
196.1119	4	C14H14N+
199.1222	2	C13H15N2+
206.0964	4	C15H12N+
208.0749	2	C14H10NO+
208.0966	2	C11H14NO3+
208.1119	3	C15H14N+
210.0916	3	C14H12NO+
210.1123	11	C11H16NO3+
210.1273	1	C15H16N+
217.0882	1	C16H11N+
218.096	2	C16H12N+
219.1046	1	C16H13N+
220.112	2	C16H14N+
222.0913	2	C15H12NO+
222.1121	5	C12H16NO3+
222.1278	5	C16H16N+
224.1068	7	C15H14NO+
232.1119	2	C17H14N+
234.0916	3	C16H12NO+
234.1275	3	C17H16N+
235.0986	1	C16H13NO+
236.1432	1	C17H18N+
238.0859	1	C15H12NO2+
246.1281	1	C18H16N+
248.1072	1	C17H14NO+
250.0858	1	C16H12NO2+
250.1225	6	C17H16NO+
251.1547	2	C17H19N2+
252.1018	16	C16H14NO2+
260.1067	2	C18H14NO+
264.1381	2	C18H18NO+
278.1172	4	C18H16NO2+
292.1334	2	C19H18NO2+
