Mass spectrum: (-)-Scopolamine; LC-ESI-ITFT; MS2; CE: 20%; R=15000; [M+H]+
Name: (-)-Scopolamine
Formula: C17H21NO4
Exact mass: 303.1471
SMILES: CN1[C@@H]2C[C@H](C[C@H]1[C@H]3[C@@H]2O3)OC(=O)[C@H](CO)c4ccccc4
InChI: InChI=1S/C17H21NO4/c1-18-13-7-11(8-14(18)16-15(13)22-16)21-17(20)12(9-19)10-5-3-2-4-6-10/h2-6,11-16,19H,7-9H2,1H3/t11-,12-,13-,14+,15-,16+/m1/s1
Instrument: LTQ Orbitrap XL Thermo Scientific
Instrument type: LC-ESI-ITFT
Ms type: MS2
Ion mode: POSITIVE
Ionization: ESI
Fragmentation mode: HCD
Collision energy: 20% (nominal)
Resolution: 15000
Column name: Kinetex Evo C18 2.6 um 50 x 2.1 mm
Retention time: 1.127 min
Base peak: 304.154
Precursor m/z: 304.1543
Precursor type: [M+H]+
m/z	relative intensity	assigned
110.0964	6	C7H12N+
121.0648	25	C8H9O+
138.0913	212	C8H12NO+
156.102	253	C8H14NO2+
304.1545	999	C17H22NO4+
