Mass spectrum: (+)-Lupanine; LC-ESI-ITFT; MS2; CE: 80%; R=15000; [M+H]+
Name: (+)-Lupanine
Formula: C15H24N2O
Exact mass: 248.1889
SMILES: C1CCN2CC3CC(C2C1)CN4C3CCCC4=O
InChI: InChI=1S/C15H24N2O/c18-15-6-3-5-14-11-8-12(10-17(14)15)13-4-1-2-7-16(13)9-11/h11-14H,1-10H2
Instrument: LTQ Orbitrap XL Thermo Scientific
Instrument type: LC-ESI-ITFT
Ms type: MS2
Ion mode: POSITIVE
Ionization: ESI
Fragmentation mode: CID
Collision energy: 80 % (nominal)
Resolution: 15000
Column name: Kinetex Evo C18 2.6 um 50 x 2.1 mm
Retention time: 0.587 min
Base peak: 235.2166
Precursor m/z: 249.1961
Precursor type: [M+H]+
m/z	relative intensity	assigned
70.0651	4	C4H8N+
77.0386	3	C6H5+
79.0543	7	C6H7+
80.0494	30	C5H6N+
82.0649	6	C5H8N+
84.0807	26	C5H10N+
85.0647	6	C5H9O+
91.0542	23	C7H7+
93.0698	8	C7H9+
94.0651	19	C6H8N+
95.0856	2	C7H11+
96.0807	110	C6H10N+
98.0963	126	C6H12N+
100.0755	4	C5H10NO+
105.0697	27	C8H9+
107.0854	7	C8H11+
108.0807	23	C7H10N+
109.0887	4	C7H11N+
110.06	4	C6H8NO+
110.0963	17	C7H12N+
112.0756	55	C6H10NO+
112.1119	6	C7H14N+
114.0912	282	C6H12NO+
117.0697	4	C9H9+
119.0855	7	C9H11+
120.0808	5	C8H10N+
121.1012	9	C9H13+
122.0963	49	C8H12N+
124.0756	14	C7H10NO+
124.112	22	C8H14N+
131.0853	6	C10H11+
133.1011	18	C10H13+
134.0963	151	C9H12N+
135.1041	8	C9H13N+
136.1119	999	C9H14N+
138.0911	14	C8H12NO+
138.1276	12	C9H16N+
145.1014	10	C11H13+
146.096	4	C10H12N+
148.0757	13	C9H10NO+
148.112	66	C10H14N+
150.0915	19	C9H12NO+
150.1276	315	C10H16N+
152.1069	62	C9H14NO+
152.1433	41	C10H18N+
159.1164	9	C12H15+
162.0912	10	C10H12NO+
162.1275	17	C11H16N+
164.1067	13	C10H14NO+
166.1226	38	C10H16NO+
174.1276	37	C12H16N+
176.1068	10	C11H14NO+
176.1432	43	C12H18N+
178.1222	14	C11H16NO+
188.1432	11	C13H18N+
189.1385	71	C12H17N2+
190.1589	15	C13H20N+
200.1432	12	C14H18N+
204.1381	154	C13H18NO+
206.1538	31	C13H20NO+
218.1537	36	C14H20NO+
220.169	6	C14H22NO+
221.2003	3	C14H25N2+
229.1704	6	C15H21N2+
231.1853	368	C15H23N2+
