Mass spectrum: Seneciphylline N-oxide; LC-ESI-ITFT; MS2; CE: 70%; R=15000; [M+H]+
Name: Seneciphylline N-oxide
Name: (1R,4E,7R,17R)-4-ethylidene-7-hydroxy-7-methyl-6-methylidene-14-oxido-2,9-dioxa-14-azoniatricyclo[9.5.1.014,17]heptadec-11-ene-3,8-dione
Formula: C18H23NO6
Exact mass: 349.1525
SMILES: C/C=C/1\CC(=C)[C@@](C(=O)OCC2=CC[N+]3([C@H]2[C@@H](CC3)OC1=O)[O-])(C)O
InChI: InChI=1S/C18H23NO6/c1-4-12-9-11(2)18(3,22)17(21)24-10-13-5-7-19(23)8-6-14(15(13)19)25-16(12)20/h4-5,14-15,22H,2,6-10H2,1,3H3/b12-4+/t14-,15-,18-,19?/m1/s1
Instrument: LTQ Orbitrap XL Thermo Scientific
Instrument type: LC-ESI-ITFT
Ms type: MS2
Ion mode: POSITIVE
Ionization: ESI
Fragmentation mode: HCD
Collision energy: 70% (nominal)
Resolution: 15000
Column name: Kinetex Evo C18 2.6 um 50 x 2.1 mm
Retention time: 2.981 min
Base peak: 350.1597
Precursor m/z: 350.1598
Precursor type: [M+H]+
m/z	relative intensity	assigned
67.0417	12	C4H5N+
67.0542	25	C5H7+
68.0495	24	C4H6N+
70.0651	17	C4H8N+
77.0387	12	C6H5+
79.0543	70	C6H7+
80.0495	121	C5H6N+
81.0574	19	C5H7N+
81.07	63	C6H9+
82.0652	30	C5H8N+
84.0446	19	C4H6NO+
91.0543	88	C7H7+
93.0574	439	C6H7N+
93.07	23	C7H9+
94.0652	946	C6H8N+
95.073	259	C6H9N+
95.0856	41	C7H11+
96.0809	22	C6H10N+
98.0601	59	C5H8NO+
105.0699	72	C8H9+
106.0652	208	C7H8N+
107.0492	66	C7H7O+
107.0732	19	C7H9N+
107.0855	30	C8H11+
108.0808	218	C7H10N+
109.0648	127	C7H9O+
109.0887	39	C7H11N+
110.0601	16	C6H8NO+
111.0681	25	C6H9NO+
112.0758	60	C6H10NO+
117.0573	24	C8H7N+
118.0652	578	C8H8N+
119.073	484	C8H9N+
120.0809	999	C8H10N+
121.0648	14	C8H9O+
121.0887	39	C8H11N+
122.0729	9	C8H10O+
122.0965	67	C8H12N+
123.0805	79	C8H11O+
124.0757	22	C7H10NO+
126.0913	11	C7H12NO+
132.0805	21	C9H10N+
133.065	21	C9H9O+
134.0965	12	C9H12N+
136.0758	663	C8H10NO+
137.0838	33	C8H11NO+
138.0914	228	C8H12NO+
151.0755	57	C9H11O2+
154.0863	60	C8H12NO2+
158.0968	11	C11H12N+
178.1226	16	C11H16NO+
209.1169	20	C12H17O3+
350.1606	15	C18H24NO6+
