Mass spectrum: Coniferaldehyde; LC-ESI-ITFT; MS2; CE: 20%; R=15000; [M+H]+
Name: Coniferaldehyde
Formula: C10H10O3
Exact mass: 178.0630
SMILES: COC1=CC(\C=C\C=O)=CC=C1O
InChI: InChI=1S/C10H10O3/c1-13-10-7-8(3-2-6-11)4-5-9(10)12/h2-7,12H,1H3/b3-2+
Instrument: LTQ Orbitrap XL Thermo Scientific
Instrument type: LC-ESI-ITFT
Ms type: MS2
Ion mode: POSITIVE
Ionization: ESI
Fragmentation mode: CID
Collision energy: 20 % (nominal)
Resolution: 15000
Column name: Kinetex Evo C18 2.6 um 50 x 2.1 mm
Retention time: 7.483 min
Base peak: 179.0701
Precursor m/z: 179.0703
Precursor type: [M+H]+
m/z	relative intensity	assigned
55.0177	2	C3H3O+
95.0493	1	C6H7O+
105.0699	4	C8H9+
115.0542	1	C9H7+
119.0491	4	C8H7O+
123.0441	5	C7H7O2+
133.0649	21	C9H9O+
135.0442	1	C8H7O2+
137.06	1	C8H9O2+
147.0441	191	C9H7O2+
151.0755	3	C9H11O2+
161.0598	201	C10H9O2+
179.0703	999	C10H11O3+
