Mass spectrum: Erucifoline; LC-ESI-ITFT; MS2; CE: 40%; R=15000; [M+H]+
Name: Erucifoline
Name: (5R,7S,9Z,12R,18R)-9-ethylidene-7-(hydroxymethyl)-5-methyl-3,6,11-trioxa-15-azatetracyclo[10.5.1.05,7.015,18]octadec-1(17)-ene-4,10-dione
Formula: C18H23NO6
Exact mass: 349.1525
SMILES: C/C=C\1/C[C@@]2([C@@](O2)(C(=O)OCC3=CCN4[C@H]3[C@@H](CC4)OC1=O)C)CO
InChI: InChI=1S/C18H23NO6/c1-3-11-8-18(10-20)17(2,25-18)16(22)23-9-12-4-6-19-7-5-13(14(12)19)24-15(11)21/h3-4,13-14,20H,5-10H2,1-2H3/b11-3-/t13-,14-,17+,18+/m1/s1
Instrument: LTQ Orbitrap XL Thermo Scientific
Instrument type: LC-ESI-ITFT
Ms type: MS2
Ion mode: POSITIVE
Ionization: ESI
Fragmentation mode: HCD
Collision energy: 40% (nominal)
Resolution: 15000
Column name: Kinetex Evo C18 2.6 um 50 x 2.1 mm
Retention time: 0.960 min
Base peak: 350.1595
Precursor m/z: 350.1598
Precursor type: [M+H]+
m/z	relative intensity	assigned
67.0541	2	C5H7+
68.0495	2	C4H6N+
79.0543	2	C6H7+
80.0495	5	C5H6N+
81.07	2	C6H9+
82.065	4	C5H8N+
91.0541	3	C7H7+
92.0497	2	C6H6N+
93.0699	12	C7H9+
94.0651	15	C6H8N+
95.0854	1	C7H11+
96.0808	8	C6H10N+
103.0543	4	C8H7+
106.0647	2	C7H8N+
108.0808	3	C7H10N+
109.0647	2	C7H9O+
110.06	4	C6H8NO+
110.096	3	C7H12N+
111.0444	1	C6H7O2+
118.0651	6	C8H8N+
120.0807	135	C8H10N+
121.0649	2	C8H9O+
121.0887	5	C8H11N+
122.0963	10	C8H12N+
123.0439	2	C7H7O2+
125.0598	3	C7H9O2+
136.0755	2	C8H10NO+
138.0913	101	C8H12NO+
141.0547	6	C7H9O3+
146.0962	1	C10H12N+
148.1121	1	C10H14N+
156.1025	1	C8H14NO2+
164.107	23	C10H14NO+
165.0545	4	C9H9O3+
167.0711	2	C9H11O3+
182.1177	1	C10H16NO2+
192.1016	1	C11H14NO2+
220.133	3	C13H18NO2+
320.1493	2	C17H22NO5+
322.1649	27	C17H24NO5+
350.1598	999	C18H24NO6+
