Mass spectrum: Yohimbine; LC-ESI-ITFT; MS2; CE: 95%; R=15000; [M+H]+
Name: Yohimbine
Name: methyl (1S,15R,18S,19R,20S)-18-hydroxy-1,3,11,12,14,15,16,17,18,19,20,21-dodecahydroyohimban-19-carboxylate
Formula: C21H26N2O3
Exact mass: 354.1943
SMILES: COC(=O)[C@H]1[C@H](CC[C@@H]2[C@@H]1C[C@H]3c4c(c5ccccc5[nH]4)CCN3C2)O
InChI: InChI=1S/C21H26N2O3/c1-26-21(25)19-15-10-17-20-14(13-4-2-3-5-16(13)22-20)8-9-23(17)11-12(15)6-7-18(19)24/h2-5,12,15,17-19,22,24H,6-11H2,1H3/t12-,15-,17-,18-,19+/m0/s1
Instrument: LTQ Orbitrap XL Thermo Scientific
Instrument type: LC-ESI-ITFT
Ms type: MS2
Ion mode: POSITIVE
Ionization: ESI
Fragmentation mode: HCD
Collision energy: 95% (nominal)
Resolution: 15000
Column name: Kinetex Evo C18 2.6 um 50 x 2.1 mm
Retention time: 6.517 min
Base peak: 355.2013
Precursor m/z: 355.2016
Precursor type: [M+H]+
m/z	relative intensity	assigned
67.0542	2	C5H7+
70.0651	1	C4H8N+
77.0386	5	C6H5+
79.0543	9	C6H7+
80.0494	8	C5H6N+
81.0335	3	C5H5O+
81.0699	5	C6H9+
91.0542	55	C7H7+
92.0497	2	C6H6N+
93.0572	3	C6H7N+
93.0697	5	C7H9+
94.0651	23	C6H8N+
95.073	3	C6H9N+
103.0542	22	C8H7+
104.0494	3	C7H6N+
105.0446	4	C6H5N2+
105.07	11	C8H9+
106.0651	38	C7H8N+
107.0492	3	C7H7O+
107.0727	2	C7H9N+
107.0855	4	C8H11+
108.0809	3	C7H10N+
115.0542	89	C9H7+
116.0493	9	C8H6N+
116.0622	4	C9H8+
117.0573	39	C8H7N+
117.0699	291	C9H9+
118.0651	18	C8H8N+
119.0494	2	C8H7O+
119.0731	2	C8H9N+
119.0855	1	C9H11+
120.0807	9	C8H10N+
127.0542	12	C10H7+
128.0495	26	C9H6N+
128.0621	14	C10H8+
129.0574	6	C9H7N+
129.0699	9	C10H9+
130.0651	43	C9H8N+
131.0729	9	C9H9N+
132.0809	11	C9H10N+
133.0649	3	C9H9O+
134.0602	2	C8H8NO+
134.0964	34	C9H12N+
135.1044	3	C9H13N+
142.0653	8	C10H8N+
143.073	232	C10H9N+
144.0808	999	C10H10N+
145.0646	8	C10H9O+
146.0601	5	C9H8NO+
146.0962	3	C10H12N+
154.0654	5	C11H8N+
155.0604	123	C10H7N2+
155.0728	8	C11H9N+
156.0808	12	C11H10N+
157.0886	8	C11H11N+
158.0965	14	C11H12N+
162.0911	7	C10H12NO+
167.073	11	C12H9N+
168.0808	15	C12H10N+
169.0884	2	C12H11N+
170.0965	5	C12H12N+
180.0808	14	C13H10N+
181.0882	4	C13H11N+
182.0962	6	C13H12N+
192.081	3	C14H10N+
193.0888	6	C14H11N+
194.0966	10	C14H12N+
195.1033	2	C14H13N+
196.1118	2	C14H14N+
204.0811	5	C15H10N+
205.0884	4	C15H11N+
206.0963	11	C15H12N+
208.1123	6	C15H14N+
217.0883	7	C16H11N+
218.0964	9	C16H12N+
219.1042	3	C16H13N+
220.112	8	C16H14N+
230.0964	6	C17H12N+
231.1053	3	C17H13N+
232.1122	8	C17H14N+
233.1208	3	C17H15N+
244.1125	3	C18H14N+
246.1286	3	C18H16N+
