Mass spectrum: Colchicine; LC-ESI-ITFT; MS2; CE: 25%; R=15000; [M+H]+
Name: Colchicine
Name: N-[(7S)-1,2,3,10-tetramethoxy-9-oxo-6,7-dihydro-5H-benzo[a]heptalen-7-yl]acetamide
Formula: C22H25NO6
Exact mass: 399.1682
SMILES: CC(=O)N[C@H]1CCC2=CC(=C(C(=C2C3=CC=C(C(=O)C=C13)OC)OC)OC)OC
InChI: InChI=1S/C22H25NO6/c1-12(24)23-16-8-6-13-10-19(27-3)21(28-4)22(29-5)20(13)14-7-9-18(26-2)17(25)11-15(14)16/h7,9-11,16H,6,8H2,1-5H3,(H,23,24)/t16-/m0/s1
Instrument: LTQ Orbitrap XL Thermo Scientific
Instrument type: LC-ESI-ITFT
Ms type: MS2
Ion mode: POSITIVE
Ionization: ESI
Fragmentation mode: HCD
Collision energy: 25% (nominal)
Resolution: 15000
Column name: Kinetex Evo C18 2.6 um 50 x 2.1 mm
Retention time: 9.254 min
Base peak: 400.1756
Precursor m/z: 400.1755
Precursor type: [M+H]+
m/z	relative intensity	assigned
282.1259	4	C18H18O3+
310.1205	10	C19H18O4+
313.1438	14	C19H21O4+
326.1157	4	C19H18O5+
326.1386	18	C19H20NO4+
340.1541	4	C20H22NO4+
341.1385	34	C20H21O5+
358.1648	49	C20H24NO5+
368.1491	7	C21H22NO5+
382.1657	27	C22H24NO5+
400.1758	999	C22H26NO6+
