Mass spectrum: (-)-Nuciferine; LC-ESI-ITFT; MS2; CE: 35%; R=15000; [M+H]+
Name: (-)-Nuciferine
Name: Nuciferine
Name: (6aR)-1,2-dimethoxy-6-methyl-5,6,6a,7-tetrahydro-4H-dibenzo[de,g]quinoline
Formula: C19H21NO2
Exact mass: 295.1572
SMILES: CN1CCc2cc(c(c-3c2[C@H]1Cc4c3cccc4)OC)OC
InChI: InChI=1S/C19H21NO2/c1-20-9-8-13-11-16(21-2)19(22-3)18-14-7-5-4-6-12(14)10-15(20)17(13)18/h4-7,11,15H,8-10H2,1-3H3/t15-/m1/s1
Instrument: LTQ Orbitrap XL Thermo Scientific
Instrument type: LC-ESI-ITFT
Ms type: MS2
Ion mode: POSITIVE
Ionization: ESI
Fragmentation mode: HCD
Collision energy: 35% (nominal)
Resolution: 15000
Column name: Kinetex Evo C18 2.6 um 50 x 2.1 mm
Retention time: 7.654 min
Base peak: 296.1644
Precursor m/z: 296.1645
Precursor type: [M+H]+
m/z	relative intensity	assigned
205.1016	1	C16H13+
221.0967	2	C16H13O+
222.0675	2	C15H10O2+
222.1039	1	C16H14O+
233.096	13	C17H13O+
234.1039	118	C17H14O+
235.0751	4	C16H11O2+
235.1118	6	C17H15O+
236.0832	25	C16H12O2+
237.0907	10	C16H13O2+
238.0994	2	C16H14O2+
249.091	1	C17H13O2+
250.0988	287	C17H14O2+
253.1223	12	C17H17O2+
265.1222	999	C18H17O2+
296.1645	119	C19H22NO2+
