Mass spectrum: Senkirkine; LC-ESI-ITFT; MS2; CE: 65%; R=15000; [M+H]+
Name: Senkirkine
Name: (1R,4Z,6R,7R,11Z)-4-ethylidene-7-hydroxy-6,7,14-trimethyl-2,9-dioxa-14-azabicyclo[9.5.1]heptadec-11-ene-3,8,17-trione
Formula: C19H27NO6
Exact mass: 365.1838
SMILES: C/C=C\1/C[C@H]([C@@](C(=O)OC/C/2=C/CN(CC[C@H](C2=O)OC1=O)C)(C)O)C
InChI: InChI=1S/C19H27NO6/c1-5-13-10-12(2)19(3,24)18(23)25-11-14-6-8-20(4)9-7-15(16(14)21)26-17(13)22/h5-6,12,15,24H,7-11H2,1-4H3/b13-5-,14-6-/t12-,15-,19-/m1/s1
Instrument: LTQ Orbitrap XL Thermo Scientific
Instrument type: LC-ESI-ITFT
Ms type: MS2
Ion mode: POSITIVE
Ionization: ESI
Fragmentation mode: HCD
Collision energy: 65% (nominal)
Resolution: 15000
Column name: Kinetex Evo C18 2.6 um 50 x 2.1 mm
Retention time: 6.388 min
Base peak: 366.1908
Precursor m/z: 366.1911
Precursor type: [M+H]+
m/z	relative intensity	assigned
53.0384	8	C4H5+
55.0541	10	C4H7+
59.049	4	C3H7O+
67.0542	15	C5H7+
69.0334	5	C4H5O+
69.0697	2	C5H9+
70.065	231	C4H8N+
77.0384	3	C6H5+
79.0542	63	C6H7+
81.0334	7	C5H5O+
81.0573	2	C5H7N+
81.0699	47	C6H9+
82.0651	7	C5H8N+
83.0491	30	C5H7O+
84.0809	2	C5H10N+
91.0542	15	C7H7+
93.0699	9	C7H9+
94.0651	66	C6H8N+
95.0491	22	C6H7O+
95.0732	2	C6H9N+
95.0854	2	C7H11+
96.0807	32	C6H10N+
97.0284	3	C5H5O2+
97.0647	28	C6H9O+
98.06	19	C5H8NO+
99.044	8	C5H7O2+
100.0757	2	C5H10NO+
101.0596	42	C5H9O2+
105.0699	7	C8H9+
107.0491	200	C7H7O+
107.0729	21	C7H9N+
107.0854	137	C8H11+
108.0568	5	C7H8O+
108.0807	12	C7H10N+
109.0647	24	C7H9O+
109.101	40	C8H13+
110.06	31	C6H8NO+
111.0441	6	C6H7O2+
111.0805	6	C7H11O+
112.0755	5	C6H10NO+
116.0705	19	C5H10NO2+
117.0572	3	C8H7N+
117.0699	2	C9H9+
119.0491	2	C8H7O+
120.0807	18	C8H10N+
121.0889	3	C8H11N+
122.06	348	C7H8NO+
122.0963	98	C8H12N+
123.0677	30	C7H9NO+
124.0756	46	C7H10NO+
125.0596	69	C7H9O2+
125.0832	7	C7H11NO+
125.096	100	C8H13O+
126.0912	4	C7H12NO+
132.0808	3	C9H10N+
135.0804	74	C9H11O+
137.0595	7	C8H9O2+
137.0834	17	C8H11NO+
137.0959	9	C9H13O+
138.0913	9	C8H12NO+
139.0752	2	C8H11O2+
140.0705	113	C7H10NO2+
140.1069	12	C8H14NO+
148.0756	4	C9H10NO+
150.0912	187	C9H12NO+
152.1067	3	C9H14NO+
153.0909	78	C9H13O2+
166.0855	2	C9H12NO2+
168.1018	999	C9H14NO2+
181.0852	2	C10H13O3+
186.1122	2	C9H16NO3+
250.1434	3	C14H20NO3+
366.1909	30	C19H28NO6+
