Mass spectrum: Heliotrine N-oxide; LC-ESI-ITFT; MS2; CE: 60%; R=15000; [M+H]+
Name: Heliotrine N-oxide
Name: [(7S,8R)-7-hydroxy-4-oxido-5,6,7,8-tetrahydro-3H-pyrrolizin-4-ium-1-yl]methyl (2S)-2-hydroxy-2-[(1R)-1-methoxyethyl]-3-methylbutanoate
Formula: C16H27NO6
Exact mass: 329.1838
SMILES: C[C@H]([C@@](C(C)C)(C(=O)OCC1=CC[N+]2([C@H]1[C@H](CC2)O)[O-])O)OC
InChI: InChI=1S/C16H27NO6/c1-10(2)16(20,11(3)22-4)15(19)23-9-12-5-7-17(21)8-6-13(18)14(12)17/h5,10-11,13-14,18,20H,6-9H2,1-4H3/t11-,13+,14-,16+,17?/m1/s1
Instrument: LTQ Orbitrap XL Thermo Scientific
Instrument type: LC-ESI-ITFT
Ms type: MS2
Ion mode: POSITIVE
Ionization: ESI
Fragmentation mode: HCD
Collision energy: 60% (nominal)
Resolution: 15000
Column name: Kinetex Evo C18 2.6 um 50 x 2.1 mm
Retention time: 2.733 min
Base peak: 143.0015
Precursor m/z: 330.1911
Precursor type: [M+H]+
m/z	relative intensity	assigned
59.0491	3	C3H7O+
67.0543	4	C5H7+
68.0495	6	C4H6N+
71.0856	2	C5H11+
80.0495	13	C5H6N+
81.0696	5	C6H9+
82.0413	11	C5H6O+
82.0651	11	C5H8N+
83.0492	14	C5H7O+
93.0573	54	C6H7N+
94.0651	65	C6H8N+
98.0601	14	C5H8NO+
102.0549	15	C4H8NO2+
106.0651	9	C7H8N+
108.0807	18	C7H10N+
109.0648	5	C7H9O+
110.06	11	C6H8NO+
111.0679	77	C6H9NO+
112.0757	19	C6H10NO+
124.0757	18	C7H10NO+
126.0916	4	C7H12NO+
128.0708	3	C6H10NO2+
136.0757	57	C8H10NO+
137.0836	23	C8H11NO+
138.0913	131	C8H12NO+
140.0711	3	C7H10NO2+
142.0859	3	C7H12NO2+
154.0863	41	C8H12NO2+
155.0942	51	C8H13NO2+
172.0969	999	C8H14NO3+
330.1913	51	C16H28NO6+
