Mass spectrum: Senecivernine N-oxide; LC-ESI-ITFT; MS2; CE: 95%; R=15000; [M+H]+
Name: Senecivernine N-oxide
Name: CID 14313723
Name: 7-hydroxy-5,6,7-trimethyl-4-methylidene-14-oxido-2,9-dioxa-14-azoniatricyclo[9.5.1.014,17]heptadec-11-ene-3,8-dione
Formula: C18H25NO6
Exact mass: 351.1682
SMILES: CC1C(C(C(=O)OCC2=CC[N+]3(C2C(CC3)OC(=O)C1=C)[O-])(C)O)C
InChI: InChI=1S/C18H25NO6/c1-10-11(2)16(20)25-14-6-8-19(23)7-5-13(15(14)19)9-24-17(21)18(4,22)12(10)3/h5,10,12,14-15,22H,2,6-9H2,1,3-4H3
Instrument: LTQ Orbitrap XL Thermo Scientific
Instrument type: LC-ESI-ITFT
Ms type: MS2
Ion mode: POSITIVE
Ionization: ESI
Fragmentation mode: HCD
Collision energy: 95% (nominal)
Resolution: 15000
Column name: Kinetex Evo C18 2.6 um 50 x 2.1 mm
Retention time: 4.725 min
Base peak: 352.1753
Precursor m/z: 352.1755
Precursor type: [M+H]+
m/z	relative intensity	assigned
65.0385	12	C5H5+
66.0465	18	C5H6+
67.0418	24	C4H5N+
67.0541	55	C5H7+
77.0385	15	C6H5+
79.0543	126	C6H7+
80.0495	218	C5H6N+
81.0573	23	C5H7N+
81.0699	194	C6H9+
82.0649	13	C5H8N+
83.0492	22	C5H7O+
84.0446	23	C4H6NO+
91.0543	113	C7H7+
92.0495	45	C6H6N+
93.0573	438	C6H7N+
94.0652	999	C6H8N+
95.073	98	C6H9N+
96.0808	20	C6H10N+
106.0652	193	C7H8N+
107.0732	13	C7H9N+
107.0855	37	C8H11+
108.0441	21	C6H6NO+
108.0808	175	C7H10N+
109.0649	16	C7H9O+
110.0599	30	C6H8NO+
111.0441	20	C6H7O2+
111.0679	13	C6H9NO+
117.0574	56	C8H7N+
118.0652	494	C8H8N+
119.073	171	C8H9N+
120.0808	630	C8H10N+
122.0964	24	C8H12N+
124.0751	10	C7H10NO+
132.0803	14	C9H10N+
136.0758	311	C8H10NO+
138.0913	33	C8H12NO+
146.0962	15	C10H12N+
154.0866	15	C8H12NO2+
