Mass spectrum: Gelsemine; LC-ESI-ITFT; MS2; CE: 70%; R=15000; [M+H]+
Name: Gelsemine
Name: (2`S,3S,5`S,6`S,11`S)-2`-ethenyl-4`-methylspiro[1H-indole-3,7`-9-oxa-4-azatetracyclo[6.3.1.02,6.05,11]dodecane]-2-one
Formula: C20H22N2O2
Exact mass: 322.1681
SMILES: CN1C[C@@]2([C@@H]3[C@H]1[C@@H]4C2CC([C@@]35c6ccccc6NC5=O)OC4)C=C
InChI: InChI=1S/C20H22N2O2/c1-3-19-10-22(2)16-11-9-24-15(8-13(11)19)20(17(16)19)12-6-4-5-7-14(12)21-18(20)23/h3-7,11,13,15-17H,1,8-10H2,2H3,(H,21,23)/t11-,13?,15?,16+,17-,19-,20-/m0/s1
Instrument: LTQ Orbitrap XL Thermo Scientific
Instrument type: LC-ESI-ITFT
Ms type: MS2
Ion mode: POSITIVE
Ionization: ESI
Fragmentation mode: HCD
Collision energy: 70% (nominal)
Resolution: 15000
Column name: Kinetex Evo C18 2.6 um 50 x 2.1 mm
Retention time: 1.781 min
Base peak: 323.1753
Precursor m/z: 323.1754
Precursor type: [M+H]+
m/z	relative intensity	assigned
70.0651	999	C4H8N+
86.06	46	C4H8NO+
88.0757	26	C4H10NO+
91.0542	49	C7H7+
93.0699	8	C7H9+
94.0653	16	C6H8N+
96.0805	5	C6H10N+
105.0698	29	C8H9+
108.0807	8	C7H10N+
115.0542	19	C9H7+
116.0617	9	C9H8+
117.0699	116	C9H9+
118.0646	6	C8H8N+
119.0857	7	C9H11+
120.0808	11	C8H10N+
129.0699	14	C10H9+
130.0652	19	C9H8N+
131.0855	118	C10H11+
132.0444	64	C8H6NO+
132.0809	6	C9H10N+
134.0602	11	C8H8NO+
134.0965	33	C9H12N+
135.1041	8	C9H13N+
141.0696	7	C11H9+
146.0601	99	C9H8NO+
146.0965	16	C10H12N+
147.1039	8	C10H13N+
148.1121	23	C10H14N+
150.0917	8	C9H12NO+
158.0601	75	C10H8NO+
159.0806	25	C11H11O+
160.1122	10	C11H14N+
162.1278	18	C11H16N+
165.0696	5	C13H9+
172.0757	10	C11H10NO+
176.1063	6	C11H14NO+
178.0654	11	C13H8N+
180.0807	12	C13H10N+
182.0603	5	C12H8NO+
183.068	14	C12H9NO+
184.0757	21	C12H10NO+
190.123	12	C12H16NO+
191.0857	6	C15H11+
191.1305	8	C12H17NO+
192.0808	5	C14H10N+
193.0887	6	C14H11N+
195.0678	239	C13H9NO+
196.0757	109	C13H10NO+
203.0728	15	C15H9N+
204.0802	4	C15H10N+
208.0755	53	C14H10NO+
208.1122	7	C15H14N+
209.0833	9	C14H11NO+
210.0913	108	C14H12NO+
217.0883	17	C16H11N+
218.0964	72	C16H12N+
220.0754	5	C15H10NO+
220.1121	8	C16H14N+
222.0915	18	C15H12NO+
230.0964	9	C17H12N+
233.084	8	C16H11NO+
234.0911	10	C16H12NO+
236.107	371	C16H14NO+
238.1226	42	C16H16NO+
246.0912	5	C17H12NO+
248.1077	9	C17H14NO+
262.1223	9	C18H16NO+
274.1231	5	C19H16NO+
323.1755	52	C20H23N2O2+
