Mass spectrum: Conessine; LC-ESI-ITFT; MS2; CE: 50%; R=15000; [M+H]+
Name: Conessine
Formula: C24H40N2
Exact mass: 356.3191
SMILES: C[C@H]1[C@H]2CC[C@H]3[C@@H]4CC=C5C[C@H](CC[C@]5(C)[C@H]4CC[C@]23CN1C)N(C)C
InChI: InChI=1S/C24H40N2/c1-16-20-8-9-22-19-7-6-17-14-18(25(3)4)10-12-23(17,2)21(19)11-13-24(20,22)15-26(16)5/h6,16,18-22H,7-15H2,1-5H3/t16-,18-,19+,20+,21-,22-,23-,24-/m0/s1
Instrument: LTQ Orbitrap XL Thermo Scientific
Instrument type: LC-ESI-ITFT
Ms type: MS2
Ion mode: POSITIVE
Ionization: ESI
Fragmentation mode: CID
Collision energy: 50 % (nominal)
Resolution: 15000
Column name: Kinetex Evo C18 2.6 um 50 x 2.1 mm
Retention time: 5.555 min
Base peak: 179.1667
Precursor m/z: 357.3264
Precursor type: [M+H]+
m/z	relative intensity	assigned
91.0541	1	C7H7+
105.0698	16	C8H9+
107.0855	4	C8H11+
109.1012	4	C8H13+
115.0543	6	C9H7+
117.0699	18	C9H9+
119.0855	25	C9H11+
121.1012	9	C9H13+
123.1167	3	C9H15+
128.0622	3	C10H8+
129.0699	12	C10H9+
130.0783	2	C10H10+
131.0855	40	C10H11+
133.1012	28	C10H13+
135.1169	13	C10H15+
141.0697	1	C11H9+
142.0778	3	C11H10+
143.0856	12	C11H11+
144.0933	4	C11H12+
145.1012	52	C11H13+
147.1169	81	C11H15+
149.1327	8	C11H17+
157.1014	19	C12H13+
159.1169	166	C12H15+
161.1326	142	C12H17+
163.1481	2	C12H19+
169.1008	2	C13H13+
171.117	20	C13H15+
173.1326	85	C13H17+
175.1482	12	C13H19+
183.117	4	C14H15+
185.1326	24	C14H17+
187.1483	97	C14H19+
189.1638	3	C14H21+
197.1327	3	C15H17+
199.1482	30	C15H19+
200.1568	3	C15H20+
201.1638	15	C15H21+
211.1483	6	C16H19+
213.1639	26	C16H21+
215.1793	2	C16H23+
225.1639	6	C17H21+
227.1795	24	C17H23+
239.1798	3	C18H23+
240.1878	4	C18H24+
241.1953	5	C18H25+
253.194	1	C19H25+
269.2265	225	C20H29+
281.2264	6	C21H29+
298.2532	5	C21H32N+
299.2612	11	C21H33N+
312.2687	999	C22H34N+
314.2851	2	C22H36N+
326.2843	9	C23H36N+
