Mass spectrum: (+)-Sparteine; LC-ESI-ITFT; MS2; CE: 105%; R=15000; [M+H]+
Name: (+)-Sparteine
Formula: C15H26N2
Exact mass: 234.2096
SMILES: C1CCN2C[C@H]3C[C@@H]([C@H]2C1)CN4[C@H]3CCCC4
InChI: InChI=1S/C15H26N2/c1-3-7-16-11-13-9-12(14(16)5-1)10-17-8-4-2-6-15(13)17/h12-15H,1-11H2/t12-,13-,14-,15+/m1/s1
Instrument: LTQ Orbitrap XL Thermo Scientific
Instrument type: LC-ESI-ITFT
Ms type: MS2
Ion mode: POSITIVE
Ionization: ESI
Fragmentation mode: HCD
Collision energy: 105 % (nominal)
Resolution: 15000
Column name: Kinetex Evo C18 2.6 um 50 x 2.1 mm
Retention time: 0.540 min
Base peak: 235.2166
Precursor m/z: 235.2169
Precursor type: [M+H]+
m/z	relative intensity	assigned
55.0542	2	C4H7+
67.0542	3	C5H7+
70.0651	28	C4H8N+
79.0542	4	C6H7+
81.0698	4	C6H9+
82.0651	2	C5H8N+
84.0807	83	C5H10N+
91.0542	2	C7H7+
93.0698	3	C7H9+
94.0647	1	C6H8N+
95.0857	2	C7H11+
96.0808	15	C6H10N+
98.0964	999	C6H12N+
108.0805	2	C7H10N+
110.0964	10	C7H12N+
122.0962	5	C8H12N+
124.1119	6	C8H14N+
134.0963	12	C9H12N+
135.1041	1	C9H13N+
136.1117	3	C9H14N+
138.1275	2	C9H16N+
148.1124	3	C10H14N+
150.1276	26	C10H16N+
152.1433	19	C10H18N+
164.1432	2	C11H18N+
190.1586	2	C13H20N+
233.2011	30	C15H25N2+
235.2167	118	C15H27N2+
