Mass spectrum: Anabasine; LC-ESI-ITFT; MS2; CE: 70%; R=15000; [M+H]+
Name: Anabasine
Formula: C10H14N2
Exact mass: 162.1157
SMILES: C1CCC(NC1)C1=CC=CN=C1
InChI: InChI=1S/C10H14N2/c1-2-7-12-10(5-1)9-4-3-6-11-8-9/h3-4,6,8,10,12H,1-2,5,7H2
Instrument: LTQ Orbitrap XL Thermo Scientific
Instrument type: LC-ESI-ITFT
Ms type: MS2
Ion mode: POSITIVE
Ionization: ESI
Fragmentation mode: CID
Collision energy: 70 % (nominal)
Resolution: 15000
Column name: Kinetex Evo C18 2.6 um 50 x 2.1 mm
Retention time: 0.419 min
Base peak: 233.201
Precursor m/z: 163.123
Precursor type: [M+H]+
m/z	relative intensity	assigned
70.0651	7	C4H8N+
80.0495	69	C5H6N+
82.0652	31	C5H8N+
84.0808	9	C5H10N+
92.0495	33	C6H6N+
94.0651	473	C6H8N+
106.0653	4	C7H8N+
108.0808	14	C7H10N+
117.0573	9	C8H7N+
118.0651	88	C8H8N+
119.0857	1	C9H11+
120.0808	410	C8H10N+
129.0698	5	C10H9+
130.0649	2	C9H8N+
131.073	28	C9H9N+
132.0808	7	C9H10N+
134.0964	256	C9H12N+
135.092	3	C8H11N2+
136.1121	1	C9H14N+
144.0809	19	C10H10N+
146.0964	999	C10H12N+
