Mass spectrum: Ajmalicine; LC-ESI-ITFT; MS2; CE: 95%; R=15000; [M+H]+
Name: Ajmalicine
Name: methyl (1S,15R,16S,20S)-16-methyl-17-oxa-3,13-diazapentacyclo[11.8.0.02,10.04,9.015,20]henicosa-2(10),4,6,8,18-pentaene-19-carboxylate
Formula: C21H24N2O3
Exact mass: 352.1787
SMILES: C[C@H]1[C@H]2CN3CCc4c5ccccc5[nH]c4[C@@H]3C[C@@H]2C(=CO1)C(=O)OC
InChI: InChI=1S/C21H24N2O3/c1-12-16-10-23-8-7-14-13-5-3-4-6-18(13)22-20(14)19(23)9-15(16)17(11-26-12)21(24)25-2/h3-6,11-12,15-16,19,22H,7-10H2,1-2H3/t12-,15-,16+,19-/m0/s1
Instrument: LTQ Orbitrap XL Thermo Scientific
Instrument type: LC-ESI-ITFT
Ms type: MS2
Ion mode: POSITIVE
Ionization: ESI
Fragmentation mode: HCD
Collision energy: 95% (nominal)
Resolution: 15000
Column name: Kinetex Evo C18 2.6 um 50 x 2.1 mm
Retention time: 7.548 min
Base peak: 353.1858
Precursor m/z: 353.186
Precursor type: [M+H]+
m/z	relative intensity	assigned
53.1074	2	CH13N2+
67.0544	3	C5H7+
77.0386	13	C6H5+
79.0542	14	C6H7+
80.0495	3	C5H6N+
81.0699	11	C6H9+
83.0128	6	C4H3O2+
84.0808	2	C5H10N+
91.0542	53	C7H7+
93.0571	3	C6H7N+
93.0699	5	C7H9+
95.0491	7	C6H7O+
96.081	2	C6H10N+
103.0542	29	C8H7+
104.0495	4	C7H6N+
105.0447	11	C6H5N2+
105.0698	8	C8H9+
106.0651	2	C7H8N+
107.0493	6	C7H7O+
108.0807	15	C7H10N+
109.0286	5	C6H5O2+
109.0649	4	C7H9O+
115.0542	122	C9H7+
116.0494	14	C8H6N+
116.0576	3	C4H8N2O2+
116.062	6	C9H8+
117.0573	64	C8H7N+
117.0698	301	C9H9+
118.065	19	C8H8N+
118.0733	13	C4H10N2O2+
121.0647	3	C8H9O+
122.0237	3	C6H4NO2+
124.0393	15	C6H6NO2+
127.0542	19	C10H7+
128.0495	35	C9H6N+
128.0621	40	C10H8+
129.0573	8	C9H7N+
129.0698	39	C10H9+
130.0651	65	C9H8N+
131.0727	6	C9H9N+
134.0597	2	C8H8NO+
134.0963	3	C9H12N+
136.076	3	C8H10NO+
142.0652	17	C10H8N+
142.0783	2	C11H10+
143.0729	304	C10H9N+
144.0807	999	C10H10N+
145.0648	9	C10H9O+
146.0601	7	C9H8NO+
153.0703	4	C12H9+
154.065	31	C11H8N+
155.0603	147	C10H7N2+
155.0728	56	C11H9N+
156.0807	52	C11H10N+
157.0883	15	C11H11N+
158.0603	2	C10H8NO+
158.0962	10	C11H12N+
165.0698	7	C13H9+
167.0731	65	C12H9N+
168.0807	68	C12H10N+
169.0884	11	C12H11N+
170.0964	35	C12H12N+
178.0864	2	C10H12NO2+
179.0858	2	C14H11+
180.0807	45	C13H10N+
181.0886	19	C13H11N+
182.0964	29	C13H12N+
191.073	8	C14H9N+
192.0808	9	C14H10N+
193.0885	11	C14H11N+
194.0963	20	C14H12N+
204.0806	17	C15H10N+
205.0883	9	C15H11N+
206.0963	18	C15H12N+
207.1045	6	C15H13N+
208.076	3	C14H10NO+
208.1122	4	C15H14N+
210.0911	2	C14H12NO+
216.0816	2	C16H10N+
217.0883	15	C16H11N+
218.0965	15	C16H12N+
219.1037	3	C16H13N+
220.0754	5	C15H10NO+
220.1114	4	C16H14N+
230.096	9	C17H12N+
231.1041	3	C17H13N+
232.1111	2	C17H14N+
233.0834	2	C16H11NO+
234.0918	6	C16H12NO+
