Mass spectrum: Solasodin; LC-ESI-ITFT; MS2; CE: 105%; R=15000; [M+H]+
Name: Solasodin
Name: Solasodine
Name: (1S,2S,4S,5`R,6R,7S,8R,9S,12S,13R,16S)-5`,7,9,13-tetramethylspiro[5-oxapentacyclo[10.8.0.02,9.04,8.013,18]icos-18-ene-6,2`-piperidine]-16-ol
Formula: C27H43NO2
Exact mass: 413.3294
SMILES: C[C@@H]1CC[C@@]2([C@H]([C@H]3[C@@H](O2)C[C@@H]4[C@@]3(CC[C@H]5[C@H]4CC=C6[C@@]5(CC[C@@H](C6)O)C)C)C)NC1
InChI: InChI=1S/C27H43NO2/c1-16-7-12-27(28-15-16)17(2)24-23(30-27)14-22-20-6-5-18-13-19(29)8-10-25(18,3)21(20)9-11-26(22,24)4/h5,16-17,19-24,28-29H,6-15H2,1-4H3/t16-,17+,19+,20-,21+,22+,23+,24+,25+,26+,27-/m1/s1
Instrument: LTQ Orbitrap XL Thermo Scientific
Instrument type: LC-ESI-ITFT
Ms type: MS2
Ion mode: POSITIVE
Ionization: ESI
Fragmentation mode: HCD
Collision energy: 105% (nominal)
Resolution: 15000
Column name: Kinetex Evo C18 2.6 um 50 x 2.1 mm
Retention time: 10.818 min
Base peak: 414.3361
Precursor m/z: 414.3367
Precursor type: [M+H]+
m/z	relative intensity	assigned
55.0541	17	C4H7+
65.0385	12	C5H5+
67.0542	332	C5H7+
68.0493	20	C4H6N+
69.0698	93	C5H9+
70.0651	455	C4H8N+
77.0386	89	C6H5+
79.0542	497	C6H7+
80.0494	67	C5H6N+
81.0698	380	C6H9+
82.0651	72	C5H8N+
83.0493	10	C5H7O+
84.0807	32	C5H10N+
86.0963	19	C5H12N+
91.0542	896	C7H7+
92.0617	11	C7H8+
93.0698	498	C7H9+
94.0651	102	C6H8N+
95.0491	31	C6H7O+
95.0728	81	C6H9N+
95.0855	230	C7H11+
96.0808	93	C6H10N+
98.0964	35	C6H12N+
103.0542	38	C8H7+
105.0698	999	C8H9+
107.0726	14	C7H9N+
107.0855	227	C8H11+
108.0808	97	C7H10N+
109.065	10	C7H9O+
109.0886	56	C7H11N+
109.1011	96	C8H13+
110.0964	64	C7H12N+
111.1041	14	C7H13N+
114.0913	13	C6H12NO+
115.0541	121	C9H7+
116.062	55	C9H8+
117.0698	333	C9H9+
118.0776	41	C9H10+
119.0855	333	C9H11+
120.0807	19	C8H10N+
121.101	81	C9H13+
122.0964	70	C8H12N+
124.112	190	C8H14N+
125.1202	22	C8H15N+
126.1277	75	C8H16N+
128.062	220	C10H8+
129.0698	429	C10H9+
130.0776	131	C10H10+
131.0854	406	C10H11+
133.1011	277	C10H13+
134.0962	29	C9H12N+
135.1042	12	C9H13N+
135.1164	10	C10H15+
136.112	43	C9H14N+
138.1279	10	C9H16N+
141.0698	223	C11H9+
142.0776	598	C11H10+
143.0852	245	C11H11+
144.0932	131	C11H12+
145.1011	203	C11H13+
147.1167	155	C11H15+
148.112	95	C10H14N+
149.1197	17	C10H15N+
150.1277	183	C10H16N+
153.0697	37	C12H9+
154.0775	35	C12H10+
155.0855	181	C12H11+
156.0931	80	C12H12+
157.1011	368	C12H13+
159.1168	114	C12H15+
162.1278	74	C11H16N+
164.1432	43	C11H18N+
167.0854	87	C13H11+
168.0932	56	C13H12+
169.1012	123	C13H13+
171.1165	55	C13H15+
173.1326	16	C13H17+
176.1436	20	C12H18N+
181.101	80	C14H13+
182.1087	49	C14H14+
183.1167	108	C14H15+
185.1321	18	C14H17+
188.1433	23	C13H18N+
195.1166	39	C15H15+
196.1249	25	C15H16+
197.1322	67	C15H17+
202.1592	25	C14H20N+
204.1748	20	C14H22N+
209.1327	40	C16H17+
211.1485	17	C16H19+
223.148	49	C17H19+
