Mass spectrum: Erucifoline N-oxide; LC-ESI-ITFT; MS2; CE: 85%; R=15000; [M+H]+
Name: Erucifoline N-oxide
Name: (5R,7S,9Z,12R,18R)-9-ethylidene-7-(hydroxymethyl)-5-methyl-15-oxido-3,6,11-trioxa-15-azoniatetracyclo[10.5.1.05,7.015,18]octadec-1(17)-ene-4,10-dione
Formula: C18H23NO7
Exact mass: 365.1475
SMILES: C/C=C\1/C[C@@]2([C@@](O2)(C(=O)OCC3=CC[N+]4([C@H]3[C@@H](CC4)OC1=O)[O-])C)CO
InChI: InChI=1S/C18H23NO7/c1-3-11-8-18(10-20)17(2,26-18)16(22)24-9-12-4-6-19(23)7-5-13(14(12)19)25-15(11)21/h3-4,13-14,20H,5-10H2,1-2H3/b11-3-/t13-,14-,17+,18+,19?/m1/s1
Instrument: LTQ Orbitrap XL Thermo Scientific
Instrument type: LC-ESI-ITFT
Ms type: MS2
Ion mode: POSITIVE
Ionization: ESI
Fragmentation mode: HCD
Collision energy: 85% (nominal)
Resolution: 15000
Column name: Kinetex Evo C18 2.6 um 50 x 2.1 mm
Retention time: 1.123 min
Base peak: 366.1545
Precursor m/z: 366.1547
Precursor type: [M+H]+
m/z	relative intensity	assigned
53.0385	19	C4H5+
65.0386	9	C5H5+
66.0463	10	C5H6+
67.0416	15	C4H5N+
67.0542	49	C5H7+
68.0494	11	C4H6N+
77.0387	18	C6H5+
78.0341	7	C5H4N+
79.0543	62	C6H7+
80.0495	146	C5H6N+
81.0335	17	C5H5O+
81.0573	23	C5H7N+
81.0699	39	C6H9+
82.0651	16	C5H8N+
83.0129	5	C4H3O2+
83.0491	21	C5H7O+
84.0445	13	C4H6NO+
91.0543	79	C7H7+
92.0495	24	C6H6N+
93.0574	342	C6H7N+
93.0699	27	C7H9+
94.0652	999	C6H8N+
95.0492	26	C6H7O+
95.073	33	C6H9N+
95.0856	11	C7H11+
96.0445	12	C5H6NO+
97.0648	14	C6H9O+
98.0601	20	C5H8NO+
103.054	8	C8H7+
105.0699	18	C8H9+
106.0652	82	C7H8N+
107.0492	13	C7H7O+
107.0731	22	C7H9N+
107.0856	5	C8H11+
108.0444	13	C6H6NO+
108.0808	161	C7H10N+
109.0648	75	C7H9O+
109.0886	12	C7H11N+
110.0601	15	C6H8NO+
111.044	21	C6H7O2+
112.0756	15	C6H10NO+
117.0574	46	C8H7N+
118.0652	485	C8H8N+
119.073	231	C8H9N+
120.0808	362	C8H10N+
121.0648	14	C8H9O+
122.0965	22	C8H12N+
123.0442	17	C7H7O2+
123.0806	11	C8H11O+
124.0757	8	C7H10NO+
125.0598	15	C7H9O2+
130.0655	6	C9H8N+
131.0728	13	C9H9N+
132.0808	19	C9H10N+
134.0596	7	C8H8NO+
134.0963	8	C9H12N+
136.0758	404	C8H10NO+
138.0913	21	C8H12NO+
139.0754	20	C8H11O2+
144.0809	11	C10H10N+
146.0966	18	C10H12N+
158.0966	7	C11H12N+
160.1125	8	C11H14N+
164.1071	16	C10H14NO+
