Mass spectrum: Formononetin; LC-ESI-ITFT; MS2; CE: 60%; R=15000; [M+H]+
Name: Formononetin
Name: 7-hydroxy-3-(4-methoxyphenyl)chromen-4-one
Formula: C16H12O4
Exact mass: 268.0736
SMILES: COc1ccc(cc1)c2coc3cc(ccc3c2=O)O
InChI: InChI=1S/C16H12O4/c1-19-12-5-2-10(3-6-12)14-9-20-15-8-11(17)4-7-13(15)16(14)18/h2-9,17H,1H3
Instrument: LTQ Orbitrap XL Thermo Scientific
Instrument type: LC-ESI-ITFT
Ms type: MS2
Ion mode: POSITIVE
Ionization: ESI
Fragmentation mode: HCD
Collision energy: 60% (nominal)
Resolution: 15000
Column name: Kinetex Evo C18 2.6 um 50 x 2.1 mm
Retention time: 10.650 min
Base peak: 116.9859
Precursor m/z: 269.0808
Precursor type: [M+H]+
m/z	relative intensity	assigned
105.0699	13	C8H9+
107.0492	60	C7H7O+
118.0413	165	C8H6O+
133.0648	44	C9H9O+
136.0154	88	C7H4O3+
137.0233	87	C7H5O3+
153.0697	11	C12H9+
156.0574	15	C11H8O+
163.0388	28	C9H7O3+
170.0724	32	C12H10O+
181.0651	46	C13H9O+
182.0725	17	C13H10O+
197.0596	112	C13H9O2+
198.0673	81	C13H10O2+
210.0681	14	C14H10O2+
213.0909	471	C14H13O2+
225.0543	63	C14H9O3+
226.0623	407	C14H10O3+
237.0545	343	C15H9O3+
253.0495	274	C15H9O4+
254.0573	417	C15H10O4+
269.0808	999	C16H13O4+
