Mass spectrum: Galantamine; LC-ESI-ITFT; MS2; CE: 25%; R=15000; [M+H]+
Name: Galantamine
Formula: C17H21NO3
Exact mass: 287.1521
SMILES: CN1CCC23C=CC(CC2OC4=C(C=CC(=C34)C1)OC)O
InChI: InChI=1S/C17H21NO3/c1-18-8-7-17-6-5-12(19)9-14(17)21-16-13(20-2)4-3-11(10-18)15(16)17/h3-6,12,14,19H,7-10H2,1-2H3
Instrument: LTQ Orbitrap XL Thermo Scientific
Instrument type: LC-ESI-ITFT
Ms type: MS2
Ion mode: POSITIVE
Ionization: ESI
Fragmentation mode: CID
Collision energy: 25 % (nominal)
Resolution: 15000
Column name: Kinetex Evo C18 2.6 um 50 x 2.1 mm
Retention time: 0.580 min
Base peak: 235.2166
Precursor m/z: 288.1594
Precursor type: [M+H]+
m/z	relative intensity	assigned
94.0652	1	C6H8N+
109.0648	3	C7H9O+
132.0809	7	C9H10N+
133.0887	11	C9H11N+
134.0966	9	C9H12N+
137.0598	5	C8H9O2+
150.0914	7	C9H12NO+
151.0993	36	C9H13NO+
175.0756	11	C11H11O2+
179.0857	17	C14H11+
181.1012	7	C14H13+
197.0963	118	C14H13O+
198.0676	4	C13H10O2+
199.0755	66	C13H11O2+
203.1069	17	C13H15O2+
207.0807	26	C15H11O+
209.0963	96	C15H13O+
210.0678	7	C14H10O2+
213.0912	394	C14H13O2+
216.1022	4	C13H14NO2+
220.1123	5	C16H14N+
221.0965	7	C16H13O+
225.0912	819	C15H13O2+
227.1068	7	C15H15O2+
231.1017	757	C14H15O3+
238.1228	9	C16H16NO+
239.1068	27	C16H15O2+
241.1222	6	C16H17O2+
242.094	5	C15H14O3+
245.1175	16	C15H17O3+
253.1226	11	C17H17O2+
255.1256	29	C16H17NO2+
257.1175	67	C16H17O3+
270.1491	999	C17H20NO2+
273.1367	2	C16H19NO3+
288.1596	728	C17H22NO3+
