Mass spectrum: Pterosin A; LC-ESI-ITFT; MS2; CE: 105%; R=15000; [M+H]+
Name: Pterosin A
Name: (2S)-6-(2-hydroxyethyl)-2-(hydroxymethyl)-2,5,7-trimethyl-3H-inden-1-one
Formula: C15H20O3
Exact mass: 248.1412
SMILES: CC1=CC2=C(C(=C1CCO)C)C(=O)[C@](C2)(C)CO
InChI: InChI=1S/C15H20O3/c1-9-6-11-7-15(3,8-17)14(18)13(11)10(2)12(9)4-5-16/h6,16-17H,4-5,7-8H2,1-3H3/t15-/m0/s1
Instrument: LTQ Orbitrap XL Thermo Scientific
Instrument type: LC-ESI-ITFT
Ms type: MS2
Ion mode: POSITIVE
Ionization: ESI
Fragmentation mode: HCD
Collision energy: 105 % (nominal)
Resolution: 15000
Column name: Kinetex Evo C18 2.6 um 50x2.1 mm, Phenomenex
Retention time: 9.318 min
Base peak: 149.0116
Precursor m/z: 249.1485
Precursor type: [M+H]+
m/z	relative intensity	assigned
155.0853	999	C12H11+
