Mass spectrum: Pterosin B; LC-ESI-ITFT; MS2; CE: 55%; R=15000; [M+H]+
Name: Pterosin B
Name: (2R)-6-(2-hydroxyethyl)-2,5,7-trimethyl-2,3-dihydroinden-1-one
Formula: C14H18O2
Exact mass: 218.1307
SMILES: C[C@@H]1CC2=C(C1=O)C(=C(C(=C2)C)CCO)C
InChI: InChI=1S/C14H18O2/c1-8-6-11-7-9(2)14(16)13(11)10(3)12(8)4-5-15/h6,9,15H,4-5,7H2,1-3H3/t9-/m1/s1
Instrument: LTQ Orbitrap XL Thermo Scientific
Instrument type: LC-ESI-ITFT
Ms type: MS2
Ion mode: POSITIVE
Ionization: ESI
Fragmentation mode: HCD
Collision energy: 55 % (nominal)
Resolution: 15000
Column name: Kinetex Evo C18 2.6 um 50 x 2.1 mm
Retention time: 10.332 min
Base peak: 219.1371
Precursor m/z: 219.138
Precursor type: [M+H]+
m/z	relative intensity	assigned
67.0539	5	C5H7+
69.0331	6	C4H5O+
91.0538	5	C7H7+
95.0491	4	C6H7O+
105.0696	19	C8H9+
107.0851	6	C8H11+
117.0696	9	C9H9+
119.0852	46	C9H11+
121.101	3	C9H13+
129.0695	9	C10H9+
130.0773	7	C10H10+
131.0851	92	C10H11+
133.1008	50	C10H13+
141.0696	7	C11H9+
142.0773	22	C11H10+
143.0852	52	C11H11+
144.0929	32	C11H12+
145.1008	309	C11H13+
147.1165	5	C11H15+
149.0957	14	C10H13O+
153.0693	11	C12H9+
155.0852	53	C12H11+
156.0931	14	C12H12+
157.1007	38	C12H13+
158.0729	5	C11H10O+
158.1086	81	C12H14+
159.0801	21	C11H11O+
159.1164	64	C12H15+
161.1323	3	C12H17+
163.1114	58	C11H15O+
167.0854	3	C13H11+
168.093	168	C13H12+
170.1086	2	C13H14+
171.0803	6	C12H11O+
171.1165	31	C13H15+
172.0878	44	C12H12O+
173.0957	80	C12H13O+
173.132	253	C13H17+
174.1034	46	C12H14O+
175.1115	12	C12H15O+
181.1007	5	C14H13+
183.1164	212	C14H15+
186.1035	177	C13H14O+
188.119	11	C13H16O+
191.1425	13	C13H19O+
199.1112	32	C14H15O+
201.1269	999	C14H17O+
204.1138	14	C13H16O2+
219.1373	509	C14H19O2+
