Mass spectrum: Matairesinol; LC-ESI-ITFT; MS2; CE: 55%; R=15000; [M+H]+
Name: Matairesinol
Formula: C20H22O6
Exact mass: 358.1416
SMILES: COC1=CC(C[C@H]2COC(=O)[C@@H]2CC2=CC=C(O)C(OC)=C2)=CC=C1O
InChI: InChI=1S/C20H22O6/c1-24-18-9-12(3-5-16(18)21)7-14-11-26-20(23)15(14)8-13-4-6-17(22)19(10-13)25-2/h3-6,9-10,14-15,21-22H,7-8,11H2,1-2H3/t14-,15+/m0/s1
Instrument: LTQ Orbitrap XL Thermo Scientific
Instrument type: LC-ESI-ITFT
Ms type: MS2
Ion mode: POSITIVE
Ionization: ESI
Fragmentation mode: CID
Collision energy: 55 % (nominal)
Resolution: 15000
Column name: Kinetex Evo C18 2.6 um 50 x 2.1 mm
Retention time: 9.347 min
Base peak: 359.1488
Precursor m/z: 359.1489
Precursor type: [M+H]+
m/z	relative intensity	assigned
122.0363	13	C7H6O2+
131.0492	14	C9H7O+
137.0597	380	C8H9O2+
145.0648	4	C10H9O+
149.0601	1	C9H9O2+
151.0391	27	C8H7O3+
163.0755	48	C10H11O2+
175.0753	1	C11H11O2+
177.0549	3	C10H9O3+
177.091	9	C11H13O2+
179.0705	7	C10H11O3+
189.0908	4	C12H13O2+
191.0703	42	C11H11O3+
203.0703	33	C12H11O3+
205.0859	60	C12H13O3+
217.086	15	C13H13O3+
221.0809	37	C12H13O4+
223.0964	296	C12H15O4+
235.0965	113	C13H15O4+
263.1065	5	C18H15O2+
281.1171	6	C18H17O3+
291.1017	64	C19H15O3+
295.1333	12	C19H19O3+
305.1173	52	C20H17O3+
309.1123	25	C19H17O4+
323.1278	178	C20H19O4+
341.1383	999	C20H21O5+
