Mass spectrum: Yohimbine; LC-ESI-ITFT; MS2; CE: 85%; R=15000; [M+H]+
Name: Yohimbine
Name: methyl (1S,15R,18S,19R,20S)-18-hydroxy-1,3,11,12,14,15,16,17,18,19,20,21-dodecahydroyohimban-19-carboxylate
Formula: C21H26N2O3
Exact mass: 354.1943
SMILES: COC(=O)[C@H]1[C@H](CC[C@@H]2[C@@H]1C[C@H]3c4c(c5ccccc5[nH]4)CCN3C2)O
InChI: InChI=1S/C21H26N2O3/c1-26-21(25)19-15-10-17-20-14(13-4-2-3-5-16(13)22-20)8-9-23(17)11-12(15)6-7-18(19)24/h2-5,12,15,17-19,22,24H,6-11H2,1H3/t12-,15-,17-,18-,19+/m0/s1
Instrument: LTQ Orbitrap XL Thermo Scientific
Instrument type: LC-ESI-ITFT
Ms type: MS2
Ion mode: POSITIVE
Ionization: ESI
Fragmentation mode: HCD
Collision energy: 85% (nominal)
Resolution: 15000
Column name: Kinetex Evo C18 2.6 um 50 x 2.1 mm
Retention time: 6.517 min
Base peak: 355.2013
Precursor m/z: 355.2016
Precursor type: [M+H]+
m/z	relative intensity	assigned
70.0653	1	C4H8N+
79.0543	6	C6H7+
80.0495	4	C5H6N+
81.0334	2	C5H5O+
81.0698	2	C6H9+
82.0652	1	C5H8N+
91.0543	21	C7H7+
92.0493	1	C6H6N+
93.0573	1	C6H7N+
93.07	5	C7H9+
94.0652	19	C6H8N+
95.0729	2	C6H9N+
103.0543	7	C8H7+
104.0496	1	C7H6N+
105.0442	1	C6H5N2+
105.0699	12	C8H9+
106.0652	30	C7H8N+
107.0489	1	C7H7O+
107.073	1	C7H9N+
107.0855	3	C8H11+
108.0806	2	C7H10N+
110.0967	1	C7H12N+
113.0598	3	C6H9O2+
115.0543	40	C9H7+
116.0497	4	C8H6N+
116.0578	1	C4H8N2O2+
116.0625	1	C9H8+
117.0574	16	C8H7N+
117.0699	189	C9H9+
118.0651	11	C8H8N+
118.0733	9	C4H10N2O2+
119.0493	2	C8H7O+
119.0731	1	C8H9N+
119.0855	2	C9H11+
120.0809	5	C8H10N+
127.0542	5	C10H7+
128.0495	9	C9H6N+
128.0621	5	C10H8+
129.0573	2	C9H7N+
129.0699	6	C10H9+
130.0652	27	C9H8N+
131.0729	5	C9H9N+
132.0808	9	C9H10N+
133.0653	1	C9H9O+
134.0965	45	C9H12N+
135.1044	2	C9H13N+
138.0914	2	C8H12NO+
142.0655	4	C10H8N+
143.0731	112	C10H9N+
144.0808	999	C10H10N+
145.0647	6	C10H9O+
146.06	2	C9H8NO+
146.0963	4	C10H12N+
154.0649	2	C11H8N+
155.0604	64	C10H7N2+
155.0726	3	C11H9N+
156.0809	9	C11H10N+
157.0886	7	C11H11N+
158.0966	12	C11H12N+
162.0913	14	C10H12NO+
167.0729	4	C12H9N+
168.0808	9	C12H10N+
169.0891	1	C12H11N+
170.0966	5	C12H12N+
180.0805	6	C13H10N+
180.102	4	C10H14NO2+
181.0887	3	C13H11N+
182.0964	5	C13H12N+
192.0807	1	C14H10N+
193.089	3	C14H11N+
194.0967	6	C14H12N+
194.1175	6	C11H16NO2+
195.1046	1	C14H13N+
196.1126	1	C14H14N+
204.0811	2	C15H10N+
205.0883	3	C15H11N+
206.0967	6	C15H12N+
208.1123	4	C15H14N+
212.1278	4	C11H18NO3+
217.089	2	C16H11N+
218.0967	5	C16H12N+
219.105	3	C16H13N+
220.112	7	C16H14N+
230.0964	3	C17H12N+
231.1042	3	C17H13N+
232.1125	5	C17H14N+
233.1203	2	C17H15N+
234.1271	1	C17H16N+
246.1267	2	C18H16N+
