Mass spectrum: Fraxidin; LC-ESI-ITFT; MS2; CE: 55%; R=15000; [M+H]+
Name: Fraxidin
Name: 8-hydroxy-6,7-dimethoxychromen-2-one
Formula: C11H10O5
Exact mass: 222.0528
SMILES: COC1=C(OC)C(O)=C2OC(=O)C=CC2=C1
InChI: InChI=1S/C11H10O5/c1-14-7-5-6-3-4-8(12)16-10(6)9(13)11(7)15-2/h3-5,13H,1-2H3
Instrument: LTQ Orbitrap XL Thermo Scientific
Instrument type: LC-ESI-ITFT
Ms type: MS2
Ion mode: POSITIVE
Ionization: ESI
Fragmentation mode: HCD
Collision energy: 55% (nominal)
Resolution: 15000
Column name: Kinetex Evo C18 2.6 um 50 x 2.1 mm
Retention time: 7.612 min
Base peak: 116.9858
Precursor m/z: 223.0601
Precursor type: [M+H]+
m/z	relative intensity	assigned
107.0492	19	C7H7O+
134.0362	48	C8H6O2+
135.0441	186	C8H7O2+
152.0464	14	C8H8O3+
162.0312	539	C9H6O3+
163.039	259	C9H7O3+
167.07	19	C9H11O3+
178.026	56	C9H6O4+
179.0339	218	C9H7O4+
180.0418	29	C9H8O4+
190.026	999	C10H6O4+
191.0338	9	C10H7O4+
193.0132	19	C9H5O5+
195.0653	27	C10H11O4+
207.0288	308	C10H7O5+
208.0366	707	C10H8O5+
223.0601	708	C11H11O5+
