Mass spectrum: Valerophenone; LC-ESI-ITFT; MS2; CE: 60%; R=15000; [M+H]+
Name: Valerophenone
Formula: C11H14O
Exact mass: 162.1045
SMILES: CCCCC(=O)C1=CC=CC=C1
InChI: InChI=1S/C11H14O/c1-2-3-9-11(12)10-7-5-4-6-8-10/h4-8H,2-3,9H2,1H3
Instrument: LTQ Orbitrap XL Thermo Scientific
Instrument type: LC-ESI-ITFT
Ms type: MS2
Ion mode: POSITIVE
Ionization: ESI
Fragmentation mode: CID
Collision energy: 60 % (nominal)
Resolution: 15000
Column name: Kinetex Evo C18 2.6 um 50 x 2.1 mm
Retention time: 11.570 min
Base peak: 305.1357
Precursor m/z: 163.1117
Precursor type: [M+H]+
m/z	relative intensity	assigned
57.0698	758	C4H9+
67.0542	9	C5H7+
79.0543	82	C6H7+
81.0698	5	C6H9+
85.0649	470	C5H9O+
91.0543	217	C7H7+
93.0699	6	C7H9+
105.07	115	C8H9+
107.0492	680	C7H7O+
117.07	68	C9H9+
119.0856	47	C9H11+
121.0649	185	C8H9O+
121.1014	17	C9H13+
133.1011	7	C10H13+
135.0807	15	C9H11O+
135.1168	16	C10H15+
145.1013	999	C11H13+
