Mass spectrum: 4-Phenyl-3-buten-2-one; LC-ESI-ITFT; MS2; CE: 30%; R=15000; [M+H]+
Name: 4-Phenyl-3-buten-2-one
Formula: C10H10O
Exact mass: 146.0732
SMILES: CC(=O)\C=C\C1=CC=CC=C1
InChI: InChI=1S/C10H10O/c1-9(11)7-8-10-5-3-2-4-6-10/h2-8H,1H3/b8-7+
Instrument: LTQ Orbitrap XL Thermo Scientific
Instrument type: LC-ESI-ITFT
Ms type: MS2
Ion mode: POSITIVE
Ionization: ESI
Fragmentation mode: CID
Collision energy: 30 % (nominal)
Resolution: 15000
Column name: Kinetex Evo C18 2.6 um 50x2.1 mm, Phenomenex
Retention time: 9.426 min
Base peak: 147.0803
Precursor m/z: 147.0804
Precursor type: [M+H]+
m/z	relative intensity	assigned
91.0543	5	C7H7+
117.0697	2	C9H9+
119.0857	18	C9H11+
128.062	5	C10H8+
129.0699	999	C10H9+
147.0805	961	C10H11O+
