Mass spectrum: Matrine; LC-ESI-ITFT; MS2; CE: 75%; R=15000; [M+H]+
Name: Matrine
Name: (1R,2R,9S,17S)-7,13-diazatetracyclo[7.7.1.02,7.013,17]heptadecan-6-one
Formula: C15H24N2O
Exact mass: 248.1889
SMILES: C1C[C@@H]2[C@H]3CCCN4[C@H]3[C@@H](CCC4)CN2C(=O)C1
InChI: InChI=1S/C15H24N2O/c18-14-7-1-6-13-12-5-3-9-16-8-2-4-11(15(12)16)10-17(13)14/h11-13,15H,1-10H2/t11-,12+,13+,15-/m0/s1
Instrument: LTQ Orbitrap XL Thermo Scientific
Instrument type: LC-ESI-ITFT
Ms type: MS2
Ion mode: POSITIVE
Ionization: ESI
Fragmentation mode: HCD
Collision energy: 75% (nominal)
Resolution: 15000
Column name: Kinetex Evo C18 2.6 um 50 x 2.1 mm
Retention time: 0.713 min
Base peak: 249.196
Precursor m/z: 249.1961
Precursor type: [M+H]+
m/z	relative intensity	assigned
70.0652	5	C4H8N+
81.0697	3	C6H9+
82.0654	3	C5H8N+
84.0809	13	C5H10N+
93.0701	4	C7H9+
95.0856	4	C7H11+
96.0809	19	C6H10N+
98.0601	30	C5H8NO+
98.0967	8	C6H12N+
107.0856	3	C8H11+
110.0965	34	C7H12N+
112.0757	40	C6H10NO+
114.091	3	C6H12NO+
120.0806	4	C8H10N+
122.0965	9	C8H12N+
124.1117	5	C8H14N+
134.0966	8	C9H12N+
136.1122	20	C9H14N+
138.0912	4	C8H12NO+
138.1279	13	C9H16N+
148.1122	174	C10H14N+
150.1279	87	C10H16N+
152.1071	3	C9H14NO+
152.1434	23	C10H18N+
162.0914	6	C10H12NO+
162.1281	8	C11H16N+
164.1071	6	C10H14NO+
166.1228	8	C10H16NO+
176.1072	52	C11H14NO+
176.1435	7	C12H18N+
178.1229	5	C11H16NO+
178.1592	4	C12H20N+
190.1228	19	C12H16NO+
190.1592	7	C13H20N+
204.1385	10	C13H18NO+
218.1539	16	C14H20NO+
220.1699	10	C14H22NO+
231.1857	10	C15H23N2+
232.1702	11	C15H22NO+
247.1807	132	C15H23N2O+
249.1963	999	C15H25N2O+
