Mass spectrum: Senecivernine N-oxide; LC-ESI-ITFT; MS2; CE: 100%; R=15000; [M+H]+
Name: Senecivernine N-oxide
Name: CID 14313723
Name: 7-hydroxy-5,6,7-trimethyl-4-methylidene-14-oxido-2,9-dioxa-14-azoniatricyclo[9.5.1.014,17]heptadec-11-ene-3,8-dione
Formula: C18H25NO6
Exact mass: 351.1682
SMILES: CC1C(C(C(=O)OCC2=CC[N+]3(C2C(CC3)OC(=O)C1=C)[O-])(C)O)C
InChI: InChI=1S/C18H25NO6/c1-10-11(2)16(20)25-14-6-8-19(23)7-5-13(15(14)19)9-24-17(21)18(4,22)12(10)3/h5,10,12,14-15,22H,2,6-9H2,1,3-4H3
Instrument: LTQ Orbitrap XL Thermo Scientific
Instrument type: LC-ESI-ITFT
Ms type: MS2
Ion mode: POSITIVE
Ionization: ESI
Fragmentation mode: HCD
Collision energy: 100% (nominal)
Resolution: 15000
Column name: Kinetex Evo C18 2.6 um 50 x 2.1 mm
Retention time: 4.725 min
Base peak: 352.1753
Precursor m/z: 352.1755
Precursor type: [M+H]+
m/z	relative intensity	assigned
66.0463	26	C5H6+
67.0416	34	C4H5N+
67.0542	48	C5H7+
68.0495	21	C4H6N+
77.0385	21	C6H5+
79.0542	123	C6H7+
80.0495	260	C5H6N+
81.0574	29	C5H7N+
81.0699	145	C6H9+
82.065	17	C5H8N+
83.0493	18	C5H7O+
91.0542	110	C7H7+
92.0494	77	C6H6N+
93.0573	396	C6H7N+
94.0651	999	C6H8N+
95.0729	78	C6H9N+
96.0448	11	C5H6NO+
96.0807	32	C6H10N+
106.0651	179	C7H8N+
107.0728	18	C7H9N+
107.0856	16	C8H11+
108.0807	151	C7H10N+
109.0643	12	C7H9O+
110.06	33	C6H8NO+
111.044	20	C6H7O2+
111.0677	17	C6H9NO+
117.0573	79	C8H7N+
118.0651	541	C8H8N+
119.0729	139	C8H9N+
120.0807	635	C8H10N+
122.0964	14	C8H12N+
134.0965	12	C9H12N+
136.0756	254	C8H10NO+
138.091	16	C8H12NO+
