Mass spectrum: Cortisone; LC-ESI-ITFT; MS2; CE: 20%; R=15000; [M+H]+
Name: Cortisone
Name: (8S,9S,10R,13S,14S,17R)-17-hydroxy-17-(2-hydroxyacetyl)-10,13-dimethyl-1,2,6,7,8,9,12,14,15,16-decahydrocyclopenta[a]phenanthrene-3,11-dione
Formula: C21H28O5
Exact mass: 360.1937
SMILES: C[C@]12CC(=O)[C@H]3[C@@H](CCC4=CC(=O)CC[C@]34C)[C@@H]1CC[C@]2(O)C(=O)CO
InChI: InChI=1S/C21H28O5/c1-19-7-5-13(23)9-12(19)3-4-14-15-6-8-21(26,17(25)11-22)20(15,2)10-16(24)18(14)19/h9,14-15,18,22,26H,3-8,10-11H2,1-2H3/t14-,15-,18+,19-,20-,21-/m0/s1
Instrument: LTQ Orbitrap XL Thermo Scientific
Instrument type: LC-ESI-ITFT
Ms type: MS2
Ion mode: POSITIVE
Ionization: ESI
Fragmentation mode: HCD
Collision energy: 20 % (nominal)
Resolution: 15000
Column name: Kinetex Evo C18 2.6 um 50 x 2.1 mm
Retention time: 9.574 min
Base peak: 361.2013
Precursor m/z: 361.201
Precursor type: [M+H]+
m/z	relative intensity	assigned
121.0649	3	C8H9O+
135.0802	2	C9H11O+
163.1114	35	C11H15O+
283.1685	4	C19H23O2+
285.1839	3	C19H25O2+
299.1638	2	C19H23O3+
301.1791	5	C19H25O3+
313.18	2	C20H25O3+
325.1797	5	C21H25O3+
343.1901	14	C21H27O4+
361.2001	999	C21H29O5+
