Mass spectrum: Pterosin G; LC-ESI-ITFT; MS2; CE: 55%; R=15000; [M+H]+
Name: Pterosin G
Name: (S)-2,3-Dihydro-6-(2-hydroxyethyl)-2-(hydroxymethyl)-5,7-dimethyl-1H-inden-1-one
Name: (2S)-6-(2-hydroxyethyl)-2-(hydroxymethyl)-5,7-dimethyl-2,3-dihydroinden-1-one
Formula: C14H18O3
Exact mass: 234.1256
SMILES: CC1=CC2=C(C(=C1CCO)C)C(=O)[C@@H](C2)CO
InChI: InChI=1S/C14H18O3/c1-8-5-10-6-11(7-16)14(17)13(10)9(2)12(8)3-4-15/h5,11,15-16H,3-4,6-7H2,1-2H3/t11-/m0/s1
Instrument: LTQ Orbitrap XL Thermo Scientific
Instrument type: LC-ESI-ITFT
Ms type: MS2
Ion mode: POSITIVE
Ionization: ESI
Fragmentation mode: HCD
Collision energy: 55 % (nominal)
Resolution: 15000
Column name: Kinetex Evo C18 2.6 um 50 x 2.1 mm
Retention time: 8.407 min
Base peak: 235.1321
Precursor m/z: 235.1329
Precursor type: [M+H]+
m/z	relative intensity	assigned
105.0696	20	C8H9+
119.0852	19	C9H11+
128.0616	36	C10H8+
129.0694	36	C10H9+
141.0695	28	C11H9+
142.0775	52	C11H10+
143.0852	309	C11H11+
144.093	17	C11H12+
145.1008	78	C11H13+
155.0855	38	C12H11+
156.0931	868	C12H12+
159.1165	131	C12H15+
169.101	26	C13H13+
171.1165	999	C13H15+
186.1042	32	C13H14O+
187.1115	176	C13H15O+
189.127	618	C13H17O+
199.1114	286	C14H15O+
217.1218	944	C14H17O2+
