Mass spectrum: Solasodin; LC-ESI-ITFT; MS2; CE: 40%; R=15000; [M+H]+
Name: Solasodin
Name: Solasodine
Formula: C27H43NO2
Exact mass: 413.3294
SMILES: C[C@@H]1CC[C@@]2([C@H]([C@H]3[C@@H](O2)C[C@@H]4[C@@]3(CC[C@H]5[C@H]4CC=C6[C@@]5(CC[C@@H](C6)O)C)C)C)NC1
InChI: InChI=1S/C27H43NO2/c1-16-7-12-27(28-15-16)17(2)24-23(30-27)14-22-20-6-5-18-13-19(29)8-10-25(18,3)21(20)9-11-26(22,24)4/h5,16-17,19-24,28-29H,6-15H2,1-4H3/t16-,17+,19+,20-,21+,22+,23+,24+,25+,26+,27-/m1/s1
Instrument: LTQ Orbitrap XL Thermo Scientific
Instrument type: LC-ESI-ITFT
Ms type: MS2
Ion mode: POSITIVE
Ionization: ESI
Fragmentation mode: HCD
Collision energy: 40% (nominal)
Resolution: 15000
Column name: Kinetex Evo C18 2.6 um 50 x 2.1 mm
Retention time: 10.837 min
Base peak: 414.3361
Precursor m/z: 414.3367
Precursor type: [M+H]+
m/z	relative intensity	assigned
67.0541	2	C5H7+
70.065	28	C4H8N+
79.0542	3	C6H7+
81.0698	6	C6H9+
93.0698	4	C7H9+
95.0855	5	C7H11+
96.0808	4	C6H10N+
105.07	3	C8H9+
107.0854	14	C8H11+
109.1011	31	C8H13+
114.0913	66	C6H12NO+
119.0853	6	C9H11+
121.1011	34	C9H13+
123.1168	3	C9H15+
124.112	40	C8H14N+
126.1277	67	C8H16N+
127.1116	6	C8H15O+
131.0854	6	C10H11+
133.1012	22	C10H13+
135.1169	5	C10H15+
143.0853	5	C11H11+
144.1387	4	C8H18NO+
145.101	13	C11H13+
147.1168	34	C11H15+
149.0962	4	C10H13O+
151.1116	11	C10H15O+
157.1011	50	C12H13+
159.1168	30	C12H15+
161.1323	3	C12H17+
163.1117	4	C11H15O+
165.127	2	C11H17O+
171.1166	13	C13H15+
173.1325	5	C13H17+
175.1116	27	C12H15O+
177.1276	4	C12H17O+
183.1171	2	C14H15+
185.1324	4	C14H17+
197.1323	9	C15H17+
211.1479	8	C16H19+
213.1638	5	C16H21+
225.1634	6	C17H21+
253.195	198	C19H25+
271.2055	177	C19H27O+
396.3258	212	C27H42NO+
414.3363	999	C27H44NO2+
