Mass spectrum: Anabasine; LC-ESI-ITFT; MS2; CE: 75%; R=15000; [M+H]+
Name: Anabasine
Formula: C10H14N2
Exact mass: 162.1157
SMILES: C1CCC(NC1)C1=CC=CN=C1
InChI: InChI=1S/C10H14N2/c1-2-7-12-10(5-1)9-4-3-6-11-8-9/h3-4,6,8,10,12H,1-2,5,7H2
Instrument: LTQ Orbitrap XL Thermo Scientific
Instrument type: LC-ESI-ITFT
Ms type: MS2
Ion mode: POSITIVE
Ionization: ESI
Fragmentation mode: HCD
Collision energy: 75 % (nominal)
Resolution: 15000
Column name: Kinetex Evo C18 2.6 um 50 x 2.1 mm
Retention time: 0.419 min
Base peak: 233.201
Precursor m/z: 163.123
Precursor type: [M+H]+
m/z	relative intensity	assigned
65.0386	47	C5H5+
67.0542	15	C5H7+
70.0651	16	C4H8N+
77.0387	4	C6H5+
79.0418	7	C5H5N+
79.0543	7	C6H7+
80.0495	130	C5H6N+
82.0652	24	C5H8N+
84.0809	42	C5H10N+
91.0543	103	C7H7+
92.0495	939	C6H6N+
93.0573	175	C6H7N+
94.0652	829	C6H8N+
103.0544	5	C8H7+
105.0698	11	C8H9+
106.0652	92	C7H8N+
107.073	39	C7H9N+
108.0805	3	C7H10N+
115.0542	4	C9H7+
117.0574	362	C8H7N+
118.0651	999	C8H8N+
119.073	22	C8H9N+
119.0856	6	C9H11+
120.0808	334	C8H10N+
128.0621	10	C10H8+
129.0699	42	C10H9+
130.0652	323	C9H8N+
131.073	351	C9H9N+
132.0808	65	C9H10N+
133.0884	11	C9H11N+
134.0965	288	C9H12N+
135.0917	3	C8H11N2+
144.0809	149	C10H10N+
146.0965	562	C10H12N+
163.1231	514	C10H15N2+
