Mass spectrum: (+)-Sparteine; LC-ESI-ITFT; MS2; CE: 45%; R=15000; [M+H]+
Name: (+)-Sparteine
Formula: C15H26N2
Exact mass: 234.2096
SMILES: C1CCN2C[C@H]3C[C@@H]([C@H]2C1)CN4[C@H]3CCCC4
InChI: InChI=1S/C15H26N2/c1-3-7-16-11-13-9-12(14(16)5-1)10-17-8-4-2-6-15(13)17/h12-15H,1-11H2/t12-,13-,14-,15+/m1/s1
Instrument: LTQ Orbitrap XL Thermo Scientific
Instrument type: LC-ESI-ITFT
Ms type: MS2
Ion mode: POSITIVE
Ionization: ESI
Fragmentation mode: CID
Collision energy: 45 % (nominal)
Resolution: 15000
Column name: Kinetex Evo C18 2.6 um 50 x 2.1 mm
Retention time: 0.540 min
Base peak: 235.2167
Precursor m/z: 235.2169
Precursor type: [M+H]+
m/z	relative intensity	assigned
70.0651	11	C4H8N+
84.0808	9	C5H10N+
96.0808	15	C6H10N+
98.0964	999	C6H12N+
107.0858	1	C8H11+
108.0808	3	C7H10N+
110.0965	6	C7H12N+
119.0857	1	C9H11+
122.0966	1	C8H12N+
124.1121	10	C8H14N+
134.0964	176	C9H12N+
136.1121	6	C9H14N+
138.1277	13	C9H16N+
145.1012	2	C11H13+
148.1123	2	C10H14N+
150.1277	27	C10H16N+
152.1434	39	C10H18N+
154.1593	1	C10H20N+
162.1279	2	C11H16N+
164.1434	12	C11H18N+
176.1433	1	C12H18N+
190.159	28	C13H20N+
192.1745	3	C13H22N+
202.1591	6	C14H20N+
204.1746	6	C14H22N+
235.2169	152	C15H27N2+
