Mass spectrum: Coniferaldehyde; LC-ESI-ITFT; MS2; CE: 60%; R=15000; [M+H]+
Name: Coniferaldehyde
Formula: C10H10O3
Exact mass: 178.0630
SMILES: COC1=CC(\C=C\C=O)=CC=C1O
InChI: InChI=1S/C10H10O3/c1-13-10-7-8(3-2-6-11)4-5-9(10)12/h2-7,12H,1H3/b3-2+
Instrument: LTQ Orbitrap XL Thermo Scientific
Instrument type: LC-ESI-ITFT
Ms type: MS2
Ion mode: POSITIVE
Ionization: ESI
Fragmentation mode: CID
Collision energy: 60 % (nominal)
Resolution: 15000
Column name: Kinetex Evo C18 2.6 um 50 x 2.1 mm
Retention time: 7.411 min
Base peak: 179.0702
Precursor m/z: 179.0703
Precursor type: [M+H]+
m/z	relative intensity	assigned
55.0179	10	C3H3O+
91.0543	2	C7H7+
95.0493	11	C6H7O+
103.0543	1	C8H7+
105.07	32	C8H9+
109.0287	2	C6H5O2+
115.0543	9	C9H7+
119.0493	40	C8H7O+
123.0442	32	C7H7O2+
123.0807	3	C8H11O+
131.0492	1	C9H7O+
133.065	133	C9H9O+
135.0443	9	C8H7O2+
137.06	8	C8H9O2+
143.0497	2	C10H7O+
146.0359	1	C9H6O2+
147.0442	999	C9H7O2+
149.0598	3	C9H9O2+
151.0756	17	C9H11O2+
161.0599	974	C10H9O2+
164.0469	1	C9H8O3+
