Mass spectrum: Papaverin; LC-ESI-ITFT; MS2; CE: 85%; R=15000; [M+H]+
Name: Papaverin
Name: Papaverine
Name: 1-[(3,4-dimethoxyphenyl)methyl]-6,7-dimethoxyisoquinoline
Formula: C20H21NO4
Exact mass: 339.1471
SMILES: COC1=C(C=C(C=C1)CC2=NC=CC3=CC(=C(C=C32)OC)OC)OC
InChI: InChI=1S/C20H21NO4/c1-22-17-6-5-13(10-18(17)23-2)9-16-15-12-20(25-4)19(24-3)11-14(15)7-8-21-16/h5-8,10-12H,9H2,1-4H3
Instrument: LTQ Orbitrap XL Thermo Scientific
Instrument type: LC-ESI-ITFT
Ms type: MS2
Ion mode: POSITIVE
Ionization: ESI
Fragmentation mode: HCD
Collision energy: 85% (nominal)
Resolution: 15000
Column name: Kinetex Evo C18 2.6 um 50 x 2.1 mm
Retention time: 7.581 min
Base peak: 340.154
Precursor m/z: 340.1543
Precursor type: [M+H]+
m/z	relative intensity	assigned
77.0386	16	C6H5+
91.0542	15	C7H7+
95.0491	95	C6H7O+
102.0464	8	C8H6+
103.0542	42	C8H7+
107.049	30	C7H7O+
108.057	9	C7H8O+
114.0464	7	C9H6+
115.0542	77	C9H7+
116.0495	27	C8H6N+
116.0622	9	C9H8+
117.0699	13	C9H9+
118.0416	5	C8H6O+
118.0652	23	C8H8N+
119.0491	6	C8H7O+
121.0646	8	C8H9O+
123.044	139	C7H7O2+
127.0415	13	C9H5N+
128.0495	144	C9H6N+
129.0572	35	C9H7N+
130.0414	3	C9H6O+
130.0651	61	C9H8N+
131.0492	64	C9H7O+
131.073	26	C9H9N+
132.057	22	C9H8O+
132.0809	3	C9H10N+
133.0284	13	C8H5O2+
133.0648	7	C9H9O+
135.0442	16	C8H7O2+
136.0518	8	C8H8O2+
138.0676	19	C8H10O2+
140.0495	36	C10H6N+
141.0572	49	C10H7N+
142.0651	69	C10H8N+
143.0492	3	C10H7O+
143.0728	15	C10H9N+
144.0444	48	C9H6NO+
144.057	7	C10H8O+
144.0804	14	C10H10N+
145.0648	29	C10H9O+
146.06	36	C9H8NO+
147.0444	4	C9H7O2+
147.0804	10	C10H11O+
148.0519	26	C9H8O2+
151.0755	21	C9H11O2+
155.0366	14	C10H5NO+
156.0445	247	C10H6NO+
157.0891	4	C11H11N+
158.0601	298	C10H8NO+
159.0439	10	C10H7O2+
159.0676	119	C10H9NO+
160.0512	10	C10H8O2+
160.0753	32	C10H10NO+
161.0597	15	C10H9O2+
170.0601	63	C11H8NO+
171.0679	999	C11H9NO+
172.0392	30	C10H6NO2+
173.0474	4	C10H7NO2+
174.0549	36	C10H8NO2+
174.091	12	C11H12NO+
175.0753	63	C11H11O2+
183.0676	13	C12H9NO+
184.0754	6	C12H10NO+
186.0549	244	C11H8NO2+
187.0628	172	C11H9NO2+
188.0707	25	C11H10NO2+
189.0784	64	C11H11NO2+
190.0862	15	C11H12NO2+
191.0736	3	C14H9N+
192.0803	5	C14H10N+
194.0964	2	C14H12N+
196.0756	14	C13H10NO+
197.0831	5	C13H11NO+
200.0704	12	C12H10NO2+
202.0861	575	C12H12NO2+
204.0655	11	C11H10NO3+
204.0808	7	C15H10N+
205.0892	5	C15H11N+
206.0964	11	C15H12N+
208.0751	13	C14H10NO+
209.0839	17	C14H11NO+
210.0917	12	C14H12NO+
220.0755	34	C15H10NO+
221.0842	17	C15H11NO+
222.0915	36	C15H12NO+
223.0996	24	C15H13NO+
224.0704	19	C14H10NO2+
224.1072	25	C15H14NO+
225.0788	8	C14H11NO2+
227.0939	9	C14H13NO2+
233.0839	13	C16H11NO+
234.0915	35	C16H12NO+
235.0994	43	C16H13NO+
236.0705	9	C15H10NO2+
237.0787	15	C15H11NO2+
238.0863	42	C15H12NO2+
240.1018	69	C15H14NO2+
248.0704	12	C16H10NO2+
248.1071	11	C17H14NO+
249.0791	10	C16H11NO2+
250.0862	64	C16H12NO2+
251.0943	59	C16H13NO2+
252.1021	105	C16H14NO2+
254.1176	26	C16H16NO2+
262.0862	23	C17H12NO2+
263.0942	56	C17H13NO2+
264.1023	42	C17H14NO2+
266.081	28	C16H12NO3+
266.1173	58	C17H16NO2+
267.0899	6	C16H13NO3+
278.081	34	C17H12NO3+
278.1175	10	C18H16NO2+
279.0891	85	C17H13NO3+
280.0967	424	C17H14NO3+
282.1128	35	C17H16NO3+
290.0825	7	C18H12NO3+
292.0969	15	C18H14NO3+
294.1123	57	C18H16NO3+
296.1279	55	C18H18NO3+
306.0757	3	C18H12NO4+
308.0916	519	C18H14NO4+
322.1073	28	C19H16NO4+
324.1228	403	C19H18NO4+
