Mass spectrum: (+)-Chelidonine; LC-ESI-ITFT; MS2; CE: 40%; R=15000; [M+H]+
Name: (+)-Chelidonine
Name: Chelidonine
Name: (1S,12S,13R)-24-methyl-5,7,18,20-tetraoxa-24-azahexacyclo[11.11.0.02,10.04,8.014,22.017,21]tetracosa-2,4(8),9,14(22),15,17(21)-hexaen-12-ol
Formula: C20H19NO5
Exact mass: 353.1263
SMILES: CN1Cc2c(ccc3c2OCO3)[C@@H]4[C@H]1c5cc6c(cc5C[C@@H]4O)OCO6
InChI: InChI=1S/C20H19NO5/c1-21-7-13-11(2-3-15-20(13)26-9-23-15)18-14(22)4-10-5-16-17(25-8-24-16)6-12(10)19(18)21/h2-3,5-6,14,18-19,22H,4,7-9H2,1H3/t14-,18-,19+/m0/s1
Instrument: LTQ Orbitrap XL Thermo Scientific
Instrument type: LC-ESI-ITFT
Ms type: MS2
Ion mode: POSITIVE
Ionization: ESI
Fragmentation mode: HCD
Collision energy: 40% (nominal)
Resolution: 15000
Column name: Kinetex Evo C18 2.6 um 50 x 2.1 mm
Retention time: 6.949 min
Base peak: 354.1336
Precursor m/z: 354.1336
Precursor type: [M+H]+
m/z	relative intensity	assigned
133.0282	2	C8H5O2+
135.0441	123	C8H7O2+
143.0493	6	C10H7O+
149.0233	5	C8H5O3+
149.0598	5	C9H9O2+
151.0391	4	C8H7O3+
159.0441	8	C10H7O2+
161.0597	48	C10H9O2+
163.039	90	C9H7O3+
173.0597	20	C11H9O2+
175.0391	5	C10H7O3+
176.0706	23	C10H10NO2+
187.039	4	C11H7O3+
188.0706	33	C11H10NO2+
201.0547	2	C12H9O3+
207.0804	1	C15H11O+
217.0649	3	C16H9O+
235.0754	7	C16H11O2+
237.0909	16	C16H13O2+
245.0598	11	C17H9O2+
247.0753	170	C17H11O2+
249.0913	2	C17H13O2+
263.0707	5	C17H11O3+
265.0859	43	C17H13O3+
267.0645	3	C16H11O4+
275.0702	999	C18H11O3+
277.0861	2	C18H13O3+
279.065	1	C17H11O4+
293.0809	45	C18H13O4+
295.0965	115	C18H15O4+
305.0807	306	C19H13O4+
307.0959	6	C19H15O4+
323.0914	258	C19H15O5+
336.123	100	C20H18NO4+
354.1337	199	C20H20NO5+
