Mass spectrum: Vincamin; LC-ESI-ITFT; MS2; CE: 90%; R=15000; [M+H]+
Name: Vincamin
Name: Vincamine
Name: methyl (15S,17S,19S)-15-ethyl-17-hydroxy-1,11-diazapentacyclo[9.6.2.02,7.08,18.015,19]nonadeca-2,4,6,8(18)-tetraene-17-carboxylate
Formula: C21H26N2O3
Exact mass: 354.1943
SMILES: CC[C@@]12CCCN3[C@@H]1C4=C(CC3)C5=CC=CC=C5N4[C@](C2)(C(=O)OC)O
InChI: InChI=1S/C21H26N2O3/c1-3-20-10-6-11-22-12-9-15-14-7-4-5-8-16(14)23(17(15)18(20)22)21(25,13-20)19(24)26-2/h4-5,7-8,18,25H,3,6,9-13H2,1-2H3/t18-,20+,21+/m1/s1
Instrument: LTQ Orbitrap XL Thermo Scientific
Instrument type: LC-ESI-ITFT
Ms type: MS2
Ion mode: POSITIVE
Ionization: ESI
Fragmentation mode: HCD
Collision energy: 90% (nominal)
Resolution: 15000
Column name: Kinetex Evo C18 2.6 um 50 x 2.1 mm
Retention time: 6.603 min
Base peak: 355.2016
Precursor m/z: 355.2016
Precursor type: [M+H]+
m/z	relative intensity	assigned
55.0541	10	C4H7+
67.0542	91	C5H7+
68.0495	23	C4H6N+
70.0651	81	C4H8N+
77.0386	18	C6H5+
79.0542	75	C6H7+
80.0495	19	C5H6N+
81.0334	16	C5H5O+
81.0698	50	C6H9+
82.0651	22	C5H8N+
83.0491	100	C5H7O+
84.0807	11	C5H10N+
91.0542	113	C7H7+
93.0574	8	C6H7N+
93.0699	94	C7H9+
94.0652	28	C6H8N+
95.0492	12	C6H7O+
95.0729	19	C6H9N+
95.0855	252	C7H11+
96.0807	42	C6H10N+
98.0965	22	C6H12N+
103.0543	24	C8H7+
105.0448	9	C6H5N2+
105.0699	108	C8H9+
106.0652	23	C7H8N+
107.0856	58	C8H11+
108.0808	42	C7H10N+
109.0887	17	C7H11N+
110.0964	156	C7H12N+
111.1042	22	C7H13N+
112.1121	16	C7H14N+
115.0542	47	C9H7+
117.0573	28	C8H7N+
117.0698	143	C9H9+
118.0651	23	C8H8N+
119.0727	18	C8H9N+
119.086	10	C9H11+
120.0807	26	C8H10N+
121.0647	22	C8H9O+
122.0599	21	C7H8NO+
122.0963	26	C8H12N+
123.0678	9	C7H9NO+
123.0804	64	C8H11O+
123.1042	17	C8H13N+
124.0757	39	C7H10NO+
124.1121	137	C8H14N+
128.0495	18	C9H6N+
128.0622	16	C10H8+
129.0698	42	C10H9+
130.0651	96	C9H8N+
131.0729	38	C9H9N+
132.0808	30	C9H10N+
133.0652	15	C9H9O+
134.0964	105	C9H12N+
135.0804	31	C9H11O+
136.0757	24	C8H10NO+
138.1276	6	C9H16N+
141.0699	7	C11H9+
142.0653	24	C10H8N+
143.0729	144	C10H9N+
144.0807	999	C10H10N+
146.0966	18	C10H12N+
152.107	121	C9H14NO+
153.0702	14	C12H9+
154.0651	31	C11H8N+
155.0604	49	C10H7N2+
155.0728	21	C11H9N+
156.0806	70	C11H10N+
157.0885	33	C11H11N+
158.0964	44	C11H12N+
162.0912	15	C10H12NO+
165.0697	23	C13H9+
166.0647	7	C12H8N+
166.0774	13	C13H10+
167.0729	68	C12H9N+
168.0806	79	C12H10N+
169.0763	8	C11H9N2+
169.0884	13	C12H11N+
170.0603	32	C11H8NO+
170.0964	28	C12H12N+
171.0914	8	C11H11N2+
172.1124	7	C12H14N+
178.0651	6	C13H8N+
178.0774	32	C14H10+
179.0729	9	C13H9N+
179.0852	22	C14H11+
180.0808	141	C13H10N+
181.0887	75	C13H11N+
181.1006	13	C14H13+
182.0963	58	C13H12N+
183.1037	7	C13H13N+
184.0765	11	C12H10NO+
184.1121	10	C13H14N+
190.065	13	C14H8N+
191.0729	65	C14H9N+
191.0855	9	C15H11+
192.0808	70	C14H10N+
192.0934	15	C15H12+
193.0887	126	C14H11N+
193.1006	11	C15H13+
194.0964	132	C14H12N+
195.1043	37	C14H13N+
196.0754	7	C13H10NO+
196.1118	36	C14H14N+
197.1064	13	C13H13N2+
198.1273	7	C14H16N+
204.0806	190	C15H10N+
205.0886	142	C15H11N+
206.0964	211	C15H12N+
207.1046	101	C15H13N+
207.1162	7	C16H15+
208.0758	13	C14H10NO+
208.112	177	C15H14N+
209.1204	40	C15H15N+
210.0907	8	C14H12NO+
210.1279	32	C15H16N+
217.0886	69	C16H11N+
218.0964	170	C16H12N+
219.0926	19	C15H11N2+
219.1045	160	C16H13N+
220.1121	225	C16H14N+
221.1208	47	C16H15N+
222.0908	18	C15H12NO+
222.1278	106	C16H16N+
223.1236	38	C15H15N2+
224.1311	14	C15H16N2+
224.1431	23	C16H18N+
230.0966	21	C17H12N+
231.1045	21	C17H13N+
232.0764	9	C16H10NO+
232.112	79	C17H14N+
233.108	18	C16H13N2+
233.1204	18	C17H15N+
234.0917	8	C16H12NO+
234.1276	136	C17H16N+
236.0708	10	C15H10NO2+
236.1063	11	C16H14NO+
236.144	11	C17H18N+
237.0782	15	C15H11NO2+
237.1388	25	C16H17N2+
238.0861	161	C15H12NO2+
239.0943	65	C15H13NO2+
239.1534	6	C16H19N2+
247.1229	45	C17H15N2+
248.132	10	C17H16N2+
248.143	28	C18H18N+
249.1389	29	C17H17N2+
250.0861	104	C16H12NO2+
250.1592	9	C18H20N+
251.0941	172	C16H13NO2+
252.1019	200	C16H14NO2+
253.1103	70	C16H15NO2+
262.0873	9	C17H12NO2+
263.0935	14	C17H13NO2+
264.1018	635	C17H14NO2+
265.1102	237	C17H15NO2+
266.1175	369	C17H16NO2+
267.1264	58	C17H17NO2+
268.1343	15	C17H18NO2+
275.1166	12	C18H15N2O+
276.1019	30	C18H14NO2+
277.1107	10	C18H15NO2+
278.1174	284	C18H16NO2+
279.1254	88	C18H17NO2+
280.1331	187	C18H18NO2+
290.1173	38	C19H16NO2+
292.1325	108	C19H18NO2+
294.1484	39	C19H20NO2+
307.1439	41	C19H19N2O2+
