Mass spectrum: Vincamin; LC-ESI-ITFT; MS2; CE: 55%; R=15000; [M+H]+
Name: Vincamin
Name: Vincamine
Name: methyl (15S,17S,19S)-15-ethyl-17-hydroxy-1,11-diazapentacyclo[9.6.2.02,7.08,18.015,19]nonadeca-2,4,6,8(18)-tetraene-17-carboxylate
Formula: C21H26N2O3
Exact mass: 354.1943
SMILES: CC[C@@]12CCCN3[C@@H]1C4=C(CC3)C5=CC=CC=C5N4[C@](C2)(C(=O)OC)O
InChI: InChI=1S/C21H26N2O3/c1-3-20-10-6-11-22-12-9-15-14-7-4-5-8-16(14)23(17(15)18(20)22)21(25,13-20)19(24)26-2/h4-5,7-8,18,25H,3,6,9-13H2,1-2H3/t18-,20+,21+/m1/s1
Instrument: LTQ Orbitrap XL Thermo Scientific
Instrument type: LC-ESI-ITFT
Ms type: MS2
Ion mode: POSITIVE
Ionization: ESI
Fragmentation mode: HCD
Collision energy: 55% (nominal)
Resolution: 15000
Column name: Kinetex Evo C18 2.6 um 50 x 2.1 mm
Retention time: 6.630 min
Base peak: 355.2015
Precursor m/z: 355.2016
Precursor type: [M+H]+
m/z	relative intensity	assigned
55.0541	5	C4H7+
70.065	50	C4H8N+
83.0491	39	C5H7O+
84.0808	12	C5H10N+
93.0698	18	C7H9+
95.0856	27	C7H11+
98.0964	14	C6H12N+
105.0699	14	C8H9+
107.0857	15	C8H11+
110.0964	67	C7H12N+
111.1042	24	C7H13N+
112.1119	27	C7H14N+
121.0646	10	C8H9O+
122.0599	15	C7H8NO+
122.0964	16	C8H12N+
123.0803	29	C8H11O+
124.0755	9	C7H10NO+
124.1121	63	C8H14N+
130.0653	32	C9H8N+
132.0807	14	C9H10N+
134.0964	44	C9H12N+
135.0803	26	C9H11O+
138.1277	10	C9H16N+
144.0807	854	C10H10N+
146.0961	7	C10H12N+
150.092	9	C9H12NO+
151.0751	11	C9H11O2+
152.1069	343	C9H14NO+
154.0862	6	C8H12NO2+
156.0806	28	C11H10N+
158.0964	39	C11H12N+
162.0914	40	C10H12NO+
164.1072	14	C10H14NO+
165.091	10	C10H13O2+
168.0807	8	C12H10N+
170.0601	12	C11H8NO+
170.0962	25	C12H12N+
171.0918	6	C11H11N2+
172.1118	16	C12H14N+
177.0906	5	C11H13O2+
180.0806	13	C13H10N+
180.1015	11	C10H14NO2+
182.0807	12	C9H12NO3+
182.0962	24	C13H12N+
184.1126	10	C13H14N+
192.1014	6	C11H14NO2+
194.1174	84	C11H16NO2+
196.0963	9	C10H14NO3+
196.1118	11	C14H14N+
198.0908	14	C13H12NO+
198.1273	14	C14H16N+
206.0965	20	C15H12N+
208.1119	30	C15H14N+
209.12	30	C15H15N+
210.1277	29	C15H16N+
212.1281	365	C11H18NO3+
216.1016	5	C13H14NO2+
220.1117	28	C16H14N+
221.1196	24	C16H15N+
222.1276	73	C16H16N+
223.1357	12	C16H17N+
224.1432	72	C16H18N+
234.1276	87	C17H16N+
235.1357	35	C17H17N+
236.1066	12	C16H14NO+
236.1434	72	C17H18N+
237.1519	13	C17H19N+
238.1228	10	C16H16NO+
239.0941	44	C15H13NO2+
240.1024	12	C15H14NO2+
246.1278	20	C18H16N+
248.1305	13	C17H16N2+
248.1432	64	C18H18N+
249.1392	20	C17H17N2+
249.1511	22	C18H19N+
250.1589	51	C18H20N+
252.1016	30	C16H14NO2+
252.1383	8	C17H18NO+
253.1097	34	C16H15NO2+
253.1703	38	C17H21N2+
254.1173	18	C16H16NO2+
258.1114	6	C15H16NO3+
260.1437	8	C19H18N+
262.1229	19	C18H16NO+
264.1015	18	C17H14NO2+
265.1097	93	C17H15NO2+
266.1175	96	C17H16NO2+
266.1533	29	C18H20NO+
267.1255	151	C17H17NO2+
268.1331	275	C17H18NO2+
270.1501	6	C17H20NO2+
276.1269	16	C18H16N2O+
277.1699	90	C19H21N2+
278.1178	18	C18H16NO2+
278.1782	24	C19H22N2+
279.1253	95	C18H17NO2+
280.1331	824	C18H18NO2+
282.1488	36	C18H20NO2+
291.1252	24	C19H17NO2+
292.1334	58	C19H18NO2+
293.141	49	C19H19NO2+
294.1488	872	C19H20NO2+
295.1806	151	C19H23N2O+
305.1641	17	C20H21N2O+
306.1483	28	C20H20NO2+
307.1441	65	C19H19N2O2+
309.1588	32	C19H21N2O2+
310.1799	20	C20H24NO2+
320.1642	32	C21H22NO2+
326.1752	20	C20H24NO3+
337.1909	999	C21H25N2O2+
355.2014	113	C21H27N2O3+
