Mass spectrum: Monocrotaline; LC-ESI-ITFT; MS2; CE: 70%; R=15000; [M+H]+
Name: Monocrotaline
Name: (1R,4R,5R,6R,16R)-5,6-dihydroxy-4,5,6-trimethyl-2,8-dioxa-13-azatricyclo[8.5.1.013,16]hexadec-10-ene-3,7-dione
Formula: C16H23NO6
Exact mass: 325.1525
SMILES: C[C@H]1C(=O)O[C@@H]2CCN3[C@@H]2C(=CC3)COC(=O)[C@]([C@]1(C)O)(C)O
InChI: InChI=1S/C16H23NO6/c1-9-13(18)23-11-5-7-17-6-4-10(12(11)17)8-22-14(19)16(3,21)15(9,2)20/h4,9,11-12,20-21H,5-8H2,1-3H3/t9-,11+,12+,15+,16-/m0/s1
Instrument: LTQ Orbitrap XL Thermo Scientific
Instrument type: LC-ESI-ITFT
Ms type: MS2
Ion mode: POSITIVE
Ionization: ESI
Fragmentation mode: HCD
Collision energy: 70% (nominal)
Resolution: 15000
Column name: Kinetex Evo C18 2.6 um 50 x 2.1 mm
Retention time: 0.626 min
Base peak: 326.1596
Precursor m/z: 326.1598
Precursor type: [M+H]+
m/z	relative intensity	assigned
67.0416	107	C4H5N+
67.0541	28	C5H7+
68.0495	44	C4H6N+
79.0544	34	C6H7+
80.0495	103	C5H6N+
82.0652	45	C5H8N+
91.0543	38	C7H7+
93.0575	26	C6H7N+
93.0698	74	C7H9+
94.0652	371	C6H8N+
95.073	427	C6H9N+
96.0809	87	C6H10N+
103.054	19	C8H7+
106.0653	44	C7H8N+
108.0808	59	C7H10N+
110.0964	22	C7H12N+
119.0733	12	C8H9N+
120.0808	999	C8H10N+
121.0887	954	C8H11N+
122.0965	177	C8H12N+
138.0914	271	C8H12NO+
139.0991	68	C8H13NO+
140.1069	28	C8H14NO+
156.1019	76	C8H14NO2+
164.107	75	C10H14NO+
184.097	102	C9H14NO3+
194.1175	219	C11H16NO2+
195.1252	30	C11H17NO2+
212.1284	18	C11H18NO3+
237.1358	44	C13H19NO3+
238.1444	15	C13H20NO3+
298.1654	23	C15H24NO5+
326.1601	44	C16H24NO6+
