Mass spectrum: Gramine; LC-ESI-ITFT; MS2; CE: 125%; R=15000; [M+H]+
Name: Gramine
Formula: C11H14N2
Exact mass: 174.1157
SMILES: CN(C)Cc1c[nH]c2c1cccc2
InChI: InChI=1S/C11H14N2/c1-13(2)8-9-7-12-11-6-4-3-5-10(9)11/h3-7,12H,8H2,1-2H3
Instrument: LTQ Orbitrap XL Thermo Scientific
Instrument type: LC-ESI-ITFT
Ms type: MS2
Ion mode: POSITIVE
Ionization: ESI
Fragmentation mode: HCD
Collision energy: 125 % (nominal)
Resolution: 15000
Column name: Kinetex Evo C18 2.6 um 50 x 2.1 mm
Retention time: 0.763 min
Base peak: 130.065
Precursor m/z: 175.123
Precursor type: [M+H]+
m/z	relative intensity	assigned
77.0387	510	C6H5+
102.0464	26	C8H6+
103.0543	794	C8H7+
105.0448	114	C6H5N2+
128.0496	73	C9H6N+
130.0652	999	C9H8N+
