Mass spectrum: Colchicine; LC-ESI-ITFT; MS2; CE: 50%; R=15000; [M+H]+
Name: Colchicine
Name: N-[(7S)-1,2,3,10-tetramethoxy-9-oxo-6,7-dihydro-5H-benzo[a]heptalen-7-yl]acetamide
Formula: C22H25NO6
Exact mass: 399.1682
SMILES: CC(=O)N[C@H]1CCC2=CC(=C(C(=C2C3=CC=C(C(=O)C=C13)OC)OC)OC)OC
InChI: InChI=1S/C22H25NO6/c1-12(24)23-16-8-6-13-10-19(27-3)21(28-4)22(29-5)20(13)14-7-9-18(26-2)17(25)11-15(14)16/h7,9-11,16H,6,8H2,1-5H3,(H,23,24)/t16-/m0/s1
Instrument: LTQ Orbitrap XL Thermo Scientific
Instrument type: LC-ESI-ITFT
Ms type: MS2
Ion mode: POSITIVE
Ionization: ESI
Fragmentation mode: HCD
Collision energy: 50% (nominal)
Resolution: 15000
Column name: Kinetex Evo C18 2.6 um 50 x 2.1 mm
Retention time: 9.282 min
Base peak: 116.9858
Precursor m/z: 400.1755
Precursor type: [M+H]+
m/z	relative intensity	assigned
137.0599	87	C8H9O2+
152.0711	58	C8H10NO2+
165.0785	80	C9H11NO2+
181.086	192	C10H13O3+
203.0942	83	C12H13NO2+
207.1024	87	C12H15O3+
219.0879	39	C12H13NO3+
234.1129	214	C13H16NO3+
235.0752	93	C16H11O2+
238.0986	67	C16H14O2+
239.1077	134	C16H15O2+
241.0854	59	C15H13O3+
242.0931	79	C15H14O3+
248.0838	43	C17H12O2+
249.0916	94	C17H13O2+
250.0987	76	C17H14O2+
251.0704	111	C16H11O3+
251.1068	88	C17H15O2+
252.0788	66	C16H12O3+
252.1142	61	C17H16O2+
253.0868	55	C16H13O3+
255.0648	45	C15H11O4+
255.1014	94	C16H15O3+
265.0865	103	C17H13O3+
266.0939	178	C17H14O3+
267.1015	486	C17H15O3+
268.1083	108	C17H16O3+
269.0813	76	C16H13O4+
270.0893	121	C16H14O4+
270.1245	40	C17H18O3+
273.1113	38	C16H17O4+
277.0862	75	C18H13O3+
278.0937	215	C18H14O3+
279.0657	102	C17H11O4+
279.1005	124	C18H15O3+
281.1174	240	C18H17O3+
282.1251	847	C18H18O3+
283.0967	310	C17H15O4+
284.1043	112	C17H16O4+
285.1124	467	C17H17O4+
287.0913	73	C16H15O5+
293.0808	96	C18H13O4+
293.1057	53	C18H15NO3+
294.0894	122	C18H14O4+
294.1127	123	C18H16NO3+
295.0968	645	C18H15O4+
295.1204	207	C18H17NO3+
296.0919	102	C17H14NO4+
296.1281	46	C18H18NO3+
297.1109	85	C18H17O4+
297.1361	85	C18H19NO3+
298.0829	49	C17H14O5+
298.1198	295	C18H18O4+
298.1441	254	C18H20NO3+
300.0996	48	C17H16O5+
300.1239	177	C17H18NO4+
301.107	54	C17H17O5+
301.1314	126	C17H19NO4+
302.1163	65	C17H18O5+
308.1048	62	C19H16O4+
308.1282	133	C19H18NO3+
309.1121	242	C19H17O4+
309.1352	51	C19H19NO3+
310.1194	999	C19H18O4+
311.0918	527	C18H15O5+
311.1157	112	C18H17NO4+
312.1222	125	C18H18NO4+
313.107	68	C18H17O5+
313.1438	152	C19H21O4+
314.1387	73	C18H20NO4+
316.1547	100	C18H22NO4+
324.123	269	C19H18NO4+
325.1098	38	C22H15NO2+
325.1311	68	C19H19NO4+
326.1152	345	C19H18O5+
326.1389	324	C19H20NO4+
328.1176	370	C18H18NO5+
329.1249	47	C18H19NO5+
336.1216	35	C20H18NO4+
339.1464	136	C20H21NO4+
340.1547	207	C20H22NO4+
341.1384	264	C20H21O5+
342.1339	209	C19H20NO5+
343.1422	129	C19H21NO5+
352.1196	63	C20H18NO5+
358.165	372	C20H24NO5+
400.1769	58	C22H26NO6+
