Mass spectrum: Ajmalicine; LC-ESI-ITFT; MS2; CE: 80%; R=15000; [M+H]+
Name: Ajmalicine
Name: methyl (1S,15R,16S,20S)-16-methyl-17-oxa-3,13-diazapentacyclo[11.8.0.02,10.04,9.015,20]henicosa-2(10),4,6,8,18-pentaene-19-carboxylate
Formula: C21H24N2O3
Exact mass: 352.1787
SMILES: C[C@H]1[C@H]2CN3CCc4c5ccccc5[nH]c4[C@@H]3C[C@@H]2C(=CO1)C(=O)OC
InChI: InChI=1S/C21H24N2O3/c1-12-16-10-23-8-7-14-13-5-3-4-6-18(13)22-20(14)19(23)9-15(16)17(11-26-12)21(24)25-2/h3-6,11-12,15-16,19,22H,7-10H2,1-2H3/t12-,15-,16+,19-/m0/s1
Instrument: LTQ Orbitrap XL Thermo Scientific
Instrument type: LC-ESI-ITFT
Ms type: MS2
Ion mode: POSITIVE
Ionization: ESI
Fragmentation mode: HCD
Collision energy: 80% (nominal)
Resolution: 15000
Column name: Kinetex Evo C18 2.6 um 50 x 2.1 mm
Retention time: 7.532 min
Base peak: 116.9858
Precursor m/z: 353.186
Precursor type: [M+H]+
m/z	relative intensity	assigned
77.0386	4	C6H5+
79.0542	7	C6H7+
81.0698	11	C6H9+
82.0651	1	C5H8N+
83.0128	3	C4H3O2+
84.0807	2	C5H10N+
91.0542	13	C7H7+
93.0697	2	C7H9+
95.0491	5	C6H7O+
96.0808	2	C6H10N+
103.0542	7	C8H7+
105.0698	6	C8H9+
106.0653	1	C7H8N+
107.049	5	C7H7O+
108.0807	17	C7H10N+
109.0284	5	C6H5O2+
109.0647	4	C7H9O+
115.0541	24	C9H7+
116.0494	5	C8H6N+
117.0572	15	C8H7N+
117.0698	136	C9H9+
118.065	8	C8H8N+
120.0809	2	C8H10N+
121.0647	2	C8H9O+
122.096	1	C8H12N+
124.0392	20	C6H6NO2+
127.0541	3	C10H7+
128.0493	8	C9H6N+
128.062	10	C10H8+
129.0574	2	C9H7N+
129.0698	18	C10H9+
130.065	26	C9H8N+
131.073	3	C9H9N+
132.0808	3	C9H10N+
133.065	1	C9H9O+
134.0965	3	C9H12N+
135.044	2	C8H7O2+
136.0755	2	C8H10NO+
142.0651	4	C10H8N+
143.0729	99	C10H9N+
143.0856	9	C11H11+
144.0806	999	C10H10N+
145.0646	3	C10H9O+
146.0597	3	C9H8NO+
146.0967	1	C10H12N+
149.0592	1	C9H9O2+
150.0908	2	C9H12NO+
153.0701	2	C12H9+
154.0649	7	C11H8N+
155.0603	62	C10H7N2+
155.0727	23	C11H9N+
156.0806	35	C11H10N+
157.0883	12	C11H11N+
158.0604	1	C10H8NO+
158.0963	15	C11H12N+
162.0915	3	C10H12NO+
164.0711	1	C9H10NO2+
167.0734	17	C12H9N+
168.0806	31	C12H10N+
169.0883	9	C12H11N+
170.0963	54	C12H12N+
178.0861	8	C10H12NO2+
179.0858	1	C14H11+
180.0806	19	C13H10N+
181.0885	9	C13H11N+
182.0963	33	C13H12N+
183.0673	1	C12H9NO+
184.0748	1	C12H10NO+
191.073	3	C14H9N+
192.0806	5	C14H10N+
193.0886	4	C14H11N+
194.0963	11	C14H12N+
196.0752	1	C13H10NO+
196.1119	4	C14H14N+
204.0803	6	C15H10N+
205.0886	4	C15H11N+
206.0963	10	C15H12N+
207.1047	4	C15H13N+
208.0756	2	C14H10NO+
208.1117	3	C15H14N+
209.0837	1	C14H11NO+
210.0916	3	C14H12NO+
217.0882	6	C16H11N+
218.0965	5	C16H12N+
219.105	2	C16H13N+
220.0753	2	C15H10NO+
220.112	3	C16H14N+
222.0916	1	C15H12NO+
222.1276	3	C16H16N+
224.1065	1	C15H14NO+
230.0964	3	C17H12N+
231.1047	3	C17H13N+
232.1122	3	C17H14N+
233.0832	2	C16H11NO+
234.091	3	C16H12NO+
234.1274	2	C17H16N+
235.0995	1	C16H13NO+
248.1074	1	C17H14NO+
250.1215	2	C17H16NO+
252.1011	1	C16H14NO2+
260.108	1	C18H14NO+
