Mass spectrum: Galantamine; LC-ESI-ITFT; MS2; CE: 90%; R=15000; [M+H]+
Name: Galantamine
Formula: C17H21NO3
Exact mass: 287.1521
SMILES: CN1CCC23C=CC(CC2OC4=C(C=CC(=C34)C1)OC)O
InChI: InChI=1S/C17H21NO3/c1-18-8-7-17-6-5-12(19)9-14(17)21-16-13(20-2)4-3-11(10-18)15(16)17/h3-6,12,14,19H,7-10H2,1-2H3
Instrument: LTQ Orbitrap XL Thermo Scientific
Instrument type: LC-ESI-ITFT
Ms type: MS2
Ion mode: POSITIVE
Ionization: ESI
Fragmentation mode: CID
Collision energy: 90 % (nominal)
Resolution: 15000
Column name: Kinetex Evo C18 2.6 um 50 x 2.1 mm
Retention time: 0.643 min
Base peak: 288.1592
Precursor m/z: 288.1594
Precursor type: [M+H]+
m/z	relative intensity	assigned
109.0652	2	C7H9O+
132.0812	4	C9H10N+
133.0886	8	C9H11N+
134.0966	12	C9H12N+
137.0597	5	C8H9O2+
150.0914	4	C9H12NO+
151.0993	32	C9H13NO+
167.0857	2	C13H11+
175.0757	7	C11H11O2+
179.0856	13	C14H11+
181.1016	4	C14H13+
189.091	4	C12H13O2+
193.1016	1	C15H13+
197.0963	114	C14H13O+
199.0755	69	C13H11O2+
203.107	17	C13H15O2+
207.0808	23	C15H11O+
209.0963	103	C15H13O+
210.0672	5	C14H10O2+
211.1119	3	C15H15O+
213.0912	427	C14H13O2+
216.1017	4	C13H14NO2+
220.1122	6	C16H14N+
221.0962	8	C16H13O+
225.0912	779	C15H13O2+
227.1063	7	C15H15O2+
229.122	2	C15H17O2+
230.117	3	C14H16NO2+
231.1018	822	C14H15O3+
238.123	6	C16H16NO+
239.1068	28	C16H15O2+
241.1228	5	C16H17O2+
242.0938	6	C15H14O3+
245.1175	12	C15H17O3+
253.1228	11	C17H17O2+
255.1258	14	C16H17NO2+
257.1174	43	C16H17O3+
270.1491	999	C17H20NO2+
