Mass spectrum: Anabasine; LC-ESI-ITFT; MS2; CE: 70%; R=15000; [M+H]+
Name: Anabasine
Formula: C10H14N2
Exact mass: 162.1157
SMILES: C1CCC(NC1)C1=CC=CN=C1
InChI: InChI=1S/C10H14N2/c1-2-7-12-10(5-1)9-4-3-6-11-8-9/h3-4,6,8,10,12H,1-2,5,7H2
Instrument: LTQ Orbitrap XL Thermo Scientific
Instrument type: LC-ESI-ITFT
Ms type: MS2
Ion mode: POSITIVE
Ionization: ESI
Fragmentation mode: HCD
Collision energy: 70 % (nominal)
Resolution: 15000
Column name: Kinetex Evo C18 2.6 um 50 x 2.1 mm
Retention time: 0.423 min
Base peak: 163.123
Precursor m/z: 163.123
Precursor type: [M+H]+
m/z	relative intensity	assigned
65.0385	44	C5H5+
67.0542	15	C5H7+
70.0651	22	C4H8N+
77.0388	3	C6H5+
79.0416	5	C5H5N+
79.0543	7	C6H7+
80.0495	151	C5H6N+
82.0652	32	C5H8N+
84.0808	43	C5H10N+
91.0543	76	C7H7+
92.0495	973	C6H6N+
93.0573	131	C6H7N+
94.0651	923	C6H8N+
103.0544	5	C8H7+
105.07	8	C8H9+
106.0651	75	C7H8N+
107.073	38	C7H9N+
108.0809	5	C7H10N+
117.0574	323	C8H7N+
118.0651	999	C8H8N+
119.0731	21	C8H9N+
119.0854	9	C9H11+
120.0808	398	C8H10N+
128.062	5	C10H8+
129.0699	46	C10H9+
130.0652	291	C9H8N+
131.073	352	C9H9N+
132.0808	57	C9H10N+
133.0887	7	C9H11N+
134.0965	357	C9H12N+
144.0808	138	C10H10N+
146.0965	703	C10H12N+
163.1231	871	C10H15N2+
