Mass spectrum: Anabasine; LC-ESI-ITFT; MS2; CE: 40%; R=15000; [M+H]+
Name: Anabasine
Formula: C10H14N2
Exact mass: 162.1157
SMILES: C1CCC(NC1)C1=CC=CN=C1
InChI: InChI=1S/C10H14N2/c1-2-7-12-10(5-1)9-4-3-6-11-8-9/h3-4,6,8,10,12H,1-2,5,7H2
Instrument: LTQ Orbitrap XL Thermo Scientific
Instrument type: LC-ESI-ITFT
Ms type: MS2
Ion mode: POSITIVE
Ionization: ESI
Fragmentation mode: CID
Collision energy: 40 % (nominal)
Resolution: 15000
Column name: Kinetex Evo C18 2.6 um 50 x 2.1 mm
Retention time: 0.423 min
Base peak: 233.2013
Precursor m/z: 163.123
Precursor type: [M+H]+
m/z	relative intensity	assigned
70.0651	7	C4H8N+
80.0495	70	C5H6N+
82.0652	34	C5H8N+
84.0809	9	C5H10N+
92.0496	33	C6H6N+
93.0569	1	C6H7N+
94.0652	480	C6H8N+
96.0807	1	C6H10N+
106.0651	3	C7H8N+
108.0809	12	C7H10N+
117.0574	10	C8H7N+
118.0652	95	C8H8N+
119.0857	1	C9H11+
120.0808	412	C8H10N+
129.0698	5	C10H9+
130.0652	2	C9H8N+
131.073	30	C9H9N+
132.0809	6	C9H10N+
134.0965	266	C9H12N+
135.0921	2	C8H11N2+
144.081	20	C10H10N+
146.0965	999	C10H12N+
163.1231	761	C10H15N2+
