Mass spectrum: (-)-Strychnine; LC-ESI-ITFT; MS2; CE: 80%; R=15000; [M+H]+
Name: (-)-Strychnine
Name: Strychnine
Name: (4aR,5aS,8aR,13aS,15aS,15bR)-4a,5,5a,7,8,13a,15,15a,15b,16-decahydro-2H-4,6-methanoindolo[3,2,1-ij]oxepino[2,3,4-de]pyrrolo[2,3-h]quinolin-14-one
Formula: C21H22N2O2
Exact mass: 334.1681
SMILES: c1ccc2c(c1)[C@]34CCN5[C@H]3C[C@@H]6[C@@H]7[C@@H]4N2C(=O)C[C@@H]7OCC=C6C5
InChI: InChI=1S/C21H22N2O2/c24-18-10-16-19-13-9-17-21(6-7-22(17)11-12(13)5-8-25-16)14-3-1-2-4-15(14)23(18)20(19)21/h1-5,13,16-17,19-20H,6-11H2/t13-,16-,17-,19-,20-,21+/m0/s1
Instrument: LTQ Orbitrap XL Thermo Scientific
Instrument type: LC-ESI-ITFT
Ms type: MS2
Ion mode: POSITIVE
Ionization: ESI
Fragmentation mode: HCD
Collision energy: 80% (nominal)
Resolution: 15000
Column name: Kinetex Evo C18 2.6 um 50 x 2.1 mm
Retention time: 3.150 min
Base peak: 143.0015
Precursor m/z: 335.1754
Precursor type: [M+H]+
m/z	relative intensity	assigned
79.0542	30	C6H7+
81.0698	44	C6H9+
91.0543	38	C7H7+
93.0699	48	C7H9+
94.0651	19	C6H8N+
95.0491	26	C6H7O+
96.0807	17	C6H10N+
105.0699	26	C8H9+
106.0651	33	C7H8N+
108.0808	67	C7H10N+
118.0654	24	C8H8N+
121.0647	27	C8H9O+
122.0599	36	C7H8NO+
124.0758	44	C7H10NO+
129.0699	55	C10H9+
130.0649	51	C9H8N+
144.0807	151	C10H10N+
154.0652	26	C11H8N+
156.0807	479	C11H10N+
167.0729	18	C12H9N+
168.0809	73	C12H10N+
169.0752	13	C11H9N2+
170.0595	12	C11H8NO+
170.0964	37	C12H12N+
171.0916	50	C11H11N2+
180.0805	26	C13H10N+
182.0962	40	C13H12N+
183.0679	19	C12H9NO+
184.0756	999	C12H10NO+
194.0599	30	C13H8NO+
194.0963	120	C14H12N+
196.0755	50	C13H10NO+
198.0912	84	C13H12NO+
200.0711	13	C12H10NO2+
204.0803	32	C15H10N+
206.0962	34	C15H12N+
208.113	14	C15H14N+
210.0912	29	C14H12NO+
212.0705	10	C13H10NO2+
217.088	26	C16H11N+
218.0962	40	C16H12N+
219.1044	16	C16H13N+
220.0756	95	C15H10NO+
220.1122	57	C16H14N+
221.0834	23	C15H11NO+
222.0912	189	C15H12NO+
222.128	21	C16H16N+
232.1122	17	C17H14N+
234.0915	63	C16H12NO+
234.127	17	C17H16N+
236.1432	14	C17H18N+
244.1117	21	C18H14N+
246.0917	32	C17H12NO+
248.1071	47	C17H14NO+
250.1223	13	C17H16NO+
260.1081	19	C18H14NO+
261.1155	13	C18H15NO+
262.1227	67	C18H16NO+
264.1018	101	C17H14NO2+
266.1167	22	C17H16NO2+
272.1069	38	C19H14NO+
274.1222	26	C19H16NO+
290.1179	14	C19H16NO2+
307.1442	29	C19H19N2O2+
335.1753	387	C21H23N2O2+
