Mass spectrum: Carboline; LC-ESI-ITFT; MS2; CE: 70%; R=15000; [M+H]+
Name: Carboline
Name: 1-Azacarbazole
Name: 9H-pyrido[2,3-b]indole
Formula: C11H8N2
Exact mass: 168.0687
SMILES: N1C2=C(C=CC=C2)C2=C1N=CC=C2
InChI: InChI=1S/C11H8N2/c1-2-6-10-8(4-1)9-5-3-7-12-11(9)13-10/h1-7H,(H,12,13)
Instrument: LTQ Orbitrap XL Thermo Scientific
Instrument type: LC-ESI-ITFT
Ms type: MS2
Ionization: ESI
Ion mode: POSITIVE
Fragmentation mode: HCD
Collision energy: 70 % (nominal)
Resolution: 15000
Column name: Kinetex Evo C18 2.6 um 50 x 2.1 mm
Retention time: 2.095 min
Base peak: 169.0766
Precursor m/z: 169.076
Precursor type: [M+H]+
m/z	relative intensity	assigned
115.0545	10	C9H7+
142.0653	11	C10H8N+
168.0686	6	C11H8N2+
169.0761	999	C11H9N2+
