Mass spectrum: Erucifoline; LC-ESI-ITFT; MS2; CE: 50%; R=15000; [M+H]+
Name: Erucifoline
Name: (5R,7S,9Z,12R,18R)-9-ethylidene-7-(hydroxymethyl)-5-methyl-3,6,11-trioxa-15-azatetracyclo[10.5.1.05,7.015,18]octadec-1(17)-ene-4,10-dione
Formula: C18H23NO6
Exact mass: 349.1525
SMILES: C/C=C\1/C[C@@]2([C@@](O2)(C(=O)OCC3=CCN4[C@H]3[C@@H](CC4)OC1=O)C)CO
InChI: InChI=1S/C18H23NO6/c1-3-11-8-18(10-20)17(2,25-18)16(22)23-9-12-4-6-19-7-5-13(14(12)19)24-15(11)21/h3-4,13-14,20H,5-10H2,1-2H3/b11-3-/t13-,14-,17+,18+/m1/s1
Instrument: LTQ Orbitrap XL Thermo Scientific
Instrument type: LC-ESI-ITFT
Ms type: MS2
Ion mode: POSITIVE
Ionization: ESI
Fragmentation mode: HCD
Collision energy: 50% (nominal)
Resolution: 15000
Column name: Kinetex Evo C18 2.6 um 50 x 2.1 mm
Retention time: 0.960 min
Base peak: 350.1595
Precursor m/z: 350.1598
Precursor type: [M+H]+
m/z	relative intensity	assigned
67.0542	36	C5H7+
68.0494	20	C4H6N+
77.0385	10	C6H5+
79.0543	19	C6H7+
80.0495	53	C5H6N+
81.0699	24	C6H9+
82.0652	36	C5H8N+
83.0491	13	C5H7O+
91.0542	42	C7H7+
93.0699	103	C7H9+
94.0651	123	C6H8N+
95.049	16	C6H7O+
95.0729	11	C6H9N+
95.0859	12	C7H11+
96.0808	88	C6H10N+
97.0649	10	C6H9O+
103.0542	38	C8H7+
106.0651	23	C7H8N+
108.0807	40	C7H10N+
109.0648	31	C7H9O+
110.0599	17	C6H8NO+
110.0965	43	C7H12N+
111.0441	18	C6H7O2+
118.0652	38	C8H8N+
119.0732	8	C8H9N+
120.0808	595	C8H10N+
121.0647	24	C8H9O+
121.0886	30	C8H11N+
122.0964	75	C8H12N+
123.0439	21	C7H7O2+
123.0801	8	C8H11O+
125.0596	19	C7H9O2+
136.0755	17	C8H10NO+
136.1126	5	C9H14N+
137.0594	7	C8H9O2+
138.0913	537	C8H12NO+
139.0755	6	C8H11O2+
140.1076	4	C8H14NO+
141.0547	39	C7H9O3+
146.0962	11	C10H12N+
148.1123	8	C10H14N+
149.0596	11	C9H9O2+
151.0753	6	C9H11O2+
156.1019	8	C8H14NO2+
164.107	99	C10H14NO+
165.0548	19	C9H9O3+
167.0698	9	C9H11O3+
182.1173	14	C10H16NO2+
192.1026	7	C11H14NO2+
220.1336	30	C13H18NO2+
322.165	66	C17H24NO5+
350.1599	999	C18H24NO6+
