Mass spectrum: Retrorsine N-oxide; LC-ESI-ITFT; MS2; CE: 75%; R=15000; [M+H]+
Name: Retrorsine N-oxide
Name: Unii-51819grv4U
Name: (1R,4Z,6R,7S,14S,17R)-4-ethylidene-7-hydroxy-7-(hydroxymethyl)-6-methyl-14-oxido-2,9-dioxa-14-azoniatricyclo[9.5.1.014,17]heptadec-11-ene-3,8-dione
Formula: C18H25NO7
Exact mass: 367.1631
SMILES: C/C=C\1/C[C@H]([C@@](C(=O)OCC2=CC[N@@+]3([C@H]2[C@@H](CC3)OC1=O)[O-])(CO)O)C
InChI: InChI=1S/C18H25NO7/c1-3-12-8-11(2)18(23,10-20)17(22)25-9-13-4-6-19(24)7-5-14(15(13)19)26-16(12)21/h3-4,11,14-15,20,23H,5-10H2,1-2H3/b12-3-/t11-,14-,15-,18-,19-/m1/s1
Instrument: LTQ Orbitrap XL Thermo Scientific
Instrument type: LC-ESI-ITFT
Ms type: MS2
Ion mode: POSITIVE
Ionization: ESI
Fragmentation mode: HCD
Collision energy: 75% (nominal)
Resolution: 15000
Column name: Kinetex Evo C18 2.6 um 50 x 2.1 mm
Retention time: 2.073 min
Base peak: 368.1703
Precursor m/z: 368.1704
Precursor type: [M+H]+
m/z	relative intensity	assigned
53.0385	25	C4H5+
55.0541	16	C4H7+
67.0541	46	C5H7+
68.0493	12	C4H6N+
79.0543	70	C6H7+
80.0495	127	C5H6N+
81.0336	20	C5H5O+
81.0573	28	C5H7N+
81.0699	147	C6H9+
82.0652	26	C5H8N+
83.0492	20	C5H7O+
84.0445	23	C4H6NO+
91.0543	37	C7H7+
92.0493	20	C6H6N+
93.0574	489	C6H7N+
93.0699	24	C7H9+
94.0651	999	C6H8N+
95.073	187	C6H9N+
95.0855	130	C7H11+
96.0807	24	C6H10N+
98.0601	48	C5H8NO+
105.07	28	C8H9+
106.0652	174	C7H8N+
107.0731	28	C7H9N+
107.0856	12	C8H11+
108.0808	245	C7H10N+
109.0648	39	C7H9O+
109.0888	38	C7H11N+
110.0599	14	C6H8NO+
111.0679	16	C6H9NO+
112.0758	39	C6H10NO+
117.0572	16	C8H7N+
118.0652	586	C8H8N+
119.073	310	C8H9N+
120.0808	799	C8H10N+
121.0649	11	C8H9O+
121.0886	41	C8H11N+
122.0965	119	C8H12N+
123.0804	85	C8H11O+
124.0756	35	C7H10NO+
134.0967	16	C9H12N+
136.0757	918	C8H10NO+
137.0838	27	C8H11NO+
138.0914	207	C8H12NO+
139.0754	61	C8H11O2+
146.0969	20	C10H12N+
148.1127	20	C10H14N+
151.0756	37	C9H11O2+
154.0862	35	C8H12NO2+
164.1074	16	C10H14NO+
178.1227	35	C11H16NO+
190.1228	11	C12H16NO+
220.1332	13	C13H18NO2+
