Mass spectrum: Matrine; LC-ESI-ITFT; MS2; CE: 60%; R=15000; [M+H]+
Name: Matrine
Name: (1R,2R,9S,17S)-7,13-diazatetracyclo[7.7.1.02,7.013,17]heptadecan-6-one
Formula: C15H24N2O
Exact mass: 248.1889
SMILES: C1C[C@@H]2[C@H]3CCCN4[C@H]3[C@@H](CCC4)CN2C(=O)C1
InChI: InChI=1S/C15H24N2O/c18-14-7-1-6-13-12-5-3-9-16-8-2-4-11(15(12)16)10-17(13)14/h11-13,15H,1-10H2/t11-,12+,13+,15-/m0/s1
Instrument: LTQ Orbitrap XL Thermo Scientific
Instrument type: LC-ESI-ITFT
Ms type: MS2
Ion mode: POSITIVE
Ionization: ESI
Fragmentation mode: HCD
Collision energy: 60% (nominal)
Resolution: 15000
Column name: Kinetex Evo C18 2.6 um 50 x 2.1 mm
Retention time: 0.713 min
Base peak: 249.196
Precursor m/z: 249.1961
Precursor type: [M+H]+
m/z	relative intensity	assigned
84.0805	1	C5H10N+
98.0601	2	C5H8NO+
110.0966	2	C7H12N+
112.0757	7	C6H10NO+
136.1123	3	C9H14N+
138.1276	2	C9H16N+
148.1122	35	C10H14N+
150.091	1	C9H12NO+
150.1278	16	C10H16N+
152.1434	3	C10H18N+
176.1073	6	C11H14NO+
190.1229	1	C12H16NO+
204.1388	2	C13H18NO+
218.1534	4	C14H20NO+
220.1705	2	C14H22NO+
230.1529	1	C15H20NO+
231.1853	4	C15H23N2+
232.1697	2	C15H22NO+
247.1808	48	C15H23N2O+
249.1962	999	C15H25N2O+
