Mass spectrum: Aconitin; LC-ESI-ITFT; MS2; CE: 100%; R=15000; [M+H]+
Name: Aconitin
Name: Aconitine
Name: [(1S,2R,3R,4R,5R,6S,7S,8R,9R,13R,14R,16S,17S,18R)-8-acetyloxy-11-ethyl-5,7,14-trihydroxy-6,16,18-trimethoxy-13-(methoxymethyl)-11-azahexacyclo[7.7.2.12,5.01,10.03,8.013,17]nonadecan-4-yl] benzoate
Formula: C34H47NO11
Exact mass: 645.3149
SMILES: CCN1C[C@@]2([C@@H](C[C@@H]([C@@]34[C@@H]2[C@H]([C@@H](C31)[C@@]5([C@@H]6[C@H]4C[C@@]([C@@H]6OC(=O)C7=CC=CC=C7)([C@H]([C@@H]5O)OC)O)OC(=O)C)OC)OC)O)COC
InChI: InChI=1S/C34H47NO11/c1-7-35-15-31(16-41-3)20(37)13-21(42-4)33-19-14-32(40)28(45-30(39)18-11-9-8-10-12-18)22(19)34(46-17(2)36,27(38)29(32)44-6)23(26(33)35)24(43-5)25(31)33/h8-12,19-29,37-38,40H,7,13-16H2,1-6H3/t19-,20-,21+,22-,23+,24+,25-,26?,27+,28-,29+,31+,32-,33+,34-/m1/s1
Instrument: LTQ Orbitrap XL Thermo Scientific
Instrument type: LC-ESI-ITFT
Ms type: MS2
Ion mode: POSITIVE
Ionization: ESI
Fragmentation mode: HCD
Collision energy: 100% (nominal)
Resolution: 15000
Column name: Kinetex Evo C18 2.6 um 50 x 2.1 mm
Retention time: 9.733 min
Base peak: 116.9858
Precursor m/z: 646.3222
Precursor type: [M+H]+
m/z	relative intensity	assigned
77.0386	473	C6H5+
79.0542	40	C6H7+
80.0496	15	C5H6N+
91.0542	113	C7H7+
95.0491	51	C6H7O+
105.0335	999	C7H5O+
106.0654	25	C7H8N+
107.0489	18	C7H7O+
108.0809	39	C7H10N+
115.0542	68	C9H7+
117.0572	22	C8H7N+
117.0699	37	C9H9+
118.0649	20	C8H8N+
121.0648	16	C8H9O+
122.0968	20	C8H12N+
128.0622	74	C10H8+
129.0699	66	C10H9+
130.0652	28	C9H8N+
132.0812	22	C9H10N+
134.0966	25	C9H12N+
141.0698	57	C11H9+
144.0568	18	C10H8O+
144.0806	17	C10H10N+
145.0647	20	C10H9O+
146.0597	16	C9H8NO+
146.0959	25	C10H12N+
147.0441	23	C9H7O2+
147.1038	20	C10H13N+
148.1119	15	C10H14N+
152.0619	34	C12H8+
152.1066	39	C9H14NO+
153.0694	47	C12H9+
154.0779	29	C12H10+
155.0855	28	C12H11+
156.0807	21	C11H10N+
158.0966	54	C11H12N+
160.1125	35	C11H14N+
165.0698	109	C13H9+
166.0777	31	C13H10+
167.0857	26	C13H11+
172.112	23	C12H14N+
178.0778	87	C14H10+
178.1231	18	C11H16NO+
179.0854	45	C14H11+
182.0973	18	C13H12N+
184.1119	34	C13H14N+
189.0697	51	C15H9+
190.0776	33	C15H10+
191.086	47	C15H11+
202.0775	33	C16H10+
202.1224	16	C13H16NO+
206.0957	15	C15H12N+
222.1269	22	C16H16N+
