Mass spectrum: Alpinetin; LC-ESI-ITFT; MS2; CE: 100%; R=15000; [M+H]+
Name: Alpinetin
Formula: C16H14O4
Exact mass: 270.0892
SMILES: COC1=C2C(=O)CC(OC2=CC(=C1)O)C3=CC=CC=C3
InChI: InChI=1S/C16H14O4/c1-19-14-7-11(17)8-15-16(14)12(18)9-13(20-15)10-5-3-2-4-6-10/h2-8,13,17H,9H2,1H3
Instrument: LTQ Orbitrap XL Thermo Scientific
Instrument type: LC-ESI-ITFT
Ms type: MS2
Ion mode: POSITIVE
Ionization: ESI
Fragmentation mode: HCD
Collision energy: 100 % (nominal)
Resolution: 15000
Column name: Kinetex Evo C18 2.6 um 50 x 2.1 mm
Retention time: 10.450 min
Base peak: 271.0964
Precursor m/z: 271.0965
Precursor type: [M+H]+
m/z	relative intensity	assigned
50.015	45	C4H2+
67.0178	32	C4H3O+
68.0258	35	C4H4O+
68.9972	308	C3HO2+
77.0387	88	C6H5+
78.0102	71	C5H2O+
81.0336	70	C5H5O+
91.0544	35	C7H7+
96.0207	123	C5H4O2+
103.0544	654	C8H7+
111.0443	46	C6H7O2+
124.0157	999	C6H4O3+
131.0493	29	C9H7O+
152.0107	426	C7H4O4+
167.0341	562	C8H7O4+
