Mass spectrum: Jervine; LC-ESI-ITFT; MS2; CE: 100%; R=15000; [M+H]+
Name: Jervine
Name: (3S,3`R,3`aS,6`S,6aS,6bS,7`aR,9R,11aS,11bR)-3-hydroxy-3`,6`,10,11b-tetramethylspiro[1,2,3,4,6,6a,6b,7,8,11a-decahydrobenzo[a]fluorene-9,2`-3a,4,5,6,7,7a-hexahydro-3H-furo[3,2-b]pyridine]-11-one
Formula: C27H39NO3
Exact mass: 425.2930
SMILES: C[C@H]1C[C@@H]2[C@H]([C@H]([C@]3(O2)CC[C@H]4[C@@H]5CC=C6C[C@H](CC[C@@]6([C@H]5C(=O)C4=C3C)C)O)C)NC1
InChI: InChI=1S/C27H39NO3/c1-14-11-21-24(28-13-14)16(3)27(31-21)10-8-19-20-6-5-17-12-18(29)7-9-26(17,4)23(20)25(30)22(19)15(27)2/h5,14,16,18-21,23-24,28-29H,6-13H2,1-4H3/t14-,16+,18-,19-,20-,21+,23+,24-,26-,27-/m0/s1
Instrument: LTQ Orbitrap XL Thermo Scientific
Instrument type: LC-ESI-ITFT
Ms type: MS2
Ion mode: POSITIVE
Ionization: ESI
Fragmentation mode: HCD
Collision energy: 100% (nominal)
Resolution: 15000
Column name: Kinetex Evo C18 2.6 um 50 x 2.1 mm
Retention time: 8.892 min
Base peak: 426.2999
Precursor m/z: 426.3003
Precursor type: [M+H]+
m/z	relative intensity	assigned
55.0541	40	C4H7+
57.0698	31	C4H9+
65.0384	36	C5H5+
67.0542	887	C5H7+
69.0335	17	C4H5O+
69.0698	111	C5H9+
70.0651	140	C4H8N+
72.0443	52	C3H6NO+
77.0386	111	C6H5+
79.0542	486	C6H7+
80.0495	89	C5H6N+
81.0573	118	C5H7N+
81.0698	652	C6H9+
82.0651	48	C5H8N+
83.0491	120	C5H7O+
84.0807	724	C5H10N+
85.0647	176	C5H9O+
91.0542	746	C7H7+
93.0698	400	C7H9+
94.0651	40	C6H8N+
94.0776	24	C7H10+
95.049	18	C6H7O+
95.0853	97	C7H11+
96.0807	248	C6H10N+
98.0965	28	C6H12N+
100.0756	16	C5H10NO+
103.0542	87	C8H7+
105.0698	999	C8H9+
106.0776	30	C8H10+
107.049	22	C7H7O+
107.0855	193	C8H11+
109.0647	19	C7H9O+
109.1012	123	C8H13+
110.0964	14	C7H12N+
112.0756	61	C6H10NO+
114.0913	351	C6H12NO+
115.0541	110	C9H7+
116.0621	55	C9H8+
117.0698	237	C9H9+
118.0777	20	C9H10+
119.0855	272	C9H11+
121.0646	37	C8H9O+
121.1011	114	C9H13+
123.0806	20	C8H11O+
124.1119	30	C8H14N+
128.062	183	C10H8+
129.0698	255	C10H9+
130.0775	180	C10H10+
131.049	16	C9H7O+
131.0854	196	C10H11+
133.0642	19	C9H9O+
133.1011	109	C10H13+
135.0806	18	C9H11O+
141.0698	149	C11H9+
142.0777	261	C11H10+
143.0853	196	C11H11+
144.0568	20	C10H8O+
144.093	42	C11H12+
145.0648	53	C10H9O+
145.1011	181	C11H13+
146.0726	20	C10H10O+
147.0805	31	C10H11O+
147.117	22	C11H15+
148.1118	14	C10H14N+
149.0961	14	C10H13O+
153.0697	72	C12H9+
154.0775	62	C12H10+
155.0854	147	C12H11+
156.093	91	C12H12+
157.0653	15	C11H9O+
157.101	122	C12H13+
158.0725	30	C11H10O+
159.0803	20	C11H11O+
159.1164	26	C12H15+
160.0878	25	C11H12O+
165.0697	102	C13H9+
166.0776	44	C13H10+
167.0855	95	C13H11+
168.0932	54	C13H12+
169.1009	83	C13H13+
171.1162	22	C13H15+
172.088	14	C12H12O+
173.0956	19	C12H13O+
175.1118	33	C12H15O+
178.0774	37	C14H10+
179.0854	118	C14H11+
180.0939	30	C14H12+
181.101	68	C14H13+
183.0803	17	C13H11O+
183.1171	36	C14H15+
191.085	37	C15H11+
192.0933	37	C15H12+
193.101	81	C15H13+
194.1098	21	C15H14+
195.1168	32	C15H15+
203.0853	19	C16H11+
204.0929	15	C16H12+
205.1013	55	C16H13+
206.1094	27	C16H14+
207.1163	37	C16H15+
217.1011	43	C17H13+
219.1177	31	C17H15+
221.1323	15	C17H17+
230.1099	16	C18H14+
231.1171	24	C18H15+
245.1324	37	C19H17+
247.1472	21	C19H19+
