Mass spectrum: Valerophenone; LC-ESI-ITFT; MS2; CE: 60%; R=15000; [M+H]+
Name: Valerophenone
Formula: C11H14O
Exact mass: 162.1045
SMILES: CCCCC(=O)C1=CC=CC=C1
InChI: InChI=1S/C11H14O/c1-2-3-9-11(12)10-7-5-4-6-8-10/h4-8H,2-3,9H2,1H3
Instrument: LTQ Orbitrap XL Thermo Scientific
Instrument type: LC-ESI-ITFT
Ms type: MS2
Ion mode: POSITIVE
Ionization: ESI
Fragmentation mode: HCD
Collision energy: 60 % (nominal)
Resolution: 15000
Column name: Kinetex Evo C18 2.6 um 50 x 2.1 mm
Retention time: 11.605 min
Base peak: 440.3516
Precursor m/z: 163.1117
Precursor type: [M+H]+
m/z	relative intensity	assigned
57.0697	235	C4H9+
79.0543	999	C6H7+
85.0652	47	C5H9O+
91.0543	567	C7H7+
103.0543	134	C8H7+
105.0698	208	C8H9+
107.0492	467	C7H7O+
117.0698	274	C9H9+
130.0782	40	C10H10+
145.101	169	C11H13+
163.1119	53	C11H15O+
