Mass spectrum: Cortisone; LC-ESI-ITFT; MS2; CE: 30%; R=15000; [M+H]+
Name: Cortisone
Name: (8S,9S,10R,13S,14S,17R)-17-hydroxy-17-(2-hydroxyacetyl)-10,13-dimethyl-1,2,6,7,8,9,12,14,15,16-decahydrocyclopenta[a]phenanthrene-3,11-dione
Formula: C21H28O5
Exact mass: 360.1937
SMILES: C[C@]12CC(=O)[C@H]3[C@@H](CCC4=CC(=O)CC[C@]34C)[C@@H]1CC[C@]2(O)C(=O)CO
InChI: InChI=1S/C21H28O5/c1-19-7-5-13(23)9-12(19)3-4-14-15-6-8-21(26,17(25)11-22)20(15,2)10-16(24)18(14)19/h9,14-15,18,22,26H,3-8,10-11H2,1-2H3/t14-,15-,18+,19-,20-,21-/m0/s1
Instrument: LTQ Orbitrap XL Thermo Scientific
Instrument type: LC-ESI-ITFT
Ms type: MS2
Ion mode: POSITIVE
Ionization: ESI
Fragmentation mode: HCD
Collision energy: 30 % (nominal)
Resolution: 15000
Column name: Kinetex Evo C18 2.6 um 50 x 2.1 mm
Retention time: 9.574 min
Base peak: 361.2013
Precursor m/z: 361.201
Precursor type: [M+H]+
m/z	relative intensity	assigned
93.0699	9	C7H9+
105.0698	23	C8H9+
107.0854	13	C8H11+
119.0855	11	C9H11+
121.0647	79	C8H9O+
121.1012	6	C9H13+
123.0803	10	C8H11O+
131.0856	9	C10H11+
133.0647	3	C9H9O+
133.1009	5	C10H13+
135.0802	30	C9H11O+
135.1167	19	C10H15+
137.0962	7	C9H13O+
139.0751	24	C8H11O2+
143.0857	3	C11H11+
145.1009	37	C11H13+
147.0803	25	C10H11O+
147.1166	3	C11H15+
149.0961	8	C10H13O+
153.0906	6	C9H13O2+
157.101	6	C12H13+
158.1539	4	C9H20NO+
159.0803	7	C11H11O+
159.1165	4	C12H15+
161.0959	17	C11H13O+
163.1115	551	C11H15O+
165.0906	4	C10H13O2+
165.1277	3	C11H17O+
171.0802	7	C12H11O+
171.1169	11	C13H15+
173.0958	10	C12H13O+
175.1112	5	C12H15O+
177.0903	4	C11H13O2+
181.1008	5	C14H13+
183.1169	5	C14H15+
185.0957	5	C13H13O+
187.1115	6	C13H15O+
189.0905	9	C12H13O2+
189.127	6	C13H17O+
191.1058	6	C12H15O2+
197.1327	3	C15H17+
199.1112	10	C14H15O+
201.1269	6	C14H17O+
207.1018	5	C12H15O3+
207.1162	4	C16H15+
211.1111	5	C15H15O+
213.1275	4	C15H17O+
215.1424	2	C15H19O+
217.1217	3	C14H17O2+
221.132	7	C17H17+
223.1108	3	C16H15O+
223.1484	7	C17H19+
225.1275	7	C16H17O+
227.1421	6	C16H19O+
229.1213	6	C15H17O2+
237.1636	4	C18H21+
239.1425	22	C17H19O+
239.1788	4	C18H23+
241.1217	13	C16H17O2+
241.1587	9	C17H21O+
243.1378	4	C16H19O2+
243.1736	8	C17H23O+
247.148	7	C19H19+
249.1642	5	C19H21+
253.1576	5	C18H21O+
255.137	4	C17H19O2+
255.174	7	C18H23O+
257.153	14	C17H21O2+
257.1892	7	C18H25O+
263.1423	4	C19H19O+
265.1583	38	C19H21O+
267.1378	10	C18H19O2+
267.174	43	C19H23O+
277.1574	4	C20H21O+
279.1737	15	C20H23O+
283.1688	55	C19H23O2+
284.1765	2	C19H24O2+
285.1842	38	C19H25O2+
289.1587	6	C21H21O+
295.1683	18	C20H23O2+
297.184	16	C20H25O2+
299.1636	39	C19H23O3+
301.1793	63	C19H25O3+
307.1685	28	C21H23O2+
313.1792	29	C20H25O3+
315.1941	9	C20H27O3+
317.1745	3	C19H25O4+
325.1791	45	C21H25O3+
343.1897	99	C21H27O4+
344.1942	7	C16H28N2O6+
361.2003	999	C21H29O5+
