Mass spectrum: Seneciphylline; LC-ESI-ITFT; MS2; CE: 70%; R=15000; [M+H]+
Name: Seneciphylline
Name: (1R,4Z,7R,17R)-4-ethylidene-7-hydroxy-7-methyl-6-methylidene-2,9-dioxa-14-azatricyclo[9.5.1.014,17]heptadec-11-ene-3,8-dione
Formula: C18H23NO5
Exact mass: 333.1576
SMILES: C/C=C\1/CC(=C)[C@@](C(=O)OCC2=CCN3[C@H]2[C@@H](CC3)OC1=O)(C)O
InChI: InChI=1S/C18H23NO5/c1-4-12-9-11(2)18(3,22)17(21)23-10-13-5-7-19-8-6-14(15(13)19)24-16(12)20/h4-5,14-15,22H,2,6-10H2,1,3H3/b12-4-/t14-,15-,18-/m1/s1
Instrument: LTQ Orbitrap XL Thermo Scientific
Instrument type: LC-ESI-ITFT
Ms type: MS2
Ion mode: POSITIVE
Ionization: ESI
Fragmentation mode: HCD
Collision energy: 70% (nominal)
Resolution: 15000
Column name: Kinetex Evo C18 2.6 um 50 x 2.1 mm
Retention time: 2.029 min
Base peak: 143.0015
Precursor m/z: 334.1649
Precursor type: [M+H]+
m/z	relative intensity	assigned
67.0542	191	C5H7+
68.0494	104	C4H6N+
77.0386	93	C6H5+
79.0543	166	C6H7+
80.0495	228	C5H6N+
81.0573	61	C5H7N+
81.0699	167	C6H9+
82.0652	182	C5H8N+
84.0442	31	C4H6NO+
86.06	22	C4H8NO+
91.0542	278	C7H7+
92.0494	48	C6H6N+
93.0574	26	C6H7N+
93.0699	319	C7H9+
94.0651	999	C6H8N+
95.0494	28	C6H7O+
95.073	46	C6H9N+
95.0855	115	C7H11+
96.0808	352	C6H10N+
103.0542	142	C8H7+
105.0572	36	C7H7N+
105.0699	206	C8H9+
106.0652	54	C7H8N+
107.0729	93	C7H9N+
107.0854	34	C8H11+
108.0808	298	C7H10N+
109.0647	270	C7H9O+
109.0884	28	C7H11N+
110.0601	41	C6H8NO+
110.0965	169	C7H12N+
112.0758	18	C6H10NO+
117.07	17	C9H9+
118.0651	143	C8H8N+
119.0728	25	C8H9N+
120.0808	924	C8H10N+
121.0646	17	C8H9O+
121.0886	53	C8H11N+
122.0964	160	C8H12N+
123.0804	169	C8H11O+
133.0649	34	C9H9O+
135.0798	19	C9H11O+
136.076	21	C8H10NO+
138.0913	732	C8H12NO+
140.1073	25	C8H14NO+
146.0963	14	C10H12N+
148.1119	21	C10H14N+
151.0754	94	C9H11O2+
156.102	48	C8H14NO2+
246.1485	24	C15H20NO2+
306.1699	105	C17H24NO4+
334.1654	72	C18H24NO5+
