Mass spectrum: Jacobine N-oxide; LC-ESI-ITFT; MS2; CE: 45%; R=15000; [M+H]+
Name: Jacobine N-oxide
Name: (1R,3`S,4S,6R,7R,17R)-7-hydroxy-3`,6,7-trimethyl-14-oxidospiro[2,9-dioxa-14-azoniatricyclo[9.5.1.014,17]heptadec-11-ene-4,2`-oxirane]-3,8-dione
Formula: C18H25NO7
Exact mass: 367.1631
SMILES: C[C@@H]1C[C@]2([C@@H](O2)C)C(=O)O[C@@H]3CC[N+]4([C@@H]3C(=CC4)COC(=O)[C@]1(C)O)[O-]
InChI: InChI=1S/C18H25NO7/c1-10-8-18(11(2)26-18)16(21)25-13-5-7-19(23)6-4-12(14(13)19)9-24-15(20)17(10,3)22/h4,10-11,13-14,22H,5-9H2,1-3H3/t10-,11+,13-,14-,17-,18+,19?/m1/s1
Instrument: LTQ Orbitrap XL Thermo Scientific
Instrument type: LC-ESI-ITFT
Ms type: MS2
Ion mode: POSITIVE
Ionization: ESI
Fragmentation mode: HCD
Collision energy: 45% (nominal)
Resolution: 15000
Column name: Kinetex Evo C18 2.6 um 50 x 2.1 mm
Retention time: 1.290 min
Base peak: 143.0015
Precursor m/z: 368.1704
Precursor type: [M+H]+
m/z	relative intensity	assigned
77.0386	12	C6H5+
79.0543	22	C6H7+
80.0495	37	C5H6N+
81.0698	9	C6H9+
91.0542	49	C7H7+
93.0574	41	C6H7N+
93.0699	42	C7H9+
94.0651	63	C6H8N+
95.073	146	C6H9N+
96.0808	16	C6H10N+
97.0649	11	C6H9O+
106.0652	43	C7H8N+
108.0809	24	C7H10N+
110.06	18	C6H8NO+
110.0967	17	C7H12N+
113.0598	42	C6H9O2+
118.0652	132	C8H8N+
119.073	178	C8H9N+
120.0808	536	C8H10N+
121.0887	183	C8H11N+
122.0965	124	C8H12N+
124.0759	23	C7H10NO+
136.0758	65	C8H10NO+
137.0837	14	C8H11NO+
138.0914	95	C8H12NO+
139.0993	205	C8H13NO+
140.107	9	C8H14NO+
152.1066	9	C9H14NO+
154.0864	41	C8H12NO2+
156.1021	52	C8H14NO2+
174.1281	15	C12H16N+
178.0866	11	C10H12NO2+
190.1228	38	C12H16NO+
192.0653	17	C10H10NO3+
192.1026	15	C11H14NO2+
218.1539	11	C14H20NO+
220.1328	14	C13H18NO2+
236.1284	20	C13H18NO3+
262.145	12	C15H20NO3+
268.1547	15	C14H22NO4+
278.1391	25	C15H20NO4+
280.1536	14	C15H22NO4+
296.1495	999	C15H22NO5+
324.1447	57	C16H22NO6+
340.1759	26	C17H26NO6+
368.1706	914	C18H26NO7+
