Mass spectrum: Lasiocarpine; LC-ESI-ITFT; MS2; CE: 25%; R=15000; [M+H]+
Name: Lasiocarpine
Name: [(7S,8R)-7-[(Z)-2-methylbut-2-enoyl]oxy-5,6,7,8-tetrahydro-3H-pyrrolizin-1-yl]methyl (2R)-2,3-dihydroxy-2-[(1S)-1-methoxyethyl]-3-methylbutanoate
Formula: C21H33NO7
Exact mass: 411.2257
SMILES: C/C=C(/C)\C(=O)O[C@H]1CCN2[C@@H]1C(=CC2)COC(=O)[C@@]([C@H](C)OC)(C(C)(C)O)O
InChI: InChI=1S/C21H33NO7/c1-7-13(2)18(23)29-16-9-11-22-10-8-15(17(16)22)12-28-19(24)21(26,14(3)27-6)20(4,5)25/h7-8,14,16-17,25-26H,9-12H2,1-6H3/b13-7-/t14-,16-,17+,21-/m0/s1
Instrument: LTQ Orbitrap XL Thermo Scientific
Instrument type: LC-ESI-ITFT
Ms type: MS2
Ion mode: POSITIVE
Ionization: ESI
Fragmentation mode: HCD
Collision energy: 25% (nominal)
Resolution: 15000
Column name: Kinetex Evo C18 2.6 um 50 x 2.1 mm
Retention time: 7.420 min
Base peak: 412.2329
Precursor m/z: 412.233
Precursor type: [M+H]+
m/z	relative intensity	assigned
120.0808	672	C8H10N+
138.0912	8	C8H12NO+
157.0859	5	C8H13O3+
220.1332	999	C13H18NO2+
238.1438	104	C13H20NO3+
254.1382	11	C13H20NO4+
312.1805	7	C16H26NO5+
322.1649	15	C17H24NO5+
336.1806	559	C18H26NO5+
394.2227	41	C21H32NO6+
412.2332	635	C21H34NO7+
