Mass spectrum: (+)-Chelidonine; LC-ESI-ITFT; MS2; CE: 65%; R=15000; [M+H]+
Name: (+)-Chelidonine
Name: Chelidonine
Name: (1S,12S,13R)-24-methyl-5,7,18,20-tetraoxa-24-azahexacyclo[11.11.0.02,10.04,8.014,22.017,21]tetracosa-2,4(8),9,14(22),15,17(21)-hexaen-12-ol
Formula: C20H19NO5
Exact mass: 353.1263
SMILES: CN1Cc2c(ccc3c2OCO3)[C@@H]4[C@H]1c5cc6c(cc5C[C@@H]4O)OCO6
InChI: InChI=1S/C20H19NO5/c1-21-7-13-11(2-3-15-20(13)26-9-23-15)18-14(22)4-10-5-16-17(25-8-24-16)6-12(10)19(18)21/h2-3,5-6,14,18-19,22H,4,7-9H2,1H3/t14-,18-,19+/m0/s1
Instrument: LTQ Orbitrap XL Thermo Scientific
Instrument type: LC-ESI-ITFT
Ms type: MS2
Ion mode: POSITIVE
Ionization: ESI
Fragmentation mode: HCD
Collision energy: 65% (nominal)
Resolution: 15000
Column name: Kinetex Evo C18 2.6 um 50 x 2.1 mm
Retention time: 7.015 min
Base peak: 354.1337
Precursor m/z: 354.1336
Precursor type: [M+H]+
m/z	relative intensity	assigned
79.0543	5	C6H7+
103.0543	3	C8H7+
115.0542	4	C9H7+
118.0651	7	C8H8N+
131.0492	26	C9H7O+
133.0286	3	C8H5O2+
135.0441	143	C8H7O2+
143.0492	15	C10H7O+
146.0601	13	C9H8NO+
147.0441	2	C9H7O2+
148.0521	7	C9H8O2+
149.0234	5	C8H5O3+
149.0597	13	C9H9O2+
159.0441	28	C10H7O2+
160.0755	3	C10H10NO+
161.0599	54	C10H9O2+
163.0391	161	C9H7O3+
173.0599	15	C11H9O2+
175.039	6	C10H7O3+
175.0631	7	C10H9NO2+
176.0707	30	C10H10NO2+
179.0857	28	C14H11+
187.0393	9	C11H7O3+
188.0707	114	C11H10NO2+
189.07	226	C15H9+
191.0857	18	C15H11+
205.0648	17	C15H9O+
207.0805	64	C15H11O+
209.0597	5	C14H9O2+
217.0649	361	C16H9O+
219.0806	39	C16H11O+
222.0678	7	C15H10O2+
233.0593	6	C16H9O2+
235.0754	89	C16H11O2+
237.0911	110	C16H13O2+
245.06	65	C17H9O2+
246.0687	9	C17H10O2+
247.0755	999	C17H11O2+
249.091	10	C17H13O2+
250.0617	5	C16H10O3+
263.0706	17	C17H11O3+
265.0861	88	C17H13O3+
275.0704	977	C18H11O3+
277.0862	6	C18H13O3+
278.0573	6	C17H10O4+
293.0807	17	C18H13O4+
295.097	17	C18H15O4+
305.0809	10	C19H13O4+
334.1061	3	C20H16NO4+
336.124	8	C20H18NO4+
