Mass spectrum: Retrorsine; LC-ESI-ITFT; MS2; CE: 50%; R=15000; [M+H]+
Name: Retrorsine
Name: (1R,4Z,6R,7S,17R)-4-ethylidene-7-hydroxy-7-(hydroxymethyl)-6-methyl-2,9-dioxa-14-azatricyclo[9.5.1.014,17]heptadec-11-ene-3,8-dione
Formula: C18H25NO6
Exact mass: 351.1682
SMILES: C/C=C\1/C[C@H]([C@@](C(=O)OCC2=CCN3[C@H]2[C@@H](CC3)OC1=O)(CO)O)C
InChI: InChI=1S/C18H25NO6/c1-3-12-8-11(2)18(23,10-20)17(22)24-9-13-4-6-19-7-5-14(15(13)19)25-16(12)21/h3-4,11,14-15,20,23H,5-10H2,1-2H3/b12-3-/t11-,14-,15-,18-/m1/s1
Instrument: LTQ Orbitrap XL Thermo Scientific
Instrument type: LC-ESI-ITFT
Ms type: MS2
Ion mode: POSITIVE
Ionization: ESI
Fragmentation mode: HCD
Collision energy: 50% (nominal)
Resolution: 15000
Column name: Kinetex Evo C18 2.6 um 50 x 2.1 mm
Retention time: 1.617 min
Base peak: 143.0014
Precursor m/z: 352.1755
Precursor type: [M+H]+
m/z	relative intensity	assigned
67.0542	18	C5H7+
68.0494	11	C4H6N+
79.0542	13	C6H7+
80.0494	21	C5H6N+
81.0699	17	C6H9+
82.0652	9	C5H8N+
91.0543	19	C7H7+
93.0698	51	C7H9+
94.0651	136	C6H8N+
95.0855	31	C7H11+
96.0807	56	C6H10N+
103.0541	21	C8H7+
105.0698	14	C8H9+
107.0852	9	C8H11+
108.0806	32	C7H10N+
109.0647	10	C7H9O+
110.06	11	C6H8NO+
110.0964	28	C7H12N+
118.065	18	C8H8N+
120.0807	458	C8H10N+
121.0646	10	C8H9O+
121.0886	14	C8H11N+
122.0964	86	C8H12N+
123.0803	53	C8H11O+
125.0961	6	C8H13O+
138.0913	444	C8H12NO+
139.0754	7	C8H11O2+
140.107	19	C8H14NO+
151.0752	53	C9H11O2+
156.1012	7	C8H14NO2+
169.0859	27	C9H13O3+
220.133	31	C13H18NO2+
276.1593	39	C16H22NO3+
306.171	5	C17H24NO4+
308.1853	8	C17H26NO4+
322.1645	28	C17H24NO5+
324.1805	224	C17H26NO5+
352.1754	999	C18H26NO6+
