Mass spectrum: Cortisone; LC-ESI-ITFT; MS2; CE: 15%; R=15000; [M+H]+
Name: Cortisone
Name: (8S,9S,10R,13S,14S,17R)-17-hydroxy-17-(2-hydroxyacetyl)-10,13-dimethyl-1,2,6,7,8,9,12,14,15,16-decahydrocyclopenta[a]phenanthrene-3,11-dione
Formula: C21H28O5
Exact mass: 360.1937
SMILES: C[C@]12CC(=O)[C@H]3[C@@H](CCC4=CC(=O)CC[C@]34C)[C@@H]1CC[C@]2(O)C(=O)CO
InChI: InChI=1S/C21H28O5/c1-19-7-5-13(23)9-12(19)3-4-14-15-6-8-21(26,17(25)11-22)20(15,2)10-16(24)18(14)19/h9,14-15,18,22,26H,3-8,10-11H2,1-2H3/t14-,15-,18+,19-,20-,21-/m0/s1
Instrument: LTQ Orbitrap XL Thermo Scientific
Instrument type: LC-ESI-ITFT
Ms type: MS2
Ion mode: POSITIVE
Ionization: ESI
Fragmentation mode: CID
Collision energy: 15 % (nominal)
Resolution: 15000
Column name: Kinetex Evo C18 2.6 um 50 x 2.1 mm
Retention time: 9.574 min
Base peak: 361.2013
Precursor m/z: 361.201
Precursor type: [M+H]+
m/z	relative intensity	assigned
105.0698	2	C8H9+
107.0854	1	C8H11+
117.07	1	C9H9+
119.0854	1	C9H11+
121.0648	10	C8H9O+
123.0806	1	C8H11O+
131.0855	2	C10H11+
135.0805	4	C9H11O+
135.117	1	C10H15+
139.0754	1	C8H11O2+
143.0855	1	C11H11+
145.0646	1	C10H9O+
145.1011	8	C11H13+
147.0804	8	C10H11O+
149.0959	1	C10H13O+
151.0753	1	C9H11O2+
155.0854	1	C12H11+
157.1011	1	C12H13+
159.0805	2	C11H11O+
159.1169	1	C12H15+
161.0597	1	C10H9O2+
161.0961	5	C11H13O+
163.1116	91	C11H15O+
165.1278	1	C11H17O+
169.1011	1	C13H13+
171.0802	3	C12H11O+
171.1168	7	C13H15+
173.0959	6	C12H13O+
175.1117	2	C12H15O+
177.0907	2	C11H13O2+
179.107	1	C11H15O2+
181.0857	1	C10H13O3+
181.1011	2	C14H13+
183.1169	2	C14H15+
185.0959	2	C13H13O+
185.1326	1	C14H17+
187.0761	1	C12H11O2+
187.1118	3	C13H15O+
189.091	2	C12H13O2+
189.1274	1	C13H17O+
191.1068	2	C12H15O2+
195.1168	2	C15H15+
197.096	1	C14H13O+
197.1324	2	C15H17+
199.1115	5	C14H15O+
201.0905	1	C13H13O2+
201.1266	1	C14H17O+
203.1069	1	C13H15O2+
205.1221	1	C13H17O2+
207.1011	1	C12H15O3+
207.1169	2	C16H15+
209.0955	1	C15H13O+
209.1324	2	C16H17+
211.1114	3	C15H15O+
211.1483	1	C16H19+
213.1274	2	C15H17O+
215.1057	1	C14H15O2+
215.1428	1	C15H19O+
217.1221	2	C14H17O2+
219.1169	1	C17H15+
221.1322	3	C17H17+
223.1115	3	C16H15O+
223.1477	4	C17H19+
225.127	5	C16H17O+
225.1637	1	C17H21+
227.1062	1	C15H15O2+
227.1426	2	C16H19O+
229.122	2	C15H17O2+
233.1329	1	C18H17+
235.1478	3	C18H19+
237.1273	4	C17H17O+
237.1636	4	C18H21+
239.1067	1	C16H15O2+
239.1428	11	C17H19O+
239.1792	1	C18H23+
241.122	8	C16H17O2+
241.1585	4	C17H21O+
243.138	3	C16H19O2+
243.1741	1	C17H23O+
245.1328	1	C19H17+
247.1477	6	C19H19+
249.1272	4	C18H17O+
249.1635	3	C19H21+
251.1429	2	C18H19O+
251.1789	2	C19H23+
253.1584	3	C18H21O+
255.1376	3	C17H19O2+
255.1743	4	C18H23O+
257.1534	6	C17H21O2+
257.1902	1	C18H25O+
261.1485	2	C16H21O3+
261.1637	3	C20H21+
263.1428	4	C19H19O+
265.1585	36	C19H21O+
267.1378	6	C18H19O2+
267.1741	27	C19H23O+
269.1899	2	C19H25O+
271.1483	1	C21H19+
271.1683	1	C18H23O2+
277.1583	4	C20H21O+
279.1387	1	C19H19O2+
279.1741	17	C20H23O+
281.1533	3	C19H21O2+
283.169	41	C19H23O2+
285.1482	4	C18H21O3+
285.1846	24	C19H25O2+
289.1585	12	C21H21O+
295.169	21	C20H23O2+
297.1847	17	C20H25O2+
299.164	29	C19H23O3+
300.1717	1	C19H24O3+
301.1796	35	C19H25O3+
303.1586	2	C18H23O4+
307.169	43	C21H23O2+
313.1796	35	C20H25O3+
315.1954	6	C20H27O3+
317.1752	2	C19H25O4+
325.1796	60	C21H25O3+
331.1896	3	C20H27O4+
343.1901	140	C21H27O4+
344.1934	5	C16H28N2O6+
361.2006	999	C21H29O5+
