Mass spectrum: Colchicine; LC-ESI-ITFT; MS2; CE: 95%; R=15000; [M+H]+
Name: Colchicine
Name: N-[(7S)-1,2,3,10-tetramethoxy-9-oxo-6,7-dihydro-5H-benzo[a]heptalen-7-yl]acetamide
Formula: C22H25NO6
Exact mass: 399.1682
SMILES: CC(=O)N[C@H]1CCC2=CC(=C(C(=C2C3=CC=C(C(=O)C=C13)OC)OC)OC)OC
InChI: InChI=1S/C22H25NO6/c1-12(24)23-16-8-6-13-10-19(27-3)21(28-4)22(29-5)20(13)14-7-9-18(26-2)17(25)11-15(14)16/h7,9-11,16H,6,8H2,1-5H3,(H,23,24)/t16-/m0/s1
Instrument: LTQ Orbitrap XL Thermo Scientific
Instrument type: LC-ESI-ITFT
Ms type: MS2
Ion mode: POSITIVE
Ionization: ESI
Fragmentation mode: HCD
Collision energy: 95% (nominal)
Resolution: 15000
Column name: Kinetex Evo C18 2.6 um 50 x 2.1 mm
Retention time: 9.276 min
Base peak: 400.1752
Precursor m/z: 400.1755
Precursor type: [M+H]+
m/z	relative intensity	assigned
91.0541	123	C7H7+
115.0541	94	C9H7+
119.0491	112	C8H7O+
131.0492	186	C9H7O+
133.0522	470	C8H7NO+
137.0598	247	C8H9O2+
139.0541	130	C11H7+
141.0702	199	C11H9+
148.0518	96	C9H8O2+
150.0551	215	C8H8NO2+
152.0623	520	C12H8+
153.07	442	C12H9+
161.0599	117	C10H9O2+
165.0701	979	C13H9+
166.078	274	C13H10+
167.0491	104	C12H7O+
167.0857	419	C13H11+
168.0574	119	C12H8O+
168.0807	86	C12H10N+
169.0649	515	C12H9O+
170.0724	119	C12H10O+
171.081	171	C12H11O+
176.0621	159	C14H8+
177.0552	97	C10H9O3+
177.07	287	C14H9+
178.0778	521	C14H10+
179.0857	385	C14H11+
180.0568	277	C13H8O+
181.0648	900	C13H9O+
182.0727	313	C13H10O+
183.0809	283	C13H11O+
184.052	251	C12H8O2+
184.0878	145	C13H12O+
185.0592	206	C12H9O2+
189.0704	222	C15H9+
190.0779	173	C15H10+
191.0858	218	C15H11+
192.0569	188	C14H8O+
193.0649	289	C14H9O+
194.0725	670	C14H10O+
194.0969	120	C14H12N+
195.0439	98	C13H7O2+
195.0807	833	C14H11O+
196.0514	121	C13H8O2+
196.076	128	C13H10NO+
196.0885	393	C14H12O+
197.0597	803	C13H9O2+
197.0841	300	C13H11NO+
197.0951	106	C14H13O+
198.0674	372	C13H10O2+
199.0755	330	C13H11O2+
205.0648	555	C15H9O+
206.0727	390	C15H10O+
207.0673	127	C14H9NO+
207.0808	577	C15H11O+
208.0522	261	C14H8O2+
208.0763	160	C14H10NO+
208.0887	298	C15H12O+
209.0598	815	C14H9O2+
209.0839	154	C14H11NO+
209.0958	188	C15H13O+
210.0675	233	C14H10O2+
210.0914	162	C14H12NO+
211.0754	610	C14H11O2+
211.0984	98	C14H13NO+
212.0471	223	C13H8O3+
212.0697	133	C13H10NO2+
212.0832	468	C14H12O2+
213.0548	174	C13H9O3+
213.0915	91	C14H13O2+
215.0704	86	C13H11O3+
219.0802	189	C16H11O+
220.0515	285	C15H8O2+
220.0751	144	C15H10NO+
221.0598	539	C15H9O2+
221.084	168	C15H11NO+
222.0672	387	C15H10O2+
222.0915	285	C15H12NO+
223.0754	709	C15H11O2+
224.0708	283	C14H10NO2+
224.0834	999	C15H12O2+
225.0546	612	C14H9O3+
225.0781	277	C14H11NO2+
225.0907	234	C15H13O2+
226.0623	243	C14H10O3+
226.086	119	C14H12NO2+
227.0704	615	C14H11O3+
228.0655	128	C13H10NO3+
228.1018	86	C14H14NO2+
229.0499	100	C13H9O4+
233.0599	147	C16H9O2+
234.0677	206	C16H10O2+
234.0912	134	C16H12NO+
235.0757	581	C16H11O2+
236.0473	161	C15H8O3+
236.0708	259	C15H10NO2+
236.0834	254	C16H12O2+
236.1073	102	C16H14NO+
237.0547	590	C15H9O3+
237.091	269	C16H13O2+
238.0627	126	C15H10O3+
238.0866	244	C15H12NO2+
239.0703	382	C15H11O3+
239.0942	106	C15H13NO2+
239.1067	287	C16H15O2+
240.065	112	C14H10NO3+
240.078	435	C15H12O3+
240.1012	110	C15H14NO2+
241.0864	291	C15H13O3+
242.0801	190	C14H12NO3+
249.0556	219	C16H9O3+
249.0785	115	C16H11NO2+
249.091	92	C17H13O2+
250.0633	248	C16H10O3+
250.0858	278	C16H12NO2+
251.0704	724	C16H11O3+
251.0939	125	C16H13NO2+
252.0656	147	C15H10NO3+
252.0782	470	C16H12O3+
252.1019	133	C16H14NO2+
253.0498	306	C15H9O4+
253.0732	194	C15H11NO3+
253.0869	149	C16H13O3+
255.065	280	C15H11O4+
256.0615	79	C14H10NO4+
256.0975	141	C15H14NO3+
264.1028	117	C17H14NO2+
265.0869	116	C17H13O3+
267.0649	179	C16H11O4+
267.1011	297	C17H15O3+
268.0723	207	C16H12O4+
268.0965	132	C16H14NO3+
278.0816	185	C17H12NO3+
292.0977	123	C18H14NO3+
