Mass spectrum: Conessine; LC-ESI-ITFT; MS2; CE: 105%; R=15000; [M+H]+
Name: Conessine
Formula: C24H40N2
Exact mass: 356.3191
SMILES: C[C@H]1[C@H]2CC[C@H]3[C@@H]4CC=C5C[C@H](CC[C@]5(C)[C@H]4CC[C@]23CN1C)N(C)C
InChI: InChI=1S/C24H40N2/c1-16-20-8-9-22-19-7-6-17-14-18(25(3)4)10-12-23(17,2)21(19)11-13-24(20,22)15-26(16)5/h6,16,18-22H,7-15H2,1-5H3/t16-,18-,19+,20+,21-,22-,23-,24-/m0/s1
Instrument: LTQ Orbitrap XL Thermo Scientific
Instrument type: LC-ESI-ITFT
Ms type: MS2
Ion mode: POSITIVE
Ionization: ESI
Fragmentation mode: HCD
Collision energy: 105 % (nominal)
Resolution: 15000
Column name: Kinetex Evo C18 2.6 um 50 x 2.1 mm
Retention time: 5.398 min
Base peak: 179.1666
Precursor m/z: 357.3264
Precursor type: [M+H]+
m/z	relative intensity	assigned
58.065	14	C3H8N+
67.0542	175	C5H7+
69.0698	15	C5H9+
70.065	19	C4H8N+
72.0806	36	C4H10N+
77.0385	72	C6H5+
79.0542	246	C6H7+
81.0698	287	C6H9+
84.0807	999	C5H10N+
91.0541	455	C7H7+
93.0698	245	C7H9+
95.0854	102	C7H11+
103.0544	14	C8H7+
105.0698	490	C8H9+
107.0855	95	C8H11+
109.1012	50	C8H13+
115.0542	30	C9H7+
116.0622	22	C9H8+
117.0698	168	C9H9+
118.0777	12	C9H10+
119.0855	184	C9H11+
121.1011	16	C9H13+
128.062	28	C10H8+
129.0697	117	C10H9+
130.0775	49	C10H10+
131.0854	151	C10H11+
133.1011	63	C10H13+
135.1162	13	C10H15+
142.0774	39	C11H10+
143.0855	62	C11H11+
144.093	50	C11H12+
145.101	109	C11H13+
147.1167	45	C11H15+
155.0851	17	C12H11+
157.101	46	C12H13+
159.1167	65	C12H15+
169.1014	18	C13H13+
171.1163	19	C13H15+
