Mass spectrum: Senkirkine; LC-ESI-ITFT; MS2; CE: 50%; R=15000; [M+H]+
Name: Senkirkine
Name: (1R,4Z,6R,7R,11Z)-4-ethylidene-7-hydroxy-6,7,14-trimethyl-2,9-dioxa-14-azabicyclo[9.5.1]heptadec-11-ene-3,8,17-trione
Formula: C19H27NO6
Exact mass: 365.1838
SMILES: C/C=C\1/C[C@H]([C@@](C(=O)OC/C/2=C/CN(CC[C@H](C2=O)OC1=O)C)(C)O)C
InChI: InChI=1S/C19H27NO6/c1-5-13-10-12(2)19(3,24)18(23)25-11-14-6-8-20(4)9-7-15(16(14)21)26-17(13)22/h5-6,12,15,24H,7-11H2,1-4H3/b13-5-,14-6-/t12-,15-,19-/m1/s1
Instrument: LTQ Orbitrap XL Thermo Scientific
Instrument type: LC-ESI-ITFT
Ms type: MS2
Ion mode: POSITIVE
Ionization: ESI
Fragmentation mode: HCD
Collision energy: 50% (nominal)
Resolution: 15000
Column name: Kinetex Evo C18 2.6 um 50 x 2.1 mm
Retention time: 6.344 min
Base peak: 366.1909
Precursor m/z: 366.1911
Precursor type: [M+H]+
m/z	relative intensity	assigned
53.0386	1	C4H5+
55.0541	10	C4H7+
59.0489	3	C3H7O+
67.0542	6	C5H7+
69.0336	2	C4H5O+
70.0651	70	C4H8N+
79.0543	16	C6H7+
81.0336	3	C5H5O+
81.0699	20	C6H9+
83.0492	22	C5H7O+
91.0543	4	C7H7+
93.07	4	C7H9+
94.0652	21	C6H8N+
95.0491	2	C6H7O+
96.0808	12	C6H10N+
97.0648	9	C6H9O+
98.0601	7	C5H8NO+
99.044	5	C5H7O2+
101.0598	36	C5H9O2+
105.0699	1	C8H9+
107.0492	136	C7H7O+
107.0856	75	C8H11+
108.0807	5	C7H10N+
109.0648	14	C7H9O+
109.1012	29	C8H13+
110.0601	6	C6H8NO+
111.0807	4	C7H11O+
112.0756	2	C6H10NO+
116.0707	22	C5H10NO2+
120.0809	11	C8H10N+
122.0601	223	C7H8NO+
122.0965	88	C8H12N+
123.0679	27	C7H9NO+
124.0758	59	C7H10NO+
125.0598	59	C7H9O2+
125.0839	4	C7H11NO+
125.0961	93	C8H13O+
126.0916	3	C7H12NO+
128.0703	2	C6H10NO2+
132.0808	3	C9H10N+
135.0805	84	C9H11O+
136.0758	1	C8H10NO+
137.0597	10	C8H9O2+
137.0836	10	C8H11NO+
137.0962	16	C9H13O+
138.0915	9	C8H12NO+
139.076	3	C8H11O2+
140.0707	23	C7H10NO2+
140.1071	17	C8H14NO+
150.0914	361	C9H12NO+
152.107	4	C9H14NO+
153.091	217	C9H13O2+
163.0753	6	C10H11O2+
166.0856	2	C9H12NO2+
168.102	999	C9H14NO2+
181.086	15	C10H13O3+
186.1127	8	C9H16NO3+
199.0958	1	C10H15O4+
220.1334	3	C13H18NO2+
250.1435	5	C14H20NO3+
268.1547	6	C14H22NO4+
304.1905	6	C18H26NO3+
318.1713	1	C18H24NO4+
320.1857	6	C18H26NO4+
338.1972	10	C18H28NO5+
348.1807	13	C19H26NO5+
366.1913	515	C19H28NO6+
