Mass spectrum: Atropine; LC-ESI-ITFT; MS2; CE: 65%; R=15000; [M+H]+
Name: Atropine
Formula: C17H23NO3
Exact mass: 289.1678
SMILES: CN1[C@@H]2CC[C@H]1C[C@H](C2)OC(=O)C(CO)c3ccccc3
InChI: InChI=1S/C17H23NO3/c1-18-13-7-8-14(18)10-15(9-13)21-17(20)16(11-19)12-5-3-2-4-6-12/h2-6,13-16,19H,7-11H2,1H3/t13-,14+,15+,16?
Instrument: LTQ Orbitrap XL Thermo Scientific
Instrument type: LC-ESI-ITFT
Ms type: MS2
Ion mode: POSITIVE
Ionization: ESI
Fragmentation mode: HCD
Collision energy: 65% (nominal)
Resolution: 15000
Column name: Kinetex Evo C18 2.6 um 50 x 2.1 mm
Retention time: 2.857 min
Base peak: 143.0015
Precursor m/z: 290.1751
Precursor type: [M+H]+
m/z	relative intensity	assigned
67.0542	37	C5H7+
68.0494	9	C4H6N+
70.065	11	C4H8N+
77.0386	20	C6H5+
79.0541	6	C6H7+
82.0651	29	C5H8N+
83.0729	13	C5H9N+
91.0542	106	C7H7+
93.0699	528	C7H9+
95.0729	5	C6H9N+
95.0856	37	C7H11+
96.0809	24	C6H10N+
98.0965	12	C6H12N+
103.0542	23	C8H7+
121.0648	61	C8H9O+
124.1121	999	C8H14N+
125.1198	15	C8H15N+
140.1071	10	C8H14NO+
142.1226	41	C8H16NO+
260.1647	3	C16H22NO2+
290.1751	84	C17H24NO3+
