Mass spectrum: (+)-Lupanine; LC-ESI-ITFT; MS2; CE: 85%; R=15000; [M+H]+
Name: (+)-Lupanine
Formula: C15H24N2O
Exact mass: 248.1889
SMILES: C1CCN2CC3CC(C2C1)CN4C3CCCC4=O
InChI: InChI=1S/C15H24N2O/c18-15-6-3-5-14-11-8-12(10-17(14)15)13-4-1-2-7-16(13)9-11/h11-14H,1-10H2
Instrument: LTQ Orbitrap XL Thermo Scientific
Instrument type: LC-ESI-ITFT
Ms type: MS2
Ion mode: POSITIVE
Ionization: ESI
Fragmentation mode: HCD
Collision energy: 85 % (nominal)
Resolution: 15000
Column name: Kinetex Evo C18 2.6 um 50 x 2.1 mm
Retention time: 0.482 min
Base peak: 249.1955
Precursor m/z: 249.1961
Precursor type: [M+H]+
m/z	relative intensity	assigned
55.054	5	C4H7+
67.0542	33	C5H7+
68.0493	5	C4H6N+
70.0651	187	C4H8N+
79.0541	16	C6H7+
80.0495	45	C5H6N+
81.07	15	C6H9+
82.0651	23	C5H8N+
84.0808	119	C5H10N+
85.0648	105	C5H9O+
86.0965	5	C5H12N+
91.0542	20	C7H7+
93.0699	17	C7H9+
94.0651	16	C6H8N+
95.0855	8	C7H11+
96.0808	68	C6H10N+
98.06	17	C5H8NO+
98.0964	162	C6H12N+
100.0758	11	C5H10NO+
105.0699	14	C8H9+
107.0856	11	C8H11+
108.0806	23	C7H10N+
109.0885	6	C7H11N+
110.0601	5	C6H8NO+
110.0963	19	C7H12N+
112.0756	113	C6H10NO+
114.0913	438	C6H12NO+
122.0964	31	C8H12N+
124.0758	4	C7H10NO+
124.112	25	C8H14N+
133.1011	8	C10H13+
134.0964	111	C9H12N+
135.1036	4	C9H13N+
136.112	771	C9H14N+
138.1277	14	C9H16N+
148.1121	44	C10H14N+
150.1277	246	C10H16N+
152.1071	18	C9H14NO+
152.1434	44	C10H18N+
162.0911	3	C10H12NO+
166.123	10	C10H16NO+
176.1431	7	C12H18N+
188.1428	4	C13H18N+
189.1391	5	C12H17N2+
204.1385	13	C13H18NO+
206.1545	7	C13H20NO+
218.1546	7	C14H20NO+
220.1701	6	C14H22NO+
231.1854	19	C15H23N2+
247.1804	91	C15H23N2O+
249.196	999	C15H25N2O+
