Mass spectrum: Lasiocarpine N-oxide; LC-ESI-ITFT; MS2; CE: 105%; R=15000; [M+H]+
Name: Lasiocarpine N-oxide
Name: [(7S,8R)-7-[(Z)-2-methylbut-2-enoyl]oxy-4-oxido-5,6,7,8-tetrahydro-3H-pyrrolizin-4-ium-1-yl]methyl (2R)-2,3-dihydroxy-2-[(1S)-1-methoxyethyl]-3-methylbutanoate
Formula: C21H33NO8
Exact mass: 427.2206
SMILES: C/C=C(/C)\C(=O)O[C@H]1CC[N+]2([C@@H]1C(=CC2)COC(=O)[C@@]([C@H](C)OC)(C(C)(C)O)O)[O-]
InChI: InChI=1S/C21H33NO8/c1-7-13(2)18(23)30-16-9-11-22(27)10-8-15(17(16)22)12-29-19(24)21(26,14(3)28-6)20(4,5)25/h7-8,14,16-17,25-26H,9-12H2,1-6H3/b13-7-/t14-,16-,17+,21-,22?/m0/s1
Instrument: LTQ Orbitrap XL Thermo Scientific
Instrument type: LC-ESI-ITFT
Ms type: MS2
Ion mode: POSITIVE
Ionization: ESI
Fragmentation mode: HCD
Collision energy: 105% (nominal)
Resolution: 15000
Column name: Kinetex Evo C18 2.6 um 50 x 2.1 mm
Retention time: 7.959 min
Base peak: 428.2273
Precursor m/z: 428.2279
Precursor type: [M+H]+
m/z	relative intensity	assigned
55.0541	94	C4H7+
59.0491	37	C3H7O+
65.0386	17	C5H5+
66.0464	36	C5H6+
67.0416	42	C4H5N+
67.0542	64	C5H7+
68.0495	66	C4H6N+
77.0387	26	C6H5+
78.034	25	C5H4N+
79.0543	95	C6H7+
80.0495	699	C5H6N+
81.0573	40	C5H7N+
81.07	53	C6H9+
82.0652	43	C5H8N+
83.0492	128	C5H7O+
84.0444	35	C4H6NO+
91.0543	168	C7H7+
92.0495	112	C6H6N+
93.0574	436	C6H7N+
93.0698	26	C7H9+
94.0652	930	C6H8N+
95.0492	14	C6H7O+
95.073	16	C6H9N+
96.0444	29	C5H6NO+
97.0647	14	C6H9O+
102.0547	18	C4H8NO2+
103.0543	33	C8H7+
106.0652	999	C7H8N+
107.0732	24	C7H9N+
108.0808	178	C7H10N+
110.0602	52	C6H8NO+
111.0679	189	C6H9NO+
117.0575	34	C8H7N+
118.0652	880	C8H8N+
119.073	311	C8H9N+
120.0808	489	C8H10N+
124.0755	24	C7H10NO+
136.0758	240	C8H10NO+
137.0834	24	C8H11NO+
138.0912	46	C8H12NO+
154.0865	25	C8H12NO2+
172.0967	48	C8H14NO3+
