Mass spectrum: Daidzein; LC-ESI-ITFT; MS2; CE: 85%; R=15000; [M+H]+
Name: Daidzein
Name: 7-hydroxy-3-(4-hydroxyphenyl)chromen-4-one
Formula: C15H10O4
Exact mass: 254.0579
SMILES: c1cc(ccc1c2coc3cc(ccc3c2=O)O)O
InChI: InChI=1S/C15H10O4/c16-10-3-1-9(2-4-10)13-8-19-14-7-11(17)5-6-12(14)15(13)18/h1-8,16-17H
Instrument: LTQ Orbitrap XL Thermo Scientific
Instrument type: LC-ESI-ITFT
Ms type: MS2
Ion mode: POSITIVE
Ionization: ESI
Fragmentation mode: HCD
Collision energy: 85% (nominal)
Resolution: 15000
Column name: Kinetex Evo C18 2.6 um 50 x 2.1 mm
Retention time: 9.213 min
Base peak: 116.9859
Precursor m/z: 255.0652
Precursor type: [M+H]+
m/z	relative intensity	assigned
65.0386	63	C5H5+
68.9971	30	C3HO2+
81.0335	65	C5H5O+
89.0384	29	C7H5+
91.0542	999	C7H7+
105.0335	45	C7H5O+
106.0415	50	C7H6O+
115.0544	47	C9H7+
119.0492	246	C8H7O+
121.0284	101	C7H5O2+
128.0621	260	C10H8+
129.0699	131	C10H9+
131.0491	101	C9H7O+
134.0362	51	C8H6O2+
137.0233	819	C7H5O3+
141.0699	27	C11H9+
143.0856	94	C11H11+
145.0287	49	C9H5O2+
147.0439	27	C9H7O2+
151.0541	33	C12H7+
152.0621	346	C12H8+
153.0699	530	C12H9+
157.0649	100	C11H9O+
169.0649	42	C12H9O+
171.0804	126	C12H11O+
181.0648	817	C13H9O+
182.0722	55	C13H10O+
184.0519	113	C12H8O2+
197.0596	121	C13H9O2+
198.0672	57	C13H10O2+
199.0753	514	C13H11O2+
226.0624	31	C14H10O3+
227.0701	183	C14H11O3+
237.0548	132	C15H9O3+
255.0651	89	C15H11O4+
