Mass spectrum: Lycopsamine N-oxide; LC-ESI-ITFT; MS2; CE: 75%; R=15000; [M+H]+
Name: Lycopsamine N-oxide
Name: [(7R,8R)-7-hydroxy-4-oxido-5,6,7,8-tetrahydro-3H-pyrrolizin-4-ium-1-yl]methyl (2S)-2-hydroxy-2-[(1S)-1-hydroxyethyl]-3-methylbutanoate
Formula: C15H25NO6
Exact mass: 315.1682
SMILES: C[C@@H]([C@@](C(C)C)(C(=O)OCC1=CC[N+]2([C@H]1[C@@H](CC2)O)[O-])O)O
InChI: InChI=1S/C15H25NO6/c1-9(2)15(20,10(3)17)14(19)22-8-11-4-6-16(21)7-5-12(18)13(11)16/h4,9-10,12-13,17-18,20H,5-8H2,1-3H3/t10-,12+,13+,15-,16?/m0/s1
Instrument: LTQ Orbitrap XL Thermo Scientific
Instrument type: LC-ESI-ITFT
Ms type: MS2
Ion mode: POSITIVE
Ionization: ESI
Fragmentation mode: HCD
Collision energy: 75% (nominal)
Resolution: 15000
Column name: Kinetex Evo C18 2.6 um 50 x 2.1 mm
Retention time: 1.287 min
Base peak: 143.0014
Precursor m/z: 316.1755
Precursor type: [M+H]+
m/z	relative intensity	assigned
67.0542	15	C5H7+
68.0494	36	C4H6N+
70.0649	7	C4H8N+
73.0647	30	C4H9O+
79.0544	12	C6H7+
80.0495	85	C5H6N+
81.0573	22	C5H7N+
81.0699	22	C6H9+
82.0413	57	C5H6O+
82.0651	50	C5H8N+
83.0492	69	C5H7O+
84.0808	7	C5H10N+
91.0544	10	C7H7+
93.0573	407	C6H7N+
94.0651	643	C6H8N+
95.0729	19	C6H9N+
96.0445	18	C5H6NO+
96.0808	20	C6H10N+
98.0601	45	C5H8NO+
102.055	38	C4H8NO2+
106.0652	55	C7H8N+
108.0808	71	C7H10N+
109.0648	14	C7H9O+
109.089	14	C7H11N+
110.06	35	C6H8NO+
111.0679	441	C6H9NO+
112.0757	55	C6H10NO+
118.0654	7	C8H8N+
120.0811	8	C8H10N+
124.0758	20	C7H10NO+
126.0914	18	C7H12NO+
128.0706	30	C6H10NO2+
136.0757	218	C8H10NO+
137.0835	90	C8H11NO+
138.0914	635	C8H12NO+
140.0706	18	C7H10NO2+
154.0864	68	C8H12NO2+
155.0941	137	C8H13NO2+
172.0969	999	C8H14NO3+
226.144	6	C12H20NO3+
316.175	10	C15H26NO6+
