Mass spectrum: (+)-Chelidonine; LC-ESI-ITFT; MS2; CE: 95%; R=15000; [M+H]+
Name: (+)-Chelidonine
Name: Chelidonine
Name: (1S,12S,13R)-24-methyl-5,7,18,20-tetraoxa-24-azahexacyclo[11.11.0.02,10.04,8.014,22.017,21]tetracosa-2,4(8),9,14(22),15,17(21)-hexaen-12-ol
Formula: C20H19NO5
Exact mass: 353.1263
SMILES: CN1Cc2c(ccc3c2OCO3)[C@@H]4[C@H]1c5cc6c(cc5C[C@@H]4O)OCO6
InChI: InChI=1S/C20H19NO5/c1-21-7-13-11(2-3-15-20(13)26-9-23-15)18-14(22)4-10-5-16-17(25-8-24-16)6-12(10)19(18)21/h2-3,5-6,14,18-19,22H,4,7-9H2,1H3/t14-,18-,19+/m0/s1
Instrument: LTQ Orbitrap XL Thermo Scientific
Instrument type: LC-ESI-ITFT
Ms type: MS2
Ion mode: POSITIVE
Ionization: ESI
Fragmentation mode: HCD
Collision energy: 95% (nominal)
Resolution: 15000
Column name: Kinetex Evo C18 2.6 um 50 x 2.1 mm
Retention time: 7.008 min
Base peak: 354.1337
Precursor m/z: 354.1336
Precursor type: [M+H]+
m/z	relative intensity	assigned
77.0387	13	C6H5+
79.0543	18	C6H7+
91.0545	5	C7H7+
103.0544	27	C8H7+
105.0336	8	C7H5O+
107.0492	2	C7H7O+
115.0543	8	C9H7+
117.0336	1	C8H5O+
118.0653	20	C8H8N+
119.0491	1	C8H7O+
130.0653	10	C9H8N+
131.0493	19	C9H7O+
135.0442	48	C8H7O2+
143.0494	4	C10H7O+
146.0605	5	C9H8NO+
147.0442	5	C9H7O2+
148.052	3	C9H8O2+
149.06	3	C9H9O2+
151.054	1	C12H7+
152.0621	2	C12H8+
153.0703	2	C12H9+
158.0602	9	C10H8NO+
159.0443	8	C10H7O2+
160.076	14	C10H10NO+
161.0599	3	C10H9O2+
163.0392	24	C9H7O3+
164.0615	2	C13H8+
165.0701	12	C13H9+
166.0776	2	C13H10+
172.0522	2	C11H8O2+
175.0391	1	C10H7O3+
175.063	3	C10H9NO2+
176.0622	6	C14H8+
176.0709	2	C10H10NO2+
177.0701	27	C14H9+
178.0779	56	C14H10+
179.0858	75	C14H11+
181.0651	1	C13H9O+
186.0553	3	C11H8NO2+
188.0624	9	C15H8+
188.0709	25	C11H10NO2+
189.0701	999	C15H9+
190.0781	42	C15H10+
191.0857	37	C15H11+
192.0568	4	C14H8O+
193.0647	1	C14H9O+
194.0722	1	C14H10O+
201.0703	6	C16H9+
202.0778	4	C16H10+
204.0574	2	C15H8O+
205.0649	29	C15H9O+
206.073	6	C15H10O+
207.0806	37	C15H11O+
209.0598	5	C14H9O2+
216.0573	1	C16H8O+
217.065	206	C16H9O+
218.0733	18	C16H10O+
219.0807	22	C16H11O+
220.0512	1	C15H8O2+
221.0601	3	C15H9O2+
222.0675	12	C15H10O2+
233.0602	1	C16H9O2+
234.0674	3	C16H10O2+
235.0754	17	C16H11O2+
237.0915	12	C16H13O2+
245.0601	7	C17H9O2+
246.0677	50	C17H10O2+
247.0756	122	C17H11O2+
275.0705	29	C18H11O3+
