Mass spectrum: Cortisone; LC-ESI-ITFT; MS2; CE: 120%; R=15000; [M+H]+
Name: Cortisone
Name: (8S,9S,10R,13S,14S,17R)-17-hydroxy-17-(2-hydroxyacetyl)-10,13-dimethyl-1,2,6,7,8,9,12,14,15,16-decahydrocyclopenta[a]phenanthrene-3,11-dione
Formula: C21H28O5
Exact mass: 360.1937
SMILES: C[C@]12CC(=O)[C@H]3[C@@H](CCC4=CC(=O)CC[C@]34C)[C@@H]1CC[C@]2(O)C(=O)CO
InChI: InChI=1S/C21H28O5/c1-19-7-5-13(23)9-12(19)3-4-14-15-6-8-21(26,17(25)11-22)20(15,2)10-16(24)18(14)19/h9,14-15,18,22,26H,3-8,10-11H2,1-2H3/t14-,15-,18+,19-,20-,21-/m0/s1
Instrument: LTQ Orbitrap XL Thermo Scientific
Instrument type: LC-ESI-ITFT
Ms type: MS2
Ion mode: POSITIVE
Ionization: ESI
Fragmentation mode: HCD
Collision energy: 120 % (nominal)
Resolution: 15000
Column name: Kinetex Evo C18 2.6 um 50 x 2.1 mm
Retention time: 9.587 min
Base peak: 361.2013
Precursor m/z: 361.201
Precursor type: [M+H]+
m/z	relative intensity	assigned
65.0383	55	C5H5+
67.054	154	C5H7+
69.0332	28	C4H5O+
69.0696	54	C5H9+
77.0384	233	C6H5+
79.0541	485	C6H7+
81.0697	192	C6H9+
83.049	184	C5H7O+
91.0541	999	C7H7+
92.062	12	C7H8+
93.0698	277	C7H9+
94.0412	13	C6H6O+
95.0491	83	C6H7O+
95.0855	46	C7H11+
97.0647	216	C6H9O+
103.0542	131	C8H7+
104.062	58	C8H8+
105.0446	348	C6H5N2+
105.0698	599	C8H9+
106.0774	11	C8H10+
107.0491	123	C7H7O+
107.0854	92	C8H11+
109.0647	64	C7H9O+
115.0541	258	C9H7+
116.0619	74	C9H8+
117.0697	192	C9H9+
119.0488	23	C8H7O+
119.0603	31	C7H7N2+
119.0854	141	C9H11+
120.057	10	C8H8O+
121.0647	240	C8H9O+
123.0806	18	C8H11O+
128.0618	255	C10H8+
129.0697	238	C10H9+
130.0775	125	C10H10+
131.0489	29	C9H7O+
131.0853	89	C10H11+
132.057	22	C9H8O+
133.0646	160	C9H9O+
133.101	20	C10H13+
135.0802	22	C9H11O+
141.0696	151	C11H9+
142.0775	95	C11H10+
143.0853	79	C11H11+
144.057	28	C10H8O+
145.0646	42	C10H9O+
145.101	40	C11H13+
146.0725	17	C10H10O+
147.0802	225	C10H11O+
148.088	222	C10H12O+
152.0618	51	C12H8+
153.0697	94	C12H9+
154.0773	37	C12H10+
155.0601	65	C10H7N2+
155.0853	83	C12H11+
156.0933	27	C12H12+
157.0649	13	C11H9O+
157.1005	16	C12H13+
158.0731	13	C11H10O+
159.0802	32	C11H11O+
161.0957	23	C11H13O+
163.1114	20	C11H15O+
165.0695	119	C13H9+
166.0775	48	C13H10+
167.0854	78	C13H11+
168.0929	19	C13H12+
169.1008	33	C13H13+
171.0804	16	C12H11O+
171.1166	11	C13H15+
173.0958	12	C12H13O+
174.104	22	C12H14O+
178.0775	58	C14H10+
179.0851	63	C14H11+
180.0934	15	C14H12+
181.101	30	C14H13+
183.0803	11	C13H11O+
185.097	9	C13H13O+
190.0778	17	C15H10+
191.0853	34	C15H11+
192.093	20	C15H12+
193.1007	25	C15H13+
197.0953	12	C14H13O+
202.0775	10	C16H10+
209.0964	12	C15H13O+
211.1121	11	C15H15O+
225.1278	19	C16H17O+
