Mass spectrum: Intermedine; LC-ESI-ITFT; MS2; CE: 55%; R=15000; [M+H]+
Name: Intermedine
Name: [(7R,8R)-7-hydroxy-5,6,7,8-tetrahydro-3H-pyrrolizin-1-yl]methyl (2S)-2-hydroxy-2-[(1R)-1-hydroxyethyl]-3-methylbutanoate
Formula: C15H25NO5
Exact mass: 299.1733
SMILES: C[C@H]([C@@](C(C)C)(C(=O)OCC1=CCN2[C@H]1[C@@H](CC2)O)O)O
InChI: InChI=1S/C15H25NO5/c1-9(2)15(20,10(3)17)14(19)21-8-11-4-6-16-7-5-12(18)13(11)16/h4,9-10,12-13,17-18,20H,5-8H2,1-3H3/t10-,12-,13-,15+/m1/s1
Instrument: LTQ Orbitrap XL Thermo Scientific
Instrument type: LC-ESI-ITFT
Ms type: MS2
Ion mode: POSITIVE
Ionization: ESI
Fragmentation mode: HCD
Collision energy: 55% (nominal)
Resolution: 15000
Column name: Kinetex Evo C18 2.6 um 50 x 2.1 mm
Retention time: 1.042 min
Base peak: 143.0014
Precursor m/z: 300.1805
Precursor type: [M+H]+
m/z	relative intensity	assigned
82.065	45	C5H8N+
94.0651	999	C6H8N+
95.0731	27	C6H9N+
96.0807	26	C6H10N+
120.0807	179	C8H10N+
138.0913	528	C8H12NO+
139.0991	165	C8H13NO+
156.1018	721	C8H14NO2+
210.1479	12	C12H20NO2+
300.1805	140	C15H26NO5+
