Mass spectrum: (-)-Strychnine; LC-ESI-ITFT; MS2; CE: 75%; R=15000; [M+H]+
Name: (-)-Strychnine
Name: Strychnine
Name: (4aR,5aS,8aR,13aS,15aS,15bR)-4a,5,5a,7,8,13a,15,15a,15b,16-decahydro-2H-4,6-methanoindolo[3,2,1-ij]oxepino[2,3,4-de]pyrrolo[2,3-h]quinolin-14-one
Formula: C21H22N2O2
Exact mass: 334.1681
SMILES: c1ccc2c(c1)[C@]34CCN5[C@H]3C[C@@H]6[C@@H]7[C@@H]4N2C(=O)C[C@@H]7OCC=C6C5
InChI: InChI=1S/C21H22N2O2/c24-18-10-16-19-13-9-17-21(6-7-22(17)11-12(13)5-8-25-16)14-3-1-2-4-15(14)23(18)20(19)21/h1-5,13,16-17,19-20H,6-11H2/t13-,16-,17-,19-,20-,21+/m0/s1
Instrument: LTQ Orbitrap XL Thermo Scientific
Instrument type: LC-ESI-ITFT
Ms type: MS2
Ion mode: POSITIVE
Ionization: ESI
Fragmentation mode: HCD
Collision energy: 75% (nominal)
Resolution: 15000
Column name: Kinetex Evo C18 2.6 um 50 x 2.1 mm
Retention time: 3.150 min
Base peak: 143.0015
Precursor m/z: 335.1754
Precursor type: [M+H]+
m/z	relative intensity	assigned
79.0542	22	C6H7+
80.0494	14	C5H6N+
81.0699	38	C6H9+
91.0542	31	C7H7+
93.0699	27	C7H9+
94.0653	18	C6H8N+
95.0491	14	C6H7O+
96.0806	21	C6H10N+
105.07	14	C8H9+
106.0651	31	C7H8N+
108.0808	69	C7H10N+
118.0652	17	C8H8N+
121.0648	30	C8H9O+
122.06	27	C7H8NO+
124.0757	34	C7H10NO+
129.0699	22	C10H9+
130.0651	32	C9H8N+
144.0808	151	C10H10N+
156.0808	319	C11H10N+
167.0722	16	C12H9N+
168.0807	63	C12H10N+
169.0763	19	C11H9N2+
170.0599	15	C11H8NO+
170.0963	29	C12H12N+
171.0917	36	C11H11N2+
180.0807	29	C13H10N+
182.0966	57	C13H12N+
183.0672	12	C12H9NO+
184.0757	999	C12H10NO+
194.0609	27	C13H8NO+
194.0964	102	C14H12N+
196.0757	62	C13H10NO+
198.0914	80	C13H12NO+
204.0804	17	C15H10N+
206.0964	29	C15H12N+
210.0912	32	C14H12NO+
212.0711	11	C13H10NO2+
217.0881	11	C16H11N+
218.0964	30	C16H12N+
220.0757	87	C15H10NO+
220.1117	58	C16H14N+
222.0914	179	C15H12NO+
222.1281	25	C16H16N+
224.1061	18	C15H14NO+
226.0868	10	C14H12NO2+
232.1131	18	C17H14N+
234.0915	85	C16H12NO+
234.1275	19	C17H16N+
236.1071	23	C16H14NO+
236.1435	12	C17H18N+
244.1122	27	C18H14N+
246.0915	28	C17H12NO+
246.1284	23	C18H16N+
248.1068	38	C17H14NO+
262.1227	84	C18H16NO+
264.102	149	C17H14NO2+
266.1168	30	C17H16NO2+
272.1076	40	C19H14NO+
274.1235	37	C19H16NO+
280.1327	13	C18H18NO2+
290.1175	27	C19H16NO2+
306.1501	18	C20H20NO2+
307.1443	46	C19H19N2O2+
335.1756	767	C21H23N2O2+
