Mass spectrum: Sophocarpine; LC-ESI-ITFT; MS2; CE: 75%; R=15000; [M+H]+
Name: Sophocarpine
Name: (1R,2R,9S,17S)-7,13-diazatetracyclo[7.7.1.02,7.013,17]heptadec-4-en-6-one
Formula: C15H22N2O
Exact mass: 246.1732
SMILES: C1C[C@H]2CN3[C@H](CC=CC3=O)[C@@H]4[C@H]2N(C1)CCC4
InChI: InChI=1S/C15H22N2O/c18-14-7-1-6-13-12-5-3-9-16-8-2-4-11(15(12)16)10-17(13)14/h1,7,11-13,15H,2-6,8-10H2/t11-,12+,13+,15-/m0/s1
Instrument: LTQ Orbitrap XL Thermo Scientific
Instrument type: LC-ESI-ITFT
Ms type: MS2
Ion mode: POSITIVE
Ionization: ESI
Fragmentation mode: HCD
Collision energy: 75% (nominal)
Resolution: 15000
Column name: Kinetex Evo C18 2.6 um 50 x 2.1 mm
Retention time: 0.877 min
Base peak: 247.1804
Precursor m/z: 247.1805
Precursor type: [M+H]+
m/z	relative intensity	assigned
70.0651	8	C4H8N+
81.0336	8	C5H5O+
82.0652	14	C5H8N+
84.0809	13	C5H10N+
96.0808	381	C6H10N+
98.0965	48	C6H12N+
108.0808	51	C7H10N+
110.0601	33	C6H8NO+
110.0965	17	C7H12N+
112.0759	9	C6H10NO+
112.1119	8	C7H14N+
122.0602	20	C7H8NO+
122.0965	29	C8H12N+
124.1121	9	C8H14N+
134.0604	6	C8H8NO+
134.0966	13	C9H12N+
136.1121	719	C9H14N+
137.1204	5	C9H15N+
138.0914	4	C8H12NO+
138.1278	59	C9H16N+
146.0604	7	C9H8NO+
148.0758	17	C9H10NO+
148.1122	58	C10H14N+
149.0839	7	C9H11NO+
149.1199	14	C10H15N+
150.0914	21	C9H12NO+
150.1278	219	C10H16N+
152.1435	28	C10H18N+
160.0761	7	C10H10NO+
162.0916	20	C10H12NO+
162.128	10	C11H16N+
164.107	16	C10H14NO+
174.0914	12	C11H12NO+
174.1286	5	C12H16N+
176.107	14	C11H14NO+
179.1544	784	C11H19N2+
186.0916	5	C12H12NO+
188.1065	12	C12H14NO+
191.1188	6	C11H15N2O+
202.1228	11	C13H16NO+
216.1377	10	C14H18NO+
218.1545	6	C14H20NO+
227.1544	17	C15H19N2+
228.1384	17	C15H18NO+
229.1699	24	C15H21N2+
230.1539	14	C15H20NO+
245.165	434	C15H21N2O+
247.1805	999	C15H23N2O+
