Mass spectrum: Bergapten/Heraclin; LC-ESI-ITFT; MS2; CE: 90%; R=15000; [M+H]+
Name: Bergapten/Heraclin
Formula: C12H8O4
Exact mass: 216.0423
SMILES: COC1=C2C=COC2=CC2=C1C=CC(=O)O2
InChI: InChI=1S/C12H8O4/c1-14-12-7-2-3-11(13)16-10(7)6-9-8(12)4-5-15-9/h2-6H,1H3
Instrument: LTQ Orbitrap XL Thermo Scientific
Instrument type: LC-ESI-ITFT
Ms type: MS2
Ion mode: POSITIVE
Ionization: ESI
Fragmentation mode: CID
Collision energy: 90 % (nominal)
Resolution: 15000
Column name: Kinetex Evo C18 2.6 um 50 x 2.1 mm
Retention time: 9.930 min
Base peak: 416.3518
Precursor m/z: 217.0495
Precursor type: [M+H]+
m/z	relative intensity	assigned
115.0542	17	C9H7+
117.0699	20	C9H9+
133.0649	3	C9H9O+
143.0491	6	C10H7O+
145.0647	15	C10H9O+
158.036	5	C10H6O2+
161.0597	21	C10H9O2+
173.0597	151	C11H9O2+
174.0312	2	C10H6O3+
189.0547	19	C11H9O3+
202.026	999	C11H6O4+
