Mass spectrum: Senecionine N-oxide; LC-ESI-ITFT; MS2; CE: 80%; R=15000; [M+H]+
Name: Senecionine N-oxide
Name: (1R,4Z,6R,7R,17R)-4-ethylidene-7-hydroxy-6,7-dimethyl-14-oxido-2,9-dioxa-14-azoniatricyclo[9.5.1.014,17]heptadec-11-ene-3,8-dione
Formula: C18H25NO6
Exact mass: 351.1682
SMILES: C/C=C\1/C[C@H]([C@@](C(=O)OCC2=CC[N+]3([C@H]2[C@@H](CC3)OC1=O)[O-])(C)O)C
InChI: InChI=1S/C18H25NO6/c1-4-12-9-11(2)18(3,22)17(21)24-10-13-5-7-19(23)8-6-14(15(13)19)25-16(12)20/h4-5,11,14-15,22H,6-10H2,1-3H3/b12-4-/t11-,14-,15-,18-,19?/m1/s1
Instrument: LTQ Orbitrap XL Thermo Scientific
Instrument type: LC-ESI-ITFT
Ms type: MS2
Ion mode: POSITIVE
Ionization: ESI
Fragmentation mode: HCD
Collision energy: 80% (nominal)
Resolution: 15000
Column name: Kinetex Evo C18 2.6 um 50 x 2.1 mm
Retention time: 5.378 min
Base peak: 352.1755
Precursor m/z: 352.1755
Precursor type: [M+H]+
m/z	relative intensity	assigned
53.0384	19	C4H5+
67.0415	10	C4H5N+
67.0541	33	C5H7+
68.0495	13	C4H6N+
77.0385	9	C6H5+
79.0542	64	C6H7+
80.0495	134	C5H6N+
81.0335	18	C5H5O+
81.0573	21	C5H7N+
81.0699	118	C6H9+
82.0652	25	C5H8N+
83.0492	25	C5H7O+
84.0444	20	C4H6NO+
91.0543	58	C7H7+
92.0495	19	C6H6N+
93.0573	498	C6H7N+
94.0651	999	C6H8N+
95.0729	149	C6H9N+
96.0442	11	C5H6NO+
96.0808	29	C6H10N+
98.06	32	C5H8NO+
106.0651	120	C7H8N+
107.0728	11	C7H9N+
107.0855	63	C8H11+
108.0808	201	C7H10N+
109.0649	19	C7H9O+
109.0886	25	C7H11N+
109.1014	14	C8H13+
110.0601	20	C6H8NO+
111.0678	20	C6H9NO+
112.0755	18	C6H10NO+
117.0573	30	C8H7N+
118.0651	477	C8H8N+
119.073	253	C8H9N+
120.0808	667	C8H10N+
121.0888	20	C8H11N+
122.0964	75	C8H12N+
124.0757	23	C7H10NO+
125.0961	27	C8H13O+
126.091	9	C7H12NO+
134.0963	18	C9H12N+
135.0802	8	C9H11O+
136.0757	791	C8H10NO+
137.0837	15	C8H11NO+
138.0914	129	C8H12NO+
139.0753	57	C8H11O2+
146.096	7	C10H12N+
148.112	22	C10H14N+
153.0912	11	C9H13O2+
154.0865	22	C8H12NO2+
178.1222	21	C11H16NO+
