Mass spectrum: (+)-Sparteine; LC-ESI-ITFT; MS2; CE: 70%; R=15000; [M+H]+
Name: (+)-Sparteine
Formula: C15H26N2
Exact mass: 234.2096
SMILES: C1CCN2C[C@H]3C[C@@H]([C@H]2C1)CN4[C@H]3CCCC4
InChI: InChI=1S/C15H26N2/c1-3-7-16-11-13-9-12(14(16)5-1)10-17-8-4-2-6-15(13)17/h12-15H,1-11H2/t12-,13-,14-,15+/m1/s1
Instrument: LTQ Orbitrap XL Thermo Scientific
Instrument type: LC-ESI-ITFT
Ms type: MS2
Ion mode: POSITIVE
Ionization: ESI
Fragmentation mode: HCD
Collision energy: 70 % (nominal)
Resolution: 15000
Column name: Kinetex Evo C18 2.6 um 50 x 2.1 mm
Retention time: 0.556 min
Base peak: 235.2166
Precursor m/z: 235.2169
Precursor type: [M+H]+
m/z	relative intensity	assigned
70.0651	3	C4H8N+
84.0808	4	C5H10N+
96.0807	2	C6H10N+
98.0964	384	C6H12N+
134.0963	10	C9H12N+
150.1279	4	C10H16N+
152.1433	5	C10H18N+
233.2012	158	C15H25N2+
235.2166	999	C15H27N2+
