Mass spectrum: Protopin; LC-ESI-ITFT; MS2; CE: 40%; R=15000; [M+H]+
Name: Protopin
Name: Protopine
Name: 15-methyl-7,9,19,21-tetraoxa-15-azapentacyclo[15.7.0.04,12.06,10.018,22]tetracosa-1(17),4,6(10),11,18(22),23-hexaen-3-one
Formula: C20H19NO5
Exact mass: 353.1263
SMILES: CN1CCC2=CC3=C(C=C2C(=O)CC4=C(C1)C5=C(C=C4)OCO5)OCO3
InChI: InChI=1S/C20H19NO5/c1-21-5-4-13-7-18-19(25-10-24-18)8-14(13)16(22)6-12-2-3-17-20(15(12)9-21)26-11-23-17/h2-3,7-8H,4-6,9-11H2,1H3
Instrument: LTQ Orbitrap XL Thermo Scientific
Instrument type: LC-ESI-ITFT
Ms type: MS2
Ion mode: POSITIVE
Ionization: ESI
Fragmentation mode: HCD
Collision energy: 40% (nominal)
Resolution: 15000
Column name: Kinetex Evo C18 2.6 um 50 x 2.1 mm
Retention time: 6.747 min
Base peak: 354.1337
Precursor m/z: 354.1336
Precursor type: [M+H]+
m/z	relative intensity	assigned
91.0543	2	C7H7+
107.0491	2	C7H7O+
119.0488	3	C8H7O+
135.0441	21	C8H7O2+
144.0807	8	C10H10N+
147.0443	1	C9H7O2+
149.0597	278	C9H9O2+
161.0596	3	C10H9O2+
163.0389	4	C9H7O3+
165.0546	117	C9H9O3+
175.039	28	C10H7O3+
176.0708	6	C10H10NO2+
177.0546	6	C10H9O3+
177.0785	24	C10H11NO2+
178.0863	20	C10H12NO2+
187.0389	4	C11H7O3+
188.0706	415	C11H10NO2+
189.0784	443	C11H11NO2+
190.0865	20	C11H12NO2+
192.1018	9	C11H14NO2+
195.0804	9	C14H11O+
202.087	1	C12H12NO2+
204.0655	12	C11H10NO3+
206.0811	117	C11H12NO3+
212.1277	4	C11H18NO3+
223.0754	8	C15H11O2+
225.0911	15	C15H13O2+
235.0753	10	C16H11O2+
237.055	2	C15H9O3+
237.0905	3	C16H13O2+
247.0753	29	C17H11O2+
249.0919	2	C17H13O2+
251.0699	2	C16H11O3+
253.0861	16	C16H13O3+
263.0707	3	C17H11O3+
265.0859	31	C17H13O3+
267.0652	23	C16H11O4+
275.0703	74	C18H11O3+
277.0855	2	C18H13O3+
278.1173	5	C18H16NO2+
281.0812	2	C17H13O4+
283.0963	12	C17H15O4+
293.0808	27	C18H13O4+
295.0964	20	C18H15O4+
305.0807	31	C19H13O4+
306.1121	9	C19H16NO3+
307.0965	5	C19H15O4+
311.0914	8	C18H15O5+
321.1003	8	C19H15NO4+
323.0915	41	C19H15O5+
336.123	94	C20H18NO4+
354.1336	999	C20H20NO5+
