Mass spectrum: Senkirkine; LC-ESI-ITFT; MS2; CE: 70%; R=15000; [M+H]+
Name: Senkirkine
Name: (1R,4Z,6R,7R,11Z)-4-ethylidene-7-hydroxy-6,7,14-trimethyl-2,9-dioxa-14-azabicyclo[9.5.1]heptadec-11-ene-3,8,17-trione
Formula: C19H27NO6
Exact mass: 365.1838
SMILES: C/C=C\1/C[C@H]([C@@](C(=O)OC/C/2=C/CN(CC[C@H](C2=O)OC1=O)C)(C)O)C
InChI: InChI=1S/C19H27NO6/c1-5-13-10-12(2)19(3,24)18(23)25-11-14-6-8-20(4)9-7-15(16(14)21)26-17(13)22/h5-6,12,15,24H,7-11H2,1-4H3/b13-5-,14-6-/t12-,15-,19-/m1/s1
Instrument: LTQ Orbitrap XL Thermo Scientific
Instrument type: LC-ESI-ITFT
Ms type: MS2
Ion mode: POSITIVE
Ionization: ESI
Fragmentation mode: HCD
Collision energy: 70% (nominal)
Resolution: 15000
Column name: Kinetex Evo C18 2.6 um 50 x 2.1 mm
Retention time: 6.388 min
Base peak: 366.1908
Precursor m/z: 366.1911
Precursor type: [M+H]+
m/z	relative intensity	assigned
53.0384	7	C4H5+
55.0541	9	C4H7+
67.0541	19	C5H7+
68.0494	2	C4H6N+
69.0335	8	C4H5O+
69.0699	4	C5H9+
70.065	331	C4H8N+
77.0385	14	C6H5+
79.0542	95	C6H7+
80.0494	2	C5H6N+
81.0333	6	C5H5O+
81.0573	2	C5H7N+
81.0698	46	C6H9+
82.065	10	C5H8N+
83.0491	40	C5H7O+
91.0542	26	C7H7+
93.0698	10	C7H9+
94.0651	115	C6H8N+
95.0491	39	C6H7O+
95.073	2	C6H9N+
95.0855	5	C7H11+
96.0807	47	C6H10N+
97.0647	30	C6H9O+
98.06	26	C5H8NO+
99.044	6	C5H7O2+
101.0596	39	C5H9O2+
105.0696	10	C8H9+
107.0491	218	C7H7O+
107.0729	32	C7H9N+
107.0855	158	C8H11+
108.057	5	C7H8O+
108.0807	14	C7H10N+
109.0648	27	C7H9O+
109.1011	35	C8H13+
110.06	52	C6H8NO+
111.0442	6	C6H7O2+
111.0806	6	C7H11O+
112.0756	9	C6H10NO+
116.0705	18	C5H10NO2+
117.0696	5	C9H9+
119.0488	2	C8H7O+
120.0807	26	C8H10N+
121.0885	6	C8H11N+
122.06	403	C7H8NO+
122.0963	92	C8H12N+
123.0678	30	C7H9NO+
124.0756	46	C7H10NO+
125.0596	76	C7H9O2+
125.0834	6	C7H11NO+
125.096	101	C8H13O+
126.0915	7	C7H12NO+
132.0806	7	C9H10N+
135.0803	75	C9H11O+
136.0759	2	C8H10NO+
137.0595	6	C8H9O2+
137.0834	22	C8H11NO+
137.0959	9	C9H13O+
138.0914	9	C8H12NO+
140.0705	180	C7H10NO2+
140.1069	13	C8H14NO+
150.0913	143	C9H12NO+
153.0909	48	C9H13O2+
168.1018	999	C9H14NO2+
250.1426	3	C14H20NO3+
366.191	10	C19H28NO6+
