Mass spectrum: Gelsemine; LC-ESI-ITFT; MS2; CE: 95%; R=15000; [M+H]+
Name: Gelsemine
Name: (2`S,3S,5`S,6`S,11`S)-2`-ethenyl-4`-methylspiro[1H-indole-3,7`-9-oxa-4-azatetracyclo[6.3.1.02,6.05,11]dodecane]-2-one
Formula: C20H22N2O2
Exact mass: 322.1681
SMILES: CN1C[C@@]2([C@@H]3[C@H]1[C@@H]4C2CC([C@@]35c6ccccc6NC5=O)OC4)C=C
InChI: InChI=1S/C20H22N2O2/c1-3-19-10-22(2)16-11-9-24-15(8-13(11)19)20(17(16)19)12-6-4-5-7-14(12)21-18(20)23/h3-7,11,13,15-17H,1,8-10H2,2H3,(H,21,23)/t11-,13?,15?,16+,17-,19-,20-/m0/s1
Instrument: LTQ Orbitrap XL Thermo Scientific
Instrument type: LC-ESI-ITFT
Ms type: MS2
Ion mode: POSITIVE
Ionization: ESI
Fragmentation mode: HCD
Collision energy: 95% (nominal)
Resolution: 15000
Column name: Kinetex Evo C18 2.6 um 50 x 2.1 mm
Retention time: 1.779 min
Base peak: 143.0015
Precursor m/z: 323.1754
Precursor type: [M+H]+
m/z	relative intensity	assigned
70.0651	999	C4H8N+
79.0541	14	C6H7+
86.0602	21	C4H8NO+
91.0542	138	C7H7+
94.0654	15	C6H8N+
103.054	10	C8H7+
104.0495	24	C7H6N+
105.0699	32	C8H9+
106.0648	12	C7H8N+
108.0807	17	C7H10N+
115.0543	88	C9H7+
116.0621	29	C9H8+
117.0698	82	C9H9+
118.065	17	C8H8N+
120.0807	26	C8H10N+
128.0495	37	C9H6N+
128.0622	11	C10H8+
129.07	22	C10H9+
130.065	79	C9H8N+
131.0854	43	C10H11+
132.0444	125	C8H6NO+
132.0808	9	C9H10N+
134.0964	25	C9H12N+
144.0803	10	C10H10N+
146.0601	64	C9H8NO+
146.0964	33	C10H12N+
148.1115	16	C10H14N+
154.0654	12	C11H8N+
158.0599	35	C10H8NO+
165.0701	27	C13H9+
166.0651	19	C12H8N+
167.0729	77	C12H9N+
168.0806	17	C12H10N+
177.0572	45	C13H7N+
178.065	50	C13H8N+
180.0807	50	C13H10N+
183.0677	16	C12H9NO+
184.0749	8	C12H10NO+
190.0649	26	C14H8N+
191.0863	19	C15H11+
192.0806	32	C14H10N+
193.0886	14	C14H11N+
195.0678	299	C13H9NO+
196.0756	97	C13H10NO+
203.0729	59	C15H9N+
204.08	21	C15H10N+
208.0755	66	C14H10NO+
210.0912	63	C14H12NO+
216.0809	20	C16H10N+
217.0883	59	C16H11N+
218.0961	47	C16H12N+
220.0761	17	C15H10NO+
234.0919	14	C16H12NO+
236.1066	46	C16H14NO+
