Mass spectrum: Ajmalicine; LC-ESI-ITFT; MS2; CE: 105%; R=15000; [M+H]+
Name: Ajmalicine
Name: methyl (1S,15R,16S,20S)-16-methyl-17-oxa-3,13-diazapentacyclo[11.8.0.02,10.04,9.015,20]henicosa-2(10),4,6,8,18-pentaene-19-carboxylate
Formula: C21H24N2O3
Exact mass: 352.1787
SMILES: C[C@H]1[C@H]2CN3CCc4c5ccccc5[nH]c4[C@@H]3C[C@@H]2C(=CO1)C(=O)OC
InChI: InChI=1S/C21H24N2O3/c1-12-16-10-23-8-7-14-13-5-3-4-6-18(13)22-20(14)19(23)9-15(16)17(11-26-12)21(24)25-2/h3-6,11-12,15-16,19,22H,7-10H2,1-2H3/t12-,15-,16+,19-/m0/s1
Instrument: LTQ Orbitrap XL Thermo Scientific
Instrument type: LC-ESI-ITFT
Ms type: MS2
Ion mode: POSITIVE
Ionization: ESI
Fragmentation mode: HCD
Collision energy: 105% (nominal)
Resolution: 15000
Column name: Kinetex Evo C18 2.6 um 50 x 2.1 mm
Retention time: 7.548 min
Base peak: 353.1858
Precursor m/z: 353.186
Precursor type: [M+H]+
m/z	relative intensity	assigned
77.0386	38	C6H5+
79.0543	29	C6H7+
80.0495	5	C5H6N+
81.07	16	C6H9+
82.065	4	C5H8N+
83.0129	4	C4H3O2+
91.0542	150	C7H7+
93.0573	9	C6H7N+
94.0649	4	C6H8N+
95.0493	13	C6H7O+
103.0542	63	C8H7+
104.0492	11	C7H6N+
105.0448	30	C6H5N2+
105.07	10	C8H9+
106.0651	10	C7H8N+
107.0489	6	C7H7O+
108.0807	17	C7H10N+
109.0279	3	C6H5O2+
115.0542	258	C9H7+
116.0494	28	C8H6N+
116.062	23	C9H8+
117.0573	145	C8H7N+
117.0698	426	C9H9+
118.0651	37	C8H8N+
118.0732	14	C4H10N2O2+
119.0727	4	C8H9N+
122.0238	3	C6H4NO2+
124.0395	10	C6H6NO2+
127.0542	35	C10H7+
128.0495	71	C9H6N+
128.0621	75	C10H8+
129.0572	15	C9H7N+
129.0698	66	C10H9+
130.0651	105	C9H8N+
131.0728	8	C9H9N+
132.0806	4	C9H10N+
134.0605	4	C8H8NO+
134.0964	4	C9H12N+
141.0703	5	C11H9+
142.0652	36	C10H8N+
142.0779	3	C11H10+
143.073	561	C10H9N+
144.0807	999	C10H10N+
145.0647	19	C10H9O+
146.06	13	C9H8NO+
152.0619	7	C12H8+
153.0694	6	C12H9+
154.0651	83	C11H8N+
155.0604	245	C10H7N2+
155.0728	86	C11H9N+
156.0807	82	C11H10N+
157.0884	20	C11H11N+
158.0965	7	C11H12N+
165.0697	13	C13H9+
166.0651	5	C12H8N+
167.073	143	C12H9N+
168.0807	92	C12H10N+
169.0885	11	C12H11N+
170.0964	27	C12H12N+
178.0772	4	C14H10+
179.0724	4	C13H9N+
180.0807	81	C13H10N+
181.0888	25	C13H11N+
182.0965	24	C13H12N+
191.0728	23	C14H9N+
192.0808	22	C14H10N+
193.0886	21	C14H11N+
194.0965	27	C14H12N+
204.0806	32	C15H10N+
205.089	14	C15H11N+
206.0962	32	C15H12N+
207.1047	5	C15H13N+
208.1129	5	C15H14N+
216.0816	4	C16H10N+
217.0885	34	C16H11N+
218.0963	19	C16H12N+
219.1034	3	C16H13N+
220.076	10	C15H10NO+
220.112	8	C16H14N+
230.096	15	C17H12N+
234.0915	7	C16H12NO+
246.0913	5	C17H12NO+
