Mass spectrum: Primin; LC-ESI-ITFT; MS2; CE: 85%; R=15000; [M+H]+
Name: Primin
Name: 2-methoxy-6-pentylcyclohexa-2,5-diene-1,4-dione
Formula: C12H16O3
Exact mass: 208.1099
SMILES: CCCCCC1=CC(=O)C=C(C1=O)OC
InChI: InChI=1S/C12H16O3/c1-3-4-5-6-9-7-10(13)8-11(15-2)12(9)14/h7-8H,3-6H2,1-2H3
Instrument: LTQ Orbitrap XL Thermo Scientific
Instrument type: LC-ESI-ITFT
Ms type: MS2
Ion mode: POSITIVE
Ionization: ESI
Fragmentation mode: HCD
Collision energy: 85% (nominal)
Resolution: 15000
Column name: Kinetex Evo C18 2.6 um 50 x 2.1 mm
Retention time: 11.175 min
Base peak: 116.9859
Precursor m/z: 209.1172
Precursor type: [M+H]+
m/z	relative intensity	assigned
67.0541	140	C5H7+
68.9969	152	C3HO2+
77.0384	104	C6H5+
79.0544	243	C6H7+
107.0492	361	C7H7O+
110.0363	537	C6H6O2+
125.0598	999	C7H9O2+
