Mass spectrum: Tomatidine; LC-ESI-ITFT; MS2; CE: 25%; R=15000; [M+H]+
Name: Tomatidine
Formula: C27H45NO2
Exact mass: 415.3450
SMILES: C[C@H]1[C@H]2[C@H](C[C@H]3[C@@H]4CC[C@H]5C[C@@H](O)CC[C@]5(C)[C@H]4CC[C@]23C)O[C@@]11CC[C@H](C)CN1
InChI: InChI=1S/C27H45NO2/c1-16-7-12-27(28-15-16)17(2)24-23(30-27)14-22-20-6-5-18-13-19(29)8-10-25(18,3)21(20)9-11-26(22,24)4/h16-24,28-29H,5-15H2,1-4H3/t16-,17-,18-,19-,20+,21-,22-,23-,24-,25-,26-,27-/m0/s1
Instrument: LTQ Orbitrap XL Thermo Scientific
Instrument type: LC-ESI-ITFT
Ms type: MS2
Ion mode: POSITIVE
Ionization: ESI
Fragmentation mode: CID
Collision energy: 25 % (nominal)
Resolution: 15000
Column name: Kinetex Evo C18 2.6 um 50 x 2.1 mm
Retention time: 10.007 min
Base peak: 217.0492
Precursor m/z: 416.3523
Precursor type: [M+H]+
m/z	relative intensity	assigned
126.1278	42	C8H16N+
131.0856	16	C10H11+
133.1013	13	C10H13+
135.1169	9	C10H15+
145.1013	32	C11H13+
147.117	41	C11H15+
159.117	27	C12H15+
161.1326	94	C12H17+
163.1118	15	C11H15O+
173.1326	46	C13H17+
185.1326	18	C14H17+
187.1482	13	C14H19+
199.1482	28	C15H19+
213.164	19	C16H21+
215.1797	11	C16H23+
227.1797	17	C17H23+
255.211	441	C19H27+
273.2215	350	C19H29O+
398.3423	999	C27H44NO+
416.3526	809	C27H46NO2+
