Mass spectrum: Cortisone; LC-ESI-ITFT; MS2; CE: 45%; R=15000; [M+H]+
Name: Cortisone
Name: (8S,9S,10R,13S,14S,17R)-17-hydroxy-17-(2-hydroxyacetyl)-10,13-dimethyl-1,2,6,7,8,9,12,14,15,16-decahydrocyclopenta[a]phenanthrene-3,11-dione
Formula: C21H28O5
Exact mass: 360.1937
SMILES: C[C@]12CC(=O)[C@H]3[C@@H](CCC4=CC(=O)CC[C@]34C)[C@@H]1CC[C@]2(O)C(=O)CO
InChI: InChI=1S/C21H28O5/c1-19-7-5-13(23)9-12(19)3-4-14-15-6-8-21(26,17(25)11-22)20(15,2)10-16(24)18(14)19/h9,14-15,18,22,26H,3-8,10-11H2,1-2H3/t14-,15-,18+,19-,20-,21-/m0/s1
Instrument: LTQ Orbitrap XL Thermo Scientific
Instrument type: LC-ESI-ITFT
Ms type: MS2
Ion mode: POSITIVE
Ionization: ESI
Fragmentation mode: CID
Collision energy: 45 % (nominal)
Resolution: 15000
Column name: Kinetex Evo C18 2.6 um 50 x 2.1 mm
Retention time: 9.636 min
Base peak: 361.2014
Precursor m/z: 361.201
Precursor type: [M+H]+
m/z	relative intensity	assigned
105.0702	16	C8H9+
107.0859	9	C8H11+
119.086	14	C9H11+
121.0651	64	C8H9O+
123.0806	12	C8H11O+
131.0859	15	C10H11+
133.1017	7	C10H13+
135.0808	37	C9H11O+
135.117	12	C10H15+
137.0965	9	C9H13O+
139.0753	9	C8H11O2+
143.0859	11	C11H11+
145.1015	60	C11H13+
147.0808	53	C10H11O+
147.1174	8	C11H15+
149.0964	12	C10H13O+
151.0756	12	C9H11O2+
153.091	7	C9H13O2+
157.1015	9	C12H13+
159.0807	18	C11H11O+
159.1176	8	C12H15+
161.0964	37	C11H13O+
163.1121	655	C11H15O+
169.1017	11	C13H13+
171.0808	22	C12H11O+
171.1172	44	C13H15+
173.0962	47	C12H13O+
175.112	15	C12H15O+
177.0913	13	C11H13O2+
179.107	7	C11H15O2+
181.1017	19	C14H13+
183.1168	8	C14H15+
185.0962	16	C13H13O+
187.0753	10	C12H11O2+
187.1122	23	C13H15O+
189.0916	21	C12H13O2+
191.1068	25	C12H15O2+
195.117	16	C15H15+
197.1331	17	C15H17+
199.112	37	C14H15O+
201.1279	11	C14H17O+
203.1068	12	C13H15O2+
207.1173	16	C16H15+
209.1332	13	C16H17+
211.1122	25	C15H15O+
213.1276	23	C15H17O+
217.1222	21	C14H17O2+
221.1326	22	C17H17+
223.1123	30	C16H15O+
223.1488	25	C17H19+
225.128	34	C16H17O+
225.1639	13	C17H21+
227.1432	12	C16H19O+
229.123	26	C15H17O2+
235.1482	21	C18H19+
237.1282	34	C17H17O+
237.1643	24	C18H21+
239.1061	9	C16H15O2+
239.1434	69	C17H19O+
239.1802	12	C18H23+
241.1227	60	C16H17O2+
241.1591	38	C17H21O+
243.1386	18	C16H19O2+
243.1745	11	C17H23O+
247.1483	48	C19H19+
249.1274	24	C18H17O+
249.164	24	C19H21+
251.1438	17	C18H19O+
251.1795	10	C19H23+
255.1384	34	C17H19O2+
255.1748	31	C18H23O+
257.154	51	C17H21O2+
257.1898	12	C18H25O+
261.1284	8	C19H17O+
261.1479	12	C16H21O3+
261.164	31	C20H21+
263.1432	32	C19H19O+
265.1591	240	C19H21O+
267.1384	56	C18H19O2+
267.1748	197	C19H23O+
269.1549	9	C18H21O2+
269.1901	12	C19H25O+
277.1587	38	C20H21O+
279.1374	14	C19H19O2+
279.1747	128	C20H23O+
281.1538	29	C19H21O2+
283.1695	297	C19H23O2+
285.1488	33	C18H21O3+
285.1852	165	C19H25O2+
289.1589	86	C21H21O+
295.1695	148	C20H23O2+
297.1852	113	C20H25O2+
299.1646	199	C19H23O3+
300.1735	9	C19H24O3+
301.1802	245	C19H25O3+
303.158	16	C18H23O4+
307.1696	318	C21H23O2+
313.1801	247	C20H25O3+
315.1958	57	C20H27O3+
317.1753	13	C19H25O4+
325.1802	440	C21H25O3+
331.1896	18	C20H27O4+
343.1907	999	C21H27O4+
