Mass spectrum: trans-Zeatin; LC-ESI-ITFT; MS2; CE: 80%; R=15000; [M+H]+
Name: trans-Zeatin
Formula: C10H13N5O
Exact mass: 219.1120
SMILES: C\C(CO)=C/CNC1=C2N=CNC2=NC=N1
InChI: InChI=1S/C10H13N5O/c1-7(4-16)2-3-11-9-8-10(13-5-12-8)15-6-14-9/h2,5-6,16H,3-4H2,1H3,(H2,11,12,13,14,15)/b7-2+
Instrument: LTQ Orbitrap XL Thermo Scientific
Instrument type: LC-ESI-ITFT
Ms type: MS2
Ion mode: POSITIVE
Ionization: ESI
Fragmentation mode: CID
Collision energy: 80 % (nominal)
Resolution: 15000
Column name: Kinetex Evo C18 2.6 um 50 x 2.1 mm
Retention time: 0.927 min
Base peak: 220.1188
Precursor m/z: 220.1193
Precursor type: [M+H]+
m/z	relative intensity	assigned
119.035	1	C5H3N4+
136.0619	811	C5H6N5+
148.0619	304	C6H6N5+
159.0667	4	C8H7N4+
175.0981	9	C9H11N4+
185.0824	153	C10H9N4+
202.1089	999	C10H12N5+
