Mass spectrum: Brucine; LC-ESI-ITFT; MS2; CE: 60%; R=15000; [M+H]+
Name: Brucine
Name: (-)-Brucine
Name: (4aR,5aS,8aR,15bR)-10,11-dimethoxy-4a,5,5a,7,8,13a,15,15a,15b,16-decahydro-2H-4,6-methanoindolo[3,2,1-ij]oxepino[2,3,4-de]pyrrolo[2,3-h]quinolin-14-one
Formula: C23H26N2O4
Exact mass: 394.1893
SMILES: COc1cc2c(cc1OC)N3C4[C@]25CCN6[C@H]5C[C@@H]7[C@H]4C(CC3=O)OCC=C7C6
InChI: InChI=1S/C23H26N2O4/c1-27-16-8-14-15(9-17(16)28-2)25-20(26)10-18-21-13-7-19-23(14,22(21)25)4-5-24(19)11-12(13)3-6-29-18/h3,8-9,13,18-19,21-22H,4-7,10-11H2,1-2H3/t13-,18?,19-,21-,22?,23+/m0/s1
Instrument: LTQ Orbitrap XL Thermo Scientific
Instrument type: LC-ESI-ITFT
Ms type: MS2
Ion mode: POSITIVE
Ionization: ESI
Fragmentation mode: HCD
Collision energy: 60% (nominal)
Resolution: 15000
Column name: Kinetex Evo C18 2.6 um 50 x 2.1 mm
Retention time: 5.942 min
Base peak: 116.9859
Precursor m/z: 395.1965
Precursor type: [M+H]+
m/z	relative intensity	assigned
67.0544	6	C5H7+
70.0651	11	C4H8N+
79.0544	6	C6H7+
80.0494	7	C5H6N+
81.0701	7	C6H9+
91.0542	9	C7H7+
93.0573	7	C6H7N+
93.0698	6	C7H9+
94.0651	18	C6H8N+
95.0492	14	C6H7O+
95.0854	5	C7H11+
96.0808	17	C6H10N+
106.0651	31	C7H8N+
108.0807	90	C7H10N+
122.06	70	C7H8NO+
124.0757	66	C7H10NO+
148.0756	13	C9H10NO+
176.0712	8	C10H10NO2+
177.0777	6	C10H11NO2+
178.086	41	C10H12NO2+
185.0834	12	C12H11NO+
190.0862	37	C11H12NO2+
192.0655	19	C10H10NO3+
197.0842	12	C13H11NO+
204.1019	28	C12H14NO2+
212.0701	9	C13H10NO2+
213.0783	200	C13H11NO2+
214.0508	5	C12H8NO3+
216.1018	106	C13H14NO2+
220.0972	12	C12H14NO3+
226.0857	12	C14H12NO2+
227.094	42	C14H13NO2+
228.0657	13	C13H10NO3+
228.102	33	C14H14NO2+
229.0733	212	C13H11NO3+
230.0806	13	C13H12NO3+
240.1016	14	C15H14NO2+
241.074	5	C14H11NO3+
243.0891	22	C14H13NO3+
244.0967	999	C14H14NO3+
246.1127	15	C14H16NO3+
249.1155	11	C17H15NO+
251.094	89	C16H13NO2+
252.0646	8	C15H10NO3+
254.0815	13	C15H12NO3+
254.1174	86	C16H16NO2+
256.0967	66	C15H14NO3+
257.1047	10	C15H15NO3+
258.0754	6	C14H12NO4+
258.1124	36	C15H16NO3+
260.0913	17	C14H14NO4+
262.0854	14	C17H12NO2+
263.0941	108	C17H13NO2+
264.1025	14	C17H14NO2+
265.0736	8	C16H11NO3+
265.1088	7	C17H15NO2+
266.1186	10	C17H16NO2+
267.089	112	C16H13NO3+
270.1127	12	C16H16NO3+
272.0916	12	C15H14NO4+
277.1102	6	C18H15NO2+
278.1169	25	C18H16NO2+
279.1253	6	C18H17NO2+
280.0967	93	C17H14NO3+
280.132	8	C18H18NO2+
281.1045	19	C17H15NO3+
282.1125	251	C17H16NO3+
284.0911	9	C16H14NO4+
289.1094	5	C19H15NO2+
291.1259	21	C19H17NO2+
294.1125	62	C18H16NO3+
296.1282	13	C18H18NO3+
297.0995	10	C17H15NO4+
298.1068	23	C17H16NO4+
301.1101	24	C20H15NO2+
303.126	6	C20H17NO2+
306.1124	46	C19H16NO3+
307.1207	20	C19H17NO3+
308.1266	23	C19H18NO3+
317.1042	12	C20H15NO3+
319.1206	20	C20H17NO3+
320.1275	10	C20H18NO3+
321.1357	72	C20H19NO3+
322.1436	108	C20H20NO3+
323.1386	10	C19H19N2O3+
324.123	497	C19H18NO4+
326.1373	7	C19H20NO4+
332.1278	53	C21H18NO3+
335.1146	14	C20H17NO4+
336.1468	14	C20H20N2O3+
338.138	11	C20H20NO4+
349.1547	39	C21H21N2O3+
350.1387	183	C21H20NO4+
351.1705	10	C21H23N2O3+
352.142	41	C20H20N2O4+
366.1704	12	C22H24NO4+
367.1653	291	C21H23N2O4+
379.1652	28	C22H23N2O4+
380.1727	21	C22H24N2O4+
395.1963	531	C23H27N2O4+
