Mass spectrum: Kaempferol; LC-ESI-ITFT; MS2; CE: 75%; R=15000; [M+H]+
Name: Kaempferol
Name: 3,5,7-trihydroxy-2-(4-hydroxyphenyl)chromen-4-one
Formula: C15H10O6
Exact mass: 286.0477
SMILES: OC1=CC=C(C=C1)C1=C(O)C(=O)C2=C(O)C=C(O)C=C2O1
InChI: InChI=1S/C15H10O6/c16-8-3-1-7(2-4-8)15-14(20)13(19)12-10(18)5-9(17)6-11(12)21-15/h1-6,16-18,20H
Instrument: LTQ Orbitrap XL Thermo Scientific
Instrument type: LC-ESI-ITFT
Ms type: MS2
Ion mode: POSITIVE
Ionization: ESI
Fragmentation mode: HCD
Collision energy: 75% (nominal)
Resolution: 15000
Column name: Kinetex Evo C18 2.6 um 50 x 2.1 mm
Retention time: 10.404 min
Base peak: 116.9859
Precursor m/z: 287.055
Precursor type: [M+H]+
m/z	relative intensity	assigned
68.997	137	C3HO2+
79.0543	64	C6H7+
107.0491	112	C7H7O+
121.0284	468	C7H5O2+
137.0232	95	C7H5O3+
145.065	39	C10H9O+
147.0442	122	C9H7O2+
153.0182	999	C7H5O4+
157.0648	139	C11H9O+
161.0594	41	C10H9O2+
165.0183	186	C8H5O4+
185.0594	79	C12H9O2+
213.0544	239	C13H9O3+
231.065	46	C13H11O4+
241.0496	49	C14H9O4+
258.0525	70	C14H10O5+
287.0551	283	C15H11O6+
