Mass spectrum: Cevadine; LC-ESI-ITFT; MS2; CE: 40%; R=15000; [M+H]+
Name: Cevadine
Name: Veratrine
Name: [(1R,2S,6S,9S,10R,11S,12S,14R,15S,18S,19S,22S,23S,25R)-1,10,11,12,14,23-hexahydroxy-6,10,19-trimethyl-24-oxa-4-azaheptacyclo[12.12.0.02,11.04,9.015,25.018,23.019,25]hexacosan-22-yl] (Z)-2-methylbut-2-enoate
Formula: C32H49NO9
Exact mass: 591.3407
SMILES: C/C=C(/C)\C(=O)O[C@H]1CC[C@]2([C@H]3[C@@]1(O[C@@]24C[C@]5([C@@H]6CN7C[C@H](CC[C@H]7[C@@]([C@]6([C@H](C[C@]5([C@@H]4CC3)O)O)O)(C)O)C)O)O)C
InChI: InChI=1S/C32H49NO9/c1-6-18(3)25(35)41-24-11-12-26(4)19-8-9-20-28(37)13-23(34)31(39)21(29(28,38)16-30(20,26)42-32(19,24)40)15-33-14-17(2)7-10-22(33)27(31,5)36/h6,17,19-24,34,36-40H,7-16H2,1-5H3/b18-6-/t17-,19-,20-,21-,22-,23-,24-,26-,27+,28+,29+,30+,31-,32-/m0/s1
Instrument: LTQ Orbitrap XL Thermo Scientific
Instrument type: LC-ESI-ITFT
Ms type: MS2
Ion mode: POSITIVE
Ionization: ESI
Fragmentation mode: HCD
Collision energy: 40% (nominal)
Resolution: 15000
Column name: Kinetex Evo C18 2.6 um 50 x 2.1 mm
Retention time: 9.257 min
Base peak: 116.9857
Precursor m/z: 592.348
Precursor type: [M+H]+
m/z	relative intensity	assigned
83.0489	28	C5H7O+
98.0962	15	C6H12N+
110.0961	15	C7H12N+
128.1066	7	C7H14NO+
138.1274	11	C9H16N+
154.1223	30	C9H16NO+
162.1271	11	C11H16N+
163.1348	7	C11H17N+
420.2553	12	C27H34NO3+
438.2631	37	C27H36NO4+
456.273	87	C27H38NO5+
474.284	143	C24H42O9+
492.2943	166	C27H42NO7+
520.3043	6	C32H42NO5+
538.3123	11	C29H46O9+
556.3254	53	C32H46NO7+
574.3365	172	C32H48NO8+
592.3469	999	C32H50NO9+
