Mass spectrum: Galantamine; LC-ESI-ITFT; MS2; CE: 100%; R=15000; [M+H]+
Name: Galantamine
Formula: C17H21NO3
Exact mass: 287.1521
SMILES: CN1CCC23C=CC(CC2OC4=C(C=CC(=C34)C1)OC)O
InChI: InChI=1S/C17H21NO3/c1-18-8-7-17-6-5-12(19)9-14(17)21-16-13(20-2)4-3-11(10-18)15(16)17/h3-6,12,14,19H,7-10H2,1-2H3
Instrument: LTQ Orbitrap XL Thermo Scientific
Instrument type: LC-ESI-ITFT
Ms type: MS2
Ion mode: POSITIVE
Ionization: ESI
Fragmentation mode: HCD
Collision energy: 100 % (nominal)
Resolution: 15000
Column name: Kinetex Evo C18 2.6 um 50 x 2.1 mm
Retention time: 0.657 min
Base peak: 288.159
Precursor m/z: 288.1594
Precursor type: [M+H]+
m/z	relative intensity	assigned
77.0386	45	C6H5+
79.0542	35	C6H7+
91.0542	113	C7H7+
94.0412	11	C6H6O+
94.0649	9	C6H8N+
103.0542	54	C8H7+
104.0619	10	C8H8+
105.0698	145	C8H9+
109.0649	15	C7H9O+
115.0542	87	C9H7+
116.0621	20	C9H8+
117.0699	48	C9H9+
127.0539	11	C10H7+
128.0621	171	C10H8+
129.0698	88	C10H9+
131.0492	60	C9H7O+
132.057	37	C9H8O+
132.0807	13	C9H10N+
135.0804	96	C9H11O+
141.0698	238	C11H9+
142.0777	177	C11H10+
144.0571	40	C10H8O+
145.0648	129	C10H9O+
146.0726	57	C10H10O+
147.044	24	C9H7O2+
151.0543	10	C12H7+
152.062	165	C12H8+
153.0698	184	C12H9+
154.0774	56	C12H10+
155.0491	475	C11H7O+
157.0645	34	C11H9O+
158.0727	31	C11H10O+
159.0804	47	C11H11O+
161.0596	23	C10H9O2+
165.0699	182	C13H9+
166.0777	85	C13H10+
167.0853	20	C13H11+
168.0571	74	C12H8O+
169.0648	517	C12H9O+
170.0725	270	C12H10O+
171.0799	24	C12H11O+
173.0598	27	C11H9O2+
175.0755	43	C11H11O2+
178.0776	50	C14H10+
179.0856	39	C14H11+
181.0648	508	C13H9O+
182.0726	313	C13H10O+
183.044	999	C12H7O2+
185.096	52	C13H13O+
189.07	17	C15H9+
197.0596	247	C13H9O2+
198.0674	763	C13H10O2+
207.081	6	C15H11O+
210.0672	20	C14H10O2+
213.0911	44	C14H13O2+
