Mass spectrum: Yohimbine; LC-ESI-ITFT; MS2; CE: 65%; R=15000; [M+H]+
Name: Yohimbine
Name: methyl (1S,15R,18S,19R,20S)-18-hydroxy-1,3,11,12,14,15,16,17,18,19,20,21-dodecahydroyohimban-19-carboxylate
Formula: C21H26N2O3
Exact mass: 354.1943
SMILES: COC(=O)[C@H]1[C@H](CC[C@@H]2[C@@H]1C[C@H]3c4c(c5ccccc5[nH]4)CCN3C2)O
InChI: InChI=1S/C21H26N2O3/c1-26-21(25)19-15-10-17-20-14(13-4-2-3-5-16(13)22-20)8-9-23(17)11-12(15)6-7-18(19)24/h2-5,12,15,17-19,22,24H,6-11H2,1H3/t12-,15-,17-,18-,19+/m0/s1
Instrument: LTQ Orbitrap XL Thermo Scientific
Instrument type: LC-ESI-ITFT
Ms type: MS2
Ion mode: POSITIVE
Ionization: ESI
Fragmentation mode: HCD
Collision energy: 65% (nominal)
Resolution: 15000
Column name: Kinetex Evo C18 2.6 um 50 x 2.1 mm
Retention time: 6.550 min
Base peak: 355.2014
Precursor m/z: 355.2016
Precursor type: [M+H]+
m/z	relative intensity	assigned
79.0541	2	C6H7+
80.0495	2	C5H6N+
91.0542	3	C7H7+
93.0699	1	C7H9+
94.065	8	C6H8N+
105.0699	4	C8H9+
106.0651	11	C7H8N+
107.0855	2	C8H11+
115.0542	1	C9H7+
117.0698	46	C9H9+
118.065	1	C8H8N+
119.0855	1	C9H11+
120.0806	2	C8H10N+
129.0696	1	C10H9+
130.065	15	C9H8N+
131.0727	2	C9H9N+
132.0808	6	C9H10N+
133.0642	1	C9H9O+
134.0963	47	C9H12N+
135.0802	2	C9H11O+
136.1121	2	C9H14N+
138.0913	1	C8H12NO+
143.0729	12	C10H9N+
144.0807	999	C10H10N+
145.0645	2	C10H9O+
146.0963	4	C10H12N+
152.107	2	C9H14NO+
155.0603	9	C10H7N2+
156.0807	5	C11H10N+
157.0882	4	C11H11N+
158.0964	15	C11H12N+
162.0912	24	C10H12NO+
168.0808	2	C12H10N+
169.0885	2	C12H11N+
170.0964	5	C12H12N+
180.0812	1	C13H10N+
180.1018	17	C10H14NO2+
182.0966	3	C13H12N+
192.1019	5	C11H14NO2+
194.0966	2	C14H12N+
194.1174	29	C11H16NO2+
196.1115	2	C14H14N+
206.0964	2	C15H12N+
206.1168	2	C12H16NO2+
208.1119	3	C15H14N+
209.1199	1	C15H15N+
212.128	64	C11H18NO3+
218.0974	1	C16H12N+
219.104	2	C16H13N+
220.1117	4	C16H14N+
221.1192	2	C16H15N+
222.1267	1	C16H16N+
224.1278	13	C12H18NO3+
226.1439	1	C12H20NO3+
231.104	1	C17H13N+
232.1111	1	C17H14N+
234.1276	4	C17H16N+
245.119	1	C18H15N+
246.1272	3	C18H16N+
248.1432	7	C18H18N+
260.1438	2	C19H18N+
276.1386	1	C19H18NO+
294.15	1	C19H20NO2+
355.2014	1	C21H27N2O3+
