Mass spectrum: Senkirkine; LC-ESI-ITFT; MS2; CE: 20%; R=15000; [M+H]+
Name: Senkirkine
Name: (11Z)-4-ethylidene-7-hydroxy-6,7,14-trimethyl-2,9-dioxa-14-azabicyclo[9.5.1]heptadec-11-ene-3,8,17-trione
Formula: C19H27NO6
Exact mass: 365.1838
SMILES: CC=C1CC(C(C(=O)OCC2=CCN(CCC(C2=O)OC1=O)C)(C)O)C
InChI: InChI=1S/C19H27NO6/c1-5-13-10-12(2)19(3,24)18(23)25-11-14-6-8-20(4)9-7-15(16(14)21)26-17(13)22/h5-6,12,15,24H,7-11H2,1-4H3/b13-5?,14-6-
Instrument: LTQ Orbitrap XL Thermo Scientific
Instrument type: LC-ESI-ITFT
Ms type: MS2
Ion mode: POSITIVE
Ionization: ESI
Fragmentation mode: CID
Collision energy: 20 % (nominal)
Resolution: 15000
Column name: Kinetex Evo C18 2.6 um 50x2.1 mm, Phenomenex
Retention time: 6.877 min
Base peak: 366.1908
Precursor m/z: 366.1911
Precursor type: [M+H]+
m/z	relative intensity	assigned
122.0601	8	C7H8NO+
122.0966	3	C8H12N+
124.0757	1	C7H10NO+
125.06	1	C7H9O2+
150.0915	42	C9H12NO+
153.0913	2	C9H13O2+
168.1022	43	C9H14NO2+
304.1917	1	C18H26NO3+
320.1866	1	C18H26NO4+
338.1968	2	C18H28NO5+
348.1811	4	C19H26NO5+
366.1916	999	C19H28NO6+
