Mass spectrum: (+)-Costunolide; LC-ESI-ITFT; MS2; CE: 80%; R=15000; [M+H]+
Name: (+)-Costunolide
Name: Costunolide
Name: (3aS,6E,10E,11aR)-6,10-dimethyl-3-methylidene-3a,4,5,8,9,11a-hexahydrocyclodeca[b]furan-2-one
Formula: C15H20O2
Exact mass: 232.1463
SMILES: C/C/1=C\CC/C(=C/[C@@H]2[C@@H](CC1)C(=C)C(=O)O2)/C
InChI: InChI=1S/C15H20O2/c1-10-5-4-6-11(2)9-14-13(8-7-10)12(3)15(16)17-14/h5,9,13-14H,3-4,6-8H2,1-2H3/b10-5+,11-9+/t13-,14+/m0/s1
Instrument: LTQ Orbitrap XL Thermo Scientific
Instrument type: LC-ESI-ITFT
Ms type: MS2
Ion mode: POSITIVE
Ionization: ESI
Fragmentation mode: HCD
Collision energy: 80% (nominal)
Resolution: 15000
Column name: Kinetex Evo C18 2.6 um 50 x 2.1 mm
Retention time: 11.767 min
Base peak: 116.9858
Precursor m/z: 233.1536
Precursor type: [M+H]+
m/z	relative intensity	assigned
67.0542	135	C5H7+
69.0698	56	C5H9+
77.0388	55	C6H5+
79.0542	261	C6H7+
81.0699	422	C6H9+
91.0542	609	C7H7+
93.0698	509	C7H9+
95.0855	343	C7H11+
103.0543	35	C8H7+
105.0698	999	C8H9+
107.0855	374	C8H11+
109.1014	71	C8H13+
116.0621	60	C9H8+
117.0698	333	C9H9+
119.0855	434	C9H11+
121.0649	61	C8H9O+
121.1012	74	C9H13+
129.0697	70	C10H9+
130.0777	120	C10H10+
131.0855	919	C10H11+
133.1011	211	C10H13+
143.0853	111	C11H11+
144.0933	64	C11H12+
145.1012	793	C11H13+
147.1169	73	C11H15+
155.0854	48	C12H11+
157.1012	36	C12H13+
158.1091	43	C12H14+
159.0801	38	C11H11O+
159.1167	291	C12H15+
161.1324	95	C12H17+
167.0855	36	C13H11+
169.101	25	C13H13+
172.1239	30	C13H16+
187.1481	277	C14H19+
