Mass spectrum: Intermedine; LC-ESI-ITFT; MS2; CE: 35%; R=15000; [M+H]+
Name: Intermedine
Name: [(7R,8R)-7-hydroxy-5,6,7,8-tetrahydro-3H-pyrrolizin-1-yl]methyl (2S)-2-hydroxy-2-[(1R)-1-hydroxyethyl]-3-methylbutanoate
Formula: C15H25NO5
Exact mass: 299.1733
SMILES: C[C@H]([C@@](C(C)C)(C(=O)OCC1=CCN2[C@H]1[C@@H](CC2)O)O)O
InChI: InChI=1S/C15H25NO5/c1-9(2)15(20,10(3)17)14(19)21-8-11-4-6-16-7-5-12(18)13(11)16/h4,9-10,12-13,17-18,20H,5-8H2,1-3H3/t10-,12-,13-,15+/m1/s1
Instrument: LTQ Orbitrap XL Thermo Scientific
Instrument type: LC-ESI-ITFT
Ms type: MS2
Ion mode: POSITIVE
Ionization: ESI
Fragmentation mode: HCD
Collision energy: 35% (nominal)
Resolution: 15000
Column name: Kinetex Evo C18 2.6 um 50x2.1 mm, Phenomenex
Retention time: 1.042 min
Base peak: 143.0014
Precursor m/z: 300.1805
Precursor type: [M+H]+
m/z	relative intensity	assigned
94.0651	112	C6H8N+
120.0807	28	C8H10N+
138.0912	449	C8H12NO+
139.099	14	C8H13NO+
156.1018	70	C8H14NO2+
256.1542	8	C13H22NO4+
300.1804	999	C15H26NO5+
