Mass spectrum: (-)-Scopolamine; LC-ESI-ITFT; MS2; CE: 80%; R=15000; [M+H]+
Name: (-)-Scopolamine
Formula: C17H21NO4
Exact mass: 303.1471
SMILES: CN1[C@@H]2C[C@H](C[C@H]1[C@H]3[C@@H]2O3)OC(=O)[C@H](CO)c4ccccc4
InChI: InChI=1S/C17H21NO4/c1-18-13-7-11(8-14(18)16-15(13)22-16)21-17(20)12(9-19)10-5-3-2-4-6-10/h2-6,11-16,19H,7-9H2,1H3/t11-,12-,13-,14+,15-,16+/m1/s1
Instrument: LTQ Orbitrap XL Thermo Scientific
Instrument type: LC-ESI-ITFT
Ms type: MS2
Ion mode: POSITIVE
Ionization: ESI
Fragmentation mode: HCD
Collision energy: 80% (nominal)
Resolution: 15000
Column name: Kinetex Evo C18 2.6 um 50 x 2.1 mm
Retention time: 1.115 min
Base peak: 143.0015
Precursor m/z: 304.1543
Precursor type: [M+H]+
m/z	relative intensity	assigned
67.0542	22	C5H7+
68.0493	8	C4H6N+
70.0651	67	C4H8N+
72.0444	14	C3H6NO+
74.0602	6	C3H8NO+
77.0386	22	C6H5+
79.0543	161	C6H7+
81.0335	45	C5H5O+
81.0574	8	C5H7N+
81.0699	31	C6H9+
82.0652	63	C5H8N+
83.0492	22	C5H7O+
84.0809	34	C5H10N+
91.0543	48	C7H7+
93.0699	43	C7H9+
94.0651	49	C6H8N+
95.0494	9	C6H7O+
95.073	21	C6H9N+
96.0445	27	C5H6NO+
96.0808	45	C6H10N+
97.0523	140	C5H7NO+
97.0648	10	C6H9O+
98.0601	119	C5H8NO+
103.0542	999	C8H7+
107.0492	14	C7H7O+
108.0808	31	C7H10N+
109.0886	8	C7H11N+
110.0601	58	C6H8NO+
110.0965	217	C7H12N+
120.0809	35	C8H10N+
121.0648	227	C8H9O+
123.0678	7	C7H9NO+
138.0914	612	C8H12NO+
154.0857	7	C8H12NO2+
156.102	114	C8H14NO2+
