Mass spectrum: alpha-Cyperone; LC-ESI-ITFT; MS2; CE: 90%; R=15000; [M+H]+
Name: alpha-Cyperone
Formula: C15H22O
Exact mass: 218.1671
SMILES: CC1=C2CC(CCC2(CCC1=O)C)C(=C)C
InChI: InChI=1S/C15H22O/c1-10(2)12-5-7-15(4)8-6-14(16)11(3)13(15)9-12/h12H,1,5-9H2,2-4H3
Instrument: LTQ Orbitrap XL Thermo Scientific
Instrument type: LC-ESI-ITFT
Ms type: MS2
Ion mode: POSITIVE
Ionization: ESI
Fragmentation mode: CID
Collision energy: 90 % (nominal)
Resolution: 15000
Column name: Kinetex Evo C18 2.6 um 50 x 2.1 mm
Retention time: 13.134 min
Base peak: 219.1742
Precursor m/z: 219.1743
Precursor type: [M+H]+
m/z	relative intensity	assigned
67.0543	21	C5H7+
69.07	3	C5H9+
77.0387	5	C6H5+
79.0543	21	C6H7+
81.07	63	C6H9+
91.0543	16	C7H7+
93.07	53	C7H9+
95.0856	163	C7H11+
97.0649	237	C6H9O+
105.07	121	C8H9+
107.0857	144	C8H11+
109.0649	27	C7H9O+
109.1013	339	C8H13+
111.0805	329	C7H11O+
117.0702	10	C9H9+
119.0857	181	C9H11+
121.065	23	C8H9O+
121.1013	148	C9H13+
123.0806	159	C8H11O+
123.117	123	C9H15+
125.0963	34	C8H13O+
131.0856	92	C10H11+
133.1014	64	C10H13+
135.0806	129	C9H11O+
135.117	109	C10H15+
137.0963	56	C9H13O+
137.1327	7	C10H17+
139.1118	8	C9H15O+
145.1013	417	C11H13+
147.117	195	C11H15+
149.0962	133	C10H13O+
149.1327	37	C11H17+
151.1122	7	C10H15O+
159.1171	406	C12H15+
161.1327	304	C12H17+
162.1038	6	C11H14O+
163.1119	999	C11H15O+
173.1327	344	C13H17+
175.1483	97	C13H19+
176.1199	16	C12H16O+
177.1276	99	C12H17O+
177.164	48	C13H21+
191.1433	36	C13H19O+
191.1796	55	C14H23+
201.164	832	C15H21+
204.1508	12	C14H20O+
