Mass spectrum: Gelsemine; LC-ESI-ITFT; MS2; CE: 100%; R=15000; [M+H]+
Name: Gelsemine
Name: (2`S,3S,5`S,6`S,11`S)-2`-ethenyl-4`-methylspiro[1H-indole-3,7`-9-oxa-4-azatetracyclo[6.3.1.02,6.05,11]dodecane]-2-one
Formula: C20H22N2O2
Exact mass: 322.1681
SMILES: CN1C[C@@]2([C@@H]3[C@H]1[C@@H]4C2CC([C@@]35c6ccccc6NC5=O)OC4)C=C
InChI: InChI=1S/C20H22N2O2/c1-3-19-10-22(2)16-11-9-24-15(8-13(11)19)20(17(16)19)12-6-4-5-7-14(12)21-18(20)23/h3-7,11,13,15-17H,1,8-10H2,2H3,(H,21,23)/t11-,13?,15?,16+,17-,19-,20-/m0/s1
Instrument: LTQ Orbitrap XL Thermo Scientific
Instrument type: LC-ESI-ITFT
Ms type: MS2
Ion mode: POSITIVE
Ionization: ESI
Fragmentation mode: HCD
Collision energy: 100% (nominal)
Resolution: 15000
Column name: Kinetex Evo C18 2.6 um 50 x 2.1 mm
Retention time: 1.779 min
Base peak: 143.0015
Precursor m/z: 323.1754
Precursor type: [M+H]+
m/z	relative intensity	assigned
70.0651	999	C4H8N+
77.0387	12	C6H5+
79.0543	11	C6H7+
86.06	14	C4H8NO+
91.0543	175	C7H7+
103.0543	30	C8H7+
104.0494	34	C7H6N+
105.0699	30	C8H9+
108.0807	13	C7H10N+
115.0542	101	C9H7+
116.0621	39	C9H8+
117.07	96	C9H9+
118.0652	20	C8H8N+
120.0809	29	C8H10N+
128.0494	41	C9H6N+
128.0618	11	C10H8+
129.0699	31	C10H9+
130.0652	94	C9H8N+
131.0856	26	C10H11+
132.0445	119	C8H6NO+
132.0807	18	C9H10N+
134.0966	24	C9H12N+
144.0805	10	C10H10N+
146.0601	56	C9H8NO+
146.0964	27	C10H12N+
152.0621	21	C12H8+
154.0652	19	C11H8N+
158.06	35	C10H8NO+
165.0699	48	C13H9+
166.065	40	C12H8N+
167.0731	137	C12H9N+
168.0807	15	C12H10N+
177.0573	50	C13H7N+
178.0649	68	C13H8N+
180.081	64	C13H10N+
183.0676	11	C12H9NO+
184.0753	10	C12H10NO+
190.065	45	C14H8N+
191.0854	11	C15H11+
192.0805	28	C14H10N+
193.0889	26	C14H11N+
195.0679	300	C13H9NO+
196.0758	82	C13H10NO+
203.073	87	C15H9N+
204.0812	28	C15H10N+
208.0756	50	C14H10NO+
210.0914	55	C14H12NO+
216.0809	29	C16H10N+
217.0887	85	C16H11N+
218.0961	46	C16H12N+
220.0762	19	C15H10NO+
222.0912	16	C15H12NO+
236.1072	29	C16H14NO+
