Mass spectrum: Erucifoline; LC-ESI-ITFT; MS2; CE: 55%; R=15000; [M+H]+
Name: Erucifoline
Name: (5R,7S,9Z,12R,18R)-9-ethylidene-7-(hydroxymethyl)-5-methyl-3,6,11-trioxa-15-azatetracyclo[10.5.1.05,7.015,18]octadec-1(17)-ene-4,10-dione
Formula: C18H23NO6
Exact mass: 349.1525
SMILES: C/C=C\1/C[C@@]2([C@@](O2)(C(=O)OCC3=CCN4[C@H]3[C@@H](CC4)OC1=O)C)CO
InChI: InChI=1S/C18H23NO6/c1-3-11-8-18(10-20)17(2,25-18)16(22)23-9-12-4-6-19-7-5-13(14(12)19)24-15(11)21/h3-4,13-14,20H,5-10H2,1-2H3/b11-3-/t13-,14-,17+,18+/m1/s1
Instrument: LTQ Orbitrap XL Thermo Scientific
Instrument type: LC-ESI-ITFT
Ms type: MS2
Ion mode: POSITIVE
Ionization: ESI
Fragmentation mode: HCD
Collision energy: 55% (nominal)
Resolution: 15000
Column name: Kinetex Evo C18 2.6 um 50 x 2.1 mm
Retention time: 0.960 min
Base peak: 350.1595
Precursor m/z: 350.1598
Precursor type: [M+H]+
m/z	relative intensity	assigned
67.0541	90	C5H7+
68.0494	57	C4H6N+
77.0386	33	C6H5+
79.0542	72	C6H7+
80.0495	91	C5H6N+
81.0699	34	C6H9+
82.0652	101	C5H8N+
83.0492	19	C5H7O+
91.0542	121	C7H7+
92.0494	15	C6H6N+
93.0699	232	C7H9+
94.0651	287	C6H8N+
95.0491	35	C6H7O+
95.0732	27	C6H9N+
95.0856	15	C7H11+
96.0807	227	C6H10N+
97.0647	21	C6H9O+
103.0541	73	C8H7+
106.0648	40	C7H8N+
108.0807	78	C7H10N+
109.0648	72	C7H9O+
110.0602	31	C6H8NO+
110.0963	95	C7H12N+
111.044	61	C6H7O2+
118.0651	87	C8H8N+
119.073	26	C8H9N+
120.0808	999	C8H10N+
121.0648	42	C8H9O+
121.0886	79	C8H11N+
122.0964	135	C8H12N+
123.044	49	C7H7O2+
125.0596	48	C7H9O2+
136.0755	31	C8H10NO+
136.1121	22	C9H14N+
137.0601	21	C8H9O2+
138.0913	842	C8H12NO+
139.0754	18	C8H11O2+
140.1069	16	C8H14NO+
141.0546	67	C7H9O3+
146.0962	24	C10H12N+
149.0601	15	C9H9O2+
156.1019	18	C8H14NO2+
164.1068	151	C10H14NO+
165.0544	43	C9H9O3+
182.1176	23	C10H16NO2+
220.1333	71	C13H18NO2+
322.165	84	C17H24NO5+
350.1598	834	C18H24NO6+
