Mass spectrum: (+)-Lupanine; LC-ESI-ITFT; MS2; CE: 105%; R=15000; [M+H]+
Name: (+)-Lupanine
Formula: C15H24N2O
Exact mass: 248.1889
SMILES: C1CCN2CC3CC(C2C1)CN4C3CCCC4=O
InChI: InChI=1S/C15H24N2O/c18-15-6-3-5-14-11-8-12(10-17(14)15)13-4-1-2-7-16(13)9-11/h11-14H,1-10H2
Instrument: LTQ Orbitrap XL Thermo Scientific
Instrument type: LC-ESI-ITFT
Ms type: MS2
Ion mode: POSITIVE
Ionization: ESI
Fragmentation mode: HCD
Collision energy: 105 % (nominal)
Resolution: 15000
Column name: Kinetex Evo C18 2.6 um 50 x 2.1 mm
Retention time: 0.587 min
Base peak: 235.2166
Precursor m/z: 249.1961
Precursor type: [M+H]+
m/z	relative intensity	assigned
55.0176	11	C3H3O+
55.0541	29	C4H7+
56.0493	20	C3H6N+
67.0542	189	C5H7+
68.0495	35	C4H6N+
69.0699	28	C5H9+
70.0651	619	C4H8N+
77.0387	26	C6H5+
79.0542	174	C6H7+
80.0494	288	C5H6N+
81.0573	23	C5H7N+
81.0698	146	C6H9+
82.0651	216	C5H8N+
84.0807	999	C5H10N+
85.0647	210	C5H9O+
86.0964	19	C5H12N+
91.0542	176	C7H7+
93.0573	20	C6H7N+
93.0698	155	C7H9+
94.0651	161	C6H8N+
95.0729	18	C6H9N+
95.0854	62	C7H11+
96.0807	343	C6H10N+
98.06	96	C5H8NO+
98.0964	537	C6H12N+
100.0757	41	C5H10NO+
105.0699	105	C8H9+
106.0651	31	C7H8N+
107.0728	29	C7H9N+
107.0855	66	C8H11+
108.0807	197	C7H10N+
109.0885	67	C7H11N+
110.06	31	C6H8NO+
110.0963	138	C7H12N+
112.0756	511	C6H10NO+
112.1121	33	C7H14N+
114.0913	322	C6H12NO+
117.0696	17	C9H9+
119.0855	37	C9H11+
120.0807	85	C8H10N+
121.0886	22	C8H11N+
121.101	11	C9H13+
122.0964	275	C8H12N+
124.0756	29	C7H10NO+
124.112	126	C8H14N+
131.0858	18	C10H11+
133.1012	41	C10H13+
134.0963	383	C9H12N+
135.1041	62	C9H13N+
136.112	919	C9H14N+
138.091	21	C8H12NO+
138.1276	51	C9H16N+
146.0967	15	C10H12N+
148.0758	17	C9H10NO+
148.112	200	C10H14N+
150.0913	48	C9H12NO+
150.1276	783	C10H16N+
152.1071	42	C9H14NO+
152.1433	191	C10H18N+
162.0912	15	C10H12NO+
162.1277	23	C11H16N+
164.107	23	C10H14NO+
166.1224	24	C10H16NO+
174.1277	36	C12H16N+
176.107	14	C11H14NO+
176.1434	40	C12H18N+
189.1391	24	C12H17N2+
190.1592	18	C13H20N+
204.138	22	C13H18NO+
206.1538	22	C13H20NO+
218.1536	16	C14H20NO+
220.1705	15	C14H22NO+
231.1856	22	C15H23N2+
247.1803	66	C15H23N2O+
249.196	807	C15H25N2O+
