Mass spectrum: Retrorsine; LC-ESI-ITFT; MS2; CE: 75%; R=15000; [M+H]+
Name: Retrorsine
Name: (1R,4Z,6R,7S,17R)-4-ethylidene-7-hydroxy-7-(hydroxymethyl)-6-methyl-2,9-dioxa-14-azatricyclo[9.5.1.014,17]heptadec-11-ene-3,8-dione
Formula: C18H25NO6
Exact mass: 351.1682
SMILES: C/C=C\1/C[C@H]([C@@](C(=O)OCC2=CCN3[C@H]2[C@@H](CC3)OC1=O)(CO)O)C
InChI: InChI=1S/C18H25NO6/c1-3-12-8-11(2)18(23,10-20)17(22)24-9-13-4-6-19-7-5-14(15(13)19)25-16(12)21/h3-4,11,14-15,20,23H,5-10H2,1-2H3/b12-3-/t11-,14-,15-,18-/m1/s1
Instrument: LTQ Orbitrap XL Thermo Scientific
Instrument type: LC-ESI-ITFT
Ms type: MS2
Ion mode: POSITIVE
Ionization: ESI
Fragmentation mode: HCD
Collision energy: 75% (nominal)
Resolution: 15000
Column name: Kinetex Evo C18 2.6 um 50 x 2.1 mm
Retention time: 1.607 min
Base peak: 143.0015
Precursor m/z: 352.1755
Precursor type: [M+H]+
m/z	relative intensity	assigned
55.0543	22	C4H7+
67.0542	367	C5H7+
68.0494	109	C4H6N+
71.0491	20	C4H7O+
77.0386	80	C6H5+
79.0542	203	C6H7+
80.0495	257	C5H6N+
81.0572	61	C5H7N+
81.0699	245	C6H9+
82.0651	186	C5H8N+
83.049	48	C5H7O+
84.0443	36	C4H6NO+
91.0542	334	C7H7+
92.0494	58	C6H6N+
93.0573	22	C6H7N+
93.0699	393	C7H9+
94.0651	958	C6H8N+
95.0491	56	C6H7O+
95.0732	42	C6H9N+
95.0855	382	C7H11+
96.0808	448	C6H10N+
103.0541	178	C8H7+
105.0573	31	C7H7N+
105.0698	135	C8H9+
106.0652	37	C7H8N+
107.0728	66	C7H9N+
107.0856	38	C8H11+
108.0808	272	C7H10N+
109.0649	75	C7H9O+
109.0886	54	C7H11N+
110.06	48	C6H8NO+
110.0964	149	C7H12N+
111.0806	30	C7H11O+
112.0756	23	C6H10NO+
118.0651	174	C8H8N+
119.0731	37	C8H9N+
120.0808	999	C8H10N+
121.0647	54	C8H9O+
121.0888	60	C8H11N+
122.0964	245	C8H12N+
123.0804	262	C8H11O+
136.0757	49	C8H10NO+
138.0913	728	C8H12NO+
139.0758	30	C8H11O2+
140.1068	36	C8H14NO+
151.0752	144	C9H11O2+
154.0862	38	C8H12NO2+
156.1019	48	C8H14NO2+
220.133	118	C13H18NO2+
276.1597	22	C16H22NO3+
324.1805	24	C17H26NO5+
352.1767	35	C18H26NO6+
