Mass spectrum: Daphnetin; LC-ESI-ITFT; MS2; CE: 75%; R=15000; [M+H]+
Name: Daphnetin
Formula: C9H6O4
Exact mass: 178.0266
SMILES: OC1=CC=C2C=CC(=O)OC2=C1O
InChI: InChI=1S/C9H6O4/c10-6-3-1-5-2-4-7(11)13-9(5)8(6)12/h1-4,10,12H
Instrument: LTQ Orbitrap XL Thermo Scientific
Instrument type: LC-ESI-ITFT
Ms type: MS2
Ion mode: POSITIVE
Ionization: ESI
Fragmentation mode: HCD
Collision energy: 75 % (nominal)
Resolution: 15000
Column name: Kinetex Evo C18 2.6 um 50 x 2.1 mm
Retention time: 4.615 min
Base peak: 143.0016
Precursor m/z: 179.0339
Precursor type: [M+H]+
m/z	relative intensity	assigned
51.0228	20	C4H3+
77.0386	256	C6H5+
79.0541	39	C6H7+
89.0386	134	C7H5+
91.0542	135	C7H7+
95.0491	64	C6H7O+
105.0335	321	C7H5O+
117.0338	54	C8H5O+
119.0495	82	C8H7O+
123.044	535	C7H7O2+
133.0285	999	C8H5O2+
135.0441	83	C8H7O2+
179.0341	179	C9H7O4+
