Mass spectrum: Sterigmatocystin; LC-ESI-ITFT; MS2; CE: 15%; R=15000; [M+H]+
Name: Sterigmatocystin
Name: (3S,7R)-15-hydroxy-11-methoxy-6,8,20-trioxapentacyclo[10.8.0.02,9.03,7.014,19]icosa-1,4,9,11,14,16,18-heptaen-13-one
Formula: C18H12O6
Exact mass: 324.0634
SMILES: COc1cc2c(c3c1c(=O)c4c(cccc4o3)O)[C@@H]5C=CO[C@@H]5O2
InChI: InChI=1S/C18H12O6/c1-21-11-7-12-13(8-5-6-22-18(8)24-12)17-15(11)16(20)14-9(19)3-2-4-10(14)23-17/h2-8,18-19H,1H3/t8-,18+/m0/s1
Instrument: LTQ Orbitrap XL Thermo Scientific
Instrument type: LC-ESI-ITFT
Ms type: MS2
Ion mode: POSITIVE
Ionization: ESI
Fragmentation mode: HCD
Collision energy: 15% (nominal)
Resolution: 15000
Column name: Kinetex Evo C18 2.6 um 50 x 2.1 mm
Retention time: 11.794 min
Base peak: 116.9859
Precursor m/z: 325.0707
Precursor type: [M+H]+
m/z	relative intensity	assigned
325.0706	999	C18H13O6+
