Mass spectrum: Senecivernine; LC-ESI-ITFT; MS2; CE: 65%; R=15000; [M+H]+
Name: Senecivernine
Name: (1R,5R,6R,7R,17R)-7-hydroxy-5,6,7-trimethyl-4-methylidene-2,9-dioxa-14-azatricyclo[9.5.1.014,17]heptadec-11-ene-3,8-dione
Formula: C18H25NO5
Exact mass: 335.1733
SMILES: C[C@@H]1[C@H]([C@@](C(=O)OCC2=CCN3[C@H]2[C@@H](CC3)OC(=O)C1=C)(C)O)C
InChI: InChI=1S/C18H25NO5/c1-10-11(2)16(20)24-14-6-8-19-7-5-13(15(14)19)9-23-17(21)18(4,22)12(10)3/h5,10,12,14-15,22H,2,6-9H2,1,3-4H3/t10-,12+,14+,15+,18+/m0/s1
Instrument: LTQ Orbitrap XL Thermo Scientific
Instrument type: LC-ESI-ITFT
Ms type: MS2
Ion mode: POSITIVE
Ionization: ESI
Fragmentation mode: HCD
Collision energy: 65% (nominal)
Resolution: 15000
Column name: Kinetex Evo C18 2.6 um 50 x 2.1 mm
Retention time: 3.393 min
Base peak: 143.0015
Precursor m/z: 336.1805
Precursor type: [M+H]+
m/z	relative intensity	assigned
55.0541	23	C4H7+
67.0542	109	C5H7+
68.0495	71	C4H6N+
77.0384	20	C6H5+
79.0543	125	C6H7+
80.0495	134	C5H6N+
81.0571	20	C5H7N+
81.0699	315	C6H9+
82.0652	60	C5H8N+
83.0492	28	C5H7O+
91.0542	115	C7H7+
92.0495	22	C6H6N+
93.0575	17	C6H7N+
93.0699	183	C7H9+
94.0652	321	C6H8N+
95.073	25	C6H9N+
95.0854	18	C7H11+
96.0808	218	C6H10N+
103.0543	93	C8H7+
105.07	43	C8H9+
106.0652	24	C7H8N+
107.0728	30	C7H9N+
107.0856	88	C8H11+
108.0808	239	C7H10N+
109.0647	59	C7H9O+
109.0885	46	C7H11N+
109.1013	45	C8H13+
110.0602	34	C6H8NO+
110.0964	108	C7H12N+
111.044	71	C6H7O2+
111.068	20	C6H9NO+
111.0805	17	C7H11O+
118.0652	73	C8H8N+
119.0733	18	C8H9N+
119.0853	14	C9H11+
120.0808	999	C8H10N+
121.0648	20	C8H9O+
121.0887	74	C8H11N+
122.0965	172	C8H12N+
125.0962	70	C8H13O+
135.0805	19	C9H11O+
136.0754	30	C8H10NO+
137.0834	20	C8H11NO+
137.0962	17	C9H13O+
138.0914	917	C8H12NO+
148.1122	14	C10H14N+
153.0911	141	C9H13O2+
154.0862	36	C8H12NO2+
156.1023	26	C8H14NO2+
220.1334	97	C13H18NO2+
248.1643	19	C15H22NO2+
308.1858	336	C17H26NO4+
336.1807	392	C18H26NO5+
