Mass spectrum: (+)-Costunolide; LC-ESI-ITFT; MS2; CE: 90%; R=15000; [M+H]+
Name: (+)-Costunolide
Name: Costunolide
Name: (3aS,6E,10E,11aR)-6,10-dimethyl-3-methylidene-3a,4,5,8,9,11a-hexahydrocyclodeca[b]furan-2-one
Formula: C15H20O2
Exact mass: 232.1463
SMILES: C/C/1=C\CC/C(=C/[C@@H]2[C@@H](CC1)C(=C)C(=O)O2)/C
InChI: InChI=1S/C15H20O2/c1-10-5-4-6-11(2)9-14-13(8-7-10)12(3)15(16)17-14/h5,9,13-14H,3-4,6-8H2,1-2H3/b10-5+,11-9+/t13-,14+/m0/s1
Instrument: LTQ Orbitrap XL Thermo Scientific
Instrument type: LC-ESI-ITFT
Ms type: MS2
Ion mode: POSITIVE
Ionization: ESI
Fragmentation mode: HCD
Collision energy: 90% (nominal)
Resolution: 15000
Column name: Kinetex Evo C18 2.6 um 50 x 2.1 mm
Retention time: 11.752 min
Base peak: 116.9859
Precursor m/z: 233.1536
Precursor type: [M+H]+
m/z	relative intensity	assigned
55.0542	21	C4H7+
67.0542	166	C5H7+
69.0699	62	C5H9+
77.0386	93	C6H5+
79.0543	359	C6H7+
81.0699	429	C6H9+
91.0543	802	C7H7+
93.0699	447	C7H9+
95.0856	296	C7H11+
103.0544	66	C8H7+
105.0699	999	C8H9+
107.0856	234	C8H11+
115.0541	72	C9H7+
116.062	97	C9H8+
117.07	399	C9H9+
119.0856	448	C9H11+
121.0648	47	C8H9O+
121.1014	39	C9H13+
128.0623	48	C10H8+
129.07	125	C10H9+
130.0778	144	C10H10+
131.0856	755	C10H11+
132.0929	37	C10H12+
133.0647	21	C9H9O+
133.1012	165	C10H13+
135.0443	33	C8H7O2+
135.081	28	C9H11O+
142.078	33	C11H10+
143.0856	156	C11H11+
144.0934	60	C11H12+
145.1013	526	C11H13+
146.1092	23	C11H14+
147.1167	38	C11H15+
157.1013	85	C12H13+
158.1085	23	C12H14+
159.0804	26	C11H11O+
159.117	153	C12H15+
161.1328	55	C12H17+
167.0857	61	C13H11+
172.1241	31	C13H16+
187.1485	85	C14H19+
