Mass spectrum: Matairesinol; LC-ESI-ITFT; MS2; CE: 100%; R=15000; [M+H]+
Name: Matairesinol
Formula: C20H22O6
Exact mass: 358.1416
SMILES: COC1=CC(C[C@H]2COC(=O)[C@@H]2CC2=CC=C(O)C(OC)=C2)=CC=C1O
InChI: InChI=1S/C20H22O6/c1-24-18-9-12(3-5-16(18)21)7-14-11-26-20(23)15(14)8-13-4-6-17(22)19(10-13)25-2/h3-6,9-10,14-15,21-22H,7-8,11H2,1-2H3/t14-,15+/m0/s1
Instrument: LTQ Orbitrap XL Thermo Scientific
Instrument type: LC-ESI-ITFT
Ms type: MS2
Ion mode: POSITIVE
Ionization: ESI
Fragmentation mode: HCD
Collision energy: 100 % (nominal)
Resolution: 15000
Column name: Kinetex Evo C18 2.6 um 50 x 2.1 mm
Retention time: 9.337 min
Base peak: 147.0804
Precursor m/z: 359.1489
Precursor type: [M+H]+
m/z	relative intensity	assigned
65.0385	17	C5H5+
66.0463	88	C5H6+
77.0385	110	C6H5+
79.0543	48	C6H7+
81.0699	28	C6H9+
91.0542	116	C7H7+
94.0413	999	C6H6O+
95.0495	13	C6H7O+
103.0542	630	C8H7+
105.0335	22	C7H5O+
107.0492	24	C7H7O+
115.054	29	C9H7+
117.07	25	C9H9+
118.0417	12	C8H6O+
122.0362	729	C7H6O2+
128.062	54	C10H8+
129.0699	32	C10H9+
131.0491	89	C9H7O+
137.0596	922	C8H9O2+
145.0648	24	C10H9O+
149.0598	12	C9H9O2+
202.0779	17	C16H10+
