Mass spectrum: (-)-Nuciferine; LC-ESI-ITFT; MS2; CE: 95%; R=15000; [M+H]+
Name: (-)-Nuciferine
Name: Nuciferine
Name: (6aR)-1,2-dimethoxy-6-methyl-5,6,6a,7-tetrahydro-4H-dibenzo[de,g]quinoline
Formula: C19H21NO2
Exact mass: 295.1572
SMILES: CN1CCc2cc(c(c-3c2[C@H]1Cc4c3cccc4)OC)OC
InChI: InChI=1S/C19H21NO2/c1-20-9-8-13-11-16(21-2)19(22-3)18-14-7-5-4-6-12(14)10-15(20)17(13)18/h4-7,11,15H,8-10H2,1-3H3/t15-/m1/s1
Instrument: LTQ Orbitrap XL Thermo Scientific
Instrument type: LC-ESI-ITFT
Ms type: MS2
Ion mode: POSITIVE
Ionization: ESI
Fragmentation mode: HCD
Collision energy: 95% (nominal)
Resolution: 15000
Column name: Kinetex Evo C18 2.6 um 50 x 2.1 mm
Retention time: 7.626 min
Base peak: 296.1643
Precursor m/z: 296.1645
Precursor type: [M+H]+
m/z	relative intensity	assigned
128.0621	20	C10H8+
141.0701	10	C11H9+
152.0623	13	C12H8+
153.0702	12	C12H9+
164.0622	4	C13H8+
165.07	147	C13H9+
166.0774	13	C13H10+
167.0857	20	C13H11+
176.0626	9	C14H8+
177.0701	58	C14H9+
178.0778	563	C14H10+
179.0856	940	C14H11+
180.0571	9	C13H8O+
180.0941	5	C14H12+
181.0649	7	C13H9O+
189.07	462	C15H9+
190.0778	255	C15H10+
191.0856	999	C15H11+
192.0566	6	C14H8O+
192.0933	37	C15H12+
193.0648	68	C14H9O+
193.1012	92	C15H13+
194.0728	8	C14H10O+
194.109	4	C15H14+
195.0806	27	C14H11O+
201.07	28	C16H9+
202.0778	249	C16H10+
203.0855	400	C16H11+
204.0934	39	C16H12+
205.0647	105	C15H9O+
205.1012	45	C16H13+
206.0728	26	C15H10O+
207.0804	477	C15H11O+
208.089	4	C15H12O+
214.0772	10	C17H10+
215.0856	28	C17H11+
217.0648	139	C16H9O+
218.0726	131	C16H10O+
219.0805	307	C16H11O+
220.0527	10	C15H8O2+
220.0883	23	C16H12O+
221.0597	107	C15H9O2+
221.0961	119	C16H13O+
222.1037	17	C16H14O+
223.0758	10	C15H11O2+
231.0804	65	C17H11O+
232.0883	9	C17H12O+
233.0601	20	C16H9O2+
233.096	83	C17H13O+
234.0675	13	C16H10O2+
234.104	60	C17H14O+
235.0753	468	C16H11O2+
249.0909	64	C17H13O2+
250.0991	18	C17H14O2+
