Mass spectrum: Homoharringtonine; LC-ESI-ITFT; MS2; CE: 70%; R=15000; [M+H]+
Name: Homoharringtonine
Name: Omacetaxine mepesuccinate
Name: 1-O-[(2S,3S,6R)-4-methoxy-16,18-dioxa-10-azapentacyclo[11.7.0.02,6.06,10.015,19]icosa-1(20),4,13,15(19)-tetraen-3-yl] 4-O-methyl (2R)-2-hydroxy-2-(4-hydroxy-4-methylpentyl)butanedioate
Formula: C29H39NO9
Exact mass: 545.2625
SMILES: CC(C)(CCC[C@@](CC(=O)OC)(C(=O)O[C@H]1[C@H]2c3cc4c(cc3CCN5[C@@]2(CCC5)C=C1OC)OCO4)O)O
InChI: InChI=1S/C29H39NO9/c1-27(2,33)8-5-10-29(34,16-23(31)36-4)26(32)39-25-22(35-3)15-28-9-6-11-30(28)12-7-18-13-20-21(38-17-37-20)14-19(18)24(25)28/h13-15,24-25,33-34H,5-12,16-17H2,1-4H3/t24-,25-,28+,29-/m1/s1
Instrument: LTQ Orbitrap XL Thermo Scientific
Instrument type: LC-ESI-ITFT
Ms type: MS2
Ion mode: POSITIVE
Ionization: ESI
Fragmentation mode: HCD
Collision energy: 70% (nominal)
Resolution: 15000
Column name: Kinetex Evo C18 2.6 um 50 x 2.1 mm
Retention time: 7.126 min
Base peak: 546.2685
Precursor m/z: 546.2698
Precursor type: [M+H]+
m/z	relative intensity	assigned
55.0177	19	C3H3O+
55.054	16	C4H7+
59.049	41	C3H7O+
69.0698	17	C5H9+
70.065	32	C4H8N+
79.0542	27	C6H7+
81.0699	8	C6H9+
85.0647	34	C5H9O+
91.0542	44	C7H7+
93.0699	70	C7H9+
94.0652	15	C6H8N+
95.0491	11	C6H7O+
96.0806	23	C6H10N+
97.0285	17	C5H5O2+
103.0541	20	C8H7+
105.0702	10	C8H9+
107.0855	78	C8H11+
108.0571	9	C7H8O+
109.0647	77	C7H9O+
110.0599	31	C6H8NO+
111.0675	11	C6H9NO+
111.0803	18	C7H11O+
115.0541	53	C9H7+
117.0704	8	C9H9+
118.0649	22	C8H8N+
119.0492	17	C8H7O+
120.0808	28	C8H10N+
121.0648	18	C8H9O+
123.0806	47	C8H11O+
124.0755	8	C7H10NO+
125.0957	11	C8H13O+
126.0913	60	C7H12NO+
129.0543	15	C6H9O3+
129.0698	10	C10H9+
131.0492	56	C9H7O+
135.0441	44	C8H7O2+
135.0807	13	C9H11O+
141.0699	19	C11H9+
142.0649	24	C10H8N+
143.049	38	C10H7O+
148.0756	31	C9H10NO+
149.0596	87	C9H9O2+
150.0913	640	C9H12NO+
152.0625	8	C12H8+
153.0698	40	C12H9+
153.0908	9	C9H13O2+
155.0853	19	C12H11+
157.0646	16	C11H9O+
159.044	64	C10H7O2+
160.0515	8	C10H8O2+
161.0597	26	C10H9O2+
165.0698	116	C13H9+
167.0492	19	C12H7O+
167.0726	9	C12H9N+
167.0852	45	C13H11+
168.0806	36	C12H10N+
169.0647	23	C12H9O+
169.0889	8	C12H11N+
170.0598	35	C11H8NO+
170.0964	10	C12H12N+
171.0804	32	C12H11O+
172.0521	21	C11H8O2+
173.0597	74	C11H9O2+
174.0547	39	C10H8NO2+
175.0625	20	C10H9NO2+
176.0705	200	C10H10NO2+
178.0776	26	C14H10+
179.0853	102	C14H11+
180.0807	29	C13H10N+
181.0647	55	C13H9O+
181.1009	26	C14H13+
182.0726	43	C13H10O+
182.0962	46	C13H12N+
183.0803	44	C13H11O+
185.0597	71	C12H9O2+
186.0675	11	C12H10O2+
187.0627	9	C11H9NO2+
187.0753	40	C12H11O2+
189.0786	10	C11H11NO2+
190.0774	16	C15H10+
190.0871	9	C11H12NO2+
191.0854	99	C15H11+
192.0804	11	C14H10N+
192.0932	19	C15H12+
193.0647	51	C14H9O+
193.0885	23	C14H11N+
193.1012	18	C15H13+
194.0725	12	C14H10O+
195.0804	123	C14H11O+
196.0758	35	C13H10NO+
196.0892	10	C14H12O+
196.1124	10	C14H14N+
197.0596	42	C13H9O2+
197.0843	7	C13H11NO+
197.096	55	C14H13O+
198.068	21	C13H10O2+
198.0914	27	C13H12NO+
199.039	15	C12H7O3+
199.0627	57	C12H9NO2+
199.0753	65	C13H11O2+
200.047	20	C12H8O3+
200.0708	46	C12H10NO2+
200.1068	8	C13H14NO+
202.0868	27	C12H12NO2+
207.0805	57	C15H11O+
208.0757	20	C14H10NO+
208.0883	61	C15H12O+
208.1119	182	C15H14N+
209.0595	65	C14H9O2+
209.0966	29	C15H13O+
210.0676	85	C14H10O2+
210.0916	55	C14H12NO+
210.1284	10	C15H16N+
211.0631	40	C13H9NO2+
211.0755	73	C14H11O2+
211.1127	16	C15H15O+
212.0707	81	C13H10NO2+
212.1073	20	C14H14NO+
213.0792	33	C13H11NO2+
213.091	25	C14H13O2+
214.0862	140	C13H12NO2+
215.0701	66	C13H11O3+
216.1022	30	C13H14NO2+
219.0802	41	C16H11O+
221.0594	13	C15H9O2+
221.0829	10	C15H11NO+
222.068	29	C15H10O2+
222.0919	22	C15H12NO+
223.0753	209	C15H11O2+
223.1115	85	C16H15O+
224.0714	50	C14H10NO2+
224.1077	32	C15H14NO+
225.0546	47	C14H9O3+
225.0787	34	C14H11NO2+
225.0912	64	C15H13O2+
225.1152	32	C15H15NO+
226.0862	549	C14H12NO2+
227.0577	107	C13H9NO3+
227.0944	346	C14H13NO2+
228.0658	43	C13H10NO3+
228.0784	12	C14H12O3+
228.1029	99	C14H14NO2+
229.0863	34	C14H13O3+
229.1097	227	C14H15NO2+
235.0748	10	C16H11O2+
236.0832	35	C16H12O2+
236.1068	113	C16H14NO+
237.0784	23	C15H11NO2+
237.0913	52	C16H13O2+
237.1172	8	C6H21O9+
238.0626	34	C15H10O3+
238.0862	215	C15H12NO2+
238.1227	68	C16H16NO+
239.0707	42	C15H11O3+
239.1072	18	C16H15O2+
240.0781	56	C15H12O3+
240.1017	999	C15H14NO2+
241.0741	10	C14H11NO3+
242.081	180	C14H12NO3+
242.118	23	C15H16NO2+
243.101	8	C15H15O3+
249.0914	22	C17H13O2+
250.0863	60	C16H12NO2+
251.0943	119	C16H13NO2+
251.1065	78	C17H15O2+
252.1022	159	C16H14NO2+
253.086	53	C16H13O3+
253.1103	115	C16H15NO2+
254.0814	54	C15H12NO3+
254.118	143	C16H16NO2+
255.0892	62	C15H13NO3+
256.0974	40	C15H14NO3+
256.1334	17	C16H18NO2+
264.1016	67	C17H14NO2+
266.1173	602	C17H16NO2+
267.126	262	C17H17NO2+
268.0966	281	C16H14NO3+
270.1122	78	C16H16NO3+
282.1124	151	C17H16NO3+
283.12	21	C17H17NO3+
284.1281	156	C17H18NO3+
294.1122	21	C18H16NO3+
296.1284	22	C18H18NO3+
298.1436	113	C18H20NO3+
316.154	11	C18H22NO4+
