Mass spectrum: 4-Phenyl-3-buten-2-one; LC-ESI-ITFT; MS2; CE: 65%; R=15000; [M+H]+
Name: 4-Phenyl-3-buten-2-one
Formula: C10H10O
Exact mass: 146.0732
SMILES: CC(=O)\C=C\C1=CC=CC=C1
InChI: InChI=1S/C10H10O/c1-9(11)7-8-10-5-3-2-4-6-10/h2-8H,1H3/b8-7+
Instrument: LTQ Orbitrap XL Thermo Scientific
Instrument type: LC-ESI-ITFT
Ms type: MS2
Ion mode: POSITIVE
Ionization: ESI
Fragmentation mode: CID
Collision energy: 65 % (nominal)
Resolution: 15000
Column name: Kinetex Evo C18 2.6 um 50 x 2.1 mm
Retention time: 9.430 min
Base peak: 147.0804
Precursor m/z: 147.0804
Precursor type: [M+H]+
m/z	relative intensity	assigned
91.0542	6	C7H7+
105.0699	1	C8H9+
117.0701	3	C9H9+
119.0492	3	C8H7O+
119.0856	20	C9H11+
128.0621	4	C10H8+
129.0699	999	C10H9+
