Mass spectrum: Echimidine; LC-ESI-ITFT; MS2; CE: 90%; R=15000; [M+H]+
Name: Echimidine
Name: [(7R,8R)-7-[(Z)-2-methylbut-2-enoyl]oxy-5,6,7,8-tetrahydro-3H-pyrrolizin-1-yl]methyl (2R)-2,3-dihydroxy-2-[(1S)-1-hydroxyethyl]-3-methylbutanoate
Formula: C20H31NO7
Exact mass: 397.2101
SMILES: C/C=C(/C)\C(=O)O[C@@H]1CCN2[C@@H]1C(=CC2)COC(=O)[C@@]([C@H](C)O)(C(C)(C)O)O
InChI: InChI=1S/C20H31NO7/c1-6-12(2)17(23)28-15-8-10-21-9-7-14(16(15)21)11-27-18(24)20(26,13(3)22)19(4,5)25/h6-7,13,15-16,22,25-26H,8-11H2,1-5H3/b12-6-/t13-,15+,16+,20-/m0/s1
Instrument: LTQ Orbitrap XL Thermo Scientific
Instrument type: LC-ESI-ITFT
Ms type: MS2
Ion mode: POSITIVE
Ionization: ESI
Fragmentation mode: HCD
Collision energy: 90% (nominal)
Resolution: 15000
Column name: Kinetex Evo C18 2.6 um 50 x 2.1 mm
Retention time: 6.463 min
Base peak: 398.217
Precursor m/z: 398.2173
Precursor type: [M+H]+
m/z	relative intensity	assigned
55.0541	51	C4H7+
59.0491	2	C3H7O+
65.0385	8	C5H5+
67.0416	5	C4H5N+
67.0541	16	C5H7+
68.0494	10	C4H6N+
77.0386	36	C6H5+
79.0542	37	C6H7+
80.0495	86	C5H6N+
81.0573	3	C5H7N+
81.0698	4	C6H9+
82.0651	15	C5H8N+
83.0491	130	C5H7O+
91.0542	80	C7H7+
92.0494	51	C6H6N+
93.0573	13	C6H7N+
93.0698	91	C7H9+
94.0651	79	C6H8N+
94.0779	4	C7H10+
95.049	6	C6H7O+
95.0729	12	C6H9N+
96.0807	34	C6H10N+
103.0542	65	C8H7+
104.0497	2	C7H6N+
105.0572	64	C7H7N+
106.0651	8	C7H8N+
107.0732	2	C7H9N+
108.0807	40	C7H10N+
110.06	26	C6H8NO+
110.0965	10	C7H12N+
112.0752	4	C6H10NO+
118.0651	64	C8H8N+
119.0728	21	C8H9N+
120.0807	999	C8H10N+
121.0885	14	C8H11N+
122.0962	10	C8H12N+
138.0913	63	C8H12NO+
156.1022	8	C8H14NO2+
238.144	6	C13H20NO3+
