Mass spectrum: Senkirkine; LC-ESI-ITFT; MS2; CE: 100%; R=15000; [M+H]+
Name: Senkirkine
Name: (1R,4Z,6R,7R,11Z)-4-ethylidene-7-hydroxy-6,7,14-trimethyl-2,9-dioxa-14-azabicyclo[9.5.1]heptadec-11-ene-3,8,17-trione
Formula: C19H27NO6
Exact mass: 365.1838
SMILES: C/C=C\1/C[C@H]([C@@](C(=O)OC/C/2=C/CN(CC[C@H](C2=O)OC1=O)C)(C)O)C
InChI: InChI=1S/C19H27NO6/c1-5-13-10-12(2)19(3,24)18(23)25-11-14-6-8-20(4)9-7-15(16(14)21)26-17(13)22/h5-6,12,15,24H,7-11H2,1-4H3/b13-5-,14-6-/t12-,15-,19-/m1/s1
Instrument: LTQ Orbitrap XL Thermo Scientific
Instrument type: LC-ESI-ITFT
Ms type: MS2
Ion mode: POSITIVE
Ionization: ESI
Fragmentation mode: HCD
Collision energy: 100% (nominal)
Resolution: 15000
Column name: Kinetex Evo C18 2.6 um 50 x 2.1 mm
Retention time: 6.359 min
Base peak: 366.1908
Precursor m/z: 366.1911
Precursor type: [M+H]+
m/z	relative intensity	assigned
53.0385	13	C4H5+
55.0542	12	C4H7+
65.0385	17	C5H5+
67.0541	117	C5H7+
68.0493	14	C4H6N+
69.0335	39	C4H5O+
69.0699	11	C5H9+
70.065	999	C4H8N+
71.049	7	C4H7O+
77.0385	153	C6H5+
79.0542	428	C6H7+
80.0494	12	C5H6N+
81.0334	19	C5H5O+
81.0573	23	C5H7N+
81.0698	114	C6H9+
82.0651	79	C5H8N+
83.0491	51	C5H7O+
84.0807	16	C5H10N+
91.0541	212	C7H7+
92.0493	10	C6H6N+
93.0571	29	C6H7N+
93.0699	19	C7H9+
94.065	760	C6H8N+
95.049	176	C6H7O+
95.0731	10	C6H9N+
96.0446	13	C5H6NO+
96.0807	111	C6H10N+
97.0284	9	C5H5O2+
97.0647	52	C6H9O+
98.0599	53	C5H8NO+
101.0596	14	C5H9O2+
105.0698	67	C8H9+
106.0651	26	C7H8N+
107.049	158	C7H7O+
107.0729	106	C7H9N+
107.0854	142	C8H11+
108.0807	35	C7H10N+
109.0521	6	C6H7NO+
109.0645	23	C7H9O+
109.1008	11	C8H13+
110.0599	553	C6H8NO+
111.044	6	C6H7O2+
112.0756	37	C6H10NO+
115.054	10	C9H7+
117.0574	19	C8H7N+
117.0698	8	C9H9+
120.0807	39	C8H10N+
121.0883	12	C8H11N+
122.0599	358	C7H8NO+
122.0963	71	C8H12N+
123.0678	37	C7H9NO+
124.0756	28	C7H10NO+
125.0596	46	C7H9O2+
125.0835	5	C7H11NO+
125.0961	23	C8H13O+
132.0805	16	C9H10N+
134.0596	8	C8H8NO+
135.0802	20	C9H11O+
137.0832	14	C8H11NO+
140.0705	395	C7H10NO2+
148.0757	9	C9H10NO+
150.0913	27	C9H12NO+
168.1018	273	C9H14NO2+
