Mass spectrum: Senecivernine; LC-ESI-ITFT; MS2; CE: 75%; R=15000; [M+H]+
Name: Senecivernine
Name: (1R,5R,6R,7R,17R)-7-hydroxy-5,6,7-trimethyl-4-methylidene-2,9-dioxa-14-azatricyclo[9.5.1.014,17]heptadec-11-ene-3,8-dione
Formula: C18H25NO5
Exact mass: 335.1733
SMILES: C[C@@H]1[C@H]([C@@](C(=O)OCC2=CCN3[C@H]2[C@@H](CC3)OC(=O)C1=C)(C)O)C
InChI: InChI=1S/C18H25NO5/c1-10-11(2)16(20)24-14-6-8-19-7-5-13(15(14)19)9-23-17(21)18(4,22)12(10)3/h5,10,12,14-15,22H,2,6-9H2,1,3-4H3/t10-,12+,14+,15+,18+/m0/s1
Instrument: LTQ Orbitrap XL Thermo Scientific
Instrument type: LC-ESI-ITFT
Ms type: MS2
Ion mode: POSITIVE
Ionization: ESI
Fragmentation mode: HCD
Collision energy: 75% (nominal)
Resolution: 15000
Column name: Kinetex Evo C18 2.6 um 50 x 2.1 mm
Retention time: 3.393 min
Base peak: 143.0015
Precursor m/z: 336.1805
Precursor type: [M+H]+
m/z	relative intensity	assigned
53.0386	21	C4H5+
67.0542	240	C5H7+
68.0494	125	C4H6N+
77.0386	49	C6H5+
79.0543	250	C6H7+
80.0495	180	C5H6N+
81.0574	55	C5H7N+
81.0699	475	C6H9+
82.0651	133	C5H8N+
83.0491	51	C5H7O+
84.0445	32	C4H6NO+
91.0542	238	C7H7+
92.0495	34	C6H6N+
93.057	32	C6H7N+
93.0699	240	C7H9+
94.0651	591	C6H8N+
95.0494	26	C6H7O+
95.0728	40	C6H9N+
95.0853	34	C7H11+
96.0442	23	C5H6NO+
96.0808	334	C6H10N+
103.0542	135	C8H7+
105.07	79	C8H9+
106.0653	57	C7H8N+
107.0731	36	C7H9N+
107.0855	144	C8H11+
108.0808	300	C7H10N+
109.0648	58	C7H9O+
109.0887	76	C7H11N+
109.1011	46	C8H13+
110.0601	46	C6H8NO+
110.0964	152	C7H12N+
111.0441	128	C6H7O2+
111.0678	25	C6H9NO+
111.0805	23	C7H11O+
118.065	97	C8H8N+
119.0734	23	C8H9N+
119.0858	34	C9H11+
120.0808	999	C8H10N+
121.0888	67	C8H11N+
122.0964	158	C8H12N+
125.0959	70	C8H13O+
136.0754	70	C8H10NO+
137.0962	19	C9H13O+
138.0913	766	C8H12NO+
153.0909	96	C9H13O2+
154.0861	65	C8H12NO2+
156.1011	24	C8H14NO2+
220.1334	89	C13H18NO2+
308.1855	111	C17H26NO4+
336.1811	65	C18H26NO5+
