Mass spectrum: Gelsemine; LC-ESI-ITFT; MS2; CE: 50%; R=15000; [M+H]+
Name: Gelsemine
Name: (2`S,3S,5`S,6`S,11`S)-2`-ethenyl-4`-methylspiro[1H-indole-3,7`-9-oxa-4-azatetracyclo[6.3.1.02,6.05,11]dodecane]-2-one
Formula: C20H22N2O2
Exact mass: 322.1681
SMILES: CN1C[C@@]2([C@@H]3[C@H]1[C@@H]4C2CC([C@@]35c6ccccc6NC5=O)OC4)C=C
InChI: InChI=1S/C20H22N2O2/c1-3-19-10-22(2)16-11-9-24-15(8-13(11)19)20(17(16)19)12-6-4-5-7-14(12)21-18(20)23/h3-7,11,13,15-17H,1,8-10H2,2H3,(H,21,23)/t11-,13?,15?,16+,17-,19-,20-/m0/s1
Instrument: LTQ Orbitrap XL Thermo Scientific
Instrument type: LC-ESI-ITFT
Ms type: MS2
Ion mode: POSITIVE
Ionization: ESI
Fragmentation mode: HCD
Collision energy: 50% (nominal)
Resolution: 15000
Column name: Kinetex Evo C18 2.6 um 50 x 2.1 mm
Retention time: 1.783 min
Base peak: 323.1752
Precursor m/z: 323.1754
Precursor type: [M+H]+
m/z	relative intensity	assigned
70.065	676	C4H8N+
81.0335	5	C5H5O+
86.06	57	C4H8NO+
88.0756	34	C4H10NO+
91.0543	8	C7H7+
93.0699	6	C7H9+
94.065	4	C6H8N+
96.0812	4	C6H10N+
105.0701	13	C8H9+
117.0698	57	C9H9+
129.0698	5	C10H9+
131.0855	71	C10H11+
132.0444	22	C8H6NO+
134.0601	6	C8H8NO+
134.0964	14	C9H12N+
135.1038	4	C9H13N+
146.06	49	C9H8NO+
148.1118	10	C10H14N+
158.0601	34	C10H8NO+
159.0804	58	C11H11O+
160.1114	6	C11H14N+
162.1278	16	C11H16N+
165.1151	4	C10H15NO+
172.0755	8	C11H10NO+
184.0756	13	C12H10NO+
190.1225	22	C12H16NO+
191.1307	16	C12H17NO+
195.0678	52	C13H9NO+
196.0757	46	C13H10NO+
208.0758	8	C14H10NO+
210.0913	61	C14H12NO+
210.1276	6	C15H16N+
218.0964	12	C16H12N+
222.0916	7	C15H12NO+
234.0903	5	C16H12NO+
236.1069	402	C16H14NO+
238.1225	108	C16H16NO+
248.1068	10	C17H14NO+
262.1229	20	C18H16NO+
264.1385	8	C18H18NO+
274.1227	15	C19H16NO+
279.1489	5	C18H19N2O+
292.1329	12	C19H18NO2+
293.1654	10	C19H21N2O+
305.1644	8	C20H21N2O+
323.1754	999	C20H23N2O2+
