Mass spectrum: Anabasine; LC-ESI-ITFT; MS2; CE: 110%; R=15000; [M+H]+
Name: Anabasine
Formula: C10H14N2
Exact mass: 162.1157
SMILES: C1CCC(NC1)C1=CC=CN=C1
InChI: InChI=1S/C10H14N2/c1-2-7-12-10(5-1)9-4-3-6-11-8-9/h3-4,6,8,10,12H,1-2,5,7H2
Instrument: LTQ Orbitrap XL Thermo Scientific
Instrument type: LC-ESI-ITFT
Ms type: MS2
Ion mode: POSITIVE
Ionization: ESI
Fragmentation mode: HCD
Collision energy: 110 % (nominal)
Resolution: 15000
Column name: Kinetex Evo C18 2.6 um 50 x 2.1 mm
Retention time: 0.481 min
Base peak: 249.1958
Precursor m/z: 163.123
Precursor type: [M+H]+
m/z	relative intensity	assigned
65.0385	104	C5H5+
67.0541	21	C5H7+
70.0652	8	C4H8N+
77.0386	12	C6H5+
78.0335	12	C5H4N+
79.0417	42	C5H5N+
79.0541	13	C6H7+
80.0494	120	C5H6N+
84.0807	48	C5H10N+
90.0464	22	C7H6+
91.0542	600	C7H7+
92.0494	674	C6H6N+
93.0572	361	C6H7N+
94.0651	251	C6H8N+
103.0542	11	C8H7+
104.0495	15	C7H6N+
105.0695	8	C8H9+
106.065	139	C7H8N+
107.0727	15	C7H9N+
115.054	12	C9H7+
117.0573	800	C8H7N+
118.0651	999	C8H8N+
119.073	10	C8H9N+
120.0807	116	C8H10N+
128.062	28	C10H8+
129.0698	14	C10H9+
130.065	663	C9H8N+
131.0729	177	C9H9N+
132.0807	98	C9H10N+
134.0964	50	C9H12N+
143.0731	15	C10H9N+
144.0807	110	C10H10N+
146.0963	52	C10H12N+
155.0605	12	C10H7N2+
163.123	11	C10H15N2+
