Mass spectrum: Norharmane; LC-ESI-ITFT; MS2; CE: 110%; R=15000; [M+H]+
Name: Norharmane
Name: Norharman
Name: 9H-pyrido[3,4-b]indole
Formula: C11H8N2
Exact mass: 168.0687
SMILES: N1C2=C(C=CC=C2)C2=C1C=NC=C2
InChI: InChI=1S/C11H8N2/c1-2-4-10-8(3-1)9-5-6-12-7-11(9)13-10/h1-7,13H
Instrument: LTQ Orbitrap XL Thermo Scientific
Instrument type: LC-ESI-ITFT
Ms type: MS2
Ionization: ESI
Ion mode: POSITIVE
Fragmentation mode: HCD
Collision energy: 110 % (nominal)
Resolution: 15000
Column name: Kinetex Evo C18 2.6 um 50 x 2.1 mm
Retention time: 6.991 min
Base peak: 169.0765
Precursor m/z: 169.076
Precursor type: [M+H]+
m/z	relative intensity	assigned
77.0385	3	C6H5+
79.0416	6	C5H5N+
91.0544	7	C7H7+
102.0466	2	C8H6+
105.0451	2	C6H5N2+
114.0466	8	C9H6+
115.0543	405	C9H7+
116.0495	32	C8H6N+
117.0573	12	C8H7N+
128.0496	6	C9H6N+
129.0447	5	C8H5N2+
129.0574	13	C9H7N+
132.057	1	C9H8O+
134.0601	3	C8H8NO+
140.0495	56	C10H6N+
141.057	56	C10H7N+
142.0651	169	C10H8N+
152.0497	10	C11H6N+
167.0605	41	C11H7N2+
168.0683	894	C11H8N2+
169.076	999	C11H9N2+
