Mass spectrum: Pilocarpine; LC-ESI-ITFT; MS2; CE: 45%; R=15000; [M+H]+
Name: Pilocarpine
Name: (3S,4R)-3-ethyl-4-[(3-methylimidazol-4-yl)methyl]oxolan-2-one
Formula: C11H16N2O2
Exact mass: 208.1212
SMILES: CC[C@H]1[C@H](COC1=O)Cc2cncn2C
InChI: InChI=1S/C11H16N2O2/c1-3-10-8(6-15-11(10)14)4-9-5-12-7-13(9)2/h5,7-8,10H,3-4,6H2,1-2H3/t8-,10-/m0/s1
Instrument: LTQ Orbitrap XL Thermo Scientific
Instrument type: LC-ESI-ITFT
Ms type: MS2
Ion mode: POSITIVE
Ionization: ESI
Fragmentation mode: HCD
Collision energy: 45% (nominal)
Resolution: 15000
Column name: Kinetex Evo C18 2.6 um 50x2.1 mm, Phenomenex
Retention time: 0.630 min
Base peak: 209.1283
Precursor m/z: 209.1285
Precursor type: [M+H]+
m/z	relative intensity	assigned
95.0604	31	C5H7N2+
96.0682	15	C5H8N2+
97.0757	1	C5H9N2+
109.0761	2	C6H9N2+
121.0761	9	C7H9N2+
122.0838	1	C7H10N2+
122.0963	2	C8H12N+
135.0918	2	C8H11N2+
151.1227	2	C9H15N2+
163.1231	52	C10H15N2+
181.1336	3	C10H17N2O+
182.1176	1	C10H16NO2+
191.1176	4	C11H15N2O+
209.1285	999	C11H17N2O2+
