Mass spectrum: trans-Zeatin; LC-ESI-ITFT; MS2; CE: 60%; R=15000; [M+H]+
Name: trans-Zeatin
Formula: C10H13N5O
Exact mass: 219.1120
SMILES: C\C(CO)=C/CNC1=C2N=CNC2=NC=N1
InChI: InChI=1S/C10H13N5O/c1-7(4-16)2-3-11-9-8-10(13-5-12-8)15-6-14-9/h2,5-6,16H,3-4H2,1H3,(H2,11,12,13,14,15)/b7-2+
Instrument: LTQ Orbitrap XL Thermo Scientific
Instrument type: LC-ESI-ITFT
Ms type: MS2
Ion mode: POSITIVE
Ionization: ESI
Fragmentation mode: HCD
Collision energy: 60 % (nominal)
Resolution: 15000
Column name: Kinetex Evo C18 2.6 um 50 x 2.1 mm
Retention time: 0.960 min
Base peak: 220.1188
Precursor m/z: 220.1193
Precursor type: [M+H]+
m/z	relative intensity	assigned
67.0542	15	C5H7+
68.0493	2	C4H6N+
84.0806	1	C5H10N+
94.0654	2	C6H8N+
119.0351	51	C5H3N4+
135.0668	5	C6H7N4+
136.0616	999	C5H6N5+
137.0457	9	C5H5N4O+
148.0616	71	C6H6N5+
159.0664	10	C8H7N4+
175.0972	3	C9H11N4+
185.0821	17	C10H9N4+
187.0847	2	C9H9N5+
202.1085	9	C10H12N5+
220.1196	3	C10H14N5O+
