Mass spectrum: Homoharringtonine; LC-ESI-ITFT; MS2; CE: 65%; R=15000; [M+H]+
Name: Homoharringtonine
Name: Omacetaxine mepesuccinate
Name: 1-O-[(2S,3S,6R)-4-methoxy-16,18-dioxa-10-azapentacyclo[11.7.0.02,6.06,10.015,19]icosa-1(20),4,13,15(19)-tetraen-3-yl] 4-O-methyl (2R)-2-hydroxy-2-(4-hydroxy-4-methylpentyl)butanedioate
Formula: C29H39NO9
Exact mass: 545.2625
SMILES: CC(C)(CCC[C@@](CC(=O)OC)(C(=O)O[C@H]1[C@H]2c3cc4c(cc3CCN5[C@@]2(CCC5)C=C1OC)OCO4)O)O
InChI: InChI=1S/C29H39NO9/c1-27(2,33)8-5-10-29(34,16-23(31)36-4)26(32)39-25-22(35-3)15-28-9-6-11-30(28)12-7-18-13-20-21(38-17-37-20)14-19(18)24(25)28/h13-15,24-25,33-34H,5-12,16-17H2,1-4H3/t24-,25-,28+,29-/m1/s1
Instrument: LTQ Orbitrap XL Thermo Scientific
Instrument type: LC-ESI-ITFT
Ms type: MS2
Ion mode: POSITIVE
Ionization: ESI
Fragmentation mode: HCD
Collision energy: 65% (nominal)
Resolution: 15000
Column name: Kinetex Evo C18 2.6 um 50 x 2.1 mm
Retention time: 7.126 min
Base peak: 546.2685
Precursor m/z: 546.2698
Precursor type: [M+H]+
m/z	relative intensity	assigned
55.0177	16	C3H3O+
55.0542	7	C4H7+
59.049	47	C3H7O+
69.0697	18	C5H9+
70.0651	36	C4H8N+
79.0543	14	C6H7+
81.0697	8	C6H9+
83.0856	9	C6H11+
85.0647	33	C5H9O+
91.0542	38	C7H7+
93.0698	96	C7H9+
94.0651	10	C6H8N+
95.0493	15	C6H7O+
96.0805	10	C6H10N+
97.0283	10	C5H5O2+
97.0647	11	C6H9O+
100.0754	11	C5H10NO+
103.054	17	C8H7+
105.07	7	C8H9+
107.0854	95	C8H11+
108.0567	13	C7H8O+
109.0647	96	C7H9O+
110.06	33	C6H8NO+
111.0679	18	C6H9NO+
111.0805	14	C7H11O+
115.054	30	C9H7+
117.0699	9	C9H9+
118.0649	13	C8H8N+
119.0489	14	C8H7O+
120.0809	29	C8H10N+
121.0648	26	C8H9O+
123.0803	78	C8H11O+
124.076	13	C7H10NO+
125.0597	21	C7H9O2+
125.096	13	C8H13O+
126.0912	66	C7H12NO+
129.0545	19	C6H9O3+
129.0694	13	C10H9+
131.049	48	C9H7O+
135.0439	44	C8H7O2+
141.07	16	C11H9+
142.0652	20	C10H8N+
143.0491	34	C10H7O+
148.0759	19	C9H10NO+
149.0596	93	C9H9O2+
150.0912	701	C9H12NO+
153.0694	27	C12H9+
153.091	9	C9H13O2+
155.0857	16	C12H11+
157.0648	16	C11H9O+
159.044	57	C10H7O2+
160.0516	10	C10H8O2+
161.0596	36	C10H9O2+
163.0992	8	C10H13NO+
165.0698	68	C13H9+
167.0491	13	C12H7O+
167.0855	30	C13H11+
168.0807	26	C12H10N+
169.0649	17	C12H9O+
170.0599	39	C11H8NO+
171.0804	37	C12H11O+
172.0515	12	C11H8O2+
173.0595	78	C11H9O2+
174.0549	40	C10H8NO2+
175.0626	17	C10H9NO2+
176.0705	200	C10H10NO2+
178.0782	11	C14H10+
179.0854	77	C14H11+
180.0809	17	C13H10N+
180.0928	10	C14H12+
181.0648	43	C13H9O+
181.1011	27	C14H13+
182.0723	26	C13H10O+
182.0962	22	C13H12N+
183.0804	29	C13H11O+
185.0595	67	C12H9O2+
186.0683	14	C12H10O2+
187.063	9	C11H9NO2+
187.0753	37	C12H11O2+
190.0856	7	C11H12NO2+
191.0854	112	C15H11+
192.0935	17	C15H12+
193.0648	45	C14H9O+
193.0879	16	C14H11N+
193.1008	16	C15H13+
194.0732	10	C14H10O+
195.0803	106	C14H11O+
196.0756	24	C13H10NO+
196.0878	9	C14H12O+
197.0594	40	C13H9O2+
197.0961	61	C14H13O+
198.0546	7	C12H8NO2+
198.0678	17	C13H10O2+
198.0915	16	C13H12NO+
199.0626	53	C12H9NO2+
199.0752	65	C13H11O2+
200.0468	25	C12H8O3+
200.0707	52	C12H10NO2+
202.0856	33	C12H12NO2+
207.0802	49	C15H11O+
208.0759	15	C14H10NO+
208.0886	45	C15H12O+
208.1119	157	C15H14N+
209.0597	53	C14H9O2+
209.0966	35	C15H13O+
210.0675	63	C14H10O2+
210.0914	36	C14H12NO+
210.1274	12	C15H16N+
211.0634	27	C13H9NO2+
211.0753	63	C14H11O2+
211.1117	15	C15H15O+
212.0706	77	C13H10NO2+
212.0833	9	C14H12O2+
212.1066	20	C14H14NO+
213.079	24	C13H11NO2+
213.0911	29	C14H13O2+
214.0862	121	C13H12NO2+
215.0701	83	C13H11O3+
216.1014	36	C13H14NO2+
219.0804	59	C16H11O+
220.0892	20	C16H12O+
221.0598	10	C15H9O2+
221.0836	14	C15H11NO+
221.0959	14	C16H13O+
222.0671	31	C15H10O2+
222.0913	15	C15H12NO+
223.0753	241	C15H11O2+
223.1116	135	C16H15O+
225.0542	46	C14H9O3+
225.0786	35	C14H11NO2+
225.091	79	C15H13O2+
225.115	29	C15H15NO+
226.0861	523	C14H12NO2+
226.1225	30	C15H16NO+
227.0577	80	C13H9NO3+
227.0943	454	C14H13NO2+
228.0658	43	C13H10NO3+
228.0792	11	C14H12O3+
228.0938	41	C18H12+
229.0856	65	C14H13O3+
229.1097	288	C14H15NO2+
235.0751	10	C16H11O2+
236.0831	34	C16H12O2+
236.1069	139	C16H14NO+
237.0783	24	C15H11NO2+
237.0911	78	C16H13O2+
237.1175	11	C6H21O9+
238.0627	46	C15H10O3+
238.0862	197	C15H12NO2+
238.1228	54	C16H16NO+
239.0702	46	C15H11O3+
239.0952	44	C15H13NO2+
239.1069	29	C16H15O2+
240.0786	78	C15H12O3+
240.1016	999	C15H14NO2+
241.0868	24	C15H13O3+
241.1153	8	C8H19NO7+
242.081	208	C14H12NO3+
242.1172	30	C15H16NO2+
249.0906	27	C17H13O2+
250.0864	52	C16H12NO2+
250.0991	15	C17H14O2+
251.094	144	C16H13NO2+
251.1065	151	C17H15O2+
252.0783	19	C16H12O3+
252.1026	142	C16H14NO2+
253.0858	91	C16H13O3+
253.11	150	C16H15NO2+
254.0814	47	C15H12NO3+
254.1178	154	C16H16NO2+
255.089	79	C15H13NO3+
255.1003	25	C16H15O3+
256.0971	47	C15H14NO3+
256.1339	19	C16H18NO2+
264.1018	57	C17H14NO2+
266.1173	772	C17H16NO2+
267.1257	435	C17H17NO2+
268.0966	333	C16H14NO3+
269.1167	19	C17H17O3+
270.1121	115	C16H16NO3+
281.1167	8	C18H17O3+
282.1122	149	C17H16NO3+
283.1212	56	C17H17NO3+
284.1281	220	C17H18NO3+
294.1115	16	C18H16NO3+
296.1278	24	C18H18NO3+
298.1436	305	C18H20NO3+
316.1536	28	C18H22NO4+
