Mass spectrum: Tomatidine; LC-ESI-ITFT; MS2; CE: 60%; R=15000; [M+H]+
Name: Tomatidine
Formula: C27H45NO2
Exact mass: 415.3450
SMILES: C[C@H]1[C@H]2[C@H](C[C@H]3[C@@H]4CC[C@H]5C[C@@H](O)CC[C@]5(C)[C@H]4CC[C@]23C)O[C@@]11CC[C@H](C)CN1
InChI: InChI=1S/C27H45NO2/c1-16-7-12-27(28-15-16)17(2)24-23(30-27)14-22-20-6-5-18-13-19(29)8-10-25(18,3)21(20)9-11-26(22,24)4/h16-24,28-29H,5-15H2,1-4H3/t16-,17-,18-,19-,20+,21-,22-,23-,24-,25-,26-,27-/m0/s1
Instrument: LTQ Orbitrap XL Thermo Scientific
Instrument type: LC-ESI-ITFT
Ms type: MS2
Ion mode: POSITIVE
Ionization: ESI
Fragmentation mode: CID
Collision energy: 60 % (nominal)
Resolution: 15000
Column name: Kinetex Evo C18 2.6 um 50 x 2.1 mm
Retention time: 10.008 min
Base peak: 217.0493
Precursor m/z: 416.3523
Precursor type: [M+H]+
m/z	relative intensity	assigned
105.0698	1	C8H9+
119.0857	7	C9H11+
121.1012	3	C9H13+
124.1121	6	C8H14N+
126.1278	52	C8H16N+
128.0624	2	C10H8+
129.0701	5	C10H9+
130.0776	1	C10H10+
131.0856	19	C10H11+
133.1013	22	C10H13+
135.1169	11	C10H15+
143.0857	4	C11H11+
144.0936	2	C11H12+
145.1013	46	C11H13+
147.1169	62	C11H15+
149.1326	9	C11H17+
151.1117	5	C10H15O+
157.1012	5	C12H13+
159.117	48	C12H15+
161.1326	161	C12H17+
163.1119	18	C11H15O+
164.1434	1	C11H18N+
171.1171	9	C13H15+
173.1327	61	C13H17+
175.1482	8	C13H19+
177.1275	2	C12H17O+
185.1326	28	C14H17+
187.1483	16	C14H19+
189.1637	3	C14H21+
191.1433	3	C13H19O+
199.1482	38	C15H19+
201.1638	2	C15H21+
213.1639	29	C16H21+
215.1796	15	C16H23+
227.1797	20	C17H23+
253.1942	1	C19H25+
255.2109	526	C19H27+
273.2213	369	C19H29O+
398.342	999	C27H44NO+
