Mass spectrum: Psoralen; LC-ESI-ITFT; MS2; CE: 125%; R=15000; [M+H]+
Name: Psoralen
Name: furo[3,2-g]chromen-7-one
Formula: C11H6O3
Exact mass: 186.0317
SMILES: O=C1OC2=CC3=C(C=CO3)C=C2C=C1
InChI: InChI=1S/C11H6O3/c12-11-2-1-7-5-8-3-4-13-9(8)6-10(7)14-11/h1-6H
Instrument: LTQ Orbitrap XL Thermo Scientific
Instrument type: LC-ESI-ITFT
Ms type: MS2
Ion mode: POSITIVE
Ionization: ESI
Fragmentation mode: HCD
Collision energy: 125 % (nominal)
Resolution: 15000
Column name: Kinetex Evo C18 2.6 um 50 x 2.1 mm
Retention time: 9.109 min
Base peak: 187.0389
Precursor m/z: 187.039
Precursor type: [M+H]+
m/z	relative intensity	assigned
51.0229	7	C4H3+
63.0229	7	C5H3+
65.0386	22	C5H5+
77.0386	947	C6H5+
89.0386	152	C7H5+
94.0414	10	C6H6O+
95.0492	180	C6H7O+
102.0465	118	C8H6+
103.0543	426	C8H7+
113.0385	9	C9H5+
114.0465	8	C9H6+
115.0543	300	C9H7+
131.0492	999	C9H7O+
