Mass spectrum: (+)-Lupanine; LC-ESI-ITFT; MS2; CE: 30%; R=15000; [M+H]+
Name: (+)-Lupanine
Formula: C15H24N2O
Exact mass: 248.1889
SMILES: C1CCN2CC3CC(C2C1)CN4C3CCCC4=O
InChI: InChI=1S/C15H24N2O/c18-15-6-3-5-14-11-8-12(10-17(14)15)13-4-1-2-7-16(13)9-11/h11-14H,1-10H2
Instrument: LTQ Orbitrap XL Thermo Scientific
Instrument type: LC-ESI-ITFT
Ms type: MS2
Ion mode: POSITIVE
Ionization: ESI
Fragmentation mode: CID
Collision energy: 30 % (nominal)
Resolution: 15000
Column name: Kinetex Evo C18 2.6 um 50 x 2.1 mm
Retention time: 0.483 min
Base peak: 249.1956
Precursor m/z: 249.1961
Precursor type: [M+H]+
m/z	relative intensity	assigned
94.0652	2	C6H8N+
96.0808	17	C6H10N+
98.0965	19	C6H12N+
112.0757	10	C6H10NO+
114.0913	60	C6H12NO+
134.0965	30	C9H12N+
136.1121	205	C9H14N+
148.1122	11	C10H14N+
150.1277	35	C10H16N+
152.107	5	C9H14NO+
166.1227	6	C10H16NO+
189.1386	7	C12H17N2+
204.1383	15	C13H18NO+
231.1858	82	C15H23N2+
247.1814	2	C15H23N2O+
249.1963	999	C15H25N2O+
