Mass spectrum: Seneciphylline; LC-ESI-ITFT; MS2; CE: 55%; R=15000; [M+H]+
Name: Seneciphylline
Name: (1R,4Z,7R,17R)-4-ethylidene-7-hydroxy-7-methyl-6-methylidene-2,9-dioxa-14-azatricyclo[9.5.1.014,17]heptadec-11-ene-3,8-dione
Formula: C18H23NO5
Exact mass: 333.1576
SMILES: C/C=C\1/CC(=C)[C@@](C(=O)OCC2=CCN3[C@H]2[C@@H](CC3)OC1=O)(C)O
InChI: InChI=1S/C18H23NO5/c1-4-12-9-11(2)18(3,22)17(21)23-10-13-5-7-19-8-6-14(15(13)19)24-16(12)20/h4-5,14-15,22H,2,6-10H2,1,3H3/b12-4-/t14-,15-,18-/m1/s1
Instrument: LTQ Orbitrap XL Thermo Scientific
Instrument type: LC-ESI-ITFT
Ms type: MS2
Ion mode: POSITIVE
Ionization: ESI
Fragmentation mode: HCD
Collision energy: 55% (nominal)
Resolution: 15000
Column name: Kinetex Evo C18 2.6 um 50 x 2.1 mm
Retention time: 2.030 min
Base peak: 143.0015
Precursor m/z: 334.1649
Precursor type: [M+H]+
m/z	relative intensity	assigned
67.0542	47	C5H7+
68.0494	47	C4H6N+
79.0542	42	C6H7+
80.0495	82	C5H6N+
81.0698	79	C6H9+
82.0651	70	C5H8N+
91.0542	89	C7H7+
93.0699	184	C7H9+
94.0651	499	C6H8N+
95.0855	44	C7H11+
96.0807	159	C6H10N+
103.0542	60	C8H7+
105.0698	110	C8H9+
107.0727	27	C7H9N+
107.0854	29	C8H11+
108.0807	138	C7H10N+
109.0648	138	C7H9O+
110.0601	35	C6H8NO+
110.0965	68	C7H12N+
118.065	66	C8H8N+
119.0729	12	C8H9N+
120.0808	975	C8H10N+
121.0647	15	C8H9O+
121.0887	39	C8H11N+
122.0964	183	C8H12N+
123.0804	123	C8H11O+
133.0648	39	C9H9O+
134.0958	11	C9H12N+
136.0755	24	C8H10NO+
138.0913	911	C8H12NO+
148.1118	11	C10H14N+
151.0753	120	C9H11O2+
156.1023	23	C8H14NO2+
246.1484	30	C15H20NO2+
306.17	462	C17H24NO4+
334.1648	999	C18H24NO5+
