Mass spectrum: Sophocarpine; LC-ESI-ITFT; MS2; CE: 15%; R=15000; [M+H]+
Name: Sophocarpine
Name: (1R,2R,9S,17S)-7,13-diazatetracyclo[7.7.1.02,7.013,17]heptadec-4-en-6-one
Formula: C15H22N2O
Exact mass: 246.1732
SMILES: C1C[C@H]2CN3[C@H](CC=CC3=O)[C@@H]4[C@H]2N(C1)CCC4
InChI: InChI=1S/C15H22N2O/c18-14-7-1-6-13-12-5-3-9-16-8-2-4-11(15(12)16)10-17(13)14/h1,7,11-13,15H,2-6,8-10H2/t11-,12+,13+,15-/m0/s1
Instrument: LTQ Orbitrap XL Thermo Scientific
Instrument type: LC-ESI-ITFT
Ms type: MS2
Ion mode: POSITIVE
Ionization: ESI
Fragmentation mode: HCD
Collision energy: 15% (nominal)
Resolution: 15000
Column name: Kinetex Evo C18 2.6 um 50 x 2.1 mm
Retention time: 0.893 min
Base peak: 247.1805
Precursor m/z: 247.1805
Precursor type: [M+H]+
m/z	relative intensity	assigned
247.1805	999	C15H23N2O+
