Mass spectrum: Jervine; LC-ESI-ITFT; MS2; CE: 105%; R=15000; [M+H]+
Name: Jervine
Name: (3S,3`R,3`aS,6`S,6aS,6bS,7`aR,9R,11aS,11bR)-3-hydroxy-3`,6`,10,11b-tetramethylspiro[1,2,3,4,6,6a,6b,7,8,11a-decahydrobenzo[a]fluorene-9,2`-3a,4,5,6,7,7a-hexahydro-3H-furo[3,2-b]pyridine]-11-one
Formula: C27H39NO3
Exact mass: 425.2930
SMILES: C[C@H]1C[C@@H]2[C@H]([C@H]([C@]3(O2)CC[C@H]4[C@@H]5CC=C6C[C@H](CC[C@@]6([C@H]5C(=O)C4=C3C)C)O)C)NC1
InChI: InChI=1S/C27H39NO3/c1-14-11-21-24(28-13-14)16(3)27(31-21)10-8-19-20-6-5-17-12-18(29)7-9-26(17,4)23(20)25(30)22(19)15(27)2/h5,14,16,18-21,23-24,28-29H,6-13H2,1-4H3/t14-,16+,18-,19-,20-,21+,23+,24-,26-,27-/m0/s1
Instrument: LTQ Orbitrap XL Thermo Scientific
Instrument type: LC-ESI-ITFT
Ms type: MS2
Ion mode: POSITIVE
Ionization: ESI
Fragmentation mode: HCD
Collision energy: 105% (nominal)
Resolution: 15000
Column name: Kinetex Evo C18 2.6 um 50 x 2.1 mm
Retention time: 8.892 min
Base peak: 426.2999
Precursor m/z: 426.3003
Precursor type: [M+H]+
m/z	relative intensity	assigned
55.054	22	C4H7+
57.0698	26	C4H9+
65.0385	30	C5H5+
67.0542	797	C5H7+
69.0333	24	C4H5O+
69.0699	112	C5H9+
70.0651	131	C4H8N+
72.0444	46	C3H6NO+
77.0385	130	C6H5+
79.0542	526	C6H7+
80.0495	95	C5H6N+
80.0618	21	C6H8+
81.0574	123	C5H7N+
81.0698	547	C6H9+
82.0652	45	C5H8N+
83.0491	130	C5H7O+
84.0808	717	C5H10N+
85.0647	157	C5H9O+
91.0542	823	C7H7+
93.0699	366	C7H9+
94.0651	42	C6H8N+
94.0775	25	C7H10+
95.049	20	C6H7O+
95.0855	87	C7H11+
96.0807	192	C6H10N+
97.0646	18	C6H9O+
98.0962	22	C6H12N+
103.0541	81	C8H7+
105.0698	999	C8H9+
106.0778	36	C8H10+
107.0492	30	C7H7O+
107.0854	182	C8H11+
109.1011	83	C8H13+
112.0755	42	C6H10NO+
114.0912	273	C6H12NO+
115.0541	159	C9H7+
116.062	69	C9H8+
117.0698	254	C9H9+
118.0777	35	C9H10+
119.0855	283	C9H11+
121.0646	37	C8H9O+
121.1011	60	C9H13+
123.0804	19	C8H11O+
124.1126	17	C8H14N+
128.062	211	C10H8+
129.0698	281	C10H9+
130.0777	191	C10H10+
131.0495	18	C9H7O+
131.0854	175	C10H11+
133.1013	77	C10H13+
141.0698	211	C11H9+
142.0776	286	C11H10+
143.0854	179	C11H11+
144.0566	15	C10H8O+
144.0934	36	C11H12+
145.0649	41	C10H9O+
145.1012	128	C11H13+
147.0805	29	C10H11O+
148.1117	16	C10H14N+
153.0699	87	C12H9+
154.0774	61	C12H10+
155.0855	148	C12H11+
156.0928	64	C12H12+
157.1008	85	C12H13+
158.0726	20	C11H10O+
159.0805	20	C11H11O+
159.117	29	C12H15+
160.0881	28	C11H12O+
165.0698	114	C13H9+
166.0776	46	C13H10+
167.0855	96	C13H11+
168.0934	52	C13H12+
169.1012	90	C13H13+
170.1091	19	C13H14+
175.1121	22	C12H15O+
178.0776	54	C14H10+
179.0855	104	C14H11+
180.0931	41	C14H12+
181.101	74	C14H13+
183.1164	25	C14H15+
191.0851	48	C15H11+
192.0931	49	C15H12+
193.1011	52	C15H13+
195.1172	32	C15H15+
203.0847	29	C16H11+
204.094	20	C16H12+
205.1007	38	C16H13+
207.1166	35	C16H15+
217.1013	41	C17H13+
219.1171	22	C17H15+
231.1166	27	C18H15+
