Mass spectrum: Erucifoline N-oxide; LC-ESI-ITFT; MS2; CE: 75%; R=15000; [M+H]+
Name: Erucifoline N-oxide
Name: (5R,7S,9Z,12R,18R)-9-ethylidene-7-(hydroxymethyl)-5-methyl-15-oxido-3,6,11-trioxa-15-azoniatetracyclo[10.5.1.05,7.015,18]octadec-1(17)-ene-4,10-dione
Formula: C18H23NO7
Exact mass: 365.1475
SMILES: C/C=C\1/C[C@@]2([C@@](O2)(C(=O)OCC3=CC[N+]4([C@H]3[C@@H](CC4)OC1=O)[O-])C)CO
InChI: InChI=1S/C18H23NO7/c1-3-11-8-18(10-20)17(2,26-18)16(22)24-9-12-4-6-19(23)7-5-13(14(12)19)25-15(11)21/h3-4,13-14,20H,5-10H2,1-2H3/b11-3-/t13-,14-,17+,18+,19?/m1/s1
Instrument: LTQ Orbitrap XL Thermo Scientific
Instrument type: LC-ESI-ITFT
Ms type: MS2
Ion mode: POSITIVE
Ionization: ESI
Fragmentation mode: HCD
Collision energy: 75% (nominal)
Resolution: 15000
Column name: Kinetex Evo C18 2.6 um 50 x 2.1 mm
Retention time: 1.120 min
Base peak: 366.1547
Precursor m/z: 366.1547
Precursor type: [M+H]+
m/z	relative intensity	assigned
53.0385	18	C4H5+
67.0415	9	C4H5N+
67.0542	51	C5H7+
68.0495	18	C4H6N+
69.0334	12	C4H5O+
70.0651	8	C4H8N+
77.0387	11	C6H5+
79.0543	63	C6H7+
80.0496	102	C5H6N+
81.0334	17	C5H5O+
81.0574	30	C5H7N+
81.0699	53	C6H9+
82.0652	18	C5H8N+
83.0492	24	C5H7O+
84.0443	18	C4H6NO+
91.0543	85	C7H7+
92.0496	9	C6H6N+
93.0573	427	C6H7N+
93.07	23	C7H9+
94.0651	999	C6H8N+
95.0493	36	C6H7O+
95.0729	60	C6H9N+
95.0853	11	C7H11+
96.0444	16	C5H6NO+
97.0647	17	C6H9O+
98.0601	45	C5H8NO+
103.054	13	C8H7+
105.0697	21	C8H9+
106.0651	89	C7H8N+
107.0491	10	C7H7O+
107.0728	27	C7H9N+
108.0808	189	C7H10N+
109.0517	8	C6H7NO+
109.0648	80	C7H9O+
109.0887	20	C7H11N+
110.0599	20	C6H8NO+
111.0441	23	C6H7O2+
112.0755	34	C6H10NO+
117.0573	30	C8H7N+
118.0651	559	C8H8N+
119.073	406	C8H9N+
120.0808	522	C8H10N+
121.0647	24	C8H9O+
121.089	8	C8H11N+
122.0603	11	C7H8NO+
122.0965	61	C8H12N+
123.0441	35	C7H7O2+
123.0676	8	C7H9NO+
123.0804	22	C8H11O+
124.0754	10	C7H10NO+
125.0598	25	C7H9O2+
130.065	10	C9H8N+
132.0812	20	C9H10N+
134.0965	11	C9H12N+
136.0757	663	C8H10NO+
137.0596	14	C8H9O2+
137.0836	19	C8H11NO+
138.0913	59	C8H12NO+
139.0394	8	C7H7O3+
139.0753	53	C8H11O2+
141.0546	15	C7H9O3+
144.0808	18	C10H10N+
146.0964	30	C10H12N+
149.0595	13	C9H9O2+
151.0752	16	C9H11O2+
154.0861	23	C8H12NO2+
160.112	10	C11H14N+
162.0919	10	C10H12NO+
164.1071	59	C10H14NO+
165.054	6	C9H9O3+
176.1076	10	C11H14NO+
190.1228	17	C12H16NO+
199.0962	13	C10H15O4+
209.1172	16	C12H17O3+
