Mass spectrum: Anabasine; LC-ESI-ITFT; MS2; CE: 90%; R=15000; [M+H]+
Name: Anabasine
Formula: C10H14N2
Exact mass: 162.1157
SMILES: C1CCC(NC1)C1=CC=CN=C1
InChI: InChI=1S/C10H14N2/c1-2-7-12-10(5-1)9-4-3-6-11-8-9/h3-4,6,8,10,12H,1-2,5,7H2
Instrument: LTQ Orbitrap XL Thermo Scientific
Instrument type: LC-ESI-ITFT
Ms type: MS2
Ion mode: POSITIVE
Ionization: ESI
Fragmentation mode: HCD
Collision energy: 90 % (nominal)
Resolution: 15000
Column name: Kinetex Evo C18 2.6 um 50 x 2.1 mm
Retention time: 0.423 min
Base peak: 163.123
Precursor m/z: 163.123
Precursor type: [M+H]+
m/z	relative intensity	assigned
65.0385	50	C5H5+
67.0542	13	C5H7+
70.0652	10	C4H8N+
77.0386	9	C6H5+
79.0416	15	C5H5N+
79.0543	10	C6H7+
80.0495	101	C5H6N+
82.0652	11	C5H8N+
84.0808	35	C5H10N+
91.0543	245	C7H7+
92.0495	754	C6H6N+
93.0573	244	C6H7N+
94.0651	436	C6H8N+
103.0542	7	C8H7+
105.0698	8	C8H9+
106.0651	105	C7H8N+
107.0729	22	C7H9N+
117.0573	463	C8H7N+
118.0651	999	C8H8N+
119.0729	18	C8H9N+
119.0855	5	C9H11+
120.0808	196	C8H10N+
128.0621	22	C10H8+
129.0699	31	C10H9+
130.0651	433	C9H8N+
131.0729	274	C9H9N+
132.0808	83	C9H10N+
133.0885	5	C9H11N+
134.0965	131	C9H12N+
135.0918	2	C8H11N2+
144.0809	126	C10H10N+
146.0965	186	C10H12N+
163.1231	94	C10H15N2+
