Mass spectrum: Aconitin; LC-ESI-ITFT; MS2; CE: 70%; R=15000; [M+H]+
Name: Aconitin
Name: Aconitine
Name: [(1S,2R,3R,4R,5R,6S,7S,8R,9R,13R,14R,16S,17S,18R)-8-acetyloxy-11-ethyl-5,7,14-trihydroxy-6,16,18-trimethoxy-13-(methoxymethyl)-11-azahexacyclo[7.7.2.12,5.01,10.03,8.013,17]nonadecan-4-yl] benzoate
Formula: C34H47NO11
Exact mass: 645.3149
SMILES: CCN1C[C@@]2([C@@H](C[C@@H]([C@@]34[C@@H]2[C@H]([C@@H](C31)[C@@]5([C@@H]6[C@H]4C[C@@]([C@@H]6OC(=O)C7=CC=CC=C7)([C@H]([C@@H]5O)OC)O)OC(=O)C)OC)OC)O)COC
InChI: InChI=1S/C34H47NO11/c1-7-35-15-31(16-41-3)20(37)13-21(42-4)33-19-14-32(40)28(45-30(39)18-11-9-8-10-12-18)22(19)34(46-17(2)36,27(38)29(32)44-6)23(26(33)35)24(43-5)25(31)33/h8-12,19-29,37-38,40H,7,13-16H2,1-6H3/t19-,20-,21+,22-,23+,24+,25-,26?,27+,28-,29+,31+,32-,33+,34-/m1/s1
Instrument: LTQ Orbitrap XL Thermo Scientific
Instrument type: LC-ESI-ITFT
Ms type: MS2
Ion mode: POSITIVE
Ionization: ESI
Fragmentation mode: HCD
Collision energy: 70% (nominal)
Resolution: 15000
Column name: Kinetex Evo C18 2.6 um 50 x 2.1 mm
Retention time: 9.736 min
Base peak: 116.9859
Precursor m/z: 646.3222
Precursor type: [M+H]+
m/z	relative intensity	assigned
71.0491	8	C4H7O+
72.0808	4	C4H10N+
75.0441	16	C3H7O2+
77.0386	29	C6H5+
79.0542	9	C6H7+
81.0702	4	C6H9+
82.0651	5	C5H8N+
84.0808	6	C5H10N+
85.0285	11	C4H5O2+
88.0757	4	C4H10NO+
91.0541	23	C7H7+
95.0491	8	C6H7O+
96.0808	6	C6H10N+
97.0647	4	C6H9O+
102.0917	4	C5H12NO+
103.0543	6	C8H7+
105.0335	999	C7H5O+
107.0491	10	C7H7O+
108.0807	21	C7H10N+
109.0646	13	C7H9O+
110.0963	13	C7H12N+
111.0805	24	C7H11O+
112.0756	11	C6H10NO+
114.091	5	C6H12NO+
115.0541	7	C9H7+
117.0699	34	C9H9+
119.0491	8	C8H7O+
119.0854	6	C9H11+
121.0649	13	C8H9O+
121.0887	7	C8H11N+
122.0964	20	C8H12N+
123.044	6	C7H7O2+
124.0756	4	C7H10NO+
128.062	13	C10H8+
129.0698	32	C10H9+
131.049	5	C9H7O+
131.0855	28	C10H11+
132.0811	3	C9H10N+
133.0282	5	C8H5O2+
133.0646	5	C9H9O+
134.0963	15	C9H12N+
135.0439	7	C8H7O2+
135.0807	7	C9H11O+
137.0598	9	C8H9O2+
138.0912	7	C8H12NO+
140.1071	9	C8H14NO+
141.07	17	C11H9+
143.0856	8	C11H11+
145.0649	9	C10H9O+
145.0885	4	C10H11N+
146.0362	11	C9H6O2+
146.06	4	C9H8NO+
146.0965	14	C10H12N+
147.0442	17	C9H7O2+
147.0803	9	C10H11O+
147.1041	9	C10H13N+
148.112	11	C10H14N+
149.0598	5	C9H9O2+
152.107	45	C9H14NO+
153.0697	11	C12H9+
154.0775	6	C12H10+
154.1227	3	C9H16NO+
155.0855	15	C12H11+
157.0648	8	C11H9O+
158.0963	14	C11H12N+
159.0806	9	C11H11O+
159.1045	5	C11H13N+
160.112	22	C11H14N+
161.0234	6	C9H5O3+
161.0968	6	C11H13O+
162.0913	25	C10H12NO+
164.1073	8	C10H14NO+
165.0697	19	C13H9+
166.0781	6	C13H10+
167.0851	16	C13H11+
169.0648	6	C12H9O+
171.0802	8	C12H11O+
171.1046	4	C12H13N+
172.1121	16	C12H14N+
173.06	3	C11H9O2+
173.1204	4	C12H15N+
174.0914	26	C11H12NO+
174.1278	4	C12H16N+
176.1071	4	C11H14NO+
178.0776	12	C14H10+
178.1226	20	C11H16NO+
179.0855	26	C14H11+
181.0648	7	C13H9O+
181.1015	11	C14H13+
182.0971	4	C13H12N+
183.0808	7	C13H11O+
184.1124	14	C13H14N+
185.0595	3	C12H9O2+
185.0961	5	C13H13O+
186.0915	4	C12H12NO+
186.1276	20	C13H16N+
187.0746	5	C12H11O2+
188.0705	24	C11H10NO2+
190.0774	14	C15H10+
190.0865	9	C11H12NO2+
190.1222	17	C12H16NO+
191.0854	19	C15H11+
192.0936	8	C15H12+
193.1007	14	C15H13+
194.0726	6	C14H10O+
195.0801	10	C14H11O+
196.1118	7	C14H14N+
197.0959	5	C14H13O+
198.1282	7	C14H16N+
202.0779	14	C16H10+
202.1226	35	C13H16NO+
203.0864	13	C16H11+
203.0935	12	C12H13NO2+
204.094	6	C16H12+
204.1014	2	C12H14NO2+
204.1388	4	C13H18NO+
205.1014	17	C16H13+
207.0807	8	C15H11O+
207.1173	4	C16H15+
209.096	11	C15H13O+
210.1274	4	C15H16N+
215.085	9	C2H17NO10+
216.139	8	C14H18NO+
217.1012	12	C17H13+
218.0728	9	C16H10O+
218.1538	28	C14H20NO+
219.0801	12	C16H11O+
221.0958	12	C16H13O+
222.1271	5	C16H16N+
223.0759	5	C15H11O2+
223.1123	8	C16H15O+
225.0907	4	C15H13O2+
226.123	5	C15H16NO+
232.087	6	C2H18NO11+
233.0958	10	C17H13O+
234.1271	5	C17H16N+
235.0754	6	C16H11O2+
235.1115	7	C17H15O+
236.1433	3	C17H18N+
236.1643	9	C14H22NO2+
237.0909	8	C16H13O2+
238.1218	5	C16H16NO+
240.1382	4	C16H18NO+
245.096	6	C18H13O+
249.091	4	C17H13O2+
250.1227	5	C17H16NO+
251.1062	8	C17H15O2+
252.1373	6	C17H18NO+
261.0913	11	C18H13O2+
264.1384	6	C18H18NO+
266.1535	4	C18H20NO+
280.1345	6	C18H18NO2+
282.1487	3	C18H20NO2+
290.1554	4	C20H20NO+
292.1343	4	C19H18NO2+
294.1485	8	C19H20NO2+
296.1636	6	C19H22NO2+
306.1497	6	C20H20NO2+
308.1656	6	C20H22NO2+
322.1427	5	C20H20NO3+
322.1808	5	C21H24NO2+
324.1587	6	C20H22NO3+
340.1904	10	C21H26NO3+
354.2064	10	C22H28NO3+
368.185	9	C22H26NO4+
522.1288	4	C31H22O8+
