Mass spectrum: Solasodin; LC-ESI-ITFT; MS2; CE: 95%; R=15000; [M+H]+
Name: Solasodin
Name: Solasodine
Name: (1S,2S,4S,5`R,6R,7S,8R,9S,12S,13R,16S)-5`,7,9,13-tetramethylspiro[5-oxapentacyclo[10.8.0.02,9.04,8.013,18]icos-18-ene-6,2`-piperidine]-16-ol
Formula: C27H43NO2
Exact mass: 413.3294
SMILES: C[C@@H]1CC[C@@]2([C@H]([C@H]3[C@@H](O2)C[C@@H]4[C@@]3(CC[C@H]5[C@H]4CC=C6[C@@]5(CC[C@@H](C6)O)C)C)C)NC1
InChI: InChI=1S/C27H43NO2/c1-16-7-12-27(28-15-16)17(2)24-23(30-27)14-22-20-6-5-18-13-19(29)8-10-25(18,3)21(20)9-11-26(22,24)4/h5,16-17,19-24,28-29H,6-15H2,1-4H3/t16-,17+,19+,20-,21+,22+,23+,24+,25+,26+,27-/m1/s1
Instrument: LTQ Orbitrap XL Thermo Scientific
Instrument type: LC-ESI-ITFT
Ms type: MS2
Ion mode: POSITIVE
Ionization: ESI
Fragmentation mode: HCD
Collision energy: 95% (nominal)
Resolution: 15000
Column name: Kinetex Evo C18 2.6 um 50 x 2.1 mm
Retention time: 10.818 min
Base peak: 414.3361
Precursor m/z: 414.3367
Precursor type: [M+H]+
m/z	relative intensity	assigned
58.065	11	C3H8N+
65.0384	8	C5H5+
67.0542	334	C5H7+
68.0496	23	C4H6N+
69.0698	91	C5H9+
70.0651	521	C4H8N+
77.0386	49	C6H5+
79.0542	449	C6H7+
80.0495	47	C5H6N+
81.0699	427	C6H9+
82.0651	73	C5H8N+
83.0857	15	C6H11+
84.0809	26	C5H10N+
86.0965	24	C5H12N+
91.0542	692	C7H7+
93.0699	661	C7H9+
94.0651	64	C6H8N+
95.0491	37	C6H7O+
95.073	79	C6H9N+
95.0855	344	C7H11+
96.0808	105	C6H10N+
97.0649	16	C6H9O+
98.0965	54	C6H12N+
103.0542	27	C8H7+
105.0699	999	C8H9+
107.0855	363	C8H11+
108.0807	79	C7H10N+
109.0646	15	C7H9O+
109.0884	50	C7H11N+
109.1012	177	C8H13+
110.0964	60	C7H12N+
111.1044	14	C7H13N+
114.0913	21	C6H12NO+
115.0542	51	C9H7+
116.0621	47	C9H8+
117.0699	319	C9H9+
118.0778	27	C9H10+
119.0855	381	C9H11+
121.1011	151	C9H13+
122.0964	80	C8H12N+
124.1121	284	C8H14N+
125.1199	29	C8H15N+
126.1277	126	C8H16N+
128.062	144	C10H8+
129.0698	361	C10H9+
130.0776	100	C10H10+
131.0855	503	C10H11+
133.1012	455	C10H13+
134.0962	22	C9H12N+
135.1167	18	C10H15+
136.112	44	C9H14N+
138.1274	26	C9H16N+
141.0698	153	C11H9+
142.0777	557	C11H10+
143.0854	299	C11H11+
144.0932	130	C11H12+
145.1011	347	C11H13+
147.1168	290	C11H15+
148.112	93	C10H14N+
149.1193	20	C10H15N+
150.1277	199	C10H16N+
152.1433	11	C10H18N+
153.0696	24	C12H9+
154.0774	27	C12H10+
155.0855	164	C12H11+
156.0933	85	C12H12+
157.1011	655	C12H13+
159.1168	302	C12H15+
161.1323	11	C12H17+
162.1277	87	C11H16N+
164.1434	97	C11H18N+
167.0856	67	C13H11+
168.0931	50	C13H12+
169.1012	169	C13H13+
171.1167	120	C13H15+
173.1324	34	C13H17+
175.1116	10	C12H15O+
176.1434	29	C12H18N+
181.1012	88	C14H13+
182.1087	58	C14H14+
183.1169	159	C14H15+
185.1326	47	C14H17+
188.1425	18	C13H18N+
190.1584	12	C13H20N+
195.1169	32	C15H15+
196.1248	46	C15H16+
197.1324	105	C15H17+
199.1482	18	C15H19+
202.159	19	C14H20N+
204.1746	25	C14H22N+
209.1327	49	C16H17+
211.1484	43	C16H19+
216.1744	21	C15H22N+
223.1481	77	C17H19+
225.1645	12	C17H21+
237.1629	16	C18H21+
238.172	18	C18H22+
253.1952	13	C19H25+
380.2947	32	C26H38NO+
