Mass spectrum: Harmine; LC-ESI-ITFT; MS2; CE: 180%; R=15000; [M+H]+
Name: Harmine
Name: 7-methoxy-1-methyl-9H-pyrido[3,4-b]indole
Formula: C13H12N2O
Exact mass: 212.0950
SMILES: COC1=CC2=C(C=C1)C1=C(N2)C(C)=NC=C1
InChI: InChI=1S/C13H12N2O/c1-8-13-11(5-6-14-8)10-4-3-9(16-2)7-12(10)15-13/h3-7,15H,1-2H3
Instrument: LTQ Orbitrap XL Thermo Scientific
Instrument type: LC-ESI-ITFT
Ms type: MS2
Ion mode: POSITIVE
Ionization: ESI
Fragmentation mode: HCD
Collision energy: 180 % (nominal)
Resolution: 15000
Column name: Kinetex Evo C18 2.6 um 50 x 2.1 mm
Retention time: 6.605 min
Base peak: 213.1027
Precursor m/z: 213.1022
Precursor type: [M+H]+
m/z	relative intensity	assigned
65.0384	23	C5H5+
66.0463	32	C5H6+
67.0415	14	C4H5N+
75.0229	63	C6H3+
76.0307	20	C6H4+
77.0385	88	C6H5+
78.0338	18	C5H4N+
78.0464	13	C6H6+
79.0416	4	C5H5N+
89.0386	141	C7H5+
90.0465	67	C7H6+
91.0416	8	C6H5N+
91.0543	47	C7H7+
92.0496	43	C6H6N+
93.0574	243	C6H7N+
95.0493	20	C6H7O+
96.0442	8	C5H6NO+
101.0388	51	C8H5+
102.034	29	C7H4N+
102.0465	99	C8H6+
103.0418	15	C7H5N+
103.0544	69	C8H7+
104.0496	14	C7H6N+
105.0449	93	C6H5N2+
113.0385	9	C9H5+
114.0341	9	C8H4N+
114.0466	27	C9H6+
115.0543	578	C9H7+
116.0495	178	C8H6N+
117.0573	170	C8H7N+
118.0526	27	C7H6N2+
118.0651	212	C8H8N+
119.0492	19	C8H7O+
120.0444	15	C7H6NO+
125.0385	4	C10H5+
126.0338	30	C9H4N+
127.0416	27	C9H5N+
128.0494	264	C9H6N+
129.0446	225	C8H5N2+
129.0572	31	C9H7N+
130.0397	45	C7H4N3+
130.0655	5	C9H8N+
132.057	6	C9H8O+
134.06	14	C8H8NO+
140.0494	118	C10H6N+
141.0572	145	C10H7N+
142.0526	44	C9H6N2+
142.065	246	C10H8N+
143.0602	128	C9H7N2+
143.0729	33	C10H9N+
144.0681	41	C9H8N2+
144.0806	132	C10H10N+
146.0599	19	C9H8NO+
152.0493	13	C11H6N+
153.0446	81	C10H5N2+
154.0398	45	C9H4N3+
154.0525	20	C10H6N2+
155.0603	141	C10H7N2+
160.0755	4	C10H10NO+
167.0604	61	C11H7N2+
168.0681	343	C11H8N2+
169.0759	999	C11H9N2+
170.0598	8	C11H8NO+
170.0837	21	C11H10N2+
171.0551	43	C10H7N2O+
180.0552	5	C11H6N3+
