Mass spectrum: (+)-Chelidonine; LC-ESI-ITFT; MS2; CE: 100%; R=15000; [M+H]+
Name: (+)-Chelidonine
Name: Chelidonine
Name: (1S,12S,13R)-24-methyl-5,7,18,20-tetraoxa-24-azahexacyclo[11.11.0.02,10.04,8.014,22.017,21]tetracosa-2,4(8),9,14(22),15,17(21)-hexaen-12-ol
Formula: C20H19NO5
Exact mass: 353.1263
SMILES: CN1Cc2c(ccc3c2OCO3)[C@@H]4[C@H]1c5cc6c(cc5C[C@@H]4O)OCO6
InChI: InChI=1S/C20H19NO5/c1-21-7-13-11(2-3-15-20(13)26-9-23-15)18-14(22)4-10-5-16-17(25-8-24-16)6-12(10)19(18)21/h2-3,5-6,14,18-19,22H,4,7-9H2,1H3/t14-,18-,19+/m0/s1
Instrument: LTQ Orbitrap XL Thermo Scientific
Instrument type: LC-ESI-ITFT
Ms type: MS2
Ion mode: POSITIVE
Ionization: ESI
Fragmentation mode: HCD
Collision energy: 100% (nominal)
Resolution: 15000
Column name: Kinetex Evo C18 2.6 um 50 x 2.1 mm
Retention time: 7.008 min
Base peak: 354.1337
Precursor m/z: 354.1336
Precursor type: [M+H]+
m/z	relative intensity	assigned
65.0387	1	C5H5+
77.0386	17	C6H5+
79.0543	17	C6H7+
89.0385	1	C7H5+
91.0542	6	C7H7+
103.0542	28	C8H7+
105.0336	8	C7H5O+
115.0542	7	C9H7+
117.0334	1	C8H5O+
117.0572	2	C8H7N+
118.0651	18	C8H8N+
119.049	1	C8H7O+
130.0651	12	C9H8N+
131.0492	13	C9H7O+
135.0441	37	C8H7O2+
143.0495	1	C10H7O+
146.0602	4	C9H8NO+
147.0441	5	C9H7O2+
148.0523	1	C9H8O2+
149.0597	3	C9H9O2+
152.0617	3	C12H8+
153.0703	2	C12H9+
158.0602	7	C10H8NO+
159.0441	7	C10H7O2+
160.0757	11	C10H10NO+
161.0595	2	C10H9O2+
162.0547	1	C9H8NO2+
163.039	14	C9H7O3+
163.0543	5	C13H7+
164.0622	2	C13H8+
165.0698	12	C13H9+
166.0777	3	C13H10+
173.0594	1	C11H9O2+
175.0628	2	C10H9NO2+
176.0623	8	C14H8+
177.0699	27	C14H9+
178.0777	60	C14H10+
179.0856	61	C14H11+
181.0649	2	C13H9O+
186.0547	3	C11H8NO2+
188.0621	16	C15H8+
188.0708	14	C11H10NO2+
189.0699	999	C15H9+
190.0778	43	C15H10+
191.0855	31	C15H11+
192.0566	5	C14H8O+
193.0641	1	C14H9O+
201.0701	6	C16H9+
202.0776	3	C16H10+
204.0575	1	C15H8O+
205.0647	24	C15H9O+
206.0723	4	C15H10O+
207.0804	29	C15H11O+
209.0591	2	C14H9O2+
216.0567	2	C16H8O+
217.0647	143	C16H9O+
218.0727	23	C16H10O+
219.0804	14	C16H11O+
220.0521	1	C15H8O2+
221.0595	3	C15H9O2+
222.0674	8	C15H10O2+
233.0592	1	C16H9O2+
234.0685	2	C16H10O2+
235.0752	11	C16H11O2+
237.0908	8	C16H13O2+
245.0599	6	C17H9O2+
246.0674	49	C17H10O2+
247.0753	64	C17H11O2+
275.07	12	C18H11O3+
