Mass spectrum: Homoharringtonine; LC-ESI-ITFT; MS2; CE: 95%; R=15000; [M+H]+
Name: Homoharringtonine
Name: Omacetaxine mepesuccinate
Name: 1-O-[(2S,3S,6R)-4-methoxy-16,18-dioxa-10-azapentacyclo[11.7.0.02,6.06,10.015,19]icosa-1(20),4,13,15(19)-tetraen-3-yl] 4-O-methyl (2R)-2-hydroxy-2-(4-hydroxy-4-methylpentyl)butanedioate
Formula: C29H39NO9
Exact mass: 545.2625
SMILES: CC(C)(CCC[C@@](CC(=O)OC)(C(=O)O[C@H]1[C@H]2c3cc4c(cc3CCN5[C@@]2(CCC5)C=C1OC)OCO4)O)O
InChI: InChI=1S/C29H39NO9/c1-27(2,33)8-5-10-29(34,16-23(31)36-4)26(32)39-25-22(35-3)15-28-9-6-11-30(28)12-7-18-13-20-21(38-17-37-20)14-19(18)24(25)28/h13-15,24-25,33-34H,5-12,16-17H2,1-4H3/t24-,25-,28+,29-/m1/s1
Instrument: LTQ Orbitrap XL Thermo Scientific
Instrument type: LC-ESI-ITFT
Ms type: MS2
Ion mode: POSITIVE
Ionization: ESI
Fragmentation mode: HCD
Collision energy: 95% (nominal)
Resolution: 15000
Column name: Kinetex Evo C18 2.6 um 50 x 2.1 mm
Retention time: 7.154 min
Base peak: 546.2694
Precursor m/z: 546.2698
Precursor type: [M+H]+
m/z	relative intensity	assigned
59.0491	32	C3H7O+
67.0542	39	C5H7+
68.0493	16	C4H6N+
69.0699	57	C5H9+
70.065	57	C4H8N+
77.0385	37	C6H5+
79.0542	104	C6H7+
81.0697	26	C6H9+
91.0542	230	C7H7+
93.0699	150	C7H9+
94.0649	35	C6H8N+
95.0491	30	C6H7O+
96.0811	33	C6H10N+
97.0645	15	C6H9O+
103.0542	219	C8H7+
105.07	28	C8H9+
106.0652	20	C7H8N+
107.073	72	C7H9N+
107.0855	97	C8H11+
108.0572	25	C7H8O+
109.0649	51	C7H9O+
110.06	119	C6H8NO+
111.0679	23	C6H9NO+
111.0804	19	C7H11O+
115.0542	327	C9H7+
116.0621	17	C9H8+
117.0569	17	C8H7N+
117.07	42	C9H9+
118.0651	76	C8H8N+
119.0491	65	C8H7O+
120.0809	43	C8H10N+
121.0647	21	C8H9O+
122.0603	34	C7H8NO+
126.0912	29	C7H12NO+
128.062	119	C10H8+
129.0698	126	C10H9+
131.0491	70	C9H7O+
135.0441	99	C8H7O2+
135.0679	60	C8H9NO+
139.0543	129	C11H7+
140.062	31	C11H8+
141.0574	35	C10H7N+
141.0699	176	C11H9+
142.0651	80	C10H8N+
143.0491	68	C10H7O+
144.0803	14	C10H10N+
145.065	24	C10H9O+
146.0599	26	C9H8NO+
147.0439	29	C9H7O2+
148.0754	54	C9H10NO+
149.0595	92	C9H9O2+
150.0913	849	C9H12NO+
151.054	20	C12H7+
152.0621	350	C12H8+
153.0697	335	C12H9+
154.065	101	C11H8N+
154.0773	71	C12H10+
155.0489	37	C11H7O+
155.0725	37	C11H9N+
155.0856	85	C12H11+
156.0806	71	C11H10N+
157.0646	61	C11H9O+
159.0441	108	C10H7O2+
164.0621	19	C13H8+
165.0699	738	C13H9+
166.0651	46	C12H8N+
166.077	133	C13H10+
167.0491	63	C12H7O+
167.0729	195	C12H9N+
167.0854	111	C13H11+
168.0568	68	C12H8O+
168.0807	209	C12H10N+
169.0526	30	C11H7NO+
169.0649	69	C12H9O+
169.0885	80	C12H11N+
169.1011	15	C13H13+
170.0599	65	C11H8NO+
170.0965	105	C12H12N+
171.044	46	C11H7O2+
171.0803	43	C12H11O+
171.1039	68	C12H13N+
172.0519	105	C11H8O2+
172.0759	31	C11H10NO+
172.1118	40	C12H14N+
173.0475	41	C10H7NO2+
173.0594	74	C11H9O2+
174.055	84	C10H8NO2+
175.0629	20	C10H9NO2+
176.0706	127	C10H10NO2+
177.0701	29	C14H9+
178.0655	27	C13H8N+
178.0777	227	C14H10+
179.0855	239	C14H11+
180.0571	91	C13H8O+
180.0807	212	C13H10N+
180.0934	49	C14H12+
181.0648	207	C13H9O+
181.0884	78	C13H11N+
181.1009	27	C14H13+
182.0597	71	C12H8NO+
182.0727	169	C13H10O+
182.0964	270	C13H12N+
183.0678	68	C12H9NO+
183.0803	79	C13H11O+
184.0522	16	C12H8O2+
184.0752	70	C12H10NO+
184.1121	31	C13H14N+
185.0597	200	C12H9O2+
186.0553	41	C11H8NO2+
186.0673	34	C12H10O2+
187.0626	27	C11H9NO2+
187.075	32	C12H11O2+
189.07	71	C15H9+
190.0778	87	C15H10+
191.0855	178	C15H11+
192.0808	112	C14H10N+
192.0935	40	C15H12+
193.0645	106	C14H9O+
193.0888	131	C14H11N+
194.0731	47	C14H10O+
194.0966	138	C14H12N+
195.0669	22	C13H9NO+
195.0805	204	C14H11O+
195.1048	19	C14H13N+
196.0512	30	C13H8O2+
196.0758	139	C13H10NO+
196.0886	36	C14H12O+
196.1121	111	C14H14N+
197.0595	139	C13H9O2+
197.0835	70	C13H11NO+
198.0551	190	C12H8NO2+
198.0679	59	C13H10O2+
198.0917	96	C13H12NO+
199.039	58	C12H7O3+
199.0628	234	C12H9NO2+
199.075	61	C13H11O2+
200.0709	88	C12H10NO2+
200.1069	43	C13H14NO+
201.0783	26	C12H11NO2+
202.086	23	C12H12NO2+
206.0964	82	C15H12N+
207.0805	76	C15H11O+
207.1045	55	C15H13N+
208.0764	74	C14H10NO+
208.0886	77	C15H12O+
208.112	288	C15H14N+
209.0597	185	C14H9O2+
209.084	51	C14H11NO+
210.0679	103	C14H10O2+
210.0913	279	C14H12NO+
211.0628	284	C13H9NO2+
211.0753	100	C14H11O2+
212.0709	259	C13H10NO2+
212.1071	65	C14H14NO+
213.0545	28	C13H9O3+
213.0792	79	C13H11NO2+
214.0863	281	C13H12NO2+
216.1023	25	C13H14NO2+
220.0758	57	C15H10NO+
221.0598	23	C15H9O2+
221.0844	43	C15H11NO+
222.0677	53	C15H10O2+
222.0911	126	C15H12NO+
223.0623	34	C14H9NO2+
223.0754	136	C15H11O2+
223.1002	43	C15H13NO+
224.0707	265	C14H10NO2+
224.107	144	C15H14NO+
225.0548	70	C14H9O3+
225.0787	192	C14H11NO2+
226.0862	717	C14H12NO2+
227.0575	215	C13H9NO3+
227.0858	58	C18H11+
228.1021	228	C14H14NO2+
229.1103	65	C14H15NO2+
235.075	42	C16H11O2+
236.0715	24	C15H10NO2+
236.1068	158	C16H14NO+
237.0788	46	C15H11NO2+
237.0917	21	C16H13O2+
238.0626	44	C15H10O3+
238.0861	349	C15H12NO2+
238.1224	114	C16H16NO+
239.0701	22	C15H11O3+
239.0951	134	C15H13NO2+
240.1018	999	C15H14NO2+
242.0813	88	C14H12NO3+
242.1186	26	C15H16NO2+
250.0861	200	C16H12NO2+
251.0944	132	C16H13NO2+
252.102	245	C16H14NO2+
253.0737	34	C15H11NO3+
254.0814	47	C15H12NO3+
254.1176	138	C16H16NO2+
256.0981	25	C15H14NO3+
264.1018	78	C17H14NO2+
266.1174	317	C17H16NO2+
268.0966	178	C16H14NO3+
270.1119	21	C16H16NO3+
282.1124	89	C17H16NO3+
284.1285	22	C17H18NO3+
