Mass spectrum: (+)-Costunolide; LC-ESI-ITFT; MS2; CE: 30%; R=15000; [M+H]+
Name: (+)-Costunolide
Name: Costunolide
Name: (3aS,6E,10E,11aR)-6,10-dimethyl-3-methylidene-3a,4,5,8,9,11a-hexahydrocyclodeca[b]furan-2-one
Formula: C15H20O2
Exact mass: 232.1463
SMILES: C/C/1=C\CC/C(=C/[C@@H]2[C@@H](CC1)C(=C)C(=O)O2)/C
InChI: InChI=1S/C15H20O2/c1-10-5-4-6-11(2)9-14-13(8-7-10)12(3)15(16)17-14/h5,9,13-14H,3-4,6-8H2,1-2H3/b10-5+,11-9+/t13-,14+/m0/s1
Instrument: LTQ Orbitrap XL Thermo Scientific
Instrument type: LC-ESI-ITFT
Ms type: MS2
Ion mode: POSITIVE
Ionization: ESI
Fragmentation mode: HCD
Collision energy: 30% (nominal)
Resolution: 15000
Column name: Kinetex Evo C18 2.6 um 50 x 2.1 mm
Retention time: 11.701 min
Base peak: 116.9858
Precursor m/z: 233.1536
Precursor type: [M+H]+
m/z	relative intensity	assigned
81.0697	58	C6H9+
91.0539	8	C7H7+
93.0698	28	C7H9+
95.0855	62	C7H11+
105.0699	49	C8H9+
107.0855	36	C8H11+
109.1012	25	C8H13+
119.0854	24	C9H11+
121.1013	16	C9H13+
125.0597	12	C7H9O2+
131.0855	36	C10H11+
133.1011	29	C10H13+
135.1168	8	C10H15+
137.0597	15	C8H9O2+
139.0753	28	C8H11O2+
145.1012	58	C11H13+
147.1168	29	C11H15+
151.0755	21	C9H11O2+
157.1015	5	C12H13+
159.0806	11	C11H11O+
159.1168	47	C12H15+
161.1325	69	C12H17+
163.0756	15	C10H11O2+
173.0961	12	C12H13O+
173.1325	6	C13H17+
177.0911	71	C11H13O2+
187.1481	723	C14H19+
189.164	12	C14H21+
191.1068	19	C12H15O2+
197.1324	64	C15H17+
205.1586	36	C14H21O+
215.143	249	C15H19O+
233.1536	999	C15H21O2+
