Mass spectrum: Lasiocarpine; LC-ESI-ITFT; MS2; CE: 45%; R=15000; [M+H]+
Name: Lasiocarpine
Name: [(7S,8R)-7-[(Z)-2-methylbut-2-enoyl]oxy-5,6,7,8-tetrahydro-3H-pyrrolizin-1-yl]methyl (2R)-2,3-dihydroxy-2-[(1S)-1-methoxyethyl]-3-methylbutanoate
Formula: C21H33NO7
Exact mass: 411.2257
SMILES: C/C=C(/C)\C(=O)O[C@H]1CCN2[C@@H]1C(=CC2)COC(=O)[C@@]([C@H](C)OC)(C(C)(C)O)O
InChI: InChI=1S/C21H33NO7/c1-7-13(2)18(23)29-16-9-11-22-10-8-15(17(16)22)12-28-19(24)21(26,14(3)27-6)20(4,5)25/h7-8,14,16-17,25-26H,9-12H2,1-6H3/b13-7-/t14-,16-,17+,21-/m0/s1
Instrument: LTQ Orbitrap XL Thermo Scientific
Instrument type: LC-ESI-ITFT
Ms type: MS2
Ion mode: POSITIVE
Ionization: ESI
Fragmentation mode: HCD
Collision energy: 45% (nominal)
Resolution: 15000
Column name: Kinetex Evo C18 2.6 um 50 x 2.1 mm
Retention time: 7.434 min
Base peak: 412.2328
Precursor m/z: 412.233
Precursor type: [M+H]+
m/z	relative intensity	assigned
55.054	4	C4H7+
59.049	13	C3H7O+
80.0495	2	C5H6N+
83.0492	9	C5H7O+
89.0599	1	C4H9O2+
93.0699	3	C7H9+
94.0651	11	C6H8N+
97.0647	4	C6H9O+
103.0543	2	C8H7+
108.0808	8	C7H10N+
118.0651	2	C8H8N+
119.0728	1	C8H9N+
120.0807	999	C8H10N+
121.0885	18	C8H11N+
122.0963	1	C8H12N+
136.0758	2	C8H10NO+
138.0913	51	C8H12NO+
152.1069	1	C9H14NO+
156.102	5	C8H14NO2+
157.0861	1	C8H13O3+
218.1166	1	C13H16NO2+
220.1332	73	C13H18NO2+
221.1409	13	C13H19NO2+
222.1128	2	C12H16NO3+
236.128	5	C13H18NO3+
238.1437	87	C13H20NO3+
252.1598	1	C14H22NO3+
254.1384	6	C13H20NO4+
322.1659	3	C17H24NO5+
336.1806	32	C18H26NO5+
