Mass spectrum: Aldosterone; LC-ESI-ITFT; MS2; CE: 85%; R=15000; [M+H]+
Name: Aldosterone
Name: (8S,9S,10R,11S,13R,14S,17S)-11-hydroxy-17-(2-hydroxyacetyl)-10-methyl-3-oxo-1,2,6,7,8,9,11,12,14,15,16,17-dodecahydrocyclopenta[a]phenanthrene-13-carbaldehyde
Formula: C21H28O5
Exact mass: 360.1937
SMILES: [H][C@@]12CC[C@H](C(=O)CO)[C@]1(C[C@H](O)[C@@]1([H])[C@@]2([H])CCC2=CC(=O)CC[C@]12C)C=O
InChI: InChI=1S/C21H28O5/c1-20-7-6-13(24)8-12(20)2-3-14-15-4-5-16(18(26)10-22)21(15,11-23)9-17(25)19(14)20/h8,11,14-17,19,22,25H,2-7,9-10H2,1H3/t14-,15-,16+,17-,19+,20-,21+/m0/s1
Instrument: LTQ Orbitrap XL Thermo Scientific
Instrument type: LC-ESI-ITFT
Ms type: MS2
Ion mode: POSITIVE
Ionization: ESI
Fragmentation mode: CID
Collision energy: 85 % (nominal)
Resolution: 15000
Column name: Kinetex Evo C18 2.6 um 50 x 2.1 mm
Retention time: 9.819 min
Base peak: 361.2012
Precursor m/z: 361.201
Precursor type: [M+H]+
m/z	relative intensity	assigned
147.0809	40	C10H11O+
265.1593	44	C19H21O+
279.1746	131	C20H23O+
289.1586	100	C21H21O+
295.1693	32	C20H23O2+
297.1852	38	C20H25O2+
307.1695	294	C21H23O2+
315.1955	91	C20H27O3+
325.18	355	C21H25O3+
343.1904	999	C21H27O4+
