Mass spectrum: 6-beta-Hydroxycortisol; LC-ESI-ITFT; MS2; CE: 45%; R=15000; [M+H]+
Name: 6-beta-Hydroxycortisol
Name: 6beta-Hydroxycortisol
Name: (6R,8S,9S,10R,11S,13S,14S,17R)-6,11,17-trihydroxy-17-(2-hydroxyacetyl)-10,13-dimethyl-2,6,7,8,9,11,12,14,15,16-decahydro-1H-cyclopenta[a]phenanthren-3-one
Formula: C21H30O6
Exact mass: 378.2042
SMILES: C[C@]12C[C@H](O)[C@H]3[C@@H](C[C@@H](O)C4=CC(=O)CC[C@]34C)[C@@H]1CC[C@]2(O)C(=O)CO
InChI: InChI=1S/C21H30O6/c1-19-5-3-11(23)7-14(19)15(24)8-12-13-4-6-21(27,17(26)10-22)20(13,2)9-16(25)18(12)19/h7,12-13,15-16,18,22,24-25,27H,3-6,8-10H2,1-2H3/t12-,13-,15+,16-,18+,19-,20-,21-/m0/s1
Instrument: LTQ Orbitrap XL Thermo Scientific
Instrument type: LC-ESI-ITFT
Ms type: MS2
Ion mode: POSITIVE
Ionization: ESI
Fragmentation mode: CID
Collision energy: 45 % (nominal)
Resolution: 15000
Column name: Kinetex Evo C18 2.6 um 50 x 2.1 mm
Retention time: 6.592 min
Base peak: 116.9861
Precursor m/z: 379.2115
Precursor type: [M+H]+
m/z	relative intensity	assigned
239.1439	151	C17H19O+
247.1477	45	C19H19+
249.1281	82	C18H17O+
265.1583	165	C19H21O+
267.1751	123	C19H23O+
279.175	103	C20H23O+
283.1693	308	C19H23O2+
285.1861	92	C19H25O2+
289.1593	142	C21H21O+
295.1701	171	C20H23O2+
297.1851	175	C20H25O2+
301.1792	52	C19H25O3+
307.1694	370	C21H23O2+
313.1805	507	C20H25O3+
325.1801	817	C21H25O3+
331.1902	158	C20H27O4+
343.1905	999	C21H27O4+
361.2012	644	C21H29O5+
