Mass spectrum: Tetrahydropalmatin; LC-ESI-ITFT; MS2; CE: 80%; R=15000; [M+H]+
Name: Tetrahydropalmatin
Name: D-Tetrahydropalmatine
Name: (13aR)-2,3,9,10-tetramethoxy-6,8,13,13a-tetrahydro-5H-isoquinolino[2,1-b]isoquinoline
Formula: C21H25NO4
Exact mass: 355.1784
SMILES: COC1=C(C2=C(C[C@@H]3C4=CC(=C(C=C4CCN3C2)OC)OC)C=C1)OC
InChI: InChI=1S/C21H25NO4/c1-23-18-6-5-13-9-17-15-11-20(25-3)19(24-2)10-14(15)7-8-22(17)12-16(13)21(18)26-4/h5-6,10-11,17H,7-9,12H2,1-4H3/t17-/m1/s1
Instrument: LTQ Orbitrap XL Thermo Scientific
Instrument type: LC-ESI-ITFT
Ms type: MS2
Ion mode: POSITIVE
Ionization: ESI
Fragmentation mode: HCD
Collision energy: 80% (nominal)
Resolution: 15000
Column name: Kinetex Evo C18 2.6 um 50 x 2.1 mm
Retention time: 7.478 min
Base peak: 356.1854
Precursor m/z: 356.1856
Precursor type: [M+H]+
m/z	relative intensity	assigned
77.0384	2	C6H5+
79.0543	16	C6H7+
91.0542	9	C7H7+
103.0543	17	C8H7+
104.0623	5	C8H8+
105.0699	44	C8H9+
107.0492	18	C7H7O+
108.0573	2	C7H8O+
118.0415	8	C8H6O+
119.0492	9	C8H7O+
120.0571	10	C8H8O+
121.0648	25	C8H9O+
122.0728	7	C8H10O+
131.073	160	C9H9N+
132.0571	3	C9H8O+
133.0649	22	C9H9O+
134.0727	33	C9H10O+
135.0442	29	C8H7O2+
135.0805	10	C9H11O+
136.0522	5	C8H8O2+
145.0655	3	C10H9O+
146.0603	9	C9H8NO+
147.068	47	C9H9NO+
148.0521	14	C9H8O2+
148.0758	266	C9H10NO+
149.06	7	C9H9O2+
150.0676	125	C9H10O2+
151.0754	18	C9H11O2+
158.073	3	C11H10O+
159.068	101	C10H9NO+
160.0758	35	C10H10NO+
161.0836	13	C10H11NO+
162.0551	4	C9H8NO2+
164.0832	2	C10H12O2+
165.0911	85	C10H13O2+
174.0552	9	C10H8NO2+
174.0673	3	C11H10O2+
174.0915	2	C11H12NO+
175.0633	4	C10H9NO2+
175.0758	2	C11H11O2+
176.0707	449	C10H10NO2+
177.0785	396	C10H11NO2+
189.0787	3	C11H11NO2+
190.0864	47	C11H12NO2+
192.102	999	C11H14NO2+
204.1023	2	C12H14NO2+
221.0962	2	C16H13O+
237.0908	3	C16H13O2+
250.0991	4	C17H14O2+
251.1075	2	C17H15O2+
275.1316	2	C19H17NO+
278.1185	3	C18H16NO2+
280.1335	4	C18H18NO2+
293.1164	2	C19H17O3+
294.1134	3	C18H16NO3+
296.1279	5	C18H18NO3+
298.1433	3	C18H20NO3+
306.1139	3	C19H16NO3+
308.1293	3	C19H18NO3+
310.1083	3	C18H16NO4+
322.1442	3	C20H20NO3+
324.1225	8	C19H18NO4+
326.1397	2	C19H20NO4+
340.1543	7	C20H22NO4+
