Mass spectrum: (+)-Sparteine; LC-ESI-ITFT; MS2; CE: 65%; R=15000; [M+H]+
Name: (+)-Sparteine
Formula: C15H26N2
Exact mass: 234.2096
SMILES: C1CCN2C[C@H]3C[C@@H]([C@H]2C1)CN4[C@H]3CCCC4
InChI: InChI=1S/C15H26N2/c1-3-7-16-11-13-9-12(14(16)5-1)10-17-8-4-2-6-15(13)17/h12-15H,1-11H2/t12-,13-,14-,15+/m1/s1
Instrument: LTQ Orbitrap XL Thermo Scientific
Instrument type: LC-ESI-ITFT
Ms type: MS2
Ion mode: POSITIVE
Ionization: ESI
Fragmentation mode: CID
Collision energy: 65 % (nominal)
Resolution: 15000
Column name: Kinetex Evo C18 2.6 um 50 x 2.1 mm
Retention time: 0.556 min
Base peak: 235.2166
Precursor m/z: 235.2169
Precursor type: [M+H]+
m/z	relative intensity	assigned
70.0651	8	C4H8N+
79.0543	1	C6H7+
84.0807	9	C5H10N+
96.0808	14	C6H10N+
98.0964	999	C6H12N+
108.0807	3	C7H10N+
110.0961	4	C7H12N+
124.1119	9	C8H14N+
131.0861	1	C10H11+
134.0964	172	C9H12N+
136.112	4	C9H14N+
138.1277	12	C9H16N+
145.1009	1	C11H13+
148.1121	3	C10H14N+
150.1277	25	C10H16N+
152.1433	34	C10H18N+
162.1277	2	C11H16N+
164.1435	11	C11H18N+
190.1589	26	C13H20N+
192.1746	2	C13H22N+
202.1592	4	C14H20N+
204.1742	5	C14H22N+
