Mass spectrum: Pterosin A; LC-ESI-ITFT; MS2; CE: 40%; R=15000; [M+H]+
Name: Pterosin A
Name: (2S)-6-(2-hydroxyethyl)-2-(hydroxymethyl)-2,5,7-trimethyl-3H-inden-1-one
Formula: C15H20O3
Exact mass: 248.1412
SMILES: CC1=CC2=C(C(=C1CCO)C)C(=O)[C@](C2)(C)CO
InChI: InChI=1S/C15H20O3/c1-9-6-11-7-15(3,8-17)14(18)13(11)10(2)12(9)4-5-16/h6,16-17H,4-5,7-8H2,1-3H3/t15-/m0/s1
Instrument: LTQ Orbitrap XL Thermo Scientific
Instrument type: LC-ESI-ITFT
Ms type: MS2
Ion mode: POSITIVE
Ionization: ESI
Fragmentation mode: HCD
Collision energy: 40 % (nominal)
Resolution: 15000
Column name: Kinetex Evo C18 2.6 um 50 x 2.1 mm
Retention time: 9.273 min
Base peak: 249.1476
Precursor m/z: 249.1485
Precursor type: [M+H]+
m/z	relative intensity	assigned
133.1007	7	C10H13+
143.0853	4	C11H11+
145.1007	2	C11H13+
156.0932	4	C12H12+
157.1007	35	C12H13+
159.1164	2	C12H15+
163.1113	23	C11H15O+
170.1085	39	C13H14+
173.1319	5	C13H17+
183.1165	2	C14H15+
185.132	443	C14H17+
198.1036	5	C14H14O+
201.1268	28	C14H17O+
203.1425	999	C14H19O+
213.1267	99	C15H17O+
231.1372	478	C15H19O2+
249.1477	94	C15H21O3+
