Mass spectrum: Jacobine N-oxide; LC-ESI-ITFT; MS2; CE: 55%; R=15000; [M+H]+
Name: Jacobine N-oxide
Name: (1R,3`S,4S,6R,7R,17R)-7-hydroxy-3`,6,7-trimethyl-14-oxidospiro[2,9-dioxa-14-azoniatricyclo[9.5.1.014,17]heptadec-11-ene-4,2`-oxirane]-3,8-dione
Formula: C18H25NO7
Exact mass: 367.1631
SMILES: C[C@@H]1C[C@]2([C@@H](O2)C)C(=O)O[C@@H]3CC[N+]4([C@@H]3C(=CC4)COC(=O)[C@]1(C)O)[O-]
InChI: InChI=1S/C18H25NO7/c1-10-8-18(11(2)26-18)16(21)25-13-5-7-19(23)6-4-12(14(13)19)9-24-15(20)17(10,3)22/h4,10-11,13-14,22H,5-9H2,1-3H3/t10-,11+,13-,14-,17-,18+,19?/m1/s1
Instrument: LTQ Orbitrap XL Thermo Scientific
Instrument type: LC-ESI-ITFT
Ms type: MS2
Ion mode: POSITIVE
Ionization: ESI
Fragmentation mode: HCD
Collision energy: 55% (nominal)
Resolution: 15000
Column name: Kinetex Evo C18 2.6 um 50 x 2.1 mm
Retention time: 1.290 min
Base peak: 143.0015
Precursor m/z: 368.1704
Precursor type: [M+H]+
m/z	relative intensity	assigned
67.0541	17	C5H7+
68.0494	25	C4H6N+
77.0388	28	C6H5+
79.0543	46	C6H7+
80.0495	86	C5H6N+
81.0699	17	C6H9+
82.0653	17	C5H8N+
91.0543	113	C7H7+
93.0574	129	C6H7N+
93.0698	88	C7H9+
94.0652	151	C6H8N+
95.0493	25	C6H7O+
95.073	198	C6H9N+
96.0807	32	C6H10N+
97.0651	15	C6H9O+
106.0651	79	C7H8N+
108.0808	51	C7H10N+
109.0884	18	C7H11N+
110.0601	21	C6H8NO+
110.0965	16	C7H12N+
113.0596	91	C6H9O2+
118.0651	225	C8H8N+
119.073	222	C8H9N+
120.0808	999	C8H10N+
121.0886	283	C8H11N+
122.0964	177	C8H12N+
124.0756	43	C7H10NO+
136.0757	102	C8H10NO+
137.0838	25	C8H11NO+
138.0913	143	C8H12NO+
139.0992	145	C8H13NO+
140.107	20	C8H14NO+
152.1065	14	C9H14NO+
154.0864	31	C8H12NO2+
156.1021	53	C8H14NO2+
162.0913	20	C10H12NO+
163.0993	37	C10H13NO+
174.128	25	C12H16N+
190.1225	94	C12H16NO+
192.0652	32	C10H10NO3+
192.1023	23	C11H14NO2+
268.1544	38	C14H22NO4+
278.1385	28	C15H20NO4+
296.1494	480	C15H22NO5+
324.1441	25	C16H22NO6+
340.1745	19	C17H26NO6+
368.1706	142	C18H26NO7+
