Mass spectrum: Coniferaldehyde; LC-ESI-ITFT; MS2; CE: 25%; R=15000; [M+H]+
Name: Coniferaldehyde
Formula: C10H10O3
Exact mass: 178.0630
SMILES: COC1=CC(\C=C\C=O)=CC=C1O
InChI: InChI=1S/C10H10O3/c1-13-10-7-8(3-2-6-11)4-5-9(10)12/h2-7,12H,1H3/b3-2+
Instrument: LTQ Orbitrap XL Thermo Scientific
Instrument type: LC-ESI-ITFT
Ms type: MS2
Ion mode: POSITIVE
Ionization: ESI
Fragmentation mode: CID
Collision energy: 25 % (nominal)
Resolution: 15000
Column name: Kinetex Evo C18 2.6 um 50 x 2.1 mm
Retention time: 7.421 min
Base peak: 179.0699
Precursor m/z: 179.0703
Precursor type: [M+H]+
m/z	relative intensity	assigned
55.0177	5	C3H3O+
95.0492	4	C6H7O+
105.0699	12	C8H9+
119.0493	17	C8H7O+
123.0441	14	C7H7O2+
133.0649	57	C9H9O+
135.0443	5	C8H7O2+
147.0441	492	C9H7O2+
151.0755	6	C9H11O2+
161.0598	502	C10H9O2+
179.0703	999	C10H11O3+
