Mass spectrum: Senecionine; LC-ESI-ITFT; MS2; CE: 75%; R=15000; [M+H]+
Name: Senecionine
Name: (1R,4Z,6R,7R,17R)-4-ethylidene-7-hydroxy-6,7-dimethyl-2,9-dioxa-14-azatricyclo[9.5.1.014,17]heptadec-11-ene-3,8-dione
Formula: C18H25NO5
Exact mass: 335.1733
SMILES: C/C=C\1/C[C@H]([C@@](C(=O)OCC2=CCN3[C@H]2[C@@H](CC3)OC1=O)(C)O)C
InChI: InChI=1S/C18H25NO5/c1-4-12-9-11(2)18(3,22)17(21)23-10-13-5-7-19-8-6-14(15(13)19)24-16(12)20/h4-5,11,14-15,22H,6-10H2,1-3H3/b12-4-/t11-,14-,15-,18-/m1/s1
Instrument: LTQ Orbitrap XL Thermo Scientific
Instrument type: LC-ESI-ITFT
Ms type: MS2
Ion mode: POSITIVE
Ionization: ESI
Fragmentation mode: HCD
Collision energy: 75% (nominal)
Resolution: 15000
Column name: Kinetex Evo C18 2.6 um 50 x 2.1 mm
Retention time: 4.053 min
Base peak: 143.0016
Precursor m/z: 336.1805
Precursor type: [M+H]+
m/z	relative intensity	assigned
67.0541	259	C5H7+
68.0495	85	C4H6N+
77.0386	74	C6H5+
79.0542	143	C6H7+
80.0495	215	C5H6N+
81.0574	58	C5H7N+
81.0699	209	C6H9+
82.0651	179	C5H8N+
83.0493	54	C5H7O+
84.0443	24	C4H6NO+
91.0542	244	C7H7+
92.0495	62	C6H6N+
93.0575	23	C6H7N+
93.0699	260	C7H9+
94.0651	999	C6H8N+
95.0728	30	C6H9N+
95.0854	23	C7H11+
96.0808	380	C6H10N+
101.0601	19	C5H9O2+
103.0544	115	C8H7+
105.0577	19	C7H7N+
105.07	67	C8H9+
106.0652	35	C7H8N+
107.0729	40	C7H9N+
107.0855	178	C8H11+
108.0808	238	C7H10N+
109.0649	29	C7H9O+
109.1013	37	C8H13+
110.0598	44	C6H8NO+
110.0963	122	C7H12N+
118.0651	142	C8H8N+
119.0729	43	C8H9N+
120.0808	994	C8H10N+
121.0886	50	C8H11N+
122.0964	140	C8H12N+
125.0962	150	C8H13O+
135.0803	34	C9H11O+
138.0913	613	C8H12NO+
153.0912	65	C9H13O2+
156.102	54	C8H14NO2+
220.1338	35	C13H18NO2+
308.1854	65	C17H26NO4+
336.1809	32	C18H26NO5+
