Mass spectrum: Jacobine; LC-ESI-ITFT; MS2; CE: 55%; R=15000; [M+H]+
Name: Jacobine
Name: (1R,3`S,4S,6R,7R,17R)-7-hydroxy-3`,6,7-trimethylspiro[2,9-dioxa-14-azatricyclo[9.5.1.014,17]heptadec-11-ene-4,2`-oxirane]-3,8-dione
Formula: C18H25NO6
Exact mass: 351.1682
SMILES: C[C@@H]1C[C@]2([C@@H](O2)C)C(=O)O[C@@H]3CCN4[C@@H]3C(=CC4)COC(=O)[C@]1(C)O
InChI: InChI=1S/C18H25NO6/c1-10-8-18(11(2)25-18)16(21)24-13-5-7-19-6-4-12(14(13)19)9-23-15(20)17(10,3)22/h4,10-11,13-14,22H,5-9H2,1-3H3/t10-,11+,13-,14-,17-,18+/m1/s1
Instrument: LTQ Orbitrap XL Thermo Scientific
Instrument type: LC-ESI-ITFT
Ms type: MS2
Ion mode: POSITIVE
Ionization: ESI
Fragmentation mode: HCD
Collision energy: 55% (nominal)
Resolution: 15000
Column name: Kinetex Evo C18 2.6 um 50 x 2.1 mm
Retention time: 1.045 min
Base peak: 352.1754
Precursor m/z: 352.1755
Precursor type: [M+H]+
m/z	relative intensity	assigned
70.0651	168	C4H8N+
79.0541	109	C6H7+
80.0495	239	C5H6N+
91.0542	110	C7H7+
93.0699	195	C7H9+
94.0652	253	C6H8N+
105.0698	100	C8H9+
108.0808	134	C7H10N+
113.0596	161	C6H9O2+
120.0808	999	C8H10N+
122.0964	842	C8H12N+
123.1042	542	C8H13N+
137.0958	42	C9H13O+
138.0912	145	C8H12NO+
140.107	195	C8H14NO+
146.0971	65	C10H12N+
155.1067	727	C9H15O2+
162.0913	169	C10H12NO+
183.1018	68	C10H15O3+
218.1548	49	C14H20NO+
234.1485	171	C14H20NO2+
262.1439	116	C15H20NO3+
264.16	65	C15H22NO3+
280.1539	256	C15H22NO4+
308.1496	113	C16H22NO5+
324.1816	50	C17H26NO5+
352.1754	306	C18H26NO6+
