Mass spectrum: Jacobine N-oxide; LC-ESI-ITFT; MS2; CE: 65%; R=15000; [M+H]+
Name: Jacobine N-oxide
Name: (1R,3`S,4S,6R,7R,17R)-7-hydroxy-3`,6,7-trimethyl-14-oxidospiro[2,9-dioxa-14-azoniatricyclo[9.5.1.014,17]heptadec-11-ene-4,2`-oxirane]-3,8-dione
Formula: C18H25NO7
Exact mass: 367.1631
SMILES: C[C@@H]1C[C@]2([C@@H](O2)C)C(=O)O[C@@H]3CC[N+]4([C@@H]3C(=CC4)COC(=O)[C@]1(C)O)[O-]
InChI: InChI=1S/C18H25NO7/c1-10-8-18(11(2)26-18)16(21)25-13-5-7-19(23)6-4-12(14(13)19)9-24-15(20)17(10,3)22/h4,10-11,13-14,22H,5-9H2,1-3H3/t10-,11+,13-,14-,17-,18+,19?/m1/s1
Instrument: LTQ Orbitrap XL Thermo Scientific
Instrument type: LC-ESI-ITFT
Ms type: MS2
Ion mode: POSITIVE
Ionization: ESI
Fragmentation mode: HCD
Collision energy: 65% (nominal)
Resolution: 15000
Column name: Kinetex Evo C18 2.6 um 50 x 2.1 mm
Retention time: 1.283 min
Base peak: 368.1701
Precursor m/z: 368.1704
Precursor type: [M+H]+
m/z	relative intensity	assigned
67.0542	29	C5H7+
68.0494	25	C4H6N+
69.0698	14	C5H9+
77.0386	58	C6H5+
79.0542	60	C6H7+
80.0495	98	C5H6N+
81.0331	7	C5H5O+
81.0575	8	C5H7N+
81.0699	32	C6H9+
82.0652	27	C5H8N+
83.0491	7	C5H7O+
84.0444	10	C4H6NO+
85.0652	7	C5H9O+
86.06	11	C4H8NO+
91.0542	119	C7H7+
92.0494	13	C6H6N+
93.0573	175	C6H7N+
93.0699	79	C7H9+
94.0651	227	C6H8N+
95.0492	30	C6H7O+
95.073	160	C6H9N+
95.0859	14	C7H11+
96.0447	12	C5H6NO+
96.0808	35	C6H10N+
97.0648	13	C6H9O+
98.0599	12	C5H8NO+
99.044	10	C5H7O2+
103.054	22	C8H7+
105.0703	11	C8H9+
106.0652	117	C7H8N+
107.073	13	C7H9N+
108.0808	61	C7H10N+
109.0888	12	C7H11N+
110.0601	35	C6H8NO+
110.0966	14	C7H12N+
111.0681	15	C6H9NO+
112.0756	10	C6H10NO+
113.0597	105	C6H9O2+
118.0652	201	C8H8N+
119.073	234	C8H9N+
120.0808	999	C8H10N+
121.0886	192	C8H11N+
122.0964	140	C8H12N+
124.0757	38	C7H10NO+
134.0962	11	C9H12N+
136.0757	92	C8H10NO+
137.0834	11	C8H11NO+
138.0913	95	C8H12NO+
139.0992	63	C8H13NO+
140.1072	11	C8H14NO+
141.0545	7	C7H9O3+
146.0964	14	C10H12N+
150.0911	12	C9H12NO+
152.1077	10	C9H14NO+
154.0864	16	C8H12NO2+
156.102	63	C8H14NO2+
162.0914	50	C10H12NO+
163.0994	30	C10H13NO+
174.1273	14	C12H16N+
190.1228	58	C12H16NO+
192.0656	29	C10H10NO3+
192.1021	12	C11H14NO2+
218.1185	9	C13H16NO2+
232.1334	15	C14H18NO2+
268.1536	21	C14H22NO4+
278.139	11	C15H20NO4+
296.1495	98	C15H22NO5+
368.1707	14	C18H26NO7+
