Mass spectrum: 4-Phenyl-3-buten-2-one; LC-ESI-ITFT; MS2; CE: 100%; R=15000; [M+H]+
Name: 4-Phenyl-3-buten-2-one
Formula: C10H10O
Exact mass: 146.0732
SMILES: CC(=O)\C=C\C1=CC=CC=C1
InChI: InChI=1S/C10H10O/c1-9(11)7-8-10-5-3-2-4-6-10/h2-8H,1H3/b8-7+
Instrument: LTQ Orbitrap XL Thermo Scientific
Instrument type: LC-ESI-ITFT
Ms type: MS2
Ion mode: POSITIVE
Ionization: ESI
Fragmentation mode: HCD
Collision energy: 100 % (nominal)
Resolution: 15000
Column name: Kinetex Evo C18 2.6 um 50 x 2.1 mm
Retention time: 9.421 min
Base peak: 147.0805
Precursor m/z: 147.0804
Precursor type: [M+H]+
m/z	relative intensity	assigned
77.0385	22	C6H5+
79.0543	46	C6H7+
91.0542	178	C7H7+
103.0543	35	C8H7+
105.0698	18	C8H9+
115.0542	10	C9H7+
119.0857	8	C9H11+
127.0542	54	C10H7+
128.0621	999	C10H8+
129.0699	339	C10H9+
131.049	14	C9H7O+
132.057	13	C9H8O+
145.0647	47	C10H9O+
