Mass spectrum: Papaverin; LC-ESI-ITFT; MS2; CE: 105%; R=15000; [M+H]+
Name: Papaverin
Name: Papaverine
Name: 1-[(3,4-dimethoxyphenyl)methyl]-6,7-dimethoxyisoquinoline
Formula: C20H21NO4
Exact mass: 339.1471
SMILES: COC1=C(C=C(C=C1)CC2=NC=CC3=CC(=C(C=C32)OC)OC)OC
InChI: InChI=1S/C20H21NO4/c1-22-17-6-5-13(10-18(17)23-2)9-16-15-12-20(25-4)19(24-3)11-14(15)7-8-21-16/h5-8,10-12H,9H2,1-4H3
Instrument: LTQ Orbitrap XL Thermo Scientific
Instrument type: LC-ESI-ITFT
Ms type: MS2
Ion mode: POSITIVE
Ionization: ESI
Fragmentation mode: HCD
Collision energy: 105% (nominal)
Resolution: 15000
Column name: Kinetex Evo C18 2.6 um 50 x 2.1 mm
Retention time: 7.581 min
Base peak: 340.154
Precursor m/z: 340.1543
Precursor type: [M+H]+
m/z	relative intensity	assigned
77.0386	89	C6H5+
78.0465	10	C6H6+
90.0464	8	C7H6+
91.0542	85	C7H7+
95.0491	237	C6H7O+
102.0464	69	C8H6+
103.0542	400	C8H7+
104.062	16	C8H8+
105.0333	18	C7H5O+
107.0491	118	C7H7O+
108.0568	14	C7H8O+
114.0464	80	C9H6+
115.0542	248	C9H7+
116.0494	163	C8H6N+
116.0621	27	C9H8+
117.0572	27	C8H7N+
117.07	19	C9H9+
118.0412	16	C8H6O+
118.0651	120	C8H8N+
119.0492	23	C8H7O+
121.0646	9	C8H9O+
123.044	129	C7H7O2+
127.0417	64	C9H5N+
128.0495	952	C9H6N+
129.0573	183	C9H7N+
130.0414	20	C9H6O+
130.0651	377	C9H8N+
131.0491	457	C9H7O+
131.0729	82	C9H9N+
132.0569	59	C9H8O+
132.0808	10	C9H10N+
133.0283	42	C8H5O2+
133.0645	7	C9H9O+
135.0442	50	C8H7O2+
136.0522	12	C8H8O2+
138.0675	14	C8H10O2+
140.0495	181	C10H6N+
141.0573	164	C10H7N+
142.065	116	C10H8N+
143.0485	7	C10H7O+
143.0725	27	C10H9N+
144.0444	187	C9H6NO+
144.057	12	C10H8O+
144.0807	19	C10H10N+
145.0521	36	C9H7NO+
145.0647	51	C10H9O+
146.06	150	C9H8NO+
147.0439	10	C9H7O2+
148.052	19	C9H8O2+
151.0755	32	C9H11O2+
154.065	16	C11H8N+
155.0367	34	C10H5NO+
156.0444	808	C10H6NO+
157.0885	11	C11H11N+
158.0601	941	C10H8NO+
159.0441	93	C10H7O2+
159.0675	223	C10H9NO+
160.0514	20	C10H8O2+
160.0752	46	C10H10NO+
161.0597	16	C10H9O2+
167.0728	19	C12H9N+
170.06	95	C11H8NO+
171.0679	999	C11H9NO+
172.0393	69	C10H6NO2+
174.0549	57	C10H8NO2+
174.091	8	C11H12NO+
175.0752	69	C11H11O2+
179.0729	8	C13H9N+
180.0807	50	C13H10N+
181.0884	26	C13H11N+
183.0679	56	C12H9NO+
184.0755	33	C12H10NO+
186.0549	676	C11H8NO2+
187.0628	145	C11H9NO2+
188.0705	32	C11H10NO2+
189.0784	44	C11H11NO2+
190.0864	12	C11H12NO2+
191.073	41	C14H9N+
192.0808	87	C14H10N+
193.0886	22	C14H11N+
194.0965	44	C14H12N+
195.0677	14	C13H9NO+
196.0757	103	C13H10NO+
197.0838	25	C13H11NO+
202.0862	181	C12H12NO2+
204.0656	42	C11H10NO3+
204.0807	79	C15H10N+
205.0888	45	C15H11N+
206.0965	62	C15H12N+
207.0677	34	C14H9NO+
208.0755	109	C14H10NO+
209.0838	79	C14H11NO+
210.0914	84	C14H12NO+
211.0625	20	C13H9NO2+
212.0708	14	C13H10NO2+
216.0801	13	C16H10N+
217.0886	28	C16H11N+
218.0966	15	C16H12N+
219.0681	16	C15H9NO+
220.0756	172	C15H10NO+
221.084	89	C15H11NO+
222.0913	312	C15H12NO+
224.0704	142	C14H10NO2+
224.1074	26	C15H14NO+
225.079	35	C14H11NO2+
232.0753	36	C16H10NO+
233.0837	104	C16H11NO+
234.0915	147	C16H12NO+
236.0705	84	C15H10NO2+
236.1081	11	C16H14NO+
237.0791	30	C15H11NO2+
238.0861	188	C15H12NO2+
240.102	69	C15H14NO2+
248.0706	54	C16H10NO2+
249.0787	57	C16H11NO2+
250.0862	408	C16H12NO2+
252.102	135	C16H14NO2+
254.1176	11	C16H16NO2+
262.0864	81	C17H12NO2+
263.0947	57	C17H13NO2+
264.1022	43	C17H14NO2+
265.0731	11	C16H11NO3+
266.0812	69	C16H12NO3+
266.1182	38	C17H16NO2+
278.0811	154	C17H12NO3+
279.0897	55	C17H13NO3+
280.0967	500	C17H14NO3+
292.0977	10	C18H14NO3+
294.1116	15	C18H16NO3+
306.0766	33	C18H12NO4+
308.0916	542	C18H14NO4+
322.1059	8	C19H16NO4+
324.1234	24	C19H18NO4+
