Mass spectrum: Cevadine; LC-ESI-ITFT; MS2; CE: 60%; R=15000; [M+H]+
Name: Cevadine
Name: Veratrine
Name: [(1R,2S,6S,9S,10R,11S,12S,14R,15S,18S,19S,22S,23S,25R)-1,10,11,12,14,23-hexahydroxy-6,10,19-trimethyl-24-oxa-4-azaheptacyclo[12.12.0.02,11.04,9.015,25.018,23.019,25]hexacosan-22-yl] (Z)-2-methylbut-2-enoate
Formula: C32H49NO9
Exact mass: 591.3407
SMILES: C/C=C(/C)\C(=O)O[C@H]1CC[C@]2([C@H]3[C@@]1(O[C@@]24C[C@]5([C@@H]6CN7C[C@H](CC[C@H]7[C@@]([C@]6([C@H](C[C@]5([C@@H]4CC3)O)O)O)(C)O)C)O)O)C
InChI: InChI=1S/C32H49NO9/c1-6-18(3)25(35)41-24-11-12-26(4)19-8-9-20-28(37)13-23(34)31(39)21(29(28,38)16-30(20,26)42-32(19,24)40)15-33-14-17(2)7-10-22(33)27(31,5)36/h6,17,19-24,34,36-40H,7-16H2,1-5H3/b18-6-/t17-,19-,20-,21-,22-,23-,24-,26-,27+,28+,29+,30+,31-,32-/m0/s1
Instrument: LTQ Orbitrap XL Thermo Scientific
Instrument type: LC-ESI-ITFT
Ms type: MS2
Ion mode: POSITIVE
Ionization: ESI
Fragmentation mode: HCD
Collision energy: 60% (nominal)
Resolution: 15000
Column name: Kinetex Evo C18 2.6 um 50 x 2.1 mm
Retention time: 9.283 min
Base peak: 592.3471
Precursor m/z: 592.348
Precursor type: [M+H]+
m/z	relative intensity	assigned
55.0541	189	C4H7+
81.0698	11	C6H9+
83.0491	414	C5H7O+
84.0808	22	C5H10N+
96.0806	7	C6H10N+
98.0963	191	C6H12N+
109.0647	46	C7H9O+
110.0963	113	C7H12N+
111.1045	11	C7H13N+
112.112	37	C7H14N+
119.0858	7	C9H11+
120.0803	7	C8H10N+
121.0645	9	C8H9O+
122.0961	14	C8H12N+
124.112	52	C8H14N+
125.1199	23	C8H15N+
126.0913	42	C7H12NO+
126.1276	122	C8H16N+
127.0755	6	C7H11O2+
128.107	42	C7H14NO+
131.0855	11	C10H11+
133.1012	8	C10H13+
136.1121	39	C9H14N+
137.1198	32	C9H15N+
138.1276	468	C9H16N+
140.107	8	C8H14NO+
142.1226	9	C8H16NO+
143.0854	9	C11H11+
147.0801	8	C10H11O+
148.1119	45	C10H14N+
149.1198	27	C10H15N+
150.1277	63	C10H16N+
152.1069	42	C9H14NO+
154.1226	176	C9H16NO+
157.1012	10	C12H13+
158.0964	6	C11H12N+
160.1123	20	C11H14N+
161.1198	65	C11H15N+
162.1277	372	C11H16N+
163.1352	104	C11H17N+
164.107	53	C10H14NO+
164.1433	214	C11H18N+
165.1143	5	C10H15NO+
166.1228	14	C10H16NO+
171.1173	8	C13H15+
173.0955	10	C12H13O+
174.1277	93	C12H16N+
175.1352	20	C12H17N+
176.1068	10	C11H14NO+
176.1433	14	C12H18N+
177.1149	9	C11H15NO+
178.1225	64	C11H16NO+
179.1302	13	C11H17NO+
180.1384	33	C11H18NO+
181.101	6	C14H13+
182.1174	22	C10H16NO2+
183.1162	6	C14H15+
186.1275	10	C13H16N+
187.1353	24	C13H17N+
188.1432	260	C13H18N+
189.1151	23	C12H15NO+
189.1511	40	C13H19N+
190.1226	80	C12H16NO+
190.1589	21	C13H20N+
191.1306	51	C12H17NO+
192.1382	106	C12H18NO+
193.1462	80	C12H19NO+
199.1116	13	C14H15O+
204.1382	28	C13H18NO+
206.117	13	C12H16NO2+
206.1539	60	C13H20NO+
208.1695	286	C13H22NO+
211.1114	9	C15H15O+
212.1433	9	C15H18N+
213.1276	10	C15H17O+
216.1378	10	C14H18NO+
221.1334	8	C17H17+
227.1304	8	C15H17NO+
229.1213	7	C15H17O2+
234.1487	13	C14H20NO2+
235.1571	10	C14H21NO2+
260.1643	12	C16H22NO2+
262.1431	16	C15H20NO3+
263.1517	34	C15H21NO3+
268.1685	7	C18H22NO+
280.1548	15	C15H22NO4+
281.1621	49	C15H23NO4+
294.1844	11	C20H24NO+
374.2474	8	C26H32NO+
376.2278	11	C25H30NO2+
377.2324	9	C22H33O5+
378.2438	13	C25H32NO2+
390.2416	13	C26H32NO2+
392.2576	57	C26H34NO2+
394.2362	11	C25H32NO3+
396.2537	6	C25H34NO3+
402.2423	56	C27H32NO2+
408.2536	24	C26H34NO3+
410.2682	37	C26H36NO3+
420.2529	240	C27H34NO3+
423.2403	9	C26H33NO4+
438.2633	525	C27H36NO4+
440.2442	10	C26H34NO5+
441.2484	13	C23H37O8+
454.2581	19	C27H36NO5+
456.2737	999	C27H38NO5+
474.284	310	C27H40NO6+
492.2937	52	C27H42NO7+
502.291	11	C29H42O7+
520.3046	31	C29H44O8+
538.3151	52	C32H44NO6+
556.3263	102	C32H46NO7+
574.3366	56	C32H48NO8+
