Mass spectrum: Cortisone; LC-ESI-ITFT; MS2; CE: 35%; R=15000; [M+H]+
Name: Cortisone
Name: (8S,9S,10R,13S,14S,17R)-17-hydroxy-17-(2-hydroxyacetyl)-10,13-dimethyl-1,2,6,7,8,9,12,14,15,16-decahydrocyclopenta[a]phenanthrene-3,11-dione
Formula: C21H28O5
Exact mass: 360.1937
SMILES: C[C@]12CC(=O)[C@H]3[C@@H](CCC4=CC(=O)CC[C@]34C)[C@@H]1CC[C@]2(O)C(=O)CO
InChI: InChI=1S/C21H28O5/c1-19-7-5-13(23)9-12(19)3-4-14-15-6-8-21(26,17(25)11-22)20(15,2)10-16(24)18(14)19/h9,14-15,18,22,26H,3-8,10-11H2,1-2H3/t14-,15-,18+,19-,20-,21-/m0/s1
Instrument: LTQ Orbitrap XL Thermo Scientific
Instrument type: LC-ESI-ITFT
Ms type: MS2
Ion mode: POSITIVE
Ionization: ESI
Fragmentation mode: CID
Collision energy: 35 % (nominal)
Resolution: 15000
Column name: Kinetex Evo C18 2.6 um 50 x 2.1 mm
Retention time: 9.636 min
Base peak: 361.2014
Precursor m/z: 361.201
Precursor type: [M+H]+
m/z	relative intensity	assigned
93.0699	4	C7H9+
105.07	22	C8H9+
107.0855	9	C8H11+
117.07	10	C9H9+
119.0856	22	C9H11+
121.0649	87	C8H9O+
121.1013	9	C9H13+
123.0807	10	C8H11O+
131.0856	20	C10H11+
133.0646	8	C9H9O+
133.1011	9	C10H13+
135.0805	45	C9H11O+
135.1171	13	C10H15+
137.0961	6	C9H13O+
139.0753	6	C8H11O2+
143.0855	15	C11H11+
145.0647	10	C10H9O+
145.1012	67	C11H13+
147.0804	67	C10H11O+
147.1167	11	C11H15+
149.0961	16	C10H13O+
151.0756	13	C9H11O2+
153.0912	11	C9H13O2+
155.0854	10	C12H11+
157.1013	16	C12H13+
159.0805	27	C11H11O+
159.1171	11	C12H15+
161.0595	7	C10H9O2+
161.0962	47	C11H13O+
163.1118	812	C11H15O+
165.0911	8	C10H13O2+
169.1011	17	C13H13+
171.0805	34	C12H11O+
171.1169	70	C13H15+
173.0962	56	C12H13O+
175.1119	22	C12H15O+
177.0911	27	C11H13O2+
179.1066	10	C11H15O2+
181.086	8	C10H13O3+
181.1012	25	C14H13+
183.1168	21	C14H15+
185.0962	28	C13H13O+
185.1327	5	C14H17+
187.0752	16	C12H11O2+
187.1118	37	C13H15O+
189.091	30	C12H13O2+
189.1274	15	C13H17O+
191.1068	32	C12H15O2+
195.1169	27	C15H15+
197.0961	16	C14H13O+
197.1326	19	C15H17+
199.1117	55	C14H15O+
201.0912	9	C13H13O2+
201.1274	17	C14H17O+
203.1067	10	C13H15O2+
205.1225	9	C13H17O2+
207.1015	8	C12H15O3+
207.1171	20	C16H15+
209.0959	10	C15H13O+
209.1326	19	C16H17+
211.1119	31	C15H15O+
211.1482	12	C16H19+
213.1276	28	C15H17O+
215.1068	9	C14H15O2+
215.1429	10	C15H19O+
217.1224	26	C14H17O2+
219.1166	11	C17H15+
221.1324	40	C17H17+
223.1118	38	C16H15O+
223.1483	35	C17H19+
225.1275	47	C16H17O+
225.1637	22	C17H21+
227.143	27	C16H19O+
229.1224	25	C15H17O2+
235.1481	27	C18H19+
237.1274	38	C17H17O+
237.1639	39	C18H21+
239.1067	7	C16H15O2+
239.143	98	C17H19O+
239.1793	16	C18H23+
241.1222	79	C16H17O2+
241.1586	42	C17H21O+
243.1379	26	C16H19O2+
243.1743	16	C17H23O+
247.1482	64	C19H19+
249.1275	39	C18H17O+
249.1638	38	C19H21+
251.1431	27	C18H19O+
251.1795	17	C19H23+
253.1588	36	C18H21O+
255.1378	38	C17H19O2+
255.1744	38	C18H23O+
257.1536	68	C17H21O2+
257.1897	23	C18H25O+
261.127	7	C19H17O+
261.1486	23	C16H21O3+
261.1639	38	C20H21+
263.143	43	C19H19O+
265.1587	306	C19H21O+
266.166	4	C19H22O+
267.1379	72	C18H19O2+
267.1743	265	C19H23O+
269.1534	11	C18H21O2+
269.1899	17	C19H25O+
271.1701	12	C18H23O2+
277.1586	39	C20H21O+
279.1383	12	C19H19O2+
279.1743	153	C20H23O+
281.1536	36	C19H21O2+
283.1692	344	C19H23O2+
284.177	14	C19H24O2+
285.1484	37	C18H21O3+
285.1848	207	C19H25O2+
289.1587	107	C21H21O+
295.1692	185	C20H23O2+
297.1849	161	C20H25O2+
299.1641	268	C19H23O3+
300.1716	15	C19H24O3+
301.1798	307	C19H25O3+
303.1589	27	C18H23O4+
307.1692	361	C21H23O2+
313.1798	299	C20H25O3+
315.1953	62	C20H27O3+
317.1746	18	C19H25O4+
325.1798	505	C21H25O3+
331.1901	25	C20H27O4+
343.1902	999	C21H27O4+
361.2008	69	C21H29O5+
