Mass spectrum: Protopin; LC-ESI-ITFT; MS2; CE: 105%; R=15000; [M+H]+
Name: Protopin
Name: Protopine
Name: 15-methyl-7,9,19,21-tetraoxa-15-azapentacyclo[15.7.0.04,12.06,10.018,22]tetracosa-1(17),4,6(10),11,18(22),23-hexaen-3-one
Formula: C20H19NO5
Exact mass: 353.1263
SMILES: CN1CCC2=CC3=C(C=C2C(=O)CC4=C(C1)C5=C(C=C4)OCO5)OCO3
InChI: InChI=1S/C20H19NO5/c1-21-5-4-13-7-18-19(25-10-24-18)8-14(13)16(22)6-12-2-3-17-20(15(12)9-21)26-11-23-17/h2-3,7-8H,4-6,9-11H2,1H3
Instrument: LTQ Orbitrap XL Thermo Scientific
Instrument type: LC-ESI-ITFT
Ms type: MS2
Ion mode: POSITIVE
Ionization: ESI
Fragmentation mode: HCD
Collision energy: 105% (nominal)
Resolution: 15000
Column name: Kinetex Evo C18 2.6 um 50 x 2.1 mm
Retention time: 6.681 min
Base peak: 354.1335
Precursor m/z: 354.1336
Precursor type: [M+H]+
m/z	relative intensity	assigned
65.0385	17	C5H5+
77.0386	88	C6H5+
79.0542	117	C6H7+
89.0385	59	C7H5+
91.0542	362	C7H7+
93.0698	19	C7H9+
94.0412	8	C6H6O+
95.049	8	C6H7O+
102.0463	18	C8H6+
103.0542	117	C8H7+
105.0335	32	C7H5O+
105.0699	5	C8H9+
107.0491	105	C7H7O+
115.0542	34	C9H7+
116.0494	11	C8H6N+
117.0336	23	C8H5O+
117.0573	16	C8H7N+
117.0699	12	C9H9+
118.0651	51	C8H8N+
119.0491	143	C8H7O+
120.0809	11	C8H10N+
121.065	9	C8H9O+
130.0651	249	C9H8N+
131.049	52	C9H7O+
131.0729	299	C9H9N+
132.0807	74	C9H10N+
135.044	136	C8H7O2+
143.0731	14	C10H9N+
144.0806	33	C10H10N+
146.0601	26	C9H8NO+
147.044	205	C9H7O2+
148.0758	13	C9H10NO+
149.0596	172	C9H9O2+
151.0542	54	C12H7+
152.062	111	C12H8+
153.0697	52	C12H9+
158.06	29	C10H8NO+
159.0441	29	C10H7O2+
159.0678	146	C10H9NO+
160.0757	196	C10H10NO+
161.0599	9	C10H9O2+
161.0802	6	C7H13O4+
163.039	49	C9H7O3+
164.0619	21	C13H8+
165.0698	136	C13H9+
166.0775	39	C13H10+
167.0494	6	C12H7O+
167.0854	93	C13H11+
173.0599	6	C11H9O2+
174.0549	100	C10H8NO2+
175.0393	9	C10H7O3+
175.0625	7	C10H9NO2+
176.062	66	C14H8+
177.0699	157	C14H9+
178.0776	283	C14H10+
179.0488	13	C13H7O+
179.0855	217	C14H11+
180.0565	9	C13H8O+
181.0648	22	C13H9O+
186.0553	9	C11H8NO2+
187.0637	6	C11H9NO2+
188.0705	999	C11H10NO2+
189.0697	748	C15H9+
189.0786	76	C11H11NO2+
190.0862	8	C11H12NO2+
191.0853	52	C15H11+
192.0567	19	C14H8O+
193.0647	11	C14H9O+
194.0727	12	C14H10O+
195.0806	28	C14H11O+
202.0775	13	C16H10+
204.0578	8	C15H8O+
204.0808	18	C15H10N+
205.0645	77	C15H9O+
205.0883	8	C15H11N+
206.0732	24	C15H10O+
206.0969	5	C15H12N+
207.0803	71	C15H11O+
208.052	10	C14H8O2+
209.0595	176	C14H9O2+
217.0646	75	C16H9O+
218.0728	27	C16H10O+
218.0961	4	C16H12N+
219.0802	21	C16H11O+
220.0508	5	C15H8O2+
221.0595	10	C15H9O2+
222.0672	42	C15H10O2+
232.0746	8	C16H10NO+
233.0837	9	C16H11NO+
234.0678	5	C16H10O2+
234.0907	15	C16H12NO+
235.0751	34	C16H11O2+
237.0545	5	C15H9O3+
237.0914	7	C16H13O2+
246.0675	23	C17H10O2+
247.0752	34	C17H11O2+
250.0614	5	C16H10O3+
262.0861	23	C17H12NO2+
290.0805	13	C18H12NO3+
292.0966	10	C18H14NO3+
320.0919	7	C19H14NO4+
