Mass spectrum: 5-Carboline; LC-ESI-ITFT; MS2; CE: 25%; R=15000; [M+H]+
Name: 5-Carboline
Name: gamma-Carboline
Name: 5H-pyrido[4,3-b]indole
Formula: C11H8N2
Exact mass: 168.0687
SMILES: N1C2=C(C=CC=C2)C2=C1C=CN=C2
InChI: InChI=1S/C11H8N2/c1-2-4-10-8(3-1)9-7-12-6-5-11(9)13-10/h1-7,13H
Instrument: LTQ Orbitrap XL Thermo Scientific
Instrument type: LC-ESI-ITFT
Ms type: MS2
Ionization: ESI
Ion mode: POSITIVE
Fragmentation mode: CID
Collision energy: 25 % (nominal)
Resolution: 15000
Column name: Kinetex Evo C18 2.6 um 50 x 2.1 mm
Retention time: 1.926 min
Base peak: 202.0443
Precursor m/z: 169.076
Precursor type: [M+H]+
m/z	relative intensity	assigned
169.0761	999	C11H9N2+
