Mass spectrum: Matrine; LC-ESI-ITFT; MS2; CE: 85%; R=15000; [M+H]+
Name: Matrine
Name: (1R,2R,9S,17S)-7,13-diazatetracyclo[7.7.1.02,7.013,17]heptadecan-6-one
Formula: C15H24N2O
Exact mass: 248.1889
SMILES: C1C[C@@H]2[C@H]3CCCN4[C@H]3[C@@H](CCC4)CN2C(=O)C1
InChI: InChI=1S/C15H24N2O/c18-14-7-1-6-13-12-5-3-9-16-8-2-4-11(15(12)16)10-17(13)14/h11-13,15H,1-10H2/t11-,12+,13+,15-/m0/s1
Instrument: LTQ Orbitrap XL Thermo Scientific
Instrument type: LC-ESI-ITFT
Ms type: MS2
Ion mode: POSITIVE
Ionization: ESI
Fragmentation mode: HCD
Collision energy: 85% (nominal)
Resolution: 15000
Column name: Kinetex Evo C18 2.6 um 50 x 2.1 mm
Retention time: 0.702 min
Base peak: 249.1959
Precursor m/z: 249.1961
Precursor type: [M+H]+
m/z	relative intensity	assigned
67.0541	7	C5H7+
69.0699	4	C5H9+
70.0651	25	C4H8N+
79.0543	14	C6H7+
81.07	12	C6H9+
82.0651	10	C5H8N+
84.0808	53	C5H10N+
91.0544	11	C7H7+
93.0699	22	C7H9+
94.0651	4	C6H8N+
95.0855	13	C7H11+
96.0809	78	C6H10N+
97.0885	4	C6H11N+
98.0601	85	C5H8NO+
98.0965	45	C6H12N+
100.0754	4	C5H10NO+
105.0699	7	C8H9+
106.0652	6	C7H8N+
107.0855	14	C8H11+
108.0808	11	C7H10N+
109.1014	8	C8H13+
110.0602	6	C6H8NO+
110.0965	125	C7H12N+
112.0757	104	C6H10NO+
112.1124	5	C7H14N+
119.0852	8	C9H11+
120.0809	31	C8H10N+
121.1014	6	C9H13+
122.0964	46	C8H12N+
123.1042	9	C8H13N+
124.1122	21	C8H14N+
131.0857	7	C10H11+
134.0965	33	C9H12N+
136.0758	7	C8H10NO+
136.1123	57	C9H14N+
137.1202	8	C9H15N+
138.0919	12	C8H12NO+
138.1278	36	C9H16N+
145.1013	5	C11H13+
148.0758	19	C9H10NO+
148.1122	384	C10H14N+
149.12	13	C10H15N+
150.0917	18	C9H12NO+
150.1278	204	C10H16N+
152.1072	6	C9H14NO+
152.1435	58	C10H18N+
162.091	15	C10H12NO+
162.1281	24	C11H16N+
164.107	16	C10H14NO+
166.123	20	C10H16NO+
174.1274	6	C12H16N+
176.1071	142	C11H14NO+
176.1435	28	C12H18N+
178.1229	11	C11H16NO+
178.1593	9	C12H20N+
188.1429	12	C13H18N+
190.1227	53	C12H16NO+
190.1593	22	C13H20N+
202.1593	4	C14H20N+
204.1385	24	C13H18NO+
204.1749	4	C14H22N+
218.1541	31	C14H20NO+
219.1857	8	C14H23N2+
220.1696	31	C14H22NO+
221.2014	8	C14H25N2+
229.1694	6	C15H21N2+
230.1538	8	C15H20NO+
231.1855	16	C15H23N2+
232.1703	22	C15H22NO+
247.1806	179	C15H23N2O+
249.1961	999	C15H25N2O+
