Mass spectrum: Alpinetin; LC-ESI-ITFT; MS2; CE: 35%; R=15000; [M+H]+
Name: Alpinetin
Formula: C16H14O4
Exact mass: 270.0892
SMILES: COC1=C2C(=O)CC(OC2=CC(=C1)O)C3=CC=CC=C3
InChI: InChI=1S/C16H14O4/c1-19-14-7-11(17)8-15-16(14)12(18)9-13(20-15)10-5-3-2-4-6-10/h2-8,13,17H,9H2,1H3
Instrument: LTQ Orbitrap XL Thermo Scientific
Instrument type: LC-ESI-ITFT
Ms type: MS2
Ion mode: POSITIVE
Ionization: ESI
Fragmentation mode: HCD
Collision energy: 35 % (nominal)
Resolution: 15000
Column name: Kinetex Evo C18 2.6 um 50x2.1 mm, Phenomenex
Retention time: 10.230 min
Base peak: 217.0493
Precursor m/z: 271.0965
Precursor type: [M+H]+
m/z	relative intensity	assigned
91.054	5	C7H7+
103.054	6	C8H7+
131.0489	118	C9H7O+
165.0541	3	C9H9O3+
167.0336	999	C8H7O4+
229.0856	19	C14H13O3+
271.0962	404	C16H15O4+
