Mass spectrum: alpha-Cyperone; LC-ESI-ITFT; MS2; CE: 35%; R=15000; [M+H]+
Name: alpha-Cyperone
Formula: C15H22O
Exact mass: 218.1671
SMILES: CC1=C2CC(CCC2(CCC1=O)C)C(=C)C
InChI: InChI=1S/C15H22O/c1-10(2)12-5-7-15(4)8-6-14(16)11(3)13(15)9-12/h12H,1,5-9H2,2-4H3
Instrument: LTQ Orbitrap XL Thermo Scientific
Instrument type: LC-ESI-ITFT
Ms type: MS2
Ion mode: POSITIVE
Ionization: ESI
Fragmentation mode: HCD
Collision energy: 35 % (nominal)
Resolution: 15000
Column name: Kinetex Evo C18 2.6 um 50 x 2.1 mm
Retention time: 13.069 min
Base peak: 219.174
Precursor m/z: 219.1743
Precursor type: [M+H]+
m/z	relative intensity	assigned
67.0541	26	C5H7+
79.0541	9	C6H7+
81.0698	62	C6H9+
93.0698	23	C7H9+
95.0855	80	C7H11+
97.0648	130	C6H9O+
105.0698	28	C8H9+
107.0854	50	C8H11+
109.1011	161	C8H13+
111.0803	184	C7H11O+
119.0854	52	C9H11+
121.0653	5	C8H9O+
121.101	48	C9H13+
123.0803	68	C8H11O+
123.1168	46	C9H15+
125.0958	15	C8H13O+
131.0854	15	C10H11+
133.1013	9	C10H13+
135.0803	39	C9H11O+
135.1168	40	C10H15+
137.096	45	C9H13O+
145.1011	50	C11H13+
147.1168	55	C11H15+
149.0959	28	C10H13O+
149.1327	8	C11H17+
151.1115	5	C10H15O+
159.1166	46	C12H15+
161.1324	48	C12H17+
163.1116	144	C11H15O+
173.1324	35	C13H17+
175.148	15	C13H19+
177.1272	19	C12H17O+
177.1641	11	C13H21+
191.1802	6	C14H23+
201.1636	102	C15H21+
219.1742	999	C15H23O+
