Mass spectrum: 2-O-Methyladenosine; LC-ESI-ITFT; MS2; CE: 60%; R=15000; [M+H]+
Name: 2-O-Methyladenosine
Formula: C11H15N5O4
Exact mass: 281.1124
SMILES: COC1C(O)C(CO)OC1N1C=NC2=C(N)N=CN=C12
InChI: InChI=1S/C11H15N5O4/c1-19-8-7(18)5(2-17)20-11(8)16-4-15-6-9(12)13-3-14-10(6)16/h3-5,7-8,11,17-18H,2H2,1H3,(H2,12,13,14)
Instrument: LTQ Orbitrap XL Thermo Scientific
Instrument type: LC-ESI-ITFT
Ms type: MS2
Ion mode: POSITIVE
Ionization: ESI
Fragmentation mode: CID
Collision energy: 60 % (nominal)
Resolution: 15000
Column name: Kinetex Evo C18 2.6 um 50 x 2.1 mm
Retention time: 0.705 min
Base peak: 128.143
Precursor m/z: 282.1197
Precursor type: [M+H]+
m/z	relative intensity	assigned
119.0354	4	C5H3N4+
136.0619	999	C5H6N5+
