Mass spectrum: Galantamine; LC-ESI-ITFT; MS2; CE: 110%; R=15000; [M+H]+
Name: Galantamine
Formula: C17H21NO3
Exact mass: 287.1521
SMILES: CN1CCC23C=CC(CC2OC4=C(C=CC(=C34)C1)OC)O
InChI: InChI=1S/C17H21NO3/c1-18-8-7-17-6-5-12(19)9-14(17)21-16-13(20-2)4-3-11(10-18)15(16)17/h3-6,12,14,19H,7-10H2,1-2H3
Instrument: LTQ Orbitrap XL Thermo Scientific
Instrument type: LC-ESI-ITFT
Ms type: MS2
Ion mode: POSITIVE
Ionization: ESI
Fragmentation mode: HCD
Collision energy: 110 % (nominal)
Resolution: 15000
Column name: Kinetex Evo C18 2.6 um 50 x 2.1 mm
Retention time: 0.657 min
Base peak: 288.159
Precursor m/z: 288.1594
Precursor type: [M+H]+
m/z	relative intensity	assigned
77.0388	56	C6H5+
79.0542	54	C6H7+
91.0543	143	C7H7+
94.0413	23	C6H6O+
103.0544	81	C8H7+
104.0618	26	C8H8+
105.07	160	C8H9+
115.0543	157	C9H7+
116.0621	62	C9H8+
117.0698	77	C9H9+
127.0542	46	C10H7+
128.0622	231	C10H8+
129.0699	120	C10H9+
131.0491	111	C9H7O+
132.0569	39	C9H8O+
132.0803	23	C9H10N+
135.0803	63	C9H11O+
141.07	458	C11H9+
142.0778	196	C11H10+
144.0569	49	C10H8O+
145.0649	190	C10H9O+
146.0729	51	C10H10O+
147.0441	27	C9H7O2+
152.0622	322	C12H8+
153.0701	196	C12H9+
154.0782	40	C12H10+
155.0493	997	C11H7O+
158.0721	25	C11H10O+
159.0808	47	C11H11O+
161.0601	24	C10H9O2+
165.0701	186	C13H9+
166.0778	72	C13H10+
168.057	89	C12H8O+
169.065	722	C12H9O+
170.0728	177	C12H10O+
178.0782	44	C14H10+
181.0649	611	C13H9O+
182.073	194	C13H10O+
183.0442	999	C12H7O2+
185.0954	28	C13H13O+
189.0698	28	C15H9+
197.0598	226	C13H9O2+
198.0676	414	C13H10O2+
