Mass spectrum: Pterosin B; LC-ESI-ITFT; MS2; CE: 90%; R=15000; [M+H]+
Name: Pterosin B
Name: (2R)-6-(2-hydroxyethyl)-2,5,7-trimethyl-2,3-dihydroinden-1-one
Formula: C14H18O2
Exact mass: 218.1307
SMILES: C[C@@H]1CC2=C(C1=O)C(=C(C(=C2)C)CCO)C
InChI: InChI=1S/C14H18O2/c1-8-6-11-7-9(2)14(16)13(11)10(3)12(8)4-5-15/h6,9,15H,4-5,7H2,1-3H3/t9-/m1/s1
Instrument: LTQ Orbitrap XL Thermo Scientific
Instrument type: LC-ESI-ITFT
Ms type: MS2
Ion mode: POSITIVE
Ionization: ESI
Fragmentation mode: HCD
Collision energy: 90 % (nominal)
Resolution: 15000
Column name: Kinetex Evo C18 2.6 um 50 x 2.1 mm
Retention time: 10.370 min
Base peak: 219.137
Precursor m/z: 219.138
Precursor type: [M+H]+
m/z	relative intensity	assigned
67.0541	17	C5H7+
79.054	34	C6H7+
91.054	240	C7H7+
93.0697	29	C7H9+
105.0696	443	C8H9+
115.0538	77	C9H7+
116.0619	57	C9H8+
117.0696	202	C9H9+
119.0852	258	C9H11+
128.0617	247	C10H8+
129.0695	594	C10H9+
130.0774	458	C10H10+
131.0852	296	C10H11+
132.0933	31	C10H12+
133.1008	205	C10H13+
141.0696	148	C11H9+
142.0775	210	C11H10+
143.0852	999	C11H11+
144.093	277	C11H12+
145.1008	873	C11H13+
147.1165	21	C11H15+
153.0695	507	C12H9+
155.0852	208	C12H11+
156.0931	149	C12H12+
157.0644	98	C11H9O+
157.1009	160	C12H13+
158.0725	91	C11H10O+
158.1087	224	C12H14+
159.0802	408	C11H11O+
159.1167	51	C12H15+
160.1245	28	C12H16+
166.0771	29	C13H10+
167.0853	161	C13H11+
168.093	466	C13H12+
170.1086	19	C13H14+
171.0801	669	C12H11O+
171.1164	46	C13H15+
172.088	165	C12H12O+
173.0957	761	C12H13O+
173.1323	67	C13H17+
174.1034	99	C12H14O+
181.1011	25	C14H13+
183.1163	101	C14H15+
185.0957	79	C13H13O+
186.1035	380	C13H14O+
187.1117	22	C13H15O+
201.1269	88	C14H17O+
