Mass spectrum: Dicyclohexylamine; LC-ESI-ITFT; MS2; CE: 45%; R=15000; [M+H]+
Name: Dicyclohexylamine
Name: N-cyclohexylcyclohexanamine
Formula: C12H23N
Exact mass: 181.1830
SMILES: C1CCC(CC1)NC1CCCCC1
InChI: InChI=1S/C12H23N/c1-3-7-11(8-4-1)13-12-9-5-2-6-10-12/h11-13H,1-10H2
Instrument: LTQ Orbitrap XL Thermo Scientific
Instrument type: LC-ESI-ITFT
Ms type: MS2
Ion mode: POSITIVE
Ionization: ESI
Fragmentation mode: HCD
Collision energy: 45% (nominal)
Resolution: 15000
Column name: Kinetex Evo C18 2.6 um 50x2.1 mm, Phenomenex
Retention time: 5.432 min
Base peak: 182.1901
Precursor m/z: 182.1903
Precursor type: [M+H]+
m/z	relative intensity	assigned
55.0541	18	C4H7+
83.0856	87	C6H11+
98.0968	1	C6H12N+
100.1121	158	C6H14N+
182.1903	999	C12H24N+
