Mass spectrum: Bergapten/Heraclin; LC-ESI-ITFT; MS2; CE: 30%; R=15000; [M+H]+
Name: Bergapten/Heraclin
Formula: C12H8O4
Exact mass: 216.0423
SMILES: COC1=C2C=COC2=CC2=C1C=CC(=O)O2
InChI: InChI=1S/C12H8O4/c1-14-12-7-2-3-11(13)16-10(7)6-9-8(12)4-5-15-9/h2-6H,1H3
Instrument: LTQ Orbitrap XL Thermo Scientific
Instrument type: LC-ESI-ITFT
Ms type: MS2
Ion mode: POSITIVE
Ionization: ESI
Fragmentation mode: CID
Collision energy: 30 % (nominal)
Resolution: 15000
Column name: Kinetex Evo C18 2.6 um 50 x 2.1 mm
Retention time: 9.927 min
Base peak: 416.3519
Precursor m/z: 217.0495
Precursor type: [M+H]+
m/z	relative intensity	assigned
115.0543	10	C9H7+
117.0699	11	C9H9+
133.0649	1	C9H9O+
143.0492	2	C10H7O+
145.065	7	C10H9O+
158.0364	3	C10H6O2+
161.0598	10	C10H9O2+
173.0598	64	C11H9O2+
189.0548	9	C11H9O3+
202.0262	447	C11H6O4+
217.0496	999	C12H9O4+
