Mass spectrum: Gelsemine; LC-ESI-ITFT; MS2; CE: 90%; R=15000; [M+H]+
Name: Gelsemine
Name: (2`S,3S,5`S,6`S,11`S)-2`-ethenyl-4`-methylspiro[1H-indole-3,7`-9-oxa-4-azatetracyclo[6.3.1.02,6.05,11]dodecane]-2-one
Formula: C20H22N2O2
Exact mass: 322.1681
SMILES: CN1C[C@@]2([C@@H]3[C@H]1[C@@H]4C2CC([C@@]35c6ccccc6NC5=O)OC4)C=C
InChI: InChI=1S/C20H22N2O2/c1-3-19-10-22(2)16-11-9-24-15(8-13(11)19)20(17(16)19)12-6-4-5-7-14(12)21-18(20)23/h3-7,11,13,15-17H,1,8-10H2,2H3,(H,21,23)/t11-,13?,15?,16+,17-,19-,20-/m0/s1
Instrument: LTQ Orbitrap XL Thermo Scientific
Instrument type: LC-ESI-ITFT
Ms type: MS2
Ion mode: POSITIVE
Ionization: ESI
Fragmentation mode: HCD
Collision energy: 90% (nominal)
Resolution: 15000
Column name: Kinetex Evo C18 2.6 um 50 x 2.1 mm
Retention time: 1.779 min
Base peak: 143.0015
Precursor m/z: 323.1754
Precursor type: [M+H]+
m/z	relative intensity	assigned
70.0651	999	C4H8N+
86.0601	22	C4H8NO+
88.0755	11	C4H10NO+
91.0543	136	C7H7+
94.0652	12	C6H8N+
103.0541	11	C8H7+
104.0495	18	C7H6N+
105.0699	34	C8H9+
108.0807	12	C7H10N+
115.0543	64	C9H7+
116.062	25	C9H8+
117.0699	120	C9H9+
118.0648	15	C8H8N+
120.0807	18	C8H10N+
121.0887	11	C8H11N+
128.0494	25	C9H6N+
128.0622	9	C10H8+
129.0699	35	C10H9+
130.0652	75	C9H8N+
131.0856	47	C10H11+
132.0445	115	C8H6NO+
132.0806	17	C9H10N+
134.0596	11	C8H8NO+
134.0965	37	C9H12N+
144.0807	11	C10H10N+
146.06	78	C9H8NO+
146.0966	28	C10H12N+
148.1123	21	C10H14N+
152.0623	9	C12H8+
154.0656	10	C11H8N+
158.0603	42	C10H8NO+
165.07	21	C13H9+
166.0648	18	C12H8N+
167.0729	60	C12H9N+
168.0804	13	C12H10N+
177.0574	37	C13H7N+
178.0651	43	C13H8N+
180.0809	53	C13H10N+
183.0682	17	C12H9NO+
184.0759	10	C12H10NO+
190.0657	27	C14H8N+
191.0731	13	C14H9N+
191.0853	20	C15H11+
192.0809	28	C14H10N+
193.0889	22	C14H11N+
195.0678	323	C13H9NO+
196.0757	101	C13H10NO+
202.077	9	C16H10+
203.0729	72	C15H9N+
204.0806	19	C15H10N+
208.0756	68	C14H10NO+
209.0838	10	C14H11NO+
210.0912	89	C14H12NO+
216.0808	23	C16H10N+
217.0883	62	C16H11N+
218.0963	67	C16H12N+
222.0924	16	C15H12NO+
230.0972	9	C17H12N+
233.0828	8	C16H11NO+
234.0911	12	C16H12NO+
236.1071	105	C16H14NO+
