Mass spectrum: Ajmalicine; LC-ESI-ITFT; MS2; CE: 70%; R=15000; [M+H]+
Name: Ajmalicine
Name: methyl (1S,15R,16S,20S)-16-methyl-17-oxa-3,13-diazapentacyclo[11.8.0.02,10.04,9.015,20]henicosa-2(10),4,6,8,18-pentaene-19-carboxylate
Formula: C21H24N2O3
Exact mass: 352.1787
SMILES: C[C@H]1[C@H]2CN3CCc4c5ccccc5[nH]c4[C@@H]3C[C@@H]2C(=CO1)C(=O)OC
InChI: InChI=1S/C21H24N2O3/c1-12-16-10-23-8-7-14-13-5-3-4-6-18(13)22-20(14)19(23)9-15(16)17(11-26-12)21(24)25-2/h3-6,11-12,15-16,19,22H,7-10H2,1-2H3/t12-,15-,16+,19-/m0/s1
Instrument: LTQ Orbitrap XL Thermo Scientific
Instrument type: LC-ESI-ITFT
Ms type: MS2
Ion mode: POSITIVE
Ionization: ESI
Fragmentation mode: HCD
Collision energy: 70% (nominal)
Resolution: 15000
Column name: Kinetex Evo C18 2.6 um 50 x 2.1 mm
Retention time: 7.532 min
Base peak: 116.9858
Precursor m/z: 353.186
Precursor type: [M+H]+
m/z	relative intensity	assigned
68.0495	1	C4H6N+
77.0386	1	C6H5+
79.0542	4	C6H7+
81.0699	6	C6H9+
82.0652	1	C5H8N+
83.0128	2	C4H3O2+
84.0807	1	C5H10N+
91.0542	5	C7H7+
95.0492	4	C6H7O+
103.0544	2	C8H7+
105.0698	2	C8H9+
107.0492	2	C7H7O+
108.0808	14	C7H10N+
109.0284	4	C6H5O2+
109.0648	4	C7H9O+
115.0542	6	C9H7+
116.0492	1	C8H6N+
117.0572	4	C8H7N+
117.0698	68	C9H9+
118.065	2	C8H8N+
118.0733	4	C4H10N2O2+
119.0494	1	C8H7O+
120.0808	2	C8H10N+
121.0647	2	C8H9O+
124.0393	22	C6H6NO2+
127.0543	1	C10H7+
128.0495	2	C9H6N+
128.0621	3	C10H8+
129.0698	7	C10H9+
130.0651	18	C9H8N+
131.0729	2	C9H9N+
132.0807	2	C9H10N+
133.0649	2	C9H9O+
134.0965	3	C9H12N+
135.0444	1	C8H7O2+
136.0755	2	C8H10NO+
142.0652	1	C10H8N+
143.0731	39	C10H9N+
143.0856	4	C11H11+
144.0807	999	C10H10N+
146.0599	1	C9H8NO+
146.0957	1	C10H12N+
149.0595	1	C9H9O2+
150.091	2	C9H12NO+
154.0651	3	C11H8N+
155.0604	21	C10H7N2+
155.0728	9	C11H9N+
156.0807	27	C11H10N+
157.0885	10	C11H11N+
158.06	1	C10H8NO+
158.0964	16	C11H12N+
162.091	3	C10H12NO+
164.0707	2	C9H10NO2+
168.0807	15	C12H10N+
169.0887	6	C12H11N+
170.0964	56	C12H12N+
178.0863	23	C10H12NO2+
180.0808	8	C13H10N+
181.0887	5	C13H11N+
182.0964	32	C13H12N+
184.0762	1	C12H10NO+
184.0993	1	C12H12N2+
191.0723	1	C14H9N+
192.0809	2	C14H10N+
193.089	1	C14H11N+
194.0964	7	C14H12N+
196.1117	4	C14H14N+
204.0805	2	C15H10N+
205.0889	3	C15H11N+
206.0964	7	C15H12N+
207.1045	3	C15H13N+
208.0755	2	C14H10NO+
208.112	4	C15H14N+
210.091	2	C14H12NO+
210.1121	1	C11H16NO3+
217.0888	4	C16H11N+
218.0969	2	C16H12N+
219.1048	2	C16H13N+
220.0755	1	C15H10NO+
220.112	3	C16H14N+
222.0923	2	C15H12NO+
222.1276	5	C16H16N+
224.1072	4	C15H14NO+
230.0965	1	C17H12N+
231.1048	2	C17H13N+
232.1125	3	C17H14N+
233.0843	1	C16H11NO+
234.0913	4	C16H12NO+
234.1279	2	C17H16N+
236.1079	1	C16H14NO+
236.1442	1	C17H18N+
246.1277	1	C18H16N+
248.1078	1	C17H14NO+
250.122	3	C17H16NO+
252.1017	5	C16H14NO2+
260.1072	2	C18H14NO+
264.1383	1	C18H18NO+
278.1164	1	C18H16NO2+
