Mass spectrum: 4-Hydroxycoumarin; LC-ESI-ITFT; MS2; CE: 70%; R=15000; [M+H]+
Name: 4-Hydroxycoumarin
Name: 4-hydroxychromen-2-one
Formula: C9H6O3
Exact mass: 162.0317
SMILES: OC1=CC(=O)OC2=CC=CC=C12
InChI: InChI=1S/C9H6O3/c10-7-5-9(11)12-8-4-2-1-3-6(7)8/h1-5,10H
Instrument: LTQ Orbitrap XL Thermo Scientific
Instrument type: LC-ESI-ITFT
Ms type: MS2
Ion mode: POSITIVE
Ionization: ESI
Fragmentation mode: HCD
Collision energy: 70 % (nominal)
Resolution: 15000
Column name: Kinetex Evo C18 2.6 um 50 x 2.1 mm
Retention time: 7.999 min
Base peak: 163.0392
Precursor m/z: 163.039
Precursor type: [M+H]+
m/z	relative intensity	assigned
65.0383	23	C5H5+
68.9969	138	C3HO2+
77.0384	18	C6H5+
79.0541	20	C6H7+
89.0386	2	C7H5+
91.0542	294	C7H7+
93.0334	36	C6H5O+
95.0491	167	C6H7O+
105.0447	4	C6H5N2+
107.0491	13	C7H7O+
111.044	4	C6H7O2+
119.0491	49	C8H7O+
121.0283	999	C7H5O2+
129.0445	7	C8H5N2+
139.0388	6	C7H7O3+
145.0283	4	C9H5O2+
163.0387	736	C9H7O3+
