Mass spectrum: Matairesinol; LC-ESI-ITFT; MS2; CE: 30%; R=15000; [M+H]+
Name: Matairesinol
Formula: C20H22O6
Exact mass: 358.1416
SMILES: COC1=CC(C[C@H]2COC(=O)[C@@H]2CC2=CC=C(O)C(OC)=C2)=CC=C1O
InChI: InChI=1S/C20H22O6/c1-24-18-9-12(3-5-16(18)21)7-14-11-26-20(23)15(14)8-13-4-6-17(22)19(10-13)25-2/h3-6,9-10,14-15,21-22H,7-8,11H2,1-2H3/t14-,15+/m0/s1
Instrument: LTQ Orbitrap XL Thermo Scientific
Instrument type: LC-ESI-ITFT
Ms type: MS2
Ion mode: POSITIVE
Ionization: ESI
Fragmentation mode: HCD
Collision energy: 30 % (nominal)
Resolution: 15000
Column name: Kinetex Evo C18 2.6 um 50x2.1 mm, Phenomenex
Retention time: 9.292 min
Base peak: 147.0803
Precursor m/z: 359.1489
Precursor type: [M+H]+
m/z	relative intensity	assigned
131.049	74	C9H7O+
137.0596	999	C8H9O2+
149.0597	4	C9H9O2+
151.0388	27	C8H7O3+
163.0752	79	C10H11O2+
179.0697	6	C10H11O3+
191.0704	6	C11H11O3+
205.085	13	C12H13O3+
217.0854	29	C13H13O3+
223.0966	31	C12H15O4+
235.0958	4	C13H15O4+
263.1065	6	C18H15O2+
291.1002	10	C19H15O3+
323.1285	5	C20H19O4+
341.1398	5	C20H21O5+
