Mass spectrum: Pterosin B; LC-ESI-ITFT; MS2; CE: 65%; R=15000; [M+H]+
Name: Pterosin B
Name: (2R)-6-(2-hydroxyethyl)-2,5,7-trimethyl-2,3-dihydroinden-1-one
Formula: C14H18O2
Exact mass: 218.1307
SMILES: C[C@@H]1CC2=C(C1=O)C(=C(C(=C2)C)CCO)C
InChI: InChI=1S/C14H18O2/c1-8-6-11-7-9(2)14(16)13(11)10(3)12(8)4-5-15/h6,9,15H,4-5,7H2,1-3H3/t9-/m1/s1
Instrument: LTQ Orbitrap XL Thermo Scientific
Instrument type: LC-ESI-ITFT
Ms type: MS2
Ion mode: POSITIVE
Ionization: ESI
Fragmentation mode: HCD
Collision energy: 65 % (nominal)
Resolution: 15000
Column name: Kinetex Evo C18 2.6 um 50 x 2.1 mm
Retention time: 10.332 min
Base peak: 219.1371
Precursor m/z: 219.138
Precursor type: [M+H]+
m/z	relative intensity	assigned
67.054	18	C5H7+
69.0332	11	C4H5O+
91.054	34	C7H7+
95.0489	13	C6H7O+
105.0696	89	C8H9+
107.0851	15	C8H11+
117.0696	55	C9H9+
119.0852	154	C9H11+
121.1008	8	C9H13+
129.0695	64	C10H9+
130.0773	70	C10H10+
131.0852	256	C10H11+
133.1008	148	C10H13+
141.0692	22	C11H9+
142.0774	73	C11H10+
143.0852	253	C11H11+
144.093	139	C11H12+
145.1008	760	C11H13+
147.1165	13	C11H15+
149.0956	14	C10H13O+
153.0696	83	C12H9+
155.0852	137	C12H11+
156.0931	69	C12H12+
157.1008	94	C12H13+
158.0722	19	C11H10O+
158.1087	259	C12H14+
159.08	92	C11H11O+
159.1165	115	C12H15+
163.1114	63	C11H15O+
167.0848	21	C13H11+
168.093	436	C13H12+
170.1087	14	C13H14+
171.0801	95	C12H11O+
171.1165	72	C13H15+
172.088	132	C12H12O+
173.0957	272	C12H13O+
173.132	393	C13H17+
174.1034	129	C12H14O+
175.1111	15	C12H15O+
181.1011	21	C14H13+
183.1164	330	C14H15+
186.1035	500	C13H14O+
188.1191	41	C13H16O+
191.1428	9	C13H19O+
199.1112	43	C14H15O+
201.1269	999	C14H17O+
204.114	36	C13H16O2+
219.1373	280	C14H19O2+
