Mass spectrum: Conessine; LC-ESI-ITFT; MS2; CE: 75%; R=15000; [M+H]+
Name: Conessine
Formula: C24H40N2
Exact mass: 356.3191
SMILES: C[C@H]1[C@H]2CC[C@H]3[C@@H]4CC=C5C[C@H](CC[C@]5(C)[C@H]4CC[C@]23CN1C)N(C)C
InChI: InChI=1S/C24H40N2/c1-16-20-8-9-22-19-7-6-17-14-18(25(3)4)10-12-23(17,2)21(19)11-13-24(20,22)15-26(16)5/h6,16,18-22H,7-15H2,1-5H3/t16-,18-,19+,20+,21-,22-,23-,24-/m0/s1
Instrument: LTQ Orbitrap XL Thermo Scientific
Instrument type: LC-ESI-ITFT
Ms type: MS2
Ion mode: POSITIVE
Ionization: ESI
Fragmentation mode: CID
Collision energy: 75 % (nominal)
Resolution: 15000
Column name: Kinetex Evo C18 2.6 um 50 x 2.1 mm
Retention time: 5.491 min
Base peak: 179.1666
Precursor m/z: 357.3264
Precursor type: [M+H]+
m/z	relative intensity	assigned
103.0542	1	C8H7+
105.0699	13	C8H9+
107.0854	2	C8H11+
109.1011	2	C8H13+
115.0543	4	C9H7+
117.0699	12	C9H9+
119.0855	20	C9H11+
121.1013	8	C9H13+
128.0623	3	C10H8+
129.0699	11	C10H9+
131.0856	31	C10H11+
133.1012	24	C10H13+
135.1169	12	C10H15+
142.0778	1	C11H10+
143.0856	9	C11H11+
144.0934	3	C11H12+
145.1012	38	C11H13+
147.1169	61	C11H15+
149.1326	6	C11H17+
155.0859	1	C12H11+
157.1013	12	C12H13+
159.1169	129	C12H15+
161.1326	113	C12H17+
163.1485	2	C12H19+
169.1008	2	C13H13+
171.1169	16	C13H15+
173.1326	69	C13H17+
175.1481	10	C13H19+
183.117	3	C14H15+
185.1326	16	C14H17+
187.1482	77	C14H19+
199.1481	23	C15H19+
201.1638	10	C15H21+
213.1637	20	C16H21+
225.1632	4	C17H21+
227.1795	21	C17H23+
239.1793	2	C18H23+
241.1956	4	C18H25+
269.2264	180	C20H29+
298.2532	3	C21H32N+
299.261	10	C21H33N+
312.2686	999	C22H34N+
326.2844	6	C23H36N+
