Mass spectrum: Ajmalicine; LC-ESI-ITFT; MS2; CE: 75%; R=15000; [M+H]+
Name: Ajmalicine
Name: methyl (1S,15R,16S,20S)-16-methyl-17-oxa-3,13-diazapentacyclo[11.8.0.02,10.04,9.015,20]henicosa-2(10),4,6,8,18-pentaene-19-carboxylate
Formula: C21H24N2O3
Exact mass: 352.1787
SMILES: C[C@H]1[C@H]2CN3CCc4c5ccccc5[nH]c4[C@@H]3C[C@@H]2C(=CO1)C(=O)OC
InChI: InChI=1S/C21H24N2O3/c1-12-16-10-23-8-7-14-13-5-3-4-6-18(13)22-20(14)19(23)9-15(16)17(11-26-12)21(24)25-2/h3-6,11-12,15-16,19,22H,7-10H2,1-2H3/t12-,15-,16+,19-/m0/s1
Instrument: LTQ Orbitrap XL Thermo Scientific
Instrument type: LC-ESI-ITFT
Ms type: MS2
Ion mode: POSITIVE
Ionization: ESI
Fragmentation mode: HCD
Collision energy: 75% (nominal)
Resolution: 15000
Column name: Kinetex Evo C18 2.6 um 50 x 2.1 mm
Retention time: 7.532 min
Base peak: 116.9858
Precursor m/z: 353.186
Precursor type: [M+H]+
m/z	relative intensity	assigned
68.0492	1	C4H6N+
77.0386	1	C6H5+
79.0542	6	C6H7+
81.0333	1	C5H5O+
81.0698	7	C6H9+
82.0652	1	C5H8N+
83.0126	3	C4H3O2+
84.0808	3	C5H10N+
91.0542	8	C7H7+
93.0699	1	C7H9+
95.0491	4	C6H7O+
96.0808	1	C6H10N+
103.054	4	C8H7+
105.0697	3	C8H9+
107.049	2	C7H7O+
108.0807	15	C7H10N+
109.0281	5	C6H5O2+
109.0649	2	C7H9O+
115.0541	13	C9H7+
116.0493	1	C8H6N+
117.0572	7	C8H7N+
117.0698	90	C9H9+
118.0651	5	C8H8N+
118.0732	4	C4H10N2O2+
120.0807	1	C8H10N+
121.0646	3	C8H9O+
124.0392	21	C6H6NO2+
127.0541	2	C10H7+
128.0495	4	C9H6N+
128.0618	5	C10H8+
129.0698	10	C10H9+
130.065	21	C9H8N+
131.0728	3	C9H9N+
132.0807	2	C9H10N+
133.0649	2	C9H9O+
134.0964	3	C9H12N+
135.044	2	C8H7O2+
136.0757	1	C8H10NO+
142.0651	2	C10H8N+
143.0729	61	C10H9N+
143.0855	5	C11H11+
144.0806	999	C10H10N+
145.0648	2	C10H9O+
146.0598	2	C9H8NO+
149.0591	1	C9H9O2+
150.091	2	C9H12NO+
153.0702	1	C12H9+
154.065	3	C11H8N+
155.0602	38	C10H7N2+
155.0728	16	C11H9N+
156.0806	29	C11H10N+
157.0884	12	C11H11N+
158.0601	1	C10H8NO+
158.0963	15	C11H12N+
162.0915	3	C10H12NO+
164.0705	1	C9H10NO2+
167.0736	9	C12H9N+
168.0806	23	C12H10N+
169.0885	7	C12H11N+
170.0963	57	C12H12N+
178.0862	15	C10H12NO2+
179.086	1	C14H11+
180.0807	11	C13H10N+
181.0886	7	C13H11N+
182.0962	32	C13H12N+
184.0752	1	C12H10NO+
184.0996	1	C12H12N2+
191.0723	1	C14H9N+
192.0804	3	C14H10N+
193.0889	3	C14H11N+
194.0963	10	C14H12N+
196.1117	4	C14H14N+
204.0806	2	C15H10N+
205.088	3	C15H11N+
206.0961	8	C15H12N+
207.1043	4	C15H13N+
208.0763	1	C14H10NO+
208.1118	4	C15H14N+
209.0838	1	C14H11NO+
210.0911	4	C14H12NO+
217.0882	4	C16H11N+
218.0965	4	C16H12N+
219.1039	2	C16H13N+
220.0751	2	C15H10NO+
220.112	3	C16H14N+
221.0841	1	C15H11NO+
222.0914	2	C15H12NO+
222.1277	4	C16H16N+
224.1062	2	C15H14NO+
231.1036	3	C17H13N+
232.1118	3	C17H14N+
233.0834	1	C16H11NO+
234.091	5	C16H12NO+
234.1273	2	C17H16N+
250.1224	1	C17H16NO+
252.1013	2	C16H14NO2+
260.1072	2	C18H14NO+
