Mass spectrum: 6-beta-Hydroxycortisol; LC-ESI-ITFT; MS2; CE: 115%; R=15000; [M+H]+
Name: 6-beta-Hydroxycortisol
Name: 6beta-Hydroxycortisol
Name: (6R,8S,9S,10R,11S,13S,14S,17R)-6,11,17-trihydroxy-17-(2-hydroxyacetyl)-10,13-dimethyl-2,6,7,8,9,11,12,14,15,16-decahydro-1H-cyclopenta[a]phenanthren-3-one
Formula: C21H30O6
Exact mass: 378.2042
SMILES: C[C@]12C[C@H](O)[C@H]3[C@@H](C[C@@H](O)C4=CC(=O)CC[C@]34C)[C@@H]1CC[C@]2(O)C(=O)CO
InChI: InChI=1S/C21H30O6/c1-19-5-3-11(23)7-14(19)15(24)8-12-13-4-6-21(27,17(26)10-22)20(13,2)9-16(25)18(12)19/h7,12-13,15-16,18,22,24-25,27H,3-6,8-10H2,1-2H3/t12-,13-,15+,16-,18+,19-,20-,21-/m0/s1
Instrument: LTQ Orbitrap XL Thermo Scientific
Instrument type: LC-ESI-ITFT
Ms type: MS2
Ion mode: POSITIVE
Ionization: ESI
Fragmentation mode: CID
Collision energy: 115 % (nominal)
Resolution: 15000
Column name: Kinetex Evo C18 2.6 um 50 x 2.1 mm
Retention time: 6.488 min
Base peak: 379.2121
Precursor m/z: 379.2115
Precursor type: [M+H]+
m/z	relative intensity	assigned
173.0962	24	C12H13O+
195.1168	28	C15H15+
197.1326	21	C15H17+
199.1117	39	C14H15O+
209.132	41	C16H17+
221.1323	50	C17H17+
223.1117	45	C16H15O+
223.1486	22	C17H19+
225.1273	38	C16H17O+
227.1435	34	C16H19O+
235.1479	33	C18H19+
237.1278	102	C17H17O+
239.143	233	C17H19O+
241.1582	33	C17H21O+
247.1478	117	C19H19+
249.1278	85	C18H17O+
249.1639	40	C19H21+
253.1585	34	C18H21O+
255.1382	38	C17H19O2+
257.1539	62	C17H21O2+
261.1638	78	C20H21+
263.1429	74	C19H19O+
265.1587	318	C19H21O+
267.1379	74	C18H19O2+
267.1744	239	C19H23O+
269.1541	33	C18H21O2+
277.1586	80	C20H21O+
279.1743	225	C20H23O+
281.1535	52	C19H21O2+
283.1692	391	C19H23O2+
285.1849	157	C19H25O2+
289.1587	173	C21H21O+
295.1694	297	C20H23O2+
297.1848	241	C20H25O2+
299.1644	28	C19H23O3+
301.1797	46	C19H25O3+
307.1693	484	C21H23O2+
313.1799	549	C20H25O3+
315.1952	60	C20H27O3+
325.1799	870	C21H25O3+
331.1904	169	C20H27O4+
343.1904	999	C21H27O4+
349.2011	52	C20H29O5+
361.201	802	C21H29O5+
