Mass spectrum: 5-Carboline; LC-ESI-ITFT; MS2; CE: 120%; R=15000; [M+H]+
Name: 5-Carboline
Name: gamma-Carboline
Name: 5H-pyrido[4,3-b]indole
Formula: C11H8N2
Exact mass: 168.0687
SMILES: N1C2=C(C=CC=C2)C2=C1C=CN=C2
InChI: InChI=1S/C11H8N2/c1-2-4-10-8(3-1)9-7-12-6-5-11(9)13-10/h1-7,13H
Instrument: LTQ Orbitrap XL Thermo Scientific
Instrument type: LC-ESI-ITFT
Ms type: MS2
Ionization: ESI
Ion mode: POSITIVE
Fragmentation mode: HCD
Collision energy: 120 % (nominal)
Resolution: 15000
Column name: Kinetex Evo C18 2.6 um 50 x 2.1 mm
Retention time: 1.792 min
Base peak: 169.0766
Precursor m/z: 169.076
Precursor type: [M+H]+
m/z	relative intensity	assigned
89.0388	9	C7H5+
91.0545	4	C7H7+
114.0468	6	C9H6+
115.0544	999	C9H7+
116.0496	39	C8H6N+
117.0574	5	C8H7N+
128.0497	3	C9H6N+
129.0448	3	C8H5N2+
129.0576	5	C9H7N+
134.0603	5	C8H8NO+
140.0498	42	C10H6N+
141.0574	63	C10H7N+
142.0653	124	C10H8N+
143.0598	1	C9H7N2+
152.0498	1	C11H6N+
167.0608	15	C11H7N2+
168.0685	237	C11H8N2+
169.0763	472	C11H9N2+
