Mass spectrum: Galantamine; LC-ESI-ITFT; MS2; CE: 45%; R=15000; [M+H]+
Name: Galantamine
Formula: C17H21NO3
Exact mass: 287.1521
SMILES: CN1CCC23C=CC(CC2OC4=C(C=CC(=C34)C1)OC)O
InChI: InChI=1S/C17H21NO3/c1-18-8-7-17-6-5-12(19)9-14(17)21-16-13(20-2)4-3-11(10-18)15(16)17/h3-6,12,14,19H,7-10H2,1-2H3
Instrument: LTQ Orbitrap XL Thermo Scientific
Instrument type: LC-ESI-ITFT
Ms type: MS2
Ion mode: POSITIVE
Ionization: ESI
Fragmentation mode: HCD
Collision energy: 45 % (nominal)
Resolution: 15000
Column name: Kinetex Evo C18 2.6 um 50 x 2.1 mm
Retention time: 0.589 min
Base peak: 235.2166
Precursor m/z: 288.1594
Precursor type: [M+H]+
m/z	relative intensity	assigned
58.065	11	C3H8N+
93.07	14	C7H9+
109.0648	18	C7H9O+
133.0884	8	C9H11N+
135.0804	6	C9H11O+
137.0594	6	C8H9O2+
151.075	7	C9H11O2+
151.0992	16	C9H13NO+
161.0963	9	C11H13O+
169.0649	7	C12H9O+
171.08	8	C12H11O+
175.0754	15	C11H11O2+
175.1116	16	C12H15O+
179.0855	12	C14H11+
181.1012	29	C14H13+
182.0724	12	C13H10O+
185.0963	12	C13H13O+
189.0911	18	C12H13O2+
191.0857	5	C15H11+
197.0962	45	C14H13O+
198.0674	55	C13H10O2+
199.0754	27	C13H11O2+
203.1067	59	C13H15O2+
207.0812	13	C15H11O+
209.0961	94	C15H13O+
213.091	999	C14H13O2+
225.091	116	C15H13O2+
227.1073	8	C15H15O2+
229.0856	6	C14H13O3+
231.1016	262	C14H15O3+
255.1243	13	C16H17NO2+
270.1487	59	C17H20NO2+
288.1593	41	C17H22NO3+
