Mass spectrum: (-)-Strychnine; LC-ESI-ITFT; MS2; CE: 60%; R=15000; [M+H]+
Name: (-)-Strychnine
Name: Strychnine
Name: (4aR,5aS,8aR,13aS,15aS,15bR)-4a,5,5a,7,8,13a,15,15a,15b,16-decahydro-2H-4,6-methanoindolo[3,2,1-ij]oxepino[2,3,4-de]pyrrolo[2,3-h]quinolin-14-one
Formula: C21H22N2O2
Exact mass: 334.1681
SMILES: c1ccc2c(c1)[C@]34CCN5[C@H]3C[C@@H]6[C@@H]7[C@@H]4N2C(=O)C[C@@H]7OCC=C6C5
InChI: InChI=1S/C21H22N2O2/c24-18-10-16-19-13-9-17-21(6-7-22(17)11-12(13)5-8-25-16)14-3-1-2-4-15(14)23(18)20(19)21/h1-5,13,16-17,19-20H,6-11H2/t13-,16-,17-,19-,20-,21+/m0/s1
Instrument: LTQ Orbitrap XL Thermo Scientific
Instrument type: LC-ESI-ITFT
Ms type: MS2
Ion mode: POSITIVE
Ionization: ESI
Fragmentation mode: HCD
Collision energy: 60% (nominal)
Resolution: 15000
Column name: Kinetex Evo C18 2.6 um 50 x 2.1 mm
Retention time: 3.150 min
Base peak: 143.0015
Precursor m/z: 335.1754
Precursor type: [M+H]+
m/z	relative intensity	assigned
81.0697	3	C6H9+
108.081	12	C7H10N+
118.0655	3	C8H8N+
121.0648	5	C8H9O+
122.0605	4	C7H8NO+
124.0756	9	C7H10NO+
144.0807	17	C10H10N+
156.0809	14	C11H10N+
169.0764	3	C11H9N2+
171.0921	6	C11H11N2+
182.0961	3	C13H12N+
184.0758	178	C12H10NO+
194.0968	8	C14H12N+
196.0759	8	C13H10NO+
198.0913	16	C13H12NO+
210.0914	7	C14H12NO+
220.076	19	C15H10NO+
222.0913	50	C15H12NO+
224.1066	3	C15H14NO+
234.0916	13	C16H12NO+
234.1269	4	C17H16N+
246.0918	8	C17H12NO+
248.1067	10	C17H14NO+
262.1228	22	C18H16NO+
264.1022	67	C17H14NO2+
264.1381	3	C18H18NO+
266.1173	12	C17H16NO2+
272.1073	11	C19H14NO+
274.1226	10	C19H16NO+
290.1177	13	C19H16NO2+
292.1327	5	C19H18NO2+
306.1485	9	C20H20NO2+
307.1445	25	C19H19N2O2+
335.1756	999	C21H23N2O2+
