Mass spectrum: Cortisone; LC-ESI-ITFT; MS2; CE: 55%; R=15000; [M+H]+
Name: Cortisone
Name: (8S,9S,10R,13S,14S,17R)-17-hydroxy-17-(2-hydroxyacetyl)-10,13-dimethyl-1,2,6,7,8,9,12,14,15,16-decahydrocyclopenta[a]phenanthrene-3,11-dione
Formula: C21H28O5
Exact mass: 360.1937
SMILES: C[C@]12CC(=O)[C@H]3[C@@H](CCC4=CC(=O)CC[C@]34C)[C@@H]1CC[C@]2(O)C(=O)CO
InChI: InChI=1S/C21H28O5/c1-19-7-5-13(23)9-12(19)3-4-14-15-6-8-21(26,17(25)11-22)20(15,2)10-16(24)18(14)19/h9,14-15,18,22,26H,3-8,10-11H2,1-2H3/t14-,15-,18+,19-,20-,21-/m0/s1
Instrument: LTQ Orbitrap XL Thermo Scientific
Instrument type: LC-ESI-ITFT
Ms type: MS2
Ion mode: POSITIVE
Ionization: ESI
Fragmentation mode: CID
Collision energy: 55 % (nominal)
Resolution: 15000
Column name: Kinetex Evo C18 2.6 um 50 x 2.1 mm
Retention time: 9.572 min
Base peak: 361.2009
Precursor m/z: 361.201
Precursor type: [M+H]+
m/z	relative intensity	assigned
93.0699	6	C7H9+
105.0699	29	C8H9+
107.0854	13	C8H11+
115.0542	9	C9H7+
117.0699	11	C9H9+
119.0855	20	C9H11+
121.0648	94	C8H9O+
121.1011	11	C9H13+
123.0804	14	C8H11O+
128.0621	3	C10H8+
129.0697	11	C10H9+
131.0856	24	C10H11+
133.0647	11	C9H9O+
133.1012	14	C10H13+
135.0803	49	C9H11O+
135.1168	16	C10H15+
137.096	6	C9H13O+
139.0754	9	C8H11O2+
143.0855	20	C11H11+
145.0649	14	C10H9O+
145.1011	87	C11H13+
146.1049	3	C6H14N2O2+
147.0804	76	C10H11O+
147.1168	12	C11H15+
148.0879	3	C10H12O+
149.0959	17	C10H13O+
151.0752	18	C9H11O2+
153.0908	13	C9H13O2+
155.0855	14	C12H11+
157.065	6	C11H9O+
157.1011	18	C12H13+
159.0804	30	C11H11O+
159.1169	13	C12H15+
161.0598	5	C10H9O2+
161.096	53	C11H13O+
163.1116	869	C11H15O+
164.115	14	C6H16N2O3+
165.0907	9	C10H13O2+
165.1272	9	C11H17O+
167.0854	4	C13H11+
169.0862	3	C9H13O3+
169.101	20	C13H13+
171.0804	41	C12H11O+
171.1167	74	C13H15+
173.0959	69	C12H13O+
175.1115	22	C12H15O+
177.0908	31	C11H13O2+
177.1271	2	C12H17O+
179.0853	3	C14H11+
179.1064	14	C11H15O2+
181.0862	9	C10H13O3+
181.1011	28	C14H13+
183.081	6	C13H11O+
183.1167	25	C14H15+
185.0959	27	C13H13O+
185.1325	9	C14H17+
187.0753	15	C12H11O2+
187.1115	40	C13H15O+
189.0908	40	C12H13O2+
189.1274	18	C13H17O+
191.1067	39	C12H15O2+
193.101	8	C15H13+
195.0806	4	C14H11O+
195.1166	28	C15H15+
197.096	18	C14H13O+
197.1321	25	C15H17+
199.1115	58	C14H15O+
201.0909	11	C13H13O2+
201.127	19	C14H17O+
203.1062	14	C13H15O2+
203.1426	5	C14H19O+
205.1013	7	C16H13+
205.1222	11	C13H17O2+
207.1014	11	C12H15O3+
207.1167	28	C16H15+
209.0957	15	C15H13O+
209.1174	5	C12H17O3+
209.1321	25	C16H17+
211.1115	36	C15H15O+
211.1478	19	C16H19+
213.0905	7	C14H13O2+
213.1271	30	C15H17O+
215.1064	7	C14H15O2+
215.1427	14	C15H19O+
217.1221	28	C14H17O2+
219.1012	6	C13H15O3+
219.1165	12	C17H15+
221.1322	48	C17H17+
223.1114	40	C16H15O+
223.1478	40	C17H19+
225.127	56	C16H17O+
225.1634	22	C17H21+
227.1068	11	C15H15O2+
227.1426	27	C16H19O+
229.122	28	C15H17O2+
231.1379	7	C15H19O2+
232.1249	5	C18H16+
233.1323	10	C18H17+
235.1113	5	C17H15O+
235.1479	33	C18H19+
237.127	50	C17H17O+
237.1633	40	C18H21+
239.1066	7	C16H15O2+
239.1426	112	C17H19O+
239.179	18	C18H23+
241.1219	81	C16H17O2+
241.1584	48	C17H21O+
243.1376	31	C16H19O2+
243.1741	17	C17H23O+
245.1167	5	C15H17O3+
245.132	14	C19H17+
247.1112	7	C18H15O+
247.1334	4	C15H19O3+
247.1478	67	C19H19+
249.127	41	C18H17O+
249.1635	43	C19H21+
251.1062	7	C17H15O2+
251.1428	28	C18H19O+
251.1793	18	C19H23+
253.1227	8	C17H17O2+
253.1585	32	C18H21O+
255.1377	41	C17H19O2+
255.1741	43	C18H23O+
257.1533	70	C17H21O2+
257.1898	21	C18H25O+
259.1482	5	C20H19+
261.1276	10	C19H17O+
261.1482	23	C16H21O3+
261.1636	40	C20H21+
263.1425	43	C19H19O+
265.1583	346	C19H21O+
266.1605	10	C11H24NO6+
267.1375	76	C18H19O2+
267.1739	281	C19H23O+
269.153	12	C18H21O2+
269.1895	19	C19H25O+
271.1482	8	C21H19+
271.1699	11	C18H23O2+
273.1479	6	C17H21O3+
277.1583	52	C20H21O+
279.1373	12	C19H19O2+
279.1739	181	C20H23O+
280.177	7	C15H24N2O3+
281.1532	35	C19H21O2+
281.189	8	C20H25O+
283.1688	369	C19H23O2+
284.1771	12	C19H24O2+
285.1482	42	C18H21O3+
285.1843	227	C19H25O2+
286.1882	4	C14H26N2O4+
289.1582	112	C21H21O+
295.1688	200	C20H23O2+
297.1844	160	C20H25O2+
298.1883	3	C15H26N2O4+
299.1636	313	C19H23O3+
301.1793	316	C19H25O3+
303.1582	24	C18H23O4+
303.1952	10	C19H27O3+
307.1687	380	C21H23O2+
308.1727	11	C16H24N2O4+
313.1793	293	C20H25O3+
314.1829	6	C15H26N2O5+
315.1949	68	C20H27O3+
317.1742	24	C19H25O4+
325.1792	520	C21H25O3+
326.1828	16	C16H26N2O5+
331.1895	26	C20H27O4+
343.1896	999	C21H27O4+
344.1926	29	C16H28N2O6+
