Mass spectrum: Jacobine; LC-ESI-ITFT; MS2; CE: 95%; R=15000; [M+H]+
Name: Jacobine
Name: (1R,3`S,4S,6R,7R,17R)-7-hydroxy-3`,6,7-trimethylspiro[2,9-dioxa-14-azatricyclo[9.5.1.014,17]heptadec-11-ene-4,2`-oxirane]-3,8-dione
Formula: C18H25NO6
Exact mass: 351.1682
SMILES: C[C@@H]1C[C@]2([C@@H](O2)C)C(=O)O[C@@H]3CCN4[C@@H]3C(=CC4)COC(=O)[C@]1(C)O
InChI: InChI=1S/C18H25NO6/c1-10-8-18(11(2)25-18)16(21)24-13-5-7-19-6-4-12(14(13)19)9-23-15(20)17(10,3)22/h4,10-11,13-14,22H,5-9H2,1-3H3/t10-,11+,13-,14-,17-,18+/m1/s1
Instrument: LTQ Orbitrap XL Thermo Scientific
Instrument type: LC-ESI-ITFT
Ms type: MS2
Ion mode: POSITIVE
Ionization: ESI
Fragmentation mode: HCD
Collision energy: 95% (nominal)
Resolution: 15000
Column name: Kinetex Evo C18 2.6 um 50 x 2.1 mm
Retention time: 1.041 min
Base peak: 143.0015
Precursor m/z: 352.1755
Precursor type: [M+H]+
m/z	relative intensity	assigned
67.0542	348	C5H7+
68.0494	111	C4H6N+
69.0333	104	C4H5O+
69.0699	85	C5H9+
70.0651	460	C4H8N+
71.049	56	C4H7O+
77.0385	319	C6H5+
79.0543	431	C6H7+
80.0495	559	C5H6N+
81.0572	76	C5H7N+
81.07	123	C6H9+
82.0651	229	C5H8N+
85.0651	41	C5H9O+
91.0542	618	C7H7+
92.0493	55	C6H6N+
93.0571	125	C6H7N+
93.0699	259	C7H9+
94.0651	669	C6H8N+
95.049	198	C6H7O+
95.0728	56	C6H9N+
95.0857	132	C7H11+
96.0805	85	C6H10N+
103.0543	153	C8H7+
105.07	190	C8H9+
106.0652	256	C7H8N+
107.073	199	C7H9N+
108.0807	195	C7H10N+
109.065	56	C7H9O+
109.0885	55	C7H11N+
109.1011	64	C8H13+
110.0602	77	C6H8NO+
110.0964	176	C7H12N+
113.0596	171	C6H9O2+
118.0651	151	C8H8N+
119.0728	55	C8H9N+
120.0808	999	C8H10N+
122.0964	301	C8H12N+
132.081	71	C9H10N+
134.0967	52	C9H12N+
140.1071	142	C8H14NO+
