Mass spectrum: Formononetin; LC-ESI-ITFT; MS2; CE: 100%; R=15000; [M+H]+
Name: Formononetin
Name: 7-hydroxy-3-(4-methoxyphenyl)chromen-4-one
Formula: C16H12O4
Exact mass: 268.0736
SMILES: COc1ccc(cc1)c2coc3cc(ccc3c2=O)O
InChI: InChI=1S/C16H12O4/c1-19-12-5-2-10(3-6-12)14-9-20-15-8-11(17)4-7-13(15)16(14)18/h2-9,17H,1H3
Instrument: LTQ Orbitrap XL Thermo Scientific
Instrument type: LC-ESI-ITFT
Ms type: MS2
Ion mode: POSITIVE
Ionization: ESI
Fragmentation mode: HCD
Collision energy: 100% (nominal)
Resolution: 15000
Column name: Kinetex Evo C18 2.6 um 50 x 2.1 mm
Retention time: 10.629 min
Base peak: 116.9859
Precursor m/z: 269.0808
Precursor type: [M+H]+
m/z	relative intensity	assigned
68.997	23	C3HO2+
77.0388	34	C6H5+
79.0543	28	C6H7+
81.0335	22	C5H5O+
89.0387	25	C7H5+
90.0464	256	C7H6+
103.0543	39	C8H7+
108.0206	80	C6H4O2+
115.0539	25	C9H7+
118.0413	205	C8H6O+
128.062	73	C10H8+
129.0697	30	C10H9+
133.0648	31	C9H9O+
137.0233	133	C7H5O3+
141.07	130	C11H9+
144.0575	27	C10H8O+
152.0622	155	C12H8+
153.0698	72	C12H9+
155.0492	27	C11H7O+
156.0569	45	C11H8O+
157.065	26	C11H9O+
158.0729	27	C11H10O+
168.0571	24	C12H8O+
169.0648	328	C12H9O+
170.0727	126	C12H10O+
181.0648	220	C13H9O+
196.0522	43	C13H8O2+
197.0597	999	C13H9O2+
198.0677	73	C13H10O2+
200.0465	60	C12H8O3+
211.0383	22	C13H7O3+
213.0919	19	C14H13O2+
225.0546	386	C14H9O3+
226.0624	84	C14H10O3+
237.0544	62	C15H9O3+
253.0495	113	C15H9O4+
