Mass spectrum: Imperatorin; LC-ESI-ITFT; MS2; CE: 50%; R=15000; [M+H]+
Name: Imperatorin
Name: 9-(3-methylbut-2-enoxy)furo[3,2-g]chromen-7-one
Formula: C16H14O4
Exact mass: 270.0892
SMILES: CC(=CCOc1c2c(ccc(=O)o2)cc3c1occ3)C
InChI: InChI=1S/C16H14O4/c1-10(2)5-7-19-16-14-12(6-8-18-14)9-11-3-4-13(17)20-15(11)16/h3-6,8-9H,7H2,1-2H3
Instrument: LTQ Orbitrap XL Thermo Scientific
Instrument type: LC-ESI-ITFT
Ms type: MS2
Ion mode: POSITIVE
Ionization: ESI
Fragmentation mode: HCD
Collision energy: 50% (nominal)
Resolution: 15000
Column name: Kinetex Evo C18 2.6 um 50 x 2.1 mm
Retention time: 11.545 min
Base peak: 116.9859
Precursor m/z: 271.0965
Precursor type: [M+H]+
m/z	relative intensity	assigned
69.0699	92	C5H9+
131.0491	35	C9H7O+
147.0442	148	C9H7O2+
157.0284	37	C10H5O2+
159.0441	40	C10H7O2+
175.039	129	C10H7O3+
185.0236	43	C11H5O3+
202.0255	12	C11H6O4+
203.0339	999	C11H7O4+
215.0335	15	C12H7O4+
