Mass spectrum: Conessine; LC-ESI-ITFT; MS2; CE: 90%; R=15000; [M+H]+
Name: Conessine
Formula: C24H40N2
Exact mass: 356.3191
SMILES: C[C@H]1[C@H]2CC[C@H]3[C@@H]4CC=C5C[C@H](CC[C@]5(C)[C@H]4CC[C@]23CN1C)N(C)C
InChI: InChI=1S/C24H40N2/c1-16-20-8-9-22-19-7-6-17-14-18(25(3)4)10-12-23(17,2)21(19)11-13-24(20,22)15-26(16)5/h6,16,18-22H,7-15H2,1-5H3/t16-,18-,19+,20+,21-,22-,23-,24-/m0/s1
Instrument: LTQ Orbitrap XL Thermo Scientific
Instrument type: LC-ESI-ITFT
Ms type: MS2
Ion mode: POSITIVE
Ionization: ESI
Fragmentation mode: HCD
Collision energy: 90 % (nominal)
Resolution: 15000
Column name: Kinetex Evo C18 2.6 um 50 x 2.1 mm
Retention time: 5.272 min
Base peak: 179.1668
Precursor m/z: 357.3264
Precursor type: [M+H]+
m/z	relative intensity	assigned
55.0541	12	C4H7+
58.065	17	C3H8N+
67.0542	135	C5H7+
69.0698	16	C5H9+
70.0651	18	C4H8N+
72.0808	25	C4H10N+
79.0542	168	C6H7+
81.0699	233	C6H9+
83.0854	10	C6H11+
84.0808	999	C5H10N+
91.0542	260	C7H7+
93.0699	231	C7H9+
95.0855	125	C7H11+
105.0698	324	C8H9+
107.0855	115	C8H11+
109.1012	121	C8H13+
115.054	13	C9H7+
117.0699	113	C9H9+
119.0855	143	C9H11+
121.1012	37	C9H13+
123.1167	13	C9H15+
129.0699	45	C10H9+
130.0776	29	C10H10+
131.0855	164	C10H11+
133.1012	104	C10H13+
135.1168	29	C10H15+
136.1126	10	C9H14N+
142.0778	22	C11H10+
143.0856	53	C11H11+
144.0932	43	C11H12+
145.1011	139	C11H13+
147.1168	136	C11H15+
149.1328	10	C11H17+
157.1013	44	C12H13+
159.1169	128	C12H15+
161.1326	59	C12H17+
171.117	19	C13H15+
173.1326	47	C13H17+
185.1324	23	C14H17+
187.1482	25	C14H19+
199.1476	11	C15H19+
225.1631	9	C17H21+
