Mass spectrum: Cevadine; LC-ESI-ITFT; MS2; CE: 90%; R=15000; [M+H]+
Name: Cevadine
Name: Veratrine
Name: [(1R,2S,6S,9S,10R,11S,12S,14R,15S,18S,19S,22S,23S,25R)-1,10,11,12,14,23-hexahydroxy-6,10,19-trimethyl-24-oxa-4-azaheptacyclo[12.12.0.02,11.04,9.015,25.018,23.019,25]hexacosan-22-yl] (Z)-2-methylbut-2-enoate
Formula: C32H49NO9
Exact mass: 591.3407
SMILES: C/C=C(/C)\C(=O)O[C@H]1CC[C@]2([C@H]3[C@@]1(O[C@@]24C[C@]5([C@@H]6CN7C[C@H](CC[C@H]7[C@@]([C@]6([C@H](C[C@]5([C@@H]4CC3)O)O)O)(C)O)C)O)O)C
InChI: InChI=1S/C32H49NO9/c1-6-18(3)25(35)41-24-11-12-26(4)19-8-9-20-28(37)13-23(34)31(39)21(29(28,38)16-30(20,26)42-32(19,24)40)15-33-14-17(2)7-10-22(33)27(31,5)36/h6,17,19-24,34,36-40H,7-16H2,1-5H3/b18-6-/t17-,19-,20-,21-,22-,23-,24-,26-,27+,28+,29+,30+,31-,32-/m0/s1
Instrument: LTQ Orbitrap XL Thermo Scientific
Instrument type: LC-ESI-ITFT
Ms type: MS2
Ion mode: POSITIVE
Ionization: ESI
Fragmentation mode: HCD
Collision energy: 90% (nominal)
Resolution: 15000
Column name: Kinetex Evo C18 2.6 um 50 x 2.1 mm
Retention time: 9.296 min
Base peak: 116.9858
Precursor m/z: 592.348
Precursor type: [M+H]+
m/z	relative intensity	assigned
55.0541	86	C4H7+
67.0542	27	C5H7+
68.0494	22	C4H6N+
69.0699	43	C5H9+
70.0652	23	C4H8N+
79.0542	55	C6H7+
80.0495	19	C5H6N+
81.0699	72	C6H9+
82.0651	47	C5H8N+
83.0491	210	C5H7O+
84.0808	45	C5H10N+
91.0542	60	C7H7+
93.0699	57	C7H9+
94.065	67	C6H8N+
95.0729	22	C6H9N+
95.0855	24	C7H11+
96.0807	202	C6H10N+
98.0963	248	C6H12N+
105.0699	86	C8H9+
106.065	34	C7H8N+
107.0492	18	C7H7O+
107.0728	24	C7H9N+
107.0855	39	C8H11+
108.0808	82	C7H10N+
109.0647	67	C7H9O+
109.089	21	C7H11N+
110.0964	166	C7H12N+
111.1043	32	C7H13N+
112.112	35	C7H14N+
117.07	32	C9H9+
118.0653	18	C8H8N+
119.0856	41	C9H11+
120.0808	42	C8H10N+
121.0648	50	C8H9O+
121.0882	17	C8H11N+
122.0601	28	C7H8NO+
122.0964	101	C8H12N+
124.112	228	C8H14N+
125.1198	83	C8H15N+
126.1276	162	C8H16N+
128.062	17	C10H8+
128.1069	11	C7H14NO+
129.0697	44	C10H9+
131.0728	13	C9H9N+
131.0854	59	C10H11+
132.0807	112	C9H10N+
133.0646	17	C9H9O+
133.0884	35	C9H11N+
133.1011	27	C10H13+
134.0963	75	C9H12N+
135.08	14	C9H11O+
135.1043	19	C9H13N+
136.112	146	C9H14N+
137.1195	22	C9H15N+
138.1277	999	C9H16N+
141.0698	18	C11H9+
142.0776	29	C11H10+
143.0854	63	C11H11+
144.0807	26	C10H10N+
145.0647	16	C10H9O+
145.0888	29	C10H11N+
145.1015	32	C11H13+
146.0964	175	C10H12N+
147.0804	23	C10H11O+
147.1041	61	C10H13N+
148.0758	15	C9H10NO+
148.112	280	C10H14N+
149.1194	88	C10H15N+
150.0912	19	C9H12NO+
150.1276	250	C10H16N+
152.1071	58	C9H14NO+
154.1225	73	C9H16NO+
155.0854	42	C12H11+
157.1011	31	C12H13+
158.0963	46	C11H12N+
159.0803	23	C11H11O+
159.1044	24	C11H13N+
159.117	13	C12H15+
160.0761	12	C10H10NO+
160.112	210	C11H14N+
161.0966	13	C11H13O+
161.1196	98	C11H15N+
162.1277	774	C11H16N+
163.1332	106	C8H19O3+
164.1069	88	C10H14NO+
164.1433	694	C11H18N+
165.0702	12	C13H9+
166.0773	11	C13H10+
166.1228	22	C10H16NO+
167.0851	13	C13H11+
168.0939	14	C13H12+
169.101	24	C13H13+
172.112	34	C12H14N+
173.0959	19	C12H13O+
173.1198	22	C12H15N+
174.1276	500	C12H16N+
175.0996	19	C11H13NO+
175.1348	74	C12H17N+
176.107	122	C11H14NO+
176.1433	90	C12H18N+
177.1146	74	C11H15NO+
178.1225	193	C11H16NO+
179.085	21	C14H11+
180.138	116	C11H18NO+
181.1007	31	C14H13+
183.08	14	C13H11O+
183.1169	18	C14H15+
185.0961	24	C13H13O+
186.1276	72	C13H16N+
188.1432	844	C13H18N+
190.1225	394	C12H16NO+
190.159	27	C13H20N+
191.1306	152	C12H17NO+
192.1382	238	C12H18NO+
193.101	16	C15H13+
193.1461	98	C12H19NO+
197.0967	14	C14H13O+
198.1269	37	C14H16N+
200.1431	40	C14H18N+
202.1233	20	C13H16NO+
204.1379	98	C13H18NO+
206.1538	135	C13H20NO+
208.1693	257	C13H22NO+
209.0959	14	C15H13O+
212.143	25	C15H18N+
214.1594	20	C15H20N+
216.1382	68	C14H18NO+
220.1327	22	C13H18NO2+
224.1445	16	C16H18N+
226.159	14	C16H20N+
228.1384	23	C15H18NO+
230.1538	16	C15H20NO+
234.1487	52	C14H20NO2+
236.1429	18	C17H18N+
238.1599	14	C17H20N+
242.1533	22	C16H20NO+
244.1335	21	C15H18NO2+
248.1282	17	C14H18NO3+
250.1583	17	C18H20N+
252.1746	23	C18H22N+
254.1548	10	C17H20NO+
260.1637	31	C16H22NO2+
262.1435	26	C15H20NO3+
262.1585	14	C19H20N+
264.1749	15	C19H22N+
266.154	17	C18H20NO+
280.1694	17	C19H22NO+
304.2055	20	C22H26N+
334.2162	17	C23H28NO+
390.2053	19	C25H28NO3+
392.2587	13	C26H34NO2+
394.2383	13	C25H32NO3+
402.2435	19	C27H32NO2+
404.221	32	C26H30NO3+
420.2552	18	C27H34NO3+
438.2623	31	C27H36NO4+
440.2431	35	C26H34NO5+
454.2609	13	C27H36NO5+
522.0378	19	C32H10O8+
