Mass spectrum: Harmine; LC-ESI-ITFT; MS2; CE: 70%; R=15000; [M+H]+
Name: Harmine
Name: 7-methoxy-1-methyl-9H-pyrido[3,4-b]indole
Formula: C13H12N2O
Exact mass: 212.0950
SMILES: COC1=CC2=C(C=C1)C1=C(N2)C(C)=NC=C1
InChI: InChI=1S/C13H12N2O/c1-8-13-11(5-6-14-8)10-4-3-9(16-2)7-12(10)15-13/h3-7,15H,1-2H3
Instrument: LTQ Orbitrap XL Thermo Scientific
Instrument type: LC-ESI-ITFT
Ms type: MS2
Ion mode: POSITIVE
Ionization: ESI
Fragmentation mode: HCD
Collision energy: 70 % (nominal)
Resolution: 15000
Column name: Kinetex Evo C18 2.6 um 50 x 2.1 mm
Retention time: 6.547 min
Base peak: 213.103
Precursor m/z: 213.1022
Precursor type: [M+H]+
m/z	relative intensity	assigned
169.0763	4	C11H9N2+
170.0841	515	C11H10N2+
181.0768	1	C12H9N2+
185.1073	4	C12H13N2+
198.0789	999	C12H10N2O+
213.1024	597	C13H13N2O+
