Mass spectrum: Sparteine; LC-ESI-ITFT; MS2; CE: 50%; R=15000; [M+H]+
Name: Sparteine
Name: Lupinidine
Name: (1S,2R,9S,10S)-7,15-diazatetracyclo[7.7.1.0^{2,7}.0^{10,15}]heptadecane
Formula: C15H26N2
Exact mass: 234.2096
SMILES: C1CCN2C[C@@H]3C[C@@H](CN4CCCC[C@H]34)[C@@H]2C1
InChI: InChI=1S/C15H26N2/c1-3-7-16-11-13-9-12(14(16)5-1)10-17-8-4-2-6-15(13)17/h12-15H,1-11H2/t12-,13-,14-,15+/m0/s1
Instrument: LTQ Orbitrap XL Thermo Scientific
Instrument type: LC-ESI-ITFT
Ms type: MS2
Ion mode: POSITIVE
Ionization: ESI
Fragmentation mode: CID
Collision energy: 50 % (nominal)
Resolution: 15000
Column name: Synergi Polar RP, 2.5 um 100x3.0 mm, Phenomenex
Retention time: 6.930 min
Base peak: 236.0738
Precursor m/z: 235.2169
Precursor type: [M+H]+
m/z	relative intensity	assigned
98.0964	999	C6H12N+
134.0965	134	C9H12N+
150.1276	13	C10H16N+
