Mass spectrum: Pilocarpine; LC-ESI-ITFT; MS2; CE: 85%; R=15000; [M+H]+
Name: Pilocarpine
Name: (3S,4R)-3-ethyl-4-[(3-methylimidazol-4-yl)methyl]oxolan-2-one
Formula: C11H16N2O2
Exact mass: 208.1212
SMILES: CC[C@H]1[C@H](COC1=O)Cc2cncn2C
InChI: InChI=1S/C11H16N2O2/c1-3-10-8(6-15-11(10)14)4-9-5-12-7-13(9)2/h5,7-8,10H,3-4,6H2,1-2H3/t8-,10-/m0/s1
Instrument: LTQ Orbitrap XL Thermo Scientific
Instrument type: LC-ESI-ITFT
Ms type: MS2
Ion mode: POSITIVE
Ionization: ESI
Fragmentation mode: HCD
Collision energy: 85% (nominal)
Resolution: 15000
Column name: Kinetex Evo C18 2.6 um 50 x 2.1 mm
Retention time: 0.620 min
Base peak: 209.1282
Precursor m/z: 209.1285
Precursor type: [M+H]+
m/z	relative intensity	assigned
67.0543	2	C5H7+
68.0495	13	C4H6N+
80.0496	8	C5H6N+
81.0448	10	C4H5N2+
81.0573	6	C5H7N+
81.0699	6	C6H9+
83.0605	17	C4H7N2+
94.0652	33	C6H8N+
95.0605	583	C5H7N2+
96.0683	999	C5H8N2+
97.076	18	C5H9N2+
105.07	7	C8H9+
107.0605	5	C6H7N2+
107.073	10	C7H9N+
108.0807	4	C7H10N+
109.0761	53	C6H9N2+
121.0761	126	C7H9N2+
122.0839	31	C7H10N2+
122.0965	27	C8H12N+
123.0918	44	C7H11N2+
133.0762	26	C8H9N2+
134.0839	19	C8H10N2+
135.0918	50	C8H11N2+
136.1124	10	C9H14N+
139.0866	9	C7H11N2O+
147.0918	20	C9H11N2+
148.0997	11	C9H12N2+
149.1077	9	C9H13N2+
151.1232	27	C9H15N2+
163.1231	91	C10H15N2+
209.1285	148	C11H17N2O2+
