Mass spectrum: Isophorone; LC-ESI-ITFT; MS2; CE: 90%; R=15000; [M+H]+
Name: Isophorone
Name: 3,5,5-trimethylcyclohex-2-en-1-one
Formula: C9H14O
Exact mass: 138.1045
SMILES: CC1=CC(=O)CC(C)(C)C1
InChI: InChI=1S/C9H14O/c1-7-4-8(10)6-9(2,3)5-7/h4H,5-6H2,1-3H3
Instrument: LTQ Orbitrap XL Thermo Scientific
Instrument type: LC-ESI-ITFT
Ms type: MS2
Ion mode: POSITIVE
Ionization: ESI
Fragmentation mode: HCD
Collision energy: 90% (nominal)
Resolution: 15000
Column name: Kinetex Evo C18 2.6 um 50 x 2.1 mm
Retention time: 8.704 min
Base peak: 116.9858
Precursor m/z: 139.1117
Precursor type: [M+H]+
m/z	relative intensity	assigned
67.0541	33	C5H7+
69.0335	999	C4H5O+
77.0386	80	C6H5+
79.0542	116	C6H7+
81.0698	19	C6H9+
83.0491	120	C5H7O+
91.0542	69	C7H7+
93.0699	168	C7H9+
95.0492	23	C6H7O+
95.0855	34	C7H11+
96.0571	18	C6H8O+
97.0648	287	C6H9O+
105.0699	144	C8H9+
110.0725	20	C7H10O+
121.101	105	C9H13+
139.1117	156	C9H15O+
