Mass spectrum: Tomatidine; LC-ESI-ITFT; MS2; CE: 60%; R=15000; [M+H]+
Name: Tomatidine
Formula: C27H45NO2
Exact mass: 415.3450
SMILES: C[C@H]1[C@H]2[C@H](C[C@H]3[C@@H]4CC[C@H]5C[C@@H](O)CC[C@]5(C)[C@H]4CC[C@]23C)O[C@@]11CC[C@H](C)CN1
InChI: InChI=1S/C27H45NO2/c1-16-7-12-27(28-15-16)17(2)24-23(30-27)14-22-20-6-5-18-13-19(29)8-10-25(18,3)21(20)9-11-26(22,24)4/h16-24,28-29H,5-15H2,1-4H3/t16-,17-,18-,19-,20+,21-,22-,23-,24-,25-,26-,27-/m0/s1
Instrument: LTQ Orbitrap XL Thermo Scientific
Instrument type: LC-ESI-ITFT
Ms type: MS2
Ion mode: POSITIVE
Ionization: ESI
Fragmentation mode: HCD
Collision energy: 60 % (nominal)
Resolution: 15000
Column name: Kinetex Evo C18 2.6 um 50 x 2.1 mm
Retention time: 9.999 min
Base peak: 217.0492
Precursor m/z: 416.3523
Precursor type: [M+H]+
m/z	relative intensity	assigned
67.0542	29	C5H7+
69.0699	6	C5H9+
70.0651	44	C4H8N+
79.0542	81	C6H7+
81.0699	72	C6H9+
83.0857	6	C6H11+
91.0542	54	C7H7+
93.0699	89	C7H9+
95.0855	101	C7H11+
96.0809	9	C6H10N+
98.0964	12	C6H12N+
105.0698	135	C8H9+
107.0855	143	C8H11+
109.1011	53	C8H13+
114.0912	10	C6H12NO+
117.0698	17	C9H9+
119.0855	83	C9H11+
121.1011	54	C9H13+
123.0799	6	C8H11O+
123.1167	14	C9H15+
124.112	107	C8H14N+
126.1277	164	C8H16N+
131.0855	39	C10H11+
133.1011	85	C10H13+
135.1168	63	C10H15+
143.0857	7	C11H11+
145.1011	90	C11H13+
147.1168	255	C11H15+
149.1325	50	C11H17+
150.1278	17	C10H16N+
151.1114	7	C10H15O+
157.1015	11	C12H13+
159.1168	130	C12H15+
161.1324	999	C12H17+
163.1118	15	C11H15O+
163.1479	4	C12H19+
164.1434	26	C11H18N+
171.1173	7	C13H15+
173.1325	68	C13H17+
175.1483	6	C13H19+
185.1325	16	C14H17+
187.1482	17	C14H19+
199.148	31	C15H19+
213.164	16	C16H21+
215.18	5	C16H23+
226.1725	3	C17H22+
227.1796	6	C17H23+
255.2108	81	C19H27+
273.2215	10	C19H29O+
398.342	10	C27H44NO+
