Mass spectrum: Seneciphylline; LC-ESI-ITFT; MS2; CE: 75%; R=15000; [M+H]+
Name: Seneciphylline
Name: (1R,4Z,7R,17R)-4-ethylidene-7-hydroxy-7-methyl-6-methylidene-2,9-dioxa-14-azatricyclo[9.5.1.014,17]heptadec-11-ene-3,8-dione
Formula: C18H23NO5
Exact mass: 333.1576
SMILES: C/C=C\1/CC(=C)[C@@](C(=O)OCC2=CCN3[C@H]2[C@@H](CC3)OC1=O)(C)O
InChI: InChI=1S/C18H23NO5/c1-4-12-9-11(2)18(3,22)17(21)23-10-13-5-7-19-8-6-14(15(13)19)24-16(12)20/h4-5,14-15,22H,2,6-10H2,1,3H3/b12-4-/t14-,15-,18-/m1/s1
Instrument: LTQ Orbitrap XL Thermo Scientific
Instrument type: LC-ESI-ITFT
Ms type: MS2
Ion mode: POSITIVE
Ionization: ESI
Fragmentation mode: HCD
Collision energy: 75% (nominal)
Resolution: 15000
Column name: Kinetex Evo C18 2.6 um 50 x 2.1 mm
Retention time: 2.029 min
Base peak: 143.0015
Precursor m/z: 334.1649
Precursor type: [M+H]+
m/z	relative intensity	assigned
67.0417	20	C4H5N+
67.0542	251	C5H7+
68.0494	98	C4H6N+
77.0386	103	C6H5+
79.0542	170	C6H7+
80.0495	262	C5H6N+
81.0574	89	C5H7N+
81.0699	186	C6H9+
82.0651	196	C5H8N+
84.0447	15	C4H6NO+
86.0601	24	C4H8NO+
91.0542	313	C7H7+
92.0495	57	C6H6N+
93.0573	38	C6H7N+
93.0699	249	C7H9+
94.0651	999	C6H8N+
95.0489	23	C6H7O+
95.0731	44	C6H9N+
95.0855	128	C7H11+
96.0808	383	C6H10N+
103.0542	148	C8H7+
105.0575	31	C7H7N+
105.0699	207	C8H9+
106.065	74	C7H8N+
107.073	94	C7H9N+
107.0855	39	C8H11+
108.0808	298	C7H10N+
109.0648	281	C7H9O+
109.0884	21	C7H11N+
110.06	57	C6H8NO+
110.0964	111	C7H12N+
112.0753	21	C6H10NO+
118.0651	147	C8H8N+
119.0729	26	C8H9N+
120.0808	743	C8H10N+
121.0887	47	C8H11N+
122.0964	134	C8H12N+
123.0804	129	C8H11O+
133.0647	38	C9H9O+
136.0758	18	C8H10NO+
138.0913	546	C8H12NO+
140.1067	20	C8H14NO+
146.0964	19	C10H12N+
148.1114	14	C10H14N+
151.0754	36	C9H11O2+
156.1019	54	C8H14NO2+
246.1496	24	C15H20NO2+
306.1703	54	C17H24NO4+
