Mass spectrum: Jacobine N-oxide; LC-ESI-ITFT; MS2; CE: 40%; R=15000; [M+H]+
Name: Jacobine N-oxide
Name: (1R,3`S,4S,6R,7R,17R)-7-hydroxy-3`,6,7-trimethyl-14-oxidospiro[2,9-dioxa-14-azoniatricyclo[9.5.1.014,17]heptadec-11-ene-4,2`-oxirane]-3,8-dione
Formula: C18H25NO7
Exact mass: 367.1631
SMILES: C[C@@H]1C[C@]2([C@@H](O2)C)C(=O)O[C@@H]3CC[N+]4([C@@H]3C(=CC4)COC(=O)[C@]1(C)O)[O-]
InChI: InChI=1S/C18H25NO7/c1-10-8-18(11(2)26-18)16(21)25-13-5-7-19(23)6-4-12(14(13)19)9-24-15(20)17(10,3)22/h4,10-11,13-14,22H,5-9H2,1-3H3/t10-,11+,13-,14-,17-,18+,19?/m1/s1
Instrument: LTQ Orbitrap XL Thermo Scientific
Instrument type: LC-ESI-ITFT
Ms type: MS2
Ion mode: POSITIVE
Ionization: ESI
Fragmentation mode: HCD
Collision energy: 40% (nominal)
Resolution: 15000
Column name: Kinetex Evo C18 2.6 um 50 x 2.1 mm
Retention time: 1.290 min
Base peak: 143.0015
Precursor m/z: 368.1704
Precursor type: [M+H]+
m/z	relative intensity	assigned
79.0543	4	C6H7+
80.0495	8	C5H6N+
91.0542	10	C7H7+
93.0574	9	C6H7N+
93.0699	15	C7H9+
94.0652	13	C6H8N+
95.073	53	C6H9N+
96.0809	5	C6H10N+
106.065	13	C7H8N+
108.0807	9	C7H10N+
110.0601	6	C6H8NO+
113.0596	8	C6H9O2+
118.0651	60	C8H8N+
119.073	69	C8H9N+
120.0808	186	C8H10N+
121.0886	63	C8H11N+
122.0964	36	C8H12N+
124.0759	5	C7H10NO+
136.0757	24	C8H10NO+
138.0915	36	C8H12NO+
139.0991	94	C8H13NO+
140.107	5	C8H14NO+
154.0863	19	C8H12NO2+
156.1018	18	C8H14NO2+
174.1284	6	C12H16N+
178.086	5	C10H12NO2+
190.1223	15	C12H16NO+
192.1016	8	C11H14NO2+
218.1541	6	C14H20NO+
236.128	7	C13H18NO3+
262.1443	6	C15H20NO3+
268.1546	5	C14H22NO4+
278.1384	9	C15H20NO4+
280.1543	9	C15H22NO4+
296.1493	585	C15H22NO5+
324.1442	42	C16H22NO6+
340.1743	7	C17H26NO6+
368.1704	999	C18H26NO7+
