Mass spectrum: alpha-Santonin; LC-ESI-ITFT; MS2; CE: 50%; R=15000; [M+H]+
Name: alpha-Santonin
Name: Santonin
Name: (3S,3aS,5aS,9bS)-3,5a,9-trimethyl-3a,4,5,9b-tetrahydro-3H-benzo[g][1]benzofuran-2,8-dione
Formula: C15H18O3
Exact mass: 246.1256
SMILES: C[C@H]1[C@@H]2CC[C@]3(C=CC(=O)C(=C3[C@H]2OC1=O)C)C
InChI: InChI=1S/C15H18O3/c1-8-10-4-6-15(3)7-5-11(16)9(2)12(15)13(10)18-14(8)17/h5,7-8,10,13H,4,6H2,1-3H3/t8-,10-,13-,15-/m0/s1
Instrument: LTQ Orbitrap XL Thermo Scientific
Instrument type: LC-ESI-ITFT
Ms type: MS2
Ion mode: POSITIVE
Ionization: ESI
Fragmentation mode: HCD
Collision energy: 50% (nominal)
Resolution: 15000
Column name: Kinetex Evo C18 2.6 um 50 x 2.1 mm
Retention time: 8.985 min
Base peak: 247.1327
Precursor m/z: 247.1329
Precursor type: [M+H]+
m/z	relative intensity	assigned
135.0804	91	C9H11O+
145.1012	115	C11H13+
149.0961	18	C10H13O+
155.0855	33	C12H11+
158.0727	48	C11H10O+
159.0805	11	C11H11O+
161.0959	14	C11H13O+
172.0883	6	C12H12O+
173.0962	999	C12H13O+
174.104	36	C12H14O+
186.1041	12	C13H14O+
187.1116	6	C13H15O+
201.1274	77	C14H17O+
229.1221	5	C15H17O2+
247.1329	4	C15H19O3+
