Mass spectrum: Vincamin; LC-ESI-ITFT; MS2; CE: 100%; R=15000; [M+H]+
Name: Vincamin
Name: Vincamine
Name: methyl (15S,17S,19S)-15-ethyl-17-hydroxy-1,11-diazapentacyclo[9.6.2.02,7.08,18.015,19]nonadeca-2,4,6,8(18)-tetraene-17-carboxylate
Formula: C21H26N2O3
Exact mass: 354.1943
SMILES: CC[C@@]12CCCN3[C@@H]1C4=C(CC3)C5=CC=CC=C5N4[C@](C2)(C(=O)OC)O
InChI: InChI=1S/C21H26N2O3/c1-3-20-10-6-11-22-12-9-15-14-7-4-5-8-16(14)23(17(15)18(20)22)21(25,13-20)19(24)26-2/h4-5,7-8,18,25H,3,6,9-13H2,1-2H3/t18-,20+,21+/m1/s1
Instrument: LTQ Orbitrap XL Thermo Scientific
Instrument type: LC-ESI-ITFT
Ms type: MS2
Ion mode: POSITIVE
Ionization: ESI
Fragmentation mode: HCD
Collision energy: 100% (nominal)
Resolution: 15000
Column name: Kinetex Evo C18 2.6 um 50 x 2.1 mm
Retention time: 6.603 min
Base peak: 355.2016
Precursor m/z: 355.2016
Precursor type: [M+H]+
m/z	relative intensity	assigned
55.0544	12	C4H7+
67.0542	170	C5H7+
68.0494	25	C4H6N+
69.0699	11	C5H9+
70.0651	85	C4H8N+
77.0386	45	C6H5+
79.0542	144	C6H7+
80.0496	33	C5H6N+
81.0335	21	C5H5O+
81.0699	79	C6H9+
82.0652	24	C5H8N+
83.0491	90	C5H7O+
84.0811	19	C5H10N+
91.0542	212	C7H7+
93.0572	15	C6H7N+
93.0699	105	C7H9+
94.0651	65	C6H8N+
95.0491	24	C6H7O+
95.073	35	C6H9N+
95.0855	305	C7H11+
96.0808	56	C6H10N+
98.0963	22	C6H12N+
103.0543	64	C8H7+
105.0447	35	C6H5N2+
105.0698	142	C8H9+
106.0653	31	C7H8N+
107.0856	53	C8H11+
108.0806	53	C7H10N+
109.0651	10	C7H9O+
109.0885	29	C7H11N+
110.0964	170	C7H12N+
111.104	13	C7H13N+
112.1119	21	C7H14N+
115.0542	113	C9H7+
117.0572	54	C8H7N+
117.0698	207	C9H9+
118.0651	48	C8H8N+
119.0604	10	C7H7N2+
119.073	34	C8H9N+
120.0808	25	C8H10N+
122.0599	21	C7H8NO+
122.0965	38	C8H12N+
123.0804	49	C8H11O+
123.1039	15	C8H13N+
124.0756	39	C7H10NO+
124.1121	117	C8H14N+
128.0495	41	C9H6N+
128.0619	38	C10H8+
129.0699	70	C10H9+
130.0651	152	C9H8N+
131.0728	43	C9H9N+
132.0807	37	C9H10N+
133.0651	10	C9H9O+
134.0964	82	C9H12N+
135.0808	10	C9H11O+
136.0758	24	C8H10NO+
141.0696	17	C11H9+
142.0655	23	C10H8N+
143.073	258	C10H9N+
144.0808	999	C10H10N+
146.0595	13	C9H8NO+
146.0961	11	C10H12N+
152.0622	15	C12H8+
152.1071	59	C9H14NO+
153.0699	10	C12H9+
154.0652	57	C11H8N+
155.0604	92	C10H7N2+
155.073	33	C11H9N+
156.0808	89	C11H10N+
157.0885	41	C11H11N+
158.0963	41	C11H12N+
165.07	48	C13H9+
166.0653	25	C12H8N+
166.0774	21	C13H10+
167.073	126	C12H9N+
168.0808	127	C12H10N+
169.0763	13	C11H9N2+
169.0888	23	C12H11N+
170.0598	22	C11H8NO+
170.0964	35	C12H12N+
178.0651	13	C13H8N+
178.0777	55	C14H10+
179.0732	31	C13H9N+
179.0855	47	C14H11+
180.0808	234	C13H10N+
181.0762	12	C12H9N2+
181.0888	96	C13H11N+
181.1008	14	C14H13+
182.0963	74	C13H12N+
183.0925	16	C12H11N2+
184.1122	11	C13H14N+
190.0651	35	C14H8N+
191.0729	135	C14H9N+
191.0851	21	C15H11+
192.0808	141	C14H10N+
192.0929	12	C15H12+
193.0886	260	C14H11N+
194.0965	189	C14H12N+
195.0916	16	C13H11N2+
195.1045	47	C14H13N+
196.0753	11	C13H10NO+
196.1122	36	C14H14N+
202.0772	13	C16H10+
203.0728	14	C15H9N+
204.0807	418	C15H10N+
205.0887	273	C15H11N+
206.0965	351	C15H12N+
207.1043	134	C15H13N+
208.0754	22	C14H10NO+
208.112	178	C15H14N+
209.1078	33	C14H13N2+
209.1204	24	C15H15N+
210.092	8	C14H12NO+
210.1282	21	C15H16N+
211.1234	8	C14H15N2+
216.0802	20	C16H10N+
217.0885	158	C16H11N+
218.0964	315	C16H12N+
219.0926	39	C15H11N2+
219.1046	158	C16H13N+
220.1121	258	C16H14N+
221.1207	40	C16H15N+
222.0914	22	C15H12NO+
222.1277	102	C16H16N+
223.1228	43	C15H15N2+
224.1436	15	C16H18N+
230.0961	37	C17H12N+
231.1044	23	C17H13N+
232.112	86	C17H14N+
233.1081	24	C16H13N2+
233.12	24	C17H15N+
234.0915	14	C16H12NO+
234.1277	104	C17H16N+
236.0708	17	C15H10NO2+
236.1076	15	C16H14NO+
237.0792	20	C15H11NO2+
237.1385	24	C16H17N2+
238.0861	264	C15H12NO2+
239.0952	48	C15H13NO2+
247.1229	57	C17H15N2+
248.1438	20	C18H18N+
249.0786	26	C16H11NO2+
249.1382	15	C17H17N2+
250.0863	176	C16H12NO2+
251.0939	386	C16H13NO2+
252.102	254	C16H14NO2+
253.1109	47	C16H15NO2+
262.0867	28	C17H12NO2+
263.0939	47	C17H13NO2+
264.1018	817	C17H14NO2+
265.1103	151	C17H15NO2+
266.1175	343	C17H16NO2+
275.0943	12	C18H13NO2+
276.1016	55	C18H14NO2+
277.1103	16	C18H15NO2+
278.1174	305	C18H16NO2+
279.1254	34	C18H17NO2+
280.1329	77	C18H18NO2+
290.1178	41	C19H16NO2+
292.1323	73	C19H18NO2+
307.1446	17	C19H19N2O2+
