Mass spectrum: Cortisone; LC-ESI-ITFT; MS2; CE: 40%; R=15000; [M+H]+
Name: Cortisone
Name: (8S,9S,10R,13S,14S,17R)-17-hydroxy-17-(2-hydroxyacetyl)-10,13-dimethyl-1,2,6,7,8,9,12,14,15,16-decahydrocyclopenta[a]phenanthrene-3,11-dione
Formula: C21H28O5
Exact mass: 360.1937
SMILES: C[C@]12CC(=O)[C@H]3[C@@H](CCC4=CC(=O)CC[C@]34C)[C@@H]1CC[C@]2(O)C(=O)CO
InChI: InChI=1S/C21H28O5/c1-19-7-5-13(23)9-12(19)3-4-14-15-6-8-21(26,17(25)11-22)20(15,2)10-16(24)18(14)19/h9,14-15,18,22,26H,3-8,10-11H2,1-2H3/t14-,15-,18+,19-,20-,21-/m0/s1
Instrument: LTQ Orbitrap XL Thermo Scientific
Instrument type: LC-ESI-ITFT
Ms type: MS2
Ion mode: POSITIVE
Ionization: ESI
Fragmentation mode: HCD
Collision energy: 40 % (nominal)
Resolution: 15000
Column name: Kinetex Evo C18 2.6 um 50 x 2.1 mm
Retention time: 9.636 min
Base peak: 361.2014
Precursor m/z: 361.201
Precursor type: [M+H]+
m/z	relative intensity	assigned
67.0539	4	C5H7+
69.0698	3	C5H9+
79.0542	9	C6H7+
81.0698	25	C6H9+
83.049	9	C5H7O+
91.0543	4	C7H7+
93.0698	46	C7H9+
95.0488	3	C6H7O+
95.0855	17	C7H11+
97.0648	38	C6H9O+
105.0698	69	C8H9+
107.049	3	C7H7O+
107.0854	43	C8H11+
109.0648	10	C7H9O+
109.101	3	C8H13+
111.0804	4	C7H11O+
117.0694	3	C9H9+
119.0854	35	C9H11+
121.0647	177	C8H9O+
121.101	26	C9H13+
123.0802	32	C8H11O+
131.0853	16	C10H11+
133.0644	11	C9H9O+
133.1011	22	C10H13+
135.0802	70	C9H11O+
135.1167	50	C10H15+
137.0959	14	C9H13O+
139.0751	45	C8H11O2+
143.0853	22	C11H11+
145.0646	8	C10H9O+
145.1009	105	C11H13+
147.0802	61	C10H11O+
147.1165	10	C11H15+
149.0959	26	C10H13O+
151.0754	8	C9H11O2+
151.1114	4	C10H15O+
153.0911	11	C9H13O2+
155.0851	8	C12H11+
157.101	17	C12H13+
159.0801	24	C11H11O+
159.1167	14	C12H15+
161.0593	3	C10H9O2+
161.0959	54	C11H13O+
163.1115	999	C11H15O+
165.091	12	C10H13O2+
169.1007	10	C13H13+
171.0803	15	C12H11O+
171.1167	31	C13H15+
173.0958	31	C12H13O+
173.1322	5	C13H17+
175.1114	20	C12H15O+
177.0909	14	C11H13O2+
179.1064	10	C11H15O2+
181.0862	5	C10H13O3+
181.1011	8	C14H13+
183.1164	20	C14H15+
185.0959	18	C13H13O+
185.1323	12	C14H17+
187.0749	3	C12H11O2+
187.1117	22	C13H15O+
189.0907	22	C12H13O2+
189.1271	21	C13H17O+
191.1062	15	C12H15O2+
195.1165	14	C15H15+
197.0968	5	C14H13O+
197.132	17	C15H17+
199.1115	20	C14H15O+
199.1477	5	C15H19+
201.0914	5	C13H13O2+
201.1271	13	C14H17O+
203.1062	9	C13H15O2+
203.1427	8	C14H19O+
205.1222	5	C13H17O2+
207.1014	7	C12H15O3+
207.1164	10	C16H15+
209.0955	2	C15H13O+
209.1323	15	C16H17+
211.1115	10	C15H15O+
211.1477	6	C16H19+
213.1271	15	C15H17O+
215.1061	6	C14H15O2+
215.1433	6	C15H19O+
217.1219	10	C14H17O2+
219.116	4	C17H15+
221.1323	14	C17H17+
223.1117	10	C16H15O+
223.148	14	C17H19+
225.1271	26	C16H17O+
225.1637	13	C17H21+
227.1427	16	C16H19O+
229.1216	6	C15H17O2+
235.1482	10	C18H19+
237.1271	10	C17H17O+
237.1634	16	C18H21+
239.1425	44	C17H19O+
239.1792	9	C18H23+
241.1217	20	C16H17O2+
241.1584	33	C17H21O+
242.1672	6	C17H22O+
243.1375	13	C16H19O2+
243.1739	18	C17H23O+
247.1474	10	C19H19+
249.127	9	C18H17O+
249.1634	9	C19H21+
251.142	8	C18H19O+
251.1791	3	C19H23+
253.1582	12	C18H21O+
255.1374	12	C17H19O2+
255.1738	27	C18H23O+
256.1815	5	C18H24O+
257.1531	22	C17H21O2+
257.1898	16	C18H25O+
258.1611	19	C17H22O2+
261.1472	5	C16H21O3+
261.1633	4	C20H21+
263.1433	6	C19H19O+
265.1582	56	C19H21O+
266.1672	7	C19H22O+
267.1381	9	C18H19O2+
267.1739	76	C19H23O+
269.153	7	C18H21O2+
269.1887	5	C19H25O+
271.1689	5	C18H23O2+
277.158	7	C20H21O+
279.1739	25	C20H23O+
281.1524	5	C19H21O2+
283.1688	72	C19H23O2+
284.1767	29	C19H24O2+
285.1484	11	C18H21O3+
285.1844	41	C19H25O2+
289.1585	9	C21H21O+
295.1688	21	C20H23O2+
297.1848	22	C20H25O2+
299.1637	62	C19H23O3+
300.1723	10	C19H24O3+
301.1795	68	C19H25O3+
307.1687	30	C21H23O2+
313.1796	25	C20H25O3+
315.1948	8	C20H27O3+
317.1738	7	C19H25O4+
325.1793	36	C21H25O3+
343.1896	51	C21H27O4+
361.2004	212	C21H29O5+
