Mass spectrum: Tetrahydropalmatin; LC-ESI-ITFT; MS2; CE: 105%; R=15000; [M+H]+
Name: Tetrahydropalmatin
Name: D-Tetrahydropalmatine
Name: (13aR)-2,3,9,10-tetramethoxy-6,8,13,13a-tetrahydro-5H-isoquinolino[2,1-b]isoquinoline
Formula: C21H25NO4
Exact mass: 355.1784
SMILES: COC1=C(C2=C(C[C@@H]3C4=CC(=C(C=C4CCN3C2)OC)OC)C=C1)OC
InChI: InChI=1S/C21H25NO4/c1-23-18-6-5-13-9-17-15-11-20(25-3)19(24-2)10-14(15)7-8-22(17)12-16(13)21(18)26-4/h5-6,10-11,17H,7-9,12H2,1-4H3/t17-/m1/s1
Instrument: LTQ Orbitrap XL Thermo Scientific
Instrument type: LC-ESI-ITFT
Ms type: MS2
Ion mode: POSITIVE
Ionization: ESI
Fragmentation mode: HCD
Collision energy: 105% (nominal)
Resolution: 15000
Column name: Kinetex Evo C18 2.6 um 50 x 2.1 mm
Retention time: 7.471 min
Base peak: 356.1854
Precursor m/z: 356.1856
Precursor type: [M+H]+
m/z	relative intensity	assigned
77.0386	14	C6H5+
78.0464	5	C6H6+
79.0542	34	C6H7+
90.0464	9	C7H6+
91.0541	44	C7H7+
92.062	5	C7H8+
93.0698	10	C7H9+
102.0463	14	C8H6+
103.0541	45	C8H7+
104.062	19	C8H8+
105.0333	5	C7H5O+
105.0698	38	C8H9+
107.049	70	C7H7O+
108.0568	4	C7H8O+
115.0542	9	C9H7+
117.0574	5	C8H7N+
118.0412	13	C8H6O+
118.0651	62	C8H8N+
119.0492	29	C8H7O+
119.0729	33	C8H9N+
120.057	19	C8H8O+
120.0809	6	C8H10N+
121.0647	76	C8H9O+
122.0725	4	C8H10O+
124.0517	3	C7H8O2+
130.065	84	C9H8N+
131.0729	617	C9H9N+
132.0568	6	C9H8O+
133.0522	29	C8H7NO+
133.0647	17	C9H9O+
134.0599	16	C8H8NO+
134.0725	34	C9H10O+
135.044	54	C8H7O2+
135.0802	5	C9H11O+
145.0525	4	C9H7NO+
146.06	46	C9H8NO+
147.0678	163	C9H9NO+
148.0756	684	C9H10NO+
149.0597	21	C9H9O2+
150.0674	67	C9H10O2+
151.0751	9	C9H11O2+
158.0595	4	C10H8NO+
159.0678	72	C10H9NO+
160.0756	83	C10H10NO+
161.0834	11	C10H11NO+
162.0548	8	C9H8NO2+
162.0919	3	C10H12NO+
163.0627	5	C9H9NO2+
165.091	26	C10H13O2+
174.0549	71	C10H8NO2+
175.063	6	C10H9NO2+
176.0705	999	C10H10NO2+
177.0782	207	C10H11NO2+
190.0859	20	C11H12NO2+
191.085	5	C15H11+
192.1017	181	C11H14NO2+
195.08	4	C14H11O+
202.0769	4	C16H10+
205.0649	3	C15H9O+
207.0801	8	C15H11O+
218.0718	6	C16H10O+
219.08	6	C16H11O+
221.0957	4	C16H13O+
223.075	3	C15H11O2+
235.0753	5	C16H11O2+
235.0999	5	C16H13NO+
236.1064	5	C16H14NO+
237.0916	3	C16H13O2+
238.0983	3	C16H14O2+
252.1019	5	C16H14NO2+
263.0938	4	C17H13NO2+
264.1011	7	C17H14NO2+
278.1181	5	C18H16NO2+
280.0959	4	C17H14NO3+
