Mass spectrum: Colchicine; LC-ESI-ITFT; MS2; CE: 65%; R=15000; [M+H]+
Name: Colchicine
Name: N-[(7S)-1,2,3,10-tetramethoxy-9-oxo-6,7-dihydro-5H-benzo[a]heptalen-7-yl]acetamide
Formula: C22H25NO6
Exact mass: 399.1682
SMILES: CC(=O)N[C@H]1CCC2=CC(=C(C(=C2C3=CC=C(C(=O)C=C13)OC)OC)OC)OC
InChI: InChI=1S/C22H25NO6/c1-12(24)23-16-8-6-13-10-19(27-3)21(28-4)22(29-5)20(13)14-7-9-18(26-2)17(25)11-15(14)16/h7,9-11,16H,6,8H2,1-5H3,(H,23,24)/t16-/m0/s1
Instrument: LTQ Orbitrap XL Thermo Scientific
Instrument type: LC-ESI-ITFT
Ms type: MS2
Ion mode: POSITIVE
Ionization: ESI
Fragmentation mode: HCD
Collision energy: 65% (nominal)
Resolution: 15000
Column name: Kinetex Evo C18 2.6 um 50 x 2.1 mm
Retention time: 9.278 min
Base peak: 116.9858
Precursor m/z: 400.1755
Precursor type: [M+H]+
m/z	relative intensity	assigned
133.0521	47	C8H7NO+
137.0598	139	C8H9O2+
150.0551	59	C8H8NO2+
152.0708	58	C8H10NO2+
160.0755	29	C10H10NO+
165.0788	63	C9H11NO2+
176.0711	76	C10H10NO2+
179.0702	64	C10H11O3+
179.0856	33	C14H11+
181.0859	170	C10H13O3+
188.0701	35	C11H10NO2+
188.0834	48	C12H12O2+
191.0701	35	C11H11O3+
195.0805	128	C14H11O+
196.0885	42	C14H12O+
197.0592	30	C13H9O2+
199.075	27	C13H11O2+
203.094	66	C12H13NO2+
205.0647	50	C15H9O+
206.072	44	C15H10O+
207.0803	128	C15H11O+
207.1014	85	C12H15O3+
208.0888	56	C15H12O+
209.0598	32	C14H9O2+
209.0961	62	C15H13O+
210.0677	42	C14H10O2+
211.0753	107	C14H11O2+
211.1121	30	C15H15O+
212.0835	66	C14H12O2+
213.0918	39	C14H13O2+
219.0808	55	C16H11O+
221.0962	56	C16H13O+
222.0681	39	C15H10O2+
222.0912	32	C15H12NO+
223.0754	199	C15H11O2+
224.0833	219	C15H12O2+
225.0905	102	C15H13O2+
226.062	25	C14H10O3+
226.099	46	C15H14O2+
227.0701	244	C14H11O3+
227.1065	44	C15H15O2+
234.068	54	C16H10O2+
234.1132	50	C13H16NO3+
235.0753	270	C16H11O2+
236.0715	36	C15H10NO2+
236.0831	120	C16H12O2+
236.1079	46	C16H14NO+
237.0544	37	C15H9O3+
237.0909	210	C16H13O2+
238.0983	105	C16H14O2+
239.0707	68	C15H11O3+
239.1066	371	C16H15O2+
240.0778	182	C15H12O3+
240.1014	51	C15H14NO2+
240.1153	43	C16H16O2+
241.0859	215	C15H13O3+
242.0938	107	C15H14O3+
243.0656	50	C14H11O4+
247.0755	55	C17H11O2+
248.0824	43	C17H12O2+
249.0775	29	C16H11NO2+
249.091	126	C17H13O2+
250.0618	30	C16H10O3+
250.0871	89	C16H12NO2+
250.0984	103	C17H14O2+
251.07	303	C16H11O3+
251.093	49	C16H13NO2+
251.1066	176	C17H15O2+
252.0782	258	C16H12O3+
252.102	106	C16H14NO2+
252.1134	59	C17H16O2+
253.0856	135	C16H13O3+
254.0815	48	C15H12NO3+
254.0936	41	C16H14O3+
255.0652	167	C15H11O4+
255.1012	225	C16H15O3+
256.0736	42	C15H12O4+
256.0974	34	C15H14NO3+
256.1091	49	C16H16O3+
263.0699	186	C17H11O3+
264.0778	66	C17H12O3+
264.1022	105	C17H14NO2+
265.0859	261	C17H13O3+
265.1105	61	C17H15NO2+
266.0932	172	C17H14O3+
267.1015	999	C17H15O3+
268.0729	128	C16H12O4+
268.097	248	C16H14NO3+
269.0811	139	C16H13O4+
270.0882	160	C16H14O4+
270.1122	34	C16H16NO3+
272.1291	37	C16H18NO3+
277.0855	58	C18H13O3+
279.0649	164	C17H11O4+
279.1003	119	C18H15O3+
280.0725	84	C17H12O4+
280.0974	157	C17H14NO3+
281.1164	94	C18H17O3+
282.0891	34	C17H14O4+
283.0967	460	C17H15O4+
284.1276	39	C17H18NO3+
285.0763	43	C16H13O5+
285.1126	128	C17H17O4+
286.1074	85	C16H16NO4+
287.0908	130	C16H15O5+
292.0974	83	C18H14NO3+
293.0803	90	C18H13O4+
293.1045	76	C18H15NO3+
294.1123	139	C18H16NO3+
295.0964	617	C18H15O4+
295.1212	62	C18H17NO3+
296.0687	35	C17H12O5+
296.0919	170	C17H14NO4+
296.1277	81	C18H18NO3+
297.1119	92	C18H17O4+
298.119	66	C18H18O4+
298.1436	63	C18H20NO3+
300.1231	331	C17H18NO4+
301.1308	50	C17H19NO4+
306.1127	35	C19H16NO3+
308.1284	60	C19H18NO3+
311.0914	466	C18H15O5+
311.1158	53	C18H17NO4+
312.1222	69	C18H18NO4+
314.1027	80	C17H16NO5+
314.1387	60	C18H20NO4+
324.1232	171	C19H18NO4+
325.108	63	C19H17O5+
326.116	33	C19H18O5+
326.1386	31	C19H20NO4+
328.117	158	C18H18NO5+
342.1336	107	C19H20NO5+
