Mass spectrum: Bergapten/Heraclin; LC-ESI-ITFT; MS2; CE: 110%; R=15000; [M+H]+
Name: Bergapten/Heraclin
Formula: C12H8O4
Exact mass: 216.0423
SMILES: COC1=C2C=COC2=CC2=C1C=CC(=O)O2
InChI: InChI=1S/C12H8O4/c1-14-12-7-2-3-11(13)16-10(7)6-9-8(12)4-5-15-9/h2-6H,1H3
Instrument: LTQ Orbitrap XL Thermo Scientific
Instrument type: LC-ESI-ITFT
Ms type: MS2
Ion mode: POSITIVE
Ionization: ESI
Fragmentation mode: HCD
Collision energy: 110 % (nominal)
Resolution: 15000
Column name: Kinetex Evo C18 2.6 um 50 x 2.1 mm
Retention time: 9.922 min
Base peak: 416.3517
Precursor m/z: 217.0495
Precursor type: [M+H]+
m/z	relative intensity	assigned
63.0228	11	C5H3+
74.0151	33	C6H2+
76.0305	9	C6H4+
77.0023	7	C5HO+
77.0386	47	C6H5+
79.0542	14	C6H7+
82.0051	5	C4H2O2+
89.0386	541	C7H5+
90.0464	999	C7H6+
91.0544	15	C7H7+
92.0256	53	C6H4O+
100.0307	113	C8H4+
102.0464	80	C8H6+
103.0542	31	C8H7+
105.0332	7	C7H5O+
105.0698	11	C8H9+
115.0542	76	C9H7+
117.0335	26	C8H5O+
118.0413	829	C8H6O+
119.0129	8	C7H3O2+
120.0206	18	C7H4O2+
127.0176	16	C9H3O+
128.0256	37	C9H4O+
129.0335	42	C9H5O+
130.0417	8	C9H6O+
131.0491	73	C9H7O+
145.0285	202	C9H5O2+
146.0362	363	C9H6O2+
156.0207	91	C10H4O2+
173.0234	33	C10H5O3+
174.0312	459	C10H6O3+
202.026	108	C11H6O4+
