Mass spectrum: Huperzin A; LC-ESI-ITFT; MS2; CE: 80%; R=15000; [M+H]+
Name: Huperzin A
Name: (-)-Huperazine A
Name: (1R,9R,13E)-1-amino-13-ethylidene-11-methyl-6-azatricyclo[7.3.1.02,7]trideca-2(7),3,10-trien-5-one
Formula: C15H18N2O
Exact mass: 242.1419
SMILES: C/C=C/1\[C@@H]2CC3=C([C@]1(CC(=C2)C)N)C=CC(=O)N3
InChI: InChI=1S/C15H18N2O/c1-3-11-10-6-9(2)8-15(11,16)12-4-5-14(18)17-13(12)7-10/h3-6,10H,7-8,16H2,1-2H3,(H,17,18)/b11-3+/t10-,15+/m0/s1
Instrument: LTQ Orbitrap XL Thermo Scientific
Instrument type: LC-ESI-ITFT
Ms type: MS2
Ion mode: POSITIVE
Ionization: ESI
Fragmentation mode: HCD
Collision energy: 80% (nominal)
Resolution: 15000
Column name: Kinetex Evo C18 2.6 um 50 x 2.1 mm
Retention time: 1.529 min
Base peak: 143.0015
Precursor m/z: 243.1492
Precursor type: [M+H]+
m/z	relative intensity	assigned
110.0603	110	C6H8NO+
134.0966	279	C9H12N+
161.0707	77	C9H9N2O+
165.0698	75	C13H9+
166.0776	144	C13H10+
168.0807	104	C12H10N+
170.0965	52	C12H12N+
180.0808	53	C13H10N+
181.1012	165	C14H13+
183.1045	72	C13H13N+
184.0762	131	C12H10NO+
187.0862	119	C11H11N2O+
192.0811	83	C14H10N+
193.0886	258	C14H11N+
196.0758	471	C13H10NO+
197.0836	195	C13H11NO+
198.1273	54	C14H16N+
206.0963	110	C15H12N+
208.112	233	C15H14N+
209.0954	56	C15H13O+
210.0914	999	C14H12NO+
211.0989	184	C14H13NO+
213.1023	186	C13H13N2O+
224.107	108	C15H14NO+
226.1227	595	C15H16NO+
227.118	538	C14H15N2O+
243.1491	174	C15H19N2O+
