Mass spectrum: Daidzein; LC-ESI-ITFT; MS2; CE: 70%; R=15000; [M+H]+
Name: Daidzein
Name: 7-hydroxy-3-(4-hydroxyphenyl)chromen-4-one
Formula: C15H10O4
Exact mass: 254.0579
SMILES: c1cc(ccc1c2coc3cc(ccc3c2=O)O)O
InChI: InChI=1S/C15H10O4/c16-10-3-1-9(2-4-10)13-8-19-14-7-11(17)5-6-12(14)15(13)18/h1-8,16-17H
Instrument: LTQ Orbitrap XL Thermo Scientific
Instrument type: LC-ESI-ITFT
Ms type: MS2
Ion mode: POSITIVE
Ionization: ESI
Fragmentation mode: HCD
Collision energy: 70% (nominal)
Resolution: 15000
Column name: Kinetex Evo C18 2.6 um 50 x 2.1 mm
Retention time: 9.200 min
Base peak: 116.9858
Precursor m/z: 255.0652
Precursor type: [M+H]+
m/z	relative intensity	assigned
68.9973	21	C3HO2+
81.0335	18	C5H5O+
91.0542	336	C7H7+
105.0334	21	C7H5O+
119.0492	139	C8H7O+
121.0284	37	C7H5O2+
128.062	70	C10H8+
129.07	67	C10H9+
131.0486	18	C9H7O+
131.0854	20	C10H11+
133.0281	36	C8H5O2+
134.0365	26	C8H6O2+
137.0233	597	C7H5O3+
143.0856	58	C11H11+
145.0284	80	C9H5O2+
149.0233	41	C8H5O3+
152.0623	40	C12H8+
153.0699	215	C12H9+
157.0649	81	C11H9O+
169.0653	16	C12H9O+
171.0804	158	C12H11O+
181.0648	468	C13H9O+
182.0729	31	C13H10O+
184.0523	57	C12H8O2+
197.0602	50	C13H9O2+
198.0675	24	C13H10O2+
199.0753	999	C13H11O2+
209.0593	51	C14H9O2+
226.0614	18	C14H10O3+
227.0702	399	C14H11O3+
237.0547	193	C15H9O3+
255.0652	631	C15H11O4+
