Mass spectrum: Cevadine; LC-ESI-ITFT; MS2; CE: 55%; R=15000; [M+H]+
Name: Cevadine
Name: Veratrine
Name: [(1R,2S,6S,9S,10R,11S,12S,14R,15S,18S,19S,22S,23S,25R)-1,10,11,12,14,23-hexahydroxy-6,10,19-trimethyl-24-oxa-4-azaheptacyclo[12.12.0.02,11.04,9.015,25.018,23.019,25]hexacosan-22-yl] (Z)-2-methylbut-2-enoate
Formula: C32H49NO9
Exact mass: 591.3407
SMILES: C/C=C(/C)\C(=O)O[C@H]1CC[C@]2([C@H]3[C@@]1(O[C@@]24C[C@]5([C@@H]6CN7C[C@H](CC[C@H]7[C@@]([C@]6([C@H](C[C@]5([C@@H]4CC3)O)O)O)(C)O)C)O)O)C
InChI: InChI=1S/C32H49NO9/c1-6-18(3)25(35)41-24-11-12-26(4)19-8-9-20-28(37)13-23(34)31(39)21(29(28,38)16-30(20,26)42-32(19,24)40)15-33-14-17(2)7-10-22(33)27(31,5)36/h6,17,19-24,34,36-40H,7-16H2,1-5H3/b18-6-/t17-,19-,20-,21-,22-,23-,24-,26-,27+,28+,29+,30+,31-,32-/m0/s1
Instrument: LTQ Orbitrap XL Thermo Scientific
Instrument type: LC-ESI-ITFT
Ms type: MS2
Ion mode: POSITIVE
Ionization: ESI
Fragmentation mode: HCD
Collision energy: 55% (nominal)
Resolution: 15000
Column name: Kinetex Evo C18 2.6 um 50 x 2.1 mm
Retention time: 9.257 min
Base peak: 116.9857
Precursor m/z: 592.348
Precursor type: [M+H]+
m/z	relative intensity	assigned
55.054	171	C4H7+
83.049	430	C5H7O+
98.0963	179	C6H12N+
109.0647	34	C7H9O+
110.0962	111	C7H12N+
112.1119	36	C7H14N+
124.1121	28	C8H14N+
126.0912	37	C7H12NO+
126.1275	106	C8H16N+
128.1068	50	C7H14NO+
136.112	27	C9H14N+
137.1195	27	C9H15N+
138.091	27	C8H12NO+
138.1275	346	C9H16N+
140.1069	11	C8H14NO+
148.1118	24	C10H14N+
150.1277	41	C10H16N+
152.107	34	C9H14NO+
154.1224	203	C9H16NO+
161.1198	50	C11H15N+
162.1275	287	C11H16N+
163.1351	87	C11H17N+
164.1067	45	C10H14NO+
164.1431	149	C11H18N+
174.1275	66	C12H16N+
178.1225	43	C11H16NO+
182.1172	21	C10H16NO2+
188.1432	150	C13H18N+
189.1512	27	C13H19N+
190.1223	60	C12H16NO+
191.1303	32	C12H17NO+
192.138	63	C12H18NO+
193.1458	67	C12H19NO+
206.1177	9	C12H16NO2+
206.1539	35	C13H20NO+
208.1693	170	C13H22NO+
255.1384	8	C17H19O2+
281.1622	41	C15H23NO4+
294.1845	12	C20H24NO+
374.2467	8	C23H34O4+
392.2583	42	C26H34NO2+
402.2425	47	C27H32NO2+
408.2519	16	C23H36O6+
410.2693	27	C26H36NO3+
420.2528	235	C27H34NO3+
438.2632	472	C27H36NO4+
456.2737	999	C27H38NO5+
474.284	513	C24H42O9+
492.2943	140	C27H42NO7+
520.3047	33	C32H42NO5+
521.3095	13	C29H45O8+
538.3155	71	C29H46O9+
539.3201	24	C29H47O9+
556.3264	172	C32H46NO7+
574.337	171	C32H48NO8+
592.3482	117	C32H50NO9+
