Mass spectrum: Seneciphylline N-oxide; LC-ESI-ITFT; MS2; CE: 60%; R=15000; [M+H]+
Name: Seneciphylline N-oxide
Name: (1R,4E,7R,17R)-4-ethylidene-7-hydroxy-7-methyl-6-methylidene-14-oxido-2,9-dioxa-14-azoniatricyclo[9.5.1.014,17]heptadec-11-ene-3,8-dione
Formula: C18H23NO6
Exact mass: 349.1525
SMILES: C/C=C/1\CC(=C)[C@@](C(=O)OCC2=CC[N+]3([C@H]2[C@@H](CC3)OC1=O)[O-])(C)O
InChI: InChI=1S/C18H23NO6/c1-4-12-9-11(2)18(3,22)17(21)24-10-13-5-7-19(23)8-6-14(15(13)19)25-16(12)20/h4-5,14-15,22H,2,6-10H2,1,3H3/b12-4+/t14-,15-,18-,19?/m1/s1
Instrument: LTQ Orbitrap XL Thermo Scientific
Instrument type: LC-ESI-ITFT
Ms type: MS2
Ion mode: POSITIVE
Ionization: ESI
Fragmentation mode: HCD
Collision energy: 60% (nominal)
Resolution: 15000
Column name: Kinetex Evo C18 2.6 um 50 x 2.1 mm
Retention time: 2.981 min
Base peak: 350.1597
Precursor m/z: 350.1598
Precursor type: [M+H]+
m/z	relative intensity	assigned
67.0418	10	C4H5N+
67.0542	24	C5H7+
68.0496	22	C4H6N+
79.0543	69	C6H7+
80.0496	81	C5H6N+
81.0573	19	C5H7N+
81.0699	61	C6H9+
82.0653	40	C5H8N+
84.0445	28	C4H6NO+
91.0543	53	C7H7+
93.0574	350	C6H7N+
93.0699	23	C7H9+
94.0652	639	C6H8N+
95.073	385	C6H9N+
95.0857	34	C7H11+
96.0443	12	C5H6NO+
96.0808	21	C6H10N+
98.0601	50	C5H8NO+
105.07	74	C8H9+
106.0652	192	C7H8N+
107.0492	102	C7H7O+
107.073	23	C7H9N+
107.0856	31	C8H11+
108.0809	181	C7H10N+
109.0648	113	C7H9O+
109.0887	50	C7H11N+
110.0602	20	C6H8NO+
111.068	21	C6H9NO+
112.0758	88	C6H10NO+
117.0574	10	C8H7N+
118.0652	637	C8H8N+
119.0731	682	C8H9N+
120.0809	999	C8H10N+
121.0649	17	C8H9O+
121.0887	97	C8H11N+
122.0727	40	C8H10O+
122.0965	98	C8H12N+
123.0805	86	C8H11O+
124.0761	18	C7H10NO+
126.091	11	C7H12NO+
132.0809	23	C9H10N+
133.0649	25	C9H9O+
134.0967	17	C9H12N+
136.0758	739	C8H10NO+
137.0836	74	C8H11NO+
138.0915	446	C8H12NO+
140.1073	20	C8H14NO+
146.0965	10	C10H12N+
149.0596	13	C9H9O2+
151.0756	82	C9H11O2+
154.0864	163	C8H12NO2+
167.0705	14	C9H11O3+
178.123	26	C11H16NO+
188.1071	19	C12H14NO+
209.1177	46	C12H17O3+
246.1491	18	C15H20NO2+
322.1653	57	C17H24NO5+
350.1602	201	C18H24NO6+
