Mass spectrum: (-)-Strychnine; LC-ESI-ITFT; MS2; CE: 65%; R=15000; [M+H]+
Name: (-)-Strychnine
Name: Strychnine
Name: (4aR,5aS,8aR,13aS,15aS,15bR)-4a,5,5a,7,8,13a,15,15a,15b,16-decahydro-2H-4,6-methanoindolo[3,2,1-ij]oxepino[2,3,4-de]pyrrolo[2,3-h]quinolin-14-one
Formula: C21H22N2O2
Exact mass: 334.1681
SMILES: c1ccc2c(c1)[C@]34CCN5[C@H]3C[C@@H]6[C@@H]7[C@@H]4N2C(=O)C[C@@H]7OCC=C6C5
InChI: InChI=1S/C21H22N2O2/c24-18-10-16-19-13-9-17-21(6-7-22(17)11-12(13)5-8-25-16)14-3-1-2-4-15(14)23(18)20(19)21/h1-5,13,16-17,19-20H,6-11H2/t13-,16-,17-,19-,20-,21+/m0/s1
Instrument: LTQ Orbitrap XL Thermo Scientific
Instrument type: LC-ESI-ITFT
Ms type: MS2
Ion mode: POSITIVE
Ionization: ESI
Fragmentation mode: HCD
Collision energy: 65% (nominal)
Resolution: 15000
Column name: Kinetex Evo C18 2.6 um 50 x 2.1 mm
Retention time: 3.150 min
Base peak: 143.0015
Precursor m/z: 335.1754
Precursor type: [M+H]+
m/z	relative intensity	assigned
79.0542	6	C6H7+
81.0699	7	C6H9+
93.0697	13	C7H9+
94.0647	5	C6H8N+
95.049	4	C6H7O+
106.0652	8	C7H8N+
108.0807	29	C7H10N+
121.065	7	C8H9O+
122.06	13	C7H8NO+
124.0758	12	C7H10NO+
130.0651	8	C9H8N+
144.0808	39	C10H10N+
156.0809	44	C11H10N+
168.081	13	C12H10N+
169.0762	5	C11H9N2+
171.0916	12	C11H11N2+
182.096	5	C13H12N+
184.0757	378	C12H10NO+
194.0602	7	C13H8NO+
194.0966	29	C14H12N+
196.0757	26	C13H10NO+
198.0913	32	C13H12NO+
200.0701	7	C12H10NO2+
206.0964	5	C15H12N+
210.0907	14	C14H12NO+
218.0954	6	C16H12N+
220.0756	33	C15H10NO+
220.1118	13	C16H14N+
222.0913	97	C15H12NO+
222.1278	8	C16H16N+
234.0912	27	C16H12NO+
236.1068	7	C16H14NO+
236.1429	8	C17H18N+
246.0913	12	C17H12NO+
246.1276	8	C18H16N+
248.1071	26	C17H14NO+
262.1227	37	C18H16NO+
264.1019	110	C17H14NO2+
264.1383	9	C18H18NO+
266.1173	22	C17H16NO2+
272.1066	26	C19H14NO+
274.1225	19	C19H16NO+
280.1331	5	C18H18NO2+
290.1183	18	C19H16NO2+
292.1344	10	C19H18NO2+
306.1501	12	C20H20NO2+
307.1443	46	C19H19N2O2+
335.1755	999	C21H23N2O2+
