Mass spectrum: Harmine; LC-ESI-ITFT; MS2; CE: 120%; R=15000; [M+H]+
Name: Harmine
Name: 7-methoxy-1-methyl-9H-pyrido[3,4-b]indole
Formula: C13H12N2O
Exact mass: 212.0950
SMILES: COC1=CC2=C(C=C1)C1=C(N2)C(C)=NC=C1
InChI: InChI=1S/C13H12N2O/c1-8-13-11(5-6-14-8)10-4-3-9(16-2)7-12(10)15-13/h3-7,15H,1-2H3
Instrument: LTQ Orbitrap XL Thermo Scientific
Instrument type: LC-ESI-ITFT
Ms type: MS2
Ion mode: POSITIVE
Ionization: ESI
Fragmentation mode: HCD
Collision energy: 120 % (nominal)
Resolution: 15000
Column name: Kinetex Evo C18 2.6 um 50 x 2.1 mm
Retention time: 6.644 min
Base peak: 213.103
Precursor m/z: 213.1022
Precursor type: [M+H]+
m/z	relative intensity	assigned
93.0575	40	C6H7N+
102.0466	10	C8H6+
115.0544	14	C9H7+
117.0575	13	C8H7N+
118.0653	27	C8H8N+
128.0496	13	C9H6N+
129.0574	9	C9H7N+
130.0413	1	C9H6O+
130.0653	6	C9H8N+
141.0575	2	C10H7N+
142.0652	27	C10H8N+
143.0605	10	C9H7N2+
143.0731	29	C10H9N+
144.0684	71	C9H8N2+
144.0809	153	C10H10N+
145.0652	1	C10H9O+
155.0605	121	C10H7N2+
168.0687	10	C11H8N2+
169.0763	999	C11H9N2+
170.0839	946	C11H10N2+
171.087	2	C6H11N4O2+
197.0709	3	C12H9N2O+
198.0789	32	C12H10N2O+
