Mass spectrum: alpha-Cyperone; LC-ESI-ITFT; MS2; CE: 115%; R=15000; [M+H]+
Name: alpha-Cyperone
Formula: C15H22O
Exact mass: 218.1671
SMILES: CC1=C2CC(CCC2(CCC1=O)C)C(=C)C
InChI: InChI=1S/C15H22O/c1-10(2)12-5-7-15(4)8-6-14(16)11(3)13(15)9-12/h12H,1,5-9H2,2-4H3
Instrument: LTQ Orbitrap XL Thermo Scientific
Instrument type: LC-ESI-ITFT
Ms type: MS2
Ion mode: POSITIVE
Ionization: ESI
Fragmentation mode: HCD
Collision energy: 115 % (nominal)
Resolution: 15000
Column name: Kinetex Evo C18 2.6 um 50 x 2.1 mm
Retention time: 13.134 min
Base peak: 219.1742
Precursor m/z: 219.1743
Precursor type: [M+H]+
m/z	relative intensity	assigned
55.0541	36	C4H7+
65.0386	42	C5H5+
67.0542	503	C5H7+
69.0335	34	C4H5O+
69.0698	58	C5H9+
77.0386	415	C6H5+
79.0542	504	C6H7+
80.0618	18	C6H8+
81.0699	416	C6H9+
83.0491	27	C5H7O+
83.0855	48	C6H11+
91.0542	865	C7H7+
92.0619	13	C7H8+
93.0699	495	C7H9+
95.0492	129	C6H7O+
95.0855	252	C7H11+
97.0648	200	C6H9O+
103.0542	70	C8H7+
104.062	23	C8H8+
105.0698	450	C8H9+
107.0491	61	C7H7O+
107.0855	103	C8H11+
108.057	53	C7H8O+
109.0647	76	C7H9O+
109.1011	53	C8H13+
111.0804	999	C7H11O+
115.0542	69	C9H7+
116.0616	19	C9H8+
117.0699	120	C9H9+
119.0855	171	C9H11+
121.0647	120	C8H9O+
121.1011	14	C9H13+
122.0726	26	C8H10O+
123.0804	348	C8H11O+
128.0619	74	C10H8+
129.0698	84	C10H9+
130.0774	38	C10H10+
131.0854	63	C10H11+
133.0651	17	C9H9O+
133.1012	27	C10H13+
135.0804	93	C9H11O+
137.096	95	C9H13O+
142.078	18	C11H10+
143.0853	78	C11H11+
145.1016	24	C11H13+
147.0804	38	C10H11O+
149.0955	16	C10H13O+
161.0962	93	C11H13O+
189.1272	25	C13H17O+
