Mass spectrum: Harmine; LC-ESI-ITFT; MS2; CE: 110%; R=15000; [M+H]+
Name: Harmine
Name: 7-methoxy-1-methyl-9H-pyrido[3,4-b]indole
Formula: C13H12N2O
Exact mass: 212.0950
SMILES: COC1=CC2=C(C=C1)C1=C(N2)C(C)=NC=C1
InChI: InChI=1S/C13H12N2O/c1-8-13-11(5-6-14-8)10-4-3-9(16-2)7-12(10)15-13/h3-7,15H,1-2H3
Instrument: LTQ Orbitrap XL Thermo Scientific
Instrument type: LC-ESI-ITFT
Ms type: MS2
Ion mode: POSITIVE
Ionization: ESI
Fragmentation mode: HCD
Collision energy: 110 % (nominal)
Resolution: 15000
Column name: Kinetex Evo C18 2.6 um 50 x 2.1 mm
Retention time: 6.644 min
Base peak: 213.103
Precursor m/z: 213.1022
Precursor type: [M+H]+
m/z	relative intensity	assigned
93.0575	14	C6H7N+
102.0466	3	C8H6+
115.0545	3	C9H7+
117.0575	4	C8H7N+
118.0653	8	C8H8N+
128.0496	3	C9H6N+
129.0575	5	C9H7N+
130.0415	1	C9H6O+
130.0655	2	C9H8N+
142.0653	7	C10H8N+
143.0605	3	C9H7N2+
143.0732	14	C10H9N+
144.0684	39	C9H8N2+
144.0809	89	C10H10N+
145.0651	1	C10H9O+
155.0606	66	C10H7N2+
168.0685	1	C11H8N2+
169.0764	536	C11H9N2+
170.0839	999	C11H10N2+
171.087	15	C6H11N4O2+
183.092	1	C12H11N2+
197.0712	2	C12H9N2O+
198.0789	74	C12H10N2O+
213.1025	3	C13H13N2O+
