Mass spectrum: (+)-Lupanine; LC-ESI-ITFT; MS2; CE: 110%; R=15000; [M+H]+
Name: (+)-Lupanine
Formula: C15H24N2O
Exact mass: 248.1889
SMILES: C1CCN2CC3CC(C2C1)CN4C3CCCC4=O
InChI: InChI=1S/C15H24N2O/c18-15-6-3-5-14-11-8-12(10-17(14)15)13-4-1-2-7-16(13)9-11/h11-14H,1-10H2
Instrument: LTQ Orbitrap XL Thermo Scientific
Instrument type: LC-ESI-ITFT
Ms type: MS2
Ion mode: POSITIVE
Ionization: ESI
Fragmentation mode: HCD
Collision energy: 110 % (nominal)
Resolution: 15000
Column name: Kinetex Evo C18 2.6 um 50 x 2.1 mm
Retention time: 0.596 min
Base peak: 235.2168
Precursor m/z: 249.1961
Precursor type: [M+H]+
m/z	relative intensity	assigned
55.0181	17	C3H3O+
55.0542	38	C4H7+
67.0542	210	C5H7+
68.0493	41	C4H6N+
69.0697	25	C5H9+
70.0651	576	C4H8N+
77.0386	36	C6H5+
79.0543	210	C6H7+
80.0495	247	C5H6N+
81.0575	21	C5H7N+
81.0699	128	C6H9+
82.0652	205	C5H8N+
84.0808	999	C5H10N+
85.0648	160	C5H9O+
91.0542	201	C7H7+
93.0699	173	C7H9+
94.0651	160	C6H8N+
95.0732	24	C6H9N+
95.0856	83	C7H11+
96.0808	306	C6H10N+
98.06	103	C5H8NO+
98.0964	675	C6H12N+
100.0758	30	C5H10NO+
105.0698	114	C8H9+
106.0655	28	C7H8N+
107.0727	33	C7H9N+
107.0856	66	C8H11+
108.0809	225	C7H10N+
109.0886	65	C7H11N+
110.0964	140	C7H12N+
112.0756	449	C6H10NO+
114.0913	250	C6H12NO+
119.0854	25	C9H11+
120.0808	96	C8H10N+
122.0964	244	C8H12N+
124.1122	103	C8H14N+
131.0857	21	C10H11+
133.1011	20	C10H13+
134.0965	394	C9H12N+
135.1041	71	C9H13N+
136.1121	771	C9H14N+
138.1282	30	C9H16N+
148.1121	197	C10H14N+
150.0913	34	C9H12NO+
150.1277	630	C10H16N+
152.1067	34	C9H14NO+
152.1434	146	C10H18N+
166.122	18	C10H16NO+
176.1434	33	C12H18N+
247.1807	57	C15H23N2O+
249.1961	607	C15H25N2O+
