Mass spectrum: Tetrahydropalmatin; LC-ESI-ITFT; MS2; CE: 40%; R=15000; [M+H]+
Name: Tetrahydropalmatin
Name: D-Tetrahydropalmatine
Name: (13aR)-2,3,9,10-tetramethoxy-6,8,13,13a-tetrahydro-5H-isoquinolino[2,1-b]isoquinoline
Formula: C21H25NO4
Exact mass: 355.1784
SMILES: COC1=C(C2=C(C[C@@H]3C4=CC(=C(C=C4CCN3C2)OC)OC)C=C1)OC
InChI: InChI=1S/C21H25NO4/c1-23-18-6-5-13-9-17-15-11-20(25-3)19(24-2)10-14(15)7-8-22(17)12-16(13)21(18)26-4/h5-6,10-11,17H,7-9,12H2,1-4H3/t17-/m1/s1
Instrument: LTQ Orbitrap XL Thermo Scientific
Instrument type: LC-ESI-ITFT
Ms type: MS2
Ion mode: POSITIVE
Ionization: ESI
Fragmentation mode: HCD
Collision energy: 40% (nominal)
Resolution: 15000
Column name: Kinetex Evo C18 2.6 um 50 x 2.1 mm
Retention time: 7.439 min
Base peak: 356.1855
Precursor m/z: 356.1856
Precursor type: [M+H]+
m/z	relative intensity	assigned
133.0653	1	C9H9O+
135.0805	1	C9H11O+
136.0522	1	C8H8O2+
150.0675	20	C9H10O2+
151.0752	14	C9H11O2+
165.091	254	C10H13O2+
175.0752	1	C11H11O2+
176.0705	1	C10H10NO2+
177.0783	2	C10H11NO2+
189.0911	6	C12H13O2+
190.0864	22	C11H12NO2+
191.0948	1	C11H13NO2+
192.1018	999	C11H14NO2+
204.1017	7	C12H14NO2+
205.1097	10	C12H15NO2+
293.1173	2	C19H17O3+
295.132	1	C19H19O3+
296.1399	1	C19H20O3+
308.1405	9	C20H20O3+
309.1117	1	C19H17O4+
310.1428	1	C19H20NO3+
312.1361	1	C19H20O4+
312.1599	1	C19H22NO3+
322.1445	1	C20H20NO3+
323.1515	1	C20H21NO3+
324.1361	3	C20H20O4+
324.1594	4	C20H22NO3+
326.1385	2	C19H20NO4+
327.1587	4	C20H23O4+
339.1592	6	C21H23O4+
340.1532	7	C20H22NO4+
341.1623	13	C20H23NO4+
356.1856	382	C21H26NO4+
