Mass spectrum: (-)-Strychnine; LC-ESI-ITFT; MS2; CE: 85%; R=15000; [M+H]+
Name: (-)-Strychnine
Name: Strychnine
Name: (4aR,5aS,8aR,13aS,15aS,15bR)-4a,5,5a,7,8,13a,15,15a,15b,16-decahydro-2H-4,6-methanoindolo[3,2,1-ij]oxepino[2,3,4-de]pyrrolo[2,3-h]quinolin-14-one
Formula: C21H22N2O2
Exact mass: 334.1681
SMILES: c1ccc2c(c1)[C@]34CCN5[C@H]3C[C@@H]6[C@@H]7[C@@H]4N2C(=O)C[C@@H]7OCC=C6C5
InChI: InChI=1S/C21H22N2O2/c24-18-10-16-19-13-9-17-21(6-7-22(17)11-12(13)5-8-25-16)14-3-1-2-4-15(14)23(18)20(19)21/h1-5,13,16-17,19-20H,6-11H2/t13-,16-,17-,19-,20-,21+/m0/s1
Instrument: LTQ Orbitrap XL Thermo Scientific
Instrument type: LC-ESI-ITFT
Ms type: MS2
Ion mode: POSITIVE
Ionization: ESI
Fragmentation mode: HCD
Collision energy: 85% (nominal)
Resolution: 15000
Column name: Kinetex Evo C18 2.6 um 50 x 2.1 mm
Retention time: 3.141 min
Base peak: 143.0015
Precursor m/z: 335.1754
Precursor type: [M+H]+
m/z	relative intensity	assigned
67.0543	12	C5H7+
68.0497	10	C4H6N+
77.0387	16	C6H5+
79.0543	42	C6H7+
81.07	49	C6H9+
91.0542	57	C7H7+
93.0573	20	C6H7N+
93.07	44	C7H9+
94.065	32	C6H8N+
95.0492	19	C6H7O+
95.0854	12	C7H11+
96.081	30	C6H10N+
105.0699	27	C8H9+
106.0651	58	C7H8N+
107.0859	11	C8H11+
108.0809	76	C7H10N+
117.0697	11	C9H9+
118.0654	13	C8H8N+
120.0807	14	C8H10N+
121.0646	24	C8H9O+
122.0601	41	C7H8NO+
124.0757	38	C7H10NO+
129.0699	139	C10H9+
130.0653	72	C9H8N+
132.0808	12	C9H10N+
143.0732	17	C10H9N+
144.0809	200	C10H10N+
154.0651	37	C11H8N+
155.073	14	C11H9N+
156.0809	707	C11H10N+
166.0652	27	C12H8N+
167.0732	36	C12H9N+
168.0809	111	C12H10N+
169.0761	29	C11H9N2+
170.0598	23	C11H8NO+
170.0966	48	C12H12N+
171.0919	34	C11H11N2+
180.0808	41	C13H10N+
181.088	26	C13H11N+
182.0965	69	C13H12N+
183.068	25	C12H9NO+
184.0758	999	C12H10NO+
192.0809	14	C14H10N+
193.0894	18	C14H11N+
194.0603	31	C13H8NO+
194.0966	156	C14H12N+
196.0759	51	C13H10NO+
198.0913	82	C13H12NO+
204.0804	38	C15H10N+
205.0886	25	C15H11N+
206.0962	63	C15H12N+
207.105	16	C15H13N+
208.112	16	C15H14N+
210.0907	21	C14H12NO+
217.0883	39	C16H11N+
218.0967	53	C16H12N+
219.1048	26	C16H13N+
220.0758	129	C15H10NO+
220.1119	87	C16H14N+
221.0841	19	C15H11NO+
222.0913	162	C15H12NO+
222.1279	31	C16H16N+
230.0974	19	C17H12N+
231.1051	17	C17H13N+
232.1125	33	C17H14N+
234.0912	88	C16H12NO+
234.1277	23	C17H16N+
244.1111	24	C18H14N+
246.0911	42	C17H12NO+
246.1274	21	C18H16N+
248.1075	45	C17H14NO+
262.1225	55	C18H16NO+
264.1021	72	C17H14NO2+
272.1078	31	C19H14NO+
335.1756	225	C21H23N2O2+
