Mass spectrum: Brucine; LC-ESI-ITFT; MS2; CE: 40%; R=15000; [M+H]+
Name: Brucine
Name: (-)-Brucine
Name: (4aR,5aS,8aR,15bR)-10,11-dimethoxy-4a,5,5a,7,8,13a,15,15a,15b,16-decahydro-2H-4,6-methanoindolo[3,2,1-ij]oxepino[2,3,4-de]pyrrolo[2,3-h]quinolin-14-one
Formula: C23H26N2O4
Exact mass: 394.1893
SMILES: COc1cc2c(cc1OC)N3C4[C@]25CCN6[C@H]5C[C@@H]7[C@H]4C(CC3=O)OCC=C7C6
InChI: InChI=1S/C23H26N2O4/c1-27-16-8-14-15(9-17(16)28-2)25-20(26)10-18-21-13-7-19-23(14,22(21)25)4-5-24(19)11-12(13)3-6-29-18/h3,8-9,13,18-19,21-22H,4-7,10-11H2,1-2H3/t13-,18?,19-,21-,22?,23+/m0/s1
Instrument: LTQ Orbitrap XL Thermo Scientific
Instrument type: LC-ESI-ITFT
Ms type: MS2
Ion mode: POSITIVE
Ionization: ESI
Fragmentation mode: HCD
Collision energy: 40% (nominal)
Resolution: 15000
Column name: Kinetex Evo C18 2.6 um 50 x 2.1 mm
Retention time: 5.973 min
Base peak: 395.1965
Precursor m/z: 395.1965
Precursor type: [M+H]+
m/z	relative intensity	assigned
124.0763	2	C7H10NO+
244.0968	30	C14H14NO3+
251.095	2	C16H13NO2+
256.0965	2	C15H14NO3+
280.0961	3	C17H14NO3+
282.1128	23	C17H16NO3+
294.1126	1	C18H16NO3+
322.143	4	C20H20NO3+
324.1231	73	C19H18NO4+
326.1376	1	C19H20NO4+
332.1281	3	C21H18NO3+
349.1558	5	C21H21N2O3+
350.1389	22	C21H20NO4+
352.1535	3	C21H22NO4+
367.1654	76	C21H23N2O4+
380.1717	4	C22H24N2O4+
395.1965	999	C23H27N2O4+
