Mass spectrum: Senecionine N-oxide; LC-ESI-ITFT; MS2; CE: 90%; R=15000; [M+H]+
Name: Senecionine N-oxide
Name: (1R,4Z,6R,7R,17R)-4-ethylidene-7-hydroxy-6,7-dimethyl-14-oxido-2,9-dioxa-14-azoniatricyclo[9.5.1.014,17]heptadec-11-ene-3,8-dione
Formula: C18H25NO6
Exact mass: 351.1682
SMILES: C/C=C\1/C[C@H]([C@@](C(=O)OCC2=CC[N+]3([C@H]2[C@@H](CC3)OC1=O)[O-])(C)O)C
InChI: InChI=1S/C18H25NO6/c1-4-12-9-11(2)18(3,22)17(21)24-10-13-5-7-19(23)8-6-14(15(13)19)25-16(12)20/h4-5,11,14-15,22H,6-10H2,1-3H3/b12-4-/t11-,14-,15-,18-,19?/m1/s1
Instrument: LTQ Orbitrap XL Thermo Scientific
Instrument type: LC-ESI-ITFT
Ms type: MS2
Ion mode: POSITIVE
Ionization: ESI
Fragmentation mode: HCD
Collision energy: 90% (nominal)
Resolution: 15000
Column name: Kinetex Evo C18 2.6 um 50 x 2.1 mm
Retention time: 5.367 min
Base peak: 352.1752
Precursor m/z: 352.1755
Precursor type: [M+H]+
m/z	relative intensity	assigned
53.0384	14	C4H5+
65.0384	8	C5H5+
66.0463	13	C5H6+
67.0415	17	C4H5N+
67.0542	40	C5H7+
68.0493	15	C4H6N+
77.0384	10	C6H5+
79.0542	57	C6H7+
80.0494	175	C5H6N+
81.0335	15	C5H5O+
81.0573	22	C5H7N+
81.0698	99	C6H9+
82.0651	21	C5H8N+
83.0491	15	C5H7O+
84.0445	13	C4H6NO+
91.0541	72	C7H7+
92.0495	38	C6H6N+
93.0573	399	C6H7N+
94.065	999	C6H8N+
95.0729	75	C6H9N+
96.0442	10	C5H6NO+
96.0806	27	C6H10N+
98.0601	16	C5H8NO+
105.0697	10	C8H9+
106.065	120	C7H8N+
107.0729	15	C7H9N+
107.0855	46	C8H11+
108.0807	195	C7H10N+
109.0647	11	C7H9O+
109.0882	14	C7H11N+
109.1013	9	C8H13+
110.0599	16	C6H8NO+
112.0755	9	C6H10NO+
117.0572	41	C8H7N+
118.065	397	C8H8N+
119.0729	140	C8H9N+
120.0807	498	C8H10N+
121.0888	5	C8H11N+
122.0963	29	C8H12N+
124.0754	14	C7H10NO+
125.0959	15	C8H13O+
132.0808	9	C9H10N+
134.096	13	C9H12N+
136.0756	520	C8H10NO+
138.0912	59	C8H12NO+
139.0752	24	C8H11O2+
146.0959	7	C10H12N+
148.1117	12	C10H14N+
