Mass spectrum: 4-Hydroxycoumarin; LC-ESI-ITFT; MS2; CE: 110%; R=15000; [M+H]+
Name: 4-Hydroxycoumarin
Name: 4-hydroxychromen-2-one
Formula: C9H6O3
Exact mass: 162.0317
SMILES: OC1=CC(=O)OC2=CC=CC=C12
InChI: InChI=1S/C9H6O3/c10-7-5-9(11)12-8-4-2-1-3-6(7)8/h1-5,10H
Instrument: LTQ Orbitrap XL Thermo Scientific
Instrument type: LC-ESI-ITFT
Ms type: MS2
Ion mode: POSITIVE
Ionization: ESI
Fragmentation mode: HCD
Collision energy: 110 % (nominal)
Resolution: 15000
Column name: Kinetex Evo C18 2.6 um 50 x 2.1 mm
Retention time: 7.960 min
Base peak: 163.0391
Precursor m/z: 163.039
Precursor type: [M+H]+
m/z	relative intensity	assigned
63.0227	5	C5H3+
65.0383	767	C5H5+
67.054	7	C5H7+
68.9968	394	C3HO2+
75.0227	7	C6H3+
77.0384	190	C6H5+
79.0541	104	C6H7+
89.0385	58	C7H5+
91.0541	440	C7H7+
93.0334	256	C6H5O+
95.049	164	C6H7O+
101.0385	6	C8H5+
105.0446	96	C6H5N2+
107.049	22	C7H7O+
111.0439	57	C6H7O2+
119.0491	5	C8H7O+
121.0283	999	C7H5O2+
121.0393	360	C6H5N2O+
122.0359	3	C7H6O2+
129.0445	20	C8H5N2+
139.0386	4	C7H7O3+
145.0283	5	C9H5O2+
163.0387	34	C9H7O3+
