Mass spectrum: Papaverin; LC-ESI-ITFT; MS2; CE: 100%; R=15000; [M+H]+
Name: Papaverin
Name: Papaverine
Name: 1-[(3,4-dimethoxyphenyl)methyl]-6,7-dimethoxyisoquinoline
Formula: C20H21NO4
Exact mass: 339.1471
SMILES: COC1=C(C=C(C=C1)CC2=NC=CC3=CC(=C(C=C32)OC)OC)OC
InChI: InChI=1S/C20H21NO4/c1-22-17-6-5-13(10-18(17)23-2)9-16-15-12-20(25-4)19(24-3)11-14(15)7-8-21-16/h5-8,10-12H,9H2,1-4H3
Instrument: LTQ Orbitrap XL Thermo Scientific
Instrument type: LC-ESI-ITFT
Ms type: MS2
Ion mode: POSITIVE
Ionization: ESI
Fragmentation mode: HCD
Collision energy: 100% (nominal)
Resolution: 15000
Column name: Kinetex Evo C18 2.6 um 50 x 2.1 mm
Retention time: 7.581 min
Base peak: 340.154
Precursor m/z: 340.1543
Precursor type: [M+H]+
m/z	relative intensity	assigned
77.0386	61	C6H5+
78.0466	5	C6H6+
90.0463	6	C7H6+
91.0542	50	C7H7+
95.0492	178	C6H7O+
102.0464	37	C8H6+
103.0542	239	C8H7+
104.0619	9	C8H8+
105.0337	12	C7H5O+
107.0491	83	C7H7O+
108.057	14	C7H8O+
114.0464	53	C9H6+
115.0542	180	C9H7+
116.0495	91	C8H6N+
116.0621	18	C9H8+
117.0576	17	C8H7N+
117.0699	17	C9H9+
118.0413	13	C8H6O+
118.0652	69	C8H8N+
119.0489	14	C8H7O+
121.0645	6	C8H9O+
123.0441	137	C7H7O2+
127.0417	48	C9H5N+
128.0495	578	C9H6N+
129.0573	117	C9H7N+
130.041	11	C9H6O+
130.0651	216	C9H8N+
131.0492	286	C9H7O+
131.073	66	C9H9N+
132.0569	46	C9H8O+
132.0803	6	C9H10N+
133.0283	19	C8H5O2+
133.0649	15	C9H9O+
135.0442	34	C8H7O2+
136.0518	8	C8H8O2+
138.0675	18	C8H10O2+
140.0495	139	C10H6N+
141.0573	114	C10H7N+
142.0651	113	C10H8N+
143.0727	28	C10H9N+
144.0445	139	C9H6NO+
144.057	17	C10H8O+
144.0806	13	C10H10N+
145.0517	21	C9H7NO+
145.0648	37	C10H9O+
146.0601	104	C9H8NO+
147.0445	7	C9H7O2+
147.0806	6	C10H11O+
148.0518	31	C9H8O2+
151.0753	32	C9H11O2+
154.0653	10	C11H8N+
155.0366	32	C10H5NO+
156.0445	647	C10H6NO+
158.0601	718	C10H8NO+
159.0441	59	C10H7O2+
159.0675	181	C10H9NO+
160.0515	14	C10H8O2+
160.0751	40	C10H10NO+
161.06	20	C10H9O2+
167.0736	8	C12H9N+
170.0601	83	C11H8NO+
171.0679	999	C11H9NO+
172.0393	51	C10H6NO2+
173.0464	13	C10H7NO2+
174.0549	60	C10H8NO2+
174.0913	12	C11H12NO+
175.0753	67	C11H11O2+
179.0722	7	C13H9N+
180.0807	22	C13H10N+
181.0883	17	C13H11N+
183.0679	33	C12H9NO+
184.0761	19	C12H10NO+
186.055	570	C11H8NO2+
187.063	150	C11H9NO2+
188.0708	32	C11H10NO2+
189.0784	54	C11H11NO2+
190.0861	11	C11H12NO2+
191.073	16	C14H9N+
192.0808	43	C14H10N+
193.0888	20	C14H11N+
194.0964	15	C14H12N+
195.0683	8	C13H9NO+
196.0756	66	C13H10NO+
197.0842	20	C13H11NO+
200.0704	11	C12H10NO2+
202.0862	262	C12H12NO2+
204.0653	38	C11H10NO3+
204.0806	46	C15H10N+
205.0891	27	C15H11N+
206.0966	38	C15H12N+
207.0678	14	C14H9NO+
208.0757	60	C14H10NO+
209.0838	62	C14H11NO+
210.0914	63	C14H12NO+
211.0637	6	C13H9NO2+
212.0707	14	C13H10NO2+
216.0812	10	C16H10N+
217.0889	16	C16H11N+
219.0686	11	C15H9NO+
220.0758	114	C15H10NO+
221.0841	60	C15H11NO+
222.0914	193	C15H12NO+
224.0705	98	C14H10NO2+
224.1075	32	C15H14NO+
225.079	30	C14H11NO2+
227.0938	10	C14H13NO2+
232.076	16	C16H10NO+
233.0837	58	C16H11NO+
234.0914	117	C16H12NO+
235.0999	49	C16H13NO+
236.0704	46	C15H10NO2+
236.1077	13	C16H14NO+
237.079	26	C15H11NO2+
238.0863	121	C15H12NO2+
240.1021	88	C15H14NO2+
247.1002	7	C17H13NO+
248.0708	39	C16H10NO2+
248.1062	5	C17H14NO+
249.0788	33	C16H11NO2+
250.0863	290	C16H12NO2+
252.1022	121	C16H14NO2+
254.1169	17	C16H16NO2+
262.0863	59	C17H12NO2+
263.0944	61	C17H13NO2+
264.1021	52	C17H14NO2+
266.0811	55	C16H12NO3+
266.1179	42	C17H16NO2+
277.0739	6	C17H11NO3+
278.0811	113	C17H12NO3+
279.0897	66	C17H13NO3+
280.0968	525	C17H14NO3+
282.1127	9	C17H16NO3+
290.081	6	C18H12NO3+
292.0959	14	C18H14NO3+
294.1123	15	C18H16NO3+
296.1279	5	C18H18NO3+
306.076	30	C18H12NO4+
308.0917	622	C18H14NO4+
322.1069	5	C19H16NO4+
324.123	42	C19H18NO4+
