Mass spectrum: Coniferaldehyde; LC-ESI-ITFT; MS2; CE: 90%; R=15000; [M+H]+
Name: Coniferaldehyde
Formula: C10H10O3
Exact mass: 178.0630
SMILES: COC1=CC(\C=C\C=O)=CC=C1O
InChI: InChI=1S/C10H10O3/c1-13-10-7-8(3-2-6-11)4-5-9(10)12/h2-7,12H,1H3/b3-2+
Instrument: LTQ Orbitrap XL Thermo Scientific
Instrument type: LC-ESI-ITFT
Ms type: MS2
Ion mode: POSITIVE
Ionization: ESI
Fragmentation mode: HCD
Collision energy: 90 % (nominal)
Resolution: 15000
Column name: Kinetex Evo C18 2.6 um 50 x 2.1 mm
Retention time: 7.512 min
Base peak: 179.0702
Precursor m/z: 179.0703
Precursor type: [M+H]+
m/z	relative intensity	assigned
65.0386	63	C5H5+
77.0387	43	C6H5+
79.0543	158	C6H7+
80.0621	69	C6H8+
89.0386	30	C7H5+
90.0464	75	C7H6+
91.0543	999	C7H7+
94.0413	36	C6H6O+
95.0493	13	C6H7O+
103.0543	60	C8H7+
105.07	54	C8H9+
107.0492	189	C7H7O+
108.0569	46	C7H8O+
115.0543	17	C9H7+
118.0414	179	C8H6O+
119.0492	274	C8H7O+
133.0649	37	C9H9O+
135.0442	87	C8H7O2+
136.052	208	C8H8O2+
146.0364	160	C9H6O2+
147.0441	57	C9H7O2+
163.0385	10	C9H7O3+
