Mass spectrum: Retrorsine; LC-ESI-ITFT; MS2; CE: 60%; R=15000; [M+H]+
Name: Retrorsine
Name: (1R,4Z,6R,7S,17R)-4-ethylidene-7-hydroxy-7-(hydroxymethyl)-6-methyl-2,9-dioxa-14-azatricyclo[9.5.1.014,17]heptadec-11-ene-3,8-dione
Formula: C18H25NO6
Exact mass: 351.1682
SMILES: C/C=C\1/C[C@H]([C@@](C(=O)OCC2=CCN3[C@H]2[C@@H](CC3)OC1=O)(CO)O)C
InChI: InChI=1S/C18H25NO6/c1-3-12-8-11(2)18(23,10-20)17(22)24-9-13-4-6-19-7-5-14(15(13)19)25-16(12)21/h3-4,11,14-15,20,23H,5-10H2,1-2H3/b12-3-/t11-,14-,15-,18-/m1/s1
Instrument: LTQ Orbitrap XL Thermo Scientific
Instrument type: LC-ESI-ITFT
Ms type: MS2
Ion mode: POSITIVE
Ionization: ESI
Fragmentation mode: HCD
Collision energy: 60% (nominal)
Resolution: 15000
Column name: Kinetex Evo C18 2.6 um 50 x 2.1 mm
Retention time: 1.607 min
Base peak: 143.0015
Precursor m/z: 352.1755
Precursor type: [M+H]+
m/z	relative intensity	assigned
67.0541	87	C5H7+
68.0494	43	C4H6N+
77.0386	27	C6H5+
79.0543	48	C6H7+
80.0495	96	C5H6N+
81.0699	80	C6H9+
82.0652	75	C5H8N+
83.0492	19	C5H7O+
84.0445	13	C4H6NO+
91.0543	102	C7H7+
92.0497	11	C6H6N+
93.0699	225	C7H9+
94.0651	527	C6H8N+
95.049	17	C6H7O+
95.0731	14	C6H9N+
95.0855	165	C7H11+
96.0808	264	C6H10N+
99.0442	21	C5H7O2+
103.0542	83	C8H7+
105.0699	59	C8H9+
106.0653	17	C7H8N+
107.0727	24	C7H9N+
107.0856	34	C8H11+
108.0808	149	C7H10N+
109.0648	40	C7H9O+
109.0885	13	C7H11N+
110.0602	39	C6H8NO+
110.0964	92	C7H12N+
111.0805	19	C7H11O+
112.0752	13	C6H10NO+
118.0651	64	C8H8N+
120.0808	999	C8H10N+
121.0648	31	C8H9O+
121.0887	38	C8H11N+
122.0964	197	C8H12N+
123.0804	202	C8H11O+
125.0962	30	C8H13O+
136.0758	12	C8H10NO+
138.0913	943	C8H12NO+
139.0752	24	C8H11O2+
140.1072	51	C8H14NO+
151.0753	152	C9H11O2+
156.1019	33	C8H14NO2+
169.0859	45	C9H13O3+
220.1331	119	C13H18NO2+
236.1277	13	C13H18NO3+
248.1642	17	C15H22NO2+
276.1594	78	C16H22NO3+
324.1805	301	C17H26NO5+
352.1753	465	C18H26NO6+
