Mass spectrum: Jervine; LC-ESI-ITFT; MS2; CE: 95%; R=15000; [M+H]+
Name: Jervine
Name: (3S,3`R,3`aS,6`S,6aS,6bS,7`aR,9R,11aS,11bR)-3-hydroxy-3`,6`,10,11b-tetramethylspiro[1,2,3,4,6,6a,6b,7,8,11a-decahydrobenzo[a]fluorene-9,2`-3a,4,5,6,7,7a-hexahydro-3H-furo[3,2-b]pyridine]-11-one
Formula: C27H39NO3
Exact mass: 425.2930
SMILES: C[C@H]1C[C@@H]2[C@H]([C@H]([C@]3(O2)CC[C@H]4[C@@H]5CC=C6C[C@H](CC[C@@]6([C@H]5C(=O)C4=C3C)C)O)C)NC1
InChI: InChI=1S/C27H39NO3/c1-14-11-21-24(28-13-14)16(3)27(31-21)10-8-19-20-6-5-17-12-18(29)7-9-26(17,4)23(20)25(30)22(19)15(27)2/h5,14,16,18-21,23-24,28-29H,6-13H2,1-4H3/t14-,16+,18-,19-,20-,21+,23+,24-,26-,27-/m0/s1
Instrument: LTQ Orbitrap XL Thermo Scientific
Instrument type: LC-ESI-ITFT
Ms type: MS2
Ion mode: POSITIVE
Ionization: ESI
Fragmentation mode: HCD
Collision energy: 95% (nominal)
Resolution: 15000
Column name: Kinetex Evo C18 2.6 um 50 x 2.1 mm
Retention time: 8.892 min
Base peak: 426.2999
Precursor m/z: 426.3003
Precursor type: [M+H]+
m/z	relative intensity	assigned
55.0541	37	C4H7+
57.0697	33	C4H9+
65.0384	36	C5H5+
67.0541	970	C5H7+
68.0492	24	C4H6N+
69.0334	21	C4H5O+
69.0698	102	C5H9+
70.0651	137	C4H8N+
72.0443	42	C3H6NO+
77.0386	79	C6H5+
79.0542	491	C6H7+
80.0494	58	C5H6N+
80.0621	19	C6H8+
81.0572	116	C5H7N+
81.0698	686	C6H9+
82.0652	30	C5H8N+
83.0491	131	C5H7O+
84.0807	751	C5H10N+
85.0647	239	C5H9O+
91.0542	672	C7H7+
93.0698	450	C7H9+
94.0652	31	C6H8N+
94.0777	24	C7H10+
95.0493	24	C6H7O+
95.0854	130	C7H11+
96.0807	269	C6H10N+
98.0964	47	C6H12N+
100.0758	15	C5H10NO+
103.0543	69	C8H7+
105.0698	999	C8H9+
106.0778	18	C8H10+
107.049	21	C7H7O+
107.0855	273	C8H11+
109.0646	38	C7H9O+
109.1011	197	C8H13+
112.0757	83	C6H10NO+
114.0912	505	C6H12NO+
115.0541	73	C9H7+
116.0621	42	C9H8+
117.0698	236	C9H9+
119.0855	351	C9H11+
121.0648	56	C8H9O+
121.101	167	C9H13+
123.0807	33	C8H11O+
124.112	24	C8H14N+
128.062	160	C10H8+
129.0698	254	C10H9+
130.0776	212	C10H10+
131.0854	226	C10H11+
133.0642	23	C9H9O+
133.1012	123	C10H13+
135.0801	20	C9H11O+
140.1072	20	C8H14NO+
141.0698	138	C11H9+
142.0776	252	C11H10+
143.0854	206	C11H11+
144.0567	22	C10H8O+
144.0929	51	C11H12+
145.0648	40	C10H9O+
145.101	238	C11H13+
146.0723	24	C10H10O+
147.0802	45	C10H11O+
149.0964	31	C10H13O+
153.0697	63	C12H9+
154.0771	44	C12H10+
155.0854	146	C12H11+
156.0931	103	C12H12+
157.101	152	C12H13+
158.0727	24	C11H10O+
159.1165	35	C12H15+
160.0875	36	C11H12O+
165.0698	89	C13H9+
166.0774	46	C13H10+
167.0856	68	C13H11+
168.0932	45	C13H12+
169.1012	113	C13H13+
171.1166	38	C13H15+
172.0881	18	C12H12O+
173.0961	33	C12H13O+
175.1115	57	C12H15O+
178.0776	44	C14H10+
179.0855	82	C14H11+
180.0933	35	C14H12+
181.1011	89	C14H13+
182.1091	28	C14H14+
183.0806	16	C13H11O+
183.1161	35	C14H15+
191.0847	27	C15H11+
192.0933	48	C15H12+
193.101	71	C15H13+
194.109	21	C15H14+
195.1165	55	C15H15+
197.1323	17	C15H17+
203.0857	20	C16H11+
205.101	54	C16H13+
206.109	25	C16H14+
207.1166	35	C16H15+
209.1319	24	C16H17+
217.1014	32	C17H13+
219.1172	29	C17H15+
230.1098	19	C18H14+
231.117	35	C18H15+
233.1327	21	C18H17+
235.1475	18	C18H19+
247.1478	25	C19H19+
