Mass spectrum: Protopin; LC-ESI-ITFT; MS2; CE: 100%; R=15000; [M+H]+
Name: Protopin
Name: Protopine
Name: 15-methyl-7,9,19,21-tetraoxa-15-azapentacyclo[15.7.0.04,12.06,10.018,22]tetracosa-1(17),4,6(10),11,18(22),23-hexaen-3-one
Formula: C20H19NO5
Exact mass: 353.1263
SMILES: CN1CCC2=CC3=C(C=C2C(=O)CC4=C(C1)C5=C(C=C4)OCO5)OCO3
InChI: InChI=1S/C20H19NO5/c1-21-5-4-13-7-18-19(25-10-24-18)8-14(13)16(22)6-12-2-3-17-20(15(12)9-21)26-11-23-17/h2-3,7-8H,4-6,9-11H2,1H3
Instrument: LTQ Orbitrap XL Thermo Scientific
Instrument type: LC-ESI-ITFT
Ms type: MS2
Ion mode: POSITIVE
Ionization: ESI
Fragmentation mode: HCD
Collision energy: 100% (nominal)
Resolution: 15000
Column name: Kinetex Evo C18 2.6 um 50 x 2.1 mm
Retention time: 6.681 min
Base peak: 354.1335
Precursor m/z: 354.1336
Precursor type: [M+H]+
m/z	relative intensity	assigned
65.0386	17	C5H5+
77.0385	69	C6H5+
79.0542	103	C6H7+
81.0696	4	C6H9+
89.0385	34	C7H5+
91.0542	310	C7H7+
93.0699	16	C7H9+
94.0413	4	C6H6O+
102.0463	14	C8H6+
103.0542	93	C8H7+
105.0334	26	C7H5O+
107.0491	95	C7H7O+
109.0651	4	C7H9O+
115.0542	28	C9H7+
116.0491	7	C8H6N+
117.0334	22	C8H5O+
117.0574	14	C8H7N+
117.0696	16	C9H9+
118.065	36	C8H8N+
119.0491	133	C8H7O+
120.0809	14	C8H10N+
121.0648	11	C8H9O+
130.0651	170	C9H8N+
131.0491	53	C9H7O+
131.0729	258	C9H9N+
132.0807	58	C9H10N+
135.044	152	C8H7O2+
136.0518	4	C8H8O2+
143.0725	10	C10H9N+
144.0807	51	C10H10N+
146.06	27	C9H8NO+
147.044	193	C9H7O2+
148.0758	16	C9H10NO+
149.0596	206	C9H9O2+
151.0541	30	C12H7+
152.0619	75	C12H8+
153.0697	35	C12H9+
158.06	23	C10H8NO+
159.044	37	C10H7O2+
159.0678	162	C10H9NO+
160.0756	173	C10H10NO+
161.0598	13	C10H9O2+
161.0808	10	C7H13O4+
163.039	62	C9H7O3+
164.0621	12	C13H8+
165.0698	106	C13H9+
166.0772	28	C13H10+
167.0496	7	C12H7O+
167.0855	107	C13H11+
173.0595	6	C11H9O2+
174.0549	89	C10H8NO2+
175.0387	11	C10H7O3+
175.0594	4	C7H11O5+
175.0623	4	C10H9NO2+
176.062	40	C14H8+
176.0708	10	C10H10NO2+
177.0698	137	C14H9+
178.0776	221	C14H10+
179.0492	15	C13H7O+
179.0855	227	C14H11+
180.0572	7	C13H8O+
181.0647	15	C13H9O+
186.0552	5	C11H8NO2+
188.0705	999	C11H10NO2+
189.0696	599	C15H9+
189.0786	138	C11H11NO2+
190.087	7	C11H12NO2+
191.0854	50	C15H11+
192.0567	15	C14H8O+
193.0648	11	C14H9O+
194.0725	11	C14H10O+
195.0805	31	C14H11O+
201.0698	9	C16H9+
202.0776	7	C16H10+
204.0562	4	C15H8O+
204.0811	11	C15H10N+
205.0646	75	C15H9O+
205.0885	10	C15H11N+
206.0734	18	C15H10O+
206.0965	5	C15H12N+
207.0803	97	C15H11O+
209.0595	171	C14H9O2+
217.0646	93	C16H9O+
218.0733	18	C16H10O+
218.0968	5	C16H12N+
219.0805	22	C16H11O+
220.0512	7	C15H8O2+
220.1112	5	C16H14N+
221.0602	9	C15H9O2+
222.0673	38	C15H10O2+
223.0759	6	C15H11O2+
233.0595	4	C16H9O2+
233.083	6	C16H11NO+
234.0677	9	C16H10O2+
234.0913	5	C16H12NO+
235.0751	46	C16H11O2+
237.0538	7	C15H9O3+
237.0915	9	C16H13O2+
246.0676	22	C17H10O2+
247.0756	45	C17H11O2+
250.0635	6	C16H10O3+
262.0862	21	C17H12NO2+
263.0698	7	C17H11O3+
263.095	5	C17H13NO2+
275.0692	7	C18H11O3+
276.103	6	C18H14NO2+
290.0814	11	C18H12NO3+
292.0971	7	C18H14NO3+
304.0979	4	C19H14NO3+
318.0751	5	C19H12NO4+
320.0916	15	C19H14NO4+
