Mass spectrum: Galantamine; LC-ESI-ITFT; MS2; CE: 80%; R=15000; [M+H]+
Name: Galantamine
Formula: C17H21NO3
Exact mass: 287.1521
SMILES: CN1CCC23C=CC(CC2OC4=C(C=CC(=C34)C1)OC)O
InChI: InChI=1S/C17H21NO3/c1-18-8-7-17-6-5-12(19)9-14(17)21-16-13(20-2)4-3-11(10-18)15(16)17/h3-6,12,14,19H,7-10H2,1-2H3
Instrument: LTQ Orbitrap XL Thermo Scientific
Instrument type: LC-ESI-ITFT
Ms type: MS2
Ion mode: POSITIVE
Ionization: ESI
Fragmentation mode: CID
Collision energy: 80 % (nominal)
Resolution: 15000
Column name: Kinetex Evo C18 2.6 um 50 x 2.1 mm
Retention time: 0.643 min
Base peak: 288.1592
Precursor m/z: 288.1594
Precursor type: [M+H]+
m/z	relative intensity	assigned
109.065	1	C7H9O+
132.081	5	C9H10N+
133.0889	8	C9H11N+
134.0965	8	C9H12N+
137.0596	4	C8H9O2+
150.0915	5	C9H12NO+
151.0994	29	C9H13NO+
167.085	2	C13H11+
171.0802	2	C12H11O+
175.0756	9	C11H11O2+
179.0858	14	C14H11+
181.0646	1	C13H9O+
181.1015	4	C14H13+
186.0667	1	C12H10O2+
189.0912	6	C12H13O2+
193.1009	1	C15H13+
197.0964	112	C14H13O+
199.0756	71	C13H11O2+
203.1069	19	C13H15O2+
207.0808	23	C15H11O+
209.0963	98	C15H13O+
210.0679	5	C14H10O2+
211.0751	1	C14H11O2+
211.1123	2	C15H15O+
213.0912	428	C14H13O2+
216.1021	3	C13H14NO2+
220.1124	5	C16H14N+
221.0963	7	C16H13O+
225.0912	777	C15H13O2+
227.107	6	C15H15O2+
229.1219	2	C15H17O2+
230.1181	1	C14H16NO2+
231.1017	778	C14H15O3+
238.1229	8	C16H16NO+
239.1069	25	C16H15O2+
241.1226	7	C16H17O2+
242.0937	6	C15H14O3+
245.1174	14	C15H17O3+
253.1227	12	C17H17O2+
255.1256	16	C16H17NO2+
257.1175	49	C16H17O3+
270.1491	999	C17H20NO2+
