Mass spectrum: (-)-Strychnine; LC-ESI-ITFT; MS2; CE: 95%; R=15000; [M+H]+
Name: (-)-Strychnine
Name: Strychnine
Name: (4aR,5aS,8aR,13aS,15aS,15bR)-4a,5,5a,7,8,13a,15,15a,15b,16-decahydro-2H-4,6-methanoindolo[3,2,1-ij]oxepino[2,3,4-de]pyrrolo[2,3-h]quinolin-14-one
Formula: C21H22N2O2
Exact mass: 334.1681
SMILES: c1ccc2c(c1)[C@]34CCN5[C@H]3C[C@@H]6[C@@H]7[C@@H]4N2C(=O)C[C@@H]7OCC=C6C5
InChI: InChI=1S/C21H22N2O2/c24-18-10-16-19-13-9-17-21(6-7-22(17)11-12(13)5-8-25-16)14-3-1-2-4-15(14)23(18)20(19)21/h1-5,13,16-17,19-20H,6-11H2/t13-,16-,17-,19-,20-,21+/m0/s1
Instrument: LTQ Orbitrap XL Thermo Scientific
Instrument type: LC-ESI-ITFT
Ms type: MS2
Ion mode: POSITIVE
Ionization: ESI
Fragmentation mode: HCD
Collision energy: 95% (nominal)
Resolution: 15000
Column name: Kinetex Evo C18 2.6 um 50 x 2.1 mm
Retention time: 3.141 min
Base peak: 143.0015
Precursor m/z: 335.1754
Precursor type: [M+H]+
m/z	relative intensity	assigned
79.0542	62	C6H7+
80.0495	29	C5H6N+
81.0699	73	C6H9+
91.0543	93	C7H7+
93.0574	45	C6H7N+
93.0699	47	C7H9+
94.065	27	C6H8N+
95.0492	26	C6H7O+
96.0807	27	C6H10N+
105.0449	20	C6H5N2+
105.0702	41	C8H9+
106.0651	52	C7H8N+
107.0853	15	C8H11+
108.0808	50	C7H10N+
115.0545	22	C9H7+
117.0698	21	C9H9+
121.0653	30	C8H9O+
122.06	24	C7H8NO+
124.0758	25	C7H10NO+
128.0617	20	C10H8+
129.0699	321	C10H9+
130.0652	87	C9H8N+
132.0448	27	C8H6NO+
132.0812	20	C9H10N+
142.0652	16	C10H8N+
143.0729	31	C10H9N+
144.0808	219	C10H10N+
154.0652	69	C11H8N+
155.0732	36	C11H9N+
156.0809	999	C11H10N+
166.0654	53	C12H8N+
167.0729	84	C12H9N+
168.0808	139	C12H10N+
169.0763	27	C11H9N2+
170.0604	28	C11H8NO+
170.0966	85	C12H12N+
171.0921	36	C11H11N2+
180.081	82	C13H10N+
181.0889	39	C13H11N+
182.0963	85	C13H12N+
183.0684	32	C12H9NO+
184.0758	676	C12H10NO+
192.0809	38	C14H10N+
193.0883	44	C14H11N+
194.0606	30	C13H8NO+
194.0964	184	C14H12N+
196.0754	48	C13H10NO+
198.091	53	C13H12NO+
204.081	68	C15H10N+
205.0889	55	C15H11N+
206.0961	89	C15H12N+
207.1043	18	C15H13N+
217.0884	78	C16H11N+
218.0963	105	C16H12N+
219.1035	34	C16H13N+
220.0756	116	C15H10NO+
220.1121	72	C16H14N+
222.0913	89	C15H12NO+
230.0969	38	C17H12N+
231.1047	28	C17H13N+
232.1127	44	C17H14N+
234.0913	67	C16H12NO+
234.1271	29	C17H16N+
244.1128	25	C18H14N+
246.0917	37	C17H12NO+
246.1281	29	C18H16N+
248.1072	43	C17H14NO+
262.1223	20	C18H16NO+
272.1072	23	C19H14NO+
335.1764	44	C21H23N2O2+
