Mass spectrum: 6-beta-Hydroxycortisol; LC-ESI-ITFT; MS2; CE: 120%; R=15000; [M+H]+
Name: 6-beta-Hydroxycortisol
Name: 6beta-Hydroxycortisol
Name: (6R,8S,9S,10R,11S,13S,14S,17R)-6,11,17-trihydroxy-17-(2-hydroxyacetyl)-10,13-dimethyl-2,6,7,8,9,11,12,14,15,16-decahydro-1H-cyclopenta[a]phenanthren-3-one
Formula: C21H30O6
Exact mass: 378.2042
SMILES: C[C@]12C[C@H](O)[C@H]3[C@@H](C[C@@H](O)C4=CC(=O)CC[C@]34C)[C@@H]1CC[C@]2(O)C(=O)CO
InChI: InChI=1S/C21H30O6/c1-19-5-3-11(23)7-14(19)15(24)8-12-13-4-6-21(27,17(26)10-22)20(13,2)9-16(25)18(12)19/h7,12-13,15-16,18,22,24-25,27H,3-6,8-10H2,1-2H3/t12-,13-,15+,16-,18+,19-,20-,21-/m0/s1
Instrument: LTQ Orbitrap XL Thermo Scientific
Instrument type: LC-ESI-ITFT
Ms type: MS2
Ion mode: POSITIVE
Ionization: ESI
Fragmentation mode: HCD
Collision energy: 120 % (nominal)
Resolution: 15000
Column name: Kinetex Evo C18 2.6 um 50 x 2.1 mm
Retention time: 6.511 min
Base peak: 379.2119
Precursor m/z: 379.2115
Precursor type: [M+H]+
m/z	relative intensity	assigned
55.0541	171	C4H7+
67.0543	69	C5H7+
77.0386	137	C6H5+
79.0544	342	C6H7+
81.0703	157	C6H9+
91.0545	999	C7H7+
93.07	181	C7H9+
95.0494	98	C6H7O+
103.0543	161	C8H7+
105.045	327	C6H5N2+
105.0702	476	C8H9+
107.0494	122	C7H7O+
115.0546	330	C9H7+
116.0624	150	C9H8+
117.0703	209	C9H9+
128.0623	449	C10H8+
129.0701	408	C10H9+
141.0701	459	C11H9+
142.0779	229	C11H10+
143.0859	150	C11H11+
152.0625	109	C12H8+
153.0701	304	C12H9+
155.0605	115	C10H7N2+
155.086	169	C12H11+
165.0701	483	C13H9+
166.0782	140	C13H10+
167.0859	220	C13H11+
178.0781	182	C14H10+
179.0861	206	C14H11+
191.0862	154	C15H11+
