Mass spectrum: Cevadine; LC-ESI-ITFT; MS2; CE: 80%; R=15000; [M+H]+
Name: Cevadine
Name: Veratrine
Name: [(1R,2S,6S,9S,10R,11S,12S,14R,15S,18S,19S,22S,23S,25R)-1,10,11,12,14,23-hexahydroxy-6,10,19-trimethyl-24-oxa-4-azaheptacyclo[12.12.0.02,11.04,9.015,25.018,23.019,25]hexacosan-22-yl] (Z)-2-methylbut-2-enoate
Formula: C32H49NO9
Exact mass: 591.3407
SMILES: C/C=C(/C)\C(=O)O[C@H]1CC[C@]2([C@H]3[C@@]1(O[C@@]24C[C@]5([C@@H]6CN7C[C@H](CC[C@H]7[C@@]([C@]6([C@H](C[C@]5([C@@H]4CC3)O)O)O)(C)O)C)O)O)C
InChI: InChI=1S/C32H49NO9/c1-6-18(3)25(35)41-24-11-12-26(4)19-8-9-20-28(37)13-23(34)31(39)21(29(28,38)16-30(20,26)42-32(19,24)40)15-33-14-17(2)7-10-22(33)27(31,5)36/h6,17,19-24,34,36-40H,7-16H2,1-5H3/b18-6-/t17-,19-,20-,21-,22-,23-,24-,26-,27+,28+,29+,30+,31-,32-/m0/s1
Instrument: LTQ Orbitrap XL Thermo Scientific
Instrument type: LC-ESI-ITFT
Ms type: MS2
Ion mode: POSITIVE
Ionization: ESI
Fragmentation mode: HCD
Collision energy: 80% (nominal)
Resolution: 15000
Column name: Kinetex Evo C18 2.6 um 50 x 2.1 mm
Retention time: 9.283 min
Base peak: 592.3471
Precursor m/z: 592.348
Precursor type: [M+H]+
m/z	relative intensity	assigned
55.054	145	C4H7+
69.0699	24	C5H9+
70.065	15	C4H8N+
79.0543	26	C6H7+
81.0334	8	C5H5O+
81.0698	59	C6H9+
82.0651	33	C5H8N+
83.049	326	C5H7O+
84.0807	47	C5H10N+
91.0542	20	C7H7+
93.0698	36	C7H9+
94.065	24	C6H8N+
95.0854	23	C7H11+
96.0807	104	C6H10N+
97.065	9	C6H9O+
98.0963	259	C6H12N+
105.0698	43	C8H9+
107.0855	24	C8H11+
108.0807	35	C7H10N+
109.0647	67	C7H9O+
110.0964	127	C7H12N+
111.1042	22	C7H13N+
112.112	39	C7H14N+
117.0696	16	C9H9+
119.0855	36	C9H11+
120.0807	33	C8H10N+
121.0647	39	C8H9O+
121.0888	9	C8H11N+
122.0603	13	C7H8NO+
122.0962	57	C8H12N+
124.1119	192	C8H14N+
125.1197	73	C8H15N+
126.0912	21	C7H12NO+
126.1276	180	C8H16N+
128.1067	20	C7H14NO+
129.0694	8	C10H9+
131.0855	45	C10H11+
132.0804	59	C9H10N+
133.0645	18	C9H9O+
133.0887	11	C9H11N+
133.1011	34	C10H13+
134.0962	46	C9H12N+
136.112	127	C9H14N+
137.1197	33	C9H15N+
138.1276	999	C9H16N+
140.1067	11	C8H14NO+
143.0854	39	C11H11+
145.0644	13	C10H9O+
145.1013	24	C11H13+
146.0962	77	C10H12N+
147.0799	13	C10H11O+
147.1039	42	C10H13N+
148.1118	202	C10H14N+
149.096	12	C10H13O+
149.1194	63	C10H15N+
150.1275	225	C10H16N+
152.1069	43	C9H14NO+
154.1225	119	C9H16NO+
155.0854	32	C12H11+
157.1011	34	C12H13+
158.0962	14	C11H12N+
159.0797	27	C11H11O+
159.1035	11	C11H13N+
160.1119	119	C11H14N+
161.0957	23	C11H13O+
161.1197	96	C11H15N+
162.1276	670	C11H16N+
164.1068	82	C10H14NO+
164.1432	591	C11H18N+
165.1142	15	C10H15NO+
166.1222	14	C10H16NO+
167.0852	9	C13H11+
169.1014	24	C13H13+
171.0798	21	C12H11O+
171.1167	13	C13H15+
173.096	12	C12H13O+
173.1192	14	C12H15N+
174.1276	357	C12H16N+
175.135	84	C12H17N+
176.1068	72	C11H14NO+
176.1431	66	C12H18N+
177.1145	36	C11H15NO+
177.149	7	C9H21O3+
178.1224	139	C11H16NO+
179.1308	18	C11H17NO+
180.1381	126	C11H18NO+
181.101	25	C14H13+
182.1171	12	C10H16NO2+
183.0801	10	C13H11O+
183.1166	23	C14H15+
185.096	24	C13H13O+
186.1274	47	C13H16N+
187.1115	9	C13H15O+
187.1351	17	C13H17N+
188.1431	794	C13H18N+
189.1147	13	C12H15NO+
190.1224	252	C12H16NO+
190.1587	39	C13H20N+
191.1304	156	C12H17NO+
192.1381	269	C12H18NO+
193.1009	9	C15H13+
193.146	127	C12H19NO+
195.1163	17	C15H15+
197.0961	14	C14H13O+
199.1111	10	C14H15O+
200.1429	21	C14H18N+
204.138	124	C13H18NO+
206.1178	11	C12H16NO2+
206.1536	142	C13H20NO+
208.1693	413	C13H22NO+
211.1111	16	C15H15O+
212.1432	28	C15H18N+
214.1595	11	C15H20N+
215.1295	9	C14H17NO+
216.1384	40	C14H18NO+
218.1534	19	C14H20NO+
220.1332	16	C13H18NO2+
223.1112	8	C16H15O+
228.1383	19	C15H18NO+
230.1542	11	C15H20NO+
234.1485	43	C14H20NO2+
242.1539	19	C16H20NO+
244.133	20	C15H18NO2+
250.1587	21	C18H20N+
260.164	35	C16H22NO2+
262.1439	30	C15H20NO3+
263.1519	18	C15H21NO3+
264.1596	10	C15H22NO3+
264.1747	14	C19H22N+
266.1542	12	C18H20NO+
266.1904	14	C19H24N+
268.1701	11	C18H22NO+
280.1537	10	C15H22NO4+
280.1692	21	C19H22NO+
281.1619	20	C15H23NO4+
294.1849	19	C20H24NO+
304.2059	15	C22H26N+
362.2101	14	C21H30O5+
378.2427	26	C25H32NO2+
390.2062	13	C25H28NO3+
392.2585	23	C26H34NO2+
396.2524	9	C25H34NO3+
402.2434	35	C27H32NO2+
403.2425	9	C31H31+
404.2224	19	C26H30NO3+
406.2373	8	C26H32NO3+
410.2696	13	C26H36NO3+
420.2528	94	C27H34NO3+
438.2631	129	C27H36NO4+
440.2423	38	C26H34NO5+
441.2464	13	C23H37O8+
454.2576	24	C27H36NO5+
456.2733	120	C27H38NO5+
