Mass spectrum: Pilocarpine; LC-ESI-ITFT; MS2; CE: 70%; R=15000; [M+H]+
Name: Pilocarpine
Name: (3S,4R)-3-ethyl-4-[(3-methylimidazol-4-yl)methyl]oxolan-2-one
Formula: C11H16N2O2
Exact mass: 208.1212
SMILES: CC[C@H]1[C@H](COC1=O)Cc2cncn2C
InChI: InChI=1S/C11H16N2O2/c1-3-10-8(6-15-11(10)14)4-9-5-12-7-13(9)2/h5,7-8,10H,3-4,6H2,1-2H3/t8-,10-/m0/s1
Instrument: LTQ Orbitrap XL Thermo Scientific
Instrument type: LC-ESI-ITFT
Ms type: MS2
Ion mode: POSITIVE
Ionization: ESI
Fragmentation mode: HCD
Collision energy: 70% (nominal)
Resolution: 15000
Column name: Kinetex Evo C18 2.6 um 50 x 2.1 mm
Retention time: 0.631 min
Base peak: 209.1281
Precursor m/z: 209.1285
Precursor type: [M+H]+
m/z	relative intensity	assigned
68.0493	4	C4H6N+
80.0493	8	C5H6N+
81.0697	4	C6H9+
83.0604	15	C4H7N2+
94.0652	44	C6H8N+
95.0604	693	C5H7N2+
95.073	39	C6H9N+
96.0682	919	C5H8N2+
97.076	29	C5H9N2+
97.101	5	C7H13+
107.0731	10	C7H9N+
108.081	5	C7H10N+
109.076	69	C6H9N2+
121.076	171	C7H9N2+
122.0839	63	C7H10N2+
122.0964	55	C8H12N+
123.0917	37	C7H11N2+
132.081	6	C9H10N+
133.076	25	C8H9N2+
134.0838	26	C8H10N2+
135.0917	66	C8H11N2+
136.1122	22	C9H14N+
138.1272	5	C9H16N+
139.0868	15	C7H11N2O+
147.0917	22	C9H11N2+
148.0998	25	C9H12N2+
149.1072	11	C9H13N2+
151.123	43	C9H15N2+
161.1074	9	C10H13N2+
162.0793	5	C9H10N2O+
163.123	353	C10H15N2+
165.1387	12	C10H17N2+
181.0973	4	C9H13N2O2+
181.1336	16	C10H17N2O+
182.1174	5	C10H16NO2+
191.1179	23	C11H15N2O+
209.1284	999	C11H17N2O2+
