Mass spectrum: Alpinetin; LC-ESI-ITFT; MS2; CE: 55%; R=15000; [M+H]+
Name: Alpinetin
Formula: C16H14O4
Exact mass: 270.0892
SMILES: COC1=C2C(=O)CC(OC2=CC(=C1)O)C3=CC=CC=C3
InChI: InChI=1S/C16H14O4/c1-19-14-7-11(17)8-15-16(14)12(18)9-13(20-15)10-5-3-2-4-6-10/h2-8,13,17H,9H2,1H3
Instrument: LTQ Orbitrap XL Thermo Scientific
Instrument type: LC-ESI-ITFT
Ms type: MS2
Ion mode: POSITIVE
Ionization: ESI
Fragmentation mode: CID
Collision energy: 55 % (nominal)
Resolution: 15000
Column name: Kinetex Evo C18 2.6 um 50x2.1 mm, Phenomenex
Retention time: 10.452 min
Base peak: 271.0962
Precursor m/z: 271.0965
Precursor type: [M+H]+
m/z	relative intensity	assigned
103.0542	4	C8H7+
131.0492	49	C9H7O+
152.0101	1	C7H4O4+
165.0551	1	C9H9O3+
167.034	999	C8H7O4+
201.0907	1	C13H13O2+
203.1067	3	C13H15O2+
225.0908	1	C15H13O2+
229.0861	84	C14H13O3+
239.0701	2	C15H11O3+
253.0861	11	C16H13O3+
