Mass spectrum: Citrinin; LC-ESI-ITFT; MS2; CE: 55%; R=15000; [M+H]+
Name: Citrinin
Formula: C13H14O5
Exact mass: 250.0841
SMILES: C[C@H]1OC=C2C(O)=C(C(O)=O)C(=O)C(C)=C2[C@@H]1C
InChI: InChI=1S/C13H14O5/c1-5-7(3)18-4-8-9(5)6(2)11(14)10(12(8)15)13(16)17/h4-5,7,15H,1-3H3,(H,16,17)/t5-,7-/m1/s1
Instrument: LTQ Orbitrap XL Thermo Scientific
Instrument type: LC-ESI-ITFT
Ms type: MS2
Ion mode: POSITIVE
Ionization: ESI
Fragmentation mode: HCD
Collision energy: 55 % (nominal)
Resolution: 15000
Column name: Kinetex Evo C18 2.6 um 50 x 2.1 mm
Retention time: 11.923 min
Base peak: 251.0912
Precursor m/z: 251.0914
Precursor type: [M+H]+
m/z	relative intensity	assigned
83.0128	2	C4H3O2+
91.0543	8	C7H7+
93.0699	2	C7H9+
95.0856	14	C7H11+
105.07	3	C8H9+
107.0492	3	C7H7O+
107.0855	5	C8H11+
109.1012	5	C8H13+
119.0855	33	C9H11+
121.065	3	C8H9O+
121.1018	2	C9H13+
123.0804	11	C8H11O+
131.0855	13	C10H11+
135.0804	8	C9H11O+
137.0961	31	C9H13O+
145.0647	3	C10H9O+
147.0805	67	C10H11O+
149.0595	3	C9H9O2+
149.096	7	C10H13O+
159.0806	12	C11H11O+
162.0673	3	C10H10O2+
163.0393	2	C9H7O3+
163.0753	13	C10H11O2+
165.0914	4	C10H13O2+
169.0647	5	C12H9O+
177.0184	8	C9H5O4+
177.0549	2	C10H9O3+
177.091	9	C11H13O2+
187.0754	15	C12H11O2+
189.0543	2	C11H9O3+
190.0622	3	C11H10O3+
191.0703	117	C11H11O3+
203.0341	6	C11H7O4+
203.0705	2	C12H11O3+
204.042	7	C11H8O4+
205.086	144	C12H13O3+
209.0808	18	C11H13O4+
215.0703	55	C13H11O3+
218.0572	17	C12H10O4+
231.0656	2	C13H11O4+
233.0808	999	C13H13O4+
251.0913	54	C13H15O5+
