Mass spectrum: Cytisin; LC-ESI-ITFT; MS2; CE: 75%; R=15000; [M+H]+
Name: Cytisin
Name: Cytisine
Name: (1R,9S)-7,11-diazatricyclo[7.3.1.02,7]trideca-2,4-dien-6-one
Formula: C11H14N2O
Exact mass: 190.1106
SMILES: C1[C@H]2CNC[C@@H]1C3=CC=CC(=O)N3C2
InChI: InChI=1S/C11H14N2O/c14-11-3-1-2-10-9-4-8(5-12-6-9)7-13(10)11/h1-3,8-9,12H,4-7H2/t8-,9+/m0/s1
Instrument: LTQ Orbitrap XL Thermo Scientific
Instrument type: LC-ESI-ITFT
Ms type: MS2
Ion mode: POSITIVE
Ionization: ESI
Fragmentation mode: HCD
Collision energy: 75% (nominal)
Resolution: 15000
Column name: Kinetex Evo C18 2.6 um 50 x 2.1 mm
Retention time: 0.463 min
Base peak: 226.9511
Precursor m/z: 191.1179
Precursor type: [M+H]+
m/z	relative intensity	assigned
70.065	13	C4H8N+
82.0652	27	C5H8N+
133.0519	17	C8H7NO+
134.0598	24	C8H8NO+
147.0677	18	C9H9NO+
148.0757	999	C9H10NO+
162.0915	58	C10H12NO+
191.1179	610	C11H15N2O+
