Mass spectrum: Pterosin B; LC-ESI-ITFT; MS2; CE: 30%; R=15000; [M+H]+
Name: Pterosin B
Name: (2R)-6-(2-hydroxyethyl)-2,5,7-trimethyl-2,3-dihydroinden-1-one
Formula: C14H18O2
Exact mass: 218.1307
SMILES: C[C@@H]1CC2=C(C1=O)C(=C(C(=C2)C)CCO)C
InChI: InChI=1S/C14H18O2/c1-8-6-11-7-9(2)14(16)13(11)10(3)12(8)4-5-15/h6,9,15H,4-5,7H2,1-3H3/t9-/m1/s1
Instrument: LTQ Orbitrap XL Thermo Scientific
Instrument type: LC-ESI-ITFT
Ms type: MS2
Ion mode: POSITIVE
Ionization: ESI
Fragmentation mode: CID
Collision energy: 30 % (nominal)
Resolution: 15000
Column name: Kinetex Evo C18 2.6 um 50 x 2.1 mm
Retention time: 10.388 min
Base peak: 219.1376
Precursor m/z: 219.138
Precursor type: [M+H]+
m/z	relative intensity	assigned
131.0858	1	C10H11+
145.1013	5	C11H13+
149.0962	2	C10H13O+
155.0857	3	C12H11+
157.1014	1	C12H13+
159.1169	5	C12H15+
163.1118	6	C11H15O+
168.0934	5	C13H12+
171.1171	1	C13H15+
173.0961	5	C12H13O+
173.1326	24	C13H17+
183.1169	42	C14H15+
186.104	1	C13H14O+
191.1432	8	C13H19O+
199.1119	11	C14H15O+
201.1274	999	C14H17O+
219.138	160	C14H19O2+
