Mass spectrum: Pterosin A; LC-ESI-ITFT; MS2; CE: 50%; R=15000; [M+H]+
Name: Pterosin A
Name: (2S)-6-(2-hydroxyethyl)-2-(hydroxymethyl)-2,5,7-trimethyl-3H-inden-1-one
Formula: C15H20O3
Exact mass: 248.1412
SMILES: CC1=CC2=C(C(=C1CCO)C)C(=O)[C@](C2)(C)CO
InChI: InChI=1S/C15H20O3/c1-9-6-11-7-15(3,8-17)14(18)13(11)10(2)12(9)4-5-16/h6,16-17H,4-5,7-8H2,1-3H3/t15-/m0/s1
Instrument: LTQ Orbitrap XL Thermo Scientific
Instrument type: LC-ESI-ITFT
Ms type: MS2
Ion mode: POSITIVE
Ionization: ESI
Fragmentation mode: HCD
Collision energy: 50 % (nominal)
Resolution: 15000
Column name: Kinetex Evo C18 2.6 um 50 x 2.1 mm
Retention time: 9.273 min
Base peak: 249.1476
Precursor m/z: 249.1485
Precursor type: [M+H]+
m/z	relative intensity	assigned
133.101	22	C10H13+
142.0775	16	C11H10+
143.0852	32	C11H11+
145.1009	10	C11H13+
155.0854	14	C12H11+
156.0931	33	C12H12+
157.1009	179	C12H13+
159.1166	17	C12H15+
163.1115	37	C11H15O+
170.1088	261	C13H14+
172.0877	10	C12H12O+
173.1319	18	C13H17+
183.1166	6	C14H15+
185.1321	999	C14H17+
195.117	7	C15H15+
198.1036	24	C14H14O+
201.1275	28	C14H17O+
203.1427	939	C14H19O+
213.1271	122	C15H17O+
231.1375	251	C15H19O2+
249.1479	15	C15H21O3+
