Mass spectrum: Yohimbine; LC-ESI-ITFT; MS2; CE: 25%; R=15000; [M+H]+
Name: Yohimbine
Name: methyl (1S,15R,18S,19R,20S)-18-hydroxy-1,3,11,12,14,15,16,17,18,19,20,21-dodecahydroyohimban-19-carboxylate
Formula: C21H26N2O3
Exact mass: 354.1943
SMILES: COC(=O)[C@H]1[C@H](CC[C@@H]2[C@@H]1C[C@H]3c4c(c5ccccc5[nH]4)CCN3C2)O
InChI: InChI=1S/C21H26N2O3/c1-26-21(25)19-15-10-17-20-14(13-4-2-3-5-16(13)22-20)8-9-23(17)11-12(15)6-7-18(19)24/h2-5,12,15,17-19,22,24H,6-11H2,1H3/t12-,15-,17-,18-,19+/m0/s1
Instrument: LTQ Orbitrap XL Thermo Scientific
Instrument type: LC-ESI-ITFT
Ms type: MS2
Ion mode: POSITIVE
Ionization: ESI
Fragmentation mode: HCD
Collision energy: 25% (nominal)
Resolution: 15000
Column name: Kinetex Evo C18 2.6 um 50 x 2.1 mm
Retention time: 6.524 min
Base peak: 355.2016
Precursor m/z: 355.2016
Precursor type: [M+H]+
m/z	relative intensity	assigned
144.0807	31	C10H10N+
212.128	31	C11H18NO3+
224.1282	5	C12H18NO3+
285.0088	2	C20HN2O+
326.1756	1	C20H24NO3+
355.2015	999	C21H27N2O3+
