Mass spectrum: Senecionine N-oxide; LC-ESI-ITFT; MS2; CE: 65%; R=15000; [M+H]+
Name: Senecionine N-oxide
Name: (1R,4Z,6R,7R,17R)-4-ethylidene-7-hydroxy-6,7-dimethyl-14-oxido-2,9-dioxa-14-azoniatricyclo[9.5.1.014,17]heptadec-11-ene-3,8-dione
Formula: C18H25NO6
Exact mass: 351.1682
SMILES: C/C=C\1/C[C@H]([C@@](C(=O)OCC2=CC[N+]3([C@H]2[C@@H](CC3)OC1=O)[O-])(C)O)C
InChI: InChI=1S/C18H25NO6/c1-4-12-9-11(2)18(3,22)17(21)24-10-13-5-7-19(23)8-6-14(15(13)19)25-16(12)20/h4-5,11,14-15,22H,6-10H2,1-3H3/b12-4-/t11-,14-,15-,18-,19?/m1/s1
Instrument: LTQ Orbitrap XL Thermo Scientific
Instrument type: LC-ESI-ITFT
Ms type: MS2
Ion mode: POSITIVE
Ionization: ESI
Fragmentation mode: HCD
Collision energy: 65% (nominal)
Resolution: 15000
Column name: Kinetex Evo C18 2.6 um 50 x 2.1 mm
Retention time: 5.378 min
Base peak: 352.1755
Precursor m/z: 352.1755
Precursor type: [M+H]+
m/z	relative intensity	assigned
53.0384	24	C4H5+
67.0542	21	C5H7+
68.0494	12	C4H6N+
79.0542	61	C6H7+
80.0495	92	C5H6N+
81.0335	18	C5H5O+
81.0573	24	C5H7N+
81.0699	180	C6H9+
82.0652	30	C5H8N+
83.0492	20	C5H7O+
84.0445	25	C4H6NO+
91.0543	47	C7H7+
92.0498	10	C6H6N+
93.0573	466	C6H7N+
94.0651	661	C6H8N+
95.073	296	C6H9N+
96.0444	8	C5H6NO+
96.0807	15	C6H10N+
98.0601	44	C5H8NO+
101.0599	8	C5H9O2+
106.0651	176	C7H8N+
107.049	17	C7H7O+
107.073	12	C7H9N+
107.0855	88	C8H11+
108.0808	198	C7H10N+
109.0647	39	C7H9O+
109.0886	60	C7H11N+
109.1012	26	C8H13+
110.06	24	C6H8NO+
111.0679	24	C6H9NO+
112.0757	66	C6H10NO+
118.0652	655	C8H8N+
119.073	494	C8H9N+
120.0808	771	C8H10N+
121.0886	95	C8H11N+
122.0964	153	C8H12N+
124.0758	24	C7H10NO+
125.0962	79	C8H13O+
126.0911	21	C7H12NO+
134.0963	8	C9H12N+
135.0805	23	C9H11O+
136.0757	999	C8H10NO+
137.0596	7	C8H9O2+
137.0835	70	C8H11NO+
137.0958	10	C9H13O+
138.0914	359	C8H12NO+
139.0754	83	C8H11O2+
146.0963	8	C10H12N+
148.112	20	C10H14N+
152.1071	33	C9H14NO+
153.091	79	C9H13O2+
154.0863	118	C8H12NO2+
164.1068	22	C10H14NO+
167.1068	23	C10H15O2+
178.1226	44	C11H16NO+
190.1224	19	C12H16NO+
192.1387	9	C12H18NO+
211.1325	24	C12H19O3+
218.1176	29	C13H16NO2+
218.1538	12	C14H20NO+
220.1333	83	C13H18NO2+
246.1491	22	C15H20NO2+
254.1378	11	C13H20NO4+
324.1809	29	C17H26NO5+
352.1758	79	C18H26NO6+
