Mass spectrum: 4-Hydroxycoumarin; LC-ESI-ITFT; MS2; CE: 80%; R=15000; [M+H]+
Name: 4-Hydroxycoumarin
Name: 4-hydroxychromen-2-one
Formula: C9H6O3
Exact mass: 162.0317
SMILES: OC1=CC(=O)OC2=CC=CC=C12
InChI: InChI=1S/C9H6O3/c10-7-5-9(11)12-8-4-2-1-3-6(7)8/h1-5,10H
Instrument: LTQ Orbitrap XL Thermo Scientific
Instrument type: LC-ESI-ITFT
Ms type: MS2
Ion mode: POSITIVE
Ionization: ESI
Fragmentation mode: HCD
Collision energy: 80 % (nominal)
Resolution: 15000
Column name: Kinetex Evo C18 2.6 um 50 x 2.1 mm
Retention time: 7.999 min
Base peak: 163.0392
Precursor m/z: 163.039
Precursor type: [M+H]+
m/z	relative intensity	assigned
65.0383	72	C5H5+
67.0541	1	C5H7+
68.9969	168	C3HO2+
77.0384	30	C6H5+
79.0541	34	C6H7+
89.0385	5	C7H5+
91.0542	325	C7H7+
93.0334	71	C6H5O+
95.0491	166	C6H7O+
101.0385	1	C8H5+
105.0447	11	C6H5N2+
107.0491	16	C7H7O+
111.0441	9	C6H7O2+
119.0491	30	C8H7O+
121.0283	999	C7H5O2+
121.0393	62	C6H5N2O+
129.0446	8	C8H5N2+
139.0389	6	C7H7O3+
145.0282	6	C9H5O2+
163.0388	342	C9H7O3+
