Mass spectrum: (+)-Sparteine; LC-ESI-ITFT; MS2; CE: 115%; R=15000; [M+H]+
Name: (+)-Sparteine
Formula: C15H26N2
Exact mass: 234.2096
SMILES: C1CCN2C[C@H]3C[C@@H]([C@H]2C1)CN4[C@H]3CCCC4
InChI: InChI=1S/C15H26N2/c1-3-7-16-11-13-9-12(14(16)5-1)10-17-8-4-2-6-15(13)17/h12-15H,1-11H2/t12-,13-,14-,15+/m1/s1
Instrument: LTQ Orbitrap XL Thermo Scientific
Instrument type: LC-ESI-ITFT
Ms type: MS2
Ion mode: POSITIVE
Ionization: ESI
Fragmentation mode: HCD
Collision energy: 115 % (nominal)
Resolution: 15000
Column name: Kinetex Evo C18 2.6 um 50 x 2.1 mm
Retention time: 0.540 min
Base peak: 235.2166
Precursor m/z: 235.2169
Precursor type: [M+H]+
m/z	relative intensity	assigned
55.0541	3	C4H7+
67.0542	7	C5H7+
70.0651	41	C4H8N+
79.0543	5	C6H7+
81.07	4	C6H9+
82.0654	4	C5H8N+
84.0807	100	C5H10N+
91.0543	3	C7H7+
96.0808	14	C6H10N+
98.0964	999	C6H12N+
105.0703	2	C8H9+
108.0805	3	C7H10N+
110.0964	10	C7H12N+
122.0966	5	C8H12N+
124.112	4	C8H14N+
134.0967	9	C9H12N+
136.1123	5	C9H14N+
148.112	4	C10H14N+
150.1276	30	C10H16N+
152.1432	13	C10H18N+
233.2011	12	C15H25N2+
235.2167	53	C15H27N2+
