Mass spectrum: Retrorsine N-oxide; LC-ESI-ITFT; MS2; CE: 50%; R=15000; [M+H]+
Name: Retrorsine N-oxide
Name: Unii-51819grv4U
Name: (1R,4Z,6R,7S,14S,17R)-4-ethylidene-7-hydroxy-7-(hydroxymethyl)-6-methyl-14-oxido-2,9-dioxa-14-azoniatricyclo[9.5.1.014,17]heptadec-11-ene-3,8-dione
Formula: C18H25NO7
Exact mass: 367.1631
SMILES: C/C=C\1/C[C@H]([C@@](C(=O)OCC2=CC[N@@+]3([C@H]2[C@@H](CC3)OC1=O)[O-])(CO)O)C
InChI: InChI=1S/C18H25NO7/c1-3-12-8-11(2)18(23,10-20)17(22)25-9-13-4-6-19(24)7-5-14(15(13)19)26-16(12)21/h3-4,11,14-15,20,23H,5-10H2,1-2H3/b12-3-/t11-,14-,15-,18-,19-/m1/s1
Instrument: LTQ Orbitrap XL Thermo Scientific
Instrument type: LC-ESI-ITFT
Ms type: MS2
Ion mode: POSITIVE
Ionization: ESI
Fragmentation mode: HCD
Collision energy: 50% (nominal)
Resolution: 15000
Column name: Kinetex Evo C18 2.6 um 50 x 2.1 mm
Retention time: 2.062 min
Base peak: 143.0015
Precursor m/z: 368.1704
Precursor type: [M+H]+
m/z	relative intensity	assigned
53.0386	9	C4H5+
67.0541	10	C5H7+
79.0542	24	C6H7+
80.0496	32	C5H6N+
81.0699	85	C6H9+
82.0652	9	C5H8N+
83.0488	8	C5H7O+
84.0445	9	C4H6NO+
91.0543	25	C7H7+
93.0573	164	C6H7N+
94.0652	203	C6H8N+
95.073	280	C6H9N+
95.0857	25	C7H11+
98.0602	18	C5H8NO+
106.0652	106	C7H8N+
107.049	17	C7H7O+
107.0859	10	C8H11+
108.0808	78	C7H10N+
109.0648	39	C7H9O+
109.0886	28	C7H11N+
110.0601	12	C6H8NO+
112.0758	49	C6H10NO+
118.0652	527	C8H8N+
119.073	467	C8H9N+
120.0808	516	C8H10N+
121.0886	255	C8H11N+
122.0965	131	C8H12N+
123.0804	65	C8H11O+
124.076	14	C7H10NO+
125.0963	11	C8H13O+
136.0757	520	C8H10NO+
137.0597	16	C8H9O2+
137.0835	106	C8H11NO+
138.0914	336	C8H12NO+
139.0753	29	C8H11O2+
139.0991	13	C8H13NO+
140.1071	15	C8H14NO+
151.0754	39	C9H11O2+
152.1068	25	C9H14NO+
154.0863	182	C8H12NO2+
169.0859	43	C9H13O3+
178.1227	51	C11H16NO+
218.1179	26	C13H16NO2+
218.1545	13	C14H20NO+
220.1332	233	C13H18NO2+
227.1277	36	C12H19O4+
236.1275	8	C13H18NO3+
246.149	74	C15H20NO2+
248.1647	34	C15H22NO2+
270.1333	13	C13H20NO5+
292.1547	20	C16H22NO4+
306.1698	22	C17H24NO4+
320.1501	16	C17H22NO5+
338.1587	16	C17H24NO6+
340.176	91	C17H26NO6+
368.1706	999	C18H26NO7+
