Mass spectrum: Artemisinin; LC-ESI-ITFT; MS2; CE: 55%; R=15000; [M+H]+
Name: Artemisinin
Formula: C15H22O5
Exact mass: 282.1467
SMILES: C[C@@H]1CC[C@H]2[C@@H](C)C(=O)O[C@@H]3O[C@@]4(C)CC[C@@H]1[C@@]23OO4
InChI: InChI=1S/C15H22O5/c1-8-4-5-11-9(2)12(16)17-13-15(11)10(8)6-7-14(3,18-13)19-20-15/h8-11,13H,4-7H2,1-3H3/t8-,9-,10+,11+,13-,14-,15-/m1/s1
Instrument: LTQ Orbitrap XL Thermo Scientific
Instrument type: LC-ESI-ITFT
Ms type: MS2
Ion mode: POSITIVE
Ionization: ESI
Fragmentation mode: CID
Collision energy: 55 % (nominal)
Resolution: 15000
Column name: Kinetex Evo C18 2.6 um 50 x 2.1 mm
Retention time: 11.426 min
Base peak: 305.1359
Precursor m/z: 283.154
Precursor type: [M+H]+
m/z	relative intensity	assigned
119.0858	16	C9H11+
125.0962	53	C8H13O+
131.0853	10	C10H11+
133.1015	10	C10H13+
135.0442	25	C8H7O2+
145.1018	14	C11H13+
149.1324	9	C11H17+
157.0861	55	C8H13O3+
161.0963	9	C11H13O+
167.1072	8	C10H15O2+
173.0965	48	C12H13O+
177.1276	29	C12H17O+
179.1068	13	C11H15O2+
191.1069	20	C12H15O2+
201.1277	96	C14H17O+
205.1225	108	C13H17O2+
209.1179	23	C12H17O3+
219.1381	117	C14H19O2+
223.1332	89	C13H19O3+
229.1224	79	C15H17O2+
237.1487	57	C14H21O3+
247.1331	999	C15H19O3+
265.1437	739	C15H21O4+
