Mass spectrum: Colchicine; LC-ESI-ITFT; MS2; CE: 105%; R=15000; [M+H]+
Name: Colchicine
Name: N-[(7S)-1,2,3,10-tetramethoxy-9-oxo-6,7-dihydro-5H-benzo[a]heptalen-7-yl]acetamide
Formula: C22H25NO6
Exact mass: 399.1682
SMILES: CC(=O)N[C@H]1CCC2=CC(=C(C(=C2C3=CC=C(C(=O)C=C13)OC)OC)OC)OC
InChI: InChI=1S/C22H25NO6/c1-12(24)23-16-8-6-13-10-19(27-3)21(28-4)22(29-5)20(13)14-7-9-18(26-2)17(25)11-15(14)16/h7,9-11,16H,6,8H2,1-5H3,(H,23,24)/t16-/m0/s1
Instrument: LTQ Orbitrap XL Thermo Scientific
Instrument type: LC-ESI-ITFT
Ms type: MS2
Ion mode: POSITIVE
Ionization: ESI
Fragmentation mode: HCD
Collision energy: 105% (nominal)
Resolution: 15000
Column name: Kinetex Evo C18 2.6 um 50 x 2.1 mm
Retention time: 9.276 min
Base peak: 400.1752
Precursor m/z: 400.1755
Precursor type: [M+H]+
m/z	relative intensity	assigned
91.0544	154	C7H7+
115.0543	93	C9H7+
128.0621	121	C10H8+
129.0705	96	C10H9+
131.0489	77	C9H7O+
133.0521	230	C8H7NO+
133.0647	70	C9H9O+
137.0596	112	C8H9O2+
139.054	109	C11H7+
141.0701	308	C11H9+
145.065	84	C10H9O+
147.0439	82	C9H7O2+
150.0548	93	C8H8NO2+
152.0624	630	C12H8+
153.07	413	C12H9+
154.0782	119	C12H10+
156.057	161	C11H8O+
160.0751	99	C10H10NO+
161.0601	117	C10H9O2+
165.07	979	C13H9+
166.0779	308	C13H10+
167.0497	76	C12H7O+
167.0856	268	C13H11+
168.0573	246	C12H8O+
168.0808	114	C12H10N+
169.065	556	C12H9O+
171.0802	96	C12H11O+
176.0621	146	C14H8+
177.0703	308	C14H9+
178.0778	462	C14H10+
179.0858	302	C14H11+
180.0569	248	C13H8O+
180.0813	169	C13H10N+
181.0648	999	C13H9O+
182.0728	250	C13H10O+
183.0441	91	C12H7O2+
183.0802	169	C13H11O+
184.0519	195	C12H8O2+
184.0886	114	C13H12O+
185.0596	137	C12H9O2+
189.07	232	C15H9+
190.0775	108	C15H10+
191.0854	146	C15H11+
192.0575	184	C14H8O+
192.0811	120	C14H10N+
193.0648	298	C14H9O+
194.0726	461	C14H10O+
195.0806	519	C14H11O+
196.0523	95	C13H8O2+
196.076	257	C13H10NO+
196.0882	351	C14H12O+
197.0597	597	C13H9O2+
197.0837	247	C13H11NO+
198.0677	227	C13H10O2+
199.0759	117	C13H11O2+
204.0806	100	C15H10N+
205.0646	392	C15H9O+
206.0732	217	C15H10O+
207.0685	96	C14H9NO+
207.0805	267	C15H11O+
208.0524	184	C14H8O2+
208.0755	134	C14H10NO+
208.0885	177	C15H12O+
209.0597	595	C14H9O2+
210.0681	189	C14H10O2+
210.091	132	C14H12NO+
211.0756	261	C14H11O2+
212.0461	137	C13H8O3+
212.0708	105	C13H10NO2+
212.0834	271	C14H12O2+
213.0543	178	C13H9O3+
219.0808	88	C16H11O+
220.0521	186	C15H8O2+
220.0755	145	C15H10NO+
221.0596	391	C15H9O2+
222.0676	293	C15H10O2+
222.0915	122	C15H12NO+
223.0756	438	C15H11O2+
224.0712	79	C14H10NO2+
224.0833	420	C15H12O2+
225.0545	389	C14H9O3+
225.0784	112	C14H11NO2+
227.0698	176	C14H11O3+
234.0911	135	C16H12NO+
235.0755	194	C16H11O2+
236.047	198	C15H8O3+
236.0696	100	C15H10NO2+
237.0548	353	C15H9O3+
237.0785	101	C15H11NO2+
238.0862	134	C15H12NO2+
239.0709	175	C15H11O3+
240.0651	80	C14H10NO3+
240.0784	92	C15H12O3+
240.1009	88	C15H14NO2+
242.0807	98	C14H12NO3+
249.0556	65	C16H9O3+
249.0784	81	C16H11NO2+
250.0856	147	C16H12NO2+
251.0702	253	C16H11O3+
252.0658	74	C15H10NO3+
252.0773	128	C16H12O3+
253.0495	190	C15H9O4+
253.0735	75	C15H11NO3+
264.1006	74	C17H14NO2+
265.0862	95	C17H13O3+
266.0821	129	C16H12NO3+
