Mass spectrum: (+)-Lupanine; LC-ESI-ITFT; MS2; CE: 100%; R=15000; [M+H]+
Name: (+)-Lupanine
Formula: C15H24N2O
Exact mass: 248.1889
SMILES: C1CCN2CC3CC(C2C1)CN4C3CCCC4=O
InChI: InChI=1S/C15H24N2O/c18-15-6-3-5-14-11-8-12(10-17(14)15)13-4-1-2-7-16(13)9-11/h11-14H,1-10H2
Instrument: LTQ Orbitrap XL Thermo Scientific
Instrument type: LC-ESI-ITFT
Ms type: MS2
Ion mode: POSITIVE
Ionization: ESI
Fragmentation mode: HCD
Collision energy: 100 % (nominal)
Resolution: 15000
Column name: Kinetex Evo C18 2.6 um 50 x 2.1 mm
Retention time: 0.596 min
Base peak: 235.2168
Precursor m/z: 249.1961
Precursor type: [M+H]+
m/z	relative intensity	assigned
55.0178	6	C3H3O+
55.0542	15	C4H7+
67.0542	120	C5H7+
68.0495	15	C4H6N+
69.0699	16	C5H9+
70.0651	407	C4H8N+
77.0388	16	C6H5+
79.0542	110	C6H7+
80.0495	208	C5H6N+
81.0572	6	C5H7N+
81.0699	94	C6H9+
82.0652	124	C5H8N+
84.0808	644	C5H10N+
85.0648	152	C5H9O+
91.0542	121	C7H7+
93.0574	13	C6H7N+
93.0699	103	C7H9+
94.0652	110	C6H8N+
95.0729	10	C6H9N+
95.0856	49	C7H11+
96.0808	219	C6H10N+
98.06	81	C5H8NO+
98.0964	397	C6H12N+
100.0757	28	C5H10NO+
105.0699	82	C8H9+
106.065	17	C7H8N+
107.073	12	C7H9N+
107.0855	39	C8H11+
108.0808	138	C7H10N+
109.0886	49	C7H11N+
109.1012	10	C8H13+
110.0603	21	C6H8NO+
110.0964	107	C7H12N+
112.0757	374	C6H10NO+
112.1121	29	C7H14N+
114.0913	312	C6H12NO+
119.0856	28	C9H11+
120.0808	50	C8H10N+
121.0889	7	C8H11N+
121.1011	9	C9H13+
122.0964	167	C8H12N+
124.0758	25	C7H10NO+
124.1121	81	C8H14N+
131.0856	18	C10H11+
133.1012	29	C10H13+
134.0965	244	C9H12N+
135.1042	47	C9H13N+
136.1121	772	C9H14N+
138.0914	15	C8H12NO+
138.128	33	C9H16N+
148.0759	11	C9H10NO+
148.1122	124	C10H14N+
150.0916	41	C9H12NO+
150.1277	662	C10H16N+
152.1071	40	C9H14NO+
152.1434	150	C10H18N+
159.1165	6	C12H15+
162.0914	12	C10H12NO+
162.1277	27	C11H16N+
164.1069	19	C10H14NO+
164.1433	8	C11H18N+
166.1231	16	C10H16NO+
174.1278	20	C12H16N+
176.107	10	C11H14NO+
176.1434	32	C12H18N+
178.1228	6	C11H16NO+
189.1383	30	C12H17N2+
190.1588	15	C13H20N+
204.1381	22	C13H18NO+
206.1541	10	C13H20NO+
218.1537	12	C14H20NO+
220.17	12	C14H22NO+
231.1856	19	C15H23N2+
247.1805	71	C15H23N2O+
249.1961	999	C15H25N2O+
