Mass spectrum: Bergapten/Heraclin; LC-ESI-ITFT; MS2; CE: 85%; R=15000; [M+H]+
Name: Bergapten/Heraclin
Formula: C12H8O4
Exact mass: 216.0423
SMILES: COC1=C2C=COC2=CC2=C1C=CC(=O)O2
InChI: InChI=1S/C12H8O4/c1-14-12-7-2-3-11(13)16-10(7)6-9-8(12)4-5-15-9/h2-6H,1H3
Instrument: LTQ Orbitrap XL Thermo Scientific
Instrument type: LC-ESI-ITFT
Ms type: MS2
Ion mode: POSITIVE
Ionization: ESI
Fragmentation mode: HCD
Collision energy: 85 % (nominal)
Resolution: 15000
Column name: Kinetex Evo C18 2.6 um 50 x 2.1 mm
Retention time: 9.965 min
Base peak: 217.0493
Precursor m/z: 217.0495
Precursor type: [M+H]+
m/z	relative intensity	assigned
79.0543	13	C6H7+
89.0386	48	C7H5+
90.0464	234	C7H6+
91.0542	17	C7H7+
100.0307	17	C8H4+
102.0464	37	C8H6+
103.0541	23	C8H7+
105.0697	25	C8H9+
115.0542	134	C9H7+
117.0696	6	C9H9+
118.0413	450	C8H6O+
128.0257	9	C9H4O+
129.0335	9	C9H5O+
130.0412	17	C9H6O+
131.0491	131	C9H7O+
133.0646	7	C9H9O+
143.0491	8	C10H7O+
145.0285	40	C9H5O2+
146.0362	428	C9H6O2+
156.0206	63	C10H4O2+
158.0363	16	C10H6O2+
161.0594	15	C10H9O2+
173.0232	14	C10H5O3+
174.0311	999	C10H6O3+
202.026	902	C11H6O4+
217.0503	10	C12H9O4+
