Mass spectrum: Umbelliferone; LC-ESI-ITFT; MS2; CE: 40%; R=15000; [M+H]+
Name: Umbelliferone
Name: 7-hydroxychromen-2-one
Formula: C9H6O3
Exact mass: 162.0317
SMILES: c1cc(cc2c1ccc(=O)o2)O
InChI: InChI=1S/C9H6O3/c10-7-3-1-6-2-4-9(11)12-8(6)5-7/h1-5,10H
Instrument: LTQ Orbitrap XL Thermo Scientific
Instrument type: LC-ESI-ITFT
Ms type: MS2
Ion mode: POSITIVE
Ionization: ESI
Fragmentation mode: HCD
Collision energy: 40% (nominal)
Resolution: 15000
Column name: Kinetex Evo C18 2.6 um 50x2.1 mm, Phenomenex
Retention time: 6.222 min
Base peak: 116.9858
Precursor m/z: 163.039
Precursor type: [M+H]+
m/z	relative intensity	assigned
91.054	9	C7H7+
107.0492	20	C7H7O+
119.0491	46	C8H7O+
135.0441	7	C8H7O2+
163.0389	999	C9H7O3+
