Mass spectrum: Cortisone; LC-ESI-ITFT; MS2; CE: 90%; R=15000; [M+H]+
Name: Cortisone
Name: (8S,9S,10R,13S,14S,17R)-17-hydroxy-17-(2-hydroxyacetyl)-10,13-dimethyl-1,2,6,7,8,9,12,14,15,16-decahydrocyclopenta[a]phenanthrene-3,11-dione
Formula: C21H28O5
Exact mass: 360.1937
SMILES: C[C@]12CC(=O)[C@H]3[C@@H](CCC4=CC(=O)CC[C@]34C)[C@@H]1CC[C@]2(O)C(=O)CO
InChI: InChI=1S/C21H28O5/c1-19-7-5-13(23)9-12(19)3-4-14-15-6-8-21(26,17(25)11-22)20(15,2)10-16(24)18(14)19/h9,14-15,18,22,26H,3-8,10-11H2,1-2H3/t14-,15-,18+,19-,20-,21-/m0/s1
Instrument: LTQ Orbitrap XL Thermo Scientific
Instrument type: LC-ESI-ITFT
Ms type: MS2
Ion mode: POSITIVE
Ionization: ESI
Fragmentation mode: HCD
Collision energy: 90 % (nominal)
Resolution: 15000
Column name: Kinetex Evo C18 2.6 um 50 x 2.1 mm
Retention time: 9.572 min
Base peak: 361.2009
Precursor m/z: 361.201
Precursor type: [M+H]+
m/z	relative intensity	assigned
67.0539	171	C5H7+
69.0332	46	C4H5O+
69.0697	95	C5H9+
71.049	20	C4H7O+
77.0384	77	C6H5+
79.0541	413	C6H7+
81.0334	20	C5H5O+
81.0698	329	C6H9+
83.049	311	C5H7O+
91.0541	627	C7H7+
93.0698	742	C7H9+
95.0491	74	C6H7O+
95.0854	154	C7H11+
97.0647	464	C6H9O+
103.0541	51	C8H7+
105.0698	999	C8H9+
107.0491	166	C7H7O+
107.0854	429	C8H11+
109.0647	92	C7H9O+
111.0799	10	C7H11O+
115.0541	87	C9H7+
116.062	54	C9H8+
117.0698	298	C9H9+
119.0854	418	C9H11+
121.0647	780	C8H9O+
121.101	110	C9H13+
122.0682	13	C3H10N2O3+
123.0803	115	C8H11O+
128.0619	144	C10H8+
129.0697	189	C10H9+
130.0775	162	C10H10+
131.0853	246	C10H11+
132.0567	22	C9H8O+
133.0646	109	C9H9O+
133.101	99	C10H13+
134.0725	17	C9H10O+
135.0803	76	C9H11O+
135.1167	37	C10H15+
141.0698	86	C11H9+
142.0776	115	C11H10+
143.0853	238	C11H11+
144.0567	27	C10H8O+
144.0931	26	C11H12+
145.0646	59	C10H9O+
145.101	318	C11H13+
146.0721	34	C10H10O+
147.0802	180	C10H11O+
148.088	545	C10H12O+
149.0958	14	C10H13O+
153.0697	45	C12H9+
154.0776	35	C12H10+
155.0602	26	C10H7N2+
155.0853	124	C12H11+
156.0931	40	C12H12+
157.0642	23	C11H9O+
157.1009	84	C12H13+
158.0723	25	C11H10O+
159.0802	74	C11H11O+
159.1169	43	C12H15+
161.0959	84	C11H13O+
163.1115	527	C11H15O+
164.1148	13	C6H16N2O3+
165.0696	65	C13H9+
166.077	41	C13H10+
167.0852	82	C13H11+
168.093	45	C13H12+
169.0646	11	C12H9O+
169.1009	99	C13H13+
170.1088	21	C13H14+
171.0802	40	C12H11O+
171.1165	48	C13H15+
172.0879	22	C12H12O+
173.0955	48	C12H13O+
174.1035	104	C12H14O+
175.111	13	C12H15O+
179.0853	70	C14H11+
180.0931	33	C14H12+
181.1009	85	C14H13+
182.1088	38	C14H14+
183.08	23	C13H11O+
183.1165	68	C14H15+
184.0883	12	C13H12O+
185.0957	21	C13H13O+
185.1323	49	C14H17+
187.1117	16	C13H15O+
189.1268	24	C13H17O+
191.0854	25	C15H11+
192.0925	24	C15H12+
193.1009	55	C15H13+
194.109	26	C15H14+
195.0802	13	C14H11O+
195.1164	45	C15H15+
196.1241	10	C15H16+
197.0956	23	C14H13O+
197.1321	30	C15H17+
199.1113	28	C14H15O+
199.1477	25	C15H19+
206.1086	22	C16H14+
207.1172	17	C16H15+
209.0956	27	C15H13O+
209.1318	26	C16H17+
211.1112	27	C15H15O+
217.1012	16	C17H13+
225.1269	61	C16H17O+
226.1349	44	C16H18O+
227.1433	39	C16H19O+
240.1513	16	C17H20O+
241.1578	37	C17H21O+
243.1374	173	C16H19O2+
258.1609	50	C17H22O2+
269.1525	35	C18H21O2+
