Mass spectrum: Tomatidine; LC-ESI-ITFT; MS2; CE: 120%; R=15000; [M+H]+
Name: Tomatidine
Formula: C27H45NO2
Exact mass: 415.3450
SMILES: C[C@H]1[C@H]2[C@H](C[C@H]3[C@@H]4CC[C@H]5C[C@@H](O)CC[C@]5(C)[C@H]4CC[C@]23C)O[C@@]11CC[C@H](C)CN1
InChI: InChI=1S/C27H45NO2/c1-16-7-12-27(28-15-16)17(2)24-23(30-27)14-22-20-6-5-18-13-19(29)8-10-25(18,3)21(20)9-11-26(22,24)4/h16-24,28-29H,5-15H2,1-4H3/t16-,17-,18-,19-,20+,21-,22-,23-,24-,25-,26-,27-/m0/s1
Instrument: LTQ Orbitrap XL Thermo Scientific
Instrument type: LC-ESI-ITFT
Ms type: MS2
Ion mode: POSITIVE
Ionization: ESI
Fragmentation mode: HCD
Collision energy: 120 % (nominal)
Resolution: 15000
Column name: Kinetex Evo C18 2.6 um 50 x 2.1 mm
Retention time: 10.053 min
Base peak: 217.0493
Precursor m/z: 416.3523
Precursor type: [M+H]+
m/z	relative intensity	assigned
65.0387	20	C5H5+
67.0543	201	C5H7+
69.0701	34	C5H9+
70.0652	61	C4H8N+
77.0387	214	C6H5+
79.0543	467	C6H7+
80.0496	43	C5H6N+
81.07	282	C6H9+
82.0652	62	C5H8N+
91.0543	891	C7H7+
93.0699	321	C7H9+
94.0652	69	C6H8N+
95.0492	43	C6H7O+
95.0728	22	C6H9N+
95.0856	129	C7H11+
96.0811	37	C6H10N+
103.0542	45	C8H7+
105.07	999	C8H9+
107.0856	111	C8H11+
108.0808	53	C7H10N+
110.0966	37	C7H12N+
117.07	171	C9H9+
119.0857	392	C9H11+
122.0965	29	C8H12N+
124.1124	51	C8H14N+
128.0625	31	C10H8+
129.07	75	C10H9+
130.078	35	C10H10+
131.0855	94	C10H11+
133.1013	70	C10H13+
143.0858	32	C11H11+
145.1009	33	C11H13+
147.1169	26	C11H15+
148.1118	45	C10H14N+
150.1278	71	C10H16N+
161.1326	43	C12H17+
162.128	25	C11H16N+
