Mass spectrum: (+)-Lupanine; LC-ESI-ITFT; MS2; CE: 65%; R=15000; [M+H]+
Name: (+)-Lupanine
Formula: C15H24N2O
Exact mass: 248.1889
SMILES: C1CCN2CC3CC(C2C1)CN4C3CCCC4=O
InChI: InChI=1S/C15H24N2O/c18-15-6-3-5-14-11-8-12(10-17(14)15)13-4-1-2-7-16(13)9-11/h11-14H,1-10H2
Instrument: LTQ Orbitrap XL Thermo Scientific
Instrument type: LC-ESI-ITFT
Ms type: MS2
Ion mode: POSITIVE
Ionization: ESI
Fragmentation mode: HCD
Collision energy: 65 % (nominal)
Resolution: 15000
Column name: Kinetex Evo C18 2.6 um 50 x 2.1 mm
Retention time: 0.484 min
Base peak: 249.1958
Precursor m/z: 249.1961
Precursor type: [M+H]+
m/z	relative intensity	assigned
70.0651	23	C4H8N+
80.0495	5	C5H6N+
84.0808	9	C5H10N+
85.0649	12	C5H9O+
96.0808	10	C6H10N+
98.0964	34	C6H12N+
110.0964	3	C7H12N+
112.0756	6	C6H10NO+
114.0913	129	C6H12NO+
134.0965	17	C9H12N+
136.1121	259	C9H14N+
138.1278	1	C9H16N+
148.1118	2	C10H14N+
150.1278	33	C10H16N+
152.1432	3	C10H18N+
166.1226	2	C10H16NO+
204.1384	3	C13H18NO+
231.1855	8	C15H23N2+
247.1809	23	C15H23N2O+
249.1962	999	C15H25N2O+
