Mass spectrum: Erucifoline N-oxide; LC-ESI-ITFT; MS2; CE: 70%; R=15000; [M+H]+
Name: Erucifoline N-oxide
Name: (5R,7S,9Z,12R,18R)-9-ethylidene-7-(hydroxymethyl)-5-methyl-15-oxido-3,6,11-trioxa-15-azoniatetracyclo[10.5.1.05,7.015,18]octadec-1(17)-ene-4,10-dione
Formula: C18H23NO7
Exact mass: 365.1475
SMILES: C/C=C\1/C[C@@]2([C@@](O2)(C(=O)OCC3=CC[N+]4([C@H]3[C@@H](CC4)OC1=O)[O-])C)CO
InChI: InChI=1S/C18H23NO7/c1-3-11-8-18(10-20)17(2,26-18)16(22)24-9-12-4-6-19(23)7-5-13(14(12)19)25-15(11)21/h3-4,13-14,20H,5-10H2,1-2H3/b11-3-/t13-,14-,17+,18+,19?/m1/s1
Instrument: LTQ Orbitrap XL Thermo Scientific
Instrument type: LC-ESI-ITFT
Ms type: MS2
Ion mode: POSITIVE
Ionization: ESI
Fragmentation mode: HCD
Collision energy: 70% (nominal)
Resolution: 15000
Column name: Kinetex Evo C18 2.6 um 50 x 2.1 mm
Retention time: 1.120 min
Base peak: 366.1547
Precursor m/z: 366.1547
Precursor type: [M+H]+
m/z	relative intensity	assigned
53.0385	24	C4H5+
67.0417	10	C4H5N+
67.0542	48	C5H7+
68.0494	13	C4H6N+
70.065	6	C4H8N+
77.0388	13	C6H5+
79.0542	63	C6H7+
80.0495	98	C5H6N+
81.0335	20	C5H5O+
81.0573	24	C5H7N+
81.0699	56	C6H9+
82.0653	25	C5H8N+
83.0492	25	C5H7O+
84.0445	11	C4H6NO+
91.0543	67	C7H7+
92.0496	17	C6H6N+
93.0574	453	C6H7N+
93.0698	34	C7H9+
94.0652	999	C6H8N+
95.0491	33	C6H7O+
95.073	94	C6H9N+
95.0859	10	C7H11+
96.0444	13	C5H6NO+
96.0804	7	C6H10N+
97.0649	21	C6H9O+
98.0601	46	C5H8NO+
99.0444	7	C5H7O2+
105.0702	10	C8H9+
106.0652	109	C7H8N+
107.0492	14	C7H7O+
107.0729	38	C7H9N+
107.0855	10	C8H11+
108.0808	202	C7H10N+
109.0649	92	C7H9O+
109.0886	32	C7H11N+
110.0599	16	C6H8NO+
111.0444	11	C6H7O2+
112.0758	56	C6H10NO+
117.0573	26	C8H7N+
118.0652	647	C8H8N+
119.073	558	C8H9N+
120.0808	626	C8H10N+
121.0652	23	C8H9O+
121.0883	15	C8H11N+
122.0965	80	C8H12N+
123.044	42	C7H7O2+
123.0679	10	C7H9NO+
123.0805	28	C8H11O+
124.0756	22	C7H10NO+
125.0599	28	C7H9O2+
132.0808	18	C9H10N+
134.0965	12	C9H12N+
135.0439	7	C8H7O2+
136.0757	854	C8H10NO+
137.0599	17	C8H9O2+
137.0836	41	C8H11NO+
138.0913	90	C8H12NO+
139.0389	15	C7H7O3+
139.0754	62	C8H11O2+
141.0547	22	C7H9O3+
144.0811	13	C10H10N+
146.0966	40	C10H12N+
149.0599	15	C9H9O2+
151.0753	21	C9H11O2+
154.0864	46	C8H12NO2+
160.1122	15	C11H14N+
162.0912	13	C10H12NO+
164.1071	98	C10H14NO+
165.0548	33	C9H9O3+
167.07	9	C9H11O3+
172.1122	13	C12H14N+
176.1072	11	C11H14NO+
183.0655	14	C9H11O4+
190.1227	37	C12H16NO+
199.0968	22	C10H15O4+
209.1173	30	C12H17O3+
218.1176	14	C13H16NO2+
220.1334	12	C13H18NO2+
232.1331	7	C14H18NO2+
278.1375	10	C15H20NO4+
