Mass spectrum: Yohimbine; LC-ESI-ITFT; MS2; CE: 55%; R=15000; [M+H]+
Name: Yohimbine
Name: methyl (1S,15R,18S,19R,20S)-18-hydroxy-1,3,11,12,14,15,16,17,18,19,20,21-dodecahydroyohimban-19-carboxylate
Formula: C21H26N2O3
Exact mass: 354.1943
SMILES: COC(=O)[C@H]1[C@H](CC[C@@H]2[C@@H]1C[C@H]3c4c(c5ccccc5[nH]4)CCN3C2)O
InChI: InChI=1S/C21H26N2O3/c1-26-21(25)19-15-10-17-20-14(13-4-2-3-5-16(13)22-20)8-9-23(17)11-12(15)6-7-18(19)24/h2-5,12,15,17-19,22,24H,6-11H2,1H3/t12-,15-,17-,18-,19+/m0/s1
Instrument: LTQ Orbitrap XL Thermo Scientific
Instrument type: LC-ESI-ITFT
Ms type: MS2
Ion mode: POSITIVE
Ionization: ESI
Fragmentation mode: HCD
Collision energy: 55% (nominal)
Resolution: 15000
Column name: Kinetex Evo C18 2.6 um 50 x 2.1 mm
Retention time: 6.501 min
Base peak: 355.2017
Precursor m/z: 355.2016
Precursor type: [M+H]+
m/z	relative intensity	assigned
79.0543	1	C6H7+
94.0651	2	C6H8N+
105.0699	2	C8H9+
106.0652	5	C7H8N+
107.0856	1	C8H11+
117.0699	17	C9H9+
119.0856	2	C9H11+
130.0652	11	C9H8N+
132.0809	4	C9H10N+
134.0965	33	C9H12N+
135.0807	2	C9H11O+
136.1124	1	C9H14N+
144.0808	999	C10H10N+
145.0649	2	C10H9O+
146.0962	2	C10H12N+
152.107	2	C9H14NO+
156.0815	1	C11H10N+
158.0965	11	C11H12N+
162.0915	23	C10H12NO+
163.0752	1	C10H11O2+
168.0808	1	C12H10N+
170.0967	3	C12H12N+
177.0911	2	C11H13O2+
180.102	19	C10H14NO2+
192.1022	5	C11H14NO2+
194.1176	39	C11H16NO2+
206.1178	2	C12H16NO2+
208.1124	1	C15H14N+
210.1129	1	C11H16NO3+
212.1282	190	C11H18NO3+
220.1119	2	C16H14N+
224.1283	33	C12H18NO3+
234.128	2	C17H16N+
246.1285	2	C18H16N+
248.1436	7	C18H18N+
260.1435	5	C19H18N+
266.1547	2	C18H20NO+
276.1373	2	C19H18NO+
278.1547	1	C19H20NO+
280.1334	1	C18H18NO2+
288.1389	1	C20H18NO+
294.1496	7	C19H20NO2+
306.149	3	C20H20NO2+
308.165	3	C20H22NO2+
320.1647	1	C21H22NO2+
326.1747	2	C20H24NO3+
337.1914	1	C21H25N2O2+
338.1752	2	C21H24NO3+
355.202	30	C21H27N2O3+
