Mass spectrum: Retrorsine N-oxide; LC-ESI-ITFT; MS2; CE: 105%; R=15000; [M+H]+
Name: Retrorsine N-oxide
Name: Unii-51819grv4U
Name: (1R,4Z,6R,7S,14S,17R)-4-ethylidene-7-hydroxy-7-(hydroxymethyl)-6-methyl-14-oxido-2,9-dioxa-14-azoniatricyclo[9.5.1.014,17]heptadec-11-ene-3,8-dione
Formula: C18H25NO7
Exact mass: 367.1631
SMILES: C/C=C\1/C[C@H]([C@@](C(=O)OCC2=CC[N@@+]3([C@H]2[C@@H](CC3)OC1=O)[O-])(CO)O)C
InChI: InChI=1S/C18H25NO7/c1-3-12-8-11(2)18(23,10-20)17(22)25-9-13-4-6-19(24)7-5-14(15(13)19)26-16(12)21/h3-4,11,14-15,20,23H,5-10H2,1-2H3/b12-3-/t11-,14-,15-,18-,19-/m1/s1
Instrument: LTQ Orbitrap XL Thermo Scientific
Instrument type: LC-ESI-ITFT
Ms type: MS2
Ion mode: POSITIVE
Ionization: ESI
Fragmentation mode: HCD
Collision energy: 105% (nominal)
Resolution: 15000
Column name: Kinetex Evo C18 2.6 um 50 x 2.1 mm
Retention time: 2.074 min
Base peak: 143.0016
Precursor m/z: 368.1704
Precursor type: [M+H]+
m/z	relative intensity	assigned
53.0385	14	C4H5+
65.0386	12	C5H5+
66.0463	29	C5H6+
67.0416	25	C4H5N+
67.0542	64	C5H7+
77.0385	25	C6H5+
78.0341	14	C5H4N+
79.0542	63	C6H7+
80.0495	267	C5H6N+
81.0335	11	C5H5O+
81.0572	22	C5H7N+
81.0699	67	C6H9+
82.0654	9	C5H8N+
84.0444	13	C4H6NO+
91.0542	108	C7H7+
92.0495	70	C6H6N+
93.0573	309	C6H7N+
93.0698	18	C7H9+
94.0651	999	C6H8N+
95.0729	36	C6H9N+
95.0854	29	C7H11+
96.0447	17	C5H6NO+
96.0808	26	C6H10N+
105.07	19	C8H9+
106.0652	105	C7H8N+
107.0729	18	C7H9N+
108.0808	139	C7H10N+
110.06	30	C6H8NO+
117.0573	70	C8H7N+
118.0651	328	C8H8N+
119.0729	50	C8H9N+
120.0808	370	C8H10N+
136.0757	243	C8H10NO+
138.092	12	C8H12NO+
