Mass spectrum: Senecivernine N-oxide; LC-ESI-ITFT; MS2; CE: 65%; R=15000; [M+H]+
Name: Senecivernine N-oxide
Name: CID 14313723
Name: 7-hydroxy-5,6,7-trimethyl-4-methylidene-14-oxido-2,9-dioxa-14-azoniatricyclo[9.5.1.014,17]heptadec-11-ene-3,8-dione
Formula: C18H25NO6
Exact mass: 351.1682
SMILES: CC1C(C(C(=O)OCC2=CC[N+]3(C2C(CC3)OC(=O)C1=C)[O-])(C)O)C
InChI: InChI=1S/C18H25NO6/c1-10-11(2)16(20)25-14-6-8-19(23)7-5-13(15(14)19)9-24-17(21)18(4,22)12(10)3/h5,10,12,14-15,22H,2,6-9H2,1,3-4H3
Instrument: LTQ Orbitrap XL Thermo Scientific
Instrument type: LC-ESI-ITFT
Ms type: MS2
Ion mode: POSITIVE
Ionization: ESI
Fragmentation mode: HCD
Collision energy: 65% (nominal)
Resolution: 15000
Column name: Kinetex Evo C18 2.6 um 50 x 2.1 mm
Retention time: 4.638 min
Base peak: 352.1753
Precursor m/z: 352.1755
Precursor type: [M+H]+
m/z	relative intensity	assigned
55.0542	11	C4H7+
67.0542	30	C5H7+
68.0495	22	C4H6N+
79.0542	100	C6H7+
80.0495	60	C5H6N+
81.0575	20	C5H7N+
81.0699	247	C6H9+
82.0651	30	C5H8N+
83.0491	41	C5H7O+
84.0443	26	C4H6NO+
91.0543	41	C7H7+
92.0496	14	C6H6N+
93.0573	431	C6H7N+
94.0651	694	C6H8N+
95.073	523	C6H9N+
96.0807	14	C6H10N+
98.0601	38	C5H8NO+
106.0652	248	C7H8N+
107.0729	15	C7H9N+
107.0855	66	C8H11+
108.0808	168	C7H10N+
109.0649	44	C7H9O+
109.0884	31	C7H11N+
109.1012	26	C8H13+
110.0601	17	C6H8NO+
111.0441	45	C6H7O2+
111.068	33	C6H9NO+
112.0757	66	C6H10NO+
117.0576	10	C8H7N+
118.0652	668	C8H8N+
119.073	593	C8H9N+
120.0808	999	C8H10N+
121.0886	139	C8H11N+
122.0964	93	C8H12N+
124.0758	28	C7H10NO+
125.0963	31	C8H13O+
126.091	13	C7H12NO+
132.081	14	C9H10N+
134.096	19	C9H12N+
135.0804	11	C9H11O+
136.0757	689	C8H10NO+
137.0596	17	C8H9O2+
137.0835	58	C8H11NO+
138.0913	433	C8H12NO+
141.0909	24	C8H13O2+
146.0959	10	C10H12N+
148.1119	18	C10H14N+
152.1068	61	C9H14NO+
153.091	79	C9H13O2+
154.0862	153	C8H12NO2+
167.1066	10	C10H15O2+
174.0906	17	C11H12NO+
202.1223	31	C13H16NO+
211.1328	62	C12H19O3+
218.1173	36	C13H16NO2+
220.1334	49	C13H18NO2+
236.1284	17	C13H18NO3+
246.1494	14	C15H20NO2+
248.1646	19	C15H22NO2+
290.1749	20	C17H24NO3+
324.1803	59	C17H26NO5+
352.1754	141	C18H26NO6+
