Mass spectrum: (+)-Chelidonine; LC-ESI-ITFT; MS2; CE: 85%; R=15000; [M+H]+
Name: (+)-Chelidonine
Name: Chelidonine
Name: (1S,12S,13R)-24-methyl-5,7,18,20-tetraoxa-24-azahexacyclo[11.11.0.02,10.04,8.014,22.017,21]tetracosa-2,4(8),9,14(22),15,17(21)-hexaen-12-ol
Formula: C20H19NO5
Exact mass: 353.1263
SMILES: CN1Cc2c(ccc3c2OCO3)[C@@H]4[C@H]1c5cc6c(cc5C[C@@H]4O)OCO6
InChI: InChI=1S/C20H19NO5/c1-21-7-13-11(2-3-15-20(13)26-9-23-15)18-14(22)4-10-5-16-17(25-8-24-16)6-12(10)19(18)21/h2-3,5-6,14,18-19,22H,4,7-9H2,1H3/t14-,18-,19+/m0/s1
Instrument: LTQ Orbitrap XL Thermo Scientific
Instrument type: LC-ESI-ITFT
Ms type: MS2
Ion mode: POSITIVE
Ionization: ESI
Fragmentation mode: HCD
Collision energy: 85% (nominal)
Resolution: 15000
Column name: Kinetex Evo C18 2.6 um 50 x 2.1 mm
Retention time: 7.008 min
Base peak: 354.1337
Precursor m/z: 354.1336
Precursor type: [M+H]+
m/z	relative intensity	assigned
77.0387	9	C6H5+
79.0542	20	C6H7+
91.0543	2	C7H7+
103.0542	27	C8H7+
105.0336	7	C7H5O+
107.0492	3	C7H7O+
115.0542	10	C9H7+
118.0651	22	C8H8N+
130.0651	5	C9H8N+
131.0492	28	C9H7O+
135.0441	87	C8H7O2+
143.0492	5	C10H7O+
146.06	12	C9H8NO+
147.044	6	C9H7O2+
148.0518	7	C9H8O2+
149.0596	9	C9H9O2+
152.0618	2	C12H8+
158.0602	7	C10H8NO+
159.0441	19	C10H7O2+
160.0757	15	C10H10NO+
161.0596	13	C10H9O2+
162.0547	3	C9H8NO2+
163.039	67	C9H7O3+
165.07	9	C13H9+
166.0777	1	C13H10+
172.0519	2	C11H8O2+
173.0593	3	C11H9O2+
175.0393	3	C10H7O3+
175.0627	5	C10H9NO2+
176.0621	3	C14H8+
176.0708	7	C10H10NO2+
177.0698	21	C14H9+
178.0777	29	C14H10+
179.0855	90	C14H11+
186.055	4	C11H8NO2+
188.0706	56	C11H10NO2+
189.0698	999	C15H9+
191.0854	57	C15H11+
192.0572	3	C14H8O+
193.0643	1	C14H9O+
194.0722	2	C14H10O+
201.07	7	C16H9+
202.0785	5	C16H10+
205.0647	44	C15H9O+
206.073	5	C15H10O+
207.0804	75	C15H11O+
209.0599	7	C14H9O2+
216.0578	1	C16H8O+
217.0647	431	C16H9O+
219.0803	49	C16H11O+
220.0521	1	C15H8O2+
221.0596	3	C15H9O2+
222.0672	16	C15H10O2+
233.0599	5	C16H9O2+
234.0678	2	C16H10O2+
235.0751	47	C16H11O2+
237.0908	42	C16H13O2+
245.0597	22	C17H9O2+
246.0674	54	C17H10O2+
247.0752	408	C17H11O2+
263.0705	5	C17H11O3+
265.0859	10	C17H13O3+
275.0701	145	C18H11O3+
