Mass spectrum: Lycopsamine N-oxide; LC-ESI-ITFT; MS2; CE: 85%; R=15000; [M+H]+
Name: Lycopsamine N-oxide
Name: [(7R,8R)-7-hydroxy-4-oxido-5,6,7,8-tetrahydro-3H-pyrrolizin-4-ium-1-yl]methyl (2S)-2-hydroxy-2-[(1S)-1-hydroxyethyl]-3-methylbutanoate
Formula: C15H25NO6
Exact mass: 315.1682
SMILES: C[C@@H]([C@@](C(C)C)(C(=O)OCC1=CC[N+]2([C@H]1[C@@H](CC2)O)[O-])O)O
InChI: InChI=1S/C15H25NO6/c1-9(2)15(20,10(3)17)14(19)22-8-11-4-6-16(21)7-5-12(18)13(11)16/h4,9-10,12-13,17-18,20H,5-8H2,1-3H3/t10-,12+,13+,15-,16?/m0/s1
Instrument: LTQ Orbitrap XL Thermo Scientific
Instrument type: LC-ESI-ITFT
Ms type: MS2
Ion mode: POSITIVE
Ionization: ESI
Fragmentation mode: HCD
Collision energy: 85% (nominal)
Resolution: 15000
Column name: Kinetex Evo C18 2.6 um 50 x 2.1 mm
Retention time: 1.285 min
Base peak: 143.0014
Precursor m/z: 316.1755
Precursor type: [M+H]+
m/z	relative intensity	assigned
66.0465	7	C5H6+
67.0415	9	C4H5N+
67.0542	29	C5H7+
68.0494	62	C4H6N+
70.0653	8	C4H8N+
73.0648	25	C4H9O+
79.0543	18	C6H7+
80.0495	203	C5H6N+
81.0574	22	C5H7N+
81.0698	26	C6H9+
82.0413	41	C5H6O+
82.0651	65	C5H8N+
83.0491	99	C5H7O+
84.044	7	C4H6NO+
84.081	8	C5H10N+
91.0544	12	C7H7+
92.0493	18	C6H6N+
93.0573	560	C6H7N+
94.0651	999	C6H8N+
95.0729	20	C6H9N+
96.0443	29	C5H6NO+
96.0808	22	C6H10N+
98.0601	44	C5H8NO+
102.0549	59	C4H8NO2+
106.0651	78	C7H8N+
108.0808	95	C7H10N+
109.0648	20	C7H9O+
110.06	51	C6H8NO+
111.0678	682	C6H9NO+
112.0756	43	C6H10NO+
118.0651	18	C8H8N+
120.0809	13	C8H10N+
124.0755	28	C7H10NO+
126.0912	16	C7H12NO+
128.0705	41	C6H10NO2+
136.0757	195	C8H10NO+
137.0836	76	C8H11NO+
138.0913	436	C8H12NO+
140.071	11	C7H10NO2+
142.0863	9	C7H12NO2+
154.0862	50	C8H12NO2+
155.0941	99	C8H13NO2+
172.0968	593	C8H14NO3+
