Mass spectrum: Lycorine; LC-ESI-ITFT; MS2; CE: 105%; R=15000; [M+H]+
Name: Lycorine
Name: (1S,17S,18S,19S)-5,7-dioxa-12-azapentacyclo[10.6.1.02,10.04,8.015,19]nonadeca-2,4(8),9,15-tetraene-17,18-diol
Formula: C16H17NO4
Exact mass: 287.1158
SMILES: C1CN2CC3=CC4=C(C=C3[C@H]5[C@H]2C1=C[C@@H]([C@H]5O)O)OCO4
InChI: InChI=1S/C16H17NO4/c18-11-3-8-1-2-17-6-9-4-12-13(21-7-20-12)5-10(9)14(15(8)17)16(11)19/h3-5,11,14-16,18-19H,1-2,6-7H2/t11-,14-,15+,16+/m0/s1
Instrument: LTQ Orbitrap XL Thermo Scientific
Instrument type: LC-ESI-ITFT
Ms type: MS2
Ion mode: POSITIVE
Ionization: ESI
Fragmentation mode: HCD
Collision energy: 105% (nominal)
Resolution: 15000
Column name: Kinetex Evo C18 2.6 um 50 x 2.1 mm
Retention time: 0.625 min
Base peak: 288.1228
Precursor m/z: 288.123
Precursor type: [M+H]+
m/z	relative intensity	assigned
65.0385	11	C5H5+
67.054	10	C5H7+
79.0541	12	C6H7+
82.0651	59	C5H8N+
83.0491	22	C5H7O+
91.0542	559	C7H7+
95.0493	28	C6H7O+
106.0652	14	C7H8N+
111.0678	20	C6H9NO+
115.0544	13	C9H7+
119.0492	999	C8H7O+
134.0602	13	C8H8NO+
135.0444	21	C8H7O2+
141.0696	11	C11H9+
147.0441	401	C9H7O2+
149.0601	28	C9H9O2+
152.0617	12	C12H8+
165.0698	15	C13H9+
168.081	11	C12H10N+
169.0891	9	C12H11N+
192.0804	12	C14H10N+
193.0887	12	C14H11N+
194.097	10	C14H12N+
196.0756	9	C13H10NO+
