Mass spectrum: Ajmalicine; LC-ESI-ITFT; MS2; CE: 30%; R=15000; [M+H]+
Name: Ajmalicine
Name: methyl (1S,15R,16S,20S)-16-methyl-17-oxa-3,13-diazapentacyclo[11.8.0.02,10.04,9.015,20]henicosa-2(10),4,6,8,18-pentaene-19-carboxylate
Formula: C21H24N2O3
Exact mass: 352.1787
SMILES: C[C@H]1[C@H]2CN3CCc4c5ccccc5[nH]c4[C@@H]3C[C@@H]2C(=CO1)C(=O)OC
InChI: InChI=1S/C21H24N2O3/c1-12-16-10-23-8-7-14-13-5-3-4-6-18(13)22-20(14)19(23)9-15(16)17(11-26-12)21(24)25-2/h3-6,11-12,15-16,19,22H,7-10H2,1-2H3/t12-,15-,16+,19-/m0/s1
Instrument: LTQ Orbitrap XL Thermo Scientific
Instrument type: LC-ESI-ITFT
Ms type: MS2
Ion mode: POSITIVE
Ionization: ESI
Fragmentation mode: HCD
Collision energy: 30% (nominal)
Resolution: 15000
Column name: Kinetex Evo C18 2.6 um 50 x 2.1 mm
Retention time: 7.572 min
Base peak: 353.1857
Precursor m/z: 353.186
Precursor type: [M+H]+
m/z	relative intensity	assigned
144.0807	573	C10H10N+
158.0963	9	C11H12N+
170.0962	8	C12H12N+
178.0862	11	C10H12NO2+
185.1072	5	C12H13N2+
196.0966	8	C10H14NO3+
199.1228	14	C13H15N2+
208.0966	3	C11H14NO3+
210.1123	113	C11H16NO3+
222.1123	27	C12H16NO3+
251.1539	2	C17H19N2+
278.1171	5	C18H16NO2+
284.1279	15	C17H18NO3+
310.1438	6	C19H20NO3+
321.1594	38	C20H21N2O2+
324.1592	3	C20H22NO3+
336.1593	5	C21H22NO3+
353.1857	999	C21H25N2O3+
