Mass spectrum: Conessine; LC-ESI-ITFT; MS2; CE: 120%; R=15000; [M+H]+
Name: Conessine
Formula: C24H40N2
Exact mass: 356.3191
SMILES: C[C@H]1[C@H]2CC[C@H]3[C@@H]4CC=C5C[C@H](CC[C@]5(C)[C@H]4CC[C@]23CN1C)N(C)C
InChI: InChI=1S/C24H40N2/c1-16-20-8-9-22-19-7-6-17-14-18(25(3)4)10-12-23(17,2)21(19)11-13-24(20,22)15-26(16)5/h6,16,18-22H,7-15H2,1-5H3/t16-,18-,19+,20+,21-,22-,23-,24-/m0/s1
Instrument: LTQ Orbitrap XL Thermo Scientific
Instrument type: LC-ESI-ITFT
Ms type: MS2
Ion mode: POSITIVE
Ionization: ESI
Fragmentation mode: HCD
Collision energy: 120 % (nominal)
Resolution: 15000
Column name: Kinetex Evo C18 2.6 um 50 x 2.1 mm
Retention time: 5.491 min
Base peak: 179.1666
Precursor m/z: 357.3264
Precursor type: [M+H]+
m/z	relative intensity	assigned
58.0651	22	C3H8N+
67.0542	201	C5H7+
69.0697	20	C5H9+
70.0651	32	C4H8N+
72.0807	25	C4H10N+
77.0386	156	C6H5+
79.0542	359	C6H7+
81.0699	297	C6H9+
84.0808	999	C5H10N+
91.0542	763	C7H7+
93.0699	242	C7H9+
95.0856	73	C7H11+
103.0542	52	C8H7+
105.0698	559	C8H9+
107.0854	56	C8H11+
109.101	24	C8H13+
115.0542	85	C9H7+
116.0619	56	C9H8+
117.0699	179	C9H9+
119.0855	168	C9H11+
128.062	88	C10H8+
129.0698	184	C10H9+
130.0778	68	C10H10+
131.0855	146	C10H11+
133.1007	32	C10H13+
136.112	35	C9H14N+
141.0699	44	C11H9+
142.0781	42	C11H10+
143.0855	86	C11H11+
144.0928	33	C11H12+
145.1015	60	C11H13+
155.0855	32	C12H11+
157.1013	21	C12H13+
