Mass spectrum: Gramine; LC-ESI-ITFT; MS2; CE: 45%; R=15000; [M+H]+
Name: Gramine
Formula: C11H14N2
Exact mass: 174.1157
SMILES: CN(C)Cc1c[nH]c2c1cccc2
InChI: InChI=1S/C11H14N2/c1-13(2)8-9-7-12-11-6-4-3-5-10(9)11/h3-7,12H,8H2,1-2H3
Instrument: LTQ Orbitrap XL Thermo Scientific
Instrument type: LC-ESI-ITFT
Ms type: MS2
Ion mode: POSITIVE
Ionization: ESI
Fragmentation mode: CID
Collision energy: 45 % (nominal)
Resolution: 15000
Column name: Kinetex Evo C18 2.6 um 50x2.1 mm, Phenomenex
Retention time: 0.798 min
Base peak: 130.0648
Precursor m/z: 175.123
Precursor type: [M+H]+
m/z	relative intensity	assigned
130.0651	999	C9H8N+
