Mass spectrum: Retrorsine; LC-ESI-ITFT; MS2; CE: 65%; R=15000; [M+H]+
Name: Retrorsine
Name: (1R,4Z,6R,7S,17R)-4-ethylidene-7-hydroxy-7-(hydroxymethyl)-6-methyl-2,9-dioxa-14-azatricyclo[9.5.1.014,17]heptadec-11-ene-3,8-dione
Formula: C18H25NO6
Exact mass: 351.1682
SMILES: C/C=C\1/C[C@H]([C@@](C(=O)OCC2=CCN3[C@H]2[C@@H](CC3)OC1=O)(CO)O)C
InChI: InChI=1S/C18H25NO6/c1-3-12-8-11(2)18(23,10-20)17(22)24-9-13-4-6-19-7-5-14(15(13)19)25-16(12)21/h3-4,11,14-15,20,23H,5-10H2,1-2H3/b12-3-/t11-,14-,15-,18-/m1/s1
Instrument: LTQ Orbitrap XL Thermo Scientific
Instrument type: LC-ESI-ITFT
Ms type: MS2
Ion mode: POSITIVE
Ionization: ESI
Fragmentation mode: HCD
Collision energy: 65% (nominal)
Resolution: 15000
Column name: Kinetex Evo C18 2.6 um 50 x 2.1 mm
Retention time: 1.607 min
Base peak: 143.0015
Precursor m/z: 352.1755
Precursor type: [M+H]+
m/z	relative intensity	assigned
67.0542	134	C5H7+
68.0495	57	C4H6N+
69.07	11	C5H9+
71.0491	23	C4H7O+
77.0385	36	C6H5+
79.0542	90	C6H7+
80.0495	137	C5H6N+
81.0336	14	C5H5O+
81.0574	27	C5H7N+
81.0699	121	C6H9+
82.0652	113	C5H8N+
83.0494	28	C5H7O+
84.0444	19	C4H6NO+
91.0543	149	C7H7+
92.0497	20	C6H6N+
93.0699	274	C7H9+
94.0652	587	C6H8N+
95.0494	17	C6H7O+
95.0731	30	C6H9N+
95.0856	214	C7H11+
96.0808	309	C6H10N+
99.044	24	C5H7O2+
103.0543	94	C8H7+
105.0573	18	C7H7N+
105.0699	68	C8H9+
106.0652	28	C7H8N+
107.0728	24	C7H9N+
107.0856	34	C8H11+
108.0808	178	C7H10N+
109.0648	52	C7H9O+
109.0887	29	C7H11N+
110.0601	38	C6H8NO+
110.0965	110	C7H12N+
111.0804	20	C7H11O+
118.0652	104	C8H8N+
119.0732	20	C8H9N+
120.0809	999	C8H10N+
121.0648	54	C8H9O+
121.0887	59	C8H11N+
122.0965	237	C8H12N+
123.0805	262	C8H11O+
125.0964	14	C8H13O+
136.0757	32	C8H10NO+
138.0914	915	C8H12NO+
139.0752	28	C8H11O2+
140.1072	36	C8H14NO+
151.0754	135	C9H11O2+
154.0864	20	C8H12NO2+
156.1021	57	C8H14NO2+
169.0859	50	C9H13O3+
220.1334	108	C13H18NO2+
236.1277	26	C13H18NO3+
248.1647	24	C15H22NO2+
276.1597	68	C16H22NO3+
324.1809	182	C17H26NO5+
352.1759	178	C18H26NO6+
