Mass spectrum: Tomatidine; LC-ESI-ITFT; MS2; CE: 110%; R=15000; [M+H]+
Name: Tomatidine
Formula: C27H45NO2
Exact mass: 415.3450
SMILES: C[C@H]1[C@H]2[C@H](C[C@H]3[C@@H]4CC[C@H]5C[C@@H](O)CC[C@]5(C)[C@H]4CC[C@]23C)O[C@@]11CC[C@H](C)CN1
InChI: InChI=1S/C27H45NO2/c1-16-7-12-27(28-15-16)17(2)24-23(30-27)14-22-20-6-5-18-13-19(29)8-10-25(18,3)21(20)9-11-26(22,24)4/h16-24,28-29H,5-15H2,1-4H3/t16-,17-,18-,19-,20+,21-,22-,23-,24-,25-,26-,27-/m0/s1
Instrument: LTQ Orbitrap XL Thermo Scientific
Instrument type: LC-ESI-ITFT
Ms type: MS2
Ion mode: POSITIVE
Ionization: ESI
Fragmentation mode: HCD
Collision energy: 110 % (nominal)
Resolution: 15000
Column name: Kinetex Evo C18 2.6 um 50 x 2.1 mm
Retention time: 10.053 min
Base peak: 217.0493
Precursor m/z: 416.3523
Precursor type: [M+H]+
m/z	relative intensity	assigned
55.0543	9	C4H7+
67.0542	178	C5H7+
69.0698	32	C5H9+
70.0651	69	C4H8N+
77.0386	125	C6H5+
79.0543	460	C6H7+
80.0495	31	C5H6N+
81.0699	314	C6H9+
82.0653	25	C5H8N+
91.0542	662	C7H7+
93.0699	408	C7H9+
94.0651	67	C6H8N+
95.0492	34	C6H7O+
95.0729	17	C6H9N+
95.0856	184	C7H11+
96.0809	44	C6H10N+
103.0544	31	C8H7+
105.0699	999	C8H9+
107.0855	147	C8H11+
108.0808	45	C7H10N+
109.0888	16	C7H11N+
109.1012	21	C8H13+
110.0964	48	C7H12N+
115.0543	24	C9H7+
116.0621	16	C9H8+
117.0699	117	C9H9+
119.0856	435	C9H11+
121.1013	20	C9H13+
122.0964	38	C8H12N+
124.1121	50	C8H14N+
126.1278	33	C8H16N+
128.0619	17	C10H8+
129.0698	67	C10H9+
130.0779	32	C10H10+
131.0855	110	C10H11+
133.1012	113	C10H13+
134.0966	15	C9H12N+
136.1118	16	C9H14N+
142.0779	12	C11H10+
143.0857	40	C11H11+
144.0931	29	C11H12+
145.1014	58	C11H13+
147.1169	35	C11H15+
148.1122	43	C10H14N+
150.1278	69	C10H16N+
157.101	21	C12H13+
159.1171	26	C12H15+
161.1326	125	C12H17+
162.1282	31	C11H16N+
164.1435	32	C11H18N+
