Mass spectrum: Monocrotaline; LC-ESI-ITFT; MS2; CE: 95%; R=15000; [M+H]+
Name: Monocrotaline
Name: (1R,4R,5R,6R,16R)-5,6-dihydroxy-4,5,6-trimethyl-2,8-dioxa-13-azatricyclo[8.5.1.013,16]hexadec-10-ene-3,7-dione
Formula: C16H23NO6
Exact mass: 325.1525
SMILES: C[C@H]1C(=O)O[C@@H]2CCN3[C@@H]2C(=CC3)COC(=O)[C@]([C@]1(C)O)(C)O
InChI: InChI=1S/C16H23NO6/c1-9-13(18)23-11-5-7-17-6-4-10(12(11)17)8-22-14(19)16(3,21)15(9,2)20/h4,9,11-12,20-21H,5-8H2,1-3H3/t9-,11+,12+,15+,16-/m0/s1
Instrument: LTQ Orbitrap XL Thermo Scientific
Instrument type: LC-ESI-ITFT
Ms type: MS2
Ion mode: POSITIVE
Ionization: ESI
Fragmentation mode: HCD
Collision energy: 95% (nominal)
Resolution: 15000
Column name: Kinetex Evo C18 2.6 um 50 x 2.1 mm
Retention time: 0.629 min
Base peak: 326.1597
Precursor m/z: 326.1598
Precursor type: [M+H]+
m/z	relative intensity	assigned
67.0417	160	C4H5N+
67.0541	83	C5H7+
68.0495	122	C4H6N+
69.0574	21	C4H7N+
77.0387	39	C6H5+
79.0542	83	C6H7+
80.0495	237	C5H6N+
81.0576	38	C5H7N+
82.0652	101	C5H8N+
86.0601	36	C4H8NO+
91.0543	90	C7H7+
92.0496	46	C6H6N+
93.0575	70	C6H7N+
93.07	103	C7H9+
94.0652	850	C6H8N+
95.073	258	C6H9N+
96.0808	127	C6H10N+
103.0543	44	C8H7+
106.0651	80	C7H8N+
108.0808	94	C7H10N+
110.0603	37	C6H8NO+
110.0964	38	C7H12N+
112.0758	33	C6H10NO+
118.0648	33	C8H8N+
120.0809	999	C8H10N+
121.0888	140	C8H11N+
122.0965	132	C8H12N+
138.0913	130	C8H12NO+
139.099	26	C8H13NO+
156.1022	59	C8H14NO2+
