Mass spectrum: Erucifoline N-oxide; LC-ESI-ITFT; MS2; CE: 40%; R=15000; [M+H]+
Name: Erucifoline N-oxide
Name: (5R,7S,9Z,12R,18R)-9-ethylidene-7-(hydroxymethyl)-5-methyl-15-oxido-3,6,11-trioxa-15-azoniatetracyclo[10.5.1.05,7.015,18]octadec-1(17)-ene-4,10-dione
Formula: C18H23NO7
Exact mass: 365.1475
SMILES: C/C=C\1/C[C@@]2([C@@](O2)(C(=O)OCC3=CC[N+]4([C@H]3[C@@H](CC4)OC1=O)[O-])C)CO
InChI: InChI=1S/C18H23NO7/c1-3-11-8-18(10-20)17(2,26-18)16(22)24-9-12-4-6-19(23)7-5-13(14(12)19)25-15(11)21/h3-4,13-14,20H,5-10H2,1-2H3/b11-3-/t13-,14-,17+,18+,19?/m1/s1
Instrument: LTQ Orbitrap XL Thermo Scientific
Instrument type: LC-ESI-ITFT
Ms type: MS2
Ion mode: POSITIVE
Ionization: ESI
Fragmentation mode: HCD
Collision energy: 40% (nominal)
Resolution: 15000
Column name: Kinetex Evo C18 2.6 um 50 x 2.1 mm
Retention time: 1.127 min
Base peak: 366.1547
Precursor m/z: 366.1547
Precursor type: [M+H]+
m/z	relative intensity	assigned
79.0541	3	C6H7+
80.0495	6	C5H6N+
81.0702	3	C6H9+
91.0542	3	C7H7+
93.0573	17	C6H7N+
94.0652	26	C6H8N+
95.0729	31	C6H9N+
98.0601	3	C5H8NO+
106.0652	9	C7H8N+
107.073	6	C7H9N+
108.0808	16	C7H10N+
109.0644	3	C7H9O+
109.0886	6	C7H11N+
112.0758	6	C6H10NO+
118.0651	136	C8H8N+
119.073	146	C8H9N+
120.0808	107	C8H10N+
121.0886	15	C8H11N+
122.0964	21	C8H12N+
123.0441	5	C7H7O2+
123.1043	3	C8H13N+
124.0755	3	C7H10NO+
125.0597	2	C7H9O2+
136.0757	104	C8H10NO+
137.0596	3	C8H9O2+
137.0835	25	C8H11NO+
138.0681	4	C8H10O2+
138.0914	25	C8H12NO+
139.0756	2	C8H11O2+
140.107	7	C8H14NO+
149.0595	2	C9H9O2+
151.0386	4	C8H7O3+
154.0863	49	C8H12NO2+
160.1123	2	C11H14N+
162.0915	3	C10H12NO+
164.107	16	C10H14NO+
165.0543	12	C9H9O3+
165.0785	3	C9H11NO2+
167.0706	4	C9H11O3+
176.1077	2	C11H14NO+
183.065	6	C9H11O4+
190.1225	6	C12H16NO+
204.1017	4	C12H14NO2+
218.1178	18	C13H16NO2+
220.1334	5	C13H18NO2+
244.1327	5	C15H18NO2+
260.1286	2	C15H18NO3+
262.1433	3	C15H20NO3+
276.122	3	C15H18NO4+
278.1382	12	C15H20NO4+
286.1434	2	C17H20NO3+
288.1607	6	C17H22NO3+
290.1385	3	C16H20NO4+
304.1544	8	C17H22NO4+
338.1604	8	C17H24NO6+
366.1547	999	C18H24NO7+
