Mass spectrum: Senecionine N-oxide; LC-ESI-ITFT; MS2; CE: 40%; R=15000; [M+H]+
Name: Senecionine N-oxide
Name: (1R,4Z,6R,7R,17R)-4-ethylidene-7-hydroxy-6,7-dimethyl-14-oxido-2,9-dioxa-14-azoniatricyclo[9.5.1.014,17]heptadec-11-ene-3,8-dione
Formula: C18H25NO6
Exact mass: 351.1682
SMILES: C/C=C\1/C[C@H]([C@@](C(=O)OCC2=CC[N+]3([C@H]2[C@@H](CC3)OC1=O)[O-])(C)O)C
InChI: InChI=1S/C18H25NO6/c1-4-12-9-11(2)18(3,22)17(21)24-10-13-5-7-19(23)8-6-14(15(13)19)25-16(12)20/h4-5,11,14-15,22H,6-10H2,1-3H3/b12-4-/t11-,14-,15-,18-,19?/m1/s1
Instrument: LTQ Orbitrap XL Thermo Scientific
Instrument type: LC-ESI-ITFT
Ms type: MS2
Ion mode: POSITIVE
Ionization: ESI
Fragmentation mode: HCD
Collision energy: 40% (nominal)
Resolution: 15000
Column name: Kinetex Evo C18 2.6 um 50 x 2.1 mm
Retention time: 5.458 min
Base peak: 352.1754
Precursor m/z: 352.1755
Precursor type: [M+H]+
m/z	relative intensity	assigned
80.0491	2	C5H6N+
81.07	10	C6H9+
93.0574	6	C6H7N+
94.0652	12	C6H8N+
95.073	28	C6H9N+
106.0651	5	C7H8N+
107.0857	2	C8H11+
108.0807	6	C7H10N+
109.0648	2	C7H9O+
112.076	2	C6H10NO+
118.0651	77	C8H8N+
119.073	48	C8H9N+
120.0808	46	C8H10N+
121.0886	41	C8H11N+
122.0964	7	C8H12N+
125.096	4	C8H13O+
136.0756	42	C8H10NO+
137.0834	10	C8H11NO+
138.0914	31	C8H12NO+
139.0994	2	C8H13NO+
153.091	11	C9H13O2+
154.0864	25	C8H12NO2+
178.123	4	C11H16NO+
218.1175	3	C13H16NO2+
218.1542	2	C14H20NO+
220.1332	56	C13H18NO2+
246.1488	17	C15H20NO2+
248.1645	12	C15H22NO2+
254.1397	5	C13H20NO4+
324.1804	18	C17H26NO5+
352.1754	999	C18H26NO6+
