Mass spectrum: Daidzein; LC-ESI-ITFT; MS2; CE: 160%; R=15000; [M+H]+
Name: Daidzein
Name: 7-hydroxy-3-(4-hydroxyphenyl)chromen-4-one
Formula: C15H10O4
Exact mass: 254.0579
SMILES: OC1=CC=C(C=C1)C1=COC2=C(C=CC(O)=C2)C1=O
InChI: InChI=1S/C15H10O4/c16-10-3-1-9(2-4-10)13-8-19-14-7-11(17)5-6-12(14)15(13)18/h1-8,16-17H
Instrument: LTQ Orbitrap XL Thermo Scientific
Instrument type: LC-ESI-ITFT
Ms type: MS2
Ion mode: POSITIVE
Ionization: ESI
Fragmentation mode: HCD
Collision energy: 160 % (nominal)
Resolution: 15000
Column name: Kinetex Evo C18 2.6 um 50 x 2.1 mm
Retention time: 9.260 min
Base peak: 221.0748
Precursor m/z: 255.0652
Precursor type: [M+H]+
m/z	relative intensity	assigned
51.0228	33	C4H3+
53.0384	84	C4H5+
63.0229	63	C5H3+
65.0385	999	C5H5+
68.9971	83	C3HO2+
75.023	56	C6H3+
77.0387	123	C6H5+
78.0466	88	C6H6+
81.0336	241	C5H5O+
89.0388	99	C7H5+
91.0545	389	C7H7+
95.0494	29	C6H7O+
102.0468	65	C8H6+
103.0545	34	C8H7+
105.0339	78	C7H5O+
105.0451	182	C6H5N2+
115.0545	236	C9H7+
126.0466	63	C10H6+
127.0544	67	C10H7+
128.0622	208	C10H8+
131.0492	29	C9H7O+
137.0236	18	C7H5O3+
139.0545	38	C11H7+
141.0699	82	C11H9+
150.0466	51	C12H6+
151.0544	90	C12H7+
152.0622	605	C12H8+
153.07	34	C12H9+
155.0605	104	C10H7N2+
168.057	16	C12H8O+
169.0073	6	C14H+
179.0605	55	C12H7N2+
181.0651	30	C13H9O+
