Mass spectrum: alpha-Santonin; LC-ESI-ITFT; MS2; CE: 60%; R=15000; [M+H]+
Name: alpha-Santonin
Name: Santonin
Name: (3S,3aS,5aS,9bS)-3,5a,9-trimethyl-3a,4,5,9b-tetrahydro-3H-benzo[g][1]benzofuran-2,8-dione
Formula: C15H18O3
Exact mass: 246.1256
SMILES: C[C@H]1[C@@H]2CC[C@]3(C=CC(=O)C(=C3[C@H]2OC1=O)C)C
InChI: InChI=1S/C15H18O3/c1-8-10-4-6-15(3)7-5-11(16)9(2)12(15)13(10)18-14(8)17/h5,7-8,10,13H,4,6H2,1-3H3/t8-,10-,13-,15-/m0/s1
Instrument: LTQ Orbitrap XL Thermo Scientific
Instrument type: LC-ESI-ITFT
Ms type: MS2
Ion mode: POSITIVE
Ionization: ESI
Fragmentation mode: HCD
Collision energy: 60% (nominal)
Resolution: 15000
Column name: Kinetex Evo C18 2.6 um 50 x 2.1 mm
Retention time: 9.016 min
Base peak: 116.9859
Precursor m/z: 247.1329
Precursor type: [M+H]+
m/z	relative intensity	assigned
91.054	6	C7H7+
105.0701	6	C8H9+
117.0698	9	C9H9+
130.0777	7	C10H10+
131.0857	14	C10H11+
135.0805	156	C9H11O+
143.0859	4	C11H11+
145.1013	260	C11H13+
149.0963	31	C10H13O+
155.0856	92	C12H11+
158.0727	183	C11H10O+
159.0806	34	C11H11O+
160.0886	8	C11H12O+
161.0962	26	C11H13O+
172.0886	23	C12H12O+
173.0962	999	C12H13O+
174.1041	50	C12H14O+
186.104	23	C13H14O+
201.1273	76	C14H17O+
