Mass spectrum: Heliotrine N-oxide; LC-ESI-ITFT; MS2; CE: 95%; R=15000; [M+H]+
Name: Heliotrine N-oxide
Name: [(7S,8R)-7-hydroxy-4-oxido-5,6,7,8-tetrahydro-3H-pyrrolizin-4-ium-1-yl]methyl (2S)-2-hydroxy-2-[(1R)-1-methoxyethyl]-3-methylbutanoate
Formula: C16H27NO6
Exact mass: 329.1838
SMILES: C[C@H]([C@@](C(C)C)(C(=O)OCC1=CC[N+]2([C@H]1[C@H](CC2)O)[O-])O)OC
InChI: InChI=1S/C16H27NO6/c1-10(2)16(20,11(3)22-4)15(19)23-9-12-5-7-17(21)8-6-13(18)14(12)17/h5,10-11,13-14,18,20H,6-9H2,1-4H3/t11-,13+,14-,16+,17?/m1/s1
Instrument: LTQ Orbitrap XL Thermo Scientific
Instrument type: LC-ESI-ITFT
Ms type: MS2
Ion mode: POSITIVE
Ionization: ESI
Fragmentation mode: HCD
Collision energy: 95% (nominal)
Resolution: 15000
Column name: Kinetex Evo C18 2.6 um 50 x 2.1 mm
Retention time: 2.735 min
Base peak: 143.0015
Precursor m/z: 330.1911
Precursor type: [M+H]+
m/z	relative intensity	assigned
59.049	12	C3H7O+
67.0418	12	C4H5N+
67.0541	45	C5H7+
68.0495	72	C4H6N+
79.0541	21	C6H7+
80.0495	520	C5H6N+
81.0573	37	C5H7N+
81.0698	34	C6H9+
82.0414	29	C5H6O+
82.0651	90	C5H8N+
83.0491	76	C5H7O+
91.0544	12	C7H7+
92.0496	22	C6H6N+
93.0573	326	C6H7N+
94.0651	675	C6H8N+
95.0729	12	C6H9N+
96.0444	35	C5H6NO+
96.0808	20	C6H10N+
98.0601	35	C5H8NO+
102.055	107	C4H8NO2+
106.0651	108	C7H8N+
108.0807	88	C7H10N+
110.06	90	C6H8NO+
111.0678	999	C6H9NO+
112.0759	21	C6H10NO+
124.0757	156	C7H10NO+
128.0704	38	C6H10NO2+
136.0756	118	C8H10NO+
137.0836	35	C8H11NO+
138.0914	92	C8H12NO+
154.0863	35	C8H12NO2+
155.0938	41	C8H13NO2+
172.0968	445	C8H14NO3+
