Mass spectrum: Seneciphylline N-oxide; LC-ESI-ITFT; MS2; CE: 45%; R=15000; [M+H]+
Name: Seneciphylline N-oxide
Name: (1R,4E,7R,17R)-4-ethylidene-7-hydroxy-7-methyl-6-methylidene-14-oxido-2,9-dioxa-14-azoniatricyclo[9.5.1.014,17]heptadec-11-ene-3,8-dione
Formula: C18H23NO6
Exact mass: 349.1525
SMILES: C/C=C/1\CC(=C)[C@@](C(=O)OCC2=CC[N+]3([C@H]2[C@@H](CC3)OC1=O)[O-])(C)O
InChI: InChI=1S/C18H23NO6/c1-4-12-9-11(2)18(3,22)17(21)24-10-13-5-7-19(23)8-6-14(15(13)19)25-16(12)20/h4-5,14-15,22H,2,6-10H2,1,3H3/b12-4+/t14-,15-,18-,19?/m1/s1
Instrument: LTQ Orbitrap XL Thermo Scientific
Instrument type: LC-ESI-ITFT
Ms type: MS2
Ion mode: POSITIVE
Ionization: ESI
Fragmentation mode: HCD
Collision energy: 45% (nominal)
Resolution: 15000
Column name: Kinetex Evo C18 2.6 um 50 x 2.1 mm
Retention time: 2.971 min
Base peak: 350.1596
Precursor m/z: 350.1598
Precursor type: [M+H]+
m/z	relative intensity	assigned
79.0543	9	C6H7+
80.0496	11	C5H6N+
81.0698	6	C6H9+
82.0651	5	C5H8N+
84.0444	4	C4H6NO+
91.0541	10	C7H7+
93.0573	32	C6H7N+
93.0697	4	C7H9+
94.0651	76	C6H8N+
95.073	141	C6H9N+
98.0602	6	C5H8NO+
105.07	7	C8H9+
106.0652	39	C7H8N+
107.0491	29	C7H7O+
107.0725	4	C7H9N+
107.0853	4	C8H11+
108.0807	31	C7H10N+
109.0648	15	C7H9O+
109.0888	6	C7H11N+
111.0682	4	C6H9NO+
112.0758	22	C6H10NO+
118.0651	191	C8H8N+
119.073	190	C8H9N+
120.0808	231	C8H10N+
121.0886	64	C8H11N+
122.0725	19	C8H10O+
122.0965	28	C8H12N+
123.0804	19	C8H11O+
124.0758	3	C7H10NO+
132.0806	7	C9H10N+
133.0651	4	C9H9O+
134.0962	4	C9H12N+
135.0444	3	C8H7O2+
136.0757	142	C8H10NO+
137.0836	33	C8H11NO+
138.0913	137	C8H12NO+
139.0991	16	C8H13NO+
150.0677	9	C9H10O2+
151.0754	29	C9H11O2+
154.0862	89	C8H12NO2+
167.0703	8	C9H11O3+
178.1224	11	C11H16NO+
179.0701	4	C10H11O3+
197.0799	5	C10H13O4+
209.1177	5	C12H17O3+
218.1175	5	C13H16NO2+
232.1344	3	C14H18NO2+
246.1487	29	C15H20NO2+
274.1441	5	C16H20NO3+
288.1595	12	C17H22NO3+
322.1649	65	C17H24NO5+
350.1598	999	C18H24NO6+
