Mass spectrum: Senecivernine N-oxide; LC-ESI-ITFT; MS2; CE: 55%; R=15000; [M+H]+
Name: Senecivernine N-oxide
Name: CID 14313723
Name: 7-hydroxy-5,6,7-trimethyl-4-methylidene-14-oxido-2,9-dioxa-14-azoniatricyclo[9.5.1.014,17]heptadec-11-ene-3,8-dione
Formula: C18H25NO6
Exact mass: 351.1682
SMILES: CC1C(C(C(=O)OCC2=CC[N+]3(C2C(CC3)OC(=O)C1=C)[O-])(C)O)C
InChI: InChI=1S/C18H25NO6/c1-10-11(2)16(20)25-14-6-8-19(23)7-5-13(15(14)19)9-24-17(21)18(4,22)12(10)3/h5,10,12,14-15,22H,2,6-9H2,1,3-4H3
Instrument: LTQ Orbitrap XL Thermo Scientific
Instrument type: LC-ESI-ITFT
Ms type: MS2
Ion mode: POSITIVE
Ionization: ESI
Fragmentation mode: HCD
Collision energy: 55% (nominal)
Resolution: 15000
Column name: Kinetex Evo C18 2.6 um 50 x 2.1 mm
Retention time: 4.712 min
Base peak: 352.1754
Precursor m/z: 352.1755
Precursor type: [M+H]+
m/z	relative intensity	assigned
67.0543	17	C5H7+
79.0543	48	C6H7+
80.0495	52	C5H6N+
81.0699	156	C6H9+
82.0653	20	C5H8N+
84.0444	29	C4H6NO+
91.0546	16	C7H7+
93.0573	202	C6H7N+
94.0651	312	C6H8N+
95.073	594	C6H9N+
106.0652	205	C7H8N+
107.0856	38	C8H11+
108.0808	118	C7H10N+
109.0649	38	C7H9O+
109.0886	21	C7H11N+
109.1012	28	C8H13+
111.044	32	C6H7O2+
111.0677	22	C6H9NO+
112.0757	59	C6H10NO+
118.0652	682	C8H8N+
119.073	586	C8H9N+
120.0808	775	C8H10N+
121.0886	317	C8H11N+
122.0964	83	C8H12N+
125.0962	33	C8H13O+
136.0757	511	C8H10NO+
137.0836	89	C8H11NO+
138.0914	497	C8H12NO+
141.0905	20	C8H13O2+
152.1071	48	C9H14NO+
153.0911	103	C9H13O2+
154.0864	239	C8H12NO2+
192.1382	16	C12H18NO+
202.1228	32	C13H16NO+
211.1331	54	C12H19O3+
218.1178	39	C13H16NO2+
218.1543	15	C14H20NO+
220.1333	152	C13H18NO2+
246.1485	30	C15H20NO2+
248.1649	57	C15H22NO2+
290.1753	26	C17H24NO3+
324.1809	181	C17H26NO5+
352.1756	999	C18H26NO6+
