Mass spectrum: Anabasine; LC-ESI-ITFT; MS2; CE: 50%; R=15000; [M+H]+
Name: Anabasine
Formula: C10H14N2
Exact mass: 162.1157
SMILES: C1CCC(NC1)C1=CC=CN=C1
InChI: InChI=1S/C10H14N2/c1-2-7-12-10(5-1)9-4-3-6-11-8-9/h3-4,6,8,10,12H,1-2,5,7H2
Instrument: LTQ Orbitrap XL Thermo Scientific
Instrument type: LC-ESI-ITFT
Ms type: MS2
Ion mode: POSITIVE
Ionization: ESI
Fragmentation mode: HCD
Collision energy: 50 % (nominal)
Resolution: 15000
Column name: Kinetex Evo C18 2.6 um 50 x 2.1 mm
Retention time: 0.423 min
Base peak: 233.2013
Precursor m/z: 163.123
Precursor type: [M+H]+
m/z	relative intensity	assigned
65.0385	9	C5H5+
67.0542	3	C5H7+
70.0652	7	C4H8N+
80.0495	47	C5H6N+
82.0652	14	C5H8N+
84.0808	11	C5H10N+
91.0542	4	C7H7+
92.0495	219	C6H6N+
93.0573	7	C6H7N+
94.0651	240	C6H8N+
106.065	7	C7H8N+
107.073	3	C7H9N+
108.0809	1	C7H10N+
117.0573	52	C8H7N+
118.0651	200	C8H8N+
119.0731	1	C8H9N+
120.0808	142	C8H10N+
129.0699	7	C10H9+
130.0651	29	C9H8N+
131.0729	67	C9H9N+
132.0807	6	C9H10N+
133.0885	1	C9H11N+
134.0964	124	C9H12N+
144.0808	25	C10H10N+
146.0965	347	C10H12N+
163.123	999	C10H15N2+
