Mass spectrum: (+)-Lupanine; LC-ESI-ITFT; MS2; CE: 55%; R=15000; [M+H]+
Name: (+)-Lupanine
Formula: C15H24N2O
Exact mass: 248.1889
SMILES: C1CCN2CC3CC(C2C1)CN4C3CCCC4=O
InChI: InChI=1S/C15H24N2O/c18-15-6-3-5-14-11-8-12(10-17(14)15)13-4-1-2-7-16(13)9-11/h11-14H,1-10H2
Instrument: LTQ Orbitrap XL Thermo Scientific
Instrument type: LC-ESI-ITFT
Ms type: MS2
Ion mode: POSITIVE
Ionization: ESI
Fragmentation mode: CID
Collision energy: 55 % (nominal)
Resolution: 15000
Column name: Kinetex Evo C18 2.6 um 50 x 2.1 mm
Retention time: 0.491 min
Base peak: 249.1956
Precursor m/z: 249.1961
Precursor type: [M+H]+
m/z	relative intensity	assigned
70.0651	3	C4H8N+
79.0543	8	C6H7+
80.0495	21	C5H6N+
81.0702	2	C6H9+
82.0653	4	C5H8N+
84.0808	19	C5H10N+
85.0649	8	C5H9O+
91.0543	18	C7H7+
93.0699	3	C7H9+
94.0652	18	C6H8N+
96.0808	90	C6H10N+
98.0599	5	C5H8NO+
98.0965	93	C6H12N+
100.0756	4	C5H10NO+
105.0699	18	C8H9+
107.0857	5	C8H11+
108.0809	15	C7H10N+
109.0887	3	C7H11N+
109.1009	1	C8H13+
110.06	2	C6H8NO+
110.0965	13	C7H12N+
112.0758	52	C6H10NO+
112.1123	2	C7H14N+
114.0914	289	C6H12NO+
117.0702	2	C9H9+
119.0856	5	C9H11+
120.0809	4	C8H10N+
121.1011	5	C9H13+
122.0965	32	C8H12N+
124.0758	9	C7H10NO+
124.1123	17	C8H14N+
131.0859	6	C10H11+
133.1014	13	C10H13+
134.0966	149	C9H12N+
135.1043	4	C9H13N+
136.1121	999	C9H14N+
138.0915	8	C8H12NO+
138.1277	11	C9H16N+
140.1074	1	C8H14NO+
141.0702	3	C11H9+
143.0855	3	C11H11+
145.1015	4	C11H13+
146.097	3	C10H12N+
148.0759	11	C9H10NO+
148.1122	58	C10H14N+
150.0915	14	C9H12NO+
150.1279	235	C10H16N+
152.1072	43	C9H14NO+
152.1435	31	C10H18N+
155.0858	1	C12H11+
157.1015	2	C12H13+
159.117	7	C12H15+
162.0916	7	C10H12NO+
162.1278	12	C11H16N+
164.1072	8	C10H14NO+
166.1228	37	C10H16NO+
169.1015	5	C13H13+
173.1323	2	C13H17+
174.1279	24	C12H16N+
176.1072	9	C11H14NO+
176.1436	33	C12H18N+
178.1228	8	C11H16NO+
183.1172	2	C14H15+
186.128	3	C13H16N+
187.1121	6	C13H15O+
188.1436	9	C13H18N+
189.1388	49	C12H17N2+
190.1231	2	C12H16NO+
190.1462	3	C12H18N2+
190.1591	12	C13H20N+
193.1328	3	C11H17N2O+
193.1703	4	C12H21N2+
200.1433	7	C14H18N+
202.1227	2	C13H16NO+
204.1384	105	C13H18NO+
206.1541	23	C13H20NO+
207.1487	2	C12H19N2O+
214.1596	1	C15H20N+
218.1541	26	C14H20NO+
220.1699	4	C14H22NO+
229.17	6	C15H21N2+
231.1857	373	C15H23N2+
232.1697	4	C15H22NO+
