Mass spectrum: Jacobine N-oxide; LC-ESI-ITFT; MS2; CE: 105%; R=15000; [M+H]+
Name: Jacobine N-oxide
Name: (1R,3`S,4S,6R,7R,17R)-7-hydroxy-3`,6,7-trimethyl-14-oxidospiro[2,9-dioxa-14-azoniatricyclo[9.5.1.014,17]heptadec-11-ene-4,2`-oxirane]-3,8-dione
Formula: C18H25NO7
Exact mass: 367.1631
SMILES: C[C@@H]1C[C@]2([C@@H](O2)C)C(=O)O[C@@H]3CC[N+]4([C@@H]3C(=CC4)COC(=O)[C@]1(C)O)[O-]
InChI: InChI=1S/C18H25NO7/c1-10-8-18(11(2)26-18)16(21)25-13-5-7-19(23)6-4-12(14(13)19)9-24-15(20)17(10,3)22/h4,10-11,13-14,22H,5-9H2,1-3H3/t10-,11+,13-,14-,17-,18+,19?/m1/s1
Instrument: LTQ Orbitrap XL Thermo Scientific
Instrument type: LC-ESI-ITFT
Ms type: MS2
Ion mode: POSITIVE
Ionization: ESI
Fragmentation mode: HCD
Collision energy: 105% (nominal)
Resolution: 15000
Column name: Kinetex Evo C18 2.6 um 50 x 2.1 mm
Retention time: 1.286 min
Base peak: 143.0016
Precursor m/z: 368.1704
Precursor type: [M+H]+
m/z	relative intensity	assigned
65.0386	24	C5H5+
66.0462	46	C5H6+
67.0415	37	C4H5N+
67.0542	73	C5H7+
77.0386	144	C6H5+
79.0542	99	C6H7+
80.0495	255	C5H6N+
81.0575	28	C5H7N+
81.0699	41	C6H9+
82.0654	33	C5H8N+
91.0542	274	C7H7+
92.0495	115	C6H6N+
93.0573	312	C6H7N+
93.0701	38	C7H9+
94.0651	547	C6H8N+
95.0495	28	C6H7O+
95.0731	34	C6H9N+
96.0805	24	C6H10N+
103.0544	23	C8H7+
105.057	23	C7H7N+
106.0651	154	C7H8N+
107.0731	19	C7H9N+
108.0808	74	C7H10N+
110.0601	44	C6H8NO+
117.0573	59	C8H7N+
118.0651	396	C8H8N+
119.0729	89	C8H9N+
120.0808	999	C8H10N+
122.0965	42	C8H12N+
134.0971	23	C9H12N+
136.0754	43	C8H10NO+
