Mass spectrum: Lycopsamine N-oxide; LC-ESI-ITFT; MS2; CE: 50%; R=15000; [M+H]+
Name: Lycopsamine N-oxide
Name: [(7R,8R)-7-hydroxy-4-oxido-5,6,7,8-tetrahydro-3H-pyrrolizin-4-ium-1-yl]methyl (2S)-2-hydroxy-2-[(1S)-1-hydroxyethyl]-3-methylbutanoate
Formula: C15H25NO6
Exact mass: 315.1682
SMILES: C[C@@H]([C@@](C(C)C)(C(=O)OCC1=CC[N+]2([C@H]1[C@@H](CC2)O)[O-])O)O
InChI: InChI=1S/C15H25NO6/c1-9(2)15(20,10(3)17)14(19)22-8-11-4-6-16(21)7-5-12(18)13(11)16/h4,9-10,12-13,17-18,20H,5-8H2,1-3H3/t10-,12+,13+,15-,16?/m0/s1
Instrument: LTQ Orbitrap XL Thermo Scientific
Instrument type: LC-ESI-ITFT
Ms type: MS2
Ion mode: POSITIVE
Ionization: ESI
Fragmentation mode: HCD
Collision energy: 50% (nominal)
Resolution: 15000
Column name: Kinetex Evo C18 2.6 um 50 x 2.1 mm
Retention time: 1.288 min
Base peak: 143.0015
Precursor m/z: 316.1755
Precursor type: [M+H]+
m/z	relative intensity	assigned
68.0494	6	C4H6N+
73.0648	8	C4H9O+
80.0495	12	C5H6N+
82.0414	16	C5H6O+
82.0651	8	C5H8N+
83.0491	15	C5H7O+
93.0574	81	C6H7N+
94.0652	70	C6H8N+
95.0732	5	C6H9N+
98.0603	12	C5H8NO+
100.0758	6	C5H10NO+
102.055	7	C4H8NO2+
108.0808	26	C7H10N+
109.0649	6	C7H9O+
110.06	12	C6H8NO+
111.0679	28	C6H9NO+
112.0757	28	C6H10NO+
120.081	6	C8H10N+
126.0916	8	C7H12NO+
136.0758	136	C8H10NO+
137.0836	44	C8H11NO+
138.0914	551	C8H12NO+
139.0991	8	C8H13NO+
154.0863	118	C8H12NO2+
155.0942	161	C8H13NO2+
172.097	871	C8H14NO3+
226.1437	26	C12H20NO3+
272.1492	26	C13H22NO5+
298.1663	8	C15H24NO5+
316.1757	999	C15H26NO6+
