Mass spectrum: alpha-Cyperone; LC-ESI-ITFT; MS2; CE: 75%; R=15000; [M+H]+
Name: alpha-Cyperone
Formula: C15H22O
Exact mass: 218.1671
SMILES: CC1=C2CC(CCC2(CCC1=O)C)C(=C)C
InChI: InChI=1S/C15H22O/c1-10(2)12-5-7-15(4)8-6-14(16)11(3)13(15)9-12/h12H,1,5-9H2,2-4H3
Instrument: LTQ Orbitrap XL Thermo Scientific
Instrument type: LC-ESI-ITFT
Ms type: MS2
Ion mode: POSITIVE
Ionization: ESI
Fragmentation mode: HCD
Collision energy: 75 % (nominal)
Resolution: 15000
Column name: Kinetex Evo C18 2.6 um 50 x 2.1 mm
Retention time: 13.102 min
Base peak: 219.1742
Precursor m/z: 219.1743
Precursor type: [M+H]+
m/z	relative intensity	assigned
55.0541	18	C4H7+
65.0384	5	C5H5+
67.0542	151	C5H7+
69.0336	5	C4H5O+
69.0698	33	C5H9+
77.0386	17	C6H5+
79.0542	97	C6H7+
81.0699	241	C6H9+
83.0492	8	C5H7O+
83.0855	23	C6H11+
91.0542	105	C7H7+
93.0699	206	C7H9+
95.0492	11	C6H7O+
95.0855	177	C7H11+
97.0648	255	C6H9O+
105.0699	132	C8H9+
107.0856	141	C8H11+
109.0649	30	C7H9O+
109.1012	175	C8H13+
111.0804	999	C7H11O+
117.0699	25	C9H9+
119.0855	143	C9H11+
121.0647	42	C8H9O+
121.1011	79	C9H13+
123.0804	364	C8H11O+
124.088	5	C8H12O+
125.0961	10	C8H13O+
129.0695	6	C10H9+
130.0778	14	C10H10+
131.0855	49	C10H11+
133.1012	37	C10H13+
135.0804	92	C9H11O+
135.1169	41	C10H15+
136.0885	9	C9H12O+
137.0961	217	C9H13O+
138.1039	38	C9H14O+
143.0857	16	C11H11+
144.0932	9	C11H12+
145.1012	83	C11H13+
147.0801	8	C10H11O+
147.1168	42	C11H15+
148.0883	5	C10H12O+
149.0961	27	C10H13O+
150.1043	8	C10H14O+
159.117	31	C12H15+
161.0962	42	C11H13O+
161.1323	8	C12H17+
162.1041	8	C11H14O+
163.1118	101	C11H15O+
173.1321	10	C13H17+
175.1114	6	C12H15O+
176.1199	19	C12H16O+
177.128	7	C12H17O+
189.1273	23	C13H17O+
204.1511	12	C14H20O+
