Mass spectrum: Pterosin G; LC-ESI-ITFT; MS2; CE: 80%; R=15000; [M+H]+
Name: Pterosin G
Name: (S)-2,3-Dihydro-6-(2-hydroxyethyl)-2-(hydroxymethyl)-5,7-dimethyl-1H-inden-1-one
Name: (2S)-6-(2-hydroxyethyl)-2-(hydroxymethyl)-5,7-dimethyl-2,3-dihydroinden-1-one
Formula: C14H18O3
Exact mass: 234.1256
SMILES: CC1=CC2=C(C(=C1CCO)C)C(=O)[C@@H](C2)CO
InChI: InChI=1S/C14H18O3/c1-8-5-10-6-11(7-16)14(17)13(10)9(2)12(8)3-4-15/h5,11,15-16H,3-4,6-7H2,1-2H3/t11-/m0/s1
Instrument: LTQ Orbitrap XL Thermo Scientific
Instrument type: LC-ESI-ITFT
Ms type: MS2
Ion mode: POSITIVE
Ionization: ESI
Fragmentation mode: HCD
Collision energy: 80 % (nominal)
Resolution: 15000
Column name: Kinetex Evo C18 2.6 um 50 x 2.1 mm
Retention time: 8.432 min
Base peak: 235.1318
Precursor m/z: 235.1329
Precursor type: [M+H]+
m/z	relative intensity	assigned
91.054	17	C7H7+
105.0697	68	C8H9+
115.0543	26	C9H7+
119.0855	44	C9H11+
128.0618	197	C10H8+
129.0696	108	C10H9+
130.0776	41	C10H10+
131.0853	44	C10H11+
133.1011	32	C10H13+
141.0696	410	C11H9+
142.0774	94	C11H10+
143.0853	347	C11H11+
144.0931	58	C11H12+
145.101	43	C11H13+
154.0773	26	C12H10+
155.0852	108	C12H11+
156.0931	999	C12H12+
158.1084	25	C12H14+
159.0803	10	C11H11O+
159.1166	51	C12H15+
169.101	30	C13H13+
171.0803	35	C12H11O+
171.1166	142	C13H15+
187.1114	24	C13H15O+
189.127	57	C13H17O+
199.1116	22	C14H15O+
217.122	23	C14H17O2+
