Mass spectrum: Fraxidin; LC-ESI-ITFT; MS2; CE: 90%; R=15000; [M+H]+
Name: Fraxidin
Name: 8-hydroxy-6,7-dimethoxychromen-2-one
Formula: C11H10O5
Exact mass: 222.0528
SMILES: COC1=C(OC)C(O)=C2OC(=O)C=CC2=C1
InChI: InChI=1S/C11H10O5/c1-14-7-5-6-3-4-8(12)16-10(6)9(13)11(7)15-2/h3-5,13H,1-2H3
Instrument: LTQ Orbitrap XL Thermo Scientific
Instrument type: LC-ESI-ITFT
Ms type: MS2
Ion mode: POSITIVE
Ionization: ESI
Fragmentation mode: HCD
Collision energy: 90% (nominal)
Resolution: 15000
Column name: Kinetex Evo C18 2.6 um 50 x 2.1 mm
Retention time: 7.626 min
Base peak: 116.9858
Precursor m/z: 223.0601
Precursor type: [M+H]+
m/z	relative intensity	assigned
66.0463	32	C5H6+
76.0308	37	C6H4+
77.0386	58	C6H5+
78.0465	724	C6H6+
79.0542	36	C6H7+
81.0335	30	C5H5O+
88.0309	18	C7H4+
89.0387	31	C7H5+
90.0463	30	C7H6+
92.0258	58	C6H4O+
94.0414	34	C6H6O+
95.0492	27	C6H7O+
104.0257	36	C7H4O+
105.0335	356	C7H5O+
106.0414	357	C7H6O+
107.0492	83	C7H7O+
109.0284	25	C6H5O2+
116.0257	61	C8H4O+
117.0333	25	C8H5O+
118.0414	52	C8H6O+
120.0206	51	C7H4O2+
121.0285	14	C7H5O2+
122.0365	29	C7H6O2+
123.0441	183	C7H7O2+
132.0207	86	C8H4O2+
133.0285	390	C8H5O2+
134.0363	684	C8H6O2+
135.0441	327	C8H7O2+
137.0235	44	C7H5O3+
144.0206	57	C9H4O2+
145.0282	9	C9H5O2+
147.0077	10	C8H3O3+
149.0234	8	C8H5O3+
150.0313	146	C8H6O3+
151.0391	62	C8H7O3+
152.0469	38	C8H8O3+
160.0155	32	C9H4O3+
161.0234	157	C9H5O3+
162.0313	999	C9H6O3+
163.039	34	C9H7O3+
165.0184	64	C8H5O4+
167.0707	15	C9H11O3+
178.0261	249	C9H6O4+
179.034	337	C9H7O4+
180.042	17	C9H8O4+
190.0261	142	C10H6O4+
193.0128	12	C9H5O5+
205.0128	21	C10H5O5+
207.0288	427	C10H7O5+
208.0356	14	C10H8O5+
