Mass spectrum: Matairesinol; LC-ESI-ITFT; MS2; CE: 40%; R=15000; [M+H]+
Name: Matairesinol
Formula: C20H22O6
Exact mass: 358.1416
SMILES: COC1=CC(C[C@H]2COC(=O)[C@@H]2CC2=CC=C(O)C(OC)=C2)=CC=C1O
InChI: InChI=1S/C20H22O6/c1-24-18-9-12(3-5-16(18)21)7-14-11-26-20(23)15(14)8-13-4-6-17(22)19(10-13)25-2/h3-6,9-10,14-15,21-22H,7-8,11H2,1-2H3/t14-,15+/m0/s1
Instrument: LTQ Orbitrap XL Thermo Scientific
Instrument type: LC-ESI-ITFT
Ms type: MS2
Ion mode: POSITIVE
Ionization: ESI
Fragmentation mode: CID
Collision energy: 40 % (nominal)
Resolution: 15000
Column name: Kinetex Evo C18 2.6 um 50 x 2.1 mm
Retention time: 9.367 min
Base peak: 381.1304
Precursor m/z: 359.1489
Precursor type: [M+H]+
m/z	relative intensity	assigned
122.0362	13	C7H6O2+
131.049	9	C9H7O+
137.0597	355	C8H9O2+
145.0647	2	C10H9O+
149.0593	1	C9H9O2+
151.0389	25	C8H7O3+
163.0754	40	C10H11O2+
177.0545	1	C10H9O3+
177.091	6	C11H13O2+
179.0704	6	C10H11O3+
189.0911	2	C12H13O2+
191.0703	40	C11H11O3+
203.0703	32	C12H11O3+
205.086	44	C12H13O3+
217.0859	13	C13H13O3+
221.0808	38	C12H13O4+
223.0964	292	C12H15O4+
235.0964	117	C13H15O4+
263.1066	2	C18H15O2+
281.1169	5	C18H17O3+
291.1015	48	C19H15O3+
295.1326	10	C19H19O3+
305.1172	42	C20H17O3+
309.1119	18	C19H17O4+
323.1276	152	C20H19O4+
341.1382	999	C20H21O5+
