Mass spectrum: Pterosin A; LC-ESI-ITFT; MS2; CE: 45%; R=15000; [M+H]+
Name: Pterosin A
Name: (2S)-6-(2-hydroxyethyl)-2-(hydroxymethyl)-2,5,7-trimethyl-3H-inden-1-one
Formula: C15H20O3
Exact mass: 248.1412
SMILES: CC1=CC2=C(C(=C1CCO)C)C(=O)[C@](C2)(C)CO
InChI: InChI=1S/C15H20O3/c1-9-6-11-7-15(3,8-17)14(18)13(11)10(2)12(9)4-5-16/h6,16-17H,4-5,7-8H2,1-3H3/t15-/m0/s1
Instrument: LTQ Orbitrap XL Thermo Scientific
Instrument type: LC-ESI-ITFT
Ms type: MS2
Ion mode: POSITIVE
Ionization: ESI
Fragmentation mode: HCD
Collision energy: 45 % (nominal)
Resolution: 15000
Column name: Kinetex Evo C18 2.6 um 50 x 2.1 mm
Retention time: 9.274 min
Base peak: 249.1476
Precursor m/z: 249.1485
Precursor type: [M+H]+
m/z	relative intensity	assigned
129.0697	3	C10H9+
133.1008	12	C10H13+
142.0771	4	C11H10+
143.0853	15	C11H11+
145.1009	6	C11H13+
156.0929	12	C12H12+
157.1006	94	C12H13+
159.1162	10	C12H15+
163.1113	35	C11H15O+
169.1017	4	C13H13+
170.1085	96	C13H14+
173.1316	10	C13H17+
183.1168	4	C14H15+
184.088	7	C13H12O+
185.1319	725	C14H17+
198.1031	11	C14H14O+
201.127	27	C14H17O+
203.1424	999	C14H19O+
213.1267	121	C15H17O+
231.1371	359	C15H19O2+
