Mass spectrum: Lycorine; LC-ESI-ITFT; MS2; CE: 50%; R=15000; [M+H]+
Name: Lycorine
Name: (1S,17S,18S,19S)-5,7-dioxa-12-azapentacyclo[10.6.1.02,10.04,8.015,19]nonadeca-2,4(8),9,15-tetraene-17,18-diol
Formula: C16H17NO4
Exact mass: 287.1158
SMILES: C1CN2CC3=CC4=C(C=C3[C@H]5[C@H]2C1=C[C@@H]([C@H]5O)O)OCO4
InChI: InChI=1S/C16H17NO4/c18-11-3-8-1-2-17-6-9-4-12-13(21-7-20-12)5-10(9)14(15(8)17)16(11)19/h3-5,11,14-16,18-19H,1-2,6-7H2/t11-,14-,15+,16+/m0/s1
Instrument: LTQ Orbitrap XL Thermo Scientific
Instrument type: LC-ESI-ITFT
Ms type: MS2
Ion mode: POSITIVE
Ionization: ESI
Fragmentation mode: HCD
Collision energy: 50% (nominal)
Resolution: 15000
Column name: Kinetex Evo C18 2.6 um 50 x 2.1 mm
Retention time: 0.632 min
Base peak: 288.1228
Precursor m/z: 288.123
Precursor type: [M+H]+
m/z	relative intensity	assigned
82.0651	31	C5H8N+
83.0491	42	C5H7O+
95.0491	105	C6H7O+
106.0651	24	C7H8N+
110.0602	12	C6H8NO+
111.0678	42	C6H9NO+
112.0757	168	C6H10NO+
119.0491	357	C8H7O+
122.0599	12	C7H8NO+
124.0757	84	C7H10NO+
134.06	52	C8H8NO+
135.044	21	C8H7O2+
147.044	999	C9H7O2+
149.0597	26	C9H9O2+
152.0702	12	C8H10NO2+
173.0595	10	C11H9O2+
175.0388	14	C10H7O3+
177.0546	526	C10H9O3+
188.071	9	C11H10NO2+
194.0964	25	C14H12N+
199.0755	22	C13H11O2+
212.1071	21	C14H14NO+
213.091	12	C14H13O2+
222.0912	78	C15H12NO+
225.0909	15	C15H13O2+
228.1021	11	C14H14NO2+
240.1019	41	C15H14NO2+
241.0859	17	C15H13O3+
242.1179	53	C15H16NO2+
250.0861	10	C16H12NO2+
252.102	91	C16H14NO2+
268.0967	6	C16H14NO3+
270.1125	339	C16H16NO3+
288.1231	983	C16H18NO4+
