Mass spectrum: Vincamin; LC-ESI-ITFT; MS2; CE: 85%; R=15000; [M+H]+
Name: Vincamin
Name: Vincamine
Name: methyl (15S,17S,19S)-15-ethyl-17-hydroxy-1,11-diazapentacyclo[9.6.2.02,7.08,18.015,19]nonadeca-2,4,6,8(18)-tetraene-17-carboxylate
Formula: C21H26N2O3
Exact mass: 354.1943
SMILES: CC[C@@]12CCCN3[C@@H]1C4=C(CC3)C5=CC=CC=C5N4[C@](C2)(C(=O)OC)O
InChI: InChI=1S/C21H26N2O3/c1-3-20-10-6-11-22-12-9-15-14-7-4-5-8-16(14)23(17(15)18(20)22)21(25,13-20)19(24)26-2/h4-5,7-8,18,25H,3,6,9-13H2,1-2H3/t18-,20+,21+/m1/s1
Instrument: LTQ Orbitrap XL Thermo Scientific
Instrument type: LC-ESI-ITFT
Ms type: MS2
Ion mode: POSITIVE
Ionization: ESI
Fragmentation mode: HCD
Collision energy: 85% (nominal)
Resolution: 15000
Column name: Kinetex Evo C18 2.6 um 50 x 2.1 mm
Retention time: 6.603 min
Base peak: 355.2016
Precursor m/z: 355.2016
Precursor type: [M+H]+
m/z	relative intensity	assigned
55.0541	13	C4H7+
67.0542	79	C5H7+
68.0493	15	C4H6N+
69.0699	5	C5H9+
70.0651	90	C4H8N+
77.0385	14	C6H5+
79.0542	53	C6H7+
80.0494	18	C5H6N+
81.0335	12	C5H5O+
81.0698	33	C6H9+
82.0651	15	C5H8N+
83.0491	93	C5H7O+
84.0807	14	C5H10N+
91.0542	100	C7H7+
93.0572	7	C6H7N+
93.0698	89	C7H9+
94.0651	30	C6H8N+
95.0492	14	C6H7O+
95.0855	249	C7H11+
96.0808	32	C6H10N+
98.0964	17	C6H12N+
103.0542	17	C8H7+
105.0448	7	C6H5N2+
105.0698	91	C8H9+
106.0651	19	C7H8N+
107.0855	62	C8H11+
108.0807	42	C7H10N+
109.065	11	C7H9O+
109.0886	6	C7H11N+
110.0964	151	C7H12N+
111.1042	19	C7H13N+
112.112	19	C7H14N+
115.0543	28	C9H7+
117.0572	18	C8H7N+
117.0698	109	C9H9+
118.0652	22	C8H8N+
119.0727	9	C8H9N+
119.0857	8	C9H11+
120.0808	20	C8H10N+
121.0648	23	C8H9O+
122.06	34	C7H8NO+
122.0964	26	C8H12N+
123.0804	70	C8H11O+
123.1041	19	C8H13N+
124.0757	31	C7H10NO+
124.1121	139	C8H14N+
128.0499	6	C9H6N+
128.0621	11	C10H8+
129.0697	37	C10H9+
130.065	75	C9H8N+
131.0729	27	C9H9N+
132.0807	32	C9H10N+
133.0649	14	C9H9O+
134.0963	110	C9H12N+
135.0804	33	C9H11O+
136.0755	21	C8H10NO+
138.1275	7	C9H16N+
141.0698	7	C11H9+
142.0649	14	C10H8N+
143.073	103	C10H9N+
144.0807	999	C10H10N+
146.0593	6	C9H8NO+
146.0965	20	C10H12N+
152.107	145	C9H14NO+
154.0649	24	C11H8N+
155.0604	33	C10H7N2+
155.0727	15	C11H9N+
156.0806	59	C11H10N+
157.0884	38	C11H11N+
158.0964	50	C11H12N+
162.0914	20	C10H12NO+
165.0696	16	C13H9+
166.0773	9	C13H10+
167.0731	50	C12H9N+
167.0848	7	C13H11+
168.0807	71	C12H10N+
169.0761	9	C11H9N2+
169.0885	17	C12H11N+
170.06	37	C11H8NO+
170.0963	43	C12H12N+
172.112	16	C12H14N+
178.0774	25	C14H10+
179.0854	15	C14H11+
180.0807	109	C13H10N+
181.0885	62	C13H11N+
181.1013	8	C14H13+
182.0965	60	C13H12N+
183.0913	11	C12H11N2+
183.1041	8	C13H13N+
184.0754	9	C12H10NO+
184.1118	10	C13H14N+
190.0649	7	C14H8N+
191.0728	53	C14H9N+
192.0809	52	C14H10N+
192.0932	14	C15H12+
193.0886	89	C14H11N+
193.101	20	C15H13+
194.0966	80	C14H12N+
195.0918	6	C13H11N2+
195.1045	30	C14H13N+
196.0758	9	C13H10NO+
196.1122	27	C14H14N+
197.1071	11	C13H13N2+
198.1274	9	C14H16N+
202.0781	5	C16H10+
204.0807	120	C15H10N+
205.0887	118	C15H11N+
206.0964	172	C15H12N+
207.1046	76	C15H13N+
207.1166	12	C16H15+
208.0752	12	C14H10NO+
208.112	179	C15H14N+
209.1205	41	C15H15N+
210.128	29	C15H16N+
211.1232	11	C14H15N2+
216.0807	6	C16H10N+
217.0885	38	C16H11N+
218.0964	114	C16H12N+
219.0927	17	C15H11N2+
219.1044	140	C16H13N+
220.112	211	C16H14N+
221.1209	49	C16H15N+
222.0914	15	C15H12NO+
222.1276	114	C16H16N+
223.1237	30	C15H15N2+
224.131	20	C15H16N2+
224.1434	29	C16H18N+
230.0964	15	C17H12N+
231.1041	17	C17H13N+
232.0752	8	C16H10NO+
232.1119	58	C17H14N+
233.0843	11	C16H11NO+
233.1074	9	C16H13N2+
233.1203	26	C17H15N+
234.0917	8	C16H12NO+
234.1276	151	C17H16N+
236.1078	7	C16H14NO+
236.1437	22	C17H18N+
237.0777	15	C15H11NO2+
237.1387	24	C16H17N2+
238.0861	99	C15H12NO2+
239.0944	62	C15H13NO2+
246.1272	7	C18H16N+
247.1233	40	C17H15N2+
248.1315	14	C17H16N2+
248.1435	37	C18H18N+
249.1391	33	C17H17N2+
250.086	83	C16H12NO2+
250.1591	15	C18H20N+
251.0941	141	C16H13NO2+
252.102	162	C16H14NO2+
253.1108	50	C16H15NO2+
263.0942	11	C17H13NO2+
264.1017	479	C17H14NO2+
265.11	272	C17H15NO2+
266.1176	296	C17H16NO2+
267.1261	84	C17H17NO2+
268.1341	32	C17H18NO2+
275.1178	12	C18H15N2O+
276.1019	18	C18H14NO2+
278.1173	262	C18H16NO2+
279.1254	119	C18H17NO2+
280.133	259	C18H18NO2+
290.1171	36	C19H16NO2+
292.1324	109	C19H18NO2+
294.1486	83	C19H20NO2+
307.1438	55	C19H19N2O2+
