Mass spectrum: (+)-Chelidonine; LC-ESI-ITFT; MS2; CE: 50%; R=15000; [M+H]+
Name: (+)-Chelidonine
Name: Chelidonine
Name: (1S,12S,13R)-24-methyl-5,7,18,20-tetraoxa-24-azahexacyclo[11.11.0.02,10.04,8.014,22.017,21]tetracosa-2,4(8),9,14(22),15,17(21)-hexaen-12-ol
Formula: C20H19NO5
Exact mass: 353.1263
SMILES: CN1Cc2c(ccc3c2OCO3)[C@@H]4[C@H]1c5cc6c(cc5C[C@@H]4O)OCO6
InChI: InChI=1S/C20H19NO5/c1-21-7-13-11(2-3-15-20(13)26-9-23-15)18-14(22)4-10-5-16-17(25-8-24-16)6-12(10)19(18)21/h2-3,5-6,14,18-19,22H,4,7-9H2,1H3/t14-,18-,19+/m0/s1
Instrument: LTQ Orbitrap XL Thermo Scientific
Instrument type: LC-ESI-ITFT
Ms type: MS2
Ion mode: POSITIVE
Ionization: ESI
Fragmentation mode: HCD
Collision energy: 50% (nominal)
Resolution: 15000
Column name: Kinetex Evo C18 2.6 um 50 x 2.1 mm
Retention time: 6.949 min
Base peak: 354.1336
Precursor m/z: 354.1336
Precursor type: [M+H]+
m/z	relative intensity	assigned
131.0492	2	C9H7O+
133.0286	2	C8H5O2+
135.0441	113	C8H7O2+
143.0492	9	C10H7O+
146.0607	3	C9H8NO+
148.0519	1	C9H8O2+
149.0235	5	C8H5O3+
149.0598	8	C9H9O2+
151.0393	3	C8H7O3+
159.0442	14	C10H7O2+
161.0598	49	C10H9O2+
163.0391	106	C9H7O3+
173.0599	19	C11H9O2+
175.039	5	C10H7O3+
175.0624	2	C10H9NO2+
176.0708	26	C10H10NO2+
187.0391	8	C11H7O3+
188.0707	60	C11H10NO2+
189.0694	7	C15H9+
201.0537	1	C12H9O3+
207.0804	8	C15H11O+
217.0649	34	C16H9O+
219.0807	4	C16H11O+
235.0755	26	C16H11O2+
237.0911	47	C16H13O2+
245.0599	28	C17H9O2+
247.0755	380	C17H11O2+
249.0911	6	C17H13O2+
263.0706	10	C17H11O3+
265.0861	73	C17H13O3+
267.0655	2	C16H11O4+
275.0704	999	C18H11O3+
277.0863	3	C18H13O3+
278.0576	1	C17H10O4+
279.065	1	C17H11O4+
293.0809	36	C18H13O4+
295.0967	65	C18H15O4+
305.081	76	C19H13O4+
307.0963	3	C19H15O4+
323.0916	49	C19H15O5+
336.1231	40	C20H18NO4+
354.1338	14	C20H20NO5+
