Mass spectrum: Tomatidine; LC-ESI-ITFT; MS2; CE: 20%; R=15000; [M+H]+
Name: Tomatidine
Formula: C27H45NO2
Exact mass: 415.3450
SMILES: C[C@H]1[C@H]2[C@H](C[C@H]3[C@@H]4CC[C@H]5C[C@@H](O)CC[C@]5(C)[C@H]4CC[C@]23C)O[C@@]11CC[C@H](C)CN1
InChI: InChI=1S/C27H45NO2/c1-16-7-12-27(28-15-16)17(2)24-23(30-27)14-22-20-6-5-18-13-19(29)8-10-25(18,3)21(20)9-11-26(22,24)4/h16-24,28-29H,5-15H2,1-4H3/t16-,17-,18-,19-,20+,21-,22-,23-,24-,25-,26-,27-/m0/s1
Instrument: LTQ Orbitrap XL Thermo Scientific
Instrument type: LC-ESI-ITFT
Ms type: MS2
Ion mode: POSITIVE
Ionization: ESI
Fragmentation mode: CID
Collision energy: 20 % (nominal)
Resolution: 15000
Column name: Kinetex Evo C18 2.6 um 50 x 2.1 mm
Retention time: 10.058 min
Base peak: 217.0492
Precursor m/z: 416.3523
Precursor type: [M+H]+
m/z	relative intensity	assigned
119.0857	1	C9H11+
124.1122	1	C8H14N+
126.1278	17	C8H16N+
131.0856	4	C10H11+
133.1013	3	C10H13+
135.117	3	C10H15+
145.1013	10	C11H13+
147.1169	14	C11H15+
149.1328	2	C11H17+
151.1118	1	C10H15O+
157.1017	1	C12H13+
159.1169	9	C12H15+
161.1326	30	C12H17+
163.1118	4	C11H15O+
171.1171	1	C13H15+
173.1326	15	C13H17+
175.148	1	C13H19+
185.1326	5	C14H17+
187.1483	4	C14H19+
189.1642	1	C14H21+
199.1482	10	C15H19+
213.164	6	C16H21+
215.1798	4	C16H23+
227.1798	5	C17H23+
255.211	159	C19H27+
273.2215	144	C19H29O+
398.3424	413	C27H44NO+
416.3526	999	C27H46NO2+
