Mass spectrum: Echimidine N-oxide; LC-ESI-ITFT; MS2; CE: 75%; R=15000; [M+H]+
Name: Echimidine N-oxide
Name: [(7R,8R)-7-[(Z)-2-methylbut-2-enoyl]oxy-4-oxido-5,6,7,8-tetrahydro-3H-pyrrolizin-4-ium-1-yl]methyl (2R)-2,3-dihydroxy-2-[(1S)-1-hydroxyethyl]-3-methylbutanoate
Formula: C20H31NO8
Exact mass: 413.2050
SMILES: C/C=C(/C)\C(=O)O[C@@H]1CC[N+]2([C@@H]1C(=CC2)COC(=O)[C@@]([C@H](C)O)(C(C)(C)O)O)[O-]
InChI: InChI=1S/C20H31NO8/c1-6-12(2)17(23)29-15-8-10-21(27)9-7-14(16(15)21)11-28-18(24)20(26,13(3)22)19(4,5)25/h6-7,13,15-16,22,25-26H,8-11H2,1-5H3/b12-6-/t13-,15+,16+,20-,21?/m0/s1
Instrument: LTQ Orbitrap XL Thermo Scientific
Instrument type: LC-ESI-ITFT
Ms type: MS2
Ion mode: POSITIVE
Ionization: ESI
Fragmentation mode: HCD
Collision energy: 75% (nominal)
Resolution: 15000
Column name: Kinetex Evo C18 2.6 um 50 x 2.1 mm
Retention time: 6.568 min
Base peak: 414.2116
Precursor m/z: 414.2122
Precursor type: [M+H]+
m/z	relative intensity	assigned
55.0541	217	C4H7+
67.0542	15	C5H7+
68.0494	56	C4H6N+
79.0542	81	C6H7+
80.0495	150	C5H6N+
81.0336	14	C5H5O+
81.0573	38	C5H7N+
81.0699	98	C6H9+
82.0414	15	C5H6O+
82.0652	45	C5H8N+
83.0492	999	C5H7O+
84.0444	90	C4H6NO+
91.0542	54	C7H7+
92.0495	13	C6H6N+
93.0573	291	C6H7N+
93.0701	17	C7H9+
94.0651	494	C6H8N+
95.073	75	C6H9N+
96.0444	19	C5H6NO+
96.0807	11	C6H10N+
97.0645	9	C6H9O+
98.0601	20	C5H8NO+
106.0651	480	C7H8N+
107.0729	34	C7H9N+
107.0856	20	C8H11+
108.0808	213	C7H10N+
109.0647	37	C7H9O+
109.0886	40	C7H11N+
110.06	58	C6H8NO+
111.0679	233	C6H9NO+
112.0758	50	C6H10NO+
117.0572	11	C8H7N+
118.0651	206	C8H8N+
119.073	300	C8H9N+
120.0808	512	C8H10N+
121.0886	40	C8H11N+
122.0596	21	C7H8NO+
122.0962	28	C8H12N+
124.0757	106	C7H10NO+
126.0913	38	C7H12NO+
132.0806	10	C9H10N+
136.0757	618	C8H10NO+
137.0835	444	C8H11NO+
138.0914	93	C8H12NO+
140.0708	12	C7H10NO2+
141.091	501	C8H13O2+
146.0962	16	C10H12N+
147.1041	17	C10H13N+
148.112	18	C10H14N+
152.1072	19	C9H14NO+
154.0863	294	C8H12NO2+
160.1119	21	C11H14N+
161.0832	9	C10H11NO+
162.0908	10	C10H12NO+
164.1074	10	C10H14NO+
172.0967	38	C8H14NO3+
174.0918	14	C11H12NO+
174.1277	25	C12H16N+
175.0995	11	C11H13NO+
176.1073	17	C11H14NO+
190.1226	20	C12H16NO+
192.1383	24	C12H18NO+
218.1175	33	C13H16NO2+
220.1333	97	C13H18NO2+
237.1353	15	C13H19NO3+
254.1387	317	C13H20NO4+
