Mass spectrum: Homoharringtonine; LC-ESI-ITFT; MS2; CE: 45%; R=15000; [M+H]+
Name: Homoharringtonine
Name: Omacetaxine mepesuccinate
Name: 1-O-[(2S,3S,6R)-4-methoxy-16,18-dioxa-10-azapentacyclo[11.7.0.02,6.06,10.015,19]icosa-1(20),4,13,15(19)-tetraen-3-yl] 4-O-methyl (2R)-2-hydroxy-2-(4-hydroxy-4-methylpentyl)butanedioate
Formula: C29H39NO9
Exact mass: 545.2625
SMILES: CC(C)(CCC[C@@](CC(=O)OC)(C(=O)O[C@H]1[C@H]2c3cc4c(cc3CCN5[C@@]2(CCC5)C=C1OC)OCO4)O)O
InChI: InChI=1S/C29H39NO9/c1-27(2,33)8-5-10-29(34,16-23(31)36-4)26(32)39-25-22(35-3)15-28-9-6-11-30(28)12-7-18-13-20-21(38-17-37-20)14-19(18)24(25)28/h13-15,24-25,33-34H,5-12,16-17H2,1-4H3/t24-,25-,28+,29-/m1/s1
Instrument: LTQ Orbitrap XL Thermo Scientific
Instrument type: LC-ESI-ITFT
Ms type: MS2
Ion mode: POSITIVE
Ionization: ESI
Fragmentation mode: HCD
Collision energy: 45% (nominal)
Resolution: 15000
Column name: Kinetex Evo C18 2.6 um 50 x 2.1 mm
Retention time: 7.145 min
Base peak: 546.2695
Precursor m/z: 546.2698
Precursor type: [M+H]+
m/z	relative intensity	assigned
59.049	4	C3H7O+
70.0651	7	C4H8N+
75.0441	2	C3H7O2+
85.0648	6	C5H9O+
93.0698	13	C7H9+
100.0756	4	C5H10NO+
107.0855	12	C8H11+
109.0647	32	C7H9O+
110.0601	1	C6H8NO+
111.0805	3	C7H11O+
120.0807	9	C8H10N+
121.0647	5	C8H9O+
123.0803	22	C8H11O+
125.0596	1	C7H9O2+
126.0912	27	C7H12NO+
129.0545	9	C6H9O3+
131.049	4	C9H7O+
135.0441	5	C8H7O2+
135.0805	2	C9H11O+
149.0596	8	C9H9O2+
150.0912	157	C9H12NO+
153.0904	3	C9H13O2+
159.0442	6	C10H7O2+
161.0597	13	C10H9O2+
163.0996	3	C10H13NO+
167.1066	6	C10H15O2+
170.0598	3	C11H8NO+
173.0596	18	C11H9O2+
174.0548	8	C10H8NO2+
175.0636	1	C10H9NO2+
176.0704	59	C10H10NO2+
181.1018	1	C14H13+
185.0595	8	C12H9O2+
187.0752	2	C12H11O2+
190.0862	4	C11H12NO2+
191.0854	6	C15H11+
193.0657	1	C14H9O+
195.0804	4	C14H11O+
197.059	2	C13H9O2+
197.0954	5	C14H13O+
199.0751	9	C13H11O2+
200.0705	10	C12H10NO2+
202.0869	3	C12H12NO2+
207.0799	4	C15H11O+
208.0888	1	C15H12O+
208.1115	8	C15H14N+
209.0967	2	C15H13O+
211.0754	7	C14H11O2+
212.0715	2	C13H10NO2+
213.0907	4	C14H13O2+
214.0862	7	C13H12NO2+
215.0703	31	C13H11O3+
216.1014	3	C13H14NO2+
219.0804	9	C16H11O+
223.0753	38	C15H11O2+
223.1116	27	C16H15O+
224.076	4	C7H14NO7+
225.0909	18	C15H13O2+
226.0862	98	C14H12NO2+
227.0942	142	C14H13NO2+
229.0858	29	C14H13O3+
229.1096	50	C14H15NO2+
230.1096	4	C18H14+
236.0823	4	C16H12O2+
236.107	17	C16H14NO+
237.0909	22	C16H13O2+
238.0866	14	C15H12NO2+
238.1218	2	C16H16NO+
239.0704	7	C15H11O3+
239.1069	9	C16H15O2+
240.0783	21	C15H12O3+
240.1017	89	C15H14NO2+
241.0868	8	C15H13O3+
242.081	22	C14H12NO3+
243.1015	6	C15H15O3+
249.0909	16	C17H13O2+
251.1065	114	C17H15O2+
252.0782	5	C16H12O3+
253.0858	50	C16H13O3+
253.1098	27	C16H15NO2+
254.1186	7	C16H16NO2+
255.1013	33	C16H15O3+
255.126	5	C16H17NO2+
257.1049	2	C15H15NO3+
264.102	3	C17H14NO2+
266.1173	208	C17H16NO2+
267.1259	84	C17H17NO2+
268.0965	16	C16H14NO3+
268.1344	22	C17H18NO2+
269.1169	19	C17H17O3+
269.1371	4	C14H21O5+
270.112	50	C16H16NO3+
281.117	28	C18H17O3+
282.1125	6	C17H16NO3+
283.1202	39	C17H17NO3+
284.1281	138	C17H18NO3+
296.1279	12	C18H18NO3+
298.1435	999	C18H20NO3+
316.154	72	C18H22NO4+
