Mass spectrum: Conessine; LC-ESI-ITFT; MS2; CE: 70%; R=15000; [M+H]+
Name: Conessine
Formula: C24H40N2
Exact mass: 356.3191
SMILES: C[C@H]1[C@H]2CC[C@H]3[C@@H]4CC=C5C[C@H](CC[C@]5(C)[C@H]4CC[C@]23CN1C)N(C)C
InChI: InChI=1S/C24H40N2/c1-16-20-8-9-22-19-7-6-17-14-18(25(3)4)10-12-23(17,2)21(19)11-13-24(20,22)15-26(16)5/h6,16,18-22H,7-15H2,1-5H3/t16-,18-,19+,20+,21-,22-,23-,24-/m0/s1
Instrument: LTQ Orbitrap XL Thermo Scientific
Instrument type: LC-ESI-ITFT
Ms type: MS2
Ion mode: POSITIVE
Ionization: ESI
Fragmentation mode: HCD
Collision energy: 70 % (nominal)
Resolution: 15000
Column name: Kinetex Evo C18 2.6 um 50 x 2.1 mm
Retention time: 5.272 min
Base peak: 179.1668
Precursor m/z: 357.3264
Precursor type: [M+H]+
m/z	relative intensity	assigned
55.054	19	C4H7+
58.0649	10	C3H8N+
67.0542	109	C5H7+
69.0699	12	C5H9+
70.0652	9	C4H8N+
72.0807	43	C4H10N+
79.0542	124	C6H7+
81.0699	221	C6H9+
83.0855	35	C6H11+
84.0808	999	C5H10N+
91.0542	135	C7H7+
93.0699	215	C7H9+
95.0855	127	C7H11+
105.0698	200	C8H9+
107.0855	126	C8H11+
109.1012	246	C8H13+
117.0698	71	C9H9+
119.0856	128	C9H11+
121.1012	112	C9H13+
123.1169	43	C9H15+
129.0701	18	C10H9+
131.0856	128	C10H11+
133.1012	183	C10H13+
135.1168	142	C10H15+
143.0856	24	C11H11+
144.0932	13	C11H12+
145.1012	180	C11H13+
147.1168	345	C11H15+
149.1325	34	C11H17+
157.1012	64	C12H13+
159.1169	415	C12H15+
161.1325	287	C12H17+
171.1168	29	C13H15+
173.1325	151	C13H17+
175.1483	15	C13H19+
183.1172	13	C14H15+
185.1325	35	C14H17+
187.1482	150	C14H19+
197.1317	9	C15H17+
199.1481	29	C15H19+
201.1636	17	C15H21+
213.1641	32	C16H21+
227.1792	13	C17H23+
269.2267	46	C20H29+
312.2676	16	C22H34N+
357.3262	135	C24H41N2+
