Mass spectrum: Jacobine; LC-ESI-ITFT; MS2; CE: 60%; R=15000; [M+H]+
Name: Jacobine
Name: (1R,3`S,4S,6R,7R,17R)-7-hydroxy-3`,6,7-trimethylspiro[2,9-dioxa-14-azatricyclo[9.5.1.014,17]heptadec-11-ene-4,2`-oxirane]-3,8-dione
Formula: C18H25NO6
Exact mass: 351.1682
SMILES: C[C@@H]1C[C@]2([C@@H](O2)C)C(=O)O[C@@H]3CCN4[C@@H]3C(=CC4)COC(=O)[C@]1(C)O
InChI: InChI=1S/C18H25NO6/c1-10-8-18(11(2)25-18)16(21)24-13-5-7-19-6-4-12(14(13)19)9-23-15(20)17(10,3)22/h4,10-11,13-14,22H,5-9H2,1-3H3/t10-,11+,13-,14-,17-,18+/m1/s1
Instrument: LTQ Orbitrap XL Thermo Scientific
Instrument type: LC-ESI-ITFT
Ms type: MS2
Ion mode: POSITIVE
Ionization: ESI
Fragmentation mode: HCD
Collision energy: 60% (nominal)
Resolution: 15000
Column name: Kinetex Evo C18 2.6 um 50 x 2.1 mm
Retention time: 1.038 min
Base peak: 352.1753
Precursor m/z: 352.1755
Precursor type: [M+H]+
m/z	relative intensity	assigned
67.0542	54	C5H7+
68.0495	28	C4H6N+
69.0335	34	C4H5O+
69.07	26	C5H9+
70.0651	218	C4H8N+
71.0491	29	C4H7O+
77.0386	36	C6H5+
79.0543	141	C6H7+
80.0496	237	C5H6N+
81.0699	33	C6H9+
82.0652	56	C5H8N+
85.065	16	C5H9O+
87.0441	16	C4H7O2+
91.0543	108	C7H7+
93.07	240	C7H9+
94.0652	324	C6H8N+
95.049	33	C6H7O+
95.073	49	C6H9N+
95.0855	67	C7H11+
96.0808	60	C6H10N+
97.0648	55	C6H9O+
103.0542	28	C8H7+
105.0699	166	C8H9+
106.0653	38	C7H8N+
107.0731	83	C7H9N+
108.0808	153	C7H10N+
109.0648	25	C7H9O+
109.1012	35	C8H13+
110.0601	29	C6H8NO+
110.0965	55	C7H12N+
111.0805	15	C7H11O+
113.0598	174	C6H9O2+
115.0755	33	C6H11O2+
118.0652	32	C8H8N+
119.0731	33	C8H9N+
119.0855	27	C9H11+
120.0809	999	C8H10N+
121.0887	78	C8H11N+
121.1014	20	C9H13+
122.0965	739	C8H12N+
123.0805	30	C8H11O+
123.1043	408	C8H13N+
132.0812	16	C9H10N+
134.0965	37	C9H12N+
136.076	33	C8H10NO+
137.0962	80	C9H13O+
138.0914	175	C8H12NO+
139.1114	15	C9H15O+
140.0709	20	C7H10NO2+
140.1071	194	C8H14NO+
144.0811	28	C10H10N+
146.0965	34	C10H12N+
147.0803	20	C10H11O+
148.0757	30	C9H10NO+
148.1117	26	C10H14N+
155.1068	646	C9H15O2+
162.0914	140	C10H12NO+
165.0911	60	C10H13O2+
172.1124	11	C12H14N+
174.1276	18	C12H16N+
183.1021	60	C10H15O3+
192.1015	18	C11H14NO2+
210.1131	26	C11H16NO3+
216.1384	26	C14H18NO+
234.149	138	C14H20NO2+
262.1441	83	C15H20NO3+
264.1596	39	C15H22NO3+
280.1544	125	C15H22NO4+
352.1758	96	C18H26NO6+
