Mass spectrum: (+)-Lupanine; LC-ESI-ITFT; MS2; CE: 80%; R=15000; [M+H]+
Name: (+)-Lupanine
Formula: C15H24N2O
Exact mass: 248.1889
SMILES: C1CCN2CC3CC(C2C1)CN4C3CCCC4=O
InChI: InChI=1S/C15H24N2O/c18-15-6-3-5-14-11-8-12(10-17(14)15)13-4-1-2-7-16(13)9-11/h11-14H,1-10H2
Instrument: LTQ Orbitrap XL Thermo Scientific
Instrument type: LC-ESI-ITFT
Ms type: MS2
Ion mode: POSITIVE
Ionization: ESI
Fragmentation mode: HCD
Collision energy: 80 % (nominal)
Resolution: 15000
Column name: Kinetex Evo C18 2.6 um 50 x 2.1 mm
Retention time: 0.491 min
Base peak: 249.1956
Precursor m/z: 249.1961
Precursor type: [M+H]+
m/z	relative intensity	assigned
67.0541	11	C5H7+
70.0651	91	C4H8N+
79.0541	9	C6H7+
80.0494	27	C5H6N+
81.0697	5	C6H9+
82.0651	15	C5H8N+
84.0808	66	C5H10N+
85.0648	49	C5H9O+
91.0542	8	C7H7+
93.0698	11	C7H9+
94.0652	7	C6H8N+
96.0808	35	C6H10N+
98.06	13	C5H8NO+
98.0964	95	C6H12N+
105.0695	10	C8H9+
107.0859	4	C8H11+
108.0807	11	C7H10N+
110.0966	11	C7H12N+
112.0757	45	C6H10NO+
112.1123	4	C7H14N+
114.0913	231	C6H12NO+
122.0961	11	C8H12N+
124.1121	11	C8H14N+
134.0964	46	C9H12N+
135.1038	5	C9H13N+
136.1121	439	C9H14N+
138.0917	5	C8H12NO+
138.1276	10	C9H16N+
148.1121	20	C10H14N+
150.1277	169	C10H16N+
152.107	10	C9H14NO+
152.1434	30	C10H18N+
166.1224	4	C10H16NO+
176.1436	5	C12H18N+
204.1382	10	C13H18NO+
206.1539	7	C13H20NO+
231.1855	11	C15H23N2+
247.1807	51	C15H23N2O+
249.1961	999	C15H25N2O+
