Mass spectrum: Isophorone; LC-ESI-ITFT; MS2; CE: 45%; R=15000; [M+H]+
Name: Isophorone
Name: 3,5,5-trimethylcyclohex-2-en-1-one
Formula: C9H14O
Exact mass: 138.1045
SMILES: CC1=CC(=O)CC(C)(C)C1
InChI: InChI=1S/C9H14O/c1-7-4-8(10)6-9(2,3)5-7/h4H,5-6H2,1-3H3
Instrument: LTQ Orbitrap XL Thermo Scientific
Instrument type: LC-ESI-ITFT
Ms type: MS2
Ion mode: POSITIVE
Ionization: ESI
Fragmentation mode: CID
Collision energy: 45 % (nominal)
Resolution: 15000
Column name: Kinetex Evo C18 2.6 um 50 x 2.1 mm
Retention time: 8.532 min
Base peak: 139.1119
Precursor m/z: 139.1117
Precursor type: [M+H]+
m/z	relative intensity	assigned
59.0489	1	C3H7O+
67.0541	1	C5H7+
69.0333	738	C4H5O+
79.0542	3	C6H7+
81.0698	12	C6H9+
83.0491	95	C5H7O+
93.0698	33	C7H9+
95.0855	66	C7H11+
97.0647	51	C6H9O+
97.1012	7	C7H13+
105.0698	2	C8H9+
109.101	2	C8H13+
111.0803	14	C7H11O+
111.1166	2	C8H15+
121.1011	195	C9H13+
139.1115	999	C9H15O+
