Mass spectrum: Citrinin; LC-ESI-ITFT; MS2; CE: 95%; R=15000; [M+H]+
Name: Citrinin
Formula: C13H14O5
Exact mass: 250.0841
SMILES: C[C@H]1OC=C2C(O)=C(C(O)=O)C(=O)C(C)=C2[C@@H]1C
InChI: InChI=1S/C13H14O5/c1-5-7(3)18-4-8-9(5)6(2)11(14)10(12(8)15)13(16)17/h4-5,7,15H,1-3H3,(H,16,17)/t5-,7-/m1/s1
Instrument: LTQ Orbitrap XL Thermo Scientific
Instrument type: LC-ESI-ITFT
Ms type: MS2
Ion mode: POSITIVE
Ionization: ESI
Fragmentation mode: HCD
Collision energy: 95 % (nominal)
Resolution: 15000
Column name: Kinetex Evo C18 2.6 um 50 x 2.1 mm
Retention time: 11.741 min
Base peak: 251.091
Precursor m/z: 251.0914
Precursor type: [M+H]+
m/z	relative intensity	assigned
65.0386	36	C5H5+
67.0542	111	C5H7+
68.9971	47	C3HO2+
69.0335	14	C4H5O+
77.0386	155	C6H5+
79.0178	84	C5H3O+
79.0542	219	C6H7+
81.07	22	C6H9+
83.0127	17	C4H3O2+
91.0542	999	C7H7+
93.0335	17	C6H5O+
93.0698	140	C7H9+
95.0491	38	C6H7O+
95.0855	227	C7H11+
103.0542	105	C8H7+
104.0619	28	C8H8+
105.0335	30	C7H5O+
105.0698	232	C8H9+
106.0778	18	C8H10+
107.0127	103	C6H3O2+
107.0491	250	C7H7O+
107.0855	180	C8H11+
109.0648	36	C7H9O+
109.1012	30	C8H13+
115.0542	279	C9H7+
116.062	306	C9H8+
117.0699	131	C9H9+
119.0491	122	C8H7O+
119.0855	446	C9H11+
120.057	51	C8H8O+
121.0287	13	C7H5O2+
121.0647	65	C8H9O+
121.1011	20	C9H13+
122.0723	27	C8H10O+
123.0804	44	C8H11O+
128.062	82	C10H8+
129.0698	99	C10H9+
131.049	34	C9H7O+
131.0855	257	C10H11+
132.0569	43	C9H8O+
133.0648	100	C9H9O+
134.0356	9	C8H6O2+
134.0725	62	C9H10O+
135.044	60	C8H7O2+
135.0804	85	C9H11O+
137.096	49	C9H13O+
141.0698	127	C11H9+
144.0569	160	C10H8O+
145.0287	32	C9H5O2+
145.0648	58	C10H9O+
147.044	157	C9H7O2+
147.0804	97	C10H11O+
148.0518	137	C9H8O2+
149.0235	12	C8H5O3+
149.0596	30	C9H9O2+
149.096	21	C10H13O+
157.0644	20	C11H9O+
159.0804	95	C11H11O+
161.0597	66	C10H9O2+
162.0675	174	C10H10O2+
163.0389	37	C9H7O3+
163.0754	39	C10H11O2+
169.0648	71	C12H9O+
172.0518	49	C11H8O2+
175.039	170	C10H7O3+
176.0469	30	C10H8O3+
177.0182	56	C9H5O4+
177.0539	17	C10H9O3+
185.0599	27	C12H9O2+
187.0754	34	C12H11O2+
189.0549	36	C11H9O3+
190.0626	84	C11H10O3+
191.0701	78	C11H11O3+
200.0459	8	C12H8O3+
203.0338	235	C11H7O4+
203.0703	21	C12H11O3+
204.0414	30	C11H8O4+
205.0859	273	C12H13O3+
215.07	36	C13H11O3+
217.049	11	C12H9O4+
218.0571	18	C12H10O4+
233.0806	68	C13H13O4+
