Mass spectrum: Solasodin; LC-ESI-ITFT; MS2; CE: 35%; R=15000; [M+H]+
Name: Solasodin
Name: Solasodine
Formula: C27H43NO2
Exact mass: 413.3294
SMILES: C[C@@H]1CC[C@@]2([C@H]([C@H]3[C@@H](O2)C[C@@H]4[C@@]3(CC[C@H]5[C@H]4CC=C6[C@@]5(CC[C@@H](C6)O)C)C)C)NC1
InChI: InChI=1S/C27H43NO2/c1-16-7-12-27(28-15-16)17(2)24-23(30-27)14-22-20-6-5-18-13-19(29)8-10-25(18,3)21(20)9-11-26(22,24)4/h5,16-17,19-24,28-29H,6-15H2,1-4H3/t16-,17+,19+,20-,21+,22+,23+,24+,25+,26+,27-/m1/s1
Instrument: LTQ Orbitrap XL Thermo Scientific
Instrument type: LC-ESI-ITFT
Ms type: MS2
Ion mode: POSITIVE
Ionization: ESI
Fragmentation mode: HCD
Collision energy: 35% (nominal)
Resolution: 15000
Column name: Kinetex Evo C18 2.6 um 50 x 2.1 mm
Retention time: 10.837 min
Base peak: 414.3361
Precursor m/z: 414.3367
Precursor type: [M+H]+
m/z	relative intensity	assigned
70.065	9	C4H8N+
81.0702	1	C6H9+
95.0858	1	C7H11+
96.0808	1	C6H10N+
105.0702	1	C8H9+
107.0855	4	C8H11+
109.1011	7	C8H13+
114.0912	29	C6H12NO+
119.0852	1	C9H11+
121.1011	9	C9H13+
124.112	11	C8H14N+
126.1276	23	C8H16N+
127.1116	2	C8H15O+
131.0854	2	C10H11+
133.1012	4	C10H13+
135.1172	1	C10H15+
143.0853	1	C11H11+
144.1382	3	C8H18NO+
145.101	2	C11H13+
147.1168	8	C11H15+
151.1116	4	C10H15O+
157.101	10	C12H13+
159.1168	7	C12H15+
163.1111	1	C11H15O+
171.1166	3	C13H15+
173.1321	1	C13H17+
175.1118	7	C12H15O+
183.1159	1	C14H15+
197.1323	2	C15H17+
211.1484	1	C16H19+
213.1633	2	C16H21+
225.1628	1	C17H21+
253.1949	62	C19H25+
271.2054	91	C19H27O+
396.3258	89	C27H42NO+
414.3362	999	C27H44NO2+
