Mass spectrum: Daidzein; LC-ESI-ITFT; MS2; CE: 100%; R=15000; [M+H]+
Name: Daidzein
Name: 7-hydroxy-3-(4-hydroxyphenyl)chromen-4-one
Formula: C15H10O4
Exact mass: 254.0579
SMILES: c1cc(ccc1c2coc3cc(ccc3c2=O)O)O
InChI: InChI=1S/C15H10O4/c16-10-3-1-9(2-4-10)13-8-19-14-7-11(17)5-6-12(14)15(13)18/h1-8,16-17H
Instrument: LTQ Orbitrap XL Thermo Scientific
Instrument type: LC-ESI-ITFT
Ms type: MS2
Ion mode: POSITIVE
Ionization: ESI
Fragmentation mode: HCD
Collision energy: 100% (nominal)
Resolution: 15000
Column name: Kinetex Evo C18 2.6 um 50 x 2.1 mm
Retention time: 9.213 min
Base peak: 116.9859
Precursor m/z: 255.0652
Precursor type: [M+H]+
m/z	relative intensity	assigned
65.0385	120	C5H5+
81.0334	94	C5H5O+
91.0542	999	C7H7+
105.0337	62	C7H5O+
106.0414	47	C7H6O+
115.0543	61	C9H7+
119.0492	88	C8H7O+
128.0622	279	C10H8+
131.0491	89	C9H7O+
137.0233	372	C7H5O3+
141.0697	43	C11H9+
151.0544	62	C12H7+
152.0621	525	C12H8+
153.0698	256	C12H9+
169.0649	48	C12H9O+
181.0648	372	C13H9O+
184.052	58	C12H8O2+
198.068	34	C13H10O2+
199.0752	67	C13H11O2+
