Mass spectrum: Hordenine; LC-ESI-ITFT; MS2; CE: 100%; R=15000; [M+H]+
Name: Hordenine
Name: 4-[2-(dimethylamino)ethyl]phenol
Formula: C10H15NO
Exact mass: 165.1154
SMILES: CN(C)CCc1ccc(cc1)O
InChI: InChI=1S/C10H15NO/c1-11(2)8-7-9-3-5-10(12)6-4-9/h3-6,12H,7-8H2,1-2H3
Instrument: LTQ Orbitrap XL Thermo Scientific
Instrument type: LC-ESI-ITFT
Ms type: MS2
Ion mode: POSITIVE
Ionization: ESI
Fragmentation mode: HCD
Collision energy: 100% (nominal)
Resolution: 15000
Column name: Kinetex Evo C18 2.6 um 50 x 2.1 mm
Retention time: 0.547 min
Base peak: 143.0014
Precursor m/z: 166.1226
Precursor type: [M+H]+
m/z	relative intensity	assigned
65.0385	6	C5H5+
77.0386	549	C6H5+
91.0543	542	C7H7+
93.0699	471	C7H9+
95.0491	60	C6H7O+
102.0464	14	C8H6+
103.0543	999	C8H7+
121.0648	777	C8H9O+
