Mass spectrum: Hyoscyamine; LC-ESI-ITFT; MS2; CE: 105%; R=15000; [M+H]+
Name: Hyoscyamine
Formula: C17H23NO3
Exact mass: 289.1678
SMILES: CN1[C@@H]2CC[C@H]1C[C@H](C2)OC(=O)[C@H](CO)c3ccccc3
InChI: InChI=1S/C17H23NO3/c1-18-13-7-8-14(18)10-15(9-13)21-17(20)16(11-19)12-5-3-2-4-6-12/h2-6,13-16,19H,7-11H2,1H3/t13-,14+,15+,16-/m1/s1
Instrument: LTQ Orbitrap XL Thermo Scientific
Instrument type: LC-ESI-ITFT
Ms type: MS2
Ion mode: POSITIVE
Ionization: ESI
Fragmentation mode: HCD
Collision energy: 105% (nominal)
Resolution: 15000
Column name: Kinetex Evo C18 2.6 um 50 x 2.1 mm
Retention time: 2.818 min
Base peak: 143.0015
Precursor m/z: 290.1751
Precursor type: [M+H]+
m/z	relative intensity	assigned
65.0388	16	C5H5+
67.0542	456	C5H7+
68.0495	94	C4H6N+
70.0651	73	C4H8N+
77.0386	346	C6H5+
79.0542	58	C6H7+
82.0652	123	C5H8N+
83.073	76	C5H9N+
91.0543	667	C7H7+
93.0699	999	C7H9+
94.0651	33	C6H8N+
95.0491	46	C6H7O+
95.0731	33	C6H9N+
95.0855	68	C7H11+
96.0807	81	C6H10N+
98.0964	98	C6H12N+
103.0543	712	C8H7+
108.0808	35	C7H10N+
109.0886	39	C7H11N+
121.0649	62	C8H9O+
124.1121	402	C8H14N+
140.1068	34	C8H14NO+
142.1228	133	C8H16NO+
