Mass spectrum: Cytisin; LC-ESI-ITFT; MS2; CE: 105%; R=15000; [M+H]+
Name: Cytisin
Name: Cytisine
Name: (1R,9S)-7,11-diazatricyclo[7.3.1.02,7]trideca-2,4-dien-6-one
Formula: C11H14N2O
Exact mass: 190.1106
SMILES: C1[C@H]2CNC[C@@H]1C3=CC=CC(=O)N3C2
InChI: InChI=1S/C11H14N2O/c14-11-3-1-2-10-9-4-8(5-12-6-9)7-13(10)11/h1-3,8-9,12H,4-7H2/t8-,9+/m0/s1
Instrument: LTQ Orbitrap XL Thermo Scientific
Instrument type: LC-ESI-ITFT
Ms type: MS2
Ion mode: POSITIVE
Ionization: ESI
Fragmentation mode: HCD
Collision energy: 105% (nominal)
Resolution: 15000
Column name: Kinetex Evo C18 2.6 um 50 x 2.1 mm
Retention time: 0.465 min
Base peak: 226.9513
Precursor m/z: 191.1179
Precursor type: [M+H]+
m/z	relative intensity	assigned
79.0541	30	C6H7+
80.0495	56	C5H6N+
82.0652	83	C5H8N+
91.0545	28	C7H7+
103.0543	52	C8H7+
104.0494	49	C7H6N+
106.0652	79	C7H8N+
117.0698	53	C9H9+
118.065	27	C8H8N+
120.0809	95	C8H10N+
122.0603	40	C7H8NO+
130.0651	40	C9H8N+
133.0522	242	C8H7NO+
134.06	193	C8H8NO+
144.081	41	C10H10N+
146.0601	134	C9H8NO+
147.068	113	C9H9NO+
148.0757	999	C9H10NO+
162.0912	105	C10H12NO+
191.1175	82	C11H15N2O+
