Mass spectrum: Artemisinin; LC-ESI-ITFT; MS2; CE: 35%; R=15000; [M+H]+
Name: Artemisinin
Formula: C15H22O5
Exact mass: 282.1467
SMILES: C[C@@H]1CC[C@H]2[C@@H](C)C(=O)O[C@@H]3O[C@@]4(C)CC[C@@H]1[C@@]23OO4
InChI: InChI=1S/C15H22O5/c1-8-4-5-11-9(2)12(16)17-13-15(11)10(8)6-7-14(3,18-13)19-20-15/h8-11,13H,4-7H2,1-3H3/t8-,9-,10+,11+,13-,14-,15-/m1/s1
Instrument: LTQ Orbitrap XL Thermo Scientific
Instrument type: LC-ESI-ITFT
Ms type: MS2
Ion mode: POSITIVE
Ionization: ESI
Fragmentation mode: CID
Collision energy: 35 % (nominal)
Resolution: 15000
Column name: Kinetex Evo C18 2.6 um 50 x 2.1 mm
Retention time: 11.441 min
Base peak: 305.1356
Precursor m/z: 283.154
Precursor type: [M+H]+
m/z	relative intensity	assigned
95.0855	9	C7H11+
119.0854	14	C9H11+
125.0961	40	C8H13O+
131.0859	10	C10H11+
135.0444	17	C8H7O2+
145.101	15	C11H13+
157.086	41	C8H13O3+
173.096	17	C12H13O+
177.1278	14	C12H17O+
187.112	17	C13H15O+
201.1276	63	C14H17O+
205.1223	77	C13H17O2+
209.1165	20	C12H17O3+
219.1379	87	C14H19O2+
223.1329	62	C13H19O3+
229.1223	57	C15H17O2+
237.1483	30	C14H21O3+
247.1328	999	C15H19O3+
265.1435	582	C15H21O4+
