Mass spectrum: Alpinetin; LC-ESI-ITFT; MS2; CE: 115%; R=15000; [M+H]+
Name: Alpinetin
Formula: C16H14O4
Exact mass: 270.0892
SMILES: COC1=C2C(=O)CC(OC2=CC(=C1)O)C3=CC=CC=C3
InChI: InChI=1S/C16H14O4/c1-19-14-7-11(17)8-15-16(14)12(18)9-13(20-15)10-5-3-2-4-6-10/h2-8,13,17H,9H2,1H3
Instrument: LTQ Orbitrap XL Thermo Scientific
Instrument type: LC-ESI-ITFT
Ms type: MS2
Ion mode: POSITIVE
Ionization: ESI
Fragmentation mode: HCD
Collision energy: 115 % (nominal)
Resolution: 15000
Column name: Kinetex Evo C18 2.6 um 50 x 2.1 mm
Retention time: 10.226 min
Base peak: 217.0495
Precursor m/z: 271.0965
Precursor type: [M+H]+
m/z	relative intensity	assigned
50.015	123	C4H2+
53.0385	16	C4H5+
55.0178	8	C3H3O+
65.0385	17	C5H5+
67.0178	66	C4H3O+
68.0257	107	C4H4O+
68.9971	385	C3HO2+
71.0128	16	C3H3O2+
77.0386	211	C6H5+
78.01	151	C5H2O+
79.0178	17	C5H3O+
79.0542	41	C6H7+
81.0335	79	C5H5O+
83.0493	9	C5H7O+
91.0174	5	C6H3O+
91.0543	54	C7H7+
93.0335	8	C6H5O+
95.0129	4	C5H3O2+
95.0491	37	C6H7O+
96.0206	295	C5H4O2+
97.0285	16	C5H5O2+
99.0442	24	C5H7O2+
102.0465	13	C8H6+
103.0542	531	C8H7+
109.0285	9	C6H5O2+
111.0077	60	C5H3O3+
111.044	33	C6H7O2+
115.0544	9	C9H7+
124.0155	999	C6H4O3+
131.0491	13	C9H7O+
137.0234	13	C7H5O3+
139.0391	5	C7H7O3+
152.0104	277	C7H4O4+
165.0701	4	C13H9+
167.0339	163	C8H7O4+
