Mass spectrum: Tomatidine; LC-ESI-ITFT; MS2; CE: 75%; R=15000; [M+H]+
Name: Tomatidine
Formula: C27H45NO2
Exact mass: 415.3450
SMILES: C[C@H]1[C@H]2[C@H](C[C@H]3[C@@H]4CC[C@H]5C[C@@H](O)CC[C@]5(C)[C@H]4CC[C@]23C)O[C@@]11CC[C@H](C)CN1
InChI: InChI=1S/C27H45NO2/c1-16-7-12-27(28-15-16)17(2)24-23(30-27)14-22-20-6-5-18-13-19(29)8-10-25(18,3)21(20)9-11-26(22,24)4/h16-24,28-29H,5-15H2,1-4H3/t16-,17-,18-,19-,20+,21-,22-,23-,24-,25-,26-,27-/m0/s1
Instrument: LTQ Orbitrap XL Thermo Scientific
Instrument type: LC-ESI-ITFT
Ms type: MS2
Ion mode: POSITIVE
Ionization: ESI
Fragmentation mode: HCD
Collision energy: 75 % (nominal)
Resolution: 15000
Column name: Kinetex Evo C18 2.6 um 50 x 2.1 mm
Retention time: 10.008 min
Base peak: 217.0493
Precursor m/z: 416.3523
Precursor type: [M+H]+
m/z	relative intensity	assigned
55.0542	8	C4H7+
67.0542	65	C5H7+
68.0496	7	C4H6N+
69.0698	14	C5H9+
70.0651	53	C4H8N+
77.0387	13	C6H5+
79.0543	152	C6H7+
81.0699	131	C6H9+
82.0652	8	C5H8N+
91.0542	112	C7H7+
93.0699	187	C7H9+
94.065	6	C6H8N+
95.0856	161	C7H11+
96.0807	19	C6H10N+
98.0964	16	C6H12N+
105.0699	348	C8H9+
107.0855	215	C8H11+
108.0808	9	C7H10N+
109.1012	79	C8H13+
110.096	5	C7H12N+
117.0698	29	C9H9+
119.0855	195	C9H11+
121.1012	62	C9H13+
122.0962	11	C8H12N+
123.117	11	C9H15+
124.1121	125	C8H14N+
125.1201	10	C8H15N+
126.1277	139	C8H16N+
129.07	6	C10H9+
131.0855	59	C10H11+
133.1012	132	C10H13+
135.1168	56	C10H15+
136.112	4	C9H14N+
138.1281	6	C9H16N+
143.0856	19	C11H11+
144.0935	6	C11H12+
145.1012	109	C11H13+
147.1168	250	C11H15+
148.1121	10	C10H14N+
149.1326	45	C11H17+
150.1277	39	C10H16N+
157.1012	14	C12H13+
159.1169	156	C12H15+
161.1325	999	C12H17+
162.128	8	C11H16N+
163.1119	4	C11H15O+
164.1435	46	C11H18N+
171.1171	20	C13H15+
173.1325	47	C13H17+
185.1324	21	C14H17+
187.1484	18	C14H19+
199.1483	31	C15H19+
213.1642	12	C16H21+
255.2108	24	C19H27+
