Mass spectrum: Atropine; LC-ESI-ITFT; MS2; CE: 85%; R=15000; [M+H]+
Name: Atropine
Formula: C17H23NO3
Exact mass: 289.1678
SMILES: CN1[C@@H]2CC[C@H]1C[C@H](C2)OC(=O)C(CO)c3ccccc3
InChI: InChI=1S/C17H23NO3/c1-18-13-7-8-14(18)10-15(9-13)21-17(20)16(11-19)12-5-3-2-4-6-12/h2-6,13-16,19H,7-11H2,1H3/t13-,14+,15+,16?
Instrument: LTQ Orbitrap XL Thermo Scientific
Instrument type: LC-ESI-ITFT
Ms type: MS2
Ion mode: POSITIVE
Ionization: ESI
Fragmentation mode: HCD
Collision energy: 85% (nominal)
Resolution: 15000
Column name: Kinetex Evo C18 2.6 um 50 x 2.1 mm
Retention time: 2.854 min
Base peak: 143.0015
Precursor m/z: 290.1751
Precursor type: [M+H]+
m/z	relative intensity	assigned
67.0542	190	C5H7+
68.0494	41	C4H6N+
70.0651	44	C4H8N+
77.0386	118	C6H5+
79.0542	29	C6H7+
82.0652	81	C5H8N+
83.073	56	C5H9N+
91.0543	367	C7H7+
93.0699	999	C7H9+
94.0649	9	C6H8N+
95.0496	9	C6H7O+
95.0728	31	C6H9N+
95.0855	80	C7H11+
96.0808	63	C6H10N+
98.0964	40	C6H12N+
103.0543	232	C8H7+
109.0887	18	C7H11N+
121.0648	95	C8H9O+
122.0964	8	C8H12N+
124.1121	801	C8H14N+
140.107	39	C8H14NO+
142.1227	115	C8H16NO+
