Mass spectrum: Fraxidin; LC-ESI-ITFT; MS2; CE: 95%; R=15000; [M+H]+
Name: Fraxidin
Name: 8-hydroxy-6,7-dimethoxychromen-2-one
Formula: C11H10O5
Exact mass: 222.0528
SMILES: COC1=C(OC)C(O)=C2OC(=O)C=CC2=C1
InChI: InChI=1S/C11H10O5/c1-14-7-5-6-3-4-8(12)16-10(6)9(13)11(7)15-2/h3-5,13H,1-2H3
Instrument: LTQ Orbitrap XL Thermo Scientific
Instrument type: LC-ESI-ITFT
Ms type: MS2
Ion mode: POSITIVE
Ionization: ESI
Fragmentation mode: HCD
Collision energy: 95% (nominal)
Resolution: 15000
Column name: Kinetex Evo C18 2.6 um 50 x 2.1 mm
Retention time: 7.626 min
Base peak: 116.9858
Precursor m/z: 223.0601
Precursor type: [M+H]+
m/z	relative intensity	assigned
66.0464	53	C5H6+
76.0307	87	C6H4+
77.0386	108	C6H5+
78.0464	999	C6H6+
79.0542	44	C6H7+
81.0335	41	C5H5O+
88.0309	40	C7H4+
89.0386	72	C7H5+
90.0464	41	C7H6+
92.0256	87	C6H4O+
94.0413	53	C6H6O+
95.0491	45	C6H7O+
104.0256	58	C7H4O+
105.0335	474	C7H5O+
106.0413	436	C7H6O+
107.0492	107	C7H7O+
108.0205	12	C6H4O2+
109.0285	30	C6H5O2+
116.0257	106	C8H4O+
117.0333	34	C8H5O+
118.0413	75	C8H6O+
119.0123	11	C7H3O2+
120.0206	74	C7H4O2+
121.0282	26	C7H5O2+
122.0363	27	C7H6O2+
123.0441	262	C7H7O2+
132.0206	128	C8H4O2+
133.0284	519	C8H5O2+
134.0362	776	C8H6O2+
135.0441	336	C8H7O2+
137.0232	54	C7H5O3+
144.0206	67	C9H4O2+
146.0362	10	C9H6O2+
147.0079	19	C8H3O3+
149.0235	14	C8H5O3+
150.0312	187	C8H6O3+
151.0391	65	C8H7O3+
152.0469	37	C8H8O3+
160.0155	40	C9H4O3+
161.0234	189	C9H5O3+
162.0312	861	C9H6O3+
163.0389	26	C9H7O3+
165.0183	64	C8H5O4+
172.0159	12	C10H4O3+
178.0261	240	C9H6O4+
179.0338	324	C9H7O4+
190.0262	83	C10H6O4+
205.0131	29	C10H5O5+
207.0288	352	C10H7O5+
