Mass spectrum: Isophorone; LC-ESI-ITFT; MS2; CE: 115%; R=15000; [M+H]+
Name: Isophorone
Name: 3,5,5-trimethylcyclohex-2-en-1-one
Formula: C9H14O
Exact mass: 138.1045
SMILES: CC1=CC(=O)CC(C)(C)C1
InChI: InChI=1S/C9H14O/c1-7-4-8(10)6-9(2,3)5-7/h4H,5-6H2,1-3H3
Instrument: LTQ Orbitrap XL Thermo Scientific
Instrument type: LC-ESI-ITFT
Ms type: MS2
Ion mode: POSITIVE
Ionization: ESI
Fragmentation mode: CID
Collision energy: 115 % (nominal)
Resolution: 15000
Column name: Kinetex Evo C18 2.6 um 50 x 2.1 mm
Retention time: 8.610 min
Base peak: 139.1114
Precursor m/z: 139.1117
Precursor type: [M+H]+
m/z	relative intensity	assigned
81.0695	61	C6H9+
83.0488	501	C5H7O+
93.0696	172	C7H9+
95.0852	342	C7H11+
97.0645	244	C6H9O+
97.1009	36	C7H13+
105.0694	16	C8H9+
111.0801	65	C7H11O+
111.1163	16	C8H15+
121.1007	999	C9H13+
