Mass spectrum: Senecivernine; LC-ESI-ITFT; MS2; CE: 40%; R=15000; [M+H]+
Name: Senecivernine
Name: (1R,5R,6R,7R,17R)-7-hydroxy-5,6,7-trimethyl-4-methylidene-2,9-dioxa-14-azatricyclo[9.5.1.014,17]heptadec-11-ene-3,8-dione
Formula: C18H25NO5
Exact mass: 335.1733
SMILES: C[C@@H]1[C@H]([C@@](C(=O)OCC2=CCN3[C@H]2[C@@H](CC3)OC(=O)C1=C)(C)O)C
InChI: InChI=1S/C18H25NO5/c1-10-11(2)16(20)24-14-6-8-19-7-5-13(15(14)19)9-23-17(21)18(4,22)12(10)3/h5,10,12,14-15,22H,2,6-9H2,1,3-4H3/t10-,12+,14+,15+,18+/m0/s1
Instrument: LTQ Orbitrap XL Thermo Scientific
Instrument type: LC-ESI-ITFT
Ms type: MS2
Ion mode: POSITIVE
Ionization: ESI
Fragmentation mode: HCD
Collision energy: 40% (nominal)
Resolution: 15000
Column name: Kinetex Evo C18 2.6 um 50 x 2.1 mm
Retention time: 3.466 min
Base peak: 143.0015
Precursor m/z: 336.1805
Precursor type: [M+H]+
m/z	relative intensity	assigned
81.0697	2	C6H9+
93.0702	3	C7H9+
94.065	5	C6H8N+
96.0806	4	C6H10N+
120.0808	54	C8H10N+
122.0962	8	C8H12N+
138.0914	34	C8H12NO+
140.1068	2	C8H14NO+
153.091	3	C9H13O2+
290.1751	4	C17H24NO3+
308.1857	47	C17H26NO4+
336.1807	999	C18H26NO5+
