Mass spectrum: Lycopsamine N-oxide; LC-ESI-ITFT; MS2; CE: 60%; R=15000; [M+H]+
Name: Lycopsamine N-oxide
Name: [(7R,8R)-7-hydroxy-4-oxido-5,6,7,8-tetrahydro-3H-pyrrolizin-4-ium-1-yl]methyl (2S)-2-hydroxy-2-[(1S)-1-hydroxyethyl]-3-methylbutanoate
Formula: C15H25NO6
Exact mass: 315.1682
SMILES: C[C@@H]([C@@](C(C)C)(C(=O)OCC1=CC[N+]2([C@H]1[C@@H](CC2)O)[O-])O)O
InChI: InChI=1S/C15H25NO6/c1-9(2)15(20,10(3)17)14(19)22-8-11-4-6-16(21)7-5-12(18)13(11)16/h4,9-10,12-13,17-18,20H,5-8H2,1-3H3/t10-,12+,13+,15-,16?/m0/s1
Instrument: LTQ Orbitrap XL Thermo Scientific
Instrument type: LC-ESI-ITFT
Ms type: MS2
Ion mode: POSITIVE
Ionization: ESI
Fragmentation mode: HCD
Collision energy: 60% (nominal)
Resolution: 15000
Column name: Kinetex Evo C18 2.6 um 50 x 2.1 mm
Retention time: 1.287 min
Base peak: 143.0014
Precursor m/z: 316.1755
Precursor type: [M+H]+
m/z	relative intensity	assigned
55.0541	5	C4H7+
67.0543	6	C5H7+
68.0494	13	C4H6N+
73.0648	12	C4H9O+
80.0495	21	C5H6N+
81.0698	8	C6H9+
82.0413	30	C5H6O+
82.0652	21	C5H8N+
83.0492	33	C5H7O+
93.0573	174	C6H7N+
94.0651	180	C6H8N+
95.0492	5	C6H7O+
95.0729	11	C6H9N+
96.0443	7	C5H6NO+
96.081	5	C6H10N+
98.0601	26	C5H8NO+
100.0756	7	C5H10NO+
102.0548	13	C4H8NO2+
106.0651	13	C7H8N+
108.0808	44	C7H10N+
109.0647	12	C7H9O+
109.0887	7	C7H11N+
110.06	21	C6H8NO+
111.0678	90	C6H9NO+
112.0756	39	C6H10NO+
118.065	8	C8H8N+
120.0804	7	C8H10N+
124.0761	5	C7H10NO+
126.0912	13	C7H12NO+
128.0708	7	C6H10NO2+
136.0757	168	C8H10NO+
137.0835	50	C8H11NO+
138.0913	682	C8H12NO+
140.0706	5	C7H10NO2+
154.0863	93	C8H12NO2+
155.0941	148	C8H13NO2+
172.0968	999	C8H14NO3+
226.1439	18	C12H20NO3+
316.1755	242	C15H26NO6+
