Mass spectrum: Brucine; LC-ESI-ITFT; MS2; CE: 55%; R=15000; [M+H]+
Name: Brucine
Name: (-)-Brucine
Name: (4aR,5aS,8aR,15bR)-10,11-dimethoxy-4a,5,5a,7,8,13a,15,15a,15b,16-decahydro-2H-4,6-methanoindolo[3,2,1-ij]oxepino[2,3,4-de]pyrrolo[2,3-h]quinolin-14-one
Formula: C23H26N2O4
Exact mass: 394.1893
SMILES: COc1cc2c(cc1OC)N3C4[C@]25CCN6[C@H]5C[C@@H]7[C@H]4C(CC3=O)OCC=C7C6
InChI: InChI=1S/C23H26N2O4/c1-27-16-8-14-15(9-17(16)28-2)25-20(26)10-18-21-13-7-19-23(14,22(21)25)4-5-24(19)11-12(13)3-6-29-18/h3,8-9,13,18-19,21-22H,4-7,10-11H2,1-2H3/t13-,18?,19-,21-,22?,23+/m0/s1
Instrument: LTQ Orbitrap XL Thermo Scientific
Instrument type: LC-ESI-ITFT
Ms type: MS2
Ion mode: POSITIVE
Ionization: ESI
Fragmentation mode: HCD
Collision energy: 55% (nominal)
Resolution: 15000
Column name: Kinetex Evo C18 2.6 um 50 x 2.1 mm
Retention time: 5.973 min
Base peak: 395.1965
Precursor m/z: 395.1965
Precursor type: [M+H]+
m/z	relative intensity	assigned
70.065	11	C4H8N+
108.0807	64	C7H10N+
122.0599	46	C7H8NO+
124.0757	50	C7H10NO+
178.0858	24	C10H12NO2+
190.0859	20	C11H12NO2+
213.0782	90	C13H11NO2+
216.1017	44	C13H14NO2+
227.094	15	C14H13NO2+
228.1018	23	C14H14NO2+
229.0733	98	C13H11NO3+
243.0884	16	C14H13NO3+
244.0966	830	C14H14NO3+
251.0938	57	C16H13NO2+
254.1172	45	C16H16NO2+
256.0965	61	C15H14NO3+
258.1128	33	C15H16NO3+
260.0906	16	C14H14NO4+
263.0938	70	C17H13NO2+
267.0888	85	C16H13NO3+
272.0909	13	C15H14NO4+
280.0965	84	C17H14NO3+
281.1039	13	C17H15NO3+
282.1123	248	C17H16NO3+
294.1125	47	C18H16NO3+
298.1076	20	C17H16NO4+
301.1098	28	C20H15NO2+
306.1118	27	C19H16NO3+
308.1283	15	C19H18NO3+
317.1051	10	C20H15NO3+
321.1354	48	C20H19NO3+
322.1435	94	C20H20NO3+
323.139	10	C19H19N2O3+
324.1228	615	C19H18NO4+
326.1381	14	C19H20NO4+
332.1275	43	C21H18NO3+
335.1156	10	C20H17NO4+
338.1392	15	C20H20NO4+
349.1541	44	C21H21N2O3+
350.1386	216	C21H20NO4+
352.1433	27	C20H20N2O4+
366.1693	18	C22H24NO4+
367.1652	352	C21H23N2O4+
379.1638	21	C22H23N2O4+
380.1721	30	C22H24N2O4+
395.1962	999	C23H27N2O4+
