Mass spectrum: Matrine; LC-ESI-ITFT; MS2; CE: 100%; R=15000; [M+H]+
Name: Matrine
Name: (1R,2R,9S,17S)-7,13-diazatetracyclo[7.7.1.02,7.013,17]heptadecan-6-one
Formula: C15H24N2O
Exact mass: 248.1889
SMILES: C1C[C@@H]2[C@H]3CCCN4[C@H]3[C@@H](CCC4)CN2C(=O)C1
InChI: InChI=1S/C15H24N2O/c18-14-7-1-6-13-12-5-3-9-16-8-2-4-11(15(12)16)10-17(13)14/h11-13,15H,1-10H2/t11-,12+,13+,15-/m0/s1
Instrument: LTQ Orbitrap XL Thermo Scientific
Instrument type: LC-ESI-ITFT
Ms type: MS2
Ion mode: POSITIVE
Ionization: ESI
Fragmentation mode: HCD
Collision energy: 100% (nominal)
Resolution: 15000
Column name: Kinetex Evo C18 2.6 um 50 x 2.1 mm
Retention time: 0.702 min
Base peak: 249.1959
Precursor m/z: 249.1961
Precursor type: [M+H]+
m/z	relative intensity	assigned
55.054	16	C4H7+
67.0542	84	C5H7+
70.0651	123	C4H8N+
79.0543	86	C6H7+
80.0496	26	C5H6N+
81.0699	72	C6H9+
82.0652	66	C5H8N+
84.0808	172	C5H10N+
91.0543	85	C7H7+
93.0698	105	C7H9+
94.0652	58	C6H8N+
95.0855	69	C7H11+
96.0808	410	C6H10N+
97.0887	22	C6H11N+
98.0601	340	C5H8NO+
98.0964	232	C6H12N+
105.0699	58	C8H9+
106.0651	32	C7H8N+
107.0853	46	C8H11+
108.0808	108	C7H10N+
109.0884	34	C7H11N+
110.0964	469	C7H12N+
112.0757	205	C6H10NO+
112.1119	24	C7H14N+
117.0695	27	C9H9+
119.0854	41	C9H11+
120.0808	190	C8H10N+
122.0964	278	C8H12N+
124.1121	101	C8H14N+
131.0858	32	C10H11+
132.0809	32	C9H10N+
133.0887	27	C9H11N+
133.1009	23	C10H13+
134.0963	221	C9H12N+
135.1044	42	C9H13N+
136.0761	41	C8H10NO+
136.1121	261	C9H14N+
137.1201	19	C9H15N+
138.0917	65	C8H12NO+
138.1278	63	C9H16N+
146.0965	32	C10H12N+
148.0755	89	C9H10NO+
148.1121	999	C10H14N+
149.1201	44	C10H15N+
150.0915	61	C9H12NO+
150.1277	524	C10H16N+
152.1068	18	C9H14NO+
152.1435	110	C10H18N+
162.0914	85	C10H12NO+
162.1279	121	C11H16N+
164.1071	52	C10H14NO+
164.1437	27	C11H18N+
174.1278	27	C12H16N+
176.107	313	C11H14NO+
176.1434	155	C12H18N+
178.1225	21	C11H16NO+
178.1595	29	C12H20N+
188.1432	30	C13H18N+
190.1224	125	C12H16NO+
190.1588	43	C13H20N+
204.1382	38	C13H18NO+
204.1751	24	C14H22N+
218.1546	42	C14H20NO+
220.1696	49	C14H22NO+
221.2019	27	C14H25N2+
230.1544	19	C15H20NO+
232.169	23	C15H22NO+
247.1804	154	C15H23N2O+
249.1959	682	C15H25N2O+
