Mass spectrum: Lycorine; LC-ESI-ITFT; MS2; CE: 60%; R=15000; [M+H]+
Name: Lycorine
Name: (1S,17S,18S,19S)-5,7-dioxa-12-azapentacyclo[10.6.1.02,10.04,8.015,19]nonadeca-2,4(8),9,15-tetraene-17,18-diol
Formula: C16H17NO4
Exact mass: 287.1158
SMILES: C1CN2CC3=CC4=C(C=C3[C@H]5[C@H]2C1=C[C@@H]([C@H]5O)O)OCO4
InChI: InChI=1S/C16H17NO4/c18-11-3-8-1-2-17-6-9-4-12-13(21-7-20-12)5-10(9)14(15(8)17)16(11)19/h3-5,11,14-16,18-19H,1-2,6-7H2/t11-,14-,15+,16+/m0/s1
Instrument: LTQ Orbitrap XL Thermo Scientific
Instrument type: LC-ESI-ITFT
Ms type: MS2
Ion mode: POSITIVE
Ionization: ESI
Fragmentation mode: HCD
Collision energy: 60% (nominal)
Resolution: 15000
Column name: Kinetex Evo C18 2.6 um 50 x 2.1 mm
Retention time: 0.623 min
Base peak: 288.1227
Precursor m/z: 288.123
Precursor type: [M+H]+
m/z	relative intensity	assigned
67.054	7	C5H7+
82.0651	24	C5H8N+
83.0491	42	C5H7O+
91.0544	2	C7H7+
95.0491	94	C6H7O+
106.0651	24	C7H8N+
110.0599	8	C6H8NO+
111.0678	44	C6H9NO+
112.0756	89	C6H10NO+
119.0491	528	C8H7O+
122.06	11	C7H8NO+
124.0757	61	C7H10NO+
132.0444	6	C8H6NO+
134.06	39	C8H8NO+
135.044	27	C8H7O2+
136.0519	8	C8H8O2+
145.0647	3	C10H9O+
147.044	999	C9H7O2+
149.0596	26	C9H9O2+
155.086	2	C12H11+
167.0855	5	C13H11+
173.0599	10	C11H9O2+
175.039	8	C10H7O3+
177.0546	241	C10H9O3+
183.0809	5	C13H11O+
184.1123	6	C13H14N+
188.0704	7	C11H10NO2+
194.0963	31	C14H12N+
195.0806	6	C14H11O+
197.0838	5	C13H11NO+
198.0912	4	C13H12NO+
199.0752	14	C13H11O2+
211.0755	4	C14H11O2+
212.0699	2	C13H10NO2+
212.1069	26	C14H14NO+
213.0913	8	C14H13O2+
214.0854	7	C13H12NO2+
222.0913	66	C15H12NO+
223.0755	6	C15H11O2+
224.1071	6	C15H14NO+
225.0782	11	C14H11NO2+
225.0909	6	C15H13O2+
226.0866	3	C14H12NO2+
227.0934	5	C14H13NO2+
228.1018	6	C14H14NO2+
230.1168	3	C14H16NO2+
238.0865	4	C15H12NO2+
240.1018	32	C15H14NO2+
241.0863	6	C15H13O3+
242.1175	29	C15H16NO2+
250.086	6	C16H12NO2+
251.0936	3	C16H13NO2+
252.1018	46	C16H14NO2+
255.0884	5	C15H13NO3+
268.0959	5	C16H14NO3+
270.1123	136	C16H16NO3+
288.123	162	C16H18NO4+
