Mass spectrum: Conessine; LC-ESI-ITFT; MS2; CE: 55%; R=15000; [M+H]+
Name: Conessine
Formula: C24H40N2
Exact mass: 356.3191
SMILES: C[C@H]1[C@H]2CC[C@H]3[C@@H]4CC=C5C[C@H](CC[C@]5(C)[C@H]4CC[C@]23CN1C)N(C)C
InChI: InChI=1S/C24H40N2/c1-16-20-8-9-22-19-7-6-17-14-18(25(3)4)10-12-23(17,2)21(19)11-13-24(20,22)15-26(16)5/h6,16,18-22H,7-15H2,1-5H3/t16-,18-,19+,20+,21-,22-,23-,24-/m0/s1
Instrument: LTQ Orbitrap XL Thermo Scientific
Instrument type: LC-ESI-ITFT
Ms type: MS2
Ion mode: POSITIVE
Ionization: ESI
Fragmentation mode: HCD
Collision energy: 55 % (nominal)
Resolution: 15000
Column name: Kinetex Evo C18 2.6 um 50 x 2.1 mm
Retention time: 5.555 min
Base peak: 179.1667
Precursor m/z: 357.3264
Precursor type: [M+H]+
m/z	relative intensity	assigned
55.054	28	C4H7+
67.0541	71	C5H7+
72.0807	62	C4H10N+
79.0543	47	C6H7+
81.0698	140	C6H9+
83.0855	46	C6H11+
84.0808	596	C5H10N+
91.0542	60	C7H7+
93.0699	118	C7H9+
95.0855	90	C7H11+
105.0698	137	C8H9+
107.0853	75	C8H11+
109.1011	244	C8H13+
117.0702	36	C9H9+
119.0854	78	C9H11+
121.101	89	C9H13+
123.1167	30	C9H15+
131.0854	57	C10H11+
133.1011	172	C10H13+
135.1168	241	C10H15+
145.1011	147	C11H13+
147.1168	455	C11H15+
149.1324	50	C11H17+
157.1016	25	C12H13+
159.1168	587	C12H15+
161.1325	455	C12H17+
171.1173	19	C13H15+
173.1324	197	C13H17+
175.1479	30	C13H19+
185.1324	37	C14H17+
187.1481	292	C14H19+
199.1484	30	C15H19+
201.1635	31	C15H21+
213.1638	55	C16H21+
269.2262	270	C20H29+
312.2687	135	C22H34N+
357.3263	999	C24H41N2+
