Mass spectrum: Senecivernine N-oxide; LC-ESI-ITFT; MS2; CE: 60%; R=15000; [M+H]+
Name: Senecivernine N-oxide
Name: CID 14313723
Name: 7-hydroxy-5,6,7-trimethyl-4-methylidene-14-oxido-2,9-dioxa-14-azoniatricyclo[9.5.1.014,17]heptadec-11-ene-3,8-dione
Formula: C18H25NO6
Exact mass: 351.1682
SMILES: CC1C(C(C(=O)OCC2=CC[N+]3(C2C(CC3)OC(=O)C1=C)[O-])(C)O)C
InChI: InChI=1S/C18H25NO6/c1-10-11(2)16(20)25-14-6-8-19(23)7-5-13(15(14)19)9-24-17(21)18(4,22)12(10)3/h5,10,12,14-15,22H,2,6-9H2,1,3-4H3
Instrument: LTQ Orbitrap XL Thermo Scientific
Instrument type: LC-ESI-ITFT
Ms type: MS2
Ion mode: POSITIVE
Ionization: ESI
Fragmentation mode: HCD
Collision energy: 60% (nominal)
Resolution: 15000
Column name: Kinetex Evo C18 2.6 um 50 x 2.1 mm
Retention time: 4.638 min
Base peak: 352.1753
Precursor m/z: 352.1755
Precursor type: [M+H]+
m/z	relative intensity	assigned
55.0542	10	C4H7+
67.0542	25	C5H7+
68.0494	12	C4H6N+
79.0543	89	C6H7+
80.0495	62	C5H6N+
81.0573	13	C5H7N+
81.0699	215	C6H9+
82.0652	24	C5H8N+
83.0493	32	C5H7O+
84.0443	25	C4H6NO+
91.0542	38	C7H7+
93.0573	326	C6H7N+
94.0651	533	C6H8N+
95.073	631	C6H9N+
98.0601	35	C5H8NO+
106.0652	248	C7H8N+
107.073	19	C7H9N+
107.0857	55	C8H11+
108.0808	137	C7H10N+
109.0649	50	C7H9O+
109.0885	19	C7H11N+
109.1013	22	C8H13+
110.06	21	C6H8NO+
111.044	34	C6H7O2+
111.0682	25	C6H9NO+
112.0758	78	C6H10NO+
118.0652	709	C8H8N+
119.073	650	C8H9N+
120.0808	999	C8H10N+
121.0886	267	C8H11N+
122.0964	94	C8H12N+
124.0757	30	C7H10NO+
125.0961	32	C8H13O+
126.0915	16	C7H12NO+
134.097	15	C9H12N+
135.0803	14	C9H11O+
136.0757	655	C8H10NO+
137.0602	15	C8H9O2+
137.0835	86	C8H11NO+
138.0914	506	C8H12NO+
141.0908	25	C8H13O2+
148.1119	11	C10H14N+
152.1071	69	C9H14NO+
153.091	118	C9H13O2+
154.0863	215	C8H12NO2+
192.139	14	C12H18NO+
202.1226	47	C13H16NO+
211.1328	69	C12H19O3+
218.1173	44	C13H16NO2+
220.1333	110	C13H18NO2+
236.1286	23	C13H18NO3+
246.1492	25	C15H20NO2+
248.1646	41	C15H22NO2+
290.1748	20	C17H24NO3+
324.1809	95	C17H26NO5+
352.1756	404	C18H26NO6+
