Mass spectrum: Isophorone; LC-ESI-ITFT; MS2; CE: 35%; R=15000; [M+H]+
Name: Isophorone
Name: 3,5,5-trimethylcyclohex-2-en-1-one
Formula: C9H14O
Exact mass: 138.1045
SMILES: CC1=CC(=O)CC(C)(C)C1
InChI: InChI=1S/C9H14O/c1-7-4-8(10)6-9(2,3)5-7/h4H,5-6H2,1-3H3
Instrument: LTQ Orbitrap XL Thermo Scientific
Instrument type: LC-ESI-ITFT
Ms type: MS2
Ion mode: POSITIVE
Ionization: ESI
Fragmentation mode: CID
Collision energy: 35 % (nominal)
Resolution: 15000
Column name: Kinetex Evo C18 2.6 um 50 x 2.1 mm
Retention time: 8.532 min
Base peak: 139.1119
Precursor m/z: 139.1117
Precursor type: [M+H]+
m/z	relative intensity	assigned
55.054	2	C4H7+
57.0696	1	C4H9+
69.0333	207	C4H5O+
79.0543	1	C6H7+
81.0699	3	C6H9+
83.0491	25	C5H7O+
93.0699	7	C7H9+
95.0855	18	C7H11+
97.0648	12	C6H9O+
97.1011	1	C7H13+
105.0703	1	C8H9+
111.0804	2	C7H11O+
121.1011	52	C9H13+
139.1115	999	C9H15O+
