Mass spectrum: Papaverin; LC-ESI-ITFT; MS2; CE: 90%; R=15000; [M+H]+
Name: Papaverin
Name: Papaverine
Name: 1-[(3,4-dimethoxyphenyl)methyl]-6,7-dimethoxyisoquinoline
Formula: C20H21NO4
Exact mass: 339.1471
SMILES: COC1=C(C=C(C=C1)CC2=NC=CC3=CC(=C(C=C32)OC)OC)OC
InChI: InChI=1S/C20H21NO4/c1-22-17-6-5-13(10-18(17)23-2)9-16-15-12-20(25-4)19(24-3)11-14(15)7-8-21-16/h5-8,10-12H,9H2,1-4H3
Instrument: LTQ Orbitrap XL Thermo Scientific
Instrument type: LC-ESI-ITFT
Ms type: MS2
Ion mode: POSITIVE
Ionization: ESI
Fragmentation mode: HCD
Collision energy: 90% (nominal)
Resolution: 15000
Column name: Kinetex Evo C18 2.6 um 50 x 2.1 mm
Retention time: 7.581 min
Base peak: 340.154
Precursor m/z: 340.1543
Precursor type: [M+H]+
m/z	relative intensity	assigned
77.0386	12	C6H5+
91.0542	25	C7H7+
95.0491	110	C6H7O+
102.0465	9	C8H6+
103.0542	74	C8H7+
104.0622	6	C8H8+
107.0491	38	C7H7O+
108.0573	9	C7H8O+
114.0463	15	C9H6+
115.0542	93	C9H7+
116.0494	45	C8H6N+
116.0621	12	C9H8+
117.0698	17	C9H9+
118.0411	6	C8H6O+
118.0651	30	C8H8N+
123.044	140	C7H7O2+
127.0416	19	C9H5N+
128.0495	242	C9H6N+
129.0573	55	C9H7N+
130.0414	11	C9H6O+
130.0651	104	C9H8N+
131.0491	101	C9H7O+
131.0729	41	C9H9N+
132.057	27	C9H8O+
133.0287	11	C8H5O2+
133.0649	9	C9H9O+
135.0441	23	C8H7O2+
136.052	8	C8H8O2+
138.0676	15	C8H10O2+
140.0494	50	C10H6N+
141.0573	74	C10H7N+
142.0651	70	C10H8N+
143.0726	17	C10H9N+
144.0445	61	C9H6NO+
144.0566	5	C10H8O+
144.0808	10	C10H10N+
145.0516	8	C9H7NO+
145.0646	28	C10H9O+
146.0601	59	C9H8NO+
147.0805	7	C10H11O+
148.0519	29	C9H8O2+
151.0754	27	C9H11O2+
154.0656	6	C11H8N+
155.0364	18	C10H5NO+
156.0444	358	C10H6NO+
157.0519	55	C10H7NO+
158.0601	390	C10H8NO+
159.0442	18	C10H7O2+
159.0677	142	C10H9NO+
160.0521	19	C10H8O2+
160.0756	34	C10H10NO+
161.0594	17	C10H9O2+
170.0602	70	C11H8NO+
171.0679	999	C11H9NO+
172.0393	36	C10H6NO2+
172.0731	75	C8H12O4+
173.0473	5	C10H7NO2+
174.0549	45	C10H8NO2+
174.0912	5	C11H12NO+
175.0754	57	C11H11O2+
180.0812	5	C13H10N+
181.0883	5	C13H11N+
183.0675	15	C12H9NO+
184.0758	8	C12H10NO+
186.0549	308	C11H8NO2+
187.0628	176	C11H9NO2+
188.0708	25	C11H10NO2+
189.0783	62	C11H11NO2+
190.0866	18	C11H12NO2+
192.0808	5	C14H10N+
193.089	8	C14H11N+
196.0756	23	C13H10NO+
197.0837	12	C13H11NO+
200.0704	7	C12H10NO2+
202.0861	452	C12H12NO2+
204.0654	15	C11H10NO3+
204.0806	14	C15H10N+
205.0886	10	C15H11N+
206.0964	19	C15H12N+
208.0758	19	C14H10NO+
209.0835	21	C14H11NO+
210.0914	21	C14H12NO+
212.0703	9	C13H10NO2+
220.0754	48	C15H10NO+
221.0839	27	C15H11NO+
222.0914	62	C15H12NO+
223.0995	31	C15H13NO+
224.07	29	C14H10NO2+
224.1073	28	C15H14NO+
225.0787	15	C14H11NO2+
227.0939	14	C14H13NO2+
232.0757	5	C16H10NO+
233.0832	18	C16H11NO+
234.0913	64	C16H12NO+
235.0993	47	C16H13NO+
236.07	20	C15H10NO2+
236.1079	11	C16H14NO+
237.0783	21	C15H11NO2+
238.0863	65	C15H12NO2+
240.1017	81	C15H14NO2+
247.099	7	C17H13NO+
248.0705	16	C16H10NO2+
248.1076	6	C17H14NO+
249.0784	14	C16H11NO2+
250.0862	106	C16H12NO2+
251.0942	81	C16H13NO2+
252.1019	131	C16H14NO2+
254.1178	24	C16H16NO2+
262.0861	41	C17H12NO2+
263.0942	65	C17H13NO2+
264.102	51	C17H14NO2+
265.0733	4	C16H11NO3+
266.081	38	C16H12NO3+
266.1176	61	C17H16NO2+
267.09	5	C16H13NO3+
278.0811	57	C17H12NO3+
278.1181	8	C18H16NO2+
279.0889	91	C17H13NO3+
280.0966	516	C17H14NO3+
282.1125	18	C17H16NO3+
290.0798	5	C18H12NO3+
292.0965	15	C18H14NO3+
294.1121	42	C18H16NO3+
296.1282	28	C18H18NO3+
306.0767	11	C18H12NO4+
308.0916	612	C18H14NO4+
322.1072	19	C19H16NO4+
324.1228	214	C19H18NO4+
