Mass spectrum: Matairesinol; LC-ESI-ITFT; MS2; CE: 125%; R=15000; [M+H]+
Name: Matairesinol
Formula: C20H22O6
Exact mass: 358.1416
SMILES: COC1=CC(C[C@H]2COC(=O)[C@@H]2CC2=CC=C(O)C(OC)=C2)=CC=C1O
InChI: InChI=1S/C20H22O6/c1-24-18-9-12(3-5-16(18)21)7-14-11-26-20(23)15(14)8-13-4-6-17(22)19(10-13)25-2/h3-6,9-10,14-15,21-22H,7-8,11H2,1-2H3/t14-,15+/m0/s1
Instrument: LTQ Orbitrap XL Thermo Scientific
Instrument type: LC-ESI-ITFT
Ms type: MS2
Ion mode: POSITIVE
Ionization: ESI
Fragmentation mode: HCD
Collision energy: 125 % (nominal)
Resolution: 15000
Column name: Kinetex Evo C18 2.6 um 50 x 2.1 mm
Retention time: 9.348 min
Base peak: 359.1486
Precursor m/z: 359.1489
Precursor type: [M+H]+
m/z	relative intensity	assigned
65.0386	33	C5H5+
66.0465	202	C5H6+
77.0387	138	C6H5+
79.0544	21	C6H7+
91.0544	51	C7H7+
93.0335	8	C6H5O+
94.0414	999	C6H6O+
95.0493	24	C6H7O+
103.0543	224	C8H7+
107.0492	13	C7H7O+
115.0542	25	C9H7+
117.0696	11	C9H9+
118.0414	8	C8H6O+
122.0364	273	C7H6O2+
128.0621	33	C10H8+
129.0701	6	C10H9+
131.0494	15	C9H7O+
137.0599	98	C8H9O2+
202.0777	11	C16H10+
