Mass spectrum: Huperzin A; LC-ESI-ITFT; MS2; CE: 95%; R=15000; [M+H]+
Name: Huperzin A
Name: (-)-Huperazine A
Name: (1R,9R,13E)-1-amino-13-ethylidene-11-methyl-6-azatricyclo[7.3.1.02,7]trideca-2(7),3,10-trien-5-one
Formula: C15H18N2O
Exact mass: 242.1419
SMILES: C/C=C/1\[C@@H]2CC3=C([C@]1(CC(=C2)C)N)C=CC(=O)N3
InChI: InChI=1S/C15H18N2O/c1-3-11-10-6-9(2)8-15(11,16)12-4-5-14(18)17-13(12)7-10/h3-6,10H,7-8,16H2,1-2H3,(H,17,18)/b11-3+/t10-,15+/m0/s1
Instrument: LTQ Orbitrap XL Thermo Scientific
Instrument type: LC-ESI-ITFT
Ms type: MS2
Ion mode: POSITIVE
Ionization: ESI
Fragmentation mode: HCD
Collision energy: 95% (nominal)
Resolution: 15000
Column name: Kinetex Evo C18 2.6 um 50 x 2.1 mm
Retention time: 1.533 min
Base peak: 143.0016
Precursor m/z: 243.1492
Precursor type: [M+H]+
m/z	relative intensity	assigned
92.0495	175	C6H6N+
110.06	90	C6H8NO+
119.0731	107	C8H9N+
134.0961	211	C9H12N+
153.0698	98	C12H9+
154.0653	113	C11H8N+
165.0699	339	C13H9+
166.0775	216	C13H10+
167.073	90	C12H9N+
168.0809	164	C12H10N+
178.0651	232	C13H8N+
181.1013	95	C14H13+
182.06	105	C12H8NO+
182.096	122	C13H12N+
187.0871	98	C11H11N2O+
192.0805	323	C14H10N+
193.0886	226	C14H11N+
196.0758	523	C13H10NO+
197.0829	134	C13H11NO+
208.1119	122	C15H14N+
210.0912	999	C14H12NO+
226.1227	249	C15H16NO+
227.1179	401	C14H15N2O+
