Mass spectrum: Tetrahydropalmatin; LC-ESI-ITFT; MS2; CE: 85%; R=15000; [M+H]+
Name: Tetrahydropalmatin
Name: D-Tetrahydropalmatine
Name: (13aR)-2,3,9,10-tetramethoxy-6,8,13,13a-tetrahydro-5H-isoquinolino[2,1-b]isoquinoline
Formula: C21H25NO4
Exact mass: 355.1784
SMILES: COC1=C(C2=C(C[C@@H]3C4=CC(=C(C=C4CCN3C2)OC)OC)C=C1)OC
InChI: InChI=1S/C21H25NO4/c1-23-18-6-5-13-9-17-15-11-20(25-3)19(24-2)10-14(15)7-8-22(17)12-16(13)21(18)26-4/h5-6,10-11,17H,7-9,12H2,1-4H3/t17-/m1/s1
Instrument: LTQ Orbitrap XL Thermo Scientific
Instrument type: LC-ESI-ITFT
Ms type: MS2
Ion mode: POSITIVE
Ionization: ESI
Fragmentation mode: HCD
Collision energy: 85% (nominal)
Resolution: 15000
Column name: Kinetex Evo C18 2.6 um 50 x 2.1 mm
Retention time: 7.471 min
Base peak: 356.1854
Precursor m/z: 356.1856
Precursor type: [M+H]+
m/z	relative intensity	assigned
77.0386	6	C6H5+
79.0542	29	C6H7+
90.0466	2	C7H6+
91.0541	17	C7H7+
93.0694	2	C7H9+
103.0541	31	C8H7+
104.0619	8	C8H8+
105.0698	60	C8H9+
107.049	34	C7H7O+
108.0571	3	C7H8O+
115.0539	4	C9H7+
117.0699	2	C9H9+
118.0413	13	C8H6O+
118.0648	7	C8H8N+
119.049	14	C8H7O+
119.0728	4	C8H9N+
120.0569	17	C8H8O+
121.0647	46	C8H9O+
122.0725	11	C8H10O+
124.0516	3	C7H8O2+
130.0651	8	C9H8N+
131.0729	344	C9H9N+
132.0568	6	C9H8O+
133.0523	3	C8H7NO+
133.0647	31	C9H9O+
134.06	4	C8H8NO+
134.0725	47	C9H10O+
135.044	57	C8H7O2+
135.0803	15	C9H11O+
136.0513	6	C8H8O2+
137.0604	3	C8H9O2+
145.0643	3	C10H9O+
146.06	20	C9H8NO+
146.0727	3	C10H10O+
147.0678	99	C9H9NO+
148.0756	479	C9H10NO+
149.0472	2	C8H7NO2+
149.0595	18	C9H9O2+
150.0674	141	C9H10O2+
151.0749	26	C9H11O2+
158.0727	6	C11H10O+
159.0678	145	C10H9NO+
160.0756	67	C10H10NO+
161.0597	3	C10H9O2+
161.0833	21	C10H11NO+
162.0547	8	C9H8NO2+
162.0915	3	C10H12NO+
165.0909	91	C10H13O2+
174.0548	16	C10H8NO2+
175.0625	9	C10H9NO2+
175.0751	2	C11H11O2+
176.0705	774	C10H10NO2+
177.0783	514	C10H11NO2+
190.0861	55	C11H12NO2+
192.1017	999	C11H14NO2+
234.104	3	C17H14O+
235.0747	3	C16H11O2+
235.0992	2	C16H13NO+
236.1062	3	C16H14NO+
237.0905	3	C16H13O2+
249.0911	2	C17H13O2+
250.0992	4	C17H14O2+
252.1016	3	C16H14NO2+
254.1169	2	C16H16NO2+
264.1014	9	C17H14NO2+
265.0858	3	C17H13O3+
278.1184	7	C18H16NO2+
279.1243	4	C18H17NO2+
280.0974	2	C17H14NO3+
282.1113	4	C17H16NO3+
294.1119	4	C18H16NO3+
296.1284	7	C18H18NO3+
306.1131	7	C19H16NO3+
308.1291	3	C19H18NO3+
324.1226	12	C19H18NO4+
