Mass spectrum: Monocrotaline; LC-ESI-ITFT; MS2; CE: 65%; R=15000; [M+H]+
Name: Monocrotaline
Name: (1R,4R,5R,6R,16R)-5,6-dihydroxy-4,5,6-trimethyl-2,8-dioxa-13-azatricyclo[8.5.1.013,16]hexadec-10-ene-3,7-dione
Formula: C16H23NO6
Exact mass: 325.1525
SMILES: C[C@H]1C(=O)O[C@@H]2CCN3[C@@H]2C(=CC3)COC(=O)[C@]([C@]1(C)O)(C)O
InChI: InChI=1S/C16H23NO6/c1-9-13(18)23-11-5-7-17-6-4-10(12(11)17)8-22-14(19)16(3,21)15(9,2)20/h4,9,11-12,20-21H,5-8H2,1-3H3/t9-,11+,12+,15+,16-/m0/s1
Instrument: LTQ Orbitrap XL Thermo Scientific
Instrument type: LC-ESI-ITFT
Ms type: MS2
Ion mode: POSITIVE
Ionization: ESI
Fragmentation mode: HCD
Collision energy: 65% (nominal)
Resolution: 15000
Column name: Kinetex Evo C18 2.6 um 50 x 2.1 mm
Retention time: 0.626 min
Base peak: 326.1596
Precursor m/z: 326.1598
Precursor type: [M+H]+
m/z	relative intensity	assigned
67.0417	74	C4H5N+
67.0542	19	C5H7+
68.0495	31	C4H6N+
79.0543	17	C6H7+
80.0495	51	C5H6N+
82.0653	26	C5H8N+
91.0541	19	C7H7+
92.0621	14	C7H8+
93.0573	19	C6H7N+
93.0699	52	C7H9+
94.0652	245	C6H8N+
95.073	322	C6H9N+
96.0808	54	C6H10N+
106.0653	35	C7H8N+
108.0808	52	C7H10N+
110.0599	19	C6H8NO+
110.0966	12	C7H12N+
118.065	10	C8H8N+
119.0728	10	C8H9N+
120.0809	804	C8H10N+
121.0887	999	C8H11N+
122.0965	167	C8H12N+
138.0914	269	C8H12NO+
139.0993	70	C8H13NO+
140.1071	40	C8H14NO+
146.0963	8	C10H12N+
156.1021	63	C8H14NO2+
164.1072	96	C10H14NO+
180.1011	8	C10H14NO2+
182.1178	18	C10H16NO2+
184.0969	89	C9H14NO3+
194.1177	203	C11H16NO2+
195.1253	29	C11H17NO2+
210.1122	17	C11H16NO3+
212.1285	21	C11H18NO3+
228.1228	24	C11H18NO4+
237.1358	108	C13H19NO3+
238.1434	20	C13H20NO3+
241.9843	8	C12H2O6+
252.1225	14	C13H18NO4+
254.1385	13	C13H20NO4+
280.1545	42	C15H22NO4+
298.1647	40	C15H24NO5+
326.1601	138	C16H24NO6+
