Mass spectrum: (-)-Nuciferine; LC-ESI-ITFT; MS2; CE: 60%; R=15000; [M+H]+
Name: (-)-Nuciferine
Name: Nuciferine
Name: (6aR)-1,2-dimethoxy-6-methyl-5,6,6a,7-tetrahydro-4H-dibenzo[de,g]quinoline
Formula: C19H21NO2
Exact mass: 295.1572
SMILES: CN1CCc2cc(c(c-3c2[C@H]1Cc4c3cccc4)OC)OC
InChI: InChI=1S/C19H21NO2/c1-20-9-8-13-11-16(21-2)19(22-3)18-14-7-5-4-6-12(14)10-15(20)17(13)18/h4-7,11,15H,8-10H2,1-3H3/t15-/m1/s1
Instrument: LTQ Orbitrap XL Thermo Scientific
Instrument type: LC-ESI-ITFT
Ms type: MS2
Ion mode: POSITIVE
Ionization: ESI
Fragmentation mode: HCD
Collision energy: 60% (nominal)
Resolution: 15000
Column name: Kinetex Evo C18 2.6 um 50 x 2.1 mm
Retention time: 7.612 min
Base peak: 296.1642
Precursor m/z: 296.1645
Precursor type: [M+H]+
m/z	relative intensity	assigned
128.0618	6	C10H8+
165.0697	5	C13H9+
178.0771	8	C14H10+
179.0855	36	C14H11+
189.0695	11	C15H9+
190.0776	39	C15H10+
191.0854	64	C15H11+
192.0934	10	C15H12+
193.0649	7	C14H9O+
193.1011	10	C15H13+
194.0725	6	C14H10O+
194.1086	9	C15H14+
195.0805	5	C14H11O+
202.0775	23	C16H10+
203.0854	96	C16H11+
204.0932	32	C16H12+
205.0649	13	C15H9O+
205.1011	85	C16H13+
206.0726	25	C15H10O+
206.1093	5	C16H14+
207.0803	109	C15H11O+
208.0886	10	C15H12O+
215.0853	14	C17H11+
217.0646	29	C16H9O+
218.0725	135	C16H10O+
219.0803	219	C16H11O+
220.0883	27	C16H12O+
221.0595	86	C15H9O2+
221.096	184	C16H13O+
222.0672	16	C15H10O2+
222.1038	110	C16H14O+
223.0757	11	C15H11O2+
231.0805	12	C17H11O+
232.0883	29	C17H12O+
233.096	133	C17H13O+
234.1038	972	C17H14O+
235.0751	920	C16H11O2+
236.083	116	C16H12O2+
237.0917	13	C16H13O2+
238.0986	23	C16H14O2+
249.0908	90	C17H13O2+
250.0986	999	C17H14O2+
265.122	682	C18H17O2+
