Mass spectrum: Protopin; LC-ESI-ITFT; MS2; CE: 75%; R=15000; [M+H]+
Name: Protopin
Name: Protopine
Name: 15-methyl-7,9,19,21-tetraoxa-15-azapentacyclo[15.7.0.04,12.06,10.018,22]tetracosa-1(17),4,6(10),11,18(22),23-hexaen-3-one
Formula: C20H19NO5
Exact mass: 353.1263
SMILES: CN1CCC2=CC3=C(C=C2C(=O)CC4=C(C1)C5=C(C=C4)OCO5)OCO3
InChI: InChI=1S/C20H19NO5/c1-21-5-4-13-7-18-19(25-10-24-18)8-14(13)16(22)6-12-2-3-17-20(15(12)9-21)26-11-23-17/h2-3,7-8H,4-6,9-11H2,1H3
Instrument: LTQ Orbitrap XL Thermo Scientific
Instrument type: LC-ESI-ITFT
Ms type: MS2
Ion mode: POSITIVE
Ionization: ESI
Fragmentation mode: HCD
Collision energy: 75% (nominal)
Resolution: 15000
Column name: Kinetex Evo C18 2.6 um 50 x 2.1 mm
Retention time: 6.714 min
Base peak: 354.1335
Precursor m/z: 354.1336
Precursor type: [M+H]+
m/z	relative intensity	assigned
77.0388	7	C6H5+
79.0542	25	C6H7+
91.0542	86	C7H7+
93.0699	6	C7H9+
103.0541	12	C8H7+
107.0491	89	C7H7O+
109.0648	12	C7H9O+
115.0542	3	C9H7+
117.0698	2	C9H9+
118.065	13	C8H8N+
119.0491	85	C8H7O+
120.0807	7	C8H10N+
121.0647	4	C8H9O+
130.0651	12	C9H8N+
131.0491	22	C9H7O+
131.0729	44	C9H9N+
132.0808	10	C9H10N+
135.0441	143	C8H7O2+
137.0599	5	C8H9O2+
143.0493	6	C10H7O+
144.0808	28	C10H10N+
146.0601	14	C9H8NO+
147.0441	106	C9H7O2+
148.0517	5	C9H8O2+
148.0761	4	C9H10NO+
149.0597	356	C9H9O2+
159.044	36	C10H7O2+
159.0678	124	C10H9NO+
160.0516	6	C10H8O2+
160.0757	62	C10H10NO+
161.0596	19	C10H9O2+
161.0831	8	C10H11NO+
163.0389	83	C9H7O3+
165.0546	55	C9H9O3+
165.0697	8	C13H9+
167.0855	72	C13H11+
173.0599	13	C11H9O2+
174.055	38	C10H8NO2+
175.0389	50	C10H7O3+
176.0706	24	C10H10NO2+
177.0699	22	C14H9+
177.0784	25	C10H11NO2+
178.0773	9	C14H10+
178.0863	15	C10H12NO2+
179.0855	104	C14H11+
181.0651	9	C13H9O+
187.0396	6	C11H7O3+
188.0706	999	C11H10NO2+
189.0694	129	C15H9+
189.0784	677	C11H11NO2+
190.086	26	C11H12NO2+
191.0852	29	C15H11+
193.0647	11	C14H9O+
195.0804	99	C14H11O+
204.065	6	C11H10NO3+
205.0646	59	C15H9O+
206.0811	102	C11H12NO3+
207.0803	152	C15H11O+
209.0596	120	C14H9O2+
217.0647	140	C16H9O+
219.0803	40	C16H11O+
220.1128	6	C16H14N+
221.059	5	C15H9O2+
222.0673	16	C15H10O2+
223.0753	26	C15H11O2+
225.0908	11	C15H13O2+
233.0594	11	C16H9O2+
233.083	3	C16H11NO+
235.0753	140	C16H11O2+
237.0544	42	C15H9O3+
237.0908	61	C16H13O2+
245.0597	14	C17H9O2+
246.0675	8	C17H10O2+
247.0753	223	C17H11O2+
248.1071	8	C17H14NO+
249.0909	9	C17H13O2+
250.0627	7	C16H10O3+
251.0695	6	C16H11O3+
262.0622	3	C17H10O3+
262.0863	3	C17H12NO2+
263.0703	34	C17H11O3+
263.094	9	C17H13NO2+
265.0859	48	C17H13O3+
266.0571	12	C16H10O4+
267.0649	14	C16H11O4+
275.0702	102	C18H11O3+
276.1018	5	C18H14NO2+
278.0568	3	C17H10O4+
278.1173	16	C18H16NO2+
280.0728	7	C17H12O4+
290.0824	6	C18H12NO3+
292.0728	4	C18H12O4+
293.0809	16	C18H13O4+
306.1119	7	C19H16NO3+
320.0917	53	C19H14NO4+
334.1065	14	C20H16NO4+
