Mass spectrum: Lycopsamine; LC-ESI-ITFT; MS2; CE: 60%; R=15000; [M+H]+
Name: Lycopsamine
Name: [(7R,8R)-7-hydroxy-5,6,7,8-tetrahydro-3H-pyrrolizin-1-yl]methyl (2S)-2-hydroxy-2-[(1S)-1-hydroxyethyl]-3-methylbutanoate
Formula: C15H25NO5
Exact mass: 299.1733
SMILES: C[C@@H]([C@@](C(C)C)(C(=O)OCC1=CCN2[C@H]1[C@@H](CC2)O)O)O
InChI: InChI=1S/C15H25NO5/c1-9(2)15(20,10(3)17)14(19)21-8-11-4-6-16-7-5-12(18)13(11)16/h4,9-10,12-13,17-18,20H,5-8H2,1-3H3/t10-,12+,13+,15-/m0/s1
Instrument: LTQ Orbitrap XL Thermo Scientific
Instrument type: LC-ESI-ITFT
Ms type: MS2
Ion mode: POSITIVE
Ionization: ESI
Fragmentation mode: HCD
Collision energy: 60% (nominal)
Resolution: 15000
Column name: Kinetex Evo C18 2.6 um 50 x 2.1 mm
Retention time: 1.041 min
Base peak: 143.0015
Precursor m/z: 300.1805
Precursor type: [M+H]+
m/z	relative intensity	assigned
67.0415	12	C4H5N+
67.0541	13	C5H7+
73.0649	8	C4H9O+
80.0495	11	C5H6N+
82.0651	56	C5H8N+
86.06	13	C4H8NO+
94.0651	920	C6H8N+
95.0729	66	C6H9N+
96.0807	69	C6H10N+
108.0807	19	C7H10N+
110.0962	9	C7H12N+
112.0756	39	C6H10NO+
120.0807	182	C8H10N+
138.0913	338	C8H12NO+
139.0991	213	C8H13NO+
156.1019	999	C8H14NO2+
300.1807	82	C15H26NO5+
