Mass spectrum: Hyoscyamine; LC-ESI-ITFT; MS2; CE: 60%; R=15000; [M+H]+
Name: Hyoscyamine
Formula: C17H23NO3
Exact mass: 289.1678
SMILES: CN1[C@@H]2CC[C@H]1C[C@H](C2)OC(=O)[C@H](CO)c3ccccc3
InChI: InChI=1S/C17H23NO3/c1-18-13-7-8-14(18)10-15(9-13)21-17(20)16(11-19)12-5-3-2-4-6-12/h2-6,13-16,19H,7-11H2,1H3/t13-,14+,15+,16-/m1/s1
Instrument: LTQ Orbitrap XL Thermo Scientific
Instrument type: LC-ESI-ITFT
Ms type: MS2
Ion mode: POSITIVE
Ionization: ESI
Fragmentation mode: HCD
Collision energy: 60% (nominal)
Resolution: 15000
Column name: Kinetex Evo C18 2.6 um 50 x 2.1 mm
Retention time: 2.816 min
Base peak: 290.175
Precursor m/z: 290.1751
Precursor type: [M+H]+
m/z	relative intensity	assigned
67.0542	19	C5H7+
68.0494	3	C4H6N+
70.0651	7	C4H8N+
77.0386	13	C6H5+
79.0541	5	C6H7+
82.0652	20	C5H8N+
83.073	8	C5H9N+
91.0542	67	C7H7+
93.0699	386	C7H9+
95.0855	30	C7H11+
96.0807	18	C6H10N+
98.0964	7	C6H12N+
103.0543	9	C8H7+
109.0883	2	C7H11N+
121.0648	40	C8H9O+
122.0962	3	C8H12N+
124.1121	999	C8H14N+
125.1198	18	C8H15N+
140.1071	5	C8H14NO+
142.1227	33	C8H16NO+
260.1651	11	C16H22NO2+
290.1751	165	C17H24NO3+
