Mass spectrum: (+)-Lupanine; LC-ESI-ITFT; MS2; CE: 45%; R=15000; [M+H]+
Name: (+)-Lupanine
Formula: C15H24N2O
Exact mass: 248.1889
SMILES: C1CCN2CC3CC(C2C1)CN4C3CCCC4=O
InChI: InChI=1S/C15H24N2O/c18-15-6-3-5-14-11-8-12(10-17(14)15)13-4-1-2-7-16(13)9-11/h11-14H,1-10H2
Instrument: LTQ Orbitrap XL Thermo Scientific
Instrument type: LC-ESI-ITFT
Ms type: MS2
Ion mode: POSITIVE
Ionization: ESI
Fragmentation mode: HCD
Collision energy: 45 % (nominal)
Resolution: 15000
Column name: Kinetex Evo C18 2.6 um 50 x 2.1 mm
Retention time: 0.484 min
Base peak: 249.1958
Precursor m/z: 249.1961
Precursor type: [M+H]+
m/z	relative intensity	assigned
70.0651	5	C4H8N+
85.065	2	C5H9O+
96.0808	2	C6H10N+
98.0964	6	C6H12N+
114.0913	27	C6H12NO+
134.0966	6	C9H12N+
136.112	77	C9H14N+
231.1856	7	C15H23N2+
247.1811	5	C15H23N2O+
249.1961	999	C15H25N2O+
