Mass spectrum: Yohimbine; LC-ESI-ITFT; MS2; CE: 100%; R=15000; [M+H]+
Name: Yohimbine
Name: methyl (1S,15R,18S,19R,20S)-18-hydroxy-1,3,11,12,14,15,16,17,18,19,20,21-dodecahydroyohimban-19-carboxylate
Formula: C21H26N2O3
Exact mass: 354.1943
SMILES: COC(=O)[C@H]1[C@H](CC[C@@H]2[C@@H]1C[C@H]3c4c(c5ccccc5[nH]4)CCN3C2)O
InChI: InChI=1S/C21H26N2O3/c1-26-21(25)19-15-10-17-20-14(13-4-2-3-5-16(13)22-20)8-9-23(17)11-12(15)6-7-18(19)24/h2-5,12,15,17-19,22,24H,6-11H2,1H3/t12-,15-,17-,18-,19+/m0/s1
Instrument: LTQ Orbitrap XL Thermo Scientific
Instrument type: LC-ESI-ITFT
Ms type: MS2
Ion mode: POSITIVE
Ionization: ESI
Fragmentation mode: HCD
Collision energy: 100% (nominal)
Resolution: 15000
Column name: Kinetex Evo C18 2.6 um 50 x 2.1 mm
Retention time: 6.517 min
Base peak: 355.2013
Precursor m/z: 355.2016
Precursor type: [M+H]+
m/z	relative intensity	assigned
67.0542	3	C5H7+
77.0387	8	C6H5+
79.0543	16	C6H7+
80.0496	8	C5H6N+
81.0335	3	C5H5O+
81.0701	3	C6H9+
82.0653	2	C5H8N+
91.0542	82	C7H7+
93.0574	8	C6H7N+
93.0699	6	C7H9+
94.0652	33	C6H8N+
95.0733	2	C6H9N+
103.0542	33	C8H7+
104.0498	5	C7H6N+
105.0447	8	C6H5N2+
105.07	19	C8H9+
106.0651	40	C7H8N+
107.0728	4	C7H9N+
108.0808	3	C7H10N+
113.06	3	C6H9O2+
115.0543	144	C9H7+
116.0495	12	C8H6N+
116.0621	10	C9H8+
117.0573	65	C8H7N+
117.0699	361	C9H9+
118.0652	24	C8H8N+
119.0729	2	C8H9N+
119.085	3	C9H11+
120.0807	9	C8H10N+
127.0543	19	C10H7+
128.0495	33	C9H6N+
128.0622	18	C10H8+
129.0575	8	C9H7N+
129.0699	15	C10H9+
130.0652	55	C9H8N+
131.0729	8	C9H9N+
132.081	7	C9H10N+
134.0965	35	C9H12N+
142.0653	18	C10H8N+
143.073	324	C10H9N+
144.0808	999	C10H10N+
145.0648	11	C10H9O+
146.06	7	C9H8NO+
146.0965	3	C10H12N+
154.0655	6	C11H8N+
155.0604	155	C10H7N2+
155.073	8	C11H9N+
156.0807	15	C11H10N+
157.0889	7	C11H11N+
158.0966	11	C11H12N+
162.0915	5	C10H12NO+
167.073	16	C12H9N+
168.0809	22	C12H10N+
170.0961	4	C12H12N+
180.0809	20	C13H10N+
181.0888	6	C13H11N+
182.0963	7	C13H12N+
192.0812	3	C14H10N+
193.089	8	C14H11N+
194.0967	13	C14H12N+
204.0805	11	C15H10N+
205.0888	10	C15H11N+
206.0961	15	C15H12N+
207.1047	3	C15H13N+
208.1119	7	C15H14N+
217.0886	7	C16H11N+
218.0962	12	C16H12N+
219.1045	4	C16H13N+
220.1119	6	C16H14N+
230.0965	9	C17H12N+
231.1034	4	C17H13N+
232.1121	9	C17H14N+
233.1202	3	C17H15N+
244.1122	4	C18H14N+
