Mass spectrum: alpha-Cyperone; LC-ESI-ITFT; MS2; CE: 55%; R=15000; [M+H]+
Name: alpha-Cyperone
Formula: C15H22O
Exact mass: 218.1671
SMILES: CC1=C2CC(CCC2(CCC1=O)C)C(=C)C
InChI: InChI=1S/C15H22O/c1-10(2)12-5-7-15(4)8-6-14(16)11(3)13(15)9-12/h12H,1,5-9H2,2-4H3
Instrument: LTQ Orbitrap XL Thermo Scientific
Instrument type: LC-ESI-ITFT
Ms type: MS2
Ion mode: POSITIVE
Ionization: ESI
Fragmentation mode: HCD
Collision energy: 55 % (nominal)
Resolution: 15000
Column name: Kinetex Evo C18 2.6 um 50 x 2.1 mm
Retention time: 13.141 min
Base peak: 219.1741
Precursor m/z: 219.1743
Precursor type: [M+H]+
m/z	relative intensity	assigned
55.0541	33	C4H7+
67.0541	106	C5H7+
69.0698	35	C5H9+
77.0386	5	C6H5+
79.0542	56	C6H7+
81.0698	236	C6H9+
83.0489	4	C5H7O+
83.0854	23	C6H11+
91.0541	37	C7H7+
93.0699	144	C7H9+
95.0855	234	C7H11+
97.0647	408	C6H9O+
105.0698	108	C8H9+
107.0855	157	C8H11+
109.0648	30	C7H9O+
109.1011	431	C8H13+
111.0804	999	C7H11O+
117.0696	14	C9H9+
119.0854	173	C9H11+
121.0646	27	C8H9O+
121.1011	150	C9H13+
123.0803	393	C8H11O+
123.1168	74	C9H15+
125.096	23	C8H13O+
131.0855	49	C10H11+
133.1011	52	C10H13+
135.0803	118	C9H11O+
135.1168	119	C10H15+
137.096	272	C9H13O+
138.1038	50	C9H14O+
145.1011	152	C11H13+
147.1168	139	C11H15+
149.096	61	C10H13O+
149.1325	15	C11H17+
150.1041	22	C10H14O+
151.1117	9	C10H15O+
158.1098	5	C12H14+
159.1168	91	C12H15+
161.0962	21	C11H13O+
161.1324	49	C12H17+
162.1034	12	C11H14O+
163.1117	338	C11H15O+
164.1198	6	C11H16O+
173.1325	40	C13H17+
175.148	17	C13H19+
176.1194	42	C12H16O+
177.1274	34	C12H17O+
177.1636	9	C13H21+
189.1271	7	C13H17O+
191.1435	5	C13H19O+
191.1792	7	C14H23+
201.1638	64	C15H21+
204.1509	20	C14H20O+
219.1742	284	C15H23O+
