Mass spectrum: Intermedine N-oxide; LC-ESI-ITFT; MS2; CE: 85%; R=15000; [M+H]+
Name: Intermedine N-oxide
Name: [(7R,8R)-7-hydroxy-4-oxido-5,6,7,8-tetrahydro-3H-pyrrolizin-4-ium-1-yl]methyl (2S)-2-hydroxy-2-[(1R)-1-hydroxyethyl]-3-methylbutanoate
Formula: C15H25NO6
Exact mass: 315.1682
SMILES: C[C@H]([C@@](C(C)C)(C(=O)OCC1=CC[N+]2([C@H]1[C@@H](CC2)O)[O-])O)O
InChI: InChI=1S/C15H25NO6/c1-9(2)15(20,10(3)17)14(19)22-8-11-4-6-16(21)7-5-12(18)13(11)16/h4,9-10,12-13,17-18,20H,5-8H2,1-3H3/t10-,12-,13-,15+,16?/m1/s1
Instrument: LTQ Orbitrap XL Thermo Scientific
Instrument type: LC-ESI-ITFT
Ms type: MS2
Ion mode: POSITIVE
Ionization: ESI
Fragmentation mode: HCD
Collision energy: 85% (nominal)
Resolution: 15000
Column name: Kinetex Evo C18 2.6 um 50 x 2.1 mm
Retention time: 1.194 min
Base peak: 143.0016
Precursor m/z: 316.1755
Precursor type: [M+H]+
m/z	relative intensity	assigned
67.0418	13	C4H5N+
67.0543	36	C5H7+
68.0495	62	C4H6N+
73.0648	21	C4H9O+
79.0542	17	C6H7+
80.0495	221	C5H6N+
81.0334	7	C5H5O+
81.0573	33	C5H7N+
81.0699	26	C6H9+
82.0414	58	C5H6O+
82.0652	67	C5H8N+
83.0492	103	C5H7O+
92.0497	14	C6H6N+
93.0574	532	C6H7N+
94.0652	999	C6H8N+
95.0729	17	C6H9N+
96.0444	29	C5H6NO+
96.0809	23	C6H10N+
98.0601	36	C5H8NO+
102.055	53	C4H8NO2+
106.0651	87	C7H8N+
108.0808	95	C7H10N+
109.0647	19	C7H9O+
110.0601	61	C6H8NO+
111.0679	767	C6H9NO+
112.0757	50	C6H10NO+
118.0651	16	C8H8N+
120.0807	14	C8H10N+
124.0758	35	C7H10NO+
126.0913	22	C7H12NO+
128.0707	42	C6H10NO2+
136.0757	213	C8H10NO+
137.0836	69	C8H11NO+
138.0914	423	C8H12NO+
140.0707	20	C7H10NO2+
154.0864	64	C8H12NO2+
155.0942	109	C8H13NO2+
172.0969	708	C8H14NO3+
