Mass spectrum: Imperatorin; LC-ESI-ITFT; MS2; CE: 80%; R=15000; [M+H]+
Name: Imperatorin
Name: 9-(3-methylbut-2-enoxy)furo[3,2-g]chromen-7-one
Formula: C16H14O4
Exact mass: 270.0892
SMILES: CC(=CCOc1c2c(ccc(=O)o2)cc3c1occ3)C
InChI: InChI=1S/C16H14O4/c1-10(2)5-7-19-16-14-12(6-8-18-14)9-11-3-4-13(17)20-15(11)16/h3-6,8-9H,7H2,1-2H3
Instrument: LTQ Orbitrap XL Thermo Scientific
Instrument type: LC-ESI-ITFT
Ms type: MS2
Ion mode: POSITIVE
Ionization: ESI
Fragmentation mode: HCD
Collision energy: 80% (nominal)
Resolution: 15000
Column name: Kinetex Evo C18 2.6 um 50 x 2.1 mm
Retention time: 11.549 min
Base peak: 116.9858
Precursor m/z: 271.0965
Precursor type: [M+H]+
m/z	relative intensity	assigned
69.0699	35	C5H9+
91.0543	79	C7H7+
103.0542	30	C8H7+
119.0492	13	C8H7O+
129.0335	136	C9H5O+
131.0492	150	C9H7O+
147.0441	999	C9H7O2+
157.0284	103	C10H5O2+
159.0436	23	C10H7O2+
174.0307	15	C10H6O3+
175.039	89	C10H7O3+
185.0229	13	C11H5O3+
203.0337	95	C11H7O4+
