Mass spectrum: Intermedine N-oxide; LC-ESI-ITFT; MS2; CE: 70%; R=15000; [M+H]+
Name: Intermedine N-oxide
Name: [(7R,8R)-7-hydroxy-4-oxido-5,6,7,8-tetrahydro-3H-pyrrolizin-4-ium-1-yl]methyl (2S)-2-hydroxy-2-[(1R)-1-hydroxyethyl]-3-methylbutanoate
Formula: C15H25NO6
Exact mass: 315.1682
SMILES: C[C@H]([C@@](C(C)C)(C(=O)OCC1=CC[N+]2([C@H]1[C@@H](CC2)O)[O-])O)O
InChI: InChI=1S/C15H25NO6/c1-9(2)15(20,10(3)17)14(19)22-8-11-4-6-16(21)7-5-12(18)13(11)16/h4,9-10,12-13,17-18,20H,5-8H2,1-3H3/t10-,12-,13-,15+,16?/m1/s1
Instrument: LTQ Orbitrap XL Thermo Scientific
Instrument type: LC-ESI-ITFT
Ms type: MS2
Ion mode: POSITIVE
Ionization: ESI
Fragmentation mode: HCD
Collision energy: 70% (nominal)
Resolution: 15000
Column name: Kinetex Evo C18 2.6 um 50 x 2.1 mm
Retention time: 1.205 min
Base peak: 143.0015
Precursor m/z: 316.1755
Precursor type: [M+H]+
m/z	relative intensity	assigned
55.0541	8	C4H7+
67.0541	13	C5H7+
68.0494	19	C4H6N+
73.0648	15	C4H9O+
80.0494	55	C5H6N+
81.0697	15	C6H9+
82.0413	55	C5H6O+
82.0651	32	C5H8N+
83.0491	64	C5H7O+
84.0806	6	C5H10N+
93.0573	252	C6H7N+
94.0651	371	C6H8N+
96.0805	10	C6H10N+
98.06	27	C5H8NO+
100.0755	8	C5H10NO+
102.0549	23	C4H8NO2+
106.0651	31	C7H8N+
108.0807	46	C7H10N+
109.0646	15	C7H9O+
110.06	28	C6H8NO+
111.0678	271	C6H9NO+
112.0755	40	C6H10NO+
118.0654	10	C8H8N+
120.0806	5	C8H10N+
124.0757	11	C7H10NO+
126.0917	12	C7H12NO+
128.0705	20	C6H10NO2+
136.0756	187	C8H10NO+
137.0834	74	C8H11NO+
138.0913	570	C8H12NO+
140.0708	13	C7H10NO2+
154.0862	63	C8H12NO2+
155.094	147	C8H13NO2+
172.0968	999	C8H14NO3+
226.1431	8	C12H20NO3+
316.1747	36	C15H26NO6+
