Mass spectrum: (-)-Scopolamine; LC-ESI-ITFT; MS2; CE: 105%; R=15000; [M+H]+
Name: (-)-Scopolamine
Formula: C17H21NO4
Exact mass: 303.1471
SMILES: CN1[C@@H]2C[C@H](C[C@H]1[C@H]3[C@@H]2O3)OC(=O)[C@H](CO)c4ccccc4
InChI: InChI=1S/C17H21NO4/c1-18-13-7-11(8-14(18)16-15(13)22-16)21-17(20)12(9-19)10-5-3-2-4-6-10/h2-6,11-16,19H,7-9H2,1H3/t11-,12-,13-,14+,15-,16+/m1/s1
Instrument: LTQ Orbitrap XL Thermo Scientific
Instrument type: LC-ESI-ITFT
Ms type: MS2
Ion mode: POSITIVE
Ionization: ESI
Fragmentation mode: HCD
Collision energy: 105% (nominal)
Resolution: 15000
Column name: Kinetex Evo C18 2.6 um 50 x 2.1 mm
Retention time: 1.117 min
Base peak: 143.0015
Precursor m/z: 304.1543
Precursor type: [M+H]+
m/z	relative intensity	assigned
67.0541	20	C5H7+
68.0494	18	C4H6N+
70.0651	58	C4H8N+
72.0446	8	C3H6NO+
77.0386	109	C6H5+
79.0543	93	C6H7+
80.0493	10	C5H6N+
81.0335	39	C5H5O+
81.0573	10	C5H7N+
81.0698	23	C6H9+
82.0651	55	C5H8N+
83.0491	12	C5H7O+
84.0807	12	C5H10N+
86.0602	5	C4H8NO+
91.0542	58	C7H7+
93.0699	17	C7H9+
94.0651	64	C6H8N+
95.0492	16	C6H7O+
95.0729	29	C6H9N+
96.0444	14	C5H6NO+
96.0807	30	C6H10N+
97.0522	173	C5H7NO+
98.06	51	C5H8NO+
103.0542	999	C8H7+
107.0486	6	C7H7O+
108.0808	30	C7H10N+
109.0887	8	C7H11N+
110.0601	27	C6H8NO+
110.0965	80	C7H12N+
121.0648	21	C8H9O+
138.0913	127	C8H12NO+
156.1019	30	C8H14NO2+
