Mass spectrum: Senecivernine N-oxide; LC-ESI-ITFT; MS2; CE: 50%; R=15000; [M+H]+
Name: Senecivernine N-oxide
Name: CID 14313723
Name: 7-hydroxy-5,6,7-trimethyl-4-methylidene-14-oxido-2,9-dioxa-14-azoniatricyclo[9.5.1.014,17]heptadec-11-ene-3,8-dione
Formula: C18H25NO6
Exact mass: 351.1682
SMILES: CC1C(C(C(=O)OCC2=CC[N+]3(C2C(CC3)OC(=O)C1=C)[O-])(C)O)C
InChI: InChI=1S/C18H25NO6/c1-10-11(2)16(20)25-14-6-8-19(23)7-5-13(15(14)19)9-24-17(21)18(4,22)12(10)3/h5,10,12,14-15,22H,2,6-9H2,1,3-4H3
Instrument: LTQ Orbitrap XL Thermo Scientific
Instrument type: LC-ESI-ITFT
Ms type: MS2
Ion mode: POSITIVE
Ionization: ESI
Fragmentation mode: HCD
Collision energy: 50% (nominal)
Resolution: 15000
Column name: Kinetex Evo C18 2.6 um 50 x 2.1 mm
Retention time: 4.712 min
Base peak: 352.1754
Precursor m/z: 352.1755
Precursor type: [M+H]+
m/z	relative intensity	assigned
67.0543	6	C5H7+
79.0542	16	C6H7+
80.0495	15	C5H6N+
81.07	68	C6H9+
82.0655	6	C5H8N+
84.0444	10	C4H6NO+
91.0542	16	C7H7+
93.0574	60	C6H7N+
94.0652	87	C6H8N+
95.073	271	C6H9N+
106.0651	82	C7H8N+
107.0855	7	C8H11+
108.0808	30	C7H10N+
109.0649	17	C7H9O+
109.0887	10	C7H11N+
109.1015	6	C8H13+
110.0726	9	C7H10O+
111.0442	7	C6H7O2+
111.0674	7	C6H9NO+
112.0756	19	C6H10NO+
118.0652	310	C8H8N+
119.073	263	C8H9N+
120.0808	277	C8H10N+
121.0886	185	C8H11N+
122.0964	38	C8H12N+
136.0757	192	C8H10NO+
137.0836	33	C8H11NO+
138.0914	197	C8H12NO+
141.0911	6	C8H13O2+
152.1069	24	C9H14NO+
153.091	39	C9H13O2+
154.0864	114	C8H12NO2+
202.1227	21	C13H16NO+
211.1328	17	C12H19O3+
218.1169	18	C13H16NO2+
220.1333	84	C13H18NO2+
246.1488	14	C15H20NO2+
248.1645	34	C15H22NO2+
290.1753	16	C17H24NO3+
324.1808	105	C17H26NO5+
352.1756	999	C18H26NO6+
