Mass spectrum: Galantamine; LC-ESI-ITFT; MS2; CE: 75%; R=15000; [M+H]+
Name: Galantamine
Formula: C17H21NO3
Exact mass: 287.1521
SMILES: CN1CCC23C=CC(CC2OC4=C(C=CC(=C34)C1)OC)O
InChI: InChI=1S/C17H21NO3/c1-18-8-7-17-6-5-12(19)9-14(17)21-16-13(20-2)4-3-11(10-18)15(16)17/h3-6,12,14,19H,7-10H2,1-2H3
Instrument: LTQ Orbitrap XL Thermo Scientific
Instrument type: LC-ESI-ITFT
Ms type: MS2
Ion mode: POSITIVE
Ionization: ESI
Fragmentation mode: HCD
Collision energy: 75 % (nominal)
Resolution: 15000
Column name: Kinetex Evo C18 2.6 um 50 x 2.1 mm
Retention time: 0.583 min
Base peak: 235.2167
Precursor m/z: 288.1594
Precursor type: [M+H]+
m/z	relative intensity	assigned
91.0542	31	C7H7+
103.0541	14	C8H7+
105.0699	40	C8H9+
109.0647	20	C7H9O+
115.0541	10	C9H7+
121.065	23	C8H9O+
128.0622	19	C10H8+
129.0701	16	C10H9+
133.065	9	C9H9O+
135.0804	57	C9H11O+
141.0701	20	C11H9+
142.0777	23	C11H10+
143.0857	23	C11H11+
145.0645	20	C10H9O+
146.0722	23	C10H10O+
151.0754	12	C9H11O2+
152.062	18	C12H8+
153.0701	41	C12H9+
155.0493	12	C11H7O+
155.0855	16	C12H11+
159.0808	16	C11H11O+
160.0515	8	C10H8O2+
160.0884	35	C11H12O+
161.0965	32	C11H13O+
165.0702	34	C13H9+
166.0778	49	C13H10+
167.0857	14	C13H11+
169.0651	59	C12H9O+
170.0727	89	C12H10O+
171.0805	20	C12H11O+
175.0754	48	C11H11O2+
175.1122	35	C12H15O+
178.0785	10	C14H10+
179.0855	29	C14H11+
180.0563	8	C13H8O+
181.065	82	C13H9O+
181.1015	32	C14H13+
182.0727	251	C13H10O+
183.0442	134	C12H7O2+
183.0806	24	C13H11O+
185.0963	114	C13H13O+
188.083	14	C12H12O2+
189.091	24	C12H13O2+
191.0859	18	C15H11+
194.0725	17	C14H10O+
195.0808	15	C14H11O+
197.0599	43	C13H9O2+
197.0964	22	C14H13O+
198.0676	999	C13H10O2+
199.0757	12	C13H11O2+
203.1066	20	C13H15O2+
209.0953	14	C15H13O+
210.0673	14	C14H10O2+
211.0754	12	C14H11O2+
213.0911	511	C14H13O2+
214.0633	10	C13H10O3+
216.0781	13	C13H12O3+
