Mass spectrum: Sophocarpine; LC-ESI-ITFT; MS2; CE: 80%; R=15000; [M+H]+
Name: Sophocarpine
Name: (1R,2R,9S,17S)-7,13-diazatetracyclo[7.7.1.02,7.013,17]heptadec-4-en-6-one
Formula: C15H22N2O
Exact mass: 246.1732
SMILES: C1C[C@H]2CN3[C@H](CC=CC3=O)[C@@H]4[C@H]2N(C1)CCC4
InChI: InChI=1S/C15H22N2O/c18-14-7-1-6-13-12-5-3-9-16-8-2-4-11(15(12)16)10-17(13)14/h1,7,11-13,15H,2-6,8-10H2/t11-,12+,13+,15-/m0/s1
Instrument: LTQ Orbitrap XL Thermo Scientific
Instrument type: LC-ESI-ITFT
Ms type: MS2
Ion mode: POSITIVE
Ionization: ESI
Fragmentation mode: HCD
Collision energy: 80% (nominal)
Resolution: 15000
Column name: Kinetex Evo C18 2.6 um 50 x 2.1 mm
Retention time: 0.877 min
Base peak: 247.1804
Precursor m/z: 247.1805
Precursor type: [M+H]+
m/z	relative intensity	assigned
70.0652	16	C4H8N+
82.0651	18	C5H8N+
84.0808	23	C5H10N+
96.0808	648	C6H10N+
98.0964	72	C6H12N+
108.0808	84	C7H10N+
110.06	46	C6H8NO+
110.0965	24	C7H12N+
112.0754	7	C6H10NO+
112.112	9	C7H14N+
122.0599	23	C7H8NO+
122.0962	30	C8H12N+
124.1122	8	C8H14N+
134.0597	9	C8H8NO+
134.0965	21	C9H12N+
136.1121	999	C9H14N+
138.1278	68	C9H16N+
146.0598	14	C9H8NO+
148.0755	39	C9H10NO+
148.1121	64	C10H14N+
149.0834	11	C9H11NO+
149.12	20	C10H15N+
150.0916	23	C9H12NO+
150.1277	247	C10H16N+
152.1434	36	C10H18N+
160.0759	17	C10H10NO+
162.0914	21	C10H12NO+
162.1279	15	C11H16N+
164.1068	11	C10H14NO+
174.0908	14	C11H12NO+
174.1276	7	C12H16N+
176.1071	19	C11H14NO+
179.1543	856	C11H19N2+
186.0912	6	C12H12NO+
188.1067	10	C12H14NO+
191.1173	14	C11H15N2O+
202.1228	11	C13H16NO+
216.1377	8	C14H18NO+
227.1541	23	C15H19N2+
228.1382	18	C15H18NO+
229.1699	21	C15H21N2+
230.1547	14	C15H20NO+
245.1649	418	C15H21N2O+
247.1804	747	C15H23N2O+
