Mass spectrum: Echimidine N-oxide; LC-ESI-ITFT; MS2; CE: 65%; R=15000; [M+H]+
Name: Echimidine N-oxide
Name: [(7R,8R)-7-[(Z)-2-methylbut-2-enoyl]oxy-4-oxido-5,6,7,8-tetrahydro-3H-pyrrolizin-4-ium-1-yl]methyl (2R)-2,3-dihydroxy-2-[(1S)-1-hydroxyethyl]-3-methylbutanoate
Formula: C20H31NO8
Exact mass: 413.2050
SMILES: C/C=C(/C)\C(=O)O[C@@H]1CC[N+]2([C@@H]1C(=CC2)COC(=O)[C@@]([C@H](C)O)(C(C)(C)O)O)[O-]
InChI: InChI=1S/C20H31NO8/c1-6-12(2)17(23)29-15-8-10-21(27)9-7-14(16(15)21)11-28-18(24)20(26,13(3)22)19(4,5)25/h6-7,13,15-16,22,25-26H,8-11H2,1-5H3/b12-6-/t13-,15+,16+,20-,21?/m0/s1
Instrument: LTQ Orbitrap XL Thermo Scientific
Instrument type: LC-ESI-ITFT
Ms type: MS2
Ion mode: POSITIVE
Ionization: ESI
Fragmentation mode: HCD
Collision energy: 65% (nominal)
Resolution: 15000
Column name: Kinetex Evo C18 2.6 um 50 x 2.1 mm
Retention time: 6.568 min
Base peak: 414.2116
Precursor m/z: 414.2122
Precursor type: [M+H]+
m/z	relative intensity	assigned
53.0385	8	C4H5+
55.0541	176	C4H7+
67.0416	7	C4H5N+
67.0542	17	C5H7+
68.0495	37	C4H6N+
79.0543	40	C6H7+
80.0495	72	C5H6N+
81.0335	6	C5H5O+
81.0573	17	C5H7N+
81.0699	65	C6H9+
82.0415	9	C5H6O+
82.0653	26	C5H8N+
83.0492	645	C5H7O+
84.0444	62	C4H6NO+
91.0542	33	C7H7+
93.0574	192	C6H7N+
93.0697	14	C7H9+
94.0652	224	C6H8N+
95.049	10	C6H7O+
95.073	56	C6H9N+
97.0645	8	C6H9O+
98.0603	14	C5H8NO+
106.0652	327	C7H8N+
107.0731	40	C7H9N+
107.0856	13	C8H11+
108.0808	139	C7H10N+
109.0648	53	C7H9O+
109.0886	27	C7H11N+
110.0601	35	C6H8NO+
111.0679	134	C6H9NO+
112.0757	35	C6H10NO+
118.0652	125	C8H8N+
119.073	264	C8H9N+
120.0808	451	C8H10N+
121.0887	45	C8H11N+
122.0595	7	C7H8NO+
122.0964	25	C8H12N+
124.0758	62	C7H10NO+
126.0914	24	C7H12NO+
132.0808	8	C9H10N+
134.0966	9	C9H12N+
136.0757	498	C8H10NO+
137.0836	612	C8H11NO+
138.0913	66	C8H12NO+
140.0707	7	C7H10NO2+
141.0911	457	C8H13O2+
146.0965	13	C10H12N+
147.1044	20	C10H13N+
148.1123	20	C10H14N+
152.1068	26	C9H14NO+
154.0863	322	C8H12NO2+
160.1124	17	C11H14N+
161.0832	10	C10H11NO+
162.0914	9	C10H12NO+
164.1071	8	C10H14NO+
169.0728	6	C8H11NO3+
172.0969	22	C8H14NO3+
174.0915	10	C11H12NO+
174.1278	38	C12H16N+
176.1076	22	C11H14NO+
190.1228	36	C12H16NO+
191.1302	9	C12H17NO+
192.1012	6	C11H14NO2+
192.1384	48	C12H18NO+
202.1223	13	C13H16NO+
218.1176	70	C13H16NO2+
219.1251	23	C13H17NO2+
220.1333	301	C13H18NO2+
236.1281	6	C13H18NO3+
237.1362	50	C13H19NO3+
254.1387	999	C13H20NO4+
338.1613	7	C17H24NO6+
