Mass spectrum: Conessine; LC-ESI-ITFT; MS2; CE: 110%; R=15000; [M+H]+
Name: Conessine
Formula: C24H40N2
Exact mass: 356.3191
SMILES: C[C@H]1[C@H]2CC[C@H]3[C@@H]4CC=C5C[C@H](CC[C@]5(C)[C@H]4CC[C@]23CN1C)N(C)C
InChI: InChI=1S/C24H40N2/c1-16-20-8-9-22-19-7-6-17-14-18(25(3)4)10-12-23(17,2)21(19)11-13-24(20,22)15-26(16)5/h6,16,18-22H,7-15H2,1-5H3/t16-,18-,19+,20+,21-,22-,23-,24-/m0/s1
Instrument: LTQ Orbitrap XL Thermo Scientific
Instrument type: LC-ESI-ITFT
Ms type: MS2
Ion mode: POSITIVE
Ionization: ESI
Fragmentation mode: HCD
Collision energy: 110 % (nominal)
Resolution: 15000
Column name: Kinetex Evo C18 2.6 um 50 x 2.1 mm
Retention time: 5.491 min
Base peak: 179.1666
Precursor m/z: 357.3264
Precursor type: [M+H]+
m/z	relative intensity	assigned
58.0651	21	C3H8N+
67.0542	164	C5H7+
69.0699	17	C5H9+
70.0651	37	C4H8N+
72.0807	28	C4H10N+
77.0386	78	C6H5+
79.0542	275	C6H7+
81.0699	267	C6H9+
84.0808	999	C5H10N+
91.0542	539	C7H7+
93.0699	246	C7H9+
95.0856	105	C7H11+
98.0966	11	C6H12N+
103.0541	23	C8H7+
105.0699	506	C8H9+
107.0855	78	C8H11+
109.1012	51	C8H13+
115.0543	51	C9H7+
116.0621	20	C9H8+
117.0699	190	C9H9+
119.0855	200	C9H11+
128.062	46	C10H8+
129.0699	130	C10H9+
130.0776	57	C10H10+
131.0856	163	C10H11+
133.1013	52	C10H13+
136.1122	14	C9H14N+
141.0704	16	C11H9+
142.078	32	C11H10+
143.0856	74	C11H11+
144.0935	42	C11H12+
145.1012	77	C11H13+
147.1165	39	C11H15+
155.0855	16	C12H11+
157.1009	39	C12H13+
159.1167	46	C12H15+
171.1167	25	C13H15+
185.1326	18	C14H17+
