Mass spectrum: Daidzein; LC-ESI-ITFT; MS2; CE: 75%; R=15000; [M+H]+
Name: Daidzein
Name: 7-hydroxy-3-(4-hydroxyphenyl)chromen-4-one
Formula: C15H10O4
Exact mass: 254.0579
SMILES: c1cc(ccc1c2coc3cc(ccc3c2=O)O)O
InChI: InChI=1S/C15H10O4/c16-10-3-1-9(2-4-10)13-8-19-14-7-11(17)5-6-12(14)15(13)18/h1-8,16-17H
Instrument: LTQ Orbitrap XL Thermo Scientific
Instrument type: LC-ESI-ITFT
Ms type: MS2
Ion mode: POSITIVE
Ionization: ESI
Fragmentation mode: HCD
Collision energy: 75% (nominal)
Resolution: 15000
Column name: Kinetex Evo C18 2.6 um 50 x 2.1 mm
Retention time: 9.200 min
Base peak: 116.9858
Precursor m/z: 255.0652
Precursor type: [M+H]+
m/z	relative intensity	assigned
81.0335	29	C5H5O+
91.0542	525	C7H7+
119.049	188	C8H7O+
121.0287	36	C7H5O2+
128.0619	147	C10H8+
129.0699	122	C10H9+
131.049	53	C9H7O+
131.0855	28	C10H11+
133.0285	53	C8H5O2+
134.0361	59	C8H6O2+
137.0233	826	C7H5O3+
143.0857	97	C11H11+
145.0282	66	C9H5O2+
149.0234	64	C8H5O3+
152.0619	91	C12H8+
153.0698	357	C12H9+
157.0649	135	C11H9O+
169.0649	26	C12H9O+
171.0803	170	C12H11O+
181.0646	649	C13H9O+
182.0734	35	C13H10O+
184.0517	86	C12H8O2+
197.0599	64	C13H9O2+
198.0673	51	C13H10O2+
199.0752	999	C13H11O2+
209.0597	48	C14H9O2+
227.07	396	C14H11O3+
237.0543	194	C15H9O3+
255.065	403	C15H11O4+
