Mass spectrum: Ajmalicine; LC-ESI-ITFT; MS2; CE: 65%; R=15000; [M+H]+
Name: Ajmalicine
Name: methyl (1S,15R,16S,20S)-16-methyl-17-oxa-3,13-diazapentacyclo[11.8.0.02,10.04,9.015,20]henicosa-2(10),4,6,8,18-pentaene-19-carboxylate
Formula: C21H24N2O3
Exact mass: 352.1787
SMILES: C[C@H]1[C@H]2CN3CCc4c5ccccc5[nH]c4[C@@H]3C[C@@H]2C(=CO1)C(=O)OC
InChI: InChI=1S/C21H24N2O3/c1-12-16-10-23-8-7-14-13-5-3-4-6-18(13)22-20(14)19(23)9-15(16)17(11-26-12)21(24)25-2/h3-6,11-12,15-16,19,22H,7-10H2,1-2H3/t12-,15-,16+,19-/m0/s1
Instrument: LTQ Orbitrap XL Thermo Scientific
Instrument type: LC-ESI-ITFT
Ms type: MS2
Ion mode: POSITIVE
Ionization: ESI
Fragmentation mode: HCD
Collision energy: 65% (nominal)
Resolution: 15000
Column name: Kinetex Evo C18 2.6 um 50 x 2.1 mm
Retention time: 7.532 min
Base peak: 116.9858
Precursor m/z: 353.186
Precursor type: [M+H]+
m/z	relative intensity	assigned
68.0493	1	C4H6N+
79.0543	3	C6H7+
81.0699	7	C6H9+
84.0807	3	C5H10N+
91.0542	3	C7H7+
93.0701	1	C7H9+
95.0492	3	C6H7O+
105.0698	1	C8H9+
106.065	1	C7H8N+
107.0491	2	C7H7O+
108.0807	13	C7H10N+
109.0283	3	C6H5O2+
109.0648	3	C7H9O+
115.054	3	C9H7+
117.0572	2	C8H7N+
117.0698	42	C9H9+
118.0652	2	C8H8N+
118.0732	2	C4H10N2O2+
120.0808	1	C8H10N+
121.0647	2	C8H9O+
122.0964	1	C8H12N+
124.0393	20	C6H6NO2+
128.0494	1	C9H6N+
128.062	1	C10H8+
129.0698	3	C10H9+
130.0651	13	C9H8N+
131.0727	1	C9H9N+
132.0805	1	C9H10N+
133.0646	1	C9H9O+
134.0965	3	C9H12N+
135.0443	1	C8H7O2+
136.0757	1	C8H10NO+
143.073	21	C10H9N+
143.0858	2	C11H11+
144.0807	999	C10H10N+
149.0594	2	C9H9O2+
150.0912	2	C9H12NO+
154.0653	1	C11H8N+
155.0604	12	C10H7N2+
155.0729	6	C11H9N+
156.0807	27	C11H10N+
157.0881	7	C11H11N+
158.0602	1	C10H8NO+
158.0964	19	C11H12N+
162.0913	3	C10H12NO+
164.0703	4	C9H10NO2+
168.0807	11	C12H10N+
169.0885	5	C12H11N+
170.0964	58	C12H12N+
171.0913	1	C11H11N2+
178.0862	33	C10H12NO2+
180.0806	7	C13H10N+
181.0888	3	C13H11N+
182.0964	32	C13H12N+
184.0997	1	C12H12N2+
190.086	1	C11H12NO2+
192.0804	1	C14H10N+
194.0964	6	C14H12N+
194.1174	1	C11H16NO2+
196.1121	5	C14H14N+
199.1225	1	C13H15N2+
204.081	2	C15H10N+
205.0888	1	C15H11N+
206.0964	6	C15H12N+
207.1047	1	C15H13N+
208.0759	1	C14H10NO+
208.0966	1	C11H14NO3+
208.112	4	C15H14N+
209.084	1	C14H11NO+
210.0915	3	C14H12NO+
210.1123	5	C11H16NO3+
217.0882	2	C16H11N+
218.0968	2	C16H12N+
219.1048	1	C16H13N+
220.0757	1	C15H10NO+
220.112	3	C16H14N+
221.0837	1	C15H11NO+
222.0913	2	C15H12NO+
222.1121	2	C12H16NO3+
222.1275	5	C16H16N+
224.1066	6	C15H14NO+
231.1048	1	C17H13N+
232.1121	3	C17H14N+
233.0839	1	C16H11NO+
234.0914	3	C16H12NO+
234.1278	2	C17H16N+
236.1436	2	C17H18N+
238.0869	1	C15H12NO2+
246.1287	1	C18H16N+
248.107	2	C17H14NO+
250.1228	4	C17H16NO+
251.155	1	C17H19N2+
252.1016	9	C16H14NO2+
260.1076	1	C18H14NO+
264.1378	2	C18H18NO+
278.118	2	C18H16NO2+
292.1339	1	C19H18NO2+
