Mass spectrum: Lasiocarpine N-oxide; LC-ESI-ITFT; MS2; CE: 70%; R=15000; [M+H]+
Name: Lasiocarpine N-oxide
Name: [(7S,8R)-7-[(Z)-2-methylbut-2-enoyl]oxy-4-oxido-5,6,7,8-tetrahydro-3H-pyrrolizin-4-ium-1-yl]methyl (2R)-2,3-dihydroxy-2-[(1S)-1-methoxyethyl]-3-methylbutanoate
Formula: C21H33NO8
Exact mass: 427.2206
SMILES: C/C=C(/C)\C(=O)O[C@H]1CC[N+]2([C@@H]1C(=CC2)COC(=O)[C@@]([C@H](C)OC)(C(C)(C)O)O)[O-]
InChI: InChI=1S/C21H33NO8/c1-7-13(2)18(23)30-16-9-11-22(27)10-8-15(17(16)22)12-29-19(24)21(26,14(3)28-6)20(4,5)25/h7-8,14,16-17,25-26H,9-12H2,1-6H3/b13-7-/t14-,16-,17+,21-,22?/m0/s1
Instrument: LTQ Orbitrap XL Thermo Scientific
Instrument type: LC-ESI-ITFT
Ms type: MS2
Ion mode: POSITIVE
Ionization: ESI
Fragmentation mode: HCD
Collision energy: 70% (nominal)
Resolution: 15000
Column name: Kinetex Evo C18 2.6 um 50 x 2.1 mm
Retention time: 7.965 min
Base peak: 428.2271
Precursor m/z: 428.2279
Precursor type: [M+H]+
m/z	relative intensity	assigned
55.0541	112	C4H7+
59.049	29	C3H7O+
67.0541	12	C5H7+
68.0494	43	C4H6N+
69.0696	10	C5H9+
79.0542	32	C6H7+
80.0494	190	C5H6N+
81.0573	25	C5H7N+
81.0699	86	C6H9+
82.0415	7	C5H6O+
82.0652	30	C5H8N+
83.0491	239	C5H7O+
84.0444	42	C4H6NO+
91.0542	35	C7H7+
92.0496	13	C6H6N+
92.0618	8	C7H8+
93.0573	466	C6H7N+
94.0651	999	C6H8N+
95.0491	10	C6H7O+
95.0728	29	C6H9N+
96.0444	14	C5H6NO+
96.0807	21	C6H10N+
97.0647	28	C6H9O+
98.0599	8	C5H8NO+
103.0539	8	C8H7+
106.0651	817	C7H8N+
107.0727	14	C7H9N+
107.0856	17	C8H11+
108.0807	230	C7H10N+
109.0647	35	C7H9O+
109.0887	15	C7H11N+
110.06	40	C6H8NO+
111.0678	555	C6H9NO+
112.0757	17	C6H10NO+
118.0651	255	C8H8N+
119.0729	908	C8H9N+
120.0807	769	C8H10N+
121.0886	62	C8H11N+
122.06	14	C7H8NO+
122.0964	16	C8H12N+
124.0756	62	C7H10NO+
126.0911	9	C7H12NO+
136.0757	635	C8H10NO+
137.0834	650	C8H11NO+
138.0912	547	C8H12NO+
141.091	83	C8H13O2+
148.1122	8	C10H14N+
150.0915	5	C9H12NO+
152.1068	11	C9H14NO+
154.0862	143	C8H12NO2+
155.0938	38	C8H13NO2+
156.1017	9	C8H14NO2+
172.0968	349	C8H14NO3+
190.1227	9	C12H16NO+
218.1167	9	C13H16NO2+
220.1335	17	C13H18NO2+
254.1386	200	C13H20NO4+
256.1174	12	C12H18NO5+
