Mass spectrum: Erucifoline N-oxide; LC-ESI-ITFT; MS2; CE: 90%; R=15000; [M+H]+
Name: Erucifoline N-oxide
Name: (5R,7S,9Z,12R,18R)-9-ethylidene-7-(hydroxymethyl)-5-methyl-15-oxido-3,6,11-trioxa-15-azoniatetracyclo[10.5.1.05,7.015,18]octadec-1(17)-ene-4,10-dione
Formula: C18H23NO7
Exact mass: 365.1475
SMILES: C/C=C\1/C[C@@]2([C@@](O2)(C(=O)OCC3=CC[N+]4([C@H]3[C@@H](CC4)OC1=O)[O-])C)CO
InChI: InChI=1S/C18H23NO7/c1-3-11-8-18(10-20)17(2,26-18)16(22)24-9-12-4-6-19(23)7-5-13(14(12)19)25-15(11)21/h3-4,13-14,20H,5-10H2,1-2H3/b11-3-/t13-,14-,17+,18+,19?/m1/s1
Instrument: LTQ Orbitrap XL Thermo Scientific
Instrument type: LC-ESI-ITFT
Ms type: MS2
Ion mode: POSITIVE
Ionization: ESI
Fragmentation mode: HCD
Collision energy: 90% (nominal)
Resolution: 15000
Column name: Kinetex Evo C18 2.6 um 50 x 2.1 mm
Retention time: 1.123 min
Base peak: 366.1545
Precursor m/z: 366.1547
Precursor type: [M+H]+
m/z	relative intensity	assigned
53.0385	19	C4H5+
65.0385	10	C5H5+
66.0464	14	C5H6+
67.0417	16	C4H5N+
67.0543	53	C5H7+
68.0495	10	C4H6N+
69.0335	7	C4H5O+
77.0386	21	C6H5+
78.0339	6	C5H4N+
79.0543	66	C6H7+
80.0495	167	C5H6N+
81.0335	21	C5H5O+
81.0575	24	C5H7N+
81.0699	34	C6H9+
82.0653	15	C5H8N+
83.0127	8	C4H3O2+
83.0491	20	C5H7O+
84.0446	9	C4H6NO+
91.0543	92	C7H7+
92.0495	32	C6H6N+
93.0574	321	C6H7N+
93.0699	23	C7H9+
94.0652	999	C6H8N+
95.0492	27	C6H7O+
95.0729	31	C6H9N+
95.0856	11	C7H11+
96.0447	8	C5H6NO+
97.0649	8	C6H9O+
98.0601	21	C5H8NO+
103.0541	9	C8H7+
105.0698	14	C8H9+
106.0652	81	C7H8N+
107.0491	11	C7H7O+
107.0729	26	C7H9N+
107.0851	4	C8H11+
108.0445	11	C6H6NO+
108.0808	139	C7H10N+
109.0649	54	C7H9O+
109.0887	8	C7H11N+
110.0599	10	C6H8NO+
111.0442	12	C6H7O2+
112.076	8	C6H10NO+
117.0573	52	C8H7N+
118.0652	470	C8H8N+
119.073	176	C8H9N+
120.0808	341	C8H10N+
121.0649	9	C8H9O+
122.0965	21	C8H12N+
123.0441	14	C7H7O2+
123.0804	8	C8H11O+
124.0758	6	C7H10NO+
125.0598	11	C7H9O2+
130.0652	9	C9H8N+
131.073	7	C9H9N+
132.0809	18	C9H10N+
134.0606	6	C8H8NO+
134.0965	11	C9H12N+
136.0758	317	C8H10NO+
138.0914	20	C8H12NO+
139.0753	13	C8H11O2+
144.0801	11	C10H10N+
146.0965	15	C10H12N+
158.0962	11	C11H12N+
160.1126	5	C11H14N+
164.1073	17	C10H14NO+
172.1127	5	C12H14N+
