Mass spectrum: Colchicine; LC-ESI-ITFT; MS2; CE: 40%; R=15000; [M+H]+
Name: Colchicine
Name: N-[(7S)-1,2,3,10-tetramethoxy-9-oxo-6,7-dihydro-5H-benzo[a]heptalen-7-yl]acetamide
Formula: C22H25NO6
Exact mass: 399.1682
SMILES: CC(=O)N[C@H]1CCC2=CC(=C(C(=C2C3=CC=C(C(=O)C=C13)OC)OC)OC)OC
InChI: InChI=1S/C22H25NO6/c1-12(24)23-16-8-6-13-10-19(27-3)21(28-4)22(29-5)20(13)14-7-9-18(26-2)17(25)11-15(14)16/h7,9-11,16H,6,8H2,1-5H3,(H,23,24)/t16-/m0/s1
Instrument: LTQ Orbitrap XL Thermo Scientific
Instrument type: LC-ESI-ITFT
Ms type: MS2
Ion mode: POSITIVE
Ionization: ESI
Fragmentation mode: HCD
Collision energy: 40% (nominal)
Resolution: 15000
Column name: Kinetex Evo C18 2.6 um 50 x 2.1 mm
Retention time: 9.282 min
Base peak: 116.9858
Precursor m/z: 400.1755
Precursor type: [M+H]+
m/z	relative intensity	assigned
137.0596	34	C8H9O2+
152.0711	23	C8H10NO2+
181.0859	68	C10H13O3+
234.1125	139	C13H16NO3+
250.0987	23	C17H14O2+
252.1156	16	C17H16O2+
266.0938	27	C17H14O3+
267.1018	72	C17H15O3+
268.1099	38	C17H16O3+
270.1254	28	C17H18O3+
278.0936	84	C18H14O3+
279.1011	21	C18H15O3+
281.1171	143	C18H17O3+
282.1253	549	C18H18O3+
283.0971	51	C17H15O4+
283.1317	24	C18H19O3+
284.1044	29	C17H16O4+
285.1123	222	C17H17O4+
286.1207	17	C17H18O4+
294.0893	64	C18H14O4+
294.1136	25	C18H16NO3+
295.0969	126	C18H15O4+
295.1204	93	C18H17NO3+
296.0929	17	C17H14NO4+
297.1118	32	C18H17O4+
297.1362	25	C18H19NO3+
298.1202	173	C18H18O4+
298.1439	137	C18H20NO3+
300.099	18	C17H16O5+
302.1144	34	C17H18O5+
308.1036	16	C19H16O4+
308.1281	60	C19H18NO3+
309.1122	240	C19H17O4+
309.1372	22	C19H19NO3+
310.1199	728	C19H18O4+
311.0917	87	C18H15O5+
311.1164	63	C18H17NO4+
312.1231	19	C18H18NO4+
313.1076	90	C18H17O5+
313.1434	219	C19H21O4+
314.1375	26	C18H20NO4+
316.1545	76	C18H22NO4+
324.1231	58	C19H18NO4+
325.1096	17	C22H15NO2+
325.1319	64	C19H19NO4+
326.1152	319	C19H18O5+
326.1388	436	C19H20NO4+
327.1478	26	C19H21NO4+
328.1185	88	C18H18NO5+
330.1336	38	C18H20NO5+
330.1696	33	C19H24NO4+
339.1466	73	C20H21NO4+
340.1545	230	C20H22NO4+
341.1384	524	C20H21O5+
342.1339	67	C19H20NO5+
343.1413	94	C19H21NO5+
350.139	22	C21H20NO4+
352.1178	22	C20H18NO5+
354.1698	42	C21H24NO4+
357.1585	40	C20H23NO5+
358.165	999	C20H24NO5+
367.142	83	C21H21NO5+
368.1486	22	C21H22NO5+
382.1649	178	C22H24NO5+
400.1757	746	C22H26NO6+
