Mass spectrum: Daidzein; LC-ESI-ITFT; MS2; CE: 65%; R=15000; [M+H]+
Name: Daidzein
Name: 7-hydroxy-3-(4-hydroxyphenyl)chromen-4-one
Formula: C15H10O4
Exact mass: 254.0579
SMILES: c1cc(ccc1c2coc3cc(ccc3c2=O)O)O
InChI: InChI=1S/C15H10O4/c16-10-3-1-9(2-4-10)13-8-19-14-7-11(17)5-6-12(14)15(13)18/h1-8,16-17H
Instrument: LTQ Orbitrap XL Thermo Scientific
Instrument type: LC-ESI-ITFT
Ms type: MS2
Ion mode: POSITIVE
Ionization: ESI
Fragmentation mode: HCD
Collision energy: 65% (nominal)
Resolution: 15000
Column name: Kinetex Evo C18 2.6 um 50 x 2.1 mm
Retention time: 9.200 min
Base peak: 116.9858
Precursor m/z: 255.0652
Precursor type: [M+H]+
m/z	relative intensity	assigned
68.9972	9	C3HO2+
91.0542	163	C7H7+
105.0336	17	C7H5O+
119.0491	93	C8H7O+
121.0287	23	C7H5O2+
128.0623	29	C10H8+
129.0698	42	C10H9+
131.0489	18	C9H7O+
133.0284	35	C8H5O2+
134.0368	24	C8H6O2+
137.0233	497	C7H5O3+
143.0856	39	C11H11+
145.0285	76	C9H5O2+
149.0235	49	C8H5O3+
152.0624	18	C12H8+
153.0699	153	C12H9+
157.0649	86	C11H9O+
165.0696	10	C13H9+
169.0652	13	C12H9O+
171.0805	101	C12H11O+
181.0648	293	C13H9O+
182.0731	16	C13H10O+
184.0518	38	C12H8O2+
185.0603	18	C12H9O2+
197.0595	25	C13H9O2+
198.0684	16	C13H10O2+
199.0753	940	C13H11O2+
209.0595	37	C14H9O2+
210.0674	13	C14H10O2+
211.0753	15	C14H11O2+
227.0702	410	C14H11O3+
237.0546	172	C15H9O3+
255.0652	999	C15H11O4+
