Mass spectrum: (+)-Lupanine; LC-ESI-ITFT; MS2; CE: 95%; R=15000; [M+H]+
Name: (+)-Lupanine
Formula: C15H24N2O
Exact mass: 248.1889
SMILES: C1CCN2CC3CC(C2C1)CN4C3CCCC4=O
InChI: InChI=1S/C15H24N2O/c18-15-6-3-5-14-11-8-12(10-17(14)15)13-4-1-2-7-16(13)9-11/h11-14H,1-10H2
Instrument: LTQ Orbitrap XL Thermo Scientific
Instrument type: LC-ESI-ITFT
Ms type: MS2
Ion mode: POSITIVE
Ionization: ESI
Fragmentation mode: HCD
Collision energy: 95 % (nominal)
Resolution: 15000
Column name: Kinetex Evo C18 2.6 um 50 x 2.1 mm
Retention time: 0.482 min
Base peak: 249.1955
Precursor m/z: 249.1961
Precursor type: [M+H]+
m/z	relative intensity	assigned
55.0541	14	C4H7+
67.0542	80	C5H7+
68.0493	14	C4H6N+
70.0651	282	C4H8N+
79.0542	54	C6H7+
80.0494	123	C5H6N+
81.0699	47	C6H9+
82.0651	70	C5H8N+
84.0807	355	C5H10N+
85.0648	114	C5H9O+
86.0963	9	C5H12N+
91.0542	66	C7H7+
93.0699	54	C7H9+
94.0651	59	C6H8N+
95.0855	24	C7H11+
96.0807	140	C6H10N+
98.06	53	C5H8NO+
98.0964	217	C6H12N+
100.0756	23	C5H10NO+
105.0698	40	C8H9+
106.065	6	C7H8N+
107.0855	26	C8H11+
108.0807	72	C7H10N+
109.0886	22	C7H11N+
110.0601	13	C6H8NO+
110.0964	63	C7H12N+
112.0756	230	C6H10NO+
112.1119	16	C7H14N+
114.0913	319	C6H12NO+
119.0856	11	C9H11+
120.0806	21	C8H10N+
122.0964	105	C8H12N+
124.0754	15	C7H10NO+
124.112	47	C8H14N+
131.0854	10	C10H11+
133.1013	14	C10H13+
134.0964	165	C9H12N+
135.1044	25	C9H13N+
136.112	640	C9H14N+
138.091	12	C8H12NO+
138.1276	29	C9H16N+
147.1164	5	C11H15+
148.1121	77	C10H14N+
150.1276	494	C10H16N+
152.1071	31	C9H14NO+
152.1433	102	C10H18N+
162.0907	7	C10H12NO+
162.1275	11	C11H16N+
164.1069	13	C10H14NO+
164.143	6	C11H18N+
166.1226	16	C10H16NO+
174.1274	16	C12H16N+
176.1433	19	C12H18N+
188.143	5	C13H18N+
189.1391	17	C12H17N2+
190.1597	8	C13H20N+
204.1383	16	C13H18NO+
206.1533	11	C13H20NO+
218.1533	8	C14H20NO+
220.1697	10	C14H22NO+
231.1858	16	C15H23N2+
247.1803	63	C15H23N2O+
249.196	999	C15H25N2O+
