Mass spectrum: Aconitin; LC-ESI-ITFT; MS2; CE: 105%; R=15000; [M+H]+
Name: Aconitin
Name: Aconitine
Name: [(1S,2R,3R,4R,5R,6S,7S,8R,9R,13R,14R,16S,17S,18R)-8-acetyloxy-11-ethyl-5,7,14-trihydroxy-6,16,18-trimethoxy-13-(methoxymethyl)-11-azahexacyclo[7.7.2.12,5.01,10.03,8.013,17]nonadecan-4-yl] benzoate
Formula: C34H47NO11
Exact mass: 645.3149
SMILES: CCN1C[C@@]2([C@@H](C[C@@H]([C@@]34[C@@H]2[C@H]([C@@H](C31)[C@@]5([C@@H]6[C@H]4C[C@@]([C@@H]6OC(=O)C7=CC=CC=C7)([C@H]([C@@H]5O)OC)O)OC(=O)C)OC)OC)O)COC
InChI: InChI=1S/C34H47NO11/c1-7-35-15-31(16-41-3)20(37)13-21(42-4)33-19-14-32(40)28(45-30(39)18-11-9-8-10-12-18)22(19)34(46-17(2)36,27(38)29(32)44-6)23(26(33)35)24(43-5)25(31)33/h8-12,19-29,37-38,40H,7,13-16H2,1-6H3/t19-,20-,21+,22-,23+,24+,25-,26?,27+,28-,29+,31+,32-,33+,34-/m1/s1
Instrument: LTQ Orbitrap XL Thermo Scientific
Instrument type: LC-ESI-ITFT
Ms type: MS2
Ion mode: POSITIVE
Ionization: ESI
Fragmentation mode: HCD
Collision energy: 105% (nominal)
Resolution: 15000
Column name: Kinetex Evo C18 2.6 um 50 x 2.1 mm
Retention time: 9.733 min
Base peak: 116.9858
Precursor m/z: 646.3222
Precursor type: [M+H]+
m/z	relative intensity	assigned
77.0385	623	C6H5+
79.0544	49	C6H7+
91.0542	144	C7H7+
95.0491	45	C6H7O+
103.0539	26	C8H7+
105.0335	999	C7H5O+
106.0646	37	C7H8N+
108.0808	31	C7H10N+
115.0541	90	C9H7+
116.0624	26	C9H8+
117.0576	28	C8H7N+
117.07	62	C9H9+
118.0652	50	C8H8N+
121.0883	28	C8H11N+
128.0621	98	C10H8+
129.0697	62	C10H9+
130.0654	31	C9H8N+
133.0285	22	C8H5O2+
141.0698	51	C11H9+
147.1045	38	C10H13N+
148.1116	30	C10H14N+
152.062	81	C12H8+
153.0698	57	C12H9+
156.0802	37	C11H10N+
158.0966	28	C11H12N+
160.1124	33	C11H14N+
165.07	145	C13H9+
166.0776	31	C13H10+
172.1122	31	C12H14N+
178.0774	127	C14H10+
179.0857	38	C14H11+
181.0648	31	C13H9O+
184.1122	46	C13H14N+
189.0699	79	C15H9+
190.0774	29	C15H10+
191.0854	40	C15H11+
202.0774	59	C16H10+
