Mass spectrum: Colchicine; LC-ESI-ITFT; MS2; CE: 55%; R=15000; [M+H]+
Name: Colchicine
Name: N-[(7S)-1,2,3,10-tetramethoxy-9-oxo-6,7-dihydro-5H-benzo[a]heptalen-7-yl]acetamide
Formula: C22H25NO6
Exact mass: 399.1682
SMILES: CC(=O)N[C@H]1CCC2=CC(=C(C(=C2C3=CC=C(C(=O)C=C13)OC)OC)OC)OC
InChI: InChI=1S/C22H25NO6/c1-12(24)23-16-8-6-13-10-19(27-3)21(28-4)22(29-5)20(13)14-7-9-18(26-2)17(25)11-15(14)16/h7,9-11,16H,6,8H2,1-5H3,(H,23,24)/t16-/m0/s1
Instrument: LTQ Orbitrap XL Thermo Scientific
Instrument type: LC-ESI-ITFT
Ms type: MS2
Ion mode: POSITIVE
Ionization: ESI
Fragmentation mode: HCD
Collision energy: 55% (nominal)
Resolution: 15000
Column name: Kinetex Evo C18 2.6 um 50 x 2.1 mm
Retention time: 9.282 min
Base peak: 116.9858
Precursor m/z: 400.1755
Precursor type: [M+H]+
m/z	relative intensity	assigned
137.0598	145	C8H9O2+
165.0781	99	C9H11NO2+
181.086	193	C10H13O3+
193.0731	53	C10H11NO3+
203.0948	82	C12H13NO2+
207.1014	123	C12H15O3+
219.088	51	C12H13NO3+
234.1123	140	C13H16NO3+
235.0746	163	C16H11O2+
238.0992	92	C16H14O2+
239.1069	147	C16H15O2+
241.0857	111	C15H13O3+
242.094	114	C15H14O3+
248.0833	51	C17H12O2+
249.0918	93	C17H13O2+
250.0992	135	C17H14O2+
251.0705	264	C16H11O3+
251.1063	187	C17H15O2+
252.0785	142	C16H12O3+
252.1135	78	C17H16O2+
253.0863	110	C16H13O3+
255.0655	90	C15H11O4+
255.1019	202	C16H15O3+
265.0861	213	C17H13O3+
266.0938	255	C17H14O3+
267.1017	822	C17H15O3+
268.1092	114	C17H16O3+
269.0798	111	C16H13O4+
270.0888	223	C16H14O4+
277.0854	89	C18H13O3+
278.0931	197	C18H14O3+
279.0654	182	C17H11O4+
279.1019	118	C18H15O3+
281.1171	290	C18H17O3+
282.1248	848	C18H18O3+
283.0965	557	C17H15O4+
284.104	81	C17H16O4+
285.1124	372	C17H17O4+
287.0915	138	C16H15O5+
293.0806	67	C18H13O4+
293.105	79	C18H15NO3+
294.0893	125	C18H14O4+
294.1125	177	C18H16NO3+
295.0965	999	C18H15O4+
295.1206	207	C18H17NO3+
296.0929	222	C17H14NO4+
296.1268	56	C18H18NO3+
297.1116	148	C18H17O4+
297.1361	64	C18H19NO3+
298.1196	277	C18H18O4+
298.1436	188	C18H20NO3+
300.1234	371	C17H18NO4+
301.1305	90	C17H19NO4+
308.1279	176	C19H18NO3+
309.1118	177	C19H17O4+
310.119	744	C19H18O4+
311.0915	663	C18H15O5+
311.1167	123	C18H17NO4+
312.1225	101	C18H18NO4+
313.1077	47	C18H17O5+
313.1435	83	C19H21O4+
314.1028	98	C17H16NO5+
314.1402	66	C18H20NO4+
324.1231	254	C19H18NO4+
325.1321	60	C19H19NO4+
326.1152	221	C19H18O5+
326.1387	235	C19H20NO4+
328.1182	470	C18H18NO5+
339.1456	163	C20H21NO4+
340.1539	104	C20H22NO4+
341.1393	97	C20H21O5+
342.1337	206	C19H20NO5+
343.1421	118	C19H21NO5+
358.1659	186	C20H24NO5+
