Mass spectrum: (+)-Lupanine; LC-ESI-ITFT; MS2; CE: 70%; R=15000; [M+H]+
Name: (+)-Lupanine
Formula: C15H24N2O
Exact mass: 248.1889
SMILES: C1CCN2CC3CC(C2C1)CN4C3CCCC4=O
InChI: InChI=1S/C15H24N2O/c18-15-6-3-5-14-11-8-12(10-17(14)15)13-4-1-2-7-16(13)9-11/h11-14H,1-10H2
Instrument: LTQ Orbitrap XL Thermo Scientific
Instrument type: LC-ESI-ITFT
Ms type: MS2
Ion mode: POSITIVE
Ionization: ESI
Fragmentation mode: HCD
Collision energy: 70 % (nominal)
Resolution: 15000
Column name: Kinetex Evo C18 2.6 um 50 x 2.1 mm
Retention time: 0.491 min
Base peak: 249.1956
Precursor m/z: 249.1961
Precursor type: [M+H]+
m/z	relative intensity	assigned
67.0541	6	C5H7+
70.0651	71	C4H8N+
80.0495	12	C5H6N+
84.0807	31	C5H10N+
85.0648	54	C5H9O+
96.0807	29	C6H10N+
98.0604	4	C5H8NO+
98.0964	88	C6H12N+
110.0965	7	C7H12N+
112.0757	17	C6H10NO+
114.0913	382	C6H12NO+
122.0963	4	C8H12N+
134.0964	64	C9H12N+
136.1121	784	C9H14N+
138.1278	6	C9H16N+
148.1119	7	C10H14N+
150.1277	77	C10H16N+
152.1067	4	C9H14NO+
152.1432	7	C10H18N+
166.1229	8	C10H16NO+
204.1391	4	C13H18NO+
231.1855	18	C15H23N2+
247.1806	62	C15H23N2O+
249.1961	999	C15H25N2O+
