Mass spectrum: Matrine; LC-ESI-ITFT; MS2; CE: 80%; R=15000; [M+H]+
Name: Matrine
Name: (1R,2R,9S,17S)-7,13-diazatetracyclo[7.7.1.02,7.013,17]heptadecan-6-one
Formula: C15H24N2O
Exact mass: 248.1889
SMILES: C1C[C@@H]2[C@H]3CCCN4[C@H]3[C@@H](CCC4)CN2C(=O)C1
InChI: InChI=1S/C15H24N2O/c18-14-7-1-6-13-12-5-3-9-16-8-2-4-11(15(12)16)10-17(13)14/h11-13,15H,1-10H2/t11-,12+,13+,15-/m0/s1
Instrument: LTQ Orbitrap XL Thermo Scientific
Instrument type: LC-ESI-ITFT
Ms type: MS2
Ion mode: POSITIVE
Ionization: ESI
Fragmentation mode: HCD
Collision energy: 80% (nominal)
Resolution: 15000
Column name: Kinetex Evo C18 2.6 um 50 x 2.1 mm
Retention time: 0.713 min
Base peak: 249.196
Precursor m/z: 249.1961
Precursor type: [M+H]+
m/z	relative intensity	assigned
70.065	9	C4H8N+
81.0698	3	C6H9+
82.0652	3	C5H8N+
84.0808	25	C5H10N+
93.0698	11	C7H9+
95.0856	5	C7H11+
96.0808	40	C6H10N+
98.0601	63	C5H8NO+
98.0965	21	C6H12N+
107.0854	5	C8H11+
109.1013	4	C8H13+
110.0965	69	C7H12N+
112.0758	69	C6H10NO+
120.0809	13	C8H10N+
122.0965	22	C8H12N+
124.1123	8	C8H14N+
133.1015	4	C10H13+
134.0965	21	C9H12N+
136.1123	34	C9H14N+
138.0913	7	C8H12NO+
138.1278	22	C9H16N+
148.1122	267	C10H14N+
150.0913	7	C9H12NO+
150.1278	131	C10H16N+
152.1068	6	C9H14NO+
152.1434	40	C10H18N+
162.0913	7	C10H12NO+
162.1276	10	C11H16N+
164.1071	9	C10H14NO+
166.1228	14	C10H16NO+
176.1071	89	C11H14NO+
176.1434	13	C12H18N+
178.1233	7	C11H16NO+
178.1587	5	C12H20N+
188.1429	4	C13H18N+
190.1228	38	C12H16NO+
190.1593	10	C13H20N+
204.1381	14	C13H18NO+
204.1747	6	C14H22N+
218.1542	22	C14H20NO+
220.1699	16	C14H22NO+
230.154	5	C15H20NO+
231.1858	8	C15H23N2+
232.1697	19	C15H22NO+
247.1806	152	C15H23N2O+
249.1962	999	C15H25N2O+
