Mass spectrum: Lycopsamine N-oxide; LC-ESI-ITFT; MS2; CE: 105%; R=15000; [M+H]+
Name: Lycopsamine N-oxide
Name: [(7R,8R)-7-hydroxy-4-oxido-5,6,7,8-tetrahydro-3H-pyrrolizin-4-ium-1-yl]methyl (2S)-2-hydroxy-2-[(1S)-1-hydroxyethyl]-3-methylbutanoate
Formula: C15H25NO6
Exact mass: 315.1682
SMILES: C[C@@H]([C@@](C(C)C)(C(=O)OCC1=CC[N+]2([C@H]1[C@@H](CC2)O)[O-])O)O
InChI: InChI=1S/C15H25NO6/c1-9(2)15(20,10(3)17)14(19)22-8-11-4-6-16(21)7-5-12(18)13(11)16/h4,9-10,12-13,17-18,20H,5-8H2,1-3H3/t10-,12+,13+,15-,16?/m0/s1
Instrument: LTQ Orbitrap XL Thermo Scientific
Instrument type: LC-ESI-ITFT
Ms type: MS2
Ion mode: POSITIVE
Ionization: ESI
Fragmentation mode: HCD
Collision energy: 105% (nominal)
Resolution: 15000
Column name: Kinetex Evo C18 2.6 um 50 x 2.1 mm
Retention time: 1.285 min
Base peak: 143.0014
Precursor m/z: 316.1755
Precursor type: [M+H]+
m/z	relative intensity	assigned
65.0385	13	C5H5+
66.0463	32	C5H6+
67.0415	51	C4H5N+
67.0542	64	C5H7+
68.0495	85	C4H6N+
78.0337	12	C5H4N+
79.0543	22	C6H7+
80.0495	550	C5H6N+
81.0573	43	C5H7N+
81.0699	13	C6H9+
82.0413	40	C5H6O+
82.0651	98	C5H8N+
83.0492	79	C5H7O+
84.0447	10	C4H6NO+
92.0494	67	C6H6N+
93.0573	503	C6H7N+
94.0651	999	C6H8N+
95.0729	13	C6H9N+
96.0442	36	C5H6NO+
96.081	20	C6H10N+
98.0598	19	C5H8NO+
102.0549	54	C4H8NO2+
106.0651	73	C7H8N+
108.0808	84	C7H10N+
109.0652	11	C7H9O+
110.0601	72	C6H8NO+
111.0678	619	C6H9NO+
112.076	15	C6H10NO+
118.065	13	C8H8N+
124.0757	36	C7H10NO+
128.0705	24	C6H10NO2+
136.0756	114	C8H10NO+
137.0833	37	C8H11NO+
138.0913	124	C8H12NO+
154.0865	22	C8H12NO2+
155.094	27	C8H13NO2+
172.0968	130	C8H14NO3+
