Mass spectrum: Alpinetin; LC-ESI-ITFT; MS2; CE: 25%; R=15000; [M+H]+
Name: Alpinetin
Formula: C16H14O4
Exact mass: 270.0892
SMILES: COC1=C2C(=O)CC(OC2=CC(=C1)O)C3=CC=CC=C3
InChI: InChI=1S/C16H14O4/c1-19-14-7-11(17)8-15-16(14)12(18)9-13(20-15)10-5-3-2-4-6-10/h2-8,13,17H,9H2,1H3
Instrument: LTQ Orbitrap XL Thermo Scientific
Instrument type: LC-ESI-ITFT
Ms type: MS2
Ion mode: POSITIVE
Ionization: ESI
Fragmentation mode: CID
Collision energy: 25 % (nominal)
Resolution: 15000
Column name: Kinetex Evo C18 2.6 um 50 x 2.1 mm
Retention time: 10.246 min
Base peak: 271.0963
Precursor m/z: 271.0965
Precursor type: [M+H]+
m/z	relative intensity	assigned
103.0542	2	C8H7+
105.0337	1	C7H5O+
131.0492	51	C9H7O+
167.0339	998	C8H7O4+
203.107	4	C13H15O2+
229.0861	89	C14H13O3+
253.0862	12	C16H13O3+
271.0966	999	C16H15O4+
