Mass spectrum: Galantamine; LC-ESI-ITFT; MS2; CE: 120%; R=15000; [M+H]+
Name: Galantamine
Formula: C17H21NO3
Exact mass: 287.1521
SMILES: CN1CCC23C=CC(CC2OC4=C(C=CC(=C34)C1)OC)O
InChI: InChI=1S/C17H21NO3/c1-18-8-7-17-6-5-12(19)9-14(17)21-16-13(20-2)4-3-11(10-18)15(16)17/h3-6,12,14,19H,7-10H2,1-2H3
Instrument: LTQ Orbitrap XL Thermo Scientific
Instrument type: LC-ESI-ITFT
Ms type: MS2
Ion mode: POSITIVE
Ionization: ESI
Fragmentation mode: HCD
Collision energy: 120 % (nominal)
Resolution: 15000
Column name: Kinetex Evo C18 2.6 um 50 x 2.1 mm
Retention time: 0.657 min
Base peak: 288.159
Precursor m/z: 288.1594
Precursor type: [M+H]+
m/z	relative intensity	assigned
77.0386	56	C6H5+
79.0542	54	C6H7+
91.0542	171	C7H7+
103.0543	98	C8H7+
104.0621	22	C8H8+
105.0699	103	C8H9+
115.0543	211	C9H7+
116.0622	32	C9H8+
117.0701	65	C9H9+
127.0541	75	C10H7+
128.0621	212	C10H8+
129.0698	64	C10H9+
131.0491	100	C9H7O+
132.0566	25	C9H8O+
135.0805	28	C9H11O+
141.0699	516	C11H9+
142.0779	116	C11H10+
144.0571	53	C10H8O+
145.0648	160	C10H9O+
146.0724	23	C10H10O+
147.0445	28	C9H7O2+
151.0546	23	C12H7+
152.0621	296	C12H8+
153.07	170	C12H9+
155.0492	999	C11H7O+
157.0644	23	C11H9O+
159.0804	30	C11H11O+
165.0699	182	C13H9+
166.0784	25	C13H10+
168.0571	85	C12H8O+
169.0649	562	C12H9O+
170.0728	88	C12H10O+
173.0589	30	C11H9O2+
181.0649	494	C13H9O+
182.0728	84	C13H10O+
183.0441	579	C12H7O2+
197.0598	181	C13H9O2+
198.0674	124	C13H10O2+
