Mass spectrum: Homoharringtonine; LC-ESI-ITFT; MS2; CE: 50%; R=15000; [M+H]+
Name: Homoharringtonine
Name: Omacetaxine mepesuccinate
Name: 1-O-[(2S,3S,6R)-4-methoxy-16,18-dioxa-10-azapentacyclo[11.7.0.02,6.06,10.015,19]icosa-1(20),4,13,15(19)-tetraen-3-yl] 4-O-methyl (2R)-2-hydroxy-2-(4-hydroxy-4-methylpentyl)butanedioate
Formula: C29H39NO9
Exact mass: 545.2625
SMILES: CC(C)(CCC[C@@](CC(=O)OC)(C(=O)O[C@H]1[C@H]2c3cc4c(cc3CCN5[C@@]2(CCC5)C=C1OC)OCO4)O)O
InChI: InChI=1S/C29H39NO9/c1-27(2,33)8-5-10-29(34,16-23(31)36-4)26(32)39-25-22(35-3)15-28-9-6-11-30(28)12-7-18-13-20-21(38-17-37-20)14-19(18)24(25)28/h13-15,24-25,33-34H,5-12,16-17H2,1-4H3/t24-,25-,28+,29-/m1/s1
Instrument: LTQ Orbitrap XL Thermo Scientific
Instrument type: LC-ESI-ITFT
Ms type: MS2
Ion mode: POSITIVE
Ionization: ESI
Fragmentation mode: HCD
Collision energy: 50% (nominal)
Resolution: 15000
Column name: Kinetex Evo C18 2.6 um 50 x 2.1 mm
Retention time: 7.145 min
Base peak: 546.2695
Precursor m/z: 546.2698
Precursor type: [M+H]+
m/z	relative intensity	assigned
55.0177	3	C3H3O+
59.0491	10	C3H7O+
70.0651	13	C4H8N+
75.044	5	C3H7O2+
79.0542	5	C6H7+
85.0648	17	C5H9O+
93.0699	26	C7H9+
94.0652	4	C6H8N+
96.081	7	C6H10N+
97.0285	4	C5H5O2+
100.0757	6	C5H10NO+
107.0855	28	C8H11+
109.0648	52	C7H9O+
111.0801	3	C7H11O+
120.0809	14	C8H10N+
121.0646	10	C8H9O+
123.0805	35	C8H11O+
125.06	4	C7H9O2+
126.0914	47	C7H12NO+
129.0547	15	C6H9O3+
131.0492	12	C9H7O+
135.044	11	C8H7O2+
135.0799	3	C9H11O+
138.0914	4	C8H12NO+
143.0497	4	C10H7O+
149.0597	26	C9H9O2+
150.0914	269	C9H12NO+
153.091	4	C9H13O2+
159.0441	17	C10H7O2+
161.0597	19	C10H9O2+
163.0993	5	C10H13NO+
167.1063	6	C10H15O2+
170.0595	5	C11H8NO+
171.0804	4	C12H11O+
173.0597	30	C11H9O2+
174.0551	14	C10H8NO2+
176.0706	101	C10H10NO2+
179.0858	6	C14H11+
181.0642	5	C13H9O+
181.1018	4	C14H13+
185.0597	13	C12H9O2+
187.0756	7	C12H11O2+
190.0864	5	C11H12NO2+
191.0856	15	C15H11+
193.0644	6	C14H9O+
195.0803	10	C14H11O+
197.0599	6	C13H9O2+
197.0961	14	C14H13O+
199.0751	18	C13H11O2+
200.0706	20	C12H10NO2+
202.0869	6	C12H12NO2+
207.0803	12	C15H11O+
208.0889	4	C15H12O+
208.1121	23	C15H14N+
209.06	4	C14H9O2+
209.0961	8	C15H13O+
210.0681	5	C14H10O2+
210.0917	5	C14H12NO+
211.0755	16	C14H11O2+
211.1124	3	C15H15O+
212.0711	7	C13H10NO2+
213.0912	5	C14H13O2+
214.0865	17	C13H12NO2+
215.0703	54	C13H11O3+
216.1014	9	C13H14NO2+
219.0804	19	C16H11O+
220.0893	3	C16H12O+
223.0754	84	C15H11O2+
223.1117	53	C16H15O+
225.079	3	C14H11NO2+
225.0912	37	C15H13O2+
226.0864	168	C14H12NO2+
227.0943	246	C14H13NO2+
229.0859	40	C14H13O3+
229.1098	94	C14H15NO2+
230.1095	6	C18H14+
236.0833	13	C16H12O2+
236.1069	38	C16H14NO+
237.0912	34	C16H13O2+
238.0866	38	C15H12NO2+
238.1226	8	C16H16NO+
239.0705	11	C15H11O3+
239.1071	14	C16H15O2+
240.0783	44	C15H12O3+
240.1019	222	C15H14NO2+
241.0866	17	C15H13O3+
242.0811	53	C14H12NO3+
242.1184	3	C15H16NO2+
243.1011	9	C15H15O3+
249.0913	26	C17H13O2+
250.0871	5	C16H12NO2+
251.0948	31	C16H13NO2+
251.1067	160	C17H15O2+
252.0786	8	C16H12O3+
253.086	73	C16H13O3+
253.1098	64	C16H15NO2+
254.1183	24	C16H16NO2+
255.1014	46	C16H15O3+
255.1262	12	C16H17NO2+
256.0976	10	C15H14NO3+
256.1339	5	C16H18NO2+
264.1012	8	C17H14NO2+
266.1175	383	C17H16NO2+
267.1261	169	C17H17NO2+
268.0969	49	C16H14NO3+
269.1173	21	C17H17O3+
270.1124	81	C16H16NO3+
281.1173	27	C18H17O3+
282.1121	21	C17H16NO3+
283.1205	74	C17H17NO3+
284.1283	202	C17H18NO3+
296.128	19	C18H18NO3+
298.1438	999	C18H20NO3+
316.1543	70	C18H22NO4+
