Mass spectrum: Galantamine; LC-ESI-ITFT; MS2; CE: 55%; R=15000; [M+H]+
Name: Galantamine
Formula: C17H21NO3
Exact mass: 287.1521
SMILES: CN1CCC23C=CC(CC2OC4=C(C=CC(=C34)C1)OC)O
InChI: InChI=1S/C17H21NO3/c1-18-8-7-17-6-5-12(19)9-14(17)21-16-13(20-2)4-3-11(10-18)15(16)17/h3-6,12,14,19H,7-10H2,1-2H3
Instrument: LTQ Orbitrap XL Thermo Scientific
Instrument type: LC-ESI-ITFT
Ms type: MS2
Ion mode: POSITIVE
Ionization: ESI
Fragmentation mode: CID
Collision energy: 55 % (nominal)
Resolution: 15000
Column name: Kinetex Evo C18 2.6 um 50 x 2.1 mm
Retention time: 0.609 min
Base peak: 249.1957
Precursor m/z: 288.1594
Precursor type: [M+H]+
m/z	relative intensity	assigned
109.0649	2	C7H9O+
132.081	6	C9H10N+
133.0887	6	C9H11N+
134.0965	8	C9H12N+
137.06	3	C8H9O2+
150.0914	6	C9H12NO+
151.0994	36	C9H13NO+
167.0857	1	C13H11+
175.0756	8	C11H11O2+
179.0858	13	C14H11+
181.1015	5	C14H13+
183.081	2	C13H11O+
189.0912	6	C12H13O2+
191.0703	1	C11H11O3+
197.0963	106	C14H13O+
199.0756	60	C13H11O2+
203.1068	13	C13H15O2+
207.0807	20	C15H11O+
209.0963	88	C15H13O+
210.0678	5	C14H10O2+
211.1119	4	C15H15O+
213.0912	362	C14H13O2+
216.1022	4	C13H14NO2+
220.1124	5	C16H14N+
221.0966	6	C16H13O+
223.0986	2	C15H13NO+
224.0822	1	C15H12O2+
225.0912	746	C15H13O2+
227.107	6	C15H15O2+
229.1227	3	C15H17O2+
230.1185	2	C14H16NO2+
231.1017	767	C14H15O3+
238.1227	6	C16H16NO+
239.1068	27	C16H15O2+
241.1224	5	C16H17O2+
242.0938	5	C15H14O3+
245.1175	14	C15H17O3+
253.1224	11	C17H17O2+
255.1257	14	C16H17NO2+
257.1174	50	C16H17O3+
270.149	999	C17H20NO2+
