Mass spectrum: Jacobine N-oxide; LC-ESI-ITFT; MS2; CE: 100%; R=15000; [M+H]+
Name: Jacobine N-oxide
Name: (1R,3`S,4S,6R,7R,17R)-7-hydroxy-3`,6,7-trimethyl-14-oxidospiro[2,9-dioxa-14-azoniatricyclo[9.5.1.014,17]heptadec-11-ene-4,2`-oxirane]-3,8-dione
Formula: C18H25NO7
Exact mass: 367.1631
SMILES: C[C@@H]1C[C@]2([C@@H](O2)C)C(=O)O[C@@H]3CC[N+]4([C@@H]3C(=CC4)COC(=O)[C@]1(C)O)[O-]
InChI: InChI=1S/C18H25NO7/c1-10-8-18(11(2)26-18)16(21)25-13-5-7-19(23)6-4-12(14(13)19)9-24-15(20)17(10,3)22/h4,10-11,13-14,22H,5-9H2,1-3H3/t10-,11+,13-,14-,17-,18+,19?/m1/s1
Instrument: LTQ Orbitrap XL Thermo Scientific
Instrument type: LC-ESI-ITFT
Ms type: MS2
Ion mode: POSITIVE
Ionization: ESI
Fragmentation mode: HCD
Collision energy: 100% (nominal)
Resolution: 15000
Column name: Kinetex Evo C18 2.6 um 50 x 2.1 mm
Retention time: 1.286 min
Base peak: 143.0016
Precursor m/z: 368.1704
Precursor type: [M+H]+
m/z	relative intensity	assigned
65.0384	19	C5H5+
67.0415	21	C4H5N+
67.0542	63	C5H7+
68.0494	24	C4H6N+
77.0386	137	C6H5+
79.0543	111	C6H7+
80.0495	214	C5H6N+
81.0572	23	C5H7N+
82.0653	24	C5H8N+
83.0492	17	C5H7O+
86.06	20	C4H8NO+
91.0543	244	C7H7+
92.0496	79	C6H6N+
93.0574	296	C6H7N+
93.0698	43	C7H9+
94.0652	493	C6H8N+
95.0491	47	C6H7O+
95.0729	38	C6H9N+
96.0445	16	C5H6NO+
96.0812	16	C6H10N+
103.0542	26	C8H7+
106.0652	201	C7H8N+
107.073	26	C7H9N+
108.0809	109	C7H10N+
110.0601	39	C6H8NO+
113.0602	15	C6H9O2+
117.0571	38	C8H7N+
118.0652	332	C8H8N+
119.073	114	C8H9N+
120.0809	999	C8H10N+
122.0966	45	C8H12N+
132.081	16	C9H10N+
134.0596	19	C8H8NO+
134.0961	18	C9H12N+
136.076	37	C8H10NO+
138.0915	20	C8H12NO+
