Mass spectrum: Jervine; LC-ESI-ITFT; MS2; CE: 75%; R=15000; [M+H]+
Name: Jervine
Name: (3S,3`R,3`aS,6`S,6aS,6bS,7`aR,9R,11aS,11bR)-3-hydroxy-3`,6`,10,11b-tetramethylspiro[1,2,3,4,6,6a,6b,7,8,11a-decahydrobenzo[a]fluorene-9,2`-3a,4,5,6,7,7a-hexahydro-3H-furo[3,2-b]pyridine]-11-one
Formula: C27H39NO3
Exact mass: 425.2930
SMILES: C[C@H]1C[C@@H]2[C@H]([C@H]([C@]3(O2)CC[C@H]4[C@@H]5CC=C6C[C@H](CC[C@@]6([C@H]5C(=O)C4=C3C)C)O)C)NC1
InChI: InChI=1S/C27H39NO3/c1-14-11-21-24(28-13-14)16(3)27(31-21)10-8-19-20-6-5-17-12-18(29)7-9-26(17,4)23(20)25(30)22(19)15(27)2/h5,14,16,18-21,23-24,28-29H,6-13H2,1-4H3/t14-,16+,18-,19-,20-,21+,23+,24-,26-,27-/m0/s1
Instrument: LTQ Orbitrap XL Thermo Scientific
Instrument type: LC-ESI-ITFT
Ms type: MS2
Ion mode: POSITIVE
Ionization: ESI
Fragmentation mode: HCD
Collision energy: 75% (nominal)
Resolution: 15000
Column name: Kinetex Evo C18 2.6 um 50 x 2.1 mm
Retention time: 8.952 min
Base peak: 426.3
Precursor m/z: 426.3003
Precursor type: [M+H]+
m/z	relative intensity	assigned
67.0542	732	C5H7+
69.0698	68	C5H9+
70.0651	109	C4H8N+
72.0443	22	C3H6NO+
79.0542	171	C6H7+
81.0572	29	C5H7N+
81.0699	535	C6H9+
82.0649	26	C5H8N+
83.0492	142	C5H7O+
84.0808	636	C5H10N+
85.0648	287	C5H9O+
91.0542	161	C7H7+
93.0699	270	C7H9+
95.0855	142	C7H11+
96.0808	239	C6H10N+
98.0964	52	C6H12N+
102.0913	34	C5H12NO+
105.0699	472	C8H9+
107.0856	323	C8H11+
109.1012	661	C8H13+
110.096	25	C7H12N+
112.0757	135	C6H10NO+
114.0914	999	C6H12NO+
117.07	111	C9H9+
119.0855	264	C9H11+
121.1012	367	C9H13+
123.0803	38	C8H11O+
123.1162	19	C9H15+
124.112	26	C8H14N+
129.0698	64	C10H9+
130.0775	36	C10H10+
131.0856	187	C10H11+
133.1012	197	C10H13+
135.0802	42	C9H11O+
140.1073	27	C8H14NO+
141.0701	40	C11H9+
142.078	72	C11H10+
143.0856	158	C11H11+
144.0932	21	C11H12+
145.1013	370	C11H13+
147.0805	41	C10H11O+
147.1169	62	C11H15+
149.0962	160	C10H13O+
155.0853	66	C12H11+
156.0933	44	C12H12+
157.1013	225	C12H13+
159.081	25	C11H11O+
159.1167	96	C12H15+
161.0968	28	C11H13O+
169.1011	87	C13H13+
170.1097	24	C13H14+
171.1167	98	C13H15+
173.0964	72	C12H13O+
173.1322	39	C13H17+
175.1118	150	C12H15O+
179.0853	32	C14H11+
181.1014	51	C14H13+
183.1168	60	C14H15+
185.1323	23	C14H17+
187.1116	35	C13H15O+
189.1264	37	C13H17O+
193.1012	39	C15H13+
195.1164	39	C15H15+
196.1256	25	C15H16+
197.1331	31	C15H17+
205.1014	22	C16H13+
207.1168	42	C16H15+
209.1323	34	C16H17+
211.112	20	C15H15O+
213.1634	22	C16H21+
221.1327	24	C17H17+
233.1322	31	C18H17+
245.1329	26	C19H17+
246.1401	17	C19H18+
