Mass spectrum: Lycopsamine N-oxide; LC-ESI-ITFT; MS2; CE: 100%; R=15000; [M+H]+
Name: Lycopsamine N-oxide
Name: [(7R,8R)-7-hydroxy-4-oxido-5,6,7,8-tetrahydro-3H-pyrrolizin-4-ium-1-yl]methyl (2S)-2-hydroxy-2-[(1S)-1-hydroxyethyl]-3-methylbutanoate
Formula: C15H25NO6
Exact mass: 315.1682
SMILES: C[C@@H]([C@@](C(C)C)(C(=O)OCC1=CC[N+]2([C@H]1[C@@H](CC2)O)[O-])O)O
InChI: InChI=1S/C15H25NO6/c1-9(2)15(20,10(3)17)14(19)22-8-11-4-6-16(21)7-5-12(18)13(11)16/h4,9-10,12-13,17-18,20H,5-8H2,1-3H3/t10-,12+,13+,15-,16?/m0/s1
Instrument: LTQ Orbitrap XL Thermo Scientific
Instrument type: LC-ESI-ITFT
Ms type: MS2
Ion mode: POSITIVE
Ionization: ESI
Fragmentation mode: HCD
Collision energy: 100% (nominal)
Resolution: 15000
Column name: Kinetex Evo C18 2.6 um 50 x 2.1 mm
Retention time: 1.285 min
Base peak: 143.0014
Precursor m/z: 316.1755
Precursor type: [M+H]+
m/z	relative intensity	assigned
65.0385	10	C5H5+
66.0464	12	C5H6+
67.0416	33	C4H5N+
67.0542	60	C5H7+
68.0494	64	C4H6N+
73.0648	16	C4H9O+
78.0339	9	C5H4N+
79.0543	17	C6H7+
80.0495	444	C5H6N+
81.0573	37	C5H7N+
81.0699	23	C6H9+
82.0414	45	C5H6O+
82.0652	79	C5H8N+
83.0492	93	C5H7O+
92.0494	45	C6H6N+
93.0573	495	C6H7N+
94.0651	999	C6H8N+
95.073	14	C6H9N+
96.0444	39	C5H6NO+
96.0808	21	C6H10N+
98.0602	29	C5H8NO+
102.0551	47	C4H8NO2+
106.0651	84	C7H8N+
108.0808	80	C7H10N+
110.0601	77	C6H8NO+
111.0679	693	C6H9NO+
112.0759	33	C6H10NO+
118.0648	13	C8H8N+
120.0808	11	C8H10N+
124.0759	26	C7H10NO+
128.0706	32	C6H10NO2+
136.0757	132	C8H10NO+
137.0838	31	C8H11NO+
138.0913	153	C8H12NO+
140.0707	9	C7H10NO2+
154.0864	23	C8H12NO2+
155.0941	38	C8H13NO2+
172.0969	184	C8H14NO3+
