Mass spectrum: Galantamine; LC-ESI-ITFT; MS2; CE: 40%; R=15000; [M+H]+
Name: Galantamine
Formula: C17H21NO3
Exact mass: 287.1521
SMILES: CN1CCC23C=CC(CC2OC4=C(C=CC(=C34)C1)OC)O
InChI: InChI=1S/C17H21NO3/c1-18-8-7-17-6-5-12(19)9-14(17)21-16-13(20-2)4-3-11(10-18)15(16)17/h3-6,12,14,19H,7-10H2,1-2H3
Instrument: LTQ Orbitrap XL Thermo Scientific
Instrument type: LC-ESI-ITFT
Ms type: MS2
Ion mode: POSITIVE
Ionization: ESI
Fragmentation mode: CID
Collision energy: 40 % (nominal)
Resolution: 15000
Column name: Kinetex Evo C18 2.6 um 50 x 2.1 mm
Retention time: 0.589 min
Base peak: 235.2166
Precursor m/z: 288.1594
Precursor type: [M+H]+
m/z	relative intensity	assigned
94.0652	1	C6H8N+
109.0652	1	C7H9O+
132.0809	4	C9H10N+
133.0887	5	C9H11N+
134.0966	9	C9H12N+
137.06	3	C8H9O2+
150.0917	5	C9H12NO+
151.0994	34	C9H13NO+
175.0757	5	C11H11O2+
179.0859	8	C14H11+
181.1011	1	C14H13+
183.081	1	C13H11O+
189.0908	3	C12H13O2+
197.0965	93	C14H13O+
199.0757	52	C13H11O2+
203.1068	10	C13H15O2+
207.0807	14	C15H11O+
209.0964	74	C15H13O+
210.0677	5	C14H10O2+
211.1126	1	C15H15O+
213.0914	288	C14H13O2+
216.1023	5	C13H14NO2+
220.1123	4	C16H14N+
221.0966	5	C16H13O+
225.0914	759	C15H13O2+
227.107	4	C15H15O2+
229.1217	1	C15H17O2+
230.1176	1	C14H16NO2+
231.1019	760	C14H15O3+
238.1231	5	C16H16NO+
239.1069	23	C16H15O2+
241.1227	4	C16H17O2+
242.0936	3	C15H14O3+
245.1177	13	C15H17O3+
253.1227	9	C17H17O2+
255.1256	8	C16H17NO2+
257.1176	62	C16H17O3+
270.1492	999	C17H20NO2+
