Mass spectrum: Retrorsine; LC-ESI-ITFT; MS2; CE: 55%; R=15000; [M+H]+
Name: Retrorsine
Name: (1R,4Z,6R,7S,17R)-4-ethylidene-7-hydroxy-7-(hydroxymethyl)-6-methyl-2,9-dioxa-14-azatricyclo[9.5.1.014,17]heptadec-11-ene-3,8-dione
Formula: C18H25NO6
Exact mass: 351.1682
SMILES: C/C=C\1/C[C@H]([C@@](C(=O)OCC2=CCN3[C@H]2[C@@H](CC3)OC1=O)(CO)O)C
InChI: InChI=1S/C18H25NO6/c1-3-12-8-11(2)18(23,10-20)17(22)24-9-13-4-6-19-7-5-14(15(13)19)25-16(12)21/h3-4,11,14-15,20,23H,5-10H2,1-2H3/b12-3-/t11-,14-,15-,18-/m1/s1
Instrument: LTQ Orbitrap XL Thermo Scientific
Instrument type: LC-ESI-ITFT
Ms type: MS2
Ion mode: POSITIVE
Ionization: ESI
Fragmentation mode: HCD
Collision energy: 55% (nominal)
Resolution: 15000
Column name: Kinetex Evo C18 2.6 um 50 x 2.1 mm
Retention time: 1.617 min
Base peak: 143.0014
Precursor m/z: 352.1755
Precursor type: [M+H]+
m/z	relative intensity	assigned
67.0542	44	C5H7+
68.0494	27	C4H6N+
79.0542	29	C6H7+
80.0495	51	C5H6N+
81.0698	53	C6H9+
82.0651	60	C5H8N+
91.0542	69	C7H7+
93.0699	154	C7H9+
94.0651	381	C6H8N+
95.0855	110	C7H11+
96.0808	146	C6H10N+
103.0543	53	C8H7+
105.07	27	C8H9+
107.0856	26	C8H11+
108.0807	84	C7H10N+
109.0646	22	C7H9O+
110.0601	24	C6H8NO+
110.0964	72	C7H12N+
118.0651	43	C8H8N+
120.0808	999	C8H10N+
121.0645	23	C8H9O+
121.0885	53	C8H11N+
122.0964	173	C8H12N+
123.0804	157	C8H11O+
125.0961	15	C8H13O+
138.0913	977	C8H12NO+
139.0753	12	C8H11O2+
140.1069	40	C8H14NO+
151.0753	109	C9H11O2+
156.1019	22	C8H14NO2+
169.086	65	C9H13O3+
220.1332	96	C13H18NO2+
276.1593	76	C16H22NO3+
306.1706	13	C17H24NO4+
308.1856	14	C17H26NO4+
322.1646	37	C17H24NO5+
324.1806	364	C17H26NO5+
352.1754	973	C18H26NO6+
