Mass spectrum: 4-Hydroxycoumarin; LC-ESI-ITFT; MS2; CE: 105%; R=15000; [M+H]+
Name: 4-Hydroxycoumarin
Name: CID 14101
Name: 2-hydroxychromen-4-one
Formula: C9H6O3
Exact mass: 162.0317
SMILES: OC1=CC(=O)C2=CC=CC=C2O1
InChI: InChI=1S/C9H6O3/c10-7-5-9(11)12-8-4-2-1-3-6(7)8/h1-5,11H
Instrument: LTQ Orbitrap XL Thermo Scientific
Instrument type: LC-ESI-ITFT
Ms type: MS2
Ion mode: POSITIVE
Ionization: ESI
Fragmentation mode: HCD
Collision energy: 105% (nominal)
Resolution: 15000
Column name: Kinetex Evo C18 2.6 um 50 x 2.1 mm
Retention time: 8.040 min
Base peak: 116.9858
Precursor m/z: 163.039
Precursor type: [M+H]+
m/z	relative intensity	assigned
65.0385	346	C5H5+
68.997	186	C3HO2+
77.0386	123	C6H5+
79.0542	72	C6H7+
89.0386	35	C7H5+
91.0542	348	C7H7+
92.0258	19	C6H4O+
93.0334	143	C6H5O+
95.0491	130	C6H7O+
107.0491	23	C7H7O+
111.0439	17	C6H7O2+
121.0284	999	C7H5O2+
163.039	48	C9H7O3+
