Mass spectrum: 5,7-Dihydroxy-4-phenylcoumarin; LC-ESI-ITFT; MS2; CE: 65%; R=15000; [M+H]+
Name: 5,7-Dihydroxy-4-phenylcoumarin
Name: 5,7-dihydroxy-4-phenylchromen-2-one
Formula: C15H10O4
Exact mass: 254.0579
SMILES: OC1=CC(O)=C2C(OC(=O)C=C2C2=CC=CC=C2)=C1
InChI: InChI=1S/C15H10O4/c16-10-6-12(17)15-11(9-4-2-1-3-5-9)8-14(18)19-13(15)7-10/h1-8,16-17H
Instrument: LTQ Orbitrap XL Thermo Scientific
Instrument type: LC-ESI-ITFT
Ms type: MS2
Ion mode: POSITIVE
Ionization: ESI
Fragmentation mode: HCD
Collision energy: 65% (nominal)
Resolution: 15000
Column name: Kinetex Evo C18 2.6 um 50 x 2.1 mm
Retention time: 9.813 min
Base peak: 116.9857
Precursor m/z: 255.0652
Precursor type: [M+H]+
m/z	relative intensity	assigned
68.9971	177	C3HO2+
77.0386	18	C6H5+
91.0543	63	C7H7+
103.0543	23	C8H7+
105.0335	347	C7H5O+
111.0077	99	C5H3O3+
115.0543	128	C9H7+
121.0284	66	C7H5O2+
128.0622	86	C10H8+
129.0699	122	C10H9+
131.049	27	C9H7O+
131.0856	102	C10H11+
141.0699	225	C11H9+
143.0485	13	C10H7O+
143.0857	62	C11H11+
145.0648	57	C10H9O+
149.0234	234	C8H5O3+
152.0622	74	C12H8+
153.0183	502	C7H5O4+
153.0699	451	C12H9+
154.0777	50	C12H10+
155.0856	148	C12H11+
157.0651	56	C11H9O+
164.0621	12	C13H8+
165.0699	999	C13H9+
166.0776	12	C13H10+
168.0574	41	C12H8O+
169.0648	106	C12H9O+
171.0441	706	C11H7O2+
171.0803	56	C12H11O+
181.0649	318	C13H9O+
182.0727	35	C13H10O+
183.0801	33	C13H11O+
184.0516	34	C12H8O2+
193.0648	125	C14H9O+
194.0734	18	C14H10O+
197.0595	43	C13H9O2+
199.0754	654	C13H11O2+
210.0673	45	C14H10O2+
211.0753	185	C14H11O2+
227.0707	20	C14H11O3+
255.0652	964	C15H11O4+
