Mass spectrum: Vincamin; LC-ESI-ITFT; MS2; CE: 30%; R=15000; [M+H]+
Name: Vincamin
Name: Vincamine
Name: methyl (15S,17S,19S)-15-ethyl-17-hydroxy-1,11-diazapentacyclo[9.6.2.02,7.08,18.015,19]nonadeca-2,4,6,8(18)-tetraene-17-carboxylate
Formula: C21H26N2O3
Exact mass: 354.1943
SMILES: CC[C@@]12CCCN3[C@@H]1C4=C(CC3)C5=CC=CC=C5N4[C@](C2)(C(=O)OC)O
InChI: InChI=1S/C21H26N2O3/c1-3-20-10-6-11-22-12-9-15-14-7-4-5-8-16(14)23(17(15)18(20)22)21(25,13-20)19(24)26-2/h4-5,7-8,18,25H,3,6,9-13H2,1-2H3/t18-,20+,21+/m1/s1
Instrument: LTQ Orbitrap XL Thermo Scientific
Instrument type: LC-ESI-ITFT
Ms type: MS2
Ion mode: POSITIVE
Ionization: ESI
Fragmentation mode: HCD
Collision energy: 30% (nominal)
Resolution: 15000
Column name: Kinetex Evo C18 2.6 um 50 x 2.1 mm
Retention time: 6.604 min
Base peak: 355.2015
Precursor m/z: 355.2016
Precursor type: [M+H]+
m/z	relative intensity	assigned
212.128	16	C11H18NO3+
280.133	7	C18H18NO2+
294.1484	10	C19H20NO2+
295.1804	11	C19H23N2O+
308.1638	20	C20H22NO2+
310.1802	6	C20H24NO2+
337.1908	516	C21H25N2O2+
355.2013	999	C21H27N2O3+
