Mass spectrum: (+)-Costunolide; LC-ESI-ITFT; MS2; CE: 75%; R=15000; [M+H]+
Name: (+)-Costunolide
Name: Costunolide
Name: (3aS,6E,10E,11aR)-6,10-dimethyl-3-methylidene-3a,4,5,8,9,11a-hexahydrocyclodeca[b]furan-2-one
Formula: C15H20O2
Exact mass: 232.1463
SMILES: C/C/1=C\CC/C(=C/[C@@H]2[C@@H](CC1)C(=C)C(=O)O2)/C
InChI: InChI=1S/C15H20O2/c1-10-5-4-6-11(2)9-14-13(8-7-10)12(3)15(16)17-14/h5,9,13-14H,3-4,6-8H2,1-2H3/b10-5+,11-9+/t13-,14+/m0/s1
Instrument: LTQ Orbitrap XL Thermo Scientific
Instrument type: LC-ESI-ITFT
Ms type: MS2
Ion mode: POSITIVE
Ionization: ESI
Fragmentation mode: HCD
Collision energy: 75% (nominal)
Resolution: 15000
Column name: Kinetex Evo C18 2.6 um 50 x 2.1 mm
Retention time: 11.767 min
Base peak: 116.9858
Precursor m/z: 233.1536
Precursor type: [M+H]+
m/z	relative intensity	assigned
67.0542	146	C5H7+
69.07	56	C5H9+
77.0386	48	C6H5+
79.0542	294	C6H7+
81.0699	525	C6H9+
91.0542	499	C7H7+
93.0698	498	C7H9+
95.0855	404	C7H11+
97.0645	54	C6H9O+
103.0543	38	C8H7+
105.0698	994	C8H9+
107.0855	364	C8H11+
109.101	98	C8H13+
116.0617	34	C9H8+
117.0698	316	C9H9+
119.0855	463	C9H11+
121.0648	46	C8H9O+
121.1011	93	C9H13+
129.07	63	C10H9+
130.0774	81	C10H10+
131.0855	999	C10H11+
133.0646	37	C9H9O+
133.101	239	C10H13+
135.0443	35	C8H7O2+
135.0804	32	C9H11O+
143.0855	100	C11H11+
144.0934	45	C11H12+
145.1011	910	C11H13+
147.1171	103	C11H15+
149.0958	33	C10H13O+
155.0855	60	C12H11+
157.1014	99	C12H13+
158.1083	27	C12H14+
159.08	65	C11H11O+
159.1169	358	C12H15+
161.1327	126	C12H17+
169.1014	42	C13H13+
172.1241	48	C13H16+
173.0961	53	C12H13O+
177.0918	37	C11H13O2+
187.1481	459	C14H19+
215.1433	38	C15H19O+
