Mass spectrum: Tomatidine; LC-ESI-ITFT; MS2; CE: 85%; R=15000; [M+H]+
Name: Tomatidine
Formula: C27H45NO2
Exact mass: 415.3450
SMILES: C[C@H]1[C@H]2[C@H](C[C@H]3[C@@H]4CC[C@H]5C[C@@H](O)CC[C@]5(C)[C@H]4CC[C@]23C)O[C@@]11CC[C@H](C)CN1
InChI: InChI=1S/C27H45NO2/c1-16-7-12-27(28-15-16)17(2)24-23(30-27)14-22-20-6-5-18-13-19(29)8-10-25(18,3)21(20)9-11-26(22,24)4/h16-24,28-29H,5-15H2,1-4H3/t16-,17-,18-,19-,20+,21-,22-,23-,24-,25-,26-,27-/m0/s1
Instrument: LTQ Orbitrap XL Thermo Scientific
Instrument type: LC-ESI-ITFT
Ms type: MS2
Ion mode: POSITIVE
Ionization: ESI
Fragmentation mode: HCD
Collision energy: 85 % (nominal)
Resolution: 15000
Column name: Kinetex Evo C18 2.6 um 50 x 2.1 mm
Retention time: 10.008 min
Base peak: 217.0493
Precursor m/z: 416.3523
Precursor type: [M+H]+
m/z	relative intensity	assigned
55.0541	8	C4H7+
67.0542	141	C5H7+
69.0699	38	C5H9+
70.0651	72	C4H8N+
77.0385	37	C6H5+
79.0542	336	C6H7+
80.0494	10	C5H6N+
81.0699	282	C6H9+
82.0651	20	C5H8N+
83.0857	10	C6H11+
84.0808	19	C5H10N+
91.0542	357	C7H7+
93.0699	423	C7H9+
94.0652	20	C6H8N+
95.0729	16	C6H9N+
95.0855	320	C7H11+
96.0808	42	C6H10N+
98.0965	27	C6H12N+
105.0698	872	C8H9+
107.0855	334	C8H11+
108.0807	29	C7H10N+
109.0884	18	C7H11N+
109.1011	98	C8H13+
110.0963	21	C7H12N+
117.0698	83	C9H9+
119.0855	486	C9H11+
121.1012	78	C9H13+
122.0963	35	C8H12N+
123.1167	10	C9H15+
124.112	155	C8H14N+
125.12	21	C8H15N+
126.1277	144	C8H16N+
129.0698	16	C10H9+
131.0855	141	C10H11+
133.1011	208	C10H13+
135.1167	49	C10H15+
136.112	15	C9H14N+
138.1277	17	C9H16N+
143.0856	35	C11H11+
144.0932	23	C11H12+
145.1011	158	C11H13+
147.1168	307	C11H15+
148.1118	26	C10H14N+
149.1325	44	C11H17+
150.1278	82	C10H16N+
157.1012	33	C12H13+
159.1168	167	C12H15+
161.1325	999	C12H17+
162.1277	21	C11H16N+
164.1433	67	C11H18N+
171.117	29	C13H15+
173.1326	48	C13H17+
175.1485	6	C13H19+
176.1432	7	C12H18N+
185.1324	24	C14H17+
187.148	12	C14H19+
199.1479	31	C15H19+
213.164	8	C16H21+
