Mass spectrum: Daidzein; LC-ESI-ITFT; MS2; CE: 115%; R=15000; [M+H]+
Name: Daidzein
Name: 7-hydroxy-3-(4-hydroxyphenyl)chromen-4-one
Formula: C15H10O4
Exact mass: 254.0579
SMILES: OC1=CC=C(C=C1)C1=COC2=C(C=CC(O)=C2)C1=O
InChI: InChI=1S/C15H10O4/c16-10-3-1-9(2-4-10)13-8-19-14-7-11(17)5-6-12(14)15(13)18/h1-8,16-17H
Instrument: LTQ Orbitrap XL Thermo Scientific
Instrument type: LC-ESI-ITFT
Ms type: MS2
Ion mode: POSITIVE
Ionization: ESI
Fragmentation mode: CID
Collision energy: 115 % (nominal)
Resolution: 15000
Column name: Kinetex Evo C18 2.6 um 50 x 2.1 mm
Retention time: 9.260 min
Base peak: 221.0748
Precursor m/z: 255.0652
Precursor type: [M+H]+
m/z	relative intensity	assigned
137.0236	690	C7H5O3+
141.0705	7	C11H9+
145.0287	126	C9H5O2+
153.07	23	C12H9+
171.0803	23	C12H11O+
181.0651	62	C13H9O+
185.06	45	C12H9O2+
199.0757	999	C13H11O2+
211.0758	47	C14H11O2+
227.0707	492	C14H11O3+
237.055	215	C15H9O3+
