Mass spectrum: alpha-Cyperone; LC-ESI-ITFT; MS2; CE: 40%; R=15000; [M+H]+
Name: alpha-Cyperone
Formula: C15H22O
Exact mass: 218.1671
SMILES: CC1=C2CC(CCC2(CCC1=O)C)C(=C)C
InChI: InChI=1S/C15H22O/c1-10(2)12-5-7-15(4)8-6-14(16)11(3)13(15)9-12/h12H,1,5-9H2,2-4H3
Instrument: LTQ Orbitrap XL Thermo Scientific
Instrument type: LC-ESI-ITFT
Ms type: MS2
Ion mode: POSITIVE
Ionization: ESI
Fragmentation mode: HCD
Collision energy: 40 % (nominal)
Resolution: 15000
Column name: Kinetex Evo C18 2.6 um 50x2.1 mm, Phenomenex
Retention time: 13.141 min
Base peak: 219.1741
Precursor m/z: 219.1743
Precursor type: [M+H]+
m/z	relative intensity	assigned
55.0541	40	C4H7+
67.0542	88	C5H7+
69.0699	27	C5H9+
77.0386	6	C6H5+
79.0542	49	C6H7+
81.0699	225	C6H9+
83.0493	7	C5H7O+
83.0855	21	C6H11+
91.0543	30	C7H7+
93.0699	116	C7H9+
95.0855	261	C7H11+
97.0648	428	C6H9O+
105.0699	97	C8H9+
107.0855	159	C8H11+
109.0648	29	C7H9O+
109.1012	493	C8H13+
111.0804	781	C7H11O+
117.07	16	C9H9+
119.0855	186	C9H11+
121.0648	21	C8H9O+
121.1011	169	C9H13+
123.0804	334	C8H11O+
123.1168	121	C9H15+
125.0961	38	C8H13O+
131.0855	42	C10H11+
133.1012	50	C10H13+
135.0804	142	C9H11O+
135.1168	135	C10H15+
137.0961	225	C9H13O+
138.104	32	C9H14O+
145.1012	156	C11H13+
147.1168	154	C11H15+
149.0961	75	C10H13O+
149.1327	22	C11H17+
150.1041	12	C10H14O+
151.1122	17	C10H15O+
159.1169	129	C12H15+
161.0966	9	C11H13O+
161.1325	96	C12H17+
162.1039	11	C11H14O+
163.1118	448	C11H15O+
173.1325	69	C13H17+
175.1482	30	C13H19+
176.1195	33	C12H16O+
177.1276	55	C12H17O+
177.1638	20	C13H21+
191.1429	10	C13H19O+
191.1794	11	C14H23+
201.1638	162	C15H21+
204.151	21	C14H20O+
219.1743	999	C15H23O+
