Mass spectrum: Isophorone; LC-ESI-ITFT; MS2; CE: 80%; R=15000; [M+H]+
Name: Isophorone
Name: 3,5,5-trimethylcyclohex-2-en-1-one
Formula: C9H14O
Exact mass: 138.1045
SMILES: CC1=CC(=O)CC(C)(C)C1
InChI: InChI=1S/C9H14O/c1-7-4-8(10)6-9(2,3)5-7/h4H,5-6H2,1-3H3
Instrument: LTQ Orbitrap XL Thermo Scientific
Instrument type: LC-ESI-ITFT
Ms type: MS2
Ion mode: POSITIVE
Ionization: ESI
Fragmentation mode: HCD
Collision energy: 80 % (nominal)
Resolution: 15000
Column name: Kinetex Evo C18 2.6 um 50 x 2.1 mm
Retention time: 8.537 min
Base peak: 139.1118
Precursor m/z: 139.1117
Precursor type: [M+H]+
m/z	relative intensity	assigned
67.0539	17	C5H7+
69.0332	999	C4H5O+
77.0383	21	C6H5+
79.054	66	C6H7+
81.0697	22	C6H9+
83.049	111	C5H7O+
91.0541	33	C7H7+
93.0697	127	C7H9+
95.049	13	C6H7O+
95.0854	49	C7H11+
96.0568	11	C6H8O+
97.0647	224	C6H9O+
103.0538	5	C8H7+
105.0446	7	C6H5N2+
105.0697	82	C8H9+
106.0775	11	C8H10+
109.0648	3	C7H9O+
109.101	6	C8H13+
110.0725	8	C7H10O+
111.0803	10	C7H11O+
119.0854	11	C9H11+
121.101	105	C9H13+
123.0801	2	C8H11O+
124.0883	2	C8H12O+
133.0758	5	C8H9N2+
139.1115	251	C9H15O+
