Mass spectrum: Galantamine; LC-ESI-ITFT; MS2; CE: 80%; R=15000; [M+H]+
Name: Galantamine
Formula: C17H21NO3
Exact mass: 287.1521
SMILES: CN1CCC23C=CC(CC2OC4=C(C=CC(=C34)C1)OC)O
InChI: InChI=1S/C17H21NO3/c1-18-8-7-17-6-5-12(19)9-14(17)21-16-13(20-2)4-3-11(10-18)15(16)17/h3-6,12,14,19H,7-10H2,1-2H3
Instrument: LTQ Orbitrap XL Thermo Scientific
Instrument type: LC-ESI-ITFT
Ms type: MS2
Ion mode: POSITIVE
Ionization: ESI
Fragmentation mode: HCD
Collision energy: 80 % (nominal)
Resolution: 15000
Column name: Kinetex Evo C18 2.6 um 50 x 2.1 mm
Retention time: 0.609 min
Base peak: 249.1957
Precursor m/z: 288.1594
Precursor type: [M+H]+
m/z	relative intensity	assigned
58.0649	4	C3H8N+
77.0386	12	C6H5+
79.0542	11	C6H7+
81.0336	13	C5H5O+
81.07	10	C6H9+
91.0543	38	C7H7+
93.07	15	C7H9+
94.0415	5	C6H6O+
94.0651	8	C6H8N+
103.0542	8	C8H7+
105.0699	65	C8H9+
107.0492	8	C7H7O+
108.0574	3	C7H8O+
109.0647	18	C7H9O+
115.0542	12	C9H7+
117.07	5	C9H9+
119.0859	3	C9H11+
121.0648	13	C8H9O+
122.0724	5	C8H10O+
123.0805	8	C8H11O+
128.062	39	C10H8+
129.0699	32	C10H9+
131.0492	8	C9H7O+
131.0853	6	C10H11+
132.0809	12	C9H10N+
133.0649	11	C9H9O+
133.0887	3	C9H11N+
134.0963	9	C9H12N+
135.0805	65	C9H11O+
136.0521	4	C8H8O2+
137.06	4	C8H9O2+
141.0699	26	C11H9+
142.0777	44	C11H10+
143.0854	26	C11H11+
144.057	13	C10H8O+
145.0647	27	C10H9O+
146.0726	27	C10H10O+
147.0799	6	C10H11O+
148.0517	5	C9H8O2+
151.0754	10	C9H11O2+
151.099	3	C9H13NO+
152.0622	26	C12H8+
153.0699	60	C12H9+
154.0775	22	C12H10+
155.0491	22	C11H7O+
155.0857	24	C12H11+
157.0649	13	C11H9O+
158.0725	15	C11H10O+
159.0805	25	C11H11O+
160.0518	10	C10H8O2+
160.0884	31	C11H12O+
161.0596	8	C10H9O2+
161.0962	38	C11H13O+
162.0676	19	C10H10O2+
165.07	41	C13H9+
166.0778	60	C13H10+
167.0854	20	C13H11+
168.0569	16	C12H8O+
169.0649	89	C12H9O+
169.101	6	C13H13+
170.0727	136	C12H10O+
171.08	18	C12H11O+
172.0881	5	C12H12O+
173.0597	8	C11H9O2+
174.0678	9	C11H10O2+
175.0755	50	C11H11O2+
175.1119	19	C12H15O+
178.0777	21	C14H10+
179.0857	47	C14H11+
180.0574	7	C13H8O+
181.0649	135	C13H9O+
181.1012	20	C14H13+
182.0727	260	C13H10O+
183.0441	220	C12H7O2+
185.0961	113	C13H13O+
187.0759	6	C12H11O2+
188.0835	15	C12H12O2+
189.0696	8	C15H9+
189.091	15	C12H13O2+
190.0775	7	C15H10+
191.0858	12	C15H11+
194.0726	18	C14H10O+
195.0808	19	C14H11O+
197.0598	58	C13H9O2+
197.0962	21	C14H13O+
198.0675	999	C13H10O2+
203.1068	15	C13H15O2+
207.0803	9	C15H11O+
209.096	6	C15H13O+
210.0676	27	C14H10O2+
211.0753	8	C14H11O2+
212.0834	9	C14H12O2+
213.091	302	C14H13O2+
214.0625	14	C13H10O3+
216.0784	5	C13H12O3+
224.0838	4	C15H12O2+
225.0917	7	C15H13O2+
227.0704	5	C14H11O3+
254.1176	8	C16H16NO2+
