Mass spectrum: trans-Zeatin; LC-ESI-ITFT; MS2; CE: 40%; R=15000; [M+H]+
Name: trans-Zeatin
Formula: C10H13N5O
Exact mass: 219.1120
SMILES: C\C(CO)=C/CNC1=C2N=CNC2=NC=N1
InChI: InChI=1S/C10H13N5O/c1-7(4-16)2-3-11-9-8-10(13-5-12-8)15-6-14-9/h2,5-6,16H,3-4H2,1H3,(H2,11,12,13,14,15)/b7-2+
Instrument: LTQ Orbitrap XL Thermo Scientific
Instrument type: LC-ESI-ITFT
Ms type: MS2
Ion mode: POSITIVE
Ionization: ESI
Fragmentation mode: HCD
Collision energy: 40 % (nominal)
Resolution: 15000
Column name: Kinetex Evo C18 2.6 um 50 x 2.1 mm
Retention time: 0.960 min
Base peak: 220.1188
Precursor m/z: 220.1193
Precursor type: [M+H]+
m/z	relative intensity	assigned
67.0541	5	C5H7+
85.0648	2	C5H9O+
94.0653	1	C6H8N+
119.0351	3	C5H3N4+
135.0663	2	C6H7N4+
136.0617	999	C5H6N5+
148.0617	91	C6H6N5+
159.0665	9	C8H7N4+
173.0822	2	C9H9N4+
175.0976	4	C9H11N4+
185.0822	36	C10H9N4+
202.1088	90	C10H12N5+
220.1192	113	C10H14N5O+
