Mass spectrum: 6-beta-Hydroxycortisol; LC-ESI-ITFT; MS2; CE: 70%; R=15000; [M+H]+
Name: 6-beta-Hydroxycortisol
Name: 6beta-Hydroxycortisol
Name: (6R,8S,9S,10R,11S,13S,14S,17R)-6,11,17-trihydroxy-17-(2-hydroxyacetyl)-10,13-dimethyl-2,6,7,8,9,11,12,14,15,16-decahydro-1H-cyclopenta[a]phenanthren-3-one
Formula: C21H30O6
Exact mass: 378.2042
SMILES: C[C@]12C[C@H](O)[C@H]3[C@@H](C[C@@H](O)C4=CC(=O)CC[C@]34C)[C@@H]1CC[C@]2(O)C(=O)CO
InChI: InChI=1S/C21H30O6/c1-19-5-3-11(23)7-14(19)15(24)8-12-13-4-6-21(27,17(26)10-22)20(13,2)9-16(25)18(12)19/h7,12-13,15-16,18,22,24-25,27H,3-6,8-10H2,1-2H3/t12-,13-,15+,16-,18+,19-,20-,21-/m0/s1
Instrument: LTQ Orbitrap XL Thermo Scientific
Instrument type: LC-ESI-ITFT
Ms type: MS2
Ion mode: POSITIVE
Ionization: ESI
Fragmentation mode: HCD
Collision energy: 70 % (nominal)
Resolution: 15000
Column name: Kinetex Evo C18 2.6 um 50 x 2.1 mm
Retention time: 6.513 min
Base peak: 379.2118
Precursor m/z: 379.2115
Precursor type: [M+H]+
m/z	relative intensity	assigned
55.0177	106	C3H3O+
55.0542	109	C4H7+
67.0543	206	C5H7+
69.07	142	C5H9+
79.0544	347	C6H7+
81.0701	477	C6H9+
83.0495	285	C5H7O+
91.0546	480	C7H7+
93.0702	864	C7H9+
95.0494	119	C6H7O+
95.086	322	C7H11+
97.0652	635	C6H9O+
105.0703	999	C8H9+
107.0496	172	C7H7O+
107.086	439	C8H11+
109.0652	379	C7H9O+
117.0703	390	C9H9+
119.086	756	C9H11+
121.0652	589	C8H9O+
121.1015	144	C9H13+
123.0808	213	C8H11O+
128.0626	161	C10H8+
129.0703	357	C10H9+
131.086	829	C10H11+
133.065	143	C9H9O+
133.1016	411	C10H13+
135.0809	241	C9H11O+
137.0603	122	C8H9O2+
139.0759	135	C8H11O2+
141.0704	194	C11H9+
142.0783	160	C11H10+
143.086	798	C11H11+
144.0933	66	C11H12+
145.1016	694	C11H13+
147.0808	307	C10H11O+
147.1174	237	C11H15+
149.0964	136	C10H13O+
153.0699	92	C12H9+
155.0859	689	C12H11+
156.0939	137	C12H12+
157.1016	593	C12H13+
159.0807	277	C11H11O+
159.1173	210	C12H15+
161.0967	227	C11H13O+
163.1123	55	C11H15O+
165.0701	137	C13H9+
166.0779	71	C13H10+
167.0859	231	C13H11+
168.0936	159	C13H12+
169.1017	614	C13H13+
171.0807	173	C12H11O+
171.1172	296	C13H15+
173.0966	368	C12H13O+
175.1125	151	C12H15O+
178.0778	98	C14H10+
179.0861	243	C14H11+
180.0936	162	C14H12+
181.1015	454	C14H13+
182.1095	222	C14H14+
183.1173	539	C14H15+
185.0964	218	C13H13O+
185.1329	177	C14H17+
187.1118	123	C13H15O+
191.0859	84	C15H11+
192.0938	152	C15H12+
193.1017	270	C15H13+
194.1095	116	C15H14+
195.081	69	C14H11O+
195.1172	481	C15H15+
196.1255	125	C15H16+
197.0966	164	C14H13O+
197.133	397	C15H17+
199.1121	175	C14H15O+
201.1281	60	C14H17O+
205.1018	121	C16H13+
206.1088	142	C16H14+
207.1172	231	C16H15+
208.1248	100	C16H16+
209.0962	95	C15H13O+
209.1329	331	C16H17+
211.1121	186	C15H15O+
211.1489	114	C16H19+
213.1278	275	C15H17O+
217.1019	47	C17H13+
219.117	125	C17H15+
221.1327	196	C17H17+
223.1116	132	C16H15O+
223.1488	274	C17H19+
225.1281	141	C16H17O+
225.1637	76	C17H21+
231.1168	53	C18H15+
233.1323	94	C18H17+
237.1274	100	C17H17O+
237.1645	57	C18H21+
239.1432	166	C17H19O+
251.1432	237	C18H19O+
269.154	152	C18H21O2+
