Mass spectrum: Tomatidine; LC-ESI-ITFT; MS2; CE: 90%; R=15000; [M+H]+
Name: Tomatidine
Formula: C27H45NO2
Exact mass: 415.3450
SMILES: C[C@H]1[C@H]2[C@H](C[C@H]3[C@@H]4CC[C@H]5C[C@@H](O)CC[C@]5(C)[C@H]4CC[C@]23C)O[C@@]11CC[C@H](C)CN1
InChI: InChI=1S/C27H45NO2/c1-16-7-12-27(28-15-16)17(2)24-23(30-27)14-22-20-6-5-18-13-19(29)8-10-25(18,3)21(20)9-11-26(22,24)4/h16-24,28-29H,5-15H2,1-4H3/t16-,17-,18-,19-,20+,21-,22-,23-,24-,25-,26-,27-/m0/s1
Instrument: LTQ Orbitrap XL Thermo Scientific
Instrument type: LC-ESI-ITFT
Ms type: MS2
Ion mode: POSITIVE
Ionization: ESI
Fragmentation mode: HCD
Collision energy: 90 % (nominal)
Resolution: 15000
Column name: Kinetex Evo C18 2.6 um 50 x 2.1 mm
Retention time: 10.056 min
Base peak: 217.0494
Precursor m/z: 416.3523
Precursor type: [M+H]+
m/z	relative intensity	assigned
67.0543	135	C5H7+
69.0699	40	C5H9+
70.0652	84	C4H8N+
77.0387	39	C6H5+
79.0543	348	C6H7+
81.07	281	C6H9+
91.0544	425	C7H7+
93.07	418	C7H9+
94.0651	23	C6H8N+
95.0857	238	C7H11+
96.0809	48	C6H10N+
105.07	999	C8H9+
107.0857	301	C8H11+
108.0812	28	C7H10N+
109.1013	78	C8H13+
110.0968	22	C7H12N+
117.0699	90	C9H9+
119.0857	503	C9H11+
121.1013	61	C9H13+
122.0966	25	C8H12N+
123.1163	18	C9H15+
124.1123	117	C8H14N+
126.1279	113	C8H16N+
129.0704	27	C10H9+
131.0857	148	C10H11+
133.1013	216	C10H13+
135.1172	36	C10H15+
143.0859	29	C11H11+
144.0936	26	C11H12+
145.1013	120	C11H13+
147.117	229	C11H15+
148.1121	41	C10H14N+
150.128	104	C10H16N+
157.1009	31	C12H13+
159.117	116	C12H15+
161.1328	730	C12H17+
164.1437	47	C11H18N+
173.1331	38	C13H17+
185.1332	23	C14H17+
187.1482	15	C14H19+
