Mass spectrum: (+)-Chelidonine; LC-ESI-ITFT; MS2; CE: 35%; R=15000; [M+H]+
Name: (+)-Chelidonine
Name: Chelidonine
Name: (1S,12S,13R)-24-methyl-5,7,18,20-tetraoxa-24-azahexacyclo[11.11.0.02,10.04,8.014,22.017,21]tetracosa-2,4(8),9,14(22),15,17(21)-hexaen-12-ol
Formula: C20H19NO5
Exact mass: 353.1263
SMILES: CN1Cc2c(ccc3c2OCO3)[C@@H]4[C@H]1c5cc6c(cc5C[C@@H]4O)OCO6
InChI: InChI=1S/C20H19NO5/c1-21-7-13-11(2-3-15-20(13)26-9-23-15)18-14(22)4-10-5-16-17(25-8-24-16)6-12(10)19(18)21/h2-3,5-6,14,18-19,22H,4,7-9H2,1H3/t14-,18-,19+/m0/s1
Instrument: LTQ Orbitrap XL Thermo Scientific
Instrument type: LC-ESI-ITFT
Ms type: MS2
Ion mode: POSITIVE
Ionization: ESI
Fragmentation mode: HCD
Collision energy: 35% (nominal)
Resolution: 15000
Column name: Kinetex Evo C18 2.6 um 50 x 2.1 mm
Retention time: 6.949 min
Base peak: 354.1336
Precursor m/z: 354.1336
Precursor type: [M+H]+
m/z	relative intensity	assigned
133.0285	3	C8H5O2+
135.0441	128	C8H7O2+
143.0491	6	C10H7O+
149.0234	4	C8H5O3+
149.0599	5	C9H9O2+
151.039	3	C8H7O3+
159.0441	7	C10H7O2+
161.0598	50	C10H9O2+
163.039	85	C9H7O3+
173.0598	19	C11H9O2+
175.0388	3	C10H7O3+
176.0707	23	C10H10NO2+
187.0391	5	C11H7O3+
188.0707	23	C11H10NO2+
235.0743	2	C16H11O2+
237.091	5	C16H13O2+
245.0595	5	C17H9O2+
247.0754	109	C17H11O2+
263.0701	3	C17H11O3+
265.086	29	C17H13O3+
267.0651	4	C16H11O4+
275.0703	999	C18H11O3+
277.0851	2	C18H13O3+
293.0809	42	C18H13O4+
295.0966	139	C18H15O4+
305.0809	598	C19H13O4+
307.0966	10	C19H15O4+
323.0915	500	C19H15O5+
336.1231	151	C20H18NO4+
354.1337	687	C20H20NO5+
