Mass spectrum: Nicotine; LC-ESI-ITFT; MS2; CE: 75%; R=15000; [M+H]+
Name: Nicotine
Name: 3-[(2S)-1-methylpyrrolidin-2-yl]pyridine
Formula: C10H14N2
Exact mass: 162.1157
SMILES: CN1CCC[C@H]1c2cccnc2
InChI: InChI=1S/C10H14N2/c1-12-7-3-5-10(12)9-4-2-6-11-8-9/h2,4,6,8,10H,3,5,7H2,1H3/t10-/m0/s1
Instrument: LTQ Orbitrap XL Thermo Scientific
Instrument type: LC-ESI-ITFT
Ms type: MS2
Ion mode: POSITIVE
Ionization: ESI
Fragmentation mode: HCD
Collision energy: 75% (nominal)
Resolution: 15000
Column name: Kinetex Evo C18 2.6 um 50 x 2.1 mm
Retention time: 0.468 min
Base peak: 226.9513
Precursor m/z: 163.123
Precursor type: [M+H]+
m/z	relative intensity	assigned
77.0387	33	C6H5+
106.0651	228	C7H8N+
117.0573	680	C8H7N+
120.0806	126	C8H10N+
130.0651	999	C9H8N+
132.0807	786	C9H10N+
163.1229	73	C10H15N2+
