Mass spectrum: Solasodin; LC-ESI-ITFT; MS2; CE: 85%; R=15000; [M+H]+
Name: Solasodin
Name: Solasodine
Name: (1S,2S,4S,5`R,6R,7S,8R,9S,12S,13R,16S)-5`,7,9,13-tetramethylspiro[5-oxapentacyclo[10.8.0.02,9.04,8.013,18]icos-18-ene-6,2`-piperidine]-16-ol
Formula: C27H43NO2
Exact mass: 413.3294
SMILES: C[C@@H]1CC[C@@]2([C@H]([C@H]3[C@@H](O2)C[C@@H]4[C@@]3(CC[C@H]5[C@H]4CC=C6[C@@]5(CC[C@@H](C6)O)C)C)C)NC1
InChI: InChI=1S/C27H43NO2/c1-16-7-12-27(28-15-16)17(2)24-23(30-27)14-22-20-6-5-18-13-19(29)8-10-25(18,3)21(20)9-11-26(22,24)4/h5,16-17,19-24,28-29H,6-15H2,1-4H3/t16-,17+,19+,20-,21+,22+,23+,24+,25+,26+,27-/m1/s1
Instrument: LTQ Orbitrap XL Thermo Scientific
Instrument type: LC-ESI-ITFT
Ms type: MS2
Ion mode: POSITIVE
Ionization: ESI
Fragmentation mode: HCD
Collision energy: 85% (nominal)
Resolution: 15000
Column name: Kinetex Evo C18 2.6 um 50 x 2.1 mm
Retention time: 10.818 min
Base peak: 414.3361
Precursor m/z: 414.3367
Precursor type: [M+H]+
m/z	relative intensity	assigned
55.0542	14	C4H7+
58.065	9	C3H8N+
65.0386	8	C5H5+
67.0542	286	C5H7+
68.0494	14	C4H6N+
69.0699	82	C5H9+
70.0651	446	C4H8N+
77.0387	19	C6H5+
79.0543	336	C6H7+
80.0495	21	C5H6N+
81.0699	397	C6H9+
82.0651	44	C5H8N+
83.0493	8	C5H7O+
83.0853	13	C6H11+
84.0807	25	C5H10N+
86.0964	23	C5H12N+
91.0543	443	C7H7+
93.0699	576	C7H9+
94.0651	38	C6H8N+
95.0493	22	C6H7O+
95.073	57	C6H9N+
95.0855	384	C7H11+
96.0808	85	C6H10N+
97.0649	21	C6H9O+
98.0964	46	C6H12N+
105.0699	696	C8H9+
107.0855	443	C8H11+
108.0807	46	C7H10N+
109.0648	19	C7H9O+
109.0886	40	C7H11N+
109.1012	272	C8H13+
110.0965	41	C7H12N+
111.104	16	C7H13N+
114.0913	39	C6H12NO+
115.0542	26	C9H7+
117.0699	260	C9H9+
118.0779	19	C9H10+
119.0856	349	C9H11+
120.081	8	C8H10N+
121.1012	285	C9H13+
122.0964	59	C8H12N+
123.1168	18	C9H15+
124.1121	427	C8H14N+
125.12	38	C8H15N+
126.1278	230	C8H16N+
128.0622	57	C10H8+
129.0699	234	C10H9+
130.0776	64	C10H10+
131.0855	488	C10H11+
133.1012	626	C10H13+
134.0968	12	C9H12N+
135.1044	7	C9H13N+
135.1168	41	C10H15+
136.112	37	C9H14N+
138.1276	22	C9H16N+
141.0698	74	C11H9+
142.0777	322	C11H10+
143.0855	296	C11H11+
144.0931	101	C11H12+
145.1012	423	C11H13+
147.1169	432	C11H15+
148.1121	78	C10H14N+
149.1197	15	C10H15N+
150.1278	152	C10H16N+
152.1432	14	C10H18N+
153.0698	9	C12H9+
154.0774	14	C12H10+
155.0856	121	C12H11+
156.0932	52	C12H12+
157.1012	999	C12H13+
159.1169	528	C12H15+
161.1328	24	C12H17+
162.1278	81	C11H16N+
163.1353	14	C11H17N+
164.1434	104	C11H18N+
167.0855	23	C13H11+
168.0933	32	C13H12+
169.1012	159	C13H13+
171.1169	185	C13H15+
173.1325	83	C13H17+
174.1275	9	C12H16N+
175.1119	67	C12H15O+
176.1435	28	C12H18N+
178.1592	14	C12H20N+
181.1011	40	C14H13+
182.1091	55	C14H14+
183.1168	170	C14H15+
185.1325	91	C14H17+
188.1437	7	C13H18N+
195.117	41	C15H15+
196.1248	51	C15H16+
197.1325	154	C15H17+
198.1408	25	C15H18+
199.1482	32	C15H19+
202.1586	13	C14H20N+
203.1673	14	C14H21N+
204.1747	31	C14H22N+
209.1324	50	C16H17+
210.1407	11	C16H18+
211.1481	121	C16H19+
213.1639	15	C16H21+
216.1746	16	C15H22N+
218.19	8	C15H24N+
223.1482	68	C17H19+
224.1569	29	C17H20+
225.1644	30	C17H21+
238.1717	42	C18H22+
253.195	68	C19H25+
366.2781	8	C25H36NO+
380.2944	45	C26H38NO+
396.3256	33	C27H42NO+
