Mass spectrum: Valerophenone; LC-ESI-ITFT; MS2; CE: 15%; R=15000; [M+H]+
Name: Valerophenone
Formula: C11H14O
Exact mass: 162.1045
SMILES: CCCCC(=O)C1=CC=CC=C1
InChI: InChI=1S/C11H14O/c1-2-3-9-11(12)10-7-5-4-6-8-10/h4-8H,2-3,9H2,1H3
Instrument: LTQ Orbitrap XL Thermo Scientific
Instrument type: LC-ESI-ITFT
Ms type: MS2
Ion mode: POSITIVE
Ionization: ESI
Fragmentation mode: CID
Collision energy: 15 % (nominal)
Resolution: 15000
Column name: Kinetex Evo C18 2.6 um 50 x 2.1 mm
Retention time: 11.575 min
Base peak: 163.1116
Precursor m/z: 163.1117
Precursor type: [M+H]+
m/z	relative intensity	assigned
57.0697	29	C4H9+
79.0542	2	C6H7+
85.0648	23	C5H9O+
91.0543	5	C7H7+
105.0699	2	C8H9+
107.0492	22	C7H7O+
117.0699	1	C9H9+
119.0855	1	C9H11+
121.0649	5	C8H9O+
145.1013	31	C11H13+
163.1118	999	C11H15O+
