Mass spectrum: Sophocarpine; LC-ESI-ITFT; MS2; CE: 70%; R=15000; [M+H]+
Name: Sophocarpine
Name: (1R,2R,9S,17S)-7,13-diazatetracyclo[7.7.1.02,7.013,17]heptadec-4-en-6-one
Formula: C15H22N2O
Exact mass: 246.1732
SMILES: C1C[C@H]2CN3[C@H](CC=CC3=O)[C@@H]4[C@H]2N(C1)CCC4
InChI: InChI=1S/C15H22N2O/c18-14-7-1-6-13-12-5-3-9-16-8-2-4-11(15(12)16)10-17(13)14/h1,7,11-13,15H,2-6,8-10H2/t11-,12+,13+,15-/m0/s1
Instrument: LTQ Orbitrap XL Thermo Scientific
Instrument type: LC-ESI-ITFT
Ms type: MS2
Ion mode: POSITIVE
Ionization: ESI
Fragmentation mode: HCD
Collision energy: 70% (nominal)
Resolution: 15000
Column name: Kinetex Evo C18 2.6 um 50 x 2.1 mm
Retention time: 0.877 min
Base peak: 247.1804
Precursor m/z: 247.1805
Precursor type: [M+H]+
m/z	relative intensity	assigned
70.0652	3	C4H8N+
81.0335	7	C5H5O+
82.0652	6	C5H8N+
84.0808	8	C5H10N+
96.0445	8	C5H6NO+
96.0808	159	C6H10N+
98.0964	21	C6H12N+
108.0808	18	C7H10N+
110.0601	18	C6H8NO+
110.0964	6	C7H12N+
112.0757	7	C6H10NO+
112.112	6	C7H14N+
122.0599	6	C7H8NO+
122.0964	12	C8H12N+
124.1121	3	C8H14N+
134.0597	2	C8H8NO+
134.0964	3	C9H12N+
136.1121	417	C9H14N+
137.12	2	C9H15N+
138.092	3	C8H12NO+
138.1278	40	C9H16N+
146.0602	4	C9H8NO+
148.076	10	C9H10NO+
148.1121	40	C10H14N+
149.0837	3	C9H11NO+
149.12	9	C10H15N+
150.0913	13	C9H12NO+
150.1278	130	C10H16N+
152.1434	20	C10H18N+
160.0757	4	C10H10NO+
162.0915	10	C10H12NO+
162.128	6	C11H16N+
164.1071	11	C10H14NO+
174.0916	6	C11H12NO+
174.1286	6	C12H16N+
176.1071	11	C11H14NO+
179.1544	538	C11H19N2+
188.1074	8	C12H14NO+
202.1235	5	C13H16NO+
216.1382	4	C14H18NO+
218.1536	6	C14H20NO+
227.1548	7	C15H19N2+
228.1386	8	C15H18NO+
229.1702	13	C15H21N2+
230.1544	10	C15H20NO+
245.165	311	C15H21N2O+
247.1805	999	C15H23N2O+
