Mass spectrum: Yohimbine; LC-ESI-ITFT; MS2; CE: 35%; R=15000; [M+H]+
Name: Yohimbine
Name: methyl (1S,15R,18S,19R,20S)-18-hydroxy-1,3,11,12,14,15,16,17,18,19,20,21-dodecahydroyohimban-19-carboxylate
Formula: C21H26N2O3
Exact mass: 354.1943
SMILES: COC(=O)[C@H]1[C@H](CC[C@@H]2[C@@H]1C[C@H]3c4c(c5ccccc5[nH]4)CCN3C2)O
InChI: InChI=1S/C21H26N2O3/c1-26-21(25)19-15-10-17-20-14(13-4-2-3-5-16(13)22-20)8-9-23(17)11-12(15)6-7-18(19)24/h2-5,12,15,17-19,22,24H,6-11H2,1H3/t12-,15-,17-,18-,19+/m0/s1
Instrument: LTQ Orbitrap XL Thermo Scientific
Instrument type: LC-ESI-ITFT
Ms type: MS2
Ion mode: POSITIVE
Ionization: ESI
Fragmentation mode: HCD
Collision energy: 35% (nominal)
Resolution: 15000
Column name: Kinetex Evo C18 2.6 um 50 x 2.1 mm
Retention time: 6.501 min
Base peak: 355.2017
Precursor m/z: 355.2016
Precursor type: [M+H]+
m/z	relative intensity	assigned
117.0699	1	C9H9+
130.0647	1	C9H8N+
144.0807	562	C10H10N+
158.0964	5	C11H12N+
162.0914	1	C10H12NO+
177.0911	2	C11H13O2+
180.102	3	C10H14NO2+
192.1022	1	C11H14NO2+
194.1176	5	C11H16NO2+
198.1128	2	C10H16NO3+
206.1182	1	C12H16NO2+
210.1122	2	C11H16NO3+
212.1281	370	C11H18NO3+
224.1281	54	C12H18NO3+
226.1427	1	C12H20NO3+
248.1434	1	C18H18N+
266.1532	1	C18H20NO+
294.1492	8	C19H20NO2+
306.1482	3	C20H20NO2+
308.1651	3	C20H22NO2+
312.1598	2	C19H22NO3+
320.1631	2	C21H22NO2+
323.1764	1	C20H23N2O2+
324.1596	2	C20H22NO3+
326.1749	16	C20H24NO3+
337.192	2	C21H25N2O2+
338.1748	9	C21H24NO3+
355.2015	999	C21H27N2O3+
