Mass spectrum: 6-beta-Hydroxycortisol; LC-ESI-ITFT; MS2; CE: 95%; R=15000; [M+H]+
Name: 6-beta-Hydroxycortisol
Name: 6beta-Hydroxycortisol
Name: (6R,8S,9S,10R,11S,13S,14S,17R)-6,11,17-trihydroxy-17-(2-hydroxyacetyl)-10,13-dimethyl-2,6,7,8,9,11,12,14,15,16-decahydro-1H-cyclopenta[a]phenanthren-3-one
Formula: C21H30O6
Exact mass: 378.2042
SMILES: C[C@]12C[C@H](O)[C@H]3[C@@H](C[C@@H](O)C4=CC(=O)CC[C@]34C)[C@@H]1CC[C@]2(O)C(=O)CO
InChI: InChI=1S/C21H30O6/c1-19-5-3-11(23)7-14(19)15(24)8-12-13-4-6-21(27,17(26)10-22)20(13,2)9-16(25)18(12)19/h7,12-13,15-16,18,22,24-25,27H,3-6,8-10H2,1-2H3/t12-,13-,15+,16-,18+,19-,20-,21-/m0/s1
Instrument: LTQ Orbitrap XL Thermo Scientific
Instrument type: LC-ESI-ITFT
Ms type: MS2
Ion mode: POSITIVE
Ionization: ESI
Fragmentation mode: CID
Collision energy: 95 % (nominal)
Resolution: 15000
Column name: Kinetex Evo C18 2.6 um 50 x 2.1 mm
Retention time: 6.535 min
Base peak: 379.2118
Precursor m/z: 379.2115
Precursor type: [M+H]+
m/z	relative intensity	assigned
155.0859	10	C12H11+
161.0968	20	C11H13O+
187.1126	27	C13H15O+
213.128	35	C15H17O+
223.1122	34	C16H15O+
237.1279	75	C17H17O+
239.1437	227	C17H19O+
247.1488	105	C19H19+
249.128	88	C18H17O+
249.1643	29	C19H21+
255.1385	30	C17H19O2+
261.1644	68	C20H21+
263.1434	74	C19H19O+
265.1594	279	C19H21O+
267.1389	62	C18H19O2+
267.175	219	C19H23O+
277.1594	72	C20H21O+
279.1749	209	C20H23O+
283.1698	407	C19H23O2+
285.1856	129	C19H25O2+
289.1595	179	C21H21O+
295.1699	249	C20H23O2+
297.1855	220	C20H25O2+
307.1699	516	C21H23O2+
313.1803	567	C20H25O3+
315.1952	55	C20H27O3+
325.1803	922	C21H25O3+
331.1905	156	C20H27O4+
343.1907	999	C21H27O4+
361.2011	729	C21H29O5+
