Mass spectrum: Monocrotaline; LC-ESI-ITFT; MS2; CE: 105%; R=15000; [M+H]+
Name: Monocrotaline
Name: (1R,4R,5R,6R,16R)-5,6-dihydroxy-4,5,6-trimethyl-2,8-dioxa-13-azatricyclo[8.5.1.013,16]hexadec-10-ene-3,7-dione
Formula: C16H23NO6
Exact mass: 325.1525
SMILES: C[C@H]1C(=O)O[C@@H]2CCN3[C@@H]2C(=CC3)COC(=O)[C@]([C@]1(C)O)(C)O
InChI: InChI=1S/C16H23NO6/c1-9-13(18)23-11-5-7-17-6-4-10(12(11)17)8-22-14(19)16(3,21)15(9,2)20/h4,9,11-12,20-21H,5-8H2,1-3H3/t9-,11+,12+,15+,16-/m0/s1
Instrument: LTQ Orbitrap XL Thermo Scientific
Instrument type: LC-ESI-ITFT
Ms type: MS2
Ion mode: POSITIVE
Ionization: ESI
Fragmentation mode: HCD
Collision energy: 105% (nominal)
Resolution: 15000
Column name: Kinetex Evo C18 2.6 um 50 x 2.1 mm
Retention time: 0.629 min
Base peak: 326.1597
Precursor m/z: 326.1598
Precursor type: [M+H]+
m/z	relative intensity	assigned
67.0416	141	C4H5N+
67.0542	169	C5H7+
68.0494	115	C4H6N+
77.0383	54	C6H5+
79.0544	99	C6H7+
80.0495	324	C5H6N+
82.0651	100	C5H8N+
91.0543	116	C7H7+
93.0574	60	C6H7N+
94.0651	999	C6H8N+
95.073	171	C6H9N+
96.0807	111	C6H10N+
106.065	94	C7H8N+
108.0808	99	C7H10N+
120.0808	975	C8H10N+
122.0963	81	C8H12N+
