Mass spectrum: (+)-Costunolide; LC-ESI-ITFT; MS2; CE: 50%; R=15000; [M+H]+
Name: (+)-Costunolide
Name: Costunolide
Name: (3aS,6E,10E,11aR)-6,10-dimethyl-3-methylidene-3a,4,5,8,9,11a-hexahydrocyclodeca[b]furan-2-one
Formula: C15H20O2
Exact mass: 232.1463
SMILES: C/C/1=C\CC/C(=C/[C@@H]2[C@@H](CC1)C(=C)C(=O)O2)/C
InChI: InChI=1S/C15H20O2/c1-10-5-4-6-11(2)9-14-13(8-7-10)12(3)15(16)17-14/h5,9,13-14H,3-4,6-8H2,1-2H3/b10-5+,11-9+/t13-,14+/m0/s1
Instrument: LTQ Orbitrap XL Thermo Scientific
Instrument type: LC-ESI-ITFT
Ms type: MS2
Ion mode: POSITIVE
Ionization: ESI
Fragmentation mode: HCD
Collision energy: 50% (nominal)
Resolution: 15000
Column name: Kinetex Evo C18 2.6 um 50 x 2.1 mm
Retention time: 11.700 min
Base peak: 116.9859
Precursor m/z: 233.1536
Precursor type: [M+H]+
m/z	relative intensity	assigned
55.0541	7	C4H7+
67.0543	17	C5H7+
69.0698	16	C5H9+
79.0543	39	C6H7+
81.0699	139	C6H9+
83.0855	13	C6H11+
91.0543	65	C7H7+
93.07	137	C7H9+
95.0856	191	C7H11+
97.0647	13	C6H9O+
97.1014	6	C7H13+
105.07	207	C8H9+
107.0856	165	C8H11+
109.0646	6	C7H9O+
109.1013	70	C8H13+
111.0806	15	C7H11O+
117.0699	30	C9H9+
119.0496	5	C8H7O+
119.0857	104	C9H11+
121.0649	11	C8H9O+
121.1013	53	C9H13+
123.0804	7	C8H11O+
125.0598	32	C7H9O2+
131.0856	261	C10H11+
133.0648	12	C9H9O+
133.1014	82	C10H13+
134.109	13	C10H14+
135.0445	11	C8H7O2+
135.0803	9	C9H11O+
135.117	16	C10H15+
137.0599	25	C8H9O2+
139.0754	39	C8H11O2+
143.0854	8	C11H11+
145.1013	287	C11H13+
147.0806	10	C10H11O+
147.117	77	C11H15+
149.0596	13	C9H9O2+
149.0963	6	C10H13O+
149.1326	6	C11H17+
151.0755	26	C9H11O2+
155.0856	26	C12H11+
157.1016	10	C12H13+
159.0807	41	C11H11O+
159.117	151	C12H15+
161.1326	156	C12H17+
163.0756	31	C10H11O2+
165.0904	14	C10H13O2+
169.1012	20	C13H13+
171.1167	23	C13H15+
173.0963	27	C12H13O+
173.1327	19	C13H17+
177.0913	93	C11H13O2+
182.1091	19	C14H14+
185.1329	11	C14H17+
187.1483	999	C14H19+
189.1634	7	C14H21+
191.1068	28	C12H15O2+
197.1326	66	C15H17+
205.1591	20	C14H21O+
215.1431	148	C15H19O+
233.1538	147	C15H21O2+
