Mass spectrum: Cortisone; LC-ESI-ITFT; MS2; CE: 150%; R=15000; [M+H]+
Name: Cortisone
Name: (8S,9S,10R,13S,14S,17R)-17-hydroxy-17-(2-hydroxyacetyl)-10,13-dimethyl-1,2,6,7,8,9,12,14,15,16-decahydrocyclopenta[a]phenanthrene-3,11-dione
Formula: C21H28O5
Exact mass: 360.1937
SMILES: C[C@]12CC(=O)[C@H]3[C@@H](CCC4=CC(=O)CC[C@]34C)[C@@H]1CC[C@]2(O)C(=O)CO
InChI: InChI=1S/C21H28O5/c1-19-7-5-13(23)9-12(19)3-4-14-15-6-8-21(26,17(25)11-22)20(15,2)10-16(24)18(14)19/h9,14-15,18,22,26H,3-8,10-11H2,1-2H3/t14-,15-,18+,19-,20-,21-/m0/s1
Instrument: LTQ Orbitrap XL Thermo Scientific
Instrument type: LC-ESI-ITFT
Ms type: MS2
Ion mode: POSITIVE
Ionization: ESI
Fragmentation mode: HCD
Collision energy: 150 % (nominal)
Resolution: 15000
Column name: Kinetex Evo C18 2.6 um 50 x 2.1 mm
Retention time: 9.601 min
Base peak: 361.2009
Precursor m/z: 361.201
Precursor type: [M+H]+
m/z	relative intensity	assigned
77.0383	371	C6H5+
78.0463	58	C6H6+
79.054	408	C6H7+
81.0696	91	C6H9+
83.049	71	C5H7O+
91.0541	999	C7H7+
93.0698	55	C7H9+
95.0491	91	C6H7O+
97.0647	41	C6H9O+
103.0541	159	C8H7+
104.062	55	C8H8+
105.0447	615	C6H5N2+
105.0698	287	C8H9+
107.049	95	C7H7O+
115.0541	399	C9H7+
116.062	83	C9H8+
117.0699	118	C9H9+
121.0651	48	C8H9O+
128.0618	356	C10H8+
129.0695	202	C10H9+
130.0771	26	C10H10+
131.0487	40	C9H7O+
133.0649	73	C9H9O+
141.0695	151	C11H9+
147.0801	178	C10H11O+
152.062	93	C12H8+
153.0693	100	C12H9+
155.0599	121	C10H7N2+
165.0697	177	C13H9+
178.0776	73	C14H10+
179.0853	38	C14H11+
