Mass spectrum: Senecionine; LC-ESI-ITFT; MS2; CE: 55%; R=15000; [M+H]+
Name: Senecionine
Name: (1R,4Z,6R,7R,17R)-4-ethylidene-7-hydroxy-6,7-dimethyl-2,9-dioxa-14-azatricyclo[9.5.1.0^{14,17}]heptadec-11-ene-3,8-dione
Formula: C18H25NO5
Exact mass: 335.1733
SMILES: C\C=C1\C[C@@H](C)[C@@](C)(O)C(=O)OCC2=CCN3CC[C@@H](OC1=O)[C@@H]23
InChI: InChI=1S/C18H25NO5/c1-4-12-9-11(2)18(3,22)17(21)23-10-13-5-7-19-8-6-14(15(13)19)24-16(12)20/h4-5,11,14-15,22H,6-10H2,1-3H3/b12-4-/t11-,14-,15-,18-/m1/s1
Instrument: LTQ Orbitrap XL Thermo Scientific
Instrument type: LC-ESI-ITFT
Ms type: MS2
Ion mode: POSITIVE
Ionization: ESI
Fragmentation mode: CID
Collision energy: 55 % (nominal)
Resolution: 15000
Column name: Kinetex Evo C18 2.6 um 50x2.1 mm, Phenomenex
Retention time: 5.829 min
Base peak: 195.0876
Precursor m/z: 336.1805
Precursor type: [M+H]+
m/z	relative intensity	assigned
118.0653	19	C8H8N+
120.0808	348	C8H10N+
122.0965	26	C8H12N+
138.0914	195	C8H12NO+
153.0911	29	C9H13O2+
220.1327	23	C13H18NO2+
238.1438	23	C13H20NO3+
274.1797	18	C17H24NO2+
290.175	149	C17H24NO3+
292.1921	19	C17H26NO3+
308.1857	999	C17H26NO4+
