Mass spectrum: Diosgenin; LC-ESI-ITFT; MS2; CE: 60%; R=15000; [M+H]+
Name: Diosgenin
Name: (1S,2S,4S,5`R,6R,7S,8R,9S,12S,13R,16S)-5`,7,9,13-tetramethylspiro[5-oxapentacyclo[10.8.0.02,9.04,8.013,18]icos-18-ene-6,2`-oxane]-16-ol
Formula: C27H42O3
Exact mass: 414.3134
SMILES: C[C@@H]1CC[C@@]2([C@H]([C@H]3[C@@H](O2)C[C@@H]4[C@@]3(CC[C@H]5[C@H]4CC=C6[C@@]5(CC[C@@H](C6)O)C)C)C)OC1
InChI: InChI=1S/C27H42O3/c1-16-7-12-27(29-15-16)17(2)24-23(30-27)14-22-20-6-5-18-13-19(28)8-10-25(18,3)21(20)9-11-26(22,24)4/h5,16-17,19-24,28H,6-15H2,1-4H3/t16-,17+,19+,20-,21+,22+,23+,24+,25+,26+,27-/m1/s1
Instrument: LTQ Orbitrap XL Thermo Scientific
Instrument type: LC-ESI-ITFT
Ms type: MS2
Ion mode: POSITIVE
Ionization: ESI
Fragmentation mode: HCD
Collision energy: 60% (nominal)
Resolution: 15000
Column name: Kinetex Evo C18 2.6 um 50 x 2.1 mm
Retention time: 15.254 min
Base peak: 116.9858
Precursor m/z: 415.3207
Precursor type: [M+H]+
m/z	relative intensity	assigned
69.0698	429	C5H9+
81.0701	110	C6H9+
93.0698	203	C7H9+
95.0856	125	C7H11+
105.0697	131	C8H9+
107.0857	266	C8H11+
109.1011	352	C8H13+
119.0855	128	C9H11+
121.1011	369	C9H13+
131.0854	160	C10H11+
133.1012	491	C10H13+
143.0855	135	C11H11+
145.1013	294	C11H13+
147.1169	465	C11H15+
157.1011	999	C12H13+
159.117	509	C12H15+
175.1119	204	C12H15O+
197.1324	118	C15H17+
253.1951	654	C19H25+
