Mass spectrum: Galantamine; LC-ESI-ITFT; MS2; CE: 15%; R=15000; [M+H]+
Name: Galantamine
Formula: C17H21NO3
Exact mass: 287.1521
SMILES: CN1CCC23C=CC(CC2OC4=C(C=CC(=C34)C1)OC)O
InChI: InChI=1S/C17H21NO3/c1-18-8-7-17-6-5-12(19)9-14(17)21-16-13(20-2)4-3-11(10-18)15(16)17/h3-6,12,14,19H,7-10H2,1-2H3
Instrument: LTQ Orbitrap XL Thermo Scientific
Instrument type: LC-ESI-ITFT
Ms type: MS2
Ion mode: POSITIVE
Ionization: ESI
Fragmentation mode: CID
Collision energy: 15 % (nominal)
Resolution: 15000
Column name: Kinetex Evo C18 2.6 um 50 x 2.1 mm
Retention time: 0.580 min
Base peak: 235.2166
Precursor m/z: 288.1594
Precursor type: [M+H]+
m/z	relative intensity	assigned
133.0887	1	C9H11N+
134.0968	1	C9H12N+
150.0916	2	C9H12NO+
151.0993	9	C9H13NO+
175.0754	1	C11H11O2+
179.086	2	C14H11+
197.0964	21	C14H13O+
199.0755	13	C13H11O2+
203.1066	2	C13H15O2+
207.0805	3	C15H11O+
209.0963	20	C15H13O+
210.068	1	C14H10O2+
213.0913	73	C14H13O2+
216.1017	1	C13H14NO2+
220.1126	1	C16H14N+
221.0966	1	C16H13O+
225.0913	208	C15H13O2+
227.1076	1	C15H15O2+
231.1019	224	C14H15O3+
239.1069	5	C16H15O2+
241.1233	1	C16H17O2+
245.1172	3	C15H17O3+
253.1229	2	C17H17O2+
255.1259	2	C16H17NO2+
257.1177	19	C16H17O3+
270.1493	290	C17H20NO2+
288.1597	999	C17H22NO3+
