Mass spectrum: Echimidine; LC-ESI-ITFT; MS2; CE: 60%; R=15000; [M+H]+
Name: Echimidine
Name: [(7R,8R)-7-[(Z)-2-methylbut-2-enoyl]oxy-5,6,7,8-tetrahydro-3H-pyrrolizin-1-yl]methyl (2R)-2,3-dihydroxy-2-[(1S)-1-hydroxyethyl]-3-methylbutanoate
Formula: C20H31NO7
Exact mass: 397.2101
SMILES: C/C=C(/C)\C(=O)O[C@@H]1CCN2[C@@H]1C(=CC2)COC(=O)[C@@]([C@H](C)O)(C(C)(C)O)O
InChI: InChI=1S/C20H31NO7/c1-6-12(2)17(23)28-15-8-10-21-9-7-14(16(15)21)11-27-18(24)20(26,13(3)22)19(4,5)25/h6-7,13,15-16,22,25-26H,8-11H2,1-5H3/b12-6-/t13-,15+,16+,20-/m0/s1
Instrument: LTQ Orbitrap XL Thermo Scientific
Instrument type: LC-ESI-ITFT
Ms type: MS2
Ion mode: POSITIVE
Ionization: ESI
Fragmentation mode: HCD
Collision energy: 60% (nominal)
Resolution: 15000
Column name: Kinetex Evo C18 2.6 um 50 x 2.1 mm
Retention time: 6.486 min
Base peak: 398.2172
Precursor m/z: 398.2173
Precursor type: [M+H]+
m/z	relative intensity	assigned
55.0541	71	C4H7+
68.0492	1	C4H6N+
79.0542	5	C6H7+
80.0495	7	C5H6N+
83.0492	181	C5H7O+
91.0542	5	C7H7+
92.0494	3	C6H6N+
93.0699	16	C7H9+
94.0651	12	C6H8N+
94.0779	1	C7H10+
95.0729	4	C6H9N+
96.0805	1	C6H10N+
103.0542	10	C8H7+
105.0573	5	C7H7N+
106.0652	2	C7H8N+
108.0808	10	C7H10N+
118.0652	7	C8H8N+
119.0733	2	C8H9N+
120.0808	999	C8H10N+
121.0886	27	C8H11N+
122.0963	7	C8H12N+
136.0758	1	C8H10NO+
138.0913	43	C8H12NO+
156.1023	3	C8H14NO2+
168.1021	2	C9H14NO2+
174.1277	9	C12H16N+
221.141	4	C13H19NO2+
238.1439	53	C13H20NO3+
