Mass spectrum: 8-Prenylnaringenin; LC-ESI-ITFT; MS2; CE: 80%; R=15000; [M+H]+
Name: 8-Prenylnaringenin
Name: (2S)-5,7-dihydroxy-2-(4-hydroxyphenyl)-8-(3-methylbut-2-enyl)-2,3-dihydrochromen-4-one
Formula: C20H20O5
Exact mass: 340.1311
SMILES: CC(=CCC1=C(C=C(C2=C1O[C@@H](CC2=O)C3=CC=C(C=C3)O)O)O)C
InChI: InChI=1S/C20H20O5/c1-11(2)3-8-14-15(22)9-16(23)19-17(24)10-18(25-20(14)19)12-4-6-13(21)7-5-12/h3-7,9,18,21-23H,8,10H2,1-2H3/t18-/m0/s1
Instrument: LTQ Orbitrap XL Thermo Scientific
Instrument type: LC-ESI-ITFT
Ms type: MS2
Ion mode: POSITIVE
Ionization: ESI
Fragmentation mode: HCD
Collision energy: 80% (nominal)
Resolution: 15000
Column name: Kinetex Evo C18 2.6 um 50 x 2.1 mm
Retention time: 11.902 min
Base peak: 116.9858
Precursor m/z: 341.1384
Precursor type: [M+H]+
m/z	relative intensity	assigned
55.0178	34	C3H3O+
68.9971	41	C3HO2+
69.0334	16	C4H5O+
79.0178	26	C5H3O+
81.0335	53	C5H5O+
92.9971	42	C5HO2+
97.0285	16	C5H5O2+
99.0077	36	C4H3O3+
107.0492	49	C7H7O+
109.0283	21	C6H5O2+
119.0491	14	C8H7O+
121.0648	11	C8H9O+
123.0077	79	C6H3O3+
137.0234	78	C7H5O3+
141.0183	23	C6H5O4+
147.0075	4	C8H3O3+
147.044	16	C9H7O2+
157.0649	12	C11H9O+
165.0183	999	C8H5O4+
169.0652	6	C12H9O+
179.034	7	C9H7O4+
183.029	33	C8H7O5+
197.0452	8	C9H9O5+
197.0605	5	C13H9O2+
