Mass spectrum: Sophocarpine; LC-ESI-ITFT; MS2; CE: 90%; R=15000; [M+H]+
Name: Sophocarpine
Name: (1R,2R,9S,17S)-7,13-diazatetracyclo[7.7.1.02,7.013,17]heptadec-4-en-6-one
Formula: C15H22N2O
Exact mass: 246.1732
SMILES: C1C[C@H]2CN3[C@H](CC=CC3=O)[C@@H]4[C@H]2N(C1)CCC4
InChI: InChI=1S/C15H22N2O/c18-14-7-1-6-13-12-5-3-9-16-8-2-4-11(15(12)16)10-17(13)14/h1,7,11-13,15H,2-6,8-10H2/t11-,12+,13+,15-/m0/s1
Instrument: LTQ Orbitrap XL Thermo Scientific
Instrument type: LC-ESI-ITFT
Ms type: MS2
Ion mode: POSITIVE
Ionization: ESI
Fragmentation mode: HCD
Collision energy: 90% (nominal)
Resolution: 15000
Column name: Kinetex Evo C18 2.6 um 50 x 2.1 mm
Retention time: 0.710 min
Base peak: 143.0015
Precursor m/z: 247.1805
Precursor type: [M+H]+
m/z	relative intensity	assigned
67.054	8	C5H7+
68.0494	16	C4H6N+
70.0651	26	C4H8N+
79.0542	22	C6H7+
80.0495	11	C5H6N+
81.0334	11	C5H5O+
81.0574	10	C5H7N+
82.0652	16	C5H8N+
84.0808	28	C5H10N+
91.0543	8	C7H7+
93.07	9	C7H9+
94.065	13	C6H8N+
96.0808	999	C6H10N+
98.0964	108	C6H12N+
100.1119	8	C6H14N+
108.0808	133	C7H10N+
109.0523	8	C6H7NO+
110.06	40	C6H8NO+
110.0964	37	C7H12N+
112.112	12	C7H14N+
119.0858	11	C9H11+
120.0807	13	C8H10N+
122.06	36	C7H8NO+
122.0964	67	C8H12N+
124.1122	17	C8H14N+
134.06	20	C8H8NO+
134.0964	22	C9H12N+
136.1121	885	C9H14N+
138.1276	66	C9H16N+
146.0601	26	C9H8NO+
148.0757	41	C9H10NO+
148.112	60	C10H14N+
149.12	14	C10H15N+
150.0912	20	C9H12NO+
150.1277	249	C10H16N+
152.1433	29	C10H18N+
160.0759	21	C10H10NO+
162.0914	26	C10H12NO+
162.1279	17	C11H16N+
164.1071	18	C10H14NO+
174.0911	16	C11H12NO+
176.1072	10	C11H14NO+
179.1543	486	C11H19N2+
186.0909	8	C12H12NO+
188.1073	11	C12H14NO+
191.1177	14	C11H15N2O+
202.1227	8	C13H16NO+
228.1381	8	C15H18NO+
229.1699	8	C15H21N2+
230.1549	5	C15H20NO+
245.1647	231	C15H21N2O+
247.1803	210	C15H23N2O+
