Mass spectrum: (+)-Chelidonine; LC-ESI-ITFT; MS2; CE: 70%; R=15000; [M+H]+
Name: (+)-Chelidonine
Name: Chelidonine
Name: (1S,12S,13R)-24-methyl-5,7,18,20-tetraoxa-24-azahexacyclo[11.11.0.02,10.04,8.014,22.017,21]tetracosa-2,4(8),9,14(22),15,17(21)-hexaen-12-ol
Formula: C20H19NO5
Exact mass: 353.1263
SMILES: CN1Cc2c(ccc3c2OCO3)[C@@H]4[C@H]1c5cc6c(cc5C[C@@H]4O)OCO6
InChI: InChI=1S/C20H19NO5/c1-21-7-13-11(2-3-15-20(13)26-9-23-15)18-14(22)4-10-5-16-17(25-8-24-16)6-12(10)19(18)21/h2-3,5-6,14,18-19,22H,4,7-9H2,1H3/t14-,18-,19+/m0/s1
Instrument: LTQ Orbitrap XL Thermo Scientific
Instrument type: LC-ESI-ITFT
Ms type: MS2
Ion mode: POSITIVE
Ionization: ESI
Fragmentation mode: HCD
Collision energy: 70% (nominal)
Resolution: 15000
Column name: Kinetex Evo C18 2.6 um 50 x 2.1 mm
Retention time: 7.015 min
Base peak: 354.1337
Precursor m/z: 354.1336
Precursor type: [M+H]+
m/z	relative intensity	assigned
79.0542	9	C6H7+
103.0542	8	C8H7+
115.0542	4	C9H7+
118.0652	12	C8H8N+
131.0492	32	C9H7O+
133.0282	3	C8H5O2+
135.0442	139	C8H7O2+
143.0493	13	C10H7O+
146.0601	16	C9H8NO+
147.0438	4	C9H7O2+
148.052	8	C9H8O2+
149.0231	5	C8H5O3+
149.0597	14	C9H9O2+
158.0601	2	C10H8NO+
159.0443	32	C10H7O2+
160.0754	6	C10H10NO+
161.0599	43	C10H9O2+
163.0391	136	C9H7O3+
173.0599	10	C11H9O2+
175.0394	7	C10H7O3+
175.0627	9	C10H9NO2+
176.0707	21	C10H10NO2+
177.07	4	C14H9+
179.0857	54	C14H11+
186.0552	2	C11H8NO2+
187.0391	6	C11H7O3+
188.0708	120	C11H10NO2+
189.07	435	C15H9+
190.0778	6	C15H10+
191.0855	38	C15H11+
201.0693	3	C16H9+
205.0649	23	C15H9O+
206.0728	2	C15H10O+
207.0806	87	C15H11O+
209.0599	7	C14H9O2+
217.0649	487	C16H9O+
218.0735	7	C16H10O+
219.0805	54	C16H11O+
222.0679	10	C15H10O2+
223.0761	3	C15H11O2+
233.0598	6	C16H9O2+
235.0754	96	C16H11O2+
237.0911	108	C16H13O2+
245.06	57	C17H9O2+
246.068	22	C17H10O2+
247.0755	999	C17H11O2+
249.0912	6	C17H13O2+
250.0621	4	C16H10O3+
263.0704	16	C17H11O3+
265.0861	70	C17H13O3+
275.0705	747	C18H11O3+
277.0863	5	C18H13O3+
278.0586	3	C17H10O4+
279.0659	2	C17H11O4+
280.0736	3	C17H12O4+
293.0807	9	C18H13O4+
295.0972	8	C18H15O4+
336.1229	2	C20H18NO4+
