Mass spectrum: 6-beta-Hydroxycortisol; LC-ESI-ITFT; MS2; CE: 15%; R=15000; [M+H]+
Name: 6-beta-Hydroxycortisol
Name: 6beta-Hydroxycortisol
Name: (6R,8S,9S,10R,11S,13S,14S,17R)-6,11,17-trihydroxy-17-(2-hydroxyacetyl)-10,13-dimethyl-2,6,7,8,9,11,12,14,15,16-decahydro-1H-cyclopenta[a]phenanthren-3-one
Formula: C21H30O6
Exact mass: 378.2042
SMILES: C[C@]12C[C@H](O)[C@H]3[C@@H](C[C@@H](O)C4=CC(=O)CC[C@]34C)[C@@H]1CC[C@]2(O)C(=O)CO
InChI: InChI=1S/C21H30O6/c1-19-5-3-11(23)7-14(19)15(24)8-12-13-4-6-21(27,17(26)10-22)20(13,2)9-16(25)18(12)19/h7,12-13,15-16,18,22,24-25,27H,3-6,8-10H2,1-2H3/t12-,13-,15+,16-,18+,19-,20-,21-/m0/s1
Instrument: LTQ Orbitrap XL Thermo Scientific
Instrument type: LC-ESI-ITFT
Ms type: MS2
Ion mode: POSITIVE
Ionization: ESI
Fragmentation mode: CID
Collision energy: 15 % (nominal)
Resolution: 15000
Column name: Kinetex Evo C18 2.6 um 50 x 2.1 mm
Retention time: 6.523 min
Base peak: 379.2119
Precursor m/z: 379.2115
Precursor type: [M+H]+
m/z	relative intensity	assigned
121.065	3	C8H9O+
143.0858	5	C11H11+
145.1017	4	C11H13+
163.0756	3	C10H11O2+
171.0811	7	C12H11O+
173.0968	6	C12H13O+
187.1118	7	C13H15O+
189.091	3	C12H13O2+
197.0971	8	C14H13O+
197.1324	4	C15H17+
199.1124	10	C14H15O+
207.1169	11	C16H15+
209.1326	10	C16H17+
213.1275	9	C15H17O+
215.107	7	C14H15O2+
217.1224	18	C14H17O2+
219.1175	3	C17H15+
221.1325	10	C17H17+
223.1118	14	C16H15O+
223.1486	9	C17H19+
225.1277	12	C16H17O+
227.1431	10	C16H19O+
229.1223	8	C15H17O2+
233.1175	4	C14H17O3+
237.1279	29	C17H17O+
237.1645	7	C18H21+
239.1433	82	C17H19O+
241.159	11	C17H21O+
243.1385	4	C16H19O2+
247.1334	9	C15H19O3+
247.1483	41	C19H19+
249.1278	33	C18H17O+
249.1643	13	C19H21+
251.1431	8	C18H19O+
253.1588	10	C18H21O+
255.1378	10	C17H19O2+
257.1541	23	C17H21O2+
261.164	21	C20H21+
263.1433	28	C19H19O+
265.159	115	C19H21O+
267.1378	25	C18H19O2+
267.1747	82	C19H23O+
269.1541	15	C18H21O2+
269.1899	10	C19H25O+
271.149	8	C21H19+
277.159	29	C20H21O+
279.1746	71	C20H23O+
281.154	21	C19H21O2+
283.1695	189	C19H23O2+
285.1486	9	C18H21O3+
285.1852	64	C19H25O2+
289.159	74	C21H21O+
295.1696	104	C20H23O2+
297.1852	114	C20H25O2+
299.1635	11	C19H23O3+
301.1801	39	C19H25O3+
303.1961	7	C19H27O3+
307.1697	235	C21H23O2+
313.1802	326	C20H25O3+
315.1958	32	C20H27O3+
325.1801	502	C21H25O3+
331.1905	125	C20H27O4+
343.1906	665	C21H27O4+
349.2014	35	C20H29O5+
361.2012	493	C21H29O5+
379.2115	999	C21H31O6+
