Mass spectrum: Cortisone; LC-ESI-ITFT; MS2; CE: 25%; R=15000; [M+H]+
Name: Cortisone
Name: (8S,9S,10R,13S,14S,17R)-17-hydroxy-17-(2-hydroxyacetyl)-10,13-dimethyl-1,2,6,7,8,9,12,14,15,16-decahydrocyclopenta[a]phenanthrene-3,11-dione
Formula: C21H28O5
Exact mass: 360.1937
SMILES: C[C@]12CC(=O)[C@H]3[C@@H](CCC4=CC(=O)CC[C@]34C)[C@@H]1CC[C@]2(O)C(=O)CO
InChI: InChI=1S/C21H28O5/c1-19-7-5-13(23)9-12(19)3-4-14-15-6-8-21(26,17(25)11-22)20(15,2)10-16(24)18(14)19/h9,14-15,18,22,26H,3-8,10-11H2,1-2H3/t14-,15-,18+,19-,20-,21-/m0/s1
Instrument: LTQ Orbitrap XL Thermo Scientific
Instrument type: LC-ESI-ITFT
Ms type: MS2
Ion mode: POSITIVE
Ionization: ESI
Fragmentation mode: CID
Collision energy: 25 % (nominal)
Resolution: 15000
Column name: Kinetex Evo C18 2.6 um 50 x 2.1 mm
Retention time: 9.574 min
Base peak: 361.2013
Precursor m/z: 361.201
Precursor type: [M+H]+
m/z	relative intensity	assigned
93.07	3	C7H9+
105.07	21	C8H9+
107.0855	9	C8H11+
117.0699	8	C9H9+
119.0857	17	C9H11+
121.0648	67	C8H9O+
121.1012	7	C9H13+
123.0804	9	C8H11O+
129.0697	7	C10H9+
131.0855	15	C10H11+
133.065	7	C9H9O+
133.1013	7	C10H13+
135.0805	32	C9H11O+
135.1168	10	C10H15+
137.096	5	C9H13O+
139.0757	6	C8H11O2+
143.0854	14	C11H11+
145.0648	7	C10H9O+
145.1012	59	C11H13+
147.0804	52	C10H11O+
147.1168	7	C11H15+
148.0885	2	C10H12O+
149.0962	12	C10H13O+
151.0753	12	C9H11O2+
153.091	8	C9H13O2+
155.0856	9	C12H11+
157.0648	2	C11H9O+
157.1014	11	C12H13+
159.0804	22	C11H11O+
159.117	10	C12H15+
161.0597	4	C10H9O2+
161.0961	37	C11H13O+
163.1117	599	C11H15O+
165.0909	7	C10H13O2+
165.1272	8	C11H17O+
169.1012	12	C13H13+
171.0805	26	C12H11O+
171.1169	46	C13H15+
173.0961	46	C12H13O+
175.1118	17	C12H15O+
177.0911	20	C11H13O2+
179.1067	8	C11H15O2+
181.0861	10	C10H13O3+
181.1011	21	C14H13+
183.0803	3	C13H11O+
183.1169	17	C14H15+
185.0961	21	C13H13O+
185.1323	6	C14H17+
187.0754	7	C12H11O2+
187.1118	26	C13H15O+
189.0909	24	C12H13O2+
189.1276	8	C13H17O+
191.1066	25	C12H15O2+
193.101	6	C15H13+
195.1169	17	C15H15+
197.0961	12	C14H13O+
197.1324	13	C15H17+
199.1117	43	C14H15O+
201.0912	8	C13H13O2+
201.1274	10	C14H17O+
203.1071	8	C13H15O2+
205.1221	9	C13H17O2+
207.1017	7	C12H15O3+
207.1169	21	C16H15+
209.0959	9	C15H13O+
209.1323	18	C16H17+
211.1116	20	C15H15O+
211.148	10	C16H19+
213.091	4	C14H13O2+
213.1274	19	C15H17O+
215.1063	6	C14H15O2+
215.1428	7	C15H19O+
217.1221	15	C14H17O2+
219.102	3	C13H15O3+
219.1165	7	C17H15+
221.1324	26	C17H17+
223.1116	32	C16H15O+
223.1482	31	C17H19+
225.1271	37	C16H17O+
225.1638	15	C17H21+
227.1067	6	C15H15O2+
227.143	20	C16H19O+
229.1222	15	C15H17O2+
231.1381	4	C15H19O2+
233.1324	6	C18H17+
235.1481	22	C18H19+
237.1274	33	C17H17O+
237.1637	32	C18H21+
239.106	6	C16H15O2+
239.143	74	C17H19O+
239.1797	11	C18H23+
241.1222	61	C16H17O2+
241.1586	34	C17H21O+
243.1378	20	C16H19O2+
243.1742	10	C17H23O+
245.1173	4	C15H17O3+
245.1324	7	C19H17+
247.1482	45	C19H19+
249.1277	26	C18H17O+
249.1637	29	C19H21+
251.1073	2	C17H15O2+
251.1432	22	C18H19O+
251.1793	13	C19H23+
253.1586	23	C18H21O+
255.1377	34	C17H19O2+
255.1742	28	C18H23O+
257.1536	52	C17H21O2+
257.19	12	C18H25O+
261.1273	4	C19H17O+
261.1483	16	C16H21O3+
261.1637	31	C20H21+
263.1431	32	C19H19O+
265.1587	247	C19H21O+
267.1378	55	C18H19O2+
267.1742	199	C19H23O+
269.1536	6	C18H21O2+
269.1901	16	C19H25O+
271.1476	6	C21H19+
271.1688	9	C18H23O2+
273.1478	4	C17H21O3+
274.1348	3	C20H18O+
277.1587	34	C20H21O+
279.1382	11	C19H19O2+
279.1743	134	C20H23O+
281.1537	25	C19H21O2+
281.1898	3	C20H25O+
283.1692	279	C19H23O2+
284.1772	9	C19H24O2+
285.1485	28	C18H21O3+
285.1848	172	C19H25O2+
289.1586	84	C21H21O+
295.1692	150	C20H23O2+
297.1848	123	C20H25O2+
299.1641	208	C19H23O3+
300.1724	8	C19H24O3+
301.1797	234	C19H25O3+
303.159	18	C18H23O4+
303.1947	5	C19H27O3+
307.1692	281	C21H23O2+
313.1797	230	C20H25O3+
315.1954	54	C20H27O3+
317.1745	16	C19H25O4+
325.1797	398	C21H25O3+
331.1901	18	C20H27O4+
343.1902	820	C21H27O4+
344.1931	9	C16H28N2O6+
361.2008	999	C21H29O5+
