Mass spectrum: Imperatorin; LC-ESI-ITFT; MS2; CE: 100%; R=15000; [M+H]+
Name: Imperatorin
Name: 9-(3-methylbut-2-enoxy)furo[3,2-g]chromen-7-one
Formula: C16H14O4
Exact mass: 270.0892
SMILES: CC(=CCOc1c2c(ccc(=O)o2)cc3c1occ3)C
InChI: InChI=1S/C16H14O4/c1-10(2)5-7-19-16-14-12(6-8-18-14)9-11-3-4-13(17)20-15(11)16/h3-6,8-9H,7H2,1-2H3
Instrument: LTQ Orbitrap XL Thermo Scientific
Instrument type: LC-ESI-ITFT
Ms type: MS2
Ion mode: POSITIVE
Ionization: ESI
Fragmentation mode: HCD
Collision energy: 100% (nominal)
Resolution: 15000
Column name: Kinetex Evo C18 2.6 um 50 x 2.1 mm
Retention time: 11.498 min
Base peak: 203.0338
Precursor m/z: 271.0965
Precursor type: [M+H]+
m/z	relative intensity	assigned
65.0385	32	C5H5+
69.0699	21	C5H9+
75.0228	15	C6H3+
77.0386	34	C6H5+
89.0384	10	C7H5+
90.0464	14	C7H6+
91.0543	364	C7H7+
101.0386	40	C8H5+
103.0542	40	C8H7+
105.0332	8	C7H5O+
118.0413	10	C8H6O+
119.0492	52	C8H7O+
129.0335	365	C9H5O+
131.0492	112	C9H7O+
147.0441	999	C9H7O2+
157.0285	58	C10H5O2+
174.0311	15	C10H6O3+
175.0393	16	C10H7O3+
203.0342	11	C11H7O4+
