Mass spectrum: Aconitin; LC-ESI-ITFT; MS2; CE: 40%; R=15000; [M+H]+
Name: Aconitin
Name: Aconitine
Name: [(1S,2R,3R,4R,5R,6S,7S,8R,9R,13R,14R,16S,17S,18R)-8-acetyloxy-11-ethyl-5,7,14-trihydroxy-6,16,18-trimethoxy-13-(methoxymethyl)-11-azahexacyclo[7.7.2.12,5.01,10.03,8.013,17]nonadecan-4-yl] benzoate
Formula: C34H47NO11
Exact mass: 645.3149
SMILES: CCN1C[C@@]2([C@@H](C[C@@H]([C@@]34[C@@H]2[C@H]([C@@H](C31)[C@@]5([C@@H]6[C@H]4C[C@@]([C@@H]6OC(=O)C7=CC=CC=C7)([C@H]([C@@H]5O)OC)O)OC(=O)C)OC)OC)O)COC
InChI: InChI=1S/C34H47NO11/c1-7-35-15-31(16-41-3)20(37)13-21(42-4)33-19-14-32(40)28(45-30(39)18-11-9-8-10-12-18)22(19)34(46-17(2)36,27(38)29(32)44-6)23(26(33)35)24(43-5)25(31)33/h8-12,19-29,37-38,40H,7,13-16H2,1-6H3/t19-,20-,21+,22-,23+,24+,25-,26?,27+,28-,29+,31+,32-,33+,34-/m1/s1
Instrument: LTQ Orbitrap XL Thermo Scientific
Instrument type: LC-ESI-ITFT
Ms type: MS2
Ion mode: POSITIVE
Ionization: ESI
Fragmentation mode: HCD
Collision energy: 40% (nominal)
Resolution: 15000
Column name: Kinetex Evo C18 2.6 um 50 x 2.1 mm
Retention time: 9.743 min
Base peak: 116.9858
Precursor m/z: 646.3222
Precursor type: [M+H]+
m/z	relative intensity	assigned
75.044	26	C3H7O2+
85.0282	12	C4H5O2+
105.0335	641	C7H5O+
108.0808	11	C7H10N+
109.0649	20	C7H9O+
110.0962	20	C7H12N+
111.0804	51	C7H11O+
117.0697	9	C9H9+
129.07	16	C10H9+
137.0595	13	C8H9O2+
140.1068	17	C8H14NO+
141.0911	13	C8H13O2+
142.1226	47	C8H16NO+
152.1067	30	C9H14NO+
159.0807	15	C11H11O+
161.0962	14	C11H13O+
165.0539	12	C9H9O3+
171.081	11	C12H11O+
174.0908	28	C11H12NO+
186.1281	15	C13H16N+
188.0702	9	C11H10NO2+
202.0865	21	C12H12NO2+
205.1007	18	C16H13+
207.1169	11	C16H15+
209.0958	11	C15H13O+
216.1386	12	C14H18NO+
217.1013	12	C17H13+
218.1543	41	C14H20NO+
219.0813	10	C16H11O+
223.1119	14	C16H15O+
225.0906	9	C15H13O2+
233.0962	35	C17H13O+
235.1118	31	C17H15O+
237.0919	15	C16H13O2+
239.1058	10	C16H15O2+
251.1065	35	C17H15O2+
259.0961	30	C15H15O4+
261.0906	31	C18H13O2+
263.1065	18	C18H15O2+
265.123	25	C18H17O2+
279.1012	18	C18H15O3+
293.1172	39	C19H17O3+
295.1336	21	C19H19O3+
308.1647	14	C20H22NO2+
318.1501	18	C21H20NO2+
322.1809	9	C21H24NO2+
324.161	11	C20H22NO3+
325.1435	29	C20H21O4+
340.1896	26	C21H26NO3+
344.2226	11	C21H30NO3+
350.175	63	C22H24NO3+
351.179	10	C19H27O6+
354.2064	26	C22H28NO3+
355.1539	9	C21H23O5+
368.1856	684	C22H26NO4+
369.1891	167	C19H29O7+
372.2174	50	C22H30NO4+
376.2485	34	C22H34NO4+
382.2015	19	C23H28NO4+
400.2111	19	C23H30NO5+
404.243	131	C23H34NO5+
405.2461	24	C30H31N+
414.2272	21	C24H32NO5+
472.2121	29	C29H30NO5+
476.2427	68	C29H34NO5+
478.2219	15	C28H32NO6+
490.2225	35	C29H32NO6+
494.2537	108	C29H36NO6+
495.2575	35	C26H39O9+
504.2378	73	C30H34NO6+
505.2407	19	C27H37O9+
522.2487	132	C30H36NO7+
526.2799	352	C30H40NO7+
527.2833	110	C27H43O10+
536.2646	187	C31H38NO7+
537.268	61	C28H41O10+
554.275	363	C31H40NO8+
555.2781	107	C28H43O11+
568.2903	26	C32H42NO8+
586.3015	999	C32H44NO9+
596.2856	32	C33H42NO9+
614.2967	11	C33H44NO10+
646.3232	251	C34H48NO11+
