Mass spectrum: 5,7-Dihydroxy-4-phenylcoumarin; LC-ESI-ITFT; MS2; CE: 90%; R=15000; [M+H]+
Name: 5,7-Dihydroxy-4-phenylcoumarin
Name: 5,7-dihydroxy-4-phenylchromen-2-one
Formula: C15H10O4
Exact mass: 254.0579
SMILES: OC1=CC(O)=C2C(OC(=O)C=C2C2=CC=CC=C2)=C1
InChI: InChI=1S/C15H10O4/c16-10-6-12(17)15-11(9-4-2-1-3-5-9)8-14(18)19-13(15)7-10/h1-8,16-17H
Instrument: LTQ Orbitrap XL Thermo Scientific
Instrument type: LC-ESI-ITFT
Ms type: MS2
Ion mode: POSITIVE
Ionization: ESI
Fragmentation mode: HCD
Collision energy: 90% (nominal)
Resolution: 15000
Column name: Kinetex Evo C18 2.6 um 50 x 2.1 mm
Retention time: 9.862 min
Base peak: 116.9858
Precursor m/z: 255.0652
Precursor type: [M+H]+
m/z	relative intensity	assigned
65.0386	35	C5H5+
68.9971	415	C3HO2+
77.0386	141	C6H5+
91.0542	388	C7H7+
103.0543	148	C8H7+
105.0335	351	C7H5O+
111.0075	56	C5H3O3+
115.0542	617	C9H7+
121.0285	257	C7H5O2+
128.0621	456	C10H8+
129.0699	265	C10H9+
131.0491	41	C9H7O+
131.0856	39	C10H11+
139.0539	48	C11H7+
141.07	243	C11H9+
143.0494	46	C10H7O+
143.0857	32	C11H11+
149.0234	118	C8H5O3+
151.0543	68	C12H7+
152.0621	816	C12H8+
153.0183	358	C7H5O4+
153.0699	867	C12H9+
154.0777	68	C12H10+
155.086	32	C12H11+
157.065	40	C11H9O+
164.0623	169	C13H8+
165.0699	999	C13H9+
168.0574	38	C12H8O+
169.0654	64	C12H9O+
171.0441	317	C11H7O2+
171.0802	55	C12H11O+
181.0648	367	C13H9O+
182.0725	63	C13H10O+
184.052	127	C12H8O2+
197.06	154	C13H9O2+
199.0755	106	C13H11O2+
210.0678	55	C14H10O2+
