Mass spectrum: Colchicine; LC-ESI-ITFT; MS2; CE: 75%; R=15000; [M+H]+
Name: Colchicine
Name: N-[(7S)-1,2,3,10-tetramethoxy-9-oxo-6,7-dihydro-5H-benzo[a]heptalen-7-yl]acetamide
Formula: C22H25NO6
Exact mass: 399.1682
SMILES: CC(=O)N[C@H]1CCC2=CC(=C(C(=C2C3=CC=C(C(=O)C=C13)OC)OC)OC)OC
InChI: InChI=1S/C22H25NO6/c1-12(24)23-16-8-6-13-10-19(27-3)21(28-4)22(29-5)20(13)14-7-9-18(26-2)17(25)11-15(14)16/h7,9-11,16H,6,8H2,1-5H3,(H,23,24)/t16-/m0/s1
Instrument: LTQ Orbitrap XL Thermo Scientific
Instrument type: LC-ESI-ITFT
Ms type: MS2
Ion mode: POSITIVE
Ionization: ESI
Fragmentation mode: HCD
Collision energy: 75% (nominal)
Resolution: 15000
Column name: Kinetex Evo C18 2.6 um 50 x 2.1 mm
Retention time: 9.278 min
Base peak: 116.9858
Precursor m/z: 400.1755
Precursor type: [M+H]+
m/z	relative intensity	assigned
133.0523	219	C8H7NO+
137.0599	228	C8H9O2+
148.0522	66	C9H8O2+
150.0552	85	C8H8NO2+
161.0595	75	C10H9O2+
165.0701	95	C13H9+
176.0705	126	C10H10NO2+
176.0834	62	C11H12O2+
178.0779	56	C14H10+
179.0699	57	C10H11O3+
179.0857	98	C14H11+
181.0646	189	C13H9O+
181.0857	113	C10H13O3+
183.0808	63	C13H11O+
188.071	106	C11H10NO2+
188.0825	57	C12H12O2+
194.0727	149	C14H10O+
195.0805	361	C14H11O+
196.0883	110	C14H12O+
197.0606	113	C13H9O2+
198.068	103	C13H10O2+
199.0756	136	C13H11O2+
205.065	179	C15H9O+
206.0728	155	C15H10O+
207.0808	439	C15H11O+
207.1013	55	C12H15O3+
208.0882	153	C15H12O+
209.0607	158	C14H9O2+
209.0954	158	C15H13O+
210.0675	147	C14H10O2+
211.0753	299	C14H11O2+
212.0834	204	C14H12O2+
213.0915	88	C14H13O2+
219.0814	80	C16H11O+
220.052	54	C15H8O2+
221.0598	131	C15H9O2+
221.0969	121	C16H13O+
222.0677	149	C15H10O2+
223.0754	516	C15H11O2+
224.0833	625	C15H12O2+
224.1059	63	C15H14NO+
225.0544	99	C14H9O3+
225.0776	116	C14H11NO2+
225.0907	233	C15H13O2+
226.0622	132	C14H10O3+
226.0855	57	C14H12NO2+
226.0987	98	C15H14O2+
227.0702	460	C14H11O3+
227.1066	104	C15H15O2+
233.0607	121	C16H9O2+
234.0677	176	C16H10O2+
234.092	107	C16H12NO+
235.0755	520	C16H11O2+
236.0832	282	C16H12O2+
236.1065	124	C16H14NO+
237.0542	148	C15H9O3+
237.0913	448	C16H13O2+
238.0998	103	C16H14O2+
239.07	214	C15H11O3+
239.107	552	C16H15O2+
240.0785	486	C15H12O3+
240.1014	119	C15H14NO2+
241.0857	370	C15H13O3+
242.0948	80	C15H14O3+
243.066	101	C14H11O4+
247.0745	88	C17H11O2+
249.0791	74	C16H11NO2+
249.0909	169	C17H13O2+
250.0629	147	C16H10O3+
250.0863	166	C16H12NO2+
251.0704	736	C16H11O3+
251.1068	178	C17H15O2+
252.0784	638	C16H12O3+
252.102	168	C16H14NO2+
253.0491	124	C15H9O4+
253.0737	98	C15H11NO3+
253.086	165	C16H13O3+
253.1095	66	C16H15NO2+
254.0817	131	C15H12NO3+
254.0935	48	C16H14O3+
255.0655	340	C15H11O4+
255.1018	257	C16H15O3+
256.0729	82	C15H12O4+
256.0972	113	C15H14NO3+
263.0708	216	C17H11O3+
264.0774	82	C17H12O3+
264.1025	112	C17H14NO2+
265.0856	358	C17H13O3+
265.1092	61	C17H15NO2+
266.0937	242	C17H14O3+
267.0647	117	C16H11O4+
267.1015	999	C17H15O3+
268.0735	294	C16H12O4+
268.0971	308	C16H14NO3+
269.0811	216	C16H13O4+
270.1113	76	C16H16NO3+
279.0658	227	C17H11O4+
280.0734	169	C17H12O4+
280.0974	148	C17H14NO3+
283.0966	457	C17H15O4+
284.093	114	C16H14NO4+
286.1085	107	C16H16NO4+
292.0971	101	C18H14NO3+
293.1053	77	C18H15NO3+
295.0965	381	C18H15O4+
296.0922	116	C17H14NO4+
297.1109	60	C18H17O4+
300.1236	241	C17H18NO4+
308.0919	88	C18H14NO4+
311.0911	210	C18H15O5+
325.1077	57	C19H17O5+
