Mass spectrum: Echimidine N-oxide; LC-ESI-ITFT; MS2; CE: 95%; R=15000; [M+H]+
Name: Echimidine N-oxide
Name: [(7R,8R)-7-[(Z)-2-methylbut-2-enoyl]oxy-4-oxido-5,6,7,8-tetrahydro-3H-pyrrolizin-4-ium-1-yl]methyl (2R)-2,3-dihydroxy-2-[(1S)-1-hydroxyethyl]-3-methylbutanoate
Formula: C20H31NO8
Exact mass: 413.2050
SMILES: C/C=C(/C)\C(=O)O[C@@H]1CC[N+]2([C@@H]1C(=CC2)COC(=O)[C@@]([C@H](C)O)(C(C)(C)O)O)[O-]
InChI: InChI=1S/C20H31NO8/c1-6-12(2)17(23)29-15-8-10-21(27)9-7-14(16(15)21)11-28-18(24)20(26,13(3)22)19(4,5)25/h6-7,13,15-16,22,25-26H,8-11H2,1-5H3/b12-6-/t13-,15+,16+,20-,21?/m0/s1
Instrument: LTQ Orbitrap XL Thermo Scientific
Instrument type: LC-ESI-ITFT
Ms type: MS2
Ion mode: POSITIVE
Ionization: ESI
Fragmentation mode: HCD
Collision energy: 95% (nominal)
Resolution: 15000
Column name: Kinetex Evo C18 2.6 um 50 x 2.1 mm
Retention time: 6.545 min
Base peak: 414.2117
Precursor m/z: 414.2122
Precursor type: [M+H]+
m/z	relative intensity	assigned
55.0541	255	C4H7+
65.0386	11	C5H5+
66.0464	18	C5H6+
67.0417	33	C4H5N+
67.0542	52	C5H7+
68.0495	79	C4H6N+
77.0385	29	C6H5+
79.0542	132	C6H7+
80.0495	468	C5H6N+
81.0572	51	C5H7N+
81.0699	85	C6H9+
82.0413	32	C5H6O+
82.0652	63	C5H8N+
83.0491	810	C5H7O+
84.0444	93	C4H6NO+
91.0542	135	C7H7+
92.0496	54	C6H6N+
93.0573	430	C6H7N+
93.0698	47	C7H9+
94.0651	999	C6H8N+
95.0492	19	C6H7O+
95.0729	62	C6H9N+
96.0444	28	C5H6NO+
98.0601	23	C5H8NO+
103.0543	21	C8H7+
105.07	13	C8H9+
106.0651	557	C7H8N+
107.0728	31	C7H9N+
107.0856	15	C8H11+
108.0808	286	C7H10N+
109.065	22	C7H9O+
109.0886	30	C7H11N+
110.0601	61	C6H8NO+
111.0678	182	C6H9NO+
112.0756	64	C6H10NO+
117.0573	28	C8H7N+
118.0651	409	C8H8N+
119.0729	250	C8H9N+
120.0808	486	C8H10N+
121.0886	14	C8H11N+
122.0604	11	C7H8NO+
124.0757	107	C7H10NO+
126.0913	14	C7H12NO+
132.0807	25	C9H10N+
136.0757	443	C8H10NO+
137.0835	85	C8H11NO+
138.0912	33	C8H12NO+
141.0909	126	C8H13O2+
146.0965	26	C10H12N+
148.1124	12	C10H14N+
154.0863	91	C8H12NO2+
172.0971	10	C8H14NO3+
218.1182	14	C13H16NO2+
