Mass spectrum: Erucifoline N-oxide; LC-ESI-ITFT; MS2; CE: 105%; R=15000; [M+H]+
Name: Erucifoline N-oxide
Name: (5R,7S,9Z,12R,18R)-9-ethylidene-7-(hydroxymethyl)-5-methyl-15-oxido-3,6,11-trioxa-15-azoniatetracyclo[10.5.1.05,7.015,18]octadec-1(17)-ene-4,10-dione
Formula: C18H23NO7
Exact mass: 365.1475
SMILES: C/C=C\1/C[C@@]2([C@@](O2)(C(=O)OCC3=CC[N+]4([C@H]3[C@@H](CC4)OC1=O)[O-])C)CO
InChI: InChI=1S/C18H23NO7/c1-3-11-8-18(10-20)17(2,26-18)16(22)24-9-12-4-6-19(23)7-5-13(14(12)19)25-15(11)21/h3-4,13-14,20H,5-10H2,1-2H3/b11-3-/t13-,14-,17+,18+,19?/m1/s1
Instrument: LTQ Orbitrap XL Thermo Scientific
Instrument type: LC-ESI-ITFT
Ms type: MS2
Ion mode: POSITIVE
Ionization: ESI
Fragmentation mode: HCD
Collision energy: 105% (nominal)
Resolution: 15000
Column name: Kinetex Evo C18 2.6 um 50 x 2.1 mm
Retention time: 1.123 min
Base peak: 366.1545
Precursor m/z: 366.1547
Precursor type: [M+H]+
m/z	relative intensity	assigned
53.0384	14	C4H5+
65.0385	13	C5H5+
66.0464	35	C5H6+
67.0416	38	C4H5N+
67.0543	79	C5H7+
68.0496	17	C4H6N+
77.0386	31	C6H5+
78.0341	14	C5H4N+
79.0543	60	C6H7+
80.0495	259	C5H6N+
81.0336	15	C5H5O+
81.07	25	C6H9+
91.0543	137	C7H7+
92.0495	71	C6H6N+
93.0574	322	C6H7N+
93.0697	21	C7H9+
94.0652	999	C6H8N+
95.0494	17	C6H7O+
96.0442	20	C5H6NO+
103.0542	13	C8H7+
105.07	15	C8H9+
106.0652	82	C7H8N+
107.0729	27	C7H9N+
108.0444	16	C6H6NO+
108.0809	126	C7H10N+
109.0648	42	C7H9O+
110.0603	13	C6H8NO+
117.0574	96	C8H7N+
118.0652	465	C8H8N+
119.073	88	C8H9N+
120.0809	249	C8H10N+
136.0757	199	C8H10NO+
144.0806	14	C10H10N+
