Mass spectrum: Retrorsine N-oxide; LC-ESI-ITFT; MS2; CE: 65%; R=15000; [M+H]+
Name: Retrorsine N-oxide
Name: Unii-51819grv4U
Name: (1R,4Z,6R,7S,14S,17R)-4-ethylidene-7-hydroxy-7-(hydroxymethyl)-6-methyl-14-oxido-2,9-dioxa-14-azoniatricyclo[9.5.1.014,17]heptadec-11-ene-3,8-dione
Formula: C18H25NO7
Exact mass: 367.1631
SMILES: C/C=C\1/C[C@H]([C@@](C(=O)OCC2=CC[N@@+]3([C@H]2[C@@H](CC3)OC1=O)[O-])(CO)O)C
InChI: InChI=1S/C18H25NO7/c1-3-12-8-11(2)18(23,10-20)17(22)25-9-13-4-6-19(24)7-5-14(15(13)19)26-16(12)21/h3-4,11,14-15,20,23H,5-10H2,1-2H3/b12-3-/t11-,14-,15-,18-,19-/m1/s1
Instrument: LTQ Orbitrap XL Thermo Scientific
Instrument type: LC-ESI-ITFT
Ms type: MS2
Ion mode: POSITIVE
Ionization: ESI
Fragmentation mode: HCD
Collision energy: 65% (nominal)
Resolution: 15000
Column name: Kinetex Evo C18 2.6 um 50 x 2.1 mm
Retention time: 2.073 min
Base peak: 368.1703
Precursor m/z: 368.1704
Precursor type: [M+H]+
m/z	relative intensity	assigned
53.0385	22	C4H5+
67.0543	26	C5H7+
68.0494	18	C4H6N+
79.0543	58	C6H7+
80.0495	90	C5H6N+
81.0335	15	C5H5O+
81.0573	18	C5H7N+
81.0699	143	C6H9+
82.0652	25	C5H8N+
83.0491	24	C5H7O+
84.0443	27	C4H6NO+
91.0543	55	C7H7+
93.0573	441	C6H7N+
93.0699	27	C7H9+
94.0651	699	C6H8N+
95.0729	294	C6H9N+
95.0855	121	C7H11+
96.0806	11	C6H10N+
98.06	49	C5H8NO+
105.0696	21	C8H9+
106.0652	159	C7H8N+
107.0491	17	C7H7O+
107.0731	27	C7H9N+
107.0852	24	C8H11+
108.0808	204	C7H10N+
109.0648	46	C7H9O+
109.0886	56	C7H11N+
110.0601	24	C6H8NO+
111.0442	11	C6H7O2+
111.0679	25	C6H9NO+
112.0757	72	C6H10NO+
117.0574	14	C8H7N+
118.0652	577	C8H8N+
119.073	475	C8H9N+
120.0808	837	C8H10N+
121.0649	8	C8H9O+
121.0885	99	C8H11N+
122.0964	181	C8H12N+
123.0805	122	C8H11O+
124.0758	27	C7H10NO+
125.0963	14	C8H13O+
134.0963	13	C9H12N+
136.0757	999	C8H10NO+
137.0597	16	C8H9O2+
137.0835	66	C8H11NO+
138.0914	372	C8H12NO+
139.0754	71	C8H11O2+
141.0916	11	C8H13O2+
148.1123	16	C10H14N+
151.0754	81	C9H11O2+
152.107	26	C9H14NO+
154.0863	115	C8H12NO2+
164.107	26	C10H14NO+
167.1069	22	C10H15O2+
169.0859	24	C9H13O3+
176.1074	12	C11H14NO+
178.1227	49	C11H16NO+
190.123	24	C12H16NO+
218.1186	20	C13H16NO2+
220.1331	60	C13H18NO2+
227.1274	32	C12H19O4+
236.1279	16	C13H18NO3+
246.1484	18	C15H20NO2+
340.1762	28	C17H26NO6+
368.1707	56	C18H26NO7+
