Mass spectrum: Valerophenone; LC-ESI-ITFT; MS2; CE: 70%; R=15000; [M+H]+
Name: Valerophenone
Formula: C11H14O
Exact mass: 162.1045
SMILES: CCCCC(=O)C1=CC=CC=C1
InChI: InChI=1S/C11H14O/c1-2-3-9-11(12)10-7-5-4-6-8-10/h4-8H,2-3,9H2,1H3
Instrument: LTQ Orbitrap XL Thermo Scientific
Instrument type: LC-ESI-ITFT
Ms type: MS2
Ion mode: POSITIVE
Ionization: ESI
Fragmentation mode: HCD
Collision energy: 70 % (nominal)
Resolution: 15000
Column name: Kinetex Evo C18 2.6 um 50 x 2.1 mm
Retention time: 11.599 min
Base peak: 440.3519
Precursor m/z: 163.1117
Precursor type: [M+H]+
m/z	relative intensity	assigned
57.0698	183	C4H9+
77.0386	53	C6H5+
79.0543	999	C6H7+
85.065	33	C5H9O+
91.0543	511	C7H7+
103.0543	153	C8H7+
105.0699	129	C8H9+
107.0492	378	C7H7O+
117.0701	206	C9H9+
121.0649	24	C8H9O+
130.0777	65	C10H10+
145.1014	90	C11H13+
