Mass spectrum: Retrorsine; LC-ESI-ITFT; MS2; CE: 85%; R=15000; [M+H]+
Name: Retrorsine
Name: (1R,4Z,6R,7S,17R)-4-ethylidene-7-hydroxy-7-(hydroxymethyl)-6-methyl-2,9-dioxa-14-azatricyclo[9.5.1.014,17]heptadec-11-ene-3,8-dione
Formula: C18H25NO6
Exact mass: 351.1682
SMILES: C/C=C\1/C[C@H]([C@@](C(=O)OCC2=CCN3[C@H]2[C@@H](CC3)OC1=O)(CO)O)C
InChI: InChI=1S/C18H25NO6/c1-3-12-8-11(2)18(23,10-20)17(22)24-9-13-4-6-19-7-5-14(15(13)19)25-16(12)21/h3-4,11,14-15,20,23H,5-10H2,1-2H3/b12-3-/t11-,14-,15-,18-/m1/s1
Instrument: LTQ Orbitrap XL Thermo Scientific
Instrument type: LC-ESI-ITFT
Ms type: MS2
Ion mode: POSITIVE
Ionization: ESI
Fragmentation mode: HCD
Collision energy: 85% (nominal)
Resolution: 15000
Column name: Kinetex Evo C18 2.6 um 50 x 2.1 mm
Retention time: 1.527 min
Base peak: 143.0015
Precursor m/z: 352.1755
Precursor type: [M+H]+
m/z	relative intensity	assigned
53.0385	23	C4H5+
55.0542	30	C4H7+
65.0385	44	C5H5+
67.0542	516	C5H7+
68.0494	169	C4H6N+
77.0386	182	C6H5+
79.0543	269	C6H7+
80.0495	342	C5H6N+
81.0332	35	C5H5O+
81.0574	93	C5H7N+
81.0699	278	C6H9+
82.0651	219	C5H8N+
83.0492	45	C5H7O+
91.0542	447	C7H7+
92.0494	71	C6H6N+
93.0575	40	C6H7N+
93.0698	388	C7H9+
94.0651	999	C6H8N+
95.0491	55	C6H7O+
95.0731	54	C6H9N+
95.0855	401	C7H11+
96.0808	436	C6H10N+
103.0542	168	C8H7+
105.0573	66	C7H7N+
105.0699	158	C8H9+
106.0651	92	C7H8N+
107.073	61	C7H9N+
108.0808	334	C7H10N+
109.0647	43	C7H9O+
110.06	37	C6H8NO+
110.0966	99	C7H12N+
118.0652	184	C8H8N+
119.0726	52	C8H9N+
120.0808	803	C8H10N+
121.0882	27	C8H11N+
122.0964	173	C8H12N+
123.0804	147	C8H11O+
136.0757	60	C8H10NO+
138.0914	427	C8H12NO+
151.0755	81	C9H11O2+
156.1017	55	C8H14NO2+
220.1335	44	C13H18NO2+
