Mass spectrum: alpha-Cyperone; LC-ESI-ITFT; MS2; CE: 120%; R=15000; [M+H]+
Name: alpha-Cyperone
Formula: C15H22O
Exact mass: 218.1671
SMILES: CC1=C2CC(CCC2(CCC1=O)C)C(=C)C
InChI: InChI=1S/C15H22O/c1-10(2)12-5-7-15(4)8-6-14(16)11(3)13(15)9-12/h12H,1,5-9H2,2-4H3
Instrument: LTQ Orbitrap XL Thermo Scientific
Instrument type: LC-ESI-ITFT
Ms type: MS2
Ion mode: POSITIVE
Ionization: ESI
Fragmentation mode: HCD
Collision energy: 120 % (nominal)
Resolution: 15000
Column name: Kinetex Evo C18 2.6 um 50 x 2.1 mm
Retention time: 13.126 min
Base peak: 219.174
Precursor m/z: 219.1743
Precursor type: [M+H]+
m/z	relative intensity	assigned
55.0541	38	C4H7+
65.0385	59	C5H5+
67.0542	478	C5H7+
69.0334	35	C4H5O+
69.0698	43	C5H9+
77.0386	530	C6H5+
79.0542	587	C6H7+
80.0619	25	C6H8+
81.0698	416	C6H9+
83.0492	38	C5H7O+
83.0857	53	C6H11+
91.0542	999	C7H7+
93.0698	532	C7H9+
94.0774	25	C7H10+
95.0492	124	C6H7O+
95.0855	214	C7H11+
96.057	15	C6H8O+
97.0647	182	C6H9O+
103.0541	91	C8H7+
104.0623	16	C8H8+
105.0698	379	C8H9+
107.0491	55	C7H7O+
107.0854	105	C8H11+
108.057	67	C7H8O+
109.0647	74	C7H9O+
109.1013	41	C8H13+
111.0804	816	C7H11O+
115.054	92	C9H7+
116.0619	30	C9H8+
117.0698	95	C9H9+
119.0855	126	C9H11+
121.0648	129	C8H9O+
122.0724	30	C8H10O+
123.0804	316	C8H11O+
128.062	88	C10H8+
129.0698	104	C10H9+
130.0777	39	C10H10+
131.0856	55	C10H11+
133.0645	34	C9H9O+
133.1016	18	C10H13+
135.0803	101	C9H11O+
137.0962	68	C9H13O+
143.0855	47	C11H11+
145.101	16	C11H13+
147.0806	35	C10H11O+
149.0959	19	C10H13O+
161.096	47	C11H13O+
189.1275	30	C13H17O+
