Mass spectrum: Daphnetin; LC-ESI-ITFT; MS2; CE: 50%; R=15000; [M+H]+
Name: Daphnetin
Formula: C9H6O4
Exact mass: 178.0266
SMILES: OC1=CC=C2C=CC(=O)OC2=C1O
InChI: InChI=1S/C9H6O4/c10-6-3-1-5-2-4-7(11)13-9(5)8(6)12/h1-4,10,12H
Instrument: LTQ Orbitrap XL Thermo Scientific
Instrument type: LC-ESI-ITFT
Ms type: MS2
Ion mode: POSITIVE
Ionization: ESI
Fragmentation mode: HCD
Collision energy: 50 % (nominal)
Resolution: 15000
Column name: Kinetex Evo C18 2.6 um 50 x 2.1 mm
Retention time: 4.551 min
Base peak: 143.0016
Precursor m/z: 179.0339
Precursor type: [M+H]+
m/z	relative intensity	assigned
89.0387	49	C7H5+
91.0543	38	C7H7+
105.0337	76	C7H5O+
107.0489	35	C7H7O+
117.0337	49	C8H5O+
119.0491	95	C8H7O+
123.0442	237	C7H7O2+
133.0285	667	C8H5O2+
135.0442	178	C8H7O2+
147.0442	101	C9H7O2+
151.039	34	C8H7O3+
161.0239	23	C9H5O3+
179.0342	999	C9H7O4+
