Mass spectrum: 6-beta-Hydroxycortisol; LC-ESI-ITFT; MS2; CE: 90%; R=15000; [M+H]+
Name: 6-beta-Hydroxycortisol
Name: 6beta-Hydroxycortisol
Name: (6R,8S,9S,10R,11S,13S,14S,17R)-6,11,17-trihydroxy-17-(2-hydroxyacetyl)-10,13-dimethyl-2,6,7,8,9,11,12,14,15,16-decahydro-1H-cyclopenta[a]phenanthren-3-one
Formula: C21H30O6
Exact mass: 378.2042
SMILES: C[C@]12C[C@H](O)[C@H]3[C@@H](C[C@@H](O)C4=CC(=O)CC[C@]34C)[C@@H]1CC[C@]2(O)C(=O)CO
InChI: InChI=1S/C21H30O6/c1-19-5-3-11(23)7-14(19)15(24)8-12-13-4-6-21(27,17(26)10-22)20(13,2)9-16(25)18(12)19/h7,12-13,15-16,18,22,24-25,27H,3-6,8-10H2,1-2H3/t12-,13-,15+,16-,18+,19-,20-,21-/m0/s1
Instrument: LTQ Orbitrap XL Thermo Scientific
Instrument type: LC-ESI-ITFT
Ms type: MS2
Ion mode: POSITIVE
Ionization: ESI
Fragmentation mode: HCD
Collision energy: 90 % (nominal)
Resolution: 15000
Column name: Kinetex Evo C18 2.6 um 50 x 2.1 mm
Retention time: 6.513 min
Base peak: 379.2118
Precursor m/z: 379.2115
Precursor type: [M+H]+
m/z	relative intensity	assigned
55.0177	98	C3H3O+
55.0542	113	C4H7+
67.0543	206	C5H7+
79.0545	368	C6H7+
81.0702	323	C6H9+
83.0494	138	C5H7O+
91.0546	751	C7H7+
93.0703	535	C7H9+
95.0859	128	C7H11+
97.0652	301	C6H9O+
105.0703	999	C8H9+
107.0497	79	C7H7O+
109.0649	145	C7H9O+
117.0704	324	C9H9+
119.086	417	C9H11+
121.0652	269	C8H9O+
128.0627	355	C10H8+
129.0702	435	C10H9+
131.086	469	C10H11+
141.0701	255	C11H9+
142.0782	281	C11H10+
143.086	510	C11H11+
145.1016	247	C11H13+
155.0861	462	C12H11+
156.0941	184	C12H12+
157.1016	210	C12H13+
159.0809	122	C11H11O+
165.0702	235	C13H9+
166.078	102	C13H10+
167.086	260	C13H11+
168.0935	128	C13H12+
169.1019	349	C13H13+
171.0811	97	C12H11O+
178.0786	158	C14H10+
179.0861	219	C14H11+
180.0934	194	C14H12+
181.1016	285	C14H13+
182.1098	85	C14H14+
183.1174	262	C14H15+
192.0929	162	C15H12+
193.1015	198	C15H13+
195.1174	166	C15H15+
205.1006	77	C16H13+
209.1326	121	C16H17+
