Mass spectrum: Matairesinol; LC-ESI-ITFT; MS2; CE: 75%; R=15000; [M+H]+
Name: Matairesinol
Formula: C20H22O6
Exact mass: 358.1416
SMILES: COC1=CC(C[C@H]2COC(=O)[C@@H]2CC2=CC=C(O)C(OC)=C2)=CC=C1O
InChI: InChI=1S/C20H22O6/c1-24-18-9-12(3-5-16(18)21)7-14-11-26-20(23)15(14)8-13-4-6-17(22)19(10-13)25-2/h3-6,9-10,14-15,21-22H,7-8,11H2,1-2H3/t14-,15+/m0/s1
Instrument: LTQ Orbitrap XL Thermo Scientific
Instrument type: LC-ESI-ITFT
Ms type: MS2
Ion mode: POSITIVE
Ionization: ESI
Fragmentation mode: CID
Collision energy: 75 % (nominal)
Resolution: 15000
Column name: Kinetex Evo C18 2.6 um 50 x 2.1 mm
Retention time: 9.337 min
Base peak: 147.0804
Precursor m/z: 359.1489
Precursor type: [M+H]+
m/z	relative intensity	assigned
103.054	1	C8H7+
122.0362	19	C7H6O2+
131.0492	17	C9H7O+
137.0598	431	C8H9O2+
145.065	6	C10H9O+
149.0597	3	C9H9O2+
151.039	31	C8H7O3+
163.0754	58	C10H11O2+
177.0548	2	C10H9O3+
177.091	11	C11H13O2+
179.0704	10	C10H11O3+
189.0911	3	C12H13O2+
191.0703	43	C11H11O3+
203.0703	40	C12H11O3+
205.0859	67	C12H13O3+
217.0858	17	C13H13O3+
221.0809	28	C12H13O4+
223.0964	284	C12H15O4+
235.0965	100	C13H15O4+
263.1063	8	C18H15O2+
281.1168	9	C18H17O3+
291.1016	95	C19H15O3+
295.1329	20	C19H19O3+
305.1173	74	C20H17O3+
309.1122	29	C19H17O4+
323.1277	216	C20H19O4+
341.1384	999	C20H21O5+
