Mass spectrum: alpha-Cyperone; LC-ESI-ITFT; MS2; CE: 80%; R=15000; [M+H]+
Name: alpha-Cyperone
Formula: C15H22O
Exact mass: 218.1671
SMILES: CC1=C2CC(CCC2(CCC1=O)C)C(=C)C
InChI: InChI=1S/C15H22O/c1-10(2)12-5-7-15(4)8-6-14(16)11(3)13(15)9-12/h12H,1,5-9H2,2-4H3
Instrument: LTQ Orbitrap XL Thermo Scientific
Instrument type: LC-ESI-ITFT
Ms type: MS2
Ion mode: POSITIVE
Ionization: ESI
Fragmentation mode: CID
Collision energy: 80 % (nominal)
Resolution: 15000
Column name: Kinetex Evo C18 2.6 um 50 x 2.1 mm
Retention time: 13.134 min
Base peak: 219.1742
Precursor m/z: 219.1743
Precursor type: [M+H]+
m/z	relative intensity	assigned
55.0542	2	C4H7+
67.0543	20	C5H7+
77.0387	3	C6H5+
79.0543	21	C6H7+
81.07	58	C6H9+
91.0544	18	C7H7+
93.07	53	C7H9+
95.0856	168	C7H11+
97.0649	242	C6H9O+
105.07	117	C8H9+
107.0856	149	C8H11+
109.0649	29	C7H9O+
109.1013	344	C8H13+
111.0805	343	C7H11O+
117.07	11	C9H9+
119.0857	182	C9H11+
121.0649	24	C8H9O+
121.1013	149	C9H13+
123.0806	174	C8H11O+
123.1169	124	C9H15+
125.0961	39	C8H13O+
131.0856	90	C10H11+
133.1012	67	C10H13+
135.0806	142	C9H11O+
135.1169	110	C10H15+
137.0962	55	C9H13O+
137.1327	7	C10H17+
139.1118	8	C9H15O+
145.1013	443	C11H13+
147.1169	198	C11H15+
149.0962	132	C10H13O+
149.1326	41	C11H17+
151.112	7	C10H15O+
159.117	425	C12H15+
161.1327	314	C12H17+
162.1041	9	C11H14O+
163.1119	999	C11H15O+
173.1327	357	C13H17+
175.1483	96	C13H19+
176.1197	17	C12H16O+
177.1276	100	C12H17O+
177.164	54	C13H21+
191.1432	37	C13H19O+
191.1796	51	C14H23+
201.1639	872	C15H21+
204.1513	11	C14H20O+
