Mass spectrum: (+)-Costunolide; LC-ESI-ITFT; MS2; CE: 65%; R=15000; [M+H]+
Name: (+)-Costunolide
Name: Costunolide
Name: (3aS,6E,10E,11aR)-6,10-dimethyl-3-methylidene-3a,4,5,8,9,11a-hexahydrocyclodeca[b]furan-2-one
Formula: C15H20O2
Exact mass: 232.1463
SMILES: C/C/1=C\CC/C(=C/[C@@H]2[C@@H](CC1)C(=C)C(=O)O2)/C
InChI: InChI=1S/C15H20O2/c1-10-5-4-6-11(2)9-14-13(8-7-10)12(3)15(16)17-14/h5,9,13-14H,3-4,6-8H2,1-2H3/b10-5+,11-9+/t13-,14+/m0/s1
Instrument: LTQ Orbitrap XL Thermo Scientific
Instrument type: LC-ESI-ITFT
Ms type: MS2
Ion mode: POSITIVE
Ionization: ESI
Fragmentation mode: HCD
Collision energy: 65% (nominal)
Resolution: 15000
Column name: Kinetex Evo C18 2.6 um 50 x 2.1 mm
Retention time: 11.767 min
Base peak: 116.9858
Precursor m/z: 233.1536
Precursor type: [M+H]+
m/z	relative intensity	assigned
67.0541	116	C5H7+
69.0336	18	C4H5O+
69.0698	66	C5H9+
77.0386	23	C6H5+
79.0543	158	C6H7+
81.0699	401	C6H9+
91.0542	268	C7H7+
93.0699	519	C7H9+
95.0855	467	C7H11+
97.0647	31	C6H9O+
105.0699	760	C8H9+
107.0855	409	C8H11+
109.1012	107	C8H13+
111.0805	39	C7H11O+
117.0698	170	C9H9+
119.0486	36	C8H7O+
119.0855	429	C9H11+
121.0647	47	C8H9O+
121.1011	153	C9H13+
123.0799	24	C8H11O+
129.0698	38	C10H9+
131.0855	943	C10H11+
133.1012	281	C10H13+
135.0439	33	C8H7O2+
135.0804	26	C9H11O+
139.0752	42	C8H11O2+
143.0856	81	C11H11+
144.0927	39	C11H12+
145.1012	999	C11H13+
147.1168	146	C11H15+
149.0598	25	C9H9O2+
149.0963	40	C10H13O+
155.0856	37	C12H11+
157.1013	39	C12H13+
159.0802	95	C11H11O+
159.1168	450	C12H15+
161.1325	228	C12H17+
163.0756	40	C10H11O2+
169.1014	42	C13H13+
171.1171	34	C13H15+
173.0962	42	C12H13O+
173.1324	34	C13H17+
177.0908	78	C11H13O2+
182.109	46	C14H14+
187.1481	990	C14H19+
191.107	35	C12H15O2+
197.1321	57	C15H17+
215.1429	59	C15H19O+
233.1535	36	C15H21O2+
