Mass spectrum: Echimidine; LC-ESI-ITFT; MS2; CE: 100%; R=15000; [M+H]+
Name: Echimidine
Name: [(7R,8R)-7-[(Z)-2-methylbut-2-enoyl]oxy-5,6,7,8-tetrahydro-3H-pyrrolizin-1-yl]methyl (2R)-2,3-dihydroxy-2-[(1S)-1-hydroxyethyl]-3-methylbutanoate
Formula: C20H31NO7
Exact mass: 397.2101
SMILES: C/C=C(/C)\C(=O)O[C@@H]1CCN2[C@@H]1C(=CC2)COC(=O)[C@@]([C@H](C)O)(C(C)(C)O)O
InChI: InChI=1S/C20H31NO7/c1-6-12(2)17(23)28-15-8-10-21-9-7-14(16(15)21)11-27-18(24)20(26,13(3)22)19(4,5)25/h6-7,13,15-16,22,25-26H,8-11H2,1-5H3/b12-6-/t13-,15+,16+,20-/m0/s1
Instrument: LTQ Orbitrap XL Thermo Scientific
Instrument type: LC-ESI-ITFT
Ms type: MS2
Ion mode: POSITIVE
Ionization: ESI
Fragmentation mode: HCD
Collision energy: 100% (nominal)
Resolution: 15000
Column name: Kinetex Evo C18 2.6 um 50 x 2.1 mm
Retention time: 6.463 min
Base peak: 398.217
Precursor m/z: 398.2173
Precursor type: [M+H]+
m/z	relative intensity	assigned
55.0541	65	C4H7+
65.0386	25	C5H5+
67.0416	11	C4H5N+
67.0542	42	C5H7+
68.0494	21	C4H6N+
77.0386	69	C6H5+
79.0543	56	C6H7+
80.0495	147	C5H6N+
81.0573	9	C5H7N+
81.0698	5	C6H9+
82.0652	32	C5H8N+
83.0491	185	C5H7O+
91.0543	142	C7H7+
92.0495	95	C6H6N+
93.0573	34	C6H7N+
93.0699	115	C7H9+
94.0651	134	C6H8N+
95.049	12	C6H7O+
95.0731	14	C6H9N+
96.0807	42	C6H10N+
103.0542	85	C8H7+
104.0496	14	C7H6N+
105.0573	113	C7H7N+
106.0653	16	C7H8N+
107.0733	5	C7H9N+
108.0808	46	C7H10N+
110.06	37	C6H8NO+
110.0962	10	C7H12N+
112.0755	5	C6H10NO+
117.0573	12	C8H7N+
118.0652	118	C8H8N+
119.073	31	C8H9N+
120.0808	999	C8H10N+
121.0885	12	C8H11N+
122.0967	11	C8H12N+
138.0914	44	C8H12NO+
156.1019	10	C8H14NO2+
