Mass spectrum: (+)-Chelidonine; LC-ESI-ITFT; MS2; CE: 45%; R=15000; [M+H]+
Name: (+)-Chelidonine
Name: Chelidonine
Name: (1S,12S,13R)-24-methyl-5,7,18,20-tetraoxa-24-azahexacyclo[11.11.0.02,10.04,8.014,22.017,21]tetracosa-2,4(8),9,14(22),15,17(21)-hexaen-12-ol
Formula: C20H19NO5
Exact mass: 353.1263
SMILES: CN1Cc2c(ccc3c2OCO3)[C@@H]4[C@H]1c5cc6c(cc5C[C@@H]4O)OCO6
InChI: InChI=1S/C20H19NO5/c1-21-7-13-11(2-3-15-20(13)26-9-23-15)18-14(22)4-10-5-16-17(25-8-24-16)6-12(10)19(18)21/h2-3,5-6,14,18-19,22H,4,7-9H2,1H3/t14-,18-,19+/m0/s1
Instrument: LTQ Orbitrap XL Thermo Scientific
Instrument type: LC-ESI-ITFT
Ms type: MS2
Ion mode: POSITIVE
Ionization: ESI
Fragmentation mode: HCD
Collision energy: 45% (nominal)
Resolution: 15000
Column name: Kinetex Evo C18 2.6 um 50 x 2.1 mm
Retention time: 6.949 min
Base peak: 354.1336
Precursor m/z: 354.1336
Precursor type: [M+H]+
m/z	relative intensity	assigned
131.0487	1	C9H7O+
133.0286	1	C8H5O2+
135.044	111	C8H7O2+
143.0491	7	C10H7O+
149.0233	5	C8H5O3+
149.0598	6	C9H9O2+
151.039	5	C8H7O3+
159.0441	11	C10H7O2+
161.0597	50	C10H9O2+
163.0389	91	C9H7O3+
173.0597	20	C11H9O2+
175.0391	5	C10H7O3+
176.0705	23	C10H10NO2+
187.039	7	C11H7O3+
188.0705	42	C11H10NO2+
201.0543	1	C12H9O3+
207.0804	3	C15H11O+
217.0645	10	C16H9O+
219.0802	1	C16H11O+
235.0751	13	C16H11O2+
237.0909	26	C16H13O2+
245.0598	20	C17H9O2+
247.0753	251	C17H11O2+
249.0911	4	C17H13O2+
263.0702	8	C17H11O3+
265.0859	57	C17H13O3+
267.0646	3	C16H11O4+
275.0702	999	C18H11O3+
277.0854	3	C18H13O3+
293.0809	39	C18H13O4+
295.0965	80	C18H15O4+
305.0807	151	C19H13O4+
307.0963	4	C19H15O4+
323.0913	116	C19H15O5+
334.1083	1	C20H16NO4+
336.1229	64	C20H18NO4+
354.1335	53	C20H20NO5+
