Mass spectrum: Artemisinin; LC-ESI-ITFT; MS2; CE: 25%; R=15000; [M+H]+
Name: Artemisinin
Formula: C15H22O5
Exact mass: 282.1467
SMILES: C[C@@H]1CC[C@H]2[C@@H](C)C(=O)O[C@@H]3O[C@@]4(C)CC[C@@H]1[C@@]23OO4
InChI: InChI=1S/C15H22O5/c1-8-4-5-11-9(2)12(16)17-13-15(11)10(8)6-7-14(3,18-13)19-20-15/h8-11,13H,4-7H2,1-3H3/t8-,9-,10+,11+,13-,14-,15-/m1/s1
Instrument: LTQ Orbitrap XL Thermo Scientific
Instrument type: LC-ESI-ITFT
Ms type: MS2
Ion mode: POSITIVE
Ionization: ESI
Fragmentation mode: CID
Collision energy: 25 % (nominal)
Resolution: 15000
Column name: Kinetex Evo C18 2.6 um 50 x 2.1 mm
Retention time: 11.318 min
Base peak: 305.1353
Precursor m/z: 283.154
Precursor type: [M+H]+
m/z	relative intensity	assigned
119.0855	69	C9H11+
121.101	17	C9H13+
125.0961	62	C8H13O+
133.101	20	C10H13+
135.0441	29	C8H7O2+
145.1016	16	C11H13+
149.0962	29	C10H13O+
149.1326	26	C11H17+
151.112	18	C10H15O+
157.0859	60	C8H13O3+
159.1168	40	C12H15+
161.0959	16	C11H13O+
161.133	21	C12H17+
163.1113	19	C11H15O+
173.0965	34	C12H13O+
173.1326	23	C13H17+
177.1274	60	C12H17O+
179.1066	39	C11H15O2+
187.1112	23	C13H15O+
191.1066	32	C12H15O2+
191.1432	19	C13H19O+
195.1382	37	C12H19O2+
201.1273	96	C14H17O+
203.1433	23	C14H19O+
205.1223	231	C13H17O2+
209.1172	76	C12H17O3+
209.1534	20	C13H21O2+
219.1381	108	C14H19O2+
221.1535	23	C14H21O2+
223.1329	113	C13H19O3+
229.1223	70	C15H17O2+
237.1487	84	C14H21O3+
247.133	844	C15H19O3+
265.1436	999	C15H21O4+
