Mass spectrum: 5,7-Dihydroxy-4-phenylcoumarin; LC-ESI-ITFT; MS2; CE: 95%; R=15000; [M+H]+
Name: 5,7-Dihydroxy-4-phenylcoumarin
Name: 5,7-dihydroxy-4-phenylchromen-2-one
Formula: C15H10O4
Exact mass: 254.0579
SMILES: OC1=CC(O)=C2C(OC(=O)C=C2C2=CC=CC=C2)=C1
InChI: InChI=1S/C15H10O4/c16-10-6-12(17)15-11(9-4-2-1-3-5-9)8-14(18)19-13(15)7-10/h1-8,16-17H
Instrument: LTQ Orbitrap XL Thermo Scientific
Instrument type: LC-ESI-ITFT
Ms type: MS2
Ion mode: POSITIVE
Ionization: ESI
Fragmentation mode: HCD
Collision energy: 95% (nominal)
Resolution: 15000
Column name: Kinetex Evo C18 2.6 um 50 x 2.1 mm
Retention time: 9.862 min
Base peak: 116.9858
Precursor m/z: 255.0652
Precursor type: [M+H]+
m/z	relative intensity	assigned
65.0385	49	C5H5+
68.9971	328	C3HO2+
77.0387	183	C6H5+
91.0543	387	C7H7+
103.0543	185	C8H7+
105.0335	283	C7H5O+
115.0543	586	C9H7+
121.0284	192	C7H5O2+
128.0621	493	C10H8+
129.0333	35	C9H5O+
129.0699	183	C10H9+
131.0855	31	C10H11+
139.0543	111	C11H7+
141.0699	242	C11H9+
143.0492	34	C10H7O+
149.0232	84	C8H5O3+
151.0545	57	C12H7+
152.0621	999	C12H8+
153.0183	273	C7H5O4+
153.0699	639	C12H9+
154.0783	38	C12H10+
157.0651	33	C11H9O+
164.0622	206	C13H8+
165.07	738	C13H9+
169.065	49	C12H9O+
171.0441	264	C11H7O2+
181.0649	307	C13H9O+
182.0728	42	C13H10O+
184.0521	73	C12H8O2+
197.0595	86	C13H9O2+
199.0749	52	C13H11O2+
