Mass spectrum: Piperine; LC-ESI-ITFT; MS2; CE: 45%; R=15000; [M+H]+
Name: Piperine
Name: (2E,4E)-5-(1,3-benzodioxol-5-yl)-1-piperidin-1-ylpenta-2,4-dien-1-one
Formula: C17H19NO3
Exact mass: 285.1365
SMILES: O=C(\C=C\C=C\C1=CC2=C(OCO2)C=C1)N1CCCCC1
InChI: InChI=1S/C17H19NO3/c19-17(18-10-4-1-5-11-18)7-3-2-6-14-8-9-15-16(12-14)21-13-20-15/h2-3,6-9,12H,1,4-5,10-11,13H2/b6-2+,7-3+
Instrument: LTQ Orbitrap XL Thermo Scientific
Instrument type: LC-ESI-ITFT
Ms type: MS2
Ion mode: POSITIVE
Ionization: ESI
Fragmentation mode: CID
Collision energy: 45 % (nominal)
Resolution: 15000
Column name: Kinetex Evo C18 2.6 um 50 x 2.1 mm
Retention time: 11.792 min
Base peak: 286.1442
Precursor m/z: 286.1438
Precursor type: [M+H]+
m/z	relative intensity	assigned
84.0808	1	C5H10N+
86.0964	1	C5H12N+
112.0757	6	C6H10NO+
115.0543	3	C9H7+
135.044	49	C8H7O2+
143.0491	7	C10H7O+
150.0913	5	C9H12NO+
151.0992	3	C9H13NO+
159.0439	2	C10H7O2+
171.0441	8	C11H7O2+
173.0596	23	C11H9O2+
185.0964	1	C13H13O+
201.0545	999	C12H9O3+
203.0699	3	C12H11O3+
215.1066	5	C14H15O2+
286.1432	2	C17H20NO3+
