Mass spectrum: Protopin; LC-ESI-ITFT; MS2; CE: 65%; R=15000; [M+H]+
Name: Protopin
Name: Protopine
Name: 15-methyl-7,9,19,21-tetraoxa-15-azapentacyclo[15.7.0.04,12.06,10.018,22]tetracosa-1(17),4,6(10),11,18(22),23-hexaen-3-one
Formula: C20H19NO5
Exact mass: 353.1263
SMILES: CN1CCC2=CC3=C(C=C2C(=O)CC4=C(C1)C5=C(C=C4)OCO5)OCO3
InChI: InChI=1S/C20H19NO5/c1-21-5-4-13-7-18-19(25-10-24-18)8-14(13)16(22)6-12-2-3-17-20(15(12)9-21)26-11-23-17/h2-3,7-8H,4-6,9-11H2,1H3
Instrument: LTQ Orbitrap XL Thermo Scientific
Instrument type: LC-ESI-ITFT
Ms type: MS2
Ion mode: POSITIVE
Ionization: ESI
Fragmentation mode: HCD
Collision energy: 65% (nominal)
Resolution: 15000
Column name: Kinetex Evo C18 2.6 um 50 x 2.1 mm
Retention time: 6.714 min
Base peak: 354.1335
Precursor m/z: 354.1336
Precursor type: [M+H]+
m/z	relative intensity	assigned
79.0542	12	C6H7+
91.0542	44	C7H7+
93.0703	4	C7H9+
103.0543	4	C8H7+
107.0491	62	C7H7O+
109.0647	9	C7H9O+
118.065	8	C8H8N+
119.0491	54	C8H7O+
120.0809	4	C8H10N+
121.0649	3	C8H9O+
131.0491	14	C9H7O+
131.0727	9	C9H9N+
132.0808	9	C9H10N+
135.0441	130	C8H7O2+
137.0597	3	C8H9O2+
143.0494	4	C10H7O+
144.0808	48	C10H10N+
146.0603	9	C9H8NO+
147.0441	65	C9H7O2+
149.0597	385	C9H9O2+
159.0443	22	C10H7O2+
159.0679	54	C10H9NO+
160.0521	3	C10H8O2+
160.0756	24	C10H10NO+
161.0598	17	C10H9O2+
161.0832	2	C10H11NO+
163.039	66	C9H7O3+
165.0547	127	C9H9O3+
167.0855	31	C13H11+
173.0599	12	C11H9O2+
174.0549	14	C10H8NO2+
175.039	71	C10H7O3+
176.0706	27	C10H10NO2+
177.0545	5	C10H9O3+
177.0785	32	C10H11NO2+
178.0863	23	C10H12NO2+
179.0854	35	C14H11+
181.0652	6	C13H9O+
187.039	10	C11H7O3+
188.0706	999	C11H10NO2+
189.0784	864	C11H11NO2+
191.0848	8	C15H11+
193.0647	5	C14H9O+
195.0804	101	C14H11O+
201.0784	4	C12H11NO2+
204.0656	11	C11H10NO3+
205.0645	21	C15H9O+
206.0811	169	C11H12NO3+
207.0801	106	C15H11O+
209.0596	55	C14H9O2+
211.0756	3	C14H11O2+
212.1285	3	C11H18NO3+
217.0647	84	C16H9O+
219.0804	24	C16H11O+
221.0594	2	C15H9O2+
222.0678	5	C15H10O2+
223.0754	35	C15H11O2+
225.091	22	C15H13O2+
233.059	8	C16H9O2+
235.0752	143	C16H11O2+
237.0544	47	C15H9O3+
237.0909	70	C16H13O2+
245.0595	16	C17H9O2+
247.0753	223	C17H11O2+
248.1069	2	C17H14NO+
249.091	13	C17H13O2+
250.0629	3	C16H10O3+
251.0704	7	C16H11O3+
253.0863	11	C16H13O3+
262.0618	3	C17H10O3+
263.0702	40	C17H11O3+
263.0944	5	C17H13NO2+
265.0859	75	C17H13O3+
266.0574	7	C16H10O4+
267.0654	36	C16H11O4+
275.0703	171	C18H11O3+
276.1017	2	C18H14NO2+
277.086	9	C18H13O3+
278.1173	26	C18H16NO2+
279.064	3	C17H11O4+
280.0722	6	C17H12O4+
291.0892	3	C18H13NO3+
292.0739	7	C18H12O4+
293.0807	33	C18H13O4+
295.0961	13	C18H15O4+
304.0967	4	C19H14NO3+
305.0805	9	C19H13O4+
306.1125	12	C19H16NO3+
311.0902	4	C18H15O5+
320.0916	45	C19H14NO4+
321.1	17	C19H15NO4+
323.0908	4	C19H15O5+
334.1073	17	C20H16NO4+
336.1225	16	C20H18NO4+
354.1338	20	C20H20NO5+
