Mass spectrum: Erucifoline; LC-ESI-ITFT; MS2; CE: 85%; R=15000; [M+H]+
Name: Erucifoline
Name: (5R,7S,9Z,12R,18R)-9-ethylidene-7-(hydroxymethyl)-5-methyl-3,6,11-trioxa-15-azatetracyclo[10.5.1.05,7.015,18]octadec-1(17)-ene-4,10-dione
Formula: C18H23NO6
Exact mass: 349.1525
SMILES: C/C=C\1/C[C@@]2([C@@](O2)(C(=O)OCC3=CCN4[C@H]3[C@@H](CC4)OC1=O)C)CO
InChI: InChI=1S/C18H23NO6/c1-3-11-8-18(10-20)17(2,25-18)16(22)23-9-12-4-6-19-7-5-13(14(12)19)24-15(11)21/h3-4,13-14,20H,5-10H2,1-2H3/b11-3-/t13-,14-,17+,18+/m1/s1
Instrument: LTQ Orbitrap XL Thermo Scientific
Instrument type: LC-ESI-ITFT
Ms type: MS2
Ion mode: POSITIVE
Ionization: ESI
Fragmentation mode: HCD
Collision energy: 85% (nominal)
Resolution: 15000
Column name: Kinetex Evo C18 2.6 um 50 x 2.1 mm
Retention time: 0.956 min
Base peak: 143.0015
Precursor m/z: 350.1598
Precursor type: [M+H]+
m/z	relative intensity	assigned
53.0385	22	C4H5+
55.0541	23	C4H7+
65.0386	60	C5H5+
67.0416	61	C4H5N+
67.0542	598	C5H7+
68.0494	203	C4H6N+
69.0335	17	C4H5O+
69.0698	52	C5H9+
77.0386	219	C6H5+
78.0338	21	C5H4N+
79.0543	294	C6H7+
80.0495	432	C5H6N+
81.0334	17	C5H5O+
81.0573	144	C5H7N+
81.0699	174	C6H9+
82.0651	285	C5H8N+
83.0125	30	C4H3O2+
83.0492	119	C5H7O+
83.073	18	C5H9N+
84.0443	33	C4H6NO+
91.0542	471	C7H7+
92.0495	102	C6H6N+
93.0574	91	C6H7N+
93.0699	280	C7H9+
94.0651	999	C6H8N+
95.0491	124	C6H7O+
95.073	73	C6H9N+
95.0855	37	C7H11+
96.0808	520	C6H10N+
97.065	26	C6H9O+
103.0542	178	C8H7+
105.0572	86	C7H7N+
105.0697	61	C8H9+
106.0652	107	C7H8N+
107.0492	15	C7H7O+
107.0732	48	C7H9N+
108.0807	204	C7H10N+
109.0648	192	C7H9O+
109.0884	23	C7H11N+
110.06	49	C6H8NO+
110.0965	144	C7H12N+
111.044	74	C6H7O2+
118.0651	216	C8H8N+
119.073	47	C8H9N+
120.0808	808	C8H10N+
121.0649	41	C8H9O+
121.0886	50	C8H11N+
122.0964	223	C8H12N+
125.06	34	C7H9O2+
136.0757	50	C8H10NO+
138.0914	264	C8H12NO+
146.0967	27	C10H12N+
220.1338	46	C13H18NO2+
