Mass spectrum: Bergapten/Heraclin; LC-ESI-ITFT; MS2; CE: 125%; R=15000; [M+H]+
Name: Bergapten/Heraclin
Formula: C12H8O4
Exact mass: 216.0423
SMILES: COC1=C2C=COC2=CC2=C1C=CC(=O)O2
InChI: InChI=1S/C12H8O4/c1-14-12-7-2-3-11(13)16-10(7)6-9-8(12)4-5-15-9/h2-6H,1H3
Instrument: LTQ Orbitrap XL Thermo Scientific
Instrument type: LC-ESI-ITFT
Ms type: MS2
Ion mode: POSITIVE
Ionization: ESI
Fragmentation mode: HCD
Collision energy: 125 % (nominal)
Resolution: 15000
Column name: Kinetex Evo C18 2.6 um 50 x 2.1 mm
Retention time: 9.930 min
Base peak: 416.3518
Precursor m/z: 217.0495
Precursor type: [M+H]+
m/z	relative intensity	assigned
63.0229	35	C5H3+
64.0308	13	C5H4+
68.9968	7	C3HO2+
74.0151	65	C6H2+
75.0229	10	C6H3+
76.0308	16	C6H4+
77.0022	14	C5HO+
77.0386	59	C6H5+
89.0386	984	C7H5+
90.0464	999	C7H6+
92.0257	66	C6H4O+
99.0231	19	C8H3+
100.0307	177	C8H4+
102.0464	85	C8H6+
103.0542	23	C8H7+
105.0332	7	C7H5O+
107.0489	6	C7H7O+
115.0543	45	C9H7+
117.0334	39	C8H5O+
118.0413	520	C8H6O+
119.0129	12	C7H3O2+
120.0206	12	C7H4O2+
127.0179	29	C9H3O+
128.0255	22	C9H4O+
129.0335	36	C9H5O+
131.0492	29	C9H7O+
145.0284	167	C9H5O2+
146.0362	156	C9H6O2+
156.0206	36	C10H4O2+
173.0233	22	C10H5O3+
174.0311	141	C10H6O3+
202.0255	10	C11H6O4+
