Mass spectrum: 4-Hydroxycoumarin; LC-ESI-ITFT; MS2; CE: 120%; R=15000; [M+H]+
Name: 4-Hydroxycoumarin
Name: 4-hydroxychromen-2-one
Formula: C9H6O3
Exact mass: 162.0317
SMILES: OC1=CC(=O)OC2=CC=CC=C12
InChI: InChI=1S/C9H6O3/c10-7-5-9(11)12-8-4-2-1-3-6(7)8/h1-5,10H
Instrument: LTQ Orbitrap XL Thermo Scientific
Instrument type: LC-ESI-ITFT
Ms type: MS2
Ion mode: POSITIVE
Ionization: ESI
Fragmentation mode: HCD
Collision energy: 120 % (nominal)
Resolution: 15000
Column name: Kinetex Evo C18 2.6 um 50 x 2.1 mm
Retention time: 7.960 min
Base peak: 163.0391
Precursor m/z: 163.039
Precursor type: [M+H]+
m/z	relative intensity	assigned
63.0226	10	C5H3+
65.0383	999	C5H5+
67.0539	6	C5H7+
68.9969	409	C3HO2+
75.0228	16	C6H3+
77.0384	245	C6H5+
79.0541	105	C6H7+
89.0385	71	C7H5+
91.0542	341	C7H7+
93.0334	236	C6H5O+
95.0491	125	C6H7O+
101.0385	6	C8H5+
105.0446	132	C6H5N2+
107.049	13	C7H7O+
111.044	52	C6H7O2+
119.049	3	C8H7O+
121.0283	660	C7H5O2+
121.0394	356	C6H5N2O+
122.0361	2	C7H6O2+
129.0446	15	C8H5N2+
145.0281	3	C9H5O2+
163.0388	11	C9H7O3+
