Mass spectrum: Citrinin; LC-ESI-ITFT; MS2; CE: 90%; R=15000; [M+H]+
Name: Citrinin
Formula: C13H14O5
Exact mass: 250.0841
SMILES: C[C@H]1OC=C2C(O)=C(C(O)=O)C(=O)C(C)=C2[C@@H]1C
InChI: InChI=1S/C13H14O5/c1-5-7(3)18-4-8-9(5)6(2)11(14)10(12(8)15)13(16)17/h4-5,7,15H,1-3H3,(H,16,17)/t5-,7-/m1/s1
Instrument: LTQ Orbitrap XL Thermo Scientific
Instrument type: LC-ESI-ITFT
Ms type: MS2
Ion mode: POSITIVE
Ionization: ESI
Fragmentation mode: HCD
Collision energy: 90 % (nominal)
Resolution: 15000
Column name: Kinetex Evo C18 2.6 um 50 x 2.1 mm
Retention time: 11.909 min
Base peak: 251.0912
Precursor m/z: 251.0914
Precursor type: [M+H]+
m/z	relative intensity	assigned
55.0541	12	C4H7+
65.0385	30	C5H5+
67.0542	120	C5H7+
68.997	58	C3HO2+
77.0386	152	C6H5+
79.0178	84	C5H3O+
79.0542	225	C6H7+
81.0699	48	C6H9+
83.0128	22	C4H3O2+
83.049	14	C5H7O+
91.0542	999	C7H7+
93.0335	15	C6H5O+
93.0698	147	C7H9+
95.0491	43	C6H7O+
95.0855	276	C7H11+
103.0542	89	C8H7+
105.0698	241	C8H9+
107.0127	140	C6H3O2+
107.0491	290	C7H7O+
107.0855	214	C8H11+
109.0647	36	C7H9O+
109.1011	50	C8H13+
115.0542	267	C9H7+
116.062	317	C9H8+
117.0699	159	C9H9+
119.0491	120	C8H7O+
119.0855	583	C9H11+
120.0569	55	C8H8O+
121.028	18	C7H5O2+
121.0648	88	C8H9O+
121.1011	28	C9H13+
122.0726	36	C8H10O+
123.0805	85	C8H11O+
128.0619	76	C10H8+
129.0698	126	C10H9+
131.0488	30	C9H7O+
131.0855	344	C10H11+
132.057	48	C9H8O+
133.0648	95	C9H9O+
134.0725	63	C9H10O+
135.0439	64	C8H7O2+
135.0804	131	C9H11O+
137.0961	100	C9H13O+
141.0699	148	C11H9+
144.057	166	C10H8O+
145.0285	33	C9H5O2+
145.0649	73	C10H9O+
147.0441	129	C9H7O2+
147.0805	186	C10H11O+
148.0519	128	C9H8O2+
149.0232	18	C8H5O3+
149.0597	51	C9H9O2+
149.0963	36	C10H13O+
157.065	15	C11H9O+
159.0805	160	C11H11O+
161.0598	87	C10H9O2+
162.0677	217	C10H10O2+
163.039	59	C9H7O3+
163.0754	69	C10H11O2+
165.0912	9	C10H13O2+
169.0649	93	C12H9O+
172.0519	71	C11H8O2+
173.0603	12	C11H9O2+
175.0391	207	C10H7O3+
176.0467	54	C10H8O3+
177.0181	74	C9H5O4+
177.0548	26	C10H9O3+
185.0596	52	C12H9O2+
187.0756	75	C12H11O2+
189.0548	52	C11H9O3+
190.0625	128	C11H10O3+
191.0703	141	C11H11O3+
195.0287	22	C9H7O5+
200.0473	20	C12H8O3+
203.0338	334	C11H7O4+
203.0707	34	C12H11O3+
204.0417	65	C11H8O4+
205.0859	500	C12H13O3+
209.0809	18	C11H13O4+
215.0703	96	C13H11O3+
218.0573	48	C12H10O4+
233.0807	168	C13H13O4+
