Mass spectrum: Lycorine; LC-ESI-ITFT; MS2; CE: 75%; R=15000; [M+H]+
Name: Lycorine
Name: (1S,17S,18S,19S)-5,7-dioxa-12-azapentacyclo[10.6.1.02,10.04,8.015,19]nonadeca-2,4(8),9,15-tetraene-17,18-diol
Formula: C16H17NO4
Exact mass: 287.1158
SMILES: C1CN2CC3=CC4=C(C=C3[C@H]5[C@H]2C1=C[C@@H]([C@H]5O)O)OCO4
InChI: InChI=1S/C16H17NO4/c18-11-3-8-1-2-17-6-9-4-12-13(21-7-20-12)5-10(9)14(15(8)17)16(11)19/h3-5,11,14-16,18-19H,1-2,6-7H2/t11-,14-,15+,16+/m0/s1
Instrument: LTQ Orbitrap XL Thermo Scientific
Instrument type: LC-ESI-ITFT
Ms type: MS2
Ion mode: POSITIVE
Ionization: ESI
Fragmentation mode: HCD
Collision energy: 75% (nominal)
Resolution: 15000
Column name: Kinetex Evo C18 2.6 um 50 x 2.1 mm
Retention time: 0.623 min
Base peak: 288.1227
Precursor m/z: 288.123
Precursor type: [M+H]+
m/z	relative intensity	assigned
67.0541	7	C5H7+
82.0651	34	C5H8N+
83.0491	40	C5H7O+
91.0542	40	C7H7+
95.0491	78	C6H7O+
106.065	18	C7H8N+
107.0489	6	C7H7O+
111.0678	48	C6H9NO+
112.0756	39	C6H10NO+
119.0491	901	C8H7O+
122.0603	7	C7H8NO+
124.0757	36	C7H10NO+
134.06	33	C8H8NO+
135.044	31	C8H7O2+
136.0519	10	C8H8O2+
147.044	999	C9H7O2+
149.0597	38	C9H9O2+
159.0435	9	C10H7O2+
167.0856	10	C13H11+
169.0883	9	C12H11N+
173.0593	6	C11H9O2+
177.0545	45	C10H9O3+
183.0808	6	C13H11O+
184.1124	10	C13H14N+
194.0965	42	C14H12N+
195.0803	6	C14H11O+
197.0826	9	C13H11NO+
198.0911	5	C13H12NO+
210.0923	5	C14H12NO+
212.1068	18	C14H14NO+
222.0912	33	C15H12NO+
225.0789	14	C14H11NO2+
226.0851	7	C14H12NO2+
237.0788	6	C15H11NO2+
238.086	7	C15H12NO2+
240.1022	13	C15H14NO2+
242.1172	10	C15H16NO2+
250.0858	7	C16H12NO2+
251.093	5	C16H13NO2+
252.1018	8	C16H14NO2+
270.1117	17	C16H16NO3+
