Mass spectrum: alpha-Santonin; LC-ESI-ITFT; MS2; CE: 90%; R=15000; [M+H]+
Name: alpha-Santonin
Name: Santonin
Name: (3S,3aS,5aS,9bS)-3,5a,9-trimethyl-3a,4,5,9b-tetrahydro-3H-benzo[g][1]benzofuran-2,8-dione
Formula: C15H18O3
Exact mass: 246.1256
SMILES: C[C@H]1[C@@H]2CC[C@]3(C=CC(=O)C(=C3[C@H]2OC1=O)C)C
InChI: InChI=1S/C15H18O3/c1-8-10-4-6-15(3)7-5-11(16)9(2)12(15)13(10)18-14(8)17/h5,7-8,10,13H,4,6H2,1-3H3/t8-,10-,13-,15-/m0/s1
Instrument: LTQ Orbitrap XL Thermo Scientific
Instrument type: LC-ESI-ITFT
Ms type: MS2
Ion mode: POSITIVE
Ionization: ESI
Fragmentation mode: HCD
Collision energy: 90% (nominal)
Resolution: 15000
Column name: Kinetex Evo C18 2.6 um 50 x 2.1 mm
Retention time: 8.952 min
Base peak: 116.9858
Precursor m/z: 247.1329
Precursor type: [M+H]+
m/z	relative intensity	assigned
77.0388	8	C6H5+
79.0542	31	C6H7+
91.0542	127	C7H7+
93.0698	6	C7H9+
103.0542	12	C8H7+
105.0699	116	C8H9+
107.0855	21	C8H11+
115.0542	72	C9H7+
116.062	15	C9H8+
117.0699	96	C9H9+
119.0853	11	C9H11+
121.065	5	C8H9O+
121.1016	6	C9H13+
128.062	30	C10H8+
129.0699	123	C10H9+
130.0777	130	C10H10+
131.0855	56	C10H11+
133.1007	7	C10H13+
135.0804	237	C9H11O+
140.0625	8	C11H8+
141.07	24	C11H9+
143.0856	37	C11H11+
144.0571	13	C10H8O+
144.0927	8	C11H12+
145.0649	32	C10H9O+
145.1012	207	C11H13+
146.0726	29	C10H10O+
149.0962	15	C10H13O+
153.0699	53	C12H9+
154.0777	18	C12H10+
155.0856	161	C12H11+
156.0937	4	C12H12+
157.0649	80	C11H9O+
158.0726	999	C11H10O+
159.0805	154	C11H11O+
160.0881	24	C11H12O+
161.0961	19	C11H13O+
171.0805	60	C12H11O+
172.0882	40	C12H12O+
173.0961	382	C12H13O+
174.1039	19	C12H14O+
185.0953	5	C13H13O+
186.1037	39	C13H14O+
201.127	6	C14H17O+
