Mass spectrum: Heliotrine N-oxide; LC-ESI-ITFT; MS2; CE: 75%; R=15000; [M+H]+
Name: Heliotrine N-oxide
Name: [(7S,8R)-7-hydroxy-4-oxido-5,6,7,8-tetrahydro-3H-pyrrolizin-4-ium-1-yl]methyl (2S)-2-hydroxy-2-[(1R)-1-methoxyethyl]-3-methylbutanoate
Formula: C16H27NO6
Exact mass: 329.1838
SMILES: C[C@H]([C@@](C(C)C)(C(=O)OCC1=CC[N+]2([C@H]1[C@H](CC2)O)[O-])O)OC
InChI: InChI=1S/C16H27NO6/c1-10(2)16(20,11(3)22-4)15(19)23-9-12-5-7-17(21)8-6-13(18)14(12)17/h5,10-11,13-14,18,20H,6-9H2,1-4H3/t11-,13+,14-,16+,17?/m1/s1
Instrument: LTQ Orbitrap XL Thermo Scientific
Instrument type: LC-ESI-ITFT
Ms type: MS2
Ion mode: POSITIVE
Ionization: ESI
Fragmentation mode: HCD
Collision energy: 75% (nominal)
Resolution: 15000
Column name: Kinetex Evo C18 2.6 um 50 x 2.1 mm
Retention time: 2.733 min
Base peak: 143.0015
Precursor m/z: 330.1911
Precursor type: [M+H]+
m/z	relative intensity	assigned
59.0491	8	C3H7O+
67.0541	11	C5H7+
68.0494	22	C4H6N+
79.0542	7	C6H7+
80.0495	78	C5H6N+
81.0572	7	C5H7N+
81.0699	18	C6H9+
82.0413	22	C5H6O+
82.0652	30	C5H8N+
83.0491	39	C5H7O+
93.0573	142	C6H7N+
94.0651	250	C6H8N+
96.0444	12	C5H6NO+
96.0806	8	C6H10N+
98.06	28	C5H8NO+
102.0549	53	C4H8NO2+
106.0651	42	C7H8N+
108.0808	45	C7H10N+
110.0601	25	C6H8NO+
111.0678	409	C6H9NO+
112.0756	28	C6H10NO+
124.0757	70	C7H10NO+
126.0908	7	C7H12NO+
128.0707	16	C6H10NO2+
136.0757	93	C8H10NO+
137.0834	45	C8H11NO+
138.0914	128	C8H12NO+
142.0864	7	C7H12NO2+
154.0863	48	C8H12NO2+
155.094	65	C8H13NO2+
172.0968	999	C8H14NO3+
