Mass spectrum: Senecionine N-oxide; LC-ESI-ITFT; MS2; CE: 60%; R=15000; [M+H]+
Name: Senecionine N-oxide
Name: (1R,4Z,6R,7R,17R)-4-ethylidene-7-hydroxy-6,7-dimethyl-14-oxido-2,9-dioxa-14-azoniatricyclo[9.5.1.014,17]heptadec-11-ene-3,8-dione
Formula: C18H25NO6
Exact mass: 351.1682
SMILES: C/C=C\1/C[C@H]([C@@](C(=O)OCC2=CC[N+]3([C@H]2[C@@H](CC3)OC1=O)[O-])(C)O)C
InChI: InChI=1S/C18H25NO6/c1-4-12-9-11(2)18(3,22)17(21)24-10-13-5-7-19(23)8-6-14(15(13)19)25-16(12)20/h4-5,11,14-15,22H,6-10H2,1-3H3/b12-4-/t11-,14-,15-,18-,19?/m1/s1
Instrument: LTQ Orbitrap XL Thermo Scientific
Instrument type: LC-ESI-ITFT
Ms type: MS2
Ion mode: POSITIVE
Ionization: ESI
Fragmentation mode: HCD
Collision energy: 60% (nominal)
Resolution: 15000
Column name: Kinetex Evo C18 2.6 um 50 x 2.1 mm
Retention time: 5.378 min
Base peak: 352.1755
Precursor m/z: 352.1755
Precursor type: [M+H]+
m/z	relative intensity	assigned
53.0384	22	C4H5+
55.0541	8	C4H7+
67.0542	23	C5H7+
68.0495	16	C4H6N+
79.0543	68	C6H7+
80.0495	73	C5H6N+
81.0334	15	C5H5O+
81.0576	11	C5H7N+
81.0699	188	C6H9+
82.0652	24	C5H8N+
83.0491	24	C5H7O+
84.0444	21	C4H6NO+
91.0543	42	C7H7+
93.0573	404	C6H7N+
94.0651	554	C6H8N+
95.073	337	C6H9N+
96.0442	12	C5H6NO+
98.06	48	C5H8NO+
101.0598	7	C5H9O2+
106.0652	171	C7H8N+
107.0491	14	C7H7O+
107.073	14	C7H9N+
107.0856	79	C8H11+
108.0808	189	C7H10N+
109.0648	44	C7H9O+
109.0887	58	C7H11N+
109.1013	32	C8H13+
110.06	27	C6H8NO+
111.068	23	C6H9NO+
112.0757	78	C6H10NO+
117.0575	8	C8H7N+
118.0651	688	C8H8N+
119.073	578	C8H9N+
120.0808	796	C8H10N+
121.0886	176	C8H11N+
122.0964	166	C8H12N+
124.0756	14	C7H10NO+
125.0961	90	C8H13O+
126.0912	16	C7H12NO+
134.097	9	C9H12N+
135.0804	25	C9H11O+
136.0757	999	C8H10NO+
137.0602	12	C8H9O2+
137.0835	114	C8H11NO+
137.0963	15	C9H13O+
138.0913	486	C8H12NO+
139.0754	79	C8H11O2+
146.0963	7	C10H12N+
148.1117	22	C10H14N+
152.1071	49	C9H14NO+
153.0911	106	C9H13O2+
154.0863	187	C8H12NO2+
164.1069	22	C10H14NO+
167.1067	22	C10H15O2+
174.1269	8	C12H16N+
178.1228	69	C11H16NO+
190.1227	18	C12H16NO+
192.1384	18	C12H18NO+
202.1224	23	C13H16NO+
211.1328	39	C12H19O3+
218.1176	40	C13H16NO2+
218.1543	18	C14H20NO+
220.1333	173	C13H18NO2+
246.1488	42	C15H20NO2+
254.1384	26	C13H20NO4+
324.1804	64	C17H26NO5+
352.1756	272	C18H26NO6+
