Mass spectrum: Protopin; LC-ESI-ITFT; MS2; CE: 45%; R=15000; [M+H]+
Name: Protopin
Name: Protopine
Name: 15-methyl-7,9,19,21-tetraoxa-15-azapentacyclo[15.7.0.04,12.06,10.018,22]tetracosa-1(17),4,6(10),11,18(22),23-hexaen-3-one
Formula: C20H19NO5
Exact mass: 353.1263
SMILES: CN1CCC2=CC3=C(C=C2C(=O)CC4=C(C1)C5=C(C=C4)OCO5)OCO3
InChI: InChI=1S/C20H19NO5/c1-21-5-4-13-7-18-19(25-10-24-18)8-14(13)16(22)6-12-2-3-17-20(15(12)9-21)26-11-23-17/h2-3,7-8H,4-6,9-11H2,1H3
Instrument: LTQ Orbitrap XL Thermo Scientific
Instrument type: LC-ESI-ITFT
Ms type: MS2
Ion mode: POSITIVE
Ionization: ESI
Fragmentation mode: HCD
Collision energy: 45% (nominal)
Resolution: 15000
Column name: Kinetex Evo C18 2.6 um 50 x 2.1 mm
Retention time: 6.747 min
Base peak: 354.1337
Precursor m/z: 354.1336
Precursor type: [M+H]+
m/z	relative intensity	assigned
91.0542	6	C7H7+
107.0493	8	C7H7O+
119.0492	14	C8H7O+
135.0441	58	C8H7O2+
144.0811	9	C10H10N+
147.0441	8	C9H7O2+
149.0598	511	C9H9O2+
161.0598	13	C10H9O2+
163.039	13	C9H7O3+
165.0548	258	C9H9O3+
173.0599	4	C11H9O2+
175.0392	69	C10H7O3+
176.0706	17	C10H10NO2+
177.0546	12	C10H9O3+
177.0785	44	C10H11NO2+
178.0865	47	C10H12NO2+
187.039	7	C11H7O3+
188.0707	866	C11H10NO2+
189.0785	999	C11H11NO2+
190.0865	48	C11H12NO2+
192.1019	15	C11H14NO2+
195.0807	35	C14H11O+
204.0657	20	C11H10NO3+
206.0813	232	C11H12NO3+
223.0756	22	C15H11O2+
225.0911	35	C15H13O2+
235.0756	48	C16H11O2+
237.0549	11	C15H9O3+
237.091	17	C16H13O2+
247.0755	82	C17H11O2+
253.0861	29	C16H13O3+
263.0712	16	C17H11O3+
265.0861	83	C17H13O3+
267.0653	55	C16H11O4+
275.0705	187	C18H11O3+
277.0853	6	C18H13O3+
278.1177	17	C18H16NO2+
281.0818	4	C17H13O4+
283.0964	16	C17H15O4+
293.0811	57	C18H13O4+
295.0968	45	C18H15O4+
305.0809	51	C19H13O4+
306.1128	19	C19H16NO3+
307.0967	11	C19H15O4+
311.092	16	C18H15O5+
320.091	9	C19H14NO4+
321.1	24	C19H15NO4+
323.0915	76	C19H15O5+
334.1081	12	C20H16NO4+
336.1234	148	C20H18NO4+
354.1339	886	C20H20NO5+
