Mass spectrum: 5,7-Dihydroxy-4-phenylcoumarin; LC-ESI-ITFT; MS2; CE: 105%; R=15000; [M+H]+
Name: 5,7-Dihydroxy-4-phenylcoumarin
Name: 5,7-dihydroxy-4-phenylchromen-2-one
Formula: C15H10O4
Exact mass: 254.0579
SMILES: OC1=CC(O)=C2C(OC(=O)C=C2C2=CC=CC=C2)=C1
InChI: InChI=1S/C15H10O4/c16-10-6-12(17)15-11(9-4-2-1-3-5-9)8-14(18)19-13(15)7-10/h1-8,16-17H
Instrument: LTQ Orbitrap XL Thermo Scientific
Instrument type: LC-ESI-ITFT
Ms type: MS2
Ion mode: POSITIVE
Ionization: ESI
Fragmentation mode: HCD
Collision energy: 105% (nominal)
Resolution: 15000
Column name: Kinetex Evo C18 2.6 um 50 x 2.1 mm
Retention time: 9.862 min
Base peak: 116.9858
Precursor m/z: 255.0652
Precursor type: [M+H]+
m/z	relative intensity	assigned
65.0385	59	C5H5+
68.9971	344	C3HO2+
77.0386	124	C6H5+
91.0543	377	C7H7+
103.0543	121	C8H7+
105.0334	78	C7H5O+
115.0542	602	C9H7+
121.0285	141	C7H5O2+
127.054	44	C10H7+
128.0621	459	C10H8+
129.0336	42	C9H5O+
129.07	106	C10H9+
131.0487	37	C9H7O+
139.054	114	C11H7+
141.0698	111	C11H9+
151.054	81	C12H7+
152.0621	999	C12H8+
153.0182	132	C7H5O4+
153.0699	396	C12H9+
163.0548	43	C13H7+
164.0623	203	C13H8+
165.0699	431	C13H9+
169.0653	39	C12H9O+
171.044	66	C11H7O2+
181.0647	185	C13H9O+
184.0516	56	C12H8O2+
197.0601	84	C13H9O2+
