Mass spectrum: Retrorsine; LC-ESI-ITFT; MS2; CE: 95%; R=15000; [M+H]+
Name: Retrorsine
Name: (1R,4Z,6R,7S,17R)-4-ethylidene-7-hydroxy-7-(hydroxymethyl)-6-methyl-2,9-dioxa-14-azatricyclo[9.5.1.014,17]heptadec-11-ene-3,8-dione
Formula: C18H25NO6
Exact mass: 351.1682
SMILES: C/C=C\1/C[C@H]([C@@](C(=O)OCC2=CCN3[C@H]2[C@@H](CC3)OC1=O)(CO)O)C
InChI: InChI=1S/C18H25NO6/c1-3-12-8-11(2)18(23,10-20)17(22)24-9-13-4-6-19-7-5-14(15(13)19)25-16(12)21/h3-4,11,14-15,20,23H,5-10H2,1-2H3/b12-3-/t11-,14-,15-,18-/m1/s1
Instrument: LTQ Orbitrap XL Thermo Scientific
Instrument type: LC-ESI-ITFT
Ms type: MS2
Ion mode: POSITIVE
Ionization: ESI
Fragmentation mode: HCD
Collision energy: 95% (nominal)
Resolution: 15000
Column name: Kinetex Evo C18 2.6 um 50 x 2.1 mm
Retention time: 1.527 min
Base peak: 143.0015
Precursor m/z: 352.1755
Precursor type: [M+H]+
m/z	relative intensity	assigned
65.0386	67	C5H5+
67.0417	51	C4H5N+
67.0542	534	C5H7+
68.0494	142	C4H6N+
77.0386	166	C6H5+
78.0335	31	C5H4N+
79.0542	322	C6H7+
80.0495	404	C5H6N+
81.0573	113	C5H7N+
81.0699	273	C6H9+
82.0652	244	C5H8N+
83.049	43	C5H7O+
84.0441	49	C4H6NO+
91.0542	508	C7H7+
92.0493	49	C6H6N+
93.0572	114	C6H7N+
93.0698	288	C7H9+
94.0651	999	C6H8N+
95.0491	57	C6H7O+
95.0728	34	C6H9N+
95.0855	290	C7H11+
96.0807	265	C6H10N+
103.0542	164	C8H7+
105.0698	173	C8H9+
106.0653	101	C7H8N+
107.0726	50	C7H9N+
108.0808	249	C7H10N+
109.0645	43	C7H9O+
110.0597	59	C6H8NO+
110.0963	65	C7H12N+
118.0651	180	C8H8N+
119.0728	41	C8H9N+
120.0808	552	C8H10N+
122.0963	106	C8H12N+
123.0806	67	C8H11O+
136.0754	65	C8H10NO+
138.0914	154	C8H12NO+
151.0757	33	C9H11O2+
