Mass spectrum: 7-Acetyllycopsamine; LC-ESI-ITFT; MS2; CE: 90%; R=15000; [M+H]+
Name: 7-Acetyllycopsamine
Name: Acetyllycopsamine
Name: [(7R,8R)-7-acetyloxy-5,6,7,8-tetrahydro-3H-pyrrolizin-1-yl]methyl (2S)-2-hydroxy-2-[(1S)-1-hydroxyethyl]-3-methylbutanoate
Formula: C17H27NO6
Exact mass: 341.1838
SMILES: C[C@@H]([C@@](C(C)C)(C(=O)OCC1=CCN2[C@H]1[C@@H](CC2)OC(=O)C)O)O
InChI: InChI=1S/C17H27NO6/c1-10(2)17(22,11(3)19)16(21)23-9-13-5-7-18-8-6-14(15(13)18)24-12(4)20/h5,10-11,14-15,19,22H,6-9H2,1-4H3/t11-,14+,15+,17-/m0/s1
Instrument: LTQ Orbitrap XL Thermo Scientific
Instrument type: LC-ESI-ITFT
Ms type: MS2
Ion mode: POSITIVE
Ionization: ESI
Fragmentation mode: HCD
Collision energy: 90% (nominal)
Resolution: 15000
Column name: Kinetex Evo C18 2.6 um 50 x 2.1 mm
Retention time: 2.569 min
Base peak: 143.0015
Precursor m/z: 342.1911
Precursor type: [M+H]+
m/z	relative intensity	assigned
65.0385	8	C5H5+
67.0416	22	C4H5N+
67.0542	34	C5H7+
68.0495	28	C4H6N+
73.0645	9	C4H9O+
77.0386	53	C6H5+
79.0543	34	C6H7+
80.0495	132	C5H6N+
81.0699	16	C6H9+
82.0652	27	C5H8N+
86.06	28	C4H8NO+
91.0543	114	C7H7+
92.0495	58	C6H6N+
93.0573	25	C6H7N+
93.0699	116	C7H9+
94.0652	270	C6H8N+
95.073	41	C6H9N+
96.0807	31	C6H10N+
103.0542	76	C8H7+
105.0573	59	C7H7N+
106.065	19	C7H8N+
108.0808	88	C7H10N+
110.0601	28	C6H8NO+
110.0965	15	C7H12N+
112.0756	18	C6H10NO+
118.0652	99	C8H8N+
119.073	56	C8H9N+
120.0808	999	C8H10N+
121.0886	58	C8H11N+
128.0708	26	C6H10NO2+
138.0913	91	C8H12NO+
156.1021	16	C8H14NO2+
198.1125	48	C10H16NO3+
