Mass spectrum: Galantamine; LC-ESI-ITFT; MS2; CE: 105%; R=15000; [M+H]+
Name: Galantamine
Formula: C17H21NO3
Exact mass: 287.1521
SMILES: CN1CCC23C=CC(CC2OC4=C(C=CC(=C34)C1)OC)O
InChI: InChI=1S/C17H21NO3/c1-18-8-7-17-6-5-12(19)9-14(17)21-16-13(20-2)4-3-11(10-18)15(16)17/h3-6,12,14,19H,7-10H2,1-2H3
Instrument: LTQ Orbitrap XL Thermo Scientific
Instrument type: LC-ESI-ITFT
Ms type: MS2
Ion mode: POSITIVE
Ionization: ESI
Fragmentation mode: HCD
Collision energy: 105 % (nominal)
Resolution: 15000
Column name: Kinetex Evo C18 2.6 um 50 x 2.1 mm
Retention time: 0.643 min
Base peak: 288.1592
Precursor m/z: 288.1594
Precursor type: [M+H]+
m/z	relative intensity	assigned
77.0385	37	C6H5+
79.0542	58	C6H7+
91.0542	120	C7H7+
103.0542	79	C8H7+
105.0698	128	C8H9+
115.0542	94	C9H7+
116.062	26	C9H8+
117.0698	59	C9H9+
119.0495	12	C8H7O+
127.0539	24	C10H7+
128.062	200	C10H8+
129.0698	96	C10H9+
131.0491	72	C9H7O+
132.057	26	C9H8O+
132.0808	17	C9H10N+
135.0805	96	C9H11O+
139.0545	16	C11H7+
141.0698	305	C11H9+
142.0776	170	C11H10+
144.0567	39	C10H8O+
145.0648	134	C10H9O+
146.0727	57	C10H10O+
147.0444	26	C9H7O2+
152.062	221	C12H8+
153.0699	196	C12H9+
154.078	37	C12H10+
155.0491	655	C11H7O+
157.065	26	C11H9O+
159.0806	58	C11H11O+
160.052	20	C10H8O2+
161.0592	16	C10H9O2+
165.0699	175	C13H9+
166.0777	69	C13H10+
168.0569	76	C12H8O+
169.0648	570	C12H9O+
170.0726	207	C12H10O+
171.08	12	C12H11O+
173.0596	24	C11H9O2+
175.0749	20	C11H11O2+
178.0776	43	C14H10+
179.0854	19	C14H11+
181.0648	543	C13H9O+
182.0725	247	C13H10O+
183.044	999	C12H7O2+
184.0522	23	C12H8O2+
186.0675	11	C12H10O2+
189.0696	18	C15H9+
197.0597	239	C13H9O2+
198.0675	584	C13H10O2+
207.0801	9	C15H11O+
210.0682	12	C14H10O2+
211.075	11	C14H11O2+
213.0909	20	C14H13O2+
