Mass spectrum: Pterosin A; LC-ESI-ITFT; MS2; CE: 110%; R=15000; [M+H]+
Name: Pterosin A
Name: (2S)-6-(2-hydroxyethyl)-2-(hydroxymethyl)-2,5,7-trimethyl-3H-inden-1-one
Formula: C15H20O3
Exact mass: 248.1412
SMILES: CC1=CC2=C(C(=C1CCO)C)C(=O)[C@](C2)(C)CO
InChI: InChI=1S/C15H20O3/c1-9-6-11-7-15(3,8-17)14(18)13(11)10(2)12(9)4-5-16/h6,16-17H,4-5,7-8H2,1-3H3/t15-/m0/s1
Instrument: LTQ Orbitrap XL Thermo Scientific
Instrument type: LC-ESI-ITFT
Ms type: MS2
Ion mode: POSITIVE
Ionization: ESI
Fragmentation mode: HCD
Collision energy: 110 % (nominal)
Resolution: 15000
Column name: Kinetex Evo C18 2.6 um 50 x 2.1 mm
Retention time: 9.267 min
Base peak: 249.1477
Precursor m/z: 249.1485
Precursor type: [M+H]+
m/z	relative intensity	assigned
77.0384	22	C6H5+
79.0542	16	C6H7+
91.0541	70	C7H7+
103.0539	12	C8H7+
105.0696	79	C8H9+
115.0539	73	C9H7+
116.0621	17	C9H8+
117.0697	24	C9H9+
119.0853	56	C9H11+
128.0619	171	C10H8+
129.0696	226	C10H9+
130.0774	31	C10H10+
131.0853	23	C10H11+
132.093	9	C10H12+
133.101	31	C10H13+
141.0696	425	C11H9+
142.0774	428	C11H10+
143.0853	129	C11H11+
144.0933	28	C11H12+
145.1008	12	C11H13+
152.0614	18	C12H8+
153.0696	112	C12H9+
154.0774	77	C12H10+
155.0853	999	C12H11+
156.0931	70	C12H12+
157.1009	114	C12H13+
165.0694	27	C13H9+
167.0857	12	C13H11+
168.0931	13	C13H12+
169.1009	103	C13H13+
170.1088	128	C13H14+
171.08	13	C12H11O+
183.0802	20	C13H11O+
185.0958	28	C13H13O+
