Mass spectrum: Senkirkine; LC-ESI-ITFT; MS2; CE: 85%; R=15000; [M+H]+
Name: Senkirkine
Name: (1R,4Z,6R,7R,11Z)-4-ethylidene-7-hydroxy-6,7,14-trimethyl-2,9-dioxa-14-azabicyclo[9.5.1]heptadec-11-ene-3,8,17-trione
Formula: C19H27NO6
Exact mass: 365.1838
SMILES: C/C=C\1/C[C@H]([C@@](C(=O)OC/C/2=C/CN(CC[C@H](C2=O)OC1=O)C)(C)O)C
InChI: InChI=1S/C19H27NO6/c1-5-13-10-12(2)19(3,24)18(23)25-11-14-6-8-20(4)9-7-15(16(14)21)26-17(13)22/h5-6,12,15,24H,7-11H2,1-4H3/b13-5-,14-6-/t12-,15-,19-/m1/s1
Instrument: LTQ Orbitrap XL Thermo Scientific
Instrument type: LC-ESI-ITFT
Ms type: MS2
Ion mode: POSITIVE
Ionization: ESI
Fragmentation mode: HCD
Collision energy: 85% (nominal)
Resolution: 15000
Column name: Kinetex Evo C18 2.6 um 50 x 2.1 mm
Retention time: 6.359 min
Base peak: 366.1908
Precursor m/z: 366.1911
Precursor type: [M+H]+
m/z	relative intensity	assigned
53.0384	8	C4H5+
55.0541	16	C4H7+
57.9924	4	CNO2+
65.0385	7	C5H5+
67.0541	84	C5H7+
68.0493	9	C4H6N+
69.0335	25	C4H5O+
69.0698	15	C5H9+
70.065	916	C4H8N+
71.0491	5	C4H7O+
73.0647	8	C4H9O+
77.0385	89	C6H5+
79.0542	380	C6H7+
80.0494	7	C5H6N+
81.0335	19	C5H5O+
81.0572	15	C5H7N+
81.0698	134	C6H9+
82.0651	52	C5H8N+
83.013	8	C4H3O2+
83.0491	72	C5H7O+
83.0728	6	C5H9N+
84.0807	5	C5H10N+
91.0542	150	C7H7+
93.0572	11	C6H7N+
93.0699	24	C7H9+
94.065	545	C6H8N+
95.049	144	C6H7O+
95.0728	13	C6H9N+
96.0807	122	C6H10N+
97.0283	12	C5H5O2+
97.0647	81	C6H9O+
98.06	62	C5H8NO+
99.0439	8	C5H7O2+
101.0596	47	C5H9O2+
105.0698	44	C8H9+
106.0651	14	C7H8N+
107.049	312	C7H7O+
107.0729	98	C7H9N+
107.0854	290	C8H11+
108.0807	33	C7H10N+
109.0647	49	C7H9O+
109.101	37	C8H13+
110.0599	358	C6H8NO+
111.044	12	C6H7O2+
111.0804	11	C7H11O+
112.0755	31	C6H10NO+
115.0542	7	C9H7+
116.0708	16	C5H10NO2+
117.0571	15	C8H7N+
117.0696	14	C9H9+
120.0808	47	C8H10N+
121.0884	9	C8H11N+
122.0599	628	C7H8NO+
122.0963	153	C8H12N+
123.0678	65	C7H9NO+
124.0755	63	C7H10NO+
125.0596	102	C7H9O2+
125.0835	15	C7H11NO+
125.096	95	C8H13O+
132.0805	15	C9H10N+
135.0672	6	C8H9NO+
135.0803	69	C9H11O+
137.0834	33	C8H11NO+
138.0911	13	C8H12NO+
140.0705	562	C7H10NO2+
148.0755	12	C9H10NO+
150.0912	104	C9H12NO+
168.1018	999	C9H14NO2+
