Mass spectrum: Jacobine N-oxide; LC-ESI-ITFT; MS2; CE: 80%; R=15000; [M+H]+
Name: Jacobine N-oxide
Name: (1R,3`S,4S,6R,7R,17R)-7-hydroxy-3`,6,7-trimethyl-14-oxidospiro[2,9-dioxa-14-azoniatricyclo[9.5.1.014,17]heptadec-11-ene-4,2`-oxirane]-3,8-dione
Formula: C18H25NO7
Exact mass: 367.1631
SMILES: C[C@@H]1C[C@]2([C@@H](O2)C)C(=O)O[C@@H]3CC[N+]4([C@@H]3C(=CC4)COC(=O)[C@]1(C)O)[O-]
InChI: InChI=1S/C18H25NO7/c1-10-8-18(11(2)26-18)16(21)25-13-5-7-19(23)6-4-12(14(13)19)9-24-15(20)17(10,3)22/h4,10-11,13-14,22H,5-9H2,1-3H3/t10-,11+,13-,14-,17-,18+,19?/m1/s1
Instrument: LTQ Orbitrap XL Thermo Scientific
Instrument type: LC-ESI-ITFT
Ms type: MS2
Ion mode: POSITIVE
Ionization: ESI
Fragmentation mode: HCD
Collision energy: 80% (nominal)
Resolution: 15000
Column name: Kinetex Evo C18 2.6 um 50 x 2.1 mm
Retention time: 1.283 min
Base peak: 368.1701
Precursor m/z: 368.1704
Precursor type: [M+H]+
m/z	relative intensity	assigned
67.0542	44	C5H7+
68.0495	24	C4H6N+
69.0697	14	C5H9+
77.0386	68	C6H5+
79.0542	73	C6H7+
80.0495	136	C5H6N+
81.0334	13	C5H5O+
81.0575	14	C5H7N+
81.0698	22	C6H9+
82.0653	23	C5H8N+
91.0543	135	C7H7+
92.0494	27	C6H6N+
93.0574	243	C6H7N+
93.0699	60	C7H9+
94.0651	343	C6H8N+
95.0491	35	C6H7O+
95.073	103	C6H9N+
96.0808	36	C6H10N+
103.0541	17	C8H7+
105.0701	17	C8H9+
106.0651	138	C7H8N+
107.073	24	C7H9N+
108.0808	71	C7H10N+
110.0598	25	C6H8NO+
110.0969	14	C7H12N+
113.0598	52	C6H9O2+
117.0575	13	C8H7N+
118.0651	229	C8H8N+
119.073	171	C8H9N+
120.0808	999	C8H10N+
121.0887	87	C8H11N+
122.0964	81	C8H12N+
124.076	22	C7H10NO+
132.0808	16	C9H10N+
134.0967	18	C9H12N+
136.0758	70	C8H10NO+
138.0914	50	C8H12NO+
139.0995	18	C8H13NO+
140.1072	11	C8H14NO+
148.0751	16	C9H10NO+
156.1021	28	C8H14NO2+
162.0912	49	C10H12NO+
174.128	14	C12H16N+
190.1225	11	C12H16NO+
