Mass spectrum: (+)-Isocorydin; LC-ESI-ITFT; MS2; CE: 95%; R=15000; [M+H]+
Name: (+)-Isocorydin
Name: Isocorydine
Name: (6aS)-1,2,10-trimethoxy-6-methyl-5,6,6a,7-tetrahydro-4H-dibenzo[de,g]quinolin-11-ol
Formula: C20H23NO4
Exact mass: 341.1627
SMILES: CN1CCC2=CC(=C(C3=C2[C@@H]1CC4=C3C(=C(C=C4)OC)O)OC)OC
InChI: InChI=1S/C20H23NO4/c1-21-8-7-12-10-15(24-3)20(25-4)18-16(12)13(21)9-11-5-6-14(23-2)19(22)17(11)18/h5-6,10,13,22H,7-9H2,1-4H3/t13-/m0/s1
Instrument: LTQ Orbitrap XL Thermo Scientific
Instrument type: LC-ESI-ITFT
Ms type: MS2
Ion mode: POSITIVE
Ionization: ESI
Fragmentation mode: HCD
Collision energy: 95% (nominal)
Resolution: 15000
Column name: Kinetex Evo C18 2.6 um 50 x 2.1 mm
Retention time: 6.279 min
Base peak: 342.1699
Precursor m/z: 342.17
Precursor type: [M+H]+
m/z	relative intensity	assigned
141.0702	17	C11H9+
152.0621	84	C12H8+
153.0698	90	C12H9+
154.0778	48	C12H10+
164.0619	21	C13H8+
165.0699	861	C13H9+
166.0777	195	C13H10+
167.0497	11	C12H7O+
167.0855	64	C13H11+
168.0571	18	C12H8O+
169.065	13	C12H9O+
176.0619	67	C14H8+
177.0699	198	C14H9+
178.0777	859	C14H10+
179.0855	666	C14H11+
180.0934	101	C14H12+
181.0648	141	C13H9O+
182.0726	140	C13H10O+
183.0805	13	C13H11O+
189.0699	595	C15H9+
190.0776	575	C15H10+
191.0854	764	C15H11+
192.0569	118	C14H8O+
192.0938	39	C15H12+
193.0647	669	C14H9O+
194.0725	486	C14H10O+
195.0804	79	C14H11O+
196.051	21	C13H8O2+
196.0879	14	C14H12O+
197.0589	14	C13H9O2+
197.0961	48	C14H13O+
200.0625	13	C16H8+
201.0697	61	C16H9+
202.0776	182	C16H10+
203.0855	82	C16H11+
204.0566	35	C15H8O+
205.0646	461	C15H9O+
206.0725	477	C15H10O+
207.0803	845	C15H11O+
208.0519	9	C14H8O2+
208.0883	174	C15H12O+
209.0594	95	C14H9O2+
209.096	207	C15H13O+
210.0673	277	C14H10O2+
217.0647	114	C16H9O+
218.0725	214	C16H10O+
219.0804	471	C16H11O+
220.0517	82	C15H8O2+
220.0888	39	C16H12O+
221.0596	543	C15H9O2+
221.0963	40	C16H13O+
222.0674	412	C15H10O2+
223.0753	64	C15H11O2+
224.0831	31	C15H12O2+
225.0909	106	C15H13O2+
226.0624	26	C14H10O3+
231.0803	197	C17H11O+
233.0597	108	C16H9O2+
233.0967	9	C17H13O+
234.0673	69	C16H10O2+
235.0752	510	C16H11O2+
236.0831	483	C16H12O2+
237.0545	78	C15H9O3+
237.0908	478	C16H13O2+
238.0622	999	C15H10O3+
245.0606	19	C17H9O2+
246.0667	35	C17H10O2+
247.0752	726	C17H11O2+
248.0834	59	C17H12O2+
249.0545	46	C16H9O3+
249.0912	15	C17H13O2+
250.0623	44	C16H10O3+
251.0694	16	C16H11O3+
252.0774	15	C16H12O3+
253.0858	348	C16H13O3+
263.0701	85	C17H11O3+
264.078	58	C17H12O3+
265.0858	170	C17H13O3+
281.0817	16	C17H13O4+
