Mass spectrum: Yohimbine; LC-ESI-ITFT; MS2; CE: 70%; R=15000; [M+H]+
Name: Yohimbine
Name: methyl (1S,15R,18S,19R,20S)-18-hydroxy-1,3,11,12,14,15,16,17,18,19,20,21-dodecahydroyohimban-19-carboxylate
Formula: C21H26N2O3
Exact mass: 354.1943
SMILES: COC(=O)[C@H]1[C@H](CC[C@@H]2[C@@H]1C[C@H]3c4c(c5ccccc5[nH]4)CCN3C2)O
InChI: InChI=1S/C21H26N2O3/c1-26-21(25)19-15-10-17-20-14(13-4-2-3-5-16(13)22-20)8-9-23(17)11-12(15)6-7-18(19)24/h2-5,12,15,17-19,22,24H,6-11H2,1H3/t12-,15-,17-,18-,19+/m0/s1
Instrument: LTQ Orbitrap XL Thermo Scientific
Instrument type: LC-ESI-ITFT
Ms type: MS2
Ion mode: POSITIVE
Ionization: ESI
Fragmentation mode: HCD
Collision energy: 70% (nominal)
Resolution: 15000
Column name: Kinetex Evo C18 2.6 um 50 x 2.1 mm
Retention time: 6.550 min
Base peak: 355.2014
Precursor m/z: 355.2016
Precursor type: [M+H]+
m/z	relative intensity	assigned
79.0543	2	C6H7+
80.0497	1	C5H6N+
91.0543	6	C7H7+
93.0698	2	C7H9+
94.0652	8	C6H8N+
105.0699	6	C8H9+
106.0652	12	C7H8N+
107.0856	3	C8H11+
115.0542	4	C9H7+
117.0699	69	C9H9+
118.0652	3	C8H8N+
119.0494	1	C8H7O+
119.0854	3	C9H11+
120.0809	2	C8H10N+
128.0494	2	C9H6N+
129.0701	3	C10H9+
130.0652	15	C9H8N+
131.0726	2	C9H9N+
131.0858	1	C10H11+
132.0808	5	C9H10N+
134.0964	50	C9H12N+
135.0806	1	C9H11O+
138.0908	2	C8H12NO+
143.073	27	C10H9N+
144.0808	999	C10H10N+
145.065	3	C10H9O+
146.0963	3	C10H12N+
152.107	2	C9H14NO+
155.0605	13	C10H7N2+
156.0806	5	C11H10N+
157.0887	4	C11H11N+
158.0965	14	C11H12N+
162.0914	21	C10H12NO+
168.0808	5	C12H10N+
169.0888	1	C12H11N+
170.0965	4	C12H12N+
180.0807	3	C13H10N+
180.1018	12	C10H14NO2+
182.0966	3	C13H12N+
192.1022	4	C11H14NO2+
194.0965	3	C14H12N+
194.1176	23	C11H16NO2+
206.0971	3	C15H12N+
207.1038	1	C15H13N+
208.1119	3	C15H14N+
209.1199	2	C15H15N+
212.1281	32	C11H18NO3+
218.0972	1	C16H12N+
220.1123	4	C16H14N+
221.119	1	C16H15N+
224.1279	9	C12H18NO3+
231.1053	1	C17H13N+
232.1118	3	C17H14N+
233.1198	2	C17H15N+
234.1281	4	C17H16N+
246.1283	2	C18H16N+
248.1432	6	C18H18N+
260.1428	3	C19H18N+
