Mass spectrum: Erucifoline; LC-ESI-ITFT; MS2; CE: 95%; R=15000; [M+H]+
Name: Erucifoline
Name: (5R,7S,9Z,12R,18R)-9-ethylidene-7-(hydroxymethyl)-5-methyl-3,6,11-trioxa-15-azatetracyclo[10.5.1.05,7.015,18]octadec-1(17)-ene-4,10-dione
Formula: C18H23NO6
Exact mass: 349.1525
SMILES: C/C=C\1/C[C@@]2([C@@](O2)(C(=O)OCC3=CCN4[C@H]3[C@@H](CC4)OC1=O)C)CO
InChI: InChI=1S/C18H23NO6/c1-3-11-8-18(10-20)17(2,25-18)16(22)23-9-12-4-6-19-7-5-13(14(12)19)24-15(11)21/h3-4,13-14,20H,5-10H2,1-2H3/b11-3-/t13-,14-,17+,18+/m1/s1
Instrument: LTQ Orbitrap XL Thermo Scientific
Instrument type: LC-ESI-ITFT
Ms type: MS2
Ion mode: POSITIVE
Ionization: ESI
Fragmentation mode: HCD
Collision energy: 95% (nominal)
Resolution: 15000
Column name: Kinetex Evo C18 2.6 um 50 x 2.1 mm
Retention time: 0.956 min
Base peak: 143.0015
Precursor m/z: 350.1598
Precursor type: [M+H]+
m/z	relative intensity	assigned
65.0386	102	C5H5+
67.0416	100	C4H5N+
67.0542	703	C5H7+
68.0495	199	C4H6N+
69.0337	17	C4H5O+
69.0698	42	C5H9+
77.0386	283	C6H5+
79.0542	322	C6H7+
80.0495	498	C5H6N+
81.0573	167	C5H7N+
81.0699	183	C6H9+
82.0651	284	C5H8N+
83.0492	97	C5H7O+
91.0542	525	C7H7+
92.0494	87	C6H6N+
93.0573	152	C6H7N+
93.0699	220	C7H9+
94.0651	999	C6H8N+
95.049	75	C6H7O+
95.0729	81	C6H9N+
95.0854	36	C7H11+
96.0808	357	C6H10N+
103.0542	152	C8H7+
105.0573	92	C7H7N+
105.07	57	C8H9+
106.0652	101	C7H8N+
107.0729	55	C7H9N+
108.0807	203	C7H10N+
109.0648	176	C7H9O+
110.0603	34	C6H8NO+
110.0964	75	C7H12N+
111.0441	54	C6H7O2+
117.0577	22	C8H7N+
118.0651	207	C8H8N+
119.0725	31	C8H9N+
120.0808	603	C8H10N+
121.0649	32	C8H9O+
121.0884	40	C8H11N+
122.0965	138	C8H12N+
125.0599	18	C7H9O2+
138.0913	108	C8H12NO+
