Mass spectrum: Conessine; LC-ESI-ITFT; MS2; CE: 40%; R=15000; [M+H]+
Name: Conessine
Formula: C24H40N2
Exact mass: 356.3191
SMILES: C[C@H]1[C@H]2CC[C@H]3[C@@H]4CC=C5C[C@H](CC[C@]5(C)[C@H]4CC[C@]23CN1C)N(C)C
InChI: InChI=1S/C24H40N2/c1-16-20-8-9-22-19-7-6-17-14-18(25(3)4)10-12-23(17,2)21(19)11-13-24(20,22)15-26(16)5/h6,16,18-22H,7-15H2,1-5H3/t16-,18-,19+,20+,21-,22-,23-,24-/m0/s1
Instrument: LTQ Orbitrap XL Thermo Scientific
Instrument type: LC-ESI-ITFT
Ms type: MS2
Ion mode: POSITIVE
Ionization: ESI
Fragmentation mode: CID
Collision energy: 40 % (nominal)
Resolution: 15000
Column name: Kinetex Evo C18 2.6 um 50 x 2.1 mm
Retention time: 5.555 min
Base peak: 179.1667
Precursor m/z: 357.3264
Precursor type: [M+H]+
m/z	relative intensity	assigned
91.0546	1	C7H7+
105.0699	15	C8H9+
107.0855	3	C8H11+
109.1012	4	C8H13+
115.0543	6	C9H7+
117.0699	16	C9H9+
119.0856	23	C9H11+
121.1012	7	C9H13+
123.117	2	C9H15+
128.0619	3	C10H8+
129.07	9	C10H9+
130.0782	1	C10H10+
131.0855	33	C10H11+
133.1012	26	C10H13+
135.1169	13	C10H15+
141.0704	1	C11H9+
142.0776	1	C11H10+
143.0856	10	C11H11+
144.0936	4	C11H12+
145.1012	42	C11H13+
147.1169	69	C11H15+
149.1325	7	C11H17+
157.1013	16	C12H13+
159.1169	150	C12H15+
161.1326	123	C12H17+
163.1476	1	C12H19+
169.1014	3	C13H13+
171.1169	17	C13H15+
173.1326	77	C13H17+
175.1483	12	C13H19+
183.1169	3	C14H15+
185.1326	19	C14H17+
187.1483	87	C14H19+
189.1642	3	C14H21+
197.1326	4	C15H17+
199.1482	27	C15H19+
200.1558	3	C15H20+
201.164	12	C15H21+
211.1479	5	C16H19+
213.1638	26	C16H21+
215.1797	1	C16H23+
225.1639	5	C17H21+
227.1795	21	C17H23+
239.1795	3	C18H23+
240.1874	4	C18H24+
241.1946	3	C18H25+
253.1947	2	C19H25+
269.2264	208	C20H29+
281.2264	4	C21H29+
298.2529	5	C21H32N+
299.2609	10	C21H33N+
312.2686	999	C22H34N+
314.285	3	C22H36N+
326.2844	6	C23H36N+
357.3265	67	C24H41N2+
