Mass spectrum: Citrinin; LC-ESI-ITFT; MS2; CE: 105%; R=15000; [M+H]+
Name: Citrinin
Formula: C13H14O5
Exact mass: 250.0841
SMILES: C[C@H]1OC=C2C(O)=C(C(O)=O)C(=O)C(C)=C2[C@@H]1C
InChI: InChI=1S/C13H14O5/c1-5-7(3)18-4-8-9(5)6(2)11(14)10(12(8)15)13(16)17/h4-5,7,15H,1-3H3,(H,16,17)/t5-,7-/m1/s1
Instrument: LTQ Orbitrap XL Thermo Scientific
Instrument type: LC-ESI-ITFT
Ms type: MS2
Ion mode: POSITIVE
Ionization: ESI
Fragmentation mode: HCD
Collision energy: 105 % (nominal)
Resolution: 15000
Column name: Kinetex Evo C18 2.6 um 50 x 2.1 mm
Retention time: 11.916 min
Base peak: 251.0913
Precursor m/z: 251.0914
Precursor type: [M+H]+
m/z	relative intensity	assigned
51.0228	9	C4H3+
65.0386	50	C5H5+
67.0176	7	C4H3O+
67.0542	91	C5H7+
68.9971	54	C3HO2+
77.0386	181	C6H5+
78.0464	27	C6H6+
79.0179	96	C5H3O+
79.0542	224	C6H7+
81.0699	25	C6H9+
89.0385	13	C7H5+
91.0542	999	C7H7+
92.062	31	C7H8+
93.0336	25	C6H5O+
93.0699	95	C7H9+
94.0409	9	C6H6O+
95.0491	37	C6H7O+
95.0855	109	C7H11+
102.0463	18	C8H6+
103.0542	97	C8H7+
104.062	29	C8H8+
105.0335	34	C7H5O+
105.0698	195	C8H9+
106.0779	20	C8H10+
107.0127	80	C6H3O2+
107.0491	193	C7H7O+
107.0855	97	C8H11+
109.0648	21	C7H9O+
115.0542	345	C9H7+
116.062	311	C9H8+
117.0699	100	C9H9+
119.0491	141	C8H7O+
119.0855	242	C9H11+
120.0569	76	C8H8O+
121.0285	15	C7H5O2+
121.0647	41	C8H9O+
122.0726	22	C8H10O+
123.0804	22	C8H11O+
127.0542	6	C10H7+
128.0621	97	C10H8+
129.0699	92	C10H9+
131.049	35	C9H7O+
131.0854	126	C10H11+
132.0568	42	C9H8O+
133.0286	8	C8H5O2+
133.0648	111	C9H9O+
134.0362	14	C8H6O2+
134.0724	50	C9H10O+
135.0441	41	C8H7O2+
135.0804	28	C9H11O+
141.0698	89	C11H9+
144.0569	123	C10H8O+
145.0287	22	C9H5O2+
145.0646	38	C10H9O+
147.0441	140	C9H7O2+
147.0805	25	C10H11O+
148.0519	87	C9H8O2+
149.0598	17	C9H9O2+
157.0281	8	C10H5O2+
157.0644	9	C11H9O+
159.0804	43	C11H11O+
161.0598	60	C10H9O2+
162.0675	78	C10H10O2+
169.0645	34	C12H9O+
172.0518	26	C11H8O2+
175.039	137	C10H7O3+
177.0182	11	C9H5O4+
185.0232	46	C11H5O3+
185.0599	12	C12H9O2+
189.0549	21	C11H9O3+
203.0338	149	C11H7O4+
205.0859	79	C12H13O3+
233.0805	14	C13H13O4+
