Mass spectrum: Sophocarpine; LC-ESI-ITFT; MS2; CE: 95%; R=15000; [M+H]+
Name: Sophocarpine
Name: (1R,2R,9S,17S)-7,13-diazatetracyclo[7.7.1.02,7.013,17]heptadec-4-en-6-one
Formula: C15H22N2O
Exact mass: 246.1732
SMILES: C1C[C@H]2CN3[C@H](CC=CC3=O)[C@@H]4[C@H]2N(C1)CCC4
InChI: InChI=1S/C15H22N2O/c18-14-7-1-6-13-12-5-3-9-16-8-2-4-11(15(12)16)10-17(13)14/h1,7,11-13,15H,2-6,8-10H2/t11-,12+,13+,15-/m0/s1
Instrument: LTQ Orbitrap XL Thermo Scientific
Instrument type: LC-ESI-ITFT
Ms type: MS2
Ion mode: POSITIVE
Ionization: ESI
Fragmentation mode: HCD
Collision energy: 95% (nominal)
Resolution: 15000
Column name: Kinetex Evo C18 2.6 um 50 x 2.1 mm
Retention time: 0.710 min
Base peak: 143.0015
Precursor m/z: 247.1805
Precursor type: [M+H]+
m/z	relative intensity	assigned
67.0543	14	C5H7+
68.0494	29	C4H6N+
69.07	8	C5H9+
70.0651	29	C4H8N+
79.0543	21	C6H7+
80.0495	8	C5H6N+
81.0334	5	C5H5O+
81.0572	10	C5H7N+
81.0698	9	C6H9+
82.0652	15	C5H8N+
84.0807	23	C5H10N+
91.0543	13	C7H7+
93.0698	10	C7H9+
94.0651	22	C6H8N+
96.0808	999	C6H10N+
98.0964	110	C6H12N+
105.0698	10	C8H9+
106.0651	9	C7H8N+
108.0808	148	C7H10N+
109.0526	9	C6H7NO+
110.0601	35	C6H8NO+
110.0964	35	C7H12N+
112.1121	9	C7H14N+
119.0854	7	C9H11+
120.0809	16	C8H10N+
122.06	38	C7H8NO+
122.0964	54	C8H12N+
124.112	19	C8H14N+
134.0599	20	C8H8NO+
134.0966	23	C9H12N+
136.1121	690	C9H14N+
138.1277	55	C9H16N+
146.0602	18	C9H8NO+
146.0963	7	C10H12N+
147.0683	10	C9H9NO+
148.0756	41	C9H10NO+
148.1121	56	C10H14N+
149.1196	12	C10H15N+
150.0915	19	C9H12NO+
150.1278	195	C10H16N+
152.1433	21	C10H18N+
160.0756	17	C10H10NO+
162.0915	23	C10H12NO+
162.128	17	C11H16N+
164.1069	11	C10H14NO+
174.0915	14	C11H12NO+
179.1543	310	C11H19N2+
186.0914	7	C12H12NO+
187.0994	5	C12H13NO+
188.1069	11	C12H14NO+
191.1175	12	C11H15N2O+
202.1223	5	C13H16NO+
227.1546	7	C15H19N2+
228.1384	6	C15H18NO+
245.1649	144	C15H21N2O+
247.1805	94	C15H23N2O+
