Mass spectrum: Cortisone; LC-ESI-ITFT; MS2; CE: 105%; R=15000; [M+H]+
Name: Cortisone
Name: (8S,9S,10R,13S,14S,17R)-17-hydroxy-17-(2-hydroxyacetyl)-10,13-dimethyl-1,2,6,7,8,9,12,14,15,16-decahydrocyclopenta[a]phenanthrene-3,11-dione
Formula: C21H28O5
Exact mass: 360.1937
SMILES: C[C@]12CC(=O)[C@H]3[C@@H](CCC4=CC(=O)CC[C@]34C)[C@@H]1CC[C@]2(O)C(=O)CO
InChI: InChI=1S/C21H28O5/c1-19-7-5-13(23)9-12(19)3-4-14-15-6-8-21(26,17(25)11-22)20(15,2)10-16(24)18(14)19/h9,14-15,18,22,26H,3-8,10-11H2,1-2H3/t14-,15-,18+,19-,20-,21-/m0/s1
Instrument: LTQ Orbitrap XL Thermo Scientific
Instrument type: LC-ESI-ITFT
Ms type: MS2
Ion mode: POSITIVE
Ionization: ESI
Fragmentation mode: CID
Collision energy: 105 % (nominal)
Resolution: 15000
Column name: Kinetex Evo C18 2.6 um 50 x 2.1 mm
Retention time: 9.601 min
Base peak: 361.2009
Precursor m/z: 361.201
Precursor type: [M+H]+
m/z	relative intensity	assigned
93.0695	7	C7H9+
105.0698	29	C8H9+
107.0854	16	C8H11+
115.0539	10	C9H7+
117.0699	15	C9H9+
119.0853	27	C9H11+
121.0647	117	C8H9O+
121.1008	9	C9H13+
123.0803	20	C8H11O+
129.0697	9	C10H9+
131.0853	33	C10H11+
133.0645	18	C9H9O+
133.1011	14	C10H13+
135.0802	64	C9H11O+
135.1165	22	C10H15+
137.0958	10	C9H13O+
139.075	16	C8H11O2+
143.0853	29	C11H11+
145.0648	15	C10H9O+
145.101	101	C11H13+
147.0802	93	C10H11O+
147.1164	10	C11H15+
149.0959	23	C10H13O+
151.0754	14	C9H11O2+
153.0907	13	C9H13O2+
155.0854	19	C12H11+
157.064	11	C11H9O+
157.101	25	C12H13+
159.0803	43	C11H11O+
159.1169	19	C12H15+
161.0959	64	C11H13O+
163.1115	999	C11H15O+
164.1148	7	C6H16N2O3+
165.0905	9	C10H13O2+
165.1272	10	C11H17O+
169.1011	32	C13H13+
171.0802	46	C12H11O+
171.1165	82	C13H15+
173.0958	81	C12H13O+
175.1114	20	C12H15O+
177.0909	36	C11H13O2+
179.1067	13	C11H15O2+
181.0851	7	C10H13O3+
181.1011	41	C14H13+
183.0808	11	C13H11O+
183.1166	37	C14H15+
185.0958	43	C13H13O+
185.1324	12	C14H17+
187.0749	15	C12H11O2+
187.1115	48	C13H15O+
189.0909	42	C12H13O2+
189.1273	20	C13H17O+
191.1066	34	C12H15O2+
193.1013	12	C15H13+
195.1167	39	C15H15+
197.0957	22	C14H13O+
197.1322	27	C15H17+
199.1116	63	C14H15O+
201.0902	14	C13H13O2+
201.1267	19	C14H17O+
203.1063	17	C13H15O2+
205.1224	17	C13H17O2+
207.1017	11	C12H15O3+
207.1166	30	C16H15+
209.0965	20	C15H13O+
209.1322	30	C16H17+
211.1115	43	C15H15O+
211.1478	27	C16H19+
213.0902	6	C14H13O2+
213.1271	37	C15H17O+
215.1058	12	C14H15O2+
215.1431	14	C15H19O+
217.122	27	C14H17O2+
219.1161	18	C17H15+
221.1321	66	C17H17+
223.1116	48	C16H15O+
223.1481	52	C17H19+
225.1271	69	C16H17O+
225.1636	24	C17H21+
227.1061	17	C15H15O2+
227.1429	34	C16H19O+
229.1216	31	C15H17O2+
231.1372	6	C15H19O2+
233.1326	15	C18H17+
235.1112	8	C17H15O+
235.1479	52	C18H19+
237.1272	55	C17H17O+
237.1635	57	C18H21+
239.1061	11	C16H15O2+
239.1428	130	C17H19O+
239.1792	27	C18H23+
241.122	88	C16H17O2+
241.1584	52	C17H21O+
243.1379	35	C16H19O2+
243.1743	24	C17H23O+
245.1326	17	C19H17+
247.1478	82	C19H19+
249.1273	47	C18H17O+
249.1636	51	C19H21+
251.1425	30	C18H19O+
251.1791	25	C19H23+
253.1225	7	C17H17O2+
253.1581	44	C18H21O+
255.1378	61	C17H19O2+
255.1742	60	C18H23O+
257.1532	67	C17H21O2+
257.1892	23	C18H25O+
261.1266	13	C19H17O+
261.1482	25	C16H21O3+
261.1634	43	C20H21+
263.1428	54	C19H19O+
264.1515	5	C19H20O+
265.1584	409	C19H21O+
267.1376	89	C18H19O2+
267.174	319	C19H23O+
269.1901	25	C19H25O+
271.1478	11	C21H19+
271.1685	15	C18H23O2+
277.158	51	C20H21O+
279.1378	18	C19H19O2+
279.1739	197	C20H23O+
281.1532	47	C19H21O2+
281.1895	6	C20H25O+
283.1688	425	C19H23O2+
284.1771	19	C19H24O2+
285.1482	51	C18H21O3+
285.1845	228	C19H25O2+
289.1582	123	C21H21O+
295.1687	217	C20H23O2+
297.1843	184	C20H25O2+
299.1636	376	C19H23O3+
300.1714	26	C19H24O3+
301.1793	338	C19H25O3+
303.1585	26	C18H23O4+
307.1687	389	C21H23O2+
313.1792	314	C20H25O3+
314.1824	7	C15H26N2O5+
315.1947	66	C20H27O3+
317.1743	28	C19H25O4+
325.1792	516	C21H25O3+
331.1894	21	C20H27O4+
343.1895	865	C21H27O4+
344.1947	20	C16H28N2O6+
