Mass spectrum: Ajmalicine; LC-ESI-ITFT; MS2; CE: 40%; R=15000; [M+H]+
Name: Ajmalicine
Name: methyl (1S,15R,16S,20S)-16-methyl-17-oxa-3,13-diazapentacyclo[11.8.0.02,10.04,9.015,20]henicosa-2(10),4,6,8,18-pentaene-19-carboxylate
Formula: C21H24N2O3
Exact mass: 352.1787
SMILES: C[C@H]1[C@H]2CN3CCc4c5ccccc5[nH]c4[C@@H]3C[C@@H]2C(=CO1)C(=O)OC
InChI: InChI=1S/C21H24N2O3/c1-12-16-10-23-8-7-14-13-5-3-4-6-18(13)22-20(14)19(23)9-15(16)17(11-26-12)21(24)25-2/h3-6,11-12,15-16,19,22H,7-10H2,1-2H3/t12-,15-,16+,19-/m0/s1
Instrument: LTQ Orbitrap XL Thermo Scientific
Instrument type: LC-ESI-ITFT
Ms type: MS2
Ion mode: POSITIVE
Ionization: ESI
Fragmentation mode: HCD
Collision energy: 40% (nominal)
Resolution: 15000
Column name: Kinetex Evo C18 2.6 um 50 x 2.1 mm
Retention time: 7.574 min
Base peak: 353.1856
Precursor m/z: 353.186
Precursor type: [M+H]+
m/z	relative intensity	assigned
68.0494	3	C4H6N+
81.0698	1	C6H9+
84.0807	1	C5H10N+
108.0806	4	C7H10N+
109.0649	1	C7H9O+
124.0391	3	C6H6NO2+
130.065	5	C9H8N+
144.0806	999	C10H10N+
149.0595	1	C9H9O2+
150.0907	1	C9H12NO+
156.0805	9	C11H10N+
158.0963	16	C11H12N+
162.0914	1	C10H12NO+
164.0703	4	C9H10NO2+
167.0701	5	C9H11O3+
168.1018	1	C9H14NO2+
170.0962	27	C12H12N+
172.1118	1	C12H14N+
178.0861	51	C10H12NO2+
181.0853	1	C10H13O3+
182.0963	9	C13H12N+
185.1072	7	C12H13N2+
194.117	1	C11H16NO2+
196.0967	10	C10H14NO3+
199.1228	16	C13H15N2+
208.0967	5	C11H14NO3+
208.1123	1	C15H14N+
210.1122	133	C11H16NO3+
222.1122	34	C12H16NO3+
222.1274	2	C16H16N+
224.1069	2	C15H14NO+
225.1393	2	C15H17N2+
234.1275	2	C17H16N+
238.0871	1	C15H12NO2+
250.0856	1	C16H12NO2+
250.1226	3	C17H16NO+
251.1542	8	C17H19N2+
252.1017	17	C16H14NO2+
253.1699	1	C17H21N2+
254.1175	4	C16H16NO2+
262.1216	1	C18H16NO+
264.1385	2	C18H18NO+
266.1167	1	C17H16NO2+
276.1389	1	C19H18NO+
277.1323	1	C18H17N2O+
278.1172	13	C18H16NO2+
284.1279	24	C17H18NO3+
292.1326	5	C19H18NO2+
293.1647	5	C19H21N2O+
303.1492	2	C20H19N2O+
304.1335	1	C20H18NO2+
310.1443	1	C19H20NO3+
321.1596	33	C20H21N2O2+
324.159	4	C20H22NO3+
335.175	2	C21H23N2O2+
336.1585	4	C21H22NO3+
353.1857	205	C21H25N2O3+
