Mass spectrum: Lasiocarpine; LC-ESI-ITFT; MS2; CE: 60%; R=15000; [M+H]+
Name: Lasiocarpine
Name: [(7S,8R)-7-[(Z)-2-methylbut-2-enoyl]oxy-5,6,7,8-tetrahydro-3H-pyrrolizin-1-yl]methyl (2R)-2,3-dihydroxy-2-[(1S)-1-methoxyethyl]-3-methylbutanoate
Formula: C21H33NO7
Exact mass: 411.2257
SMILES: C/C=C(/C)\C(=O)O[C@H]1CCN2[C@@H]1C(=CC2)COC(=O)[C@@]([C@H](C)OC)(C(C)(C)O)O
InChI: InChI=1S/C21H33NO7/c1-7-13(2)18(23)29-16-9-11-22-10-8-15(17(16)22)12-28-19(24)21(26,14(3)27-6)20(4,5)25/h7-8,14,16-17,25-26H,9-12H2,1-6H3/b13-7-/t14-,16-,17+,21-/m0/s1
Instrument: LTQ Orbitrap XL Thermo Scientific
Instrument type: LC-ESI-ITFT
Ms type: MS2
Ion mode: POSITIVE
Ionization: ESI
Fragmentation mode: HCD
Collision energy: 60% (nominal)
Resolution: 15000
Column name: Kinetex Evo C18 2.6 um 50 x 2.1 mm
Retention time: 7.424 min
Base peak: 412.2327
Precursor m/z: 412.233
Precursor type: [M+H]+
m/z	relative intensity	assigned
55.0541	8	C4H7+
59.0491	14	C3H7O+
68.0494	4	C4H6N+
69.0699	1	C5H9+
71.0492	1	C4H7O+
77.0386	2	C6H5+
79.0542	3	C6H7+
80.0495	10	C5H6N+
81.07	1	C6H9+
82.0652	2	C5H8N+
83.0491	15	C5H7O+
91.0542	11	C7H7+
92.0494	3	C6H6N+
93.0699	25	C7H9+
94.0651	39	C6H8N+
95.0729	2	C6H9N+
96.081	1	C6H10N+
97.0648	7	C6H9O+
101.0598	2	C5H9O2+
103.0542	19	C8H7+
105.0574	3	C7H7N+
106.0653	1	C7H8N+
108.0808	35	C7H10N+
110.06	2	C6H8NO+
110.0966	1	C7H12N+
118.0651	12	C8H8N+
119.073	9	C8H9N+
120.0808	999	C8H10N+
121.0886	41	C8H11N+
122.0965	2	C8H12N+
136.0756	2	C8H10NO+
138.0913	101	C8H12NO+
152.1069	1	C9H14NO+
156.1019	9	C8H14NO2+
168.1017	2	C9H14NO2+
220.1335	3	C13H18NO2+
238.1438	29	C13H20NO3+
