Mass spectrum: Monocrotaline; LC-ESI-ITFT; MS2; CE: 60%; R=15000; [M+H]+
Name: Monocrotaline
Name: (1R,4R,5R,6R,16R)-5,6-dihydroxy-4,5,6-trimethyl-2,8-dioxa-13-azatricyclo[8.5.1.013,16]hexadec-10-ene-3,7-dione
Formula: C16H23NO6
Exact mass: 325.1525
SMILES: C[C@H]1C(=O)O[C@@H]2CCN3[C@@H]2C(=CC3)COC(=O)[C@]([C@]1(C)O)(C)O
InChI: InChI=1S/C16H23NO6/c1-9-13(18)23-11-5-7-17-6-4-10(12(11)17)8-22-14(19)16(3,21)15(9,2)20/h4,9,11-12,20-21H,5-8H2,1-3H3/t9-,11+,12+,15+,16-/m0/s1
Instrument: LTQ Orbitrap XL Thermo Scientific
Instrument type: LC-ESI-ITFT
Ms type: MS2
Ion mode: POSITIVE
Ionization: ESI
Fragmentation mode: HCD
Collision energy: 60% (nominal)
Resolution: 15000
Column name: Kinetex Evo C18 2.6 um 50 x 2.1 mm
Retention time: 0.626 min
Base peak: 326.1596
Precursor m/z: 326.1598
Precursor type: [M+H]+
m/z	relative intensity	assigned
67.0417	43	C4H5N+
68.0494	22	C4H6N+
79.0542	15	C6H7+
80.0495	33	C5H6N+
82.0651	16	C5H8N+
91.0543	7	C7H7+
92.062	8	C7H8+
93.0574	13	C6H7N+
93.0699	30	C7H9+
94.0651	177	C6H8N+
95.073	250	C6H9N+
96.0808	35	C6H10N+
103.0545	7	C8H7+
106.0652	24	C7H8N+
108.0807	36	C7H10N+
110.06	14	C6H8NO+
110.0965	14	C7H12N+
120.0808	611	C8H10N+
121.0886	999	C8H11N+
122.0964	145	C8H12N+
138.0914	216	C8H12NO+
139.0991	52	C8H13NO+
140.1069	37	C8H14NO+
146.0962	6	C10H12N+
156.1018	42	C8H14NO2+
164.1071	109	C10H14NO+
180.1028	10	C10H14NO2+
182.1178	11	C10H16NO2+
184.0971	68	C9H14NO3+
194.1175	219	C11H16NO2+
195.1254	50	C11H17NO2+
210.1127	17	C11H16NO3+
212.128	24	C11H18NO3+
228.1229	17	C11H18NO4+
237.1359	175	C13H19NO3+
238.1439	44	C13H20NO3+
241.9837	5	C12H2O6+
252.1228	14	C13H18NO4+
254.1382	17	C13H20NO4+
280.1546	64	C15H22NO4+
298.1649	60	C15H24NO5+
326.16	291	C16H24NO6+
