Mass spectrum: Ajmalicine; LC-ESI-ITFT; MS2; CE: 25%; R=15000; [M+H]+
Name: Ajmalicine
Name: methyl (1S,15R,16S,20S)-16-methyl-17-oxa-3,13-diazapentacyclo[11.8.0.02,10.04,9.015,20]henicosa-2(10),4,6,8,18-pentaene-19-carboxylate
Formula: C21H24N2O3
Exact mass: 352.1787
SMILES: C[C@H]1[C@H]2CN3CCc4c5ccccc5[nH]c4[C@@H]3C[C@@H]2C(=CO1)C(=O)OC
InChI: InChI=1S/C21H24N2O3/c1-12-16-10-23-8-7-14-13-5-3-4-6-18(13)22-20(14)19(23)9-15(16)17(11-26-12)21(24)25-2/h3-6,11-12,15-16,19,22H,7-10H2,1-2H3/t12-,15-,16+,19-/m0/s1
Instrument: LTQ Orbitrap XL Thermo Scientific
Instrument type: LC-ESI-ITFT
Ms type: MS2
Ion mode: POSITIVE
Ionization: ESI
Fragmentation mode: HCD
Collision energy: 25% (nominal)
Resolution: 15000
Column name: Kinetex Evo C18 2.6 um 50 x 2.1 mm
Retention time: 7.572 min
Base peak: 353.1857
Precursor m/z: 353.186
Precursor type: [M+H]+
m/z	relative intensity	assigned
144.0808	182	C10H10N+
158.0966	2	C11H12N+
170.0962	1	C12H12N+
178.0864	2	C10H12NO2+
185.1073	2	C12H13N2+
196.0965	2	C10H14NO3+
199.123	6	C13H15N2+
208.0972	2	C11H14NO3+
210.1124	40	C11H16NO3+
222.1125	9	C12H16NO3+
251.1544	1	C17H19N2+
278.1181	1	C18H16NO2+
284.1283	3	C17H18NO3+
310.1439	2	C19H20NO3+
321.1598	12	C20H21N2O2+
336.159	2	C21H22NO3+
353.1859	999	C21H25N2O3+
