Mass spectrum: Senecivernine; LC-ESI-ITFT; MS2; CE: 60%; R=15000; [M+H]+
Name: Senecivernine
Name: (1R,5R,6R,7R,17R)-7-hydroxy-5,6,7-trimethyl-4-methylidene-2,9-dioxa-14-azatricyclo[9.5.1.014,17]heptadec-11-ene-3,8-dione
Formula: C18H25NO5
Exact mass: 335.1733
SMILES: C[C@@H]1[C@H]([C@@](C(=O)OCC2=CCN3[C@H]2[C@@H](CC3)OC(=O)C1=C)(C)O)C
InChI: InChI=1S/C18H25NO5/c1-10-11(2)16(20)24-14-6-8-19-7-5-13(15(14)19)9-23-17(21)18(4,22)12(10)3/h5,10,12,14-15,22H,2,6-9H2,1,3-4H3/t10-,12+,14+,15+,18+/m0/s1
Instrument: LTQ Orbitrap XL Thermo Scientific
Instrument type: LC-ESI-ITFT
Ms type: MS2
Ion mode: POSITIVE
Ionization: ESI
Fragmentation mode: HCD
Collision energy: 60% (nominal)
Resolution: 15000
Column name: Kinetex Evo C18 2.6 um 50 x 2.1 mm
Retention time: 3.393 min
Base peak: 143.0015
Precursor m/z: 336.1805
Precursor type: [M+H]+
m/z	relative intensity	assigned
53.0384	12	C4H5+
55.0543	11	C4H7+
67.0542	65	C5H7+
68.0493	50	C4H6N+
77.0386	13	C6H5+
79.0542	102	C6H7+
80.0495	83	C5H6N+
81.0699	258	C6H9+
82.0652	29	C5H8N+
83.0491	18	C5H7O+
91.0542	76	C7H7+
92.0495	18	C6H6N+
93.0699	145	C7H9+
94.0651	245	C6H8N+
95.0729	17	C6H9N+
95.0853	13	C7H11+
96.0807	158	C6H10N+
103.0542	60	C8H7+
105.07	38	C8H9+
106.0651	17	C7H8N+
107.0729	15	C7H9N+
107.0855	88	C8H11+
108.0808	180	C7H10N+
109.0647	36	C7H9O+
109.0886	34	C7H11N+
109.101	28	C8H13+
110.0601	15	C6H8NO+
110.0964	61	C7H12N+
111.044	49	C6H7O2+
111.0804	20	C7H11O+
118.0652	60	C8H8N+
119.0854	12	C9H11+
120.0808	999	C8H10N+
121.0886	64	C8H11N+
122.0964	192	C8H12N+
125.0961	63	C8H13O+
135.0806	25	C9H11O+
136.0759	25	C8H10NO+
137.0958	15	C9H13O+
138.0913	895	C8H12NO+
140.1072	30	C8H14NO+
153.091	167	C9H13O2+
154.0866	25	C8H12NO2+
156.1024	19	C8H14NO2+
220.1331	101	C13H18NO2+
238.144	12	C13H20NO3+
248.1655	21	C15H22NO2+
290.1749	25	C17H24NO3+
308.1856	446	C17H26NO4+
336.1807	827	C18H26NO5+
