Mass spectrum: Tomatidine; LC-ESI-ITFT; MS2; CE: 75%; R=15000; [M+H]+
Name: Tomatidine
Formula: C27H45NO2
Exact mass: 415.3450
SMILES: C[C@H]1[C@H]2[C@H](C[C@H]3[C@@H]4CC[C@H]5C[C@@H](O)CC[C@]5(C)[C@H]4CC[C@]23C)O[C@@]11CC[C@H](C)CN1
InChI: InChI=1S/C27H45NO2/c1-16-7-12-27(28-15-16)17(2)24-23(30-27)14-22-20-6-5-18-13-19(29)8-10-25(18,3)21(20)9-11-26(22,24)4/h16-24,28-29H,5-15H2,1-4H3/t16-,17-,18-,19-,20+,21-,22-,23-,24-,25-,26-,27-/m0/s1
Instrument: LTQ Orbitrap XL Thermo Scientific
Instrument type: LC-ESI-ITFT
Ms type: MS2
Ion mode: POSITIVE
Ionization: ESI
Fragmentation mode: CID
Collision energy: 75 % (nominal)
Resolution: 15000
Column name: Kinetex Evo C18 2.6 um 50 x 2.1 mm
Retention time: 10.053 min
Base peak: 217.0493
Precursor m/z: 416.3523
Precursor type: [M+H]+
m/z	relative intensity	assigned
105.0698	2	C8H9+
119.0856	6	C9H11+
121.1008	3	C9H13+
124.1121	5	C8H14N+
126.1278	46	C8H16N+
128.062	3	C10H8+
129.0703	2	C10H9+
131.0856	13	C10H11+
133.1012	15	C10H13+
135.1169	11	C10H15+
143.0858	3	C11H11+
144.0929	1	C11H12+
145.1012	42	C11H13+
147.1169	54	C11H15+
149.1325	7	C11H17+
151.1118	3	C10H15O+
157.1012	4	C12H13+
159.1169	55	C12H15+
161.1326	171	C12H17+
163.1118	18	C11H15O+
171.1169	8	C13H15+
173.1326	59	C13H17+
175.1482	8	C13H19+
177.1273	1	C12H17O+
185.1326	23	C14H17+
187.1481	13	C14H19+
189.1636	3	C14H21+
199.1482	37	C15H19+
213.1637	27	C16H21+
215.1794	12	C16H23+
227.1796	16	C17H23+
255.2108	513	C19H27+
273.2212	362	C19H29O+
398.3418	999	C27H44NO+
