Mass spectrum: Cortisone; LC-ESI-ITFT; MS2; CE: 70%; R=15000; [M+H]+
Name: Cortisone
Name: (8S,9S,10R,13S,14S,17R)-17-hydroxy-17-(2-hydroxyacetyl)-10,13-dimethyl-1,2,6,7,8,9,12,14,15,16-decahydrocyclopenta[a]phenanthrene-3,11-dione
Formula: C21H28O5
Exact mass: 360.1937
SMILES: C[C@]12CC(=O)[C@H]3[C@@H](CCC4=CC(=O)CC[C@]34C)[C@@H]1CC[C@]2(O)C(=O)CO
InChI: InChI=1S/C21H28O5/c1-19-7-5-13(23)9-12(19)3-4-14-15-6-8-21(26,17(25)11-22)20(15,2)10-16(24)18(14)19/h9,14-15,18,22,26H,3-8,10-11H2,1-2H3/t14-,15-,18+,19-,20-,21-/m0/s1
Instrument: LTQ Orbitrap XL Thermo Scientific
Instrument type: LC-ESI-ITFT
Ms type: MS2
Ion mode: POSITIVE
Ionization: ESI
Fragmentation mode: HCD
Collision energy: 70 % (nominal)
Resolution: 15000
Column name: Kinetex Evo C18 2.6 um 50 x 2.1 mm
Retention time: 9.572 min
Base peak: 361.2009
Precursor m/z: 361.201
Precursor type: [M+H]+
m/z	relative intensity	assigned
67.054	48	C5H7+
69.0332	27	C4H5O+
69.0696	45	C5H9+
71.049	11	C4H7O+
77.0384	10	C6H5+
79.0541	126	C6H7+
81.0334	8	C5H5O+
81.0698	162	C6H9+
83.049	129	C5H7O+
91.0542	127	C7H7+
93.0698	376	C7H9+
94.0733	11	C2H10N2O2+
95.0491	29	C6H7O+
95.0855	102	C7H11+
97.0648	250	C6H9O+
105.0698	443	C8H9+
107.0491	55	C7H7O+
107.0855	319	C8H11+
108.0889	14	C3H12N2O2+
109.0646	61	C7H9O+
109.1012	18	C8H13+
111.0803	10	C7H11O+
115.0542	11	C9H7+
117.0698	96	C9H9+
119.0854	238	C9H11+
121.0647	505	C8H9O+
121.1011	129	C9H13+
122.0681	16	C3H10N2O3+
123.0803	109	C8H11O+
128.0621	16	C10H8+
129.0697	57	C10H9+
130.0776	31	C10H10+
131.0854	128	C10H11+
132.0892	6	C5H12N2O2+
133.0647	44	C9H9O+
133.1011	97	C10H13+
134.0723	4	C9H10O+
135.0803	98	C9H11O+
135.1167	75	C10H15+
137.0957	11	C9H13O+
139.0752	14	C8H11O2+
141.0696	18	C11H9+
142.0775	21	C11H10+
143.0853	126	C11H11+
145.0647	32	C10H9O+
145.101	312	C11H13+
146.0719	8	C10H10O+
146.1044	16	C6H14N2O2+
147.0802	114	C10H11O+
147.1167	26	C11H15+
148.0881	138	C10H12O+
149.0957	40	C10H13O+
153.0696	11	C12H9+
154.0774	7	C12H10+
155.0854	64	C12H11+
156.0928	11	C12H12+
157.0648	15	C11H9O+
157.101	82	C12H13+
158.0725	13	C11H10O+
159.0802	70	C11H11O+
159.1166	51	C12H15+
160.0887	4	C11H12O+
161.0959	94	C11H13O+
163.1115	999	C11H15O+
164.1149	49	C6H16N2O3+
165.0697	13	C13H9+
167.0855	26	C13H11+
168.0932	17	C13H12+
169.1008	62	C13H13+
170.1083	6	C13H14+
171.0802	39	C12H11O+
171.1165	54	C13H15+
172.0874	4	C12H12O+
173.0957	52	C12H13O+
174.1036	24	C12H14O+
175.1113	32	C12H15O+
179.0852	16	C14H11+
180.093	11	C14H12+
181.1009	48	C14H13+
182.1087	18	C14H14+
183.0803	12	C13H11O+
183.1165	66	C14H15+
185.0958	35	C13H13O+
185.1322	35	C14H17+
187.1114	21	C13H15O+
189.0905	11	C12H13O2+
189.1272	33	C13H17O+
191.0861	6	C15H11+
192.0929	10	C15H12+
193.1009	20	C15H13+
194.109	17	C15H14+
195.0804	6	C14H11O+
195.1163	48	C15H15+
196.1253	8	C15H16+
197.0957	19	C14H13O+
197.1322	45	C15H17+
199.1113	31	C14H15O+
199.1478	23	C15H19+
201.0907	6	C13H13O2+
201.1268	17	C14H17O+
203.1435	7	C14H19O+
205.1011	8	C16H13+
206.1083	16	C16H14+
207.1166	27	C16H15+
209.0958	11	C15H13O+
209.132	25	C16H17+
211.1115	20	C15H15O+
211.148	16	C16H19+
213.1271	16	C15H17O+
215.1432	9	C15H19O+
217.1004	8	C17H13+
221.1321	21	C17H17+
223.1475	13	C17H19+
224.1192	8	C16H16O+
225.127	31	C16H17O+
225.1637	9	C17H21+
226.1351	21	C16H18O+
227.1428	35	C16H19O+
229.1598	4	C16H21O+
231.116	6	C18H15+
232.1251	6	C18H16+
235.148	4	C18H19+
237.1272	10	C17H17O+
237.1633	9	C18H21+
239.1424	21	C17H19O+
240.1511	13	C17H20O+
241.1583	68	C17H21O+
242.1664	31	C17H22O+
243.1373	47	C16H19O2+
249.1277	7	C18H17O+
251.143	13	C18H19O+
253.1588	11	C18H21O+
255.1736	17	C18H23O+
256.1814	20	C18H24O+
257.1535	10	C17H21O2+
258.161	113	C17H22O2+
265.1576	8	C19H21O+
269.153	52	C18H21O2+
284.1762	22	C19H24O2+
