Mass spectrum: Ajmalicine; LC-ESI-ITFT; MS2; CE: 100%; R=15000; [M+H]+
Name: Ajmalicine
Name: methyl (1S,15R,16S,20S)-16-methyl-17-oxa-3,13-diazapentacyclo[11.8.0.02,10.04,9.015,20]henicosa-2(10),4,6,8,18-pentaene-19-carboxylate
Formula: C21H24N2O3
Exact mass: 352.1787
SMILES: C[C@H]1[C@H]2CN3CCc4c5ccccc5[nH]c4[C@@H]3C[C@@H]2C(=CO1)C(=O)OC
InChI: InChI=1S/C21H24N2O3/c1-12-16-10-23-8-7-14-13-5-3-4-6-18(13)22-20(14)19(23)9-15(16)17(11-26-12)21(24)25-2/h3-6,11-12,15-16,19,22H,7-10H2,1-2H3/t12-,15-,16+,19-/m0/s1
Instrument: LTQ Orbitrap XL Thermo Scientific
Instrument type: LC-ESI-ITFT
Ms type: MS2
Ion mode: POSITIVE
Ionization: ESI
Fragmentation mode: HCD
Collision energy: 100% (nominal)
Resolution: 15000
Column name: Kinetex Evo C18 2.6 um 50 x 2.1 mm
Retention time: 7.548 min
Base peak: 353.1858
Precursor m/z: 353.186
Precursor type: [M+H]+
m/z	relative intensity	assigned
53.1073	2	CH13N2+
67.0541	2	C5H7+
68.0493	2	C4H6N+
77.0385	22	C6H5+
79.0542	20	C6H7+
80.0493	7	C5H6N+
81.0699	16	C6H9+
82.0651	4	C5H8N+
83.0126	5	C4H3O2+
84.081	2	C5H10N+
91.0542	98	C7H7+
93.0571	5	C6H7N+
93.07	4	C7H9+
94.0649	4	C6H8N+
95.0491	10	C6H7O+
96.0807	3	C6H10N+
103.0542	47	C8H7+
104.0494	7	C7H6N+
105.0448	16	C6H5N2+
105.0698	8	C8H9+
106.0653	4	C7H8N+
107.0491	6	C7H7O+
108.0808	16	C7H10N+
109.0285	3	C6H5O2+
109.0649	2	C7H9O+
115.0542	184	C9H7+
116.0494	19	C8H6N+
116.0577	7	C4H8N2O2+
116.0622	14	C9H8+
117.0573	98	C8H7N+
117.0698	368	C9H9+
118.0651	20	C8H8N+
118.0732	17	C4H10N2O2+
120.081	3	C8H10N+
122.024	3	C6H4NO2+
124.0393	14	C6H6NO2+
127.0542	29	C10H7+
128.0494	45	C9H6N+
128.0621	57	C10H8+
129.0572	12	C9H7N+
129.0698	52	C10H9+
130.0651	75	C9H8N+
131.0729	6	C9H9N+
132.0811	4	C9H10N+
134.0607	3	C8H8NO+
135.0439	2	C8H7O2+
141.0698	2	C11H9+
142.0652	26	C10H8N+
142.0778	5	C11H10+
143.073	425	C10H9N+
144.0807	999	C10H10N+
145.0647	15	C10H9O+
146.0599	8	C9H8NO+
152.0622	5	C12H8+
153.07	7	C12H9+
154.0651	55	C11H8N+
155.0604	194	C10H7N2+
155.0729	69	C11H9N+
156.0807	61	C11H10N+
157.0884	17	C11H11N+
158.0966	7	C11H12N+
165.0699	11	C13H9+
166.0643	4	C12H8N+
167.0731	95	C12H9N+
168.0807	77	C12H10N+
169.0762	3	C11H9N2+
169.0885	12	C12H11N+
170.0964	37	C12H12N+
178.0774	2	C14H10+
179.0732	3	C13H9N+
179.086	2	C14H11+
180.0807	57	C13H10N+
181.0885	23	C13H11N+
182.0963	25	C13H12N+
183.091	2	C12H11N2+
191.0729	15	C14H9N+
192.0807	16	C14H10N+
193.0888	13	C14H11N+
194.0967	19	C14H12N+
204.0806	25	C15H10N+
205.0885	13	C15H11N+
206.0964	21	C15H12N+
207.1048	7	C15H13N+
208.1115	2	C15H14N+
216.0807	5	C16H10N+
217.0887	24	C16H11N+
218.0964	17	C16H12N+
219.1046	2	C16H13N+
220.0756	6	C15H10NO+
220.1121	6	C16H14N+
230.0964	8	C17H12N+
231.1042	4	C17H13N+
234.0911	7	C16H12NO+
246.0911	4	C17H12NO+
248.107	2	C17H14NO+
