Mass spectrum: Pterosin B; LC-ESI-ITFT; MS2; CE: 20%; R=15000; [M+H]+
Name: Pterosin B
Name: (2R)-6-(2-hydroxyethyl)-2,5,7-trimethyl-2,3-dihydroinden-1-one
Formula: C14H18O2
Exact mass: 218.1307
SMILES: C[C@@H]1CC2=C(C1=O)C(=C(C(=C2)C)CCO)C
InChI: InChI=1S/C14H18O2/c1-8-6-11-7-9(2)14(16)13(11)10(3)12(8)4-5-15/h6,9,15H,4-5,7H2,1-3H3/t9-/m1/s1
Instrument: LTQ Orbitrap XL Thermo Scientific
Instrument type: LC-ESI-ITFT
Ms type: MS2
Ion mode: POSITIVE
Ionization: ESI
Fragmentation mode: CID
Collision energy: 20 % (nominal)
Resolution: 15000
Column name: Kinetex Evo C18 2.6 um 50x2.1 mm, Phenomenex
Retention time: 10.388 min
Base peak: 219.1376
Precursor m/z: 219.138
Precursor type: [M+H]+
m/z	relative intensity	assigned
145.1013	3	C11H13+
149.0958	1	C10H13O+
155.0855	1	C12H11+
157.1012	1	C12H13+
159.1168	2	C12H15+
163.1118	3	C11H15O+
168.0934	2	C13H12+
173.0963	2	C12H13O+
173.1326	13	C13H17+
183.1169	25	C14H15+
191.1431	5	C13H19O+
199.112	7	C14H15O+
201.1274	688	C14H17O+
219.138	999	C14H19O2+
