Mass spectrum: Galantamine; LC-ESI-ITFT; MS2; CE: 60%; R=15000; [M+H]+
Name: Galantamine
Formula: C17H21NO3
Exact mass: 287.1521
SMILES: CN1CCC23C=CC(CC2OC4=C(C=CC(=C34)C1)OC)O
InChI: InChI=1S/C17H21NO3/c1-18-8-7-17-6-5-12(19)9-14(17)21-16-13(20-2)4-3-11(10-18)15(16)17/h3-6,12,14,19H,7-10H2,1-2H3
Instrument: LTQ Orbitrap XL Thermo Scientific
Instrument type: LC-ESI-ITFT
Ms type: MS2
Ion mode: POSITIVE
Ionization: ESI
Fragmentation mode: HCD
Collision energy: 60 % (nominal)
Resolution: 15000
Column name: Kinetex Evo C18 2.6 um 50 x 2.1 mm
Retention time: 0.589 min
Base peak: 235.2166
Precursor m/z: 288.1594
Precursor type: [M+H]+
m/z	relative intensity	assigned
58.0649	7	C3H8N+
91.0541	23	C7H7+
93.0698	19	C7H9+
94.0652	9	C6H8N+
105.0698	24	C8H9+
109.0646	27	C7H9O+
121.0647	9	C8H9O+
128.0615	11	C10H8+
132.0805	9	C9H10N+
133.0884	7	C9H11N+
134.0964	16	C9H12N+
135.0804	57	C9H11O+
137.0602	4	C8H9O2+
143.0854	29	C11H11+
151.0751	11	C9H11O2+
159.08	15	C11H11O+
161.096	49	C11H13O+
162.0678	14	C10H10O2+
163.0754	5	C10H11O2+
166.0777	33	C13H10+
167.0851	20	C13H11+
169.0647	15	C12H9O+
170.0725	36	C12H10O+
171.0805	25	C12H11O+
175.0754	58	C11H11O2+
175.1116	45	C12H15O+
179.0855	45	C14H11+
181.0648	49	C13H9O+
181.1011	58	C14H13+
182.0725	180	C13H10O+
183.0804	24	C13H11O+
185.0959	129	C13H13O+
187.0755	7	C12H11O2+
188.0832	19	C12H12O2+
189.0908	32	C12H13O2+
191.0854	24	C15H11+
194.0725	23	C14H10O+
195.0803	18	C14H11O+
197.0959	53	C14H13O+
198.0673	835	C13H10O2+
199.0758	13	C13H11O2+
203.1064	59	C13H15O2+
207.0802	21	C15H11O+
209.0959	42	C15H13O+
210.0673	24	C14H10O2+
213.0908	999	C14H13O2+
224.0831	6	C15H12O2+
225.0907	42	C15H13O2+
229.0855	10	C14H13O3+
231.1015	55	C14H15O3+
238.1219	5	C16H16NO+
254.1169	13	C16H16NO2+
255.1244	8	C16H17NO2+
