Mass spectrum: Coniferaldehyde; LC-ESI-ITFT; MS2; CE: 110%; R=15000; [M+H]+
Name: Coniferaldehyde
Formula: C10H10O3
Exact mass: 178.0630
SMILES: COC1=CC(\C=C\C=O)=CC=C1O
InChI: InChI=1S/C10H10O3/c1-13-10-7-8(3-2-6-11)4-5-9(10)12/h2-7,12H,1H3/b3-2+
Instrument: LTQ Orbitrap XL Thermo Scientific
Instrument type: LC-ESI-ITFT
Ms type: MS2
Ion mode: POSITIVE
Ionization: ESI
Fragmentation mode: HCD
Collision energy: 110 % (nominal)
Resolution: 15000
Column name: Kinetex Evo C18 2.6 um 50 x 2.1 mm
Retention time: 7.281 min
Base peak: 179.0702
Precursor m/z: 179.0703
Precursor type: [M+H]+
m/z	relative intensity	assigned
63.023	4	C5H3+
65.0385	165	C5H5+
66.0463	10	C5H6+
67.0543	4	C5H7+
77.0386	131	C6H5+
78.0465	10	C6H6+
79.0542	374	C6H7+
80.0621	104	C6H8+
81.0335	5	C5H5O+
82.0413	40	C5H6O+
89.0386	118	C7H5+
90.0464	187	C7H6+
91.0542	999	C7H7+
92.0257	23	C6H4O+
93.0335	12	C6H5O+
94.0413	67	C6H6O+
95.0491	30	C6H7O+
102.0463	8	C8H6+
103.0542	51	C8H7+
105.0335	7	C7H5O+
105.0699	15	C8H9+
107.0491	379	C7H7O+
108.057	36	C7H8O+
110.0363	25	C6H6O2+
115.0542	21	C9H7+
117.0332	6	C8H5O+
118.0413	320	C8H6O+
119.0491	110	C8H7O+
121.0284	12	C7H5O2+
122.0363	7	C7H6O2+
131.0491	6	C9H7O+
133.065	4	C9H9O+
135.0441	98	C8H7O2+
136.0519	118	C8H8O2+
146.0363	100	C9H6O2+
147.044	22	C9H7O2+
163.0385	9	C9H7O3+
