Mass spectrum: Erucifoline N-oxide; LC-ESI-ITFT; MS2; CE: 55%; R=15000; [M+H]+
Name: Erucifoline N-oxide
Name: (5R,7S,9Z,12R,18R)-9-ethylidene-7-(hydroxymethyl)-5-methyl-15-oxido-3,6,11-trioxa-15-azoniatetracyclo[10.5.1.05,7.015,18]octadec-1(17)-ene-4,10-dione
Formula: C18H23NO7
Exact mass: 365.1475
SMILES: C/C=C\1/C[C@@]2([C@@](O2)(C(=O)OCC3=CC[N+]4([C@H]3[C@@H](CC4)OC1=O)[O-])C)CO
InChI: InChI=1S/C18H23NO7/c1-3-11-8-18(10-20)17(2,26-18)16(22)24-9-12-4-6-19(23)7-5-13(14(12)19)25-15(11)21/h3-4,13-14,20H,5-10H2,1-2H3/b11-3-/t13-,14-,17+,18+,19?/m1/s1
Instrument: LTQ Orbitrap XL Thermo Scientific
Instrument type: LC-ESI-ITFT
Ms type: MS2
Ion mode: POSITIVE
Ionization: ESI
Fragmentation mode: HCD
Collision energy: 55% (nominal)
Resolution: 15000
Column name: Kinetex Evo C18 2.6 um 50 x 2.1 mm
Retention time: 1.127 min
Base peak: 366.1547
Precursor m/z: 366.1547
Precursor type: [M+H]+
m/z	relative intensity	assigned
67.054	30	C5H7+
79.0543	44	C6H7+
80.0495	62	C5H6N+
81.0698	42	C6H9+
82.0651	26	C5H8N+
91.0542	50	C7H7+
93.0573	307	C6H7N+
93.0701	24	C7H9+
94.0651	469	C6H8N+
95.0491	25	C6H7O+
95.0729	158	C6H9N+
98.06	58	C5H8NO+
106.0651	104	C7H8N+
107.0728	31	C7H9N+
108.0807	174	C7H10N+
109.0647	54	C7H9O+
109.0885	38	C7H11N+
110.06	26	C6H8NO+
112.0755	89	C6H10NO+
118.0651	775	C8H8N+
119.0729	943	C8H9N+
120.0807	738	C8H10N+
121.065	25	C8H9O+
121.0884	54	C8H11N+
122.0963	152	C8H12N+
123.0439	52	C7H7O2+
123.08	19	C8H11O+
124.0759	22	C7H10NO+
125.0591	19	C7H9O2+
136.0756	999	C8H10NO+
137.0597	30	C8H9O2+
137.0835	133	C8H11NO+
138.0913	209	C8H12NO+
139.0752	62	C8H11O2+
140.107	25	C8H14NO+
141.0544	20	C7H9O3+
146.0963	25	C10H12N+
148.1118	17	C10H14N+
149.0597	28	C9H9O2+
151.0755	18	C9H11O2+
154.0862	220	C8H12NO2+
162.091	18	C10H12NO+
164.1069	165	C10H14NO+
165.0544	77	C9H9O3+
167.0699	15	C9H11O3+
183.0652	41	C9H11O4+
190.1227	71	C12H16NO+
199.0964	28	C10H15O4+
202.1225	13	C13H16NO+
204.1016	19	C12H14NO2+
209.1168	45	C12H17O3+
218.1172	66	C13H16NO2+
220.1332	41	C13H18NO2+
244.134	21	C15H18NO2+
278.1383	55	C15H20NO4+
366.1546	435	C18H24NO7+
