Mass spectrum: Lasiocarpine N-oxide; LC-ESI-ITFT; MS2; CE: 65%; R=15000; [M+H]+
Name: Lasiocarpine N-oxide
Name: [(7S,8R)-7-[(Z)-2-methylbut-2-enoyl]oxy-4-oxido-5,6,7,8-tetrahydro-3H-pyrrolizin-4-ium-1-yl]methyl (2R)-2,3-dihydroxy-2-[(1S)-1-methoxyethyl]-3-methylbutanoate
Formula: C21H33NO8
Exact mass: 427.2206
SMILES: C/C=C(/C)\C(=O)O[C@H]1CC[N+]2([C@@H]1C(=CC2)COC(=O)[C@@]([C@H](C)OC)(C(C)(C)O)O)[O-]
InChI: InChI=1S/C21H33NO8/c1-7-13(2)18(23)30-16-9-11-22(27)10-8-15(17(16)22)12-29-19(24)21(26,14(3)28-6)20(4,5)25/h7-8,14,16-17,25-26H,9-12H2,1-6H3/b13-7-/t14-,16-,17+,21-,22?/m0/s1
Instrument: LTQ Orbitrap XL Thermo Scientific
Instrument type: LC-ESI-ITFT
Ms type: MS2
Ion mode: POSITIVE
Ionization: ESI
Fragmentation mode: HCD
Collision energy: 65% (nominal)
Resolution: 15000
Column name: Kinetex Evo C18 2.6 um 50 x 2.1 mm
Retention time: 7.965 min
Base peak: 428.2271
Precursor m/z: 428.2279
Precursor type: [M+H]+
m/z	relative intensity	assigned
55.0541	109	C4H7+
59.049	34	C3H7O+
67.0541	9	C5H7+
68.0495	37	C4H6N+
79.0542	30	C6H7+
80.0495	159	C5H6N+
81.0573	20	C5H7N+
81.0698	78	C6H9+
82.0412	8	C5H6O+
82.0652	29	C5H8N+
83.0491	262	C5H7O+
84.0444	43	C4H6NO+
91.0542	27	C7H7+
92.0495	14	C6H6N+
93.0573	482	C6H7N+
94.0651	912	C6H8N+
95.0729	29	C6H9N+
96.0446	10	C5H6NO+
96.0808	22	C6H10N+
97.0648	23	C6H9O+
98.0602	8	C5H8NO+
106.0651	752	C7H8N+
107.073	17	C7H9N+
107.0855	14	C8H11+
108.0807	230	C7H10N+
109.0647	40	C7H9O+
109.0884	16	C7H11N+
110.0601	28	C6H8NO+
111.0678	532	C6H9NO+
112.0755	13	C6H10NO+
118.0651	204	C8H8N+
119.0729	999	C8H9N+
120.0807	794	C8H10N+
121.0886	110	C8H11N+
122.0595	9	C7H8NO+
122.0964	18	C8H12N+
124.0756	52	C7H10NO+
126.0913	10	C7H12NO+
134.0961	11	C9H12N+
136.0757	725	C8H10NO+
137.0834	865	C8H11NO+
138.0912	679	C8H12NO+
141.0909	89	C8H13O2+
148.1118	7	C10H14N+
152.1069	15	C9H14NO+
154.0862	181	C8H12NO2+
155.0939	52	C8H13NO2+
156.102	15	C8H14NO2+
172.0968	372	C8H14NO3+
190.1222	14	C12H16NO+
192.1379	6	C12H18NO+
218.1176	15	C13H16NO2+
220.133	33	C13H18NO2+
237.1369	7	C13H19NO3+
254.1385	432	C13H20NO4+
256.1179	24	C12H18NO5+
270.1333	9	C13H20NO5+
328.1758	9	C16H26NO6+
338.1597	8	C17H24NO6+
