Mass spectrum: (+)-Sparteine; LC-ESI-ITFT; MS2; CE: 40%; R=15000; [M+H]+
Name: (+)-Sparteine
Formula: C15H26N2
Exact mass: 234.2096
SMILES: C1CCN2C[C@H]3C[C@@H]([C@H]2C1)CN4[C@H]3CCCC4
InChI: InChI=1S/C15H26N2/c1-3-7-16-11-13-9-12(14(16)5-1)10-17-8-4-2-6-15(13)17/h12-15H,1-11H2/t12-,13-,14-,15+/m1/s1
Instrument: LTQ Orbitrap XL Thermo Scientific
Instrument type: LC-ESI-ITFT
Ms type: MS2
Ion mode: POSITIVE
Ionization: ESI
Fragmentation mode: CID
Collision energy: 40 % (nominal)
Resolution: 15000
Column name: Kinetex Evo C18 2.6 um 50 x 2.1 mm
Retention time: 0.540 min
Base peak: 235.2167
Precursor m/z: 235.2169
Precursor type: [M+H]+
m/z	relative intensity	assigned
70.0651	9	C4H8N+
84.0809	9	C5H10N+
96.0809	14	C6H10N+
98.0964	949	C6H12N+
107.0855	1	C8H11+
108.081	2	C7H10N+
110.0965	4	C7H12N+
119.0861	1	C9H11+
122.0967	1	C8H12N+
124.1121	10	C8H14N+
134.0965	151	C9H12N+
136.1122	5	C9H14N+
138.1277	12	C9H16N+
145.1012	1	C11H13+
148.1118	2	C10H14N+
150.1278	27	C10H16N+
152.1435	31	C10H18N+
154.159	1	C10H20N+
162.1276	2	C11H16N+
164.1435	12	C11H18N+
176.1429	1	C12H18N+
190.1591	25	C13H20N+
192.1748	3	C13H22N+
202.1594	3	C14H20N+
204.1748	6	C14H22N+
233.2014	2	C15H25N2+
235.2169	999	C15H27N2+
