Mass spectrum: 4-Phenyl-3-buten-2-one; LC-ESI-ITFT; MS2; CE: 105%; R=15000; [M+H]+
Name: 4-Phenyl-3-buten-2-one
Formula: C10H10O
Exact mass: 146.0732
SMILES: CC(=O)\C=C\C1=CC=CC=C1
InChI: InChI=1S/C10H10O/c1-9(11)7-8-10-5-3-2-4-6-10/h2-8H,1H3/b8-7+
Instrument: LTQ Orbitrap XL Thermo Scientific
Instrument type: LC-ESI-ITFT
Ms type: MS2
Ion mode: POSITIVE
Ionization: ESI
Fragmentation mode: HCD
Collision energy: 105 % (nominal)
Resolution: 15000
Column name: Kinetex Evo C18 2.6 um 50 x 2.1 mm
Retention time: 9.431 min
Base peak: 147.0804
Precursor m/z: 147.0804
Precursor type: [M+H]+
m/z	relative intensity	assigned
65.0386	6	C5H5+
77.0386	40	C6H5+
79.0542	46	C6H7+
91.0542	169	C7H7+
95.0492	7	C6H7O+
103.0542	47	C8H7+
105.0698	11	C8H9+
117.0696	8	C9H9+
126.0465	6	C10H6+
127.0541	77	C10H7+
128.062	999	C10H8+
129.0698	245	C10H9+
131.0491	17	C9H7O+
145.0646	51	C10H9O+
