Mass spectrum: Lasiocarpine N-oxide; LC-ESI-ITFT; MS2; CE: 75%; R=15000; [M+H]+
Name: Lasiocarpine N-oxide
Name: [(7S,8R)-7-[(Z)-2-methylbut-2-enoyl]oxy-4-oxido-5,6,7,8-tetrahydro-3H-pyrrolizin-4-ium-1-yl]methyl (2R)-2,3-dihydroxy-2-[(1S)-1-methoxyethyl]-3-methylbutanoate
Formula: C21H33NO8
Exact mass: 427.2206
SMILES: C/C=C(/C)\C(=O)O[C@H]1CC[N+]2([C@@H]1C(=CC2)COC(=O)[C@@]([C@H](C)OC)(C(C)(C)O)O)[O-]
InChI: InChI=1S/C21H33NO8/c1-7-13(2)18(23)30-16-9-11-22(27)10-8-15(17(16)22)12-29-19(24)21(26,14(3)28-6)20(4,5)25/h7-8,14,16-17,25-26H,9-12H2,1-6H3/b13-7-/t14-,16-,17+,21-,22?/m0/s1
Instrument: LTQ Orbitrap XL Thermo Scientific
Instrument type: LC-ESI-ITFT
Ms type: MS2
Ion mode: POSITIVE
Ionization: ESI
Fragmentation mode: HCD
Collision energy: 75% (nominal)
Resolution: 15000
Column name: Kinetex Evo C18 2.6 um 50 x 2.1 mm
Retention time: 7.965 min
Base peak: 428.2271
Precursor m/z: 428.2279
Precursor type: [M+H]+
m/z	relative intensity	assigned
55.0541	97	C4H7+
59.049	32	C3H7O+
67.0542	13	C5H7+
68.0494	55	C4H6N+
69.0696	9	C5H9+
79.0542	44	C6H7+
80.0495	218	C5H6N+
81.0573	28	C5H7N+
81.0699	85	C6H9+
82.0414	10	C5H6O+
82.0651	30	C5H8N+
83.0491	239	C5H7O+
84.0444	39	C4H6NO+
91.0542	44	C7H7+
92.0494	19	C6H6N+
92.0625	8	C7H8+
93.0573	437	C6H7N+
94.0651	999	C6H8N+
95.0488	7	C6H7O+
95.0729	32	C6H9N+
96.0807	19	C6H10N+
97.0648	13	C6H9O+
103.0543	10	C8H7+
106.0651	844	C7H8N+
107.073	15	C7H9N+
107.0855	19	C8H11+
108.0807	230	C7H10N+
109.0648	30	C7H9O+
109.0883	16	C7H11N+
110.06	35	C6H8NO+
111.0678	478	C6H9NO+
112.0754	19	C6H10NO+
118.0651	306	C8H8N+
119.0729	766	C8H9N+
120.0807	667	C8H10N+
121.0885	45	C8H11N+
122.0965	12	C8H12N+
124.0756	61	C7H10NO+
136.0756	515	C8H10NO+
137.0835	439	C8H11NO+
138.0913	365	C8H12NO+
141.091	59	C8H13O2+
154.0863	114	C8H12NO2+
155.0942	22	C8H13NO2+
172.0968	296	C8H14NO3+
220.1321	8	C13H18NO2+
254.1385	83	C13H20NO4+
