Mass spectrum: Hordenine; LC-ESI-ITFT; MS2; CE: 50%; R=15000; [M+H]+
Name: Hordenine
Name: 4-[2-(dimethylamino)ethyl]phenol
Formula: C10H15NO
Exact mass: 165.1154
SMILES: CN(C)CCc1ccc(cc1)O
InChI: InChI=1S/C10H15NO/c1-11(2)8-7-9-3-5-10(12)6-4-9/h3-6,12H,7-8H2,1-2H3
Instrument: LTQ Orbitrap XL Thermo Scientific
Instrument type: LC-ESI-ITFT
Ms type: MS2
Ion mode: POSITIVE
Ionization: ESI
Fragmentation mode: HCD
Collision energy: 50% (nominal)
Resolution: 15000
Column name: Kinetex Evo C18 2.6 um 50x2.1 mm, Phenomenex
Retention time: 0.632 min
Base peak: 166.1225
Precursor m/z: 166.1226
Precursor type: [M+H]+
m/z	relative intensity	assigned
91.0542	3	C7H7+
93.0699	20	C7H9+
103.0543	6	C8H7+
121.0648	999	C8H9O+
166.1226	101	C10H16NO+
