Mass spectrum: Lasiocarpine; LC-ESI-ITFT; MS2; CE: 100%; R=15000; [M+H]+
Name: Lasiocarpine
Name: [(7S,8R)-7-[(Z)-2-methylbut-2-enoyl]oxy-5,6,7,8-tetrahydro-3H-pyrrolizin-1-yl]methyl (2R)-2,3-dihydroxy-2-[(1S)-1-methoxyethyl]-3-methylbutanoate
Formula: C21H33NO7
Exact mass: 411.2257
SMILES: C/C=C(/C)\C(=O)O[C@H]1CCN2[C@@H]1C(=CC2)COC(=O)[C@@]([C@H](C)OC)(C(C)(C)O)O
InChI: InChI=1S/C21H33NO7/c1-7-13(2)18(23)29-16-9-11-22-10-8-15(17(16)22)12-28-19(24)21(26,14(3)27-6)20(4,5)25/h7-8,14,16-17,25-26H,9-12H2,1-6H3/b13-7-/t14-,16-,17+,21-/m0/s1
Instrument: LTQ Orbitrap XL Thermo Scientific
Instrument type: LC-ESI-ITFT
Ms type: MS2
Ion mode: POSITIVE
Ionization: ESI
Fragmentation mode: HCD
Collision energy: 100% (nominal)
Resolution: 15000
Column name: Kinetex Evo C18 2.6 um 50 x 2.1 mm
Retention time: 7.418 min
Base peak: 412.2329
Precursor m/z: 412.233
Precursor type: [M+H]+
m/z	relative intensity	assigned
55.0541	12	C4H7+
59.0491	32	C3H7O+
65.0385	18	C5H5+
67.0417	8	C4H5N+
67.0543	17	C5H7+
68.0495	39	C4H6N+
69.0699	4	C5H9+
77.0387	96	C6H5+
78.0339	5	C5H4N+
79.0543	35	C6H7+
80.0496	200	C5H6N+
81.0574	11	C5H7N+
81.0699	13	C6H9+
82.0653	16	C5H8N+
83.0492	13	C5H7O+
91.0543	182	C7H7+
92.0495	89	C6H6N+
93.0574	45	C6H7N+
93.07	125	C7H9+
94.0652	129	C6H8N+
95.0491	13	C6H7O+
96.0441	4	C5H6NO+
96.0809	13	C6H10N+
103.0543	153	C8H7+
104.0495	5	C7H6N+
105.0574	76	C7H7N+
106.0652	16	C7H8N+
107.0731	7	C7H9N+
108.0809	112	C7H10N+
110.0601	34	C6H8NO+
110.0968	6	C7H12N+
117.0574	10	C8H7N+
118.0652	155	C8H8N+
119.0731	68	C8H9N+
120.0809	999	C8H10N+
121.0888	10	C8H11N+
136.076	4	C8H10NO+
138.0915	44	C8H12NO+
