Mass spectrum: Daidzein; LC-ESI-ITFT; MS2; CE: 90%; R=15000; [M+H]+
Name: Daidzein
Name: 7-hydroxy-3-(4-hydroxyphenyl)chromen-4-one
Formula: C15H10O4
Exact mass: 254.0579
SMILES: c1cc(ccc1c2coc3cc(ccc3c2=O)O)O
InChI: InChI=1S/C15H10O4/c16-10-3-1-9(2-4-10)13-8-19-14-7-11(17)5-6-12(14)15(13)18/h1-8,16-17H
Instrument: LTQ Orbitrap XL Thermo Scientific
Instrument type: LC-ESI-ITFT
Ms type: MS2
Ion mode: POSITIVE
Ionization: ESI
Fragmentation mode: HCD
Collision energy: 90% (nominal)
Resolution: 15000
Column name: Kinetex Evo C18 2.6 um 50 x 2.1 mm
Retention time: 9.213 min
Base peak: 116.9859
Precursor m/z: 255.0652
Precursor type: [M+H]+
m/z	relative intensity	assigned
65.0385	79	C5H5+
68.9973	44	C3HO2+
81.0335	105	C5H5O+
91.0542	999	C7H7+
105.0333	37	C7H5O+
106.0414	52	C7H6O+
115.0541	55	C9H7+
119.0492	157	C8H7O+
121.0284	61	C7H5O2+
128.0621	232	C10H8+
129.0701	95	C10H9+
131.0493	87	C9H7O+
134.0362	68	C8H6O2+
137.0234	620	C7H5O3+
141.0699	42	C11H9+
143.0857	50	C11H11+
145.0283	27	C9H5O2+
151.0541	25	C12H7+
152.0621	475	C12H8+
153.0699	415	C12H9+
157.065	90	C11H9O+
169.0652	40	C12H9O+
171.0806	84	C12H11O+
181.0648	629	C13H9O+
182.0725	52	C13H10O+
184.052	106	C12H8O2+
197.0597	96	C13H9O2+
198.0675	60	C13H10O2+
199.0754	282	C13H11O2+
226.0626	30	C14H10O3+
227.0702	92	C14H11O3+
237.0549	47	C15H9O3+
255.0643	39	C15H11O4+
