Mass spectrum: Lycorine; LC-ESI-ITFT; MS2; CE: 85%; R=15000; [M+H]+
Name: Lycorine
Name: (1S,17S,18S,19S)-5,7-dioxa-12-azapentacyclo[10.6.1.02,10.04,8.015,19]nonadeca-2,4(8),9,15-tetraene-17,18-diol
Formula: C16H17NO4
Exact mass: 287.1158
SMILES: C1CN2CC3=CC4=C(C=C3[C@H]5[C@H]2C1=C[C@@H]([C@H]5O)O)OCO4
InChI: InChI=1S/C16H17NO4/c18-11-3-8-1-2-17-6-9-4-12-13(21-7-20-12)5-10(9)14(15(8)17)16(11)19/h3-5,11,14-16,18-19H,1-2,6-7H2/t11-,14-,15+,16+/m0/s1
Instrument: LTQ Orbitrap XL Thermo Scientific
Instrument type: LC-ESI-ITFT
Ms type: MS2
Ion mode: POSITIVE
Ionization: ESI
Fragmentation mode: HCD
Collision energy: 85% (nominal)
Resolution: 15000
Column name: Kinetex Evo C18 2.6 um 50 x 2.1 mm
Retention time: 0.625 min
Base peak: 288.1228
Precursor m/z: 288.123
Precursor type: [M+H]+
m/z	relative intensity	assigned
67.0542	9	C5H7+
79.0541	8	C6H7+
82.0652	31	C5H8N+
83.0492	25	C5H7O+
91.0543	122	C7H7+
95.0492	59	C6H7O+
106.0651	20	C7H8N+
111.0679	31	C6H9NO+
112.0756	16	C6H10NO+
115.0545	3	C9H7+
119.0492	999	C8H7O+
124.0758	20	C7H10NO+
134.0599	16	C8H8NO+
135.0442	32	C8H7O2+
136.052	5	C8H8O2+
141.0697	5	C11H9+
147.0442	770	C9H7O2+
149.0598	38	C9H9O2+
152.0621	6	C12H8+
153.0703	7	C12H9+
159.0442	10	C10H7O2+
165.0699	6	C13H9+
167.0723	4	C12H9N+
167.0858	9	C13H11+
168.0805	3	C12H10N+
169.089	7	C12H11N+
177.0544	13	C10H9O3+
184.1122	6	C13H14N+
193.0889	9	C14H11N+
194.0965	35	C14H12N+
197.0835	13	C13H11NO+
212.0704	6	C13H10NO2+
212.1069	13	C14H14NO+
222.0911	13	C15H12NO+
225.0783	9	C14H11NO2+
226.086	6	C14H12NO2+
250.0859	9	C16H12NO2+
