Mass spectrum: Solasodin; LC-ESI-ITFT; MS2; CE: 55%; R=15000; [M+H]+
Name: Solasodin
Name: Solasodine
Formula: C27H43NO2
Exact mass: 413.3294
SMILES: C[C@@H]1CC[C@@]2([C@H]([C@H]3[C@@H](O2)C[C@@H]4[C@@]3(CC[C@H]5[C@H]4CC=C6[C@@]5(CC[C@@H](C6)O)C)C)C)NC1
InChI: InChI=1S/C27H43NO2/c1-16-7-12-27(28-15-16)17(2)24-23(30-27)14-22-20-6-5-18-13-19(29)8-10-25(18,3)21(20)9-11-26(22,24)4/h5,16-17,19-24,28-29H,6-15H2,1-4H3/t16-,17+,19+,20-,21+,22+,23+,24+,25+,26+,27-/m1/s1
Instrument: LTQ Orbitrap XL Thermo Scientific
Instrument type: LC-ESI-ITFT
Ms type: MS2
Ion mode: POSITIVE
Ionization: ESI
Fragmentation mode: HCD
Collision energy: 55% (nominal)
Resolution: 15000
Column name: Kinetex Evo C18 2.6 um 50 x 2.1 mm
Retention time: 10.837 min
Base peak: 414.3361
Precursor m/z: 414.3367
Precursor type: [M+H]+
m/z	relative intensity	assigned
55.0542	6	C4H7+
67.0542	47	C5H7+
69.0698	18	C5H9+
70.0651	208	C4H8N+
79.0542	41	C6H7+
81.0699	96	C6H9+
83.0855	8	C6H11+
86.0965	9	C5H12N+
91.0542	22	C7H7+
93.0699	95	C7H9+
95.0856	110	C7H11+
96.0808	37	C6H10N+
97.0649	13	C6H9O+
98.0964	27	C6H12N+
105.0699	67	C8H9+
107.0856	223	C8H11+
109.1012	345	C8H13+
114.0913	167	C6H12NO+
117.0699	25	C9H9+
119.0855	94	C9H11+
121.1012	319	C9H13+
123.1169	37	C9H15+
124.1121	377	C8H14N+
125.0961	6	C8H13O+
126.1277	425	C8H16N+
127.1119	9	C8H15O+
129.0699	19	C10H9+
131.0855	120	C10H11+
133.1012	345	C10H13+
135.1169	66	C10H15+
137.0957	10	C9H13O+
143.0856	87	C11H11+
145.1012	233	C11H13+
147.1169	397	C11H15+
149.0961	31	C10H13O+
149.1324	16	C11H17+
151.1118	88	C10H15O+
155.0857	16	C12H11+
157.1012	624	C12H13+
159.1169	413	C12H15+
161.0962	19	C11H13O+
161.1326	27	C12H17+
163.1119	38	C11H15O+
164.1434	30	C11H18N+
165.1276	5	C11H17O+
168.1382	5	C10H18NO+
169.1011	28	C13H13+
171.1169	161	C13H15+
173.1325	100	C13H17+
175.1118	305	C12H15O+
177.1275	39	C12H17O+
183.1169	67	C14H15+
185.1326	68	C14H17+
187.1484	22	C14H19+
197.1325	130	C15H17+
199.1482	20	C15H19+
211.1483	127	C16H19+
213.1638	61	C16H21+
224.1558	33	C17H20+
225.164	64	C17H21+
227.1802	14	C17H23+
238.1719	25	C18H22+
242.1667	12	C17H22O+
253.1951	999	C19H25+
271.2057	269	C19H27O+
396.3262	664	C27H42NO+
414.3367	365	C27H44NO2+
