Mass spectrum: Homoharringtonine; LC-ESI-ITFT; MS2; CE: 85%; R=15000; [M+H]+
Name: Homoharringtonine
Name: Omacetaxine mepesuccinate
Name: 1-O-[(2S,3S,6R)-4-methoxy-16,18-dioxa-10-azapentacyclo[11.7.0.02,6.06,10.015,19]icosa-1(20),4,13,15(19)-tetraen-3-yl] 4-O-methyl (2R)-2-hydroxy-2-(4-hydroxy-4-methylpentyl)butanedioate
Formula: C29H39NO9
Exact mass: 545.2625
SMILES: CC(C)(CCC[C@@](CC(=O)OC)(C(=O)O[C@H]1[C@H]2c3cc4c(cc3CCN5[C@@]2(CCC5)C=C1OC)OCO4)O)O
InChI: InChI=1S/C29H39NO9/c1-27(2,33)8-5-10-29(34,16-23(31)36-4)26(32)39-25-22(35-3)15-28-9-6-11-30(28)12-7-18-13-20-21(38-17-37-20)14-19(18)24(25)28/h13-15,24-25,33-34H,5-12,16-17H2,1-4H3/t24-,25-,28+,29-/m1/s1
Instrument: LTQ Orbitrap XL Thermo Scientific
Instrument type: LC-ESI-ITFT
Ms type: MS2
Ion mode: POSITIVE
Ionization: ESI
Fragmentation mode: HCD
Collision energy: 85% (nominal)
Resolution: 15000
Column name: Kinetex Evo C18 2.6 um 50 x 2.1 mm
Retention time: 7.154 min
Base peak: 546.2694
Precursor m/z: 546.2698
Precursor type: [M+H]+
m/z	relative intensity	assigned
55.0178	14	C3H3O+
59.049	36	C3H7O+
67.0541	17	C5H7+
69.0699	31	C5H9+
70.0651	31	C4H8N+
77.0386	18	C6H5+
79.0543	29	C6H7+
81.0697	16	C6H9+
91.0542	138	C7H7+
93.0699	116	C7H9+
94.0652	24	C6H8N+
95.0491	23	C6H7O+
96.0807	20	C6H10N+
97.0648	15	C6H9O+
103.0542	97	C8H7+
105.0698	16	C8H9+
107.0731	26	C7H9N+
107.0854	87	C8H11+
108.0569	20	C7H8O+
108.0811	16	C7H10N+
109.0648	61	C7H9O+
110.06	72	C6H8NO+
111.0677	21	C6H9NO+
111.0805	17	C7H11O+
115.0542	164	C9H7+
117.0699	29	C9H9+
118.0651	45	C8H8N+
119.0491	51	C8H7O+
120.0807	40	C8H10N+
121.0647	29	C8H9O+
122.0604	16	C7H8NO+
123.0803	17	C8H11O+
126.0915	25	C7H12NO+
128.062	38	C10H8+
129.0698	62	C10H9+
131.049	68	C9H7O+
135.044	61	C8H7O2+
135.0679	26	C8H9NO+
139.0543	43	C11H7+
141.0698	76	C11H9+
142.065	53	C10H8N+
143.0491	43	C10H7O+
143.0852	10	C11H11+
144.0568	13	C10H8O+
144.0806	12	C10H10N+
145.0648	21	C10H9O+
146.0604	21	C9H8NO+
147.0439	16	C9H7O2+
148.0513	14	C9H8O2+
148.0757	34	C9H10NO+
149.0597	85	C9H9O2+
150.0913	740	C9H12NO+
152.062	117	C12H8+
153.0698	164	C12H9+
154.0653	33	C11H8N+
154.077	29	C12H10+
155.049	11	C11H7O+
155.0733	14	C11H9N+
155.0853	53	C12H11+
156.0568	10	C11H8O+
156.0805	16	C11H10N+
157.0645	37	C11H9O+
159.044	88	C10H7O2+
161.0596	20	C10H9O2+
165.0698	348	C13H9+
166.0651	23	C12H8N+
166.0773	90	C13H10+
167.049	43	C12H7O+
167.0728	65	C12H9N+
167.0854	91	C13H11+
168.057	29	C12H8O+
168.0806	85	C12H10N+
169.052	17	C11H7NO+
169.0647	49	C12H9O+
169.0881	52	C12H11N+
169.1006	14	C13H13+
170.0597	50	C11H8NO+
170.0962	42	C12H12N+
171.0438	18	C11H7O2+
171.0805	54	C12H11O+
171.1042	34	C12H13N+
172.0518	67	C11H8O2+
172.075	11	C11H10NO+
172.1119	20	C12H14N+
173.0471	20	C10H7NO2+
173.0596	60	C11H9O2+
174.0548	64	C10H8NO2+
175.0627	17	C10H9NO2+
176.0706	158	C10H10NO2+
178.0775	102	C14H10+
179.0855	177	C14H11+
180.0569	40	C13H8O+
180.0807	107	C13H10N+
180.093	34	C14H12+
181.0647	138	C13H9O+
181.0888	28	C13H11N+
181.1012	23	C14H13+
182.0598	28	C12H8NO+
182.0726	127	C13H10O+
182.0964	136	C13H12N+
183.068	24	C12H9NO+
183.0804	71	C13H11O+
184.0525	15	C12H8O2+
184.0755	30	C12H10NO+
185.0597	129	C12H9O2+
186.055	15	C11H8NO2+
186.0672	26	C12H10O2+
187.0628	21	C11H9NO2+
187.0752	37	C12H11O2+
189.07	32	C15H9+
190.0777	63	C15H10+
191.0855	136	C15H11+
192.0806	32	C14H10N+
192.0938	42	C15H12+
193.0647	94	C14H9O+
193.0888	80	C14H11N+
194.0728	41	C14H10O+
194.0967	54	C14H12N+
195.0686	10	C13H9NO+
195.0803	173	C14H11O+
195.1052	14	C14H13N+
196.0517	21	C13H8O2+
196.0758	68	C13H10NO+
196.0888	27	C14H12O+
196.1121	46	C14H14N+
197.0596	97	C13H9O2+
197.0839	32	C13H11NO+
197.0958	43	C14H13O+
198.0547	67	C12H8NO2+
198.0678	39	C13H10O2+
198.0913	81	C13H12NO+
199.0387	52	C12H7O3+
199.0626	152	C12H9NO2+
199.075	47	C13H11O2+
200.0468	19	C12H8O3+
200.0711	72	C12H10NO2+
200.1064	36	C13H14NO+
202.0861	34	C12H12NO2+
206.0961	29	C15H12N+
207.0803	76	C15H11O+
207.1047	27	C15H13N+
208.0757	44	C14H10NO+
208.0884	79	C15H12O+
208.1119	228	C15H14N+
209.0595	119	C14H9O2+
209.097	19	C15H13O+
210.0677	106	C14H10O2+
210.0911	159	C14H12NO+
211.0628	117	C13H9NO2+
211.0754	98	C14H11O2+
212.0707	157	C13H10NO2+
212.1069	47	C14H14NO+
213.0545	22	C13H9O3+
213.0791	55	C13H11NO2+
214.0862	228	C13H12NO2+
215.0702	30	C13H11O3+
216.1014	34	C13H14NO2+
219.0802	29	C16H11O+
220.0755	20	C15H10NO+
221.0594	25	C15H9O2+
221.0837	27	C15H11NO+
222.0676	39	C15H10O2+
222.0914	70	C15H12NO+
223.0625	16	C14H9NO2+
223.0752	170	C15H11O2+
223.0997	40	C15H13NO+
223.1117	35	C16H15O+
224.0709	127	C14H10NO2+
224.1072	100	C15H14NO+
225.0544	70	C14H9O3+
225.0785	114	C14H11NO2+
225.0913	29	C15H13O2+
226.0861	655	C14H12NO2+
227.0574	192	C13H9NO3+
227.0846	38	C18H11+
227.0952	155	C14H13NO2+
228.0661	43	C13H10NO3+
228.1022	153	C14H14NO2+
229.1098	138	C14H15NO2+
235.0749	19	C16H11O2+
236.0711	23	C15H10NO2+
236.1069	117	C16H14NO+
237.0782	39	C15H11NO2+
237.0913	32	C16H13O2+
238.0625	51	C15H10O3+
238.0862	260	C15H12NO2+
238.1225	112	C16H16NO+
239.0707	34	C15H11O3+
239.0949	102	C15H13NO2+
240.1016	999	C15H14NO2+
242.081	117	C14H12NO3+
242.1181	21	C15H16NO2+
250.0861	142	C16H12NO2+
251.0943	127	C16H13NO2+
252.102	239	C16H14NO2+
253.0732	21	C15H11NO3+
254.0813	60	C15H12NO3+
254.1175	143	C16H16NO2+
256.0969	33	C15H14NO3+
256.1336	18	C16H18NO2+
264.1015	74	C17H14NO2+
266.1172	417	C17H16NO2+
268.0965	236	C16H14NO3+
270.112	35	C16H16NO3+
282.1121	136	C17H16NO3+
284.1277	53	C17H18NO3+
