Mass spectrum: (+)-Isocorydin; LC-ESI-ITFT; MS2; CE: 10%; R=15000; [M+H]+
Name: (+)-Isocorydin
Name: Isocorydine
Name: (6aS)-1,2,10-trimethoxy-6-methyl-5,6,6a,7-tetrahydro-4H-dibenzo[de,g]quinolin-11-ol
Formula: C20H23NO4
Exact mass: 341.1627
SMILES: CN1CCC2=CC(=C(C3=C2[C@@H]1CC4=C3C(=C(C=C4)OC)O)OC)OC
InChI: InChI=1S/C20H23NO4/c1-21-8-7-12-10-15(24-3)20(25-4)18-16(12)13(21)9-11-5-6-14(23-2)19(22)17(11)18/h5-6,10,13,22H,7-9H2,1-4H3/t13-/m0/s1
Instrument: LTQ Orbitrap XL Thermo Scientific
Instrument type: LC-ESI-ITFT
Ms type: MS2
Ion mode: POSITIVE
Ionization: ESI
Fragmentation mode: HCD
Collision energy: 10% (nominal)
Resolution: 15000
Column name: Kinetex Evo C18 2.6 um 50 x 2.1 mm
Retention time: 6.351 min
Base peak: 342.1697
Precursor m/z: 342.17
Precursor type: [M+H]+
m/z	relative intensity	assigned
311.1263	7	C19H19O4+
342.1697	999	C20H24NO4+
