Mass spectrum: alpha-Cyperone; LC-ESI-ITFT; MS2; CE: 25%; R=15000; [M+H]+
Name: alpha-Cyperone
Formula: C15H22O
Exact mass: 218.1671
SMILES: CC1=C2CC(CCC2(CCC1=O)C)C(=C)C
InChI: InChI=1S/C15H22O/c1-10(2)12-5-7-15(4)8-6-14(16)11(3)13(15)9-12/h12H,1,5-9H2,2-4H3
Instrument: LTQ Orbitrap XL Thermo Scientific
Instrument type: LC-ESI-ITFT
Ms type: MS2
Ion mode: POSITIVE
Ionization: ESI
Fragmentation mode: CID
Collision energy: 25 % (nominal)
Resolution: 15000
Column name: Kinetex Evo C18 2.6 um 50 x 2.1 mm
Retention time: 13.110 min
Base peak: 219.1741
Precursor m/z: 219.1743
Precursor type: [M+H]+
m/z	relative intensity	assigned
67.0542	7	C5H7+
79.0543	5	C6H7+
81.0699	16	C6H9+
91.0544	5	C7H7+
93.0699	17	C7H9+
95.0856	60	C7H11+
97.0649	76	C6H9O+
105.0699	40	C8H9+
107.0856	49	C8H11+
109.0648	8	C7H9O+
109.1012	117	C8H13+
111.0805	114	C7H11O+
119.0856	60	C9H11+
121.0649	6	C8H9O+
121.1012	48	C9H13+
123.0805	54	C8H11O+
123.1169	45	C9H15+
125.0962	11	C8H13O+
131.0856	31	C10H11+
133.1013	19	C10H13+
135.0805	45	C9H11O+
135.1169	34	C10H15+
137.0962	15	C9H13O+
137.1327	2	C10H17+
139.1117	3	C9H15O+
145.1013	144	C11H13+
147.1169	60	C11H15+
149.0962	44	C10H13O+
149.1326	14	C11H17+
151.1119	3	C10H15O+
159.1169	145	C12H15+
161.1326	109	C12H17+
163.1118	329	C11H15O+
173.1326	114	C13H17+
175.1482	29	C13H19+
176.1196	4	C12H16O+
177.1274	31	C12H17O+
177.1638	15	C13H21+
191.1432	13	C13H19O+
191.1795	23	C14H23+
201.1639	340	C15H21+
204.151	3	C14H20O+
219.1744	999	C15H23O+
