Mass spectrum: Homoharringtonine; LC-ESI-ITFT; MS2; CE: 100%; R=15000; [M+H]+
Name: Homoharringtonine
Name: Omacetaxine mepesuccinate
Name: 1-O-[(2S,3S,6R)-4-methoxy-16,18-dioxa-10-azapentacyclo[11.7.0.02,6.06,10.015,19]icosa-1(20),4,13,15(19)-tetraen-3-yl] 4-O-methyl (2R)-2-hydroxy-2-(4-hydroxy-4-methylpentyl)butanedioate
Formula: C29H39NO9
Exact mass: 545.2625
SMILES: CC(C)(CCC[C@@](CC(=O)OC)(C(=O)O[C@H]1[C@H]2c3cc4c(cc3CCN5[C@@]2(CCC5)C=C1OC)OCO4)O)O
InChI: InChI=1S/C29H39NO9/c1-27(2,33)8-5-10-29(34,16-23(31)36-4)26(32)39-25-22(35-3)15-28-9-6-11-30(28)12-7-18-13-20-21(38-17-37-20)14-19(18)24(25)28/h13-15,24-25,33-34H,5-12,16-17H2,1-4H3/t24-,25-,28+,29-/m1/s1
Instrument: LTQ Orbitrap XL Thermo Scientific
Instrument type: LC-ESI-ITFT
Ms type: MS2
Ion mode: POSITIVE
Ionization: ESI
Fragmentation mode: HCD
Collision energy: 100% (nominal)
Resolution: 15000
Column name: Kinetex Evo C18 2.6 um 50 x 2.1 mm
Retention time: 7.154 min
Base peak: 546.2694
Precursor m/z: 546.2698
Precursor type: [M+H]+
m/z	relative intensity	assigned
68.0493	25	C4H6N+
69.0699	48	C5H9+
70.065	39	C4H8N+
77.0386	43	C6H5+
79.0542	108	C6H7+
91.0542	343	C7H7+
93.07	179	C7H9+
94.0653	41	C6H8N+
95.0491	54	C6H7O+
103.0543	192	C8H7+
107.073	156	C7H9N+
107.0855	93	C8H11+
109.0649	44	C7H9O+
110.06	128	C6H8NO+
115.0543	493	C9H7+
117.0573	30	C8H7N+
118.0651	97	C8H8N+
119.0494	63	C8H7O+
120.0807	52	C8H10N+
121.0651	39	C8H9O+
122.0599	38	C7H8NO+
128.0621	200	C10H8+
129.0699	166	C10H9+
131.049	95	C9H7O+
135.0442	82	C8H7O2+
135.0679	98	C8H9NO+
139.0544	198	C11H7+
140.0617	39	C11H8+
141.0574	56	C10H7N+
141.0699	226	C11H9+
142.0651	128	C10H8N+
143.0491	69	C10H7O+
143.0727	35	C10H9N+
146.0602	33	C9H8NO+
147.0444	68	C9H7O2+
149.0596	81	C9H9O2+
150.0913	910	C9H12NO+
152.062	581	C12H8+
153.0574	42	C11H7N+
153.0698	538	C12H9+
154.0651	214	C11H8N+
154.0775	132	C12H10+
155.0491	57	C11H7O+
155.073	64	C11H9N+
155.0855	142	C12H11+
156.0809	97	C11H10N+
157.0643	91	C11H9O+
159.0442	122	C10H7O2+
160.0511	38	C10H8O2+
164.0621	65	C13H8+
165.0699	999	C13H9+
166.0656	98	C12H8N+
166.0774	224	C13H10+
167.0492	126	C12H7O+
167.0731	291	C12H9N+
167.0852	145	C13H11+
168.0568	94	C12H8O+
168.0807	320	C12H10N+
169.0516	53	C11H7NO+
169.0649	121	C12H9O+
169.0883	117	C12H11N+
170.0604	85	C11H8NO+
170.0962	162	C12H12N+
171.0437	106	C11H7O2+
171.0807	52	C12H11O+
171.1041	52	C12H13N+
172.0519	113	C11H8O2+
172.076	41	C11H10NO+
172.1119	44	C12H14N+
173.0472	59	C10H7NO2+
173.0595	77	C11H9O2+
174.055	124	C10H8NO2+
176.0709	137	C10H10NO2+
178.0777	351	C14H10+
179.0857	288	C14H11+
180.0574	86	C13H8O+
180.0808	313	C13H10N+
180.0937	64	C14H12+
181.0648	278	C13H9O+
181.0886	154	C13H11N+
182.0599	128	C12H8NO+
182.0727	182	C13H10O+
182.0966	303	C13H12N+
183.0678	113	C12H9NO+
183.0805	79	C13H11O+
184.0512	34	C12H8O2+
184.0752	68	C12H10NO+
184.1121	34	C13H14N+
185.0598	169	C12H9O2+
186.0681	30	C12H10O2+
187.0629	45	C11H9NO2+
189.07	133	C15H9+
190.0781	119	C15H10+
191.0856	195	C15H11+
192.081	184	C14H10N+
193.0648	132	C14H9O+
193.0886	191	C14H11N+
194.0727	45	C14H10O+
194.0963	181	C14H12N+
195.0686	31	C13H9NO+
195.0805	196	C14H11O+
196.0758	204	C13H10NO+
196.0877	27	C14H12O+
196.1118	173	C14H14N+
197.0598	156	C13H9O2+
197.0839	57	C13H11NO+
198.0552	251	C12H8NO2+
198.0679	67	C13H10O2+
198.0914	125	C13H12NO+
199.0382	69	C12H7O3+
199.0628	281	C12H9NO2+
199.0751	43	C13H11O2+
200.0709	140	C12H10NO2+
200.107	71	C13H14NO+
206.0965	104	C15H12N+
207.0806	92	C15H11O+
207.1052	73	C15H13N+
208.0759	123	C14H10NO+
208.0885	37	C15H12O+
208.1121	346	C15H14N+
209.0594	213	C14H9O2+
209.0839	82	C14H11NO+
210.0676	101	C14H10O2+
210.0914	417	C14H12NO+
211.0626	375	C13H9NO2+
211.0753	153	C14H11O2+
211.0992	33	C14H13NO+
212.0708	279	C13H10NO2+
212.1065	84	C14H14NO+
213.0785	79	C13H11NO2+
214.0864	279	C13H12NO2+
216.1025	35	C13H14NO2+
219.0803	31	C16H11O+
220.0759	63	C15H10NO+
221.0829	50	C15H11NO+
222.0671	61	C15H10O2+
222.0913	155	C15H12NO+
223.0752	135	C15H11O2+
223.0996	60	C15H13NO+
224.0707	313	C14H10NO2+
224.1071	158	C15H14NO+
225.0554	63	C14H9O3+
225.0786	207	C14H11NO2+
226.0862	814	C14H12NO2+
227.0575	185	C13H9NO3+
228.0663	74	C13H10NO3+
228.102	240	C14H14NO2+
229.1103	45	C14H15NO2+
236.1072	134	C16H14NO+
237.0778	97	C15H11NO2+
238.0862	448	C15H12NO2+
238.1224	144	C16H16NO+
239.0944	183	C15H13NO2+
240.1018	893	C15H14NO2+
242.081	70	C14H12NO3+
250.0862	221	C16H12NO2+
251.0943	127	C16H13NO2+
252.1019	218	C16H14NO2+
253.0737	35	C15H11NO3+
254.0812	62	C15H12NO3+
254.1171	113	C16H16NO2+
264.1031	70	C17H14NO2+
266.1176	261	C17H16NO2+
268.0965	148	C16H14NO3+
282.1117	102	C17H16NO3+
