Mass spectrum: Echimidine N-oxide; LC-ESI-ITFT; MS2; CE: 60%; R=15000; [M+H]+
Name: Echimidine N-oxide
Name: [(7R,8R)-7-[(Z)-2-methylbut-2-enoyl]oxy-4-oxido-5,6,7,8-tetrahydro-3H-pyrrolizin-4-ium-1-yl]methyl (2R)-2,3-dihydroxy-2-[(1S)-1-hydroxyethyl]-3-methylbutanoate
Formula: C20H31NO8
Exact mass: 413.2050
SMILES: C/C=C(/C)\C(=O)O[C@@H]1CC[N+]2([C@@H]1C(=CC2)COC(=O)[C@@]([C@H](C)O)(C(C)(C)O)O)[O-]
InChI: InChI=1S/C20H31NO8/c1-6-12(2)17(23)29-15-8-10-21(27)9-7-14(16(15)21)11-28-18(24)20(26,13(3)22)19(4,5)25/h6-7,13,15-16,22,25-26H,8-11H2,1-5H3/b12-6-/t13-,15+,16+,20-,21?/m0/s1
Instrument: LTQ Orbitrap XL Thermo Scientific
Instrument type: LC-ESI-ITFT
Ms type: MS2
Ion mode: POSITIVE
Ionization: ESI
Fragmentation mode: HCD
Collision energy: 60% (nominal)
Resolution: 15000
Column name: Kinetex Evo C18 2.6 um 50 x 2.1 mm
Retention time: 6.568 min
Base peak: 414.2116
Precursor m/z: 414.2122
Precursor type: [M+H]+
m/z	relative intensity	assigned
55.0541	97	C4H7+
67.0541	7	C5H7+
68.0494	18	C4H6N+
79.0543	24	C6H7+
80.0495	28	C5H6N+
81.0572	8	C5H7N+
81.0698	36	C6H9+
82.0412	4	C5H6O+
82.0651	16	C5H8N+
83.0491	310	C5H7O+
84.0443	27	C4H6NO+
91.0542	17	C7H7+
93.0573	106	C6H7N+
93.0699	8	C7H9+
94.0651	111	C6H8N+
95.0492	4	C6H7O+
95.0728	37	C6H9N+
96.0443	9	C5H6NO+
96.0808	4	C6H10N+
97.0648	9	C6H9O+
98.0603	5	C5H8NO+
106.0651	158	C7H8N+
107.0729	15	C7H9N+
107.0856	8	C8H11+
108.0808	81	C7H10N+
109.0648	30	C7H9O+
109.0886	15	C7H11N+
110.0601	22	C6H8NO+
111.0679	59	C6H9NO+
112.0756	18	C6H10NO+
118.0651	71	C8H8N+
119.0729	172	C8H9N+
120.0807	273	C8H10N+
121.0644	8	C8H9O+
121.0886	28	C8H11N+
122.0963	15	C8H12N+
124.0756	24	C7H10NO+
126.0912	13	C7H12NO+
134.0962	4	C9H12N+
136.0757	284	C8H10NO+
137.0835	460	C8H11NO+
138.0913	43	C8H12NO+
141.091	267	C8H13O2+
146.0963	6	C10H12N+
147.1041	6	C10H13N+
148.112	8	C10H14N+
152.107	20	C9H14NO+
154.0862	228	C8H12NO2+
160.1122	9	C11H14N+
161.0831	4	C10H11NO+
162.0912	5	C10H12NO+
169.0736	4	C8H11NO3+
172.0966	11	C8H14NO3+
174.0919	7	C11H12NO+
174.1276	18	C12H16N+
176.1068	15	C11H14NO+
190.1226	31	C12H16NO+
191.1304	8	C12H17NO+
192.1023	7	C11H14NO2+
192.1382	39	C12H18NO+
202.1225	10	C13H16NO+
218.1175	66	C13H16NO2+
219.1253	24	C13H17NO2+
220.1331	314	C13H18NO2+
236.128	9	C13H18NO3+
237.1359	54	C13H19NO3+
254.1385	999	C13H20NO4+
338.1604	19	C17H24NO6+
