Mass spectrum: Fraxidin; LC-ESI-ITFT; MS2; CE: 100%; R=15000; [M+H]+
Name: Fraxidin
Name: 8-hydroxy-6,7-dimethoxychromen-2-one
Formula: C11H10O5
Exact mass: 222.0528
SMILES: COC1=C(OC)C(O)=C2OC(=O)C=CC2=C1
InChI: InChI=1S/C11H10O5/c1-14-7-5-6-3-4-8(12)16-10(6)9(13)11(7)15-2/h3-5,13H,1-2H3
Instrument: LTQ Orbitrap XL Thermo Scientific
Instrument type: LC-ESI-ITFT
Ms type: MS2
Ion mode: POSITIVE
Ionization: ESI
Fragmentation mode: HCD
Collision energy: 100% (nominal)
Resolution: 15000
Column name: Kinetex Evo C18 2.6 um 50 x 2.1 mm
Retention time: 7.626 min
Base peak: 116.9858
Precursor m/z: 223.0601
Precursor type: [M+H]+
m/z	relative intensity	assigned
65.0386	11	C5H5+
66.0464	70	C5H6+
76.0307	107	C6H4+
77.0387	140	C6H5+
78.0464	999	C6H6+
79.0542	38	C6H7+
81.0335	50	C5H5O+
88.0307	49	C7H4+
89.0387	88	C7H5+
90.0465	23	C7H6+
92.0256	91	C6H4O+
94.0413	56	C6H6O+
95.0491	49	C6H7O+
104.0257	61	C7H4O+
105.0335	505	C7H5O+
106.0413	306	C7H6O+
107.0491	87	C7H7O+
108.0207	17	C6H4O2+
109.0282	36	C6H5O2+
116.0257	96	C8H4O+
117.0335	47	C8H5O+
118.0414	52	C8H6O+
119.0123	10	C7H3O2+
120.0205	83	C7H4O2+
121.0287	23	C7H5O2+
122.0362	24	C7H6O2+
123.0441	264	C7H7O2+
132.0206	132	C8H4O2+
133.0284	515	C8H5O2+
134.0362	557	C8H6O2+
135.0441	209	C8H7O2+
137.0234	52	C7H5O3+
144.0205	41	C9H4O2+
145.0289	11	C9H5O2+
149.0236	19	C8H5O3+
150.0312	171	C8H6O3+
151.0391	52	C8H7O3+
152.0466	24	C8H8O3+
160.0155	42	C9H4O3+
161.0233	151	C9H5O3+
162.0312	477	C9H6O3+
163.0389	14	C9H7O3+
165.0183	48	C8H5O4+
178.0262	154	C9H6O4+
179.0339	210	C9H7O4+
190.0267	25	C10H6O4+
205.0131	25	C10H5O5+
207.0287	197	C10H7O5+
