Mass spectrum: Fraxidin; LC-ESI-ITFT; MS2; CE: 15%; R=15000; [M+H]+
Name: Fraxidin
Name: 8-hydroxy-6,7-dimethoxychromen-2-one
Formula: C11H10O5
Exact mass: 222.0528
SMILES: COC1=C(OC)C(O)=C2OC(=O)C=CC2=C1
InChI: InChI=1S/C11H10O5/c1-14-7-5-6-3-4-8(12)16-10(6)9(13)11(7)15-2/h3-5,13H,1-2H3
Instrument: LTQ Orbitrap XL Thermo Scientific
Instrument type: LC-ESI-ITFT
Ms type: MS2
Ion mode: POSITIVE
Ionization: ESI
Fragmentation mode: HCD
Collision energy: 15% (nominal)
Resolution: 15000
Column name: Kinetex Evo C18 2.6 um 50x2.1 mm, Phenomenex
Retention time: 7.584 min
Base peak: 116.9858
Precursor m/z: 223.0601
Precursor type: [M+H]+
m/z	relative intensity	assigned
223.0599	999	C11H11O5+
