Mass spectrum: Coniferaldehyde; LC-ESI-ITFT; MS2; CE: 125%; R=15000; [M+H]+
Name: Coniferaldehyde
Formula: C10H10O3
Exact mass: 178.0630
SMILES: COC1=CC(\C=C\C=O)=CC=C1O
InChI: InChI=1S/C10H10O3/c1-13-10-7-8(3-2-6-11)4-5-9(10)12/h2-7,12H,1H3/b3-2+
Instrument: LTQ Orbitrap XL Thermo Scientific
Instrument type: LC-ESI-ITFT
Ms type: MS2
Ion mode: POSITIVE
Ionization: ESI
Fragmentation mode: HCD
Collision energy: 125 % (nominal)
Resolution: 15000
Column name: Kinetex Evo C18 2.6 um 50 x 2.1 mm
Retention time: 7.426 min
Base peak: 179.07
Precursor m/z: 179.0703
Precursor type: [M+H]+
m/z	relative intensity	assigned
65.0386	354	C5H5+
66.0465	19	C5H6+
77.0386	263	C6H5+
79.0543	640	C6H7+
80.062	91	C6H8+
81.0336	19	C5H5O+
82.0413	75	C5H6O+
89.0386	290	C7H5+
90.0464	287	C7H6+
91.0542	999	C7H7+
92.0257	32	C6H4O+
93.0339	10	C6H5O+
94.0413	75	C6H6O+
95.0492	55	C6H7O+
102.0463	14	C8H6+
103.0543	34	C8H7+
105.0337	19	C7H5O+
107.0492	506	C7H7O+
108.0568	17	C7H8O+
110.0361	39	C6H6O2+
115.0539	17	C9H7+
117.0334	14	C8H5O+
118.0413	284	C8H6O+
119.0492	67	C8H7O+
121.0285	14	C7H5O2+
135.0441	83	C8H7O2+
136.0519	56	C8H8O2+
146.0361	47	C9H6O2+
147.0442	23	C9H7O2+
