Mass spectrum: Brucine; LC-ESI-ITFT; MS2; CE: 105%; R=15000; [M+H]+
Name: Brucine
Name: (-)-Brucine
Name: (4aR,5aS,8aR,15bR)-10,11-dimethoxy-4a,5,5a,7,8,13a,15,15a,15b,16-decahydro-2H-4,6-methanoindolo[3,2,1-ij]oxepino[2,3,4-de]pyrrolo[2,3-h]quinolin-14-one
Formula: C23H26N2O4
Exact mass: 394.1893
SMILES: COc1cc2c(cc1OC)N3C4[C@]25CCN6[C@H]5C[C@@H]7[C@H]4C(CC3=O)OCC=C7C6
InChI: InChI=1S/C23H26N2O4/c1-27-16-8-14-15(9-17(16)28-2)25-20(26)10-18-21-13-7-19-23(14,22(21)25)4-5-24(19)11-12(13)3-6-29-18/h3,8-9,13,18-19,21-22H,4-7,10-11H2,1-2H3/t13-,18?,19-,21-,22?,23+/m0/s1
Instrument: LTQ Orbitrap XL Thermo Scientific
Instrument type: LC-ESI-ITFT
Ms type: MS2
Ion mode: POSITIVE
Ionization: ESI
Fragmentation mode: HCD
Collision energy: 105% (nominal)
Resolution: 15000
Column name: Kinetex Evo C18 2.6 um 50 x 2.1 mm
Retention time: 5.946 min
Base peak: 395.1964
Precursor m/z: 395.1965
Precursor type: [M+H]+
m/z	relative intensity	assigned
79.0543	99	C6H7+
80.0496	88	C5H6N+
81.07	42	C6H9+
82.0652	45	C5H8N+
91.0542	130	C7H7+
93.0573	178	C6H7N+
93.0698	29	C7H9+
94.0653	55	C6H8N+
96.0808	52	C6H10N+
105.0447	59	C6H5N2+
105.0699	41	C8H9+
106.0651	215	C7H8N+
108.0808	40	C7H10N+
115.0543	37	C9H7+
117.0699	32	C9H9+
118.0652	61	C8H8N+
120.081	47	C8H10N+
122.06	65	C7H8NO+
124.076	33	C7H10NO+
129.07	48	C10H9+
130.0652	93	C9H8N+
133.0519	26	C8H7NO+
134.0601	30	C8H8NO+
142.0651	151	C10H8N+
144.0811	54	C10H10N+
145.0647	57	C10H9O+
146.0601	151	C9H8NO+
147.068	53	C9H9NO+
148.0386	62	C8H6NO2+
154.0651	237	C11H8N+
155.0597	25	C10H7N2+
155.0732	109	C11H9N+
156.0808	105	C11H10N+
158.0601	313	C10H8NO+
158.0725	37	C11H10O+
159.0679	49	C10H9NO+
160.0756	113	C10H10NO+
162.055	51	C9H8NO2+
166.0657	51	C12H8N+
167.0729	79	C12H9N+
168.0803	40	C12H10N+
169.0523	95	C11H7NO+
170.0601	999	C11H8NO+
171.0678	86	C11H9NO+
172.0757	436	C11H10NO+
173.0838	68	C11H11NO+
174.055	54	C10H8NO2+
175.0626	43	C10H9NO2+
180.0809	98	C13H10N+
182.0603	198	C12H8NO+
183.068	221	C12H9NO+
184.0757	476	C12H10NO+
185.0835	812	C12H11NO+
186.0549	531	C11H8NO2+
186.0912	73	C12H12NO+
187.0628	30	C11H9NO2+
188.0708	71	C11H10NO2+
190.0862	67	C11H12NO2+
192.0653	37	C10H10NO3+
192.0809	52	C14H10N+
193.0893	39	C14H11N+
194.0602	86	C13H8NO+
194.0965	34	C14H12N+
195.0674	30	C13H9NO+
196.0757	190	C13H10NO+
197.0838	129	C13H11NO+
198.055	965	C12H8NO2+
198.0913	58	C13H12NO+
199.063	77	C12H9NO2+
200.0706	388	C12H10NO2+
201.0785	165	C12H11NO2+
204.0806	97	C15H10N+
205.0882	53	C15H11N+
206.0601	74	C14H8NO+
206.0963	91	C15H12N+
207.0674	51	C14H9NO+
208.0756	197	C14H10NO+
209.0836	82	C14H11NO+
210.0911	158	C14H12NO+
211.0629	40	C13H9NO2+
212.0703	216	C13H10NO2+
213.0784	615	C13H11NO2+
214.0498	453	C12H8NO3+
214.0864	52	C13H12NO2+
216.1019	222	C13H14NO2+
217.0889	55	C16H11N+
218.0962	64	C16H12N+
219.0674	36	C15H9NO+
220.0755	209	C15H10NO+
221.0834	119	C15H11NO+
222.0547	38	C14H8NO2+
222.0913	132	C15H12NO+
223.0988	61	C15H13NO+
224.0704	129	C14H10NO2+
225.0781	45	C14H11NO2+
226.0866	82	C14H12NO2+
227.0942	45	C14H13NO2+
228.0659	150	C13H10NO3+
229.0733	196	C13H11NO3+
230.0958	45	C17H12N+
232.0761	85	C16H10NO+
233.0836	100	C16H11NO+
234.0556	39	C15H8NO2+
234.0914	265	C16H12NO+
235.0993	47	C16H13NO+
236.0704	276	C15H10NO2+
236.1069	106	C16H14NO+
238.0863	111	C15H12NO2+
238.1229	38	C16H16NO+
244.0969	47	C14H14NO3+
246.0554	42	C16H8NO2+
246.0905	78	C17H12NO+
247.1002	42	C17H13NO+
248.0707	109	C16H10NO2+
248.1069	120	C17H14NO+
249.0787	43	C16H11NO2+
250.0866	120	C16H12NO2+
251.094	54	C16H13NO2+
252.1012	25	C16H14NO2+
258.0906	50	C18H12NO+
260.1079	34	C18H14NO+
262.0858	69	C17H12NO2+
263.094	54	C17H13NO2+
264.0645	52	C16H10NO3+
264.1025	84	C17H14NO2+
274.0868	32	C18H12NO2+
276.1016	31	C18H14NO2+
278.1181	39	C18H16NO2+
