Mass spectrum: Retrorsine; LC-ESI-ITFT; MS2; CE: 90%; R=15000; [M+H]+
Name: Retrorsine
Name: (1R,4Z,6R,7S,17R)-4-ethylidene-7-hydroxy-7-(hydroxymethyl)-6-methyl-2,9-dioxa-14-azatricyclo[9.5.1.014,17]heptadec-11-ene-3,8-dione
Formula: C18H25NO6
Exact mass: 351.1682
SMILES: C/C=C\1/C[C@H]([C@@](C(=O)OCC2=CCN3[C@H]2[C@@H](CC3)OC1=O)(CO)O)C
InChI: InChI=1S/C18H25NO6/c1-3-12-8-11(2)18(23,10-20)17(22)24-9-13-4-6-19-7-5-14(15(13)19)25-16(12)21/h3-4,11,14-15,20,23H,5-10H2,1-2H3/b12-3-/t11-,14-,15-,18-/m1/s1
Instrument: LTQ Orbitrap XL Thermo Scientific
Instrument type: LC-ESI-ITFT
Ms type: MS2
Ion mode: POSITIVE
Ionization: ESI
Fragmentation mode: HCD
Collision energy: 90% (nominal)
Resolution: 15000
Column name: Kinetex Evo C18 2.6 um 50 x 2.1 mm
Retention time: 1.527 min
Base peak: 143.0015
Precursor m/z: 352.1755
Precursor type: [M+H]+
m/z	relative intensity	assigned
53.0384	34	C4H5+
55.054	29	C4H7+
65.0385	39	C5H5+
67.0416	43	C4H5N+
67.0541	608	C5H7+
68.0494	135	C4H6N+
69.0699	46	C5H9+
77.0386	165	C6H5+
79.0542	328	C6H7+
80.0494	394	C5H6N+
81.0336	32	C5H5O+
81.0572	71	C5H7N+
81.0699	305	C6H9+
82.0651	269	C5H8N+
83.0489	68	C5H7O+
84.0443	39	C4H6NO+
91.0542	509	C7H7+
92.0496	40	C6H6N+
93.0572	116	C6H7N+
93.0699	284	C7H9+
94.0651	999	C6H8N+
95.0491	51	C6H7O+
95.0855	376	C7H11+
96.0807	353	C6H10N+
103.0541	165	C8H7+
105.0571	51	C7H7N+
105.0698	177	C8H9+
106.0652	96	C7H8N+
107.0728	74	C7H9N+
108.0807	279	C7H10N+
109.0644	34	C7H9O+
110.0602	85	C6H8NO+
110.0964	133	C7H12N+
118.065	207	C8H8N+
119.073	68	C8H9N+
120.0807	681	C8H10N+
121.0886	36	C8H11N+
122.0963	172	C8H12N+
123.0804	116	C8H11O+
136.0755	56	C8H10NO+
138.0913	297	C8H12NO+
151.0755	81	C9H11O2+
156.1022	57	C8H14NO2+
220.133	40	C13H18NO2+
