Mass spectrum: Jervine; LC-ESI-ITFT; MS2; CE: 90%; R=15000; [M+H]+
Name: Jervine
Name: (3S,3`R,3`aS,6`S,6aS,6bS,7`aR,9R,11aS,11bR)-3-hydroxy-3`,6`,10,11b-tetramethylspiro[1,2,3,4,6,6a,6b,7,8,11a-decahydrobenzo[a]fluorene-9,2`-3a,4,5,6,7,7a-hexahydro-3H-furo[3,2-b]pyridine]-11-one
Formula: C27H39NO3
Exact mass: 425.2930
SMILES: C[C@H]1C[C@@H]2[C@H]([C@H]([C@]3(O2)CC[C@H]4[C@@H]5CC=C6C[C@H](CC[C@@]6([C@H]5C(=O)C4=C3C)C)O)C)NC1
InChI: InChI=1S/C27H39NO3/c1-14-11-21-24(28-13-14)16(3)27(31-21)10-8-19-20-6-5-17-12-18(29)7-9-26(17,4)23(20)25(30)22(19)15(27)2/h5,14,16,18-21,23-24,28-29H,6-13H2,1-4H3/t14-,16+,18-,19-,20-,21+,23+,24-,26-,27-/m0/s1
Instrument: LTQ Orbitrap XL Thermo Scientific
Instrument type: LC-ESI-ITFT
Ms type: MS2
Ion mode: POSITIVE
Ionization: ESI
Fragmentation mode: HCD
Collision energy: 90% (nominal)
Resolution: 15000
Column name: Kinetex Evo C18 2.6 um 50 x 2.1 mm
Retention time: 8.892 min
Base peak: 426.2999
Precursor m/z: 426.3003
Precursor type: [M+H]+
m/z	relative intensity	assigned
55.0541	29	C4H7+
57.0697	37	C4H9+
65.0384	14	C5H5+
67.0542	999	C5H7+
68.0494	22	C4H6N+
69.0336	20	C4H5O+
69.0698	111	C5H9+
70.065	153	C4H8N+
72.0444	63	C3H6NO+
77.0386	60	C6H5+
79.0542	456	C6H7+
80.0495	51	C5H6N+
80.0622	13	C6H8+
81.0573	92	C5H7N+
81.0698	706	C6H9+
82.0651	44	C5H8N+
83.0491	161	C5H7O+
84.0808	805	C5H10N+
85.0648	252	C5H9O+
91.0542	575	C7H7+
93.0699	497	C7H9+
94.0649	27	C6H8N+
94.0776	18	C7H10+
95.0489	18	C6H7O+
95.0855	148	C7H11+
96.0808	298	C6H10N+
97.0649	20	C6H9O+
98.0963	48	C6H12N+
100.0757	12	C5H10NO+
103.0542	46	C8H7+
105.0698	920	C8H9+
106.0774	19	C8H10+
107.0493	25	C7H7O+
107.0855	337	C8H11+
109.1011	323	C8H13+
110.0959	17	C7H12N+
112.0757	106	C6H10NO+
114.0913	647	C6H12NO+
115.0541	57	C9H7+
116.0619	34	C9H8+
117.0698	245	C9H9+
118.0777	21	C9H10+
119.0855	359	C9H11+
121.0648	54	C8H9O+
121.1012	211	C9H13+
123.0804	34	C8H11O+
124.1121	21	C8H14N+
128.0621	122	C10H8+
129.0699	208	C10H9+
130.0776	158	C10H10+
131.0855	236	C10H11+
133.0648	16	C9H9O+
133.1012	162	C10H13+
135.0801	23	C9H11O+
140.107	15	C8H14NO+
141.0699	96	C11H9+
142.0776	236	C11H10+
143.0854	228	C11H11+
144.057	17	C10H8O+
144.0931	48	C11H12+
145.0648	37	C10H9O+
145.1011	339	C11H13+
146.0731	17	C10H10O+
147.0803	41	C10H11O+
147.1169	44	C11H15+
149.0962	44	C10H13O+
153.0698	35	C12H9+
154.0777	43	C12H10+
155.0855	137	C12H11+
156.0933	95	C12H12+
157.101	214	C12H13+
158.0725	28	C11H10O+
159.0804	33	C11H11O+
159.1166	68	C12H15+
160.0884	24	C11H12O+
161.0958	21	C11H13O+
165.07	70	C13H9+
166.0772	35	C13H10+
167.0853	70	C13H11+
168.093	38	C13H12+
169.101	114	C13H13+
170.1088	33	C13H14+
171.0805	22	C12H11O+
171.1166	55	C13H15+
173.0958	49	C12H13O+
175.1117	81	C12H15O+
178.0778	27	C14H10+
179.0854	81	C14H11+
180.0933	45	C14H12+
181.1012	80	C14H13+
182.1088	29	C14H14+
183.0809	18	C13H11O+
183.1166	56	C14H15+
185.1329	15	C14H17+
191.0856	21	C15H11+
192.0935	31	C15H12+
193.1012	79	C15H13+
194.1092	32	C15H14+
195.1168	56	C15H15+
197.0954	15	C14H13O+
197.132	25	C15H17+
204.0944	13	C16H12+
205.1011	45	C16H13+
206.1092	24	C16H14+
207.1169	47	C16H15+
208.1249	19	C16H16+
209.1335	24	C16H17+
217.101	27	C17H13+
219.1172	37	C17H15+
221.1323	33	C17H17+
230.1097	12	C18H14+
231.1168	34	C18H15+
233.1323	30	C18H17+
235.148	21	C18H19+
245.1321	39	C19H17+
247.149	16	C19H19+
