Mass spectrum: Bergapten/Heraclin; LC-ESI-ITFT; MS2; CE: 105%; R=15000; [M+H]+
Name: Bergapten/Heraclin
Formula: C12H8O4
Exact mass: 216.0423
SMILES: COC1=C2C=COC2=CC2=C1C=CC(=O)O2
InChI: InChI=1S/C12H8O4/c1-14-12-7-2-3-11(13)16-10(7)6-9-8(12)4-5-15-9/h2-6H,1H3
Instrument: LTQ Orbitrap XL Thermo Scientific
Instrument type: LC-ESI-ITFT
Ms type: MS2
Ion mode: POSITIVE
Ionization: ESI
Fragmentation mode: HCD
Collision energy: 105 % (nominal)
Resolution: 15000
Column name: Kinetex Evo C18 2.6 um 50 x 2.1 mm
Retention time: 9.930 min
Base peak: 416.3518
Precursor m/z: 217.0495
Precursor type: [M+H]+
m/z	relative intensity	assigned
54.0099	6	C3H2O+
63.0229	12	C5H3+
64.0307	5	C5H4+
65.0387	5	C5H5+
68.997	5	C3HO2+
74.0151	24	C6H2+
76.0308	9	C6H4+
77.0022	7	C5HO+
77.0386	49	C6H5+
79.0543	18	C6H7+
82.0049	5	C4H2O2+
89.0386	427	C7H5+
90.0464	930	C7H6+
91.0542	19	C7H7+
92.0257	52	C6H4O+
95.0493	7	C6H7O+
100.0308	105	C8H4+
102.0464	108	C8H6+
103.0542	39	C8H7+
105.0335	9	C7H5O+
105.0699	20	C8H9+
115.0542	107	C9H7+
117.0336	26	C8H5O+
118.0413	999	C8H6O+
119.0126	12	C7H3O2+
120.0206	17	C7H4O2+
127.0179	10	C9H3O+
128.0257	33	C9H4O+
129.0335	41	C9H5O+
130.0412	13	C9H6O+
131.0491	109	C9H7O+
132.0204	4	C8H4O2+
133.0643	4	C9H9O+
145.0284	191	C9H5O2+
146.0362	490	C9H6O2+
156.0206	117	C10H4O2+
158.0363	11	C10H6O2+
173.0234	36	C10H5O3+
174.0312	705	C10H6O3+
202.0261	215	C11H6O4+
