Mass spectrum: Solasodin; LC-ESI-ITFT; MS2; CE: 80%; R=15000; [M+H]+
Name: Solasodin
Name: Solasodine
Formula: C27H43NO2
Exact mass: 413.3294
SMILES: C[C@@H]1CC[C@@]2([C@H]([C@H]3[C@@H](O2)C[C@@H]4[C@@]3(CC[C@H]5[C@H]4CC=C6[C@@]5(CC[C@@H](C6)O)C)C)C)NC1
InChI: InChI=1S/C27H43NO2/c1-16-7-12-27(28-15-16)17(2)24-23(30-27)14-22-20-6-5-18-13-19(29)8-10-25(18,3)21(20)9-11-26(22,24)4/h5,16-17,19-24,28-29H,6-15H2,1-4H3/t16-,17+,19+,20-,21+,22+,23+,24+,25+,26+,27-/m1/s1
Instrument: LTQ Orbitrap XL Thermo Scientific
Instrument type: LC-ESI-ITFT
Ms type: MS2
Ion mode: POSITIVE
Ionization: ESI
Fragmentation mode: HCD
Collision energy: 80% (nominal)
Resolution: 15000
Column name: Kinetex Evo C18 2.6 um 50 x 2.1 mm
Retention time: 10.879 min
Base peak: 414.3363
Precursor m/z: 414.3367
Precursor type: [M+H]+
m/z	relative intensity	assigned
58.0652	18	C3H8N+
67.0542	156	C5H7+
69.0698	57	C5H9+
70.0651	594	C4H8N+
79.0543	212	C6H7+
81.0699	278	C6H9+
82.0653	22	C5H8N+
86.0965	41	C5H12N+
91.0543	240	C7H7+
93.07	427	C7H9+
95.0491	33	C6H7O+
95.0856	314	C7H11+
96.0808	63	C6H10N+
97.0647	30	C6H9O+
105.0699	409	C8H9+
107.0856	344	C8H11+
109.0647	19	C7H9O+
109.089	20	C7H11N+
109.1012	290	C8H13+
114.0915	55	C6H12NO+
115.0546	23	C9H7+
117.0699	147	C9H9+
119.0857	266	C9H11+
121.1012	334	C9H13+
123.0801	18	C8H11O+
123.1174	31	C9H15+
124.1121	253	C8H14N+
125.1195	28	C8H15N+
126.1278	161	C8H16N+
129.07	137	C10H9+
131.0856	330	C10H11+
133.1013	528	C10H13+
135.1169	44	C10H15+
141.0699	43	C11H9+
142.0778	190	C11H10+
143.0857	209	C11H11+
144.0939	39	C11H12+
145.1013	379	C11H13+
147.1169	451	C11H15+
150.1279	59	C10H16N+
155.0857	84	C12H11+
156.0936	28	C12H12+
157.1013	999	C12H13+
159.117	511	C12H15+
161.1326	22	C12H17+
162.1278	22	C11H16N+
164.1433	41	C11H18N+
169.1015	117	C13H13+
171.117	200	C13H15+
173.1327	88	C13H17+
175.112	104	C12H15O+
182.109	40	C14H14+
183.1169	153	C14H15+
185.1326	103	C14H17+
196.125	33	C15H16+
197.1327	149	C15H17+
198.1403	27	C15H18+
199.1481	22	C15H19+
209.1326	26	C16H17+
211.1482	152	C16H19+
212.1564	35	C16H20+
223.1484	58	C17H19+
224.156	44	C17H20+
225.1636	57	C17H21+
238.1723	56	C18H22+
253.195	132	C19H25+
396.3269	51	C27H42NO+
