Mass spectrum: 5,7-Dihydroxy-4-phenylcoumarin; LC-ESI-ITFT; MS2; CE: 85%; R=15000; [M+H]+
Name: 5,7-Dihydroxy-4-phenylcoumarin
Name: 5,7-dihydroxy-4-phenylchromen-2-one
Formula: C15H10O4
Exact mass: 254.0579
SMILES: OC1=CC(O)=C2C(OC(=O)C=C2C2=CC=CC=C2)=C1
InChI: InChI=1S/C15H10O4/c16-10-6-12(17)15-11(9-4-2-1-3-5-9)8-14(18)19-13(15)7-10/h1-8,16-17H
Instrument: LTQ Orbitrap XL Thermo Scientific
Instrument type: LC-ESI-ITFT
Ms type: MS2
Ion mode: POSITIVE
Ionization: ESI
Fragmentation mode: HCD
Collision energy: 85% (nominal)
Resolution: 15000
Column name: Kinetex Evo C18 2.6 um 50 x 2.1 mm
Retention time: 9.862 min
Base peak: 116.9858
Precursor m/z: 255.0652
Precursor type: [M+H]+
m/z	relative intensity	assigned
68.9971	343	C3HO2+
77.0386	107	C6H5+
91.0542	319	C7H7+
103.0542	103	C8H7+
105.0335	315	C7H5O+
111.0076	57	C5H3O3+
115.0542	386	C9H7+
121.0285	185	C7H5O2+
127.0541	20	C10H7+
128.062	328	C10H8+
129.0337	24	C9H5O+
129.0699	212	C10H9+
131.0494	54	C9H7O+
131.0855	61	C10H11+
139.0543	40	C11H7+
141.0699	247	C11H9+
143.0494	22	C10H7O+
143.0854	35	C11H11+
149.0233	148	C8H5O3+
151.0545	22	C12H7+
152.0621	568	C12H8+
153.0182	382	C7H5O4+
153.0699	746	C12H9+
154.0778	73	C12H10+
155.0857	61	C12H11+
157.0648	43	C11H9O+
164.0621	108	C13H8+
165.0699	999	C13H9+
168.0568	49	C12H8O+
169.0651	51	C12H9O+
171.0441	375	C11H7O2+
171.0807	38	C12H11O+
181.0648	343	C13H9O+
182.0724	53	C13H10O+
184.0522	78	C12H8O2+
197.0596	116	C13H9O2+
199.0753	158	C13H11O2+
210.067	32	C14H10O2+
