Mass spectrum: (+)-Lupanine; LC-ESI-ITFT; MS2; CE: 115%; R=15000; [M+H]+
Name: (+)-Lupanine
Formula: C15H24N2O
Exact mass: 248.1889
SMILES: C1CCN2CC3CC(C2C1)CN4C3CCCC4=O
InChI: InChI=1S/C15H24N2O/c18-15-6-3-5-14-11-8-12(10-17(14)15)13-4-1-2-7-16(13)9-11/h11-14H,1-10H2
Instrument: LTQ Orbitrap XL Thermo Scientific
Instrument type: LC-ESI-ITFT
Ms type: MS2
Ion mode: POSITIVE
Ionization: ESI
Fragmentation mode: HCD
Collision energy: 115 % (nominal)
Resolution: 15000
Column name: Kinetex Evo C18 2.6 um 50 x 2.1 mm
Retention time: 0.587 min
Base peak: 235.2166
Precursor m/z: 249.1961
Precursor type: [M+H]+
m/z	relative intensity	assigned
55.0179	13	C3H3O+
55.0541	27	C4H7+
56.0493	22	C3H6N+
67.0542	242	C5H7+
68.0494	42	C4H6N+
69.0699	28	C5H9+
70.0651	603	C4H8N+
77.0385	55	C6H5+
79.0541	236	C6H7+
80.0494	282	C5H6N+
81.0572	33	C5H7N+
81.0698	152	C6H9+
82.0651	203	C5H8N+
84.0807	999	C5H10N+
85.0647	128	C5H9O+
86.0963	22	C5H12N+
91.0542	225	C7H7+
93.0572	30	C6H7N+
93.0698	156	C7H9+
94.0651	202	C6H8N+
95.0726	29	C6H9N+
95.0855	69	C7H11+
96.0807	313	C6H10N+
98.06	88	C5H8NO+
98.0964	561	C6H12N+
100.0756	25	C5H10NO+
105.0698	119	C8H9+
106.0653	33	C7H8N+
107.073	49	C7H9N+
107.0855	40	C8H11+
108.0807	230	C7H10N+
109.0886	60	C7H11N+
110.0599	21	C6H8NO+
110.0963	151	C7H12N+
112.0756	435	C6H10NO+
112.1122	29	C7H14N+
114.0913	136	C6H12NO+
117.0696	22	C9H9+
119.0854	29	C9H11+
120.0807	94	C8H10N+
121.0886	30	C8H11N+
122.0963	237	C8H12N+
124.0758	26	C7H10NO+
124.112	87	C8H14N+
131.0853	21	C10H11+
132.0812	15	C9H10N+
134.0963	444	C9H12N+
135.104	58	C9H13N+
136.112	633	C9H14N+
138.1275	37	C9H16N+
148.1119	175	C10H14N+
150.0911	46	C9H12NO+
150.1276	549	C10H16N+
152.1073	17	C9H14NO+
152.1432	138	C10H18N+
162.1277	23	C11H16N+
174.1274	34	C12H16N+
176.1431	31	C12H18N+
190.1585	18	C13H20N+
247.1797	35	C15H23N2O+
249.196	360	C15H25N2O+
