Mass spectrum: (+)-Costunolide; LC-ESI-ITFT; MS2; CE: 25%; R=15000; [M+H]+
Name: (+)-Costunolide
Name: Costunolide
Name: (3aS,6E,10E,11aR)-6,10-dimethyl-3-methylidene-3a,4,5,8,9,11a-hexahydrocyclodeca[b]furan-2-one
Formula: C15H20O2
Exact mass: 232.1463
SMILES: C/C/1=C\CC/C(=C/[C@@H]2[C@@H](CC1)C(=C)C(=O)O2)/C
InChI: InChI=1S/C15H20O2/c1-10-5-4-6-11(2)9-14-13(8-7-10)12(3)15(16)17-14/h5,9,13-14H,3-4,6-8H2,1-2H3/b10-5+,11-9+/t13-,14+/m0/s1
Instrument: LTQ Orbitrap XL Thermo Scientific
Instrument type: LC-ESI-ITFT
Ms type: MS2
Ion mode: POSITIVE
Ionization: ESI
Fragmentation mode: HCD
Collision energy: 25% (nominal)
Resolution: 15000
Column name: Kinetex Evo C18 2.6 um 50 x 2.1 mm
Retention time: 11.701 min
Base peak: 116.9858
Precursor m/z: 233.1536
Precursor type: [M+H]+
m/z	relative intensity	assigned
79.0546	1	C6H7+
81.0698	27	C6H9+
91.0542	3	C7H7+
93.0698	13	C7H9+
95.0854	26	C7H11+
105.0698	19	C8H9+
107.0855	14	C8H11+
109.1012	14	C8H13+
119.0855	7	C9H11+
121.1012	5	C9H13+
125.06	5	C7H9O2+
131.0856	18	C10H11+
133.1011	9	C10H13+
135.0809	2	C9H11O+
135.1168	2	C10H15+
137.0595	6	C8H9O2+
139.0755	11	C8H11O2+
145.1012	22	C11H13+
147.1169	13	C11H15+
151.0754	9	C9H11O2+
157.101	3	C12H13+
159.0803	3	C11H11O+
159.1169	19	C12H15+
161.1326	27	C12H17+
163.0757	9	C10H11O2+
173.0963	5	C12H13O+
173.1329	3	C13H17+
177.0911	33	C11H13O2+
187.1482	390	C14H19+
189.164	9	C14H21+
191.1068	12	C12H15O2+
197.1325	35	C15H17+
205.1589	25	C14H21O+
215.1431	174	C15H19O+
233.1536	999	C15H21O2+
