Mass spectrum: Matairesinol; LC-ESI-ITFT; MS2; CE: 55%; R=15000; [M+H]+
Name: Matairesinol
Formula: C20H22O6
Exact mass: 358.1416
SMILES: COC1=CC(C[C@H]2COC(=O)[C@@H]2CC2=CC=C(O)C(OC)=C2)=CC=C1O
InChI: InChI=1S/C20H22O6/c1-24-18-9-12(3-5-16(18)21)7-14-11-26-20(23)15(14)8-13-4-6-17(22)19(10-13)25-2/h3-6,9-10,14-15,21-22H,7-8,11H2,1-2H3/t14-,15+/m0/s1
Instrument: LTQ Orbitrap XL Thermo Scientific
Instrument type: LC-ESI-ITFT
Ms type: MS2
Ion mode: POSITIVE
Ionization: ESI
Fragmentation mode: HCD
Collision energy: 55 % (nominal)
Resolution: 15000
Column name: Kinetex Evo C18 2.6 um 50 x 2.1 mm
Retention time: 9.367 min
Base peak: 381.1304
Precursor m/z: 359.1489
Precursor type: [M+H]+
m/z	relative intensity	assigned
91.0546	3	C7H7+
94.0414	5	C6H6O+
103.0543	36	C8H7+
107.0492	4	C7H7O+
122.0362	12	C7H6O2+
129.0702	5	C10H9+
131.0492	127	C9H7O+
137.0597	999	C8H9O2+
145.0647	9	C10H9O+
147.044	6	C9H7O2+
149.0599	8	C9H9O2+
151.0389	10	C8H7O3+
151.0756	7	C9H11O2+
157.0649	10	C11H9O+
163.0754	18	C10H11O2+
165.0546	6	C9H9O3+
175.0755	6	C11H11O2+
177.055	2	C10H9O3+
177.0909	9	C11H13O2+
189.0911	8	C12H13O2+
191.071	5	C11H11O3+
203.0856	4	C16H11+
205.0861	5	C12H13O3+
217.0864	5	C13H13O3+
231.0809	6	C17H11O+
263.1072	3	C18H15O2+
