Mass spectrum: (+)-Isocorydin; LC-ESI-ITFT; MS2; CE: 70%; R=15000; [M+H]+
Name: (+)-Isocorydin
Name: Isocorydine
Name: (6aS)-1,2,10-trimethoxy-6-methyl-5,6,6a,7-tetrahydro-4H-dibenzo[de,g]quinolin-11-ol
Formula: C20H23NO4
Exact mass: 341.1627
SMILES: CN1CCC2=CC(=C(C3=C2[C@@H]1CC4=C3C(=C(C=C4)OC)O)OC)OC
InChI: InChI=1S/C20H23NO4/c1-21-8-7-12-10-15(24-3)20(25-4)18-16(12)13(21)9-11-5-6-14(23-2)19(22)17(11)18/h5-6,10,13,22H,7-9H2,1-4H3/t13-/m0/s1
Instrument: LTQ Orbitrap XL Thermo Scientific
Instrument type: LC-ESI-ITFT
Ms type: MS2
Ion mode: POSITIVE
Ionization: ESI
Fragmentation mode: HCD
Collision energy: 70% (nominal)
Resolution: 15000
Column name: Kinetex Evo C18 2.6 um 50 x 2.1 mm
Retention time: 6.274 min
Base peak: 342.1698
Precursor m/z: 342.17
Precursor type: [M+H]+
m/z	relative intensity	assigned
153.0693	3	C12H9+
165.0698	40	C13H9+
166.0776	14	C13H10+
177.07	14	C14H9+
178.0777	68	C14H10+
179.0856	49	C14H11+
180.0934	44	C14H12+
181.0648	12	C13H9O+
182.073	4	C13H10O+
189.0699	32	C15H9+
190.0778	85	C15H10+
191.0856	342	C15H11+
192.0936	38	C15H12+
193.0648	70	C14H9O+
193.1012	26	C15H13+
194.0727	70	C14H10O+
195.0806	16	C14H11O+
196.0881	7	C14H12O+
197.0969	4	C14H13O+
201.0702	15	C16H9+
202.078	30	C16H10+
203.0857	46	C16H11+
204.0938	6	C16H12+
205.0649	67	C15H9O+
205.1011	8	C16H13+
206.0728	125	C15H10O+
207.0805	206	C15H11O+
208.0884	211	C15H12O+
209.0598	19	C14H9O2+
209.0969	37	C15H13O+
210.0678	10	C14H10O2+
217.0648	21	C16H9O+
218.0727	112	C16H10O+
219.0805	308	C16H11O+
220.0888	81	C16H12O+
221.0596	140	C15H9O2+
221.0963	74	C16H13O+
222.068	53	C15H10O2+
222.105	13	C16H14O+
223.076	21	C15H11O2+
223.1117	41	C16H15O+
224.0833	53	C15H12O2+
225.0915	28	C15H13O2+
226.0626	5	C14H10O3+
231.0805	108	C17H11O+
233.0599	52	C16H9O2+
233.0961	37	C17H13O+
234.0678	48	C16H10O2+
235.0754	393	C16H11O2+
236.0832	999	C16H12O2+
237.0917	282	C16H13O2+
238.0623	253	C15H10O3+
239.1075	5	C16H15O2+
241.0854	7	C15H13O3+
245.0601	5	C17H9O2+
246.0675	39	C17H10O2+
247.0754	442	C17H11O2+
248.0835	323	C17H12O2+
249.0547	72	C16H9O3+
250.0629	13	C16H10O3+
250.0989	45	C17H14O2+
251.0706	28	C16H11O3+
251.1066	101	C17H15O2+
252.0784	32	C16H12O3+
253.086	453	C16H13O3+
261.0906	17	C18H13O2+
262.0992	14	C18H14O2+
263.0704	175	C17H11O3+
264.0781	471	C17H12O3+
265.0859	844	C17H13O3+
266.0574	27	C16H10O4+
267.1015	34	C17H15O3+
268.1094	5	C17H16O3+
269.0815	5	C16H13O4+
277.0858	23	C18H13O3+
278.0931	11	C18H14O3+
279.1015	116	C18H15O3+
280.1101	37	C18H16O3+
281.0808	394	C17H13O4+
295.0964	6	C18H15O4+
296.1044	53	C18H16O4+
311.1283	6	C19H19O4+
