Mass spectrum: Brucine; LC-ESI-ITFT; MS2; CE: 100%; R=15000; [M+H]+
Name: Brucine
Name: (-)-Brucine
Name: (4aR,5aS,8aR,15bR)-10,11-dimethoxy-4a,5,5a,7,8,13a,15,15a,15b,16-decahydro-2H-4,6-methanoindolo[3,2,1-ij]oxepino[2,3,4-de]pyrrolo[2,3-h]quinolin-14-one
Formula: C23H26N2O4
Exact mass: 394.1893
SMILES: COc1cc2c(cc1OC)N3C4[C@]25CCN6[C@H]5C[C@@H]7[C@H]4C(CC3=O)OCC=C7C6
InChI: InChI=1S/C23H26N2O4/c1-27-16-8-14-15(9-17(16)28-2)25-20(26)10-18-21-13-7-19-23(14,22(21)25)4-5-24(19)11-12(13)3-6-29-18/h3,8-9,13,18-19,21-22H,4-7,10-11H2,1-2H3/t13-,18?,19-,21-,22?,23+/m0/s1
Instrument: LTQ Orbitrap XL Thermo Scientific
Instrument type: LC-ESI-ITFT
Ms type: MS2
Ion mode: POSITIVE
Ionization: ESI
Fragmentation mode: HCD
Collision energy: 100% (nominal)
Resolution: 15000
Column name: Kinetex Evo C18 2.6 um 50 x 2.1 mm
Retention time: 5.946 min
Base peak: 395.1964
Precursor m/z: 395.1965
Precursor type: [M+H]+
m/z	relative intensity	assigned
67.0543	26	C5H7+
77.0387	30	C6H5+
79.0543	103	C6H7+
80.0495	121	C5H6N+
81.0573	30	C5H7N+
81.0699	59	C6H9+
82.065	34	C5H8N+
91.0542	139	C7H7+
93.0574	248	C6H7N+
93.0699	47	C7H9+
94.0652	113	C6H8N+
96.0808	55	C6H10N+
105.0449	29	C6H5N2+
105.0701	32	C8H9+
106.0652	254	C7H8N+
108.0809	113	C7H10N+
115.0541	41	C9H7+
117.07	31	C9H9+
118.0651	26	C8H8N+
122.06	75	C7H8NO+
129.0698	37	C10H9+
130.0651	70	C9H8N+
132.0806	28	C9H10N+
133.0527	30	C8H7NO+
134.0603	38	C8H8NO+
142.0654	79	C10H8N+
143.0729	30	C10H9N+
144.0808	62	C10H10N+
145.0648	47	C10H9O+
146.0603	148	C9H8NO+
147.0679	85	C9H9NO+
148.0394	64	C8H6NO2+
148.0757	37	C9H10NO+
154.0653	173	C11H8N+
155.0608	34	C10H7N2+
155.073	86	C11H9N+
156.0808	90	C11H10N+
158.0601	244	C10H8NO+
158.073	38	C11H10O+
159.0675	59	C10H9NO+
160.0759	118	C10H10NO+
162.0549	40	C9H8NO2+
163.0635	41	C9H9NO2+
167.0733	55	C12H9N+
168.0811	68	C12H10N+
169.0525	64	C11H7NO+
170.0601	851	C11H8NO+
171.068	55	C11H9NO+
172.0759	463	C11H10NO+
173.0836	66	C11H11NO+
174.0549	46	C10H8NO2+
174.0678	42	C11H10O2+
176.0702	30	C10H10NO2+
178.086	34	C10H12NO2+
180.0808	80	C13H10N+
182.0602	230	C12H8NO+
183.0678	226	C12H9NO+
184.0758	501	C12H10NO+
185.0836	999	C12H11NO+
186.055	479	C11H8NO2+
186.0911	73	C12H12NO+
187.0624	26	C11H9NO2+
188.0707	83	C11H10NO2+
188.1075	24	C12H14NO+
190.0867	78	C11H12NO2+
191.0724	37	C14H9N+
192.0656	50	C10H10NO3+
192.0806	46	C14H10N+
193.0889	44	C14H11N+
194.06	57	C13H8NO+
194.0963	33	C14H12N+
196.0757	182	C13H10NO+
197.0835	160	C13H11NO+
198.0551	997	C12H8NO2+
198.0915	87	C13H12NO+
199.0629	59	C12H9NO2+
200.0706	363	C12H10NO2+
201.0785	239	C12H11NO2+
202.0862	49	C12H12NO2+
204.0812	70	C15H10N+
205.0886	55	C15H11N+
206.0596	70	C14H8NO+
206.096	66	C15H12N+
207.0678	41	C14H9NO+
208.0757	200	C14H10NO+
208.1121	27	C15H14N+
209.0835	108	C14H11NO+
210.0554	37	C13H8NO2+
210.0914	170	C14H12NO+
211.0627	71	C13H9NO2+
212.0708	269	C13H10NO2+
213.0784	992	C13H11NO2+
214.0499	538	C12H8NO3+
214.0866	92	C13H12NO2+
216.1019	431	C13H14NO2+
217.0887	78	C16H11N+
218.0963	57	C16H12N+
219.0681	50	C15H9NO+
220.0758	230	C15H10NO+
221.0834	119	C15H11NO+
222.0555	54	C14H8NO2+
222.0913	135	C15H12NO+
223.1	91	C15H13NO+
224.0706	159	C14H10NO2+
224.1063	49	C15H14NO+
225.0783	61	C14H11NO2+
226.0859	131	C14H12NO2+
227.0943	50	C14H13NO2+
228.0654	205	C13H10NO3+
228.1016	37	C14H14NO2+
229.0733	401	C13H11NO3+
230.0958	32	C17H12N+
232.0756	81	C16H10NO+
233.0834	110	C16H11NO+
234.055	36	C15H8NO2+
234.0914	248	C16H12NO+
235.0995	93	C16H13NO+
236.0705	300	C15H10NO2+
236.107	207	C16H14NO+
238.0862	152	C15H12NO2+
240.0656	47	C14H10NO3+
240.1023	59	C15H14NO2+
244.0968	131	C14H14NO3+
246.0557	31	C16H8NO2+
246.0914	75	C17H12NO+
247.0637	27	C16H9NO2+
247.0987	43	C17H13NO+
248.0711	115	C16H10NO2+
248.1066	121	C17H14NO+
249.0791	80	C16H11NO2+
250.0863	124	C16H12NO2+
250.1224	49	C17H16NO+
251.0944	129	C16H13NO2+
252.0657	113	C15H10NO3+
252.1019	43	C16H14NO2+
258.0908	51	C18H12NO+
260.1068	37	C18H14NO+
262.0861	95	C17H12NO2+
262.1224	32	C18H16NO+
263.0944	86	C17H13NO2+
264.066	55	C16H10NO3+
264.1017	139	C17H14NO2+
266.1186	47	C17H16NO2+
273.0785	27	C18H11NO2+
274.0865	38	C18H12NO2+
276.1023	62	C18H14NO2+
278.1178	62	C18H16NO2+
288.1024	34	C19H14NO2+
290.082	27	C18H12NO3+
290.1169	30	C19H16NO2+
306.1138	47	C19H16NO3+
