Mass spectrum: Daphnetin; LC-ESI-ITFT; MS2; CE: 85%; R=15000; [M+H]+
Name: Daphnetin
Formula: C9H6O4
Exact mass: 178.0266
SMILES: OC1=CC=C2C=CC(=O)OC2=C1O
InChI: InChI=1S/C9H6O4/c10-6-3-1-5-2-4-7(11)13-9(5)8(6)12/h1-4,10,12H
Instrument: LTQ Orbitrap XL Thermo Scientific
Instrument type: LC-ESI-ITFT
Ms type: MS2
Ion mode: POSITIVE
Ionization: ESI
Fragmentation mode: HCD
Collision energy: 85 % (nominal)
Resolution: 15000
Column name: Kinetex Evo C18 2.6 um 50 x 2.1 mm
Retention time: 4.615 min
Base peak: 143.0016
Precursor m/z: 179.0339
Precursor type: [M+H]+
m/z	relative intensity	assigned
51.0228	68	C4H3+
77.0386	792	C6H5+
79.0543	35	C6H7+
89.0386	203	C7H5+
91.0543	270	C7H7+
95.0492	121	C6H7O+
105.0336	649	C7H5O+
117.0331	38	C8H5O+
118.0414	51	C8H6O+
119.0491	104	C8H7O+
123.0441	666	C7H7O2+
133.0285	999	C8H5O2+
135.044	59	C8H7O2+
179.0334	76	C9H7O4+
