Mass spectrum: (-)-Strychnine; LC-ESI-ITFT; MS2; CE: 70%; R=15000; [M+H]+
Name: (-)-Strychnine
Name: Strychnine
Name: (4aR,5aS,8aR,13aS,15aS,15bR)-4a,5,5a,7,8,13a,15,15a,15b,16-decahydro-2H-4,6-methanoindolo[3,2,1-ij]oxepino[2,3,4-de]pyrrolo[2,3-h]quinolin-14-one
Formula: C21H22N2O2
Exact mass: 334.1681
SMILES: c1ccc2c(c1)[C@]34CCN5[C@H]3C[C@@H]6[C@@H]7[C@@H]4N2C(=O)C[C@@H]7OCC=C6C5
InChI: InChI=1S/C21H22N2O2/c24-18-10-16-19-13-9-17-21(6-7-22(17)11-12(13)5-8-25-16)14-3-1-2-4-15(14)23(18)20(19)21/h1-5,13,16-17,19-20H,6-11H2/t13-,16-,17-,19-,20-,21+/m0/s1
Instrument: LTQ Orbitrap XL Thermo Scientific
Instrument type: LC-ESI-ITFT
Ms type: MS2
Ion mode: POSITIVE
Ionization: ESI
Fragmentation mode: HCD
Collision energy: 70% (nominal)
Resolution: 15000
Column name: Kinetex Evo C18 2.6 um 50 x 2.1 mm
Retention time: 3.150 min
Base peak: 143.0015
Precursor m/z: 335.1754
Precursor type: [M+H]+
m/z	relative intensity	assigned
79.0544	13	C6H7+
80.0496	10	C5H6N+
81.07	24	C6H9+
91.0541	8	C7H7+
93.07	25	C7H9+
94.0649	9	C6H8N+
95.0491	14	C6H7O+
105.0698	15	C8H9+
106.065	10	C7H8N+
108.0807	47	C7H10N+
118.0654	8	C8H8N+
121.0649	14	C8H9O+
122.0601	25	C7H8NO+
124.0757	31	C7H10NO+
130.0651	23	C9H8N+
144.0808	79	C10H10N+
154.0648	8	C11H8N+
156.0808	145	C11H10N+
168.0808	24	C12H10N+
169.0763	15	C11H9N2+
170.0964	21	C12H12N+
171.0917	25	C11H11N2+
180.0806	11	C13H10N+
182.0967	19	C13H12N+
184.0757	684	C12H10NO+
194.0598	13	C13H8NO+
194.0966	58	C14H12N+
196.0755	39	C13H10NO+
198.0913	63	C13H12NO+
200.0705	9	C12H10NO2+
206.096	13	C15H12N+
208.1129	10	C15H14N+
210.0911	24	C14H12NO+
212.0701	8	C13H10NO2+
217.0876	11	C16H11N+
218.0966	14	C16H12N+
219.1033	13	C16H13N+
220.0755	55	C15H10NO+
220.1124	38	C16H14N+
221.0832	10	C15H11NO+
222.0914	143	C15H12NO+
222.1278	13	C16H16N+
224.1073	10	C15H14NO+
226.0859	8	C14H12NO2+
232.1115	10	C17H14N+
234.0913	56	C16H12NO+
234.1275	11	C17H16N+
236.107	9	C16H14NO+
246.0913	28	C17H12NO+
246.1271	17	C18H16N+
248.107	36	C17H14NO+
250.1221	10	C17H16NO+
260.1072	10	C18H14NO+
261.1138	11	C18H15NO+
262.1228	65	C18H16NO+
264.102	158	C17H14NO2+
266.1167	24	C17H16NO2+
272.107	32	C19H14NO+
274.123	20	C19H16NO+
280.1328	7	C18H18NO2+
290.1177	22	C19H16NO2+
292.1332	15	C19H18NO2+
306.15	14	C20H20NO2+
307.1442	57	C19H19N2O2+
335.1755	999	C21H23N2O2+
