Mass spectrum: Coniferaldehyde; LC-ESI-ITFT; MS2; CE: 85%; R=15000; [M+H]+
Name: Coniferaldehyde
Formula: C10H10O3
Exact mass: 178.0630
SMILES: COC1=CC(\C=C\C=O)=CC=C1O
InChI: InChI=1S/C10H10O3/c1-13-10-7-8(3-2-6-11)4-5-9(10)12/h2-7,12H,1H3/b3-2+
Instrument: LTQ Orbitrap XL Thermo Scientific
Instrument type: LC-ESI-ITFT
Ms type: MS2
Ion mode: POSITIVE
Ionization: ESI
Fragmentation mode: HCD
Collision energy: 85 % (nominal)
Resolution: 15000
Column name: Kinetex Evo C18 2.6 um 50 x 2.1 mm
Retention time: 7.411 min
Base peak: 179.0702
Precursor m/z: 179.0703
Precursor type: [M+H]+
m/z	relative intensity	assigned
65.0386	30	C5H5+
77.0386	38	C6H5+
79.0543	120	C6H7+
80.0621	69	C6H8+
82.0414	8	C5H6O+
89.0386	21	C7H5+
90.0465	62	C7H6+
91.0543	999	C7H7+
93.0337	7	C6H5O+
94.0414	34	C6H6O+
95.0491	15	C6H7O+
103.0543	89	C8H7+
105.0699	63	C8H9+
107.0492	146	C7H7O+
108.0571	47	C7H8O+
115.0542	26	C9H7+
118.0414	199	C8H6O+
119.0492	339	C8H7O+
121.0282	10	C7H5O2+
122.0364	12	C7H6O2+
123.0441	10	C7H7O2+
131.0491	13	C9H7O+
133.0649	52	C9H9O+
135.0442	94	C8H7O2+
136.052	234	C8H8O2+
137.0596	10	C8H9O2+
146.0363	204	C9H6O2+
147.0441	83	C9H7O2+
148.0518	6	C9H8O2+
150.0677	13	C9H10O2+
161.0598	23	C10H9O2+
163.0392	13	C9H7O3+
164.0471	6	C9H8O3+
