Mass spectrum: Retrorsine N-oxide; LC-ESI-ITFT; MS2; CE: 80%; R=15000; [M+H]+
Name: Retrorsine N-oxide
Name: Unii-51819grv4U
Name: (1R,4Z,6R,7S,14S,17R)-4-ethylidene-7-hydroxy-7-(hydroxymethyl)-6-methyl-14-oxido-2,9-dioxa-14-azoniatricyclo[9.5.1.014,17]heptadec-11-ene-3,8-dione
Formula: C18H25NO7
Exact mass: 367.1631
SMILES: C/C=C\1/C[C@H]([C@@](C(=O)OCC2=CC[N@@+]3([C@H]2[C@@H](CC3)OC1=O)[O-])(CO)O)C
InChI: InChI=1S/C18H25NO7/c1-3-12-8-11(2)18(23,10-20)17(22)25-9-13-4-6-19(24)7-5-14(15(13)19)26-16(12)21/h3-4,11,14-15,20,23H,5-10H2,1-2H3/b12-3-/t11-,14-,15-,18-,19-/m1/s1
Instrument: LTQ Orbitrap XL Thermo Scientific
Instrument type: LC-ESI-ITFT
Ms type: MS2
Ion mode: POSITIVE
Ionization: ESI
Fragmentation mode: HCD
Collision energy: 80% (nominal)
Resolution: 15000
Column name: Kinetex Evo C18 2.6 um 50 x 2.1 mm
Retention time: 2.073 min
Base peak: 368.1703
Precursor m/z: 368.1704
Precursor type: [M+H]+
m/z	relative intensity	assigned
53.0385	21	C4H5+
67.0543	41	C5H7+
79.0543	51	C6H7+
80.0495	139	C5H6N+
81.0337	12	C5H5O+
81.0572	18	C5H7N+
81.0699	98	C6H9+
82.0651	32	C5H8N+
83.0492	23	C5H7O+
84.0445	13	C4H6NO+
91.0542	66	C7H7+
92.0493	24	C6H6N+
93.0573	443	C6H7N+
93.0699	33	C7H9+
94.0651	999	C6H8N+
95.073	134	C6H9N+
95.0855	101	C7H11+
96.0808	17	C6H10N+
98.0602	26	C5H8NO+
105.0702	30	C8H9+
106.0652	132	C7H8N+
107.0727	16	C7H9N+
107.0857	15	C8H11+
108.0808	191	C7H10N+
109.0649	25	C7H9O+
109.0885	26	C7H11N+
111.068	19	C6H9NO+
112.0761	24	C6H10NO+
117.0573	24	C8H7N+
118.0652	422	C8H8N+
119.073	219	C8H9N+
120.0808	634	C8H10N+
121.0885	23	C8H11N+
122.0965	77	C8H12N+
123.0804	66	C8H11O+
124.0756	25	C7H10NO+
136.0757	688	C8H10NO+
137.0838	17	C8H11NO+
138.0914	123	C8H12NO+
139.0753	41	C8H11O2+
148.1122	15	C10H14N+
151.0755	32	C9H11O2+
154.0863	21	C8H12NO2+
178.1222	12	C11H16NO+
