Mass spectrum: Tetrahydropalmatin; LC-ESI-ITFT; MS2; CE: 100%; R=15000; [M+H]+
Name: Tetrahydropalmatin
Name: D-Tetrahydropalmatine
Name: (13aR)-2,3,9,10-tetramethoxy-6,8,13,13a-tetrahydro-5H-isoquinolino[2,1-b]isoquinoline
Formula: C21H25NO4
Exact mass: 355.1784
SMILES: COC1=C(C2=C(C[C@@H]3C4=CC(=C(C=C4CCN3C2)OC)OC)C=C1)OC
InChI: InChI=1S/C21H25NO4/c1-23-18-6-5-13-9-17-15-11-20(25-3)19(24-2)10-14(15)7-8-22(17)12-16(13)21(18)26-4/h5-6,10-11,17H,7-9,12H2,1-4H3/t17-/m1/s1
Instrument: LTQ Orbitrap XL Thermo Scientific
Instrument type: LC-ESI-ITFT
Ms type: MS2
Ion mode: POSITIVE
Ionization: ESI
Fragmentation mode: HCD
Collision energy: 100% (nominal)
Resolution: 15000
Column name: Kinetex Evo C18 2.6 um 50 x 2.1 mm
Retention time: 7.471 min
Base peak: 356.1854
Precursor m/z: 356.1856
Precursor type: [M+H]+
m/z	relative intensity	assigned
77.0386	12	C6H5+
79.0542	35	C6H7+
90.0462	6	C7H6+
91.0542	35	C7H7+
92.0618	5	C7H8+
93.0698	9	C7H9+
102.0463	4	C8H6+
103.0542	42	C8H7+
104.062	16	C8H8+
105.0332	4	C7H5O+
105.0699	50	C8H9+
107.0491	63	C7H7O+
108.0572	3	C7H8O+
109.0646	4	C7H9O+
115.0542	8	C9H7+
117.0568	3	C8H7N+
117.0698	3	C9H9+
118.0412	18	C8H6O+
118.0651	44	C8H8N+
119.0491	26	C8H7O+
119.0729	22	C8H9N+
120.0569	23	C8H8O+
120.0805	5	C8H10N+
121.0648	75	C8H9O+
122.0725	10	C8H10O+
124.0514	4	C7H8O2+
130.0651	48	C9H8N+
131.0729	600	C9H9N+
132.057	5	C9H8O+
133.0522	19	C8H7NO+
133.0647	17	C9H9O+
134.0601	12	C8H8NO+
134.0725	40	C9H10O+
135.044	64	C8H7O2+
135.0802	5	C9H11O+
136.0515	3	C8H8O2+
137.0593	2	C8H9O2+
145.0652	3	C10H9O+
146.06	42	C9H8NO+
146.0727	3	C10H10O+
147.0678	159	C9H9NO+
148.0519	35	C9H8O2+
148.0756	652	C9H10NO+
149.0468	4	C8H7NO2+
149.0595	23	C9H9O2+
150.0674	87	C9H10O2+
151.075	12	C9H11O2+
158.0603	6	C10H8NO+
159.0678	109	C10H9NO+
160.0756	79	C10H10NO+
161.0834	19	C10H11NO+
162.0547	13	C9H8NO2+
163.0625	4	C9H9NO2+
165.0909	34	C10H13O2+
174.0549	54	C10H8NO2+
175.063	9	C10H9NO2+
176.0705	999	C10H10NO2+
177.0783	288	C10H11NO2+
190.0863	24	C11H12NO2+
191.085	4	C15H11+
192.1017	309	C11H14NO2+
195.0804	4	C14H11O+
202.0782	2	C16H10+
203.0849	3	C16H11+
205.0647	3	C15H9O+
207.0802	7	C15H11O+
218.0717	3	C16H10O+
219.0805	4	C16H11O+
221.0966	3	C16H13O+
223.0746	3	C15H11O2+
233.0967	5	C17H13O+
235.0751	5	C16H11O2+
235.0993	3	C16H13NO+
236.1065	5	C16H14NO+
237.0915	4	C16H13O2+
249.0911	3	C17H13O2+
250.0856	2	C16H12NO2+
251.0705	3	C16H11O3+
252.1014	4	C16H14NO2+
263.0949	2	C17H13NO2+
264.1006	5	C17H14NO2+
278.1168	4	C18H16NO2+
280.0962	3	C17H14NO3+
282.1123	5	C17H16NO3+
294.112	2	C18H16NO3+
296.1291	3	C18H18NO3+
306.1127	7	C19H16NO3+
324.122	6	C19H18NO4+
