Mass spectrum: Lycopsamine N-oxide; LC-ESI-ITFT; MS2; CE: 55%; R=15000; [M+H]+
Name: Lycopsamine N-oxide
Name: [(7R,8R)-7-hydroxy-4-oxido-5,6,7,8-tetrahydro-3H-pyrrolizin-4-ium-1-yl]methyl (2S)-2-hydroxy-2-[(1S)-1-hydroxyethyl]-3-methylbutanoate
Formula: C15H25NO6
Exact mass: 315.1682
SMILES: C[C@@H]([C@@](C(C)C)(C(=O)OCC1=CC[N+]2([C@H]1[C@@H](CC2)O)[O-])O)O
InChI: InChI=1S/C15H25NO6/c1-9(2)15(20,10(3)17)14(19)22-8-11-4-6-16(21)7-5-12(18)13(11)16/h4,9-10,12-13,17-18,20H,5-8H2,1-3H3/t10-,12+,13+,15-,16?/m0/s1
Instrument: LTQ Orbitrap XL Thermo Scientific
Instrument type: LC-ESI-ITFT
Ms type: MS2
Ion mode: POSITIVE
Ionization: ESI
Fragmentation mode: HCD
Collision energy: 55% (nominal)
Resolution: 15000
Column name: Kinetex Evo C18 2.6 um 50 x 2.1 mm
Retention time: 1.288 min
Base peak: 143.0015
Precursor m/z: 316.1755
Precursor type: [M+H]+
m/z	relative intensity	assigned
67.0541	5	C5H7+
68.0493	8	C4H6N+
73.0648	12	C4H9O+
80.0495	16	C5H6N+
82.0414	26	C5H6O+
82.0651	15	C5H8N+
83.0492	25	C5H7O+
93.0574	120	C6H7N+
94.0652	106	C6H8N+
95.0728	4	C6H9N+
98.0601	19	C5H8NO+
100.0754	5	C5H10NO+
102.0548	9	C4H8NO2+
108.0808	39	C7H10N+
109.0648	6	C7H9O+
109.0886	5	C7H11N+
110.0602	19	C6H8NO+
111.0679	44	C6H9NO+
112.0757	36	C6H10NO+
118.0652	7	C8H8N+
120.0805	5	C8H10N+
126.0914	9	C7H12NO+
136.0758	153	C8H10NO+
137.0836	46	C8H11NO+
138.0914	599	C8H12NO+
154.0863	111	C8H12NO2+
155.0942	158	C8H13NO2+
172.0969	999	C8H14NO3+
226.1439	24	C12H20NO3+
272.1492	12	C13H22NO5+
298.1645	8	C15H24NO5+
316.1756	539	C15H26NO6+
