Mass spectrum: 4-Hydroxycoumarin; LC-ESI-ITFT; MS2; CE: 170%; R=15000; [M+H]+
Name: 4-Hydroxycoumarin
Name: 4-hydroxychromen-2-one
Formula: C9H6O3
Exact mass: 162.0317
SMILES: OC1=CC(=O)OC2=CC=CC=C12
InChI: InChI=1S/C9H6O3/c10-7-5-9(11)12-8-4-2-1-3-6(7)8/h1-5,10H
Instrument: LTQ Orbitrap XL Thermo Scientific
Instrument type: LC-ESI-ITFT
Ms type: MS2
Ion mode: POSITIVE
Ionization: ESI
Fragmentation mode: HCD
Collision energy: 170 % (nominal)
Resolution: 15000
Column name: Kinetex Evo C18 2.6 um 50 x 2.1 mm
Retention time: 8.047 min
Base peak: 163.0388
Precursor m/z: 163.039
Precursor type: [M+H]+
m/z	relative intensity	assigned
68.9968	999	C3HO2+
75.0227	122	C6H3+
77.0383	701	C6H5+
79.054	66	C6H7+
87.023	19	C7H3+
89.0384	236	C7H5+
91.0541	125	C7H7+
93.0334	63	C6H5O+
95.049	141	C6H7O+
105.0446	529	C6H5N2+
111.0437	13	C6H7O2+
113.0391	14	C9H5+
121.0281	69	C7H5O2+
121.0393	140	C6H5N2O+
