Mass spectrum: 8-Prenylnaringenin; LC-ESI-ITFT; MS2; CE: 40%; R=15000; [M+H]+
Name: 8-Prenylnaringenin
Name: (2S)-5,7-dihydroxy-2-(4-hydroxyphenyl)-8-(3-methylbut-2-enyl)-2,3-dihydrochromen-4-one
Formula: C20H20O5
Exact mass: 340.1311
SMILES: CC(=CCC1=C(C=C(C2=C1O[C@@H](CC2=O)C3=CC=C(C=C3)O)O)O)C
InChI: InChI=1S/C20H20O5/c1-11(2)3-8-14-15(22)9-16(23)19-17(24)10-18(25-20(14)19)12-4-6-13(21)7-5-12/h3-7,9,18,21-23H,8,10H2,1-2H3/t18-/m0/s1
Instrument: LTQ Orbitrap XL Thermo Scientific
Instrument type: LC-ESI-ITFT
Ms type: MS2
Ion mode: POSITIVE
Ionization: ESI
Fragmentation mode: HCD
Collision energy: 40% (nominal)
Resolution: 15000
Column name: Kinetex Evo C18 2.6 um 50 x 2.1 mm
Retention time: 11.918 min
Base peak: 116.9859
Precursor m/z: 341.1384
Precursor type: [M+H]+
m/z	relative intensity	assigned
55.0177	2	C3H3O+
107.0491	15	C7H7O+
121.0648	21	C8H9O+
123.008	4	C6H3O3+
147.0441	30	C9H7O2+
165.0183	999	C8H5O4+
179.0339	14	C9H7O4+
183.0288	41	C8H7O5+
191.0339	23	C10H7O4+
197.0443	9	C9H9O5+
221.0809	28	C12H13O4+
243.0652	7	C14H11O4+
267.065	7	C16H11O4+
285.0759	182	C16H13O5+
341.1382	39	C20H21O5+
