Mass spectrum: (+)-Isocorydin; LC-ESI-ITFT; MS2; CE: 90%; R=15000; [M+H]+
Name: (+)-Isocorydin
Name: Isocorydine
Name: (6aS)-1,2,10-trimethoxy-6-methyl-5,6,6a,7-tetrahydro-4H-dibenzo[de,g]quinolin-11-ol
Formula: C20H23NO4
Exact mass: 341.1627
SMILES: CN1CCC2=CC(=C(C3=C2[C@@H]1CC4=C3C(=C(C=C4)OC)O)OC)OC
InChI: InChI=1S/C20H23NO4/c1-21-8-7-12-10-15(24-3)20(25-4)18-16(12)13(21)9-11-5-6-14(23-2)19(22)17(11)18/h5-6,10,13,22H,7-9H2,1-4H3/t13-/m0/s1
Instrument: LTQ Orbitrap XL Thermo Scientific
Instrument type: LC-ESI-ITFT
Ms type: MS2
Ion mode: POSITIVE
Ionization: ESI
Fragmentation mode: HCD
Collision energy: 90% (nominal)
Resolution: 15000
Column name: Kinetex Evo C18 2.6 um 50 x 2.1 mm
Retention time: 6.279 min
Base peak: 342.1699
Precursor m/z: 342.17
Precursor type: [M+H]+
m/z	relative intensity	assigned
141.0699	10	C11H9+
152.0622	57	C12H8+
153.0697	41	C12H9+
154.0774	27	C12H10+
164.0626	17	C13H8+
165.0699	644	C13H9+
166.0776	155	C13H10+
167.0855	53	C13H11+
168.0577	14	C12H8O+
169.0649	17	C12H9O+
176.0621	41	C14H8+
177.07	145	C14H9+
178.0778	657	C14H10+
179.0856	552	C14H11+
180.0572	13	C13H8O+
180.0934	106	C14H12+
181.0649	108	C13H9O+
181.1016	20	C14H13+
182.0728	89	C13H10O+
183.0805	10	C13H11O+
188.0622	9	C15H8+
189.0699	426	C15H9+
190.0778	516	C15H10+
191.0856	766	C15H11+
192.057	69	C14H8O+
192.0939	51	C15H12+
193.0648	556	C14H9O+
194.0727	368	C14H10O+
195.0807	63	C14H11O+
196.0516	14	C13H8O2+
196.0884	17	C14H12O+
197.0591	16	C13H9O2+
197.0962	37	C14H13O+
201.0698	55	C16H9+
202.0778	160	C16H10+
203.0856	77	C16H11+
204.0572	30	C15H8O+
205.0648	378	C15H9O+
206.0727	454	C15H10O+
207.0805	861	C15H11O+
208.0885	224	C15H12O+
209.0597	78	C14H9O2+
209.0961	195	C15H13O+
210.0676	188	C14H10O2+
217.0648	109	C16H9O+
218.0726	236	C16H10O+
219.0804	552	C16H11O+
220.0518	71	C15H8O2+
220.089	57	C16H12O+
221.0597	540	C15H9O2+
221.0962	59	C16H13O+
222.0676	370	C15H10O2+
223.076	53	C15H11O2+
224.0832	45	C15H12O2+
225.0909	104	C15H13O2+
226.0623	33	C14H10O3+
231.0804	218	C17H11O+
233.0597	131	C16H9O2+
234.0676	91	C16H10O2+
235.0753	631	C16H11O2+
236.0833	657	C16H12O2+
237.0546	63	C15H9O3+
237.0911	615	C16H13O2+
238.0623	999	C15H10O3+
245.0599	20	C17H9O2+
246.0675	37	C17H10O2+
247.0753	833	C17H11O2+
248.0844	83	C17H12O2+
249.0547	71	C16H9O3+
249.0918	28	C17H13O2+
250.0622	42	C16H10O3+
251.0706	22	C16H11O3+
251.1075	9	C17H15O2+
252.0786	25	C16H12O3+
253.0859	489	C16H13O3+
263.0703	117	C17H11O3+
264.078	112	C17H12O3+
265.0858	333	C17H13O3+
277.0864	9	C18H13O3+
281.081	45	C17H13O4+
