Mass spectrum: (+)-Isocorydin; LC-ESI-ITFT; MS2; CE: 105%; R=15000; [M+H]+
Name: (+)-Isocorydin
Name: Isocorydine
Name: (6aS)-1,2,10-trimethoxy-6-methyl-5,6,6a,7-tetrahydro-4H-dibenzo[de,g]quinolin-11-ol
Formula: C20H23NO4
Exact mass: 341.1627
SMILES: CN1CCC2=CC(=C(C3=C2[C@@H]1CC4=C3C(=C(C=C4)OC)O)OC)OC
InChI: InChI=1S/C20H23NO4/c1-21-8-7-12-10-15(24-3)20(25-4)18-16(12)13(21)9-11-5-6-14(23-2)19(22)17(11)18/h5-6,10,13,22H,7-9H2,1-4H3/t13-/m0/s1
Instrument: LTQ Orbitrap XL Thermo Scientific
Instrument type: LC-ESI-ITFT
Ms type: MS2
Ion mode: POSITIVE
Ionization: ESI
Fragmentation mode: HCD
Collision energy: 105% (nominal)
Resolution: 15000
Column name: Kinetex Evo C18 2.6 um 50 x 2.1 mm
Retention time: 6.279 min
Base peak: 342.1699
Precursor m/z: 342.17
Precursor type: [M+H]+
m/z	relative intensity	assigned
139.0546	13	C11H7+
141.0699	23	C11H9+
151.0542	20	C12H7+
152.0622	150	C12H8+
153.0699	134	C12H9+
154.0777	81	C12H10+
163.0543	6	C13H7+
164.0621	44	C13H8+
165.0699	999	C13H9+
166.0777	194	C13H10+
167.0492	21	C12H7O+
167.0855	45	C13H11+
168.0572	22	C12H8O+
169.0652	22	C12H9O+
176.0621	112	C14H8+
177.07	210	C14H9+
178.0777	793	C14H10+
179.0856	528	C14H11+
180.057	9	C13H8O+
180.0933	33	C14H12+
181.0649	174	C13H9O+
182.0727	164	C13H10O+
183.08	7	C13H11O+
188.0622	9	C15H8+
189.07	672	C15H9+
190.0778	373	C15H10+
191.0855	427	C15H11+
192.0569	138	C14H8O+
192.0935	14	C15H12+
193.0648	471	C14H9O+
194.0726	377	C14H10O+
195.0447	6	C13H7O2+
195.0807	45	C14H11O+
196.0517	8	C13H8O2+
196.0879	7	C14H12O+
197.0601	8	C13H9O2+
197.0964	24	C14H13O+
200.0617	13	C16H8+
201.0701	42	C16H9+
202.0777	149	C16H10+
203.0856	39	C16H11+
204.0573	32	C15H8O+
205.0647	342	C15H9O+
206.0727	251	C15H10O+
207.0805	422	C15H11O+
208.0514	8	C14H8O2+
208.0885	59	C15H12O+
209.0596	96	C14H9O2+
209.0959	104	C15H13O+
210.0675	197	C14H10O2+
217.0648	74	C16H9O+
218.0725	119	C16H10O+
219.0804	212	C16H11O+
220.0518	72	C15H8O2+
220.0891	17	C16H12O+
221.0597	303	C15H9O2+
222.0675	228	C15H10O2+
223.0759	25	C15H11O2+
225.0911	38	C15H13O2+
226.0629	16	C14H10O3+
229.0641	8	C17H9O+
231.0804	109	C17H11O+
233.0595	43	C16H9O2+
234.0676	28	C16H10O2+
235.0753	182	C16H11O2+
236.0833	125	C16H12O2+
237.0545	71	C15H9O3+
237.091	146	C16H13O2+
238.0623	460	C15H10O3+
245.0598	17	C17H9O2+
246.0678	17	C17H10O2+
247.0753	370	C17H11O2+
249.0547	14	C16H9O3+
250.0624	15	C16H10O3+
251.0709	8	C16H11O3+
252.0779	9	C16H12O3+
253.0858	65	C16H13O3+
263.07	34	C17H11O3+
264.0785	7	C17H12O3+
265.0857	24	C17H13O3+
