Mass spectrum: Erucifoline N-oxide; LC-ESI-ITFT; MS2; CE: 45%; R=15000; [M+H]+
Name: Erucifoline N-oxide
Name: (5R,7S,9Z,12R,18R)-9-ethylidene-7-(hydroxymethyl)-5-methyl-15-oxido-3,6,11-trioxa-15-azoniatetracyclo[10.5.1.05,7.015,18]octadec-1(17)-ene-4,10-dione
Formula: C18H23NO7
Exact mass: 365.1475
SMILES: C/C=C\1/C[C@@]2([C@@](O2)(C(=O)OCC3=CC[N+]4([C@H]3[C@@H](CC4)OC1=O)[O-])C)CO
InChI: InChI=1S/C18H23NO7/c1-3-11-8-18(10-20)17(2,26-18)16(22)24-9-12-4-6-19(23)7-5-13(14(12)19)25-15(11)21/h3-4,13-14,20H,5-10H2,1-2H3/b11-3-/t13-,14-,17+,18+,19?/m1/s1
Instrument: LTQ Orbitrap XL Thermo Scientific
Instrument type: LC-ESI-ITFT
Ms type: MS2
Ion mode: POSITIVE
Ionization: ESI
Fragmentation mode: HCD
Collision energy: 45% (nominal)
Resolution: 15000
Column name: Kinetex Evo C18 2.6 um 50 x 2.1 mm
Retention time: 1.127 min
Base peak: 366.1547
Precursor m/z: 366.1547
Precursor type: [M+H]+
m/z	relative intensity	assigned
67.0542	5	C5H7+
79.0543	8	C6H7+
80.0495	14	C5H6N+
81.0577	3	C5H7N+
81.0698	10	C6H9+
82.065	12	C5H8N+
84.0442	5	C4H6NO+
91.0543	9	C7H7+
93.0573	52	C6H7N+
93.0698	6	C7H9+
94.0651	80	C6H8N+
95.0492	6	C6H7O+
95.073	72	C6H9N+
98.06	9	C5H8NO+
106.0651	26	C7H8N+
107.0728	13	C7H9N+
108.0808	47	C7H10N+
109.0648	12	C7H9O+
109.0886	12	C7H11N+
110.0599	7	C6H8NO+
112.0757	26	C6H10NO+
118.0651	279	C8H8N+
119.073	339	C8H9N+
120.0808	255	C8H10N+
121.0646	7	C8H9O+
121.0887	33	C8H11N+
122.0964	51	C8H12N+
123.0442	11	C7H7O2+
123.1042	5	C8H13N+
124.0756	8	C7H10NO+
125.0596	10	C7H9O2+
126.0912	6	C7H12NO+
136.0757	292	C8H10NO+
137.0595	9	C8H9O2+
137.0835	67	C8H11NO+
138.0676	10	C8H10O2+
138.0913	65	C8H12NO+
139.0754	15	C8H11O2+
140.1071	17	C8H14NO+
141.055	4	C7H9O3+
146.0963	6	C10H12N+
148.112	7	C10H14N+
149.0599	7	C9H9O2+
151.0389	7	C8H7O3+
152.0705	5	C8H10NO2+
154.0863	115	C8H12NO2+
162.0915	8	C10H12NO+
164.1071	52	C10H14NO+
165.0546	34	C9H9O3+
167.0702	10	C9H11O3+
176.1067	5	C11H14NO+
183.065	20	C9H11O4+
190.1226	21	C12H16NO+
204.1016	6	C12H14NO2+
209.1174	4	C12H17O3+
218.1177	41	C13H16NO2+
220.1335	17	C13H18NO2+
244.1333	12	C15H18NO2+
260.1269	5	C15H18NO3+
262.1436	5	C15H20NO3+
276.1225	6	C15H18NO4+
278.1386	27	C15H20NO4+
286.144	5	C17H20NO3+
288.1594	18	C17H22NO3+
290.1386	6	C16H20NO4+
304.1552	10	C17H22NO4+
338.1599	16	C17H24NO6+
366.1547	999	C18H24NO7+
