Mass spectrum: Coniferaldehyde; LC-ESI-ITFT; MS2; CE: 15%; R=15000; [M+H]+
Name: Coniferaldehyde
Formula: C10H10O3
Exact mass: 178.0630
SMILES: COC1=CC(\C=C\C=O)=CC=C1O
InChI: InChI=1S/C10H10O3/c1-13-10-7-8(3-2-6-11)4-5-9(10)12/h2-7,12H,1H3/b3-2+
Instrument: LTQ Orbitrap XL Thermo Scientific
Instrument type: LC-ESI-ITFT
Ms type: MS2
Ion mode: POSITIVE
Ionization: ESI
Fragmentation mode: HCD
Collision energy: 15 % (nominal)
Resolution: 15000
Column name: Kinetex Evo C18 2.6 um 50 x 2.1 mm
Retention time: 7.483 min
Base peak: 179.0701
Precursor m/z: 179.0703
Precursor type: [M+H]+
m/z	relative intensity	assigned
147.0441	63	C9H7O2+
161.0596	61	C10H9O2+
179.0703	999	C10H11O3+
