Mass spectrum: 4-Hydroxycoumarin; LC-ESI-ITFT; MS2; CE: 160%; R=15000; [M+H]+
Name: 4-Hydroxycoumarin
Name: 4-hydroxychromen-2-one
Formula: C9H6O3
Exact mass: 162.0317
SMILES: OC1=CC(=O)OC2=CC=CC=C12
InChI: InChI=1S/C9H6O3/c10-7-5-9(11)12-8-4-2-1-3-6(7)8/h1-5,10H
Instrument: LTQ Orbitrap XL Thermo Scientific
Instrument type: LC-ESI-ITFT
Ms type: MS2
Ion mode: POSITIVE
Ionization: ESI
Fragmentation mode: HCD
Collision energy: 160 % (nominal)
Resolution: 15000
Column name: Kinetex Evo C18 2.6 um 50x2.1 mm, Phenomenex
Retention time: 8.047 min
Base peak: 163.0388
Precursor m/z: 163.039
Precursor type: [M+H]+
m/z	relative intensity	assigned
75.0226	142	C6H3+
77.0382	999	C6H5+
79.0539	132	C6H7+
87.0227	7	C7H3+
89.0383	313	C7H5+
91.054	246	C7H7+
93.0332	162	C6H5O+
95.0489	211	C6H7O+
105.0445	679	C6H5N2+
111.0438	44	C6H7O2+
113.0384	9	C9H5+
121.028	189	C7H5O2+
121.0392	293	C6H5N2O+
