Mass spectrum: Papaverin; LC-ESI-ITFT; MS2; CE: 95%; R=15000; [M+H]+
Name: Papaverin
Name: Papaverine
Name: 1-[(3,4-dimethoxyphenyl)methyl]-6,7-dimethoxyisoquinoline
Formula: C20H21NO4
Exact mass: 339.1471
SMILES: COC1=C(C=C(C=C1)CC2=NC=CC3=CC(=C(C=C32)OC)OC)OC
InChI: InChI=1S/C20H21NO4/c1-22-17-6-5-13(10-18(17)23-2)9-16-15-12-20(25-4)19(24-3)11-14(15)7-8-21-16/h5-8,10-12H,9H2,1-4H3
Instrument: LTQ Orbitrap XL Thermo Scientific
Instrument type: LC-ESI-ITFT
Ms type: MS2
Ion mode: POSITIVE
Ionization: ESI
Fragmentation mode: HCD
Collision energy: 95% (nominal)
Resolution: 15000
Column name: Kinetex Evo C18 2.6 um 50 x 2.1 mm
Retention time: 7.581 min
Base peak: 340.154
Precursor m/z: 340.1543
Precursor type: [M+H]+
m/z	relative intensity	assigned
77.0386	32	C6H5+
78.0464	7	C6H6+
91.0542	37	C7H7+
95.0491	147	C6H7O+
102.0464	18	C8H6+
103.0542	143	C8H7+
107.0491	56	C7H7O+
108.057	14	C7H8O+
114.0465	28	C9H6+
115.0542	127	C9H7+
116.0495	67	C8H6N+
116.0621	14	C9H8+
117.0571	7	C8H7N+
117.0698	21	C9H9+
118.041	8	C8H6O+
118.0652	51	C8H8N+
119.0491	10	C8H7O+
121.0651	6	C8H9O+
123.0441	133	C7H7O2+
127.0418	25	C9H5N+
128.0495	369	C9H6N+
129.0573	92	C9H7N+
130.0412	12	C9H6O+
130.0651	147	C9H8N+
131.0491	166	C9H7O+
131.073	46	C9H9N+
132.0567	26	C9H8O+
132.0811	7	C9H10N+
133.0284	17	C8H5O2+
133.0651	10	C9H9O+
135.0441	25	C8H7O2+
136.0525	8	C8H8O2+
138.0675	16	C8H10O2+
140.0495	84	C10H6N+
141.0573	102	C10H7N+
142.0651	81	C10H8N+
143.0726	19	C10H9N+
144.0445	91	C9H6NO+
144.0572	12	C10H8O+
144.0807	12	C10H10N+
145.052	13	C9H7NO+
145.0649	37	C10H9O+
146.06	76	C9H8NO+
147.0443	6	C9H7O2+
148.0521	25	C9H8O2+
151.0752	33	C9H11O2+
154.0656	7	C11H8N+
155.0366	25	C10H5NO+
156.0445	511	C10H6NO+
157.0518	67	C10H7NO+
158.0601	535	C10H8NO+
159.044	40	C10H7O2+
159.0676	164	C10H9NO+
160.0519	13	C10H8O2+
160.0755	39	C10H10NO+
161.0603	13	C10H9O2+
170.0601	87	C11H8NO+
171.0679	999	C11H9NO+
172.0393	44	C10H6NO2+
172.0726	75	C8H12O4+
173.0466	10	C10H7NO2+
174.0549	52	C10H8NO2+
174.0914	10	C11H12NO+
175.0753	65	C11H11O2+
180.0806	10	C13H10N+
181.0888	9	C13H11N+
183.0677	25	C12H9NO+
184.0755	13	C12H10NO+
186.055	431	C11H8NO2+
187.0629	166	C11H9NO2+
188.0708	20	C11H10NO2+
189.0784	50	C11H11NO2+
190.0869	7	C11H12NO2+
191.0724	8	C14H9N+
192.0806	20	C14H10N+
193.0885	9	C14H11N+
194.0973	14	C14H12N+
196.0757	40	C13H10NO+
197.0842	14	C13H11NO+
200.0704	9	C12H10NO2+
202.0862	359	C12H12NO2+
204.066	21	C11H10NO3+
204.0804	26	C15H10N+
205.0889	15	C15H11N+
206.0961	22	C15H12N+
207.068	6	C14H9NO+
208.0756	28	C14H10NO+
209.0837	43	C14H11NO+
210.0914	39	C14H12NO+
211.0623	4	C13H9NO2+
212.0711	7	C13H10NO2+
217.0883	10	C16H11N+
218.0968	7	C16H12N+
220.0757	70	C15H10NO+
221.0838	33	C15H11NO+
222.0912	122	C15H12NO+
224.0704	48	C14H10NO2+
224.1073	35	C15H14NO+
225.0793	22	C14H11NO2+
227.0947	17	C14H13NO2+
232.0758	14	C16H10NO+
233.0835	37	C16H11NO+
234.0913	94	C16H12NO+
235.0994	51	C16H13NO+
236.0709	30	C15H10NO2+
236.1075	11	C16H14NO+
237.0788	29	C15H11NO2+
238.0863	97	C15H12NO2+
240.1019	77	C15H14NO2+
248.0706	29	C16H10NO2+
248.106	7	C17H14NO+
249.0787	25	C16H11NO2+
250.0862	194	C16H12NO2+
251.0945	77	C16H13NO2+
252.1021	122	C16H14NO2+
254.1176	21	C16H16NO2+
262.0864	38	C17H12NO2+
263.0942	77	C17H13NO2+
264.1023	49	C17H14NO2+
266.0809	52	C16H12NO3+
266.1176	55	C17H16NO2+
277.072	7	C17H11NO3+
278.0811	96	C17H12NO3+
278.1175	8	C18H16NO2+
279.0892	79	C17H13NO3+
280.0967	523	C17H14NO3+
282.1121	16	C17H16NO3+
290.0816	7	C18H12NO3+
292.0968	10	C18H14NO3+
294.1124	33	C18H16NO3+
296.1282	14	C18H18NO3+
306.0766	18	C18H12NO4+
308.0917	656	C18H14NO4+
322.1072	12	C19H16NO4+
324.1228	106	C19H18NO4+
