Mass spectrum: 8-Prenylnaringenin; LC-ESI-ITFT; MS2; CE: 60%; R=15000; [M+H]+
Name: 8-Prenylnaringenin
Name: (2S)-5,7-dihydroxy-2-(4-hydroxyphenyl)-8-(3-methylbut-2-enyl)-2,3-dihydrochromen-4-one
Formula: C20H20O5
Exact mass: 340.1311
SMILES: CC(=CCC1=C(C=C(C2=C1O[C@@H](CC2=O)C3=CC=C(C=C3)O)O)O)C
InChI: InChI=1S/C20H20O5/c1-11(2)3-8-14-15(22)9-16(23)19-17(24)10-18(25-20(14)19)12-4-6-13(21)7-5-12/h3-7,9,18,21-23H,8,10H2,1-2H3/t18-/m0/s1
Instrument: LTQ Orbitrap XL Thermo Scientific
Instrument type: LC-ESI-ITFT
Ms type: MS2
Ion mode: POSITIVE
Ionization: ESI
Fragmentation mode: HCD
Collision energy: 60% (nominal)
Resolution: 15000
Column name: Kinetex Evo C18 2.6 um 50 x 2.1 mm
Retention time: 11.902 min
Base peak: 116.9858
Precursor m/z: 341.1384
Precursor type: [M+H]+
m/z	relative intensity	assigned
55.0178	13	C3H3O+
68.9973	3	C3HO2+
97.0285	2	C5H5O2+
99.0075	2	C4H3O3+
107.0492	30	C7H7O+
119.0492	5	C8H7O+
121.0648	12	C8H9O+
123.0078	44	C6H3O3+
137.0234	13	C7H5O3+
141.0183	14	C6H5O4+
147.0442	23	C9H7O2+
165.0184	999	C8H5O4+
169.0652	2	C12H9O+
179.034	15	C9H7O4+
183.029	45	C8H7O5+
191.0341	4	C10H7O4+
197.0444	9	C9H9O5+
197.0598	3	C13H9O2+
213.0545	4	C13H9O3+
243.0648	4	C14H11O4+
267.0652	5	C16H11O4+
