Mass spectrum: Pterosin A; LC-ESI-ITFT; MS2; CE: 95%; R=15000; [M+H]+
Name: Pterosin A
Name: (2S)-6-(2-hydroxyethyl)-2-(hydroxymethyl)-2,5,7-trimethyl-3H-inden-1-one
Formula: C15H20O3
Exact mass: 248.1412
SMILES: CC1=CC2=C(C(=C1CCO)C)C(=O)[C@](C2)(C)CO
InChI: InChI=1S/C15H20O3/c1-9-6-11-7-15(3,8-17)14(18)13(11)10(2)12(9)4-5-16/h6,16-17H,4-5,7-8H2,1-3H3/t15-/m0/s1
Instrument: LTQ Orbitrap XL Thermo Scientific
Instrument type: LC-ESI-ITFT
Ms type: MS2
Ion mode: POSITIVE
Ionization: ESI
Fragmentation mode: HCD
Collision energy: 95 % (nominal)
Resolution: 15000
Column name: Kinetex Evo C18 2.6 um 50 x 2.1 mm
Retention time: 9.250 min
Base peak: 249.1476
Precursor m/z: 249.1485
Precursor type: [M+H]+
m/z	relative intensity	assigned
79.0541	20	C6H7+
91.054	45	C7H7+
105.0697	65	C8H9+
115.0538	29	C9H7+
117.0696	14	C9H9+
119.0853	65	C9H11+
128.0617	130	C10H8+
129.0696	164	C10H9+
130.0774	24	C10H10+
131.0854	25	C10H11+
133.1006	64	C10H13+
141.0696	285	C11H9+
142.0774	452	C11H10+
143.0852	152	C11H11+
144.0929	50	C11H12+
145.1007	39	C11H13+
153.0696	50	C12H9+
154.0775	33	C12H10+
155.0852	999	C12H11+
156.093	195	C12H12+
157.1008	261	C12H13+
158.109	11	C12H14+
165.0698	20	C13H9+
167.085	9	C13H11+
168.0936	17	C13H12+
169.1008	96	C13H13+
170.1087	508	C13H14+
171.0802	18	C12H11O+
183.0802	36	C13H11O+
184.0887	12	C13H12O+
185.0958	53	C13H13O+
185.1324	33	C14H17+
