Mass spectrum: Norharmane; LC-ESI-ITFT; MS2; CE: 120%; R=15000; [M+H]+
Name: Norharmane
Name: Norharman
Name: 9H-pyrido[3,4-b]indole
Formula: C11H8N2
Exact mass: 168.0687
SMILES: N1C2=C(C=CC=C2)C2=C1C=NC=C2
InChI: InChI=1S/C11H8N2/c1-2-4-10-8(3-1)9-5-6-12-7-11(9)13-10/h1-7,13H
Instrument: LTQ Orbitrap XL Thermo Scientific
Instrument type: LC-ESI-ITFT
Ms type: MS2
Ionization: ESI
Ion mode: POSITIVE
Fragmentation mode: HCD
Collision energy: 120 % (nominal)
Resolution: 15000
Column name: Kinetex Evo C18 2.6 um 50 x 2.1 mm
Retention time: 6.991 min
Base peak: 169.0765
Precursor m/z: 169.076
Precursor type: [M+H]+
m/z	relative intensity	assigned
77.0386	8	C6H5+
79.0417	13	C5H5N+
91.0544	10	C7H7+
102.0468	3	C8H6+
105.0449	4	C6H5N2+
114.0467	23	C9H6+
115.0544	577	C9H7+
116.0496	60	C8H6N+
117.0575	28	C8H7N+
128.0497	10	C9H6N+
129.0449	10	C8H5N2+
129.0575	17	C9H7N+
132.0573	4	C9H8O+
134.0603	6	C8H8NO+
140.0497	105	C10H6N+
141.0574	130	C10H7N+
142.0652	152	C10H8N+
152.0497	13	C11H6N+
167.0608	48	C11H7N2+
168.0685	999	C11H8N2+
169.0761	612	C11H9N2+
