Mass spectrum: alpha-Santonin; LC-ESI-ITFT; MS2; CE: 70%; R=15000; [M+H]+
Name: alpha-Santonin
Name: Santonin
Name: (3S,3aS,5aS,9bS)-3,5a,9-trimethyl-3a,4,5,9b-tetrahydro-3H-benzo[g][1]benzofuran-2,8-dione
Formula: C15H18O3
Exact mass: 246.1256
SMILES: C[C@H]1[C@@H]2CC[C@]3(C=CC(=O)C(=C3[C@H]2OC1=O)C)C
InChI: InChI=1S/C15H18O3/c1-8-10-4-6-15(3)7-5-11(16)9(2)12(15)13(10)18-14(8)17/h5,7-8,10,13H,4,6H2,1-3H3/t8-,10-,13-,15-/m0/s1
Instrument: LTQ Orbitrap XL Thermo Scientific
Instrument type: LC-ESI-ITFT
Ms type: MS2
Ion mode: POSITIVE
Ionization: ESI
Fragmentation mode: HCD
Collision energy: 70% (nominal)
Resolution: 15000
Column name: Kinetex Evo C18 2.6 um 50 x 2.1 mm
Retention time: 9.016 min
Base peak: 116.9859
Precursor m/z: 247.1329
Precursor type: [M+H]+
m/z	relative intensity	assigned
91.0543	26	C7H7+
105.0699	31	C8H9+
117.0699	53	C9H9+
129.0698	13	C10H9+
130.0776	18	C10H10+
131.0853	36	C10H11+
135.0805	255	C9H11O+
145.1013	373	C11H13+
149.0961	33	C10H13O+
155.0856	197	C12H11+
158.0727	532	C11H10O+
159.0805	98	C11H11O+
160.0885	18	C11H12O+
161.0962	32	C11H13O+
171.0809	15	C12H11O+
172.0883	40	C12H12O+
173.0962	999	C12H13O+
174.104	70	C12H14O+
186.104	51	C13H14O+
201.1273	48	C14H17O+
