Mass spectrum: Conessine; LC-ESI-ITFT; MS2; CE: 85%; R=15000; [M+H]+
Name: Conessine
Formula: C24H40N2
Exact mass: 356.3191
SMILES: C[C@H]1[C@H]2CC[C@H]3[C@@H]4CC=C5C[C@H](CC[C@]5(C)[C@H]4CC[C@]23CN1C)N(C)C
InChI: InChI=1S/C24H40N2/c1-16-20-8-9-22-19-7-6-17-14-18(25(3)4)10-12-23(17,2)21(19)11-13-24(20,22)15-26(16)5/h6,16,18-22H,7-15H2,1-5H3/t16-,18-,19+,20+,21-,22-,23-,24-/m0/s1
Instrument: LTQ Orbitrap XL Thermo Scientific
Instrument type: LC-ESI-ITFT
Ms type: MS2
Ion mode: POSITIVE
Ionization: ESI
Fragmentation mode: HCD
Collision energy: 85 % (nominal)
Resolution: 15000
Column name: Kinetex Evo C18 2.6 um 50 x 2.1 mm
Retention time: 5.420 min
Base peak: 179.1667
Precursor m/z: 357.3264
Precursor type: [M+H]+
m/z	relative intensity	assigned
55.0542	13	C4H7+
58.0649	14	C3H8N+
67.0542	139	C5H7+
69.0698	16	C5H9+
70.0651	16	C4H8N+
72.0807	38	C4H10N+
77.0387	18	C6H5+
79.0542	177	C6H7+
81.0699	224	C6H9+
83.0856	19	C6H11+
84.0808	999	C5H10N+
91.0542	209	C7H7+
93.0699	248	C7H9+
95.0855	113	C7H11+
98.0966	15	C6H12N+
105.0698	335	C8H9+
107.0854	103	C8H11+
109.1012	152	C8H13+
117.0698	102	C9H9+
119.0855	176	C9H11+
121.1012	51	C9H13+
123.1171	10	C9H15+
128.0617	9	C10H8+
129.0698	36	C10H9+
130.0775	24	C10H10+
131.0854	176	C10H11+
133.1012	132	C10H13+
135.1169	64	C10H15+
142.0777	14	C11H10+
143.0854	51	C11H11+
144.0933	43	C11H12+
145.1011	160	C11H13+
147.1167	197	C11H15+
155.0856	9	C12H11+
157.101	60	C12H13+
159.1168	226	C12H15+
161.1324	108	C12H17+
171.1168	27	C13H15+
173.1323	59	C13H17+
183.1167	11	C14H15+
185.1322	32	C14H17+
187.148	50	C14H19+
213.1639	13	C16H21+
298.2537	9	C21H32N+
