Mass spectrum: Pilocarpine; LC-ESI-ITFT; MS2; CE: 55%; R=15000; [M+H]+
Name: Pilocarpine
Name: (3S,4R)-3-ethyl-4-[(3-methylimidazol-4-yl)methyl]oxolan-2-one
Formula: C11H16N2O2
Exact mass: 208.1212
SMILES: CC[C@H]1[C@H](COC1=O)Cc2cncn2C
InChI: InChI=1S/C11H16N2O2/c1-3-10-8(6-15-11(10)14)4-9-5-12-7-13(9)2/h5,7-8,10H,3-4,6H2,1-2H3/t8-,10-/m0/s1
Instrument: LTQ Orbitrap XL Thermo Scientific
Instrument type: LC-ESI-ITFT
Ms type: MS2
Ion mode: POSITIVE
Ionization: ESI
Fragmentation mode: HCD
Collision energy: 55% (nominal)
Resolution: 15000
Column name: Kinetex Evo C18 2.6 um 50 x 2.1 mm
Retention time: 0.630 min
Base peak: 209.1283
Precursor m/z: 209.1285
Precursor type: [M+H]+
m/z	relative intensity	assigned
94.0651	5	C6H8N+
95.0604	126	C5H7N2+
96.0683	108	C5H8N2+
97.076	6	C5H9N2+
109.0761	9	C6H9N2+
121.0761	35	C7H9N2+
122.0839	9	C7H10N2+
122.0964	11	C8H12N+
134.0843	3	C8H10N2+
135.0916	10	C8H11N2+
136.112	5	C9H14N+
151.123	11	C9H15N2+
163.1231	151	C10H15N2+
181.1338	8	C10H17N2O+
182.1174	3	C10H16NO2+
191.118	10	C11H15N2O+
209.1285	999	C11H17N2O2+
