Mass spectrum: alpha-Cyperone; LC-ESI-ITFT; MS2; CE: 20%; R=15000; [M+H]+
Name: alpha-Cyperone
Formula: C15H22O
Exact mass: 218.1671
SMILES: CC1=C2CC(CCC2(CCC1=O)C)C(=C)C
InChI: InChI=1S/C15H22O/c1-10(2)12-5-7-15(4)8-6-14(16)11(3)13(15)9-12/h12H,1,5-9H2,2-4H3
Instrument: LTQ Orbitrap XL Thermo Scientific
Instrument type: LC-ESI-ITFT
Ms type: MS2
Ion mode: POSITIVE
Ionization: ESI
Fragmentation mode: HCD
Collision energy: 20 % (nominal)
Resolution: 15000
Column name: Kinetex Evo C18 2.6 um 50 x 2.1 mm
Retention time: 13.110 min
Base peak: 219.1741
Precursor m/z: 219.1743
Precursor type: [M+H]+
m/z	relative intensity	assigned
95.0854	9	C7H11+
97.0646	6	C6H9O+
109.101	13	C8H13+
111.0801	8	C7H11O+
161.1323	9	C12H17+
163.1118	12	C11H15O+
173.1326	6	C13H17+
201.1637	29	C15H21+
219.1742	999	C15H23O+
