Mass spectrum: Jervine; LC-ESI-ITFT; MS2; CE: 65%; R=15000; [M+H]+
Name: Jervine
Name: (3S,3`R,3`aS,6`S,6aS,6bS,7`aR,9R,11aS,11bR)-3-hydroxy-3`,6`,10,11b-tetramethylspiro[1,2,3,4,6,6a,6b,7,8,11a-decahydrobenzo[a]fluorene-9,2`-3a,4,5,6,7,7a-hexahydro-3H-furo[3,2-b]pyridine]-11-one
Formula: C27H39NO3
Exact mass: 425.2930
SMILES: C[C@H]1C[C@@H]2[C@H]([C@H]([C@]3(O2)CC[C@H]4[C@@H]5CC=C6C[C@H](CC[C@@]6([C@H]5C(=O)C4=C3C)C)O)C)NC1
InChI: InChI=1S/C27H39NO3/c1-14-11-21-24(28-13-14)16(3)27(31-21)10-8-19-20-6-5-17-12-18(29)7-9-26(17,4)23(20)25(30)22(19)15(27)2/h5,14,16,18-21,23-24,28-29H,6-13H2,1-4H3/t14-,16+,18-,19-,20-,21+,23+,24-,26-,27-/m0/s1
Instrument: LTQ Orbitrap XL Thermo Scientific
Instrument type: LC-ESI-ITFT
Ms type: MS2
Ion mode: POSITIVE
Ionization: ESI
Fragmentation mode: HCD
Collision energy: 65% (nominal)
Resolution: 15000
Column name: Kinetex Evo C18 2.6 um 50 x 2.1 mm
Retention time: 8.952 min
Base peak: 426.3
Precursor m/z: 426.3003
Precursor type: [M+H]+
m/z	relative intensity	assigned
55.0541	16	C4H7+
57.0697	11	C4H9+
67.0542	419	C5H7+
69.0334	10	C4H5O+
69.0698	30	C5H9+
70.0651	76	C4H8N+
72.0445	14	C3H6NO+
79.0542	71	C6H7+
81.0699	342	C6H9+
82.0653	19	C5H8N+
83.0492	97	C5H7O+
84.0808	492	C5H10N+
85.0648	268	C5H9O+
91.0542	81	C7H7+
93.0699	166	C7H9+
95.0855	126	C7H11+
96.0808	136	C6H10N+
97.0647	17	C6H9O+
98.0964	52	C6H12N+
99.0439	11	C5H7O2+
99.0805	9	C6H11O+
100.0757	21	C5H10NO+
102.0913	61	C5H12NO+
105.0699	206	C8H9+
107.0855	216	C8H11+
109.1011	801	C8H13+
110.0966	10	C7H12N+
111.0803	14	C7H11O+
112.0757	121	C6H10NO+
113.0837	8	C6H11NO+
114.0913	999	C6H12NO+
117.0698	44	C9H9+
119.0855	189	C9H11+
121.0648	19	C8H9O+
121.1011	308	C9H13+
123.0803	31	C8H11O+
123.1168	12	C9H15+
124.1121	39	C8H14N+
125.0964	9	C8H13O+
126.1278	32	C8H16N+
129.0696	32	C10H9+
130.0777	15	C10H10+
131.0855	116	C10H11+
133.0646	9	C9H9O+
133.1012	154	C10H13+
135.0803	28	C9H11O+
135.1167	25	C10H15+
137.096	10	C9H13O+
140.1071	21	C8H14NO+
142.0781	23	C11H10+
143.0856	94	C11H11+
145.1012	372	C11H13+
147.0804	50	C10H11O+
147.1168	75	C11H15+
149.0961	226	C10H13O+
151.1117	18	C10H15O+
155.0855	42	C12H11+
156.0931	27	C12H12+
157.1012	195	C12H13+
159.0805	21	C11H11O+
159.1168	88	C12H15+
161.0961	25	C11H13O+
163.1118	18	C11H15O+
167.0855	12	C13H11+
168.0937	7	C13H12+
169.1012	52	C13H13+
170.1083	12	C13H14+
171.0801	9	C12H11O+
171.1169	94	C13H15+
173.0961	76	C12H13O+
173.1323	45	C13H17+
175.1118	165	C12H15O+
179.0859	11	C14H11+
180.0932	7	C14H12+
181.1011	28	C14H13+
183.117	61	C14H15+
185.0963	13	C13H13O+
185.1326	31	C14H17+
187.1118	39	C13H15O+
187.148	8	C14H19+
189.1274	39	C13H17O+
193.1011	23	C15H13+
194.1091	8	C15H14+
195.1166	54	C15H15+
196.1251	8	C15H16+
197.0963	10	C14H13O+
197.1328	38	C15H17+
198.104	19	C14H14O+
199.1118	17	C14H15O+
199.1482	45	C15H19+
201.1273	8	C14H17O+
201.1632	7	C15H21+
207.1166	20	C16H15+
209.1322	45	C16H17+
211.1115	15	C15H15O+
211.148	34	C16H19+
213.1273	17	C15H17O+
213.1641	22	C16H21+
219.1178	13	C17H15+
220.125	9	C17H16+
221.1328	33	C17H17+
223.1487	19	C17H19+
225.1642	12	C17H21+
227.144	8	C16H19O+
231.117	11	C18H15+
233.1327	20	C18H17+
235.1481	26	C18H19+
237.1638	28	C18H21+
245.1333	8	C19H17+
246.1406	8	C19H18+
247.1475	21	C19H19+
249.1641	17	C19H21+
253.1592	11	C18H21O+
260.157	9	C20H20+
265.196	9	C20H25+
275.1797	26	C21H23+
277.1951	32	C21H25+
293.1892	10	C21H25O+
295.2054	36	C21H27O+
313.2162	44	C21H29O2+
426.2993	17	C27H40NO3+
