Mass spectrum: Aconitin; LC-ESI-ITFT; MS2; CE: 85%; R=15000; [M+H]+
Name: Aconitin
Name: Aconitine
Name: [(1S,2R,3R,4R,5R,6S,7S,8R,9R,13R,14R,16S,17S,18R)-8-acetyloxy-11-ethyl-5,7,14-trihydroxy-6,16,18-trimethoxy-13-(methoxymethyl)-11-azahexacyclo[7.7.2.12,5.01,10.03,8.013,17]nonadecan-4-yl] benzoate
Formula: C34H47NO11
Exact mass: 645.3149
SMILES: CCN1C[C@@]2([C@@H](C[C@@H]([C@@]34[C@@H]2[C@H]([C@@H](C31)[C@@]5([C@@H]6[C@H]4C[C@@]([C@@H]6OC(=O)C7=CC=CC=C7)([C@H]([C@@H]5O)OC)O)OC(=O)C)OC)OC)O)COC
InChI: InChI=1S/C34H47NO11/c1-7-35-15-31(16-41-3)20(37)13-21(42-4)33-19-14-32(40)28(45-30(39)18-11-9-8-10-12-18)22(19)34(46-17(2)36,27(38)29(32)44-6)23(26(33)35)24(43-5)25(31)33/h8-12,19-29,37-38,40H,7,13-16H2,1-6H3/t19-,20-,21+,22-,23+,24+,25-,26?,27+,28-,29+,31+,32-,33+,34-/m1/s1
Instrument: LTQ Orbitrap XL Thermo Scientific
Instrument type: LC-ESI-ITFT
Ms type: MS2
Ion mode: POSITIVE
Ionization: ESI
Fragmentation mode: HCD
Collision energy: 85% (nominal)
Resolution: 15000
Column name: Kinetex Evo C18 2.6 um 50 x 2.1 mm
Retention time: 9.733 min
Base peak: 116.9858
Precursor m/z: 646.3222
Precursor type: [M+H]+
m/z	relative intensity	assigned
71.0491	6	C4H7O+
72.0807	4	C4H10N+
75.0439	13	C3H7O2+
77.0385	152	C6H5+
79.0542	26	C6H7+
80.0496	6	C5H6N+
81.0697	8	C6H9+
82.065	11	C5H8N+
85.0284	12	C4H5O2+
91.0541	53	C7H7+
94.0649	9	C6H8N+
95.049	19	C6H7O+
96.0807	9	C6H10N+
103.0541	8	C8H7+
105.0334	999	C7H5O+
106.0651	9	C7H8N+
107.0491	10	C7H7O+
108.0806	29	C7H10N+
109.0646	14	C7H9O+
110.0965	10	C7H12N+
111.0804	14	C7H11O+
115.054	20	C9H7+
116.0619	8	C9H8+
117.0573	6	C8H7N+
117.0697	42	C9H9+
118.0652	12	C8H8N+
119.0491	11	C8H7O+
119.085	4	C9H11+
120.0809	5	C8H10N+
121.0648	14	C8H9O+
121.0885	13	C8H11N+
122.0963	23	C8H12N+
124.0754	13	C7H10NO+
128.0619	32	C10H8+
129.0697	49	C10H9+
130.0649	5	C9H8N+
131.0487	8	C9H7O+
131.0732	7	C9H9N+
131.0854	24	C10H11+
132.0805	16	C9H10N+
133.0283	10	C8H5O2+
134.06	8	C8H8NO+
134.0963	22	C9H12N+
135.0803	9	C9H11O+
136.0755	6	C8H10NO+
137.0598	7	C8H9O2+
138.0913	6	C8H12NO+
141.0697	36	C11H9+
142.0774	5	C11H10+
143.0851	8	C11H11+
144.0568	5	C10H8O+
144.0808	8	C10H10N+
145.0643	7	C10H9O+
145.0885	12	C10H11N+
146.0361	11	C9H6O2+
146.0599	10	C9H8NO+
146.0962	24	C10H12N+
147.044	19	C9H7O2+
147.1041	12	C10H13N+
148.112	16	C10H14N+
150.0919	6	C9H12NO+
152.0618	10	C12H8+
152.1068	37	C9H14NO+
153.0697	23	C12H9+
154.0773	8	C12H10+
155.0853	17	C12H11+
156.0805	9	C11H10N+
157.0648	6	C11H9O+
158.0963	26	C11H12N+
160.0757	13	C10H10NO+
160.1119	30	C11H14N+
162.0911	21	C10H12NO+
165.0697	40	C13H9+
166.0773	19	C13H10+
167.0853	31	C13H11+
169.0648	10	C12H9O+
170.096	7	C12H12N+
171.0802	12	C12H11O+
171.1039	8	C12H13N+
172.112	29	C12H14N+
174.0911	21	C11H12NO+
174.1273	6	C12H16N+
176.1067	7	C11H14NO+
178.0775	36	C14H10+
178.1224	28	C11H16NO+
179.0854	39	C14H11+
181.0646	10	C13H9O+
182.0968	6	C13H12N+
184.1118	20	C13H14N+
186.1276	13	C13H16N+
188.0706	9	C11H10NO2+
188.1073	6	C12H14NO+
189.0698	11	C15H9+
190.0774	27	C15H10+
190.1219	13	C12H16NO+
191.0853	29	C15H11+
192.0935	10	C15H12+
193.1006	10	C15H13+
194.0727	8	C14H10O+
194.0968	5	C14H12N+
195.0805	12	C14H11O+
196.1113	11	C14H14N+
202.1224	34	C13H16NO+
203.0855	18	C16H11+
204.0937	10	C16H12+
205.0637	7	H15NO11+
205.1009	15	C16H13+
208.1118	8	C15H14N+
215.0852	11	C17H11+
218.0725	10	CH16NO11+
219.081	10	C16H11O+
231.0797	8	C2H17NO11+
250.1226	8	C17H16NO+
263.1057	3	C18H15O2+
