Mass spectrum: Coniine; LC-ESI-ITFT; MS2; CE: 25%; R=15000; [M+H]+
Name: Coniine
Formula: C8H17N
Exact mass: 127.1361
SMILES: CCC[C@H]1CCCCN1
InChI: InChI=1S/C8H17N/c1-2-5-8-6-3-4-7-9-8/h8-9H,2-7H2,1H3/t8-/m0/s1
Instrument: LTQ Orbitrap XL Thermo Scientific
Instrument type: LC-ESI-ITFT
Ms type: MS2
Ion mode: POSITIVE
Ionization: ESI
Fragmentation mode: HCD
Collision energy: 25 % (nominal)
Resolution: 15000
Column name: Kinetex Evo C18 2.6 um 50x2.1 mm, Phenomenex
Retention time: 0.752 min
Base peak: 128.143
Precursor m/z: 128.1434
Precursor type: [M+H]+
m/z	relative intensity	assigned
128.1432	999	C8H18N+
