Mass spectrum: Galantamine; LC-ESI-ITFT; MS2; CE: 65%; R=15000; [M+H]+
Name: Galantamine
Formula: C17H21NO3
Exact mass: 287.1521
SMILES: CN1CCC23C=CC(CC2OC4=C(C=CC(=C34)C1)OC)O
InChI: InChI=1S/C17H21NO3/c1-18-8-7-17-6-5-12(19)9-14(17)21-16-13(20-2)4-3-11(10-18)15(16)17/h3-6,12,14,19H,7-10H2,1-2H3
Instrument: LTQ Orbitrap XL Thermo Scientific
Instrument type: LC-ESI-ITFT
Ms type: MS2
Ion mode: POSITIVE
Ionization: ESI
Fragmentation mode: CID
Collision energy: 65 % (nominal)
Resolution: 15000
Column name: Kinetex Evo C18 2.6 um 50 x 2.1 mm
Retention time: 0.609 min
Base peak: 249.1957
Precursor m/z: 288.1594
Precursor type: [M+H]+
m/z	relative intensity	assigned
94.0653	2	C6H8N+
109.0649	3	C7H9O+
132.0809	6	C9H10N+
133.0888	9	C9H11N+
134.0966	9	C9H12N+
137.06	5	C8H9O2+
150.0916	6	C9H12NO+
151.0994	36	C9H13NO+
161.0962	1	C11H13O+
167.0859	2	C13H11+
171.0813	1	C12H11O+
175.0756	10	C11H11O2+
179.0858	15	C14H11+
181.1016	7	C14H13+
183.0811	1	C13H11O+
189.0912	6	C12H13O2+
191.0705	2	C11H11O3+
191.085	1	C15H11+
197.0964	126	C14H13O+
198.0674	1	C13H10O2+
199.0756	72	C13H11O2+
203.107	19	C13H15O2+
207.0808	26	C15H11O+
209.0964	97	C15H13O+
210.0681	7	C14H10O2+
211.112	3	C15H15O+
213.0913	431	C14H13O2+
216.1022	4	C13H14NO2+
220.1126	5	C16H14N+
221.0967	6	C16H13O+
223.0993	2	C15H13NO+
225.0913	811	C15H13O2+
227.1072	7	C15H15O2+
229.1217	1	C15H17O2+
230.1182	2	C14H16NO2+
231.1018	765	C14H15O3+
238.1227	9	C16H16NO+
239.1068	26	C16H15O2+
241.1224	6	C16H17O2+
242.0941	6	C15H14O3+
245.1176	14	C15H17O3+
253.1226	10	C17H17O2+
255.1257	21	C16H17NO2+
257.1175	57	C16H17O3+
270.1491	999	C17H20NO2+
