Mass spectrum: Rutin; LC-ESI-ITFT; MS2; CE: 20%; R=15000; [M+H]+
Name: Rutin
Name: Vitamin P
Name: 2-(3,4-dihydroxyphenyl)-5,7-dihydroxy-3-[3,4,5-trihydroxy-6-[(3,4,5-trihydroxy-6-methyloxan-2-yl)oxymethyl]oxan-2-yl]oxychromen-4-one
Formula: C27H30O16
Exact mass: 610.1534
SMILES: CC1OC(OCC2OC(OC3=C(OC4=CC(O)=CC(O)=C4C3=O)C3=CC=C(O)C(O)=C3)C(O)C(O)C2O)C(O)C(O)C1O
InChI: InChI=1S/C27H30O16/c1-8-17(32)20(35)22(37)26(40-8)39-7-15-18(33)21(36)23(38)27(42-15)43-25-19(34)16-13(31)5-10(28)6-14(16)41-24(25)9-2-3-11(29)12(30)4-9/h2-6,8,15,17-18,20-23,26-33,35-38H,7H2,1H3
Instrument: LTQ Orbitrap XL Thermo Scientific
Instrument type: LC-ESI-ITFT
Ms type: MS2
Ion mode: POSITIVE
Ionization: ESI
Fragmentation mode: HCD
Collision energy: 20% (nominal)
Resolution: 15000
Column name: Kinetex Evo C18 2.6 um 50 x 2.1 mm
Retention time: 8.528 min
Base peak: 116.9858
Precursor m/z: 611.1607
Precursor type: [M+H]+
m/z	relative intensity	assigned
303.0494	999	C15H11O7+
