Mass spectrum: Homoharringtonine; LC-ESI-ITFT; MS2; CE: 80%; R=15000; [M+H]+
Name: Homoharringtonine
Name: Omacetaxine mepesuccinate
Name: 1-O-[(2S,3S,6R)-4-methoxy-16,18-dioxa-10-azapentacyclo[11.7.0.02,6.06,10.015,19]icosa-1(20),4,13,15(19)-tetraen-3-yl] 4-O-methyl (2R)-2-hydroxy-2-(4-hydroxy-4-methylpentyl)butanedioate
Formula: C29H39NO9
Exact mass: 545.2625
SMILES: CC(C)(CCC[C@@](CC(=O)OC)(C(=O)O[C@H]1[C@H]2c3cc4c(cc3CCN5[C@@]2(CCC5)C=C1OC)OCO4)O)O
InChI: InChI=1S/C29H39NO9/c1-27(2,33)8-5-10-29(34,16-23(31)36-4)26(32)39-25-22(35-3)15-28-9-6-11-30(28)12-7-18-13-20-21(38-17-37-20)14-19(18)24(25)28/h13-15,24-25,33-34H,5-12,16-17H2,1-4H3/t24-,25-,28+,29-/m1/s1
Instrument: LTQ Orbitrap XL Thermo Scientific
Instrument type: LC-ESI-ITFT
Ms type: MS2
Ion mode: POSITIVE
Ionization: ESI
Fragmentation mode: HCD
Collision energy: 80% (nominal)
Resolution: 15000
Column name: Kinetex Evo C18 2.6 um 50 x 2.1 mm
Retention time: 7.126 min
Base peak: 546.2685
Precursor m/z: 546.2698
Precursor type: [M+H]+
m/z	relative intensity	assigned
55.0177	18	C3H3O+
59.049	27	C3H7O+
67.054	15	C5H7+
69.0696	26	C5H9+
70.065	30	C4H8N+
79.0542	34	C6H7+
81.0701	12	C6H9+
85.0648	19	C5H9O+
91.0541	76	C7H7+
93.0699	97	C7H9+
94.0651	19	C6H8N+
95.0491	13	C6H7O+
96.0807	19	C6H10N+
97.0287	12	C5H5O2+
97.065	12	C6H9O+
103.0541	69	C8H7+
107.0855	93	C8H11+
108.0571	17	C7H8O+
109.0647	64	C7H9O+
110.0599	55	C6H8NO+
111.0678	24	C6H9NO+
111.0802	16	C7H11O+
115.0541	109	C9H7+
117.0697	11	C9H9+
118.0651	24	C8H8N+
119.0492	44	C8H7O+
120.0808	26	C8H10N+
121.0646	20	C8H9O+
123.0804	34	C8H11O+
126.0913	45	C7H12NO+
129.0699	37	C10H9+
131.049	53	C9H7O+
135.0441	62	C8H7O2+
135.0678	18	C8H9NO+
139.0543	12	C11H7+
141.0697	61	C11H9+
142.0649	37	C10H8N+
143.0489	37	C10H7O+
145.0645	15	C10H9O+
146.0601	19	C9H8NO+
147.0439	11	C9H7O2+
148.0753	18	C9H10NO+
149.0597	79	C9H9O2+
150.0912	653	C9H12NO+
152.0619	65	C12H8+
153.0697	96	C12H9+
155.0854	48	C12H11+
156.0804	18	C11H10N+
157.0641	28	C11H9O+
159.0441	73	C10H7O2+
160.0515	12	C10H8O2+
161.0601	21	C10H9O2+
165.0697	217	C13H9+
167.0489	30	C12H7O+
167.073	29	C12H9N+
167.0853	59	C13H11+
168.0806	57	C12H10N+
169.0644	32	C12H9O+
169.0885	25	C12H11N+
170.06	47	C11H8NO+
170.0962	24	C12H12N+
171.0802	50	C12H11O+
171.104	15	C12H13N+
172.0515	60	C11H8O2+
173.0595	58	C11H9O2+
174.0548	51	C10H8NO2+
175.063	11	C10H9NO2+
176.0705	160	C10H10NO2+
178.0776	53	C14H10+
179.0855	141	C14H11+
180.0564	28	C13H8O+
180.0805	65	C13H10N+
180.0934	32	C14H12+
181.0647	93	C13H9O+
181.0892	21	C13H11N+
181.1016	16	C14H13+
182.0726	100	C13H10O+
182.0964	96	C13H12N+
183.0802	59	C13H11O+
185.0597	95	C12H9O2+
186.0679	19	C12H10O2+
187.063	21	C11H9NO2+
187.0752	40	C12H11O2+
190.0773	35	C15H10+
191.0854	138	C15H11+
192.0806	25	C14H10N+
192.0936	46	C15H12+
193.0647	67	C14H9O+
193.0888	53	C14H11N+
194.0729	30	C14H10O+
194.0966	27	C14H12N+
195.0803	147	C14H11O+
196.0756	50	C13H10NO+
196.0886	18	C14H12O+
196.112	30	C14H14N+
197.0595	75	C13H9O2+
197.0838	23	C13H11NO+
197.0962	44	C14H13O+
198.0546	41	C12H8NO2+
198.068	22	C13H10O2+
198.0909	46	C13H12NO+
199.0384	34	C12H7O3+
199.0626	139	C12H9NO2+
199.0752	47	C13H11O2+
200.0461	25	C12H8O3+
200.0709	55	C12H10NO2+
200.107	33	C13H14NO+
202.0862	23	C12H12NO2+
206.0954	23	C15H12N+
207.0804	65	C15H11O+
207.1043	21	C15H13N+
208.0757	44	C14H10NO+
208.0882	78	C15H12O+
208.1118	186	C15H14N+
209.0596	100	C14H9O2+
209.086	9	C4H17O9+
210.0677	94	C14H10O2+
210.0913	122	C14H12NO+
210.1282	15	C15H16N+
211.0628	96	C13H9NO2+
211.0753	99	C14H11O2+
212.0707	118	C13H10NO2+
212.0832	17	C14H12O2+
212.1069	24	C14H14NO+
213.0545	22	C13H9O3+
213.0789	46	C13H11NO2+
213.0906	13	C14H13O2+
214.0861	186	C13H12NO2+
215.0698	33	C13H11O3+
216.1013	29	C13H14NO2+
219.0802	37	C16H11O+
221.06	18	C15H9O2+
221.0841	18	C15H11NO+
222.0672	50	C15H10O2+
222.0913	48	C15H12NO+
223.0753	174	C15H11O2+
223.1118	45	C16H15O+
224.0708	81	C14H10NO2+
224.1071	71	C15H14NO+
225.0543	55	C14H9O3+
225.0784	80	C14H11NO2+
225.0909	36	C15H13O2+
225.1157	16	C15H15NO+
226.0861	597	C14H12NO2+
226.1228	32	C15H16NO+
227.0575	163	C13H9NO3+
227.0705	18	C14H11O3+
227.0949	193	C14H13NO2+
228.0666	32	C13H10NO3+
228.1021	166	C14H14NO2+
229.0849	14	C14H13O3+
229.1099	156	C14H15NO2+
235.0746	14	C16H11O2+
236.0839	24	C16H12O2+
236.1068	117	C16H14NO+
237.0784	26	C15H11NO2+
237.091	34	C16H13O2+
238.0622	52	C15H10O3+
238.086	223	C15H12NO2+
238.1226	93	C16H16NO+
239.0703	41	C15H11O3+
239.095	77	C15H13NO2+
240.1017	999	C15H14NO2+
241.0745	12	C14H11NO3+
242.0809	142	C14H12NO3+
242.1175	23	C15H16NO2+
250.086	104	C16H12NO2+
251.0941	137	C16H13NO2+
252.1019	225	C16H14NO2+
253.0858	20	C16H13O3+
253.1106	57	C16H15NO2+
254.0812	57	C15H12NO3+
254.1177	145	C16H16NO2+
255.0892	47	C15H13NO3+
255.118	17	C20H15+
256.0967	22	C15H14NO3+
256.1341	14	C16H18NO2+
264.1018	73	C17H14NO2+
266.1173	449	C17H16NO2+
267.1264	118	C17H17NO2+
268.0965	267	C16H14NO3+
270.112	50	C16H16NO3+
282.1124	154	C17H16NO3+
284.1282	68	C17H18NO3+
