Mass spectrum: Pilocarpine; LC-ESI-ITFT; MS2; CE: 80%; R=15000; [M+H]+
Name: Pilocarpine
Name: (3S,4R)-3-ethyl-4-[(3-methylimidazol-4-yl)methyl]oxolan-2-one
Formula: C11H16N2O2
Exact mass: 208.1212
SMILES: CC[C@H]1[C@H](COC1=O)Cc2cncn2C
InChI: InChI=1S/C11H16N2O2/c1-3-10-8(6-15-11(10)14)4-9-5-12-7-13(9)2/h5,7-8,10H,3-4,6H2,1-2H3/t8-,10-/m0/s1
Instrument: LTQ Orbitrap XL Thermo Scientific
Instrument type: LC-ESI-ITFT
Ms type: MS2
Ion mode: POSITIVE
Ionization: ESI
Fragmentation mode: HCD
Collision energy: 80% (nominal)
Resolution: 15000
Column name: Kinetex Evo C18 2.6 um 50 x 2.1 mm
Retention time: 0.631 min
Base peak: 209.1281
Precursor m/z: 209.1285
Precursor type: [M+H]+
m/z	relative intensity	assigned
81.0701	9	C6H9+
83.0604	15	C4H7N2+
94.0651	29	C6H8N+
95.0604	532	C5H7N2+
95.0728	28	C6H9N+
96.0683	999	C5H8N2+
97.0761	21	C5H9N2+
107.073	8	C7H9N+
108.0809	6	C7H10N+
109.076	60	C6H9N2+
121.076	128	C7H9N2+
122.0838	37	C7H10N2+
122.0965	32	C8H12N+
123.0917	40	C7H11N2+
133.0759	31	C8H9N2+
134.0838	22	C8H10N2+
135.0918	54	C8H11N2+
136.112	9	C9H14N+
139.0868	7	C7H11N2O+
147.0916	19	C9H11N2+
148.0995	24	C9H12N2+
151.123	27	C9H15N2+
163.1231	134	C10H15N2+
209.1285	277	C11H17N2O2+
