Mass spectrum: Anabasine; LC-ESI-ITFT; MS2; CE: 65%; R=15000; [M+H]+
Name: Anabasine
Formula: C10H14N2
Exact mass: 162.1157
SMILES: C1CCC(NC1)C1=CC=CN=C1
InChI: InChI=1S/C10H14N2/c1-2-7-12-10(5-1)9-4-3-6-11-8-9/h3-4,6,8,10,12H,1-2,5,7H2
Instrument: LTQ Orbitrap XL Thermo Scientific
Instrument type: LC-ESI-ITFT
Ms type: MS2
Ion mode: POSITIVE
Ionization: ESI
Fragmentation mode: HCD
Collision energy: 65 % (nominal)
Resolution: 15000
Column name: Kinetex Evo C18 2.6 um 50x2.1 mm, Phenomenex
Retention time: 0.423 min
Base peak: 233.2013
Precursor m/z: 163.123
Precursor type: [M+H]+
m/z	relative intensity	assigned
65.0385	26	C5H5+
67.0542	8	C5H7+
70.0651	13	C4H8N+
80.0495	109	C5H6N+
82.0652	27	C5H8N+
84.0808	29	C5H10N+
91.0543	27	C7H7+
92.0495	584	C6H6N+
93.0573	40	C6H7N+
94.0651	536	C6H8N+
106.0652	25	C7H8N+
107.0729	8	C7H9N+
108.0805	4	C7H10N+
117.0573	176	C8H7N+
118.0651	641	C8H8N+
119.0728	7	C8H9N+
119.0854	6	C9H11+
120.0808	256	C8H10N+
129.0699	26	C10H9+
130.0651	129	C9H8N+
131.0729	207	C9H9N+
132.0808	24	C9H10N+
133.0885	6	C9H11N+
134.0964	259	C9H12N+
135.0916	2	C8H11N2+
144.0809	83	C10H10N+
146.0965	580	C10H12N+
163.123	999	C10H15N2+
