Mass spectrum: Homoharringtonine; LC-ESI-ITFT; MS2; CE: 40%; R=15000; [M+H]+
Name: Homoharringtonine
Name: Omacetaxine mepesuccinate
Name: 1-O-[(2S,3S,6R)-4-methoxy-16,18-dioxa-10-azapentacyclo[11.7.0.02,6.06,10.015,19]icosa-1(20),4,13,15(19)-tetraen-3-yl] 4-O-methyl (2R)-2-hydroxy-2-(4-hydroxy-4-methylpentyl)butanedioate
Formula: C29H39NO9
Exact mass: 545.2625
SMILES: CC(C)(CCC[C@@](CC(=O)OC)(C(=O)O[C@H]1[C@H]2c3cc4c(cc3CCN5[C@@]2(CCC5)C=C1OC)OCO4)O)O
InChI: InChI=1S/C29H39NO9/c1-27(2,33)8-5-10-29(34,16-23(31)36-4)26(32)39-25-22(35-3)15-28-9-6-11-30(28)12-7-18-13-20-21(38-17-37-20)14-19(18)24(25)28/h13-15,24-25,33-34H,5-12,16-17H2,1-4H3/t24-,25-,28+,29-/m1/s1
Instrument: LTQ Orbitrap XL Thermo Scientific
Instrument type: LC-ESI-ITFT
Ms type: MS2
Ion mode: POSITIVE
Ionization: ESI
Fragmentation mode: HCD
Collision energy: 40% (nominal)
Resolution: 15000
Column name: Kinetex Evo C18 2.6 um 50 x 2.1 mm
Retention time: 7.145 min
Base peak: 546.2695
Precursor m/z: 546.2698
Precursor type: [M+H]+
m/z	relative intensity	assigned
70.0651	4	C4H8N+
85.0648	2	C5H9O+
91.0542	1	C7H7+
93.0699	5	C7H9+
94.065	1	C6H8N+
96.0809	1	C6H10N+
97.0281	1	C5H5O2+
100.0758	3	C5H10NO+
107.0856	6	C8H11+
109.0648	18	C7H9O+
120.0807	7	C8H10N+
121.0646	2	C8H9O+
123.0804	11	C8H11O+
126.0913	21	C7H12NO+
129.0548	4	C6H9O3+
135.0445	2	C8H7O2+
135.0805	2	C9H11O+
138.0909	1	C8H12NO+
149.0598	2	C9H9O2+
150.0913	85	C9H12NO+
153.091	1	C9H13O2+
159.0436	1	C10H7O2+
161.0595	7	C10H9O2+
163.0996	2	C10H13NO+
167.1066	6	C10H15O2+
171.0805	1	C12H11O+
173.0597	7	C11H9O2+
174.0547	2	C10H8NO2+
175.0625	1	C10H9NO2+
176.0706	42	C10H10NO2+
185.0598	1	C12H9O2+
190.0863	2	C11H12NO2+
195.0795	1	C14H11O+
197.0959	2	C14H13O+
199.0753	2	C13H11O2+
200.0707	4	C12H10NO2+
207.0805	1	C15H11O+
208.1122	1	C15H14N+
209.0967	1	C15H13O+
211.0748	2	C14H11O2+
212.0706	1	C13H10NO2+
213.0919	1	C14H13O2+
214.0862	4	C13H12NO2+
215.0703	17	C13H11O3+
216.1016	1	C13H14NO2+
219.0801	4	C16H11O+
223.0753	18	C15H11O2+
223.1116	12	C16H15O+
225.0909	8	C15H13O2+
226.0863	58	C14H12NO2+
227.0944	76	C14H13NO2+
229.0858	17	C14H13O3+
229.1097	26	C14H15NO2+
236.1071	8	C16H14NO+
237.0911	10	C16H13O2+
238.0862	4	C15H12NO2+
239.07	2	C15H11O3+
239.1068	6	C16H15O2+
240.0783	10	C15H12O3+
240.1019	27	C15H14NO2+
242.0814	6	C14H12NO3+
243.102	3	C15H15O3+
249.091	10	C17H13O2+
250.0992	4	C17H14O2+
251.1066	73	C17H15O2+
252.0782	1	C16H12O3+
253.0859	27	C16H13O3+
253.1098	12	C16H15NO2+
255.1014	25	C16H15O3+
255.125	2	C16H17NO2+
266.1175	123	C17H16NO2+
267.1265	26	C17H17NO2+
268.0967	4	C16H14NO3+
268.134	11	C17H18NO2+
269.117	14	C17H17O3+
270.1124	22	C16H16NO3+
281.1171	29	C18H17O3+
283.1203	19	C17H17NO3+
284.1282	87	C17H18NO3+
296.1276	6	C18H18NO3+
298.1437	999	C18H20NO3+
316.1541	70	C18H22NO4+
546.2703	6	C29H40NO9+
