Mass spectrum: Coniferaldehyde; LC-ESI-ITFT; MS2; CE: 80%; R=15000; [M+H]+
Name: Coniferaldehyde
Formula: C10H10O3
Exact mass: 178.0630
SMILES: COC1=CC(\C=C\C=O)=CC=C1O
InChI: InChI=1S/C10H10O3/c1-13-10-7-8(3-2-6-11)4-5-9(10)12/h2-7,12H,1H3/b3-2+
Instrument: LTQ Orbitrap XL Thermo Scientific
Instrument type: LC-ESI-ITFT
Ms type: MS2
Ion mode: POSITIVE
Ionization: ESI
Fragmentation mode: HCD
Collision energy: 80 % (nominal)
Resolution: 15000
Column name: Kinetex Evo C18 2.6 um 50 x 2.1 mm
Retention time: 7.512 min
Base peak: 179.0702
Precursor m/z: 179.0703
Precursor type: [M+H]+
m/z	relative intensity	assigned
65.0384	28	C5H5+
77.0385	25	C6H5+
79.0542	82	C6H7+
80.0621	47	C6H8+
89.0387	16	C7H5+
90.0464	46	C7H6+
91.0542	999	C7H7+
94.0413	24	C6H6O+
95.0492	9	C6H7O+
103.0543	70	C8H7+
105.0699	79	C8H9+
107.0492	112	C7H7O+
108.0569	38	C7H8O+
115.0543	30	C9H7+
118.0413	166	C8H6O+
119.0491	449	C8H7O+
122.0362	14	C7H6O2+
123.0442	16	C7H7O2+
131.0492	15	C9H7O+
133.0649	70	C9H9O+
135.0442	83	C8H7O2+
136.0519	254	C8H8O2+
137.0598	17	C8H9O2+
146.0363	195	C9H6O2+
147.0442	123	C9H7O2+
161.06	42	C10H9O2+
163.039	10	C9H7O3+
164.0466	13	C9H8O3+
