Mass spectrum: Matairesinol; LC-ESI-ITFT; MS2; CE: 75%; R=15000; [M+H]+
Name: Matairesinol
Formula: C20H22O6
Exact mass: 358.1416
SMILES: COC1=CC(C[C@H]2COC(=O)[C@@H]2CC2=CC=C(O)C(OC)=C2)=CC=C1O
InChI: InChI=1S/C20H22O6/c1-24-18-9-12(3-5-16(18)21)7-14-11-26-20(23)15(14)8-13-4-6-17(22)19(10-13)25-2/h3-6,9-10,14-15,21-22H,7-8,11H2,1-2H3/t14-,15+/m0/s1
Instrument: LTQ Orbitrap XL Thermo Scientific
Instrument type: LC-ESI-ITFT
Ms type: MS2
Ion mode: POSITIVE
Ionization: ESI
Fragmentation mode: HCD
Collision energy: 75 % (nominal)
Resolution: 15000
Column name: Kinetex Evo C18 2.6 um 50 x 2.1 mm
Retention time: 9.296 min
Base peak: 147.0803
Precursor m/z: 359.1489
Precursor type: [M+H]+
m/z	relative intensity	assigned
77.0387	5	C6H5+
79.0542	13	C6H7+
81.07	5	C6H9+
91.0542	22	C7H7+
94.0414	63	C6H6O+
103.0543	129	C8H7+
107.049	11	C7H7O+
109.0648	4	C7H9O+
117.07	7	C9H9+
119.0493	6	C8H7O+
122.0363	151	C7H6O2+
128.0616	5	C10H8+
129.0697	15	C10H9+
131.0492	89	C9H7O+
137.0598	999	C8H9O2+
145.0649	13	C10H9O+
146.0362	3	C9H6O2+
149.0598	10	C9H9O2+
151.0391	4	C8H7O3+
151.0751	5	C9H11O2+
157.0647	8	C11H9O+
163.0761	4	C10H11O2+
174.0672	6	C11H10O2+
202.0767	3	C16H10+
