Mass spectrum: Papaverin; LC-ESI-ITFT; MS2; CE: 75%; R=15000; [M+H]+
Name: Papaverin
Name: Papaverine
Name: 1-[(3,4-dimethoxyphenyl)methyl]-6,7-dimethoxyisoquinoline
Formula: C20H21NO4
Exact mass: 339.1471
SMILES: COC1=C(C=C(C=C1)CC2=NC=CC3=CC(=C(C=C32)OC)OC)OC
InChI: InChI=1S/C20H21NO4/c1-22-17-6-5-13(10-18(17)23-2)9-16-15-12-20(25-4)19(24-3)11-14(15)7-8-21-16/h5-8,10-12H,9H2,1-4H3
Instrument: LTQ Orbitrap XL Thermo Scientific
Instrument type: LC-ESI-ITFT
Ms type: MS2
Ion mode: POSITIVE
Ionization: ESI
Fragmentation mode: HCD
Collision energy: 75% (nominal)
Resolution: 15000
Column name: Kinetex Evo C18 2.6 um 50 x 2.1 mm
Retention time: 7.588 min
Base peak: 340.1542
Precursor m/z: 340.1543
Precursor type: [M+H]+
m/z	relative intensity	assigned
77.0384	5	C6H5+
91.0543	7	C7H7+
95.0491	53	C6H7O+
103.0544	6	C8H7+
107.0492	10	C7H7O+
108.0572	5	C7H8O+
115.0542	38	C9H7+
116.0497	11	C8H6N+
117.0699	10	C9H9+
118.0651	5	C8H8N+
121.0647	8	C8H9O+
123.044	143	C7H7O2+
128.0495	43	C9H6N+
129.0571	12	C9H7N+
130.0415	4	C9H6O+
130.0651	19	C9H8N+
131.0493	20	C9H7O+
131.0729	12	C9H9N+
132.0569	10	C9H8O+
133.0285	4	C8H5O2+
133.0644	8	C9H9O+
135.0441	13	C8H7O2+
136.0522	7	C8H8O2+
138.0677	12	C8H10O2+
140.0493	11	C10H6N+
141.0573	19	C10H7N+
142.0651	58	C10H8N+
143.0725	10	C10H9N+
144.0445	16	C9H6NO+
144.0572	3	C10H8O+
144.0809	13	C10H10N+
145.0648	15	C10H9O+
146.0598	13	C9H8NO+
146.0725	3	C10H10O+
147.0804	10	C10H11O+
148.0518	32	C9H8O2+
151.0754	16	C9H11O2+
155.0365	14	C10H5NO+
155.0734	7	C11H9N+
156.0444	86	C10H6NO+
157.0519	22	C10H7NO+
157.0888	6	C11H11N+
158.0601	167	C10H8NO+
159.0678	87	C10H9NO+
160.0518	9	C10H8O2+
160.0755	24	C10H10NO+
161.0597	11	C10H9O2+
162.0675	6	C10H10O2+
170.0602	49	C11H8NO+
171.0678	923	C11H9NO+
172.0394	14	C10H6NO2+
172.0732	82	C8H12O4+
174.055	19	C10H8NO2+
174.0673	4	C11H10O2+
174.0914	15	C11H12NO+
175.0753	52	C11H11O2+
183.0678	7	C12H9NO+
186.055	164	C11H8NO2+
187.0628	176	C11H9NO2+
188.0707	37	C11H10NO2+
189.0784	55	C11H11NO2+
190.0865	10	C11H12NO2+
200.0704	7	C12H10NO2+
202.0862	840	C12H12NO2+
204.0655	8	C11H10NO3+
209.0841	7	C14H11NO+
219.1046	4	C16H13N+
220.0755	11	C15H10NO+
221.0838	7	C15H11NO+
222.0919	7	C15H12NO+
223.0995	11	C15H13NO+
224.107	17	C15H14NO+
227.0943	9	C14H13NO2+
234.0919	11	C16H12NO+
235.0993	26	C16H13NO+
236.1074	12	C16H14NO+
237.0787	7	C15H11NO2+
238.0862	12	C15H12NO2+
240.1018	48	C15H14NO2+
241.1103	17	C15H15NO2+
248.0717	5	C16H10NO2+
248.1074	11	C17H14NO+
249.1146	8	C17H15NO+
250.0865	18	C16H12NO2+
251.0945	30	C16H13NO2+
252.1018	81	C16H14NO2+
254.1176	18	C16H16NO2+
262.086	12	C17H12NO2+
263.0941	33	C17H13NO2+
264.1022	42	C17H14NO2+
266.0814	10	C16H12NO3+
266.1176	62	C17H16NO2+
267.0897	8	C16H13NO3+
278.0804	10	C17H12NO3+
278.1175	19	C18H16NO2+
279.0891	45	C17H13NO3+
280.0968	241	C17H14NO3+
281.1052	27	C17H15NO3+
282.1125	53	C17H16NO3+
292.0967	9	C18H14NO3+
294.1123	77	C18H16NO3+
295.1205	20	C18H17NO3+
296.1281	146	C18H18NO3+
306.1127	6	C19H16NO3+
308.0918	270	C18H14NO4+
308.1281	15	C19H18NO3+
309.0996	79	C18H15NO4+
322.1072	34	C19H16NO4+
324.1229	999	C19H18NO4+
