Mass spectrum: Tetrahydropalmatin; LC-ESI-ITFT; MS2; CE: 55%; R=15000; [M+H]+
Name: Tetrahydropalmatin
Name: D-Tetrahydropalmatine
Name: (13aR)-2,3,9,10-tetramethoxy-6,8,13,13a-tetrahydro-5H-isoquinolino[2,1-b]isoquinoline
Formula: C21H25NO4
Exact mass: 355.1784
SMILES: COC1=C(C2=C(C[C@@H]3C4=CC(=C(C=C4CCN3C2)OC)OC)C=C1)OC
InChI: InChI=1S/C21H25NO4/c1-23-18-6-5-13-9-17-15-11-20(25-3)19(24-2)10-14(15)7-8-22(17)12-16(13)21(18)26-4/h5-6,10-11,17H,7-9,12H2,1-4H3/t17-/m1/s1
Instrument: LTQ Orbitrap XL Thermo Scientific
Instrument type: LC-ESI-ITFT
Ms type: MS2
Ion mode: POSITIVE
Ionization: ESI
Fragmentation mode: HCD
Collision energy: 55% (nominal)
Resolution: 15000
Column name: Kinetex Evo C18 2.6 um 50 x 2.1 mm
Retention time: 7.439 min
Base peak: 356.1855
Precursor m/z: 356.1856
Precursor type: [M+H]+
m/z	relative intensity	assigned
105.0699	10	C8H9+
133.0649	8	C9H9O+
134.0726	3	C9H10O+
135.0441	2	C8H7O2+
135.0805	5	C9H11O+
136.052	2	C8H8O2+
148.0758	7	C9H10NO+
150.0676	58	C9H10O2+
151.075	19	C9H11O2+
158.0725	1	C11H10O+
159.068	3	C10H9NO+
161.0833	1	C10H11NO+
164.0835	1	C10H12O2+
165.0911	193	C10H13O2+
174.0674	1	C11H10O2+
176.0707	16	C10H10NO2+
177.0785	41	C10H11NO2+
189.0913	6	C12H13O2+
190.0865	23	C11H12NO2+
192.1019	999	C11H14NO2+
204.1018	5	C12H14NO2+
205.1098	10	C12H15NO2+
265.123	1	C18H17O2+
281.1174	2	C18H17O3+
293.1175	6	C19H17O3+
296.1405	2	C19H20O3+
298.1437	2	C18H20NO3+
309.1125	3	C19H17O4+
310.1435	1	C19H20NO3+
311.1515	1	C19H21NO3+
312.1351	1	C19H20O4+
312.1592	3	C19H22NO3+
322.144	5	C20H20NO3+
324.1355	1	C20H20O4+
324.1602	2	C20H22NO3+
326.1394	5	C19H20NO4+
340.1544	19	C20H22NO4+
356.1859	18	C21H26NO4+
