Mass spectrum: Retrorsine N-oxide; LC-ESI-ITFT; MS2; CE: 35%; R=15000; [M+H]+
Name: Retrorsine N-oxide
Name: Unii-51819grv4U
Name: (1R,4Z,6R,7S,14S,17R)-4-ethylidene-7-hydroxy-7-(hydroxymethyl)-6-methyl-14-oxido-2,9-dioxa-14-azoniatricyclo[9.5.1.014,17]heptadec-11-ene-3,8-dione
Formula: C18H25NO7
Exact mass: 367.1631
SMILES: C/C=C\1/C[C@H]([C@@](C(=O)OCC2=CC[N@@+]3([C@H]2[C@@H](CC3)OC1=O)[O-])(CO)O)C
InChI: InChI=1S/C18H25NO7/c1-3-12-8-11(2)18(23,10-20)17(22)25-9-13-4-6-19(24)7-5-14(15(13)19)26-16(12)21/h3-4,11,14-15,20,23H,5-10H2,1-2H3/b12-3-/t11-,14-,15-,18-,19-/m1/s1
Instrument: LTQ Orbitrap XL Thermo Scientific
Instrument type: LC-ESI-ITFT
Ms type: MS2
Ion mode: POSITIVE
Ionization: ESI
Fragmentation mode: HCD
Collision energy: 35% (nominal)
Resolution: 15000
Column name: Kinetex Evo C18 2.6 um 50 x 2.1 mm
Retention time: 2.062 min
Base peak: 143.0015
Precursor m/z: 368.1704
Precursor type: [M+H]+
m/z	relative intensity	assigned
81.0699	2	C6H9+
93.0576	2	C6H7N+
94.0652	2	C6H8N+
95.073	9	C6H9N+
106.0652	4	C7H8N+
118.0652	33	C8H8N+
119.0731	27	C8H9N+
120.0808	21	C8H10N+
121.0887	24	C8H11N+
122.0968	2	C8H12N+
136.0758	16	C8H10NO+
137.0836	4	C8H11NO+
138.0914	12	C8H12NO+
154.0862	14	C8H12NO2+
220.1335	21	C13H18NO2+
246.1493	11	C15H20NO2+
248.1653	4	C15H22NO2+
338.1611	5	C17H24NO6+
340.176	5	C17H26NO6+
368.1706	999	C18H26NO7+
