Mass spectrum: Conessine; LC-ESI-ITFT; MS2; CE: 65%; R=15000; [M+H]+
Name: Conessine
Formula: C24H40N2
Exact mass: 356.3191
SMILES: C[C@H]1[C@H]2CC[C@H]3[C@@H]4CC=C5C[C@H](CC[C@]5(C)[C@H]4CC[C@]23CN1C)N(C)C
InChI: InChI=1S/C24H40N2/c1-16-20-8-9-22-19-7-6-17-14-18(25(3)4)10-12-23(17,2)21(19)11-13-24(20,22)15-26(16)5/h6,16,18-22H,7-15H2,1-5H3/t16-,18-,19+,20+,21-,22-,23-,24-/m0/s1
Instrument: LTQ Orbitrap XL Thermo Scientific
Instrument type: LC-ESI-ITFT
Ms type: MS2
Ion mode: POSITIVE
Ionization: ESI
Fragmentation mode: HCD
Collision energy: 65 % (nominal)
Resolution: 15000
Column name: Kinetex Evo C18 2.6 um 50 x 2.1 mm
Retention time: 5.555 min
Base peak: 179.1667
Precursor m/z: 357.3264
Precursor type: [M+H]+
m/z	relative intensity	assigned
55.054	22	C4H7+
67.0541	110	C5H7+
72.0808	54	C4H10N+
79.0542	90	C6H7+
81.0699	235	C6H9+
83.0855	58	C6H11+
84.0808	999	C5H10N+
91.0542	98	C7H7+
93.0699	194	C7H9+
95.0855	135	C7H11+
105.0699	198	C8H9+
107.0855	124	C8H11+
109.1012	268	C8H13+
117.0698	60	C9H9+
119.0855	127	C9H11+
121.1012	132	C9H13+
123.1169	55	C9H15+
131.0854	127	C10H11+
133.1011	191	C10H13+
135.1167	218	C10H15+
143.0854	29	C11H11+
145.1012	183	C11H13+
147.1168	504	C11H15+
149.1325	60	C11H17+
157.1012	49	C12H13+
159.1168	591	C12H15+
161.1325	402	C12H17+
171.117	30	C13H15+
173.1325	199	C13H17+
175.148	41	C13H19+
185.1327	41	C14H17+
187.1482	244	C14H19+
199.1482	40	C15H19+
201.1635	22	C15H21+
213.1637	39	C16H21+
227.1801	31	C17H23+
269.2261	104	C20H29+
312.2688	43	C22H34N+
357.3265	326	C24H41N2+
