Mass spectrum: Lasiocarpine N-oxide; LC-ESI-ITFT; MS2; CE: 35%; R=15000; [M+H]+
Name: Lasiocarpine N-oxide
Name: [(7S,8R)-7-[(Z)-2-methylbut-2-enoyl]oxy-4-oxido-5,6,7,8-tetrahydro-3H-pyrrolizin-4-ium-1-yl]methyl (2R)-2,3-dihydroxy-2-[(1S)-1-methoxyethyl]-3-methylbutanoate
Formula: C21H33NO8
Exact mass: 427.2206
SMILES: C/C=C(/C)\C(=O)O[C@H]1CC[N+]2([C@@H]1C(=CC2)COC(=O)[C@@]([C@H](C)OC)(C(C)(C)O)O)[O-]
InChI: InChI=1S/C21H33NO8/c1-7-13(2)18(23)30-16-9-11-22(27)10-8-15(17(16)22)12-29-19(24)21(26,14(3)28-6)20(4,5)25/h7-8,14,16-17,25-26H,9-12H2,1-6H3/b13-7-/t14-,16-,17+,21-,22?/m0/s1
Instrument: LTQ Orbitrap XL Thermo Scientific
Instrument type: LC-ESI-ITFT
Ms type: MS2
Ion mode: POSITIVE
Ionization: ESI
Fragmentation mode: HCD
Collision energy: 35% (nominal)
Resolution: 15000
Column name: Kinetex Evo C18 2.6 um 50 x 2.1 mm
Retention time: 8.001 min
Base peak: 428.2278
Precursor m/z: 428.2279
Precursor type: [M+H]+
m/z	relative intensity	assigned
55.0541	5	C4H7+
59.049	7	C3H7O+
83.0489	8	C5H7O+
93.0573	29	C6H7N+
94.0651	37	C6H8N+
95.0734	4	C6H9N+
106.0651	12	C7H8N+
108.0807	15	C7H10N+
111.0679	4	C6H9NO+
118.0651	25	C8H8N+
119.0729	216	C8H9N+
120.0807	181	C8H10N+
121.0885	107	C8H11N+
122.0963	35	C8H12N+
134.0963	6	C9H12N+
136.0756	307	C8H10NO+
137.0835	159	C8H11NO+
138.0913	294	C8H12NO+
152.1067	11	C9H14NO+
154.0863	21	C8H12NO2+
178.2505	3	C8H34O3+
218.1172	33	C13H16NO2+
220.1331	25	C13H18NO2+
222.1121	7	C12H16NO3+
234.1129	16	C13H16NO3+
237.1359	123	C13H19NO3+
252.1226	11	C13H18NO4+
253.1303	16	C13H19NO4+
254.1385	712	C13H20NO4+
270.1342	4	C13H20NO5+
310.1645	10	C16H24NO5+
324.181	6	C17H26NO5+
328.1745	16	C16H26NO6+
338.1597	244	C17H24NO6+
346.186	17	C16H28NO7+
352.1753	458	C18H26NO6+
370.1856	56	C18H28NO7+
410.2172	344	C21H32NO7+
428.2276	999	C21H34NO8+
