Mass spectrum: Vincamin; LC-ESI-ITFT; MS2; CE: 45%; R=15000; [M+H]+
Name: Vincamin
Name: Vincamine
Name: methyl (15S,17S,19S)-15-ethyl-17-hydroxy-1,11-diazapentacyclo[9.6.2.02,7.08,18.015,19]nonadeca-2,4,6,8(18)-tetraene-17-carboxylate
Formula: C21H26N2O3
Exact mass: 354.1943
SMILES: CC[C@@]12CCCN3[C@@H]1C4=C(CC3)C5=CC=CC=C5N4[C@](C2)(C(=O)OC)O
InChI: InChI=1S/C21H26N2O3/c1-3-20-10-6-11-22-12-9-15-14-7-4-5-8-16(14)23(17(15)18(20)22)21(25,13-20)19(24)26-2/h4-5,7-8,18,25H,3,6,9-13H2,1-2H3/t18-,20+,21+/m1/s1
Instrument: LTQ Orbitrap XL Thermo Scientific
Instrument type: LC-ESI-ITFT
Ms type: MS2
Ion mode: POSITIVE
Ionization: ESI
Fragmentation mode: HCD
Collision energy: 45% (nominal)
Resolution: 15000
Column name: Kinetex Evo C18 2.6 um 50 x 2.1 mm
Retention time: 6.630 min
Base peak: 355.2015
Precursor m/z: 355.2016
Precursor type: [M+H]+
m/z	relative intensity	assigned
55.0542	1	C4H7+
70.065	11	C4H8N+
84.0807	3	C5H10N+
93.0702	2	C7H9+
98.0964	3	C6H12N+
107.0855	2	C8H11+
110.0964	11	C7H12N+
112.112	8	C7H14N+
122.0962	2	C8H12N+
123.0802	4	C8H11O+
124.1119	10	C8H14N+
130.0649	5	C9H8N+
134.0963	2	C9H12N+
138.1274	2	C9H16N+
144.0806	191	C10H10N+
150.0913	2	C9H12NO+
151.0754	2	C9H11O2+
152.1068	58	C9H14NO+
154.0861	2	C8H12NO2+
156.0806	4	C11H10N+
158.0965	7	C11H12N+
162.0916	5	C10H12NO+
165.0913	2	C10H13O2+
170.0962	3	C12H12N+
180.1022	3	C10H14NO2+
182.0809	4	C9H12NO3+
182.0965	3	C13H12N+
194.1173	36	C11H16NO2+
196.096	1	C10H14NO3+
196.1122	3	C14H14N+
198.1274	3	C14H16N+
208.1119	3	C15H14N+
209.1201	5	C15H15N+
210.1277	4	C15H16N+
212.128	181	C11H18NO3+
216.1028	3	C13H14NO2+
221.1193	4	C16H15N+
222.1274	10	C16H16N+
224.1286	3	C12H18NO3+
224.1433	12	C16H18N+
234.1274	8	C17H16N+
235.1359	5	C17H17N+
236.1434	21	C17H18N+
239.0938	7	C15H13NO2+
240.1024	4	C15H14NO2+
246.1278	7	C18H16N+
248.1314	2	C17H16N2+
248.1432	8	C18H18N+
249.1384	2	C17H17N2+
249.1515	4	C18H19N+
250.1589	16	C18H20N+
252.1013	5	C16H14NO2+
253.1101	5	C16H15NO2+
253.1698	16	C17H21N2+
254.1171	3	C16H16NO2+
260.1437	2	C19H18N+
262.1223	2	C18H16NO+
265.1098	6	C17H15NO2+
266.1174	9	C17H16NO2+
266.1532	5	C18H20NO+
267.1255	19	C17H17NO2+
267.1859	3	C18H23N2+
268.133	83	C17H18NO2+
274.1238	2	C19H16NO+
276.127	2	C18H16N2O+
277.1697	25	C19H21N2+
278.1778	7	C19H22N2+
279.1246	8	C18H17NO2+
280.133	182	C18H18NO2+
282.1489	14	C18H20NO2+
291.1251	5	C19H17NO2+
292.1332	7	C19H18NO2+
293.1411	6	C19H19NO2+
294.1487	213	C19H20NO2+
295.1803	74	C19H23N2O+
305.1645	6	C20H21N2O+
306.1488	13	C20H20NO2+
307.1432	9	C19H19N2O2+
308.163	163	C20H22NO2+
310.1798	27	C20H24NO2+
320.1638	11	C21H22NO2+
326.174	9	C20H24NO3+
337.1907	999	C21H25N2O2+
355.2012	288	C21H27N2O3+
