Mass spectrum: Alpinetin; LC-ESI-ITFT; MS2; CE: 105%; R=15000; [M+H]+
Name: Alpinetin
Formula: C16H14O4
Exact mass: 270.0892
SMILES: COC1=C2C(=O)CC(OC2=CC(=C1)O)C3=CC=CC=C3
InChI: InChI=1S/C16H14O4/c1-19-14-7-11(17)8-15-16(14)12(18)9-13(20-15)10-5-3-2-4-6-10/h2-8,13,17H,9H2,1H3
Instrument: LTQ Orbitrap XL Thermo Scientific
Instrument type: LC-ESI-ITFT
Ms type: MS2
Ion mode: POSITIVE
Ionization: ESI
Fragmentation mode: HCD
Collision energy: 105 % (nominal)
Resolution: 15000
Column name: Kinetex Evo C18 2.6 um 50 x 2.1 mm
Retention time: 10.226 min
Base peak: 217.0495
Precursor m/z: 271.0965
Precursor type: [M+H]+
m/z	relative intensity	assigned
50.0151	57	C4H2+
53.0385	20	C4H5+
65.0385	20	C5H5+
67.0179	44	C4H3O+
68.0257	63	C4H4O+
68.9972	311	C3HO2+
71.0127	16	C3H3O2+
77.0387	119	C6H5+
78.0101	85	C5H2O+
79.0178	17	C5H3O+
79.0543	43	C6H7+
81.0336	70	C5H5O+
83.0493	13	C5H7O+
91.018	7	C6H3O+
91.0543	50	C7H7+
93.0335	8	C6H5O+
95.0491	21	C6H7O+
96.0207	186	C5H4O2+
97.0284	24	C5H5O2+
99.0441	30	C5H7O2+
103.0543	549	C8H7+
109.0285	13	C6H5O2+
111.0077	35	C5H3O3+
111.0442	50	C6H7O2+
115.0544	4	C9H7+
124.0156	999	C6H4O3+
131.0492	27	C9H7O+
137.0233	19	C7H5O3+
152.0105	404	C7H4O4+
167.034	361	C8H7O4+
