Mass spectrum: Goitrin; LC-ESI-ITFT; MS2; CE: 50%; R=15000; [M+H]+
Name: Goitrin
Name: CID 102419
Name: 5-ethenyl-4,5-dihydro-1,3-oxazole-2-thiol
Formula: C5H7NOS
Exact mass: 129.0248
SMILES: C=CC1CNC(=S)O1
InChI: InChI=1S/C5H7NOS/c1-2-4-3-6-5(8)7-4/h2,4H,1,3H2,(H,6,8)
Instrument: LTQ Orbitrap XL Thermo Scientific
Instrument type: LC-ESI-ITFT
Ms type: MS2
Ion mode: POSITIVE
Ionization: ESI
Fragmentation mode: HCD
Collision energy: 50% (nominal)
Resolution: 15000
Column name: Kinetex Evo C18 2.6 um 50x2.1 mm, Phenomenex
Retention time: 1.192 min
Base peak: 143.0014
Precursor m/z: 130.0321
Precursor type: [M+H]+
m/z	relative intensity	assigned
70.065	999	C4H8N+
96.0442	61	C5H6NO+
130.032	85	C5H8NOS+
