Mass spectrum: Pterosin B; LC-ESI-ITFT; MS2; CE: 110%; R=15000; [M+H]+
Name: Pterosin B
Name: (2R)-6-(2-hydroxyethyl)-2,5,7-trimethyl-2,3-dihydroinden-1-one
Formula: C14H18O2
Exact mass: 218.1307
SMILES: C[C@@H]1CC2=C(C1=O)C(=C(C(=C2)C)CCO)C
InChI: InChI=1S/C14H18O2/c1-8-6-11-7-9(2)14(16)13(11)10(3)12(8)4-5-15/h6,9,15H,4-5,7H2,1-3H3/t9-/m1/s1
Instrument: LTQ Orbitrap XL Thermo Scientific
Instrument type: LC-ESI-ITFT
Ms type: MS2
Ion mode: POSITIVE
Ionization: ESI
Fragmentation mode: HCD
Collision energy: 110 % (nominal)
Resolution: 15000
Column name: Kinetex Evo C18 2.6 um 50 x 2.1 mm
Retention time: 10.329 min
Base peak: 149.0117
Precursor m/z: 219.138
Precursor type: [M+H]+
m/z	relative intensity	assigned
67.054	14	C5H7+
77.0384	44	C6H5+
79.054	63	C6H7+
91.054	537	C7H7+
93.0697	27	C7H9+
103.0539	69	C8H7+
104.062	19	C8H8+
105.0696	681	C8H9+
115.0539	386	C9H7+
116.0617	149	C9H8+
117.0695	292	C9H9+
119.0852	213	C9H11+
127.0539	18	C10H7+
128.0617	858	C10H8+
129.0695	981	C10H9+
130.0773	584	C10H10+
131.0491	11	C9H7O+
131.0852	223	C10H11+
132.0931	27	C10H12+
133.1007	82	C10H13+
141.0695	343	C11H9+
142.0773	251	C11H10+
143.0852	999	C11H11+
144.0566	55	C10H8O+
144.0929	117	C11H12+
145.0644	75	C10H9O+
145.1008	467	C11H13+
152.0616	106	C12H8+
153.0695	606	C12H9+
154.0773	48	C12H10+
155.0852	228	C12H11+
156.0929	99	C12H12+
157.0644	152	C11H9O+
157.1008	87	C12H13+
158.0722	294	C11H10O+
158.1085	49	C12H14+
159.0801	406	C11H11O+
165.0696	45	C13H9+
166.0772	23	C13H10+
167.0851	226	C13H11+
168.0928	130	C13H12+
169.1009	15	C13H13+
170.0721	17	C12H10O+
171.0801	631	C12H11O+
172.0879	45	C12H12O+
173.0956	617	C12H13O+
183.1164	16	C14H15+
185.0955	82	C13H13O+
186.1035	84	C13H14O+
187.1111	26	C13H15O+
