Mass spectrum: Senecionine; LC-ESI-ITFT; MS2; CE: 100%; R=15000; [M+H]+
Name: Senecionine
Name: (1R,4Z,6R,7R,17R)-4-ethylidene-7-hydroxy-6,7-dimethyl-2,9-dioxa-14-azatricyclo[9.5.1.014,17]heptadec-11-ene-3,8-dione
Formula: C18H25NO5
Exact mass: 335.1733
SMILES: C/C=C\1/C[C@H]([C@@](C(=O)OCC2=CCN3[C@H]2[C@@H](CC3)OC1=O)(C)O)C
InChI: InChI=1S/C18H25NO5/c1-4-12-9-11(2)18(3,22)17(21)23-10-13-5-7-19-8-6-14(15(13)19)24-16(12)20/h4-5,11,14-15,22H,6-10H2,1-3H3/b12-4-/t11-,14-,15-,18-/m1/s1
Instrument: LTQ Orbitrap XL Thermo Scientific
Instrument type: LC-ESI-ITFT
Ms type: MS2
Ion mode: POSITIVE
Ionization: ESI
Fragmentation mode: HCD
Collision energy: 100% (nominal)
Resolution: 15000
Column name: Kinetex Evo C18 2.6 um 50 x 2.1 mm
Retention time: 4.051 min
Base peak: 143.0017
Precursor m/z: 336.1805
Precursor type: [M+H]+
m/z	relative intensity	assigned
65.0386	60	C5H5+
67.0418	68	C4H5N+
67.0542	512	C5H7+
68.0495	183	C4H6N+
77.0387	242	C6H5+
79.0542	293	C6H7+
80.0495	382	C5H6N+
81.0574	111	C5H7N+
81.0699	224	C6H9+
82.0652	232	C5H8N+
91.0543	490	C7H7+
92.0496	117	C6H6N+
93.0575	141	C6H7N+
93.0699	197	C7H9+
94.0652	999	C6H8N+
95.073	37	C6H9N+
96.0808	245	C6H10N+
103.0543	117	C8H7+
105.0698	87	C8H9+
106.0652	74	C7H8N+
107.0853	80	C8H11+
108.0809	184	C7H10N+
110.0597	55	C6H8NO+
110.0962	53	C7H12N+
118.0651	146	C8H8N+
120.0809	438	C8H10N+
122.0961	51	C8H12N+
138.0912	124	C8H12NO+
