Mass spectrum: Jacobine; LC-ESI-ITFT; MS2; CE: 80%; R=15000; [M+H]+
Name: Jacobine
Name: (1R,3`S,4S,6R,7R,17R)-7-hydroxy-3`,6,7-trimethylspiro[2,9-dioxa-14-azatricyclo[9.5.1.014,17]heptadec-11-ene-4,2`-oxirane]-3,8-dione
Formula: C18H25NO6
Exact mass: 351.1682
SMILES: C[C@@H]1C[C@]2([C@@H](O2)C)C(=O)O[C@@H]3CCN4[C@@H]3C(=CC4)COC(=O)[C@]1(C)O
InChI: InChI=1S/C18H25NO6/c1-10-8-18(11(2)25-18)16(21)24-13-5-7-19-6-4-12(14(13)19)9-23-15(20)17(10,3)22/h4,10-11,13-14,22H,5-9H2,1-3H3/t10-,11+,13-,14-,17-,18+/m1/s1
Instrument: LTQ Orbitrap XL Thermo Scientific
Instrument type: LC-ESI-ITFT
Ms type: MS2
Ion mode: POSITIVE
Ionization: ESI
Fragmentation mode: HCD
Collision energy: 80% (nominal)
Resolution: 15000
Column name: Kinetex Evo C18 2.6 um 50 x 2.1 mm
Retention time: 1.038 min
Base peak: 352.1753
Precursor m/z: 352.1755
Precursor type: [M+H]+
m/z	relative intensity	assigned
67.0541	192	C5H7+
68.0495	101	C4H6N+
69.0333	85	C4H5O+
70.0651	455	C4H8N+
77.0386	203	C6H5+
79.0543	446	C6H7+
80.0495	499	C5H6N+
81.07	110	C6H9+
82.0652	175	C5H8N+
91.0542	369	C7H7+
93.07	408	C7H9+
94.0652	586	C6H8N+
95.0494	123	C6H7O+
95.0733	73	C6H9N+
95.0855	137	C7H11+
96.081	114	C6H10N+
103.0545	118	C8H7+
105.07	261	C8H9+
106.0652	150	C7H8N+
107.073	216	C7H9N+
108.0807	236	C7H10N+
109.1015	81	C8H13+
110.0964	134	C7H12N+
113.0596	272	C6H9O2+
118.0651	89	C8H8N+
120.0808	999	C8H10N+
121.0882	78	C8H11N+
122.0965	494	C8H12N+
123.1042	165	C8H13N+
137.096	96	C9H13O+
138.0914	139	C8H12NO+
140.1071	188	C8H14NO+
155.1066	225	C9H15O2+
