Mass spectrum: Valerophenone; LC-ESI-ITFT; MS2; CE: 75%; R=15000; [M+H]+
Name: Valerophenone
Formula: C11H14O
Exact mass: 162.1045
SMILES: CCCCC(=O)C1=CC=CC=C1
InChI: InChI=1S/C11H14O/c1-2-3-9-11(12)10-7-5-4-6-8-10/h4-8H,2-3,9H2,1H3
Instrument: LTQ Orbitrap XL Thermo Scientific
Instrument type: LC-ESI-ITFT
Ms type: MS2
Ion mode: POSITIVE
Ionization: ESI
Fragmentation mode: CID
Collision energy: 75 % (nominal)
Resolution: 15000
Column name: Kinetex Evo C18 2.6 um 50 x 2.1 mm
Retention time: 11.591 min
Base peak: 440.3518
Precursor m/z: 163.1117
Precursor type: [M+H]+
m/z	relative intensity	assigned
57.0699	808	C4H9+
67.0542	8	C5H7+
79.0543	76	C6H7+
85.0649	456	C5H9O+
91.0543	239	C7H7+
105.07	105	C8H9+
107.0493	718	C7H7O+
117.07	74	C9H9+
119.0856	53	C9H11+
121.0649	168	C8H9O+
121.1011	13	C9H13+
135.117	12	C10H15+
145.1014	999	C11H13+
