Mass spectrum: Pilocarpine; LC-ESI-ITFT; MS2; CE: 95%; R=15000; [M+H]+
Name: Pilocarpine
Name: (3S,4R)-3-ethyl-4-[(3-methylimidazol-4-yl)methyl]oxolan-2-one
Formula: C11H16N2O2
Exact mass: 208.1212
SMILES: CC[C@H]1[C@H](COC1=O)Cc2cncn2C
InChI: InChI=1S/C11H16N2O2/c1-3-10-8(6-15-11(10)14)4-9-5-12-7-13(9)2/h5,7-8,10H,3-4,6H2,1-2H3/t8-,10-/m0/s1
Instrument: LTQ Orbitrap XL Thermo Scientific
Instrument type: LC-ESI-ITFT
Ms type: MS2
Ion mode: POSITIVE
Ionization: ESI
Fragmentation mode: HCD
Collision energy: 95% (nominal)
Resolution: 15000
Column name: Kinetex Evo C18 2.6 um 50 x 2.1 mm
Retention time: 0.620 min
Base peak: 209.1282
Precursor m/z: 209.1285
Precursor type: [M+H]+
m/z	relative intensity	assigned
67.0542	6	C5H7+
68.0495	27	C4H6N+
80.0495	12	C5H6N+
81.0447	22	C4H5N2+
81.0575	5	C5H7N+
81.0699	5	C6H9+
83.0604	15	C4H7N2+
94.0652	33	C6H8N+
95.0605	624	C5H7N2+
96.0683	999	C5H8N2+
97.076	14	C5H9N2+
105.0699	9	C8H9+
107.0601	7	C6H7N2+
107.0731	9	C7H9N+
109.0762	42	C6H9N2+
121.0761	93	C7H9N2+
122.084	16	C7H10N2+
122.0963	11	C8H12N+
123.0917	40	C7H11N2+
133.076	25	C8H9N2+
134.0839	18	C8H10N2+
135.0918	42	C8H11N2+
136.1123	5	C9H14N+
139.0869	7	C7H11N2O+
147.0918	18	C9H11N2+
148.0994	8	C9H12N2+
149.1075	6	C9H13N2+
151.1231	16	C9H15N2+
163.123	35	C10H15N2+
209.1284	41	C11H17N2O2+
