Mass spectrum: Echimidine N-oxide; LC-ESI-ITFT; MS2; CE: 80%; R=15000; [M+H]+
Name: Echimidine N-oxide
Name: [(7R,8R)-7-[(Z)-2-methylbut-2-enoyl]oxy-4-oxido-5,6,7,8-tetrahydro-3H-pyrrolizin-4-ium-1-yl]methyl (2R)-2,3-dihydroxy-2-[(1S)-1-hydroxyethyl]-3-methylbutanoate
Formula: C20H31NO8
Exact mass: 413.2050
SMILES: C/C=C(/C)\C(=O)O[C@@H]1CC[N+]2([C@@H]1C(=CC2)COC(=O)[C@@]([C@H](C)O)(C(C)(C)O)O)[O-]
InChI: InChI=1S/C20H31NO8/c1-6-12(2)17(23)29-15-8-10-21(27)9-7-14(16(15)21)11-28-18(24)20(26,13(3)22)19(4,5)25/h6-7,13,15-16,22,25-26H,8-11H2,1-5H3/b12-6-/t13-,15+,16+,20-,21?/m0/s1
Instrument: LTQ Orbitrap XL Thermo Scientific
Instrument type: LC-ESI-ITFT
Ms type: MS2
Ion mode: POSITIVE
Ionization: ESI
Fragmentation mode: HCD
Collision energy: 80% (nominal)
Resolution: 15000
Column name: Kinetex Evo C18 2.6 um 50 x 2.1 mm
Retention time: 6.568 min
Base peak: 414.2116
Precursor m/z: 414.2122
Precursor type: [M+H]+
m/z	relative intensity	assigned
55.0541	193	C4H7+
67.0416	15	C4H5N+
67.0542	21	C5H7+
68.0494	52	C4H6N+
79.0542	98	C6H7+
80.0495	191	C5H6N+
81.0573	46	C5H7N+
81.0699	81	C6H9+
82.0413	17	C5H6O+
82.065	56	C5H8N+
83.0491	999	C5H7O+
84.0444	88	C4H6NO+
91.0542	66	C7H7+
92.0494	11	C6H6N+
93.0573	297	C6H7N+
93.0699	34	C7H9+
94.0651	606	C6H8N+
95.0729	69	C6H9N+
96.0444	15	C5H6NO+
97.0646	13	C6H9O+
98.0601	24	C5H8NO+
106.0651	478	C7H8N+
107.0729	38	C7H9N+
107.0857	16	C8H11+
108.0808	213	C7H10N+
109.0648	23	C7H9O+
109.0884	38	C7H11N+
110.06	47	C6H8NO+
111.0678	240	C6H9NO+
112.0757	68	C6H10NO+
117.0571	15	C8H7N+
118.0651	232	C8H8N+
119.073	272	C8H9N+
120.0808	478	C8H10N+
121.0883	25	C8H11N+
122.0595	18	C7H8NO+
122.0965	16	C8H12N+
124.0757	110	C7H10NO+
126.0914	22	C7H12NO+
136.0757	543	C8H10NO+
137.0835	283	C8H11NO+
138.0914	77	C8H12NO+
141.091	352	C8H13O2+
146.0961	17	C10H12N+
148.1119	16	C10H14N+
154.0863	247	C8H12NO2+
160.1115	13	C11H14N+
172.0969	45	C8H14NO3+
174.1281	19	C12H16N+
176.1063	19	C11H14NO+
190.1222	13	C12H16NO+
192.1384	18	C12H18NO+
220.1334	32	C13H18NO2+
254.1388	133	C13H20NO4+
