Mass spectrum: Brucine; LC-ESI-ITFT; MS2; CE: 85%; R=15000; [M+H]+
Name: Brucine
Name: (-)-Brucine
Name: (4aR,5aS,8aR,15bR)-10,11-dimethoxy-4a,5,5a,7,8,13a,15,15a,15b,16-decahydro-2H-4,6-methanoindolo[3,2,1-ij]oxepino[2,3,4-de]pyrrolo[2,3-h]quinolin-14-one
Formula: C23H26N2O4
Exact mass: 394.1893
SMILES: COc1cc2c(cc1OC)N3C4[C@]25CCN6[C@H]5C[C@@H]7[C@H]4C(CC3=O)OCC=C7C6
InChI: InChI=1S/C23H26N2O4/c1-27-16-8-14-15(9-17(16)28-2)25-20(26)10-18-21-13-7-19-23(14,22(21)25)4-5-24(19)11-12(13)3-6-29-18/h3,8-9,13,18-19,21-22H,4-7,10-11H2,1-2H3/t13-,18?,19-,21-,22?,23+/m0/s1
Instrument: LTQ Orbitrap XL Thermo Scientific
Instrument type: LC-ESI-ITFT
Ms type: MS2
Ion mode: POSITIVE
Ionization: ESI
Fragmentation mode: HCD
Collision energy: 85% (nominal)
Resolution: 15000
Column name: Kinetex Evo C18 2.6 um 50 x 2.1 mm
Retention time: 5.946 min
Base peak: 395.1964
Precursor m/z: 395.1965
Precursor type: [M+H]+
m/z	relative intensity	assigned
67.0542	15	C5H7+
79.0543	43	C6H7+
80.0496	47	C5H6N+
81.0698	47	C6H9+
82.0653	16	C5H8N+
91.0542	64	C7H7+
93.0573	87	C6H7N+
93.07	26	C7H9+
94.0651	54	C6H8N+
95.0492	28	C6H7O+
96.0807	42	C6H10N+
105.07	18	C8H9+
106.0652	145	C7H8N+
107.073	11	C7H9N+
108.0808	111	C7H10N+
120.081	17	C8H10N+
122.0601	81	C7H8NO+
124.0757	67	C7H10NO+
132.0809	13	C9H10N+
144.0807	18	C10H10N+
146.0601	35	C9H8NO+
147.068	37	C9H9NO+
148.0758	26	C9H10NO+
154.0649	15	C11H8N+
155.0728	15	C11H9N+
156.0808	28	C11H10N+
158.0601	33	C10H8NO+
159.0681	13	C10H9NO+
160.0759	54	C10H10NO+
162.0546	17	C9H8NO2+
163.0629	20	C9H9NO2+
170.0602	124	C11H8NO+
171.0677	17	C11H9NO+
172.0756	85	C11H10NO+
173.084	33	C11H11NO+
174.0667	18	C11H10O2+
175.0631	16	C10H9NO2+
176.0708	28	C10H10NO2+
177.0784	26	C10H11NO2+
178.0864	37	C10H12NO2+
182.0601	32	C12H8NO+
183.0678	62	C12H9NO+
184.0757	135	C12H10NO+
185.0835	433	C12H11NO+
186.055	123	C11H8NO2+
186.0917	39	C12H12NO+
187.0625	26	C11H9NO2+
188.0706	41	C11H10NO2+
189.0785	18	C11H11NO2+
189.0906	16	C12H13O2+
190.0863	74	C11H12NO2+
192.0654	46	C10H10NO3+
195.0669	11	C13H9NO+
196.0755	42	C13H10NO+
197.0837	108	C13H11NO+
198.055	298	C12H8NO2+
198.0914	26	C13H12NO+
199.0628	24	C12H9NO2+
200.0706	130	C12H10NO2+
201.0785	122	C12H11NO2+
202.0863	29	C12H12NO2+
204.1018	39	C12H14NO2+
208.0755	37	C14H10NO+
209.0836	27	C14H11NO+
210.0911	52	C14H12NO+
211.0628	38	C13H9NO2+
212.0705	146	C13H10NO2+
213.0784	999	C13H11NO2+
214.0499	256	C12H8NO3+
214.0866	57	C13H12NO2+
215.0933	16	C13H13NO2+
216.1019	524	C13H14NO2+
219.0684	12	C15H9NO+
220.0756	44	C15H10NO+
221.0831	26	C15H11NO+
222.0915	47	C15H12NO+
223.0989	52	C15H13NO+
224.0704	58	C14H10NO2+
224.1067	10	C15H14NO+
225.0785	28	C14H11NO2+
226.0862	69	C14H12NO2+
227.0939	80	C14H13NO2+
228.0655	90	C13H10NO3+
228.1017	55	C14H14NO2+
229.0734	594	C13H11NO3+
230.0817	32	C13H12NO3+
232.0768	25	C16H10NO+
233.0828	17	C16H11NO+
234.0539	12	C15H8NO2+
234.0915	87	C16H12NO+
235.0992	48	C16H13NO+
236.0707	167	C15H10NO2+
236.1069	84	C16H14NO+
237.0785	12	C15H11NO2+
238.0863	68	C15H12NO2+
238.1228	13	C16H16NO+
239.0948	25	C15H13NO2+
240.0656	18	C14H10NO3+
240.1018	40	C15H14NO2+
241.0736	11	C14H11NO3+
242.0813	29	C14H12NO3+
243.0888	36	C14H13NO3+
244.0968	505	C14H14NO3+
246.0917	23	C17H12NO+
247.0635	16	C16H9NO2+
247.0993	27	C17H13NO+
248.0709	65	C16H10NO2+
248.1069	68	C17H14NO+
249.0784	51	C16H11NO2+
249.1156	34	C17H15NO+
250.0507	10	C15H8NO3+
250.0863	74	C16H12NO2+
250.1229	25	C17H16NO+
251.0939	175	C16H13NO2+
252.0655	120	C15H10NO3+
252.1021	41	C16H14NO2+
254.0808	27	C15H12NO3+
254.1175	111	C16H16NO2+
256.097	32	C15H14NO3+
260.1071	24	C18H14NO+
262.0868	39	C17H12NO2+
262.1224	18	C18H16NO+
263.0941	137	C17H13NO2+
264.0654	53	C16H10NO3+
264.1018	86	C17H14NO2+
265.0734	32	C16H11NO3+
265.109	11	C17H15NO2+
266.0806	31	C16H12NO3+
266.1179	35	C17H16NO2+
267.0891	90	C16H13NO3+
274.0864	19	C18H12NO2+
276.1015	31	C18H14NO2+
278.1174	76	C18H16NO2+
279.0882	13	C17H13NO3+
280.0971	75	C17H14NO3+
282.1129	30	C17H16NO3+
286.0863	15	C19H12NO2+
288.1025	23	C19H14NO2+
290.0814	12	C18H12NO3+
290.1179	30	C19H16NO2+
292.0972	31	C18H14NO3+
294.1123	29	C18H16NO3+
306.1126	98	C19H16NO3+
337.1559	20	C20H21N2O3+
379.1671	19	C22H23N2O4+
