Mass spectrum: Pterosin B; LC-ESI-ITFT; MS2; CE: 45%; R=15000; [M+H]+
Name: Pterosin B
Name: (2R)-6-(2-hydroxyethyl)-2,5,7-trimethyl-2,3-dihydroinden-1-one
Formula: C14H18O2
Exact mass: 218.1307
SMILES: C[C@@H]1CC2=C(C1=O)C(=C(C(=C2)C)CCO)C
InChI: InChI=1S/C14H18O2/c1-8-6-11-7-9(2)14(16)13(11)10(3)12(8)4-5-15/h6,9,15H,4-5,7H2,1-3H3/t9-/m1/s1
Instrument: LTQ Orbitrap XL Thermo Scientific
Instrument type: LC-ESI-ITFT
Ms type: MS2
Ion mode: POSITIVE
Ionization: ESI
Fragmentation mode: HCD
Collision energy: 45 % (nominal)
Resolution: 15000
Column name: Kinetex Evo C18 2.6 um 50 x 2.1 mm
Retention time: 10.332 min
Base peak: 219.1371
Precursor m/z: 219.138
Precursor type: [M+H]+
m/z	relative intensity	assigned
119.0851	12	C9H11+
131.0852	35	C10H11+
133.1009	16	C10H13+
142.0779	4	C11H10+
143.0856	12	C11H11+
144.0936	5	C11H12+
145.101	90	C11H13+
149.0958	8	C10H13O+
155.0853	14	C12H11+
157.1006	11	C12H13+
158.1085	15	C12H14+
159.0802	7	C11H11O+
159.1165	26	C12H15+
163.1114	36	C11H15O+
168.0931	54	C13H12+
171.1165	11	C13H15+
172.088	10	C12H12O+
173.0959	19	C12H13O+
173.1323	145	C13H17+
174.1036	10	C12H14O+
183.1166	123	C14H15+
186.1037	47	C13H14O+
191.1433	14	C13H19O+
199.1113	16	C14H15O+
201.1271	999	C14H17O+
219.1375	936	C14H19O2+
