Mass spectrum: alpha-Cyperone; LC-ESI-ITFT; MS2; CE: 60%; R=15000; [M+H]+
Name: alpha-Cyperone
Formula: C15H22O
Exact mass: 218.1671
SMILES: CC1=C2CC(CCC2(CCC1=O)C)C(=C)C
InChI: InChI=1S/C15H22O/c1-10(2)12-5-7-15(4)8-6-14(16)11(3)13(15)9-12/h12H,1,5-9H2,2-4H3
Instrument: LTQ Orbitrap XL Thermo Scientific
Instrument type: LC-ESI-ITFT
Ms type: MS2
Ion mode: POSITIVE
Ionization: ESI
Fragmentation mode: CID
Collision energy: 60 % (nominal)
Resolution: 15000
Column name: Kinetex Evo C18 2.6 um 50 x 2.1 mm
Retention time: 13.102 min
Base peak: 219.1742
Precursor m/z: 219.1743
Precursor type: [M+H]+
m/z	relative intensity	assigned
67.0543	21	C5H7+
77.0385	4	C6H5+
79.0543	19	C6H7+
81.07	54	C6H9+
91.0544	16	C7H7+
93.07	54	C7H9+
95.0856	177	C7H11+
97.0649	236	C6H9O+
105.07	119	C8H9+
107.0856	137	C8H11+
109.0649	27	C7H9O+
109.1013	346	C8H13+
111.0805	345	C7H11O+
117.0701	9	C9H9+
119.0856	183	C9H11+
121.0649	23	C8H9O+
121.1013	146	C9H13+
123.0805	162	C8H11O+
123.1169	133	C9H15+
125.0962	45	C8H13O+
131.0856	92	C10H11+
133.1013	66	C10H13+
135.0806	144	C9H11O+
135.1169	106	C10H15+
137.0962	49	C9H13O+
137.1326	7	C10H17+
139.1119	9	C9H15O+
145.1013	427	C11H13+
147.117	211	C11H15+
149.0962	133	C10H13O+
149.1326	40	C11H17+
151.1118	9	C10H15O+
159.117	429	C12H15+
161.1327	314	C12H17+
162.1042	9	C11H14O+
163.1119	999	C11H15O+
173.1327	352	C13H17+
175.1483	95	C13H19+
176.12	20	C12H16O+
177.1276	105	C12H17O+
177.164	50	C13H21+
191.1432	36	C13H19O+
191.1796	58	C14H23+
201.1639	897	C15H21+
204.1511	10	C14H20O+
