Mass spectrum: 6-beta-Hydroxycortisol; LC-ESI-ITFT; MS2; CE: 80%; R=15000; [M+H]+
Name: 6-beta-Hydroxycortisol
Name: 6beta-Hydroxycortisol
Name: (6R,8S,9S,10R,11S,13S,14S,17R)-6,11,17-trihydroxy-17-(2-hydroxyacetyl)-10,13-dimethyl-2,6,7,8,9,11,12,14,15,16-decahydro-1H-cyclopenta[a]phenanthren-3-one
Formula: C21H30O6
Exact mass: 378.2042
SMILES: C[C@]12C[C@H](O)[C@H]3[C@@H](C[C@@H](O)C4=CC(=O)CC[C@]34C)[C@@H]1CC[C@]2(O)C(=O)CO
InChI: InChI=1S/C21H30O6/c1-19-5-3-11(23)7-14(19)15(24)8-12-13-4-6-21(27,17(26)10-22)20(13,2)9-16(25)18(12)19/h7,12-13,15-16,18,22,24-25,27H,3-6,8-10H2,1-2H3/t12-,13-,15+,16-,18+,19-,20-,21-/m0/s1
Instrument: LTQ Orbitrap XL Thermo Scientific
Instrument type: LC-ESI-ITFT
Ms type: MS2
Ionization: ESI
Ion mode: POSITIVE
Fragmentation mode: HCD
Collision energy: 80 % (nominal)
Resolution: 15000
Column name: Kinetex Evo C18 2.6 um 50 x 2.1 mm
Retention time: 6.513 min
Base peak: 379.2116
Precursor m/z: 379.2115
Precursor type: [M+H]+
m/z	relative intensity	assigned
55.0176	95	C3H3O+
55.054	97	C4H7+
67.0543	172	C5H7+
69.0701	78	C5H9+
79.0545	324	C6H7+
81.0702	410	C6H9+
83.0496	157	C5H7O+
91.0547	701	C7H7+
93.0703	613	C7H9+
95.0496	110	C6H7O+
95.086	264	C7H11+
97.0652	454	C6H9O+
105.0704	999	C8H9+
107.0495	146	C7H7O+
107.086	276	C8H11+
109.0652	240	C7H9O+
117.0704	305	C9H9+
119.086	569	C9H11+
121.0654	427	C8H9O+
121.1017	62	C9H13+
123.0807	114	C8H11O+
128.0626	251	C10H8+
131.086	536	C10H11+
133.0654	90	C9H9O+
133.1017	203	C10H13+
135.0808	120	C9H11O+
139.0757	54	C8H11O2+
141.0704	186	C11H9+
142.0783	227	C11H10+
143.086	648	C11H11+
144.0937	85	C11H12+
145.1017	423	C11H13+
147.0809	184	C10H11O+
147.1173	103	C11H15+
149.0965	78	C10H13O+
153.0703	109	C12H9+
155.086	472	C12H11+
156.0936	130	C12H12+
157.1018	324	C12H13+
159.0812	145	C11H11O+
159.1175	86	C12H15+
161.0965	130	C11H13O+
165.0706	193	C13H9+
166.0784	129	C13H10+
167.086	282	C13H11+
168.0941	186	C13H12+
169.1017	399	C13H13+
171.0811	122	C12H11O+
171.1176	146	C13H15+
173.1333	51	C13H17+
178.0781	85	C14H10+
179.0861	229	C14H11+
180.0939	126	C14H12+
181.1017	368	C14H13+
182.1098	183	C14H14+
183.1174	334	C14H15+
185.096	85	C13H13O+
185.1325	71	C14H17+
187.1119	45	C13H15O+
191.0865	163	C3H15N2O7+
192.094	134	C15H12+
193.1018	185	C15H13+
194.1094	122	C15H14+
195.0811	56	C14H11O+
195.1175	292	C15H15+
197.0964	90	C14H13O+
197.1334	186	C15H17+
205.1018	87	C16H13+
206.1092	131	C16H14+
207.1175	151	C16H15+
208.1253	96	C16H16+
209.1331	190	C16H17+
213.1283	99	C15H17O+
217.1019	45	C17H13+
223.1119	75	C16H15O+
223.1489	162	C17H19+
225.1281	56	C16H17O+
239.1436	60	C17H19O+
249.1273	46	C18H17O+
251.1437	110	C18H19O+
