Mass spectrum: 4-Phenyl-3-buten-2-one; LC-ESI-ITFT; MS2; CE: 55%; R=15000; [M+H]+
Name: 4-Phenyl-3-buten-2-one
Formula: C10H10O
Exact mass: 146.0732
SMILES: CC(=O)\C=C\C1=CC=CC=C1
InChI: InChI=1S/C10H10O/c1-9(11)7-8-10-5-3-2-4-6-10/h2-8H,1H3/b8-7+
Instrument: LTQ Orbitrap XL Thermo Scientific
Instrument type: LC-ESI-ITFT
Ms type: MS2
Ion mode: POSITIVE
Ionization: ESI
Fragmentation mode: HCD
Collision energy: 55 % (nominal)
Resolution: 15000
Column name: Kinetex Evo C18 2.6 um 50 x 2.1 mm
Retention time: 9.450 min
Base peak: 147.0805
Precursor m/z: 147.0804
Precursor type: [M+H]+
m/z	relative intensity	assigned
79.0542	4	C6H7+
91.0543	39	C7H7+
103.0544	6	C8H7+
105.0699	9	C8H9+
107.049	6	C7H7O+
117.0699	9	C9H9+
119.0491	7	C8H7O+
119.0856	28	C9H11+
128.0622	100	C10H8+
129.0699	999	C10H9+
132.0574	5	C9H8O+
145.0649	4	C10H9O+
147.0805	564	C10H11O+
