Mass spectrum: 7-Acetyllycopsamine; LC-ESI-ITFT; MS2; CE: 65%; R=15000; [M+H]+
Name: 7-Acetyllycopsamine
Name: Acetyllycopsamine
Name: [(7R,8R)-7-acetyloxy-5,6,7,8-tetrahydro-3H-pyrrolizin-1-yl]methyl (2S)-2-hydroxy-2-[(1S)-1-hydroxyethyl]-3-methylbutanoate
Formula: C17H27NO6
Exact mass: 341.1838
SMILES: C[C@@H]([C@@](C(C)C)(C(=O)OCC1=CCN2[C@H]1[C@@H](CC2)OC(=O)C)O)O
InChI: InChI=1S/C17H27NO6/c1-10(2)17(22,11(3)19)16(21)23-9-13-5-7-18-8-6-14(15(13)18)24-12(4)20/h5,10-11,14-15,19,22H,6-9H2,1-4H3/t11-,14+,15+,17-/m0/s1
Instrument: LTQ Orbitrap XL Thermo Scientific
Instrument type: LC-ESI-ITFT
Ms type: MS2
Ion mode: POSITIVE
Ionization: ESI
Fragmentation mode: HCD
Collision energy: 65% (nominal)
Resolution: 15000
Column name: Kinetex Evo C18 2.6 um 50 x 2.1 mm
Retention time: 2.568 min
Base peak: 143.0015
Precursor m/z: 342.1911
Precursor type: [M+H]+
m/z	relative intensity	assigned
67.0415	4	C4H5N+
68.0494	4	C4H6N+
73.0648	5	C4H9O+
77.0387	4	C6H5+
79.0543	10	C6H7+
80.0495	17	C5H6N+
81.0698	3	C6H9+
82.0653	3	C5H8N+
86.06	3	C4H8NO+
91.0543	17	C7H7+
92.0495	4	C6H6N+
93.0699	39	C7H9+
94.0651	86	C6H8N+
95.073	16	C6H9N+
96.0809	7	C6H10N+
103.0542	22	C8H7+
105.0571	7	C7H7N+
106.0649	7	C7H8N+
108.0808	28	C7H10N+
110.0966	5	C7H12N+
112.0757	5	C6H10NO+
118.0652	21	C8H8N+
119.073	16	C8H9N+
120.0808	999	C8H10N+
121.0886	76	C8H11N+
124.0752	3	C7H10NO+
128.0705	13	C6H10NO2+
136.0756	10	C8H10NO+
138.0914	77	C8H12NO+
156.1017	5	C8H14NO2+
162.0914	14	C10H12NO+
180.1021	9	C10H14NO2+
181.1096	8	C10H15NO2+
198.1125	152	C10H16NO3+
