Mass spectrum: [6]-Gingerol; LC-ESI-ITFT; MS2; CE: 50%; R=15000; [M+H]+
Name: [6]-Gingerol
Name: 5-hydroxy-1-(4-hydroxy-3-methoxyphenyl)decan-3-one
Formula: C17H26O4
Exact mass: 294.1831
SMILES: CCCCCC(O)CC(=O)CCC1=CC(OC)=C(O)C=C1
InChI: InChI=1S/C17H26O4/c1-3-4-5-6-14(18)12-15(19)9-7-13-8-10-16(20)17(11-13)21-2/h8,10-11,14,18,20H,3-7,9,12H2,1-2H3
Instrument: LTQ Orbitrap XL Thermo Scientific
Instrument type: LC-ESI-ITFT
Ms type: MS2
Ion mode: POSITIVE
Ionization: ESI
Fragmentation mode: HCD
Collision energy: 50% (nominal)
Resolution: 15000
Column name: Kinetex Evo C18 2.6 um 50 x 2.1 mm
Retention time: 11.616 min
Base peak: 116.9858
Precursor m/z: 295.1904
Precursor type: [M+H]+
m/z	relative intensity	assigned
85.0284	732	C4H5O2+
101.0233	999	C4H5O3+
121.1008	336	C9H13+
133.1011	436	C10H13+
137.0599	386	C8H9O2+
139.1113	356	C9H15O+
175.112	633	C12H15O+
193.123	536	C12H17O2+
221.1172	591	C13H17O3+
