Mass spectrum: Alpinetin; LC-ESI-ITFT; MS2; CE: 65%; R=15000; [M+H]+
Name: Alpinetin
Formula: C16H14O4
Exact mass: 270.0892
SMILES: COC1=C2C(=O)CC(OC2=CC(=C1)O)C3=CC=CC=C3
InChI: InChI=1S/C16H14O4/c1-19-14-7-11(17)8-15-16(14)12(18)9-13(20-15)10-5-3-2-4-6-10/h2-8,13,17H,9H2,1H3
Instrument: LTQ Orbitrap XL Thermo Scientific
Instrument type: LC-ESI-ITFT
Ms type: MS2
Ion mode: POSITIVE
Ionization: ESI
Fragmentation mode: HCD
Collision energy: 65 % (nominal)
Resolution: 15000
Column name: Kinetex Evo C18 2.6 um 50 x 2.1 mm
Retention time: 10.235 min
Base peak: 271.0964
Precursor m/z: 271.0965
Precursor type: [M+H]+
m/z	relative intensity	assigned
55.0178	2	C3H3O+
68.997	11	C3HO2+
79.0542	5	C6H7+
91.0542	16	C7H7+
99.0441	5	C5H7O2+
103.0542	91	C8H7+
107.0492	4	C7H7O+
111.044	8	C6H7O2+
124.0154	23	C6H4O3+
125.0239	1	C6H5O3+
131.0491	119	C9H7O+
137.0595	3	C8H9O2+
139.0391	5	C7H7O3+
152.0104	59	C7H4O4+
167.0339	999	C8H7O4+
