Mass spectrum: Isophorone; LC-ESI-ITFT; MS2; CE: 150%; R=15000; [M+H]+
Name: Isophorone
Name: 3,5,5-trimethylcyclohex-2-en-1-one
Formula: C9H14O
Exact mass: 138.1045
SMILES: CC1=CC(=O)CC(C)(C)C1
InChI: InChI=1S/C9H14O/c1-7-4-8(10)6-9(2,3)5-7/h4H,5-6H2,1-3H3
Instrument: LTQ Orbitrap XL Thermo Scientific
Instrument type: LC-ESI-ITFT
Ms type: MS2
Ion mode: POSITIVE
Ionization: ESI
Fragmentation mode: HCD
Collision energy: 150 % (nominal)
Resolution: 15000
Column name: Kinetex Evo C18 2.6 um 50 x 2.1 mm
Retention time: 8.532 min
Base peak: 139.1118
Precursor m/z: 139.1117
Precursor type: [M+H]+
m/z	relative intensity	assigned
77.0383	999	C6H5+
78.0462	49	C6H6+
79.054	494	C6H7+
80.0619	17	C6H8+
81.0333	40	C5H5O+
81.0697	115	C6H9+
83.0489	44	C5H7O+
91.0541	945	C7H7+
93.0698	50	C7H9+
94.0412	66	C6H6O+
95.049	512	C6H7O+
96.0569	26	C6H8O+
97.0647	55	C6H9O+
103.0541	115	C8H7+
105.0446	647	C6H5N2+
105.0698	124	C8H9+
106.0779	23	C8H10+
107.0489	22	C7H7O+
109.0646	118	C7H9O+
119.0855	15	C9H11+
