Mass spectrum: Aconitin; LC-ESI-ITFT; MS2; CE: 50%; R=15000; [M+H]+
Name: Aconitin
Name: Aconitine
Name: [(1S,2R,3R,4R,5R,6S,7S,8R,9R,13R,14R,16S,17S,18R)-8-acetyloxy-11-ethyl-5,7,14-trihydroxy-6,16,18-trimethoxy-13-(methoxymethyl)-11-azahexacyclo[7.7.2.12,5.01,10.03,8.013,17]nonadecan-4-yl] benzoate
Formula: C34H47NO11
Exact mass: 645.3149
SMILES: CCN1C[C@@]2([C@@H](C[C@@H]([C@@]34[C@@H]2[C@H]([C@@H](C31)[C@@]5([C@@H]6[C@H]4C[C@@]([C@@H]6OC(=O)C7=CC=CC=C7)([C@H]([C@@H]5O)OC)O)OC(=O)C)OC)OC)O)COC
InChI: InChI=1S/C34H47NO11/c1-7-35-15-31(16-41-3)20(37)13-21(42-4)33-19-14-32(40)28(45-30(39)18-11-9-8-10-12-18)22(19)34(46-17(2)36,27(38)29(32)44-6)23(26(33)35)24(43-5)25(31)33/h8-12,19-29,37-38,40H,7,13-16H2,1-6H3/t19-,20-,21+,22-,23+,24+,25-,26?,27+,28-,29+,31+,32-,33+,34-/m1/s1
Instrument: LTQ Orbitrap XL Thermo Scientific
Instrument type: LC-ESI-ITFT
Ms type: MS2
Ion mode: POSITIVE
Ionization: ESI
Fragmentation mode: HCD
Collision energy: 50% (nominal)
Resolution: 15000
Column name: Kinetex Evo C18 2.6 um 50 x 2.1 mm
Retention time: 9.743 min
Base peak: 116.9858
Precursor m/z: 646.3222
Precursor type: [M+H]+
m/z	relative intensity	assigned
71.0491	7	C4H7O+
75.044	28	C3H7O2+
84.0809	10	C5H10N+
85.0284	12	C4H5O2+
88.0759	6	C4H10NO+
91.0541	7	C7H7+
102.0914	7	C5H12NO+
105.0335	999	C7H5O+
108.0809	17	C7H10N+
109.0648	15	C7H9O+
110.0963	24	C7H12N+
111.0805	48	C7H11O+
112.0756	9	C6H10NO+
113.0836	6	C6H11NO+
117.07	14	C9H9+
121.0644	9	C8H9O+
122.0964	16	C8H12N+
129.0699	14	C10H9+
131.0855	23	C10H11+
137.0597	10	C8H9O2+
140.107	22	C8H14NO+
141.0696	11	C11H9+
141.091	11	C8H13O2+
142.1226	19	C8H16NO+
147.044	12	C9H7O2+
147.0804	14	C10H11O+
148.1123	7	C10H14N+
152.1068	50	C9H14NO+
155.0848	8	C12H11+
159.0807	10	C11H11O+
161.0959	10	C11H13O+
162.0909	13	C10H12NO+
164.1065	9	C10H14NO+
165.0545	8	C9H9O3+
165.0697	5	C13H9+
167.0855	9	C13H11+
169.0647	5	C12H9O+
171.0802	9	C12H11O+
172.1124	11	C12H14N+
174.0916	44	C11H12NO+
178.1226	12	C11H16NO+
179.0859	14	C14H11+
181.1011	7	C14H13+
183.0801	8	C13H11O+
184.1123	10	C13H14N+
185.0963	10	C13H13O+
186.1284	9	C13H16N+
188.0706	24	C11H10NO2+
190.0866	6	C11H12NO2+
190.1228	14	C12H16NO+
191.0851	6	H17NO10+
193.1008	17	C15H13+
195.0796	8	C14H11O+
197.0962	7	C14H13O+
202.0861	5	C12H12NO2+
202.1223	15	C13H16NO+
203.0861	5	C16H11+
203.0937	9	C12H13NO2+
205.1009	25	C16H13+
207.0808	7	C15H11O+
207.1164	10	C16H15+
209.0959	13	C15H13O+
216.1379	14	C14H18NO+
217.1014	18	C17H13+
218.1539	54	C14H20NO+
219.0807	8	C16H11O+
221.0963	20	C16H13O+
223.1116	15	C16H15O+
229.0849	5	C14H13O3+
233.0962	37	C17H13O+
235.1121	27	C17H15O+
236.1647	15	C14H22NO2+
237.0904	13	C16H13O2+
239.1066	10	C16H15O2+
245.096	9	C18H13O+
249.0917	8	C17H13O2+
251.1067	22	C17H15O2+
259.0969	21	C15H15O4+
261.0908	24	C18H13O2+
263.1064	19	C18H15O2+
265.122	14	C18H17O2+
275.1064	6	C19H15O2+
279.1006	10	C18H15O3+
280.1326	5	C18H18NO2+
283.1325	8	C18H19O3+
290.155	10	C20H20NO+
293.1182	18	C19H17O3+
295.1328	10	C19H19O3+
306.1481	7	C20H20NO2+
308.1649	16	C20H22NO2+
312.1965	6	C20H26NO2+
318.1487	12	C21H20NO2+
322.1805	16	C21H24NO2+
324.1598	10	C20H22NO3+
325.1437	9	C20H21O4+
326.212	13	C21H28NO2+
336.1602	16	C21H22NO3+
340.1911	59	C21H26NO3+
344.2209	18	C21H30NO3+
350.1752	19	C22H24NO3+
354.2062	51	C22H28NO3+
355.211	6	C19H31O6+
368.1857	384	C22H26NO4+
369.1895	33	C19H29O7+
372.217	81	C22H30NO4+
376.2483	28	C22H34NO4+
382.2006	9	C23H28NO4+
386.2316	12	C23H32NO4+
400.2119	15	C23H30NO5+
404.2431	105	C23H34NO5+
418.2223	16	C23H32NO6+
462.2276	17	C28H32NO5+
476.2436	35	C29H34NO5+
478.2216	16	C28H32NO6+
490.2231	21	C29H32NO6+
494.2532	52	C29H36NO6+
495.257	7	C26H39O9+
504.2378	27	C30H34NO6+
508.2712	5	C30H38NO6+
510.249	12	C29H36NO7+
521.9517	8	C29NO10+
522.0249	8	C31H8NO8+
522.2485	50	C30H36NO7+
523.2514	7	C27H39O10+
526.2797	86	C30H40NO7+
527.2844	6	C27H43O10+
536.2649	40	C31H38NO7+
537.2702	8	C28H41O10+
554.2753	72	C31H40NO8+
555.2803	12	C28H43O11+
586.3016	90	C32H44NO9+
646.3226	4	C34H48NO11+
