Mass spectrum: Brucine; LC-ESI-ITFT; MS2; CE: 90%; R=15000; [M+H]+
Name: Brucine
Name: (-)-Brucine
Name: (4aR,5aS,8aR,15bR)-10,11-dimethoxy-4a,5,5a,7,8,13a,15,15a,15b,16-decahydro-2H-4,6-methanoindolo[3,2,1-ij]oxepino[2,3,4-de]pyrrolo[2,3-h]quinolin-14-one
Formula: C23H26N2O4
Exact mass: 394.1893
SMILES: COc1cc2c(cc1OC)N3C4[C@]25CCN6[C@H]5C[C@@H]7[C@H]4C(CC3=O)OCC=C7C6
InChI: InChI=1S/C23H26N2O4/c1-27-16-8-14-15(9-17(16)28-2)25-20(26)10-18-21-13-7-19-23(14,22(21)25)4-5-24(19)11-12(13)3-6-29-18/h3,8-9,13,18-19,21-22H,4-7,10-11H2,1-2H3/t13-,18?,19-,21-,22?,23+/m0/s1
Instrument: LTQ Orbitrap XL Thermo Scientific
Instrument type: LC-ESI-ITFT
Ms type: MS2
Ion mode: POSITIVE
Ionization: ESI
Fragmentation mode: HCD
Collision energy: 90% (nominal)
Resolution: 15000
Column name: Kinetex Evo C18 2.6 um 50 x 2.1 mm
Retention time: 5.946 min
Base peak: 395.1964
Precursor m/z: 395.1965
Precursor type: [M+H]+
m/z	relative intensity	assigned
67.0542	18	C5H7+
79.0543	50	C6H7+
80.0496	60	C5H6N+
81.0572	15	C5H7N+
81.0698	44	C6H9+
82.0653	14	C5H8N+
91.0543	60	C7H7+
93.0573	94	C6H7N+
93.0698	29	C7H9+
94.0652	52	C6H8N+
95.049	24	C6H7O+
96.0806	37	C6H10N+
105.045	14	C6H5N2+
106.0652	159	C7H8N+
108.0808	108	C7H10N+
118.0652	16	C8H8N+
120.081	24	C8H10N+
122.06	78	C7H8NO+
124.0757	34	C7H10NO+
129.0696	14	C10H9+
142.0658	14	C10H8N+
146.0604	36	C9H8NO+
147.0679	55	C9H9NO+
148.0396	19	C8H6NO2+
148.075	21	C9H10NO+
154.0651	53	C11H8N+
155.0737	27	C11H9N+
156.0808	25	C11H10N+
158.0601	51	C10H8NO+
159.0678	16	C10H9NO+
160.0757	55	C10H10NO+
162.0545	28	C9H8NO2+
163.0623	34	C9H9NO2+
169.0515	12	C11H7NO+
170.0601	230	C11H8NO+
171.068	37	C11H9NO+
172.0757	152	C11H10NO+
173.0835	45	C11H11NO+
174.055	33	C10H8NO2+
174.0677	24	C11H10O2+
176.0706	25	C10H10NO2+
177.0788	15	C10H11NO2+
178.0859	26	C10H12NO2+
182.0602	63	C12H8NO+
183.0679	87	C12H9NO+
184.0758	208	C12H10NO+
185.0835	577	C12H11NO+
186.055	188	C11H8NO2+
186.0917	34	C12H12NO+
187.0627	26	C11H9NO2+
188.0706	37	C11H10NO2+
188.1078	10	C12H14NO+
189.0784	18	C11H11NO2+
189.0911	19	C12H13O2+
190.0863	73	C11H12NO2+
192.0655	54	C10H10NO3+
193.0887	13	C14H11N+
194.06	21	C13H8NO+
194.0959	17	C14H12N+
196.0757	66	C13H10NO+
197.0836	107	C13H11NO+
198.0549	409	C12H8NO2+
198.0913	31	C13H12NO+
199.0627	30	C12H9NO2+
200.0706	182	C12H10NO2+
201.0785	155	C12H11NO2+
202.0861	41	C12H12NO2+
204.1021	25	C12H14NO2+
206.0966	24	C15H12N+
208.0756	65	C14H10NO+
208.1117	12	C15H14N+
209.0837	37	C14H11NO+
210.0542	19	C13H8NO2+
210.0913	80	C14H12NO+
211.0631	32	C13H9NO2+
212.0707	160	C13H10NO2+
213.0783	999	C13H11NO2+
214.0498	313	C12H8NO3+
214.0865	56	C13H12NO2+
215.0941	26	C13H13NO2+
216.1018	476	C13H14NO2+
217.0891	22	C16H11N+
218.0965	20	C16H12N+
219.0672	19	C15H9NO+
220.0756	74	C15H10NO+
221.0835	53	C15H11NO+
222.054	17	C14H8NO2+
222.0913	54	C15H12NO+
223.0989	56	C15H13NO+
224.0709	81	C14H10NO2+
224.1076	23	C15H14NO+
225.0785	25	C14H11NO2+
226.0864	81	C14H12NO2+
227.094	80	C14H13NO2+
228.0655	109	C13H10NO3+
228.1017	48	C14H14NO2+
229.0734	501	C13H11NO3+
230.0812	26	C13H12NO3+
232.0756	27	C16H10NO+
233.0838	28	C16H11NO+
234.0544	25	C15H8NO2+
234.0914	124	C16H12NO+
235.0994	55	C16H13NO+
236.0705	201	C15H10NO2+
236.107	102	C16H14NO+
238.0862	90	C15H12NO2+
239.094	33	C15H13NO2+
240.065	28	C14H10NO3+
240.1015	27	C15H14NO2+
241.0744	22	C14H11NO3+
242.0815	27	C14H12NO3+
243.0901	25	C14H13NO3+
244.0968	306	C14H14NO3+
246.0551	19	C16H8NO2+
246.0908	41	C17H12NO+
247.063	20	C16H9NO2+
247.0999	31	C17H13NO+
248.0709	76	C16H10NO2+
248.1071	73	C17H14NO+
249.0788	42	C16H11NO2+
249.1143	21	C17H15NO+
250.0495	17	C15H8NO3+
250.0863	75	C16H12NO2+
250.122	24	C17H16NO+
251.094	139	C16H13NO2+
252.0652	86	C15H10NO3+
252.1016	53	C16H14NO2+
254.0811	19	C15H12NO3+
254.1177	82	C16H16NO2+
256.0967	22	C15H14NO3+
258.0907	26	C18H12NO+
260.1069	37	C18H14NO+
262.0858	53	C17H12NO2+
262.1228	25	C18H16NO+
263.094	97	C17H13NO2+
264.0657	45	C16H10NO3+
264.1019	107	C17H14NO2+
265.0722	22	C16H11NO3+
265.1095	18	C17H15NO2+
266.0809	26	C16H12NO3+
266.1174	30	C17H16NO2+
267.0889	54	C16H13NO3+
273.0784	10	C18H11NO2+
274.0874	24	C18H12NO2+
276.102	48	C18H14NO2+
278.1178	82	C18H16NO2+
279.0882	15	C17H13NO3+
280.0964	51	C17H14NO3+
282.1126	21	C17H16NO3+
286.0863	19	C19H12NO2+
288.1017	37	C19H14NO2+
290.1176	30	C19H16NO2+
292.0977	19	C18H14NO3+
294.1117	17	C18H16NO3+
306.1121	56	C19H16NO3+
337.1556	24	C20H21N2O3+
379.1667	16	C22H23N2O4+
