Mass spectrum: 7-Acetyllycopsamine; LC-ESI-ITFT; MS2; CE: 45%; R=15000; [M+H]+
Name: 7-Acetyllycopsamine
Name: Acetyllycopsamine
Name: [(7R,8R)-7-acetyloxy-5,6,7,8-tetrahydro-3H-pyrrolizin-1-yl]methyl (2S)-2-hydroxy-2-[(1S)-1-hydroxyethyl]-3-methylbutanoate
Formula: C17H27NO6
Exact mass: 341.1838
SMILES: C[C@@H]([C@@](C(C)C)(C(=O)OCC1=CCN2[C@H]1[C@@H](CC2)OC(=O)C)O)O
InChI: InChI=1S/C17H27NO6/c1-10(2)17(22,11(3)19)16(21)23-9-13-5-7-18-8-6-14(15(13)18)24-12(4)20/h5,10-11,14-15,19,22H,6-9H2,1-4H3/t11-,14+,15+,17-/m0/s1
Instrument: LTQ Orbitrap XL Thermo Scientific
Instrument type: LC-ESI-ITFT
Ms type: MS2
Ion mode: POSITIVE
Ionization: ESI
Fragmentation mode: HCD
Collision energy: 45% (nominal)
Resolution: 15000
Column name: Kinetex Evo C18 2.6 um 50 x 2.1 mm
Retention time: 2.558 min
Base peak: 143.0016
Precursor m/z: 342.1911
Precursor type: [M+H]+
m/z	relative intensity	assigned
73.0648	2	C4H9O+
93.0701	4	C7H9+
94.0652	20	C6H8N+
95.0732	2	C6H9N+
103.0539	2	C8H7+
108.0808	8	C7H10N+
118.0653	2	C8H8N+
119.0731	2	C8H9N+
120.0808	999	C8H10N+
121.0886	22	C8H11N+
124.0759	6	C7H10NO+
136.0759	11	C8H10NO+
138.0914	49	C8H12NO+
162.0915	27	C10H12NO+
180.102	136	C10H14NO2+
181.1098	21	C10H15NO2+
198.1126	96	C10H16NO3+
252.1597	2	C14H22NO3+
342.1914	71	C17H28NO6+
