Mass spectrum: Seneciphylline N-oxide; LC-ESI-ITFT; MS2; CE: 65%; R=15000; [M+H]+
Name: Seneciphylline N-oxide
Name: (1R,4E,7R,17R)-4-ethylidene-7-hydroxy-7-methyl-6-methylidene-14-oxido-2,9-dioxa-14-azoniatricyclo[9.5.1.014,17]heptadec-11-ene-3,8-dione
Formula: C18H23NO6
Exact mass: 349.1525
SMILES: C/C=C/1\CC(=C)[C@@](C(=O)OCC2=CC[N+]3([C@H]2[C@@H](CC3)OC1=O)[O-])(C)O
InChI: InChI=1S/C18H23NO6/c1-4-12-9-11(2)18(3,22)17(21)24-10-13-5-7-19(23)8-6-14(15(13)19)25-16(12)20/h4-5,14-15,22H,2,6-10H2,1,3H3/b12-4+/t14-,15-,18-,19?/m1/s1
Instrument: LTQ Orbitrap XL Thermo Scientific
Instrument type: LC-ESI-ITFT
Ms type: MS2
Ion mode: POSITIVE
Ionization: ESI
Fragmentation mode: HCD
Collision energy: 65% (nominal)
Resolution: 15000
Column name: Kinetex Evo C18 2.6 um 50 x 2.1 mm
Retention time: 2.981 min
Base peak: 350.1597
Precursor m/z: 350.1598
Precursor type: [M+H]+
m/z	relative intensity	assigned
67.0543	34	C5H7+
68.0493	18	C4H6N+
79.0543	70	C6H7+
80.0495	104	C5H6N+
81.0573	20	C5H7N+
81.07	67	C6H9+
82.0651	24	C5H8N+
84.0444	21	C4H6NO+
91.0543	77	C7H7+
92.0492	11	C6H6N+
93.0574	390	C6H7N+
93.0698	23	C7H9+
94.0652	776	C6H8N+
95.073	310	C6H9N+
95.0857	36	C7H11+
96.0808	13	C6H10N+
98.0601	60	C5H8NO+
105.07	57	C8H9+
106.0652	197	C7H8N+
107.0492	98	C7H7O+
107.0729	17	C7H9N+
107.0857	24	C8H11+
108.0809	182	C7H10N+
109.0649	142	C7H9O+
109.0884	48	C7H11N+
110.0601	30	C6H8NO+
111.0679	30	C6H9NO+
112.0758	69	C6H10NO+
117.0575	11	C8H7N+
118.0652	627	C8H8N+
119.0731	570	C8H9N+
120.0809	999	C8H10N+
121.0887	68	C8H11N+
122.0725	28	C8H10O+
122.0965	83	C8H12N+
123.0806	80	C8H11O+
124.0757	29	C7H10NO+
126.0914	13	C7H12NO+
132.0809	23	C9H10N+
133.0648	20	C9H9O+
136.0758	763	C8H10NO+
137.0836	52	C8H11NO+
138.0915	330	C8H12NO+
140.1068	11	C8H14NO+
146.0967	27	C10H12N+
151.0755	62	C9H11O2+
154.0863	86	C8H12NO2+
167.0705	13	C9H11O3+
178.1222	26	C11H16NO+
188.1073	14	C12H14NO+
209.1175	44	C12H17O3+
246.1491	9	C15H20NO2+
322.166	21	C17H24NO5+
350.1606	61	C18H24NO6+
