Mass spectrum: trans-Zeatin; LC-ESI-ITFT; MS2; CE: 90%; R=15000; [M+H]+
Name: trans-Zeatin
Formula: C10H13N5O
Exact mass: 219.1120
SMILES: C\C(CO)=C/CNC1=C2N=CNC2=NC=N1
InChI: InChI=1S/C10H13N5O/c1-7(4-16)2-3-11-9-8-10(13-5-12-8)15-6-14-9/h2,5-6,16H,3-4H2,1H3,(H2,11,12,13,14,15)/b7-2+
Instrument: LTQ Orbitrap XL Thermo Scientific
Instrument type: LC-ESI-ITFT
Ms type: MS2
Ion mode: POSITIVE
Ionization: ESI
Fragmentation mode: HCD
Collision energy: 90 % (nominal)
Resolution: 15000
Column name: Kinetex Evo C18 2.6 um 50 x 2.1 mm
Retention time: 0.887 min
Base peak: 220.1191
Precursor m/z: 220.1193
Precursor type: [M+H]+
m/z	relative intensity	assigned
65.0383	6	C5H5+
67.0542	28	C5H7+
94.04	44	C4H4N3+
109.0508	46	C4H5N4+
119.0352	577	C5H3N4+
121.0507	15	C5H5N4+
136.0617	999	C5H6N5+
137.0457	97	C5H5N4O+
148.0617	58	C6H6N5+
159.067	10	C8H7N4+
