Mass spectrum: Huperzin A; LC-ESI-ITFT; MS2; CE: 85%; R=15000; [M+H]+
Name: Huperzin A
Name: (-)-Huperazine A
Name: (1R,9R,13E)-1-amino-13-ethylidene-11-methyl-6-azatricyclo[7.3.1.02,7]trideca-2(7),3,10-trien-5-one
Formula: C15H18N2O
Exact mass: 242.1419
SMILES: C/C=C/1\[C@@H]2CC3=C([C@]1(CC(=C2)C)N)C=CC(=O)N3
InChI: InChI=1S/C15H18N2O/c1-3-11-10-6-9(2)8-15(11,16)12-4-5-14(18)17-13(12)7-10/h3-6,10H,7-8,16H2,1-2H3,(H,17,18)/b11-3+/t10-,15+/m0/s1
Instrument: LTQ Orbitrap XL Thermo Scientific
Instrument type: LC-ESI-ITFT
Ms type: MS2
Ion mode: POSITIVE
Ionization: ESI
Fragmentation mode: HCD
Collision energy: 85% (nominal)
Resolution: 15000
Column name: Kinetex Evo C18 2.6 um 50 x 2.1 mm
Retention time: 1.533 min
Base peak: 143.0016
Precursor m/z: 243.1492
Precursor type: [M+H]+
m/z	relative intensity	assigned
110.0601	120	C6H8NO+
119.0728	102	C8H9N+
134.096	296	C9H12N+
165.0696	147	C13H9+
166.0774	122	C13H10+
168.0811	126	C12H10N+
181.1013	119	C14H13+
182.0601	121	C12H8NO+
187.086	186	C11H11N2O+
191.0724	92	C14H9N+
192.08	196	C14H10N+
193.0888	236	C14H11N+
196.0755	676	C13H10NO+
197.0836	147	C13H11NO+
208.1116	168	C15H14N+
210.0913	999	C14H12NO+
213.1017	200	C13H13N2O+
224.1068	113	C15H14NO+
226.1224	462	C15H16NO+
227.118	654	C14H15N2O+
