Mass spectrum: Bergapten/Heraclin; LC-ESI-ITFT; MS2; CE: 90%; R=15000; [M+H]+
Name: Bergapten/Heraclin
Formula: C12H8O4
Exact mass: 216.0423
SMILES: COC1=C2C=COC2=CC2=C1C=CC(=O)O2
InChI: InChI=1S/C12H8O4/c1-14-12-7-2-3-11(13)16-10(7)6-9-8(12)4-5-15-9/h2-6H,1H3
Instrument: LTQ Orbitrap XL Thermo Scientific
Instrument type: LC-ESI-ITFT
Ms type: MS2
Ion mode: POSITIVE
Ionization: ESI
Fragmentation mode: HCD
Collision energy: 90 % (nominal)
Resolution: 15000
Column name: Kinetex Evo C18 2.6 um 50 x 2.1 mm
Retention time: 9.930 min
Base peak: 416.3518
Precursor m/z: 217.0495
Precursor type: [M+H]+
m/z	relative intensity	assigned
77.0386	10	C6H5+
79.0543	10	C6H7+
89.0386	99	C7H5+
90.0464	381	C7H6+
91.0543	15	C7H7+
100.0308	20	C8H4+
102.0464	48	C8H6+
103.0543	22	C8H7+
105.0698	29	C8H9+
115.0542	132	C9H7+
117.0339	8	C8H5O+
118.0413	616	C8H6O+
128.0254	12	C9H4O+
129.0334	17	C9H5O+
130.0413	16	C9H6O+
131.0491	137	C9H7O+
133.0648	10	C9H9O+
145.0285	75	C9H5O2+
146.0363	529	C9H6O2+
156.0207	80	C10H4O2+
158.0367	15	C10H6O2+
161.0603	13	C10H9O2+
173.0232	13	C10H5O3+
174.0313	999	C10H6O3+
202.0261	642	C11H6O4+
