Mass spectrum: Ajmalicine; LC-ESI-ITFT; MS2; CE: 45%; R=15000; [M+H]+
Name: Ajmalicine
Name: methyl (1S,15R,16S,20S)-16-methyl-17-oxa-3,13-diazapentacyclo[11.8.0.02,10.04,9.015,20]henicosa-2(10),4,6,8,18-pentaene-19-carboxylate
Formula: C21H24N2O3
Exact mass: 352.1787
SMILES: C[C@H]1[C@H]2CN3CCc4c5ccccc5[nH]c4[C@@H]3C[C@@H]2C(=CO1)C(=O)OC
InChI: InChI=1S/C21H24N2O3/c1-12-16-10-23-8-7-14-13-5-3-4-6-18(13)22-20(14)19(23)9-15(16)17(11-26-12)21(24)25-2/h3-6,11-12,15-16,19,22H,7-10H2,1-2H3/t12-,15-,16+,19-/m0/s1
Instrument: LTQ Orbitrap XL Thermo Scientific
Instrument type: LC-ESI-ITFT
Ms type: MS2
Ion mode: POSITIVE
Ionization: ESI
Fragmentation mode: HCD
Collision energy: 45% (nominal)
Resolution: 15000
Column name: Kinetex Evo C18 2.6 um 50 x 2.1 mm
Retention time: 7.574 min
Base peak: 353.1856
Precursor m/z: 353.186
Precursor type: [M+H]+
m/z	relative intensity	assigned
68.0495	2	C4H6N+
81.07	1	C6H9+
84.0809	1	C5H10N+
108.0807	5	C7H10N+
109.0646	1	C7H9O+
117.0698	1	C9H9+
124.0393	5	C6H6NO2+
130.0651	6	C9H8N+
134.0965	1	C9H12N+
143.0731	1	C10H9N+
144.0807	999	C10H10N+
149.0599	1	C9H9O2+
150.0913	1	C9H12NO+
153.0543	1	C8H9O3+
156.0806	14	C11H10N+
158.0964	17	C11H12N+
162.0912	2	C10H12NO+
164.0707	4	C9H10NO2+
167.0702	5	C9H11O3+
170.0964	35	C12H12N+
172.1122	1	C12H14N+
178.0862	63	C10H12NO2+
182.0964	11	C13H12N+
185.1072	4	C12H13N2+
190.0862	1	C11H12NO2+
194.0969	1	C14H12N+
194.1176	1	C11H16NO2+
196.0967	6	C10H14NO3+
199.1229	10	C13H15N2+
208.0756	1	C14H10NO+
208.0968	4	C11H14NO3+
208.1124	1	C15H14N+
210.1124	91	C11H16NO3+
222.1124	24	C12H16NO3+
222.1275	3	C16H16N+
224.1069	3	C15H14NO+
225.139	2	C15H17N2+
232.1118	1	C17H14N+
234.0915	1	C16H12NO+
234.1276	3	C17H16N+
236.1439	1	C17H18N+
238.0855	1	C15H12NO2+
240.1017	1	C15H14NO2+
248.107	1	C17H14NO+
250.0862	1	C16H12NO2+
250.1227	4	C17H16NO+
251.1541	6	C17H19N2+
252.1018	26	C16H14NO2+
254.1174	3	C16H16NO2+
260.1071	2	C18H14NO+
262.1229	1	C18H16NO+
264.1387	2	C18H18NO+
274.1236	1	C19H16NO+
276.1389	1	C19H18NO+
277.1327	1	C18H17N2O+
278.1175	13	C18H16NO2+
284.1283	18	C17H18NO3+
292.1334	5	C19H18NO2+
293.1649	4	C19H21N2O+
303.1496	2	C20H19N2O+
304.1338	3	C20H18NO2+
310.1428	1	C19H20NO3+
321.1598	20	C20H21N2O2+
324.1591	2	C20H22NO3+
336.159	1	C21H22NO3+
353.186	65	C21H25N2O3+
