Mass spectrum: Intermedine N-oxide; LC-ESI-ITFT; MS2; CE: 100%; R=15000; [M+H]+
Name: Intermedine N-oxide
Name: [(7R,8R)-7-hydroxy-4-oxido-5,6,7,8-tetrahydro-3H-pyrrolizin-4-ium-1-yl]methyl (2S)-2-hydroxy-2-[(1R)-1-hydroxyethyl]-3-methylbutanoate
Formula: C15H25NO6
Exact mass: 315.1682
SMILES: C[C@H]([C@@](C(C)C)(C(=O)OCC1=CC[N+]2([C@H]1[C@@H](CC2)O)[O-])O)O
InChI: InChI=1S/C15H25NO6/c1-9(2)15(20,10(3)17)14(19)22-8-11-4-6-16(21)7-5-12(18)13(11)16/h4,9-10,12-13,17-18,20H,5-8H2,1-3H3/t10-,12-,13-,15+,16?/m1/s1
Instrument: LTQ Orbitrap XL Thermo Scientific
Instrument type: LC-ESI-ITFT
Ms type: MS2
Ion mode: POSITIVE
Ionization: ESI
Fragmentation mode: HCD
Collision energy: 100% (nominal)
Resolution: 15000
Column name: Kinetex Evo C18 2.6 um 50 x 2.1 mm
Retention time: 1.194 min
Base peak: 143.0016
Precursor m/z: 316.1755
Precursor type: [M+H]+
m/z	relative intensity	assigned
66.0464	18	C5H6+
67.0415	24	C4H5N+
67.0542	47	C5H7+
68.0494	60	C4H6N+
80.0495	444	C5H6N+
81.0336	14	C5H5O+
81.0573	40	C5H7N+
81.0698	32	C6H9+
82.0413	30	C5H6O+
82.0651	57	C5H8N+
83.0492	81	C5H7O+
92.0496	34	C6H6N+
93.0573	515	C6H7N+
94.0651	999	C6H8N+
95.0729	14	C6H9N+
96.0442	32	C5H6NO+
96.0809	26	C6H10N+
98.0599	34	C5H8NO+
102.055	53	C4H8NO2+
106.0651	86	C7H8N+
108.0808	69	C7H10N+
110.06	74	C6H8NO+
111.0678	662	C6H9NO+
112.076	24	C6H10NO+
118.0652	13	C8H8N+
124.0758	26	C7H10NO+
128.0705	32	C6H10NO2+
136.0757	116	C8H10NO+
137.0833	21	C8H11NO+
138.0913	130	C8H12NO+
154.0862	27	C8H12NO2+
155.094	31	C8H13NO2+
172.0969	171	C8H14NO3+
