Mass spectrum: Gelsemine; LC-ESI-ITFT; MS2; CE: 40%; R=15000; [M+H]+
Name: Gelsemine
Name: (2`S,3S,5`S,6`S,11`S)-2`-ethenyl-4`-methylspiro[1H-indole-3,7`-9-oxa-4-azatetracyclo[6.3.1.02,6.05,11]dodecane]-2-one
Formula: C20H22N2O2
Exact mass: 322.1681
SMILES: CN1C[C@@]2([C@@H]3[C@H]1[C@@H]4C2CC([C@@]35c6ccccc6NC5=O)OC4)C=C
InChI: InChI=1S/C20H22N2O2/c1-3-19-10-22(2)16-11-9-24-15(8-13(11)19)20(17(16)19)12-6-4-5-7-14(12)21-18(20)23/h3-7,11,13,15-17H,1,8-10H2,2H3,(H,21,23)/t11-,13?,15?,16+,17-,19-,20-/m0/s1
Instrument: LTQ Orbitrap XL Thermo Scientific
Instrument type: LC-ESI-ITFT
Ms type: MS2
Ion mode: POSITIVE
Ionization: ESI
Fragmentation mode: HCD
Collision energy: 40% (nominal)
Resolution: 15000
Column name: Kinetex Evo C18 2.6 um 50 x 2.1 mm
Retention time: 1.783 min
Base peak: 323.1752
Precursor m/z: 323.1754
Precursor type: [M+H]+
m/z	relative intensity	assigned
70.0651	142	C4H8N+
86.06	18	C4H8NO+
88.0758	11	C4H10NO+
105.0702	1	C8H9+
117.0699	11	C9H9+
131.0855	15	C10H11+
132.0443	4	C8H6NO+
146.06	9	C9H8NO+
158.0599	6	C10H8NO+
159.0805	15	C11H11O+
162.1274	4	C11H16N+
165.1151	2	C10H15NO+
190.1232	3	C12H16NO+
191.1305	5	C12H17NO+
195.0677	3	C13H9NO+
196.0757	6	C13H10NO+
208.0762	1	C14H10NO+
210.0913	9	C14H12NO+
222.0922	2	C15H12NO+
236.107	93	C16H14NO+
238.1226	36	C16H16NO+
248.1075	3	C17H14NO+
262.1227	6	C18H16NO+
264.1387	3	C18H18NO+
274.1226	6	C19H16NO+
292.1338	3	C19H18NO2+
293.1643	3	C19H21N2O+
305.1646	1	C20H21N2O+
323.1755	999	C20H23N2O2+
