Mass spectrum: Yohimbine; LC-ESI-ITFT; MS2; CE: 75%; R=15000; [M+H]+
Name: Yohimbine
Name: methyl (1S,15R,18S,19R,20S)-18-hydroxy-1,3,11,12,14,15,16,17,18,19,20,21-dodecahydroyohimban-19-carboxylate
Formula: C21H26N2O3
Exact mass: 354.1943
SMILES: COC(=O)[C@H]1[C@H](CC[C@@H]2[C@@H]1C[C@H]3c4c(c5ccccc5[nH]4)CCN3C2)O
InChI: InChI=1S/C21H26N2O3/c1-26-21(25)19-15-10-17-20-14(13-4-2-3-5-16(13)22-20)8-9-23(17)11-12(15)6-7-18(19)24/h2-5,12,15,17-19,22,24H,6-11H2,1H3/t12-,15-,17-,18-,19+/m0/s1
Instrument: LTQ Orbitrap XL Thermo Scientific
Instrument type: LC-ESI-ITFT
Ms type: MS2
Ion mode: POSITIVE
Ionization: ESI
Fragmentation mode: HCD
Collision energy: 75% (nominal)
Resolution: 15000
Column name: Kinetex Evo C18 2.6 um 50 x 2.1 mm
Retention time: 6.550 min
Base peak: 355.2014
Precursor m/z: 355.2016
Precursor type: [M+H]+
m/z	relative intensity	assigned
79.0542	5	C6H7+
80.0496	3	C5H6N+
91.0542	9	C7H7+
93.07	4	C7H9+
94.0651	12	C6H8N+
103.0541	2	C8H7+
105.0698	6	C8H9+
106.0652	15	C7H8N+
107.0858	1	C8H11+
115.0543	8	C9H7+
117.0699	94	C9H9+
118.0651	3	C8H8N+
119.0493	2	C8H7O+
119.0857	2	C9H11+
120.081	3	C8H10N+
128.0493	3	C9H6N+
128.0626	1	C10H8+
129.0703	3	C10H9+
130.0651	22	C9H8N+
131.073	2	C9H9N+
131.0852	1	C10H11+
132.0807	7	C9H10N+
133.0648	1	C9H9O+
134.0965	47	C9H12N+
135.0811	1	C9H11O+
136.112	1	C9H14N+
138.0913	1	C8H12NO+
142.0656	1	C10H8N+
143.073	48	C10H9N+
144.0808	999	C10H10N+
145.0649	5	C10H9O+
146.0966	3	C10H12N+
152.1065	1	C9H14NO+
155.0604	25	C10H7N2+
156.0808	6	C11H10N+
157.0886	6	C11H11N+
158.0965	14	C11H12N+
162.0915	18	C10H12NO+
168.0805	3	C12H10N+
169.088	1	C12H11N+
170.0963	5	C12H12N+
180.0808	3	C13H10N+
180.1019	10	C10H14NO2+
181.0886	1	C13H11N+
182.0964	5	C13H12N+
192.1014	4	C11H14NO2+
194.0965	4	C14H12N+
194.1176	16	C11H16NO2+
196.1118	2	C14H14N+
206.0961	4	C15H12N+
207.1047	1	C15H13N+
208.1122	5	C15H14N+
209.1196	2	C15H15N+
212.1282	15	C11H18NO3+
217.0877	1	C16H11N+
218.0963	2	C16H12N+
219.1041	2	C16H13N+
220.1121	5	C16H14N+
221.1198	1	C16H15N+
222.1277	1	C16H16N+
224.1287	4	C12H18NO3+
231.1036	2	C17H13N+
232.1116	2	C17H14N+
233.1206	2	C17H15N+
234.1285	2	C17H16N+
246.1276	2	C18H16N+
248.143	4	C18H18N+
260.1427	2	C19H18N+
