Mass spectrum: Daphnetin; LC-ESI-ITFT; MS2; CE: 125%; R=15000; [M+H]+
Name: Daphnetin
Formula: C9H6O4
Exact mass: 178.0266
SMILES: OC1=CC=C2C=CC(=O)OC2=C1O
InChI: InChI=1S/C9H6O4/c10-6-3-1-5-2-4-7(11)13-9(5)8(6)12/h1-4,10,12H
Instrument: LTQ Orbitrap XL Thermo Scientific
Instrument type: LC-ESI-ITFT
Ms type: MS2
Ion mode: POSITIVE
Ionization: ESI
Fragmentation mode: HCD
Collision energy: 125 % (nominal)
Resolution: 15000
Column name: Kinetex Evo C18 2.6 um 50 x 2.1 mm
Retention time: 4.509 min
Base peak: 143.0015
Precursor m/z: 179.0339
Precursor type: [M+H]+
m/z	relative intensity	assigned
51.0229	83	C4H3+
65.0386	32	C5H5+
67.0541	24	C5H7+
77.0386	999	C6H5+
79.0181	17	C5H3O+
79.0543	78	C6H7+
89.0387	96	C7H5+
90.0464	33	C7H6+
91.0543	134	C7H7+
95.0492	115	C6H7O+
105.0336	283	C7H5O+
107.0493	55	C7H7O+
118.0416	43	C8H6O+
123.044	67	C7H7O2+
133.0287	67	C8H5O2+
