Mass spectrum: Apigenin; LC-ESI-QTOF; MS2
Name: Apigenin
Class: Flavonoids
Formula: C15H10O5
Exact mass: 270.05271
SMILES: OC1=CC=C(C=C1)C1=CC(=O)C2=C(O)C=C(O)C=C2O1
InChI: InChI=1S/C15H10O5/c16-9-3-1-8(2-4-9)13-7-12(19)15-11(18)5-10(17)6-14(15)20-13/h1-7,16-18H
Instrument: ZenoTOF 7600
Instrument type: LC-ESI-QTOF
Ms type: MS2
Ion mode: POSITIVE
Retention time: 0.561266666666667
Precursor m/z: 271.05999
Precursor type: [M+H]+
m/z	relative intensity	assigned
50.01363	2	none
51.02354	0	none
55.05215	0	none
56.06211	1	none
57.06654	1	none
63.02176	0	none
65.03702	2	none
67.01819	0	none
67.05237	1	none
68.03882	0	none
68.99460	0	none
69.06772	1	none
69.52609	0	none
71.08349	1	none
75.01017	0	none
75.01769	1	none
76.00712	1	none
77.03736	2	none
78.01016	0	none
78.04474	3	none
79.05333	2	none
80.06121	0	none
81.03318	0	none
81.06562	1	none
81.91201	0	none
82.07073	0	none
83.01296	1	none
83.02550	0	none
83.08412	2	none
83.91027	1	none
84.02829	3	none
84.09026	0	none
85.00275	0	none
85.10158	1	none
85.99010	0	none
86.01491	1	none
87.02139	2	none
88.03436	0	none
89.03856	5	none
90.03349	0	none
90.04667	1	none
91.05435	76	none
92.04519	0	none
92.06086	50	none
92.99355	0	none
93.06440	4	none
93.94364	0	none
93.99722	0	none
94.05327	0	none
94.06955	1	none
95.01254	2	none
95.04603	1	none
95.08412	3	none
96.02194	3	none
96.04077	0	none
96.05469	1	none
96.09414	1	none
96.93221	0	none
97.02845	2	none
97.08704	0	none
97.10124	2	none
97.92998	0	none
97.94794	0	none
98.01704	0	none
98.10392	1	none
99.00748	1	none
99.01994	1	none
99.99365	3	none
100.02413	1	none
101.01979	2	none
101.03790	0	none
102.04471	3	none
103.04513	5	none
103.91876	0	none
104.03649	1	none
104.06085	3	none
105.03434	2	none
105.05704	3	none
105.06890	10	none
105.92794	1	none
105.93980	0	none
106.07682	26	none
107.05192	1	none
107.06808	0	none
107.08166	3	none
107.92191	1	none
107.97419	0	none
108.01908	2	none
108.04037	0	none
108.07883	1	none
108.09135	1	none
108.98920	1	none
109.02558	0	none
109.03766	2	none
109.06839	1	none
109.08281	1	none
109.09993	3	none
110.00328	0	none
110.03555	0	none
110.07231	1	none
110.09437	1	none
110.10781	0	none
111.00367	4	none
111.02490	0	none
111.04761	0	none
112.00626	13	none
112.52673	1	none
113.00103	5	none
113.01745	2	none
113.03726	1	none
114.00465	6	none
114.02626	1	none
114.04347	0	none
115.05390	8	none
116.06013	2	none
117.01207	0	none
117.05711	2	none
117.06801	2	none
118.04246	21	none
119.04940	12	none
119.25767	0	none
120.04207	0	none
120.05853	2	none
120.08656	2	none
121.02849	16	none
122.07346	1	none
122.09985	1	none
123.00632	3	none
123.01968	1	none
123.04016	0	none
124.01550	16	none
124.35963	0	none
125.01050	0	none
125.03673	0	none
125.12360	1	none
126.01200	0	none
126.03160	2	none
126.04617	1	none
126.34707	0	none
126.90504	1	none
126.99609	1	none
127.05513	2	none
127.06771	0	none
127.98649	0	none
128.06173	3	none
128.90343	1	none
128.97255	0	none
129.02849	1	none
129.04606	1	none
129.07282	2	none
130.00248	0	none
130.02106	1	none
130.04180	1	none
130.06631	1	none
130.99193	6	none
131.04993	3	none
131.90390	0	none
132.01773	17	none
132.06445	1	none
132.90349	1	none
133.02200	2	none
133.06177	0	none
133.08115	0	none
133.90684	0	none
134.04576	0	none
134.06119	0	none
134.10026	1	none
135.00662	2	none
135.05940	0	none
135.10350	0	none
135.53091	47	none
136.02197	3	none
136.11751	0	none
137.02173	1	none
137.04049	0	none
137.13165	0	none
137.97358	0	none
138.02767	0	none
138.04476	1	none
139.00148	2	none
139.05355	6	none
140.03967	0	none
140.06183	3	none
140.92190	1	none
140.99770	1	none
141.06889	6	none
141.92641	4	none
142.04575	1	none
142.07720	0	none
142.92407	0	none
142.99294	1	none
143.05175	1	none
143.07383	0	none
143.99849	1	none
144.05562	3	none
144.07232	2	none
144.53447	1	none
145.01248	1	none
145.03035	4	none
145.04383	7	none
145.06015	2	none
145.10113	0	none
145.96843	15	none
146.97358	1	none
147.04389	1	none
147.08229	0	none
147.11507	1	none
147.96579	8	none
148.07905	2	none
148.12322	1	none
148.95691	0	none
148.97604	0	none
149.02535	1	none
149.96522	1	none
149.98790	2	none
150.02127	1	none
150.03924	3	none
150.95913	0	none
150.98912	2	none
151.02440	2	none
151.05905	0	none
151.14636	2	none
152.01159	7	none
152.03924	1	none
152.05765	0	none
153.01953	82	none
154.04058	1	none
154.06747	3	none
155.05387	4	none
155.26966	2	none
156.06503	1	none
156.07772	1	none
157.00803	1	none
157.02550	1	none
157.06414	4	none
158.00256	0	none
158.07121	2	none
158.09721	1	none
158.97169	2	none
158.98922	0	none
159.01640	0	none
159.04411	1	none
159.07113	0	none
159.09091	0	none
159.10258	1	none
160.04856	4	none
160.08532	1	none
160.09872	0	none
161.02597	1	none
161.07122	0	none
161.99271	0	none
162.02625	0	none
162.07489	0	none
162.08709	1	none
162.10732	0	none
162.99958	3	none
163.03838	5	none
163.14523	0	none
163.87355	1	none
164.02508	0	none
164.06523	0	none
165.06227	1	none
165.16377	0	none
166.06297	1	none
166.15651	0	none
167.01337	0	none
167.05265	3	none
167.07946	1	none
168.05976	5	none
168.07869	2	none
169.02799	1	none
169.06457	4	none
170.01114	1	none
170.02537	0	none
170.06753	1	none
170.09581	1	none
171.03692	2	none
171.06364	0	none
171.08927	0	none
171.10828	1	none
172.04570	1	none
172.07479	1	none
173.03624	1	none
173.06143	1	none
173.07990	0	none
173.10739	1	none
173.98972	0	none
174.08760	0	none
174.97448	0	none
175.00003	3	none
175.06493	1	none
175.09530	0	none
175.61003	0	none
176.00881	0	none
176.04079	1	none
176.05690	0	none
177.02373	1	none
177.16276	0	none
178.02624	0	none
178.07464	1	none
179.04773	1	none
179.08681	0	none
180.01169	0	none
180.05342	1	none
180.07154	1	none
180.99967	4	none
181.07641	0	none
181.99056	0	none
182.01752	2	none
182.05042	1	none
182.06963	1	none
182.08583	1	none
182.10027	0	none
183.03666	1	none
183.04837	2	none
183.09307	1	none
183.13658	0	none
183.86143	0	none
184.05300	2	none
184.07185	1	none
184.09318	0	none
184.95791	1	none
185.05960	3	none
185.07756	0	none
185.12048	0	none
186.06301	1	none
186.12123	0	none
187.04500	3	none
187.15160	2	none
188.09795	0	none
188.11675	0	none
189.01793	0	none
189.03556	1	none
189.07046	0	none
190.07424	1	none
190.99397	1	none
191.04833	0	none
191.07362	0	none
192.04151	0	none
192.07806	1	none
192.97122	0	none
192.98463	1	none
193.06968	1	none
193.09276	0	none
193.99891	1	none
194.06343	0	none
194.08600	2	none
194.10076	0	none
195.00575	1	none
195.04431	1	none
195.08156	1	none
196.05459	1	none
196.06725	0	none
196.08512	0	none
196.10931	1	none
197.06223	3	none
197.09816	1	none
197.12645	1	none
198.01771	0	none
198.06323	1	none
199.03542	1	none
199.09536	0	none
199.15368	1	none
200.01695	2	none
200.05000	1	none
200.09271	1	none
200.12096	0	none
201.01436	0	none
201.04611	2	none
201.07973	0	none
201.14225	0	none
201.16865	0	none
202.04915	0	none
202.06614	1	none
202.61072	0	none
203.01113	0	none
203.03339	1	none
203.14693	0	none
204.02716	0	none
204.11768	0	none
204.15172	0	none
204.38695	0	none
205.06748	0	none
205.60022	0	none
205.74633	0	none
205.98247	0	none
206.07213	1	none
206.08630	2	none
206.96902	0	none
206.99876	0	none
207.08735	0	none
207.11163	0	none
207.87611	0	none
207.97668	0	none
208.07144	0	none
208.09264	0	none
208.11862	0	none
209.00858	0	none
209.06180	0	none
209.10005	0	none
209.12554	0	none
210.11414	0	none
210.13695	1	none
210.98401	0	none
211.03327	2	none
211.09327	2	none
211.12643	0	none
211.20688	0	none
211.98421	0	none
212.04714	0	none
212.11307	1	none
212.98812	0	none
213.01593	2	none
213.05500	8	none
213.32654	3	none
214.06784	1	none
215.07196	2	none
215.20906	0	none
216.04546	1	none
216.06371	2	none
217.06828	1	none
217.09095	0	none
217.33518	2	none
217.36962	0	none
218.08764	1	none
218.77869	0	none
218.92652	0	none
219.09203	1	none
219.10924	2	none
219.98386	1	none
220.09654	1	none
220.18475	0	none
220.22575	0	none
220.39006	0	none
220.98092	0	none
221.06920	0	none
221.12441	0	none
221.18194	0	none
221.59153	0	none
222.09205	1	none
222.11537	0	none
222.97242	0	none
223.03321	0	none
223.13525	2	none
224.04907	3	none
224.07330	1	none
224.98902	1	none
225.02324	1	none
225.04295	2	none
225.06005	4	none
226.04246	3	none
226.06062	1	none
226.94193	1	none
226.97013	1	none
227.04748	1	none
227.13673	0	none
228.03736	1	none
229.02566	1	none
229.05340	2	none
229.21414	5	none
229.26243	1	none
230.02215	1	none
230.08183	1	none
230.10435	0	none
230.12744	0	none
230.98835	1	none
231.07203	1	none
232.00330	0	none
232.08584	0	none
232.12763	0	none
233.08835	0	none
233.10480	0	none
234.96918	0	none
235.09534	0	none
235.18831	2	none
238.10398	1	none
238.16352	0	none
239.01630	0	none
239.06695	0	none
240.04191	0	none
240.12691	0	none
240.23167	0	none
241.00516	0	none
241.05338	6	none
241.38552	0	none
242.05826	56	none
242.98811	2	none
243.05083	1	none
243.06878	0	none
243.08708	1	none
243.44860	2	none
243.98605	0	none
244.02760	0	none
244.06578	0	none
244.10863	0	none
245.03691	0	none
245.04918	0	none
246.10396	0	none
247.13228	1	none
247.96233	0	none
248.88569	0	none
249.12839	0	none
250.00280	0	none
250.07891	1	none
250.13070	0	none
251.53553	0	none
252.07807	0	none
252.26428	0	none
252.66790	0	none
252.94828	0	none
253.02566	2	none
253.04881	3	none
253.09668	1	none
253.11970	0	none
253.14641	2	none
253.17269	0	none
253.22638	1	none
254.05775	1	none
254.60409	0	none
254.96309	0	none
256.06267	0	none
257.05475	0	none
257.09833	0	none
257.75417	0	none
258.05763	1	none
258.09739	1	none
258.89010	0	none
258.95720	0	none
258.98251	0	none
260.46333	0	none
261.08753	0	none
261.11513	0	none
261.94847	0	none
262.07954	1	none
262.98825	2	none
264.06945	0	none
266.02449	1	none
267.01826	2	none
267.10394	1	none
267.52728	0	none
268.08679	0	none
268.18834	1	none
268.24561	0	none
268.33536	3	none
268.43786	3	none
268.47992	0	none
269.04789	4	none
269.08718	0	none
269.34421	0	none
269.41534	2	none
269.44229	0	none
269.55648	0	none
269.63966	0	none
269.70125	0	none
270.05597	72	none
270.09445	17	none
270.11549	10	none
270.27914	0	none
270.58167	2	none
270.68515	0	none
270.76465	3	none
271.06542	999	none
