Mass spectrum: Glycitein; ESI-QTOF; MS2; NEGATIVE; [M-H]-; CID; 50 V
Name: Glycitein
Class: Natural product; Isoflavone
Formula: C16H12O5
Exact mass: 284.06847
SMILES: COC1=C(C=C2C(=C1)C(=O)C(=CO2)C3=CC=C(C=C3)O)O
InChI: InChI=1S/C16H12O5/c1-20-15-6-11-14(7-13(15)18)21-8-12(16(11)19)9-2-4-10(17)5-3-9/h2-8,17-18H,1H3
Instrument: X500R QTOF (AB Sciex LLC, USA)
Instrument type: ESI-QTOF
Ms type: MS2
Ion mode: NEGATIVE
Collision energy: 50 V
Fragmentation mode: CID
Ionization: ESI
Precursor m/z: 283.06120
Precursor type: [M-H]-
m/z	relative intensity
41.0032	71
94.0059	121
132.0217	70
133.0295	117
147.0087	144
155.0502	114
167.0502	187
183.0451	389
184.0529	766
195.0451	159
196.0529	426
211.04	999
239.035	672
240.0427	444
267.0298	147
