Mass spectrum: Malic acid-[3-13C]; GC-EI-Q; MS; POSITIVE; 3 TMS-derivative
Name: Malic acid-[3-13C]
Class: In vitro synthetic compound
Formula: C4H6O5
Exact mass: 134.021523
SMILES: C(C(C(=O)O)O)C(=O)O
InChI: InChI=1S/C4H6O5/c5-2(4(8)9)1-3(6)7/h2,5H,1H2,(H,6,7)(H,8,9)/i1+1
Instrument: GCMS-QP2010 Ultra (Shimadzu, Kyoto, Japan)
Instrument type: GC-EI-Q
Ms type: MS
Ion mode: POSITIVE
Column name: DB-5MS+DG (Agilent Technologies, Santa Clara, CA, USA)
Derivative form: C13H30O5Si3
Derivative mass: 351.14345
Derivative type: 3TMS
m/z	relative intensity	assigned
49.9	11	
50.9	41	
51.9	14	
53.9	10	
54.95	17	
55.9	248	
56.9	23	
57.95	36	
58.95	124	
59.95	19	
60.95	44	
70	20	
71.05	13	
72.15	109	
73.15	999	
74.05	603	
75	620	
76	47	
77	29	
78	50	
79	10	
89.25	11	
100	20	
101.05	11	
102	137	C3(13C)H9OSi+
103	47	
104.05	15	
105	32	
115	14	
117.05	110	C4H9O2Si+
118.05	13	
119	20	
129.05	14	
130	24	
131	66	
132.05	15	
133	221	
134	33	
135.05	22	
136.05	64	
144.05	37	
146.15	16	
147.1	891	
148.1	151	
149.05	101	
150.05	13	
151.05	11	
172	36	
175.05	14	
176.05	78	
177	29	
178.05	11	
179	164	
180	26	
190.05	207	
191.05	95	
192.05	28	
193.05	21	
204	12	
205	10	
218	48	
219	11	
221	22	
233.15	12	
234.05	326	C8(13C)H21O3Si2+
235.05	62	
236.05	27	
246	161	
247	32	
248	20	
264.1	27	
265.1	44	
266.1	14	
306.1	17	
307.1	26	
308.1	46	
309.1	12	
320.05	18	
336.1	70	C11(13C)H27O5Si3+
337.1	18	
338.1	10	
