Mass spectrum: L-Carnitine; ESI-QTOF; MS2; POSITIVE; [M+H]+; CID; 20 V
Name: L-Carnitine
Class: Carnitine
Formula: C7H15NO3
Exact mass: 161.10519
SMILES: C[N+](C)(C)C[C@@H](CC(=O)[O-])O
InChI: InChI=1S/C7H15NO3/c1-8(2,3)5-6(9)4-7(10)11/h6,9H,4-5H2,1-3H3/t6-/m1/s1
Instrument: X500R QTOF (AB Sciex LLC, USA)
Instrument type: ESI-QTOF
Ms type: MS2
Ion mode: POSITIVE
Collision energy: 20 V
Fragmentation mode: CID
Ionization: ESI
Precursor m/z: 162.11247
Precursor type: [M+H]+
m/z	relative intensity	assigned
43.0178	274	[C2H6O-3H]+
57.0336	42	[C3H8O-3H]+
60.0808	999	[C3H10N]+
85.0284	450	[C4H8O2-3H]+
102.0913	245	[C5H14NO-2H]+
103.0388	963	[C4H7O3]+
162.1122	735	[C7H15NO3+H]+
