Mass spectrum: Glc4; ESI-QQ; MS2; Negative; [M-H]-; CID; CE: 15 eV
Name: Glc4
Name: Isomaltosylmaltose
Name: Glc(a1-6)Glc(a1-4)Glc(a1-4)Glc
Class: Non-natural product.
Formula: C24H42O21
Exact mass: 666.221865
SMILES: O[C@@H]1[C@@H](O)[C@H](O)[C@@H](CO)O[C@@H]1OC[C@H]1O[C@H](O[C@@H]2[C@@H](CO)O[C@H](O[C@@H]3[C@@H](CO)OC(O)[C@H](O)[C@H]3O)[C@H](O)[C@H]2O)[C@H](O)[C@@H](O)[C@@H]1O
InChI: InChI=1S/C24H42O21/c25-1-5-9(28)11(30)16(35)22(41-5)39-4-8-10(29)12(31)17(36)23(43-8)45-20-7(3-27)42-24(18(37)14(20)33)44-19-6(2-26)40-21(38)15(34)13(19)32/h5-38H,1-4H2/t5-,6-,7-,8-,9-,10-,11+,12+,13-,14-,15-,16-,17-,18-,19-,20-,21?,22+,23-,24-/m1/s1
Instrument: Triple Quad 4500 (AB Sciex Pte. Ltd., USA)
Instrument type: LC-ESI-QQ
Ms type: MS2
Ion mode: NEGATIVE
Collision energy: 15 eV
Fragmentation mode: CID
Ionization: ESI
Precursor m/z: 665.214588
Precursor type: [M-H]-
m/z	relative intensity
100.8	13
101.16	6
112.9	4
142.5167	5
142.7	7
143.4	3
160.9646	87
178.8336	63
220.725	26
221	9
221.2125	20
250.9333	34
280.7911	21
281.2	14
310.975	3
322.6	9
323.0301	18
335.4	4
340.952	309
383.0061	28
424.9783	106
443.0575	37
443.5	8
455	2
503.0831	624
544.5	11
545.0912	113
586.4	3
587.088	89
605.1527	144
665.181	999
666.325	3
666.5	3
