Mass spectrum: 1-Octadecanoyl-sn-glycero-3-phosphocholine; MALDI-QITTOF; MS2; POSITIVE; [M+H]+; RID
Name: Lyso-PC 18:0
Name: 1-Octadecanoyl-sn-glycero-3-phosphocholine
Class: Natural product; Phospholipid
Formula: C26H54NO7P
Exact mass: 523.3638
SMILES: CCCCCCCCCCCCCCCCCC(=O)OC[C@H](COP(=O)([O-])OCC[N+](C)(C)C)O
InChI: InChI=1S/C26H54NO7P/c1-5-6-7-8-9-10-11-12-13-14-15-16-17-18-19-20-26(29)32-23-25(28)24-34-35(30,31)33-22-21-27(2,3)4/h25,28H,5-24H2,1-4H3/t25-/m1/s1
Instrument: MALDI-QITTOF noncommercial prototype model (Shimadzu Corporation, Kyoto, Japan)
Instrument type: MALDI-QITTOF
Ms type: MS2
Ion mode: POSITIVE
Fragmentation mode: RID
Ionization: MALDI
Ion type: [M+H]+
Precursor m/z: 524.3711
m/z	relative intensity
184.069	757
184.187	7
185.077	5
200.061	82
224.973	84
226.083	207
238.085	38
240.097	182
256.092	188
258.114	443
331.114	46
341.311	176
450.346	42
472.833	38
479.446	40
480.249	59
491.099	40
504.336	113
506.354	646
520.327	3
522.35	32
523.353	20
524.364	999
524.569	36
524.86	7
525.131	11
525.369	268
525.587	6
525.898	5
526.163	7
526.381	11
527.369	4
537.33	1
538.347	40
539.346	6
540.358	12
541.358	1
