Mass spectrum: rac-(S)-1-((2R,5R)-5-(Hydroxymethyl)tetrahydrofuran-2-yl)but-3-en-2-ol; GC-FI-TOF; MS; POSITIVE; FI; 10 kV
Name: rac-(S)-1-((2R,5R)-5-(Hydroxymethyl)tetrahydrofuran-2-yl)but-3-en-2-ol
Class: Non-natural compound
Formula: C9H16O3
Exact mass: 172.10995
SMILES: C=C[C@@H](O)C[C@H]1CC[C@H](CO)O1
InChI: InChI=1S/C9H16O3/c1-2-7(11)5-8-3-4-9(6-10)12-8/h2,7-11H,1,3-6H2/t7-,8-,9-/m1/s1
Instrument: JMS-T100GCV (JEOL, Akishima, Japan) coupled to Agilent 7890A gas chromatograph.
Instrument type: GC-FI-TOF
Ms type: MS
Ion mode: POSITIVE
Ionization: FI
Column name: ZB-1MS 7HM-G011-11 sn:313446, length 30.0 m, I.D. 0.32 mm, thickness 0.25 micrometer.
Retention time: 7.88 min.
m/z	relative intensity
31.019	81
56.026	31
57.035	43
69.053	14
71.05	20
78.058	66
87.045	8
101.061	116
114.068	9
116.085	37
123.08	26
141.092	999
142.096	95
143.097	9
154.099	175
155.104	30
171.103	35
172.111	135
173.118	694
174.121	79
345.225	22
