Mass spectrum: Citric acid-[1-13C]; GC-EI-QQ; MS2; POSITIVE; CID 10 V; 4 TBDMS-derivative; [M-189]+
Name: Citric acid-[1-13C]
Class: In vitro synthetic compound
Formula: C6H8O7
Exact mass: 192.02701
SMILES: OC(=O)CC(O)(CC(O)=O)C(O)=O
InChI: InChI=1S/C6H8O7/c7-3(8)1-6(13,5(11)12)2-4(9)10/h13H,1-2H2,(H,7,8)(H,9,10)(H,11,12)/i3+1
Instrument: GCMS-TQ8040 (Shimadzu, Kyoto, Japan)
Instrument type: GC-EI-QQ
Ms type: MS2
Ion mode: POSITIVE
Collision energy: 10 V
Fragmentation mode: CID
Column name: DB-5MS+DG (Agilent Technologies, Santa Clara, CA, USA)
Derivative form: C30H64O7Si4
Derivative mass: 648.37291
Derivative type: 4 TBDMS
Precursor m/z: 460.20825
m/z	relative intensity	assigned
67.15	33	
67.95	19	
73.1	715	
74.05	12	
95.85	10	
115.15	252	
147.1	999	
148.1	13	
189.15	104	
254.05	203	
300.05	28	C12(13C)H23O4Si2+
328.2	91	
330.5	13	
387.3	44	
388.15	23	
460.25	146	
