Mass spectrum: Triethanolamine; FAB-BE; MS; Positive; Matrix Triethanolamine
Name: Triethanolamine
Class: Non-Natural Product
Formula: C6H15NO3
Exact mass: 149.10519
SMILES: OCCN(CCO)CCO
InChI: InChI=1S/C6H15NO3/c8-4-1-7(2-5-9)3-6-10/h8-10H,1-6H2
Instrument: JMS-700, JEOL
Instrument type: FAB-BE
Ms type: MS
Ion mode: POSITIVE
Ionization: FAB
m/z	relative intensity
27	4
28	5
29	2
30	12
41	4
42	18
43	4
44	24
45	49
56	34
57	5
58	17
60	5
68	3
70	22
72	8
73	3
74	38
85	3
86	11
87	4
88	42
89	3
100	18
101	3
102	13
103	4
104	13
105	4
106	8
112	2
114	3
116	19
117	6
118	375
119	22
120	5
130	19
131	14
132	86
133	7
134	2
144	2
146	12
147	10
148	443
149	46
150	999
151	71
152	8
160	2
162	9
164	5
166	84
167	6
192	6
193	3
194	16
238	3
265	2
267	4
268	3
281	3
297	9
299	36
300	6
315	6
448	3
