Mass spectrum: L-(+)-Ergothioneine; ESI-QTOF; MS2; POSITIVE; [M+H]+; CID; 50 V
Name: L-(+)-Ergothioneine
Class: L-Histidine derivative
Formula: C9H15N3O2S
Exact mass: 229.08850
SMILES: C[N+](C)(C)[C@@H](CC1=CNC(=S)N1)C(=O)[O-]
InChI: InChI=1S/C9H15N3O2S/c1-12(2,3)7(8(13)14)4-6-5-10-9(15)11-6/h5,7H,4H2,1-3H3,(H2-,10,11,13,14,15)/t7-/m0/s1
Instrument: X500R QTOF (AB Sciex LLC, USA)
Instrument type: ESI-QTOF
Ms type: MS2
Ion mode: POSITIVE
Collision energy: 50 V
Fragmentation mode: CID
Ionization: ESI
Precursor m/z: 230.09576
Precursor type: [M+H]+
m/z	relative intensity	assigned
39.0231	197	[C3H6-3H]+
41.0387	584	[C3H6-H]+
42.034	237	
43.0418	167	
44.0496	141	[C2H5N+H]+
54.0342	145	[C3H7N-3H]+
56.0498	195	[C3H7N-H]+
60.0811	510	[C3H10N]+
67.0421	673	[C3H6N2-3H]+
68.0499	823	[C4H9N-3H]+
69.0578	999	[C3H6N2-H]+
94.0531	268	[C5H10N2-4H]+
