Mass spectrum: (2R,3S,5R)-5-(But-3-en-1-yl)-3-acetoxy-2-(acetoxymethyl)tetrahydrofuran; GC-EI-TOF; MS; POSITIVE; EI; 70 V
Name: (2R,3S,5R)-5-(But-3-en-1-yl)-3-acetoxy-2-(acetoxymethyl)tetrahydrofuran
Class: Non-natural compound
Formula: C13H20O5
Exact mass: 256.13108
SMILES: C=CCC[C@@H]1C[C@H](OC(C)=O)[C@@H](COC(C)=O)O1
InChI: InChI=1S/C13H20O5/c1-4-5-6-11-7-12(17-10(3)15)13(18-11)8-16-9(2)14/h4,11-13H,1,5-8H2,2-3H3/t11-,12+,13-/m1/s1
Instrument: JMS-T100GCV (JEOL, Akishima, Japan) coupled to Agilent 7890A gas chromatograph.
Instrument type: GC-EI-TOF
Ms type: MS
Ion mode: POSITIVE
Ionization: EI
Column name: ZB-1MS 7HM-G011-11 sn:313446, length 30.0 m, I.D. 0.32 mm, thickness 0.25 micrometer.
Retention time: 8.92 min.
m/z	relative intensity
27.023	18
28.006	12
28.031	4
29.003	7
29.039	19
31.018	5
31.99	7
39.023	33
40.031	5
41.039	94
42.011	12
42.045	9
43.018	999
43.055	14
43.341	3
43.565	2
43.805	1
44.022	26
44.068	1
45.034	6
53.039	23
54.047	30
55.018	25
55.055	56
56.025	3
56.06	4
57.034	32
58.04	3
60.021	3
61.029	14
65.039	6
66.046	7
67.055	119
67.122	1
68.026	7
68.06	14
69.034	24
69.069	4
70.041	16
71.013	3
71.049	14
73.029	18
74.036	3
77.039	11
78.045	3
79.055	74
80.062	75
81.034	420
81.069	38
82.039	35
82.076	5
83.049	18
83.086	4
84.056	4
85.029	2
86.037	3
87.045	4
91.054	10
92.062	4
93.07	33
94.042	135
95.048	26
95.086	79
95.164	1
96.055	4
96.089	7
97.029	4
97.065	5
98.037	2
98.072	2
99.044	14
100.052	7
101.023	5
103.04	12
105.07	31
106.074	3
107.049	16
108.056	5
109.064	2
111.081	3
112.052	4
113.06	7
115.041	2
117.068	3
118.077	3
121.066	3
123.081	45
124.085	5
135.08	6
136.088	25
137.096	16
138.1	2
141.091	45
142.095	4
153.055	4
154.099	80
154.194	1
155.103	9
183.102	59
184.106	7
196.11	4
201.077	2
