Mass spectrum: 2-[(1S,2S)-1,2-Dimethyl-3-methylenecyclopentyl]acetaldehyde; GC-FI-TOF; MS; positive; FI; 10 kV
Name: 2-[(1S,2S)-1,2-Dimethyl-3-methylenecyclopentyl]acetaldehyde
Class: Non-natural product
Formula: C10H16O
Exact mass: 152.12012
SMILES: C[C@H]1C(=C)CC[C@@]1(C)CC=O
InChI: InChI=1S/C10H16O/c1-8-4-5-10(3,6-7-11)9(8)2/h7,9H,1,4-6H2,2-3H3/t9-,10-/m0/s1
Instrument: JMS-T100GCV (JEOL, Akishima, Japan) coupled to Agilent 7890A (Agilent, Wilmington, USA) gas chromatograph.
Instrument type: GC-FI-TOF
Ms type: MS
Ion mode: POSITIVE
Ionization: FI
Column name: HP-5 19091 J-413 USD364547H (Agilent, Wilmington, USA), length 30.0 m, I.D. 0.32 mm, thickness 0.25 micrometer.
Retention time: 6.41 min.
m/z	relative intensity
108.095	204
152.120	999
153.126	277
