Mass spectrum: 3-((4-Methoxybenzyl)oxy)-2,2-dimethylcycloheptan-1-one; GC-FI-TOF; MS; positive; FI; 10 kV
Name: 3-((4-Methoxybenzyl)oxy)-2,2-dimethylcycloheptan-1-one
Class: Non-natural product
Formula: C17H24O3
Exact mass: 276.17255
SMILES: COC1=CC=C(COC2CCCCC(=O)C2(C)C)C=C1
InChI: InChI=1S/C17H24O3/c1-17(2)15(18)6-4-5-7-16(17)20-12-13-8-10-14(19-3)11-9-13/h8-11,16H,4-7,12H2,1-3H3
Instrument: JMS-T100GCV (JEOL, Akishima, Japan) coupled to Agilent 7890A (Agilent, Wilmington, USA) gas chromatograph.
Instrument type: GC-FI-TOF
Ms type: MS
Ion mode: POSITIVE
Ionization: FI
Column name: HP-5 19091 J-413 USD364547H (Agilent, Wilmington, USA), length 30.0 m, I.D. 0.32 mm, thickness 0.25 micrometer.
Retention time: 11.02 min.
m/z	relative intensity
46.542	21
137.055	41
140.111	42
178.085	59
276.173	999
276.351	22
277.177	169
278.168	29
