Mass spectrum: trimethyl(4-((2-methyloctyl)thio)butyl)silane; GC-EI-TOF; MS; POSITIVE; EI; 70 V
Name: trimethyl(4-((2-methyloctyl)thio)butyl)silane
Class: Non-natural compound
Formula: C16H36SSi
Exact mass: 288.2307
SMILES: CCCCCCC(C)CSCCCC[Si](C)(C)C
InChI: InChI=1S/C16H36SSi/c1-6-7-8-9-12-16(2)15-17-13-10-11-14-18(3,4)5/h16H,6-15H2,1-5H3
Instrument: JMS-T100GCV (JEOL, Akishima, Japan) coupled to Agilent 7890A gas chromatograph.
Instrument type: GC-EI-TOF
Ms type: MS
Ion mode: POSITIVE
Ionization: EI
Column name: HP-5 30x0.32 0.25um 19091J-413, length 30.0 m, I.D. 0.32 mm, thickness 0.25 micrometer.
Retention time: 9.8 min.
m/z	relative intensity
27.024	15
28.006	15
28.032	3
28.985	4
29.04	54
31.001	5
31.99	9
39.024	11
41.04	117
41.092	1
42.047	19
43.001	20
43.055	193
44.009	10
44.059	7
44.98	6
45.017	54
45.988	4
46.017	3
46.996	11
53.04	7
54.048	6
55.001	3
55.055	105
56.063	59
57.017	5
57.071	110
57.131	1
58.025	21
58.075	5
58.996	4
59.032	53
60.004	9
60.033	4
61.012	31
67.056	11
68.063	6
69.071	78
70.079	34
71.032	8
71.087	80
72.04	13
72.09	5
73.012	3
73.048	999
73.47	3
73.757	2
74.049	80
74.973	9
75.045	35
76.989	12
81.071	4
82.079	6
83.087	33
84.094	25
85.048	14
85.102	40
86.055	8
86.106	3
87.028	5
88.036	5
89.043	37
89.996	5
91.004	72
91.055	9
92.005	6
93.001	5
97.048	10
97.102	18
98.109	12
99.064	9
100.071	7
101.043	6
103.004	5
103.058	5
104.063	3
105.02	11
106.027	10
107.035	17
108.034	2
111.118	5
113.079	415
114.081	46
115.077	15
117.02	7
117.071	4
119.036	18
120.041	4
121.033	2
125.133	3
126.141	20
127.147	3
128.103	30
129.107	5
131.036	22
132.04	3
133.043	2
145.052	7
147.067	163
148.069	20
149.064	13
158.113	4
159.122	41
160.125	5
161.083	68
162.089	27
163.085	8
164.086	3
173.138	2
175.099	6
187.153	2
203.13	3
215.184	220
215.387	1
216.188	33
217.181	11
231.161	29
232.164	7
233.175	12
234.177	2
273.207	242
274.21	53
275.206	23
276.208	4
287.225	3
288.231	71
288.366	1
289.233	17
290.229	7
