Mass spectrum: Tetrabromobisphenol A; ESI-QTOF; MS2; NEGATIVE; [M-H]-; CID; 40 V
Name: Tetrabromobisphenol A
Class: Non-natural product; Bromobisphenol
Formula: C15H12Br4O2
Exact mass: 539.75708
SMILES: CC(C)(C1=CC(=C(C(=C1)Br)O)Br)C2=CC(=C(C(=C2)Br)O)Br
InChI: InChI=1S/C15H12Br4O2/c1-15(2,7-3-9(16)13(20)10(17)4-7)8-5-11(18)14(21)12(19)6-8/h3-6,20-21H,1-2H3
Instrument: X500R QTOF (AB Sciex LLC, USA)
Instrument type: ESI-QTOF
Ms type: MS2
Ion mode: NEGATIVE
Collision energy: 40 V
Fragmentation mode: CID
Ionization: ESI
Precursor m/z: 542.74571
Precursor type: [M-H]-
m/z	relative intensity
78.9194	126
80.9174	132
288.8899	44
290.888	179
291.8914	42
292.8859	50
417.8076	215
418.8111	57
419.8056	222
420.8091	55
445.8029	278
446.8074	180
447.8013	317
448.8055	182
527.7282	91
542.7512	999
