Mass spectrum: 3-O-Acetyl-16alpha-hydroxydehydrotrametenolic acid; ESI-QTOF; MS2; POSITIVE; [M+H]+; CID; 50 V
Name: 3-O-Acetyl-16alpha-hydroxydehydrotrametenolic acid
Class: Non-natural product
Formula: C32H48O5
Exact mass: 512.35018
SMILES: CC(=CCC[C@H]([C@H]1[C@@H](C[C@@]2([C@@]1(CC=C3C2=CC[C@@H]4[C@@]3(CC[C@@H](C4(C)C)OC(=O)C)C)C)C)O)C(=O)O)C
InChI: InChI=1S/C32H48O5/c1-19(2)10-9-11-21(28(35)36)27-24(34)18-32(8)23-12-13-25-29(4,5)26(37-20(3)33)15-16-30(25,6)22(23)14-17-31(27,32)7/h10,12,14,21,24-27,34H,9,11,13,15-18H2,1-8H3,(H,35,36)/t21-,24-,25+,26+,27+,30-,31-,32+/m1/s1
Instrument: X500R QTOF (AB Sciex LLC, USA)
Instrument type: ESI-QTOF
Ms type: MS2
Ion mode: POSITIVE
Collision energy: 50 V
Fragmentation mode: CID
Ionization: ESI
Precursor m/z: 513.35745
Precursor type: [M+H]+
m/z	relative intensity
55.0556	48
67.0557	37
69.0714	51
79.0559	41
81.0715	78
83.0872	41
91.0559	60
93.0716	120
95.0872	153
105.0716	90
107.0872	170
109.1029	91
119.0872	169
121.1029	125
123.1185	46
131.0872	120
133.1029	124
135.1185	81
143.0873	112
145.1029	314
147.1185	86
155.0873	80
157.1029	239
159.1186	250
161.1343	51
169.103	166
170.1108	42
171.1186	236
172.1264	33
173.1342	146
181.103	94
182.1109	35
183.1186	241
184.1265	74
185.1343	254
187.15	104
195.1187	159
196.1266	41
197.1343	237
198.1422	42
199.15	161
201.1656	85
208.1265	50
209.1343	218
210.1422	112
211.15	220
213.1658	72
221.1344	50
223.15	472
224.1579	51
225.1657	285
226.1735	35
227.1814	42
235.1501	109
236.158	32
237.1657	329
238.1736	36
239.1814	109
241.1971	112
249.1658	64
250.1736	97
251.1813	279
253.1971	105
263.1813	203
264.1893	37
265.197	61
278.2048	683
279.2125	263
293.228	999
294.236	132
339.2335	68
353.2491	394
354.257	34
