Mass spectrum: (3S,4R)-3,4-Epoxy-7-octene; GC-FI-TOF; MS; positive; FI; 10 kV
Name: (3S,4R)-3,4-Epoxy-7-octene
Class: Non-natural product
Formula: C8H14O
Exact mass: 126.10447
SMILES: CC[C@@H]1O[C@@H]1CCC=C
InChI: InChI=1S/C8H14O/c1-3-5-6-8-7(4-2)9-8/h3,7-8H,1,4-6H2,2H3/t7-,8+/m0/s1
Instrument: JMS-T100GCV (JEOL, Akishima, Japan) coupled to Agilent 7890A (Agilent, Wilmington, USA) gas chromatograph.
Instrument type: GC-FI-TOF
Ms type: MS
Ion mode: POSITIVE
Ionization: FI
Column name: HP-5 19091 J-413 USD364547H (Agilent, Wilmington, USA), length 30.0 m, I.D. 0.32 mm, thickness 0.25 micrometer.
Retention time: 4.13 min.
m/z	relative intensity
41.039	60
70.040	30
84.062	25
85.064	131
97.066	92
98.072	41
109.101	28
111.080	999
111.166	23
112.084	102
125.094	32
126.104	215
127.106	40
