Mass spectrum: 3,8-Diamino-6-phenylphenanthridine; ESI-QQ; MS2; [M+H]+, CID, CE 15 V
Name: 3,8-Diamino-6-phenylphenanthridine
Class: Non-natural product
Formula: C19H15N3
Exact mass: 285.12659
SMILES: c1ccc(cc1)c2c3cc(ccc3c4ccc(cc4n2)N)N
InChI: InChI=1S/C19H15N3/c20-13-6-8-15-16-9-7-14(21)11-18(16)22-19(17(15)10-13)12-4-2-1-3-5-12/h1-11H,20-21H2
Instrument: LCMS-8045 (Shimadzu, Kyoto, Japan)
Instrument type: LC-ESI-QQ
Ms type: MS2
Ion mode: POSITIVE
Collision energy: 15 V
Fragmentation mode: CID
Ionization: ESI
Precursor m/z: 286.13386
Precursor type: [M+H]+
m/z	relative intensity
55.4	98
63.7	98
83.1	98
91.15	98
95.2	196
110.7	98
113.3	98
120.7	98
131.15	98
139.4	196
142.2	98
153	98
158.6	98
162.85	940
181.1	255
186.7	588
189.9	372
190.7	588
191.9	176
197.2	98
203.7	588
208.2	999
212.95	118
222.2	235
222.9	98
226.3	196
227.8	98
238.8	98
241.3	98
245.1	509
251.3	235
254.2	176
269.1	235
