Mass spectrum: (3S)-3-((tert-Butyldimethylsilyl)oxy)nona-1,8-dien-5-ol; GC-FI-TOF; MS; POSITIVE; FI; 10 kV
Name: (3S)-3-((tert-Butyldimethylsilyl)oxy)nona-1,8-dien-5-ol
Class: Non-natural compound
Formula: C15H30O2Si
Exact mass: 270.20151
SMILES: C=CCCC(O)C[C@@H](C=C)O[Si](C)(C)C(C)(C)C
InChI: InChI=1S/C15H30O2Si/c1-8-10-11-13(16)12-14(9-2)17-18(6,7)15(3,4)5/h8-9,13-14,16H,1-2,10-12H2,3-7H3/t13?,14-/m1/s1
Instrument: JMS-T100GCV (JEOL, Akishima, Japan) coupled to Agilent 7890A gas chromatograph.
Instrument type: GC-FI-TOF
Ms type: MS
Ion mode: POSITIVE
Ionization: FI
Column name: ZB-1MS 7HM-G011-11 sn:313446, length 30.0 m, I.D. 0.32 mm, thickness 0.25 micrometer.
Retention time: 8.65 min.
m/z	relative intensity
57.072	14
58.079	1
115.095	4
121.099	3
131.052	2
132.098	1
159.086	3
169.106	1
171.121	3
213.131	999
213.655	2
213.858	3
214.134	163
214.894	2
215.131	48
215.248	1
215.4	1
215.912	1
215.994	1
216.041	1
216.134	5
217.13	1
270.204	1
271.208	19
272.211	4
273.208	1
