Mass spectrum: Poricoic acid B; ESI-QTOF; MS2; POSITIVE; [M+H]+; CID; 20 V
Name: Poricoic acid B
Class: Non-natural product
Formula: C30H44O5
Exact mass: 484.31888
SMILES: CC(=CCC[C@H]([C@H]1[C@@H](C[C@@]2([C@@]1(CC=C3C2=CC[C@H]([C@]3(C)CCC(=O)O)C(=C)C)C)C)O)C(=O)O)C
InChI: InChI=1S/C30H44O5/c1-18(2)9-8-10-20(27(34)35)26-24(31)17-30(7)23-12-11-21(19(3)4)28(5,15-14-25(32)33)22(23)13-16-29(26,30)6/h9,12-13,20-21,24,26,31H,3,8,10-11,14-17H2,1-2,4-7H3,(H,32,33)(H,34,35)/t20-,21+,24-,26+,28+,29-,30+/m1/s1
Instrument: X500R QTOF (AB Sciex LLC, USA)
Instrument type: ESI-QTOF
Ms type: MS2
Ion mode: POSITIVE
Collision energy: 20 V
Fragmentation mode: CID
Ionization: ESI
Precursor m/z: 485.326152
Precursor type: [M+H]+
m/z	relative intensity
211.1494	35
219.1391	16
235.1705	21
255.1756	13
265.1599	47
267.1755	87
283.1704	32
289.1962	20
307.2066	180
325.2168	630
353.2481	79
379.2636	27
389.2479	50
403.2997	23
407.2584	143
413.2842	31
421.3103	34
425.2689	72
431.2946	229
449.3047	999
467.3155	522
485.3257	68
