Mass spectrum: Cyanoguanidine; ESI-QTOF; MS2; ESI; POSITIVE; [M+H]+; CE 60 V
Name: Cyanoguanidine
Class: Non-natural product
Formula: C2H4N4
Exact mass: 84.04358
SMILES: N#CNC(=N)N
InChI: InChI=1S/C2H4N4/c3-1-6-2(4)5/h(H4,4,5,6)
Instrument: X500R QTOF (AB Sciex LLC, USA)
Instrument type: ESI-QTOF
Ms type: MS2
Ion mode: POSITIVE
Collision energy: 60 V
Ionization: ESI
Precursor m/z: 85.05086
Precursor type: [M+H]+
m/z	relative intensity
27.0122	34
28.02	221
29.0153	140
41.0156	263
42.0234	166
43.0074	29
43.0312	999
44.0391	63
68.0267	83
