Mass spectrum: Tralkoxydim; LC-ESI-QTOF; MS2; ESI; NEGATIVE; [M-H]-; CE 60 V
Name: Tralkoxydim
Class: Non-natural product
Formula: C20H27NO3
Exact mass: 329.19909
SMILES: CCON=C(CC)C1=C(O)CC(c2c(C)cc(C)cc2C)CC1=O
InChI: InChI=1S/C20H27NO3/c1-6-16(21-24-7-2)20-17(22)10-15(11-18(20)23)19-13(4)8-12(3)9-14(19)5/h8-9,15,22H,6-7,10-11H2,1-5H3
Instrument: ExionLC AD, AB Sciex LLC, USA; X500R QTOF, AB Sciex LLC, USA.
Instrument type: LC-ESI-QTOF
Ms type: MS2
Ion mode: NEGATIVE
Collision energy: 60 V
Ionization: ESI
Column name: AQ-C18HP 3 microm, 2.1 mm Ã— 150 mm, GL Science (Tokyo Japan)
Retention time: 11.25, 11.54 min
Precursor m/z: 328.19181
Precursor type: [M-H]-
m/z	relative intensity
40.0187	227
41.0027	226
65.9979	496
120.0088	238
121.0162	88
134.0242	594
171.0812	371
194.0971	204
212.1079	321
254.1187	999
