Mass spectrum: Baicalein; ESI-ITTOF; MS; Negative
Name: Baicalein
Class: Natural Product; Flavones
Formula: C15H10O5
Exact mass: 270.05282
SMILES: C1=CC=C(C=C1)C2=CC(=O)C3=C(O2)C=C(C(=C3O)O)O
InChI: InChI=1S/C15H10O5/c16-9-6-11(8-4-2-1-3-5-8)20-12-7-10(17)14(18)15(19)13(9)12/h1-7,17-19H
Instrument: LC-IT-TOF (Shimadzu)
Instrument type: ESI-ITTOF
Ms type: MS
Ion mode: NEGATIVE
Ionization: ESI
m/z	relative intensity
269.0449	999
270.0397	87
