Mass spectrum: (2R,3S)-(-)-Methyl syn-2,3-dihydroxyoctanoate; GC-EI-TOF; MS; positive; EI; 70 V
Name: (2R,3S)-(-)-Methyl syn-2,3-dihydroxyoctanoate
Class: Non-natural compound
Formula: C9H18O4
Exact mass: 190.12051
SMILES: O[C@@H](CCCCC)[C@@H](O)C(=O)OC
InChI: InChI=1S/C9H18O4/c1-3-4-5-6-7(10)8(11)9(12)13-2/h7-8,10-11H,3-6H2,1-2H3/t7-,8+/m0/s1
Instrument: JMS-T100GCV (JEOL, Akishima, Japan) coupled to Agilent 7890A (Agilent, Wilmington, USA) gas chromatograph.
Instrument type: GC-EI-TOF
Ms type: MS
Ion mode: POSITIVE
Ionization: EI
Column name: HP-5 19091 J-413 USD364547H (Agilent, Wilmington, USA), length 30 m, I.D. 0.32 mm, thickness 0.25 micrometer.
Retention time: 7.55 min.
m/z	relative intensity
26.016	2
27.024	66
27.995	3
28.031	13
29.003	62
29.04	102
29.084	2
30.011	10
30.044	3
31.019	50
32.026	3
33.034	100
33.081	1
39.024	39
40.031	6
41.04	139
41.09	2
42.011	20
42.046	11
43.019	40
43.055	63
44.027	24
44.059	2
44.998	4
45.034	24
47.014	5
51.024	2
53.04	10
54.047	2
55.019	13
55.055	144
55.116	2
56.026	5
56.061	12
57.034	40
57.071	14
58.006	27
58.04	3
59.014	35
59.05	4
60.021	38
61.029	8
62.037	8
63.045	9
65.039	2
67.055	8
68.062	2
69.034	3
69.071	18
71.013	4
71.05	4
71.086	3
73.029	12
74.037	3
75.008	32
79.055	2
81.071	3
83.05	3
83.086	58
84.09	4
87.045	3
89.025	3
90.032	999
90.109	9
90.372	2
90.499	3
90.817	2
91.036	41
91.546	1
92.037	6
93.07	3
95.086	19
96.09	2
97.065	1
99.045	2
101.06	2
101.097	16
113.097	3
119.034	17
131.107	19
132.11	2
146.041	1
