Mass spectrum: Glycitin; ESI-QTOF; MS2; NEGATIVE; [M-H]-; CID; 40 V
Name: Glycitin
Class: Natural product; Hydroxyisoflavone
Formula: C22H22O10
Exact mass: 446.12130
SMILES: COC1=C(C=C2C(=C1)C(=O)C(=CO2)C3=CC=C(C=C3)O)O[C@H]4[C@@H]([C@H]([C@@H]([C@H](O4)CO)O)O)O
InChI: InChI=1S/C22H22O10/c1-29-15-6-12-14(30-9-13(18(12)25)10-2-4-11(24)5-3-10)7-16(15)31-22-21(28)20(27)19(26)17(8-23)32-22/h2-7,9,17,19-24,26-28H,8H2,1H3/t17-,19-,20+,21-,22-/m1/s1
Instrument: X500R QTOF (AB Sciex LLC, USA)
Instrument type: ESI-QTOF
Ms type: MS2
Ion mode: NEGATIVE
Collision energy: 40 V
Fragmentation mode: CID
Ionization: ESI
Precursor m/z: 445.11402
Precursor type: [M-H]-
m/z	relative intensity
240.0429	96
267.0302	59
268.0376	999
282.0536	139
283.0612	426
