Mass spectrum: Poricoic acid B; ESI-QTOF; MS2; NEGATIVE; [M-H]-; CID; 60 V
Name: Poricoic acid B
Class: Non-natural product
Formula: C30H44O5
Exact mass: 484.31888
SMILES: CC(=CCC[C@H]([C@H]1[C@@H](C[C@@]2([C@@]1(CC=C3C2=CC[C@H]([C@]3(C)CCC(=O)O)C(=C)C)C)C)O)C(=O)O)C
InChI: InChI=1S/C30H44O5/c1-18(2)9-8-10-20(27(34)35)26-24(31)17-30(7)23-12-11-21(19(3)4)28(5,15-14-25(32)33)22(23)13-16-29(26,30)6/h9,12-13,20-21,24,26,31H,3,8,10-11,14-17H2,1-2,4-7H3,(H,32,33)(H,34,35)/t20-,21+,24-,26+,28+,29-,30+/m1/s1
Instrument: X500R QTOF (AB Sciex LLC, USA)
Instrument type: ESI-QTOF
Ms type: MS2
Ion mode: NEGATIVE
Collision energy: 60 V
Fragmentation mode: CID
Ionization: ESI
Precursor m/z: 483.31160
Precursor type: [M-H]-
m/z	relative intensity
43.0184	86
57.034	13
67.0547	27
69.034	20
71.0132	127
73.0289	96
83.0497	18
97.0291	9
97.0655	8
135.1176	12
137.0969	9
139.1125	31
179.1439	16
183.1176	14
185.1333	52
197.1333	54
199.1126	55
199.1488	12
211.1487	528
213.1281	239
213.164	41
214.1353	17
215.144	69
225.1283	19
247.1493	31
249.1649	20
253.1599	20
263.1807	25
267.1757	22
277.1964	41
279.212	64
293.1914	29
295.2071	33
317.2278	60
319.2434	25
321.2591	21
331.2434	21
333.2226	206
333.2567	35
334.2301	34
335.2384	24
347.2387	25
347.2746	54
349.2539	204
363.2336	21
363.2695	34
365.2852	121
377.2126	43
395.2595	49
409.2746	999
410.2787	63
