Mass spectrum: Bensulfuron-methyl; ESI-QTOF; MS2; NEGATIVE; [M-H]-; CID; 30 V
Name: Bensulfuron-methyl
Class: Non-natural product
Formula: C16H18N4O7S
Exact mass: 410.0896
SMILES: COc1cc(nc(n1)NC(=O)NS(=O)(=O)Cc2ccccc2C(=O)OC)OC
InChI: InChI=1S/C16H18N4O7S/c1-25-12-8-13(26-2)18-15(17-12)19-16(22)20-28(23,24)9-10-6-4-5-7-11(10)14(21)27-3/h4-8H,9H2,1-3H3,(H2,17,18,19,20,22)
Instrument: X500R QTOF (AB Sciex LLC, USA)
Instrument type: ESI-QTOF
Ms type: MS2
Ion mode: NEGATIVE
Collision energy: 30 V
Fragmentation mode: CID
Ionization: ESI
Precursor m/z: 409.0823
Precursor type: [M-H]-
m/z	relative intensity
41.9982	108
102.0346	41
122.0356	44
132.0451	107
154.0618	999
196.0071	287
