Mass spectrum: Malic acid-[4-13C]; GC-EI-QQ; MS2; POSITIVE; CID 5 V; 3 TBDMS-derivative; [M-159]+
Name: Malic acid-[4-13C]
Class: In vitro synthetic compound
Formula: C4H6O5
Exact mass: 134.02153
SMILES: C(C(C(=O)O)O)C(=O)O
InChI: InChI=1S/C4H6O5/c5-2(4(8)9)1-3(6)7/h2,5H,1H2,(H,6,7)(H,8,9)/i3+1
Instrument: GCMS-TQ8040 (Shimadzu, Kyoto, Japan)
Instrument type: GC-EI-QQ
Ms type: MS2
Ion mode: POSITIVE
Collision energy: 5 V
Fragmentation mode: CID
Column name: DB-5MS+DG (Agilent Technologies, Santa Clara, CA, USA)
Derivative form: C22H48O5Si3
Derivative mass: 476.28096
Derivative type: 3 TBDMS
Precursor m/z: 318.19963
m/z	relative intensity	assigned
73	53	
115.05	999	
133.1	15	
160.1	12	
186.1	60	
247.1	20	
273.25	417	
318.3	461	C14(13C)H33O3Si2+
