Mass spectrum: (2R,5R)-2-((S)-2-acetoxybut-3-en-1-yl)-5-(acetoxymethyl)tetrahydrofuran; GC-EI-TOF; MS; POSITIVE; EI; 70 V
Name: (2R,5R)-2-((S)-2-acetoxybut-3-en-1-yl)-5-(acetoxymethyl)tetrahydrofuran
Class: Non-natural compound
Formula: C13H20O5
Exact mass: 256.13108
SMILES: C=C[C@H](C[C@H]1CC[C@H](COC(C)=O)O1)OC(C)=O
InChI: InChI=1S/C13H20O5/c1-4-11(17-10(3)15)7-12-5-6-13(18-12)8-16-9(2)14/h4,11-13H,1,5-8H2,2-3H3/t11-,12-,13-/m1/s1
Instrument: JMS-T100GCV (JEOL, Akishima, Japan) coupled to Agilent 7890A gas chromatograph.
Instrument type: GC-EI-TOF
Ms type: MS
Ion mode: POSITIVE
Ionization: EI
Column name: ZB-1MS 7HM-G011-11 sn:313446, length 30.0 m, I.D. 0.32 mm, thickness 0.25 micrometer.
Retention time: 9.01 min.
m/z	relative intensity
27.023	23
28.006	10
28.031	10
29.003	9
29.039	22
31.018	7
31.99	6
39.023	29
40.031	4
41.039	56
42.011	16
42.046	9
43.018	999
43.055	13
43.342	3
43.565	2
43.8	1
43.834	1
44.023	26
44.061	1
45.032	4
51.024	3
52.031	3
53.039	23
54.047	56
55.018	53
55.055	82
55.116	1
56.025	11
56.061	7
57.034	38
57.07	2
58.041	7
61.029	23
65.039	7
66.047	12
67.055	60
68.026	7
68.06	7
69.034	87
69.069	3
70.041	14
71.049	13
72.057	10
73.029	7
74.037	5
77.039	18
78.046	10
79.054	371
80.061	56
80.129	1
81.034	41
81.07	35
82.041	35
83.049	135
84.055	12
85.028	3
85.064	3
86.036	6
87.044	26
91.054	10
92.062	5
93.07	38
94.042	5
94.077	13
95.049	19
95.086	154
96.057	34
96.089	12
97.064	11
98.072	5
99.044	27
100.051	6
101.06	16
103.042	3
105.07	34
106.073	3
107.049	4
107.085	2
108.057	4
109.064	3
110.073	3
114.068	4
117.069	3
118.077	5
121.065	7
123.081	54
124.084	5
129.055	2
135.081	3
136.088	23
137.094	5
140.083	3
141.09	2
143.071	95
143.158	1
144.074	8
153.091	4
154.098	3
156.079	3
183.102	75
183.208	1
184.105	9
196.11	24
197.116	5
