Mass spectrum: 2-(4-Methylphenyl)ethylamine; LC-ESI-QQ; MS2; POSITIVE; [M+H-NH3]+; CID; 20 V
Name: 2-(4-Methylphenyl)ethylamine
Class: Non-natural product; Phenethylamine
Formula: C9H13N
Exact mass: 135.10480
SMILES: CC1=CC=C(C=C1)CCN
InChI: InChI=1S/C9H13N/c1-8-2-4-9(5-3-8)6-7-10/h2-5H,6-7,10H2,1H3
Instrument: Xevo TQS micro (Waters, MA, USA) coupled to ACQUITY UPLC H-Class (Waters, MA, USA)
Instrument type: LC-ESI-QQ
Ms type: MS2
Ion mode: POSITIVE
Collision energy: 20 V
Fragmentation mode: CID
Ionization: ESI
Column name: Acquity UPLC BEH AMIDE column (1.7 Âµm, 2.1 x 150 mm; Waters, MA, USA)
Precursor m/z: 119.08553
Precursor type: [M+H-NH3]+
m/z	relative intensity
30.2	6
38	6
38.7	11
39.2	8
40.6	101
41	268
41.4	33
42	29
42.2	6
42.6	10
42.9	14
43.2	24
43.9	11
46.2	25
46.6	12
48.2	8
48.4	5
50	7
50.8	11
50.9	19
51.1	7
52.4	6
52.9	11
53.2	3
54.9	5
57	9
57.3	6
57.6	8
57.8	5
59.3	5
59.7	7
60.2	23
63.1	9
64.4	12
64.9	284
65.3	67
67.1	46
67.7	10
67.9	7
68.2	5
68.9	7
69.2	9
71.5	6
71.7	5
71.9	16
72.1	16
73.3	6
74.7	8
76.6	110
76.8	331
77.2	405
77.4	80
77.6	46
78	94
78.3	84
78.6	29
78.8	38
79.1	65
89.4	9
89.9	6
90.4	22
90.7	691
91	999
91.2	702
92.6	7
92.9	44
93.1	45
95.7	6
98.1	6
101.8	27
102.2	20
102.5	49
102.7	63
102.9	93
103.1	176
103.4	69
103.6	70
104	345
104.3	113
108.7	8
109.5	7
109.7	7
112.4	11
112.6	7
113.1	22
113.6	10
114.5	15
114.7	36
114.9	51
115.1	115
115.3	39
116.1	9
116.4	5
116.6	52
116.8	124
117.1	161
117.2	149
118.3	11
118.6	66
118.9	41
119.2	121
