Mass spectrum: 2-Aminoisobutyric acid; GC-EI-TOF; MS; POSITIVE; EI; 70 V; 2TMS
Name: 2-Aminoisobutyric acid
Class: Non-natural compound
Formula: C4H9NO2
Exact mass: 103.0633285
SMILES: CC(C)(N)C(=O)O
InChI: InChI=1S/C4H9NO2/c1-4(2,5)3(6)7/h5H2,1-2H3,(H,6,7)
Instrument: JMS-T100GCV (JEOL, Akishima, Japan) coupled to Agilent 7890A (Santa Clara, CA, USA) gas chromatograph.
Instrument type: GC-EI-TOF
Ms type: MS
Ion mode: POSITIVE
Ionization: EI
Column name: DB-5MS UI 122-5532UI US0462866H (Agilent, Wilmington, USA) with the length 30 m, I.D. 0.25 mm, and thickness 0.25 micrometer.
Retention time: 7.05 min.
Derivative form: C10H25NO2Si2
Derivative mass: 247.14238
Derivative type: 2TMS
m/z	relative intensity
28.006	4
28.985	4
41.04	6
42.035	11
43.001	17
44.008	10
44.98	5
45.016	55
46.016	4
46.996	5
55.0	2
57.016	4
58.024	8
58.066	7
59.032	23
60.029	4
61.012	3
66.022	4
70.021	2
71.031	2
72.04	8
73.048	433
73.438	1
74.048	42
75.028	29
75.093	1
76.025	4
77.024	3
84.027	3
86.536	2
94.551	5
98.043	3
100.058	13
100.531	3
101.037	9
101.536	2
103.022	9
108.548	4
114.074	45
115.002	2
115.079	8
116.062	3
117.021	3
126.038	2
129.098	3
130.105	999
130.669	3
131.035	9
131.107	122
131.497	2
132.031	4
132.103	39
133.05	8
133.105	3
134.052	2
142.069	14
143.055	5
144.052	3
146.082	4
147.066	96
148.067	16
149.064	8
175.059	2
188.093	2
204.124	53
205.125	11
206.122	5
232.119	17
233.121	4
234.12	2
