Mass spectrum: Fumaric acid; GC-EI-QQ; MS2; POSITIVE; CID 10 V; 2 TBDMS-derivative; [M-57]+
Name: Fumaric acid
Class: Natural product
Formula: C4H4O4
Exact mass: 116.01096
SMILES: O=C(O)/C=C/C(=O)O
InChI: InChI=1S/C4H4O4/c5-3(6)1-2-4(7)8/h1-2H,(H,5,6)(H,7,8)/b2-1+
Instrument: GCMS-TQ8040 (Shimadzu, Kyoto, Japan)
Instrument type: GC-EI-QQ
Ms type: MS2
Ion mode: POSITIVE
Collision energy: 10 V
Fragmentation mode: CID
Column name: DB-5MS+DG (Agilent Technologies, Santa Clara, CA, USA)
Derivative form: C16H32O4Si2
Derivative mass: 344.18391
Derivative type: 2 TBDMS
Precursor m/z: 287.11294
m/z	relative intensity	assigned
73.1	454	
75.05	19	
99.05	14	
115.1	12	
127.05	13	
129.05	10	
133.05	27	
147.1	220	
149.1	16	
155.05	14	
171.05	21	
173.1	20	
217.1	15	
230.05	86	
245.05	245	
259.15	39	
287.1	999	C12H23O4Si2+
