Mass spectrum: Lufenuron; LC-ESI-QTOF; MS2; ESI; NEGATIVE; [M-H]-; CE 30 V
Name: Lufenuron
Class: Non-natural product
Formula: C17H8Cl2F8N2O3
Exact mass: 509.97842
SMILES: O=C(NC(=O)c1c(F)cccc1F)Nc1cc(Cl)c(OC(F)(F)C(F)C(F)(F)F)cc1Cl
InChI: InChI=1S/C17H8Cl2F8N2O3/c18-6-5-11(32-17(26,27)14(22)16(23,24)25)7(19)4-10(6)28-15(31)29-13(30)12-8(20)2-1-3-9(12)21/h1-5,14H,(H2,28,29,30,31)
Instrument: ExionLC AD, AB Sciex LLC, USA; X500R QTOF, AB Sciex LLC, USA.
Instrument type: LC-ESI-QTOF
Ms type: MS2
Ion mode: NEGATIVE
Collision energy: 30 V
Ionization: ESI
Column name: AQ-C18HP 3 microm, 2.1 mm Ã— 150 mm, GL Science (Tokyo Japan)
Retention time: 15.4 min
Precursor m/z: 508.97114
Precursor type: [M-H]-
m/z	relative intensity
34.9689	30
41.9981	63
146.9871	30
156.0264	20
174.9588	202
201.9458	336
257.9996	36
285.9448	35
302.9972	110
305.9516	42
325.956	999
338.9726	759
350.9528	144
452.9874	98
