Mass spectrum: Halocynthiaxanthin; LC-ESI-QTOF; MS2; POSITIVE; [M+H]+; CID; CE 20 V
Name: Halocynthiaxanthin
Class: Natural product; carotenoids; xanthophyll
Formula: C40H54O4
Exact mass: 598.4022
SMILES: CC1=C(C(C[C@@H](C1)O)(C)C)C#C/C(=C/C=C/C(=C/C=C/C=C(\C)/C=C/C=C(\C)/C(=O)C[C@]23[C@](O2)(C[C@H](CC3(C)C)O)C)/C)/C
InChI: InChI=1S/C40H54O4/c1-28(17-13-18-30(3)21-22-35-32(5)23-33(41)24-37(35,6)7)15-11-12-16-29(2)19-14-20-31(4)36(43)27-40-38(8,9)25-34(42)26-39(40,10)44-40/h11-20,33-34,41-42H,23-27H2,1-10H3/b12-11+,17-13+,19-14+,28-15+,29-16+,30-18+,31-20+/t33-,34+,39-,40+/m1/s1
Instrument: Xevo G2-S QtOF, Waters (USA) coupled to ACQUITY UPLC, Waters (USA).
Instrument type: LC-ESI-QTOF
Ms type: MS2
Ion mode: POSITIVE
Collision energy: 20 V
Fragmentation mode: CID
Ionization: ESI
Column name: BEH C18, I.D. 2.1 mm, length 100 mm, thickness 1.7 micrometer.
m/z	relative intensity
109.0875	999
110.0907	57
119.0706	33
121.087	32
127.0971	24
133.0867	32
135.066	33
137.0817	26
145.0871	25
147.0664	85
155.0924	47
157.0869	39
159.0665	32
161.0829	20
171.1022	34
173.1185	35
179.0924	31
183.1029	36
191.1295	34
195.1019	23
197.1185	38
199.1345	23
207.1035	30
209.1186	39
217.1454	28
221.1186	29
223.1335	25
235.1339	31
247.1352	20
263.1631	30
269.1756	22
277.1815	23
281.1795	21
283.1934	37
337.205	26
347.2261	20
355.2307	36
373.2423	40
411.2603	31
429.2723	79
507.3395	21
581.3928	26
599.4103	164
600.4117	53
