Mass spectrum: Diallate; LC-ESI-QTOF; MS2; ESI; POSITIVE; [M+H]+ Isotopolog ion; CE 20 V
Name: Diallate
Class: Non-natural product
Formula: C10H17Cl2NOS
Exact mass: 269.04079
SMILES: CC(C)N(C(=O)SCC(Cl)=CCl)C(C)C
InChI: InChI=1S/C10H17Cl2NOS/c1-7(2)13(8(3)4)10(14)15-6-9(12)5-11/h5,7-8H,6H2,1-4H3
Instrument: ExionLC AD, AB Sciex LLC, USA; X500R QTOF, AB Sciex LLC, USA.
Instrument type: LC-ESI-QTOF
Ms type: MS2
Ion mode: POSITIVE
Collision energy: 20 V
Ionization: ESI
Column name: AQ-C18HP 3 microm, 2.1 mm Ã— 150 mm, GL Science (Tokyo Japan)
Retention time: 15.4 min
Precursor m/z: 272.04511
Precursor type: [M+H]+
m/z	relative intensity
41.039	21
43.0546	229
86.0606	999
106.9727	34
108.9692	53
110.9588	120
128.1076	274
144.9462	278
187.9516	33
229.9997	425
272.0462	718
