Mass spectrum: gamma,gamma-Carotene; LC-ESI-QTOF; MS2; POSITIVE; ESI; [M]+; COLLISION_ENERGY 20 V
Name: gamma,gamma-Carotene
Class: Natural product; carotenoids, carotene
Formula: C40H56
Exact mass: 536.43820
SMILES: C/C(=C\C=C\C=C(\C=C\C=C(\C=C\[C@H]1C(CCCC1=C)(C)C)/C)/C)/C=C/C=C(/C=C/[C@H]2C(CCCC2=C)(C)C)\C
InChI: InChI=1S/C40H56/c1-31(19-13-21-33(3)25-27-37-35(5)23-15-29-39(37,7)8)17-11-12-18-32(2)20-14-22-34(4)26-28-38-36(6)24-16-30-40(38,9)10/h11-14,17-22,25-28,37-38H,5-6,15-16,23-24,29-30H2,1-4,7-10H3/b12-11+,19-13+,20-14+,27-25+,28-26+,31-17+,32-18+,33-21+,34-22+/t37-,38-/m1/s1
Instrument: Xevo G2-S QtOF, Waters (USA) coupled to ACQUITY UPLC, Waters (USA).
Instrument type: LC-ESI-QTOF
Ms type: MS2
Ion mode: POSITIVE
Collision energy: 20 V
Ionization: ESI
Column name: BEH C18, I.D. 2.1 mm, length 100 mm, thickness 1.7 micrometer.
Ion type: [M]+
Precursor m/z: 536.43765
m/z	relative intensity
69.070	57
81.070	154
93.070	92
95.085	203
105.070	434
106.078	103
107.085	162
109.101	274
111.116	87
119.085	292
120.092	85
121.101	226
123.116	222
131.085	103
132.094	79
133.101	285
134.107	74
135.116	104
143.086	157
144.093	83
145.101	513
146.106	87
147.117	170
148.122	94
149.132	172
157.101	478
158.107	96
159.115	353
160.125	71
161.131	178
163.148	162
169.102	155
170.109	84
171.116	210
172.123	107
173.132	264
175.149	429
176.155	96
177.164	182
183.117	150
185.131	227
187.148	143
188.155	85
189.162	125
195.118	114
196.127	54
197.132	449
198.136	100
199.148	159
201.164	355
202.169	142
207.116	78
209.133	288
210.134	62
211.147	181
212.154	52
213.164	244
214.172	187
215.177	131
221.134	78
223.148	150
225.163	98
228.185	67
229.192	75
235.147	123
237.164	60
239.180	182
241.195	205
242.203	81
243.212	103
249.165	60
251.180	74
254.202	195
255.210	121
263.178	82
265.197	116
267.211	361
268.218	179
269.227	89
277.194	77
279.210	77
280.216	68
281.224	160
292.213	70
296.244	52
305.225	73
307.240	96
320.249	72
321.260	132
322.262	72
322.945	51
331.242	54
333.253	73
334.262	53
336.966	102
359.274	56
361.284	57
388.312	80
413.317	65
444.372	489
445.376	188
521.411	63
535.354	105
535.393	113
535.419	55
535.440	53
535.469	325
536.017	65
536.325	85
536.357	65
536.438	999
536.479	50
537.269	56
537.334	355
537.362	268
537.439	483
537.478	71
537.559	247
537.763	180
537.962	155
538.349	159
538.446	96
539.345	103
