Mass spectrum: Eburicoic acid; ESI-QTOF; MS2; POSITIVE; [M+H]+; CID; 20 V
Name: Eburicoic acid
Class: Non-natural product; Triterpenoid
Formula: C31H50O3
Exact mass: 470.37600
SMILES: CC(C)C(=C)CC[C@H]([C@H]1CC[C@@]2([C@@]1(CCC3=C2CC[C@@H]4[C@@]3(CC[C@@H](C4(C)C)O)C)C)C)C(=O)O
InChI: InChI=1S/C31H50O3/c1-19(2)20(3)9-10-21(27(33)34)22-13-17-31(8)24-11-12-25-28(4,5)26(32)15-16-29(25,6)23(24)14-18-30(22,31)7/h19,21-22,25-26,32H,3,9-18H2,1-2,4-8H3,(H,33,34)/t21-,22-,25+,26+,29-,30-,31+/m1/s1
Instrument: X500R QTOF (AB Sciex LLC, USA)
Instrument type: ESI-QTOF
Ms type: MS2
Ion mode: POSITIVE
Collision energy: 20 V
Fragmentation mode: CID
Ionization: ESI
Precursor m/z: 471.38327
Precursor type: [M+H]+
m/z	relative intensity
229.1968	21
247.2073	116
295.2436	46
313.2541	40
331.2646	21
345.2801	23
425.3787	55
435.3629	39
453.3731	769
471.3834	999
