Mass spectrum: 2-(4-Methylphenyl)ethylamine; LC-ESI-QQ; MS2; POSITIVE; [M+H-NH3]+; CID; 30 V
Name: 2-(4-Methylphenyl)ethylamine
Class: Non-natural product; Phenethylamine
Formula: C9H13N
Exact mass: 135.10480
SMILES: CC1=CC=C(C=C1)CCN
InChI: InChI=1S/C9H13N/c1-8-2-4-9(5-3-8)6-7-10/h2-5H,6-7,10H2,1H3
Instrument: Xevo TQS micro (Waters, MA, USA) coupled to ACQUITY UPLC H-Class (Waters, MA, USA)
Instrument type: LC-ESI-QQ
Ms type: MS2
Ion mode: POSITIVE
Collision energy: 30 V
Fragmentation mode: CID
Ionization: ESI
Column name: Acquity UPLC BEH AMIDE column (1.7 Âµm, 2.1 x 150 mm; Waters, MA, USA)
Precursor m/z: 119.08553
Precursor type: [M+H-NH3]+
m/z	relative intensity
37.2	27
38.4	24
38.5	24
38.7	39
39.1	102
39.4	9
40.1	10
40.6	32
40.8	67
41.3	37
41.4	18
42.2	10
42.8	14
43.5	13
43.7	7
46.2	16
46.6	20
46.8	8
48.4	36
48.8	11
49.8	9
50.4	8
50.6	23
50.8	81
51.1	63
51.3	109
52.2	24
52.9	15
55.1	18
55.6	16
57.1	10
58	12
58.2	6
61	7
62.8	32
63.4	18
64.5	52
64.9	378
65.2	373
66.9	8
67.1	8
67.7	28
67.9	12
68.7	22
71.6	15
71.8	14
72.1	14
73.5	11
74.5	12
74.9	15
75.4	9
76.1	14
76.3	14
76.5	60
77	999
77.6	45
77.8	95
78.1	89
78.3	43
79.1	17
79.3	6
86.5	8
86.7	9
89.1	7
90.4	11
90.6	279
91	457
91.3	265
91.6	12
96.5	7
97.2	10
101	13
101.7	10
102.2	11
102.5	22
102.9	239
103.3	99
103.7	25
104	55
104.2	33
104.4	67
104.9	12
113.8	7
114.6	8
115	11
115.2	50
115.4	17
116.8	15
117.2	28
118.6	7
119	7
120.5	8
122.6	14
