Mass spectrum: Indoxyl sulfate; ESI-QTOF; MS2; NEGATIVE; [M-H]-; CID; 40 V
Name: Indoxyl sulfate
Class: Non-natural product; Aryl sulfate
Formula: C8H7NO4S
Exact mass: 213.00958
SMILES: C1=CC=C2C(=C1)C(=CN2)OS(=O)(=O)O
InChI: InChI=1S/C8H7NO4S/c10-14(11,12)13-8-5-9-7-4-2-1-3-6(7)8/h1-5,9H,(H,10,11,12)
Instrument: X500R QTOF (AB Sciex LLC, USA)
Instrument type: ESI-QTOF
Ms type: MS2
Ion mode: NEGATIVE
Collision energy: 40 V
Fragmentation mode: CID
Ionization: ESI
Precursor m/z: 212.002299
Precursor type: [M-H]-
m/z	relative intensity
77.0385	605
79.9568	999
80.3808	173
80.9639	498
92.0502	119
104.0498	257
132.0442	602
