Mass spectrum: Malic acid-[4-13C]; GC-EI-QQ; MS2; CID 5 V; POSITIVE; 3 TMS-derivative; [M-118]+
Name: Malic acid-[4-13C]
Class: In vitro synthetic compound
Formula: C4H6O5
Exact mass: 134.02153
SMILES: C(C(C(=O)O)O)C(=O)O
InChI: InChI=1S/C4H6O5/c5-2(4(8)9)1-3(6)7/h2,5H,1H2,(H,6,7)(H,8,9)/i3+1
Instrument: GCMS-TQ8040 (Shimadzu, Kyoto, Japan)
Instrument type: GC-EI-QQ
Ms type: MS2
Ion mode: POSITIVE
Collision energy: 5 V
Fragmentation mode: CID
Column name: DB-5MS+DG (Agilent Technologies, Santa Clara, CA, USA)
Derivative form: C13H30O5Si3
Derivative mass: 350.14011
Derivative type: 3 TMS
Precursor m/z: 233.10238
m/z	relative intensity	assigned
73	999	
101.15	51	C4H9OSi+
117.15	93	C4H9O2Si+
118.1	29	C3(13C)H9O2Si+
143.1	14	
145.1	13	
147.1	13	
148.1	28	
163.1	13	
189.15	765	C7H17O2Si2+
191.1	432	
204.1	10	
205.1	19	
218.2	121	
233.1	432	C9H21O3Si2+
234.2	71	
