Mass spectrum: Citric acid-[1-13C]; GC-EI-Q; MS; POSITIVE; 4TMS-derivative
Name: Citric acid-[1-13C]
Class: In vitro synthetic compound
Formula: C6H8O7
Exact mass: 192.02701
SMILES: C(C(=O)O)C(CC(=O)O)(C(=O)O)O
InChI: InChI=1S/C6H8O7/c7-3(8)1-6(13,5(11)12)2-4(9)10/h13H,1-2H2,(H,7,8)(H,9,10)(H,11,12)/i3+1
Instrument: GCMS-QP2010 Ultra (Shimadzu, Kyoto, Japan)
Instrument type: GC-EI-Q
Ms type: MS
Ion mode: POSITIVE
Column name: DB-5MS+DG (Agilent Technologies, Santa Clara, CA, USA)
Derivative form: C18H40O7Si4
Derivative mass: 480.18511
Derivative type: 4 TMS
m/z	relative intensity	assigned
55.05	10	
58.05	13	
59.05	24	
61	10	
67	36	
68	37	
69	13	
70	15	
72.15	68	
73.05	999	
74.05	139	
75	191	
76	12	
99	11	
102.05	11	
103	13	
115	26	
116.05	11	
117	27	
129.05	50	
131	44	
133	83	
134	12	
143	14	
144.05	12	
146.15	12	
147.05	585	
148.05	94	
149.05	95	
150.05	12	
183.95	40	
185	10	
206.95	13	
211.95	58	
213	10	
213.95	11	
217	22	
218	14	
221	43	
231	18	
232	17	
258	46	
259	12	
273.05	15	
274.05	556	C10(13C)H21O4Si2+
275	119	
276.05	58	
286	14	
302.05	10	
305.05	26	
306.1	38	
307.05	13	
348.05	138	C12(13C)H27O5Si3+
349.05	43	
350.05	24	
364.05	151	C13(13C)H31O5Si3+
365.05	46	
366.05	24	
376.05	125	
377.05	40	
378	23	
466.05	78	
467.05	31	
468.05	17	
