Mass spectrum: Quinoclamine; ESI-QTOF; MS2; POSITIVE; [M+H]+; CID; 80 V
Name: Quinoclamine
Class: Non-natural product
Formula: C10H6ClNO2
Exact mass: 207.0087
SMILES: c1ccc2c(c1)C(=O)C(=C(C2=O)Cl)N
InChI: InChI=1S/C10H6ClNO2/c11-7-8(12)10(14)6-4-2-1-3-5(6)9(7)13/h1-4H,12H2
Instrument: X500R QTOF (AB Sciex LLC, USA)
Instrument type: ESI-QTOF
Ms type: MS2
Ion mode: POSITIVE
Collision energy: 80 V
Fragmentation mode: CID
Ionization: ESI
Precursor m/z: 208.0159
Precursor type: [M+H]+
m/z	relative intensity
39.0228	148
49.0072	52
50.015	331
51.0228	999
61.0072	70
62.015	236
63.0228	911
68.013	93
74.0151	189
75.0229	195
77.0385	528
89.0385	484
98.015	228
99.0104	189
99.0226	140
100.0181	331
