Mass spectrum: Carpipramine; LC-ESI-QQ; MS2; ESI; NEGATIVE; CID; CE 50 V; [M-H]-
Name: Carpipramine
Class: Non-natural product
Formula: C28H38N4O
Exact mass: 446.304545
SMILES: C1CCN(CC1)C2(CCN(CC2)CCCN3C4=CC=CC=C4CCC5=CC=CC=C53)C(=O)N
InChI: InChI=1S/C28H38N4O/c29-27(33)28(31-18-6-1-7-19-31)15-21-30(22-16-28)17-8-20-32-25-11-4-2-9-23(25)13-14-24-10-3-5-12-26(24)32/h2-5,9-12H,1,6-8,13-22H2,(H2,29,33)
Instrument: LCMS-8040 coupled to Nexera XR (Shimadzu, Kyoto, Japan).
Instrument type: LC-ESI-QQ
Ms type: MS2
Ion mode: NEGATIVE
Collision energy: 50 V
Fragmentation mode: CID
Ionization: ESI
Column name: InertSustain C18 ID 2.1 microm, 2.1 x 100 mm (GL Science, Tokyo, Japan).
Retention time: 9.788 min
Precursor m/z: 445.297268
Precursor type: [M-H]-
m/z	relative intensity
42.2	999
57.3	117
59.2	143
66.8	31
70.9	63
85.2	127
121.0	31
123.1	90
192.1	125
194.1	750
358.4	63
439.9	31
