Mass spectrum: Oryzalin; LC-ESI-QTOF; MS2; ESI; POSITIVE; [M+H]+; CE 20 V
Name: Oryzalin
Class: Non-natural product
Formula: C12H18N4O6S
Exact mass: 346.09469
SMILES: CCCN(CCC)c1c([N+](=O)[O-])cc(S(N)(=O)=O)cc1[N+](=O)[O-]
InChI: InChI=1S/C12H18N4O6S/c1-3-5-14(6-4-2)12-10(15(17)18)7-9(23(13,21)22)8-11(12)16(19)20/h7-8H,3-6H2,1-2H3,(H2,13,21,22)
Instrument: ExionLC AD, AB Sciex LLC, USA; X500R QTOF, AB Sciex LLC, USA.
Instrument type: LC-ESI-QTOF
Ms type: MS2
Ion mode: POSITIVE
Collision energy: 20 V
Ionization: ESI
Column name: AQ-C18HP 3 microm, 2.1 mm Ã— 150 mm, GL Science (Tokyo Japan)
Retention time: 14.3 min
Precursor m/z: 347.10197
Precursor type: [M+H]+
m/z	relative intensity
43.0548	35
57.0339	13
213.022	63
224.0673	64
231.0195	53
240.0627	109
241.0529	55
243.0195	156
245.9827	183
247.0142	306
259.0142	209
263.0091	326
287.0465	141
288.0289	999
289.0332	55
301.0607	90
305.0558	834
347.1023	637
