Mass spectrum: Ditolylguanidine; ESI-QTOF; MS2; ESI; POSITIVE; CE 40 V
Name: Ditolylguanidine
Class: Non-natural product
Formula: C15H17N3
Exact mass: 239.14224
SMILES: Cc1ccccc1NC(=N)Nc1ccccc1C
InChI: InChI=1S/C15H17N3/c1-11-7-3-5-9-13(11)17-15(16)18-14-10-6-4-8-12(14)2/h3-10H,1-2H3,(H3,16,17,18)
Instrument: X500R QTOF (AB Sciex LLC, USA)
Instrument type: ESI-QTOF
Ms type: MS2
Ion mode: POSITIVE
Collision energy: 40 V
Ionization: ESI
Precursor m/z: 240.14951
Precursor type: [M+H]+
m/z	relative intensity
65.0395	94
77.0397	76
79.0545	309
89.0395	136
91.0537	828
93.0569	806
104.0506	89
106.0643	861
107.0723	155
108.0801	831
116.0487	926
117.0572	255
118.0627	351
132.0686	320
133.0752	999
223.1241	163
