Mass spectrum: 2-[(1S,2S)-1,2-Dimethyl-3-methylenecyclopentyl]ethan-1-ol; GC-EI-TOF; MS; positive; EI; 70 V
Name: 2-[(1S,2S)-1,2-Dimethyl-3-methylenecyclopentyl]ethan-1-ol
Class: Non-natural product
Formula: C10H18O
Exact mass: 154.13577
SMILES: C[C@@]1(CCO)CCC(=C)[C@@H]1C
InChI: InChI=1S/C10H18O/c1-8-4-5-10(3,6-7-11)9(8)2/h9,11H,1,4-7H2,2-3H3/t9-,10-/m0/s1
Instrument: JMS-T100GCV (JEOL, Akishima, Japan) coupled to Agilent 7890A (Agilent, Wilmington, USA) gas chromatograph.
Instrument type: GC-EI-TOF
Ms type: MS
Ion mode: POSITIVE
Ionization: EI
Column name: HP-5 19091 J-413 USD364547H (Agilent, Wilmington, USA), length 30 m, I.D. 0.32 mm, thickness 0.25 micrometer.
Retention time: 7.07 min.
m/z	relative intensity
26.016	4
27.024	130
27.066	1
28.006	36
28.031	22
29.003	18
29.039	115
29.083	1
30.043	3
31.019	122
31.063	1
31.990	12
38.016	5
39.024	196
40.031	64
41.039	449
42.046	37
43.019	64
43.055	100
43.108	1
44.026	6
44.059	3
45.035	10
50.016	9
51.024	40
52.032	21
53.040	192
54.047	34
55.019	4
55.055	236
56.062	34
57.034	11
57.071	35
63.024	9
65.040	69
66.047	24
67.055	501
67.420	1
68.062	190
69.035	9
69.071	199
70.041	4
70.077	28
71.050	28
71.085	5
72.056	3
77.040	138
78.046	23
79.055	256
79.181	2
80.062	44
81.071	244
82.077	54
83.050	26
83.086	20
84.058	62
84.093	4
85.065	65
86.070	5
91.055	173
92.061	23
93.071	343
94.077	54
95.086	229
95.224	1
96.090	18
97.066	21
98.073	8
103.055	8
104.062	3
105.071	64
106.077	14
107.086	230
107.233	1
108.094	241
108.241	1
109.102	999
109.618	3
109.978	2
110.109	511
111.113	39
112.088	3
113.097	6
117.070	2
119.086	9
120.092	2
121.102	224
121.256	1
122.105	22
123.117	93
123.200	1
124.121	9
125.097	16
126.102	3
135.117	3
136.125	8
139.112	53
140.116	5
154.136	4
