Mass spectrum: 3-O-Acetyl-16alpha-hydroxydehydrotrametenolic acid; ESI-QTOF; MS2; POSITIVE; [M+H]+; CID; 30 V
Name: 3-O-Acetyl-16alpha-hydroxydehydrotrametenolic acid
Class: Non-natural product
Formula: C32H48O5
Exact mass: 512.35018
SMILES: CC(=CCC[C@H]([C@H]1[C@@H](C[C@@]2([C@@]1(CC=C3C2=CC[C@@H]4[C@@]3(CC[C@@H](C4(C)C)OC(=O)C)C)C)C)O)C(=O)O)C
InChI: InChI=1S/C32H48O5/c1-19(2)10-9-11-21(28(35)36)27-24(34)18-32(8)23-12-13-25-29(4,5)26(37-20(3)33)15-16-30(25,6)22(23)14-17-31(27,32)7/h10,12,14,21,24-27,34H,9,11,13,15-18H2,1-8H3,(H,35,36)/t21-,24-,25+,26+,27+,30-,31-,32+/m1/s1
Instrument: X500R QTOF (AB Sciex LLC, USA)
Instrument type: ESI-QTOF
Ms type: MS2
Ion mode: POSITIVE
Collision energy: 30 V
Fragmentation mode: CID
Ionization: ESI
Precursor m/z: 513.35745
Precursor type: [M+H]+
m/z	relative intensity
95.0872	9
145.1028	20
159.1186	20
171.1185	14
173.1342	14
185.1342	21
187.1499	25
197.1343	16
199.15	23
201.1655	56
211.1499	18
213.1656	18
223.15	28
225.1657	25
237.1657	24
239.1813	19
241.1969	83
251.1813	26
253.1969	33
278.2047	43
293.2275	547
294.2359	49
353.2481	999
417.3162	48
435.3263	593
495.3476	91
