Mass spectrum: 2-(4-Methylphenyl)ethylamine; ESI-QQ; MS; POSITIVE
Name: 2-(4-Methylphenyl)ethylamine
Class: Non-natural product; Phenethylamine
Formula: C9H13N
Exact mass: 135.10480
SMILES: CC1=CC=C(C=C1)CCN
InChI: InChI=1S/C9H13N/c1-8-2-4-9(5-3-8)6-7-10/h2-5H,6-7,10H2,1H3
Instrument: Xevo TQS micro (Waters, MA, USA)
Instrument type: ESI-QQ
Ms type: MS
Ion mode: POSITIVE
Ionization: ESI
m/z	relative intensity
74.1	16
81.5	35
91	70
94	8
97.5	22
97.7	20
102.1	48
102.9	7
104.1	14
105.4	6
109.2	6
109.9	9
110.1	12
111	9
117.1	32
119.1	999
120.1	108
121.1	9
126	19
130.4	26
135.2	7
136.2	85
137.2	11
139.1	6
151.1	7
155.1	6
156.1	18
158.1	16
160.2	7
167.1	38
181.1	7
183	21
184.9	6
185.2	9
190.1	7
202.2	6
