Mass spectrum: Acetyldaidzin; ESI-QTOF; MS2; POSITIVE; [M+H]+; CID; 60 V
Name: Acetyldaidzin
Class: Glycosyloxyisoflavone
Formula: C23H22O10
Exact mass: 458.12130
SMILES: CC(=O)OC[C@@H]1[C@H]([C@@H]([C@H]([C@@H](O1)OC2=CC3=C(C=C2)C(=O)C(=CO3)C4=CC=C(C=C4)O)O)O)O
InChI: InChI=1S/C23H22O10/c1-11(24)30-10-18-20(27)21(28)22(29)23(33-18)32-14-6-7-15-17(8-14)31-9-16(19(15)26)12-2-4-13(25)5-3-12/h2-9,18,20-23,25,27-29H,10H2,1H3/t18-,20-,21+,22-,23-/m1/s1
Instrument: X500R QTOF (AB Sciex LLC, USA)
Instrument type: ESI-QTOF
Ms type: MS2
Ion mode: POSITIVE
Collision energy: 60 V
Fragmentation mode: CID
Ionization: ESI
Precursor m/z: 459.12858
Precursor type: [M+H]+
m/z	relative intensity	assigned
91.0539	33	[C3H8O3-H]+
119.0488	15	[C4H8O4-H]+
128.0617	16	[C6H12O3-4H]+
129.0695	17	[C6H12O3-3H]+
133.0279	13	[C4H10O5-5H]+
137.0229	153	[C7H6O3-H]+
145.028	26	[C9H6O2-H]+
149.0229	14	[C8H8O3-3H]+
152.0617	17	[C5H12O5]+
153.0694	45	[C5H12O5+H]+
157.0644	26	[C7H14O4-5H]+
171.0801	26	[C8H10O4+H]+
181.0643	108	[C6H12O6+H]+
199.0749	296	[C9H12O5-H]+
227.0699	136	[C14H12O3-H]+
237.0544	61	[C15H10O3-H]+
255.0644	999	[C15H10O4+H]+
