Mass spectrum: 2-(4-Methoxyphenyl)ethylamine; LC-ESI-QQ; MS2; POSITIVE; [M+H]+; CID; 20 V
Name: 2-(4-Methoxyphenyl)ethylamine
Class: Non-natural product; Phenethylamine
Formula: C9H13NO
Exact mass: 151.09971
SMILES: COC1=CC=C(C=C1)CCN
InChI: InChI=1S/C9H13NO/c1-11-9-4-2-8(3-5-9)6-7-10/h2-5H,6-7,10H2,1H3
Instrument: Xevo TQS micro (Waters, MA, USA) coupled to ACQUITY UPLC H-Class (Waters, MA, USA)
Instrument type: LC-ESI-QQ
Ms type: MS2
Ion mode: POSITIVE
Collision energy: 20 V
Fragmentation mode: CID
Ionization: ESI
Column name: Acquity UPLC BEH AMIDE column (1.7 Âµm, 2.1 x 150 mm; Waters, MA, USA)
Precursor m/z: 152.10699
Precursor type: [M+H]+
m/z	relative intensity
76.7	78
77	47
77.1	28
77.3	48
78.6	82
79	294
79.3	108
90.6	13
91	48
91.6	6
91.9	8
92.1	7
92.3	7
102.9	219
103.1	227
104.1	8
105	999
106.8	13
107.1	5
107.3	6
118.8	6
119.1	8
119.8	59
120.1	120
135.1	367
135.4	81
