Mass spectrum: Poricoic acid A; ESI-QTOF; MS2; POSITIVE; [M+H]+; CID; 60 V
Name: Poricoic acid A
Class: Non-natural product; Tricyclic triterpenoid
Formula: C31H46O5
Exact mass: 498.33453
SMILES: CC(C)C(=C)CC[C@H]([C@H]1[C@@H](C[C@@]2([C@@]1(CC=C3C2=CC[C@H]([C@]3(C)CCC(=O)O)C(=C)C)C)C)O)C(=O)O
InChI: InChI=1S/C31H46O5/c1-18(2)20(5)9-10-21(28(35)36)27-25(32)17-31(8)24-12-11-22(19(3)4)29(6,15-14-26(33)34)23(24)13-16-30(27,31)7/h12-13,18,21-22,25,27,32H,3,5,9-11,14-17H2,1-2,4,6-8H3,(H,33,34)(H,35,36)/t21-,22+,25-,27+,29+,30-,31+/m1/s1
Instrument: X500R QTOF (AB Sciex LLC, USA)
Instrument type: ESI-QTOF
Ms type: MS2
Ion mode: POSITIVE
Collision energy: 60 V
Fragmentation mode: CID
Ionization: ESI
Precursor m/z: 499.34180
Precursor type: [M+H]+
m/z	relative intensity
55.0556	269
57.0713	46
67.0558	105
69.0714	158
77.0403	52
79.0559	114
81.0716	168
83.0872	65
93.0717	162
95.0873	163
97.1029	51
105.0717	279
107.0873	259
109.0666	17
109.103	103
117.0717	83
119.0873	284
121.1029	130
128.0639	58
129.0717	94
131.0874	255
133.103	128
141.0717	79
142.0796	133
143.0874	292
145.1031	280
147.0823	58
147.1188	66
153.0719	48
154.0796	52
155.0874	260
156.0953	117
157.1031	513
159.0824	86
159.1188	216
165.0719	57
167.0875	127
168.0953	110
169.1031	720
170.1108	66
171.1188	269
173.0981	55
173.1344	73
177.093	53
179.0876	126
180.0954	63
181.1032	299
182.111	149
183.1188	680
185.0982	57
185.1345	214
187.1139	70
189.1294	58
193.1033	197
194.1111	147
195.1189	433
196.1268	138
197.0983	49
197.1345	314
199.114	73
199.1503	68
206.1111	72
207.1191	258
208.1268	266
209.0985	46
209.1346	574
210.1424	112
211.114	76
211.1503	232
219.1192	72
220.1268	53
221.1347	283
222.1426	73
223.1144	72
223.1503	999
224.1578	45
225.1299	73
225.1659	151
229.1245	47
231.1192	41
232.1269	73
233.1347	94
234.1427	45
235.1504	152
237.13	55
237.166	320
241.1247	67
247.1504	132
249.1298	51
249.1661	104
251.1455	51
251.1816	64
255.1403	52
259.1504	50
263.1818	60
265.1611	99
265.1974	76
267.1404	63
283.1714	72
