Mass spectrum: Anilofos; GC-EI-Q; MS; Positive; M+*
Name: Anilofos
Class: Non-Natural Product; Pesticides
Formula: C13H19ClNO3PS2
Exact mass: 367.02325
SMILES: CC(C)N(C(=O)CSP(=S)(OC)OC)c(c1)ccc(Cl)c1
InChI: InChI=1S/C13H19ClNO3PS2/c1-10(2)15(12-7-5-11(14)6-8-12)13(16)9-21-19(20,17-3)18-4/h5-8,10H,9H2,1-4H3
Instrument: GCMS-QP2010 Plus, Shimadzu
Instrument type: GC-EI-Q
Ms type: MS
Ion mode: POSITIVE
Ionization: EI
Column name: Ptx-5MS(RESTEK), 0.32 mm I.D. x 30 m, df=0.25 microm
Retention time: 17.8 min
Ion type: [M]+*
Precursor m/z: 367.02
m/z	relative intensity
40	8
41	231
42	84
43	780
44	296
45	27
46	28
47	156
48	16
49	17
50	35
51	27
52	20
54	15
55	18
56	18
57	26
58	13
59	26
61	30
62	42
63	186
64	23
65	42
66	14
67	9
68	9
69	13
70	14
72	19
73	5
74	6
75	94
76	42
77	75
78	18
79	205
80	103
81	31
83	20
84	94
85	24
86	6
89	42
90	31
91	79
92	44
93	316
95	48
96	71
98	10
99	38
100	11
101	32
102	12
103	11
104	25
108	10
109	45
110	65
111	159
112	28
113	75
114	12
115	21
116	26
117	33
118	141
119	109
120	20
122	5
123	5
124	8
125	663
126	144
127	386
128	65
129	96
130	18
131	6
132	43
133	67
135	14
136	42
137	5
138	170
139	37
140	124
141	14
142	53
143	21
148	5
149	20
151	43
152	187
153	144
154	999
155	188
156	324
157	182
158	84
159	44
160	7
161	14
162	5
163	7
164	21
166	53
167	112
168	130
169	234
170	58
171	217
172	19
173	18
174	20
177	5
178	18
181	5
182	47
183	161
184	318
185	49
186	69
187	16
192	45
193	19
194	50
195	5
196	65
197	6
198	17
199	89
200	7
201	6
207	5
208	35
209	39
210	61
211	119
212	22
213	34
214	11
221	9
225	74
226	533
227	79
228	187
229	9
230	9
242	5
266	8
267	6
281	9
287	5
290	5
292	10
293	5
294	11
302	5
312	6
325	7
327	7
334	52
336	34
359	5
365	5
378	5
402	5
464	7
548	5
