Mass spectrum: Diphenylguanidine; ESI-QTOF; MS2; ESI; POSITIVE; [M+H]+; CE 50 V
Name: Diphenylguanidine
Class: Non-natural product
Formula: C13H13N3
Exact mass: 211.11093
SMILES: C1=CC=C(C=C1)NC(=NC2=CC=CC=C2)N
InChI: InChI=1S/C13H13N3/c14-13(15-11-7-3-1-4-8-11)16-12-9-5-2-6-10-12/h1-10H,(H3,14,15,16)
Instrument: X500R QTOF (AB Sciex LLC, USA)
Instrument type: ESI-QTOF
Ms type: MS2
Ion mode: POSITIVE
Collision energy: 50 V
Ionization: ESI
Precursor m/z: 212.11821
Precursor type: [M+H]+
m/z	relative intensity
39.0236	62
51.0226	677
53.0393	80
65.0382	753
77.0379	755
92.0489	894
94.0646	880
119.0597	999
