Mass spectrum: (3R)-3-Methylheptyl benzyl ether; GC-FI-TOF; MS; positive; FI; 10 kV
Name: (3R)-3-Methylheptyl benzyl ether
Class: Non-natural product
Formula: C15H24O
Exact mass: 220.18272
SMILES: C[C@H](CCCC)CCOCC1=CC=CC=C1
InChI: InChI=1S/C15H24O/c1-3-4-8-14(2)11-12-16-13-15-9-6-5-7-10-15/h5-7,9-10,14H,3-4,8,11-13H2,1-2H3/t14-/m1/s1
Instrument: JMS-T100GCV (JEOL, Akishima, Japan) coupled to Agilent 7890A (Agilent, Wilmington, USA) gas chromatograph.
Instrument type: GC-FI-TOF
Ms type: MS
Ion mode: POSITIVE
Ionization: FI
Column name: HP-5 19091 J-413 USD364547H (Agilent, Wilmington, USA), length 30.0 m, I.D. 0.32 mm, thickness 0.25 micrometer.
Retention time: 8.74 min.
m/z	relative intensity
29.038	3
45.361	2
75.731	1
91.058	4
92.067	16
109.416	2
112.129	3
119.411	1
123.253	2
129.889	1
179.011	2
185.697	1
189.168	2
202.177	38
203.177	6
219.183	5
219.973	2
220.188	999
220.775	3
220.852	4
221.104	3
221.192	167
221.541	3
221.840	2
221.946	3
222.028	3
222.074	2
222.195	16
222.411	2
222.505	2
222.997	2
223.154	2
223.566	2
223.678	2
279.502	1
