Mass spectrum: Cumyluron; ESI-QTOF; MS2; NEGATIVE; [M-H]-; CID; 30 V
Name: Cumyluron
Class: Non-natural product
Formula: C17H19ClN2O
Exact mass: 302.1186
SMILES: CC(C)(c1ccccc1)NC(=O)NCc2ccccc2Cl
InChI: InChI=1S/C17H19ClN2O/c1-17(2,14-9-4-3-5-10-14)20-16(21)19-12-13-8-6-7-11-15(13)18/h3-11H,12H2,1-2H3,(H2,19,20,21)
Instrument: X500R QTOF (AB Sciex LLC, USA)
Instrument type: ESI-QTOF
Ms type: MS2
Ion mode: NEGATIVE
Collision energy: 30 V
Fragmentation mode: CID
Ionization: ESI
Precursor m/z: 301.1113
Precursor type: [M-H]-
m/z	relative intensity
26.0034	144
34.9691	973
40.0189	48
41.9982	595
44.9978	348
56.0502	392
77.0393	785
111.0004	733
130.0294	999
145.0529	268
160.0762	146
166.0061	429
255.2324	811
