Mass spectrum: (4R)-4-Methyl-6-benzyloxyhexanal; GC-EI-BE; MS; positive; EI; 70 V
Name: (4R)-4-Methyl-6-benzyloxyhexanal
Class: Non-natural product
Formula: C14H20O2
Exact mass: 220.14633
SMILES: C[C@H](CCC=O)CCOCC1=CC=CC=C1
InChI: InChI=1S/C14H20O2/c1-13(6-5-10-15)9-11-16-12-14-7-3-2-4-8-14/h2-4,7-8,10,13H,5-6,9,11-12H2,1H3/t13-/m1/s1
Instrument: JMS-700V (JEOL, Akishima, Japan) coupled to Agilent 6890N (Agilent, Wilmington, USA) gas chromatograph.
Instrument type: GC-EI-BE
Ms type: MS
Ion mode: POSITIVE
Ionization: EI
Column name: DB-5MS 122-5532 US877814H (Agilent, Wilmington, USA), length 30.0 m, I.D. 0.25 mm, thickness 0.25 micrometer.
Retention time: 10.73 min
m/z	relative intensity
36	7
38	4
39	23
40	4
41	45
42	7
43	21
44	4
45	2
50	3
51	12
52	5
53	7
54	2
55	43
56	11
57	24
58	11
59	1
62	2
63	9
64	4
65	61
66	6
67	12
68	7
69	56
70	24
71	9
73	2
74	1
75	1
76	1
77	33
78	10
79	35
80	4
81	38
82	4
83	39
84	5
85	17
86	4
87	3
89	17
90	12
91	999
92	182
93	49
94	5
95	33
96	28
97	5
98	1
99	5
104	14
105	21
106	8
107	282
108	57
109	5
110	1
111	39
112	5
113	30
114	41
115	3
117	5
118	3
119	2
120	1
121	2
126	2
128	1
129	23
130	3
131	8
132	2
133	4
134	1
143	4
144	1
145	2
146	2
147	1
157	2
158	1
159	2
161	2
163	2
175	3
176	1
177	1
220	35
221	7
