Mass spectrum: (4R)-4-Methylheptanoic acid; GC-FI-TOF; MS; positive; FI; 10 kV
Name: (4R)-4-Methylheptanoic acid
Class: Non-natural product
Formula: C8H16O2
Exact mass: 144.11503
SMILES: CCC[C@@H](C)CCC(=O)O
InChI: InChI=1S/C8H16O2/c1-3-4-7(2)5-6-8(9)10/h7H,3-6H2,1-2H3,(H,9,10)/t7-/m1/s1
Instrument: JMS-T100GCV (JEOL, Akishima, Japan) coupled to Agilent 7890A (Agilent, Wilmington, USA) gas chromatograph.
Instrument type: GC-FI-TOF
Ms type: MS
Ion mode: POSITIVE
Ionization: FI
Column name: HP-5 19091 J-413 USD364547H (Agilent, Wilmington, USA), length 30.0 m, I.D. 0.32 mm, thickness 0.25 micrometer.
Retention time: 6.42 min.
m/z	relative intensity
29.040	95
43.056	81
85.100	54
87.045	92
101.060	283
115.075	53
125.094	40
127.112	50
143.109	82
144.115	999
145.121	390
146.123	56
