Mass spectrum: 3-O-Acetyl-16alpha-hydroxytrametenolic acid; ESI-QTOF; MS; POSITIVE
Name: 3-O-Acetyl-16alpha-hydroxytrametenolic acid
Class: Non-natural product; Bile acid
Formula: C32H50O5
Exact mass: 514.36583
SMILES: CC(=CCC[C@H]([C@H]1[C@@H](C[C@@]2([C@@]1(CCC3=C2CCC4[C@@]3(CC[C@@H](C4(C)C)OC(=O)C)C)C)C)O)C(=O)O)C
InChI: InChI=1S/C32H50O5/c1-19(2)10-9-11-21(28(35)36)27-24(34)18-32(8)23-12-13-25-29(4,5)26(37-20(3)33)15-16-30(25,6)22(23)14-17-31(27,32)7/h10,21,24-27,34H,9,11-18H2,1-8H3,(H,35,36)/t21-,24-,25?,26+,27+,30-,31-,32+/m1/s1
Instrument: X500R QTOF (AB Sciex LLC, USA)
Instrument type: ESI-QTOF
Ms type: MS
Ion mode: POSITIVE
Ionization: ESI
m/z	relative intensity
437.3397	47
497.3607	183
498.3646	59
515.3718	102
516.3753	34
537.3518	999
537.8546	79
538.3565	328
539.3602	53
794.5369	351
795.0383	360
795.5403	199
796.0422	75
1051.7220	216
1052.2230	133
1052.7250	179
1062.7140	114
1063.2150	159
1063.7170	115
1064.2180	56
