Mass spectrum: (4-(2,6-dichlorophenyl)-2-methylbutyl)(pentyl)sulfane; GC-EI-TOF; MS; POSITIVE; EI; 70 V
Name: (4-(2,6-dichlorophenyl)-2-methylbutyl)(pentyl)sulfane
Class: Non-natural compound
Formula: C16H24Cl2S
Exact mass: 318.09758
SMILES: CCCCCSCC(C)CCc1c(Cl)cccc1Cl
InChI: InChI=1S/C16H24Cl2S/c1-3-4-5-11-19-12-13(2)9-10-14-15(17)7-6-8-16(14)18/h6-8,13H,3-5,9-12H2,1-2H3
Instrument: JMS-T100GCV (JEOL, Akishima, Japan) coupled to Agilent 7890A gas chromatograph.
Instrument type: GC-EI-TOF
Ms type: MS
Ion mode: POSITIVE
Ionization: EI
Column name: HP-5 30x0.32 0.25um 19091J-413, length 30.0 m, I.D. 0.32 mm, thickness 0.25 micrometer.
Retention time: 11.15 min.
m/z	relative intensity
27.024	56
28.006	16
28.031	7
29.04	101
31.99	9
34.996	4
39.024	45
40.031	6
41.04	228
41.13	1
42.047	50
43.055	230
43.148	1
44.059	8
44.98	39
45.988	17
46.996	56
48.003	6
48.991	3
49.011	5
51.024	11
53.04	18
54.047	13
55.055	209
56.061	15
57.071	5
58.996	15
60.004	19
61.012	365
62.016	16
63.008	17
65.04	6
67.055	12
68.063	10
69.071	283
70.078	108
70.996	3
71.086	26
72.985	7
73.012	10
74.019	23
75.027	57
76.032	8
77.04	16
78.046	3
85.012	4
87.027	17
88.033	4
89.041	53
90.045	6
91.055	16
96.985	3
99.001	10
100.998	3
101.041	48
102.049	59
103.058	102
103.135	1
104.065	24
105.07	7
111.0	5
114.047	3
115.056	31
116.063	11
117.074	78
118.081	20
119.086	5
123.001	40
124.008	17
125.016	60
126.012	7
127.014	19
127.056	12
128.063	24
129.071	23
130.078	7
131.09	17
132.962	8
134.02	4
134.96	5
135.027	3
136.009	6
137.017	30
138.024	15
139.016	10
140.021	5
141.071	6
142.079	7
143.087	57
144.093	15
145.105	12
149.017	8
150.024	8
151.03	9
152.024	3
153.03	3
156.988	26
157.988	3
158.978	584
159.224	2
159.604	2
159.984	98
160.532	1
160.975	370
161.519	1
161.981	63
162.973	59
163.032	72
163.979	10
164.037	13
165.032	24
166.036	4
167.044	3
168.988	8
169.99	2
171.0	10
171.986	126
172.993	54
173.983	82
174.99	31
175.981	14
176.986	5
177.048	7
178.056	90
179.063	146
180.058	39
181.061	47
182.064	6
184.994	14
186.001	4
186.991	9
187.998	3
190.95	5
192.948	4
197.019	2
199.01	12
200.016	5
201.009	8
202.013	3
203.015	2
211.036	12
212.043	24
213.049	97
214.041	26
215.045	39
216.034	10
217.032	4
227.064	10
229.062	4
247.013	17
247.152	4
248.013	3
249.01	12
251.006	2
261.029	4
263.025	3
282.12	14
283.129	999
283.729	2
283.962	3
284.132	188
285.126	371
285.839	2
286.129	67
286.274	1
286.425	1
287.125	19
288.129	3
318.098	21
319.099	4
320.095	14
321.099	3
322.092	3
