Mass spectrum: Aloxistatin; MALDI-QIT; MS2; [M+H]+
Name: Aloxistatin
Name: est.
Class: Natural Product
Formula: C17H30N2O5
Exact mass: 342.21547
SMILES: CCOC(=O)[C@@H]1[C@H](O1)C(=O)N[C@@H](CC(C)C)C(=O)NCCC(C)C
InChI: InChI=1S/C17H30N2O5/c1-6-23-17(22)14-13(24-14)16(21)19-12(9-11(4)5)15(20)18-8-7-10(2)3/h10-14H,6-9H2,1-5H3,(H,18,20)(H,19,21)/t12-,13-,14-/m0/s1
Instrument: AXIMA QIT (Shimadzu)
Instrument type: MALDI-QIT
Ms type: MS2
Ion mode: POSITIVE
Collision energy: 200-500-650 (Argon)
Ionization: MALDI
Precursor m/z: 343.22384
Precursor type: [M+H]+
m/z	relative intensity
172.0976	387
200.092	83
211.18	122
228.1229	441
246.1331	999
343.22371	179
