Mass spectrum: (4S)-4-Methyl-6-benzyloxyhexanal; GC-EI-BE; MS; positive; EI; 70 V
Name: (4S)-4-Methyl-6-benzyloxyhexanal
Class: Non-natural product
Formula: C14H20O2
Exact mass: 220.14633
SMILES: C[C@@H](CCC=O)CCOCC1=CC=CC=C1
InChI: InChI=1S/C14H20O2/c1-13(6-5-10-15)9-11-16-12-14-7-3-2-4-8-14/h2-4,7-8,10,13H,5-6,9,11-12H2,1H3/t13-/m0/s1
Instrument: JMS-700V (JEOL, Akishima, Japan) coupled to Agilent 6890N (Agilent, Wilmington, USA) gas chromatograph.
Instrument type: GC-EI-BE
Ms type: MS
Ion mode: POSITIVE
Ionization: EI
Column name: DB-5MS 122-5532 US877814H (Agilent, Wilmington, USA), length 30.0 m, I.D. 0.25 mm, thickness 0.25 micrometer.
Retention time: 10.72 min
m/z	relative intensity
36	10
38	3
39	28
40	4
41	63
42	7
43	27
44	7
45	4
50	4
51	15
52	5
53	8
54	2
55	59
56	11
57	28
58	12
59	1
62	1
63	10
64	4
65	74
66	5
67	18
68	7
69	56
70	30
71	10
72	1
73	2
74	1
75	1
76	2
77	32
78	12
79	40
80	4
81	40
82	3
83	40
84	6
85	23
86	3
87	4
89	18
90	15
91	999
92	218
93	47
94	4
95	36
96	25
97	5
98	2
99	7
104	15
105	20
106	9
107	256
108	58
109	5
111	34
112	4
113	33
114	42
115	3
117	4
118	3
119	2
120	1
121	2
126	3
128	1
129	21
130	2
131	8
132	2
133	4
134	2
143	3
144	1
145	2
146	1
147	1
157	1
159	3
161	2
163	2
175	2
177	1
220	28
221	5
