Mass spectrum: Eburicoic acid; ESI-QTOF; MS2; POSITIVE; [M+H]+; CID; 60 V
Name: Eburicoic acid
Class: Non-natural product; Triterpenoid
Formula: C31H50O3
Exact mass: 470.37600
SMILES: CC(C)C(=C)CC[C@H]([C@H]1CC[C@@]2([C@@]1(CCC3=C2CC[C@@H]4[C@@]3(CC[C@@H](C4(C)C)O)C)C)C)C(=O)O
InChI: InChI=1S/C31H50O3/c1-19(2)20(3)9-10-21(27(33)34)22-13-17-31(8)24-11-12-25-28(4,5)26(32)15-16-29(25,6)23(24)14-18-30(22,31)7/h19,21-22,25-26,32H,3,9-18H2,1-2,4-8H3,(H,33,34)/t21-,22-,25+,26+,29-,30-,31+/m1/s1
Instrument: X500R QTOF (AB Sciex LLC, USA)
Instrument type: ESI-QTOF
Ms type: MS2
Ion mode: POSITIVE
Collision energy: 60 V
Fragmentation mode: CID
Ionization: ESI
Precursor m/z: 471.38327
Precursor type: [M+H]+
m/z	relative intensity
43.0554	29
53.04	15
55.0556	410
57.0348	16
57.0713	135
65.0402	31
67.0557	371
69.0714	349
71.0871	38
77.0402	121
79.0558	280
81.0715	603
83.0872	232
91.0559	379
93.0715	544
95.0871	727
97.1029	127
103.0559	24
105.0716	580
107.0872	679
109.1029	667
111.0821	35
115.056	30
117.0717	151
119.0872	999
121.1029	569
123.0822	29
123.1186	238
128.0639	41
129.0716	110
130.0795	36
131.0872	480
133.103	578
135.1186	252
137.1343	38
141.0718	26
142.0796	59
143.0874	245
144.0952	79
145.1031	616
147.1187	359
149.1344	79
155.0874	51
156.0952	69
157.1031	315
158.1108	99
159.1187	704
160.1265	61
161.1344	250
163.1501	39
169.1031	82
170.111	43
171.1188	354
172.1267	73
173.1344	836
174.1421	67
175.1501	142
183.1187	110
184.1266	32
185.1345	325
186.1423	428
187.1501	404
189.1659	46
197.1346	107
198.1425	71
199.1502	730
200.1579	48
201.1658	121
211.1502	160
212.158	49
213.166	195
214.1738	662
215.1816	121
225.1661	94
226.1738	122
227.1816	127
229.1973	463
239.1816	67
241.1972	250
255.2132	53
