Mass spectrum: Pentoxazone; ESI-QTOF; MS; NEGATIVE
Name: Pentoxazone
Class: Non-natural product
Formula: C17H17ClFNO4
Exact mass: 353.0830
SMILES: CC(=C1C(=O)N(C(=O)O1)c2cc(c(cc2F)Cl)OC3CCCC3)C
InChI: InChI=1S/C17H17ClFNO4/c1-9(2)15-16(21)20(17(22)24-15)13-8-14(11(18)7-12(13)19)23-10-5-3-4-6-10/h7-8,10H,3-6H2,1-2H3
Instrument: X500R QTOF (AB Sciex LLC, USA)
Instrument type: ESI-QTOF
Ms type: MS
Ion mode: NEGATIVE
Ionization: ESI
m/z	relative intensity
101.0609	57
121.0296	49
135.0453	70
143.1079	64
149.0607	705
150.0644	75
157.1235	156
171.1392	202
177.0559	61
195.0665	135
199.1704	152
206.9857	61
212.0752	200
218.1677	237
219.1752	398
220.1468	417
220.1781	73
221.1507	70
223.0285	160
227.2017	147
228.0599	61
233.1549	69
241.2174	75
253.2174	106
255.2331	242
281.2488	86
297.0475	103
352.0756	999
353.0794	190
354.0733	342
