Mass spectrum: (3S)-3-Methylheptyl pivalate; GC-EI-TOF; MS; positive; EI; 70 V
Name: (3S)-3-Methylheptyl pivalate
Class: Non-natural product
Formula: C13H26O2
Exact mass: 214.19328
SMILES: CCCC[C@H](C)CCOC(=O)C(C)(C)C
InChI: InChI=1S/C13H26O2/c1-6-7-8-11(2)9-10-15-12(14)13(3,4)5/h11H,6-10H2,1-5H3/t11-/m0/s1
Instrument: JMS-T100GCV (JEOL, Akishima, Japan) coupled to Agilent 7890A (Agilent, Wilmington, USA) gas chromatograph.
Instrument type: GC-EI-TOF
Ms type: MS
Ion mode: POSITIVE
Ionization: EI
Column name: HP-5 19091 J-413 USD364547H (Agilent, Wilmington, USA), length 30 m, I.D. 0.32 mm, thickness 0.25 micrometer.
Retention time: 7.46 min.
m/z	relative intensity
20.015	3
26.016	2
27.024	54
28.006	133
28.032	17
28.079	1
29.003	7
29.040	189
30.043	5
31.019	5
31.990	15
38.004	3
39.024	56
39.963	3
40.030	13
41.040	382
41.166	1
41.322	1
41.356	1
41.559	1
42.047	71
43.019	8
43.055	230
43.990	8
44.026	2
44.059	9
44.998	4
45.034	4
46.006	3
48.985	2
51.024	2
53.040	15
54.047	11
55.055	179
55.158	1
56.063	242
57.034	3
57.071	999
57.342	2
57.445	3
57.701	2
58.074	47
58.259	1
59.050	8
65.040	2
67.055	10
68.063	8
69.034	5
69.071	78
69.138	1
70.042	13
70.078	476
70.243	1
70.492	1
70.773	1
71.050	11
71.086	167
71.440	1
72.056	1
72.090	10
73.029	3
79.055	2
81.071	4
82.078	9
83.086	71
83.160	1
83.953	2
84.094	76
84.165	1
85.066	71
85.101	26
86.070	4
86.106	2
87.045	6
88.052	2
91.055	1
95.087	2
97.102	10
103.076	137
104.080	8
110.110	1
111.118	10
112.125	154
113.130	20
129.092	11
130.096	2
157.123	13
158.126	2
