Mass spectrum: Fumaric acid-[1,2,3,4-13C4]; GC-EI-Q; MS; POSITIVE; 2 TMS-derivative
Name: Fumaric acid-[1,2,3,4-13C4]
Class: In vitro synthetic compound
Formula: C4H4O4
Exact mass: 116.01096
SMILES: O=C(O)/C=C/C(=O)O
InChI: InChI=1S/C4H4O4/c5-3(6)1-2-4(7)8/h1-2H,(H,5,6)(H,7,8)/b2-1+/i1+1,2+1,3+1,4+1
Instrument: GCMS-QP2010 Ultra (Shimadzu, Kyoto, Japan)
Instrument type: GC-EI-Q
Ms type: MS
Ion mode: POSITIVE
Column name: DB-5MS+DG (Agilent Technologies, Santa Clara, CA, USA)
Derivative form: C10H20O4Si2
Derivative mass: 260.09001
Derivative type: 2 TMS
m/z	relative intensity
51	11
52.05	16
53.05	11
55.05	24
56.05	46
57.05	58
58.05	73
59.1	226
60.1	85
61	54
66.05	27
69.05	12
70.05	13
71.05	45
72.15	73
73.1	999
74.05	153
75.05	490
76.05	39
77	23
79.05	14
85.05	72
86.05	43
87	24
88	13
89.05	19
92.95	17
100.05	13
101.05	32
102.05	29
103.05	19
115.05	18
116.05	14
117.05	46
118.1	16
119.05	18
129.1	12
130.05	21
131.1	36
132.1	19
133.05	78
134.05	17
135	15
145.1	20
146.1	108
147.1	440
148.1	71
149.1	48
159.05	32
160.05	11
174.1	19
175.05	13
176.1	12
191.05	17
206.1	12
207.05	11
210.95	11
220.05	15
245.05	23
246.05	13
248.15	33
249.05	342
250.05	58
251.05	29
298.05	75
299.05	96
300.05	32
301.05	14
314.05	17
