Mass spectrum: (5S)-3-[6Beta-[(R)-2-oxo-7-hydroxy-7-[(2R)-5alpha-[(R)-1-hydroxytridecyl]tetrahydrofuran-2beta-yl]heptyl]tetrahydro-2H-pyran-2beta-ylmethyl]-5-methyl-2,5-dihydrofuran-2-one; EI-TOF; MS; POSITIVE; EI; 70 V
Name: (5S)-3-[6Beta-[(R)-2-oxo-7-hydroxy-7-[(2R)-5alpha-[(R)-1-hydroxytridecyl]tetrahydrofuran-2beta-yl]heptyl]tetrahydro-2H-pyran-2beta-ylmethyl]-5-methyl-2,5-dihydrofuran-2-one
Class: Non-natural compound
Formula: C35H60O7
Exact mass: 592.43391
SMILES: CCCCCCCCCCCC[C@@H](O)[C@H]1CC[C@H]([C@H](O)CCCCC(=O)C[C@@H]2CCC[C@H](CC3=C[C@H](C)OC3=O)O2)O1
InChI: InChI=1S/C35H60O7/c1-3-4-5-6-7-8-9-10-11-12-19-31(37)33-21-22-34(42-33)32(38)20-14-13-16-28(36)25-30-18-15-17-29(41-30)24-27-23-26(2)40-35(27)39/h23,26,29-34,37-38H,3-22,24-25H2,1-2H3/t26-,29+,30-,31+,32+,33+,34+/m0/s1
Instrument: JMS-700V (JEOL, Akishima, Japan) coupled to nan gas chromatograph.
Instrument type: EI-TOF
Ms type: MS
Ion mode: POSITIVE
Ionization: EI
m/z	relative intensity
39.03	3
41.04	17
42.05	3
43.03	24
44.0	4
45.02	3
46.99	1
53.04	3
54.04	4
55.05	31
56.05	4
57.06	26
58.03	2
59.02	6
60.01	1
61.0	3
65.03	1
66.04	3
67.06	42
68.06	7
69.08	37
70.06	5
71.06	15
72.04	4
73.04	288
74.04	24
75.01	65
76.01	4
77.0	9
78.03	1
79.03	21
80.04	7
81.04	38
82.05	9
83.05	36
84.04	8
85.05	13
86.04	1
87.02	2
89.03	3
91.05	19
92.06	3
93.08	28
94.06	8
95.07	39
96.08	8
97.08	34
98.07	5
99.05	8
100.06	1
101.04	18
102.04	2
103.05	34
104.05	4
105.06	20
106.06	4
107.06	23
108.06	5
109.07	15
110.05	6
111.07	15
112.05	7
113.05	31
114.05	4
115.05	12
116.06	12
117.06	10
118.06	2
119.08	22
120.09	5
121.1	25
122.1	6
123.08	16
124.09	4
125.08	12
126.07	2
127.06	6
128.07	3
129.07	125
130.08	30
131.09	32
132.08	5
133.09	16
134.09	4
135.1	12
136.07	4
137.09	15
138.09	4
139.06	13
140.07	2
141.08	8
142.08	41
143.09	39
144.08	9
145.09	12
146.09	3
147.09	22
148.09	6
149.09	22
150.09	5
151.08	10
152.11	2
153.08	4
154.08	3
155.09	14
156.09	8
157.09	17
158.09	4
159.09	12
160.1	2
161.11	5
162.11	2
163.1	5
164.11	2
165.1	15
166.1	4
167.1	14
168.09	5
169.09	19
170.09	6
171.1	16
172.09	6
173.11	9
174.1	3
175.1	8
176.09	6
177.09	20
178.1	3
179.11	4
180.1	3
181.11	6
182.11	3
183.09	29
184.09	19
185.1	32
186.11	6
187.11	8
188.12	2
189.11	4
190.1	2
191.1	18
192.11	7
193.1	19
194.09	46
195.1	305
196.11	38
197.11	11
198.11	5
199.11	7
200.12	2
201.11	5
202.11	1
203.11	2
205.13	2
207.11	3
208.12	4
209.12	16
210.12	5
211.13	11
212.12	6
213.12	8
214.12	3
215.13	2
217.12	3
218.1	3
219.11	23
220.1	4
221.12	6
222.13	2
223.13	3
224.12	2
225.13	4
226.12	2
227.15	4
228.15	1
229.15	2
230.15	1
231.14	2
233.21	2
234.15	2
235.14	3
236.18	2
237.12	9
238.14	3
239.15	6
240.14	3
241.16	4
242.17	1
243.14	2
245.12	2
247.15	2
248.17	1
249.18	3
250.21	6
251.22	6
252.14	5
253.15	5
254.17	2
255.19	6
256.2	2
257.18	5
258.19	2
259.16	12
260.17	3
261.18	2
263.21	5
264.2	3
265.14	8
266.15	4
267.14	11
268.14	3
269.19	6
270.22	5
271.25	120
272.25	28
273.23	8
274.15	16
275.16	5
276.17	2
277.18	10
278.18	4
279.19	2
280.15	2
281.17	15
282.17	7
283.18	5
284.21	2
285.21	4
286.19	3
287.16	17
288.18	4
289.18	2
291.16	2
293.17	2
295.21	2
297.25	22
298.26	6
299.24	3
301.27	3
302.23	1
303.19	2
304.17	11
305.18	12
306.19	4
307.18	4
308.2	1
309.17	7
310.23	5
311.23	7
312.24	2
313.23	2
315.2	2
317.24	1
319.27	3
320.27	1
321.15	2
322.19	1
323.19	13
324.19	5
325.18	61
326.18	15
327.2	6
328.22	2
329.24	3
330.21	2
331.19	2
332.2	2
333.2	3
334.2	1
335.21	2
337.2	5
338.2	2
339.21	4
340.21	2
341.28	50
342.28	14
343.28	4
344.25	1
345.25	2
346.24	1
347.26	5
348.25	2
349.22	11
350.2	14
351.2	6
352.21	4
353.26	3
354.26	2
355.27	3
356.21	5
357.21	14
358.2	9
359.23	3
361.18	2
363.24	2
365.24	3
366.22	7
367.23	3
368.32	4
369.33	2
373.21	3
374.22	5
375.21	60
376.21	18
377.21	22
378.21	8
379.21	5
380.26	2
381.25	5
382.24	2
387.25	3
391.26	1
392.21	2
393.22	8
394.22	24
395.22	999
396.22	266
397.23	127
398.23	27
399.24	7
400.27	1
405.27	2
407.25	2
408.27	1
409.25	3
410.27	1
420.26	3
421.27	5
422.24	2
423.24	1
425.29	1
427.31	1
429.24	1
430.25	2
434.24	2
435.29	1
436.28	1
437.28	2
438.28	1
439.34	1
443.35	2
445.32	2
446.27	1
447.26	19
448.26	17
449.27	8
450.28	3
451.24	2
463.27	3
464.26	4
465.27	365
466.27	121
467.28	48
468.27	18
469.26	16
470.28	6
471.27	2
481.27	2
482.26	1
495.27	6
496.29	2
497.27	1
510.36	2
511.34	1
517.41	1
519.36	1
520.3	3
521.38	2
522.31	1
523.32	1
527.42	4
528.36	2
535.42	2
536.35	3
537.31	8
538.31	110
539.32	96
540.31	39
541.29	13
542.32	3
555.37	1
556.4	7
557.41	4
558.42	1
567.31	5
568.31	2
610.36	4
611.35	3
612.33	2
613.38	2
625.47	1
628.43	4
629.46	2
630.44	1
631.44	4
632.43	2
644.47	1
645.48	4
646.44	22
647.48	11
648.48	4
649.45	2
697.45	1
718.46	1
721.5	23
722.48	12
723.47	5
724.47	2
734.46	2
735.47	2
736.52	8
737.52	5
738.5	2
