Mass spectrum: 2-(4-Nitrophenyl)ethylamine; LC-ESI-QQ; MS2; POSITIVE; [M+H]+; CID; 50 V
Name: 2-(4-Nitrophenyl)ethylamine
Class: Non-natural product; 4-Nitrophenethylamine
Formula: C8H10N2O2
Exact mass: 166.07422
SMILES: C1=CC(=CC=C1CCN)[N+](=O)[O-]
InChI: InChI=1S/C8H10N2O2/c9-6-5-7-1-3-8(4-2-7)10(11)12/h1-4H,5-6,9H2
Instrument: Xevo TQS micro (Waters, MA, USA) coupled to ACQUITY UPLC H-Class (Waters, MA, USA)
Instrument type: LC-ESI-QQ
Ms type: MS2
Ion mode: POSITIVE
Collision energy: 50 V
Fragmentation mode: CID
Ionization: ESI
Column name: Acquity UPLC BEH AMIDE column (1.7 Âµm, 2.1 x 150 mm; Waters, MA, USA)
Precursor m/z: 167.08150
Precursor type: [M+H]+
m/z	relative intensity
29.7	11
30.1	17
38.0	8
38.4	17
38.7	49
39.1	65
39.3	24
40.7	24
40.9	10
41.1	23
41.4	10
49.8	47
50.1	17
50.4	30
50.8	110
51.1	171
51.7	68
52.1	112
52.7	7
53.2	8
62.4	6
62.8	31
63.0	72
64.5	30
64.8	92
65.0	134
65.2	89
75.1	7
75.9	40
76.2	11
77.0	999
78.0	378
78.2	255
88.7	10
89.0	9
90.1	6
90.7	144
91.0	460
101.7	11
102.0	21
102.2	15
102.7	73
103.0	218
103.2	126
103.9	9
104.3	6
