Mass spectrum: 3-Aminobutanoic acid; GC-EI-TOF; MS; POSITIVE; EI; 70 V; 2TMS
Name: 3-Aminobutanoic acid
Class: Non-natural compound
Formula: C4H9NO2
Exact mass: 103.0633285
SMILES: CC(CC(=O)O)N
InChI: InChI=1S/C4H9NO2/c1-3(5)2-4(6)7/h3H,2,5H2,1H3,(H,6,7)
Instrument: JMS-T100GCV (JEOL, Akishima, Japan) coupled to Agilent 7890A (Santa Clara, CA, USA) gas chromatograph.
Instrument type: GC-EI-TOF
Ms type: MS
Ion mode: POSITIVE
Ionization: EI
Column name: DB-5MS UI 122-5532UI US0462866H (Agilent, Wilmington, USA) with the length 30 m, I.D. 0.25 mm, and thickness 0.25 micrometer.
Retention time: 7.52 min.
Derivative form: C10H25NO2Si2
Derivative mass: 247.14238
Derivative type: 2TMS
m/z	relative intensity
27.977	1
28.006	2
28.985	5
31.001	4
39.024	2
41.04	6
41.993	1
42.011	1
42.035	7
43.001	25
43.019	6
44.008	15
44.051	8
44.98	8
45.016	70
46.015	5
46.996	9
55.001	3
55.997	2
56.051	3
57.017	6
58.024	12
58.066	1
58.997	2
59.032	77
60.03	9
61.012	9
66.022	7
68.051	1
69.035	4
70.026	5
71.032	3
72.04	18
73.048	579
73.47	2
73.752	1
74.048	55
74.412	1
75.027	58
76.028	5
77.024	3
79.527	3
80.534	2
84.042	4
85.046	1
86.043	9
86.535	1
87.044	1
87.543	90
88.043	17
88.542	7
89.041	1
98.043	3
99.027	12
100.059	183
100.53	1
101.006	3
101.06	18
102.053	8
103.004	2
105.02	1
108.549	4
114.074	23
115.004	4
115.081	9
116.03	3
116.09	999
116.476	2
116.623	3
117.036	20
117.091	113
117.379	1
117.799	1
118.036	2
118.088	38
119.034	2
119.09	3
129.098	3
130.051	1
130.105	13
131.035	16
131.106	2
132.032	7
132.101	1
133.05	12
134.051	2
142.069	5
143.054	2
146.082	3
147.066	171
148.067	28
149.064	14
150.065	2
158.063	1
163.094	1
174.095	13
175.095	2
188.128	8
189.077	16
190.108	86
191.109	17
191.226	1
192.105	7
193.106	1
204.101	2
216.088	2
230.103	1
232.119	140
233.12	30
234.117	13
235.119	2
246.135	4
247.142	5
248.142	1
