Mass spectrum: Tyramine; LC-ESI-QQ; MS2; POSITIVE; [M+H]+; CID; 40 V
Name: Tyramine
Class: Non-natural product; Tyramine
Formula: C8H11NO
Exact mass: 137.08406
SMILES: C1=CC(=CC=C1CCN)O
InChI: InChI=1S/C8H11NO/c9-6-5-7-1-3-8(10)4-2-7/h1-4,10H,5-6,9H2
Instrument: Xevo TQS micro (Waters, MA, USA) coupled to ACQUITY UPLC H-Class (Waters, MA, USA)
Instrument type: LC-ESI-QQ
Ms type: MS2
Ion mode: POSITIVE
Collision energy: 40 V
Fragmentation mode: CID
Ionization: ESI
Column name: Acquity UPLC BEH AMIDE column (1.7 Âµm, 2.1 x 150 mm; Waters, MA, USA)
Precursor m/z: 138.09134
Precursor type: [M+H]+
m/z	relative intensity
39.1	112
50.9	445
51.2	285
64.9	142
76.8	520
77.0	999
77.3	304
90.9	174
