Mass spectrum: (3S)-3-Methylheptyl pivalate; GC-FI-TOF; MS; positive; FI; 10 kV
Name: (3S)-3-Methylheptyl pivalate
Class: Non-natural product
Formula: C13H26O2
Exact mass: 214.19328
SMILES: CCCC[C@H](C)CCOC(=O)C(C)(C)C
InChI: InChI=1S/C13H26O2/c1-6-7-8-11(2)9-10-15-12(14)13(3,4)5/h11H,6-10H2,1-5H3/t11-/m0/s1
Instrument: JMS-T100GCV (JEOL, Akishima, Japan) coupled to Agilent 7890A (Agilent, Wilmington, USA) gas chromatograph.
Instrument type: GC-FI-TOF
Ms type: MS
Ion mode: POSITIVE
Ionization: FI
Column name: HP-5 19091 J-413 USD364547H (Agilent, Wilmington, USA), length 30.0 m, I.D. 0.32 mm, thickness 0.25 micrometer.
Retention time: 7.46 min.
m/z	relative intensity
29.042	41
30.945	45
36.95	40
42.485	35
43.332	36
55.979	32
57.071	807
58.073	55
63.233	39
69.587	36
71.158	34
83.094	39
84.212	32
85.065	125
85.102	104
96.674	47
103.078	76
112.126	999
113.131	201
157.122	281
197.943	39
213.188	72
214.193	95
215.200	521
216.205	65
