Mass spectrum: Succinic acid; GC-EI-Q; MS; POSITIVE; 2TMS-derivative
Name: Succinic acid
Class: Natural Product
Formula: C4H6O4
Exact mass: 118.02661
SMILES: OC(=O)CCC(O)=O
InChI: InChI=1S/C4H6O4/c5-3(6)1-2-4(7)8/h1-2H2,(H,5,6)(H,7,8)
Instrument: GCMS-QP2010 Ultra (Shimadzu, Kyoto, Japan)
Instrument type: GC-EI-Q
Ms type: MS
Ion mode: POSITIVE
Column name: DB-5MS+DG (Agilent Technologies, Santa Clara, CA, USA)
Derivative form: C10H22O4Si2
Derivative mass: 262.10566
Derivative type: 2 TMS
m/z	relative intensity
55.05	147
56.05	95
57.05	26
58.05	35
59.05	39
60	11
61	41
72.15	40
73.05	781
74.05	79
75	341
76.05	24
77	15
86.05	12
115	10
116.05	22
117	15
129.05	71
130.05	11
131.05	19
133.05	34
147.1	999
148.1	156
149.1	86
172	31
173	20
247.05	96
248.05	19
