Mass spectrum: p-Cresol sulfate; ESI-QTOF; MS2; NEGATIVE; [M-H]-; CID; 30 V
Name: p-Cresol sulfate
Class: Non-natural product; Aryl sulfate
Formula: C7H8O4S
Exact mass: 188.01433
SMILES: CC1=CC=C(C=C1)OS(=O)(=O)O
InChI: InChI=1S/C7H8O4S/c1-6-2-4-7(5-3-6)11-12(8,9)10/h2-5H,1H3,(H,8,9,10)
Instrument: X500R QTOF (AB Sciex LLC, USA)
Instrument type: ESI-QTOF
Ms type: MS2
Ion mode: NEGATIVE
Collision energy: 30 V
Fragmentation mode: CID
Ionization: ESI
Precursor m/z: 187.00705
Precursor type: [M-H]-
m/z	relative intensity
77.0392	73
79.9557	711
80.9643	216
105.0336	247
106.0412	337
107.0509	999
107.4271	68
107.538	118
187.007	78
