Mass spectrum: 3,8-Diamino-6-phenylphenanthridine; ESI-QQ; MS2; [M+H]+, CID, CE 35 V
Name: 3,8-Diamino-6-phenylphenanthridine
Class: Non-natural product
Formula: C19H15N3
Exact mass: 285.12659
SMILES: c1ccc(cc1)c2c3cc(ccc3c4ccc(cc4n2)N)N
InChI: InChI=1S/C19H15N3/c20-13-6-8-15-16-9-7-14(21)11-18(16)22-19(17(15)10-13)12-4-2-1-3-5-12/h1-11H,20-21H2
Instrument: LCMS-8045 (Shimadzu, Kyoto, Japan)
Instrument type: LC-ESI-QQ
Ms type: MS2
Ion mode: POSITIVE
Collision energy: 35 V
Fragmentation mode: CID
Ionization: ESI
Precursor m/z: 286.13386
Precursor type: [M+H]+
m/z	relative intensity
153.7	68
156.3	55
166.2	122
167.05	133
181.05	700
182.1	93
190.9	318
192.05	255
208.1	999
209.25	83
269.1	169
