Mass spectrum: 3-Nitrobenzyl alcohol; FAB-BE; MS; Positive; Matrix 3-Nitrobenzyl alcohol
Name: 3-Nitrobenzyl alcohol
Class: Non-Natural Product
Formula: C7H7NO3
Exact mass: 153.04259
SMILES: OCc(c1)cc(cc1)[N+1]([O-1])=O
InChI: InChI=1S/C7H7NO3/c9-5-6-2-1-3-7(4-6)8(10)11/h1-4,9H,5H2
Instrument: JMS-700, JEOL
Instrument type: FAB-BE
Ms type: MS
Ion mode: POSITIVE
Ionization: FAB
m/z	relative intensity
27	24
29	13
30	8
31	31
38	14
39	85
40	9
41	47
43	36
50	33
51	78
52	25
53	30
54	5
55	48
57	29
62	20
63	76
64	22
65	75
66	20
67	35
68	7
69	37
71	16
74	17
75	30
76	33
77	186
78	88
79	63
80	10
81	30
82	5
83	21
85	9
86	7
87	14
88	12
89	215
90	145
91	111
92	25
93	24
94	23
95	48
96	5
97	16
101	8
102	20
103	17
104	20
105	75
106	61
107	206
108	59
109	20
110	5
111	7
113	9
114	6
115	39
116	11
117	10
118	11
119	38
120	97
121	49
122	24
123	33
124	67
125	20
126	13
127	20
128	26
129	16
130	7
131	10
132	6
133	10
134	13
135	50
136	687
137	470
138	234
139	77
140	14
141	13
142	6
143	9
145	10
147	7
149	9
150	26
151	20
152	67
153	50
154	999
155	208
156	35
157	9
159	7
163	12
164	12
165	41
166	25
167	20
168	12
169	12
170	8
171	6
176	10
177	6
178	14
179	8
180	7
181	9
182	6
183	10
189	7
195	6
196	5
212	5
213	5
216	5
226	5
242	8
259	5
260	7
272	7
273	12
274	7
287	7
289	115
290	28
291	15
292	6
307	207
308	47
309	10
460	23
461	5
