Mass spectrum: 2-(4-Chlorophenyl)ethylamine; LC-ESI-QQ; MS2; POSITIVE; [M+H]+; CID; 30 V
Name: 2-(4-Chlorophenyl)ethylamine
Class: Non-natural product; Phenethylamine
Formula: C8H10ClN
Exact mass: 155.05017
SMILES: C1=CC(=CC=C1CCN)Cl
InChI: InChI=1S/C8H10ClN/c9-8-3-1-7(2-4-8)5-6-10/h1-4H,5-6,10H2
Instrument: Xevo TQS micro (Waters, MA, USA) coupled to ACQUITY UPLC H-Class (Waters, MA, USA)
Instrument type: LC-ESI-QQ
Ms type: MS2
Ion mode: POSITIVE
Collision energy: 30 V
Fragmentation mode: CID
Ionization: ESI
Column name: Acquity UPLC BEH AMIDE column (1.7 Âµm, 2.1 x 150 mm; Waters, MA, USA)
Precursor m/z: 156.05745
Precursor type: [M+H]+
m/z	relative intensity
50.9	28
77.0	999
77.9	51
78.1	12
78.3	18
101.9	34
102.1	15
103.0	512
103.7	24
103.9	54
104.2	63
139	14
