Mass spectrum: Triphenylguanidine; ESI-QTOF; MS; ESI; NEGATIVE
Name: Triphenylguanidine
Class: Non-natural product
Formula: C19H17N3
Exact mass: 287.14224
SMILES: c1ccc(N=C(Nc2ccccc2)Nc2ccccc2)cc1
InChI: InChI=1S/C19H17N3/c1-4-10-16(11-5-1)20-19(21-17-12-6-2-7-13-17)22-18-14-8-3-9-15-18/h1-15H,(H2,20,21,22)
Instrument: X500R QTOF (AB Sciex LLC, USA)
Instrument type: ESI-QTOF
Ms type: MS
Ion mode: NEGATIVE
Ionization: ESI
m/z	relative intensity
286.1347	999
287.1383	216
322.112	45
324.1094	16
