Mass spectrum: 2-(4-Chlorophenyl)ethylamine; LC-ESI-QQ; MS2; POSITIVE; [M+H]+; CID; 40 V
Name: 2-(4-Chlorophenyl)ethylamine
Class: Non-natural product; Phenethylamine
Formula: C8H10ClN
Exact mass: 155.05017
SMILES: C1=CC(=CC=C1CCN)Cl
InChI: InChI=1S/C8H10ClN/c9-8-3-1-7(2-4-8)5-6-10/h1-4H,5-6,10H2
Instrument: Xevo TQS micro (Waters, MA, USA) coupled to ACQUITY UPLC H-Class (Waters, MA, USA)
Instrument type: LC-ESI-QQ
Ms type: MS2
Ion mode: POSITIVE
Collision energy: 40 V
Fragmentation mode: CID
Ionization: ESI
Column name: Acquity UPLC BEH AMIDE column (1.7 Âµm, 2.1 x 150 mm; Waters, MA, USA)
Precursor m/z: 156.057450
Precursor type: [M+H]+
m/z	relative intensity
38.9	5
49.7	7
50.1	11
50.9	307
51.2	195
52.3	5
53.0	8
62.9	12
73.9	9
74	10
74.4	7
74.8	47
75.0	29
75.2	52
75.9	17
76.1	10
76.9	999
77.1	857
77.9	112
78.1	149
84.9	5
100.8	12
101.0	6
101.3	6
101.5	6
101.7	15
101.8	21
102.1	52
102.8	165
103.1	213
103.8	38
104.0	38
104.2	44
110.7	11
111.1	14
