Mass spectrum: Oryzalin; LC-ESI-QTOF; MS2; ESI; POSITIVE; CE 50 V
Name: Oryzalin
Class: Non-natural product
Formula: C12H18N4O6S
Exact mass: 346.09469
SMILES: CCCN(CCC)c1c([N+](=O)[O-])cc(S(N)(=O)=O)cc1[N+](=O)[O-]
InChI: InChI=1S/C12H18N4O6S/c1-3-5-14(6-4-2)12-10(15(17)18)7-9(23(13,21)22)8-11(12)16(19)20/h7-8H,3-6H2,1-2H3,(H2,13,21,22)
Instrument: ExionLC AD, AB Sciex LLC, USA; X500R QTOF, AB Sciex LLC, USA.
Instrument type: LC-ESI-QTOF
Ms type: MS2
Ion mode: POSITIVE
Collision energy: 50 V
Ionization: ESI
Column name: AQ-C18HP 3 microm, 2.1 mm Ã— 150 mm, GL Science (Tokyo Japan)
Retention time: 14.3 min
Precursor m/z: 347.10197
Precursor type: [M+H]+
m/z	relative intensity
39.0242	149
41.0391	960
43.0545	999
78.0342	463
105.0459	267
116.0502	181
117.0581	647
119.0248	356
133.0406	886
143.0609	201
198.0152	919
213.0213	377
