Mass spectrum: alpha-Ketoglutaric acid; GC-EI-QQ; MS2; positive; CID 10 V; MEOX,2TBDMS-derivative; [M-247]+
Name: alpha-Ketoglutaric acid
Class: Natural Product; glutaric acid
Formula: C5H6O5
Exact mass: 146.02153
SMILES: OC(=O)C(=O)CCC(=O)O
InChI: InChI=1S/C5H6O5/c6-3(5(9)10)1-2-4(7)8/h1-2H2,(H,7,8)(H,9,10)
Instrument: GCMS-QP2010 Ultra (Shimadzu, Kyoto, Japan)
Instrument type: GC-EI-QQ
Ms type: MS2
Ion mode: POSITIVE
Collision energy: 10 V
Fragmentation mode: CID
Column name: DB-5MS+DG (Agilent Technologies, Santa Clara, CA, USA)
Derivative form: C18H37NO5Si2
Derivative mass: 403.22102
Derivative type: MEOX, 2TBDMS
Precursor m/z: 156.04753
m/z	relative intensity	assigned
55	343	
75.05	999	
85.1	21	
110.1	19	
112.1	188	
156.05	573	C6H10NO2Si+
