Mass spectrum: Acetamiprid; GC-EI-Q; MS; Positive; M+*
Name: Acetamiprid
Class: Non-Natural Product; Pesticides
Formula: C10H11ClN4
Exact mass: 222.06722
SMILES: N#CN=C(C)N(C)Cc(c1)cnc(Cl)c1
InChI: InChI=1S/C10H11ClN4/c1-8(14-7-12)15(2)6-9-3-4-10(11)13-5-9/h3-5H,6H2,1-2H3
Instrument: GCMS-QP2010 Plus, Shimadzu
Instrument type: GC-EI-Q
Ms type: MS
Ion mode: POSITIVE
Ionization: EI
Column name: Ptx-5MS(RESTEK), 0.32 mm I.D. x 30 m, df=0.25 microm
Retention time: 17.0 min
Ion type: [M]+*
Precursor m/z: 222.07
m/z	relative intensity
40	8
41	92
42	622
43	131
46	11
47	10
49	46
50	77
51	70
52	60
53	16
54	56
55	91
56	999
57	74
58	5
62	31
63	213
64	68
65	98
66	48
67	363
68	19
69	39
71	122
72	17
73	134
75	99
76	99
77	38
79	24
80	38
84	31
85	39
87	11
90	347
91	118
92	40
93	45
94	6
97	8
98	37
99	221
100	32
101	82
102	25
103	30
104	15
106	29
109	15
112	60
113	33
114	92
116	32
117	9
118	19
119	35
121	7
122	12
124	15
125	11
126	589
127	136
128	204
129	82
130	15
131	15
132	7
136	7
138	7
139	74
141	214
142	7
143	76
144	28
145	5
146	26
152	725
153	338
154	272
155	294
156	28
157	48
159	15
160	17
161	9
163	24
166	262
167	54
168	88
169	15
170	19
171	24
172	6
174	5
180	11
181	127
182	58
183	52
184	9
185	11
187	50
188	19
194	17
197	13
198	60
199	5
200	49
206	9
212	7
217	11
221	207
222	72
223	57
224	13
226	5
228	7
233	6
236	6
240	6
241	5
251	5
278	7
296	11
303	5
336	5
349	7
352	5
353	10
355	17
412	13
431	7
457	5
460	5
485	5
488	6
492	7
496	5
497	13
506	8
511	11
537	10
567	6
570	19
585	7
597	12
