Mass spectrum: Pentoxazone; ESI-QTOF; MS2; POSITIVE; [M+H]+; CID; 60 V
Name: Pentoxazone
Class: Non-natural product
Formula: C17H17ClFNO4
Exact mass: 353.0830
SMILES: CC(=C1C(=O)N(C(=O)O1)c2cc(c(cc2F)Cl)OC3CCCC3)C
InChI: InChI=1S/C17H17ClFNO4/c1-9(2)15-16(21)20(17(22)24-15)13-8-14(11(18)7-12(13)19)23-10-5-3-4-6-10/h7-8,10H,3-6H2,1-2H3
Instrument: X500R QTOF (AB Sciex LLC, USA)
Instrument type: ESI-QTOF
Ms type: MS2
Ion mode: POSITIVE
Collision energy: 60 V
Fragmentation mode: CID
Ionization: ESI
Precursor m/z: 354.0903
Precursor type: [M+H]+
m/z	relative intensity
29.0383	83
39.0228	150
41.0385	518
42.0463	78
43.0176	726
43.0539	81
51.9399	61
53.0384	307
55.054	284
69.0697	415
70.0412	90
71.0479	76
76.0181	184
77.0385	72
81.0134	49
89.0385	55
90.9746	77
103.0543	178
111.9948	96
116.0493	106
116.9902	958
124.019	191
130.0651	244
132.9851	999
133.0446	96
135.0476	161
136.0556	267
139.9897	761
144.9851	320
150.0712	150
153.0219	439
159.9961	359
164.0505	820
165.0581	118
178.0662	380
179.074	297
186.0117	669
192.0458	246
