Mass spectrum: zeta-Carotene; LC-ESI-QTOF; MS2; POSITIVE; ESI; [M+H]+; COLLISION_ENERGY 20 V
Name: zeta-Carotene
Name: All-trans-zeta-carotene
Name: xi-Carotene
Class: Natural product; carotenoids, carotene
Formula: C40H60
Exact mass: 540.46950
SMILES: CC(=CCC/C(=C/CC/C(=C/C=C/C(=C/C=C/C=C(/C=C/C=C(/CC/C=C(/CCC=C(C)C)\C)\C)\C)/C)/C)/C)C
InChI: InChI=1S/C40H60/c1-33(2)19-13-23-37(7)27-17-31-39(9)29-15-25-35(5)21-11-12-22-36(6)26-16-30-40(10)32-18-28-38(8)24-14-20-34(3)4/h11-12,15-16,19-22,25-30H,13-14,17-18,23-24,31-32H2,1-10H3/b12-11+,25-15+,26-16+,35-21+,36-22+,37-27+,38-28+,39-29+,40-30+
Instrument: Xevo G2-S QtOF, Waters (USA) coupled to ACQUITY UPLC, Waters (USA).
Instrument type: LC-ESI-QTOF
Ms type: MS2
Ion mode: POSITIVE
Collision energy: 20 V
Ionization: ESI
Column name: BEH C18, I.D. 2.1 mm, length 100 mm, thickness 1.7 micrometer.
Ion type: [M+H]+
Precursor m/z: 541.47678
m/z	relative intensity
69.071	218
81.071	999
83.086	58
93.071	219
95.086	603
97.098	67
97.103	91
105.069	150
107.085	144
109.101	808
110.105	81
119.086	513
120.096	56
121.101	656
123.117	439
133.099	361
133.105	344
134.103	82
135.117	425
137.132	698
138.137	90
143.085	188
145.100	399
147.117	536
148.124	115
149.133	430
150.135	93
157.098	232
157.105	257
158.098	50
159.117	515
160.119	76
161.132	446
163.145	199
165.165	64
169.101	315
171.113	214
171.122	178
172.120	82
173.132	459
173.139	99
174.144	64
175.144	127
175.151	211
176.149	62
177.165	136
183.116	140
185.135	322
187.147	288
188.153	56
189.160	104
189.168	131
191.180	51
195.115	84
197.134	374
199.149	458
200.147	62
200.157	59
201.164	80
201.173	98
202.160	62
202.170	61
203.176	239
204.181	60
209.133	168
211.146	518
211.160	65
212.150	104
213.164	251
215.182	159
223.148	72
225.166	103
227.184	130
229.192	102
237.157	68
239.179	106
241.195	119
243.212	58
245.230	55
251.180	134
251.190	64
253.197	176
257.219	68
265.194	171
267.208	64
269.235	96
270.233	59
271.240	133
275.176	61
279.210	141
281.222	88
283.241	91
297.263	65
307.237	55
309.254	247
309.265	146
310.266	98
311.275	164
321.257	70
322.261	73
323.273	113
334.256	95
335.271	70
347.267	56
347.280	75
349.289	57
349.304	82
361.285	57
391.327	75
402.024	75
403.332	969
403.345	450
404.337	452
459.392	64
496.224	54
539.462	354
540.467	242
540.493	53
541.126	50
541.355	76
541.473	920
541.497	206
542.457	64
542.479	345
