Mass spectrum: Trigonelline; ESI-QTOF; MS2; POSITIVE; [M+H]+; CID; 50 V
Name: Trigonelline
Class: Alkaloid
Formula: C7H7NO2
Exact mass: 137.04768
SMILES: C[N+]1=CC=CC(=C1)C(=O)[O-]
InChI: InChI=1S/C7H7NO2/c1-8-4-2-3-6(5-8)7(9)10/h2-5H,1H3
Instrument: X500R QTOF (AB Sciex LLC, USA)
Instrument type: ESI-QTOF
Ms type: MS2
Ion mode: POSITIVE
Collision energy: 50 V
Fragmentation mode: CID
Ionization: ESI
Precursor m/z: 138.05495
Precursor type: [M+H]+
m/z	relative intensity	assigned
27.0227	407	
28.0179	52	
39.0228	999	
40.0306	77	
41.0385	727	
42.0337	630	
44.9969	49	[CHO2]+
50.0151	72	
51.0229	573	
52.0306	740	
53.0385	672	
65.0386	906	
66.034	327	
66.046	243	
67.0418	161	
67.0537	88	
78.0338	429	[C5H6N-2H]+
79.0417	473	[C5H6N-H]+
80.0494	105	
92.0494	306	[C6H8N-2H]+
93.0572	167	
94.065	116	
