Mass spectrum: Tetrabromobisphenol A; ESI-QTOF; MS; NEGATIVE
Name: Tetrabromobisphenol A
Class: Non-natural product; Bromobisphenol
Formula: C15H12Br4O2
Exact mass: 539.75708
SMILES: CC(C)(C1=CC(=C(C(=C1)Br)O)Br)C2=CC(=C(C(=C2)Br)O)Br
InChI: InChI=1S/C15H12Br4O2/c1-15(2,7-3-9(16)13(20)10(17)4-7)8-5-11(18)14(21)12(19)6-8/h3-6,20-21H,1-2H3
Instrument: X500R QTOF (AB Sciex LLC, USA)
Instrument type: ESI-QTOF
Ms type: MS
Ion mode: NEGATIVE
Ionization: ESI
m/z	relative intensity
538.7572	185
540.7548	696
541.7586	122
542.7527	999
543.7567	177
544.751	676
545.7547	116
546.7495	180
