Mass spectrum: 3-((4-Methoxybenzyl)oxy)-2,2-dimethylhex-5-enal; GC-FI-TOF; MS; positive; FI; 10 kV
Name: 3-((4-Methoxybenzyl)oxy)-2,2-dimethylhex-5-enal
Class: Non-natural product
Formula: C16H22O3
Exact mass: 262.15690
SMILES: COC1=CC=C(COC(CC=C)C(C)(C)C=O)C=C1
InChI: InChI=1S/C16H22O3/c1-5-6-15(16(2,3)12-17)19-11-13-7-9-14(18-4)10-8-13/h5,7-10,12,15H,1,6,11H2,2-4H3
Instrument: JMS-T100GCV (JEOL, Akishima, Japan) coupled to Agilent 7890A (Agilent, Wilmington, USA) gas chromatograph.
Instrument type: GC-FI-TOF
Ms type: MS
Ion mode: POSITIVE
Ionization: FI
Column name: HP-5 19091 J-413 USD364547H (Agilent, Wilmington, USA), length 30.0 m, I.D. 0.32 mm, thickness 0.25 micrometer.
Retention time: 10.03 min.
m/z	relative intensity
150.052	9
164.063	4
221.123	2
234.158	105
235.161	17
236.164	2
238.323	5
262.157	999
262.885	3
263.16	169
264.017	2
264.164	24
264.722	1
265.169	3
