Mass spectrum: 3-Aminoisobutyric acid; GC-EI-TOF; MS; POSITIVE; EI; 70 V; 3TMS
Name: 3-Aminoisobutyric acid
Class: Non-natural compound
Formula: C4H9NO2
Exact mass: 103.0633285
SMILES: CC(CN)C(=O)O
InChI: InChI=1S/C4H9NO2/c1-3(2-5)4(6)7/h3H,2,5H2,1H3,(H,6,7)
Instrument: JMS-T100GCV (JEOL, Akishima, Japan) coupled to Agilent 7890A (Santa Clara, CA, USA) gas chromatograph.
Instrument type: GC-EI-TOF
Ms type: MS
Ion mode: POSITIVE
Ionization: EI
Column name: DB-5MS UI 122-5532UI US0462866H (Agilent, Wilmington, USA) with the length 30 m, I.D. 0.25 mm, and thickness 0.25 micrometer.
Retention time: 8.85 min.
Derivative form: C13H33NO2Si3
Derivative mass: 319.18191
Derivative type: 3TMS
m/z	relative intensity
28.006	4
41.04	4
43.001	8
44.008	7
45.016	50
46.016	3
46.996	3
57.034	4
58.024	9
59.032	70
60.032	5
61.012	3
68.05	4
69.034	2
71.032	2
72.04	8
73.048	495
73.423	1
74.049	39
75.028	26
85.047	2
86.043	90
87.044	7
88.04	3
99.026	2
100.004	9
100.058	42
101.02	2
101.06	4
102.073	3
113.035	3
114.02	3
114.074	7
115.031	3
116.036	5
117.02	6
117.055	8
119.035	5
129.04	4
130.051	66
131.043	15
132.045	6
133.051	64
133.142	1
134.051	9
135.048	5
142.068	2
144.067	4
146.082	9
147.066	116
148.067	18
149.064	8
158.082	5
160.062	10
161.066	2
172.098	11
173.1	2
174.114	999
174.585	2
174.697	3
175.115	176
175.704	2
176.112	76
176.701	2
177.113	9
178.111	2
186.114	3
188.038	2
204.07	4
246.134	9
247.135	2
248.131	203
249.133	51
250.13	25
251.131	4
288.128	3
304.158	73
305.16	20
306.157	10
307.158	2
