Mass spectrum: (E)-6,7-Epoxynon-2-enal; GC-FI-TOF; MS; positive; FI; 10 kV
Name: (E)-6,7-Epoxynon-2-enal
Class: Non-natural product
Formula: C9H14O2
Exact mass: 154.09938
SMILES: CCC1C(O1)CC/C=C/C=O
InChI: InChI=1S/C9H14O2/c1-2-8-9(11-8)6-4-3-5-7-10/h3,5,7-9H,2,4,6H2,1H3/b5-3+
Instrument: JMS-T100GCV (JEOL, Akishima, Japan) coupled to Agilent 7890A (Agilent, Wilmington, USA) gas chromatograph.
Instrument type: GC-FI-TOF
Ms type: MS
Ion mode: POSITIVE
Ionization: FI
Column name: HP-5 19091 J-413 USD364547H (Agilent, Wilmington, USA), length 30.0 m, I.D. 0.32 mm, thickness 0.25 micrometer.
Retention time: 7.6 min.
m/z	relative intensity
112.053	288
154.099	999
155.106	371
