Mass spectrum: N,N-Dimethylglycine; GC-EI-TOF; MS; POSITIVE; EI; 70 V; TMS
Name: N,N-Dimethylglycine
Class: Non-natural compound
Formula: C4H9NO2
Exact mass: 103.0633285
SMILES: CN(C)CC(=O)O
InChI: InChI=1S/C4H9NO2/c1-5(2)3-4(6)7/h3H2,1-2H3,(H,6,7)
Instrument: JMS-T100GCV (JEOL, Akishima, Japan) coupled to Agilent 7890A (Santa Clara, CA, USA) gas chromatograph.
Instrument type: GC-EI-TOF
Ms type: MS
Ion mode: POSITIVE
Ionization: EI
Column name: DB-5MS UI 122-5532UI US0462866H (Agilent, Wilmington, USA) with the length 30 m, I.D. 0.25 mm, and thickness 0.25 micrometer.
Retention time: 5.56 min.
Derivative form: C7H17NO2Si
Derivative mass: 175.10285
Derivative type: TMS
m/z	relative intensity
27.024	2
28.006	3
28.019	4
28.985	3
29.04	5
30.035	16
41.027	3
42.035	51
42.087	1
43.001	10
43.042	9
44.008	3
44.05	5
44.98	12
45.016	13
46.996	7
56.05	5
57.017	2
57.058	13
58.024	8
58.066	999
58.339	2
58.441	3
58.698	2
58.996	5
59.031	5
59.069	36
59.269	1
59.546	1
59.59	1
61.011	3
72.04	2
73.048	33
74.019	1
74.049	3
75.027	21
76.028	2
77.023	5
79.536	2
80.04	2
101.006	1
102.073	1
103.058	4
117.037	3
130.069	2
132.084	1
160.08	32
161.081	4
162.078	2
175.103	22
176.105	3
177.103	1
