Mass spectrum: gamma-Carotene; LC-ESI-QTOF; MS2; POSITIVE; ESI; [M]+; COLLISION_ENERGY 20 V
Name: gamma-Carotene
Name: beta,psi-Carotene
Class: Natural product; carotenoids, carotene
Formula: C40H56
Exact mass: 536.43820
SMILES: CC1=C(C(CCC1)(C)C)/C=C/C(=C/C=C/C(=C/C=C/C=C(\C)/C=C/C=C(\C)/C=C/C=C(\C)/CCC=C(C)C)/C)/C
InChI: InChI=1S/C40H56/c1-32(2)18-13-21-35(5)24-15-26-36(6)25-14-22-33(3)19-11-12-20-34(4)23-16-27-37(7)29-30-39-38(8)28-17-31-40(39,9)10/h11-12,14-16,18-20,22-27,29-30H,13,17,21,28,31H2,1-10H3/b12-11+,22-14+,23-16+,26-15+,30-29+,33-19+,34-20+,35-24+,36-25+,37-27+
Instrument: Xevo G2-S QtOF, Waters (USA) coupled to ACQUITY UPLC, Waters (USA).
Instrument type: LC-ESI-QTOF
Ms type: MS2
Ion mode: POSITIVE
Collision energy: 20 V
Ionization: ESI
Column name: BEH C18, I.D. 2.1 mm, length 100 mm, thickness 1.7 micrometer.
Ion type: [M]+
Precursor m/z: 536.43765
m/z	relative intensity
69.07	107
81.07	297
83.086	105
93.07	184
95.086	433
105.07	177
107.086	366
109.102	369
119.086	745
120.092	161
121.101	567
122.107	78
123.117	261
131.087	118
133.102	416
135.118	270
137.132	334
143.086	170
145.102	488
146.105	109
147.116	365
149.133	213
157.102	583
158.107	134
159.117	451
160.123	128
161.133	322
163.149	99
169.102	191
170.108	76
171.117	485
172.121	71
173.133	590
174.137	110
175.149	390
176.154	91
177.164	935
178.168	121
183.118	302
184.123	79
185.133	420
186.139	98
187.149	311
188.154	76
189.164	291
195.118	200
196.124	77
197.132	308
198.139	79
199.149	414
200.154	80
201.164	180
203.18	270
207.118	108
209.133	460
210.137	118
211.148	348
212.152	79
213.163	305
214.17	90
215.179	124
221.133	179
222.139	90
223.148	244
225.164	212
227.179	150
229.194	131
233.132	84
235.148	188
236.154	71
237.164	181
239.18	175
241.195	170
243.211	193
244.218	129
247.149	109
249.164	154
251.18	216
253.195	103
254.202	92
255.21	165
261.164	144
263.179	114
265.195	139
267.211	269
268.216	86
269.227	632
270.231	166
275.179	155
277.196	173
279.212	112
281.226	186
282.232	76
289.195	105
291.212	112
293.228	110
305.228	77
307.243	126
309.256	118
317.227	94
319.242	95
320.247	81
321.257	73
329.227	81
331.243	98
333.259	173
335.274	82
343.241	76
345.26	71
346.265	119
347.271	72
350.297	218
359.275	109
361.29	74
375.305	388
376.308	137
399.305	115
444.376	451
445.379	133
454.359	72
467.367	328
468.37	101
521.415	140
535.431	410
535.469	187
536.438	999
536.477	72
537.338	112
537.443	505
538.443	108
