Mass spectrum: Triphenylguanidine; ESI-QTOF; MS2; ESI; POSITIVE; [M+H]+; CE 60 V
Name: Triphenylguanidine
Class: Non-natural product
Formula: C19H17N3
Exact mass: 287.14224
SMILES: c1ccc(N=C(Nc2ccccc2)Nc2ccccc2)cc1
InChI: InChI=1S/C19H17N3/c1-4-10-16(11-5-1)20-19(21-17-12-6-2-7-13-17)22-18-14-8-3-9-15-18/h1-15H,(H2,20,21,22)
Instrument: X500R QTOF (AB Sciex LLC, USA)
Instrument type: ESI-QTOF
Ms type: MS2
Ion mode: POSITIVE
Collision energy: 60 V
Ionization: ESI
Precursor m/z: 288.14951
Precursor type: [M+H]+
m/z	relative intensity
39.0231	246
51.0228	605
65.0379	844
77.0379	930
78.0456	136
92.0486	999
93.0555	153
94.0649	603
117.0451	251
167.0731	345
168.0813	137
195.0918	353
