Mass spectrum: (1R,2R)-2-(1,2-Dimethyl-3-methylenecyclopentyl)ethanol; GC-EI-TOF; MS; positive; EI; 70 V
Name: (1R,2R)-2-(1,2-Dimethyl-3-methylenecyclopentyl)ethanol
Class: Non-natural product
Formula: C10H18O
Exact mass: 154.13577
SMILES: C[C@]1(CCO)CCC(=C)[C@H]1C
InChI: InChI=1S/C10H18O/c1-8-4-5-10(3,6-7-11)9(8)2/h9,11H,1,4-7H2,2-3H3/t9-,10-/m1/s1
Instrument: JMS-T100GCV (JEOL, Akishima, Japan) coupled to Agilent 7890A (Agilent, Wilmington, USA) gas chromatograph.
Instrument type: GC-EI-TOF
Ms type: MS
Ion mode: POSITIVE
Ionization: EI
Column name: HP-5 19091 J-413 USD364547H (Agilent, Wilmington, USA), length 30 m, I.D. 0.32 mm, thickness 0.25 micrometer.
Retention time: 7.06 min.
m/z	relative intensity
26.016	8
27.023	213
28.006	26
28.031	41
29.003	38
29.039	170
30.01	4
30.042	3
31.018	296
31.99	16
32.022	4
38.016	8
39.023	320
40.031	97
41.039	622
41.321	2
41.355	2
42.011	3
42.046	53
43.018	83
43.055	122
44.026	13
44.058	4
45.034	17
50.016	14
51.024	62
52.031	35
53.039	294
53.143	2
54.046	51
55.019	7
55.055	300
55.158	2
56.062	44
57.034	14
57.07	44
58.04	2
62.015	3
63.024	15
64.031	4
65.039	104
66.046	35
67.055	608
67.422	2
68.062	217
69.034	11
69.07	231
70.042	5
70.077	33
71.05	34
71.085	5
72.056	3
77.039	199
77.161	1
78.046	36
79.055	323
79.328	2
80.061	55
80.14	1
81.036	2
81.07	289
82.077	64
83.05	30
83.085	22
84.057	64
84.093	5
85.065	68
86.07	5
89.039	3
91.055	234
91.191	2
91.328	2
92.06	30
93.07	417
94.076	66
95.086	239
95.227	2
96.09	20
97.065	22
98.073	10
103.055	10
104.062	4
105.07	74
106.077	16
107.086	254
107.233	2
108.094	318
109.102	999
109.616	3
109.986	2
110.109	478
110.381	1
111.113	38
112.089	3
113.097	5
119.086	11
120.091	2
121.102	242
122.106	24
123.117	93
123.209	1
124.121	10
125.097	19
126.102	3
135.118	3
136.126	8
139.112	52
140.116	5
154.136	5
