Mass spectrum: (2R,3R)-(+)-2,3-epoxyoctyl 3,5-dinitrobenzoate; GC-EI-TOF; MS; positive; EI; 70 V
Name: (2R,3R)-(+)-2,3-epoxyoctyl 3,5-dinitrobenzoate
Class: Non-natural compound
Formula: C15H18N2O7
Exact mass: 388.11140
SMILES: O=C(OC[C@H]1O[C@@H]1CCCCC)c1cc(cc(c1)[N+]([O-])=O)[N+]([O-])=O
InChI: InChI=1S/C15H18N2O7/c1-2-3-4-5-13-14(24-13)9-23-15(18)10-6-11(16(19)20)8-12(7-10)17(21)22/h6-8,13-14H,2-5,9H2,1H3/t13-,14-/m1/s1
Instrument: JMS-T100GCV (JEOL, Akishima, Japan) coupled to Agilent 7890A (Agilent, Wilmington, USA) gas chromatograph.
Instrument type: GC-EI-TOF
Ms type: MS
Ion mode: POSITIVE
Ionization: EI
Column name: HP-5 19091 J-413 USD364547H (Agilent, Wilmington, USA), length 30 m, I.D. 0.32 mm, thickness 0.25 micrometer.
Retention time: 11.7 min.
m/z	relative intensity
26.016	3
27.024	64
28.006	5
28.032	12
29.003	17
29.04	119
29.078	2
29.999	18
30.043	3
31.019	11
31.99	2
38.016	2
39.024	38
40.031	7
41.04	194
41.091	2
41.131	2
42.011	4
42.047	38
43.019	19
43.055	77
44.027	11
44.058	3
45.034	9
45.994	3
50.016	3
51.024	3
53.04	13
54.047	9
55.019	19
55.055	165
55.117	2
56.063	46
57.034	58
57.071	18
58.04	3
62.016	5
63.024	16
64.03	3
65.04	4
66.047	2
67.055	15
68.062	5
69.034	3
69.071	15
70.042	12
70.076	2
71.014	3
71.05	5
71.086	4
73.048	2
74.016	28
75.024	165
75.083	2
75.149	1
76.028	13
77.039	3
78.046	2
79.019	2
79.055	6
81.071	6
82.079	7
83.05	9
83.086	161
83.159	2
84.09	11
89.032	2
91.019	6
92.024	2
95.086	5
97.066	4
99.081	9
102.012	2
103.019	36
104.024	5
107.015	2
107.087	2
113.096	2
119.013	3
120.011	7
121.016	3
137.015	2
147.045	2
148.003	4
149.012	130
150.015	11
151.017	1
165.029	11
166.015	3
179.009	39
179.081	1
180.014	4
193.039	2
195.004	999
195.504	2
195.693	3
196.007	84
196.69	2
197.009	12
197.099	1
197.2	2
197.269	1
197.727	1
197.777	1
207.034	3
238.022	8
239.029	8
267.024	2
295.097	2
