Mass spectrum: (2S,3R)-(+)-Methyl syn-2,3-dihydroxyoctanoate; GC-FI-TOF; MS; positive; FI; 10 kV
Name: (2S,3R)-(+)-Methyl syn-2,3-dihydroxyoctanoate
Class: Non-natural compound
Formula: C9H18O4
Exact mass: 190.12051
SMILES: O[C@H](CCCCC)[C@H](O)C(=O)OC
InChI: InChI=1S/C9H18O4/c1-3-4-5-6-7(10)8(11)9(12)13-2/h7-8,10-11H,3-6H2,1-2H3/t7-,8+/m1/s1
Instrument: JMS-T100GCV (JEOL, Akishima, Japan) coupled to Agilent 7890A (Agilent, Wilmington, USA) gas chromatograph.
Instrument type: GC-FI-TOF
Ms type: MS
Ion mode: POSITIVE
Ionization: FI
Column name: HP-5 19091 J-413 USD364547H (Agilent, Wilmington, USA), length 30.0 m, I.D. 0.32 mm, thickness 0.25 micrometer.
Retention time: 7.54 min.
m/z	relative intensity
83.085	42
89.025	252
90.031	120
101.097	999
102.1	64
190.122	41
191.128	261
192.129	38
