Mass spectrum: Symmetric dimethylarginine; ESI-QTOF; MS2; POSITIVE; [M+H]+; CID; 15 V
Name: Symmetric dimethylarginine
Class: Non-natural product; L-Arginine derivative
Formula: C8H18N4O2
Exact mass: 202.14296
SMILES: CNC(=NC)NCCC[C@@H](C(=O)O)N
InChI: InChI=1S/C8H18N4O2/c1-10-8(11-2)12-5-3-4-6(9)7(13)14/h6H,3-5,9H2,1-2H3,(H,13,14)(H2,10,11,12)/t6-/m0/s1
Instrument: X500R QTOF (AB Sciex LLC, USA)
Instrument type: ESI-QTOF
Ms type: MS2
Ion mode: POSITIVE
Collision energy: 15 V
Fragmentation mode: CID
Ionization: ESI
Precursor m/z: 203.15024
Precursor type: [M+H]+
m/z	relative intensity
70.0660	223
71.0617	86
88.0879	246
115.0876	282
116.0712	679
126.1045	39
133.0978	562
158.1299	282
172.1084	975
203.1500	999
