Mass spectrum: Polyporenic acid C; ESI-QTOF; MS2; POSITIVE; [M+H]+; CID; 20 V
Name: Polyporenic acid C
Class: Non-natural product; Lanosterol analogue
Formula: C31H46O4
Exact mass: 482.33961
SMILES: CC(C)C(=C)CC[C@H]([C@H]1[C@@H](C[C@@]2([C@@]1(CC=C3C2=CC[C@@H]4[C@@]3(CCC(=O)C4(C)C)C)C)C)O)C(=O)O
InChI: InChI=1S/C31H46O4/c1-18(2)19(3)9-10-20(27(34)35)26-23(32)17-31(8)22-11-12-24-28(4,5)25(33)14-15-29(24,6)21(22)13-16-30(26,31)7/h11,13,18,20,23-24,26,32H,3,9-10,12,14-17H2,1-2,4-8H3,(H,34,35)/t20-,23-,24+,26+,29-,30-,31+/m1/s1
Instrument: X500R QTOF (AB Sciex LLC, USA)
Instrument type: ESI-QTOF
Ms type: MS2
Ion mode: POSITIVE
Collision energy: 20 V
Fragmentation mode: CID
Ionization: ESI
Precursor m/z: 483.34689
Precursor type: [M+H]+
m/z	relative intensity
309.2218	249
437.3421	32
447.3265	37
465.3346	999
