Mass spectrum: Acetylgenistin; ESI-QTOF; MS; NEGATIVE
Name: Acetylgenistin
Class: Non-natural compound
Formula: C23H22O11
Exact mass: 474.11621
SMILES: CC(=O)OC[C@@H]1[C@H]([C@@H]([C@H]([C@@H](O1)OC2=CC(=C3C(=C2)OC=C(C3=O)C4=CC=C(C=C4)O)O)O)O)O
InChI: InChI=1S/C23H22O11/c1-10(24)31-9-17-20(28)21(29)22(30)23(34-17)33-13-6-15(26)18-16(7-13)32-8-14(19(18)27)11-2-4-12(25)5-3-11/h2-8,17,20-23,25-26,28-30H,9H2,1H3/t17-,20-,21+,22-,23-/m1/s1
Instrument: X500R QTOF (AB Sciex LLC, USA)
Instrument type: ESI-QTOF
Ms type: MS
Ion mode: NEGATIVE
Ionization: ESI
m/z	relative intensity
269.0477	867
270.0515	151
473.1116	999
473.6128	63
474.1155	256
475.1181	51
509.0891	168
511.0871	62
519.118	74
563.1442	229
564.1477	66
710.1694	128
710.6709	98
947.2293	299
948.2327	156
