Mass spectrum: Malic acid-[1,2,3,4-13C4]; GC-EI-QQ; MS2; CID 5 V; POSITIVE; 3 TMS-derivative; [M-15]+
Name: Malic acid-[1,2,3,4-13C4]
Class: In vitro synthetic compound
Formula: C4H6O5
Exact mass: 134.02152
SMILES: C(C(C(=O)O)O)C(=O)O
InChI: InChI=1S/C4H6O5/c5-2(4(8)9)1-3(6)7/h2,5H,1H2,(H,6,7)(H,8,9)/i1+1,2+1,3+1,4+1
Instrument: GCMS-TQ8040 (Shimadzu, Kyoto, Japan)
Instrument type: GC-EI-QQ
Ms type: MS2
Ion mode: POSITIVE
Collision energy: 5 V
Fragmentation mode: CID
Column name: DB-5MS+DG (Agilent Technologies, Santa Clara, CA, USA)
Derivative form: C13H30O5Si3
Derivative mass: 350.14011
Derivative type: 3 TMS
Precursor m/z: 339.12950
m/z	relative intensity	assigned
73.1	98	
91	23	
118.1	21	C3(13C)H9O2Si+
147.1	395	
149.1	157	
167.15	10	
175.05	88	
177.2	59	
220.15	45	
237.05	16	
249.15	47	
265.15	437	
266.2	260	C8(13C)H25O3Si3+
294.05	14	
310.15	999	C8(13C3)H27O4Si3+
323.1	50	
339.1	589	
