Mass spectrum: 2-(4-Methoxyphenyl)ethylamine; LC-ESI-QQ; MS2; POSITIVE; [M+H-NH3]+; CID; 20 V
Name: 2-(4-Methoxyphenyl)ethylamine
Class: Non-natural product; Phenethylamine
Formula: C9H13NO
Exact mass: 151.09971
SMILES: COC1=CC=C(C=C1)CCN
InChI: InChI=1S/C9H13NO/c1-11-9-4-2-8(3-5-9)6-7-10/h2-5H,6-7,10H2,1H3
Instrument: Xevo TQS micro (Waters, MA, USA) coupled to ACQUITY UPLC H-Class (Waters, MA, USA)
Instrument type: LC-ESI-QQ
Ms type: MS2
Ion mode: POSITIVE
Collision energy: 20 V
Fragmentation mode: CID
Ionization: ESI
Column name: Acquity UPLC BEH AMIDE column (1.7 Âµm, 2.1 x 150 mm; Waters, MA, USA)
Precursor m/z: 135.080442
Precursor type: [M+H-NH3]+
m/z	relative intensity
50.7	5
51.1	8
54.9	5
64.9	10
65.1	7
77.0	966
78.1	18
79.0	999
91.0	359
92.0	88
92.1	54
93.7	7
94.1	10
102.0	16
102.2	10
103.0	787
103.8	8
104.1	7
104.9	265
105.1	345
107.1	5
107.9	22
108.1	14
118.7	11
118.9	20
119.1	12
119.3	11
120.0	105
120.2	58
133.2	5
134.8	32
135.1	70
