Mass spectrum: Pachymic acid; ESI-QTOF; MS2; POSITIVE; [M+H]+; CID; 40 V
Name: Pachymic acid
Class: Non-natural product; Triterpenoid
Formula: C33H52O5
Exact mass: 528.38148
SMILES: CC(C)C(=C)CC[C@H]([C@H]1[C@@H](C[C@@]2([C@@]1(CCC3=C2CC[C@@H]4[C@@]3(CC[C@@H](C4(C)C)OC(=O)C)C)C)C)O)C(=O)O
InChI: InChI=1S/C33H52O5/c1-19(2)20(3)10-11-22(29(36)37)28-25(35)18-33(9)24-12-13-26-30(5,6)27(38-21(4)34)15-16-31(26,7)23(24)14-17-32(28,33)8/h19,22,25-28,35H,3,10-18H2,1-2,4-9H3,(H,36,37)/t22-,25-,26+,27+,28+,31-,32-,33+/m1/s1
Instrument: X500R QTOF (AB Sciex LLC, USA)
Instrument type: ESI-QTOF
Ms type: MS2
Ion mode: POSITIVE
Collision energy: 40 V
Fragmentation mode: CID
Ionization: ESI
Precursor m/z: 529.38875
Precursor type: [M+H]+
m/z	relative intensity
55.0545	30
67.0546	24
69.0702	33
79.0546	19
81.0702	52
83.0858	24
91.0546	25
93.0702	52
95.0859	105
97.1015	63
105.0702	42
107.0859	138
109.1015	160
119.0859	118
121.1015	210
123.1172	94
131.0859	44
133.1016	104
135.1172	137
137.1328	29
139.0758	17
143.0859	32
145.1015	112
147.1172	90
149.1329	52
153.0915	49
157.1017	75
159.1172	231
161.1329	94
163.1485	41
167.1072	19
169.1018	20
171.1173	122
173.1329	277
175.1486	140
177.1643	28
183.1174	28
185.133	133
187.1486	289
189.1643	70
193.1592	23
197.1331	51
199.1487	128
201.1644	88
203.18	23
211.1489	65
213.1644	205
214.1723	19
215.1801	105
223.149	16
225.1644	81
227.1801	171
229.1958	168
233.1544	15
237.1645	19
239.1802	77
241.1958	124
243.2115	33
245.1544	24
251.1803	21
252.188	21
253.1958	86
254.2037	19
255.2114	161
259.1702	34
265.1959	15
267.2115	26
273.1856	22
279.2116	15
280.2194	32
281.2272	31
283.2428	19
293.2272	46
295.2425	999
296.2506	66
297.2584	140
309.2583	16
311.2377	23
315.2326	28
327.2326	20
329.2483	41
343.2638	26
349.2533	16
355.2638	173
367.2639	47
369.2794	22
381.2795	41
395.295	22
405.3521	34
408.3029	51
409.3106	33
433.3471	57
451.3576	333
529.4076	63
