Mass spectrum: Daidzin; ESI-QTOF; MS2; POSITIVE; [M+H]+; CID; 60 V
Name: Daidzin
Class: 7-Hydroxyisoflavone
Formula: C21H20O9
Exact mass: 416.11073
SMILES: C1=CC(=CC=C1C2=COC3=C(C2=O)C=CC(=C3)O[C@H]4[C@@H]([C@H]([C@@H]([C@H](O4)CO)O)O)O)O
InChI: InChI=1S/C21H20O9/c22-8-16-18(25)19(26)20(27)21(30-16)29-12-5-6-13-15(7-12)28-9-14(17(13)24)10-1-3-11(23)4-2-10/h1-7,9,16,18-23,25-27H,8H2/t16-,18-,19+,20-,21-/m1/s1
Instrument: X500R QTOF (AB Sciex LLC, USA)
Instrument type: ESI-QTOF
Ms type: MS2
Ion mode: POSITIVE
Collision energy: 60 V
Fragmentation mode: CID
Ionization: ESI
Precursor m/z: 417.11801
Precursor type: [M+H]+
m/z	relative intensity
65.0385	13
68.9971	13
81.0336	21
91.0543	114
119.0492	39
121.0285	22
128.0621	53
129.07	46
131.0493	19
133.0285	27
137.0233	328
143.0857	27
145.0285	52
149.0235	32
152.0623	64
153.07	130
157.065	58
171.0806	62
181.065	286
184.0522	30
197.0602	28
199.0756	546
209.0602	36
227.0708	240
237.0553	120
255.0655	999
