Mass spectrum: L-(+)-Ergothioneine; ESI-QTOF; MS2; POSITIVE; [M+H]+; CID; 10 V
Name: L-(+)-Ergothioneine
Class: L-Histidine derivative
Formula: C9H15N3O2S
Exact mass: 229.08850
SMILES: C[N+](C)(C)[C@@H](CC1=CNC(=S)N1)C(=O)[O-]
InChI: InChI=1S/C9H15N3O2S/c1-12(2,3)7(8(13)14)4-6-5-10-9(15)11-6/h5,7H,4H2,1-3H3,(H2-,10,11,13,14,15)/t7-/m0/s1
Instrument: X500R QTOF (AB Sciex LLC, USA)
Instrument type: ESI-QTOF
Ms type: MS2
Ion mode: POSITIVE
Collision energy: 10 V
Fragmentation mode: CID
Ionization: ESI
Precursor m/z: 230.09576
Precursor type: [M+H]+
m/z	relative intensity	assigned
186.106	93	[C8H16N3S]+
230.0949	999	[C9H15N3O2S+H]+
