Mass spectrum: Avermectin B1a; LC-ESI-QTOF; MS2; ESI; NEGATIVE; CE 60 V
Name: Avermectin B1a
Class: Non-natural product
Formula: C48H72O14
Exact mass: 872.49221
SMILES: CC[C@H](C)[C@H]1O[C@]2(C=C[C@@H]1C)C[C@@H]1C[C@@H](C/C=C(\C)[C@@H](O[C@H]3C[C@H](OC)[C@@H](O[C@H]4C[C@H](OC)[C@@H](O)[C@H](C)O4)[C@H](C)O3)[C@@H](C)/C=C/C=C3\CO[C@@H]4[C@H](O)C(C)=C[C@@H](C(=O)O1)[C@]34O)O2
InChI: InChI=1S/C48H72O14/c1-11-25(2)43-28(5)17-18-47(62-43)23-34-20-33(61-47)16-15-27(4)42(26(3)13-12-14-32-24-55-45-40(49)29(6)19-35(46(51)58-34)48(32,45)52)59-39-22-37(54-10)44(31(8)57-39)60-38-21-36(53-9)41(50)30(7)56-38/h12-15,17-19,25-26,28,30-31,33-45,49-50,52H,11,16,20-24H2,1-10H3/b13-12+,27-15+,32-14+/t25-,26-,28-,30-,31-,33+,34-,35-,36-,37-,38-,39-,40+,41-,42-,43+,44-,45+,47+,48+/m0/s1
Instrument: ExionLC AD, AB Sciex LLC, USA; X500R QTOF, AB Sciex LLC, USA.
Instrument type: LC-ESI-QTOF
Ms type: MS2
Ion mode: NEGATIVE
Collision energy: 60 V
Ionization: ESI
Column name: AQ-C18HP 3 microm, 2.1 mm Ã— 150 mm, GL Science (Tokyo Japan)
Retention time: 16.2 min
Precursor m/z: 871.48493
Precursor type: [M-H]-
m/z	relative intensity
67.0185	17
81.0341	55
83.0496	69
84.0211	214
85.0288	340
93.0336	13
97.0292	44
97.0655	215
99.0439	15
107.0496	40
109.0292	731
110.0333	44
111.0443	65
122.0367	21
123.0444	52
125.0606	31
127.0396	23
135.0449	98
137.0598	37
149.0968	24
150.0325	15
153.0554	76
161.0609	14
163.0404	25
171.0812	32
178.0626	25
197.0963	34
223.0758	25
225.129	26
229.1081	999
230.112	98
243.1398	59
253.1234	33
271.1339	68
317.1919	41
379.1934	51
431.2464	76
443.2227	49
455.2798	58
483.278	72
529.2969	40
565.3196	103
789.4468	574
790.4492	246
853.4766	138
871.4865	94
