Mass spectrum: Acephate; GC-EI-Q; MS; Positive; M+*
Name: Acephate
Class: Non-Natural Product; Pesticides
Formula: C4H10NO3PS
Exact mass: 183.01190
SMILES: CC(=O)NP(=O)(OC)SC
InChI: InChI=1S/C4H10NO3PS/c1-4(6)5-9(7,8-2)10-3/h1-3H3,(H,5,6,7)
Instrument: GCMS-QP2010 Plus, Shimadzu
Instrument type: GC-EI-Q
Ms type: MS
Ion mode: POSITIVE
Ionization: EI
Column name: Ptx-5MS(RESTEK), 0.32 mm I.D. x 30 m, df=0.25 microm
Retention time: 5.60 min
Ion type: [M]+*
Precursor m/z: 183.01
m/z	relative intensity
40	8
41	418
42	806
43	681
45	107
46	97
47	283
48	118
51	5
53	10
56	134
57	51
58	102
59	7
60	34
61	11
62	82
64	49
65	33
66	24
68	37
70	9
76	26
77	24
79	112
80	26
81	30
86	51
90	9
94	370
95	289
96	206
97	47
98	7
101	9
104	31
105	37
106	41
109	35
110	36
112	11
119	32
121	16
124	53
125	81
128	7
130	16
131	20
134	20
136	999
137	57
138	18
141	5
142	102
144	6
154	6
155	18
160	7
164	5
172	23
174	18
179	31
210	65
228	9
235	11
241	14
247	9
260	5
264	9
275	15
282	8
287	18
290	5
307	7
313	10
315	8
316	8
333	14
335	15
339	8
354	13
366	10
367	5
381	18
390	14
391	5
426	5
429	5
440	9
442	7
448	5
452	7
455	5
462	10
465	5
471	6
475	6
478	5
482	5
516	7
530	19
531	6
539	6
550	7
560	5
563	5
566	6
590	9
594	19
