Mass spectrum: Acrinathrin; GC-EI-Q; MS; Positive; M+*
Name: Acrinathrin
Class: Non-Natural Product; Pesticides
Formula: C26H21F6NO5
Exact mass: 541.13239
SMILES: CC1(C)C(C1/C=C/C(=O)OC(C(F)(F)F)C(F)(F)F)C(=O)O[C@H](C#N)c3cccc(Oc2ccccc2)c3
InChI: InChI=1S/C26H21F6NO5/c1-24(2)18(11-12-20(34)38-23(25(27,28)29)26(30,31)32)21(24)22(35)37-19(14-33)15-7-6-10-17(13-15)36-16-8-4-3-5-9-16/h3-13,18-19,21,23H,1-2H3/b12-11+/t18?,19-,21?/m1/s1
Instrument: GCMS-QP2010 Plus, Shimadzu
Instrument type: GC-EI-Q
Ms type: MS
Ion mode: POSITIVE
Ionization: EI
Column name: Ptx-5MS(RESTEK), 0.32 mm I.D. x 30 m, df=0.25 microm
Retention time: 19.6 min
Ion type: [M]+*
Precursor m/z: 541.13
m/z	relative intensity
40	278
41	298
42	121
43	91
47	38
48	38
49	78
51	663
52	147
53	258
55	243
56	28
59	89
63	175
64	40
65	205
67	73
68	164
69	554
71	114
74	30
76	63
78	205
79	701
80	197
82	147
83	703
88	61
90	71
91	453
92	159
94	258
95	129
96	28
99	243
101	30
102	28
105	46
107	33
108	53
110	63
111	28
112	28
114	116
115	218
116	238
119	28
120	218
121	367
123	152
124	15
125	152
127	68
128	48
129	134
133	25
137	207
138	76
141	640
142	68
148	101
151	43
152	293
153	218
164	56
165	149
166	71
169	218
178	63
180	374
182	346
190	48
195	81
198	157
206	78
208	999
210	384
234	119
245	25
249	15
250	58
252	43
259	35
260	18
261	223
265	20
273	30
276	15
282	13
288	89
289	807
291	48
295	43
296	63
299	68
300	30
307	18
315	177
316	38
318	40
324	20
327	91
333	33
345	13
355	28
358	25
373	20
375	13
376	20
390	48
401	15
404	40
429	23
441	73
442	63
450	28
458	13
473	23
