Mass spectrum: Leucinostatin Y; ESI-ITFT; MS2; POSITIVE; [M+H]+; CE 40 %
Name: Leucinostatin Y
Class: Natural product; modulator of tumor-stroma interaction
Formula: C60H104N10O15
Exact mass: 1204.7682
SMILES: O=C(O)C(C)NC(=O)CCNC(=O)C(C)(C)NC(=O)C(C)(C)NC(=O)[C@H](CC(C)C)NC(=O)[C@H](CC(C)C)NC(=O)C(C)(C)NC(=O)[C@@H](NC(=O)[C@H](CC(C)CC(O)CC(=O)CC)NC(=O)[C@@H]1C[C@H](C)CN1C(=O)/C=C/C(C)CC)C(O)C(C)C
InChI: InChI=1S/C60H104N10O15/c1-19-35(9)21-22-46(74)70-31-37(11)29-44(70)52(79)64-43(28-36(10)27-40(72)30-39(71)20-2)50(77)66-47(48(75)34(7)8)53(80)68-59(15,16)56(84)65-41(25-32(3)4)49(76)63-42(26-33(5)6)51(78)67-60(17,18)57(85)69-58(13,14)55(83)61-24-23-45(73)62-38(12)54(81)82/h21-22,32-38,40-44,47-48,72,75H,19-20,23-31H2,1-18H3,(H,61,83)(H,62,73)(H,63,76)(H,64,79)(H,65,84)(H,66,77)(H,67,78)(H,68,80)(H,69,85)(H,81,82)/b22-21+/t35?,36?,37-,38?,40?,41-,42-,43-,44-,47-,48?/m0/s1
Instrument: LTQ Orbitrap XL hybrid iontrap-Orbitrap (Thermo Fisher Scientific, San Jose, CA, USA)
Instrument type: LC-ESI-ITFT
Ms type: MS2
Ion mode: POSITIVE
Collision energy: 40 % (nominal)
Fragmentation mode: HCD
Ionization: ESI
Ion type: [M+H]+
Precursor m/z: 1205.7755
m/z	relative intensity
109.3384	30
111.0804	25
127.2837	26
194.1538	495
203.2277	37
204.2195	39
205.6669	38
218.5458	36
222.1487	999
223.1519	59
234.4358	33
252.123	30
271.8901	46
294.0763	35
312.226	25
319.0922	42
347.4421	50
379.7457	58
389.8416	29
416.7725	63
417.2748	27
435.285	112
459.4929	65
474.591	44
492.3068	89
509.1334	51
516.3793	60
528.3419	28
546.353	372
547.357	98
564.3631	184
565.3655	28
567.2732	47
601.4321	31
603.4097	30
631.4056	438
631.4792	35
632.4086	73
635.9744	40
649.4156	80
683.4112	28
717.9541	47
812.9095	25
816.8724	44
937.7357	51
943.3185	80
955.1982	27
1063.6261	29
1087.5476	81
1276.3579	75
1518.9636	67
1559.3448	83
1837.9482	44
1847.4856	25
1898.3524	143
