Mass spectrum: Citric acid; GC-EI-Q; MS; POSITIVE; 4TBDMS-derivative
Name: Citric acid
Class: Natural Product
Formula: C6H8O7
Exact mass: 192.02700
SMILES: OC(=O)CC(O)(CC(O)=O)C(=O)O
InChI: InChI=1S/C6H8O7/c7-3(8)1-6(13,5(11)12)2-4(9)10/h13H,1-2H2,(H,7,8)(H,9,10)(H,11,12)
Instrument: GCMS-QP2010 Ultra (Shimadzu, Kyoto, Japan)
Instrument type: GC-EI-Q
Ms type: MS
Ion mode: POSITIVE
Column name: DB-5MS+DG (Agilent Technologies, Santa Clara, CA, USA)
Derivative form: C30H64O7Si4
Derivative mass: 648.37291
Derivative type: 4 TBDMS
m/z	relative intensity	assigned
57.05	12	
59.05	31	
67	17	
72.15	11	
73.05	999	
74.05	84	
75.05	77	
99.05	14	
115.1	82	
116.1	15	
117.05	12	
133.05	32	
147.1	309	
148.1	49	
149.1	64	
189.1	33	
190.05	10	
191.05	10	
207	19	
221.05	27	
225.05	14	
253.05	95	
254.05	17	
299.1	41	C13H23O4Si2+
300.1	10	
327.1	21	
357.15	180	C17H33O4Si2+
358.15	52	
359.15	20	
385.15	24	
387.2	27	
417.2	19	
431.2	247	C19H39O5Si3+
432.2	86	
433.2	41	
434.2	9	
458.25	18	
459.2	547	
460.2	198	
461.2	95	
462.2	23	
473.25	10	
489.25	28	
490.25	11	
501.2	33	
502.2	13	
590.35	18	
591.3	314	
592.3	146	
593.3	77	
594.3	24	
