Mass spectrum: 6-((4-Methoxybenzyl)oxy)-5,5-dimethylnona-1,8-dien-4-ol; GC-FI-TOF; MS; positive; FI; 10 kV
Name: 6-((4-Methoxybenzyl)oxy)-5,5-dimethylnona-1,8-dien-4-ol
Class: Non-natural product
Formula: C19H28O3
Exact mass: 304.20385
SMILES: COC1=CC=C(COC(CC=C)C(C)(C)C(O)CC=C)C=C1
InChI: InChI=1S/C19H28O3/c1-6-8-17(20)19(3,4)18(9-7-2)22-14-15-10-12-16(21-5)13-11-15/h6-7,10-13,17-18,20H,1-2,8-9,14H2,3-5H3
Instrument: JMS-T100GCV (JEOL, Akishima, Japan) coupled to Agilent 7890A (Agilent, Wilmington, USA) gas chromatograph.
Instrument type: GC-FI-TOF
Ms type: MS
Ion mode: POSITIVE
Ionization: FI
Column name: HP-5 19091 J-413 USD364547H (Agilent, Wilmington, USA), length 30.0 m, I.D. 0.32 mm, thickness 0.25 micrometer.
Retention time: 10.87 min.
m/z	relative intensity
25.820	14
33.054	16
119.057	18
136.144	13
137.050	22
144.414	21
150.056	25
191.093	17
231.122	177
232.122	44
262.158	40
263.165	88
264.171	21
268.179	68
286.194	124
304.204	999
304.334	32
305.020	13
305.207	207
306.213	60
366.979	15
