Mass spectrum: Citric acid-[5-13C]; GC-EI-Q; MS; POSITIVE; 4TMS-derivative
Name: Citric acid-[5-13C]
Class: In vitro synthetic compound
Formula: C6H8O7
Exact mass: 192.027005
SMILES: OC(=O)CC(O)(CC(O)=O)C(O)=O
InChI: InChI=1S/C6H8O7/c7-3(8)1-6(13,5(11)12)2-4(9)10/h13H,1-2H2,(H,7,8)(H,9,10)(H,11,12)/i3+1
Instrument: GCMS-QP2010 Ultra (Shimadzu, Kyoto, Japan)
Instrument type: GC-EI-Q
Ms type: MS
Ion mode: POSITIVE
Column name: DB-5MS+DG (Agilent Technologies, Santa Clara, CA, USA)
Derivative form: C17H40O7Si4
Derivative mass: 481.18847
Derivative type: 4 TMS
m/z	relative intensity	assigned
55	11	
58	15	
59	26	
61	10	
67	35	
68	36	
69	13	
70	15	
72.15	87	
73.05	999	
74.05	148	
75	203	
76	12	
98.95	14	
103	13	
115	29	
116	13	
116.95	32	
129	56	
131	53	
132.05	11	
132.95	102	
134	14	
135	11	
143	15	
144.05	14	
146.05	12	
147	622	
148.05	107	
149	105	
150	13	
183.95	51	
184.95	13	
185.95	11	
189.95	10	
190.9	12	
204.95	10	
206.9	17	
211.95	74	
212.95	12	
213.9	14	
214.95	12	
215.95	11	
216.95	28	
217.95	18	
220.95	55	
222	13	
229	10	
230.05	11	
231	21	
231.95	21	
258	56	
259	15	
259.95	10	
273.05	28	
274	649	C10(13C)H21O4Si2+
275	148	
276	66	
276.95	10	
286	18	
302	11	
303.05	10	
304.05	11	
305.05	31	
306.05	37	
307	13	
320	10	
347.05	10	
348	162	C12(13C)H27O5Si3+
349	50	
350	27	
364.05	170	C13(13C)H31O5Si3+
365	51	
366.05	25	
375.05	10	
376	150	
377	48	
378	25	
466	93	
467	36	
468	21	
