Mass spectrum: Polyporenic acid C; ESI-QTOF; MS2; POSITIVE; [M+H]+; CID; 50 V
Name: Polyporenic acid C
Class: Non-natural product; Lanosterol analogue
Formula: C31H46O4
Exact mass: 482.33961
SMILES: CC(C)C(=C)CC[C@H]([C@H]1[C@@H](C[C@@]2([C@@]1(CC=C3C2=CC[C@@H]4[C@@]3(CCC(=O)C4(C)C)C)C)C)O)C(=O)O
InChI: InChI=1S/C31H46O4/c1-18(2)19(3)9-10-20(27(34)35)26-23(32)17-31(8)22-11-12-24-28(4,5)25(33)14-15-29(24,6)21(22)13-16-30(26,31)7/h11,13,18,20,23-24,26,32H,3,9-10,12,14-17H2,1-2,4-8H3,(H,34,35)/t20-,23-,24+,26+,29-,30-,31+/m1/s1
Instrument: X500R QTOF (AB Sciex LLC, USA)
Instrument type: ESI-QTOF
Ms type: MS2
Ion mode: POSITIVE
Collision energy: 50 V
Fragmentation mode: CID
Ionization: ESI
Precursor m/z: 483.34689
Precursor type: [M+H]+
m/z	relative intensity
55.0554	63
57.0711	14
67.0555	30
69.0712	52
71.0869	9
77.0400	11
79.0556	23
81.0713	43
83.0869	26
91.0557	30
93.0713	57
95.0870	85
97.0662	32
97.1026	48
99.0819	10
105.0713	50
107.0870	85
109.0661	8
109.1026	63
111.0819	14
117.0713	13
119.0869	90
121.1025	73
123.0818	112
123.1182	22
125.0975	19
129.0712	17
131.0869	53
133.1025	72
135.1183	25
137.0975	18
141.0712	13
142.0792	19
143.0869	72
145.1025	197
147.1181	42
151.1131	12
155.0869	44
156.0947	19
157.1025	185
158.1104	12
159.1182	135
161.0975	12
161.1339	21
165.1288	14
167.0869	14
169.1026	95
170.1104	18
171.1182	152
172.1261	19
173.1338	97
181.1026	37
182.1104	16
183.1182	161
184.1260	24
185.0976	15
185.1339	129
186.1417	27
187.1132	23
187.1495	60
189.1288	15
193.1026	27
195.1183	91
196.1261	38
197.1339	176
199.1133	28
199.1495	47
201.1288	177
207.1183	29
208.1261	147
209.1339	102
210.1418	22
211.1495	106
213.1289	54
213.1652	27
215.1443	32
221.1340	43
223.1496	324
225.1291	23
225.1652	176
227.1446	52
235.1497	41
237.1653	37
239.1445	57
239.1808	28
241.1603	30
249.1653	49
251.1809	43
253.1601	61
253.1964	30
255.1758	34
267.1757	71
267.2119	29
269.1915	28
279.1756	27
281.1914	49
291.2121	51
294.1990	326
295.2070	69
309.2224	999
310.2302	30
