Mass spectrum: 2-(octan-2-yl)tetrahydrothiophene; GC-EI-TOF; MS; POSITIVE; EI; 70 V
Name: 2-(octan-2-yl)tetrahydrothiophene
Class: Non-natural compound
Formula: C12H24S
Exact mass: 200.15987
SMILES: CCCCCCC(C)C1CCCS1
InChI: InChI=1S/C12H24S/c1-3-4-5-6-8-11(2)12-9-7-10-13-12/h11-12H,3-10H2,1-2H3
Instrument: JMS-T100GCV (JEOL, Akishima, Japan) coupled to Agilent 7890A gas chromatograph.
Instrument type: GC-EI-TOF
Ms type: MS
Ion mode: POSITIVE
Ionization: EI
Column name: HP-5 30x0.32 0.25um 19091J-413, length 30.0 m, I.D. 0.32 mm, thickness 0.25 micrometer.
Retention time: 8.63 min.
m/z	relative intensity
27.024	20
28.006	12
28.031	3
29.039	35
31.99	7
39.024	17
40.031	2
41.04	76
42.046	8
43.055	33
44.98	36
45.987	2
46.996	16
53.04	23
54.047	5
55.055	52
56.062	7
57.071	9
57.988	3
58.996	17
60.004	11
61.011	8
65.039	4
67.055	17
68.062	4
69.071	15
70.078	4
70.996	3
71.087	3
73.012	6
74.019	3
77.04	4
79.055	7
81.071	14
82.077	3
83.086	4
85.012	22
86.019	54
87.027	999
87.488	3
87.805	2
88.033	89
88.501	1
89.023	43
90.029	4
91.055	7
95.086	5
101.043	8
115.058	24
116.063	4
117.07	3
129.073	2
143.09	21
144.094	2
157.105	21
158.108	2
200.16	74
201.163	10
202.158	4
