Mass spectrum: Dicyclohexylurea; ESI-QTOF; MS2; POSITIVE; [M+H]+; CID; 35 V
Name: Dicyclohexylurea
Name: 1,3-Dicyclohexylurea
Class: Non-natural product; Ureas
Formula: C13H24N2O
Exact mass: 224.1889
SMILES: C1CCC(CC1)NC(=O)NC2CCCCC2
InChI: InChI=1S/C13H24N2O/c16-13(14-11-7-3-1-4-8-11)15-12-9-5-2-6-10-12/h11-12H,1-10H2,(H2,14,15,16)
Instrument: X500R QTOF (AB Sciex Pte. Ltd, USA)
Instrument type: ESI-QTOF
Ms type: MS2
Ion mode: POSITIVE
Collision energy: 35 V
Fragmentation mode: CID
Ionization: ESI
Precursor m/z: 225.1961
Precursor type: [M+H]+
m/z	relative intensity
55.0542	999
61.0396	939
83.0855	800
100.1121	193
143.1179	271
192.9988	249
