Mass spectrum: Pachymic acid; ESI-QTOF; MS2; NEGATIVE; [M-H]-; CID; 40 V
Name: Pachymic acid
Class: Non-natural product; Triterpenoid
Formula: C33H52O5
Exact mass: 528.38148
SMILES: CC(C)C(=C)CC[C@H]([C@H]1[C@@H](C[C@@]2([C@@]1(CCC3=C2CC[C@@H]4[C@@]3(CC[C@@H](C4(C)C)OC(=O)C)C)C)C)O)C(=O)O
InChI: InChI=1S/C33H52O5/c1-19(2)20(3)10-11-22(29(36)37)28-25(35)18-33(9)24-12-13-26-30(5,6)27(38-21(4)34)15-16-31(26,7)23(24)14-17-32(28,33)8/h19,22,25-28,35H,3,10-18H2,1-2,4-9H3,(H,36,37)/t22-,25-,26+,27+,28+,31-,32-,33+/m1/s1
Instrument: X500R QTOF (AB Sciex LLC, USA)
Instrument type: ESI-QTOF
Ms type: MS2
Ion mode: NEGATIVE
Collision energy: 40 V
Fragmentation mode: CID
Ionization: ESI
Precursor m/z: 527.374198
Precursor type: [M-H]-
m/z	relative intensity
43.0186	9
59.0134	31
97.0658	5
193.1599	12
221.191	50
317.2131	16
413.2706	21
431.2811	33
449.3429	20
465.3367	402
467.353	237
481.3695	75
483.3843	45
525.3597	55
527.3712	999
528.3824	55
528.477	15
