Mass spectrum: (3R)-3-Methylheptyl benzyl ether; GC-EI-BE; MS; positive; EI; 70 V
Name: (3R)-3-Methylheptyl benzyl ether
Class: Non-natural product
Formula: C15H24O
Exact mass: 220.18272
SMILES: C[C@H](CCCC)CCOCC1=CC=CC=C1
InChI: InChI=1S/C15H24O/c1-3-4-8-14(2)11-12-16-13-15-9-6-5-7-10-15/h5-7,9-10,14H,3-4,8,11-13H2,1-2H3/t14-/m1/s1
Instrument: JMS-700V (JEOL, Akishima, Japan) coupled to Agilent 6890N (Agilent, Wilmington, USA) gas chromatograph.
Instrument type: GC-EI-BE
Ms type: MS
Ion mode: POSITIVE
Ionization: EI
Column name: DB-5MS 122-5532 US877814H (Agilent, Wilmington, USA), length 30.0 m, I.D. 0.25 mm, thickness 0.25 micrometer.
Retention time: 10.25 min
m/z	relative intensity
36	8
38	3
39	25
40	4
41	65
42	12
43	104
44	3
45	2
50	2
51	12
52	4
53	6
54	2
55	89
56	27
57	83
58	4
59	3
62	1
63	10
64	3
65	67
66	4
67	6
68	7
69	312
70	44
71	24
72	1
73	2
75	1
76	1
77	27
78	13
79	28
80	3
81	16
82	5
83	37
84	16
85	21
86	4
87	1
89	19
90	13
91	999
92	552
93	39
94	2
95	8
97	2
98	1
99	1
104	10
105	16
106	5
107	33
108	88
109	8
110	15
111	86
112	40
113	5
117	2
118	3
119	3
121	2
127	3
128	4
129	30
130	2
131	2
132	2
133	1
145	2
147	1
173	2
202	2
219	1
220	4
221	1
