Mass spectrum: (6R)-2,6-Dimethyl-2-undecene; GC-EI-TOF; MS; positive; EI; 70 V
Name: (6R)-2,6-Dimethyl-2-undecene
Class: Non-natural product
Formula: C13H26
Exact mass: 182.20345
SMILES: CCCCC[C@@H](C)CCC=C(C)C
InChI: InChI=1S/C13H26/c1-5-6-7-10-13(4)11-8-9-12(2)3/h9,13H,5-8,10-11H2,1-4H3/t13-/m1/s1
Instrument: JMS-T100GCV (JEOL, Akishima, Japan) coupled to Agilent 7890A (Agilent, Wilmington, USA) gas chromatograph.
Instrument type: GC-EI-TOF
Ms type: MS
Ion mode: POSITIVE
Ionization: EI
Column name: HP-5 19091 J-413 USD364547H (Agilent, Wilmington, USA), length 30 m, I.D. 0.32 mm, thickness 0.25 micrometer.
Retention time: 7.06 min.
m/z	relative intensity
27.024	87
27.065	1
28.006	7
28.031	13
29.039	180
29.083	2
29.116	1
30.043	4
31.990	4
39.024	92
39.073	1
40.031	22
41.039	741
41.064	6
41.091	7
41.323	2
41.355	2
41.565	1
41.807	1
42.046	79
43.055	349
43.109	3
43.340	1
43.378	1
44.058	12
51.024	7
52.031	4
53.039	80
53.100	1
54.047	30
55.055	422
55.115	4
55.376	1
55.420	1
56.063	655
56.091	5
56.124	6
56.396	1
56.431	2
56.691	1
57.070	720
57.132	6
57.443	2
57.696	1
58.074	32
65.040	15
66.047	6
67.055	134
67.120	1
67.183	1
68.062	83
68.116	1
69.070	999
69.138	9
69.480	3
69.761	2
70.078	460
70.142	5
70.377	2
70.431	2
70.734	1
71.086	145
71.143	2
72.089	8
77.039	12
78.046	2
79.055	17
80.062	3
81.071	29
82.078	52
83.086	204
83.157	2
84.093	130
84.169	2
85.100	22
91.055	6
93.071	4
95.086	22
96.094	26
97.102	158
97.177	2
98.109	97
98.190	1
99.114	9
109.102	6
110.109	6
111.117	110
111.199	1
112.125	110
113.131	17
124.125	2
125.133	9
126.141	95
127.146	17
139.149	2
140.156	2
154.172	5
182.203	203
183.207	29
183.315	1
184.210	2
