Mass spectrum: 3-Aminoisobutyric acid; GC-EI-TOF; MS; POSITIVE; EI; 70 V; 2TBDMS
Name: 3-Aminoisobutyric acid
Class: Non-natural compound
Formula: C4H9NO2
Exact mass: 103.0633285
SMILES: CC(CN)C(=O)O
InChI: InChI=1S/C4H9NO2/c1-3(2-5)4(6)7/h3H,2,5H2,1H3,(H,6,7)
Instrument: JMS-T100GCV (JEOL, Akishima, Japan) coupled to Agilent 7890A (Santa Clara, CA, USA) gas chromatograph.
Instrument type: GC-EI-TOF
Ms type: MS
Ion mode: POSITIVE
Ionization: EI
Column name: DB-5MS UI 122-5532UI US0462866H (Agilent, Wilmington, USA) with the length 30 m, I.D. 0.25 mm, and thickness 0.25 micrometer.
Retention time: 9.69 min.
Derivative form: C16H37NO2Si2
Derivative mass: 331.23628
Derivative type: 2TBDMS
m/z	relative intensity
27.025	5
28.032	3
28.986	3
29.04	35
30.035	14
31.001	8
39.025	7
41.04	55
42.044	3
43.002	28
43.055	1
43.997	12
44.981	8
45.017	44
45.069	1
46.015	4
46.996	12
55.02	6
55.056	4
55.997	4
56.027	2
56.064	10
57.017	5
57.035	5
57.072	63
58.025	55
58.072	4
59.033	181
59.14	1
60.031	16
61.012	9
65.513	3
66.023	21
66.522	3
67.021	2
68.051	5
69.035	5
70.019	2
71.032	3
72.029	19
73.048	999
73.355	3
73.472	3
73.528	6
73.755	2
74.049	91
74.403	1
74.473	1
75.028	132
76.029	9
77.025	5
80.536	239
81.036	37
81.535	18
82.034	2
83.033	4
84.031	2
85.048	17
86.044	68
86.536	2
87.051	45
87.116	1
88.059	76
89.059	7
90.057	3
94.036	5
94.549	2
97.048	3
98.044	7
99.028	2
99.064	16
100.062	15
101.062	2
101.986	4
102.061	1
103.004	5
104.054	20
105.02	2
105.054	2
108.549	39
109.05	8
109.547	3
112.059	3
113.044	7
114.075	19
115.006	11
115.095	31
115.166	1
116.006	3
116.096	4
117.02	21
117.091	2
118.017	10
119.036	14
120.036	2
128.091	28
129.039	9
129.093	4
130.046	10
131.053	64
132.032	68
133.051	71
134.051	10
135.041	6
142.07	4
142.105	3
143.053	4
144.049	3
144.122	770
144.713	2
145.051	5
145.124	96
145.58	1
146.047	24
146.119	28
147.067	384
147.601	1
147.664	1
148.068	58
149.064	28
150.065	3
157.056	1
158.057	1
159.067	3
160.065	7
161.067	2
162.078	6
172.154	2
173.1	16
174.041	3
174.102	3
175.099	3
188.072	1
189.113	58
190.115	10
191.111	5
202.073	6
216.089	3
218.14	578
218.796	2
219.141	111
219.896	1
220.138	45
220.356	1
220.441	1
221.14	6
222.136	1
231.157	1
245.138	3
258.135	5
259.136	1
260.186	5
261.19	1
272.15	2
274.166	269
275.168	61
276.165	24
277.167	4
287.187	2
316.213	13
317.214	4
318.211	1
