Mass spectrum: (5S,11R)-5,11-Dimethyl-8-pentacosanol; GC-EI-TOF; MS; positive; EI; 70 V
Name: (5S,11R)-5,11-Dimethyl-8-pentacosanol
Class: Non-natural product
Formula: C27H56O
Exact mass: 396.43312
SMILES: C[C@@H](CCCC)CCC(O)CC[C@H](C)CCCCCCCCCCCCCC
InChI: InChI=1S/C27H56O/c1-5-7-9-10-11-12-13-14-15-16-17-18-20-26(4)22-24-27(28)23-21-25(3)19-8-6-2/h25-28H,5-24H2,1-4H3/t25-,26+,27?/m0/s1
Instrument: JMS-T100GCV (JEOL, Akishima, Japan) coupled to Agilent 7890A (Agilent, Wilmington, USA) gas chromatograph.
Instrument type: GC-EI-TOF
Ms type: MS
Ion mode: POSITIVE
Ionization: EI
Column name: HP-5 19091 J-413 USD364547H (Agilent, Wilmington, USA), length 30 m, I.D. 0.32 mm, thickness 0.25 micrometer.
Retention time: 12.37 min.
m/z	relative intensity
27.024	21
28.007	11
28.032	6
29.040	87
31.019	6
31.990	5
39.025	15
40.032	5
41.040	275
41.139	2
42.047	51
43.019	13
43.056	649
43.109	7
44.027	14
44.059	20
45.035	14
53.040	12
54.048	22
55.055	497
55.116	6
55.159	3
56.063	376
56.168	3
57.035	51
57.071	760
58.042	38
58.075	31
59.050	13
67.055	76
68.063	41
69.071	999
69.480	3
69.734	2
69.766	2
70.043	3
70.078	205
71.050	21
71.087	292
72.058	8
72.090	15
73.049	15
79.055	10
80.063	10
81.071	114
82.078	100
83.087	696
83.493	2
83.538	2
83.846	2
84.092	94
85.066	33
85.102	212
85.234	2
86.072	4
86.106	13
87.080	6
95.087	98
96.094	48
97.102	424
98.109	101
99.117	85
100.089	6
100.121	6
101.097	6
109.102	34
110.109	18
111.118	220
112.124	53
113.133	29
114.139	4
123.118	17
124.125	17
125.133	237
126.138	28
127.149	16
133.014	3
135.064	4
137.134	5
138.140	7
139.149	45
140.156	14
141.128	4
141.164	11
142.136	49
143.144	428
144.147	42
145.152	3
147.066	3
151.149	3
152.156	3
153.165	21
154.172	15
155.179	9
157.160	5
167.180	13
168.188	6
169.196	6
180.188	10
181.195	21
182.203	18
183.210	7
191.002	4
195.212	9
196.219	16
197.226	8
207.034	32
208.034	7
209.031	4
209.228	5
210.235	16
211.240	4
222.235	17
223.242	43
224.249	20
225.256	8
236.253	3
238.266	44
239.272	18
240.276	3
252.282	11
253.018	6
253.287	4
254.014	2
264.282	9
265.289	12
266.293	3
280.315	3
281.052	9
281.284	3
282.292	3
283.300	319
284.303	66
285.306	8
320.343	4
321.351	9
322.356	4
331.064	3
336.375	6
341.018	4
350.390	9
351.391	3
355.073	3
378.423	92
379.425	26
380.428	4
429.085	3
