Mass spectrum: Malic acid-[4-13C]; GC-EI-QQ; MS2; POSITIVE; CID 5 V; 3 TBDMS-derivative; [M-57]+
Name: Malic acid-[4-13C]
Class: In vitro synthetic compound
Formula: C4H6O5
Exact mass: 134.02153
SMILES: C(C(C(=O)O)O)C(=O)O
InChI: InChI=1S/C4H6O5/c5-2(4(8)9)1-3(6)7/h2,5H,1H2,(H,6,7)(H,8,9)/i3+1
Instrument: GCMS-TQ8040 (Shimadzu, Kyoto, Japan)
Instrument type: GC-EI-QQ
Ms type: MS2
Ion mode: POSITIVE
Collision energy: 5 V
Fragmentation mode: CID
Column name: DB-5MS+DG (Agilent Technologies, Santa Clara, CA, USA)
Derivative form: C22H48O5Si3
Derivative mass: 476.28095
Derivative type: 3 TBDMS
Precursor m/z: 420.21334
m/z	relative intensity	assigned
55.05	41	
73.1	243	
115.15	999	
147.05	192	
160.25	18	
188.25	11	
189.15	560	
214.2	56	
217.25	108	C9H21O2Si2+
245.25	11	
260.2	37	
287.95	40	
288.85	13	
347.35	133	
349.35	59	C15H37O3Si3+
375.4	32	
376.3	12	
392.4	114	C16(13C)H39O4Si3+
404.05	43	
420.25	387	
