Mass spectrum: (4S)-4-Methyl-6-benzyloxyhexanol; GC-EI-BE; MS; positive; EI; 70 V
Name: (4S)-4-Methyl-6-benzyloxyhexanol
Class: Non-natural product
Formula: C14H22O2
Exact mass: 222.16198
SMILES: C[C@@H](CCCO)CCOCC1=CC=CC=C1
InChI: InChI=1S/C14H22O2/c1-13(6-5-10-15)9-11-16-12-14-7-3-2-4-8-14/h2-4,7-8,13,15H,5-6,9-12H2,1H3/t13-/m0/s1
Instrument: JMS-700V (JEOL, Akishima, Japan) coupled to Agilent 6890N (Agilent, Wilmington, USA) gas chromatograph.
Instrument type: GC-EI-BE
Ms type: MS
Ion mode: POSITIVE
Ionization: EI
Column name: DB-5MS 122-5532 US877814H (Agilent, Wilmington, USA), length 30.0 m, I.D. 0.25 mm, thickness 0.25 micrometer.
Retention time: 10.98 min
m/z	relative intensity
36	64
37	3
38	29
39	27
40	4
41	80
42	13
43	27
44	4
45	6
50	5
51	19
52	6
53	9
54	3
55	111
56	23
57	22
58	7
59	1
61	1
62	3
63	11
64	4
65	73
66	5
67	21
68	15
69	91
70	31
71	15
72	1
73	1
74	2
75	2
76	2
77	39
78	15
79	43
80	5
81	28
82	5
83	42
84	5
85	16
86	4
87	3
89	23
90	18
91	999
92	245
93	28
94	3
95	89
96	19
97	17
98	9
99	4
100	1
101	2
103	1
104	24
105	33
106	20
107	466
108	102
109	7
111	13
112	4
113	30
114	19
115	5
117	5
118	5
119	2
120	2
121	2
125	2
126	12
127	2
128	5
129	9
130	2
131	13
132	3
133	6
134	1
143	3
145	3
146	2
147	2
157	1
159	2
160	1
161	3
175	2
176	1
189	1
190	2
220	12
221	2
222	56
223	10
224	1
