Mass spectrum: L-Carnitine; ESI-QTOF; MS2; POSITIVE; [M+H]+; CID; 10 V
Name: L-Carnitine
Class: Carnitine
Formula: C7H15NO3
Exact mass: 161.10519
SMILES: C[N+](C)(C)C[C@@H](CC(=O)[O-])O
InChI: InChI=1S/C7H15NO3/c1-8(2,3)5-6(9)4-7(10)11/h6,9H,4-5H2,1-3H3/t6-/m1/s1
Instrument: X500R QTOF (AB Sciex LLC, USA)
Instrument type: ESI-QTOF
Ms type: MS2
Ion mode: POSITIVE
Collision energy: 10 V
Fragmentation mode: CID
Ionization: ESI
Precursor m/z: 162.11247
Precursor type: [M+H]+
m/z	relative intensity	assigned
162.112	999	[C7H15NO3+H]+
