Mass spectrum: Dehydroeburicoic acid; ESI-QTOF; MS2; POSITIVE; [M+H]+; CID; 50 V
Name: Dehydroeburicoic acid
Class: Non-natural product; Bile acid
Formula: C31H48O3
Exact mass: 468.36035
SMILES: CC(C)C(=C)CC[C@H]([C@H]1CC[C@@]2([C@@]1(CC=C3C2=CC[C@@H]4[C@@]3(CC[C@@H](C4(C)C)O)C)C)C)C(=O)O
InChI: InChI=1S/C31H48O3/c1-19(2)20(3)9-10-21(27(33)34)22-13-17-31(8)24-11-12-25-28(4,5)26(32)15-16-29(25,6)23(24)14-18-30(22,31)7/h11,14,19,21-22,25-26,32H,3,9-10,12-13,15-18H2,1-2,4-8H3,(H,33,34)/t21-,22-,25+,26+,29-,30-,31+/m1/s1
Instrument: X500R QTOF (AB Sciex LLC, USA)
Instrument type: ESI-QTOF
Ms type: MS2
Ion mode: POSITIVE
Collision energy: 50 V
Fragmentation mode: CID
Ionization: ESI
Precursor m/z: 469.36762
Precursor type: [M+H]+
m/z	relative intensity
43.0553	18
55.0555	312
57.0711	94
65.0399	20
67.0556	184
69.0713	241
71.0870	39
77.0400	70
79.0558	167
81.0714	323
83.0869	153
91.0558	275
93.0714	352
95.0870	595
97.0662	27
97.1026	175
103.0558	18
105.0714	512
107.0870	627
109.1027	450
111.0819	77
115.0558	22
117.0715	106
119.0870	806
121.1027	403
123.0820	29
123.1184	141
128.0635	30
129.0714	70
130.0793	29
131.0870	352
133.0662	20
133.1026	727
135.0820	33
135.1183	288
137.0976	23
137.1340	34
141.0714	25
142.0792	49
143.0871	200
144.0949	64
145.1027	722
147.0820	33
147.1183	551
149.0977	22
149.1340	90
151.0768	30
151.1133	30
153.0926	27
155.0870	68
156.0949	49
157.1027	368
158.1105	66
159.1184	999
160.1259	23
161.0978	39
161.1340	314
163.1135	24
163.1497	60
165.0925	32
169.1027	133
170.1103	41
171.1184	336
172.1261	53
173.1340	403
175.1134	36
175.1497	143
177.1654	26
181.1028	39
183.1185	168
184.1261	38
185.1340	255
186.1417	38
187.1497	324
189.1654	274
195.1186	67
197.1341	154
199.1497	253
201.1653	501
203.1810	93
209.1342	80
210.1418	33
211.1497	178
213.1656	206
215.1812	101
223.1497	102
225.1654	217
226.1733	34
227.1810	145
237.1654	88
239.1811	146
241.1966	73
251.1808	63
253.1967	101
265.1968	45
279.2121	45
280.2199	42
293.2280	107
295.2437	242
311.2385	101
