Mass spectrum: Malic acid; GC-EI-Q; MS; POSITIVE; 3 TBDMS-derivative
Name: Malic acid
Class: Natural Product
Formula: C4H6O5
Exact mass: 134.02153
SMILES: O=C(O)C(O)CC(=O)O
InChI: InChI=1S/C4H6O5/c5-2(4(8)9)1-3(6)7/h2,5H,1H2,(H,6,7)(H,8,9)
Instrument: GCMS-QP2010 Ultra (Shimadzu, Kyoto, Japan)
Instrument type: GC-EI-Q
Ms type: MS
Ion mode: POSITIVE
Column name: DB-5MS+DG (Agilent Technologies, Santa Clara, CA, USA)
Derivative form: C22H48O5Si3
Derivative mass: 476.28095
Derivative type: 3 TBDMS
m/z	relative intensity	assigned
55	94	
57.05	20	
58.05	13	
59.05	58	
69.1	15	
72.15	10	
73.05	999	
74.05	85	
75.05	99	
85.1	13	
99.1	17	
101.05	16	
115.1	342	
116.1	40	
117.1	21	
129.1	20	
131.1	14	
133.05	96	
134.1	13	
135.05	10	
147.1	303	
148.1	48	
149.1	52	
175.05	19	
189.1	122	
190.1	23	
191.05	13	
203	9	
207	18	
213.05	20	
217.05	50	C9H21O2Si2+
218.05	10	
245.05	11	
259.1	19	
287.1	198	
288.1	46	
289.1	21	
317.2	10	C15H33O3Si2+
329.15	10	
347.2	27	
349.2	28	C15H37O3Si3+
391.2	34	C17H39O4Si3+
392.2	11	
403.15	59	
404.15	19	
419.2	238	
420.2	81	
421.2	39	
461.25	12	
