Mass spectrum: rac-(2S,5S)-2-((S)-2-Acetoxybut-3-en-1-yl)-5-(acetoxymethyl)tetrahydrofuran; GC-FI-TOF; MS; POSITIVE; FI; 10 kV
Name: rac-(2S,5S)-2-((S)-2-Acetoxybut-3-en-1-yl)-5-(acetoxymethyl)tetrahydrofuran
Class: Non-natural compound
Formula: C13H20O5
Exact mass: 256.13108
SMILES: C=C[C@H](C[C@@H]1CC[C@@H](COC(C)=O)O1)OC(C)=O
InChI: InChI=1S/C13H20O5/c1-4-11(17-10(3)15)7-12-5-6-13(18-12)8-16-9(2)14/h4,11-13H,1,5-8H2,2-3H3/t11-,12+,13+/m1/s1
Instrument: JMS-T100GCV (JEOL, Akishima, Japan) coupled to Agilent 7890A gas chromatograph.
Instrument type: GC-FI-TOF
Ms type: MS
Ion mode: POSITIVE
Ionization: FI
Column name: ZB-1MS 7HM-G011-11 sn:313446, length 30.0 m, I.D. 0.32 mm, thickness 0.25 micrometer.
Retention time: 9.04 min.
m/z	relative intensity
30.011	29
43.019	357
60.022	18
73.029	40
99.045	40
136.089	69
137.096	13
143.071	88
178.099	23
183.102	999
184.105	117
185.107	15
196.109	343
197.114	71
213.11	32
214.117	47
238.117	27
255.125	35
256.131	147
257.138	135
258.14	20
