Mass spectrum: rac-(2S,3S,5S)-5-(But-3-en-1-yl)-3-acetoxy-2-(acetoxymethyl)tetrahydrofuran; GC-FI-TOF; MS; POSITIVE; FI; 10 kV
Name: rac-(2S,3S,5S)-5-(But-3-en-1-yl)-3-acetoxy-2-(acetoxymethyl)tetrahydrofuran
Class: Non-natural compound
Formula: C13H20O5
Exact mass: 256.13108
SMILES: C=CCC[C@H]1C[C@H](OC(C)=O)[C@H](COC(C)=O)O1
InChI: InChI=1S/C13H20O5/c1-4-5-6-11-7-12(17-10(3)15)13(18-11)8-16-9(2)14/h4,11-13H,1,5-8H2,2-3H3/t11-,12-,13-/m0/s1
Instrument: JMS-T100GCV (JEOL, Akishima, Japan) coupled to Agilent 7890A gas chromatograph.
Instrument type: GC-FI-TOF
Ms type: MS
Ion mode: POSITIVE
Ionization: FI
Column name: ZB-1MS 7HM-G011-11 sn:313446, length 30.0 m, I.D. 0.32 mm, thickness 0.25 micrometer.
Retention time: 8.95 min.
m/z	relative intensity
43.019	23
136.084	8
154.098	96
155.101	11
183.101	9
196.108	999
197.111	126
197.218	4
198.115	15
201.074	105
202.076	10
214.081	61
215.085	6
256.131	376
257.135	62
258.136	9
