Mass spectrum: Genistein; ESI-QTOF; MS2; POSITIVE; [M+H]+; CID; 60 V
Name: Genistein
Class: 7-hydroxyisoflavone
Formula: C15H10O5
Exact mass: 270.05282
SMILES: C1=CC(=CC=C1C2=COC3=CC(=CC(=C3C2=O)O)O)O
InChI: InChI=1S/C15H10O5/c16-9-3-1-8(2-4-9)11-7-20-13-6-10(17)5-12(18)14(13)15(11)19/h1-7,16-18H
Instrument: X500R QTOF (AB Sciex LLC, USA)
Instrument type: ESI-QTOF
Ms type: MS2
Ion mode: POSITIVE
Collision energy: 60 V
Fragmentation mode: CID
Ionization: ESI
Precursor m/z: 271.06010
Precursor type: [M+H]+
m/z	relative intensity
39.0225	166
41.0382	79
43.0174	43
65.0382	783
67.0176	103
68.9968	290
69.0333	66
77.0384	104
91.0539	999
107.0489	81
115.0539	352
141.0696	121
153.0179	177
