Mass spectrum: (7Z)-17-Methylhentriacontane-7-ene; GC-EI-TOF; MS; positive; EI; 70 V
Name: (7Z)-17-Methylhentriacontane-7-ene
Class: Non-natural product
Formula: C32H64
Exact mass: 448.50080
SMILES: CC(CCCCCCCCCCCCCC)CCCCCCCC/C=C\CCCCCC
InChI: InChI=1S/C32H64/c1-4-6-8-10-12-14-16-18-19-21-23-25-27-29-31-32(3)30-28-26-24-22-20-17-15-13-11-9-7-5-2/h14,16,32H,4-13,15,17-31H2,1-3H3/b16-14-
Instrument: JMS-T100GCV (JEOL, Akishima, Japan) coupled to Agilent 7890A (Agilent, Wilmington, USA) gas chromatograph.
Instrument type: GC-EI-TOF
Ms type: MS
Ion mode: POSITIVE
Ionization: EI
Column name: HP-5 19091 J-413 USD364547H (Agilent, Wilmington, USA), length 30 m, I.D. 0.32 mm, thickness 0.25 micrometer.
Retention time: 13.09 min.
m/z	relative intensity
27.024	26
28.031	6
29.039	93
39.024	21
41.039	303
41.093	4
41.119	2
42.047	89
43.055	773
43.109	8
43.181	2
43.335	2
43.378	2
44.058	25
53.039	16
54.047	97
55.055	595
55.114	7
56.062	413
56.123	5
56.165	3
57.070	999
57.131	11
57.367	2
57.442	3
57.698	2
58.074	40
66.047	8
67.055	132
68.062	104
69.070	591
69.138	7
70.078	258
71.086	494
71.153	6
72.089	25
73.047	10
77.040	4
79.055	18
80.062	12
81.070	112
82.078	140
82.145	2
83.086	527
83.160	7
83.483	2
83.532	2
84.093	135
84.163	2
85.102	306
85.178	4
85.230	3
86.105	19
93.069	5
94.077	5
95.086	75
96.094	109
97.102	505
97.179	6
98.108	87
99.117	76
100.121	6
109.102	35
110.109	50
111.117	296
112.123	63
113.133	47
114.137	4
123.117	17
124.125	24
125.133	134
126.140	37
127.149	32
137.133	9
138.140	16
139.149	62
140.155	24
141.164	26
151.149	6
152.157	12
153.164	40
154.171	18
155.180	19
166.172	10
167.179	30
168.186	14
169.195	15
180.187	12
181.195	19
182.203	37
183.210	14
194.203	8
195.210	18
196.218	14
197.225	8
207.033	12
208.219	7
209.226	7
210.234	53
211.239	11
222.235	45
223.242	76
224.249	33
225.256	7
238.266	101
239.271	32
240.275	4
250.266	39
251.273	54
252.279	18
253.288	4
265.286	3
266.297	59
267.303	22
268.308	4
281.052	4
420.468	5
448.501	50
449.505	18
450.505	4
