Mass spectrum: 1-Octadecanoyl-sn-glycero-3-phosphocholine; MALDI-QITTOF; MS2; POSITIVE; [M+H]+; RID
Name: Lyso-PC 18:0
Name: 1-Octadecanoyl-sn-glycero-3-phosphocholine
Class: Natural product; Phospholipid
Formula: C26H54NO7P
Exact mass: 523.3638
SMILES: CCCCCCCCCCCCCCCCCC(=O)OC[C@H](COP(=O)([O-])OCC[N+](C)(C)C)O
InChI: InChI=1S/C26H54NO7P/c1-5-6-7-8-9-10-11-12-13-14-15-16-17-18-19-20-26(29)32-23-25(28)24-34-35(30,31)33-22-21-27(2,3)4/h25,28H,5-24H2,1-4H3/t25-/m1/s1
Instrument: MALDI-QITTOF noncommercial prototype model (Shimadzu Corporation, Kyoto, Japan)
Instrument type: MALDI-QITTOF
Ms type: MS2
Ion mode: POSITIVE
Fragmentation mode: RID
Ionization: MALDI
Ion type: [M+H]+
Precursor m/z: 524.3711
m/z	relative intensity
184.073	232
184.195	4
185.085	7
200.068	11
202.09	9
224.086	19
226.091	93
238.084	6
239.096	19
240.096	21
241.113	16
256.095	167
258.113	141
265.999	18
266.993	4
267.998	39
270	49
271.111	10
273.111	4
286.11	106
299.118	6
307.001	4
310.017	7
311.996	10
312.109	5
326.921	5
331.116	6
341.308	121
397.196	5
426.946	5
463.176	4
467.079	5
468.29	9
474.807	4
505.342	16
506.361	137
507.355	14
508.637	8
520.341	1
522.351	22
523.123	1
523.36	61
523.572	2
523.869	1
524.371	999
524.569	43
524.893	12
525.131	15
525.369	383
525.588	15
525.899	11
526.17	10
526.375	80
527.091	1
527.369	8
527.548	1
536.04	1
538.361	23
539.353	7
540.358	10
541.365	2
546.345	8
547.344	1
