Mass spectrum: 3-((tert-Butyldimethylsilyl)oxy)-2,2-dimethylpropanal; GC-EI-TOF; MS; positive; EI; 70 V
Name: 3-((tert-Butyldimethylsilyl)oxy)-2,2-dimethylpropanal
Class: Non-natural product
Formula: C11H24O2Si
Exact mass: 216.15456
SMILES: CC(C)(C)[Si](C)(C)OCC(C)(C)C=O
InChI: InChI=1S/C11H24O2Si/c1-10(2,3)14(6,7)13-9-11(4,5)8-12/h8H,9H2,1-7H3
Instrument: JMS-T100GCV (JEOL, Akishima, Japan) coupled to Agilent 7890A (Agilent, Wilmington, USA) gas chromatograph.
Instrument type: GC-EI-TOF
Ms type: MS
Ion mode: POSITIVE
Ionization: EI
Column name: HP-5 19091 J-413 USD364547H (Agilent, Wilmington, USA), length 30 m, I.D. 0.32 mm, thickness 0.25 micrometer.
Retention time: 6.64 min.
m/z	relative intensity
27.023	30
28.006	16
28.031	6
28.985	7
29.003	16
29.039	80
31	12
31.99	6
39.024	39
40.031	5
41.039	112
41.091	1
41.993	3
42.045	7
43	51
43.055	30
44.007	6
44.98	65
45.016	42
45.98	3
46.016	3
46.995	63
47.995	3
51.025	5
53.039	12
55.001	5
55.055	28
56.063	21
57.017	7
57.071	51
58.024	56
58.074	3
58.995	10
59.032	223
59.139	1
60.003	12
60.032	15
61.011	44
62.011	3
67.055	3
69.034	5
69.071	3
71.032	4
72.039	5
73.047	340
74.019	8
74.048	26
75.026	882
75.455	2
75.744	2
76.027	60
77.023	31
83.032	4
85.011	5
85.048	42
86.05	4
87.027	7
88.035	16
89.042	102
89.115	1
90.043	8
91.039	4
97.048	3
99.027	20
99.063	21
100.029	2
100.068	4
101.006	5
101.042	40
102.044	4
103.022	6
103.057	8
111.027	5
113.042	26
114.045	3
115.058	724
115.588	2
116.059	72
116.342	1
117.042	43
118.039	4
127.058	2
129.074	298
130.076	34
131.072	11
132.097	42
133.102	11
134.098	2
141.074	7
143.053	13
145.069	11
157.105	3
159.084	999
159.535	2
159.709	3
160.086	123
160.614	2
161.083	41
162.085	4
171.121	2
186.144	5
201.131	17
202.133	3
