Mass spectrum: Genistin; ESI-QTOF; MS2; NEGATIVE; [M-H]-; CID; 60 V
Name: Genistin
Class: 7-hydroxyisoflavone
Formula: C21H20O10
Exact mass: 432.10565
SMILES: C1=CC(=CC=C1C2=COC3=CC(=CC(=C3C2=O)O)O[C@H]4[C@@H]([C@H]([C@@H]([C@H](O4)CO)O)O)O)O
InChI: InChI=1S/C21H20O10/c22-7-15-18(26)19(27)20(28)21(31-15)30-11-5-13(24)16-14(6-11)29-8-12(17(16)25)9-1-3-10(23)4-2-9/h1-6,8,15,18-24,26-28H,7H2/t15-,18-,19+,20-,21-/m1/s1
Instrument: X500R QTOF (AB Sciex LLC, USA)
Instrument type: ESI-QTOF
Ms type: MS2
Ion mode: NEGATIVE
Collision energy: 60 V
Fragmentation mode: CID
Ionization: ESI
Precursor m/z: 431.09837
Precursor type: [M-H]-
m/z	relative intensity
63.0238	25
65.0031	19
91.0187	33
107.0136	49
132.0215	102
133.0292	175
135.0085	42
135.0449	41
157.0293	32
159.0449	86
180.0579	59
181.0656	70
183.0449	80
195.0449	71
196.0526	62
201.0555	64
211.0398	202
212.0467	52
223.0399	93
224.0475	125
225.0552	55
239.0348	327
240.0419	128
267.0297	367
268.0373	500
269.045	999
