Mass spectrum: Diallate; LC-ESI-QTOF; MS2; ESI; POSITIVE; [M+H]+; CE 40 V
Name: Diallate
Class: Non-natural product
Formula: C10H17Cl2NOS
Exact mass: 269.04079
SMILES: CC(C)N(C(=O)SCC(Cl)=CCl)C(C)C
InChI: InChI=1S/C10H17Cl2NOS/c1-7(2)13(8(3)4)10(14)15-6-9(12)5-11/h5,7-8H,6H2,1-4H3
Instrument: ExionLC AD, AB Sciex LLC, USA; X500R QTOF, AB Sciex LLC, USA.
Instrument type: LC-ESI-QTOF
Ms type: MS2
Ion mode: POSITIVE
Collision energy: 40 V
Ionization: ESI
Column name: AQ-C18HP 3 microm, 2.1 mm Ã— 150 mm, GL Science (Tokyo Japan)
Retention time: 15.4 min
Precursor m/z: 270.04806
Precursor type: [M+H]+
m/z	relative intensity
41.0388	197
43.0544	743
44.0132	97
44.9798	52
46.9954	96
58.066	66
80.9576	99
82.9462	171
86.0605	69
106.9729	245
108.961	999
142.9485	85
