Mass spectrum: Genistein; ESI-QTOF; MS2; NEGATIVE; [M-H]-; CID; 60 V
Name: Genistein
Class: 7-hydroxyisoflavone
Formula: C15H10O5
Exact mass: 270.05282
SMILES: C1=CC(=CC=C1C2=COC3=CC(=CC(=C3C2=O)O)O)O
InChI: InChI=1S/C15H10O5/c16-9-3-1-8(2-4-9)11-7-20-13-6-10(17)5-12(18)14(13)15(11)19/h1-7,16-18H
Instrument: X500R QTOF (AB Sciex LLC, USA)
Instrument type: ESI-QTOF
Ms type: MS2
Ion mode: NEGATIVE
Collision energy: 60 V
Fragmentation mode: CID
Ionization: ESI
Precursor m/z: 269.04555
Precursor type: [M-H]-
m/z	relative intensity
37.0081	33
41.003	550
49.0081	28
63.0238	698
63.9952	51
65.003	839
77.0394	160
83.0136	47
89.0031	47
89.0395	78
91.0188	164
91.9902	52
104.0266	160
105.0344	114
107.0138	117
117.0345	219
130.0423	83
132.0216	999
133.0293	473
134.0372	483
135.045	189
