Mass spectrum: (2S)-2-Aminobutanoic acid; GC-EI-TOF; MS; POSITIVE; EI; 70 V; TFA, TMS
Name: (2S)-2-Aminobutanoic acid
Class: Non-natural compound
Formula: C4H9NO2
Exact mass: 103.0633285
SMILES: CC[C@@H](C(=O)O)N
InChI: InChI=1S/C4H9NO2/c1-2-3(5)4(6)7/h3H,2,5H2,1H3,(H,6,7)/t3-/m0/s1
Instrument: JMS-T100GCV (JEOL, Akishima, Japan) coupled to Agilent 7890A (Santa Clara, CA, USA) gas chromatograph.
Instrument type: GC-EI-TOF
Ms type: MS
Ion mode: POSITIVE
Ionization: EI
Column name: DB-5MS UI 122-5532UI US0462866H (Agilent, Wilmington, USA) with the length 30 m, I.D. 0.25 mm, and thickness 0.25 micrometer.
Retention time: 6.99 min.
Derivative form: C9H16F3NO3Si
Derivative mass: 271.08515
Derivative type: TFA, TMS
m/z	relative intensity
27.024	17
27.977	4
28.019	45
28.985	11
29.039	16
30.035	3
31.0	5
39.024	16
40.03	2
41.039	125
41.082	2
41.993	4
42.044	9
43.001	46
43.054	3
44.011	31
44.98	57
45.016	81
45.981	3
46.015	5
46.995	45
48.992	5
51.005	3
54.035	7
55.018	7
55.042	2
56.014	19
56.05	29
57.019	10
57.057	7
58.025	22
58.996	12
59.031	15
60.003	9
61.011	41
62.009	2
63.007	8
68.025	2
68.995	71
69.034	20
70.028	8
71.031	4
72.039	32
73.047	999
73.469	3
73.759	2
74.019	12
74.048	76
74.386	1
74.426	1
75.027	247
76.026	17
77.022	158
77.992	5
78.02	15
79.002	8
84.045	74
85.049	5
86.051	2
87.048	4
89.042	3
90.022	1
91.038	10
92.039	10
94.01	2
96.007	4
96.99	2
98.022	5
99.026	3
99.063	25
100.022	16
100.061	5
102.037	4
104.032	7
106.047	8
107.022	3
114.022	3
114.074	5
115.048	1
116.051	9
117.037	13
120.028	127
121.027	10
122.024	4
126.017	15
129.037	7
130.033	7
130.105	9
132.046	8
134.042	7
134.08	17
135.05	72
136.051	4
143.014	17
143.053	49
144.054	6
145.051	2
153.04	5
154.048	48
155.051	3
158.1	20
159.102	2
170.025	19
171.025	2
174.095	9
178.07	21
179.072	2
186.056	5
198.056	7
199.064	9
204.086	3
208.061	2
212.072	114
213.074	13
214.07	4
227.023	3
227.095	91
228.094	14
229.092	4
242.046	4
256.062	213
257.064	26
258.061	9
