Mass spectrum: d-alpha-BHC; GC-EI-Q; MS; Positive
Name: d-alpha-BHC
Name: (1a,2a,3b,4a,5b,6b)-1,2,3,4,5,6-Hexachlorocyclohexane
Class: Non-Natural Product; Pesticides
Formula: C6H6Cl6
Exact mass: 287.86007
SMILES: Cl[C@H]1[C@H](Cl)[C@@H](Cl)[C@H](Cl)[C@H](Cl)[C@@H]1Cl
InChI: InChI=1S/C6H6Cl6/c7-1-2(8)4(10)6(12)5(11)3(1)9/h1-6H/t1-,2-,3-,4+,5-,6-
Instrument: GCMS-QP2010 Plus, Shimadzu
Instrument type: GC-EI-Q
Ms type: MS
Ion mode: POSITIVE
Ionization: EI
Column name: Ptx-5MS(RESTEK), 0.32 mm I.D. x 30 m, df=0.25 microm
Retention time: 7.58 min
Ion type: [M]+*
Precursor m/z: 287.86
m/z	relative intensity
40	8
47	12
48	9
49	17
50	29
51	334
52	58
53	9
54	5
55	36
56	42
57	9
60	16
61	86
62	24
63	64
65	11
72	19
73	189
74	116
75	251
76	40
77	386
78	263
79	17
83	184
84	21
85	240
86	27
87	159
88	12
89	35
91	17
95	16
96	72
97	27
98	48
99	62
100	19
101	18
107	15
108	6
109	245
110	32
111	693
112	166
113	240
114	50
115	21
119	13
120	5
121	124
122	83
123	76
124	56
125	16
126	8
131	13
133	58
134	31
135	51
136	19
137	15
143	70
144	8
145	268
146	210
147	401
148	165
149	197
150	37
151	28
155	7
156	122
157	35
158	111
159	29
160	38
161	8
162	5
168	6
169	30
170	5
171	29
173	8
180	13
181	999
182	92
183	985
184	76
185	316
186	26
187	40
216	51
217	708
218	102
219	901
220	9
221	440
222	9
223	96
224	17
225	4
228	3
229	10
252	24
254	43
256	21
258	9
