Mass spectrum: 2-(4-Trifluoromethylphenyl)ethylamine; LC-ESI-QQ; MS2; POSITIVE; [M+H-NH3]+; CID; 30 V
Name: 2-(4-Trifluoromethylphenyl)ethylamine
Class: Non-natural product; Phenethylamine
Formula: C9H10F3N
Exact mass: 189.07653
SMILES: C1=CC(=CC=C1CCN)C(F)(F)F
InChI: InChI=1S/C9H10F3N/c10-9(11,12)8-3-1-7(2-4-8)5-6-13/h1-4H,5-6,13H2
Instrument: Xevo TQS micro (Waters, MA, USA) coupled to ACQUITY UPLC H-Class (Waters, MA, USA)
Instrument type: LC-ESI-QQ
Ms type: MS2
Ion mode: POSITIVE
Collision energy: 30 V
Fragmentation mode: CID
Ionization: ESI
Column name: Acquity UPLC BEH AMIDE column (1.7 Âµm, 2.1 x 150 mm; Waters, MA, USA)
Precursor m/z: 173.05726
Precursor type: [M+H-NH3]+
m/z	relative intensity
26.8	17
27.1	5
27.3	4
38.5	3
38.7	2
38.9	5
39.2	7
50.6	9
50.8	10
51.0	8
51.2	11
56.7	4
57.1	7
58.7	3
58.9	2
59.2	2
62.8	3
63.0	6
63.3	2
64.9	3
65.1	2
68.9	22
74.8	23
75.1	11
75.2	11
76.2	2
76.9	105
77.2	78
78.0	182
80.7	4
81.1	3
82.8	41
83.0	62
87.0	2
89.0	4
94.8	18
95.1	16
95.3	8
100.6	3
100.9	6
101.2	9
102.0	95
102.5	17
103.0	144
103.3	40
104.0	143
104.3	33
106.7	17
106.9	22
107.1	22
107.3	14
108.6	3
108.9	10
109.1	8
113.0	16
113.8	4
114.1	5
120.1	2
124.6	2
124.9	4
125.2	2
125.3	2
126.3	2
127.0	94
127.2	76
130.7	2
131.1	2
131.4	2
131.7	3
132.1	8
133.0	999
144.7	6
145.1	17
145.3	5
150.9	30
151.1	31
151.9	4
152.3	4
152.9	38
153.1	59
171.2	2
