Mass spectrum: 2-(4-Nitrophenyl)ethylamine; LC-ESI-QQ; MS2; POSITIVE; [M+H-NH3]+; CID; 50 V
Name: 2-(4-Nitrophenyl)ethylamine
Class: Non-natural product; 4-Nitrophenethylamine
Formula: C8H10N2O2
Exact mass: 166.07422
SMILES: C1=CC(=CC=C1CCN)[N+](=O)[O-]
InChI: InChI=1S/C8H10N2O2/c9-6-5-7-1-3-8(4-2-7)10(11)12/h1-4H,5-6,9H2
Instrument: Xevo TQS micro (Waters, MA, USA) coupled to ACQUITY UPLC H-Class (Waters, MA, USA)
Instrument type: LC-ESI-QQ
Ms type: MS2
Ion mode: POSITIVE
Collision energy: 50 V
Fragmentation mode: CID
Ionization: ESI
Column name: Acquity UPLC BEH AMIDE column (1.7 Âµm, 2.1 x 150 mm; Waters, MA, USA)
Precursor m/z: 150.05495
Precursor type: [M+H-NH3]+
m/z	relative intensity
25.1	5
25.8	12
26.7	8
26.9	16
27.3	9
27.8	5
29.6	6
29.8	25
30.3	7
36.6	5
37.2	6
37.8	28
38.2	40
38.7	294
39.1	430
39.4	80
39.6	5
40.4	13
40.6	18
41.0	83
41.3	81
43.3	10
45.4	7
49.2	8
49.5	82
50.0	330
50.5	233
50.8	658
51.0	500
51.2	643
51.9	518
52.4	89
52.8	10
53.0	14
54.2	5
55.2	5
58.6	5
58.8	6
61.1	14
61.7	8
62.0	11
62.4	21
62.5	36
62.8	129
63.0	165
63.3	179
63.6	5
63.8	14
64.3	9
64.5	60
64.9	427
65.4	63
65.6	22
65.8	13
66.1	5
69.5	8
70.4	8
73.0	5
73.3	7
73.9	16
74.3	5
74.5	25
74.7	42
75.0	35
75.3	11
75.6	77
76.0	53
76.7	838
76.9	744
77.1	999
77.3	788
77.7	420
78.0	437
78.3	404
79.2	6
84.8	5
87.1	7
88.8	19
89.0	18
89.2	14
89.4	9
90.4	5
90.6	33
90.8	91
91.1	274
91.5	23
92.4	5
93.2	6
99.1	5
99.9	8
101.5	36
101.8	62
102.2	31
102.4	31
102.6	91
102.9	186
103.2	65
103.4	100
103.6	6
104.8	11
150.9	6
