Mass spectrum: Succinic acid; GC-EI-QQ; MS2; POSITIVE; CID 10 V; 2 TBDMS-derivative; [M-57]+
Name: Succinic acid
Class: Natural Product; succinic acid
Formula: C4H6O4
Exact mass: 118.02661
SMILES: O=C(O)CCC(=O)O
InChI: InChI=1S/C4H6O4/c5-3(6)1-2-4(7)8/h1-2H2,(H,5,6)(H,7,8)
Instrument: GCMS-TQ8040 (Shimadzu, Kyoto, Japan)
Instrument type: GC-EI-QQ
Ms type: MS2
Ion mode: POSITIVE
Collision energy: 10 V
Fragmentation mode: CID
Column name: DB-5MS+DG (Agilent Technologies, Santa Clara, CA, USA)
Derivative form: C16H34O4Si2
Derivative mass: 346.19956
Derivative type: 2 TBDMS
Precursor m/z: 289.12859
m/z	relative intensity
73.1	531
115.1	104
147.1	999
189.15	79
289.1	55
