Mass spectrum: Cyanophenylguanidine; ESI-QTOF; MS2; ESI; POSITIVE; [M+H]+; CE 60 V
Name: Cyanophenylguanidine
Class: Non-natural product
Formula: C8H8N4
Exact mass: 160.07488
SMILES: N#Cc1ccc(NC(=N)N)cc1
InChI: InChI=1S/C8H8N4/c9-5-6-1-3-7(4-2-6)12-8(10)11/h1-4H,(H4,10,11,12)
Instrument: X500R QTOF (AB Sciex LLC, USA)
Instrument type: ESI-QTOF
Ms type: MS2
Ion mode: POSITIVE
Collision energy: 60 V
Ionization: ESI
Precursor m/z: 161.08216
Precursor type: [M+H]+
m/z	relative intensity
39.0229	339
43.0286	779
50.0151	263
51.0224	858
52.0185	200
63.023	270
64.0185	211
65.0385	306
74.0145	864
75.0218	999
76.0176	925
90.0336	407
102.0332	667
130.0405	108
