Mass spectrum: Glc4; ESI-QQ; MS2; Positive; [M+H]+; CID; CE: 40 eV
Name: Glc4
Name: Isomaltosylmaltose
Name: Glc(a1-6)Glc(a1-4)Glc(a1-4)Glc
Class: Non-natural product.
Formula: C24H42O21
Exact mass: 666.221865
SMILES: O[C@@H]1[C@@H](O)[C@H](O)[C@@H](CO)O[C@@H]1OC[C@H]1O[C@H](O[C@@H]2[C@@H](CO)O[C@H](O[C@@H]3[C@@H](CO)OC(O)[C@H](O)[C@H]3O)[C@H](O)[C@H]2O)[C@H](O)[C@@H](O)[C@@H]1O
InChI: InChI=1S/C24H42O21/c25-1-5-9(28)11(30)16(35)22(41-5)39-4-8-10(29)12(31)17(36)23(43-8)45-20-7(3-27)42-24(18(37)14(20)33)44-19-6(2-26)40-21(38)15(34)13(19)32/h5-38H,1-4H2/t5-,6-,7-,8-,9-,10-,11+,12+,13-,14-,15-,16-,17-,18-,19-,20-,21?,22+,23-,24-/m1/s1
Instrument: Triple Quad 4500 (AB Sciex Pte. Ltd., USA)
Instrument type: LC-ESI-QQ
Ms type: MS2
Ion mode: POSITIVE
Collision energy: 40 eV
Fragmentation mode: CID
Ionization: ESI
Precursor m/z: 667.229142
Precursor type: [M+H]+
m/z	relative intensity
103.1	1
107.3	2
108.8	10
109.0727	8
114.8	2
115	3
115.2	2
118.8	1
121	2
122.9	2
126.9719	45
133.1	3
134.8	3
135	3
135.2	4
137.11	3
145.0856	97
147.1	2
149.1	2
151	1
153.2	2
156.8	1
161.3	2
163.0542	82
165.14	2
167.2	4
167.4	2
169.3	3
171.2	2
171.4	2
172.9	2
173.1	7
175.1167	2
175.4	3
176.9	2
181.1	6
182.8	2
183	1
183.2	1
184.7	1
184.9	4
185.1313	4
187	4
192.9	3
194.7	4
195.1	7
196.8	5
197.5	2
198.85	2
199.3	5
205.1	1
206.9	2
207.2	3
208.5	2
208.9	2
209.2	4
209.4	3
210.9	3
211.3	4
212.8	2
213.0462	5
213.3286	4
215	2
215.3	5
222.7	1
223.1357	3
225.0143	4
226.6	2
226.8	3
227	3
227.2	4
228.875	2
229.2	1
230.7	4
231.4	3
232.9417	2
233.2	2
234.775	2
235.5	4
237.3133	2
238.8692	2
239.2	15
239.8	2
240.3	2
240.7	4
241.2619	8
243.2	4
246.7	1
247.2	6
249.2	3
250.8417	2
251.39	6
252.9	4
253.4	4
254.9	7
255.34	3
255.5	3
256.5	2
256.8722	5
259	4
259.2	2
259.48	3
260.9	4
262.5	2
262.8	3
263.0929	5
263.4062	5
265	3
265.2	3
266.3	2
267.0125	2
267.4	5
268	1
269.2421	9
270.9	4
271.135	6
271.3	6
272	2
273.1125	2
275.2917	4
276.8125	2
277.1	2
277.4	5
277.6	2
279.2049	12
279.8	2
280.2	2
281.1033	10
282.7	4
283	6
283.4	4
283.6	4
285	4
288.7	4
289.2	6
290.9143	3
291.3	5
292.9	6
293.2441	7
293.65	2
295.3358	10
296.4	2
297.3337	19
298.9	2
299.2611	4
300.8	1
302.7	2
303	2
303.3	4
305.2714	8
307.2315	25
307.9	6
308.1	4
308.5095	5
309.1774	39
310.2833	2
311.2473	19
311.8	2
312.2639	8
312.5	7
313.1771	14
313.6	5
314.4	4
314.8	1
317.2	2
317.6	1
318.9	11
319.2679	13
319.7	4
320.9	4
321.3	4
322.6286	4
323.1707	13
325.176	65
327.1667	12
327.4583	7
328.4	1
328.8	2
330.8	2
331.2	4
333.1	5
333.6182	2
335.1572	3
335.5	3
335.7278	5
336.0275	23
336.318	31
336.5942	48
337.2991	999
338.14	4
338.5636	5
339.2688	50
340.1	5
340.5214	4
340.7	4
340.9	12
341.3123	19
341.9937	5
342.3	4
343.1	4
343.4	3
345.6	1
347.1867	5
347.6	4
349.0889	4
349.7562	3
350.3889	11
350.6	13
351.1231	45
353.2261	11
354.35	7
355.2508	183
356.3	2
357.5	3
358.8	1
360.8	2
361.2	3
362.6	2
362.9467	4
363.3	6
363.6	1
364.2	3
364.5	6
364.7	6
365.1683	27
365.9	2
366.8	2
367.2522	5
367.5	6
368	1
369.1	12
369.4575	8
370.1	2
370.5	1
371.1688	8
373.1724	16
374.7	6
375.0857	4
377.3	2
378	2
378.36	2
378.6	2
378.8	2
379.15	3
379.5167	2
381.2287	95
382.3	7
383.2593	650
384.3	5
384.5	4
384.7	1
385.3	2
386	1
387.2	2
388	5
388.2	1
388.7	1
389	3
389.3	4
390.975	3
392.7709	9
393.3	6
393.6	2
393.9	2
394.5	1
395.2	4
397	4
399.0182	4
399.4	2
400	4
401.2664	297
402.8583	2
403.3	1
407.1333	1
409.2	5
409.6	4
410.5	2
410.8	4
411.2067	20
412.8	3
413.2	2
413.9	1
415.1	1
415.3	1
418.98	3
419.3	2
420.4	1
421.2	1
423	2
423.5364	2
424.5167	2
425.1333	3
425.5	4
428.8	5
429.3	6
429.5	6
431.3	3
431.5	2
432.7	5
432.9	5
433.175	3
435.3	2
435.6	1
439.3	5
439.5	4
440.8	2
441.2	1
441.6	1
443.1	2
445.1	1
445.3333	1
447.4	2
447.7	1
448.2	1
450.6	2
451	4
451.6	3
452.9	2
453.25	2
457.2	4
459.1	1
463.2	3
465.6	1
467.2	6
467.64	2
468.9	4
473.1	2
475.1	2
475.275	2
478.2	1
479.4	4
481	4
481.37	4
481.7	4
483.2	1
487.1	1
489	3
493.35	3
495.1	4
495.5	4
496.1	1
497.3	4
497.5	4
498.1	4
498.475	4
498.9	4
499.26	2
501.1	1
501.7	2
503.25	3
503.6	1
506.9	1
507.5	3
509.6	1
510.8	1
511.3	1
511.6	2
513.2	1
517.1	2
517.63	2
519.1	2
519.3	2
519.6	4
521.1071	5
523.4	2
528.6	1
529	1
531.1	2
531.5	2
533.5	2
534.9	4
535.4061	13
537.4593	193
538.3	2
541.2	1
547.2	3
547.5	6
549.2	2
549.4222	2
553.1428	3
553.6	2
554.4	2
555.0461	5
555.4	7
555.6	11
557.1639	17
558.9	2
560.8	2
563.5	107
564.5	1
565.27	5
565.5	2
566.0714	4
566.475	2
567.39	3
567.7333	1
569.1	2
569.3	1
573.1	4
573.5	1
574.9	6
575.256	8
575.8	2
577	2
579.1	1
581.15	3
581.4	4
583.1833	2
583.7333	1
585.1	2
589.275	2
591.4548	20
592.3	1
593.515	493
594.5	3
594.725	2
595.1	2
595.3	2
600.9	3
601.3	2
603.1	2
605.1	2
606.4	1
607.7	4
608.2	3
611.4687	24
612.5	2
613.1743	34
613.9	1
619.2625	5
621.2833	4
625.3	1
625.5	1
626.5	3
629.5	2
631.1973	7
631.6	2
631.8	2
637.2	4
637.4769	8
637.9	3
641.2	1
648.7	2
649.498	40
650.1	3
666.1667	1
666.5	4
667.5046	87
