Mass spectrum: Pectenolone; LC-ESI-QTOF; MS2; POSITIVE; ESI; [M+H]+; COLLISION_ENERGY 20 V.
Name: Pectenolone
Name: (3S,3'R)-3,3'-Dihydroxy-7',8'-didehydro-b,b-caroten-4-one
Class: Natural product; Carotenoids, Xanthophyll
Formula: C40H52O3
Exact mass: 580.3916
SMILES: CC1=C(C(C[C@@H](C1)O)(C)C)C#C/C(=C/C=C/C(=C/C=C/C=C(\C)/C=C/C=C(\C)/C=C/C2=C(C(=O)[C@H](CC2(C)C)O)C)/C)/C
InChI: InChI=1S/C40H52O3/c1-28(17-13-19-30(3)21-23-35-32(5)25-34(41)26-39(35,7)8)15-11-12-16-29(2)18-14-20-31(4)22-24-36-33(6)38(43)37(42)27-40(36,9)10/h11-20,22,24,34,37,41-42H,25-27H2,1-10H3/b12-11+,17-13+,18-14+,24-22+,28-15+,29-16+,30-19+,31-20+/t34-,37+/m1/s1
Instrument: Xevo G2-S QtOF, Waters (USA) coupled to ACQUITY UPLC, Waters (USA).
Instrument type: LC-ESI-QTOF
Ms type: MS2
Ion mode: POSITIVE
Collision energy: 20 V
Ionization: ESI
Column name: BEH C18, I.D. 2.1 mm, length 100 mm, thickness 1.7 micrometer.
Ion type: [M+H]+
Precursor m/z: 581.3989
m/z	relative intensity
107.072	106
109.087	66
119.071	168
121.087	98
133.053	61
133.087	131
135.066	165
135.103	67
137.08	59
145.086	163
147.103	999
148.106	101
151.098	58
155.092	56
157.087	239
158.093	59
159.102	147
161.082	107
161.119	130
169.087	75
171.103	201
172.106	58
173.117	358
174.122	52
183.098	63
185.118	53
187.135	94
189.111	72
191.129	89
197.117	195
199.135	373
200.141	70
201.112	110
203.131	54
207.1	80
209.118	130
211.135	99
217.144	295
221.118	55
223.136	154
225.15	63
235.132	51
239.164	73
247.138	58
249.155	74
251.162	68
251.174	65
257.176	95
262.154	64
263.162	93
263.171	77
269.185	65
273.152	112
279.166	62
282.183	59
283.193	74
285.173	83
299.189	66
315.197	86
329.216	56
563.376	72
563.393	152
581.398	535
582.398	172
582.423	89
583.416	51
