Mass spectrum: (2S)-2-Aminobutanoic acid; GC-FI-TOF; MS; POSITIVE; FI; 10 kV; TFA, TMS
Name: (2S)-2-Aminobutanoic acid
Class: Non-natural compound
Formula: C4H9NO2
Exact mass: 103.0633285
SMILES: CC[C@@H](C(=O)O)N
InChI: InChI=1S/C4H9NO2/c1-2-3(5)4(6)7/h3H,2,5H2,1H3,(H,6,7)/t3-/m0/s1
Instrument: JMS-T100GCV (JEOL, Akishima, Japan) coupled to Agilent 7890A (Santa Clara, CA, USA) gas chromatograph.
Instrument type: GC-FI-TOF
Ms type: MS
Ion mode: POSITIVE
Ionization: FI
Column name: DB-5MS UI 122-5532UI US0462866H (Agilent, Wilmington, USA) with the length 30 m, I.D. 0.25 mm, and thickness 0.25 micrometer.
Retention time: 6.97 min.
Derivative form: C9H16F3NO3Si
Derivative mass: 271.08515
Derivative type: TFA, TMS
m/z	relative intensity
73.048	259
117.038	678
118.039	69
119.039	41
154.049	999
155.053	64
256.062	546
257.064	96
258.063	42
272.098	53
