Mass spectrum: 2-(4-Nitrophenyl)ethylamine; ESI-QQ; MS; POSITIVE
Name: 2-(4-Nitrophenyl)ethylamine
Class: Non-natural product; 4-Nitrophenethylamine
Formula: C8H10N2O2
Exact mass: 166.07422
SMILES: C1=CC(=CC=C1CCN)[N+](=O)[O-]
InChI: InChI=1S/C8H10N2O2/c9-6-5-7-1-3-8(4-2-7)10(11)12/h1-4H,5-6,9H2
Instrument: Xevo TQS micro (Waters, MA, USA)
Instrument type: ESI-QQ
Ms type: MS
Ion mode: POSITIVE
Ionization: ESI
m/z	relative intensity
74.1	36
76.9	6
81.5	91
83.0	7
89.6	12
90.3	17
90.8	71
92.1	17
92.9	5
93.1	7
93.8	5
94.2	7
97.5	134
98.3	7
102.1	152
102.8	13
103.8	7
104.1	20
105.4	9
105.7	9
109.9	23
110.2	12
111.2	6
111.9	5
118.1	5
120.0	14
120.3	9
121.1	6
122.3	15
123.2	6
125.1	5
126.0	11
126.2	9
130.1	10
134.1	10
135.2	5
139.1	10
144.1	7
148.1	9
149.1	6
150.1	5
153.1	11
156.1	33
156.3	18
157.1	7
158.1	29
162.0	6
167.1	999
168.1	101
169.0	5
169.2	8
181.1	16
182.0	5
182.8	6
183.1	19
185.1	13
190.1	18
191.1	27
193.0	5
197.8	6
199.1	14
200.1	7
