Mass spectrum: Citric acid-[1,2,3,4,5,6-13C6]; GC-EI-QQ; MS2; POSITIVE; CID; 4 TMS-derivative; [M-15]+
Name: Citric acid-[1,2,3,4,5,6-13C6]
Class: In vitro synthetic compound
Formula: C6H8O7
Exact mass: 192.02701
SMILES: OC(=O)CC(O)(CC(O)=O)C(=O)O
InChI: InChI=1S/C6H8O7/c7-3(8)1-6(13,5(11)12)2-4(9)10/h13H,1-2H2,(H,7,8)(H,9,10)(H,11,12)/i1+1,2+1,3+1,4+1,5+1,6+1
Instrument: GCMS-TQ8040 (Shimadzu, Kyoto, Japan)
Instrument type: GC-EI-QQ
Ms type: MS2
Ion mode: POSITIVE
Collision energy: 15 V
Fragmentation mode: CID
Column name: DB-5MS+DG (Agilent Technologies, Santa Clara, CA, USA)
Derivative form: C18H40O7Si4
Derivative mass: 480.18511
Derivative type: 4 TMS
Precursor m/z: 471.181220
m/z	relative intensity	assigned
71.15	70	
73.1	370	
75	18	
86.85	16	
91	31	
100.05	10	
116.1	33	
145.05	49	
147.1	999	
148.15	14	
149.05	187	
166.95	22	
172.85	49	
187.25	28	
188.15	122	
190.5	14	
190.7	13	
206.3	13	
216	40	
217	591	
219.15	65	
221.05	39	
232.95	49	
248.85	33	
262.05	597	
266.2	11	
278.1	174	C6(13C5)H21O4Si2+
290.25	10	
291.25	146	
307.15	68	
308.25	15	
323.1	152	
336.25	47	
337	33	
338.15	21	
350.5	11	
352.05	789	C8(13C5)H27O5Si3+
380.95	35	
471.05	10	C11(13C6)H37O7Si4+
