Mass spectrum: rac-(2R,3S,5R)-5-(But-3-en-1-yl)-3-acetoxy-2-(acetoxymethyl)tetrahydrofuran; GC-EI-TOF; MS; POSITIVE; EI; 70 V
Name: rac-(2R,3S,5R)-5-(But-3-en-1-yl)-3-acetoxy-2-(acetoxymethyl)tetrahydrofuran
Class: Non-natural compound
Formula: C13H20O5
Exact mass: 256.13108
SMILES: C=CCC[C@@H]1C[C@H](OC(C)=O)[C@@H](COC(C)=O)O1
InChI: InChI=1S/C13H20O5/c1-4-5-6-11-7-12(17-10(3)15)13(18-11)8-16-9(2)14/h4,11-13H,1,5-8H2,2-3H3/t11-,12+,13-/m1/s1
Instrument: JMS-T100GCV (JEOL, Akishima, Japan) coupled to Agilent 7890A gas chromatograph.
Instrument type: GC-EI-TOF
Ms type: MS
Ion mode: POSITIVE
Ionization: EI
Column name: ZB-1MS 7HM-G011-11 sn:313446, length 30.0 m, I.D. 0.32 mm, thickness 0.25 micrometer.
Retention time: 8.92 min.
m/z	relative intensity
27.023	16
28.006	41
28.031	4
29.002	8
29.039	19
31.018	5
31.99	4
39.023	35
40.03	5
41.039	98
42.01	11
42.045	9
43.018	999
43.055	14
43.341	3
43.561	2
43.801	1
44.022	27
44.06	1
45.033	6
51.023	3
52.031	2
53.039	26
54.046	30
55.018	27
55.054	61
56.025	3
56.06	5
57.034	33
58.04	3
60.021	3
61.029	15
65.039	7
66.046	8
67.054	132
67.12	2
68.026	7
68.06	16
69.034	28
69.069	4
70.041	19
71.013	3
71.049	16
73.028	20
74.036	4
77.039	13
78.046	3
79.054	86
80.062	88
80.135	1
81.033	496
81.069	45
81.431	1
81.478	2
82.039	43
82.076	6
83.049	21
83.085	4
84.056	5
85.029	3
85.064	3
86.036	4
87.044	4
91.054	12
92.061	5
93.07	41
94.041	167
95.048	32
95.085	95
96.054	4
96.089	8
97.029	4
97.065	5
98.036	3
98.072	3
99.044	18
100.052	9
101.023	6
103.039	16
105.07	39
106.074	4
107.049	20
108.056	7
109.064	3
111.045	2
111.08	4
112.052	5
113.059	10
115.039	2
117.069	3
118.078	4
121.065	4
123.08	61
124.084	6
125.095	3
135.08	8
136.088	32
137.095	22
138.099	3
141.091	60
142.095	6
145.049	2
153.055	6
154.099	114
155.102	13
183.102	85
184.106	10
196.11	5
201.076	3
