Mass spectrum: (2E,6S,7R)-6,7-Epoxynon-2-enal; GC-FI-TOF; MS; positive; FI; 10 kV
Name: (2E,6S,7R)-6,7-Epoxynon-2-enal
Class: Non-natural product
Formula: C9H14O2
Exact mass: 154.09938
SMILES: O=C\C=C\CC[C@@H]1O[C@@H]1CC
InChI: InChI=1S/C9H14O2/c1-2-8-9(11-8)6-4-3-5-7-10/h3,5,7-9H,2,4,6H2,1H3/b5-3+/t8-,9+/m1/s1
Instrument: JMS-T100GCV (JEOL, Akishima, Japan) coupled to Agilent 7890A (Agilent, Wilmington, USA) gas chromatograph.
Instrument type: GC-FI-TOF
Ms type: MS
Ion mode: POSITIVE
Ionization: FI
Column name: HP-5 19091 J-413 USD364547H (Agilent, Wilmington, USA), length 30.0 m, I.D. 0.32 mm, thickness 0.25 micrometer.
Retention time: 7.59 min.
m/z	relative intensity
29.003	51
42.048	63
112.052	240
113.062	114
136.083	32
137.093	47
152.083	33
154.099	999
155.106	406
266.154	60
