Mass spectrum: (S)-Citronellyl pivalate; GC-EI-TOF; MS; positive; EI; 70 V
Name: (S)-Citronellyl pivalate
Class: Non-natural product
Formula: C15H28O2
Exact mass: 240.20893
SMILES: C\C(C)=C\CC[C@H](C)CCOC(=O)C(C)(C)C
InChI: InChI=1S/C15H28O2/c1-12(2)8-7-9-13(3)10-11-17-14(16)15(4,5)6/h8,13H,7,9-11H2,1-6H3/t13-/m0/s1
Instrument: JMS-T100GCV (JEOL, Akishima, Japan) coupled to Agilent 7890A (Agilent, Wilmington, USA) gas chromatograph.
Instrument type: GC-EI-TOF
Ms type: MS
Ion mode: POSITIVE
Ionization: EI
Column name: HP-5 19091 J-413 USD364547H (Agilent, Wilmington, USA), length 30 m, I.D. 0.32 mm, thickness 0.25 micrometer.
Retention time: 9.04 min.
m/z	relative intensity
26.016	4
27.024	58
28.006	22
28.031	17
29.003	4
29.039	163
29.084	2
30.043	3
31.019	5
31.990	8
35.977	5
38.016	4
39.024	122
39.076	1
40.031	28
41.039	780
41.064	6
41.092	7
41.164	1
41.322	2
41.356	2
41.575	1
42.046	80
42.089	1
43.019	11
43.055	79
43.108	1
43.990	10
45.034	4
50.016	4
51.024	10
52.031	6
53.039	78
54.047	30
55.055	337
55.115	3
56.062	116
56.122	1
57.035	3
57.071	999
57.133	9
57.443	3
57.701	2
57.985	1
58.074	40
59.050	10
65.040	16
66.047	9
67.055	487
67.122	5
67.421	1
67.460	1
68.062	261
68.126	3
68.178	1
69.034	14
69.071	769
69.138	7
69.233	1
69.433	2
69.480	2
69.755	1
70.042	13
70.076	77
71.050	12
71.085	8
73.048	10
77.039	15
78.046	4
79.055	37
80.063	71
81.071	924
81.144	9
81.514	3
81.823	2
82.078	702
82.150	8
82.497	3
82.833	2
83.050	3
83.085	171
83.260	1
83.511	2
84.090	11
85.066	80
86.069	5
87.045	5
91.055	14
93.071	20
94.078	58
95.086	844
95.166	8
95.568	2
95.902	2
96.093	173
96.173	2
97.100	25
99.081	6
103.076	42
105.071	3
107.086	8
108.093	4
109.102	322
110.108	67
111.116	10
121.102	11
123.117	734
123.666	2
123.987	1
124.121	67
125.125	3
135.063	20
136.065	3
137.133	18
138.141	348
139.144	36
154.078	2
155.144	3
156.006	4
195.062	3
197.078	6
207.033	3
