Mass spectrum: Quinoclamine; ESI-QTOF; MS2; NEGATIVE; [M-H]-; CID; 30 V
Name: Quinoclamine
Class: Non-natural product
Formula: C10H6ClNO2
Exact mass: 207.0087
SMILES: c1ccc2c(c1)C(=O)C(=C(C2=O)Cl)N
InChI: InChI=1S/C10H6ClNO2/c11-7-8(12)10(14)6-4-2-1-3-5(6)9(7)13/h1-4H,12H2
Instrument: X500R QTOF (AB Sciex LLC, USA)
Instrument type: ESI-QTOF
Ms type: MS2
Ion mode: NEGATIVE
Collision energy: 30 V
Fragmentation mode: CID
Ionization: ESI
Precursor m/z: 206.0088
Precursor type: [M-H]-
m/z	relative intensity
34.9691	457
65.9981	38
102.0344	97
142.0293	53
170.0242	999
178.99	239
206.0009	333
