Mass spectrum: Glc4; ESI-QQ; MS2; Negative; [M-H]-; CID; CE: 30 eV
Name: Glc4
Name: Isomaltosylmaltose
Name: Glc(a1-6)Glc(a1-4)Glc(a1-4)Glc
Class: Non-natural product.
Formula: C24H42O21
Exact mass: 666.221865
SMILES: O[C@@H]1[C@@H](O)[C@H](O)[C@@H](CO)O[C@@H]1OC[C@H]1O[C@H](O[C@@H]2[C@@H](CO)O[C@H](O[C@@H]3[C@@H](CO)OC(O)[C@H](O)[C@H]3O)[C@H](O)[C@H]2O)[C@H](O)[C@@H](O)[C@@H]1O
InChI: InChI=1S/C24H42O21/c25-1-5-9(28)11(30)16(35)22(41-5)39-4-8-10(29)12(31)17(36)23(43-8)45-20-7(3-27)42-24(18(37)14(20)33)44-19-6(2-26)40-21(38)15(34)13(19)32/h5-38H,1-4H2/t5-,6-,7-,8-,9-,10-,11+,12+,13-,14-,15-,16-,17-,18-,19-,20-,21?,22+,23-,24-/m1/s1
Instrument: Triple Quad 4500 (AB Sciex Pte. Ltd., USA)
Instrument type: LC-ESI-QQ
Ms type: MS2
Ion mode: NEGATIVE
Collision energy: 30 eV
Fragmentation mode: CID
Ionization: ESI
Precursor m/z: 665.214588
Precursor type: [M-H]-
m/z	relative intensity
100.8829	141
107.075	10
112.5342	20
112.9296	19
114.76	11
115.3	10
118.9489	59
124.6	9
125.0882	7
130.9133	11
132.5	4
133.2133	4
142.9612	63
148.941	17
149.2	16
160.1	6
160.8982	391
172.9	2
178.8919	999
184.7	13
220.9233	263
250.9585	194
262.9475	19
268.8	3
269	6
280.9471	198
304.7429	13
305.1	11
306.9	3
307.3	2
310.7815	31
322.9309	98
340.9977	878
382.345	9
382.997	366
409.3	2
422.6	2
422.9	2
425.0371	152
442.8	20
443	23
443.4	17
454.6	3
455.1667	3
485.1	2
503.0639	102
545.1195	521
587.0806	52
587.5	27
587.7	9
604.7	6
605.275	2
646.8	4
665.1628	53
666.1	2
