Mass spectrum: Cumyluron; ESI-QTOF; MS; NEGATIVE
Name: Cumyluron
Class: Non-natural product
Formula: C17H19ClN2O
Exact mass: 302.1185
SMILES: CC(C)(c1ccccc1)NC(=O)NCc2ccccc2Cl
InChI: InChI=1S/C17H19ClN2O/c1-17(2,14-9-4-3-5-10-14)20-16(21)19-12-13-8-6-7-11-15(13)18/h3-11H,12H2,1-2H3,(H2,19,20,21)
Instrument: X500R QTOF (AB Sciex LLC, USA)
Instrument type: ESI-QTOF
Ms type: MS
Ion mode: NEGATIVE
Ionization: ESI
m/z	relative intensity
149.0609	168
157.1236	66
171.1392	100
199.1704	310
200.1739	40
212.0752	82
213.1861	91
218.1678	82
219.1753	132
220.147	162
223.0285	49
225.1861	90
227.2016	459
228.2052	70
239.2019	57
241.2174	211
253.2173	301
254.2209	52
255.233	331
256.2365	56
269.2488	49
281.2487	141
301.111	999
302.1148	192
303.1087	337
304.112	62
347.1172	71
