Mass spectrum: Halocynthiaxanthin; LC-ESI-QTOF; MS; POSITIVE; ESI
Name: Halocynthiaxanthin
Class: Natural product; carotenoids; xanthophyll
Formula: C40H54O4
Exact mass: 598.4022
SMILES: CC1=C(C(C[C@@H](C1)O)(C)C)C#C/C(=C/C=C/C(=C/C=C/C=C(\C)/C=C/C=C(\C)/C(=O)C[C@]23[C@](O2)(C[C@H](CC3(C)C)O)C)/C)/C
InChI: InChI=1S/C40H54O4/c1-28(17-13-18-30(3)21-22-35-32(5)23-33(41)24-37(35,6)7)15-11-12-16-29(2)19-14-20-31(4)36(43)27-40-38(8,9)25-34(42)26-39(40,10)44-40/h11-20,33-34,41-42H,23-27H2,1-10H3/b12-11+,17-13+,19-14+,28-15+,29-16+,30-18+,31-20+/t33-,34+,39-,40+/m1/s1
Instrument: Xevo G2-S QtOF, Waters (USA) coupled to ACQUITY UPLC, Waters (USA).
Instrument type: LC-ESI-QTOF
Ms type: MS
Ion mode: POSITIVE
Ionization: ESI
Column name: BEH C18, I.D. 2.1 mm, length 100 mm, thickness 1.7 micrometer.
m/z	relative intensity
109.0878	999
110.0908	49
119.0716	50
121.0874	31
131.0714	31
133.0869	40
134.0826	31
135.0658	36
143.0716	27
145.0867	42
147.0666	64
155.093	54
157.0865	64
158.0817	42
159.0668	26
159.1017	28
161.082	31
165.0548	26
167.0924	30
171.1019	61
172.099	64
173.0819	28
173.1185	96
175.1196	33
179.0929	35
183.1023	30
184.1	29
186.1143	55
191.1294	30
197.1161	44
199.1346	28
206.1408	60
207.1042	33
209.119	40
217.1452	26
221.1192	37
223.133	29
232.1566	35
233.162	50
235.1336	31
263.1668	61
277.1819	27
281.1762	31
283.1923	28
355.2356	29
373.2443	49
397.1799	62
411.2597	40
429.2733	117
430.2774	28
507.3405	28
556.2773	38
578.2589	51
581.3994	95
582.4016	32
599.4124	561
600.4164	195
601.4169	28
615.4059	29
