Mass spectrum: Malonylgenistin; ESI-QTOF; MS2; NEGATIVE; [M-H]-; CID; 50 V
Name: Malonylgenistin
Class: 7-Hydroxyisoflavone
Formula: C24H22O13
Exact mass: 518.10604
SMILES: C1=CC(=CC=C1C2=COC3=CC(=CC(=C3C2=O)O)O[C@H]4[C@@H]([C@H]([C@@H]([C@H](O4)COC(=O)CC(=O)O)O)O)O)O
InChI: InChI=1S/C24H22O13/c25-11-3-1-10(2-4-11)13-8-34-15-6-12(5-14(26)19(15)20(13)30)36-24-23(33)22(32)21(31)16(37-24)9-35-18(29)7-17(27)28/h1-6,8,16,21-26,31-33H,7,9H2,(H,27,28)/t16-,21-,22+,23-,24-/m1/s1
Instrument: X500R QTOF (AB Sciex LLC, USA)
Instrument type: ESI-QTOF
Ms type: MS2
Ion mode: NEGATIVE
Collision energy: 50 V
Fragmentation mode: CID
Ionization: ESI
Precursor m/z: 517.09877
Precursor type: [M-H]-
m/z	relative intensity
253.0539	52
268.0408	185
269.0478	999
270.0521	127
