Mass spectrum: Amarouciaxanthin A; LC-ESI-QTOF; MS2; POSITIVE; ESI; [M+H]+; COLLISION_ENERGY 20 V
Name: Amarouciaxanthin A
Class: Natural product; carotenoids, Xanthophyll
Formula: C40H54O5
Exact mass: 614.39713
SMILES: CC1=CC(=O)CC([C@]1(CC(=O)/C(=C/C=C/C(=C/C=C/C=C(\C)/C=C/C=C(\C)/C=C=C2[C@](C[C@H](CC2(C)C)O)(C)O)/C)/C)O)(C)C
InChI: InChI=1S/C40H54O5/c1-28(17-13-18-30(3)21-22-36-37(6,7)24-34(42)26-39(36,10)44)15-11-12-16-29(2)19-14-20-31(4)35(43)27-40(45)32(5)23-33(41)25-38(40,8)9/h11-21,23,34,42,44-45H,24-27H2,1-10H3/b12-11+,17-13+,19-14+,28-15+,29-16+,30-18+,31-20+/t22?,34-,39+,40+/m0/s1
Instrument: Xevo G2-S QtOF, Waters (USA) coupled to ACQUITY UPLC, Waters (USA).
Instrument type: LC-ESI-QTOF
Ms type: MS2
Ion mode: POSITIVE
Collision energy: 20V
Ionization: ESI
Column name: BEH C18, I.D. 2.1 mm, length 100 mm, thickness 1.7 micrometer.
Ion type: [M+H]+
Precursor m/z: 615.40440
m/z	relative intensity
107.074	63
117.077	408
119.075	53
123.101	64
133.085	85
136.075	56
145.078	61
145.090	62
148.073	55
149.081	227
151.098	51
153.076	102
154.079	56
155.095	74
156.093	55
159.068	74
159.104	86
159.125	59
161.081	114
167.092	999
168.095	230
169.086	65
173.116	68
175.119	450
176.122	67
200.135	53
204.134	60
207.103	58
209.123	72
209.142	79
211.136	55
227.128	66
233.143	148
233.161	289
234.146	92
235.152	124
237.144	72
241.144	56
245.144	73
251.130	65
251.163	116
257.181	55
273.175	78
276.183	69
277.184	80
279.157	58
285.177	182
289.187	56
291.209	87
297.172	55
299.183	78
305.140	55
313.172	82
313.203	60
321.169	53
327.175	73
329.219	58
349.244	82
355.221	104
365.240	52
369.237	55
425.273	85
426.280	65
427.299	57
433.291	65
443.282	78
446.265	52
446.489	52
460.286	69
461.292	53
461.312	56
462.301	170
462.317	95
463.308	82
485.300	54
538.168	118
580.395	131
599.433	125
614.407	169
615.343	67
615.402	93
616.463	118
617.367	53
617.540	51
