Mass spectrum: Lufenuron; LC-ESI-QTOF; MS2; ESI; NEGATIVE; CE 40 V
Name: Lufenuron
Class: Non-natural product
Formula: C17H8Cl2F8N2O3
Exact mass: 509.97842
SMILES: O=C(NC(=O)c1c(F)cccc1F)Nc1cc(Cl)c(OC(F)(F)C(F)C(F)(F)F)cc1Cl
InChI: InChI=1S/C17H8Cl2F8N2O3/c18-6-5-11(32-17(26,27)14(22)16(23,24)25)7(19)4-10(6)28-15(31)29-13(30)12-8(20)2-1-3-9(12)21/h1-5,14H,(H2,28,29,30,31)
Instrument: ExionLC AD, AB Sciex LLC, USA; X500R QTOF, AB Sciex LLC, USA.
Instrument type: LC-ESI-QTOF
Ms type: MS2
Ion mode: NEGATIVE
Collision energy: 40 V
Ionization: ESI
Column name: AQ-C18HP 3 microm, 2.1 mm Ã— 150 mm, GL Science (Tokyo Japan)
Retention time: 15.4 min
Precursor m/z: 508.97114
Precursor type: [M-H]-
m/z	relative intensity
34.969	53
41.998	140
93.0144	11
113.0208	32
130.9925	16
146.9874	56
165.97	22
174.9587	999
199.9552	61
201.9463	528
258.0004	68
265.9393	33
267.0212	20
285.9455	93
294.9614	29
301.9901	40
302.9978	242
305.9516	60
325.9579	428
331.2682	19
338.974	596
350.9541	109
