Mass spectrum: Acetylgenistin; ESI-QTOF; MS2; NEGATIVE; [M-H]-; CID; 40 V
Name: Acetylgenistin
Class: Non-natural compound
Formula: C23H22O11
Exact mass: 474.11621
SMILES: CC(=O)OC[C@@H]1[C@H]([C@@H]([C@H]([C@@H](O1)OC2=CC(=C3C(=C2)OC=C(C3=O)C4=CC=C(C=C4)O)O)O)O)O
InChI: InChI=1S/C23H22O11/c1-10(24)31-9-17-20(28)21(29)22(30)23(34-17)33-13-6-15(26)18-16(7-13)32-8-14(19(18)27)11-2-4-12(25)5-3-11/h2-8,17,20-23,25-26,28-30H,9H2,1H3/t17-,20-,21+,22-,23-/m1/s1
Instrument: X500R QTOF (AB Sciex LLC, USA)
Instrument type: ESI-QTOF
Ms type: MS2
Ion mode: NEGATIVE
Collision energy: 40 V
Fragmentation mode: CID
Ionization: ESI
Precursor m/z: 473.10894
Precursor type: [M-H]-
m/z	relative intensity
268.0377	757
269.0452	999
473.1091	130
