Mass spectrum: Inabenfide; GC-EI-Q; MS; Positive; M+*
Name: Inabenfide
Class: Non-Natural Product; Pesticides
Formula: C19H15ClN2O2
Exact mass: 338.08221
SMILES: Clc(c2)cc(C(O)c(c3)cccc3)c(c2)NC(=O)c(c1)ccnc1
InChI: InChI=1S/C19H15ClN2O2/c20-15-6-7-17(22-19(24)14-8-10-21-11-9-14)16(12-15)18(23)13-4-2-1-3-5-13/h1-12,18,23H,(H,22,24)
Instrument: GCMS-QP2010 Plus, Shimadzu
Instrument type: GC-EI-Q
Ms type: MS
Ion mode: POSITIVE
Ionization: EI
Column name: Ptx-5MS(RESTEK), 0.32 mm I.D. x 30 m, df=0.25 microm
Retention time: 10.5 min
Ion type: [M]+*
Precursor m/z: 338.1
m/z	relative intensity
40	8
44	34
49	10
50	33
51	28
55	15
61	15
62	37
63	26
68	9
73	8
74	47
75	111
76	51
77	13
78	7
80	19
81	11
82	5
85	8
86	5
87	13
88	24
89	167
90	6
91	5
93	33
97	9
98	15
99	38
100	28
101	14
102	5
107	107
111	11
112	5
113	11
114	5
122	8
123	17
124	10
125	46
126	19
127	19
129	6
135	8
139	5
147	5
149	26
150	124
151	224
152	91
153	15
154	9
160	8
168	5
175	9
176	34
177	160
178	290
179	66
180	11
186	7
187	17
188	6
207	7
212	18
213	999
214	191
215	350
216	64
332	7
