Mass spectrum: beta-Carotene; LC-ESI-QTOF; MS2; POSITIVE; ESI; [M]+; COLLISION_ENERGY 30 eV.
Name: beta-Carotene
Name: beta,beta-Carotene
Class: Natural product; carotenoids, carotene
Formula: C40H56
Exact mass: 536.43820
SMILES: CC1=C(C(CCC1)(C)C)/C=C/C(=C/C=C/C(=C/C=C/C=C(/C=C/C=C(/C=C/C2=C(CCCC2(C)C)C)\C)\C)/C)/C
InChI: InChI=1S/C40H56/c1-31(19-13-21-33(3)25-27-37-35(5)23-15-29-39(37,7)8)17-11-12-18-32(2)20-14-22-34(4)26-28-38-36(6)24-16-30-40(38,9)10/h11-14,17-22,25-28H,15-16,23-24,29-30H2,1-10H3/b12-11+,19-13+,20-14+,27-25+,28-26+,31-17+,32-18+,33-21+,34-22+
Instrument: Xevo G2-S QtOF, Waters (USA) coupled to ACQUITY UPLC, Waters (USA).
Instrument type: LC-ESI-QTOF
Ms type: MS2
Ion mode: POSITIVE
Collision energy: 30 V
Ionization: ESI
Column name: BEH C18, I.D. 2.1 mm, length 100 mm, thickness 1.7 micrometer.
Ion type: [M]+
Precursor m/z: 536.43765
m/z	relative intensity
69.07	134
81.07	274
83.086	115
93.071	220
95.086	640
97.102	66
105.07	528
106.075	65
107.086	502
109.102	432
111.117	54
119.086	999
120.092	241
121.102	817
122.105	91
123.117	356
131.086	264
132.093	89
133.102	686
134.107	101
135.118	297
137.133	351
143.087	319
144.093	112
145.102	691
146.107	113
147.118	588
148.121	78
149.133	194
155.087	123
156.093	102
157.102	762
158.108	195
159.118	663
160.122	110
161.133	490
162.138	86
163.149	105
169.102	367
170.107	125
171.118	779
172.123	148
173.134	451
174.138	78
175.149	580
176.154	96
177.165	474
178.169	76
181.102	125
182.109	62
183.118	468
184.123	124
185.133	544
186.138	120
187.149	349
188.154	102
189.165	283
190.169	51
193.102	64
194.11	73
195.117	316
196.124	122
197.133	512
198.139	146
199.149	361
200.155	81
201.164	237
202.169	64
203.18	208
207.118	176
208.124	73
209.133	514
210.139	131
211.149	401
212.154	104
213.165	216
214.17	70
215.18	170
221.134	237
222.139	92
223.149	277
224.154	74
225.164	204
226.17	67
227.179	147
228.186	52
229.195	69
233.132	78
235.149	203
236.155	55
237.164	187
239.18	284
240.185	66
241.196	250
242.2	50
243.211	91
247.148	120
249.165	174
250.169	60
251.18	132
253.195	176
254.201	118
255.211	121
261.163	147
263.18	133
265.195	163
266.2	56
267.212	273
268.216	73
269.226	91
273.164	54
275.18	125
277.195	101
278.202	51
279.21	132
281.226	112
289.196	75
291.211	103
293.227	100
295.241	50
303.211	69
305.227	91
307.243	97
317.226	70
319.243	73
323.274	65
331.243	114
333.259	97
343.24	50
345.258	96
346.265	56
359.273	105
385.288	57
398.296	50
399.306	90
429.352	101
444.377	53
521.414	61
535.431	302
536.436	206
537.442	69
