Mass spectrum: Creatinine; ESI-QTOF; MS; POSITIVE
Name: Creatinine
Class: Natural product; Imidazolidinone
Formula: C4H7N3O
Exact mass: 113.05890
SMILES: CN1CC(=O)N=C1N
InChI: InChI=1S/C4H7N3O/c1-7-2-3(8)6-4(7)5/h2H2,1H3,(H2,5,6,8)
Instrument: X500R QTOF (AB Sciex LLC, USA)
Instrument type: ESI-QTOF
Ms type: MS
Ion mode: POSITIVE
Ionization: ESI
m/z	relative intensity
72.9376	397
114.0662	999
115.0703	129
