Mass spectrum: 2-(4-Methylphenyl)ethylamine; LC-ESI-QQ; MS2; POSITIVE; [M+H]+; CID; 20 V
Name: 2-(4-Methylphenyl)ethylamine
Class: Non-natural product; Phenethylamine
Formula: C9H13N
Exact mass: 135.10480
SMILES: CC1=CC=C(C=C1)CCN
InChI: InChI=1S/C9H13N/c1-8-2-4-9(5-3-8)6-7-10/h2-5H,6-7,10H2,1H3
Instrument: Xevo TQS micro (Waters, MA, USA) coupled to ACQUITY UPLC H-Class (Waters, MA, USA)
Instrument type: LC-ESI-QQ
Ms type: MS2
Ion mode: POSITIVE
Collision energy: 20 V
Fragmentation mode: CID
Ionization: ESI
Column name: Acquity UPLC BEH AMIDE column (1.7 Âµm, 2.1 x 150 mm; Waters, MA, USA)
Precursor m/z: 136.1121
Precursor type: [M+H]+
m/z	relative intensity
31.2	32
40.5	41
40.8	47
41.3	132
41.6	39
42.1	80
42.3	34
42.5	44
47.2	36
57.6	45
59.3	41
62.7	211
63.3	61
65.2	31
65.3	41
72.4	38
72.8	53
74.5	67
74.9	65
75.2	87
76.6	77
77.1	132
78.9	51
79.2	112
87.5	45
87.6	58
88.1	108
88.3	66
90.5	122
90.9	999
91.2	262
92.1	33
92.6	55
92.9	34
93.4	40
97.7	32
98.7	39
102.6	41
103.2	59
103.8	128
108.1	33
109	34
109.2	35
114.8	38
115.1	34
115.3	49
116.6	127
116.9	214
117.1	129
117.3	45
118.4	43
118.9	269
119.2	402
119.4	47
120.9	64
128.1	34
135.8	47
136.1	46
136.3	50
