Mass spectrum: EPN; GC-EI-Q; MS
Name: EPN
Class: Non-Natural Product; Pesticides
Formula: C14H14NO4PS
Exact mass: 323.03812
SMILES: CCOP(=S)(C1=CC=CC=C1)OC2=CC=C(C=C2)[N+](=O)[O-]
InChI: InChI=1S/C14H14NO4PS/c1-2-18-20(21,14-6-4-3-5-7-14)19-13-10-8-12(9-11-13)15(16)17/h3-11H,2H2,1H3
Instrument: GCMS-QP2010 Plus, Shimadzu
Instrument type: GC-EI-Q
Ms type: MS
Ion mode: POSITIVE
Ionization: EI
Column name: Ptx-5MS(RESTEK), 0.32 mm I.D. x 30 m, df=0.25 microm
Retention time: 17.13 min
m/z	relative intensity
40	8
41	19
44	85
45	33
47	113
50	42
51	97
52	26
53	30
54	10
55	5
56	13
57	6
58	24
59	5
60	13
61	9
63	256
64	38
65	75
66	20
67	5
69	6
70	18
72	6
74	16
75	22
76	24
77	244
78	92
79	28
80	30
81	12
82	8
83	17
89	4
93	26
94	17
95	22
96	24
100	5
103	8
105	8
107	41
108	54
109	155
110	182
111	10
112	10
117	13
120	11
123	42
124	15
125	89
126	5
128	18
139	104
140	52
141	495
142	37
143	11
145	5
147	5
150	15
153	18
154	12
155	46
156	7
157	999
158	90
159	66
169	622
170	66
171	11
175	5
176	6
177	9
185	283
186	28
187	15
202	5
207	13
208	12
215	5
216	9
218	5
232	18
233	15
239	5
240	5
244	5
247	8
248	20
253	5
262	19
267	7
268	5
277	18
278	22
279	5
281	5
293	85
294	32
295	8
307	49
308	8
323	90
324	18
325	5
326	5
327	5
343	5
346	7
