Mass spectrum: (S)-Octa-1,7-dien-4-ol; GC-FI-TOF; MS; positive; FI; 10 kV
Name: (S)-Octa-1,7-dien-4-ol
Class: Non-natural compound
Formula: C8H14O
Exact mass: 126.10447
SMILES: C=CC[C@@H](O)CCC=C
InChI: InChI=1S/C8H14O/c1-3-5-7-8(9)6-4-2/h3-4,8-9H,1-2,5-7H2/t8-/m1/s1
Instrument: JMS-T100GCV (JEOL, Akishima, Japan) coupled to Agilent 7890A (Agilent, Wilmington, USA) gas chromatograph.
Instrument type: GC-FI-TOF
Ms type: MS
Ion mode: POSITIVE
Ionization: FI
Column name: ZB-1MS 7HM-G011-11 sn:313446 (Agilent, Wilmington, USA), length 30.0 m, I.D. 0.32 mm, thickness 0.25 micrometer.
Retention time: 4.02
m/z	relative intensity
41.04	22
67.054	13
71.048	25
82.076	10
84.057	29
85.064	999
85.195	7
86.068	53
93.068	46
97.063	58
98.07	23
108.092	132
109.099	33
111.078	44
126.104	196
127.109	31
