Mass spectrum: (2R,3R)-(+)-2,3-Epoxy-1-octanoll; GC-FI-TOF; MS; positive; FI; 10 kV
Name: (2R,3R)-(+)-2,3-Epoxy-1-octanol
Class: Non-natural compound
Formula: C8H16O2
Exact mass: 144.11503
SMILES: OC[C@H]1O[C@@H]1CCCCC
InChI: InChI=1S/C8H16O2/c1-2-3-4-5-7-8(6-9)10-7/h7-9H,2-6H2,1H3/t7-,8-/m1/s1
Instrument: JMS-T100GCV (JEOL, Akishima, Japan) coupled to Agilent 7890A (Agilent, Wilmington, USA) gas chromatograph.
Instrument type: GC-FI-TOF
Ms type: MS
Ion mode: POSITIVE
Ionization: FI
Column name: HP-5 19091 J-413 USD364547H (Agilent, Wilmington, USA), length 30.0 m, I.D. 0.32 mm, thickness 0.25 micrometer.
Retention time: 6.37 min.
m/z	relative intensity
29.039	245
101.094	99
109.098	82
113.094	169
127.111	217
145.123	999
146.125	111
