Mass spectrum: Symmetric dimethylarginine; ESI-QTOF; MS2; NEGATIVE; [M-H]-; CID; 20 V
Name: Symmetric dimethylarginine
Class: Non-natural product; L-Arginine derivative
Formula: C8H18N4O2
Exact mass: 202.14296
SMILES: CNC(=NC)NCCC[C@@H](C(=O)O)N
InChI: InChI=1S/C8H18N4O2/c1-10-8(11-2)12-5-3-4-6(9)7(13)14/h6H,3-5,9H2,1-2H3,(H,13,14)(H2,10,11,12)/t6-/m0/s1
Instrument: X500R QTOF (AB Sciex LLC, USA)
Instrument type: ESI-QTOF
Ms type: MS2
Ion mode: NEGATIVE
Collision energy: 20 V
Fragmentation mode: CID
Ionization: ESI
Precursor m/z: 201.135683
Precursor type: [M-H]-
m/z	relative intensity
55.0299	127
89.0243	88
114.056	34
131.0817	999
170.0935	84
