Mass spectrum: L-Arginine; ESI-QTOF; MS2; POSITIVE; [M+H]+; CID; 60 V
Name: L-Arginine
Class: L-alpha-Amino acid
Formula: C6H14N4O2
Exact mass: 174.11166
SMILES: C(C[C@@H](C(=O)O)N)CN=C(N)N
InChI: InChI=1S/C6H14N4O2/c7-4(5(11)12)2-1-3-10-6(8)9/h4H,1-3,7H2,(H,11,12)(H4,8,9,10)/t4-/m0/s1
Instrument: X500R QTOF (AB Sciex LLC, USA)
Instrument type: ESI-QTOF
Ms type: MS2
Ion mode: POSITIVE
Collision energy: 60 V
Fragmentation mode: CID
Ionization: ESI
Precursor m/z: 175.11894
Precursor type: [M+H]+
m/z	relative intensity	assigned
27.0226	32	[C2H6-3H]+
28.0177	490	[CH3N-H]+
30.0334	200	[CH3N+H]+
41.0383	88	[C3H8-3H]+
43.0287	382	[CH4N2-H]+
43.0539	118	[C3H8-H]+
44.0366	43	
60.0554	39	[CH5N3+H]+
70.0647	999	[C4H11N-3H]+
