Mass spectrum: Aldrin; GC-EI-Q; MS; Positive; M+*
Name: Aldrin
Class: Non-Natural Product; Pesticides
Formula: C12H8Cl6
Exact mass: 361.87572
SMILES: C1[C@@H]2C=C[C@H]1[C@H]3[C@@H]2[C@]4(C(=C([C@@]3(C4(Cl)Cl)Cl)Cl)Cl)Cl
InChI: InChI=1S/C12H8Cl6/c13-8-9(14)11(16)7-5-2-1-4(3-5)6(7)10(8,15)12(11,17)18/h1-2,4-7H,3H2/t4-,5+,6+,7-,10+,11-
Instrument: GCMS-QP2010 Plus, Shimadzu
Instrument type: GC-EI-Q
Ms type: MS
Ion mode: POSITIVE
Ionization: EI
Column name: Ptx-5MS(RESTEK), 0.32 mm I.D. x 30 m, df=0.25 microm
Retention time: 10.4 min
Ion type: [M]+*
Precursor m/z: 361.9
m/z	relative intensity
40	87
41	27
44	25
49	7
50	23
51	62
52	16
53	14
61	10
62	27
63	57
64	12
65	258
66	999
67	80
68	6
72	7
73	31
74	37
75	89
76	15
77	97
78	23
79	424
80	37
81	7
83	13
84	9
85	35
86	31
87	19
89	19
90	10
91	410
92	133
93	47
94	16
96	11
97	35
98	29
99	31
100	27
101	342
102	37
103	112
104	9
107	35
108	21
109	44
110	78
111	74
112	20
113	54
114	17
115	32
116	17
117	19
119	21
120	19
121	29
122	12
123	19
124	7
125	25
126	20
127	39
128	24
129	17
130	16
131	14
132	17
133	30
134	11
135	20
137	16
139	13
141	21
143	40
144	7
145	31
146	21
147	26
148	14
149	23
150	52
151	48
152	65
153	8
156	7
157	13
159	15
160	20
161	13
162	10
165	8
167	15
169	13
170	11
171	9
173	9
179	9
180	7
181	17
182	7
183	25
184	11
185	20
186	98
187	39
188	33
189	11
191	50
193	57
194	19
195	27
196	18
197	12
201	10
203	11
205	13
206	7
207	12
209	7
214	32
215	8
216	42
217	54
218	32
219	49
220	89
221	94
222	62
223	46
224	27
225	18
226	14
227	40
228	27
229	51
230	31
231	25
232	22
233	10
235	15
237	26
239	21
241	13
243	9
248	35
249	20
250	52
251	54
252	40
253	43
254	18
255	123
256	88
257	137
258	84
259	66
260	34
261	306
262	78
263	495
264	104
265	326
266	80
267	116
268	28
269	23
270	7
290	6
291	163
292	33
293	204
294	39
295	114
296	90
297	23
298	133
299	15
300	118
301	12
302	48
304	9
326	9
327	35
328	21
329	48
330	16
331	34
333	7
364	8
366	7
