Mass spectrum: N-Methyl-L-alanine; GC-FI-TOF; MS; POSITIVE; FI; 10 kV; 2TMS
Name: N-Methyl-L-alanine
Class: Non-natural compound
Formula: C4H9NO2
Exact mass: 103.0633285
SMILES: C[C@@H](C(=O)O)NC
InChI: InChI=1S/C4H9NO2/c1-3(5-2)4(6)7/h3,5H,1-2H3,(H,6,7)/t3-/m0/s1
Instrument: JMS-T100GCV (JEOL, Akishima, Japan) coupled to Agilent 7890A (Santa Clara, CA, USA) gas chromatograph.
Instrument type: GC-FI-TOF
Ms type: MS
Ion mode: POSITIVE
Ionization: FI
Column name: DB-5MS UI 122-5532UI US0462866H (Agilent, Wilmington, USA) with the length 30 m, I.D. 0.25 mm, and thickness 0.25 micrometer.
Retention time: 7.24 min.
Derivative form: C10H25NO2Si2
Derivative mass: 247.14238
Derivative type: 2TMS
m/z	relative intensity
247.142	999
248.144	213
249.142	92
