Mass spectrum: (7Z)-15-Methylnonacos-7-ene; GC-EI-TOF; MS; positive; EI; 70 V
Name: (7Z)-15-Methylnonacos-7-ene
Class: Non-natural product
Formula: C30H60
Exact mass: 420.46950
SMILES: CC(CCCCCCCCCCCCCC)CCCCCC/C=C\CCCCCC
InChI: InChI=1S/C30H60/c1-4-6-8-10-12-14-16-18-20-22-24-26-28-30(3)29-27-25-23-21-19-17-15-13-11-9-7-5-2/h14,16,30H,4-13,15,17-29H2,1-3H3/b16-14-
Instrument: JMS-T100GCV (JEOL, Akishima, Japan) coupled to Agilent 7890A (Agilent, Wilmington, USA) gas chromatograph.
Instrument type: GC-EI-TOF
Ms type: MS
Ion mode: POSITIVE
Ionization: EI
Column name: HP-5 19091 J-413 USD364547H (Agilent, Wilmington, USA), length 30 m, I.D. 0.32 mm, thickness 0.25 micrometer.
Retention time: 12.56 min.
m/z	relative intensity
27.024	30
28.006	3
28.031	7
29.039	114
29.079	1
39.024	25
40.031	5
41.039	358
41.092	4
41.314	1
42.047	100
42.102	1
43.055	852
43.108	8
43.377	3
43.629	2
43.846	1
43.865	1
44.058	26
53.039	19
54.047	101
54.109	1
55.055	670
55.115	7
55.389	2
55.696	1
56.062	483
56.122	5
56.403	1
57.07	999
57.132	10
57.341	3
57.409	3
57.442	3
57.639	1
57.686	2
57.948	1
58.001	1
58.074	41
65.039	5
66.047	8
67.055	138
68.062	106
68.103	1
68.13	2
69.07	625
69.138	7
69.234	1
69.444	2
69.48	2
69.741	1
69.801	1
70.078	269
70.145	4
70.191	2
70.406	1
71.086	469
71.156	5
71.419	1
71.461	1
72.089	24
73.048	5
77.039	5
79.055	19
80.062	11
81.07	117
81.147	2
82.078	131
83.086	530
83.161	6
83.536	2
83.845	1
84.093	137
84.514	1
85.101	288
85.168	4
85.491	1
85.555	2
85.591	1
85.859	1
86.105	17
91.054	3
93.07	5
94.078	5
95.086	77
96.094	102
97.101	524
97.179	6
97.293	1
97.539	2
97.587	2
97.917	1
97.951	1
98.108	90
98.186	1
99.117	76
99.194	2
100.12	5
108.093	2
109.102	35
110.109	48
111.117	303
112.123	69
112.213	1
113.132	49
114.137	4
123.117	16
124.125	22
125.133	138
126.139	35
127.148	34
128.151	3
137.133	8
138.14	15
139.148	68
139.237	1
140.155	23
141.164	27
142.168	3
151.149	5
152.156	12
153.164	43
153.254	1
154.171	21
155.179	17
156.183	2
165.162	2
166.172	8
167.179	29
168.186	13
169.195	13
180.187	14
181.194	15
182.203	68
183.209	17
184.212	2
194.203	12
195.21	23
196.218	20
197.224	7
207.033	5
209.226	4
210.234	74
210.352	1
211.238	12
222.235	82
223.242	139
224.249	58
224.365	1
225.254	9
236.249	2
237.256	2
238.266	146
238.469	1
239.271	54
239.399	1
240.276	7
251.274	2
252.282	3
253.289	1
265.288	3
266.295	2
280.314	2
392.438	4
393.436	2
420.469	54
421.472	17
422.476	3
