Mass spectrum: Pachymic acid; ESI-QTOF; MS2; POSITIVE; [M+H]+; CID; 60 V
Name: Pachymic acid
Class: Non-natural product; Triterpenoid
Formula: C33H52O5
Exact mass: 528.38148
SMILES: CC(C)C(=C)CC[C@H]([C@H]1[C@@H](C[C@@]2([C@@]1(CCC3=C2CC[C@@H]4[C@@]3(CC[C@@H](C4(C)C)OC(=O)C)C)C)C)O)C(=O)O
InChI: InChI=1S/C33H52O5/c1-19(2)20(3)10-11-22(29(36)37)28-25(35)18-33(9)24-12-13-26-30(5,6)27(38-21(4)34)15-16-31(26,7)23(24)14-17-32(28,33)8/h19,22,25-28,35H,3,10-18H2,1-2,4-9H3,(H,36,37)/t22-,25-,26+,27+,28+,31-,32-,33+/m1/s1
Instrument: X500R QTOF (AB Sciex LLC, USA)
Instrument type: ESI-QTOF
Ms type: MS2
Ion mode: POSITIVE
Collision energy: 60 V
Fragmentation mode: CID
Ionization: ESI
Precursor m/z: 529.38875
Precursor type: [M+H]+
m/z	relative intensity
55.0544	372
57.0701	92
65.0389	34
67.0545	292
69.0702	282
71.0858	42
77.0389	141
79.0545	295
81.0701	463
83.0858	120
91.0545	420
93.0701	632
95.0858	569
97.1015	148
105.0701	606
107.0858	999
109.1014	590
111.0808	37
115.0545	36
117.0701	159
119.0858	979
121.1014	806
123.1171	225
125.0964	56
128.0624	63
129.0701	153
130.0779	39
131.0858	528
133.1015	603
135.1172	355
137.0964	36
137.1327	40
141.0702	48
142.0781	92
143.0858	417
144.0937	98
145.1015	807
147.1172	381
149.1329	89
153.0913	39
155.0859	108
156.0936	112
157.1015	574
158.1094	115
159.1171	958
160.1249	31
161.1329	297
163.1485	46
169.1016	195
170.1094	73
171.1172	618
172.125	70
173.1328	997
174.1407	56
175.1485	242
181.1017	46
182.1096	39
183.1173	232
184.1252	57
185.133	497
186.1408	96
187.1486	487
189.1643	73
195.1175	70
196.1253	49
197.1331	281
198.1409	69
199.1486	422
200.1564	33
201.1644	133
209.1331	72
210.1409	40
211.1487	261
212.1566	83
213.1644	398
214.1722	103
215.18	116
223.1488	73
225.1644	265
226.1722	64
227.18	240
229.1957	102
237.1644	112
239.18	185
240.1878	41
241.1956	140
251.1802	64
252.188	97
253.1958	188
255.2114	88
265.1957	129
267.2114	57
279.2114	43
280.2192	139
281.2271	133
293.2269	31
295.2426	334
