Mass spectrum: (3RS,6S)-8-Benzyloxy-2,6-dimethyloctane-2,3-diol; GC-EI-BE; MS; positive; EI; 70 V
Name: (3RS,6S)-8-Benzyloxy-2,6-dimethyloctane-2,3-diol
Class: Non-natural product
Formula: C17H28O3
Exact mass: 280.20385
SMILES: CC(C)(O)C(O)CC[C@H](C)CCOCC1=CC=CC=C1
InChI: InChI=1S/C17H28O3/c1-14(9-10-16(18)17(2,3)19)11-12-20-13-15-7-5-4-6-8-15/h4-8,14,16,18-19H,9-13H2,1-3H3/t14-,16?/m0/s1
Instrument: JMS-700V (JEOL, Akishima, Japan) coupled to Agilent 6890N (Agilent, Wilmington, USA) gas chromatograph.
Instrument type: GC-EI-BE
Ms type: MS
Ion mode: POSITIVE
Ionization: EI
Column name: DB-5MS 122-5532 US877814H (Agilent, Wilmington, USA), length 30.0 m, I.D. 0.25 mm, thickness 0.25 micrometer.
Retention time: 12.09 min
m/z	relative intensity
36	118
37	5
38	45
39	26
40	4
41	61
42	8
43	138
44	8
45	4
50	5
51	14
52	5
53	8
54	2
55	54
56	13
57	29
58	47
59	61
60	2
62	2
63	9
64	4
65	63
66	4
67	16
68	8
69	73
70	23
71	27
72	6
73	3
74	2
75	3
76	2
77	29
78	11
79	32
80	4
81	47
82	8
83	36
84	6
85	23
86	6
87	4
89	17
90	12
91	999
92	240
93	42
94	4
95	67
96	20
97	6
98	2
99	19
100	2
104	11
105	22
106	11
107	193
108	45
109	9
110	2
111	25
112	4
113	41
114	30
115	3
117	5
118	3
119	2
120	1
121	2
123	4
125	3
126	4
127	1
128	1
129	16
130	2
131	9
132	2
133	4
134	1
135	3
136	1
137	5
138	9
139	2
141	1
143	5
144	1
145	3
146	1
147	1
153	5
154	3
155	4
156	14
157	4
158	1
159	3
160	1
161	2
163	1
171	5
173	1
174	1
175	1
177	1
187	4
207	1
220	17
221	7
222	3
262	5
263	1
