Mass spectrum: Leucinostatin A; ESI-ITFT; MS2; POSITIVE; [M+H]+; CE 35 %
Name: Leucinostatin A
Class: Natural product; modulator of tumor-stroma interaction
Formula: C62H111N11O13
Exact mass: 1217.8362
SMILES: CN(C)C[C@H](C)NC(=O)CCNC(=O)C(C)(C)NC(=O)C(C)(C)NC(=O)[C@H](CC(C)C)NC(=O)[C@H](CC(C)C)NC(=O)C(C)(C)NC(=O)[C@@H](NC(=O)[C@H](C[C@H](C)C[C@@H](O)CC(=O)CC)NC(=O)[C@@H]1C[C@H](C)CN1C(=O)/C=C/[C@@H](C)CC)[C@H](O)C(C)C
InChI: InChI=1S/C62H111N11O13/c1-21-38(9)23-24-49(77)73-33-40(11)31-47(73)55(82)66-46(30-39(10)29-43(75)32-42(74)22-2)53(80)68-50(51(78)37(7)8)56(83)70-61(15,16)58(85)67-44(27-35(3)4)52(79)65-45(28-36(5)6)54(81)69-62(17,18)59(86)71-60(13,14)57(84)63-26-25-48(76)64-41(12)34-72(19)20/h23-24,35-41,43-47,50-51,75,78H,21-22,25-34H2,1-20H3,(H,63,84)(H,64,76)(H,65,79)(H,66,82)(H,67,85)(H,68,80)(H,69,81)(H,70,83)(H,71,86)/b24-23+/t38-,39+,40-,41-,43+,44-,45-,46-,47-,50-,51+/m0/s1
Instrument: LTQ Orbitrap XL hybrid iontrap-Orbitrap (Thermo Fisher Scientific, San Jose, CA, USA)
Instrument type: ESI-ITFT
Ms type: MS2
Ion mode: POSITIVE
Collision energy: 35 % (nominal)
Fragmentation mode: HCD
Ionization: ESI
Ion type: [M+H]+
Precursor m/z: 1218.8435
m/z	relative intensity
111.0802	10
129.1021	11
157.1334	19
174.1599	71
194.1539	198
195.1572	14
222.1488	598
223.1521	49
312.2281	15
328.223	16
344.2654	31
397.2806	10
417.2746	30
435.2851	192
436.2887	32
441.3071	19
457.3492	32
492.3064	110
493.3104	19
518.3586	17
526.3597	12
528.343	24
536.3692	16
546.3535	438
547.3569	103
559.3486	15
564.3638	308
565.3674	70
570.4331	14
577.3591	60
578.3629	12
603.4114	17
613.3958	24
631.4063	999
632.4094	275
649.4166	437
650.4199	130
690.4429	12
744.49	40
745.4938	12
762.5007	206
763.5039	75
857.5736	16
875.5845	68
876.5882	25
960.637	24
961.6404	10
1218.8417	66
1219.845	46
