Mass spectrum: Methyl [(1R)-1,2-dimethyl-2,3-epoxycyclopent-1-yl]acetate; GC-EI-TOF; MS; positive; EI; 70 V
Name: Methyl [(1R)-1,2-dimethyl-2,3-epoxycyclopent-1-yl]acetate
Class: Non-natural product
Formula: C10H16O3
Exact mass: 184.10994
SMILES: CC12OC1CC[C@]2(C)CC(=O)OC
InChI: InChI=1S/C10H16O3/c1-9(6-8(11)12-3)5-4-7-10(9,2)13-7/h7H,4-6H2,1-3H3/t7?,9-,10?/m1/s1
Instrument: JMS-T100GCV (JEOL, Akishima, Japan) coupled to Agilent 7890A (Agilent, Wilmington, USA) gas chromatograph.
Instrument type: GC-EI-TOF
Ms type: MS
Ion mode: POSITIVE
Ionization: EI
Column name: HP-5 19091 J-413 USD364547H (Agilent, Wilmington, USA), length 30 m, I.D. 0.32 mm, thickness 0.25 micrometer.
Retention time: 7.31 min.
m/z	relative intensity
26.016	7
27.024	141
27.065	2
28.006	65
28.032	22
29.003	38
29.040	100
29.078	1
30.011	3
30.043	2
31.019	19
31.990	21
33.035	3
38.016	8
39.024	218
40.031	40
41.040	377
42.012	43
42.046	29
43.019	822
43.055	61
43.342	2
43.571	2
43.820	1
44.023	21
44.059	3
44.998	4
45.035	30
50.016	9
51.024	32
52.032	17
53.040	141
53.098	2
54.047	35
55.019	72
55.055	386
56.025	5
56.060	21
57.035	26
57.071	8
58.042	26
59.014	158
59.050	25
60.018	3
61.030	2
63.024	7
65.040	50
66.047	22
67.019	4
67.055	203
68.026	5
68.062	65
69.035	47
69.071	90
70.041	6
70.075	6
71.050	64
72.057	16
73.066	11
74.037	41
75.045	63
76.047	2
77.040	63
78.046	10
79.055	123
79.332	1
80.062	23
81.035	16
81.071	183
82.042	57
82.078	53
83.050	55
83.086	43
83.163	1
84.056	6
84.090	3
85.029	8
85.066	44
86.073	21
87.045	3
87.079	2
91.055	79
92.061	16
93.071	89
93.140	1
94.043	3
94.078	32
95.050	420
95.086	70
95.485	1
95.531	1
96.056	82
96.093	14
96.185	1
97.029	6
97.065	34
97.102	24
98.072	6
99.045	14
99.081	48
100.085	3
101.061	5
105.071	18
106.078	13
107.050	4
107.086	122
108.058	11
108.090	12
109.066	639
109.203	8
109.534	2
109.584	2
109.947	1
110.073	999
110.591	3
111.080	330
111.289	1
112.084	27
113.061	14
114.068	27
115.071	2
119.050	3
123.081	17
124.052	4
124.089	13
125.097	821
125.648	2
126.100	71
126.183	1
127.040	9
127.076	76
127.163	1
128.083	23
129.085	2
135.081	38
136.085	4
137.060	22
139.076	4
140.083	3
141.092	8
142.099	5
151.076	3
152.083	9
153.092	73
154.095	8
166.098	5
168.114	4
169.087	27
170.090	3
184.110	5
