Mass spectrum: Leucinostatin A; ESI-ITFT; MS2; POSITIVE; [M+H]+; CE 40 %
Name: Leucinostatin A
Class: Natural product; modulator of tumor-stroma interaction
Formula: C62H111N11O13
Exact mass: 1217.8362
SMILES: CN(C)C[C@H](C)NC(=O)CCNC(=O)C(C)(C)NC(=O)C(C)(C)NC(=O)[C@H](CC(C)C)NC(=O)[C@H](CC(C)C)NC(=O)C(C)(C)NC(=O)[C@@H](NC(=O)[C@H](C[C@H](C)C[C@@H](O)CC(=O)CC)NC(=O)[C@@H]1C[C@H](C)CN1C(=O)/C=C/[C@@H](C)CC)[C@H](O)C(C)C
InChI: InChI=1S/C62H111N11O13/c1-21-38(9)23-24-49(77)73-33-40(11)31-47(73)55(82)66-46(30-39(10)29-43(75)32-42(74)22-2)53(80)68-50(51(78)37(7)8)56(83)70-61(15,16)58(85)67-44(27-35(3)4)52(79)65-45(28-36(5)6)54(81)69-62(17,18)59(86)71-60(13,14)57(84)63-26-25-48(76)64-41(12)34-72(19)20/h23-24,35-41,43-47,50-51,75,78H,21-22,25-34H2,1-20H3,(H,63,84)(H,64,76)(H,65,79)(H,66,82)(H,67,85)(H,68,80)(H,69,81)(H,70,83)(H,71,86)/b24-23+/t38-,39+,40-,41-,43+,44-,45-,46-,47-,50-,51+/m0/s1
Instrument: LTQ Orbitrap XL hybrid iontrap-Orbitrap (Thermo Fisher Scientific, San Jose, CA, USA)
Instrument type: ESI-ITFT
Ms type: MS2
Ion mode: POSITIVE
Collision energy: 40 % (nominal)
Fragmentation mode: HCD
Ionization: ESI
Ion type: [M+H]+
Precursor m/z: 1218.8435
m/z	relative intensity
111.0802	32
112.0754	17
129.102	16
157.1334	17
174.16	43
194.1539	552
195.1572	48
199.144	9
214.155	8
215.1391	17
222.1488	999
223.1521	94
312.228	19
325.2122	7
328.2229	25
344.2656	19
417.2745	43
418.278	10
435.2851	169
436.2885	33
441.3067	9
457.3493	13
474.2958	11
492.3065	106
493.31	25
518.3586	20
528.343	38
529.3461	9
536.3691	11
546.3535	479
547.3568	136
559.3486	11
564.3638	231
565.3672	63
577.3591	27
578.363	8
603.4111	33
604.4149	9
613.3956	19
614.3989	7
631.4063	488
632.4094	165
649.4166	92
650.42	29
744.4896	18
745.4938	7
762.5009	21
763.5039	8
