Mass spectrum: Cycloate; LC-ESI-QTOF; MS2; ESI; POSITIVE; [M+H]+; CE 60 V
Name: Cycloate
Class: Non-natural product
Formula: C11H21NOS
Exact mass: 215.13438
SMILES: CCSC(=O)N(CC)C1CCCCC1
InChI: InChI=1S/C11H21NOS/c1-3-12(11(13)14-4-2)10-8-6-5-7-9-10/h10H,3-9H2,1-2H3
Instrument: ExionLC AD, AB Sciex LLC, USA; X500R QTOF, AB Sciex LLC, USA.
Instrument type: LC-ESI-QTOF
Ms type: MS2
Ion mode: POSITIVE
Collision energy: 60 V
Ionization: ESI
Column name: AQ-C18HP 3 microm, 2.1 mm Ã— 150 mm, GL Science (Tokyo Japan)
Retention time: 15.4 min
Precursor m/z: 216.14166
Precursor type: [M+H]+
m/z	relative intensity
33.0339	123
34.9953	85
39.0234	329
41.0391	319
44.0134	409
53.0389	63
55.0545	999
59.9912	51
