Mass spectrum: Daidzein; ESI-QTOF; MS2; POSITIVE; [M+H]+; CID; 60 V
Name: Daidzein
Class: 7-Hydroxyisoflavone
Formula: C15H10O4
Exact mass: 254.05791
SMILES: C1=CC(=CC=C1C2=COC3=C(C2=O)C=CC(=C3)O)O
InChI: InChI=1S/C15H10O4/c16-10-3-1-9(2-4-10)13-8-19-14-7-11(17)5-6-12(14)15(13)18/h1-8,16-17H
Instrument: X500R QTOF (AB Sciex LLC, USA)
Instrument type: ESI-QTOF
Ms type: MS2
Ion mode: POSITIVE
Collision energy: 60 V
Fragmentation mode: CID
Ionization: ESI
Precursor m/z: 255.06519
Precursor type: [M+H]+
m/z	relative intensity
39.0225	188
53.0383	102
55.0175	57
65.0382	999
68.9969	94
77.0384	149
78.0462	85
81.0332	342
91.0539	902
105.0333	87
115.054	114
127.054	150
128.0618	313
137.0231	165
152.0617	744
181.0646	155
