Mass spectrum: Poricoic acid A; ESI-QTOF; MS; POSITIVE
Name: Poricoic acid A
Class: Non-natural product; Tricyclic triterpenoid
Formula: C31H46O5
Exact mass: 498.33453
SMILES: CC(C)C(=C)CC[C@H]([C@H]1[C@@H](C[C@@]2([C@@]1(CC=C3C2=CC[C@H]([C@]3(C)CCC(=O)O)C(=C)C)C)C)O)C(=O)O
InChI: InChI=1S/C31H46O5/c1-18(2)20(5)9-10-21(28(35)36)27-25(32)17-31(8)24-12-11-22(19(3)4)29(6,15-14-26(33)34)23(24)13-16-30(27,31)7/h12-13,18,21-22,25,27,32H,3,5,9-11,14-17H2,1-2,4,6-8H3,(H,33,34)(H,35,36)/t21-,22+,25-,27+,29+,30-,31+/m1/s1
Instrument: X500R QTOF (AB Sciex LLC, USA)
Instrument type: ESI-QTOF
Ms type: MS
Ion mode: POSITIVE
Ionization: ESI
m/z	relative intensity
481.3318	148
482.3356	46
499.3426	87
500.3462	27
521.3229	999
522.3276	306
523.3313	51
543.3068	31
1019.6617	198
1020.6651	126
