Mass spectrum: Hexaflumuron; LC-ESI-QTOF; MS2; ESI; NEGATIVE; CE 40 V
Name: Hexaflumuron
Class: Non-natural product
Formula: C16H8Cl2F6N2O3
Exact mass: 459.98161
SMILES: O=C(NC(=O)c1c(F)cccc1F)Nc1cc(Cl)c(OC(F)(F)C(F)F)c(Cl)c1
InChI: InChI=1S/C16H8Cl2F6N2O3/c17-7-4-6(5-8(18)12(7)29-16(23,24)14(21)22)25-15(28)26-13(27)11-9(19)2-1-3-10(11)20/h1-5,14H,(H2,25,26,27,28)
Instrument: ExionLC AD, AB Sciex LLC, USA; X500R QTOF, AB Sciex LLC, USA.
Instrument type: LC-ESI-QTOF
Ms type: MS2
Ion mode: NEGATIVE
Collision energy: 40 V
Ionization: ESI
Column name: AQ-C18HP 3 microm, 2.1 mm Ã— 150 mm, GL Science (Tokyo Japan)
Retention time: 15.0 min
Precursor m/z: 458.97433
Precursor type: [M-H]-
m/z	relative intensity
34.969	20
41.9977	507
93.0142	19
96.9903	53
113.0206	64
116.9969	16
136.0203	37
174.9586	999
185.9517	97
199.9548	126
201.9469	25
255.9547	102
258.0	44
275.9613	196
284.9873	64
293.978	50
294.9612	82
300.9574	97
301.9901	131
