Mass spectrum: 1,6-Di(Cyanoguanidino)hexane; ESI-QTOF; MS2; ESI; POSITIVE; CE 30 V
Name: 1,6-Di(Cyanoguanidino)hexane
Class: Non-natural product
Formula: C10H18N8
Exact mass: 250.16541
SMILES: N#CNC(=N)NCCCCCCNC(=N)NC#N
InChI: InChI=1S/C10H18N8/c11-7-17-9(13)15-5-3-1-2-4-6-16-10(14)18-8-12/h1-6H2,(H3,13,15,17)(H3,14,16,18)
Instrument: X500R QTOF (AB Sciex LLC, USA)
Instrument type: ESI-QTOF
Ms type: MS2
Ion mode: POSITIVE
Collision energy: 30 V
Ionization: ESI
Precursor m/z: 251.17269
Precursor type: [M+H]+
m/z	relative intensity
30.0357	12
43.0312	53
45.0468	49
55.0562	219
57.047	18
68.0266	36
70.0423	34
70.0675	23
81.0722	34
82.0674	37
83.0877	133
85.053	143
96.0831	42
97.0531	34
98.0984	286
100.1143	51
108.0829	71
123.0938	32
125.1084	999
127.0747	91
139.0746	65
150.1043	88
165.1151	67
167.1302	471
192.1257	61
209.152	87
