Mass spectrum: Diallate; LC-ESI-QTOF; MS; ESI; POSITIVE
Name: Diallate
Class: Non-natural product
Formula: C10H17Cl2NOS
Exact mass: 269.04079
SMILES: CC(C)N(C(=O)SCC(Cl)=CCl)C(C)C
InChI: InChI=1S/C10H17Cl2NOS/c1-7(2)13(8(3)4)10(14)15-6-9(12)5-11/h5,7-8H,6H2,1-4H3
Instrument: ExionLC AD, AB Sciex LLC, USA; X500R QTOF, AB Sciex LLC, USA.
Instrument type: LC-ESI-QTOF
Ms type: MS
Ion mode: POSITIVE
Ionization: ESI
Column name: AQ-C18HP 3 microm, 2.1 mm Ã— 150 mm, GL Science (Tokyo Japan)
Retention time: 15.4 min
m/z	relative intensity
270.047	999
271.0513	143
272.0444	744
273.0488	102
274.0426	165
275.0465	18
