Mass spectrum: tert-butyl((4-methyl-5-(pentylthio)pentyl)oxy)diphenylsilane; GC-FI-TOF; MS; POSITIVE; FI; 10 kV
Name: tert-butyl((4-methyl-5-(pentylthio)pentyl)oxy)diphenylsilane
Class: Non-natural compound
Formula: C27H42OSSi
Exact mass: 442.27256
SMILES: CCCCCSCC(C)CCCO[Si](c1ccccc1)(c1ccccc1)C(C)(C)C
InChI: InChI=1S/C27H42OSSi/c1-6-7-14-22-29-23-24(2)16-15-21-28-30(27(3,4)5,25-17-10-8-11-18-25)26-19-12-9-13-20-26/h8-13,17-20,24H,6-7,14-16,21-23H2,1-5H3
Instrument: JMS-T100GCV (JEOL, Akishima, Japan) coupled to Agilent 7890A gas chromatograph.
Instrument type: GC-FI-TOF
Ms type: MS
Ion mode: POSITIVE
Ionization: FI
Column name: HP-5 30x0.32 0.25um 19091J-413, length 30.0 m, I.D. 0.32 mm, thickness 0.25 micrometer.
Retention time: 13.08 min.
m/z	relative intensity
57.072	50
385.202	999
386.205	318
387.202	120
388.203	30
