Mass spectrum: (S)-1-((2R,5R)-5-(Hydroxymethyl)tetrahydrofuran-2-yl)but-3-en-2-ol; GC-EI-TOF; MS; POSITIVE; EI; 70 V
Name: (S)-1-((2R,5R)-5-(Hydroxymethyl)tetrahydrofuran-2-yl)but-3-en-2-ol
Class: Non-natural compound
Formula: C9H16O3
Exact mass: 172.10995
SMILES: C=C[C@@H](O)C[C@H]1CC[C@H](CO)O1
InChI: InChI=1S/C9H16O3/c1-2-7(11)5-8-3-4-9(6-10)12-8/h2,7-11H,1,3-6H2/t7-,8-,9-/m1/s1
Instrument: JMS-T100GCV (JEOL, Akishima, Japan) coupled to Agilent 7890A gas chromatograph.
Instrument type: GC-EI-TOF
Ms type: MS
Ion mode: POSITIVE
Ionization: EI
Column name: ZB-1MS 7HM-G011-11 sn:313446, length 30.0 m, I.D. 0.32 mm, thickness 0.25 micrometer.
Retention time: 7.85 min.
m/z	relative intensity
26.016	6
27.023	110
27.066	1
28.006	13
28.031	33
29.003	94
29.039	141
29.08	2
30.009	3
30.043	4
31.018	150
31.06	1
31.99	7
32.024	3
39.023	87
40.03	12
41.039	209
41.091	2
42.01	17
42.046	30
43.018	159
43.055	43
43.109	1
44.026	45
44.059	2
45.034	39
47.013	3
51.023	8
52.031	5
53.039	46
54.047	55
55.018	134
55.055	215
55.159	2
56.026	37
56.061	29
57.034	999
57.07	50
57.406	3
57.661	2
57.945	1
58.039	43
59.049	21
61.029	12
65.039	11
66.047	9
67.055	146
68.026	8
68.061	20
69.034	132
69.07	13
70.041	29
70.076	2
71.013	2
71.049	62
72.055	5
73.065	8
74.036	4
77.039	22
78.045	4
79.054	154
80.061	39
81.034	13
81.07	27
82.041	7
82.075	2
83.049	87
84.056	12
85.028	3
85.065	76
86.069	5
87.044	715
87.226	2
87.506	2
87.776	1
87.836	1
88.048	31
88.133	1
88.178	1
89.049	3
91.054	9
93.07	22
94.075	3
95.049	12
95.086	74
95.167	1
96.057	8
96.089	6
97.065	11
98.073	21
99.044	6
100.052	3
101.06	97
101.135	1
102.063	5
103.057	2
105.07	21
114.068	10
115.074	2
116.083	8
123.081	31
124.085	3
126.904	4
127.912	7
141.092	116
142.095	11
154.099	7
