Mass spectrum: Dimethametryn; ESI-QTOF; MS2; POSITIVE; [M+H]+; CID; 80 V
Name: Dimethametryn
Class: Non-natural product
Formula: C11H21N5S
Exact mass: 255.1518
SMILES: CCNc1nc(nc(n1)SC)NC(C)C(C)C
InChI: InChI=1S/C11H21N5S/c1-6-12-9-14-10(13-8(4)7(2)3)16-11(15-9)17-5/h7-8H,6H2,1-5H3,(H2,12,13,14,15,16)
Instrument: X500R QTOF (AB Sciex LLC, USA)
Instrument type: ESI-QTOF
Ms type: MS2
Ion mode: POSITIVE
Collision energy: 80 V
Fragmentation mode: CID
Ionization: ESI
Precursor m/z: 256.1590
Precursor type: [M+H]+
m/z	relative intensity
27.0228	70
29.0384	33
39.0229	45
41.0385	147
43.029	667
43.0542	115
46.995	65
68.0242	999
74.006	212
