Mass spectrum: Glc4; ESI-QQ; MS2; Negative; [M-H]-; CID; CE: 20 eV
Name: Glc4
Name: Isomaltosylmaltose
Name: Glc(a1-6)Glc(a1-4)Glc(a1-4)Glc
Class: Non-natural product.
Formula: C24H42O21
Exact mass: 666.221865
SMILES: O[C@@H]1[C@@H](O)[C@H](O)[C@@H](CO)O[C@@H]1OC[C@H]1O[C@H](O[C@@H]2[C@@H](CO)O[C@H](O[C@@H]3[C@@H](CO)OC(O)[C@H](O)[C@H]3O)[C@H](O)[C@H]2O)[C@H](O)[C@@H](O)[C@@H]1O
InChI: InChI=1S/C24H42O21/c25-1-5-9(28)11(30)16(35)22(41-5)39-4-8-10(29)12(31)17(36)23(43-8)45-20-7(3-27)42-24(18(37)14(20)33)44-19-6(2-26)40-21(38)15(34)13(19)32/h5-38H,1-4H2/t5-,6-,7-,8-,9-,10-,11+,12+,13-,14-,15-,16-,17-,18-,19-,20-,21?,22+,23-,24-/m1/s1
Instrument: Triple Quad 4500 (AB Sciex Pte. Ltd., USA)
Instrument type: LC-ESI-QQ
Ms type: MS2
Ion mode: NEGATIVE
Collision energy: 20 eV
Fragmentation mode: CID
Ionization: ESI
Precursor m/z: 665.214588
Precursor type: [M-H]-
m/z	relative intensity
100.8512	23
113.3	5
118.5	3
118.9282	11
124.8	4
130.9	7
131.2	2
133.2	4
142.6195	19
142.8543	23
143.1	17
143.3	17
148.5	2
148.8	7
149.1	2
160.898	334
178.8984	351
220.9693	50
232.8	3
250.9561	115
262.5	3
268.7	8
269	7
269.4	4
280.9119	96
292.9	1
305.1556	4
310.9411	20
311.5	4
320.6	2
322.9566	64
338.9	4
339.1	2
340.9859	999
382.9903	115
425.0329	280
436.7	2
437.2	1
443.0079	70
454.7	4
454.9429	5
455.2	5
484.5	2
485.275	3
503.0923	815
545.1084	304
587.1363	187
593.3	2
604.5	9
605.1192	94
605.7722	8
617	1
665.1685	335
