Mass spectrum: (2R,3S)-(+)-2,3-epoxyoctanal; GC-FI-TOF; MS; POSITIVE; FI; 10 kV
Name: (2R,3S)-(+)-2,3-epoxyoctanal
Class: Non-natural compound
Formula: C8H14O2
Exact mass: 142.09938
SMILES: CCCCC[C@@H]1O[C@H]1C=O
InChI: InChI=1S/C8H14O2/c1-2-3-4-5-7-8(6-9)10-7/h6-8H,2-5H2,1H3/t7-,8-/m0/s1
Instrument: JMS-T100GCV (JEOL, Akishima, Japan) coupled to Agilent 7890A gas chromatograph.
Instrument type: GC-FI-TOF
Ms type: MS
Ion mode: POSITIVE
Ionization: FI
Column name: HP-5 19091J-413 USD364547H (Agilent), length 30.0 m, I.D. 0.32 mm, thickness 0.25 micrometer.
Retention time: 5.6 min.
m/z	relative intensity
29.039	999
56.062	191
57.032	136
57.071	171
71.012	365
83.086	167
95.082	388
113.056	102
113.093	411
125.09	212
141.087	194
142.099	876
143.104	836
