Mass spectrum: (E)-6,7-Epoxynon-2-enal; GC-EI-TOF; MS; positive; EI; 70 V
Name: (E)-6,7-Epoxynon-2-enal
Class: Non-natural product
Formula: C9H14O2
Exact mass: 154.09938
SMILES: CCC1C(O1)CC/C=C/C=O
InChI: InChI=1S/C9H14O2/c1-2-8-9(11-8)6-4-3-5-7-10/h3,5,7-9H,2,4,6H2,1H3/b5-3+
Instrument: JMS-T100GCV (JEOL, Akishima, Japan) coupled to Agilent 7890A (Agilent, Wilmington, USA) gas chromatograph.
Instrument type: GC-EI-TOF
Ms type: MS
Ion mode: POSITIVE
Ionization: EI
Column name: HP-5 19091 J-413 USD364547H (Agilent, Wilmington, USA), length 30 m, I.D. 0.32 mm, thickness 0.25 micrometer.
Retention time: 7.6 min.
m/z	relative intensity
26.016	37
27.024	444
28.006	45
28.031	62
29.003	185
29.039	391
29.083	6
30.046	12
31.019	274
31.990	29
38.016	38
39.024	618
39.074	8
40.031	113
41.039	999
42.011	26
42.046	94
43.019	153
43.055	76
44.026	17
45.034	19
50.016	19
51.024	44
52.032	21
53.040	123
54.047	24
55.019	92
55.055	215
56.061	19
57.034	154
57.071	114
58.041	16
59.050	447
59.114	6
60.053	17
65.040	70
66.047	84
67.055	554
67.123	7
68.027	500
68.060	70
69.033	76
69.070	29
70.042	146
71.049	64
77.040	26
78.047	17
79.055	55
81.034	154
81.070	18
82.042	81
82.078	21
83.050	174
84.057	41
85.066	382
86.069	24
91.054	12
95.050	122
96.057	49
97.066	162
98.072	23
110.074	26
112.052	37
125.096	9
