Mass spectrum: Dihydrochalcone; ESI-ITFT; MS; Positive
Name: Dihydrochalcone
Class: Natural Product; Chalcones
Formula: C15H14O
Exact mass: 210.10447
SMILES: C1=CC=C(C=C1)CCC(=O)C2=CC=CC=C2
InChI: InChI=1S/C15H14O/c16-15(14-9-5-2-6-10-14)12-11-13-7-3-1-4-8-13/h1-10H,11-12H2
Instrument: LTQ Orbitap Velos (Thermofisher Scientific)
Instrument type: ESI-ITFT
Ms type: MS
Ion mode: POSITIVE
Ionization: nano-ESI
m/z	relative intensity
201.11456	8
203.02341	6
205.06227	4
206.01456	5
209.01151	4
209.11559	8
210.08333	4
211.08946	8
211.09297	13
211.09642	10
211.09927	7
211.10146	4
211.10371	7
211.11214	999
212.11548	153
212.16484	15
213.04353	5
213.09598	4
213.11853	12
215.12735	7
215.13049	6
215.58705	3
217.03819	5
217.04742	37
217.08057	26
217.10481	13
217.58238	5
219.01828	8
219.1017	5
221.03357	69
222.06229	15
222.08383	4
222.09673	14
222.11937	5
223.04897	5
224.11725	6
224.60925	4
225.04883	3
225.12149	6
226.14716	4
226.18059	21
227.08202	5
227.17578	10
227.1823	6
228.13858	16
228.19643	4
230.08557	275
230.1658	4
230.17519	8
230.24835	14
230.58705	74
231.08875	12
232.08142	6
232.94724	4
233.03401	4
233.09412	335
234.09737	47
235.10002	6
236.00914	19
236.07315	3
236.07802	4
237.57326	59
238.02464	9
238.07506	21
239.00607	17
239.07175	13
239.13692	12
239.1622	21
239.61674	9
239.63922	5
240.1485	4
241.00192	8
241.022	15
243.01736	6
244.19099	13
244.99475	9
245.0705	6
245.09955	5
246.14932	19
248.41254	4
249.06796	100
250.07138	14
251.06558	9
252.14845	5
252.15732	24
253.03867	11
253.15326	8
255.13571	12
257.13455	4
258.61194	4
