Mass spectrum: (7Z)-15-Methylnonacos-7-ene; GC-FI-TOF; MS; positive; FI; 10 kV
Name: (7Z)-15-Methylnonacos-7-ene
Class: Non-natural product
Formula: C30H60
Exact mass: 420.46950
SMILES: CC(CCCCCCCCCCCCCC)CCCCCC/C=C\CCCCCC
InChI: InChI=1S/C30H60/c1-4-6-8-10-12-14-16-18-20-22-24-26-28-30(3)29-27-25-23-21-19-17-15-13-11-9-7-5-2/h14,16,30H,4-13,15,17-29H2,1-3H3/b16-14-
Instrument: JMS-T100GCV (JEOL, Akishima, Japan) coupled to Agilent 7890A (Agilent, Wilmington, USA) gas chromatograph.
Instrument type: GC-FI-TOF
Ms type: MS
Ion mode: POSITIVE
Ionization: FI
Column name: HP-5 19091 J-413 USD364547H (Agilent, Wilmington, USA), length 30.0 m, I.D. 0.32 mm, thickness 0.25 micrometer.
Retention time: 12.68 min.
m/z	relative intensity
420.470	999
421.473	334
422.477	55
