Mass spectrum: N-Ethylglycine; GC-FI-TOF; MS; POSITIVE; FI; 10 kV; TBDMS
Name: N-Ethylglycine
Class: Non-natural compound
Formula: C4H9NO2
Exact mass: 103.0633285
SMILES: CCNCC(=O)O
InChI: InChI=1S/C4H9NO2/c1-2-5-3-4(6)7/h5H,2-3H2,1H3,(H,6,7)
Instrument: JMS-T100GCV (JEOL, Akishima, Japan) coupled to Agilent 7890A (Santa Clara, CA, USA) gas chromatograph.
Instrument type: GC-FI-TOF
Ms type: MS
Ion mode: POSITIVE
Ionization: FI
Column name: DB-5MS UI 122-5532UI US0462866H (Agilent, Wilmington, USA) with the length 30 m, I.D. 0.25 mm, and thickness 0.25 micrometer.
Retention time: 7.76 min.
Derivative form: C10H23NO2Si
Derivative mass: 217.1498
Derivative type: TBDMS
m/z	relative intensity
57.071	24
115.093	18
160.08	127
161.08	11
162.077	7
202.13	7
216.143	23
217.15	999
218.154	275
219.152	60
220.153	14
