Mass spectrum: (4S)-4-Methyl-6-heptenyl pivalate; GC-FI-TOF; MS; positive; FI; 10 kV
Name: (4S)-4-Methyl-6-heptenyl pivalate
Class: Non-natural product
Formula: C13H24O2
Exact mass: 212.17763
SMILES: C=CCC[C@H](C)CCOC(=O)C(C)(C)C
InChI: InChI=1S/C13H24O2/c1-6-7-8-11(2)9-10-15-12(14)13(3,4)5/h6,11H,1,7-10H2,2-5H3/t11-/m0/s1
Instrument: JMS-T100GCV (JEOL, Akishima, Japan) coupled to Agilent 7890A (Agilent, Wilmington, USA) gas chromatograph.
Instrument type: GC-FI-TOF
Ms type: MS
Ion mode: POSITIVE
Ionization: FI
Column name: HP-5 19091 J-413 USD364547H (Agilent, Wilmington, USA), length 30.0 m, I.D. 0.32 mm, thickness 0.25 micrometer.
Retention time: 7.42 min.
m/z	relative intensity
42.045	66
49.049	54
57.070	999
75.222	51
80.071	46
83.087	73
85.064	275
94.096	61
110.113	220
111.119	113
128.123	77
155.104	246
170.129	822
171.130	126
181.107	51
182.165	146
184.150	77
194.167	101
212.044	53
212.178	722
213.181	368
