Mass spectrum: Lufenuron; LC-ESI-QTOF; MS2; ESI; NEGATIVE; CE 20 V
Name: Lufenuron
Class: Non-natural product
Formula: C17H8Cl2F8N2O3
Exact mass: 509.97842
SMILES: O=C(NC(=O)c1c(F)cccc1F)Nc1cc(Cl)c(OC(F)(F)C(F)C(F)(F)F)cc1Cl
InChI: InChI=1S/C17H8Cl2F8N2O3/c18-6-5-11(32-17(26,27)14(22)16(23,24)25)7(19)4-10(6)28-15(31)29-13(30)12-8(20)2-1-3-9(12)21/h1-5,14H,(H2,28,29,30,31)
Instrument: ExionLC AD, AB Sciex LLC, USA; X500R QTOF, AB Sciex LLC, USA.
Instrument type: LC-ESI-QTOF
Ms type: MS2
Ion mode: NEGATIVE
Collision energy: 20 V
Ionization: ESI
Column name: AQ-C18HP 3 microm, 2.1 mm Ã— 150 mm, GL Science (Tokyo Japan)
Retention time: 15.4 min
Precursor m/z: 508.97115
Precursor type: [M-H]-
m/z	relative intensity
34.9691	11
36.9661	14
41.9981	17
146.9877	29
156.0266	47
176.957	10
203.9435	210
302.9977	30
304.9964	31
325.9587	11
327.9537	921
328.9593	16
340.9702	999
341.9754	33
352.9497	101
353.9352	22
447.9569	23
452.9879	106
454.9853	113
470.9551	81
490.9614	348
510.9684	100
