Mass spectrum: Malic acid-[1,2,3,4-13C4]; GC-EI-QQ; MS2; POSITIVE; CID 5 V; 3 TBDMS-derivative; [M-57]+
Name: Malic acid-[1,2,3,4-13C4]
Class: In vitro synthetic compound
Formula: C4H6O5
Exact mass: 134.02153
SMILES: C(C(C(=O)O)O)C(=O)O
InChI: InChI=1S/C4H6O5/c5-2(4(8)9)1-3(6)7/h2,5H,1H2,(H,6,7)(H,8,9)/i1+1,2+1,3+1,4+1
Instrument: GCMS-TQ8040 (Shimadzu, Kyoto, Japan)
Instrument type: GC-EI-QQ
Ms type: MS2
Ion mode: POSITIVE
Collision energy: 5 V
Fragmentation mode: CID
Column name: DB-5MS+DG (Agilent Technologies, Santa Clara, CA, USA)
Derivative form: C22H48O5Si3
Derivative mass: 476.28096
Derivative type: 3 TBDMS
Precursor m/z: 423.22340
m/z	relative intensity	assigned
58.2	25	
73.05	97	
115.1	999	
133.1	130	
147	70	
149.2	42	
160	19	
189.1	404	
189.9	10	
190.9	49	
217.1	51	
219	77	C7(13C2)H21O2Si2+
247.95	16	
262	25	
291.1	61	
349.05	120	
350.2	63	C14(13C)H37O3Si3+
378.35	56	
394.25	216	C14(13C3)H39O4Si3+
407.15	50	
422.35	20	
423.25	582	
