Mass spectrum: Fucoxanthin; LC-ESI-QTOF; MS2; POSITIVE; ESI; [M+H]+; COLLISION_ENERGY 30 V
Name: Fucoxanthin
Class: Natural product; carotenoids, Xanthophyll
Formula: C42H58O6
Exact mass: 658.42334
SMILES: C/C(=C\C=C\C=C(/C)\C=C\C=C(/C)\C(=O)C[C@]12[C@](O1)(C[C@H](CC2(C)C)O)C)/C=C/C=C(\C)/C=C=C3[C@](C[C@H](CC3(C)C)OC(=O)C)(C)O
InChI: InChI=1S/C42H58O6/c1-29(18-14-19-31(3)22-23-37-38(6,7)26-35(47-33(5)43)27-40(37,10)46)16-12-13-17-30(2)20-15-21-32(4)36(45)28-42-39(8,9)24-34(44)25-41(42,11)48-42/h12-22,34-35,44,46H,24-28H2,1-11H3/b13-12+,18-14+,20-15+,29-16+,30-17+,31-19+,32-21+/t23?,34-,35-,40+,41+,42-/m0/s1
Instrument: Xevo G2-S QtOF, Waters (USA) coupled to ACQUITY UPLC, Waters (USA).
Instrument type: LC-ESI-QTOF
Ms type: MS2
Ion mode: POSITIVE
Collision energy: 30 V
Ionization: ESI
Column name: BEH C18, I.D. 2.1 mm, length 100 mm, thickness 1.7 micrometer.
Ion type: [M+H]+
Precursor m/z: 659.43062
m/z	relative intensity
107.086	80
109.101	999
110.105	102
119.086	131
121.102	95
125.097	73
133.102	100
135.08	97
137.096	100
143.086	65
145.101	107
147.081	99
149.096	274
155.106	63
157.102	166
159.081	90
159.117	107
161.096	108
169.101	69
171.117	142
173.096	70
173.133	99
179.106	85
183.117	104
185.132	98
195.117	100
197.132	126
199.112	50
199.148	103
203.143	55
207.117	74
209.132	104
211.148	78
213.128	101
215.143	148
221.132	76
223.148	97
225.128	78
225.163	60
235.147	73
237.164	60
249.163	51
251.178	72
263.179	88
355.241	56
