Mass spectrum: L-(+)-Ergothioneine; ESI-QTOF; MS; POSITIVE
Name: L-(+)-Ergothioneine
Class: L-Histidine derivative
Formula: C9H15N3O2S
Exact mass: 229.08850
SMILES: C[N+](C)(C)[C@@H](CC1=CNC(=S)N1)C(=O)[O-]
InChI: InChI=1S/C9H15N3O2S/c1-12(2,3)7(8(13)14)4-6-5-10-9(15)11-6/h5,7H,4H2,1-3H3,(H2-,10,11,13,14,15)/t7-/m0/s1
Instrument: X500R QTOF (AB Sciex LLC, USA)
Instrument type: ESI-QTOF
Ms type: MS
Ion mode: POSITIVE
Ionization: ESI
m/z	relative intensity
186.1015	224
230.0879	910
252.0674	999
457.1427	142
459.1576	128
479.1219	222
481.1363	721
