Mass spectrum: Avermectin B1b; LC-ESI-QTOF; MS2; ESI; NEGATIVE; CE 40 V
Name: Avermectin B1b
Class: Non-natural product
Formula: C47H70O14
Exact mass: 858.47656
SMILES: CO[C@H]1C[C@H](O[C@H]2[C@H](C)O[C@@H](O[C@@H]3/C(C)=C/C[C@@H]4C[C@@H](C[C@]5(C=C[C@H](C)[C@@H](C(C)C)O5)O4)OC(=O)[C@@H]4C=C(C)[C@@H](O)[C@H]5OC/C(=C\C=C\[C@@H]3C)[C@@]45O)C[C@@H]2OC)O[C@@H](C)[C@@H]1O
InChI: InChI=1S/C47H70O14/c1-24(2)41-27(5)16-17-46(61-41)22-33-19-32(60-46)15-14-26(4)42(25(3)12-11-13-31-23-54-44-39(48)28(6)18-34(45(50)57-33)47(31,44)51)58-38-21-36(53-10)43(30(8)56-38)59-37-20-35(52-9)40(49)29(7)55-37/h11-14,16-18,24-25,27,29-30,32-44,48-49,51H,15,19-23H2,1-10H3/b12-11+,26-14+,31-13+/t25-,27-,29-,30-,32+,33-,34-,35-,36-,37-,38-,39+,40-,41+,42-,43-,44+,46+,47+/m0/s1
Instrument: ExionLC AD, AB Sciex LLC, USA; X500R QTOF, AB Sciex LLC, USA.
Instrument type: LC-ESI-QTOF
Ms type: MS2
Ion mode: NEGATIVE
Collision energy: 40 V
Ionization: ESI
Column name: AQ-C18HP 3 microm, 2.1 mm Ã— 150 mm, GL Science (Tokyo Japan)
Retention time: 16.0 min
Precursor m/z: 857.46928
Precursor type: [M-H]-
m/z	relative intensity
83.0499	18
84.0215	17
85.0291	37
97.0657	51
109.0293	210
111.0447	17
123.045	11
153.0551	26
185.0605	9
229.1082	953
230.1125	68
271.1339	44
345.1493	37
351.1973	37
441.2641	111
443.2222	158
444.2273	45
497.2716	59
515.2829	182
533.2894	40
551.3032	990
552.3061	283
747.4329	125
775.4301	117
813.4756	131
814.4849	67
821.4501	427
822.452	203
826.2	81
839.4603	671
840.2346	158
840.4638	279
857.4704	999
