Mass spectrum: rac-(3R,5S)-Nona-1,8-diene-3,5-diol; GC-FI-TOF; MS; POSITIVE; FI; 10 kV
Name: rac-(3R,5S)-Nona-1,8-diene-3,5-diol
Class: Non-natural compound
Formula: C9H16O2
Exact mass: 156.11503
SMILES: C=CCC[C@H](O)C[C@@H](O)C=C
InChI: InChI=1S/C9H16O2/c1-3-5-6-9(11)7-8(10)4-2/h3-4,8-11H,1-2,5-7H2/t8-,9-/m0/s1
Instrument: JMS-T100GCV (JEOL, Akishima, Japan) coupled to Agilent 7890A gas chromatograph.
Instrument type: GC-FI-TOF
Ms type: MS
Ion mode: POSITIVE
Ionization: FI
Column name: ZB-1MS 7HM-G011-11 sn:313446, length 30.0 m, I.D. 0.32 mm, thickness 0.25 micrometer.
Retention time: 7.03 min.
m/z	relative intensity
57.034	35
70.06	23
85.064	43
101.06	32
102.067	17
120.092	14
138.102	270
139.107	38
156.115	999
156.29	7
157.12	294
157.227	7
158.124	30
