Mass spectrum: Acarbose; ESI-QQ; MS2; NEGATIVE; [M-H]-; CID; CE: 15 eV
Name: Acarbose
Class: Non-natural product.
Formula: C25H43NO18
Exact mass: 645.248015
SMILES: C[C@@H]1[C@H]([C@@H]([C@H]([C@H](O1)O[C@@H]2[C@H](O[C@@H]([C@@H]([C@H]2O)O)O[C@@H]3[C@H](O[C@H]([C@@H]([C@H]3O)O)O)CO)CO)O)O)N[C@H]4C=C([C@H]([C@@H]([C@H]4O)O)O)CO
InChI: InChI=1S/C25H43NO18/c1-6-11(26-8-2-7(3-27)12(30)15(33)13(8)31)14(32)19(37)24(40-6)43-22-10(5-29)42-25(20(38)17(22)35)44-21-9(4-28)41-23(39)18(36)16(21)34/h2,6,8-39H,3-5H2,1H3/t6-,8+,9-,10-,11-,12-,13+,14+,15+,16-,17-,18-,19-,20-,21-,22-,23-,24-,25-/m1/s1
Instrument: Triple Quad 4500 (AB Sciex Pte. Ltd., USA)
Instrument type: LC-ESI-QQ
Ms type: MS2
Ion mode: NEGATIVE
Collision energy: 15 eV
Fragmentation mode: CID
Ionization: ESI
Precursor m/z: 644.24074
Precursor type: [M-H]-
m/z	relative intensity
97.200	1
100.704	10
112.600	1
132.882	1
142.921	8
160.894	304
194.750	1
215.976	13
221.813	1
241.904	14
245.904	12
257.892	23
259.970	97
265.620	1
271.800	1
275.950	77
283.820	1
289.761	3
301.883	38
320.012	678
362.022	173
404.106	67
422.127	317
463.859	1
464.238	1
482.115	907
524.132	237
554.017	1
566.130	366
584.152	305
626.331	3
644.195	999
