Mass spectrum: Dihydrochalcone; ESI-ITFT; MS2; [M+H]+
Name: Dihydrochalcone
Class: Natural Product; Chalcones
Formula: C15H14O
Exact mass: 210.10447
SMILES: C1=CC=C(C=C1)CCC(=O)C2=CC=CC=C2
InChI: InChI=1S/C15H14O/c16-15(14-9-5-2-6-10-14)12-11-13-7-3-1-4-8-13/h1-10H,11-12H2
Instrument: LTQ Orbitap Velos (Thermofisher Scientific)
Instrument type: ESI-ITFT
Ms type: MS2
Ion mode: POSITIVE
Collision energy: 22 V
Ionization: nano-ESI
Precursor m/z: 211.11284
Precursor type: [M+H]+
m/z	relative intensity
64.33139	1
66.21571	1
72.10071	2
79.05425	1
91.04549	1
91.04675	1
91.05017	2
91.0518	5
91.05422	896
91.05688	4
91.05982	1
91.06043	1
91.06118	1
91.06256	1
91.06302	1
91.0638	1
105.03362	3
105.07002	131
107.04921	13
115.05432	1
119.04922	1
127.08798	1
133.06489	36
143.04357	1
149.02335	6
167.0339	1
181.10132	1
193.10131	67
196.97445	1
210.99115	2
211.05892	1
211.08504	1
211.08709	1
211.09442	2
211.09762	2
211.10227	4
211.11171	999
211.13306	1
