Mass spectrum: (3S,5R)-Nona-1,8-diene-3,5-diol; GC-EI-TOF; MS; positive; EI; 70 V
Name: (3S,5R)-Nona-1,8-diene-3,5-diol
Class: Non-natural compound
Formula: C9H16O2
Exact mass: 156.11503
SMILES: C=CCC[C@@H](O)C[C@H](O)C=C
InChI: InChI=1S/C9H16O2/c1-3-5-6-9(11)7-8(10)4-2/h3-4,8-11H,1-2,5-7H2/t8-,9-/m1/s1
Instrument: JMS-T100GCV (JEOL, Akishima, Japan) coupled to Agilent 7890A (Agilent, Wilmington, USA) gas chromatograph.
Instrument type: GC-EI-TOF
Ms type: MS
Ion mode: POSITIVE
Ionization: EI
Column name: ZB-1MS 7HM-G011-11 sn:313446 (Agilent, Wilmington, USA), length 30 m, I.D. 0.32 mm, thickness 0.25 micrometer.
Retention time: 7.02 min.
m/z	relative intensity
26.015	17
27.023	289
27.065	3
28.006	31
28.031	125
29.003	146
29.039	356
29.082	4
29.269	1
30.008	4
30.044	9
31.018	130
31.055	2
31.99	16
38.016	8
39.023	349
39.075	4
39.306	1
40.03	40
41.039	662
41.089	6
41.323	2
41.355	2
42.011	33
42.045	42
42.092	1
43.018	333
43.055	27
44.026	64
44.058	2
45.034	71
46.039	3
47.013	24
50.016	10
51.023	30
52.031	17
53.003	3
53.039	150
54.047	835
54.105	8
54.372	2
54.409	2
54.655	1
54.703	1
54.925	1
55.018	246
55.055	824
55.419	2
55.656	2
56.026	230
56.061	116
56.175	1
57.034	999
57.07	59
57.407	3
57.669	2
57.943	2
58.041	86
58.074	3
59.048	8
61.011	5
63.024	3
65.039	27
66.047	65
67.055	623
67.12	7
67.375	1
67.409	2
67.458	2
67.748	1
68.026	6
68.061	80
69.034	41
69.07	19
70.042	67
71.014	10
71.049	62
72.057	45
73.029	10
73.063	4
74.037	12
75.044	9
77.006	4
77.039	27
78.047	17
79.055	128
79.126	2
80.062	45
81.034	31
81.07	121
82.041	24
82.078	124
83.05	375
83.451	1
84.057	300
84.463	1
85.064	59
85.136	1
86.072	22
87.027	3
91.055	30
92.062	23
93.07	13
94.078	39
95.05	40
95.085	12
96.058	76
97.065	51
98.071	5
99.038	5
99.08	2
101.06	50
102.066	5
105.07	22
106.075	2
107.086	5
109.065	30
110.073	15
111.079	2
113.043	3
114.069	1
119.086	3
120.094	5
123.081	16
126.904	4
127.072	2
127.913	6
137.097	4
141.039	2
143.053	6
157.069	4
