Mass spectrum: (-)-2-[(1S,2S)-1,2-Dimethyl-3-methylenecyclopentyl]ethyl camphanate; GC-EI-TOF; MS; positive; EI; 70 V
Name: (-)-2-[(1S,2S)-1,2-Dimethyl-3-methylenecyclopentyl]ethyl camphanate
Class: Non-natural product
Formula: C20H30O4
Exact mass: 334.21441
SMILES: C=C1CC[C@@](C)(CCOC(=O)C23CCC(C)(C(=O)O2)C3(C)C)[C@H]1C
InChI: InChI=1S/C20H30O4/c1-13-7-8-18(5,14(13)2)11-12-23-16(22)20-10-9-19(6,15(21)24-20)17(20,3)4/h14H,1,7-12H2,2-6H3/t14-,18-,19?,20?/m0/s1
Instrument: JMS-T100GCV (JEOL, Akishima, Japan) coupled to Agilent 7890A (Agilent, Wilmington, USA) gas chromatograph.
Instrument type: GC-EI-TOF
Ms type: MS
Ion mode: POSITIVE
Ionization: EI
Column name: HP-5 19091 J-413 USD364547H (Agilent, Wilmington, USA), length 30 m, I.D. 0.32 mm, thickness 0.25 micrometer.
Retention time: 11.44 min.
m/z	relative intensity
27.024	31
28.006	34
28.032	8
29.004	1
29.040	50
29.083	1
30.043	1
31.019	1
31.990	11
39.024	54
39.074	1
40.032	24
41.040	311
41.165	1
41.321	1
41.355	1
41.563	1
41.596	1
42.011	2
42.046	21
43.019	36
43.055	90
43.990	1
44.023	1
44.059	3
45.034	2
50.017	1
51.024	7
52.032	6
53.040	88
54.047	20
55.019	7
55.055	293
55.394	1
55.423	1
55.643	1
55.670	1
56.026	1
56.060	16
57.035	2
57.071	17
59.050	1
63.024	1
65.040	29
66.047	12
67.019	1
67.055	240
67.413	1
67.462	1
68.063	97
69.035	17
69.071	124
69.190	1
70.042	5
70.075	9
71.050	2
71.086	1
73.030	3
77.040	67
78.046	15
79.055	175
79.339	1
79.479	1
80.062	65
81.034	1
81.071	159
81.477	1
81.515	1
82.043	3
82.078	65
83.050	5
83.087	268
83.536	1
83.839	1
84.057	1
84.090	17
85.066	2
87.045	1
91.056	90
91.331	1
92.062	24
93.071	310
93.504	1
93.547	1
93.870	1
94.078	120
95.086	132
95.277	1
95.532	1
96.058	3
96.093	26
97.066	28
97.102	45
98.071	3
98.106	4
99.045	1
103.056	3
104.063	2
105.071	35
106.078	26
107.086	593
107.457	1
107.596	2
108.094	999
108.365	1
108.435	1
108.467	2
108.608	2
109.102	942
109.374	1
109.442	1
109.476	2
109.619	2
110.106	99
110.263	1
111.045	1
111.082	9
112.053	2
112.087	1
115.055	1
117.071	2
119.050	4
119.086	9
120.094	12
121.102	380
121.648	1
122.106	40
122.416	1
123.081	6
123.117	11
124.089	11
125.097	61
126.101	6
127.040	4
130.089	1
133.067	1
133.102	2
134.074	10
134.109	6
135.118	81
136.125	287
136.637	1
136.705	1
137.097	34
137.132	91
137.547	1
137.600	1
138.101	4
138.136	8
139.077	8
140.083	1
143.107	1
147.118	2
151.076	4
152.084	26
153.092	71
154.097	10
155.107	6
164.083	18
165.087	3
166.097	1
167.072	1
169.087	2
170.094	8
171.099	1
181.086	17
182.094	16
183.099	2
199.097	5
221.155	1
247.206	2
260.214	9
261.218	2
267.158	2
334.212	1
