Mass spectrum: Trimethylamine oxide; ESI-QTOF; MS2; POSITIVE; [M+H]+; CID; 10 V
Name: Trimethylamine oxide
Class: Tertiary amine oxide
Formula: C3H9NO
Exact mass: 75.06841
SMILES: C[N+](C)(C)[O-]
InChI: InChI=1S/C3H9NO/c1-4(2,3)5/h1-3H3
Instrument: X500R QTOF (AB Sciex LLC, USA)
Instrument type: ESI-QTOF
Ms type: MS2
Ion mode: POSITIVE
Collision energy: 10 V
Fragmentation mode: CID
Ionization: ESI
Precursor m/z: 76.07569
Precursor type: [M+H]+
m/z	relative intensity	assigned
58.065	32	[C3H10N-2H]+
59.0728	138	[C3H10N-H]+
76.0754	999	[C3H9NO+H]+
