Mass spectrum: Citric acid; GC-EI-QQ; MS2; POSITIVE; CID; 15 V; 4 TMS-derivative; [M-15]+
Name: Citric acid
Class: Natural Product
Formula: C6H8O7
Exact mass: 192.02701
SMILES: OC(=O)CC(O)(CC(O)=O)C(=O)O
InChI: InChI=1S/C6H8O7/c7-3(8)1-6(13,5(11)12)2-4(9)10/h13H,1-2H2,(H,7,8)(H,9,10)(H,11,12)
Instrument: GCMS-TQ8040 (Shimadzu, Kyoto, Japan)
Instrument type: GC-EI-QQ
Ms type: MS2
Ion mode: POSITIVE
Collision energy: 15 V
Fragmentation mode: CID
Column name: DB-5MS+DG (Agilent Technologies, Santa Clara, CA, USA)
Derivative form: C18H40O7Si4
Derivative mass: 480.18511
Derivative type: 4 TMS
Precursor m/z: 465.16109
m/z	relative intensity	assigned
67.15	42	
73.2	318	
75.1	21	
129.2	12	
139.15	72	
143.2	15	
147.2	999	
162.95	24	
182.95	164	
185.05	48	
210.95	611	
212.9	49	
217	14	
220.95	26	
229.15	49	
231.2	13	
257.05	527	
257.8	13	
258.85	24	
273.05	446	C11H21O4Si2+
285.05	224	
301.1	35	
303.45	31	
333.1	123	
347.15	917	C13H27O5Si3+
372.95	43	
375.15	128	
403.05	35	
