Mass spectrum: Diallate; LC-ESI-QTOF; MS2; ESI; POSITIVE; [M+H]+; CE 30 V
Name: Diallate
Class: Non-natural product
Formula: C10H17Cl2NOS
Exact mass: 269.04079
SMILES: CC(C)N(C(=O)SCC(Cl)=CCl)C(C)C
InChI: InChI=1S/C10H17Cl2NOS/c1-7(2)13(8(3)4)10(14)15-6-9(12)5-11/h5,7-8H,6H2,1-4H3
Instrument: ExionLC AD, AB Sciex LLC, USA; X500R QTOF, AB Sciex LLC, USA.
Instrument type: LC-ESI-QTOF
Ms type: MS2
Ion mode: POSITIVE
Collision energy: 30 V
Ionization: ESI
Column name: AQ-C18HP 3 microm, 2.1 mm Ã— 150 mm, GL Science (Tokyo Japan)
Retention time: 15.4 min
Precursor m/z: 270.04806
Precursor type: [M+H]+
m/z	relative intensity
33.0337	46
41.039	150
43.0544	942
44.0137	53
46.9954	58
58.0656	33
80.9566	77
82.9451	71
86.0606	565
106.9724	351
108.9612	999
118.0328	48
128.1081	37
142.9489	437
153.0059	67
160.0799	44
