Mass spectrum: p-Cresol sulfate; ESI-QTOF; MS2; NEGATIVE; [M-H]-; CID; 50 V
Name: p-Cresol sulfate
Class: Non-natural product; Aryl sulfate
Formula: C7H8O4S
Exact mass: 188.01433
SMILES: CC1=CC=C(C=C1)OS(=O)(=O)O
InChI: InChI=1S/C7H8O4S/c1-6-2-4-7(5-3-6)11-12(8,9)10/h2-5H,1H3,(H,8,9,10)
Instrument: X500R QTOF (AB Sciex LLC, USA)
Instrument type: ESI-QTOF
Ms type: MS2
Ion mode: NEGATIVE
Collision energy: 50 V
Fragmentation mode: CID
Ionization: ESI
Precursor m/z: 187.0071
Precursor type: [M-H]-
m/z	relative intensity
77.0382	772
79.0546	125
79.9557	927
80.9646	96
92.0254	482
105.0329	851
106.0407	821
107.0483	999
123.0447	72
