Mass spectrum: (S)-Citronellyl benzyl ether; GC-EI-BE; MS; positive; EI; 70 V
Name: (S)-Citronellyl benzyl ether
Class: Non-natural product
Formula: C17H26O
Exact mass: 246.19837
SMILES: C[C@@H](CCC=C(C)C)CCOCC1=CC=CC=C1
InChI: InChI=1S/C17H26O/c1-15(2)8-7-9-16(3)12-13-18-14-17-10-5-4-6-11-17/h4-6,8,10-11,16H,7,9,12-14H2,1-3H3/t16-/m0/s1
Instrument: JMS-700V (JEOL, Akishima, Japan) coupled to Agilent 6890N (Agilent, Wilmington, USA) gas chromatograph.
Instrument type: GC-EI-BE
Ms type: MS
Ion mode: POSITIVE
Ionization: EI
Column name: DB-5MS 122-5532 US877814H (Agilent, Wilmington, USA), length 30.0 m, I.D. 0.25 mm, thickness 0.25 micrometer.
Retention time: 11.01 min
m/z	relative intensity
36	14
37	1
38	5
39	31
40	7
41	181
42	20
43	58
44	3
45	4
50	3
51	12
52	6
53	24
54	8
55	128
56	26
57	39
58	2
59	20
60	2
62	1
63	8
64	4
65	73
66	7
67	71
68	20
69	631
70	47
71	31
72	2
73	9
74	1
75	1
76	2
77	40
78	14
79	31
80	11
81	516
82	81
83	53
84	8
85	28
86	3
87	2
89	21
90	14
91	999
92	113
93	12
94	6
95	252
96	28
97	19
98	6
99	53
100	5
101	1
103	1
104	7
105	21
106	7
107	26
108	8
109	57
110	11
111	59
112	9
113	8
114	1
115	2
116	2
117	5
118	2
119	2
120	2
121	10
122	3
123	48
124	7
125	3
126	2
128	2
129	2
130	1
131	6
132	2
133	4
134	2
135	2
136	4
137	280
138	186
139	22
140	9
141	2
143	2
144	1
145	5
146	3
147	2
153	2
154	9
155	103
156	12
157	3
158	1
159	2
160	1
161	26
162	5
163	1
165	2
171	1
172	1
175	2
176	1
202	3
203	1
207	2
212	1
217	2
218	1
246	23
247	5
248	1
281	1
