Mass spectrum: 3-O-Acetyl-16alpha-hydroxytrametenolic acid; ESI-QTOF; MS2; POSITIVE; [M+H]+; CID; 60 V
Name: 3-O-Acetyl-16alpha-hydroxytrametenolic acid
Class: Non-natural product; Bile acid
Formula: C32H50O5
Exact mass: 514.36583
SMILES: CC(=CCC[C@H]([C@H]1[C@@H](C[C@@]2([C@@]1(CCC3=C2CCC4[C@@]3(CC[C@@H](C4(C)C)OC(=O)C)C)C)C)O)C(=O)O)C
InChI: InChI=1S/C32H50O5/c1-19(2)10-9-11-21(28(35)36)27-24(34)18-32(8)23-12-13-25-29(4,5)26(37-20(3)33)15-16-30(25,6)22(23)14-17-31(27,32)7/h10,21,24-27,34H,9,11-18H2,1-8H3,(H,35,36)/t21-,24-,25?,26+,27+,30-,31-,32+/m1/s1
Instrument: X500R QTOF (AB Sciex LLC, USA)
Instrument type: ESI-QTOF
Ms type: MS2
Ion mode: POSITIVE
Collision energy: 60 V
Fragmentation mode: CID
Ionization: ESI
Precursor m/z: 515.37310
Precursor type: [M+H]+
m/z	relative intensity
43.0548	17
55.0548	175
57.0705	54
65.0392	35
67.0548	292
69.0705	223
77.0392	166
79.0549	326
81.0705	466
83.0862	99
91.0548	470
93.0705	790
95.0861	603
97.1018	38
103.0548	30
105.0704	661
107.0860	992
109.1017	462
111.0809	50
115.0547	38
117.0704	173
119.0860	862
121.1016	844
123.0810	74
123.1173	199
125.0965	41
128.0625	69
129.0703	169
130.0782	45
131.0859	584
133.1015	549
135.1171	304
137.1330	34
141.0702	53
142.0780	100
143.0859	441
144.0937	107
145.1015	817
147.1171	370
149.1328	82
155.0859	125
156.0937	117
157.1014	574
158.1092	131
159.1171	831
161.1327	282
163.1484	75
169.1015	221
170.1093	76
171.1171	564
172.1250	75
173.1326	999
174.1405	62
175.1483	153
181.1014	51
182.1092	48
183.1170	254
184.1248	57
185.1327	467
186.1405	81
187.1483	464
189.1640	61
195.1170	79
196.1249	55
197.1326	336
198.1405	78
199.1483	390
201.1640	106
209.1327	71
210.1405	45
211.1482	291
212.1561	95
213.1639	344
214.1719	75
215.1796	86
223.1481	68
225.1639	268
226.1717	70
227.1796	191
229.1951	56
237.1638	124
239.1794	178
241.1951	109
251.1794	60
252.1872	110
253.1950	252
255.2107	67
265.1949	127
280.2183	131
281.2262	176
295.2416	295
