Mass spectrum: Citric acid-[5-13C]; GC-EI-QQ; MS2; POSITIVE; CID 10 V; 4 TBDMS-derivative; [M-291]+
Name: Citric acid-[5-13C]
Class: In vitro synthetic compound
Formula: C6H8O7
Exact mass: 192.02701
SMILES: OC(=O)CC(O)(CC(O)=O)C(O)=O
InChI: InChI=1S/C6H8O7/c7-3(8)1-6(13,5(11)12)2-4(9)10/h13H,1-2H2,(H,7,8)(H,9,10)(H,11,12)/i3+1
Instrument: GCMS-TQ8040 (Shimadzu, Kyoto, Japan)
Instrument type: GC-EI-QQ
Ms type: MS2
Ion mode: POSITIVE
Collision energy: 10 V
Fragmentation mode: CID
Column name: DB-5MS+DG (Agilent Technologies, Santa Clara, CA, USA)
Derivative form: C30H64O7Si4
Derivative mass: 648.37291
Derivative type: 4 TBDMS
Precursor m/z: 358.19510
m/z	relative intensity	assigned
73.1	999	
115.2	321	
147.1	14	
226.15	454	
244.15	22	
313.2	60	
313.9	24	
329.15	27	
342.3	25	
358.15	909	C16(13C)H33O4Si2+
