Mass spectrum: Methyl [(1R)-1,2-dimethyl-2,3-epoxycyclopent-1-yl]acetate; GC-EI-TOF; MS; positive; EI; 70 V
Name: Methyl [(1R)-1,2-dimethyl-2,3-epoxycyclopent-1-yl]acetate
Class: Non-natural product
Formula: C10H16O3
Exact mass: 184.10994
SMILES: CC12OC1CC[C@]2(C)CC(=O)OC
InChI: InChI=1S/C10H16O3/c1-9(6-8(11)12-3)5-4-7-10(9,2)13-7/h7H,4-6H2,1-3H3/t7?,9-,10?/m1/s1
Instrument: JMS-T100GCV (JEOL, Akishima, Japan) coupled to Agilent 7890A (Agilent, Wilmington, USA) gas chromatograph.
Instrument type: GC-EI-TOF
Ms type: MS
Ion mode: POSITIVE
Ionization: EI
Column name: HP-5 19091 J-413 USD364547H (Agilent, Wilmington, USA), length 30 m, I.D. 0.32 mm, thickness 0.25 micrometer.
Retention time: 7.19 min.
m/z	relative intensity
26.016	7
27.024	147
28.006	95
28.032	23
29.003	38
29.040	100
30.011	3
30.043	2
31.019	19
31.990	32
33.035	3
38.016	8
39.024	224
40.031	43
41.040	390
42.012	45
42.046	30
43.019	902
43.055	63
43.343	3
43.567	2
43.812	1
44.023	23
44.059	3
44.998	4
45.035	29
50.016	10
51.024	34
52.032	19
53.040	142
54.047	34
55.019	68
55.055	374
56.025	6
56.060	20
57.035	26
57.071	8
58.042	28
59.014	165
59.050	22
60.018	4
63.024	8
65.040	52
66.047	23
67.019	4
67.055	202
68.027	6
68.063	70
69.034	43
69.071	95
70.041	5
70.076	6
71.050	62
72.058	16
73.066	11
74.037	45
75.045	65
76.048	3
77.040	63
78.046	10
79.055	113
80.062	22
81.035	15
81.071	180
81.196	2
82.042	58
82.078	51
83.050	54
83.086	44
84.056	6
84.091	3
85.029	8
85.066	44
86.073	21
87.045	3
87.079	2
91.055	72
92.062	14
93.071	84
93.134	1
94.042	3
94.077	17
95.050	432
95.086	53
95.243	1
95.480	1
96.057	88
96.093	12
96.188	1
97.065	34
97.102	6
98.072	6
99.045	11
99.082	47
100.085	3
101.061	4
105.071	14
106.078	11
107.050	4
107.086	79
108.058	10
108.090	8
109.066	639
109.204	8
109.583	2
109.917	2
110.073	999
110.590	3
111.081	466
112.085	37
113.061	15
114.068	28
115.073	2
117.070	2
119.050	3
123.081	15
124.052	4
124.089	14
125.097	820
125.650	2
126.100	70
126.434	1
127.040	9
127.076	88
128.083	25
129.083	2
137.060	21
139.075	4
140.084	3
141.092	9
142.099	5
151.076	4
152.083	9
153.092	126
154.095	13
155.096	2
166.099	5
169.087	28
170.091	3
184.110	6
