Mass spectrum: Malic acid-[1,2,3,4-13C4]; GC-EI-QQ; MS2; POSITIVE; CID 5 V; 3 TBDMS-derivative; [M-159]+
Name: Malic acid-[1,2,3,4-13C4]
Class: In vitro synthetic compound
Formula: C4H6O5
Exact mass: 134.02153
SMILES: C(C(C(=O)O)O)C(=O)O
InChI: InChI=1S/C4H6O5/c5-2(4(8)9)1-3(6)7/h2,5H,1H2,(H,6,7)(H,8,9)/i1+1,2+1,3+1,4+1
Instrument: GCMS-TQ8040 (Shimadzu, Kyoto, Japan)
Instrument type: GC-EI-QQ
Ms type: MS2
Ion mode: POSITIVE
Collision energy: 5 V
Fragmentation mode: CID
Column name: DB-5MS+DG (Agilent Technologies, Santa Clara, CA, USA)
Derivative form: C22H48O5Si3
Derivative mass: 476.28096
Derivative type: 3 TBDMS
Precursor m/z: 320.20634
m/z	relative intensity	assigned
73.25	122	
73.95	12	
89.05	14	
115.1	999	
133	118	
144.9	25	
160.25	53	
188.15	27	
226.95	11	
233.05	23	
261.95	13	
264.1	14	
275.15	269	
276.3	97	
304.15	14	
320.1	525	C12(13C3)H33O3Si2+
