Mass spectrum: p-Cresol sulfate; ESI-QTOF; MS; NEGATIVE
Name: p-Cresol sulfate
Class: Non-natural product; Aryl sulfate
Formula: C7H8O4S
Exact mass: 188.01433
SMILES: CC1=CC=C(C=C1)OS(=O)(=O)O
InChI: InChI=1S/C7H8O4S/c1-6-2-4-7(5-3-6)11-12(8,9)10/h2-5H,1H3,(H,8,9,10)
Instrument: X500R QTOF (AB Sciex LLC, USA)
Instrument type: ESI-QTOF
Ms type: MS
Ion mode: NEGATIVE
Ionization: ESI
m/z	relative intensity
107.0499	94
187.0049	999
188.0095	95
189.0031	60
