Mass spectrum: Methyl [(1R)-1,2-dimethyl-3-oxocyclopentyl]acetate; GC-EI-TOF; MS; positive; EI; 70 V
Name: Methyl [(1R)-1,2-dimethyl-3-oxocyclopentyl]acetate
Class: Non-natural product
Formula: C10H16O3
Exact mass: 184.10994
SMILES: COC(=O)C[C@@]1(C)CCC(=O)C1C
InChI: InChI=1S/C10H16O3/c1-7-8(11)4-5-10(7,2)6-9(12)13-3/h7H,4-6H2,1-3H3/t7?,10-/m1/s1
Instrument: JMS-T100GCV (JEOL, Akishima, Japan) coupled to Agilent 7890A (Agilent, Wilmington, USA) gas chromatograph.
Instrument type: GC-EI-TOF
Ms type: MS
Ion mode: POSITIVE
Ionization: EI
Column name: HP-5 19091 J-413 USD364547H (Agilent, Wilmington, USA), length 30 m, I.D. 0.32 mm, thickness 0.25 micrometer.
Retention time: 7.7 min.
m/z	relative intensity
26.016	7
27.024	96
27.066	1
28.006	39
28.032	78
29.003	12
29.039	60
29.084	1
30.011	2
31.019	10
31.990	13
38.016	4
39.024	117
40.031	26
41.040	307
42.011	31
42.046	21
43.019	98
43.055	27
43.112	1
44.025	4
44.998	3
45.035	12
50.016	5
51.024	16
52.032	10
53.040	82
53.097	1
54.047	26
55.019	55
55.055	192
56.027	72
56.060	12
57.034	28
57.070	2
58.041	2
59.014	85
59.050	13
60.018	2
63.025	3
65.040	19
66.047	8
67.055	120
68.027	2
68.063	148
69.034	10
69.071	307
69.443	1
70.042	9
70.075	20
71.050	17
72.057	4
73.066	11
74.037	142
75.044	16
77.040	13
78.046	3
79.055	23
80.062	5
81.035	9
81.071	55
82.042	13
82.078	62
83.050	9
83.086	133
83.215	1
84.090	9
85.066	36
86.073	10
87.045	5
87.081	36
88.053	12
88.085	2
91.055	13
92.061	3
93.071	11
94.076	2
95.050	73
95.086	9
96.058	96
96.094	16
97.065	58
97.102	11
98.069	4
99.045	3
99.081	12
100.087	2
105.071	3
106.078	3
107.086	9
109.066	59
109.146	1
110.073	344
111.081	999
111.459	2
111.602	3
112.085	73
112.170	1
112.339	1
113.061	15
114.068	5
115.075	2
123.045	3
123.082	5
124.089	31
125.096	8
127.076	97
128.083	23
129.091	15
137.060	5
141.092	13
142.099	4
151.076	2
152.084	4
153.092	111
154.095	11
155.071	4
156.115	13
169.087	44
170.090	4
184.110	132
184.303	1
185.113	14
186.116	1
