Mass spectrum: EPTC; GC-EI-Q; MS; Positive
Name: EPTC
Name: S-Ethyl dipropylthiocarbamate
Class: Non-Natural Product; Pesticides
Formula: C9H19NOS
Exact mass: 189.11873
SMILES: CCCN(CCC)C(=O)SCC
InChI: InChI=1S/C9H19NOS/c1-4-7-10(8-5-2)9(11)12-6-3/h4-8H2,1-3H3
Instrument: GCMS-QP2010 Plus, Shimadzu
Instrument type: GC-EI-Q
Ms type: MS
Ion mode: POSITIVE
Ionization: EI
Column name: Ptx-5MS(RESTEK), 0.32 mm I.D. x 30 m, df=0.25 microm
Retention time: 5.05 min
m/z	relative intensity
40	8
41	198
42	95
43	999
44	48
45	7
47	10
56	22
58	39
59	7
60	4
61	15
62	17
70	42
71	5
72	22
75	42
84	6
86	395
87	19
89	96
90	13
100	22
104	7
128	575
129	47
132	132
133	10
134	6
160	39
161	5
189	94
190	11
