Mass spectrum: rac-(S)-1-((2R,5R)-5-(Hydroxymethyl)tetrahydrofuran-2-yl)but-3-en-2-ol; GC-EI-TOF; MS; POSITIVE; EI; 70 V
Name: rac-(S)-1-((2R,5R)-5-(Hydroxymethyl)tetrahydrofuran-2-yl)but-3-en-2-ol
Class: Non-natural compound
Formula: C9H16O3
Exact mass: 172.10995
SMILES: C=C[C@@H](O)C[C@H]1CC[C@H](CO)O1
InChI: InChI=1S/C9H16O3/c1-2-7(11)5-8-3-4-9(6-10)12-8/h2,7-11H,1,3-6H2/t7-,8-,9-/m1/s1
Instrument: JMS-T100GCV (JEOL, Akishima, Japan) coupled to Agilent 7890A gas chromatograph.
Instrument type: GC-EI-TOF
Ms type: MS
Ion mode: POSITIVE
Ionization: EI
Column name: ZB-1MS 7HM-G011-11 sn:313446, length 30.0 m, I.D. 0.32 mm, thickness 0.25 micrometer.
Retention time: 7.88 min.
m/z	relative intensity
26.015	5
27.023	99
28.006	28
28.031	31
29.002	87
29.039	129
29.08	2
30.009	3
30.043	3
31.018	141
31.063	2
31.99	3
32.023	3
39.023	83
40.03	13
41.039	202
41.091	2
42.01	16
42.046	28
43.018	151
43.055	40
43.108	1
44.026	43
44.058	2
45.034	37
47.013	3
51.023	8
52.031	5
53.039	46
54.047	53
55.018	134
55.054	218
56.026	39
56.061	30
57.034	999
57.07	53
57.407	3
57.662	2
57.91	1
57.951	1
58.039	45
58.074	3
59.049	22
60.021	3
61.029	13
65.039	13
66.046	8
67.054	157
67.119	2
68.026	9
68.061	25
69.034	145
69.07	15
70.041	34
70.076	3
71.013	2
71.049	111
71.117	1
72.054	7
73.028	3
73.065	9
74.036	5
77.039	22
78.045	4
79.054	151
79.127	2
80.061	50
81.034	15
81.07	30
82.041	9
82.075	2
83.049	106
83.122	1
84.056	16
85.028	3
85.065	97
85.138	1
86.069	6
87.044	773
87.505	2
87.822	1
88.048	35
88.154	1
89.049	4
91.055	10
93.07	25
94.075	4
95.049	14
95.086	85
95.166	1
96.057	12
96.089	7
97.065	14
98.073	39
99.044	7
99.077	3
100.052	4
101.06	142
102.063	8
103.057	2
105.07	23
114.068	18
115.074	4
116.084	20
117.056	2
123.081	33
124.086	4
141.092	150
142.096	15
143.083	2
154.099	8
