Mass spectrum: (R)-Citronellyl pivalate; GC-FI-TOF; MS; positive; FI; 10 kV
Name: (R)-Citronellyl pivalate
Class: Non-natural product
Formula: C15H28O2
Exact mass: 240.20893
SMILES: C\C(C)=C\CC[C@@H](C)CCOC(=O)C(C)(C)C
InChI: InChI=1S/C15H28O2/c1-12(2)8-7-9-13(3)10-11-17-14(16)15(4,5)6/h8,13H,7,9-11H2,1-6H3/t13-/m1/s1
Instrument: JMS-T100GCV (JEOL, Akishima, Japan) coupled to Agilent 7890A (Agilent, Wilmington, USA) gas chromatograph.
Instrument type: GC-FI-TOF
Ms type: MS
Ion mode: POSITIVE
Ionization: FI
Column name: HP-5 19091 J-413 USD364547H (Agilent, Wilmington, USA), length 30.0 m, I.D. 0.32 mm, thickness 0.25 micrometer.
Retention time: 8.37 min.
m/z	relative intensity
20.760	5
26.321	4
28.093	4
32.360	5
32.608	5
34.853	4
37.443	5
53.385	4
53.983	4
57.070	80
59.884	4
63.480	4
66.887	4
68.252	5
69.069	8
69.565	4
69.720	5
70.539	4
77.675	4
79.015	4
85.064	16
93.124	4
94.392	4
102.641	5
120.103	19
138.143	815
138.662	5
138.724	5
138.816	4
138.980	4
139.146	93
159.810	5
159.861	5
159.902	4
159.994	7
160.085	7
197.630	5
228.629	4
231.737	4
239.201	11
240.209	999
240.506	5
240.984	6
241.055	5
241.212	201
241.439	6
241.491	5
241.596	5
242.213	23
