Mass spectrum: trimethyl(2-methyl-3-(pentylthio)propyl)silane; GC-FI-TOF; MS; POSITIVE; FI; 10 kV
Name: trimethyl(2-methyl-3-(pentylthio)propyl)silane
Class: Non-natural compound
Formula: C12H28SSi
Exact mass: 232.1681
SMILES: CCCCCSCC(C)C[Si](C)(C)C
InChI: InChI=1S/C12H28SSi/c1-6-7-8-9-13-10-12(2)11-14(3,4)5/h12H,6-11H2,1-5H3
Instrument: JMS-T100GCV (JEOL, Akishima, Japan) coupled to Agilent 7890A gas chromatograph.
Instrument type: GC-FI-TOF
Ms type: MS
Ion mode: POSITIVE
Ionization: FI
Column name: HP-5 30x0.32 0.25um 19091J-413, length 30.0 m, I.D. 0.32 mm, thickness 0.25 micrometer.
Retention time: 8.27 min.
m/z	relative intensity
73.047	48
117.074	8
159.121	10
176.103	13
217.145	490
218.147	90
219.143	42
219.378	13
220.146	6
232.168	999
233.171	182
234.166	93
235.168	12
