Mass spectrum: Imazalil; GC-EI-Q; MS; Positive; M+*
Name: Imazalil
Class: Non-Natural Product; Pesticides
Formula: C14H14Cl2N2O
Exact mass: 296.04832
SMILES: Clc2ccc(C(OCC=C)Cn1ccnc1)c(Cl)c2
InChI: InChI=1S/C14H14Cl2N2O/c1-2-7-19-14(9-18-6-5-17-10-18)12-4-3-11(15)8-13(12)16/h2-6,8,10,14H,1,7,9H2
Instrument: GCMS-QP2010 Plus, Shimadzu
Instrument type: GC-EI-Q
Ms type: MS
Ion mode: POSITIVE
Ionization: EI
Column name: Ptx-5MS(RESTEK), 0.32 mm I.D. x 30 m, df=0.25 microm
Retention time: 12.9 min
Ion type: [M]+*
Precursor m/z: 296.0
m/z	relative intensity
40	8
41	999
42	23
43	39
44	23
46	9
47	7
49	5
50	7
52	18
53	13
54	55
55	19
57	7
59	7
63	11
67	13
68	13
69	19
70	8
74	20
75	49
76	21
78	11
79	5
81	92
82	19
84	15
86	9
87	11
89	30
98	10
101	29
102	35
103	12
107	9
108	7
109	31
111	21
112	11
113	15
114	9
115	31
116	13
121	5
123	13
125	14
126	6
127	5
135	5
136	23
137	45
138	14
139	30
140	13
145	17
146	11
147	9
149	19
151	7
152	7
155	7
159	50
161	45
162	7
163	16
164	7
165	7
168	8
171	11
172	48
173	155
174	70
175	144
176	25
177	17
179	8
203	5
204	5
207	9
212	5
215	207
216	31
217	143
218	16
219	31
240	15
241	6
242	20
261	6
267	5
296	9
300	5
328	5
333	7
489	5
492	5
495	17
