Mass spectrum: (R)-Citronellyl benzyl ether; GC-EI-BE; MS; positive; EI; 70 V
Name: (R)-Citronellyl benzyl ether
Class: Non-natural product
Formula: C17H26O
Exact mass: 246.19837
SMILES: C[C@H](CCC=C(C)C)CCOCC1=CC=CC=C1
InChI: InChI=1S/C17H26O/c1-15(2)8-7-9-16(3)12-13-18-14-17-10-5-4-6-11-17/h4-6,8,10-11,16H,7,9,12-14H2,1-3H3/t16-/m1/s1
Instrument: JMS-700V (JEOL, Akishima, Japan) coupled to Agilent 6890N (Agilent, Wilmington, USA) gas chromatograph.
Instrument type: GC-EI-BE
Ms type: MS
Ion mode: POSITIVE
Ionization: EI
Column name: DB-5MS 122-5532 US877814H (Agilent, Wilmington, USA), length 30.0 m, I.D. 0.25 mm, thickness 0.25 micrometer.
Retention time: 11.03 min
m/z	relative intensity
36	12
37	1
38	5
39	35
40	7
41	203
42	20
43	61
44	2
45	5
50	2
51	13
52	6
53	24
54	8
55	136
56	28
57	39
58	2
59	21
60	1
62	1
63	9
64	4
65	71
66	7
67	73
68	22
69	676
70	48
71	29
72	3
73	9
74	1
75	1
76	2
77	40
78	12
79	32
80	11
81	482
82	83
83	54
84	6
85	27
86	3
87	1
89	16
90	13
91	999
92	113
93	14
94	7
95	254
96	25
97	18
98	6
99	50
100	4
101	1
103	1
104	6
105	21
106	8
107	26
108	11
109	55
110	10
111	48
112	7
113	6
114	1
115	1
116	1
117	3
118	2
119	3
120	1
121	11
122	2
123	48
124	6
125	2
126	3
127	1
128	1
129	2
130	1
131	6
132	2
133	3
134	2
135	2
136	3
137	246
138	162
139	20
140	8
141	2
143	2
144	1
145	4
146	2
147	2
153	2
154	9
155	86
156	10
157	2
159	2
161	25
162	4
163	1
171	1
172	1
175	1
176	1
202	3
203	1
207	1
217	2
246	15
247	3
270	1
