Mass spectrum: Isoproturon; GC-EI-Q; MS; Positive; M+*
Name: Isoproturon
Class: Non-Natural Product; Pesticides
Formula: C12H18N2O
Exact mass: 206.14191
SMILES: CN(C)C(=O)Nc(c1)ccc(C(C)C)c1
InChI: InChI=1S/C12H18N2O/c1-9(2)10-5-7-11(8-6-10)13-12(15)14(3)4/h5-9H,1-4H3,(H,13,15)
Instrument: GCMS-QP2010 Plus, Shimadzu
Instrument type: GC-EI-Q
Ms type: MS
Ion mode: POSITIVE
Ionization: EI
Column name: Ptx-5MS(RESTEK), 0.32 mm I.D. x 30 m, df=0.25 microm
Retention time: 9.6 min
Ion type: [M]+*
Precursor m/z: 206.1
m/z	relative intensity
40	8
41	64
42	49
43	31
44	185
45	116
46	17
50	11
51	39
52	19
56	13
58	18
59	5
62	11
63	38
64	29
65	43
72	740
73	49
77	123
78	31
79	20
88	8
89	36
90	33
91	134
92	28
93	6
101	9
102	14
103	51
104	18
105	10
115	7
116	35
117	51
118	75
119	34
120	37
121	39
122	5
128	402
129	44
130	11
132	32
133	14
134	22
135	7
136	9
144	11
145	18
146	999
147	100
148	21
159	19
160	13
161	277
162	40
163	14
171	16
175	5
180	10
191	128
192	24
206	226
207	23
