Mass spectrum: Lufenuron; LC-ESI-QTOF; MS; ESI; NEGATIVE
Name: Lufenuron
Class: Non-natural product
Formula: C17H8Cl2F8N2O3
Exact mass: 509.97842
SMILES: O=C(NC(=O)c1c(F)cccc1F)Nc1cc(Cl)c(OC(F)(F)C(F)C(F)(F)F)cc1Cl
InChI: InChI=1S/C17H8Cl2F8N2O3/c18-6-5-11(32-17(26,27)14(22)16(23,24)25)7(19)4-10(6)28-15(31)29-13(30)12-8(20)2-1-3-9(12)21/h1-5,14H,(H2,28,29,30,31)
Instrument: ExionLC AD, AB Sciex LLC, USA; X500R QTOF, AB Sciex LLC, USA.
Instrument type: LC-ESI-QTOF
Ms type: MS
Ion mode: NEGATIVE
Ionization: ESI
Column name: AQ-C18HP 3 microm, 2.1 mm Ã— 150 mm, GL Science (Tokyo Japan)
Retention time: 15.4 min
m/z	relative intensity
508.9712	999
509.9749	176
510.9692	630
511.9718	106
512.9668	109
