Mass spectrum: 2-(4-Methylphenyl)ethylamine; LC-ESI-QQ; MS2; POSITIVE; [M+H-NH3]+; CID; 10 V
Name: 2-(4-Methylphenyl)ethylamine
Class: Non-natural product; Phenethylamine
Formula: C9H13N
Exact mass: 135.10480
SMILES: CC1=CC=C(C=C1)CCN
InChI: InChI=1S/C9H13N/c1-8-2-4-9(5-3-8)6-7-10/h2-5H,6-7,10H2,1H3
Instrument: Xevo TQS micro (Waters, MA, USA) coupled to ACQUITY UPLC H-Class (Waters, MA, USA)
Instrument type: LC-ESI-QQ
Ms type: MS2
Ion mode: POSITIVE
Collision energy: 10 V
Fragmentation mode: CID
Ionization: ESI
Column name: Acquity UPLC BEH AMIDE column (1.7 Âµm, 2.1 x 150 mm; Waters, MA, USA)
Precursor m/z: 119.0855
Precursor type: [M+H-NH3]+
m/z	relative intensity
90.7	129
90.9	149
91.1	117
117.0	120
119.0	999
119.3	465
