Mass spectrum: N-Methyl-beta-alanine; GC-FI-TOF; MS; POSITIVE; FI; 10 kV; 2TMS
Name: N-Methyl-beta-alanine
Class: Non-natural compound
Formula: C4H9NO2
Exact mass: 103.0633285
SMILES: CNCCC(=O)O
InChI: InChI=1S/C4H9NO2/c1-5-3-2-4(6)7/h5H,2-3H2,1H3,(H,6,7)
Instrument: JMS-T100GCV (JEOL, Akishima, Japan) coupled to Agilent 7890A (Santa Clara, CA, USA) gas chromatograph.
Instrument type: GC-FI-TOF
Ms type: MS
Ion mode: POSITIVE
Ionization: FI
Column name: DB-5MS UI 122-5532UI US0462866H (Agilent, Wilmington, USA) with the length 30 m, I.D. 0.25 mm, and thickness 0.25 micrometer.
Retention time: 7.77 min.
Derivative form: C10H25NO2Si2
Derivative mass: 247.14238
Derivative type: 2TMS
m/z	relative intensity
232.12	91
233.121	18
234.118	8
247.142	999
248.144	213
249.141	89
250.142	13
