Mass spectrum: Peridinin; LC-ESI-QTOF; MS2; POSITIVE; ESI; [M+Na]+; CE 20 V.
Name: Peridininol
Class: Natural product; carotenoids; xanthophyll
Formula: C37H48O6
Exact mass: 588.3451
SMILES: C/C(=C\C=C\C=C\C=C(/C)\C=C/1\C=C(C(=O)O1)/C=C/[C@]23[C@](O2)(C[C@H](CC3(C)C)O)C)/C=C=C4[C@](C[C@H](CC4(C)C)O)(C)O
InChI: InChI=1S/C37H48O6/c1-25(15-16-31-33(3,4)21-28(38)23-35(31,7)41)13-11-9-10-12-14-26(2)19-30-20-27(32(40)42-30)17-18-37-34(5,6)22-29(39)24-36(37,8)43-37/h9-15,17-20,28-29,38-39,41H,21-24H2,1-8H3/b11-9+,12-10+,18-17+,25-13+,26-14+,30-19-/t16?,28-,29-,35+,36+,37-/m0/s1
Instrument: Xevo G2-S QtOF, Waters (USA) coupled to ACQUITY UPLC, Waters (USA).
Instrument type: LC-ESI-QTOF
Ms type: MS2
Ion mode: POSITIVE
Collision energy: 20 V
Ionization: ESI
Column name: BEH C18, I.D. 2.1 mm, length 100 mm, thickness 1.7 micrometer.
Ion type: [M+Na]+
Precursor m/z: 611.3343
m/z	relative intensity
520.268	10
548.971	10
550.333	14
566.353	13
567.34	15
593.323	45
593.355	11
594.32	14
611.336	999
612.341	283
613.342	30
613.369	18
