Mass spectrum: (2S,3R)-(+)-Methyl syn-2,3-dihydroxyoctanoate; GC-EI-TOF; MS; positive; EI; 70 V
Name: (2S,3R)-(+)-Methyl syn-2,3-dihydroxyoctanoate
Class: Non-natural compound
Formula: C9H18O4
Exact mass: 190.12051
SMILES: O[C@H](CCCCC)[C@H](O)C(=O)OC
InChI: InChI=1S/C9H18O4/c1-3-4-5-6-7(10)8(11)9(12)13-2/h7-8,10-11H,3-6H2,1-2H3/t7-,8+/m1/s1
Instrument: JMS-T100GCV (JEOL, Akishima, Japan) coupled to Agilent 7890A (Agilent, Wilmington, USA) gas chromatograph.
Instrument type: GC-EI-TOF
Ms type: MS
Ion mode: POSITIVE
Ionization: EI
Column name: HP-5 19091 J-413 USD364547H (Agilent, Wilmington, USA), length 30 m, I.D. 0.32 mm, thickness 0.25 micrometer.
Retention time: 7.54 min.
m/z	relative intensity
26.016	3
27.024	67
28.006	4
28.032	13
29.003	64
29.04	107
29.115	1
29.268	1
30.011	11
30.044	3
31.019	51
31.059	1
31.99	2
32.027	3
33.035	101
33.083	1
39.024	40
40.031	6
41.04	140
41.091	2
41.126	1
42.011	20
42.046	12
43.019	40
43.055	65
43.091	1
44.027	24
44.059	2
44.998	4
45.034	24
47.014	5
51.024	2
53.04	10
54.047	3
55.019	13
55.055	146
55.117	2
56.026	5
56.061	12
57.034	40
57.071	15
58.006	27
58.041	3
58.074	1
59.014	35
59.05	5
60.022	39
61.029	8
62.037	8
63.045	9
65.039	2
67.055	8
68.062	2
68.999	2
69.034	3
69.071	18
70.075	2
71.014	4
71.05	4
71.086	3
73.029	12
73.064	1
74.037	3
75.009	33
77.04	1
79.055	2
81.071	3
83.051	4
83.086	59
83.162	1
84.089	4
87.046	3
89.025	3
90.032	999
90.109	10
90.372	2
90.5	3
90.816	2
91.036	41
91.111	2
91.542	1
91.86	1
92.037	6
92.208	1
93.071	3
95.086	19
96.089	2
97.065	2
99.044	2
101.022	1
101.061	1
101.097	16
102.1	1
103.039	1
111.043	1
113.097	3
116.05	2
119.035	17
131.107	19
132.112	2
146.038	1
