Mass spectrum: Soyasaponin I; ESI-QTOF; MS2; NEGATIVE; [M-H]-; CID; 70 V
Name: Soyasaponin I
Class: Triterpenoid saponin
Formula: C48H78O18
Exact mass: 942.51882
SMILES: C[C@H]1[C@@H]([C@H]([C@H]([C@@H](O1)O[C@@H]2[C@H]([C@H]([C@H](O[C@H]2O[C@@H]3[C@H]([C@@H]([C@H](O[C@H]3O[C@H]4CC[C@]5([C@H]([C@@]4(C)CO)CC[C@@]6([C@@H]5CC=C7[C@]6(CC[C@@]8([C@H]7CC(C[C@H]8O)(C)C)C)C)C)C)C(=O)O)O)O)CO)O)O)O)O)O
InChI: InChI=1S/C48H78O18/c1-21-29(52)31(54)35(58)40(61-21)65-37-32(55)30(53)24(19-49)62-41(37)66-38-34(57)33(56)36(39(59)60)64-42(38)63-28-12-13-45(5)25(46(28,6)20-50)11-14-48(8)26(45)10-9-22-23-17-43(2,3)18-27(51)44(23,4)15-16-47(22,48)7/h9,21,23-38,40-42,49-58H,10-20H2,1-8H3,(H,59,60)/t21-,23-,24+,25+,26+,27+,28-,29-,30-,31+,32-,33-,34-,35+,36-,37+,38+,40-,41-,42+,44+,45-,46+,47+,48+/m0/s1
Instrument: X500R QTOF (AB Sciex LLC, USA)
Instrument type: ESI-QTOF
Ms type: MS2
Ion mode: NEGATIVE
Collision energy: 70 V
Fragmentation mode: CID
Ionization: ESI
Precursor m/z: 941.51154
Precursor type: [M-H]-
m/z	relative intensity	assigned
59.0131	14	[C2H6O2-3H]-
71.0131	7	
75.0079	7	
85.0287	41	[C4H10O2-5H]-
87.0079	11	
89.0236	37	[C3H8O3-3H]-
95.0129	14	
99.0078	35	[C4H10O3-7H]-
101.0235	50	[C4H10O3-5H]-
103.0391	33	[C4H10O3-3H]-
113.0234	66	[C5H12O3-7H]-
115.039	32	[C5H12O3-5H]-
119.034	46	[C4H10O4-3H]-
131.0339	36	[C5H10O4-3H]-
139.0026	21	
143.0338	69	[C6H12O4-5H]-
145.0495	12	
157.013	26	[C6H10O5-5H]-
161.0443	30	[C6H12O5-3H]-
163.0599	69	[C6H12O5-H]-
205.0703	114	[C8H16O6-3H]-
247.0808	19	[C10H18O7-3H]-
437.3402	22	
457.3664	65	[C30H50O3-H]-
615.3874	107	[C36H58O8-3H]-
733.4499	46	[C41H68O11-3H]-
941.5071	999	[C48H78O18-H]-
