Mass spectrum: Betaine; ESI-QTOF; MS2; POSITIVE; [M+H]+; CID; 30 V
Name: Betaine
Class: Glycine derivative
Formula: C5H11NO2
Exact mass: 117.07898
SMILES: C[N+](C)(C)CC(=O)[O-]
InChI: InChI=1S/C5H11NO2/c1-6(2,3)4-5(7)8/h4H2,1-3H3
Instrument: X500R QTOF (AB Sciex LLC, USA)
Instrument type: ESI-QTOF
Ms type: MS2
Ion mode: POSITIVE
Collision energy: 30 V
Fragmentation mode: CID
Ionization: ESI
Precursor m/z: 118.08625
Precursor type: [M+H]+
m/z	relative intensity	assigned
58.0651	999	[C3H10N-2H]+
59.073	403	
