Mass spectrum: Genistin; ESI-QTOF; MS2; POSITIVE; [M+H]+; CID; 50 V
Name: Genistin
Class: 7-hydroxyisoflavone
Formula: C21H20O10
Exact mass: 432.10565
SMILES: C1=CC(=CC=C1C2=COC3=CC(=CC(=C3C2=O)O)O[C@H]4[C@@H]([C@H]([C@@H]([C@H](O4)CO)O)O)O)O
InChI: InChI=1S/C21H20O10/c22-7-15-18(26)19(27)20(28)21(31-15)30-11-5-13(24)16-14(6-11)29-8-12(17(16)25)9-1-3-10(23)4-2-9/h1-6,8,15,18-24,26-28H,7H2/t15-,18-,19+,20-,21-/m1/s1
Instrument: X500R QTOF (AB Sciex LLC, USA)
Instrument type: ESI-QTOF
Ms type: MS2
Ion mode: POSITIVE
Collision energy: 50 V
Fragmentation mode: CID
Ionization: ESI
Precursor m/z: 433.11293
Precursor type: [M+H]+
m/z	relative intensity
91.0542	150
145.0285	185
149.0234	323
153.0182	934
215.0705	999
243.0656	770
253.0501	364
