Mass spectrum: (R)-Citronellyl pivalate; GC-EI-TOF; MS; positive; EI; 70 V
Name: (R)-Citronellyl pivalate
Class: Non-natural product
Formula: C15H28O2
Exact mass: 240.20893
SMILES: C\C(C)=C\CC[C@@H](C)CCOC(=O)C(C)(C)C
InChI: InChI=1S/C15H28O2/c1-12(2)8-7-9-13(3)10-11-17-14(16)15(4,5)6/h8,13H,7,9-11H2,1-6H3/t13-/m1/s1
Instrument: JMS-T100GCV (JEOL, Akishima, Japan) coupled to Agilent 7890A (Agilent, Wilmington, USA) gas chromatograph.
Instrument type: GC-EI-TOF
Ms type: MS
Ion mode: POSITIVE
Ionization: EI
Column name: HP-5 19091 J-413 USD364547H (Agilent, Wilmington, USA), length 30 m, I.D. 0.32 mm, thickness 0.25 micrometer.
Retention time: 9.04 min.
m/z	relative intensity
27.023	54
28.006	18
28.031	15
29.039	156
29.083	2
30.043	3
31.018	5
31.990	6
35.977	3
38.016	3
39.024	113
39.073	1
40.031	26
41.039	768
41.064	6
41.092	7
41.164	1
41.323	2
41.355	2
41.580	1
42.046	79
42.088	1
43.019	10
43.055	77
43.990	6
45.034	4
50.016	3
51.024	9
52.031	5
53.039	75
54.047	30
55.055	335
55.115	3
56.062	113
56.123	1
57.034	3
57.070	999
57.132	9
57.443	3
57.700	2
57.973	1
58.040	1
58.074	44
59.050	10
65.039	15
66.047	9
67.055	492
67.119	5
67.417	1
68.062	264
68.127	3
68.176	1
69.034	14
69.070	782
69.138	7
69.233	1
69.434	2
69.481	2
69.757	1
70.042	12
70.076	81
71.050	12
71.085	9
73.048	7
77.039	14
78.046	4
79.055	35
80.063	72
81.070	944
81.144	9
81.514	2
81.819	2
82.078	714
82.150	8
82.527	3
82.835	2
83.050	3
83.085	177
83.514	2
84.090	12
85.065	81
85.101	2
86.069	5
87.045	5
91.055	12
93.071	19
94.078	60
95.086	864
95.166	8
95.567	2
95.897	2
96.092	181
96.174	2
97.100	27
98.105	2
99.081	6
103.076	43
104.079	2
105.071	3
107.086	8
108.094	4
109.102	330
110.108	69
111.115	11
121.102	10
123.117	742
123.334	2
123.665	2
124.121	75
125.125	3
135.063	13
137.133	18
138.141	357
139.144	40
140.149	2
155.144	3
156.007	3
195.062	2
197.078	4
207.033	2
