Mass spectrum: Dimethametryn; ESI-QTOF; MS; POSITIVE
Name: Dimethametryn
Class: Non-natural product
Formula: C11H21N5S
Exact mass: 255.1517
SMILES: CSc1nc(NCC)nc(NC(C)C(C)C)n1
InChI: InChI=1S/C11H21N5S/c1-6-12-9-14-10(13-8(4)7(2)3)16-11(15-9)17-5/h7-8H,6H2,1-5H3,(H2,12,13,14,15,16)
Instrument: X500R QTOF (AB Sciex LLC, USA)
Instrument type: ESI-QTOF
Ms type: MS
Ion mode: POSITIVE
Ionization: ESI
m/z	relative intensity
121.1013	44
161.0601	48
179.0706	74
256.1587	999
257.1622	142
