Mass spectrum: Pyraclonil; ESI-QTOF; MS2; POSITIVE; [M+H]+; CID; 20 V
Name: Pyraclonil
Class: Non-natural product
Formula: C15H15ClN6
Exact mass: 314.1047
SMILES: CN(CC#C)C1=C(C=NN1C2=NN3CCCCC3=C2Cl)C#N
InChI: InChI=1S/C15H15ClN6/c1-3-7-20(2)15-11(9-17)10-18-22(15)14-13(16)12-6-4-5-8-21(12)19-14/h1,10H,4-8H2,2H3
Instrument: X500R QTOF (AB Sciex Pte. Ltd, USA)
Instrument type: ESI-QTOF
Ms type: MS2
Ion mode: POSITIVE
Collision energy: 20 V
Fragmentation mode: CID
Ionization: ESI
Precursor m/z: 315.1119
Precursor type: [M+H]+
m/z	relative intensity
144.0559	10
169.0529	124
240.1123	26
241.12	82
250.0859	56
275.0812	21
276.0889	150
279.1357	61
280.1435	30
288.1015	36
315.1114	999
