Mass spectrum: 6-((4-Methoxybenzyl)oxy)-7,7-dimethylcyclohept-3-en-1-one; GC-EI-TOF; MS; positive; EI; 70 V
Name: 6-((4-Methoxybenzyl)oxy)-7,7-dimethylcyclohept-3-en-1-one
Class: Non-natural product
Formula: C17H22O3
Exact mass: 274.15690
SMILES: COC1=CC=C(COC2CC=CCC(=O)C2(C)C)C=C1
InChI: InChI=1S/C17H22O3/c1-17(2)15(18)6-4-5-7-16(17)20-12-13-8-10-14(19-3)11-9-13/h4-5,8-11,16H,6-7,12H2,1-3H3
Instrument: JMS-T100GCV (JEOL, Akishima, Japan) coupled to Agilent 7890A (Agilent, Wilmington, USA) gas chromatograph.
Instrument type: GC-EI-TOF
Ms type: MS
Ion mode: POSITIVE
Ionization: EI
Column name: HP-5 19091 J-413 USD364547H (Agilent, Wilmington, USA), length 30 m, I.D. 0.32 mm, thickness 0.25 micrometer.
Retention time: 10.89 min.
m/z	relative intensity
27.024	15
28.006	44
28.031	3
29.003	3
29.040	6
31.990	16
39.024	21
40.031	3
41.040	35
42.047	8
43.019	4
43.055	22
51.024	10
52.032	9
53.040	14
54.047	12
55.019	3
55.055	9
63.024	4
64.032	3
65.040	13
66.047	5
67.055	12
69.071	10
70.042	5
71.049	3
77.040	47
78.048	47
79.054	10
81.034	3
81.071	4
83.050	5
89.040	11
90.047	11
91.055	27
92.027	3
92.060	2
93.071	5
94.043	4
95.050	3
105.035	2
106.043	7
107.050	6
109.065	4
109.102	2
121.065	999
121.459	2
121.612	3
122.069	86
122.413	2
123.075	6
135.045	8
136.052	10
137.060	48
138.064	5
138.104	7
186.105	3
188.085	3
189.092	3
274.156	27
275.159	5
