Mass spectrum: N-Methyl-beta-alanine; GC-EI-TOF; MS; POSITIVE; EI; 70 V; TBDMS
Name: N-Methyl-beta-alanine
Class: Non-natural compound
Formula: C4H9NO2
Exact mass: 103.0633285
SMILES: CNCCC(=O)O
InChI: InChI=1S/C4H9NO2/c1-5-3-2-4(6)7/h5H,2-3H2,1H3,(H,6,7)
Instrument: JMS-T100GCV (JEOL, Akishima, Japan) coupled to Agilent 7890A (Santa Clara, CA, USA) gas chromatograph.
Instrument type: GC-EI-TOF
Ms type: MS
Ion mode: POSITIVE
Ionization: EI
Column name: DB-5MS UI 122-5532UI US0462866H (Agilent, Wilmington, USA) with the length 30 m, I.D. 0.25 mm, and thickness 0.25 micrometer.
Retention time: 7.92 min.
Derivative form: C10H23NO2Si
Derivative mass: 217.1498
Derivative type: TBDMS
m/z	relative intensity
27.024	12
28.019	17
28.985	3
29.039	27
30.035	17
31.0	3
39.024	9
41.039	31
42.035	44
43.001	17
43.042	16
44.007	3
44.05	999
44.377	3
44.601	2
44.853	1
44.98	32
45.016	15
45.053	26
46.995	35
55.018	11
55.054	3
56.051	13
57.017	3
57.059	34
58.024	15
58.066	26
58.995	5
59.032	27
59.069	1
60.003	7
60.032	2
61.011	17
72.04	10
73.047	114
74.019	10
74.048	10
75.027	370
75.408	1
75.453	1
76.027	27
76.095	1
77.024	14
84.045	16
85.048	3
86.056	3
88.034	4
89.04	1
99.063	5
100.06	2
101.006	10
101.044	2
102.012	2
102.049	1
103.02	2
115.094	8
116.029	14
117.037	832
117.572	2
118.039	79
118.333	1
119.035	33
119.125	1
120.038	2
129.037	7
130.043	3
131.052	3
158.064	2
159.084	26
160.079	142
161.082	24
162.079	6
202.127	3
217.149	10
218.152	2
