Mass spectrum: Malic acid-[1-13C]; GC-EI-QQ; MS2; POSITIVE; CID 5 V; 3 TBDMS-derivative; [M-57]+
Name: Malic acid-[1-13C]
Class: in Vitro synthetic compound
Formula: C4H6O5
Exact mass: 134.02153
SMILES: C(C(C(=O)O)O)C(=O)O
InChI: InChI=1S/C4H6O5/c5-2(4(8)9)1-3(6)7/h2,5H,1H2,(H,6,7)(H,8,9)/i4+1
Instrument: GCMS-TQ8040 (Shimadzu, Kyoto, Japan)
Instrument type: GC-EI-QQ
Ms type: MS2
Ion mode: POSITIVE
Collision energy: 5 V
Fragmentation mode: CID
Column name: DB-5MS+DG (Agilent Technologies, Santa Clara, CA, USA)
Derivative form: C22H48O5Si3
Derivative mass: 476.28095
Derivative type: 3 TBDMS
Precursor m/z: 420.21334
m/z	relative intensity	assigned
55.9	62	
73.1	141	
115.1	999	
116.1	41	
147.05	265	
148.1	12	
149.1	10	
171.95	60	
189.15	649	
203.1	19	
214.1	16	
216.95	109	
288	35	
347.35	112	
349.45	68	C15H37O3Si3+
391.25	155	C17H39O4Si3+
404.25	148	
420.25	282	
421.2	21	
