Mass spectrum: Citric acid-[1,5-13C2]; GC-EI-QQ; MS2; POSITIVE; CID 10 V; 4 TBDMS-derivative; [M-189]+
Name: Citric acid-[1,5-13C2]
Class: In vitro synthetic compound
Formula: C6H8O7
Exact mass: 192.02701
SMILES: OC(=O)CC(O)(CC(O)=O)C(O)=O
InChI: InChI=1S/C6H8O7/c7-3(8)1-6(13,5(11)12)2-4(9)10/h13H,1-2H2,(H,7,8)(H,9,10)(H,11,12)/i3+1,4+1
Instrument: GCMS-TQ8040 (Shimadzu, Kyoto, Japan)
Instrument type: GC-EI-QQ
Ms type: MS2
Ion mode: POSITIVE
Collision energy: 10 V
Fragmentation mode: CID
Column name: DB-5MS+DG (Agilent Technologies, Santa Clara, CA, USA)
Derivative form: C30H64O7Si4
Derivative mass: 648.37291
Derivative type: 4 TBDMS
Precursor m/z: 461.21160
m/z	relative intensity
68.05	37
73.1	707
115.15	367
147.15	999
149.1	14
189.1	174
220.9	15
255.2	256
258.65	11
329.25	87
331.05	20
388.15	101
460.25	12
461.25	238
