Mass spectrum: 1,6-Di(Cyanoguanidino)hexane; ESI-QTOF; MS2; ESI; NEGATIVE; [M-H]-; CE 40 V
Name: 1,6-Di(Cyanoguanidino)hexane
Class: Non-natural product
Formula: C10H18N8
Exact mass: 250.16541
SMILES: N#CNC(=N)NCCCCCCNC(=N)NC#N
InChI: InChI=1S/C10H18N8/c11-7-17-9(13)15-5-3-1-2-4-6-16-10(14)18-8-12/h1-6H2,(H3,13,15,17)(H3,14,16,18)
Instrument: X500R QTOF (AB Sciex LLC, USA)
Instrument type: ESI-QTOF
Ms type: MS2
Ion mode: NEGATIVE
Collision energy: 40 V
Ionization: ESI
Precursor m/z: 249.15813
Precursor type: [M-H]-
m/z	relative intensity
41.0146	999
66.0099	62
123.0928	116
