Mass spectrum: (3RS,6R)-8-Benzyloxy-2,6-dimethyloctane-2,3-diol; GC-FI-TOF; MS; positive; FI; 10 kV
Name: (3RS,6R)-8-Benzyloxy-2,6-dimethyloctane-2,3-diol
Class: Non-natural product
Formula: C17H28O3
Exact mass: 280.20385
SMILES: CC(C)(O)C(O)CC[C@@H](C)CCOCC1=CC=CC=C1
InChI: InChI=1S/C17H28O3/c1-14(9-10-16(18)17(2,3)19)11-12-20-13-15-7-5-4-6-8-15/h4-8,14,16,18-19H,9-13H2,1-3H3/t14-,16?/m1/s1
Instrument: JMS-T100GCV (JEOL, Akishima, Japan) coupled to Agilent 7890A (Agilent, Wilmington, USA) gas chromatograph.
Instrument type: GC-FI-TOF
Ms type: MS
Ion mode: POSITIVE
Ionization: FI
Column name: HP-5 19091 J-413 USD364547H (Agilent, Wilmington, USA), length 30.0 m, I.D. 0.32 mm, thickness 0.25 micrometer.
Retention time: 10.5 min.
m/z	relative intensity
31.018	3
44.026	4
57.034	3
58.042	24
59.050	999
59.325	2
59.432	3
59.685	2
59.919	1
59.966	1
60.005	1
60.053	34
89.060	12
91.055	66
91.111	1
92.059	7
101.572	11
110.577	36
111.080	8
113.098	6
131.099	14
131.599	10
132.101	2
132.589	3
138.143	5
140.105	2
154.140	4
155.145	38
156.154	45
157.157	7
171.140	11
173.155	2
186.143	3
191.146	3
219.139	7
220.146	5
221.153	228
222.158	42
222.320	1
223.161	4
226.174	2
244.181	42
245.187	8
246.862	2
247.168	6
248.180	2
262.192	975
262.955	4
263.196	195
264.200	24
264.886	7
265.185	3
265.893	1
279.198	31
280.204	139
281.212	76
282.215	14
283.217	2
336.214	1
