Mass spectrum: L-Arginine; ESI-QTOF; MS; POSITIVE
Name: L-Arginine
Class: L-alpha-Amino acid
Formula: C6H14N4O2
Exact mass: 174.11166
SMILES: C(C[C@@H](C(=O)O)N)CN=C(N)N
InChI: InChI=1S/C6H14N4O2/c7-4(5(11)12)2-1-3-10-6(8)9/h4H,1-3,7H2,(H,11,12)(H4,8,9,10)/t4-/m0/s1
Instrument: X500R QTOF (AB Sciex LLC, USA)
Instrument type: ESI-QTOF
Ms type: MS
Ion mode: POSITIVE
Ionization: ESI
m/z	relative intensity
175.1198	999
176.1236	38
