Mass spectrum: alpha-Thioglycerol; FAB-BE; MS; Negative; Matrix alpha-Thioglycerol
Name: alpha-Thioglycerol
Name: 3-Mercapto-1,2-propanediol
Class: Non-Natural Product
Formula: C3H8O2S
Exact mass: 108.02450
SMILES: OCC(O)CS
InChI: InChI=1S/C3H8O2S/c4-1-3(5)2-6/h3-6H,1-2H2
Instrument: JMS-700, JEOL
Instrument type: FAB-BE
Ms type: MS
Ion mode: NEGATIVE
Ionization: FAB
m/z	relative intensity
17	7
25	8
32	36
33	107
35	8
43	25
45	4
46	15
47	10
57	15
58	7
59	22
61	9
64	41
65	26
70	5
71	21
73	9
74	23
75	41
76	4
77	12
78	8
79	4
80	7
86	5
87	52
88	34
89	83
90	9
91	12
96	6
103	23
104	24
105	69
106	39
107	999
108	43
109	50
119	5
120	6
121	8
123	14
137	9
139	170
140	11
141	16
153	9
155	24
163	4
165	6
171	8
178	5
179	28
180	5
181	10
195	13
197	98
198	10
199	10
201	6
211	7
213	18
214	5
227	17
229	12
241	9
249	5
253	8
255	10
269	4
285	13
287	57
288	8
289	11
299	8
303	13
319	5
321	7
361	8
377	6
393	5
