Mass spectrum: GlcNAcAsn; ESI-QQ; MS2; Positive; [M+H]+; CID; CE: 15 eV
Name: GlcNAcAsn
Name: N4-(beta-N-Acetyl-D-glucosaminyl)-L-asparagine
Name: Beta-D-GlcNAc-1->N-Asn
Class: Non-natural product.
Formula: C12H21N3O8
Exact mass: 335.132865
SMILES: CC(=O)N[C@@H]1[C@H]([C@@H]([C@H](O[C@H]1NC(=O)C[C@@H](C(=O)O)N)CO)O)O
InChI: InChI=1S/C12H21N3O8/c1-4(17)14-8-10(20)9(19)6(3-16)23-11(8)15-7(18)2-5(13)12(21)22/h5-6,8-11,16,19-20H,2-3,13H2,1H3,(H,14,17)(H,15,18)(H,21,22)/t5-,6+,8+,9+,10+,11+/m0/s1
Instrument: Triple Quad 4500 (AB Sciex Pte. Ltd., USA)
Instrument type: LC-ESI-QQ
Ms type: MS2
Ion mode: POSITIVE
Collision energy: 15 eV
Fragmentation mode: CID
Ionization: ESI
Precursor m/z: 336.140132
Precursor type: [M+H]+
m/z	relative intensity
115.8625	6
116.4	2
126.0694	350
127.1	1
133.0515	999
137.8	12
138.2156	10
143.9	3
168.1769	15
168.6	3
181.2	2
185.4	1
186.1111	57
204.0959	657
216.1032	12
220.7	3
239.7	2
240	6
240.3125	4
240.7	3
258.0516	6
258.4687	8
276.2	2
276.7	2
277.085	7
277.35	5
282.0632	5
290	2
290.3	4
294.7	5
295.0375	21
299.9	5
300.1	5
300.3607	7
301.165	5
318.1501	67
318.9	3
319.3	3
336.1311	505
