Mass spectrum: (S)-1-((2R,5R)-5-(Hydroxymethyl)tetrahydrofuran-2-yl)but-3-en-2-ol; GC-FI-TOF; MS; POSITIVE; FI; 10 kV
Name: (S)-1-((2R,5R)-5-(Hydroxymethyl)tetrahydrofuran-2-yl)but-3-en-2-ol
Class: Non-natural compound
Formula: C9H16O3
Exact mass: 172.10995
SMILES: C=C[C@@H](O)C[C@H]1CC[C@H](CO)O1
InChI: InChI=1S/C9H16O3/c1-2-7(11)5-8-3-4-9(6-10)12-8/h2,7-11H,1,3-6H2/t7-,8-,9-/m1/s1
Instrument: JMS-T100GCV (JEOL, Akishima, Japan) coupled to Agilent 7890A gas chromatograph.
Instrument type: GC-FI-TOF
Ms type: MS
Ion mode: POSITIVE
Ionization: FI
Column name: ZB-1MS 7HM-G011-11 sn:313446, length 30.0 m, I.D. 0.32 mm, thickness 0.25 micrometer.
Retention time: 7.84 min.
m/z	relative intensity
31.018	61
57.034	33
71.049	17
78.057	62
87.043	10
101.06	72
114.069	24
115.077	12
116.084	12
121.076	11
123.079	60
124.084	7
136.086	8
141.091	999
142.095	95
143.097	9
154.098	494
155.103	67
156.106	7
171.104	32
172.112	71
173.118	593
174.121	60
175.124	7
