Mass spectrum: Pretilachlor; ESI-QTOF; MS2; POSITIVE; [M+H]+; CID; 80 V
Name: Pretilachlor
Class: Non-natural product
Formula: C17H26ClNO2
Exact mass: 311.1652
SMILES: CCCOCCN(c1c(cccc1CC)CC)C(=O)CCl
InChI: InChI=1S/C17H26ClNO2/c1-4-11-21-12-10-19(16(20)13-18)17-14(5-2)8-7-9-15(17)6-3/h7-9H,4-6,10-13H2,1-3H3
Instrument: X500R QTOF (AB Sciex LLC, USA)
Instrument type: ESI-QTOF
Ms type: MS2
Ion mode: POSITIVE
Collision energy: 80 V
Fragmentation mode: CID
Ionization: ESI
Precursor m/z: 312.1724
Precursor type: [M+H]+
m/z	relative intensity
27.0227	33
41.0384	41
45.0333	84
48.9839	235
50.015	35
51.0228	125
65.0386	109
77.0385	782
79.0542	292
89.0386	48
90.0464	72
91.0542	437
103.0542	292
105.0698	228
115.0542	132
117.0572	999
118.0651	193
119.0729	96
130.065	633
131.0729	213
132.0807	636
144.0806	142
