Mass spectrum: (R)-Octa-1,7-dien-4-ol; GC-FI-TOF; MS; positive; FI; 10 kV
Name: (R)-Octa-1,7-dien-4-ol
Class: Non-natural compound
Formula: C8H14O
Exact mass: 126.10447
SMILES: C=CC[C@H](O)CCC=C
InChI: InChI=1S/C8H14O/c1-3-5-7-8(9)6-4-2/h3-4,8-9H,1-2,5-7H2/t8-/m0/s1
Instrument: JMS-T100GCV (JEOL, Akishima, Japan) coupled to Agilent 7890A (Agilent, Wilmington, USA) gas chromatograph.
Instrument type: GC-FI-TOF
Ms type: MS
Ion mode: POSITIVE
Ionization: FI
Column name: ZB-1MS 7HM-G011-11 sn:313446 (Agilent, Wilmington, USA), length 30.0 m, I.D. 0.32 mm, thickness 0.25 micrometer.
Retention time: 4.02 min.
m/z	relative intensity
41.04	23
42.046	12
67.054	16
71.049	26
79.051	9
82.078	9
84.057	31
85.064	999
85.194	7
86.068	51
93.069	47
97.063	61
98.071	22
108.092	132
109.099	33
111.079	49
126.104	215
127.109	28
