Mass spectrum: (4S,6S)-4-(But-3-en-1-yl)-2-phenyl-6-vinyl-1,3-dioxane; GC-EI-TOF; MS; POSITIVE; EI; 70 V
Name: (4S,6S)-4-(But-3-en-1-yl)-2-phenyl-6-vinyl-1,3-dioxane
Class: Non-natural compound
Formula: C16H20O2
Exact mass: 244.14633
SMILES: C=CCC[C@H]1C[C@@H](C=C)OC(c2ccccc2)O1
InChI: InChI=1S/C16H20O2/c1-3-5-11-15-12-14(4-2)17-16(18-15)13-9-7-6-8-10-13/h3-4,6-10,14-16H,1-2,5,11-12H2/t14-,15+,16?/m1/s1
Instrument: JMS-T100GCV (JEOL, Akishima, Japan) coupled to Agilent 7890A gas chromatograph.
Instrument type: GC-EI-TOF
Ms type: MS
Ion mode: POSITIVE
Ionization: EI
Column name: ZB-1MS 7HM-G011-11 sn:313446, length 30.0 m, I.D. 0.32 mm, thickness 0.25 micrometer.
Retention time: 9.39 min.
m/z	relative intensity
26.015	6
27.023	134
27.066	1
28.006	16
28.031	62
29.002	28
29.039	138
29.08	2
30.042	3
31.018	7
31.99	9
38.016	4
39.023	243
39.074	3
39.111	1
40.03	24
41.039	435
41.09	4
42.01	9
42.045	28
43.018	63
43.054	13
44.025	4
50.015	22
51.023	114
51.081	1
52.031	41
53.039	139
53.095	1
54.047	753
54.107	7
54.372	2
54.409	2
54.649	1
54.692	1
55.018	175
55.054	470
55.202	2
55.377	1
55.421	2
56.026	83
56.061	50
57.034	43
57.069	7
58.037	2
63.023	13
64.031	6
65.039	39
66.047	42
67.054	577
67.411	1
67.458	2
68.026	7
68.061	121
69.034	30
69.068	12
70.041	8
71.049	62
72.053	3
74.015	3
75.023	5
76.031	19
77.039	538
77.209	1
77.315	1
77.428	1
77.472	2
78.046	140
79.054	652
79.343	1
79.372	2
79.494	2
79.796	2
80.062	372
80.467	2
80.796	1
81.034	26
81.07	265
81.479	1
82.041	22
82.077	49
83.049	253
83.181	3
84.057	353
84.236	1
84.468	1
84.514	1
85.062	29
89.039	35
90.046	21
91.054	63
92.061	20
93.07	185
94.077	86
94.156	1
95.049	16
95.085	18
96.057	25
97.065	21
98.07	2
103.054	6
104.026	5
104.062	11
105.034	999
105.541	3
105.889	2
106.039	107
106.125	1
106.241	2
107.049	971
107.419	2
107.562	3
107.906	2
108.053	73
108.268	2
109.064	15
110.072	5
115.055	9
116.062	3
117.07	13
118.076	3
119.085	4
120.057	3
120.093	10
121.029	2
121.101	35
122.106	4
123.044	9
123.08	7
124.088	21
125.095	3
128.062	3
129.07	4
130.078	2
131.049	2
131.085	2
133.065	5
137.097	7
138.104	66
139.108	7
140.084	2
143.085	12
144.092	5
145.065	3
153.091	3
160.089	3
162.067	4
167.108	7
170.109	5
172.089	2
187.112	3
188.12	9
189.091	52
190.098	25
191.101	3
226.136	2
243.139	67
244.143	15
245.147	2
