Mass spectrum: Tralkoxydim; LC-ESI-QTOF; MS2; ESI; POSITIVE; CE 50 V
Name: Tralkoxydim
Class: Non-natural product
Formula: C20H27NO3
Exact mass: 329.19909
SMILES: CCON=C(CC)C1=C(O)CC(c2c(C)cc(C)cc2C)CC1=O
InChI: InChI=1S/C20H27NO3/c1-6-16(21-24-7-2)20-17(22)10-15(11-18(20)23)19-13(4)8-12(3)9-14(19)5/h8-9,15,22H,6-7,10-11H2,1-5H3
Instrument: ExionLC AD, AB Sciex LLC, USA; X500R QTOF, AB Sciex LLC, USA.
Instrument type: LC-ESI-QTOF
Ms type: MS2
Ion mode: POSITIVE
Collision energy: 50 V
Ionization: ESI
Column name: AQ-C18HP 3 microm, 2.1 mm Ã— 150 mm, GL Science (Tokyo Japan)
Retention time: 11.25, 11.54 min
Precursor m/z: 330.20637
Precursor type: [M+H]+
m/z	relative intensity
30.0339	33
39.0231	46
42.0341	50
43.0182	95
44.0498	72
56.05	66
67.0182	172
68.0499	220
72.0445	619
82.0657	167
91.0549	100
94.0659	152
96.0446	999
98.0603	817
105.0706	242
110.0607	144
111.0681	73
117.0706	49
122.0604	102
130.0778	93
133.1016	238
135.0447	116
138.0555	168
143.0859	64
145.1023	78
152.0708	80
207.1171	84
