Mass spectrum: Glycitein; ESI-QTOF; MS2; POSITIVE; [M+H]+; CID; 40 V
Name: Glycitein
Class: Natural product; Isoflavone
Formula: C16H12O5
Exact mass: 284.06847
SMILES: COC1=C(C=C2C(=C1)C(=O)C(=CO2)C3=CC=C(C=C3)O)O
InChI: InChI=1S/C16H12O5/c1-20-15-6-11-14(7-13(15)18)21-8-12(16(11)19)9-2-4-10(17)5-3-9/h2-8,17-18H,1H3
Instrument: X500R QTOF (AB Sciex LLC, USA)
Instrument type: ESI-QTOF
Ms type: MS2
Ion mode: POSITIVE
Collision energy: 40 V
Fragmentation mode: CID
Ionization: ESI
Precursor m/z: 285.07575
Precursor type: [M+H]+
m/z	relative intensity
118.0411	113
124.0152	57
125.0231	43
139.0387	47
141.0696	88
168.0566	133
169.0645	173
196.0517	98
197.0593	270
214.0623	94
225.0544	225
229.0857	148
242.0569	935
270.0518	999
285.0753	261
