Mass spectrum: rac-(3R,5S)-Nona-1,8-diene-3,5-diol; GC-EI-TOF; MS; POSITIVE; EI; 70 V
Name: rac-(3R,5S)-Nona-1,8-diene-3,5-diol
Class: Non-natural compound
Formula: C9H16O2
Exact mass: 156.11503
SMILES: C=CCC[C@H](O)C[C@@H](O)C=C
InChI: InChI=1S/C9H16O2/c1-3-5-6-9(11)7-8(10)4-2/h3-4,8-11H,1-2,5-7H2/t8-,9-/m0/s1
Instrument: JMS-T100GCV (JEOL, Akishima, Japan) coupled to Agilent 7890A gas chromatograph.
Instrument type: GC-EI-TOF
Ms type: MS
Ion mode: POSITIVE
Ionization: EI
Column name: ZB-1MS 7HM-G011-11 sn:313446, length 30.0 m, I.D. 0.32 mm, thickness 0.25 micrometer.
Retention time: 7.02 min.
m/z	relative intensity
26.016	14
27.023	259
27.065	3
28.006	816
28.031	117
28.237	2
28.268	3
28.45	2
29.003	145
29.039	328
29.277	2
30.009	4
30.044	9
31.018	122
31.99	14
35.978	3
38.016	7
39.024	333
39.112	2
39.962	17
40.031	36
41.039	631
41.091	6
41.321	2
42.011	31
42.045	40
43.018	316
43.055	27
44.026	63
44.98	4
45.034	69
46.038	3
47.013	24
50.016	8
51.024	27
52.031	17
53.039	145
53.101	2
54.047	842
54.107	9
54.192	2
54.367	2
54.413	2
55.018	244
55.055	818
55.387	2
55.421	2
55.673	2
56.026	231
56.062	115
57.034	999
57.07	58
57.408	3
57.664	2
58.041	87
58.073	3
59.047	8
61.011	8
63.024	3
65.039	27
66.047	68
67.055	634
67.398	2
67.428	2
67.46	2
68.026	6
68.061	82
68.102	2
69.034	43
69.07	19
70.042	71
71.013	10
71.049	65
72.057	50
73.029	10
73.063	5
74.037	13
75.044	11
77.006	6
77.039	28
78.047	17
79.055	131
79.127	2
80.062	46
81.034	34
81.07	126
81.135	2
82.042	26
82.078	137
83.05	401
84.057	329
85.064	63
86.073	23
87.027	3
91.055	31
92.062	26
93.07	13
94.078	42
95.05	43
95.085	13
96.057	83
97.065	57
98.07	6
99.036	7
101.06	57
102.066	5
105.071	23
107.087	5
109.065	32
110.073	16
111.078	3
113.043	5
119.086	4
120.093	5
123.082	18
127.072	2
137.097	4
141.038	3
143.053	8
157.07	7
