Mass spectrum: 4-Aminobutanoic acid; GC-FI-TOF; MS; POSITIVE; FI; 10 kV; 2TBDMS
Name: 4-Aminobutanoic acid
Class: Non-natural compound
Formula: C4H9NO2
Exact mass: 103.0633285
SMILES: C(CC(=O)O)CN
InChI: InChI=1S/C4H9NO2/c5-3-1-2-4(6)7/h1-3,5H2,(H,6,7)
Instrument: JMS-T100GCV (JEOL, Akishima, Japan) coupled to Agilent 7890A (Santa Clara, CA, USA) gas chromatograph.
Instrument type: GC-FI-TOF
Ms type: MS
Ion mode: POSITIVE
Ionization: FI
Column name: DB-5MS UI 122-5532UI US0462866H (Agilent, Wilmington, USA) with the length 30 m, I.D. 0.25 mm, and thickness 0.25 micrometer.
Retention time: 10.07 min.
Derivative form: C16H37NO2Si2
Derivative mass: 331.23628
Derivative type: 2TBDMS
m/z	relative intensity
57.071	27
137.082	10
274.166	999
275.168	238
276.165	91
277.166	15
330.23	15
331.236	10
332.243	55
333.245	15
334.243	10
