Mass spectrum: Sulindac; LC-ESI-QQ; MS2; ESI; NEGATIVE; CID; CE 40 V; [M-HCO2]-
Name: Sulindac
Class: Non-natural product
Formula: C20H17FO3S
Exact mass: 356.088244
SMILES: CC\1=C(C2=C(/C1=C\C3=CC=C(C=C3)S(=O)C)C=CC(=C2)F)CC(=O)O
InChI: InChI=1S/C20H17FO3S/c1-12-17(9-13-3-6-15(7-4-13)25(2)24)16-8-5-14(21)10-19(16)18(12)11-20(22)23/h3-10H,11H2,1-2H3,(H,22,23)/b17-9-
Instrument: LCMS-8040 coupled to Nexera XR (Shimadzu, Kyoto, Japan).
Instrument type: LC-ESI-QQ
Ms type: MS2
Ion mode: NEGATIVE
Collision energy: 40 V
Fragmentation mode: CID
Ionization: ESI
Column name: InertSustain C18 ID 2.1 microm, 2.1 x 100 mm (GL Science, Tokyo, Japan).
Retention time: 7.915 min
Precursor m/z: 311.091137
Precursor type: [M-HCO2]-
m/z	relative intensity
32.3	58
80.2	16
92.2	31
93.2	88
124.0	80
125.1	32
136.0	287
137.0	362
176.9	16
190.4	113
220.1	47
227.0	16
233.2	32
235.2	27
246.2	16
248.0	305
250.0	16
251.0	140
252.4	13
253.2	21
261.1	999
263.2	867
264.1	397
265.4	16
266.3	32
273.8	26
276.3	16
277.1	31
279.0	95
280.0	210
281.1	214
293.1	153
294.3	231
295.3	218
310.7	48
