Mass spectrum: Dehydroeburicoic acid; ESI-QTOF; MS2; POSITIVE; [M+H]+; CID; 40 V
Name: Dehydroeburicoic acid
Class: Non-natural product; Bile acid
Formula: C31H48O3
Exact mass: 468.36035
SMILES: CC(C)C(=C)CC[C@H]([C@H]1CC[C@@]2([C@@]1(CC=C3C2=CC[C@@H]4[C@@]3(CC[C@@H](C4(C)C)O)C)C)C)C(=O)O
InChI: InChI=1S/C31H48O3/c1-19(2)20(3)9-10-21(27(33)34)22-13-17-31(8)24-11-12-25-28(4,5)26(32)15-16-29(25,6)23(24)14-18-30(22,31)7/h11,14,19,21-22,25-26,32H,3,9-10,12-13,15-18H2,1-2,4-8H3,(H,33,34)/t21-,22-,25+,26+,29-,30-,31+/m1/s1
Instrument: X500R QTOF (AB Sciex LLC, USA)
Instrument type: ESI-QTOF
Ms type: MS2
Ion mode: POSITIVE
Collision energy: 40 V
Fragmentation mode: CID
Ionization: ESI
Precursor m/z: 469.36762
Precursor type: [M+H]+
m/z	relative intensity
55.0555	139
57.0712	59
67.0557	74
69.0713	130
71.0870	37
79.0558	60
81.0715	188
83.0871	117
91.0559	92
93.0715	167
95.0871	422
97.1028	206
105.0715	216
107.0871	406
109.1028	402
111.0822	62
117.0716	36
119.0872	487
121.1028	341
123.1185	152
131.0871	175
133.1028	521
135.1184	284
137.1342	51
143.0872	78
145.1029	481
147.1184	492
149.1341	128
151.0770	34
151.1134	34
153.0928	37
155.0875	27
157.1029	206
159.1186	803
161.0979	38
161.1341	336
163.1498	101
165.0928	62
169.1029	65
171.1186	226
173.1342	384
175.1134	48
175.1499	200
177.0928	32
177.1656	55
179.1086	60
183.1186	98
185.1343	227
187.1499	464
189.1292	30
189.1655	499
191.1085	49
191.1813	58
193.1243	45
195.1182	30
197.1343	109
199.1499	292
201.1656	999
203.1448	28
203.1812	239
205.1242	34
205.1605	50
207.1398	34
207.1761	67
209.1341	54
211.1500	163
213.1657	303
215.1813	231
217.1968	48
219.1399	34
219.1763	37
223.1501	86
225.1656	205
227.1814	216
229.1970	50
237.1657	79
239.1813	169
241.1969	124
243.1765	29
245.1555	35
245.1918	51
251.1815	67
253.1970	133
255.2124	44
257.1920	31
265.1969	39
267.2127	47
269.2280	53
271.2075	40
279.2125	42
293.2281	235
295.2437	677
311.2387	437
313.2544	176
315.2334	42
355.2644	51
405.3528	108
423.3632	102
451.3580	197
