Mass spectrum: Citric acid; GC-EI-QQ; MS2; POSITIVE; CID 15 V; 4 TMS-derivative; [M-207]+
Name: Citric acid
Class: Natural Product
Formula: C6H8O7
Exact mass: 192.02701
SMILES: OC(=O)CC(O)(CC(O)=O)C(=O)O
InChI: InChI=1S/C6H8O7/c7-3(8)1-6(13,5(11)12)2-4(9)10/h13H,1-2H2,(H,7,8)(H,9,10)(H,11,12)
Instrument: GCMS-TQ8040 (Shimadzu, Kyoto, Japan)
Instrument type: GC-EI-QQ
Ms type: MS2
Ion mode: POSITIVE
Collision energy: 15 V
Fragmentation mode: CID
Column name: DB-5MS+DG (Agilent Technologies, Santa Clara, CA, USA)
Derivative form: C18H40O7Si4
Derivative mass: 480.18511
Derivative type: 4 TMS
Precursor m/z: 273.09729
m/z	relative intensity	assigned
67.05	128	
73.1	999	
111.1	11	
139.05	21	
147.1	53	
183.05	361	
229.15	12	
273.1	30	C11H21O4Si2+
