Mass spectrum: (2S,3S)-(-)-2,3-Epoxyoctyl 3,5-dinitrobenzoate; GC-EI-TOF; MS; positive; EI; 70 V
Name: (2S,3S)-(-)-2,3-Epoxyoctyl 3,5-dinitrobenzoate
Class: Non-natural compound
Formula: C15H18N2O7
Exact mass: 388.1114
SMILES: O=C(OC[C@@H]1O[C@H]1CCCCC)c1cc(cc(c1)[N+]([O-])=O)[N+]([O-])=O
InChI: InChI=1S/C15H18N2O7/c1-2-3-4-5-13-14(24-13)9-23-15(18)10-6-11(16(19)20)8-12(7-10)17(21)22/h6-8,13-14H,2-5,9H2,1H3/t13-,14-/m0/s1
Instrument: JMS-T100GCV (JEOL, Akishima, Japan) coupled to Agilent 7890A (Agilent, Wilmington, USA) gas chromatograph.
Instrument type: GC-EI-TOF
Ms type: MS
Ion mode: POSITIVE
Ionization: EI
Column name: HP-5 19091 J-413 USD364547H (Agilent, Wilmington, USA), length 30 m, I.D. 0.32 mm, thickness 0.25 micrometer.
Retention time: 11.7 min.
m/z	relative intensity
26.016	2
27.024	62
28.006	5
28.032	12
29.003	16
29.04	116
29.06	2
29.999	18
30.042	2
31.019	11
38.016	2
39.024	38
40.031	7
41.04	191
41.093	2
42.011	4
42.047	38
43.019	18
43.055	76
43.113	1
44.026	11
44.059	2
45.035	9
45.994	2
50.016	4
51.025	3
52.029	1
53.04	12
54.047	8
55.019	18
55.055	163
55.083	2
56.025	2
56.063	46
57.034	57
57.071	18
58.039	3
59.05	2
62.016	5
63.024	16
64.031	3
65.04	3
66.047	1
67.055	15
68.062	5
69.034	4
69.071	15
70.042	12
70.076	2
71.014	3
71.049	5
71.086	4
73.048	2
74.016	27
75.024	164
75.092	2
76.028	13
77.037	3
79.055	6
81.071	5
82.079	7
83.05	9
83.086	160
83.16	2
83.22	1
84.057	2
84.09	10
89.034	2
91.019	6
92.022	2
93.071	2
95.086	4
97.065	4
98.072	2
99.081	9
102.01	2
103.019	36
104.024	5
111.081	2
119.013	3
120.011	7
121.018	3
125.098	2
133.015	1
137.014	2
148.004	4
149.012	130
149.181	1
150.016	11
151.016	1
165.029	10
166.013	3
179.009	38
180.013	4
181.017	1
193.035	2
195.004	999
195.616	3
195.698	3
196.007	85
196.687	2
197.009	12
197.214	2
197.685	1
207.033	2
238.023	8
239.03	9
267.022	2
295.092	2
