Mass spectrum: 2-(4-Trifluoromethylphenyl)ethylamine; LC-ESI-QQ; MS2; POSITIVE; [M+H]+; CID; 40 V
Name: 2-(4-Trifluoromethylphenyl)ethylamine
Class: Non-natural product; Phenethylamine
Formula: C9H10F3N
Exact mass: 189.07653
SMILES: C1=CC(=CC=C1CCN)C(F)(F)F
InChI: InChI=1S/C9H10F3N/c10-9(11,12)8-3-1-7(2-4-8)5-6-13/h1-4H,5-6,13H2
Instrument: Xevo TQS micro (Waters, MA, USA) coupled to ACQUITY UPLC H-Class (Waters, MA, USA)
Instrument type: LC-ESI-QQ
Ms type: MS2
Ion mode: POSITIVE
Collision energy: 40 V
Fragmentation mode: CID
Ionization: ESI
Column name: Acquity UPLC BEH AMIDE column (1.7 Âµm, 2.1 x 150 mm; Waters, MA, USA)
Precursor m/z: 190.08381
Precursor type: [M+H]+
m/z	relative intensity
27.0	29
38.7	6
38.9	6
39.1	8
50.6	10
51.0	40
56.8	8
57.0	11
58.9	6
59.1	4
62.6	4
62.8	5
63.1	14
64.8	3
68.6	5
68.8	6
69.1	11
74.7	16
75.0	24
75.2	16
75.9	3
76.2	3
77.0	245
78.0	174
80.9	5
81.1	4
83.0	151
87.0	8
88.9	5
95.0	45
100.7	6
101.1	11
101.2	7
102.0	73
102.2	27
102.8	71
103.0	45
103.2	90
103.9	54
104.1	80
107.0	110
108.7	5
108.9	4
109.1	10
112.9	12
113.2	9
113.7	3
114.2	4
125.1	7
127.0	168
131.2	7
131.8	10
133.0	999
144.6	3
145.1	20
150.8	20
151.1	37
152.1	4
152.3	4
152.9	31
153.1	31
153.3	19
173.2	3
