Mass spectrum: L-(+)-Ergothioneine; ESI-QTOF; MS2; POSITIVE; [M+H]+; CID; 60 V
Name: L-(+)-Ergothioneine
Class: L-Histidine derivative
Formula: C9H15N3O2S
Exact mass: 229.08850
SMILES: C[N+](C)(C)[C@@H](CC1=CNC(=S)N1)C(=O)[O-]
InChI: InChI=1S/C9H15N3O2S/c1-12(2,3)7(8(13)14)4-6-5-10-9(15)11-6/h5,7H,4H2,1-3H3,(H2-,10,11,13,14,15)/t7-/m0/s1
Instrument: X500R QTOF (AB Sciex LLC, USA)
Instrument type: ESI-QTOF
Ms type: MS2
Ion mode: POSITIVE
Collision energy: 60 V
Fragmentation mode: CID
Ionization: ESI
Precursor m/z: 230.09576
Precursor type: [M+H]+
m/z	relative intensity	assigned
39.0231	530	[C3H6-3H]+
41.0387	962	[C3H6-H]+
42.034	442	
43.0418	329	
44.0496	326	[C2H5N+H]+
45.0575	205	
54.0342	379	[C3H7N-3H]+
56.0498	327	[C3H7N-H]+
58.0655	339	[C3H10N-2H]+
59.9907	259	[CH3NS-H]+
60.0811	489	[C3H10N]+
67.0421	999	[C3H6N2-3H]+
68.05	777	
69.0578	725	
