Mass spectrum: Cumyluron; ESI-QTOF; MS; POSITIVE
Name: Cumyluron
Class: Non-natural product
Formula: C17H19ClN2O
Exact mass: 302.1185
SMILES: CC(C)(c1ccccc1)NC(=O)NCc2ccccc2Cl
InChI: InChI=1S/C17H19ClN2O/c1-17(2,14-9-4-3-5-10-14)20-16(21)19-12-13-8-6-7-11-15(13)18/h3-11H,12H2,1-2H3,(H2,19,20,21)
Instrument: X500R QTOF (AB Sciex LLC, USA)
Instrument type: ESI-QTOF
Ms type: MS
Ion mode: POSITIVE
Ionization: ESI
m/z	relative intensity
105.0697	129
111.1169	28
119.0856	40
121.1007	204
133.0648	49
151.0753	164
161.0597	231
179.07	358
185.0476	165
187.0449	53
199.1696	48
205.1952	82
207.0326	51
223.0639	113
303.1253	679
304.1292	120
305.1231	217
309.2038	63
325.1068	999
326.111	171
327.1049	314
627.2257	127
