Mass spectrum: Dimethametryn; ESI-QTOF; MS2; POSITIVE; [M+H]+; CID; 40 V
Name: Dimethametryn
Class: Non-natural product
Formula: C11H21N5S
Exact mass: 255.1517
SMILES: CSc1nc(NCC)nc(NC(C)C(C)C)n1
InChI: InChI=1S/C11H21N5S/c1-6-12-9-14-10(13-8(4)7(2)3)16-11(15-9)17-5/h7-8H,6H2,1-5H3,(H2,12,13,14,15,16)
Instrument: X500R QTOF (AB Sciex LLC, USA)
Instrument type: ESI-QTOF
Ms type: MS2
Ion mode: POSITIVE
Collision energy: 40 V
Fragmentation mode: CID
Ionization: ESI
Precursor m/z: 256.1590
Precursor type: [M+H]+
m/z	relative intensity
41.0386	65
43.0291	190
43.0542	254
68.0243	431
71.0604	406
71.0855	47
74.006	136
85.051	100
91.0324	566
96.0556	530
110.0463	66
113.0824	65
116.0278	318
138.0776	222
144.0591	175
158.0497	218
186.0807	999
