Mass spectrum: 2,2'-Dithiodiethanol; FAB-BE; MS; Negative; Matrix 2,2'-Dithiodiethanol
Name: 2,2'-Dithiodiethanol
Class: Non-Natural Product
Formula: C4H10O2S2
Exact mass: 154.01222
SMILES: OCCSSCCO
InChI: InChI=1S/C4H10O2S2/c5-1-3-7-8-4-2-6/h5-6H,1-4H2
Instrument: JMS-700, JEOL
Instrument type: FAB-BE
Ms type: MS
Ion mode: NEGATIVE
Ionization: FAB
m/z	relative intensity
17	12
25	16
32	45
33	81
57	21
59	30
61	14
64	78
65	47
66	10
73	12
74	104
75	261
76	159
77	999
78	38
79	50
80	15
91	13
93	13
96	36
97	13
106	16
107	67
108	30
109	873
110	50
111	74
121	29
122	16
123	20
125	25
127	21
135	13
141	116
142	11
143	19
151	107
152	88
153	166
154	194
155	32
156	16
173	21
183	20
185	27
186	20
187	65
189	15
197	14
199	12
213	11
215	12
218	29
227	24
228	23
229	29
230	29
231	666
232	74
233	58
241	15
249	94
250	17
253	29
255	72
256	11
261	11
263	78
264	12
265	18
269	20
277	105
278	25
279	40
280	18
281	431
282	84
283	69
284	12
295	12
305	10
307	141
308	41
309	33
339	24
341	20
383	10
385	59
386	12
387	17
403	22
405	14
407	10
409	15
417	17
421	28
433	11
435	103
436	30
437	23
461	17
467	12
