Mass spectrum: Malic acid-[3-13C]; GC-EI-QQ; MS2; CID 5 V; POSITIVE; 3 TMS-derivative; [M-15]+
Name: Malic acid-[3-13C]
Class: In vitro synthetic compound
Formula: C4H6O5
Exact mass: 134.02152
SMILES: C(C(C(=O)O)O)C(=O)O
InChI: InChI=1S/C4H6O5/c5-2(4(8)9)1-3(6)7/h2,5H,1H2,(H,6,7)(H,8,9)/i1+1
Instrument: GCMS-TQ8040 (Shimadzu, Kyoto, Japan)
Instrument type: GC-EI-QQ
Ms type: MS2
Ion mode: POSITIVE
Collision energy: 5 V
Fragmentation mode: CID
Column name: DB-5MS+DG (Agilent Technologies, Santa Clara, CA, USA)
Derivative form: C13H30O5Si3
Derivative mass: 350.14011
Derivative type: 3 TMS
Precursor m/z: 336.11944
m/z	relative intensity	assigned
56	42	
73.05	167	
100	73	
117	66	C4H9O2Si+
144	13	
147.15	999	
149.1	34	
172.05	107	
174.1	21	
176	101	
218	23	
246.15	141	
263.85	97	
264.8	385	
308.2	883	C10(13C)H27O4Si3+
320.3	99	
336.15	510	
