Mass spectrum: rac-(S)-1-((2S,5S)-5-(Hydroxymethyl)tetrahydrofuran-2-yl)but-3-en-2-ol; GC-EI-TOF; MS; POSITIVE; EI; 70 V
Name: rac-(S)-1-((2S,5S)-5-(Hydroxymethyl)tetrahydrofuran-2-yl)but-3-en-2-ol
Class: Non-natural compound
Formula: C9H16O3
Exact mass: 172.10995
SMILES: C=C[C@@H](O)C[C@@H]1CC[C@@H](CO)O1
InChI: InChI=1S/C9H16O3/c1-2-7(11)5-8-3-4-9(6-10)12-8/h2,7-11H,1,3-6H2/t7-,8+,9+/m1/s1
Instrument: JMS-T100GCV (JEOL, Akishima, Japan) coupled to Agilent 7890A gas chromatograph.
Instrument type: GC-EI-TOF
Ms type: MS
Ion mode: POSITIVE
Ionization: EI
Column name: ZB-1MS 7HM-G011-11 sn:313446, length 30.0 m, I.D. 0.32 mm, thickness 0.25 micrometer.
Retention time: 7.85 min.
m/z	relative intensity
26.015	6
27.023	129
27.065	1
28.005	13
28.031	38
29.002	110
29.039	161
30.009	4
30.043	4
31.018	171
31.061	2
31.989	7
32.024	3
35.976	7
39.023	96
40.03	14
41.039	231
41.091	2
42.01	17
42.046	32
43.018	168
43.054	46
43.108	1
44.025	48
44.057	2
45.033	41
47.013	3
51.023	8
52.031	5
53.039	50
54.046	54
55.018	138
55.054	223
55.158	1
56.025	37
56.061	29
57.033	999
57.07	50
57.406	3
57.663	2
57.941	1
58.038	44
58.073	2
59.049	21
61.028	12
65.039	12
66.046	9
67.054	143
67.119	2
68.026	8
68.061	20
69.033	126
69.069	13
70.041	29
70.075	2
71.049	60
72.055	5
73.028	3
73.064	8
74.036	3
77.039	22
78.045	4
79.054	147
79.124	2
80.061	37
81.034	13
81.07	25
82.041	7
82.074	2
83.049	83
84.056	12
85.028	3
85.065	70
86.069	4
87.044	660
87.225	1
87.454	2
87.508	2
87.819	1
88.048	28
88.123	1
88.184	1
89.049	3
91.054	9
93.07	20
94.076	3
95.049	11
95.086	73
96.057	8
96.089	5
97.065	10
98.073	20
99.044	6
100.051	2
101.06	90
101.139	1
102.064	5
103.056	2
105.07	19
114.068	9
115.074	2
116.083	8
123.081	28
124.084	3
141.092	105
141.182	2
142.095	10
154.099	7
