Mass spectrum: (2S)-2-Aminobutanoic acid; GC-EI-TOF; MS; POSITIVE; EI; 70 V; 2TBDMS
Name: (2S)-2-Aminobutanoic acid
Class: Non-natural compound
Formula: C4H9NO2
Exact mass: 103.0633285
SMILES: CC[C@@H](C(=O)O)N
InChI: InChI=1S/C4H9NO2/c1-2-3(5)4(6)7/h3H,2,5H2,1H3,(H,6,7)/t3-/m0/s1
Instrument: JMS-T100GCV (JEOL, Akishima, Japan) coupled to Agilent 7890A (Santa Clara, CA, USA) gas chromatograph.
Instrument type: GC-EI-TOF
Ms type: MS
Ion mode: POSITIVE
Ionization: EI
Column name: DB-5MS UI 122-5532UI US0462866H (Agilent, Wilmington, USA) with the length 30 m, I.D. 0.25 mm, and thickness 0.25 micrometer.
Retention time: 9.49 min.
Derivative form: C16H37NO2Si2
Derivative mass: 331.23628
Derivative type: 2TBDMS
m/z	relative intensity
27.023	4
28.985	3
29.039	32
30.035	2
31.0	8
39.024	6
41.039	48
42.043	2
43.0	24
44.003	5
44.98	7
45.016	48
46.014	4
46.995	9
54.035	4
55.018	6
55.055	4
56.061	10
57.016	5
57.071	68
57.103	1
58.024	33
58.066	28
59.032	171
60.03	16
61.011	7
66.022	9
69.033	3
70.017	2
71.032	3
72.039	7
73.047	999
73.47	3
73.755	2
74.048	84
74.394	1
74.429	1
75.027	92
76.027	6
77.024	4
80.534	5
81.027	6
82.013	2
83.032	3
84.028	4
85.047	14
86.043	19
87.048	5
88.058	2
93.525	3
94.55	11
95.048	3
97.046	2
98.043	16
99.063	11
100.059	25
101.036	12
101.536	3
101.988	2
102.039	2
103.021	59
104.022	4
105.02	4
108.548	9
113.072	2
114.074	51
115.004	5
115.088	33
116.007	2
116.09	18
117.019	23
117.09	4
118.016	7
119.035	10
128.053	9
129.038	11
130.04	4
131.035	13
132.031	44
132.084	5
133.051	78
134.051	11
135.047	6
142.069	16
143.073	5
144.049	2
145.069	9
146.046	5
147.066	279
148.067	45
148.151	1
149.063	22
150.063	2
156.121	6
158.056	2
159.074	4
160.062	34
161.064	6
162.059	3
170.136	2
172.062	2
172.152	926
172.804	3
173.083	3
173.154	136
173.731	2
173.84	1
174.04	4
174.078	3
174.151	36
175.1	2
175.154	4
188.093	3
189.113	10
190.114	3
202.073	9
203.075	2
216.124	4
217.109	2
246.171	364
246.48	1
246.865	1
247.172	81
247.418	1
248.169	31
249.171	5
274.166	295
275.168	68
276.165	26
277.166	4
288.218	13
289.221	3
302.197	14
303.199	4
316.213	18
317.216	4
318.213	2
