Mass spectrum: rac-(2S,5S)-2-((S)-2-Acetoxybut-3-en-1-yl)-5-(acetoxymethyl)tetrahydrofuran; GC-EI-TOF; MS; POSITIVE; EI; 70 V
Name: rac-(2S,5S)-2-((S)-2-Acetoxybut-3-en-1-yl)-5-(acetoxymethyl)tetrahydrofuran
Class: Non-natural compound
Formula: C13H20O5
Exact mass: 256.13108
SMILES: C=C[C@H](C[C@@H]1CC[C@@H](COC(C)=O)O1)OC(C)=O
InChI: InChI=1S/C13H20O5/c1-4-11(17-10(3)15)7-12-5-6-13(18-12)8-16-9(2)14/h4,11-13H,1,5-8H2,2-3H3/t11-,12+,13+/m1/s1
Instrument: JMS-T100GCV (JEOL, Akishima, Japan) coupled to Agilent 7890A gas chromatograph.
Instrument type: GC-EI-TOF
Ms type: MS
Ion mode: POSITIVE
Ionization: EI
Column name: ZB-1MS 7HM-G011-11 sn:313446, length 30.0 m, I.D. 0.32 mm, thickness 0.25 micrometer.
Retention time: 9.03 min.
m/z	relative intensity
31.018	6
31.99	10
39.023	28
39.962	8
40.03	4
41.039	56
42.011	15
42.046	10
43.018	999
43.055	14
43.342	3
43.565	2
43.791	1
43.827	1
44.023	28
44.064	1
45.033	4
51.024	3
52.031	4
53.039	24
54.047	59
55.018	58
55.055	86
55.084	2
55.115	1
56.025	12
56.061	8
57.034	39
57.071	2
58.041	8
61.029	25
65.039	7
66.047	11
67.055	62
68.026	8
68.06	8
69.034	99
69.07	4
70.04	15
71.049	15
72.057	12
73.029	8
74.037	6
77.039	18
78.046	10
79.054	394
80.061	62
80.132	1
81.034	46
81.07	38
82.041	43
83.049	154
84.055	14
85.029	3
85.064	4
86.036	7
87.044	28
91.055	11
92.062	7
93.07	39
94.041	6
94.077	14
95.049	20
95.086	165
96.057	48
97.064	14
98.072	7
99.044	31
100.051	7
101.06	19
103.042	4
105.07	38
106.073	4
107.049	5
107.085	3
108.056	5
108.092	2
109.065	3
110.073	4
111.08	2
112.088	3
113.06	2
114.068	5
117.069	4
118.077	8
119.084	2
121.065	8
122.071	2
123.08	69
123.16	1
124.084	6
129.055	3
135.081	4
136.088	38
137.094	11
140.084	4
141.09	3
143.07	118
144.073	10
153.091	4
154.098	4
156.079	6
183.102	80
184.106	9
185.09	2
196.109	27
197.116	8
213.114	2
