Mass spectrum: 3-O-Acetyl-16alpha-hydroxytrametenolic acid; ESI-QTOF; MS; NEGATIVE
Name: 3-O-Acetyl-16alpha-hydroxytrametenolic acid
Class: Non-natural product; Bile acid
Formula: C32H50O5
Exact mass: 514.36583
SMILES: CC(=CCC[C@H]([C@H]1[C@@H](C[C@@]2([C@@]1(CCC3=C2CCC4[C@@]3(CC[C@@H](C4(C)C)OC(=O)C)C)C)C)O)C(=O)O)C
InChI: InChI=1S/C32H50O5/c1-19(2)10-9-11-21(28(35)36)27-24(34)18-32(8)23-12-13-25-29(4,5)26(37-20(3)33)15-16-30(25,6)22(23)14-17-31(27,32)7/h10,21,24-27,34H,9,11-18H2,1-8H3,(H,35,36)/t21-,24-,25?,26+,27+,30-,31-,32+/m1/s1
Instrument: X500R QTOF (AB Sciex LLC, USA)
Instrument type: ESI-QTOF
Ms type: MS
Ion mode: NEGATIVE
Ionization: ESI
m/z	relative intensity
513.3539	999
514.3583	324
515.3621	55
