Mass spectrum: Pyraclonil; ESI-QTOF; MS2; POSITIVE; [M+H]+; CID; 60 V
Name: Pyraclonil
Class: Non-natural product
Formula: C15H15ClN6
Exact mass: 314.1046
SMILES: CN(CC#C)C1=C(C=NN1C2=NN3CCCCC3=C2Cl)C#N
InChI: InChI=1S/C15H15ClN6/c1-3-7-20(2)15-11(9-17)10-18-22(15)14-13(16)12-6-4-5-8-21(12)19-14/h1,10H,4-8H2,2H3
Instrument: X500R QTOF (AB Sciex Pte. Ltd, USA)
Instrument type: ESI-QTOF
Ms type: MS2
Ion mode: POSITIVE
Collision energy: 60 V
Fragmentation mode: CID
Ionization: ESI
Precursor m/z: 315.1119
Precursor type: [M+H]+
m/z	relative intensity
39.023	14
41.0386	9
42.0339	10
48.9841	7
50.0152	9
51.023	31
52.0183	17
53.0387	13
54.0339	11
55.0544	37
63.0231	27
64.0184	18
65.0388	62
66.0341	22
67.0293	17
67.0543	10
72.9842	176
74.9999	19
76.0185	10
77.0388	217
78.0341	34
78.0464	14
79.0294	19
79.0544	124
80.0497	32
81.0449	39
82.0654	12
87.9951	11
89.0388	15
90.0341	27
91.0545	174
92.0497	39
93.045	26
93.0573	19
94.0402	19
94.0653	19
96.9843	13
98.9999	244
99.9951	18
103.0545	63
104.0497	24
105.045	67
105.0701	57
106.0403	23
106.0528	13
106.0654	26
107.0607	19
113.0154	15
114.0109	17
115.0061	29
115.0295	23
116.0497	18
117.0451	31
117.0572	19
118.0406	14
118.0528	22
119.0356	16
119.0606	62
121.0513	18
121.0763	54
122.0842	13
123.092	21
123.9952	28
127.0061	18
128.014	68
130.0404	15
131.0606	20
132.056	17
133.0763	53
140.0016	15
141.0218	79
142.0408	42
143.0482	24
144.0559	34
145.0513	25
155.0374	111
156.0462	58
157.053	20
169.0531	999
170.0487	30
171.0667	28
172.0626	26
179.0125	54
185.0825	27
187.0983	52
206.0486	55
212.0935	29
214.1094	61
221.0596	66
239.1048	33
248.0705	50
