Mass spectrum: Trametenolic acid; ESI-QTOF; MS; POSITIVE
Name: Trametenolic acid
Class: Non-natural product; Triterpenoid
Formula: C30H48O3
Exact mass: 456.36035
SMILES: CC(=CCC[C@H]([C@H]1CC[C@@]2([C@@]1(CCC3=C2CC[C@@H]4[C@@]3(CC[C@@H](C4(C)C)O)C)C)C)C(=O)O)C
InChI: InChI=1S/C30H48O3/c1-19(2)9-8-10-20(26(32)33)21-13-17-30(7)23-11-12-24-27(3,4)25(31)15-16-28(24,5)22(23)14-18-29(21,30)6/h9,20-21,24-25,31H,8,10-18H2,1-7H3,(H,32,33)/t20-,21-,24+,25+,28-,29-,30+/m1/s1
Instrument: X500R QTOF (AB Sciex LLC, USA)
Instrument type: ESI-QTOF
Ms type: MS
Ion mode: POSITIVE
Ionization: ESI
m/z	relative intensity
439.356	240
440.3596	74
457.3661	141
479.348	999
480.3521	290
481.3558	51
501.3307	296
502.3345	91
707.53	456
708.0315	440
708.5333	227
709.0351	79
718.5216	110
719.023	108
719.525	59
935.7102	105
936.713	81
946.7023	180
947.2038	238
947.7055	159
948.2069	71
957.6934	160
958.195	170
958.6967	134
