Mass spectrum: Tyramine; LC-ESI-QQ; MS2; POSITIVE; [M+H-NH3]+; CID; 10 V
Name: Tyramine
Class: Non-natural product; Tyramine
Formula: C8H11NO
Exact mass: 137.08406
SMILES: C1=CC(=CC=C1CCN)O
InChI: InChI=1S/C8H11NO/c9-6-5-7-1-3-8(10)4-2-7/h1-4,10H,5-6,9H2
Instrument: Xevo TQS micro (Waters, MA, USA) coupled to ACQUITY UPLC H-Class (Waters, MA, USA)
Instrument type: LC-ESI-QQ
Ms type: MS2
Ion mode: POSITIVE
Collision energy: 10 V
Fragmentation mode: CID
Ionization: ESI
Column name: Acquity UPLC BEH AMIDE column (1.7 Âµm, 2.1 x 150 mm; Waters, MA, USA)
Precursor m/z: 121.06479
Precursor type: [M+H-NH3]+
m/z	relative intensity
76.9	55
77.1	45
90.8	52
91	89
93	311
103	170
121	999
