Mass spectrum: Fumaric acid-[1,2,3,4-13C4]; GC-EI-QQ; MS2; POSITIVE; CID 10 V; 2 TBDMS-derivative; [M-57]+
Name: Fumaric acid-[1,2,3,4-13C4]
Class: in Vitro synthetic compound
Formula: C4H4O4
Exact mass: 116.01096
SMILES: O=C(O)/C=C/C(=O)O
InChI: InChI=1S/C4H4O4/c5-3(6)1-2-4(7)8/h1-2H,(H,5,6)(H,7,8)/b2-1+/i1+1,2+1,3+1,4+1
Instrument: GCMS-TQ8040 (Shimadzu, Kyoto, Japan)
Instrument type: GC-EI-QQ
Ms type: MS2
Ion mode: POSITIVE
Collision energy: 10 V
Fragmentation mode: CID
Column name: DB-5MS+DG (Agilent Technologies, Santa Clara, CA, USA)
Derivative form: C16H32O4Si2
Derivative mass: 344.18391
Derivative type: 2 TBDMS
Precursor m/z: 291.12636
m/z	relative intensity	assigned
73.05	352	
75.05	18	
115.15	13	
130.2	11	
133.2	24	
147.05	146	
149.05	32	
158.95	20	
175.1	27	
220.1	13	
234.1	72	
249.05	198	
262.15	35	
267.15	10	
291.1	999	C8(13C4)H23O4Si2+
