Mass spectrum: alpha-Chlorfenvinphos; GC-EI-Q; MS; Positive
Name: alpha-Chlorfenvinphos
Name: (E)- Chlorfenvinphos
Class: Non-Natural Product; Pesticides
Formula: C12H14Cl3O4P
Exact mass: 357.96953
SMILES: CCOP(=O)(OCC)O/C(=C/Cl)/C1=C(C=C(C=C1)Cl)Cl
InChI: InChI=1S/C12H14Cl3O4P/c1-3-17-20(16,18-4-2)19-12(8-13)10-6-5-9(14)7-11(10)15/h5-8H,3-4H2,1-2H3/b12-8+
Instrument: GCMS-QP2010 Plus, Shimadzu
Instrument type: GC-EI-Q
Ms type: MS
Ion mode: POSITIVE
Ionization: EI
Column name: Ptx-5MS(RESTEK), 0.32 mm I.D. x 30 m, df=0.25 microm
Retention time: 11.33 min
Ion type: [M]+*
Precursor m/z: 357.97
m/z	relative intensity
40	13
41	14
42	9
43	27
45	55
47	16
50	28
51	8
61	14
62	17
63	33
65	52
73	49
74	93
75	93
76	64
77	10
78	19
79	9
81	598
82	13
83	11
84	20
85	31
86	27
87	39
89	23
91	212
97	28
98	33
99	173
100	19
106	8
109	468
110	45
111	62
112	20
113	8
122	9
123	143
124	24
125	112
126	12
127	31
133	64
134	41
135	106
136	28
137	39
138	13
139	22
141	11
145	118
146	105
147	69
148	61
149	20
151	15
152	15
153	23
154	8
155	11
157	35
158	24
159	206
160	28
161	87
162	16
163	15
167	8
169	57
170	278
171	71
172	166
173	193
174	36
175	109
177	25
179	7
186	8
187	27
188	13
189	19
193	106
194	8
195	82
196	11
197	37
199	8
202	8
203	46
204	173
206	90
207	84
208	60
209	23
210	10
217	12
266	60
267	999
268	179
269	600
270	100
271	179
295	600
296	10
297	250
323	600
325	370
326	100
327	120
358	8
