Mass spectrum: 2-Aminoisobutyric Acid; GC-FI-TOF; MS; POSITIVE; FI; 10 kV; TFA, TMS
Name: 2-Aminoisobutyric Acid
Class: Non-natural compound
Formula: C4H9NO2
Exact mass: 103.0633285
SMILES: CC(C)(C(=O)O)N
InChI: InChI=1S/C4H9NO2/c1-4(2,5)3(6)7/h5H2,1-2H3,(H,6,7)
Instrument: JMS-T100GCV (JEOL, Akishima, Japan) coupled to Agilent 7890A (Santa Clara, CA, USA) gas chromatograph.
Instrument type: GC-FI-TOF
Ms type: MS
Ion mode: POSITIVE
Ionization: FI
Column name: DB-5MS UI 122-5532UI US0462866H (Agilent, Wilmington, USA) with the length 30 m, I.D. 0.25 mm, and thickness 0.25 micrometer.
Retention time: 6.38 min.
Derivative form: C9H16F3NO3Si
Derivative mass: 271.08515
Derivative type: TFA, TMS
m/z	relative intensity
73.048	302
74.049	21
75.045	17
117.038	532
118.039	50
119.036	21
154.048	999
154.227	8
155.052	55
227.097	19
256.062	724
257.063	102
258.061	31
272.093	28
