Mass spectrum: Indoxyl sulfate; ESI-QTOF; MS; NEGATIVE
Name: Indoxyl sulfate
Class: Non-natural product; Aryl sulfate
Formula: C8H7NO4S
Exact mass: 213.00958
SMILES: C1=CC=C2C(=C1)C(=CN2)OS(=O)(=O)O
InChI: InChI=1S/C8H7NO4S/c10-14(11,12)13-8-5-9-7-4-2-1-3-6(7)8/h1-5,9H,(H,10,11,12)
Instrument: X500R QTOF (AB Sciex LLC, USA)
Instrument type: ESI-QTOF
Ms type: MS
Ion mode: NEGATIVE
Ionization: ESI
m/z	relative intensity
212.0001	999
213.0043	164
