Mass spectrum: 2,4,5-T-butyl; GC-EI-Q; MS; Positive
Name: 2,4,5-T-butyl
Name: Krzewotoks
Class: Non-Natural Product; Pesticides
Formula: C12H13Cl3O3
Exact mass: 309.99303
SMILES: CCCCOC(=O)COc(c1)c(Cl)cc(Cl)c(Cl)1
InChI: InChI=1S/C12H13Cl3O3/c1-2-3-4-17-12(16)7-18-11-6-9(14)8(13)5-10(11)15/h5-6H,2-4,7H2,1H3
Instrument: GCMS-QP2010 Plus, Shimadzu
Instrument type: GC-EI-Q
Ms type: MS
Ion mode: POSITIVE
Ionization: EI
Column name: Ptx-5MS(RESTEK), 0.32 mm I.D. x 30 m, df=0.25 microm
Retention time: 11.07 min
m/z	relative intensity
41	737
42	124
43	126
44	12
50	7
53	9
54	5
55	82
56	55
57	999
58	48
61	13
62	23
63	13
69	5
70	5
71	10
72	11
73	31
74	54
75	17
83	9
84	20
85	11
86	16
87	6
96	9
97	66
99	20
101	6
106	6
107	25
108	28
109	75
110	12
111	38
112	5
113	7
131	5
132	17
133	17
134	15
135	7
143	73
144	46
145	132
146	94
147	65
148	45
149	13
150	5
160	6
162	8
167	41
169	43
171	12
173	10
175	12
177	5
178	5
179	91
180	10
181	101
182	9
183	48
184	6
185	10
190	14
192	15
195	21
196	161
197	27
198	145
199	14
200	47
202	6
209	142
210	43
211	141
212	35
213	46
214	10
215	5
218	22
219	457
220	50
221	311
222	27
223	41
224	5
254	136
255	13
256	136
257	5
258	41
259	5
260	5
275	8
277	5
310	267
311	31
312	260
313	30
314	80
315	12
316	9
