Mass spectrum: Malic acid-[1,2,3,4-13C4]; GC-EI-Q; MS; POSITIVE; 3 TBDMS-derivative
Name: Malic acid-[1,2,3,4-13C4]
Class: In vitro synthetic compound
Formula: C4H6O5
Exact mass: 134.02153
SMILES: O=C(O)C(O)CC(=O)O
InChI: InChI=1S/C4H6O5/c5-2(4(8)9)1-3(6)7/h2,5H,1H2,(H,6,7)(H,8,9)/i1+1,2+1,3+1,4+1
Instrument: GCMS-QP2010 Ultra (Shimadzu, Kyoto, Japan)
Instrument type: GC-EI-Q
Ms type: MS
Ion mode: POSITIVE
Column name: DB-5MS+DG (Agilent Technologies, Santa Clara, CA, USA)
Derivative form: C22H48O5Si3
Derivative mass: 476.28095
Derivative type: 3 TBDMS
m/z	relative intensity	assigned
56.1	11	
57.1	34	
58.05	94	
59	49	
71.1	17	
72.15	24	
73.05	999	
74.05	81	
75.05	119	
85.1	17	
99.1	15	
103.05	18	
115.1	288	
116.1	35	
117.1	18	
131.05	14	
133.05	128	
134	22	
135	13	
147.1	286	
148.1	49	
149.1	78	
150.05	13	
151.05	13	
177.05	28	
178.05	20	
189.15	117	
190.1	26	
191.15	11	
206.1	13	
207.05	25	
217.1	17	
219.25	36	C7(13C2)H21O2Si2+
220.15	10	
221.15	12	
262.15	13	
291.15	114	
292.15	21	
293.2	10	
349.35	24	
350.25	25	C14(13C)H37O3Si3+
394.25	31	C14(13C3)H39O4Si3+
395.25	11	
407.2	27	
423.25	80	
424.3	24	
425.3	10	
