Mass spectrum: (4-(2,6-dichlorophenyl)-2-methylbutyl)(pentyl)sulfane; GC-FI-TOF; MS; POSITIVE; FI; 10 kV
Name: (4-(2,6-dichlorophenyl)-2-methylbutyl)(pentyl)sulfane
Class: Non-natural compound
Formula: C16H24Cl2S
Exact mass: 318.09758
SMILES: CCCCCSCC(C)CCc1c(Cl)cccc1Cl
InChI: InChI=1S/C16H24Cl2S/c1-3-4-5-11-19-12-13(2)9-10-14-15(17)7-6-8-16(14)18/h6-8,13H,3-5,9-12H2,1-2H3
Instrument: JMS-T100GCV (JEOL, Akishima, Japan) coupled to Agilent 7890A gas chromatograph.
Instrument type: GC-FI-TOF
Ms type: MS
Ion mode: POSITIVE
Ionization: FI
Column name: HP-5 30x0.32 0.25um 19091J-413, length 30.0 m, I.D. 0.32 mm, thickness 0.25 micrometer.
Retention time: 11.15 min.
m/z	relative intensity
282.118	97
283.125	999
284.126	209
285.122	383
286.125	64
287.121	23
288.618	14
318.098	391
319.101	73
320.094	273
321.099	48
322.093	54
