Mass spectrum: alpha-Ketoglutaric acid-[1,2,3,4,5-13C5]; GC-EI-QQ; MS2; positive; CID 10 V; MEOX,2TBDMS-derivative; [M-248]+
Name: alpha-Ketoglutaric acid-[1,2,3,4,5-13C5]
Class: In vitro synthetic compound
Formula: C5H6O5
Exact mass: 146.02152
SMILES: OC(=O)C(=O)CCC(=O)O
InChI: InChI=1S/C5H6O5/c6-3(5(9)10)1-2-4(7)8/h1-2H2,(H,7,8)(H,9,10)/i1+1,2+1,3+1,4+1,5+1
Instrument: GCMS-QP2010 Ultra (Shimadzu, Kyoto, Japan)
Instrument type: GC-EI-QQ
Ms type: MS2
Ion mode: POSITIVE
Collision energy: 10 V
Fragmentation mode: CID
Column name: DB-5MS+DG (Agilent Technologies, Santa Clara, CA, USA)
Derivative form: C18H37NO5Si2
Derivative mass: 403.22102
Derivative type: MEOX, 2TBDMS
Precursor m/z: 160.06095
m/z	relative intensity	assigned
58.05	480	
75.05	999	
87	15	
115.1	126	
160.05	846	C2(13C4)H10NO2Si+
