Mass spectrum: Amarouciaxanthin A; LC-ESI-QTOF; MS; POSITIVE; ESI
Name: Amarouciaxanthin A
Class: Natural product; carotenoids; xanthophyll
Formula: C40H54O5
Exact mass: 614.39713
SMILES: CC1=CC(=O)CC([C@]1(CC(=O)/C(=C/C=C/C(=C/C=C/C=C(\C)/C=C/C=C(\C)/C=C=C2[C@](C[C@H](CC2(C)C)O)(C)O)/C)/C)O)(C)C
InChI: InChI=1S/C40H54O5/c1-28(17-13-18-30(3)21-22-36-37(6,7)24-34(42)26-39(36,10)44)15-11-12-16-29(2)19-14-20-31(4)35(43)27-40(45)32(5)23-33(41)25-38(40,8)9/h11-21,23,34,42,44-45H,24-27H2,1-10H3/b12-11+,17-13+,19-14+,28-15+,29-16+,30-18+,31-20+/t22?,34-,39+,40+/m0/s1
Instrument: Xevo G2-S QtOF, Waters (USA) coupled to ACQUITY UPLC, Waters (USA).
Instrument type: LC-ESI-QTOF
Ms type: MS
Ion mode: POSITIVE
Ionization: ESI
Column name: BEH C18, I.D. 2.1 mm, length 100 mm, thickness 1.7 micrometer.
m/z	relative intensity
133.087	71
149.082	142
153.077	47
173.118	43
205.084	58
278.101	114
279.158	84
397.179	406
398.182	69
411.261	54
425.176	143
425.275	55
427.291	126
556.276	359
557.280	86
578.260	227
579.262	58
579.381	120
580.385	43
594.229	119
637.390	999
638.393	310
639.394	48
653.365	62
