Mass spectrum: (3S)-3-Methylheptyl benzyl ether; GC-EI-BE; MS; positive; EI; 70 V
Name: (3S)-3-Methylheptyl benzyl ether
Class: Non-natural product
Formula: C15H24O
Exact mass: 220.18272
SMILES: C[C@@H](CCCC)CCOCC1=CC=CC=C1
InChI: InChI=1S/C15H24O/c1-3-4-8-14(2)11-12-16-13-15-9-6-5-7-10-15/h5-7,9-10,14H,3-4,8,11-13H2,1-2H3/t14-/m0/s1
Instrument: JMS-700V (JEOL, Akishima, Japan) coupled to Agilent 6890N (Agilent, Wilmington, USA) gas chromatograph.
Instrument type: GC-EI-BE
Ms type: MS
Ion mode: POSITIVE
Ionization: EI
Column name: DB-5MS 122-5532 US877814H (Agilent, Wilmington, USA), length 30.0 m, I.D. 0.25 mm, thickness 0.25 micrometer.
Retention time: 10.25 min
m/z	relative intensity
36	6
38	3
39	22
40	3
41	67
42	12
43	88
44	3
45	2
50	3
51	13
52	5
53	5
54	2
55	88
56	26
57	79
58	4
59	2
62	2
63	10
64	4
65	60
66	5
67	5
68	5
69	289
70	42
71	26
72	2
73	2
75	1
76	2
77	25
78	12
79	31
80	3
81	16
82	6
83	32
84	15
85	20
86	5
87	1
89	18
90	13
91	999
92	556
93	41
94	2
95	7
97	2
98	1
99	2
104	12
105	17
106	6
107	32
108	102
109	7
110	12
111	85
112	43
113	4
117	3
118	4
119	2
120	1
121	2
126	1
127	3
128	5
129	31
130	4
131	2
132	1
133	1
145	4
147	1
161	1
173	1
202	2
219	1
220	6
221	2
