Mass spectrum: 3-Aminobutanoic acid; GC-EI-TOF; MS; POSITIVE; EI; 70 V; 2TBDMS
Name: 3-Aminobutanoic acid
Class: Non-natural compound
Formula: C4H9NO2
Exact mass: 103.0633285
SMILES: CC(CC(=O)O)N
InChI: InChI=1S/C4H9NO2/c1-3(5)2-4(6)7/h3H,2,5H2,1H3,(H,6,7)
Instrument: JMS-T100GCV (JEOL, Akishima, Japan) coupled to Agilent 7890A (Santa Clara, CA, USA) gas chromatograph.
Instrument type: GC-EI-TOF
Ms type: MS
Ion mode: POSITIVE
Ionization: EI
Column name: DB-5MS UI 122-5532UI US0462866H (Agilent, Wilmington, USA) with the length 30 m, I.D. 0.25 mm, and thickness 0.25 micrometer.
Retention time: 9.69 min.
Derivative form: C16H37NO2Si2
Derivative mass: 331.23628
Derivative type: 2TBDMS
m/z	relative intensity
27.024	4
28.032	2
28.986	3
29.04	35
30.036	2
31.001	7
39.025	8
41.04	53
42.036	9
43.001	27
43.019	5
43.053	1
43.997	12
44.051	36
44.981	9
45.017	44
45.052	2
46.014	5
46.997	12
55.002	2
55.056	4
55.997	2
56.064	9
57.017	5
57.072	70
58.025	37
58.073	4
59.033	242
60.031	23
61.012	9
66.022	8
68.051	3
69.035	6
70.013	6
71.032	4
72.04	16
72.519	3
73.048	890
73.47	3
73.761	2
74.048	80
74.412	2
75.028	119
75.406	1
76.028	8
77.025	5
79.528	6
80.536	6
83.033	4
84.029	5
85.048	13
86.044	49
86.535	3
87.046	6
87.543	262
87.968	1
88.044	46
88.542	21
89.043	3
97.048	3
98.045	5
99.028	17
99.063	19
100.059	514
100.54	2
100.89	1
100.934	1
101.007	4
101.063	76
101.219	1
101.989	3
102.07	26
103.005	5
103.07	3
108.549	18
109.049	4
112.06	2
113.08	2
114.075	14
115.005	9
115.094	15
116.031	5
116.095	2
117.037	46
118.024	6
119.036	9
128.054	6
129.039	2
130.05	2
131.036	30
132.032	57
133.051	72
134.052	10
135.047	5
142.106	63
142.205	1
143.054	3
143.108	9
144.049	4
144.101	3
146.051	2
147.067	378
147.548	1
147.606	1
148.068	59
149.064	28
150.064	3
156.122	4
157.052	1
158.051	3
158.137	999
158.588	2
158.759	3
159.083	7
159.139	135
159.653	2
160.063	18
160.135	39
160.599	1
161.063	4
161.137	4
162.059	2
173.081	3
174.078	8
175.064	4
176.088	2
184.119	1
189.113	53
190.114	10
191.111	4
202.074	10
203.079	2
216.088	2
231.124	94
232.155	341
232.897	1
233.157	70
234.154	28
235.156	4
244.117	2
258.135	7
272.15	2
273.169	6
274.166	237
275.168	54
276.165	20
277.166	3
316.212	12
317.215	3
318.214	2
