Mass spectrum: 2-(4-Fluorophenyl)ethylamine; LC-ESI-QQ; MS2; POSITIVE; [M+H]+; CID; 40 V
Name: 2-(4-Fluorophenyl)ethylamine
Class: Non-natural product; Phenethylamine
Formula: C8H10FN
Exact mass: 139.07972
SMILES: C1=CC(=CC=C1CCN)F
InChI: InChI=1S/C8H10FN/c9-8-3-1-7(2-4-8)5-6-10/h1-4H,5-6,10H2
Instrument: Xevo TQS micro (Waters, MA, USA) coupled to ACQUITY UPLC H-Class (Waters, MA, USA)
Instrument type: LC-ESI-QQ
Ms type: MS2
Ion mode: POSITIVE
Collision energy: 40 V
Fragmentation mode: CID
Ionization: ESI
Column name: Acquity UPLC BEH AMIDE column (1.7 Âµm, 2.1 x 150 mm; Waters, MA, USA)
Precursor m/z: 140.08700
Precursor type: [M+H]+
m/z	relative intensity
39.0	6
49.9	17
50.2	8
50.5	61
50.8	351
51.1	372
53.3	6
57.0	15
63.2	6
68.8	10
69.2	6
73.6	8
73.9	51
74.2	12
74.8	140
75.1	179
75.3	63
75.6	6
76.0	6
76.2	12
76.7	450
77.0	999
77.3	437
83.0	7
94.6	36
94.8	25
95.0	123
95.7	10
96.1	12
96.6	10
97.0	20
100.6	12
100.8	25
101.0	14
101.2	33
101.8	10
102.0	9
102.2	16
102.5	11
102.7	41
103.0	29
103.2	70
123.0	7
