Mass spectrum: Acrinathrin; GC-EI-Q; MS
Name: Acrinathrin
Class: Non-Natural Product; Pesticides
Formula: C26H21F6NO5
Exact mass: 541.13239
SMILES: CC1(C)C(C1/C=C/C(=O)OC(C(F)(F)F)C(F)(F)F)C(=O)O[C@H](C#N)c3cccc(Oc2ccccc2)c3
InChI: InChI=1S/C26H21F6NO5/c1-24(2)18(11-12-20(34)38-23(25(27,28)29)26(30,31)32)21(24)22(35)37-19(14-33)15-7-6-10-17(13-15)36-16-8-4-3-5-9-16/h3-13,18-19,21,23H,1-2H3/b12-11+/t18?,19-,21?/m1/s1
Instrument: GCMS-QP2010 Plus, Shimadzu
Instrument type: GC-EI-Q
Ms type: MS
Ion mode: POSITIVE
Ionization: EI
Column name: Ptx-5MS(RESTEK), 0.32 mm I.D. x 30 m, df=0.25 microm
Retention time: 19.2 min
Ion type: [M]+*
Precursor m/z: 541.13
m/z	relative intensity
40	344
41	126
45	21
48	60
49	22
50	96
51	191
52	205
53	270
54	136
55	51
56	50
57	40
59	28
63	193
65	128
67	123
69	258
70	213
77	552
78	110
79	389
81	45
83	393
89	13
91	187
92	76
93	999
95	90
97	22
99	96
100	90
102	135
104	27
105	46
107	137
110	20
113	6
114	33
115	41
117	34
120	97
121	143
122	103
124	53
125	37
128	27
129	18
132	60
134	110
137	15
139	92
140	104
141	300
142	49
143	5
144	84
148	40
149	23
151	33
153	50
154	51
160	26
164	23
165	122
167	29
168	11
169	115
170	32
172	7
174	35
180	168
181	631
182	92
183	114
187	14
197	28
198	55
199	13
200	57
201	11
203	39
205	11
208	125
209	181
210	155
211	38
212	8
215	47
223	11
225	56
228	20
231	13
234	11
236	17
237	31
243	14
245	19
246	7
247	257
248	21
250	7
252	16
258	7
259	25
261	105
262	26
263	24
272	6
275	10
277	39
279	21
288	54
289	449
290	49
291	12
304	22
305	24
306	16
307	9
310	15
312	47
315	109
323	22
325	9
326	5
327	54
328	13
333	13
335	7
348	18
350	17
360	11
361	5
362	20
364	9
365	11
366	25
367	14
369	27
375	5
377	22
381	35
384	6
385	23
391	7
394	10
395	5
398	6
399	10
400	35
401	19
404	26
406	48
409	10
414	10
416	11
418	10
422	7
427	7
432	8
434	23
440	17
441	59
443	19
444	32
447	43
448	19
454	20
461	13
462	5
464	11
466	15
476	32
479	15
487	7
