Mass spectrum: Phenylsulfate; ESI-QTOF; MS; NEGATIVE
Name: Phenylsulfate
Class: Aryl sulfate
Formula: C6H6O4S
Exact mass: 173.99868
SMILES: C1=CC=C(C=C1)OS(=O)(=O)O
InChI: InChI=1S/C6H6O4S/c7-11(8,9)10-6-4-2-1-3-5-6/h1-5H,(H,7,8,9)
Instrument: X500R QTOF (AB Sciex LLC, USA)
Instrument type: ESI-QTOF
Ms type: MS
Ion mode: NEGATIVE
Ionization: ESI
m/z	relative intensity
172.9932	999
173.9976	53
174.9908	39
