Mass spectrum: Malic acid-[3-13C]; GC-EI-QQ; MS2; POSITIVE; CID 5 V; 3 TBDMS-derivative; [M-159]+
Name: Malic acid-[3-13C]
Class: In vitro synthetic compound
Formula: C4H6O5
Exact mass: 134.02153
SMILES: C(C(C(=O)O)O)C(=O)O
InChI: InChI=1S/C4H6O5/c5-2(4(8)9)1-3(6)7/h2,5H,1H2,(H,6,7)(H,8,9)/i1+1
Instrument: GCMS-TQ8040 (Shimadzu, Kyoto, Japan)
Instrument type: GC-EI-QQ
Ms type: MS2
Ion mode: POSITIVE
Collision energy: 5 V
Fragmentation mode: CID
Column name: DB-5MS+DG (Agilent Technologies, Santa Clara, CA, USA)
Derivative form: C22H48O5Si3
Derivative mass: 476.28096
Derivative type: 3 TBDMS
Precursor m/z: 318.19963
m/z	relative intensity	assigned
63	10	
73.2	218	
82.2	10	
85.2	11	
89.2	59	
112.2	10	
115.15	999	
137.2	11	
144.2	93	
186.2	335	
213.2	11	
223.2	10	
239.2	10	
245.2	14	
254.2	10	
264.2	12	
267.2	11	
273.2	32	
274.35	387	
275.3	116	
282.3	12	
293.3	10	
294.3	11	
300.3	15	
318.05	994	C14(13C)H33O3Si2+
320.1	14	
331.1	12	
