Mass spectrum: Tyramine; LC-ESI-QQ; MS2; POSITIVE; [M+H-NH3]+; CID; 40 V
Name: Tyramine
Class: Non-natural product; Tyramine
Formula: C8H11NO
Exact mass: 137.08406
SMILES: C1=CC(=CC=C1CCN)O
InChI: InChI=1S/C8H11NO/c9-6-5-7-1-3-8(10)4-2-7/h1-4,10H,5-6,9H2
Instrument: Xevo TQS micro (Waters, MA, USA) coupled to ACQUITY UPLC H-Class (Waters, MA, USA)
Instrument type: LC-ESI-QQ
Ms type: MS2
Ion mode: POSITIVE
Collision energy: 40 V
Fragmentation mode: CID
Ionization: ESI
Column name: Acquity UPLC BEH AMIDE column (1.7 Âµm, 2.1 x 150 mm; Waters, MA, USA)
Precursor m/z: 121.06479
Precursor type: [M+H-NH3]+
m/z	relative intensity
38.6	166
38.8	286
39.1	351
39.8	14
39.9	11
40.1	11
40.3	11
40.6	31
40.9	42
41.1	61
50.0	32
50.2	11
50.9	659
51.1	719
51.7	10
52.2	22
52.7	37
53.1	67
54.6	15
54.8	12
55.1	38
62.7	11
63.1	14
64.6	83
64.8	94
65.0	170
65.2	100
65.4	41
66.0	92
66.3	35
73.8	12
74.7	23
75.1	18
75.3	10
76.0	13
76.3	16
76.8	380
77.1	999
77.9	10
78.1	22
91.0	167
93.8	48
94.1	69
102.0	11
103.0	40
