Mass spectrum: alpha-Tocopherol; LC-ESI-QTOF; MS2; POSITIVE; ESI; [M+H]+; CE 30 V
Name: alpha-Tocopherol
Name: Vitamin E
Class: Natural product; fat-soluble vitamin
Formula: C29H50O2
Exact mass: 430.3810
SMILES: CC1=C(C2=C(CC[C@@](O2)(C)CCC[C@H](C)CCC[C@H](C)CCCC(C)C)C(=C1O)C)C
InChI: InChI=1S/C29H50O2/c1-20(2)12-9-13-21(3)14-10-15-22(4)16-11-18-29(8)19-17-26-25(7)27(30)23(5)24(6)28(26)31-29/h20-22,30H,9-19H2,1-8H3/t21-,22-,29-/m1/s1
Instrument: Xevo G2-S QtOF, Waters (USA) coupled to ACQUITY UPLC, Waters (USA).
Instrument type: LC-ESI-QTOF
Ms type: MS2
Ion mode: POSITIVE
Collision energy: 30 V
Ionization: ESI
Column name: Acquity 1.7 micrometer BEH UPLC C18 column (Waters Corporation).
Ion type: [M+H]+
Precursor m/z: 431.3884
m/z	relative intensity
97.1022	11
136.0888	11
137.0969	30
149.0969	28
163.1126	33
164.0842	123
165.0924	999
166.0955	96
177.0919	31
191.1074	28
205.1234	45
