Mass spectrum: Malic acid; GC-EI-QQ; MS2; CID 5 V; POSITIVE; 3 TMS-derivative; [M-117]+
Name: Malic acid
Class: Natural Product
Formula: C4H6O5
Exact mass: 134.02152
SMILES: C(C(C(=O)O)O)C(=O)O
InChI: InChI=1S/C4H6O5/c5-2(4(8)9)1-3(6)7/h2,5H,1H2,(H,6,7)(H,8,9)
Instrument: GCMS-TQ8040 (Shimadzu, Kyoto, Japan)
Instrument type: GC-EI-QQ
Ms type: MS2
Ion mode: POSITIVE
Collision energy: 5 V
Fragmentation mode: CID
Column name: DB-5MS+DG (Agilent Technologies, Santa Clara, CA, USA)
Derivative form: C13H30O5Si3
Derivative mass: 350.14011
Derivative type: 3 TMS
Precursor m/z: 233.10238
m/z	relative intensity	assigned
73.05	999	
101.1	56	C4H9OSi+
117.05	128	C4H9O2Si+
143.1	21	
163.25	13	
189.15	954	C7H17O2Si2+
191.1	393	
233.1	605	C9H21O3Si2+
