Mass spectrum: Glc4; ESI-QQ; MS2; Negative; [M-H]-; CID; CE: 10 eV
Name: Glc4
Name: Isomaltosylmaltose
Name: Glc(a1-6)Glc(a1-4)Glc(a1-4)Glc
Class: Non-natural product.
Formula: C24H42O21
Exact mass: 666.221865
SMILES: O[C@@H]1[C@@H](O)[C@H](O)[C@@H](CO)O[C@@H]1OC[C@H]1O[C@H](O[C@@H]2[C@@H](CO)O[C@H](O[C@@H]3[C@@H](CO)OC(O)[C@H](O)[C@H]3O)[C@H](O)[C@H]2O)[C@H](O)[C@@H](O)[C@@H]1O
InChI: InChI=1S/C24H42O21/c25-1-5-9(28)11(30)16(35)22(41-5)39-4-8-10(29)12(31)17(36)23(43-8)45-20-7(3-27)42-24(18(37)14(20)33)44-19-6(2-26)40-21(38)15(34)13(19)32/h5-38H,1-4H2/t5-,6-,7-,8-,9-,10-,11+,12+,13-,14-,15-,16-,17-,18-,19-,20-,21?,22+,23-,24-/m1/s1
Instrument: Triple Quad 4500 (AB Sciex Pte. Ltd., USA)
Instrument type: LC-ESI-QQ
Ms type: MS2
Ion mode: NEGATIVE
Collision energy: 10 eV
Fragmentation mode: CID
Ionization: ESI
Precursor m/z: 665.214588
Precursor type: [M-H]-
m/z	relative intensity
142.5	1
143.1	1
160.9091	13
178.824	13
220.8	3
221	2
221.3	3
250.9	7
251.4	2
280.95	5
311	2
311.2	2
322.6	3
322.9	2
323.2714	3
340.9306	61
382.9875	7
424.9937	19
442.9943	6
443.5	2
484.9333	1
485.2	1
503.07	152
545.1021	23
587.1929	25
587.8222	1
605.1353	43
665.1939	999
666.5	1
