Mass spectrum: Pentoxazone; ESI-QTOF; MS; POSITIVE
Name: Pentoxazone
Class: Non-natural product
Formula: C17H17ClFNO4
Exact mass: 353.0830
SMILES: CC(=C1C(=O)N(C(=O)O1)c2cc(c(cc2F)Cl)OC3CCCC3)C
InChI: InChI=1S/C17H17ClFNO4/c1-9(2)15-16(21)20(17(22)24-15)13-8-14(11(18)7-12(13)19)23-10-5-3-4-6-10/h7-8,10H,3-6H2,1-2H3
Instrument: X500R QTOF (AB Sciex LLC, USA)
Instrument type: ESI-QTOF
Ms type: MS
Ion mode: POSITIVE
Ionization: ESI
m/z	relative intensity
105.069	294
107.0847	44
111.116	75
119.0848	65
120.0924	61
121.0999	622
122.1038	64
133.064	104
137.059	48
149.1317	58
151.0743	398
161.0587	486
162.0623	52
179.069	999
180.0728	107
199.1685	152
205.1941	223
207.0316	99
211.0957	71
223.0628	258
281.0503	103
286.0266	215
354.0889	297
356.0861	117
371.11	195
376.0704	949
377.0741	163
378.0682	302
408.0971	102
729.1531	205
