Mass spectrum: L-Arginine; ESI-QTOF; MS2; POSITIVE; [M+H]+; CID; 20 V
Name: L-Arginine
Class: L-alpha-Amino acid
Formula: C6H14N4O2
Exact mass: 174.11166
SMILES: C(C[C@@H](C(=O)O)N)CN=C(N)N
InChI: InChI=1S/C6H14N4O2/c7-4(5(11)12)2-1-3-10-6(8)9/h4H,1-3,7H2,(H,11,12)(H4,8,9,10)/t4-/m0/s1
Instrument: X500R QTOF (AB Sciex LLC, USA)
Instrument type: ESI-QTOF
Ms type: MS2
Ion mode: POSITIVE
Collision energy: 20 V
Fragmentation mode: CID
Ionization: ESI
Precursor m/z: 175.11894
Precursor type: [M+H]+
m/z	relative intensity	assigned
60.0552	566	[CH5N3+H]+
70.0645	999	[C4H11N-3H]+
116.0702	143	[C5H11NO2-H]+
