Mass spectrum: (4R)-4-Methyl-6-pivaloyloxyhexanal; GC-EI-TOF; MS; positive; EI; 70 V
Name: (4R)-4-Methyl-6-pivaloyloxyhexanal
Class: Non-natural product
Formula: C12H22O3
Exact mass: 214.15690
SMILES: O=CCC[C@@H](C)CCOC(=O)C(C)(C)C
InChI: InChI=1S/C12H22O3/c1-10(6-5-8-13)7-9-15-11(14)12(2,3)4/h8,10H,5-7,9H2,1-4H3/t10-/m1/s1
Instrument: JMS-T100GCV (JEOL, Akishima, Japan) coupled to Agilent 7890A (Agilent, Wilmington, USA) gas chromatograph.
Instrument type: GC-EI-TOF
Ms type: MS
Ion mode: POSITIVE
Ionization: EI
Column name: HP-5 19091 J-413 USD364547H (Agilent, Wilmington, USA), length 30 m, I.D. 0.32 mm, thickness 0.25 micrometer.
Retention time: 8.74 min.
m/z	relative intensity
27.024	49
27.995	11
28.031	18
29.003	23
29.039	152
31.019	8
39.024	79
40.031	15
41.039	388
41.092	3
42.046	46
43.019	65
43.055	64
43.99	5
44.026	11
45.034	6
53.04	23
54.047	11
55.019	21
55.055	153
56.026	5
56.063	142
57.034	45
57.071	999
57.111	28
57.154	15
57.199	7
57.243	3
57.341	3
57.443	3
57.698	2
58.042	11
58.074	52
59.05	8
65.04	4
67.055	63
68.063	172
69.034	41
69.071	251
69.139	3
70.042	27
70.077	47
71.05	16
71.084	4
79.055	52
80.059	4
81.071	17
82.042	5
82.078	7
83.05	66
83.086	41
84.057	37
84.094	33
85.065	142
85.101	7
86.07	9
87.045	10
93.071	17
94.078	136
95.086	164
95.164	2
96.09	14
97.066	54
97.101	4
103.076	202
103.159	2
104.079	11
111.081	19
112.089	103
113.096	51
114.102	7
129.092	21
135.063	4
171.138	7
