Mass spectrum: Succinic acid-[1,2,3,4-13C4]; GC-EI-QQ; MS2; POSITIVE; CID 5 V; 2 TMS-derivative; [M-15]+
Name: Succinic acid-[1,2,3,4-13C4]
Class: In vitro synthetic compound
Formula: C4H6O4
Exact mass: 118.02661
SMILES: OC(=O)CCC(O)=O
InChI: InChI=1S/C4H6O4/c5-3(6)1-2-4(7)8/h1-2H2,(H,5,6)(H,7,8)/i1+1,2+1,3+1,4+1
Instrument: GCMS-TQ8040 (Shimadzu, Kyoto, Japan)
Instrument type: GC-EI-QQ
Ms type: MS2
Ion mode: POSITIVE
Collision energy: 5 V
Fragmentation mode: CID
Column name: DB-5MS+DG (Agilent Technologies, Santa Clara, CA, USA)
Derivative form: C10H22O4Si2
Derivative mass: 262.10566
Derivative type: 2 TMS
Precursor m/z: 251.09506
m/z	relative intensity
147.05	999
149.1	326
251.05	221
