Mass spectrum: (2E,6R,7S)-6,7-Epoxynon-2-enal; GC-EI-TOF; MS; positive; EI; 70 V
Name: (2E,6R,7S)-6,7-Epoxynon-2-enal
Class: Non-natural product
Formula: C9H14O2
Exact mass: 154.09938
SMILES: O=C\C=C\CC[C@H]1O[C@H]1CC
InChI: InChI=1S/C9H14O2/c1-2-8-9(11-8)6-4-3-5-7-10/h3,5,7-9H,2,4,6H2,1H3/b5-3+/t8-,9+/m0/s1
Instrument: JMS-T100GCV (JEOL, Akishima, Japan) coupled to Agilent 7890A (Agilent, Wilmington, USA) gas chromatograph.
Instrument type: GC-EI-TOF
Ms type: MS
Ion mode: POSITIVE
Ionization: EI
Column name: HP-5 19091 J-413 USD364547H (Agilent, Wilmington, USA), length 30 m, I.D. 0.32 mm, thickness 0.25 micrometer.
Retention time: 7.6 min.
m/z	relative intensity
26.015	31
27.023	445
27.065	5
27.247	1
27.265	1
28.006	27
28.031	59
28.056	2
28.073	1
29.003	180
29.039	437
29.08	5
29.275	1
29.467	1
30.008	3
30.044	14
31.018	308
31.04	4
31.99	16
32.022	4
37.008	8
38.016	32
39.024	581
39.075	6
39.145	1
39.31	2
40.031	110
40.061	2
40.083	2
41.039	999
41.089	10
41.326	3
41.355	3
41.591	2
41.812	1
41.834	1
42.011	24
42.046	98
43.018	161
43.055	76
44.026	18
44.058	3
45.034	20
47.013	5
50.016	15
51.024	37
52.031	17
53.003	6
53.039	119
53.093	2
54.046	21
55.019	93
55.055	208
55.167	2
56.025	9
56.061	18
57.034	160
57.071	103
57.175	1
58.041	17
58.074	5
59.05	458
59.108	5
59.374	1
59.408	1
60.053	16
62.016	4
63.024	10
64.031	3
65.039	66
65.104	1
66.047	84
66.112	1
67.02	2
67.055	579
67.122	6
67.458	2
67.711	1
68.026	537
68.061	65
68.19	1
68.383	2
68.688	1
68.996	2
69.033	82
69.07	23
70.042	148
70.076	4
70.166	1
71.013	6
71.05	65
71.082	2
72.057	12
73.029	10
77.04	24
78.047	13
79.055	49
80.061	7
81.034	161
81.07	15
81.154	1
82.042	76
82.078	23
83.05	177
83.181	2
84.022	3
84.057	44
85.066	402
86.037	6
86.069	25
91.055	7
92.062	2
93.071	7
94.042	6
95.05	131
95.173	1
96.057	48
97.029	3
97.066	171
98.072	24
99.043	3
107.049	5
107.087	7
109.066	6
110.074	27
111.045	7
111.08	7
112.053	37
113.059	7
121.065	4
125.061	7
125.097	9
126.069	6
139.075	2
