Mass spectrum: 1-(9Z-Octadecenoyl)-sn-glycero-3-phosphocholine; MALDI-QITTOF; MS2; POSITIVE; [M+H]+; RID
Name: Lyso-PC 18:1(9Z)
Name: 1-(9Z-Octadecenoyl)-sn-glycero-3-phosphocholine
Class: Natural product; Phospholipid
Formula: C26H52NO7P
Exact mass: 521.3481
SMILES: CCCCCCCC/C=C\CCCCCCCC(=O)OC[C@H](COP(=O)([O-])OCC[N+](C)(C)C)O
InChI: InChI=1S/C26H52NO7P/c1-5-6-7-8-9-10-11-12-13-14-15-16-17-18-19-20-26(29)32-23-25(28)24-34-35(30,31)33-22-21-27(2,3)4/h12-13,25,28H,5-11,14-24H2,1-4H3/b13-12-/t25-/m1/s1
Instrument: MALDI-QITTOF noncommercial prototype model (Shimadzu Corporation, Kyoto, Japan)
Instrument type: MALDI-QITTOF
Ms type: MS2
Ion mode: POSITIVE
Fragmentation mode: RID
Ionization: MALDI
Ion type: [M+H]+
Precursor m/z: 522.3554
m/z	relative intensity
184.069	584
184.183	13
184.395	2
185.073	32
185.47	1
185.977	1
187.073	1
189.068	2
200.069	20
226.083	94
238.071	24
239.083	98
240.093	115
241.1	154
242.096	21
246.041	23
256.092	239
258.105	521
266	46
266.989	36
267.995	75
269.997	35
273.083	13
284.981	11
286.102	133
295.021	13
298.013	11
299.105	74
308.993	13
312.121	112
323.024	22
329.09	25
331.093	69
339.282	232
354.151	32
412.184	13
426.211	85
504.323	65
520.321	22
521.328	55
521.546	1
521.908	1
522.337	999
522.542	41
522.865	12
523.102	13
523.34	380
523.558	13
523.862	10
524.139	9
524.351	81
525.342	10
536.327	4
537.337	1
538.327	13
539.332	5
540.338	1
