Mass spectrum: (2S)-2-Aminobutanoic acid; GC-EI-TOF; MS; POSITIVE; EI; 70 V; 2TMS
Name: (2S)-2-Aminobutanoic acid
Class: Non-natural compound
Formula: C4H9NO2
Exact mass: 103.0633285
SMILES: CC[C@@H](C(=O)O)N
InChI: InChI=1S/C4H9NO2/c1-2-3(5)4(6)7/h3H,2,5H2,1H3,(H,6,7)/t3-/m0/s1
Instrument: JMS-T100GCV (JEOL, Akishima, Japan) coupled to Agilent 7890A (Santa Clara, CA, USA) gas chromatograph.
Instrument type: GC-EI-TOF
Ms type: MS
Ion mode: POSITIVE
Ionization: EI
Column name: DB-5MS UI 122-5532UI US0462866H (Agilent, Wilmington, USA) with the length 30 m, I.D. 0.25 mm, and thickness 0.25 micrometer.
Retention time: 7.26 min.
Derivative form: C10H25NO2Si2
Derivative mass: 247.14238
Derivative type: 2TMS
m/z	relative intensity
28.006	3
28.019	3
28.985	4
29.04	2
31.001	3
41.04	3
43.001	16
44.008	11
44.98	5
45.016	57
46.016	4
46.996	5
54.035	1
55.001	2
55.997	1
56.051	5
57.017	5
58.024	8
58.066	2
59.032	41
59.084	1
60.03	5
61.011	5
66.022	8
66.521	2
69.034	1
70.024	2
71.032	2
72.04	9
73.048	438
73.47	1
73.525	1
73.752	1
74.048	38
75.027	29
76.028	2
77.023	3
79.527	1
80.534	4
81.028	5
82.014	1
84.028	1
85.047	2
86.043	5
87.047	1
93.525	2
94.551	6
95.049	2
98.043	5
99.045	1
100.058	24
101.036	6
101.536	1
102.042	1
103.022	15
104.023	1
105.02	1
108.548	5
114.074	14
115.004	2
115.08	4
116.067	1
117.022	4
118.017	1
119.034	2
128.09	3
129.038	1
129.097	3
130.035	3
130.105	999
130.514	2
130.67	3
131.035	10
131.107	120
131.496	1
132.031	5
132.103	38
132.187	1
132.342	1
133.051	12
133.106	3
133.151	1
134.051	2
135.046	1
142.069	8
143.068	1
144.059	1
146.082	2
147.066	105
148.067	17
149.064	9
150.065	1
158.062	1
174.076	2
175.066	1
204.124	38
205.123	9
206.122	4
218.104	20
219.104	4
220.102	2
232.119	11
233.121	2
234.119	1
