Mass spectrum: Citric acid-[1,5-13C2]; GC-EI-Q; MS; POSITIVE; 4 TBDMS-derivative
Name: Citric acid-[1,5-13C2]
Class: In vitro synthetic compound
Formula: C6H8O7
Exact mass: 192.02700
SMILES: OC(=O)CC(O)(CC(O)=O)C(=O)O
InChI: InChI=1S/C6H8O7/c7-3(8)1-6(13,5(11)12)2-4(9)10/h13H,1-2H2,(H,7,8)(H,9,10)(H,11,12)/i3+1,4+1
Instrument: GCMS-QP2010 Ultra (Shimadzu, Kyoto, Japan)
Instrument type: GC-EI-Q
Ms type: MS
Ion mode: POSITIVE
Column name: DB-5MS+DG (Agilent Technologies, Santa Clara, CA, USA)
Derivative form: C30H64O7Si4
Derivative mass: 648.372913
Derivative type: 4 TBDMS
m/z	relative intensity	assigned
57	21	
57.95	9	
58.95	39	
68	16	
73.05	999	
74.05	88	
75.05	92	
99.05	15	
115.1	72	
117.05	13	
133.05	41	
147.1	300	
148.1	48	
149.1	65	
189.1	36	
191.05	10	
207	21	
221.05	25	
255.05	65	
256.05	11	
259.1	19	
260.1	15	
301.1	29	C11(13C2)H23O4Si2+
329.1	16	
359.15	142	C15(13C2)H33O4Si2+
360.15	39	
361.15	16	
383.1	11	
387.15	26	
388.2	22	
418.2	13	
432.25	22	
433.15	192	C17(13C2)H39O5Si3+
434.2	66	
435.15	32	
460.25	34	
461.15	451	
462.2	157	
463.15	76	
464.15	18	
491.25	26	
492.25	10	
503.2	28	
504.2	10	
592.35	28	
593.25	288	
594.3	136	
595.25	73	
596.25	23	
