Mass spectrum: Acarbose; ESI-QQ; MS2; NEGATIVE; [M-H]-; CID; CE: 5 eV
Name: Acarbose
Class: Non-natural product.
Formula: C25H43NO18
Exact mass: 645.248015
SMILES: C[C@@H]1[C@H]([C@@H]([C@H]([C@H](O1)O[C@@H]2[C@H](O[C@@H]([C@@H]([C@H]2O)O)O[C@@H]3[C@H](O[C@H]([C@@H]([C@H]3O)O)O)CO)CO)O)O)N[C@H]4C=C([C@H]([C@@H]([C@H]4O)O)O)CO
InChI: InChI=1S/C25H43NO18/c1-6-11(26-8-2-7(3-27)12(30)15(33)13(8)31)14(32)19(37)24(40-6)43-22-10(5-29)42-25(20(38)17(22)35)44-21-9(4-28)41-23(39)18(36)16(21)34/h2,6,8-39H,3-5H2,1H3/t6-,8+,9-,10-,11-,12-,13+,14+,15+,16-,17-,18-,19-,20-,21-,22-,23-,24-,25-/m1/s1
Instrument: Triple Quad 4500 (AB Sciex Pte. Ltd., USA)
Instrument type: LC-ESI-QQ
Ms type: MS2
Ion mode: NEGATIVE
Collision energy: 5 eV
Fragmentation mode: CID
Ionization: ESI
Precursor m/z: 644.24074
Precursor type: [M-H]-
m/z	relative intensity
160.7952	5
161.1000	1
242.0875	1
259.7000	1
260.0842	2
275.8333	1
276.2000	1
301.8545	1
320.0739	16
362.0594	5
404.0527	2
422.1032	8
482.1289	43
524.0457	8
566.1885	12
584.1065	22
644.1819	999
