Mass spectrum: VAL-HIS-LEU-THR-PRO-VAL-GLU-LYS; ESI-ITFT; MS; Positive
Name: VAL-HIS-LEU-THR-PRO-VAL-GLU-LYS
Class: Natural Product; Peptides
Formula: C42H71N11O12
Exact mass: 921.52837
SMILES: CC(C)CC(C(=O)NC(C(C)O)C(=O)N1CCCC1C(=O)NC(C(C)C)C(=O)NC(CCC(=O)O)C(=O)NC(CCCCN)C(=O)O)NC(=O)C(CC2=CN=CN2)NC(=O)C(C(C)C)N
InChI: InChI=1S/C42H71N11O12/c1-21(2)17-28(49-36(58)29(18-25-19-45-20-46-25)50-39(61)32(44)22(3)4)37(59)52-34(24(7)54)41(63)53-16-10-12-30(53)38(60)51-33(23(5)6)40(62)47-26(13-14-31(55)56)35(57)48-27(42(64)65)11-8-9-15-43/h19-24,26-30,32-34,54H,8-18,43-44H2,1-7H3,(H,45,46)(H,47,62)(H,48,57)(H,49,58)(H,50,61)(H,51,60)(H,52,59)(H,55,56)(H,64,65)
Instrument: LTQ Orbitap Velos (Thermofisher Scientific)
Instrument type: ESI-ITFT
Ms type: MS
Ion mode: POSITIVE
Ionization: ESI
m/z	relative intensity
922.53505	999
923.53818	482
924.54084	139
925.54322	27
926.5462	1
927.51089	1
