Mass spectrum: (4R)-4-Methyl-6-benzyloxyhexanal; GC-FI-TOF; MS; positive; FI; 10 kV
Name: (4R)-4-Methyl-6-benzyloxyhexanal
Class: Non-natural product
Formula: C14H20O2
Exact mass: 220.14633
SMILES: C[C@H](CCC=O)CCOCC1=CC=CC=C1
InChI: InChI=1S/C14H20O2/c1-13(6-5-10-15)9-11-16-12-14-7-3-2-4-8-14/h2-4,7-8,10,13H,5-6,9,11-12H2,1H3/t13-/m1/s1
Instrument: JMS-T100GCV (JEOL, Akishima, Japan) coupled to Agilent 7890A (Agilent, Wilmington, USA) gas chromatograph.
Instrument type: GC-FI-TOF
Ms type: MS
Ion mode: POSITIVE
Ionization: FI
Column name: HP-5 19091 J-413 USD364547H (Agilent, Wilmington, USA), length 30.0 m, I.D. 0.32 mm, thickness 0.25 micrometer.
Retention time: 9.2 min.
m/z	relative intensity
91.054	9
107.052	19
108.058	4
113.097	5
114.105	18
129.092	11
163.071	3
219.136	4
220.146	999
220.824	4
221.150	161
221.928	2
222.152	17
222.513	2
