Mass spectrum: Azoxystrobin; GC-EI-Q; MS; Positive; M+*
Name: Azoxystrobin
Name: Methyl (E)-2-[2-[6-(2-cyanophenoxy)pyrimidin-4-YL]oxyphenyl]-3-methoxy-prop-2-enoate
Class: Non-Natural Product; Pesticides
Formula: C22H17N3O5
Exact mass: 403.1168206
SMILES: CO/C=C(\C1=CC=CC=C1OC2=NC=NC(=C2)OC3=CC=CC=C3C#N)/C(=O)OC
InChI: InChI=1S/C22H17N3O5/c1-27-13-17(22(26)28-2)16-8-4-6-10-19(16)30-21-11-20(24-14-25-21)29-18-9-5-3-7-15(18)12-23/h3-11,13-14H,1-2H3/b17-13+
Instrument: GCMS-QP2010 Plus, Shimadzu
Instrument type: GC-EI-Q
Ms type: MS
Ion mode: POSITIVE
Ionization: EI
Column name: Ptx-5MS(RESTEK), 0.32 mm I.D. x 30 m, df=0.25 microm
Retention time: 25.9 min
Ion type: [M]+*
Precursor m/z: 403.12
m/z	relative intensity
41	10
42	17
44	239
45	27
47	79
48	9
50	23
51	70
52	25
53	11
56	13
57	23
59	32
61	8
63	34
65	15
66	9
68	25
69	53
71	17
75	348
76	87
77	100
78	15
79	25
81	5
84	7
86	9
87	9
88	84
89	84
90	55
91	58
94	11
97	14
98	7
99	16
101	102
102	102
103	137
104	46
105	58
114	20
115	19
116	97
117	15
118	25
119	43
120	16
121	17
123	7
127	5
128	65
129	74
131	25
133	65
134	23
136	9
140	16
141	28
143	25
144	49
145	83
147	15
148	9
149	9
150	9
156	42
157	9
158	8
159	11
160	7
168	6
169	6
170	18
171	45
172	145
173	21
176	56
178	5
181	9
182	9
183	22
186	22
188	11
191	143
192	16
193	7
195	26
196	16
197	15
198	9
199	10
200	23
201	15
202	7
204	17
207	21
208	32
210	13
212	6
214	13
215	11
216	12
218	14
222	8
224	5
229	56
240	7
244	5
250	8
251	27
252	9
253	17
255	33
259	8
266	11
268	7
270	5
272	18
273	42
281	46
282	38
284	6
288	7
299	11
300	61
301	64
302	9
312	7
313	7
314	62
315	7
317	5
328	40
329	110
330	27
340	7
341	12
344	999
345	310
346	50
347	17
355	35
356	42
357	11
359	23
360	61
361	5
370	6
372	145
373	19
374	8
388	261
389	74
390	13
403	88
404	26
413	9
440	7
554	5
571	18
