Mass spectrum: Methyl [(1R)-1,2-dimethyl-3-methylenecyclopentyl]acetate; GC-EI-TOF; MS; positive; EI; 70 V
Name: Methyl [(1R)-1,2-dimethyl-3-methylenecyclopentyl]acetate
Class: Non-natural product
Formula: C11H18O2
Exact mass: 182.13068
SMILES: COC(=O)C[C@@]1(C)CCC(=C)C1C
InChI: InChI=1S/C11H18O2/c1-8-5-6-11(3,9(8)2)7-10(12)13-4/h9H,1,5-7H2,2-4H3/t9?,11-/m1/s1
Instrument: JMS-T100GCV (JEOL, Akishima, Japan) coupled to Agilent 7890A (Agilent, Wilmington, USA) gas chromatograph.
Instrument type: GC-EI-TOF
Ms type: MS
Ion mode: POSITIVE
Ionization: EI
Column name: HP-5 19091 J-413 USD364547H (Agilent, Wilmington, USA), length 30 m, I.D. 0.32 mm, thickness 0.25 micrometer.
Retention time: 7.09 min.
m/z	relative intensity
26.016	2
27.024	48
27.068	1
28.006	42
28.031	10
29.003	4
29.040	39
29.084	1
31.019	4
31.990	14
33.035	1
38.016	2
39.024	80
39.963	1
40.031	26
41.040	149
42.011	8
42.046	12
43.019	23
43.055	26
44.025	1
44.998	1
45.034	7
50.016	4
51.024	17
52.032	11
53.040	75
53.098	1
54.046	12
55.019	3
55.055	66
55.153	1
56.060	4
57.034	1
57.070	3
59.014	40
59.050	6
60.018	1
63.024	4
64.032	1
65.040	30
66.047	9
67.018	1
67.055	155
68.062	51
69.035	3
69.071	54
70.074	3
71.050	5
72.058	3
73.066	14
74.037	11
75.045	5
76.040	1
77.040	63
78.046	12
79.055	83
79.182	1
80.061	14
81.035	3
81.071	79
81.190	1
82.042	7
82.076	9
83.050	10
83.085	2
84.055	1
85.065	6
86.073	2
87.081	1
91.055	86
91.193	1
92.061	12
93.071	316
93.491	1
93.545	1
93.852	1
94.075	29
94.155	1
95.050	4
95.086	16
95.495	1
96.058	2
96.090	1
97.065	3
98.072	1
99.045	2
99.081	4
103.055	3
104.063	2
105.071	16
106.078	10
107.086	115
108.094	999
108.434	1
108.466	2
108.606	3
109.101	277
109.728	1
110.105	19
110.183	1
111.045	1
111.081	3
112.052	1
112.089	1
113.060	3
114.068	6
115.073	1
117.070	2
121.066	3
121.102	6
122.072	1
122.109	13
123.117	32
123.208	1
124.120	3
125.060	9
125.097	5
126.067	2
127.076	1
135.081	8
136.085	1
139.076	3
140.083	1
141.090	1
150.104	9
151.112	55
152.116	6
153.092	4
167.108	9
168.109	1
182.130	11
183.133	1
