Mass spectrum: (1R)-2-Methylcyclopent-2-en-1-yl acetate; GC-EI-TOF; MS; positive; EI; 70 V
Name: (1R)-2-Methylcyclopent-2-en-1-yl acetate
Class: Non-natural product
Formula: C8H12O2
Exact mass: 140.08373
SMILES: CC1=CCC[C@H]1OC(=O)C
InChI: InChI=1S/C8H12O2/c1-6-4-3-5-8(6)10-7(2)9/h4,8H,3,5H2,1-2H3/t8-/m1/s1
Instrument: JMS-T100GCV (JEOL, Akishima, Japan) coupled to Agilent 7890A (Agilent, Wilmington, USA) gas chromatograph.
Instrument type: GC-EI-TOF
Ms type: MS
Ion mode: POSITIVE
Ionization: EI
Column name: HP-5 19091 J-413 USD364547H (Agilent, Wilmington, USA), length 30 m, I.D. 0.32 mm, thickness 0.25 micrometer.
Retention time: 4.95 min.
m/z	relative intensity
26.016	9
27.024	103
28.006	14
28.031	17
29.003	14
29.039	25
31.018	3
31.99	9
37.008	4
38.016	14
39.024	176
39.074	2
40.031	30
41.039	180
41.092	2
42.011	17
42.046	15
43.019	581
43.055	7
43.309	2
44.023	13
44.998	8
45.034	2
50.016	25
51.024	53
52.031	39
53.039	121
53.099	1
54.046	18
55.018	13
55.055	48
56.026	8
56.061	5
57.035	6
60.022	3
62.016	4
63.024	13
65.039	43
66.047	24
67.055	31
68.062	8
69.034	13
69.07	34
70.042	17
70.075	3
71.049	3
77.039	108
78.046	23
79.055	732
79.188	9
79.335	2
79.494	2
79.796	2
80.062	999
80.505	3
80.799	2
81.035	5
81.07	371
81.482	2
81.811	2
82.042	3
82.074	22
82.143	2
83.05	170
84.053	10
95.049	6
96.057	7
97.065	125
98.073	54
99.077	3
140.083	3
