Mass spectrum: 3-O-Acetyl-16alpha-hydroxydehydrotrametenolic acid; ESI-QTOF; MS2; POSITIVE; [M+H]+; CID; 60 V
Name: 3-O-Acetyl-16alpha-hydroxydehydrotrametenolic acid
Class: Non-natural product
Formula: C32H48O5
Exact mass: 512.35018
SMILES: CC(=CCC[C@H]([C@H]1[C@@H](C[C@@]2([C@@]1(CC=C3C2=CC[C@@H]4[C@@]3(CC[C@@H](C4(C)C)OC(=O)C)C)C)C)O)C(=O)O)C
InChI: InChI=1S/C32H48O5/c1-19(2)10-9-11-21(28(35)36)27-24(34)18-32(8)23-12-13-25-29(4,5)26(37-20(3)33)15-16-30(25,6)22(23)14-17-31(27,32)7/h10,12,14,21,24-27,34H,9,11,13,15-18H2,1-8H3,(H,35,36)/t21-,24-,25+,26+,27+,30-,31-,32+/m1/s1
Instrument: X500R QTOF (AB Sciex LLC, USA)
Instrument type: ESI-QTOF
Ms type: MS2
Ion mode: POSITIVE
Collision energy: 60 V
Fragmentation mode: CID
Ionization: ESI
Precursor m/z: 513.357452
Precursor type: [M+H]+
m/z	relative intensity
55.0555	186
57.0712	46
67.0557	178
69.0713	160
77.0401	112
79.0558	200
81.0715	257
83.0871	78
91.0559	347
93.0715	413
95.0871	414
105.0715	442
107.0871	477
109.1028	197
111.0821	44
115.0559	47
117.0716	149
119.0871	557
121.1028	273
123.1185	69
128.0637	98
129.0715	176
130.0794	59
131.0872	437
133.1028	316
135.1184	129
141.0715	116
142.0793	187
143.0872	474
144.0949	88
145.1028	831
147.1185	179
153.0716	54
154.0794	52
155.0872	351
156.095	191
157.1028	751
158.1107	90
159.1184	558
161.1341	82
165.0716	59
166.0795	39
167.0872	167
168.0951	113
169.1028	603
170.1107	184
171.1185	554
172.1263	79
173.1342	294
179.0872	115
180.095	77
181.1029	425
182.1108	188
183.1185	690
184.1263	220
185.1342	441
187.1498	131
193.1029	212
194.1107	138
195.1185	612
196.1265	187
197.1342	499
198.142	87
199.1499	233
201.1655	73
207.1186	171
208.1264	240
209.1342	664
210.1421	399
211.1499	461
212.1576	43
213.1654	88
221.1343	224
222.1421	136
223.1499	910
224.1578	128
225.1656	492
226.1734	76
227.1813	47
235.1499	450
236.1578	136
237.1656	525
238.1734	72
239.1813	134
241.1969	66
249.1657	218
250.1734	174
251.1812	434
252.1891	37
253.1968	82
263.1812	999
264.1891	89
265.1967	96
277.1968	60
278.2046	792
279.2124	614
293.228	576
294.236	65
339.2332	74
353.2489	109
