Mass spectrum: (2E,4R,5R)-(+)-4,5-epoxy-(E)-2-decenal; GC-EI-TOF; MS; POSITIVE; EI; 70 V
Name: (2E,4R,5R)-(+)-4,5-epoxy-(E)-2-decenal
Class: Non-natural compound
Formula: C10H16O2
Exact mass: 168.11503
SMILES: CCCCC[C@H]1O[C@@H]1/C=C/C=O
InChI: InChI=1S/C10H16O2/c1-2-3-4-6-9-10(12-9)7-5-8-11/h5,7-10H,2-4,6H2,1H3/b7-5+/t9-,10-/m1/s1
Instrument: JMS-T100GCV (JEOL, Akishima, Japan) coupled to Agilent 7890A gas chromatograph.
Instrument type: GC-EI-TOF
Ms type: MS
Ion mode: POSITIVE
Ionization: EI
Column name: HP-5 19091J-413 USD364547H (Agilent), length 30.0 m, I.D. 0.32 mm, thickness 0.25 micrometer.
Retention time: 7.6 min.
m/z	relative intensity
26.016	11
27.024	179
27.066	2
27.995	4
28.031	25
29.003	64
29.04	182
29.08	2
29.279	1
30.008	1
30.043	4
31.019	12
37.008	5
38.016	21
39.024	320
39.075	3
39.144	1
39.305	1
39.527	1
39.56	1
40.031	76
41.003	1
41.039	280
41.09	3
41.162	1
41.323	1
41.356	1
42.011	21
42.047	49
43.019	13
43.055	147
43.107	2
44.027	7
44.058	4
45.034	2
50.016	5
51.024	12
52.031	5
53.003	2
53.039	30
54.011	3
54.047	12
55.019	37
55.055	137
55.115	2
56.026	8
56.062	48
56.094	1
56.127	1
57.034	75
57.07	10
58.039	3
59.05	1
63.024	2
65.039	9
66.047	6
67.018	1
67.055	20
68.026	999
68.059	9
68.322	2
68.432	3
68.717	2
69.032	82
69.07	21
69.335	1
69.612	1
69.657	1
69.711	1
70.041	12
70.075	2
71.049	4
71.086	6
77.039	7
78.046	2
79.055	16
80.062	3
81.034	27
81.07	6
82.005	2
82.041	6
82.078	2
83.013	4
83.05	25
83.086	3
84.021	27
84.056	3
84.093	1
85.029	10
86.037	13
91.055	3
93.071	5
94.043	1
95.014	3
95.05	4
95.086	3
97.029	3
97.065	3
99.081	3
107.05	2
111.045	3
111.08	1
121.101	1
139.112	11
140.116	1
