Mass spectrum: (S)-Citronellyl benzyl ether; GC-FI-TOF; MS; positive; FI; 10 kV
Name: (S)-Citronellyl benzyl ether
Class: Non-natural product
Formula: C17H26O
Exact mass: 246.19837
SMILES: C[C@@H](CCC=C(C)C)CCOCC1=CC=CC=C1
InChI: InChI=1S/C17H26O/c1-15(2)8-7-9-16(3)12-13-18-14-17-10-5-4-6-11-17/h4-6,8,10-11,16H,7,9,12-14H2,1-3H3/t16-/m0/s1
Instrument: JMS-T100GCV (JEOL, Akishima, Japan) coupled to Agilent 7890A (Agilent, Wilmington, USA) gas chromatograph.
Instrument type: GC-FI-TOF
Ms type: MS
Ion mode: POSITIVE
Ionization: FI
Column name: HP-5 19091 J-413 USD364547H (Agilent, Wilmington, USA), length 30.0 m, I.D. 0.32 mm, thickness 0.25 micrometer.
Retention time: 9.48 min.
m/z	relative intensity
86.442	2
91.053	6
99.356	2
123.032	3
123.099	162
123.553	2
123.601	27
137.137	6
138.142	86
138.242	3
139.146	13
140.153	3
154.137	13
155.144	144
155.345	2
156.148	16
161.098	13
165.135	3
173.750	2
173.863	4
174.011	2
182.343	2
182.510	2
214.484	2
217.194	5
218.305	3
228.187	5
246.198	999
246.945	4
247.059	3
247.202	182
247.596	2
248.080	4
248.202	16
321.899	2
377.430	2
