Mass spectrum: (3RS,6R)-8-Benzyloxy-2,6-dimethyloctane-2,3-diol; GC-EI-BE; MS; positive; EI; 70 V
Name: (3RS,6R)-8-Benzyloxy-2,6-dimethyloctane-2,3-diol
Class: Non-natural product
Formula: C17H28O3
Exact mass: 280.20385
SMILES: CC(C)(O)C(O)CC[C@@H](C)CCOCC1=CC=CC=C1
InChI: InChI=1S/C17H28O3/c1-14(9-10-16(18)17(2,3)19)11-12-20-13-15-7-5-4-6-8-15/h4-8,14,16,18-19H,9-13H2,1-3H3/t14-,16?/m1/s1
Instrument: JMS-700V (JEOL, Akishima, Japan) coupled to Agilent 6890N (Agilent, Wilmington, USA) gas chromatograph.
Instrument type: GC-EI-BE
Ms type: MS
Ion mode: POSITIVE
Ionization: EI
Column name: DB-5MS 122-5532 US877814H (Agilent, Wilmington, USA), length 30.0 m, I.D. 0.25 mm, thickness 0.25 micrometer.
Retention time: 12.12 min
m/z	relative intensity
36	74
37	4
38	32
39	22
40	3
41	48
42	7
43	105
44	7
45	4
50	4
51	11
52	3
53	7
54	2
55	45
56	12
57	25
58	37
59	53
60	2
62	2
63	9
64	3
65	49
66	3
67	13
68	8
69	83
70	23
71	27
72	7
73	3
74	1
75	3
76	1
77	29
78	9
79	30
80	4
81	43
82	9
83	35
84	6
85	19
86	7
87	4
89	15
90	12
91	999
92	204
93	34
94	3
95	62
96	21
97	7
98	2
99	22
100	2
101	1
104	10
105	21
106	9
107	188
108	45
109	10
110	2
111	27
112	5
113	43
114	25
115	2
117	5
118	2
119	2
121	2
123	6
124	1
125	3
126	3
127	1
128	1
129	14
130	2
131	8
132	2
133	4
134	1
135	3
137	7
138	12
139	2
140	1
141	1
143	5
144	1
145	4
146	1
147	1
153	6
154	3
155	6
156	15
157	4
159	4
161	2
163	1
171	6
173	1
175	2
176	1
177	2
187	4
207	2
220	16
221	8
222	3
262	5
263	1
