Mass spectrum: Diphenylguanidine; ESI-QTOF; MS2; ESI; POSITIVE; CE 60 V
Name: Diphenylguanidine
Class: Non-natural product
Formula: C13H13N3
Exact mass: 211.11093
SMILES: N=C(Nc1ccccc1)Nc1ccccc1
InChI: InChI=1S/C13H13N3/c14-13(15-11-7-3-1-4-8-11)16-12-9-5-2-6-10-12/h1-10H,(H3,14,15,16)
Instrument: X500R QTOF (AB Sciex LLC, USA)
Instrument type: ESI-QTOF
Ms type: MS2
Ion mode: POSITIVE
Collision energy: 60 V
Ionization: ESI
Precursor m/z: 212.11821
Precursor type: [M+H]+
m/z	relative intensity
39.0232	255
50.0156	197
51.0224	869
65.0382	992
77.0379	999
92.0493	695
94.0651	523
119.0609	273
