Mass spectrum: Daidzein; ESI-QTOF; MS2; NEGATIVE; [M-H]-; CID; 50 V
Name: Daidzein
Class: 7-Hydroxyisoflavone
Formula: C15H10O4
Exact mass: 254.05791
SMILES: C1=CC(=CC=C1C2=COC3=C(C2=O)C=CC(=C3)O)O
InChI: InChI=1S/C15H10O4/c16-10-3-1-9(2-4-10)13-8-19-14-7-11(17)5-6-12(14)15(13)18/h1-8,16-17H
Instrument: X500R QTOF (AB Sciex LLC, USA)
Instrument type: ESI-QTOF
Ms type: MS2
Ion mode: NEGATIVE
Collision energy: 50 V
Fragmentation mode: CID
Ionization: ESI
Precursor m/z: 253.05063
Precursor type: [M-H]-
m/z	relative intensity
41.003	306
49.008	53
63.0237	25
65.003	95
77.0393	79
89.0393	87
91.0186	873
104.0264	136
117.0342	165
132.0213	999
133.0291	449
135.0084	143
167.0498	113
169.0654	71
180.0575	291
182.0368	60
195.0447	536
196.0522	122
208.0524	486
223.0396	689
224.047	151
253.05	87
