Mass spectrum: Trametenolic acid; ESI-QTOF; MS2; POSITIVE; [M+H]+; CID; 60 V
Name: Trametenolic acid
Class: Non-natural product; Triterpenoid
Formula: C30H48O3
Exact mass: 456.36035
SMILES: CC(=CCC[C@H]([C@H]1CC[C@@]2([C@@]1(CCC3=C2CC[C@@H]4[C@@]3(CC[C@@H](C4(C)C)O)C)C)C)C(=O)O)C
InChI: InChI=1S/C30H48O3/c1-19(2)9-8-10-20(26(32)33)21-13-17-30(7)23-11-12-24-27(3,4)25(31)15-16-28(24,5)22(23)14-18-29(21,30)6/h9,20-21,24-25,31H,8,10-18H2,1-7H3,(H,32,33)/t20-,21-,24+,25+,28-,29-,30+/m1/s1
Instrument: X500R QTOF (AB Sciex LLC, USA)
Instrument type: ESI-QTOF
Ms type: MS2
Ion mode: POSITIVE
Collision energy: 60 V
Fragmentation mode: CID
Ionization: ESI
Precursor m/z: 457.36762
Precursor type: [M+H]+
m/z	relative intensity
43.0553	27
55.0556	239
57.0349	16
57.0713	66
59.0506	15
65.0401	37
67.0557	429
69.0713	276
77.0401	145
79.0559	337
81.0715	589
83.0872	130
91.0559	453
93.0715	593
95.0872	770
97.1028	39
103.056	29
105.0716	671
107.0872	711
109.1028	598
111.0821	34
115.056	31
117.0716	174
119.0872	999
121.1028	495
123.1185	127
128.0636	50
129.0715	126
130.0794	43
131.0872	504
133.1028	565
135.1184	223
141.0717	31
142.0795	72
143.0872	261
144.0949	95
145.1029	611
147.1184	317
149.134	60
155.087	52
156.0954	70
157.103	302
158.1106	106
159.1185	637
160.126	66
161.1342	206
163.1497	31
169.1031	80
170.1108	45
171.1185	342
172.1262	79
173.1344	666
174.1419	62
175.1499	111
183.1186	114
185.1342	302
186.1421	381
187.1501	336
189.1656	36
197.134	103
198.142	66
199.1499	791
200.1576	48
201.1657	99
211.1499	165
212.1577	50
213.1657	179
214.1735	589
215.1813	86
225.1657	92
226.1732	116
227.1816	96
229.197	294
239.1812	48
241.1972	218
255.2123	43
