Mass spectrum: GlcNAcAsn; ESI-QQ; MS2; Positive; [M+H]+; CID; CE: 20 eV
Name: GlcNAcAsn
Name: N4-(beta-N-Acetyl-D-glucosaminyl)-L-asparagine
Name: Beta-D-GlcNAc-1->N-Asn
Class: Non-natural product.
Formula: C12H21N3O8
Exact mass: 335.132865
SMILES: CC(=O)N[C@@H]1[C@H]([C@@H]([C@H](O[C@H]1NC(=O)C[C@@H](C(=O)O)N)CO)O)O
InChI: InChI=1S/C12H21N3O8/c1-4(17)14-8-10(20)9(19)6(3-16)23-11(8)15-7(18)2-5(13)12(21)22/h5-6,8-11,16,19-20H,2-3,13H2,1H3,(H,14,17)(H,15,18)(H,21,22)/t5-,6+,8+,9+,10+,11+/m0/s1
Instrument: Triple Quad 4500 (AB Sciex Pte. Ltd., USA)
Instrument type: LC-ESI-QQ
Ms type: MS2
Ion mode: POSITIVE
Collision energy: 20 eV
Fragmentation mode: CID
Ionization: ESI
Precursor m/z: 336.140132
Precursor type: [M+H]+
m/z	relative intensity
108.9	5
114.8	4
115.2105	8
115.6	8
116	17
116.2	14
126.0963	987
133.0931	999
138.1169	68
143.8917	23
144.1639	23
149.4	5
156.78	5
157.2	4
167	6
168.1014	52
175.3	7
179.4	5
181.3	4
186.1257	80
194.1	3
194.3	3
198.0909	8
198.4	6
203	7
203.3	8
204.11	647
210.7	8
211	8
211.2	6
211.4	3
215.6	2
216.1	29
223.2167	7
229.4	3
239.9889	33
241.1286	4
257.9	4
265.1	3
276.7	3
277.1	6
277.4	9
282.0267	15
282.4	5
290.1	4
294.8	8
295.0333	14
295.3826	9
295.6	9
300.05	3
301.1	3
318.2078	30
319.2385	11
319.6	8
319.8	3
336.1948	132
