Mass spectrum: Peridinin; LC-ESI-QTOF; MS2; POSITIVE; ESI; [M+H]+; CE 20 V.
Name: Peridinin
Class: Natural product; carotenoids; xanthophyll
Formula: C39H50O7
Exact mass: 630.3557
SMILES: C/C(=C\C=C\C=C\C=C(/C)\C=C/1\C=C(C(=O)O1)/C=C/[C@]23[C@](O2)(C[C@H](CC3(C)C)O)C)/C=C=C4[C@](C[C@H](CC4(C)C)OC(=O)C)(C)O
InChI: InChI=1S/C39H50O7/c1-26(16-17-33-35(4,5)24-32(44-28(3)40)25-37(33,8)43)14-12-10-11-13-15-27(2)20-31-21-29(34(42)45-31)18-19-39-36(6,7)22-30(41)23-38(39,9)46-39/h10-16,18-21,30,32,41,43H,22-25H2,1-9H3/b12-10+,13-11+,19-18+,26-14+,27-15+,31-20-/t17?,30-,32-,37+,38+,39-/m0/s1
Instrument: Xevo G2-S QtOF, Waters (USA) coupled to ACQUITY UPLC, Waters (USA).
Instrument type: LC-ESI-QTOF
Ms type: MS2
Ion mode: POSITIVE
Collision energy: 20 V
Ionization: ESI
Column name: BEH C18, I.D. 2.1 mm, length 100 mm, thickness 1.7 micrometer.
Ion type: [M+H]+
Precursor m/z: 631.3629
m/z	relative intensity
121.086	248
125.081	213
133.085	146
145.087	213
149.081	648
157.083	125
157.090	139
163.098	241
171.094	106
171.104	196
173.118	158
181.107	534
199.135	118
211.132	454
221.117	119
223.135	163
229.147	107
233.104	141
237.111	102
237.149	499
237.159	160
245.126	133
250.154	107
251.111	109
263.127	127
277.147	135
301.174	111
305.132	144
313.178	115
315.198	108
317.181	115
319.195	260
337.180	131
489.311	112
517.291	102
517.308	150
535.307	330
535.328	187
536.316	173
553.322	999
553.345	410
554.329	604
570.324	169
571.338	512
572.342	305
613.353	217
614.351	119
630.346	249
630.376	239
631.367	770
632.368	190
