Mass spectrum: (4-(4-bromophenyl)-2-methylbutyl)(pentyl)sulfane; GC-FI-TOF; MS; POSITIVE; FI; 10 kV
Name: (4-(4-bromophenyl)-2-methylbutyl)(pentyl)sulfane
Class: Non-natural compound
Formula: C16H25BrS
Exact mass: 328.08603
SMILES: CCCCCSCC(C)CCc1ccc(Br)cc1
InChI: InChI=1S/C16H25BrS/c1-3-4-5-12-18-13-14(2)6-7-15-8-10-16(17)11-9-15/h8-11,14H,3-7,12-13H2,1-2H3
Instrument: JMS-T100GCV (JEOL, Akishima, Japan) coupled to Agilent 7890A gas chromatograph.
Instrument type: GC-FI-TOF
Ms type: MS
Ion mode: POSITIVE
Ionization: FI
Column name: HP-5 30x0.32 0.25um 19091J-413, length 30.0 m, I.D. 0.32 mm, thickness 0.25 micrometer.
Retention time: 11.08 min.
m/z	relative intensity
328.086	964
329.089	178
330.084	999
331.087	179
332.083	58
