Mass spectrum: 2-Nitrophenyl octyl ether; FAB-BE; MS; Positive; Matrix 2-Nitrophenyl octyl ether
Name: 2-Nitrophenyl octyl ether
Class: Non-Natural Product
Formula: C14H21NO3
Exact mass: 251.15214
SMILES: CCCCCCCCOc(c1)c(ccc1)[N+1]([O-1])=O
InChI: InChI=1S/C14H21NO3/c1-2-3-4-5-6-9-12-18-14-11-8-7-10-13(14)15(16)17/h7-8,10-11H,2-6,9,12H2,1H3
Instrument: JMS-700, JEOL
Instrument type: FAB-BE
Ms type: MS
Ion mode: POSITIVE
Ionization: FAB
m/z	relative intensity
26	12
27	138
28	18
29	226
39	144
40	17
41	535
42	51
43	740
44	26
50	14
51	52
52	26
53	59
54	22
55	492
56	68
57	999
58	42
63	32
64	24
65	79
66	29
67	95
68	19
69	516
70	75
71	777
72	46
73	14
75	11
76	14
77	88
78	161
79	117
80	31
81	47
82	18
83	70
84	26
85	13
89	19
90	13
91	56
92	68
93	48
94	214
95	87
96	31
97	14
103	16
104	11
105	50
106	185
107	92
108	68
109	75
110	47
111	155
112	138
113	46
115	24
116	10
117	11
118	12
119	19
120	74
121	26
122	528
123	575
124	327
125	84
127	19
128	14
131	19
132	15
133	33
134	21
135	16
136	29
137	18
139	65
140	822
141	77
142	17
146	16
147	14
148	15
152	78
153	19
154	29
155	14
156	11
166	10
206	39
217	16
218	23
219	13
220	11
222	14
233	13
234	27
235	220
236	154
237	53
250	118
251	142
252	548
253	153
254	28
264	11
265	11
364	11
