Mass spectrum: (2E,4R,5R)-(+)-4,5-epoxy-(E)-2-decenal; GC-FI-TOF; MS; POSITIVE; FI; 10 kV
Name: (2E,4R,5R)-(+)-4,5-epoxy-(E)-2-decenal
Class: Non-natural compound
Formula: C10H16O2
Exact mass: 168.11503
SMILES: CCCCC[C@H]1O[C@@H]1/C=C/C=O
InChI: InChI=1S/C10H16O2/c1-2-3-4-6-9-10(12-9)7-5-8-11/h5,7-10H,2-4,6H2,1H3/b7-5+/t9-,10-/m1/s1
Instrument: JMS-T100GCV (JEOL, Akishima, Japan) coupled to Agilent 7890A gas chromatograph.
Instrument type: GC-FI-TOF
Ms type: MS
Ion mode: POSITIVE
Ionization: FI
Column name: HP-5 19091J-413 USD364547H (Agilent), length 30.0 m, I.D. 0.32 mm, thickness 0.25 micrometer.
Retention time: 7.6 min.
m/z	relative intensity
84.058	169
126.1	53
139.114	88
152.118	49
168.115	999
169.12	235
