Mass spectrum: (4S)-Ethyl 4-methylheptanoate; GC-EI-TOF; MS; positive; EI; 70 V
Name: (4S)-Ethyl 4-methylheptanoate
Class: Non-natural product
Formula: C10H20O2
Exact mass: 172.14638
SMILES: O=C(CC[C@@H](C)CCC)OCC
InChI: InChI=1S/C10H20O2/c1-4-6-9(3)7-8-10(11)12-5-2/h9H,4-8H2,1-3H3/t9-/m0/s1
Instrument: JMS-T100GCV (JEOL, Akishima, Japan) coupled to Agilent 7890A (Agilent, Wilmington, USA) gas chromatograph.
Instrument type: GC-EI-TOF
Ms type: MS
Ion mode: POSITIVE
Ionization: EI
Column name: HP-5 19091 J-413 USD364547H (Agilent, Wilmington, USA), length 30 m, I.D. 0.32 mm, thickness 0.25 micrometer.
Retention time: 6.43 min.
m/z	relative intensity
26.017	10
27.025	205
27.069	2
27.099	1
28.007	16
28.032	64
28.079	1
29.004	12
29.040	434
29.084	4
29.145	1
29.266	1
29.505	1
30.012	3
30.045	11
31.020	16
31.991	7
39.025	109
39.078	1
39.115	1
40.032	20
41.040	413
41.093	4
41.165	1
41.286	1
41.325	1
42.012	41
42.048	86
42.139	1
42.279	1
42.337	1
43.020	97
43.056	492
43.110	5
43.341	1
43.380	2
43.560	1
43.600	1
43.638	1
43.806	1
43.844	1
43.859	1
44.026	6
44.059	17
44.086	1
44.111	1
44.999	10
45.035	147
45.085	2
45.130	1
46.039	3
47.051	1
51.025	6
52.032	4
53.040	45
54.048	19
55.020	70
55.056	442
55.117	4
55.202	1
55.377	1
55.421	1
55.640	1
55.670	1
55.692	1
56.027	58
56.063	118
56.122	2
56.168	1
57.035	56
57.071	198
57.133	2
58.042	5
58.075	9
59.051	73
60.022	249
60.053	4
60.409	1
61.030	204
61.092	2
62.033	5
63.032	1
65.041	6
66.047	2
67.056	41
68.063	9
69.035	24
69.071	136
69.103	2
69.190	1
70.043	180
70.078	34
71.048	15
71.087	62
71.157	1
72.055	1
72.090	3
73.030	314
73.066	16
73.407	1
74.037	151
74.071	2
74.155	1
75.045	43
76.045	2
77.040	3
79.056	5
80.063	1
81.071	12
82.043	2
82.079	20
83.050	151
83.087	136
84.056	19
84.094	73
84.175	2
85.065	5
85.102	268
85.179	3
85.510	1
85.560	1
85.914	1
86.106	16
87.045	12
87.082	21
88.053	999
88.129	10
88.390	2
88.516	3
88.822	2
89.059	110
89.136	2
89.524	1
89.569	1
90.061	7
91.057	2
93.071	5
95.087	3
97.066	20
97.102	15
98.073	25
98.110	9
99.046	2
99.079	2
100.052	2
101.061	980
101.142	9
101.258	2
101.421	2
101.555	3
101.891	2
102.066	105
102.153	2
102.241	2
102.632	1
102.668	1
103.070	9
107.086	2
108.094	16
109.102	204
109.186	3
110.105	17
111.081	30
111.926	1
115.076	108
116.080	8
125.097	10
126.104	6
127.112	255
127.202	3
128.116	21
129.092	112
130.095	9
143.107	43
144.111	4
145.123	6
157.122	6
172.146	6
