Mass spectrum: gamma-BHC; GC-EI-Q; MS; Positive
Name: gamma-BHC
Name: (1a,2a,3b,4a,5a,6b)-1,2,3,4,5,6-Hexachlorocyclohexane
Class: Non-Natural Product; Pesticides
Formula: C6H6Cl6
Exact mass: 287.86007
SMILES: [C@@H]1([C@@H]([C@@H]([C@H]([C@@H]([C@@H]1Cl)Cl)Cl)Cl)Cl)Cl
InChI: InChI=1S/C6H6Cl6/c7-1-2(8)4(10)6(12)5(11)3(1)9/h1-6H/t1-,2-,3-,4+,5+,6+
Instrument: GCMS-QP2010 Plus, Shimadzu
Instrument type: GC-EI-Q
Ms type: MS
Ion mode: POSITIVE
Ionization: EI
Column name: Ptx-5MS(RESTEK), 0.32 mm I.D. x 30 m, df=0.25 microm
Retention time: 8.06 min
Ion type: [M]+*
Precursor m/z: 287.86
m/z	relative intensity
40	8
47	9
48	10
49	14
50	235
51	406
52	94
53	15
54	7
55	41
56	58
57	18
60	19
61	92
62	30
63	74
64	11
65	13
72	23
73	204
74	144
75	332
76	66
77	581
78	415
79	23
83	215
84	23
85	272
86	41
87	176
88	19
89	38
90	10
91	11
92	7
95	19
96	100
97	29
98	54
99	74
100	25
101	26
102	6
107	11
108	9
109	378
110	43
111	969
112	265
113	373
114	93
115	44
119	17
120	11
121	155
122	143
123	102
124	85
125	19
126	10
131	15
133	60
134	34
135	67
136	23
137	24
143	67
144	12
145	284
146	242
147	678
148	204
149	383
150	53
151	50
152	5
155	6
156	125
157	61
158	110
159	50
160	37
161	13
162	6
169	25
171	25
173	7
180	16
181	999
182	92
183	957
184	76
185	329
186	23
187	48
208	17
210	19
216	91
217	624
218	141
219	830
220	105
221	401
222	39
223	78
224	10
252	76
253	14
254	130
255	10
256	71
257	5
258	34
288	19
290	26
292	26
294	9
