Mass spectrum: Pentoxazone; ESI-QTOF; MS2; POSITIVE; [M+H]+; CID; 20 V
Name: Pentoxazone
Class: Non-natural product
Formula: C17H17ClFNO4
Exact mass: 353.0830
SMILES: CC(=C1C(=O)N(C(=O)O1)c2cc(c(cc2F)Cl)OC3CCCC3)C
InChI: InChI=1S/C17H17ClFNO4/c1-9(2)15-16(21)20(17(22)24-15)13-8-14(11(18)7-12(13)19)23-10-5-3-4-6-10/h7-8,10H,3-6H2,1-2H3
Instrument: X500R QTOF (AB Sciex LLC, USA)
Instrument type: ESI-QTOF
Ms type: MS2
Ion mode: POSITIVE
Collision energy: 20 V
Fragmentation mode: CID
Ionization: ESI
Precursor m/z: 354.0902
Precursor type: [M+H]+
m/z	relative intensity
286.0273	999
