Mass spectrum: (+/-)-trans-2,3-Epoxy-1-octanol; GC-EI-TOF; MS; positive; EI; 70 V
Name: (+/-)-trans-2,3-Epoxy-1-octanol
Class: Non-natural compound
Formula: C8H16O2
Exact mass: 144.11503
SMILES: OCC1OC1CCCCC
InChI: InChI=1S/C8H16O2/c1-2-3-4-5-7-8(6-9)10-7/h7-9H,2-6H2,1H3
Instrument: JMS-T100GCV (JEOL, Akishima, Japan) coupled to Agilent 7890A (Agilent, Wilmington, USA) gas chromatograph.
Instrument type: GC-EI-TOF
Ms type: MS
Ion mode: POSITIVE
Ionization: EI
Column name: HP-5 19091 J-413 USD364547H (Agilent, Wilmington, USA), length 30 m, I.D. 0.32 mm, thickness 0.25 micrometer.
Retention time: 6.36 min.
m/z	relative intensity
26.016	21
27.024	359
27.044	3
27.064	4
27.995	5
28.031	59
29.003	103
29.039	341
29.082	4
30.01	5
30.043	8
31.019	283
31.063	3
31.099	1
32.026	12
38.016	6
39.024	232
39.074	3
40.031	31
41.039	652
41.091	6
41.328	2
41.356	2
41.575	1
42.011	26
42.047	135
42.097	2
43.019	275
43.055	266
43.316	1
43.347	1
44.026	212
44.058	9
44.12	2
45.034	141
45.087	2
46.038	3
50.016	4
51.024	12
52.031	6
53.039	46
54.047	22
55.019	36
55.055	999
55.116	10
55.421	3
55.67	2
55.955	1
56.026	6
56.062	169
56.121	2
56.169	1
57.034	257
57.07	71
58.04	15
59.05	30
60.021	18
61.029	50
65.039	7
67.055	42
68.062	8
69.034	21
69.07	51
70.042	11
70.076	5
71.013	10
71.05	27
71.086	13
72.056	4
73.029	7
73.065	4
77.039	4
79.055	7
81.071	13
82.078	13
83.05	16
83.086	629
83.157	7
83.534	2
83.823	1
83.861	1
84.09	41
84.174	2
85.066	2
93.071	3
95.086	13
99.081	7
101.06	15
101.097	32
102.1	2
113.097	3
