Mass spectrum: alpha-Ketoglutaric acid-[1,2,3,4,5-13C5]; GC-EI-Q; MS; positive; MEOX,2TMS-derivative
Name: alpha-ketoglutaric acid-[1,2,3,4,5-13C5]
Class: In vitro synthetic compound
Formula: C5H6O5
Exact mass: 146.02152
SMILES: C(CC(=O)O)C(=O)C(=O)O
InChI: InChI=1S/C5H6O5/c6-3(5(9)10)1-2-4(7)8/h1-2H2,(H,7,8)(H,9,10)/i1+1,2+1,3+1,4+1,5+1
Instrument: GCMS-QP2010 Ultra (Shimadzu, Kyoto, Japan)
Instrument type: GC-EI-Q
Ms type: MS
Ion mode: POSITIVE
Column name: DB-5MS+DG (Agilent Technologies, Santa Clara, CA, USA)
Derivative form: C12H25NO5Si2
Derivative mass: 319.12712
Derivative type: MEOX, 2TMS
m/z	relative intensity	assigned
57.1	35	
58.05	135	
59.05	79	
60.05	13	
61	26	
71.05	11	
72.15	41	
73.05	999	
74.05	107	
75.05	300	
76.05	20	
77.05	11	
85.05	21	
86.05	22	
87.05	35	
88.05	23	
89.05	92	
103.05	10	
115.05	11	
116.05	34	C(13C4)H6NO2+
117.05	10	
118.05	12	
129.1	21	
131.1	19	
132.1	72	
133.05	38	
147.1	238	
148.1	37	
149.1	27	
158.05	10	
159.1	24	
160.05	61	C2(13C4)H10NO2Si+
161.05	16	
174	18	
190	21	C3(13C3)H12NO3Si+
203.05	61	
206.05	29	
218.1	9	
234.05	14	
251.1	29	
293.1	27	
309.05	22	
