Mass spectrum: Malic acid-[1-13C]; GC-EI-QQ; MS2; CID 5 V; POSITIVE; 3 TMS-derivative; [M-15]+
Name: Malic acid-[1-13C]
Class: In vitro synthetic compound
Formula: C4H6O5
Exact mass: 134.021525
SMILES: C(C(C(=O)O)O)C(=O)O
InChI: InChI=1S/C4H6O5/c5-2(4(8)9)1-3(6)7/h2,5H,1H2,(H,6,7)(H,8,9)/i4+1
Instrument: GCMS-TQ8040 (Shimadzu, Kyoto, Japan)
Instrument type: GC-EI-QQ
Ms type: MS2
Ion mode: POSITIVE
Collision energy: 5 V
Fragmentation mode: CID
Column name: DB-5MS+DG (Agilent Technologies, Santa Clara, CA, USA)
Derivative form: C13H30O5Si3
Derivative mass: 350.14011
Derivative type: 3 TMS
Precursor m/z: 336.11944
m/z	relative intensity	assigned
73.05	999	
102.1	83	
103.05	24	
117.05	163	C4H9O2Si+
128.2	12	
144.1	155	
189.1	35	C7H17O2Si2+
190.15	994	
192.15	384	
205.1	58	
234.15	990	
