Mass spectrum: 3-Aminobutanoic acid; GC-FI-TOF; MS; POSITIVE; FI; 10 kV; 2TBDMS
Name: 3-Aminobutanoic acid
Class: Non-natural compound
Formula: C4H9NO2
Exact mass: 103.0633285
SMILES: CC(CC(=O)O)N
InChI: InChI=1S/C4H9NO2/c1-3(5)2-4(6)7/h3H,2,5H2,1H3,(H,6,7)
Instrument: JMS-T100GCV (JEOL, Akishima, Japan) coupled to Agilent 7890A (Santa Clara, CA, USA) gas chromatograph.
Instrument type: GC-FI-TOF
Ms type: MS
Ion mode: POSITIVE
Ionization: FI
Column name: DB-5MS UI 122-5532UI US0462866H (Agilent, Wilmington, USA) with the length 30 m, I.D. 0.25 mm, and thickness 0.25 micrometer.
Retention time: 9.67 min.
Derivative form: C16H37NO2Si2
Derivative mass: 331.23628
Derivative type: 2TBDMS
m/z	relative intensity
57.071	8
158.136	3
274.166	999
274.759	2
274.984	3
275.168	232
276.165	92
276.818	1
277.166	14
278.165	3
332.246	4
333.245	1
