Mass spectrum: 3,8-Diamino-6-phenylphenanthridine; ESI-QQ; MS2; [M+H]+, CID, CE 50 V
Name: 3,8-Diamino-6-phenylphenanthridine
Class: Non-natural product
Formula: C19H15N3
Exact mass: 285.12659
SMILES: c1ccc(cc1)c2c3cc(ccc3c4ccc(cc4n2)N)N
InChI: InChI=1S/C19H15N3/c20-13-6-8-15-16-9-7-14(21)11-18(16)22-19(17(15)10-13)12-4-2-1-3-5-12/h1-11H,20-21H2
Instrument: LCMS-8045 (Shimadzu, Kyoto, Japan)
Instrument type: LC-ESI-QQ
Ms type: MS2
Ion mode: POSITIVE
Collision energy: 50 V
Fragmentation mode: CID
Ionization: ESI
Precursor m/z: 286.13386
Precursor type: [M+H]+
m/z	relative intensity
93.1	170
107.05	207
113.85	51
118.1	82
127.1	388
128	275
130	181
139	558
140	331
141.45	59
152.85	79
154.15	702
155.1	99
156	102
163.95	815
164.9	376
166.05	258
167.05	263
168.1	153
179	133
181.15	999
190.95	591
192	623
192.95	54
207	849
209.25	76
213.3	91
214.35	71
240.95	190
250.9	122
252	88
265.95	88
266.85	91
267.8	133
268.85	71
