Mass spectrum: Trametenolic acid; ESI-QTOF; MS2; POSITIVE; [M+H]+; CID; 30 V
Name: Trametenolic acid
Class: Non-natural product; Triterpenoid
Formula: C30H48O3
Exact mass: 456.36035
SMILES: CC(=CCC[C@H]([C@H]1CC[C@@]2([C@@]1(CCC3=C2CC[C@@H]4[C@@]3(CC[C@@H](C4(C)C)O)C)C)C)C(=O)O)C
InChI: InChI=1S/C30H48O3/c1-19(2)9-8-10-20(26(32)33)21-13-17-30(7)23-11-12-24-27(3,4)25(31)15-16-28(24,5)22(23)14-18-29(21,30)6/h9,20-21,24-25,31H,8,10-18H2,1-7H3,(H,32,33)/t20-,21-,24+,25+,28-,29-,30+/m1/s1
Instrument: X500R QTOF (AB Sciex LLC, USA)
Instrument type: ESI-QTOF
Ms type: MS2
Ion mode: POSITIVE
Collision energy: 30 V
Fragmentation mode: CID
Ionization: ESI
Precursor m/z: 457.36762
Precursor type: [M+H]+
m/z	relative intensity
81.0715	12
83.0871	6
93.0715	7
95.0872	32
105.0716	6
107.0872	26
109.1027	45
119.0872	29
121.1028	36
123.1185	18
131.0871	7
133.1028	22
135.1184	29
137.1342	10
145.1028	17
147.1185	20
149.1340	17
159.1185	29
161.1341	25
163.1498	21
171.1185	14
173.1341	68
175.1498	26
177.1655	9
179.1447	8
185.1341	18
187.1499	47
189.1655	19
191.1812	17
199.1499	21
201.1654	21
203.1810	15
213.1655	21
215.1811	48
227.1812	36
229.1967	284
241.1968	92
243.2124	12
247.2074	120
255.2125	53
259.2074	52
273.2229	33
295.2435	84
297.2595	37
299.2384	16
313.2542	58
317.2491	39
393.3524	75
403.3368	20
411.3631	37
421.3475	66
439.3579	142
457.3506	999
