Mass spectrum: Poricoic acid A; ESI-QTOF; MS2; POSITIVE; [M+H]+; CID; 30 V
Name: Poricoic acid A
Class: Non-natural product; Tricyclic triterpenoid
Formula: C31H46O5
Exact mass: 498.33453
SMILES: CC(C)C(=C)CC[C@H]([C@H]1[C@@H](C[C@@]2([C@@]1(CC=C3C2=CC[C@H]([C@]3(C)CCC(=O)O)C(=C)C)C)C)O)C(=O)O
InChI: InChI=1S/C31H46O5/c1-18(2)20(5)9-10-21(28(35)36)27-25(32)17-31(8)24-12-11-22(19(3)4)29(6,15-14-26(33)34)23(24)13-16-30(27,31)7/h12-13,18,21-22,25,27,32H,3,5,9-11,14-17H2,1-2,4,6-8H3,(H,33,34)(H,35,36)/t21-,22+,25-,27+,29+,30-,31+/m1/s1
Instrument: X500R QTOF (AB Sciex LLC, USA)
Instrument type: ESI-QTOF
Ms type: MS2
Ion mode: POSITIVE
Collision energy: 30 V
Fragmentation mode: CID
Ionization: ESI
Precursor m/z: 499.34180
Precursor type: [M+H]+
m/z	relative intensity
55.0555	7
69.0714	9
81.0715	10
95.0871	19
97.1028	24
107.0872	21
109.1029	26
119.0872	16
121.1028	21
133.1028	12
145.1029	23
147.1185	12
153.0927	17
157.103	31
159.1186	28
169.1029	30
171.1186	32
173.1342	15
177.0928	19
179.1085	14
183.1186	39
185.1342	17
189.1292	14
197.1344	33
199.1136	30
199.15	15
201.1293	14
209.1344	39
211.1137	23
211.15	175
213.1656	18
217.1243	32
219.1398	79
223.1501	77
225.1294	54
225.1656	51
227.145	23
229.1243	24
237.1658	26
239.1451	21
241.1606	22
243.14	23
245.1556	34
247.1501	28
249.1659	35
251.1451	23
251.1814	20
253.1608	22
255.1763	26
265.1606	202
265.1966	30
267.1763	147
269.1556	30
271.1712	29
279.1762	22
283.1711	146
285.1868	52
289.197	68
297.187	23
305.1919	26
307.2074	406
309.2232	52
325.2176	999
327.2336	47
393.2802	47
403.2646	45
417.3165	78
421.2751	87
435.3269	78
445.3112	168
453.3375	54
463.3218	239
481.3323	169
499.3774	72
