Mass spectrum: Creatinine; ESI-QTOF; MS2; POSITIVE; [M+H]+; CID; 60 V
Name: Creatinine
Class: Natural product; Imidazolidinone
Formula: C4H7N3O
Exact mass: 113.05890
SMILES: CN1CC(=O)N=C1N
InChI: InChI=1S/C4H7N3O/c1-7-2-3(8)6-4(7)5/h2H2,1H3,(H2,5,6,8)
Instrument: X500R QTOF (AB Sciex LLC, USA)
Instrument type: ESI-QTOF
Ms type: MS2
Ion mode: POSITIVE
Collision energy: 60 V
Fragmentation mode: CID
Ionization: ESI
Precursor m/z: 114.06618
Precursor type: [M+H]+
m/z	relative intensity
28.0181	145
29.0133	41
30.0338	43
42.0339	63
43.0291	999
44.0495	656
55.9347	82
