Mass spectrum: Malic acid-[4-13C]; GC-EI-Q; MS; POSITIVE; 3 TMS-derivative
Name: Malic acid-[4-13C]
Class: In vitro synthetic compound
Formula: C4H6O5
Exact mass: 134.021523
SMILES: C(C(C(=O)O)O)C(=O)O
InChI: InChI=1S/C4H6O5/c5-2(4(8)9)1-3(6)7/h2,5H,1H2,(H,6,7)(H,8,9)/i3+1
Instrument: GCMS-QP2010 Ultra (Shimadzu, Kyoto, Japan)
Instrument type: GC-EI-Q
Ms type: MS
Ion mode: POSITIVE
Column name: DB-5MS+DG (Agilent Technologies, Santa Clara, CA, USA)
Derivative form: C13H30O5Si3
Derivative mass: 350.140106
Derivative type: 3 TMS
m/z	relative intensity	assigned
49.9	15	
50.9	56	
51.9	18	
52.9	11	
54.9	165	
55.9	38	
56.9	15	
57.95	29	
58.95	96	
59.95	16	
60.95	40	
70	18	
71.05	11	
72.15	87	
73.05	999	
74.05	341	
75	620	
76	53	
77	34	
78	67	
79	13	
89.45	12	
100	13	
101.05	101	C4H9OSi+
102.05	17	
103	20	
104	10	
105	37	
106	11	
115	11	
116.05	13	
117	22	
118.05	58	C3(13C)H9O2Si+
119	19	
129	15	
131.05	50	
132.05	10	
133	153	
134.05	24	
135.05	19	
136.05	79	
137.05	11	
144.1	24	
146.15	10	
147.1	692	
148.1	124	
149.05	85	
150.05	11	
172	27	
175.05	55	
176.05	17	
177	19	
179	212	
180	32	
189.05	89	C7H17O2Si2+
190.05	46	
191.05	88	
192.05	18	
193	25	
194.05	12	
217.05	14	
218	25	
221	16	
233.15	11	
234.05	240	C8(13C)H21O3Si2+
235.05	50	
236.05	21	
246	118	
247	25	
248	17	
263.1	20	
265.1	32	
306.15	14	
307.15	21	
308.1	33	C10(13C)H27O4Si3+
309.1	10	
320.05	13	
336.1	48	C11(13C)H27O5Si3+
337.1	15	
