Mass spectrum: N-(3-Oxobutyl)-tyrosine; LC-ESI-QQ; MS2; [M+H]+; Positive
Name: N-(3-Oxobutyl)-tyrosine
Name: [3-(4'-Hydroxyphenyl)-2-(3''-oxobutylamino)-propanoic acid]
Class: Natural Product; amino acid derivative
Formula: C13H17NO4
Exact mass: 251.11576
SMILES: CC(=O)CCNC(C(O)=O)Cc(c1)ccc(O)c1
InChI: InChI=1S/C13H17NO4/c1-9(15)6-7-14-12(13(17)18)8-10-2-4-11(16)5-3-10/h2-5,12,14,16H,6-8H2,1H3,(H,17,18)
Instrument: Quattro Premier, Micromass. Alliance HT 2795,Waters
Instrument type: LC-ESI-QQ
Ms type: MS2
Ion mode: POSITIVE
Collision energy: 13 eV
Ionization: ESI
Column name: C18(ODS), Cosmosil 5C18-AR-II, 4.6 x 150 mm, 4.4 micrometer
Retention time: 11.11 min
Precursor m/z: 252.12413
Precursor type: [M+H]+
m/z	relative intensity
87.9	11
122.9	6
148	998
165	44
166	18
194.1	999
206.2	50
208.1	6
252.2	87
