Mass spectrum: Crassostreaxanthin B; LC-ESI-QTOF; MS2; POSITIVE; ESI; [M+H]+; COLLISION_ENERGY 20 V.
Name: Crassostreaxanthin B
Class: Natural products; Carotenoids, Xanthophyll
Formula: C40H54O4
Exact mass: 598.4022
SMILES: CC1=C(C(C[C@@H](C1)O)(C)C)C#C/C(=C/C=C/C(=C/C=C/C=C(\C)/C=C/C=C(\C)/C(=O)C/C(=C(\C)/C[C@@H](CC(=O)C)O)/C)/C)/C
InChI: InChI=1S/C40H54O4/c1-28(17-13-18-30(3)21-22-38-34(7)24-37(43)27-40(38,9)10)15-11-12-16-29(2)19-14-20-31(4)39(44)25-33(6)32(5)23-36(42)26-35(8)41/h11-20,36-37,42-43H,23-27H2,1-10H3/b12-11+,17-13+,19-14+,28-15+,29-16+,30-18+,31-20+,33-32+/t36-,37+/m0/s1
Instrument: Xevo G2-S QtOF, Waters (USA) coupled to ACQUITY UPLC, Waters (USA).
Instrument type: LC-ESI-QTOF
Ms type: MS2
Ion mode: POSITIVE
Collision energy: 20 V
Ionization: ESI
Column name: BEH C18, I.D. 2.1 mm, length 100 mm, thickness 1.7 micrometer.
Ion type: [M+H]+
Precursor m/z: 599.4095
m/z	relative intensity
93.056	36
95.072	45
97.051	32
109.087	102
113.082	60
119.071	43
121.087	40
133.087	46
135.067	32
137.082	42
145.087	36
147.065	47
155.093	999
156.095	56
157.087	47
159.066	33
161.082	46
171.102	44
173.117	40
183.103	36
197.118	38
207.104	33
209.118	42
221.118	39
235.135	41
263.166	65
329.212	61
347.227	41
373.242	37
401.273	35
411.259	48
429.273	49
581.399	56
599.41	190
600.411	64
