Mass spectrum: Pretilachlor; ESI-QTOF; MS; POSITIVE
Name: Pretilachlor
Class: Non-natural product
Formula: C17H26ClNO2
Exact mass: 311.1652
SMILES: CCCOCCN(c1c(cccc1CC)CC)C(=O)CCl
InChI: InChI=1S/C17H26ClNO2/c1-4-11-21-12-10-19(16(20)13-18)17-14(5-2)8-7-9-15(17)6-3/h7-9H,4-6,10-13H2,1-3H3
Instrument: X500R QTOF (AB Sciex LLC, USA)
Instrument type: ESI-QTOF
Ms type: MS
Ion mode: POSITIVE
Ionization: ESI
m/z	relative intensity
105.0692	87
111.1162	30
121.1001	171
133.0642	36
151.0746	136
161.0589	161
179.0693	347
180.0731	38
199.1686	68
205.1944	76
223.063	92
252.114	320
254.1115	102
312.1708	991
313.1749	173
314.1688	316
334.1526	999
335.1568	169
336.1507	311
645.3179	109
