Mass spectrum: 4-Allyl-2-(4-methoxyphenyl)-5,5-dimethyl-1,3-dioxane; GC-EI-TOF; MS; positive; EI; 70 V
Name: 4-Allyl-2-(4-methoxyphenyl)-5,5-dimethyl-1,3-dioxane
Class: Non-natural product
Formula: C16H22O3
Exact mass: 262.15690
SMILES: COC1=CC=C(C=C1)C2OC(CC=C)C(C)(C)CO2
InChI: InChI=1S/C16H22O3/c1-5-6-14-16(2,3)11-18-15(19-14)12-7-9-13(17-4)10-8-12/h5,7-10,14-15H,1,6,11H2,2-4H3
Instrument: JMS-T100GCV (JEOL, Akishima, Japan) coupled to Agilent 7890A (Agilent, Wilmington, USA) gas chromatograph.
Instrument type: GC-EI-TOF
Ms type: MS
Ion mode: POSITIVE
Ionization: EI
Column name: HP-5 19091 J-413 USD364547H (Agilent, Wilmington, USA), length 30 m, I.D. 0.32 mm, thickness 0.25 micrometer.
Retention time: 10.04 min.
m/z	relative intensity
27.024	42
28.006	21
28.032	14
29.003	11
29.040	89
29.082	1
31.019	5
31.990	7
38.016	4
39.024	100
39.073	1
40.031	14
41.040	265
42.045	15
43.019	28
43.055	33
45.035	2
50.016	8
51.024	39
52.031	7
53.040	49
54.047	30
55.019	4
55.055	110
56.063	88
56.121	1
57.035	4
57.070	22
62.017	2
63.024	19
64.032	24
65.040	55
66.047	21
67.055	84
68.027	2
68.062	21
69.035	9
69.071	96
69.133	1
70.075	6
71.050	2
75.025	3
76.032	11
77.040	183
77.161	1
78.046	29
79.019	2
79.056	52
80.061	7
81.071	206
82.042	7
82.075	16
83.051	2
85.066	14
89.040	7
90.048	5
91.056	26
92.027	64
93.034	14
93.071	6
94.043	45
95.047	4
95.087	50
96.058	5
96.094	70
96.165	1
97.100	10
98.109	2
104.027	6
105.035	26
106.042	7
107.051	47
108.058	129
109.066	79
109.102	93
110.070	6
110.108	17
111.081	2
119.015	3
119.051	3
120.022	2
120.058	4
121.066	38
122.037	3
122.070	4
134.074	3
135.045	896
135.461	2
135.621	3
136.053	999
136.470	3
137.060	575
137.370	1
137.479	2
137.938	1
138.064	50
139.067	4
149.061	3
150.069	2
152.048	8
153.056	48
154.060	5
163.078	8
164.082	1
165.057	2
166.063	2
191.109	3
192.115	4
206.097	2
220.112	2
221.119	78
222.122	11
231.140	13
232.146	3
233.120	8
234.125	2
261.150	158
262.157	176
263.161	29
264.164	3
