Mass spectrum: Leucinostatin Y; ESI-ITFT; MS2; POSITIVE; [M+H]+; CE 35 %
Name: Leucinostatin Y
Class: Natural product; modulator of tumor-stroma interaction
Formula: C60H104N10O15
Exact mass: 1204.7682
SMILES: O=C(O)C(C)NC(=O)CCNC(=O)C(C)(C)NC(=O)C(C)(C)NC(=O)[C@H](CC(C)C)NC(=O)[C@H](CC(C)C)NC(=O)C(C)(C)NC(=O)[C@@H](NC(=O)[C@H](CC(C)CC(O)CC(=O)CC)NC(=O)[C@@H]1C[C@H](C)CN1C(=O)/C=C/C(C)CC)C(O)C(C)C
InChI: InChI=1S/C60H104N10O15/c1-19-35(9)21-22-46(74)70-31-37(11)29-44(70)52(79)64-43(28-36(10)27-40(72)30-39(71)20-2)50(77)66-47(48(75)34(7)8)53(80)68-59(15,16)56(84)65-41(25-32(3)4)49(76)63-42(26-33(5)6)51(78)67-60(17,18)57(85)69-58(13,14)55(83)61-24-23-45(73)62-38(12)54(81)82/h21-22,32-38,40-44,47-48,72,75H,19-20,23-31H2,1-18H3,(H,61,83)(H,62,73)(H,63,76)(H,64,79)(H,65,84)(H,66,77)(H,67,78)(H,68,80)(H,69,85)(H,81,82)/b22-21+/t35?,36?,37-,38?,40?,41-,42-,43-,44-,47-,48?/m0/s1
Instrument: LTQ Orbitrap XL hybrid iontrap-Orbitrap (Thermo Fisher Scientific, San Jose, CA, USA)
Instrument type: LC-ESI-ITFT
Ms type: MS2
Ion mode: POSITIVE
Collision energy: 35 % (nominal)
Fragmentation mode: HCD
Ionization: ESI
Ion type: [M+H]+
Precursor m/z: 1205.7755
m/z	relative intensity
194.1537	234
222.1485	763
435.2846	176
492.306	103
546.3525	501
547.3571	72
564.363	303
577.3583	75
601.4298	81
631.405	999
632.4084	178
649.4156	399
650.4198	103
717.9593	53
762.5	139
937.7406	58
943.3672	78
1087.5588	56
1276.3643	51
1559.4307	56
1898.389	115
