Mass spectrum: Acarbose; ESI-QQ; MS2; NEGATIVE; [M-H]-; CID; CE: 10 eV
Name: Acarbose
Class: Non-natural product.
Formula: C25H43NO18
Exact mass: 645.248015
SMILES: C[C@@H]1[C@H]([C@@H]([C@H]([C@H](O1)O[C@@H]2[C@H](O[C@@H]([C@@H]([C@H]2O)O)O[C@@H]3[C@H](O[C@H]([C@@H]([C@H]3O)O)O)CO)CO)O)O)N[C@H]4C=C([C@H]([C@@H]([C@H]4O)O)O)CO
InChI: InChI=1S/C25H43NO18/c1-6-11(26-8-2-7(3-27)12(30)15(33)13(8)31)14(32)19(37)24(40-6)43-22-10(5-29)42-25(20(38)17(22)35)44-21-9(4-28)41-23(39)18(36)16(21)34/h2,6,8-39H,3-5H2,1H3/t6-,8+,9-,10-,11-,12-,13+,14+,15+,16-,17-,18-,19-,20-,21-,22-,23-,24-,25-/m1/s1
Instrument: Triple Quad 4500 (AB Sciex Pte. Ltd., USA)
Instrument type: LC-ESI-QQ
Ms type: MS2
Ion mode: NEGATIVE
Collision energy: 10 eV
Fragmentation mode: CID
Ionization: ESI
Precursor m/z: 644.24074
Precursor type: [M-H]-
m/z	relative intensity
160.9241	23
215.9700	1
241.8706	2
245.8404	2
258.0255	2
259.9749	8
275.9703	7
301.9111	3
320.0345	65
362.1016	16
404.1267	7
422.1109	38
482.1051	198
524.1150	33
566.1300	50
584.1650	93
644.1948	999
