Mass spectrum: (3S)-3-Methylheptyl benzyl ether; GC-FI-TOF; MS; positive; FI; 10 kV
Name: (3S)-3-Methylheptyl benzyl ether
Class: Non-natural product
Formula: C15H24O
Exact mass: 220.18272
SMILES: C[C@@H](CCCC)CCOCC1=CC=CC=C1
InChI: InChI=1S/C15H24O/c1-3-4-8-14(2)11-12-16-13-15-9-6-5-7-10-15/h5-7,9-10,14H,3-4,8,11-13H2,1-2H3/t14-/m0/s1
Instrument: JMS-T100GCV (JEOL, Akishima, Japan) coupled to Agilent 7890A (Agilent, Wilmington, USA) gas chromatograph.
Instrument type: GC-FI-TOF
Ms type: MS
Ion mode: POSITIVE
Ionization: FI
Column name: HP-5 19091 J-413 USD364547H (Agilent, Wilmington, USA), length 30.0 m, I.D. 0.32 mm, thickness 0.25 micrometer.
Retention time: 8.74 min.
m/z	relative intensity
29.039	6
44.523	2
91.056	7
92.067	13
123.159	2
179.280	2
188.148	2
202.170	33
203.175	6
219.173	6
219.824	2
220.183	999
220.913	4
220.998	2
221.186	177
221.868	2
221.985	3
222.189	12
222.442	2
222.527	2
222.973	2
223.071	2
223.198	2
223.628	2
224.071	2
