Mass spectrum: Alachlor; GC-EI-Q; MS; Positive; M+*
Name: Alachlor
Class: Non-Natural Product; Pesticides
Formula: C14H20ClNO2
Exact mass: 269.11826
SMILES: COCN(C(=O)CCl)c(c(CC)1)c(CC)ccc1
InChI: InChI=1S/C14H20ClNO2/c1-4-11-7-6-8-12(5-2)14(11)16(10-18-3)13(17)9-15/h6-8H,4-5,9-10H2,1-3H3
Instrument: GCMS-QP2010 Plus, Shimadzu
Instrument type: GC-EI-Q
Ms type: MS
Ion mode: POSITIVE
Ionization: EI
Column name: Ptx-5MS(RESTEK), 0.32 mm I.D. x 30 m, df=0.25 microm
Retention time: 9.6 min
Ion type: [M]+*
Precursor m/z: 269.12
m/z	relative intensity
40	8
41	30
42	22
43	28
44	11
45	999
46	21
49	19
50	6
51	25
52	9
53	13
55	5
56	7
59	28
63	14
64	6
65	31
66	6
76	9
77	94
78	26
79	47
80	5
89	15
90	18
91	100
92	13
93	13
94	5
102	13
103	41
104	21
105	52
106	11
115	52
116	26
117	127
118	118
119	36
120	31
121	11
122	5
127	8
128	23
129	11
130	112
131	98
132	161
133	35
134	16
142	11
143	25
144	64
145	35
146	280
147	100
148	122
149	32
150	9
156	7
157	5
158	50
159	27
160	607
161	174
162	133
163	19
164	9
170	11
171	5
172	45
173	15
174	48
175	17
176	19
178	23
186	27
187	5
188	460
189	61
190	63
191	13
192	8
194	14
196	8
198	5
202	75
203	21
204	7
206	43
207	13
208	31
210	5
220	15
222	12
224	96
225	15
226	35
234	36
235	15
237	124
238	92
239	50
240	32
269	40
270	7
271	15
