Mass spectrum: MCPB methyl ester; GC-EI-Q; MS; Positive
Name: MCPB methyl ester
Class: Non-Natural Product; Pesticides
Formula: C12H15ClO3
Exact mass: 242.07097
SMILES: CC1=C(C=CC(=C1)Cl)OCCCC(=O)OC
InChI: InChI=1S/C12H15ClO3/c1-9-8-10(13)5-6-11(9)16-7-3-4-12(14)15-2/h5-6,8H,3-4,7H2,1-2H3
Instrument: GCMS-QP2010 Plus, Shimadzu
Instrument type: GC-EI-Q
Ms type: MS
Ion mode: POSITIVE
Ionization: EI
Column name: Ptx-5MS(RESTEK), 0.32 mm I.D. x 30 m, df=0.25 microm
Retention time: 8.29 min
m/z	relative intensity
40	8
41	156
42	45
43	11
45	13
50	9
51	44
52	13
53	6
55	8
59	709
60	19
63	23
65	7
69	135
70	7
71	8
73	15
74	11
75	13
76	5
77	177
78	30
79	21
85	5
89	64
90	14
91	15
99	17
100	7
101	999
102	59
103	7
105	11
107	169
108	12
112	7
113	15
115	7
124	4
125	50
127	18
141	40
142	118
143	26
144	37
146	5
155	27
157	10
193	13
211	53
212	5
213	16
242	47
243	6
244	15
