Mass spectrum: Trimethylamine oxide; ESI-QTOF; MS2; POSITIVE; [M+H]+; CID; 60 V
Name: Trimethylamine oxide
Class: Tertiary amine oxide
Formula: C3H9NO
Exact mass: 75.06841
SMILES: C[N+](C)(C)[O-]
InChI: InChI=1S/C3H9NO/c1-4(2,3)5/h1-3H3
Instrument: X500R QTOF (AB Sciex LLC, USA)
Instrument type: ESI-QTOF
Ms type: MS2
Ion mode: POSITIVE
Collision energy: 60 V
Fragmentation mode: CID
Ionization: ESI
Precursor m/z: 76.07569
Precursor type: [M+H]+
m/z	relative intensity	assigned
27.0226	58	[CH6N-5H]+
28.0178	156	[CH6N-4H]+
29.0129	112	
30.0334	69	
42.0336	999	[C2H8N-4H]+
43.0414	125	
