Mass spectrum: Epoxiconazole; LC-ESI-QTOF; MS2; [M+H]+; CID; CE 10V
Name: Epoxiconazole
Class: Non-natural product
Formula: C17H13ClFN3O
Exact mass: 329.073118
SMILES: C1=CC=C(C(=C1)[C@@H]2[C@@](O2)(CN3C=NC=N3)C4=CC=C(C=C4)F)Cl
InChI: InChI=1S/C17H13ClFN3O/c18-15-4-2-1-3-14(15)16-17(23-16,9-22-11-20-10-21-22)12-5-7-13(19)8-6-12/h1-8,10-11,16H,9H2/t16-,17-/m1/s1
Instrument: X500R QTOF (AB Sciex LLC, MA, USA) coupled to ExionLC AD (AB Sciex LLC, MA, USA).
Instrument type: LC-ESI-QTOF
Ms type: MS2
Ion mode: POSITIVE
Collision energy: 10 V
Fragmentation mode: CID
Ionization: ESI
Column name: TSKgel ODS-100S 5 um, 2.1 mm Ã— 250 mm, TOSOH
Retention time: 15.0 min
Precursor m/z: 330.080395
Precursor type: [M+H]+
m/z	relative intensity
121.045	246
123.0243	117
141.0104	51
330.0834	999
