Mass spectrum: 3-((4-Methoxybenzyl)oxy)-2,2-dimethylhex-5-enol; GC-EI-TOF; MS; positive; EI; 70 V
Name: 3-((4-Methoxybenzyl)oxy)-2,2-dimethylhex-5-enol
Class: Non-natural product
Formula: C16H24O3
Exact mass: 264.17255
SMILES: COC1=CC=C(COC(CC=C)C(C)(C)CO)C=C1
InChI: InChI=1S/C16H24O3/c1-5-6-15(16(2,3)12-17)19-11-13-7-9-14(18-4)10-8-13/h5,7-10,15,17H,1,6,11-12H2,2-4H3
Instrument: JMS-T100GCV (JEOL, Akishima, Japan) coupled to Agilent 7890A (Agilent, Wilmington, USA) gas chromatograph.
Instrument type: GC-EI-TOF
Ms type: MS
Ion mode: POSITIVE
Ionization: EI
Column name: HP-5 19091 J-413 USD364547H (Agilent, Wilmington, USA), length 30 m, I.D. 0.32 mm, thickness 0.25 micrometer.
Retention time: 10.27 min.
m/z	relative intensity
27.024	8
28.006	65
28.031	2
29.003	3
29.039	9
31.019	15
31.990	23
39.024	18
40.031	2
41.040	40
42.046	4
43.019	7
43.055	13
45.035	7
50.016	2
51.024	10
52.032	9
53.040	9
55.055	21
56.062	4
57.035	6
63.024	4
64.031	4
65.040	11
66.047	3
67.055	6
69.071	3
71.049	3
73.066	7
77.040	46
78.047	51
79.053	8
81.071	5
89.039	13
90.047	12
91.055	24
92.026	3
92.060	3
94.043	4
105.035	3
106.042	8
107.050	10
108.056	3
109.066	8
121.065	999
121.460	2
121.612	3
122.069	105
122.310	1
122.366	2
122.463	2
123.072	7
135.045	8
136.051	5
137.060	37
138.067	14
147.081	7
150.068	4
164.083	4
191.107	51
192.110	8
194.129	3
264.169	3
