Mass spectrum: Diadinochrome; LC-ESI-QTOF; MS2; POSITIVE; ESI; [M+H]+; CE 20 V
Name: Diadinochrome
Class: Natural product; Carotenoids Xanthophyll
Formula: C40H54O3
Exact mass: 582.4073
SMILES: CC1=C(C(C[C@@H](C1)O)(C)C)C#C/C(=C/C=C/C(=C/C=C/C=C(\C)/C=C/C=C(\C)/[C@@H]2C=C3[C@](O2)(C[C@H](CC3(C)C)O)C)/C)/C
InChI: InChI=1S/C40H54O3/c1-28(17-13-18-30(3)21-22-35-32(5)23-33(41)25-38(35,6)7)15-11-12-16-29(2)19-14-20-31(4)36-24-37-39(8,9)26-34(42)27-40(37,10)43-36/h11-20,24,33-34,36,41-42H,23,25-27H2,1-10H3/b12-11+,17-13+,19-14+,28-15+,29-16+,30-18+,31-20+/t33-,34+,36+,40-/m1/s1
Instrument: Xevo G2-S QtOF, Waters (USA) coupled to ACQUITY UPLC, Waters (USA).
Instrument type: LC-ESI-QTOF
Ms type: MS2
Ion mode: POSITIVE
Collision energy: 20 V
Ionization: ESI
Column name: BEH C18, I.D. 2.1 mm, length 100 mm, thickness 1.7 micrometer.
Ion type: [M+H]+
Precursor m/z: 583.4146
m/z	relative intensity
105.0557	101
107.0693	115
109.0853	85
119.0711	275
121.0907	193
123.0684	48
125.044	95
125.08	40
131.072	97
133.0872	199
135.1042	129
136.1052	48
137.0828	46
143.0721	108
145.0866	258
147.0706	45
147.1022	137
149.1213	43
157.0815	84
157.0891	123
159.0999	66
159.1063	49
163.095	63
169.0864	112
169.0925	55
171.1018	188
171.1122	73
172.108	40
173.1168	199
175.1343	107
181.1061	50
183.098	98
183.1066	125
184.1087	42
185.1137	83
185.1218	42
187.1316	57
187.1423	46
191.1233	94
191.1337	109
195.1103	87
197.1184	208
198.1228	56
199.1328	204
203.127	47
203.1348	44
207.1028	71
207.1139	63
209.1222	299
209.138	86
211.1314	40
211.1383	71
212.1345	45
213.1511	49
214.1491	51
217.146	269
219.1071	42
221.1148	132
221.1401	567
222.1257	79
222.1361	44
223.134	146
224.1397	41
225.1412	68
225.1509	62
225.1608	46
233.1192	82
234.1465	42
235.136	69
236.1371	65
237.1486	122
247.1311	129
247.141	46
247.1587	114
249.1551	50
251.1598	52
251.1707	63
253.1845	60
257.178	206
259.1367	51
260.1415	64
261.1447	120
261.1578	46
263.1648	99
265.178	195
265.1949	40
271.1362	43
273.1491	53
273.1649	41
275.1615	147
275.1714	64
276.1715	50
276.185	52
281.1757	62
283.1955	624
284.1943	69
287.1596	52
287.1921	40
289.1827	64
290.1895	79
291.1954	40
295.1939	40
300.2003	94
301.186	45
301.1972	110
303.1952	56
303.2057	52
313.2014	80
316.2048	60
317.2133	60
317.2272	42
331.2301	157
331.2439	54
332.2415	44
347.2335	41
349.2335	75
349.2433	98
349.2583	63
350.2473	54
353.2249	48
395.277	41
397.2349	51
443.2755	40
491.3448	110
547.3842	55
565.3957	119
565.4265	74
582.3655	52
583.3757	41
583.4128	999
583.4363	304
584.4211	385
584.4821	101
584.5065	467
585.4325	104
585.4819	42
585.5245	73
