Mass spectrum: Primisulfuron-methyl; LC-ESI-QTOF; MS2; [M-H]-; CID; CE 20V
Name: Primisulfuron-methyl
Class: Non-natural product
Formula: C15H12F4N4O7S
Exact mass: 468.036283
SMILES: COC(=O)C1=CC=CC=C1S(=O)(=O)NC(=O)NC2=NC(=CC(=N2)OC(F)F)OC(F)F
InChI: InChI=1S/C15H12F4N4O7S/c1-28-11(24)7-4-2-3-5-8(7)31(26,27)23-15(25)22-14-20-9(29-12(16)17)6-10(21-14)30-13(18)19/h2-6,12-13H,1H3,(H2,20,21,22,23,25)
Instrument: X500R QTOF (AB Sciex LLC, MA, USA) coupled to ExionLC AD (AB Sciex LLC, MA, USA).
Instrument type: LC-ESI-QTOF
Ms type: MS2
Ion mode: NEGATIVE
Collision energy: 20 V
Fragmentation mode: CID
Ionization: ESI
Column name: AQ-C18HP 3 microm, 2.1 mm Ã— 150 mm (GL Science, Tokyo, Japan).
Retention time: 33.9 min
Precursor m/z: 467.029006
Precursor type: [M-H]-
m/z	relative intensity
126.0306	4
176.0279	101
181.9917	7
186.0121	7
214.018	5
226.0247	999
