Mass spectrum: Cyanoguanidine; ESI-QTOF; MS2; ESI; POSITIVE; [M+H]+; CE 10 V
Name: Cyanoguanidine
Class: Non-natural product
Formula: C2H4N4
Exact mass: 84.04358
SMILES: N#CNC(=N)N
InChI: InChI=1S/C2H4N4/c3-1-6-2(4)5/h(H4,4,5,6)
Instrument: X500R QTOF (AB Sciex LLC, USA)
Instrument type: ESI-QTOF
Ms type: MS2
Ion mode: POSITIVE
Collision energy: 10 V
Ionization: ESI
Precursor m/z: 85.05086
Precursor type: [M+H]+
m/z	relative intensity
43.0312	61
68.0266	53
85.0522	999
