Mass spectrum: Symmetric dimethylarginine; ESI-QTOF; MS; POSITIVE
Name: Symmetric dimethylarginine
Class: Non-natural product; L-Arginine derivative
Formula: C8H18N4O2
Exact mass: 202.14296
SMILES: CNC(=NC)NCCC[C@@H](C(=O)O)N
InChI: InChI=1S/C8H18N4O2/c1-10-8(11-2)12-5-3-4-6(9)7(13)14/h6H,3-5,9H2,1-2H3,(H,13,14)(H2,10,11,12)/t6-/m0/s1
Instrument: X500R QTOF (AB Sciex LLC, USA)
Instrument type: ESI-QTOF
Ms type: MS
Ion mode: POSITIVE
Ionization: ESI
m/z	relative intensity
203.1494	999
204.1535	134
225.1328	41
