Mass spectrum: (3,3-diphenylpropyl)(2-methyloctyl)sulfane; GC-EI-TOF; MS; POSITIVE; EI; 70 V
Name: (3,3-diphenylpropyl)(2-methyloctyl)sulfane
Class: Non-natural compound
Formula: C24H34S
Exact mass: 354.23812
SMILES: CCCCCCC(C)CSCCC(c1ccccc1)c1ccccc1
InChI: InChI=1S/C24H34S/c1-3-4-5-8-13-21(2)20-25-19-18-24(22-14-9-6-10-15-22)23-16-11-7-12-17-23/h6-7,9-12,14-17,21,24H,3-5,8,13,18-20H2,1-2H3
Instrument: JMS-T100GCV (JEOL, Akishima, Japan) coupled to Agilent 7890A gas chromatograph.
Instrument type: GC-EI-TOF
Ms type: MS
Ion mode: POSITIVE
Ionization: EI
Column name: HP-5 30x0.32 0.25um 19091J-413, length 30.0 m, I.D. 0.32 mm, thickness 0.25 micrometer.
Retention time: 12.32 min.
m/z	relative intensity
27.024	15
28.007	15
29.04	48
31.99	9
39.024	13
41.04	106
41.09	1
42.047	14
43.055	195
44.059	7
44.98	26
45.988	6
46.996	14
51.024	6
53.04	5
55.056	67
56.063	16
57.071	111
57.129	1
58.075	5
58.996	4
60.004	5
61.012	114
61.075	1
62.015	4
63.008	5
65.04	10
67.056	7
69.071	45
70.077	5
71.087	96
72.09	5
73.012	4
74.02	6
75.027	6
77.04	18
78.047	6
79.056	6
81.071	3
83.087	14
85.102	50
86.106	3
87.028	4
89.042	9
91.056	177
92.059	15
101.043	6
102.048	6
103.056	35
104.063	10
105.071	4
110.02	7
115.056	83
116.063	168
117.071	80
118.075	9
123.028	81
124.032	8
125.025	4
127.056	2
127.148	2
128.064	11
129.071	4
137.043	14
139.056	7
141.072	6
149.044	5
151.056	8
152.064	84
153.068	15
159.122	4
163.057	5
164.064	9
165.072	186
166.078	80
167.087	206
168.092	37
169.097	3
173.138	2
176.063	2
177.071	3
178.079	43
179.087	145
180.092	30
181.101	9
187.153	204
187.343	1
188.156	26
189.072	2
189.15	10
191.087	5
192.095	4
193.103	506
193.235	16
193.598	2
193.716	2
194.11	999
194.8	3
195.114	159
195.789	2
196.118	12
196.308	2
197.044	3
207.033	3
236.16	67
237.164	12
238.158	4
354.238	175
355.242	49
356.239	13
357.238	3
