Mass spectrum: (R)-Citronellyl benzyl ether; GC-FI-TOF; MS; positive; FI; 10 kV
Name: (R)-Citronellyl benzyl ether
Class: Non-natural product
Formula: C17H26O
Exact mass: 246.19837
SMILES: C[C@H](CCC=C(C)C)CCOCC1=CC=CC=C1
InChI: InChI=1S/C17H26O/c1-15(2)8-7-9-16(3)12-13-18-14-17-10-5-4-6-11-17/h4-6,8,10-11,16H,7,9,12-14H2,1-3H3/t16-/m1/s1
Instrument: JMS-T100GCV (JEOL, Akishima, Japan) coupled to Agilent 7890A (Agilent, Wilmington, USA) gas chromatograph.
Instrument type: GC-FI-TOF
Ms type: MS
Ion mode: POSITIVE
Ionization: FI
Column name: HP-5 19091 J-413 USD364547H (Agilent, Wilmington, USA), length 30.0 m, I.D. 0.32 mm, thickness 0.25 micrometer.
Retention time: 9.48 min.
m/z	relative intensity
69.072	4
91.055	4
123.100	158
123.602	30
137.135	6
138.141	81
139.145	12
140.153	3
154.138	9
155.144	138
156.149	14
161.095	13
162.100	3
173.713	2
173.845	3
202.168	2
217.194	4
228.185	3
246.198	999
246.972	5
247.202	190
248.031	2
248.206	20
249.241	2
