Mass spectrum: Methyl [(1S)-(1,2-dimethylcyclopent-2-en-1-yl]acetate; GC-EI-TOF; MS; positive; EI; 70 V
Name: Methyl [(1S)-(1,2-dimethylcyclopent-2-en-1-yl]acetate
Class: Non-natural product
Formula: C10H16O2
Exact mass: 168.11503
SMILES: COC(=O)C[C@]1(C)CCC=C1C
InChI: InChI=1S/C10H16O2/c1-8-5-4-6-10(8,2)7-9(11)12-3/h5H,4,6-7H2,1-3H3/t10-/m0/s1
Instrument: JMS-T100GCV (JEOL, Akishima, Japan) coupled to Agilent 7890A (Agilent, Wilmington, USA) gas chromatograph.
Instrument type: GC-EI-TOF
Ms type: MS
Ion mode: POSITIVE
Ionization: EI
Column name: HP-5 19091 J-413 USD364547H (Agilent, Wilmington, USA), length 30 m, I.D. 0.32 mm, thickness 0.25 micrometer.
Retention time: 6.36 min.
m/z	relative intensity
27.024	53
28.006	35
28.031	9
29.003	7
29.040	33
31.019	6
31.990	12
38.016	4
39.024	97
39.076	1
40.031	16
41.040	104
41.092	1
42.012	13
42.045	6
43.019	21
43.055	11
45.035	6
50.016	7
51.024	28
52.032	15
53.040	69
54.046	9
55.019	3
55.055	84
55.116	1
56.059	4
59.014	32
59.050	2
63.024	8
64.031	2
65.040	40
66.047	10
67.055	156
68.059	11
69.071	4
74.037	8
75.045	6
77.040	120
77.108	1
78.046	23
79.055	294
80.060	28
81.071	11
91.055	102
91.126	1
92.061	14
93.071	231
94.078	999
94.558	3
94.895	2
95.086	885
95.570	3
95.923	2
96.090	68
96.176	1
96.269	1
97.094	2
103.056	2
105.071	6
107.087	11
108.094	7
109.102	4
111.082	15
121.066	19
122.069	2
136.089	26
137.095	10
139.077	2
153.092	8
168.115	155
169.119	18
170.121	2
