Mass spectrum: Genistin; ESI-QTOF; MS2; NEGATIVE; [M-H]-; CID; 50 V
Name: Genistin
Class: 7-hydroxyisoflavone
Formula: C21H20O10
Exact mass: 432.10565
SMILES: C1=CC(=CC=C1C2=COC3=CC(=CC(=C3C2=O)O)O[C@H]4[C@@H]([C@H]([C@@H]([C@H](O4)CO)O)O)O)O
InChI: InChI=1S/C21H20O10/c22-7-15-18(26)19(27)20(28)21(31-15)30-11-5-13(24)16-14(6-11)29-8-12(17(16)25)9-1-3-10(23)4-2-9/h1-6,8,15,18-24,26-28H,7H2/t15-,18-,19+,20-,21-/m1/s1
Instrument: X500R QTOF (AB Sciex LLC, USA)
Instrument type: ESI-QTOF
Ms type: MS2
Ion mode: NEGATIVE
Collision energy: 50 V
Fragmentation mode: CID
Ionization: ESI
Precursor m/z: 431.09837
Precursor type: [M-H]-
m/z	relative intensity
133.029	38
224.0473	50
239.0345	101
240.0419	51
267.0294	128
268.037	511
269.0445	999
