Mass spectrum: 2,3-Dimethylhepta-1,6-dien-3-ol; GC-FI-TOF; MS; positive; FI; 10 kV
Name: 2,3-Dimethylhepta-1,6-dien-3-ol
Class: Non-natural product
Formula: C9H16O
Exact mass: 140.12012
SMILES: CC(=C)C(C)(CCC=C)O
InChI: InChI=1S/C9H16O/c1-5-6-7-9(4,10)8(2)3/h5,10H,1-2,6-7H2,3-4H3
Instrument: JMS-T100GCV (JEOL, Akishima, Japan) coupled to Agilent 7890A (Agilent, Wilmington, USA) gas chromatograph.
Instrument type: GC-FI-TOF
Ms type: MS
Ion mode: POSITIVE
Ionization: FI
Column name: HP-5 19091 J-413 USD364547H (Agilent, Wilmington, USA), length 30.0 m, I.D. 0.32 mm, thickness 0.25 micrometer.
Retention time: 6.17 min.
m/z	relative intensity
85.065	165
86.073	999
87.076	55
107.086	11
111.077	23
122.109	207
123.115	71
125.095	36
140.120	121
141.127	16
