Mass spectrum: Allethrin 1; GC-EI-Q; MS; Positive; M+*
Name: Allethrin 1
Class: Non-Natural Product; Pesticides
Formula: C19H26O3
Exact mass: 302.18819
SMILES: C=CCC(C(=O)2)=C(C)C(C2)OC(=O)C(C(C=C(C)C)1)C(C)(C)1
InChI: InChI=1S/C19H26O3/c1-7-8-13-12(4)16(10-15(13)20)22-18(21)17-14(9-11(2)3)19(17,5)6/h7,9,14,16-17H,1,8,10H2,2-6H3
Instrument: GCMS-QP2010 Plus, Shimadzu
Instrument type: GC-EI-Q
Ms type: MS
Ion mode: POSITIVE
Ionization: EI
Column name: Ptx-5MS(RESTEK), 0.32 mm I.D. x 30 m, df=0.25 microm
Retention time: 11.6 min
Ion type: [M]+*
Precursor m/z: 302.2
m/z	relative intensity
40	103
41	252
43	151
44	103
45	5
46	16
47	7
48	13
51	95
52	19
53	137
54	17
55	103
56	7
57	13
59	6
61	18
62	22
64	23
65	105
66	12
67	70
69	60
71	45
73	20
76	5
77	124
78	74
79	398
80	57
81	398
83	47
85	10
87	39
91	291
92	73
93	291
95	64
97	18
99	7
105	125
106	27
107	230
108	55
109	35
115	30
120	12
121	74
122	37
123	999
124	82
125	60
130	12
131	15
133	49
134	40
135	72
136	285
137	11
138	5
141	12
143	6
145	11
146	12
149	7
151	15
152	13
157	18
161	16
167	7
168	71
173	16
180	8
187	5
188	7
191	5
193	17
194	11
196	10
205	15
206	6
208	16
210	10
212	10
216	6
220	12
221	7
225	7
228	7
238	12
241	5
256	18
267	24
291	12
302	10
305	8
310	5
311	7
312	9
315	12
320	7
327	8
330	22
333	5
340	10
342	5
346	12
352	13
355	21
362	5
363	6
366	9
367	7
373	5
374	7
410	5
426	5
428	18
429	11
434	6
437	5
439	6
447	7
454	5
460	5
477	19
480	19
518	7
561	19
