Mass spectrum: alpha-Ketoglutaric acid; GC-EI-Q; MS; positive; MEOX,2 TBDMS-derivative
Name: alpha-Ketoglutaric acid
Class: Natural Product
Formula: C5H6O5
Exact mass: 146.02152
SMILES: C(CC(=O)O)C(=O)C(=O)O
InChI: InChI=1S/C5H6O5/c6-3(5(9)10)1-2-4(7)8/h1-2H2,(H,7,8)(H,9,10)
Instrument: GCMS-QP2010 Ultra (Shimadzu, Kyoto, Japan)
Instrument type: GC-EI-Q
Ms type: MS
Ion mode: POSITIVE
Column name: DB-5MS+DG (Agilent Technologies, Santa Clara, CA, USA)
Derivative form: C18H37NO5Si2
Derivative mass: 403.22102
Derivative type: MEOX, 2 TBDMS
m/z	relative intensity	assigned
54.05	18	
55	183	
56.05	17	
57.05	38	
58.05	39	
59.05	106	
60	12	
61	14	
72.15	12	
73.05	999	
74.05	100	
75.05	331	
76.05	23	
77	12	
82.05	14	
84.05	26	
85.05	14	
86.05	12	
89.05	118	
90.05	10	
99.1	37	
112.1	20	
115.1	104	
116.15	14	
129.1	16	
131.1	12	
133.1	54	
144.6	72	
147.1	418	
148.1	63	
149.1	69	
156.05	287	C6H10NO2Si+
157.05	41	
158.05	19	
184	10	
186.05	100	C7H12NO3Si+
187.05	23	
189.1	23	
228.1	10	
230.05	13	
258.05	57	
259	12	
346.15	510	
347.15	130	
348.15	54	
388.2	12	
