Mass spectrum: 2-(4-Methoxyphenyl)ethylamine; LC-ESI-QQ; MS2; POSITIVE; [M+H-NH3]+; CID; 40 V
Name: 2-(4-Methoxyphenyl)ethylamine
Class: Non-natural product; Phenethylamine
Formula: C9H13NO
Exact mass: 151.09971
SMILES: COC1=CC=C(C=C1)CCN
InChI: InChI=1S/C9H13NO/c1-11-9-4-2-8(3-5-9)6-7-10/h2-5H,6-7,10H2,1H3
Instrument: Xevo TQS micro (Waters, MA, USA) coupled to ACQUITY UPLC H-Class (Waters, MA, USA)
Instrument type: LC-ESI-QQ
Ms type: MS2
Ion mode: POSITIVE
Collision energy: 40 V
Fragmentation mode: CID
Ionization: ESI
Column name: Acquity UPLC BEH AMIDE column (1.7 Âµm, 2.1 x 150 mm; Waters, MA, USA)
Precursor m/z: 135.08044
Precursor type: [M+H-NH3]+
m/z	relative intensity
37.8	12
38.9	122
39.2	51
39.9	5
40.1	13
40.8	79
41.2	29
50	17
50.2	9
50.9	418
51.1	288
51.9	37
52.2	19
52.8	11
53	12
53.2	12
62.7	47
62.9	42
63.1	20
63.3	29
63.5	9
63.9	57
64.1	39
64.9	305
65.1	304
65.7	9
66.1	25
74.8	7
76.1	11
76.8	348
77	795
77.8	42
78	35
78.2	32
78.6	22
79	56
79.2	46
88.8	13
89	19
89.3	10
89.6	5
90.1	17
90.8	613
91	999
91.7	12
92	49
92.3	22
92.8	10
93.7	5
94	11
94.2	6
102	15
102.3	5
103	46
103.2	25
103.4	12
105.1	13
107.9	7
119.1	7
