Mass spectrum: rac-(2R,5R)-2-((S)-2-acetoxybut-3-en-1-yl)-5-(acetoxymethyl)tetrahydrofuran; GC-EI-TOF; MS; POSITIVE; EI; 70 V
Name: rac-(2R,5R)-2-((S)-2-acetoxybut-3-en-1-yl)-5-(acetoxymethyl)tetrahydrofuran
Class: Non-natural compound
Formula: C13H20O5
Exact mass: 256.13108
SMILES: C=C[C@H](C[C@H]1CC[C@H](COC(C)=O)O1)OC(C)=O
InChI: InChI=1S/C13H20O5/c1-4-11(17-10(3)15)7-12-5-6-13(18-12)8-16-9(2)14/h4,11-13H,1,5-8H2,2-3H3/t11-,12-,13-/m1/s1
Instrument: JMS-T100GCV (JEOL, Akishima, Japan) coupled to Agilent 7890A gas chromatograph.
Instrument type: GC-EI-TOF
Ms type: MS
Ion mode: POSITIVE
Ionization: EI
Column name: ZB-1MS 7HM-G011-11 sn:313446, length 30.0 m, I.D. 0.32 mm, thickness 0.25 micrometer.
Retention time: 9.02 min.
m/z	relative intensity
27.023	24
28.006	67
28.031	9
29.002	11
29.039	22
31.018	7
31.99	6
39.023	31
40.03	5
41.039	62
42.01	16
42.046	10
43.018	999
43.055	14
43.341	3
43.564	2
43.803	1
43.831	1
44.022	24
44.064	1
45.033	4
51.023	3
52.031	3
53.039	26
54.047	59
55.018	57
55.054	91
56.025	12
56.06	9
57.034	40
57.07	3
58.041	8
61.029	24
65.039	8
66.046	13
67.054	67
68.026	8
68.06	7
69.034	96
69.069	4
70.04	16
71.049	15
72.057	11
73.029	8
74.036	6
77.039	19
78.046	11
79.054	432
80.06	64
80.104	1
80.135	1
81.034	49
81.07	40
82.041	43
83.049	165
84.054	13
85.028	4
85.064	4
86.036	7
87.044	31
91.054	12
92.061	7
93.07	47
94.041	6
94.077	15
95.049	24
95.086	186
96.057	41
97.064	13
98.072	6
99.044	34
100.051	8
101.06	20
103.042	4
105.07	43
106.073	4
107.049	6
107.085	3
108.056	6
109.065	3
110.073	4
111.079	2
113.059	2
114.067	5
117.069	4
118.078	6
121.065	9
122.072	2
123.08	74
124.084	6
129.055	3
135.081	4
136.088	31
137.093	6
140.084	4
141.09	3
143.07	132
144.074	10
153.091	5
154.098	5
156.079	5
183.102	108
184.106	11
185.091	2
196.11	33
197.115	6
213.114	2
