Mass spectrum: Trigonelline; ESI-QTOF; MS2; POSITIVE; [M+H]+; CID; 60 V
Name: Trigonelline
Class: Alkaloid
Formula: C7H7NO2
Exact mass: 137.04768
SMILES: C[N+]1=CC=CC(=C1)C(=O)[O-]
InChI: InChI=1S/C7H7NO2/c1-8-4-2-3-6(5-8)7(9)10/h2-5H,1H3
Instrument: X500R QTOF (AB Sciex LLC, USA)
Instrument type: ESI-QTOF
Ms type: MS2
Ion mode: POSITIVE
Collision energy: 60 V
Fragmentation mode: CID
Ionization: ESI
Precursor m/z: 138.05495
Precursor type: [M+H]+
m/z	relative intensity	assigned
26.0151	69	
27.0227	360	
28.0178	55	
39.0228	999	
40.0307	95	
41.0259	49	
41.0384	337	
42.0337	366	
50.0151	182	
51.0228	583	
52.0307	672	
53.0385	215	
65.0385	357	
66.0339	195	
66.0458	107	
67.0416	82	
78.0337	124	[C5H6N-2H]+
79.0415	151	[C5H6N-H]+
