Mass spectrum: 6-((4-Methoxybenzyl)oxy)-7,7-dimethylcyclohept-3-en-1-ol; GC-EI-TOF; MS; positive; EI; 70 V
Name: 6-((4-Methoxybenzyl)oxy)-7,7-dimethylcyclohept-3-en-1-ol
Class: Non-natural product
Formula: C17H24O3
Exact mass: 276.17255
SMILES: COC1=CC=C(COC2CC=CCC(O)C2(C)C)C=C1
InChI: InChI=1S/C17H24O3/c1-17(2)15(18)6-4-5-7-16(17)20-12-13-8-10-14(19-3)11-9-13/h4-5,8-11,15-16,18H,6-7,12H2,1-3H3
Instrument: JMS-T100GCV (JEOL, Akishima, Japan) coupled to Agilent 7890A (Agilent, Wilmington, USA) gas chromatograph.
Instrument type: GC-EI-TOF
Ms type: MS
Ion mode: POSITIVE
Ionization: EI
Column name: HP-5 19091 J-413 USD364547H (Agilent, Wilmington, USA), length 30 m, I.D. 0.32 mm, thickness 0.25 micrometer.
Retention time: 11.01 min.
m/z	relative intensity
27.024	11
28.006	20
28.031	2
29.003	4
29.040	14
31.019	4
31.990	8
39.024	16
40.031	3
41.040	32
42.046	3
43.019	14
43.055	22
45.035	4
51.024	9
52.032	8
53.040	11
54.047	5
55.019	4
55.055	30
56.061	3
57.035	11
63.024	4
64.031	3
65.040	12
66.047	4
67.055	11
69.035	2
69.071	4
71.050	5
72.058	5
73.066	3
77.040	44
78.047	45
79.054	12
80.062	2
81.071	3
82.079	2
83.050	7
89.040	10
90.047	10
91.055	25
92.027	3
92.060	3
93.071	4
94.043	4
95.050	2
95.086	3
105.034	3
106.043	6
107.050	9
108.056	2
109.066	7
121.065	999
121.460	2
121.611	3
122.069	100
122.391	1
122.789	1
122.852	1
123.072	6
135.045	12
136.052	6
137.060	41
138.067	16
150.068	3
176.120	2
243.139	8
244.142	2
258.161	18
259.165	4
276.171	13
277.174	2
