Mass spectrum: 2-(4-Nitrophenyl)ethylamine; LC-ESI-QQ; MS2; POSITIVE; [M+H-NH3]+; CID; 40 V
Name: 2-(4-Nitrophenyl)ethylamine
Class: Non-natural product; 4-Nitrophenethylamine
Formula: C8H10N2O2
Exact mass: 166.07422
SMILES: C1=CC(=CC=C1CCN)[N+](=O)[O-]
InChI: InChI=1S/C8H10N2O2/c9-6-5-7-1-3-8(4-2-7)10(11)12/h1-4H,5-6,9H2
Instrument: Xevo TQS micro (Waters, MA, USA) coupled to ACQUITY UPLC H-Class (Waters, MA, USA)
Instrument type: LC-ESI-QQ
Ms type: MS2
Ion mode: POSITIVE
Collision energy: 40 V
Fragmentation mode: CID
Ionization: ESI
Column name: Acquity UPLC BEH AMIDE column (1.7 Âµm, 2.1 x 150 mm; Waters, MA, USA)
Precursor m/z: 150.054952
Precursor type: [M+H-NH3]+
m/z	relative intensity
26.6	6
29.9	19
38.4	11
38.7	53
38.9	20
39.1	57
39.7	6
40.7	32
41.1	8
41.3	10
49.6	21
49.9	43
50.2	30
50.7	91
50.9	156
51.1	97
51.3	82
51.6	28
51.9	92
52.1	51
52.4	25
52.8	8
53.2	8
62.5	10
62.9	75
63.3	39
64.0	6
64.2	8
64.8	104
65.1	140
74.2	5
74.8	8
75.2	12
75.7	18
76.0	15
77.0	999
77.3	304
77.9	344
78.2	336
88.7	11
89.1	22
90.7	98
90.9	85
91.1	184
91.7	6
101.7	18
101.8	16
102.2	27
102.9	250
103.2	130
103.9	8
