Mass spectrum: Asymmetric dimethylarginine; ESI-QTOF; MS2; POSITIVE; [M+H]+; CID; 50 V
Name: Asymmetric dimethylarginine
Class: Non-natural product; Arginine derivative
Formula: C8H18N4O2
Exact mass: 202.14296
SMILES: CN(C)C(=NCCC[C@@H](C(=O)O)N)N
InChI: InChI=1S/C8H18N4O2/c1-12(2)8(10)11-5-3-4-6(9)7(13)14/h6H,3-5,9H2,1-2H3,(H2,10,11)(H,13,14)/t6-/m0/s1
Instrument: X500R QTOF (AB Sciex LLC, USA)
Instrument type: ESI-QTOF
Ms type: MS2
Ion mode: POSITIVE
Collision energy: 50 V
Fragmentation mode: CID
Ionization: ESI
Precursor m/z: 203.150237
Precursor type: [M+H]+
m/z	relative intensity
28.0187	27
30.0343	46
41.0392	74
42.0346	39
43.0297	79
43.0546	162
44.05	120
46.0652	826
55.0297	106
56.0375	97
57.0456	39
68.0503	74
70.0649	999
71.06	673
72.0815	56
88.088	51
