Mass spectrum: 2-(4-Methoxyphenyl)ethylamine; ESI-QQ; MS; POSITIVE
Name: 2-(4-Methoxyphenyl)ethylamine
Class: Non-natural product; Phenethylamine
Formula: C9H13NO
Exact mass: 151.09971
SMILES: COC1=CC=C(C=C1)CCN
InChI: InChI=1S/C9H13NO/c1-11-9-4-2-8(3-5-9)6-7-10/h2-5H,6-7,10H2,1H3
Instrument: Xevo TQS micro (Waters, MA, USA)
Instrument type: ESI-QQ
Ms type: MS
Ion mode: POSITIVE
Ionization: ESI
m/z	relative intensity
74.1	14
81.5	33
90.4	7
90.7	12
93.9	5
94.1	6
97.6	49
102.1	52
102.9	7
105.1	64
109.2	7
109.8	5
110.2	6
120.1	13
121.1	5
125.9	7
126.1	12
130.4	17
130.6	10
135.1	999
136.2	116
137.1	9
139.1	7
144.1	8
149.1	11
152.2	63
153.2	13
155.2	5
156.1	14
157.2	12
158.1	18
167.1	40
169.2	7
174.2	6
181.1	8
183.0	14
185.0	6
185.2	5
190.1	7
191.0	6
199.1	10
