Mass spectrum: Cumyluron; ESI-QTOF; MS2; NEGATIVE; [M-H]-; 37Cl-isotopolog ion; CID; 20 V
Name: Cumyluron
Class: Non-natural product
Formula: C17H19ClN2O
Exact mass: 302.1186
SMILES: CC(C)(c1ccccc1)NC(=O)NCc2ccccc2Cl
InChI: InChI=1S/C17H19ClN2O/c1-17(2,14-9-4-3-5-10-14)20-16(21)19-12-13-8-6-7-11-15(13)18/h3-11H,12H2,1-2H3,(H2,19,20,21)
Instrument: X500R QTOF (AB Sciex LLC, USA)
Instrument type: ESI-QTOF
Ms type: MS2
Ion mode: NEGATIVE
Collision energy: 20 V
Fragmentation mode: CID
Ionization: ESI
Precursor m/z: 303.1084
Precursor type: [M-H]-
m/z	relative intensity
36.9661	197
41.9981	66
56.0501	51
77.0392	52
112.9973	316
130.0294	135
142.0238	130
145.0528	52
160.0762	97
168.003	970
185.0296	277
189.1027	94
303.108	999
