Mass spectrum: Indoxyl sulfate; ESI-QTOF; MS2; NEGATIVE; [M-H]-; CID; 30 V
Name: Indoxyl sulfate
Class: Non-natural product; Aryl sulfate
Formula: C8H7NO4S
Exact mass: 213.00958
SMILES: C1=CC=C2C(=C1)C(=CN2)OS(=O)(=O)O
InChI: InChI=1S/C8H7NO4S/c10-14(11,12)13-8-5-9-7-4-2-1-3-6(7)8/h1-5,9H,(H,10,11,12)
Instrument: X500R QTOF (AB Sciex LLC, USA)
Instrument type: ESI-QTOF
Ms type: MS2
Ion mode: NEGATIVE
Collision energy: 30 V
Fragmentation mode: CID
Ionization: ESI
Precursor m/z: 212.00230
Precursor type: [M-H]-
m/z	relative intensity
77.0387	461
79.9568	999
80.3806	167
80.9638	629
92.0499	258
104.0494	565
132.0436	766
212.0023	114
