Mass spectrum: 3-O-Acetyl-16alpha-hydroxytrametenolic acid; ESI-QTOF; MS2; POSITIVE; [M+H]+; CID; 50 V
Name: 3-O-Acetyl-16alpha-hydroxytrametenolic acid
Class: Non-natural product; Bile acid
Formula: C32H50O5
Exact mass: 514.36583
SMILES: CC(=CCC[C@H]([C@H]1[C@@H](C[C@@]2([C@@]1(CCC3=C2CCC4[C@@]3(CC[C@@H](C4(C)C)OC(=O)C)C)C)C)O)C(=O)O)C
InChI: InChI=1S/C32H50O5/c1-19(2)10-9-11-21(28(35)36)27-24(34)18-32(8)23-12-13-25-29(4,5)26(37-20(3)33)15-16-30(25,6)22(23)14-17-31(27,32)7/h10,21,24-27,34H,9,11-18H2,1-8H3,(H,35,36)/t21-,24-,25?,26+,27+,30-,31-,32+/m1/s1
Instrument: X500R QTOF (AB Sciex LLC, USA)
Instrument type: ESI-QTOF
Ms type: MS2
Ion mode: POSITIVE
Collision energy: 50 V
Fragmentation mode: CID
Ionization: ESI
Precursor m/z: 515.37310
Precursor type: [M+H]+
m/z	relative intensity
55.0548	75
57.0705	34
65.0392	12
67.0549	122
69.0705	124
77.0392	53
79.0549	120
81.0706	254
83.0862	87
91.0549	149
93.0705	396
95.0861	423
97.1018	46
105.0705	253
107.086	650
109.1017	426
111.081	40
117.0704	59
119.086	474
121.1016	797
123.081	62
123.1173	242
125.0966	44
128.0624	19
129.0704	55
131.0859	257
133.1016	397
135.0809	20
135.1172	363
137.1329	57
139.0758	35
142.0781	25
143.086	193
144.0937	29
145.1016	476
147.1171	326
149.1328	118
153.0914	40
155.0859	50
156.0937	30
157.1015	340
158.1093	41
159.1171	657
161.1327	303
163.1485	143
169.1015	105
171.1171	427
172.1249	37
173.1327	999
174.1405	49
175.1484	221
179.1433	33
183.1171	137
185.1327	437
186.1406	58
187.1483	666
189.164	124
195.1171	37
197.1327	244
198.1406	48
199.1483	378
200.1561	31
201.164	172
203.1797	38
209.1327	48
211.1483	250
212.1561	74
213.164	454
214.1717	69
215.1797	174
223.1482	52
225.1639	256
226.1717	53
227.1796	289
229.1952	159
237.164	70
239.1795	222
240.1872	35
241.1951	212
243.2108	51
251.1795	55
