Mass spectrum: Acetyldaidzin; ESI-QTOF; MS; NEGATIVE
Name: Acetyldaidzin
Class: Glycosyloxyisoflavone
Formula: C23H22O10
Exact mass: 458.12130
SMILES: CC(=O)OC[C@@H]1[C@H]([C@@H]([C@H]([C@@H](O1)OC2=CC3=C(C=C2)C(=O)C(=CO3)C4=CC=C(C=C4)O)O)O)O
InChI: InChI=1S/C23H22O10/c1-11(24)30-10-18-20(27)21(28)22(29)23(33-18)32-14-6-7-15-17(8-14)31-9-16(19(15)26)12-2-4-13(25)5-3-12/h2-9,18,20-23,25,27-29H,10H2,1H3/t18-,20-,21+,22-,23-/m1/s1
Instrument: X500R QTOF (AB Sciex LLC, USA)
Instrument type: ESI-QTOF
Ms type: MS
Ion mode: NEGATIVE
Ionization: ESI
m/z	relative intensity
253.0545	999
254.058	166
457.1188	533
457.6196	54
458.1224	126
493.0961	202
494.0996	50
495.0941	74
503.1249	202
504.1279	57
517.1405	188
518.1442	51
547.1511	469
548.1547	135
686.179	171
686.6807	132
687.182	59
915.2412	753
915.7413	128
916.2447	391
917.2481	114
