Mass spectrum: alpha-Thioglycerol; FAB-BE; MS; Positive; Matrix alpha-Thioglycerol
Name: alpha-Thioglycerol
Name: 3-Mercapto-1,2-propanediol
Class: Non-Natural Product
Formula: C3H8O2S
Exact mass: 108.02450
SMILES: OCC(O)CS
InChI: InChI=1S/C3H8O2S/c4-1-3(5)2-6/h3-6H,1-2H2
Instrument: JMS-700, JEOL
Instrument type: FAB-BE
Ms type: MS
Ion mode: POSITIVE
Ionization: FAB
m/z	relative intensity
15	7
19	6
27	19
29	28
31	45
35	9
39	14
41	38
42	6
43	44
44	11
45	146
46	8
47	163
48	12
49	11
55	26
57	257
58	15
59	44
60	12
61	126
62	10
63	9
67	9
69	18
71	19
72	19
73	316
74	24
75	35
76	12
77	31
79	20
81	11
83	12
85	7
87	20
88	10
89	92
90	107
91	999
92	44
93	50
95	10
97	7
99	5
103	23
104	5
105	70
106	18
107	23
108	24
109	293
110	14
111	17
113	12
119	13
121	20
122	8
123	49
124	7
125	6
129	5
131	19
133	17
135	6
137	6
139	6
141	6
145	14
147	80
148	10
149	61
150	8
151	8
161	6
163	37
164	10
165	28
167	18
179	53
180	13
181	124
182	14
183	22
195	8
196	10
197	83
198	22
199	79
200	8
201	8
213	42
214	88
215	174
216	31
217	363
218	33
219	38
237	7
239	6
253	5
255	10
257	10
271	6
279	8
282	5
287	11
288	14
289	48
290	7
291	8
305	9
307	18
321	8
323	30
325	19
375	5
391	35
392	10
397	6
413	14
429	19
503	6
