Mass spectrum: Pretilachlor; ESI-QTOF; MS2; POSITIVE; [M+H]+; CID; 60 V
Name: Pretilachlor
Class: Non-natural product
Formula: C17H26ClNO2
Exact mass: 311.1652
SMILES: CCCOCCN(c1c(cccc1CC)CC)C(=O)CCl
InChI: InChI=1S/C17H26ClNO2/c1-4-11-21-12-10-19(16(20)13-18)17-14(5-2)8-7-9-15(17)6-3/h7-9H,4-6,10-13H2,1-3H3
Instrument: X500R QTOF (AB Sciex LLC, USA)
Instrument type: ESI-QTOF
Ms type: MS2
Ion mode: POSITIVE
Collision energy: 60 V
Fragmentation mode: CID
Ionization: ESI
Precursor m/z: 312.1725
Precursor type: [M+H]+
m/z	relative intensity
45.0333	61
48.9839	128
76.9788	37
77.0385	199
79.0541	170
91.0542	221
103.0541	166
105.0697	285
117.0572	298
118.065	193
119.0729	116
120.0806	134
130.065	205
131.0728	179
132.0805	999
144.0806	104
146.0963	77
147.104	326
160.112	114
