Mass spectrum: Glycitein; ESI-QTOF; MS2; POSITIVE; [M+H]+; CID; 50 V
Name: Glycitein
Class: Natural product; Isoflavone
Formula: C16H12O5
Exact mass: 284.06847
SMILES: COC1=C(C=C2C(=C1)C(=O)C(=CO2)C3=CC=C(C=C3)O)O
InChI: InChI=1S/C16H12O5/c1-20-15-6-11-14(7-13(15)18)21-8-12(16(11)19)9-2-4-10(17)5-3-9/h2-8,17-18H,1H3
Instrument: X500R QTOF (AB Sciex LLC, USA)
Instrument type: ESI-QTOF
Ms type: MS2
Ion mode: POSITIVE
Collision energy: 50 V
Fragmentation mode: CID
Ionization: ESI
Precursor m/z: 285.07575
Precursor type: [M+H]+
m/z	relative intensity
55.0176	56
65.0384	64
91.054	163
96.0203	245
105.0332	91
106.0411	99
111.0437	157
115.0539	229
118.0409	999
119.0488	97
121.0281	123
124.0151	345
125.023	215
141.0695	402
157.0645	236
158.0723	126
168.0565	674
169.0645	314
185.0594	181
197.0594	444
213.0544	247
242.057	887
