Mass spectrum: 2-(4-Nitrophenyl)ethylamine; LC-ESI-QQ; MS2; POSITIVE; [M+H]+; CID; 40 V
Name: 2-(4-Nitrophenyl)ethylamine
Class: Non-natural product; 4-Nitrophenethylamine
Formula: C8H10N2O2
Exact mass: 166.07422
SMILES: C1=CC(=CC=C1CCN)[N+](=O)[O-]
InChI: InChI=1S/C8H10N2O2/c9-6-5-7-1-3-8(4-2-7)10(11)12/h1-4H,5-6,9H2
Instrument: Xevo TQS micro (Waters, MA, USA) coupled to ACQUITY UPLC H-Class (Waters, MA, USA)
Instrument type: LC-ESI-QQ
Ms type: MS2
Ion mode: POSITIVE
Collision energy: 40 V
Fragmentation mode: CID
Ionization: ESI
Column name: Acquity UPLC BEH AMIDE column (1.7 Âµm, 2.1 x 150 mm; Waters, MA, USA)
Precursor m/z: 167.08150
Precursor type: [M+H]+
m/z	relative intensity
29.6	10
29.8	14
30.0	9
30.2	11
38.7	13
38.9	24
40.9	28
49.8	8
50.0	5
50.2	5
50.6	11
51.0	46
51.2	22
51.6	15
51.9	30
52.2	19
53.2	5
62.7	7
63.0	21
65.0	150
65.3	38
66.1	5
75.8	11
76.1	6
76.2	8
77.0	551
78.0	741
89.0	5
89.2	5
90.1	5
91.0	999
92.0	10
92.3	6
101.6	7
101.9	17
102.3	13
102.8	174
102.9	156
103.2	177
103.7	21
104.1	32
104.3	14
