Mass spectrum: Baicalein; ESI-ITTOF; MS2; [M-H]-
Name: Baicalein
Class: Natural Product; Flavones
Formula: C15H10O5
Exact mass: 270.05282
SMILES: C1=CC=C(C=C1)C2=CC(=O)C3=C(O2)C=C(C(=C3O)O)O
InChI: InChI=1S/C15H10O5/c16-9-6-11(8-4-2-1-3-5-8)20-12-7-10(17)14(18)15(19)13(9)12/h1-7,17-19H
Instrument: LC-IT-TOF (Shimadzu)
Instrument type: ESI-ITTOF
Ms type: MS2
Ion mode: NEGATIVE
Collision energy: 80 % by Ar 50 %
Ionization: ESI
Precursor m/z: 269.04445
Precursor type: [M-H]-
m/z	relative intensity
136.9954	32
153.0704	32
169.0675	82
195.0397	63
197.0581	72
223.0396	193
224.0444	72
225.0521	72
241.0529	441
250.9283	9
251.0347	999
251.4891	37
252.0391	152
