Mass spectrum: Malic acid; GC-EI-QQ; MS2; POSITIVE; CID 5 V; 3 TBDMS-derivative; [M-159]+
Name: Malic acid
Class: Natural product; succinic acid
Formula: C4H6O5
Exact mass: 134.02153
SMILES: C(C(C(=O)O)O)C(=O)O
InChI: InChI=1S/C4H6O5/c5-2(4(8)9)1-3(6)7/h2,5H,1H2,(H,6,7)(H,8,9)
Instrument: GCMS-TQ8040 (Shimadzu, Kyoto, Japan)
Instrument type: GC-EI-QQ
Ms type: MS2
Ion mode: POSITIVE
Collision energy: 5 V
Fragmentation mode: CID
Column name: DB-5MS+DG (Agilent Technologies, Santa Clara, CA, USA)
Derivative form: C22H48O5Si3
Derivative mass: 476.28095
Derivative type: 3 TBDMS
Precursor m/z: 317.19628
m/z	relative intensity	assigned
73.1	176	
115.1	999	
185.1	57	
273.35	92	
274.3	10	
275.3	21	
317.35	267	C15H33O3Si2+
