Mass spectrum: GlcNAcAsn; ESI-QQ; MS2; Negative; [M-H]-; CID; CE: 15 eV
Name: GlcNAcAsn
Name: N4-(beta-N-Acetyl-D-glucosaminyl)-L-asparagine
Name: Beta-D-GlcNAc-1->N-Asn
Class: Non-natural product.
Formula: C12H21N3O8
Exact mass: 335.132865
SMILES: CC(=O)N[C@@H]1[C@H]([C@@H]([C@H](O[C@H]1NC(=O)C[C@@H](C(=O)O)N)CO)O)O
InChI: InChI=1S/C12H21N3O8/c1-4(17)14-8-10(20)9(19)6(3-16)23-11(8)15-7(18)2-5(13)12(21)22/h5-6,8-11,16,19-20H,2-3,13H2,1H3,(H,14,17)(H,15,18)(H,21,22)/t5-,6+,8+,9+,10+,11+/m0/s1
Instrument: Triple Quad 4500 (AB Sciex Pte. Ltd., USA)
Instrument type: LC-ESI-QQ
Ms type: MS2
Ion mode: NEGATIVE
Collision energy: 15 eV
Fragmentation mode: CID
Ionization: ESI
Precursor m/z: 334.125578
Precursor type: [M-H]-
m/z	relative intensity
100.9629	4
110.984	2
112.8909	259
118.8848	25
136.8742	3
142.1	1
152.8429	2
153.1	1
153.9848	2
154.5	1
154.8849	3
169.8909	1
178.8873	20
195.9242	252
197.0605	2
199.931	1
201.9452	31
213.9373	164
225.9087	1
237.8943	3
246.923	2
256.0727	5
298.9494	58
315.9935	872
317.2679	1
334.0157	999
