Mass spectrum: Tralopyril; ESI-QTOF; MS; NEGATIVE
Name: Tralopyril
Class: pyrroles
Formula: C12H5BrClF3N2
Exact mass: 347.92767
SMILES: C1=CC(=CC=C1C2=C(C(=C(N2)C(F)(F)F)Br)C#N)Cl
InChI: InChI=1S/C12H5BrClF3N2/c13-9-8(5-18)10(19-11(9)12(15,16)17)6-1-3-7(14)4-2-6/h1-4,19H
Instrument: X500R QTOF (AB Sciex LLC, USA)
Instrument type: ESI-QTOF
Ms type: MS
Ion mode: NEGATIVE
Ionization: ESI
m/z	relative intensity
346.9205	671
347.9244	40
348.9178	999
349.9222	56
350.9165	126
