Mass spectrum: Acetyl-L-carnitine; ESI-QTOF; MS2; POSITIVE; [M+H]+; CID; 60 V
Name: Acetyl-L-carnitine
Class: Saturated fatty acyl-L-carnitine
Formula: C9H17NO4
Exact mass: 203.11576
SMILES: CC(=O)O[C@H](CC(=O)[O-])C[N+](C)(C)C
InChI: InChI=1S/C9H17NO4/c1-7(11)14-8(5-9(12)13)6-10(2,3)4/h8H,5-6H2,1-4H3/t8-/m1/s1
Instrument: X500R QTOF (AB Sciex LLC, USA)
Instrument type: ESI-QTOF
Ms type: MS2
Ion mode: POSITIVE
Collision energy: 60 V
Fragmentation mode: CID
Ionization: ESI
Precursor m/z: 204.12303
Precursor type: [M+H]+
m/z	relative intensity	assigned
27.0228	48	[C2H6-3H]+
29.0383	78	[C2H6-H]+
39.0229	53	[C3H8-5H]+
42.0338	49	[C2H8N-4H]+
43.0176	999	[C2H4O-H]+
44.0493	119	[C2H8N-2H]+
44.997	43	
45.0572	46	
57.0335	211	[C3H8O-3H]+
58.065	281	[C3H10N-2H]+
60.0808	91	[C3H10N]+
84.0807	100	[C5H14N-4H]+
85.0282	581	[C4H8O2-3H]+
