Mass spectrum: Malic acid-[1-13C]; GC-EI-Q; MS; POSITIVE; 3 TBDMS-derivative
Name: Malic acid-[1-13C]
Class: In vitro synthetic compound
Formula: C4H6O5
Exact mass: 134.02153
SMILES: O=C(O)C(O)CC(=O)O
InChI: InChI=1S/C4H6O5/c5-2(4(8)9)1-3(6)7/h2,5H,1H2,(H,6,7)(H,8,9)/i4+1
Instrument: GCMS-QP2010 Ultra (Shimadzu, Kyoto, Japan)
Instrument type: GC-EI-Q
Ms type: MS
Ion mode: POSITIVE
Column name: DB-5MS+DG (Agilent Technologies, Santa Clara, CA, USA)
Derivative form: C22H48O5Si3
Derivative mass: 476.28095
Derivative type: 3 TBDMS
m/z	relative intensity	assigned
55.05	24	
56.05	79	
57.05	60	
58	20	
59.05	65	
69.05	10	
73.05	999	
74.05	86	
75.05	116	
85.05	13	
89.05	11	
99.05	16	
101.05	16	
115.1	183	
116.15	21	
117.1	14	
130.05	11	
131.05	10	
133.05	91	
134.1	13	
135.05	12	
147.1	196	
148.1	32	
149.1	35	
175.05	12	
189.1	32	
207	13	
217.1	13	C9H21O2Si2+
288.1	104	
289.1	22	
290.1	10	
318.2	22	C14(13C)H33O3Si2+
383.1	20	
391.15	11	C17H39O4Si3+
404.1	23	
420.15	127	
421.15	45	
422.15	21	
