Mass spectrum: (4R)-4-Methyl-6-benzyloxyhexanol; GC-EI-BE; MS; positive; EI; 70 V
Name: (4R)-4-Methyl-6-benzyloxyhexanol
Class: Non-natural product
Formula: C14H22O2
Exact mass: 222.16198
SMILES: C[C@H](CCCO)CCOCC1=CC=CC=C1
InChI: InChI=1S/C14H22O2/c1-13(6-5-10-15)9-11-16-12-14-7-3-2-4-8-14/h2-4,7-8,13,15H,5-6,9-12H2,1H3/t13-/m1/s1
Instrument: JMS-700V (JEOL, Akishima, Japan) coupled to Agilent 6890N (Agilent, Wilmington, USA) gas chromatograph.
Instrument type: GC-EI-BE
Ms type: MS
Ion mode: POSITIVE
Ionization: EI
Column name: DB-5MS 122-5532 US877814H (Agilent, Wilmington, USA), length 30.0 m, I.D. 0.25 mm, thickness 0.25 micrometer.
Retention time: 10.98 min
m/z	relative intensity
36	44
37	3
38	17
39	26
40	4
41	69
42	12
43	29
44	3
45	5
50	4
51	14
52	5
53	9
54	4
55	99
56	25
57	20
58	3
59	1
62	2
63	12
64	4
65	64
66	5
67	18
68	10
69	111
70	31
71	11
74	1
75	1
76	2
77	37
78	14
79	39
80	4
81	20
82	5
83	43
84	4
85	10
86	2
87	1
89	19
90	14
91	999
92	208
93	21
94	2
95	85
96	15
97	17
98	9
99	2
101	3
104	22
105	26
106	12
107	467
108	108
109	8
111	8
112	2
113	26
114	12
115	5
117	5
118	3
119	2
120	2
121	2
126	4
128	1
129	5
130	2
131	11
132	2
133	5
134	1
143	2
145	2
147	1
157	1
159	2
161	1
175	1
203	1
220	6
221	2
222	52
223	9
224	1
