Mass spectrum: Peridinin; LC-ESI-QTOF; MS; POSITIVE; ESI
Name: Peridinin
Class: Natural product; carotenoids; xanthophyll
Formula: C39H50O7
Exact mass: 630.3557
SMILES: C/C(=C\C=C\C=C\C=C(/C)\C=C/1\C=C(C(=O)O1)/C=C/[C@]23[C@](O2)(C[C@H](CC3(C)C)O)C)/C=C=C4[C@](C[C@H](CC4(C)C)OC(=O)C)(C)O
InChI: InChI=1S/C39H50O7/c1-26(16-17-33-35(4,5)24-32(44-28(3)40)25-37(33,8)43)14-12-10-11-13-15-27(2)20-31-21-29(34(42)45-31)18-19-39-36(6,7)22-30(41)23-38(39,9)46-39/h10-16,18-21,30,32,41,43H,22-25H2,1-9H3/b12-10+,13-11+,19-18+,26-14+,27-15+,31-20-/t17?,30-,32-,37+,38+,39-/m0/s1
Instrument: Xevo G2-S QtOF, Waters (USA) coupled to ACQUITY UPLC, Waters (USA).
Instrument type: LC-ESI-QTOF
Ms type: MS
Ion mode: POSITIVE
Ionization: ESI
Column name: BEH C18, I.D. 2.1 mm, length 100 mm, thickness 1.7 micrometer.
m/z	relative intensity
103.062	22
181.108	16
211.135	17
225.151	13
237.151	14
278.101	19
279.157	11
359.230	23
397.180	62
425.175	22
517.306	13
535.320	48
536.322	13
553.332	386
554.335	118
555.339	15
556.277	56
557.281	14
575.311	11
578.259	38
594.231	22
613.354	34
614.358	12
631.366	70
632.368	21
635.338	20
653.351	999
653.851	32
654.354	358
655.356	49
669.329	99
670.331	28
