Mass spectrum: Malic acid-[1,2,3,4-13C4]; GC-EI-Q; MS; POSITIVE; 3 TMS-derivative
Name: Malic acid-[1,2,3,4-13C4]
Class: In vitro synthetic compound
Formula: C4H6O5
Exact mass: 134.021525
SMILES: C(C(C(=O)O)O)C(=O)O
InChI: InChI=1S/C4H6O5/c5-2(4(8)9)1-3(6)7/h2,5H,1H2,(H,6,7)(H,8,9)/i1+1,2+1,3+1,4+1
Instrument: GCMS-QP2010 Ultra (Shimadzu, Kyoto, Japan)
Instrument type: GC-EI-Q
Ms type: MS
Ion mode: POSITIVE
Column name: DB-5MS+DG (Agilent Technologies, Santa Clara, CA, USA)
Derivative form: C13H30O5Si3
Derivative mass: 350.140106
Derivative type: 3 TMS
m/z	relative intensity	assigned
57.05	13	
58.05	92	
59.05	53	
61	12	
72.15	37	
73.05	999	
74.05	104	
75.05	147	
76.05	10	
89.05	13	
103.05	47	C2(13C2)H9OSi+
117.05	10	
118.05	29	C3(13C)H9O2Si+
119.05	11	
131.1	40	
132.05	12	
133.05	73	
134.05	12	
146.15	14	
147.1	340	
148.1	58	
149.1	36	
175.05	12	
177.05	22	
179.05	10	
191.05	51	C5(13C2)H17O2Si2+
192.05	24	
220.05	14	
236.1	82	C6(13C3)H21O3Si2+
237.05	14	
249.1	41	
266.1	11	
299.05	12	
310.1	11	C8(13C3)H27O4Si3+
339.1	15	C8(13C4)H27O5Si3+
