Mass spectrum: 2-(4-Trifluoromethylphenyl)ethylamine; ESI-QQ; MS; POSITIVE
Name: 2-(4-Trifluoromethylphenyl)ethylamine
Class: Non-natural product; Phenethylamine
Formula: C9H10F3N
Exact mass: 189.07653
SMILES: C1=CC(=CC=C1CCN)C(F)(F)F
InChI: InChI=1S/C9H10F3N/c10-9(11,12)8-3-1-7(2-4-8)5-6-13/h1-4H,5-6,13H2
Instrument: Xevo TQS micro (Waters, MA, USA)
Instrument type: ESI-QQ
Ms type: MS
Ion mode: POSITIVE
Ionization: ESI
m/z	relative intensity
131.1	16
153.1	92
156.1	15
165.1	43
173.1	79
177.1	11
190.1	999
191.2	131
214.1	41
