Mass spectrum: Betaine; ESI-QTOF; MS; POSITIVE
Name: Betaine
Class: Glycine derivative
Formula: C5H11NO2
Exact mass: 117.07898
SMILES: C[N+](C)(C)CC(=O)[O-]
InChI: InChI=1S/C5H11NO2/c1-6(2,3)4-5(7)8/h4H2,1-3H3
Instrument: X500R QTOF (AB Sciex LLC, USA)
Instrument type: ESI-QTOF
Ms type: MS
Ion mode: POSITIVE
Ionization: ESI
m/z	relative intensity
118.0861	92
140.0674	999
