Mass spectrum: 2-(octan-2-yl)tetrahydrothiophene; GC-EI-TOF; MS; POSITIVE; EI; 70 V
Name: 2-(octan-2-yl)tetrahydrothiophene
Class: Non-natural compound
Formula: C12H24S
Exact mass: 200.15987
SMILES: CCCCCCC(C)C1CCCS1
InChI: InChI=1S/C12H24S/c1-3-4-5-6-8-11(2)12-9-7-10-13-12/h11-12H,3-10H2,1-2H3
Instrument: JMS-T100GCV (JEOL, Akishima, Japan) coupled to Agilent 7890A gas chromatograph.
Instrument type: GC-EI-TOF
Ms type: MS
Ion mode: POSITIVE
Ionization: EI
Column name: HP-5 30x0.32 0.25um 19091J-413, length 30.0 m, I.D. 0.32 mm, thickness 0.25 micrometer.
Retention time: 8.65 min.
m/z	relative intensity
27.024	21
28.006	16
28.031	3
29.039	35
31.99	9
39.024	17
40.031	3
41.039	74
42.046	8
43.055	33
44.98	37
45.987	3
46.996	15
53.039	22
54.046	5
55.055	49
56.062	6
57.071	10
57.988	3
58.996	17
60.003	10
61.011	7
65.039	4
67.055	16
68.062	3
69.071	14
70.078	3
70.996	3
71.086	3
73.012	7
74.019	3
77.039	4
79.055	7
81.071	14
82.077	3
83.086	4
85.012	22
86.019	54
87.027	999
87.487	3
87.803	2
88.032	87
88.494	1
89.023	43
90.029	4
91.055	10
95.086	4
101.042	6
104.062	3
115.058	29
116.063	4
117.07	4
129.073	3
143.089	13
157.105	12
200.16	75
201.162	9
202.156	4
