Mass spectrum: Pyraclonil; ESI-QTOF; MS2; POSITIVE; [M+H]+; CID; 30 V
Name: Pyraclonil
Class: Non-natural product
Formula: C15H15ClN6
Exact mass: 314.1046
SMILES: CN(CC#C)C1=C(C=NN1C2=NN3CCCCC3=C2Cl)C#N
InChI: InChI=1S/C15H15ClN6/c1-3-7-20(2)15-11(9-17)10-18-22(15)14-13(16)12-6-4-5-8-21(12)19-14/h1,10H,4-8H2,2H3
Instrument: X500R QTOF (AB Sciex Pte. Ltd, USA)
Instrument type: ESI-QTOF
Ms type: MS2
Ion mode: POSITIVE
Collision energy: 30 V
Fragmentation mode: CID
Ionization: ESI
Precursor m/z: 315.1119
Precursor type: [M+H]+
m/z	relative intensity
144.056	25
169.0528	999
170.0484	30
214.1093	68
239.1049	42
240.1124	63
241.1201	456
248.0703	64
250.0862	76
252.1249	45
275.0815	100
276.0892	74
279.136	94
284.0706	37
315.1127	98
