Mass spectrum: Okaramine C; ESI-ITTOF; MS2; POSITIVE; [M+H]+
Name: Okaramine C
Class: Natural product; Indole alkaloid
Formula: C32H36N4O3
Exact mass: 524.27874
SMILES: CC(C)(C=C)C1=C(C2=CC=CC=C2N1)CC3C(=O)N4[C@H](C[C@@]5([C@H]4N(C6=CC=CC=C65)C(C)(C)C=C)O)C(=O)N3
InChI: InChI=1S/C32H36N4O3/c1-7-30(3,4)26-20(19-13-9-11-15-22(19)33-26)17-23-28(38)35-25(27(37)34-23)18-32(39)21-14-10-12-16-24(21)36(29(32)35)31(5,6)8-2/h7-16,23,25,29,33,39H,1-2,17-18H2,3-6H3,(H,34,37)/t23?,25-,29-,32-/m1/s1
Instrument: LC-ITTOF-MS (Shimadzu, Kyoto, Japan)
Instrument type: ESI-ITTOF
Ms type: MS2
Ion mode: POSITIVE
Ionization: ESI
Precursor m/z: 525.2860
Precursor type: [M+H]+
m/z	relative intensity
102.3136	160
115.5318	159
119.5523	119
121.4667	160
123.8481	159
125.5632	159
128.3646	158
129.2580	159
141.3818	158
142.9039	160
145.8915	159
146.6926	160
169.0646	160
177.3899	160
180.2266	158
198.1225	999
238.0448	159
247.5876	160
251.8349	159
259.0455	160
259.4164	159
269.2798	160
286.5608	158
289.8527	158
301.7056	160
303.5257	159
304.1169	118
309.1710	160
310.1423	159
324.4792	158
326.3320	160
328.1535	521
329.4609	158
335.1655	159
355.9155	158
371.1361	119
375.4451	160
383.1427	292
388.7483	159
432.1004	158
439.2016	187
455.4342	158
457.2131	550
458.2245	186
466.5222	159
476.2761	160
489.9479	159
491.5854	159
502.0910	160
503.9857	160
507.2666	186
523.6992	160
555.1766	159
555.2219	160
