Mass spectrum: (2S,3S)-(-)-2,3-Epoxy-1-octanol; GC-EI-TOF; MS; positive; EI; 70 V
Name: (2S,3S)-(-)-2,3-Epoxy-1-octanol
Class: Non-natural compound
Formula: C8H16O2
Exact mass: 144.11503
SMILES: OC[C@@H]1O[C@H]1CCCCC
InChI: InChI=1S/C8H16O2/c1-2-3-4-5-7-8(6-9)10-7/h7-9H,2-6H2,1H3/t7-,8-/m0/s1
Instrument: JMS-T100GCV (JEOL, Akishima, Japan) coupled to Agilent 7890A (Agilent, Wilmington, USA) gas chromatograph.
Instrument type: GC-EI-TOF
Ms type: MS
Ion mode: POSITIVE
Ionization: EI
Column name: HP-5 19091 J-413 USD364547H (Agilent, Wilmington, USA), length 30 m, I.D. 0.32 mm, thickness 0.25 micrometer.
Retention time: 6.35 min.
m/z	relative intensity
26.016	21
27.024	371
27.066	4
27.28	1
27.996	5
28.031	60
28.055	1
28.076	1
29.003	108
29.04	352
29.083	4
29.285	1
29.481	1
30.011	5
30.043	8
31.019	291
31.063	3
31.268	1
31.99	2
32.026	12
38.016	7
39.024	239
39.075	3
39.309	1
40.031	32
41.04	658
41.091	6
41.269	2
41.323	2
41.566	1
41.794	1
42.011	28
42.047	135
42.136	1
42.313	1
43.019	274
43.055	270
43.289	1
43.344	2
43.57	1
44.026	207
44.059	10
45.034	142
45.086	2
46.038	3
50.016	4
51.024	13
52.032	6
53.039	48
54.047	22
55.019	36
55.055	999
55.115	10
55.321	2
55.421	3
55.668	2
55.959	1
56.026	6
56.062	165
56.124	2
56.214	1
57.034	254
57.07	69
57.363	1
57.414	1
58.04	16
58.074	3
59.05	29
60.021	18
61.029	51
63.024	2
65.04	7
66.047	3
67.055	42
68.062	9
69.034	22
69.071	50
70.042	11
70.076	5
71.014	10
71.05	26
71.086	13
72.057	4
73.029	6
73.065	3
77.039	4
79.055	7
81.071	13
82.078	13
83.05	16
83.086	627
83.157	7
83.491	2
83.537	2
83.852	1
84.056	2
84.09	38
84.221	1
85.065	3
85.096	2
88.052	2
91.055	2
93.071	3
95.086	13
97.066	2
99.081	7
101.06	14
101.097	30
102.1	2
113.097	3
