Mass spectrum: Phenmedipham; LC-ESI-QTOF; MS2; ESI; POSITIVE; [M+H]+; CE 30 V
Name: Phenmedipham
Class: Non-natural product
Formula: C16H16N2O4
Exact mass: 300.11101
SMILES: COC(=O)Nc1cccc(OC(=O)Nc2cccc(C)c2)c1
InChI: InChI=1S/C16H16N2O4/c1-11-5-3-6-12(9-11)18-16(20)22-14-8-4-7-13(10-14)17-15(19)21-2/h3-10H,1-2H3,(H,17,19)(H,18,20)
Instrument: ExionLC AD, AB Sciex LLC, USA; X500R QTOF, AB Sciex LLC, USA.
Instrument type: LC-ESI-QTOF
Ms type: MS2
Ion mode: POSITIVE
Collision energy: 30 V
Ionization: ESI
Column name: AQ-C18HP 3 microm, 2.1 mm Ã— 150 mm, GL Science (Tokyo Japan)
Retention time: 13.6 min
Precursor m/z: 301.11828
Precursor type: [M+H]+
m/z	relative intensity
93.0343	59
108.045	142
136.0394	999
168.0663	32
