Mass spectrum: (3S,5S)-Nona-1,8-diene-3,5-diol; GC-EI-TOF; MS; POSITIVE; EI; 70 V
Name: (3S,5S)-Nona-1,8-diene-3,5-diol
Class: Non-natural compound
Formula: C9H16O2
Exact mass: 156.11503
SMILES: C=CCC[C@H](O)C[C@H](O)C=C
InChI: InChI=1S/C9H16O2/c1-3-5-6-9(11)7-8(10)4-2/h3-4,8-11H,1-2,5-7H2/t8-,9+/m1/s1
Instrument: JMS-T100GCV (JEOL, Akishima, Japan) coupled to Agilent 7890A gas chromatograph.
Instrument type: GC-EI-TOF
Ms type: MS
Ion mode: POSITIVE
Ionization: EI
Column name: ZB-1MS 7HM-G011-11 sn:313446, length 30.0 m, I.D. 0.32 mm, thickness 0.25 micrometer.
Retention time: 7.05 min.
m/z	relative intensity
26.015	15
27.023	261
27.065	2
27.096	1
28.006	21
28.031	108
28.074	1
29.002	139
29.039	316
30.009	3
30.043	8
31.018	120
31.06	1
31.99	5
38.015	8
39.023	333
39.303	1
40.03	38
41.039	612
41.091	6
41.322	1
41.354	2
42.01	31
42.045	39
43.018	303
43.054	26
44.026	63
44.057	2
45.034	68
46.039	2
47.013	23
50.016	8
51.023	27
52.031	17
53.003	3
53.039	151
53.098	2
54.01	3
54.047	854
54.107	8
54.41	2
54.665	1
54.928	1
55.018	241
55.054	846
55.422	2
55.674	2
56.026	240
56.061	115
56.171	1
57.034	999
57.07	56
57.407	3
57.661	2
57.942	1
58.04	87
58.074	2
59.047	7
63.023	3
65.039	28
66.047	71
67.055	667
67.215	1
67.412	2
67.46	2
67.737	1
68.026	6
68.061	84
69.034	45
69.07	19
70.042	69
71.013	10
71.049	71
72.057	49
73.029	10
73.063	5
74.037	13
75.044	10
77.039	29
78.047	18
79.055	138
79.125	2
80.062	49
81.034	36
81.07	136
82.042	26
82.078	142
83.05	431
83.456	1
83.5	1
84.057	374
84.512	2
85.064	60
85.136	1
86.073	28
91.055	33
92.062	28
93.07	12
94.078	49
95.05	44
95.085	14
96.058	93
96.135	1
97.065	61
98.071	6
99.045	6
101.061	63
102.066	6
103.057	2
105.071	26
106.075	3
107.086	6
109.066	35
110.073	17
111.08	3
119.087	3
120.094	6
123.081	20
137.098	4
