Mass spectrum: Citric acid-[1,2,3,4,5,6-13C6]; GC-EI-Q; MS; POSITIVE; 4TMS-derivative
Name: Citric acid-[1,2,3,4,5,6-13C6]
Class: In vitro synthetic compound
Formula: C6H8O7
Exact mass: 192.027005
SMILES: OC(=O)CC(O)(CC(O)=O)C(=O)O
InChI: InChI=1S/C6H8O7/c7-3(8)1-6(13,5(11)12)2-4(9)10/h13H,1-2H2,(H,7,8)(H,9,10)(H,11,12)/i1+1,2+1,3+1,4+1,5+1,6+1
Instrument: GCMS-QP2010 Ultra (Shimadzu, Kyoto, Japan)
Instrument type: GC-EI-Q
Ms type: MS
Ion mode: POSITIVE
Column name: DB-5MS+DG (Agilent Technologies, Santa Clara, CA, USA)
Derivative form: C18H40O7Si4
Derivative mass: 486.20524
Derivative type: 4 TMS
m/z	relative intensity	assigned
58.05	24	
59.05	64	
70.05	10	
71.05	44	
72.15	82	
73.05	999	
74.05	158	
75	157	
87	63	
100	18	
101	49	
102	28	
103	47	
104	12	
115	19	
116	28	
117	49	
118	27	
119	14	
130.05	48	
131	85	
132.05	64	
133	85	
134	14	
144.1	13	
145.15	60	
146.1	639	
147.05	497	
148.05	98	
149	70	
159	10	
161	16	
173	20	
174.05	30	
175	247	
176	47	
177	26	
187.95	29	
189	12	
190	26	
191	22	
191.95	11	
203	45	
204	14	
205	16	
205.95	22	
206.95	15	
216.95	46	
218	42	
219	32	
220	65	
220.95	47	
222	14	
233	12	
234	17	
235	13	
249	25	
262	36	
263	34	
264	29	
277.05	37	
278	389	C6(13C5)H21O4Si2+
279	72	
280	35	
291	12	
307.05	25	
308.05	37	
309	12	
323	18	
335.1	10	
351.05	11	
352	98	C8(13C5)H27O5Si3+
353	27	
354	14	
367.05	11	
368	98	C9(13C5)H31O5Si3+
369	26	
370	14	
380.05	13	
381	93	
382	24	
383	13	
425.1	38	
426.1	16	
471	57	
472	19	
473	10	
