Mass spectrum: 2-(4-Chlorophenyl)ethylamine; LC-ESI-QQ; MS2; POSITIVE; [M+H-NH3]+; CID; 40 V
Name: 2-(4-Chlorophenyl)ethylamine
Class: Non-natural product; Phenethylamine
Formula: C8H10ClN
Exact mass: 155.05017
SMILES: C1=CC(=CC=C1CCN)Cl
InChI: InChI=1S/C8H10ClN/c9-8-3-1-7(2-4-8)5-6-10/h1-4H,5-6,10H2
Instrument: Xevo TQS micro (Waters, MA, USA) coupled to ACQUITY UPLC H-Class (Waters, MA, USA)
Instrument type: LC-ESI-QQ
Ms type: MS2
Ion mode: POSITIVE
Collision energy: 40 V
Fragmentation mode: CID
Ionization: ESI
Column name: Acquity UPLC BEH AMIDE column (1.7 Âµm, 2.1 x 150 mm; Waters, MA, USA)
Precursor m/z: 139.0309
Precursor type: [M+H-NH3]+
m/z	relative intensity
38.7	8
38.9	6
39.2	8
49.5	7
49.9	32
50.2	16
50.8	325
51.0	400
51.8	17
52.2	12
62.6	7
62.8	11
63.1	14
65.1	6
72.8	8
73.1	6
73.8	19
73.9	12
74.2	22
74.7	47
75.0	112
75.8	14
76.1	10
77.0	999
78.0	203
78.3	39
84.7	6
84.9	6
85.2	6
102.1	57
102.6	27
103.0	173
103.9	15
104.1	13
104.3	9
110.9	7
