Mass spectrum: Cyanophenylguanidine; ESI-QTOF; MS2; ESI; NEGATIVE; [M-H]-; CE 40 V
Name: Cyanophenylguanidine
Class: Non-natural product
Formula: C8H8N4
Exact mass: 160.07488
SMILES: N#Cc1ccc(NC(=N)N)cc1
InChI: InChI=1S/C8H8N4/c9-5-6-1-3-7(4-2-6)12-8(10)11/h1-4H,(H4,10,11,12)
Instrument: X500R QTOF (AB Sciex LLC, USA)
Instrument type: ESI-QTOF
Ms type: MS2
Ion mode: NEGATIVE
Collision energy: 40 V
Ionization: ESI
Precursor m/z: 159.0676
Precursor type: [M-H]-
m/z	relative intensity
41.014	116
66.0343	60
90.0343	108
115.0296	77
117.0452	999
