Mass spectrum: Succinic acid-[1,2,3,4-13C4]; GC-EI-Q; MS; POSITIVE; 2 TBDMS-derivative
Name: Succinic acid-[1,2,3,4-13C4]
Class: In vitro synthetic compound
Formula: C4H6O4
Exact mass: 118.02661
SMILES: O=C(O)CCC(=O)O
InChI: InChI=1S/C4H6O4/c5-3(6)1-2-4(7)8/h1-2H2,(H,5,6)(H,7,8)/i1+1,2+1,3+1,4+1
Instrument: GCMS-QP2010 Ultra (Shimadzu, Kyoto, Japan)
Instrument type: GC-EI-Q
Ms type: MS
Ion mode: POSITIVE
Column name: DB-5MS+DG (Agilent Technologies, Santa Clara, CA, USA)
Derivative form: C16H34O4Si2
Derivative mass: 346.19956
Derivative type: 2 TBDMS
m/z	relative intensity
55.15	10
56.1	20
57.1	58
58.05	66
59.05	96
60.1	19
61.05	13
71.15	16
72.15	53
73.05	914
74.05	108
75.05	332
76	26
77.1	15
85.15	23
87.05	22
88.05	31
89.1	31
90.1	13
99.05	27
100.1	15
101.05	31
102.1	18
103.05	18
110.55	32
115.1	43
117.1	35
118.1	52
119.15	20
131.05	20
132.05	63
133.05	102
134.05	22
145.05	25
146.15	117
147.1	999
148.1	166
149.1	131
150.05	17
158.05	11
161.2	11
176.15	13
179.05	11
186.2	10
188.1	11
189.15	117
190.1	29
191.15	13
203.2	13
220.25	17
261.25	10
262.15	78
263.25	14
277.2	12
278.25	122
279.15	31
287.2	20
292.25	11
293.15	162
294.25	34
295.2	16
