Mass spectrum: Poricoic acid B; ESI-QTOF; MS2; POSITIVE; [M+H]+; CID; 30 V
Name: Poricoic acid B
Class: Non-natural product
Formula: C30H44O5
Exact mass: 484.31888
SMILES: CC(=CCC[C@H]([C@H]1[C@@H](C[C@@]2([C@@]1(CC=C3C2=CC[C@H]([C@]3(C)CCC(=O)O)C(=C)C)C)C)O)C(=O)O)C
InChI: InChI=1S/C30H44O5/c1-18(2)9-8-10-20(27(34)35)26-24(31)17-30(7)23-12-11-21(19(3)4)28(5,15-14-25(32)33)22(23)13-16-29(26,30)6/h9,12-13,20-21,24,26,31H,3,8,10-11,14-17H2,1-2,4-7H3,(H,32,33)(H,34,35)/t20-,21+,24-,26+,28+,29-,30+/m1/s1
Instrument: X500R QTOF (AB Sciex LLC, USA)
Instrument type: ESI-QTOF
Ms type: MS2
Ion mode: POSITIVE
Collision energy: 30 V
Fragmentation mode: CID
Ionization: ESI
Precursor m/z: 485.32615
Precursor type: [M+H]+
m/z	relative intensity
69.0711	7
81.0712	13
93.0713	11
95.0868	30
97.0661	8
105.0712	10
107.0868	25
109.1025	17
119.0869	19
121.1025	21
123.0817	12
125.0974	10
131.0869	12
133.1025	15
135.1181	10
143.0868	11
145.1025	29
147.1182	15
149.1338	13
155.0869	16
157.1025	36
159.1181	34
161.1339	14
163.1494	16
169.1026	39
171.1182	40
173.1338	20
177.0924	17
179.1081	15
183.1181	50
185.0975	14
185.1338	23
189.1651	33
195.1183	19
197.1339	45
199.1132	54
199.1494	17
201.1288	20
207.1183	15
209.1339	66
211.1131	32
211.1496	214
213.1289	18
217.1238	29
217.1602	17
219.1394	78
221.1339	25
223.1496	94
225.1288	74
225.1651	47
227.1444	33
229.1238	21
233.1552	22
235.1706	31
237.1651	38
239.1446	31
241.1601	38
243.1394	23
245.155	32
247.1497	46
249.1653	46
251.1445	29
253.1601	27
255.1758	66
265.1601	284
265.196	33
267.1757	239
269.1551	32
271.1705	20
279.1757	24
283.1705	183
285.1863	33
289.1964	105
305.1912	27
307.2068	577
325.2172	999
339.2329	25
361.2535	36
365.2484	26
379.264	74
389.2483	79
403.3001	46
407.2588	113
413.2846	48
421.3107	44
431.2949	207
449.3055	264
467.3159	103
