Mass spectrum: 3-((4-Methoxybenzyl)oxy)-2,2-dimethylhex-5-enal; GC-EI-TOF; MS; positive; EI; 70 V
Name: 3-((4-Methoxybenzyl)oxy)-2,2-dimethylhex-5-enal
Class: Non-natural product
Formula: C16H22O3
Exact mass: 262.15690
SMILES: COC1=CC=C(COC(CC=C)C(C)(C)C=O)C=C1
InChI: InChI=1S/C16H22O3/c1-5-6-15(16(2,3)12-17)19-11-13-7-9-14(18-4)10-8-13/h5,7-10,12,15H,1,6,11H2,2-4H3
Instrument: JMS-T100GCV (JEOL, Akishima, Japan) coupled to Agilent 7890A (Agilent, Wilmington, USA) gas chromatograph.
Instrument type: GC-EI-TOF
Ms type: MS
Ion mode: POSITIVE
Ionization: EI
Column name: HP-5 19091 J-413 USD364547H (Agilent, Wilmington, USA), length 30 m, I.D. 0.32 mm, thickness 0.25 micrometer.
Retention time: 10.02 min.
m/z	relative intensity
27.024	15
28.006	32
29.003	6
29.039	7
31.990	12
39.024	27
40.031	3
41.04	54
42.047	7
43.019	12
43.055	17
50.016	3
51.024	13
52.032	12
53.039	10
55.019	3
55.055	15
57.035	6
63.024	6
64.031	4
65.040	14
66.047	4
67.056	5
69.071	4
71.050	5
72.058	3
77.040	55
78.047	61
79.054	9
81.071	8
85.065	7
89.039	15
90.047	13
91.055	27
92.027	4
92.060	3
94.042	6
95.087	3
105.034	3
106.042	8
107.050	9
108.057	6
109.066	11
121.065	999
121.610	3
122.069	96
122.402	2
123.072	6
134.073	8
135.045	16
136.052	8
137.060	62
138.066	14
147.081	10
148.087	3
150.068	24
151.072	3
163.076	8
164.083	9
173.096	3
190.100	2
191.107	14
192.111	2
234.162	6
262.156	5
