Mass spectrum: Malonylglycitin; ESI-QTOF; MS2; POSITIVE; [M+H]+; CID; 60 V
Name: Malonylglycitin
Class: 7-hydroxyisoflavone
Formula: C25H24O13
Exact mass: 532.12169
SMILES: COC1=C(C=C2C(=C1)C(=O)C(=CO2)C3=CC=C(C=C3)O)O[C@H]4[C@@H]([C@H]([C@@H]([C@H](O4)COC(=O)CC(=O)O)O)O)O
InChI: InChI=1S/C25H24O13/c1-34-16-6-13-15(35-9-14(21(13)30)11-2-4-12(26)5-3-11)7-17(16)37-25-24(33)23(32)22(31)18(38-25)10-36-20(29)8-19(27)28/h2-7,9,18,22-26,31-33H,8,10H2,1H3,(H,27,28)/t18-,22-,23+,24-,25-/m1/s1
Instrument: X500R QTOF (AB Sciex LLC, USA)
Instrument type: ESI-QTOF
Ms type: MS2
Ion mode: POSITIVE
Collision energy: 60 V
Fragmentation mode: CID
Ionization: ESI
Precursor m/z: 533.12897
Precursor type: [M+H]+
m/z	relative intensity
167.0341	21
169.0648	31
197.0599	61
225.0549	99
229.0863	95
242.0578	141
270.0527	518
285.0761	999
