Mass spectrum: Tetrabromobisphenol A; ESI-QTOF; MS2; NEGATIVE; [M-H]-; CID; 30 V
Name: Tetrabromobisphenol A
Class: Non-natural product; Bromobisphenol
Formula: C15H12Br4O2
Exact mass: 539.75708
SMILES: CC(C)(C1=CC(=C(C(=C1)Br)O)Br)C2=CC(=C(C(=C2)Br)O)Br
InChI: InChI=1S/C15H12Br4O2/c1-15(2,7-3-9(16)13(20)10(17)4-7)8-5-11(18)14(21)12(19)6-8/h3-6,20-21H,1-2H3
Instrument: X500R QTOF (AB Sciex LLC, USA)
Instrument type: ESI-QTOF
Ms type: MS2
Ion mode: NEGATIVE
Collision energy: 30 V
Fragmentation mode: CID
Ionization: ESI
Precursor m/z: 542.74571
Precursor type: [M-H]-
m/z	relative intensity
78.9195	14
80.9175	15
542.7502	999
