Mass spectrum: Okaramine A; ESI-QQ; MS2; POSITIVE; [M+H]+; CID; 30 eV
Name: Okaramine A
Class: Natural product; Indole alkaloid
Formula: C32H32N4O3
Exact mass: 520.24744
SMILES: CC1(/C=C\N2/C(=C\C3=C1NC4=CC=CC=C43)/C(=O)N5[C@@H](C2=O)C[C@@]6([C@H]5N(C7=CC=CC=C76)C(C)(C)C=C)O)C
InChI: InChI=1S/C32H32N4O3/c1-6-31(4,5)36-23-14-10-8-12-21(23)32(39)18-25-27(37)34-16-15-30(2,3)26-20(19-11-7-9-13-22(19)33-26)17-24(34)28(38)35(25)29(32)36/h6-17,25,29,33,39H,1,18H2,2-5H3/b16-15-,24-17-/t25-,29-,32-/m1/s1
Instrument: ACQUITY UPLC H-Class/Xevo TQD (Waters, Milford, USA)
Instrument type: ESI-QQ
Ms type: MS2
Ion mode: POSITIVE
Collision energy: 30 eV
Fragmentation mode: CID
Ionization: ESI
Precursor m/z: 521.25470
Precursor type: [M+H]+
m/z	relative intensity
108.4	10
122.2	25
130.3	239
134.4	58
144.6	23
151.7	38
155.2	61
157.3	61
167.5	56
168.2	19
170.3	19
173.2	22
182.7	111
183.5	36
189.7	11
194.8	38
195.4	62
196.5	51
198.3	38
208.5	61
222.6	30
223.3	53
225.5	129
234.4	38
238.5	40
249.2	19
250.6	16
251.8	74
252.5	28
263.5	41
264.5	579
276.6	42
279.7	19
280.8	19
292.9	56
293.7	16
294.5	13
303.5	14
304.6	48
305.8	48
308.2	122
308.8	20
319.2	16
320.6	117
321.3	31
360.5	102
368.8	43
369.5	397
370.1	19
379.3	8
390.4	12
397.0	3
397.5	19
402.0	13
407.3	44
407.8	17
408.4	15
434.2	18
434.9	52
435.6	999
447.4	51
451.9	28
453.4	102
465.8	40
503.8	29
