Mass spectrum: ((3R,5S,8R,9S,10S,13R,14S,17R)-10,13-dimethyl-17-((R)-6-methylheptan-2-yl)hexadecahydro-1H-cyclopenta[a]phenanthren-3-yl)(2-methyloctyl)sulfane; GC-EI-TOF; MS; POSITIVE; EI; 70 V
Name: ((3R,5S,8R,9S,10S,13R,14S,17R)-10,13-dimethyl-17-((R)-6-methylheptan-2-yl)hexadecahydro-1H-cyclopenta[a]phenanthren-3-yl)(2-methyloctyl)sulfane
Class: Non-natural compound
Formula: C36H66S
Exact mass: 530.48852
SMILES: CCCCCCC(C)CS[C@@H]1CC[C@@]2(C)[C@@H](CC[C@@H]3[C@@H]2CC[C@]2(C)[C@@H]([C@H](C)CCCC(C)C)CC[C@@H]32)C1
InChI: InChI=1S/C36H66S/c1-8-9-10-11-14-27(4)25-37-30-20-22-35(6)29(24-30)16-17-31-33-19-18-32(28(5)15-12-13-26(2)3)36(33,7)23-21-34(31)35/h26-34H,8-25H2,1-7H3/t27?,28-,29+,30-,31+,32-,33+,34+,35+,36-/m1/s1
Instrument: JMS-T100GCV (JEOL, Akishima, Japan) coupled to Agilent 7890A gas chromatograph.
Instrument type: GC-EI-TOF
Ms type: MS
Ion mode: POSITIVE
Ionization: EI
Column name: HP-5 30x0.32 0.25um 19091J-413, length 30.0 m, I.D. 0.32 mm, thickness 0.25 micrometer.
Retention time: 20.2 min.
m/z	relative intensity
27.024	10
28.006	43
29.04	36
31.99	25
39.024	7
41.04	101
42.047	16
43.055	270
44.059	9
46.996	6
53.04	8
55.056	190
55.115	2
56.063	54
57.071	258
58.075	11
61.012	6
67.056	118
68.063	25
69.071	192
69.133	2
70.078	28
71.087	145
72.091	8
75.028	8
77.04	13
78.047	7
79.056	90
80.062	19
81.071	228
81.14	3
82.077	28
83.087	145
84.093	17
85.103	29
87.028	6
91.056	83
92.062	18
93.071	150
94.079	62
95.087	273
96.091	26
97.103	62
98.108	7
101.043	22
103.056	6
104.064	12
105.071	86
106.079	47
107.087	187
107.169	2
108.095	222
108.173	3
109.102	175
109.185	2
110.107	17
111.118	30
115.058	10
115.103	13
117.072	22
118.078	9
119.087	62
120.094	34
121.103	115
122.11	45
123.118	64
124.123	9
125.134	10
126.141	8
127.149	6
129.072	6
131.087	24
132.094	8
133.103	73
134.11	60
135.118	128
136.124	30
137.134	20
141.075	6
143.088	4
145.103	44
146.109	15
147.119	116
148.125	36
149.134	81
150.139	12
151.149	11
152.156	5
157.105	5
158.114	145
159.121	151
159.222	2
160.124	37
161.134	87
162.141	44
163.149	42
164.154	7
165.165	8
173.134	26
174.141	13
175.15	41
176.156	19
177.165	15
179.181	6
181.106	5
187.15	22
188.157	14
189.165	25
190.171	6
191.181	7
193.104	4
193.197	13
199.15	4
201.166	50
202.172	22
203.181	33
204.185	6
205.196	6
206.204	9
207.034	12
207.211	7
215.181	187
216.188	115
217.196	59
218.201	13
219.211	7
220.219	7
229.197	17
230.205	53
231.211	38
232.216	8
233.227	6
241.197	5
243.212	10
244.218	10
245.226	9
247.244	19
248.249	6
249.169	13
250.176	8
255.213	5
256.22	8
257.228	157
258.231	33
259.24	9
260.251	25
261.258	16
262.265	15
263.27	3
273.258	5
274.266	31
275.273	15
276.279	4
281.053	5
285.259	11
286.263	5
287.274	10
288.282	16
289.288	7
299.274	5
300.281	9
301.29	14
302.297	11
303.304	4
313.289	12
314.296	16
315.305	13
316.314	20
317.317	5
327.304	7
328.313	17
329.322	24
330.325	6
341.321	5
342.329	4
355.337	311
356.341	88
357.345	13
369.353	20
370.36	999
371.364	301
372.368	44
373.371	5
389.325	6
403.34	5
404.347	13
405.35	4
417.356	4
515.464	5
529.482	4
530.489	199
531.492	80
532.491	24
533.491	6
