Mass spectrum: Citric acid-[6-13]; GC-EI-Q; MS; POSITIVE; 4TMS-derivative
Name: Citric acid-[6-13C]
Class: In vitro synthetic compound
Formula: C6H8O7
Exact mass: 192.027005
SMILES: OC(=O)CC(O)(CC(O)=O)C(=O)O
InChI: InChI=1S/C6H8O7/c7-3(8)1-6(13,5(11)12)2-4(9)10/h13H,1-2H2,(H,7,8)(H,9,10)(H,11,12)/i5+1
Instrument: GCMS-QP2010 Ultra (Shimadzu, Kyoto, Japan)
Instrument type: GC-EI-Q
Ms type: MS
Ion mode: POSITIVE
Column name: DB-5MS+DG (Agilent Technologies, Santa Clara, CA, USA)
Derivative form: C18H40O7Si4
Derivative mass: 480.18511
Derivative type: 4 TMS
m/z	relative intensity	assigned
55	11	
58	16	
59	26	
61	11	
67	67	
69	22	
72.15	89	
73.05	999	
74.05	158	
75	212	
76	13	
98.95	19	
102.95	13	
110.95	10	
115	30	
116	18	
116.95	24	
129.05	59	
131	53	
132.05	10	
132.95	98	
134	14	
134.95	11	
141	13	
143	25	
146.05	11	
147	673	
148.05	110	
149	109	
150	13	
182.95	51	
185.95	12	
190.9	11	
206.9	16	
211.95	71	
212.95	12	
213.95	14	
214.95	17	
216.9	27	
217.95	16	
220.95	52	
221.95	12	
229	15	
230.95	33	
256.95	55	
257.95	16	
272.05	14	
273	676	C11H21O4Si2+
273.95	160	
274.95	71	
275.95	12	
286	17	
298.95	10	
302	12	
303	16	
305.05	52	
306	24	
307	10	
319	16	
333.95	11	
347	167	C13H27O5Si3+
348	55	
349	27	
349.95	9	
363	175	C14H31O5Si3+
364	55	
365	28	
376	153	
377	46	
377.95	27	
466	91	
467	37	
468	20	
