Mass spectrum: Betaine; ESI-QTOF; MS2; POSITIVE; [M+H]+; CID; 60 V
Name: Betaine
Class: Glycine derivative
Formula: C5H11NO2
Exact mass: 117.07898
SMILES: C[N+](C)(C)CC(=O)[O-]
InChI: InChI=1S/C5H11NO2/c1-6(2,3)4-5(7)8/h4H2,1-3H3
Instrument: X500R QTOF (AB Sciex LLC, USA)
Instrument type: ESI-QTOF
Ms type: MS2
Ion mode: POSITIVE
Collision energy: 60 V
Fragmentation mode: CID
Ionization: ESI
Precursor m/z: 118.08625
Precursor type: [M+H]+
m/z	relative intensity	assigned
27.0228	48	[C2H6-3H]+
28.0179	33	
29.0383	34	[C2H6-H]+
30.0336	156	[CH5N-H]+
42.0338	638	[C3H8-2H]+
43.0416	255	
44.0493	41	
58.0652	999	[C3H9N-H]+
