Mass spectrum: Citric acid; GC-EI-QQ; MS2; POSITIVE; CID 10 V; 4 TBDMS-derivative; [M-189]+
Name: Citric acid
Class: Natural Product; tricarboxylic acid
Formula: C6H8O7
Exact mass: 192.02701
SMILES: OC(=O)CC(O)(CC(O)=O)C(O)=O
InChI: InChI=1S/C6H8O7/c7-3(8)1-6(13,5(11)12)2-4(9)10/h13H,1-2H2,(H,7,8)(H,9,10)(H,11,12)
Instrument: GCMS-TQ8040 (Shimadzu, Kyoto, Japan)
Instrument type: GC-EI-QQ
Ms type: MS2
Ion mode: POSITIVE
Collision energy: 10 V
Fragmentation mode: CID
Column name: DB-5MS+DG (Agilent Technologies, Santa Clara, CA, USA)
Derivative form: C30H64O7Si4
Derivative mass: 648.37291
Derivative type: 4 TBDMS
Precursor m/z: 459.20489
m/z	relative intensity	assigned
67.05	31	
73.1	676	
115.15	332	
147.1	999	
148.95	13	
189.15	103	
253.15	253	
256.9	10	
299.05	23	C13H23O4Si2+
327.1	93	
328.8	19	
387.3	88	
458.25	12	
459.2	168	
