Mass spectrum: Demethoxycurcumin; ESI-ITTOF; MS; Negative
Name: Demethoxycurcumin
Class: Natural Product; Curcumins
Formula: C20H18O5
Exact mass: 338.11542
SMILES: COC1=C(C=CC(=C1)/C=C/C(=C/C(=O)/C=C/C2=CC=C(C=C2)O)/O)O
InChI: InChI=1S/C20H18O5/c1-25-20-12-15(6-11-19(20)24)5-10-18(23)13-17(22)9-4-14-2-7-16(21)8-3-14/h2-13,21,23-24H,1H3/b9-4+,10-5+,18-13-
Instrument: LC-IT-TOF (Shimadzu)
Instrument type: ESI-ITTOF
Ms type: MS
Ion mode: NEGATIVE
Ionization: ESI
m/z	relative intensity
337.108	999
338.1122	289
339.1128	38
