Mass spectrum: 2-(4-Methoxyphenyl)ethylamine; LC-ESI-QQ; MS2; POSITIVE; [M+H]+; CID; 10 V
Name: 2-(4-Methoxyphenyl)ethylamine
Class: Non-natural product; Phenethylamine
Formula: C9H13NO
Exact mass: 151.09971
SMILES: COC1=CC=C(C=C1)CCN
InChI: InChI=1S/C9H13NO/c1-11-9-4-2-8(3-5-9)6-7-10/h2-5H,6-7,10H2,1H3
Instrument: Xevo TQS micro (Waters, MA, USA) coupled to ACQUITY UPLC H-Class (Waters, MA, USA)
Instrument type: LC-ESI-QQ
Ms type: MS2
Ion mode: POSITIVE
Collision energy: 10 V
Fragmentation mode: CID
Ionization: ESI
Column name: Acquity UPLC BEH AMIDE column (1.7 Âµm, 2.1 x 150 mm; Waters, MA, USA)
Precursor m/z: 152.106987
Precursor type: [M+H]+
m/z	relative intensity
105.0	17
105.3	5
135.0	999
151.9	6
