Mass spectrum: 1,2-Bis(p-(2-hydroxyethoxycarbonyl)benzoyloxy)ethane; ESI-QTOF; MS2; POSITIVE; [M+H]+; CID; 10 V
Name: 1,2-Bis(p-(2-hydroxyethoxycarbonyl)benzoyloxy)ethane
Class: Non-natural product
Formula: C22H22O10
Exact mass: 446.1213
SMILES: C1=CC(=CC=C1C(=O)OCCO)C(=O)OCCOC(=O)C2=CC=C(C=C2)C(=O)OCCO
InChI: InChI=1S/C22H22O10/c23-9-11-29-19(25)15-1-5-17(6-2-15)21(27)31-13-14-32-22(28)18-7-3-16(4-8-18)20(26)30-12-10-24/h1-8,23-24H,9-14H2
Instrument: X500R QTOF (AB Sciex Pte. Ltd, USA)
Instrument type: ESI-QTOF
Ms type: MS2
Ion mode: POSITIVE
Collision energy: 10 V
Fragmentation mode: CID
Ionization: ESI
Precursor m/z: 447.1286
Precursor type: [M+H]+
m/z	relative intensity
237.0759	53
429.1178	999
431.0871	41
447.1217	293
447.3464	22
