Mass spectrum: 2-(4-Methylphenyl)ethylamine; LC-ESI-QQ; MS2; POSITIVE; [M+H]+; CID; 10 V
Name: 2-(4-Methylphenyl)ethylamine
Class: Non-natural product; Phenethylamine
Formula: C9H13N
Exact mass: 135.10480
SMILES: CC1=CC=C(C=C1)CCN
InChI: InChI=1S/C9H13N/c1-8-2-4-9(5-3-8)6-7-10/h2-5H,6-7,10H2,1H3
Instrument: Xevo TQS micro (Waters, MA, USA) coupled to ACQUITY UPLC H-Class (Waters, MA, USA)
Instrument type: LC-ESI-QQ
Ms type: MS2
Ion mode: POSITIVE
Collision energy: 10 V
Fragmentation mode: CID
Ionization: ESI
Column name: Acquity UPLC BEH AMIDE column (1.7 Âµm, 2.1 x 150 mm; Waters, MA, USA)
Precursor m/z: 136.11207
Precursor type: [M+H]+
m/z	relative intensity
31.2	30
31.9	12
41.3	11
41.7	22
42.2	26
42.4	15
43.0	12
43.1	14
43.9	7
44.7	9
45.9	13
53.7	6
54.1	12
54.9	9
57.1	12
58.7	19
58.9	8
59.2	25
74.2	23
74.9	10
76.7	6
77.0	36
77.5	18
81.0	9
85.3	9
86.0	10
86.3	77
86.5	81
87.5	6
87.8	23
88.1	48
88.4	19
90.8	10
91.1	11
93.1	21
93.4	10
94.6	201
95.0	123
95.3	159
95.8	147
98.3	7
102.9	14
103.4	11
103.6	51
103.9	143
104.1	82
104.3	58
104.7	12
107.1	12
107.8	11
108.0	13
108.5	14
110.9	9
112.7	8
113.8	8
113.9	9
117.0	8
117.6	169
118.1	176
118.4	66
118.9	999
119.1	862
119.6	22
119.8	9
121.2	7
131.1	6
135.5	23
135.7	152
135.9	198
136.2	258
140.0	12
141.7	8
144.5	7
