Mass spectrum: Trigonelline; ESI-QTOF; MS2; POSITIVE; [M+H]+; CID; 20 V
Name: Trigonelline
Class: Alkaloid
Formula: C7H7NO2
Exact mass: 137.04768
SMILES: C[N+]1=CC=CC(=C1)C(=O)[O-]
InChI: InChI=1S/C7H7NO2/c1-8-4-2-3-6(5-8)7(9)10/h2-5H,1H3
Instrument: X500R QTOF (AB Sciex LLC, USA)
Instrument type: ESI-QTOF
Ms type: MS2
Ion mode: POSITIVE
Collision energy: 20 V
Fragmentation mode: CID
Ionization: ESI
Precursor m/z: 138.05495
Precursor type: [M+H]+
m/z	relative intensity	assigned
45.0334	15	
59.0492	46	
92.0494	156	[C6H8N-2H]+
94.0651	132	[C6H8N]+
138.0547	999	[C7H7NO2+H]+
