Mass spectrum: Diphenylguanidine; ESI-QTOF; MS2; ESI; NEGATIVE; CE 40 V
Name: Diphenylguanidine
Class: Non-natural product
Formula: C13H13N3
Exact mass: 211.11093
SMILES: N=C(Nc1ccccc1)Nc1ccccc1
InChI: InChI=1S/C13H13N3/c14-13(15-11-7-3-1-4-8-11)16-12-9-5-2-6-10-12/h1-10H,(H3,14,15,16)
Instrument: X500R QTOF (AB Sciex LLC, USA)
Instrument type: ESI-QTOF
Ms type: MS2
Ion mode: NEGATIVE
Collision energy: 40 V
Ionization: ESI
Precursor m/z: 210.10366
Precursor type: [M-H]-
m/z	relative intensity
41.0137	12
92.0494	177
117.0446	999
