Mass spectrum: (7Z)-17-Methylhentriacontane-7-ene; GC-FI-TOF; MS; positive; FI; 10 kV
Name: (7Z)-17-Methylhentriacontane-7-ene
Class: Non-natural product
Formula: C32H64
Exact mass: 448.50080
SMILES: CC(CCCCCCCCCCCCCC)CCCCCCCC/C=C\CCCCCC
InChI: InChI=1S/C32H64/c1-4-6-8-10-12-14-16-18-19-21-23-25-27-29-31-32(3)30-28-26-24-22-20-17-15-13-11-9-7-5-2/h14,16,32H,4-13,15,17-31H2,1-3H3/b16-14-
Instrument: JMS-T100GCV (JEOL, Akishima, Japan) coupled to Agilent 7890A (Agilent, Wilmington, USA) gas chromatograph.
Instrument type: GC-FI-TOF
Ms type: MS
Ion mode: POSITIVE
Ionization: FI
Column name: HP-5 19091 J-413 USD364547H (Agilent, Wilmington, USA), length 30.0 m, I.D. 0.32 mm, thickness 0.25 micrometer.
Retention time: 12.68 min.
m/z	relative intensity
448.501	999
449.504	375
