Mass spectrum: (6R)-2,6-Dimethyl-2-nonene; GC-EI-TOF; MS; positive; EI; 70 V
Name: (6R)-2,6-Dimethyl-2-nonene
Class: Non-natural product
Formula: C11H22
Exact mass: 154.17215
SMILES: CCC[C@@H](C)CCC=C(C)C
InChI: InChI=1S/C11H22/c1-5-7-11(4)9-6-8-10(2)3/h8,11H,5-7,9H2,1-4H3/t11-/m1/s1
Instrument: JMS-T100GCV (JEOL, Akishima, Japan) coupled to Agilent 7890A (Agilent, Wilmington, USA) gas chromatograph.
Instrument type: GC-EI-TOF
Ms type: MS
Ion mode: POSITIVE
Ionization: EI
Column name: HP-5 19091 J-413 USD364547H (Agilent, Wilmington, USA), length 30 m, I.D. 0.32 mm, thickness 0.25 micrometer.
Retention time: 5.48 min.
m/z	relative intensity
27.023	110
27.066	1
28.006	8
28.031	13
29.039	129
29.083	1
30.043	3
31.990	5
38.015	2
39.024	125
39.071	1
40.031	26
41.039	692
41.064	5
41.092	6
41.325	2
41.355	2
41.566	1
41.810	1
41.837	1
42.046	76
43.055	539
43.080	4
43.108	5
43.339	1
43.379	1
43.594	1
44.058	17
51.024	11
52.031	7
53.039	88
53.100	1
54.047	31
55.055	458
55.083	3
55.115	4
55.198	1
55.421	1
56.063	603
56.091	4
56.124	5
56.431	2
56.684	1
57.070	114
57.132	1
58.073	4
63.023	2
65.039	18
66.046	7
67.055	119
67.122	1
67.187	1
68.062	69
68.128	1
69.070	999
69.138	9
69.480	3
69.759	2
70.078	351
70.141	4
70.377	1
70.427	1
70.489	1
70.723	1
71.085	83
71.139	1
72.089	4
77.039	14
78.046	2
79.055	16
80.062	3
81.070	21
82.078	22
83.086	117
83.156	1
84.094	371
84.169	4
84.274	1
84.462	1
84.499	1
84.547	1
84.843	1
85.101	86
85.170	1
86.105	5
91.055	6
93.070	3
95.086	13
96.093	5
97.102	93
97.174	1
98.109	49
99.113	5
109.102	3
110.109	5
111.117	97
111.204	1
112.123	21
113.128	2
125.133	2
126.141	7
139.148	2
154.172	232
155.176	28
156.179	2
