Mass spectrum: Methyl [(1S)-1,2-dimethyl-3-oxocyclopentyl]acetate; GC-EI-TOF; MS; positive; EI; 70 V
Name: Methyl [(1S)-1,2-dimethyl-3-oxocyclopentyl]acetate
Class: Non-natural product
Formula: C10H16O3
Exact mass: 184.10994
SMILES: COC(=O)C[C@]1(C)CCC(=O)C1C
InChI: InChI=1S/C10H16O3/c1-7-8(11)4-5-10(7,2)6-9(12)13-3/h7H,4-6H2,1-3H3/t7?,10-/m0/s1
Instrument: JMS-T100GCV (JEOL, Akishima, Japan) coupled to Agilent 7890A (Agilent, Wilmington, USA) gas chromatograph.
Instrument type: GC-EI-TOF
Ms type: MS
Ion mode: POSITIVE
Ionization: EI
Column name: HP-5 19091 J-413 USD364547H (Agilent, Wilmington, USA), length 30 m, I.D. 0.32 mm, thickness 0.25 micrometer.
Retention time: 7.7 min.
m/z	relative intensity
26.016	7
27.024	97
27.044	1
27.067	1
28.006	37
28.032	77
29.003	11
29.039	61
29.079	1
31.019	10
31.990	12
38.016	4
39.024	116
40.031	27
41.040	307
42.011	31
42.046	21
43.019	98
43.055	28
43.107	1
44.025	4
44.998	3
45.034	11
50.016	5
51.024	16
52.032	10
53.040	82
53.099	1
54.047	27
55.019	55
55.055	191
56.027	71
56.060	12
57.034	28
57.071	2
58.040	2
59.014	84
59.050	12
60.017	2
63.024	3
65.040	19
66.047	8
67.055	119
68.026	2
68.063	148
69.035	10
69.071	308
70.042	9
70.075	20
71.050	17
72.057	4
73.066	11
74.037	143
75.044	17
77.040	13
78.046	3
79.055	24
80.062	5
81.035	10
81.071	55
82.042	13
82.078	61
82.152	1
83.050	9
83.086	134
84.090	9
85.066	37
86.073	10
87.045	5
87.081	36
88.053	12
88.085	2
91.055	13
92.061	2
93.071	12
94.076	1
95.050	74
95.086	9
96.058	97
96.094	15
97.065	58
97.102	10
98.069	4
99.045	2
99.081	12
100.087	2
105.071	3
106.078	3
107.086	9
109.066	59
110.073	347
110.535	1
111.081	999
111.458	2
111.602	3
112.085	73
112.171	1
112.343	1
113.061	16
114.068	5
115.075	2
123.045	3
123.081	5
124.089	30
125.096	8
127.076	97
128.083	24
129.091	15
137.060	5
141.092	13
142.098	4
151.075	2
152.083	4
153.092	113
154.095	11
155.071	4
156.115	13
169.087	43
170.090	4
184.110	132
185.113	14
186.116	1
