Mass spectrum: Cyanophenylguanidine; ESI-QTOF; MS2; ESI; POSITIVE; CE 50 V
Name: Cyanophenylguanidine
Class: Non-natural product
Formula: C8H8N4
Exact mass: 160.07488
SMILES: N#Cc1ccc(NC(=N)N)cc1
InChI: InChI=1S/C8H8N4/c9-5-6-1-3-7(4-2-6)12-8(10)11/h1-4H,(H4,10,11,12)
Instrument: X500R QTOF (AB Sciex LLC, USA)
Instrument type: ESI-QTOF
Ms type: MS2
Ion mode: POSITIVE
Collision energy: 50 V
Ionization: ESI
Precursor m/z: 161.08216
Precursor type: [M+H]+
m/z	relative intensity
39.0231	149
43.0286	651
50.0156	84
51.0224	721
52.0186	136
63.023	221
64.0188	84
65.0382	474
74.0152	206
75.022	849
76.0177	722
90.0331	848
92.0497	155
102.0327	999
117.0449	154
130.0392	655
