Mass spectrum: (2S,3R)-(-)-2,3-epoxyoctanal; GC-FI-TOF; MS; POSITIVE; FI; 10 kV
Name: (2S,3R)-(-)-2,3-epoxyoctanal
Class: Non-natural compound
Formula: C8H14O2
Exact mass: 142.09938
SMILES: CCCCC[C@H]1O[C@@H]1C=O
InChI: InChI=1S/C8H14O2/c1-2-3-4-5-7-8(6-9)10-7/h6-8H,2-5H2,1H3/t7-,8-/m1/s1
Instrument: JMS-T100GCV (JEOL, Akishima, Japan) coupled to Agilent 7890A gas chromatograph.
Instrument type: GC-FI-TOF
Ms type: MS
Ion mode: POSITIVE
Ionization: FI
Column name: HP-5 19091J-413 USD364547H (Agilent), length 30.0 m, I.D. 0.32 mm, thickness 0.25 micrometer.
Retention time: 5.59 min.
m/z	relative intensity
29.039	683
43.056	125
57.03	125
57.071	160
71.014	284
71.045	100
87.042	121
95.084	180
113.059	114
113.094	336
125.1	86
141.09	249
142.099	999
143.104	399
