Mass spectrum: alpha-Ketoglutaric acid; GC-EI-QQ; MS2; positive; CID 5 V; MEOX,2TMS-derivative; [M-31]+
Name: alpha-Ketoglutaric acid
Class: Natural Product; glutaric acid
Formula: C5H6O5
Exact mass: 146.02153
SMILES: OC(=O)C(=O)CCC(=O)O
InChI: InChI=1S/C5H6O5/c6-3(5(9)10)1-2-4(7)8/h1-2H2,(H,7,8)(H,9,10)
Instrument: GCMS-TQ8040 (Shimadzu, Kyoto, Japan)
Instrument type: GC-EI-QQ
Ms type: MS2
Ion mode: POSITIVE
Collision energy: 5V
Fragmentation mode: CID
Column name: DB-5MS+DG (Agilent Technologies, Santa Clara, CA, USA)
Derivative form: C12H25NO5Si2
Derivative mass: 319.12712
Derivative type: MEOX,2TMS
Precursor m/z: 288.10819
m/z	relative intensity	assigned
73	214	
91	11	
98	10	
126.2	43	
146.8	30	
148.8	10	
153.8	24	
170.1	213	
182.1	23	
198.15	999	
216.1	12	
228.1	12	
244.15	477	
260.2	39	
272.1	101	
288.15	687	C11H22NO4Si2+
