Mass spectrum: (S)-1-((2S,5S)-5-(Hydroxymethyl)tetrahydrofuran-2-yl)but-3-en-2-ol; GC-EI-TOF; MS; POSITIVE; EI; 70 V
Name: (S)-1-((2S,5S)-5-(Hydroxymethyl)tetrahydrofuran-2-yl)but-3-en-2-ol
Class: Non-natural compound
Formula: C9H16O3
Exact mass: 172.10995
SMILES: C=C[C@@H](O)C[C@@H]1CC[C@@H](CO)O1
InChI: InChI=1S/C9H16O3/c1-2-7(11)5-8-3-4-9(6-10)12-8/h2,7-11H,1,3-6H2/t7-,8+,9+/m1/s1
Instrument: JMS-T100GCV (JEOL, Akishima, Japan) coupled to Agilent 7890A gas chromatograph.
Instrument type: GC-EI-TOF
Ms type: MS
Ion mode: POSITIVE
Ionization: EI
Column name: ZB-1MS 7HM-G011-11 sn:313446, length 30.0 m, I.D. 0.32 mm, thickness 0.25 micrometer.
Retention time: 7.88 min.
m/z	relative intensity
26.015	5
27.023	112
27.066	1
28.006	10
28.031	35
29.003	95
29.039	143
29.083	2
30.009	3
30.043	4
31.018	152
31.063	2
31.99	6
32.024	3
39.023	87
40.03	13
41.039	208
41.091	2
42.011	16
42.046	29
43.018	160
43.055	43
43.11	1
44.026	45
45.034	39
47.013	3
51.023	8
52.031	5
53.039	46
54.047	55
55.018	135
55.055	216
55.159	1
56.026	39
56.061	30
57.034	999
57.07	51
57.406	3
57.665	2
57.949	1
58.039	43
58.074	2
59.049	22
61.029	13
65.039	12
66.047	8
67.054	150
67.117	2
68.026	9
68.061	23
69.034	133
69.07	13
70.041	32
70.076	2
71.013	2
71.049	98
71.117	1
72.054	6
73.029	3
73.065	9
74.037	4
77.039	21
78.045	4
79.054	134
79.125	2
80.062	44
81.034	14
81.07	27
82.041	7
82.074	2
83.049	93
83.124	1
84.056	14
85.029	3
85.065	82
85.139	1
86.069	5
87.044	635
87.226	1
87.504	2
87.823	1
88.048	28
89.049	3
91.054	8
93.07	20
94.076	3
95.049	13
95.086	74
96.057	9
96.089	6
97.065	12
98.073	30
99.044	5
99.076	2
100.051	3
101.06	110
101.142	1
102.064	6
103.057	2
105.07	19
114.068	13
115.074	3
116.084	14
123.081	24
124.086	3
126.903	4
127.912	8
141.092	101
141.186	1
142.096	10
154.099	6
