Mass spectrum: Acetylpheneturide; LC-ESI-QQ; MS; ESI; NEGATIVE
Name: Acetylpheneturide
Class: Non-natural product
Formula: C13H16N2O3
Exact mass: 248.116085
SMILES: CCC(C1=CC=CC=C1)C(=O)NC(=O)NC(=O)C
InChI: InChI=1S/C13H16N2O3/c1-3-11(10-7-5-4-6-8-10)12(17)15-13(18)14-9(2)16/h4-8,11H,3H2,1-2H3,(H2,14,15,16,17,18)
Instrument: LCMS-8040 coupled to Nexera XR (Shimadzu, Kyoto, Japan).
Instrument type: LC-ESI-QQ
Ms type: MS
Ion mode: NEGATIVE
Ionization: ESI
Column name: InertSustain C18 ID 2.1 microm, 2.1 x 100 mm (GL Science, Tokyo, Japan).
Retention time: 8.901 min
m/z	relative intensity
162.1	39
204.2	14
205.1	28
247.1	999
248.2	162
249.2	14
283.1	87
284.2	15
285.1	12
305.1	19
315.1	17
337.2	11
