Mass spectrum: Methyl [(1S)-1,2-dimethyl-3-oxocyclopentyl]acetate; GC-EI-TOF; MS; positive; EI; 70 V
Name: Methyl [(1S)-1,2-dimethyl-3-oxocyclopentyl]acetate
Class: Non-natural product
Formula: C10H16O3
Exact mass: 184.10994
SMILES: COC(=O)C[C@]1(C)CCC(=O)C1C
InChI: InChI=1S/C10H16O3/c1-7-8(11)4-5-10(7,2)6-9(12)13-3/h7H,4-6H2,1-3H3/t7?,10-/m0/s1
Instrument: JMS-T100GCV (JEOL, Akishima, Japan) coupled to Agilent 7890A (Agilent, Wilmington, USA) gas chromatograph.
Instrument type: GC-EI-TOF
Ms type: MS
Ion mode: POSITIVE
Ionization: EI
Column name: HP-5 19091 J-413 USD364547H (Agilent, Wilmington, USA), length 30 m, I.D. 0.32 mm, thickness 0.25 micrometer.
Retention time: 7.78 min.
m/z	relative intensity
26.016	5
27.024	64
28.006	39
28.032	52
29.003	8
29.039	41
31.019	7
31.990	13
38.016	2
39.024	78
39.073	1
40.031	18
41.040	205
42.011	21
42.046	14
43.019	82
43.055	18
44.025	4
45.034	7
50.016	4
51.024	11
52.032	7
53.040	55
54.047	17
55.019	37
55.055	126
56.026	43
56.060	8
57.034	15
57.070	2
59.014	57
59.050	9
63.024	2
65.040	13
66.047	5
67.055	81
67.124	1
68.063	91
68.122	1
69.035	8
69.071	179
69.186	1
70.042	4
70.075	12
71.050	11
72.057	2
73.065	6
74.037	103
75.043	6
77.040	10
78.046	2
79.055	16
80.061	3
81.034	5
81.071	35
82.042	8
82.078	32
83.050	6
83.086	68
83.161	1
84.090	5
85.066	22
86.073	6
87.045	3
87.081	21
88.053	6
91.055	11
93.070	10
95.050	40
95.086	6
96.058	56
96.094	6
96.136	1
97.065	30
97.102	15
98.069	2
99.081	8
107.086	5
109.066	38
110.073	93
110.150	1
111.081	999
111.602	3
112.084	78
112.166	1
112.337	1
112.714	1
112.765	1
113.061	9
114.067	3
123.082	3
124.089	8
125.096	13
127.076	44
128.083	12
129.091	8
137.060	5
141.092	7
151.075	2
152.084	2
153.092	66
154.095	6
155.081	1
169.087	46
170.089	4
184.110	21
185.113	2
