Mass spectrum: rac-(S)-1-((2S,5S)-5-(Hydroxymethyl)tetrahydrofuran-2-yl)but-3-en-2-ol; GC-FI-TOF; MS; POSITIVE; FI; 10 kV
Name: rac-(S)-1-((2S,5S)-5-(Hydroxymethyl)tetrahydrofuran-2-yl)but-3-en-2-ol
Class: Non-natural compound
Formula: C9H16O3
Exact mass: 172.10995
SMILES: C=C[C@@H](O)C[C@@H]1CC[C@@H](CO)O1
InChI: InChI=1S/C9H16O3/c1-2-7(11)5-8-3-4-9(6-10)12-8/h2,7-11H,1,3-6H2/t7-,8+,9+/m1/s1
Instrument: JMS-T100GCV (JEOL, Akishima, Japan) coupled to Agilent 7890A gas chromatograph.
Instrument type: GC-FI-TOF
Ms type: MS
Ion mode: POSITIVE
Ionization: FI
Column name: ZB-1MS 7HM-G011-11 sn:313446, length 30.0 m, I.D. 0.32 mm, thickness 0.25 micrometer.
Retention time: 7.84 min.
m/z	relative intensity
29.002	7
31.019	75
56.026	11
57.034	44
71.049	18
78.057	47
78.559	6
87.044	13
101.061	78
114.068	14
115.075	10
116.084	12
117.052	6
119.073	5
123.079	43
136.087	6
141.091	999
142.095	100
143.097	10
154.098	332
155.104	48
171.103	34
172.111	55
173.118	563
173.307	5
174.121	57
175.124	7
