Mass spectrum: Citric acid-[6-13C]; GC-EI-QQ; MS2; POSITIVE; CID 10 V; 4 TBDMS-derivative; [M-292]+
Name: Citric acid-[6-13C]
Class: In vitro synthetic compound
Formula: C6H8O7
Exact mass: 192.0270
SMILES: OC(=O)CC(O)(CC(O)=O)C(O)=O
InChI: InChI=1S/C6H8O7/c7-3(8)1-6(13,5(11)12)2-4(9)10/h13H,1-2H2,(H,7,8)(H,9,10)(H,11,12)/i5+1
Instrument: GCMS-TQ8040 (Shimadzu, Kyoto, Japan)
Instrument type: GC-EI-QQ
Ms type: MS2
Ion mode: POSITIVE
Collision energy: 10 V
Fragmentation mode: CID
Column name: DB-5MS+DG (Agilent Technologies, Santa Clara, CA, USA)
Derivative form: C30H64O7Si4
Derivative mass: 648.37291
Derivative type: 4 TBDMS
Precursor m/z: 357.19119
m/z	relative intensity	assigned
73.15	999	
115.1	292	
147.05	19	
183.3	15	
225.1	429	
243	21	
313.25	108	
315.3	24	
341.15	19	
356.25	17	
357.2	878	C17H33O4Si2+
