Mass spectrum: (4S)-4-Methyloctanoic acid; GC-FI-TOF; MS; positive; FI; 10 kV
Name: (4S)-4-Methyloctanoic acid
Class: Non-natural product
Formula: C9H18O2
Exact mass: 158.13068
SMILES: O=C(O)CC[C@H](CCCC)C
InChI: InChI=1S/C9H18O2/c1-3-4-5-8(2)6-7-9(10)11/h8H,3-7H2,1-2H3,(H,10,11)/t8-/m0/s1
Instrument: JMS-T100GCV (JEOL, Akishima, Japan) coupled to Agilent 7890A (Agilent, Wilmington, USA) gas chromatograph.
Instrument type: GC-FI-TOF
Ms type: MS
Ion mode: POSITIVE
Ionization: FI
Column name: HP-5 19091 J-413 USD364547H (Agilent, Wilmington, USA), length 30.0 m, I.D. 0.32 mm, thickness 0.25 micrometer.
Retention time: 7.05 min.
m/z	relative intensity
29.040	50
58.399	12
85.104	22
99.116	51
101.059	149
102.070	13
122.108	17
129.091	24
141.129	17
141.708	11
157.125	26
158.131	999
158.322	10
159.136	184
160.137	22
