Mass spectrum: 2-(4-Trifluoromethylphenyl)ethylamine; LC-ESI-QQ; MS2; POSITIVE; [M+H]+; CID; 50 V
Name: 2-(4-Trifluoromethylphenyl)ethylamine
Class: Non-natural product; Phenethylamine
Formula: C9H10F3N
Exact mass: 189.07653
SMILES: C1=CC(=CC=C1CCN)C(F)(F)F
InChI: InChI=1S/C9H10F3N/c10-9(11,12)8-3-1-7(2-4-8)5-6-13/h1-4H,5-6,13H2
Instrument: Xevo TQS micro (Waters, MA, USA) coupled to ACQUITY UPLC H-Class (Waters, MA, USA)
Instrument type: LC-ESI-QQ
Ms type: MS2
Ion mode: POSITIVE
Collision energy: 50 V
Fragmentation mode: CID
Ionization: ESI
Column name: Acquity UPLC BEH AMIDE column (1.7 Âµm, 2.1 x 150 mm; Waters, MA, USA)
Precursor m/z: 190.08381
Precursor type: [M+H]+
m/z	relative intensity
26.9	28
27.1	14
27.3	15
29.6	4
29.9	7
30.4	3
38.7	22
38.9	28
39.1	23
49.7	11
49.9	5
50.1	5
51.0	178
51.2	81
51.6	6
51.9	12
52.3	10
53.1	3
56.6	26
56.9	81
57.2	40
59.0	44
62.9	141
64.7	6
65.0	7
65.2	5
65.3	4
68.6	11
68.9	22
69.1	20
69.3	12
73.6	5
73.8	5
74.2	16
75.0	246
76.2	40
77.0	999
78.0	204
78.2	160
80.6	14
80.8	22
81.0	24
81.2	20
82.2	5
83.0	426
86.0	4
86.9	30
87.2	12
87.3	8
87.7	3
88.1	3
88.7	5
89.0	10
89.4	3
93.1	4
94.7	25
95.0	88
96.0	3
98.7	3
99.1	7
99.3	3
100.9	47
101.1	27
101.3	23
102.0	194
102.8	87
103.0	130
103.2	124
104.0	62
104.3	26
105.0	9
106.0	5
106.3	5
107.0	338
108.7	3
109.1	11
113.0	56
113.9	12
114.2	8
118.9	3
119.3	4
124.7	9
125.1	21
126.7	35
127.1	136
130.8	9
131.1	6
131.4	9
131.6	7
131.8	6
132.1	25
132.3	13
133.0	691
133.8	3
144.7	4
145.1	14
150.3	3
150.8	20
151.0	25
151.3	23
152.1	3
152.5	3
152.8	9
153.1	17
153.5	3
