Mass spectrum: Acetyldaidzin; ESI-QTOF; MS2; NEGATIVE; [M-H]-; CID; 10 V
Name: Acetyldaidzin
Class: 7-Hydroxyisoflavone
Formula: C23H22O10
Exact mass: 458.12130
SMILES: CC(=O)OC[C@@H]1[C@H]([C@@H]([C@H]([C@@H](O1)OC2=CC3=C(C=C2)C(=O)C(=CO3)C4=CC=C(C=C4)O)O)O)O
InChI: InChI=1S/C23H22O10/c1-11(24)30-10-18-20(27)21(28)22(29)23(33-18)32-14-6-7-15-17(8-14)31-9-16(19(15)26)12-2-4-13(25)5-3-12/h2-9,18,20-23,25,27-29H,10H2,1H3/t18-,20-,21+,22-,23-/m1/s1
Instrument: X500R QTOF (AB Sciex LLC, USA)
Instrument type: ESI-QTOF
Ms type: MS2
Ion mode: NEGATIVE
Collision energy: 10 V
Fragmentation mode: CID
Ionization: ESI
Precursor m/z: 457.11402
Precursor type: [M-H]-
m/z	relative intensity
253.0489	999
254.053	21
295.0601	16
457.1109	461
