Mass spectrum: Acarbose; ESI-QQ; MS2; POSITIVE; [M+H]+; CID; CE: 35 eV
Name: Acarbose
Class: Non-natural product.
Formula: C25H43NO18
Exact mass: 645.248015
SMILES: C[C@@H]1[C@H]([C@@H]([C@H]([C@H](O1)O[C@@H]2[C@H](O[C@@H]([C@@H]([C@H]2O)O)O[C@@H]3[C@H](O[C@H]([C@@H]([C@H]3O)O)O)CO)CO)O)O)N[C@H]4C=C([C@H]([C@@H]([C@H]4O)O)O)CO
InChI: InChI=1S/C25H43NO18/c1-6-11(26-8-2-7(3-27)12(30)15(33)13(8)31)14(32)19(37)24(40-6)43-22-10(5-29)42-25(20(38)17(22)35)44-21-9(4-28)41-23(39)18(36)16(21)34/h2,6,8-39H,3-5H2,1H3/t6-,8+,9-,10-,11-,12-,13+,14+,15+,16-,17-,18-,19-,20-,21-,22-,23-,24-,25-/m1/s1
Instrument: Triple Quad 4500 (AB Sciex Pte. Ltd., USA)
Instrument type: LC-ESI-QQ
Ms type: MS2
Ion mode: POSITIVE
Collision energy: 35 eV
Fragmentation mode: CID
Ionization: ESI
Precursor m/z: 646.25529
Precursor type: [M+H]+
m/z	relative intensity
100.1605	1
109.9842	2
111.0042	3
123.0443	2
128.0921	11
141.0350	2
146.1266	189
148.2730	1
162.1958	1
166.9683	1
176.1585	1
202.2740	1
208.1345	1
214.0640	1
220.0337	1
222.1718	2
226.1521	1
232.1122	2
238.0853	1
240.1709	2
242.1520	1
250.1207	3
268.1220	11
286.1335	44
304.1076	999
308.1256	5
438.7878	1
466.1612	17
478.8640	1
488.2069	2
497.8173	5
532.8000	3
591.8751	7
592.6307	1
628.2299	2
646.2471	57
