Mass spectrum: Peridinin; LC-ESI-QTOF; MS2; POSITIVE; ESI; [M+Na]+; CE 20 V.
Name: Peridinin
Class: Natural product; carotenoids; xanthophyll
Formula: C39H50O7
Exact mass: 630.3557
SMILES: C/C(=C\C=C\C=C\C=C(/C)\C=C/1\C=C(C(=O)O1)/C=C/[C@]23[C@](O2)(C[C@H](CC3(C)C)O)C)/C=C=C4[C@](C[C@H](CC4(C)C)OC(=O)C)(C)O
InChI: InChI=1S/C39H50O7/c1-26(16-17-33-35(4,5)24-32(44-28(3)40)25-37(33,8)43)14-12-10-11-13-15-27(2)20-31-21-29(34(42)45-31)18-19-39-36(6,7)22-30(41)23-38(39,9)46-39/h10-16,18-21,30,32,41,43H,22-25H2,1-9H3/b12-10+,13-11+,19-18+,26-14+,27-15+,31-20-/t17?,30-,32-,37+,38+,39-/m0/s1
Instrument: Xevo G2-S QtOF, Waters (USA) coupled to ACQUITY UPLC, Waters (USA).
Instrument type: LC-ESI-QTOF
Ms type: MS2
Ion mode: POSITIVE
Collision energy: 20 V
Ionization: ESI
Column name: BEH C18, I.D. 2.1 mm, length 100 mm, thickness 1.7 micrometer.
Ion type: [M+Na]+
Precursor m/z: 653.3449
m/z	relative intensity
530.893	12
542.977	12
561.296	22
570.856	16
575.312	26
593.329	21
635.342	29
643.056	10
652.923	11
653.346	999
653.379	135
653.429	13
654.349	341
655.362	20
655.383	22
