Mass spectrum: (1S)-2,3-Dimethylcyclopent-2-en-1-ol; GC-EI-TOF; MS; positive; EI; 70 V
Name: (1S)-2,3-Dimethylcyclopent-2-en-1-ol
Class: Non-natural product
Formula: C7H12O
Exact mass: 112.08882
SMILES: CC1=C(C)CC[C@@H]1O
InChI: InChI=1S/C7H12O/c1-5-3-4-7(8)6(5)2/h7-8H,3-4H2,1-2H3/t7-/m0/s1
Instrument: JMS-T100GCV (JEOL, Akishima, Japan) coupled to Agilent 7890A (Agilent, Wilmington, USA) gas chromatograph.
Instrument type: GC-EI-TOF
Ms type: MS
Ion mode: POSITIVE
Ionization: EI
Column name: HP-5 19091 J-413 USD364547H (Agilent, Wilmington, USA), length 30 m, I.D. 0.32 mm, thickness 0.25 micrometer.
Retention time: 4.1 min.
m/z	relative intensity
26.016	12
27.024	137
28.007	23
28.031	28
29.003	27
29.039	52
31.019	19
31.990	15
38.016	16
39.024	198
39.075	2
40.031	34
41.039	245
41.090	3
42.011	5
42.046	19
43.019	212
43.055	21
44.025	15
45.034	8
50.016	31
51.024	66
52.031	30
53.040	98
54.046	18
55.019	62
55.055	131
56.026	8
56.061	11
57.035	28
58.042	6
62.016	8
63.024	21
65.040	46
66.047	18
67.055	122
68.061	12
69.035	19
69.071	50
70.041	6
70.078	11
77.039	143
78.046	21
79.055	218
79.130	3
80.060	20
81.035	6
81.071	12
82.042	6
83.050	15
83.086	9
91.055	58
92.060	6
93.071	41
94.079	54
95.051	18
95.086	55
96.057	8
96.091	5
97.066	999
97.493	3
97.551	3
98.069	63
99.071	4
110.074	16
111.081	122
112.089	187
112.176	3
113.092	14
