Mass spectrum: Pachymic acid; ESI-QTOF; MS2; POSITIVE; [M+H]+; CID; 30 V
Name: Pachymic acid
Class: Non-natural product; Triterpenoid
Formula: C33H52O5
Exact mass: 528.38148
SMILES: CC(C)C(=C)CC[C@H]([C@H]1[C@@H](C[C@@]2([C@@]1(CCC3=C2CC[C@@H]4[C@@]3(CC[C@@H](C4(C)C)OC(=O)C)C)C)C)O)C(=O)O
InChI: InChI=1S/C33H52O5/c1-19(2)20(3)10-11-22(29(36)37)28-25(35)18-33(9)24-12-13-26-30(5,6)27(38-21(4)34)15-16-31(26,7)23(24)14-17-32(28,33)8/h19,22,25-28,35H,3,10-18H2,1-2,4-9H3,(H,36,37)/t22-,25-,26+,27+,28+,31-,32-,33+/m1/s1
Instrument: X500R QTOF (AB Sciex LLC, USA)
Instrument type: ESI-QTOF
Ms type: MS2
Ion mode: POSITIVE
Collision energy: 30 V
Fragmentation mode: CID
Ionization: ESI
Precursor m/z: 529.38875
Precursor type: [M+H]+
m/z	relative intensity
95.0858	14
97.1015	10
107.0858	11
109.1015	22
119.0858	10
121.1014	26
123.1171	16
133.1015	11
135.1172	22
137.1328	6
145.1015	12
147.1172	10
149.1328	10
153.0914	12
157.1016	7
159.1171	37
161.1329	12
163.1485	9
167.1072	5
171.1173	13
173.1329	31
175.1486	26
177.1643	7
185.1330	16
187.1485	58
189.1643	15
193.1592	10
199.1487	18
201.1643	17
203.1800	7
211.1487	8
213.1643	46
215.1800	22
225.1644	11
227.1801	35
229.1957	46
239.1800	13
241.1957	28
243.2114	11
253.1958	15
255.2113	49
259.1700	7
289.2169	12
293.2271	15
295.2422	432
296.2505	15
297.2582	82
315.2325	16
329.2481	27
343.2638	24
355.2636	100
367.2637	34
369.2795	15
381.2793	25
395.2949	13
405.3519	20
408.3027	28
409.3106	25
433.3469	54
451.3567	999
493.3680	17
511.3787	45
529.4054	25
