Mass spectrum: alpha-Ketoglutaric acid-[1,2,3,4-13C4]; GC-EI-QQ; MS2; positive; CID 5 V; MEOX,2TMS-derivative; [M-31]+
Name: alpha-Ketoglutaric acid-[1,2,3,4-13C4]
Class: In vitro synthetic compound
Formula: C5H6O5
Exact mass: 146.02152
SMILES: OC(=O)C(=O)CCC(=O)O
InChI: InChI=1S/C5H6O5/c6-3(5(9)10)1-2-4(7)8/h1-2H2,(H,7,8)(H,9,10)/i1+1,2+1,3+1,5+1
Instrument: GCMS-TQ8040 (Shimadzu, Kyoto, Japan)
Instrument type: GC-EI-QQ
Ms type: MS2
Ion mode: POSITIVE
Collision energy: 5 V
Fragmentation mode: CID
Column name: DB-5MS+DG (Agilent Technologies, Santa Clara, CA, USA)
Derivative form: C12H25NO5Si2
Derivative mass: 319.12712
Derivative type: MEOX,2TMS
Precursor m/z: 292.12161
m/z	relative intensity	assigned
73.05	219	
129.1	47	
130	12	
147.05	50	
157.05	60	
163.25	14	
173.1	205	
174.05	21	
186.1	16	
202.1	999	
219.1	14	
231.15	12	
247.15	361	
248.15	20	
263.15	25	
264.15	12	
276.1	109	
292.15	469	C7(13C4)H22NO4Si2+
