Mass spectrum: p,p'-DDD; GC-EI-Q; MS; Positive
Name: p,p'-DDD
Class: Non-Natural Product; Pesticides
Formula: C14H10Cl4
Exact mass: 317.95366
SMILES: Clc1ccc(cc1)C(C(Cl)Cl)c2ccc(Cl)cc2
InChI: InChI=1S/C14H10Cl4/c15-11-5-1-9(2-6-11)13(14(17)18)10-3-7-12(16)8-4-10/h1-8,13-14H
Instrument: GCMS-QP2010 Plus, Shimadzu
Instrument type: GC-EI-Q
Ms type: MS
Ion mode: POSITIVE
Ionization: EI
Column name: Ptx-5MS(RESTEK), 0.32 mm I.D. x 30 m, df=0.25 microm
Retention time: 14.32 min
Ion type: [M]+*
Precursor m/z: 317.95
m/z	relative intensity
40	8
41	134
42	139
43	421
44	173
45	34
46	13
47	56
48	24
53	7
54	8
55	43
56	23
57	14
58	358
59	21
61	6
67	16
68	271
69	197
70	37
71	167
72	18
73	9
74	117
75	9
76	5
78	5
80	6
81	10
82	14
83	46
84	13
85	69
86	13
89	7
90	5
91	10
92	4
93	29
94	38
95	26
96	121
97	32
99	183
100	35
101	7
102	6
103	18
106	105
107	12
108	5
109	9
110	49
111	78
112	16
113	13
114	9
115	16
116	27
117	27
121	7
122	107
123	46
124	10
125	18
127	31
128	21
130	14
135	5
136	23
137	33
138	103
139	59
140	24
141	21
142	64
143	12
144	34
150	4
151	10
152	54
153	17
154	5
155	128
156	42
157	77
158	7
164	10
166	23
167	9
168	7
169	57
170	308
171	86
172	15
180	8
181	41
182	14
184	153
185	223
186	29
194	6
196	16
198	3
200	7
202	3
204	7
212	555
213	65
214	30
224	12
225	11
226	72
227	999
228	133
229	55
230	7
