Mass spectrum: Amino-chlornitrofen; GC-EI-Q; MS; Positive
Name: Amino-chlornitrofen
Name: CNP-amino
Class: Non-Natural Product; Pesticides
Formula: C12H8Cl3NO
Exact mass: 286.96715
SMILES: C1=CC(=CC=C1N)OC2=C(C=C(C=C2Cl)Cl)Cl
InChI: InChI=1S/C12H8Cl3NO/c13-7-5-10(14)12(11(15)6-7)17-9-3-1-8(16)2-4-9/h1-6H,16H2
Instrument: GCMS-QP2010 Plus, Shimadzu
Instrument type: GC-EI-Q
Ms type: MS
Ion mode: POSITIVE
Ionization: EI
Column name: Ptx-5MS(RESTEK), 0.32 mm I.D. x 30 m, df=0.25 microm
Retention time: 13.31 min
m/z	relative intensity
40	8
41	21
42	8
44	6
50	8
51	13
52	37
53	62
54	13
61	5
62	17
63	34
64	31
65	192
66	27
72	4
73	11
74	19
75	9
76	7
77	13
78	9
79	8
80	143
81	9
84	5
90	6
91	12
92	41
94	7
97	11
99	10
107	10
108	999
109	86
110	8
121	16
125	6
126	10
127	19
128	5
143	25
144	19
145	9
146	5
147	5
152	5
153	10
154	17
155	5
161	7
162	5
167	5
169	7
179	8
181	10
182	5
183	5
188	11
189	10
196	10
198	7
216	5
217	82
218	12
219	29
224	13
226	9
251	13
252	9
253	13
286	14
287	544
288	78
289	518
290	72
291	169
292	21
293	17
