Mass spectrum: beta-Carotene; LC-ESI-QTOF; MS2; POSITIVE; ESI; [M]+; COLLISION_ENERGY 20 eV.
Name: beta-Carotene
Name: beta,beta-Carotene
Class: Natural product; carotenoids, carotene
Formula: C40H56
Exact mass: 536.43820
SMILES: CC1=C(C(CCC1)(C)C)/C=C/C(=C/C=C/C(=C/C=C/C=C(/C=C/C=C(/C=C/C2=C(CCCC2(C)C)C)\C)\C)/C)/C
InChI: InChI=1S/C40H56/c1-31(19-13-21-33(3)25-27-37-35(5)23-15-29-39(37,7)8)17-11-12-18-32(2)20-14-22-34(4)26-28-38-36(6)24-16-30-40(38,9)10/h11-14,17-22,25-28H,15-16,23-24,29-30H2,1-10H3/b12-11+,19-13+,20-14+,27-25+,28-26+,31-17+,32-18+,33-21+,34-22+
Instrument: Xevo G2-S QtOF, Waters (USA) coupled to ACQUITY UPLC, Waters (USA).
Instrument type: LC-ESI-QTOF
Ms type: MS2
Ion mode: POSITIVE
Collision energy: 20 V
Ionization: ESI
Column name: BEH C18, I.D. 2.1 mm, length 100 mm, thickness 1.7 micrometer.
Ion type: [M]+
Precursor m/z: 536.43765
m/z	relative intensity
95.086	105
105.071	57
107.086	90
109.102	82
119.086	238
120.092	54
121.102	172
123.117	125
133.102	132
135.117	68
137.133	101
145.102	121
147.117	120
149.133	60
157.102	134
159.117	126
161.133	116
169.102	63
171.117	180
173.133	89
175.149	141
177.164	308
183.117	94
185.133	127
187.148	85
189.164	120
197.133	115
199.148	73
201.164	78
203.18	157
209.133	149
211.148	116
213.164	63
215.18	59
223.149	91
225.164	52
227.18	61
235.149	55
237.164	52
239.18	98
241.195	112
243.211	93
253.195	68
254.203	96
255.211	117
267.211	187
268.217	70
269.226	92
279.211	58
281.226	74
293.227	57
307.242	95
323.274	80
333.258	67
338.297	72
346.265	61
359.274	63
399.305	58
429.352	101
430.358	57
444.376	999
445.379	362
446.382	51
535.431	208
536.438	434
537.442	171
