Mass spectrum: Ethidium; ESI-QQ; MS2; [M]+, CID, CE 30 V
Name: Ethidium
Class: Non-natural product
Formula: [C21H20N3]+
Exact mass: 314.16516
SMILES: CC[n+]1c2cc(ccc2c3ccc(cc3c1c4ccccc4)N)N
InChI: InChI=1S/C21H19N3/c1-2-24-20-13-16(23)9-11-18(20)17-10-8-15(22)12-19(17)21(24)14-6-4-3-5-7-14/h3-13,23H,2,22H2,1H3/p+1
Instrument: LCMS-8045 (Shimadzu, Kyoto, Japan)
Instrument type: LC-ESI-QQ
Ms type: MS2
Ion mode: POSITIVE
Collision energy: 30 V
Fragmentation mode: CID
Ionization: ESI
Precursor m/z: 314.16516
Precursor type: [M]+
m/z	relative intensity
181.1	70
208.1	235
269	195
284	954
285.05	721
286.05	999
298.2	57
