Mass spectrum: Fumaric acid; GC-EI-QQ; MS2; POSITIVE; CID 10 V; 2 TMS-derivative; [M-15]+
Name: Fumaric acid
Class: Natural Product
Formula: C4H4O4
Exact mass: 116.01096
SMILES: C(=C/C(=O)O)\C(=O)O
InChI: InChI=1S/C4H4O4/c5-3(6)1-2-4(7)8/h1-2H,(H,5,6)(H,7,8)/b2-1+
Instrument: GCMS-TQ8040 (Shimadzu, Kyoto, Japan)
Instrument type: GC-EI-QQ
Ms type: MS2
Ion mode: POSITIVE
Collision energy: 10 V
Fragmentation mode: CID
Column name: DB-5MS+DG (Agilent Technologies, Santa Clara, CA, USA)
Derivative form: C10H20O4Si2
Derivative mass: 260.09001
Derivative type: 2 TMS
Precursor m/z: 245.06599
m/z	relative intensity	assigned
73.05	645	
75.05	70	
127.1	39	
133.1	79	
143.15	19	C6H11O2Si+
147.1	999	
149.05	57	
155.05	71	
157.1	31	
171.1	80	
201.1	21	
217.1	108	
245.05	799	
