Mass spectrum: (2S,3S)-(-)-2,3-Epoxyoctyl 3,5-dinitrobenzoate; GC-FI-TOF; MS; positive; FI; 10 kV
Name: (2S,3S)-(-)-2,3-Epoxyoctyl 3,5-dinitrobenzoate
Class: Non-natural compound
Formula: C15H18N2O7
Exact mass: 388.1114
SMILES: O=C(OC[C@@H]1O[C@H]1CCCCC)c1cc(cc(c1)[N+]([O-])=O)[N+]([O-])=O
InChI: InChI=1S/C15H18N2O7/c1-2-3-4-5-13-14(24-13)9-23-15(18)10-6-11(16(19)20)8-12(7-10)17(21)22/h6-8,13-14H,2-5,9H2,1H3/t13-,14-/m0/s1
Instrument: JMS-T100GCV (JEOL, Akishima, Japan) coupled to Agilent 7890A (Agilent, Wilmington, USA) gas chromatograph.
Instrument type: GC-FI-TOF
Ms type: MS
Ion mode: POSITIVE
Ionization: FI
Column name: HP-5 19091 J-413 USD364547H (Agilent, Wilmington, USA), length 30.0 m, I.D. 0.32 mm, thickness 0.25 micrometer.
Retention time: 11.71 min.
m/z	relative intensity
29.04	302
56.064	97
295.091	517
296.093	147
337.102	199
339.119	999
340.124	201
