Mass spectrum: Soyasaponin I; ESI-QTOF; MS; POSITIVE
Name: Soyasaponin I
Class: Triterpenoid saponin
Formula: C48H78O18
Exact mass: 942.51882
SMILES: C[C@H]1[C@@H]([C@H]([C@H]([C@@H](O1)O[C@@H]2[C@H]([C@H]([C@H](O[C@H]2O[C@@H]3[C@H]([C@@H]([C@H](O[C@H]3O[C@H]4CC[C@]5([C@H]([C@@]4(C)CO)CC[C@@]6([C@@H]5CC=C7[C@]6(CC[C@@]8([C@H]7CC(C[C@H]8O)(C)C)C)C)C)C)C(=O)O)O)O)CO)O)O)O)O)O
InChI: InChI=1S/C48H78O18/c1-21-29(52)31(54)35(58)40(61-21)65-37-32(55)30(53)24(19-49)62-41(37)66-38-34(57)33(56)36(39(59)60)64-42(38)63-28-12-13-45(5)25(46(28,6)20-50)11-14-48(8)26(45)10-9-22-23-17-43(2,3)18-27(51)44(23,4)15-16-47(22,48)7/h9,21,23-38,40-42,49-58H,10-20H2,1-8H3,(H,59,60)/t21-,23-,24+,25+,26+,27+,28-,29-,30-,31+,32-,33-,34-,35+,36-,37+,38+,40-,41-,42+,44+,45-,46+,47+,48+/m0/s1
Instrument: X500R QTOF (AB Sciex LLC, USA)
Instrument type: ESI-QTOF
Ms type: MS
Ion mode: POSITIVE
Ionization: ESI
m/z	relative intensity
943.5268	29
965.5098	999
966.5126	375
967.5143	77
970.4867	47
970.9878	48
971.489	29
976.9949	11
981.4766	67
981.9762	50
982.4777	55
982.9783	26
983.4775	17
987.4914	199
987.9919	52
988.4942	91
989.4961	15
992.4676	27
992.9697	22
993.4703	25
993.9704	12
995.4657	24
996.4474	55
996.9476	44
997.4473	715
997.9477	244
998.4496	396
998.949	107
999.4494	213
999.9487	32
1000.4498	65
1001.4481	38
