Mass spectrum: 2-[(1S,2S)-1,2-Dimethyl-3-methylenecyclopentyl]ethan-1-ol; GC-FI-TOF; MS; positive; FI; 10 kV
Name: 2-[(1S,2S)-1,2-Dimethyl-3-methylenecyclopentyl]ethan-1-ol
Class: Non-natural product
Formula: C10H18O
Exact mass: 154.13577
SMILES: C[C@@]1(CCO)CCC(=C)[C@@H]1C
InChI: InChI=1S/C10H18O/c1-8-4-5-10(3,6-7-11)9(8)2/h9,11H,1,4-7H2,2-3H3/t9-,10-/m0/s1
Instrument: JMS-T100GCV (JEOL, Akishima, Japan) coupled to Agilent 7890A (Agilent, Wilmington, USA) gas chromatograph.
Instrument type: GC-FI-TOF
Ms type: MS
Ion mode: POSITIVE
Ionization: FI
Column name: HP-5 19091 J-413 USD364547H (Agilent, Wilmington, USA), length 30.0 m, I.D. 0.32 mm, thickness 0.25 micrometer.
Retention time: 7.06 min.
m/z	relative intensity
109.100	77
110.114	999
111.118	113
137.134	94
154.136	773
155.142	312
