Mass spectrum: Citric acid-[1,2,3,4,5,6-13C6]; GC-EI-QQ; MS2; POSITIVE; CID 15 V; 4 TMS-derivative; [M-118]+
Name: Citric acid-[1,2,3,4,5,6-13C6]
Class: In vitro synthetic compound
Formula: C6H8O7
Exact mass: 192.02701
SMILES: OC(=O)CC(O)(CC(O)=O)C(=O)O
InChI: InChI=1S/C6H8O7/c7-3(8)1-6(13,5(11)12)2-4(9)10/h13H,1-2H2,(H,7,8)(H,9,10)(H,11,12)/i1+1,2+1,3+1,4+1,5+1,6+1
Instrument: GCMS-TQ8040 (Shimadzu, Kyoto, Japan)
Instrument type: GC-EI-QQ
Ms type: MS2
Ion mode: POSITIVE
Collision energy: 15 V
Fragmentation mode: CID
Column name: DB-5MS+DG (Agilent Technologies, Santa Clara, CA, USA)
Derivative form: C18H40O7Si4
Derivative mass: 480.18511
Derivative type: 4 TMS
Precursor m/z: 368.16416
m/z	relative intensity	assigned
71	66	
73.1	312	
75.05	10	
116.05	53	
117.1	15	
118.1	16	
132.05	16	
147.1	43	
163	12	
187.15	10	
188.1	558	
233.1	54	
234.15	17	
249.1	69	
262.1	20	
277.15	22	
278.05	999	C6(13C5)H21O4Si2+
