Mass spectrum: S-4-(2-oxo-butyl)glutathione; LC-ESI-QQ; MS2; Positive; [M+H]+
Name: S-4-(2-oxo-butyl)glutathione
Class: Natural Product; glutathione
Formula: C14H23N3O7S
Exact mass: 377.12567
SMILES: CC(=O)CCSC[C@@H](C(=O)NCC(=O)O)NC(=O)CC[C@@H](C(=O)O)N
InChI: InChI=1S/C14H23N3O7S/c1-8(18)4-5-25-7-10(13(22)16-6-12(20)21)17-11(19)3-2-9(15)14(23)24/h9-10H,2-7,15H2,1H3,(H,16,22)(H,17,19)(H,20,21)(H,23,24)/t9-,10-/m0/s1
Instrument: Quattro Premier, Micromass. Alliance HT 2795,Waters
Instrument type: LC-ESI-QQ
Ms type: MS2
Ion mode: POSITIVE
Collision energy: 5 eV
Ionization: ESI
Column name: C18(ODS), Cosmosil 5C18-AR-II, 4.6 x 150 mm, 4.4 micrometer
Retention time: 16.15 min
Precursor m/z: 378.13294
Precursor type: [M+H]+
m/z	relative intensity
129.6	13
130	13
145.9	37
146.1	39
161.6	24
161.9	30
178.6	16
178.8	28
179.1	26
231.1	757
232.1	19
249.1	331
303.1	97
360	11
360.2	10
378.1	999
