Mass spectrum: 2-(4-Methoxyphenyl)ethylamine; LC-ESI-QQ; MS2; POSITIVE; [M+H-NH3]+; CID; 30 V
Name: 2-(4-Methoxyphenyl)ethylamine
Class: Non-natural product; Phenethylamine
Formula: C9H13NO
Exact mass: 151.09971
SMILES: COC1=CC=C(C=C1)CCN
InChI: InChI=1S/C9H13NO/c1-11-9-4-2-8(3-5-9)6-7-10/h2-5H,6-7,10H2,1H3
Instrument: Xevo TQS micro (Waters, MA, USA) coupled to ACQUITY UPLC H-Class (Waters, MA, USA)
Instrument type: LC-ESI-QQ
Ms type: MS2
Ion mode: POSITIVE
Collision energy: 30 V
Fragmentation mode: CID
Ionization: ESI
Column name: Acquity UPLC BEH AMIDE column (1.7 Âµm, 2.1 x 150 mm; Waters, MA, USA)
Precursor m/z: 135.08044
Precursor type: [M+H-NH3]+
m/z	relative intensity
28.9	2
38.1	2
38.9	22
39.2	8
39.8	2
40.6	7
40.9	16
41.3	5
49.8	2
50.1	2
50.8	78
51.0	128
51.7	2
51.8	3
52.1	8
52.7	4
53.1	9
54.9	6
55.1	7
62.6	4
63.0	12
63.2	7
63.8	19
64.1	23
64.3	6
65.0	145
65.8	5
66.0	4
66.2	3
67.2	2
75.0	2
75.6	2
75.9	2
77.0	811
77.2	353
77.8	22
78.0	62
79.0	264
89.0	12
89.8	8
91.0	999
91.8	34
92.0	92
92.6	2
92.8	10
93.1	8
94.0	24
100.8	2
101.2	2
101.9	14
102.2	14
103.0	178
104.0	8
104.3	2
104.9	26
105.2	14
106.8	2
107.9	15
108.2	7
118.0	5
118.7	9
119.1	28
119.9	11
120.2	6
120.4	3
134.1	3
134.7	3
135.1	3
