Mass spectrum: 1-hexadecanoyl-2-(5Z,8Z,11Z,14Z-eicosatetraenoyl)-sn-glycero-3-phosphocholine; MALDI-QITTOF; MS2; POSITIVE; [M+H]+; RID
Name: PC 16:0/24:4(5Z,8Z,11Z,14Z)
Name: 1-hexadecanoyl-2-(5Z,8Z,11Z,14Z-eicosatetraenoyl)-sn-glycero-3-phosphocholine
Class: Natural product; Phospholipid
Formula: C44H80NO8P
Exact mass: 781.5622
SMILES: CCCCCCCCCCCCCCCC(=O)OC[C@H](COP(=O)([O-])OCC[N+](C)(C)C)OC(=O)CCC/C=C\C/C=C\C/C=C\C/C=C\CCCCC
InChI: InChI=1S/C44H80NO8P/c1-6-8-10-12-14-16-18-20-21-22-23-25-27-29-31-33-35-37-44(47)53-42(41-52-54(48,49)51-39-38-45(3,4)5)40-50-43(46)36-34-32-30-28-26-24-19-17-15-13-11-9-7-2/h14,16,20-21,23,25,29,31,42H,6-13,15,17-19,22,24,26-28,30,32-41H2,1-5H3/b16-14-,21-20-,25-23-,31-29-/t42-/m1/s1
Instrument: MALDI-QITTOF noncommercial prototype model (Shimadzu Corporation, Kyoto, Japan)
Instrument type: MALDI-QITTOF
Ms type: MS2
Ion mode: POSITIVE
Fragmentation mode: RID
Ionization: MALDI
Ion type: [M+H]+
Precursor m/z: 782.5694
m/z	relative intensity
401.14	9
418.035	28
431.092	12
444.021	13
459.031	12
478.346	108
479.344	30
494.344	11
496.355	305
524.338	27
528.363	12
542.324	46
544.355	71
550.357	10
551.088	9
569.902	16
586.59	9
592.398	17
594.395	36
599.499	58
606.415	179
607.389	73
608.392	235
634.911	9
646.429	144
647.413	107
648.411	50
649.419	16
662.418	10
685.453	52
686.466	242
687.457	128
718.464	11
728.476	35
776.423	2
777.444	8
778.458	6
779.457	11
780.537	58
780.811	2
781.553	92
781.795	3
782.562	999
782.804	41
783.24	16
783.563	629
783.806	23
784.161	8
784.565	270
784.792	13
785.139	7
785.56	62
785.794	6
786.15	4
786.547	14
786.814	2
787.154	1
787.478	5
788.45	1
789.487	1
796.549	8
797.543	6
798.545	56
799.549	34
800.561	28
801.565	9
802.579	1
