Mass spectrum: Celaxanthin; LC-ESI-QTOF; MS2; POSITIVE; ESI; [M+H]+; COLLISION_ENERGY 20 eV.
Name: Celaxanthin
Class: Natural product; carotenoids; xanthophyll
Formula: C40H54O
Exact mass: 550.41747
SMILES: CC1=C(C(C[C@@H](C1)O)(C)C)/C=C/C(=C/C=C/C(=C/C=C/C=C(\C)/C=C/C=C(\C)/C=C/C=C(\C)/C=C/C=C(C)C)/C)/C
InChI: InChI=1S/C40H54O/c1-31(2)17-13-20-34(5)23-15-25-35(6)24-14-21-32(3)18-11-12-19-33(4)22-16-26-36(7)27-28-39-37(8)29-38(41)30-40(39,9)10/h11-28,38,41H,29-30H2,1-10H3/b12-11+,20-13+,21-14+,22-16+,25-15+,28-27+,32-18+,33-19+,34-23+,35-24+,36-26+/t38-/m1/s1
Instrument: Xevo G2-S QtOF, Waters (USA) coupled to ACQUITY UPLC, Waters (USA).
Instrument type: LC-ESI-QTOF
Ms type: MS2
Ion mode: POSITIVE
Collision energy: 20 eV
Ionization: ESI
Column name: BEH C18, I.D. 2.1 mm, length 100 mm, thickness 1.7 micrometer.
Ion type: [M+H]+
Precursor m/z: 551.42474
m/z	relative intensity
105.070	88
107.087	124
109.102	204
119.085	263
121.102	167
123.117	82
133.101	228
135.118	254
138.128	351
143.087	69
145.102	334
146.106	63
147.117	182
148.122	60
157.101	267
158.108	60
159.116	245
161.133	88
169.101	110
171.117	157
173.132	272
174.137	63
175.133	60
175.149	314
181.100	60
183.117	145
185.130	92
185.139	57
186.134	57
187.148	200
190.912	90
195.117	138
196.123	73
197.133	188
198.135	63
199.148	204
200.152	77
201.164	159
207.116	85
209.132	297
211.148	158
213.161	51
221.132	57
223.146	97
225.163	70
235.146	123
237.166	108
239.183	70
241.194	91
247.151	69
249.163	90
251.180	107
259.204	62
261.162	95
263.178	109
265.194	107
271.214	66
272.215	52
273.196	58
275.177	87
287.211	75
289.193	83
289.228	68
291.209	57
301.197	53
303.203	51
305.229	52
319.239	58
327.238	61
329.258	58
331.240	51
343.239	65
344.031	68
345.251	80
352.276	124
458.355	104
549.416	103
550.414	646
551.422	999
552.429	337
565.410	61
567.418	128
