Mass spectrum: Triphenylguanidine; ESI-QTOF; MS2; ESI; POSITIVE; [M+H]+; CE 50 V
Name: Triphenylguanidine
Class: Non-natural product
Formula: C19H17N3
Exact mass: 287.14224
SMILES: c1ccc(N=C(Nc2ccccc2)Nc2ccccc2)cc1
InChI: InChI=1S/C19H17N3/c1-4-10-16(11-5-1)20-19(21-17-12-6-2-7-13-17)22-18-14-8-3-9-15-18/h1-15H,(H2,20,21,22)
Instrument: X500R QTOF (AB Sciex LLC, USA)
Instrument type: ESI-QTOF
Ms type: MS2
Ion mode: POSITIVE
Collision energy: 50 V
Ionization: ESI
Precursor m/z: 288.14951
Precursor type: [M+H]+
m/z	relative intensity
39.0236	45
51.0234	107
65.038	593
77.038	644
78.0461	61
92.0486	662
93.0545	127
94.0646	605
117.0447	349
167.0736	160
168.0809	276
195.0903	999
