Mass spectrum: Phenylsulfate; ESI-QTOF; MS2; NEGATIVE; [M-H]-; CID; 50 V
Name: Phenylsulfate
Class: Aryl sulfate
Formula: C6H6O4S
Exact mass: 173.99868
SMILES: C1=CC=C(C=C1)OS(=O)(=O)O
InChI: InChI=1S/C6H6O4S/c7-11(8,9)10-6-4-2-1-3-5-6/h1-5H,(H,7,8,9)
Instrument: X500R QTOF (AB Sciex LLC, USA)
Instrument type: ESI-QTOF
Ms type: MS2
Ion mode: NEGATIVE
Collision energy: 50 V
Fragmentation mode: CID
Ionization: ESI
Precursor m/z: 172.99140
Precursor type: [M-H]-
m/z	relative intensity	assigned
25.0081	8	
39.0235	45	
41.0028	13	
65.0391	107	
75.0235	13	[C6H6-3H]-
79.9569	132	[H2O3S-2H]-
93.0336	999	[C6H6O-H]-
