Mass spectrum: Diphenylguanidine; ESI-QTOF; MS2; ESI; NEGATIVE; [M-H]-; CE 60 V
Name: Diphenylguanidine
Class: Non-natural product
Formula: C13H13N3
Exact mass: 211.11093
SMILES: C1=CC=C(C=C1)NC(=NC2=CC=CC=C2)N
InChI: InChI=1S/C13H13N3/c14-13(15-11-7-3-1-4-8-11)16-12-9-5-2-6-10-12/h1-10H,(H3,14,15,16)
Instrument: X500R QTOF (AB Sciex LLC, USA)
Instrument type: ESI-QTOF
Ms type: MS2
Ion mode: NEGATIVE
Collision energy: 60 V
Ionization: ESI
Precursor m/z: 210.10366
Precursor type: [M-H]-
m/z	relative intensity
40.006	99
41.0138	999
92.0497	497
117.0449	492
