Mass spectrum: (3-(4-bromophenyl)propyl)(2-methyloctyl)sulfane; GC-EI-TOF; MS; POSITIVE; EI; 70 V
Name: (3-(4-bromophenyl)propyl)(2-methyloctyl)sulfane
Class: Non-natural compound
Formula: C18H29BrS
Exact mass: 356.11733
SMILES: CCCCCCC(C)CSCCCc1ccc(Br)cc1
InChI: InChI=1S/C18H29BrS/c1-3-4-5-6-8-16(2)15-20-14-7-9-17-10-12-18(19)13-11-17/h10-13,16H,3-9,14-15H2,1-2H3
Instrument: JMS-T100GCV (JEOL, Akishima, Japan) coupled to Agilent 7890A gas chromatograph.
Instrument type: GC-EI-TOF
Ms type: MS
Ion mode: POSITIVE
Ionization: EI
Column name: HP-5 30x0.32 0.25um 19091J-413, length 30.0 m, I.D. 0.32 mm, thickness 0.25 micrometer.
Retention time: 11.67 min.
m/z	relative intensity
27.024	33
28.006	17
28.031	5
29.04	92
31.99	10
39.024	35
40.031	6
41.04	231
41.131	1
42.047	35
43.055	267
44.059	9
44.98	20
45.988	11
46.996	44
50.017	4
51.024	9
53.04	12
54.047	6
55.055	156
56.063	64
57.071	128
58.075	5
58.996	8
60.004	8
61.012	280
62.015	11
63.024	14
64.032	6
65.04	11
67.056	15
68.063	5
69.071	123
69.14	1
70.078	34
71.087	77
72.09	5
73.012	7
74.02	10
75.027	19
76.032	6
77.04	23
78.047	12
79.055	5
81.071	6
82.079	6
83.087	43
84.094	23
85.102	29
87.027	5
88.034	2
89.041	70
90.048	91
90.116	1
91.055	83
92.06	7
97.102	18
98.11	8
101.043	9
102.048	12
103.056	22
104.063	25
105.071	11
111.118	3
115.056	85
115.14	1
116.063	49
117.071	425
118.077	74
119.082	6
121.012	7
122.02	14
123.026	4
126.142	7
129.072	3
130.079	5
131.087	11
134.021	3
135.028	18
136.033	3
149.045	4
150.052	35
151.056	5
152.052	2
158.113	5
159.122	110
160.125	12
161.119	5
168.967	146
169.971	14
170.965	142
171.969	14
173.137	3
181.975	13
182.982	35
183.975	14
184.98	34
185.983	3
187.153	43
188.156	6
189.148	2
194.982	5
195.99	999
196.68	3
196.993	100
197.679	2
197.988	982
198.687	3
198.991	96
199.691	2
199.996	5
200.222	1
208.998	5
210.995	5
229.977	36
230.979	4
231.975	38
232.978	4
242.984	3
244.983	2
355.107	2
356.117	171
357.12	36
358.116	176
359.119	37
360.115	10
361.115	2
