Mass spectrum: (4S)-4-Methylnonanoic acid; GC-FI-TOF; MS; positive; FI; 10 kV
Name: (4S)-4-Methylnonanoic acid
Class: Non-natural product
Formula: C10H20O2
Exact mass: 172.14638
SMILES: CCCCC[C@H](C)CCC(=O)O
InChI: InChI=1S/C10H20O2/c1-3-4-5-6-9(2)7-8-10(11)12/h9H,3-8H2,1-2H3,(H,11,12)/t9-/m0/s1
Instrument: JMS-T100GCV (JEOL, Akishima, Japan) coupled to Agilent 7890A (Agilent, Wilmington, USA) gas chromatograph.
Instrument type: GC-FI-TOF
Ms type: MS
Ion mode: POSITIVE
Ionization: FI
Column name: HP-5 19091 J-413 USD364547H (Agilent, Wilmington, USA), length 30.0 m, I.D. 0.32 mm, thickness 0.25 micrometer.
Retention time: 7.58 min.
m/z	relative intensity
29.04	24
101.061	27
113.132	32
115.075	73
116.083	6
136.124	11
143.105	21
155.142	8
171.14	10
172.146	999
172.692	6
173.151	171
173.25	7
174.156	16
