Mass spectrum: Genistin; ESI-QTOF; MS2; POSITIVE; [M+H]+; CID; 60 V
Name: Genistin
Class: 7-hydroxyisoflavone
Formula: C21H20O10
Exact mass: 432.10565
SMILES: C1=CC(=CC=C1C2=COC3=CC(=CC(=C3C2=O)O)O[C@H]4[C@@H]([C@H]([C@@H]([C@H](O4)CO)O)O)O)O
InChI: InChI=1S/C21H20O10/c22-7-15-18(26)19(27)20(28)21(31-15)30-11-5-13(24)16-14(6-11)29-8-12(17(16)25)9-1-3-10(23)4-2-9/h1-6,8,15,18-24,26-28H,7H2/t15-,18-,19+,20-,21-/m1/s1
Instrument: X500R QTOF (AB Sciex LLC, USA)
Instrument type: ESI-QTOF
Ms type: MS2
Ion mode: POSITIVE
Collision energy: 60 V
Fragmentation mode: CID
Ionization: ESI
Precursor m/z: 433.11293
Precursor type: [M+H]+
m/z	relative intensity
68.997	33
91.0542	138
119.0491	47
121.0284	32
131.0492	27
141.0699	58
145.0285	70
149.0234	128
153.0182	419
159.0441	58
165.0184	49
169.0649	89
197.0599	112
215.0705	355
243.0655	238
253.0501	135
271.0603	999
