Mass spectrum: alpha-Ketoglutaric acid-[1,2,3,4-13C4]; GC-EI-Q; MS; positive; MEOX,2TMS-derivative
Name: alpha-ketoglutaric acid-[1,2,3,4-13C4]
Class: In vitro synthetic compound
Formula: C5H6O5
Exact mass: 146.02152
SMILES: C(CC(=O)O)C(=O)C(=O)O
InChI: InChI=1S/C5H6O5/c6-3(5(9)10)1-2-4(7)8/h1-2H2,(H,7,8)(H,9,10)/i1+1,2+1,3+1,5+1
Instrument: GCMS-QP2010 Ultra (Shimadzu, Kyoto, Japan)
Instrument type: GC-EI-Q
Ms type: MS
Ion mode: POSITIVE
Column name: DB-5MS+DG (Agilent Technologies, Santa Clara, CA, USA)
Derivative form: C12H25NO5Si2
Derivative mass: 319.12712
Derivative type: MEOX, 2TMS
m/z	relative intensity	assigned
54.9	12	
55.95	13	
56.95	296	
57.95	81	
58.95	137	
59.95	22	
60.95	50	
71.05	18	
72.15	74	
73.05	999	
74.05	200	
75	544	
76	36	
77	19	
85.05	76	
87.05	19	
89.05	159	
90.05	14	
91	13	
115.05	31	
116.05	58	C(13C4)H6NO2+
117.05	16	
129.1	52	
130.1	11	
131.05	34	
133.05	45	
146.15	12	
147.1	367	
148.1	53	
149.1	33	
157.05	21	
159.05	92	C3(13C3)H10NO2Si+
160.05	47	
161.05	10	
173.05	53	
174.05	10	
175.05	15	
190.05	49	
202	174	
203.05	20	
204.05	10	
205.05	35	
206.05	26	
233.05	46	
247.1	11	
248.1	14	
292.1	77	
293.1	13	
308.1	68	
309.1	12	
