Mass spectrum: L-Ornithine; ESI-QTOF; MS2; POSITIVE; [M+H]+; CID; 20 V
Name: L-Ornithine
Class: Non-proteinogenic L-alpha-amino acid
Formula: C5H12N2O2
Exact mass: 132.08987
SMILES: C(C[C@@H](C(=O)O)N)CN
InChI: InChI=1S/C5H12N2O2/c6-3-1-2-4(7)5(8)9/h4H,1-3,6-7H2,(H,8,9)/t4-/m0/s1
Instrument: X500R QTOF (AB Sciex LLC, USA)
Instrument type: ESI-QTOF
Ms type: MS2
Ion mode: POSITIVE
Collision energy: 20 V
Fragmentation mode: CID
Ionization: ESI
Precursor m/z: 133.09715
Precursor type: [M+H]+
m/z	relative intensity	assigned
70.0638	999	[C4H11N-3H]+
116.0701	219	[C5H11NO2-H]+
