Mass spectrum: (3S,5S)-Nona-1,8-diene-3,5-diol; GC-FI-TOF; MS; positive; FI; 10 kV
Name: (3S,5S)-Nona-1,8-diene-3,5-diol
Class: Non-natural compound
Formula: C9H16O2
Exact mass: 156.11503
SMILES: C=CCC[C@H](O)C[C@H](O)C=C
InChI: InChI=1S/C9H16O2/c1-3-5-6-9(11)7-8(10)4-2/h3-4,8-11H,1-2,5-7H2/t8-,9+/m1/s1
Instrument: JMS-T100GCV (JEOL, Akishima, Japan) coupled to Agilent 7890A (Agilent, Wilmington, USA) gas chromatograph.
Instrument type: GC-FI-TOF
Ms type: MS
Ion mode: POSITIVE
Ionization: FI
Column name: ZB-1MS 7HM-G011-11H sn:313446 (Agilent, Wilmington, USA), length 30.0 m, I.D. 0.32 mm, thickness 0.25 micrometer.
Retention time: 7.08 min.
m/z	relative intensity
57.034	41
94.075	17
101.06	25
120.091	22
138.102	332
139.107	39
156.115	999
157.12	229
158.123	21
