Mass spectrum: Poricoic acid A; ESI-QTOF; MS2; POSITIVE; [M+H]+; CID; 40 V
Name: Poricoic acid A
Class: Non-natural product; Tricyclic triterpenoid
Formula: C31H46O5
Exact mass: 498.33453
SMILES: CC(C)C(=C)CC[C@H]([C@H]1[C@@H](C[C@@]2([C@@]1(CC=C3C2=CC[C@H]([C@]3(C)CCC(=O)O)C(=C)C)C)C)O)C(=O)O
InChI: InChI=1S/C31H46O5/c1-18(2)20(5)9-10-21(28(35)36)27-25(32)17-31(8)24-12-11-22(19(3)4)29(6,15-14-26(33)34)23(24)13-16-30(27,31)7/h12-13,18,21-22,25,27,32H,3,5,9-11,14-17H2,1-2,4,6-8H3,(H,33,34)(H,35,36)/t21-,22+,25-,27+,29+,30-,31+/m1/s1
Instrument: X500R QTOF (AB Sciex LLC, USA)
Instrument type: ESI-QTOF
Ms type: MS2
Ion mode: POSITIVE
Collision energy: 40 V
Fragmentation mode: CID
Ionization: ESI
Precursor m/z: 499.34180
Precursor type: [M+H]+
m/z	relative intensity
55.0556	76
69.0714	76
81.0716	76
83.0872	52
93.0717	62
95.0873	117
97.1029	102
105.0716	77
107.0873	165
109.1029	124
119.0873	132
121.1029	127
131.0873	80
133.103	84
143.0874	82
145.103	162
147.1186	68
155.0874	75
157.1031	240
159.0823	52
159.1187	183
169.1031	317
171.1187	194
173.098	50
173.1344	87
177.0929	92
181.1031	58
183.1188	350
185.0981	59
185.1344	131
187.1137	83
189.1294	68
195.1188	133
197.1345	236
199.1139	129
199.1502	92
201.1294	58
207.1189	86
209.1345	351
211.1138	109
211.1501	588
213.1295	75
213.1659	53
217.1245	114
219.1401	167
221.1346	152
223.114	62
223.1502	751
225.1296	196
225.1657	261
227.1451	95
229.1245	99
233.1346	53
235.1504	92
237.1297	64
237.1659	182
239.1452	90
241.1245	69
241.1609	54
243.1401	89
245.1558	110
247.1503	202
249.1659	164
251.1453	104
251.1816	81
252.1895	68
253.1609	70
253.1972	56
255.1402	79
255.1764	57
257.1558	73
261.166	62
263.1454	50
263.1816	104
265.1609	592
265.1968	169
267.1405	49
267.1765	283
269.1558	115
271.1714	80
279.1767	78
282.1636	63
283.1714	405
285.187	86
289.1972	184
297.187	74
305.1922	61
307.2076	636
309.2234	62
310.1948	65
325.2181	999
326.2257	53
393.2808	53
417.3167	52
421.2754	78
435.3273	50
445.3119	80
463.3224	56
499.3838	94
