Mass spectrum: Fumaric acid-[1,2,3,4-13C4]; GC-EI-Q; MS; POSITIVE; 2 TBDMS-derivative
Name: Fumaric acid-[1,2,3,4-13C4]
Class: In vitro synthetic compound
Formula: C4H4O4
Exact mass: 116.01096
SMILES: C(=C/C(=O)O)\C(=O)O
InChI: InChI=1S/C4H4O4/c5-3(6)1-2-4(7)8/h1-2H,(H,5,6)(H,7,8)/b2-1+/i1+1,2+1,3+1,4+1
Instrument: GCMS-QP2010 Ultra (Shimadzu, Kyoto, Japan)
Instrument type: GC-EI-Q
Ms type: MS
Ion mode: POSITIVE
Column name: DB-5MS+DG (Agilent Technologies, Santa Clara, CA, USA)
Derivative form: C16H32O4Si2
Derivative mass: 344.18391
Derivative type: 2 TBDMS
m/z	relative intensity
55.2	38
56.25	60
57.15	168
58.05	87
59	138
59.9	27
60.95	33
66.9	12
69.05	21
70	15
71.15	25
72.15	19
73.1	999
74.05	153
75	433
76.1	48
77	36
84	9
85.15	75
86.1	124
87.05	46
88.05	15
89.05	27
90.9	11
98.9	25
100.1	52
101.15	24
102.15	21
103	26
104.15	16
115.15	52
115.95	25
116.95	57
118.05	20
118.95	39
120	13
129.95	22
131.05	82
132.05	51
133	161
134.05	25
135	31
142	14
144.05	14
144.95	38
146.15	28
147.1	353
148.1	46
149.05	42
150.1	19
151.1	11
156.1	10
157.05	15
158.05	56
159	38
160.1	52
161.25	27
162.4	24
171.2	14
172.2	22
173.1	21
174.1	24
175.15	24
176.1	102
177.2	22
178.1	28
189.1	48
190.05	14
191.1	31
205.1	19
207.05	59
211	11
213	20
214.3	17
217.3	10
220.2	13
221.2	56
222.25	15
234.2	10
249.15	119
250.15	13
251	38
262	17
263	36
267.1	18
268.6	16
288.15	19
289.05	26
290.25	63
291.15	683
292.2	186
293.2	59
