Mass spectrum: Acarbose; ESI-QQ; MS2; NEGATIVE; [M-H]-; CID; CE: 25 eV
Name: Acarbose
Class: Non-natural product.
Formula: C25H43NO18
Exact mass: 645.248015
SMILES: C[C@@H]1[C@H]([C@@H]([C@H]([C@H](O1)O[C@@H]2[C@H](O[C@@H]([C@@H]([C@H]2O)O)O[C@@H]3[C@H](O[C@H]([C@@H]([C@H]3O)O)O)CO)CO)O)O)N[C@H]4C=C([C@H]([C@@H]([C@H]4O)O)O)CO
InChI: InChI=1S/C25H43NO18/c1-6-11(26-8-2-7(3-27)12(30)15(33)13(8)31)14(32)19(37)24(40-6)43-22-10(5-29)42-25(20(38)17(22)35)44-21-9(4-28)41-23(39)18(36)16(21)34/h2,6,8-39H,3-5H2,1H3/t6-,8+,9-,10-,11-,12-,13+,14+,15+,16-,17-,18-,19-,20-,21-,22-,23-,24-,25-/m1/s1
Instrument: Triple Quad 4500 (AB Sciex Pte. Ltd., USA)
Instrument type: LC-ESI-QQ
Ms type: MS2
Ion mode: NEGATIVE
Collision energy: 25 eV
Fragmentation mode: CID
Ionization: ESI
Precursor m/z: 644.24074
Precursor type: [M-H]-
m/z	relative intensity
70.9111	2
72.9493	11
80.7611	1
81.1000	1
82.7000	1
83.1800	3
86.8705	8
96.9379	19
100.0000	1
100.8823	84
112.6833	1
113.0250	1
115.0056	5
115.3000	1
119.7000	1
122.9364	2
124.5611	2
125.0000	1
132.5000	3
132.6739	3
134.1000	1
137.8750	2
138.1000	2
138.7000	2
139.0000	1
139.2437	1
140.9227	9
142.8674	35
150.0600	7
151.7875	1
152.0000	1
154.0400	2
156.3000	1
159.5625	1
160.8904	639
161.7417	1
162.1318	2
164.1571	1
165.1000	1
165.6000	1
167.9571	3
170.8385	9
173.7744	5
174.1000	1
174.3000	1
175.6500	1
175.9125	1
177.7000	6
178.0000	3
178.2833	1
179.5000	2
180.1235	5
181.7944	9
182.7000	1
185.9000	1
186.4000	1
191.7000	1
192.0000	1
192.2000	3
193.8158	2
194.1000	1
194.9697	13
195.9385	1
197.9431	10
198.4000	1
200.8000	2
201.1500	3
203.6000	1
204.0400	4
205.7000	1
206.1154	4
209.7000	1
210.1000	1
211.7000	1
211.9000	1
212.5000	1
213.0000	1
215.9424	179
221.0000	1
221.2182	2
222.1043	17
223.9259	8
227.6778	1
228.0000	1
229.6000	1
229.8000	1
230.1227	2
230.9924	14
235.5000	1
236.0692	1
239.9048	12
242.0069	183
245.9657	132
247.6840	2
248.1000	2
257.9758	167
260.0029	480
265.7276	9
266.1000	9
266.3000	2
271.9857	3
272.3000	1
275.9539	358
283.9571	10
284.3000	2
289.9161	12
290.4000	1
295.7000	1
301.9525	179
320.0246	922
325.8300	2
344.0368	15
362.0695	999
392.0000	1
401.8000	4
402.1818	2
404.0839	356
422.1017	300
462.2000	1
469.8000	3
470.2000	2
482.0879	145
487.7000	1
488.2000	1
506.0728	17
524.1228	712
548.1000	1
548.4000	1
566.1458	390
584.2000	16
643.6000	1
644.1896	22
