Mass spectrum: Okaramine C; ESI-QQ; MS2; POSITIVE; [M+H]+ CID; 15 eV
Name: Okaramine C
Class: Natural product; Indole alkaloid
Formula: C32H36N4O3
Exact mass: 524.27874
SMILES: CC(C)(C=C)C1=C(C2=CC=CC=C2N1)CC3C(=O)N4[C@H](C[C@@]5([C@H]4N(C6=CC=CC=C65)C(C)(C)C=C)O)C(=O)N3
InChI: InChI=1S/C32H36N4O3/c1-7-30(3,4)26-20(19-13-9-11-15-22(19)33-26)17-23-28(38)35-25(27(37)34-23)18-32(39)21-14-10-12-16-24(21)36(29(32)35)31(5,6)8-2/h7-16,23,25,29,33,39H,1-2,17-18H2,3-6H3,(H,34,37)/t23?,25-,29-,32-/m1/s1
Instrument: ACQUITY UPLC H-Class/Xevo TQD (Waters, Milford, USA)
Instrument type: ESI-QQ
Ms type: MS2
Ion mode: POSITIVE
Collision energy: 15 eV
Fragmentation mode: CID
Ionization: ESI
Precursor m/z: 525.2860
Precursor type: [M+H]+
m/z	relative intensity
198.5	700
202.8	15
266.6	33
310.9	34
326.9	39
328.7	66
383.5	170
389.8	204
401.6	233
413.3	53
424.0	119
439.7	450
447.0	74
452.0	90
457.2	101
457.8	758
469.6	80
507.7	136
525.0	46
525.8	999
