Mass spectrum: Ditolylguanidine; ESI-QTOF; MS2; ESI; POSITIVE; CE 60 V
Name: Ditolylguanidine
Class: Non-natural product
Formula: C15H17N3
Exact mass: 239.14224
SMILES: Cc1ccccc1NC(=N)Nc1ccccc1C
InChI: InChI=1S/C15H17N3/c1-11-7-3-5-9-13(11)17-15(16)18-14-10-6-4-8-12(14)2/h3-10H,1-2H3,(H3,16,17,18)
Instrument: X500R QTOF (AB Sciex LLC, USA)
Instrument type: ESI-QTOF
Ms type: MS2
Ion mode: POSITIVE
Collision energy: 60 V
Ionization: ESI
Precursor m/z: 240.14951
Precursor type: [M+H]+
m/z	relative intensity
30.0343	115
39.0232	228
41.0394	62
51.0239	61
63.0237	130
65.0383	770
66.0467	122
77.0384	797
78.0354	121
79.0541	742
89.0383	901
91.0536	880
93.0569	856
104.0508	74
106.0646	975
108.0816	186
116.0492	999
117.0577	202
118.054	267
132.0691	189
