Mass spectrum: 2-(4-Nitrophenyl)ethylamine; LC-ESI-QQ; MS2; POSITIVE; [M+H-NH3]+; CID; 30 V
Name: 2-(4-Nitrophenyl)ethylamine
Class: Non-natural product; 4-Nitrophenethylamine
Formula: C8H10N2O2
Exact mass: 166.07422
SMILES: C1=CC(=CC=C1CCN)[N+](=O)[O-]
InChI: InChI=1S/C8H10N2O2/c9-6-5-7-1-3-8(4-2-7)10(11)12/h1-4H,5-6,9H2
Instrument: Xevo TQS micro (Waters, MA, USA) coupled to ACQUITY UPLC H-Class (Waters, MA, USA)
Instrument type: LC-ESI-QQ
Ms type: MS2
Ion mode: POSITIVE
Collision energy: 30 V
Fragmentation mode: CID
Ionization: ESI
Column name: Acquity UPLC BEH AMIDE column (1.7 Âµm, 2.1 x 150 mm; Waters, MA, USA)
Precursor m/z: 150.05495
Precursor type: [M+H-NH3]+
m/z	relative intensity
29.9	63
38.5	8
38.8	25
39.1	17
40.6	6
40.9	15
41.2	5
41.4	5
42.8	6
49.7	10
50.1	9
50.6	46
50.9	80
51.2	59
51.6	11
52.0	45
52.2	20
52.9	6
53.2	5
62.6	10
62.8	13
63.0	8
63.3	11
64.2	8
64.3	7
64.7	56
64.9	57
65.2	129
75.0	5
75.5	8
75.8	12
75.9	6
76.2	16
76.7	476
77.1	999
77.9	818
78.1	711
88.6	9
88.9	8
89.1	5
89.3	9
90.0	5
90.8	658
91.0	308
91.2	436
91.9	12
92.3	8
101.7	16
101.8	25
102.1	22
102.9	594
103.1	611
103.9	85
104.2	53
