Mass spectrum: Acetyl-L-carnitine; ESI-QTOF; MS2; POSITIVE; [M+H]+; CID; 30 V
Name: Acetyl-L-carnitine
Class: Saturated fatty acyl-L-carnitine
Formula: C9H17NO4
Exact mass: 203.11576
SMILES: CC(=O)O[C@H](CC(=O)[O-])C[N+](C)(C)C
InChI: InChI=1S/C9H17NO4/c1-7(11)14-8(5-9(12)13)6-10(2,3)4/h8H,5-6H2,1-4H3/t8-/m1/s1
Instrument: X500R QTOF (AB Sciex LLC, USA)
Instrument type: ESI-QTOF
Ms type: MS2
Ion mode: POSITIVE
Collision energy: 30 V
Fragmentation mode: CID
Ionization: ESI
Precursor m/z: 204.12303
Precursor type: [M+H]+
m/z	relative intensity	assigned
60.0806	54	[C3H10N]+
85.0265	999	[C4H8O2-3H]+
