Mass spectrum: Genistein; ESI-QTOF; MS2; NEGATIVE; [M-H]-; CID; 40 V
Name: Genistein
Class: 7-hydroxyisoflavone
Formula: C15H10O5
Exact mass: 270.05282
SMILES: C1=CC(=CC=C1C2=COC3=CC(=CC(=C3C2=O)O)O)O
InChI: InChI=1S/C15H10O5/c16-9-3-1-8(2-4-9)11-7-20-13-6-10(17)5-12(18)14(13)15(11)19/h1-7,16-18H
Instrument: X500R QTOF (AB Sciex LLC, USA)
Instrument type: ESI-QTOF
Ms type: MS2
Ion mode: NEGATIVE
Collision energy: 40 V
Fragmentation mode: CID
Ionization: ESI
Precursor m/z: 269.04555
Precursor type: [M-H]-
m/z	relative intensity
41.0031	110
63.0238	416
65.0031	237
91.0188	182
105.0345	107
107.0138	284
117.0345	108
132.0217	173
133.0294	999
135.0451	312
155.0502	136
157.0295	162
159.0451	431
180.0581	250
181.0659	185
183.0452	248
201.0558	160
224.048	214
269.0457	858
