Mass spectrum: (1R)-2,3-Dimethylcyclopent-2-en-1-yl acetate; GC-EI-TOF; MS; positive; EI; 70 V
Name: (1R)-2,3-Dimethylcyclopent-2-en-1-yl acetate
Class: Non-natural product
Formula: C9H14O2
Exact mass: 154.09938
SMILES: CC=1CC[C@@H](OC(=O)C)C=1C
InChI: InChI=1S/C9H14O2/c1-6-4-5-9(7(6)2)11-8(3)10/h9H,4-5H2,1-3H3/t9-/m1/s1
Instrument: JMS-T100GCV (JEOL, Akishima, Japan) coupled to Agilent 7890A (Agilent, Wilmington, USA) gas chromatograph.
Instrument type: GC-EI-TOF
Ms type: MS
Ion mode: POSITIVE
Ionization: EI
Column name: HP-5 19091 J-413 USD364547H (Agilent, Wilmington, USA), length 30 m, I.D. 0.32 mm, thickness 0.25 micrometer.
Retention time: 6.1 min.
m/z	relative intensity
26.016	4
27.024	74
28.006	48
28.031	12
29.003	8
29.04	39
29.083	1
31.019	3
31.990	16
37.008	1
38.016	6
39.024	115
39.114	1
39.962	1
40.031	19
41.004	1
41.040	138
42.011	8
42.045	8
43.019	322
43.055	16
43.342	1
43.554	1
43.596	1
43.990	1
44.023	7
44.057	1
44.998	5
45.030	2
45.527	1
50.016	12
51.024	36
51.083	1
52.032	20
53.040	76
54.047	15
55.019	11
55.055	120
56.025	2
56.060	6
57.034	4
58.042	1
60.022	3
62.016	3
63.024	10
64.031	2
65.040	36
66.047	18
67.055	160
68.027	1
68.060	11
69.034	4
69.071	29
70.042	1
70.077	3
71.050	1
74.017	1
77.039	135
77.322	1
78.046	26
79.055	768
79.374	2
79.495	2
79.799	2
80.06	57
80.476	1
80.781	1
80.858	1
81.035	2
81.069	6
81.52	1
82.042	1
82.079	2
83.050	3
83.086	11
89.04	2
91.055	66
91.191	0
92.060	7
93.071	123
94.078	999
94.426	2
94.558	3
94.889	2
95.050	11
95.086	510
95.576	2
95.937	1
96.056	3
96.090	32
96.294	1
96.702	1
97.065	186
97.415	1
97.496	1
97.556	1
97.863	1
98.069	11
109.066	3
110.073	6
111.081	49
112.087	7
117.070	1
154.099	8
155.104	1
