Mass spectrum: Pyrrhoxanthinol; LC-ESI-QTOF; MS2; POSITIVE; ESI; [M+H]+; COLLISION_ENERGY 20 V
Name: Pyrrhoxanthinol
Class: Natural product; carotenoids, Xanthophyll
Formula: C37H46O5
Exact mass: 570.33453
SMILES: CC1=C(C(C[C@@H](C1)O)(C)C)C#C/C(=C/C=C/C=C/C=C(\C)/C=C\2/C=C(C(=O)O2)/C=C/[C@]34[C@](O3)(C[C@H](CC4(C)C)O)C)/C
InChI: InChI=1S/C37H46O5/c1-25(15-16-32-27(3)20-29(38)22-34(32,4)5)13-11-9-10-12-14-26(2)19-31-21-28(33(40)41-31)17-18-37-35(6,7)23-30(39)24-36(37,8)42-37/h9-14,17-19,21,29-30,38-39H,20,22-24H2,1-8H3/b11-9+,12-10+,18-17+,25-13+,26-14+,31-19-/t29-,30+,36-,37+/m1/s1
Instrument: Xevo G2-S QtOF, Waters (USA) coupled to ACQUITY UPLC, Waters (USA).
Instrument type: LC-ESI-QTOF
Ms type: MS2
Ion mode: POSITIVE
Collision energy: 20 V
Ionization: ESI
Column name: BEH C18, I.D. 2.1 mm, length 100 mm, thickness 1.7 micrometer.
Ion type: [M+H]+
Precursor m/z: 571.34180
m/z	relative intensity
109.088	15
121.088	53
123.029	32
123.103	16
125.045	16
133.088	24
135.066	12
135.102	14
137.083	16
145.090	16
147.104	15
149.043	17
149.083	11
157.086	38
159.103	17
161.045	21
161.082	21
161.117	11
163.097	38
167.092	19
167.099	11
169.084	22
171.103	30
173.120	24
175.059	14
175.095	14
181.111	73
185.082	12
185.120	16
186.126	12
187.061	13
187.101	15
189.110	12
193.088	12
195.096	12
199.098	18
199.133	24
205.104	11
207.105	17
211.135	62
212.137	14
217.148	12
221.105	26
222.124	11
223.134	28
225.113	11
225.151	28
229.137	10
229.147	14
231.160	15
233.105	32
235.134	24
237.112	25
237.149	30
241.147	24
243.098	12
245.142	13
246.133	13
247.132	20
249.147	19
249.156	14
251.113	28
251.130	15
255.164	11
259.134	19
261.115	14
261.143	13
263.120	16
271.139	13
275.163	13
277.148	12
277.181	14
281.143	15
291.200	19
293.189	14
303.141	11
305.137	11
311.166	19
313.178	26
315.197	18
317.186	16
319.192	48
320.205	31
329.169	17
333.212	14
337.205	57
338.212	10
341.164	19
355.181	20
369.190	12
369.213	13
385.205	10
389.197	10
391.213	12
397.220	12
415.235	10
416.213	12
417.197	11
441.230	13
451.255	11
461.234	11
479.259	11
487.289	13
497.259	17
507.326	32
509.323	14
509.344	26
517.307	29
518.305	10
525.328	30
527.344	21
528.358	12
534.305	11
535.319	71
536.314	29
536.337	24
537.324	12
552.320	18
553.329	549
554.321	109
554.340	113
555.325	17
570.331	68
571.342	999
572.344	383
572.411	13
573.337	49
573.357	33
574.375	13
