Mass spectrum: Eburicoic acid; ESI-QTOF; MS2; POSITIVE; [M+H]+; CID; 30 V
Name: Eburicoic acid
Class: Non-natural product; Triterpenoid
Formula: C31H50O3
Exact mass: 470.37600
SMILES: CC(C)C(=C)CC[C@H]([C@H]1CC[C@@]2([C@@]1(CCC3=C2CC[C@@H]4[C@@]3(CC[C@@H](C4(C)C)O)C)C)C)C(=O)O
InChI: InChI=1S/C31H50O3/c1-19(2)20(3)9-10-21(27(33)34)22-13-17-31(8)24-11-12-25-28(4,5)26(32)15-16-29(25,6)23(24)14-18-30(22,31)7/h19,21-22,25-26,32H,3,9-18H2,1-2,4-8H3,(H,33,34)/t21-,22-,25+,26+,29-,30-,31+/m1/s1
Instrument: X500R QTOF (AB Sciex LLC, USA)
Instrument type: ESI-QTOF
Ms type: MS2
Ion mode: POSITIVE
Collision energy: 30 V
Fragmentation mode: CID
Ionization: ESI
Precursor m/z: 471.383272
Precursor type: [M+H]+
m/z	relative intensity
55.0556	7
67.0557	7
69.0714	13
81.0715	19
83.0871	21
93.0716	12
95.0872	49
97.1029	30
105.0716	9
107.0873	26
109.1029	85
111.1186	11
119.0873	49
121.1029	80
123.1186	53
131.0873	11
133.103	38
135.1186	49
137.1343	19
145.1031	30
147.1186	33
149.1344	33
151.15	15
157.1031	14
159.1187	59
161.1343	47
163.1501	33
171.1188	29
173.1344	147
175.1501	57
177.1658	40
179.145	15
185.1345	34
187.1501	100
189.1658	36
191.1814	23
199.1502	49
201.1659	42
203.1815	25
207.1764	25
213.1659	47
215.1815	97
225.166	16
227.1816	96
229.1971	654
233.1922	28
239.1816	19
241.1973	144
243.2128	21
245.1923	37
247.2078	455
255.213	66
259.2079	107
273.2235	45
295.2442	305
297.2598	87
309.2598	20
313.2546	360
315.2704	29
327.2704	23
331.2653	117
345.2807	52
407.3691	160
425.3796	130
435.364	158
453.3743	999
471.3842	194
