Mass spectrum: Iprodione; GC-EI-Q; MS; Positive; M+*
Name: Iprodione
Class: Non-Natural Product; Pesticides
Formula: C13H13Cl2N3O3
Exact mass: 329.03340
SMILES: CC(C)NC(=O)N(C2)C(=O)N(C(=O)2)c(c1)cc(Cl)cc(Cl)1
InChI: InChI=1S/C13H13Cl2N3O3/c1-7(2)16-12(20)17-6-11(19)18(13(17)21)10-4-8(14)3-9(15)5-10/h3-5,7H,6H2,1-2H3,(H,16,20)
Instrument: GCMS-QP2010 Plus, Shimadzu
Instrument type: GC-EI-Q
Ms type: MS
Ion mode: POSITIVE
Ionization: EI
Column name: Ptx-5MS(RESTEK), 0.32 mm I.D. x 30 m, df=0.25 microm
Retention time: 16.9 min
Ion type: [M]+*
Precursor m/z: 329.0
m/z	relative intensity
41	364
42	486
43	810
44	190
46	11
50	8
51	15
52	25
53	10
54	40
56	451
57	77
58	433
59	29
60	5
61	9
63	17
64	18
69	33
70	999
71	67
73	10
74	40
76	26
78	6
82	6
84	73
85	169
86	27
87	7
88	21
89	33
91	41
95	7
96	20
97	11
98	5
99	59
100	17
102	5
103	6
104	18
106	14
108	30
109	30
110	5
111	32
112	7
113	9
114	5
116	11
119	4
123	7
124	124
126	68
127	15
129	8
133	7
135	9
136	9
138	17
140	6
143	5
144	7
145	45
146	9
147	26
148	23
149	7
150	5
151	5
152	7
153	35
155	7
157	53
158	45
159	102
160	31
161	27
162	37
163	22
176	7
177	10
181	17
183	13
187	430
188	176
189	183
190	86
191	56
193	12
209	26
211	30
214	21
216	103
217	17
218	67
219	17
221	13
227	6
229	22
244	90
245	253
246	114
247	92
248	24
249	41
262	19
271	79
272	50
273	80
276	8
289	9
290	9
306	7
313	25
314	989
315	158
316	753
317	104
318	100
325	12
329	17
330	13
331	22
333	17
344	7
371	7
391	7
395	0
405	7
409	5
434	9
466	11
474	7
475	6
489	5
492	5
493	7
495	17
555	3
559	17
560	5
565	17
576	19
599	6
