Mass spectrum: N,N-Dimethylglycine; GC-FI-TOF; MS; POSITIVE; FI; 10 kV; TMS
Name: N,N-Dimethylglycine
Class: Non-natural compound
Formula: C4H9NO2
Exact mass: 103.0633285
SMILES: CN(C)CC(=O)O
InChI: InChI=1S/C4H9NO2/c1-5(2)3-4(6)7/h3H2,1-2H3,(H,6,7)
Instrument: JMS-T100GCV (JEOL, Akishima, Japan) coupled to Agilent 7890A (Santa Clara, CA, USA) gas chromatograph.
Instrument type: GC-FI-TOF
Ms type: MS
Ion mode: POSITIVE
Ionization: FI
Column name: DB-5MS UI 122-5532UI US0462866H (Agilent, Wilmington, USA) with the length 30 m, I.D. 0.25 mm, and thickness 0.25 micrometer.
Retention time: 5.56 min.
Derivative form: C7H17NO2Si
Derivative mass: 175.10285
Derivative type: TMS
m/z	relative intensity
175.103	999
176.105	137
177.101	42
