Mass spectrum: Malic acid-[2-13C]; GC-EI-QQ; MS2; CID 5 V; POSITIVE; 3 TMS-derivative; [M-117]+
Name: Malic acid-[2-13C]
Class: In vitro synthetic compound
Formula: C4H6O5
Exact mass: 134.02153
SMILES: C(C(C(=O)O)O)C(=O)O
InChI: InChI=1S/C4H6O5/c5-2(4(8)9)1-3(6)7/h2,5H,1H2,(H,6,7)(H,8,9)/i2+1
Instrument: GCMS-TQ8040 (Shimadzu, Kyoto, Japan)
Instrument type: GC-EI-QQ
Ms type: MS2
Ion mode: POSITIVE
Collision energy: 5 V
Fragmentation mode: CID
Column name: DB-5MS+DG (Agilent Technologies, Santa Clara, CA, USA)
Derivative form: C13H30O5Si3
Derivative mass: 350.14011
Derivative type: 3 TMS
Precursor m/z: 234.10572
m/z	relative intensity	assigned
70	11	
73.15	186	
117.1	37	C4H9O2Si+
147.15	999	
149.1	23	
172.1	111	
174.1	10	
176.1	58	
218.05	150	
246.2	60	
264.25	538	
266.15	376	C8(13C)H25O3Si3+
308.1	710	C10(13C)H27O4Si3+
320.15	91	
336.2	468	
