Mass spectrum: Citric acid-[5-13C]; GC-EI-Q; MS; POSITIVE; 4TBDMS-derivative
Name: Citric acid-[5-13C]
Class: In vitro synthetic compound
Formula: C6H8O7
Exact mass: 192.02700
SMILES: OC(=O)CC(O)(CC(O)=O)C(=O)O
InChI: InChI=1S/C6H8O7/c7-3(8)1-6(13,5(11)12)2-4(9)10/h13H,1-2H2,(H,7,8)(H,9,10)(H,11,12)/i3+1
Instrument: GCMS-QP2010 Ultra (Shimadzu, Kyoto, Japan)
Instrument type: GC-EI-Q
Ms type: MS
Ion mode: POSITIVE
Column name: DB-5MS+DG (Agilent Technologies, Santa Clara, CA, USA)
Derivative form: C30H64O7Si4
Derivative mass: 648.372913
Derivative type: 4 TBDMS
m/z	relative intensity	assigned
57.05	36	
58	13	
59	44	
72.05	11	
73.05	999	
74.05	92	
75	94	
99.05	15	
115.1	60	
116.05	10	
117.05	12	
133.05	37	
147.1	252	
148.1	40	
149.05	58	
189.05	20	
206.95	18	
221	19	
254.05	22	
259.05	18	
260.05	10	
300.05	15	C12(13C)H23O4Si2+
358.15	89	C16(13C)H33O4Si2+
359.15	25	
360.1	10	
386.1	13	
431.15	11	
432.1	106	C18(13C)H39O5Si3+
433.15	40	
434.1	18	
459.15	18	
460.1	273	
461.1	99	
462.1	49	
463.1	12	
490.2	18	
502.15	17	
591.25	17	
592.25	206	
593.25	103	
594.25	53	
595.25	16	
