Mass spectrum: L-Carnitine; ESI-QTOF; MS2; POSITIVE; [M+H]+; CID; 40 V
Name: L-Carnitine
Class: Carnitine
Formula: C7H15NO3
Exact mass: 161.10519
SMILES: C[N+](C)(C)C[C@@H](CC(=O)[O-])O
InChI: InChI=1S/C7H15NO3/c1-8(2,3)5-6(9)4-7(10)11/h6,9H,4-5H2,1-3H3/t6-/m1/s1
Instrument: X500R QTOF (AB Sciex LLC, USA)
Instrument type: ESI-QTOF
Ms type: MS2
Ion mode: POSITIVE
Collision energy: 40 V
Fragmentation mode: CID
Ionization: ESI
Precursor m/z: 162.11247
Precursor type: [M+H]+
m/z	relative intensity	assigned
27.0228	35	[C2H6-3H]+
29.0383	77	[C2H6-H]+
43.0177	999	[C2H6O-3H]+
44.0494	41	[C2H8N-2H]+
45.0572	73	[C2H8N-H]+
57.0335	73	[C3H8O-3H]+
58.0651	161	[C3H10N-2H]+
59.073	85	
60.0808	237	[C3H10N]+
