Mass spectrum: Citric acid-[1-13C]; GC-EI-Q; MS; POSITIVE; 4TBDMS-derivative
Name: Citric acid-[1-13C]
Class: In vitro synthetic compound
Formula: C6H8O7
Exact mass: 192.02700
SMILES: OC(=O)CC(O)(CC(O)=O)C(=O)O
InChI: InChI=1S/C6H8O7/c7-3(8)1-6(13,5(11)12)2-4(9)10/h13H,1-2H2,(H,7,8)(H,9,10)(H,11,12)/i5+1
Instrument: GCMS-QP2010 Ultra (Shimadzu, Kyoto, Japan)
Instrument type: GC-EI-Q
Ms type: MS
Ion mode: POSITIVE
Column name: DB-5MS+DG (Agilent Technologies, Santa Clara, CA, USA)
Derivative form: C30H64O7Si4
Derivative mass: 648.37291
Derivative type: 4 TBDMS
m/z	relative intensity	assigned
57.05	39	
58	13	
59	47	
72.05	12	
73	999	
74.05	96	
75	98	
99.05	15	
115.1	63	
116.05	10	
117.05	13	
133.05	39	
147.1	261	
148.1	41	
149.05	61	
189.05	22	
206.95	19	
221	20	
254.05	25	
259.05	19	
260.05	10	
300.05	16	C12(13C)H23O4Si2+
358.15	90	C16(13C)H33O4Si2+
359.15	25	
360.15	10	
386.1	14	
432.15	107	C18(13C)H39O5Si3+
433.15	39	
434.1	18	
459.15	15	
460.1	275	
461.15	97	
462.1	49	
463.1	11	
490.2	19	
502.15	17	
591.25	15	
592.25	215	
593.25	99	
594.25	51	
595.25	16	
