Mass spectrum: Imipramine; LC-ESI-QQ; MS2; ESI; POSITIVE; CID; CE 50 V; [M+H]+
Name: Imipramine
Class: Non-natural product
Formula: C19H24N2
Exact mass: 280.19394
SMILES: CN(C)CCCN1C2=CC=CC=C2CCC3=CC=CC=C31
InChI: InChI=1S/C19H24N2/c1-20(2)14-7-15-21-18-10-5-3-8-16(18)12-13-17-9-4-6-11-19(17)21/h3-6,8-11H,7,12-15H2,1-2H3
Instrument: LCMS-8040 coupled to Nexera XR (Shimadzu, Kyoto, Japan).
Instrument type: LC-ESI-QQ
Ms type: MS2
Ion mode: POSITIVE
Collision energy: 50 V
Fragmentation mode: CID
Ionization: ESI
Column name: InertSustain C18 ID 2.1 microm, 2.1 x 100 mm (GL Science, Tokyo, Japan).
Retention time: 8.828 min
Precursor m/z: 281.201217
Precursor type: [M+H]+
m/z	relative intensity
42.3	14
43.3	27
56.3	16
58.3	999
86.3	127
165.2	11
167.2	21
192.1	35
193.1	133
