Mass spectrum: tert-butyl((4-methyl-5-(pentylthio)pentyl)oxy)diphenylsilane; GC-EI-TOF; MS; POSITIVE; EI; 70 V
Name: tert-butyl((4-methyl-5-(pentylthio)pentyl)oxy)diphenylsilane
Class: Non-natural compound
Formula: C27H42OSSi
Exact mass: 442.27256
SMILES: CCCCCSCC(C)CCCO[Si](c1ccccc1)(c1ccccc1)C(C)(C)C
InChI: InChI=1S/C27H42OSSi/c1-6-7-14-22-29-23-24(2)16-15-21-28-30(27(3,4)5,25-17-10-8-11-18-25)26-19-12-9-13-20-26/h8-13,17-20,24H,6-7,14-16,21-23H2,1-5H3
Instrument: JMS-T100GCV (JEOL, Akishima, Japan) coupled to Agilent 7890A gas chromatograph.
Instrument type: GC-EI-TOF
Ms type: MS
Ion mode: POSITIVE
Ionization: EI
Column name: HP-5 30x0.32 0.25um 19091J-413, length 30.0 m, I.D. 0.32 mm, thickness 0.25 micrometer.
Retention time: 12.93 min.
m/z	relative intensity
27.024	7
28.006	16
28.032	1
29.04	29
31.99	9
39.024	6
41.04	75
41.089	1
42.047	21
43.001	2
43.055	103
44.059	4
44.98	15
45.987	2
46.996	8
51.024	2
53.04	3
55.055	167
55.16	1
56.06	9
57.072	17
58.996	3
59.032	2
60.004	2
61.012	38
62.015	1
63.008	2
65.04	2
67.056	12
68.062	2
69.071	33
70.079	14
71.086	6
73.012	3
73.049	2
74.019	2
75.027	11
77.04	32
78.047	8
79.055	6
81.071	15
82.079	6
83.087	163
84.09	10
85.011	5
86.019	1
87.027	3
91.056	27
92.06	3
99.028	2
101.043	3
103.002	2
103.058	5
104.064	8
105.017	24
105.07	5
106.02	3
107.032	6
112.034	1
113.043	4
114.051	3
115.058	11
116.065	3
117.073	23
118.077	3
119.033	3
119.084	1
120.041	1
121.012	12
121.048	10
122.018	3
123.027	40
124.029	5
125.042	5
126.05	3
127.057	3
128.065	2
129.072	4
131.033	2
131.088	3
133.049	1
134.021	2
135.064	70
135.155	1
136.066	10
136.989	47
137.044	18
137.991	6
138.046	2
138.993	5
141.073	2
143.088	2
145.048	7
145.104	2
146.052	2
147.028	5
148.035	3
149.043	5
151.057	3
152.063	5
153.02	2
153.07	3
154.08	2
155.0	23
155.084	1
156.002	3
156.997	2
157.103	2
159.064	5
160.067	1
161.043	28
162.049	12
163.059	29
164.062	6
165.071	4
167.087	2
171.07	2
172.072	2
173.079	13
173.139	1
174.082	2
175.059	12
176.064	4
177.072	3
178.078	1
179.033	2
180.041	9
181.048	54
182.053	17
183.064	94
184.066	17
185.071	6
185.137	5
187.153	15
188.158	2
189.075	9
189.15	1
190.08	3
191.091	5
192.603	3
193.047	1
193.102	3
195.064	6
196.068	1
197.079	29
198.081	6
199.059	330
199.333	1
199.686	1
199.755	1
200.062	59
201.06	17
202.075	3
203.089	133
204.092	27
205.097	9
206.102	1
207.035	5
208.039	1
209.08	2
211.059	12
212.064	4
213.074	10
214.077	2
215.036	47
216.038	9
217.033	4
221.079	7
222.082	2
223.094	3
224.083	1
225.075	15
226.077	3
227.084	1
235.092	2
237.077	20
238.08	4
239.088	10
240.091	2
251.126	4
253.105	3
263.125	3
267.122	1
269.138	1
281.134	44
282.137	11
283.138	3
285.114	31
286.116	7
287.112	3
307.155	1
313.109	2
315.121	2
385.202	999
386.205	319
386.599	1
386.89	2
387.202	122
388.203	28
389.202	5
427.249	3
428.252	1
