Mass spectrum: Methyl [(1R)-1,2-dimethyl-3-methylenecyclopentyl]acetate; GC-FI-TOF; MS; positive; FI; 10 kV
Name: Methyl [(1R)-1,2-dimethyl-3-methylenecyclopentyl]acetate
Class: Non-natural product
Formula: C11H18O2
Exact mass: 182.13068
SMILES: COC(=O)C[C@@]1(C)CCC(=C)C1C
InChI: InChI=1S/C11H18O2/c1-8-5-6-11(3,9(8)2)7-10(12)13-4/h9H,1,5-7H2,2-4H3/t9?,11-/m1/s1
Instrument: JMS-T100GCV (JEOL, Akishima, Japan) coupled to Agilent 7890A (Agilent, Wilmington, USA) gas chromatograph.
Instrument type: GC-FI-TOF
Ms type: MS
Ion mode: POSITIVE
Ionization: FI
Column name: HP-5 19091 J-413 USD364547H (Agilent, Wilmington, USA), length 30.0 m, I.D. 0.32 mm, thickness 0.25 micrometer.
Retention time: 7.16 min.
m/z	relative intensity
91.067	22
109.099	57
150.104	13
182.131	999
182.306	9
183.134	132
184.137	14
