Mass spectrum: Daidzein; ESI-QTOF; MS2; NEGATIVE; [M-H]-; CID; 40 V
Name: Daidzein
Class: 7-Hydroxyisoflavone
Formula: C15H10O4
Exact mass: 254.05791
SMILES: C1=CC(=CC=C1C2=COC3=C(C2=O)C=CC(=C3)O)O
InChI: InChI=1S/C15H10O4/c16-10-3-1-9(2-4-10)13-8-19-14-7-11(17)5-6-12(14)15(13)18/h1-8,16-17H
Instrument: X500R QTOF (AB Sciex LLC, USA)
Instrument type: ESI-QTOF
Ms type: MS2
Ion mode: NEGATIVE
Collision energy: 40 V
Fragmentation mode: CID
Ionization: ESI
Precursor m/z: 253.05063
Precursor type: [M-H]-
m/z	relative intensity
41.003	64
49.0081	10
65.003	15
77.0393	26
89.0393	35
91.0186	421
104.0264	19
117.0342	112
132.0213	307
133.0291	436
135.0084	260
155.0499	28
160.0163	26
167.0498	43
168.0576	35
169.0654	108
179.0498	40
180.0576	207
181.0652	51
182.0369	50
183.0446	52
195.0446	182
196.0524	218
197.0602	131
208.0525	595
209.0602	260
210.0318	30
223.0396	535
224.0473	525
225.055	166
251.0345	48
252.0423	111
253.05	999
