Mass spectrum: 3-((4-Methoxybenzyl)oxy)-2,2-dimethylcycloheptan-1-one; GC-EI-TOF; MS; positive; EI; 70 V
Name: 3-((4-Methoxybenzyl)oxy)-2,2-dimethylcycloheptan-1-one
Class: Non-natural product
Formula: C17H24O3
Exact mass: 276.17255
SMILES: COC1=CC=C(COC2CCCCC(=O)C2(C)C)C=C1
InChI: InChI=1S/C17H24O3/c1-17(2)15(18)6-4-5-7-16(17)20-12-13-8-10-14(19-3)11-9-13/h8-11,16H,4-7,12H2,1-3H3
Instrument: JMS-T100GCV (JEOL, Akishima, Japan) coupled to Agilent 7890A (Agilent, Wilmington, USA) gas chromatograph.
Instrument type: GC-EI-TOF
Ms type: MS
Ion mode: POSITIVE
Ionization: EI
Column name: HP-5 19091 J-413 USD364547H (Agilent, Wilmington, USA), length 30 m, I.D. 0.32 mm, thickness 0.25 micrometer.
Retention time: 11.01 min.
m/z	relative intensity
27.024	11
28.006	4
28.031	5
29.039	11
39.024	15
40.031	3
41.040	53
42.047	8
43.019	8
43.055	23
51.024	9
52.032	8
53.040	9
55.019	11
55.055	22
63.024	4
64.032	3
65.040	11
66.047	3
67.056	12
69.071	17
70.043	5
71.050	3
77.040	48
78.048	45
79.054	7
83.050	4
89.040	12
90.047	10
91.056	24
92.027	4
92.060	3
93.071	3
94.043	6
95.087	10
97.066	4
98.074	10
105.035	3
106.043	7
107.051	8
109.067	7
109.102	3
111.082	3
121.066	999
121.610	3
122.070	87
122.397	1
123.072	5
125.097	21
135.047	7
136.053	3
137.061	115
138.066	14
140.121	39
141.124	4
178.100	3
276.173	2
