Mass spectrum: Butyl 2,4-dichlorophenoxyacetate; GC-EI-Q; MS; Positive
Name: Butyl 2,4-dichlorophenoxyacetate
Name: Butyl 2,4-D
Class: Non-Natural Product; Pesticides
Formula: C12H14Cl2O3
Exact mass: 276.03200
SMILES: CCCCOC(=O)COc(c1)c(Cl)cc(Cl)c1
InChI: InChI=1S/C12H14Cl2O3/c1-2-3-6-16-12(15)8-17-11-5-4-9(13)7-10(11)14/h4-5,7H,2-3,6,8H2,1H3
Instrument: GCMS-QP2010 Plus, Shimadzu
Instrument type: GC-EI-Q
Ms type: MS
Ion mode: POSITIVE
Ionization: EI
Column name: Ptx-5MS(RESTEK), 0.32 mm I.D. x 30 m, df=0.25 microm
Retention time: 9.3 min
m/z	relative intensity
40	8
41	801
42	155
43	155
44	30
45	6
50	28
51	15
53	10
55	89
56	58
57	999
58	43
59	5
61	8
62	21
63	86
64	6
65	8
70	8
71	13
72	15
73	56
74	72
75	122
76	13
77	25
83	12
84	14
85	24
86	13
87	13
96	5
97	21
98	35
99	15
100	12
101	13
107	11
109	178
110	46
111	261
112	53
113	69
114	15
115	5
126	19
127	5
128	21
130	4
133	84
134	5
135	50
137	9
139	17
140	5
141	21
143	11
144	7
145	225
146	23
147	211
148	15
149	65
151	9
156	19
158	7
161	71
162	391
163	76
164	255
165	28
166	39
167	5
173	7
175	353
176	76
177	223
178	54
179	36
180	8
184	29
185	759
186	78
187	256
188	24
220	184
221	17
222	120
223	11
224	18
241	21
243	5
276	413
277	53
278	262
279	39
280	47
281	7
