Mass spectrum: zeta-Carotene; LC-ESI-QTOF; MS2; POSITIVE; ESI; [M+H]+; COLLISION_ENERGY 20 V
Name: zeta-Carotene
Name: All-trans-zeta-carotene
Name: xi-Carotene
Class: Natural product; carotenoids, carotene
Formula: C40H60
Exact mass: 540.46950
SMILES: CC(=CCC/C(=C/CC/C(=C/C=C/C(=C/C=C/C=C(/C=C/C=C(/CC/C=C(/CCC=C(C)C)\C)\C)\C)/C)/C)/C)C
InChI: InChI=1S/C40H60/c1-33(2)19-13-23-37(7)27-17-31-39(9)29-15-25-35(5)21-11-12-22-36(6)26-16-30-40(10)32-18-28-38(8)24-14-20-34(3)4/h11-12,15-16,19-22,25-30H,13-14,17-18,23-24,31-32H2,1-10H3/b12-11+,25-15+,26-16+,35-21+,36-22+,37-27+,38-28+,39-29+,40-30+
Instrument: Xevo G2-S QtOF, Waters (USA) coupled to ACQUITY UPLC, Waters (USA).
Instrument type: LC-ESI-QTOF
Ms type: MS2
Ion mode: POSITIVE
Collision energy: 20 V
Ionization: ESI
Column name: BEH C18, I.D. 2.1 mm, length 100 mm, thickness 1.7 micrometer.
Ion type: [M+H]+
Precursor m/z: 541.47677
m/z	relative intensity
104.752	174
106.076	490
108.095	642
111.093	131
117.837	522
120.974	762
121.122	72
122.105	435
133.082	626
134.093	72
134.788	404
136.829	648
142.966	117
144.670	520
146.100	74
146.134	806
147.957	52
148.118	70
148.752	512
150.637	106
152.934	52
157.089	324
157.102	50
157.141	66
158.114	496
159.759	74
160.119	356
161.144	54
162.653	320
168.669	112
171.101	324
171.725	72
173.020	441
175.134	200
176.153	254
181.101	122
183.117	58
185.110	231
187.127	298
188.636	207
190.179	118
194.109	52
196.252	114
198.899	309
200.145	59
200.158	256
201.165	290
204.196	70
205.191	56
207.115	69
209.122	117
210.904	465
212.144	68
212.749	279
215.164	190
217.156	96
222.330	144
223.147	71
224.157	84
225.156	110
225.168	69
226.951	134
228.520	63
239.175	68
239.670	61
241.154	170
242.203	122
243.207	67
243.216	90
250.179	121
252.657	219
254.285	58
256.276	69
257.919	53
263.174	68
265.182	98
266.218	190
269.216	153
270.235	194
281.217	62
291.207	51
292.218	80
308.516	75
309.247	149
311.270	67
321.250	108
322.260	137
323.276	67
334.260	98
337.275	167
346.264	80
348.290	66
362.924	56
379.838	111
391.318	132
403.182	830
403.446	138
404.333	139
539.313	263
540.197	230
541.436	999
541.474	293
542.350	553
