Mass spectrum: Malic acid; GC-EI-QQ; MS2; CID 5 V; POSITIVE; 3 TMS-derivative; [M-15]+
Name: Malic acid
Class: Natural Product
Formula: C4H6O5
Exact mass: 134.02153
SMILES: C(C(C(=O)O)O)C(=O)O
InChI: InChI=1S/C4H6O5/c5-2(4(8)9)1-3(6)7/h2,5H,1H2,(H,6,7)(H,8,9)
Instrument: GCMS-TQ8040 (Shimadzu, Kyoto, Japan)
Instrument type: GC-EI-QQ
Ms type: MS2
Ion mode: POSITIVE
Collision energy: 5 V
Fragmentation mode: CID
Column name: DB-5MS+DG (Agilent Technologies, Santa Clara, CA, USA)
Derivative form: C13H30O5Si3
Derivative mass: 350.14011
Derivative type: 3 TMS
Precursor m/z: 335.11608
m/z	relative intensity	assigned
71	12	
73.1	239	
117.1	74	C4H9O2Si+
143.1	22	
147.1	999	
171.15	131	
175.1	51	
217	72	
245.2	93	
263.2	439	
265.15	274	C9H25O3Si3+
307.2	685	C11H27O4Si3+
308.2	28	
319.1	101	
335.15	381	
