Mass spectrum: (2R,3R)-(+)-2,3-Epoxy-1-octanol; GC-EI-TOF; MS; positive; EI; 70 V
Name: (2R,3R)-(+)-2,3-Epoxy-1-octanol
Class: Non-natural compound
Formula: C8H16O2
Exact mass: 144.11503
SMILES: OC[C@H]1O[C@@H]1CCCCC
InChI: InChI=1S/C8H16O2/c1-2-3-4-5-7-8(6-9)10-7/h7-9H,2-6H2,1H3/t7-,8-/m1/s1
Instrument: JMS-T100GCV (JEOL, Akishima, Japan) coupled to Agilent 7890A (Agilent, Wilmington, USA) gas chromatograph.
Instrument type: GC-EI-TOF
Ms type: MS
Ion mode: POSITIVE
Ionization: EI
Column name: HP-5 19091 J-413 USD364547H (Agilent, Wilmington, USA), length 30 m, I.D. 0.32 mm, thickness 0.25 micrometer.
Retention time: 6.34 min.
m/z	relative intensity
26.016	21
27.024	372
27.064	4
27.26	1
27.283	1
27.433	1
28.006	6
28.031	60
29.003	108
29.04	354
29.083	4
29.287	2
29.452	1
29.491	1
30.01	5
30.044	8
31.019	292
31.063	4
31.102	2
31.99	2
32.026	13
37.007	1
38.016	7
39.024	238
39.074	3
39.108	2
39.321	1
40.031	32
41.039	654
41.089	7
41.166	2
41.356	2
41.558	2
42.011	28
42.047	135
42.138	1
42.567	1
43.019	276
43.055	271
43.29	1
43.33	2
43.554	1
43.577	1
43.624	1
44.026	206
44.058	10
44.307	1
44.341	1
45.034	141
45.088	2
45.125	1
46.038	3
47.013	2
50.017	4
51.024	13
52.031	6
53.039	48
54.047	22
55.019	36
55.055	999
55.113	10
55.321	2
55.42	3
55.668	2
55.95	1
56.025	7
56.062	165
56.13	2
56.175	1
57.034	254
57.07	69
57.377	1
58.04	16
58.074	3
59.05	29
60.021	19
61.029	50
62.034	1
65.039	7
66.046	3
67.055	42
68.062	8
69.034	21
69.071	49
70.041	11
70.075	6
71.013	10
71.05	26
71.086	13
72.056	4
73.029	6
73.065	4
77.039	4
79.055	7
80.058	2
81.07	14
82.078	13
83.05	15
83.086	629
83.155	7
83.535	2
83.805	1
83.833	1
84.056	2
84.09	38
84.208	2
85.065	3
85.096	2
87.046	2
88.052	3
91.054	2
93.07	3
95.086	13
99.081	7
100.087	2
101.06	14
101.097	31
102.099	2
113.095	3
