Mass spectrum: Malic acid-[2-13C]; GC-EI-Q; MS; POSITIVE; 3 TMS-derivative
Name: Malic acid-[2-13C]
Class: In vitro synthetic compound
Formula: C4H6O5
Exact mass: 134.021523
SMILES: C(C(C(=O)O)O)C(=O)O
InChI: InChI=1S/C4H6O5/c5-2(4(8)9)1-3(6)7/h2,5H,1H2,(H,6,7)(H,8,9)/i2+1
Instrument: GCMS-QP2010 Ultra (Shimadzu, Kyoto, Japan)
Instrument type: GC-EI-Q
Ms type: MS
Ion mode: POSITIVE
Column name: DB-5MS+DG (Agilent Technologies, Santa Clara, CA, USA)
Derivative form: C13H30O5Si3
Derivative mass: 350.140106
Derivative type: 3 TMS
m/z	relative intensity	assigned
50.9	36	
51.9	13	
53.9	10	
54.95	16	
55.9	253	
56.95	23	
57.95	37	
58.95	129	
59.95	19	
60.95	43	
70	19	
71.05	13	
72.15	117	
73.15	999	
74.05	700	
75	604	
76	46	
77	29	
78	45	
89.2	10	
100	17	
102.05	145	C3(13C)H9OSi+
103	45	
104	16	
105	28	
115	14	
116.05	12	
117	113	C4H9O2Si+
118.05	15	
119	21	
129.05	12	
130.05	24	
131.05	62	
132.05	25	
133.05	231	
134	35	
135	24	
136.05	56	
144.05	40	
146.15	18	
147.1	893	
148.1	161	
149.05	111	
150.05	13	
151.05	12	
172	37	
175.05	14	
176	77	
177	16	
178.05	22	
179	146	
180	23	
189.15	10	
190.05	209	
191.05	46	
192.05	77	
193	24	
194.05	13	
204	15	
218	54	
219	10	
221	24	
233.05	10	
234.05	341	C8(13C)H21O3Si2+
235.05	61	
236.05	30	
246	173	
247	34	
248	24	
264.1	28	
266.1	48	
267.1	10	
306.1	19	
307.1	29	
308.1	49	
309.1	14	
320.05	20	
336.1	74	C11(13C)H27O5Si3+
337.1	20	
338.1	10	
