Mass spectrum: Tolylbiguanide; ESI-QTOF; MS2; ESI; POSITIVE; CE 60 V
Name: Tolylbiguanide
Class: Non-natural product
Formula: C9H13N5
Exact mass: 191.11708
SMILES: Cc1ccccc1NC(=N)NC(=N)N
InChI: InChI=1S/C9H13N5/c1-6-4-2-3-5-7(6)13-9(12)14-8(10)11/h2-5H,1H3,(H6,10,11,12,13,14)
Instrument: X500R QTOF (AB Sciex LLC, USA)
Instrument type: ESI-QTOF
Ms type: MS2
Ion mode: POSITIVE
Collision energy: 60 V
Ionization: ESI
Precursor m/z: 192.12435
Precursor type: [M+H]+
m/z	relative intensity
39.0234	96
43.0289	999
60.0561	188
65.0387	448
77.0392	148
79.055	76
89.0393	172
91.0544	359
93.0581	101
106.066	119
