Mass spectrum: Cyanophenylguanidine; ESI-QTOF; MS2; ESI; POSITIVE; CE 30 V
Name: Cyanophenylguanidine
Class: Non-natural product
Formula: C8H8N4
Exact mass: 160.07488
SMILES: N#Cc1ccc(NC(=N)N)cc1
InChI: InChI=1S/C8H8N4/c9-5-6-1-3-7(4-2-6)12-8(10)11/h1-4H,(H4,10,11,12)
Instrument: X500R QTOF (AB Sciex LLC, USA)
Instrument type: ESI-QTOF
Ms type: MS2
Ion mode: POSITIVE
Collision energy: 30 V
Ionization: ESI
Precursor m/z: 161.08216
Precursor type: [M+H]+
m/z	relative intensity
43.0287	572
51.0234	82
65.0392	69
75.0234	96
78.0345	74
90.0337	243
92.0491	418
102.0328	874
117.0437	910
119.0592	909
120.0449	109
130.0388	984
144.0539	999
161.0826	100
