Mass spectrum: Cinnamtannin A3; LC-ESI-QTOF; MS2; [M+H]+
Name: Cinnamtannin A3
Class: Natural Product; Cathechins
Formula: C75H62O30
Exact mass: 1442.33259
SMILES: C1[C@H]([C@H](OC2=C1C(=CC(=C2[C@@H]3[C@H]([C@H](OC4=C3C(=CC(=C4[C@@H]5[C@H]([C@H](OC6=C(C(=CC(=C56)O)O)[C@@H]7[C@H]([C@H](OC8=C(C(=CC(=C78)O)O)[C@@H]9[C@H]([C@H](OC1=CC(=CC(=C91)O)O)C1=CC(=C(C=C1)O)O)O)C1=CC(=C(C=C1)O)O)O)C1=CC(=C(C=C1)O)O)O)O)O)C1=CC(=C(C=C1)O)O)O)O)O)C1=CC(=C(C=C1)O)O)O
InChI: InChI=1S/C75H62O30/c76-28-16-41(88)51-50(17-28)101-68(24-2-7-31(78)37(84)12-24)63(97)59(51)53-43(90)20-45(92)55-61(65(99)70(103-73(53)55)26-4-9-33(80)39(86)14-26)57-47(94)22-48(95)58-62(66(100)71(105-75(57)58)27-5-10-34(81)40(87)15-27)56-46(93)21-44(91)54-60(64(98)69(104-74(54)56)25-3-8-32(79)38(85)13-25)52-42(89)19-35(82)29-18-49(96)67(102-72(29)52)23-1-6-30(77)36(83)11-23/h1-17,19-22,49,59-71,76-100H,18H2/t49-,59-,60+,61-,62+,63-,64-,65-,66-,67-,68-,69-,70-,71-/m1/s1
Instrument: Xevo QTOF (Waters)
Instrument type: LC-ESI-QTOF
Ms type: MS2
Ion mode: POSITIVE
Collision energy: 20 V
Ionization: ESI
Column name: Waters InertSustain C18 (250 x 4.6 mm)
Precursor m/z: 1443.3409
Precursor type: [M+H]+
m/z	relative intensity
291.0875	43
425.0851	3
577.1335	484
579.1493	256
580.1536	80
715.1697	5
865.1995	221
867.2144	999
868.2195	416
869.2222	101
1003.2166	2
1153.269	105
1155.2795	185
1156.2881	109
1291.2859	7
1443.345	335
1445.3545	172
1446.3544	60
