Mass spectrum: 1-(9Z-Octadecenoyl)-sn-glycero-3-phosphocholine; MALDI-QITTOF; MS2; POSITIVE; [M+H]+; HAD
Name: Lyso-PC 18:1(9Z)
Name: 1-(9Z-Octadecenoyl)-sn-glycero-3-phosphocholine
Class: Natural product; Phospholipid
Formula: C26H52NO7P
Exact mass: 521.3481
SMILES: CCCCCCCC/C=C\CCCCCCCC(=O)OC[C@H](COP(=O)([O-])OCC[N+](C)(C)C)O
InChI: InChI=1S/C26H52NO7P/c1-5-6-7-8-9-10-11-12-13-14-15-16-17-18-19-20-26(29)32-23-25(28)24-34-35(30,31)33-22-21-27(2,3)4/h12-13,25,28H,5-11,14-24H2,1-4H3/b13-12-/t25-/m1/s1
Instrument: MALDI-QITTOF noncommercial prototype model (Shimadzu Corporation, Kyoto, Japan)
Instrument type: MALDI-QITTOF
Ms type: MS2
Ion mode: POSITIVE
Fragmentation mode: HAD
Ionization: MALDI
Ion type: [M+H]+
Precursor m/z: 522.3554
m/z	relative intensity
155	1
158.061	14
159.076	1
163.017	2
166.06	2
170.051	1
172.069	1
181.025	1
183.062	4
184.073	830
184.398	23
184.546	4
184.629	6
184.758	5
185.071	55
185.259	4
185.525	2
185.762	1
186.074	9
187.086	1
196.07	1
197.07	1
198.083	9
200.056	1
210.082	1
213.071	1
214.082	6
215.087	1
222.086	15
223.074	2
224.093	1
226.083	11
227.092	1
238.079	4
239.088	13
240.096	8
241.105	1
256.09	2
258.107	9
259.108	1
268.089	1
274.097	1
281.099	6
282.1	1
286.102	17
287.099	2
293.27	1
294.108	6
295.099	1
298.107	1
299.11	28
300.11	3
308.123	1
312.116	14
313.12	2
314.13	1
322.128	1
323.135	1
326.129	1
327.139	1
328.134	1
336.147	2
337.154	1
340.142	1
341.154	2
342.157	1
350.167	2
351.17	1
354.162	6
355.167	1
356.164	1
364.179	1
366.165	1
368.179	5
369.18	1
376.183	1
378.2	1
382.189	1
383.195	1
389.223	1
390.203	1
392.202	1
394.193	1
396.204	1
397.215	1
404.216	1
405.224	1
406.259	2
408.22	1
409.219	1
410.229	1
411.227	1
413.997	1
416	1
418.008	1
418.227	1
419.225	1
420.23	1
422.225	4
423.226	2
424.233	1
436.239	3
437.244	1
438.243	1
443.233	1
444.251	1
445.263	4
446.269	2
447.282	1
448.304	5
449.307	1
450.316	3
451.302	1
452.279	1
453.265	1
454.028	1
456.031	1
458.038	1
460.267	1
461.252	1
462.28	1
463.274	1
464.268	2
465.272	1
466.288	1
476.286	1
478.282	1
479.289	1
480.299	1
492.309	1
493.321	1
494.32	1
500.301	4
501.311	8
502.321	62
502.865	1
503.328	47
503.891	1
504.336	157
504.608	8
504.876	4
505.34	46
505.876	2
506.344	13
507.341	2
508.346	1
518.301	4
519.32	23
520.331	176
520.872	4
521.339	425
521.899	13
522.355	999
522.896	49
523.351	481
523.911	22
524.355	98
524.873	5
525.354	13
526.35	1
534.338	2
535.348	3
536.36	13
537.355	2
538.356	1
