Mass spectrum: rac-(2S,3S,5S)-5-(But-3-en-1-yl)-3-acetoxy-2-(acetoxymethyl)tetrahydrofuran; GC-EI-TOF; MS; POSITIVE; EI; 70 V
Name: rac-(2S,3S,5S)-5-(But-3-en-1-yl)-3-acetoxy-2-(acetoxymethyl)tetrahydrofuran
Class: Non-natural compound
Formula: C13H20O5
Exact mass: 256.13108
SMILES: C=CCC[C@H]1C[C@H](OC(C)=O)[C@H](COC(C)=O)O1
InChI: InChI=1S/C13H20O5/c1-4-5-6-11-7-12(17-10(3)15)13(18-11)8-16-9(2)14/h4,11-13H,1,5-8H2,2-3H3/t11-,12-,13-/m0/s1
Instrument: JMS-T100GCV (JEOL, Akishima, Japan) coupled to Agilent 7890A gas chromatograph.
Instrument type: GC-EI-TOF
Ms type: MS
Ion mode: POSITIVE
Ionization: EI
Column name: ZB-1MS 7HM-G011-11 sn:313446, length 30.0 m, I.D. 0.32 mm, thickness 0.25 micrometer.
Retention time: 8.96 min.
m/z	relative intensity
31.019	6
31.99	7
39.024	34
39.962	9
40.031	5
41.039	96
41.091	1
42.011	12
42.046	11
43.018	999
43.055	15
43.343	3
43.564	2
43.804	1
43.99	2
44.023	23
45.033	6
51.024	2
52.031	2
53.039	25
54.047	32
55.018	27
55.055	64
55.113	1
56.025	3
56.061	5
57.034	30
57.07	3
58.041	4
60.022	3
61.029	14
65.039	7
66.047	8
67.055	121
68.026	7
68.061	19
69.034	25
69.07	5
70.041	24
71.013	3
71.049	21
72.056	2
73.029	21
74.036	4
77.039	12
78.047	3
79.054	77
79.126	1
80.062	125
81.034	347
81.069	42
81.396	1
81.481	1
81.823	1
82.039	32
82.076	7
83.049	22
83.086	5
84.057	7
85.028	2
85.065	4
86.037	5
87.044	5
91.054	12
92.062	5
93.07	35
94.041	153
95.048	32
95.086	68
96.055	5
96.089	5
97.029	5
97.064	5
98.036	3
98.072	4
99.044	14
100.052	12
101.024	6
103.039	20
105.07	25
106.074	3
107.049	22
108.056	8
109.064	3
109.101	1
110.073	2
111.044	3
111.08	4
112.052	7
113.06	10
115.04	2
117.069	4
118.077	4
119.085	1
121.065	4
123.08	43
124.085	5
125.095	4
126.105	2
129.054	2
135.081	10
136.088	28
137.096	25
138.099	2
141.091	9
145.051	3
153.055	8
154.099	159
155.102	15
156.104	1
183.102	50
184.105	5
196.109	5
201.075	3
214.083	2
