Mass spectrum: Malic acid-[4-13C]; GC-EI-Q; MS; POSITIVE; 3 TBDMS-derivative
Name: Malic acid-[4-13C]
Class: In vitro synthetic compound
Formula: C4H6O5
Exact mass: 134.02153
SMILES: O=C(O)C(O)CC(=O)O
InChI: InChI=1S/C4H6O5/c5-2(4(8)9)1-3(6)7/h2,5H,1H2,(H,6,7)(H,8,9)/i3+1
Instrument: GCMS-QP2010 Ultra (Shimadzu, Kyoto, Japan)
Instrument type: GC-EI-Q
Ms type: MS
Ion mode: POSITIVE
Column name: DB-5MS+DG (Agilent Technologies, Santa Clara, CA, USA)
Derivative form: C22H48O5Si3
Derivative mass: 476.28095
Derivative type: 3 TBDMS
m/z	relative intensity	assigned
55	85	
56	33	
57.05	38	
58	20	
59	72	
69.05	11	
72.15	11	
73.05	999	
74.05	90	
75.05	112	
85.05	14	
99.05	18	
101.05	19	
115.1	307	
116.1	37	
117.1	21	
129.05	14	
131.05	17	
133.05	125	
134.05	16	
135.05	13	
147.1	316	
148.1	49	
149.1	55	
175.05	20	
177	10	
189.05	92	
190.05	18	
191.05	11	
207	20	
214.05	17	
217.05	39	C9H21O2Si2+
260.1	15	
288.1	201	
289.1	44	
290.1	21	
318.15	12	C14(13C)H33O3Si2+
330.1	11	
347.2	15	
349.15	23	C15H37O3Si3+
392.15	28	C16(13C)H39O4Si3+
404.1	56	
405.1	19	
420.15	275	
421.15	90	
422.15	44	
423.15	10	
462.15	13	
