Mass spectrum: Tridemorph; LC-ESI-QTOF; MS2; ESI; POSITIVE; [M+H]+; CE 60 V
Name: Tridemorph
Class: Non-natural product
Formula: C19H39NO
Exact mass: 297.30316
SMILES: CCCCCCCCCCCCCN1CC(C)OC(C)C1
InChI: InChI=1S/C19H39NO/c1-4-5-6-7-8-9-10-11-12-13-14-15-20-16-18(2)21-19(3)17-20/h18-19H,4-17H2,1-3H3
Instrument: ExionLC AD, AB Sciex LLC, USA; X500R QTOF, AB Sciex LLC, USA.
Instrument type: LC-ESI-QTOF
Ms type: MS2
Ion mode: POSITIVE
Collision energy: 60 V
Ionization: ESI
Column name: AQ-C18HP 3 microm, 2.1 mm Ã— 150 mm, GL Science (Tokyo Japan)
Retention time: 17.9 min and 18.5 min
Precursor m/z: 298.31044
Precursor type: [M+H]+
m/z	relative intensity
33.034	132
39.0233	259
41.0389	999
43.0546	897
57.0707	454
70.0659	113
98.0968	218
