Mass spectrum: Glc4; ESI-QQ; MS2; Positive; [M+H]+; CID; CE: 10 eV
Name: Glc4
Name: Isomaltosylmaltose
Name: Glc(a1-6)Glc(a1-4)Glc(a1-4)Glc
Class: Non-natural product.
Formula: C24H42O21
Exact mass: 666.221865
SMILES: O[C@@H]1[C@@H](O)[C@H](O)[C@@H](CO)O[C@@H]1OC[C@H]1O[C@H](O[C@@H]2[C@@H](CO)O[C@H](O[C@@H]3[C@@H](CO)OC(O)[C@H](O)[C@H]3O)[C@H](O)[C@H]2O)[C@H](O)[C@@H](O)[C@@H]1O
InChI: InChI=1S/C24H42O21/c25-1-5-9(28)11(30)16(35)22(41-5)39-4-8-10(29)12(31)17(36)23(43-8)45-20-7(3-27)42-24(18(37)14(20)33)44-19-6(2-26)40-21(38)15(34)13(19)32/h5-38H,1-4H2/t5-,6-,7-,8-,9-,10-,11+,12+,13-,14-,15-,16-,17-,18-,19-,20-,21?,22+,23-,24-/m1/s1
Instrument: Triple Quad 4500 (AB Sciex Pte. Ltd., USA)
Instrument type: LC-ESI-QQ
Ms type: MS2
Ion mode: POSITIVE
Collision energy: 10 eV
Fragmentation mode: CID
Ionization: ESI
Precursor m/z: 667.229142
Precursor type: [M+H]+
m/z	relative intensity
162.8	3
163	3
325.1104	23
331.3	1
331.5	1
336.4784	2
337.2449	23
341.2	1
342.9871	2
354.9	1
359.2364	1
487.1301	33
488.0156	3
488.2	2
488.5813	1
501.6	4
502.0008	5
502.6	1
505.2157	16
515.6	2
515.7769	2
516.0571	2
570.7	1
593.2572	2
606.6	1
607.2296	1
610.5	3
611.4903	8
613.1	1
618.9	1
625.4786	1
626.2968	4
631.2086	14
631.7	2
635.5667	1
637.4737	4
639.9895	1
649.1987	50
657.8432	2
658.357	6
667.508	999
685.4938	2
