Mass spectrum: Acetylglycitin; ESI-QTOF; MS2; POSITIVE; [M+H]+; CID; 60 V
Name: Acetylglycitin
Class: Natural product; glycitin
Formula: C24H24O11
Exact mass: 488.13186
SMILES: CC(=O)OC[C@@H]1[C@H]([C@@H]([C@H]([C@@H](O1)OC2=C(C=C3C(=C2)OC=C(C3=O)C4=CC=C(C=C4)O)OC)O)O)O
InChI: InChI=1S/C24H24O11/c1-11(25)32-10-19-21(28)22(29)23(30)24(35-19)34-18-8-16-14(7-17(18)31-2)20(27)15(9-33-16)12-3-5-13(26)6-4-12/h3-9,19,21-24,26,28-30H,10H2,1-2H3/t19-,21-,22+,23-,24-/m1/s1
Instrument: X500R QTOF (AB Sciex LLC, USA)
Instrument type: ESI-QTOF
Ms type: MS2
Ion mode: POSITIVE
Collision energy: 60 V
Fragmentation mode: CID
Ionization: ESI
Precursor m/z: 489.13914
Precursor type: [M+H]+
m/z	relative intensity
118.0413	22
124.0153	12
139.0389	10
141.0698	24
145.0283	23
152.0103	16
167.0338	31
168.0568	34
169.0647	60
196.0519	32
197.0597	110
213.0547	19
214.0626	38
225.0547	154
229.086	139
242.0574	318
257.081	28
270.0522	933
285.0756	999
