Mass spectrum: Isoxathion; GC-EI-Q; MS; Positive; M+*
Name: Isoxathion
Class: Non-Natural Product; Pesticides
Formula: C13H16NO4PS
Exact mass: 313.05377
SMILES: CCOP(=S)(OCC)Oc(n2)cc(o2)c(c1)cccc1
InChI: InChI=1S/C13H16NO4PS/c1-3-15-19(20,16-4-2)18-13-10-12(17-14-13)11-8-6-5-7-9-11/h5-10H,3-4H2,1-2H3
Instrument: GCMS-QP2010 Plus, Shimadzu
Instrument type: GC-EI-Q
Ms type: MS
Ion mode: POSITIVE
Ionization: EI
Column name: Ptx-5MS(RESTEK), 0.32 mm I.D. x 30 m, df=0.25 microm
Retention time: 13.7 min
Ion type: [M]+*
Precursor m/z: 313.1
m/z	relative intensity
40	8
41	6
42	11
43	18
45	60
47	22
50	47
51	176
52	14
61	16
62	12
63	27
64	9
65	108
66	5
68	7
69	7
74	28
75	20
76	48
77	557
78	89
81	51
82	18
83	35
85	5
88	7
89	31
90	6
91	24
92	12
93	57
94	12
96	12
97	99
98	8
99	32
100	5
102	35
103	13
104	14
105	999
106	75
109	50
111	37
113	34
114	60
115	35
116	45
117	14
121	16
125	37
126	25
127	47
128	5
129	22
130	87
131	16
132	8
133	11
134	7
135	5
136	16
137	15
138	10
139	6
141	25
142	5
143	6
144	5
145	82
146	14
147	5
148	6
149	24
150	7
159	57
160	7
161	24
162	20
164	8
169	8
170	52
171	7
172	7
174	7
177	181
178	20
179	15
188	8
208	16
240	5
283	5
285	18
313	101
314	13
