Mass spectrum: (3R)-3-Methylheptyl pivalate; GC-EI-TOF; MS; positive; EI; 70 V
Name: (3R)-3-Methylheptyl pivalate
Class: Non-natural product
Formula: C13H26O2
Exact mass: 214.19328
SMILES: CCCC[C@@H](C)CCOC(=O)C(C)(C)C
InChI: InChI=1S/C13H26O2/c1-6-7-8-11(2)9-10-15-12(14)13(3,4)5/h11H,6-10H2,1-5H3/t11-/m1/s1
Instrument: JMS-T100GCV (JEOL, Akishima, Japan) coupled to Agilent 7890A (Agilent, Wilmington, USA) gas chromatograph.
Instrument type: GC-EI-TOF
Ms type: MS
Ion mode: POSITIVE
Ionization: EI
Column name: HP-5 19091 J-413 USD364547H (Agilent, Wilmington, USA), length 30 m, I.D. 0.32 mm, thickness 0.25 micrometer.
Retention time: 7.46 min.
m/z	relative intensity
20.015	5
27.024	52
28.006	163
28.031	18
29.003	9
29.039	188
30.043	5
31.019	5
31.990	18
38.003	3
39.024	56
39.963	4
40.028	13
41.039	380
41.322	1
42.047	70
43.019	9
43.055	229
43.146	1
43.990	11
44.026	2
44.059	8
44.998	4
45.034	4
46.006	4
48.985	3
53.039	14
54.047	10
55.055	175
55.115	2
56.063	241
56.124	3
57.034	3
57.071	999
57.444	2
57.701	2
57.984	1
58.041	1
58.074	48
59.050	8
65.040	2
67.055	11
68.063	8
69.034	5
69.071	79
70.042	13
70.078	474
70.444	1
70.494	1
71.050	11
71.086	166
71.203	1
72.090	9
73.029	3
79.056	2
81.070	5
82.078	9
83.086	73
83.953	2
84.094	78
84.169	1
85.066	71
85.101	26
86.070	5
86.105	1
87.045	6
91.055	2
95.087	2
97.102	10
103.076	138
104.080	8
111.117	10
112.125	157
113.130	21
129.092	11
130.096	2
157.123	13
