Mass spectrum: Quinoclamine; ESI-QTOF; MS; NEGATIVE
Name: Quinoclamine
Class: Non-natural product
Formula: C10H6ClNO2
Exact mass: 207.0087
SMILES: c1ccc2c(c1)C(=O)C(=C(C2=O)Cl)N
InChI: InChI=1S/C10H6ClNO2/c11-7-8(12)10(14)6-4-2-1-3-5(6)9(7)13/h1-4H,12H2
Instrument: X500R QTOF (AB Sciex LLC, USA)
Instrument type: ESI-QTOF
Ms type: MS
Ion mode: NEGATIVE
Ionization: ESI
m/z	relative intensity
149.06	230
157.1226	63
171.1381	82
199.1693	58
206	999
206.9844	235
207.0041	169
207.9972	369
208.9816	84
212.0739	84
218.1664	90
219.174	148
220.1456	167
223.0271	58
227.2003	88
241.216	56
253.2159	76
255.2315	227
281.2471	75
