Mass spectrum: Azaconazole; GC-EI-Q; MS; Positive; M+*
Name: Azaconazole
Class: Non-Natural Product; Pesticides
Formula: C12H11Cl2N3O2
Exact mass: 299.02283
SMILES: Clc(c3)cc(Cl)c(c3)C(O2)(OCC2)Cn(c1)ncn1
InChI: InChI=1S/C12H11Cl2N3O2/c13-9-1-2-10(11(14)5-9)12(18-3-4-19-12)6-17-8-15-7-16-17/h1-2,5,7-8H,3-4,6H2
Instrument: GCMS-QP2010 Plus, Shimadzu
Instrument type: GC-EI-Q
Ms type: MS
Ion mode: POSITIVE
Ionization: EI
Column name: Ptx-5MS(RESTEK), 0.32 mm I.D. x 30 m, df=0.25 microm
Retention time: 13.4 min
Ion type: [M]+*
Precursor m/z: 299.02
m/z	relative intensity
40	8
42	43
43	16
44	15
45	5
50	23
51	7
52	5
53	8
55	85
58	5
60	8
61	6
62	6
63	11
67	6
71	9
73	21
74	46
75	69
82	62
84	10
85	16
86	396
87	34
88	6
89	15
91	7
96	5
97	11
99	29
100	9
101	13
102	5
103	8
106	5
107	5
108	88
109	70
110	48
111	26
112	6
113	7
115	4
123	31
124	9
125	23
135	7
136	16
137	11
138	77
139	15
140	25
145	164
146	11
147	132
149	25
159	44
161	14
172	7
173	684
174	60
175	422
176	29
177	73
178	5
182	21
183	7
184	13
186	7
217	999
218	102
219	695
220	62
221	98
222	9
262	11
264	13
281	7
