Mass spectrum: Diethanolamine; FAB-BE; MS; Negative; Matrix Diethanolamine
Name: Diethanolamine
Name: 2,2'-Dihydroxydiethylamine
Class: Non-Natural Product
Formula: C4H11NO2
Exact mass: 105.07898
SMILES: OCCNCCO
InChI: InChI=1S/C4H11NO2/c6-3-1-5-2-4-7/h5-7H,1-4H2
Instrument: JMS-700, JEOL
Instrument type: FAB-BE
Ms type: MS
Ion mode: NEGATIVE
Ionization: FAB
m/z	relative intensity
16	7
17	24
25	10
26	70
40	6
41	18
42	17
43	42
45	10
54	7
56	31
57	11
58	10
59	6
68	7
70	18
72	25
74	13
84	13
86	35
87	15
88	28
100	13
101	28
102	186
103	11
104	999
105	49
107	44
116	7
118	21
120	5
129	9
130	18
131	116
132	173
133	14
134	7
135	14
143	5
144	10
146	7
147	26
148	106
149	9
150	22
151	6
159	34
160	15
161	14
162	281
163	26
164	7
174	6
175	9
176	16
177	7
178	9
187	7
190	8
191	13
192	12
193	13
203	9
204	11
205	196
206	28
207	43
208	35
209	512
210	57
211	7
212	13
223	8
231	11
232	8
234	12
235	20
236	31
237	123
238	11
240	8
249	14
251	13
252	8
253	28
264	7
265	23
266	10
267	46
268	10
280	6
281	14
283	6
292	5
294	6
295	25
296	8
309	9
310	16
312	6
313	13
314	41
315	7
336	12
338	11
339	6
341	6
342	17
354	10
358	6
368	17
369	6
370	5
372	9
419	6
