Mass spectrum: (4R)-4-Methyloctanoic acid; GC-FI-TOF; MS; positive; FI; 10 kV
Name: (4R)-4-Methyloctanoic acid
Class: Non-natural product
Formula: C9H18O2
Exact mass: 158.13068
SMILES: CCCC[C@@H](C)CCC(=O)O
InChI: InChI=1S/C9H18O2/c1-3-4-5-8(2)6-7-9(10)11/h8H,3-7H2,1-2H3,(H,10,11)/t8-/m1/s1
Instrument: JMS-T100GCV (JEOL, Akishima, Japan) coupled to Agilent 7890A (Agilent, Wilmington, USA) gas chromatograph.
Instrument type: GC-FI-TOF
Ms type: MS
Ion mode: POSITIVE
Ionization: FI
Column name: HP-5 19091 J-413 USD364547H (Agilent, Wilmington, USA), length 30.0 m, I.D. 0.32 mm, thickness 0.25 micrometer.
Retention time: 7.05 min.
m/z	relative intensity
29.040	65
35.092	13
41.288	13
52.922	14
64.438	14
69.339	13
99.118	45
101.059	156
112.241	15
122.111	23
129.092	28
129.231	13
130.101	16
141.128	22
157.123	31
158.131	999
159.136	238
160.141	27
224.928	14
299.311	15
