Mass spectrum: Acetyl-L-carnitine; ESI-QTOF; MS; POSITIVE
Name: Acetyl-L-carnitine
Class: Saturated fatty acyl-L-carnitine
Formula: C9H17NO4
Exact mass: 203.11576
SMILES: CC(=O)O[C@H](CC(=O)[O-])C[N+](C)(C)C
InChI: InChI=1S/C9H17NO4/c1-7(11)14-8(5-9(12)13)6-10(2,3)4/h8H,5-6H2,1-4H3/t8-/m1/s1
Instrument: X500R QTOF (AB Sciex LLC, USA)
Instrument type: ESI-QTOF
Ms type: MS
Ion mode: POSITIVE
Ionization: ESI
m/z	relative intensity
167.0308	357
204.1219	999
205.1261	62
226.1042	619
