Mass spectrum: L-Ornithine; ESI-QTOF; MS2; POSITIVE; [M+H]+; CID; 60 V
Name: L-Ornithine
Class: Non-proteinogenic L-alpha-amino acid
Formula: C5H12N2O2
Exact mass: 132.08987
SMILES: C(C[C@@H](C(=O)O)N)CN
InChI: InChI=1S/C5H12N2O2/c6-3-1-2-4(7)5(8)9/h4H,1-3,6-7H2,(H,8,9)/t4-/m0/s1
Instrument: X500R QTOF (AB Sciex LLC, USA)
Instrument type: ESI-QTOF
Ms type: MS2
Ion mode: POSITIVE
Collision energy: 60 V
Fragmentation mode: CID
Ionization: ESI
Precursor m/z: 133.09715
Precursor type: [M+H]+
m/z	relative intensity	assigned
30.0337	303	[CH5N-H]+
31.9894	31	
33.0335	9	
37.0073	11	
38.0152	12	[C3H8-6H]+
39.023	161	[C3H8-5H]+
41.0386	246	[C3H8-3H]+
42.0339	180	
43.0054	19	[C2H4O-H]+
43.0179	35	
43.0418	33	
43.0542	192	[C3H8-H]+
44.0496	45	
44.9972	9	
53.0388	53	[C4H10-5H]+
54.0341	11	
68.0498	117	
70.0651	999	[C4H11N-3H]+
