Mass spectrum: 6-((4-Methoxybenzyl)oxy)-5,5-dimethylnona-1,8-dien-4-ol; GC-EI-TOF; MS; positive; EI; 70 V
Name: 6-((4-Methoxybenzyl)oxy)-5,5-dimethylnona-1,8-dien-4-ol
Class: Non-natural product
Formula: C19H28O3
Exact mass: 304.20385
SMILES: COC1=CC=C(COC(CC=C)C(C)(C)C(O)CC=C)C=C1
InChI: InChI=1S/C19H28O3/c1-6-8-17(20)19(3,4)18(9-7-2)22-14-15-10-12-16(21-5)13-11-15/h6-7,10-13,17-18,20H,1-2,8-9,14H2,3-5H3
Instrument: JMS-T100GCV (JEOL, Akishima, Japan) coupled to Agilent 7890A (Agilent, Wilmington, USA) gas chromatograph.
Instrument type: GC-EI-TOF
Ms type: MS
Ion mode: POSITIVE
Ionization: EI
Column name: HP-5 19091 J-413 USD364547H (Agilent, Wilmington, USA), length 30 m, I.D. 0.32 mm, thickness 0.25 micrometer.
Retention time: 10.86 min.
m/z	relative intensity
27.024	11
28.006	40
29.003	4
29.039	5
31.990	15
39.024	16
41.040	55
42.047	8
43.019	19
43.055	44
45.035	4
51.024	7
52.032	6
53.040	9
55.055	18
57.035	8
63.025	3
65.040	9
67.055	6
69.034	4
69.071	4
70.042	3
71.050	18
72.057	5
77.040	39
78.047	39
79.054	8
81.071	13
89.040	9
90.047	11
91.055	22
92.027	2
92.060	3
94.042	5
95.086	2
96.093	3
105.034	3
106.042	7
107.050	12
108.056	2
109.066	12
109.102	18
121.065	999
121.459	2
121.609	3
122.070	120
122.388	2
122.463	1
123.073	8
134.074	2
135.045	6
136.051	3
137.060	74
138.068	62
139.071	6
147.081	4
150.069	3
150.140	3
164.084	2
191.107	19
192.111	3
234.162	3
