Mass spectrum: Crassostreaxanthin A; LC-ESI-QTOF; MS2; POSITIVE; ESI; [M+Na]+; COLLISION_ENERGY 20 V.
Name: Crassostreaxanthin A
Class: Natural products; Carotenoids, Xanthophyll
Formula: C40H54O4
Exact mass: 598.4022
SMILES: C[C@@H]1C[C@@H](O[C@@]1(C)CC(=O)/C(=C/C=C/C(=C/C=C/C=C(\C)/C=C/C=C(\C)/C#CC2=C(C[C@H](CC2(C)C)O)C)/C)/C)CC(=O)C
InChI: InChI=1S/C40H54O4/c1-28(17-13-18-30(3)21-22-37-32(5)23-35(42)26-39(37,8)9)15-11-12-16-29(2)19-14-20-31(4)38(43)27-40(10)33(6)24-36(44-40)25-34(7)41/h11-20,33,35-36,42H,23-27H2,1-10H3/b12-11+,17-13+,19-14+,28-15+,29-16+,30-18+,31-20+/t33-,35-,36-,40+/m1/s1
Instrument: Xevo G2-S QtOF, Waters (USA) coupled to ACQUITY UPLC, Waters (USA).
Instrument type: LC-ESI-QTOF
Ms type: MS2
Ion mode: POSITIVE
Collision energy: 20 V
Ionization: ESI
Column name: BEH C18, I.D. 2.1 mm, length 100 mm, thickness 1.7 micrometer.
Ion type: [M+Na]+
Precursor m/z: 621.3914
m/z	relative intensity
621.394	999
622.399	449
623.398	64
