Mass spectrum: Thidiazuron; LC-ESI-QTOF; MS2; [M-H]-; CID; CE 40V
Name: Thidiazuron
Class: Non-natural product
Formula: C9H8N4OS
Exact mass: 220.041882
SMILES: C1=CC=C(C=C1)NC(=O)NC2=CN=NS2
InChI: InChI=1S/C9H8N4OS/c14-9(12-8-6-10-13-15-8)11-7-4-2-1-3-5-7/h1-6H,(H2,11,12,14)
Instrument: X500R QTOF (AB Sciex LLC, MA, USA) coupled to ExionLC AD (AB Sciex LLC, MA, USA).
Instrument type: LC-ESI-QTOF
Ms type: MS2
Ion mode: NEGATIVE
Collision energy: 40 V
Fragmentation mode: CID
Ionization: ESI
Column name: AQ-C18HP 3 microm, 2.1 mm Ã— 150 mm (GL Science, Tokyo, Japan).
Retention time: 21.5 min
Precursor m/z: 219.034605
Precursor type: [M-H]-
m/z	relative intensity
70.9837	999
71.9914	102
92.0512	22
99.9976	357
