Mass spectrum: Tralkoxydim; LC-ESI-QTOF; MS2; ESI; POSITIVE; CE 60 V
Name: Tralkoxydim
Class: Non-natural product
Formula: C20H27NO3
Exact mass: 329.19909
SMILES: CCON=C(CC)C1=C(O)CC(c2c(C)cc(C)cc2C)CC1=O
InChI: InChI=1S/C20H27NO3/c1-6-16(21-24-7-2)20-17(22)10-15(11-18(20)23)19-13(4)8-12(3)9-14(19)5/h8-9,15,22H,6-7,10-11H2,1-5H3
Instrument: ExionLC AD, AB Sciex LLC, USA; X500R QTOF, AB Sciex LLC, USA.
Instrument type: LC-ESI-QTOF
Ms type: MS2
Ion mode: POSITIVE
Collision energy: 60 V
Ionization: ESI
Column name: AQ-C18HP 3 microm, 2.1 mm Ã— 150 mm, GL Science (Tokyo Japan)
Retention time: 11.25, 11.54 min
Precursor m/z: 330.20637
Precursor type: [M+H]+
m/z	relative intensity
30.0341	128
39.0234	140
41.039	116
42.034	130
43.0181	229
44.0497	194
53.0389	67
56.0498	178
65.0392	76
67.0185	186
67.0425	69
68.0502	447
72.0449	834
77.0387	160
79.0548	84
82.0656	193
91.055	211
94.0663	172
96.0449	999
98.0607	920
103.0554	81
105.0708	470
110.0611	122
111.0683	75
115.055	165
117.0709	113
128.0631	151
129.0704	186
130.0783	153
133.1018	236
135.0443	100
143.0858	107
165.0701	99
167.0865	78
192.0936	142
