Mass spectrum: rac-(2R,5R)-2-((S)-2-acetoxybut-3-en-1-yl)-5-(acetoxymethyl)tetrahydrofuran; GC-FI-TOF; MS; POSITIVE; FI; 10 kV
Name: rac-(2R,5R)-2-((S)-2-acetoxybut-3-en-1-yl)-5-(acetoxymethyl)tetrahydrofuran
Class: Non-natural compound
Formula: C13H20O5
Exact mass: 256.13108
SMILES: C=C[C@H](C[C@H]1CC[C@H](COC(C)=O)O1)OC(C)=O
InChI: InChI=1S/C13H20O5/c1-4-11(17-10(3)15)7-12-5-6-13(18-12)8-16-9(2)14/h4,11-13H,1,5-8H2,2-3H3/t11-,12-,13-/m1/s1
Instrument: JMS-T100GCV (JEOL, Akishima, Japan) coupled to Agilent 7890A gas chromatograph.
Instrument type: GC-FI-TOF
Ms type: MS
Ion mode: POSITIVE
Ionization: FI
Column name: ZB-1MS 7HM-G011-11 sn:313446, length 30.0 m, I.D. 0.32 mm, thickness 0.25 micrometer.
Retention time: 9.02 min.
m/z	relative intensity
30.011	34
43.019	342
73.03	33
99.044	23
123.081	10
136.087	75
137.093	15
143.071	111
144.075	10
152.081	24
154.097	14
178.097	15
183.102	999
183.288	7
184.105	114
185.105	17
195.102	7
196.109	458
197.113	77
198.114	11
213.109	21
214.117	55
215.118	9
238.118	32
255.122	33
256.131	139
257.137	129
258.142	17
