Mass spectrum: (4R)-4-Methyl-6-pivaloyloxyhexanal; GC-FI-TOF; MS; positive; FI; 10 kV
Name: (4R)-4-Methyl-6-pivaloyloxyhexanal
Class: Non-natural product
Formula: C12H22O3
Exact mass: 214.15690
SMILES: O=CCC[C@@H](C)CCOC(=O)C(C)(C)C
InChI: InChI=1S/C12H22O3/c1-10(6-5-8-13)7-9-15-11(14)12(2,3)4/h8,10H,5-7,9H2,1-4H3/t10-/m1/s1
Instrument: JMS-T100GCV (JEOL, Akishima, Japan) coupled to Agilent 7890A (Agilent, Wilmington, USA) gas chromatograph.
Instrument type: GC-FI-TOF
Ms type: MS
Ion mode: POSITIVE
Ionization: FI
Column name: HP-5 19091 J-413 USD364547H (Agilent, Wilmington, USA), length 30.0 m, I.D. 0.32 mm, thickness 0.25 micrometer.
Retention time: 8.04 min.
m/z	relative intensity
44.025	10
57.070	999
57.392	4
58.073	39
85.066	125
86.069	9
95.086	13
107.082	6
112.089	23
113.096	30
211.134	11
213.147	38
214.157	278
215.164	395
216.166	46
