Mass spectrum: Malic acid-[3-13C]; GC-EI-QQ; MS2; POSITIVE; CID 5 V; 3 TBDMS-derivative; [M-57]+
Name: Malic acid-[3-13C]
Class: In vitro synthetic compound
Formula: C4H6O5
Exact mass: 134.02153
SMILES: C(C(C(=O)O)O)C(=O)O
InChI: InChI=1S/C4H6O5/c5-2(4(8)9)1-3(6)7/h2,5H,1H2,(H,6,7)(H,8,9)/i1+1
Instrument: GCMS-TQ8040 (Shimadzu, Kyoto, Japan)
Instrument type: GC-EI-QQ
Ms type: MS2
Ion mode: POSITIVE
Collision energy: 5 V
Fragmentation mode: CID
Column name: DB-5MS+DG (Agilent Technologies, Santa Clara, CA, USA)
Derivative form: C22H48O5Si3
Derivative mass: 476.28095
Derivative type: 3 TBDMS
Precursor m/z: 420.21334
m/z	relative intensity	assigned
56.1	25	
73	239	
115.1	999	
132.7	43	
147.15	252	
159.25	30	
189.15	472	
190.95	17	
214.05	73	
218.3	114	C8(13C)H21O2Si2+
246.3	12	
288.05	103	
348.25	160	
349.2	14	C15H37O3Si3+
376.45	26	
392.4	159	C16(13C)H39O4Si3+
404.1	76	
420.1	336	
