Mass spectrum: Methyl [(1R)-1,2-dimethyl-3-methylenecyclopentyl]acetate; GC-EI-TOF; MS; positive; EI; 70 V
Name: Methyl [(1R)-1,2-dimethyl-3-methylenecyclopentyl]acetate
Class: Non-natural product
Formula: C11H18O2
Exact mass: 182.13068
SMILES: COC(=O)C[C@@]1(C)CCC(=C)C1C
InChI: InChI=1S/C11H18O2/c1-8-5-6-11(3,9(8)2)7-10(12)13-4/h9H,1,5-7H2,2-4H3/t9?,11-/m1/s1
Instrument: JMS-T100GCV (JEOL, Akishima, Japan) coupled to Agilent 7890A (Agilent, Wilmington, USA) gas chromatograph.
Instrument type: GC-EI-TOF
Ms type: MS
Ion mode: POSITIVE
Ionization: EI
Column name: HP-5 19091 J-413 USD364547H (Agilent, Wilmington, USA), length 30 m, I.D. 0.32 mm, thickness 0.25 micrometer.
Retention time: 7.16 min.
m/z	relative intensity
26.016	2
27.024	55
27.067	1
28.006	39
28.031	11
29.003	5
29.040	44
29.084	1
30.011	1
30.043	1
31.019	5
31.990	13
33.035	2
38.016	2
39.024	92
39.113	1
40.031	28
41.040	161
42.011	10
42.046	12
43.019	26
43.055	25
44.025	2
44.999	1
45.034	7
50.017	5
51.024	20
52.032	12
53.040	85
54.046	13
55.019	3
55.055	68
56.061	4
57.034	2
57.070	3
59.014	42
59.050	5
60.019	1
63.024	5
64.031	2
65.040	34
66.047	11
67.055	148
68.062	38
68.128	1
69.034	3
69.071	42
69.141	0
70.075	2
71.050	4
72.057	2
73.066	11
74.037	11
75.045	7
76.040	1
77.040	78
78.046	14
79.055	92
79.179	1
80.061	15
81.035	3
81.071	71
82.042	5
82.076	8
83.050	7
83.085	1
85.066	4
86.073	2
87.046	1
89.040	1
91.055	111
91.334	1
92.061	16
93.071	534
93.547	1
93.873	1
94.075	49
94.589	1
95.050	3
95.086	96
95.224	1
95.496	1
95.598	1
96.057	2
96.090	9
97.065	3
99.044	1
99.081	4
103.056	4
104.063	2
105.071	18
106.078	10
107.086	120
108.094	999
108.467	2
108.609	3
109.101	475
109.435	1
109.616	1
110.105	36
110.193	1
111.081	2
113.061	3
114.068	3
115.062	1
117.069	1
119.087	1
121.066	2
121.102	5
122.073	1
122.109	11
123.117	21
124.121	2
125.060	5
125.097	4
126.067	1
133.101	1
135.081	7
136.084	1
139.076	2
141.091	1
150.104	7
151.112	44
151.203	1
152.115	5
153.092	3
167.107	16
168.111	2
182.131	5
