Mass spectrum: 1-Stearoyl-2-oleoyl-sn-glycero-3-phosphocholine; MALDI-QITTOF; MS2; POSITIVE; [M+H]+; HAD
Name: PC 18:0/18:1(9Z)
Name: 1-Stearoyl-2-oleoyl-sn-glycero-3-phosphocholine
Class: Natural product; Phospholipid
Formula: C44H86NO8P
Exact mass: 787.6091
SMILES: CCCCCCCCCCCCCCCCCC(=O)OC[C@H](COP(=O)([O-])OCC[N+](C)(C)C)OC(=O)CCCCCCC/C=C\CCCCCCCC
InChI: InChI=1S/C44H86NO8P/c1-6-8-10-12-14-16-18-20-22-24-26-28-30-32-34-36-43(46)50-40-42(41-52-54(48,49)51-39-38-45(3,4)5)53-44(47)37-35-33-31-29-27-25-23-21-19-17-15-13-11-9-7-2/h21,23,42H,6-20,22,24-41H2,1-5H3/b23-21-/t42-/m1/s1
Instrument: MALDI-QITTOF noncommercial prototype model (Shimadzu Corporation, Kyoto, Japan)
Instrument type: MALDI-QITTOF
Ms type: MS2
Ion mode: POSITIVE
Fragmentation mode: HAD
Ionization: MALDI
Ion type: [M+H]+
Precursor m/z: 788.6164
m/z	relative intensity
184.073	999
222.09	631
238.087	24
239.09	33
240.1	72
249.104	21
281.103	26
282.115	45
287.139	27
290.145	24
341.129	136
354.134	49
448.323	67
450.335	57
480.332	23
502.336	31
503.339	42
504.343	181
505.354	254
506.361	334
510.943	34
522.356	61
524.377	158
526.904	24
550.351	31
552.371	28
562.359	68
563.365	83
564.373	113
565.381	268
576.372	75
578.39	280
590.417	23
592.418	30
607.417	21
620.438	55
632.435	26
633.437	25
634.455	97
648.466	37
660.463	104
663.47	48
666.477	35
667.475	124
669.475	51
673.476	34
674.48	131
688.493	104
691.517	24
702.519	63
730.544	72
744.558	41
757.592	21
758.569	20
