Mass spectrum: Cumyluron; ESI-QTOF; MS2; POSITIVE; [M+H]+; CID; 80 V
Name: Cumyluron
Class: Non-natural product
Formula: C17H19ClN2O
Exact mass: 302.1186
SMILES: CC(C)(c1ccccc1)NC(=O)NCc2ccccc2Cl
InChI: InChI=1S/C17H19ClN2O/c1-17(2,14-9-4-3-5-10-14)20-16(21)19-12-13-8-6-7-11-15(13)18/h3-11H,12H2,1-2H3,(H2,19,20,21)
Instrument: X500R QTOF (AB Sciex LLC, USA)
Instrument type: ESI-QTOF
Ms type: MS2
Ion mode: POSITIVE
Collision energy: 80 V
Fragmentation mode: CID
Ionization: ESI
Precursor m/z: 303.1259
Precursor type: [M+H]+
m/z	relative intensity
39.0231	49
41.0387	57
63.0232	99
65.0389	299
72.9843	47
77.0389	55
89.039	470
90.0468	175
91.0546	999
99.0001	230
125.0158	448
