Mass spectrum: (5R,11S)-5,11-Dimethyl-8-pentacosanol; GC-EI-TOF; MS; positive; EI; 70 V
Name: (5R,11S)-5,11-Dimethyl-8-pentacosanol
Class: Non-natural product
Formula: C27H56O
Exact mass: 396.43312
SMILES: C[C@H](CCCC)CCC(O)CC[C@@H](C)CCCCCCCCCCCCCC
InChI: InChI=1S/C27H56O/c1-5-7-9-10-11-12-13-14-15-16-17-18-20-26(4)22-24-27(28)23-21-25(3)19-8-6-2/h25-28H,5-24H2,1-4H3/t25-,26+,27?/m1/s1
Instrument: JMS-T100GCV (JEOL, Akishima, Japan) coupled to Agilent 7890A (Agilent, Wilmington, USA) gas chromatograph.
Instrument type: GC-EI-TOF
Ms type: MS
Ion mode: POSITIVE
Ionization: EI
Column name: HP-5 19091 J-413 USD364547H (Agilent, Wilmington, USA), length 30 m, I.D. 0.32 mm, thickness 0.25 micrometer.
Retention time: 12.37 min.
m/z	relative intensity
27.024	21
28.006	15
28.032	6
29.040	85
31.019	5
31.990	6
39.025	16
40.031	6
41.040	272
41.088	4
42.047	52
43.019	15
43.056	641
43.148	4
44.027	14
44.059	20
45.034	14
53.040	12
54.048	22
55.055	497
55.112	5
55.158	3
56.063	373
57.035	52
57.071	759
58.042	38
58.074	31
59.050	13
67.055	76
68.063	42
69.071	999
69.139	10
69.428	3
69.487	3
70.040	4
70.078	203
71.050	23
71.086	290
71.154	4
72.058	9
72.090	15
73.048	20
79.056	10
80.063	10
81.071	114
82.078	99
83.051	4
83.086	683
83.216	4
84.092	92
84.174	3
85.066	34
85.102	210
85.162	3
86.106	13
87.081	7
95.086	96
96.094	48
97.102	424
97.245	3
98.109	101
99.117	83
100.120	6
101.097	7
109.102	33
110.109	18
111.118	222
111.206	3
112.124	52
113.132	27
114.138	4
123.117	17
124.125	17
125.133	235
126.138	27
127.149	16
133.015	4
135.064	6
137.134	6
138.141	7
139.149	44
140.155	15
141.164	11
142.136	48
143.144	427
143.315	3
144.148	40
153.164	20
154.172	14
155.179	8
157.159	5
167.181	12
168.189	6
169.195	6
180.188	10
181.196	20
182.203	19
183.209	8
191.002	6
195.211	10
196.219	17
197.225	8
207.033	42
208.035	9
209.032	5
209.228	5
210.234	16
211.239	3
222.235	17
223.242	44
224.249	20
225.256	9
238.266	43
239.271	18
252.282	11
253.017	8
264.282	9
265.288	12
281.052	11
281.286	4
283.300	323
284.303	64
285.308	6
320.339	3
321.352	9
322.361	4
331.067	3
336.374	6
341.020	5
342.014	2
350.389	10
351.396	4
378.422	94
379.426	26
380.427	4
429.089	4
