Mass spectrum: 3-((4-Methoxybenzyl)oxy)-2,2-dimethylhex-5-enol; GC-FI-TOF; MS; positive; FI; 10 kV
Name: 3-((4-Methoxybenzyl)oxy)-2,2-dimethylhex-5-enol
Class: Non-natural product
Formula: C16H24O3
Exact mass: 264.17255
SMILES: COC1=CC=C(COC(CC=C)C(C)(C)CO)C=C1
InChI: InChI=1S/C16H24O3/c1-5-6-15(16(2,3)12-17)19-11-13-7-9-14(18-4)10-8-13/h5,7-10,15,17H,1,6,11-12H2,2-4H3
Instrument: JMS-T100GCV (JEOL, Akishima, Japan) coupled to Agilent 7890A (Agilent, Wilmington, USA) gas chromatograph.
Instrument type: GC-FI-TOF
Ms type: MS
Ion mode: POSITIVE
Ionization: FI
Column name: HP-5 19091 J-413 USD364547H (Agilent, Wilmington, USA), length 30.0 m, I.D. 0.32 mm, thickness 0.25 micrometer.
Retention time: 10.28 min.
m/z	relative intensity
150.05	9
164.067	9
191.091	28
192.097	6
222.124	6
223.134	6
264.173	999
264.885	3
265.176	170
265.312	3
266.178	19
