Mass spectrum: 2-Methylcyclopent-2-en-1-ol; GC-EI-TOF; MS; positive; EI; 70 V
Name: 2-Methylcyclopent-2-en-1-ol
Class: Non-natural product
Formula: C6H10O
Exact mass: 98.07317
SMILES: CC1=CCCC1O
InChI: InChI=1S/C6H10O/c1-5-3-2-4-6(5)7/h3,6-7H,2,4H2,1H3
Instrument: JMS-T100GCV (JEOL, Akishima, Japan) coupled to Agilent 7890A (Agilent, Wilmington, USA) gas chromatograph.
Instrument type: GC-EI-TOF
Ms type: MS
Ion mode: POSITIVE
Ionization: EI
Column name: HP-5 19091 J-413 USD364547H (Agilent, Wilmington, USA), length 30 m, I.D. 0.32 mm, thickness 0.25 micrometer.
Retention time: 2.52 min.
m/z	relative intensity
26.016	38
27.023	288
27.065	3
28.006	22
28.031	67
29.003	85
29.039	102
29.082	2
30.010	6
30.045	4
31.018	46
31.990	14
37.008	17
38.016	52
39.024	425
40.031	55
41.039	435
42.011	22
42.046	63
43.018	320
43.055	25
44.026	33
45.034	14
47.021	6
47.525	4
48.029	4
49.008	6
50.016	69
51.024	110
51.082	1
52.031	53
53.003	9
53.039	173
53.092	2
54.046	44
55.019	111
55.055	303
55.160	2
56.026	47
56.061	32
57.034	63
57.065	2
58.042	15
61.008	6
62.016	14
63.024	29
64.031	5
65.039	57
66.047	20
67.055	59
68.027	5
68.061	8
69.034	89
69.071	94
69.133	2
70.042	101
70.075	9
70.109	2
71.049	19
74.016	6
77.039	100
78.046	19
79.055	212
79.186	2
80.062	47
81.035	15
81.070	48
82.042	10
82.074	3
83.050	999
83.499	3
83.814	2
84.053	57
84.183	2
95.050	13
96.058	12
97.066	418
98.073	492
98.266	2
98.565	2
99.077	31
100.078	2
