Mass spectrum: Trigonelline; ESI-QTOF; MS2; POSITIVE; [M+H]+; CID; 40 V
Name: Trigonelline
Class: Alkaloid
Formula: C7H7NO2
Exact mass: 137.04768
SMILES: C[N+]1=CC=CC(=C1)C(=O)[O-]
InChI: InChI=1S/C7H7NO2/c1-8-4-2-3-6(5-8)7(9)10/h2-5H,1H3
Instrument: X500R QTOF (AB Sciex LLC, USA)
Instrument type: ESI-QTOF
Ms type: MS2
Ion mode: POSITIVE
Collision energy: 40 V
Fragmentation mode: CID
Ionization: ESI
Precursor m/z: 138.05495
Precursor type: [M+H]+
m/z	relative intensity	assigned
27.0228	163	
39.0228	308	
41.0385	519	
42.0338	458	
44.997	38	[CHO2]+
45.0334	39	
51.0229	225	
52.0307	175	
53.0385	824	
65.0386	999	
66.034	152	
66.0462	136	
67.0423	97	
67.0542	176	
78.0339	644	[C5H6N-2H]+
79.0417	434	
80.0495	82	
92.0495	751	[C6H8N-2H]+
93.0573	297	
94.0651	438	[C6H8N]+
