Mass spectrum: Citric acid-[1,2,3,4,5,6-13C6]; GC-EI-QQ; MS2; POSITIVE; CID 10 V; 4 TBDMS-derivative; [M-189]+
Name: Citric acid-[1,2,3,4,5,6-13C6]
Class: In vitro synthetic compound
Formula: C6H8O7
Exact mass: 192.02701
SMILES: OC(=O)CC(O)(CC(O)=O)C(O)=O
InChI: InChI=1S/C6H8O7/c7-3(8)1-6(13,5(11)12)2-4(9)10/h13H,1-2H2,(H,7,8)(H,9,10)(H,11,12)/i1+1,2+1,3+1,4+1,5+1,6+1
Instrument: GCMS-TQ8040 (Shimadzu, Kyoto, Japan)
Instrument type: GC-EI-QQ
Ms type: MS2
Ion mode: POSITIVE
Collision energy: 10 V
Fragmentation mode: CID
Column name: DB-5MS+DG (Agilent Technologies, Santa Clara, CA, USA)
Derivative form: C30H64O7Si4
Derivative mass: 648.372913
Derivative type: 4 TBDMS
Precursor m/z: 465.22502
m/z	relative intensity	assigned
71.05	30	
73.1	662	
74.05	11	
115.1	385	
133.15	23	
147.1	999	
148.15	26	
149.1	175	
189.2	160	
191.2	15	
258.05	16	
259.1	353	
304	17	C8(13C5)H23O4Si2+
333.15	121	
335.25	18	
351.1	10	
391.2	101	
420.5	11	
465.1	282	
