Mass spectrum: Cyanoguanidine; ESI-QTOF; MS; ESI; NEGATIVE
Name: Cyanoguanidine
Class: Non-natural product
Formula: C2H4N4
Exact mass: 84.04358
SMILES: N#CNC(=N)N
InChI: InChI=1S/C2H4N4/c3-1-6-2(4)5/h(H4,4,5,6)
Instrument: X500R QTOF (AB Sciex LLC, USA)
Instrument type: ESI-QTOF
Ms type: MS
Ion mode: NEGATIVE
Ionization: ESI
m/z	relative intensity
83.0363	999
119.013	65
121.0101	24
