Mass spectrum: Hexaflumuron; LC-ESI-QTOF; MS2; ESI; NEGATIVE; CE 30 V
Name: Hexaflumuron
Class: Non-natural product
Formula: C16H8Cl2F6N2O3
Exact mass: 459.98161
SMILES: O=C(NC(=O)c1c(F)cccc1F)Nc1cc(Cl)c(OC(F)(F)C(F)F)c(Cl)c1
InChI: InChI=1S/C16H8Cl2F6N2O3/c17-7-4-6(5-8(18)12(7)29-16(23,24)14(21)22)25-15(28)26-13(27)11-9(19)2-1-3-10(11)20/h1-5,14H,(H2,25,26,27,28)
Instrument: ExionLC AD, AB Sciex LLC, USA; X500R QTOF, AB Sciex LLC, USA.
Instrument type: LC-ESI-QTOF
Ms type: MS2
Ion mode: NEGATIVE
Collision energy: 30 V
Ionization: ESI
Column name: AQ-C18HP 3 microm, 2.1 mm Ã— 150 mm, GL Science (Tokyo Japan)
Retention time: 15.0 min
Precursor m/z: 458.97433
Precursor type: [M-H]-
m/z	relative intensity
34.9689	13
41.9978	425
96.9904	51
113.0203	34
116.9968	39
136.0203	51
156.0265	38
174.959	434
185.9512	47
199.9546	48
255.9549	128
258.0004	57
275.9603	971
284.987	93
293.977	91
300.9563	309
301.9893	432
395.9624	94
402.9909	146
438.9671	999
