Mass spectrum: Nordiazepam; LC-ESI-QQ; MS2; ESI; NEGATIVE; CID; CE 50 V; [M-H]-
Name: Nordiazepam
Class: Non-natural product
Formula: C15H11ClN2O
Exact mass: 270.055983
SMILES: C1C(=O)NC2=C(C=C(C=C2)Cl)C(=N1)C3=CC=CC=C3
InChI: InChI=1S/C15H11ClN2O/c16-11-6-7-13-12(8-11)15(17-9-14(19)18-13)10-4-2-1-3-5-10/h1-8H,9H2,(H,18,19)
Instrument: LCMS-8040 coupled to Nexera XR (Shimadzu, Kyoto, Japan).
Instrument type: LC-ESI-QQ
Ms type: MS2
Ion mode: NEGATIVE
Collision energy: 50 V
Fragmentation mode: CID
Ionization: ESI
Column name: InertSustain C18 ID 2.1 microm, 2.1 x 100 mm (GL Science, Tokyo, Japan).
Retention time: 9.417 min
Precursor m/z: 269.048706
Precursor type: [M-H]-
m/z	relative intensity
35.1	999
42.1	17
100.8	18
110.0	13
138.2	13
175.4	26
204.1	13
205.0	46
206.0	13
231.3	13
241.0	373
241.9	11
268.6	25
