Mass spectrum: p,p'-DDE; GC-EI-Q; MS; Positive
Name: p,p'-DDE
Class: Non-Natural Product; Pesticides
Formula: C14H8Cl4
Exact mass: 315.93801
SMILES: C1=CC(=CC=C1C(=C(Cl)Cl)C2=CC=C(C=C2)Cl)Cl
InChI: InChI=1S/C14H8Cl4/c15-11-5-1-9(2-6-11)13(14(17)18)10-3-7-12(16)8-4-10/h1-8H
Instrument: GCMS-QP2010 Plus, Shimadzu
Instrument type: GC-EI-Q
Ms type: MS
Ion mode: POSITIVE
Ionization: EI
Column name: Ptx-5MS(RESTEK), 0.32 mm I.D. x 30 m, df=0.25 microm
Retention time: 13.07 min
Ion type: [M]+*
Precursor m/z: 315.94
m/z	relative intensity
40	8
50	29
51	30
61	10
62	20
63	20
73	16
74	63
75	99
76	14
80	7
82	20
84	8
85	18
86	24
87	118
88	69
92	18
93	20
94	5
97	12
98	31
99	58
100	14
101	9
104	35
105	232
106	89
107	5
108	6
109	18
110	51
111	41
112	7
113	11
121	4
122	108
123	162
124	76
125	36
126	14
127	18
128	16
129	6
133	5
134	10
135	26
136	16
137	21
138	12
140	96
141	100
142	37
143	4
146	5
147	12
148	8
149	43
150	56
151	14
159	5
160	26
161	7
162	11
163	24
164	8
170	35
171	6
172	21
173	14
174	84
175	100
176	344
177	55
184	15
185	9
186	13
199	9
209	9
210	132
211	46
212	68
213	16
214	6
222	5
233	28
234	5
235	21
244	7
245	32
246	999
247	182
248	671
249	109
250	112
251	17
280	52
281	57
282	62
283	57
284	41
285	33
286	12
316	653
317	100
318	840
319	27
320	410
321	65
322	17
323	12
324	7
