Mass spectrum: Triethanolamine; FAB-BE; MS; Negative; Matrix Triethanolamine
Name: Triethanolamine
Class: Non-Natural Product
Formula: C6H15NO3
Exact mass: 149.10519
SMILES: OCCN(CCO)CCO
InChI: InChI=1S/C6H15NO3/c8-4-1-7(2-5-9)3-6-10/h8-10H,1-6H2
Instrument: JMS-700, JEOL
Instrument type: FAB-BE
Ms type: MS
Ion mode: NEGATIVE
Ionization: FAB
m/z	relative intensity
16	7
17	20
25	10
26	38
41	8
43	57
45	6
56	5
68	19
70	15
82	6
86	10
98	12
100	14
101	10
102	7
104	7
112	28
117	17
128	10
130	38
132	15
144	6
145	7
146	143
147	46
148	999
149	67
150	12
162	31
164	72
175	58
176	8
179	7
191	11
192	29
194	21
206	5
227	7
253	9
255	6
265	6
266	8
281	12
295	33
296	22
297	285
298	41
299	8
311	9
313	43
314	6
446	13
