Mass spectrum: alpha-Ketoglutaric acid-[1,2,3,4,5-13C5]; GC-EI-QQ; MS2; positive; CID 5 V; MEOX,2TMS-derivative; [M-31]+
Name: alpha-Ketoglutaric acid-[1,2,3,4,5-13C5]
Class: In vitro synthetic compound
Formula: C5H6O5
Exact mass: 146.02153
SMILES: OC(=O)C(=O)CCC(=O)O
InChI: InChI=1S/C5H6O5/c6-3(5(9)10)1-2-4(7)8/h1-2H2,(H,7,8)(H,9,10)/i1+1,2+1,3+1,4+1,5+1
Instrument: GCMS-TQ8040 (Shimadzu, Kyoto, Japan)
Instrument type: GC-EI-QQ
Ms type: MS2
Ion mode: POSITIVE
Collision energy: 5 V
Fragmentation mode: CID
Column name: DB-5MS+DG (Agilent Technologies, Santa Clara, CA, USA)
Derivative form: C12H25NO5Si2
Derivative mass: 319.12712
Derivative type: MEOX,2TMS
Precursor m/z: 293.12496
m/z	relative intensity	assigned
58.1	22	
73.05	97	
74.95	39	
147.05	999	
148.15	32	
149.05	484	
160.1	391	C2(13C4)H10NO2Si+
167.2	28	
174.25	16	
177.95	35	
190.1	46	C3(13C4)H12NO3Si+
203.1	14	
221.25	12	
232.8	39	
278.25	11	
309.2	396	
