Mass spectrum: (4R)-Ethyl 4-methylheptanoate; GC-EI-TOF; MS; positive; EI; 70 V
Name: (4R)-Ethyl 4-methylheptanoate
Class: Non-natural product
Formula: C10H20O2
Exact mass: 172.14638
SMILES: O=C(CC[C@H](C)CCC)OCC
InChI: InChI=1S/C10H20O2/c1-4-6-9(3)7-8-10(11)12-5-2/h9H,4-8H2,1-3H3/t9-/m1/s1
Instrument: JMS-T100GCV (JEOL, Akishima, Japan) coupled to Agilent 7890A (Agilent, Wilmington, USA) gas chromatograph.
Instrument type: GC-EI-TOF
Ms type: MS
Ion mode: POSITIVE
Ionization: EI
Column name: HP-5 19091 J-413 USD364547H (Agilent, Wilmington, USA), length 30 m, I.D. 0.32 mm, thickness 0.25 micrometer.
Retention time: 6.43 min.
m/z	relative intensity
26.016	10
27.023	200
27.065	2
28.006	17
28.031	63
28.052	1
29.003	11
29.039	427
29.060	3
29.083	4
29.144	1
29.248	1
29.277	1
29.306	1
29.489	1
30.010	2
30.044	13
30.088	1
31.018	15
31.990	7
39.024	106
39.072	1
40.031	21
41.039	408
41.064	3
41.088	4
41.166	1
41.314	1
41.354	1
42.011	40
42.047	84
43.018	95
43.055	499
43.108	5
43.184	1
43.343	1
43.378	1
43.591	1
43.832	1
43.866	1
43.990	1
44.025	6
44.058	17
44.998	9
45.034	145
45.090	2
46.038	3
47.049	1
51.023	6
52.031	4
53.039	44
54.047	17
55.018	66
55.055	439
55.116	4
55.201	1
55.375	1
55.421	1
55.631	1
55.673	1
56.026	60
56.062	119
56.172	1
57.034	55
57.070	201
57.099	2
57.178	1
58.041	6
58.074	9
59.050	69
59.096	1
60.021	251
60.052	4
61.029	207
61.093	2
61.140	1
62.032	5
63.029	1
65.039	6
66.047	2
67.055	40
68.062	9
69.034	23
69.070	134
69.143	2
69.188	1
70.042	173
70.077	35
71.047	15
71.086	62
71.149	1
72.054	2
72.090	3
73.029	310
73.065	16
73.201	1
73.403	1
73.424	1
74.037	150
74.069	2
74.407	1
75.044	41
76.046	2
77.039	3
79.055	6
81.034	2
81.070	11
82.042	2
82.078	21
83.050	145
83.086	133
84.056	17
84.093	75
84.172	1
84.219	1
85.065	6
85.102	265
85.179	3
85.517	1
86.105	17
87.045	12
87.081	20
88.052	999
88.129	9
88.235	2
88.515	3
88.817	2
89.059	109
89.139	2
89.502	1
89.586	1
90.060	6
91.057	2
93.071	4
95.086	2
97.065	18
97.102	14
98.073	24
98.109	10
99.043	2
99.078	3
100.053	3
101.060	962
101.098	10
101.556	3
101.896	2
102.066	101
102.151	2
102.337	1
102.627	1
102.673	1
103.070	9
107.085	2
108.094	16
109.102	203
109.183	2
110.105	18
111.081	31
112.085	2
115.076	111
116.080	9
125.097	10
126.104	5
127.112	244
127.204	3
127.270	1
128.116	22
129.092	114
130.095	9
143.107	43
144.111	4
145.122	6
157.123	6
172.146	5
