Mass spectrum: (2-adamantan-1-ylethyl)(2-methyloctyl)sulfane; GC-EI-TOF; MS; POSITIVE; EI; 70 V
Name: (2-adamantan-1-ylethyl)(2-methyloctyl)sulfane
Class: Non-natural compound
Formula: C21H38S
Exact mass: 322.26942
SMILES: CCCCCCC(C)CSCCC12CC3CC(CC(C3)C1)C2
InChI: InChI=1S/C21H38S/c1-3-4-5-6-7-17(2)16-22-9-8-21-13-18-10-19(14-21)12-20(11-18)15-21/h17-20H,3-16H2,1-2H3
Instrument: JMS-T100GCV (JEOL, Akishima, Japan) coupled to Agilent 7890A gas chromatograph.
Instrument type: GC-EI-TOF
Ms type: MS
Ion mode: POSITIVE
Ionization: EI
Column name: HP-5 30x0.32 0.25um 19091J-413, length 30.0 m, I.D. 0.32 mm, thickness 0.25 micrometer.
Retention time: 11.75 min.
m/z	relative intensity
27.024	26
28.006	13
28.031	4
29.04	82
31.99	7
39.024	23
40.031	4
41.04	223
42.047	28
43.055	273
44.059	9
44.981	10
45.988	4
46.996	18
53.04	28
54.047	9
55.055	201
56.063	131
56.121	1
57.071	172
58.074	7
58.996	6
60.004	7
61.012	164
62.014	5
63.008	7
65.04	16
66.047	7
67.056	123
67.121	1
68.062	20
69.071	191
70.078	91
70.145	1
71.087	95
71.153	1
72.09	5
73.012	6
74.02	18
75.027	19
77.04	61
78.047	17
79.056	220
79.184	1
80.061	26
81.071	105
81.139	1
82.078	25
83.087	92
83.162	1
84.094	77
84.167	1
85.012	4
85.102	42
86.106	3
87.028	9
88.035	2
89.043	8
91.056	115
91.129	1
92.063	42
93.071	196
94.076	24
95.087	33
96.093	9
97.012	3
97.102	54
98.11	40
99.028	5
99.113	3
101.043	35
102.049	6
103.057	9
104.063	8
105.071	81
106.078	32
107.087	82
107.168	1
108.091	9
109.102	5
111.117	31
112.123	5
113.043	4
115.058	10
116.064	3
117.072	11
118.078	4
119.087	42
120.093	12
121.103	16
125.132	2
126.141	126
127.146	21
129.073	2
131.088	4
133.102	28
134.108	7
135.118	999
135.693	3
136.122	112
136.526	1
137.043	2
137.125	6
147.118	8
149.134	15
158.113	44
159.121	370
160.125	45
161.131	67
162.141	109
163.148	38
164.152	4
167.09	2
168.097	80
169.1	10
170.094	4
173.138	9
181.105	3
187.153	39
188.156	5
193.106	16
194.113	70
195.121	567
195.813	2
196.127	164
196.79	1
197.123	36
198.124	8
209.137	137
210.141	25
211.136	8
223.153	28
224.156	5
237.168	20
238.172	3
251.184	11
252.188	2
265.2	7
279.215	11
280.219	2
307.246	4
321.262	21
322.269	337
323.273	81
324.27	23
325.27	4
