Mass spectrum: VAL-HIS-LEU-THR-PRO-VAL-GLU-LYS; ESI-ITFT; MS2; [M+H]+
Name: VAL-HIS-LEU-THR-PRO-VAL-GLU-LYS
Class: Natural Product; Peptides
Formula: C42H71N11O12
Exact mass: 921.52837
SMILES: CC(C)CC(C(=O)NC(C(C)O)C(=O)N1CCCC1C(=O)NC(C(C)C)C(=O)NC(CCC(=O)O)C(=O)NC(CCCCN)C(=O)O)NC(=O)C(CC2=CN=CN2)NC(=O)C(C(C)C)N
InChI: InChI=1S/C42H71N11O12/c1-21(2)17-28(49-36(58)29(18-25-19-45-20-46-25)50-39(61)32(44)22(3)4)37(59)52-34(24(7)54)41(63)53-16-10-12-30(53)38(60)51-33(23(5)6)40(62)47-26(13-14-31(55)56)35(57)48-27(42(64)65)11-8-9-15-43/h19-24,26-30,32-34,54H,8-18,43-44H2,1-7H3,(H,45,46)(H,47,62)(H,48,57)(H,49,58)(H,50,61)(H,51,60)(H,52,59)(H,55,56)(H,64,65)
Instrument: LTQ Orbitap Velos (Thermofisher Scientific)
Instrument type: ESI-ITFT
Ms type: MS2
Ion mode: POSITIVE
Ionization: ESI
Precursor m/z: 922.53670
Precursor type: [M+H]+
m/z	relative intensity
66.21534	2
70.06511	1
71.08548	3
72.08076	1
84.0808	4
86.09646	3
106.00953	1
110.07132	34
113.1325	4
129.10225	14
130.08624	2
138.06615	3
147.11276	13
149.02326	40
164.1181	3
166.06103	62
167.03378	8
167.06435	2
169.13347	34
170.13675	1
171.11272	6
181.09714	3
193.14476	4
197.12849	54
198.13178	3
199.1077	13
209.09205	10
209.13968	35
210.14302	2
215.13896	23
220.10799	67
221.11129	5
223.15528	4
229.11817	2
237.13468	512
238.13777	32
240.13408	24
241.13742	1
251.15014	28
252.15339	2
258.14473	78
259.14795	5
261.13447	6
261.14836	5
273.6297	2
276.15538	179
277.15859	13
279.14512	8
279.15901	32
280.16547	9
290.16109	14
293.1608	2
294.18118	16
298.17608	26
299.17945	2
308.16048	3
308.17173	3
308.20804	3
312.19176	12
316.1768	5
322.22377	5
324.20308	2
326.17104	121
327.17441	12
332.20811	13
334.18737	23
335.19072	2
336.16667	24
337.17002	2
338.18231	6
343.19746	1
344.18146	25
345.18481	2
350.21866	424
351.22211	51
352.19791	71
353.20149	8
357.21331	2
362.18229	20
363.18577	2
375.22375	36
376.22737	4
379.24518	1
380.19285	157
381.19641	19
383.19249	3
383.26525	5
385.20813	7
390.21117	5
390.25425	8
390.72589	6
392.24475	2
393.24961	5
399.22356	5
405.26069	16
406.24478	18
406.26421	2
407.23989	32
407.27624	4
408.24368	4
409.01885	3
409.17354	1
409.20782	4
411.26001	10
415.2451	1
416.22916	2
423.27133	24
424.27512	3
426.85227	7
427.21861	42
428.22243	6
433.21924	17
433.25571	119
434.22291	2
434.24095	1
434.25936	19
437.20291	2
445.2293	9
449.25056	1
451.26646	458
452.26995	68
454.26596	44
455.26965	7
459.23497	5
463.91061	3
472.27646	999
473.28004	158
474.2825	2
477.24539	9
480.63105	1
491.00142	3
502.31314	1
504.29286	8
505.3121	3
520.32436	2
522.29209	9
529.29789	25
530.30974	9
531.31231	1
534.30364	1
537.30352	1
540.30278	13
541.30607	2
546.33985	1
548.31903	24
549.32275	4
555.31348	44
556.31701	8
562.29866	1
573.32409	263
574.32759	53
583.30845	12
584.31195	2
601.38184	2
603.36139	2
619.39253	10
620.39621	2
629.37688	13
630.3804	3
642.38189	7
643.13653	2
643.38543	1
647.3873	47
648.3907	13
650.38714	2
650.67733	2
662.2437	1
668.03096	2
668.3976	38
669.40111	10
675.38255	1
677.36166	6
686.408	94
687.41147	26
707.0419	2
732.40375	1
748.43475	6
749.43725	1
758.41915	10
759.4227	3
776.42976	35
777.43307	12
794.44017	9
795.44322	2
805.45627	6
806.45881	1
823.4671	18
824.47026	6
878.50894	5
879.51187	1
886.51384	1
904.52459	32
905.52773	14
922.53499	158
923.53809	69
924.54081	1
