Mass spectrum: 1-(9Z-Octadecenoyl)-sn-glycero-3-phosphocholine; MALDI-QITTOF; MS2; POSITIVE; [M+H]+; RID
Name: Lyso-PC 18:1(9Z)
Name: 1-(9Z-Octadecenoyl)-sn-glycero-3-phosphocholine
Class: Natural product; Phospholipid
Formula: C26H52NO7P
Exact mass: 521.3481
SMILES: CCCCCCCC/C=C\CCCCCCCC(=O)OC[C@H](COP(=O)([O-])OCC[N+](C)(C)C)O
InChI: InChI=1S/C26H52NO7P/c1-5-6-7-8-9-10-11-12-13-14-15-16-17-18-19-20-26(29)32-23-25(28)24-34-35(30,31)33-22-21-27(2,3)4/h12-13,25,28H,5-11,14-24H2,1-4H3/b13-12-/t25-/m1/s1
Instrument: MALDI-QITTOF noncommercial prototype model (Shimadzu Corporation, Kyoto, Japan)
Instrument type: MALDI-QITTOF
Ms type: MS2
Ion mode: POSITIVE
Fragmentation mode: RID
Ionization: MALDI
Ion type: [M+H]+
Precursor m/z: 522.3554
m/z	relative intensity
323.042	36
325.027	61
331.106	35
339.296	37
351.049	59
353.025	38
365.039	37
366.055	50
367.055	51
379.056	77
380.186	42
381.064	34
382.197	38
383.208	49
384.192	55
393.067	48
395.067	61
398.199	350
399.196	44
407.1	50
409.082	50
412.211	414
415.205	379
416.199	52
424.209	304
425.221	98
426.209	37
438.233	144
440.211	210
504.341	8
517.203	11
518.32	18
519.326	15
520.346	223
520.55	4
521.116	9
521.347	81
522.151	5
522.355	914
522.567	31
522.857	5
523.121	13
523.358	163
523.9	4
524.158	8
524.362	40
525.11	7
525.354	19
526.155	6
527.036	9
527.228	8
528.249	5
529.052	7
529.251	12
530.294	5
531.092	18
532.276	7
533.182	18
534.322	21
535.29	19
536.339	137
537.108	16
537.342	55
538.353	999
538.567	33
538.835	6
539.13	28
539.358	272
539.586	5
539.921	4
540.162	14
540.357	50
541.115	12
541.337	21
542.223	9
543.205	11
544.194	5
545.077	10
545.245	13
546.216	5
547.201	17
548.268	5
549.167	8
549.276	9
