Mass spectrum: Oryzalin; LC-ESI-QTOF; MS2; ESI; POSITIVE; CE 30 V
Name: Oryzalin
Class: Non-natural product
Formula: C12H18N4O6S
Exact mass: 346.09469
SMILES: CCCN(CCC)c1c([N+](=O)[O-])cc(S(N)(=O)=O)cc1[N+](=O)[O-]
InChI: InChI=1S/C12H18N4O6S/c1-3-5-14(6-4-2)12-10(15(17)18)7-9(23(13,21)22)8-11(12)16(19)20/h7-8H,3-6H2,1-2H3,(H2,13,21,22)
Instrument: ExionLC AD, AB Sciex LLC, USA; X500R QTOF, AB Sciex LLC, USA.
Instrument type: LC-ESI-QTOF
Ms type: MS2
Ion mode: POSITIVE
Collision energy: 30 V
Ionization: ESI
Column name: AQ-C18HP 3 microm, 2.1 mm Ã— 150 mm, GL Science (Tokyo Japan)
Retention time: 14.3 min
Precursor m/z: 347.10197
Precursor type: [M+H]+
m/z	relative intensity
41.0388	161
43.0545	287
56.0134	74
57.0342	58
145.0407	185
178.0748	115
182.0198	95
198.015	963
213.0206	437
217.0164	273
224.067	222
240.0618	897
241.0539	175
242.0112	101
243.0185	376
244.9995	119
245.9828	977
247.014	351
259.0135	508
263.0089	428
288.0295	999
301.0616	136
