Mass spectrum: Mitotane; GC-EI-Q; MS; Positive
Name: Mitotane
Name: O,p'-DDD
Class: Non-Natural Product; Pesticides
Formula: C14H10Cl4
Exact mass: 317.95366
SMILES: C1=CC=C(C(=C1)C(C2=CC=C(C=C2)Cl)C(Cl)Cl)Cl
InChI: InChI=1S/C14H10Cl4/c15-10-7-5-9(6-8-10)13(14(17)18)11-3-1-2-4-12(11)16/h1-8,13-14H
Instrument: GCMS-QP2010 Plus, Shimadzu
Instrument type: GC-EI-Q
Ms type: MS
Ion mode: POSITIVE
Ionization: EI
Column name: Ptx-5MS(RESTEK), 0.32 mm I.D. x 30 m, df=0.25 microm
Retention time: 13.35 min
m/z	relative intensity
40	8
50	26
51	28
62	10
63	24
73	11
74	33
75	96
76	32
77	19
81	19
82	82
83	16
85	11
86	9
87	26
88	105
89	23
93	16
94	5
99	13
100	33
101	57
102	36
103	7
105	17
106	32
107	13
110	8
111	13
112	8
113	10
114	6
115	7
123	18
124	8
125	14
126	14
127	5
135	7
136	35
137	45
138	22
139	25
149	12
150	24
151	28
152	15
162	7
163	48
164	63
165	454
166	64
171	6
172	10
173	7
174	18
175	22
176	121
177	51
178	92
182	0
189	0
191	9
199	161
200	96
201	71
202	32
203	5
210	7
211	6
212	98
213	24
214	36
215	9
235	999
236	117
237	659
238	92
239	113
240	15
246	10
247	18
248	25
249	14
250	15
282	16
284	34
285	6
286	16
318	24
320	22
322	11
