Mass spectrum: Poricoic acid B; ESI-QTOF; MS2; POSITIVE; [M+H]+; CID; 60 V
Name: Poricoic acid B
Class: Non-natural product
Formula: C30H44O5
Exact mass: 484.31888
SMILES: CC(=CCC[C@H]([C@H]1[C@@H](C[C@@]2([C@@]1(CC=C3C2=CC[C@H]([C@]3(C)CCC(=O)O)C(=C)C)C)C)O)C(=O)O)C
InChI: InChI=1S/C30H44O5/c1-18(2)9-8-10-20(27(34)35)26-24(31)17-30(7)23-12-11-21(19(3)4)28(5,15-14-25(32)33)22(23)13-16-29(26,30)6/h9,12-13,20-21,24,26,31H,3,8,10-11,14-17H2,1-2,4-7H3,(H,32,33)(H,34,35)/t20-,21+,24-,26+,28+,29-,30+/m1/s1
Instrument: X500R QTOF (AB Sciex LLC, USA)
Instrument type: ESI-QTOF
Ms type: MS2
Ion mode: POSITIVE
Collision energy: 60 V
Fragmentation mode: CID
Ionization: ESI
Precursor m/z: 485.32615
Precursor type: [M+H]+
m/z	relative intensity
55.0553	129
67.0553	106
69.071	118
77.0399	64
79.0555	125
81.0711	168
91.0555	206
93.0712	195
95.0868	199
105.0712	279
107.0868	261
109.1024	56
117.0712	95
119.0868	274
121.1025	112
123.0817	40
128.0634	70
129.0712	105
131.0868	276
133.1025	135
141.0712	85
142.0789	140
143.0868	307
144.0947	43
145.1024	273
147.0817	57
147.1181	68
153.0711	56
154.0789	61
155.0868	275
156.0946	125
157.1024	470
159.0817	90
159.1181	201
165.0712	70
167.0868	142
168.0946	130
169.1025	709
170.1102	62
171.1181	251
173.0973	56
173.1337	68
177.0924	43
179.0868	154
180.0946	71
181.1025	322
182.1104	166
183.1181	661
185.0973	52
185.1338	192
187.113	56
189.1288	57
192.0947	54
193.1025	216
194.1103	168
195.1181	432
196.126	123
197.0976	52
197.1338	299
199.113	80
199.1493	57
205.1025	47
206.1103	87
207.1181	271
208.126	250
209.0978	59
209.1338	551
210.1417	99
211.1132	71
211.1496	198
217.1028	56
219.1183	80
220.1259	50
221.1339	284
222.1416	73
223.1136	70
223.1494	999
225.1287	65
225.1651	113
231.1184	54
232.1261	89
233.134	96
234.1416	40
235.1495	140
237.129	49
237.1651	278
241.1237	58
245.1339	45
247.1495	138
249.1289	50
249.1651	81
251.1446	49
251.1808	54
255.1394	40
259.1494	51
263.1808	48
265.1599	91
265.1963	62
267.1392	52
283.1703	63
