Mass spectrum: alpha-Ketoglutaric acid; GC-EI-Q; MS; positive; MEOX,2TMS-derivative
Name: alpha-Ketoglutaric acid
Class: Natural Product
Formula: C5H6O5
Exact mass: 146.02152
SMILES: C(CC(=O)O)C(=O)C(=O)O
InChI: InChI=1S/C5H6O5/c6-3(5(9)10)1-2-4(7)8/h1-2H2,(H,7,8)(H,9,10)
Instrument: GCMS-QP2010 Ultra (Shimadzu, Kyoto, Japan)
Instrument type: GC-EI-Q
Ms type: MS
Ion mode: POSITIVE
Column name: DB-5MS+DG (Agilent Technologies, Santa Clara, CA, USA)
Derivative form: C12H25NO5Si2
Derivative mass: 319.12712
Derivative type: MEOX, 2TMS
m/z	relative intensity	assigned
54.05	25	
55.05	126	
56.05	11	
58.05	35	
59.05	71	
60.05	11	
61.05	26	
72.15	37	
73.05	999	
74.05	99	
75.05	290	
76.05	20	
77.05	10	
82.05	21	
84	26	
89.05	84	
112.05	35	C5H6NO2+
126.1	24	
133.05	18	
144.65	9	
147.1	187	
148.1	28	
149.1	17	
154.05	10	
156.05	62	C6H10NO2Si+
170.05	22	
186.05	24	C7H12NO3Si+
198	75	
199	10	
202.05	18	
229.05	17	
288.1	29	
304.05	27	
