Mass spectrum: Xylylcarb; GC-EI-Q; MS; Positive
Name: Xylylcarb
Name: MPMC
Class: Non-Natural Product; Pesticides
Formula: C10H13NO2
Exact mass: 179.09463
SMILES: CC1=C(C=C(C=C1)OC(=O)NC)C
InChI: InChI=1S/C10H13NO2/c1-7-4-5-9(6-8(7)2)13-10(12)11-3/h4-6H,1-3H3,(H,11,12)
Instrument: GCMS-QP2010 Plus, Shimadzu
Instrument type: GC-EI-Q
Ms type: MS
Ion mode: POSITIVE
Ionization: EI
Column name: Ptx-5MS(RESTEK), 0.32 mm I.D. x 30 m, df=0.25 microm
Retention time: 6.73 min
m/z	relative intensity
40	8
41	24
43	7
44	13
45	7
50	11
51	39
52	15
53	29
54	5
55	21
56	67
57	149
58	36
60	7
63	11
64	7
65	35
66	7
67	12
75	5
76	5
77	155
78	35
79	61
89	4
91	97
92	16
93	24
94	12
103	16
104	13
105	19
106	13
107	684
108	53
119	5
120	12
121	242
122	999
123	85
124	5
179	17
