Mass spectrum: 3-((tert-Butyldimethylsilyl)oxy)-2,2-dimethylpropanal; GC-FI-TOF; MS; positive; FI; 10 kV
Name: 3-((tert-Butyldimethylsilyl)oxy)-2,2-dimethylpropanal
Class: Non-natural product
Formula: C11H24O2Si
Exact mass: 216.15456
SMILES: CC(C)(C)[Si](C)(C)OCC(C)(C)C=O
InChI: InChI=1S/C11H24O2Si/c1-10(2,3)14(6,7)13-9-11(4,5)8-12/h8H,9H2,1-7H3
Instrument: JMS-T100GCV (JEOL, Akishima, Japan) coupled to Agilent 7890A (Agilent, Wilmington, USA) gas chromatograph.
Instrument type: GC-FI-TOF
Ms type: MS
Ion mode: POSITIVE
Ionization: FI
Column name: HP-5 19091 J-413 USD364547H (Agilent, Wilmington, USA), length 30.0 m, I.D. 0.32 mm, thickness 0.25 micrometer.
Retention time: 6.64 min.
m/z	relative intensity
159.084	999
160.086	129
161.083	46
