Mass spectrum: Dehydroeburicoic acid; ESI-QTOF; MS2; NEGATIVE; [M-H]-; CID; 60 V
Name: Dehydroeburicoic acid
Class: Non-natural product; Bile acid
Formula: C31H48O3
Exact mass: 468.36035
SMILES: CC(C)C(=C)CC[C@H]([C@H]1CC[C@@]2([C@@]1(CC=C3C2=CC[C@@H]4[C@@]3(CC[C@@H](C4(C)C)O)C)C)C)C(=O)O
InChI: InChI=1S/C31H48O3/c1-19(2)20(3)9-10-21(27(33)34)22-13-17-31(8)24-11-12-25-28(4,5)26(32)15-16-29(25,6)23(24)14-18-30(22,31)7/h11,14,19,21-22,25-26,32H,3,9-10,12-13,15-18H2,1-2,4-8H3,(H,33,34)/t21-,22-,25+,26+,29-,30-,31+/m1/s1
Instrument: X500R QTOF (AB Sciex LLC, USA)
Instrument type: ESI-QTOF
Ms type: MS2
Ion mode: NEGATIVE
Collision energy: 60 V
Fragmentation mode: CID
Ionization: ESI
Precursor m/z: 467.35307
Precursor type: [M-H]-
m/z	relative intensity
44.9978	5
71.0498	6
85.0656	10
95.0500	6
97.0656	151
99.0813	28
237.1647	19
239.1805	37
251.1806	12
267.2118	49
269.1911	123
279.1757	18
291.1757	16
291.2119	18
293.1913	28
295.2070	17
305.1912	43
306.1988	23
307.2070	66
309.2225	196
321.2226	119
321.2577	23
323.2382	366
337.2536	645
339.2695	89
353.2487	39
371.2592	158
373.2536	27
383.2591	23
437.3059	27
467.3526	999
