Mass spectrum: Oryzalin; LC-ESI-QTOF; MS2; ESI; NEGATIVE; CE 40 V
Name: Oryzalin
Class: Non-natural product
Formula: C12H18N4O6S
Exact mass: 346.09469
SMILES: CCCN(CCC)c1c([N+](=O)[O-])cc(S(N)(=O)=O)cc1[N+](=O)[O-]
InChI: InChI=1S/C12H18N4O6S/c1-3-5-14(6-4-2)12-10(15(17)18)7-9(23(13,21)22)8-11(12)16(19)20/h7-8H,3-6H2,1-2H3,(H2,13,21,22)
Instrument: ExionLC AD, AB Sciex LLC, USA; X500R QTOF, AB Sciex LLC, USA.
Instrument type: LC-ESI-QTOF
Ms type: MS2
Ion mode: NEGATIVE
Collision energy: 40 V
Ionization: ESI
Column name: AQ-C18HP 3 microm, 2.1 mm Ã— 150 mm, GL Science (Tokyo Japan)
Retention time: 14.3 min
Precursor m/z: 345.08741
Precursor type: [M-H]-
m/z	relative intensity
41.998	55
45.9928	536
61.9701	34
65.0139	44
65.9979	41
77.9649	403
79.9806	102
89.014	111
90.9853	35
91.0298	45
92.0136	21
93.0089	40
102.0092	29
106.0167	59
107.0248	76
116.025	286
118.0408	58
119.0245	106
120.0565	64
121.0402	104
122.0242	35
129.0329	71
131.0484	70
132.0324	89
133.028	60
133.0397	59
134.0356	77
135.0196	41
136.0512	67
144.0686	42
145.0279	53
146.036	66
146.0475	45
146.0716	33
147.0435	382
148.0275	89
149.0351	62
150.0306	60
156.0564	37
157.0641	81
160.0512	61
160.0637	132
161.0715	125
162.0308	68
163.0254	63
173.0595	56
174.0669	223
182.0202	67
192.0284	76
203.0575	99
204.0647	55
211.0054	52
212.0137	49
222.034	71
223.0421	69
226.9944	124
228.0079	91
241.0036	167
244.0033	71
268.0271	84
295.2456	727
313.2564	999
345.0877	75
