Mass spectrum: Phenmedipham; LC-ESI-QTOF; MS; ESI; POSITIVE
Name: Phenmedipham
Class: Non-natural product
Formula: C16H16N2O4
Exact mass: 300.11101
SMILES: COC(=O)Nc1cccc(OC(=O)Nc2cccc(C)c2)c1
InChI: InChI=1S/C16H16N2O4/c1-11-5-3-6-12(9-11)18-16(20)22-14-8-4-7-13(10-14)17-15(19)21-2/h3-10H,1-2H3,(H,17,19)(H,18,20)
Instrument: ExionLC AD, AB Sciex LLC, USA; X500R QTOF, AB Sciex LLC, USA.
Instrument type: LC-ESI-QTOF
Ms type: MS
Ion mode: POSITIVE
Ionization: ESI
Column name: AQ-C18HP 3 microm, 2.1 mm Ã— 150 mm, GL Science (Tokyo Japan)
Retention time: 13.6 min
m/z	relative intensity
301.1166	999
302.1213	260
303.1245	35
