Mass spectrum: Crassostreaxanthin B; LC-ESI-QTOF; MS; POSITIVE; ESI.
Name: Crassostreaxanthin B
Class: Natural products; Carotenoids, Xanthophyll
Formula: C40H54O4
Exact mass: 598.4022
SMILES: CC1=C(C(C[C@@H](C1)O)(C)C)C#C/C(=C/C=C/C(=C/C=C/C=C(\C)/C=C/C=C(\C)/C(=O)C/C(=C(\C)/C[C@@H](CC(=O)C)O)/C)/C)/C
InChI: InChI=1S/C40H54O4/c1-28(17-13-18-30(3)21-22-38-34(7)24-37(43)27-40(38,9)10)15-11-12-16-29(2)19-14-20-31(4)39(44)25-33(6)32(5)23-36(42)26-35(8)41/h11-20,36-37,42-43H,23-27H2,1-10H3/b12-11+,17-13+,19-14+,28-15+,29-16+,30-18+,31-20+,33-32+/t36-,37+/m0/s1
Instrument: Xevo G2-S QtOF, Waters (USA) coupled to ACQUITY UPLC, Waters (USA).
Instrument type: LC-ESI-QTOF
Ms type: MS
Ion mode: POSITIVE
Ionization: ESI
Column name: BEH C18, I.D. 2.1 mm, length 100 mm, thickness 1.7 micrometer.
m/z	relative intensity
155.093	300
397.178	22
411.26	27
581.399	81
582.402	25
599.411	999
600.414	409
601.417	69
621.394	430
622.397	164
623.399	21
