Mass spectrum: Citric acid-[6-13C]; GC-EI-Q; MS; POSITIVE; 4 TBDMS-derivative
Name: Citric acid-[6-13C]
Class: In vitro synthetic compound
Formula: C6H8O7
Exact mass: 192.02700
SMILES: OC(=O)CC(O)(CC(O)=O)C(=O)O
InChI: InChI=1S/C6H8O7/c7-3(8)1-6(13,5(11)12)2-4(9)10/h13H,1-2H2,(H,7,8)(H,9,10)(H,11,12)/i5+1
Instrument: GCMS-QP2010 Ultra (Shimadzu, Kyoto, Japan)
Instrument type: GC-EI-Q
Ms type: MS
Ion mode: POSITIVE
Column name: DB-5MS+DG (Agilent Technologies, Santa Clara, CA, USA)
Derivative form: C30H64O7Si4
Derivative mass: 648.372913
Derivative type: 4 TBDMS
m/z	relative intensity	assigned
56.05	10	
57.05	43	
58	12	
59	40	
67	11	
72.05	10	
73.05	999	
74.05	85	
75.05	93	
99.05	14	
115.1	56	
116.05	12	
117.05	12	
131.05	11	
133.05	37	
147.1	219	
148.1	36	
149.05	53	
171.1	11	
189.05	19	
206.95	16	
221.05	16	
254.05	20	
260.1	13	
299.05	12	C13H23O4Si2+
341.15	10	
357.15	71	C17H33O4Si2+
358.15	21	
383.1	13	
386.1	11	
431.15	85	C19H39O5Si3+
432.15	34	
433.15	15	
459.15	11	
460.1	218	
461.1	78	
462.1	38	
489.2	14	
502.15	13	
591.25	10	
592.25	170	
593.25	82	
594.25	43	
595.25	13	
