Mass spectrum: (2S)-4-[[(2R,5R)-5-[(8R)-8-Hydroxy-8-[(2R,5R)-5-[(1R)-1-hydroxytridecyl]oxolan-2-yl]-2-oxooctyl]oxolan-2-yl]methyl]-2-methyl-2H-furan-5-one; EI-TOF; MS; POSITIVE; EI; 70 V
Name: (2S)-4-[[(2R,5R)-5-[(8R)-8-Hydroxy-8-[(2R,5R)-5-[(1R)-1-hydroxytridecyl]oxolan-2-yl]-2-oxooctyl]oxolan-2-yl]methyl]-2-methyl-2H-furan-5-one
Class: Non-natural compound
Formula: C35H60O7
Exact mass: 592.43391
SMILES: CCCCCCCCCCCC[C@@H](O)[C@H]1CC[C@H]([C@H](O)CCCCCC(=O)C[C@H]2CC[C@H](CC3=C[C@H](C)OC3=O)O2)O1
InChI: InChI=1S/C35H60O7/c1-3-4-5-6-7-8-9-10-11-14-17-31(37)33-21-22-34(42-33)32(38)18-15-12-13-16-28(36)25-30-20-19-29(41-30)24-27-23-26(2)40-35(27)39/h23,26,29-34,37-38H,3-22,24-25H2,1-2H3/t26-,29+,30+,31+,32+,33+,34+/m0/s1
Instrument: JMS-700V (JEOL, Akishima, Japan) coupled to nan gas chromatograph.
Instrument type: EI-TOF
Ms type: MS
Ion mode: POSITIVE
Ionization: EI
m/z	relative intensity
39.03	6
40.04	2
41.04	26
42.05	5
43.02	42
43.99	9
45.02	5
46.99	3
53.04	4
54.04	6
55.04	56
56.05	7
57.06	42
58.03	4
59.02	10
60.01	2
61.0	4
65.03	2
66.04	4
67.06	58
68.07	10
69.07	59
70.05	9
71.06	28
72.04	6
73.04	499
74.03	41
75.01	108
76.01	8
77.0	17
78.02	2
79.03	28
80.04	8
81.04	101
82.05	17
83.06	64
84.04	11
85.06	16
86.05	1
87.02	3
89.03	5
91.05	33
92.06	6
93.07	43
94.06	13
95.08	52
96.08	11
97.09	50
98.09	8
99.06	15
100.05	2
101.05	31
102.04	4
103.05	61
104.05	6
105.05	17
106.06	4
107.07	48
108.07	11
109.08	35
110.07	8
111.06	28
112.05	14
113.05	12
114.05	4
115.06	20
116.06	23
117.07	21
118.07	4
119.07	31
120.08	7
121.1	29
122.09	6
123.1	14
124.07	9
125.08	19
126.09	5
127.08	110
128.08	12
129.07	234
130.09	59
131.08	30
132.08	6
133.1	37
134.09	10
135.1	44
136.07	14
137.06	63
138.07	9
139.07	16
140.09	3
141.07	17
142.07	10
143.08	61
144.09	14
145.09	18
146.09	4
147.09	25
148.1	6
149.08	16
150.1	8
151.1	20
152.11	7
153.1	18
154.07	12
155.09	30
156.1	14
157.09	31
158.1	8
159.09	17
160.09	4
161.1	14
162.08	7
163.08	31
164.1	6
165.12	10
166.1	4
167.09	10
168.1	5
169.09	27
170.09	9
171.11	33
172.1	12
173.12	13
174.12	3
175.13	7
176.11	3
177.1	11
178.1	10
179.1	45
180.08	123
181.09	719
182.1	84
183.1	54
184.1	31
185.11	45
186.11	10
187.12	10
188.11	3
189.12	4
190.12	1
191.09	12
192.1	4
193.12	9
194.11	8
195.11	46
196.12	10
197.13	38
198.12	11
199.12	18
200.13	5
201.13	41
202.13	8
203.13	5
204.09	3
205.1	18
206.1	3
207.13	6
208.12	3
209.12	9
210.12	4
211.13	44
212.12	11
213.11	21
214.11	5
215.14	5
216.12	1
217.13	5
218.16	2
219.14	3
220.12	5
221.12	7
222.14	3
223.11	15
224.11	7
225.14	9
226.12	6
227.14	9
228.15	2
229.14	4
230.14	2
231.16	3
232.15	1
233.19	6
234.14	2
235.14	4
236.14	4
237.15	5
238.12	5
239.17	7
240.15	3
241.16	7
242.16	2
243.15	4
244.15	2
245.17	4
246.14	1
247.17	3
248.17	1
249.18	6
250.22	14
251.21	14
252.12	13
253.14	25
254.15	9
255.18	12
256.19	4
257.2	7
258.17	3
259.17	13
260.14	26
261.15	7
262.18	2
263.2	12
264.2	4
265.18	5
266.15	3
267.16	35
268.16	14
269.17	19
270.23	11
271.25	201
272.25	46
273.24	13
274.17	8
275.18	6
276.19	3
277.19	9
278.17	2
279.18	3
280.18	1
281.22	6
282.2	2
283.2	4
284.23	2
285.21	7
286.17	5
287.17	23
288.19	6
289.2	3
291.18	2
292.15	2
293.18	3
294.19	2
295.17	9
296.17	3
297.25	36
298.25	10
299.26	5
300.24	2
301.27	4
302.24	1
303.19	4
304.17	29
305.17	17
306.19	5
307.19	4
308.19	2
309.22	4
310.22	9
311.24	12
312.25	4
313.22	4
314.23	2
315.28	6
316.29	2
317.26	2
318.27	1
319.23	2
321.2	4
322.2	1
323.21	13
324.2	4
325.26	7
326.25	3
327.25	3
328.23	1
329.2	4
330.21	2
331.24	3
332.26	2
333.3	8
334.29	3
335.26	3
336.21	2
337.24	3
338.24	2
339.22	6
340.24	4
341.29	92
342.3	25
343.29	10
344.29	2
345.26	2
346.23	1
347.23	2
348.21	2
349.23	6
350.2	2
351.24	5
352.22	2
353.28	4
354.26	2
355.29	2
356.2	3
357.23	18
358.23	11
359.27	6
360.24	2
361.32	17
362.31	5
363.29	2
365.22	3
366.22	10
367.26	5
368.32	4
369.3	3
371.28	1
373.23	3
374.21	10
375.22	79
376.22	50
377.24	33
378.24	10
379.29	14
380.29	4
381.3	5
382.28	2
383.29	1
384.27	2
385.29	2
387.24	5
388.23	1
389.29	1
391.27	1
392.26	2
393.23	8
394.24	9
395.24	999
396.24	276
397.24	141
398.26	32
399.28	10
400.3	3
401.29	1
403.32	1
405.28	3
406.3	1
407.27	3
408.27	2
409.29	7
410.28	2
411.31	1
415.34	2
417.38	4
418.34	2
419.26	1
420.28	2
421.25	6
422.25	2
423.31	2
424.33	1
425.31	2
426.33	1
427.35	5
428.34	2
429.3	2
430.27	2
431.31	1
433.31	2
434.29	2
435.29	2
436.28	1
437.33	1
442.35	1
443.33	3
444.32	1
445.39	15
446.38	5
447.27	16
448.29	18
449.28	11
450.26	4
451.32	5
452.32	2
453.27	2
463.25	5
464.3	4
465.28	631
466.29	206
467.28	83
468.29	25
469.29	25
470.29	9
471.29	3
477.31	2
479.31	1
481.32	2
489.42	2
491.38	1
492.39	1
493.39	3
494.36	2
495.31	12
496.34	5
497.28	2
509.39	1
510.31	2
511.38	1
517.45	5
518.39	2
519.4	2
520.34	5
521.36	4
522.4	2
523.36	3
524.37	1
535.43	30
536.42	13
537.36	15
538.34	143
539.34	116
540.35	46
541.37	20
542.37	6
543.35	2
555.42	1
556.41	9
557.43	9
558.45	3
567.34	5
568.35	2
610.4	3
611.39	4
612.35	2
613.4	2
614.47	1
625.48	3
626.51	2
627.43	1
628.48	3
629.5	2
630.42	1
631.46	7
632.5	3
633.49	1
645.51	3
646.47	17
647.47	9
648.48	3
703.51	2
718.5	2
719.51	1
721.5	15
722.5	8
723.52	3
734.46	2
735.52	2
736.52	17
737.51	9
738.48	4
739.51	1
