Mass spectrum: (2E,6S,7R)-6,7-Epoxynon-2-enal; GC-EI-TOF; MS; positive; EI; 70 V
Name: (2E,6S,7R)-6,7-Epoxynon-2-enal
Class: Non-natural product
Formula: C9H14O2
Exact mass: 154.09938
SMILES: O=C\C=C\CC[C@@H]1O[C@@H]1CC
InChI: InChI=1S/C9H14O2/c1-2-8-9(11-8)6-4-3-5-7-10/h3,5,7-9H,2,4,6H2,1H3/b5-3+/t8-,9+/m1/s1
Instrument: JMS-T100GCV (JEOL, Akishima, Japan) coupled to Agilent 7890A (Agilent, Wilmington, USA) gas chromatograph.
Instrument type: GC-EI-TOF
Ms type: MS
Ion mode: POSITIVE
Ionization: EI
Column name: HP-5 19091 J-413 USD364547H (Agilent, Wilmington, USA), length 30 m, I.D. 0.32 mm, thickness 0.25 micrometer.
Retention time: 7.6 min.
m/z	relative intensity
26.015	31
27.023	439
27.062	5
27.244	1
27.281	1
28.006	34
28.030	58
29.002	174
29.039	426
29.079	5
29.144	2
29.268	2
29.304	2
29.486	2
29.687	1
30.007	2
30.044	13
31.018	301
31.064	4
31.989	18
32.021	4
37.008	7
38.015	33
39.023	566
39.074	6
39.145	2
39.299	2
39.333	2
40.030	109
41.039	999
41.089	10
41.321	3
41.600	2
41.789	1
41.808	1
41.826	1
42.010	23
42.045	96
43.018	161
43.054	76
44.025	18
44.058	3
45.034	20
47.013	5
50.016	15
51.023	38
52.031	17
53.003	6
53.039	116
53.092	2
54.010	3
54.046	21
55.018	94
55.055	207
56.025	9
56.061	18
57.034	158
57.070	104
57.176	1
58.041	17
58.074	5
59.050	451
59.107	5
59.384	1
59.409	2
60.053	15
62.016	4
63.023	11
64.030	3
65.039	67
66.011	2
66.047	82
66.093	1
67.055	567
67.117	6
67.373	1
67.418	2
67.460	2
67.718	1
68.026	532
68.060	64
68.377	2
68.719	1
69.033	80
69.070	24
70.042	147
70.076	5
70.153	1
71.013	5
71.049	66
71.088	2
72.056	12
73.029	9
75.026	2
77.039	23
78.047	13
79.055	48
80.061	7
81.034	159
81.070	15
81.160	1
82.042	76
82.078	22
83.050	174
83.084	6
83.181	1
84.021	3
84.057	43
84.094	2
84.134	1
85.065	405
85.519	2
86.037	6
86.069	24
91.055	8
92.061	2
93.071	7
94.042	7
95.050	129
96.057	47
97.028	3
97.065	171
97.205	1
98.071	24
99.045	3
99.073	2
107.050	5
107.086	7
108.092	2
109.066	6
110.073	26
111.045	7
111.079	7
112.053	37
113.059	6
121.065	4
123.080	2
125.060	7
125.097	9
126.068	6
