Mass spectrum: Pentoxazone; ESI-QTOF; MS2; POSITIVE; [M+H]+; CID; 40 V
Name: Pentoxazone
Class: Non-natural product
Formula: C17H17ClFNO4
Exact mass: 353.0830
SMILES: CC(=C1C(=O)N(C(=O)O1)c2cc(c(cc2F)Cl)OC3CCCC3)C
InChI: InChI=1S/C17H17ClFNO4/c1-9(2)15-16(21)20(17(22)24-15)13-8-14(11(18)7-12(13)19)23-10-5-3-4-6-10/h7-8,10H,3-6H2,1-2H3
Instrument: X500R QTOF (AB Sciex LLC, USA)
Instrument type: ESI-QTOF
Ms type: MS2
Ion mode: POSITIVE
Collision energy: 40 V
Fragmentation mode: CID
Ionization: ESI
Precursor m/z: 354.0903
Precursor type: [M+H]+
m/z	relative intensity
41.0384	47
43.0177	125
53.0385	46
55.0541	142
69.0698	158
70.0413	62
71.0486	69
99.0441	63
130.0651	45
132.985	61
139.9897	90
144.985	50
150.0712	41
153.0221	48
159.996	341
164.0505	173
165.0583	129
171.996	48
178.0663	228
179.0741	260
186.0117	999
187.991	223
192.0455	169
194.0367	70
200.0274	100
207.0692	144
286.028	115
