Mass spectrum: Silafluofen; LC-ESI-QTOF; MS2; ESI; POSITIVE; [M+NH4]+; CE 40 V
Name: Silafluofen
Class: Non-natural product
Formula: C25H29FO2Si
Exact mass: 408.19208
SMILES: CCOc1ccc([Si](C)(C)CCCc2ccc(F)c(Oc3ccccc3)c2)cc1
InChI: InChI=1S/C25H29FO2Si/c1-4-27-21-13-15-23(16-14-21)29(2,3)18-8-9-20-12-17-24(26)25(19-20)28-22-10-6-5-7-11-22/h5-7,10-17,19H,4,8-9,18H2,1-3H3
Instrument: ExionLC AD, AB Sciex LLC, USA; X500R QTOF, AB Sciex LLC, USA.
Instrument type: LC-ESI-QTOF
Ms type: MS2
Ion mode: POSITIVE
Collision energy: 40 V
Ionization: ESI
Column name: AQ-C18HP 3 microm, 2.1 mm Ã— 150 mm, GL Science (Tokyo Japan)
Retention time: 18.3 min
Precursor m/z: 426.22591
Precursor type: [M+NH4]+
m/z	relative intensity
41.0388	28
59.0314	159
77.022	86
165.0702	48
168.0565	949
181.0648	595
245.0794	83
287.1257	999
