Mass spectrum: Malonylglycitin; ESI-QTOF; MS; POSITIVE
Name: Malonylglycitin
Class: 7-hydroxyisoflavone
Formula: C25H24O13
Exact mass: 532.12169
SMILES: COC1=C(C=C2C(=C1)C(=O)C(=CO2)C3=CC=C(C=C3)O)O[C@H]4[C@@H]([C@H]([C@@H]([C@H](O4)COC(=O)CC(=O)O)O)O)O
InChI: InChI=1S/C25H24O13/c1-34-16-6-13-15(35-9-14(21(13)30)11-2-4-12(26)5-3-11)7-17(16)37-25-24(33)23(32)22(31)18(38-25)10-36-20(29)8-19(27)28/h2-7,9,18,22-26,31-33H,8,10H2,1H3,(H,27,28)/t18-,22-,23+,24-,25-/m1/s1
Instrument: X500R QTOF (AB Sciex LLC, USA)
Instrument type: ESI-QTOF
Ms type: MS
Ion mode: POSITIVE
Ionization: ESI
m/z	relative intensity
285.0762	195
309.2047	32
447.129	192
466.1027	41
469.1092	999
470.1147	145
555.1117	116
915.2314	361
916.2355	123
