Mass spectrum: Glycitein; ESI-QTOF; MS2; NEGATIVE; [M-H]-; CID; 60 V
Name: Glycitein
Class: Natural product; Isoflavone
Formula: C16H12O5
Exact mass: 284.06847
SMILES: COC1=C(C=C2C(=C1)C(=O)C(=CO2)C3=CC=C(C=C3)O)O
InChI: InChI=1S/C16H12O5/c1-20-15-6-11-14(7-13(15)18)21-8-12(16(11)19)9-2-4-10(17)5-3-9/h2-8,17-18H,1H3
Instrument: X500R QTOF (AB Sciex LLC, USA)
Instrument type: ESI-QTOF
Ms type: MS2
Ion mode: NEGATIVE
Collision energy: 60 V
Fragmentation mode: CID
Ionization: ESI
Precursor m/z: 283.06120
Precursor type: [M-H]-
m/z	relative intensity
41.0032	371
49.0083	147
65.0031	46
78.0111	62
94.006	247
117.0346	120
132.0217	208
133.0295	437
141.0345	235
147.0087	175
154.0424	112
155.0502	377
167.0502	546
182.0374	271
183.0451	702
184.0529	329
195.0452	272
196.0528	134
210.0322	231
211.04	999
239.035	502
240.0426	145
