Mass spectrum: Acarbose; ESI-QQ; MS2; POSITIVE; [M+H]+; CID; CE: 25 eV
Name: Acarbose
Class: Non-natural product.
Formula: C25H43NO18
Exact mass: 645.248015
SMILES: C[C@@H]1[C@H]([C@@H]([C@H]([C@H](O1)O[C@@H]2[C@H](O[C@@H]([C@@H]([C@H]2O)O)O[C@@H]3[C@H](O[C@H]([C@@H]([C@H]3O)O)O)CO)CO)O)O)N[C@H]4C=C([C@H]([C@@H]([C@H]4O)O)O)CO
InChI: InChI=1S/C25H43NO18/c1-6-11(26-8-2-7(3-27)12(30)15(33)13(8)31)14(32)19(37)24(40-6)43-22-10(5-29)42-25(20(38)17(22)35)44-21-9(4-28)41-23(39)18(36)16(21)34/h2,6,8-39H,3-5H2,1H3/t6-,8+,9-,10-,11-,12-,13+,14+,15+,16-,17-,18-,19-,20-,21-,22-,23-,24-,25-/m1/s1
Instrument: Triple Quad 4500 (AB Sciex Pte. Ltd., USA)
Instrument type: LC-ESI-QQ
Ms type: MS2
Ion mode: POSITIVE
Collision energy: 25 eV
Fragmentation mode: CID
Ionization: ESI
Precursor m/z: 646.25529
Precursor type: [M+H]+
m/z	relative intensity
128.1381	3
146.1025	74
268.0921	2
286.0784	9
304.1203	858
308.1311	5
466.1621	23
488.1883	6
497.7928	1
532.8143	1
587.7102	2
591.8187	25
592.6000	3
628.2804	6
646.2371	999
