Mass spectrum: GlcNAcAsn; ESI-QQ; MS2; Positive; [M+H]+; CID; CE: 30 eV
Name: GlcNAcAsn
Name: N4-(beta-N-Acetyl-D-glucosaminyl)-L-asparagine
Name: Beta-D-GlcNAc-1->N-Asn
Class: Non-natural product.
Formula: C12H21N3O8
Exact mass: 335.132865
SMILES: CC(=O)N[C@@H]1[C@H]([C@@H]([C@H](O[C@H]1NC(=O)C[C@@H](C(=O)O)N)CO)O)O
InChI: InChI=1S/C12H21N3O8/c1-4(17)14-8-10(20)9(19)6(3-16)23-11(8)15-7(18)2-5(13)12(21)22/h5-6,8-11,16,19-20H,2-3,13H2,1H3,(H,14,17)(H,15,18)(H,21,22)/t5-,6+,8+,9+,10+,11+/m0/s1
Instrument: Triple Quad 4500 (AB Sciex Pte. Ltd., USA)
Instrument type: LC-ESI-QQ
Ms type: MS2
Ion mode: POSITIVE
Collision energy: 30 eV
Fragmentation mode: CID
Ionization: ESI
Precursor m/z: 336.140132
Precursor type: [M+H]+
m/z	relative intensity
100.9	30
101.2	9
101.4	9
106.2	7
108.7	17
109.1	10
109.3	12
109.8	8
110.3	7
111.04	7
115.7864	30
116.3	45
118.7	5
122	16
122.9	8
123.6	6
124.7	9
124.915	20
126.0742	999
127	14
127.2167	7
133.1164	329
134.9	15
137	6
137.2	10
138.0844	204
139	13
144.0307	43
145.3	7
148.8	7
149.2	15
150.7688	13
151.2833	17
152.8	14
154.2	14
155.8333	9
156	9
156.38	9
156.9	10
157.1	6
157.4	8
160.8	7
162.3	6
165	6
167.025	16
168.071	42
179.1	6
180.6	10
181.0654	37
186.0559	41
193.8	5
194.1962	29
195.1	15
195.4	6
197.9	6
198.2	7
198.8	7
203	13
204.0884	98
205.176	17
210.9	9
211.3	13
216.29	10
222.3	6
222.9364	6
223.4	8
223.9	5
240.07	16
240.4	9
247.1	5
262.1625	6
264.8	10
294.7	5
295	8
295.2	33
336.2422	93
