Mass spectrum: Soyasaponin I; ESI-QTOF; MS2; NEGATIVE; [M-H]-; CID; 80 V
Name: Soyasaponin I
Class: Triterpenoid saponin
Formula: C48H78O18
Exact mass: 942.51882
SMILES: C[C@H]1[C@@H]([C@H]([C@H]([C@@H](O1)O[C@@H]2[C@H]([C@H]([C@H](O[C@H]2O[C@@H]3[C@H]([C@@H]([C@H](O[C@H]3O[C@H]4CC[C@]5([C@H]([C@@]4(C)CO)CC[C@@]6([C@@H]5CC=C7[C@]6(CC[C@@]8([C@H]7CC(C[C@H]8O)(C)C)C)C)C)C)C(=O)O)O)O)CO)O)O)O)O)O
InChI: InChI=1S/C48H78O18/c1-21-29(52)31(54)35(58)40(61-21)65-37-32(55)30(53)24(19-49)62-41(37)66-38-34(57)33(56)36(39(59)60)64-42(38)63-28-12-13-45(5)25(46(28,6)20-50)11-14-48(8)26(45)10-9-22-23-17-43(2,3)18-27(51)44(23,4)15-16-47(22,48)7/h9,21,23-38,40-42,49-58H,10-20H2,1-8H3,(H,59,60)/t21-,23-,24+,25+,26+,27+,28-,29-,30-,31+,32-,33-,34-,35+,36-,37+,38+,40-,41-,42+,44+,45-,46+,47+,48+/m0/s1
Instrument: X500R QTOF (AB Sciex LLC, USA)
Instrument type: ESI-QTOF
Ms type: MS2
Ion mode: NEGATIVE
Collision energy: 80 V
Fragmentation mode: CID
Ionization: ESI
Precursor m/z: 941.51154
Precursor type: [M-H]-
m/z	relative intensity	assigned
59.013	212	[C2H6O2-3H]-
71.0129	98	[C3H8O2-5H]-
73.0286	45	[C3H8O2-3H]-
75.0078	73	[C2H4O3-H]-
83.0129	41	[C4H10O2-7H]-
85.0285	313	[C4H10O2-5H]-
87.0078	121	[C3H8O3-5H]-
87.0442	46	
89.0234	282	[C3H8O3-3H]-
95.0128	121	
99.0077	314	[C4H10O3-7H]-
101.0233	370	[C4H10O3-5H]-
103.0389	224	[C4H10O3-3H]-
112.0154	49	
113.0233	525	[C5H12O3-7H]-
115.0389	308	[C5H12O3-5H]-
119.0338	224	[C4H10O4-3H]-
131.0337	294	[C5H10O4-3H]-
139.0023	78	
143.0336	461	[C6H12O4-5H]-
145.0493	91	
157.0128	92	[C6H10O5-5H]-
161.0441	135	[C6H12O5-3H]-
163.0597	225	[C6H12O5-H]-
205.0701	443	[C8H16O6-3H]-
409.3453	108	
437.3399	196	
457.3661	288	[C30H50O3-H]-
615.3872	235	[C36H58O8-3H]-
941.5072	999	[C48H78O18-H]-
