Mass spectrum: Tetrahydroalstonine; APCI-ITTOF; MS2; [M+H]+
Name: Tetrahydroalstonine
Class: Natural Product; Alkaloids
Formula: C21H24N2O3
Exact mass: 352.17869
SMILES: C[C@H]1[C@@H]2CN3CCC4=C([C@@H]3C[C@@H]2C(=CO1)C(=O)OC)NC5=CC=CC=C45
InChI: InChI=1S/C21H24N2O3/c1-12-16-10-23-8-7-14-13-5-3-4-6-18(13)22-20(14)19(23)9-15(16)17(11-26-12)21(24)25-2/h3-6,11-12,15-16,19,22H,7-10H2,1-2H3/t12-,15-,16-,19-/m0/s1
Instrument: LCMS-IT-TOF (Shimadzu)
Instrument type: APCI-ITTOF
Ms type: MS2
Ion mode: POSITIVE
Collision energy: 40 %
Ionization: APCI
Precursor m/z: 353.18706
Precursor type: [M+H]+
m/z	relative intensity
144.0784	999
178.0866	130
190.0858	50
210.1124	502
222.1124	561
321.1594	156
353.1858	417
