Mass spectrum: (4R)-4-Methyl-6-heptenyl pivalate; GC-FI-TOF; MS; positive; FI; 10 kV
Name: (4R)-4-Methyl-6-heptenyl pivalate
Class: Non-natural product
Formula: C13H24O2
Exact mass: 212.17763
SMILES: C=CCC[C@@H](C)CCOC(=O)C(C)(C)C
InChI: InChI=1S/C13H24O2/c1-6-7-8-11(2)9-10-15-12(14)13(3,4)5/h6,11H,1,7-10H2,2-5H3/t11-/m1/s1
Instrument: JMS-T100GCV (JEOL, Akishima, Japan) coupled to Agilent 7890A (Agilent, Wilmington, USA) gas chromatograph.
Instrument type: GC-FI-TOF
Ms type: MS
Ion mode: POSITIVE
Ionization: FI
Column name: HP-5 19091 J-413 USD364547H (Agilent, Wilmington, USA), length 30.0 m, I.D. 0.32 mm, thickness 0.25 micrometer.
Retention time: 7.42 min.
m/z	relative intensity
21.304	24
42.047	48
55.053	48
57.07	999
58.073	72
73.334	23
83.084	75
85.064	226
86.381	26
110.113	191
111.116	56
112.111	28
128.126	54
151.992	31
155.106	153
156.113	37
157.119	38
160.311	26
170.128	574
171.131	66
182.168	95
184.144	66
194.165	67
212.178	568
212.299	30
213.182	268
214.182	41
