Mass spectrum: Demethoxycurcumin; ESI-ITTOF; MS2; [M-H]-
Name: Demethoxycurcumin
Class: Natural Product; Curcumins
Formula: C20H18O5
Exact mass: 338.11542
SMILES: COC1=C(C=CC(=C1)/C=C/C(=C/C(=O)/C=C/C2=CC=C(C=C2)O)/O)O
InChI: InChI=1S/C20H18O5/c1-25-20-12-15(6-11-19(20)24)5-10-18(23)13-17(22)9-4-14-2-7-16(21)8-3-14/h2-13,21,23-24H,1H3/b9-4+,10-5+,18-13-
Instrument: LC-IT-TOF (Shimadzu)
Instrument type: ESI-ITTOF
Ms type: MS2
Ion mode: NEGATIVE
Collision energy: 80 % by Ar 50 %
Ionization: ESI
Precursor m/z: 337.10705
Precursor type: [M-H]-
m/z	relative intensity
119.0538	98
143.0534	307
145.0308	101
149.063	58
158.0396	156
172.9328	91
173.0625	750
174.0657	86
175.0426	87
187.0414	259
216.9118	119
217.0506	999
218.0541	163
338.1087	94
