Mass spectrum: Ditolylguanidine; ESI-QTOF; MS2; ESI; POSITIVE; CE 20 V
Name: Ditolylguanidine
Class: Non-natural product
Formula: C15H17N3
Exact mass: 239.14224
SMILES: Cc1ccccc1NC(=N)Nc1ccccc1C
InChI: InChI=1S/C15H17N3/c1-11-7-3-5-9-13(11)17-15(16)18-14-10-6-4-8-12(14)2/h3-10H,1-2H3,(H3,16,17,18)
Instrument: X500R QTOF (AB Sciex LLC, USA)
Instrument type: ESI-QTOF
Ms type: MS2
Ion mode: POSITIVE
Collision energy: 20 V
Ionization: ESI
Precursor m/z: 240.14951
Precursor type: [M+H]+
m/z	relative intensity
106.0661	147
108.0802	691
116.0512	49
133.0753	768
223.1221	928
240.1485	999
