Mass spectrum: 3,4-Epoxy-7-octene; GC-FI-TOF; MS; positive; FI; 10 kV
Name: 3,4-Epoxy-7-octene
Class: Non-natural product
Formula: C8H14O
Exact mass: 126.10447
SMILES: CCC1OC1CCC=C
InChI: InChI=1S/C8H14O/c1-3-5-6-8-7(4-2)9-8/h3,7-8H,1,4-6H2,2H3
Instrument: JMS-T100GCV (JEOL, Akishima, Japan) coupled to Agilent 7890A (Agilent, Wilmington, USA) gas chromatograph.
Instrument type: GC-FI-TOF
Ms type: MS
Ion mode: POSITIVE
Ionization: FI
Column name: HP-5 19091 J-413 USD364547H (Agilent, Wilmington, USA), length 30.0 m, I.D. 0.32 mm, thickness 0.25 micrometer.
Retention time: 4.12 min.
m/z	relative intensity
85.064	256
97.065	180
111.080	999
126.104	324
