Mass spectrum: Glycitein; ESI-QTOF; MS2; POSITIVE; [M+H]+; CID; 60 V
Name: Glycitein
Class: Natural product; Isoflavone
Formula: C16H12O5
Exact mass: 284.06847
SMILES: COC1=C(C=C2C(=C1)C(=O)C(=CO2)C3=CC=C(C=C3)O)O
InChI: InChI=1S/C16H12O5/c1-20-15-6-11-14(7-13(15)18)21-8-12(16(11)19)9-2-4-10(17)5-3-9/h2-8,17-18H,1H3
Instrument: X500R QTOF (AB Sciex LLC, USA)
Instrument type: ESI-QTOF
Ms type: MS2
Ion mode: POSITIVE
Collision energy: 60 V
Fragmentation mode: CID
Ionization: ESI
Precursor m/z: 285.07575
Precursor type: [M+H]+
m/z	relative intensity
39.0226	36
50.0149	90
51.0227	46
52.0305	43
55.0176	66
65.0384	123
68.0255	70
77.0384	68
78.0099	107
78.0463	66
89.0384	168
90.0463	83
91.0541	229
96.0204	367
105.0333	123
106.0412	96
111.0438	95
115.054	403
118.041	999
121.0282	91
124.0152	235
125.0231	106
129.0696	107
139.0539	155
141.0696	276
157.0646	303
168.0567	445
169.0645	130
197.0596	177
