Mass spectrum: 2,2'-Methylenebis[6-(1-methylcyclohexyl)-p-cresol]; ESI-QTOF; MS2; NEGATIVE; [M-H]-; CID; 10 V
Name: 2,2'-Methylenebis[6-(1-methylcyclohexyl)-p-cresol]
Class: Natural product
Formula: C29H40O2
Exact mass: 420.30283
SMILES: CC1=CC(=C(C(=C1)C2(CCCCC2)C)O)CC3=C(C(=CC(=C3)C)C4(CCCCC4)C)O
InChI: InChI=1S/C29H40O2/c1-20-15-22(26(30)24(17-20)28(3)11-7-5-8-12-28)19-23-16-21(2)18-25(27(23)31)29(4)13-9-6-10-14-29/h15-18,30-31H,5-14,19H2,1-4H3
Instrument: X500R QTOF (AB Sciex LLC, USA)
Instrument type: ESI-QTOF
Ms type: MS2
Ion mode: NEGATIVE
Collision energy: 10 V
Fragmentation mode: CID
Ionization: ESI
Precursor m/z: 419.29555
Precursor type: [M-H]-
m/z	relative intensity	assigned
419.2898	999	[C29H40O2-H]-
