Mass spectrum: Ditolylguanidine; ESI-QTOF; MS2; ESI; POSITIVE; [M+H]+; CE 50 V
Name: Ditolylguanidine
Class: Non-natural product
Formula: C15H17N3
Exact mass: 239.142248
SMILES: CC1=CC=CC=C1NC(=NC2=CC=CC=C2C)N
InChI: InChI=1S/C15H17N3/c1-11-7-3-5-9-13(11)17-15(16)18-14-10-6-4-8-12(14)2/h3-10H,1-2H3,(H3,16,17,18)
Instrument: X500R QTOF (AB Sciex LLC, USA)
Instrument type: ESI-QTOF
Ms type: MS2
Ion mode: POSITIVE
Collision energy: 50 V
Ionization: ESI
Precursor m/z: 240.14951
Precursor type: [M+H]+
m/z	relative intensity
30.0344	53
39.0238	41
65.0385	599
77.0388	368
78.0354	60
79.0541	651
89.0385	649
91.0536	864
93.0569	841
104.0508	64
106.0645	937
107.0721	91
108.0806	723
116.0488	999
117.0573	252
118.0573	287
132.0687	289
133.0763	387
