Mass spectrum: Quinoclamine; ESI-QTOF; MS2; POSITIVE; [M+H]+; CID; 30 V
Name: Quinoclamine
Class: Non-natural product
Formula: C10H6ClNO2
Exact mass: 207.0087
SMILES: c1ccc2c(c1)C(=O)C(=C(C2=O)Cl)N
InChI: InChI=1S/C10H6ClNO2/c11-7-8(12)10(14)6-4-2-1-3-5(6)9(7)13/h1-4H,12H2
Instrument: X500R QTOF (AB Sciex LLC, USA)
Instrument type: ESI-QTOF
Ms type: MS2
Ion mode: POSITIVE
Collision energy: 30 V
Fragmentation mode: CID
Ionization: ESI
Precursor m/z: 208.0160
Precursor type: [M+H]+
m/z	relative intensity
77.0385	168
89.0386	105
101.0386	52
102.0464	63
105.0333	909
116.0494	163
126.0337	65
128.0494	362
137.0152	277
144.0444	271
154.0287	250
172.0393	582
180.0211	177
208.016	999
