Mass spectrum: (5R,11R)-5,11-Dimethyl-8-pentacosanol; GC-EI-TOF; MS; positive; EI; 70 V
Name: (5R,11R)-5,11-Dimethyl-8-pentacosanol
Class: Non-natural product
Formula: C27H56O
Exact mass: 396.43312
SMILES: C[C@H](CCCC)CCC(O)CC[C@H](C)CCCCCCCCCCCCCC
InChI: InChI=1S/C27H56O/c1-5-7-9-10-11-12-13-14-15-16-17-18-20-26(4)22-24-27(28)23-21-25(3)19-8-6-2/h25-28H,5-24H2,1-4H3/t25-,26-,27?/m1/s1
Instrument: JMS-T100GCV (JEOL, Akishima, Japan) coupled to Agilent 7890A (Agilent, Wilmington, USA) gas chromatograph.
Instrument type: GC-EI-TOF
Ms type: MS
Ion mode: POSITIVE
Ionization: EI
Column name: HP-5 19091 J-413 USD364547H (Agilent, Wilmington, USA), length 30 m, I.D. 0.32 mm, thickness 0.25 micrometer.
Retention time: 12.37 min.
m/z	relative intensity
27.024	20
28.006	13
28.032	7
29.040	85
30.045	3
31.019	5
31.990	5
39.024	15
40.032	5
41.040	269
41.090	3
41.129	2
41.345	1
42.047	49
42.091	2
43.019	13
43.055	634
43.181	3
43.335	2
43.380	2
43.585	2
43.620	2
43.837	2
44.027	14
44.059	20
44.113	1
45.034	13
53.040	11
54.047	21
55.055	490
55.115	6
55.202	2
55.385	2
55.676	2
56.063	373
56.124	4
57.034	51
57.071	763
57.132	9
57.214	1
57.442	2
57.473	2
57.700	1
57.736	2
57.976	2
58.042	38
58.074	31
59.050	13
59.084	1
65.042	3
66.048	3
67.055	77
68.062	42
69.071	999
69.137	10
69.422	3
69.482	3
69.762	2
69.785	2
70.077	206
70.376	2
70.406	2
71.050	23
71.086	291
71.159	4
71.212	2
72.058	8
72.090	15
73.048	18
79.055	10
80.062	10
81.071	114
82.078	104
82.160	2
83.086	684
83.263	2
83.511	2
83.795	2
83.851	2
83.883	2
84.092	92
84.173	3
84.490	2
84.851	2
85.066	35
85.102	211
85.230	3
85.526	2
86.070	3
86.105	13
87.081	6
93.071	5
94.079	3
95.086	97
95.144	2
96.005	3
96.093	48
97.102	420
97.603	1
98.108	101
98.188	2
99.081	4
99.117	84
100.089	6
100.121	6
101.096	6
109.102	34
110.109	19
111.117	221
111.272	2
112.124	53
113.097	2
113.133	29
114.105	2
114.140	4
115.113	3
123.117	17
124.125	17
125.133	233
125.596	1
125.664	1
126.137	28
127.149	16
127.899	1
127.986	2
133.015	4
135.064	5
137.134	6
138.139	7
139.149	45
140.156	14
141.163	11
142.136	49
143.144	429
143.672	2
144.097	1
144.147	41
145.150	3
147.066	4
151.147	4
152.156	4
153.164	21
154.171	14
155.179	8
157.159	5
165.174	2
166.171	2
167.180	13
168.187	7
169.193	6
171.900	1
176.984	2
180.188	9
181.195	20
182.203	19
183.211	7
191.001	5
193.012	1
194.206	2
195.059	2
195.211	9
196.218	17
197.226	9
199.202	2
207.033	38
208.033	7
209.030	4
209.227	5
210.234	16
210.304	1
211.240	4
222.235	18
223.242	42
224.249	20
225.257	8
236.248	2
237.253	2
238.266	44
239.271	18
240.275	3
248.974	1
252.280	10
253.018	7
253.288	3
254.019	2
264.281	8
265.288	12
266.296	3
266.997	2
278.302	2
280.315	2
281.052	10
281.284	5
282.051	3
282.289	3
283.051	2
283.300	325
284.059	1
284.134	2
284.303	67
284.389	1
285.308	7
293.324	1
297.314	2
320.345	4
321.351	8
322.360	4
324.994	2
327.038	2
329.067	2
331.061	4
336.373	7
337.372	2
341.020	5
342.015	2
346.087	2
350.391	10
351.397	3
355.072	3
378.423	96
379.426	28
380.430	4
403.095	2
405.084	2
429.094	3
