Mass spectrum: 1,6-Di(Cyanoguanidino)hexane; ESI-QTOF; MS2; ESI; POSITIVE; CE 40 V
Name: 1,6-Di(Cyanoguanidino)hexane
Class: Non-natural product
Formula: C10H18N8
Exact mass: 250.16541
SMILES: N#CNC(=N)NCCCCCCNC(=N)NC#N
InChI: InChI=1S/C10H18N8/c11-7-17-9(13)15-5-3-1-2-4-6-16-10(14)18-8-12/h1-6H2,(H3,13,15,17)(H3,14,16,18)
Instrument: X500R QTOF (AB Sciex LLC, USA)
Instrument type: ESI-QTOF
Ms type: MS2
Ion mode: POSITIVE
Collision energy: 40 V
Ionization: ESI
Precursor m/z: 251.17269
Precursor type: [M+H]+
m/z	relative intensity
30.0357	54
41.0407	33
43.0311	218
44.0515	30
45.0468	41
55.0313	37
55.056	999
68.0265	173
70.0423	45
70.0674	50
80.0518	66
81.0721	96
82.0674	104
83.0877	186
85.053	272
96.083	66
97.0531	48
98.0984	371
100.1143	61
108.0829	123
125.109	501
127.0747	64
167.1307	113
