Mass spectrum: Malic acid-[1-13C]; GC-EI-Q; MS; POSITIVE; 3 TMS-derivative
Name: Malic acid-[1-13C]
Class: In vitro synthetic compound
Formula: C4H6O5
Exact mass: 134.021523
SMILES: C(C(C(=O)O)O)C(=O)O
InChI: InChI=1S/C4H6O5/c5-2(4(8)9)1-3(6)7/h2,5H,1H2,(H,6,7)(H,8,9)/i4+1
Instrument: GCMS-QP2010 Ultra (Shimadzu, Kyoto, Japan)
Instrument type: GC-EI-Q
Ms type: MS
Ion mode: POSITIVE
Column name: DB-5MS+DG (Agilent Technologies, Santa Clara, CA, USA)
Derivative form: C13H30O5Si3
Derivative mass: 350.140106
Derivative type: 3 TMS
m/z	relative intensity	assigned
50	10	
51.05	37	
52	12	
55.05	30	
56.05	124	
57	14	
58.05	25	
59	77	
60	12	
61	29	
70	12	
71.05	12	
72.15	66	
73.05	999	
74.05	177	
75	446	
76	35	
77	24	
78	42	
100.05	17	
101	75	
102.05	20	
103.05	53	
104	11	
105.05	26	
116.05	12	
117	51	C4H9O2Si+
119	13	
129.05	21	
130.05	12	
131.05	35	
132.05	13	
133	125	
134	18	
135.05	14	
136.05	48	
143.05	19	
144.1	10	
147.05	569	
148.1	94	
149.05	64	
172	24	
175	44	
176	10	
177	14	
179	140	
180	21	
189.05	69	C7H17O2Si2+
190.05	39	
191	65	
192.05	14	
193	17	
217.05	27	
218	16	
221	11	
233	173	C9H21O3Si2+
234.05	59	
235.05	21	
246	91	
247.05	19	
248	12	
263.1	14	
265.05	24	
306.1	23	
307.1	27	C11H27O4Si3+
320.05	10	
336.05	36	C11(13C)H27O5Si3+
337.05	11	
