Mass spectrum: Isoxathion oxon; GC-EI-Q; MS; Positive; M+*
Name: Isoxathion oxon
Class: Non-Natural Product; Pesticides
Formula: C13H16NO5P
Exact mass: 297.07661
SMILES: [H]C([H])([H])C([H])([H])OP(=O)(OC([H])([H])C([H])([H])[H])Oc(n2)c([H])c(o2)c(c([H])1)c([H])c([H])c([H])c([H])1
InChI: InChI=1S/C13H16NO5P/c1-3-16-20(15,17-4-2)19-13-10-12(18-14-13)11-8-6-5-7-9-11/h5-10H,3-4H2,1-2H3
Instrument: GCMS-QP2010 Plus, Shimadzu
Instrument type: GC-EI-Q
Ms type: MS
Ion mode: POSITIVE
Ionization: EI
Column name: Ptx-5MS(RESTEK), 0.32 mm I.D. x 30 m, df=0.25 microm
Retention time: 12.9 min
Ion type: [M]+*
Precursor m/z: 297.1
m/z	relative intensity
40	8
42	48
43	29
44	5
45	28
46	65
48	13
50	112
51	229
54	7
61	28
62	31
65	23
67	31
69	65
70	14
72	10
74	21
76	35
77	685
78	209
80	14
81	98
82	63
83	16
85	14
87	25
89	57
90	10
91	72
92	11
93	10
94	6
99	183
100	31
102	106
103	54
104	9
105	999
106	103
108	5
109	57
111	14
113	37
116	37
118	25
119	16
123	5
124	7
125	76
126	23
127	95
129	62
133	50
135	20
137	19
143	7
145	99
146	61
150	17
152	10
153	10
154	10
156	17
157	5
160	14
161	271
162	25
171	29
172	58
173	95
180	13
181	16
182	6
187	10
188	37
192	8
194	19
198	7
199	7
203	27
204	7
209	11
213	19
218	8
220	7
223	14
224	18
226	14
227	15
230	11
231	5
233	10
241	13
254	71
268	6
269	11
277	6
282	37
305	5
308	6
331	5
343	13
350	5
355	7
362	7
375	18
381	8
409	12
415	18
436	6
466	18
470	13
471	7
498	21
503	9
519	7
530	8
531	20
536	5
540	5
543	15
552	6
565	5
571	9
582	6
