Mass spectrum: Okaramine B; ESI-QQ; MS2; POSITIVE; [M+H]+: CID; 15 eV
Name: Okaramine B
Class: Natural product; Indole alkaloid
Formula: C33H34N4O5
Exact mass: 566.25292
SMILES: CC1C(N2C13[C@@](C([C@]4(N3C(=O)/C/5=C/C6=C(C(/C=C\N5C4=O)(C)C)NC7=CC=CC=C76)O)OC)(C8=CC=CC=C82)O)(C)C
InChI: InChI=1S/C33H34N4O5/c1-18-30(4,5)36-23-14-10-8-12-21(23)31(40)27(42-6)32(41)28(39)35-16-15-29(2,3)25-20(19-11-7-9-13-22(19)34-25)17-24(35)26(38)37(32)33(18,31)36/h7-18,27,34,40-41H,1-6H3/b16-15-,24-17-/t18?,27?,31-,32-,33?/m0/s1
Instrument: ACQUITY UPLC H-Class/Xevo TQD (Waters, Milford, USA)
Instrument type: ESI-QQ
Ms type: MS2
Ion mode: POSITIVE
Collision energy: 15 eV
Fragmentation mode: CID
Ionization: ESI
Precursor m/z: 567.26018
Precursor type: [M+H]+
m/z	relative intensity
172.6	103
176.6	13
181.4	32
200.8	16
223.7	1
239.4	1
246.2	11
246.8	84
257.1	17
334.2	6
348.6	14
351.0	23
410.6	2
415.4	4
419.2	2
464.2	2
479.8	47
497.1	36
497.7	388
517.9	9
531.0	9
531.7	299
548.9	7
549.7	337
566.0	1
567.0	18
567.7	999
568.3	9
