Mass spectrum: GlcNAcAsn; ESI-QQ; MS2; Negative; [M-H]-; CID; CE: 30 eV
Name: GlcNAcAsn
Name: N4-(beta-N-Acetyl-D-glucosaminyl)-L-asparagine
Name: Beta-D-GlcNAc-1->N-Asn
Class: Non-natural product.
Formula: C12H21N3O8
Exact mass: 335.132865
SMILES: CC(=O)N[C@@H]1[C@H]([C@@H]([C@H](O[C@H]1NC(=O)C[C@@H](C(=O)O)N)CO)O)O
InChI: InChI=1S/C12H21N3O8/c1-4(17)14-8-10(20)9(19)6(3-16)23-11(8)15-7(18)2-5(13)12(21)22/h5-6,8-11,16,19-20H,2-3,13H2,1H3,(H,14,17)(H,15,18)(H,21,22)/t5-,6+,8+,9+,10+,11+/m0/s1
Instrument: Triple Quad 4500 (AB Sciex Pte. Ltd., USA)
Instrument type: LC-ESI-QQ
Ms type: MS2
Ion mode: NEGATIVE
Collision energy: 30 eV
Fragmentation mode: CID
Ionization: ESI
Precursor m/z: 334.125578
Precursor type: [M-H]-
m/z	relative intensity
100.1	8
100.9074	3
107	1
107.99	1
108.7868	11
109.7823	15
110.904	88
111.8962	8
112.8987	999
113.8351	14
118.9097	103
122.92	1
123.3	1
123.6	2
123.8188	2
124.0824	3
124.8797	10
125.9824	5
126.975	8
127.8883	6
130.94	9
134.9659	5
135.8978	6
136.9112	182
137.9818	1
138.9	1
139.1	2
140.0404	8
140.9745	11
141.9371	5
142.3	2
150.6237	6
150.8883	7
151.1912	8
151.5	3
151.8102	4
152.9195	118
153.8639	112
154.913	30
167	1
167.9386	6
168.592	3
168.8	2
169.0409	2
170.0088	9
172.25	1
178	18
178.896	655
179.825	2
180.2	2
180.8	3
181.6167	1
194.245	1
195.9392	848
196.9648	38
199.7	2
200.1158	2
201.9098	37
213.3364	2
213.9344	145
220.912	2
225.9	2
237.6	2
237.8	3
238	2
241.8	2
246.8333	1
247.2	1
288.4	1
288.8	2
297.5786	2
298.984	15
315.9711	16
334.0481	3
