Mass spectrum: Malonyldaidzin; ESI-QTOF; MS2; NEGATIVE; [M-H]-; CID; 10 V
Name: Malonyldaidzin
Class: Glycosyloxyisoflavone
Formula: C24H22O12
Exact mass: 502.11113
SMILES: C1=CC(=CC=C1C2=COC3=C(C2=O)C=CC(=C3)O[C@H]4[C@@H]([C@H]([C@@H]([C@H](O4)COC(=O)CC(=O)O)O)O)O)O
InChI: InChI=1S/C24H22O12/c25-12-3-1-11(2-4-12)15-9-33-16-7-13(5-6-14(16)20(15)29)35-24-23(32)22(31)21(30)17(36-24)10-34-19(28)8-18(26)27/h1-7,9,17,21-25,30-32H,8,10H2,(H,26,27)/t17-,21-,22+,23-,24-/m1/s1
Instrument: X500R QTOF (AB Sciex LLC, USA)
Instrument type: ESI-QTOF
Ms type: MS2
Ion mode: NEGATIVE
Collision energy: 10 V
Fragmentation mode: CID
Ionization: ESI
Precursor m/z: 501.10385
Precursor type: [M-H]-
m/z	relative intensity	assigned
253.0495	999	[C15H10O4-H]-
254.0534	116	
295.0609	177	[C17H14O5-3H]-
337.0717	66	[C19H18O6-5H]-
457.112	755	[C23H22O10-H]-
458.1171	57	
501.1028	167	[C24H22O12-H]-
