Mass spectrum: UDP-glucose; ESI-QTOF; MS2; NEGATIVE; [M-H]-; CID; 20 V
Name: UDP-glucose
Class: UDP-sugar
Formula: C15H24N2O17P2
Exact mass: 566.05502
SMILES: C1=CN(C(=O)NC1=O)[C@H]2[C@@H]([C@@H]([C@H](O2)COP(=O)(O)OP(=O)(O)O[C@@H]3[C@@H]([C@H]([C@@H]([C@H](O3)CO)O)O)O)O)O
InChI: InChI=1S/C15H24N2O17P2/c18-3-5-8(20)10(22)12(24)14(32-5)33-36(28,29)34-35(26,27)30-4-6-9(21)11(23)13(31-6)17-2-1-7(19)16-15(17)25/h1-2,5-6,8-14,18,20-24H,3-4H2,(H,26,27)(H,28,29)(H,16,19,25)/t5-,6-,8-,9-,10+,11-,12-,13-,14-/m1/s1
Instrument: X500R QTOF (AB Sciex LLC, USA)
Instrument type: ESI-QTOF
Ms type: MS2
Ion mode: NEGATIVE
Collision energy: 20 V
Fragmentation mode: CID
Ionization: ESI
Precursor m/z: 565.04774
Precursor type: [M-H]-
m/z	relative intensity	assigned
282.0179	9	
323.0265	114	[C9H13N2O9P-H]-
565.0444	999	[C15H24N2O17P2-H]-
