Mass spectrum: Phosphatidyl-6-acetyl-glucose(18:0/20:0); ESI-ITFT; MS; Negative
Name: Phosphatidyl-6-acetyl-glucose(18:0/20:0)
Class: Natural Product; Phospholipids
Formula: C49H93O14P
Exact mass: 936.63029
SMILES: CCCCCCCCCCCCCCCCCCCC(=O)O[C@H](COC(CCCCCCCCCCCCCCCCC)=O)CO[P](O)(=O)O[C@@H]1[C@H]([C@@H]([C@H]([C@H](COC(C)=O)O1)O)O)O
InChI: InChI=1S/C49H93O14P/c1-4-6-8-10-12-14-16-18-20-21-23-25-27-29-31-33-35-37-45(52)61-42(38-59-44(51)36-34-32-30-28-26-24-22-19-17-15-13-11-9-7-5-2)39-60-64(56,57)63-49-48(55)47(54)46(53)43(62-49)40-58-41(3)50/h42-43,46-49,53-55H,4-40H2,1-3H3,(H,56,57)/t42-,43+,46+,47-,48+,49-/m1/s1
Instrument: APEX-II FT-ICR (Bruker Daltonics)
Instrument type: ESI-ITFT
Ms type: MS
Ion mode: NEGATIVE
Ionization: ESI
m/z	relative intensity
935.62239	999
936.62649	530
937.62901	189
