Mass spectrum: Malic acid-[2-13C]; GC-EI-Q; MS; POSITIVE; 3TBDMS-derivative
Name: Malic acid-[2-13C]
Class: In vitro synthetic compound
Formula: C4H6O5
Exact mass: 134.02152
SMILES: O=C(O)C(O)CC(=O)O
InChI: InChI=1S/C4H6O5/c5-2(4(8)9)1-3(6)7/h2,5H,1H2,(H,6,7)(H,8,9)/i2+1
Instrument: GCMS-QP2010 Ultra (Shimadzu, Kyoto, Japan)
Instrument type: GC-EI-Q
Ms type: MS
Ion mode: POSITIVE
Column name: DB-5MS+DG (Agilent Technologies, Santa Clara, CA, USA)
Derivative form: C22H48O5Si3
Derivative mass: 476.28095
Derivative type: 3 TBDMS
m/z	relative intensity	assigned
56	101	
57	31	
58	16	
59	61	
70.1	13	
73.05	999	
74.05	88	
75.05	107	
85.1	14	
99.05	15	
102.05	14	
115.15	277	
116.15	33	
117.1	17	
130.1	16	
131.1	11	
133.1	105	
134.1	14	
135.05	11	
147.15	288	
148.1	46	
149.1	52	
176.1	16	
189.1	89	
190.1	17	
191.1	11	
204.05	10	
207.05	16	
214.1	16	
218.1	40	C8(13C)H21O2Si2+H21O2Si2+
260.1	17	
288.15	167	
289.15	36	
290.15	18	
318.2	13	C14(13C)H33O3Si2+
348.2	20	
350.2	24	C14(13C)H37O3Si3+
392.2	27	C16(13C)H39O4Si3+
404.2	50	
405.2	17	
420.2	213	
421.2	70	
422.2	35	
462.25	10	
