Mass spectrum: Glc4; ESI-QQ; MS2; Positive; [M+H]+; CID; CE: 50 eV
Name: Glc4
Name: Isomaltosylmaltose
Name: Glc(a1-6)Glc(a1-4)Glc(a1-4)Glc
Class: Non-natural product.
Formula: C24H42O21
Exact mass: 666.221865
SMILES: O[C@@H]1[C@@H](O)[C@H](O)[C@@H](CO)O[C@@H]1OC[C@H]1O[C@H](O[C@@H]2[C@@H](CO)O[C@H](O[C@@H]3[C@@H](CO)OC(O)[C@H](O)[C@H]3O)[C@H](O)[C@H]2O)[C@H](O)[C@@H](O)[C@@H]1O
InChI: InChI=1S/C24H42O21/c25-1-5-9(28)11(30)16(35)22(41-5)39-4-8-10(29)12(31)17(36)23(43-8)45-20-7(3-27)42-24(18(37)14(20)33)44-19-6(2-26)40-21(38)15(34)13(19)32/h5-38H,1-4H2/t5-,6-,7-,8-,9-,10-,11+,12+,13-,14-,15-,16-,17-,18-,19-,20-,21?,22+,23-,24-/m1/s1
Instrument: Triple Quad 4500 (AB Sciex Pte. Ltd., USA)
Instrument type: LC-ESI-QQ
Ms type: MS2
Ion mode: POSITIVE
Collision energy: 50 eV
Fragmentation mode: CID
Ionization: ESI
Precursor m/z: 667.229142
Precursor type: [M+H]+
m/z	relative intensity
101	2
105.2	2
107.1	2
109.0649	26
111.1	2
111.81	4
114.89	13
116.8	3
117.3	6
118.9	2
121	3
121.3	5
122.75	2
123.3	6
125.2	2
127.0636	77
131.1	3
131.3	6
133.1	2
133.4	3
134.9	6
135.1	6
138.9	3
141.2	4
145.1334	185
147	3
151.1	4
153.2	6
154.8	2
155.0667	5
157	4
158.2	2
161.4	2
163.0618	55
165	5
165.4	9
166.9167	4
167.4	7
168.9929	5
169.4	4
170.8	3
171.2444	8
173	4
175.1	4
175.3	2
177.3	2
179.1	4
180.8	11
181.0453	14
181.275	17
182.8	5
183.064	14
183.4	5
185.2244	9
187	3
187.2	4
190.8	2
193	5
193.2778	6
195.1125	15
195.4	14
197.1282	9
199.0714	25
201.2227	7
203	2
205.2	7
206.8	2
207	4
207.2722	5
209.1337	19
211.1972	9
212.2	1
213.1341	20
213.5	5
215.1143	3
217.3	4
218.9	8
219.4333	3
220.98	3
221.3083	4
223.1	21
225.186	10
227.0916	16
228.9	2
229.5	4
231.1464	6
232.9	3
233.27	3
234.9	5
235.3182	7
237.1462	19
238.8364	6
239.2063	14
240.3	3
240.6455	5
241.0736	29
242.9	3
243.4	4
243.6	2
244.7833	2
245.1	4
246.7	2
247.0286	4
249.06	6
251	20
251.3168	21
252	4
252.2	4
252.8	9
253.0611	4
253.4179	9
254.4	1
255.199	14
256.3	4
256.8833	2
257.2	4
258.9	5
259.2	4
260.9	4
261.2	5
261.45	2
262.9361	13
263.1	13
263.4625	18
265	10
265.1853	12
266.98	10
267.4205	7
268.8	8
269.0794	21
269.4	19
270.8083	4
271.1	5
271.3	2
271.7	2
272.2125	3
272.8	2
274.8	4
275.1125	3
275.4	4
277.17	15
278.4	2
279.1802	57
280.4	2
280.7	4
281.3409	33
283.2031	16
283.8	2
284.5	2
285.4	2
288.8312	4
289.2	5
289.5	5
291.195	8
291.5	2
293	8
293.225	8
294.1	3
295.1794	19
296.0111	2
297.2337	40
298.9	2
299.2	2
301.1	2
301.3	2
303.2041	7
305.23	27
307.2671	120
307.925	5
308.2	2
309.2983	102
309.8	7
310.3	2
310.54	2
311.2813	58
312.2532	7
312.725	4
313.0917	9
313.525	4
314.4	4
317.2206	11
317.5	4
319.2152	31
320.2	2
320.8	2
321.1111	6
322.8	6
323.221	19
325.2216	88
326	1
327.3077	15
327.6	4
328.8222	2
329.3	1
330.1	2
330.8	1
331.025	4
331.5	4
333.05	14
335.2198	10
336	19
336.342	23
337.2972	999
338.3417	6
339.2466	125
339.8654	7
340.3222	6
340.9708	7
341.5267	9
341.8	2
342.1167	2
342.5	3
342.7	5
343.2611	4
345.22	4
346.9	4
347.2591	5
347.6	3
349	5
349.2	3
351.2501	61
353.1216	23
353.85	2
354.2818	10
355.2735	134
361	2
361.2	2
363.2	8
363.45	2
365.2895	19
366.8818	3
367.4125	6
368.4333	2
368.8	6
369	6
369.3	12
369.6	3
369.9	2
370.9	2
371.5	7
372.9286	6
373.3281	9
373.8375	2
374.5	7
374.8974	12
377.3	1
377.5	4
379.3	6
381.1918	48
382.1	3
382.325	1
383.2578	599
385	6
386.2	2
386.9	6
387.2	4
387.4	2
388	3
388.3	2
389.2	2
391	5
392.5	2
393.0375	6
393.53	3
395.1	1
396.8	3
397.32	5
397.6	4
398.9	2
399.1	2
399.5	3
400.2333	2
400.4	3
401.2604	43
401.9	2
403.1	2
404.9	1
405.3125	3
405.6	3
407.2	4
408.9286	4
409.2	4
409.4	2
409.6	2
410.5	4
411.2674	15
413.1	2
415.1	2
415.3	1
416.8	1
417.1	2
418.8	3
419.05	4
419.3	3
419.57	6
421.2	2
421.5	2
422.9	3
423.2	4
425.2661	8
425.7	8
426.6	2
426.8	2
427.3	3
429.0833	4
431.1167	2
431.8	2
433.2	4
433.5875	3
435.1	4
437.34	4
439.35	10
440.9	2
441.1	3
441.4	3
442.4	6
445.02	3
445.5	2
446.4	1
447.1	7
447.5	3
449	2
450.7625	2
451	6
451.3	5
453.2318	12
453.7	6
455.3	3
457.0667	2
457.3	2
458.97	3
459.3	2
459.5	2
461.1	2
461.5	2
463.5	1
465.0833	8
465.4	6
465.9	4
467.3433	12
471.4	7
473.3	2
475.2	2
475.4	3
475.7	1
477.1	3
479.2	6
479.5542	8
480.9	4
481.2269	8
481.535	7
482	2
485	5
485.4	2
487.1167	2
489.2	2
489.5	2
491	2
491.2	2
493.425	6
495	5
495.345	9
497.04	2
497.6	3
498.1	5
498.3	5
498.6	4
499.1833	2
499.625	1
501.1	4
503	1
503.5	3
505.2	3
505.5	2
507.3564	8
509.1	2
509.58	5
510.8	1
513.3	4
517.2846	4
519.1	2
519.6	3
521.2	3
521.6	6
523.1	2
523.5656	5
529.2778	2
531	3
531.5	3
531.7	2
533.3	5
533.5	4
533.9	1
535.5303	15
535.8	4
536	2
537.4515	126
539.4	3
541	1
542.4	3
547.2	4
547.6	5
549.3	4
549.6286	1
551.1	3
551.3	2
551.5	5
553.3	1
553.6	1
555.4071	3
557.1403	18
563.5118	154
565.1	3
565.3	6
565.7	6
566.3	4
566.6166	2
567.1667	2
567.5	4
567.8167	2
573.3	4
573.5083	4
575.2667	6
575.6	6
576.6	1
581.1	3
583.7	1
585.4	2
586.9	1
589.1	4
589.4	3
591.5716	25
592.4	2
593.5446	289
594.3	2
595	1
601.4	3
607.4	1
608.2	1
608.4	1
611.1	2
611.4437	5
613.1308	3
613.8	1
619.1	3
619.3	4
619.6	4
619.8	2
621.3	3
621.6	2
631	2
631.17	3
631.6333	2
637.2	1
649	4
649.4774	6
651.4	2
667.5098	17
