Mass spectrum: Trametenolic acid; ESI-QTOF; MS; NEGATIVE
Name: Trametenolic acid
Class: Non-natural product; Triterpenoid
Formula: C30H48O3
Exact mass: 456.36035
SMILES: CC(=CCC[C@H]([C@H]1CC[C@@]2([C@@]1(CCC3=C2CC[C@@H]4[C@@]3(CC[C@@H](C4(C)C)O)C)C)C)C(=O)O)C
InChI: InChI=1S/C30H48O3/c1-19(2)9-8-10-20(26(32)33)21-13-17-30(7)23-11-12-24-27(3,4)25(31)15-16-28(24,5)22(23)14-18-29(21,30)6/h9,20-21,24-25,31H,8,10-18H2,1-7H3,(H,32,33)/t20-,21-,24+,25+,28-,29-,30+/m1/s1
Instrument: X500R QTOF (AB Sciex LLC, USA)
Instrument type: ESI-QTOF
Ms type: MS
Ion mode: NEGATIVE
Ionization: ESI
m/z	relative intensity
455.3516	999
456.356	304
457.3598	48
511.3419	190
512.3458	61
911.7133	64
