Mass spectrum: Azinphos-methyl; GC-EI-Q; MS; Positive; M+*
Name: Azinphos-methyl
Class: Non-Natural Product; Pesticides
Formula: C10H12N3O3PS2
Exact mass: 317.00577
SMILES: [H]c(c([H])2)c([H])c(N=1)c(c([H])2)C(=O)N(N1)C([H])([H])SP(=S)(OC([H])([H])[H])OC([H])([H])[H]
InChI: InChI=1S/C10H12N3O3PS2/c1-15-17(18,16-2)19-7-13-10(14)8-5-3-4-6-9(8)11-12-13/h3-6H,7H2,1-2H3
Instrument: GCMS-QP2010 Plus, Shimadzu
Instrument type: GC-EI-Q
Ms type: MS
Ion mode: POSITIVE
Ionization: EI
Column name: Ptx-5MS(RESTEK), 0.32 mm I.D. x 30 m, df=0.25 microm
Retention time: 18.2 min
Ion type: [M]+*
Precursor m/z: 317.01
m/z	relative intensity
40	8
41	38
42	38
43	79
44	112
45	75
46	47
47	163
48	27
49	25
50	170
51	215
52	30
53	13
54	18
55	39
56	35
57	56
58	9
59	13
62	73
63	230
64	64
65	26
67	6
69	18
70	39
71	25
72	11
74	53
75	47
76	283
77	999
78	139
79	100
80	29
81	7
82	15
83	5
88	5
89	7
90	47
91	12
92	31
93	314
94	35
95	31
96	7
97	9
98	8
99	6
102	64
103	89
104	348
105	427
106	45
108	11
109	29
111	12
112	14
113	27
116	18
118	20
119	27
121	27
125	143
126	70
127	21
130	15
131	18
132	841
133	117
134	17
135	5
136	43
138	6
140	5
142	5
144	5
145	9
146	18
147	10
149	124
150	8
155	8
156	5
157	22
158	31
159	5
160	725
161	104
164	8
166	5
167	41
171	19
172	7
176	5
181	5
193	8
205	7
222	17
231	19
249	9
279	14
281	13
365	5
370	10
