Mass spectrum: beta-Chlorfenvinphos; GC-EI-Q; MS; Positive
Name: beta-Chlorfenvinphos
Name: (Z)- Chlorfenvinphos
Class: Non-Natural Product; Pesticides
Formula: C12H14Cl3O4P
Exact mass: 357.96953
SMILES: CCOP(=O)(OCC)O/C(=C\Cl)/C1=C(C=C(C=C1)Cl)Cl
InChI: InChI=1S/C12H14Cl3O4P/c1-3-17-20(16,18-4-2)19-12(8-13)10-6-5-9(14)7-11(10)15/h5-8H,3-4H2,1-2H3/b12-8-
Instrument: GCMS-QP2010 Plus, Shimadzu
Instrument type: GC-EI-Q
Ms type: MS
Ion mode: POSITIVE
Ionization: EI
Column name: Ptx-5MS(RESTEK), 0.32 mm I.D. x 30 m, df=0.25 microm
Retention time: 11.63 min
Ion type: [M]+*
Precursor m/z: 357.97
m/z	relative intensity
40	16
41	9
43	55
45	95
47	21
48	12
50	40
51	16
57	12
61	15
62	33
63	31
65	63
67	12
73	70
74	130
75	145
76	85
77	13
78	36
81	626
82	31
84	16
85	37
86	25
87	43
88	13
89	33
91	221
92	13
93	16
95	10
97	40
98	48
99	240
100	28
102	13
108	18
109	492
110	69
111	81
112	21
113	15
115	12
121	10
123	221
124	28
125	148
127	36
133	98
134	60
135	81
136	13
137	57
138	13
139	16
141	10
143	12
145	155
146	121
147	106
148	83
149	30
150	15
152	19
153	596
154	12
155	10
157	34
158	49
159	264
160	37
161	160
162	19
163	16
169	66
170	410
171	95
172	252
173	246
174	66
175	160
176	13
177	30
186	21
269	999
325	969
358	12
