Mass spectrum: N-(3-Oxobutyl)-tyrosine; FAB-BE; MS; [M+H]+
Name: N-(3-Oxobutyl)-tyrosine
Name: [3-(4'-Hydroxyphenyl)-2-(3''-oxobutylamino)-propanoic acid]
Class: Natural Product; amino acid derivative
Formula: C13H17NO4
Exact mass: 251.11576
SMILES: CC(=O)CCNC(C(O)=O)Cc(c1)ccc(O)c1
InChI: InChI=1S/C13H17NO4/c1-9(15)6-7-14-12(13(17)18)8-10-2-4-11(16)5-3-10/h2-5,12,14,16H,6-8H2,1H3,(H,17,18)
Instrument: JMS-700, JEOL
Instrument type: FAB-BE
Ms type: MS
Ion mode: POSITIVE
Collision energy: 5 keV
Ionization: FAB
Precursor m/z: 252.1230
Precursor type: [M+H]+
m/z	relative intensity
38.9	17
40.9	28
41.9	9
42.9	58
43.9	26
45	425
45.9	14
47	30
49	8
52	11
54.9	24
55.9	56
57	544
57.9	35
58.9	14
59.9	24
60.9	56
68.9	14
70.9	15
72	21
73	60
74	135
75.1	994
76	37
77	13
83	9
84.9	10
86.9	18
87.8	27
89	13
89.9	42
91	19
92.9	998
94	166
94.9	36
98.9	11
99.9	14
100.8	11
102.9	14
104.8	14
107	29
111.1	7
113	8
115.1	104
116	8
116.9	17
118.9	7
120	7
120.9	9
122.8	25
129	16
131	23
132	8
133	8
135	11
136	16
137.1	16
143.9	16
144.9	13
145.9	10
146.7	20
147.8	19
148.8	15
149.9	8
150.8	8
151.8	17
152.9	24
161	7
162.9	9
164	7
164.9	28
165.9	28
166.9	45
167.9	15
168.9	11
179.9	14
181.9	26
182.9	53
185	999
186	324
187	70
188	8
194	26
195	10
197	16
198	7
199	18
203	7
204.9	8
205.9	14
206.9	78
207.9	16
208.9	10
209.8	7
214.9	26
223	29
223.9	7
224.9	8
228.9	11
235.9	8
236.9	7
238.9	20
241	7
244	10
244.9	19
246.8	7
249.8	7
250.9	11
251.9	157
252.9	41
253.9	26
254.9	11
256.9	13
257.9	7
258.9	20
265.9	7
268	7
273.1	7
274.7	33
277	571
278	62
278.9	16
288.9	7
298.9	16
307	11
315	14
320.9	7
336.9	21
344	21
344.9	8
348.9	8
350.9	8
352.8	9
367	13
369	152
370	24
371	9
391	7
428.9	9
436.1	8
458.9	7
460.8	51
