Mass spectrum: ((2S,5S)-5-Allyltetrahydrofuran-2-yl)methanol; GC-EI-TOF; MS; POSITIVE; EI; 70 V
Name: ((2S,5S)-5-Allyltetrahydrofuran-2-yl)methanol
Class: Non-natural compound
Formula: C8H14O2
Exact mass: 142.09938
SMILES: C=CC[C@@H]1CC[C@@H](CO)O1
InChI: InChI=1S/C8H14O2/c1-2-3-7-4-5-8(6-9)10-7/h2,7-9H,1,3-6H2/t7-,8+/m1/s1
Instrument: JMS-T100GCV (JEOL, Akishima, Japan) coupled to Agilent 7890A gas chromatograph.
Instrument type: GC-EI-TOF
Ms type: MS
Ion mode: POSITIVE
Ionization: EI
Column name: ZB-1MS 7HM-G011-11 sn:313446, length 30.0 m, I.D. 0.32 mm, thickness 0.25 micrometer.
Retention time: 6.01 min.
m/z	relative intensity
26.016	7
27.023	128
27.065	1
28.006	15
28.031	21
29.003	75
29.039	103
29.083	1
30.01	4
30.043	3
31.018	173
31.064	2
31.99	9
32.023	3
38.016	8
39.024	228
39.074	2
40.031	28
41.039	419
41.089	4
42.011	15
42.046	63
43.018	133
43.055	105
44.026	64
44.058	4
45.034	78
50.016	7
51.024	19
52.031	10
53.039	68
54.047	79
55.018	45
55.055	445
56.024	4
56.058	20
57.034	999
57.093	10
57.407	3
57.659	2
57.942	1
58.038	33
59.05	42
63.024	3
65.039	39
66.046	10
67.055	507
67.422	1
67.457	2
68.026	6
68.059	32
69.034	34
69.07	18
70.042	22
71.05	31
72.055	2
73.065	24
77.039	33
78.045	5
79.055	21
80.06	3
81.034	5
81.07	31
82.041	3
82.076	4
83.05	118
83.086	39
84.053	7
84.09	3
91.055	33
92.058	3
93.07	191
94.074	15
95.05	2
101.06	505
101.254	1
101.511	2
101.556	1
102.064	27
103.064	3
111.081	171
112.085	13
