Mass spectrum: Oryzalin; LC-ESI-QTOF; MS2; ESI; NEGATIVE; CE 50 V
Name: Oryzalin
Class: Non-natural product
Formula: C12H18N4O6S
Exact mass: 346.09469
SMILES: CCCN(CCC)c1c([N+](=O)[O-])cc(S(N)(=O)=O)cc1[N+](=O)[O-]
InChI: InChI=1S/C12H18N4O6S/c1-3-5-14(6-4-2)12-10(15(17)18)7-9(23(13,21)22)8-11(12)16(19)20/h7-8H,3-6H2,1-2H3,(H2,13,21,22)
Instrument: ExionLC AD, AB Sciex LLC, USA; X500R QTOF, AB Sciex LLC, USA.
Instrument type: LC-ESI-QTOF
Ms type: MS2
Ion mode: NEGATIVE
Collision energy: 50 V
Ionization: ESI
Column name: AQ-C18HP 3 microm, 2.1 mm Ã— 150 mm, GL Science (Tokyo Japan)
Retention time: 14.3 min
Precursor m/z: 345.08741
Precursor type: [M-H]-
m/z	relative intensity
41.9981	100
45.9929	999
50.0035	34
60.9747	82
61.9704	83
63.962	38
65.0141	107
65.9983	93
77.9651	738
78.973	42
79.981	144
89.0142	246
90.9853	41
91.0299	60
92.014	45
94.0292	42
106.0171	71
107.0249	70
115.0299	67
116.0252	314
117.0453	33
118.0409	59
119.0249	131
120.0562	58
121.0404	164
122.025	60
129.0329	80
131.0487	116
132.0324	171
133.0279	47
133.0402	98
134.0357	47
136.0513	58
144.0692	55
145.04	71
146.0361	71
146.0482	83
147.0437	270
147.0553	104
148.0278	94
149.0357	58
157.0641	69
160.052	56
160.0637	126
161.0714	80
162.0308	60
169.052	48
174.0671	91
222.0339	117
241.0036	74
267.0193	88
295.2462	371
313.2564	127
