Mass spectrum: 1-(9Z-Octadecenoyl)-sn-glycero-3-phosphocholine; MALDI-QITTOF; MS2; POSITIVE; [M+H]+; RID
Name: Lyso-PC 18:1(9Z)
Name: 1-(9Z-Octadecenoyl)-sn-glycero-3-phosphocholine
Class: Natural product; Phospholipid
Formula: C26H52NO7P
Exact mass: 521.3481
SMILES: CCCCCCCC/C=C\CCCCCCCC(=O)OC[C@H](COP(=O)([O-])OCC[N+](C)(C)C)O
InChI: InChI=1S/C26H52NO7P/c1-5-6-7-8-9-10-11-12-13-14-15-16-17-18-19-20-26(29)32-23-25(28)24-34-35(30,31)33-22-21-27(2,3)4/h12-13,25,28H,5-11,14-24H2,1-4H3/b13-12-/t25-/m1/s1
Instrument: MALDI-QITTOF noncommercial prototype model (Shimadzu Corporation, Kyoto, Japan)
Instrument type: MALDI-QITTOF
Ms type: MS2
Ion mode: POSITIVE
Fragmentation mode: RID
Ionization: MALDI
Ion type: [M+H]+
Precursor m/z: 522.3554
m/z	relative intensity
303.954	22
306.147	40
316.441	34
322.129	24
335.043	50
336.159	30
341.316	36
353.037	36
383.951	30
396.233	26
402.241	22
409.117	24
419.147	22
423.121	26
424.232	123
426.225	185
438.242	32
449.905	38
456.953	28
458.398	22
465.25	36
468.655	20
484.758	24
515.316	2
516.338	1
517.335	2
518.301	1
519.313	5
520.339	41
521.347	34
522.355	999
522.56	39
522.863	9
523.121	13
523.352	320
523.576	10
523.88	8
524.164	9
524.362	75
525.361	12
526.214	1
526.353	1
527.221	1
528.348	1
529.197	1
529.317	2
533.341	1
535.329	2
536.337	4
537.32	1
538.344	31
539.349	7
540.341	3
