Mass spectrum: (2S,5S)-2-((S)-2-Acetoxybut-3-en-1-yl)-5-(acetoxymethyl)tetrahydrofuran; GC-FI-TOF; MS; positive; FI; 10 kV
Name: (2S,5S)-2-((S)-2-Acetoxybut-3-en-1-yl)-5-(acetoxymethyl)tetrahydrofuran
Class: Non-natural compound
Formula: C13H20O5
Exact mass: 256.13107
SMILES: O=C(C)OC[C@@H]1CC[C@@H](C[C@@H](C=C)OC(C)=O)O1
InChI: InChI=1S/C13H20O5/c1-4-11(17-10(3)15)7-12-5-6-13(18-12)8-16-9(2)14/h4,11-13H,1,5-8H2,2-3H3/t11-,12+,13+/m1/s1
Instrument: JMS-T100GCV (JEOL, Akishima, Japan) coupled to Agilent 7890A (Agilent, Wilmington, USA) gas chromatograph.
Instrument type: GC-FI-TOF
Ms type: MS
Ion mode: POSITIVE
Ionization: FI
Column name: ZB-1MS 7HM-G011-11 sn:313446 (Agilent, Wilmington, USA), length 30.0 m, I.D. 0.32 mm, thickness 0.25 micrometer.
Retention time: 9.04 min.
m/z	relative intensity
43.019	322
60.021	17
61.029	18
73.03	43
99.044	37
136.088	121
137.093	21
143.069	91
156.078	16
178.096	85
183.101	999
184.105	108
185.106	12
196.107	977
197.111	176
198.115	20
213.108	62
214.116	116
215.12	16
238.117	62
255.122	32
256.131	285
257.137	173
258.14	25
