Mass spectrum: Avermectin B1b; LC-ESI-QTOF; MS2; ESI; NEGATIVE; CE 30 V
Name: Avermectin B1b
Class: Non-natural product
Formula: C47H70O14
Exact mass: 858.47656
SMILES: CO[C@H]1C[C@H](O[C@H]2[C@H](C)O[C@@H](O[C@@H]3/C(C)=C/C[C@@H]4C[C@@H](C[C@]5(C=C[C@H](C)[C@@H](C(C)C)O5)O4)OC(=O)[C@@H]4C=C(C)[C@@H](O)[C@H]5OC/C(=C\C=C\[C@@H]3C)[C@@]45O)C[C@@H]2OC)O[C@@H](C)[C@@H]1O
InChI: InChI=1S/C47H70O14/c1-24(2)41-27(5)16-17-46(61-41)22-33-19-32(60-46)15-14-26(4)42(25(3)12-11-13-31-23-54-44-39(48)28(6)18-34(45(50)57-33)47(31,44)51)58-38-21-36(53-10)43(30(8)56-38)59-37-20-35(52-9)40(49)29(7)55-37/h11-14,16-18,24-25,27,29-30,32-44,48-49,51H,15,19-23H2,1-10H3/b12-11+,26-14+,31-13+/t25-,27-,29-,30-,32+,33-,34-,35-,36-,37-,38-,39+,40-,41+,42-,43-,44+,46+,47+/m0/s1
Instrument: ExionLC AD, AB Sciex LLC, USA; X500R QTOF, AB Sciex LLC, USA.
Instrument type: LC-ESI-QTOF
Ms type: MS2
Ion mode: NEGATIVE
Collision energy: 30 V
Ionization: ESI
Column name: AQ-C18HP 3 microm, 2.1 mm Ã— 150 mm, GL Science (Tokyo Japan)
Retention time: 16.0 min
Precursor m/z: 857.46928
Precursor type: [M-H]-
m/z	relative intensity
97.0661	22
109.0292	45
229.1082	708
230.1132	43
345.1491	45
443.2243	128
497.2696	32
515.2808	320
516.2866	94
551.3018	999
552.3064	247
575.2663	135
745.3937	160
746.3985	52
747.434	254
775.4251	42
813.4768	150
814.4872	53
821.451	806
822.4538	307
839.4616	877
839.6429	37
840.247	161
840.463	330
857.4221	40
