Mass spectrum: O,P'-DDT; GC-EI-Q; MS; Positive
Name: O,P'-DDT
Class: Non-Natural Product; Pesticides
Formula: C14H9Cl5
Exact mass: 351.91469
SMILES: C1=CC=C(C(=C1)C(C2=CC=C(C=C2)Cl)C(Cl)(Cl)Cl)Cl
InChI: InChI=1S/C14H9Cl5/c15-10-7-5-9(6-8-10)13(14(17,18)19)11-3-1-2-4-12(11)16/h1-8,13H
Instrument: GCMS-QP2010 Plus, Shimadzu
Instrument type: GC-EI-Q
Ms type: MS
Ion mode: POSITIVE
Ionization: EI
Column name: Ptx-5MS(RESTEK), 0.32 mm I.D. x 30 m, df=0.25 microm
Retention time: 14.43 min
m/z	relative intensity
40	8
44	20
45	5
50	22
51	30
62	16
63	19
69	7
73	16
74	34
75	89
76	21
77	17
81	19
82	63
85	12
86	15
87	50
88	97
89	21
92	11
93	15
98	9
99	46
100	29
101	33
102	14
104	5
105	60
106	39
107	11
108	5
110	20
111	20
113	13
114	7
115	5
117	5
119	5
122	14
123	54
124	26
125	18
126	11
127	8
135	14
136	53
137	31
138	28
139	22
141	10
143	6
149	21
150	27
151	26
152	9
160	5
161	7
162	8
163	51
164	55
165	409
166	64
167	5
170	11
171	19
172	13
173	19
174	21
175	32
176	143
177	40
178	40
179	7
182	0
186	5
199	141
200	90
201	68
202	32
206	9
208	7
210	25
211	24
212	140
213	29
214	38
215	6
233	5
235	999
236	142
237	654
238	106
239	106
240	14
246	118
247	37
248	96
249	29
250	20
281	14
282	39
283	23
284	34
285	11
286	11
287	5
316	16
317	9
318	21
319	15
320	18
321	6
322	5
352	10
354	13
356	9
