Mass spectrum: Imidazol C-Nucleoside Phosphramidite-1; SI-BE; MS; POSITIVE
Name: Imidazol C-Nucleoside Phosphramidite-1
Class: Synthetic compound; imidazole derivative
Formula: C50H71N4O9PSi
Exact mass: 930.4728
SMILES: CC(C)N(C(C)C)P(OCCC#N)O[C@@H]1[C@H](O[C@H]([C@@H]1O[Si](C)(C)C(C)(C)C)C2=CN(C=N2)COC(=O)C(C)(C)C)COC(C3=CC=CC=C3)(C4=CC=C(C=C4)OC)C5=CC=C(C=C5)OC
InChI: InChI=1S/C50H71N4O9PSi/c1-35(2)54(36(3)4)64(60-30-18-29-51)62-45-43(61-44(46(45)63-65(13,14)49(8,9)10)42-31-53(33-52-42)34-58-47(55)48(5,6)7)32-59-50(37-19-16-15-17-20-37,38-21-25-40(56-11)26-22-38)39-23-27-41(57-12)28-24-39/h15-17,19-28,31,33,35-36,43-46H,18,30,32,34H2,1-14H3/t43-,44+,45-,46+,64?/m1/s1
Instrument: M-4100 (Hitachi, Tokyo, Japan).
Instrument type: SI-BE
Ms type: MS
Ion mode: POSITIVE
Ionization: SIMS
Precursor type: [M+Na]+
Precursor m/z: 953.4620
m/z	relative intensity
41	145
43	142
54	157
57	740
58	96
64	99
73	607
75	113
85	82
117	123
132	154
133	139
135	92
159	108
201	394
273	156
303	999
304	735
305	152
317	47
318	8
335	8
339	8
351	10
376	10
409	10
411	21
537	9
651	27
839	112
840	62
841	19
953	201
954	128
955	51
956	13
