Mass spectrum: Leucinostatin Y; ESI-ITFT; MS2; NEGATIVE; [M-H]-; CE 75 %
Name: Leucinostatin Y
Class: Natural product; modulator of tumor-stroma interaction
Formula: C60H104N10O15
Exact mass: 1204.7682
SMILES: O=C(O)C(C)NC(=O)CCNC(=O)C(C)(C)NC(=O)C(C)(C)NC(=O)[C@H](CC(C)C)NC(=O)[C@H](CC(C)C)NC(=O)C(C)(C)NC(=O)[C@@H](NC(=O)[C@H](CC(C)CC(O)CC(=O)CC)NC(=O)[C@@H]1C[C@H](C)CN1C(=O)/C=C/C(C)CC)C(O)C(C)C
InChI: InChI=1S/C60H104N10O15/c1-19-35(9)21-22-46(74)70-31-37(11)29-44(70)52(79)64-43(28-36(10)27-40(72)30-39(71)20-2)50(77)66-47(48(75)34(7)8)53(80)68-59(15,16)56(84)65-41(25-32(3)4)49(76)63-42(26-33(5)6)51(78)67-60(17,18)57(85)69-58(13,14)55(83)61-24-23-45(73)62-38(12)54(81)82/h21-22,32-38,40-44,47-48,72,75H,19-20,23-31H2,1-18H3,(H,61,83)(H,62,73)(H,63,76)(H,64,79)(H,65,84)(H,66,77)(H,67,78)(H,68,80)(H,69,85)(H,81,82)/b22-21+/t35?,36?,37-,38?,40?,41-,42-,43-,44-,47-,48?/m0/s1
Instrument: LTQ Orbitrap XL hybrid iontrap-Orbitrap (Thermo Fisher Scientific, San Jose, CA, USA)
Instrument type: LC-ESI-ITFT
Ms type: MS2
Ion mode: NEGATIVE
Collision energy: 75 % (nominal)
Fragmentation mode: HCD
Ionization: ESI
Ion type: [M-H]-
Precursor m/z: 1203.7609
m/z	relative intensity
88.0406	273
112.0404	93
142.0507	229
159.0773	240
168.1141	31
205.7064	44
329.1825	397
330.1859	37
347.2873	36
353.219	75
379.577	38
416.5865	43
435.2613	39
436.2632	34
442.2665	830
443.27	212
459.2875	43
466.302	47
508.9042	51
520.3134	61
554.3682	34
555.3508	541
556.3545	184
565.3362	64
567.0201	37
574.3612	32
590.3702	31
608.3774	660
609.3807	205
635.6888	54
640.4033	999
641.4065	314
642.4093	48
683.1206	30
697.4246	425
698.4283	165
717.6355	42
816.5078	46
899.5577	41
937.3174	60
942.817	39
942.8842	71
1059.6438	261
1060.6467	175
1061.6536	90
1087.063	46
1113.6938	118
1114.6941	119
1115.6987	41
1131.7015	205
1132.7045	184
1133.7046	64
