Mass spectrum: (3S)-3-((tert-Butyldimethylsilyl)oxy)nona-1,8-dien-5-ol; GC-FI-TOF; MS; POSITIVE; FI; 10 kV
Name: (3S)-3-((tert-Butyldimethylsilyl)oxy)nona-1,8-dien-5-ol
Class: Non-natural compound
Formula: C15H30O2Si
Exact mass: 270.20151
SMILES: C=CCCC(O)C[C@@H](C=C)O[Si](C)(C)C(C)(C)C
InChI: InChI=1S/C15H30O2Si/c1-8-10-11-13(16)12-14(9-2)17-18(6,7)15(3,4)5/h8-9,13-14,16H,1-2,10-12H2,3-7H3/t13?,14-/m1/s1
Instrument: JMS-T100GCV (JEOL, Akishima, Japan) coupled to Agilent 7890A gas chromatograph.
Instrument type: GC-FI-TOF
Ms type: MS
Ion mode: POSITIVE
Ionization: FI
Column name: ZB-1MS 7HM-G011-11 sn:313446, length 30.0 m, I.D. 0.32 mm, thickness 0.25 micrometer.
Retention time: 8.61 min.
m/z	relative intensity
57.072	13
115.095	9
121.1	4
131.05	8
171.123	4
213.131	999
213.851	3
214.133	172
214.858	2
215.131	50
215.251	2
215.355	2
215.431	1
216.133	5
271.209	32
272.213	7
273.21	2
