Mass spectrum: Pachymic acid; ESI-QTOF; MS; POSITIVE
Name: Pachymic acid
Class: Non-natural product; Triterpenoid
Formula: C33H52O5
Exact mass: 528.38148
SMILES: CC(C)C(=C)CC[C@H]([C@H]1[C@@H](C[C@@]2([C@@]1(CCC3=C2CC[C@@H]4[C@@]3(CC[C@@H](C4(C)C)OC(=O)C)C)C)C)O)C(=O)O
InChI: InChI=1S/C33H52O5/c1-19(2)20(3)10-11-22(29(36)37)28-25(35)18-33(9)24-12-13-26-30(5,6)27(38-21(4)34)15-16-31(26,7)23(24)14-17-32(28,33)8/h19,22,25-28,35H,3,10-18H2,1-2,4-9H3,(H,36,37)/t22-,25-,26+,27+,28+,31-,32-,33+/m1/s1
Instrument: X500R QTOF (AB Sciex LLC, USA)
Instrument type: ESI-QTOF
Ms type: MS
Ion mode: POSITIVE
Ionization: ESI
m/z	relative intensity
511.3787	69
512.3822	23
529.3892	138
530.3928	46
551.3696	999
552.3741	306
553.3776	47
562.3621	16
562.8638	12
567.3445	18
573.3533	21
804.5695	25
805.0712	27
805.5726	16
815.5609	176
816.0624	189
816.5641	103
817.0658	39
826.5518	21
827.0536	22
1068.7608	23
1069.2628	34
1069.7641	26
1077.7758	30
1078.2775	21
1079.7525	204
1080.2536	194
1080.7554	191
1081.2569	71
1081.7586	42
1090.7434	51
1091.2449	74
1091.7465	55
1092.248	27
