Mass spectrum: 3,4-Epoxy-7-octene; GC-EI-TOF; MS; positive; EI; 70 V
Name: 3,4-Epoxy-7-octene
Class: Non-natural product
Formula: C8H14O
Exact mass: 126.10447
SMILES: CCC1OC1CCC=C
InChI: InChI=1S/C8H14O/c1-3-5-6-8-7(4-2)9-8/h3,7-8H,1,4-6H2,2H3
Instrument: JMS-T100GCV (JEOL, Akishima, Japan) coupled to Agilent 7890A (Agilent, Wilmington, USA) gas chromatograph.
Instrument type: GC-EI-TOF
Ms type: MS
Ion mode: POSITIVE
Ionization: EI
Column name: HP-5 19091 J-413 USD364547H (Agilent, Wilmington, USA), length 30 m, I.D. 0.32 mm, thickness 0.25 micrometer.
Retention time: 4.12 min.
m/z	relative intensity
26.016	35
27.024	417
28.006	11
28.031	73
29.003	81
29.039	377
29.268	1
30.044	12
31.018	256
31.990	8
37.008	10
38.016	36
39.024	583
39.145	1
39.331	2
40.031	119
41.039	999
41.321	3
41.357	3
41.566	2
41.817	1
41.842	1
42.011	23
42.046	118
43.019	147
43.055	76
44.026	14
44.058	3
45.034	12
50.016	17
51.024	35
52.031	16
53.039	181
54.046	30
55.019	78
55.055	290
56.026	27
56.062	78
57.034	158
57.071	123
57.185	2
58.041	17
58.074	5
59.050	421
60.053	13
62.016	4
63.024	9
65.040	40
66.047	36
67.055	665
67.415	2
68.027	4
68.062	283
69.034	35
69.070	58
70.042	27
70.078	19
71.050	45
72.058	47
73.061	2
77.040	9
78.046	2
79.055	34
80.062	8
81.034	3
81.070	10
82.078	120
83.050	102
83.084	20
83.189	2
84.057	101
85.066	301
86.069	16
91.055	4
93.071	14
95.086	7
97.065	90
98.073	68
99.077	4
111.081	27
112.084	2
