Mass spectrum: 1-(9Z-Octadecenoyl)-sn-glycero-3-phosphocholine; MALDI-QITTOF; MS2; POSITIVE; [M+H]+; RID
Name: Lyso-PC 18:1(9Z)
Name: 1-(9Z-Octadecenoyl)-sn-glycero-3-phosphocholine
Class: Natural product; Phospholipid
Formula: C26H52NO7P
Exact mass: 521.3481
SMILES: CCCCCCCC/C=C\CCCCCCCC(=O)OC[C@H](COP(=O)([O-])OCC[N+](C)(C)C)O
InChI: InChI=1S/C26H52NO7P/c1-5-6-7-8-9-10-11-12-13-14-15-16-17-18-19-20-26(29)32-23-25(28)24-34-35(30,31)33-22-21-27(2,3)4/h12-13,25,28H,5-11,14-24H2,1-4H3/b13-12-/t25-/m1/s1
Instrument: MALDI-QITTOF noncommercial prototype model (Shimadzu Corporation, Kyoto, Japan)
Instrument type: MALDI-QITTOF
Ms type: MS2
Ion mode: POSITIVE
Fragmentation mode: RID
Ionization: MALDI
Ion type: [M+H]+
Precursor m/z: 522.3554
m/z	relative intensity
168.265	1
184.073	814
184.195	16
184.387	2
184.528	2
185.085	13
185.466	1
215.106	20
215.932	29
224.978	17
226.083	158
239.079	29
240.102	148
256.087	168
258.109	356
278.952	18
304.303	24
307.934	22
316.095	25
331.098	20
339.293	420
340.048	20
342.138	18
362.07	32
363.598	18
380.205	35
381.979	18
395.12	24
398.189	52
415.189	84
424.205	215
425.193	52
438.21	197
439.226	30
440.2	24
471.197	44
476.304	50
480.211	60
481.027	20
502.323	134
504.343	558
518.026	1
518.157	1
518.315	5
520.334	60
521.124	1
521.341	24
522.35	999
522.555	38
522.858	8
523.116	11
523.353	195
523.584	4
523.888	5
524.146	6
524.377	4
525.356	5
527.236	1
528.078	1
536.327	21
537.33	3
538.341	18
539.346	1
