Mass spectrum: 4-Aminobutanoic acid; GC-FI-TOF; MS; POSITIVE; FI; 10 kV; 3TMS
Name: 4-Aminobutanoic acid
Class: Non-natural compound
Formula: C4H9NO2
Exact mass: 103.0633285
SMILES: C(CC(=O)O)CN
InChI: InChI=1S/C4H9NO2/c5-3-1-2-4(6)7/h1-3,5H2,(H,6,7)
Instrument: JMS-T100GCV (JEOL, Akishima, Japan) coupled to Agilent 7890A (Santa Clara, CA, USA) gas chromatograph.
Instrument type: GC-FI-TOF
Ms type: MS
Ion mode: POSITIVE
Ionization: FI
Column name: DB-5MS UI 122-5532UI US0462866H (Agilent, Wilmington, USA) with the length 30 m, I.D. 0.25 mm, and thickness 0.25 micrometer.
Retention time: 9.16 min.
Derivative form: C13H33NO2Si3
Derivative mass: 319.18191
Derivative type: 3TMS
m/z	relative intensity
304.16	954
305.161	275
306.158	134
306.344	24
307.159	28
319.182	999
320.183	288
321.181	138
322.181	28
