Mass spectrum: Quinoclamine; ESI-QTOF; MS2; POSITIVE; [M+H]+; CID; 60 V
Name: Quinoclamine
Class: Non-natural product
Formula: C10H6ClNO2
Exact mass: 207.0087
SMILES: c1ccc2c(c1)C(=O)C(=C(C2=O)Cl)N
InChI: InChI=1S/C10H6ClNO2/c11-7-8(12)10(14)6-4-2-1-3-5(6)9(7)13/h1-4H,12H2
Instrument: X500R QTOF (AB Sciex LLC, USA)
Instrument type: ESI-QTOF
Ms type: MS2
Ion mode: POSITIVE
Collision energy: 60 V
Fragmentation mode: CID
Ionization: ESI
Precursor m/z: 208.0160
Precursor type: [M+H]+
m/z	relative intensity
50.015	71
51.0228	342
63.0228	333
68.013	48
75.0229	165
77.0384	999
89.0384	985
99.0228	227
100.0181	261
126.0337	175
