Mass spectrum: Malic acid; GC-EI-QQ; MS2; POSITIVE; CID 5 V; 3 TBDMS-derivative; [M-57]+
Name: Malic acid
Class: Natural product
Formula: C4H6O5
Exact mass: 134.02153
SMILES: C(C(C(=O)O)O)C(=O)O
InChI: InChI=1S/C4H6O5/c5-2(4(8)9)1-3(6)7/h2,5H,1H2,(H,6,7)(H,8,9)
Instrument: GCMS-TQ8040 (Shimadzu, Kyoto, Japan)
Instrument type: GC-EI-QQ
Ms type: MS2
Ion mode: POSITIVE
Collision energy: 5 V
Fragmentation mode: CID
Column name: DB-5MS+DG (Agilent Technologies, Santa Clara, CA, USA)
Derivative form: C22H48O5Si3
Derivative mass: 476.28096
Derivative type: 3 TBDMS
Precursor m/z: 419.20998
m/z	relative intensity	assigned
55.1	66	
73.1	319	
115.15	999	
147.05	209	
149.2	13	
158.95	15	
189.1	537	
212.8	28	
217.05	120	C9H21O2Si2+
244.75	19	
259.4	18	
286.8	41	
347.2	117	
349.05	65	C15H37O3Si3+
375.35	60	
391.25	148	C17H39O4Si3+
403.2	69	
419.3	353	
