Mass spectrum: Tyramine; LC-ESI-QQ; MS2; POSITIVE; [M+H-NH3]+; CID; 20 V
Name: Tyramine
Class: Non-natural product; Tyramine
Formula: C8H11NO
Exact mass: 137.08406
SMILES: C1=CC(=CC=C1CCN)O
InChI: InChI=1S/C8H11NO/c9-6-5-7-1-3-8(10)4-2-7/h1-4,10H,5-6,9H2
Instrument: Xevo TQS micro (Waters, MA, USA) coupled to ACQUITY UPLC H-Class (Waters, MA, USA)
Instrument type: LC-ESI-QQ
Ms type: MS2
Ion mode: POSITIVE
Collision energy: 20 V
Fragmentation mode: CID
Ionization: ESI
Column name: Acquity UPLC BEH AMIDE column (1.7 Âµm, 2.1 x 150 mm; Waters, MA, USA)
Precursor m/z: 121.06479
Precursor type: [M+H-NH3]+
m/z	relative intensity
39.1	8
40.7	8
41	6
41.2	8
50.8	34
51.2	22
52.7	6
53.2	7
54.8	13
55.1	7
64.9	50
65.2	35
76.8	619
77	999
77.8	6
78	14
90.9	202
91.1	179
92.8	36
93	84
93.9	21
94.2	10
101.9	15
102.2	7
102.9	224
103.1	169
120.7	13
120.9	19
121.2	27
121.4	11
