Mass spectrum: [Gallocatechin-(4alpha->8)]2-catechin; LC-ESI-QTOF; MS2; [M+H]+
Name: [Gallocatechin-(4alpha->8)]2-catechin
Class: Natural Product; Cathechins
Formula: C45H38O20
Exact mass: 898.19564
SMILES: C1[C@@H]([C@H](OC2=C1C(=CC(=C2[C@H]3[C@@H]([C@H](OC4=C(C(=CC(=C34)O)O)[C@H]5[C@@H]([C@H](OC6=CC(=CC(=C56)O)O)C7=CC(=C(C(=C7)O)O)O)O)C8=CC(=C(C(=C8)O)O)O)O)O)O)C9=CC(=C(C=C9)O)O)O
InChI: InChI=1S/C45H38O20/c46-16-8-21(50)31-30(9-16)63-42(14-4-25(54)37(59)26(55)5-14)39(61)35(31)33-23(52)12-24(53)34-36(40(62)43(65-45(33)34)15-6-27(56)38(60)28(57)7-15)32-22(51)11-19(48)17-10-29(58)41(64-44(17)32)13-1-2-18(47)20(49)3-13/h1-9,11-12,29,35-36,39-43,46-62H,10H2/t29-,35-,36+,39-,40-,41+,42+,43+/m0/s1
Instrument: Xevo QTOF (Waters)
Instrument type: LC-ESI-QTOF
Ms type: MS2
Ion mode: POSITIVE
Collision energy: 20 V
Ionization: ESI
Column name: Waters InertSustain C18 (250 x 4.6 mm)
Precursor m/z: 899.20402
Precursor type: [M+H]+
m/z	relative intensity
151.0401	11
179.0347	10
291.0895	70
306.0687	363
306.0724	66
317.0673	33
318.0723	6
423.0741	34
441.0839	151
443.0999	183
444.1039	45
483.0963	20
567.1172	62
595.1481	999
609.1281	793
610.1321	297
611.1348	74
639.1703	1
713.1568	18
731.1682	160
747.1633	111
748.1679	53
749.1685	16
881.2031	12
899.2141	459
900.2179	274
901.2203	96
902.2224	22
903.2096	2
