Mass spectrum: Diallate; LC-ESI-QTOF; MS2; ESI; POSITIVE; [M+H]+; CE 50 V
Name: Diallate
Class: Non-natural product
Formula: C10H17Cl2NOS
Exact mass: 269.04079
SMILES: CC(C)N(C(=O)SCC(Cl)=CCl)C(C)C
InChI: InChI=1S/C10H17Cl2NOS/c1-7(2)13(8(3)4)10(14)15-6-9(12)5-11/h5,7-8H,6H2,1-4H3
Instrument: ExionLC AD, AB Sciex LLC, USA; X500R QTOF, AB Sciex LLC, USA.
Instrument type: LC-ESI-QTOF
Ms type: MS2
Ion mode: POSITIVE
Collision energy: 50 V
Ionization: ESI
Column name: AQ-C18HP 3 microm, 2.1 mm Ã— 150 mm, GL Science (Tokyo Japan)
Retention time: 15.4 min
Precursor m/z: 270.04806
Precursor type: [M+H]+
m/z	relative intensity
39.0233	62
41.039	358
43.0544	722
44.0136	121
44.9799	142
46.9954	132
48.9845	75
58.0658	142
63.0002	44
70.996	98
72.9849	199
78.9419	59
80.9568	163
82.9459	466
106.972	151
108.9612	999
