Mass spectrum: (4S)-4-Methyl-6-benzyloxyhexanal; GC-FI-TOF; MS; positive; FI; 10 kV
Name: (4S)-4-Methyl-6-benzyloxyhexanal
Class: Non-natural product
Formula: C14H20O2
Exact mass: 220.14633
SMILES: C[C@@H](CCC=O)CCOCC1=CC=CC=C1
InChI: InChI=1S/C14H20O2/c1-13(6-5-10-15)9-11-16-12-14-7-3-2-4-8-14/h2-4,7-8,10,13H,5-6,9,11-12H2,1H3/t13-/m0/s1
Instrument: JMS-T100GCV (JEOL, Akishima, Japan) coupled to Agilent 7890A (Agilent, Wilmington, USA) gas chromatograph.
Instrument type: GC-FI-TOF
Ms type: MS
Ion mode: POSITIVE
Ionization: FI
Column name: HP-5 19091 J-413 USD364547H (Agilent, Wilmington, USA), length 30.0 m, I.D. 0.32 mm, thickness 0.25 micrometer.
Retention time: 9.2 min.
m/z	relative intensity
91.055	10
107.051	22
108.061	4
113.096	4
114.106	18
129.093	13
163.077	5
220.146	999
220.883	4
221.150	161
222.153	18
