Mass spectrum: 3-O-Acetyl-16alpha-hydroxytrametenolic acid; ESI-QTOF; MS2; POSITIVE; [M+H]+; CID; 40 V
Name: 3-O-Acetyl-16alpha-hydroxytrametenolic acid
Class: Non-natural product; Bile acid
Formula: C32H50O5
Exact mass: 514.36583
SMILES: CC(=CCC[C@H]([C@H]1[C@@H](C[C@@]2([C@@]1(CCC3=C2CCC4[C@@]3(CC[C@@H](C4(C)C)OC(=O)C)C)C)C)O)C(=O)O)C
InChI: InChI=1S/C32H50O5/c1-19(2)10-9-11-21(28(35)36)27-24(34)18-32(8)23-12-13-25-29(4,5)26(37-20(3)33)15-16-30(25,6)22(23)14-17-31(27,32)7/h10,21,24-27,34H,9,11-18H2,1-8H3,(H,35,36)/t21-,24-,25?,26+,27+,30-,31-,32+/m1/s1
Instrument: X500R QTOF (AB Sciex LLC, USA)
Instrument type: ESI-QTOF
Ms type: MS2
Ion mode: POSITIVE
Collision energy: 40 V
Fragmentation mode: CID
Ionization: ESI
Precursor m/z: 515.37310
Precursor type: [M+H]+
m/z	relative intensity
81.0706	56
93.0706	75
95.0862	116
105.0705	47
107.0861	147
109.1018	136
119.0861	106
121.1017	252
123.1174	96
131.086	50
133.1016	106
135.1172	141
143.0861	35
145.1017	114
147.1172	97
149.1329	54
157.1016	80
159.1172	190
161.1328	107
163.1486	75
171.1172	119
173.1328	325
175.1485	104
185.1328	142
187.1484	309
189.1641	76
197.1328	70
199.1484	137
201.1641	87
211.1484	82
213.1641	209
215.1797	105
225.1641	85
227.1797	154
229.1953	119
239.1796	90
241.1952	133
243.211	47
253.1952	121
255.2108	145
280.2185	35
281.2264	38
295.2416	999
296.2498	108
315.2315	46
355.2625	142
394.2854	59
395.2936	44
419.3296	69
437.3399	336
515.3896	115
