Mass spectrum: Asymmetric dimethylarginine; ESI-QTOF; MS; POSITIVE
Name: Asymmetric dimethylarginine
Class: Non-natural product; Arginine derivative
Formula: C8H18N4O2
Exact mass: 202.14296
SMILES: CN(C)C(=NCCC[C@@H](C(=O)O)N)N
InChI: InChI=1S/C8H18N4O2/c1-12(2)8(10)11-5-3-4-6(9)7(13)14/h6H,3-5,9H2,1-2H3,(H2,10,11)(H,13,14)/t6-/m0/s1
Instrument: X500R QTOF (AB Sciex LLC, USA)
Instrument type: ESI-QTOF
Ms type: MS
Ion mode: POSITIVE
Ionization: ESI
m/z	relative intensity
203.1490	999
204.1532	159
