Mass spectrum: Isoprothiolane; ESI-ITFT; MS2; [M+H]+
Name: Isoprothiolane
Class: Non-Natural Product; Agrochemicals
Formula: C12H18O4S2
Exact mass: 290.06465
SMILES: CC(C)OC(=O)C(=C1SCCS1)C(=O)OC(C)C
InChI: InChI=1S/C12H18O4S2/c1-7(2)15-10(13)9(11(14)16-8(3)4)12-17-5-6-18-12/h7-8H,5-6H2,1-4H3
Instrument: LTQ Orbitap Velos (Thermofisher Scientific)
Instrument type: ESI-ITFT
Ms type: MS2
Ion mode: POSITIVE
Collision energy: 20 V
Ionization: nano-ESI
Precursor m/z: 291.07303
Precursor type: [M+H]+
m/z	relative intensity
149.02326	2
172.97256	27
188.96743	159
206.97805	26
221.29375	1
230.97549	1
230.98625	1
231.01417	999
231.03082	2
231.03898	1
231.04435	1
231.04679	1
231.04955	1
231.05222	1
231.05468	1
232.01742	2
249.02495	74
279.15898	2
291.0719	40
