Mass spectrum: Methyl [(1S)-1,2-Dimethyl-3-methylenecyclopentyl]acetate; GC-EI-TOF; MS; positive; EI; 70 V
Name: Methyl [(1S)-1,2-Dimethyl-3-methylenecyclopentyl]acetate
Class: Non-natural product
Formula: C11H18O2
Exact mass: 182.13068
SMILES: COC(=O)C[C@]1(C)CCC(=C)C1C
InChI: InChI=1S/C11H18O2/c1-8-5-6-11(3,9(8)2)7-10(12)13-4/h9H,1,5-7H2,2-4H3/t9?,11-/m0/s1
Instrument: JMS-T100GCV (JEOL, Akishima, Japan) coupled to Agilent 7890A (Agilent, Wilmington, USA) gas chromatograph.
Instrument type: GC-EI-TOF
Ms type: MS
Ion mode: POSITIVE
Ionization: EI
Column name: HP-5 19091 J-413 USD364547H (Agilent, Wilmington, USA), length 30 m, I.D. 0.32 mm, thickness 0.25 micrometer.
Retention time: 7.1 min.
m/z	relative intensity
26.016	2
27.024	48
27.050	1
28.006	70
28.031	10
29.004	5
29.040	38
29.091	1
31.019	5
31.990	24
38.016	2
39.024	81
39.963	2
40.032	26
41.040	149
42.011	9
42.046	12
43.019	22
43.055	26
44.026	1
44.998	2
45.035	6
50.016	4
51.024	17
52.032	10
53.040	76
54.047	13
55.019	3
55.055	66
56.060	4
57.071	4
59.014	40
59.050	6
60.020	1
63.024	4
65.040	31
66.047	10
67.055	156
68.062	52
68.128	1
69.035	3
69.071	54
69.135	1
70.074	3
71.050	6
72.057	2
73.066	15
74.037	11
75.044	6
76.036	1
77.040	62
78.046	12
79.055	84
80.062	13
81.034	3
81.071	81
82.042	7
82.076	10
83.050	10
83.086	1
84.054	1
85.066	6
86.073	2
91.055	87
92.061	12
93.071	320
93.476	1
93.541	1
94.075	27
94.153	1
95.050	4
95.086	16
95.442	1
95.496	1
96.058	2
96.090	1
97.066	3
98.073	1
99.047	1
99.081	5
103.055	3
104.062	2
105.071	17
106.078	10
107.086	117
107.234	1
108.094	999
108.466	2
108.606	3
109.101	275
109.618	1
109.653	1
109.716	1
109.753	1
110.105	19
111.045	2
111.081	3
112.053	1
112.089	1
113.060	3
114.068	6
115.075	2
117.070	2
119.085	1
121.065	3
121.102	6
122.110	13
123.117	31
124.122	3
125.061	9
125.097	5
126.066	2
127.075	1
135.081	9
139.076	3
150.104	9
151.112	56
151.215	1
152.116	6
153.092	3
167.107	9
168.110	1
182.130	10
183.133	1
