Mass spectrum: Pyraclonil; ESI-QTOF; MS2; POSITIVE; [M+H]+; CID; 80 V
Name: Pyraclonil
Class: Non-natural product
Formula: C15H15ClN6
Exact mass: 314.1046
SMILES: CN(CC#C)C1=C(C=NN1C2=NN3CCCCC3=C2Cl)C#N
InChI: InChI=1S/C15H15ClN6/c1-3-7-20(2)15-11(9-17)10-18-22(15)14-13(16)12-6-4-5-8-21(12)19-14/h1,10H,4-8H2,2H3
Instrument: X500R QTOF (AB Sciex Pte. Ltd, USA)
Instrument type: ESI-QTOF
Ms type: MS2
Ion mode: POSITIVE
Collision energy: 80 V
Fragmentation mode: CID
Ionization: ESI
Precursor m/z: 315.1119
Precursor type: [M+H]+
m/z	relative intensity
39.023	67
41.026	21
41.0386	31
42.0339	28
46.9684	25
48.9841	47
50.0152	66
51.0231	191
52.0183	89
53.0387	51
54.0339	39
55.0543	74
62.0153	30
63.0231	143
64.0184	95
65.0388	256
66.0341	66
66.0464	18
67.0293	73
67.0417	29
67.0544	24
72.9842	999
74.9999	30
75.0232	20
76.0185	57
77.0137	36
77.0388	616
78.0341	123
78.0464	46
79.0294	67
79.0424	27
79.0544	160
80.0497	79
81.045	65
84.9842	67
85.9795	32
86.9998	22
87.9951	31
88.0185	39
89.0389	51
90.0342	82
91.0294	34
91.0545	433
92.0375	30
92.0497	98
93.0451	59
93.0574	43
94.0402	30
94.0528	22
94.0653	40
96.9842	64
98.9999	360
99.9952	56
102.0341	30
103.0294	35
103.0545	79
104.0496	51
105.045	185
105.07	46
106.0404	37
106.0653	43
107.0608	24
114.0108	31
115.0061	55
115.0295	64
116.0373	33
117.0451	48
117.0571	28
118.0405	27
118.0528	48
119.0607	121
121.0763	87
123.9952	82
128.014	126
129.045	39
130.0404	38
133.0761	33
141.0218	54
142.0404	73
144.056	40
155.0374	132
169.0531	162
