Mass spectrum: Rilmazafone; LC-ESI-QQ; MS2; ESI; NEGATIVE; CID; CE 30 V; [M-H]-
Name: Rilmazafone
Class: Non-natural product
Formula: C21H20Cl2N6O3
Exact mass: 474.097371
SMILES: CN(C)C(=O)C1=NN(C(=N1)CNC(=O)CN)C2=C(C=C(C=C2)Cl)C(=O)C3=CC=CC=C3Cl
InChI: InChI=1S/C21H20Cl2N6O3/c1-28(2)21(32)20-26-17(11-25-18(30)10-24)29(27-20)16-8-7-12(22)9-14(16)19(31)13-5-3-4-6-15(13)23/h3-9H,10-11,24H2,1-2H3,(H,25,30)
Instrument: LCMS-8040 coupled to Nexera XR (Shimadzu, Kyoto, Japan).
Instrument type: LC-ESI-QQ
Ms type: MS2
Ion mode: NEGATIVE
Ionization: ESI
Collision energy: 30 V
Fragmentation mode: CID
Column name: InertSustain C18 ID 2.1 microm, 2.1 x 100 mm (GL Science, Tokyo, Japan).
Retention time: 8.244 min
Precursor m/z: 473.090094
Precursor type: [M-H]-
m/z	relative intensity
35.2	106
146.1	12
166.1	10
180.3	13
208.1	22
209.0	309
228.0	999
231.1	13
260.0	49
267.1	136
303.1	580
304.1	69
317.0	13
320.7	16
361.1	39
392.2	13
415.6	13
