Mass spectrum: Tolylbiguanide; ESI-QTOF; MS2; ESI; POSITIVE; CE 50 V
Name: Tolylbiguanide
Class: Non-natural product
Formula: C9H13N5
Exact mass: 191.11708
SMILES: Cc1ccccc1NC(=N)NC(=N)N
InChI: InChI=1S/C9H13N5/c1-6-4-2-3-5-7(6)13-9(12)14-8(10)11/h2-5H,1H3,(H6,10,11,12,13,14)
Instrument: X500R QTOF (AB Sciex LLC, USA)
Instrument type: ESI-QTOF
Ms type: MS2
Ion mode: POSITIVE
Collision energy: 50 V
Ionization: ESI
Precursor m/z: 192.12435
Precursor type: [M+H]+
m/z	relative intensity
43.0291	999
60.0559	516
65.0392	285
77.0394	95
79.0551	110
89.0394	174
91.0546	600
93.0582	120
106.0658	356
116.0503	230
