Mass spectrum: trimethyl(2-methyl-3-(pentylthio)propyl)silane; GC-EI-TOF; MS; POSITIVE; EI; 70 V
Name: trimethyl(2-methyl-3-(pentylthio)propyl)silane
Class: Non-natural compound
Formula: C12H28SSi
Exact mass: 232.1681
SMILES: CCCCCSCC(C)C[Si](C)(C)C
InChI: InChI=1S/C12H28SSi/c1-6-7-8-9-13-10-12(2)11-14(3,4)5/h12H,6-11H2,1-5H3
Instrument: JMS-T100GCV (JEOL, Akishima, Japan) coupled to Agilent 7890A gas chromatograph.
Instrument type: GC-EI-TOF
Ms type: MS
Ion mode: POSITIVE
Ionization: EI
Column name: HP-5 30x0.32 0.25um 19091J-413, length 30.0 m, I.D. 0.32 mm, thickness 0.25 micrometer.
Retention time: 8.25 min.
m/z	relative intensity
27.024	13
27.977	1
28.006	21
28.031	2
28.985	4
29.039	28
29.085	1
31.001	4
31.99	13
39.024	9
40.031	1
41.04	42
41.993	1
42.047	8
43.001	19
43.055	55
44.009	14
44.059	2
44.98	5
45.016	45
45.988	4
46.017	3
46.996	6
53.04	4
54.047	1
55.001	3
55.055	23
56.062	2
57.017	5
57.071	2
58.024	9
58.996	2
59.032	31
60.004	3
60.033	2
60.957	2
61.012	14
65.04	1
67.055	1
69.017	1
69.071	14
70.024	3
70.077	3
71.032	3
71.086	3
72.04	20
73.048	999
73.354	2
73.468	3
73.754	2
74.049	79
74.404	1
74.736	1
74.973	12
75.045	34
75.375	1
75.434	0
75.979	2
76.048	1
76.988	10
77.039	1
77.989	1
78.047	1
78.984	1
83.032	1
85.048	4
86.055	1
87.028	1
88.989	3
89.043	1
89.996	3
91.004	82
91.055	13
92.004	6
92.059	1
93.001	7
97.048	3
99.064	3
103.004	2
103.056	2
104.012	5
104.063	5
105.02	28
105.07	3
106.024	5
107.034	7
111.065	1
113.079	2
115.095	126
116.096	14
117.019	1
117.074	7
118.079	2
119.036	14
120.043	40
121.044	5
122.04	3
128.103	2
129.021	1
129.071	1
131.036	7
131.086	1
133.046	1
145.052	2
146.059	1
147.066	12
148.068	2
149.063	1
161.082	23
161.18	1
162.087	5
163.081	2
175.098	24
175.192	0
176.104	13
177.101	3
178.099	1
193.102	1
194.109	1
195.117	1
207.117	1
208.126	1
217.145	195
217.801	1
218.147	34
219.142	17
220.143	3
221.136	1
232.168	8
233.169	2
234.165	1
