Mass spectrum: N-Ethylglycine; GC-EI-TOF; MS; POSITIVE; EI; 70 V; 2TMS
Name: N-Ethylglycine
Class: Non-natural compound
Formula: C4H9NO2
Exact mass: 103.0633285
SMILES: CCNCC(=O)O
InChI: InChI=1S/C4H9NO2/c1-2-5-3-4(6)7/h5H,2-3H2,1H3,(H,6,7)
Instrument: JMS-T100GCV (JEOL, Akishima, Japan) coupled to Agilent 7890A (Santa Clara, CA, USA) gas chromatograph.
Instrument type: GC-EI-TOF
Ms type: MS
Ion mode: POSITIVE
Ionization: EI
Column name: DB-5MS UI 122-5532UI US0462866H (Agilent, Wilmington, USA) with the length 30 m, I.D. 0.25 mm, and thickness 0.25 micrometer.
Retention time: 7.4 min.
Derivative form: C10H25NO2Si2
Derivative mass: 247.14238
Derivative type: 2TMS
m/z	relative intensity
27.024	2
28.007	3
28.019	4
28.985	4
29.04	7
30.035	2
31.001	4
31.991	2
41.993	1
42.035	12
43.001	17
43.037	1
44.008	12
44.98	5
45.016	66
46.017	4
46.996	4
47.013	2
55.001	2
55.042	1
55.997	2
56.05	18
57.017	5
57.057	3
58.024	8
58.066	2
59.032	46
60.033	3
61.012	4
66.022	3
70.024	2
71.032	3
72.039	9
73.048	520
73.468	1
73.751	1
73.837	1
74.049	43
74.355	1
74.411	1
74.689	1
74.749	1
75.028	25
76.028	2
77.024	1
80.536	1
85.05	1
86.043	16
86.097	1
87.05	8
88.038	1
89.043	1
94.551	2
100.022	1
100.058	7
101.005	1
101.066	4
102.074	5
103.008	2
103.06	1
105.018	1
108.548	5
109.049	1
114.074	8
115.003	1
115.079	2
116.09	6
117.021	4
117.09	1
119.035	3
128.089	2
129.097	1
130.105	999
130.514	2
130.67	3
131.035	10
131.107	124
131.49	1
132.034	2
132.103	39
132.184	1
132.324	1
132.786	1
133.051	21
133.106	3
133.206	1
134.051	3
135.048	2
142.07	1
144.049	5
145.05	1
147.066	136
148.067	22
149.063	11
150.065	1
158.064	6
159.066	1
174.087	1
175.061	5
176.064	1
204.124	40
205.125	8
206.122	4
218.138	2
232.119	16
233.12	3
234.119	1
246.136	1
247.142	9
248.146	2
249.142	1
