Mass spectrum: 6-((4-Methoxybenzyl)oxy)-5,5-dimethylnona-1,8-dien-4-ol; GC-EI-TOF; MS; positive; EI; 70 V
Name: 6-((4-Methoxybenzyl)oxy)-5,5-dimethylnona-1,8-dien-4-ol
Class: Non-natural product
Formula: C19H28O3
Exact mass: 304.20385
SMILES: COC1=CC=C(COC(CC=C)C(C)(C)C(O)CC=C)C=C1
InChI: InChI=1S/C19H28O3/c1-6-8-17(20)19(3,4)18(9-7-2)22-14-15-10-12-16(21-5)13-11-15/h6-7,10-13,17-18,20H,1-2,8-9,14H2,3-5H3
Instrument: JMS-T100GCV (JEOL, Akishima, Japan) coupled to Agilent 7890A (Agilent, Wilmington, USA) gas chromatograph.
Instrument type: GC-EI-TOF
Ms type: MS
Ion mode: POSITIVE
Ionization: EI
Column name: HP-5 19091 J-413 USD364547H (Agilent, Wilmington, USA), length 30 m, I.D. 0.32 mm, thickness 0.25 micrometer.
Retention time: 10.9 min.
m/z	relative intensity
27.024	10
28.006	29
29.003	4
29.040	5
31.990	11
39.024	16
41.040	50
42.047	9
43.019	16
43.055	39
51.024	6
52.032	6
53.040	8
55.055	15
57.035	8
65.040	9
67.055	5
69.035	4
69.070	3
70.042	3
71.050	18
72.058	5
77.040	36
78.047	36
79.054	8
81.071	11
89.039	9
90.047	10
91.055	21
92.060	2
94.043	4
96.094	4
106.042	6
107.050	11
109.066	10
109.102	18
121.065	999
121.609	3
122.070	107
122.391	1
123.073	7
134.074	2
135.045	6
136.052	3
137.060	70
138.067	48
139.071	4
147.081	5
150.068	3
150.141	3
191.107	24
192.112	3
231.137	2
234.161	3
