Mass spectrum: Glc4; ESI-QQ; MS2; Positive; [M+H]+; CID; CE: 30 eV
Name: Glc4
Name: Isomaltosylmaltose
Name: Glc(a1-6)Glc(a1-4)Glc(a1-4)Glc
Class: Non-natural product.
Formula: C24H42O21
Exact mass: 666.221865
SMILES: O[C@@H]1[C@@H](O)[C@H](O)[C@@H](CO)O[C@@H]1OC[C@H]1O[C@H](O[C@@H]2[C@@H](CO)O[C@H](O[C@@H]3[C@@H](CO)OC(O)[C@H](O)[C@H]3O)[C@H](O)[C@H]2O)[C@H](O)[C@@H](O)[C@@H]1O
InChI: InChI=1S/C24H42O21/c25-1-5-9(28)11(30)16(35)22(41-5)39-4-8-10(29)12(31)17(36)23(43-8)45-20-7(3-27)42-24(18(37)14(20)33)44-19-6(2-26)40-21(38)15(34)13(19)32/h5-38H,1-4H2/t5-,6-,7-,8-,9-,10-,11+,12+,13-,14-,15-,16-,17-,18-,19-,20-,21?,22+,23-,24-/m1/s1
Instrument: Triple Quad 4500 (AB Sciex Pte. Ltd., USA)
Instrument type: LC-ESI-QQ
Ms type: MS2
Ion mode: POSITIVE
Collision energy: 30 eV
Fragmentation mode: CID
Ionization: ESI
Precursor m/z: 667.229142
Precursor type: [M+H]+
m/z	relative intensity
109	3
113.1	1
114.8	2
115.1	2
119.2667	2
123.3	2
127.0252	23
132.8	2
133.3	2
134.5	1
134.8875	2
135.3	2
137.2	2
145.0622	66
148.9	3
153.1	2
157.3	1
163.0972	142
165	1
165.4	2
167.1	2
169.2	2
171.2	2
175.5	2
177.116	3
181.3333	2
183.8	3
184.4	1
185.1	3
187.3	1
187.6	1
191.4	1
195	3
205.3	3
213.3	1
218.8167	1
223	3
225.3	2
227.2	2
227.4	3
233.2	2
234.8	2
239.2767	6
239.7	1
240.7	1
240.9	3
241.4	2
242.9	2
246.9	3
247.2062	4
249.2	3
249.5	1
251.5	2
252.68	2
253.2	2
256	1
257.2	3
258.9133	2
263.1615	4
263.5	2
264.7	1
265.1	2
266.9	2
267.1	4
267.5	2
268.1	1
271.0298	5
275.3	2
277.1167	3
277.4	2
279.2	2
280.9	1
281.1	3
281.3	3
281.6	2
282.9	5
283.1	2
283.3	2
283.5	2
287.3	3
289.1689	17
290.5	2
291.0692	2
291.4	2
293.2375	3
293.6	2
293.9	1
295	3
295.5	2
296.9	2
297.1938	4
297.4	3
297.6	3
298.875	2
299.2	3
299.4	5
300.98	2
306.7	5
307.0471	6
307.3	5
307.8	3
308	4
308.4348	3
309.1934	23
310.8	2
311.1	5
311.3222	4
311.6	4
312.1	2
312.4889	4
313.1333	15
314.2083	3
314.5	3
315	1
317.3	1
319.25	5
321.2	2
322.108	3
322.5889	4
322.9758	7
323.5	3
325.1014	114
327.09	9
327.4	5
331.1583	4
331.5	2
335.4	3
335.9407	16
336.3016	26
337.2832	999
338.2	2
338.5357	3
339.3316	6
339.7	2
340.6	3
341.2	17
341.4	13
341.6546	6
342.6	3
343.1	5
344.6	2
344.9	2
347.3	2
348.8714	3
349.2	2
350.4643	18
351.1	11
351.4321	5
352.6	3
353.025	6
353.4333	6
354.22	3
355.2158	151
356.4	2
358.9667	2
359.6	1
362.2	1
362.4	1
363.1	1
363.9	2
364.1	5
364.5344	5
365.1981	19
366.9	5
367.1572	2
368.3	1
369.1	4
369.4129	3
370	2
371.1	2
371.4222	1
373.242	18
374	1
374.5643	2
374.91	2
375.6	2
378.6	2
381.2519	136
382.3	3
383.2127	202
384.7	1
385.1	5
385.6	1
386.9	2
388.9	2
389.3	2
390.6	2
391	5
392.6	4
392.8	4
393.0568	6
395	1
397.2	2
397.5154	3
399	9
399.2	6
399.6	3
401.2585	212
402.6	2
403.2	4
406.7	2
407.3	3
408.6692	2
409.1191	3
410.2714	3
411.1859	10
413.0417	2
413.3929	3
413.8	1
414.7	1
415	1
419.3	2
421.2	2
423.1833	1
424.9	1
426.9143	3
427.5	2
428.3	2
428.6133	2
428.8	5
429.2721	10
433	4
433.5	2
436.99	2
437.5	1
437.8	2
438.6	2
439.09	2
440.9333	1
442.8667	1
443.4	1
445.1	3
445.35	3
447.2333	2
450.9	4
451.16	3
451.4	2
453.3	1
454.4818	2
456.96	2
457.2	2
459.1154	1
459.5	3
463.2778	1
464.5	1
465.1833	1
465.6	2
467.4	2
468.7	4
468.9583	2
469.2	2
470.1	1
470.8	1
473.5	2
475.4	2
477.4	2
479.2833	2
480.8818	2
481.4	3
483	2
483.3125	2
483.6	1
484	1
486.3	1
486.9154	6
487.625	3
488.1	2
488.8	2
492.9125	4
493.3	2
495	3
495.4	2
497.1	1
497.5	1
499.3	2
501.1	1
501.4	2
501.625	3
501.9	4
502.1	4
502.3909	5
503.2	3
503.4	2
505.05	2
509.1	2
509.3	2
510.9437	2
511.2	2
511.475	2
512.1	2
513.2	2
515	1
515.3	3
515.82	2
517.14	2
519.3312	3
521.1222	2
521.6	4
523	2
523.52	1
526.8	2
527.5	2
529.3	1
529.5	2
530.3	4
531.1	2
531.6	2
532.9	3
533.5	3
535.3743	10
536	2
537.4335	88
538.8	2
545.3	2
547	4
547.2923	4
547.6	3
549.2	4
549.4091	2
552.9	6
553.2208	5
554.2	2
554.9	3
555.5227	9
557	5
557.3	7
559.025	2
559.5	1
561.2	2
561.5	2
563.4879	71
565.2684	3
565.6	1
566.3	2
566.9	1
567.3333	1
567.7	3
568.3	2
570.6	2
571.14	2
571.5	1
573.3875	2
575.1579	11
575.6571	6
577.1714	3
577.4	3
577.6	1
579.3	1
581.4941	19
584.8	4
585.3471	2
587	1
589.3273	3
589.8	2
590.1	1
590.5	1
591.4519	24
593.4926	260
594.175	11
594.7	2
595.1	1
595.43	2
597.3	1
600.8	2
601.1125	2
601.5	2
602.2	2
602.9	2
603.3	5
603.6	2
605.4	2
606.8	3
607.0437	10
607.7	7
609.3231	3
609.7	2
610.2818	2
610.6	2
611.4782	73
613.1471	51
617.0833	1
619.2	4
619.6	6
621.4417	4
621.7833	2
623.52	3
623.8	1
624.2	2
625.4	1
626.49	6
631.1428	39
631.8	4
637.5257	113
638.1778	4
647.8	1
648.6461	4
649.5219	180
666.1	1
667.5499	814
672.9	2
