Mass spectrum: Dehydroeburicoic acid; ESI-QTOF; MS2; POSITIVE; [M+H]+; CID; 20 V
Name: Dehydroeburicoic acid
Class: Non-natural product; Bile acid
Formula: C31H48O3
Exact mass: 468.36035
SMILES: CC(C)C(=C)CC[C@H]([C@H]1CC[C@@]2([C@@]1(CC=C3C2=CC[C@@H]4[C@@]3(CC[C@@H](C4(C)C)O)C)C)C)C(=O)O
InChI: InChI=1S/C31H48O3/c1-19(2)20(3)9-10-21(27(33)34)22-13-17-31(8)24-11-12-25-28(4,5)26(32)15-16-29(25,6)23(24)14-18-30(22,31)7/h11,14,19,21-22,25-26,32H,3,9-10,12-13,15-18H2,1-2,4-8H3,(H,33,34)/t21-,22-,25+,26+,29-,30-,31+/m1/s1
Instrument: X500R QTOF (AB Sciex LLC, USA)
Instrument type: ESI-QTOF
Ms type: MS2
Ion mode: POSITIVE
Collision energy: 20 V
Fragmentation mode: CID
Ionization: ESI
Precursor m/z: 469.36762
Precursor type: [M+H]+
m/z	relative intensity
95.087	11
97.1026	7
109.1027	23
119.0871	10
121.1027	10
133.1027	9
135.1183	8
145.1027	11
147.1183	13
149.1339	14
159.1184	30
161.134	11
163.1497	13
173.134	12
175.1496	12
187.1497	51
189.1653	73
191.181	24
193.1239	23
199.1498	14
201.1653	205
203.181	53
205.1602	11
207.1759	54
213.1654	41
215.1811	35
217.1966	21
247.1709	18
249.1866	13
261.1865	30
263.2021	36
293.2279	30
295.2434	192
311.2383	80
313.2539	146
315.2332	42
355.2642	57
367.2642	23
405.3523	45
423.3627	117
433.3471	66
451.3573	999
469.3676	991
