Mass spectrum: Diethanolamine; FAB-BE; MS; Positive; Matrix Diethanolamine
Name: Diethanolamine
Name: 2,2'-Dihydroxydiethylamine
Class: Non-Natural Product
Formula: C4H11NO2
Exact mass: 105.07898
SMILES: OCCNCCO
InChI: InChI=1S/C4H11NO2/c6-3-1-5-2-4-7/h5-7H,1-4H2
Instrument: JMS-700, JEOL
Instrument type: FAB-BE
Ms type: MS
Ion mode: POSITIVE
Ionization: FAB
m/z	relative intensity
18	1
27	2
28	5
29	2
30	13
31	1
41	2
42	7
43	2
44	26
45	16
54	1
55	1
56	18
57	2
58	8
60	6
61	2
62	8
68	2
70	22
71	1
72	5
74	27
75	1
76	1
86	8
87	6
88	34
89	3
90	1
98	6
100	2
103	1
104	42
105	3
106	999
107	58
108	6
114	1
116	24
117	2
118	15
119	1
120	3
128	2
129	6
130	3
132	1
134	2
144	1
148	1
150	2
163	1
164	3
167	1
179	2
180	1
188	1
189	1
191	2
192	1
193	6
195	1
201	2
205	2
206	2
207	36
208	7
209	6
210	1
211	143
212	14
213	2
230	1
231	10
232	5
233	43
234	6
235	2
236	4
237	2
238	1
239	41
240	4
251	5
254	3
255	4
269	4
312	11
313	2
316	9
317	1
338	4
344	4
421	1
443	1
