Mass spectrum: Malic acid-[1-13C]; GC-EI-QQ; MS2; POSITIVE; CID 5 V; 3 TBDMS-derivative; [M-160]+
Name: Malic acid-[1-13C]
Class: In vitro synthetic compound
Formula: C4H6O5
Exact mass: 134.02153
SMILES: C(C(C(=O)O)O)C(=O)O
InChI: InChI=1S/C4H6O5/c5-2(4(8)9)1-3(6)7/h2,5H,1H2,(H,6,7)(H,8,9)/i4+1
Instrument: GCMS-TQ8040 (Shimadzu, Kyoto, Japan)
Instrument type: GC-EI-QQ
Ms type: MS2
Ion mode: POSITIVE
Collision energy: 5 V
Fragmentation mode: CID
Column name: DB-5MS+DG (Agilent Technologies, Santa Clara, CA, USA)
Derivative form: C22H48O5Si3
Derivative mass: 476.28096
Derivative type: 3 TBDMS
Precursor m/z: 317.19628
m/z	relative intensity	assigned
55	59	
65	67	
71	53	
72	57	
73	620	
75	68	
84	62	
86	61	
88	55	
92	67	
93	53	
102	71	
105	50	
109	53	
110	53	
114	64	
115.05	999	
118	72	
131	58	
138	72	
143	75	
149	63	
163	155	
169	57	
180	50	
185	408	
187	53	
188	75	
193	51	
196	50	
201	55	
203	62	
205	68	
214	64	
221	59	
223	65	
225	53	
228	59	
236	58	
239	56	
245	56	
250	62	
260	115	
268	53	
271	53	
272	58	
273	348	
274	61	
275	167	
278	51	
279	67	
286	53	
293	88	
298	72	
299	68	
305	61	
309	56	
317	492	C15H33O3Si2+
320	61	
321	63	
323	53	
329	65	
