Mass spectrum: N-Methyl-beta-alanine; GC-EI-TOF; MS; POSITIVE; EI; 70 V; 2TBDMS
Name: N-Methyl-beta-alanine
Class: Non-natural compound
Formula: C4H9NO2
Exact mass: 103.0633285
SMILES: CNCCC(=O)O
InChI: InChI=1S/C4H9NO2/c1-5-3-2-4(6)7/h5H,2-3H2,1H3,(H,6,7)
Instrument: JMS-T100GCV (JEOL, Akishima, Japan) coupled to Agilent 7890A (Santa Clara, CA, USA) gas chromatograph.
Instrument type: GC-EI-TOF
Ms type: MS
Ion mode: POSITIVE
Ionization: EI
Column name: DB-5MS UI 122-5532UI US0462866H (Agilent, Wilmington, USA) with the length 30 m, I.D. 0.25 mm, and thickness 0.25 micrometer.
Retention time: 9.95 min.
Derivative form: C16H37NO2Si2
Derivative mass: 331.23628
Derivative type: 2TBDMS
m/z	relative intensity
27.024	5
28.006	3
28.031	2
28.985	3
29.039	35
30.041	1
31.001	7
31.99	1
35.977	1
39.024	8
40.031	2
41.04	47
41.993	1
42.011	1
42.035	25
43.001	27
43.041	2
44.008	6
44.05	31
44.98	8
45.016	49
45.053	1
45.981	0
46.016	3
46.996	10
47.995	0
51.023	0
52.006	1
53.039	1
54.038	1
55.019	8
55.055	4
55.996	3
56.063	9
57.016	5
57.071	64
58.024	38
58.071	4
59.032	170
59.181	1
59.412	0
59.678	0
59.956	0
60.004	2
60.032	11
61.011	7
62.01	1
66.021	10
66.522	1
67.02	1
67.055	1
68.05	6
69.016	2
69.057	1
70.018	2
70.066	1
71.031	4
72.034	18
72.519	2
72.957	1
73.047	999
73.269	1
73.353	2
73.469	3
73.757	2
74.048	79
74.405	1
74.727	1
75.027	107
75.402	1
75.729	1
76.028	7
76.384	0
76.705	0
77.024	4
77.076	0
78.046	0
79.527	2
80.029	1
80.534	6
81.034	1
82.028	1
82.072	0
83.032	3
83.083	0
84.044	3
84.081	0
85.012	1
85.047	13
86.043	49
86.535	1
86.972	1
87.048	9
87.542	227
88.045	42
88.323	0
88.405	0
88.541	17
88.988	1
89.046	3
90.055	1
91.054	1
92.993	1
93.542	1
95.031	0
96.03	0
97.047	2
98.045	2
99.027	25
99.063	13
100.06	21
100.177	0
100.207	0
100.533	1
101.006	6
101.066	28
101.998	2
102.074	39
103.004	6
103.074	4
104.004	1
104.069	2
105.019	3
106.019	0
108.548	26
108.669	0
109.048	5
109.547	2
110.048	0
112.059	1
113.025	1
113.078	2
114.074	16
115.004	3
115.093	21
115.233	0
116.03	11
116.094	3
117.02	22
118.021	4
118.069	21
119.035	29
120.035	4
121.032	2
126.074	1
127.078	0
128.054	1
128.089	1
129.037	7
130.039	1
130.104	1
131.035	36
132.035	7
133.05	79
133.615	0
134.051	11
135.048	6
136.049	1
140.089	1
141.082	0
142.069	11
142.105	7
143.075	3
144.048	3
144.12	2
145.049	2
146.046	14
147.066	745
147.382	0
147.5	2
147.665	2
148.067	113
148.546	1
149.064	54
149.473	1
150.065	5
150.434	0
150.853	0
151.061	1
156.121	3
157.05	1
157.124	1
158.063	4
158.136	907
158.463	0
158.586	2
158.758	3
159.068	6
159.138	124
159.658	2
160.062	17
160.135	35
160.622	1
161.064	4
161.136	3
161.585	1
162.068	2
162.54	0
163.002	0
163.062	0
171.067	1
172.061	1
172.152	2
173.047	4
173.154	1
174.078	14
175.069	5
176.089	3
177.083	1
184.115	0
187.096	1
188.093	1
189.113	57
190.114	11
191.111	4
192.113	1
196.207	0
196.446	0
196.512	0
198.132	1
200.119	0
202.072	5
203.074	1
204.072	0
207.032	0
216.088	6
217.091	1
218.138	1
230.141	0
231.124	49
232.155	534
232.86	2
233.157	110
234.154	44
235.155	6
235.582	0
235.689	0
236.154	1
236.24	0
238.922	1
258.135	2
259.136	0
260.14	0
272.15	10
273.168	11
274.166	312
274.984	1
275.168	71
276.165	28
276.784	0
276.911	0
277.166	4
277.363	0
277.442	0
278.166	1
314.197	1
316.213	11
317.215	3
318.213	1
330.229	1
331.23	0
