Mass spectrum: Lufenuron; LC-ESI-QTOF; MS2; ESI; NEGATIVE; CE 20 V
Name: Lufenuron
Class: Non-natural product
Formula: C17H8Cl2F8N2O3
Exact mass: 509.97842
SMILES: O=C(NC(=O)c1c(F)cccc1F)Nc1cc(Cl)c(OC(F)(F)C(F)C(F)(F)F)cc1Cl
InChI: InChI=1S/C17H8Cl2F8N2O3/c18-6-5-11(32-17(26,27)14(22)16(23,24)25)7(19)4-10(6)28-15(31)29-13(30)12-8(20)2-1-3-9(12)21/h1-5,14H,(H2,28,29,30,31)
Instrument: ExionLC AD, AB Sciex LLC, USA; X500R QTOF, AB Sciex LLC, USA.
Instrument type: LC-ESI-QTOF
Ms type: MS2
Ion mode: NEGATIVE
Collision energy: 20 V
Ionization: ESI
Column name: AQ-C18HP 3 microm, 2.1 mm Ã— 150 mm, GL Science (Tokyo Japan)
Retention time: 15.4 min
Precursor m/z: 508.97114
Precursor type: [M-H]-
m/z	relative intensity
34.9692	21
41.9983	18
146.9872	28
156.0265	51
174.9599	9
201.9464	219
302.9977	63
325.9562	947
326.9614	14
338.9725	999
339.978	27
350.9538	98
351.9377	24
432.9829	20
445.9592	26
452.9879	252
468.9584	90
488.9639	376
508.9708	101
