Mass spectrum: Succinic acid-[1,2,3,4-13C4]; GC-EI-Q; MS; POSITIVE; 2TMS-derivative
Name: Succinic acid-[1,2,3,4-13C4]
Class: In vitro synthetic compound
Formula: C4H6O4
Exact mass: 118.02661
SMILES: OC(=O)CCC(O)=O
InChI: InChI=1S/C4H6O4/c5-3(6)1-2-4(7)8/h1-2H2,(H,5,6)(H,7,8)/i1+1,2+1,3+1,4+1
Instrument: GCMS-QP2010 Ultra (Shimadzu, Kyoto, Japan)
Instrument type: GC-EI-Q
Ms type: MS
Ion mode: POSITIVE
Column name: DB-5MS+DG (Agilent Technologies, Santa Clara, CA, USA)
Derivative form: C10H22O4Si2
Derivative mass: 262.10566
Derivative type: 2 TMS
m/z	relative intensity	assigned
52.05	12	
55.05	29	
56.1	24	
57.1	33	
58.1	147	
59.05	165	
60.05	49	
61.05	48	
66.05	13	
71.05	11	
72.15	53	
73.05	977	
74.05	106	
75.05	493	
76.05	34	
77.05	24	
79.05	10	
87.05	12	
88.05	22	
89.05	16	
93	12	
103	15	
115	13	
116.1	10	
117.05	14	
118.05	30	C2(13C2)H8O2Si+
119.05	13	
131.1	26	
132.05	55	
133.05	65	
134	11	
135	12	
146.15	15	
147.1	999	
148.1	165	
149.1	76	
150.1	10	
176.05	25	
177.05	14	
211	10	
240.05	13	
247.05	12	
251.1	71	
252.1	12	
299.05	111	
300.05	24	
301.05	13	
314.1	17	
