Mass spectrum: Peridinin; LC-ESI-QTOF; MS2; POSITIVE; ESI; [M+H]+; CE 20 V.
Name: Peridinin
Class: Natural product; carotenoids; xanthophyll
Formula: C39H50O7
Exact mass: 630.3557
SMILES: C/C(=C\C=C\C=C\C=C(/C)\C=C/1\C=C(C(=O)O1)/C=C/[C@]23[C@](O2)(C[C@H](CC3(C)C)O)C)/C=C=C4[C@](C[C@H](CC4(C)C)OC(=O)C)(C)O
InChI: InChI=1S/C39H50O7/c1-26(16-17-33-35(4,5)24-32(44-28(3)40)25-37(33,8)43)14-12-10-11-13-15-27(2)20-31-21-29(34(42)45-31)18-19-39-36(6,7)22-30(41)23-38(39,9)46-39/h10-16,18-21,30,32,41,43H,22-25H2,1-9H3/b12-10+,13-11+,19-18+,26-14+,27-15+,31-20-/t17?,30-,32-,37+,38+,39-/m0/s1
Instrument: Xevo G2-S QtOF, Waters (USA) coupled to ACQUITY UPLC, Waters (USA).
Instrument type: LC-ESI-QTOF
Ms type: MS2
Ion mode: POSITIVE
Collision energy: 20 V
Ionization: ESI
Column name: BEH C18, I.D. 2.1 mm, length 100 mm, thickness 1.7 micrometer.
Ion type: [M+H]+
Precursor m/z: 631.3629
m/z	relative intensity
107.074	100
109.088	59
119.070	56
121.087	130
123.029	85
125.044	65
125.082	124
133.087	136
137.084	67
145.086	67
147.104	90
149.041	52
149.050	58
149.083	239
155.092	76
157.088	76
159.102	90
163.098	123
167.092	74
171.103	168
173.118	137
175.059	158
181.109	385
189.115	83
195.103	71
197.120	107
199.130	157
200.144	130
207.106	53
209.120	76
211.096	57
211.129	109
211.138	83
222.127	57
223.134	136
224.136	66
225.114	53
233.114	81
235.135	72
237.149	418
249.148	87
261.156	60
263.132	88
271.136	53
273.155	74
289.202	67
301.179	52
307.153	62
311.172	67
313.182	69
319.196	195
325.179	59
327.191	55
329.183	74
332.206	57
337.183	52
373.208	52
379.193	68
399.211	55
413.205	67
433.233	55
460.261	63
461.242	76
461.261	64
487.296	53
489.306	55
507.313	109
517.324	67
535.307	90
535.328	220
536.319	115
553.326	999
553.349	170
554.330	336
554.347	127
570.348	83
571.328	81
571.346	90
572.345	83
612.359	71
613.352	95
630.344	131
630.355	62
630.379	81
631.362	324
631.391	88
632.377	86
