Mass spectrum: Chlorpyrifos; ESI-ITFT; MS2; [M+H]+
Name: Chlorpyrifos
Class: Non-Natural Product; Agrochemicals
Formula: C9H11Cl3NO3PS
Exact mass: 348.92628
SMILES: CCOP(=S)(OCC)OC1=NC(=C(C=C1Cl)Cl)Cl
InChI: InChI=1S/C9H11Cl3NO3PS/c1-3-14-17(18,15-4-2)16-9-7(11)5-6(10)8(12)13-9/h5H,3-4H2,1-2H3
Instrument: LTQ Orbitap Velos (Thermofisher Scientific)
Instrument type: ESI-ITFT
Ms type: MS2
Ion mode: POSITIVE
Ionization: ESI
Precursor m/z: 349.93465
Precursor type: [M+H]+
m/z	relative intensity
96.95085	7
114.96142	553
124.98212	20
132.97193	2
142.99266	37
153.01348	105
171.02398	407
172.02731	2
188.92947	1
197.92748	999
197.94416	1
198.9308	6
213.90458	8
225.95878	10
241.9359	1
275.86044	11
293.87101	362
294.87464	2
303.89174	17
305.92517	1
321.88522	2
321.90224	699
321.91889	2
321.92797	1
322.90593	7
349.18336	2
349.79067	2
349.93349	623
350.93711	8
366.80088	8
367.80119	58
368.79739	5
