Mass spectrum: 2-Aminoisobutyric Acid; GC-EI-TOF; MS; POSITIVE; EI; 70 V; TFA, TMS
Name: 2-Aminoisobutyric Acid
Class: Non-natural compound
Formula: C4H9NO2
Exact mass: 103.0633285
SMILES: CC(C)(C(=O)O)N
InChI: InChI=1S/C4H9NO2/c1-4(2,5)3(6)7/h5H2,1-2H3,(H,6,7)
Instrument: JMS-T100GCV (JEOL, Akishima, Japan) coupled to Agilent 7890A (Santa Clara, CA, USA) gas chromatograph.
Instrument type: GC-EI-TOF
Ms type: MS
Ion mode: POSITIVE
Ionization: EI
Column name: DB-5MS UI 122-5532UI US0462866H (Agilent, Wilmington, USA) with the length 30 m, I.D. 0.25 mm, and thickness 0.25 micrometer.
Retention time: 6.41 min.
Derivative form: C9H16F3NO3Si
Derivative mass: 271.08515
Derivative type: TFA, TMS
m/z	relative intensity
27.024	9
27.977	5
28.019	8
28.985	17
29.039	6
31.0	6
39.024	31
40.031	10
41.039	197
41.993	6
42.011	3
42.035	154
43.001	64
43.04	6
44.011	43
44.98	77
45.016	104
45.981	4
46.016	6
46.995	58
47.995	3
48.992	6
51.005	10
54.035	4
55.001	9
55.044	2
56.013	5
56.05	16
57.02	13
57.058	18
58.025	32
58.065	3
58.996	17
59.05	90
60.003	10
60.053	3
61.011	41
61.046	4
62.01	3
63.007	8
64.014	2
66.016	4
68.016	3
68.995	113
69.034	126
70.039	10
71.032	5
72.039	36
73.047	999
73.469	3
73.759	2
74.019	13
74.048	74
74.409	1
75.027	208
76.026	15
77.022	88
78.019	9
79.002	9
84.045	100
85.048	7
86.06	2
87.048	9
88.056	6
90.017	3
91.057	15
92.042	4
93.533	4
94.011	19
96.007	6
96.991	4
98.022	2
99.063	21
100.022	11
100.06	6
101.043	2
102.038	6
103.022	3
104.032	2
106.047	6
107.054	2
110.022	7
113.042	4
114.017	61
114.074	20
115.054	8
116.053	6
117.037	13
118.046	5
120.028	47
121.029	3
122.017	2
129.037	6
130.105	11
131.09	15
132.046	10
132.092	2
134.042	26
135.05	89
136.053	5
137.045	9
138.017	8
142.045	3
143.053	798
143.646	2
144.054	89
144.504	1
145.051	29
146.053	2
152.033	5
153.04	21
154.048	517
154.288	1
154.594	2
154.663	2
155.051	27
156.053	2
157.068	3
158.1	73
159.102	9
160.098	3
166.011	16
170.025	21
171.028	2
174.095	17
175.096	2
178.07	2
186.057	3
204.086	4
212.072	40
213.074	5
227.095	121
228.097	15
229.094	4
256.062	140
257.064	17
258.061	6
