Mass spectrum: Isoxaflutole; GC-EI-Q; MS; Positive; M+*
Name: Isoxaflutole
Class: Non-Natural Product; Pesticides
Formula: C15H12F3NO4S
Exact mass: 359.04391
SMILES: FC(F)(F)c(c3)cc(S(C)(=O)=O)c(c3)C(=O)c(c2)c(on2)C(C1)C1
InChI: InChI=1S/C15H12F3NO4S/c1-24(21,22)12-6-9(15(16,17)18)4-5-10(12)13(20)11-7-19-23-14(11)8-2-3-8/h4-8H,2-3H2,1H3
Instrument: GCMS-QP2010 Plus, Shimadzu
Instrument type: GC-EI-Q
Ms type: MS
Ion mode: POSITIVE
Ionization: EI
Column name: Ptx-5MS(RESTEK), 0.32 mm I.D. x 30 m, df=0.25 microm
Retention time: 10.9 min
Ion type: [M]+*
Precursor m/z: 359.0
m/z	relative intensity
40	8
41	55
43	16
44	45
50	31
51	17
52	22
53	30
54	5
55	27
57	9
58	5
59	6
61	23
62	39
63	294
64	70
65	38
66	13
67	5
69	28
71	11
72	5
73	19
74	20
75	95
76	30
77	25
79	11
80	6
81	22
82	13
83	14
86	8
88	32
89	6
90	51
91	69
92	9
93	11
94	24
98	10
99	27
102	14
105	9
106	6
107	19
108	5
110	26
112	55
113	41
114	13
115	17
117	7
118	20
124	11
125	16
126	10
127	21
131	13
132	269
133	41
141	124
143	20
144	46
145	9
146	14
153	5
154	28
155	21
159	22
160	532
161	76
162	13
165	5
167	5
169	13
170	12
172	13
173	11
174	6
176	12
177	5
182	19
183	14
184	5
186	5
188	198
189	280
190	25
194	9
195	11
196	30
199	9
202	15
204	6
205	8
208	9
210	9
211	7
212	5
216	7
222	9
223	40
224	44
230	6
231	6
232	14
233	9
237	4
238	5
239	22
242	9
243	6
250	16
251	81
252	287
253	295
254	40
258	11
259	25
260	81
261	28
262	44
264	21
278	138
279	999
280	162
340	5
459	5
