Mass spectrum: Citric acid-[1,2,3,4,5,6-13C6]; GC-EI-Q; MS; POSITIVE; 4 TBDMS-derivative
Name: Citric acid-[1,2,3,4,5,6-13C6]
Class: In vitro synthetic compound
Formula: C6H8O7
Exact mass: 192.02700
SMILES: OC(=O)CC(O)(CC(O)=O)C(=O)O
InChI: InChI=1S/C6H8O7/c7-3(8)1-6(13,5(11)12)2-4(9)10/h13H,1-2H2,(H,7,8)(H,9,10)(H,11,12)/i1+1,2+1,3+1,4+1,5+1,6+1
Instrument: GCMS-QP2010 Ultra (Shimadzu, Kyoto, Japan)
Instrument type: GC-EI-Q
Ms type: MS
Ion mode: POSITIVE
Column name: DB-5MS+DG (Agilent Technologies, Santa Clara, CA, USA)
Derivative form: C30H64O7Si4
Derivative mass: 648.372913
Derivative type: 4 TBDMS
m/z	relative intensity	assigned
57.1	19	
58.05	11	
59.05	39	
71.05	15	
72.15	28	
73.05	999	
74.1	100	
75.05	83	
85.05	12	
99.05	13	
100.1	10	
115.1	77	
116.1	13	
132.1	10	
133.05	43	
144.1	12	
146.15	12	
147.1	307	
148.1	53	
149.1	78	
150.1	10	
189.15	43	
190.15	12	
191.1	10	
199.25	15	
200.15	119	
201.2	23	
207.1	21	
219.1	12	
221.15	25	
230.15	10	
259.15	55	
262.15	13	
263.2	10	
304.2	34	C13H23O4Si2+
333.2	12	
343.25	16	
362.2	56	C17H33O4Si2+
363.2	14	
391.25	21	
435.25	10	
436.25	69	C19H39O5Si3+
437.25	23	
438.2	11	
446.3	32	
447.2	12	
464.35	19	
465.25	137	
466.2	42	
467.2	22	
597.35	43	
598.3	19	
599.3	10	
