Mass spectrum: Polyporenic acid C; ESI-QTOF; MS2; NEGATIVE; [M-H]-; CID; 60 V
Name: Polyporenic acid C
Class: Non-natural product; Lanosterol analogue
Formula: C31H46O4
Exact mass: 482.33961
SMILES: CC(C)C(=C)CC[C@H]([C@H]1[C@@H](C[C@@]2([C@@]1(CC=C3C2=CC[C@@H]4[C@@]3(CCC(=O)C4(C)C)C)C)C)O)C(=O)O
InChI: InChI=1S/C31H46O4/c1-18(2)19(3)9-10-20(27(34)35)26-23(32)17-31(8)22-11-12-24-28(4,5)25(33)14-15-29(24,6)21(22)13-16-30(26,31)7/h11,13,18,20,23-24,26,32H,3,9-10,12,14-17H2,1-2,4-8H3,(H,34,35)/t20-,23-,24+,26+,29-,30-,31+/m1/s1
Instrument: X500R QTOF (AB Sciex LLC, USA)
Instrument type: ESI-QTOF
Ms type: MS2
Ion mode: NEGATIVE
Collision energy: 60 V
Fragmentation mode: CID
Ionization: ESI
Precursor m/z: 481.33233
Precursor type: [M-H]-
m/z	relative intensity
43.0185	122
55.0187	33
57.0343	63
69.0343	30
83.0498	40
85.0657	100
95.0499	61
97.0657	999
99.0816	32
137.0975	50
173.0979	52
193.1604	54
239.1453	45
241.1598	70
257.1561	44
265.1613	47
267.1764	96
269.1554	84
269.1925	57
271.1711	280
277.1613	97
278.1691	105
279.1764	152
281.1548	54
283.1719	76
283.2081	76
284.1794	100
289.1975	94
291.1766	117
291.2132	61
293.1919	195
295.1717	144
296.1797	122
297.1866	238
305.1914	124
307.1721	187
307.2073	120
309.187	95
311.2032	333
317.2289	89
319.209	64
321.2236	68
323.2029	60
333.2228	63
335.2393	97
349.2552	50
359.2395	82
361.2561	54
373.2546	119
387.2707	475
388.2779	209
389.2859	61
391.3028	71
403.2661	123
403.3017	276
404.2741	143
405.2807	403
419.2969	464
419.3317	101
421.3125	324
435.3278	319
481.3342	412
