Mass spectrum: Trametenolic acid; ESI-QTOF; MS2; NEGATIVE; [M-H]-; CID; 60 V
Name: Trametenolic acid
Class: Non-natural product; Triterpenoid
Formula: C30H48O3
Exact mass: 456.36035
SMILES: CC(=CCC[C@H]([C@H]1CC[C@@]2([C@@]1(CCC3=C2CC[C@@H]4[C@@]3(CC[C@@H](C4(C)C)O)C)C)C)C(=O)O)C
InChI: InChI=1S/C30H48O3/c1-19(2)9-8-10-20(26(32)33)21-13-17-30(7)23-11-12-24-27(3,4)25(31)15-16-28(24,5)22(23)14-18-29(21,30)6/h9,20-21,24-25,31H,8,10-18H2,1-7H3,(H,32,33)/t20-,21-,24+,25+,28-,29-,30+/m1/s1
Instrument: X500R QTOF (AB Sciex LLC, USA)
Instrument type: ESI-QTOF
Ms type: MS2
Ion mode: NEGATIVE
Collision energy: 60 V
Fragmentation mode: CID
Ionization: ESI
Precursor m/z: 455.35307
Precursor type: [M-H]-
m/z	relative intensity
44.9979	8
71.0135	5
95.0499	5
97.0656	128
120.0577	7
269.1908	36
295.2066	53
309.2225	56
311.2378	24
323.2381	19
339.2692	398
355.2642	55
373.2746	127
385.2744	20
425.3056	272
435.3261	27
437.3419	104
455.3524	999
