Mass spectrum: 2-(4-Methylphenyl)ethylamine; LC-ESI-QQ; MS2; POSITIVE; [M+H]+; CID; 30 V
Name: 2-(4-Methylphenyl)ethylamine
Class: Non-natural product; Phenethylamine
Formula: C9H13N
Exact mass: 135.10480
SMILES: CC1=CC=C(C=C1)CCN
InChI: InChI=1S/C9H13N/c1-8-2-4-9(5-3-8)6-7-10/h2-5H,6-7,10H2,1H3
Instrument: Xevo TQS micro (Waters, MA, USA) coupled to ACQUITY UPLC H-Class (Waters, MA, USA)
Instrument type: LC-ESI-QQ
Ms type: MS2
Ion mode: POSITIVE
Collision energy: 30 V
Fragmentation mode: CID
Ionization: ESI
Column name: Acquity UPLC BEH AMIDE column (1.7 Âµm, 2.1 x 150 mm; Waters, MA, USA)
Precursor m/z: 136.112072
Precursor type: [M+H]+
m/z	relative intensity
30.5	68
40.6	45
41.1	131
41.6	55
41.8	50
42	85
42.7	104
44.8	40
45	175
45.4	41
46.7	139
47.1	151
53.6	62
54.5	14
55	53
56.9	17
57.2	26
58.3	53
58.8	26
59.7	62
61.2	63
62.5	274
62.8	94
63.1	285
63.3	51
64.2	45
64.9	308
65.2	231
65.9	91
66.8	65
72.8	131
73.2	28
74.6	39
76.5	21
76.7	52
77	186
77.9	69
78.3	153
78.6	55
79.1	36
86.7	63
90.6	143
90.8	344
91	999
91.2	439
91.4	76
91.7	72
102.8	197
103.3	172
103.7	87
103.9	83
104	76
108.5	123
109.2	104
115	54
115.3	255
117.3	78
117.6	75
118.4	79
119.7	57
125.2	92
131.3	65
144.8	50
