Mass spectrum: Chlorpheniramine; LC-ESI-QQ; MS; ESI; POSITIVE
Name: Chlorpheniramine
Class: Non-natural product
Formula: C16H19ClN2
Exact mass: 274.123668
SMILES: CN(C)CCC(C1=CC=C(C=C1)Cl)C2=CC=CC=N2
InChI: InChI=1S/C16H19ClN2/c1-19(2)12-10-15(16-5-3-4-11-18-16)13-6-8-14(17)9-7-13/h3-9,11,15H,10,12H2,1-2H3
Instrument: LCMS-8040 coupled to Nexera XR (Shimadzu, Kyoto, Japan).
Instrument type: LC-ESI-QQ
Ms type: MS
Ion mode: POSITIVE
Ionization: ESI
Column name: InertSustain C18 ID 2.1 microm, 2.1 x 100 mm (GL Science, Tokyo, Japan).
Retention time: 7.639 min
m/z	relative intensity
122.3	16
163.2	14
230.1	76
232.2	26
240.2	13
275.2	999
276.2	164
277.2	293
278.2	54
