Mass spectrum: 2,5-Heptanedione; GC-EI-TOF; MS; positive; EI; 70 V
Name: 2,5-Heptanedione
Class: Non-natural product
Formula: C7H12O2
Exact mass: 128.08373
SMILES: CC(=O)CCC(=O)CC
InChI: InChI=1S/C7H12O2/c1-3-7(9)5-4-6(2)8/h3-5H2,1-2H3
Instrument: JMS-T100GCV (JEOL, Akishima, Japan) coupled to Agilent 7890A (Agilent, Wilmington, USA) gas chromatograph.
Instrument type: GC-EI-TOF
Ms type: MS
Ion mode: POSITIVE
Ionization: EI
Column name: HP-5 19091 J-413 USD364547H (Agilent, Wilmington, USA), length 30 m, I.D. 0.32 mm, thickness 0.25 micrometer.
Retention time: 6.46 min.
m/z	relative intensity
26.016	34
27.024	216
27.048	2
27.095	2
28.006	12
28.031	93
28.071	2
29.003	15
29.039	364
29.082	4
30.043	8
31.019	8
31.990	7
38.016	6
39.024	43
40.031	5
41.004	3
41.039	37
42.011	64
42.046	4
43.018	999
43.055	24
43.311	3
43.341	3
43.553	2
43.781	1
43.807	1
43.827	2
44.022	25
45.034	6
50.017	5
51.024	7
53.003	5
53.039	16
54.011	4
54.046	3
55.019	47
55.055	9
56.026	29
57.034	648
57.184	2
57.366	2
58.038	25
59.045	2
65.039	3
67.055	9
69.034	3
69.071	2
70.042	7
71.050	165
71.152	1
72.055	10
73.064	3
81.034	15
85.065	34
86.072	7
91.056	3
95.050	12
98.037	9
99.045	874
99.474	2
99.536	3
99.797	2
99.921	2
100.048	46
100.220	2
101.048	5
113.061	11
128.084	12
