Mass spectrum: Fumaric acid-[1,2,3,4-13C4]; GC-EI-QQ; MS2; POSITIVE; CID 10 V; 2 TMS-derivative; [M-15]+
Name: Fumaric acid-[1,2,3,4-13C4]
Class: In vitro synthetic compound
Formula: C4H4O4
Exact mass: 116.01096
SMILES: C(=C/C(=O)O)\C(=O)O
InChI: InChI=1S/C4H4O4/c5-3(6)1-2-4(7)8/h1-2H,(H,5,6)(H,7,8)/b2-1+/i1+1,2+1,3+1,4+1
Instrument: GCMS-TQ8040 (Shimadzu, Kyoto, Japan)
Instrument type: GC-EI-QQ
Ms type: MS2
Ion mode: POSITIVE
Collision energy: 10 V
Fragmentation mode: CID
Column name: DB-5MS+DG (Agilent Technologies, Santa Clara, CA, USA)
Derivative form: C10H20O4Si2
Derivative mass: 260.09001
Derivative type: 2 TMS
Precursor m/z: 249.07941
m/z	relative intensity
73.05	71
133.05	11
147.05	157
149.1	51
159	17
175.15	12
220.1	55
249.1	999
