Mass spectrum: Poricoic acid A; ESI-QTOF; MS2; NEGATIVE; [M-H]-; CID; 60V
Name: Poricoic acid A
Class: Non-natural product; Tricyclic triterpenoid
Formula: C31H46O5
Exact mass: 498.33453
SMILES: CC(C)C(=C)CC[C@H]([C@H]1[C@@H](C[C@@]2([C@@]1(CC=C3C2=CC[C@H]([C@]3(C)CCC(=O)O)C(=C)C)C)C)O)C(=O)O
InChI: InChI=1S/C31H46O5/c1-18(2)20(5)9-10-21(28(35)36)27-25(32)17-31(8)24-12-11-22(19(3)4)29(6,15-14-26(33)34)23(24)13-16-30(27,31)7/h12-13,18,21-22,25,27,32H,3,5,9-11,14-17H2,1-2,4,6-8H3,(H,33,34)(H,35,36)/t21-,22+,25-,27+,29+,30-,31+/m1/s1
Instrument: X500R QTOF (AB Sciex LLC, USA)
Instrument type: ESI-QTOF
Ms type: MS2
Ion mode: NEGATIVE
Collision energy: 60 V
Fragmentation mode: CID
Ionization: ESI
Precursor m/z: 497.32725
Precursor type: [M-H]-
m/z	relative intensity
43.0183	62
57.034	11
69.034	12
71.0133	98
73.0289	80
83.0497	7
97.0291	7
97.0655	9
149.1334	24
153.1283	17
165.1283	9
183.1179	13
185.1335	36
197.1335	51
199.1127	44
211.149	337
212.1539	16
213.1284	190
213.1645	32
214.135	17
215.1441	77
225.1286	18
227.1443	13
247.1495	20
251.1806	17
253.1601	21
263.1809	15
267.1759	19
279.2123	66
285.1866	20
291.2124	17
295.2074	29
297.2231	32
327.1973	24
331.2438	44
347.2387	107
347.2736	23
348.2457	23
361.2907	36
363.27	116
377.2855	22
379.3012	99
391.2285	25
409.2755	53
423.2908	999
424.2947	98
