Mass spectrum: Phosphatidyl-6-acetyl-glucose(18:0/20:0); ESI-ITFT; MS2; [M-H]-
Name: Phosphatidyl-6-acetyl-glucose(18:0/20:0)
Class: Natural Product; Phospholipids
Formula: C49H93O14P
Exact mass: 936.63029
SMILES: CCCCCCCCCCCCCCCCCCCC(=O)O[C@H](COC(CCCCCCCCCCCCCCCCC)=O)CO[P](O)(=O)O[C@@H]1[C@H]([C@@H]([C@H]([C@H](COC(C)=O)O1)O)O)O
InChI: InChI=1S/C49H93O14P/c1-4-6-8-10-12-14-16-18-20-21-23-25-27-29-31-33-35-37-45(52)61-42(38-59-44(51)36-34-32-30-28-26-24-22-19-17-15-13-11-9-7-5-2)39-60-64(56,57)63-49-48(55)47(54)46(53)43(62-49)40-58-41(3)50/h42-43,46-49,53-55H,4-40H2,1-3H3,(H,56,57)/t42-,43+,46+,47-,48+,49-/m1/s1
Instrument: APEX-II FT-ICR (Bruker Daltonics)
Instrument type: ESI-ITFT
Ms type: MS2
Ion mode: NEGATIVE
Collision energy: SORI CID
Ionization: ESI
Precursor m/z: 935.62192
Precursor type: [M-H]-
m/z	relative intensity
152.99581	451
283.26412	999
284.26747	160
311.2954	412
312.29845	76
419.25628	274
420.26008	39
447.28759	60
935.622191	114
936.62728	109
