Mass spectrum: Atrazine; GC-EI-Q; MS; Positive; M+*
Name: Atrazine
Class: Non-Natural Product; Pesticides
Formula: C8H14ClN5
Exact mass: 215.09377
SMILES: CCNc(n1)nc(NC(C)C)nc(Cl)1
InChI: InChI=1S/C8H14ClN5/c1-4-10-7-12-6(9)13-8(14-7)11-5(2)3/h5H,4H2,1-3H3,(H2,10,11,12,13,14)
Instrument: GCMS-QP2010 Plus, Shimadzu
Instrument type: GC-EI-Q
Ms type: MS
Ion mode: POSITIVE
Ionization: EI
Column name: Ptx-5MS(RESTEK), 0.32 mm I.D. x 30 m, df=0.25 microm
Retention time: 8.0 min
Ion type: [M]+*
Precursor m/z: 215.09
m/z	relative intensity
40	18
41	158
42	189
43	503
44	253
45	8
53	25
54	15
55	68
56	15
57	32
58	644
59	28
62	55
64	15
67	29
68	341
69	247
70	29
71	250
72	7
74	7
78	7
79	29
80	7
81	23
82	10
83	42
84	6
85	7
87	39
88	9
89	17
90	13
91	58
92	267
94	116
95	31
96	125
97	27
100	46
101	17
103	5
104	122
105	114
106	48
107	42
108	9
109	13
110	57
111	11
116	5
117	17
119	13
120	6
121	12
122	184
123	50
129	25
130	67
131	31
132	187
133	18
134	58
135	5
136	31
137	28
138	180
139	14
143	16
144	5
145	102
146	11
147	33
148	6
152	30
155	9
156	5
157	29
158	122
159	25
160	37
161	7
164	23
165	5
170	7
171	5
172	173
173	316
174	81
175	94
176	10
180	18
184	8
186	20
187	37
188	7
189	11
198	21
199	6
200	999
201	90
202	318
203	31
212	11
213	7
214	60
215	639
216	77
217	213
218	21
