Mass spectrum: (3RS,6S)-8-Benzyloxy-2,6-dimethyloctane-2,3-diol; GC-FI-TOF; MS; positive; FI; 10 kV
Name: (3RS,6S)-8-Benzyloxy-2,6-dimethyloctane-2,3-diol
Class: Non-natural product
Formula: C17H28O3
Exact mass: 280.20385
SMILES: CC(C)(O)C(O)CC[C@H](C)CCOCC1=CC=CC=C1
InChI: InChI=1S/C17H28O3/c1-14(9-10-16(18)17(2,3)19)11-12-20-13-15-7-5-4-6-8-15/h4-8,14,16,18-19H,9-13H2,1-3H3/t14-,16?/m0/s1
Instrument: JMS-T100GCV (JEOL, Akishima, Japan) coupled to Agilent 7890A (Agilent, Wilmington, USA) gas chromatograph.
Instrument type: GC-FI-TOF
Ms type: MS
Ion mode: POSITIVE
Ionization: FI
Column name: HP-5 19091 J-413 USD364547H (Agilent, Wilmington, USA), length 30.0 m, I.D. 0.32 mm, thickness 0.25 micrometer.
Retention time: 10.5 min.
m/z	relative intensity
31.0186	3
43.054	2
44.0261	4
57.0339	2
58.0415	19
59.0498	999
59.3255	2
59.4307	3
59.6669	2
59.7455	1
59.9654	2
60.0196	1
60.0532	36
60.2669	2
60.2988	1
60.5286	2
61.0549	4
68.9966	2
89.0609	10
91.0544	69
92.0609	6
101.5719	9
110.5776	44
110.654	1
111.0788	6
113.0959	7
114.0967	2
121.0619	2
131.0991	17
131.5997	10
132.1019	2
137.1353	2
138.1402	5
154.1378	4
155.1458	34
155.2554	1
156.1529	39
157.158	5
171.1435	10
172.1451	2
173.1528	3
191.1508	2
219.1363	7
220.1435	5
221.1525	208
221.816	1
222.1568	37
223.1612	4
226.1821	2
229.1613	2
244.1812	34
245.1892	7
246.8393	1
247.1686	7
262.1917	847
262.9724	3
263.1959	179
264.2008	21
264.6354	2
264.8891	6
265.1974	3
265.8669	2
279.1977	25
280.2038	140
281.2093	77
282.2135	13
