Mass spectrum: (2-methyloctyl)(phenyl)sulfane; GC-EI-TOF; MS; POSITIVE; EI; 70 V
Name: (2-methyloctyl)(phenyl)sulfane
Class: Non-natural compound
Formula: C15H24S
Exact mass: 236.15987
SMILES: CCCCCCC(C)CSc1ccccc1
InChI: InChI=1S/C15H24S/c1-3-4-5-7-10-14(2)13-16-15-11-8-6-9-12-15/h6,8-9,11-12,14H,3-5,7,10,13H2,1-2H3
Instrument: JMS-T100GCV (JEOL, Akishima, Japan) coupled to Agilent 7890A gas chromatograph.
Instrument type: GC-EI-TOF
Ms type: MS
Ion mode: POSITIVE
Ionization: EI
Column name: HP-5 30x0.32 0.25um 19091J-413, length 30.0 m, I.D. 0.32 mm, thickness 0.25 micrometer.
Retention time: 9.64 min.
m/z	relative intensity
27.024	44
28.006	13
28.031	6
29.04	99
31.99	8
39.024	47
40.031	5
41.04	215
42.046	24
43.055	282
43.106	3
44.059	9
44.98	107
51.024	29
53.04	14
55.055	135
56.063	50
57.071	173
58.074	8
58.996	6
65.04	47
66.047	21
67.055	12
68.981	14
69.071	65
70.078	24
71.087	150
72.09	8
73.012	11
77.04	53
78.047	17
79.055	20
83.087	20
84.004	7
84.094	16
85.102	76
91.055	29
97.102	11
98.109	7
108.004	10
109.012	114
110.019	999
110.483	2
111.023	79
111.117	6
112.016	43
115.056	5
117.071	7
121.012	5
123.028	290
124.034	91
125.027	14
135.027	7
137.043	8
149.044	9
151.059	12
236.16	422
237.163	73
238.158	22
239.16	3
