Mass spectrum: 2,2'-Dithiodiethanol; FAB-BE; MS; Positive; Matrix 2,2'-Dithiodiethanol
Name: 2,2'-Dithiodiethanol
Class: Non-Natural Product
Formula: C4H10O2S2
Exact mass: 154.01222
SMILES: OCCSSCCO
InChI: InChI=1S/C4H10O2S2/c5-1-3-7-8-4-2-6/h5-6H,1-4H2
Instrument: JMS-700, JEOL
Instrument type: FAB-BE
Ms type: MS
Ion mode: POSITIVE
Ionization: FAB
m/z	relative intensity
27	32
29	38
31	12
39	21
41	100
42	12
43	129
45	103
47	16
49	12
53	11
55	114
56	15
57	144
59	35
60	30
61	82
64	15
67	38
68	11
69	115
70	12
71	93
75	28
76	21
77	18
78	14
79	69
81	43
83	33
85	13
89	27
91	77
92	148
93	58
94	15
95	27
97	18
99	17
103	21
104	12
105	45
107	31
108	11
109	247
110	43
111	26
113	11
123	28
133	12
135	57
136	25
137	772
138	53
139	77
141	45
149	799
150	95
151	14
152	14
153	32
154	999
155	316
156	106
157	30
167	17
169	20
171	17
181	12
186	12
187	21
197	11
199	36
213	10
231	298
232	30
233	43
261	74
262	20
263	59
265	12
271	12
277	12
279	19
291	14
309	117
310	15
311	24
335	14
351	23
363	15
364	17
389	14
391	440
392	123
393	25
544	12
