Mass spectrum: (1R)-2,3-Dimethylcyclopent-2-en-1-yl acetate; GC-FI-TOF; MS; positive; FI; 10 kV
Name: (1R)-2,3-Dimethylcyclopent-2-en-1-yl acetate
Class: Non-natural product
Formula: C9H14O2
Exact mass: 154.09938
SMILES: CC=1CC[C@@H](OC(=O)C)C=1C
InChI: InChI=1S/C9H14O2/c1-6-4-5-9(7(6)2)11-8(3)10/h9H,4-5H2,1-3H3/t9-/m1/s1
Instrument: JMS-T100GCV (JEOL, Akishima, Japan) coupled to Agilent 7890A (Agilent, Wilmington, USA) gas chromatograph.
Instrument type: GC-FI-TOF
Ms type: MS
Ion mode: POSITIVE
Ionization: FI
Column name: HP-5 19091 J-413 USD364547H (Agilent, Wilmington, USA), length 30.0 m, I.D. 0.32 mm, thickness 0.25 micrometer.
Retention time: 6.09 min.
m/z	relative intensity
94.078	136
95.084	15
154.099	999
155.102	92
