Mass spectrum: Isozophos; GC-EI-Q; MS; Positive; M+*
Name: Isozophos
Class: Non-Natural Product; Pesticides
Formula: C9H17ClN3O3PS
Exact mass: 313.04168
SMILES: CCOP(=S)(OCC)Oc(n1)nn(C(C)C)c(Cl)1
InChI: InChI=1S/C9H17ClN3O3PS/c1-5-14-17(18,15-6-2)16-9-11-8(10)13(12-9)7(3)4/h7H,5-6H2,1-4H3
Instrument: GCMS-QP2010 Plus, Shimadzu
Instrument type: GC-EI-Q
Ms type: MS
Ion mode: POSITIVE
Ionization: EI
Column name: Ptx-5MS(RESTEK), 0.32 mm I.D. x 30 m, df=0.25 microm
Retention time: 8.7 min
Ion type: [M]+*
Precursor m/z: 313.0
m/z	relative intensity
40	8
41	411
42	172
43	675
44	91
45	75
46	14
47	50
48	13
49	7
52	5
53	13
54	20
55	15
56	30
58	44
59	16
60	30
61	24
62	58
63	58
64	26
65	460
67	7
68	48
69	60
70	58
71	7
73	17
74	9
76	24
77	35
78	7
79	26
80	28
81	83
82	11
83	46
84	70
85	26
86	9
87	13
88	10
89	14
90	25
91	46
92	14
93	407
94	23
96	34
97	722
98	17
99	47
100	9
101	5
102	5
103	19
104	14
105	17
106	10
107	10
108	26
109	109
110	16
111	18
112	7
113	21
114	25
115	12
117	7
118	8
119	999
120	297
121	704
122	120
123	30
124	14
125	177
126	7
127	20
128	13
129	12
130	203
131	37
132	82
133	15
134	11
135	125
136	15
137	67
138	62
139	7
140	20
141	7
142	10
145	5
146	271
147	52
148	103
149	32
150	23
151	13
152	5
153	40
154	12
155	5
158	5
160	8
161	791
162	549
163	301
164	181
165	30
166	129
167	8
168	48
171	44
172	305
173	48
174	122
175	17
176	11
177	202
178	14
179	99
180	11
182	22
184	6
188	23
189	34
190	29
191	5
192	19
194	12
195	8
197	5
198	78
199	15
200	46
205	26
207	21
208	167
209	21
210	81
211	5
212	9
214	46
215	26
216	27
217	13
224	8
225	7
226	11
227	6
228	13
236	36
238	20
240	16
241	5
242	15
243	12
244	11
250	35
252	22
255	8
256	5
257	306
258	23
259	125
261	6
268	8
269	7
270	12
271	7
272	8
278	78
279	6
280	32
281	15
282	17
285	214
286	27
287	84
288	11
297	8
313	75
314	11
315	43
