Mass spectrum: Malic acid-[3-13C]; GC-EI-Q; MS; POSITIVE; 3 TBDMS-derivative
Name: Malic acid-[3-13C]
Class: In vitro synthetic compound
Formula: C4H6O5
Exact mass: 134.02153
SMILES: O=C(O)C(O)CC(=O)O
InChI: InChI=1S/C4H6O5/c5-2(4(8)9)1-3(6)7/h2,5H,1H2,(H,6,7)(H,8,9)/i1+1
Instrument: GCMS-QP2010 Ultra (Shimadzu, Kyoto, Japan)
Instrument type: GC-EI-Q
Ms type: MS
Ion mode: POSITIVE
Column name: DB-5MS+DG (Agilent Technologies, Santa Clara, CA, USA)
Derivative form: C22H48O5Si3
Derivative mass: 476.28095
Derivative type: 3 TBDMS
m/z	relative intensity	assigned
56	102	
57	32	
58	16	
59	62	
70.1	13	
73.05	999	
74.05	89	
75.05	109	
85.1	15	
99.1	16	
102.05	14	
115.15	278	
116.15	33	
117.1	18	
130.1	17	
131.1	14	
133.05	99	
134.1	15	
135.1	12	
147.15	293	
148.15	45	
149.1	50	
176.05	16	
177.05	11	
189.1	91	
190.1	18	
191.1	10	
207.05	16	
214.1	15	
218.1	41	
246.1	11	
260.1	17	
288.15	166	
289.15	35	
290.15	17	
318.2	13	C14(13C)H33O3Si2+
348.25	18	
349.2	26	
392.2	26	
404.2	49	
405.2	17	
420.2	206	
421.2	71	
422.2	33	
462.2	10	
