Mass spectrum: UDP-glucose; ESI-QTOF; MS2; NEGATIVE; [M-H]-; CID; 50 V
Name: UDP-glucose
Class: UDP-sugar
Formula: C15H24N2O17P2
Exact mass: 566.05502
SMILES: C1=CN(C(=O)NC1=O)[C@H]2[C@@H]([C@@H]([C@H](O2)COP(=O)(O)OP(=O)(O)O[C@@H]3[C@@H]([C@H]([C@@H]([C@H](O3)CO)O)O)O)O)O
InChI: InChI=1S/C15H24N2O17P2/c18-3-5-8(20)10(22)12(24)14(32-5)33-36(28,29)34-35(26,27)30-4-6-9(21)11(23)13(31-6)17-2-1-7(19)16-15(17)25/h1-2,5-6,8-14,18,20-24H,3-4H2,(H,26,27)(H,28,29)(H,16,19,25)/t5-,6-,8-,9-,10+,11-,12-,13-,14-/m1/s1
Instrument: X500R QTOF (AB Sciex LLC, USA)
Instrument type: ESI-QTOF
Ms type: MS2
Ion mode: NEGATIVE
Collision energy: 50 V
Fragmentation mode: CID
Ionization: ESI
Precursor m/z: 565.04774
Precursor type: [M-H]-
m/z	relative intensity	assigned
78.9579	999	[H3O3P-3H]-
96.9685	598	[H3O4P-H]-
111.0189	145	[C4H4N2O2-H]-
138.9789	84	[C2H7O5P-3H]-
150.9788	90	[C3H9O5P-5H]-
158.924	294	[H4O6P2-3H]-
210.9995	189	[C5H11O7P-3H]-
241.01	354	[C6H13O8P-3H]-
272.9555	267	[C5H12O9P2-5H]-
323.0268	446	[C9H13N2O9P-H]-
