Mass spectrum: Pyraclonil; ESI-QTOF; MS; POSITIVE
Name: Pyraclonil
Class: Non-natural product
Formula: C15H15ClN6
Exact mass: 314.1046
SMILES: CN(CC#C)C1=C(C=NN1C2=NN3CCCCC3=C2Cl)C#N
InChI: InChI=1S/C15H15ClN6/c1-3-7-20(2)15-11(9-17)10-18-22(15)14-13(16)12-6-4-5-8-21(12)19-14/h1,10H,4-8H2,2H3
Instrument: X500R QTOF (AB Sciex Pte. Ltd, USA)
Instrument type: ESI-QTOF
Ms type: MS
Ion mode: POSITIVE
Ionization: ESI
m/z	relative intensity
105.07	97
107.0857	15
111.1171	18
113.964	22
119.0858	21
120.0934	20
121.1011	165
122.1048	17
122.9643	19
133.0651	32
137.0601	13
149.1329	19
151.0756	103
155.9748	15
161.06	147
162.0636	16
179.0704	219
180.0742	24
199.1699	30
205.1956	62
207.033	36
211.097	20
223.0643	79
227.1261	36
239.1624	60
281.052	30
289.0971	27
309.2042	56
315.1115	999
316.1152	172
317.1095	314
318.1127	53
337.0937	745
338.0973	123
339.0916	229
340.0946	38
371.1021	33
413.2667	97
445.1211	40
651.1989	63
