Mass spectrum: (2S,5S)-2-((S)-2-Acetoxybut-3-en-1-yl)-5-(acetoxymethyl)tetrahydrofuran; GC-EI-TOF; MS; positive; EI; 70 V
Name: (2S,5S)-2-((S)-2-Acetoxybut-3-en-1-yl)-5-(acetoxymethyl)tetrahydrofuran
Class: Non-natural compound
Formula: C13H20O5
Exact mass: 256.13107
SMILES: O=C(C)OC[C@@H]1CC[C@@H](C[C@@H](C=C)OC(C)=O)O1
InChI: InChI=1S/C13H20O5/c1-4-11(17-10(3)15)7-12-5-6-13(18-12)8-16-9(2)14/h4,11-13H,1,5-8H2,2-3H3/t11-,12+,13+/m1/s1
Instrument: JMS-T100GCV (JEOL, Akishima, Japan) coupled to Agilent 7890A (Agilent, Wilmington, USA) gas chromatograph.
Instrument type: GC-EI-TOF
Ms type: MS
Ion mode: POSITIVE
Ionization: EI
Column name: ZB-1MS 7HM-G011-11 sn:313446 (Agilent, Wilmington, USA), length 30 m, I.D. 0.32 mm, thickness 0.25 micrometer.
Retention time: 9.04 min.
m/z	relative intensity
27.023	23
28.006	12
28.031	9
29.003	10
29.039	22
31.018	7
31.99	7
39.023	30
40.03	4
41.039	57
42.011	15
42.046	9
43.018	999
43.055	14
43.342	3
43.565	2
43.786	1
43.822	1
44.023	23
44.059	1
45.032	4
52.031	3
53.039	24
54.047	58
55.018	54
55.055	84
55.116	1
56.025	11
56.061	7
57.034	37
57.07	2
58.041	8
61.029	22
65.039	7
66.047	11
67.054	57
68.026	8
68.061	6
69.034	87
69.069	3
70.041	14
71.049	14
72.057	10
73.029	7
74.037	6
77.039	18
78.046	9
79.054	352
80.061	53
80.135	1
81.034	42
81.07	35
82.041	38
83.049	136
84.055	12
85.029	3
85.064	3
86.037	6
87.044	24
91.055	10
92.062	6
93.07	34
94.042	5
94.077	13
95.049	18
95.086	143
96.057	42
97.064	11
98.072	6
99.044	28
100.052	6
101.06	17
103.042	3
105.07	33
106.074	3
107.049	4
107.085	2
108.057	5
109.064	3
110.073	3
112.088	2
114.068	5
117.069	3
118.078	7
121.065	6
123.08	54
124.084	5
129.055	2
135.08	3
136.088	32
137.094	8
140.083	4
141.091	2
143.071	98
143.158	1
144.074	7
153.091	4
154.098	3
156.079	5
183.102	66
184.105	7
185.088	2
196.109	23
197.116	6
213.112	2
