Mass spectrum: 2-(4-Fluorophenyl)ethylamine; LC-ESI-QQ; MS2; POSITIVE; [M+H-NH3]+; CID; 30 V
Name: 2-(4-Fluorophenyl)ethylamine
Class: Non-natural product; Phenethylamine
Formula: C8H10FN
Exact mass: 139.07972
SMILES: C1=CC(=CC=C1CCN)F
InChI: InChI=1S/C8H10FN/c9-8-3-1-7(2-4-8)5-6-10/h1-4H,5-6,10H2
Instrument: Xevo TQS micro (Waters, MA, USA) coupled to ACQUITY UPLC H-Class (Waters, MA, USA)
Instrument type: LC-ESI-QQ
Ms type: MS2
Ion mode: POSITIVE
Collision energy: 30 V
Fragmentation mode: CID
Ionization: ESI
Column name: Acquity UPLC BEH AMIDE column (1.7 Âµm, 2.1 x 150 mm; Waters, MA, USA)
Precursor m/z: 123.060455
Precursor type: [M+H-NH3]+
m/z	relative intensity
51.0	282
51.3	51
56.7	5
56.9	5
62.9	7
68.8	5
73.9	25
74.1	6
74.3	9
74.9	135
75.0	163
77.0	999
82.8	6
94.8	83
95.1	73
96.0	8
96.7	8
97.0	9
97.3	8
100.6	15
101.0	52
101.8	9
102.1	17
102.8	32
103.0	23
103.2	22
121.0	7
123.0	5
