Mass spectrum: Avermectin B1a; LC-ESI-QTOF; MS2; ESI; NEGATIVE; CE 50 V
Name: Avermectin B1a
Class: Non-natural product
Formula: C48H72O14
Exact mass: 872.49221
SMILES: CC[C@H](C)[C@H]1O[C@]2(C=C[C@@H]1C)C[C@@H]1C[C@@H](C/C=C(\C)[C@@H](O[C@H]3C[C@H](OC)[C@@H](O[C@H]4C[C@H](OC)[C@@H](O)[C@H](C)O4)[C@H](C)O3)[C@@H](C)/C=C/C=C3\CO[C@@H]4[C@H](O)C(C)=C[C@@H](C(=O)O1)[C@]34O)O2
InChI: InChI=1S/C48H72O14/c1-11-25(2)43-28(5)17-18-47(62-43)23-34-20-33(61-47)16-15-27(4)42(26(3)13-12-14-32-24-55-45-40(49)29(6)19-35(46(51)58-34)48(32,45)52)59-39-22-37(54-10)44(31(8)57-39)60-38-21-36(53-9)41(50)30(7)56-38/h12-15,17-19,25-26,28,30-31,33-45,49-50,52H,11,16,20-24H2,1-10H3/b13-12+,27-15+,32-14+/t25-,26-,28-,30-,31-,33+,34-,35-,36-,37-,38-,39-,40+,41-,42-,43+,44-,45+,47+,48+/m0/s1
Instrument: ExionLC AD, AB Sciex LLC, USA; X500R QTOF, AB Sciex LLC, USA.
Instrument type: LC-ESI-QTOF
Ms type: MS2
Ion mode: NEGATIVE
Collision energy: 50 V
Ionization: ESI
Column name: AQ-C18HP 3 microm, 2.1 mm Ã— 150 mm, GL Science (Tokyo Japan)
Retention time: 16.2 min
Precursor m/z: 871.48493
Precursor type: [M-H]-
m/z	relative intensity
81.0344	21
83.0504	30
84.0215	49
85.0294	108
97.029	15
97.0657	86
109.0294	364
110.0336	21
111.045	26
123.0449	25
125.0606	14
127.0399	15
135.0453	42
137.0612	16
153.0557	39
229.108	999
230.1113	90
243.1389	32
255.1243	23
271.1338	76
345.1498	32
351.1961	32
399.2341	34
431.2443	51
443.2238	96
444.2257	30
455.2806	86
529.2961	65
565.3173	363
566.3212	115
789.4433	355
790.4484	148
835.464	148
836.4686	80
853.4749	303
854.4796	185
871.4838	366
