Mass spectrum: L-Ornithine; ESI-QTOF; MS2; NEGATIVE; [M-H]-; CID; 10 V
Name: L-Ornithine
Class: Non-proteinogenic L-alpha-amino acid
Formula: C5H12N2O2
Exact mass: 132.08987
SMILES: C(C[C@@H](C(=O)O)N)CN
InChI: InChI=1S/C5H12N2O2/c6-3-1-2-4(7)5(8)9/h4H,1-3,6-7H2,(H,8,9)/t4-/m0/s1
Instrument: X500R QTOF (AB Sciex LLC, USA)
Instrument type: ESI-QTOF
Ms type: MS2
Ion mode: NEGATIVE
Collision energy: 10 V
Fragmentation mode: CID
Ionization: ESI
Precursor m/z: 131.08259
Precursor type: [M-H]-
m/z	relative intensity
131.0809	999
