Mass spectrum: N,N-Dimethylglycine; GC-EI-TOF; MS; POSITIVE; EI; 70 V; TBDMS
Name: N,N-Dimethylglycine
Class: Non-natural compound
Formula: C4H9NO2
Exact mass: 103.0633285
SMILES: CN(C)CC(=O)O
InChI: InChI=1S/C4H9NO2/c1-5(2)3-4(6)7/h3H2,1-2H3,(H,6,7)
Instrument: JMS-T100GCV (JEOL, Akishima, Japan) coupled to Agilent 7890A (Santa Clara, CA, USA) gas chromatograph.
Instrument type: GC-EI-TOF
Ms type: MS
Ion mode: POSITIVE
Ionization: EI
Column name: DB-5MS UI 122-5532UI US0462866H (Agilent, Wilmington, USA) with the length 30 m, I.D. 0.25 mm, and thickness 0.25 micrometer.
Retention time: 7.47 min.
Derivative form: C10H23NO2Si
Derivative mass: 217.1498
Derivative type: TBDMS
m/z	relative intensity
27.024	3
28.019	3
29.039	13
30.035	14
39.024	3
41.04	11
42.035	36
43.001	7
43.042	7
44.05	4
44.98	9
45.016	6
46.996	7
55.055	1
56.051	4
57.06	12
58.024	7
58.066	999
58.339	2
58.441	3
58.698	2
58.996	3
59.032	10
59.069	33
59.265	1
59.534	1
60.003	2
61.011	3
72.04	2
73.048	32
74.019	1
74.048	3
75.027	27
76.027	2
85.049	1
86.055	1
89.043	1
101.006	2
115.092	1
116.03	2
117.037	2
130.069	2
132.085	1
160.08	73
161.081	8
162.078	3
202.127	7
203.13	1
216.143	1
217.15	12
218.151	2
