Mass spectrum: 6-((4-Methoxybenzyl)oxy)-7,7-dimethylcyclohept-3-en-1-ol; GC-FI-TOF; MS; positive; FI; 10 kV
Name: 6-((4-Methoxybenzyl)oxy)-7,7-dimethylcyclohept-3-en-1-ol
Class: Non-natural product
Formula: C17H24O3
Exact mass: 276.17255
SMILES: COC1=CC=C(COC2CC=CCC(O)C2(C)C)C=C1
InChI: InChI=1S/C17H24O3/c1-17(2)15(18)6-4-5-7-16(17)20-12-13-8-10-14(19-3)11-9-13/h4-5,8-11,15-16,18H,6-7,12H2,1-3H3
Instrument: JMS-T100GCV (JEOL, Akishima, Japan) coupled to Agilent 7890A (Agilent, Wilmington, USA) gas chromatograph.
Instrument type: GC-FI-TOF
Ms type: MS
Ion mode: POSITIVE
Ionization: FI
Column name: HP-5 19091 J-413 USD364547H (Agilent, Wilmington, USA), length 30.0 m, I.D. 0.32 mm, thickness 0.25 micrometer.
Retention time: 11.02 min.
m/z	relative intensity
150.052	6
245.152	2
248.179	1
258.162	38
259.166	8
276.172	999
277.008	3
277.176	177
277.306	3
277.422	3
278.179	23
278.768	1
278.898	1
