Mass spectrum: (4S)-Ethyl 4-methylheptanoate; GC-FI-TOF; MS; positive; FI; 10 kV
Name: (4S)-Ethyl 4-methylheptanoate
Class: Non-natural product
Formula: C10H20O2
Exact mass: 172.14638
SMILES: O=C(CC[C@@H](C)CCC)OCC
InChI: InChI=1S/C10H20O2/c1-4-6-9(3)7-8-10(11)12-5-2/h9H,4-8H2,1-3H3/t9-/m0/s1
Instrument: JMS-T100GCV (JEOL, Akishima, Japan) coupled to Agilent 7890A (Agilent, Wilmington, USA) gas chromatograph.
Instrument type: GC-FI-TOF
Ms type: MS
Ion mode: POSITIVE
Ionization: FI
Column name: HP-5 19091 J-413 USD364547H (Agilent, Wilmington, USA), length 30.0 m, I.D. 0.32 mm, thickness 0.25 micrometer.
Retention time: 6.43 min.
m/z	relative intensity
29.04	43
84.092	21
115.074	131
129.092	86
143.107	36
172.146	999
173.150	145
174.153	19
