Mass spectrum: Isoprocarb; GC-EI-Q; MS; Positive; M+*
Name: Isoprocarb
Class: Non-Natural Product; Pesticides
Formula: C11H15NO2
Exact mass: 193.11028
SMILES: CNC(=O)Oc(c1)c(ccc1)C(C)C
InChI: InChI=1S/C11H15NO2/c1-8(2)9-6-4-5-7-10(9)14-11(13)12-3/h4-8H,1-3H3,(H,12,13)
Instrument: GCMS-QP2010 Plus, Shimadzu
Instrument type: GC-EI-Q
Ms type: MS
Ion mode: POSITIVE
Ionization: EI
Column name: Ptx-5MS(RESTEK), 0.32 mm I.D. x 30 m, df=0.25 microm
Retention time: 6.3 min
Ion type: [M]+*
Precursor m/z: 193.1
m/z	relative intensity
40	8
41	38
42	18
43	18
45	7
50	11
51	50
52	7
53	23
57	20
61	18
62	7
63	21
64	12
65	66
66	20
67	17
74	8
75	15
76	5
77	189
78	20
79	16
89	10
91	162
92	19
93	98
94	16
102	22
103	213
104	12
107	35
115	27
117	11
119	10
120	14
121	999
122	102
123	8
131	5
136	420
137	42
