Mass spectrum: UDP-glucose; ESI-QTOF; MS2; NEGATIVE; [M-H]-; CID; 30 V
Name: UDP-glucose
Class: UDP-sugar
Formula: C15H24N2O17P2
Exact mass: 566.05502
SMILES: C1=CN(C(=O)NC1=O)[C@H]2[C@@H]([C@@H]([C@H](O2)COP(=O)(O)OP(=O)(O)O[C@@H]3[C@@H]([C@H]([C@@H]([C@H](O3)CO)O)O)O)O)O
InChI: InChI=1S/C15H24N2O17P2/c18-3-5-8(20)10(22)12(24)14(32-5)33-36(28,29)34-35(26,27)30-4-6-9(21)11(23)13(31-6)17-2-1-7(19)16-15(17)25/h1-2,5-6,8-14,18,20-24H,3-4H2,(H,26,27)(H,28,29)(H,16,19,25)/t5-,6-,8-,9-,10+,11-,12-,13-,14-/m1/s1
Instrument: X500R QTOF (AB Sciex LLC, USA)
Instrument type: ESI-QTOF
Ms type: MS2
Ion mode: NEGATIVE
Collision energy: 30 V
Fragmentation mode: CID
Ionization: ESI
Precursor m/z: 565.04774
Precursor type: [M-H]-
m/z	relative intensity	assigned
78.9579	12	[H3O3P-3H]-
96.9685	9	
210.9992	14	[C5H11O7P-3H]-
241.0096	44	[C6H13O8P-3H]-
320.9759	24	[C6H14O11P2-3H]-
323.0262	999	[C9H13N2O9P-H]-
384.9813	48	[C9H14N2O11P2-3H]-
565.0437	221	[C15H24N2O17P2-H]-
