Mass spectrum: (4R)-4-Methylnonanol; GC-FI-TOF; MS; positive; FI; 10 kV
Name: (4R)-4-Methylnonanol
Class: Non-natural product
Formula: C10H22O
Exact mass: 158.16707
SMILES: C[C@H](CCCCC)CCCO
InChI: InChI=1S/C10H22O/c1-3-4-5-7-10(2)8-6-9-11/h10-11H,3-9H2,1-2H3/t10-/m1/s1
Instrument: JMS-T100GCV (JEOL, Akishima, Japan) coupled to Agilent 7890A (Agilent, Wilmington, USA) gas chromatograph.
Instrument type: GC-FI-TOF
Ms type: MS
Ion mode: POSITIVE
Ionization: FI
Column name: HP-5 19091 J-413 USD364547H (Agilent, Wilmington, USA), length 30.0 m, I.D. 0.32 mm, thickness 0.25 micrometer.
Retention time: 6.95 min.
m/z	relative intensity
29.040	186
31.019	226
112.131	59
140.155	999
141.159	101
157.157	104
158.167	163
