Mass spectrum: Perylene; LC-ESI-Q; MS; Positive
Name: Perylene
Class: Non-Natural Product
Formula: C20H12
Exact mass: 252.09390
SMILES: C1=CC2=C3C(=C1)C4=CC=CC5=C4C(=CC=C5)C3=CC=C2
InChI: InChI=1S/C20H12/c1-5-13-6-2-11-17-18-12-4-8-14-7-3-10-16(20(14)18)15(9-1)19(13)17/h1-12H
Instrument: LC-MS2010A, Shimadzu
Instrument type: LC-ESI-Q
Ms type: MS
Ion mode: POSITIVE
Column name: TSK-gel ODS-120Z (C18 5.0 microm, 2.0 x 150 mm)
Retention time: 14.6 min
m/z	relative intensity
104.95	420
105.9	144
145.95	250
252	999
