Mass spectrum: Imazosulfuron; ESI-QTOF; MS2; NEGATIVE; [M-H]-; CID; 80 V
Name: Imazosulfuron
Class: Non-natural product
Formula: C14H13ClN6O5S
Exact mass: 412.0356
SMILES: COc1cc(nc(n1)NC(=O)NS(=O)(=O)c2c(nc3n2cccc3)Cl)OC
InChI: InChI=1S/C14H13ClN6O5S/c1-25-9-7-10(26-2)18-13(17-9)19-14(22)20-27(23,24)12-11(15)16-8-5-3-4-6-21(8)12/h3-7H,1-2H3,(H2,17,18,19,20,22)
Instrument: X500R QTOF (AB Sciex LLC, USA)
Instrument type: ESI-QTOF
Ms type: MS2
Ion mode: NEGATIVE
Collision energy: 80 V
Fragmentation mode: CID
Ionization: ESI
Precursor m/z: 411.0278
Precursor type: [M-H]-
m/z	relative intensity
41.0141	62
64.0063	72
65.0141	284
65.9981	999
77.9651	714
90.0093	64
107.0121	402
122.0355	209
151.0064	106
