Mass spectrum: Asymmetric dimethylarginine; ESI-QTOF; MS2; NEGATIVE; [M-H]-; CID; 40 V
Name: Asymmetric dimethylarginine
Class: Non-natural product; Arginine derivative
Formula: C8H18N4O2
Exact mass: 202.14296
SMILES: CN(C)C(=NCCC[C@@H](C(=O)O)N)N
InChI: InChI=1S/C8H18N4O2/c1-12(2)8(10)11-5-3-4-6(9)7(13)14/h6H,3-5,9H2,1-2H3,(H2,10,11)(H,13,14)/t6-/m0/s1
Instrument: X500R QTOF (AB Sciex LLC, USA)
Instrument type: ESI-QTOF
Ms type: MS2
Ion mode: NEGATIVE
Collision energy: 40 V
Fragmentation mode: CID
Ionization: ESI
Precursor m/z: 201.135683
Precursor type: [M-H]-
m/z	relative intensity
40.0065	26
41.0141	999
