Mass spectrum: Dehydroeburicoic acid; ESI-QTOF; MS2; POSITIVE; [M+H]+; CID; 30 V
Name: Dehydroeburicoic acid
Class: Non-natural product; Bile acid
Formula: C31H48O3
Exact mass: 468.36035
SMILES: CC(C)C(=C)CC[C@H]([C@H]1CC[C@@]2([C@@]1(CC=C3C2=CC[C@@H]4[C@@]3(CC[C@@H](C4(C)C)O)C)C)C)C(=O)O
InChI: InChI=1S/C31H48O3/c1-19(2)20(3)9-10-21(27(33)34)22-13-17-31(8)24-11-12-25-28(4,5)26(32)15-16-29(25,6)23(24)14-18-30(22,31)7/h11,14,19,21-22,25-26,32H,3,9-10,12-13,15-18H2,1-2,4-8H3,(H,33,34)/t21-,22-,25+,26+,29-,30-,31+/m1/s1
Instrument: X500R QTOF (AB Sciex LLC, USA)
Instrument type: ESI-QTOF
Ms type: MS2
Ion mode: POSITIVE
Collision energy: 30 V
Fragmentation mode: CID
Ionization: ESI
Precursor m/z: 469.36762
Precursor type: [M+H]+
m/z	relative intensity
55.0555	27
57.0712	15
67.0556	16
69.0713	29
71.087	15
81.0714	49
83.0871	36
91.0558	20
93.0714	35
95.0871	138
97.1027	92
105.0715	46
107.0871	116
109.1027	171
111.082	25
119.0871	150
121.1027	124
123.1184	67
131.0872	46
133.1027	159
135.1183	112
137.1342	29
143.0872	16
145.1028	151
147.1183	181
149.1341	77
151.1133	16
153.0926	19
157.1028	52
159.1185	294
161.1341	140
163.1498	74
165.0926	40
167.1082	23
171.1184	71
173.1341	148
175.1135	29
175.1497	112
177.0926	18
177.1655	50
179.1084	55
179.1446	24
183.1186	28
185.1341	85
187.1498	296
189.1654	383
191.1083	43
191.1448	20
191.1811	72
193.1241	67
197.1342	36
199.1498	141
201.1654	892
203.1811	239
205.1241	29
205.1605	48
207.1398	39
207.1761	111
211.1499	68
213.1656	202
215.1812	198
217.1968	66
219.1397	28
219.1761	42
223.1499	29
225.1656	75
227.1812	93
229.1969	37
231.176	24
233.1552	23
237.1656	27
239.1811	74
241.1968	75
243.1761	26
245.1554	31
245.1918	56
247.1711	50
251.1814	32
253.1968	61
255.2123	27
259.1711	31
259.2074	28
261.1866	64
269.228	40
271.2075	41
293.228	179
295.2436	687
311.2384	584
313.2541	391
315.2334	111
329.2489	40
355.2644	145
367.2644	55
381.28	44
405.3526	155
423.3629	368
433.3475	130
451.3577	999
469.3302	81
469.3682	309
