Mass spectrum: ((2R,5R)-5-Allyltetrahydrofuran-2-yl)methanol; GC-FI-TOF; MS; positive; FI; 10 kV
Name: ((2R,5R)-5-Allyltetrahydrofuran-2-yl)methanol
Class: Non-natural compound
Formula: C8H14O2
Exact mass: 142.09938
SMILES: OC[C@H]1CC[C@H](CC=C)O1
InChI: InChI=1S/C8H14O2/c1-2-3-7-4-5-8(6-9)10-7/h2,7-9H,1,3-6H2/t7-,8+/m0/s1
Instrument: JMS-T100GCV (JEOL, Akishima, Japan) coupled to Agilent 7890A (Agilent, Wilmington, USA) gas chromatograph.
Instrument type: GC-FI-TOF
Ms type: MS
Ion mode: POSITIVE
Ionization: FI
Column name: ZB-1MS 7HM-G011-11 (Agilent, Wilmington, USA), length 30.0 m, I.D. 0.32 mm, thickness 0.25 micrometer.
Retention time: 6.01 min.
m/z	relative intensity
31.019	10
41.04	51
101.06	999
101.552	3
102.063	55
103.064	7
106.071	6
111.08	33
142.099	67
143.105	75
144.11	6
