Mass spectrum: Genistein; ESI-QTOF; MS2; NEGATIVE; [M-H]-; CID; 30 V
Name: Genistein
Class: 7-hydroxyisoflavone
Formula: C15H10O5
Exact mass: 270.05282
SMILES: C1=CC(=CC=C1C2=COC3=CC(=CC(=C3C2=O)O)O)O
InChI: InChI=1S/C15H10O5/c16-9-3-1-8(2-4-9)11-7-20-13-6-10(17)5-12(18)14(13)15(11)19/h1-7,16-18H
Instrument: X500R QTOF (AB Sciex LLC, USA)
Instrument type: ESI-QTOF
Ms type: MS2
Ion mode: NEGATIVE
Collision energy: 30 V
Fragmentation mode: CID
Ionization: ESI
Precursor m/z: 269.04555
Precursor type: [M-H]-
m/z	relative intensity
63.0238	22
107.0138	32
133.0294	93
159.0451	51
181.0659	65
269.0449	999
