Mass spectrum: (5S,11S)-5,11-Dimethyl-8-pentacosanol; GC-EI-TOF; MS; positive; EI; 70 V
Name: (5S,11S)-5,11-Dimethyl-8-pentacosanol
Class: Non-natural product
Formula: C27H56O
Exact mass: 396.43312
SMILES: C[C@@H](CCCC)CCC(O)CC[C@@H](C)CCCCCCCCCCCCCC
InChI: InChI=1S/C27H56O/c1-5-7-9-10-11-12-13-14-15-16-17-18-20-26(4)22-24-27(28)23-21-25(3)19-8-6-2/h25-28H,5-24H2,1-4H3/t25-,26-,27?/m0/s1
Instrument: JMS-T100GCV (JEOL, Akishima, Japan) coupled to Agilent 7890A (Agilent, Wilmington, USA) gas chromatograph.
Instrument type: GC-EI-TOF
Ms type: MS
Ion mode: POSITIVE
Ionization: EI
Column name: HP-5 19091 J-413 USD364547H (Agilent, Wilmington, USA), length 30 m, I.D. 0.32 mm, thickness 0.25 micrometer.
Retention time: 12.37 min.
m/z	relative intensity
27.024	21
28.007	13
28.032	7
29.040	89
30.044	3
31.020	6
31.990	6
39.024	15
40.032	6
41.040	275
41.092	3
42.047	52
43.019	14
43.056	648
43.108	7
44.027	14
44.059	21
45.035	13
53.040	12
54.048	22
55.056	497
55.160	3
56.063	376
57.035	51
57.071	769
57.402	2
58.042	38
58.074	31
59.050	13
67.056	79
68.063	43
69.071	999
69.138	10
69.232	3
69.442	3
69.480	3
70.043	3
70.078	207
71.050	23
71.087	295
72.057	8
72.090	16
73.049	17
79.056	9
80.063	10
81.071	114
82.078	100
83.050	4
83.087	697
83.499	2
84.093	94
84.164	3
85.066	34
85.102	214
86.072	3
86.105	13
87.081	7
93.071	5
95.087	97
96.094	49
97.102	424
97.183	6
98.109	104
98.178	2
99.118	87
100.089	5
100.121	6
101.096	6
109.102	35
110.109	18
111.118	219
111.203	3
112.124	54
113.133	29
123.118	18
124.125	17
125.133	237
126.138	27
127.149	16
135.064	5
137.134	5
138.141	7
139.149	45
140.155	15
141.129	5
141.164	11
142.136	49
143.144	431
144.148	42
145.150	3
151.148	4
153.165	21
154.172	14
155.179	9
157.160	4
167.181	13
168.188	6
169.196	6
180.187	9
181.196	20
182.203	18
183.210	8
191.001	5
194.201	4
195.212	9
196.219	16
197.225	8
207.033	34
208.033	7
209.033	4
209.226	6
210.235	15
211.240	4
222.235	18
223.242	43
224.249	20
225.257	8
238.266	45
239.272	18
252.282	10
253.018	6
253.289	3
264.280	9
265.289	12
280.319	3
281.053	10
281.285	4
283.300	322
284.303	66
285.306	7
320.345	4
321.350	9
322.363	4
331.067	3
336.375	6
341.020	5
350.391	10
378.422	93
379.426	26
380.428	4
429.090	3
