Mass spectrum: Malic acid-[3-13C]; GC-EI-QQ; MS2; CID 5 V; POSITIVE; 3 TMS-derivative; [M-117]+
Name: Malic acid-[3-13C]
Class: In vitro synthetic compound
Formula: C4H6O5
Exact mass: 134.02153
SMILES: C(C(C(=O)O)O)C(=O)O
InChI: InChI=1S/C4H6O5/c5-2(4(8)9)1-3(6)7/h2,5H,1H2,(H,6,7)(H,8,9)/i1+1
Instrument: GCMS-TQ8040 (Shimadzu, Kyoto, Japan)
Instrument type: GC-EI-QQ
Ms type: MS2
Ion mode: POSITIVE
Collision energy: 5 V
Fragmentation mode: CID
Column name: DB-5MS+DG (Agilent Technologies, Santa Clara, CA, USA)
Derivative form: C13H30O5Si3
Derivative mass: 350.14011
Derivative type: 3 TMS
Precursor m/z: 234.10573
m/z	relative intensity	assigned
73.1	999	
102.1	63	C3(13C)H9OSi+
103.2	24	
117.1	129	C4H9O2Si+
128.05	20	
144.1	182	
189.1	33	
190.15	844	C6(13C)H17O2Si2+
191.1	355	
205.2	52	
234.15	904	C8(13C)H21O3Si2+
