Mass spectrum: Soyasaponin I; ESI-QTOF; MS2; POSITIVE; [M+H]+; CID; 60 V
Name: Soyasaponin I
Class: Triterpenoid saponin
Formula: C48H78O18
Exact mass: 942.51882
SMILES: C[C@H]1[C@@H]([C@H]([C@H]([C@@H](O1)O[C@@H]2[C@H]([C@H]([C@H](O[C@H]2O[C@@H]3[C@H]([C@@H]([C@H](O[C@H]3O[C@H]4CC[C@]5([C@H]([C@@]4(C)CO)CC[C@@]6([C@@H]5CC=C7[C@]6(CC[C@@]8([C@H]7CC(C[C@H]8O)(C)C)C)C)C)C)C(=O)O)O)O)CO)O)O)O)O)O
InChI: InChI=1S/C48H78O18/c1-21-29(52)31(54)35(58)40(61-21)65-37-32(55)30(53)24(19-49)62-41(37)66-38-34(57)33(56)36(39(59)60)64-42(38)63-28-12-13-45(5)25(46(28,6)20-50)11-14-48(8)26(45)10-9-22-23-17-43(2,3)18-27(51)44(23,4)15-16-47(22,48)7/h9,21,23-38,40-42,49-58H,10-20H2,1-8H3,(H,59,60)/t21-,23-,24+,25+,26+,27+,28-,29-,30-,31+,32-,33-,34-,35+,36-,37+,38+,40-,41-,42+,44+,45-,46+,47+,48+/m0/s1
Instrument: X500R QTOF (AB Sciex LLC, USA)
Instrument type: ESI-QTOF
Ms type: MS2
Ion mode: POSITIVE
Collision energy: 60 V
Fragmentation mode: CID
Ionization: ESI
Precursor m/z: 943.52610
Precursor type: [M+H]+
m/z	relative intensity	assigned
71.0492	192	[C4H10O-3H]+
85.0286	749	[C4H10O2-5H]+
95.0858	338	
109.1014	394	
129.0548	503	[C6H12O3-3H]+
135.1172	219	[C6H14O3+H]+
141.0184	871	[C6H12O4-7H]+
147.0655	298	[C6H12O4-H]+
149.1331	260	
159.029	286	[C6H10O5-3H]+
161.1328	239	
163.1484	281	
175.1485	240	
177.164	343	
189.1644	318	
201.1642	277	
203.1801	763	
217.1958	452	
423.3632	999	
