Mass spectrum: (1R)-2-Methylcyclopent-2-en-1-yl acetate; GC-FI-TOF; MS; positive; FI; 10 kV
Name: (1R)-2-Methylcyclopent-2-en-1-yl acetate
Class: Non-natural product
Formula: C8H12O2
Exact mass: 140.08373
SMILES: CC1=CCC[C@H]1OC(=O)C
InChI: InChI=1S/C8H12O2/c1-6-4-3-5-8(6)10-7(2)9/h4,8H,3,5H2,1-2H3/t8-/m1/s1
Instrument: JMS-T100GCV (JEOL, Akishima, Japan) coupled to Agilent 7890A (Agilent, Wilmington, USA) gas chromatograph.
Instrument type: GC-FI-TOF
Ms type: MS
Ion mode: POSITIVE
Ionization: FI
Column name: HP-5 19091 J-413 USD364547H (Agilent, Wilmington, USA), length 30.0 m, I.D. 0.32 mm, thickness 0.25 micrometer.
Retention time: 4.95 min.
m/z	relative intensity
43.018	24
80.063	92
80.103	18
81.070	67
140.084	999
141.087	97
