Mass spectrum: Diphenylguanidine; ESI-QTOF; MS; ESI; NEGATIVE
Name: Diphenylguanidine
Class: Non-natural product
Formula: C13H13N3
Exact mass: 211.11093
SMILES: C1=CC=C(C=C1)NC(=NC2=CC=CC=C2)N
InChI: InChI=1S/C13H13N3/c14-13(15-11-7-3-1-4-8-11)16-12-9-5-2-6-10-12/h1-10H,(H3,14,15,16)
Instrument: X500R QTOF (AB Sciex LLC, USA)
Instrument type: ESI-QTOF
Ms type: MS
Ion mode: NEGATIVE
Ionization: ESI
m/z	relative intensity
210.1031	999
211.1065	152
