Mass spectrum: Methyl [(1S)-1,2-dimethyl-2,3-epoxycyclopent-1-yl]acetate; GC-EI-TOF; MS; positive; EI; 70 V
Name: Methyl [(1S)-1,2-dimethyl-2,3-epoxycyclopent-1-yl]acetate
Class: Non-natural product
Formula: C10H16O3
Exact mass: 184.10994
SMILES: CC12OC1CC[C@@]2(C)CC(=O)OC
InChI: InChI=1S/C10H16O3/c1-9(6-8(11)12-3)5-4-7-10(9,2)13-7/h7H,4-6H2,1-3H3/t7?,9-,10?/m0/s1
Instrument: JMS-T100GCV (JEOL, Akishima, Japan) coupled to Agilent 7890A (Agilent, Wilmington, USA) gas chromatograph.
Instrument type: GC-EI-TOF
Ms type: MS
Ion mode: POSITIVE
Ionization: EI
Column name: HP-5 19091 J-413 USD364547H (Agilent, Wilmington, USA), length 30 m, I.D. 0.32 mm, thickness 0.25 micrometer.
Retention time: 7.19 min.
m/z	relative intensity
26.016	7
27.024	144
27.052	2
28.006	88
28.031	25
29.003	39
29.04	98
30.011	3
30.043	2
31.019	21
31.990	30
33.035	4
38.016	7
39.024	223
39.963	2
40.031	41
41.040	392
42.011	44
42.046	31
43.019	909
43.055	62
43.343	3
43.568	2
43.803	1
44.023	24
44.059	3
44.998	4
45.035	29
50.016	9
51.024	33
52.032	19
53.040	144
54.047	36
55.019	66
55.055	373
56.025	6
56.060	21
57.035	26
57.071	8
58.042	27
59.014	163
59.050	22
59.116	1
60.018	4
61.030	2
63.024	7
65.040	53
66.047	22
67.019	5
67.055	205
68.027	5
68.062	69
69.034	43
69.071	92
70.041	5
70.075	6
71.050	62
72.057	15
73.066	10
74.037	47
75.045	64
76.049	3
77.040	64
78.046	10
79.055	113
79.338	1
80.062	23
81.035	14
81.071	180
81.201	1
82.042	57
82.078	50
83.050	54
83.086	43
84.056	6
84.090	3
85.029	8
85.066	44
86.073	22
87.045	3
87.079	3
91.055	71
92.061	14
93.071	84
93.142	1
94.041	3
94.077	17
95.050	438
95.086	52
95.507	1
96.057	87
96.093	12
97.065	34
97.101	6
98.072	6
99.045	11
99.081	48
100.085	4
101.06	4
104.063	2
105.071	13
106.078	11
107.086	77
107.165	1
108.058	11
108.090	7
109.066	642
109.203	8
109.529	2
109.907	1
109.938	1
110.073	999
110.592	2
110.942	1
111.080	463
112.085	38
113.061	15
114.068	28
115.070	2
117.070	2
119.049	3
123.081	15
124.053	4
124.088	13
125.097	805
125.649	2
126.100	73
127.040	9
127.076	86
127.169	2
128.083	24
129.083	2
137.060	20
138.064	2
139.077	4
140.083	3
141.092	8
142.099	5
151.076	4
152.083	8
153.092	126
154.095	13
155.096	2
166.099	6
169.087	28
170.091	3
184.109	6
