Mass spectrum: Methomyl; LC-ESI-QTOF; MS2; [M+H]+; CID; CE 40 V
Name: Methomyl
Class: Non-natural product
Formula: C5H10N2O2S
Exact mass: 162.046299
SMILES: CC(=NOC(=O)NC)SC
InChI: InChI=1S/C5H10N2O2S/c1-4(10-3)7-9-5(8)6-2/h1-3H3,(H,6,8)
Instrument: X500R QTOF (AB Sciex LLC, MA, USA) coupled to ExionLC AD (AB Sciex LLC, MA, USA).
Instrument type: LC-ESI-QTOF
Ms type: MS2
Ion mode: POSITIVE
Collision energy: 40 V
Fragmentation mode: CID
Ionization: ESI
Column name: TSKgel ODS-100S 5 um, 2.1 mm Ã— 250 mm, TOSOH
Retention time: 10.1 min
Precursor m/z: 163.053576
Precursor type: [M+H]+
m/z	relative intensity
31.018	62
42.0337	301
44.9792	438
46.9948	422
56.0493	145
58.0287	429
71.9904	298
72.998	999
88.0218	161
