Mass spectrum: Daidzein; ESI-QTOF; MS2; NEGATIVE; [M-H]-; CID; 60 V
Name: Daidzein
Class: 7-Hydroxyisoflavone
Formula: C15H10O4
Exact mass: 254.05791
SMILES: C1=CC(=CC=C1C2=COC3=C(C2=O)C=CC(=C3)O)O
InChI: InChI=1S/C15H10O4/c16-10-3-1-9(2-4-10)13-8-19-14-7-11(17)5-6-12(14)15(13)18/h1-8,16-17H
Instrument: X500R QTOF (AB Sciex LLC, USA)
Instrument type: ESI-QTOF
Ms type: MS2
Ion mode: NEGATIVE
Collision energy: 60 V
Fragmentation mode: CID
Ionization: ESI
Precursor m/z: 253.05063
Precursor type: [M-H]-
m/z	relative intensity
41.003	633
49.008	96
63.0237	45
65.003	218
77.0393	75
89.0393	74
91.0186	727
104.0264	270
117.0342	137
132.0213	999
133.029	193
167.0498	208
180.0575	161
195.0447	570
208.0524	132
223.0396	276
