Mass spectrum: (S)-Citronellyl pivalate; GC-FI-TOF; MS; positive; FI; 10 kV
Name: (S)-Citronellyl pivalate
Class: Non-natural product
Formula: C15H28O2
Exact mass: 240.20893
SMILES: C\C(C)=C\CC[C@H](C)CCOC(=O)C(C)(C)C
InChI: InChI=1S/C15H28O2/c1-12(2)8-7-9-13(3)10-11-17-14(16)15(4,5)6/h8,13H,7,9-11H2,1-6H3/t13-/m0/s1
Instrument: JMS-T100GCV (JEOL, Akishima, Japan) coupled to Agilent 7890A (Agilent, Wilmington, USA) gas chromatograph.
Instrument type: GC-FI-TOF
Ms type: MS
Ion mode: POSITIVE
Ionization: FI
Column name: HP-5 19091 J-413 USD364547H (Agilent, Wilmington, USA), length 30.0 m, I.D. 0.32 mm, thickness 0.25 micrometer.
Retention time: 8.37 min.
m/z	relative intensity
20.483	4
25.413	4
26.492	5
30.258	4
39.932	4
43.776	4
48.679	4
49.497	4
57.070	42
58.065	4
62.716	4
69.071	6
74.474	4
85.064	11
99.143	5
114.242	5
120.103	18
122.272	4
137.140	5
138.143	656
138.598	5
138.743	4
139.147	76
140.151	4
144.968	5
154.253	4
159.951	6
160.037	8
160.184	6
160.307	4
172.924	4
179.280	4
220.978	5
239.198	29
240.209	999
240.816	5
240.965	6
241.213	206
241.440	6
241.546	7
242.216	25
243.215	5
