Mass spectrum: Diallate; LC-ESI-QTOF; MS2; ESI; POSITIVE; CE 60 V
Name: Diallate
Class: Non-natural product
Formula: C10H17Cl2NOS
Exact mass: 269.04079
SMILES: CC(C)N(C(=O)SCC(Cl)=CCl)C(C)C
InChI: InChI=1S/C10H17Cl2NOS/c1-7(2)13(8(3)4)10(14)15-6-9(12)5-11/h5,7-8H,6H2,1-4H3
Instrument: ExionLC AD, AB Sciex LLC, USA; X500R QTOF, AB Sciex LLC, USA.
Instrument type: LC-ESI-QTOF
Ms type: MS2
Ion mode: POSITIVE
Collision energy: 60 V
Ionization: ESI
Column name: AQ-C18HP 3 microm, 2.1 mm Ã— 150 mm, GL Science (Tokyo Japan)
Retention time: 15.4 min
Precursor m/z: 270.04806
Precursor type: [M+H]+
m/z	relative intensity
33.0337	88
39.0235	175
41.0389	669
43.0545	712
44.0136	223
44.9798	301
46.995	210
48.9847	280
58.0652	207
63.0002	105
72.9848	545
78.9409	109
80.9569	229
82.9459	999
108.9607	916
