Mass spectrum: 2-Nitrophenyl octyl ether; FAB-BE; MS; Negative; Matrix 2-Nitrophenyl octyl ether
Name: 2-Nitrophenyl octyl ether
Class: Non-Natural Product
Formula: C14H21NO3
Exact mass: 251.15214
SMILES: CCCCCCCCOc(c1)c(ccc1)[N+1]([O-1])=O
InChI: InChI=1S/C14H21NO3/c1-2-3-4-5-6-9-12-18-14-11-8-7-10-13(14)15(16)17/h7-8,10-11H,2-6,9,12H2,1H3
Instrument: JMS-700, JEOL
Instrument type: FAB-BE
Ms type: MS
Ion mode: NEGATIVE
Ionization: FAB
m/z	relative intensity
16	13
17	8
25	25
26	33
37	5
38	5
41	14
42	42
46	576
48	6
49	27
50	8
51	5
61	7
62	14
63	11
64	8
65	18
66	6
67	5
70	6
73	13
74	6
75	9
76	6
77	12
78	5
79	12
86	8
89	7
91	45
92	58
93	53
94	7
95	9
104	6
105	15
106	11
107	12
108	87
109	20
110	9
118	6
119	5
120	6
121	25
122	332
123	64
124	11
125	15
127	13
135	9
136	8
137	66
138	999
139	125
140	22
143	5
146	6
148	9
150	6
151	13
152	7
153	82
154	35
155	8
161	6
162	9
163	6
164	8
166	6
169	6
180	5
183	11
185	6
186	5
200	6
219	9
220	5
221	24
222	6
229	6
232	5
233	6
234	13
235	97
236	30
237	11
238	11
248	8
249	21
250	179
251	731
252	222
253	36
254	5
262	6
263	7
264	23
265	10
266	167
267	44
268	18
269	6
277	7
280	6
296	5
297	57
298	14
342	8
371	9
387	9
389	8
486	7
501	13
502	43
503	13
504	6
