Mass spectrum: Methyl [(1R)-1,2-dimethylcyclopent-2-en-1-yl]acetate; GC-EI-TOF; MS; positive; EI; 70 V
Name: Methyl [(1R)-1,2-dimethylcyclopent-2-en-1-yl]acetate
Class: Non-natural product
Formula: C10H16O2
Exact mass: 168.11503
SMILES: COC(=O)C[C@@]1(C)CCC=C1C
InChI: InChI=1S/C10H16O2/c1-8-5-4-6-10(8,2)7-9(11)12-3/h5H,4,6-7H2,1-3H3/t10-/m1/s1
Instrument: JMS-T100GCV (JEOL, Akishima, Japan) coupled to Agilent 7890A (Agilent, Wilmington, USA) gas chromatograph.
Instrument type: GC-EI-TOF
Ms type: MS
Ion mode: POSITIVE
Ionization: EI
Column name: HP-5 19091 J-413 USD364547H (Agilent, Wilmington, USA), length 30 m, I.D. 0.32 mm, thickness 0.25 micrometer.
Retention time: 6.36 min.
m/z	relative intensity
27.024	55
28.006	88
28.031	9
29.003	7
29.040	32
31.019	6
31.990	30
38.016	4
39.024	97
39.073	1
40.031	15
41.04	105
41.092	1
42.012	12
42.045	6
43.019	22
43.055	11
45.035	6
50.016	7
51.024	28
52.031	15
53.04	68
54.046	9
55.055	84
56.059	5
59.014	33
59.050	2
63.024	8
65.040	42
66.047	11
67.055	156
68.059	11
69.070	4
74.037	8
75.044	6
77.04	121
77.113	1
78.046	24
79.055	292
79.184	2
80.060	31
81.070	11
91.055	103
91.134	1
92.061	14
93.071	233
93.205	2
94.078	999
94.557	3
94.893	2
95.086	886
95.578	3
95.924	2
96.090	72
96.180	1
96.276	2
97.094	3
105.071	7
107.086	11
108.094	7
109.101	5
111.081	16
121.065	19
122.069	2
136.088	26
137.096	10
153.091	9
168.115	154
169.119	20
170.124	2
