Mass spectrum: (S)-Octa-1,7-dien-4-ol; GC-EI-TOF; MS; positive; EI; 70 V
Name: (S)-Octa-1,7-dien-4-ol
Class: Non-natural compound
Formula: C8H14O
Exact mass: 126.10447
SMILES: C=CC[C@@H](O)CCC=C
InChI: InChI=1S/C8H14O/c1-3-5-7-8(9)6-4-2/h3-4,8-9H,1-2,5-7H2/t8-/m1/s1
Instrument: JMS-T100GCV (JEOL, Akishima, Japan) coupled to Agilent 7890A (Agilent, Wilmington, USA) gas chromatograph.
Instrument type: GC-EI-TOF
Ms type: MS
Ion mode: POSITIVE
Ionization: EI
Column name: ZB-1MS 7HM-G011-11 sn:313446 (Agilent, Wilmington, USA), length 30 m, I.D. 0.32 mm, thickness 0.25 micrometer.
Retention time: 4.02 min.
m/z	relative intensity
26.016	12
27.023	188
28.006	20
28.031	38
29.003	57
29.039	313
29.082	4
30.043	8
31.018	82
31.99	12
38.016	15
39.024	373
39.075	4
40.03	39
41.039	999
41.09	10
41.325	3
42.011	24
42.045	79
43.018	354
43.055	143
44.026	45
44.058	5
45.034	12
50.016	9
51.024	26
52.031	11
53.039	66
54.047	52
55.018	58
55.055	305
55.115	4
56.026	27
56.062	58
57.034	81
57.07	275
58.039	5
58.074	12
65.039	34
66.046	15
67.055	708
67.122	7
68.058	40
69.034	30
70.041	9
71.05	55
77.039	12
79.055	22
80.062	11
82.078	6
83.05	52
84.057	47
85.065	518
85.194	3
86.069	28
91.055	7
93.07	19
