Mass spectrum: (2S,3S,5S)-5-(But-3-en-1-yl)-3-acetoxy-2-(acetoxymethyl)tetrahydrofuran; GC-FI-TOF; MS; positive; FI; 10 kV
Name: (2S,3S,5S)-5-(But-3-en-1-yl)-3-acetoxy-2-(acetoxymethyl)tetrahydrofuran
Class: Non-natural compound
Formula: C13H20O5
Exact mass: 256.13107
SMILES: O=C(C)OC[C@@H]1O[C@H](C[C@@H]1OC(C)=O)CCC=C
InChI: InChI=1S/C13H20O5/c1-4-5-6-11-7-12(17-10(3)15)13(18-11)8-16-9(2)14/h4,11-13H,1,5-8H2,2-3H3/t11-,12-,13-/m0/s1
Instrument: JMS-T100GCV (JEOL, Akishima, Japan) coupled to Agilent 7890A (Agilent, Wilmington, USA) gas chromatograph.
Instrument type: GC-FI-TOF
Ms type: MS
Ion mode: POSITIVE
Ionization: FI
Column name: ZB-1MS 7HM-G011-11H sn:313446 (Agilent, Wilmington, USA), length 30.0 m, I.D. 0.32 mm, thickness 0.25 micrometer.
Retention time: 8.95 min.
m/z	relative intensity
43.018	5
136.084	9
154.096	108
155.099	12
161.134	1
161.263	2
183.1	8
196.107	999
196.608	2
196.8	3
197.111	127
197.782	2
198.113	13
198.301	1
201.072	83
201.18	1
202.075	8
206.717	2
213.108	2
214.08	63
214.199	1
215.083	8
256.131	323
257.135	51
258.138	7
