Mass spectrum: 2-(4-Chlorophenyl)ethylamine; LC-ESI-QQ; MS2; POSITIVE; [M+H-NH3]+; CID; 20 V
Name: 2-(4-Chlorophenyl)ethylamine
Class: Non-natural product; Phenethylamine
Formula: C8H10ClN
Exact mass: 155.05017
SMILES: C1=CC(=CC=C1CCN)Cl
InChI: InChI=1S/C8H10ClN/c9-8-3-1-7(2-4-8)5-6-10/h1-4H,5-6,10H2
Instrument: Xevo TQS micro (Waters, MA, USA) coupled to ACQUITY UPLC H-Class (Waters, MA, USA)
Instrument type: LC-ESI-QQ
Ms type: MS2
Ion mode: POSITIVE
Collision energy: 20 V
Fragmentation mode: CID
Ionization: ESI
Column name: Acquity UPLC BEH AMIDE column (1.7 Âµm, 2.1 x 150 mm; Waters, MA, USA)
Precursor m/z: 139.03091
Precursor type: [M+H-NH3]+
m/z	relative intensity
50.9	8
51.2	5
77	999
78	36
78.2	23
100.8	5
101.8	25
102	33
103	934
103.9	83
104.1	127
110.9	8
139	28
139.2	13
