Mass spectrum: Torulene; LC-ESI-QTOF; MS2; POSITIVE; ESI; [M+H]+; COLLISION_ENERGY 20 V
Name: Torulene
Name: Torulin
Class: Natural product; carotenoids, carotene
Formula: C40H54
Exact mass: 534.42255
SMILES: CC1=C(C(CCC1)(C)C)/C=C/C(=C/C=C/C(=C/C=C/C=C(\C)/C=C/C=C(\C)/C=C/C=C(\C)/C=C/C=C(C)C)/C)/C
InChI: InChI=1S/C40H54/c1-32(2)18-13-21-35(5)24-15-26-36(6)25-14-22-33(3)19-11-12-20-34(4)23-16-27-37(7)29-30-39-38(8)28-17-31-40(39,9)10/h11-16,18-27,29-30H,17,28,31H2,1-10H3/b12-11+,21-13+,22-14+,23-16+,26-15+,30-29+,33-19+,34-20+,35-24+,36-25+,37-27+
Instrument: Xevo G2-S QtOF, Waters (USA) coupled to ACQUITY UPLC, Waters (USA).
Instrument type: LC-ESI-QTOF
Ms type: MS2
Ion mode: POSITIVE
Collision energy: 20 V
Ionization: ESI
Column name: BEH C18, I.D. 2.1 mm, length 100 mm, thickness 1.7 micrometer.
Ion type: [M+H]+
Precursor m/z: 535.42982
m/z	relative intensity
95.086	79
105.070	56
107.086	76
109.101	135
119.086	187
121.101	115
123.116	86
133.101	97
135.118	80
137.132	63
145.102	178
147.116	90
157.101	152
159.117	129
161.133	105
169.102	66
171.117	116
173.132	126
175.149	112
177.164	153
183.117	111
185.133	93
187.148	107
189.163	66
195.117	59
197.133	113
199.148	118
201.164	90
209.133	165
211.148	115
213.163	54
221.133	61
223.149	101
225.163	54
235.147	68
237.164	73
239.179	53
243.211	78
247.149	60
249.163	87
261.162	69
263.179	64
267.212	54
273.164	62
275.179	77
287.180	91
289.195	52
315.211	59
343.242	58
357.258	55
397.289	89
398.294	54
465.351	87
491.369	59
519.398	146
520.402	60
533.342	53
533.415	234
534.422	999
535.426	461
536.429	95
