Mass spectrum: Trametenolic acid; ESI-QTOF; MS2; POSITIVE; [M+H]+; CID; 40 V
Name: Trametenolic acid
Class: Non-natural product; Triterpenoid
Formula: C30H48O3
Exact mass: 456.36035
SMILES: CC(=CCC[C@H]([C@H]1CC[C@@]2([C@@]1(CCC3=C2CC[C@@H]4[C@@]3(CC[C@@H](C4(C)C)O)C)C)C)C(=O)O)C
InChI: InChI=1S/C30H48O3/c1-19(2)9-8-10-20(26(32)33)21-13-17-30(7)23-11-12-24-27(3,4)25(31)15-16-28(24,5)22(23)14-18-29(21,30)6/h9,20-21,24-25,31H,8,10-18H2,1-7H3,(H,32,33)/t20-,21-,24+,25+,28-,29-,30+/m1/s1
Instrument: X500R QTOF (AB Sciex LLC, USA)
Instrument type: ESI-QTOF
Ms type: MS2
Ion mode: POSITIVE
Collision energy: 40 V
Fragmentation mode: CID
Ionization: ESI
Precursor m/z: 457.367622
Precursor type: [M+H]+
m/z	relative intensity
55.0555	10
57.0713	6
67.0557	19
69.0714	20
79.0557	14
81.0715	47
83.0871	22
91.0558	13
93.0716	33
95.0871	103
97.1028	13
105.0715	30
107.0871	78
109.1028	118
111.0822	6
111.1183	6
119.0872	104
121.1028	97
123.1185	42
131.0871	27
133.1028	75
135.1184	66
137.1339	17
143.0873	12
145.1027	56
147.1185	60
149.1341	31
157.1029	27
159.1185	89
161.1342	60
163.1499	29
171.1185	42
173.1342	172
174.142	11
175.1498	49
177.1656	11
185.1342	53
186.1419	45
187.1498	104
189.1655	29
191.1812	16
197.1342	10
199.1499	52
201.1655	42
203.1812	18
211.1499	14
213.1655	45
214.1733	45
215.1813	79
225.1656	16
227.1812	55
229.1969	441
239.1815	16
241.1969	131
243.2124	13
247.2076	34
253.1972	12
255.2125	65
257.2278	16
259.2073	16
269.2279	11
273.2229	27
281.2281	14
295.2438	58
297.2595	26
313.2542	24
393.3526	30
457.3506	999
