Mass spectrum: 3,8-Diamino-6-phenylphenanthridine; ESI-QQ; MS2; [M+H]+, CID, CE 40 V
Name: 3,8-Diamino-6-phenylphenanthridine
Class: Non-natural product
Formula: C19H15N3
Exact mass: 285.12659
SMILES: c1ccc(cc1)c2c3cc(ccc3c4ccc(cc4n2)N)N
InChI: InChI=1S/C19H15N3/c20-13-6-8-15-16-9-7-14(21)11-18(16)22-19(17(15)10-13)12-4-2-1-3-5-12/h1-11H,20-21H2
Instrument: LCMS-8045 (Shimadzu, Kyoto, Japan)
Instrument type: LC-ESI-QQ
Ms type: MS2
Ion mode: POSITIVE
Collision energy: 40 V
Fragmentation mode: CID
Ionization: ESI
Precursor m/z: 286.13386
Precursor type: [M+H]+
m/z	relative intensity
117.9	59
127.1	57
139	88
153.95	221
154.8	62
155.9	57
164.1	105
164.85	89
166.05	143
167	197
181.05	999
182.1	198
191.1	529
192.2	256
207.05	369
208.05	568
209.15	66
241.2	87
267.85	64
269.1	142
