Mass spectrum: Daidzein; ESI-QTOF; MS2; POSITIVE; [M+H]+; CID; 30 V
Name: Daidzein
Class: 7-Hydroxyisoflavone
Formula: C15H10O4
Exact mass: 254.05791
SMILES: C1=CC(=CC=C1C2=COC3=C(C2=O)C=CC(=C3)O)O
InChI: InChI=1S/C15H10O4/c16-10-3-1-9(2-4-10)13-8-19-14-7-11(17)5-6-12(14)15(13)18/h1-8,16-17H
Instrument: X500R QTOF (AB Sciex LLC, USA)
Instrument type: ESI-QTOF
Ms type: MS2
Ion mode: POSITIVE
Collision energy: 30 V
Fragmentation mode: CID
Ionization: ESI
Precursor m/z: 255.06519
Precursor type: [M+H]+
m/z	relative intensity
91.0541	22
137.023	132
145.0282	22
153.0697	25
181.0646	71
199.075	270
227.0701	118
237.0547	46
255.0642	999
