Mass spectrum: 2,3-Dimethylcyclopent-2-en-1-ol; GC-EI-TOF; MS; positive; EI; 70 V
Name: 2,3-Dimethylcyclopent-2-en-1-ol
Class: Non-natural product
Formula: C7H12O
Exact mass: 112.08882
SMILES: CC1=C(C)CCC1O
InChI: InChI=1S/C7H12O/c1-5-3-4-7(8)6(5)2/h7-8H,3-4H2,1-2H3
Instrument: JMS-T100GCV (JEOL, Akishima, Japan) coupled to Agilent 7890A (Agilent, Wilmington, USA) gas chromatograph.
Instrument type: GC-EI-TOF
Ms type: MS
Ion mode: POSITIVE
Ionization: EI
Column name: HP-5 19091 J-413 USD364547H (Agilent, Wilmington, USA), length 30 m, I.D. 0.32 mm, thickness 0.25 micrometer.
Retention time: 5.78 min.
m/z	relative intensity
26.016	11
27.024	130
27.067	2
28.006	12
28.031	26
29.003	30
29.039	52
30.045	2
31.019	20
31.990	7
37.008	3
38.016	13
39.024	174
40.031	30
41.039	231
41.128	2
42.011	5
42.046	17
43.019	199
43.055	19
43.110	2
44.026	14
45.034	8
50.016	26
51.024	56
52.031	23
53.004	3
53.040	88
53.100	1
54.046	15
55.019	59
55.055	120
56.026	7
56.061	10
57.034	28
57.070	3
58.042	5
62.016	6
63.024	15
64.031	3
65.040	35
66.047	13
67.055	95
67.117	1
68.061	11
69.034	19
69.071	45
70.042	6
70.078	11
71.049	4
77.040	88
78.046	14
79.055	121
80.060	12
81.035	6
81.070	7
82.042	5
83.050	14
83.086	8
91.055	35
92.060	3
93.071	27
94.078	11
95.050	15
95.086	50
96.057	7
96.089	4
97.066	999
97.418	2
97.553	3
97.886	2
98.069	63
98.155	2
98.236	2
99.070	4
109.066	3
110.073	6
111.081	119
112.089	192
112.236	2
113.092	14
