Mass spectrum: (2S,3R)-(-)-2,3-Epoxyoctanal; GC-EI-TOF; MS; positive; EI; 70 V
Name: (2S,3R)-(-)-2,3-Epoxyoctanal
Class: Non-natural compound
Formula: C8H14O2
Exact mass: 142.09938
SMILES: CCCCC[C@H]1O[C@@H]1C=O
InChI: InChI=1S/C8H14O2/c1-2-3-4-5-7-8(6-9)10-7/h6-8H,2-5H2,1H3/t7-,8-/m1/s1
Instrument: JMS-T100GCV (JEOL, Akishima, Japan) coupled to Agilent 7890A (Agilent, Wilmington, USA) gas chromatograph.
Instrument type: GC-EI-TOF
Ms type: MS
Ion mode: POSITIVE
Ionization: EI
Column name: HP-5 19091 J-413 USD364547H (Agilent, Wilmington, USA), length 30 m, I.D. 0.32 mm, thickness 0.25 micrometer.
Retention time: 5.6 min.
m/z	relative intensity
26.016	17
27.024	261
27.066	3
27.098	1
27.995	4
28.031	47
29.003	132
29.039	244
29.083	3
30.01	8
30.043	5
31.019	36
38.016	7
39.024	185
39.075	2
40.031	23
41.003	5
41.039	417
41.092	4
41.325	1
42.011	29
42.046	45
42.074	1
43.019	46
43.055	181
43.108	2
43.148	1
44.026	10
44.058	6
45.034	11
50.016	4
51.024	11
52.031	4
53.039	42
54.046	8
55.019	24
55.055	155
55.112	2
56.026	3
56.062	32
57.034	125
57.07	18
58.04	8
59.014	8
59.049	2
60.021	21
65.04	5
67.055	34
68.026	2
68.061	4
68.998	5
69.034	13
69.07	68
70.041	4
70.075	5
71.013	999
71.049	24
71.429	3
71.713	2
72.017	32
72.35	1
73.021	5
77.039	3
79.055	4
81.034	2
81.07	5
82.078	2
83.05	4
83.086	9
85.029	2
86.037	5
93.071	4
95.086	34
96.089	3
99.045	4
141.091	4
