Mass spectrum: (2R,3S)-2,3-Epoxypentanol; GC-EI-TOF; MS; positive; EI; 70 V
Name: (2R,3S)-2,3-Epoxypentanol
Class: Non-natural product
Formula: C5H10O2
Exact mass: 102.06808
SMILES: CC[C@H]1[C@H](O1)CO
InChI: InChI=1S/C5H10O2/c1-2-4-5(3-6)7-4/h4-6H,2-3H2,1H3/t4-,5+/m0/s1
Instrument: JMS-T100GCV (JEOL, Akishima, Japan) coupled to Agilent 7890A (Agilent, Wilmington, USA) gas chromatograph.
Instrument type: GC-EI-TOF
Ms type: MS
Ion mode: POSITIVE
Ionization: EI
Column name: HP-5 19091 J-413 USD364547H (Agilent, Wilmington, USA), length 30 m, I.D. 0.32 mm, thickness 0.25 micrometer.
Retention time: 3.19 min.
m/z	relative intensity
25.008	2
26.016	42
26.056	1
27.024	324
27.125	1
27.258	1
27.280	1
27.435	1
27.461	1
28.006	9
28.031	49
29.003	175
29.039	141
29.271	1
29.448	1
29.489	1
30.010	11
30.047	15
31.019	657
31.294	2
31.332	1
31.483	1
31.691	1
31.874	1
31.901	1
31.919	1
31.990	6
32.026	27
32.070	1
32.107	1
33.034	2
35.977	2
37.008	9
38.016	26
39.024	226
39.331	1
39.548	1
40.031	64
41.003	4
41.039	553
41.355	2
41.561	1
41.810	1
42.011	46
42.047	120
42.317	1
42.365	1
42.550	1
42.577	1
43.019	391
43.055	81
43.343	1
43.563	1
43.810	1
44.026	337
44.319	1
44.571	1
44.784	1
44.829	1
45.034	91
45.304	1
45.332	1
46.036	2
47.013	1
50.016	7
51.024	7
52.031	2
53.003	3
53.039	17
54.011	1
54.046	4
55.019	30
55.055	31
56.025	3
56.062	5
57.034	165
57.070	6
58.042	49
59.014	3
59.050	999
59.325	2
59.429	3
59.691	2
60.021	35
60.053	32
60.263	1
60.555	1
61.029	33
61.133	1
62.024	1
63.024	1
65.039	1
67.055	7
68.061	1
68.997	1
69.034	13
70.041	2
71.013	9
71.050	9
72.057	1
73.029	3
83.050	4
84.057	2
85.065	4
