Mass spectrum: Poricoic acid B; ESI-QTOF; MS2; POSITIVE; [M+H]+; CID; 40 V
Name: Poricoic acid B
Class: Non-natural product
Formula: C30H44O5
Exact mass: 484.31888
SMILES: CC(=CCC[C@H]([C@H]1[C@@H](C[C@@]2([C@@]1(CC=C3C2=CC[C@H]([C@]3(C)CCC(=O)O)C(=C)C)C)C)O)C(=O)O)C
InChI: InChI=1S/C30H44O5/c1-18(2)9-8-10-20(27(34)35)26-24(31)17-30(7)23-12-11-21(19(3)4)28(5,15-14-25(32)33)22(23)13-16-29(26,30)6/h9,12-13,20-21,24,26,31H,3,8,10-11,14-17H2,1-2,4-7H3,(H,32,33)(H,34,35)/t20-,21+,24-,26+,28+,29-,30+/m1/s1
Instrument: X500R QTOF (AB Sciex LLC, USA)
Instrument type: ESI-QTOF
Ms type: MS2
Ion mode: POSITIVE
Collision energy: 40 V
Fragmentation mode: CID
Ionization: ESI
Precursor m/z: 485.32615
Precursor type: [M+H]+
m/z	relative intensity
69.071	71
81.0711	106
83.0868	50
93.0711	107
95.0868	193
105.0712	100
107.0867	215
109.1023	88
119.0867	169
121.1024	139
123.0817	66
131.0867	118
133.1024	118
135.1181	52
143.0867	120
145.1023	210
147.118	92
155.0868	119
157.1023	282
159.0816	70
159.118	230
161.1338	64
163.1493	56
169.1024	417
171.118	254
173.0973	74
173.1337	122
177.0922	100
181.1024	85
183.118	459
185.0974	84
185.1337	178
187.113	92
187.1493	56
189.1286	80
189.165	97
193.1024	51
195.118	186
197.0972	52
197.1337	331
199.1129	208
199.1493	107
201.1286	87
207.1181	141
208.1259	50
209.0974	69
209.1338	532
211.1131	152
211.1493	694
213.1288	90
213.1649	53
217.1236	111
219.1392	206
221.1338	230
223.113	89
223.1492	957
225.1286	286
225.1649	257
227.1442	125
229.1236	97
233.1337	77
235.1495	100
237.1289	84
237.165	257
239.1442	119
239.1807	64
241.1236	74
241.1598	93
243.1392	94
245.1547	114
247.1493	336
249.1649	191
251.1443	142
251.1806	84
252.1886	86
253.16	84
253.1962	77
255.1393	84
255.1756	123
257.1548	72
261.165	71
263.1445	61
263.1805	107
265.1598	827
265.196	193
267.1396	51
267.1755	453
269.1548	119
271.1704	62
279.1755	85
279.2117	56
282.1626	80
283.1703	542
285.186	70
289.1961	267
297.1858	69
305.191	62
307.2065	885
310.1937	64
325.217	999
326.2247	57
365.2483	53
379.2635	78
389.2483	55
407.2585	104
431.2947	91
449.3051	60
485.3812	69
