Mass spectrum: Tetrabromobisphenol A; ESI-QTOF; MS2; NEGATIVE; [M-H]-; CID; 50 V
Name: Tetrabromobisphenol A
Class: Non-natural product; Bromobisphenol
Formula: C15H12Br4O2
Exact mass: 539.75708
SMILES: CC(C)(C1=CC(=C(C(=C1)Br)O)Br)C2=CC(=C(C(=C2)Br)O)Br
InChI: InChI=1S/C15H12Br4O2/c1-15(2,7-3-9(16)13(20)10(17)4-7)8-5-11(18)14(21)12(19)6-8/h3-6,20-21H,1-2H3
Instrument: X500R QTOF (AB Sciex LLC, USA)
Instrument type: ESI-QTOF
Ms type: MS2
Ion mode: NEGATIVE
Collision energy: 50 V
Fragmentation mode: CID
Ionization: ESI
Precursor m/z: 542.745711
Precursor type: [M-H]-
m/z	relative intensity
78.9193	549
80.9173	576
288.8898	121
290.8878	493
291.8913	140
292.8858	144
417.8076	909
418.8111	430
419.8056	999
420.8091	417
445.803	470
446.8076	396
447.8018	587
448.8058	403
542.7518	509
543.7553	365
