Mass spectrum: Oryzalin; LC-ESI-QTOF; MS2; ESI; NEGATIVE; CE 30 V
Name: Oryzalin
Class: Non-natural product
Formula: C12H18N4O6S
Exact mass: 346.09469
SMILES: CCCN(CCC)c1c([N+](=O)[O-])cc(S(N)(=O)=O)cc1[N+](=O)[O-]
InChI: InChI=1S/C12H18N4O6S/c1-3-5-14(6-4-2)12-10(15(17)18)7-9(23(13,21)22)8-11(12)16(19)20/h7-8H,3-6H2,1-2H3,(H2,13,21,22)
Instrument: ExionLC AD, AB Sciex LLC, USA; X500R QTOF, AB Sciex LLC, USA.
Instrument type: LC-ESI-QTOF
Ms type: MS2
Ion mode: NEGATIVE
Collision energy: 30 V
Ionization: ESI
Column name: AQ-C18HP 3 microm, 2.1 mm Ã— 150 mm, GL Science (Tokyo Japan)
Retention time: 14.3 min
Precursor m/z: 345.08741
Precursor type: [M-H]-
m/z	relative intensity
45.9929	85
77.9651	62
79.9807	21
107.0246	21
116.0252	45
119.0247	30
134.0356	33
146.0355	30
147.0434	124
150.0306	40
160.0631	31
161.0717	43
174.0668	121
180.0287	58
182.0203	73
191.0207	34
191.0697	36
203.0572	63
221.068	35
234.1245	91
240.0443	37
241.0033	98
281.1243	524
295.246	61
299.0454	92
313.2554	513
345.0855	999
