Mass spectrum: 2-(4-Trifluoromethylphenyl)ethylamine; LC-ESI-QQ; MS2; POSITIVE; [M+H-NH3]+; CID; 40 V
Name: 2-(4-Trifluoromethylphenyl)ethylamine
Class: Non-natural product; Phenethylamine
Formula: C9H10F3N
Exact mass: 189.07653
SMILES: C1=CC(=CC=C1CCN)C(F)(F)F
InChI: InChI=1S/C9H10F3N/c10-9(11,12)8-3-1-7(2-4-8)5-6-13/h1-4H,5-6,13H2
Instrument: Xevo TQS micro (Waters, MA, USA) coupled to ACQUITY UPLC H-Class (Waters, MA, USA)
Instrument type: LC-ESI-QQ
Ms type: MS2
Ion mode: POSITIVE
Collision energy: 40 V
Fragmentation mode: CID
Ionization: ESI
Column name: Acquity UPLC BEH AMIDE column (1.7 Âµm, 2.1 x 150 mm; Waters, MA, USA)
Precursor m/z: 173.05726
Precursor type: [M+H-NH3]+
m/z	relative intensity
26.7	42
27.1	81
38.6	16
38.8	25
38.9	46
39.3	23
40.7	6
41.0	6
49.9	17
50.1	9
50.5	63
50.8	173
51.1	83
51.3	105
51.6	13
51.8	16
52.2	29
53.3	5
56.9	152
57.2	58
58.6	13
58.8	11
59.1	34
59.4	5
62.2	9
62.5	25
62.8	50
63.0	161
64.9	23
65.2	14
68.5	12
69.0	108
73.8	17
74.1	29
74.4	17
74.9	398
75.3	98
75.7	16
75.9	22
76.0	14
76.3	44
76.7	510
77.0	999
77.3	404
77.6	92
77.9	479
78.2	311
80.9	84
81.3	33
82.8	292
83.1	451
86.6	21
86.9	30
87.2	32
88.1	7
88.9	22
89.4	6
92.7	5
94.8	88
95.0	93
95.2	65
96.1	6
98.8	9
99.1	9
99.3	6
100.6	38
100.9	46
101.1	45
101.3	29
101.6	72
101.9	148
102.2	97
102.4	42
102.6	92
102.8	149
103.0	390
103.4	110
103.8	41
104.1	147
104.7	6
105.3	5
106.0	11
106.9	272
107.1	260
108.3	5
108.6	8
108.9	6
109.2	17
112.9	58
113.2	16
113.4	14
113.7	9
114.0	20
114.3	13
119.0	6
119.2	5
120.0	8
124.6	11
125.1	29
125.4	6
126.0	5
127.0	288
127.4	47
130.9	18
131.4	8
131.8	30
132.3	37
132.9	499
133.2	601
144.6	6
144.9	15
145.2	17
150.7	20
150.9	29
151.1	39
151.4	23
151.9	5
152.4	11
152.9	7
153.1	21
153.4	6
