Mass spectrum: Allethrin 2; GC-EI-Q; MS; Positive; M+*
Name: Allethrin 2
Class: Non-Natural Product; Pesticides
Formula: C20H26O5
Exact mass: 346.17802
SMILES: CC1=C(C(=O)CC1OC(=O)C2C(C2(C)C)/C=C(\C)/C(=O)OC)CC=C
InChI: InChI=1S/C20H26O5/c1-7-8-13-12(3)16(10-15(13)21)25-19(23)17-14(20(17,4)5)9-11(2)18(22)24-6/h7,9,14,16-17H,1,8,10H2,2-6H3/b11-9+
Instrument: GCMS-QP2010 Plus, Shimadzu
Instrument type: GC-EI-Q
Ms type: MS
Ion mode: POSITIVE
Ionization: EI
Column name: Ptx-5MS(RESTEK), 0.32 mm I.D. x 30 m, df=0.25 microm
Retention time: 11.7 min
Ion type: [M]+*
Precursor m/z: 346.2
m/z	relative intensity
40	8
41	261
42	11
43	189
44	74
50	12
51	43
52	16
53	71
54	14
55	90
57	21
63	9
65	62
66	24
67	95
68	10
69	73
71	6
77	139
78	39
79	386
80	41
81	311
82	23
83	27
89	7
91	258
92	43
93	217
94	22
95	71
96	7
97	14
103	16
104	7
105	74
106	24
107	217
108	53
109	33
110	12
111	10
116	6
117	6
119	23
121	56
122	27
123	999
124	111
125	18
133	16
134	51
135	50
136	246
137	20
139	12
149	5
151	5
153	36
167	6
168	31
302	5
