Mass spectrum: (2R,3S)-2,3-Epoxypentanol; GC-CI-TOF; MS; positive; CI; Isobutane 200 V
Name: (2R,3S)-2,3-Epoxypentanol
Class: Non-natural product
Formula: C5H10O2
Exact mass: 102.06808
SMILES: CC[C@H]1[C@H](O1)CO
InChI: InChI=1S/C5H10O2/c1-2-4-5(3-6)7-4/h4-6H,2-3H2,1H3/t4-,5+/m0/s1
Instrument: JMS-T100GCV (JEOL, Akishima, Japan) coupled to Agilent 7890A (Agilent, Wilmington, USA) gas chromatograph.
Instrument type: GC-CI-TOF
Ms type: MS
Ion mode: POSITIVE
Ionization: CI
Column name: HP-5 19091 J-413 USD364547H (Agilent, Wilmington, USA), length 30.0 m, I.D. 0.32 mm, thickness 0.25 micrometer.
Retention time: 3.2 min
m/z	relative intensity
67.054	78
69.07	50
71.086	11
73.065	17
81.07	14
83.086	12
85.065	999
86.069	53
87.079	10
97.102	8
103.076	183
104.079	9
123.117	8
