Mass spectrum: 3-O-Acetyl-16alpha-hydroxytrametenolic acid; ESI-QTOF; MS2; POSITIVE; [M+H]+; CID; 30 V
Name: 3-O-Acetyl-16alpha-hydroxytrametenolic acid
Class: Non-natural product; Bile acid
Formula: C32H50O5
Exact mass: 514.36583
SMILES: CC(=CCC[C@H]([C@H]1[C@@H](C[C@@]2([C@@]1(CCC3=C2CCC4[C@@]3(CC[C@@H](C4(C)C)OC(=O)C)C)C)C)O)C(=O)O)C
InChI: InChI=1S/C32H50O5/c1-19(2)10-9-11-21(28(35)36)27-24(34)18-32(8)23-12-13-25-29(4,5)26(37-20(3)33)15-16-30(25,6)22(23)14-17-31(27,32)7/h10,21,24-27,34H,9,11-18H2,1-8H3,(H,35,36)/t21-,24-,25?,26+,27+,30-,31-,32+/m1/s1
Instrument: X500R QTOF (AB Sciex LLC, USA)
Instrument type: ESI-QTOF
Ms type: MS2
Ion mode: POSITIVE
Collision energy: 30 V
Fragmentation mode: CID
Ionization: ESI
Precursor m/z: 515.37310
Precursor type: [M+H]+
m/z	relative intensity
95.0862	16
107.0862	12
109.1019	21
119.0861	10
121.1017	34
123.1174	19
133.1017	12
135.1173	26
145.1017	13
147.1173	12
149.1330	11
159.1173	25
161.1329	16
163.1486	14
171.1173	14
173.1328	41
175.1485	25
179.1435	11
185.1329	18
187.1484	70
189.1642	21
199.1485	22
201.1642	20
213.1641	47
215.1798	27
227.1797	34
229.1953	29
239.1797	16
241.1953	32
243.2110	18
253.1953	21
255.2108	41
295.2414	456
296.2498	26
315.2316	33
329.2471	25
341.2470	25
355.2625	100
394.2856	34
395.2935	33
419.3296	81
437.3392	999
515.3896	36
