Mass spectrum: N-Methyl-L-alanine; GC-EI-TOF; MS; POSITIVE; EI; 70 V; TBDMS
Name: N-Methyl-L-alanine
Class: Non-natural compound
Formula: C4H9NO2
Exact mass: 103.0633285
SMILES: C[C@@H](C(=O)O)NC
InChI: InChI=1S/C4H9NO2/c1-3(5-2)4(6)7/h3,5H,1-2H3,(H,6,7)/t3-/m0/s1
Instrument: JMS-T100GCV (JEOL, Akishima, Japan) coupled to Agilent 7890A (Santa Clara, CA, USA) gas chromatograph.
Instrument type: GC-EI-TOF
Ms type: MS
Ion mode: POSITIVE
Ionization: EI
Column name: DB-5MS UI 122-5532UI US0462866H (Agilent, Wilmington, USA) with the length 30 m, I.D. 0.25 mm, and thickness 0.25 micrometer.
Retention time: 7.41 min.
Derivative form: C10H23NO2Si
Derivative mass: 217.1498
Derivative type: TBDMS
m/z	relative intensity
27.024	5
28.02	9
28.986	1
29.04	15
30.035	21
31.001	2
39.024	4
40.031	1
41.04	15
42.035	15
43.001	9
43.043	8
44.007	1
44.051	1
44.981	14
45.017	8
45.981	1
46.996	15
54.035	1
55.019	2
55.051	1
56.051	30
57.017	1
57.066	11
58.025	10
58.066	999
58.339	2
58.442	3
58.7	2
58.996	3
59.032	14
59.069	33
59.27	1
59.567	1
59.857	1
60.004	3
60.032	1
60.074	1
60.124	0
60.147	0
61.012	8
72.04	1
73.048	45
74.02	3
74.049	4
75.027	111
76.028	8
77.025	4
85.048	2
86.057	2
88.059	3
89.043	1
99.064	2
100.06	2
101.043	1
102.015	1
103.022	110
104.023	9
105.02	4
114.075	1
115.094	2
116.054	1
129.038	2
130.044	1
131.052	1
132.085	4
142.069	6
143.069	1
144.049	1
145.067	5
146.066	1
160.079	91
161.081	11
162.078	4
202.126	4
203.128	1
216.142	1
217.149	2
