Mass spectrum: (-)-2-[(1S,2S)-1,2-Dimethyl-3-methylenecyclopentyl]ethyl camphanate; GC-FI-TOF; MS; positive; FI; 10 kV
Name: (-)-2-[(1S,2S)-1,2-Dimethyl-3-methylenecyclopentyl]ethyl camphanate
Class: Non-natural product
Formula: C20H30O4
Exact mass: 334.21441
SMILES: C=C1CC[C@@](C)(CCOC(=O)C23CCC(C)(C(=O)O2)C3(C)C)[C@H]1C
InChI: InChI=1S/C20H30O4/c1-13-7-8-18(5,14(13)2)11-12-23-16(22)20-10-9-19(6,15(21)24-20)17(20,3)4/h14H,1,7-12H2,2-6H3/t14-,18-,19?,20?/m0/s1
Instrument: JMS-T100GCV (JEOL, Akishima, Japan) coupled to Agilent 7890A (Agilent, Wilmington, USA) gas chromatograph.
Instrument type: GC-FI-TOF
Ms type: MS
Ion mode: POSITIVE
Ionization: FI
Column name: HP-5 19091 J-413 USD364547H (Agilent, Wilmington, USA), length 30.0 m, I.D. 0.32 mm, thickness 0.25 micrometer.
Retention time: 11.46 min.
m/z	relative intensity
33.002	27
77.793	27
306.183	237
307.185	73
334.214	999
335.219	253
336.218	40
