Mass spectrum: (2R,5R)-2-((S)-2-acetoxybut-3-en-1-yl)-5-(acetoxymethyl)tetrahydrofuran; GC-FI-TOF; MS; POSITIVE; FI; 10 kV
Name: (2R,5R)-2-((S)-2-acetoxybut-3-en-1-yl)-5-(acetoxymethyl)tetrahydrofuran
Class: Non-natural compound
Formula: C13H20O5
Exact mass: 256.13108
SMILES: C=C[C@H](C[C@H]1CC[C@H](COC(C)=O)O1)OC(C)=O
InChI: InChI=1S/C13H20O5/c1-4-11(17-10(3)15)7-12-5-6-13(18-12)8-16-9(2)14/h4,11-13H,1,5-8H2,2-3H3/t11-,12-,13-/m1/s1
Instrument: JMS-T100GCV (JEOL, Akishima, Japan) coupled to Agilent 7890A gas chromatograph.
Instrument type: GC-FI-TOF
Ms type: MS
Ion mode: POSITIVE
Ionization: FI
Column name: ZB-1MS 7HM-G011-11 sn:313446, length 30.0 m, I.D. 0.32 mm, thickness 0.25 micrometer.
Retention time: 9.02 min.
m/z	relative intensity
43.019	328
73.029	44
99.044	16
136.086	140
137.093	26
143.07	95
152.081	43
153.086	9
154.095	31
178.096	36
183.101	999
184.105	108
185.107	14
195.097	9
196.108	951
197.112	136
198.113	18
213.109	47
214.117	140
215.119	17
238.117	66
239.12	12
255.124	42
256.131	282
257.137	159
258.14	23
