Mass spectrum: Citric acid; GC-EI-Q; MS; POSITIVE; 4 TMS-derivative
Name: Citric acid
Class: Natural Product
Formula: C6H8O7
Exact mass: 192.02700
SMILES: OC(=O)CC(O)(CC(O)=O)C(O)=O
InChI: InChI=1S/C6H8O7/c7-3(8)1-6(13,5(11)12)2-4(9)10/h13H,1-2H2,(H,7,8)(H,9,10)(H,11,12)
Instrument: GCMS-QP2010 Ultra (Shimadzu, Kyoto, Japan)
Instrument type: GC-EI-Q
Ms type: MS
Ion mode: POSITIVE
Column name: DB-5MS+DG (Agilent Technologies, Santa Clara, CA, USA)
Derivative form: C18H40O7Si4
Derivative mass: 480.18511
Derivative type: 4 TMS
m/z	relative intensity	assigned
58.05	10	
59.05	15	
67.05	47	
69	13	
72.15	39	
73.05	999	
74.05	85	
75.05	115	
99.05	10	
115.05	16	
117	15	
129.1	29	
131.05	24	
133.05	47	
143.05	13	
147.1	347	
148.1	53	
149.05	51	
183	21	
211	29	
217.05	15	
221.05	22	
231.05	16	
257.05	23	
273.1	292	C11H21O4Si2+
274.1	64	
275.05	30	
305.1	22	
347.1	63	C13H27O5Si3+
348.1	18	
349.1	10	
363.1	72	C14H31O5Si3+
364.1	21	
365.1	10	
375.1	59	
376.1	18	
465.15	36	
466.1	13	
