Mass spectrum: Leucinostatin Y; ESI-ITFT; MS2; POSITIVE; [M+H]+; CE 30 %
Name: Leucinostatin Y
Class: Natural product; modulator of tumor-stroma interaction
Formula: C60H104N10O15
Exact mass: 1204.7682
SMILES: O=C(O)C(C)NC(=O)CCNC(=O)C(C)(C)NC(=O)C(C)(C)NC(=O)[C@H](CC(C)C)NC(=O)[C@H](CC(C)C)NC(=O)C(C)(C)NC(=O)[C@@H](NC(=O)[C@H](CC(C)CC(O)CC(=O)CC)NC(=O)[C@@H]1C[C@H](C)CN1C(=O)/C=C/C(C)CC)C(O)C(C)C
InChI: InChI=1S/C60H104N10O15/c1-19-35(9)21-22-46(74)70-31-37(11)29-44(70)52(79)64-43(28-36(10)27-40(72)30-39(71)20-2)50(77)66-47(48(75)34(7)8)53(80)68-59(15,16)56(84)65-41(25-32(3)4)49(76)63-42(26-33(5)6)51(78)67-60(17,18)57(85)69-58(13,14)55(83)61-24-23-45(73)62-38(12)54(81)82/h21-22,32-38,40-44,47-48,72,75H,19-20,23-31H2,1-18H3,(H,61,83)(H,62,73)(H,63,76)(H,64,79)(H,65,84)(H,66,77)(H,67,78)(H,68,80)(H,69,85)(H,81,82)/b22-21+/t35?,36?,37-,38?,40?,41-,42-,43-,44-,47-,48?/m0/s1
Instrument: LTQ Orbitrap XL hybrid iontrap-Orbitrap (Thermo Fisher Scientific, San Jose, CA, USA)
Instrument type: ESI-ITFT
Ms type: MS2
Ion mode: POSITIVE
Collision energy: 30 % (nominal)
Fragmentation mode: HCD
Ionization: ESI
Ion type: [M+H]+
Precursor m/z: 1205.7755
m/z	relative intensity
205.6824	50
222.1486	189
252.1373	59
294.0928	57
347.4624	74
379.7685	73
389.8808	54
416.796	74
459.5186	86
474.6061	56
492.306	58
546.3532	156
564.3631	228
567.3038	64
601.4313	70
631.4053	739
631.5403	62
632.4089	150
636.0116	50
649.4156	582
650.4199	94
717.9938	63
762.4998	421
763.5031	105
816.9169	77
875.5839	268
876.5847	125
937.7872	93
943.4085	139
960.6349	146
961.6324	68
1087.6075	99
1186.813	70
1204.8242	999
1205.8263	445
1276.4271	104
1519.0574	96
1559.5013	128
1838.0371	82
1898.4182	199
1898.5693	69
