Mass spectrum: ((2R,5R)-5-Allyltetrahydrofuran-2-yl)methanol; GC-EI-TOF; MS; positive; EI; 70 V
Name: ((2R,5R)-5-Allyltetrahydrofuran-2-yl)methanol
Class: Non-natural compound
Formula: C8H14O2
Exact mass: 142.09938
SMILES: OC[C@H]1CC[C@H](CC=C)O1
InChI: InChI=1S/C8H14O2/c1-2-3-7-4-5-8(6-9)10-7/h2,7-9H,1,3-6H2/t7-,8+/m0/s1
Instrument: JMS-T100GCV (JEOL, Akishima, Japan) coupled to Agilent 7890A (Agilent, Wilmington, USA) gas chromatograph.
Instrument type: GC-EI-TOF
Ms type: MS
Ion mode: POSITIVE
Ionization: EI
Column name: ZB-1MS 7HM-G011-11 sn:313446 (Agilent, Wilmington, USA), length 30 m, I.D. 0.32 mm, thickness 0.25 micrometer.
Retention time: 6.01 min.
m/z	relative intensity
26.015	6
27.023	120
27.064	1
28.006	61
28.031	20
29.002	72
29.039	94
29.082	1
30.009	3
30.043	3
31.018	162
31.065	2
31.99	7
32.023	3
38.015	7
39.023	223
39.07	2
39.111	1
40.03	28
41.039	411
41.09	4
42.01	14
42.046	63
43.018	129
43.055	99
44.026	62
44.058	4
45.034	72
50.016	6
51.023	19
52.031	10
53.039	71
54.047	79
55.018	47
55.055	453
55.378	1
56.024	4
56.058	22
57.034	999
57.095	10
57.406	3
57.66	2
57.938	1
58.037	35
59.049	43
61.029	2
63.023	2
65.039	39
66.046	11
67.054	540
67.214	1
67.412	1
67.46	2
68.027	6
68.059	36
69.034	38
69.07	21
70.041	23
71.049	35
72.055	3
73.065	27
77.039	36
78.045	5
79.055	23
80.061	3
81.034	6
81.07	34
82.041	4
82.076	4
83.049	139
83.086	43
84.053	8
84.09	3
91.055	38
91.325	1
92.059	3
93.07	229
94.074	17
95.05	2
101.06	635
101.255	2
101.508	2
101.558	2
101.909	1
102.064	34
103.065	3
111.081	221
111.23	1
112.084	17
