Mass spectrum: 1,6-Di(Cyanoguanidino)hexane; ESI-QTOF; MS2; ESI; POSITIVE; CE 50 V
Name: 1,6-Di(Cyanoguanidino)hexane
Class: Non-natural product
Formula: C10H18N8
Exact mass: 250.16541
SMILES: N#CNC(=N)NCCCCCCNC(=N)NC#N
InChI: InChI=1S/C10H18N8/c11-7-17-9(13)15-5-3-1-2-4-6-16-10(14)18-8-12/h1-6H2,(H3,13,15,17)(H3,14,16,18)
Instrument: X500R QTOF (AB Sciex LLC, USA)
Instrument type: ESI-QTOF
Ms type: MS2
Ion mode: POSITIVE
Collision energy: 50 V
Ionization: ESI
Precursor m/z: 251.17269
Precursor type: [M+H]+
m/z	relative intensity
30.0357	62
39.025	53
41.0407	72
43.0311	268
44.0515	32
55.0313	69
55.0561	999
56.0517	32
68.0265	262
80.0518	59
81.0722	61
82.0674	46
83.0627	46
85.0531	134
98.0987	137
