Mass spectrum: (1S)-2,3-Dimethylcyclopent-2-en-1-yl acetate; GC-EI-TOF; MS; positive; EI; 70 V
Name: (1S)-2,3-Dimethylcyclopent-2-en-1-yl acetate
Class: Non-natural product
Formula: C9H14O2
Exact mass: 154.09938
SMILES: CC=1CC[C@H](OC(=O)C)C=1C
InChI: InChI=1S/C9H14O2/c1-6-4-5-9(7(6)2)11-8(3)10/h9H,4-5H2,1-3H3/t9-/m0/s1
Instrument: JMS-T100GCV (JEOL, Akishima, Japan) coupled to Agilent 7890A (Agilent, Wilmington, USA) gas chromatograph.
Instrument type: GC-EI-TOF
Ms type: MS
Ion mode: POSITIVE
Ionization: EI
Column name: HP-5 19091 J-413 USD364547H (Agilent, Wilmington, USA), length 30 m, I.D. 0.32 mm, thickness 0.25 micrometer.
Retention time: 6.1 min.
m/z	relative intensity
26.016	4
27.024	74
27.067	1
28.006	38
28.032	12
29.003	8
29.04	39
29.083	1
30.044	1
31.019	3
31.990	13
38.016	6
39.024	116
40.031	18
41.003	1
41.040	136
42.011	8
42.045	8
43.019	317
43.055	16
43.344	1
43.513	1
43.570	1
43.990	1
44.023	7
44.059	1
44.998	6
45.029	2
45.527	1
46.031	1
50.016	12
51.024	36
52.032	19
53.04	75
54.047	16
55.019	11
55.055	119
56.026	2
56.06	6
57.035	4
57.071	1
58.042	1
60.021	3
62.017	3
63.024	9
64.031	2
65.04	36
65.104	1
66.047	17
67.02	1
67.055	159
68.06	11
69.034	4
69.071	29
70.042	1
70.077	3
71.050	1
74.016	1
76.032	1
77.039	134
77.321	1
77.44	1
78.046	27
79.055	762
79.373	2
79.493	2
79.793	2
80.06	59
80.468	1
80.801	1
81.035	2
81.07	7
81.514	1
82.042	1
82.078	2
83.05	4
83.086	11
84.091	1
89.039	1
91.055	66
91.189	1
91.333	1
92.06	7
93.071	121
94.078	999
94.426	2
94.558	3
94.887	2
95.05	11
95.086	511
95.57	2
95.934	1
96.057	3
96.09	33
96.292	1
96.639	1
97.065	187
97.483	1
98.069	11
104.062	1
109.066	3
110.073	6
111.081	49
112.087	7
154.099	8
155.102	1
