Mass spectrum: Okaramine B; ESI-ITTOF; MS2; POSITIVE; [M+H]+
Name: Okaramine B
Class: Natural product; Indole alkaloid
Formula: C33H34N4O5
Exact mass: 566.25292
SMILES: CC1C(N2C13[C@@](C([C@]4(N3C(=O)/C/5=C/C6=C(C(/C=C\N5C4=O)(C)C)NC7=CC=CC=C76)O)OC)(C8=CC=CC=C82)O)(C)C
InChI: InChI=1S/C33H34N4O5/c1-18-30(4,5)36-23-14-10-8-12-21(23)31(40)27(42-6)32(41)28(39)35-16-15-29(2,3)25-20(19-11-7-9-13-22(19)34-25)17-24(35)26(38)37(32)33(18,31)36/h7-18,27,34,40-41H,1-6H3/b16-15-,24-17-/t18?,27?,31-,32-,33?/m0/s1
Instrument: LC-ITTOF-MS (Shimadzu, Kyoto, Japan)
Instrument type: ESI-ITTOF
Ms type: MS2
Ion mode: POSITIVE
Ionization: ESI
Precursor m/z: 567.26018
Precursor type: [M+H]+
m/z	relative intensity
107.7336	22
110.1538	24
110.3397	22
116.2449	25
124.1367	25
129.8698	25
131.2519	38
153.2162	22
165.5261	22
168.8587	21
174.8421	22
177.1114	29
183.1450	23
193.1704	25
196.6009	22
200.0979	25
221.1033	31
246.1431	68
249.0931	34
284.1448	31
318.0815	158
346.6769	21
350.1407	91
352.2127	22
360.9496	22
370.3753	21
419.1358	128
420.1391	37
447.1346	92
448.1346	33
472.7839	27
475.1623	999
476.1677	436
477.1689	20
479.1594	258
480.1596	97
485.7922	25
488.0799	22
492.5010	22
531.2268	90
532.2246	32
549.2330	201
550.2364	65
