Mass spectrum: Pentoxazone; ESI-QTOF; MS2; POSITIVE; [M+H]+; CID; 80 V
Name: Pentoxazone
Class: Non-natural product
Formula: C17H17ClFNO4
Exact mass: 353.0830
SMILES: CC(=C1C(=O)N(C(=O)O1)c2cc(c(cc2F)Cl)OC3CCCC3)C
InChI: InChI=1S/C17H17ClFNO4/c1-9(2)15-16(21)20(17(22)24-15)13-8-14(11(18)7-12(13)19)23-10-5-3-4-6-10/h7-8,10H,3-6H2,1-2H3
Instrument: X500R QTOF (AB Sciex LLC, USA)
Instrument type: ESI-QTOF
Ms type: MS2
Ion mode: POSITIVE
Collision energy: 80 V
Fragmentation mode: CID
Ionization: ESI
Precursor m/z: 354.0902
Precursor type: [M+H]+
m/z	relative intensity
27.0227	82
29.0383	127
39.0228	321
41.0384	939
42.0461	97
43.0177	820
43.0537	60
50.0149	75
51.0227	75
51.9399	119
53.0384	313
55.0541	119
55.9343	89
57.0134	239
63.0228	67
66.9745	201
69.0135	239
69.0697	194
70.0213	97
72.9369	75
75.0102	112
76.0182	999
77.0385	253
81.0135	253
83.0291	89
84.984	179
89.0386	276
90.9745	350
96.0243	216
97.0083	194
97.0322	239
103.054	224
104.9899	112
109.0446	164
111.9947	157
116.0493	298
116.9901	977
124.0192	142
125.0271	134
130.065	246
132.9851	857
133.0446	127
135.0479	268
136.0556	276
139.9897	395
150.0713	112
153.0222	291
164.0506	447
178.0661	149
