Mass spectrum: Succinic acid; GC-EI-Q; MS; POSITIVE; 2 TBDMS-derivative
Name: Succinic acid
Class: Natural Product
Formula: C4H6O4
Exact mass: 118.02661
SMILES: O=C(O)CCC(=O)O
InChI: InChI=1S/C4H6O4/c5-3(6)1-2-4(7)8/h1-2H2,(H,5,6)(H,7,8)
Instrument: GCMS-QP2010 Ultra (Shimadzu, Kyoto, Japan)
Instrument type: GC-EI-Q
Ms type: MS
Ion mode: POSITIVE
Column name: DB-5MS+DG (Agilent Technologies, Santa Clara, CA, USA)
Derivative form: C16H34O4Si2
Derivative mass: 346.19956
Derivative type: 2 TBDMS
m/z	relative intensity
55	62
56.05	16
57.05	18
58.05	31
59.05	61
61	13
72.1	25
73.05	999
74.05	89
75.05	240
76.05	15
85.05	11
86.05	15
99.05	20
101	10
115.1	65
116.1	98
117.05	25
129.1	48
130.1	10
131.1	13
133.05	69
134.1	10
147.1	653
148.1	104
149.1	66
175.05	13
189.1	111
190.1	25
191.1	10
199.05	16
215.05	19
289.1	403
290.1	98
291.1	42
331.15	18
