Mass spectrum: N-Ethylglycine; GC-EI-TOF; MS; POSITIVE; EI; 70 V; TBDMS
Name: N-Ethylglycine
Class: Non-natural compound
Formula: C4H9NO2
Exact mass: 103.0633285
SMILES: CCNCC(=O)O
InChI: InChI=1S/C4H9NO2/c1-2-5-3-4(6)7/h5H,2-3H2,1H3,(H,6,7)
Instrument: JMS-T100GCV (JEOL, Akishima, Japan) coupled to Agilent 7890A (Santa Clara, CA, USA) gas chromatograph.
Instrument type: GC-EI-TOF
Ms type: MS
Ion mode: POSITIVE
Ionization: EI
Column name: DB-5MS UI 122-5532UI US0462866H (Agilent, Wilmington, USA) with the length 30 m, I.D. 0.25 mm, and thickness 0.25 micrometer.
Retention time: 7.77 min.
Derivative form: C10H23NO2Si
Derivative mass: 217.1498
Derivative type: TBDMS
m/z	relative intensity
27.024	10
28.019	15
28.05	1
28.985	2
29.04	33
29.07	1
30.035	94
30.147	1
31.002	2
31.038	1
39.025	6
40.031	1
41.04	20
42.036	21
43.001	12
43.043	5
44.007	2
44.051	56
44.08	1
44.981	22
45.017	13
45.054	2
45.981	1
46.996	23
47.997	1
55.001	1
55.056	2
56.051	30
57.017	2
57.071	16
57.125	1
57.991	1
58.025	13
58.066	999
58.339	2
58.442	3
58.699	2
58.789	1
58.997	4
59.032	21
59.069	33
59.294	1
59.339	1
59.52	1
59.577	1
59.621	1
59.84	1
60.004	5
60.07	1
61.012	12
66.799	1
68.051	1
70.029	2
72.04	6
72.529	3
73.048	97
73.115	2
73.149	1
73.458	1
74.02	5
74.049	8
75.027	209
75.197	1
75.393	1
75.42	1
76.028	15
77.024	8
84.042	1
85.048	2
86.043	3
87.05	3
88.031	2
89.044	2
93.72	1
99.063	3
100.06	1
101.007	3
102.038	1
102.074	2
103.022	109
103.164	1
104.023	8
105.022	4
114.077	1
115.094	4
116.031	4
116.091	3
117.037	8
118.041	1
130.069	3
132.085	7
133.086	1
142.069	9
143.07	1
144.049	2
145.067	2
146.062	2
159.078	1
160.079	171
160.633	1
160.716	1
161.081	19
161.189	1
162.078	7
202.126	12
203.128	2
216.139	2
217.149	2
218.143	1
