Mass spectrum: Polyporenic acid C; ESI-QTOF; MS2; NEGATIVE; [M-H]-; CID; 50 V
Name: Polyporenic acid C
Class: Non-natural product; Lanosterol analogue
Formula: C31H46O4
Exact mass: 482.33961
SMILES: CC(C)C(=C)CC[C@H]([C@H]1[C@@H](C[C@@]2([C@@]1(CC=C3C2=CC[C@@H]4[C@@]3(CCC(=O)C4(C)C)C)C)C)O)C(=O)O
InChI: InChI=1S/C31H46O4/c1-18(2)19(3)9-10-20(27(34)35)26-23(32)17-31(8)22-11-12-24-28(4,5)25(33)14-15-29(24,6)21(22)13-16-30(26,31)7/h11,13,18,20,23-24,26,32H,3,9-10,12,14-17H2,1-2,4-8H3,(H,34,35)/t20-,23-,24+,26+,29-,30-,31+/m1/s1
Instrument: X500R QTOF (AB Sciex LLC, USA)
Instrument type: ESI-QTOF
Ms type: MS2
Ion mode: NEGATIVE
Collision energy: 50 V
Fragmentation mode: CID
Ionization: ESI
Precursor m/z: 481.33233
Precursor type: [M-H]-
m/z	relative intensity
43.0185	7
57.0341	6
85.0657	9
95.0501	5
97.0657	117
99.0814	7
193.1601	16
267.1761	26
269.1919	13
271.1712	53
278.1686	16
283.2075	13
284.1789	33
291.1768	11
293.1924	39
295.1716	15
296.1793	21
297.1873	28
307.2076	17
311.2029	122
335.2396	46
385.2407	19
387.2709	81
388.2785	93
391.3012	21
393.3175	16
403.3017	97
404.2735	30
405.2811	89
419.2972	107
419.3326	57
421.3123	152
435.3278	125
437.3438	64
481.3339	999
