Mass spectrum: (3R)-3-Methylheptyl pivalate; GC-FI-TOF; MS; positive; FI; 10 kV
Name: (3R)-3-Methylheptyl pivalate
Class: Non-natural product
Formula: C13H26O2
Exact mass: 214.19328
SMILES: CCCC[C@@H](C)CCOC(=O)C(C)(C)C
InChI: InChI=1S/C13H26O2/c1-6-7-8-11(2)9-10-15-12(14)13(3,4)5/h11H,6-10H2,1-5H3/t11-/m1/s1
Instrument: JMS-T100GCV (JEOL, Akishima, Japan) coupled to Agilent 7890A (Agilent, Wilmington, USA) gas chromatograph.
Instrument type: GC-FI-TOF
Ms type: MS
Ion mode: POSITIVE
Ionization: FI
Column name: HP-5 19091 J-413 USD364547H (Agilent, Wilmington, USA), length 30.0 m, I.D. 0.32 mm, thickness 0.25 micrometer.
Retention time: 7.45 min.
m/z	relative intensity
29.039	108
57.071	792
57.138	18
58.073	38
85.066	104
85.103	121
103.078	63
112.127	999
112.222	23
113.131	128
129.093	57
157.124	231
158.13	29
213.188	37
214.193	39
215.203	276
216.205	44
