Mass spectrum: Dicyclohexylurea; ESI-QTOF; MS; POSITIVE
Name: Dicyclohexylurea
Name: 1,3-Dicyclohexylurea
Class: Non-natural product; Ureas
Formula: C13H24N2O
Exact mass: 224.18886
SMILES: C1CCC(CC1)NC(=O)NC2CCCCC2
InChI: InChI=1S/C13H24N2O/c16-13(14-11-7-3-1-4-8-11)15-12-9-5-2-6-10-12/h11-12H,1-10H2,(H2,14,15,16)
Instrument: X500R QTOF (AB Sciex Pte. Ltd, USA)
Instrument type: ESI-QTOF
Ms type: MS
Ion mode: POSITIVE
Ionization: ESI
m/z	relative intensity
105.0698	345
119.0856	85
121.101	999
122.1046	119
130.159	53
133.0649	108
143.068	80
151.0754	251
161.0598	339
179.0704	477
205.1953	188
223.064	163
225.1963	913
226.1996	143
247.1783	234
