Mass spectrum: Lufenuron; LC-ESI-QTOF; MS2; ESI; NEGATIVE; CE 60 V
Name: Lufenuron
Class: Non-natural product
Formula: C17H8Cl2F8N2O3
Exact mass: 509.97842
SMILES: O=C(NC(=O)c1c(F)cccc1F)Nc1cc(Cl)c(OC(F)(F)C(F)C(F)(F)F)cc1Cl
InChI: InChI=1S/C17H8Cl2F8N2O3/c18-6-5-11(32-17(26,27)14(22)16(23,24)25)7(19)4-10(6)28-15(31)29-13(30)12-8(20)2-1-3-9(12)21/h1-5,14H,(H2,28,29,30,31)
Instrument: ExionLC AD, AB Sciex LLC, USA; X500R QTOF, AB Sciex LLC, USA.
Instrument type: LC-ESI-QTOF
Ms type: MS2
Ion mode: NEGATIVE
Collision energy: 60 V
Ionization: ESI
Column name: AQ-C18HP 3 microm, 2.1 mm Ã— 150 mm, GL Science (Tokyo Japan)
Retention time: 15.4 min
Precursor m/z: 508.97114
Precursor type: [M-H]-
m/z	relative intensity
34.9688	124
41.9978	265
93.0143	46
113.0204	78
130.9923	19
146.9871	79
165.9698	87
174.959	999
175.9629	15
185.9521	11
199.9546	105
201.9466	234
229.9631	16
231.9976	23
239.0275	15
258.0009	23
267.0221	13
275.0046	26
294.9606	16
302.9994	72
338.9743	22
