Mass spectrum: Methyl [(1S)-1,2-dimethyl-2,3-epoxycyclopent-1-yl]acetate; GC-EI-TOF; MS; positive; EI; 70 V
Name: Methyl [(1S)-1,2-dimethyl-2,3-epoxycyclopent-1-yl]acetate
Class: Non-natural product
Formula: C10H16O3
Exact mass: 184.10994
SMILES: CC12OC1CC[C@@]2(C)CC(=O)OC
InChI: InChI=1S/C10H16O3/c1-9(6-8(11)12-3)5-4-7-10(9,2)13-7/h7H,4-6H2,1-3H3/t7?,9-,10?/m0/s1
Instrument: JMS-T100GCV (JEOL, Akishima, Japan) coupled to Agilent 7890A (Agilent, Wilmington, USA) gas chromatograph.
Instrument type: GC-EI-TOF
Ms type: MS
Ion mode: POSITIVE
Ionization: EI
Column name: HP-5 19091 J-413 USD364547H (Agilent, Wilmington, USA), length 30 m, I.D. 0.32 mm, thickness 0.25 micrometer.
Retention time: 7.31 min.
m/z	relative intensity
26.016	6
27.024	139
28.006	54
28.031	23
29.003	38
29.040	98
29.084	1
30.011	3
31.019	19
31.990	18
33.034	3
38.016	7
39.024	216
40.031	39
41.040	379
42.011	45
42.046	29
43.019	821
43.055	61
43.343	2
43.567	2
43.811	1
44.023	21
44.059	3
44.999	4
45.034	29
50.016	9
51.024	33
52.032	18
53.040	142
54.047	35
55.019	70
55.055	387
56.025	5
56.060	20
57.035	26
57.071	8
58.042	27
59.014	159
59.050	25
60.018	4
61.029	2
63.024	7
65.040	52
66.047	21
67.019	4
67.055	206
67.174	1
68.027	5
68.062	65
69.035	46
69.071	89
70.041	6
70.075	6
71.050	63
72.057	15
73.066	11
74.037	42
75.045	64
76.048	2
77.040	64
78.046	10
79.055	126
79.335	1
80.062	24
81.035	15
81.071	182
82.042	55
82.078	52
83.050	56
83.086	43
84.056	6
84.090	3
85.030	8
85.066	45
86.073	20
87.045	3
91.055	81
91.134	1
92.062	16
93.071	88
93.143	1
94.043	3
94.078	34
95.050	424
95.086	70
95.480	1
96.057	81
96.093	13
97.029	6
97.065	34
97.102	25
98.072	6
98.106	2
99.045	14
99.081	47
100.085	3
101.061	5
105.071	17
106.078	13
107.086	124
108.058	11
108.090	12
109.066	642
109.203	8
109.579	2
110.073	999
110.594	2
111.080	326
111.291	1
112.084	26
113.061	14
114.068	28
115.071	2
119.050	3
123.081	16
124.053	4
124.089	14
125.097	813
125.649	2
126.100	70
126.457	1
127.040	9
127.076	77
128.083	23
129.086	2
135.081	39
136.085	5
137.060	22
138.064	2
139.075	5
140.083	3
141.092	8
142.099	5
151.076	4
152.083	9
153.092	73
154.095	8
166.099	5
168.115	4
169.087	27
170.090	3
184.110	5
