Mass spectrum: Eburicoic acid; ESI-QTOF; MS2; POSITIVE; [M+H]+; CID; 50 V
Name: Eburicoic acid
Class: Non-natural product; Triterpenoid
Formula: C31H50O3
Exact mass: 470.37600
SMILES: CC(C)C(=C)CC[C@H]([C@H]1CC[C@@]2([C@@]1(CCC3=C2CC[C@@H]4[C@@]3(CC[C@@H](C4(C)C)O)C)C)C)C(=O)O
InChI: InChI=1S/C31H50O3/c1-19(2)20(3)9-10-21(27(33)34)22-13-17-31(8)24-11-12-25-28(4,5)26(32)15-16-29(25,6)23(24)14-18-30(22,31)7/h19,21-22,25-26,32H,3,9-18H2,1-2,4-8H3,(H,33,34)/t21-,22-,25+,26+,29-,30-,31+/m1/s1
Instrument: X500R QTOF (AB Sciex LLC, USA)
Instrument type: ESI-QTOF
Ms type: MS2
Ion mode: POSITIVE
Collision energy: 50 V
Fragmentation mode: CID
Ionization: ESI
Precursor m/z: 471.38327
Precursor type: [M+H]+
m/z	relative intensity
55.0555	165
57.0712	70
65.04	11
67.0557	140
69.0714	183
71.0871	30
77.0401	39
79.0558	94
81.0714	288
83.0871	160
91.0559	118
93.0715	230
95.0871	439
97.0665	12
97.1029	137
105.0715	216
107.0872	374
109.1029	501
111.0822	24
111.1185	21
117.0716	48
119.0872	558
121.1028	438
123.0822	20
123.1185	238
129.0716	36
131.0872	198
133.1029	365
135.1185	233
137.098	25
137.1342	51
143.0873	98
144.0951	20
145.103	316
147.1185	265
149.1342	98
155.0874	18
156.0951	19
157.103	163
158.1107	30
159.1186	456
160.1262	25
161.1342	230
163.1499	59
169.103	36
171.1187	218
172.1265	31
173.1343	741
174.1421	50
175.15	166
177.1657	29
183.1187	51
185.1344	243
186.1422	282
187.15	394
189.1657	72
197.1345	56
198.1423	44
199.1501	293
200.1578	28
201.1658	134
203.1815	31
211.1501	76
212.1578	31
213.1659	168
214.1736	359
215.1816	196
225.1658	70
226.1736	69
227.1815	167
229.1971	999
239.1817	66
241.1973	306
247.2079	26
253.1971	48
255.2129	94
267.2128	31
273.2234	36
280.2206	36
281.2286	39
295.2441	130
297.2597	32
313.2544	53
