Mass spectrum: Clothianidin; LC-ESI-QTOF; MS; POSITIVE
Name: Clothianidin
Class: Non-natural product
Formula: C6H8ClN5O2S
Exact mass: 249.008723
SMILES: CNC(=N[N+](=O)[O-])NCC1=CN=C(S1)Cl
InChI: InChI=1S/C6H8ClN5O2S/c1-8-6(11-12(13)14)10-3-4-2-9-5(7)15-4/h2H,3H2,1H3,(H2,8,10,11)
Instrument: X500R QTOF (AB Sciex LLC, MA, USA) coupled to ExionLC AD (AB Sciex LLC, MA, USA).
Instrument type: LC-ESI-QTOF
Ms type: MS
Ion mode: POSITIVE
Ionization: ESI
Column name: TSKgel ODS-100S 5 um, 2.1 mm Ã— 250 mm, TOSOH
Retention time: 11.2 min
m/z	relative intensity
169.0539	500
250.016	999
252.013	397
