Mass spectrum: (2E,4S,5S)-(-)-4,5-epoxy-(E)-2-decenal; GC-EI-TOF; MS; POSITIVE; EI; 70 V
Name: (2E,4S,5S)-(-)-4,5-epoxy-(E)-2-decenal
Class: Non-natural compound
Formula: C10H16O2
Exact mass: 168.11503
SMILES: CCCCC[C@@H]1O[C@H]1/C=C/C=O
InChI: InChI=1S/C10H16O2/c1-2-3-4-6-9-10(12-9)7-5-8-11/h5,7-10H,2-4,6H2,1H3/b7-5+/t9-,10-/m0/s1
Instrument: JMS-T100GCV (JEOL, Akishima, Japan) coupled to Agilent 7890A gas chromatograph.
Instrument type: GC-EI-TOF
Ms type: MS
Ion mode: POSITIVE
Ionization: EI
Column name: HP-5 19091J-413 USD364547H (Agilent), length 30.0 m, I.D. 0.32 mm, thickness 0.25 micrometer.
Retention time: 7.6 min.
m/z	relative intensity
26.016	11
27.024	183
27.066	2
27.995	3
28.031	26
29.003	65
29.04	185
29.081	2
30.043	4
31.019	12
37.008	5
38.016	22
39.024	325
39.075	3
39.332	1
40.031	78
40.078	1
41.039	284
41.092	3
41.325	1
41.355	1
42.011	22
42.047	50
43.019	14
43.055	148
43.108	2
44.026	7
44.058	5
45.034	2
50.016	5
51.024	12
52.031	5
53.003	2
53.039	31
54.011	2
54.047	12
55.019	37
55.055	140
56.026	8
56.062	48
56.125	1
57.034	76
57.07	10
58.039	3
63.024	2
65.039	10
66.047	6
67.055	20
68.026	999
68.094	9
68.322	2
68.433	3
68.71	2
69.032	82
69.07	22
69.342	1
69.652	1
70.041	12
70.075	2
71.049	4
71.086	6
77.039	7
78.046	2
79.055	16
80.062	4
81.034	27
81.07	6
82.006	2
82.041	6
82.078	2
83.013	4
83.05	25
83.086	3
84.021	27
84.055	3
84.092	1
85.029	10
86.037	13
91.055	2
93.071	5
95.013	3
95.05	4
95.086	3
97.029	4
97.065	3
99.081	3
107.049	2
111.044	4
121.102	1
139.112	11
140.115	1
