Mass spectrum: Isoprothiolane; ESI-ITFT; MS; Positive
Name: Isoprothiolane
Class: Non-Natural Product; Agrochemicals
Formula: C12H18O4S2
Exact mass: 290.06465
SMILES: CC(C)OC(=O)C(=C1SCCS1)C(=O)OC(C)C
InChI: InChI=1S/C12H18O4S2/c1-7(2)15-10(13)9(11(14)16-8(3)4)12-17-5-6-18-12/h7-8H,5-6H2,1-4H3
Instrument: LTQ Orbitap Velos (Thermofisher Scientific)
Instrument type: ESI-ITFT
Ms type: MS
Ion mode: POSITIVE
Ionization: nano-ESI
m/z	relative intensity
282.13838	3
284.29474	7
285.13582	4
286.12539	4
286.60496	4
289.0217	3
291.05534	5
291.07187	999
291.08559	5
291.09181	5
291.12183	2
292.07538	111
292.12516	6
293.06762	78
293.13305	11
293.17853	4
293.6348	2
294.07105	8
295.1943	7
296.50946	5
298.00815	6
299.00573	2
300.62076	3
301.14088	2
302.05649	2
306.14084	2
308.15417	6
310.0453	60
310.16959	5
310.54695	15
311.0428	10
311.15159	5
313.05379	354
313.16674	6
314.05744	38
315.04963	26
316.05289	3
317.53303	31
318.03461	8
318.53036	4
319.03164	30
319.05066	4
319.53336	7
320.02933	14
320.53087	3
321.02723	3
329.02778	104
330.03143	11
331.02451	11
338.34173	4
