Mass spectrum: Hexaflumuron; LC-ESI-QTOF; MS2; ESI; NEGATIVE; [M-H]-; CE 50 V
Name: Hexaflumuron
Class: Non-natural product
Formula: C16H8Cl2F6N2O3
Exact mass: 459.98161
SMILES: O=C(NC(=O)c1c(F)cccc1F)Nc1cc(Cl)c(OC(F)(F)C(F)F)c(Cl)c1
InChI: InChI=1S/C16H8Cl2F6N2O3/c17-7-4-6(5-8(18)12(7)29-16(23,24)14(21)22)25-15(28)26-13(27)11-9(19)2-1-3-10(11)20/h1-5,14H,(H2,25,26,27,28)
Instrument: ExionLC AD, AB Sciex LLC, USA; X500R QTOF, AB Sciex LLC, USA.
Instrument type: LC-ESI-QTOF
Ms type: MS2
Ion mode: NEGATIVE
Collision energy: 50 V
Ionization: ESI
Column name: AQ-C18HP 3 microm, 2.1 mm Ã— 150 mm, GL Science (Tokyo Japan)
Retention time: 15.0 min
Precursor m/z: 458.97433
Precursor type: [M-H]-
m/z	relative intensity
34.9691	37
41.9979	520
93.0143	49
96.9905	48
113.0207	80
174.9588	999
185.9516	120
199.9546	153
294.9609	54
