Mass spectrum: (2R,3S,5R)-5-(But-3-en-1-yl)-3-acetoxy-2-(acetoxymethyl)tetrahydrofuran; GC-FI-TOF; MS; POSITIVE; FI; 10 kV
Name: (2R,3S,5R)-5-(But-3-en-1-yl)-3-acetoxy-2-(acetoxymethyl)tetrahydrofuran
Class: Non-natural compound
Formula: C13H20O5
Exact mass: 256.13108
SMILES: C=CCC[C@@H]1C[C@H](OC(C)=O)[C@@H](COC(C)=O)O1
InChI: InChI=1S/C13H20O5/c1-4-5-6-11-7-12(17-10(3)15)13(18-11)8-16-9(2)14/h4,11-13H,1,5-8H2,2-3H3/t11-,12+,13-/m1/s1
Instrument: JMS-T100GCV (JEOL, Akishima, Japan) coupled to Agilent 7890A gas chromatograph.
Instrument type: GC-FI-TOF
Ms type: MS
Ion mode: POSITIVE
Ionization: FI
Column name: ZB-1MS 7HM-G011-11 sn:313446, length 30.0 m, I.D. 0.32 mm, thickness 0.25 micrometer.
Retention time: 8.93 min.
m/z	relative intensity
136.084	15
154.096	97
155.1	9
183.1	25
196.107	999
197.11	127
197.218	4
198.113	14
201.071	339
202.074	35
210.497	4
210.599	4
213.108	8
214.079	314
215.083	35
256.131	948
257.135	146
258.137	21
