Mass spectrum: 2-(4-Methoxyphenyl)ethylamine; LC-ESI-QQ; MS2; POSITIVE; [M+H]+; CID; 30 V
Name: 2-(4-Methoxyphenyl)ethylamine
Class: Non-natural product; Phenethylamine
Formula: C9H13NO
Exact mass: 151.09971
SMILES: COC1=CC=C(C=C1)CCN
InChI: InChI=1S/C9H13NO/c1-11-9-4-2-8(3-5-9)6-7-10/h2-5H,6-7,10H2,1H3
Instrument: Xevo TQS micro (Waters, MA, USA) coupled to ACQUITY UPLC H-Class (Waters, MA, USA)
Instrument type: LC-ESI-QQ
Ms type: MS2
Ion mode: POSITIVE
Collision energy: 30 V
Fragmentation mode: CID
Ionization: ESI
Column name: Acquity UPLC BEH AMIDE column (1.7 Âµm, 2.1 x 150 mm; Waters, MA, USA)
Precursor m/z: 152.10699
Precursor type: [M+H]+
m/z	relative intensity
39.1	7
40.8	7
50.6	14
50.8	15
51.2	21
64.1	6
64.7	13
65	17
65.3	9
76.2	6
77	999
77.8	10
78	7
78.2	11
78.7	192
79	368
90.7	120
91	371
91.6	12
92	93
92.3	32
93.9	13
101.8	9
101.9	8
102.2	9
102.9	219
103.1	97
103.3	98
104.1	15
104.6	16
104.8	55
105	33
105.2	29
105.4	24
108.1	10
118.7	12
118.9	15
119.2	10
119.4	11
119.7	7
119.9	25
120.2	24
134.7	7
135.2	8
135.4	6
