Mass spectrum: 2-(4-Trifluoromethylphenyl)ethylamine; LC-ESI-QQ; MS2; POSITIVE; [M+H-NH3]+; CID; 20 V
Name: 2-(4-Trifluoromethylphenyl)ethylamine
Class: Non-natural product; Phenethylamine
Formula: C9H10F3N
Exact mass: 189.07653
SMILES: C1=CC(=CC=C1CCN)C(F)(F)F
InChI: InChI=1S/C9H10F3N/c10-9(11,12)8-3-1-7(2-4-8)5-6-13/h1-4H,5-6,13H2
Instrument: Xevo TQS micro (Waters, MA, USA) coupled to ACQUITY UPLC H-Class (Waters, MA, USA)
Instrument type: LC-ESI-QQ
Ms type: MS2
Ion mode: POSITIVE
Collision energy: 20 V
Fragmentation mode: CID
Ionization: ESI
Column name: Acquity UPLC BEH AMIDE column (1.7 Âµm, 2.1 x 150 mm; Waters, MA, USA)
Precursor m/z: 173.057261
Precursor type: [M+H-NH3]+
m/z	relative intensity
102.9	11
104.0	105
108.8	6
109.1	7
127.0	39
127.3	10
133.0	999
145.0	7
150.9	7
151.1	8
152.9	112
153.1	138
173.0	7
