Mass spectrum: Okaramine B; ESI-QQ; MS2; POSITIVE; [M+H]+: CID; 30 eV
Name: Okaramine B
Class: Natural product; Indole alkaloid
Formula: C33H34N4O5
Exact mass: 566.25292
SMILES: CC1C(N2C13[C@@](C([C@]4(N3C(=O)/C/5=C/C6=C(C(/C=C\N5C4=O)(C)C)NC7=CC=CC=C76)O)OC)(C8=CC=CC=C82)O)(C)C
InChI: InChI=1S/C33H34N4O5/c1-18-30(4,5)36-23-14-10-8-12-21(23)31(40)27(42-6)32(41)28(39)35-16-15-29(2,3)25-20(19-11-7-9-13-22(19)34-25)17-24(35)26(38)37(32)33(18,31)36/h7-18,27,34,40-41H,1-6H3/b16-15-,24-17-/t18?,27?,31-,32-,33?/m0/s1
Instrument: ACQUITY UPLC H-Class/Xevo TQD (Waters, Milford, USA)
Instrument type: ESI-QQ
Ms type: MS2
Ion mode: POSITIVE
Collision energy: 30 eV
Fragmentation mode: CID
Ionization: ESI
Precursor m/z: 567.26018
Precursor type: [M+H]+
m/z	relative intensity
106.5	9
146.5	7
157.6	6
158.4	10
160.3	26
162.3	16
167.6	14
170.9	5
172.5	118
173.4	5
174.4	4
176.5	102
182.6	6
188.6	10
193.6	13
194.6	29
196.2	13
197.4	3
199.2	7
200.5	102
201.3	16
204.4	2
208.6	2
210.0	1
211.5	10
214.4	9
221.6	57
222.6	52
223.6	30
225.5	8
228.3	1
229.6	8
232.3	4
239.2	3
241.7	2
246.6	31
249.5	60
251.5	3
257.4	29
261.7	6
266.5	6
272.8	7
278.3	1
284.6	6
293.0	7
294.6	19
297.9	7
306.7	25
307.7	6
318.1	2
322.0	6
322.6	40
323.4	10
331.1	12
333.5	27
334.4	43
349.0	16
349.5	2
350.1	47
350.7	40
351.7	8
366.4	9
390.4	13
392.2	2
404.6	20
409.6	6
419.6	50
421.1	14
421.7	3
423.3	7
429.9	3
431.4	11
432.6	3
434.6	3
436.7	9
445.3	10
446.8	3
447.4	60
448.7	3
450.0	7
451.0	2
451.7	6
455.7	2
456.6	6
460.4	8
461.4	13
474.3	34
475.6	999
476.1	35
477.7	7
478.3	6
479.0	3
479.5	328
491.4	12
496.0	3
497.4	12
499.7	23
500.4	4
517.4	10
531.5	116
532.2	15
549.0	7
549.6	48
