Mass spectrum: (4R)-4-Methylnonanoic acid; GC-FI-TOF; MS; positive; FI; 10 kV
Name: (4R)-4-Methylnonanoic acid
Class: Non-natural product
Formula: C10H20O2
Exact mass: 172.14638
SMILES: CCCCC[C@@H](C)CCC(=O)O
InChI: InChI=1S/C10H20O2/c1-3-4-5-6-9(2)7-8-10(11)12/h9H,3-8H2,1-2H3,(H,11,12)/t9-/m1/s1
Instrument: JMS-T100GCV (JEOL, Akishima, Japan) coupled to Agilent 7890A (Agilent, Wilmington, USA) gas chromatograph.
Instrument type: GC-FI-TOF
Ms type: MS
Ion mode: POSITIVE
Ionization: FI
Column name: HP-5 19091 J-413 USD364547H (Agilent, Wilmington, USA), length 30.0 m, I.D. 0.32 mm, thickness 0.25 micrometer.
Retention time: 7.57 min.
m/z	relative intensity
29.040	39
29.965	6
35.178	6
41.124	7
43.056	12
43.985	6
52.935	7
101.061	33
113.132	29
115.074	84
116.074	9
136.122	10
143.106	22
155.140	8
158.125	7
171.140	19
172.048	6
172.146	999
173.152	190
173.225	9
174.155	17
178.129	6
178.355	7
199.303	6
257.952	5
