Mass spectrum: Cyanoguanidine; ESI-QTOF; MS2; ESI; POSITIVE; [M+H]+; CE 50 V
Name: Cyanoguanidine
Class: Non-natural product
Formula: C2H4N4
Exact mass: 84.04358
SMILES: N#CNC(=N)N
InChI: InChI=1S/C2H4N4/c3-1-6-2(4)5/h(H4,4,5,6)
Instrument: X500R QTOF (AB Sciex LLC, USA)
Instrument type: ESI-QTOF
Ms type: MS2
Ion mode: POSITIVE
Collision energy: 50 V
Ionization: ESI
Precursor m/z: 85.05086
Precursor type: [M+H]+
m/z	relative intensity
28.0201	142
29.0153	53
41.0156	239
42.0234	80
43.0312	999
44.0391	82
68.0267	211
