Mass spectrum: Genistein; ESI-QTOF; MS2; POSITIVE; [M+H]+; CID; 40 V
Name: Genistein
Class: 7-hydroxyisoflavone
Formula: C15H10O5
Exact mass: 270.05282
SMILES: C1=CC(=CC=C1C2=COC3=CC(=CC(=C3C2=O)O)O)O
InChI: InChI=1S/C15H10O5/c16-9-3-1-8(2-4-9)11-7-20-13-6-10(17)5-12(18)14(13)15(11)19/h1-7,16-18H
Instrument: X500R QTOF (AB Sciex LLC, USA)
Instrument type: ESI-QTOF
Ms type: MS2
Ion mode: POSITIVE
Collision energy: 40 V
Fragmentation mode: CID
Ionization: ESI
Precursor m/z: 271.06010
Precursor type: [M+H]+
m/z	relative intensity
43.0174	26
65.0383	65
67.0176	71
68.9968	135
91.0539	665
107.0489	61
119.0488	162
121.0282	99
131.0488	76
141.0695	188
145.0281	120
149.023	240
153.0177	999
159.0438	103
165.018	90
169.0645	230
197.0594	259
215.07	496
243.065	264
253.0495	178
271.06	487
