Mass spectrum: (2S)-2-Aminobutanoic acid; GC-FI-TOF; MS; POSITIVE; FI; 10 kV; 2TBDMS
Name: (2S)-2-Aminobutanoic acid
Class: Non-natural compound
Formula: C4H9NO2
Exact mass: 103.0633285
SMILES: CC[C@@H](C(=O)O)N
InChI: InChI=1S/C4H9NO2/c1-2-3(5)4(6)7/h3H,2,5H2,1H3,(H,6,7)/t3-/m0/s1
Instrument: JMS-T100GCV (JEOL, Akishima, Japan) coupled to Agilent 7890A (Santa Clara, CA, USA) gas chromatograph.
Instrument type: GC-FI-TOF
Ms type: MS
Ion mode: POSITIVE
Ionization: FI
Column name: DB-5MS UI 122-5532UI US0462866H (Agilent, Wilmington, USA) with the length 30 m, I.D. 0.25 mm, and thickness 0.25 micrometer.
Retention time: 9.47 min.
Derivative form: C16H37NO2Si2
Derivative mass: 331.23628
Derivative type: 2TBDMS
m/z	relative intensity
57.072	9
172.151	8
274.166	999
274.931	3
275.168	230
275.497	3
276.165	92
277.166	14
332.245	5
