Mass spectrum: Alpha-Carotene; ESI-QTOF; MS2; POSITIVE; ESI; M+; CE 20 eV.
Name: Alpha-Carotene
Class: Natural product; carotenoids, carotene
Formula: C40H56
Exact mass: 536.4382
SMILES: CC1=C(C(CCC1)(C)C)/C=C/C(=C/C=C/C(=C/C=C/C=C(\C)/C=C/C=C(\C)/C=C/C2C(=CCCC2(C)C)C)/C)/C
InChI: InChI=1S/C40H56/c1-31(19-13-21-33(3)25-27-37-35(5)23-15-29-39(37,7)8)17-11-12-18-32(2)20-14-22-34(4)26-28-38-36(6)24-16-30-40(38,9)10/h11-14,17-23,25-28,37H,15-16,24,29-30H2,1-10H3/b12-11+,19-13+,20-14+,27-25+,28-26+,31-17+,32-18+,33-21+,34-22+
Instrument: Xevo G2-S QtOF, Waters (USA) coupled to ACQUITY UPLC, Waters (USA).
Instrument type: LC-ESI-QTOF
Ms type: MS2
Ion mode: POSITIVE
Collision energy: 20 eV
Ionization: ESI
Column name: BEH C18, I.D. 2.1 mm, length 100 mm, thickness 1.7 micrometer.
Ion type: [M]+
Precursor m/z: 536.4377
m/z	relative intensity
95.085	137
105.07	59
107.085	95
109.102	85
119.086	222
121.101	133
123.117	248
131.087	53
133.102	180
135.117	58
137.133	121
143.086	51
145.102	381
147.117	109
157.102	125
159.117	115
161.133	87
169.098	60
171.118	200
173.131	73
175.148	114
177.164	237
183.117	110
185.133	151
187.148	52
189.163	108
195.118	56
197.132	273
198.138	92
199.147	114
201.164	50
203.179	122
209.132	158
211.147	122
213.163	73
221.131	56
223.149	142
225.162	76
227.179	51
229.192	57
237.164	72
239.179	77
241.195	113
243.211	117
251.179	67
254.203	102
255.211	55
267.211	222
281.226	59
293.228	65
307.242	62
321.257	265
322.265	116
333.256	71
359.271	62
388.313	298
389.315	100
413.319	72
429.351	74
444.374	999
445.378	351
446.382	54
480.373	74
535.429	72
536.437	537
537.341	70
537.44	199
