Mass spectrum: Acetylglycitin; ESI-QTOF; MS2; NEGATIVE; [M-H]-; CID; 40 V
Name: Acetylglycitin
Class: Natural product; glycitin
Formula: C24H24O11
Exact mass: 488.13186
SMILES: CC(=O)OC[C@@H]1[C@H]([C@@H]([C@H]([C@@H](O1)OC2=C(C=C3C(=C2)OC=C(C3=O)C4=CC=C(C=C4)O)OC)O)O)O
InChI: InChI=1S/C24H24O11/c1-11(25)32-10-19-21(28)22(29)23(30)24(35-19)34-18-8-16-14(7-17(18)31-2)20(27)15(9-33-16)12-3-5-13(26)6-4-12/h3-9,19,21-24,26,28-30H,10H2,1-2H3/t19-,21-,22+,23-,24-/m1/s1
Instrument: X500R QTOF (AB Sciex LLC, USA)
Instrument type: ESI-QTOF
Ms type: MS2
Ion mode: NEGATIVE
Collision energy: 40 V
Fragmentation mode: CID
Ionization: ESI
Precursor m/z: 487.12459
Precursor type: [M-H]-
m/z	relative intensity
239.0344	56
240.042	79
267.0293	148
268.0369	999
269.0404	36
282.0527	474
283.0602	631
284.0638	31
