Mass spectrum: Allidochlor; GC-EI-Q; MS; Positive; M+*
Name: Allidochlor
Class: Non-Natural Product; Pesticides
Formula: C8H12ClNO
Exact mass: 173.06074
SMILES: C=CCN(CC=C)C(=O)CCl
InChI: InChI=1S/C8H12ClNO/c1-3-5-10(6-4-2)8(11)7-9/h3-4H,1-2,5-7H2
Instrument: GCMS-QP2010 Plus, Shimadzu
Instrument type: GC-EI-Q
Ms type: MS
Ion mode: POSITIVE
Ionization: EI
Column name: Ptx-5MS(RESTEK), 0.32 mm I.D. x 30 m, df=0.25 microm
Retention time: 4.58 min
Ion type: [M]+*
Precursor m/z: 173.06
m/z	relative intensity
40	44
41	999
42	147
43	63
49	72
51	27
52	7
53	22
54	59
55	66
56	530
57	35
58	7
67	33
68	83
69	36
70	246
71	13
76	15
77	85
78	11
79	56
80	52
81	88
82	103
83	28
84	25
93	7
94	29
95	11
96	115
97	21
98	27
106	7
107	17
108	12
109	9
110	30
118	5
124	81
125	7
130	11
131	9
132	232
133	16
134	76
137	6
138	277
139	31
144	5
145	11
146	11
158	17
160	5
173	21
175	5
