Mass spectrum: 2-(4-Fluorophenyl)ethylamine; LC-ESI-QQ; MS2; POSITIVE; [M+H]+; CID; 30 V
Name: 2-(4-Fluorophenyl)ethylamine
Class: Non-natural product; Phenethylamine
Formula: C8H10FN
Exact mass: 139.07972
SMILES: C1=CC(=CC=C1CCN)F
InChI: InChI=1S/C8H10FN/c9-8-3-1-7(2-4-8)5-6-10/h1-4H,5-6,10H2
Instrument: Xevo TQS micro (Waters, MA, USA) coupled to ACQUITY UPLC H-Class (Waters, MA, USA)
Instrument type: LC-ESI-QQ
Ms type: MS2
Ion mode: POSITIVE
Collision energy: 30 V
Fragmentation mode: CID
Ionization: ESI
Column name: Acquity UPLC BEH AMIDE column (1.7 Âµm, 2.1 x 150 mm; Waters, MA, USA)
Precursor m/z: 140.08700
Precursor type: [M+H]+
m/z	relative intensity
50.9	116
74.5	6
74.8	30
75.1	40
76.9	999
77.2	420
94.8	42
95.1	34
95.3	17
96.8	19
97	16
97.2	16
100.6	10
100.8	21
101.1	46
101.7	8
102	37
102.7	89
102.9	94
103	186
103.4	60
120.8	6
121.1	11
122.9	14
123.3	9
