Mass spectrum: (4S)-4-Methyl-6-heptenyl pivalate; GC-EI-TOF; MS; positive; EI; 70 V
Name: (4S)-4-Methyl-6-heptenyl pivalate
Class: Non-natural product
Formula: C13H24O2
Exact mass: 212.17763
SMILES: C=CCC[C@H](C)CCOC(=O)C(C)(C)C
InChI: InChI=1S/C13H24O2/c1-6-7-8-11(2)9-10-15-12(14)13(3,4)5/h6,11H,1,7-10H2,2-5H3/t11-/m0/s1
Instrument: JMS-T100GCV (JEOL, Akishima, Japan) coupled to Agilent 7890A (Agilent, Wilmington, USA) gas chromatograph.
Instrument type: GC-EI-TOF
Ms type: MS
Ion mode: POSITIVE
Ionization: EI
Column name: HP-5 19091 J-413 USD364547H (Agilent, Wilmington, USA), length 30 m, I.D. 0.32 mm, thickness 0.25 micrometer.
Retention time: 8.17 min.
m/z	relative intensity
26.016	3
27.024	47
28.006	23
28.031	16
29.003	3
29.039	137
29.083	1
29.111	1
30.043	3
31.019	4
31.990	8
35.977	4
38.016	3
39.024	104
39.074	1
40.031	18
41.039	442
41.064	3
41.091	4
41.165	1
41.323	1
41.355	1
41.576	1
42.046	54
42.098	1
43.019	8
43.055	36
43.990	7
44.026	1
44.058	1
45.034	3
50.016	3
51.024	6
52.031	3
53.039	35
54.047	94
54.107	1
55.019	2
55.055	302
55.116	3
55.363	1
55.382	1
56.062	131
56.124	1
56.169	1
57.034	3
57.071	999
57.132	9
57.341	2
57.443	3
57.695	2
57.982	1
58.074	46
58.260	1
58.555	1
59.050	7
65.040	7
66.047	6
67.055	163
67.121	2
68.063	401
68.130	4
68.228	1
68.423	1
68.470	1
68.748	1
69.034	14
69.070	349
69.134	3
69.414	1
69.479	1
69.735	1
70.042	12
70.074	22
71.050	10
71.083	1
73.048	6
77.040	7
78.046	2
79.055	16
80.062	14
81.070	463
81.144	4
81.514	1
81.816	1
82.078	162
82.150	2
82.251	1
82.501	1
82.833	1
83.049	1
83.084	24
83.206	1
84.091	2
85.065	132
85.140	2
85.198	1
86.069	8
87.045	7
88.050	1
91.055	6
93.071	8
94.077	2
95.086	287
95.166	3
95.518	1
95.567	1
96.090	23
97.099	2
99.081	1
103.076	138
103.159	2
104.079	8
105.077	1
107.086	1
108.094	1
109.102	14
110.110	105
110.258	1
111.115	19
112.089	1
112.120	1
113.096	4
118.996	2
125.096	1
127.113	2
128.120	1
129.092	7
135.063	8
136.066	1
137.097	2
147.066	1
149.016	1
154.078	2
155.107	5
156.007	2
157.123	2
158.020	2
165.532	1
195.030	2
197.078	2
207.032	2
209.043	1
239.000	1
