Mass spectrum: 3-Aminoisobutyric acid; GC-FI-TOF; MS; POSITIVE; FI; 10 kV; 3TMS
Name: 3-Aminoisobutyric acid
Class: Non-natural compound
Formula: C4H9NO2
Exact mass: 103.0633285
SMILES: CC(CN)C(=O)O
InChI: InChI=1S/C4H9NO2/c1-3(2-5)4(6)7/h3H,2,5H2,1H3,(H,6,7)
Instrument: JMS-T100GCV (JEOL, Akishima, Japan) coupled to Agilent 7890A (Santa Clara, CA, USA) gas chromatograph.
Instrument type: GC-FI-TOF
Ms type: MS
Ion mode: POSITIVE
Ionization: FI
Column name: DB-5MS UI 122-5532UI US0462866H (Agilent, Wilmington, USA) with the length 30 m, I.D. 0.25 mm, and thickness 0.25 micrometer.
Retention time: 8.84 min.
Derivative form: C13H33NO2Si3
Derivative mass: 319.18191
Derivative type: 3TMS
m/z	relative intensity
304.159	999
305.161	273
306.158	142
307.159	30
319.182	201
320.182	67
321.18	32
