Mass spectrum: 2-(4-Fluorophenyl)ethylamine; LC-ESI-QQ; MS2; POSITIVE; [M+H-NH3]+; CID; 40 V
Name: 2-(4-Fluorophenyl)ethylamine
Class: Non-natural product; Phenethylamine
Formula: C8H10FN
Exact mass: 139.07972
SMILES: C1=CC(=CC=C1CCN)F
InChI: InChI=1S/C8H10FN/c9-8-3-1-7(2-4-8)5-6-10/h1-4H,5-6,10H2
Instrument: Xevo TQS micro (Waters, MA, USA) coupled to ACQUITY UPLC H-Class (Waters, MA, USA)
Instrument type: LC-ESI-QQ
Ms type: MS2
Ion mode: POSITIVE
Collision energy: 40 V
Fragmentation mode: CID
Ionization: ESI
Column name: Acquity UPLC BEH AMIDE column (1.7 Âµm, 2.1 x 150 mm; Waters, MA, USA)
Precursor m/z: 123.06046
Precursor type: [M+H-NH3]+
m/z	relative intensity
30.9	4
32.5	2
32.8	2
33.1	6
36.7	2
37.9	2
38.2	2
38.7	17
38.9	12
39.2	11
41.1	2
44.7	3
45.0	4
46.0	2
47.0	2
47.6	2
48.7	3
48.9	3
49.2	4
49.6	11
49.7	12
50.2	31
50.6	155
50.9	317
51.0	418
51.9	2
52.1	2
52.7	4
53.0	9
55.1	2
56.6	11
56.8	13
57.0	41
58.8	3
59.3	2
60.9	2
61.6	3
61.8	3
62.1	4
62.3	3
62.8	21
63.2	8
68.2	3
68.9	47
69.2	25
69.5	4
69.7	4
69.9	3
70.1	8
70.8	3
72.8	4
74.0	313
74.8	300
75.0	498
75.6	3
75.9	5
76.1	4
77.0	999
80.5	2
80.7	4
81.0	3
81.2	3
81.4	3
82.6	4
82.8	3
83.1	5
83.3	5
84.0	2
92.8	3
93.4	2
93.9	4
94.2	3
94.8	83
95.0	75
95.3	39
95.7	5
95.9	10
96.0	4
96.3	12
96.8	4
97.1	8
97.2	4
100.4	3
100.8	22
101.1	54
101.7	13
102.2	13
102.7	16
103.0	9
103.3	15
106.6	3
106.9	4
107.2	3
120.8	2
121.0	2
121.2	2
121.4	2
123.1	2
