Mass spectrum: Tralopyril; ESI-QTOF; MS2; NEGATIVE; [M-H]-; CID;40 V
Name: Tralopyril
Class: pyrroles
Formula: C12H5BrClF3N2
Exact mass: 347.92767
SMILES: C1=CC(=CC=C1C2=C(C(=C(N2)C(F)(F)F)Br)C#N)Cl
InChI: InChI=1S/C12H5BrClF3N2/c13-9-8(5-18)10(19-11(9)12(15,16)17)6-1-3-7(14)4-2-6/h1-4,19H
Instrument: X500R QTOF (AB Sciex LLC, USA)
Instrument type: ESI-QTOF
Ms type: MS2
Ion mode: NEGATIVE
Collision energy: 40 V
Fragmentation mode: CID
Ionization: ESI
Precursor m/z: 346.92039
Precursor type: [M-H]-
m/z	relative intensity
78.9175	969
130.9974	149
268	62
346.9179	999
