Mass spectrum: ((2S,5S)-5-Allyltetrahydrofuran-2-yl)methanol; GC-FI-TOF; MS; POSITIVE; FI; 10 kV
Name: ((2S,5S)-5-Allyltetrahydrofuran-2-yl)methanol
Class: Non-natural compound
Formula: C8H14O2
Exact mass: 142.09938
SMILES: C=CC[C@@H]1CC[C@@H](CO)O1
InChI: InChI=1S/C8H14O2/c1-2-3-7-4-5-8(6-9)10-7/h2,7-9H,1,3-6H2/t7-,8+/m1/s1
Instrument: JMS-T100GCV (JEOL, Akishima, Japan) coupled to Agilent 7890A gas chromatograph.
Instrument type: GC-FI-TOF
Ms type: MS
Ion mode: POSITIVE
Ionization: FI
Column name: ZB-1MS 7HM-G011-11 sn:313446, length 30.0 m, I.D. 0.32 mm, thickness 0.25 micrometer.
Retention time: 6.01 min.
m/z	relative intensity
31.018	5
41.039	37
42.045	3
85.046	3
101.059	999
101.555	3
101.895	2
102.063	57
102.208	2
102.268	2
103.064	6
106.069	8
111.08	22
112.084	3
141.092	2
142.099	65
143.105	75
144.109	7
