Mass spectrum: (6S)-2,6-Dimethyl-2-undecene; GC-EI-TOF; MS; positive; EI; 70 V
Name: (6S)-2,6-Dimethyl-2-undecene
Class: Non-natural product
Formula: C13H26
Exact mass: 182.20345
SMILES: CCCCC[C@H](C)CCC=C(C)C
InChI: InChI=1S/C13H26/c1-5-6-7-10-13(4)11-8-9-12(2)3/h9,13H,5-8,10-11H2,1-4H3/t13-/m0/s1
Instrument: JMS-T100GCV (JEOL, Akishima, Japan) coupled to Agilent 7890A (Agilent, Wilmington, USA) gas chromatograph.
Instrument type: GC-EI-TOF
Ms type: MS
Ion mode: POSITIVE
Ionization: EI
Column name: HP-5 19091 J-413 USD364547H (Agilent, Wilmington, USA), length 30 m, I.D. 0.32 mm, thickness 0.25 micrometer.
Retention time: 7.06 min.
m/z	relative intensity
27.023	84
27.065	1
28.006	10
28.031	13
29.039	177
29.059	2
29.082	2
30.042	4
31.990	6
39.024	91
39.075	1
40.031	22
41.039	723
41.091	7
41.165	2
41.356	2
41.563	1
41.801	1
42.046	75
43.055	351
43.107	3
43.323	1
43.351	1
44.058	11
51.024	7
52.031	5
53.039	77
53.101	1
54.047	29
55.055	418
55.115	4
55.200	1
55.384	1
55.420	1
55.665	1
56.062	655
56.091	5
56.124	6
56.393	1
56.432	2
56.679	1
56.710	1
57.070	709
57.132	6
57.443	2
57.661	1
57.700	1
57.739	1
58.074	30
65.039	15
66.047	7
67.055	128
67.122	2
67.181	1
68.062	81
68.094	1
69.070	999
69.138	9
69.439	2
69.480	3
69.753	2
70.078	444
70.142	5
70.242	1
70.433	2
70.736	1
71.085	143
71.153	2
71.207	1
72.089	7
77.039	12
78.046	2
79.055	17
80.062	4
81.071	29
82.078	48
83.086	197
83.159	2
84.093	125
84.169	2
85.100	21
91.055	6
93.071	4
95.086	22
96.094	25
97.102	152
97.182	2
97.243	1
98.109	97
98.187	1
99.114	8
109.102	6
110.109	6
111.117	110
111.201	1
112.125	111
112.194	1
113.131	17
114.135	1
124.125	2
125.133	9
126.141	96
127.146	17
139.148	3
140.156	2
154.172	5
182.203	202
183.207	29
183.308	1
184.211	2
