Mass spectrum: Trigonelline; ESI-QTOF; MS; POSITIVE
Name: Trigonelline
Class: Alkaloid
Formula: C7H7NO2
Exact mass: 137.04768
SMILES: C[N+]1=CC=CC(=C1)C(=O)[O-]
InChI: InChI=1S/C7H7NO2/c1-8-4-2-3-6(5-8)7(9)10/h2-5H,1H3
Instrument: X500R QTOF (AB Sciex LLC, USA)
Instrument type: ESI-QTOF
Ms type: MS
Ion mode: POSITIVE
Ionization: ESI
m/z	relative intensity
138.0539	999
160.0362	822
