Mass spectrum: Malic acid-[2-13C]; GC-EI-QQ; MS2; POSITIVE; CID 5 V; 3 TBDMS-derivative; [M-57]+
Name: Malic acid-[2-13C]
Class: In vitro synthetic compound
Formula: C4H6O5
Exact mass: 134.02153
SMILES: C(C(C(=O)O)O)C(=O)O
InChI: InChI=1S/C4H6O5/c5-2(4(8)9)1-3(6)7/h2,5H,1H2,(H,6,7)(H,8,9)/i2+1
Instrument: GCMS-TQ8040 (Shimadzu, Kyoto, Japan)
Instrument type: GC-EI-QQ
Ms type: MS2
Ion mode: POSITIVE
Collision energy: 5 V
Fragmentation mode: CID
Column name: DB-5MS+DG (Agilent Technologies, Santa Clara, CA, USA)
Derivative form: C22H48O5Si3
Derivative mass: 476.28095
Derivative type: 3 TBDMS
Precursor m/z: 420.21334
m/z	relative intensity	assigned
70	12	
73.15	300	
89.1	9	
115.1	999	
130.1	12	
132.75	19	
147.05	178	
189.1	445	
214.1	22	
218.2	109	C8(13C)H21O2Si2+
246.2	10	
260.45	74	
287.5	13	
348.15	62	
350.3	77	C14(13C)H37O3Si3+
376.1	44	
392.35	159	C16(13C)H39O4Si3+
393.05	64	
404.3	69	
420.2	391	
