Mass spectrum: Quinoclamine; ESI-QTOF; MS2; NEGATIVE; [M-H]-; CID; 80 V
Name: Quinoclamine
Class: Non-natural product
Formula: C10H6ClNO2
Exact mass: 207.0087
SMILES: c1ccc2c(c1)C(=O)C(=C(C2=O)Cl)N
InChI: InChI=1S/C10H6ClNO2/c11-7-8(12)10(14)6-4-2-1-3-5(6)9(7)13/h1-4H,12H2
Instrument: X500R QTOF (AB Sciex LLC, USA)
Instrument type: ESI-QTOF
Ms type: MS2
Ion mode: NEGATIVE
Collision energy: 80 V
Fragmentation mode: CID
Ionization: ESI
Precursor m/z: 206.0014
Precursor type: [M-H]-
m/z	relative intensity
26.0033	130
34.969	999
38.0032	105
50.0032	66
65.9981	648
