Mass spectrum: 2-Hydroxyethidium; ESI-QQ; MS2; [M]+, CID, CE 35 V
Name: 2-Hydroxyethidium
Class: Non-natural product
Formula: [C21H20N3O]+
Exact mass: 330.16009
SMILES: CC[n+]1c2cc(c(cc2c3ccc(cc3c1c4ccccc4)N)O)N
InChI: InChI=1S/C21H19N3O/c1-2-24-19-12-18(23)20(25)11-16(19)15-9-8-14(22)10-17(15)21(24)13-6-4-3-5-7-13/h3-12,23,25H,2,22H2,1H3/p+1
Instrument: LCMS-8045 (Shimadzu, Kyoto, Japan)
Instrument type: LC-ESI-QQ
Ms type: MS2
Ion mode: POSITIVE
Collision energy: 35 V
Fragmentation mode: CID
Ionization: ESI
Precursor m/z: 330.16009
Precursor type: [M]+
m/z	relative intensity
179.25	91
197.35	57
224	69
255.05	64
256.05	86
257.05	310
285.1	352
300	999
301.15	571
302.1	613
314	115
