Mass spectrum: 1-(9Z-Octadecenoyl)-sn-glycero-3-phosphocholine; MALDI-QITTOF; MS; POSITIVE
Name: Lyso-PC 18:1(9Z)
Name: 1-(9Z-Octadecenoyl)-sn-glycero-3-phosphocholine
Class: Natural product; Phospholipid
Formula: C26H52NO7P
Exact mass: 521.3481
SMILES: CCCCCCCC/C=C\CCCCCCCC(=O)OC[C@H](COP(=O)([O-])OCC[N+](C)(C)C)O
InChI: InChI=1S/C26H52NO7P/c1-5-6-7-8-9-10-11-12-13-14-15-16-17-18-19-20-26(29)32-23-25(28)24-34-35(30,31)33-22-21-27(2,3)4/h12-13,25,28H,5-11,14-24H2,1-4H3/b13-12-/t25-/m1/s1
Instrument: MALDI-QITTOF noncommercial prototype model (Shimadzu Corporation, Kyoto, Japan)
Instrument type: MALDI-QITTOF
Ms type: MS
Ion mode: POSITIVE
Ionization: MALDI
m/z	relative intensity
502.329	19
503.353	37
504.345	41
518.223	7
520.33	54
521.355	260
521.587	9
521.957	7
522.355	999
522.627	42
522.802	42
522.974	38
523.236	52
526.138	7
