Mass spectrum: (2S,3S)-(-)-2,3-Epoxy-1-octanol; GC-FI-TOF; MS; positive; FI; 10 kV
Name: (2S,3S)-(-)-2,3-Epoxy-1-octanol
Class: Non-natural compound
Formula: C8H16O2
Exact mass: 144.11503
SMILES: OC[C@@H]1O[C@H]1CCCCC
InChI: InChI=1S/C8H16O2/c1-2-3-4-5-7-8(6-9)10-7/h7-9H,2-6H2,1H3/t7-,8-/m0/s1
Instrument: JMS-T100GCV (JEOL, Akishima, Japan) coupled to Agilent 7890A (Agilent, Wilmington, USA) gas chromatograph.
Instrument type: GC-FI-TOF
Ms type: MS
Ion mode: POSITIVE
Ionization: FI
Column name: HP-5 19091 J-413 USD364547H (Agilent, Wilmington, USA), length 30.0 m, I.D. 0.32 mm, thickness 0.25 micrometer.
Retention time: 6.38 min.
m/z	relative intensity
29.04	118
101.096	64
109.101	68
113.096	174
127.113	194
145.123	999
146.127	103
