Mass spectrum: Tyramine; LC-ESI-QQ; MS2; POSITIVE; [M+H]+; CID; 30 V
Name: Tyramine
Class: Non-natural product; Tyramine
Formula: C8H11NO
Exact mass: 137.08406
SMILES: C1=CC(=CC=C1CCN)O
InChI: InChI=1S/C8H11NO/c9-6-5-7-1-3-8(10)4-2-7/h1-4,10H,5-6,9H2
Instrument: Xevo TQS micro (Waters, MA, USA) coupled to ACQUITY UPLC H-Class (Waters, MA, USA)
Instrument type: LC-ESI-QQ
Ms type: MS2
Ion mode: POSITIVE
Collision energy: 30 V
Fragmentation mode: CID
Ionization: ESI
Column name: Acquity UPLC BEH AMIDE column (1.7 Âµm, 2.1 x 150 mm; Waters, MA, USA)
Precursor m/z: 138.091337
Precursor type: [M+H]+
m/z	relative intensity
38.7	14
39.1	13
40.6	8
40.9	10
41.3	6
50.9	79
51.2	25
51.3	13
53.0	6
55.0	6
64.5	10
64.8	16
65.0	44
65.3	17
77.0	999
77.9	13
78.1	6
90.8	97
91.1	37
91.3	70
92.9	10
93.2	14
93.7	13
93.9	7
94.2	18
102.0	5
102.3	6
102.6	16
102.8	38
103.1	44
103.2	24
103.4	10
120.9	9
121.3	8
