Mass spectrum: Tyramine; ESI-QQ; MS; POSITIVE
Name: Tyramine
Class: Non-natural product; Tyramine
Formula: C8H11NO
Exact mass: 137.08406
SMILES: C1=CC(=CC=C1CCN)O
InChI: InChI=1S/C8H11NO/c9-6-5-7-1-3-8(10)4-2-7/h1-4,10H,5-6,9H2
Instrument: Xevo TQS micro (Waters, MA, USA)
Instrument type: ESI-QQ
Ms type: MS
Ion mode: POSITIVE
Ionization: ESI
m/z	relative intensity
73.9	20
74.2	14
81.5	43
82.4	6
82.8	9
89.6	38
90.4	12
90.9	40
92.9	6
94.1	61
94.8	6
95.2	6
97.5	59
102	44
102.2	37
103	41
105.4	8
105.6	10
109	7
110	15
110.2	18
110.9	6
111.1	7
121.1	999
122.1	100
122.9	6
123.2	11
134.1	7
135.1	18
138.1	57
139.2	8
142.1	11
144.1	15
149.1	7
151.1	23
153.1	8
156.1	50
157.2	7
158.1	18
167.1	41
173.2	6
174.2	9
181.1	11
183	34
185.1	12
190	6
195.1	8
202.2	8
207.2	8
