Mass spectrum: delta-BHC; GC-EI-Q; MS; Positive
Name: delta-BHC
Name: (1a,2a,3a,4b,5a,6b)-1,2,3,4,5,6-Hexachlorocyclohexane
Class: Non-Natural Product; Pesticides
Formula: C6H6Cl6
Exact mass: 287.86007
SMILES: Cl[C@H]1[C@H](Cl)[C@@H](Cl)[C@H](Cl)[C@H](Cl)[C@@H]1Cl
InChI: InChI=1S/C6H6Cl6/c7-1-2(8)4(10)6(12)5(11)3(1)9/h1-6H/t1-,2-,3-,4+,5-,6-
Instrument: GCMS-QP2010 Plus, Shimadzu
Instrument type: GC-EI-Q
Ms type: MS
Ion mode: POSITIVE
Ionization: EI
Column name: Ptx-5MS(RESTEK), 0.32 mm I.D. x 30 m, df=0.25 microm
Retention time: 8.62 min
Ion type: [M]+*
Precursor m/z: 287.86
m/z	relative intensity
40	8
43	13
47	18
48	13
49	108
50	270
51	453
52	84
53	10
54	10
55	35
56	62
57	21
60	23
61	113
62	47
63	74
64	8
65	12
71	5
72	23
73	247
74	165
75	356
76	52
77	586
78	395
79	25
83	274
84	34
85	333
86	50
87	217
88	23
89	43
90	13
91	9
92	6
95	21
96	96
97	33
98	68
99	80
100	27
101	29
102	7
107	17
108	10
109	354
110	53
111	988
112	354
113	349
114	101
115	40
117	8
119	21
120	7
121	183
122	151
123	105
124	90
125	20
126	16
131	17
133	71
134	44
135	81
136	23
137	27
138	5
143	94
144	13
145	307
146	258
147	590
148	208
149	308
150	55
151	44
152	5
155	10
156	132
157	66
158	122
159	59
160	39
161	12
168	8
169	27
170	5
171	21
173	5
180	20
181	999
182	94
183	988
184	92
185	322
186	33
187	39
216	158
217	711
218	276
219	903
220	177
221	440
222	54
223	101
224	10
252	53
254	88
256	28
258	16
