Mass spectrum: Eburicoic acid; ESI-QTOF; MS2; POSITIVE; [M+H]+; CID; 40 V
Name: Eburicoic acid
Class: Non-natural product; Triterpenoid
Formula: C31H50O3
Exact mass: 470.37600
SMILES: CC(C)C(=C)CC[C@H]([C@H]1CC[C@@]2([C@@]1(CCC3=C2CC[C@@H]4[C@@]3(CC[C@@H](C4(C)C)O)C)C)C)C(=O)O
InChI: InChI=1S/C31H50O3/c1-19(2)20(3)9-10-21(27(33)34)22-13-17-31(8)24-11-12-25-28(4,5)26(32)15-16-29(25,6)23(24)14-18-30(22,31)7/h19,21-22,25-26,32H,3,9-18H2,1-2,4-8H3,(H,33,34)/t21-,22-,25+,26+,29-,30-,31+/m1/s1
Instrument: X500R QTOF (AB Sciex LLC, USA)
Instrument type: ESI-QTOF
Ms type: MS2
Ion mode: POSITIVE
Collision energy: 40 V
Fragmentation mode: CID
Ionization: ESI
Precursor m/z: 471.38327
Precursor type: [M+H]+
m/z	relative intensity
55.0556	33
57.0712	20
67.0557	27
69.0714	50
71.0871	11
79.0558	15
81.0715	72
83.0871	58
91.0559	18
93.0715	48
95.0872	145
97.1029	71
105.0716	42
107.0872	102
109.1029	203
111.1185	16
119.0872	170
121.1029	180
123.1186	120
131.0873	42
133.1029	120
135.1186	105
137.0979	14
137.1343	35
143.0874	19
145.1031	88
147.1186	98
149.1343	59
151.15	15
157.1031	46
159.1187	156
161.1343	109
163.15	46
171.1188	76
173.1344	333
174.1421	19
175.15	98
177.1658	36
185.1345	94
186.1423	70
187.1501	196
189.1658	55
191.1814	19
199.1502	91
201.1658	76
203.1815	30
207.1765	21
211.1502	27
213.166	84
214.1737	68
215.1816	154
225.1658	34
227.1816	133
229.1971	999
239.1816	39
241.1972	249
247.2078	118
253.1974	28
255.2129	88
259.2079	47
273.2236	48
295.2442	211
297.2599	64
313.2547	159
331.2652	33
407.369	69
453.3744	93
