Mass spectrum: Polyporenic acid C; ESI-QTOF; MS2; POSITIVE; [M+H]+; CID; 60 V
Name: Polyporenic acid C
Class: Non-natural product; Lanosterol analogue
Formula: C31H46O4
Exact mass: 482.33961
SMILES: CC(C)C(=C)CC[C@H]([C@H]1[C@@H](C[C@@]2([C@@]1(CC=C3C2=CC[C@@H]4[C@@]3(CCC(=O)C4(C)C)C)C)C)O)C(=O)O
InChI: InChI=1S/C31H46O4/c1-18(2)19(3)9-10-20(27(34)35)26-23(32)17-31(8)22-11-12-24-28(4,5)25(33)14-15-29(24,6)21(22)13-16-30(26,31)7/h11,13,18,20,23-24,26,32H,3,9-10,12,14-17H2,1-2,4-8H3,(H,34,35)/t20-,23-,24+,26+,29-,30-,31+/m1/s1
Instrument: X500R QTOF (AB Sciex LLC, USA)
Instrument type: ESI-QTOF
Ms type: MS2
Ion mode: POSITIVE
Collision energy: 60 V
Fragmentation mode: CID
Ionization: ESI
Precursor m/z: 483.34689
Precursor type: [M+H]+
m/z	relative intensity
43.0189	18
43.0553	27
53.0398	9
55.0191	10
55.0554	273
57.0711	46
59.0504	10
65.04	17
67.0556	160
69.0349	10
69.0712	184
71.0506	15
71.0869	18
77.04	62
79.0557	125
81.0714	177
83.0506	27
83.087	66
91.0557	182
93.0714	231
95.0507	20
95.0871	276
97.0663	76
97.1026	76
99.082	15
103.0559	13
105.0714	259
107.0871	259
109.0663	28
109.1026	144
111.0819	34
115.0557	26
117.0714	80
119.087	327
121.0663	17
121.1027	174
123.0819	295
123.1183	43
125.0976	35
128.0636	60
129.0714	105
130.0792	32
131.087	238
133.1027	201
135.082	25
135.1184	54
137.0977	37
141.0715	76
142.0793	153
143.087	326
144.0948	50
145.1026	587
147.0819	23
147.1183	102
149.0977	21
151.1134	19
153.0714	31
154.0794	30
155.087	224
156.0949	137
157.1027	646
158.1105	65
159.0821	32
159.1183	400
161.0976	27
161.134	43
163.1132	18
165.0714	41
166.0794	22
167.0871	88
168.0949	70
169.1027	386
170.1105	91
171.0821	23
171.1183	414
172.1263	67
173.0978	33
173.134	266
175.1133	24
175.1497	18
179.0872	75
180.0949	49
181.1027	197
182.1105	101
183.1184	633
184.1262	93
185.0977	39
185.134	293
186.1419	74
187.1135	47
187.1497	101
189.129	24
193.1029	179
194.1107	84
195.1185	349
196.1263	174
197.0979	31
197.1341	402
198.1419	24
199.1135	53
199.1497	96
201.129	265
206.1107	38
207.1185	114
208.1263	504
209.1341	408
210.1419	99
211.1136	45
211.1497	236
213.129	71
213.1655	48
215.1449	48
219.1185	32
220.1263	38
221.1342	116
222.142	36
223.1498	999
224.1576	40
225.1291	53
225.1655	323
227.1449	57
233.1344	49
234.1421	30
235.1499	89
236.1578	26
237.1655	85
238.1729	35
239.1447	97
239.1812	54
241.1604	33
247.15	37
249.1655	86
251.1448	62
251.1811	82
253.1605	96
253.1968	65
255.1761	24
261.1655	46
263.1812	31
265.1967	29
267.1761	100
267.2124	50
276.1889	30
279.1759	125
281.1916	101
291.2122	42
294.1994	364
295.2074	156
309.2228	469
