Mass spectrum: beta-Zeacarotene; LC-ESI-QTOF; MS2; POSITIVE; ESI; [M]+; COLLISION_ENERGY 20 eV.
Name: beta-Zeacarotene
Name: 7',8'-Dihydro-beta,psi-carotene
Class: Natural product; carotenoids, carotene
Formula: C40H58
Exact mass: 538.45385
SMILES: CC1=C(C(CCC1)(C)C)/C=C/C(=C/C=C/C(=C/C=C/C=C(\C)/C=C/C=C(\C)/CC/C=C(\C)/CCC=C(C)C)/C)/C
InChI: InChI=1S/C40H58/c1-32(2)18-13-21-35(5)24-15-26-36(6)25-14-22-33(3)19-11-12-20-34(4)23-16-27-37(7)29-30-39-38(8)28-17-31-40(39,9)10/h11-12,14,16,18-20,22-25,27,29-30H,13,15,17,21,26,28,31H2,1-10H3/b12-11+,22-14+,23-16+,30-29+,33-19+,34-20+,35-24+,36-25+,37-27+
Instrument: Xevo G2-S QtOF, Waters (USA) coupled to ACQUITY UPLC, Waters (USA).
Instrument type: LC-ESI-QTOF
Ms type: MS2
Ion mode: POSITIVE
Collision energy: 20 V
Ionization: ESI
Column name: BEH C18, I.D. 2.1 mm, length 100 mm, thickness 1.7 micrometer.
Ion type: [M]+
Precursor m/z: 538.45330
m/z	relative intensity
81.070	125
83.086	68
93.069	106
95.085	261
105.070	163
107.086	182
109.101	140
111.117	57
119.086	644
120.090	92
121.101	403
123.117	179
131.087	51
133.101	400
134.104	53
135.117	141
137.133	183
143.085	109
145.101	248
147.116	284
149.132	80
157.101	377
158.106	66
159.117	277
161.132	223
163.148	70
169.102	123
171.117	244
173.134	201
175.148	141
177.164	654
178.167	67
183.117	182
184.122	56
185.133	287
187.149	179
188.153	57
189.164	243
195.117	66
197.133	228
199.148	305
200.151	68
200.952	93
201.163	87
203.180	274
207.119	51
209.133	222
210.137	64
211.148	296
212.151	61
213.163	154
214.168	61
215.179	66
221.132	109
223.147	90
225.163	138
227.178	138
229.193	74
237.163	80
239.180	106
240.185	52
241.194	112
243.211	241
244.216	104
251.180	63
253.197	94
254.201	54
255.210	112
263.180	50
265.196	93
267.212	201
269.227	102
277.196	75
279.210	60
281.224	58
283.242	76
293.228	62
295.241	84
309.257	999
310.260	227
321.256	63
333.257	59
335.273	75
401.319	520
402.324	181
444.372	84
446.390	136
537.337	140
537.444	120
538.453	424
539.457	231
540.459	59
541.214	8
