Mass spectrum: (2R,3S)-(+)-2,3-epoxyoctanal; GC-EI-TOF; MS; POSITIVE; EI; 70 V
Name: (2R,3S)-(+)-2,3-epoxyoctanal
Class: Non-natural compound
Formula: C8H14O2
Exact mass: 142.09938
SMILES: CCCCC[C@@H]1O[C@H]1C=O
InChI: InChI=1S/C8H14O2/c1-2-3-4-5-7-8(6-9)10-7/h6-8H,2-5H2,1H3/t7-,8-/m0/s1
Instrument: JMS-T100GCV (JEOL, Akishima, Japan) coupled to Agilent 7890A gas chromatograph.
Instrument type: GC-EI-TOF
Ms type: MS
Ion mode: POSITIVE
Ionization: EI
Column name: HP-5 19091J-413 USD364547H (Agilent), length 30.0 m, I.D. 0.32 mm, thickness 0.25 micrometer.
Retention time: 5.6 min.
m/z	relative intensity
26.016	17
27.024	261
27.066	3
27.096	1
27.995	4
28.031	48
29.003	134
29.039	245
29.081	3
30.01	8
30.043	5
31.019	36
38.016	7
39.024	186
39.074	2
40.031	23
41.003	5
41.039	418
41.064	3
41.091	4
41.326	1
42.011	30
42.046	46
43.019	46
43.055	182
43.109	2
43.148	1
44.026	10
44.058	6
45.034	10
50.016	5
51.024	11
52.031	5
53.039	42
54.046	8
55.019	24
55.055	157
55.113	2
55.16	1
56.026	4
56.062	32
57.034	126
57.07	18
58.005	2
58.04	8
59.013	9
59.049	2
60.021	21
65.04	5
67.055	34
68.026	2
68.062	4
68.998	5
69.034	13
69.07	68
70.041	5
70.075	5
71.013	999
71.049	25
71.428	3
71.722	2
72.017	32
72.056	3
72.339	1
73.021	5
77.039	3
79.055	4
81.07	5
82.078	3
83.05	4
83.086	9
85.029	2
86.037	5
93.07	5
95.086	34
96.09	2
99.044	4
141.091	4
