Mass spectrum: Citric acid-[5-13C]; GC-EI-QQ; MS2; POSITIVE; CID 10 V; 4 TBDMS-derivative; [M-189]+
Name: Citric acid-[5-13C]
Class: In vitro synthetic compound
Formula: C6H8O7
Exact mass: 192.02701
SMILES: OC(=O)CC(O)(CC(O)=O)C(O)=O
InChI: InChI=1S/C6H8O7/c7-3(8)1-6(13,5(11)12)2-4(9)10/h13H,1-2H2,(H,7,8)(H,9,10)(H,11,12)/i3+1
Instrument: GCMS-TQ8040 (Shimadzu, Kyoto, Japan)
Instrument type: GC-EI-QQ
Ms type: MS2
Ion mode: POSITIVE
Collision energy: 10 V
Fragmentation mode: CID
Column name: DB-5MS+DG (Agilent Technologies, Santa Clara, CA, USA)
Derivative form: C30H64O7Si4
Derivative mass: 648.372913
Derivative type: 4 TBDMS
Precursor m/z: 460.20825
m/z	relative intensity	assigned
67.05	19	
68.05	30	
73.1	779	
74.1	11	
115.1	326	
147.15	999	
148.15	33	
149.15	12	
189.2	111	
254.15	264	
283.35	10	
300.25	20	C12(13C)H23O4Si2+
328.3	70	
329.95	11	
387.3	58	
388.25	45	
460.2	148	
