Mass spectrum: Pentoxazone; ESI-QTOF; MS2; POSITIVE; [M+H]+; CID; 30 V
Name: Pentoxazone
Class: Non-natural product
Formula: C17H17ClFNO4
Exact mass: 353.0830
SMILES: CC(=C1C(=O)N(C(=O)O1)c2cc(c(cc2F)Cl)OC3CCCC3)C
InChI: InChI=1S/C17H17ClFNO4/c1-9(2)15-16(21)20(17(22)24-15)13-8-14(11(18)7-12(13)19)23-10-5-3-4-6-10/h7-8,10H,3-6H2,1-2H3
Instrument: X500R QTOF (AB Sciex LLC, USA)
Instrument type: ESI-QTOF
Ms type: MS2
Ion mode: POSITIVE
Collision energy: 30 V
Fragmentation mode: CID
Ionization: ESI
Precursor m/z: 354.0903
Precursor type: [M+H]+
m/z	relative intensity
43.0177	24
55.0541	52
69.0698	51
70.0412	34
71.0486	42
96.0443	18
99.0439	49
159.996	67
164.0505	34
165.0583	34
178.0664	119
179.074	88
186.0116	502
187.9909	150
192.0454	39
194.0367	38
200.0272	83
206.0611	55
207.069	154
242.0378	69
286.0276	999
