Mass spectrum: 1-(9Z-Octadecenoyl)-sn-glycero-3-phosphocholine; MALDI-QITTOF; MS2; POSITIVE; [M+H]+; Low-energy CID
Name: Lyso-PC 18:1(9Z)
Name: 1-(9Z-Octadecenoyl)-sn-glycero-3-phosphocholine
Class: Natural product; Phospholipid
Formula: C26H52NO7P
Exact mass: 521.3481
SMILES: CCCCCCCC/C=C\CCCCCCCC(=O)OC[C@H](COP(=O)([O-])OCC[N+](C)(C)C)O
InChI: InChI=1S/C26H52NO7P/c1-5-6-7-8-9-10-11-12-13-14-15-16-17-18-19-20-26(29)32-23-25(28)24-34-35(30,31)33-22-21-27(2,3)4/h12-13,25,28H,5-11,14-24H2,1-4H3/b13-12-/t25-/m1/s1
Instrument: MALDI-QITTOF noncommercial prototype model (Shimadzu Corporation, Kyoto, Japan)
Instrument type: MALDI-QITTOF
Ms type: MS2
Ion mode: POSITIVE
Fragmentation mode: CID
Ionization: MALDI
Ion type: [M+H]+
Precursor m/z: 522.3554
m/z	relative intensity
163.013	2
166.055	3
181.017	1
183.855	1
184.073	999
184.399	31
184.614	10
184.757	8
185.069	80
185.255	6
185.514	2
185.746	1
186.073	10
186.207	1
198.081	13
199.082	1
240.096	1
258.107	13
259.112	1
265.246	1
309.275	1
310.284	1
328.14	2
335.173	1
337.177	2
338.201	1
339.287	13
340.291	2
345.172	1
445.273	25
445.832	1
446.275	9
447.278	2
457.182	1
461.168	1
489.622	1
502.344	1
503.365	3
504.349	604
504.891	19
505.352	171
505.899	10
506.35	29
506.618	1
506.828	2
507.081	1
507.344	3
522.355	19
522.605	1
522.822	1
523.355	6
523.846	1
523.955	1
524.376	1
536.384	3
537.384	2
538.383	1
544.348	12
545.356	3
546.357	1
