Mass spectrum: 3-Nitrobenzyl alcohol; FAB-BE; MS; Negative; Matrix 3-Nitrobenzyl alcohol
Name: 3-Nitrobenzyl alcohol
Class: Non-Natural Product
Formula: C7H7NO3
Exact mass: 153.04259
SMILES: OCc(c1)cc(cc1)[N+1]([O-1])=O
InChI: InChI=1S/C7H7NO3/c9-5-6-2-1-3-7(4-6)8(10)11/h1-4,9H,5H2
Instrument: JMS-700, JEOL
Instrument type: FAB-BE
Ms type: MS
Ion mode: NEGATIVE
Ionization: FAB
m/z	relative intensity
16	8
24	4
25	19
26	27
41	6
42	27
45	5
46	445
48	7
49	20
50	5
53	6
61	6
62	6
63	9
64	5
65	8
66	5
73	16
74	6
75	7
76	5
88	6
89	5
90	6
91	12
92	33
93	12
97	6
104	5
105	18
106	28
107	11
108	13
109	6
110	5
111	4
118	7
119	5
120	15
121	48
122	220
123	41
124	11
134	13
135	33
136	80
137	71
138	87
139	13
140	14
147	4
148	6
149	4
150	57
151	451
152	700
153	999
154	177
155	16
164	17
165	12
166	83
167	24
168	234
169	50
170	13
178	6
179	31
180	5
181	7
182	7
185	5
195	23
196	4
198	15
199	426
200	39
201	10
215	5
272	4
273	5
274	5
275	5
276	7
287	5
288	5
289	13
290	20
291	5
292	4
303	8
304	73
305	468
306	442
307	94
308	16
319	7
320	6
321	12
322	9
348	4
352	51
353	11
457	10
458	66
459	72
460	21
461	7
505	6
611	8
612	10
613	6
