Mass spectrum: 2-Aminoisobutyric acid; GC-EI-TOF; MS; POSITIVE; EI; 70 V; 2TBDMS
Name: 2-Aminoisobutyric acid
Class: Non-natural compound
Formula: C4H9NO2
Exact mass: 103.0633285
SMILES: CC(C)(N)C(=O)O
InChI: InChI=1S/C4H9NO2/c1-4(2,5)3(6)7/h5H2,1-2H3,(H,6,7)
Instrument: JMS-T100GCV (JEOL, Akishima, Japan) coupled to Agilent 7890A (Santa Clara, CA, USA) gas chromatograph.
Instrument type: GC-EI-TOF
Ms type: MS
Ion mode: POSITIVE
Ionization: EI
Column name: DB-5MS UI 122-5532UI US0462866H (Agilent, Wilmington, USA) with the length 30 m, I.D. 0.25 mm, and thickness 0.25 micrometer.
Retention time: 9.42 min.
Derivative form: C16H37NO2Si2
Derivative mass: 331.23628
Derivative type: 2TBDMS
m/z	relative intensity
29.039	24
31.0	5
39.024	5
41.039	42
42.035	12
43.001	19
43.999	6
44.98	5
45.016	40
46.014	4
46.996	7
55.055	3
56.063	7
57.016	4
57.071	51
58.024	25
58.066	36
59.032	90
59.07	3
60.029	10
61.012	4
66.022	3
68.05	3
69.034	4
70.042	4
71.031	2
72.04	7
73.047	812
73.429	2
73.47	2
73.761	1
74.047	73
75.027	66
76.026	6
77.024	3
84.027	6
85.047	8
86.045	3
94.55	7
97.048	2
98.043	5
99.062	9
100.059	41
100.532	3
101.037	13
101.537	3
102.049	2
103.021	32
104.023	3
105.019	2
108.548	6
114.074	61
114.161	1
115.004	4
115.084	37
116.088	9
117.019	17
117.086	2
118.017	5
119.033	3
126.038	2
128.053	5
129.038	5
130.048	2
131.035	10
132.031	25
132.085	2
133.051	60
134.051	9
135.048	4
142.069	27
143.073	8
144.057	6
145.068	14
146.074	3
147.066	167
147.241	1
148.067	27
149.062	13
150.062	2
156.121	7
159.073	2
160.067	4
172.152	999
172.621	2
172.802	3
173.154	146
173.798	2
174.078	22
174.151	39
174.728	1
175.079	4
175.154	4
176.075	2
188.092	3
189.11	4
202.073	5
216.089	5
217.101	3
230.14	3
246.171	243
247.173	53
248.169	20
249.17	3
274.166	206
275.168	47
276.165	18
277.166	3
288.218	10
289.221	2
316.213	17
317.215	5
318.211	2
