Mass spectrum: alpha-Ketoglutaric acid-[1,2,3,4-13C4]; GC-EI-Q; MS; positive; MEOX,2TBDMS-derivative
Name: alpha-Ketoglutaric acid-[1,2,3,4-13C4]
Class: In vitro synthetic compound
Formula: C5H6O5
Exact mass: 146.02152
SMILES: C(CC(=O)O)C(=O)C(=O)O
InChI: InChI=1S/C5H6O5/c6-3(5(9)10)1-2-4(7)8/h1-2H2,(H,7,8)(H,9,10)/i1+1,2+1,3+1,5+1
Instrument: GCMS-QP2010 Ultra (Shimadzu, Kyoto, Japan)
Instrument type: GC-EI-Q
Ms type: MS
Ion mode: POSITIVE
Column name: DB-5MS+DG (Agilent Technologies, Santa Clara, CA, USA)
Derivative form: C18H37NO5Si2
Derivative mass: 403.22102
Derivative type: MEOX, 2 TBDMS
m/z	relative intensity	assigned
56.05	22	
57.05	284	
58.05	70	
59.05	137	
60	18	
61	19	
72.15	10	
73.05	999	
74.05	107	
75.05	393	
76.05	28	
77.05	15	
85.05	53	
87.05	11	
89.05	144	
90.05	13	
91.05	11	
99.1	38	
100.05	10	
115.1	113	
116.1	16	
117.1	15	
131.1	31	
132.1	17	
133.1	64	
134.1	10	
146.15	16	
147.15	391	
148.15	62	
149.1	73	
159.1	187	C3(13C3)H10NO2Si+
160.1	111	
161.1	20	
189.1	19	
190.05	104	C3(13C4)H12NO3Si+
191.05	11	
233.1	15	
262.05	53	
350.15	549	
351.15	116	
352.15	57	
392.2	14	
