Mass spectrum: Methyl [(1S)-1,2-Dimethyl-3-methylenecyclopentyl]acetate; GC-EI-TOF; MS; positive; EI; 70 V
Name: Methyl [(1S)-1,2-Dimethyl-3-methylenecyclopentyl]acetate
Class: Non-natural product
Formula: C11H18O2
Exact mass: 182.13068
SMILES: COC(=O)C[C@]1(C)CCC(=C)C1C
InChI: InChI=1S/C11H18O2/c1-8-5-6-11(3,9(8)2)7-10(12)13-4/h9H,1,5-7H2,2-4H3/t9?,11-/m0/s1
Instrument: JMS-T100GCV (JEOL, Akishima, Japan) coupled to Agilent 7890A (Agilent, Wilmington, USA) gas chromatograph.
Instrument type: GC-EI-TOF
Ms type: MS
Ion mode: POSITIVE
Ionization: EI
Column name: HP-5 19091 J-413 USD364547H (Agilent, Wilmington, USA), length 30 m, I.D. 0.32 mm, thickness 0.25 micrometer.
Retention time: 7.16 min.
m/z	relative intensity
26.016	2
27.024	55
27.048	1
27.068	1
28.006	41
28.032	11
29.003	5
29.040	44
29.084	1
31.019	5
31.990	14
38.016	2
39.024	93
40.031	29
41.040	160
42.012	10
42.046	13
43.019	26
43.055	26
44.025	2
44.058	1
45.035	7
50.016	5
51.024	20
52.032	12
53.040	85
54.046	13
55.019	3
55.055	69
55.115	1
56.060	5
57.034	1
57.071	3
59.014	43
59.050	5
59.075	1
60.019	1
63.024	5
64.031	2
65.040	35
66.047	11
67.055	148
68.062	38
68.123	1
69.035	3
69.071	42
70.075	3
71.050	4
72.057	2
73.066	11
74.037	11
75.045	7
76.040	1
77.040	77
78.046	14
79.055	94
80.061	16
81.034	2
81.071	72
82.042	6
82.076	9
83.050	7
83.086	1
85.066	4
86.073	1
87.081	1
91.055	109
91.189	1
91.327	1
92.061	16
93.071	532
93.503	1
93.547	2
93.867	1
94.075	50
94.590	1
95.050	3
95.086	97
95.490	1
96.058	2
96.090	9
97.066	2
99.043	1
99.082	4
103.056	4
104.063	2
105.071	18
106.078	10
107.086	120
107.231	1
108.094	999
108.466	2
108.608	3
109.101	473
109.474	1
109.568	1
109.617	1
110.105	38
111.081	2
113.061	3
114.069	4
115.062	1
117.071	1
121.066	2
121.102	5
122.110	11
123.117	21
124.120	2
125.060	5
125.096	4
126.065	1
133.101	1
135.081	7
139.077	2
141.091	1
150.104	7
151.112	43
152.115	5
153.092	2
167.107	15
168.110	2
182.130	5
