Mass spectrum: Fumaric acid; GC-EI-Q; MS; POSITIVE; 2 TMS-derivative
Name: Fumaric acid
Class: Natural Product
Formula: C4H4O4
Exact mass: 116.01096
SMILES: O=C(O)/C=C/C(=O)O
InChI: InChI=1S/C4H4O4/c5-3(6)1-2-4(7)8/h1-2H,(H,5,6)(H,7,8)/b2-1+
Instrument: GCMS-QP2010 Ultra (Shimadzu, Kyoto, Japan)
Instrument type: GC-EI-Q
Ms type: MS
Ion mode: POSITIVE
Column name: DB-5MS+DG (Agilent Technologies, Santa Clara, CA, USA)
Derivative form: C10H20O4Si2
Derivative mass: 260.09001
Derivative type: 2 TMS
m/z	relative intensity	assigned
51	10	
53.05	81	
54.05	38	
55.05	34	
57.05	16	
58.05	73	
59.05	67	
60	17	
61	63	
66.05	19	
66.95	10	
68.05	23	
69.05	35	
70.05	10	
71.05	12	
72.15	35	
73.05	999	
74.05	104	
75.05	492	
76.05	36	
77	19	
82	17	
83	141	
84	65	
85	26	
98.05	17	
99.05	14	
113	19	
115.05	82	C4H7O2Si+
115.95	12	
117	18	
126.05	15	
127	30	
128.05	15	
131.05	16	
133.05	100	
134	15	
135.05	11	
143.1	205	C6H11O2Si+
144.1	24	
145.1	10	
147.1	513	
148.1	78	
149.1	70	
155	44	
157.05	28	
171	10	
217	22	
244.05	12	
245	841	
246.05	174	
247.05	79	
248.05	11	
