Mass spectrum: Chlorpyrifos; ESI-ITFT; MS; Positive
Name: Chlorpyrifos
Class: Non-Natural Product; Agrochemicals
Formula: C9H11Cl3NO3PS
Exact mass: 348.92628
SMILES: CCOP(=S)(OCC)OC1=NC(=C(C=C1Cl)Cl)Cl
InChI: InChI=1S/C9H11Cl3NO3PS/c1-3-14-17(18,15-4-2)16-9-7(11)5-6(10)8(12)13-9/h5H,3-4H2,1-2H3
Instrument: LTQ Orbitap Velos (Thermofisher Scientific)
Instrument type: ESI-ITFT
Ms type: MS
Ion mode: POSITIVE
Ionization: ESI
m/z	relative intensity
349.93369	999
350.93724	82
351.93064	959
352.93415	79
353.92753	300
354.93108	24
355.92439	34
356.92782	1
