Mass spectrum: Tolylbiguanide; ESI-QTOF; MS2; ESI; POSITIVE; CE 40 V
Name: Tolylbiguanide
Class: Non-natural product
Formula: C9H13N5
Exact mass: 191.11708
SMILES: Cc1ccccc1NC(=N)NC(=N)N
InChI: InChI=1S/C9H13N5/c1-6-4-2-3-5-7(6)13-9(12)14-8(10)11/h2-5H,1H3,(H6,10,11,12,13,14)
Instrument: X500R QTOF (AB Sciex LLC, USA)
Instrument type: ESI-QTOF
Ms type: MS2
Ion mode: POSITIVE
Collision energy: 40 V
Ionization: ESI
Precursor m/z: 192.12435
Precursor type: [M+H]+
m/z	relative intensity
43.0293	587
60.0558	999
65.0394	60
79.0552	54
89.0396	55
91.0549	396
93.0583	64
106.0659	457
108.0818	76
116.0503	363
133.077	185
