Mass spectrum: Tralkoxydim; LC-ESI-QTOF; MS2; ESI; POSITIVE; CE 30 V
Name: Tralkoxydim
Class: Non-natural product
Formula: C20H27NO3
Exact mass: 329.19909
SMILES: CCON=C(CC)C1=C(O)CC(c2c(C)cc(C)cc2C)CC1=O
InChI: InChI=1S/C20H27NO3/c1-6-16(21-24-7-2)20-17(22)10-15(11-18(20)23)19-13(4)8-12(3)9-14(19)5/h8-9,15,22H,6-7,10-11H2,1-5H3
Instrument: ExionLC AD, AB Sciex LLC, USA; X500R QTOF, AB Sciex LLC, USA.
Instrument type: LC-ESI-QTOF
Ms type: MS2
Ion mode: POSITIVE
Collision energy: 30 V
Ionization: ESI
Column name: AQ-C18HP 3 microm, 2.1 mm Ã— 150 mm, GL Science (Tokyo Japan)
Retention time: 11.25, 11.54 min
Precursor m/z: 330.20637
Precursor type: [M+H]+
m/z	relative intensity
72.0447	95
82.0656	54
96.0444	481
98.0602	310
110.0603	131
122.0603	205
133.1015	104
136.0759	91
138.0544	999
140.0708	111
152.0707	147
164.0708	121
267.1622	100
284.1646	126
