Mass spectrum: Ditolylguanidine; ESI-QTOF; MS2; ESI; NEGATIVE; CE 60 V
Name: Ditolylguanidine
Class: Non-natural product
Formula: C15H17N3
Exact mass: 239.14224
SMILES: Cc1ccccc1NC(=N)Nc1ccccc1C
InChI: InChI=1S/C15H17N3/c1-11-7-3-5-9-13(11)17-15(16)18-14-10-6-4-8-12(14)2/h3-10H,1-2H3,(H3,16,17,18)
Instrument: X500R QTOF (AB Sciex LLC, USA)
Instrument type: ESI-QTOF
Ms type: MS2
Ion mode: NEGATIVE
Collision energy: 60 V
Ionization: ESI
Precursor m/z: 238.13496
Precursor type: [M-H]-
m/z	relative intensity
40.0059	123
41.0137	440
78.958	999
106.0651	214
131.0604	682
