Mass spectrum: Ditolylguanidine; ESI-QTOF; MS2; ESI; POSITIVE; [M+H]+; CE 10 V
Name: Ditolylguanidine
Class: Non-natural product
Formula: C15H17N3
Exact mass: 239.142248
SMILES: CC1=CC=CC=C1NC(=NC2=CC=CC=C2C)N
InChI: InChI=1S/C15H17N3/c1-11-7-3-5-9-13(11)17-15(16)18-14-10-6-4-8-12(14)2/h3-10H,1-2H3,(H3,16,17,18)
Instrument: X500R QTOF (AB Sciex LLC, USA)
Instrument type: ESI-QTOF
Ms type: MS2
Ion mode: POSITIVE
Collision energy: 10 V
Ionization: ESI
Precursor m/z: 240.14951
Precursor type: [M+H]+
m/z	relative intensity
240.1507	999
