Mass spectrum: L-Ornithine; ESI-QTOF; MS2; POSITIVE; [M+H]+; CID; 50 V
Name: L-Ornithine
Class: Non-proteinogenic L-alpha-amino acid
Formula: C5H12N2O2
Exact mass: 132.08987
SMILES: C(C[C@@H](C(=O)O)N)CN
InChI: InChI=1S/C5H12N2O2/c6-3-1-2-4(7)5(8)9/h4H,1-3,6-7H2,(H,8,9)/t4-/m0/s1
Instrument: X500R QTOF (AB Sciex LLC, USA)
Instrument type: ESI-QTOF
Ms type: MS2
Ion mode: POSITIVE
Collision energy: 50 V
Fragmentation mode: CID
Ionization: ESI
Precursor m/z: 133.09715
Precursor type: [M+H]+
m/z	relative intensity	assigned
30.0337	76	[CH5N-H]+
39.023	26	[C3H8-5H]+
41.0386	84	[C3H8-3H]+
42.0339	20	
43.0542	125	[C3H8-H]+
44.0496	11	
53.0388	22	[C4H10-5H]+
68.0497	61	
70.0645	999	[C4H11N-3H]+
