Mass spectrum: Malonyldaidzin; ESI-QTOF; MS2; NEGATIVE; [M-H]-; CID; 60 V
Name: Malonyldaidzin
Class: Glycosyloxyisoflavone
Formula: C24H22O12
Exact mass: 502.11113
SMILES: C1=CC(=CC=C1C2=COC3=C(C2=O)C=CC(=C3)O[C@H]4[C@@H]([C@H]([C@@H]([C@H](O4)COC(=O)CC(=O)O)O)O)O)O
InChI: InChI=1S/C24H22O12/c25-12-3-1-11(2-4-12)15-9-33-16-7-13(5-6-14(16)20(15)29)35-24-23(32)22(31)21(30)17(36-24)10-34-19(28)8-18(26)27/h1-7,9,17,21-25,30-32H,8,10H2,(H,26,27)/t17-,21-,22+,23-,24-/m1/s1
Instrument: X500R QTOF (AB Sciex LLC, USA)
Instrument type: ESI-QTOF
Ms type: MS2
Ion mode: NEGATIVE
Collision energy: 60 V
Fragmentation mode: CID
Ionization: ESI
Precursor m/z: 501.10385
Precursor type: [M-H]-
m/z	relative intensity	assigned
91.0191	13	[C6H6O-3H]-
132.0218	11	[C4H10O5-6H]-
133.0296	25	[C4H10O5-5H]-
135.0089	29	[C7H6O3-3H]-
169.0659	11	[C8H10O4-H]-
180.0581	16	[C6H12O6]-
181.0658	11	
195.0452	13	[C9H12O5-5H]-
196.053	24	[C9H12O5-4H]-
197.0608	28	[C9H12O5-3H]-
208.053	50	[C7H12O7]-
209.0607	65	[C14H12O2-3H]-
223.0401	38	[C14H12O3-5H]-
224.0477	94	[C14H12O3-4H]-
225.0554	50	
237.0557	20	[C15H10O3-H]-
252.0427	52	[C15H10O4-2H]-
253.0495	999	[C15H10O4-H]-
254.0536	126	
