Mass spectrum: Methyl [(1R)-1,2-dimethyl-3-oxocyclopentyl]acetate; GC-EI-TOF; MS; positive; EI; 70 V
Name: Methyl [(1R)-1,2-dimethyl-3-oxocyclopentyl]acetate
Class: Non-natural product
Formula: C10H16O3
Exact mass: 184.10994
SMILES: COC(=O)C[C@@]1(C)CCC(=O)C1C
InChI: InChI=1S/C10H16O3/c1-7-8(11)4-5-10(7,2)6-9(12)13-3/h7H,4-6H2,1-3H3/t7?,10-/m1/s1
Instrument: JMS-T100GCV (JEOL, Akishima, Japan) coupled to Agilent 7890A (Agilent, Wilmington, USA) gas chromatograph.
Instrument type: GC-EI-TOF
Ms type: MS
Ion mode: POSITIVE
Ionization: EI
Column name: HP-5 19091 J-413 USD364547H (Agilent, Wilmington, USA), length 30 m, I.D. 0.32 mm, thickness 0.25 micrometer.
Retention time: 7.78 min.
m/z	relative intensity
26.016	5
27.024	64
28.006	39
28.032	50
29.003	8
29.040	40
31.019	7
31.990	13
38.016	2
39.024	80
39.076	1
40.032	18
41.040	205
41.128	1
42.012	21
42.046	14
43.019	82
43.055	18
44.025	4
45.035	8
50.016	3
51.024	11
52.032	7
53.040	54
54.047	17
55.019	36
55.055	126
56.027	42
56.060	8
57.034	15
57.071	1
59.014	56
59.050	9
63.024	2
65.040	13
66.047	5
67.055	80
67.125	1
68.063	92
69.035	8
69.071	177
69.187	1
70.042	4
70.075	12
71.050	11
72.057	2
73.066	6
74.037	102
75.043	7
77.040	10
78.046	2
79.056	16
80.062	3
81.035	5
81.071	35
82.042	7
82.079	32
83.050	6
83.086	68
84.091	5
85.066	22
86.073	6
87.045	3
87.081	21
88.053	6
91.055	11
93.071	10
95.050	41
95.087	5
96.058	56
96.094	6
97.065	30
97.102	15
98.070	2
99.082	9
105.070	2
107.087	5
109.066	37
110.074	93
111.081	999
111.601	3
112.085	79
112.174	1
112.245	1
112.338	1
112.767	1
113.061	9
114.068	3
123.082	3
124.089	9
125.096	13
127.077	45
128.083	12
129.091	8
137.060	5
141.092	7
151.075	2
152.084	2
153.092	66
153.190	1
154.095	7
155.078	1
169.087	46
170.090	5
184.110	22
185.113	2
