Mass spectrum: 2-(4-Chlorophenyl)ethylamine; ESI-QQ; MS; POSITIVE
Name: 2-(4-Chlorophenyl)ethylamine
Class: Non-natural product; Phenethylamine
Formula: C8H10ClN
Exact mass: 155.05017
SMILES: C1=CC(=CC=C1CCN)Cl
InChI: InChI=1S/C8H10ClN/c9-8-3-1-7(2-4-8)5-6-10/h1-4H,5-6,10H2
Instrument: Xevo TQS micro (Waters, MA, USA)
Instrument type: ESI-QQ
Ms type: MS
Ion mode: POSITIVE
Ionization: ESI
m/z	relative intensity
74	16
74.2	18
81.5	39
81.8	11
89.4	8
89.7	8
90.5	23
93	5
94	22
95	5
97.5	61
98.3	5
102.1	79
103	61
103.2	32
103.9	7
104.2	10
105.3	16
105.7	6
109.2	6
109.9	12
110.1	16
111	8
118.2	6
123	5
123.2	5
126	11
135.1	47
139.1	999
140.1	90
141.1	328
142.1	31
144.1	23
156.1	688
157.1	81
158.1	247
159.1	18
159.4	6
167.1	41
171.1	5
180.1	104
181.1	18
182.1	42
183	17
183.2	13
184.1	5
185.1	16
191	9
197.3	7
199.1	10
