Mass spectrum: 2-(4-Nitrophenyl)ethylamine; LC-ESI-QQ; MS2; POSITIVE; [M+H]+; CID; 30 V
Name: 2-(4-Nitrophenyl)ethylamine
Class: Non-natural product; 4-Nitrophenethylamine
Formula: C8H10N2O2
Exact mass: 166.07422
SMILES: C1=CC(=CC=C1CCN)[N+](=O)[O-]
InChI: InChI=1S/C8H10N2O2/c9-6-5-7-1-3-8(4-2-7)10(11)12/h1-4H,5-6,9H2
Instrument: Xevo TQS micro (Waters, MA, USA) coupled to ACQUITY UPLC H-Class (Waters, MA, USA)
Instrument type: LC-ESI-QQ
Ms type: MS2
Ion mode: POSITIVE
Collision energy: 30 V
Fragmentation mode: CID
Ionization: ESI
Column name: Acquity UPLC BEH AMIDE column (1.7 Âµm, 2.1 x 150 mm; Waters, MA, USA)
Precursor m/z: 167.08150
Precursor type: [M+H]+
m/z	relative intensity
76.9	146
77.9	277
78.1	306
91.0	999
91.2	470
92.0	126
102.9	223
103.1	225
103.8	146
104.0	198
