Mass spectrum: Tyramine; LC-ESI-QQ; MS2; POSITIVE; [M+H-NH3]+; CID; 30 V
Name: Tyramine
Class: Non-natural product; Tyramine
Formula: C8H11NO
Exact mass: 137.08406
SMILES: C1=CC(=CC=C1CCN)O
InChI: InChI=1S/C8H11NO/c9-6-5-7-1-3-8(10)4-2-7/h1-4,10H,5-6,9H2
Instrument: Xevo TQS micro (Waters, MA, USA) coupled to ACQUITY UPLC H-Class (Waters, MA, USA)
Instrument type: LC-ESI-QQ
Ms type: MS2
Ion mode: POSITIVE
Collision energy: 30 V
Fragmentation mode: CID
Ionization: ESI
Column name: Acquity UPLC BEH AMIDE column (1.7 Âµm, 2.1 x 150 mm; Waters, MA, USA)
Precursor m/z: 121.06479
Precursor type: [M+H-NH3]+
m/z	relative intensity
38.8	125
39.2	47
40.8	41
41.2	19
50.9	229
51.1	159
52.9	33
54.9	13
55.2	6
64.7	53
65.0	132
65.8	16
66.1	12
66.3	8
75.2	7
77.0	999
77.9	8
78.1	9
78.4	7
90.9	85
91.2	55
92.9	11
93.2	6
93.7	18
93.9	16
94.1	34
101.9	9
102.4	6
102.7	12
102.9	23
103.2	13
103.4	9
