Mass spectrum: Okaramine C; ESI-QQ; MS2; POSITIVE; [M+H]+ CID; 30 eV
Name: Okaramine C
Class: Natural product; Indole alkaloid
Formula: C32H36N4O3
Exact mass: 524.27874
SMILES: CC(C)(C=C)C1=C(C2=CC=CC=C2N1)CC3C(=O)N4[C@H](C[C@@]5([C@H]4N(C6=CC=CC=C65)C(C)(C)C=C)O)C(=O)N3
InChI: InChI=1S/C32H36N4O3/c1-7-30(3,4)26-20(19-13-9-11-15-22(19)33-26)17-23-28(38)35-25(27(37)34-23)18-32(39)21-14-10-12-16-24(21)36(29(32)35)31(5,6)8-2/h7-16,23,25,29,33,39H,1-2,17-18H2,3-6H3,(H,34,37)/t23?,25-,29-,32-/m1/s1
Instrument: ACQUITY UPLC H-Class/Xevo TQD (Waters, Milford, USA)
Instrument type: ESI-QQ
Ms type: MS2
Ion mode: POSITIVE
Collision energy: 30 eV
Fragmentation mode: CID
Ionization: ESI
Precursor m/z: 525.2860
Precursor type: [M+H]+
m/z	relative intensity
129.0	30
130.5	732
132.5	60
144.4	101
154.6	5
156.5	37
158.2	39
160.7	34
170.1	38
170.6	25
171.7	22
196.6	66
198.6	999
202.7	45
209.7	32
211.3	49
214.6	96
226.5	82
227.7	21
238.9	53
242.2	4
243.7	22
254.4	9
255.3	32
256.8	47
258.6	65
259.8	40
266.8	45
268.4	28
270.7	54
276.0	6
287.3	6
296.1	39
308.5	23
309.6	20
310.4	91
316.6	27
323.0	8
326.6	73
340.5	5
343.6	21
346.0	15
347.6	17
353.5	24
371.6	49
373.7	28
382.5	8
383.6	109
384.4	49
389.6	33
401.7	37
439.9	69
451.4	23
457.8	29
469.3	43
507.6	29
