Mass spectrum: N-Methyl-L-alanine; GC-EI-TOF; MS; POSITIVE; EI; 70 V; 2TMS
Name: N-Methyl-L-alanine
Class: Non-natural compound
Formula: C4H9NO2
Exact mass: 103.0633285
SMILES: C[C@@H](C(=O)O)NC
InChI: InChI=1S/C4H9NO2/c1-3(5-2)4(6)7/h3,5H,1-2H3,(H,6,7)/t3-/m0/s1
Instrument: JMS-T100GCV (JEOL, Akishima, Japan) coupled to Agilent 7890A (Santa Clara, CA, USA) gas chromatograph.
Instrument type: GC-EI-TOF
Ms type: MS
Ion mode: POSITIVE
Ionization: EI
Column name: DB-5MS UI 122-5532UI US0462866H (Agilent, Wilmington, USA) with the length 30 m, I.D. 0.25 mm, and thickness 0.25 micrometer.
Retention time: 7.24 min.
Derivative form: C10H25NO2Si2
Derivative mass: 247.14238
Derivative type: 2TMS
m/z	relative intensity
28.006	3
28.985	3
31.001	3
42.035	6
43.001	14
44.008	9
44.98	4
45.016	54
46.017	3
46.995	3
47.013	2
55.001	2
55.043	2
56.05	30
57.016	4
57.056	2
58.024	7
58.066	8
59.032	38
59.067	1
60.032	3
61.011	3
66.022	6
70.021	2
71.032	2
72.039	6
73.048	393
73.43	1
73.47	1
73.757	1
74.049	32
75.027	20
76.029	2
77.023	1
86.044	4
86.535	4
87.041	1
88.058	2
94.551	2
99.542	4
100.058	10
101.037	4
102.073	1
103.013	1
108.548	3
114.074	13
115.015	1
115.079	2
116.056	2
117.02	3
119.034	2
129.098	2
130.105	999
130.514	2
130.669	3
131.036	7
131.107	118
131.496	1
132.035	1
132.103	37
132.187	1
132.268	1
132.316	1
133.05	10
133.106	3
134.051	1
135.047	1
142.069	3
144.049	2
147.066	88
147.239	1
148.067	14
149.064	7
158.065	3
175.061	7
176.064	1
204.124	37
205.125	7
206.122	3
218.139	1
232.119	5
233.12	1
247.139	1
