Mass spectrum: L-Arginine; ESI-QTOF; MS2; NEGATIVE; [M-H]-; CID; 20 V
Name: L-Arginine
Class: L-alpha-Amino acid
Formula: C6H14N4O2
Exact mass: 174.11166
SMILES: C(C[C@@H](C(=O)O)N)CN=C(N)N
InChI: InChI=1S/C6H14N4O2/c7-4(5(11)12)2-1-3-10-6(8)9/h4H,1-3,7H2,(H,11,12)(H4,8,9,10)/t4-/m0/s1
Instrument: X500R QTOF (AB Sciex LLC, USA)
Instrument type: ESI-QTOF
Ms type: MS2
Ion mode: NEGATIVE
Collision energy: 20 V
Fragmentation mode: CID
Ionization: ESI
Precursor m/z: 173.10438
Precursor type: [M-H]-
m/z	relative intensity	assigned
41.0138	88	[CH4N2-3H]-
58.0399	13	[CH5N3-H]-
131.081	999	[C5H12N2O2-H]-
