Mass spectrum: N-Methyl-beta-alanine; GC-EI-TOF; MS; POSITIVE; EI; 70 V; 2TMS
Name: N-Methyl-beta-alanine
Class: Non-natural compound
Formula: C4H9NO2
Exact mass: 103.0633285
SMILES: CNCCC(=O)O
InChI: InChI=1S/C4H9NO2/c1-5-3-2-4(6)7/h5H,2-3H2,1H3,(H,6,7)
Instrument: JMS-T100GCV (JEOL, Akishima, Japan) coupled to Agilent 7890A (Santa Clara, CA, USA) gas chromatograph.
Instrument type: GC-EI-TOF
Ms type: MS
Ion mode: POSITIVE
Ionization: EI
Column name: DB-5MS UI 122-5532UI US0462866H (Agilent, Wilmington, USA) with the length 30 m, I.D. 0.25 mm, and thickness 0.25 micrometer.
Retention time: 7.77 min.
Derivative form: C10H25NO2Si2
Derivative mass: 247.14238
Derivative type: 2TMS
m/z	relative intensity
28.007	2
28.985	4
31.001	4
42.035	22
43.001	20
43.041	2
44.009	13
44.051	7
44.98	6
45.016	62
45.058	1
46.017	4
46.996	6
55.019	6
55.997	2
56.05	3
57.017	5
58.024	10
58.996	2
59.032	45
60.033	3
61.012	5
66.022	7
70.024	2
71.031	3
72.039	16
73.048	511
73.47	1
73.758	1
74.049	43
75.028	42
76.028	3
77.024	3
80.535	2
84.045	7
85.046	1
86.043	13
87.05	4
87.543	54
87.585	1
87.615	1
88.05	12
88.542	4
89.047	1
99.027	12
100.059	12
101.007	3
101.064	3
102.074	17
103.003	2
103.079	3
105.019	1
108.548	3
114.074	12
115.004	2
115.081	4
116.03	7
116.09	999
116.476	2
116.623	3
117.022	7
117.092	111
117.382	1
117.8	1
118.024	1
118.088	38
119.035	4
119.09	2
129.038	2
130.106	6
131.036	16
131.107	1
132.036	3
133.051	12
134.052	2
147.066	182
148.067	29
149.064	15
150.065	2
158.065	1
174.095	6
189.077	7
190.108	89
191.109	17
192.106	7
204.102	6
205.104	2
217.108	2
230.104	3
232.119	67
233.12	14
234.118	6
246.135	2
247.142	5
248.142	1
