Mass spectrum: (R)-Octa-1,7-dien-4-ol; GC-EI-TOF; MS; positive; EI; 70 V
Name: (R)-Octa-1,7-dien-4-ol
Class: Non-natural compound
Formula: C8H14O
Exact mass: 126.10447
SMILES: C=CC[C@H](O)CCC=C
InChI: InChI=1S/C8H14O/c1-3-5-7-8(9)6-4-2/h3-4,8-9H,1-2,5-7H2/t8-/m0/s1
Instrument: JMS-T100GCV (JEOL, Akishima, Japan) coupled to Agilent 7890A (Agilent, Wilmington, USA) gas chromatograph.
Instrument type: GC-EI-TOF
Ms type: MS
Ion mode: POSITIVE
Ionization: EI
Column name: ZB-1MS 7HM-G011-11 sn:313446 (Agilent, Wilmington, USA), length 30 m, I.D. 0.32 mm, thickness 0.25 micrometer.
Retention time: 4.03 min.
m/z	relative intensity
26.016	12
27.023	194
28.006	20
28.031	35
29.003	57
29.039	322
29.081	3
30.043	7
31.018	80
31.99	13
38.016	15
39.024	374
39.074	4
40.03	41
41.039	999
41.091	10
41.324	3
42.011	24
42.045	76
43.018	357
43.055	143
44.026	47
44.058	6
45.034	11
50.016	10
51.023	25
52.031	12
53.039	66
54.047	53
55.018	54
55.055	306
55.112	3
56.026	26
56.062	57
57.034	83
57.07	276
58.04	5
58.074	12
65.039	34
66.046	14
67.055	710
68.058	39
69.034	28
70.042	9
71.05	54
77.039	13
78.046	5
79.055	21
80.062	11
82.078	6
83.05	51
84.057	47
85.065	522
85.195	3
86.069	28
91.055	7
93.07	20
