Mass spectrum: Glc4; ESI-QQ; MS2; Negative; [M-H]-; CID; CE: 40 eV
Name: Glc4
Name: Isomaltosylmaltose
Name: Glc(a1-6)Glc(a1-4)Glc(a1-4)Glc
Class: Non-natural product.
Formula: C24H42O21
Exact mass: 666.221865
SMILES: O[C@@H]1[C@@H](O)[C@H](O)[C@@H](CO)O[C@@H]1OC[C@H]1O[C@H](O[C@@H]2[C@@H](CO)O[C@H](O[C@@H]3[C@@H](CO)OC(O)[C@H](O)[C@H]3O)[C@H](O)[C@H]2O)[C@H](O)[C@@H](O)[C@@H]1O
InChI: InChI=1S/C24H42O21/c25-1-5-9(28)11(30)16(35)22(41-5)39-4-8-10(29)12(31)17(36)23(43-8)45-20-7(3-27)42-24(18(37)14(20)33)44-19-6(2-26)40-21(38)15(34)13(19)32/h5-38H,1-4H2/t5-,6-,7-,8-,9-,10-,11+,12+,13-,14-,15-,16-,17-,18-,19-,20-,21?,22+,23-,24-/m1/s1
Instrument: Triple Quad 4500 (AB Sciex Pte. Ltd., USA)
Instrument type: LC-ESI-QQ
Ms type: MS2
Ion mode: NEGATIVE
Collision energy: 40 eV
Fragmentation mode: CID
Ionization: ESI
Precursor m/z: 665.214588
Precursor type: [M-H]-
m/z	relative intensity
100.2	13
100.9062	384
107	42
112.9339	87
114.7529	74
118.8926	155
124.6943	39
125.1	21
130.992	55
132.9667	11
142.7541	124
148.4	21
149.0182	39
155.0286	8
160.9637	358
178.2	24
178.9393	999
184.84	24
219	8
220.907	507
245.1333	11
250.9053	89
262.625	39
262.8	34
263.2214	29
281.0034	129
292.9	8
304.5	5
305	8
306.6833	13
307.3	8
310.9727	42
316.4	8
320.6	8
321.2	11
322.7083	58
322.9	47
323.1786	58
340.9502	281
341.5833	16
364.9	26
365.2	13
382.3	16
382.9767	689
423.4	16
424.9	24
425.1	32
502.9	11
545.1031	400
665.1829	45
