Mass spectrum: Trimeprazine; LC-ESI-QQ; MS2; ESI; POSITIVE; CID; CE 50 V; [M+H]+
Name: Trimeprazine
Class: Non-natural product
Formula: C18H22N2S
Exact mass: 298.150361
SMILES: CC(CN1C2=CC=CC=C2SC3=CC=CC=C31)CN(C)C
InChI: InChI=1S/C18H22N2S/c1-14(12-19(2)3)13-20-15-8-4-6-10-17(15)21-18-11-7-5-9-16(18)20/h4-11,14H,12-13H2,1-3H3
Instrument: LCMS-8040 coupled to Nexera XR (Shimadzu, Kyoto, Japan).
Instrument type: LC-ESI-QQ
Ms type: MS2
Ion mode: POSITIVE
Collision energy: 50 V
Fragmentation mode: CID
Ionization: ESI
Column name: InertSustain C18 ID 2.1 microm, 2.1 x 100 mm (GL Science, Tokyo, Japan).
Retention time: 9.227 min
Precursor m/z: 299.157638
Precursor type: [M+H]+
m/z	relative intensity
30.3	12
42.2	19
43.4	22
44.3	11
56.2	11
58.3	999
70.4	16
84.2	11
85.2	13
100.2	30
151.0	14
152.1	15
167.1	14
179.1	42
180.1	111
