Mass spectrum: (6S)-2,6-Dimethyl-2-decene; GC-EI-TOF; MS; positive; EI; 70 V
Name: (6S)-2,6-Dimethyl-2-decene
Class: Non-natural product
Formula: C12H24
Exact mass: 168.18780
SMILES: CCCC[C@H](C)CCC=C(C)C
InChI: InChI=1S/C12H24/c1-5-6-9-12(4)10-7-8-11(2)3/h8,12H,5-7,9-10H2,1-4H3/t12-/m0/s1
Instrument: JMS-T100GCV (JEOL, Akishima, Japan) coupled to Agilent 7890A (Agilent, Wilmington, USA) gas chromatograph.
Instrument type: GC-EI-TOF
Ms type: MS
Ion mode: POSITIVE
Ionization: EI
Column name: HP-5 19091 J-413 USD364547H (Agilent, Wilmington, USA), length 30 m, I.D. 0.32 mm, thickness 0.25 micrometer.
Retention time: 6.38 min.
m/z	relative intensity
27.023	100
27.066	1
28.006	12
28.031	15
29.039	168
29.083	2
30.043	4
31.99	7
39.024	107
39.076	1
40.031	24
41.039	735
41.091	7
41.165	2
41.322	2
41.355	2
41.569	1
42.046	77
43.055	490
43.08	4
43.108	5
43.321	1
43.347	1
44.058	17
51.024	9
52.031	6
53.039	87
54.047	31
55.055	433
55.114	4
55.388	1
56.063	702
56.091	5
56.124	6
56.393	1
56.431	2
56.672	1
57.070	447
57.132	4
57.218	1
58.074	18
65.039	16
66.047	7
67.055	127
67.122	1
68.062	73
69.070	999
69.138	9
69.436	2
69.48	3
69.757	2
70.078	583
70.143	6
70.378	2
70.432	2
70.490	2
70.749	1
71.084	57
71.124	1
72.088	2
77.039	13
78.046	2
79.055	16
80.061	3
81.070	24
82.078	40
83.086	193
83.160	2
83.214	1
84.094	137
84.163	2
85.101	60
86.105	3
91.055	7
93.070	4
95.086	18
96.092	3
97.102	34
98.109	76
99.116	19
109.102	5
110.109	7
111.117	122
111.195	2
112.124	35
113.129	3
125.133	5
126.141	80
126.224	1
127.145	9
140.156	5
168.188	229
169.191	29
170.194	2
