Mass spectrum: (S)-1-((2S,5S)-5-(Hydroxymethyl)tetrahydrofuran-2-yl)but-3-en-2-ol; GC-FI-TOF; MS; POSITIVE; FI; 10 kV
Name: (S)-1-((2S,5S)-5-(Hydroxymethyl)tetrahydrofuran-2-yl)but-3-en-2-ol
Class: Non-natural compound
Formula: C9H16O3
Exact mass: 172.10995
SMILES: C=C[C@@H](O)C[C@@H]1CC[C@@H](CO)O1
InChI: InChI=1S/C9H16O3/c1-2-7(11)5-8-3-4-9(6-10)12-8/h2,7-11H,1,3-6H2/t7-,8+,9+/m1/s1
Instrument: JMS-T100GCV (JEOL, Akishima, Japan) coupled to Agilent 7890A gas chromatograph.
Instrument type: GC-FI-TOF
Ms type: MS
Ion mode: POSITIVE
Ionization: FI
Column name: ZB-1MS 7HM-G011-11 sn:313446, length 30.0 m, I.D. 0.32 mm, thickness 0.25 micrometer.
Retention time: 7.88 min.
m/z	relative intensity
31.019	57
57.034	29
71.05	20
78.058	73
87.044	10
101.06	113
114.068	14
116.084	28
123.079	36
141.091	999
142.095	100
143.097	10
154.099	289
155.103	45
171.104	42
172.112	184
173.118	772
174.121	77
175.123	10
