Mass spectrum: Fumaric acid; GC-EI-Q; MS; POSITIVE; 2 TBDMS-derivative
Name: Fumaric acid
Class: Natural Product
Formula: C4H4O4
Exact mass: 116.01096
SMILES: C(=C/C(=O)O)\C(=O)O
InChI: InChI=1S/C4H4O4/c5-3(6)1-2-4(7)8/h1-2H,(H,5,6)(H,7,8)/b2-1+
Instrument: GCMS-QP2010 Ultra (Shimadzu, Kyoto, Japan)
Instrument type: GC-EI-Q
Ms type: MS
Ion mode: POSITIVE
Column name: DB-5MS+DG (Agilent Technologies, Santa Clara, CA, USA)
Derivative form: C16H32O4Si2
Derivative mass: 344.18391
Derivative type: 2 TBDMS
m/z	relative intensity
54	16
55	38
57.05	39
58.05	33
59.05	46
61	10
69.05	12
73.05	566
74.05	52
75.05	185
76.05	12
82	18
83.05	23
84.05	70
85.05	19
99.05	21
113.05	15
115.1	33
117.05	20
128.1	35
129.1	16
132.1	15
133.05	85
134.05	12
135.05	10
143.1	18
147.1	107
148.1	16
149.1	20
156.05	22
157.05	11
159.05	10
173.05	10
230	17
245.05	82
246.05	16
259.1	11
287.1	999
288.1	235
289.1	100
290.1	15
329.15	23
