Mass spectrum: 2-(4-Nitrophenyl)ethylamine; LC-ESI-QQ; MS2; POSITIVE; [M+H-NH3]+; CID; 10 V
Name: 2-(4-Nitrophenyl)ethylamine
Class: Non-natural product; 4-Nitrophenethylamine
Formula: C8H10N2O2
Exact mass: 166.07422
SMILES: C1=CC(=CC=C1CCN)[N+](=O)[O-]
InChI: InChI=1S/C8H10N2O2/c9-6-5-7-1-3-8(4-2-7)10(11)12/h1-4H,5-6,9H2
Instrument: Xevo TQS micro (Waters, MA, USA) coupled to ACQUITY UPLC H-Class (Waters, MA, USA)
Instrument type: LC-ESI-QQ
Ms type: MS2
Ion mode: POSITIVE
Collision energy: 10 V
Fragmentation mode: CID
Ionization: ESI
Column name: Acquity UPLC BEH AMIDE column (1.7 Âµm, 2.1 x 150 mm; Waters, MA, USA)
Precursor m/z: 150.05495
Precursor type: [M+H-NH3]+
m/z	relative intensity
29.2	1
29.8	70
30.2	33
42.6	7
42.9	22
43.1	7
43.3	3
54.3	1
54.7	4
54.9	4
55.1	9
64.5	1
64.9	2
65.3	1
66.4	1
66.8	1
67.3	1
77	45
77.4	5
77.6	4
77.8	8
78.1	12
90.2	1
90.8	317
91	357
91.8	504
92.1	787
92.8	3
93.2	3
93.5	1
94	1
94.3	2
102	1
102.3	1
102.9	192
103.2	57
103.4	31
104	999
104.6	3
105	13
105.3	4
106	1
108.1	1
108.5	1
108.9	1
118.7	13
119	23
119.2	8
120	560
132.1	3
132.9	56
133.1	39
133.3	26
148.9	1
149.1	1
150	387
