Mass spectrum: Pachymic acid; ESI-QTOF; MS2; NEGATIVE; [M-H]-; CID; 60 V
Name: Pachymic acid
Class: Non-natural product; Triterpenoid
Formula: C33H52O5
Exact mass: 528.38148
SMILES: CC(C)C(=C)CC[C@H]([C@H]1[C@@H](C[C@@]2([C@@]1(CCC3=C2CC[C@@H]4[C@@]3(CC[C@@H](C4(C)C)OC(=O)C)C)C)C)O)C(=O)O
InChI: InChI=1S/C33H52O5/c1-19(2)20(3)10-11-22(29(36)37)28-25(35)18-33(9)24-12-13-26-30(5,6)27(38-21(4)34)15-16-31(26,7)23(24)14-17-32(28,33)8/h19,22,25-28,35H,3,10-18H2,1-2,4-9H3,(H,36,37)/t22-,25-,26+,27+,28+,31-,32-,33+/m1/s1
Instrument: X500R QTOF (AB Sciex LLC, USA)
Instrument type: ESI-QTOF
Ms type: MS2
Ion mode: NEGATIVE
Collision energy: 60 V
Fragmentation mode: CID
Ionization: ESI
Precursor m/z: 527.37420
Precursor type: [M-H]-
m/z	relative intensity
41.0029	22
43.0185	133
57.0341	9
59.0131	674
69.0341	6
97.0656	65
137.097	43
193.1597	64
219.1755	17
221.1911	112
257.1914	21
317.2128	35
369.2441	38
397.239	49
405.3166	367
423.3274	36
449.3067	43
450.3143	42
465.3375	999
467.3536	237
527.375	528
