Mass spectrum: 2-(4-Methylphenyl)ethylamine; LC-ESI-QQ; MS2; POSITIVE; [M+H-NH3]+; CID; 40 V
Name: 2-(4-Methylphenyl)ethylamine
Class: Non-natural product; Phenethylamine
Formula: C9H13N
Exact mass: 135.10480
SMILES: CC1=CC=C(C=C1)CCN
InChI: InChI=1S/C9H13N/c1-8-2-4-9(5-3-8)6-7-10/h2-5H,6-7,10H2,1H3
Instrument: Xevo TQS micro (Waters, MA, USA) coupled to ACQUITY UPLC H-Class (Waters, MA, USA)
Instrument type: LC-ESI-QQ
Ms type: MS2
Ion mode: POSITIVE
Collision energy: 40 V
Fragmentation mode: CID
Ionization: ESI
Column name: Acquity UPLC BEH AMIDE column (1.7 Âµm, 2.1 x 150 mm; Waters, MA, USA)
Precursor m/z: 119.08553
Precursor type: [M+H-NH3]+
m/z	relative intensity
28.9	114
36.5	63
37.9	81
38.4	53
38.6	265
38.9	223
40.2	50
40.4	68
40.6	23
40.8	222
41.0	81
41.3	130
43.3	70
46.6	116
49.7	154
50.1	41
50.5	235
50.8	488
51.1	999
53.0	57
53.4	58
56.1	65
59.9	117
63.0	149
63.2	49
64.0	81
64.2	65
64.5	60
64.7	594
65.0	517
65.3	831
66.3	35
68.1	32
68.6	122
72.3	94
73.2	56
75.2	191
76.4	32
76.8	800
77.0	181
77.3	651
77.5	88
77.8	147
78.0	346
78.3	111
90.6	248
90.8	228
91.0	52
91.3	105
91.5	77
98.0	22
100.8	44
101.7	104
102.4	46
102.8	59
103.0	125
103.3	71
103.7	29
104.1	52
115.0	91
