Mass spectrum: 1,2-Bis(p-(2-hydroxyethoxycarbonyl)benzoyloxy)ethane; ESI-QTOF; MS; POSITIVE
Name: 1,2-Bis(p-(2-hydroxyethoxycarbonyl)benzoyloxy)ethane
Class: Non-natural product
Formula: C22H22O10
Exact mass: 446.1213
SMILES: C1=CC(=CC=C1C(=O)OCCO)C(=O)OCCOC(=O)C2=CC=C(C=C2)C(=O)OCCO
InChI: InChI=1S/C22H22O10/c23-9-11-29-19(25)15-1-5-17(6-2-15)21(27)31-13-14-32-22(28)18-7-3-16(4-8-18)20(26)30-12-10-24/h1-8,23-24H,9-14H2
Instrument: X500R QTOF (AB Sciex Pte. Ltd, USA)
Instrument type: ESI-QTOF
Ms type: MS
Ion mode: POSITIVE
Ionization: ESI
m/z	relative intensity
103.054	46
103.0751	20
105.0696	492
106.0742	68
107.0852	40
109.101	20
111.1166	45
114.9475	24
119.0853	100
120.0927	52
121.1007	999
122.1043	115
133.0646	88
135.1166	23
137.0596	30
143.0677	46
145.1221	28
149.1323	61
151.0752	238
152.0786	24
161.0595	407
162.063	45
179.0701	484
180.0736	54
199.1692	61
205.195	217
206.1984	35
207.0323	101
211.0964	47
223.0636	188
224.0644	40
235.0415	36
239.1617	39
281.0513	72
429.1182	219
447.1285	119
469.1108	412
470.1142	98
