Mass spectrum: 2-(4-Methoxyphenyl)ethylamine; LC-ESI-QQ; MS2; POSITIVE; [M+H]+; CID; 40 V
Name: 2-(4-Methoxyphenyl)ethylamine
Class: Non-natural product; Phenethylamine
Formula: C9H13NO
Exact mass: 151.09971
SMILES: COC1=CC=C(C=C1)CCN
InChI: InChI=1S/C9H13NO/c1-11-9-4-2-8(3-5-9)6-7-10/h2-5H,6-7,10H2,1H3
Instrument: Xevo TQS micro (Waters, MA, USA) coupled to ACQUITY UPLC H-Class (Waters, MA, USA)
Instrument type: LC-ESI-QQ
Ms type: MS2
Ion mode: POSITIVE
Collision energy: 40 V
Fragmentation mode: CID
Ionization: ESI
Column name: Acquity UPLC BEH AMIDE column (1.7 Âµm, 2.1 x 150 mm; Waters, MA, USA)
Precursor m/z: 152.10699
Precursor type: [M+H]+
m/z	relative intensity
28.7	2
28.9	4
30.2	2
37.2	3
38.5	8
38.8	11
39.0	23
39.6	2
40.4	6
41.0	7
41.1	4
41.4	4
42.1	2
45.4	2
49.9	3
50.2	7
50.6	73
50.8	43
51.1	128
51.3	27
51.5	2
51.7	2
52.0	8
52.3	4
53.0	3
53.2	9
55.0	8
59.8	2
60.5	2
61.8	2
62.0	2
62.6	2
62.8	14
63.2	21
63.7	8
64.0	22
64.3	25
64.7	51
64.9	49
65.1	62
66.0	16
74.2	2
74.5	2
75.1	4
75.3	2
75.8	5
76.2	6
76.9	999
77.8	35
78.1	25
78.6	31
78.7	46
79.1	107
79.4	15
80.0	2
88.9	8
89.2	2
89.4	3
89.6	2
89.9	8
90.1	7
90.7	233
91.0	262
91.1	340
91.8	35
92.2	23
92.6	6
92.9	7
93.5	6
94.2	6
94.7	2
94.9	2
100.6	2
100.8	4
101.1	4
101.7	9
102.0	14
102.3	5
102.8	44
103.1	60
103.5	5
103.7	5
103.9	6
104.3	2
104.8	2
105.1	8
105.3	3
107.7	5
108.0	3
108.5	2
115.2	4
118.6	6
118.9	4
119.1	5
119.3	5
119.6	2
120.2	5
120.4	2
132.9	2
134.1	2
