Mass spectrum: Malic acid-[1-13C]; GC-EI-QQ; MS2; CID 40 V; POSITIVE; 3 TMS-derivative; [M-118]+
Name: Malic acid-[1-13C]
Class: In vitro synthetic compound
Formula: C4H6O5
Exact mass: 134.02152
SMILES: C(C(C(=O)O)O)C(=O)O
InChI: InChI=1S/C4H6O5/c5-2(4(8)9)1-3(6)7/h2,5H,1H2,(H,6,7)(H,8,9)/i4+1
Instrument: GCMS-TQ8040 (Shimadzu, Kyoto, Japan)
Instrument type: GC-EI-QQ
Ms type: MS2
Ion mode: POSITIVE
Collision energy: 40 V
Fragmentation mode: CID
Column name: DB-5MS+DG (Agilent Technologies, Santa Clara, CA, USA)
Derivative form: C13H30O5Si3
Derivative mass: 350.14011
Derivative type: 3 TMS
Precursor m/z: 233.10238
m/z	relative intensity	assigned
73.05	999	
101.15	70	C4H9OSi+
117.05	134	C4H9O2Si+
143.1	16	
189.15	942	C7H17O2Si2+
191.15	373	
233.15	631	C9H21O3Si2+
