Mass spectrum: 2,5-Heptanedione; GC-FI-TOF; MS; positive; FI; 10 kV
Name: 2,5-Heptanedione
Class: Non-natural product
Formula: C7H12O2
Exact mass: 128.08373
SMILES: CC(=O)CCC(=O)CC
InChI: InChI=1S/C7H12O2/c1-3-7(9)5-4-6(2)8/h3-5H2,1-2H3
Instrument: JMS-T100GCV (JEOL, Akishima, Japan) coupled to Agilent 7890A (Agilent, Wilmington, USA) gas chromatograph.
Instrument type: GC-FI-TOF
Ms type: MS
Ion mode: POSITIVE
Ionization: FI
Column name: HP-5 19091 J-413 USD364547H (Agilent, Wilmington, USA), length 30.0 m, I.D. 0.32 mm, thickness 0.25 micrometer.
Retention time: 6.47 min.
m/z	relative intensity
98.034	65
99.044	19
128.084	999
129.089	152
130.090	15
