Mass spectrum: 2-(4-Fluorophenyl)ethylamine; ESI-QTOF; MS; POSITIVE
Name: 2-(4-Fluorophenyl)ethylamine
Class: Non-natural product; Phenethylamine
Formula: C8H10FN
Exact mass: 139.07972
SMILES: C1=CC(=CC=C1CCN)F
InChI: InChI=1S/C8H10FN/c9-8-3-1-7(2-4-8)5-6-10/h1-4H,5-6,10H2
Instrument: X500R QTOF (AB Sciex LLC, USA)
Instrument type: ESI-QTOF
Ms type: MS
Ion mode: POSITIVE
Ionization: ESI
m/z	relative intensity
103	157
123	999
124.1	105
140.1	165
