Mass spectrum: Glc4; ESI-QQ; MS2; Positive; [M+H]+; CID; CE: 20 eV
Name: Glc4
Name: Isomaltosylmaltose
Name: Glc(a1-6)Glc(a1-4)Glc(a1-4)Glc
Class: Non-natural product.
Formula: C24H42O21
Exact mass: 666.221865
SMILES: O[C@@H]1[C@@H](O)[C@H](O)[C@@H](CO)O[C@@H]1OC[C@H]1O[C@H](O[C@@H]2[C@@H](CO)O[C@H](O[C@@H]3[C@@H](CO)OC(O)[C@H](O)[C@H]3O)[C@H](O)[C@H]2O)[C@H](O)[C@@H](O)[C@@H]1O
InChI: InChI=1S/C24H42O21/c25-1-5-9(28)11(30)16(35)22(41-5)39-4-8-10(29)12(31)17(36)23(43-8)45-20-7(3-27)42-24(18(37)14(20)33)44-19-6(2-26)40-21(38)15(34)13(19)32/h5-38H,1-4H2/t5-,6-,7-,8-,9-,10-,11+,12+,13-,14-,15-,16-,17-,18-,19-,20-,21?,22+,23-,24-/m1/s1
Instrument: Triple Quad 4500 (AB Sciex Pte. Ltd., USA)
Instrument type: LC-ESI-QQ
Ms type: MS2
Ion mode: POSITIVE
Collision energy: 20 eV
Fragmentation mode: CID
Ionization: ESI
Precursor m/z: 667.229142
Precursor type: [M+H]+
m/z	relative intensity
108.8	1
122.8	2
126.8	1
127.1786	3
145.0609	17
145.3515	5
163.0737	31
175.1	1
176.9	2
177.4	1
181.0357	1
181.3	1
201.1	1
223.3	1
239	1
239.2	1
259.4	1
263.3	1
267.2375	1
271	1
271.4	1
277.4	2
289.1384	5
306.9	2
307.3	1
309.191	9
311.5	1
311.7	2
312.3	1
313.3164	5
319.2	1
325.0825	161
331.2571	5
332.1	1
336.029	8
336.4221	10
337.2859	484
338.6	1
341.1895	4
341.8	1
343.0788	5
350.7	1
351	1
353.0429	3
353.4	2
355.1795	9
359.1278	2
359.5	2
364.1	2
364.6	1
365.1937	6
369	1
377	2
378.5	1
381.2972	19
383.1719	9
384.9333	1
401.2485	7
408.93	1
411.2304	3
413.1	1
414.8	1
427.2	1
429.0857	2
451.1	1
451.325	3
451.6	2
457.3	1
469.2	1
484.8	1
487.1614	31
488.1678	6
500.8	1
501.3	4
501.9165	9
502.6	8
503.3	1
504.4	1
504.9762	4
505.3744	3
511.1	2
515.11	1
515.7964	4
516.1231	3
516.6667	1
529.0308	2
529.3471	3
529.6	2
536.9	3
537.3	7
539	2
539.2	1
543.2	1
552.9	2
562.1	2
562.3722	2
562.64	2
563.3965	6
571.215	2
574.9	1
575.355	2
576.8	1
577.1187	2
577.4	2
579.6	2
581.4172	3
582.7	1
591.16	2
591.4	1
591.7	1
592	1
592.4	1
593.5063	24
595	1
601.2	2
605.3	2
606.9	3
607.364	4
607.7	2
608.2636	1
609.4	1
609.9	1
610.3	1
610.5312	2
611.4838	116
612.1633	3
613.1518	8
613.9	1
614.5	1
618.6	2
619.1	2
619.6188	2
620.8	1
621.2901	3
621.7	2
623.4	1
625.3	1
625.7	1
626.3695	7
631.1155	48
635.6	2
637.5152	101
639.5	1
643.7	1
644.3	2
645.6	2
647.1	1
649.3778	52
650.1733	1
657.3	1
658.0375	3
658.3	2
658.65	2
666.1	2
666.295	3
667.5339	999
672.5	2
685.335	2
