Mass spectrum: Poricoic acid B; ESI-QTOF; MS2; NEGATIVE; [M-H]-; CID; 30 V
Name: Poricoic acid B
Class: Non-natural product
Formula: C30H44O5
Exact mass: 484.31888
SMILES: CC(=CCC[C@H]([C@H]1[C@@H](C[C@@]2([C@@]1(CC=C3C2=CC[C@H]([C@]3(C)CCC(=O)O)C(=C)C)C)C)O)C(=O)O)C
InChI: InChI=1S/C30H44O5/c1-18(2)9-8-10-20(27(34)35)26-24(31)17-30(7)23-12-11-21(19(3)4)28(5,15-14-25(32)33)22(23)13-16-29(26,30)6/h9,12-13,20-21,24,26,31H,3,8,10-11,14-17H2,1-2,4-7H3,(H,32,33)(H,34,35)/t20-,21+,24-,26+,28+,29-,30+/m1/s1
Instrument: X500R QTOF (AB Sciex LLC, USA)
Instrument type: ESI-QTOF
Ms type: MS2
Ion mode: NEGATIVE
Collision energy: 30 V
Fragmentation mode: CID
Ionization: ESI
Precursor m/z: 483.31160
Precursor type: [M-H]-
m/z	relative intensity
367.3001	94
409.2717	999
410.2807	412
411.2884	477
465.3009	66
483.3078	999
