Mass spectrum: N-Ethylglycine; GC-EI-TOF; MS; POSITIVE; EI; 70 V; TFA, TMS
Name: N-Ethylglycine
Class: Non-natural compound
Formula: C4H9NO2
Exact mass: 103.0633285
SMILES: CCNCC(=O)O
InChI: InChI=1S/C4H9NO2/c1-2-5-3-4(6)7/h5H,2-3H2,1H3,(H,6,7)
Instrument: JMS-T100GCV (JEOL, Akishima, Japan) coupled to Agilent 7890A (Santa Clara, CA, USA) gas chromatograph.
Instrument type: GC-EI-TOF
Ms type: MS
Ion mode: POSITIVE
Ionization: EI
Column name: DB-5MS UI 122-5532UI US0462866H (Agilent, Wilmington, USA) with the length 30 m, I.D. 0.25 mm, and thickness 0.25 micrometer.
Retention time: 7.43 min.
Derivative form: C9H16F3NO3Si
Derivative mass: 271.08515
Derivative type: TFA, TMS
m/z	relative intensity
26.016	3
27.023	33
27.977	4
28.019	25
28.985	11
29.039	143
29.06	2
30.037	4
31.0	5
41.027	5
41.993	4
42.011	7
42.034	65
43.0	46
43.018	9
43.041	4
44.008	21
44.98	44
45.016	75
45.982	3
46.014	5
46.975	5
46.995	32
48.991	7
52.986	2
54.034	4
55.001	6
55.042	4
56.014	73
56.05	77
57.016	10
57.057	13
58.024	22
58.065	2
58.996	13
59.031	20
60.003	7
60.026	3
61.011	24
62.007	2
63.007	10
64.012	50
65.019	3
68.995	76
70.028	16
71.036	24
72.039	34
73.047	999
73.47	3
73.746	2
74.019	8
74.048	78
74.375	2
74.41	2
74.439	2
75.027	177
76.024	15
77.022	152
78.017	38
79.022	14
80.031	6
80.997	3
84.045	11
84.08	2
86.043	13
87.049	4
88.032	3
89.043	4
90.02	2
91.038	9
92.034	2
96.99	9
98.021	3
100.022	12
100.058	2
101.006	6
102.004	2
103.058	13
104.015	6
104.052	6
106.01	8
106.049	20
107.019	13
108.029	1
116.03	6
117.037	40
118.039	4
119.037	2
120.028	7
121.012	16
122.011	2
126.017	82
127.02	4
130.069	30
130.105	8
131.069	3
132.05	30
133.055	3
134.007	2
134.043	11
134.08	35
135.05	26
136.053	3
139.039	3
140.034	3
143.014	24
143.089	1
144.049	12
148.059	2
150.039	12
152.032	5
154.048	54
155.051	3
158.029	5
158.1	114
159.102	14
160.098	5
174.095	7
178.07	18
179.072	2
181.035	2
184.039	4
198.056	12
199.062	3
200.035	17
201.038	2
212.072	14
227.095	31
228.078	7
229.085	2
256.062	137
257.064	18
258.061	6
271.085	5
