Mass spectrum: Cyanoguanidine; ESI-QTOF; MS2; ESI; NEGATIVE; [M-H]-; CE 50 V
Name: Cyanoguanidine
Class: Non-natural product
Formula: C2H4N4
Exact mass: 84.04358
SMILES: N#CNC(=N)N
InChI: InChI=1S/C2H4N4/c3-1-6-2(4)5/h(H4,4,5,6)
Instrument: X500R QTOF (AB Sciex LLC, USA)
Instrument type: ESI-QTOF
Ms type: MS2
Ion mode: NEGATIVE
Collision energy: 50 V
Ionization: ESI
Precursor m/z: 83.0363
Precursor type: [M-H]-
m/z	relative intensity
26.003	675
40.0059	235
41.0138	999
66.0088	194
