Mass spectrum: Okaramine A; ESI-ITTOF; MS2; POSITIVE; [M+H]+
Name: Okaramine A
Class: Natural product; Indole alkaloid
Formula: C32H32N4O3
Exact mass: 520.24744
SMILES: CC1(/C=C\N2/C(=C\C3=C1NC4=CC=CC=C43)/C(=O)N5[C@@H](C2=O)C[C@@]6([C@H]5N(C7=CC=CC=C76)C(C)(C)C=C)O)C
InChI: InChI=1S/C32H32N4O3/c1-6-31(4,5)36-23-14-10-8-12-21(23)32(39)18-25-27(37)34-16-15-30(2,3)26-20(19-11-7-9-13-22(19)33-26)17-24(34)28(38)35(25)29(32)36/h6-17,25,29,33,39H,1,18H2,2-5H3/b16-15-,24-17-/t25-,29-,32-/m1/s1
Instrument: LC-ITTOF-MS (Shimadzu, Kyoto, Japan)
Instrument type: ESI-ITTOF
Ms type: MS2
Ion mode: POSITIVE
Ionization: ESI
Precursor m/z: 521.25470
Precursor type: [M+H]+
m/z	relative intensity
100.2559	75
101.258	75
102.2263	84
102.7316	84
104.3579	73
104.4053	82
104.5149	73
104.7653	66
106.6602	57
107.0572	75
107.8401	82
115.0757	79
117.5526	93
120.0807	65
120.1478	57
120.4532	65
120.7378	66
122.6186	94
124.1902	57
131.4498	92
131.6081	84
138.2604	66
139.0403	75
141.4833	61
145.8851	61
146.1978	87
146.3731	73
150.4013	57
157.2345	57
157.7164	93
161.0612	66
161.6994	97
162.6978	75
165.9834	74
166.8062	81
169.1608	84
170.0270	65
172.7162	66
177.2082	103
189.3699	71
194.0787	66
200.7411	57
201.8403	60
218.6834	57
228.2760	74
237.6153	96
237.9855	66
238.6969	66
247.3686	74
247.5757	112
250.9336	129
255.8418	66
257.1255	73
258.3531	90
262.0514	57
262.8912	66
264.0659	349
268.5060	90
270.4151	66
273.9626	66
277.6611	75
277.7115	89
282.2869	57
289.3626	67
291.8009	96
291.8807	103
297.4853	75
299.2263	92
301.9224	65
303.2749	65
306.7033	74
311.2844	57
313.8385	73
316.0958	57
320.8926	57
322.3558	84
325.2318	73
331.9635	117
336.7014	60
340.0688	66
340.4938	66
345.0435	75
349.1926	84
356.6947	57
371.0221	74
371.9380	57
376.5564	91
377.7737	96
377.8857	75
380.6601	88
381.4207	65
382.8281	57
383.5045	75
387.8876	74
391.3266	57
400.4561	94
405.3884	131
410.9743	57
411.5973	74
411.9422	91
416.7547	65
425.2634	75
434.3081	73
435.1699	999
443.9939	84
453.1794	415
455.4136	106
457.6973	110
478.8983	65
488.3981	57
494.5482	57
496.8456	74
498.6554	66
525.3918	96
560.3910	75
