Mass spectrum: 4-Aminobutanoic acid; GC-EI-TOF; MS; POSITIVE; EI; 70 V; 3TMS
Name: 4-Aminobutanoic acid
Class: Non-natural compound
Formula: C4H9NO2
Exact mass: 103.0633285
SMILES: C(CC(=O)O)CN
InChI: InChI=1S/C4H9NO2/c5-3-1-2-4(6)7/h1-3,5H2,(H,6,7)
Instrument: JMS-T100GCV (JEOL, Akishima, Japan) coupled to Agilent 7890A (Santa Clara, CA, USA) gas chromatograph.
Instrument type: GC-EI-TOF
Ms type: MS
Ion mode: POSITIVE
Ionization: EI
Column name: DB-5MS UI 122-5532UI US0462866H (Agilent, Wilmington, USA) with the length 30 m, I.D. 0.25 mm, and thickness 0.25 micrometer.
Retention time: 9.16 min.
Derivative form: C13H33NO2Si3
Derivative mass: 319.18191
Derivative type: 3TMS
m/z	relative intensity
41.04	8
43.001	9
44.009	7
44.98	5
45.016	54
46.016	3
46.996	5
55.019	3
57.017	3
58.024	8
59.032	70
60.032	5
61.012	5
68.05	11
69.034	13
70.023	2
71.032	3
72.04	10
73.048	559
73.213	1
73.426	1
73.469	2
74.049	46
75.027	78
76.028	6
77.024	5
85.048	5
86.043	68
86.12	1
87.044	6
88.039	3
98.044	3
99.026	2
99.062	2
100.005	8
100.058	31
101.02	3
101.06	3
102.023	1
102.074	4
112.058	4
113.025	2
114.021	2
114.074	10
115.039	3
116.036	9
117.055	10
118.055	2
119.036	3
128.09	4
129.045	4
130.051	37
131.038	14
132.044	4
133.051	33
134.052	5
135.048	2
140.053	3
140.089	6
142.068	22
143.053	57
144.062	13
144.568	10
145.065	5
146.082	12
147.066	223
148.067	35
149.063	18
150.066	2
156.084	11
157.073	4
158.082	9
159.084	2
160.096	2
170.083	2
172.098	38
173.1	7
174.041	4
174.114	999
174.586	2
174.766	3
175.115	182
175.711	2
176.112	79
176.709	1
177.113	10
178.111	2
186.114	2
187.121	3
204.097	1
214.105	4
216.088	30
217.089	6
218.086	3
219.102	2
230.14	6
246.135	32
247.136	7
248.133	3
288.126	2
304.158	206
305.16	59
306.157	29
307.158	6
308.156	1
