Mass spectrum: (3S,4R)-3,4-Epoxy-7-octene; GC-EI-TOF; MS; positive; EI; 70 V
Name: (3S,4R)-3,4-Epoxy-7-octene
Class: Non-natural product
Formula: C8H14O
Exact mass: 126.10447
SMILES: CC[C@@H]1O[C@@H]1CCC=C
InChI: InChI=1S/C8H14O/c1-3-5-6-8-7(4-2)9-8/h3,7-8H,1,4-6H2,2H3/t7-,8+/m0/s1
Instrument: JMS-T100GCV (JEOL, Akishima, Japan) coupled to Agilent 7890A (Agilent, Wilmington, USA) gas chromatograph.
Instrument type: GC-EI-TOF
Ms type: MS
Ion mode: POSITIVE
Ionization: EI
Column name: HP-5 19091 J-413 USD364547H (Agilent, Wilmington, USA), length 30 m, I.D. 0.32 mm, thickness 0.25 micrometer.
Retention time: 4.14 min.
m/z	relative intensity
26.015	30
27.023	406
27.065	4
27.279	1
27.465	1
28.006	9
28.031	72
29.002	77
29.039	404
29.080	4
29.304	1
29.479	1
29.521	1
29.673	1
29.702	1
30.008	1
30.044	12
31.018	277
31.060	3
31.128	1
31.273	1
31.293	1
31.989	5
32.021	3
37.008	7
38.015	30
39.023	525
39.074	5
39.305	2
39.545	1
39.772	1
39.819	1
40.031	120
40.073	2
40.282	1
41.039	999
41.089	9
41.245	1
41.269	2
41.355	3
41.568	2
41.811	1
42.010	23
42.046	121
42.310	1
42.366	1
42.561	1
43.018	151
43.054	78
43.284	1
43.313	1
43.343	1
43.557	1
44.025	14
44.058	3
45.034	14
50.016	12
51.023	29
52.031	15
53.003	1
53.039	179
53.096	2
54.046	28
55.018	79
55.055	291
55.201	1
55.378	1
55.420	1
55.651	1
55.677	1
56.026	28
56.062	79
56.172	1
57.034	159
57.070	104
57.385	1
57.410	1
58.041	18
58.074	5
59.050	424
59.109	4
59.429	1
59.686	1
59.979	1
60.053	14
62.016	3
63.024	8
64.030	2
65.039	39
66.047	37
67.055	678
67.118	7
67.187	5
67.349	2
67.459	2
67.737	1
68.026	4
68.062	302
68.221	1
68.357	1
68.468	1
68.697	1
68.748	1
69.034	36
69.070	59
70.042	27
70.078	20
71.050	48
71.082	2
72.058	51
72.097	1
72.126	1
73.061	2
77.039	9
78.047	2
79.055	31
80.062	8
81.035	2
81.070	9
82.042	1
82.078	131
83.050	102
83.085	21
84.058	104
85.066	303
85.473	1
85.524	1
85.829	1
86.069	16
86.117	1
86.163	1
86.193	1
91.055	3
93.071	13
94.074	1
95.051	1
95.086	8
96.093	2
97.066	97
97.103	6
97.201	1
98.073	68
99.077	4
111.081	27
112.085	2
