Mass spectrum: Creatinine; ESI-QTOF; MS2; NEGATIVE; [M-H]-; CID; 60 V
Name: Creatinine
Class: Natural product; Imidazolidinone
Formula: C4H7N3O
Exact mass: 113.05890
SMILES: CN1CC(=O)N=C1N
InChI: InChI=1S/C4H7N3O/c1-7-2-3(8)6-4(7)5/h2H2,1H3,(H2,5,6,8)
Instrument: X500R QTOF (AB Sciex LLC, USA)
Instrument type: ESI-QTOF
Ms type: MS2
Ion mode: NEGATIVE
Collision energy: 60 V
Fragmentation mode: CID
Ionization: ESI
Precursor m/z: 112.051623
Precursor type: [M-H]-
m/z	relative intensity
26.0037	80
40.0068	94
41.0147	999
41.9987	231
