Mass spectrum: Glycerol; FAB-BE; MS; Negative; Matrix Glycerol
Name: Glycerol
Class: Natural Product
Formula: C3H8O3
Exact mass: 92.04734
SMILES: OCC(O)CO
InChI: InChI=1S/C3H8O3/c4-1-3(6)2-5/h3-6H,1-2H2
Instrument: JMS-700, JEOL
Instrument type: FAB-BE
Ms type: MS
Ion mode: NEGATIVE
Ionization: FAB
m/z	relative intensity
16	10
17	22
25	11
41	15
43	22
45	17
55	9
58	30
59	182
60	5
69	5
70	6
71	112
72	19
73	42
75	13
86	5
87	30
88	35
89	173
90	7
91	852
92	32
93	6
105	7
109	9
119	5
137	29
147	13
149	7
150	21
151	48
153	13
161	6
163	29
164	30
165	24
167	6
179	21
180	16
181	117
182	7
183	999
184	74
185	18
195	10
211	14
225	18
229	5
237	11
239	34
240	6
241	6
243	10
245	5
255	25
256	16
257	9
265	6
271	16
273	30
275	140
276	12
277	7
279	12
317	7
323	6
329	6
331	8
347	7
363	6
365	7
367	22
459	7
