Mass spectrum: ((pentylthio)methyl)diphenylsilane; GC-EI-TOF; MS; POSITIVE; EI; 70 V
Name: ((pentylthio)methyl)diphenylsilane
Class: Non-natural compound
Formula: C18H24SSi
Exact mass: 300.1368
SMILES: CCCCCSC[SiH](c1ccccc1)c1ccccc1
InChI: InChI=1S/C18H24SSi/c1-2-3-10-15-19-16-20(17-11-6-4-7-12-17)18-13-8-5-9-14-18/h4-9,11-14,20H,2-3,10,15-16H2,1H3
Instrument: JMS-T100GCV (JEOL, Akishima, Japan) coupled to Agilent 7890A gas chromatograph.
Instrument type: GC-EI-TOF
Ms type: MS
Ion mode: POSITIVE
Ionization: EI
Column name: HP-5 30x0.32 0.25um 19091J-413, length 30.0 m, I.D. 0.32 mm, thickness 0.25 micrometer.
Retention time: 11.22 min.
m/z	relative intensity
27.024	26
28.006	12
28.031	3
29.04	47
31.99	7
39.024	17
40.031	2
41.04	69
42.047	14
43.001	5
43.055	86
44.059	3
44.98	6
45.989	5
46.996	6
51.024	9
52.985	49
53.04	4
53.989	4
55.001	7
55.056	15
60.005	2
61.012	22
63.024	2
65.04	15
65.993	3
67.001	9
69.071	21
70.077	3
74.973	11
76.986	5
77.04	29
77.993	3
78.047	10
79.001	41
79.055	7
80.004	5
81.016	5
89.04	5
90.047	4
91.056	221
92.06	19
93.017	25
93.07	3
94.018	3
103.001	29
103.057	3
104.007	7
104.063	3
105.017	352
106.019	42
107.023	15
108.031	2
115.056	5
117.017	7
117.074	30
118.024	5
118.078	3
119.033	29
120.037	6
121.047	6
128.063	3
129.017	13
130.022	3
131.032	12
136.989	50
137.994	12
139.004	22
140.004	3
141.003	2
143.034	4
144.042	2
145.048	3
147.118	4
148.989	2
149.996	2
151.004	71
152.012	307
153.015	58
154.01	27
154.078	3
155.032	37
156.035	6
157.047	6
165.02	8
165.071	27
166.077	7
167.032	5
167.087	8
169.046	3
179.033	9
180.04	41
181.048	290
181.319	4
182.051	60
183.064	999
183.548	2
183.732	3
184.066	180
184.688	2
185.063	44
185.711	1
186.066	5
193.048	12
194.054	6
195.064	171
195.196	5
196.071	162
197.078	164
198.08	30
199.078	7
207.066	4
209.083	15
210.085	3
213.019	3
215.036	139
216.038	26
217.033	12
223.097	3
227.036	6
229.051	379
230.056	182
231.054	53
232.055	15
233.054	3
252.132	10
253.137	4
285.113	96
286.116	24
287.112	10
288.112	2
299.13	6
300.137	75
301.139	19
302.136	8
