Mass spectrum: 3-O-Acetyl-16alpha-hydroxydehydrotrametenolic acid; ESI-QTOF; MS2; POSITIVE; [M+H]+; CID; 40 V
Name: 3-O-Acetyl-16alpha-hydroxydehydrotrametenolic acid
Class: Non-natural product
Formula: C32H48O5
Exact mass: 512.35018
SMILES: CC(=CCC[C@H]([C@H]1[C@@H](C[C@@]2([C@@]1(CC=C3C2=CC[C@@H]4[C@@]3(CC[C@@H](C4(C)C)OC(=O)C)C)C)C)O)C(=O)O)C
InChI: InChI=1S/C32H48O5/c1-19(2)10-9-11-21(28(35)36)27-24(34)18-32(8)23-12-13-25-29(4,5)26(37-20(3)33)15-16-30(25,6)22(23)14-17-31(27,32)7/h10,12,14,21,24-27,34H,9,11,13,15-18H2,1-8H3,(H,35,36)/t21-,24-,25+,26+,27+,30-,31-,32+/m1/s1
Instrument: X500R QTOF (AB Sciex LLC, USA)
Instrument type: ESI-QTOF
Ms type: MS2
Ion mode: POSITIVE
Collision energy: 40 V
Fragmentation mode: CID
Ionization: ESI
Precursor m/z: 513.357452
Precursor type: [M+H]+
m/z	relative intensity
55.0556	11
67.0557	9
69.0714	13
79.0559	9
81.0715	22
83.0872	18
91.0559	14
93.0716	31
95.0872	49
105.0716	22
107.0872	51
109.1028	35
119.0872	50
121.1028	47
123.1185	23
131.0872	34
133.1028	44
135.1185	38
143.0873	27
145.1028	108
147.1185	34
149.1341	18
155.0872	19
157.1029	69
159.1185	96
161.1342	24
169.1029	45
171.1185	83
173.1342	60
175.1499	17
181.1029	21
183.1185	80
184.1264	19
185.1342	108
187.1499	63
189.1656	18
195.1186	41
197.1342	91
199.1499	86
201.1655	81
209.1342	67
210.1421	22
211.1499	88
213.1657	46
223.1499	184
225.1656	125
227.1812	28
235.1499	24
237.1656	144
239.1813	65
241.1969	126
250.1735	38
251.1812	130
253.1969	88
263.1812	35
265.1970	29
278.2046	317
279.2125	80
293.2277	999
294.2359	135
295.2437	33
311.2385	28
353.2486	890
354.2567	43
435.3267	177
