Mass spectrum: GlcNAcAsn; ESI-QQ; MS2; Negative; [M-H]-; CID; CE: 20 eV
Name: GlcNAcAsn
Name: N4-(beta-N-Acetyl-D-glucosaminyl)-L-asparagine
Name: Beta-D-GlcNAc-1->N-Asn
Class: Non-natural product.
Formula: C12H21N3O8
Exact mass: 335.132865
SMILES: CC(=O)N[C@@H]1[C@H]([C@@H]([C@H](O[C@H]1NC(=O)C[C@@H](C(=O)O)N)CO)O)O
InChI: InChI=1S/C12H21N3O8/c1-4(17)14-8-10(20)9(19)6(3-16)23-11(8)15-7(18)2-5(13)12(21)22/h5-6,8-11,16,19-20H,2-3,13H2,1H3,(H,14,17)(H,15,18)(H,21,22)/t5-,6+,8+,9+,10+,11+/m0/s1
Instrument: Triple Quad 4500 (AB Sciex Pte. Ltd., USA)
Instrument type: LC-ESI-QQ
Ms type: MS2
Ion mode: NEGATIVE
Collision energy: 20 eV
Fragmentation mode: CID
Ionization: ESI
Precursor m/z: 334.125578
Precursor type: [M-H]-
m/z	relative intensity
100.1	4
100.9718	11
108.6	1
108.9	1
109.2	1
109.7352	3
110.1	1
110.9125	11
111.666	2
112.8899	999
113.8182	2
114.1174	2
118.8849	50
124.5643	1
124.9	1
126.9091	1
127.9722	1
130.8983	3
135.6571	1
136.9166	24
139.8054	4
141.0105	2
141.9031	4
142.3	2
152.2125	2
152.9317	10
153.9304	12
154.9104	13
167.9	2
169.9575	7
177.65	2
177.9417	3
178.2375	3
178.9076	143
181.7474	2
182.2	1
193.9636	1
195.9287	916
196.9007	11
199.8814	4
201.9342	93
213.9453	489
225.9336	3
237.9068	6
239	2
241.95	1
245.6	1
246	2
246.9764	5
255.9417	6
288.5393	1
288.7	1
289.0171	1
289.8	2
290.2	1
297.7	1
297.8769	2
298.9731	105
316.0062	672
317.1744	2
334.0219	304
