Mass spectrum: 1,2-Bis(p-(2-hydroxyethoxycarbonyl)benzoyloxy)ethane; ESI-QTOF; MS2; POSITIVE; [M+H]+; CID; 40 V
Name: 1,2-Bis(p-(2-hydroxyethoxycarbonyl)benzoyloxy)ethane
Class: Non-natural product
Formula: C22H22O10
Exact mass: 446.1213
SMILES: C1=CC(=CC=C1C(=O)OCCO)C(=O)OCCOC(=O)C2=CC=C(C=C2)C(=O)OCCO
InChI: InChI=1S/C22H22O10/c23-9-11-29-19(25)15-1-5-17(6-2-15)21(27)31-13-14-32-22(28)18-7-3-16(4-8-18)20(26)30-12-10-24/h1-8,23-24H,9-14H2
Instrument: X500R QTOF (AB Sciex Pte. Ltd, USA)
Instrument type: ESI-QTOF
Ms type: MS2
Ion mode: POSITIVE
Collision energy: 40 V
Fragmentation mode: CID
Ionization: ESI
Precursor m/z: 447.12858
Precursor type: [M+H]+
m/z	relative intensity
57.0699	8
73.0469	109
74.0478	13
75.0437	16
121.0285	16
147.0657	62
149.0234	376
149.0627	26
193.0497	999
207.0326	65
219.0656	26
237.0759	879
269.0447	48
297.0396	95
313.0708	118
326.9854	49
341.0657	762
385.0919	511
429.1182	127
