Mass spectrum: alpha-Ketoglutaric acid-[1,2,3,4,5-13C5]; GC-EI-Q; MS; positive; MEOX,2 TBDMS-derivative
Name: alpha-ketoglutaric acid-[1,2,3,4,5-13C5]
Class: In vitro synthetic compound
Formula: C5H6O5
Exact mass: 146.02152
SMILES: C(CC(=O)O)C(=O)C(=O)O
InChI: InChI=1S/C5H6O5/c6-3(5(9)10)1-2-4(7)8/h1-2H2,(H,7,8)(H,9,10)/i1+1,2+1,3+1,4+1,5+1
Instrument: GCMS-QP2010 Ultra (Shimadzu, Kyoto, Japan)
Instrument type: GC-EI-Q
Ms type: MS
Ion mode: POSITIVE
Column name: DB-5MS+DG (Agilent Technologies, Santa Clara, CA, USA)
Derivative form: C18H37NO5Si2
Derivative mass: 403.22102
Derivative type: 2 TBDMS, MEOX
m/z	relative intensity	assigned
56.1	26	
57.1	84	
58.1	136	
59.1	112	
60.05	24	
61.05	19	
71	14	
72.15	26	
73.05	999	
74.05	172	
75	426	
76.05	35	
77.1	17	
85.1	35	
86.05	27	
87.05	21	
88.15	22	
89.05	128	
90.15	20	
91.15	10	
99.05	33	
100.05	27	
101	17	
102.15	19	
103.05	18	
105.05	25	
115.1	126	
116.1	22	
117.1	33	
118.15	12	
119.05	13	
131.05	26	
132	45	
133.05	83	
134.05	21	
135.05	15	
145.05	11	
146.15	27	
147.1	498	
148.05	74	
149.05	98	
150	11	
158.1	17	
159.1	45	
160.05	230	C2(13C4)H10NO2Si+
161.1	54	
162	20	
172.05	17	
173.15	18	
174.15	14	
175.1	20	
176.1	28	
189.15	58	
190.1	99	C3(13C4)H12NO3Si+
191.25	20	
201.2	21	
233.95	18	
247.35	11	
263.15	34	
276.25	15	
304.25	12	
305.2	39	
306.25	16	
350.35	26	
351.25	142	
352.3	38	
353.15	13	
