Mass spectrum: beta-BHC; GC-EI-Q; MS; Positive
Name: beta-BHC
Name: (1a,2b,3a,4b,5a,6b)-1,2,3,4,5,6-Hexachlorocyclohexane
Class: Non-Natural Product; Pesticides
Formula: C6H6Cl6
Exact mass: 287.86007
SMILES: Cl[C@@H]1[C@@H](Cl)[C@H](Cl)[C@@H](Cl)[C@H](Cl)[C@H]1Cl
InChI: InChI=1S/C6H6Cl6/c7-1-2(8)4(10)6(12)5(11)3(1)9/h1-6H/t1-,2-,3+,4+,5-,6-
Instrument: GCMS-QP2010 Plus, Shimadzu
Instrument type: GC-EI-Q
Ms type: MS
Ion mode: POSITIVE
Ionization: EI
Column name: Ptx-5MS(RESTEK), 0.32 mm I.D. x 30 m, df=0.25 microm
Retention time: 8.06 min
Ion type: [M]+*
Precursor m/z: 287.86
m/z	relative intensity
40	9
43	5
44	6
47	5
48	11
49	94
50	229
51	387
52	85
53	9
54	6
55	34
56	45
57	10
60	24
61	116
62	34
63	68
64	7
65	12
72	20
73	227
74	137
75	295
76	48
77	469
78	400
79	24
83	261
84	31
85	310
86	40
87	216
88	17
89	46
90	7
91	5
95	20
96	96
97	31
98	72
99	87
100	31
101	27
102	6
107	14
108	9
109	999
110	47
111	950
112	188
113	310
114	63
115	36
117	5
119	18
120	6
121	154
122	159
123	103
124	98
125	21
126	17
131	14
133	72
134	33
135	84
136	22
137	30
143	96
144	14
145	289
146	201
147	522
148	172
149	257
150	50
151	37
155	9
156	68
157	52
158	65
159	50
160	23
161	13
168	4
169	33
170	6
171	40
173	8
180	14
181	926
182	86
183	895
184	80
185	310
186	21
187	38
207	5
210	20
216	30
217	668
218	90
219	834
220	72
221	405
222	30
223	95
224	6
252	60
253	7
254	98
255	7
256	60
257	6
258	19
288	10
290	17
292	8
