Mass spectrum: 2-(4-Trifluoromethylphenyl)ethylamine; LC-ESI-QQ; MS2; POSITIVE; [M+H]+; CID; 10 V
Name: 2-(4-Trifluoromethylphenyl)ethylamine
Class: Non-natural product; Phenethylamine
Formula: C9H10F3N
Exact mass: 189.07653
SMILES: C1=CC(=CC=C1CCN)C(F)(F)F
InChI: InChI=1S/C9H10F3N/c10-9(11,12)8-3-1-7(2-4-8)5-6-13/h1-4H,5-6,13H2
Instrument: Xevo TQS micro (Waters, MA, USA) coupled to ACQUITY UPLC H-Class (Waters, MA, USA)
Instrument type: LC-ESI-QQ
Ms type: MS2
Ion mode: POSITIVE
Collision energy: 10 V
Fragmentation mode: CID
Ionization: ESI
Column name: Acquity UPLC BEH AMIDE column (1.7 Âµm, 2.1 x 150 mm; Waters, MA, USA)
Precursor m/z: 190.08381
Precursor type: [M+H]+
m/z	relative intensity
149.0	6
153.0	29
153.2	20
173.1	999
190.1	484
