Mass spectrum: Okaramine A; ESI-QQ; MS2; POSITIVE; [M+H]+; CID; 15 eV
Name: Okaramine A
Class: Natural product; Indole alkaloid
Formula: C32H32N4O3
Exact mass: 520.24744
SMILES: CC1(/C=C\N2/C(=C\C3=C1NC4=CC=CC=C43)/C(=O)N5[C@@H](C2=O)C[C@@]6([C@H]5N(C7=CC=CC=C76)C(C)(C)C=C)O)C
InChI: InChI=1S/C32H32N4O3/c1-6-31(4,5)36-23-14-10-8-12-21(23)32(39)18-25-27(37)34-16-15-30(2,3)26-20(19-11-7-9-13-22(19)33-26)17-24(34)28(38)35(25)29(32)36/h6-17,25,29,33,39H,1,18H2,2-5H3/b16-15-,24-17-/t25-,29-,32-/m1/s1
Instrument: ACQUITY UPLC H-Class/Xevo TQD (Waters, Milford, USA)
Instrument type: ESI-QQ
Ms type: MS2
Ion mode: POSITIVE
Collision energy: 15 eV
Fragmentation mode: CID
Ionization: ESI
Precursor m/z: 521.25470
Precursor type: [M+H]+
m/z	relative intensity
144.0	1
175.7	24
225.6	10
306.6	12
397.7	106
425.3	4
428.4	26
435.6	64
450.5	17
451.6	24
452.6	7
453.6	999
465.7	79
504.0	36
521.3	13
522.0	199
