Mass spectrum: beta,gamma-Carotene; LC-ESI-QTOF; MS2; POSITIVE; ESI; [M]+; COLLISION_ENERGY 20 eV.
Name: beta,gamma-Carotene
Class: Natural product; carotenoids, carotene
Formula: C40H56
Exact mass: 536.43820
SMILES: CC1=C(C(CCC1)(C)C)/C=C/C(=C/C=C/C(=C/C=C/C=C(\C)/C=C/C=C(\C)/C=C/C2C(=C)CCCC2(C)C)/C)/C
InChI: InChI=1S/C40H56/c1-31(19-13-21-33(3)25-27-37-35(5)23-15-29-39(37,7)8)17-11-12-18-32(2)20-14-22-34(4)26-28-38-36(6)24-16-30-40(38,9)10/h11-14,17-22,25-28,37H,5,15-16,23-24,29-30H2,1-4,6-10H3/b12-11+,19-13+,20-14+,27-25+,28-26+,31-17+,32-18+,33-21+,34-22+
Instrument: Xevo G2-S QtOF, Waters (USA) coupled to ACQUITY UPLC, Waters (USA).
Instrument type: LC-ESI-QTOF
Ms type: MS2
Ion mode: POSITIVE
Collision energy: 20 V
Ionization: ESI
Column name: BEH C18, I.D. 2.1 mm, length 100 mm, thickness 1.7 micrometer.
Ion type: [M]+
Precursor m/z: 536.43765
m/z	relative intensity
81.07	65
95.086	128
105.07	152
107.086	106
109.102	146
119.086	279
120.092	60
121.101	164
123.117	159
133.102	170
135.117	77
137.133	89
143.086	64
144.093	52
145.101	240
147.117	145
149.133	99
157.102	210
158.108	72
159.117	180
161.133	134
163.148	120
169.102	87
171.117	196
172.123	53
173.133	146
175.149	255
176.155	56
177.164	267
183.117	111
185.132	156
187.148	114
189.164	130
195.117	75
197.133	188
199.148	96
201.164	148
203.18	125
209.133	200
211.148	144
213.164	87
214.171	62
215.18	99
221.133	64
223.149	116
225.164	74
227.18	84
235.148	68
237.164	65
239.18	114
241.195	119
243.21	114
251.18	56
253.196	75
254.203	121
255.21	126
263.179	52
265.195	77
267.211	232
268.216	79
269.227	177
279.211	64
280.218	50
281.226	137
282.231	60
291.211	54
293.226	68
295.241	58
305.226	51
307.242	79
320.25	70
321.258	117
323.273	55
333.258	90
345.258	64
346.265	81
359.273	103
399.304	80
411.305	60
412.311	56
413.319	70
429.352	68
444.375	544
445.378	193
521.415	62
535.431	672
535.471	125
536.437	999
537.441	403
538.445	81
