Mass spectrum: (3S)-3-((tert-Butyldimethylsilyl)oxy)nona-1,8-dien-5-ol; GC-EI-TOF; MS; POSITIVE; EI; 70 V
Name: (3S)-3-((tert-Butyldimethylsilyl)oxy)nona-1,8-dien-5-ol
Class: Non-natural compound
Formula: C15H30O2Si
Exact mass: 270.20151
SMILES: C=CCCC(O)C[C@@H](C=C)O[Si](C)(C)C(C)(C)C
InChI: InChI=1S/C15H30O2Si/c1-8-10-11-13(16)12-14(9-2)17-18(6,7)15(3,4)5/h8-9,13-14,16H,1-2,10-12H2,3-7H3/t13?,14-/m1/s1
Instrument: JMS-T100GCV (JEOL, Akishima, Japan) coupled to Agilent 7890A gas chromatograph.
Instrument type: GC-EI-TOF
Ms type: MS
Ion mode: POSITIVE
Ionization: EI
Column name: ZB-1MS 7HM-G011-11 sn:313446, length 30.0 m, I.D. 0.32 mm, thickness 0.25 micrometer.
Retention time: 8.61 min.
m/z	relative intensity
18.01	4
27.023	13
28.005	33
28.031	5
29.002	3
29.038	44
31.018	4
39.023	26
40.03	3
41.039	101
42.044	5
43.0	10
43.018	12
43.054	8
44.007	2
44.025	2
44.979	27
45.015	14
46.995	35
53.038	16
54.046	23
55.018	10
55.054	88
56.025	3
56.061	13
57.033	8
57.07	52
58.023	12
58.073	2
58.995	3
59.031	63
60.002	8
60.031	4
61.01	23
65.038	7
66.046	6
67.054	210
68.058	12
69.033	2
69.069	4
71.031	3
72.039	3
73.046	270
74.018	11
74.048	22
75.026	999
75.453	3
75.74	2
76.026	68
76.401	1
77.023	38
78.044	3
79.054	119
79.121	1
80.059	11
81.033	2
81.07	12
83.049	35
84.056	11
85.01	4
85.047	12
87.026	5
91.054	13
92.059	2
93.036	8
93.069	76
94.073	7
95.041	1
95.084	4
96.055	2
97.01	3
97.048	3
98.018	4
99.026	51
100.028	6
100.068	2
101.041	48
102.043	5
103.028	3
105.036	16
111.026	7
112.031	2
113.041	22
114.047	7
115.057	19
115.093	26
116.027	2
116.095	3
117.072	8
119.085	5
121.101	31
122.105	3
125.041	2
127.057	8
128.064	4
129.071	4
131.052	999
131.618	3
132.054	105
132.443	1
133.05	39
133.103	8
134.054	2
141.073	6
145.068	8
153.072	2
157.068	9
159.083	21
160.085	3
161.092	2
171.12	126
172.122	18
173.102	18
174.103	2
183.12	2
195.12	6
197.135	2
213.131	15
214.134	3
215.146	5
