Mass spectrum: Trimethylamine oxide; ESI-QTOF; MS; POSITIVE
Name: Trimethylamine oxide
Class: Tertiary amine oxide
Formula: C3H9NO
Exact mass: 75.06841
SMILES: C[N+](C)(C)[O-]
InChI: InChI=1S/C3H9NO/c1-4(2,3)5/h1-3H3
Instrument: X500R QTOF (AB Sciex LLC, USA)
Instrument type: ESI-QTOF
Ms type: MS
Ion mode: POSITIVE
Ionization: ESI
m/z	relative intensity
58.0655	217
59.0734	76
60.0451	16
76.0758	999
77.0799	32
98.0584	49
151.1447	70
