Mass spectrum: Sultopride; LC-ESI-QQ; MS2; ESI; POSITIVE; CID; CE 40 V; [M+H]+
Name: Sultopride
Class: Non-natural product
Formula: C17H26N2O4S
Exact mass: 354.161321
SMILES: CCN1CCCC1CNC(=O)C2=C(C=CC(=C2)S(=O)(=O)CC)OC
InChI: InChI=1S/C17H26N2O4S/c1-4-19-10-6-7-13(19)12-18-17(20)15-11-14(24(21,22)5-2)8-9-16(15)23-3/h8-9,11,13H,4-7,10,12H2,1-3H3,(H,18,20)
Instrument: LCMS-8040 coupled to Nexera XR (Shimadzu, Kyoto, Japan).
Instrument type: LC-ESI-QQ
Ms type: MS2
Ion mode: POSITIVE
Collision energy: 40 V
Fragmentation mode: CID
Ionization: ESI
Column name: InertSustain C18 ID 2.1 microm, 2.1 x 100 mm (GL Science, Tokyo, Japan).
Retention time: 4.933 min
Precursor m/z: 355.168598
Precursor type: [M+H]+
m/z	relative intensity
30.3	38
55.3	57
56.3	131
58.3	386
67.2	18
69.2	23
70.2	19
78.3	18
82.3	11
84.3	672
97.2	12
98.3	274
110.3	57
112.3	999
134.2	122
199.1	256
227.1	467
