Mass spectrum: Leucinostatin A; ESI-ITFT; MS2; POSITIVE; [M+H]+; CE 30 %
Name: Leucinostatin A
Class: Natural product; modulator of tumor-stroma interaction
Formula: C62H111N11O13
Exact mass: 1217.8362
SMILES: CN(C)C[C@H](C)NC(=O)CCNC(=O)C(C)(C)NC(=O)C(C)(C)NC(=O)[C@H](CC(C)C)NC(=O)[C@H](CC(C)C)NC(=O)C(C)(C)NC(=O)[C@@H](NC(=O)[C@H](C[C@H](C)C[C@@H](O)CC(=O)CC)NC(=O)[C@@H]1C[C@H](C)CN1C(=O)/C=C/[C@@H](C)CC)[C@H](O)C(C)C
InChI: InChI=1S/C62H111N11O13/c1-21-38(9)23-24-49(77)73-33-40(11)31-47(73)55(82)66-46(30-39(10)29-43(75)32-42(74)22-2)53(80)68-50(51(78)37(7)8)56(83)70-61(15,16)58(85)67-44(27-35(3)4)52(79)65-45(28-36(5)6)54(81)69-62(17,18)59(86)71-60(13,14)57(84)63-26-25-48(76)64-41(12)34-72(19)20/h23-24,35-41,43-47,50-51,75,78H,21-22,25-34H2,1-20H3,(H,63,84)(H,64,76)(H,65,79)(H,66,82)(H,67,85)(H,68,80)(H,69,81)(H,70,83)(H,71,86)/b24-23+/t38-,39+,40-,41-,43+,44-,45-,46-,47-,50-,51+/m0/s1
Instrument: LTQ Orbitrap XL hybrid iontrap-Orbitrap (Thermo Fisher Scientific, San Jose, CA, USA)
Instrument type: ESI-ITFT
Ms type: MS2
Ion mode: POSITIVE
Collision energy: 30 % (nominal)
Fragmentation mode: HCD
Ionization: ESI
Ion type: [M+H]+
Precursor m/z: 1218.8435
m/z	relative intensity
157.1335	12
174.1601	117
194.1541	66
222.1491	33
344.2658	36
435.2856	111
436.289	27
441.3073	15
457.3499	43
492.3071	53
493.3105	13
526.3602	24
536.3698	10
546.3541	199
547.3575	67
564.3646	244
565.3679	74
566.3715	10
570.4339	22
577.3598	56
578.3638	17
613.3963	15
631.4072	914
632.4101	343
633.4131	52
649.4175	731
650.4205	294
651.4234	43
690.4441	11
744.4909	35
745.4948	16
762.5016	502
763.5046	231
764.5079	45
857.5751	22
858.5778	11
875.5854	331
876.5886	173
877.5919	42
960.6379	208
961.6409	129
962.6443	34
1045.6909	28
1046.694	19
1146.786	52
1147.7892	36
1148.7919	12
1173.7855	39
1174.7893	30
1175.7922	10
1218.843	999
1219.8455	772
1220.8478	320
