Mass spectrum: Poricoic acid B; ESI-QTOF; MS2; POSITIVE; [M+H]+; CID; 50 V
Name: Poricoic acid B
Class: Non-natural product
Formula: C30H44O5
Exact mass: 484.31888
SMILES: CC(=CCC[C@H]([C@H]1[C@@H](C[C@@]2([C@@]1(CC=C3C2=CC[C@H]([C@]3(C)CCC(=O)O)C(=C)C)C)C)O)C(=O)O)C
InChI: InChI=1S/C30H44O5/c1-18(2)9-8-10-20(27(34)35)26-24(31)17-30(7)23-12-11-21(19(3)4)28(5,15-14-25(32)33)22(23)13-16-29(26,30)6/h9,12-13,20-21,24,26,31H,3,8,10-11,14-17H2,1-2,4-7H3,(H,32,33)(H,34,35)/t20-,21+,24-,26+,28+,29-,30+/m1/s1
Instrument: X500R QTOF (AB Sciex LLC, USA)
Instrument type: ESI-QTOF
Ms type: MS2
Ion mode: POSITIVE
Collision energy: 50 V
Fragmentation mode: CID
Ionization: ESI
Precursor m/z: 485.32615
Precursor type: [M+H]+
m/z	relative intensity
55.0553	72
57.0708	16
67.0554	57
69.0347	11
69.071	91
71.0503	9
77.0398	26
79.0555	61
81.0711	124
83.0504	25
83.0868	41
85.0661	16
91.0556	86
93.0712	135
95.0868	183
97.066	27
97.1024	15
99.0454	22
101.061	17
105.0712	154
107.0868	225
109.0661	17
109.1024	68
111.0817	21
115.0556	13
117.0713	43
119.0868	196
121.066	16
121.1025	121
123.0817	49
123.1181	19
125.0972	18
128.0632	24
129.0712	43
131.0868	169
133.1024	119
135.0817	26
135.118	35
141.0712	33
142.0789	48
143.0868	182
144.0946	17
145.1024	221
147.0817	51
147.118	76
149.0973	18
149.1336	17
153.0712	20
154.079	19
155.0868	160
156.0945	48
157.1024	338
159.0817	77
159.1181	208
161.0974	35
161.1338	39
163.1494	22
165.0711	23
167.0868	54
168.0947	46
169.1024	516
170.1103	28
171.0818	16
171.1181	237
173.0974	62
173.1338	90
175.1131	25
177.0924	68
179.0868	52
180.0947	23
181.1025	160
182.1103	74
183.1181	536
184.1257	21
185.0976	62
185.1338	180
187.113	71
187.1494	30
189.1286	66
189.165	34
191.108	19
193.1025	93
194.1103	69
195.1181	258
196.1258	78
197.0974	49
197.1338	304
198.1417	23
199.1131	119
199.1494	78
201.1286	45
205.1026	22
206.1105	35
207.1181	177
208.1262	116
209.0977	57
209.1339	511
210.1416	71
211.113	96
211.1495	322
213.1288	52
213.1651	34
215.1079	35
217.1236	44
219.1183	48
219.1391	62
220.1261	28
221.1338	241
222.1417	41
223.1134	80
223.1494	999
224.121	27
224.1573	42
225.1287	135
225.165	169
227.1081	34
227.1443	60
229.1236	58
231.1184	24
232.126	60
233.1339	86
234.1418	31
235.1496	109
237.1288	61
237.1651	256
239.1443	58
239.1806	38
241.1238	63
241.1598	33
243.1393	42
245.1341	33
245.1546	37
246.1418	29
247.1496	220
248.1571	24
249.1289	43
249.1651	115
251.1443	75
251.1806	61
252.1886	67
253.16	35
253.1966	56
255.1393	54
255.1756	29
257.1549	36
259.1495	32
261.165	49
263.1446	31
263.1807	74
265.16	284
265.1962	115
267.1393	52
267.1755	108
269.1549	61
274.1726	29
279.1758	36
282.1628	51
283.1704	188
289.1964	81
307.2069	171
325.2172	157
