Mass spectrum: 2-(4-Fluorophenyl)ethylamine; LC-ESI-QQ; MS2; POSITIVE; [M+H]+; CID; 10 V
Name: 2-(4-Fluorophenyl)ethylamine
Class: Non-natural product; Phenethylamine
Formula: C8H10FN
Exact mass: 139.07972
SMILES: C1=CC(=CC=C1CCN)F
InChI: InChI=1S/C8H10FN/c9-8-3-1-7(2-4-8)5-6-10/h1-4H,5-6,10H2
Instrument: Xevo TQS micro (Waters, MA, USA) coupled to ACQUITY UPLC H-Class (Waters, MA, USA)
Instrument type: LC-ESI-QQ
Ms type: MS2
Ion mode: POSITIVE
Collision energy: 10 V
Fragmentation mode: CID
Ionization: ESI
Column name: Acquity UPLC BEH AMIDE column (1.7 Âµm, 2.1 x 150 mm; Waters, MA, USA)
Precursor m/z: 140.08700
Precursor type: [M+H]+
m/z	relative intensity
103.0	34
123.0	999
140.0	30
140.3	12
