Mass spectrum: Acetylgenistin; ESI-QTOF; MS2; NEGATIVE; [M-H]-; CID; 60 V
Name: Acetylgenistin
Class: Non-natural compound
Formula: C23H22O11
Exact mass: 474.11621
SMILES: CC(=O)OC[C@@H]1[C@H]([C@@H]([C@H]([C@@H](O1)OC2=CC(=C3C(=C2)OC=C(C3=O)C4=CC=C(C=C4)O)O)O)O)O
InChI: InChI=1S/C23H22O11/c1-10(24)31-9-17-20(28)21(29)22(30)23(34-17)33-13-6-15(26)18-16(7-13)32-8-14(19(18)27)11-2-4-12(25)5-3-11/h2-8,17,20-23,25-26,28-30H,9H2,1H3/t17-,20-,21+,22-,23-/m1/s1
Instrument: X500R QTOF (AB Sciex LLC, USA)
Instrument type: ESI-QTOF
Ms type: MS2
Ion mode: NEGATIVE
Collision energy: 60 V
Fragmentation mode: CID
Ionization: ESI
Precursor m/z: 473.10894
Precursor type: [M-H]-
m/z	relative intensity
63.024	12
65.0032	10
91.019	20
107.0139	29
132.0217	82
133.0295	100
135.0088	35
135.0451	21
155.0503	16
157.0295	19
159.0452	50
167.0503	23
169.0659	22
180.0581	39
181.0659	51
183.0452	54
184.0531	19
195.0452	57
196.0531	50
197.0608	28
199.0401	22
201.0558	47
211.0402	178
212.0477	45
223.0402	86
224.048	107
225.0557	45
226.0273	43
239.0352	326
240.0427	117
267.0301	384
268.0378	676
269.0455	999
