Mass spectrum: (2S,3S,5S)-5-(But-3-en-1-yl)-3-acetoxy-2-(acetoxymethyl)tetrahydrofuran; GC-EI-TOF; MS; positive; EI; 70 V
Name: (2S,3S,5S)-5-(But-3-en-1-yl)-3-acetoxy-2-(acetoxymethyl)tetrahydrofuran
Class: Non-natural compound
Formula: C13H20O5
Exact mass: 256.13107
SMILES: O=C(C)OC[C@@H]1O[C@H](C[C@@H]1OC(C)=O)CCC=C
InChI: InChI=1S/C13H20O5/c1-4-5-6-11-7-12(17-10(3)15)13(18-11)8-16-9(2)14/h4,11-13H,1,5-8H2,2-3H3/t11-,12-,13-/m0/s1
Instrument: JMS-T100GCV (JEOL, Akishima, Japan) coupled to Agilent 7890A (Agilent, Wilmington, USA) gas chromatograph.
Instrument type: GC-EI-TOF
Ms type: MS
Ion mode: POSITIVE
Ionization: EI
Column name: ZB-1MS 7HM-G011-11 sn:313446 (Agilent, Wilmington, USA), length 30 m, I.D. 0.32 mm, thickness 0.25 micrometer.
Retention time: 8.94 min.
m/z	relative intensity
27.023	17
28.006	11
28.031	4
29.003	8
29.039	20
31.018	5
31.99	6
39.023	34
40.03	5
41.039	95
42.011	11
42.046	10
43.018	999
43.055	14
43.341	3
43.562	2
43.808	1
44.022	25
44.062	1
45.034	6
53.039	23
54.047	29
55.018	25
55.055	61
56.025	3
56.06	4
57.034	27
58.041	3
61.029	13
65.039	7
66.047	8
67.055	112
67.118	1
68.026	7
68.061	16
69.034	22
69.069	4
70.042	22
71.013	3
71.049	19
73.029	19
74.036	4
77.039	11
78.046	3
79.054	68
80.062	112
80.134	1
81.034	313
81.069	38
82.039	31
82.076	6
83.049	19
83.086	5
84.057	6
85.065	4
86.037	5
87.044	5
91.055	10
92.061	4
93.07	30
94.042	135
95.048	30
95.086	61
96.055	4
96.09	5
97.029	4
97.065	5
98.036	2
98.072	3
99.044	13
100.052	10
101.023	5
103.04	18
105.07	21
107.049	19
108.056	7
109.064	2
111.044	2
111.081	3
112.052	6
112.088	3
113.06	9
117.069	3
118.077	3
121.065	4
123.081	36
124.085	4
125.096	3
135.081	8
136.088	24
137.096	21
138.1	2
141.091	7
145.051	3
153.055	7
154.099	133
155.102	14
183.102	41
184.106	5
196.11	4
201.076	3
