Mass spectrum: Isofenphos; GC-EI-Q; MS; Positive; M+*
Name: Isofenphos
Class: Non-Natural Product; Pesticides
Formula: C15H24NO4PS
Exact mass: 345.11637
SMILES: CC(C)OC(=O)c(c1)c(ccc1)OP(=S)(OCC)NC(C)C
InChI: InChI=1S/C15H24NO4PS/c1-6-18-21(22,16-11(2)3)20-14-10-8-7-9-13(14)15(17)19-12(4)5/h7-12H,6H2,1-5H3,(H,16,22)
Instrument: GCMS-QP2010 Plus, Shimadzu
Instrument type: GC-EI-Q
Ms type: MS
Ion mode: POSITIVE
Ionization: EI
Column name: Ptx-5MS(RESTEK), 0.32 mm I.D. x 30 m, df=0.25 microm
Retention time: 11.6 min
Ion type: [M]+*
Precursor m/z: 345.1
m/z	relative intensity
40	8
41	120
42	80
43	181
44	82
45	27
46	14
47	12
50	5
51	9
53	11
56	6
57	17
58	999
59	48
62	5
63	47
64	118
65	97
66	9
75	5
76	7
77	20
80	24
81	12
88	10
90	21
91	5
92	191
93	64
94	16
96	161
97	9
98	8
104	19
105	17
106	77
107	5
108	7
109	14
118	12
119	9
120	619
121	469
122	59
123	17
124	9
132	11
134	29
135	5
136	70
137	22
138	251
139	33
140	9
141	5
149	6
150	13
155	11
157	7
165	13
166	16
167	28
168	5
169	5
171	21
173	12
180	62
181	6
182	19
183	13
184	9
185	159
186	9
197	7
198	14
199	14
200	84
201	66
202	5
213	340
214	41
215	5
216	51
217	75
218	10
224	5
226	19
228	37
229	90
230	10
232	15
242	7
244	46
245	57
246	9
254	7
255	155
256	26
257	7
270	15
271	8
272	6
286	22
287	7
314	7
345	7
