Mass spectrum: (4S)-4-Methyl-6-pivaloyloxyhexanal; GC-FI-TOF; MS; positive; FI; 10 kV
Name: (4S)-4-Methyl-6-pivaloyloxyhexanal
Class: Non-natural product
Formula: C12H22O3
Exact mass: 214.15690
SMILES: O=CCC[C@H](C)CCOC(=O)C(C)(C)C
InChI: InChI=1S/C12H22O3/c1-10(6-5-8-13)7-9-15-11(14)12(2,3)4/h8,10H,5-7,9H2,1-4H3/t10-/m0/s1
Instrument: JMS-T100GCV (JEOL, Akishima, Japan) coupled to Agilent 7890A (Agilent, Wilmington, USA) gas chromatograph.
Instrument type: GC-FI-TOF
Ms type: MS
Ion mode: POSITIVE
Ionization: FI
Column name: HP-5 19091 J-413 USD364547H (Agilent, Wilmington, USA), length 30.0 m, I.D. 0.32 mm, thickness 0.25 micrometer.
Retention time: 8.03 min.
m/z	relative intensity
22.563	6
40.022	6
44.028	11
56.336	8
57.071	999
57.175	7
57.212	6
58.074	50
58.983	7
65.089	6
65.166	5
85.066	126
86.07	10
95.086	19
112.089	23
113.097	44
136.18	4
157.134	7
170.129	9
211.127	7
213.149	88
214.157	276
215.165	576
216.168	82
217.168	9
