Mass spectrum: EPN-oxon; GC-EI-Q; MS; Positive
Name: EPN-oxon
Class: Non-Natural Product; Pesticides
Formula: C14H14NO5P
Exact mass: 307.06096
SMILES: CCOP(=O)(C1=CC=CC=C1)OC2=CC=C(C=C2)[N+](=O)[O-]
InChI: InChI=1S/C14H14NO5P/c1-2-19-21(18,14-6-4-3-5-7-14)20-13-10-8-12(9-11-13)15(16)17/h3-11H,2H2,1H3
Instrument: GCMS-QP2010 Plus, Shimadzu
Instrument type: GC-EI-Q
Ms type: MS
Ion mode: POSITIVE
Ionization: EI
Column name: Ptx-5MS(RESTEK), 0.32 mm I.D. x 30 m, df=0.25 microm
Retention time: 15.65 min
m/z	relative intensity
40	8
43	26
45	13
46	5
47	33
50	17
51	62
52	14
53	6
54	5
56	7
63	24
64	23
65	49
68	6
74	10
75	18
76	28
77	359
78	26
80	20
81	12
82	8
83	5
92	8
93	13
94	11
95	10
103	5
105	7
108	23
109	90
110	5
111	4
121	5
123	18
124	7
125	12
139	31
140	19
141	999
142	91
144	7
149	7
150	7
152	7
155	5
159	8
168	5
169	152
170	26
215	49
216	9
217	5
262	20
263	5
277	59
278	49
279	34
291	19
306	112
307	90
308	17
