Mass spectrum: (4S)-4-Methyl-6-benzyloxyhexanol; GC-FI-TOF; MS; positive; FI; 10 kV
Name: (4S)-4-Methyl-6-benzyloxyhexanol
Class: Non-natural product
Formula: C14H22O2
Exact mass: 222.16198
SMILES: C[C@@H](CCCO)CCOCC1=CC=CC=C1
InChI: InChI=1S/C14H22O2/c1-13(6-5-10-15)9-11-16-12-14-7-3-2-4-8-14/h2-4,7-8,13,15H,5-6,9-12H2,1H3/t13-/m0/s1
Instrument: JMS-T100GCV (JEOL, Akishima, Japan) coupled to Agilent 7890A (Agilent, Wilmington, USA) gas chromatograph.
Instrument type: GC-FI-TOF
Ms type: MS
Ion mode: POSITIVE
Ionization: FI
Column name: HP-5 19091 J-413 USD364547H (Agilent, Wilmington, USA), length 30.0 m, I.D. 0.32 mm, thickness 0.25 micrometer.
Retention time: 9.45 min.
m/z	relative intensity
31.018	8
91.055	10
107.050	5
131.108	2
186.135	2
204.156	2
221.156	3
221.951	2
222.162	999
222.834	3
223.165	156
223.941	2
224.168	18
224.468	2
225.085	1
225.170	2
