Mass spectrum: (4-(4-bromophenyl)-2-methylbutyl)(pentyl)sulfane; GC-EI-TOF; MS; POSITIVE; EI; 70 V
Name: (4-(4-bromophenyl)-2-methylbutyl)(pentyl)sulfane
Class: Non-natural compound
Formula: C16H25BrS
Exact mass: 328.08603
SMILES: CCCCCSCC(C)CCc1ccc(Br)cc1
InChI: InChI=1S/C16H25BrS/c1-3-4-5-12-18-13-14(2)6-7-15-8-10-16(17)11-9-15/h8-11,14H,3-7,12-13H2,1-2H3
Instrument: JMS-T100GCV (JEOL, Akishima, Japan) coupled to Agilent 7890A gas chromatograph.
Instrument type: GC-EI-TOF
Ms type: MS
Ion mode: POSITIVE
Ionization: EI
Column name: HP-5 30x0.32 0.25um 19091J-413, length 30.0 m, I.D. 0.32 mm, thickness 0.25 micrometer.
Retention time: 11.08 min.
m/z	relative intensity
27.024	94
28.006	26
28.031	12
29.04	165
30.043	4
31.99	15
34.996	5
38.016	3
39.024	80
40.031	12
41.04	417
41.321	1
42.047	94
42.098	2
43.055	379
44.059	13
44.98	56
45.988	28
46.996	101
47.051	1
48.003	7
48.992	4
49.011	5
50.016	12
51.024	29
52.031	8
53.04	30
54.047	7
55.055	147
56.062	14
57.071	8
57.989	3
58.996	23
60.004	27
61.012	587
61.165	1
61.352	1
61.397	2
62.015	23
63.024	36
64.032	16
65.04	24
66.045	2
67.055	21
68.063	10
69.071	510
69.427	1
69.48	2
70.078	201
70.996	5
71.085	30
73.012	14
74.019	25
75.027	93
75.099	1
76.032	21
77.04	111
78.047	45
79.054	10
85.012	6
87.027	20
88.033	6
89.04	186
89.175	3
90.048	280
91.055	177
92.059	14
101.043	91
101.127	1
102.049	59
103.057	306
104.065	256
105.07	49
106.066	6
115.056	71
116.063	83
117.074	268
118.079	39
118.934	2
119.075	11
121.012	7
122.02	19
123.027	23
124.028	2
127.056	11
128.063	40
129.071	109
130.078	65
131.087	42
132.091	5
134.021	3
135.028	22
136.034	8
137.042	5
141.071	4
142.079	3
142.951	5
143.087	40
144.094	137
144.949	5
145.102	662
145.696	2
146.106	81
147.11	6
149.043	3
154.951	2
155.958	3
156.951	2
157.106	7
157.956	3
158.109	2
159.121	26
160.124	3
161.125	2
163.059	8
168.966	999
169.609	3
169.97	88
170.535	2
170.964	974
171.536	3
171.968	88
172.536	2
172.973	5
177.074	37
178.081	17
179.088	12
180.09	2
180.967	3
181.974	704
182.644	2
182.98	211
183.598	2
183.972	689
184.599	3
184.978	203
185.615	2
185.983	16
193.105	5
194.109	2
194.981	26
195.117	2
195.988	7
196.98	25
197.986	7
200.938	5
202.936	5
207.118	2
208.997	17
210.005	28
210.998	19
212.003	28
213.009	4
215.943	2
223.012	58
224.019	89
225.012	64
226.018	87
227.022	11
228.032	4
237.028	2
249.169	4
255.991	28
257.0	275
258.002	86
258.998	286
260.003	71
260.124	1
260.999	16
262.0	3
271.016	5
273.014	5
327.078	9
328.086	428
328.883	1
329.088	83
330.084	445
330.935	2
331.087	79
332.083	24
333.083	4
