Mass spectrum: Daidzein; ESI-QTOF; MS2; POSITIVE; [M+H]+; CID; 40 V
Name: Daidzein
Class: 7-Hydroxyisoflavone
Formula: C15H10O4
Exact mass: 254.05791
SMILES: C1=CC(=CC=C1C2=COC3=C(C2=O)C=CC(=C3)O)O
InChI: InChI=1S/C15H10O4/c16-10-3-1-9(2-4-10)13-8-19-14-7-11(17)5-6-12(14)15(13)18/h1-8,16-17H
Instrument: X500R QTOF (AB Sciex LLC, USA)
Instrument type: ESI-QTOF
Ms type: MS2
Ion mode: POSITIVE
Collision energy: 40 V
Fragmentation mode: CID
Ionization: ESI
Precursor m/z: 255.06519
Precursor type: [M+H]+
m/z	relative intensity
55.0175	105
65.0383	148
68.9969	70
81.0333	106
91.054	831
105.0334	58
119.0489	168
121.0282	83
128.0618	239
129.0696	152
131.049	85
137.023	999
143.0854	88
145.0282	106
152.0618	297
153.0696	539
157.0646	147
171.0803	167
181.0645	999
184.0518	113
197.0597	108
199.0751	969
227.0702	328
237.0547	198
255.0652	459
