Mass spectrum: Dehydroeburicoic acid; ESI-QTOF; MS2; POSITIVE; [M+H]+; CID; 60 V
Name: Dehydroeburicoic acid
Class: Non-natural product; Bile acid
Formula: C31H48O3
Exact mass: 468.36035
SMILES: CC(C)C(=C)CC[C@H]([C@H]1CC[C@@]2([C@@]1(CC=C3C2=CC[C@@H]4[C@@]3(CC[C@@H](C4(C)C)O)C)C)C)C(=O)O
InChI: InChI=1S/C31H48O3/c1-19(2)20(3)9-10-21(27(33)34)22-13-17-31(8)24-11-12-25-28(4,5)26(32)15-16-29(25,6)23(24)14-18-30(22,31)7/h11,14,19,21-22,25-26,32H,3,9-10,12-13,15-18H2,1-2,4-8H3,(H,33,34)/t21-,22-,25+,26+,29-,30-,31+/m1/s1
Instrument: X500R QTOF (AB Sciex LLC, USA)
Instrument type: ESI-QTOF
Ms type: MS2
Ion mode: POSITIVE
Collision energy: 60 V
Fragmentation mode: CID
Ionization: ESI
Precursor m/z: 469.367622
Precursor type: [M+H]+
m/z	relative intensity
43.0553	41
53.0398	16
55.0554	481
57.0349	21
57.0712	113
65.04	38
67.0556	310
69.0713	293
71.0869	29
77.04	141
79.0557	294
81.0714	418
83.087	140
91.0558	538
93.0714	493
95.0871	617
97.0663	28
97.1027	99
103.0558	38
105.0714	840
107.087	679
109.1027	367
111.082	71
115.0558	45
116.0637	19
117.0714	202
119.0871	999
121.1027	336
123.082	27
123.1184	90
128.0636	69
129.0715	149
130.0793	69
131.0871	496
133.1027	723
135.0821	35
135.1183	196
141.0714	53
142.0792	126
143.0871	326
144.0949	136
145.1028	762
147.082	28
147.1184	422
149.1341	45
155.0871	118
156.0949	116
157.1027	448
158.1105	108
159.1184	838
161.1341	200
167.0871	33
168.095	34
169.1028	184
170.1106	74
171.1184	334
172.1263	66
173.1341	292
175.1496	70
181.1027	70
182.1106	46
183.1184	205
184.126	52
185.1341	199
186.1418	39
187.1497	155
189.1655	99
195.1183	92
196.1263	51
197.1342	152
199.1497	149
201.1654	180
209.1342	91
210.1418	48
211.1497	150
213.1655	100
223.1496	91
225.1655	140
227.1813	66
237.1655	74
239.1812	83
253.1968	44
265.197	57
