Mass spectrum: (4R)-4-Methyl-6-heptenyl pivalate; GC-EI-TOF; MS; positive; EI; 70 V
Name: (4R)-4-Methyl-6-heptenyl pivalate
Class: Non-natural product
Formula: C13H24O2
Exact mass: 212.17763
SMILES: C=CCC[C@@H](C)CCOC(=O)C(C)(C)C
InChI: InChI=1S/C13H24O2/c1-6-7-8-11(2)9-10-15-12(14)13(3,4)5/h6,11H,1,7-10H2,2-5H3/t11-/m1/s1
Instrument: JMS-T100GCV (JEOL, Akishima, Japan) coupled to Agilent 7890A (Agilent, Wilmington, USA) gas chromatograph.
Instrument type: GC-EI-TOF
Ms type: MS
Ion mode: POSITIVE
Ionization: EI
Column name: HP-5 19091 J-413 USD364547H (Agilent, Wilmington, USA), length 30 m, I.D. 0.32 mm, thickness 0.25 micrometer.
Retention time: 8.17 min.
m/z	relative intensity
26.016	5
27.024	50
28.006	37
28.031	17
29.003	4
29.039	135
29.085	1
29.102	1
30.043	3
31.019	4
31.990	13
34.969	2
35.977	8
37.008	2
37.974	3
38.016	4
39.024	112
39.073	1
39.963	1
40.031	19
41.039	448
41.091	4
41.166	1
41.319	1
41.354	1
41.552	1
41.604	1
41.819	1
42.046	55
43.019	8
43.055	37
43.101	1
43.990	12
44.027	1
44.058	2
45.034	3
50.016	4
51.024	8
52.031	4
53.039	37
54.047	93
54.075	1
54.100	1
54.140	1
55.018	2
55.055	301
55.115	3
55.199	1
55.363	1
55.385	1
55.416	1
55.672	1
56.062	134
56.124	2
56.171	1
57.035	3
57.071	999
57.132	9
57.341	2
57.403	2
57.443	3
57.697	2
58.042	1
58.074	40
58.202	1
58.266	1
58.295	1
58.545	1
58.574	1
58.596	1
59.050	7
59.078	1
63.023	1
65.039	7
66.047	6
67.055	159
67.122	2
67.183	1
68.063	390
68.130	4
68.411	1
68.470	1
68.736	1
69.034	13
69.070	346
69.133	4
69.368	1
69.432	1
69.479	1
69.717	1
69.753	1
70.042	12
70.074	19
70.135	1
71.050	10
71.082	1
72.053	1
73.048	13
75.046	1
77.039	9
78.047	4
79.055	16
80.063	14
81.071	464
81.144	4
81.467	1
81.515	1
81.801	1
81.857	1
82.078	155
82.147	2
82.432	1
82.482	1
82.536	1
82.825	1
83.050	2
83.085	22
83.166	1
84.091	2
85.065	129
85.129	1
85.195	1
86.069	7
87.045	6
87.080	1
91.055	11
92.060	1
93.071	8
94.077	2
95.086	284
95.165	3
95.278	1
95.531	1
95.863	1
95.884	1
96.090	20
97.098	2
99.079	2
103.076	135
103.160	2
103.222	1
104.079	7
105.074	2
107.085	1
108.093	1
109.102	14
110.110	104
110.251	1
111.116	17
112.088	1
112.121	1
113.097	4
115.076	1
118.997	4
119.500	1
125.097	2
127.113	1
128.121	1
129.092	7
130.097	1
133.015	3
135.063	18
136.065	3
137.097	2
146.939	1
147.066	3
149.015	4
149.076	1
149.514	1
150.008	1
154.078	5
155.107	5
156.006	4
156.115	1
156.506	1
157.007	1
157.123	2
158.020	5
158.521	1
159.021	1
164.982	1
165.027	1
165.070	1
165.531	3
169.160	1
176.984	2
181.014	2
186.954	1
191.001	2
193.009	1
195.031	4
196.034	1
197.079	3
207.033	4
209.043	2
221.085	1
222.970	3
224.985	1
239.003	3
240.003	1
248.987	2
