Mass spectrum: GlcNAcAsn; ESI-QQ; MS2; Negative; [M-H]-; CID; CE: 10 eV
Name: GlcNAcAsn
Name: N4-(beta-N-Acetyl-D-glucosaminyl)-L-asparagine
Name: Beta-D-GlcNAc-1->N-Asn
Class: Non-natural product.
Formula: C12H21N3O8
Exact mass: 335.132865
SMILES: CC(=O)N[C@@H]1[C@H]([C@@H]([C@H](O[C@H]1NC(=O)C[C@@H](C(=O)O)N)CO)O)O
InChI: InChI=1S/C12H21N3O8/c1-4(17)14-8-10(20)9(19)6(3-16)23-11(8)15-7(18)2-5(13)12(21)22/h5-6,8-11,16,19-20H,2-3,13H2,1H3,(H,14,17)(H,15,18)(H,21,22)/t5-,6+,8+,9+,10+,11+/m0/s1
Instrument: Triple Quad 4500 (AB Sciex Pte. Ltd., USA)
Instrument type: LC-ESI-QQ
Ms type: MS2
Ion mode: NEGATIVE
Collision energy: 10 eV
Fragmentation mode: CID
Ionization: ESI
Precursor m/z: 334.125578
Precursor type: [M-H]-
m/z	relative intensity
112.8749	18
118.9503	2
178.8878	2
195.922	22
201.7929	2
213.9592	12
298.9515	7
315.9957	234
334.0177	999
