Mass spectrum: Tebufenozide; LC-ESI-QTOF; MS2; [M+H]+; CID; CE 20V
Name: Tebufenozide
Class: Non-natural product
Formula: C22H28N2O2
Exact mass: 352.215078
SMILES: CCC1=CC=C(C=C1)C(=O)NN(C(=O)C2=CC(=CC(=C2)C)C)C(C)(C)C
InChI: InChI=1S/C22H28N2O2/c1-7-17-8-10-18(11-9-17)20(25)23-24(22(4,5)6)21(26)19-13-15(2)12-16(3)14-19/h8-14H,7H2,1-6H3,(H,23,25)
Instrument: X500R QTOF (AB Sciex LLC, MA, USA) coupled to ExionLC AD (AB Sciex LLC, MA, USA).
Instrument type: LC-ESI-QTOF
Ms type: MS2
Ion mode: POSITIVE
Collision energy: 20 V
Fragmentation mode: CID
Ionization: ESI
Column name: TSKgel ODS-100S 5 um, 2.1 mm Ã— 250 mm, TOSOH
Retention time: 15.1 min
Precursor m/z: 353.222355
Precursor type: [M+H]+
m/z	relative intensity
105.0696	30
133.0644	999
297.1594	152
