Mass spectrum: Soyasaponin I; ESI-QTOF; MS2; NEGATIVE; [M-H]-; CID; 60 V
Name: Soyasaponin I
Class: Triterpenoid saponin
Formula: C48H78O18
Exact mass: 942.51882
SMILES: C[C@H]1[C@@H]([C@H]([C@H]([C@@H](O1)O[C@@H]2[C@H]([C@H]([C@H](O[C@H]2O[C@@H]3[C@H]([C@@H]([C@H](O[C@H]3O[C@H]4CC[C@]5([C@H]([C@@]4(C)CO)CC[C@@]6([C@@H]5CC=C7[C@]6(CC[C@@]8([C@H]7CC(C[C@H]8O)(C)C)C)C)C)C)C(=O)O)O)O)CO)O)O)O)O)O
InChI: InChI=1S/C48H78O18/c1-21-29(52)31(54)35(58)40(61-21)65-37-32(55)30(53)24(19-49)62-41(37)66-38-34(57)33(56)36(39(59)60)64-42(38)63-28-12-13-45(5)25(46(28,6)20-50)11-14-48(8)26(45)10-9-22-23-17-43(2,3)18-27(51)44(23,4)15-16-47(22,48)7/h9,21,23-38,40-42,49-58H,10-20H2,1-8H3,(H,59,60)/t21-,23-,24+,25+,26+,27+,28-,29-,30-,31+,32-,33-,34-,35+,36-,37+,38+,40-,41-,42+,44+,45-,46+,47+,48+/m0/s1
Instrument: X500R QTOF (AB Sciex LLC, USA)
Instrument type: ESI-QTOF
Ms type: MS2
Ion mode: NEGATIVE
Collision energy: 60 V
Fragmentation mode: CID
Ionization: ESI
Precursor m/z: 941.51154
Precursor type: [M-H]-
m/z	relative intensity	assigned
85.0289	8	
89.0237	6	
99.008	5	
101.0237	8	
103.0393	6	
113.0236	9	
119.0341	10	
131.0341	5	
139.0028	7	
143.034	11	[C6H12O4-5H]-
157.0133	8	
161.0446	7	
163.0602	22	[C6H12O5-H]-
205.0706	30	[C8H16O6-3H]-
247.081	10	[C10H18O7-3H]-
457.3668	13	[C30H50O3-H]-
615.3879	42	[C36H58O8-3H]-
733.4505	27	[C41H68O11-3H]-
879.5078	31	[C47H80O15-5H]-
923.4972	44	[C48H78O17-3H]-
941.5062	999	[C48H78O18-H]-
