Mass spectrum: p,p'-DDT; GC-EI-Q; MS; Positive
Name: p,p'-DDT
Name: Clofenotane
Class: Non-Natural Product; Pesticides
Formula: C14H9Cl5
Exact mass: 351.91469
SMILES: C1=CC(=CC=C1C(C2=CC=C(C=C2)Cl)C(Cl)(Cl)Cl)Cl
InChI: InChI=1S/C14H9Cl5/c15-11-5-1-9(2-6-11)13(14(17,18)19)10-3-7-12(16)8-4-10/h1-8,13H
Instrument: GCMS-QP2010 Plus, Shimadzu
Instrument type: GC-EI-Q
Ms type: MS
Ion mode: POSITIVE
Ionization: EI
Column name: Ptx-5MS(RESTEK), 0.32 mm I.D. x 30 m, df=0.25 microm
Retention time: 15.45 min
Ion type: [M]+*
Precursor m/z: 351.91
m/z	relative intensity
40	12
44	32
50	39
51	37
62	19
63	37
69	11
73	23
74	51
75	134
76	32
77	17
81	27
82	96
83	21
85	21
87	44
88	121
89	28
92	9
93	29
94	11
98	11
99	24
100	28
101	55
102	26
103	7
105	79
106	78
107	9
109	8
110	20
111	32
112	15
113	17
114	13
115	7
117	11
122	11
123	73
124	38
125	41
126	21
135	17
136	77
137	45
138	37
139	28
140	13
141	7
147	10
149	24
150	40
151	33
152	16
160	14
161	8
162	12
163	82
164	96
165	648
166	103
167	7
170	15
171	17
172	13
173	23
174	32
175	40
176	168
177	59
178	50
179	13
182	25
186	7
189	26
191	14
199	182
200	107
201	87
202	30
203	13
206	9
210	24
211	14
212	187
213	47
214	57
215	8
233	11
234	9
235	999
236	225
237	650
238	153
239	400
240	27
246	120
247	58
248	92
249	41
250	39
281	18
282	82
283	32
284	73
286	27
316	38
317	10
318	68
319	12
320	44
321	10
322	18
352	14
354	10
356	10
