Mass spectrum: Succinic acid; GC-EI-QQ; MS2; POSITIVE; CID 5 V; 2 TMS-derivative; [M-15]+
Name: Succinic acid
Class: Natural Product
Formula: C4H6O4
Exact mass: 118.02661
SMILES: OC(=O)CCC(O)=O
InChI: InChI=1S/C4H6O4/c5-3(6)1-2-4(7)8/h1-2H2,(H,5,6)(H,7,8)
Instrument: GCMS-TQ8040 (Shimadzu, Kyoto, Japan)
Instrument type: GC-EI-QQ
Ms type: MS2
Ion mode: POSITIVE
Collision energy: 5 V
Fragmentation mode: CID
Column name: DB-5MS+DG (Agilent Technologies, Santa Clara, CA, USA)
Derivative form: C10H22O4Si2
Derivative mass: 262.10566
Derivative type: 2 TMS
Precursor m/z: 247.08164
m/z	relative intensity
73.1	10
147.1	999
149.1	30
247.1	175
