Mass spectrum: 2-Hydroxyethidium; ESI-QQ; MS2; [M]+, CID, CE 30 V
Name: 2-Hydroxyethidium
Class: Non-natural product
Formula: [C21H20N3O]+
Exact mass: 330.16009
SMILES: CC[n+]1c2cc(c(cc2c3ccc(cc3c1c4ccccc4)N)O)N
InChI: InChI=1S/C21H19N3O/c1-2-24-19-12-18(23)20(25)11-16(19)15-9-8-14(22)10-17(15)21(24)13-6-4-3-5-7-13/h3-12,23,25H,2,22H2,1H3/p+1
Instrument: LCMS-8045 (Shimadzu, Kyoto, Japan)
Instrument type: LC-ESI-QQ
Ms type: MS2
Ion mode: POSITIVE
Collision energy: 30 V
Fragmentation mode: CID
Ionization: ESI
Precursor m/z: 330.16009
Precursor type: [M]+
m/z	relative intensity
196.95	51
224.15	64
256	53
257.15	130
285.05	300
301.1	999
302.1	513
314.05	54
