Mass spectrum: 1-(9Z-Octadecenoyl)-sn-glycero-3-phosphocholine; MALDI-QITTOF; MS3; POSITIVE; [M+H+O]+; Low-energy CID
Name: Lyso-PC 18:1(9Z)
Name: 1-(9Z-Octadecenoyl)-sn-glycero-3-phosphocholine
Class: Natural product; Phospholipid
Formula: C26H52NO7P
Exact mass: 521.3481
SMILES: CCCCCCCC/C=C\CCCCCCCC(=O)OC[C@H](COP(=O)([O-])OCC[N+](C)(C)C)O
InChI: InChI=1S/C26H52NO7P/c1-5-6-7-8-9-10-11-12-13-14-15-16-17-18-19-20-26(29)32-23-25(28)24-34-35(30,31)33-22-21-27(2,3)4/h12-13,25,28H,5-11,14-24H2,1-4H3/b13-12-/t25-/m1/s1
Instrument: MALDI-QITTOF noncommercial prototype model (Shimadzu Corporation, Kyoto, Japan)
Instrument type: MALDI-QITTOF
Ms type: MS3
Ion mode: POSITIVE
Fragmentation mode: CID
Ionization: MALDI
Precursor m/z: 538.3503
Precursor type: [M+H+O]+
m/z	relative intensity
184.073	999
226.083	5
344.488	36
351.287	38
359.056	10
388.226	20
425.27	16
453.708	11
471.019	2
