Mass spectrum: 1-(9Z-Octadecenoyl)-sn-glycero-3-phosphocholine; MALDI-QITTOF; MS2; POSITIVE; [M+H]+; RID
Name: Lyso-PC 18:1(9Z)
Name: 1-(9Z-Octadecenoyl)-sn-glycero-3-phosphocholine
Class: Natural product; Phospholipid
Formula: C26H52NO7P
Exact mass: 521.3481
SMILES: CCCCCCCC/C=C\CCCCCCCC(=O)OC[C@H](COP(=O)([O-])OCC[N+](C)(C)C)O
InChI: InChI=1S/C26H52NO7P/c1-5-6-7-8-9-10-11-12-13-14-15-16-17-18-19-20-26(29)32-23-25(28)24-34-35(30,31)33-22-21-27(2,3)4/h12-13,25,28H,5-11,14-24H2,1-4H3/b13-12-/t25-/m1/s1
Instrument: MALDI-QITTOF noncommercial prototype model (Shimadzu Corporation, Kyoto, Japan)
Instrument type: MALDI-QITTOF
Ms type: MS2
Ion mode: POSITIVE
Fragmentation mode: RID
Ionization: MALDI
Ion type: [M+H]+
Precursor m/z: 522.3554
m/z	relative intensity
302.13	6
306.015	7
306.99	10
308.048	8
309.016	11
314.085	9
321.007	5
323.011	5
331.106	7
336.024	5
336.993	8
339.291	9
342.141	13
351.006	8
367.066	5
380.175	7
383.202	13
397.192	8
398.193	71
399.196	11
401.176	5
406.192	6
412.211	108
413.219	19
415.199	163
416.205	21
424.209	49
425.221	157
425.405	7
426.227	51
438.221	20
439.212	7
440.205	27
444.143	4
457.205	57
458.212	14
468.212	10
499.041	5
504.348	3
505.359	1
513.247	1
514.156	1
515.21	4
516.193	3
517.256	7
518.07	3
518.313	15
519.102	12
519.299	13
520.339	169
520.543	6
520.82	1
521.129	14
521.34	68
521.544	1
521.881	2
522.355	999
522.56	35
522.857	10
523.141	22
523.358	285
523.576	9
523.887	8
524.158	15
524.362	45
525.315	15
526.062	5
526.241	8
527.062	12
527.228	14
528.07	6
528.256	7
529.058	12
529.224	12
530.261	6
531.172	15
532.243	7
533.182	11
534.282	8
535.243	12
536.332	36
537.202	10
537.329	15
538.346	218
538.56	6
538.842	1
539.123	10
539.351	58
539.572	1
539.907	1
540.149	6
540.343	7
541.229	6
542.049	2
542.277	3
543.212	5
544.046	2
544.194	2
545.077	3
545.184	3
546.135	2
547.161	3
548.241	2
549.188	2
