Mass spectrum: Isoprothiolane; GC-EI-Q; MS; Positive; M+*
Name: Isoprothiolane
Class: Non-Natural Product; Pesticides
Formula: C12H18O4S2
Exact mass: 290.06465
SMILES: CC(C)OC(=O)C(C(=O)OC(C)C)=C(S1)SCC1
InChI: InChI=1S/C12H18O4S2/c1-7(2)15-10(13)9(11(14)16-8(3)4)12-17-5-6-18-12/h7-8H,5-6H2,1-4H3
Instrument: GCMS-QP2010 Plus, Shimadzu
Instrument type: GC-EI-Q
Ms type: MS
Ion mode: POSITIVE
Ionization: EI
Column name: Ptx-5MS(RESTEK), 0.32 mm I.D. x 30 m, df=0.25 microm
Retention time: 12.9 min
Ion type: [M]+*
Precursor m/z: 290.1
m/z	relative intensity
40	8
41	342
42	60
43	606
44	38
45	136
46	5
47	7
55	7
57	13
58	40
59	79
60	103
61	126
62	9
63	5
69	11
71	17
73	7
74	16
76	18
77	15
84	26
85	99
86	26
87	9
88	45
89	96
90	9
91	6
92	5
93	16
99	5
102	26
103	15
104	5
105	44
106	5
113	5
115	7
116	158
117	26
118	999
119	60
120	94
121	11
122	5
129	44
130	5
131	9
133	29
134	132
135	7
136	15
143	13
144	70
145	210
146	43
147	40
159	16
160	136
161	32
162	678
163	50
164	60
172	6
173	36
176	34
177	5
178	148
179	9
180	13
187	10
189	478
190	45
191	47
204	377
205	41
206	62
208	5
220	5
231	228
232	30
233	24
248	6
290	322
291	42
292	32
293	5
