Mass spectrum: Malic acid-[1,2,3,4-13C4]; GC-EI-QQ; MS2; CID 5 V; POSITIVE; 3 TMS-derivative; [M-118]+
Name: Malic acid-[1,2,3,4-13C4]
Class: In vitro synthetic compound
Formula: C4H6O5
Exact mass: 134.02153
SMILES: C(C(C(=O)O)O)C(=O)O
InChI: InChI=1S/C4H6O5/c5-2(4(8)9)1-3(6)7/h2,5H,1H2,(H,6,7)(H,8,9)/i1+1,2+1,3+1,4+1
Instrument: GCMS-TQ8040 (Shimadzu, Kyoto, Japan)
Instrument type: GC-EI-QQ
Ms type: MS2
Ion mode: POSITIVE
Collision energy: 5 V
Fragmentation mode: CID
Column name: DB-5MS+DG (Agilent Technologies, Santa Clara, CA, USA)
Derivative form: C13H30O5Si3
Derivative mass: 350.14011
Derivative type: 3 TMS
Precursor m/z: 236.11243
m/z	relative intensity	assigned
73.05	641	
91.05	62	
103.05	25	C2(13C2)H9OSi+
118.05	110	C3(13C)H9O2Si+
146.1	12	
191.15	999	C5(13C2)H17O2Si2+
192.1	367	
236.1	952	C6(13C3)H21O3Si2+
