Mass spectrum: Methyl [(1S)-1,2-dimethyl-2,3-epoxycyclopent-1-yl]acetate; GC-FI-TOF; MS; positive; FI; 10 kV
Name: Methyl [(1S)-1,2-dimethyl-2,3-epoxycyclopent-1-yl]acetate
Class: Non-natural product
Formula: C10H16O3
Exact mass: 184.10994
SMILES: CC12OC1CC[C@@]2(C)CC(=O)OC
InChI: InChI=1S/C10H16O3/c1-9(6-8(11)12-3)5-4-7-10(9,2)13-7/h7H,4-6H2,1-3H3/t7?,9-,10?/m0/s1
Instrument: JMS-T100GCV (JEOL, Akishima, Japan) coupled to Agilent 7890A (Agilent, Wilmington, USA) gas chromatograph.
Instrument type: GC-FI-TOF
Ms type: MS
Ion mode: POSITIVE
Ionization: FI
Column name: HP-5 19091 J-413 USD364547H (Agilent, Wilmington, USA), length 30.0 m, I.D. 0.32 mm, thickness 0.25 micrometer.
Retention time: 7.3 min.
m/z	relative intensity
110.072	56
111.078	41
125.096	58
127.076	9
152.084	72
153.091	11
166.099	149
167.102	21
168.824	8
184.110	999
185.115	117
186.117	15
