Mass spectrum: Tralkoxydim; LC-ESI-QTOF; MS; ESI; NEGATIVE
Name: Tralkoxydim
Class: Non-natural product
Formula: C20H27NO3
Exact mass: 329.19909
SMILES: CCON=C(CC)C1=C(O)CC(c2c(C)cc(C)cc2C)CC1=O
InChI: InChI=1S/C20H27NO3/c1-6-16(21-24-7-2)20-17(22)10-15(11-18(20)23)19-13(4)8-12(3)9-14(19)5/h8-9,15,22H,6-7,10-11H2,1-5H3
Instrument: ExionLC AD, AB Sciex LLC, USA; X500R QTOF, AB Sciex LLC, USA.
Instrument type: LC-ESI-QTOF
Ms type: MS
Ion mode: NEGATIVE
Ionization: ESI
Column name: AQ-C18HP 3 microm, 2.1 mm Ã— 150 mm, GL Science (Tokyo Japan)
Retention time: 11.25, 11.54 min
m/z	relative intensity
328.1908	999
329.1953	232
