Mass spectrum: Genistein; ESI-QTOF; MS2; NEGATIVE; [M-H]-; CID; 50 V
Name: Genistein
Class: 7-hydroxyisoflavone
Formula: C15H10O5
Exact mass: 270.05282
SMILES: C1=CC(=CC=C1C2=COC3=CC(=CC(=C3C2=O)O)O)O
InChI: InChI=1S/C15H10O5/c16-9-3-1-8(2-4-9)11-7-20-13-6-10(17)5-12(18)14(13)15(11)19/h1-7,16-18H
Instrument: X500R QTOF (AB Sciex LLC, USA)
Instrument type: ESI-QTOF
Ms type: MS2
Ion mode: NEGATIVE
Collision energy: 50 V
Fragmentation mode: CID
Ionization: ESI
Precursor m/z: 269.04555
Precursor type: [M-H]-
m/z	relative intensity
41.0031	352
63.0238	763
65.0031	637
77.0395	120
83.0137	60
89.0395	76
91.0188	249
105.0345	179
107.0138	248
117.0346	216
131.0502	97
132.0217	775
133.0295	999
134.0373	370
135.0451	402
157.0295	142
159.0452	252
180.0582	139
