Mass spectrum: Pyraclonil; ESI-QTOF; MS2; POSITIVE; [M+H]+; CID; 40 V
Name: Pyraclonil
Class: Non-natural product
Formula: C15H15ClN6
Exact mass: 314.10465
SMILES: CN(CC#C)C1=C(C=NN1C2=NN3CCCCC3=C2Cl)C#N
InChI: InChI=1S/C15H15ClN6/c1-3-7-20(2)15-11(9-17)10-18-22(15)14-13(16)12-6-4-5-8-21(12)19-14/h1,10H,4-8H2,2H3
Instrument: X500R QTOF (AB Sciex Pte. Ltd, USA)
Instrument type: ESI-QTOF
Ms type: MS2
Ion mode: POSITIVE
Collision energy: 40 V
Fragmentation mode: CID
Ionization: ESI
Precursor m/z: 315.11193
Precursor type: [M+H]+
m/z	relative intensity
123.092	17
156.0455	24
169.0528	999
214.1093	78
239.1048	42
241.1203	160
248.0705	67
275.0816	60
