Mass spectrum: 2-[(1S,2S)-1,2-Dimethyl-3-methylenecyclopentyl]acetaldehyde; GC-EI-TOF; MS; positive; EI; 70 V
Name: 2-[(1S,2S)-1,2-Dimethyl-3-methylenecyclopentyl]acetaldehyde
Class: Non-natural product
Formula: C10H16O
Exact mass: 152.12012
SMILES: C[C@H]1C(=C)CC[C@@]1(C)CC=O
InChI: InChI=1S/C10H16O/c1-8-4-5-10(3,6-7-11)9(8)2/h7,9H,1,4-6H2,2-3H3/t9-,10-/m0/s1
Instrument: JMS-T100GCV (JEOL, Akishima, Japan) coupled to Agilent 7890A (Agilent, Wilmington, USA) gas chromatograph.
Instrument type: GC-EI-TOF
Ms type: MS
Ion mode: POSITIVE
Ionization: EI
Column name: HP-5 19091 J-413 USD364547H (Agilent, Wilmington, USA), length 30 m, I.D. 0.32 mm, thickness 0.25 micrometer.
Retention time: 6.42 min.
m/z	relative intensity
26.016	5
27.024	137
27.063	2
28.006	32
28.031	22
29.003	48
29.040	88
29.083	1
31.019	3
31.990	11
38.016	7
39.024	221
40.031	63
41.039	391
42.011	4
42.046	30
43.019	26
43.055	61
44.027	4
50.016	13
51.024	48
52.032	23
53.040	179
54.047	31
55.019	5
55.055	168
55.112	2
56.061	17
57.034	5
57.071	11
62.016	3
63.024	12
64.031	3
65.040	64
66.047	21
67.055	389
68.062	102
69.034	12
69.071	134
69.133	2
70.042	8
70.075	9
71.050	16
77.040	126
77.106	1
78.046	23
79.055	153
80.062	28
81.035	7
81.071	148
82.042	24
82.078	63
83.050	29
83.086	17
84.057	15
85.065	4
91.055	153
92.061	29
93.071	608
93.259	1
93.497	1
93.548	2
93.873	1
94.076	70
94.154	1
95.050	30
95.086	140
95.498	1
96.057	10
96.090	12
97.065	10
98.073	4
103.055	6
105.071	37
106.078	27
107.086	94
107.165	1
108.094	999
108.608	3
109.065	32
109.100	257
110.072	9
110.107	40
111.081	6
117.071	4
119.086	55
120.090	5
121.102	21
122.105	2
123.081	14
123.117	16
124.087	2
124.122	2
134.109	20
137.097	23
152.120	3
