Mass spectrum: N-Ethylglycine; GC-FI-TOF; MS; POSITIVE; FI; 10 kV; TFA, TMS
Name: N-Ethylglycine
Class: Non-natural compound
Formula: C4H9NO2
Exact mass: 103.0633285
SMILES: CCNCC(=O)O
InChI: InChI=1S/C4H9NO2/c1-2-5-3-4(6)7/h5H,2-3H2,1H3,(H,6,7)
Instrument: JMS-T100GCV (JEOL, Akishima, Japan) coupled to Agilent 7890A (Santa Clara, CA, USA) gas chromatograph.
Instrument type: GC-FI-TOF
Ms type: MS
Ion mode: POSITIVE
Ionization: FI
Column name: DB-5MS UI 122-5532UI US0462866H (Agilent, Wilmington, USA) with the length 30 m, I.D. 0.25 mm, and thickness 0.25 micrometer.
Retention time: 7.41 min.
Derivative form: C9H16F3NO3Si
Derivative mass: 271.08515
Derivative type: TFA, TMS
m/z	relative intensity
73.048	303
74.049	21
75.047	11
117.038	617
118.039	58
119.035	25
154.049	999
155.052	61
227.096	31
256.062	135
257.064	25
258.056	10
271.085	833
272.087	152
273.083	45
