Mass spectrum: Malic acid-[4-13C]; GC-EI-QQ; MS2; CID 5 V; POSITIVE; 3 TMS-derivative; [M-15]+
Name: Malic acid-[4-13C]
Class: In vitro synthetic compound
Formula: C4H6O5
Exact mass: 134.02153
SMILES: C(C(C(=O)O)O)[13C](=O)O
InChI: InChI=1S/C4H6O5/c5-2(4(8)9)1-3(6)7/h2,5H,1H2,(H,6,7)(H,8,9)/i3+1
Instrument: GCMS-TQ8040 (Shimadzu, Kyoto, Japan)
Instrument type: GC-EI-QQ
Ms type: MS2
Ion mode: POSITIVE
Collision energy: 5 V
Fragmentation mode: CID
Column name: DB-5MS+DG (Agilent Technologies, Santa Clara, CA, USA)
Derivative form: C13H30O5Si3
Derivative mass: 350.14011
Derivative type: 3 TMS
Precursor m/z: 336.11944
m/z	relative intensity	assigned
54.95	18	
73	208	
118.15	50	C3(13C)H9O2Si+
144.05	22	
147.1	999	
149.1	10	
172.1	91	
174.05	11	
175.1	84	
218.1	54	
221.15	12	
246.05	46	
263.2	464	
265.15	371	C9H25O3Si3+
308.2	629	C10(13C)H27O4Si3+
320.1	80	
336.1	373	
