Mass spectrum: Leucinostatin Y; ESI-ITFT; MS2; NEGATIVE; [M-H]-; CE 85 %
Name: Leucinostatin Y
Class: Natural product; modulator of tumor-stroma interaction
Formula: C60H104N10O15
Exact mass: 1204.7682
SMILES: O=C(O)C(C)NC(=O)CCNC(=O)C(C)(C)NC(=O)C(C)(C)NC(=O)[C@H](CC(C)C)NC(=O)[C@H](CC(C)C)NC(=O)C(C)(C)NC(=O)[C@@H](NC(=O)[C@H](CC(C)CC(O)CC(=O)CC)NC(=O)[C@@H]1C[C@H](C)CN1C(=O)/C=C/C(C)CC)C(O)C(C)C
InChI: InChI=1S/C60H104N10O15/c1-19-35(9)21-22-46(74)70-31-37(11)29-44(70)52(79)64-43(28-36(10)27-40(72)30-39(71)20-2)50(77)66-47(48(75)34(7)8)53(80)68-59(15,16)56(84)65-41(25-32(3)4)49(76)63-42(26-33(5)6)51(78)67-60(17,18)57(85)69-58(13,14)55(83)61-24-23-45(73)62-38(12)54(81)82/h21-22,32-38,40-44,47-48,72,75H,19-20,23-31H2,1-18H3,(H,61,83)(H,62,73)(H,63,76)(H,64,79)(H,65,84)(H,66,77)(H,67,78)(H,68,80)(H,69,85)(H,81,82)/b22-21+/t35?,36?,37-,38?,40?,41-,42-,43-,44-,47-,48?/m0/s1
Instrument: LTQ Orbitrap XL hybrid iontrap-Orbitrap (Thermo Fisher Scientific, San Jose, CA, USA)
Instrument type: LC-ESI-ITFT
Ms type: MS2
Ion mode: NEGATIVE
Collision energy: 85 % (nominal)
Fragmentation mode: HCD
Ionization: ESI
Ion type: [M-H]-
Precursor m/z: 1203.7609
m/z	relative intensity
85.0297	75
88.0406	430
98.0613	104
111.0564	82
112.0404	206
142.0508	597
143.0541	30
159.0773	394
168.1141	76
186.1246	36
281.1979	144
299.2081	81
325.1881	35
329.1825	556
330.1857	89
335.2084	30
353.2188	121
392.2299	36
394.2817	68
410.2404	50
412.2916	53
435.2611	47
442.2669	999
443.2703	196
466.3037	77
479.3353	45
497.3452	49
520.3147	45
523.3244	52
536.3566	35
554.3677	88
555.3511	529
556.3548	199
557.3594	34
565.3358	66
574.3585	32
590.3673	76
591.3707	35
608.3776	507
609.3807	189
640.4035	864
641.4066	336
642.4097	37
697.4248	433
698.4277	183
699.4321	31
942.8334	42
1059.6445	89
1060.6473	77
1113.6927	46
1114.6935	34
