Mass spectrum: alpha-Tocopherol; LC-ESI-QTOF; MS2; POSITIVE; ESI; [M]+; CE 10
Name: alpha-Tocopherol
Name: Vitamin E
Class: Natural product; fat-soluble vitamin
Formula: C29H50O2
Exact mass: 430.3811
SMILES: CC1=C(C2=C(CC[C@@](O2)(C)CCC[C@H](C)CCC[C@H](C)CCCC(C)C)C(=C1O)C)C
InChI: InChI=1S/C29H50O2/c1-20(2)12-9-13-21(3)14-10-15-22(4)16-11-18-29(8)19-17-26-25(7)27(30)23(5)24(6)28(26)31-29/h20-22,30H,9-19H2,1-8H3/t21-,22-,29-/m1/s1
Instrument: Xevo G2-S QtOF, Waters (USA) coupled to ACQUITY UPLC, Waters (USA).
Instrument type: LC-ESI-QTOF
Ms type: MS2
Ion mode: POSITIVE
Collision energy: 10 V
Ionization: ESI
Column name: Acquity 1.7 micrometer BEH UPLC C18 column (Waters Corporation).
Ion type: [M]+
Precursor m/z: 430.3805
m/z	relative intensity
111.1176	17
163.1123	34
165.0921	761
166.095	59
205.1225	21
219.1383	10
429.3734	739
430.3801	999
431.3867	578
432.3904	117
