Mass spectrum: Pyraclonil; ESI-QTOF; MS2; POSITIVE; [M+H]+; 37Cl-isotopolog ion; CID; 30 V
Name: Pyraclonil
Class: Non-natural product
Formula: C15H15ClN6
Exact mass: 314.1046
SMILES: CN(CC#C)C1=C(C=NN1C2=NN3CCCCC3=C2Cl)C#N
InChI: InChI=1S/C15H15ClN6/c1-3-7-20(2)15-11(9-17)10-18-22(15)14-13(16)12-6-4-5-8-21(12)19-14/h1,10H,4-8H2,2H3
Instrument: X500R QTOF (AB Sciex Pte. Ltd, USA)
Instrument type: ESI-QTOF
Ms type: MS2
Ion mode: POSITIVE
Collision energy: 30 V
Fragmentation mode: CID
Ionization: ESI
Precursor m/z: 317.1276
Precursor type: [M+H]+
m/z	relative intensity
144.056	27
170.0431	19
170.056	29
171.0501	999
172.0455	33
214.1093	71
239.1049	45
240.1124	68
241.1201	460
250.0674	64
252.0833	71
252.1246	47
277.0787	111
278.0863	83
279.136	97
286.0676	39
317.1097	112
