Mass spectrum: (3S)-3-((tert-Butyldimethylsilyl)oxy)nona-1,8-dien-5-ol; GC-EI-TOF; MS; POSITIVE; EI; 70 V
Name: (3S)-3-((tert-Butyldimethylsilyl)oxy)nona-1,8-dien-5-ol
Class: Non-natural compound
Formula: C15H30O2Si
Exact mass: 270.20151
SMILES: C=CCCC(O)C[C@@H](C=C)O[Si](C)(C)C(C)(C)C
InChI: InChI=1S/C15H30O2Si/c1-8-10-11-13(16)12-14(9-2)17-18(6,7)15(3,4)5/h8-9,13-14,16H,1-2,10-12H2,3-7H3/t13?,14-/m1/s1
Instrument: JMS-T100GCV (JEOL, Akishima, Japan) coupled to Agilent 7890A gas chromatograph.
Instrument type: GC-EI-TOF
Ms type: MS
Ion mode: POSITIVE
Ionization: EI
Column name: ZB-1MS 7HM-G011-11 sn:313446, length 30.0 m, I.D. 0.32 mm, thickness 0.25 micrometer.
Retention time: 8.66 min.
m/z	relative intensity
18.01	4
27.023	14
28.005	34
28.031	5
29.002	3
29.038	46
31.018	4
39.023	28
40.03	3
41.038	104
42.044	5
43.0	10
43.018	12
43.054	10
44.006	2
44.025	2
44.979	26
45.015	14
46.995	35
53.038	17
54.046	23
55.018	10
55.054	90
56.025	3
56.061	12
57.033	8
57.07	53
58.023	13
58.074	2
58.995	3
59.031	65
60.002	7
60.031	4
61.01	23
65.038	7
66.046	6
67.054	273
67.168	1
68.058	15
69.033	2
69.069	4
71.031	3
72.038	3
73.046	285
74.018	10
74.047	22
75.026	999
75.453	3
75.744	2
76.026	66
77.023	36
78.006	2
78.044	3
79.054	157
80.058	13
81.033	2
81.069	13
83.049	31
84.056	11
85.01	4
85.047	12
87.026	5
91.054	15
92.06	2
93.069	103
94.074	9
95.04	2
95.084	4
97.01	3
97.049	3
98.018	4
99.026	53
100.028	6
100.067	2
101.041	48
102.043	5
103.03	3
105.036	16
111.026	7
113.041	23
114.047	7
115.056	20
115.093	26
116.029	3
116.094	3
117.072	8
119.085	5
121.101	37
122.104	3
125.041	2
127.057	8
128.063	4
129.072	5
131.052	793
131.62	2
132.053	79
132.407	1
132.478	1
133.05	29
133.103	7
134.054	2
139.095	2
141.073	8
145.067	11
153.073	2
157.067	10
159.083	41
160.086	5
161.086	2
167.089	2
171.12	130
172.122	18
173.103	14
174.104	2
183.12	2
195.12	8
213.131	17
214.134	3
215.145	4
