Mass spectrum: Tyramine; LC-ESI-QQ; MS2; POSITIVE; [M+H]+; CID; 10 V
Name: Tyramine
Class: Non-natural product; Tyramine
Formula: C8H11NO
Exact mass: 137.08406
SMILES: C1=CC(=CC=C1CCN)O
InChI: InChI=1S/C8H11NO/c9-6-5-7-1-3-8(10)4-2-7/h1-4,10H,5-6,9H2
Instrument: Xevo TQS micro (Waters, MA, USA) coupled to ACQUITY UPLC H-Class (Waters, MA, USA)
Instrument type: LC-ESI-QQ
Ms type: MS2
Ion mode: POSITIVE
Collision energy: 10 V
Fragmentation mode: CID
Ionization: ESI
Column name: Acquity UPLC BEH AMIDE column (1.7 Âµm, 2.1 x 150 mm; Waters, MA, USA)
Precursor m/z: 138.09134
Precursor type: [M+H]+
m/z	relative intensity
76.9	1
77.3	1
90.7	1
91.0	1
92.8	7
93.1	12
93.3	3
96.8	2
97.2	1
102.7	1
103.0	3
103.3	1
119.9	1
121.0	999
137.6	2
137.9	6
138.2	10
138.4	4
