Mass spectrum: 4-Aminobutanoic acid; GC-EI-TOF; MS; POSITIVE; EI; 70 V; 2TBDMS
Name: 4-Aminobutanoic acid
Class: Non-natural compound
Formula: C4H9NO2
Exact mass: 103.0633285
SMILES: C(CC(=O)O)CN
InChI: InChI=1S/C4H9NO2/c5-3-1-2-4(6)7/h1-3,5H2,(H,6,7)
Instrument: JMS-T100GCV (JEOL, Akishima, Japan) coupled to Agilent 7890A (Santa Clara, CA, USA) gas chromatograph.
Instrument type: GC-EI-TOF
Ms type: MS
Ion mode: POSITIVE
Ionization: EI
Column name: DB-5MS UI 122-5532UI US0462866H (Agilent, Wilmington, USA) with the length 30 m, I.D. 0.25 mm, and thickness 0.25 micrometer.
Retention time: 10.09 min.
Derivative form: C16H37NO2Si2
Derivative mass: 331.23628
Derivative type: 2TBDMS
m/z	relative intensity
29.04	32
30.035	6
31.001	8
39.025	9
41.04	61
42.039	4
43.002	26
44.0	7
44.981	11
45.017	41
46.015	4
46.997	17
55.019	6
55.057	4
56.064	9
57.017	5
57.072	52
58.025	50
58.075	3
59.033	172
59.093	2
60.005	4
60.031	18
61.013	12
66.023	3
68.051	46
69.035	15
70.016	3
70.067	11
71.033	4
72.032	16
73.049	999
73.217	2
73.424	3
73.47	3
73.768	2
74.048	94
75.028	326
76.029	23
77.025	12
83.032	4
84.045	6
85.049	24
86.047	27
87.052	40
88.059	30
89.056	3
97.05	4
98.044	24
99.064	20
100.06	47
101.004	2
101.065	9
102.064	2
103.005	5
108.549	149
109.049	28
109.548	12
112.06	4
114.075	18
115.006	5
115.095	14
116.03	3
117.021	26
118.019	7
119.036	14
129.039	19
130.044	4
131.036	17
132.032	18
133.016	33
133.052	77
134.052	12
135.048	6
142.07	102
143.055	74
144.054	24
144.122	41
145.052	11
145.124	6
146.048	13
147.067	805
147.596	3
147.663	3
148.068	123
149.064	59
150.064	6
158.063	3
159.067	4
160.078	11
174.078	5
175.05	3
184.116	11
185.105	5
189.066	8
200.148	19
201.147	3
216.089	16
217.09	3
258.134	117
259.136	25
260.134	11
260.472	2
274.166	733
274.982	3
275.168	168
275.459	2
276.165	64
277.168	10
316.212	34
317.214	9
318.21	4
