Mass spectrum: Glycerol; FAB-BE; MS; Positive; Matrix Glycerol
Name: Glycerol
Class: Natural Product
Formula: C3H8O3
Exact mass: 92.04734
SMILES: OCC(O)CO
InChI: InChI=1S/C3H8O3/c4-1-3(6)2-5/h3-6H,1-2H2
Instrument: JMS-700, JEOL
Instrument type: FAB-BE
Ms type: MS
Ion mode: POSITIVE
Ionization: FAB
m/z	relative intensity
19	42
27	12
28	7
29	49
31	38
39	6
41	11
42	5
43	49
44	11
45	161
47	12
55	12
56	19
57	245
58	17
59	9
60	8
61	25
71	5
72	7
73	37
74	45
75	554
76	19
87	9
90	10
91	10
93	999
94	35
95	7
99	11
101	8
103	20
115	6
117	82
118	7
119	41
129	29
131	48
132	5
133	10
135	17
145	8
147	22
148	8
149	403
150	32
151	7
165	26
166	7
185	764
186	55
187	14
197	6
227	12
239	6
241	179
242	16
243	5
257	11
275	7
277	49
278	6
297	25
313	7
319	6
331	5
333	15
369	9
