Mass spectrum: Succinic acid-[1,2,3,4-13C4]; GC-EI-QQ; MS2; POSITIVE; CID 10 V; 2 TBDMS-derivative; [M-57]+
Name: Succinic acid-[1,2,3,4-13C4]
Class: In vitro synthetic compound
Formula: C4H6O4
Exact mass: 118.02661
SMILES: O=C(O)CCC(=O)O
InChI: InChI=1S/C4H6O4/c5-3(6)1-2-4(7)8/h1-2H2,(H,5,6)(H,7,8)/i1+1,2+1,3+1,4+1
Instrument: GCMS-TQ8040 (Shimadzu, Kyoto, Japan)
Instrument type: GC-EI-QQ
Ms type: MS2
Ion mode: POSITIVE
Collision energy: 10 V
Fragmentation mode: CID
Column name: DB-5MS+DG (Agilent Technologies, Santa Clara, CA, USA)
Derivative form: C16H34O4Si2
Derivative mass: 346.19956
Derivative type: 2 TBDMS
Precursor m/z: 293.14201
m/z	relative intensity
73.1	491
115.1	117
147.1	999
149.1	129
189.1	113
293.05	92
