Mass spectrum: Soyasaponin I; ESI-QTOF; MS2; NEGATIVE; [M-H]-; CID; 100 V
Name: Soyasaponin I
Class: Triterpenoid saponin
Formula: C48H78O18
Exact mass: 942.51882
SMILES: C[C@H]1[C@@H]([C@H]([C@H]([C@@H](O1)O[C@@H]2[C@H]([C@H]([C@H](O[C@H]2O[C@@H]3[C@H]([C@@H]([C@H](O[C@H]3O[C@H]4CC[C@]5([C@H]([C@@]4(C)CO)CC[C@@]6([C@@H]5CC=C7[C@]6(CC[C@@]8([C@H]7CC(C[C@H]8O)(C)C)C)C)C)C)C(=O)O)O)O)CO)O)O)O)O)O
InChI: InChI=1S/C48H78O18/c1-21-29(52)31(54)35(58)40(61-21)65-37-32(55)30(53)24(19-49)62-41(37)66-38-34(57)33(56)36(39(59)60)64-42(38)63-28-12-13-45(5)25(46(28,6)20-50)11-14-48(8)26(45)10-9-22-23-17-43(2,3)18-27(51)44(23,4)15-16-47(22,48)7/h9,21,23-38,40-42,49-58H,10-20H2,1-8H3,(H,59,60)/t21-,23-,24+,25+,26+,27+,28-,29-,30-,31+,32-,33-,34-,35+,36-,37+,38+,40-,41-,42+,44+,45-,46+,47+,48+/m0/s1
Instrument: X500R QTOF (AB Sciex LLC, USA)
Instrument type: ESI-QTOF
Ms type: MS2
Ion mode: NEGATIVE
Collision energy: 100 V
Fragmentation mode: CID
Ionization: ESI
Precursor m/z: 941.51154
Precursor type: [M-H]-
m/z	relative intensity	assigned
41.0024	49	[C2H6O-5H]-
43.0181	78	[C2H6O-3H]-
44.9973	57	[CH2O2-H]-
55.018	58	[C3H8O-5H]-
57.0336	57	[C3H8O-3H]-
59.0129	999	[C2H6O2-3H]-
71.0127	426	[C3H8O2-5H]-
73.0284	220	[C3H8O2-3H]-
75.0077	227	[C2H4O3-H]-
83.0127	123	[C4H10O2-7H]-
85.0283	673	[C4H10O2-5H]-
85.9998	66	[C3H8O3-6H]-
87.0075	384	[C3H8O3-5H]-
87.0439	146	
89.0231	331	[C3H8O3-3H]-
95.0126	257	
99.0074	625	[C4H10O3-7H]-
101.023	440	[C4H10O3-5H]-
103.0387	182	[C4H10O3-3H]-
112.0152	67	
113.023	637	[C5H12O3-7H]-
115.0386	482	[C5H12O3-5H]-
119.0335	90	[C4H10O4-3H]-
131.0334	339	[C5H10O4-3H]-
143.0334	303	[C6H12O4-5H]-
145.049	114	[C6H12O4-3H]-
437.3393	269	
