Mass spectrum: 2,3-Dimethylhepta-1,6-dien-3-ol; GC-EI-TOF; MS; positive; EI; 70 V
Name: 2,3-Dimethylhepta-1,6-dien-3-ol
Class: Non-natural product
Formula: C9H16O
Exact mass: 140.12012
SMILES: CC(=C)C(C)(CCC=C)O
InChI: InChI=1S/C9H16O/c1-5-6-7-9(4,10)8(2)3/h5,10H,1-2,6-7H2,3-4H3
Instrument: JMS-T100GCV (JEOL, Akishima, Japan) coupled to Agilent 7890A (Agilent, Wilmington, USA) gas chromatograph.
Instrument type: GC-EI-TOF
Ms type: MS
Ion mode: POSITIVE
Ionization: EI
Column name: HP-5 19091 J-413 USD364547H (Agilent, Wilmington, USA), length 30 m, I.D. 0.32 mm, thickness 0.25 micrometer.
Retention time: 6.17 min.
m/z	relative intensity
26.016	8
27.023	114
27.066	2
28.006	9
28.031	21
29.003	14
29.039	132
29.082	2
30.043	3
31.018	19
31.99	5
38.016	10
39.024	246
40.031	29
41.039	415
42.011	12
42.045	27
43.018	818
43.055	25
43.148	2
43.342	3
43.572	2
43.799	1
44.022	20
44.057	1
45.034	24
50.016	8
51.024	22
52.032	10
53.039	55
54.047	17
55.019	16
55.055	92
55.113	1
56.026	3
56.062	11
57.035	13
57.071	357
57.403	1
57.447	1
58.042	22
58.074	16
59.05	13
63.024	5
65.039	20
66.047	7
67.055	49
68.061	5
69.034	179
69.07	12
69.153	1
70.04	16
70.078	4
71.05	70
72.057	14
77.04	21
78.046	5
79.055	39
80.062	21
81.071	33
82.078	29
83.05	39
83.084	6
84.057	12
85.065	956
85.475	3
85.835	2
86.072	170
86.249	1
86.508	2
86.87	1
87.075	9
91.055	24
92.061	4
93.071	20
94.078	9
95.05	3
95.085	5
96.059	2
96.094	13
97.066	13
97.102	51
98.073	20
99.081	26
100.084	2
105.071	6
107.086	41
108.09	4
109.1	2
111.081	7
112.089	5
122.11	18
123.115	3
125.097	25
126.1	2
