Mass spectrum: (6S)-2,6-Dimethyl-2-nonene; GC-EI-TOF; MS; positive; EI; 70 V
Name: (6S)-2,6-Dimethyl-2-nonene
Class: Non-natural product
Formula: C11H22
Exact mass: 154.17215
SMILES: CCC[C@H](C)CCC=C(C)C
InChI: InChI=1S/C11H22/c1-5-7-11(4)9-6-8-10(2)3/h8,11H,5-7,9H2,1-4H3/t11-/m0/s1
Instrument: JMS-T100GCV (JEOL, Akishima, Japan) coupled to Agilent 7890A (Agilent, Wilmington, USA) gas chromatograph.
Instrument type: GC-EI-TOF
Ms type: MS
Ion mode: POSITIVE
Ionization: EI
Column name: HP-5 19091 J-413 USD364547H (Agilent, Wilmington, USA), length 30 m, I.D. 0.32 mm, thickness 0.25 micrometer.
Retention time: 5.48 min.
m/z	relative intensity
27.024	110
27.066	1
28.006	19
28.031	14
29.039	127
29.087	2
31.990	11
39.024	126
39.072	1
40.031	28
41.039	690
41.091	6
41.166	2
41.355	2
41.574	1
41.786	1
42.046	78
42.094	1
43.055	535
43.109	5
43.333	1
43.381	1
43.589	1
44.058	17
50.017	2
51.024	11
52.032	7
53.039	88
54.047	32
55.055	457
55.115	4
55.395	1
55.421	1
56.063	604
56.125	6
56.403	1
56.431	2
57.070	113
57.126	1
58.074	5
65.039	18
66.047	7
67.055	117
67.122	1
68.062	68
69.070	999
69.138	9
69.480	3
69.745	2
70.078	355
70.140	4
70.377	2
70.404	2
70.756	1
71.085	86
71.147	1
72.089	4
77.039	14
78.046	2
79.055	16
80.061	3
81.070	21
82.078	23
83.086	118
83.155	2
84.094	375
84.170	4
85.101	86
85.175	1
86.105	5
91.055	6
93.071	3
95.086	13
96.093	6
97.102	93
97.182	1
98.109	47
99.114	4
109.102	3
110.109	5
111.117	93
111.205	1
112.124	22
125.133	3
126.140	7
139.148	2
154.172	230
154.271	3
155.176	28
156.180	2
