Mass spectrum: Bensulfuron-methyl; ESI-QTOF; MS; NEGATIVE
Name: Bensulfuron-methyl
Class: Non-natural product
Formula: C16H18N4O7S
Exact mass: 410.0896
SMILES: COc1cc(nc(n1)NC(=O)NS(=O)(=O)Cc2ccccc2C(=O)OC)OC
InChI: InChI=1S/C16H18N4O7S/c1-25-12-8-13(26-2)18-15(17-12)19-16(22)20-28(23,24)9-10-6-4-5-7-11(10)14(21)27-3/h4-8H,9H2,1-3H3,(H2,17,18,19,20,22)
Instrument: X500R QTOF (AB Sciex LLC, USA)
Instrument type: ESI-QTOF
Ms type: MS
Ion mode: NEGATIVE
Ionization: ESI
m/z	relative intensity
149.0604	131
157.123	49
171.1386	67
199.1697	127
212.0744	60
218.167	59
219.1745	98
220.1462	120
227.2009	152
241.2166	71
253.2165	92
254.0121	107
255.2322	164
281.2478	58
286.0378	999
287.0415	132
409.0808	419
410.084	81
