Mass spectrum: 2-(4-Trifluoromethylphenyl)ethylamine; LC-ESI-QQ; MS2; POSITIVE; [M+H-NH3]+; CID; 50 V
Name: 2-(4-Trifluoromethylphenyl)ethylamine
Class: Non-natural product; Phenethylamine
Formula: C9H10F3N
Exact mass: 189.07653
SMILES: C1=CC(=CC=C1CCN)C(F)(F)F
InChI: InChI=1S/C9H10F3N/c10-9(11,12)8-3-1-7(2-4-8)5-6-13/h1-4H,5-6,13H2
Instrument: Xevo TQS micro (Waters, MA, USA) coupled to ACQUITY UPLC H-Class (Waters, MA, USA)
Instrument type: LC-ESI-QQ
Ms type: MS2
Ion mode: POSITIVE
Collision energy: 50 V
Fragmentation mode: CID
Ionization: ESI
Column name: Acquity UPLC BEH AMIDE column (1.7 Âµm, 2.1 x 150 mm; Waters, MA, USA)
Precursor m/z: 173.05726
Precursor type: [M+H-NH3]+
m/z	relative intensity
26.5	15
26.8	27
27.0	32
27.3	35
30.9	17
38.5	14
38.9	90
39.1	82
39.4	13
49.5	31
49.8	54
50.2	68
51.0	790
51.2	241
51.6	22
51.8	45
52.0	24
52.2	67
56.6	60
56.8	109
56.9	69
57.1	134
57.3	56
58.8	28
59.2	25
61.5	11
62.1	23
63.0	301
63.3	56
64.6	13
64.9	21
65.1	13
68.5	18
68.7	54
69.1	136
73.5	11
74.0	118
74.2	63
74.7	141
75.0	629
75.6	29
76.0	87
76.6	240
76.9	999
77.2	810
77.6	94
78.1	592
80.7	59
81.0	70
81.2	81
82.9	334
83.2	211
86.1	21
86.7	17
87.0	40
87.3	30
87.9	14
88.8	24
89.2	28
93.9	20
94.5	11
94.8	78
95.0	38
95.2	41
98.6	15
98.8	11
99.2	17
100.6	31
100.8	21
101.0	54
101.3	54
101.8	91
102.1	55
102.2	56
102.4	41
102.9	230
103.2	260
103.9	15
104.1	20
104.5	11
105.8	17
106.5	36
106.7	75
107.0	236
107.3	80
113.0	26
113.3	16
114.0	19
125.1	15
126.9	89
127.3	42
131.0	11
131.4	19
132.2	22
132.5	17
132.8	124
133.0	147
133.3	62
150.8	12
151.3	19
