Mass spectrum: Trametenolic acid; ESI-QTOF; MS2; POSITIVE; [M+H]+; CID; 50 V
Name: Trametenolic acid
Class: Non-natural product; Triterpenoid
Formula: C30H48O3
Exact mass: 456.36035
SMILES: CC(=CCC[C@H]([C@H]1CC[C@@]2([C@@]1(CCC3=C2CC[C@@H]4[C@@]3(CC[C@@H](C4(C)C)O)C)C)C)C(=O)O)C
InChI: InChI=1S/C30H48O3/c1-19(2)9-8-10-20(26(32)33)21-13-17-30(7)23-11-12-24-27(3,4)25(31)15-16-28(24,5)22(23)14-18-29(21,30)6/h9,20-21,24-25,31H,8,10-18H2,1-7H3,(H,32,33)/t20-,21-,24+,25+,28-,29-,30+/m1/s1
Instrument: X500R QTOF (AB Sciex LLC, USA)
Instrument type: ESI-QTOF
Ms type: MS2
Ion mode: POSITIVE
Collision energy: 50 V
Fragmentation mode: CID
Ionization: ESI
Precursor m/z: 457.36762
Precursor type: [M+H]+
m/z	relative intensity
55.0555	138
57.0349	12
57.0712	56
65.04	20
67.0557	254
69.0713	208
71.087	20
77.0401	71
79.0558	191
81.0715	444
83.0871	145
91.0559	225
93.0715	402
95.0871	746
97.1027	59
105.0715	386
107.0871	630
109.1027	704
111.082	36
117.0715	87
119.0871	844
121.1028	592
123.0823	25
123.1184	201
129.0714	60
131.0871	333
133.1028	553
135.1184	323
137.1339	50
142.0792	28
143.0871	159
144.0948	39
145.1028	509
147.1184	374
149.134	115
155.087	30
156.0949	32
157.1028	239
158.1103	55
159.1184	654
160.1258	44
161.1342	299
163.1497	80
169.1028	52
171.1185	306
172.1261	56
173.1341	936
174.1418	72
175.1498	194
183.1184	82
185.1342	329
186.1419	414
187.1498	501
189.1655	86
191.1809	29
197.1342	81
198.1419	66
199.1498	479
200.1574	46
201.1654	169
203.1812	42
211.1499	115
212.1579	52
213.1655	223
214.1734	565
215.1811	224
225.1654	93
226.1733	111
227.1812	176
229.1968	999
239.1811	70
240.189	39
241.1969	362
253.1968	48
255.2124	131
273.2232	40
281.2275	50
295.2436	78
457.3506	680
