Mass spectrum: (2-methyloctyl)(3-phenylpropyl)sulfane; GC-EI-TOF; MS; POSITIVE; EI; 70 V
Name: (2-methyloctyl)(3-phenylpropyl)sulfane
Class: Non-natural compound
Formula: C18H30S
Exact mass: 278.20682
SMILES: CCCCCCC(C)CSCCCc1ccccc1
InChI: InChI=1S/C18H30S/c1-3-4-5-7-11-17(2)16-19-15-10-14-18-12-8-6-9-13-18/h6,8-9,12-13,17H,3-5,7,10-11,14-16H2,1-2H3
Instrument: JMS-T100GCV (JEOL, Akishima, Japan) coupled to Agilent 7890A gas chromatograph.
Instrument type: GC-EI-TOF
Ms type: MS
Ion mode: POSITIVE
Ionization: EI
Column name: HP-5 30x0.32 0.25um 19091J-413, length 30.0 m, I.D. 0.32 mm, thickness 0.25 micrometer.
Retention time: 10.71 min.
m/z	relative intensity
27.024	16
28.006	27
28.031	2
29.04	42
31.99	16
39.024	19
40.031	2
41.04	107
42.047	14
43.055	105
43.108	1
44.059	4
44.98	13
45.988	4
46.996	16
51.024	7
53.04	6
55.055	63
56.063	28
57.071	49
58.075	2
58.996	4
60.004	4
61.012	106
61.067	1
62.016	4
63.008	5
65.04	31
66.044	3
67.055	6
69.071	50
70.078	15
71.087	31
73.012	4
74.019	6
75.027	8
77.04	15
78.047	9
79.055	8
83.087	18
84.094	10
85.102	13
89.041	11
90.047	3
91.056	240
91.189	1
92.061	33
97.102	8
98.109	4
101.043	5
102.048	3
103.056	13
104.063	19
105.071	59
106.074	5
115.056	19
116.062	5
117.071	238
117.208	9
118.079	999
118.615	3
118.906	1
119.082	102
119.171	1
120.087	5
123.028	14
126.141	3
129.072	2
131.087	19
151.059	5
152.066	28
153.07	4
158.114	4
159.121	39
160.126	5
161.124	2
165.073	3
173.137	2
187.153	20
188.155	3
193.103	3
278.207	162
279.21	35
280.206	10
281.205	2
