Mass spectrum: 2-(4-Chlorophenyl)ethylamine; LC-ESI-QQ; MS2; POSITIVE; [M+H-NH3]+; CID; 30 V
Name: 2-(4-Chlorophenyl)ethylamine
Class: Non-natural product; Phenethylamine
Formula: C8H10ClN
Exact mass: 155.05017
SMILES: C1=CC(=CC=C1CCN)Cl
InChI: InChI=1S/C8H10ClN/c9-8-3-1-7(2-4-8)5-6-10/h1-4H,5-6,10H2
Instrument: Xevo TQS micro (Waters, MA, USA) coupled to ACQUITY UPLC H-Class (Waters, MA, USA)
Instrument type: LC-ESI-QQ
Ms type: MS2
Ion mode: POSITIVE
Collision energy: 30 V
Fragmentation mode: CID
Ionization: ESI
Column name: Acquity UPLC BEH AMIDE column (1.7 Âµm, 2.1 x 150 mm; Waters, MA, USA)
Precursor m/z: 139.03091
Precursor type: [M+H-NH3]+
m/z	relative intensity
38.8	2
39.2	2
49.9	4
50.9	212
51.8	3
52.1	2
52.8	2
62.8	4
63.1	3
65.1	2
73.9	3
74.2	3
74.7	20
74.9	21
75.2	25
75.7	3
77.0	999
78.0	166
85.2	2
98.8	2
100.9	10
101.2	5
101.4	2
102.0	50
102.8	73
103.0	142
103.7	28
104.0	59
110.9	13
111.1	7
139.1	3
