Mass spectrum: Imazosulfuron; ESI-QTOF; MS2; NEGATIVE; [M-H]-; CID; 20 V
Name: Imazosulfuron
Class: Non-natural product
Formula: C14H13ClN6O5S
Exact mass: 412.0356
SMILES: COc1cc(nc(n1)NC(=O)NS(=O)(=O)c2c(nc3n2cccc3)Cl)OC
InChI: InChI=1S/C14H13ClN6O5S/c1-25-9-7-10(26-2)18-13(17-9)19-14(22)20-27(23,24)12-11(15)16-8-5-3-4-6-21(8)12/h3-7H,1-2H3,(H2,17,18,19,20,22)
Instrument: X500R QTOF (AB Sciex LLC, USA)
Instrument type: ESI-QTOF
Ms type: MS2
Ion mode: NEGATIVE
Collision energy: 20 V
Fragmentation mode: CID
Ionization: ESI
Precursor m/z: 411.0278
Precursor type: [M-H]-
m/z	relative intensity
154.0617	293
229.979	999
411.0275	213
