Mass spectrum: Trametenolic acid; ESI-QTOF; MS2; POSITIVE; [M+H]+; CID; 20 V
Name: Trametenolic acid
Class: Non-natural product; Triterpenoid
Formula: C30H48O3
Exact mass: 456.36035
SMILES: CC(=CCC[C@H]([C@H]1CC[C@@]2([C@@]1(CCC3=C2CC[C@@H]4[C@@]3(CC[C@@H](C4(C)C)O)C)C)C)C(=O)O)C
InChI: InChI=1S/C30H48O3/c1-19(2)9-8-10-20(26(32)33)21-13-17-30(7)23-11-12-24-27(3,4)25(31)15-16-28(24,5)22(23)14-18-29(21,30)6/h9,20-21,24-25,31H,8,10-18H2,1-7H3,(H,32,33)/t20-,21-,24+,25+,28-,29-,30+/m1/s1
Instrument: X500R QTOF (AB Sciex LLC, USA)
Instrument type: ESI-QTOF
Ms type: MS2
Ion mode: POSITIVE
Collision energy: 20 V
Fragmentation mode: CID
Ionization: ESI
Precursor m/z: 457.36762
Precursor type: [M+H]+
m/z	relative intensity
229.1968	32
241.1969	14
247.2075	84
255.2126	10
259.2075	41
273.2231	16
287.2388	12
295.2437	49
297.2594	13
313.2542	48
315.2698	12
317.2491	21
331.2647	17
393.3526	31
403.337	14
411.3632	52
421.3476	105
439.3579	417
457.3594	999
