Mass spectrum: (4S)-4-Methyl-6-pivaloyloxyhexanal; GC-EI-TOF; MS; positive; EI; 70 V
Name: (4S)-4-Methyl-6-pivaloyloxyhexanal
Class: Non-natural product
Formula: C12H22O3
Exact mass: 214.15690
SMILES: O=CCC[C@H](C)CCOC(=O)C(C)(C)C
InChI: InChI=1S/C12H22O3/c1-10(6-5-8-13)7-9-15-11(14)12(2,3)4/h8,10H,5-7,9H2,1-4H3/t10-/m0/s1
Instrument: JMS-T100GCV (JEOL, Akishima, Japan) coupled to Agilent 7890A (Agilent, Wilmington, USA) gas chromatograph.
Instrument type: GC-EI-TOF
Ms type: MS
Ion mode: POSITIVE
Ionization: EI
Column name: HP-5 19091 J-413 USD364547H (Agilent, Wilmington, USA), length 30 m, I.D. 0.32 mm, thickness 0.25 micrometer.
Retention time: 8.73 min.
m/z	relative intensity
26.016	5
27.024	47
28.006	42
28.031	18
29.003	20
29.039	131
29.084	2
30.043	3
31.019	7
31.990	14
34.969	3
35.977	16
37.974	6
38.016	4
39.024	78
40.031	15
41.039	341
41.064	2
41.090	3
42.011	3
42.046	42
43.019	53
43.055	57
43.990	12
44.026	10
45.034	5
50.016	4
51.024	5
53.039	21
54.047	11
55.019	18
55.055	135
55.118	2
56.026	4
56.063	124
56.126	1
57.034	38
57.071	999
57.132	9
57.219	2
57.442	3
57.697	2
57.984	1
58.042	9
58.074	42
59.050	7
65.040	4
67.055	58
68.063	141
68.125	1
69.034	34
69.070	203
69.135	2
70.042	23
70.077	39
71.050	13
71.084	4
73.048	10
77.039	5
78.047	4
79.055	44
80.060	4
81.070	17
82.042	4
82.078	8
83.050	54
83.086	37
84.057	29
84.094	29
85.065	116
85.101	6
86.070	7
87.045	8
91.055	7
93.071	14
94.078	109
94.157	1
95.086	132
95.163	2
96.090	11
97.065	44
97.102	4
98.069	3
103.076	159
103.160	2
104.080	8
111.081	15
112.089	82
113.096	40
114.102	5
129.092	16
135.063	18
149.015	2
154.079	3
156.007	5
157.122	2
158.021	3
171.138	5
195.061	4
197.078	5
207.032	3
239.000	2
248.991	2
