Mass spectrum: Avermectin B1a; LC-ESI-QTOF; MS2; ESI; POSITIVE; CE 50 V
Name: Avermectin B1a
Class: Non-natural product
Formula: C48H72O14
Exact mass: 872.49221
SMILES: CC[C@H](C)[C@H]1O[C@]2(C=C[C@@H]1C)C[C@@H]1C[C@@H](C/C=C(\C)[C@@H](O[C@H]3C[C@H](OC)[C@@H](O[C@H]4C[C@H](OC)[C@@H](O)[C@H](C)O4)[C@H](C)O3)[C@@H](C)/C=C/C=C3\CO[C@@H]4[C@H](O)C(C)=C[C@@H](C(=O)O1)[C@]34O)O2
InChI: InChI=1S/C48H72O14/c1-11-25(2)43-28(5)17-18-47(62-43)23-34-20-33(61-47)16-15-27(4)42(26(3)13-12-14-32-24-55-45-40(49)29(6)19-35(46(51)58-34)48(32,45)52)59-39-22-37(54-10)44(31(8)57-39)60-38-21-36(53-9)41(50)30(7)56-38/h12-15,17-19,25-26,28,30-31,33-45,49-50,52H,11,16,20-24H2,1-10H3/b13-12+,27-15+,32-14+/t25-,26-,28-,30-,31-,33+,34-,35-,36-,37-,38-,39-,40+,41-,42-,43+,44-,45+,47+,48+/m0/s1
Instrument: ExionLC AD, AB Sciex LLC, USA; X500R QTOF, AB Sciex LLC, USA.
Instrument type: LC-ESI-QTOF
Ms type: MS2
Ion mode: POSITIVE
Collision energy: 50 V
Ionization: ESI
Column name: AQ-C18HP 3 microm, 2.1 mm Ã— 150 mm, GL Science (Tokyo Japan)
Retention time: 16.2 min
Precursor m/z: 890.52603
Precursor type: [M+NH4]+
m/z	relative intensity
69.0344	49
81.0708	25
85.0298	26
95.0496	144
97.0651	67
105.0706	10
107.0862	18
109.0656	28
109.1019	88
113.0604	282
121.0664	14
121.1014	31
123.1169	114
127.0762	36
137.0965	30
145.0864	427
151.1123	90
169.1231	173
193.1596	132
199.1133	40
215.1066	16
221.1545	35
245.1183	96
261.1136	23
287.2025	35
305.2108	999
307.2273	56
549.3188	50
