Mass spectrum: (1R,2R)-2-(1,2-Dimethyl-3-methylenecyclopentyl)ethanol; GC-FI-TOF; MS; positive; FI; 10 kV
Name: (1R,2R)-2-(1,2-Dimethyl-3-methylenecyclopentyl)ethanol
Class: Non-natural product
Formula: C10H18O
Exact mass: 154.13577
SMILES: C[C@]1(CCO)CCC(=C)[C@H]1C
InChI: InChI=1S/C10H18O/c1-8-4-5-10(3,6-7-11)9(8)2/h9,11H,1,4-7H2,2-3H3/t9-,10-/m1/s1
Instrument: JMS-T100GCV (JEOL, Akishima, Japan) coupled to Agilent 7890A (Agilent, Wilmington, USA) gas chromatograph.
Instrument type: GC-FI-TOF
Ms type: MS
Ion mode: POSITIVE
Ionization: FI
Column name: HP-5 19091 J-413 USD364547H (Agilent, Wilmington, USA), length 30.0 m, I.D. 0.32 mm, thickness 0.25 micrometer.
Retention time: 7.06 min.
m/z	relative intensity
31.018	174
109.101	309
110.106	325
110.214	64
123.122	76
136.124	112
137.131	199
139.113	66
154.136	999
155.141	367
