Mass spectrum: Daidzin; ESI-QTOF; MS2; POSITIVE; [M+H]+; CID; 40 V
Name: Daidzin
Class: 7-Hydroxyisoflavone
Formula: C21H20O9
Exact mass: 416.11073
SMILES: C1=CC(=CC=C1C2=COC3=C(C2=O)C=CC(=C3)O[C@H]4[C@@H]([C@H]([C@@H]([C@H](O4)CO)O)O)O)O
InChI: InChI=1S/C21H20O9/c22-8-16-18(25)19(26)20(27)21(30-16)29-12-5-6-13-15(7-12)28-9-14(17(13)24)10-1-3-11(23)4-2-10/h1-7,9,16,18-23,25-27H,8H2/t16-,18-,19+,20-,21-/m1/s1
Instrument: X500R QTOF (AB Sciex LLC, USA)
Instrument type: ESI-QTOF
Ms type: MS2
Ion mode: POSITIVE
Collision energy: 40 V
Fragmentation mode: CID
Ionization: ESI
Precursor m/z: 417.11801
Precursor type: [M+H]+
m/z	relative intensity
199.0758	24
255.0651	999
