Mass spectrum: (6R)-2,6-Dimethyl-2-decene; GC-EI-TOF; MS; positive; EI; 70 V
Name: (6R)-2,6-Dimethyl-2-decene
Class: Non-natural product
Formula: C12H24
Exact mass: 168.18780
SMILES: CCCC[C@@H](C)CCC=C(C)C
InChI: InChI=1S/C12H24/c1-5-6-9-12(4)10-7-8-11(2)3/h8,12H,5-7,9-10H2,1-4H3/t12-/m1/s1
Instrument: JMS-T100GCV (JEOL, Akishima, Japan) coupled to Agilent 7890A (Agilent, Wilmington, USA) gas chromatograph.
Instrument type: GC-EI-TOF
Ms type: MS
Ion mode: POSITIVE
Ionization: EI
Column name: HP-5 19091 J-413 USD364547H (Agilent, Wilmington, USA), length 30 m, I.D. 0.32 mm, thickness 0.25 micrometer.
Retention time: 6.38 min.
m/z	relative intensity
27.023	100
27.067	1
28.006	7
28.031	15
29.039	172
29.083	2
29.114	1
30.042	3
31.99	4
39.024	112
39.073	1
40.031	25
41.039	750
41.064	6
41.091	6
41.322	2
41.355	2
41.566	1
41.814	1
42.046	77
43.055	490
43.08	4
43.108	4
43.34	1
43.378	1
43.59	1
44.058	15
51.024	9
52.031	6
53.039	86
53.097	1
54.047	31
55.055	428
55.116	4
55.197	1
55.384	1
56.063	697
56.092	5
56.124	6
56.432	2
56.694	1
57.07	438
57.132	4
57.221	1
57.404	1
58.074	18
65.039	16
66.047	8
67.055	131
67.12	1
67.181	1
68.062	74
68.125	1
69.07	999
69.138	9
69.48	3
69.76	2
70.078	587
70.143	6
70.242	1
70.378	2
70.491	2
70.753	1
71.084	56
72.088	2
77.039	14
78.046	3
79.055	18
80.062	3
81.07	24
82.078	41
83.086	199
83.157	2
84.094	139
84.164	2
84.224	1
85.101	59
85.169	1
86.105	4
91.055	6
93.071	3
95.086	18
96.092	3
97.102	35
98.109	76
98.187	1
99.116	18
109.102	4
110.109	6
111.117	120
112.124	34
113.129	3
125.133	5
126.141	78
127.145	9
140.156	4
168.188	230
169.191	28
169.298	1
170.195	2
