Mass spectrum: 3-Aminoisobutyric acid; GC-EI-TOF; MS; POSITIVE; EI; 70 V; 2TMS
Name: 3-Aminoisobutyric acid
Class: Non-natural compound
Formula: C4H9NO2
Exact mass: 103.0633285
SMILES: CC(CN)C(=O)O
InChI: InChI=1S/C4H9NO2/c1-3(2-5)4(6)7/h3H,2,5H2,1H3,(H,6,7)
Instrument: JMS-T100GCV (JEOL, Akishima, Japan) coupled to Agilent 7890A (Santa Clara, CA, USA) gas chromatograph.
Instrument type: GC-EI-TOF
Ms type: MS
Ion mode: POSITIVE
Ionization: EI
Column name: DB-5MS UI 122-5532UI US0462866H (Agilent, Wilmington, USA) with the length 30 m, I.D. 0.25 mm, and thickness 0.25 micrometer.
Retention time: 7.52 min.
Derivative form: C10H25NO2Si2
Derivative mass: 247.14238
Derivative type: 2TMS
m/z	relative intensity
27.024	2
28.006	3
28.032	2
28.985	4
30.035	3
31.001	4
41.04	5
42.036	1
43.001	18
44.008	10
44.98	6
45.016	50
45.069	1
46.015	4
46.996	7
55.001	3
55.019	3
55.997	2
56.026	7
56.05	2
57.016	4
58.024	14
58.996	2
59.032	44
60.03	5
61.011	6
66.022	13
66.522	3
69.034	3
70.028	5
71.032	3
72.039	13
73.048	432
73.467	1
73.527	2
73.756	1
74.048	42
75.027	47
76.028	4
77.023	4
80.535	59
81.035	10
81.534	5
85.046	2
86.044	19
87.05	5
88.056	2
98.043	3
99.032	1
100.058	11
101.066	5
101.988	1
102.074	999
102.436	2
102.572	3
103.002	3
103.075	98
103.671	1
103.999	1
104.072	38
105.075	2
108.548	4
113.043	3
114.074	9
115.005	3
115.077	1
117.019	4
118.017	1
119.034	2
129.037	3
129.098	4
130.046	3
130.105	8
131.05	23
132.033	7
133.05	11
134.05	2
135.048	1
142.07	2
143.053	2
147.066	146
148.067	24
149.064	12
176.093	83
177.094	15
178.09	7
218.116	56
219.118	12
220.115	5
232.119	22
233.121	4
234.12	2
