Mass spectrum: Quinoclamine; ESI-QTOF; MS2; POSITIVE; [M+H]+; 37Cl-isotopolog ion; CID; 30 V
Name: Quinoclamine
Class: Non-natural product
Formula: C10H6ClNO2
Exact mass: 207.0087
SMILES: c1ccc2c(c1)C(=O)C(=C(C2=O)Cl)N
InChI: InChI=1S/C10H6ClNO2/c11-7-8(12)10(14)6-4-2-1-3-5(6)9(7)13/h1-4H,12H2
Instrument: X500R QTOF (AB Sciex LLC, USA)
Instrument type: ESI-QTOF
Ms type: MS2
Ion mode: POSITIVE
Collision energy: 30 V
Fragmentation mode: CID
Ionization: ESI
Precursor m/z: 210.0130
Precursor type: [M+H]+
m/z	relative intensity
77.0385	157
89.0386	99
101.0385	50
102.0463	60
105.0334	851
116.0494	153
126.0337	60
128.0494	340
139.0122	263
144.0443	259
154.0286	237
172.0392	552
182.0181	177
183.0022	80
210.0132	999
