Mass spectrum: Asymmetric dimethylarginine; ESI-QTOF; MS2; POSITIVE; [M+H]+; CID; 60 V
Name: Asymmetric dimethylarginine
Class: Non-natural product; Arginine derivative
Formula: C8H18N4O2
Exact mass: 202.14296
SMILES: CN(C)C(=NCCC[C@@H](C(=O)O)N)N
InChI: InChI=1S/C8H18N4O2/c1-12(2)8(10)11-5-3-4-6(9)7(13)14/h6H,3-5,9H2,1-2H3,(H2,10,11)(H,13,14)/t6-/m0/s1
Instrument: X500R QTOF (AB Sciex LLC, USA)
Instrument type: ESI-QTOF
Ms type: MS2
Ion mode: POSITIVE
Collision energy: 60 V
Fragmentation mode: CID
Ionization: ESI
Precursor m/z: 203.15024
Precursor type: [M+H]+
m/z	relative intensity
28.0186	73
30.0343	81
39.0237	33
41.0391	113
42.0345	62
43.0296	136
43.0546	186
44.0499	179
46.0653	824
55.0296	175
56.0374	170
57.0455	80
68.0503	90
70.065	999
71.0602	697
