Mass spectrum: PGD2; LC-ESI-QQ; MS2; [M-H]-; Negative
Name: PGD2
Name: Prostaglandin D2
Name: 11-dehydro-prostaglandin F2alpha
Name: 11-oxo-9alpha,15S-dohydroxy-5Z,13E-prostadienoic acid
Class: Natural Product; Lipid
Formula: C20H32O5
Exact mass: 352.22498
SMILES: CCCCCC(C=CC1C(C(CC1=O)O)CC=CCCCC(=O)O)O
InChI: InChI=1S/C20H32O5/c1-2-3-6-9-15(21)12-13-17-16(18(22)14-19(17)23)10-7-4-5-8-11-20(24)25/h4,7,12-13,15-18,21-22H,2-3,5-6,8-11,14H2,1H3,(H,24,25)/b7-4-,13-12+/t15-,16+,17+,18-/m0/s1
Instrument: TSQ Vantage, Thermo Scientific coupled to Nexera, Shimadzu
Instrument type: LC-ESI-QQ
Ms type: MS2
Ion mode: NEGATIVE
Collision energy: 20 eV
Ionization: ESI
Column name: Inertsil ODS-3, (C18, 2.1mm i.d. x 100mm, 2 microm) with Inertsil ODS-3 (3 mm i.d. x 10 mm, 5 microm)
Retention time: 3.99 min
Precursor m/z: 351.21770
Precursor type: [M-H]-
m/z	relative intensity
81.4	6
120.8	5
135.0	5
147.0	6
157.8	6
158.4	5
160.0	10
160.8	11
175.1	6
186.5	8
187.4	11
188.3	17
189.1	783
203.2	38
207.1	5
215.0	13
217.1	25
231.1	16
232.3	5
233.1	418
235.1	12
243.5	5
251.1	18
270.1	13
271.3	999
289.1	18
296.8	17
315.0	554
333.0	88
351.1	17
