Mass spectrum: Tyramine; LC-ESI-QQ; MS2; POSITIVE; [M+H]+; CID; 20 V
Name: Tyramine
Class: Non-natural product; Tyramine
Formula: C8H11NO
Exact mass: 137.08406
SMILES: C1=CC(=CC=C1CCN)O
InChI: InChI=1S/C8H11NO/c9-6-5-7-1-3-8(10)4-2-7/h1-4,10H,5-6,9H2
Instrument: Xevo TQS micro (Waters, MA, USA) coupled to ACQUITY UPLC H-Class (Waters, MA, USA)
Instrument type: LC-ESI-QQ
Ms type: MS2
Ion mode: POSITIVE
Collision energy: 20 V
Fragmentation mode: CID
Ionization: ESI
Column name: Acquity UPLC BEH AMIDE column (1.7 microm, 2.1 Å~ 150 mm). (Waters, MA, USA)
Precursor m/z: 138.09134
Precursor type: [M+H]+
m/z	relative intensity
77	999
77.3	171
90.9	324
91.1	441
92.7	133
92.9	202
93.2	312
103.0	702
103.3	174
121.0	782
