Mass spectrum: 2-(Perfluorooctyl)ethanol; LC-ESI-ITFT; MS; Negative; CE 40 V
Name: 2-(Perfluorooctyl)ethanol
Class: Non-Natural Product
Formula: C10H5F17O
Exact mass: 464.00689
SMILES: C(CO)C(C(C(C(C(C(C(C(F)(F)F)(F)F)(F)F)(F)F)(F)F)(F)F)(F)F)(F)F
InChI: InChI=1S/C10H5F17O/c11-3(12,1-2-28)4(13,14)5(15,16)6(17,18)7(19,20)8(21,22)9(23,24)10(25,26)27/h28H,1-2H2
Instrument: Dionex U3000 and Exactive Orbitrap (Thermofisher Scientific)
Instrument type: LC-ESI-ITFT
Ms type: MS
Ion mode: NEGATIVE
Collision energy: 40 V
Ionization: ESI
Column name: L-column 2 ODS
m/z	relative intensity
68.99463	475
92.99451	730
104.99446	115
116.99441	196
118.99122	615
142.99113	243
154.99109	126
168.98787	144
183.01607	96
192.9879	473
204.98792	163
216.98795	197
242.9848	999
254.98479	127
266.98486	408
304.98148	264
316.98135	738
342.978	440
354.97803	944
392.97464	827
