Mass spectrum: 2-(4-Chlorophenyl)ethylamine; LC-ESI-QQ; MS2; POSITIVE; [M+H-NH3]+; CID; 10 V
Name: 2-(4-Chlorophenyl)ethylamine
Class: Non-natural product; Phenethylamine
Formula: C8H10ClN
Exact mass: 155.05017
SMILES: C1=CC(=CC=C1CCN)Cl
InChI: InChI=1S/C8H10ClN/c9-8-3-1-7(2-4-8)5-6-10/h1-4H,5-6,10H2
Instrument: Xevo TQS micro (Waters, MA, USA) coupled to ACQUITY UPLC H-Class (Waters, MA, USA)
Instrument type: LC-ESI-QQ
Ms type: MS2
Ion mode: POSITIVE
Collision energy: 10 V
Fragmentation mode: CID
Ionization: ESI
Column name: Acquity UPLC BEH AMIDE column (1.7 microm, 2.1 x 150 mm; Waters, MA, USA)
Precursor m/z: 139.03091
Precursor type: [M+H-NH3]+
m/z	relative intensity
56.9	5
77.0	13
77.2	5
103.0	916
103.8	6
104.0	9
104.2	6
139.0	999
