Mass spectrum: Zeaxanthin; LC-ESI-QTOF; MS2; POSITIVE; ESI; [M+H]+; CE 30 V
Name: Zeaxanthin
Class: Natural products; Carotenoids, Xanthophyll
Formula: C40H56O2
Exact mass: 568.4280
SMILES: CC1=C(C(C[C@@H](C1)O)(C)C)/C=C/C(=C/C=C/C(=C/C=C/C=C(/C=C/C=C(/C=C/C2=C(C[C@H](CC2(C)C)O)C)\C)\C)/C)/C
InChI: InChI=1S/C40H56O2/c1-29(17-13-19-31(3)21-23-37-33(5)25-35(41)27-39(37,7)8)15-11-12-16-30(2)18-14-20-32(4)22-24-38-34(6)26-36(42)28-40(38,9)10/h11-24,35-36,41-42H,25-28H2,1-10H3/b12-11+,17-13+,18-14+,23-21+,24-22+,29-15+,30-16+,31-19+,32-20+/t35-,36-/m1/s1
Instrument: Xevo G2-S QtOF, Waters (USA) coupled to ACQUITY UPLC, Waters (USA).
Instrument type: LC-ESI-QTOF
Ms type: MS2
Ion mode: POSITIVE
Ionization: ESI
Collision energy: 30 V
Precursor type: [M+H]+
Precursor m/z: 569.4353
m/z	relative intensity
81.07	124
93.07	254
95.085	285
105.07	278
107.085	481
109.101	265
119.085	971
120.092	238
121.101	471
123.117	127
131.085	367
132.092	100
133.101	776
134.106	125
135.08	79
135.117	397
137.096	117
143.086	334
144.092	116
145.101	999
146.106	184
147.117	427
149.096	142
149.132	101
155.085	103
156.093	122
157.101	705
158.107	192
159.117	832
160.121	162
161.132	243
163.111	85
169.101	338
170.107	147
171.116	672
172.122	197
173.132	782
174.137	129
175.148	606
176.151	84
177.127	119
181.101	176
182.108	77
183.117	577
184.122	178
185.132	505
186.138	153
187.148	389
188.151	70
189.127	71
191.142	136
193.101	90
194.108	103
195.116	382
196.123	176
197.132	583
198.137	156
199.147	331
200.153	74
201.127	147
201.163	262
203.142	136
205.158	83
207.116	201
208.123	101
209.132	686
210.138	197
211.147	405
212.153	109
213.163	170
217.158	188
221.132	220
222.138	107
223.148	355
224.153	123
225.163	239
226.168	84
233.131	95
235.147	204
236.153	81
237.163	274
238.169	83
239.179	230
241.194	99
247.147	134
249.163	187
250.169	88
251.178	146
253.194	77
255.173	160
257.189	132
261.163	156
263.178	156
265.194	172
269.189	86
275.179	129
277.194	101
283.205	167
289.194	70
