Mass spectrum: Feruloyltyramine; LC-ESI-ITTOF; MS2; [M+H]+
Name: Feruloyltyramine
Class: Natural Product; Phenylpropanoids; ferulic acid esters
Formula: C18H19NO4
Exact mass: 313.13141
SMILES: COC1=C(C=CC(=C1)/C=C/C(=O)NCCC2=CC=C(C=C2)O)O
InChI: InChI=1S/C18H19NO4/c1-23-17-12-14(4-8-16(17)21)5-9-18(22)19-11-10-13-2-6-15(20)7-3-13/h2-9,12,20-21H,10-11H2,1H3,(H,19,22)/b9-5+
Instrument: LCMS-ITTOF, Shimadzu
Instrument type: LC-ESI-ITTOF
Ms type: MS2
Ion mode: POSITIVE
Collision energy: 120 %
Ionization: ESI
Column name: Agilent Poroshell 120 EC-C18 (2.1 x 75 mm)
Precursor m/z: 314.1398
Precursor type: [M+H]+
m/z	relative intensity
117.0337	13
145.0283	242
146.0327	17
177.0548	999
178.0586	117
