Mass spectrum: (R)-3-methyl-1-heptanol; GC-EI-TOF; MS; positive; EI; M+*.
Name: (R)-3-methyl-1-heptanol
Class: Synthetic compound; Alkyl alcohol
Formula: C8H18O
Exact mass: 130.1358
SMILES: CCCC[C@@H](C)CCO
InChI: InChI=1S/C8H18O/c1-3-4-5-8(2)6-7-9/h8-9H,3-7H2,1-2H3/t8-/m1/s1
Instrument: JMS-T100GCV (JEOL, Akishima, Japan) coupled to Agilent 7890A gas chromatography.
Instrument type: GC-EI-TOF
Ms type: MS
Ion mode: POSITIVE
Ionization: EI
Column name: HP-5 19091J-413 USD364547H (Agilent), length 30 m, I.D. 0.32 mm, thickness 0.25 micrometer
Retention time: 6.44 min
m/z	relative intensity
26.016	20
27.024	484
28.006	35
28.032	93
29.003	75
29.040	515
29.083	5
30.011	7
30.043	11
31.019	613
31.990	15
32.023	7
38.016	8
39.024	353
40.031	60
41.040	999
41.092	9
42.011	6
42.047	351
43.019	63
43.055	931
43.109	9
44.027	30
44.059	30
45.035	69
46.042	15
50.016	6
51.024	20
52.032	9
53.040	85
54.047	39
55.055	930
55.116	9
56.063	493
57.035	63
57.070	246
58.074	10
59.050	22
65.040	10
67.055	39
68.063	21
69.071	285
70.078	555
70.145	5
71.050	12
71.084	52
73.065	9
77.040	6
79.056	6
81.071	8
82.078	23
83.086	183
84.094	415
85.100	63
97.102	22
112.125	10
