Mass spectrum: (R)-4-methyloctadecanal; GC-EI-TOF; MS; positive; EI; M+*.
Name: (R)-4-methyloctadecanal
Class: Synthetic compound
Formula: C19H38O
Exact mass: 282.2923
SMILES: CCCCCCCCCCCCCC[C@@H](C)CCC=O
InChI: InChI=1S/C19H38O/c1-3-4-5-6-7-8-9-10-11-12-13-14-16-19(2)17-15-18-20/h18-19H,3-17H2,1-2H3/t19-/m1/s1
Instrument: JMS-T100GCV (JEOL, Akishima, Japan) coupled to Agilent 7890A gas chromatography.
Instrument type: GC-EI-TOF
Ms type: MS
Ion mode: POSITIVE
Ionization: EI
Column name: HP-5 19091J-413 USD364547H (Agilent), length 30 m, I.D. 0.32 mm, thickness 0.25 micrometer.
Retention time: 11.13 min
m/z	relative intensity
27.024	113
28.007	12
28.032	34
29.004	33
29.040	445
30.044	12
31.019	8
31.991	5
39.025	84
40.032	19
41.040	869
41.093	8
42.047	145
43.019	78
43.056	999
43.110	10
44.028	124
44.059	34
45.035	17
53.040	45
54.048	51
55.020	10
55.056	640
55.117	6
56.063	704
56.125	6
57.035	137
57.071	884
58.043	67
58.075	38
59.049	6
65.040	9
66.048	7
67.056	185
68.063	83
69.071	381
70.079	143
71.051	18
71.087	232
72.059	32
72.091	13
77.040	6
79.056	20
80.064	18
81.072	210
82.079	261
83.051	9
83.087	187
84.094	64
85.067	145
85.103	130
86.071	11
86.106	9
87.082	8
93.072	9
94.079	9
95.087	181
96.095	104
97.103	130
98.110	29
99.082	6
99.119	23
100.090	11
101.097	5
109.103	43
110.111	38
111.119	68
112.125	19
113.134	12
123.119	19
124.126	13
125.135	22
126.142	9
127.150	7
137.135	7
138.142	8
139.151	9
140.158	5
152.159	5
153.167	5
154.174	6
180.190	5
182.206	20
210.237	24
223.245	13
236.251	7
238.268	31
239.272	8
264.283	6
