Mass spectrum: 3-Hydroxyechinenone; LC-ESI-QTOF; MS2; POSITIVE; ESI; [M+H]+; COLLISION_ENERGY 30 V.
Name: 3-Hydroxyechinenone
Class: Natural product; carotenoids
Formula: C40H54O2
Exact mass: 566.4124
SMILES: CC1=C(C(CCC1)(C)C)/C=C/C(=C/C=C/C(=C/C=C/C=C(\C)/C=C/C=C(\C)/C=C/C2=C(C(=O)C(CC2(C)C)O)C)/C)/C
InChI: InChI=1S/C40H54O2/c1-29(18-13-20-31(3)23-25-35-33(5)22-15-27-39(35,7)8)16-11-12-17-30(2)19-14-21-32(4)24-26-36-34(6)38(42)37(41)28-40(36,9)10/h11-14,16-21,23-26,37,41H,15,22,27-28H2,1-10H3/b12-11+,18-13+,19-14+,25-23+,26-24+,29-16+,30-17+,31-20+,32-21+
Instrument: Xevo G2-S QtOF, Waters (USA) coupled to ACQUITY UPLC, Waters (USA).
Instrument type: LC-ESI-QTOF
Ms type: MS2
Ion mode: POSITIVE
Ionization: ESI
Collision energy: 30 V
Precursor type: [M+H]+
Precursor m/z: 567.4197
m/z	relative intensity
81.066	90
93.066	114
95.082	186
105.066	219
107.081	272
109.097	267
119.081	580
120.086	89
121.097	298
123.112	124
131.081	152
133.061	55
133.097	354
135.076	126
135.112	161
137.092	83
137.128	91
143.081	186
144.087	67
145.097	385
146.101	64
147.113	884
148.116	121
149.128	63
155.081	74
156.089	74
157.097	359
158.102	103
159.112	296
160.117	58
161.128	202
169.097	179
170.103	76
171.113	288
172.117	68
173.128	321
174.132	60
175.144	154
177.159	193
181.096	74
182.103	53
183.112	214
184.118	63
185.128	218
186.133	55
187.143	116
189.159	93
193.097	52
194.104	59
195.113	160
196.118	79
197.128	249
198.133	71
199.144	145
201.123	98
201.159	77
203.175	130
207.113	84
208.119	62
209.128	216
210.133	74
211.144	154
213.159	74
215.176	60
221.128	97
223.143	143
225.159	82
235.143	82
237.159	86
239.175	73
241.19	54
249.16	59
251.175	57
255.207	186
256.211	58
261.159	56
263.175	56
267.206	75
269.222	54
275.176	56
281.221	54
285.181	67
299.197	70
474.347	168
475.352	124
549.408	61
566.411	477
567.419	999
568.423	453
569.426	112
