Mass spectrum: Astaxanthin; LC-ESI-QTOF; MS2; POSITIVE; ESI; [M+H]+; CE 30 V
Name: Astaxanthin
Name: E-astaxanthin
Class: Natural products; Carotenoids, Xanthophyll
Formula: C40H52O4
Exact mass: 596.3866
SMILES: CC1=C(C(C[C@@H](C1=O)O)(C)C)/C=C/C(=C/C=C/C(=C/C=C/C=C(/C=C/C=C(/C=C/C2=C(C(=O)[C@H](CC2(C)C)O)C)\C)\C)/C)/C
InChI: InChI=1S/C40H52O4/c1-27(17-13-19-29(3)21-23-33-31(5)37(43)35(41)25-39(33,7)8)15-11-12-16-28(2)18-14-20-30(4)22-24-34-32(6)38(44)36(42)26-40(34,9)10/h11-24,35-36,41-42H,25-26H2,1-10H3/b12-11+,17-13+,18-14+,23-21+,24-22+,27-15+,28-16+,29-19+,30-20+/t35-,36-/m0/s1
Instrument: Xevo G2-S QtOF, Waters (USA) coupled to ACQUITY UPLC, Waters (USA).
Instrument type: LC-ESI-QTOF
Ms type: MS2
Ion mode: POSITIVE
Ionization: ESI
Collision energy: 30 V
Precursor type: [M+H]+
Precursor m/z: 597.8733
m/z	relative intensity
107.085	57
109.101	36
111.08	44
119.086	79
133.065	72
133.102	83
135.08	156
135.117	44
137.096	55
145.101	85
147.117	999
148.121	112
155.107	35
157.101	99
159.117	106
161.096	38
161.132	55
163.075	47
169.101	39
171.116	91
173.132	358
174.136	51
183.117	53
185.132	113
187.112	47
187.147	52
189.127	65
195.116	43
197.132	87
199.148	48
201.127	256
202.13	36
203.142	119
207.116	35
209.132	111
211.148	111
213.127	73
215.143	99
219.138	97
221.132	43
221.153	37
223.147	73
225.163	60
227.142	49
231.137	40
233.153	53
235.148	36
237.164	42
253.159	43
255.174	50
261.164	44
267.173	52
269.188	46
273.184	48
275.18	58
279.173	40
281.19	56
285.184	159
286.188	39
287.2	104
293.19	47
297.184	76
299.2	94
311.2	56
345.22	38
351.231	38
359.235	42
361.252	38
363.232	52
377.246	89
378.251	39
379.263	114
389.248	36
429.278	39
473.305	41
504.323	42
505.328	44
561.373	61
579.382	174
580.387	75
596.385	188
597.393	454
598.396	192
599.4	41
