Mass spectrum: Ofloxacin; LC-ESI-QQ; MS2; [M+H]+; CE 40 V
Name: Ofloxacin
Class: Non-Natural Product
Formula: C18H20FN3O4
Exact mass: 361.14378
SMILES: CC1COC2=C3N1C=C(C(=O)C3=CC(=C2N4CCN(CC4)C)F)C(=O)O
InChI: InChI=1S/C18H20FN3O4/c1-10-9-26-17-14-11(16(23)12(18(24)25)8-22(10)14)7-13(19)15(17)21-5-3-20(2)4-6-21/h7-8,10H,3-6,9H2,1-2H3,(H,24,25)
Instrument: Acquity UPLC and a Xevo TQ (Waters)
Instrument type: LC-ESI-QQ
Ms type: MS2
Ion mode: POSITIVE
Collision energy: 40 V
Ionization: ESI
Column name: L-column 2 ODS
Precursor m/z: 362.15215
Precursor type: [M+H]+
m/z	relative intensity
58	166
70	266
72	107
122	121
150	176
158	96
160	64
165	66
171	127
178	236
179	497
180	102
188	100
191	76
192	142
193	274
194	233
199	160
200	62
201	73
202	67
203	141
204	148
205	769
218	93
219	603
220	87
221	757
231	83
233	107
245	96
247	107
261	999
301	65
