Mass spectrum: L-gamma-Glutamyl-S-3-(1-oxopropyl)-L-cysteinyl-glycine; ESI-QQ; MS2; CE 10 eV; [M+H]+
Name: L-gamma-Glutamyl-S-3-(1-oxopropyl)-L-cysteinyl-glycine
Class: Synthetic compound; Peptide
Formula: C13H21N3O7S
Exact mass: 363.1100
SMILES: O=C(N[C@@H](CSCCC=O)C(=O)NCC(=O)O)CC[C@H](N)C(=O)O
InChI: InChI=1S/C13H21N3O7S/c14-8(13(22)23)2-3-10(18)16-9(7-24-5-1-4-17)12(21)15-6-11(19)20/h4,8-9H,1-3,5-7,14H2,(H,15,21)(H,16,18)(H,19,20)(H,22,23)/t8-,9-/m0/s1
Instrument: Quattro Premier, Micromass (USA) coupled to Alliance HT 2795, Waters (USA).
Instrument type: LC-ESI-QQ
Ms type: MS2
Ion mode: POSITIVE
Ionization: ESI
Collision energy: 10 eV
Column name: C18(ODS), Cosmosil 5C18-AR-II, 4.6 x 150 mm, 4.4 micrometer
Precursor type: [M+H]+
Precursor m/z: 364.1173
m/z	relative intensity
83.8	10
113.0	5
113.7	24
115.3	5
131.9	8
141.4	5
143.8	16
161.2	5
161.8	5
178.8	16
198.9	6
216.9	999
235.0	28
243.1	9
270.9	26
288.9	44
300.4	6
345.5	6
346.2	13
363.9	867
364.5	6
