Mass spectrum: Ofloxacin; LC-ESI-ITFT; MS; Positive; CE 20 V
Name: Ofloxacin
Class: Non-Natural Product
Formula: C18H20FN3O4
Exact mass: 361.14378
SMILES: CC1COC2=C3N1C=C(C(=O)C3=CC(=C2N4CCN(CC4)C)F)C(=O)O
InChI: InChI=1S/C18H20FN3O4/c1-10-9-26-17-14-11(16(23)12(18(24)25)8-22(10)14)7-13(19)15(17)21-5-3-20(2)4-6-21/h7-8,10H,3-6,9H2,1-2H3,(H,24,25)
Instrument: Dionex U3000 and Exactive Orbitrap (Thermofisher Scientific)
Instrument type: LC-ESI-ITFT
Ms type: MS
Ion mode: POSITIVE
Collision energy: 20 V
Ionization: ESI
Column name: L-column 2 ODS
m/z	relative intensity
55.05485	60
65.03922	80
67.05487	86
69.03413	57
69.07052	176
79.05487	168
81.07052	208
91.05488	81
95.0498	115
95.08618	70
97.06544	188
149.024	143
197.5857	183
225.04389	113
261.10446	108
299.06294	71
318.16252	999
319.16586	162
362.15249	716
363.15588	123
