Mass spectrum: LXA4-[19,19,20,20,20-d5]; LC-ESI-QQ; MS2; Negative; [M-H]-
Name: LXA4-[19,19,20,20,20-d5]
Name: 5S,6R,15S-trihydroxy-7E,9E,11Z,13E-eicosatetraenoic acid- [19,19,20,20,20-d5]
Class: Natural Product; Lipid
Formula: C20H32O5
Exact mass: 352.22498
SMILES: CCCCCC(C=CC=CC=CC=CC(C(CCCC(=O)O)O)O)O
InChI: InChI=1S/C20H32O5/c1-2-3-8-12-17(21)13-9-6-4-5-7-10-14-18(22)19(23)15-11-16-20(24)25/h4-7,9-10,13-14,17-19,21-23H,2-3,8,11-12,15-16H2,1H3,(H,24,25)/b6-4-,7-5+,13-9+,14-10+/t17-,18+,19-/m0/s1/i1D3,2D2
Instrument: TSQ Vantage, Thermo Scientific coupled to Nexera, Shimadzu
Instrument type: LC-ESI-QQ
Ms type: MS2
Ion mode: NEGATIVE
Collision energy: 17 eV
Ionization: ESI
Column name: Inertsil ODS-3, (C18, 2.1mm i.d. x 100mm, 2 microm) with Inertsil ODS-3 (3 mm i.d. x 10 mm, 5 microm)
Retention time: 4.0 min
Precursor m/z: 356.2491
Precursor type: [M-H]-
m/z	relative intensity
59.1	10
71.1	9
83.3	8
93.4	6
95.3	12
96.8	8
97.8	12
98.9	40
99.5	16
100.9	7
101.6	5
104.6	8
106	8
107.2	15
107.7	6
108.9	16
113	11
114.2	15
115	683
115.5	289
116.9	42
117.9	34
118.6	11
120.1	6
121.4	9
124.8	16
126	5
133.1	29
135	209
135.6	28
136.9	6
139.3	5
142.8	39
144.1	91
144.9	16
147.2	11
154.1	27
156.8	9
167.6	9
169.2	43
170.3	28
171.1	8
174.9	21
178	10
180.1	13
184.5	13
189.1	73
191.6	5
192.8	29
194	31
196	7
204.2	26
206.9	13
219.1	46
220.5	11
222.2	689
222.8	6
233	21
233.6	7
235.3	6
240.2	737
244	5
247.7	6
251	49
251.7	7
253	7
266	8
271.3	11
276.1	109
283.7	5
294.3	106
296.5	7
312	42
320.1	41
338.2	91
356.1	999
