Mass spectrum: Lycopene; LC-ESI-QTOF; MS2; POSITIVE; ESI; [M+H]+; COLLISION_ENERGY 30 eV.
Name: Lycopene
Name: All-trans-Lycopene
Class: Natural product; carotenoids, carotene
Formula: C40H56
Exact mass: 536.4382
SMILES: CC(=CCC/C(=C/C=C/C(=C/C=C/C(=C/C=C/C=C(/C=C/C=C(/C=C/C=C(/CCC=C(C)C)\C)\C)\C)/C)/C)/C)C
InChI: InChI=1S/C40H56/c1-33(2)19-13-23-37(7)27-17-31-39(9)29-15-25-35(5)21-11-12-22-36(6)26-16-30-40(10)32-18-28-38(8)24-14-20-34(3)4/h11-12,15-22,25-32H,13-14,23-24H2,1-10H3/b12-11+,25-15+,26-16+,31-17+,32-18+,35-21+,36-22+,37-27+,38-28+,39-29+,40-30+
Instrument: Xevo G2-S QtOF, Waters (USA) coupled to ACQUITY UPLC, Waters (USA).
Instrument type: LC-ESI-QTOF
Ms type: MS2
Ion mode: POSITIVE
Ionization: ESI
Collision energy: 30 V
Precursor type: [M+H]+
Precursor m/z: 537.4455
m/z	relative intensity
69.057	125
81.057	276
91.041	52
93.056	233
95.072	245
105.056	300
107.072	334
109.088	258
117.056	67
119.071	524
120.076	76
121.087	329
123.103	225
129.056	60
131.072	219
132.077	60
133.087	425
134.091	50
135.103	164
137.118	71
142.063	85
143.071	286
144.077	82
145.087	615
146.091	76
147.051	52
147.103	236
149.118	78
155.072	91
156.079	127
157.087	588
158.093	127
159.102	361
160.107	55
161.118	129
169.087	286
170.094	100
171.103	368
172.107	76
173.119	293
174.121	51
175.134	148
177.15	69
181.087	102
182.094	60
183.103	319
184.108	75
185.118	263
186.123	51
187.134	140
189.149	59
193.087	86
194.095	68
195.103	166
196.109	79
197.119	265
198.124	96
199.134	163
201.15	60
203.165	60
207.103	133
208.111	69
209.119	280
210.123	86
211.134	220
213.15	82
215.167	56
221.119	153
222.124	62
223.134	193
225.151	89
233.119	84
235.135	119
236.142	57
237.15	91
239.167	54
241.182	63
247.136	90
249.15	105
251.167	84
255.197	51
261.151	88
263.166	89
265.183	50
267.198	76
269.214	100
273.151	54
275.166	88
277.182	71
281.039	258
282.04	83
283.037	55
289.182	50
291.196	54
331.232	53
333.245	61
343.23	54
375.297	91
399.295	63
413.313	63
444.369	179
445.373	76
455.361	65
467.362	118
468.366	54
535.428	135
536.436	381
537.443	999
538.447	394
539.45	73
