Mass spectrum: Ofloxacin; LC-ESI-ITFT; MS; Positive
Name: Ofloxacin
Class: Non-Natural Product
Formula: C18H20FN3O4
Exact mass: 361.14378
SMILES: CC1COC2=C3N1C=C(C(=O)C3=CC(=C2N4CCN(CC4)C)F)C(=O)O
InChI: InChI=1S/C18H20FN3O4/c1-10-9-26-17-14-11(16(23)12(18(24)25)8-22(10)14)7-13(19)15(17)21-5-3-20(2)4-6-21/h7-8,10H,3-6,9H2,1-2H3,(H,24,25)
Instrument: Dionex U3000 and Exactive Orbitrap (Thermofisher Scientific)
Instrument type: LC-ESI-ITFT
Ms type: MS
Ion mode: POSITIVE
Ionization: ESI
Column name: L-column 2 ODS
m/z	relative intensity
149.02405	56
362.15266	999
363.15611	115
