Mass spectrum: Benzene; CI-Q; MS; Positive; Reactant ion NO+
Name: Benzene
Class: Synthetic compound; aromatic compound
Formula: C6H6
Exact mass: 78.0470
SMILES: c1ccccc1
InChI: InChI=1S/C6H6/c1-2-4-6-5-3-1/h1-6H
Instrument: PTR-QMS 500 (IONICON Analytik GmbH, Innsbruck, Austria)
Instrument type: CI-Q
Ms type: MS
Ion mode: POSITIVE
Ionization: CI
m/z	relative intensity
78	999
108	327
