Mass spectrum: 3-Hexene (cis/trans mixture); CI-Q; MS; Positive; Reactant ion NO+
Name: 3-Hexene (cis/trans mixture)
Class: Synthetic compound; alkenes
Formula: C6H12
Exact mass: 84.0939
SMILES: CCC=CCC
InChI: InChI=1S/C6H12/c1-3-5-6-4-2/h5-6H,3-4H2,1-2H3
Instrument: PTR-QMS 500 (IONICON Analytik GmbH, Innsbruck, Austria)
Instrument type: CI-Q
Ms type: MS
Ion mode: POSITIVE
Ionization: CI
m/z	relative intensity
83	318
84	999
