Mass spectrum: Astaxanthin; LC-ESI-QTOF; MS2; POSITIVE; ESI; [M+H]+; CE 20 V
Name: Astaxanthin
Class: Natural products; Carotenoids, Xanthophyll
Formula: C40H52O4
Exact mass: 596.3866
SMILES: CC1=C(C(C[C@@H](C1=O)O)(C)C)/C=C/C(=C/C=C/C(=C/C=C/C=C(/C=C/C=C(/C=C/C2=C(C(=O)[C@H](CC2(C)C)O)C)\C)\C)/C)/C
InChI: InChI=1S/C40H52O4/c1-27(17-13-19-29(3)21-23-33-31(5)37(43)35(41)25-39(33,7)8)15-11-12-16-28(2)18-14-20-30(4)22-24-34-32(6)38(44)36(42)26-40(34,9)10/h11-24,35-36,41-42H,25-26H2,1-10H3/b12-11+,17-13+,18-14+,23-21+,24-22+,27-15+,28-16+,29-19+,30-20+/t35-,36-/m0/s1
Instrument: Xevo G2-S QtOF, Waters (USA) coupled to ACQUITY UPLC, Waters (USA).
Instrument type: LC-ESI-QTOF
Ms type: MS2
Ion mode: POSITIVE
Ionization: ESI
Collision energy: 20 V
Precursor type: [M+H]+
Precursor m/z: 597.3938
m/z	relative intensity
147.117	9
173.134	4
174.134	1
189.128	1
201.128	2
203.142	2
219.137	1
221.153	1
267.171	1
273.183	1
285.183	3
287.199	3
288.206	1
297.18	3
299.197	2
311.2	1
312.207	1
357.065	2
358.069	1
359.232	2
361.251	3
363.233	2
377.247	4
379.262	11
380.264	2
389.243	1
429.272	2
430.279	1
433.267	2
434.281	1
443.293	2
451.286	1
473.303	1
474.307	1
491.314	4
492.32	1
504.323	2
505.33	2
551.392	1
561.371	5
562.38	3
564.075	6
564.874	1
565.072	6
565.873	2
566.068	3
567.068	2
578.371	1
579.383	32
580.387	12
581.389	3
596.097	2
596.118	1
596.185	2
596.307	4
596.34	4
596.384	118
596.871	1
596.921	1
597.042	2
597.09	5
597.13	1
597.166	3
597.213	5
597.253	2
597.275	2
597.298	2
597.325	5
597.341	5
597.394	999
597.456	2
597.477	2
597.516	6
597.55	2
597.582	2
597.856	1
597.892	3
598.073	2
598.111	1
598.152	1
598.193	2
598.218	2
598.258	2
598.311	3
598.337	3
598.397	373
598.446	2
598.466	2
598.489	2
598.52	3
598.902	1
599.11	1
599.126	2
599.15	2
599.175	7
599.218	9
599.277	1
599.315	5
599.348	3
599.4	72
599.448	2
599.465	2
599.487	2
599.536	16
599.575	1
600.075	1
600.119	1
600.168	3
600.197	1
600.221	2
600.335	1
600.394	5
600.422	3
600.542	5
