Mass spectrum: Lycopene-5,6-diol; LC-ESI-QTOF; MS2; POSITIVE; ESI; [M+H]+; CE 30 V
Name: Lycopene-5,6-diol
Class: Natural products; Carotenoids, Xanthophyll
Formula: C40H58O2
Exact mass: 570.4437
SMILES: CC(=CCC/C(=C/C=C/C(=C/C=C/C(=C/C=C/C=C(\C)/C=C/C=C(\C)/C=C/C(C(C)(CCC=C(C)C)O)O)/C)/C)/C)C
InChI: InChI=1S/C40H58O2/c1-32(2)18-13-22-36(7)25-15-27-37(8)26-14-23-34(5)20-11-12-21-35(6)24-16-28-38(9)29-30-39(41)40(10,42)31-17-19-33(3)4/h11-12,14-16,18-21,23-30,39,41-42H,13,17,22,31H2,1-10H3/b12-11+,23-14+,24-16+,27-15+,30-29+,34-20+,35-21+,36-25+,37-26+,38-28+
Instrument: Xevo G2-S QtOF, Waters (USA) coupled to ACQUITY UPLC, Waters (USA).
Instrument type: LC-ESI-QTOF
Ms type: MS2
Ion mode: POSITIVE
Ionization: ESI
Collision energy: 30 V
Precursor type: [M+H]+
Precursor m/z: 571.4510
m/z	relative intensity
69.062	95
81.061	272
91.046	91
93.061	359
95.077	323
105.061	455
107.077	525
109.092	360
117.061	89
119.077	809
120.081	96
121.092	600
122.096	72
123.108	360
129.061	95
131.077	379
132.082	86
133.092	685
134.096	95
135.108	324
137.124	78
139.103	111
142.069	139
143.077	439
144.083	192
145.092	999
146.096	152
147.108	446
149.123	121
155.077	147
156.084	155
157.092	997
158.097	209
159.108	724
160.112	128
161.124	240
169.092	453
170.098	161
171.108	646
172.113	140
173.123	418
175.139	158
177.155	82
181.092	164
182.1	121
183.108	524
184.113	143
185.124	403
186.129	91
187.14	219
188.145	70
193.092	107
194.1	111
195.108	292
196.114	145
197.124	524
198.129	171
199.139	325
200.144	73
201.155	120
203.171	83
207.108	177
208.115	128
209.124	486
210.129	137
211.139	363
212.145	93
213.155	141
221.123	239
222.13	90
223.14	312
224.144	87
225.156	155
227.171	124
233.124	118
235.139	188
237.155	150
239.171	101
241.187	87
247.139	117
249.155	160
251.171	122
255.202	73
256.21	75
261.156	117
263.171	108
265.187	137
267.203	172
275.172	101
277.187	102
279.202	82
289.187	93
333.251	74
391.295	87
413.316	127
417.31	128
460.366	118
478.377	276
479.381	131
535.427	71
551.425	77
552.432	134
553.437	111
569.436	216
570.443	996
571.448	665
572.451	193
