Mass spectrum: (S)-3-methyl-1-heptanol; GC-FI-TOF; MS; M*+; FI voltage 10 kV
Name: (R)-3-methyl-1-heptanol
Class: Synthetic compound; Alkyl alcohol
Formula: C8H18O
Exact mass: 130.1358
SMILES: C[C@@H](CCCC)CCO
InChI: InChI=1S/C8H18O/c1-3-4-5-8(2)6-7-9/h8-9H,3-7H2,1-2H3/t8-/m0/s1
Instrument: JMS-T100GCV (JEOL, Akishima, Japan) coupled to Agilent 7890A gas chromatography.
Instrument type: GC-FI-TOF
Ms type: MS
Ion mode: POSITIVE
Ionization: FI
Column name: HP-5 19091J-413 USD364547H (Agilent), 30 m, I.D. 0.32 mm, thickness 0.25  micrometer.
Retention time: 6.59 min
m/z	relative intensity
29.040	76
31.019	51
83.090	48
84.097	140
85.102	49
112.126	999
113.130	115
129.128	50
130.136	299
131.142	54
