Mass spectrum: 1,3,5-Trimethylbenzene; CI-Q; MS; POSITIVE; Reactant ion NO+
Name: 1,3,5-Trimethylbenzene
Name: Mesitylene
Class: Synthetic compound; aromatic
Formula: C9H12
Exact mass: 120.0939
SMILES: Cc1=cc(=cc(=c1)C)C
InChI: InChI=1S/C9H12/c1-7-4-8(2)6-9(3)5-7/h4-6H,1-3H3
Instrument: PTR-QMS 500 (IONICON Analytik GmbH, Innsbruck, Austria)
Instrument type: CI-Q
Ms type: MS
Ion mode: POSITIVE
Ionization: CI
m/z	relative intensity
120	999
