Mass spectrum: 2-(Perfluorooctyl)ethanol; LC-ESI-ITFT; MS; Negative
Name: 2-(Perfluorooctyl)ethanol
Class: Non-Natural Product
Formula: C10H5F17O
Exact mass: 464.00689
SMILES: C(CO)C(C(C(C(C(C(C(C(F)(F)F)(F)F)(F)F)(F)F)(F)F)(F)F)(F)F)(F)F
InChI: InChI=1S/C10H5F17O/c11-3(12,1-2-28)4(13,14)5(15,16)6(17,18)7(19,20)8(21,22)9(23,24)10(25,26)27/h28H,1-2H2
Instrument: Dionex U3000 and Exactive Orbitrap (Thermofisher Scientific)
Instrument type: LC-ESI-ITFT
Ms type: MS
Ion mode: NEGATIVE
Ionization: ESI
Column name: L-column 2 ODS
m/z	relative intensity
354.97782	44
382.97277	24
392.97434	85
402.97873	234
403.9821	24
412.98065	27
422.98506	122
434.92916	35
436.92612	24
442.99065	262
443.99391	27
462.99742	161
495.99491	471
496.99826	49
506.98634	999
507.98955	117
509.00171	25
