Mass spectrum: Squalene; LC-ESI-QTOF; MS2; POSITIVE; ESI; [M+H]+; CE 20 V
Name: Squalene
Class: Natural product; Triterpene
Formula: C30H50
Exact mass: 410.3913
SMILES: CC(=CCC/C(=C/CC/C(=C/CC/C=C(/CC/C=C(/CCC=C(C)C)\C)\C)/C)/C)C
InChI: InChI=1S/C30H50/c1-25(2)15-11-19-29(7)23-13-21-27(5)17-9-10-18-28(6)22-14-24-30(8)20-12-16-26(3)4/h15-18,23-24H,9-14,19-22H2,1-8H3/b27-17+,28-18+,29-23+,30-24+
Instrument: Xevo G2-S QtOF, Waters (USA) coupled to ACQUITY UPLC, Waters (USA).
Instrument type: LC-ESI-QTOF
Ms type: MS2
Ion mode: POSITIVE
Collision energy: 20 V
Ionization: ESI
Column name: Acquity 1.7 micrometer BEH UPLC C18 column (Waters Corporation).
Ion type: [M+H]+
Precursor m/z: 411.3985
m/z	relative intensity
69.071	55
81.07	288
83.085	92
95.086	303
97.102	89
107.085	65
109.102	349
111.115	52
121.102	187
123.117	264
133.101	133
135.117	275
137.133	326
147.12	111
149.133	377
151.148	92
159.116	55
161.131	89
163.148	264
165.164	78
175.148	164
177.162	155
179.179	81
189.164	115
191.179	166
203.179	174
205.194	96
217.192	173
217.201	72
231.211	269
245.223	87
259.237	72
273.259	104
287.27	108
301.145	66
301.291	107
329.319	103
355.337	57
409.386	64
411.399	999
412.391	55
412.405	199
413.272	75
