Mass spectrum: Zeaxanthin; LC-ESI-QTOF; MS2; POSITIVE; ESI; [M+H]+; CE 40 V
Name: Zeaxanthin
Class: Natural products; Carotenoids, Xanthophyll
Formula: C40H56O2
Exact mass: 568.4280
SMILES: CC1=C(C(C[C@@H](C1)O)(C)C)/C=C/C(=C/C=C/C(=C/C=C/C=C(/C=C/C=C(/C=C/C2=C(C[C@H](CC2(C)C)O)C)\C)\C)/C)/C
InChI: InChI=1S/C40H56O2/c1-29(17-13-19-31(3)21-23-37-33(5)25-35(41)27-39(37,7)8)15-11-12-16-30(2)18-14-20-32(4)22-24-38-34(6)26-36(42)28-40(38,9)10/h11-24,35-36,41-42H,25-28H2,1-10H3/b12-11+,17-13+,18-14+,23-21+,24-22+,29-15+,30-16+,31-19+,32-20+/t35-,36-/m1/s1
Instrument: Xevo G2-S QtOF, Waters (USA) coupled to ACQUITY UPLC, Waters (USA).
Instrument type: LC-ESI-QTOF
Ms type: MS2
Ion mode: POSITIVE
Ionization: ESI
Collision energy: 40 V
Precursor type: [M+H]+
Precursor m/z: 569.4353
m/z	relative intensity
81.066	70
93.066	166
95.081	166
105.066	198
107.082	302
109.097	173
117.066	67
119.081	559
120.087	95
121.097	256
123.113	78
131.081	221
133.097	435
134.101	66
135.113	357
137.092	55
142.073	53
143.081	186
144.088	70
145.097	535
146.101	86
147.113	225
149.092	50
149.129	67
155.081	88
156.089	89
157.097	395
158.103	110
159.112	403
160.117	82
161.128	121
169.097	205
170.103	95
171.112	314
172.118	90
173.128	317
174.133	58
175.144	371
176.147	55
181.097	98
182.104	66
183.112	282
184.118	74
185.128	224
186.134	65
187.144	193
191.139	60
193.097	63
194.104	69
195.113	179
196.119	98
197.128	288
198.134	88
199.144	142
201.16	166
207.113	109
208.119	81
209.128	296
210.134	107
211.144	180
212.149	56
213.159	85
217.155	83
219.171	71
221.128	128
222.135	62
223.143	168
224.15	63
225.159	111
233.127	59
235.144	104
237.16	118
239.176	89
241.19	50
247.143	65
249.159	91
251.174	65
257.186	53
261.16	80
263.174	80
265.191	95
271.201	61
275.175	69
277.191	51
283.201	80
285.217	69
297.217	52
323.233	50
415.295	61
476.362	574
477.367	290
478.37	59
549.408	75
550.413	53
551.424	105
567.419	451
568.427	999
569.433	974
570.437	339
571.441	71
