Mass spectrum: n-Hexane; CI-Q; MS; Positive; Reactant ion NO+
Name: n-Hexane
Class: Synthetic compound; alkanes
Formula: C6H14
Exact mass: 86.1096
SMILES: CCCCCC
InChI: InChI=1S/C6H14/c1-3-5-6-4-2/h3-6H2,1-2H3
Instrument: PTR-QMS 500 (IONICON Analytik GmbH, Innsbruck, Austria)
Instrument type: CI-Q
Ms type: MS
Ion mode: POSITIVE
Ionization: CI
m/z	relative intensity
43	26
57	33
71	6
85	999
