Mass spectrum: RvD1; LC-ESI-QQ; MS2; [M-H]-; Negative
Name: RvD1
Name: Resolvin D1
Name: 7S,8R,17S-trihydroxy-DHA
Name: 7S,8R,17S-trihydroxy-4Z,9E,11E,13Z,15E,19Z-docosahexaenoic acid
Class: Natural Product; Lipid
Formula: C22H32O5
Exact mass: 376.22498
SMILES: CC/C=C\C[C@@H](/C=C/C=C\C=C\C=C\[C@H]([C@H](C/C=C\CCC(=O)O)O)O)O
InChI: InChI=1S/C22H32O5/c1-2-3-9-14-19(23)15-10-6-4-5-7-11-16-20(24)21(25)17-12-8-13-18-22(26)27/h3-12,15-16,19-21,23-25H,2,13-14,17-18H2,1H3,(H,26,27)/b6-4-,7-5+,9-3-,12-8-,15-10+,16-11+/t19-,20+,21-/m0/s1
Instrument: TSQ Vantage, Thermo Scientific coupled to Nexera, Shimadzu
Instrument type: LC-ESI-QQ
Ms type: MS2
Ion mode: NEGATIVE
Collision energy: 17 eV
Ionization: ESI
Column name: Inertsil ODS-3, (C18, 2.1mm i.d. x 100mm, 2 microm) with Inertsil ODS-3 (3 mm i.d. x 10 mm, 5 microm)
Retention time: 4.75 min
Precursor m/z: 375.21770
Precursor type: [M-H]-
m/z	relative intensity
42.8	6
43.7	7
68.9	21
93	7
97.2	70
106.6	10
107.7	12
111.1	14
113	12
117.2	18
119.6	8
121.1	59
123.6	9
124.7	15
133	20
134.1	14
135	186
135.6	45
137.1	8
139.2	10
141.1	999
143.3	11
145	8
157.1	7
161.3	8
162.7	12
163.9	118
164.6	35
170.8	10
171.6	6
175.3	14
177.2	10
178.9	14
185.1	9
186.9	8
189	38
189.6	16
196.8	11
199.4	6
203	7
214	7
215.1	770
216.8	11
231.8	8
233	496
233.5	170
241	10
244.2	6
259	18
276.7	24
277.3	14
294.9	15
313.1	6
331.4	14
339.2	15
356.9	13
375.1	987
