Mass spectrum: Feruloylputrescine; LC-ESI-ITTOF; MS; Positive
Name: Feruloylputrescine
Name: Subaphyllin
Class: Natural Product; Phenylpropanoids; ferulic acid esters
Formula: C14H20N2O3
Exact mass: 264.14739
SMILES: COC1=C(C=CC(=C1)/C=C/C(=O)NCCCCN)O
InChI: InChI=1S/C14H20N2O3/c1-19-13-10-11(4-6-12(13)17)5-7-14(18)16-9-3-2-8-15/h4-7,10,17H,2-3,8-9,15H2,1H3,(H,16,18)/b7-5+
Instrument: LCMS-ITTOF, Shimadzu
Instrument type: LC-ESI-ITTOF
Ms type: MS
Ion mode: POSITIVE
Collision energy: 120 %
Ionization: ESI
Column name: Agilent Poroshell 120 EC-C18 (2.1 x 75 mm)
m/z	relative intensity
265.15249	999
266.1566	167
267.158	13
287.1375	12
