Mass spectrum: (S)-3-methylheptyl bromide; GC-EI-TOF; MS; positive; EI; M+*.
Name: (S)-3-methylheptyl bromide
Class: Synthetic compound
Formula: C8H17Br
Exact mass: 192.0514
SMILES: CCCC[C@H](C)CCBr
InChI: InChI=1S/C8H17Br/c1-3-4-5-8(2)6-7-9/h8H,3-7H2,1-2H3/t8-/m0/s1
Instrument: JMS-T100GCV (JEOL, Akishima, Japan) coupled to Agilent 7890A gas chromatography.
Instrument type: GC-EI-TOF
Ms type: MS
Ion mode: POSITIVE
Ionization: EI
Column name: HP-5 19091J-413 USD364547H (Agilent), length 30 m, I.D. 0.32 mm, thickness 0.25 micrometer.
Retention time: 6.92 min
m/z	relative intensity
26.016	28
27.024	483
28.006	15
28.032	109
29.040	538
30.043	12
31.990	6
38.016	9
39.024	338
40.031	53
41.040	817
41.092	8
42.047	120
43.055	999
43.109	9
44.059	33
50.017	9
51.024	26
52.032	12
53.040	105
54.047	36
55.055	715
55.116	7
56.062	184
57.071	302
58.074	13
65.040	13
67.055	32
68.063	8
69.071	123
70.078	137
71.086	96
77.040	7
79.055	7
81.071	5
83.087	30
84.094	34
85.102	601
86.105	37
92.935	21
94.933	20
97.102	10
106.950	37
108.948	35
112.126	9
113.133	6
134.981	14
136.979	13
148.997	76
150.995	74
164.020	10
165.011	5
166.018	10
