Mass spectrum: 4,4'-Diaponeurosporene; LC-ESI-QTOF; MS2; POSITIVE; ESI; [M+H]+; COLLISION_ENERGY 15 eV.
Name: 4,4'-Diaponeurosporene
Name: All-trans-4,4'-diaponeurosporene
Class: Natural product; carotenoids, carotene
Formula: C30H42
Exact mass: 402.3287
SMILES: CC(=CCC/C(=C/C=C/C(=C/C=C/C=C(\C)/C=C/C=C(\C)/C=C/C=C(C)C)/C)/C)C
InChI: InChI=1S/C30H42/c1-25(2)15-11-19-29(7)23-13-21-27(5)17-9-10-18-28(6)22-14-24-30(8)20-12-16-26(3)4/h9-11,13-19,21-24H,12,20H2,1-8H3/b10-9+,19-11+,21-13+,22-14+,27-17+,28-18+,29-23+,30-24+
Instrument: Xevo G2-S QtOF, Waters (USA) coupled to ACQUITY UPLC, Waters (USA).
Instrument type: LC-ESI-QTOF
Ms type: MS2
Ion mode: POSITIVE
Ionization: ESI
Collision energy: 15 V
Precursor type: [M+H]+
Precursor m/z: 403.3359
m/z	relative intensity
69.07	93
81.07	151
83.085	57
93.07	260
95.086	177
105.07	185
107.086	265
109.101	539
110.105	58
119.085	480
120.091	65
121.101	318
122.108	72
123.117	168
131.086	78
133.101	436
134.107	109
135.117	396
136.121	68
143.086	224
145.101	585
146.106	86
147.117	352
148.122	84
149.132	76
155.086	60
157.102	990
158.106	194
159.117	459
160.122	112
161.132	192
169.101	201
170.106	53
171.117	463
172.122	129
173.133	449
174.138	59
175.148	319
176.152	72
183.117	250
184.122	60
185.133	493
186.138	156
187.148	351
188.155	108
189.163	59
195.116	108
197.132	317
198.14	89
199.148	871
200.152	166
201.163	217
202.17	57
203.179	82
207.116	92
209.132	297
210.138	88
211.148	369
212.153	145
213.163	147
214.17	52
216.187	197
221.132	188
223.148	216
224.155	79
225.164	187
227.179	211
228.184	75
235.148	132
237.164	112
239.179	85
241.195	976
242.2	259
249.164	133
250.168	53
251.179	129
252.184	56
253.194	115
263.179	157
264.186	108
265.195	163
266.2	60
267.21	77
277.194	198
278.2	71
291.209	103
308.25	152
310.265	168
319.241	84
323.272	77
333.257	701
334.263	225
359.273	59
366.83	76
401.216	93
401.26	59
401.286	80
401.319	729
402.326	999
403.229	221
403.329	352
404.334	66
