Mass spectrum: (R)-3-methyl-1-heptanol; GC-FI-TOF; MS; M*+; FI voltage 10 kV
Name: (R)-3-methyl-1-heptanol
Class: Synthetic compound; Alkyl alcohol
Formula: C8H18O
Exact mass: 130.1358
SMILES: CCCC[C@@H](C)CCO
InChI: InChI=1S/C8H18O/c1-3-4-5-8(2)6-7-9/h8-9H,3-7H2,1-2H3/t8-/m1/s1
Instrument: JMS-T100GCV (JEOL, Akishima, Japan) coupled to Agilent 7890A gas chromatography.
Instrument type: GC-FI-TOF
Ms type: MS
Ion mode: POSITIVE
Ionization: FI
Column name: HP-5 19091J-413 USD364547H (Agilent), length 30 m, I.D. 0.32 mm, thickness 0.25  micrometer.
Retention time: 6.59 min
m/z	relative intensity
29.040	65
31.019	56
59.050	138
83.089	59
84.097	162
85.101	50
112.126	999
113.130	120
128.119	27
129.127	47
130.136	312
131.141	60
