Mass spectrum: 3-Hydroxy-4-keto-gamma-carotene; LC-ESI-QTOF; MS2; POSITIVE; ESI; [M+H]+; CE 30 V
Name: 3-Hydroxy-4-keto-gamma-carotene
Name: 4-Oxogazaniaxanthin
Name: SCHEMBL2508529
Name: 3-Hydroxy-4-oxo-gamma-carotene
Name: (5'Z)-3-Hydroxy-beta,psi-caroten-4-one
Class: Natural products; Carotenoids, Xanthophyll
Formula: C40H54O2
Exact mass: 566.4124
SMILES: CC1=C(C(CC(C1=O)O)(C)C)/C=C/C(=C/C=C/C(=C/C=C/C=C(\C)/C=C/C=C(\C)/C=C/C=C(\C)/CCC=C(C)C)/C)/C
InChI: InChI=1S/C40H54O2/c1-30(2)17-13-20-33(5)23-15-25-34(6)24-14-21-31(3)18-11-12-19-32(4)22-16-26-35(7)27-28-37-36(8)39(42)38(41)29-40(37,9)10/h11-12,14-19,21-28,38,41H,13,20,29H2,1-10H3/b12-11+,21-14+,22-16+,25-15+,28-27+,31-18+,32-19+,33-23+,34-24+,35-26+
Instrument: Xevo G2-S QtOF, Waters (USA) coupled to ACQUITY UPLC, Waters (USA).
Instrument type: LC-ESI-QTOF
Ms type: MS2
Ion mode: POSITIVE
Ionization: ESI
Collision energy: 30 V
Precursor type: [M+H]+
Precursor m/z: 567.4197
m/z	relative intensity
69.066	57
81.066	117
93.066	134
95.082	150
105.066	198
107.081	284
109.097	317
119.081	538
120.086	64
121.097	249
123.113	142
131.081	155
133.06	52
133.097	314
135.076	116
135.113	197
137.092	105
143.081	184
144.088	59
145.097	418
146.101	57
147.112	814
148.116	92
149.128	54
155.081	79
156.088	83
157.097	410
158.102	103
159.112	297
160.116	55
161.128	158
169.097	213
170.102	69
171.112	330
172.117	69
173.128	358
174.132	62
175.144	74
181.097	81
182.104	66
183.113	235
184.117	58
185.128	198
187.143	112
189.123	57
193.096	60
194.103	66
195.113	163
196.118	64
197.128	252
198.133	65
199.144	161
201.123	88
201.159	58
203.176	55
207.112	107
208.119	57
209.128	246
210.133	68
211.144	167
213.159	77
215.139	51
221.128	136
223.143	163
225.16	80
233.127	50
235.144	98
237.159	76
247.143	62
249.16	74
255.206	144
261.16	71
263.175	76
265.191	58
267.206	50
275.175	67
277.19	53
285.18	58
299.197	69
443.293	69
549.408	72
565.403	166
566.409	189
567.419	999
568.422	451
569.439	163
