Mass spectrum: Diatoxanthin; LC-ESI-QTOF; MS2; POSITIVE; ESI; [M+H]+; CE 70 V
Name: Diatoxanthin
Class: Natural products; Carotenoids, Xanthophyll
Formula: C40H54O2
Exact mass: 566.4124
SMILES: CC1=C(C(C[C@@H](C1)O)(C)C)/C=C/C(=C/C=C/C(=C/C=C/C=C(\C)/C=C/C=C(\C)/C#CC2=C(C[C@H](CC2(C)C)O)C)/C)/C
InChI: InChI=1S/C40H54O2/c1-29(17-13-19-31(3)21-23-37-33(5)25-35(41)27-39(37,7)8)15-11-12-16-30(2)18-14-20-32(4)22-24-38-34(6)26-36(42)28-40(38,9)10/h11-21,23,35-36,41-42H,25-28H2,1-10H3/b12-11+,17-13+,18-14+,23-21+,29-15+,30-16+,31-19+,32-20+/t35-,36-/m1/s1
Instrument: Xevo G2-S QtOF, Waters (USA) coupled to ACQUITY UPLC, Waters (USA).
Instrument type: LC-ESI-QTOF
Ms type: MS2
Ion mode: POSITIVE
Ionization: ESI
Collision energy: 70 V
Precursor type: [M+H]+
Precursor m/z: 567.4197
m/z	relative intensity
107.086	150
109.098	146
119.086	292
121.1	118
123.116	68
131.086	71
133.102	148
135.118	150
143.084	89
144.09	60
145.103	247
156.95	70
157.097	88
158.965	999
159.117	251
159.968	66
161.135	91
164.116	65
169.103	88
170.108	78
171.083	60
171.114	66
173.132	268
174.136	100
177.086	130
182.108	102
183.113	69
185.131	79
187.148	67
197.13	133
198.129	77
199.149	138
200.954	112
201.161	143
207.119	143
208.122	113
209.132	205
211.146	91
212.151	101
221.136	67
222.138	74
223.145	61
226.949	515
226.956	141
227.138	91
233.132	134
234.137	65
236.148	72
247.147	98
249.16	113
252.181	69
257.127	132
261.169	72
263.177	143
265.193	62
271.149	123
273.161	124
275.173	106
277.184	79
277.192	98
288.17	69
300.086	78
302.2	100
315.902	100
317.896	63
320.905	94
325.147	128
327.212	77
329.222	72
331.925	92
332.92	262
334.915	64
348.236	63
372.242	77
373.248	68
393.963	166
394.954	116
394.966	207
395.963	71
465.299	60
494.229	121
564.24	74
566.407	140
567.362	186
567.38	60
567.412	222
567.457	725
568.359	70
568.38	146
568.466	347
569.26	74
569.277	136
569.313	470
569.345	65
569.374	152
569.392	130
569.44	141
569.462	83
569.484	81
570.317	138
570.363	122
570.718	228
571.047	158
