Mass spectrum: (S)-3-methyl-1-heptanol; GC-EI-TOF; MS; positive; EI; M+*
Name: (S)-3-methyl-1-heptanol
Class: Synthetic compound; Alkyl alcohol
Formula: C8H18O
Exact mass: 130.1358
SMILES: CCCC[C@H](C)CCO
InChI: InChI=1S/C8H18O/c1-3-4-5-8(2)6-7-9/h8-9H,3-7H2,1-2H3/t8-/m0/s1
Instrument: JMS-T100GCV (JEOL, Akishima, Japan) coupled to Agilent 7890A gas chromatography.
Instrument type: GC-EI-TOF
Ms type: MS
Ion mode: POSITIVE
Ionization: EI
Column name: HP-5 19091J-413 USD364547H (Agilent), length 30 m, I.D. 0.32 mm, thickness 0.25 micrometer.
Retention time: 6.46 min
m/z	relative intensity
26.016	20
27.024	483
28.032	92
29.003	75
29.040	515
31.019	620
31.064	6
39.024	354
40.031	60
41.040	999
41.092	9
42.047	349
43.019	61
43.055	924
43.109	9
44.027	29
44.059	30
45.035	68
46.042	14
51.024	19
53.040	84
54.047	39
55.055	925
55.116	9
56.063	487
57.035	61
57.070	243
67.055	39
68.063	22
69.071	282
70.078	548
71.050	12
71.084	51
82.078	22
83.086	181
84.094	410
85.100	62
97.102	20
