Mass spectrum: L-gamma-glutamyl-S-3-(1-oxobutyl)-L-cysteinyl-glycine; ESI-QQ; MS2; CE 10 eV; [M+H]+
Name: L-gamma-glutamyl-S-3-(1-oxobutyl)-L-cysteinyl-glycine
Class: Synthetic compound; Peptide
Formula: C14H23N3O7S
Exact mass: 377.1257
SMILES: O=C(N[C@@H](CSC(C)CC=O)C(=O)NCC(=O)O)CC[C@H](N)C(=O)O
InChI: InChI=1S/C14H23N3O7S/c1-8(4-5-18)25-7-10(13(22)16-6-12(20)21)17-11(19)3-2-9(15)14(23)24/h5,8-10H,2-4,6-7,15H2,1H3,(H,16,22)(H,17,19)(H,20,21)(H,23,24)/t8?,9-,10-/m0/s1
Instrument: Quattro Premier, Micromass (USA) coupled to Alliance HT 2795, Waters (USA).
Instrument type: LC-ESI-QQ
Ms type: MS2
Ion mode: POSITIVE
Ionization: ESI
Collision energy: 10 eV
Column name: C18(ODS), Cosmosil 5C18-AR-II, 4.6 x 150 mm, 4.4 micrometer
Precursor type: [M+H]+
Precursor m/z: 378.1330
m/z	relative intensity
102.3	5
127.5	23
127.9	23
128.3	14
129.9	5
130.2	5
145.4	7
145.7	18
146.0	21
161.2	6
161.5	10
161.9	11
162.3	8
178.4	6
178.9	18
181.9	10
182.2	12
231.1	843
231.9	5
232.1	7
249.1	85
256.7	11
257.1	19
284.6	5
285.1	19
302.6	5
303.1	45
303.4	16
307.7	5
315.2	5
332.0	10
359.8	18
360.1	32
378.1	999
