Mass spectrum: 3-Hydroxy-4-ketoyotulene; LC-ESI-QTOF; MS2; POSITIVE; ESI; [M+H]+; CE 30 V
Name: 3-Hydroxy-4-ketotorulene
Name: 3-Hydroxy-3',4'-didehydro-beta,psi-caroten-4-one
Class: Natural products; Carotenoids, Xanthophyll
Formula: C40H52O2
Exact mass: 564.3967
SMILES: CC1=C(C(CC(C1=O)O)(C)C)/C=C/C(=C/C=C/C(=C/C=C/C=C(\C)/C=C/C=C(\C)/C=C/C=C(\C)/C=C/C=C(C)C)/C)/C
InChI: InChI=1S/C40H52O2/c1-30(2)17-13-20-33(5)23-15-25-34(6)24-14-21-31(3)18-11-12-19-32(4)22-16-26-35(7)27-28-37-36(8)39(42)38(41)29-40(37,9)10/h11-28,38,41H,29H2,1-10H3/b12-11+,20-13+,21-14+,22-16+,25-15+,28-27+,31-18+,32-19+,33-23+,34-24+,35-26+
Instrument: Xevo G2-S QtOF, Waters (USA) coupled to ACQUITY UPLC, Waters (USA).
Instrument type: LC-ESI-QTOF
Ms type: MS2
Ion mode: POSITIVE
Ionization: ESI
Collision energy: 30 V
Precursor type: [M+H]+
Precursor m/z: 565.4046
m/z	relative intensity
67.05	11
69.066	21
79.05	11
81.066	55
83.081	21
91.05	39
93.066	105
95.082	68
97.061	10
105.066	149
106.068	14
107.081	178
108.086	18
109.06	13
109.097	242
110.101	29
111.076	36
117.065	33
119.081	409
120.085	53
121.097	145
122.1	17
123.076	17
123.112	45
125.092	32
128.057	13
129.065	36
130.072	17
131.082	128
132.086	36
133.06	25
133.097	236
134.1	29
135.076	65
135.112	182
136.117	19
137.092	68
137.127	13
141.065	13
142.073	49
143.081	160
144.087	58
145.097	384
146.101	65
147.076	21
147.113	389
148.116	59
149.092	29
149.127	38
151.071	12
151.108	25
153.086	21
155.081	63
155.102	33
156.089	84
157.097	364
158.102	80
159.076	34
159.113	227
160.117	46
161.092	30
161.128	116
162.132	15
163.107	25
163.142	11
166.073	11
167.081	33
168.089	30
169.097	179
170.103	63
171.112	246
172.118	62
173.092	28
173.128	218
174.099	15
174.132	34
175.106	24
175.143	71
177.122	17
179.081	43
180.088	24
181.097	81
181.119	19
182.103	55
183.112	209
184.119	55
185.092	14
185.128	135
186.1	12
186.134	28
187.107	20
187.144	166
188.147	29
189.123	55
189.159	17
191.137	17
192.089	18
193.097	57
194.104	60
195.112	157
196.119	62
197.093	10
197.128	202
198.134	51
199.108	17
199.144	146
200.147	28
201.123	59
201.16	64
202.162	16
203.139	32
205.097	10
205.154	12
206.104	31
207.112	100
207.136	11
208.119	64
209.128	212
210.134	76
211.107	12
211.144	130
212.147	33
213.122	22
213.16	61
214.163	12
215.139	31
215.175	12
218.104	12
219.113	29
219.134	21
220.12	36
221.128	138
221.152	31
222.135	57
223.107	10
223.144	125
224.149	43
225.126	19
225.159	71
226.166	17
227.137	13
227.176	41
229.154	12
231.113	26
232.119	24
233.128	69
234.135	39
235.143	96
236.149	31
237.159	86
238.164	24
239.14	18
239.175	47
240.179	15
241.153	14
241.19	22
244.12	13
245.128	40
246.135	33
247.144	72
248.149	28
249.159	74
250.165	23
251.175	72
252.18	26
253.191	54
254.195	15
255.171	16
255.207	15
257.129	17
258.135	25
259.143	43
260.15	37
261.159	67
262.165	31
263.175	66
264.179	24
265.191	62
266.195	21
267.171	12
267.206	26
268.211	11
269.186	15
271.143	21
272.151	16
273.159	44
273.183	11
274.167	34
275.175	77
276.18	25
277.19	51
278.194	16
279.171	10
279.207	33
281.185	17
284.152	15
285.159	23
285.181	21
286.167	17
287.177	50
287.2	13
288.18	23
289.191	52
290.197	18
291.205	33
293.185	13
293.221	13
297.161	11
297.18	13
298.171	11
299.172	15
299.194	40
300.179	12
301.191	33
302.196	16
303.205	31
304.212	12
305.222	10
311.175	10
311.198	11
312.188	11
313.191	21
314.196	11
315.207	33
316.213	10
317.222	25
318.227	11
319.239	25
327.205	19
328.214	14
329.223	21
330.227	12
331.24	30
332.243	24
333.253	16
337.21	11
339.209	11
341.225	32
342.23	12
343.238	32
344.244	13
345.252	42
346.257	15
347.267	13
351.227	13
353.238	21
355.239	22
357.253	35
358.261	28
359.267	17
365.243	23
366.248	15
367.25	14
377.245	17
383.269	12
385.283	13
397.285	46
398.291	22
409.288	14
411.3	23
417.276	26
419.29	18
429.275	15
431.288	22
443.291	21
458.311	10
459.324	12
472.33	40
473.332	28
474.337	11
485.342	16
491.33	16
496.327	12
497.335	13
509.339	44
510.344	16
519.399	13
547.392	73
548.395	33
549.39	13
564.394	151
565.404	999
566.216	24
566.408	510
567.412	141
568.184	11
568.415	22
568.468	14
