Mass spectrum: (R)-4-methyloctadecanal; GC-FI-TOF; MS; M*+ ;[M+H]+; FI voltage 10 kV
Name: (R)-4-methyloctadecanal
Class: Synthetic compounds
Formula: C19H38O
Exact mass: 282.2923
SMILES: C[C@H](CCCCCCCCCCCCCC)CCC=O
InChI: InChI=1S/C19H38O/c1-3-4-5-6-7-8-9-10-11-12-13-14-16-19(2)17-15-18-20/h18-19H,3-17H2,1-2H3/t19-/m1/s1
Instrument: JMS-T100GCV (JEOL, Akishima, Japan) coupled to Agilent 7890A gas chromatography.
Instrument type: GC-FI-TOF
Ms type: MS
Ion mode: POSITIVE
Ionization: FI
Column name: HP-5 19091J-413 USD364547H (Agilent), 30 m, I.D. 0.32 mm, thickness 0.25  micrometer.
Retention time: 11.12 min
m/z	relative intensity
29.039	59
44.026	67
85.065	84
222.236	81
223.243	158
236.250	92
238.266	365
239.271	104
254.262	66
264.282	868
265.284	178
267.268	126
281.287	138
282.292	999
283.297	429
284.305	63
