Mass spectrum: 4-Ketozeinoxanthin; LC-ESI-QTOF; MS2; POSITIVE; ESI; [M+H]+; CE 30 V
Name: 4-Ketozeinoxanthin
Class: Natural products; Carotenoids, Xanthophyll
Formula: C40H54O2
Exact mass: 566.4124
SMILES: CC1=CCCC([C@H]1/C=C/C(=C/C=C/C(=C/C=C/C=C(\C)/C=C/C=C(\C)/C=C/C2=C(C(=O)[C@H](CC2(C)C)O)C)/C)/C)(C)C
InChI: InChI=1S/C40H54O2/c1-29(18-13-20-31(3)23-25-35-33(5)22-15-27-39(35,7)8)16-11-12-17-30(2)19-14-21-32(4)24-26-36-34(6)38(42)37(41)28-40(36,9)10/h11-14,16-26,35,37,41H,15,27-28H2,1-10H3/b12-11+,18-13+,19-14+,25-23+,26-24+,29-16+,30-17+,31-20+,32-21+/t35-,37-/m0/s1
Instrument: Xevo G2-S QtOF, Waters (USA) coupled to ACQUITY UPLC, Waters (USA).
Instrument type: LC-ESI-QTOF
Ms type: MS2
Ion mode: POSITIVE
Ionization: ESI
Collision energy: 30 V
Precursor type: [M+H]+
Precursor m/z: 567.4197
m/z	relative intensity
79.059	15
81.075	87
83.09	12
91.059	33
93.075	92
95.091	130
97.07	12
105.075	159
106.08	21
107.091	168
108.095	22
109.07	12
109.107	161
110.11	15
111.086	34
117.075	45
119.091	366
120.096	53
121.071	16
121.106	201
122.111	26
123.086	22
123.123	404
124.126	41
125.102	29
128.068	12
129.076	37
130.083	24
131.091	137
132.097	48
133.07	48
133.107	271
134.077	20
134.111	41
135.086	88
135.122	128
136.091	12
136.126	13
137.102	52
137.138	22
141.075	15
142.083	43
143.091	177
144.098	71
145.107	394
146.111	71
147.086	24
147.122	568
148.126	71
149.102	22
149.138	49
151.117	19
153.096	15
155.091	70
155.112	25
156.099	78
157.106	307
158.113	88
158.97	118
159.086	27
159.122	199
160.093	11
160.127	39
161.101	37
161.138	108
162.073	19
162.143	21
163.08	17
163.117	21
163.153	18
165.076	13
167.091	32
168.099	24
169.107	165
170.113	64
171.086	13
171.122	197
172.128	54
173.101	34
173.138	207
174.108	11
174.142	34
175.116	27
175.153	75
176.158	13
177.096	11
177.133	10
177.17	56
179.091	33
180.098	25
181.106	87
182.114	60
183.122	200
184.128	64
185.101	22
185.138	138
186.108	13
186.143	31
187.117	34
187.153	64
188.159	17
189.133	45
189.169	48
191.148	13
192.098	11
193.106	53
194.114	53
195.122	166
196.128	81
197.101	17
197.138	222
198.143	84
199.117	29
199.153	97
200.158	25
201.133	82
201.169	51
202.137	16
202.173	10
203.112	17
203.148	40
203.184	42
205.164	11
206.113	24
207.121	85
208.129	50
209.137	202
210.143	70
211.117	21
211.153	153
212.158	38
213.132	34
213.168	41
214.175	13
215.148	29
215.185	18
217.126	11
218.134	16
219.121	20
219.142	30
220.13	30
221.137	90
221.16	18
222.143	48
223.117	16
223.153	136
224.158	43
225.132	27
225.168	64
226.173	18
227.148	25
227.184	30
229.163	12
231.122	15
231.142	13
232.129	14
233.137	47
233.16	11
234.144	28
235.153	78
236.159	31
237.132	15
237.168	67
238.174	22
239.148	20
239.184	35
240.189	13
241.127	19
241.163	14
241.199	22
243.215	20
245.137	23
246.145	23
247.153	48
248.159	21
249.168	52
250.173	20
251.147	13
251.183	41
252.19	13
253.162	22
253.2	30
254.206	14
255.178	18
255.215	35
256.222	19
257.231	14
258.145	11
259.153	27
260.16	23
261.168	57
262.174	22
263.183	45
264.188	17
265.162	12
265.198	26
266.206	15
267.178	28
267.215	34
268.22	14
269.231	21
271.174	13
273.168	24
273.189	19
274.175	16
275.184	55
276.189	23
277.163	14
277.198	35
278.205	15
279.178	18
279.215	18
281.193	20
281.231	23
285.189	59
286.19	19
287.185	24
288.189	11
289.199	30
290.204	14
291.214	23
292.22	11
293.194	14
293.229	14
297.189	54
298.192	17
299.204	49
300.207	14
301.199	16
303.214	16
305.23	15
307.247	10
311.205	21
312.209	12
313.207	15
315.213	13
317.23	15
319.246	16
321.261	15
323.204	10
325.214	14
327.214	11
329.229	12
331.244	14
332.253	12
333.224	14
333.26	22
334.267	14
337.22	15
341.23	11
343.246	15
345.225	11
345.261	17
347.276	23
351.235	59
352.24	28
353.242	13
357.261	14
358.267	11
359.238	11
359.275	17
363.235	25
364.242	15
365.251	21
369.278	12
377.25	25
389.25	15
397.29	13
399.306	18
413.322	13
418.289	98
419.292	35
421.311	12
429.317	17
430.916	45
431.296	14
442.287	13
443.296	65
444.302	35
445.309	21
461.342	13
471.326	11
474.351	195
475.355	96
476.358	24
487.358	34
488.362	18
510.349	36
511.355	20
547.394	10
549.409	29
550.413	13
565.404	281
566.411	998
566.476	11
566.596	35
567.417	809
567.601	25
568.421	265
569.382	105
569.446	72
