Mass spectrum: (S)-4-methyloctadecanal; GC-EI-TOF; MS; positive; EI; M+*.
Name: (S)-4-methyloctadecanal
Class: Synthetic compound
Formula: C19H38O
Exact mass: 282.2923
SMILES: C[C@@H](CCCCCCCCCCCCCC)CCC=O
InChI: InChI=1S/C19H38O/c1-3-4-5-6-7-8-9-10-11-12-13-14-16-19(2)17-15-18-20/h18-19H,3-17H2,1-2H3/t19-/m0/s1
Instrument: JMS-T100GCV (JEOL, Akishima, Japan) coupled to Agilent 7890A gas chromatography.
Instrument type: GC-EI-TOF
Ms type: MS
Ion mode: POSITIVE
Ionization: EI
Column name: HP-5 19091J-413 USD364547H (Agilent), length 30 m, I.D. 0.32 mm, thickness 0.25 micrometer.
Retention time: 11.13 min
m/z	relative intensity
27.024	114
28.006	11
28.032	34
29.003	33
29.040	448
30.044	11
31.019	9
39.024	86
40.031	19
41.040	867
41.092	8
42.047	143
43.019	78
43.055	999
43.109	10
44.027	125
44.059	31
45.034	17
53.040	46
54.047	51
55.019	10
55.055	644
55.116	6
56.062	699
56.124	7
57.034	138
57.070	877
58.042	67
58.074	34
59.048	6
65.039	9
66.047	7
67.055	187
68.062	81
69.070	380
70.078	139
71.050	17
71.086	225
72.058	31
72.089	12
77.039	6
79.055	20
80.062	18
81.070	206
82.078	257
83.050	10
83.086	183
84.093	61
85.065	144
85.101	128
86.070	10
86.105	7
87.080	9
93.070	9
94.078	9
95.086	179
96.093	101
97.101	126
98.108	29
99.081	6
99.117	21
100.088	10
109.101	42
110.109	38
111.117	66
112.124	18
113.132	11
123.117	19
124.125	12
125.133	22
126.139	8
127.148	6
137.132	8
138.140	7
139.149	9
140.156	5
152.156	5
153.164	5
154.172	6
180.187	5
182.203	19
210.234	23
223.241	13
236.249	6
238.264	30
239.268	7
264.279	6
