Mass spectrum: Antheraxanthin; LC-ESI-QTOF; MS2; POSITIVE; ESI; [M+H]+; CE 30 V
Name: Antheraxanthin
Class: Natural products; Carotenoids, Xanthophyll
Formula: C40H56O3
Exact mass: 584.4229
SMILES: CC1=C(C(C[C@@H](C1)O)(C)C)/C=C/C(=C/C=C/C(=C/C=C/C=C(\C)/C=C/C=C(\C)/C=C/[C@]23[C@](O2)(C[C@H](CC3(C)C)O)C)/C)/C
InChI: InChI=1S/C40H56O3/c1-29(17-13-19-31(3)21-22-36-33(5)25-34(41)26-37(36,6)7)15-11-12-16-30(2)18-14-20-32(4)23-24-40-38(8,9)27-35(42)28-39(40,10)43-40/h11-24,34-35,41-42H,25-28H2,1-10H3/b12-11+,17-13+,18-14+,22-21+,24-23+,29-15+,30-16+,31-19+,32-20+/t34-,35+,39-,40+/m1/s1
Instrument: Xevo G2-S QtOF, Waters (USA) coupled to ACQUITY UPLC, Waters (USA).
Instrument type: LC-ESI-QTOF
Ms type: MS2
Ion mode: POSITIVE
Ionization: ESI
Collision energy: 30 V
Precursor type: [M+H]+
Precursor m/z: 585.4302
m/z	relative intensity
81.07	135
93.07	296
95.086	285
105.07	301
107.085	524
109.101	351
119.086	913
120.091	213
121.101	541
122.104	80
123.081	196
123.117	159
125.095	75
131.086	349
132.09	83
133.101	751
134.106	118
135.081	97
135.117	543
136.12	91
137.096	141
143.086	305
144.092	138
145.101	999
146.106	231
147.117	402
148.121	86
149.096	149
149.133	106
151.076	146
155.106	120
156.093	90
157.101	789
158.106	216
159.117	870
160.121	174
161.098	120
161.132	251
163.111	206
165.091	256
169.101	384
170.107	102
171.117	772
172.122	193
173.132	634
174.135	114
175.112	97
175.148	714
176.151	113
177.128	123
181.101	140
181.122	155
182.107	78
183.117	452
184.122	144
185.132	548
186.137	163
187.147	400
188.152	86
189.127	145
191.142	131
193.101	87
195.117	336
196.122	190
197.132	629
198.137	203
199.148	333
201.126	90
201.164	258
202.167	73
203.143	217
207.116	193
207.137	162
208.123	118
209.132	523
210.137	161
211.147	449
212.152	114
213.163	181
215.144	88
217.159	102
221.132	255
221.154	467
222.137	129
222.157	168
223.149	383
224.153	151
225.163	223
227.181	81
233.13	113
235.147	240
236.153	115
237.164	271
239.179	172
241.195	76
247.146	130
247.167	73
248.154	70
249.163	232
250.169	90
251.178	162
252.183	77
253.192	96
255.174	70
257.191	90
261.163	150
262.168	76
263.178	186
265.195	172
273.161	70
275.18	119
276.184	71
277.193	110
279.21	82
281.189	72
283.205	124
287.179	89
287.2	106
289.193	104
301.192	70
379.258	78
492.355	98
567.417	124
584.414	296
585.429	574
586.432	217
