Mass spectrum: 2-(Perfluorooctyl)ethanol; LC-ESI-QQ; MS2; [M-H]-; CE 10 V
Name: 2-(Perfluorooctyl)ethanol
Class: Non-Natural Product
Formula: C10H5F17O
Exact mass: 464.00689
SMILES: C(CO)C(C(C(C(C(C(C(C(F)(F)F)(F)F)(F)F)(F)F)(F)F)(F)F)(F)F)(F)F
InChI: InChI=1S/C10H5F17O/c11-3(12,1-2-28)4(13,14)5(15,16)6(17,18)7(19,20)8(21,22)9(23,24)10(25,26)27/h28H,1-2H2
Instrument: Acquity UPLC and a Xevo TQ (Waters)
Instrument type: LC-ESI-QQ
Ms type: MS2
Ion mode: NEGATIVE
Collision energy: 10 V
Ionization: ESI
Column name: L-column 2 ODS
Precursor m/z: 462.99852
Precursor type: [M-H]-
m/z	relative intensity
317	36
355	193
375	32
383	107
403	999
423	226
463	33
