Mass spectrum: 4,4'-Diaponeurosporene; LC-ESI-QTOF; MS2; POSITIVE; ESI; [M+H]+; COLLISION_ENERGY 10 eV.
Name: 4,4'-Diaponeurosporene
Name: All-trans-4,4'-diaponeurosporene
Class: Natural product; carotenoids, carotene
Formula: C30H42
Exact mass: 402.3287
SMILES: CC(=CCC/C(=C/C=C/C(=C/C=C/C=C(\C)/C=C/C=C(\C)/C=C/C=C(C)C)/C)/C)C
InChI: InChI=1S/C30H42/c1-25(2)15-11-19-29(7)23-13-21-27(5)17-9-10-18-28(6)22-14-24-30(8)20-12-16-26(3)4/h9-11,13-19,21-24H,12,20H2,1-8H3/b10-9+,19-11+,21-13+,22-14+,27-17+,28-18+,29-23+,30-24+
Instrument: Xevo G2-S QtOF, Waters (USA) coupled to ACQUITY UPLC, Waters (USA).
Instrument type: LC-ESI-QTOF
Ms type: MS2
Ion mode: POSITIVE
Ionization: ESI
Collision energy: 10 V
Precursor type: [M+H]+
Precursor m/z: 403.3359
m/z	relative intensity
93.07	11
109.101	34
119.086	14
121.102	15
123.117	16
133.101	17
135.116	24
145.1	24
147.117	19
157.102	44
159.117	17
161.132	13
171.117	23
173.132	24
175.149	23
183.117	18
185.132	25
187.148	15
188.155	19
197.133	15
199.147	49
200.151	10
201.163	11
203.179	26
209.132	23
211.149	29
212.153	17
213.163	13
216.187	49
221.131	11
223.148	17
224.154	11
225.163	24
227.178	21
241.195	138
242.198	27
263.18	14
265.195	20
267.211	17
277.194	21
278.2	13
308.249	31
309.254	10
310.265	128
311.269	33
319.241	13
323.274	29
333.257	143
334.261	35
344.849	13
366.831	12
384.841	14
387.305	10
401.213	23
401.254	20
401.286	20
401.32	285
402.327	999
403.23	58
403.331	351
404.232	10
404.334	53
405.258	12
