Mass spectrum: Nostoxanthin; LC-ESI-QTOF; MS2; POSITIVE; ESI; [M+H]+; CE 40 V
Name: Nostoxanthin
Class: Natural products; Carotenoids, Xanthophyll
Formula: C40H56O4
Exact mass: 600.4179
SMILES: CC1=C(C([C@H]([C@@H](C1)O)O)(C)C)/C=C/C(=C/C=C/C(=C/C=C/C=C(/C=C/C=C(/C=C/C2=C(C[C@H]([C@@H](C2(C)C)O)O)C)\C)\C)/C)/C
InChI: InChI=1S/C40H56O4/c1-27(17-13-19-29(3)21-23-33-31(5)25-35(41)37(43)39(33,7)8)15-11-12-16-28(2)18-14-20-30(4)22-24-34-32(6)26-36(42)38(44)40(34,9)10/h11-24,35-38,41-44H,25-26H2,1-10H3/b12-11+,17-13+,18-14+,23-21+,24-22+,27-15+,28-16+,29-19+,30-20+/t35-,36-,37+,38+/m1/s1
Instrument: Xevo G2-S QtOF, Waters (USA) coupled to ACQUITY UPLC, Waters (USA).
Instrument type: LC-ESI-QTOF
Ms type: MS2
Ion mode: POSITIVE
Ionization: ESI
Collision energy: 40 V
Precursor type: [M+H]+
Precursor m/z: 601.4251
m/z	relative intensity
81.07	103
93.071	176
95.086	208
105.07	232
107.086	469
108.09	72
109.102	706
117.07	65
119.086	748
120.091	135
121.102	558
123.081	62
123.117	392
124.119	52
131.086	419
132.089	83
133.102	743
134.106	132
135.081	136
135.118	311
137.096	104
143.086	305
144.092	85
145.102	658
146.105	109
147.117	427
148.121	91
149.097	201
149.133	249
151.112	195
156.093	86
157.102	722
158.107	292
159.117	706
160.12	103
161.097	120
161.133	258
163.111	59
163.148	62
169.101	279
170.109	177
171.117	765
172.123	93
173.094	52
173.133	999
174.137	195
175.111	65
175.148	261
177.127	61
181.101	100
182.107	73
183.117	320
184.123	107
185.133	467
186.135	61
187.112	72
187.149	189
188.152	52
189.128	163
189.165	155
191.143	353
193.103	50
194.109	50
195.116	241
196.124	113
197.132	590
198.14	107
199.148	412
200.152	80
201.164	86
203.143	113
207.117	140
208.123	66
209.133	499
210.138	164
211.148	345
212.154	54
213.164	107
215.145	96
217.159	152
221.132	179
222.138	69
223.149	321
224.155	104
225.164	124
226.168	60
227.143	51
233.136	58
235.149	152
236.154	66
237.163	142
238.168	80
239.179	91
247.148	94
248.156	61
249.163	87
250.169	50
251.178	126
261.164	112
262.169	72
263.178	154
265.195	78
275.181	83
277.194	80
285.184	60
287.203	66
299.201	79
301.216	75
313.215	73
325.215	55
353.248	143
379.263	69
432.302	82
433.307	51
601.429	245
602.425	90
