Mass spectrum: Quercetin 3-O-glucuronide; LC-ESI-ITTOF; MS
Name: Quercetin 3-O-glucuronide
Name: Miquelianin
Class: Natural Product; Flavonoid
Formula: C21H18O13
Exact mass: 478.07474
SMILES: [H]Oc(c([H])4)c(O[H])c([H])c(c([H])4)C(O1)=C(O[C@]([H])(O3)[C@]([H])(O[H])[C@@]([H])(O[H])[C@]([H])(O[H])[C@@]([H])(C(=O)O[H])3)C(=O)c(c(O[H])2)c(c([H])c(O[H])c([H])2)1
InChI: InChI=1S/C21H18O13/c22-7-4-10(25)12-11(5-7)32-17(6-1-2-8(23)9(24)3-6)18(13(12)26)33-21-16(29)14(27)15(28)19(34-21)20(30)31/h1-5,14-16,19,21-25,27-29H,(H,30,31)/t14-,15-,16+,19-,21+/m0/s1
Instrument: LC-ESI-ITTOF, Shimadzu
Instrument type: LC-ESI-ITTOF
Ms type: MS
Ion mode: NEGATIVE
m/z	relative intensity
301.04	47
477.0675	999
478.0713	221
479.0729	51
