Mass spectrum: Lutein; LC-ESI-QTOF; MS2; POSITIVE; ESI; [M+H]+; CE 20 V
Name: Lutein
Class: Natural products; Carotenoids, Xanthophyll
Formula: C40H56O2
Exact mass: 568.4280
SMILES: CC1=C(C(C[C@@H](C1)O)(C)C)/C=C/C(=C/C=C/C(=C/C=C/C=C(\C)/C=C/C=C(\C)/C=C/[C@H]2C(=C[C@@H](CC2(C)C)O)C)/C)/C
InChI: InChI=1S/C40H56O2/c1-29(17-13-19-31(3)21-23-37-33(5)25-35(41)27-39(37,7)8)15-11-12-16-30(2)18-14-20-32(4)22-24-38-34(6)26-36(42)28-40(38,9)10/h11-25,35-37,41-42H,26-28H2,1-10H3/b12-11+,17-13+,18-14+,23-21+,24-22+,29-15+,30-16+,31-19+,32-20+/t35-,36+,37-/m0/s1
Instrument: Xevo G2-S QtOF, Waters (USA) coupled to ACQUITY UPLC, Waters (USA).
Instrument type: LC-ESI-QTOF
Ms type: MS2
Ion mode: POSITIVE
Ionization: ESI
Collision energy: 20 V
Precursor type: [M+H]+
Precursor m/z: 569.4353
m/z	relative intensity
93.07	93
95.085	136
105.069	64
107.086	181
109.101	104
119.086	345
120.091	109
121.102	259
131.085	86
133.101	333
134.109	108
135.116	334
137.098	81
138.104	193
139.11	61
144.094	82
145.101	483
146.105	94
147.117	277
149.096	94
149.131	91
156.092	65
157.101	256
158.107	112
159.116	275
161.133	110
169.102	126
171.117	392
172.124	111
173.132	345
175.148	471
176.152	66
177.127	96
183.117	184
184.125	86
185.132	285
186.138	171
187.148	350
188.153	64
189.126	61
191.144	184
192.15	80
193.155	63
195.117	107
197.132	290
198.138	162
199.147	200
200.154	79
201.127	78
201.163	152
209.133	308
210.137	89
211.148	234
217.158	141
219.175	87
221.131	102
222.14	64
223.148	225
224.154	74
225.164	118
226.953	60
230.931	79
235.147	90
237.162	100
239.179	113
241.193	75
249.165	81
251.181	68
253.194	66
257.188	69
259.205	73
265.194	101
270.196	85
271.206	66
272.214	62
277.194	128
279.207	81
283.205	159
285.224	76
289.195	62
297.224	74
298.228	63
298.915	228
305.226	61
323.236	182
337.252	62
338.26	957
339.265	383
351.266	85
366.904	365
388.848	70
415.299	73
430.321	251
431.326	81
434.891	129
476.365	912
477.368	335
478.37	79
568.344	74
568.368	62
568.427	999
569.254	70
569.315	542
569.369	64
569.43	587
570.307	83
570.328	74
570.435	212
571.236	235
571.387	84
