Mass spectrum: Astaxanthin; LC-ESI-QTOF; MS2; POSITIVE; ESI; [M+Na]+; CE 20 V
Name: Astaxanthin
Class: Natural products; Carotenoids, Xanthophyll
Formula: C40H52O4
Exact mass: 596.3866
SMILES: CC1=C(C(C[C@@H](C1=O)O)(C)C)/C=C/C(=C/C=C/C(=C/C=C/C=C(/C=C/C=C(/C=C/C2=C(C(=O)[C@H](CC2(C)C)O)C)\C)\C)/C)/C
InChI: InChI=1S/C40H52O4/c1-27(17-13-19-29(3)21-23-33-31(5)37(43)35(41)25-39(33,7)8)15-11-12-16-28(2)18-14-20-30(4)22-24-34-32(6)38(44)36(42)26-40(34,9)10/h11-24,35-36,41-42H,25-26H2,1-10H3/b12-11+,17-13+,18-14+,23-21+,24-22+,27-15+,28-16+,29-19+,30-20+/t35-,36-/m0/s1
Instrument: Xevo G2-S QtOF, Waters (USA) coupled to ACQUITY UPLC, Waters (USA).
Instrument type: LC-ESI-QTOF
Ms type: MS2
Ion mode: POSITIVE
Ionization: ESI
Collision energy: 20 V
Precursor type: [M+Na]+
Precursor m/z: 619.3758
m/z	relative intensity
321.182	3
321.684	1
513.297	4
514.3	1
527.312	14
528.315	4
619.097	2
619.221	1
619.255	1
619.293	4
619.377	999
619.446	5
619.493	6
619.568	37
619.696	1
619.769	9
620.303	1
620.379	429
620.448	2
620.496	1
620.572	11
621.382	78
622.384	5
