Mass spectrum: (R)-3-Methylheptyl bromide; GC-FI-TOF; MS; M*+; FI voltage 10 kV
Name: (R)-3-Methylheptyl bromide
Class: Synthetic compounds
Formula: C8H17Br
Exact mass: 130.0514
SMILES: C[C@H](CCCC)CCBr
InChI: InChI=1S/C8H17Br/c1-3-4-5-8(2)6-7-9/h8H,3-7H2,1-2H3/t8-/m1/s1
Instrument: JMS-T100GCV (JEOL, Akishima, Japan) coupled to Agilent 7890A gas chromatography.
Instrument type: GC-FI-TOF
Ms type: MS
Ion mode: POSITIVE
Ionization: FI
Column name: HP-5 19091J-413 USD364547H (Agilent), length 30 m, I.D. 0.32 mm, thickness 0.25  micrometer.
Retention time: 6.95 min
m/z	relative intensity
85.103	93
148.997	451
150.995	471
192.051	999
193.055	98
194.049	989
195.052	94
