Mass spectrum: Arachidonic acid; LC-ESI-QQ; MS2; Negative; [M-H]-
Name: Arachidonic acid
Name: 5Z,8Z,11Z,14Z-Eicosatetraenoic acid
Class: Natural Product; Lipid
Formula: C20H32O2
Exact mass: 304.24023
SMILES: CCCCC/C=C\C/C=C\C/C=C\C/C=C\CCCC(=O)O
InChI: InChI=1S/C20H32O2/c1-2-3-4-5-6-7-8-9-10-11-12-13-14-15-16-17-18-19-20(21)22/h6-7,9-10,12-13,15-16H,2-5,8,11,14,17-19H2,1H3,(H,21,22)/b7-6-,10-9-,13-12-,16-15-
Instrument: TSQ Vantage, Thermo Scientific coupled to Nexera, Shimadzu
Instrument type: LC-ESI-QQ
Ms type: MS2
Ion mode: NEGATIVE
Collision energy: 16 eV
Ionization: ESI
Column name: Inertsil ODS-3, (C18, 2.1mm i.d. x 100mm, 2 microm) with Inertsil ODS-3 (3 mm i.d. x 10 mm, 5 microm)
Retention time: 17.5 min
Precursor m/z: 303.133484
Precursor type: [M-H]-
m/z	relative intensity
205.2	27
259.2	144
302.4	13
303.1	999
