Mass spectrum: DHA; LC-ESI-QQ; MS2; Negative; [M-H]-
Name: Docosahexaenoic acid
Name: Docosahexaenoic acid (22:6(n-3))
Name: 4Z,7Z,10Z,13Z,16Z,19Z-Docosahexaenoic acid
Name: DHA
Class: Natural Product; Lipid
Formula: C22H32O2
Exact mass: 328.24023
SMILES: CC/C=C\C/C=C\C/C=C\C/C=C\C/C=C\C/C=C\CCC(=O)O
InChI: InChI=1S/C22H32O2/c1-2-3-4-5-6-7-8-9-10-11-12-13-14-15-16-17-18-19-20-21-22(23)24/h3-4,6-7,9-10,12-13,15-16,18-19H,2,5,8,11,14,17,20-21H2,1H3,(H,23,24)/b4-3-,7-6-,10-9-,13-12-,16-15-,19-18-
Instrument: TSQ Vantage, Thermo Scientific coupled to Nexera, Shimadzu
Instrument type: LC-ESI-QQ
Ms type: MS2
Ion mode: NEGATIVE
Collision energy: 15 eV
Ionization: ESI
Column name: Inertsil ODS-3, (C18, 2.1mm i.d. x 100mm, 2 microm) with Inertsil ODS-3 (3 mm i.d. x 10 mm, 5 microm)
Retention time: 17.3 min
Precursor m/z: 327.23295
Precursor type: [M-H]-
m/z	relative intensity
59.2	6
93.6	6
95.2	6
107.1	9
117.1	5
121.2	10
133.1	5
135.3	9
137.6	5
177.2	25
189.2	5
191.1	28
229.1	116
229.7	7
249.1	17
283.2	540
309	5
327.1	999
