Mass spectrum: 2,6-Cyclolycopene-1,5-diol; LC-ESI-QTOF; MS2; POSITIVE; ESI; [M+H]+; CE 30 V
Name: 2,6-Cyclolycopene-1,5-diol
Name: 1,2,5,6-Tetrahydro-2,6-cyclo-psi,psi-carotene-1,5-diol
Class: Natural products; Carotenoids, Xanthophyll
Formula: C40H58O2
Exact mass: 570.4437
SMILES: CC(=CCC/C(=C/C=C/C(=C/C=C/C(=C/C=C/C=C(\C)/C=C/C=C(\C)/C=C/C1C(CCC1(C)O)C(C)(C)O)/C)/C)/C)C
InChI: InChI=1S/C40H58O2/c1-31(2)17-13-20-34(5)23-15-25-35(6)24-14-21-32(3)18-11-12-19-33(4)22-16-26-36(7)27-28-38-37(39(8,9)41)29-30-40(38,10)42/h11-12,14-19,21-28,37-38,41-42H,13,20,29-30H2,1-10H3/b12-11+,21-14+,22-16+,25-15+,28-27+,32-18+,33-19+,34-23+,35-24+,36-26+
Instrument: Xevo G2-S QtOF, Waters (USA) coupled to ACQUITY UPLC, Waters (USA).
Instrument type: LC-ESI-QTOF
Ms type: MS2
Ion mode: POSITIVE
Ionization: ESI
Collision energy: 30 V
Precursor type: [M+H]+
Precursor m/z: 571.4510
m/z	relative intensity
67.046	19
69.061	79
79.046	45
81.061	299
82.065	24
83.077	44
85.056	16
91.046	100
92.050	11
93.061	396
94.065	40
95.041	11
95.077	322
96.080	31
97.056	19
97.092	25
99.071	16
105.061	467
106.065	53
107.077	556
108.080	54
109.056	20
109.092	387
110.096	39
111.071	16
111.108	25
113.087	28
117.061	89
118.066	15
119.077	768
120.081	114
121.092	999
122.096	116
123.071	14
123.108	489
124.112	58
125.087	41
127.102	28
128.053	28
129.061	89
130.068	49
131.076	369
132.082	85
133.092	670
134.096	92
135.071	33
135.108	336
136.112	46
137.087	14
137.124	90
138.126	12
139.103	143
140.106	19
141.061	35
142.069	117
143.076	445
144.083	146
145.092	974
146.096	159
147.071	27
147.108	439
148.112	65
149.087	41
149.123	130
150.127	19
151.102	35
151.139	10
153.061	12
153.118	20
154.069	14
155.076	151
156.084	164
157.092	934
158.097	196
159.072	10
159.108	717
160.112	130
161.087	34
161.123	266
162.128	41
163.103	39
163.139	40
164.109	30
165.060	25
165.118	60
166.068	17
167.076	63
167.098	12
168.083	60
169.092	478
170.098	155
171.108	622
172.113	134
173.087	13
173.123	432
174.128	79
175.102	22
175.139	176
176.143	27
177.119	17
177.155	79
178.158	12
179.077	69
180.083	43
181.092	172
182.099	119
183.108	520
184.113	125
185.123	397
186.128	87
187.102	13
187.139	232
188.145	70
189.119	19
189.155	69
190.159	12
191.134	50
191.171	11
192.084	26
192.138	12
193.092	110
193.150	23
194.099	97
195.108	332
196.114	154
197.124	562
198.129	164
199.139	326
200.144	75
201.118	11
201.155	145
202.159	29
203.134	18
203.170	105
204.174	17
205.092	23
205.150	41
206.100	55
207.108	204
208.114	112
209.123	495
210.129	156
211.139	388
212.144	93
213.119	11
213.155	168
214.159	41
215.135	17
215.170	65
216.174	15
217.092	13
217.150	53
217.186	11
218.099	13
218.155	17
219.108	57
219.165	21
220.115	57
221.124	256
222.129	97
222.153	49
223.140	334
224.144	96
225.155	187
226.160	52
227.134	24
227.171	122
228.176	28
229.150	25
229.186	32
231.108	33
231.165	20
232.116	31
233.124	110
234.130	53
235.139	207
236.145	83
237.155	179
238.160	55
239.134	13
239.171	112
240.175	37
241.150	14
241.186	90
242.190	24
243.109	11
243.165	20
243.202	66
244.114	14
244.206	14
245.123	57
245.181	11
246.130	48
247.140	129
248.145	56
249.155	170
250.160	60
251.171	148
252.177	52
253.186	91
254.192	31
255.166	14
255.202	87
256.209	40
257.124	17
257.181	17
257.216	15
258.131	22
259.139	71
259.197	13
260.146	45
261.155	132
262.161	51
263.171	140
264.177	45
265.187	146
266.191	43
267.165	10
267.203	159
268.207	48
269.183	21
269.218	85
270.188	16
270.222	19
271.140	21
271.197	36
272.146	18
272.204	12
273.155	71
274.161	39
275.171	128
276.177	53
277.187	116
278.192	46
279.202	103
280.207	39
281.182	15
281.218	65
282.223	22
283.196	34
284.202	11
285.156	25
285.213	45
286.162	15
286.217	12
287.171	66
288.179	36
289.187	93
290.192	37
291.203	94
292.207	32
293.182	17
293.218	52
294.224	17
295.198	21
295.235	30
297.214	23
299.172	21
300.178	14
301.187	53
302.193	27
303.203	68
304.208	31
305.182	11
305.218	55
306.223	19
307.197	12
307.234	35
308.238	12
309.214	18
309.249	12
311.229	12
313.188	21
314.194	14
315.203	38
316.209	20
317.219	58
318.224	27
319.235	76
320.241	34
321.214	17
321.250	59
322.255	18
323.230	21
325.246	12
327.203	23
328.208	11
329.218	49
330.224	18
331.236	76
332.239	34
333.250	92
334.256	39
335.230	17
335.266	97
336.237	11
336.270	26
337.245	20
341.220	27
342.226	13
343.235	63
344.240	33
345.251	75
346.256	33
347.228	11
347.266	43
348.272	20
349.245	30
351.262	18
355.236	25
356.242	16
357.251	53
358.255	24
359.267	45
360.273	18
361.246	25
361.282	48
362.252	21
362.287	15
363.261	26
366.285	14
367.247	13
369.252	26
370.259	14
371.268	25
372.272	12
373.281	27
375.260	18
377.278	11
381.265	20
383.266	22
384.290	31
385.284	36
386.286	16
387.261	13
387.298	52
388.303	22
389.313	28
391.294	52
392.297	17
397.283	25
398.289	20
399.299	48
400.305	18
401.314	38
402.319	19
409.301	48
410.300	24
411.300	84
412.305	45
413.314	107
414.319	37
415.292	25
416.300	14
417.309	40
418.314	13
419.326	11
423.299	10
425.314	64
426.320	37
427.296	18
427.329	21
428.301	12
429.310	51
430.316	22
431.323	15
443.324	16
451.331	12
453.347	17
459.355	11
460.366	27
461.372	18
464.353	11
465.350	28
466.356	11
469.342	14
471.358	10
477.366	20
478.378	288
479.380	130
480.383	26
483.359	39
484.363	20
491.382	10
493.379	45
494.385	32
495.395	50
496.399	16
501.370	24
502.373	12
511.391	48
512.395	29
513.400	12
533.412	53
534.417	31
535.427	109
536.432	50
537.426	14
551.423	188
552.428	135
553.438	185
554.442	71
555.446	11
569.435	497
570.442	970
571.448	771
572.452	258
573.456	42
