Mass spectrum: Zeaxanthin; LC-ESI-QTOF; MS2; POSITIVE; ESI; [M+H]+; CE 20 V
Name: Zeaxanthin
Class: Natural products; Carotenoids, Xanthophyll
Formula: C40H56O2
Exact mass: 568.4280
SMILES: CC1=C(C(C[C@@H](C1)O)(C)C)/C=C/C(=C/C=C/C(=C/C=C/C=C(/C=C/C=C(/C=C/C2=C(C[C@H](CC2(C)C)O)C)\C)\C)/C)/C
InChI: InChI=1S/C40H56O2/c1-29(17-13-19-31(3)21-23-37-33(5)25-35(41)27-39(37,7)8)15-11-12-16-30(2)18-14-20-32(4)22-24-38-34(6)26-36(42)28-40(38,9)10/h11-24,35-36,41-42H,25-28H2,1-10H3/b12-11+,17-13+,18-14+,23-21+,24-22+,29-15+,30-16+,31-19+,32-20+/t35-,36-/m1/s1
Instrument: Xevo G2-S QtOF, Waters (USA) coupled to ACQUITY UPLC, Waters (USA).
Instrument type: LC-ESI-QTOF
Ms type: MS2
Ion mode: POSITIVE
Ionization: ESI
Collision energy: 20 V
Precursor type: [M+H]+
Precursor m/z: 569.4353
m/z	relative intensity
93.07	59
95.086	63
107.086	112
109.101	106
119.086	235
120.093	97
121.102	136
123.118	62
131.086	60
133.102	244
135.117	299
145.101	309
147.117	116
157.101	148
158.106	68
159.116	178
161.131	83
169.102	84
171.117	136
172.122	80
173.133	180
175.149	452
176.151	93
183.118	131
184.122	63
185.132	138
187.149	194
195.118	80
197.133	141
199.148	88
201.164	151
203.142	56
209.133	181
211.147	131
213.165	84
217.158	121
219.175	77
221.131	58
223.149	132
225.164	81
226.953	110
235.148	67
237.163	95
239.18	108
241.195	67
249.164	67
253.196	73
257.189	91
259.207	64
265.196	135
270.197	62
271.204	78
272.208	73
272.219	51
275.179	62
277.193	59
283.206	116
285.221	62
297.219	51
298.917	192
323.242	52
337.252	65
366.903	276
415.299	65
434.891	152
461.341	65
476.365	999
477.368	478
478.371	82
550.416	55
551.423	59
568.426	597
569.312	167
569.432	444
570.317	76
570.434	90
571.231	89
