Mass spectrum: (R)-(+)-Limonene; APCI-Q; MS; positive; APCI; H+
Name: (R)-(+)-Limonene
Class: Natural products; Monoterpenes
Formula: C10H16
Exact mass: 136.1252
SMILES: CC1=CC[C@@H](CC1)C(=C)C
InChI: InChI=1S/C10H16/c1-8(2)10-6-4-9(3)5-7-10/h4,10H,1,5-7H2,2-3H3/t10-/m0/s1
Instrument: LCMS-2020 (SHIMADZU Corp., Kyoto, Japan)
Instrument type: APCI-Q
Ms type: MS
Ion mode: POSITIVE
m/z	relative intensity
106.95	62
135.06	550
136.85	98
151.02	605
153.1	121
154.1	199
154.93	115
166.99	166
169.07	197
186.08	105
192.99	73
194.06	61
202.09	72
269.13	159
271.12	677
272.06	114
273.09	728
274.12	157
275.04	89
283.24	59
285.11	224
287.12	577
289.16	345
291.16	999
292.2	233
293.12	86
295.14	56
301.14	128
303.1	619
305.08	109
306.12	64
307.13	147
317.08	93
319.11	338
320.19	76
321.1	163
322.29	89
335.17	64
336.14	85
337.16	130
338.12	308
339.22	88
352.3	77
354.24	355
355.29	76
356.18	70
368.06	68
370.24	337
386.2	156
387.26	63
407.41	96
421.32	50
423.34	72
425.55	63
439.16	71
441.33	52
455.37	56
506.33	77
