Mass spectrum: 1-Hexene; CI-Q; MS; POSITIVE; Reactant ion NO+
Name: 1-Hexene
Class: Synthetic compound; alkenes
Formula: C6H12
Exact mass: 84.0939
SMILES: CCCCC=C
InChI: InChI=1S/C6H12/c1-3-5-6-4-2/h3H,1,4-6H2,2H3
Instrument: PTR-QMS 500 (IONICON Analytik GmbH, Innsbruck, Austria)
Instrument type: CI-Q
Ms type: MS
Ion mode: POSITIVE
Ionization: CI
m/z	relative intensity
55	78
69	189
72	116
83	232
86	999
114	683
