Mass spectrum: PGE2-[3,3,4,4-d4]; LC-ESI-QQ; MS2
Name: PGE2-[3,3,4,4-d4]
Name: Prostaglandin E2-[3,3,4,4-d4]
Name: 9-Dehydro-prostaglrandin F2alpha-[3,3,4,4-d4]
Name: 9-Oxo-11alpha,15S-dihydroxy-5Z,13E-prostadienoic acid-[3,3,4,4-d4]
Class: Natural Product; Lipid
Formula: C20H32O5
Exact mass: 352.22497
SMILES: CCCCCC(O)C=CC(C(O)1)C(CC=CCCCC(O)=O)C(=O)C1
InChI: InChI=1S/C20H32O5/c1-2-3-6-9-15(21)12-13-17-16(18(22)14-19(17)23)10-7-4-5-8-11-20(24)25/h4,7,12-13,15-17,19,21,23H,2-3,5-6,8-11,14H2,1H3,(H,24,25)/b7-4-,13-12+/t15-,16+,17+,19+/m0/s1/i5D2,8D2
Instrument: TSQ Vantage, Thermo Scientific coupled to Nexera, Shimadzu
Instrument type: LC-ESI-QQ
Ms type: MS2
Ion mode: NEGATIVE
Collision energy: 20 eV
Ionization: ESI
Column name: Inertsil ODS-3, (C18, 2.1mm i.d. x 100mm, 2 microm) with Inertsil ODS-3 (3 mm i.d. x 10 mm, 5 microm)
Retention time: 3.44 min
Precursor m/z: 355.2428
Precursor type: [M-H]-
m/z	relative intensity
193.5	97
195.2	6
204.2	16
205.4	8
206.4	12
211	28
213.2	7
217.8	15
219	15
221.1	6
225.1	9
230.6	5
237	56
237.6	6
239.2	56
273.5	8
274.3	11
275.2	999
292.9	12
301	11
318.3	8
319.2	530
336.8	120
337.3	289
355	21
355.6	7
