Mass spectrum: Diatoxanthin; LC-ESI-QTOF; MS2; POSITIVE; ESI; [M+H]+; CE 20 V
Name: Diatoxanthin
Name: all-trans-Diatoxanthin
Class: Natural products; Carotenoids, Xanthophyll
Formula: C40H54O2
Exact mass: 566.4124
SMILES: CC1=C(C(C[C@@H](C1)O)(C)C)/C=C/C(=C/C=C/C(=C/C=C/C=C(\C)/C=C/C=C(\C)/C#CC2=C(C[C@H](CC2(C)C)O)C)/C)/C
InChI: InChI=1S/C40H54O2/c1-29(17-13-19-31(3)21-23-37-33(5)25-35(41)27-39(37,7)8)15-11-12-16-30(2)18-14-20-32(4)22-24-38-34(6)26-36(42)28-40(38,9)10/h11-21,23,35-36,41-42H,25-28H2,1-10H3/b12-11+,17-13+,18-14+,23-21+,29-15+,30-16+,31-19+,32-20+/t35-,36-/m1/s1
Instrument: Xevo G2-S QtOF, Waters (USA) coupled to ACQUITY UPLC, Waters (USA).
Instrument type: LC-ESI-QTOF
Ms type: MS2
Ion mode: POSITIVE
Ionization: ESI
Collision energy: 20 V
Precursor type: [M+H]+
Precursor m/z: 567.4197
m/z	relative intensity
105.07	149
107.086	157
109.101	334
119.085	529
121.101	242
123.116	108
131.086	190
133.101	577
134.105	88
135.117	406
143.086	147
145.1	447
147.117	268
157.102	354
159.116	440
161.134	202
169.101	171
170.109	88
171.117	251
173.132	482
175.148	636
176.152	124
183.116	215
185.132	286
187.147	300
189.163	94
191.143	191
195.116	145
196.124	98
197.132	367
199.148	581
201.164	293
205.16	115
207.114	115
209.132	272
210.134	91
211.143	148
211.152	128
213.162	87
217.159	558
218.162	81
219.174	99
221.132	265
223.147	180
225.164	117
233.134	131
235.147	258
237.163	177
239.179	99
241.195	86
247.147	198
248.154	113
249.163	251
251.178	83
257.188	85
259.149	141
259.205	81
261.163	208
263.178	300
265.193	129
267.174	119
267.21	151
269.189	113
273.163	198
275.179	155
277.194	162
281.191	134
283.205	185
285.163	122
285.222	175
287.179	105
289.194	161
291.21	88
295.206	134
299.179	125
301.196	124
303.211	98
307.206	199
315.209	101
316.209	87
319.206	96
321.221	139
329.225	251
330.231	80
331.24	92
334.226	105
339.208	81
341.226	101
345.222	154
347.234	122
360.245	88
361.248	143
413.282	132
441.311	96
459.324	124
533.374	98
550.409	84
551.39	189
566.412	511
567.315	96
567.383	81
567.417	999
568.366	97
568.423	367
569.221	613
569.271	212
569.317	252
569.345	100
569.427	109
570.224	129
570.715	107
