Mass spectrum: Echinenone; LC-ESI-QTOF; MS2; POSITIVE; ESI; [M+H]+; CE 30 V
Name: Echinenone
Class: Natural products; Carotenoids, Xanthophyll
Formula: C40H54O
Exact mass: 550.4175
SMILES: CC1=C(C(CCC1)(C)C)/C=C/C(=C/C=C/C(=C/C=C/C=C(\C)/C=C/C=C(\C)/C=C/C2=C(C(=O)CCC2(C)C)C)/C)/C
InChI: InChI=1S/C40H54O/c1-30(18-13-20-32(3)23-25-36-34(5)22-15-28-39(36,7)8)16-11-12-17-31(2)19-14-21-33(4)24-26-37-35(6)38(41)27-29-40(37,9)10/h11-14,16-21,23-26H,15,22,27-29H2,1-10H3/b12-11+,18-13+,19-14+,25-23+,26-24+,30-16+,31-17+,32-20+,33-21+
Instrument: Xevo G2-S QtOF, Waters (USA) coupled to ACQUITY UPLC, Waters (USA).
Instrument type: LC-ESI-QTOF
Ms type: MS2
Ion mode: POSITIVE
Ionization: ESI
Collision energy: 30 V
Precursor type: [M+H]+
Precursor m/z: 551.4247
m/z	relative intensity
69.069	89
81.07	107
83.086	56
93.07	139
95.086	347
105.07	233
107.085	226
109.101	276
113.096	79
119.085	593
120.091	103
121.065	55
121.101	410
123.117	215
131.085	168
132.091	52
133.065	999
133.101	458
134.068	108
134.106	70
135.117	137
137.096	164
137.132	168
139.111	369
143.086	196
144.092	83
145.101	478
146.105	87
147.081	95
147.117	421
148.121	54
149.132	115
155.086	92
156.093	67
157.101	557
158.107	131
159.117	424
160.12	65
161.096	92
161.132	228
163.111	90
163.148	88
165.128	85
169.101	205
170.107	85
171.117	442
172.122	113
173.096	59
173.132	356
174.137	51
175.113	54
175.148	227
177.164	200
181.101	81
183.117	281
184.122	91
185.132	409
186.137	86
187.112	60
187.147	210
189.128	86
189.164	129
191.143	198
193.102	51
195.117	237
196.123	105
197.132	373
198.137	87
199.112	52
199.148	284
201.127	68
201.163	121
203.143	589
203.178	106
204.146	111
205.158	114
207.116	113
208.123	75
209.132	413
210.137	117
211.147	268
212.154	78
213.128	69
213.162	139
215.143	184
215.178	103
217.159	90
221.131	186
222.138	57
223.147	217
224.151	62
225.163	179
227.144	73
227.179	90
229.158	63
233.133	58
235.148	143
237.163	129
239.179	124
241.195	92
247.147	67
249.163	97
251.179	82
253.196	64
255.21	124
257.189	60
261.163	100
263.178	126
265.195	129
267.211	96
269.189	71
269.225	67
275.178	83
277.194	86
279.21	91
281.19	65
281.225	88
283.204	59
289.195	74
291.211	70
319.242	59
321.256	60
333.257	81
334.263	70
347.274	59
551.425	357
552.427	177
553.458	165
