Mass spectrum: 2-(Perfluorooctyl)ethanol; LC-ESI-ITFT; MS; Negative; CE 10 V
Name: 2-(Perfluorooctyl)ethanol
Class: Non-Natural Product
Formula: C10H5F17O
Exact mass: 464.00689
SMILES: C(CO)C(C(C(C(C(C(C(C(F)(F)F)(F)F)(F)F)(F)F)(F)F)(F)F)(F)F)(F)F
InChI: InChI=1S/C10H5F17O/c11-3(12,1-2-28)4(13,14)5(15,16)6(17,18)7(19,20)8(21,22)9(23,24)10(25,26)27/h28H,1-2H2
Instrument: Dionex U3000 and Exactive Orbitrap (Thermofisher Scientific)
Instrument type: LC-ESI-ITFT
Ms type: MS
Ion mode: NEGATIVE
Collision energy: 10 V
Ionization: ESI
Column name: L-column 2 ODS
m/z	relative intensity
68.99465	89
354.97812	503
382.97292	123
392.97472	999
393.978	80
402.97893	505
412.98081	240
422.98515	86
432.98683	81
442.99114	403
462.99731	60
495.99471	47
506.98658	142
