Mass spectrum: DHA-[21,21,22,22,22-d5]; LC-ESI-QQ; MS2; Negative; [M-H]-
Name: DHA-[21,21,22,22,22-d5]
Name: 4Z,7Z,10Z,13Z,16Z,19Z-docosahexaenoic acid-[21,21,22,22,22-d5]
Class: Natural Product; Lipid
Formula: C22H32O2
Exact mass: 328.24023
SMILES: [2H]C([2H])([2H])C([2H])([2H])/C=C\C/C=C\C/C=C\C/C=C\C/C=C\C/C=C\CCC(=O)O
InChI: InChI=1S/C22H32O2/c1-2-3-4-5-6-7-8-9-10-11-12-13-14-15-16-17-18-19-20-21-22(23)24/h3-4,6-7,9-10,12-13,15-16,18-19H,2,5,8,11,14,17,20-21H2,1H3,(H,23,24)/b4-3-,7-6-,10-9-,13-12-,16-15-,19-18-/i1D3,2D2
Instrument: TSQ Vantage, Thermo Scientific coupled to Nexera, Shimadzu
Instrument type: LC-ESI-QQ
Ms type: MS2
Ion mode: NEGATIVE
Collision energy: 15 eV
Ionization: ESI
Column name: Inertsil ODS-3, (C18, 2.1mm i.d. x 100mm, 2 microm) with Inertsil ODS-3 (3 mm i.d. x 10 mm, 5 microm)
Retention time: 17.2 min
Precursor m/z: 332.2643
Precursor type: [M-H]-
m/z	relative intensity
153.9	9
181.6	5
182.2	10
196.2	16
234.1	74
234.7	10
287.8	136
288.4	515
314.1	5
332.2	999
