Mass spectrum: LTB4; LC-ESI-QQ; MS2; [M-H]-; Negative
Name: LTB4
Name: Leukotriene B4
Name: 5S,12R-dihydroxy-LTB4
Name: 5S,12R-dihydroxy-6Z,8E,10E,14Z-eicosatetraenoic acid
Class: Natural Product; Lipid
Formula: C20H32O4
Exact mass: 336.23006
SMILES: CCCCCC=CCC(O)C=CC=CC=CC(O)CCCC(O)=O
InChI: InChI=1S/C20H32O4/c1-2-3-4-5-6-9-13-18(21)14-10-7-8-11-15-19(22)16-12-17-20(23)24/h6-11,14-15,18-19,21-22H,2-5,12-13,16-17H2,1H3,(H,23,24)/b8-7+,9-6-,14-10+,15-11-/t18-,19-/m1/s1
Instrument: TSQ Vantage, Thermo Scientific coupled to Nexera, Shimadzu
Instrument type: LC-ESI-QQ
Ms type: MS2
Ion mode: NEGATIVE
Collision energy: 18 eV
Ionization: ESI
Column name: Inertsil ODS-3, (C18, 2.1mm i.d. x 100mm, 2 microm) with Inertsil ODS-3 (3 mm i.d. x 10 mm, 5 microm)
Retention time: 8.99 min
Precursor m/z: 335.22278
Precursor type: [M-H]-
m/z	relative intensity
115	11
122.9	32
123.5	19
129	47
129.6	10
133.1	6
135.1	23
142.1	6
150.4	7
151	45
151.5	15
152.8	18
155.3	12
161.1	8
163.1	22
167.8	13
175.1	10
176.8	15
177.4	9
179.2	10
180.8	21
181.4	13
195.1	477
203.3	44
205	17
245	17
255.1	14
256.8	6
273.1	43
273.7	7
299	15
317.2	198
334.1	22
335.1	999
