Mass spectrum: Creatinine; ESI-QTOF; MS2; NEGATIVE; [M-H]-; CID; 40 V
Name: Creatinine
Class: Natural product; Imidazolidinone
Formula: C4H7N3O
Exact mass: 113.05890
SMILES: CN1CC(=O)N=C1N
InChI: InChI=1S/C4H7N3O/c1-7-2-3(8)6-4(7)5/h2H2,1H3,(H2,5,6,8)
Instrument: X500R QTOF (AB Sciex LLC, USA)
Instrument type: ESI-QTOF
Ms type: MS2
Ion mode: NEGATIVE
Collision energy: 40 V
Fragmentation mode: CID
Ionization: ESI
Precursor m/z: 112.05162
Precursor type: [M-H]-
m/z	relative intensity
40.0068	74
41.0147	999
41.9987	93
