Mass spectrum: Zeaxanthin; LC-ESI-QTOF; MS2; POSITIVE; ESI; [M+H]+; CE 30 V
Name: Zeaxanthin
Class: Natural products; Carotenoids, Xanthophyll
Formula: C40H56O2
Exact mass: 568.4280
SMILES: CC1=C(C(C[C@@H](C1)O)(C)C)/C=C/C(=C/C=C/C(=C/C=C/C=C(/C=C/C=C(/C=C/C2=C(C[C@H](CC2(C)C)O)C)\C)\C)/C)/C
InChI: InChI=1S/C40H56O2/c1-29(17-13-19-31(3)21-23-37-33(5)25-35(41)27-39(37,7)8)15-11-12-16-30(2)18-14-20-32(4)22-24-38-34(6)26-36(42)28-40(38,9)10/h11-24,35-36,41-42H,25-28H2,1-10H3/b12-11+,17-13+,18-14+,23-21+,24-22+,29-15+,30-16+,31-19+,32-20+/t35-,36-/m1/s1
Instrument: Xevo G2-S QtOF, Waters (USA) coupled to ACQUITY UPLC, Waters (USA).
Instrument type: LC-ESI-QTOF
Ms type: MS2
Ion mode: POSITIVE
Ionization: ESI
Collision energy: 30 V
Precursor type: [M+H]+
Precursor m/z: 569.4353
m/z	relative intensity
81.07	133
93.07	238
95.086	281
105.07	278
107.086	482
108.091	71
109.101	283
119.086	999
120.092	240
121.101	465
123.117	111
131.086	376
132.092	109
133.102	778
134.107	122
135.08	97
135.117	415
137.097	97
143.086	316
144.092	133
145.102	994
146.107	182
147.117	424
148.122	70
149.096	148
149.133	96
155.086	98
156.093	140
157.101	740
158.108	209
159.117	809
160.122	157
161.097	73
161.132	227
163.112	98
169.102	312
170.108	150
171.117	678
172.123	200
173.133	761
174.137	134
175.148	625
176.152	87
177.127	135
181.101	187
182.108	83
183.117	599
184.123	195
185.133	516
186.139	144
187.148	397
188.153	77
189.127	77
191.143	143
193.101	90
194.109	115
195.117	420
196.124	172
197.132	602
198.138	176
199.148	329
200.153	73
201.128	127
201.164	253
203.143	149
207.117	210
208.124	107
209.133	709
210.138	213
211.148	380
212.153	102
213.164	155
217.159	208
221.132	212
222.139	107
223.148	351
224.154	136
225.163	245
226.17	72
233.133	97
235.148	211
236.153	85
237.164	291
238.169	79
239.18	244
241.196	92
247.148	130
249.164	175
250.17	70
251.179	169
253.194	81
255.175	165
257.19	132
261.164	138
262.17	71
263.179	153
265.195	215
269.19	96
275.179	122
277.195	104
283.206	152
461.341	74
