Mass spectrum: L-gamma-Glutamyl-S-3-(1-hydroxypropyl)-L-cysteinyl-glycine; ESI-QQ; MS2; CE 10 eV; [M+H]+
Name: L-gamma-Glutamyl-S-3-(1-hydroxypropyl)-L-cysteinyl-glycine
Class: Synthetic compound; Peptide
Formula: C13H23N3O7S
Exact mass: 365.1257
SMILES: O=C(N[C@@H](CSCCCO)C(=O)NCC(=O)O)CC[C@H](N)C(=O)O
InChI: InChI=1S/C13H23N3O7S/c14-8(13(22)23)2-3-10(18)16-9(7-24-5-1-4-17)12(21)15-6-11(19)20/h8-9,17H,1-7,14H2,(H,15,21)(H,16,18)(H,19,20)(H,22,23)/t8-,9-/m0/s1
Instrument: Quattro Premier, Micromass (USA) coupled to Alliance HT 2795, Waters (USA).
Instrument type: LC-ESI-QQ
Ms type: MS2
Ion mode: POSITIVE
Ionization: ESI
Collision energy: 10 eV
Column name: C18(ODS), Cosmosil 5C18-AR-II, 4.6 x 150 mm, 4.4 micrometer
Precursor type: [M+H]+
Precursor m/z: 366.1329
m/z	relative intensity
116.1	8
116.7	28
129.7	28
133.6	98
201.7	10
219.9	346
236.9	768
273.0	5
291.0	65
303.0	5
347.8	7
365.9	999
