Mass spectrum: Arachidonic acid-[5,6,8,9,11,12,14,15-d8]; LC-ESI-QQ; MS2; Negative; [M-H]-
Name: Arachidonic acid-[5,6,8,9,11,12,14,15-d8]
Name: AA-[5,6,8,9,11,12,14,15-d8]
Name: 5Z,8Z,11Z,14Z-eicosatetraenoic acid-[5,6,8,9,11,12,14,15-d8]
Class: Natural Product; Lipid
Formula: C20H32O2
Exact mass: 304.24023
SMILES: [2H]/C(=C(\[2H])/C/C(=C(/[2H])\C/C(=C(/[2H])\C/C(=C(/[2H])\CCCC(=O)O)/[2H])/[2H])/[2H])/CCCCC
InChI: InChI=1S/C20H32O2/c1-2-3-4-5-6-7-8-9-10-11-12-13-14-15-16-17-18-19-20(21)22/h6-7,9-10,12-13,15-16H,2-5,8,11,14,17-19H2,1H3,(H,21,22)/b7-6-,10-9-,13-12-,16-15-/i6D,7D,9D,10D,12D,13D,15D,16D
Instrument: TSQ Vantage, Thermo Scientific coupled to Nexera, Shimadzu
Instrument type: LC-ESI-QQ
Ms type: MS2
Ion mode: NEGATIVE
Collision energy: 16 eV
Ionization: ESI
Column name: Inertsil ODS-3, (C18, 2.1mm i.d. x 100mm, 2 microm) with Inertsil ODS-3 (3 mm i.d. x 10 mm, 5 microm)
Retention time: 17.4 min
Precursor m/z: 311.28207
Precursor type: [M-H]-
m/z	relative intensity
212	10
213.4	7
267.1	49
267.7	16
292.2	5
311.2	999
