Mass spectrum: PGE2; LC-ESI-QQ; MS2; Negative; [M-H]-
Name: PGE2
Name: Prostaglandin E2
Name: 9-Dehydro-prostaglrandin F2alpha
Name: 9-Oxo-11alpha,15S-dihydroxy-5Z,13E-prostadienoic acid
Class: Natural Product; Lipid
Formula: C20H32O5
Exact mass: 352.22497
SMILES: CCCCCC(O)C=CC(C(O)1)C(CC=CCCCC(O)=O)C(=O)C1
InChI: InChI=1S/C20H32O5/c1-2-3-6-9-15(21)12-13-17-16(18(22)14-19(17)23)10-7-4-5-8-11-20(24)25/h4,7,12-13,15-17,19,21,23H,2-3,5-6,8-11,14H2,1H3,(H,24,25)/b7-4-,13-12+/t15-,16+,17+,19+/m0/s1
Instrument: TSQ Vantage, Thermo Scientific coupled to Nexera, Shimadzu
Instrument type: LC-ESI-QQ
Ms type: MS2
Ion mode: NEGATIVE
Collision energy: 20 eV
Ionization: ESI
Column name: Inertsil ODS-3, (C18, 2.1mm i.d. x 100mm, 2 microm) with Inertsil ODS-3 (3 mm i.d. x 10 mm, 5 microm)
Retention time: 3.4 min
Precursor m/z: 351.2177
Precursor type: [M-H]-
m/z	relative intensity
67.6	7
109.1	11
113.1	13
135.2	7
163.3	14
171.1	8
172.7	8
174.7	50
175.4	11
185.3	9
186.8	5
188.9	206
189.5	63
190.9	7
203.1	9
204.2	8
206.3	14
207.1	13
209	6
217	32
220.9	5
229.1	7
231	8
233	38
233.5	7
235.1	53
242.7	5
270.5	27
271.1	999
297.2	10
314.3	9
315.2	274
333.1	342
351.2	13
