Mass spectrum: alpha-Echinenone; LC-ESI-QTOF; MS2; POSITIVE; ESI; [M+H]+; CE 30 V
Name: alpha-Echinenone
Name: Phoenicopterone
Name: alpha-Carotene-4-one
Name: LMPR01070081
Class: Natural products; Carotenoids, Xanthophyll
Formula: C40H54O
Exact mass: 550.4175
SMILES: CC1=CCCC([C@H]1/C=C/C(=C/C=C/C(=C/C=C/C=C(\C)/C=C/C=C(\C)/C=C/C2=C(C(=O)CCC2(C)C)C)/C)/C)(C)C
InChI: InChI=1S/C40H54O/c1-30(18-13-20-32(3)23-25-36-34(5)22-15-28-39(36,7)8)16-11-12-17-31(2)19-14-21-33(4)24-26-37-35(6)38(41)27-29-40(37,9)10/h11-14,16-26,36H,15,27-29H2,1-10H3/b12-11+,18-13+,19-14+,25-23+,26-24+,30-16+,31-17+,32-20+,33-21+/t36-/m0/s1
Instrument: Xevo G2-S QtOF, Waters (USA) coupled to ACQUITY UPLC, Waters (USA).
Instrument type: LC-ESI-QTOF
Ms type: MS2
Ion mode: POSITIVE
Ionization: ESI
Collision energy: 30 V
Precursor type: [M+H]+
Precursor m/z: 551.4247
m/z	relative intensity
81.074	59
93.076	60
95.090	76
105.076	107
107.091	74
119.090	214
121.107	91
123.122	155
131.090	73
133.070	242
133.106	172
139.117	65
143.091	132
145.106	242
146.111	65
147.122	138
156.099	51
157.107	199
158.112	71
159.122	125
169.106	94
171.121	136
173.138	62
183.121	134
185.137	130
195.123	79
197.137	120
198.143	65
199.154	67
203.148	257
207.123	73
209.137	85
211.153	91
215.147	76
221.136	65
223.154	70
235.150	55
335.241	56
402.295	62
427.302	63
458.353	218
459.356	87
549.410	58
549.485	98
550.418	999
550.487	75
551.422	661
552.429	207
553.433	87
