Mass spectrum: LXA4; LC-ESI-QQ; MS2; [M-H]-; Negative
Name: Lipoxin A4
Name: LXA4
Name: 5S,6R,15S-trihydroxy-7E,9E,11Z,13E-eicosatetraenoic acid
Name: (5S,6R,7E,9E,11Z,13E,15S)-5,6,15-Trihydroxy-7,9,11,13-icosatetraenoic acid
Class: Natural Product; Lipid
Formula: C20H32O5
Exact mass: 352.22498
SMILES: CCCCC[C@@H](/C=C/C=C\C=C\C=C\[C@H]([C@H](CCCC(=O)O)O)O)O
InChI: InChI=1S/C20H32O5/c1-2-3-8-12-17(21)13-9-6-4-5-7-10-14-18(22)19(23)15-11-16-20(24)25/h4-7,9-10,13-14,17-19,21-23H,2-3,8,11-12,15-16H2,1H3,(H,24,25)/b6-4-,7-5+,13-9+,14-10+/t17-,18+,19-/m0/s1
Instrument: TSQ Vantage, Thermo Scientific coupled to Nexera, Shimadzu
Instrument type: LC-ESI-QQ
Ms type: MS2
Ion mode: NEGATIVE
Collision energy: 17 eV
Ionization: ESI
Column name: Inertsil ODS-3, (C18, 2.1mm i.d. x 100mm, 2 microm) with Inertsil ODS-3 (3 mm i.d. x 10 mm, 5 microm)
Retention time: 4.0 min
Precursor m/z: 351.21770
Precursor type: [M-H]-
m/z	relative intensity
58.7	7
83.6	13
97.1	6
99.2	31
106.5	7
113.2	32
114.9	499
115.5	235
117.0	16
133.1	12
135.1	155
139.0	28
142.8	22
143.6	31
144.6	20
145.6	8
149.1	11
160.8	6
162.8	8
165.0	40
169.1	19
173.0	6
175.2	19
179.2	6
189.2	102
191.1	10
193.1	30
199.0	11
201.0	7
205.0	6
206.8	28
214.9	14
215.6	11
216.9	355
217.5	149
219.0	52
233.0	20
233.5	20
235.1	659
251.1	35
252.9	6
253.3	7
271.0	70
271.6	40
289.2	121
307.0	68
307.5	19
315.1	37
315.6	9
333.2	90
350.0	11
351.2	999
