Mass spectrum: MaR1; LC-ESI-QQ; MS2; [M-H]-; Negative
Name: MaR1
Name: Maresin 1
Name: 7R,14S-dihydroxy-4Z,8E,12Z,16Z,19Z-docosahexaenoic acid
Name: 7R,14S-dihydroxy DHA
Class: Natural Product; Lipid
Formula: C22H32O4
Exact mass: 360.23006
SMILES: CCC=CCC=CCC(C=CC=CC=CC(CC=CCCC(=O)O)O)O
InChI: InChI=1S/C22H32O4/c1-2-3-4-5-6-10-15-20(23)16-11-7-8-12-17-21(24)18-13-9-14-19-22(25)26/h3-4,6-13,16-17,20-21,23-24H,2,5,14-15,18-19H2,1H3,(H,25,26)/b4-3-,8-7+,10-6-,13-9-,16-11-,17-12+/t20-,21-/m0/s1
Instrument: TSQ Vantage, Thermo Scientific coupled to Nexera, Shimadzu
Instrument type: LC-ESI-QQ
Ms type: MS2
Ion mode: NEGATIVE
Collision energy: 19 eV
Ionization: ESI
Column name: Inertsil ODS-3, (C18, 2.1mm i.d. x 100mm, 2 microm) with Inertsil ODS-3 (3 mm i.d. x 10 mm, 5 microm)
Retention time: 8.80 min
Precursor m/z: 359.22278
Precursor type: [M-H]-
m/z	relative intensity
43.0	13
57.0	12
57.8	10
59.1	36
59.8	10
68.8	15
69.6	7
71.0	7
81.0	25
81.7	12
83.1	21
92.9	43
93.5	18
94.9	29
95.6	21
97.1	11
104.9	7
106.8	13
107.8	38
109.1	114
109.7	20
111.0	38
111.7	7
113.0	195
113.6	36
118.6	8
121.0	50
122.9	223
123.5	93
131.3	6
133.0	17
133.8	13
134.8	52
135.5	46
137.0	140
137.6	27
138.7	21
140.9	45
147.0	38
148.9	78
149.6	15
151.1	55
151.6	16
154.8	14
156.9	20
159.1	59
160.2	22
161.0	65
161.7	28
163.0	35
165.7	9
166.8	12
171.2	6
172.9	27
173.8	26
175.3	8
177.1	444
178.9	71
179.6	11
180.6	17
183.0	32
183.7	9
185.3	12
187.1	30
188.9	14
193.3	6
199.0	20
201.0	100
202.0	46
202.6	14
205.0	43
206.2	52
207.1	76
215.0	15
217.4	41
221.0	67
221.8	8
224.7	7
228.1	155
232.0	159
232.5	19
241.1	13
243.0	108
243.5	28
246.1	406
249.1	9
250.0	402
250.6	74
261.1	18
268.9	23
269.5	10
271.4	11
278.9	57
279.6	10
287.1	15
297.1	219
315.1	8
323.2	21
341.1	50
359.1	999
