Mass spectrum: Azulene; APCI-Q; MS; Positive; DART
Name: Azulene
Name: Cyclopentacycloheptene
Class: Natural products; Monoterpenes
Formula: C10H8
Exact mass: 128.0626
SMILES: C1=CC=C2C=CC=C2C=C1
InChI: InChI=1S/C10H8/c1-2-5-9-7-4-8-10(9)6-3-1/h1-8H
Instrument: LCMS-2020 (SHIMADZU Corp., Kyoto, Japan) coupled to Vapur Interface (AMR. Inc., Tokyo, Japan).
Instrument type: APCI-Q
Ms type: MS
Ion mode: POSITIVE
Ionization: APCI
m/z	relative intensity
129.02	999
130.08	79
144.98	98
376.3	57
