Mass spectrum: Cyclohexane; CI-Q; MS; Positive; Reactant ion NO+
Name: Cyclohexane
Class: Synthetic compound; alkanes
Formula: C6H12
Exact mass: 84.0939
SMILES: C1CCCCC1
InChI: InChI=1S/C6H12/c1-2-4-6-5-3-1/h1-6H2
Instrument: PTR-QMS 500 (IONICON Analytik GmbH, Innsbruck, Austria)
Instrument type: CI-Q
Ms type: MS
Ion mode: POSITIVE
Ionization: CI
m/z	relative intensity
83	999
114	55
