Mass spectrum: (R)-3-methylheptyl bromide; GC-EI-TOF; MS; positive; EI; M+*.
Name: (R)-3-methylheptyl bromide
Class: Synthetic compound
Formula: C8H17Br
Exact mass: 192.0514
SMILES: CCCC[C@@H](C)CCBr
InChI: InChI=1S/C8H17Br/c1-3-4-5-8(2)6-7-9/h8H,3-7H2,1-2H3/t8-/m1/s1
Instrument: JMS-T100GCV (JEOL, Akishima, Japan) coupled to Agilent 7890A gas chromatography.
Instrument type: GC-EI-TOF
Ms type: MS
Ion mode: POSITIVE
Ionization: EI
Column name: HP-5 19091J-413 USD364547H (Agilent), length 30 m, I.D. 0.32 mm, thickness 0.25 micrometer.
Retention time: 6.92 min
m/z	relative intensity
26.017	27
27.024	488
28.007	12
28.032	111
29.040	543
30.043	12
31.990	5
38.017	9
39.024	343
40.032	52
41.040	818
41.093	8
42.047	118
43.055	999
43.109	9
44.059	32
50.017	9
51.024	26
52.032	13
53.040	106
54.047	35
55.055	718
55.116	7
56.063	186
57.071	301
58.074	13
65.040	13
67.056	33
68.063	8
69.071	123
70.079	139
71.086	96
72.090	5
77.040	7
79.056	7
81.071	5
83.087	29
84.094	34
85.102	592
86.105	37
92.935	21
94.933	21
97.102	10
106.950	37
108.948	36
112.125	9
113.133	6
134.981	14
136.979	14
148.997	76
150.995	73
164.020	10
165.011	5
166.018	10
