Mass spectrum: Acetyl-Gln-Leu-amide; LC-ESI-ITTOF; MS; Positive
Name: Acetyl-Gln-Leu-amide
Class: Non-Natural Product; Amide of dipeptides
Formula: C13H24N4O4
Exact mass: 300.17976
SMILES: CC(C)CC(NC(=O)C(NC(C)=O)CCC(N)=O)C(N)=O
InChI: InChI=1S/C13H24N4O4/c1-7(2)6-10(12(15)20)17-13(21)9(16-8(3)18)4-5-11(14)19/h7,9-10H,4-6H2,1-3H3,(H2,14,19)(H2,15,20)(H,16,18)(H,17,21)
Instrument: LCMS-ITTOF, Shimadzu
Instrument type: LC-ESI-ITTOF
Ms type: MS
Ion mode: POSITIVE
Collision energy: 120 %
Ionization: ESI
Column name: Agilent Poroshell 120 EC-C18 (2.1 x 75 mm)
m/z	relative intensity
301.1843	999
302.1872	165
323.1669	763
324.17	131
339.1369	71
