Mass spectrum: (S)-4-methyloctadecanal; GC-FI-TOF; MS; M*+; [M+H]+; FI voltage 10 kV
Name: (S)-4-methyloctadecanal
Class: Synthetic compounds
Formula: C19H38O
Exact mass: 282.2923
SMILES: C[C@@H](CCCCCCCCCCCCCC)CCC=O
InChI: InChI=1S/C19H38O/c1-3-4-5-6-7-8-9-10-11-12-13-14-16-19(2)17-15-18-20/h18-19H,3-17H2,1-2H3/t19-/m0/s1
Instrument: JMS-T100GCV (JEOL, Akishima, Japan) coupled to Agilent 7890A gas chromatography.
Instrument type: GC-FI-TOF
Ms type: MS
Ion mode: POSITIVE
Ionization: FI
Column name: HP-5 19091J-413 USD364547H (Agilent), 30 m, I.D. 0.32 mm, thickness 0.25  micrometer.
Retention time: 11.13 min
m/z	relative intensity
29.039	81
44.026	62
85.065	76
222.236	64
223.243	141
236.251	81
238.266	352
239.270	109
254.262	68
264.282	819
265.284	179
267.269	111
281.286	163
282.292	999
283.299	465
284.302	83
