Mass spectrum: Astaxanthin; LC-ESI-QTOF; MS2; POSITIVE; ESI; [M+Na]+; CE 30 V
Name: Astaxanthin
Name: E-astaxanthin
Class: Natural products; Carotenoids, Xanthophyll
Formula: C40H52O4
Exact mass: 596.3866
SMILES: CC1=C(C(C[C@@H](C1=O)O)(C)C)/C=C/C(=C/C=C/C(=C/C=C/C=C(/C=C/C=C(/C=C/C2=C(C(=O)[C@H](CC2(C)C)O)C)\C)\C)/C)/C
InChI: InChI=1S/C40H52O4/c1-27(17-13-19-29(3)21-23-33-31(5)37(43)35(41)25-39(33,7)8)15-11-12-16-28(2)18-14-20-30(4)22-24-34-32(6)38(44)36(42)26-40(34,9)10/h11-24,35-36,41-42H,25-26H2,1-10H3/b12-11+,17-13+,18-14+,23-21+,24-22+,27-15+,28-16+,29-19+,30-20+/t35-,36-/m0/s1
Instrument: Xevo G2-S QtOF, Waters (USA) coupled to ACQUITY UPLC, Waters (USA).
Instrument type: LC-ESI-QTOF
Ms type: MS2
Ion mode: POSITIVE
Ionization: ESI
Collision energy: 30 V
Precursor type: [M+Na]+
Precursor m/z: 619.3758
m/z	relative intensity
177.089	7
190.096	4
201.088	3
203.104	1
210.101	1
213.089	3
215.104	2
225.088	6
226.095	2
227.105	35
228.111	17
229.117	3
230.127	2
241.12	3
242.126	1
243.135	3
254.127	2
255.135	2
256.143	2
279.135	1
293.151	5
294.158	2
307.166	2
308.174	3
309.181	2
319.166	1
320.174	1
321.182	2
322.189	2
323.196	1
333.182	2
334.189	2
335.197	2
375.229	1
385.213	3
386.219	1
387.228	1
399.229	11
400.235	5
401.243	5
402.249	2
413.244	1
414.251	1
415.26	8
416.264	2
461.266	2
465.276	2
483.323	2
509.303	2
513.298	22
514.301	7
515.304	1
525.297	1
527.314	91
528.317	29
529.319	4
540.32	1
557.375	3
558.379	1
573.371	4
574.373	2
575.386	19
576.39	7
577.393	1
589.329	6
590.333	2
601.366	16
602.369	6
603.346	2
603.373	1
604.349	2
619.098	5
619.244	1
619.302	3
619.377	999
619.447	7
619.492	4
619.569	27
620.099	2
620.316	1
620.38	413
620.448	3
620.498	1
620.573	3
621.097	2
621.383	77
622.386	5
