Mass spectrum: Alloxanthin; LC-ESI-QTOF; MS2; POSITIVE; ESI; [M+H]+; CE 30 V
Name: Alloxanthin
Class: Natural products; Carotenoids, Xanthophyll
Formula: C40H52O2
Exact mass: 564.3967
SMILES: CC1=C(C(C[C@@H](C1)O)(C)C)C#C/C(=C/C=C/C(=C/C=C/C=C(/C=C/C=C(/C#CC2=C(C[C@H](CC2(C)C)O)C)\C)\C)/C)/C
InChI: InChI=1S/C40H52O2/c1-29(17-13-19-31(3)21-23-37-33(5)25-35(41)27-39(37,7)8)15-11-12-16-30(2)18-14-20-32(4)22-24-38-34(6)26-36(42)28-40(38,9)10/h11-20,35-36,41-42H,25-28H2,1-10H3/b12-11+,17-13+,18-14+,29-15+,30-16+,31-19+,32-20+/t35-,36-/m1/s1
Instrument: Xevo G2-S QtOF, Waters (USA) coupled to ACQUITY UPLC, Waters (USA).
Instrument type: LC-ESI-QTOF
Ms type: MS2
Ion mode: POSITIVE
Ionization: ESI
Collision energy: 30 V
Precursor type: [M+H]+
Precursor m/z: 565.4040
m/z	relative intensity
81.069	99
93.07	143
95.086	126
105.069	218
107.085	233
109.101	190
119.086	532
121.101	341
131.086	271
133.101	312
135.117	147
142.077	74
143.086	390
144.091	84
145.101	422
147.117	260
155.085	106
156.092	86
157.101	799
158.106	146
158.964	167
159.116	300
161.132	76
167.086	76
169.101	285
170.107	108
171.116	373
172.121	117
173.132	550
174.136	101
175.148	119
181.101	162
182.107	88
183.116	326
184.123	144
185.132	209
187.148	175
191.143	191
193.103	108
194.107	110
195.116	306
196.123	119
197.132	359
198.136	71
199.147	654
200.151	78
207.117	254
208.121	84
209.132	481
210.137	141
211.148	220
217.158	400
219.116	91
220.124	73
221.131	324
222.138	136
223.149	289
224.153	110
225.163	132
226.951	120
231.118	71
233.132	163
234.138	122
235.146	253
236.151	86
237.163	189
239.179	91
245.132	153
246.139	126
247.147	246
248.154	195
249.162	391
250.167	142
251.179	102
257.133	71
257.188	73
259.147	144
260.154	110
261.162	275
262.168	93
263.179	178
265.195	184
267.174	140
269.188	122
271.146	92
272.154	99
273.162	232
274.169	107
275.178	166
277.194	150
281.188	72
283.203	198
285.162	128
286.169	101
287.178	151
289.192	132
295.204	111
297.164	70
298.169	72
299.179	137
300.182	77
301.194	124
307.202	78
311.178	77
312.186	92
313.193	147
315.208	95
319.205	88
323.178	88
325.193	121
327.209	131
330.926	78
335.236	96
341.228	72
345.221	81
351.208	99
359.235	111
361.252	76
373.249	95
392.961	108
401.281	93
411.267	78
465.313	78
491.328	78
547.393	274
548.396	118
549.371	177
550.376	82
564.394	212
565.403	999
566.407	453
567.406	71
