Mass spectrum: PGF2alpha; LC-ESI-QQ; MS2; [M-H]-; Negative
Name: PGF2alpha
Name: Prostaglandin F2alpha
Name: 9alpha,11alpha,15S-trihydroxy-prostaglandin F2alpha
Name: 9alpha,11alpha,15S-trihydroxy-5Z,13E-prostadienoic acid
Class: Natural Product; Lipid
Formula: C20H34O5
Exact mass: 354.24062
SMILES: CCCCCC(C=CC1C(CC(C1CC=CCCCC(=O)O)O)O)O
InChI: InChI=1S/C20H34O5/c1-2-3-6-9-15(21)12-13-17-16(18(22)14-19(17)23)10-7-4-5-8-11-20(24)25/h4,7,12-13,15-19,21-23H,2-3,5-6,8-11,14H2,1H3,(H,24,25)/b7-4-,13-12+/t15-,16+,17+,18-,19+/m0/s1
Instrument: TSQ Vantage, Thermo Scientific coupled to Nexera, Shimadzu
Instrument type: LC-ESI-QQ
Ms type: MS2
Ion mode: NEGATIVE
Collision energy: 27 eV
Ionization: ESI
Column name: Inertsil ODS-3, (C18, 2.1mm i.d. x 100mm, 2 microm) with Inertsil ODS-3 (3 mm i.d. x 10 mm, 5 microm)
Retention time: 3.09 min
Precursor m/z: 353.23335
Precursor type: [M-H]-
m/z	relative intensity
43.1	14
43.9	10
59.3	13
69.4	9
71.1	13
83.2	27
84.9	9
95.4	10
96.9	17
97.6	8
99.1	22
109.1	18
111.2	81
113.3	50
119.0	16
121.0	7
123.3	21
124.9	23
127.0	8
129.1	13
135.0	14
137.2	26
139.0	14
147.1	28
147.7	8
149.5	16
150.3	7
153.1	8
155.4	7
161.0	7
162.7	9
163.4	13
165.1	206
167.1	13
170.7	62
171.2	149
173.1	80
175.2	17
176.9	8
179.1	11
180.0	12
181.2	97
183.1	15
184.8	10
189.4	6
191.1	110
192.2	6
193.1	999
197.1	7
198.8	10
201.2	27
203.3	7
204.7	9
207.2	10
209.2	159
211.2	73
217.0	76
217.6	10
219.0	56
219.5	35
221.0	51
226.9	12
229.2	78
232.6	6
235.0	65
237.0	16
245.2	28
246.5	8
247.1	393
253.0	7
255.2	106
261.3	9
263.2	115
265.0	12
273.0	114
273.5	37
281.1	59
289.1	10
291.1	350
299.2	73
307.7	11
309.1	934
310.0	7
317.1	39
317.6	13
335.2	28
352.1	29
353.1	782
354.0	6
