Mass spectrum: Methyl-cyclohexane; CI-Q; MS; POSITIVE; Reactant ion NO+
Name: Methyl-cyclohexane
Class: Synthetic compound; alkanes
Formula: C7H14
Exact mass: 98.1096
SMILES: CC1CCCCC1
InChI: InChI=1S/C7H14/c1-7-5-3-2-4-6-7/h7H,2-6H2,1H3
Instrument: PTR-QMS 500 (IONICON Analytik GmbH, Innsbruck, Austria)
Instrument type: CI-Q
Ms type: MS
Ion mode: POSITIVE
Ionization: CI
m/z	relative intensity
97	999
