Mass spectrum: Ofloxacin; LC-ESI-ITFT; MS; Positive; CE 40 V
Name: Ofloxacin
Class: Non-Natural Product
Formula: C18H20FN3O4
Exact mass: 361.14378
SMILES: CC1COC2=C3N1C=C(C(=O)C3=CC(=C2N4CCN(CC4)C)F)C(=O)O
InChI: InChI=1S/C18H20FN3O4/c1-10-9-26-17-14-11(16(23)12(18(24)25)8-22(10)14)7-13(19)15(17)21-5-3-20(2)4-6-21/h7-8,10H,3-6,9H2,1-2H3,(H,24,25)
Instrument: Dionex U3000 and Exactive Orbitrap (Thermofisher Scientific)
Instrument type: LC-ESI-ITFT
Ms type: MS
Ion mode: POSITIVE
Collision energy: 40 V
Ionization: ESI
Column name: L-column 2 ODS
m/z	relative intensity
58.06577	118
70.06578	80
82.0658	7
84.08145	13
122.04078	11
169.03549	14
178.03072	13
179.03857	14
193.04172	26
194.02574	32
199.05114	19
205.04175	115
219.05744	136
221.07309	217
227.02321	144
233.07312	33
245.07316	19
247.08881	47
255.10134	9
261.10451	999
262.10788	133
267.00025	57
268.97954	15
270.12484	12
273.10457	18
283.03165	31
301.12336	23
318.1626	54
362.1526	110
363.15598	20
