Mass spectrum: Fucoxanthin; LC-ESI-QTOF; MS2; POSITIVE; ESI; [M+H]+; CE 20 V
Name: Fucoxanthin
Class: Natural products; Carotenoids, Xanthophyll
Formula: C42H58O6
Exact mass: 658.4233
SMILES: C/C(=C\C=C\C=C(/C)\C=C\C=C(/C)\C(=O)C[C@]12[C@](O1)(C[C@H](CC2(C)C)O)C)/C=C/C=C(\C)/C=C=C3[C@](C[C@H](CC3(C)C)OC(=O)C)(C)O
InChI: InChI=1S/C42H58O6/c1-29(18-14-19-31(3)22-23-37-38(6,7)26-35(47-33(5)43)27-40(37,10)46)16-12-13-17-30(2)20-15-21-32(4)36(45)28-42-39(8,9)24-34(44)25-41(42,11)48-42/h12-22,34-35,44,46H,24-28H2,1-11H3/b13-12+,18-14+,20-15+,29-16+,30-17+,31-19+,32-21+/t23?,34-,35-,40+,41+,42-/m0/s1
Instrument: Xevo G2-S QtOF, Waters (USA) coupled to ACQUITY UPLC, Waters (USA).
Instrument type: LC-ESI-QTOF
Ms type: MS2
Ion mode: POSITIVE
Ionization: ESI
Collision energy: 20 V
Precursor type: [M+H]+
Precursor m/z: 659.4306
m/z	relative intensity
107.086	60
109.102	999
110.105	80
119.086	95
121.101	74
125.096	121
127.112	47
133.102	93
135.081	47
135.117	45
137.098	95
143.085	44
145.101	88
149.096	348
151.111	52
155.107	115
157.101	119
159.081	59
159.116	88
161.096	59
163.111	61
169.101	57
171.116	93
173.095	40
173.133	78
179.107	148
183.116	91
185.132	74
197.115	62
197.131	95
199.147	136
203.144	46
207.116	47
209.132	91
211.148	78
213.124	46
215.143	94
217.159	48
221.133	55
221.153	95
223.148	78
225.128	93
225.165	44
235.148	70
237.162	61
239.165	192
249.165	45
261.164	46
263.179	150
264.185	43
265.193	64
275.166	94
277.194	65
281.19	84
283.204	45
303.197	62
305.21	48
315.211	43
319.204	53
323.198	48
329.209	41
329.225	55
347.235	45
355.241	166
373.252	53
377.248	53
383.273	73
393.254	43
395.258	87
401.285	53
411.268	124
415.263	42
427.3	55
429.28	41
433.273	112
489.302	42
489.335	86
549.358	94
563.389	128
567.368	254
568.372	122
581.398	331
582.404	156
599.41	81
623.41	125
624.411	75
641.421	476
642.425	261
643.427	69
658.433	108
658.454	41
659.431	806
660.435	362
661.437	108
