Mass spectrum: (R)-(+)-Limonene; APCI-Q; MS; positive; APCI; H+
Name: (R)-(+)-Limonene
Class: Natural products; Monoterpenes
Formula: C10H16
Exact mass: 136.1252
SMILES: CC1=CC[C@@H](CC1)C(=C)C
InChI: InChI=1S/C10H16/c1-8(2)10-6-4-9(3)5-7-10/h4,10H,1,5-7H2,2-3H3/t10-/m0/s1
Instrument: LCMS-2020 (SHIMADZU Corp., Kyoto, Japan)
Instrument type: APCI-Q
Ms type: MS
Ion mode: POSITIVE
m/z	relative intensity
81.08	82
135.05	455
136.99	337
150.97	213
153.08	174
154.07	239
155.08	80
166.08	209
166.98	54
168.94	52
177.02	860
178.06	55
180.17	55
186.02	234
188.06	80
194.07	999
234.8	59
271.13	429
272.21	86
273.15	397
274.13	105
536.19	107
537.27	90
