Mass spectrum: 4,4'-Diaponeurosporene; LC-ESI-QTOF; MS2; POSITIVE; ESI; [M+H]+; COLLISION_ENERGY 20 eV.
Name: 4,4'-Diaponeurosporene
Name: All-trans-4,4'-diaponeurosporene
Class: Natural product; carotenoids, carotene
Formula: C30H42
Exact mass: 402.3287
SMILES: CC(=CCC/C(=C/C=C/C(=C/C=C/C=C(\C)/C=C/C=C(\C)/C=C/C=C(C)C)/C)/C)C
InChI: InChI=1S/C30H42/c1-25(2)15-11-19-29(7)23-13-21-27(5)17-9-10-18-28(6)22-14-24-30(8)20-12-16-26(3)4/h9-11,13-19,21-24H,12,20H2,1-8H3/b10-9+,19-11+,21-13+,22-14+,27-17+,28-18+,29-23+,30-24+
Instrument: Xevo G2-S QtOF, Waters (USA) coupled to ACQUITY UPLC, Waters (USA).
Instrument type: LC-ESI-QTOF
Ms type: MS2
Ion mode: POSITIVE
Ionization: ESI
Collision energy: 20 V
Precursor type: [M+H]+
Precursor m/z: 403.3359
m/z	relative intensity
69.07	124
81.07	129
83.085	59
91.055	47
93.07	442
94.074	48
95.086	219
105.07	317
107.086	394
108.09	48
109.102	574
110.104	59
119.086	592
120.09	77
121.102	284
123.117	82
131.086	182
132.092	44
133.102	612
134.107	102
135.117	322
143.086	296
144.091	66
145.102	827
146.106	114
147.117	322
149.132	49
155.086	84
156.094	73
157.102	999
158.107	206
159.117	445
160.122	72
161.132	112
169.102	273
170.108	99
171.118	471
172.123	148
173.133	320
174.138	51
175.149	202
181.101	71
183.118	272
184.123	86
185.133	350
186.139	83
187.149	224
188.154	47
193.102	59
195.116	147
196.124	78
197.133	247
198.138	79
199.149	546
200.152	104
201.165	89
207.118	88
208.125	50
209.133	280
210.138	82
211.149	250
212.154	73
213.163	85
221.133	176
222.137	61
223.149	173
224.154	53
225.164	136
227.18	77
235.149	121
236.154	55
237.165	100
239.18	58
241.196	173
242.2	49
247.147	42
249.164	162
250.171	49
251.181	68
253.196	55
263.179	95
264.186	102
265.194	103
269	41
277.196	115
291.211	49
319.24	42
332.25	43
333.258	125
334.262	45
345.258	40
366.832	53
401.214	45
401.321	306
402.326	213
403.23	141
