Mass spectrum: Lutein; LC-ESI-QTOF; MS2; POSITIVE; ESI; [M+H]+; CE 20 V
Name: Lutein
Class: Natural products; Carotenoids, Xanthophyll
Formula: C40H56O2
Exact mass: 568.4280
SMILES: CC1=C(C(C[C@@H](C1)O)(C)C)/C=C/C(=C/C=C/C(=C/C=C/C=C(\C)/C=C/C=C(\C)/C=C/[C@H]2C(=C[C@@H](CC2(C)C)O)C)/C)/C
InChI: InChI=1S/C40H56O2/c1-29(17-13-19-31(3)21-23-37-33(5)25-35(41)27-39(37,7)8)15-11-12-16-30(2)18-14-20-32(4)22-24-38-34(6)26-36(42)28-40(38,9)10/h11-25,35-37,41-42H,26-28H2,1-10H3/b12-11+,17-13+,18-14+,23-21+,24-22+,29-15+,30-16+,31-19+,32-20+/t35-,36+,37-/m0/s1
Instrument: Xevo G2-S QtOF, Waters (USA) coupled to ACQUITY UPLC, Waters (USA).
Instrument type: LC-ESI-QTOF
Ms type: MS2
Ion mode: POSITIVE
Ionization: ESI
Collision energy: 20 V
Precursor type: [M+H]+
Precursor m/z: 569.4353
m/z	relative intensity
95.085	72
105.07	76
107.086	130
109.103	72
119.085	253
120.091	58
121.101	178
123.08	85
123.117	92
131.087	51
132.093	91
133.102	309
134.107	135
135.117	227
136.121	58
137.097	70
138.103	163
139.112	54
143.086	58
145.101	407
146.107	89
147.117	244
148.122	67
157.101	249
158.109	90
159.117	301
160.122	93
161.132	69
169.102	91
171.117	218
172.119	50
173.133	286
174.136	70
175.148	364
176.152	53
177.129	83
183.117	177
184.122	75
185.133	301
186.138	137
187.148	318
189.126	55
191.143	120
192.151	74
193.159	67
195.115	82
197.132	296
198.139	131
199.148	160
200.156	59
201.127	50
201.164	172
209.132	242
210.135	100
211.148	250
212.152	59
213.162	115
217.159	111
219.175	55
221.132	76
222.135	56
223.148	126
224.153	81
225.161	135
226.169	66
226.951	81
227.177	59
235.148	93
237.164	136
238.169	66
239.177	105
240.183	54
241.192	58
249.164	64
251.18	65
261.164	54
263.18	99
264.182	68
265.194	101
267.208	81
277.194	100
278.201	57
279.208	64
283.206	100
285.217	50
297.219	94
298.914	164
323.237	163
324.242	66
337.249	97
338.26	999
339.264	346
366.903	251
415.294	50
420.301	55
430.323	276
431.327	107
431.339	50
434.891	103
476.364	615
477.368	256
550.412	80
551.423	53
568.427	919
569.305	153
569.328	90
569.43	572
570.435	150
571.223	50
